# Generated by pormake.
# Topology ukh, (4)-cn, num edge types: 1
# Building blocks:
#     Node 0, Type 0, BuildingBlock: ICAMEG_clean_sbu_1, # of connection points: 4
#     Node 1, Type 0, BuildingBlock: ICAMEG_clean_sbu_1, # of connection points: 4
#     Node 2, Type 0, BuildingBlock: ICAMEG_clean_sbu_1, # of connection points: 4
#     Node 3, Type 0, BuildingBlock: ICAMEG_clean_sbu_1, # of connection points: 4
#     Node 4, Type 0, BuildingBlock: ICAMEG_clean_sbu_1, # of connection points: 4
#     Node 5, Type 0, BuildingBlock: ICAMEG_clean_sbu_1, # of connection points: 4
#     Node 6, Type 0, BuildingBlock: ICAMEG_clean_sbu_1, # of connection points: 4
#     Node 7, Type 0, BuildingBlock: ICAMEG_clean_sbu_1, # of connection points: 4
#     Node 8, Type 0, BuildingBlock: ICAMEG_clean_sbu_1, # of connection points: 4
#     Node 9, Type 0, BuildingBlock: ICAMEG_clean_sbu_1, # of connection points: 4
#     Node 10, Type 0, BuildingBlock: ICAMEG_clean_sbu_1, # of connection points: 4
#     Node 11, Type 0, BuildingBlock: ICAMEG_clean_sbu_1, # of connection points: 4
#     Edge 12, Type (0, 0), BuildingBlock: UVAHIK_clean_linker_0, # of connection points: 2
#     Edge 13, Type (0, 0), BuildingBlock: UVAHIK_clean_linker_0, # of connection points: 2
#     Edge 14, Type (0, 0), BuildingBlock: UVAHIK_clean_linker_0, # of connection points: 2
#     Edge 15, Type (0, 0), BuildingBlock: UVAHIK_clean_linker_0, # of connection points: 2
#     Edge 16, Type (0, 0), BuildingBlock: UVAHIK_clean_linker_0, # of connection points: 2
#     Edge 17, Type (0, 0), BuildingBlock: UVAHIK_clean_linker_0, # of connection points: 2
#     Edge 18, Type (0, 0), BuildingBlock: UVAHIK_clean_linker_0, # of connection points: 2
#     Edge 19, Type (0, 0), BuildingBlock: UVAHIK_clean_linker_0, # of connection points: 2
#     Edge 20, Type (0, 0), BuildingBlock: UVAHIK_clean_linker_0, # of connection points: 2
#     Edge 21, Type (0, 0), BuildingBlock: UVAHIK_clean_linker_0, # of connection points: 2
#     Edge 22, Type (0, 0), BuildingBlock: UVAHIK_clean_linker_0, # of connection points: 2
#     Edge 23, Type (0, 0), BuildingBlock: UVAHIK_clean_linker_0, # of connection points: 2
#     Edge 24, Type (0, 0), BuildingBlock: UVAHIK_clean_linker_0, # of connection points: 2
#     Edge 25, Type (0, 0), BuildingBlock: UVAHIK_clean_linker_0, # of connection points: 2
#     Edge 26, Type (0, 0), BuildingBlock: UVAHIK_clean_linker_0, # of connection points: 2
#     Edge 27, Type (0, 0), BuildingBlock: UVAHIK_clean_linker_0, # of connection points: 2
#     Edge 28, Type (0, 0), BuildingBlock: UVAHIK_clean_linker_0, # of connection points: 2
#     Edge 29, Type (0, 0), BuildingBlock: UVAHIK_clean_linker_0, # of connection points: 2
#     Edge 30, Type (0, 0), BuildingBlock: UVAHIK_clean_linker_0, # of connection points: 2
#     Edge 31, Type (0, 0), BuildingBlock: UVAHIK_clean_linker_0, # of connection points: 2
#     Edge 32, Type (0, 0), BuildingBlock: UVAHIK_clean_linker_0, # of connection points: 2
#     Edge 33, Type (0, 0), BuildingBlock: UVAHIK_clean_linker_0, # of connection points: 2
#     Edge 34, Type (0, 0), BuildingBlock: UVAHIK_clean_linker_0, # of connection points: 2
#     Edge 35, Type (0, 0), BuildingBlock: UVAHIK_clean_linker_0, # of connection points: 2
# Relax obj value: 0.030
# Max RMSD: 0.042
# Mean RMSD: 0.042
data_MOF--net-ukh--node1-ICAMEG_clean_sbu_1--edge1-UVAHIK_clean_linker_0
_symmetry_space_group_name_H-M    P1
_symmetry_Int_Tables_number       1
_symmetry_cell_setting            triclinic
loop_
_symmetry_equiv_pos_as_xyz
'x, y, z'
_cell_length_a     43.551406
_cell_length_b     43.534655
_cell_length_c     88.591504
_cell_angle_alpha  89.987494
_cell_angle_beta   90.012489
_cell_angle_gamma 119.99966
loop_
_atom_site_label
_atom_site_type_symbol
_atom_site_fract_x
_atom_site_fract_y
_atom_site_fract_z
_atom_type_partial_charge
Co0 Co 0.33678 0.24654 0.04018 0.0
Co1 Co 0.27247 0.20976 0.06782 0.0
O2 O 0.32179 0.23943 0.06137 0.0
C3 C 0.3654 0.31938 0.05186 0.0
O4 O 0.33388 0.30875 0.05762 0.0
C5 C 0.31443 0.18945 0.08847 0.0
O6 O 0.33835 0.19649 0.078 0.0
O7 O 0.26793 0.16916 0.0556 0.0
O8 O 0.30259 0.19564 0.03543 0.0
H9 H 0.14285 0.12416 0.05968 0.0
H10 H 0.39213 0.27013 0.06391 0.0
O11 O 0.37125 0.29776 0.04445 0.0
H12 H 0.4032 0.18012 0.0344 0.0
H13 H 0.42684 0.29645 0.9983 0.0
H14 H 0.29982 0.22381 0.0107 0.0
H15 H 0.3582 0.19637 0.0277 0.0
H16 H 0.40694 0.2862 0.02483 0.0
O17 O 0.28746 0.19263 0.08577 0.0
H18 H 0.20515 0.16242 0.05196 0.0
H19 H 0.23498 0.19311 0.09755 0.0
H20 H 0.31856 0.23314 0.98403 0.0
H21 H 0.43787 0.25507 0.07086 0.0
H22 H 0.38251 0.2697 0.97769 0.0
H23 H 0.44351 0.20964 0.05609 0.0
O24 O 0.30011 0.25907 0.03459 0.0
H25 H 0.33474 0.31238 0.10362 0.0
H26 H 0.22796 0.24354 0.07249 0.0
H27 H 0.23475 0.29499 0.08691 0.0
H28 H 0.28847 0.32979 0.10266 0.0
H29 H 0.32704 0.26106 0.08883 0.0
H30 H 0.17308 0.15491 0.10576 0.0
H31 H 0.12649 0.12022 0.08675 0.0
O32 O 0.25528 0.22631 0.05045 0.0
C33 C 0.27911 0.16816 0.04237 0.0
C34 C 0.1629 0.13922 0.06806 0.0
C35 C 0.17987 0.15643 0.09393 0.0
N36 N 0.22365 0.18015 0.07427 0.0
C37 C 0.1982 0.161 0.06376 0.0
C38 C 0.21491 0.17793 0.08921 0.0
C39 C 0.15374 0.13699 0.08326 0.0
C40 C 0.39468 0.25063 0.05732 0.0
N41 N 0.37254 0.23419 0.0454 0.0
C42 C 0.42051 0.24208 0.06136 0.0
C43 C 0.42362 0.21654 0.05309 0.0
C44 C 0.40097 0.19993 0.04093 0.0
C45 C 0.37543 0.20913 0.03723 0.0
C46 C 0.39892 0.2804 0.00092 0.0
C47 C 0.3277 0.23954 0.00803 0.0
C48 C 0.38748 0.27456 0.01592 0.0
N49 N 0.35227 0.25416 0.01931 0.0
C50 C 0.33815 0.24483 0.99291 0.0
C51 C 0.37403 0.26537 0.98936 0.0
C52 C 0.26822 0.24663 0.03903 0.0
C53 C 0.31121 0.29743 0.09681 0.0
C54 C 0.25153 0.25876 0.07916 0.0
C55 C 0.25516 0.28775 0.08739 0.0
C56 C 0.28527 0.30722 0.09624 0.0
N57 N 0.27712 0.24936 0.07972 0.0
C58 C 0.30663 0.26824 0.08844 0.0
Co59 Co 0.08688 0.33005 0.37473 0.0
Co60 Co 0.06207 0.26493 0.40139 0.0
O61 O 0.07867 0.31428 0.39579 0.0
C62 C 0.04142 0.35744 0.3863 0.0
O63 O 0.0205 0.32577 0.39192 0.0
C64 C 0.12075 0.30705 0.42332 0.0
O65 O 0.1398 0.32924 0.4126 0.0
O66 O 0.10273 0.26631 0.39047 0.0
O67 O 0.10478 0.29682 0.36971 0.0
H68 H 0.03289 0.13946 0.39172 0.0
H69 H 0.11754 0.3839 0.39903 0.0
O70 O 0.06934 0.36375 0.37915 0.0
H71 H 0.21973 0.39912 0.36913 0.0
H72 H 0.126 0.42108 0.33325 0.0
H73 H 0.07331 0.29389 0.3451 0.0
H74 H 0.15887 0.35378 0.36208 0.0
H75 H 0.11655 0.40055 0.35969 0.0
O76 O 0.09037 0.28064 0.42042 0.0
H77 H 0.05255 0.2015 0.38489 0.0
H78 H 0.03769 0.22371 0.43013 0.0
H79 H 0.08256 0.31327 0.3185 0.0
H80 H 0.17794 0.42989 0.40638 0.0
H81 H 0.10909 0.3773 0.31244 0.0
H82 H 0.22956 0.43763 0.3914 0.0
O83 O 0.03787 0.29285 0.36918 0.0
H84 H 0.00521 0.31294 0.43631 0.0
H85 H 0.98382 0.21482 0.40213 0.0
H86 H 0.93324 0.21414 0.41492 0.0
H87 H 0.94378 0.26343 0.43219 0.0
H88 H 0.05499 0.31278 0.42312 0.0
H89 H 0.01815 0.16199 0.43747 0.0
H90 H 0.01552 0.11934 0.41818 0.0
O91 O 0.03231 0.24703 0.38281 0.0
C92 C 0.11283 0.27643 0.37694 0.0
C93 C 0.03385 0.15777 0.40022 0.0
C94 C 0.02563 0.17043 0.4259 0.0
N95 N 0.04614 0.21619 0.40708 0.0
C96 C 0.04491 0.19292 0.39642 0.0
C97 C 0.03682 0.20538 0.42169 0.0
C98 C 0.02414 0.14651 0.41507 0.0
C99 C 0.13985 0.38735 0.39238 0.0
N100 N 0.13467 0.36624 0.38013 0.0
C101 C 0.174 0.41333 0.39663 0.0
C102 C 0.20295 0.41762 0.38824 0.0
C103 C 0.19746 0.396 0.37575 0.0
C104 C 0.16293 0.37027 0.37184 0.0
C105 C 0.1145 0.39312 0.33575 0.0
C106 C 0.08507 0.32181 0.34255 0.0
C107 C 0.10902 0.38133 0.35069 0.0
N108 N 0.09467 0.34608 0.35393 0.0
C109 C 0.09015 0.33262 0.32747 0.0
C110 C 0.10501 0.36854 0.32408 0.0
C111 C 0.02187 0.25993 0.37242 0.0
C112 C 1.00028 0.29127 0.42884 0.0
C113 C 0.98863 0.23647 0.40954 0.0
C114 C 0.95988 0.23587 0.41681 0.0
C115 C 0.96582 0.26351 0.42651 0.0
N116 N 0.02237 0.26379 0.41188 0.0
C117 C 0.02839 0.29095 0.42139 0.0
Co118 Co 0.75563 0.09047 0.70831 0.0
Co119 Co 0.80025 0.07199 0.73509 0.0
O120 O 0.76474 0.085 0.72952 0.0
C121 C 0.68368 0.04453 0.72083 0.0
O122 O 0.69534 0.02463 0.72675 0.0
C123 C 0.81187 0.12925 0.75708 0.0
O124 O 0.80487 0.14614 0.7466 0.0
O125 O 0.83713 0.11398 0.72402 0.0
O126 O 0.80693 0.10977 0.70288 0.0
H127 H 0.9029 0.05251 0.72525 0.0
H128 H 0.73185 0.12231 0.73186 0.0
O129 O 0.70441 0.07181 0.71311 0.0
H130 H 0.81443 0.22232 0.69977 0.0
H131 H 0.69876 0.1216 0.66602 0.0
H132 H 0.77784 0.07489 0.67901 0.0
H133 H 0.80106 0.16141 0.6941 0.0
H134 H 0.71178 0.11584 0.69263 0.0
O135 O 0.81137 0.10043 0.75406 0.0
H136 H 0.857 0.06745 0.71849 0.0
H137 H 0.82044 0.05076 0.76384 0.0
H138 H 0.76578 0.0805 0.65225 0.0
H139 H 0.74408 0.18276 0.7378 0.0
H140 H 0.72598 0.104 0.64561 0.0
H141 H 0.78575 0.23329 0.72172 0.0
O142 O 0.74537 0.04136 0.70391 0.0
H143 H 0.69685 0.00887 0.77041 0.0
H144 H 0.77777 0.9949 0.73583 0.0
H145 H 0.73055 0.94241 0.74882 0.0
H146 H 0.68973 0.94921 0.76629 0.0
H147 H 0.74417 0.06062 0.75704 0.0
H148 H 0.86613 0.0359 0.77111 0.0
H149 H 0.90768 0.03658 0.75173 0.0
O150 O 0.79032 0.0423 0.71654 0.0
C151 C 0.836 0.12151 0.71018 0.0
C152 C 0.88489 0.05203 0.73379 0.0
C153 C 0.86428 0.04275 0.75953 0.0
N154 N 0.83591 0.05979 0.74073 0.0
C155 C 0.85879 0.0604 0.73002 0.0
C156 C 0.83852 0.05128 0.75535 0.0
C157 C 0.88758 0.04313 0.74865 0.0
C158 C 0.74974 0.14412 0.72472 0.0
N159 N 0.76568 0.13831 0.71265 0.0
C160 C 0.75668 0.17831 0.72818 0.0
C161 C 0.78011 0.20666 0.71917 0.0
C162 C 0.79624 0.20053 0.70686 0.0
C163 C 0.78868 0.16598 0.70375 0.0
C164 C 0.7162 0.11138 0.66876 0.0
C165 C 0.76065 0.08533 0.67621 0.0
C166 C 0.72361 0.10799 0.68381 0.0
N167 N 0.74577 0.0953 0.68736 0.0
C168 C 0.75385 0.08836 0.66103 0.0
C169 C 0.73149 0.10151 0.65732 0.0
C170 C 0.76527 0.02848 0.70691 0.0
C171 C 0.71455 0.00558 0.76287 0.0
C172 C 0.76003 0.99809 0.74336 0.0
C173 C 0.7334 0.96827 0.75072 0.0
C174 C 0.71053 0.97211 0.76053 0.0
N175 N 0.76382 0.03086 0.74572 0.0
C176 C 0.7415 0.03482 0.75532 0.0
Co177 Co 0.67181 0.75813 0.04266 0.0
Co178 Co 0.73169 0.79767 0.07163 0.0
O179 O 0.68362 0.76557 0.06421 0.0
C180 C 0.64361 0.68519 0.05436 0.0
O181 O 0.67436 0.69633 0.06099 0.0
C182 C 0.68393 0.81157 0.09176 0.0
O183 O 0.65957 0.80157 0.08126 0.0
O184 O 0.73436 0.83734 0.05933 0.0
O185 O 0.70514 0.80944 0.03821 0.0
H186 H 0.85993 0.8908 0.06594 0.0
H187 H 0.61271 0.73242 0.06468 0.0
O188 O 0.63815 0.70658 0.04656 0.0
H189 H 0.60218 0.82011 0.03319 0.0
H190 H 0.58873 0.70583 0.99848 0.0
H191 H 0.71309 0.78214 0.01421 0.0
H192 H 0.64979 0.80634 0.02849 0.0
H193 H 0.60441 0.71651 0.02547 0.0
O194 O 0.71295 0.81213 0.0892 0.0
H195 H 0.7993 0.84941 0.05706 0.0
H196 H 0.76614 0.81504 0.10204 0.0
H197 H 0.69857 0.7724 0.9871 0.0
H198 H 0.56432 0.74496 0.0696 0.0
H199 H 0.63599 0.734 0.97908 0.0
H200 H 0.55893 0.78923 0.05384 0.0
O201 O 0.71053 0.74746 0.03871 0.0
H202 H 0.67184 0.69287 0.10653 0.0
H203 H 0.78004 0.76858 0.07722 0.0
H204 H 0.77575 0.71826 0.0917 0.0
H205 H 0.72135 0.68001 0.10654 0.0
H206 H 0.67708 0.74316 0.09169 0.0
H207 H 0.82633 0.8563 0.11142 0.0
H208 H 0.87377 0.89444 0.09331 0.0
O209 O 0.75286 0.78414 0.05474 0.0
C210 C 0.72556 0.8376 0.04559 0.0
C211 C 0.83951 0.87425 0.07394 0.0
C212 C 0.82064 0.85493 0.09947 0.0
N213 N 0.77923 0.82969 0.079 0.0
C214 C 0.80515 0.85071 0.06898 0.0
C215 C 0.78657 0.8317 0.09409 0.0
C216 C 0.84725 0.87631 0.0893 0.0
C217 C 0.61031 0.75142 0.05766 0.0
N218 N 0.63407 0.76862 0.04632 0.0
C219 C 0.58296 0.75855 0.06055 0.0
C220 C 0.57999 0.78343 0.05172 0.0
C221 C 0.60428 0.80081 0.04015 0.0
C222 C 0.63131 0.79303 0.03759 0.0
C223 C 0.61609 0.72268 0.00183 0.0
C224 C 0.68578 0.76558 0.01081 0.0
C225 C 0.62513 0.72877 0.0171 0.0
N226 N 0.6596 0.75017 0.02141 0.0
C227 C 0.67772 0.76008 0.99544 0.0
C228 C 0.64261 0.7385 0.99095 0.0
C229 C 0.74228 0.76273 0.04361 0.0
C230 C 0.69571 0.70937 0.10012 0.0
C231 C 0.75618 0.75191 0.08351 0.0
C232 C 0.75396 0.72354 0.09177 0.0
C233 C 0.72346 0.70213 0.10011 0.0
N234 N 0.72885 0.75885 0.08355 0.0
C235 C 0.6989 0.738 0.09174 0.0
Co236 Co 0.9087 0.664 0.37488 0.0
Co237 Co 0.94522 0.73363 0.40014 0.0
O238 O 0.92278 0.68313 0.39533 0.0
C239 C 0.95405 0.63569 0.38528 0.0
O240 O 0.97671 0.66799 0.3898 0.0
C241 C 0.88609 0.69921 0.42254 0.0
O242 O 0.86446 0.67885 0.41192 0.0
O243 O 0.90694 0.73733 0.38931 0.0
O244 O 0.89219 0.69838 0.37025 0.0
H245 H 0.98974 0.86199 0.3884 0.0
H246 H 0.88255 0.61498 0.40104 0.0
O247 O 0.92508 0.62921 0.37902 0.0
H248 H 0.77527 0.60063 0.37574 0.0
H249 H 0.85499 0.56567 0.3365 0.0
H250 H 0.91559 0.69504 0.34441 0.0
H251 H 0.83466 0.64195 0.36558 0.0
H252 H 0.8724 0.59085 0.36209 0.0
O253 O 0.91792 0.72235 0.41939 0.0
H254 H 0.96263 0.79824 0.38259 0.0
H255 H 0.97437 0.77642 0.42829 0.0
H256 H 0.89839 0.671 0.31864 0.0
H257 H 0.82366 0.5731 0.4115 0.0
H258 H 0.86785 0.60585 0.31456 0.0
H259 H 0.7695 0.56579 0.39884 0.0
O260 O 0.95645 0.6982 0.36673 0.0
H261 H 0.99265 0.6768 0.43541 0.0
H262 H 0.02428 0.77661 0.40058 0.0
H263 H 0.07172 0.77127 0.41335 0.0
H264 H 0.05601 0.72108 0.43092 0.0
H265 H 0.94608 0.68297 0.42229 0.0
H266 H 0.00131 0.83987 0.43462 0.0
H267 H 0.00927 0.88316 0.41458 0.0
O268 O 0.97429 0.74645 0.38136 0.0
C269 C 0.891 0.72379 0.37689 0.0
C270 C 0.98649 0.8434 0.39722 0.0
C271 C 0.99293 0.83097 0.42317 0.0
N272 N 0.96708 0.78365 0.40506 0.0
C273 C 0.97124 0.80728 0.39399 0.0
C274 C 0.97754 0.79505 0.41952 0.0
C275 C 0.99741 0.85525 0.41192 0.0
C276 C 0.85909 0.61169 0.39539 0.0
N277 N 0.86203 0.63076 0.38268 0.0
C278 C 0.82582 0.58805 0.4014 0.0
C279 C 0.79545 0.58401 0.39431 0.0
C280 C 0.79867 0.60357 0.38135 0.0
C281 C 0.83237 0.627 0.37567 0.0
C282 C 0.86821 0.59409 0.33814 0.0
C283 C 0.90212 0.66667 0.34273 0.0
C284 C 0.87819 0.60851 0.3526 0.0
N285 N 0.89473 0.64437 0.35475 0.0
C286 C 0.89253 0.65321 0.32811 0.0
C287 C 0.87543 0.61665 0.32583 0.0
C288 C 0.9779 0.7305 0.37003 0.0
C289 C 0.99983 0.69881 0.4278 0.0
C290 C 0.01724 0.7546 0.40815 0.0
C291 C 0.04421 0.75178 0.41539 0.0
C292 C 0.03538 0.72363 0.42526 0.0
N293 N 0.98244 0.73008 0.41065 0.0
C294 C 0.97357 0.7025 0.42037 0.0
Co295 Co 0.24639 0.90996 0.70792 0.0
Co296 Co 0.20249 0.92995 0.73458 0.0
O297 O 0.2374 0.91603 0.72907 0.0
C298 C 0.31834 0.95551 0.72047 0.0
O299 O 0.30682 0.97559 0.72631 0.0
C300 C 0.19096 0.87297 0.75674 0.0
O301 O 0.20011 0.85713 0.74658 0.0
O302 O 0.16517 0.8884 0.72346 0.0
O303 O 0.19518 0.89117 0.70245 0.0
H304 H 0.10165 0.95214 0.72452 0.0
H305 H 0.27018 0.8781 0.7315 0.0
O306 O 0.29754 0.92824 0.71276 0.0
H307 H 0.18614 0.77787 0.69987 0.0
H308 H 0.30252 0.8771 0.66593 0.0
H309 H 0.22455 0.92536 0.67848 0.0
H310 H 0.19996 0.83885 0.69406 0.0
H311 H 0.28963 0.88356 0.69248 0.0
O312 O 0.19041 0.90118 0.75352 0.0
H313 H 0.1468 0.93609 0.71785 0.0
H314 H 0.18251 0.9514 0.76331 0.0
H315 H 0.23648 0.91908 0.65178 0.0
H316 H 0.25756 0.81758 0.73756 0.0
H317 H 0.27573 0.8948 0.64537 0.0
H318 H 0.21513 0.76693 0.72173 0.0
O319 O 0.25723 0.95909 0.70328 0.0
H320 H 0.30562 0.99112 0.77018 0.0
H321 H 0.22652 0.00736 0.73535 0.0
H322 H 0.27416 0.05927 0.74849 0.0
H323 H 0.31407 0.05131 0.76609 0.0
H324 H 0.2579 0.93999 0.75667 0.0
H325 H 0.13755 0.96734 0.77049 0.0
H326 H 0.09681 0.96791 0.75101 0.0
O327 O 0.21322 0.95986 0.71602 0.0
C328 C 0.16616 0.88038 0.70968 0.0
C329 C 0.11933 0.9521 0.7331 0.0
C330 C 0.13945 0.96059 0.7589 0.0
N331 N 0.16747 0.94307 0.74014 0.0
C332 C 0.14502 0.94312 0.72938 0.0
C333 C 0.16481 0.95147 0.75477 0.0
C334 C 0.1166 0.96091 0.74797 0.0
C335 C 0.25197 0.85625 0.72446 0.0
N336 N 0.23582 0.86203 0.71246 0.0
C337 C 0.2448 0.82202 0.72799 0.0
C338 C 0.22095 0.7936 0.71912 0.0
C339 C 0.20463 0.79971 0.70687 0.0
C340 C 0.21243 0.8343 0.70368 0.0
C341 C 0.28531 0.88765 0.66858 0.0
C342 C 0.24147 0.91457 0.67578 0.0
C343 C 0.27797 0.89143 0.68359 0.0
N344 N 0.25612 0.90455 0.68702 0.0
C345 C 0.24822 0.91117 0.66064 0.0
C346 C 0.27027 0.89757 0.65705 0.0
C347 C 0.23785 0.9726 0.70617 0.0
C348 C 0.28832 0.99491 0.76259 0.0
C349 C 0.24385 0.00367 0.74294 0.0
C350 C 0.27073 0.03317 0.75039 0.0
C351 C 0.29309 0.02868 0.76026 0.0
N352 N 0.23931 0.97061 0.7453 0.0
C353 C 0.26114 0.96602 0.75496 0.0
Co354 Co 0.75681 0.66638 0.62955 0.0
Co355 Co 0.79664 0.73583 0.60513 0.0
O356 O 0.76338 0.68576 0.60916 0.0
C357 C 0.68349 0.64004 0.61882 0.0
O358 O 0.69357 0.67249 0.61437 0.0
C359 C 0.81167 0.69813 0.58064 0.0
O360 O 0.81375 0.67713 0.59072 0.0
O361 O 0.83591 0.73095 0.61406 0.0
O362 O 0.80814 0.69908 0.63461 0.0
H363 H 0.89624 0.858 0.61759 0.0
H364 H 0.73395 0.61756 0.60336 0.0
O365 O 0.7056 0.63302 0.62506 0.0
H366 H 0.82155 0.59757 0.63029 0.0
H367 H 0.70701 0.56855 0.66824 0.0
H368 H 0.78028 0.69752 0.66002 0.0
H369 H 0.80551 0.64087 0.63988 0.0
H370 H 0.71698 0.59346 0.64252 0.0
O371 O 0.80616 0.72297 0.58473 0.0
H372 H 0.85304 0.79521 0.62274 0.0
H373 H 0.81254 0.7825 0.57815 0.0
H374 H 0.77127 0.67372 0.68592 0.0
H375 H 0.74897 0.57373 0.59346 0.0
H376 H 0.73439 0.60879 0.69016 0.0
H377 H 0.79314 0.56358 0.60694 0.0
O378 O 0.74475 0.70224 0.63693 0.0
H379 H 0.6894 0.6986 0.57241 0.0
H380 H 0.7708 0.7873 0.60904 0.0
H381 H 0.72101 0.79251 0.59875 0.0
H382 H 0.67993 0.74801 0.58027 0.0
H383 H 0.73927 0.6941 0.58313 0.0
H384 H 0.85549 0.84511 0.57249 0.0
H385 H 0.89766 0.88336 0.59231 0.0
O386 O 0.78748 0.75045 0.6253 0.0
C387 C 0.8364 0.71942 0.62725 0.0
C388 C 0.87794 0.84164 0.60888 0.0
C389 C 0.8551 0.83439 0.58356 0.0
N390 N 0.83013 0.78525 0.6008 0.0
C391 C 0.85335 0.80607 0.61174 0.0
C392 C 0.83089 0.79892 0.58682 0.0
C393 C 0.87874 0.85583 0.59468 0.0
C394 C 0.75296 0.61305 0.60936 0.0
N395 N 0.76871 0.63164 0.62221 0.0
C396 C 0.76146 0.58831 0.60367 0.0
C397 C 0.78628 0.58266 0.61122 0.0
C398 C 0.80226 0.60174 0.62432 0.0
C399 C 0.79313 0.6263 0.62967 0.0
C400 C 0.72319 0.59688 0.66654 0.0
C401 C 0.76438 0.66922 0.66177 0.0
C402 C 0.72886 0.61115 0.65201 0.0
N403 N 0.74942 0.64688 0.64977 0.0
C404 C 0.75929 0.65591 0.67646 0.0
C405 C 0.73857 0.61948 0.67883 0.0
C406 C 0.76324 0.73572 0.63524 0.0
C407 C 0.70718 0.71822 0.58042 0.0
C408 C 0.75296 0.76771 0.60106 0.0
C409 C 0.72486 0.77087 0.59524 0.0
C410 C 0.70185 0.74591 0.58486 0.0
N411 N 0.75802 0.74046 0.59666 0.0
C412 C 0.73557 0.7159 0.58648 0.0
Co413 Co 0.09444 0.75859 0.96237 0.0
Co414 Co 0.06355 0.79413 0.93541 0.0
O415 O 0.08432 0.76515 0.94142 0.0
C416 C 0.04849 0.68549 0.95126 0.0
O417 O 0.02742 0.69627 0.94585 0.0
C418 C 0.12619 0.81699 0.91488 0.0
O419 O 0.14367 0.81113 0.92549 0.0
O420 O 0.09916 0.83492 0.94773 0.0
O421 O 0.11209 0.80965 0.96699 0.0
H422 H 0.01651 0.87685 0.94478 0.0
H423 H 0.12292 0.73383 0.93772 0.0
O424 O 0.07673 0.70716 0.95823 0.0
H425 H 0.22776 0.82413 0.96529 0.0
H426 H 0.13851 0.70917 0.00293 0.0
H427 H 0.08439 0.78291 0.99228 0.0
H428 H 0.16754 0.80857 0.97342 0.0
H429 H 0.12589 0.7187 0.97674 0.0
O430 O 0.09543 0.81241 0.91743 0.0
H431 H 0.04191 0.8394 0.95192 0.0
H432 H 0.04201 0.81143 0.90599 0.0
H433 H 0.09679 0.77432 0.01863 0.0
H434 H 0.18265 0.74823 0.92934 0.0
H435 H 0.12405 0.7372 0.02409 0.0
H436 H 0.2356 0.79379 0.94312 0.0
O437 O 0.04607 0.74677 0.96906 0.0
H438 H 0.02455 0.6926 0.89911 0.0
H439 H 0.9853 0.75954 0.93081 0.0
H440 H 0.94105 0.70803 0.91627 0.0
H441 H 0.96064 0.67419 0.90024 0.0
H442 H 0.06776 0.74396 0.91402 0.0
H443 H 0.01695 0.84885 0.89834 0.0
H444 H 0.00387 0.88175 0.91781 0.0
O445 O 0.0301 0.77607 0.95286 0.0
C446 C 0.11383 0.83658 0.96043 0.0
C447 C 0.02199 0.86255 0.93619 0.0
C448 C 0.0223 0.84689 0.91013 0.0
N449 N 0.04322 0.82306 0.92941 0.0
C450 C 0.03628 0.84123 0.94017 0.0
C451 C 0.0366 0.82583 0.91453 0.0
C452 C 0.01495 0.86533 0.92106 0.0
C453 C 0.14581 0.75339 0.94389 0.0
N454 N 0.14173 0.77028 0.95607 0.0
C455 C 0.17957 0.76156 0.93904 0.0
C456 C 0.20927 0.78718 0.94676 0.0
C457 C 0.2049 0.80425 0.95919 0.0
C458 C 0.17073 0.79543 0.9637 0.0
C459 C 0.12668 0.72545 1.00069 0.0
C460 C 0.09642 0.76689 0.99456 0.0
C461 C 0.1194 0.73088 0.98589 0.0
N462 N 0.10463 0.75154 0.98298 0.0
C463 C 0.1033 0.76204 0.00951 0.0
C464 C 0.11857 0.74119 0.01256 0.0
C465 C 0.02489 0.75709 0.96458 0.0
C466 C 0.01567 0.7071 0.90606 0.0
C467 C 0.99393 0.74469 0.92402 0.0
C468 C 0.96881 0.71569 0.91573 0.0
C469 C 0.97982 0.69676 0.90672 0.0
N470 N 0.02903 0.75458 0.92339 0.0
C471 C 0.04004 0.73628 0.9145 0.0
Co472 Co 0.33134 0.08716 0.29493 0.0
Co473 Co 0.27069 0.06813 0.26644 0.0
O474 O 0.31895 0.08345 0.27345 0.0
C475 C 0.35903 0.04266 0.28251 0.0
O476 O 0.32808 0.02328 0.276 0.0
C477 C 0.31873 0.12936 0.24622 0.0
O478 O 0.34421 0.14183 0.25627 0.0
O479 O 0.26926 0.10536 0.27899 0.0
O480 O 0.29813 0.10503 0.29995 0.0
H481 H 0.14314 0.03458 0.27326 0.0
H482 H 0.39034 0.12139 0.27288 0.0
O483 O 0.36483 0.06938 0.29048 0.0
H484 H 0.40119 0.21842 0.30528 0.0
H485 H 0.41535 0.11624 0.33864 0.0
H486 H 0.29066 0.06869 0.32355 0.0
H487 H 0.35353 0.15688 0.30964 0.0
H488 H 0.39911 0.1123 0.31175 0.0
O489 O 0.28909 0.10168 0.24892 0.0
H490 H 0.20394 0.05299 0.28164 0.0
H491 H 0.23514 0.05198 0.2363 0.0
H492 H 0.30576 0.0724 0.35058 0.0
H493 H 0.43881 0.18249 0.2683 0.0
H494 H 0.36851 0.09633 0.35827 0.0
H495 H 0.44435 0.23155 0.28452 0.0
O496 O 0.29279 0.03765 0.29861 0.0
H497 H 0.32698 0.02173 0.23035 0.0
H498 H 0.22152 0.99068 0.26143 0.0
H499 H 0.22407 0.94415 0.24658 0.0
H500 H 0.27706 0.95957 0.23086 0.0
H501 H 0.32352 0.06733 0.24552 0.0
H502 H 0.17476 0.03385 0.22742 0.0
H503 H 0.12822 0.02488 0.24597 0.0
O504 O 0.24977 0.03332 0.28336 0.0
C505 C 0.27812 0.11367 0.29277 0.0
C506 C 0.16316 0.0383 0.26507 0.0
C507 C 0.18092 0.03794 0.23935 0.0
N508 N 0.22301 0.05332 0.25949 0.0
C509 C 0.19761 0.04864 0.26976 0.0
C510 C 0.21509 0.04829 0.24444 0.0
C511 C 0.15482 0.0329 0.24976 0.0
C512 C 0.39279 0.14252 0.28009 0.0
N513 N 0.36904 0.13554 0.29148 0.0
C514 C 0.42019 0.1771 0.2774 0.0
C515 C 0.42325 0.20462 0.28648 0.0
C516 C 0.399 0.19729 0.29811 0.0
C517 C 0.37193 0.16239 0.30047 0.0
C518 C 0.38793 0.10585 0.33543 0.0
C519 C 0.31805 0.07934 0.32682 0.0
C520 C 0.37856 0.1035 0.32022 0.0
N521 N 0.34401 0.09058 0.3161 0.0
C522 C 0.32643 0.08128 0.34213 0.0
C523 C 0.36163 0.09468 0.34644 0.0
C524 C 0.26078 0.02167 0.29404 0.0
C525 C 0.30369 0.0147 0.23711 0.0
C526 C 0.24473 0.99761 0.25468 0.0
C527 C 0.24598 0.97115 0.24625 0.0
C528 C 0.2757 0.97982 0.23742 0.0
N529 N 0.27225 0.0318 0.25429 0.0
C530 C 0.30149 0.04047 0.24567 0.0
Co531 Co 0.2455 0.3365 0.63116 0.0
Co532 Co 0.20457 0.27192 0.60476 0.0
O533 O 0.23925 0.32062 0.61022 0.0
C534 C 0.31869 0.36182 0.62054 0.0
O535 O 0.30762 0.32983 0.61522 0.0
C536 C 0.19174 0.31392 0.58135 0.0
O537 O 0.18621 0.33186 0.59187 0.0
O538 O 0.16611 0.27766 0.61406 0.0
O539 O 0.19365 0.30474 0.63551 0.0
H540 H 0.10026 0.15023 0.61367 0.0
H541 H 0.27088 0.38928 0.6064 0.0
O542 O 0.29723 0.36892 0.62733 0.0
H543 H 0.18579 0.40981 0.63511 0.0
H544 H 0.29688 0.4272 0.67277 0.0
H545 H 0.21943 0.30059 0.66066 0.0
H546 H 0.19907 0.36336 0.643 0.0
H547 H 0.28729 0.40671 0.64633 0.0
O548 O 0.19791 0.28917 0.58484 0.0
H549 H 0.14528 0.21126 0.62066 0.0
H550 H 0.18838 0.22963 0.57639 0.0
H551 H 0.22801 0.31995 0.68725 0.0
H552 H 0.25857 0.43622 0.59818 0.0
H553 H 0.26698 0.38368 0.69344 0.0
H554 H 0.2157 0.44668 0.61257 0.0
O555 O 0.25511 0.29796 0.63711 0.0
H556 H 0.3133 0.30943 0.57301 0.0
H557 H 0.2262 0.21685 0.60683 0.0
H558 H 0.27491 0.21027 0.59621 0.0
H559 H 0.31884 0.25672 0.57913 0.0
H560 H 0.26447 0.31522 0.58405 0.0
H561 H 0.14365 0.16885 0.56889 0.0
H562 H 0.09926 0.12865 0.58762 0.0
O563 O 0.21116 0.25306 0.62437 0.0
C564 C 0.1655 0.28697 0.62768 0.0
C565 C 0.11953 0.16746 0.60542 0.0
C566 C 0.14386 0.17793 0.58029 0.0
N567 N 0.16961 0.22392 0.59898 0.0
C568 C 0.14515 0.20203 0.60932 0.0
C569 C 0.16907 0.21235 0.58459 0.0
C570 C 0.11896 0.15538 0.5908 0.0
C571 C 0.2524 0.39387 0.61278 0.0
N572 N 0.23588 0.37375 0.6252 0.0
C573 C 0.24545 0.4204 0.60804 0.0
C574 C 0.22136 0.42622 0.61611 0.0
C575 C 0.20455 0.40554 0.62876 0.0
C576 C 0.21213 0.37922 0.63315 0.0
C577 C 0.27978 0.39937 0.67022 0.0
C578 C 0.23627 0.32839 0.66326 0.0
C579 C 0.27433 0.3876 0.65527 0.0
N580 N 0.25261 0.35252 0.65196 0.0
C581 C 0.2411 0.33918 0.67834 0.0
C582 C 0.26299 0.37494 0.68181 0.0
C583 C 0.23523 0.26496 0.63448 0.0
C584 C 0.29426 0.28895 0.5804 0.0
C585 C 0.2453 0.23728 0.59947 0.0
C586 C 0.27277 0.23335 0.59345 0.0
C587 C 0.29739 0.2594 0.58386 0.0
N588 N 0.2424 0.26635 0.59603 0.0
C589 C 0.26644 0.29199 0.58663 0.0
Co590 Co 0.91205 0.2462 0.96461 0.0
Co591 Co 0.93173 0.2069 0.93506 0.0
O592 O 0.91494 0.23796 0.94299 0.0
C593 C 0.95595 0.31836 0.95214 0.0
O594 O 0.97463 0.30651 0.94522 0.0
C595 C 0.86881 0.19278 0.91544 0.0
O596 O 0.85917 0.21009 0.92458 0.0
O597 O 0.89826 0.16746 0.94852 0.0
O598 O 0.89438 0.19513 0.96924 0.0
H599 H 0.97435 0.11931 0.93983 0.0
H600 H 0.87732 0.27178 0.94316 0.0
O601 O 0.92985 0.29764 0.96045 0.0
H602 H 0.78113 0.18455 0.97559 0.0
H603 H 0.88444 0.30038 0.00905 0.0
H604 H 0.93061 0.22274 0.99289 0.0
H605 H 0.84274 0.19822 0.97947 0.0
H606 H 0.88775 0.28876 0.98202 0.0
O607 O 0.89512 0.18876 0.91862 0.0
H608 H 0.95413 0.15959 0.9492 0.0
H609 H 0.94384 0.187 0.9042 0.0
H610 H 0.92753 0.23342 0.02004 0.0
H611 H 0.81614 0.25934 0.93906 0.0
H612 H 0.90431 0.2725 0.02827 0.0
H613 H 0.76751 0.2153 0.95529 0.0
O614 O 0.96158 0.25692 0.96807 0.0
H615 H 0.96711 0.30944 0.89948 0.0
H616 H 0.00761 0.23699 0.92631 0.0
H617 H 0.04975 0.28675 0.91042 0.0
H618 H 0.02953 0.32334 0.89681 0.0
H619 H 0.92613 0.25989 0.91568 0.0
H620 H 0.96356 0.14673 0.89436 0.0
H621 H 0.97914 0.11267 0.91222 0.0
O622 O 0.96969 0.224 0.95076 0.0
C623 C 0.88847 0.16719 0.96214 0.0
C624 C 0.96774 0.1341 0.93193 0.0
C625 C 0.96163 0.14944 0.90641 0.0
N626 N 0.94804 0.17582 0.92728 0.0
C627 C 0.95638 0.15702 0.93717 0.0
C628 C 0.95035 0.17211 0.91206 0.0
C629 C 0.97038 0.13035 0.91644 0.0
C630 C 0.85637 0.25284 0.95037 0.0
N631 N 0.86362 0.23569 0.96151 0.0
C632 C 0.82174 0.24578 0.94795 0.0
C633 C 0.79446 0.22103 0.95704 0.0
C634 C 0.80208 0.20372 0.96841 0.0
C635 C 0.83701 0.21143 0.9705 0.0
C636 C 0.89455 0.28325 0.0056 0.0
C637 C 0.92028 0.2396 0.99639 0.0
C638 C 0.89655 0.27663 0.99031 0.0
N639 N 0.90912 0.25489 0.98589 0.0
C640 C 0.91869 0.24563 0.01177 0.0
C641 C 0.90569 0.26759 0.01638 0.0
C642 C 0.9797 0.2443 0.96227 0.0
C643 C 0.97622 0.29363 0.90531 0.0
C644 C 0.99868 0.25292 0.92056 0.0
C645 C 0.02262 0.28098 0.9115 0.0
C646 C 0.01125 0.30146 0.90384 0.0
N647 N 0.96432 0.24531 0.92195 0.0
C648 C 0.95302 0.26531 0.91446 0.0
Co649 Co 0.66236 0.90748 0.2981 0.0
Co650 Co 0.72252 0.92647 0.26947 0.0
O651 O 0.67426 0.91055 0.27659 0.0
C652 C 0.6334 0.95024 0.28516 0.0
O653 O 0.66427 0.9695 0.27858 0.0
C654 C 0.67468 0.86468 0.24943 0.0
O655 O 0.64918 0.85228 0.25948 0.0
O656 O 0.72474 0.88988 0.28214 0.0
O657 O 0.69662 0.89082 0.30325 0.0
H658 H 0.85067 0.96196 0.27599 0.0
H659 H 0.60289 0.87126 0.27638 0.0
O660 O 0.62799 0.92414 0.29349 0.0
H661 H 0.5951 0.77665 0.30955 0.0
H662 H 0.57912 0.87888 0.34206 0.0
H663 H 0.70374 0.92786 0.32656 0.0
H664 H 0.64199 0.83877 0.31337 0.0
H665 H 0.59483 0.88193 0.31514 0.0
O666 O 0.70425 0.8925 0.25208 0.0
H667 H 0.78983 0.94287 0.28452 0.0
H668 H 0.75759 0.94249 0.23922 0.0
H669 H 0.68921 0.92507 0.35362 0.0
H670 H 0.55516 0.80956 0.27235 0.0
H671 H 0.62649 0.90043 0.36152 0.0
H672 H 0.55116 0.76172 0.28895 0.0
O673 O 0.70021 0.95743 0.30138 0.0
H674 H 0.66462 0.97082 0.23318 0.0
H675 H 0.77062 0.00403 0.26427 0.0
H676 H 0.7671 0.04984 0.24926 0.0
H677 H 0.71384 0.03333 0.23353 0.0
H678 H 0.66904 0.92595 0.24851 0.0
H679 H 0.81801 0.96128 0.2302 0.0
H680 H 0.86508 0.97129 0.24865 0.0
O681 O 0.74334 0.96172 0.28624 0.0
C682 C 0.71662 0.88223 0.29602 0.0
C683 C 0.83041 0.95779 0.26785 0.0
C684 C 0.81207 0.95736 0.24215 0.0
N685 N 0.77023 0.94181 0.2624 0.0
C686 C 0.79593 0.94706 0.27261 0.0
C687 C 0.77788 0.94664 0.24732 0.0
C688 C 0.83847 0.96298 0.25251 0.0
C689 C 0.60112 0.85066 0.28376 0.0
N690 N 0.62529 0.85864 0.29506 0.0
C691 C 0.57413 0.81574 0.28137 0.0
C692 C 0.57194 0.7889 0.29067 0.0
C693 C 0.59662 0.79725 0.30222 0.0
C694 C 0.62326 0.83246 0.30426 0.0
C695 C 0.60653 0.88958 0.33877 0.0
C696 C 0.67637 0.91687 0.32992 0.0
C697 C 0.61559 0.89142 0.32354 0.0
N698 N 0.65013 0.90473 0.3193 0.0
C699 C 0.66831 0.91546 0.34525 0.0
C700 C 0.63313 0.90167 0.34968 0.0
C701 C 0.73217 0.9736 0.29676 0.0
C702 C 0.68804 0.97831 0.23994 0.0
C703 C 0.7473 0.99662 0.2575 0.0
C704 C 0.7455 0.02268 0.24899 0.0
C705 C 0.71563 0.01339 0.24016 0.0
N706 N 0.72017 0.96223 0.2572 0.0
C707 C 0.69078 0.95296 0.24858 0.0
C708 C 0.58337 0.6353 0.04754 0.0
C709 C 0.61509 0.64766 0.05571 0.0
C710 C 0.55651 0.59989 0.04854 0.0
C711 C 0.49608 0.52867 0.0584 0.0
H712 H 0.52106 0.45481 0.05869 0.0
C713 C 0.38958 0.38022 0.06301 0.0
C714 C 0.39424 0.3566 0.05378 0.0
C715 C 0.41675 0.41548 0.06457 0.0
C716 C 0.5136 0.47509 0.05854 0.0
H717 H 0.64319 0.63248 0.07151 0.0
H718 H 0.596 0.57062 0.07342 0.0
H719 H 0.56777 0.51682 0.0587 0.0
H720 H 0.43123 0.35151 0.03903 0.0
H721 H 0.47814 0.41294 0.0415 0.0
H722 H 0.44196 0.48701 0.05764 0.0
C723 C 0.59217 0.58828 0.06605 0.0
C724 C 0.54042 0.5107 0.05874 0.0
C725 C 0.61917 0.62378 0.06501 0.0
C726 C 0.42675 0.36894 0.04627 0.0
C727 C 0.45381 0.40418 0.04777 0.0
C728 C 0.46927 0.49309 0.05814 0.0
C729 C 0.56052 0.57588 0.05779 0.0
C730 C 0.53201 0.53796 0.0585 0.0
C731 C 0.44915 0.42797 0.0569 0.0
C732 C 0.47768 0.46582 0.05804 0.0
H733 H 0.57934 0.6529 0.04022 0.0
H734 H 0.53282 0.59121 0.04181 0.0
H735 H 0.48859 0.54894 0.05843 0.0
H736 H 0.36496 0.37149 0.06905 0.0
H737 H 0.4124 0.43292 0.07186 0.0
C738 C 0.05202 0.41798 0.37997 0.0
C739 C 0.0325 0.38595 0.38791 0.0
C740 C 0.04346 0.4448 0.38115 0.0
C741 C 0.03252 0.50492 0.39112 0.0
H742 H 0.93371 0.47983 0.39213 0.0
C743 C 0.9913 0.61178 0.39596 0.0
C744 C 0.96228 0.60678 0.38718 0.0
C745 C 0.99934 0.58457 0.39747 0.0
C746 C 0.96145 0.48734 0.39175 0.0
H747 H 0.98896 0.35722 0.40352 0.0
H748 H 0.9744 0.4044 0.40582 0.0
H749 H 0.94902 0.43318 0.3918 0.0
H750 H 0.91885 0.56919 0.37313 0.0
H751 H 0.93336 0.52225 0.37542 0.0
H752 H 0.04496 0.55902 0.39037 0.0
C753 C 0.99595 0.4085 0.39845 0.0
C754 C 0.97026 0.46054 0.39178 0.0
C755 C 0.00439 0.3815 0.39719 0.0
C756 C 0.94132 0.5739 0.38004 0.0
C757 C 0.9495 0.54683 0.38145 0.0
C758 C 0.02373 0.53171 0.39098 0.0
C759 C 0.01531 0.44047 0.39039 0.0
C760 C 0.00591 0.46897 0.39129 0.0
C761 C 0.97869 0.55181 0.39013 0.0
C762 C 0.98806 0.52329 0.39114 0.0
H763 H 0.07373 0.42226 0.37265 0.0
H764 H 0.05855 0.46869 0.37454 0.0
H765 H 0.06029 0.51247 0.39099 0.0
H766 H 0.0078 0.63671 0.40171 0.0
H767 H 0.02167 0.5892 0.40445 0.0
C768 C 0.37866 0.99234 0.73211 0.0
C769 C 0.35562 0.96437 0.72261 0.0
C770 C 0.41395 0.00065 0.73389 0.0
C771 C 0.49193 0.02643 0.72783 0.0
H772 H 0.5161 0.95193 0.72737 0.0
C773 C 0.63341 0.05517 0.71537 0.0
C774 C 0.64632 0.03548 0.7229 0.0
C775 C 0.59816 0.04665 0.71702 0.0
C776 C 0.50987 0.97308 0.72772 0.0
H777 H 0.35162 0.92312 0.70759 0.0
H778 H 0.41296 0.93804 0.71042 0.0
H779 H 0.45408 0.93637 0.72772 0.0
H780 H 0.63234 0.9917 0.73829 0.0
H781 H 0.57072 0.97708 0.74135 0.0
H782 H 0.54772 0.06314 0.72805 0.0
C783 C 0.40377 0.95316 0.71676 0.0
C784 C 0.47425 0.96416 0.72772 0.0
C785 C 0.36857 0.94477 0.71504 0.0
C786 C 0.62318 0.00726 0.73226 0.0
C787 C 0.58783 0.9988 0.73397 0.0
C788 C 0.52755 0.03535 0.72791 0.0
C789 C 0.42698 0.98123 0.72618 0.0
C790 C 0.46482 0.99072 0.7275 0.0
C791 C 0.57485 0.01835 0.72632 0.0
C792 C 0.53699 0.0088 0.72757 0.0
H793 H 0.36947 0.00781 0.73818 0.0
H794 H 0.43097 0.02218 0.74137 0.0
H795 H 0.48573 0.0476 0.72756 0.0
H796 H 0.65043 0.07701 0.70801 0.0
H797 H 0.58901 0.06188 0.71072 0.0
C798 C 0.63439 0.57836 0.62395 0.0
C799 C 0.64624 0.61139 0.61696 0.0
C800 C 0.59917 0.55137 0.62257 0.0
C801 C 0.52788 0.49207 0.61241 0.0
H802 H 0.45386 0.51666 0.61433 0.0
C803 C 0.37911 0.3854 0.60906 0.0
C804 C 0.35609 0.39007 0.61867 0.0
C805 C 0.41434 0.41249 0.60729 0.0
C806 C 0.47418 0.50927 0.61388 0.0
H807 H 0.6305 0.64173 0.60276 0.0
H808 H 0.56901 0.59425 0.60008 0.0
H809 H 0.51565 0.56348 0.61434 0.0
H810 H 0.35211 0.42672 0.63405 0.0
H811 H 0.41344 0.47328 0.63132 0.0
H812 H 0.48644 0.43783 0.61272 0.0
C813 C 0.58684 0.58948 0.6069 0.0
C814 C 0.50969 0.53621 0.61365 0.0
C815 C 0.62213 0.61666 0.60837 0.0
C816 C 0.36905 0.4223 0.62648 0.0
C817 C 0.40424 0.44919 0.62481 0.0
C818 C 0.49237 0.46513 0.61276 0.0
C819 C 0.57487 0.55653 0.61406 0.0
C820 C 0.53703 0.52796 0.61313 0.0
C821 C 0.42737 0.44473 0.61518 0.0
C822 C 0.46507 0.47337 0.61372 0.0
H823 H 0.6522 0.57343 0.63072 0.0
H824 H 0.59084 0.52668 0.6285 0.0
H825 H 0.54818 0.4847 0.61173 0.0
H826 H 0.36984 0.36096 0.6028 0.0
H827 H 0.43126 0.40827 0.59963 0.0
C828 C 0.99181 0.37866 0.9404 0.0
C829 C 0.96513 0.35586 0.95045 0.0
C830 C 1.00051 0.41415 0.939 0.0
C831 C 0.02825 0.49242 0.94535 0.0
H832 H 0.95478 0.51773 0.94809 0.0
C833 C 0.06008 0.63573 0.95668 0.0
C834 C 0.03936 0.648 0.94958 0.0
C835 C 0.05117 0.60024 0.95546 0.0
C836 C 0.97562 0.51117 0.94711 0.0
H837 H 0.92662 0.35249 0.9669 0.0
H838 H 0.94219 0.41424 0.96467 0.0
H839 H 0.93852 0.45549 0.94794 0.0
H840 H 0.99341 0.63267 0.93534 0.0
H841 H 0.97812 0.57074 0.93304 0.0
H842 H 0.06531 0.54811 0.94429 0.0
C843 C 0.956 0.40469 0.95764 0.0
C844 C 0.96632 0.47543 0.94723 0.0
C845 C 0.94723 0.36926 0.959 0.0
C846 C 0.00979 0.62403 0.94105 0.0
C847 C 0.00093 0.58848 0.93978 0.0
C848 C 0.03754 0.52816 0.94518 0.0
C849 C 0.98277 0.42763 0.94764 0.0
C850 C 0.99254 0.4656 0.94656 0.0
C851 C 0.02142 0.57609 0.94705 0.0
C852 C 0.01138 0.53802 0.94626 0.0
H853 H 0.00594 0.36912 0.93357 0.0
H854 H 0.02096 0.43095 0.93105 0.0
H855 H 0.04918 0.48588 0.94493 0.0
H856 H 0.083 0.65344 0.96338 0.0
H857 H 0.06723 0.59158 0.96142 0.0
C858 C 0.38227 0.00466 0.27188 0.0
C859 C 0.38727 0.03334 0.28093 0.0
C860 C 0.40887 0.99564 0.27075 0.0
C861 C 0.45999 0.96917 0.27829 0.0
H862 H 0.55896 0.04279 0.27784 0.0
C863 C 0.57284 0.9402 0.29115 0.0
C864 C 0.60483 0.95894 0.28312 0.0
C865 C 0.54609 0.94876 0.28952 0.0
C866 C 0.53148 0.02186 0.27778 0.0
H867 H 0.42431 0.07517 0.29579 0.0
H868 H 0.4702 0.05916 0.294 0.0
H869 H 0.51303 0.05907 0.27696 0.0
H870 H 0.63348 0.00097 0.26682 0.0
H871 H 0.58657 0.01564 0.26384 0.0
H872 H 0.47846 0.93194 0.27892 0.0
C873 C 0.44604 0.04394 0.28757 0.0
C874 C 0.5051 0.03121 0.27746 0.0
C875 C 0.41955 0.05297 0.28868 0.0
C876 C 0.60926 0.98617 0.27326 0.0
C877 C 0.58242 0.99468 0.2716 0.0
C878 C 0.48637 0.9598 0.27857 0.0
C879 C 0.44104 0.0151 0.27864 0.0
C880 C 0.46902 0.00501 0.27792 0.0
C881 C 0.55056 0.9762 0.27977 0.0
C882 C 0.52246 0.98604 0.27851 0.0
H883 H 0.35779 0.98911 0.2657 0.0
H884 H 0.4043 0.97354 0.26363 0.0
H885 H 0.4325 0.9483 0.27877 0.0
H886 H 0.56855 0.91911 0.29887 0.0
H887 H 0.52218 0.93433 0.29618 0.0
C888 C 0.29567 0.13782 0.2218 0.0
C889 C 0.32487 0.14454 0.23084 0.0
C890 C 0.30033 0.14818 0.20671 0.0
C891 C 0.35812 0.164 0.17446 0.0
H892 H 0.30193 0.20127 0.15681 0.0
C893 C 0.35417 0.19264 0.10985 0.0
C894 C 0.32011 0.18221 0.10424 0.0
C895 C 0.35946 0.19071 0.12538 0.0
C896 C 0.31772 0.19074 0.16155 0.0
H897 H 0.38204 0.16802 0.23123 0.0
H898 H 0.3902 0.18602 0.20457 0.0
H899 H 0.30359 0.19604 0.18412 0.0
H900 H 0.26465 0.15919 0.11034 0.0
H901 H 0.27378 0.15547 0.13713 0.0
H902 H 0.37137 0.15781 0.15172 0.0
C903 C 0.36372 0.17275 0.20929 0.0
C904 C 0.31875 0.18787 0.17719 0.0
C905 C 0.35907 0.16275 0.22455 0.0
C906 C 0.29132 0.16799 0.1143 0.0
C907 C 0.29657 0.16607 0.12969 0.0
C908 C 0.35705 0.16685 0.15872 0.0
C909 C 0.33429 0.16527 0.2002 0.0
C910 C 0.33809 0.17351 0.18381 0.0
C911 C 0.33077 0.17838 0.13549 0.0
C912 C 0.3359 0.17922 0.15211 0.0
H913 H 0.26898 0.12381 0.22632 0.0
H914 H 0.27708 0.14164 0.19998 0.0
H915 H 0.37313 0.15267 0.17925 0.0
H916 H 0.37688 0.20379 0.10236 0.0
H917 H 0.38611 0.20024 0.12954 0.0
C918 C 0.16284 0.3444 0.44402 0.0
C919 C 0.13329 0.31254 0.43918 0.0
C920 C 0.17311 0.34915 0.45926 0.0
C921 C 0.16504 0.29727 0.49337 0.0
H922 H 0.18603 0.38191 0.51594 0.0
C923 C 0.20819 0.31064 0.55477 0.0
C924 C 0.19143 0.32191 0.56513 0.0
C925 C 0.20576 0.31476 0.53931 0.0
C926 C 0.18014 0.35811 0.50977 0.0
H927 H 0.09149 0.26076 0.44659 0.0
H928 H 0.10927 0.26903 0.4728 0.0
H929 H 0.17292 0.37865 0.48883 0.0
H930 H 0.16048 0.34808 0.56742 0.0
H931 H 0.15533 0.3545 0.54014 0.0
H932 H 0.17097 0.27604 0.51413 0.0
C933 C 0.12473 0.29028 0.46492 0.0
C934 C 0.17304 0.35641 0.49424 0.0
C935 C 0.11443 0.28564 0.44984 0.0
C936 C 0.17352 0.33901 0.55969 0.0
C937 C 0.17075 0.34282 0.54408 0.0
C938 C 0.17215 0.29897 0.50877 0.0
C939 C 0.15421 0.32196 0.46983 0.0
C940 C 0.16493 0.32571 0.48595 0.0
C941 C 0.1861 0.32985 0.53373 0.0
C942 C 0.17961 0.32927 0.51721 0.0
H943 H 0.17778 0.36571 0.4361 0.0
H944 H 0.19605 0.37381 0.46274 0.0
H945 H 0.15923 0.27339 0.48728 0.0
H946 H 0.22283 0.298 0.55858 0.0
H947 H 0.21872 0.30536 0.53169 0.0
C948 C 0.8087 0.16593 0.77844 0.0
C949 C 0.81888 0.14207 0.77288 0.0
C950 C 0.81316 0.1753 0.79378 0.0
C951 C 0.86395 0.17676 0.82748 0.0
H952 H 0.78522 0.16937 0.85087 0.0
C953 C 0.86148 0.16118 0.89111 0.0
C954 C 0.85444 0.18381 0.89991 0.0
C955 C 0.85464 0.15779 0.87566 0.0
C956 C 0.80754 0.17193 0.84444 0.0
H957 H 0.84253 0.11014 0.77896 0.0
H958 H 0.85031 0.12643 0.80539 0.0
H959 H 0.78026 0.16322 0.82328 0.0
H960 H 0.8324 0.2188 0.89953 0.0
H961 H 0.82018 0.21261 0.87232 0.0
H962 H 0.89099 0.18465 0.84848 0.0
C963 C 0.83901 0.13806 0.79802 0.0
C964 C 0.80477 0.16856 0.82867 0.0
C965 C 0.83431 0.12853 0.78284 0.0
C966 C 0.83804 0.20109 0.89306 0.0
C967 C 0.83115 0.19765 0.87749 0.0
C968 C 0.86666 0.18001 0.84314 0.0
C969 C 0.82834 0.16136 0.80372 0.0
C970 C 0.83264 0.16999 0.82009 0.0
C971 C 0.8406 0.17694 0.86857 0.0
C972 C 0.83817 0.17666 0.85184 0.0
H973 H 0.79656 0.17664 0.77104 0.0
H974 H 0.80481 0.19342 0.79787 0.0
H975 H 0.88617 0.17877 0.82116 0.0
H976 H 0.87367 0.14711 0.89606 0.0
H977 H 0.86135 0.14089 0.86916 0.0
C978 C 0.64188 0.80406 0.1129 0.0
C979 C 0.67667 0.81742 0.10752 0.0
C980 C 0.63557 0.80475 0.12841 0.0
C981 C 0.67685 0.8053 0.16458 0.0
H982 H 0.6191 0.8402 0.18268 0.0
C983 C 0.69778 0.85637 0.22501 0.0
C984 C 0.66855 0.84938 0.23408 0.0
C985 C 0.69313 0.84606 0.20992 0.0
C986 C 0.63473 0.82969 0.17777 0.0
H987 H 0.73216 0.84437 0.11403 0.0
H988 H 0.72118 0.8456 0.14079 0.0
H989 H 0.6213 0.8362 0.1551 0.0
H990 H 0.61133 0.82534 0.23453 0.0
H991 H 0.60316 0.80736 0.20787 0.0
H992 H 0.6911 0.7996 0.18706 0.0
C993 C 0.69871 0.83385 0.13317 0.0
C994 C 0.63605 0.82752 0.16201 0.0
C995 C 0.70499 0.83329 0.1178 0.0
C996 C 0.63432 0.83084 0.22782 0.0
C997 C 0.62968 0.82085 0.21257 0.0
C998 C 0.67548 0.80739 0.18024 0.0
C999 C 0.66396 0.81865 0.13872 0.0
C1000 C 0.65811 0.81644 0.15528 0.0
C1001 C 0.65914 0.82869 0.20344 0.0
C1002 C 0.65537 0.82071 0.18701 0.0
H1003 H 0.61951 0.79162 0.10525 0.0
H1004 H 0.60851 0.79304 0.13241 0.0
H1005 H 0.69342 0.79585 0.15971 0.0
H1006 H 0.7245 0.87062 0.2295 0.0
H1007 H 0.71643 0.85293 0.20317 0.0
C1008 C 0.80847 0.71363 0.55381 0.0
C1009 C 0.81496 0.69324 0.56428 0.0
C1010 C 0.8125 0.71057 0.53839 0.0
C1011 C 0.81952 0.65485 0.50873 0.0
H1012 H 0.8701 0.74476 0.48763 0.0
C1013 C 0.84044 0.66952 0.44317 0.0
C1014 C 0.87478 0.69515 0.43856 0.0
C1015 C 0.83077 0.66641 0.45846 0.0
C1016 C 0.856 0.7194 0.49334 0.0
H1017 H 0.82953 0.65259 0.56665 0.0
H1018 H 0.83718 0.64763 0.53948 0.0
H1019 H 0.8581 0.74409 0.5144 0.0
H1020 H 0.92606 0.73686 0.44652 0.0
H1021 H 0.9093 0.73135 0.4728 0.0
H1022 H 0.81829 0.63038 0.48749 0.0
C1023 C 0.82871 0.66583 0.54333 0.0
C1024 C 0.84882 0.71899 0.50868 0.0
C1025 C 0.82457 0.66884 0.55888 0.0
C1026 C 0.89923 0.7171 0.44955 0.0
C1027 C 0.88962 0.71403 0.46468 0.0
C1028 C 0.82666 0.65526 0.49326 0.0
C1029 C 0.82329 0.68716 0.53296 0.0
C1030 C 0.83057 0.68678 0.51659 0.0
C1031 C 0.85523 0.68899 0.46933 0.0
C1032 C 0.84531 0.68763 0.48546 0.0
H1033 H 0.80044 0.7323 0.5575 0.0
H1034 H 0.80739 0.72684 0.5307 0.0
H1035 H 0.80519 0.62961 0.5145 0.0
H1036 H 0.82107 0.65204 0.435 0.0
H1037 H 0.80402 0.6469 0.46173 0.0
C1038 C 0.16343 0.81456 0.89367 0.0
C1039 C 0.13938 0.82454 0.89917 0.0
C1040 C 0.1709 0.81661 0.87816 0.0
C1041 C 0.12957 0.81686 0.8418 0.0
H1042 H 0.2231 0.85299 0.82443 0.0
C1043 C 0.16245 0.86908 0.78152 0.0
C1044 C 0.18302 0.85984 0.77244 0.0
C1045 C 0.15699 0.85968 0.79672 0.0
C1046 C 0.19676 0.84225 0.82915 0.0
H1047 H 0.10642 0.84689 0.89295 0.0
H1048 H 0.11989 0.85109 0.86622 0.0
H1049 H 0.21574 0.84832 0.85195 0.0
H1050 H 0.2138 0.83321 0.77212 0.0
H1051 H 0.20458 0.81707 0.79903 0.0
H1052 H 0.11068 0.81185 0.81915 0.0
C1053 C 0.13216 0.84064 0.87369 0.0
C1054 C 0.19256 0.83965 0.84488 0.0
C1055 C 0.12465 0.83848 0.88905 0.0
C1056 C 0.19761 0.84042 0.77885 0.0
C1057 C 0.19258 0.83146 0.79422 0.0
C1058 C 0.13378 0.81959 0.82618 0.0
C1059 C 0.15444 0.8287 0.86797 0.0
C1060 C 0.15903 0.82792 0.85137 0.0
C1061 C 0.17228 0.84113 0.80329 0.0
C1062 C 0.16751 0.83321 0.81969 0.0
H1063 H 0.17508 0.80359 0.9012 0.0
H1064 H 0.18829 0.80734 0.87409 0.0
H1065 H 0.10321 0.80674 0.84642 0.0
H1066 H 0.15084 0.88403 0.77692 0.0
H1067 H 0.14154 0.86784 0.80346 0.0
C1068 C 0.13987 0.87213 0.98398 0.0
C1069 C 0.13265 0.87115 0.96845 0.0
C1070 C 0.15612 0.90421 0.99186 0.0
C1071 C 0.17722 0.99847 0.98903 0.0
H1072 H 0.23786 0.01039 0.02324 0.0
C1073 C 0.26642 0.13321 0.01843 0.0
C1074 C 0.26319 0.13375 0.03423 0.0
C1075 C 0.25052 0.10116 0.01051 0.0
C1076 C 0.22079 0.00729 0.01377 0.0
H1077 H 0.13769 0.90351 0.94899 0.0
H1078 H 0.16756 0.95975 0.96257 0.0
H1079 H 0.21184 0.95548 0.00874 0.0
H1080 H 0.24106 0.10075 0.05409 0.0
H1081 H 0.21406 0.04448 0.0402 0.0
H1082 H 0.18757 0.05109 0.99386 0.0
C1083 C 0.15958 0.93554 0.96881 0.0
C1084 C 0.20566 0.97573 0.00546 0.0
C1085 C 0.14269 0.90326 0.96095 0.0
C1086 C 0.24406 0.1013 0.04194 0.0
C1087 C 0.22869 0.06912 0.03401 0.0
C1088 C 0.19291 0.03027 0.99718 0.0
C1089 C 0.16632 0.93647 0.98443 0.0
C1090 C 0.18341 0.97069 0.99301 0.0
C1091 C 0.23152 0.0688 0.01821 0.0
C1092 C 0.21469 0.03492 0.00967 0.0
H1093 H 0.13227 0.84797 0.9902 0.0
H1094 H 0.15997 0.90345 0.0039 0.0
H1095 H 0.15976 0.99555 0.97977 0.0
H1096 H 0.28083 0.15761 0.01208 0.0
H1097 H 0.25334 0.10166 0.99835 0.0
C1098 C 0.13846 0.26777 0.35306 0.0
C1099 C 0.13291 0.26231 0.36873 0.0
C1100 C 0.15534 0.25286 0.34499 0.0
C1101 C 0.21653 0.21871 0.34839 0.0
H1102 H 0.17107 0.16664 0.31187 0.0
C1103 C 0.26646 0.13575 0.31703 0.0
C1104 C 0.26345 0.13295 0.30121 0.0
C1105 C 0.25148 0.15247 0.32518 0.0
C1106 C 0.18455 0.18159 0.32187 0.0
H1107 H 0.1417 0.23746 0.38821 0.0
H1108 H 0.17193 0.21194 0.37406 0.0
H1109 H 0.1438 0.19427 0.32635 0.0
H1110 H 0.24285 0.14637 0.28155 0.0
H1111 H 0.2178 0.17668 0.2957 0.0
H1112 H 0.25776 0.20696 0.3438 0.0
C1113 C 0.1629 0.22768 0.36809 0.0
C1114 C 0.16874 0.19724 0.33022 0.0
C1115 C 0.14551 0.24222 0.37617 0.0
C1116 C 0.24554 0.14787 0.29373 0.0
C1117 C 0.23091 0.16504 0.30188 0.0
C1118 C 0.23264 0.20348 0.33993 0.0
C1119 C 0.16755 0.23249 0.35238 0.0
C1120 C 0.18448 0.21586 0.3436 0.0
C1121 C 0.23342 0.16734 0.31775 0.0
C1122 C 0.2168 0.18452 0.32657 0.0
H1123 H 0.12922 0.28309 0.3469 0.0
H1124 H 0.15891 0.25735 0.33293 0.0
H1125 H 0.22946 0.23327 0.35856 0.0
H1126 H 0.27982 0.12439 0.32323 0.0
H1127 H 0.25346 0.153 0.33737 0.0
C1128 C 0.90253 0.15901 0.70931 0.0
C1129 C 0.86975 0.14237 0.70177 0.0
C1130 C 0.93428 0.177 0.70119 0.0
C1131 C 0.97083 0.21411 0.66298 0.0
H1132 H 0.05147 0.20772 0.67745 0.0
C1133 C 0.09856 0.25367 0.62774 0.0
C1134 C 0.13089 0.27402 0.6354 0.0
C1135 C 0.06627 0.2394 0.63554 0.0
C1136 C 0.02923 0.20993 0.67332 0.0
H1137 H 0.84483 0.13197 0.67969 0.0
H1138 H 0.89986 0.16214 0.66561 0.0
H1139 H 0.99637 0.17962 0.69173 0.0
H1140 H 0.1543 0.29603 0.65726 0.0
H1141 H 0.0983 0.27086 0.67071 0.0
H1142 H 0.00382 0.24362 0.6443 0.0
C1143 C 0.90123 0.16218 0.67781 0.0
C1144 C 0.99764 0.19401 0.68156 0.0
C1145 C 0.86952 0.14459 0.68592 0.0
C1146 C 0.13005 0.28038 0.65094 0.0
C1147 C 0.09793 0.26583 0.65872 0.0
C1148 C 0.00236 0.22965 0.65463 0.0
C1149 C 0.93411 0.17845 0.6853 0.0
C1150 C 0.96798 0.19595 0.67656 0.0
C1151 C 0.06573 0.24484 0.65116 0.0
C1152 C 0.03193 0.22787 0.65976 0.0
H1153 H 0.90372 0.15802 0.72151 0.0
H1154 H 0.95898 0.18979 0.70742 0.0
H1155 H 0.94885 0.21671 0.65886 0.0
H1156 H 0.09818 0.2482 0.6158 0.0
H1157 H 0.04179 0.22321 0.62944 0.0
C1158 C 0.75981 0.90454 0.045 0.0
C1159 C 0.74081 0.87193 0.03738 0.0
C1160 C 0.77492 0.9366 0.03698 0.0
C1161 C 0.80867 0.9741 0.99952 0.0
H1162 H 0.79479 0.05147 0.01221 0.0
C1163 C 0.85726 0.10037 0.96297 0.0
C1164 C 0.87017 0.13299 0.97047 0.0
C1165 C 0.8406 0.0684 0.97105 0.0
C1166 C 0.79947 0.03041 0.0086 0.0
H1167 H 0.72281 0.84777 0.01529 0.0
H1168 H 0.74954 0.90342 0.00145 0.0
H1169 H 0.76859 0.99672 0.02686 0.0
H1170 H 0.87589 0.15736 0.99246 0.0
H1171 H 0.84827 0.10222 0.00646 0.0
H1172 H 0.8403 0.00779 0.98152 0.0
C1173 C 0.75271 0.90417 0.0136 0.0
C1174 C 0.7843 0.99897 0.017 0.0
C1175 C 0.73722 0.87225 0.02159 0.0
C1176 C 0.86607 0.13281 0.98623 0.0
C1177 C 0.84989 0.10099 0.99431 0.0
C1178 C 0.82428 0.0057 0.99123 0.0
C1179 C 0.77181 0.93668 0.02118 0.0
C1180 C 0.78861 0.97044 0.01251 0.0
C1181 C 0.83684 0.06826 0.98686 0.0
C1182 C 0.81985 0.03433 0.99561 0.0
H1183 H 0.76313 0.90532 0.05713 0.0
H1184 H 0.78965 0.96131 0.0431 0.0
H1185 H 0.81275 0.95265 0.99588 0.0
H1186 H 0.85982 0.09947 0.95084 0.0
H1187 H 0.8304 0.04379 0.96484 0.0
C1188 C 0.74872 0.84763 0.29683 0.0
C1189 C 0.73246 0.86405 0.30446 0.0
C1190 C 0.76468 0.83164 0.30489 0.0
C1191 C 0.77057 0.79992 0.34358 0.0
H1192 H 0.8547 0.80371 0.32692 0.0
C1193 C 0.86285 0.76231 0.37686 0.0
C1194 C 0.8712 0.73902 0.36928 0.0
C1195 C 0.84505 0.7772 0.36934 0.0
C1196 C 0.83113 0.80234 0.33168 0.0
H1197 H 0.72044 0.87657 0.32662 0.0
H1198 H 0.74926 0.85007 0.34059 0.0
H1199 H 0.8256 0.83035 0.31304 0.0
H1200 H 0.86719 0.71321 0.34778 0.0
H1201 H 0.837 0.73971 0.33473 0.0
H1202 H 0.7771 0.77276 0.36245 0.0
C1203 C 0.74887 0.84847 0.32839 0.0
C1204 C 0.81422 0.81739 0.32368 0.0
C1205 C 0.73245 0.86395 0.32034 0.0
C1206 C 0.86124 0.73097 0.35403 0.0
C1207 C 0.84407 0.74629 0.34649 0.0
C1208 C 0.78788 0.78538 0.35169 0.0
C1209 C 0.76533 0.83213 0.32081 0.0
C1210 C 0.7835 0.8162 0.32944 0.0
C1211 C 0.83587 0.76963 0.35402 0.0
C1212 C 0.81817 0.78621 0.34576 0.0
H1213 H 0.74904 0.84702 0.28461 0.0
H1214 H 0.77634 0.81872 0.2986 0.0
H1215 H 0.7467 0.79784 0.34832 0.0
H1216 H 0.87008 0.76907 0.38859 0.0
H1217 H 0.83913 0.79523 0.3754 0.0
C1218 C 0.09961 0.84347 0.70887 0.0
C1219 C 0.13233 0.86002 0.70128 0.0
C1220 C 0.06777 0.82598 0.70079 0.0
C1221 C 0.03073 0.79039 0.66244 0.0
H1222 H 0.95049 0.79666 0.67752 0.0
C1223 C 0.90328 0.75338 0.62753 0.0
C1224 C 0.8709 0.73237 0.63506 0.0
C1225 C 0.9355 0.76726 0.63535 0.0
C1226 C 0.97262 0.79449 0.67322 0.0
H1227 H 0.15706 0.87087 0.67916 0.0
H1228 H 0.10188 0.84163 0.66514 0.0
H1229 H 0.00572 0.82392 0.69173 0.0
H1230 H 0.84732 0.70902 0.65672 0.0
H1231 H 0.90326 0.73361 0.67025 0.0
H1232 H 0.99753 0.76184 0.64365 0.0
C1233 C 0.10061 0.84121 0.67734 0.0
C1234 C 0.00428 0.80993 0.68142 0.0
C1235 C 0.13241 0.85826 0.68543 0.0
C1236 C 0.87162 0.72513 0.65051 0.0
C1237 C 0.90369 0.73935 0.65832 0.0
C1238 C 0.99916 0.77538 0.65413 0.0
C1239 C 0.06778 0.825 0.68488 0.0
C1240 C 0.03381 0.80802 0.67619 0.0
C1241 C 0.93594 0.76082 0.65088 0.0
C1242 C 0.96974 0.77715 0.65948 0.0
H1243 H 0.09854 0.84411 0.72108 0.0
H1244 H 0.04312 0.81321 0.70705 0.0
H1245 H 0.05258 0.78778 0.65814 0.0
H1246 H 0.90375 0.75952 0.61566 0.0
H1247 H 0.96002 0.78386 0.62935 0.0
C1248 C 0.02049 0.26179 0.98463 0.0
C1249 C 0.01398 0.25297 0.96926 0.0
C1250 C 0.05186 0.26712 0.99138 0.0
C1251 C 0.12463 0.24692 0.98497 0.0
H1252 H 0.16568 0.30752 0.01992 0.0
C1253 C 0.25143 0.26658 0.01533 0.0
C1254 C 0.24437 0.25535 0.03046 0.0
C1255 C 0.2271 0.27193 0.00704 0.0
C1256 C 0.15459 0.29076 0.01008 0.0
H1257 H 0.03615 0.24466 0.94881 0.0
H1258 H 0.09125 0.2559 0.96021 0.0
H1259 H 0.1161 0.30692 0.00675 0.0
H1260 H 0.2066 0.24194 0.04876 0.0
H1261 H 0.16524 0.25262 0.03451 0.0
H1262 H 0.16359 0.23122 0.98831 0.0
C1263 C 0.0717 0.25719 0.96731 0.0
C1264 C 0.12595 0.29006 0.00261 0.0
C1265 C 0.04008 0.25105 0.96068 0.0
C1266 C 0.21314 0.25082 0.03722 0.0
C1267 C 0.1894 0.25701 0.02907 0.0
C1268 C 0.15369 0.24822 0.99225 0.0
C1269 C 0.07776 0.26449 0.98283 0.0
C1270 C 0.11009 0.26759 0.99012 0.0
C1271 C 0.19585 0.26705 0.01387 0.0
C1272 C 0.16846 0.26961 0.00502 0.0
H1273 H 0.00083 0.26332 0.99157 0.0
H1274 H 0.05517 0.27215 0.0034 0.0
H1275 H 0.11285 0.22867 0.97564 0.0
H1276 H 0.27512 0.27013 0.00976 0.0
H1277 H 0.23248 0.27954 0.99527 0.0
C1278 C 0.74811 0.02206 0.31588 0.0
C1279 C 0.75804 0.00765 0.3039 0.0
C1280 C 0.77314 0.05377 0.32275 0.0
C1281 C 0.83706 0.10491 0.34156 0.0
H1282 H 0.9131 0.1806 0.31857 0.0
C1283 C 0.97177 0.19862 0.36771 0.0
C1284 C 0.98942 0.23492 0.36402 0.0
C1285 C 0.94071 0.17469 0.36031 0.0
C1286 C 0.89178 0.16 0.32514 0.0
H1287 H 0.80213 0.01576 0.28965 0.0
H1288 H 0.84541 0.0704 0.30169 0.0
H1289 H 0.8629 0.13237 0.30537 0.0
H1290 H 0.98826 0.27433 0.3494 0.0
H1291 H 0.9337 0.23203 0.33628 0.0
H1292 H 0.86614 0.1322 0.36131 0.0
C1293 C 0.81824 0.05762 0.30563 0.0
C1294 C 0.86321 0.13219 0.31759 0.0
C1295 C 0.79337 0.02601 0.29881 0.0
C1296 C 0.97533 0.24658 0.35254 0.0
C1297 C 0.94414 0.22241 0.34502 0.0
C1298 C 0.86559 0.13266 0.34909 0.0
C1299 C 0.80855 0.07177 0.31776 0.0
C1300 C 0.83605 0.10382 0.32571 0.0
C1301 C 0.9264 0.18624 0.34894 0.0
C1302 C 0.89377 0.15994 0.34096 0.0
H1303 H 0.72113 0.00869 0.32006 0.0
H1304 H 0.76481 0.06412 0.33202 0.0
H1305 H 0.81671 0.08343 0.34816 0.0
H1306 H 0.98186 0.18843 0.37637 0.0
H1307 H 0.92819 0.1469 0.36334 0.0
C1308 C 0.72288 0.75127 0.64926 0.0
C1309 C 0.75729 0.75926 0.64523 0.0
C1310 C 0.71762 0.77607 0.65725 0.0
C1311 C 0.76051 0.85091 0.68288 0.0
H1312 H 0.71023 0.89197 0.66284 0.0
C1313 C 0.78773 0.98875 0.69861 0.0
C1314 C 0.75979 0.99607 0.69914 0.0
C1315 C 0.78249 0.95687 0.69271 0.0
C1316 C 0.72373 0.88036 0.66875 0.0
H1317 H 0.81314 0.79848 0.64675 0.0
H1318 H 0.80406 0.84103 0.66116 0.0
H1319 H 0.70865 0.83924 0.65217 0.0
H1320 H 0.70457 0.97602 0.6935 0.0
H1321 H 0.69514 0.91956 0.68329 0.0
H1322 H 0.77589 0.89169 0.69939 0.0
C1323 C 0.78118 0.81596 0.65801 0.0
C1324 C 0.7228 0.85022 0.66264 0.0
C1325 C 0.78635 0.7917 0.64976 0.0
C1326 C 0.72662 0.97113 0.69318 0.0
C1327 C 0.72125 0.93883 0.68735 0.0
C1328 C 0.76105 0.8806 0.68908 0.0
C1329 C 0.74681 0.80864 0.66162 0.0
C1330 C 0.74213 0.83601 0.66942 0.0
C1331 C 0.74903 0.9311 0.68733 0.0
C1332 C 0.74381 0.89653 0.6818 0.0
H1333 H 0.70007 0.72655 0.64573 0.0
H1334 H 0.69089 0.76998 0.65993 0.0
H1335 H 0.77534 0.84016 0.68836 0.0
H1336 H 0.81378 0.0076 0.7029 0.0
H1337 H 0.80483 0.95242 0.69241 0.0
C1338 C 0.76227 0.73952 0.02192 0.0
C1339 C 0.76875 0.7559 0.03615 0.0
C1340 C 0.78843 0.73494 0.01477 0.0
C1341 C 0.88592 0.76944 0.01621 0.0
H1342 H 0.86319 0.69043 0.98945 0.0
C1343 C 0.99399 0.74753 0.98942 0.0
C1344 C 0.99288 0.74769 0.97358 0.0
C1345 C 0.96501 0.74344 0.99786 0.0
C1346 C 0.86979 0.71249 0.99698 0.0
H1347 H 0.80771 0.7796 0.05409 0.0
H1348 H 0.85176 0.76965 0.04224 0.0
H1349 H 0.81545 0.69345 0.00267 0.0
H1350 H 0.95976 0.74104 0.9542 0.0
H1351 H 0.90902 0.73311 0.96889 0.0
H1352 H 0.94025 0.78809 0.01065 0.0
C1353 C 0.82721 0.76148 0.03624 0.0
C1354 C 0.8425 0.71447 0.00444 0.0
C1355 C 0.80154 0.76675 0.04318 0.0
C1356 C 0.96156 0.74151 0.96637 0.0
C1357 C 0.93239 0.73666 0.97477 0.0
C1358 C 0.91311 0.76707 0.009 0.0
C1359 C 0.82139 0.74615 0.02181 0.0
C1360 C 0.85019 0.74315 0.01408 0.0
C1361 C 0.9342 0.73855 0.99057 0.0
C1362 C 0.90531 0.73879 0.99923 0.0
H1363 H 0.73739 0.73106 0.01613 0.0
H1364 H 0.78307 0.72345 0.00358 0.0
H1365 H 0.89302 0.79246 0.02318 0.0
H1366 H 0.01779 0.75225 0.99528 0.0
H1367 H 0.96692 0.74489 0.01006 0.0
C1368 C 0.00575 0.76019 0.34575 0.0
C1369 C 0.00926 0.75111 0.36057 0.0
C1370 C 0.03564 0.78524 0.33781 0.0
C1371 C 0.12508 0.8608 0.34553 0.0
H1372 H 0.13528 0.86124 0.30206 0.0
C1373 C 0.24393 0.97461 0.31394 0.0
C1374 C 0.23468 0.98792 0.30133 0.0
C1375 C 0.21878 0.94295 0.32081 0.0
C1376 C 0.13273 0.86145 0.31422 0.0
H1377 H 0.0463 0.7585 0.37837 0.0
H1378 H 0.09862 0.80136 0.36444 0.0
H1379 H 0.087 0.80943 0.31443 0.0
H1380 H 0.19153 0.97813 0.28611 0.0
H1381 H 0.14817 0.92321 0.29801 0.0
H1382 H 0.17055 0.91296 0.34529 0.0
C1383 C 0.07292 0.79026 0.35906 0.0
C1384 C 0.10504 0.83183 0.32129 0.0
C1385 C 0.04306 0.76561 0.36702 0.0
C1386 C 0.19983 0.96867 0.29571 0.0
C1387 C 0.1749 0.93699 0.30248 0.0
C1388 C 0.15286 0.89027 0.33847 0.0
C1389 C 0.06949 0.80132 0.34455 0.0
C1390 C 0.10056 0.83135 0.33703 0.0
C1391 C 0.18401 0.92384 0.31514 0.0
C1392 C 0.15664 0.89116 0.32272 0.0
H1393 H 0.97976 0.74948 0.34066 0.0
H1394 H 0.03192 0.79331 0.32671 0.0
H1395 H 0.12212 0.86174 0.35763 0.0
H1396 H 0.27048 0.98874 0.31858 0.0
H1397 H 0.22655 0.93335 0.33054 0.0
C1398 C 0.27623 0.02935 0.69212 0.0
C1399 C 0.24271 0.00367 0.69752 0.0
C1400 C 0.28047 0.05972 0.68473 0.0
C1401 C 0.23343 0.0914 0.66187 0.0
H1402 H 0.2908 0.18481 0.67947 0.0
C1403 C 0.21052 0.20432 0.64506 0.0
C1404 C 0.23967 0.23857 0.64321 0.0
C1405 C 0.21475 0.17759 0.65158 0.0
C1406 C 0.27517 0.15904 0.67424 0.0
H1407 H 0.18733 0.98907 0.69909 0.0
H1408 H 0.1946 0.04127 0.68579 0.0
H1409 H 0.2926 0.13381 0.69024 0.0
H1410 H 0.296 0.2721 0.64717 0.0
H1411 H 0.3037 0.22486 0.65837 0.0
H1412 H 0.21596 0.11595 0.64586 0.0
C1413 C 0.21759 0.03823 0.68747 0.0
C1414 C 0.27623 0.12994 0.68042 0.0
C1415 C 0.2135 0.00846 0.69511 0.0
C1416 C 0.27305 0.24593 0.64855 0.0
C1417 C 0.27742 0.21887 0.65494 0.0
C1418 C 0.23274 0.12039 0.65559 0.0
C1419 C 0.25108 0.06422 0.68231 0.0
C1420 C 0.2546 0.09579 0.67451 0.0
C1421 C 0.24839 0.18416 0.6562 0.0
C1422 C 0.25266 0.1544 0.66198 0.0
H1423 H 0.2992 0.02636 0.69394 0.0
H1424 H 0.30653 0.07951 0.6808 0.0
H1425 H 0.21679 0.0653 0.65706 0.0
H1426 H 0.18435 0.19797 0.64124 0.0
H1427 H 0.19155 0.15155 0.65284 0.0
loop_
_geom_bond_atom_site_label_1
_geom_bond_atom_site_label_2
_geom_bond_distance
_geom_bond_site_symmetry_2
_ccdc_geom_bond_type
Co0 O2 2.143 . S
Co0 O8 2.074 . S
Co0 O11 2.093 . S
Co0 O24 2.097 . S
Co0 N41 2.151 . S
Co0 N49 2.214 . S
Co1 O2 2.160 . S
Co1 O7 2.058 . S
Co1 O17 2.057 . S
Co1 O32 2.037 . S
Co1 N36 2.145 . S
Co1 N57 2.257 . S
O2 Co0 2.143 . S
O2 Co1 2.160 . S
C3 O4 1.278 . S
C3 O11 1.224 . S
O4 C3 1.278 . S
C5 O6 1.245 . S
C5 O17 1.232 . S
O6 C5 1.245 . S
O7 Co1 2.058 . S
O7 C33 1.269 . S
O8 Co0 2.074 . S
O8 C33 1.257 . S
H9 C34 0.930 . S
H10 C40 0.930 . S
O11 Co0 2.093 . S
O11 C3 1.224 . S
H12 C44 0.929 . S
H13 C46 0.930 . S
H14 C47 0.930 . S
H15 C45 0.929 . S
H16 C48 0.928 . S
O17 Co1 2.057 . S
O17 C5 1.232 . S
H18 C37 0.929 . S
H19 C38 0.929 . S
H20 C50 0.931 . S
H21 C42 0.929 . S
H22 C51 0.930 . S
H23 C43 0.931 . S
O24 Co0 2.097 . S
O24 C52 1.214 . S
H25 C53 0.929 . S
H26 C54 0.929 . S
H27 C55 0.930 . S
H28 C56 0.929 . S
H29 C58 0.930 . S
H30 C35 0.930 . S
H31 C39 0.930 . S
O32 Co1 2.037 . S
O32 C52 1.234 . S
C33 O7 1.269 . S
C33 O8 1.257 . S
C34 H9 0.930 . S
C34 C37 1.388 . S
C34 C39 1.418 . S
C35 H30 0.930 . S
C35 C38 1.404 . S
C35 C39 1.353 . S
N36 Co1 2.145 . S
N36 C37 1.397 . S
N36 C38 1.334 . S
C37 H18 0.929 . S
C37 C34 1.388 . S
C37 N36 1.397 . S
C38 H19 0.929 . S
C38 C35 1.404 . S
C38 N36 1.334 . S
C39 H31 0.930 . S
C39 C34 1.418 . S
C39 C35 1.353 . S
C40 H10 0.930 . S
C40 N41 1.330 . S
C40 C42 1.446 . S
N41 Co0 2.151 . S
N41 C40 1.330 . S
N41 C45 1.418 . S
C42 H21 0.929 . S
C42 C40 1.446 . S
C42 C43 1.332 . S
C43 H23 0.931 . S
C43 C42 1.332 . S
C43 C44 1.267 . S
C44 H12 0.929 . S
C44 C43 1.267 . S
C44 C45 1.251 . S
C45 H15 0.929 . S
C45 N41 1.418 . S
C45 C44 1.251 . S
C46 H13 0.930 . S
C46 C48 1.406 1_556 S
C46 C51 1.261 . S
C47 H14 0.930 . S
C47 N49 1.325 . S
C47 C50 1.357 1_554 S
C48 H16 0.928 . S
C48 C46 1.406 1_554 S
C48 N49 1.261 . S
N49 Co0 2.214 . S
N49 C47 1.325 . S
N49 C48 1.261 . S
C50 H20 0.931 . S
C50 C47 1.357 1_556 S
C50 C51 1.312 . S
C51 H22 0.930 . S
C51 C46 1.261 . S
C51 C50 1.312 . S
C52 O24 1.214 . S
C52 O32 1.234 . S
C53 H25 0.929 . S
C53 C56 1.391 . S
C53 C58 1.391 . S
C54 H26 0.929 . S
C54 C55 1.390 . S
C54 N57 1.391 . S
C55 H27 0.930 . S
C55 C54 1.390 . S
C55 C56 1.392 . S
C56 H28 0.929 . S
C56 C53 1.391 . S
C56 C55 1.392 . S
N57 Co1 2.257 . S
N57 C54 1.391 . S
N57 C58 1.388 . S
C58 H29 0.930 . S
C58 C53 1.391 . S
C58 N57 1.388 . S
Co59 O61 2.143 . S
Co59 O67 2.074 . S
Co59 O70 2.093 . S
Co59 O83 2.097 . S
Co59 N100 2.151 . S
Co59 N108 2.214 . S
Co60 O61 2.160 . S
Co60 O66 2.058 . S
Co60 O76 2.057 . S
Co60 O91 2.037 . S
Co60 N95 2.145 . S
Co60 N116 2.257 . S
O61 Co59 2.143 . S
O61 Co60 2.160 . S
C62 O63 1.278 . S
C62 O70 1.224 . S
O63 C62 1.278 . S
C64 O65 1.245 . S
C64 O76 1.232 . S
O65 C64 1.245 . S
O66 Co60 2.058 . S
O66 C92 1.269 . S
O67 Co59 2.074 . S
O67 C92 1.257 . S
H68 C93 0.930 . S
H69 C99 0.930 . S
O70 Co59 2.093 . S
O70 C62 1.224 . S
H71 C103 0.929 . S
H72 C105 0.930 . S
H73 C106 0.930 . S
H74 C104 0.929 . S
H75 C107 0.928 . S
O76 Co60 2.057 . S
O76 C64 1.232 . S
H77 C96 0.929 . S
H78 C97 0.929 . S
H79 C109 0.931 . S
H80 C101 0.929 . S
H81 C110 0.930 . S
H82 C102 0.931 . S
O83 Co59 2.097 . S
O83 C111 1.214 . S
H84 C112 0.935 1_455 S
H85 C113 0.929 . S
H86 C114 0.930 . S
H87 C115 0.929 . S
H88 C117 0.930 . S
H89 C94 0.930 . S
H90 C98 0.930 . S
O91 Co60 2.037 . S
O91 C111 1.234 . S
C92 O66 1.269 . S
C92 O67 1.257 . S
C93 H68 0.930 . S
C93 C96 1.388 . S
C93 C98 1.418 . S
C94 H89 0.930 . S
C94 C97 1.404 . S
C94 C98 1.353 . S
N95 Co60 2.145 . S
N95 C96 1.397 . S
N95 C97 1.334 . S
C96 H77 0.929 . S
C96 C93 1.388 . S
C96 N95 1.397 . S
C97 H78 0.929 . S
C97 C94 1.404 . S
C97 N95 1.334 . S
C98 H90 0.930 . S
C98 C93 1.418 . S
C98 C94 1.353 . S
C99 H69 0.930 . S
C99 N100 1.330 . S
C99 C101 1.446 . S
N100 Co59 2.151 . S
N100 C99 1.330 . S
N100 C104 1.418 . S
C101 H80 0.929 . S
C101 C99 1.446 . S
C101 C102 1.332 . S
C102 H82 0.931 . S
C102 C101 1.332 . S
C102 C103 1.267 . S
C103 H71 0.929 . S
C103 C102 1.267 . S
C103 C104 1.251 . S
C104 H74 0.929 . S
C104 N100 1.418 . S
C104 C103 1.251 . S
C105 H72 0.930 . S
C105 C107 1.406 . S
C105 C110 1.261 . S
C106 H73 0.930 . S
C106 N108 1.325 . S
C106 C109 1.357 . S
C107 H75 0.928 . S
C107 C105 1.406 . S
C107 N108 1.261 . S
N108 Co59 2.214 . S
N108 C106 1.325 . S
N108 C107 1.261 . S
C109 H79 0.931 . S
C109 C106 1.357 . S
C109 C110 1.312 . S
C110 H81 0.930 . S
C110 C105 1.261 . S
C110 C109 1.312 . S
C111 O83 1.214 . S
C111 O91 1.234 . S
C112 H84 0.935 1_655 S
C112 C115 1.391 . S
C112 C117 1.391 1_655 S
C113 H85 0.929 . S
C113 C114 1.390 . S
C113 N116 1.391 1_655 S
C114 H86 0.930 . S
C114 C113 1.390 . S
C114 C115 1.392 . S
C115 H87 0.929 . S
C115 C112 1.391 . S
C115 C114 1.392 . S
N116 Co60 2.257 . S
N116 C113 1.391 1_455 S
N116 C117 1.388 . S
C117 H88 0.930 . S
C117 C112 1.391 1_455 S
C117 N116 1.388 . S
Co118 O120 2.143 . S
Co118 O126 2.074 . S
Co118 O129 2.093 . S
Co118 O142 2.097 . S
Co118 N159 2.151 . S
Co118 N167 2.214 . S
Co119 O120 2.160 . S
Co119 O125 2.058 . S
Co119 O135 2.057 . S
Co119 O150 2.037 . S
Co119 N154 2.145 . S
Co119 N175 2.257 . S
O120 Co118 2.143 . S
O120 Co119 2.160 . S
C121 O122 1.278 . S
C121 O129 1.224 . S
O122 C121 1.278 . S
C123 O124 1.245 . S
C123 O135 1.232 . S
O124 C123 1.245 . S
O125 Co119 2.058 . S
O125 C151 1.269 . S
O126 Co118 2.074 . S
O126 C151 1.257 . S
H127 C152 0.930 . S
H128 C158 0.930 . S
O129 Co118 2.093 . S
O129 C121 1.224 . S
H130 C162 0.929 . S
H131 C164 0.930 . S
H132 C165 0.930 . S
H133 C163 0.929 . S
H134 C166 0.928 . S
O135 Co119 2.057 . S
O135 C123 1.232 . S
H136 C155 0.929 . S
H137 C156 0.929 . S
H138 C168 0.931 . S
H139 C160 0.929 . S
H140 C169 0.930 . S
H141 C161 0.931 . S
O142 Co118 2.097 . S
O142 C170 1.214 . S
H143 C171 0.920 1_545 S
H144 C172 0.929 . S
H145 C173 0.930 . S
H146 C174 0.929 . S
H147 C176 0.930 . S
H148 C153 0.930 . S
H149 C157 0.930 . S
O150 Co119 2.037 . S
O150 C170 1.234 . S
C151 O125 1.269 . S
C151 O126 1.257 . S
C152 H127 0.930 . S
C152 C155 1.388 . S
C152 C157 1.418 . S
C153 H148 0.930 . S
C153 C156 1.404 . S
C153 C157 1.353 . S
N154 Co119 2.145 . S
N154 C155 1.397 . S
N154 C156 1.334 . S
C155 H136 0.929 . S
C155 C152 1.388 . S
C155 N154 1.397 . S
C156 H137 0.929 . S
C156 C153 1.404 . S
C156 N154 1.334 . S
C157 H149 0.930 . S
C157 C152 1.418 . S
C157 C153 1.353 . S
C158 H128 0.930 . S
C158 N159 1.330 . S
C158 C160 1.446 . S
N159 Co118 2.151 . S
N159 C158 1.330 . S
N159 C163 1.418 . S
C160 H139 0.929 . S
C160 C158 1.446 . S
C160 C161 1.332 . S
C161 H141 0.931 . S
C161 C160 1.332 . S
C161 C162 1.267 . S
C162 H130 0.929 . S
C162 C161 1.267 . S
C162 C163 1.251 . S
C163 H133 0.929 . S
C163 N159 1.418 . S
C163 C162 1.251 . S
C164 H131 0.930 . S
C164 C166 1.406 . S
C164 C169 1.261 . S
C165 H132 0.930 . S
C165 N167 1.325 . S
C165 C168 1.357 . S
C166 H134 0.928 . S
C166 C164 1.406 . S
C166 N167 1.261 . S
N167 Co118 2.214 . S
N167 C165 1.325 . S
N167 C166 1.261 . S
C168 H138 0.931 . S
C168 C165 1.357 . S
C168 C169 1.312 . S
C169 H140 0.930 . S
C169 C164 1.261 . S
C169 C168 1.312 . S
C170 O142 1.214 . S
C170 O150 1.234 . S
C171 H143 0.920 1_565 S
C171 C174 1.391 . S
C171 C176 1.391 1_565 S
C172 H144 0.929 . S
C172 C173 1.390 . S
C172 N175 1.391 1_565 S
C173 H145 0.930 . S
C173 C172 1.390 . S
C173 C174 1.392 . S
C174 H146 0.929 . S
C174 C171 1.391 . S
C174 C173 1.392 . S
N175 Co119 2.257 . S
N175 C172 1.391 1_545 S
N175 C176 1.388 . S
C176 H147 0.930 . S
C176 C171 1.391 1_545 S
C176 N175 1.388 . S
Co177 O179 2.143 . S
Co177 O185 2.074 . S
Co177 O188 2.093 . S
Co177 O201 2.097 . S
Co177 N218 2.151 . S
Co177 N226 2.214 . S
Co178 O179 2.160 . S
Co178 O184 2.058 . S
Co178 O194 2.057 . S
Co178 O209 2.037 . S
Co178 N213 2.145 . S
Co178 N234 2.257 . S
O179 Co177 2.143 . S
O179 Co178 2.160 . S
C180 O181 1.278 . S
C180 O188 1.224 . S
O181 C180 1.278 . S
C182 O183 1.245 . S
C182 O194 1.232 . S
O183 C182 1.245 . S
O184 Co178 2.058 . S
O184 C210 1.269 . S
O185 Co177 2.074 . S
O185 C210 1.257 . S
H186 C211 0.930 . S
H187 C217 0.930 . S
O188 Co177 2.093 . S
O188 C180 1.224 . S
H189 C221 0.929 . S
H190 C223 0.930 . S
H191 C224 0.930 . S
H192 C222 0.929 . S
H193 C225 0.928 . S
O194 Co178 2.057 . S
O194 C182 1.232 . S
H195 C214 0.929 . S
H196 C215 0.929 . S
H197 C227 0.931 . S
H198 C219 0.929 . S
H199 C228 0.930 . S
H200 C220 0.931 . S
O201 Co177 2.097 . S
O201 C229 1.214 . S
H202 C230 0.929 . S
H203 C231 0.929 . S
H204 C232 0.930 . S
H205 C233 0.929 . S
H206 C235 0.930 . S
H207 C212 0.930 . S
H208 C216 0.930 . S
O209 Co178 2.037 . S
O209 C229 1.234 . S
C210 O184 1.269 . S
C210 O185 1.257 . S
C211 H186 0.930 . S
C211 C214 1.388 . S
C211 C216 1.418 . S
C212 H207 0.930 . S
C212 C215 1.404 . S
C212 C216 1.353 . S
N213 Co178 2.145 . S
N213 C214 1.397 . S
N213 C215 1.334 . S
C214 H195 0.929 . S
C214 C211 1.388 . S
C214 N213 1.397 . S
C215 H196 0.929 . S
C215 C212 1.404 . S
C215 N213 1.334 . S
C216 H208 0.930 . S
C216 C211 1.418 . S
C216 C212 1.353 . S
C217 H187 0.930 . S
C217 N218 1.330 . S
C217 C219 1.446 . S
N218 Co177 2.151 . S
N218 C217 1.330 . S
N218 C222 1.418 . S
C219 H198 0.929 . S
C219 C217 1.446 . S
C219 C220 1.332 . S
C220 H200 0.931 . S
C220 C219 1.332 . S
C220 C221 1.267 . S
C221 H189 0.929 . S
C221 C220 1.267 . S
C221 C222 1.251 . S
C222 H192 0.929 . S
C222 N218 1.418 . S
C222 C221 1.251 . S
C223 H190 0.930 . S
C223 C225 1.406 1_556 S
C223 C228 1.261 . S
C224 H191 0.930 . S
C224 N226 1.325 . S
C224 C227 1.357 1_554 S
C225 H193 0.928 . S
C225 C223 1.406 1_554 S
C225 N226 1.261 . S
N226 Co177 2.214 . S
N226 C224 1.325 . S
N226 C225 1.261 . S
C227 H197 0.931 . S
C227 C224 1.357 1_556 S
C227 C228 1.312 . S
C228 H199 0.930 . S
C228 C223 1.261 . S
C228 C227 1.312 . S
C229 O201 1.214 . S
C229 O209 1.234 . S
C230 H202 0.929 . S
C230 C233 1.391 . S
C230 C235 1.391 . S
C231 H203 0.929 . S
C231 C232 1.390 . S
C231 N234 1.391 . S
C232 H204 0.930 . S
C232 C231 1.390 . S
C232 C233 1.392 . S
C233 H205 0.929 . S
C233 C230 1.391 . S
C233 C232 1.392 . S
N234 Co178 2.257 . S
N234 C231 1.391 . S
N234 C235 1.388 . S
C235 H206 0.930 . S
C235 C230 1.391 . S
C235 N234 1.388 . S
Co236 O238 2.143 . S
Co236 O244 2.074 . S
Co236 O247 2.093 . S
Co236 O260 2.097 . S
Co236 N277 2.151 . S
Co236 N285 2.214 . S
Co237 O238 2.160 . S
Co237 O243 2.058 . S
Co237 O253 2.057 . S
Co237 O268 2.037 . S
Co237 N272 2.145 . S
Co237 N293 2.257 . S
O238 Co236 2.143 . S
O238 Co237 2.160 . S
C239 O240 1.278 . S
C239 O247 1.224 . S
O240 C239 1.278 . S
C241 O242 1.245 . S
C241 O253 1.232 . S
O242 C241 1.245 . S
O243 Co237 2.058 . S
O243 C269 1.269 . S
O244 Co236 2.074 . S
O244 C269 1.257 . S
H245 C270 0.930 . S
H246 C276 0.930 . S
O247 Co236 2.093 . S
O247 C239 1.224 . S
H248 C280 0.929 . S
H249 C282 0.930 . S
H250 C283 0.930 . S
H251 C281 0.929 . S
H252 C284 0.928 . S
O253 Co237 2.057 . S
O253 C241 1.232 . S
H254 C273 0.929 . S
H255 C274 0.929 . S
H256 C286 0.931 . S
H257 C278 0.929 . S
H258 C287 0.930 . S
H259 C279 0.931 . S
O260 Co236 2.097 . S
O260 C288 1.214 . S
H261 C289 0.935 1_655 S
H262 C290 0.929 . S
H263 C291 0.930 . S
H264 C292 0.929 . S
H265 C294 0.930 . S
H266 C271 0.930 . S
H267 C275 0.930 . S
O268 Co237 2.037 . S
O268 C288 1.234 . S
C269 O243 1.269 . S
C269 O244 1.257 . S
C270 H245 0.930 . S
C270 C273 1.388 . S
C270 C275 1.418 . S
C271 H266 0.930 . S
C271 C274 1.404 . S
C271 C275 1.353 . S
N272 Co237 2.145 . S
N272 C273 1.397 . S
N272 C274 1.334 . S
C273 H254 0.929 . S
C273 C270 1.388 . S
C273 N272 1.397 . S
C274 H255 0.929 . S
C274 C271 1.404 . S
C274 N272 1.334 . S
C275 H267 0.930 . S
C275 C270 1.418 . S
C275 C271 1.353 . S
C276 H246 0.930 . S
C276 N277 1.330 . S
C276 C278 1.446 . S
N277 Co236 2.151 . S
N277 C276 1.330 . S
N277 C281 1.418 . S
C278 H257 0.929 . S
C278 C276 1.446 . S
C278 C279 1.332 . S
C279 H259 0.931 . S
C279 C278 1.332 . S
C279 C280 1.267 . S
C280 H248 0.929 . S
C280 C279 1.267 . S
C280 C281 1.251 . S
C281 H251 0.929 . S
C281 N277 1.418 . S
C281 C280 1.251 . S
C282 H249 0.930 . S
C282 C284 1.406 . S
C282 C287 1.261 . S
C283 H250 0.930 . S
C283 N285 1.325 . S
C283 C286 1.357 . S
C284 H252 0.928 . S
C284 C282 1.406 . S
C284 N285 1.261 . S
N285 Co236 2.214 . S
N285 C283 1.325 . S
N285 C284 1.261 . S
C286 H256 0.931 . S
C286 C283 1.357 . S
C286 C287 1.312 . S
C287 H258 0.930 . S
C287 C282 1.261 . S
C287 C286 1.312 . S
C288 O260 1.214 . S
C288 O268 1.234 . S
C289 H261 0.935 1_455 S
C289 C292 1.391 . S
C289 C294 1.391 1_455 S
C290 H262 0.929 . S
C290 C291 1.390 . S
C290 N293 1.391 1_455 S
C291 H263 0.930 . S
C291 C290 1.390 . S
C291 C292 1.392 . S
C292 H264 0.929 . S
C292 C289 1.391 . S
C292 C291 1.392 . S
N293 Co237 2.257 . S
N293 C290 1.391 1_655 S
N293 C294 1.388 . S
C294 H265 0.930 . S
C294 C289 1.391 1_655 S
C294 N293 1.388 . S
Co295 O297 2.143 . S
Co295 O303 2.074 . S
Co295 O306 2.093 . S
Co295 O319 2.097 . S
Co295 N336 2.151 . S
Co295 N344 2.214 . S
Co296 O297 2.160 . S
Co296 O302 2.058 . S
Co296 O312 2.057 . S
Co296 O327 2.037 . S
Co296 N331 2.145 . S
Co296 N352 2.257 . S
O297 Co295 2.143 . S
O297 Co296 2.160 . S
C298 O299 1.278 . S
C298 O306 1.224 . S
O299 C298 1.278 . S
C300 O301 1.245 . S
C300 O312 1.232 . S
O301 C300 1.245 . S
O302 Co296 2.058 . S
O302 C328 1.269 . S
O303 Co295 2.074 . S
O303 C328 1.257 . S
H304 C329 0.930 . S
H305 C335 0.930 . S
O306 Co295 2.093 . S
O306 C298 1.224 . S
H307 C339 0.929 . S
H308 C341 0.930 . S
H309 C342 0.930 . S
H310 C340 0.929 . S
H311 C343 0.928 . S
O312 Co296 2.057 . S
O312 C300 1.232 . S
H313 C332 0.929 . S
H314 C333 0.929 . S
H315 C345 0.931 . S
H316 C337 0.929 . S
H317 C346 0.930 . S
H318 C338 0.931 . S
O319 Co295 2.097 . S
O319 C347 1.214 . S
H320 C348 0.920 1_565 S
H321 C349 0.929 . S
H322 C350 0.930 . S
H323 C351 0.929 . S
H324 C353 0.930 . S
H325 C330 0.930 . S
H326 C334 0.930 . S
O327 Co296 2.037 . S
O327 C347 1.234 . S
C328 O302 1.269 . S
C328 O303 1.257 . S
C329 H304 0.930 . S
C329 C332 1.388 . S
C329 C334 1.418 . S
C330 H325 0.930 . S
C330 C333 1.404 . S
C330 C334 1.353 . S
N331 Co296 2.145 . S
N331 C332 1.397 . S
N331 C333 1.334 . S
C332 H313 0.929 . S
C332 C329 1.388 . S
C332 N331 1.397 . S
C333 H314 0.929 . S
C333 C330 1.404 . S
C333 N331 1.334 . S
C334 H326 0.930 . S
C334 C329 1.418 . S
C334 C330 1.353 . S
C335 H305 0.930 . S
C335 N336 1.330 . S
C335 C337 1.446 . S
N336 Co295 2.151 . S
N336 C335 1.330 . S
N336 C340 1.418 . S
C337 H316 0.929 . S
C337 C335 1.446 . S
C337 C338 1.332 . S
C338 H318 0.931 . S
C338 C337 1.332 . S
C338 C339 1.267 . S
C339 H307 0.929 . S
C339 C338 1.267 . S
C339 C340 1.251 . S
C340 H310 0.929 . S
C340 N336 1.418 . S
C340 C339 1.251 . S
C341 H308 0.930 . S
C341 C343 1.406 . S
C341 C346 1.261 . S
C342 H309 0.930 . S
C342 N344 1.325 . S
C342 C345 1.357 . S
C343 H311 0.928 . S
C343 C341 1.406 . S
C343 N344 1.261 . S
N344 Co295 2.214 . S
N344 C342 1.325 . S
N344 C343 1.261 . S
C345 H315 0.931 . S
C345 C342 1.357 . S
C345 C346 1.312 . S
C346 H317 0.930 . S
C346 C341 1.261 . S
C346 C345 1.312 . S
C347 O319 1.214 . S
C347 O327 1.234 . S
C348 H320 0.920 1_545 S
C348 C351 1.391 . S
C348 C353 1.391 1_545 S
C349 H321 0.929 . S
C349 C350 1.390 . S
C349 N352 1.391 1_545 S
C350 H322 0.930 . S
C350 C349 1.390 . S
C350 C351 1.392 . S
C351 H323 0.929 . S
C351 C348 1.391 . S
C351 C350 1.392 . S
N352 Co296 2.257 . S
N352 C349 1.391 1_565 S
N352 C353 1.388 . S
C353 H324 0.930 . S
C353 C348 1.391 1_565 S
C353 N352 1.388 . S
Co354 O356 2.143 . S
Co354 O362 2.074 . S
Co354 O365 2.093 . S
Co354 O378 2.097 . S
Co354 N395 2.151 . S
Co354 N403 2.214 . S
Co355 O356 2.160 . S
Co355 O361 2.058 . S
Co355 O371 2.057 . S
Co355 O386 2.037 . S
Co355 N390 2.145 . S
Co355 N411 2.257 . S
O356 Co354 2.143 . S
O356 Co355 2.160 . S
C357 O358 1.278 . S
C357 O365 1.224 . S
O358 C357 1.278 . S
C359 O360 1.245 . S
C359 O371 1.232 . S
O360 C359 1.245 . S
O361 Co355 2.058 . S
O361 C387 1.269 . S
O362 Co354 2.074 . S
O362 C387 1.257 . S
H363 C388 0.930 . S
H364 C394 0.930 . S
O365 Co354 2.093 . S
O365 C357 1.224 . S
H366 C398 0.929 . S
H367 C400 0.930 . S
H368 C401 0.930 . S
H369 C399 0.929 . S
H370 C402 0.928 . S
O371 Co355 2.057 . S
O371 C359 1.232 . S
H372 C391 0.929 . S
H373 C392 0.929 . S
H374 C404 0.931 . S
H375 C396 0.929 . S
H376 C405 0.930 . S
H377 C397 0.931 . S
O378 Co354 2.097 . S
O378 C406 1.214 . S
H379 C407 0.929 . S
H380 C408 0.929 . S
H381 C409 0.930 . S
H382 C410 0.929 . S
H383 C412 0.930 . S
H384 C389 0.930 . S
H385 C393 0.930 . S
O386 Co355 2.037 . S
O386 C406 1.234 . S
C387 O361 1.269 . S
C387 O362 1.257 . S
C388 H363 0.930 . S
C388 C391 1.388 . S
C388 C393 1.418 . S
C389 H384 0.930 . S
C389 C392 1.404 . S
C389 C393 1.353 . S
N390 Co355 2.145 . S
N390 C391 1.397 . S
N390 C392 1.334 . S
C391 H372 0.929 . S
C391 C388 1.388 . S
C391 N390 1.397 . S
C392 H373 0.929 . S
C392 C389 1.404 . S
C392 N390 1.334 . S
C393 H385 0.930 . S
C393 C388 1.418 . S
C393 C389 1.353 . S
C394 H364 0.930 . S
C394 N395 1.330 . S
C394 C396 1.446 . S
N395 Co354 2.151 . S
N395 C394 1.330 . S
N395 C399 1.418 . S
C396 H375 0.929 . S
C396 C394 1.446 . S
C396 C397 1.332 . S
C397 H377 0.931 . S
C397 C396 1.332 . S
C397 C398 1.267 . S
C398 H366 0.929 . S
C398 C397 1.267 . S
C398 C399 1.251 . S
C399 H369 0.929 . S
C399 N395 1.418 . S
C399 C398 1.251 . S
C400 H367 0.930 . S
C400 C402 1.406 . S
C400 C405 1.261 . S
C401 H368 0.930 . S
C401 N403 1.325 . S
C401 C404 1.357 . S
C402 H370 0.928 . S
C402 C400 1.406 . S
C402 N403 1.261 . S
N403 Co354 2.214 . S
N403 C401 1.325 . S
N403 C402 1.261 . S
C404 H374 0.931 . S
C404 C401 1.357 . S
C404 C405 1.312 . S
C405 H376 0.930 . S
C405 C400 1.261 . S
C405 C404 1.312 . S
C406 O378 1.214 . S
C406 O386 1.234 . S
C407 H379 0.929 . S
C407 C410 1.391 . S
C407 C412 1.391 . S
C408 H380 0.929 . S
C408 C409 1.390 . S
C408 N411 1.391 . S
C409 H381 0.930 . S
C409 C408 1.390 . S
C409 C410 1.392 . S
C410 H382 0.929 . S
C410 C407 1.391 . S
C410 C409 1.392 . S
N411 Co355 2.257 . S
N411 C408 1.391 . S
N411 C412 1.388 . S
C412 H383 0.930 . S
C412 C407 1.391 . S
C412 N411 1.388 . S
Co413 O415 2.143 . S
Co413 O421 2.074 . S
Co413 O424 2.093 . S
Co413 O437 2.097 . S
Co413 N454 2.151 . S
Co413 N462 2.214 . S
Co414 O415 2.160 . S
Co414 O420 2.058 . S
Co414 O430 2.057 . S
Co414 O445 2.037 . S
Co414 N449 2.145 . S
Co414 N470 2.257 . S
O415 Co413 2.143 . S
O415 Co414 2.160 . S
C416 O417 1.278 . S
C416 O424 1.224 . S
O417 C416 1.278 . S
C418 O419 1.245 . S
C418 O430 1.232 . S
O419 C418 1.245 . S
O420 Co414 2.058 . S
O420 C446 1.269 . S
O421 Co413 2.074 . S
O421 C446 1.257 . S
H422 C447 0.930 . S
H423 C453 0.930 . S
O424 Co413 2.093 . S
O424 C416 1.224 . S
H425 C457 0.929 . S
H426 C459 0.930 . S
H427 C460 0.930 1_556 S
H428 C458 0.929 . S
H429 C461 0.931 1_556 S
O430 Co414 2.057 . S
O430 C418 1.232 . S
H431 C450 0.929 . S
H432 C451 0.929 . S
H433 C463 0.931 . S
H434 C455 0.929 . S
H435 C464 0.930 . S
H436 C456 0.931 . S
O437 Co413 2.097 . S
O437 C465 1.214 . S
H438 C466 0.920 1_455 S
H439 C467 0.929 . S
H440 C468 0.930 . S
H441 C469 0.929 . S
H442 C471 0.930 . S
H443 C448 0.930 . S
H444 C452 0.930 . S
O445 Co414 2.037 . S
O445 C465 1.234 . S
C446 O420 1.269 . S
C446 O421 1.257 . S
C447 H422 0.930 . S
C447 C450 1.388 . S
C447 C452 1.418 . S
C448 H443 0.930 . S
C448 C451 1.404 . S
C448 C452 1.353 . S
N449 Co414 2.145 . S
N449 C450 1.397 . S
N449 C451 1.334 . S
C450 H431 0.929 . S
C450 C447 1.388 . S
C450 N449 1.397 . S
C451 H432 0.929 . S
C451 C448 1.404 . S
C451 N449 1.334 . S
C452 H444 0.930 . S
C452 C447 1.418 . S
C452 C448 1.353 . S
C453 H423 0.930 . S
C453 N454 1.330 . S
C453 C455 1.446 . S
N454 Co413 2.151 . S
N454 C453 1.330 . S
N454 C458 1.418 . S
C455 H434 0.929 . S
C455 C453 1.446 . S
C455 C456 1.332 . S
C456 H436 0.931 . S
C456 C455 1.332 . S
C456 C457 1.267 . S
C457 H425 0.929 . S
C457 C456 1.267 . S
C457 C458 1.251 . S
C458 H428 0.929 . S
C458 N454 1.418 . S
C458 C457 1.251 . S
C459 H426 0.930 . S
C459 C461 1.400 . S
C459 C464 1.261 . S
C460 H427 0.930 1_554 S
C460 N462 1.325 1_554 S
C460 C463 1.357 . S
C461 H429 0.931 1_554 S
C461 C459 1.400 . S
C461 N462 1.264 1_554 S
N462 Co413 2.214 . S
N462 C460 1.325 1_556 S
N462 C461 1.264 1_556 S
C463 H433 0.931 . S
C463 C460 1.357 . S
C463 C464 1.312 . S
C464 H435 0.930 . S
C464 C459 1.261 . S
C464 C463 1.312 . S
C465 O437 1.214 . S
C465 O445 1.234 . S
C466 H438 0.920 1_655 S
C466 C469 1.391 . S
C466 C471 1.391 1_655 S
C467 H439 0.929 . S
C467 C468 1.390 . S
C467 N470 1.391 1_655 S
C468 H440 0.930 . S
C468 C467 1.390 . S
C468 C469 1.392 . S
C469 H441 0.929 . S
C469 C466 1.391 . S
C469 C468 1.392 . S
N470 Co414 2.257 . S
N470 C467 1.391 1_455 S
N470 C471 1.388 . S
C471 H442 0.930 . S
C471 C466 1.391 1_455 S
C471 N470 1.388 . S
Co472 O474 2.143 . S
Co472 O480 2.074 . S
Co472 O483 2.093 . S
Co472 O496 2.097 . S
Co472 N513 2.151 . S
Co472 N521 2.214 . S
Co473 O474 2.160 . S
Co473 O479 2.058 . S
Co473 O489 2.057 . S
Co473 O504 2.037 . S
Co473 N508 2.145 . S
Co473 N529 2.257 . S
O474 Co472 2.143 . S
O474 Co473 2.160 . S
C475 O476 1.278 . S
C475 O483 1.224 . S
O476 C475 1.278 . S
C477 O478 1.245 . S
C477 O489 1.232 . S
O478 C477 1.245 . S
O479 Co473 2.058 . S
O479 C505 1.269 . S
O480 Co472 2.074 . S
O480 C505 1.257 . S
H481 C506 0.930 . S
H482 C512 0.930 . S
O483 Co472 2.093 . S
O483 C475 1.224 . S
H484 C516 0.929 . S
H485 C518 0.930 . S
H486 C519 0.930 . S
H487 C517 0.929 . S
H488 C520 0.928 . S
O489 Co473 2.057 . S
O489 C477 1.232 . S
H490 C509 0.929 . S
H491 C510 0.929 . S
H492 C522 0.931 . S
H493 C514 0.929 . S
H494 C523 0.930 . S
H495 C515 0.931 . S
O496 Co472 2.097 . S
O496 C524 1.214 . S
H497 C525 0.935 1_545 S
H498 C526 0.929 . S
H499 C527 0.930 . S
H500 C528 0.929 . S
H501 C530 0.930 . S
H502 C507 0.930 . S
H503 C511 0.930 . S
O504 Co473 2.037 . S
O504 C524 1.234 . S
C505 O479 1.269 . S
C505 O480 1.257 . S
C506 H481 0.930 . S
C506 C509 1.388 . S
C506 C511 1.418 . S
C507 H502 0.930 . S
C507 C510 1.404 . S
C507 C511 1.353 . S
N508 Co473 2.145 . S
N508 C509 1.397 . S
N508 C510 1.334 . S
C509 H490 0.929 . S
C509 C506 1.388 . S
C509 N508 1.397 . S
C510 H491 0.929 . S
C510 C507 1.404 . S
C510 N508 1.334 . S
C511 H503 0.930 . S
C511 C506 1.418 . S
C511 C507 1.353 . S
C512 H482 0.930 . S
C512 N513 1.330 . S
C512 C514 1.446 . S
N513 Co472 2.151 . S
N513 C512 1.330 . S
N513 C517 1.418 . S
C514 H493 0.929 . S
C514 C512 1.446 . S
C514 C515 1.332 . S
C515 H495 0.931 . S
C515 C514 1.332 . S
C515 C516 1.267 . S
C516 H484 0.929 . S
C516 C515 1.267 . S
C516 C517 1.251 . S
C517 H487 0.929 . S
C517 N513 1.418 . S
C517 C516 1.251 . S
C518 H485 0.930 . S
C518 C520 1.406 . S
C518 C523 1.261 . S
C519 H486 0.930 . S
C519 N521 1.325 . S
C519 C522 1.357 . S
C520 H488 0.928 . S
C520 C518 1.406 . S
C520 N521 1.261 . S
N521 Co472 2.214 . S
N521 C519 1.325 . S
N521 C520 1.261 . S
C522 H492 0.931 . S
C522 C519 1.357 . S
C522 C523 1.312 . S
C523 H494 0.930 . S
C523 C518 1.261 . S
C523 C522 1.312 . S
C524 O496 1.214 . S
C524 O504 1.234 . S
C525 H497 0.935 1_565 S
C525 C528 1.391 . S
C525 C530 1.391 1_565 S
C526 H498 0.929 . S
C526 C527 1.390 . S
C526 N529 1.391 1_565 S
C527 H499 0.930 . S
C527 C526 1.390 . S
C527 C528 1.392 . S
C528 H500 0.929 . S
C528 C525 1.391 . S
C528 C527 1.392 . S
N529 Co473 2.257 . S
N529 C526 1.391 1_545 S
N529 C530 1.388 . S
C530 H501 0.930 . S
C530 C525 1.391 1_545 S
C530 N529 1.388 . S
Co531 O533 2.143 . S
Co531 O539 2.074 . S
Co531 O542 2.093 . S
Co531 O555 2.097 . S
Co531 N572 2.151 . S
Co531 N580 2.214 . S
Co532 O533 2.160 . S
Co532 O538 2.058 . S
Co532 O548 2.057 . S
Co532 O563 2.037 . S
Co532 N567 2.145 . S
Co532 N588 2.257 . S
O533 Co531 2.143 . S
O533 Co532 2.160 . S
C534 O535 1.278 . S
C534 O542 1.224 . S
O535 C534 1.278 . S
C536 O537 1.245 . S
C536 O548 1.232 . S
O537 C536 1.245 . S
O538 Co532 2.058 . S
O538 C564 1.269 . S
O539 Co531 2.074 . S
O539 C564 1.257 . S
H540 C565 0.930 . S
H541 C571 0.930 . S
O542 Co531 2.093 . S
O542 C534 1.224 . S
H543 C575 0.929 . S
H544 C577 0.930 . S
H545 C578 0.930 . S
H546 C576 0.929 . S
H547 C579 0.928 . S
O548 Co532 2.057 . S
O548 C536 1.232 . S
H549 C568 0.929 . S
H550 C569 0.929 . S
H551 C581 0.931 . S
H552 C573 0.929 . S
H553 C582 0.930 . S
H554 C574 0.931 . S
O555 Co531 2.097 . S
O555 C583 1.214 . S
H556 C584 0.929 . S
H557 C585 0.929 . S
H558 C586 0.930 . S
H559 C587 0.929 . S
H560 C589 0.930 . S
H561 C566 0.930 . S
H562 C570 0.930 . S
O563 Co532 2.037 . S
O563 C583 1.234 . S
C564 O538 1.269 . S
C564 O539 1.257 . S
C565 H540 0.930 . S
C565 C568 1.388 . S
C565 C570 1.418 . S
C566 H561 0.930 . S
C566 C569 1.404 . S
C566 C570 1.353 . S
N567 Co532 2.145 . S
N567 C568 1.397 . S
N567 C569 1.334 . S
C568 H549 0.929 . S
C568 C565 1.388 . S
C568 N567 1.397 . S
C569 H550 0.929 . S
C569 C566 1.404 . S
C569 N567 1.334 . S
C570 H562 0.930 . S
C570 C565 1.418 . S
C570 C566 1.353 . S
C571 H541 0.930 . S
C571 N572 1.330 . S
C571 C573 1.446 . S
N572 Co531 2.151 . S
N572 C571 1.330 . S
N572 C576 1.418 . S
C573 H552 0.929 . S
C573 C571 1.446 . S
C573 C574 1.332 . S
C574 H554 0.931 . S
C574 C573 1.332 . S
C574 C575 1.267 . S
C575 H543 0.929 . S
C575 C574 1.267 . S
C575 C576 1.251 . S
C576 H546 0.929 . S
C576 N572 1.418 . S
C576 C575 1.251 . S
C577 H544 0.930 . S
C577 C579 1.406 . S
C577 C582 1.261 . S
C578 H545 0.930 . S
C578 N580 1.325 . S
C578 C581 1.357 . S
C579 H547 0.928 . S
C579 C577 1.406 . S
C579 N580 1.261 . S
N580 Co531 2.214 . S
N580 C578 1.325 . S
N580 C579 1.261 . S
C581 H551 0.931 . S
C581 C578 1.357 . S
C581 C582 1.312 . S
C582 H553 0.930 . S
C582 C577 1.261 . S
C582 C581 1.312 . S
C583 O555 1.214 . S
C583 O563 1.234 . S
C584 H556 0.929 . S
C584 C587 1.391 . S
C584 C589 1.391 . S
C585 H557 0.929 . S
C585 C586 1.390 . S
C585 N588 1.391 . S
C586 H558 0.930 . S
C586 C585 1.390 . S
C586 C587 1.392 . S
C587 H559 0.929 . S
C587 C584 1.391 . S
C587 C586 1.392 . S
N588 Co532 2.257 . S
N588 C585 1.391 . S
N588 C589 1.388 . S
C589 H560 0.930 . S
C589 C584 1.391 . S
C589 N588 1.388 . S
Co590 O592 2.143 . S
Co590 O598 2.074 . S
Co590 O601 2.093 . S
Co590 O614 2.097 . S
Co590 N631 2.151 . S
Co590 N639 2.214 . S
Co591 O592 2.160 . S
Co591 O597 2.058 . S
Co591 O607 2.057 . S
Co591 O622 2.037 . S
Co591 N626 2.145 . S
Co591 N647 2.257 . S
O592 Co590 2.143 . S
O592 Co591 2.160 . S
C593 O594 1.278 . S
C593 O601 1.224 . S
O594 C593 1.278 . S
C595 O596 1.245 . S
C595 O607 1.232 . S
O596 C595 1.245 . S
O597 Co591 2.058 . S
O597 C623 1.269 . S
O598 Co590 2.074 . S
O598 C623 1.257 . S
H599 C624 0.930 . S
H600 C630 0.930 . S
O601 Co590 2.093 . S
O601 C593 1.224 . S
H602 C634 0.929 . S
H603 C636 0.930 . S
H604 C637 0.930 1_556 S
H605 C635 0.929 . S
H606 C638 0.931 1_556 S
O607 Co591 2.057 . S
O607 C595 1.232 . S
H608 C627 0.929 . S
H609 C628 0.929 . S
H610 C640 0.931 . S
H611 C632 0.929 . S
H612 C641 0.930 . S
H613 C633 0.931 . S
O614 Co590 2.097 . S
O614 C642 1.214 . S
H615 C643 0.920 1_655 S
H616 C644 0.929 . S
H617 C645 0.930 . S
H618 C646 0.929 . S
H619 C648 0.930 . S
H620 C625 0.930 . S
H621 C629 0.930 . S
O622 Co591 2.037 . S
O622 C642 1.234 . S
C623 O597 1.269 . S
C623 O598 1.257 . S
C624 H599 0.930 . S
C624 C627 1.388 . S
C624 C629 1.418 . S
C625 H620 0.930 . S
C625 C628 1.404 . S
C625 C629 1.353 . S
N626 Co591 2.145 . S
N626 C627 1.397 . S
N626 C628 1.334 . S
C627 H608 0.929 . S
C627 C624 1.388 . S
C627 N626 1.397 . S
C628 H609 0.929 . S
C628 C625 1.404 . S
C628 N626 1.334 . S
C629 H621 0.930 . S
C629 C624 1.418 . S
C629 C625 1.353 . S
C630 H600 0.930 . S
C630 N631 1.330 . S
C630 C632 1.446 . S
N631 Co590 2.151 . S
N631 C630 1.330 . S
N631 C635 1.418 . S
C632 H611 0.929 . S
C632 C630 1.446 . S
C632 C633 1.332 . S
C633 H613 0.931 . S
C633 C632 1.332 . S
C633 C634 1.267 . S
C634 H602 0.929 . S
C634 C633 1.267 . S
C634 C635 1.251 . S
C635 H605 0.929 . S
C635 N631 1.418 . S
C635 C634 1.251 . S
C636 H603 0.930 . S
C636 C638 1.400 . S
C636 C641 1.261 . S
C637 H604 0.930 1_554 S
C637 N639 1.325 1_554 S
C637 C640 1.357 . S
C638 H606 0.931 1_554 S
C638 C636 1.400 . S
C638 N639 1.264 1_554 S
N639 Co590 2.214 . S
N639 C637 1.325 1_556 S
N639 C638 1.264 1_556 S
C640 H610 0.931 . S
C640 C637 1.357 . S
C640 C641 1.312 . S
C641 H612 0.930 . S
C641 C636 1.261 . S
C641 C640 1.312 . S
C642 O614 1.214 . S
C642 O622 1.234 . S
C643 H615 0.920 1_455 S
C643 C646 1.391 . S
C643 C648 1.391 1_455 S
C644 H616 0.929 . S
C644 C645 1.390 . S
C644 N647 1.391 1_455 S
C645 H617 0.930 . S
C645 C644 1.390 . S
C645 C646 1.392 . S
C646 H618 0.929 . S
C646 C643 1.391 . S
C646 C645 1.392 . S
N647 Co591 2.257 . S
N647 C644 1.391 1_655 S
N647 C648 1.388 . S
C648 H619 0.930 . S
C648 C643 1.391 1_655 S
C648 N647 1.388 . S
Co649 O651 2.143 . S
Co649 O657 2.074 . S
Co649 O660 2.093 . S
Co649 O673 2.097 . S
Co649 N690 2.151 . S
Co649 N698 2.214 . S
Co650 O651 2.160 . S
Co650 O656 2.058 . S
Co650 O666 2.057 . S
Co650 O681 2.037 . S
Co650 N685 2.145 . S
Co650 N706 2.257 . S
O651 Co649 2.143 . S
O651 Co650 2.160 . S
C652 O653 1.278 . S
C652 O660 1.224 . S
O653 C652 1.278 . S
C654 O655 1.245 . S
C654 O666 1.232 . S
O655 C654 1.245 . S
O656 Co650 2.058 . S
O656 C682 1.269 . S
O657 Co649 2.074 . S
O657 C682 1.257 . S
H658 C683 0.930 . S
H659 C689 0.930 . S
O660 Co649 2.093 . S
O660 C652 1.224 . S
H661 C693 0.929 . S
H662 C695 0.930 . S
H663 C696 0.930 . S
H664 C694 0.929 . S
H665 C697 0.928 . S
O666 Co650 2.057 . S
O666 C654 1.232 . S
H667 C686 0.929 . S
H668 C687 0.929 . S
H669 C699 0.931 . S
H670 C691 0.929 . S
H671 C700 0.930 . S
H672 C692 0.931 . S
O673 Co649 2.097 . S
O673 C701 1.214 . S
H674 C702 0.935 1_565 S
H675 C703 0.929 . S
H676 C704 0.930 . S
H677 C705 0.929 . S
H678 C707 0.930 . S
H679 C684 0.930 . S
H680 C688 0.930 . S
O681 Co650 2.037 . S
O681 C701 1.234 . S
C682 O656 1.269 . S
C682 O657 1.257 . S
C683 H658 0.930 . S
C683 C686 1.388 . S
C683 C688 1.418 . S
C684 H679 0.930 . S
C684 C687 1.404 . S
C684 C688 1.353 . S
N685 Co650 2.145 . S
N685 C686 1.397 . S
N685 C687 1.334 . S
C686 H667 0.929 . S
C686 C683 1.388 . S
C686 N685 1.397 . S
C687 H668 0.929 . S
C687 C684 1.404 . S
C687 N685 1.334 . S
C688 H680 0.930 . S
C688 C683 1.418 . S
C688 C684 1.353 . S
C689 H659 0.930 . S
C689 N690 1.330 . S
C689 C691 1.446 . S
N690 Co649 2.151 . S
N690 C689 1.330 . S
N690 C694 1.418 . S
C691 H670 0.929 . S
C691 C689 1.446 . S
C691 C692 1.332 . S
C692 H672 0.931 . S
C692 C691 1.332 . S
C692 C693 1.267 . S
C693 H661 0.929 . S
C693 C692 1.267 . S
C693 C694 1.251 . S
C694 H664 0.929 . S
C694 N690 1.418 . S
C694 C693 1.251 . S
C695 H662 0.930 . S
C695 C697 1.406 . S
C695 C700 1.261 . S
C696 H663 0.930 . S
C696 N698 1.325 . S
C696 C699 1.357 . S
C697 H665 0.928 . S
C697 C695 1.406 . S
C697 N698 1.261 . S
N698 Co649 2.214 . S
N698 C696 1.325 . S
N698 C697 1.261 . S
C699 H669 0.931 . S
C699 C696 1.357 . S
C699 C700 1.312 . S
C700 H671 0.930 . S
C700 C695 1.261 . S
C700 C699 1.312 . S
C701 O673 1.214 . S
C701 O681 1.234 . S
C702 H674 0.935 1_545 S
C702 C705 1.391 . S
C702 C707 1.391 1_545 S
C703 H675 0.929 . S
C703 C704 1.390 . S
C703 N706 1.391 1_545 S
C704 H676 0.930 . S
C704 C703 1.390 . S
C704 C705 1.392 . S
C705 H677 0.929 . S
C705 C702 1.391 . S
C705 C704 1.392 . S
N706 Co650 2.257 . S
N706 C703 1.391 1_565 S
N706 C707 1.388 . S
C707 H678 0.930 . S
C707 C702 1.391 1_565 S
C707 N706 1.388 . S
C708 C709 1.349 . S
C708 C710 1.327 . S
C708 H733 0.950 . S
C709 C708 1.349 . S
C709 C725 1.349 . S
C710 C708 1.327 . S
C710 C729 1.429 . S
C710 H734 0.950 . S
C711 C728 1.574 . S
C711 C730 1.368 . S
C711 H735 0.949 . S
H712 C716 0.949 . S
C713 C714 1.349 . S
C713 C715 1.327 . S
C713 H736 0.950 . S
C714 C713 1.349 . S
C714 C726 1.349 . S
C715 C713 1.327 . S
C715 C731 1.429 . S
C715 H737 0.950 . S
C716 H712 0.949 . S
C716 C724 1.574 . S
C716 C732 1.368 . S
H717 C725 0.950 . S
H718 C723 0.950 . S
H719 C724 0.949 . S
H720 C726 0.950 . S
H721 C727 0.950 . S
H722 C728 0.949 . S
C723 H718 0.950 . S
C723 C725 1.327 . S
C723 C729 1.429 . S
C724 C716 1.574 . S
C724 H719 0.949 . S
C724 C730 1.368 . S
C725 C709 1.349 . S
C725 H717 0.950 . S
C725 C723 1.327 . S
C726 C714 1.349 . S
C726 H720 0.950 . S
C726 C727 1.327 . S
C727 H721 0.950 . S
C727 C726 1.327 . S
C727 C731 1.429 . S
C728 C711 1.574 . S
C728 H722 0.949 . S
C728 C732 1.368 . S
C729 C710 1.429 . S
C729 C723 1.429 . S
C729 C730 1.523 . S
C730 C711 1.368 . S
C730 C724 1.368 . S
C730 C729 1.523 . S
C731 C715 1.429 . S
C731 C727 1.429 . S
C731 C732 1.523 . S
C732 C716 1.368 . S
C732 C728 1.368 . S
C732 C731 1.523 . S
H733 C708 0.950 . S
H734 C710 0.950 . S
H735 C711 0.949 . S
H736 C713 0.950 . S
H737 C715 0.950 . S
C738 C739 1.349 . S
C738 C740 1.327 . S
C738 H763 0.950 . S
C739 C738 1.349 . S
C739 C755 1.349 . S
C740 C738 1.327 . S
C740 C759 1.429 . S
C740 H764 0.951 . S
C741 C758 1.574 . S
C741 C760 1.368 . S
C741 H765 0.949 . S
H742 C746 0.949 . S
C743 C744 1.349 . S
C743 C745 1.327 . S
C743 H766 0.950 . S
C744 C743 1.349 . S
C744 C756 1.349 . S
C745 C743 1.327 . S
C745 C761 1.429 . S
C745 H767 0.951 . S
C746 H742 0.949 . S
C746 C754 1.574 . S
C746 C762 1.368 . S
H747 C755 0.950 . S
H748 C753 0.950 . S
H749 C754 0.949 . S
H750 C756 0.950 . S
H751 C757 0.950 . S
H752 C758 0.949 . S
C753 H748 0.950 . S
C753 C755 1.327 . S
C753 C759 1.429 . S
C754 C746 1.574 . S
C754 H749 0.949 . S
C754 C760 1.368 1_655 S
C755 C739 1.349 . S
C755 H747 0.950 . S
C755 C753 1.327 . S
C756 C744 1.349 . S
C756 H750 0.950 . S
C756 C757 1.327 . S
C757 H751 0.950 . S
C757 C756 1.327 . S
C757 C761 1.429 . S
C758 C741 1.574 . S
C758 H752 0.949 . S
C758 C762 1.368 1_455 S
C759 C740 1.429 . S
C759 C753 1.429 . S
C759 C760 1.523 . S
C760 C741 1.368 . S
C760 C754 1.368 1_455 S
C760 C759 1.523 . S
C761 C745 1.429 . S
C761 C757 1.429 . S
C761 C762 1.523 . S
C762 C746 1.368 . S
C762 C758 1.368 1_655 S
C762 C761 1.523 . S
H763 C738 0.950 . S
H764 C740 0.951 . S
H765 C741 0.949 . S
H766 C743 0.950 . S
H767 C745 0.951 . S
C768 C769 1.349 . S
C768 C770 1.327 . S
C768 H793 0.950 . S
C769 C768 1.349 . S
C769 C785 1.349 . S
C770 C768 1.327 . S
C770 C789 1.429 . S
C770 H794 0.950 . S
C771 C788 1.574 . S
C771 C790 1.368 1_545 S
C771 H795 0.949 . S
H772 C776 0.949 . S
C773 C774 1.349 . S
C773 C775 1.327 . S
C773 H796 0.950 . S
C774 C773 1.349 . S
C774 C786 1.349 . S
C775 C773 1.327 . S
C775 C791 1.429 . S
C775 H797 0.950 . S
C776 H772 0.949 . S
C776 C784 1.574 . S
C776 C792 1.368 1_565 S
H777 C785 0.950 . S
H778 C783 0.950 . S
H779 C784 0.949 . S
H780 C786 0.950 . S
H781 C787 0.950 . S
H782 C788 0.949 . S
C783 H778 0.950 . S
C783 C785 1.327 . S
C783 C789 1.429 . S
C784 C776 1.574 . S
C784 H779 0.949 . S
C784 C790 1.368 . S
C785 C769 1.349 . S
C785 H777 0.950 . S
C785 C783 1.327 . S
C786 C774 1.349 . S
C786 H780 0.950 . S
C786 C787 1.327 . S
C787 H781 0.950 . S
C787 C786 1.327 . S
C787 C791 1.429 . S
C788 C771 1.574 . S
C788 H782 0.949 . S
C788 C792 1.368 . S
C789 C770 1.429 . S
C789 C783 1.429 . S
C789 C790 1.523 . S
C790 C771 1.368 1_565 S
C790 C784 1.368 . S
C790 C789 1.523 . S
C791 C775 1.429 . S
C791 C787 1.429 . S
C791 C792 1.523 . S
C792 C776 1.368 1_545 S
C792 C788 1.368 . S
C792 C791 1.523 . S
H793 C768 0.950 . S
H794 C770 0.950 . S
H795 C771 0.949 . S
H796 C773 0.950 . S
H797 C775 0.950 . S
C798 C799 1.349 . S
C798 C800 1.327 . S
C798 H823 0.950 . S
C799 C798 1.349 . S
C799 C815 1.349 . S
C800 C798 1.327 . S
C800 C819 1.429 . S
C800 H824 0.950 . S
C801 C818 1.574 . S
C801 C820 1.368 . S
C801 H825 0.949 . S
H802 C806 0.949 . S
C803 C804 1.349 . S
C803 C805 1.327 . S
C803 H826 0.950 . S
C804 C803 1.349 . S
C804 C816 1.349 . S
C805 C803 1.327 . S
C805 C821 1.429 . S
C805 H827 0.950 . S
C806 H802 0.949 . S
C806 C814 1.574 . S
C806 C822 1.368 . S
H807 C815 0.950 . S
H808 C813 0.950 . S
H809 C814 0.949 . S
H810 C816 0.950 . S
H811 C817 0.950 . S
H812 C818 0.949 . S
C813 H808 0.950 . S
C813 C815 1.327 . S
C813 C819 1.429 . S
C814 C806 1.574 . S
C814 H809 0.949 . S
C814 C820 1.368 . S
C815 C799 1.349 . S
C815 H807 0.950 . S
C815 C813 1.327 . S
C816 C804 1.349 . S
C816 H810 0.950 . S
C816 C817 1.327 . S
C817 H811 0.950 . S
C817 C816 1.327 . S
C817 C821 1.429 . S
C818 C801 1.574 . S
C818 H812 0.949 . S
C818 C822 1.368 . S
C819 C800 1.429 . S
C819 C813 1.429 . S
C819 C820 1.523 . S
C820 C801 1.368 . S
C820 C814 1.368 . S
C820 C819 1.523 . S
C821 C805 1.429 . S
C821 C817 1.429 . S
C821 C822 1.523 . S
C822 C806 1.368 . S
C822 C818 1.368 . S
C822 C821 1.523 . S
H823 C798 0.950 . S
H824 C800 0.950 . S
H825 C801 0.949 . S
H826 C803 0.950 . S
H827 C805 0.950 . S
C828 C829 1.349 . S
C828 C830 1.327 . S
C828 H853 0.950 . S
C829 C828 1.349 . S
C829 C845 1.349 . S
C830 C828 1.327 . S
C830 C849 1.429 . S
C830 H854 0.950 . S
C831 C848 1.574 . S
C831 C850 1.368 1_455 S
C831 H855 0.949 . S
H832 C836 0.949 . S
C833 C834 1.349 . S
C833 C835 1.327 . S
C833 H856 0.950 . S
C834 C833 1.349 . S
C834 C846 1.349 . S
C835 C833 1.327 . S
C835 C851 1.429 . S
C835 H857 0.950 . S
C836 H832 0.949 . S
C836 C844 1.574 . S
C836 C852 1.368 1_655 S
H837 C845 0.950 . S
H838 C843 0.950 . S
H839 C844 0.949 . S
H840 C846 0.950 . S
H841 C847 0.950 . S
H842 C848 0.949 . S
C843 H838 0.950 . S
C843 C845 1.327 . S
C843 C849 1.429 . S
C844 C836 1.574 . S
C844 H839 0.949 . S
C844 C850 1.368 . S
C845 C829 1.349 . S
C845 H837 0.950 . S
C845 C843 1.327 . S
C846 C834 1.349 . S
C846 H840 0.950 . S
C846 C847 1.327 . S
C847 H841 0.950 . S
C847 C846 1.327 . S
C847 C851 1.429 . S
C848 C831 1.574 . S
C848 H842 0.949 . S
C848 C852 1.368 . S
C849 C830 1.429 . S
C849 C843 1.429 . S
C849 C850 1.523 . S
C850 C831 1.368 1_655 S
C850 C844 1.368 . S
C850 C849 1.523 . S
C851 C835 1.429 . S
C851 C847 1.429 . S
C851 C852 1.523 . S
C852 C836 1.368 1_455 S
C852 C848 1.368 . S
C852 C851 1.523 . S
H853 C828 0.950 . S
H854 C830 0.950 . S
H855 C831 0.949 . S
H856 C833 0.950 . S
H857 C835 0.950 . S
C858 C859 1.349 . S
C858 C860 1.327 . S
C858 H883 0.950 . S
C859 C858 1.349 . S
C859 C875 1.349 . S
C860 C858 1.327 . S
C860 C879 1.429 . S
C860 H884 0.950 . S
C861 C878 1.574 . S
C861 C880 1.368 1_565 S
C861 H885 0.949 . S
H862 C866 0.949 . S
C863 C864 1.349 . S
C863 C865 1.327 . S
C863 H886 0.950 . S
C864 C863 1.349 . S
C864 C876 1.349 . S
C865 C863 1.327 . S
C865 C881 1.429 . S
C865 H887 0.950 . S
C866 H862 0.949 . S
C866 C874 1.574 . S
C866 C882 1.368 1_545 S
H867 C875 0.950 . S
H868 C873 0.951 . S
H869 C874 0.949 . S
H870 C876 0.950 . S
H871 C877 0.951 . S
H872 C878 0.949 . S
C873 H868 0.951 . S
C873 C875 1.327 . S
C873 C879 1.429 . S
C874 C866 1.574 . S
C874 H869 0.949 . S
C874 C880 1.368 . S
C875 C859 1.349 . S
C875 H867 0.950 . S
C875 C873 1.327 . S
C876 C864 1.349 . S
C876 H870 0.950 . S
C876 C877 1.327 . S
C877 H871 0.951 . S
C877 C876 1.327 . S
C877 C881 1.429 . S
C878 C861 1.574 . S
C878 H872 0.949 . S
C878 C882 1.368 . S
C879 C860 1.429 . S
C879 C873 1.429 . S
C879 C880 1.523 . S
C880 C861 1.368 1_545 S
C880 C874 1.368 . S
C880 C879 1.523 . S
C881 C865 1.429 . S
C881 C877 1.429 . S
C881 C882 1.523 . S
C882 C866 1.368 1_565 S
C882 C878 1.368 . S
C882 C881 1.523 . S
H883 C858 0.950 . S
H884 C860 0.950 . S
H885 C861 0.949 . S
H886 C863 0.950 . S
H887 C865 0.950 . S
C888 C889 1.349 . S
C888 C890 1.327 . S
C888 H913 0.950 . S
C889 C888 1.349 . S
C889 C905 1.349 . S
C890 C888 1.327 . S
C890 C909 1.429 . S
C890 H914 0.950 . S
C891 C908 1.574 . S
C891 C910 1.368 . S
C891 H915 0.949 . S
H892 C896 0.949 . S
C893 C894 1.349 . S
C893 C895 1.327 . S
C893 H916 0.950 . S
C894 C893 1.349 . S
C894 C906 1.349 . S
C895 C893 1.327 . S
C895 C911 1.429 . S
C895 H917 0.950 . S
C896 H892 0.949 . S
C896 C904 1.574 . S
C896 C912 1.368 . S
H897 C905 0.950 . S
H898 C903 0.950 . S
H899 C904 0.949 . S
H900 C906 0.950 . S
H901 C907 0.950 . S
H902 C908 0.949 . S
C903 H898 0.950 . S
C903 C905 1.327 . S
C903 C909 1.429 . S
C904 C896 1.574 . S
C904 H899 0.949 . S
C904 C910 1.368 . S
C905 C889 1.349 . S
C905 H897 0.950 . S
C905 C903 1.327 . S
C906 C894 1.349 . S
C906 H900 0.950 . S
C906 C907 1.327 . S
C907 H901 0.950 . S
C907 C906 1.327 . S
C907 C911 1.429 . S
C908 C891 1.574 . S
C908 H902 0.949 . S
C908 C912 1.368 . S
C909 C890 1.429 . S
C909 C903 1.429 . S
C909 C910 1.523 . S
C910 C891 1.368 . S
C910 C904 1.368 . S
C910 C909 1.523 . S
C911 C895 1.429 . S
C911 C907 1.429 . S
C911 C912 1.523 . S
C912 C896 1.368 . S
C912 C908 1.368 . S
C912 C911 1.523 . S
H913 C888 0.950 . S
H914 C890 0.950 . S
H915 C891 0.949 . S
H916 C893 0.950 . S
H917 C895 0.950 . S
C918 C919 1.349 . S
C918 C920 1.327 . S
C918 H943 0.950 . S
C919 C918 1.349 . S
C919 C935 1.349 . S
C920 C918 1.327 . S
C920 C939 1.429 . S
C920 H944 0.950 . S
C921 C938 1.574 . S
C921 C940 1.368 . S
C921 H945 0.949 . S
H922 C926 0.949 . S
C923 C924 1.349 . S
C923 C925 1.327 . S
C923 H946 0.950 . S
C924 C923 1.349 . S
C924 C936 1.349 . S
C925 C923 1.327 . S
C925 C941 1.429 . S
C925 H947 0.950 . S
C926 H922 0.949 . S
C926 C934 1.574 . S
C926 C942 1.368 . S
H927 C935 0.950 . S
H928 C933 0.950 . S
H929 C934 0.949 . S
H930 C936 0.950 . S
H931 C937 0.950 . S
H932 C938 0.949 . S
C933 H928 0.950 . S
C933 C935 1.327 . S
C933 C939 1.429 . S
C934 C926 1.574 . S
C934 H929 0.949 . S
C934 C940 1.368 . S
C935 C919 1.349 . S
C935 H927 0.950 . S
C935 C933 1.327 . S
C936 C924 1.349 . S
C936 H930 0.950 . S
C936 C937 1.327 . S
C937 H931 0.950 . S
C937 C936 1.327 . S
C937 C941 1.429 . S
C938 C921 1.574 . S
C938 H932 0.949 . S
C938 C942 1.368 . S
C939 C920 1.429 . S
C939 C933 1.429 . S
C939 C940 1.523 . S
C940 C921 1.368 . S
C940 C934 1.368 . S
C940 C939 1.523 . S
C941 C925 1.429 . S
C941 C937 1.429 . S
C941 C942 1.523 . S
C942 C926 1.368 . S
C942 C938 1.368 . S
C942 C941 1.523 . S
H943 C918 0.950 . S
H944 C920 0.950 . S
H945 C921 0.949 . S
H946 C923 0.950 . S
H947 C925 0.950 . S
C948 C949 1.349 . S
C948 C950 1.327 . S
C948 H973 0.950 . S
C949 C948 1.349 . S
C949 C965 1.349 . S
C950 C948 1.327 . S
C950 C969 1.429 . S
C950 H974 0.950 . S
C951 C968 1.574 . S
C951 C970 1.368 . S
C951 H975 0.949 . S
H952 C956 0.949 . S
C953 C954 1.349 . S
C953 C955 1.327 . S
C953 H976 0.950 . S
C954 C953 1.349 . S
C954 C966 1.349 . S
C955 C953 1.327 . S
C955 C971 1.429 . S
C955 H977 0.950 . S
C956 H952 0.949 . S
C956 C964 1.574 . S
C956 C972 1.368 . S
H957 C965 0.950 . S
H958 C963 0.950 . S
H959 C964 0.949 . S
H960 C966 0.950 . S
H961 C967 0.950 . S
H962 C968 0.949 . S
C963 H958 0.950 . S
C963 C965 1.327 . S
C963 C969 1.429 . S
C964 C956 1.574 . S
C964 H959 0.949 . S
C964 C970 1.368 . S
C965 C949 1.349 . S
C965 H957 0.950 . S
C965 C963 1.327 . S
C966 C954 1.349 . S
C966 H960 0.950 . S
C966 C967 1.327 . S
C967 H961 0.950 . S
C967 C966 1.327 . S
C967 C971 1.429 . S
C968 C951 1.574 . S
C968 H962 0.949 . S
C968 C972 1.368 . S
C969 C950 1.429 . S
C969 C963 1.429 . S
C969 C970 1.523 . S
C970 C951 1.368 . S
C970 C964 1.368 . S
C970 C969 1.523 . S
C971 C955 1.429 . S
C971 C967 1.429 . S
C971 C972 1.523 . S
C972 C956 1.368 . S
C972 C968 1.368 . S
C972 C971 1.523 . S
H973 C948 0.950 . S
H974 C950 0.950 . S
H975 C951 0.949 . S
H976 C953 0.950 . S
H977 C955 0.950 . S
C978 C979 1.349 . S
C978 C980 1.327 . S
C978 H1003 0.950 . S
C979 C978 1.349 . S
C979 C995 1.349 . S
C980 C978 1.327 . S
C980 C999 1.429 . S
C980 H1004 0.950 . S
C981 C998 1.574 . S
C981 C1000 1.368 . S
C981 H1005 0.949 . S
H982 C986 0.949 . S
C983 C984 1.349 . S
C983 C985 1.327 . S
C983 H1006 0.950 . S
C984 C983 1.349 . S
C984 C996 1.349 . S
C985 C983 1.327 . S
C985 C1001 1.429 . S
C985 H1007 0.950 . S
C986 H982 0.949 . S
C986 C994 1.574 . S
C986 C1002 1.368 . S
H987 C995 0.950 . S
H988 C993 0.950 . S
H989 C994 0.949 . S
H990 C996 0.950 . S
H991 C997 0.950 . S
H992 C998 0.949 . S
C993 H988 0.950 . S
C993 C995 1.327 . S
C993 C999 1.429 . S
C994 C986 1.574 . S
C994 H989 0.949 . S
C994 C1000 1.368 . S
C995 C979 1.349 . S
C995 H987 0.950 . S
C995 C993 1.327 . S
C996 C984 1.349 . S
C996 H990 0.950 . S
C996 C997 1.327 . S
C997 H991 0.950 . S
C997 C996 1.327 . S
C997 C1001 1.429 . S
C998 C981 1.574 . S
C998 H992 0.949 . S
C998 C1002 1.368 . S
C999 C980 1.429 . S
C999 C993 1.429 . S
C999 C1000 1.523 . S
C1000 C981 1.368 . S
C1000 C994 1.368 . S
C1000 C999 1.523 . S
C1001 C985 1.429 . S
C1001 C997 1.429 . S
C1001 C1002 1.523 . S
C1002 C986 1.368 . S
C1002 C998 1.368 . S
C1002 C1001 1.523 . S
H1003 C978 0.950 . S
H1004 C980 0.950 . S
H1005 C981 0.949 . S
H1006 C983 0.950 . S
H1007 C985 0.950 . S
C1008 C1009 1.349 . S
C1008 C1010 1.327 . S
C1008 H1033 0.950 . S
C1009 C1008 1.349 . S
C1009 C1025 1.349 . S
C1010 C1008 1.327 . S
C1010 C1029 1.429 . S
C1010 H1034 0.950 . S
C1011 C1028 1.574 . S
C1011 C1030 1.368 . S
C1011 H1035 0.949 . S
H1012 C1016 0.949 . S
C1013 C1014 1.349 . S
C1013 C1015 1.327 . S
C1013 H1036 0.950 . S
C1014 C1013 1.349 . S
C1014 C1026 1.349 . S
C1015 C1013 1.327 . S
C1015 C1031 1.429 . S
C1015 H1037 0.950 . S
C1016 H1012 0.949 . S
C1016 C1024 1.574 . S
C1016 C1032 1.368 . S
H1017 C1025 0.950 . S
H1018 C1023 0.950 . S
H1019 C1024 0.949 . S
H1020 C1026 0.950 . S
H1021 C1027 0.950 . S
H1022 C1028 0.949 . S
C1023 H1018 0.950 . S
C1023 C1025 1.327 . S
C1023 C1029 1.429 . S
C1024 C1016 1.574 . S
C1024 H1019 0.949 . S
C1024 C1030 1.368 . S
C1025 C1009 1.349 . S
C1025 H1017 0.950 . S
C1025 C1023 1.327 . S
C1026 C1014 1.349 . S
C1026 H1020 0.950 . S
C1026 C1027 1.327 . S
C1027 H1021 0.950 . S
C1027 C1026 1.327 . S
C1027 C1031 1.429 . S
C1028 C1011 1.574 . S
C1028 H1022 0.949 . S
C1028 C1032 1.368 . S
C1029 C1010 1.429 . S
C1029 C1023 1.429 . S
C1029 C1030 1.523 . S
C1030 C1011 1.368 . S
C1030 C1024 1.368 . S
C1030 C1029 1.523 . S
C1031 C1015 1.429 . S
C1031 C1027 1.429 . S
C1031 C1032 1.523 . S
C1032 C1016 1.368 . S
C1032 C1028 1.368 . S
C1032 C1031 1.523 . S
H1033 C1008 0.950 . S
H1034 C1010 0.950 . S
H1035 C1011 0.949 . S
H1036 C1013 0.950 . S
H1037 C1015 0.950 . S
C1038 C1039 1.349 . S
C1038 C1040 1.327 . S
C1038 H1063 0.950 . S
C1039 C1038 1.349 . S
C1039 C1055 1.349 . S
C1040 C1038 1.327 . S
C1040 C1059 1.429 . S
C1040 H1064 0.950 . S
C1041 C1058 1.574 . S
C1041 C1060 1.368 . S
C1041 H1065 0.949 . S
H1042 C1046 0.949 . S
C1043 C1044 1.349 . S
C1043 C1045 1.327 . S
C1043 H1066 0.950 . S
C1044 C1043 1.349 . S
C1044 C1056 1.349 . S
C1045 C1043 1.327 . S
C1045 C1061 1.429 . S
C1045 H1067 0.950 . S
C1046 H1042 0.949 . S
C1046 C1054 1.574 . S
C1046 C1062 1.368 . S
H1047 C1055 0.950 . S
H1048 C1053 0.950 . S
H1049 C1054 0.949 . S
H1050 C1056 0.950 . S
H1051 C1057 0.950 . S
H1052 C1058 0.949 . S
C1053 H1048 0.950 . S
C1053 C1055 1.327 . S
C1053 C1059 1.429 . S
C1054 C1046 1.574 . S
C1054 H1049 0.949 . S
C1054 C1060 1.368 . S
C1055 C1039 1.349 . S
C1055 H1047 0.950 . S
C1055 C1053 1.327 . S
C1056 C1044 1.349 . S
C1056 H1050 0.950 . S
C1056 C1057 1.327 . S
C1057 H1051 0.950 . S
C1057 C1056 1.327 . S
C1057 C1061 1.429 . S
C1058 C1041 1.574 . S
C1058 H1052 0.949 . S
C1058 C1062 1.368 . S
C1059 C1040 1.429 . S
C1059 C1053 1.429 . S
C1059 C1060 1.523 . S
C1060 C1041 1.368 . S
C1060 C1054 1.368 . S
C1060 C1059 1.523 . S
C1061 C1045 1.429 . S
C1061 C1057 1.429 . S
C1061 C1062 1.523 . S
C1062 C1046 1.368 . S
C1062 C1058 1.368 . S
C1062 C1061 1.523 . S
H1063 C1038 0.950 . S
H1064 C1040 0.950 . S
H1065 C1041 0.949 . S
H1066 C1043 0.950 . S
H1067 C1045 0.950 . S
C1068 C1069 1.349 . S
C1068 C1070 1.327 . S
C1068 H1093 0.950 . S
C1069 C1068 1.349 . S
C1069 C1085 1.349 . S
C1070 C1068 1.327 . S
C1070 C1089 1.429 . S
C1070 H1094 0.955 1_556 S
C1071 C1088 1.574 1_565 S
C1071 C1090 1.368 . S
C1071 H1095 0.949 . S
H1072 C1076 0.949 . S
C1073 C1074 1.349 . S
C1073 C1075 1.327 . S
C1073 H1096 0.950 . S
C1074 C1073 1.349 . S
C1074 C1086 1.349 . S
C1075 C1073 1.327 . S
C1075 C1091 1.429 . S
C1075 H1097 0.950 . S
C1076 H1072 0.949 . S
C1076 C1084 1.574 1_545 S
C1076 C1092 1.368 . S
H1077 C1085 0.950 . S
H1078 C1083 0.950 . S
H1079 C1084 0.949 . S
H1080 C1086 0.950 . S
H1081 C1087 0.950 . S
H1082 C1088 0.949 . S
C1083 H1078 0.950 . S
C1083 C1085 1.327 . S
C1083 C1089 1.429 . S
C1084 C1076 1.574 1_565 S
C1084 H1079 0.949 . S
C1084 C1090 1.368 1_554 S
C1085 C1069 1.349 . S
C1085 H1077 0.950 . S
C1085 C1083 1.327 . S
C1086 C1074 1.349 . S
C1086 H1080 0.950 . S
C1086 C1087 1.327 . S
C1087 H1081 0.950 . S
C1087 C1086 1.327 . S
C1087 C1091 1.429 . S
C1088 C1071 1.574 1_545 S
C1088 H1082 0.949 . S
C1088 C1092 1.368 1_556 S
C1089 C1070 1.429 . S
C1089 C1083 1.429 . S
C1089 C1090 1.523 . S
C1090 C1071 1.368 . S
C1090 C1084 1.368 1_556 S
C1090 C1089 1.523 . S
C1091 C1075 1.429 . S
C1091 C1087 1.429 . S
C1091 C1092 1.523 . S
C1092 C1076 1.368 . S
C1092 C1088 1.368 1_554 S
C1092 C1091 1.523 . S
H1093 C1068 0.950 . S
H1094 C1070 0.955 1_554 S
H1095 C1071 0.949 . S
H1096 C1073 0.950 . S
H1097 C1075 0.950 . S
C1098 C1099 1.349 . S
C1098 C1100 1.327 . S
C1098 H1123 0.950 . S
C1099 C1098 1.349 . S
C1099 C1115 1.349 . S
C1100 C1098 1.327 . S
C1100 C1119 1.429 . S
C1100 H1124 0.950 . S
C1101 C1118 1.574 . S
C1101 C1120 1.368 . S
C1101 H1125 0.949 . S
H1102 C1106 0.949 . S
C1103 C1104 1.349 . S
C1103 C1105 1.327 . S
C1103 H1126 0.950 . S
C1104 C1103 1.349 . S
C1104 C1116 1.349 . S
C1105 C1103 1.327 . S
C1105 C1121 1.429 . S
C1105 H1127 0.950 . S
C1106 H1102 0.949 . S
C1106 C1114 1.574 . S
C1106 C1122 1.368 . S
H1107 C1115 0.950 . S
H1108 C1113 0.950 . S
H1109 C1114 0.949 . S
H1110 C1116 0.950 . S
H1111 C1117 0.950 . S
H1112 C1118 0.949 . S
C1113 H1108 0.950 . S
C1113 C1115 1.327 . S
C1113 C1119 1.429 . S
C1114 C1106 1.574 . S
C1114 H1109 0.949 . S
C1114 C1120 1.368 . S
C1115 C1099 1.349 . S
C1115 H1107 0.950 . S
C1115 C1113 1.327 . S
C1116 C1104 1.349 . S
C1116 H1110 0.950 . S
C1116 C1117 1.327 . S
C1117 H1111 0.950 . S
C1117 C1116 1.327 . S
C1117 C1121 1.429 . S
C1118 C1101 1.574 . S
C1118 H1112 0.949 . S
C1118 C1122 1.368 . S
C1119 C1100 1.429 . S
C1119 C1113 1.429 . S
C1119 C1120 1.523 . S
C1120 C1101 1.368 . S
C1120 C1114 1.368 . S
C1120 C1119 1.523 . S
C1121 C1105 1.429 . S
C1121 C1117 1.429 . S
C1121 C1122 1.523 . S
C1122 C1106 1.368 . S
C1122 C1118 1.368 . S
C1122 C1121 1.523 . S
H1123 C1098 0.950 . S
H1124 C1100 0.950 . S
H1125 C1101 0.949 . S
H1126 C1103 0.950 . S
H1127 C1105 0.950 . S
C1128 C1129 1.349 . S
C1128 C1130 1.327 . S
C1128 H1153 0.950 . S
C1129 C1128 1.349 . S
C1129 C1145 1.349 . S
C1130 C1128 1.327 . S
C1130 C1149 1.429 . S
C1130 H1154 0.950 . S
C1131 C1148 1.574 1_655 S
C1131 C1150 1.368 . S
C1131 H1155 0.949 . S
H1132 C1136 0.949 . S
C1133 C1134 1.349 . S
C1133 C1135 1.327 . S
C1133 H1156 0.950 . S
C1134 C1133 1.349 . S
C1134 C1146 1.349 . S
C1135 C1133 1.327 . S
C1135 C1151 1.429 . S
C1135 H1157 0.950 . S
C1136 H1132 0.949 . S
C1136 C1144 1.574 1_455 S
C1136 C1152 1.368 . S
H1137 C1145 0.950 . S
H1138 C1143 0.950 . S
H1139 C1144 0.949 . S
H1140 C1146 0.950 . S
H1141 C1147 0.950 . S
H1142 C1148 0.949 . S
C1143 H1138 0.950 . S
C1143 C1145 1.327 . S
C1143 C1149 1.429 . S
C1144 C1136 1.574 1_655 S
C1144 H1139 0.949 . S
C1144 C1150 1.368 . S
C1145 C1129 1.349 . S
C1145 H1137 0.950 . S
C1145 C1143 1.327 . S
C1146 C1134 1.349 . S
C1146 H1140 0.950 . S
C1146 C1147 1.327 . S
C1147 H1141 0.950 . S
C1147 C1146 1.327 . S
C1147 C1151 1.429 . S
C1148 C1131 1.574 1_455 S
C1148 H1142 0.949 . S
C1148 C1152 1.368 . S
C1149 C1130 1.429 . S
C1149 C1143 1.429 . S
C1149 C1150 1.523 . S
C1150 C1131 1.368 . S
C1150 C1144 1.368 . S
C1150 C1149 1.523 . S
C1151 C1135 1.429 . S
C1151 C1147 1.429 . S
C1151 C1152 1.523 . S
C1152 C1136 1.368 . S
C1152 C1148 1.368 . S
C1152 C1151 1.523 . S
H1153 C1128 0.950 . S
H1154 C1130 0.950 . S
H1155 C1131 0.949 . S
H1156 C1133 0.950 . S
H1157 C1135 0.950 . S
C1158 C1159 1.349 . S
C1158 C1160 1.327 . S
C1158 H1183 0.950 . S
C1159 C1158 1.349 . S
C1159 C1175 1.349 . S
C1160 C1158 1.327 . S
C1160 C1179 1.429 . S
C1160 H1184 0.950 . S
C1161 C1178 1.601 1_565 S
C1161 C1180 1.335 1_556 S
C1161 H1185 0.958 . S
H1162 C1166 0.949 . S
C1163 C1164 1.349 . S
C1163 C1165 1.327 . S
C1163 H1186 0.950 . S
C1164 C1163 1.349 . S
C1164 C1176 1.349 . S
C1165 C1163 1.327 . S
C1165 C1181 1.429 . S
C1165 H1187 0.950 . S
C1166 H1162 0.949 . S
C1166 C1174 1.574 1_545 S
C1166 C1182 1.368 1_554 S
H1167 C1175 0.950 . S
H1168 C1173 0.950 . S
H1169 C1174 0.949 . S
H1170 C1176 0.950 . S
H1171 C1177 0.950 . S
H1172 C1178 0.949 . S
C1173 H1168 0.950 . S
C1173 C1175 1.327 . S
C1173 C1179 1.429 . S
C1174 C1166 1.574 1_565 S
C1174 H1169 0.949 . S
C1174 C1180 1.368 . S
C1175 C1159 1.349 . S
C1175 H1167 0.950 . S
C1175 C1173 1.327 . S
C1176 C1164 1.349 . S
C1176 H1170 0.950 . S
C1176 C1177 1.327 . S
C1177 H1171 0.950 . S
C1177 C1176 1.327 . S
C1177 C1181 1.429 . S
C1178 C1161 1.601 1_545 S
C1178 H1172 0.949 . S
C1178 C1182 1.368 . S
C1179 C1160 1.429 . S
C1179 C1173 1.429 . S
C1179 C1180 1.523 . S
C1180 C1161 1.335 1_554 S
C1180 C1174 1.368 . S
C1180 C1179 1.523 . S
C1181 C1165 1.429 . S
C1181 C1177 1.429 . S
C1181 C1182 1.523 . S
C1182 C1166 1.368 1_556 S
C1182 C1178 1.368 . S
C1182 C1181 1.523 . S
H1183 C1158 0.950 . S
H1184 C1160 0.950 . S
H1185 C1161 0.958 . S
H1186 C1163 0.950 . S
H1187 C1165 0.950 . S
C1188 C1189 1.349 . S
C1188 C1190 1.327 . S
C1188 H1213 0.950 . S
C1189 C1188 1.349 . S
C1189 C1205 1.349 . S
C1190 C1188 1.327 . S
C1190 C1209 1.429 . S
C1190 H1214 0.950 . S
C1191 C1208 1.574 . S
C1191 C1210 1.368 . S
C1191 H1215 0.949 . S
H1192 C1196 0.949 . S
C1193 C1194 1.349 . S
C1193 C1195 1.327 . S
C1193 H1216 0.950 . S
C1194 C1193 1.349 . S
C1194 C1206 1.349 . S
C1195 C1193 1.327 . S
C1195 C1211 1.429 . S
C1195 H1217 0.950 . S
C1196 H1192 0.949 . S
C1196 C1204 1.574 . S
C1196 C1212 1.368 . S
H1197 C1205 0.950 . S
H1198 C1203 0.950 . S
H1199 C1204 0.949 . S
H1200 C1206 0.950 . S
H1201 C1207 0.950 . S
H1202 C1208 0.949 . S
C1203 H1198 0.950 . S
C1203 C1205 1.327 . S
C1203 C1209 1.429 . S
C1204 C1196 1.574 . S
C1204 H1199 0.949 . S
C1204 C1210 1.368 . S
C1205 C1189 1.349 . S
C1205 H1197 0.950 . S
C1205 C1203 1.327 . S
C1206 C1194 1.349 . S
C1206 H1200 0.950 . S
C1206 C1207 1.327 . S
C1207 H1201 0.950 . S
C1207 C1206 1.327 . S
C1207 C1211 1.429 . S
C1208 C1191 1.574 . S
C1208 H1202 0.949 . S
C1208 C1212 1.368 . S
C1209 C1190 1.429 . S
C1209 C1203 1.429 . S
C1209 C1210 1.523 . S
C1210 C1191 1.368 . S
C1210 C1204 1.368 . S
C1210 C1209 1.523 . S
C1211 C1195 1.429 . S
C1211 C1207 1.429 . S
C1211 C1212 1.523 . S
C1212 C1196 1.368 . S
C1212 C1208 1.368 . S
C1212 C1211 1.523 . S
H1213 C1188 0.950 . S
H1214 C1190 0.950 . S
H1215 C1191 0.949 . S
H1216 C1193 0.950 . S
H1217 C1195 0.950 . S
C1218 C1219 1.349 . S
C1218 C1220 1.327 . S
C1218 H1243 0.950 . S
C1219 C1218 1.349 . S
C1219 C1235 1.349 . S
C1220 C1218 1.327 . S
C1220 C1239 1.429 . S
C1220 H1244 0.950 . S
C1221 C1238 1.574 1_455 S
C1221 C1240 1.368 . S
C1221 H1245 0.949 . S
H1222 C1226 0.949 . S
C1223 C1224 1.349 . S
C1223 C1225 1.327 . S
C1223 H1246 0.950 . S
C1224 C1223 1.349 . S
C1224 C1236 1.349 . S
C1225 C1223 1.327 . S
C1225 C1241 1.429 . S
C1225 H1247 0.950 . S
C1226 H1222 0.949 . S
C1226 C1234 1.574 1_655 S
C1226 C1242 1.368 . S
H1227 C1235 0.950 . S
H1228 C1233 0.950 . S
H1229 C1234 0.949 . S
H1230 C1236 0.950 . S
H1231 C1237 0.950 . S
H1232 C1238 0.949 . S
C1233 H1228 0.950 . S
C1233 C1235 1.327 . S
C1233 C1239 1.429 . S
C1234 C1226 1.574 1_455 S
C1234 H1229 0.949 . S
C1234 C1240 1.368 . S
C1235 C1219 1.349 . S
C1235 H1227 0.950 . S
C1235 C1233 1.327 . S
C1236 C1224 1.349 . S
C1236 H1230 0.950 . S
C1236 C1237 1.327 . S
C1237 H1231 0.950 . S
C1237 C1236 1.327 . S
C1237 C1241 1.429 . S
C1238 C1221 1.574 1_655 S
C1238 H1232 0.949 . S
C1238 C1242 1.368 . S
C1239 C1220 1.429 . S
C1239 C1233 1.429 . S
C1239 C1240 1.523 . S
C1240 C1221 1.368 . S
C1240 C1234 1.368 . S
C1240 C1239 1.523 . S
C1241 C1225 1.429 . S
C1241 C1237 1.429 . S
C1241 C1242 1.523 . S
C1242 C1226 1.368 . S
C1242 C1238 1.368 . S
C1242 C1241 1.523 . S
H1243 C1218 0.950 . S
H1244 C1220 0.950 . S
H1245 C1221 0.949 . S
H1246 C1223 0.950 . S
H1247 C1225 0.950 . S
C1248 C1249 1.349 . S
C1248 C1250 1.327 . S
C1248 H1273 0.950 . S
C1249 C1248 1.349 . S
C1249 C1265 1.349 . S
C1250 C1248 1.327 . S
C1250 C1269 1.429 . S
C1250 H1274 0.950 . S
C1251 C1268 1.574 . S
C1251 C1270 1.368 . S
C1251 H1275 0.949 . S
H1252 C1256 0.949 . S
C1253 C1254 1.349 . S
C1253 C1255 1.327 . S
C1253 H1276 0.950 . S
C1254 C1253 1.349 . S
C1254 C1266 1.349 . S
C1255 C1253 1.327 . S
C1255 C1271 1.429 . S
C1255 H1277 0.950 . S
C1256 H1252 0.949 . S
C1256 C1264 1.574 . S
C1256 C1272 1.368 . S
H1257 C1265 0.950 1_655 S
H1258 C1263 0.950 . S
H1259 C1264 0.949 . S
H1260 C1266 0.950 . S
H1261 C1267 0.950 . S
H1262 C1268 0.949 . S
C1263 H1258 0.950 . S
C1263 C1265 1.327 . S
C1263 C1269 1.429 . S
C1264 C1256 1.574 . S
C1264 H1259 0.949 . S
C1264 C1270 1.368 1_554 S
C1265 C1249 1.349 . S
C1265 H1257 0.950 1_455 S
C1265 C1263 1.327 . S
C1266 C1254 1.349 . S
C1266 H1260 0.950 . S
C1266 C1267 1.327 . S
C1267 H1261 0.950 . S
C1267 C1266 1.327 . S
C1267 C1271 1.429 . S
C1268 C1251 1.574 . S
C1268 H1262 0.949 . S
C1268 C1272 1.368 1_556 S
C1269 C1250 1.429 . S
C1269 C1263 1.429 . S
C1269 C1270 1.523 . S
C1270 C1251 1.368 . S
C1270 C1264 1.368 1_556 S
C1270 C1269 1.523 . S
C1271 C1255 1.429 . S
C1271 C1267 1.429 . S
C1271 C1272 1.523 . S
C1272 C1256 1.368 . S
C1272 C1268 1.368 1_554 S
C1272 C1271 1.523 . S
H1273 C1248 0.950 . S
H1274 C1250 0.950 . S
H1275 C1251 0.949 . S
H1276 C1253 0.950 . S
H1277 C1255 0.950 . S
C1278 C1279 1.349 . S
C1278 C1280 1.327 . S
C1278 H1303 0.950 . S
C1279 C1278 1.349 . S
C1279 C1295 1.349 1_545 S
C1280 C1278 1.327 . S
C1280 C1299 1.429 . S
C1280 H1304 0.950 . S
C1281 C1298 1.574 . S
C1281 C1300 1.368 . S
C1281 H1305 0.949 . S
H1282 C1286 0.949 . S
C1283 C1284 1.349 . S
C1283 C1285 1.327 . S
C1283 H1306 0.950 1_655 S
C1284 C1283 1.349 . S
C1284 C1296 1.349 . S
C1285 C1283 1.327 . S
C1285 C1301 1.429 . S
C1285 H1307 0.950 . S
C1286 H1282 0.949 . S
C1286 C1294 1.574 . S
C1286 C1302 1.368 . S
H1287 C1295 0.950 . S
H1288 C1293 0.950 . S
H1289 C1294 0.949 . S
H1290 C1296 0.950 . S
H1291 C1297 0.950 . S
H1292 C1298 0.949 . S
C1293 H1288 0.950 . S
C1293 C1295 1.327 1_545 S
C1293 C1299 1.429 . S
C1294 C1286 1.574 . S
C1294 H1289 0.949 . S
C1294 C1300 1.368 . S
C1295 C1279 1.349 1_565 S
C1295 H1287 0.950 . S
C1295 C1293 1.327 1_565 S
C1296 C1284 1.349 . S
C1296 H1290 0.950 . S
C1296 C1297 1.327 . S
C1297 H1291 0.950 . S
C1297 C1296 1.327 . S
C1297 C1301 1.429 . S
C1298 C1281 1.574 . S
C1298 H1292 0.949 . S
C1298 C1302 1.368 . S
C1299 C1280 1.429 . S
C1299 C1293 1.429 . S
C1299 C1300 1.523 . S
C1300 C1281 1.368 . S
C1300 C1294 1.368 . S
C1300 C1299 1.523 . S
C1301 C1285 1.429 . S
C1301 C1297 1.429 . S
C1301 C1302 1.523 . S
C1302 C1286 1.368 . S
C1302 C1298 1.368 . S
C1302 C1301 1.523 . S
H1303 C1278 0.950 . S
H1304 C1280 0.950 . S
H1305 C1281 0.949 . S
H1306 C1283 0.950 1_455 S
H1307 C1285 0.950 . S
C1308 C1309 1.349 . S
C1308 C1310 1.327 . S
C1308 H1333 0.950 . S
C1309 C1308 1.349 . S
C1309 C1325 1.349 . S
C1310 C1308 1.327 . S
C1310 C1329 1.429 . S
C1310 H1334 0.950 . S
C1311 C1328 1.574 . S
C1311 C1330 1.368 . S
C1311 H1335 0.949 . S
H1312 C1316 0.949 . S
C1313 C1314 1.349 . S
C1313 C1315 1.327 . S
C1313 H1336 0.950 . S
C1314 C1313 1.349 . S
C1314 C1326 1.349 . S
C1315 C1313 1.327 . S
C1315 C1331 1.429 . S
C1315 H1337 0.950 . S
C1316 H1312 0.949 . S
C1316 C1324 1.574 . S
C1316 C1332 1.368 . S
H1317 C1325 0.950 . S
H1318 C1323 0.950 . S
H1319 C1324 0.949 . S
H1320 C1326 0.950 . S
H1321 C1327 0.950 . S
H1322 C1328 0.949 . S
C1323 H1318 0.950 . S
C1323 C1325 1.327 . S
C1323 C1329 1.429 . S
C1324 C1316 1.574 . S
C1324 H1319 0.949 . S
C1324 C1330 1.368 . S
C1325 C1309 1.349 . S
C1325 H1317 0.950 . S
C1325 C1323 1.327 . S
C1326 C1314 1.349 . S
C1326 H1320 0.950 . S
C1326 C1327 1.327 . S
C1327 H1321 0.950 . S
C1327 C1326 1.327 . S
C1327 C1331 1.429 . S
C1328 C1311 1.574 . S
C1328 H1322 0.949 . S
C1328 C1332 1.368 . S
C1329 C1310 1.429 . S
C1329 C1323 1.429 . S
C1329 C1330 1.523 . S
C1330 C1311 1.368 . S
C1330 C1324 1.368 . S
C1330 C1329 1.523 . S
C1331 C1315 1.429 . S
C1331 C1327 1.429 . S
C1331 C1332 1.523 . S
C1332 C1316 1.368 . S
C1332 C1328 1.368 . S
C1332 C1331 1.523 . S
H1333 C1308 0.950 . S
H1334 C1310 0.950 . S
H1335 C1311 0.949 . S
H1336 C1313 0.950 . S
H1337 C1315 0.950 . S
C1338 C1339 1.349 . S
C1338 C1340 1.327 . S
C1338 H1363 0.950 . S
C1339 C1338 1.349 . S
C1339 C1355 1.349 . S
C1340 C1338 1.327 . S
C1340 C1359 1.429 . S
C1340 H1364 0.950 . S
C1341 C1358 1.574 . S
C1341 C1360 1.368 . S
C1341 H1365 0.949 . S
H1342 C1346 0.949 . S
C1343 C1344 1.349 1_455 S
C1343 C1345 1.327 1_455 S
C1343 H1366 0.950 . S
C1344 C1343 1.349 1_655 S
C1344 C1356 1.349 . S
C1345 C1343 1.327 1_655 S
C1345 C1361 1.429 . S
C1345 H1367 0.950 . S
C1346 H1342 0.949 . S
C1346 C1354 1.574 . S
C1346 C1362 1.368 . S
H1347 C1355 0.950 . S
H1348 C1353 0.950 . S
H1349 C1354 0.949 . S
H1350 C1356 0.950 . S
H1351 C1357 0.950 . S
H1352 C1358 0.949 . S
C1353 H1348 0.950 . S
C1353 C1355 1.327 . S
C1353 C1359 1.429 . S
C1354 C1346 1.574 . S
C1354 H1349 0.949 . S
C1354 C1360 1.368 1_556 S
C1355 C1339 1.349 . S
C1355 H1347 0.950 . S
C1355 C1353 1.327 . S
C1356 C1344 1.349 . S
C1356 H1350 0.950 . S
C1356 C1357 1.327 . S
C1357 H1351 0.950 . S
C1357 C1356 1.327 . S
C1357 C1361 1.429 . S
C1358 C1341 1.574 . S
C1358 H1352 0.949 . S
C1358 C1362 1.368 1_554 S
C1359 C1340 1.429 . S
C1359 C1353 1.429 . S
C1359 C1360 1.523 . S
C1360 C1341 1.368 . S
C1360 C1354 1.368 1_554 S
C1360 C1359 1.523 . S
C1361 C1345 1.429 . S
C1361 C1357 1.429 . S
C1361 C1362 1.523 . S
C1362 C1346 1.368 . S
C1362 C1358 1.368 1_556 S
C1362 C1361 1.523 . S
H1363 C1338 0.950 . S
H1364 C1340 0.950 . S
H1365 C1341 0.949 . S
H1366 C1343 0.950 . S
H1367 C1345 0.950 . S
C1368 C1369 1.349 1_655 S
C1368 C1370 1.327 1_655 S
C1368 H1393 0.949 . S
C1369 C1368 1.349 1_455 S
C1369 C1385 1.349 . S
C1370 C1368 1.327 1_455 S
C1370 C1389 1.429 . S
C1370 H1394 0.950 . S
C1371 C1388 1.574 . S
C1371 C1390 1.368 . S
C1371 H1395 0.949 . S
H1372 C1376 0.949 . S
C1373 C1374 1.349 . S
C1373 C1375 1.327 . S
C1373 H1396 0.950 . S
C1374 C1373 1.349 . S
C1374 C1386 1.349 . S
C1375 C1373 1.327 . S
C1375 C1391 1.429 . S
C1375 H1397 0.950 . S
C1376 H1372 0.949 . S
C1376 C1384 1.574 . S
C1376 C1392 1.368 . S
H1377 C1385 0.950 . S
H1378 C1383 0.950 . S
H1379 C1384 0.949 . S
H1380 C1386 0.950 . S
H1381 C1387 0.950 . S
H1382 C1388 0.949 . S
C1383 H1378 0.950 . S
C1383 C1385 1.327 . S
C1383 C1389 1.429 . S
C1384 C1376 1.574 . S
C1384 H1379 0.949 . S
C1384 C1390 1.368 . S
C1385 C1369 1.349 . S
C1385 H1377 0.950 . S
C1385 C1383 1.327 . S
C1386 C1374 1.349 . S
C1386 H1380 0.950 . S
C1386 C1387 1.327 . S
C1387 H1381 0.950 . S
C1387 C1386 1.327 . S
C1387 C1391 1.429 . S
C1388 C1371 1.574 . S
C1388 H1382 0.949 . S
C1388 C1392 1.368 . S
C1389 C1370 1.429 . S
C1389 C1383 1.429 . S
C1389 C1390 1.523 . S
C1390 C1371 1.368 . S
C1390 C1384 1.368 . S
C1390 C1389 1.523 . S
C1391 C1375 1.429 . S
C1391 C1387 1.429 . S
C1391 C1392 1.523 . S
C1392 C1376 1.368 . S
C1392 C1388 1.368 . S
C1392 C1391 1.523 . S
H1393 C1368 0.949 . S
H1394 C1370 0.950 . S
H1395 C1371 0.949 . S
H1396 C1373 0.950 . S
H1397 C1375 0.950 . S
C1398 C1399 1.349 . S
C1398 C1400 1.327 . S
C1398 H1423 0.950 . S
C1399 C1398 1.349 . S
C1399 C1415 1.349 1_545 S
C1400 C1398 1.327 . S
C1400 C1419 1.429 . S
C1400 H1424 0.950 . S
C1401 C1418 1.574 . S
C1401 C1420 1.368 . S
C1401 H1425 0.949 . S
H1402 C1406 0.949 . S
C1403 C1404 1.349 . S
C1403 C1405 1.327 . S
C1403 H1426 0.950 . S
C1404 C1403 1.349 . S
C1404 C1416 1.349 . S
C1405 C1403 1.327 . S
C1405 C1421 1.429 . S
C1405 H1427 0.950 . S
C1406 H1402 0.949 . S
C1406 C1414 1.574 . S
C1406 C1422 1.368 . S
H1407 C1415 0.950 . S
H1408 C1413 0.950 . S
H1409 C1414 0.949 . S
H1410 C1416 0.950 . S
H1411 C1417 0.950 . S
H1412 C1418 0.949 . S
C1413 H1408 0.950 . S
C1413 C1415 1.327 1_545 S
C1413 C1419 1.429 . S
C1414 C1406 1.574 . S
C1414 H1409 0.949 . S
C1414 C1420 1.368 . S
C1415 C1399 1.349 1_565 S
C1415 H1407 0.950 . S
C1415 C1413 1.327 1_565 S
C1416 C1404 1.349 . S
C1416 H1410 0.950 . S
C1416 C1417 1.327 . S
C1417 H1411 0.950 . S
C1417 C1416 1.327 . S
C1417 C1421 1.429 . S
C1418 C1401 1.574 . S
C1418 H1412 0.949 . S
C1418 C1422 1.368 . S
C1419 C1400 1.429 . S
C1419 C1413 1.429 . S
C1419 C1420 1.523 . S
C1420 C1401 1.368 . S
C1420 C1414 1.368 . S
C1420 C1419 1.523 . S
C1421 C1405 1.429 . S
C1421 C1417 1.429 . S
C1421 C1422 1.523 . S
C1422 C1406 1.368 . S
C1422 C1418 1.368 . S
C1422 C1421 1.523 . S
H1423 C1398 0.950 . S
H1424 C1400 0.950 . S
H1425 C1401 0.949 . S
H1426 C1403 0.950 . S
H1427 C1405 0.950 . S
C709 C180 1.302 . S
C714 C3 1.302 . S
C739 C62 1.302 . S
C744 C239 1.302 . S
C769 C298 1.302 . S
C774 C121 1.302 . S
C799 C357 1.302 . S
C804 C534 1.302 . S
C829 C593 1.302 . S
C834 C416 1.302 . S
C859 C475 1.302 . S
C864 C652 1.302 . S
C889 C477 1.674 . S
C894 C5 1.674 . S
C919 C64 1.674 . S
C924 C536 1.674 . S
C949 C123 1.674 . S
C954 C595 1.674 . S
C979 C182 1.674 . S
C984 C654 1.674 . S
C1009 C359 1.674 . S
C1014 C241 1.674 . S
C1039 C418 1.674 . S
C1044 C300 1.674 . S
C1069 C446 1.597 . S
C1074 C33 1.597 . S
C1099 C92 1.597 . S
C1104 C505 1.597 . S
C1129 C151 1.597 . S
C1134 C564 1.597 . S
C1159 C210 1.597 . S
C1164 C623 1.597 . S
C1189 C682 1.597 . S
C1194 C269 1.597 . S
C1219 C328 1.597 . S
C1224 C387 1.597 . S
C1249 C642 1.479 1_455 S
C1254 C52 1.479 . S
C1279 C701 1.480 1_545 S
C1284 C111 1.480 1_655 S
C1309 C406 1.479 . S
C1314 C170 1.479 1_565 S
C1339 C229 1.479 . S
C1344 C465 1.479 1_655 S
C1369 C288 1.480 1_455 S
C1374 C524 1.480 1_565 S
C1399 C347 1.479 1_545 S
C1404 C583 1.479 . S
