# Generated by pormake.
# Topology uoi, (4)-cn, num edge types: 1
# Building blocks:
#     Node 0, Type 0, BuildingBlock: NAHDIM_clean_sbu_0, # of connection points: 4
#     Node 1, Type 0, BuildingBlock: NAHDIM_clean_sbu_0, # of connection points: 4
#     Node 2, Type 0, BuildingBlock: NAHDIM_clean_sbu_0, # of connection points: 4
#     Node 3, Type 0, BuildingBlock: NAHDIM_clean_sbu_0, # of connection points: 4
#     Node 4, Type 0, BuildingBlock: NAHDIM_clean_sbu_0, # of connection points: 4
#     Node 5, Type 0, BuildingBlock: NAHDIM_clean_sbu_0, # of connection points: 4
#     Node 6, Type 0, BuildingBlock: NAHDIM_clean_sbu_0, # of connection points: 4
#     Node 7, Type 0, BuildingBlock: NAHDIM_clean_sbu_0, # of connection points: 4
#     Node 8, Type 0, BuildingBlock: NAHDIM_clean_sbu_0, # of connection points: 4
#     Node 9, Type 0, BuildingBlock: NAHDIM_clean_sbu_0, # of connection points: 4
#     Node 10, Type 0, BuildingBlock: NAHDIM_clean_sbu_0, # of connection points: 4
#     Node 11, Type 0, BuildingBlock: NAHDIM_clean_sbu_0, # of connection points: 4
#     Node 12, Type 0, BuildingBlock: NAHDIM_clean_sbu_0, # of connection points: 4
#     Node 13, Type 0, BuildingBlock: NAHDIM_clean_sbu_0, # of connection points: 4
#     Node 14, Type 0, BuildingBlock: NAHDIM_clean_sbu_0, # of connection points: 4
#     Node 15, Type 0, BuildingBlock: NAHDIM_clean_sbu_0, # of connection points: 4
#     Node 16, Type 0, BuildingBlock: NAHDIM_clean_sbu_0, # of connection points: 4
#     Node 17, Type 0, BuildingBlock: NAHDIM_clean_sbu_0, # of connection points: 4
#     Node 18, Type 0, BuildingBlock: NAHDIM_clean_sbu_0, # of connection points: 4
#     Node 19, Type 0, BuildingBlock: NAHDIM_clean_sbu_0, # of connection points: 4
#     Node 20, Type 0, BuildingBlock: NAHDIM_clean_sbu_0, # of connection points: 4
#     Node 21, Type 0, BuildingBlock: NAHDIM_clean_sbu_0, # of connection points: 4
#     Node 22, Type 0, BuildingBlock: NAHDIM_clean_sbu_0, # of connection points: 4
#     Node 23, Type 0, BuildingBlock: NAHDIM_clean_sbu_0, # of connection points: 4
#     Node 24, Type 0, BuildingBlock: NAHDIM_clean_sbu_0, # of connection points: 4
#     Node 25, Type 0, BuildingBlock: NAHDIM_clean_sbu_0, # of connection points: 4
#     Node 26, Type 0, BuildingBlock: NAHDIM_clean_sbu_0, # of connection points: 4
#     Node 27, Type 0, BuildingBlock: NAHDIM_clean_sbu_0, # of connection points: 4
#     Node 28, Type 0, BuildingBlock: NAHDIM_clean_sbu_0, # of connection points: 4
#     Node 29, Type 0, BuildingBlock: NAHDIM_clean_sbu_0, # of connection points: 4
#     Node 30, Type 0, BuildingBlock: NAHDIM_clean_sbu_0, # of connection points: 4
#     Node 31, Type 0, BuildingBlock: NAHDIM_clean_sbu_0, # of connection points: 4
#     Edge 32, Type (0, 0), BuildingBlock: UVAHIK_clean_linker_0, # of connection points: 2
#     Edge 33, Type (0, 0), BuildingBlock: UVAHIK_clean_linker_0, # of connection points: 2
#     Edge 34, Type (0, 0), BuildingBlock: UVAHIK_clean_linker_0, # of connection points: 2
#     Edge 35, Type (0, 0), BuildingBlock: UVAHIK_clean_linker_0, # of connection points: 2
#     Edge 36, Type (0, 0), BuildingBlock: UVAHIK_clean_linker_0, # of connection points: 2
#     Edge 37, Type (0, 0), BuildingBlock: UVAHIK_clean_linker_0, # of connection points: 2
#     Edge 38, Type (0, 0), BuildingBlock: UVAHIK_clean_linker_0, # of connection points: 2
#     Edge 39, Type (0, 0), BuildingBlock: UVAHIK_clean_linker_0, # of connection points: 2
#     Edge 40, Type (0, 0), BuildingBlock: UVAHIK_clean_linker_0, # of connection points: 2
#     Edge 41, Type (0, 0), BuildingBlock: UVAHIK_clean_linker_0, # of connection points: 2
#     Edge 42, Type (0, 0), BuildingBlock: UVAHIK_clean_linker_0, # of connection points: 2
#     Edge 43, Type (0, 0), BuildingBlock: UVAHIK_clean_linker_0, # of connection points: 2
#     Edge 44, Type (0, 0), BuildingBlock: UVAHIK_clean_linker_0, # of connection points: 2
#     Edge 45, Type (0, 0), BuildingBlock: UVAHIK_clean_linker_0, # of connection points: 2
#     Edge 46, Type (0, 0), BuildingBlock: UVAHIK_clean_linker_0, # of connection points: 2
#     Edge 47, Type (0, 0), BuildingBlock: UVAHIK_clean_linker_0, # of connection points: 2
#     Edge 48, Type (0, 0), BuildingBlock: UVAHIK_clean_linker_0, # of connection points: 2
#     Edge 49, Type (0, 0), BuildingBlock: UVAHIK_clean_linker_0, # of connection points: 2
#     Edge 50, Type (0, 0), BuildingBlock: UVAHIK_clean_linker_0, # of connection points: 2
#     Edge 51, Type (0, 0), BuildingBlock: UVAHIK_clean_linker_0, # of connection points: 2
#     Edge 52, Type (0, 0), BuildingBlock: UVAHIK_clean_linker_0, # of connection points: 2
#     Edge 53, Type (0, 0), BuildingBlock: UVAHIK_clean_linker_0, # of connection points: 2
#     Edge 54, Type (0, 0), BuildingBlock: UVAHIK_clean_linker_0, # of connection points: 2
#     Edge 55, Type (0, 0), BuildingBlock: UVAHIK_clean_linker_0, # of connection points: 2
#     Edge 56, Type (0, 0), BuildingBlock: UVAHIK_clean_linker_0, # of connection points: 2
#     Edge 57, Type (0, 0), BuildingBlock: UVAHIK_clean_linker_0, # of connection points: 2
#     Edge 58, Type (0, 0), BuildingBlock: UVAHIK_clean_linker_0, # of connection points: 2
#     Edge 59, Type (0, 0), BuildingBlock: UVAHIK_clean_linker_0, # of connection points: 2
#     Edge 60, Type (0, 0), BuildingBlock: UVAHIK_clean_linker_0, # of connection points: 2
#     Edge 61, Type (0, 0), BuildingBlock: UVAHIK_clean_linker_0, # of connection points: 2
#     Edge 62, Type (0, 0), BuildingBlock: UVAHIK_clean_linker_0, # of connection points: 2
#     Edge 63, Type (0, 0), BuildingBlock: UVAHIK_clean_linker_0, # of connection points: 2
#     Edge 64, Type (0, 0), BuildingBlock: UVAHIK_clean_linker_0, # of connection points: 2
#     Edge 65, Type (0, 0), BuildingBlock: UVAHIK_clean_linker_0, # of connection points: 2
#     Edge 66, Type (0, 0), BuildingBlock: UVAHIK_clean_linker_0, # of connection points: 2
#     Edge 67, Type (0, 0), BuildingBlock: UVAHIK_clean_linker_0, # of connection points: 2
#     Edge 68, Type (0, 0), BuildingBlock: UVAHIK_clean_linker_0, # of connection points: 2
#     Edge 69, Type (0, 0), BuildingBlock: UVAHIK_clean_linker_0, # of connection points: 2
#     Edge 70, Type (0, 0), BuildingBlock: UVAHIK_clean_linker_0, # of connection points: 2
#     Edge 71, Type (0, 0), BuildingBlock: UVAHIK_clean_linker_0, # of connection points: 2
#     Edge 72, Type (0, 0), BuildingBlock: UVAHIK_clean_linker_0, # of connection points: 2
#     Edge 73, Type (0, 0), BuildingBlock: UVAHIK_clean_linker_0, # of connection points: 2
#     Edge 74, Type (0, 0), BuildingBlock: UVAHIK_clean_linker_0, # of connection points: 2
#     Edge 75, Type (0, 0), BuildingBlock: UVAHIK_clean_linker_0, # of connection points: 2
#     Edge 76, Type (0, 0), BuildingBlock: UVAHIK_clean_linker_0, # of connection points: 2
#     Edge 77, Type (0, 0), BuildingBlock: UVAHIK_clean_linker_0, # of connection points: 2
#     Edge 78, Type (0, 0), BuildingBlock: UVAHIK_clean_linker_0, # of connection points: 2
#     Edge 79, Type (0, 0), BuildingBlock: UVAHIK_clean_linker_0, # of connection points: 2
#     Edge 80, Type (0, 0), BuildingBlock: UVAHIK_clean_linker_0, # of connection points: 2
#     Edge 81, Type (0, 0), BuildingBlock: UVAHIK_clean_linker_0, # of connection points: 2
#     Edge 82, Type (0, 0), BuildingBlock: UVAHIK_clean_linker_0, # of connection points: 2
#     Edge 83, Type (0, 0), BuildingBlock: UVAHIK_clean_linker_0, # of connection points: 2
#     Edge 84, Type (0, 0), BuildingBlock: UVAHIK_clean_linker_0, # of connection points: 2
#     Edge 85, Type (0, 0), BuildingBlock: UVAHIK_clean_linker_0, # of connection points: 2
#     Edge 86, Type (0, 0), BuildingBlock: UVAHIK_clean_linker_0, # of connection points: 2
#     Edge 87, Type (0, 0), BuildingBlock: UVAHIK_clean_linker_0, # of connection points: 2
#     Edge 88, Type (0, 0), BuildingBlock: UVAHIK_clean_linker_0, # of connection points: 2
#     Edge 89, Type (0, 0), BuildingBlock: UVAHIK_clean_linker_0, # of connection points: 2
#     Edge 90, Type (0, 0), BuildingBlock: UVAHIK_clean_linker_0, # of connection points: 2
#     Edge 91, Type (0, 0), BuildingBlock: UVAHIK_clean_linker_0, # of connection points: 2
#     Edge 92, Type (0, 0), BuildingBlock: UVAHIK_clean_linker_0, # of connection points: 2
#     Edge 93, Type (0, 0), BuildingBlock: UVAHIK_clean_linker_0, # of connection points: 2
#     Edge 94, Type (0, 0), BuildingBlock: UVAHIK_clean_linker_0, # of connection points: 2
#     Edge 95, Type (0, 0), BuildingBlock: UVAHIK_clean_linker_0, # of connection points: 2
# Relax obj value: 0.317
# Max RMSD: 0.189
# Mean RMSD: 0.189
data_MOF--net-uoi--node1-NAHDIM_clean_sbu_0--edge1-UVAHIK_clean_linker_0
_symmetry_space_group_name_H-M    P1
_symmetry_Int_Tables_number       1
_symmetry_cell_setting            triclinic
loop_
_symmetry_equiv_pos_as_xyz
'x, y, z'
_cell_length_a     102.79893
_cell_length_b     102.82247
_cell_length_c     24.428507
_cell_angle_alpha  89.996621
_cell_angle_beta   90.002747
_cell_angle_gamma 89.996296
loop_
_atom_site_label
_atom_site_type_symbol
_atom_site_fract_x
_atom_site_fract_y
_atom_site_fract_z
_atom_type_partial_charge
C0 C 0.15297 0.16326 0.34502 0.0
O1 O 0.16571 0.16379 0.34732 0.0
O2 O 0.17362 0.18174 0.43564 0.0
Zn3 Zn 0.15474 0.18522 0.41902 0.0
O4 O 0.15325 0.20188 0.37682 0.0
C5 C 0.15012 0.18468 0.53572 0.0
O6 O 0.15984 0.17638 0.5357 0.0
O7 O 0.1463 0.17102 0.3743 0.0
C8 C 0.15706 0.21244 0.39861 0.0
O9 O 0.16249 0.21209 0.4473 0.0
C10 C 0.18286 0.18457 0.40323 0.0
O11 O 0.18017 0.18945 0.35483 0.0
O12 O 0.14563 0.18867 0.49025 0.0
C13 C 0.08183 0.9029 0.57718 0.0
O14 O 0.0753 0.91357 0.56621 0.0
O15 O 0.06858 0.92401 0.68129 0.0
Zn16 Zn 0.06559 0.90482 0.66911 0.0
O17 O 0.04854 0.90188 0.63067 0.0
C18 C 0.0676 0.90172 0.78635 0.0
O19 O 0.07517 0.91197 0.78262 0.0
O20 O 0.07972 0.89709 0.62227 0.0
C21 C 0.03787 0.90401 0.65541 0.0
O22 O 0.03813 0.90861 0.70558 0.0
C23 C 0.06182 0.93289 0.65884 0.0
O24 O 0.05277 0.92966 0.62341 0.0
O25 O 0.06361 0.8963 0.7427 0.0
C26 C 0.34724 0.84363 0.83655 0.0
O27 O 0.33464 0.845 0.84326 0.0
O28 O 0.32507 0.82558 0.92277 0.0
Zn29 Zn 0.34366 0.82089 0.90577 0.0
O30 O 0.344 0.80434 0.86228 0.0
C31 C 0.34794 0.81862 0.02268 0.0
O32 O 0.3382 0.82684 0.02638 0.0
O33 O 0.35313 0.83454 0.86174 0.0
C34 C 0.33977 0.79395 0.88414 0.0
O35 O 0.33444 0.79452 0.93299 0.0
C36 C 0.31583 0.82397 0.88894 0.0
O37 O 0.31843 0.81969 0.83946 0.0
O38 O 0.35266 0.81607 0.97583 0.0
C39 C 0.41078 0.09198 0.08227 0.0
O40 O 0.41492 0.08006 0.07379 0.0
O41 O 0.42668 0.07113 0.17938 0.0
Zn42 Zn 0.4299 0.09023 0.16607 0.0
O43 O 0.44655 0.09272 0.12422 0.0
C44 C 0.42902 0.09382 0.28347 0.0
O45 O 0.42124 0.08369 0.28186 0.0
O46 O 0.41545 0.09841 0.12217 0.0
C47 C 0.45739 0.08985 0.14619 0.0
O48 O 0.4575 0.0847 0.19542 0.0
C49 C 0.4316 0.06218 0.15012 0.0
O50 O 0.43882 0.06532 0.10774 0.0
O51 O 0.43285 0.09885 0.23878 0.0
C52 C 0.15268 0.83945 0.14615 0.0
O53 O 0.16545 0.83977 0.14495 0.0
O54 O 0.17464 0.82302 0.053 0.0
Zn55 Zn 0.15654 0.81746 0.07445 0.0
O56 O 0.15746 0.80136 0.12071 0.0
C57 C 0.15066 0.81453 0.95864 0.0
O58 O 0.15931 0.8238 0.9517 0.0
O59 O 0.14672 0.83113 0.11697 0.0
C60 C 0.16207 0.79106 0.09951 0.0
O61 O 0.16697 0.79156 0.04988 0.0
C62 C 0.18448 0.82122 0.08354 0.0
O63 O 0.18285 0.81614 0.13242 0.0
O64 O 0.14722 0.81147 0.00689 0.0
C65 C 0.41276 0.89606 0.36687 0.0
O66 O 0.40762 0.90475 0.33394 0.0
O67 O 0.43296 0.92025 0.29324 0.0
Zn68 Zn 0.43762 0.90176 0.31175 0.0
O69 O 0.4549 0.90173 0.34999 0.0
C70 C 0.43651 0.89634 0.19587 0.0
O71 O 0.42786 0.90575 0.1958 0.0
O72 O 0.42473 0.89319 0.36211 0.0
C73 C 0.45616 0.90484 0.40001 0.0
O74 O 0.44587 0.90849 0.42792 0.0
C75 C 0.42851 0.9289 0.32531 0.0
O76 O 0.42614 0.92594 0.37667 0.0
O77 O 0.44078 0.89215 0.24142 0.0
C78 C 0.34457 0.16021 0.65277 0.0
O79 O 0.33209 0.16274 0.65673 0.0
O80 O 0.32459 0.17923 0.56131 0.0
Zn81 Zn 0.34356 0.1819 0.57883 0.0
O82 O 0.3458 0.19778 0.62562 0.0
C83 C 0.34839 0.18171 0.46259 0.0
O84 O 0.33901 0.17304 0.46242 0.0
O85 O 0.35145 0.16675 0.61941 0.0
C86 C 0.34206 0.20886 0.60871 0.0
O87 O 0.33614 0.20973 0.56119 0.0
C88 C 0.31525 0.18265 0.5922 0.0
O89 O 0.31779 0.18778 0.64028 0.0
O90 O 0.35264 0.1859 0.50814 0.0
C91 C 0.0851 0.09549 0.91783 0.0
O92 O 0.07983 0.08424 0.93018 0.0
O93 O 0.06985 0.07346 0.82312 0.0
Zn94 Zn 0.06693 0.09281 0.8318 0.0
O95 O 0.05016 0.09631 0.87144 0.0
C96 C 0.06751 0.09432 0.71367 0.0
O97 O 0.07506 0.08406 0.71797 0.0
O98 O 0.08146 0.10127 0.87443 0.0
C99 C 0.03965 0.09076 0.85707 0.0
O100 O 0.03984 0.08211 0.81749 0.0
C101 C 0.06485 0.06468 0.85311 0.0
O102 O 0.05766 0.06806 0.89526 0.0
O103 O 0.06414 0.10034 0.75686 0.0
C104 C 0.84781 0.83959 0.65195 0.0
O105 O 0.83542 0.84139 0.64112 0.0
O106 O 0.82583 0.82013 0.57221 0.0
Zn107 Zn 0.84467 0.81609 0.58661 0.0
O108 O 0.84604 0.7992 0.62749 0.0
C109 C 0.84808 0.8172 0.46985 0.0
O110 O 0.83883 0.82597 0.47326 0.0
O111 O 0.85368 0.82991 0.63104 0.0
C112 C 0.84204 0.78879 0.60507 0.0
O113 O 0.83648 0.78942 0.5567 0.0
C114 C 0.8165 0.81826 0.60534 0.0
O115 O 0.81897 0.8139 0.65481 0.0
O116 O 0.85305 0.81276 0.51368 0.0
C117 C 0.90943 0.09414 0.40445 0.0
O118 O 0.90704 0.08196 0.39173 0.0
O119 O 0.92748 0.07264 0.3144 0.0
Zn120 Zn 0.93285 0.09057 0.33851 0.0
O121 O 0.94913 0.08947 0.3836 0.0
C122 C 0.93464 0.0986 0.22397 0.0
O123 O 0.92509 0.09036 0.21536 0.0
O124 O 0.91936 0.09974 0.38419 0.0
C125 C 0.95944 0.08484 0.36256 0.0
O126 O 0.95898 0.07992 0.31296 0.0
C127 C 0.92853 0.06283 0.34572 0.0
O128 O 0.93262 0.06451 0.39618 0.0
O129 O 0.93837 0.10079 0.27267 0.0
C130 C 0.65328 0.1554 0.14683 0.0
O131 O 0.66604 0.15502 0.14479 0.0
O132 O 0.67548 0.17352 0.06217 0.0
Zn133 Zn 0.65688 0.17821 0.07926 0.0
O134 O 0.65629 0.19394 0.12774 0.0
C135 C 0.65279 0.18072 0.9626 0.0
O136 O 0.66214 0.17204 0.95969 0.0
O137 O 0.64726 0.16397 0.1191 0.0
C138 C 0.66031 0.20493 0.11095 0.0
O139 O 0.66566 0.20579 0.06225 0.0
C140 C 0.68498 0.17574 0.09406 0.0
O141 O 0.68276 0.18085 0.14247 0.0
O142 O 0.64827 0.18381 0.00926 0.0
C143 C 0.58773 0.90684 0.92974 0.0
O144 O 0.58107 0.91731 0.94247 0.0
O145 O 0.57583 0.92856 0.81985 0.0
Zn146 Zn 0.57195 0.90973 0.83645 0.0
O147 O 0.55499 0.90817 0.87689 0.0
C148 C 0.57058 0.90575 0.7196 0.0
O149 O 0.57688 0.91685 0.71799 0.0
O150 O 0.58589 0.9016 0.88324 0.0
C151 C 0.54443 0.9112 0.85305 0.0
O152 O 0.54488 0.91614 0.80348 0.0
C153 C 0.57108 0.93809 0.84627 0.0
O154 O 0.5636 0.93584 0.88881 0.0
O155 O 0.56881 0.90024 0.7656 0.0
C156 C 0.84958 0.15608 0.86733 0.0
O157 O 0.83798 0.15272 0.88495 0.0
O158 O 0.82617 0.17558 0.94194 0.0
Zn159 Zn 0.84446 0.18079 0.92274 0.0
O160 O 0.84399 0.19649 0.87419 0.0
C161 C 0.84963 0.18417 0.0387 0.0
O162 O 0.84086 0.175 0.04514 0.0
O163 O 0.8543 0.167 0.88146 0.0
C164 C 0.83914 0.20711 0.89123 0.0
O165 O 0.83359 0.20745 0.93967 0.0
C166 C 0.81708 0.17494 0.90683 0.0
O167 O 0.81972 0.17715 0.85503 0.0
O168 O 0.85341 0.18705 0.99071 0.0
C169 C 0.58633 0.10147 0.60936 0.0
O170 O 0.59082 0.09173 0.63861 0.0
O171 O 0.56627 0.07814 0.68341 0.0
Zn172 Zn 0.56151 0.09661 0.66526 0.0
O173 O 0.54456 0.09669 0.62478 0.0
C174 C 0.56215 0.10192 0.78128 0.0
O175 O 0.57087 0.09258 0.78167 0.0
O176 O 0.57469 0.10529 0.61656 0.0
C177 C 0.53432 0.09222 0.64701 0.0
O178 O 0.53509 0.08692 0.69585 0.0
C179 C 0.56872 0.06926 0.64877 0.0
O180 O 0.56858 0.07205 0.59628 0.0
O181 O 0.55793 0.10607 0.7356 0.0
C182 C 0.65386 0.83777 0.35858 0.0
O183 O 0.66642 0.83893 0.36702 0.0
O184 O 0.67529 0.81854 0.44288 0.0
Zn185 Zn 0.6568 0.81416 0.42288 0.0
O186 O 0.65658 0.79797 0.37698 0.0
C187 C 0.65122 0.81232 0.53902 0.0
O188 O 0.6603 0.82124 0.54388 0.0
O189 O 0.64774 0.82838 0.38059 0.0
C190 C 0.66097 0.7875 0.39754 0.0
O191 O 0.66626 0.78781 0.44651 0.0
C192 C 0.68475 0.81717 0.40995 0.0
O193 O 0.68246 0.81335 0.35953 0.0
O194 O 0.64744 0.809 0.49153 0.0
C195 C 0.91119 0.89965 0.11026 0.0
O196 O 0.90711 0.91038 0.13392 0.0
O197 O 0.93073 0.92262 0.18692 0.0
Zn198 Zn 0.93554 0.9041 0.17005 0.0
O199 O 0.95253 0.90373 0.12973 0.0
C200 C 0.93448 0.89868 0.28632 0.0
O201 O 0.92594 0.90818 0.28689 0.0
O202 O 0.92239 0.89522 0.12195 0.0
C203 C 0.96285 0.90824 0.15112 0.0
O204 O 0.96222 0.91389 0.19931 0.0
C205 C 0.93011 0.93157 0.15117 0.0
O206 O 0.93232 0.92873 0.09957 0.0
O207 O 0.93889 0.89471 0.24069 0.0
C208 C 0.64983 0.65442 0.86941 0.0
O209 O 0.6614 0.65088 0.88669 0.0
O210 O 0.67349 0.67303 0.94356 0.0
Zn211 Zn 0.65482 0.67825 0.9312 0.0
O212 O 0.65374 0.69533 0.89132 0.0
C213 C 0.65184 0.67861 0.04911 0.0
O214 O 0.66177 0.67058 0.04826 0.0
O215 O 0.64505 0.66515 0.88572 0.0
C216 C 0.66237 0.70417 0.89194 0.0
O217 O 0.67337 0.7022 0.91802 0.0
C218 C 0.68239 0.67308 0.90746 0.0
O219 O 0.67952 0.67646 0.857 0.0
O220 O 0.64659 0.68195 0.00413 0.0
C221 C 0.59087 0.40202 0.10949 0.0
O222 O 0.59343 0.41413 0.12281 0.0
O223 O 0.57247 0.42413 0.19418 0.0
Zn224 Zn 0.5676 0.40565 0.17632 0.0
O225 O 0.55091 0.40547 0.13376 0.0
C226 C 0.5676 0.40065 0.2927 0.0
O227 O 0.57643 0.40988 0.29347 0.0
O228 O 0.58097 0.39645 0.13005 0.0
C229 C 0.54037 0.40944 0.15519 0.0
O230 O 0.54061 0.41438 0.20478 0.0
C231 C 0.57098 0.43363 0.16154 0.0
O232 O 0.56661 0.43145 0.11184 0.0
O233 O 0.5635 0.39649 0.24685 0.0
C234 C 0.84494 0.34336 0.36309 0.0
O235 O 0.83254 0.34514 0.37337 0.0
O236 O 0.8228 0.32373 0.44247 0.0
Zn237 Zn 0.84162 0.31959 0.42692 0.0
O238 O 0.84323 0.30305 0.38355 0.0
C239 C 0.84507 0.31766 0.54428 0.0
O240 O 0.83466 0.32507 0.54599 0.0
O241 O 0.85077 0.33366 0.38408 0.0
C242 C 0.83514 0.29371 0.38531 0.0
O243 O 0.82448 0.29487 0.41456 0.0
C244 C 0.81346 0.32343 0.40844 0.0
O245 O 0.81583 0.32064 0.3569 0.0
O246 O 0.85037 0.31535 0.49828 0.0
C247 C 0.90999 0.60339 0.60563 0.0
O248 O 0.90474 0.59362 0.63232 0.0
O249 O 0.92894 0.57929 0.68572 0.0
Zn250 Zn 0.93419 0.59757 0.66631 0.0
O251 O 0.95148 0.59704 0.62828 0.0
C252 C 0.93364 0.60338 0.78226 0.0
O253 O 0.92497 0.59399 0.78388 0.0
O254 O 0.92165 0.60668 0.61594 0.0
C255 C 0.95267 0.59561 0.5769 0.0
O256 O 0.94222 0.59388 0.54683 0.0
C257 C 0.92612 0.57021 0.65255 0.0
O258 O 0.9259 0.5726 0.59974 0.0
O259 O 0.93774 0.6073 0.73605 0.0
C260 C 0.64932 0.3407 0.64193 0.0
O261 O 0.66099 0.34387 0.6247 0.0
O262 O 0.67235 0.32148 0.56565 0.0
Zn263 Zn 0.65392 0.31637 0.58317 0.0
O264 O 0.65409 0.30008 0.62842 0.0
C265 C 0.64979 0.3138 0.46664 0.0
O266 O 0.65963 0.32191 0.46352 0.0
O267 O 0.64434 0.32997 0.62673 0.0
C268 C 0.65831 0.28953 0.60791 0.0
O269 O 0.6632 0.28965 0.55822 0.0
C270 C 0.68155 0.32121 0.60031 0.0
O271 O 0.67901 0.31802 0.65129 0.0
O272 O 0.64494 0.31125 0.5133 0.0
C273 C 0.91239 0.40777 0.92543 0.0
O274 O 0.91922 0.41816 0.93761 0.0
O275 O 0.92524 0.42895 0.81729 0.0
Zn276 Zn 0.92864 0.41 0.83365 0.0
O277 O 0.94535 0.40799 0.87542 0.0
C278 C 0.9282 0.40542 0.71679 0.0
O279 O 0.92049 0.41561 0.71626 0.0
O280 O 0.91431 0.40223 0.87957 0.0
C281 C 0.95616 0.41053 0.85251 0.0
O282 O 0.9562 0.41516 0.80237 0.0
C283 C 0.9302 0.43825 0.84447 0.0
O284 O 0.93767 0.43564 0.8867 0.0
O285 O 0.93169 0.40068 0.76252 0.0
C286 C 0.85112 0.66178 0.12993 0.0
O287 O 0.84864 0.65505 0.08544 0.0
O288 O 0.82287 0.67972 0.05238 0.0
Zn289 Zn 0.84114 0.68508 0.07148 0.0
O290 O 0.84093 0.70335 0.10028 0.0
C291 C 0.84761 0.68202 0.957 0.0
O292 O 0.83738 0.67437 0.95652 0.0
O293 O 0.84888 0.67393 0.13065 0.0
C294 C 0.83388 0.70714 0.13984 0.0
O295 O 0.82592 0.69885 0.16338 0.0
C296 C 0.81508 0.67371 0.08378 0.0
O297 O 0.81889 0.67044 0.13324 0.0
O298 O 0.85178 0.68627 0.00262 0.0
C299 C 0.59047 0.59715 0.3947 0.0
O300 O 0.59361 0.5855 0.37706 0.0
O301 O 0.57095 0.57477 0.31516 0.0
Zn302 Zn 0.56652 0.59342 0.33155 0.0
O303 O 0.54978 0.59413 0.37358 0.0
C304 C 0.56655 0.59802 0.2148 0.0
O305 O 0.57485 0.58831 0.21426 0.0
O306 O 0.58 0.60239 0.37798 0.0
C307 C 0.53918 0.59024 0.35236 0.0
O308 O 0.53937 0.58501 0.30328 0.0
C309 C 0.57071 0.56568 0.35033 0.0
O310 O 0.56791 0.56842 0.40153 0.0
O311 O 0.56276 0.60253 0.26054 0.0
C312 C 0.34813 0.32822 0.18894 0.0
O313 O 0.34162 0.31814 0.20742 0.0
O314 O 0.32355 0.31853 0.06901 0.0
Zn315 Zn 0.34225 0.3153 0.08951 0.0
O316 O 0.34353 0.29829 0.12941 0.0
C317 C 0.34781 0.31514 0.97351 0.0
O318 O 0.33727 0.32235 0.97062 0.0
O319 O 0.34969 0.32948 0.13753 0.0
C320 C 0.34009 0.2878 0.10601 0.0
O321 O 0.33507 0.28832 0.0566 0.0
C322 C 0.31438 0.32191 0.10083 0.0
O323 O 0.31684 0.32393 0.15289 0.0
O324 O 0.35242 0.31233 0.02031 0.0
C325 C 0.40945 0.60027 0.89468 0.0
O326 O 0.40707 0.58812 0.88157 0.0
O327 O 0.42898 0.57792 0.81566 0.0
Zn328 Zn 0.43322 0.59667 0.83083 0.0
O329 O 0.44986 0.59754 0.87355 0.0
C330 C 0.43322 0.60063 0.71381 0.0
O331 O 0.42461 0.59119 0.71447 0.0
O332 O 0.41947 0.60585 0.87524 0.0
C333 C 0.46035 0.59327 0.85264 0.0
O334 O 0.45999 0.58778 0.8041 0.0
C335 C 0.42964 0.56887 0.85093 0.0
O336 O 0.43267 0.57171 0.9018 0.0
O337 O 0.43719 0.60531 0.75898 0.0
C338 C 0.15606 0.6574 0.62791 0.0
O339 O 0.16876 0.65674 0.62299 0.0
O340 O 0.17796 0.67663 0.54725 0.0
Zn341 Zn 0.15905 0.68065 0.56157 0.0
O342 O 0.15708 0.69706 0.6056 0.0
C343 C 0.15561 0.68141 0.44402 0.0
O344 O 0.16538 0.67317 0.44385 0.0
O345 O 0.14989 0.66632 0.60285 0.0
C346 C 0.16468 0.70677 0.60185 0.0
O347 O 0.17493 0.70611 0.56989 0.0
C348 C 0.18723 0.67789 0.58126 0.0
O349 O 0.18469 0.68177 0.63139 0.0
O350 O 0.15067 0.68482 0.4895 0.0
C351 C 0.08154 0.40238 0.40999 0.0
O352 O 0.07882 0.4148 0.4148 0.0
O353 O 0.06524 0.42268 0.31007 0.0
Zn354 Zn 0.0612 0.40411 0.33032 0.0
O355 O 0.04476 0.40347 0.37459 0.0
C356 C 0.06132 0.39844 0.21459 0.0
O357 O 0.07033 0.4075 0.21329 0.0
O358 O 0.07555 0.39569 0.3742 0.0
C359 C 0.0342 0.40735 0.35302 0.0
O360 O 0.03445 0.41226 0.30336 0.0
C361 C 0.06205 0.43249 0.33869 0.0
O362 O 0.05625 0.43074 0.38604 0.0
O363 O 0.05704 0.39462 0.26066 0.0
C364 C 0.353 0.66088 0.36794 0.0
O365 O 0.34302 0.65604 0.39469 0.0
O366 O 0.32853 0.67993 0.43987 0.0
Zn367 Zn 0.34701 0.68537 0.42476 0.0
O368 O 0.34732 0.70253 0.38497 0.0
C369 C 0.35117 0.68502 0.54186 0.0
O370 O 0.34163 0.67653 0.54145 0.0
O371 O 0.35649 0.67254 0.37701 0.0
C372 C 0.33757 0.70988 0.37688 0.0
O373 O 0.32602 0.70629 0.39409 0.0
C374 C 0.32008 0.6769 0.4041 0.0
O375 O 0.32334 0.67691 0.35208 0.0
O376 O 0.35581 0.68896 0.49656 0.0
C377 C 0.0869 0.59272 0.05965 0.0
O378 O 0.08149 0.5814 0.04958 0.0
O379 O 0.07129 0.57242 0.16242 0.0
Zn380 Zn 0.0687 0.59152 0.14678 0.0
O381 O 0.05198 0.59405 0.10554 0.0
C382 C 0.06784 0.59505 0.26376 0.0
O383 O 0.07414 0.58393 0.2639 0.0
O384 O 0.08332 0.59904 0.10176 0.0
C385 C 0.04132 0.59116 0.12901 0.0
O386 O 0.04163 0.586 0.1782 0.0
C387 C 0.06659 0.56326 0.13368 0.0
O388 O 0.06004 0.56602 0.089 0.0
O389 O 0.06588 0.60078 0.2184 0.0
C390 C 0.15189 0.33638 0.83526 0.0
O391 O 0.16399 0.33282 0.82684 0.0
O392 O 0.17324 0.32125 0.93453 0.0
Zn393 Zn 0.15435 0.3173 0.91931 0.0
O394 O 0.15283 0.30058 0.87733 0.0
C395 C 0.15011 0.31788 0.03635 0.0
O396 O 0.15982 0.32619 0.03581 0.0
O397 O 0.14567 0.3314 0.87506 0.0
C398 C 0.15631 0.28996 0.89959 0.0
O399 O 0.16144 0.29022 0.94885 0.0
C400 C 0.18253 0.3169 0.90552 0.0
O401 O 0.1799 0.30995 0.86179 0.0
O402 O 0.14551 0.31386 0.99113 0.0
C403 C 0.4197 0.40376 0.58041 0.0
O404 O 0.42777 0.41281 0.56344 0.0
O405 O 0.43012 0.42721 0.69239 0.0
Zn406 Zn 0.43442 0.40853 0.67508 0.0
O407 O 0.4511 0.40747 0.63254 0.0
C408 C 0.43433 0.40385 0.7918 0.0
O409 O 0.42597 0.41351 0.79237 0.0
O410 O 0.42031 0.40008 0.63006 0.0
C411 C 0.4618 0.41088 0.65431 0.0
O412 O 0.46173 0.41581 0.70393 0.0
C413 C 0.43341 0.43687 0.66308 0.0
O414 O 0.43968 0.43488 0.61699 0.0
O415 O 0.43814 0.39936 0.74604 0.0
C416 C 0.29121 0.18276 0.60926 0.0
C417 C 0.30169 0.18142 0.57277 0.0
C418 C 0.2784 0.18202 0.59024 0.0
C419 C 0.25883 0.18768 0.46844 0.0
H420 H 0.23291 0.16627 0.54027 0.0
C421 C 0.20672 0.18341 0.38303 0.0
C422 C 0.1965 0.1829 0.42106 0.0
C423 C 0.21963 0.18229 0.40042 0.0
C424 C 0.23997 0.17244 0.52012 0.0
H425 H 0.30698 0.17818 0.48781 0.0
H426 H 0.28461 0.17712 0.45465 0.0
H427 H 0.25526 0.16627 0.57388 0.0
H428 H 0.19176 0.18082 0.50714 0.0
H429 H 0.2142 0.17933 0.53767 0.0
H430 H 0.24358 0.19425 0.4159 0.0
C431 C 0.28632 0.17869 0.49791 0.0
C432 C 0.25278 0.17238 0.5393 0.0
C433 C 0.29911 0.17923 0.517 0.0
C434 C 0.19942 0.18115 0.47675 0.0
C435 C 0.21232 0.18021 0.49422 0.0
C436 C 0.24599 0.18789 0.44972 0.0
C437 C 0.27585 0.18013 0.5343 0.0
C438 C 0.26231 0.18001 0.51365 0.0
C439 C 0.22261 0.18082 0.45635 0.0
C440 C 0.23637 0.18029 0.47535 0.0
H441 H 0.2929 0.18443 0.65246 0.0
H442 H 0.27049 0.18325 0.61906 0.0
H443 H 0.26598 0.19377 0.44834 0.0
H444 H 0.20476 0.18465 0.33978 0.0
H445 H 0.22727 0.18255 0.36991 0.0
C446 C 0.07323 0.95011 0.71329 0.0
C447 C 0.06344 0.9466 0.67589 0.0
C448 C 0.07419 0.9629 0.73229 0.0
C449 C 0.05434 0.99209 0.75338 0.0
H450 H 0.08749 0.00974 0.76845 0.0
C451 C 0.05895 0.04121 0.86489 0.0
C452 C 0.06614 0.05084 0.83751 0.0
C453 C 0.05932 0.0283 0.84709 0.0
C454 C 0.07817 0.00493 0.76435 0.0
H455 H 0.04718 0.95383 0.62811 0.0
H456 H 0.04887 0.97613 0.66128 0.0
H457 H 0.08678 0.98772 0.73065 0.0
H458 H 0.07972 0.05439 0.77111 0.0
H459 H 0.08037 0.03186 0.74021 0.0
H460 H 0.0457 0.00931 0.78646 0.0
C461 C 0.05572 0.96896 0.67626 0.0
C462 C 0.07777 0.99231 0.74309 0.0
C463 C 0.05481 0.9562 0.657 0.0
C464 C 0.07405 0.04721 0.79309 0.0
C465 C 0.07448 0.03429 0.77551 0.0
C466 C 0.05474 0.00466 0.77495 0.0
C467 C 0.06532 0.97241 0.71456 0.0
C468 C 0.06583 0.98579 0.73713 0.0
C469 C 0.06696 0.02474 0.80177 0.0
C470 C 0.06665 0.01123 0.78051 0.0
H471 H 0.08003 0.94295 0.72866 0.0
H472 H 0.08163 0.96525 0.76208 0.0
H473 H 0.04501 0.98726 0.74988 0.0
H474 H 0.05279 0.04368 0.89932 0.0
H475 H 0.05355 0.02111 0.86857 0.0
C476 C 0.19971 0.82656 0.00683 0.0
C477 C 0.1977 0.82401 0.06274 0.0
C478 C 0.21229 0.82825 0.98634 0.0
C479 C 0.24589 0.83623 0.02499 0.0
H480 H 0.25527 0.81528 0.89906 0.0
C481 C 0.29923 0.82763 0.96218 0.0
C482 C 0.30223 0.82613 0.90642 0.0
C483 C 0.28632 0.82879 0.97932 0.0
C484 C 0.25279 0.82141 0.93356 0.0
H485 H 0.20726 0.82166 0.14128 0.0
H486 H 0.22923 0.82475 0.10545 0.0
H487 H 0.23298 0.815 0.93257 0.0
H488 H 0.29408 0.82515 0.82468 0.0
H489 H 0.27156 0.82756 0.85435 0.0
H490 H 0.26565 0.84272 0.02595 0.0
C491 C 0.22106 0.82542 0.07757 0.0
C492 C 0.24001 0.8212 0.95286 0.0
C493 C 0.20849 0.82358 0.098 0.0
C494 C 0.29207 0.82619 0.86799 0.0
C495 C 0.27915 0.82749 0.88508 0.0
C496 C 0.25865 0.83656 0.00532 0.0
C497 C 0.22309 0.82757 0.02141 0.0
C498 C 0.23647 0.82848 0.99915 0.0
C499 C 0.2761 0.82861 0.94105 0.0
C500 C 0.26232 0.82901 0.95977 0.0
H501 H 0.1916 0.82695 0.97856 0.0
H502 H 0.21357 0.83 0.94295 0.0
H503 H 0.24337 0.84205 0.0604 0.0
H504 H 0.30683 0.82755 0.99289 0.0
H505 H 0.28437 0.82941 0.02279 0.0
C506 C 0.43415 0.03842 0.13059 0.0
C507 C 0.42966 0.04838 0.16507 0.0
C508 C 0.43287 0.0254 0.14594 0.0
C509 C 0.41561 0.00338 0.24228 0.0
H510 H 0.44496 0.98072 0.21332 0.0
C511 C 0.42218 0.95224 0.33978 0.0
C512 C 0.42686 0.94237 0.30519 0.0
C513 C 0.42147 0.96511 0.32127 0.0
C514 C 0.43662 0.98689 0.22117 0.0
H515 H 0.42009 0.05248 0.24236 0.0
H516 H 0.4181 0.02979 0.26962 0.0
H517 H 0.4457 0.00327 0.18338 0.0
H518 H 0.43404 0.9382 0.22342 0.0
H519 H 0.43281 0.96056 0.19146 0.0
H520 H 0.40668 0.98694 0.28114 0.0
C521 C 0.42242 0.03201 0.23028 0.0
C522 C 0.43703 -0.00019 0.20387 0.0
C523 C 0.42363 0.04503 0.21478 0.0
C524 C 0.43047 0.94557 0.25133 0.0
C525 C 0.42983 0.9584 0.23301 0.0
C526 C 0.41524 0.99044 0.25991 0.0
C527 C 0.42714 0.02204 0.1963 0.0
C528 C 0.42652 0.00822 0.2141 0.0
C529 C 0.4255 0.96833 0.26799 0.0
C530 C 0.42574 0.98206 0.24938 0.0
H531 H 0.43875 0.04067 0.09183 0.0
H532 H 0.4364 0.01795 0.11831 0.0
H533 H 0.40728 0.00955 0.25026 0.0
H534 H 0.41928 0.95009 0.38143 0.0
H535 H 0.41815 0.97259 0.34921 0.0
C536 C 0.70862 0.81954 0.39202 0.0
C537 C 0.69823 0.81919 0.42927 0.0
C538 C 0.72142 0.82078 0.41068 0.0
C539 C 0.74114 0.82946 0.5335 0.0
H540 H 0.76754 0.80898 0.45992 0.0
C541 C 0.79245 0.81903 0.62301 0.0
C542 C 0.80295 0.82011 0.58646 0.0
C543 C 0.77964 0.82004 0.60401 0.0
C544 C 0.7603 0.81485 0.48055 0.0
H545 H 0.69308 0.82002 0.51534 0.0
H546 H 0.71535 0.82181 0.54794 0.0
H547 H 0.74529 0.80866 0.42604 0.0
H548 H 0.80825 0.82339 0.50149 0.0
H549 H 0.78595 0.82503 0.46857 0.0
H550 H 0.75622 0.83531 0.589 0.0
C551 C 0.71366 0.82143 0.50422 0.0
C552 C 0.74754 0.81473 0.46102 0.0
C553 C 0.70087 0.82032 0.48552 0.0
C554 C 0.80039 0.82248 0.53078 0.0
C555 C 0.78762 0.82336 0.5118 0.0
C556 C 0.7539 0.82947 0.55339 0.0
C557 C 0.72412 0.82155 0.46709 0.0
C558 C 0.73778 0.82202 0.48721 0.0
C559 C 0.77712 0.82201 0.54807 0.0
C560 C 0.7636 0.82217 0.52705 0.0
H561 H 0.70689 0.81879 0.34839 0.0
H562 H 0.72919 0.8211 0.38081 0.0
H563 H 0.73394 0.83536 0.55423 0.0
H564 H 0.7941 0.81723 0.66614 0.0
H565 H 0.77171 0.8189 0.63281 0.0
C566 C 0.92653 0.03876 0.3593 0.0
C567 C 0.92603 0.0496 0.32434 0.0
C568 C 0.92503 0.0262 0.33842 0.0
C569 C 0.92963 0.00759 0.21227 0.0
H570 H 0.90982 0.98101 0.28793 0.0
C571 C 0.9263 0.95512 0.12939 0.0
C572 C 0.92754 0.94513 0.16831 0.0
C573 C 0.92451 0.96801 0.14608 0.0
C574 C 0.91547 0.9883 0.26652 0.0
H575 H 0.92321 0.05577 0.24017 0.0
H576 H 0.92064 0.03382 0.20381 0.0
H577 H 0.9096 0.00332 0.32204 0.0
H578 H 0.92763 0.94083 0.2553 0.0
H579 H 0.92478 0.96324 0.28429 0.0
H580 H 0.93584 0.99257 0.15773 0.0
C581 C 0.92227 0.03506 0.24731 0.0
C582 C 0.91532 0.00107 0.28603 0.0
C583 C 0.92368 0.04763 0.26823 0.0
C584 C 0.92668 0.94828 0.22419 0.0
C585 C 0.92496 0.96114 0.24085 0.0
C586 C 0.92985 0.99481 0.19296 0.0
C587 C 0.92308 0.0242 0.28208 0.0
C588 C 0.92251 0.01083 0.25945 0.0
C589 C 0.92395 0.97119 0.20206 0.0
C590 C 0.92291 0.98497 0.22022 0.0
H591 H 0.9283 0.03995 0.40272 0.0
H592 H 0.92581 0.01801 0.36615 0.0
H593 H 0.9354 0.01487 0.19132 0.0
H594 H 0.92684 0.95301 0.08601 0.0
H595 H 0.92358 0.97548 0.11509 0.0
C596 C 0.79353 0.17081 0.88647 0.0
C597 C 0.80355 0.17257 0.92488 0.0
C598 C 0.78064 0.16938 0.90373 0.0
C599 C 0.76022 0.16272 0.0267 0.0
H600 H 0.73385 0.18111 0.94373 0.0
C601 C 0.70902 0.17488 0.11106 0.0
C602 C 0.69844 0.17332 0.07523 0.0
C603 C 0.72177 0.17332 0.09219 0.0
C604 C 0.74107 0.17578 0.96697 0.0
H605 H 0.80792 0.17396 0.0116 0.0
H606 H 0.78549 0.17179 0.04152 0.0
H607 H 0.75623 0.18099 0.91131 0.0
H608 H 0.69294 0.1686 0.99175 0.0
H609 H 0.71517 0.16595 0.95893 0.0
H610 H 0.74503 0.15788 0.08324 0.0
C611 C 0.78756 0.17125 0.99813 0.0
C612 C 0.75391 0.17567 0.94831 0.0
C613 C 0.80044 0.17258 0.98091 0.0
C614 C 0.70087 0.1699 0.02043 0.0
C615 C 0.7136 0.16844 0.00151 0.0
C616 C 0.74739 0.16292 0.0456 0.0
C617 C 0.77747 0.16977 0.95975 0.0
C618 C 0.76368 0.16922 0.97812 0.0
C619 C 0.72419 0.17026 0.03704 0.0
C620 C 0.7377 0.16953 0.01607 0.0
H621 H 0.79562 0.17067 0.84302 0.0
H622 H 0.77315 0.16802 0.87308 0.0
H623 H 0.76744 0.15746 0.05023 0.0
H624 H 0.70748 0.1775 0.15352 0.0
H625 H 0.72975 0.17488 0.1204 0.0
C626 C 0.56942 0.9622 0.85901 0.0
C627 C 0.5732 0.95154 0.82675 0.0
C628 C 0.57076 0.97488 0.83919 0.0
C629 C 0.57166 0.99322 0.7114 0.0
H630 H 0.58476 0.02124 0.80216 0.0
C631 C 0.57489 0.04601 0.63117 0.0
C632 C 0.57114 0.05583 0.66791 0.0
C633 C 0.57669 0.03323 0.64948 0.0
C634 C 0.58096 0.01355 0.77642 0.0
H635 H 0.58153 0.94583 0.74869 0.0
H636 H 0.58371 0.96798 0.71401 0.0
H637 H 0.58496 0.999 0.83691 0.0
H638 H 0.56644 0.05996 0.75279 0.0
H639 H 0.56923 0.03776 0.78425 0.0
H640 H 0.56722 0.00774 0.65163 0.0
C641 C 0.57973 0.96651 0.75458 0.0
C642 C 0.58112 0.00082 0.79633 0.0
C643 C 0.57853 0.95383 0.77461 0.0
C644 C 0.56938 0.05264 0.72338 0.0
C645 C 0.57108 0.0399 0.74155 0.0
C646 C 0.57138 0.00597 0.69167 0.0
C647 C 0.57576 0.97715 0.78651 0.0
C648 C 0.57635 0.99054 0.76424 0.0
C649 C 0.57469 0.03 0.70485 0.0
C650 C 0.57588 0.01633 0.7242 0.0
H651 H 0.5653 0.96076 0.89935 0.0
H652 H 0.56752 0.98291 0.8645 0.0
H653 H 0.56779 0.9855 0.686 0.0
H654 H 0.57639 0.04816 0.58824 0.0
H655 H 0.57965 0.0259 0.62021 0.0
C656 C 0.6988 0.66599 0.9769 0.0
C657 C 0.69598 0.67033 0.92363 0.0
C658 C 0.71166 0.66433 0.99388 0.0
C659 C 0.74563 0.66153 0.94365 0.0
H660 H 0.75414 0.67489 0.08776 0.0
C661 C 0.79795 0.67384 0.01106 0.0
C662 C 0.80164 0.67103 0.06521 0.0
C663 C 0.78512 0.67202 0.99396 0.0
C664 C 0.7519 0.67091 0.04778 0.0
H665 H 0.70446 0.67596 0.84588 0.0
H666 H 0.72694 0.67327 0.87579 0.0
H667 H 0.73162 0.67487 0.0571 0.0
H668 H 0.79482 0.66375 0.14346 0.0
H669 H 0.77237 0.66056 0.11348 0.0
H670 H 0.76602 0.65788 0.93402 0.0
C671 C 0.71919 0.67098 0.90425 0.0
C672 C 0.73898 0.6709 0.03016 0.0
C673 C 0.7063 0.67259 0.88716 0.0
C674 C 0.79228 0.66606 0.10154 0.0
C675 C 0.77941 0.66429 0.08446 0.0
C676 C 0.75857 0.66158 0.96125 0.0
C677 C 0.72202 0.66702 0.95809 0.0
C678 C 0.7357 0.66632 0.97768 0.0
C679 C 0.77567 0.66738 0.03062 0.0
C680 C 0.76186 0.6664 0.0133 0.0
H681 H 0.69107 0.66404 0.00591 0.0
H682 H 0.71349 0.66104 0.03529 0.0
H683 H 0.74341 0.65774 0.90334 0.0
H684 H 0.80492 0.67765 0.98194 0.0
H685 H 0.78252 0.67463 0.95242 0.0
C686 C 0.57382 0.542 0.37145 0.0
C687 C 0.5729 0.55208 0.33281 0.0
C688 C 0.57527 0.5291 0.3544 0.0
C689 C 0.58362 0.50872 0.23316 0.0
H690 H 0.56371 0.48246 0.31031 0.0
C691 C 0.57239 0.45766 0.14488 0.0
C692 C 0.57329 0.44706 0.18099 0.0
C693 C 0.57376 0.47039 0.16425 0.0
C694 C 0.56946 0.48965 0.28875 0.0
H695 H 0.57293 0.55653 0.24595 0.0
H696 H 0.5751 0.53408 0.21632 0.0
H697 H 0.56352 0.50481 0.34309 0.0
H698 H 0.57666 0.4415 0.26556 0.0
H699 H 0.57898 0.46369 0.29921 0.0
H700 H 0.58921 0.49352 0.17785 0.0
C701 C 0.575 0.53611 0.25981 0.0
C702 C 0.56939 0.50247 0.30762 0.0
C703 C 0.57367 0.549 0.27684 0.0
C704 C 0.57588 0.44944 0.23663 0.0
C705 C 0.57714 0.46215 0.25602 0.0
C706 C 0.5836 0.4959 0.21402 0.0
C707 C 0.57571 0.52597 0.29833 0.0
C708 C 0.5764 0.51219 0.27987 0.0
C709 C 0.57595 0.47276 0.22017 0.0
C710 C 0.57645 0.48626 0.24146 0.0
H711 H 0.57336 0.54407 0.41488 0.0
H712 H 0.576 0.52157 0.38523 0.0
H713 H 0.58932 0.51589 0.21131 0.0
H714 H 0.57042 0.45615 0.10179 0.0
H715 H 0.5727 0.47839 0.13575 0.0
C716 C 0.78943 0.32512 0.39139 0.0
C717 C 0.79997 0.32534 0.42802 0.0
C718 C 0.77666 0.32616 0.41077 0.0
C719 C 0.75725 0.31994 0.53385 0.0
H720 H 0.7311 0.34108 0.462 0.0
C721 C 0.70529 0.32412 0.62036 0.0
C722 C 0.69507 0.32364 0.58227 0.0
C723 C 0.71815 0.32563 0.60273 0.0
C724 C 0.73826 0.33503 0.48225 0.0
H725 H 0.80537 0.32716 0.51364 0.0
H726 H 0.78315 0.32894 0.54719 0.0
H727 H 0.75344 0.34121 0.42798 0.0
H728 H 0.6903 0.32461 0.4958 0.0
H729 H 0.71267 0.32694 0.46509 0.0
H730 H 0.74211 0.31349 0.58725 0.0
C731 C 0.78475 0.32786 0.50359 0.0
C732 C 0.75105 0.33513 0.46277 0.0
C733 C 0.79748 0.3269 0.48426 0.0
C734 C 0.69794 0.32498 0.52628 0.0
C735 C 0.71078 0.3264 0.50865 0.0
C736 C 0.74446 0.31977 0.55309 0.0
C737 C 0.77419 0.32735 0.46717 0.0
C738 C 0.76067 0.32755 0.4883 0.0
C739 C 0.72107 0.3266 0.54658 0.0
C740 C 0.73479 0.32728 0.52743 0.0
H741 H 0.79101 0.32394 0.34784 0.0
H742 H 0.7687 0.32564 0.38177 0.0
H743 H 0.76441 0.31384 0.55387 0.0
H744 H 0.7034 0.3232 0.6638 0.0
H745 H 0.7258 0.32597 0.63314 0.0
C746 C 0.92272 0.45465 0.77546 0.0
C747 C 0.9281 0.45186 0.82706 0.0
C748 C 0.9214 0.46751 0.75779 0.0
C749 C 0.93441 0.50048 0.78482 0.0
H750 H 0.90535 0.51157 0.69489 0.0
C751 C 0.92642 0.55411 0.72926 0.0
C752 C 0.92429 0.55682 0.67354 0.0
C753 C 0.92583 0.54137 0.74871 0.0
C754 C 0.91354 0.50857 0.71974 0.0
H755 H 0.93586 0.46038 0.90138 0.0
H756 H 0.9332 0.4828 0.87133 0.0
H757 H 0.90618 0.48922 0.72876 0.0
H758 H 0.91936 0.54831 0.595 0.0
H759 H 0.91824 0.52598 0.62931 0.0
H760 H 0.94168 0.51986 0.77627 0.0
C761 C 0.93035 0.47506 0.84377 0.0
C762 C 0.91405 0.49577 0.73904 0.0
C763 C 0.9318 0.4622 0.86118 0.0
C764 C 0.92108 0.54654 0.63809 0.0
C765 C 0.92039 0.53377 0.65774 0.0
C766 C 0.93383 0.51328 0.766 0.0
C767 C 0.9253 0.47788 0.79154 0.0
C768 C 0.92451 0.49156 0.77177 0.0
C769 C 0.92301 0.53105 0.71304 0.0
C770 C 0.92341 0.51746 0.73324 0.0
H771 H 0.91983 0.44688 0.74808 0.0
H772 H 0.91763 0.46928 0.71707 0.0
H773 H 0.94276 0.49754 0.8088 0.0
H774 H 0.92885 0.5618 0.75781 0.0
H775 H 0.92772 0.53957 0.79168 0.0
C776 C 0.2065 0.31539 0.88839 0.0
C777 C 0.19616 0.31901 0.92275 0.0
C778 C 0.21937 0.31672 0.90592 0.0
C779 C 0.24011 0.33277 0.01077 0.0
H780 H 0.26396 0.30477 0.97555 0.0
C781 C 0.29058 0.32646 0.11368 0.0
C782 C 0.30095 0.32288 0.07937 0.0
C783 C 0.27784 0.32679 0.09353 0.0
C784 C 0.25746 0.31274 0.98523 0.0
H785 H 0.19122 0.32705 0.00221 0.0
H786 H 0.21363 0.32912 0.03319 0.0
H787 H 0.2417 0.30395 0.9419 0.0
H788 H 0.30611 0.31712 0.99663 0.0
H789 H 0.28395 0.31772 0.96172 0.0
H790 H 0.25591 0.34141 0.05506 0.0
C791 C 0.21184 0.32547 0.9923 0.0
C792 C 0.2447 0.31229 0.96581 0.0
C793 C 0.19897 0.32422 0.97462 0.0
C794 C 0.29835 0.31986 0.0243 0.0
C795 C 0.28564 0.32014 0.0043 0.0
C796 C 0.25288 0.33318 0.0305 0.0
C797 C 0.22219 0.32162 0.95838 0.0
C798 C 0.23586 0.3223 0.97828 0.0
C799 C 0.27523 0.32349 0.03877 0.0
C800 C 0.26168 0.32317 0.01786 0.0
H801 H 0.20466 0.31143 0.84803 0.0
H802 H 0.22711 0.31389 0.87832 0.0
H803 H 0.23362 0.34073 0.02056 0.0
H804 H 0.29226 0.32884 0.15629 0.0
H805 H 0.27 0.32932 0.12117 0.0
C806 C 0.42718 0.45246 0.73724 0.0
C807 C 0.43091 0.45024 0.68264 0.0
C808 C 0.42554 0.46512 0.75677 0.0
C809 C 0.41937 0.49875 0.71428 0.0
H810 H 0.43761 0.50801 0.84767 0.0
C811 C 0.4275 0.55202 0.77775 0.0
C812 C 0.42779 0.55521 0.83368 0.0
C813 C 0.42655 0.53908 0.76099 0.0
C814 C 0.43223 0.50557 0.81097 0.0
H815 H 0.43549 0.45955 0.60534 0.0
H816 H 0.43245 0.4817 0.63942 0.0
H817 H 0.43818 0.48563 0.81509 0.0
H818 H 0.42687 0.54735 0.91592 0.0
H819 H 0.42481 0.52475 0.88671 0.0
H820 H 0.4133 0.51861 0.71019 0.0
C821 C 0.43084 0.47361 0.66702 0.0
C822 C 0.43262 0.49274 0.79221 0.0
C823 C 0.43264 0.46094 0.64763 0.0
C824 C 0.42676 0.54519 0.87252 0.0
C825 C 0.42567 0.53223 0.85572 0.0
C826 C 0.41885 0.51155 0.73336 0.0
C827 C 0.42743 0.47581 0.72195 0.0
C828 C 0.42634 0.48925 0.74333 0.0
C829 C 0.42571 0.529 0.79971 0.0
C830 C 0.42543 0.51517 0.78155 0.0
H831 H 0.42578 0.44442 0.7653 0.0
H832 H 0.42282 0.46655 0.79919 0.0
H833 H 0.41431 0.49626 0.67682 0.0
H834 H 0.42834 0.5595 0.74672 0.0
H835 H 0.42685 0.53699 0.71757 0.0
C836 C 0.29678 0.67177 0.38228 0.0
C837 C 0.30649 0.67444 0.42115 0.0
C838 C 0.28381 0.67033 0.3985 0.0
C839 C 0.26278 0.66493 0.52027 0.0
H840 H 0.23674 0.68253 0.4326 0.0
C841 C 0.21121 0.67705 0.59994 0.0
C842 C 0.20078 0.67558 0.5633 0.0
C843 C 0.22403 0.67548 0.58195 0.0
C844 C 0.24386 0.67741 0.45715 0.0
H845 H 0.31024 0.67737 0.50777 0.0
H846 H 0.28768 0.67508 0.53575 0.0
H847 H 0.25925 0.68212 0.40174 0.0
H848 H 0.19562 0.671 0.47928 0.0
H849 H 0.21794 0.66824 0.44813 0.0
H850 H 0.24737 0.66049 0.57629 0.0
C851 C 0.29006 0.6739 0.49285 0.0
C852 C 0.25677 0.67714 0.4394 0.0
C853 C 0.30301 0.67531 0.47669 0.0
C854 C 0.20343 0.67226 0.50858 0.0
C855 C 0.21623 0.67074 0.49059 0.0
C856 C 0.24987 0.66523 0.53812 0.0
C857 C 0.28028 0.67155 0.45391 0.0
C858 C 0.26641 0.67101 0.471 0.0
C859 C 0.22668 0.67246 0.52692 0.0
C860 C 0.24029 0.67158 0.50698 0.0
H861 H 0.29915 0.67097 0.33921 0.0
H862 H 0.27653 0.66834 0.36756 0.0
H863 H 0.26993 0.65994 0.54516 0.0
H864 H 0.2095 0.67961 0.64235 0.0
H865 H 0.23189 0.67699 0.6108 0.0
C866 C 0.06368 0.45658 0.35217 0.0
C867 C 0.06419 0.44575 0.31721 0.0
C868 C 0.06521 0.46914 0.33121 0.0
C869 C 0.05982 0.4881 0.20849 0.0
H870 H 0.08401 0.51288 0.27121 0.0
C871 C 0.06585 0.53929 0.11599 0.0
C872 C 0.06782 0.54966 0.15243 0.0
C873 C 0.0665 0.52644 0.13446 0.0
C874 C 0.07707 0.50616 0.25363 0.0
H875 H 0.06679 0.43954 0.23298 0.0
H876 H 0.06915 0.46153 0.19636 0.0
H877 H 0.08291 0.49083 0.30791 0.0
H878 H 0.07199 0.55474 0.23677 0.0
H879 H 0.07258 0.53244 0.26948 0.0
H880 H 0.0535 0.50341 0.15583 0.0
C881 C 0.06767 0.46026 0.23995 0.0
C882 C 0.07651 0.49352 0.27454 0.0
C883 C 0.06638 0.4477 0.26099 0.0
C884 C 0.07055 0.54694 0.20758 0.0
C885 C 0.07097 0.53411 0.22626 0.0
C886 C 0.0602 0.50079 0.18819 0.0
C887 C 0.06705 0.47109 0.27483 0.0
C888 C 0.06787 0.4844 0.25215 0.0
C889 C 0.06889 0.52367 0.19004 0.0
C890 C 0.06881 0.51002 0.21053 0.0
H891 H 0.06204 0.45537 0.39568 0.0
H892 H 0.06462 0.47736 0.35885 0.0
H893 H 0.05297 0.48125 0.19096 0.0
H894 H 0.06384 0.54111 0.07314 0.0
H895 H 0.06512 0.51869 0.10505 0.0
C896 C 0.09823 0.1147 0.94914 0.0
C897 C 0.09409 0.1018 0.95697 0.0
C898 C 0.10565 0.12099 0.98917 0.0
C899 C 0.11242 0.13413 0.09697 0.0
H900 H 0.13942 0.11641 0.17906 0.0
C901 C 0.13293 0.15523 0.29731 0.0
C902 C 0.1465 0.15488 0.30394 0.0
C903 C 0.12697 0.14832 0.25495 0.0
C904 C 0.13197 0.12152 0.1563 0.0
H905 H 0.09495 0.08524 0.01196 0.0
H906 H 0.10779 0.09621 0.08162 0.0
H907 H 0.12906 0.10546 0.10185 0.0
H908 H 0.16442 0.14661 0.27232 0.0
H909 H 0.15401 0.1346 0.19835 0.0
H910 H 0.1154 0.15023 0.15097 0.0
C911 C 0.10539 0.10145 0.04452 0.0
C912 C 0.12596 0.11521 0.11235 0.0
C913 C 0.09795 0.09519 0.00465 0.0
C914 C 0.15394 0.1471 0.2684 0.0
C915 C 0.14797 0.14017 0.22606 0.0
C916 C 0.1184 0.14042 0.14094 0.0
C917 C 0.10914 0.11449 0.03771 0.0
C918 C 0.11607 0.12142 0.08238 0.0
C919 C 0.13444 0.14087 0.21831 0.0
C920 C 0.12818 0.13416 0.17135 0.0
H921 H 0.09545 0.12005 0.91278 0.0
H922 H 0.10856 0.13098 0.98239 0.0
H923 H 0.10473 0.13913 0.07515 0.0
H924 H 0.1269 0.16108 0.3241 0.0
H925 H 0.11649 0.14886 0.25067 0.0
C926 C 0.132 0.84597 0.19307 0.0
C927 C 0.14547 0.84755 0.18603 0.0
C928 C 0.12545 0.85263 0.23465 0.0
C929 C 0.12794 0.88048 0.3297 0.0
H930 H 0.1033 0.86061 0.41612 0.0
C931 C 0.09613 0.88486 0.54283 0.0
C932 C 0.0906 0.89724 0.53544 0.0
C933 C 0.10351 0.87915 0.50118 0.0
C934 C 0.11024 0.86626 0.39271 0.0
H935 H 0.16255 0.85774 0.21587 0.0
H936 H 0.15111 0.86932 0.28837 0.0
H937 H 0.11453 0.85024 0.33987 0.0
H938 H 0.08885 0.9135 0.47922 0.0
H939 H 0.10166 0.90352 0.40674 0.0
H940 H 0.12374 0.89647 0.38302 0.0
C941 C 0.1456 0.86298 0.26164 0.0
C942 C 0.11654 0.86037 0.34855 0.0
C943 C 0.15216 0.85629 0.22018 0.0
C944 C 0.09295 0.90394 0.48625 0.0
C945 C 0.10036 0.89825 0.44475 0.0
C946 C 0.1216 0.8864 0.37378 0.0
C947 C 0.13222 0.86104 0.26995 0.0
C948 C 0.12544 0.86742 0.31645 0.0
C949 C 0.10556 0.88572 0.45141 0.0
C950 C 0.11266 0.87935 0.40574 0.0
H951 H 0.12654 0.83935 0.16737 0.0
H952 H 0.11508 0.8511 0.23945 0.0
H953 H 0.13469 0.88619 0.30558 0.0
H954 H 0.09453 0.87946 0.5803 0.0
H955 H 0.10754 0.86954 0.5078 0.0
C956 C 0.39236 0.89471 0.42324 0.0
C957 C 0.40522 0.89071 0.41339 0.0
C958 C 0.38572 0.89046 0.46997 0.0
C959 C 0.39187 0.87769 0.60877 0.0
H960 H 0.35588 0.86652 0.6028 0.0
C961 C 0.36733 0.84893 0.78298 0.0
C962 C 0.35414 0.8513 0.79425 0.0
C963 C 0.37345 0.85501 0.73878 0.0
C964 C 0.36587 0.86981 0.60536 0.0
H965 H 0.42105 0.87878 0.44411 0.0
H966 H 0.40945 0.87131 0.52491 0.0
H967 H 0.36654 0.87428 0.51975 0.0
H968 H 0.33718 0.86239 0.76935 0.0
H969 H 0.34791 0.87312 0.69261 0.0
H970 H 0.39125 0.87313 0.6942 0.0
C971 C 0.40456 0.8779 0.49712 0.0
C972 C 0.37198 0.87422 0.55772 0.0
C973 C 0.41117 0.88211 0.45048 0.0
C974 C 0.34734 0.86029 0.76167 0.0
C975 C 0.35346 0.86637 0.71742 0.0
C976 C 0.38576 0.8733 0.65637 0.0
C977 C 0.39183 0.88217 0.50783 0.0
C978 C 0.3851 0.87805 0.55876 0.0
C979 C 0.36651 0.86361 0.70484 0.0
C980 C 0.37274 0.86916 0.65513 0.0
H981 H 0.3875 0.90135 0.39553 0.0
H982 H 0.37593 0.89396 0.47721 0.0
H983 H 0.40191 0.88082 0.61115 0.0
H984 H 0.37286 0.84205 0.80721 0.0
H985 H 0.38348 0.85256 0.72998 0.0
C986 C 0.34325 0.14463 0.73131 0.0
C987 C 0.35079 0.15117 0.69198 0.0
C988 C 0.34919 0.13733 0.77254 0.0
C989 C 0.36429 0.11782 0.84187 0.0
H990 H 0.3943 0.13368 0.91117 0.0
C991 C 0.39711 0.09105 0.99768 0.0
C992 C 0.40201 0.09823 0.0421 0.0
C993 C 0.38997 0.09717 0.95642 0.0
C994 C 0.38585 0.12918 0.89262 0.0
H995 H 0.37049 0.15466 0.66359 0.0
H996 H 0.38085 0.14181 0.73529 0.0
H997 H 0.38388 0.14453 0.83416 0.0
H998 H 0.40278 0.11738 0.07923 0.0
H999 H 0.39022 0.12805 0.0073 0.0
H1000 H 0.36619 0.10253 0.90095 0.0
C1001 C 0.37034 0.14252 0.73473 0.0
C1002 C 0.38 0.1353 0.84797 0.0
C1003 C 0.36439 0.1498 0.69342 0.0
C1004 C 0.39919 0.11158 0.04544 0.0
C1005 C 0.39208 0.11771 0.00405 0.0
C1006 C 0.37018 0.11166 0.88648 0.0
C1007 C 0.36281 0.13642 0.77539 0.0
C1008 C 0.36916 0.12969 0.82203 0.0
C1009 C 0.38759 0.11061 0.95861 0.0
C1010 C 0.38103 0.11728 0.91235 0.0
H1011 H 0.33274 0.14547 0.73135 0.0
H1012 H 0.34313 0.13282 0.80343 0.0
H1013 H 0.35599 0.11322 0.82259 0.0
H1014 H 0.39909 0.08074 0.9939 0.0
H1015 H 0.38674 0.09144 0.92178 0.0
C1016 C 0.90882 0.88312 0.03586 0.0
C1017 C 0.9036 0.89363 0.06542 0.0
C1018 C 0.90237 0.87819 0.99014 0.0
C1019 C 0.87066 0.87613 0.92182 0.0
H1020 H 0.8916 0.86936 0.79282 0.0
C1021 C 0.8478 0.85794 0.71967 0.0
C1022 C 0.85445 0.84776 0.6933 0.0
C1023 C 0.85368 0.86477 0.76257 0.0
C1024 C 0.88562 0.87109 0.82859 0.0
H1025 H 0.88723 0.90688 0.07119 0.0
H1026 H 0.87587 0.89814 0.99125 0.0
H1027 H 0.90177 0.87841 0.87443 0.0
H1028 H 0.87264 0.83706 0.69021 0.0
H1029 H 0.88277 0.84882 0.76516 0.0
H1030 H 0.85455 0.86853 0.87643 0.0
C1031 C 0.88501 0.89378 0.0036 0.0
C1032 C 0.89145 0.87628 0.87533 0.0
C1033 C 0.89152 0.89879 0.0493 0.0
C1034 C 0.86724 0.84486 0.70953 0.0
C1035 C 0.87309 0.85166 0.75242 0.0
C1036 C 0.86482 0.87085 0.87509 0.0
C1037 C 0.8905 0.88358 0.973 0.0
C1038 C 0.88408 0.87869 0.92267 0.0
C1039 C 0.86632 0.86158 0.78 0.0
C1040 C 0.87228 0.86812 0.82815 0.0
H1041 H 0.91808 0.87887 0.04723 0.0
H1042 H 0.90672 0.87017 0.96795 0.0
H1043 H 0.86475 0.87781 0.95784 0.0
H1044 H 0.83796 0.86045 0.70802 0.0
H1045 H 0.84827 0.87249 0.78237 0.0
C1046 C 0.85061 0.13672 0.80484 0.0
C1047 C 0.85618 0.1483 0.82453 0.0
C1048 C 0.856 0.13031 0.75967 0.0
C1049 C 0.87542 0.13718 0.63734 0.0
H1050 H 0.88041 0.09986 0.62987 0.0
C1051 C 0.90548 0.11306 0.46672 0.0
C1052 C 0.9017 0.10076 0.44734 0.0
C1053 C 0.89908 0.11876 0.51101 0.0
C1054 C 0.87888 0.11027 0.63091 0.0
H1055 H 0.87215 0.16188 0.81374 0.0
H1056 H 0.8815 0.1507 0.73526 0.0
H1057 H 0.87129 0.10958 0.71265 0.0
H1058 H 0.88786 0.08503 0.45799 0.0
H1059 H 0.87649 0.09513 0.53465 0.0
H1060 H 0.88287 0.13795 0.55573 0.0
C1061 C 0.87287 0.14668 0.75427 0.0
C1062 C 0.87371 0.11583 0.67845 0.0
C1063 C 0.86756 0.15302 0.79952 0.0
C1064 C 0.89106 0.09449 0.47207 0.0
C1065 C 0.8846 0.10023 0.51631 0.0
C1066 C 0.88049 0.13164 0.58976 0.0
C1067 C 0.867 0.13541 0.73316 0.0
C1068 C 0.87209 0.12936 0.68237 0.0
C1069 C 0.88867 0.11235 0.53685 0.0
C1070 C 0.88244 0.11813 0.58616 0.0
H1071 H 0.84185 0.13281 0.82319 0.0
H1072 H 0.85126 0.12164 0.74422 0.0
H1073 H 0.87403 0.14762 0.63877 0.0
H1074 H 0.91367 0.11814 0.44878 0.0
H1075 H 0.90259 0.12802 0.52611 0.0
C1076 C 0.60669 0.10234 0.55261 0.0
C1077 C 0.59407 0.10692 0.56368 0.0
C1078 C 0.61347 0.1067 0.50643 0.0
C1079 C 0.6078 0.12068 0.36986 0.0
H1080 H 0.64405 0.1309 0.37692 0.0
C1081 C 0.63294 0.14963 0.19782 0.0
C1082 C 0.6462 0.1474 0.18748 0.0
C1083 C 0.62668 0.14336 0.24118 0.0
C1084 C 0.63399 0.12786 0.37395 0.0
H1085 H 0.57886 0.11998 0.53572 0.0
H1086 H 0.59069 0.12757 0.45562 0.0
H1087 H 0.6332 0.1229 0.4591 0.0
H1088 H 0.66311 0.13628 0.21273 0.0
H1089 H 0.65211 0.12513 0.28765 0.0
H1090 H 0.60853 0.12563 0.28487 0.0
C1091 C 0.59527 0.12049 0.48219 0.0
C1092 C 0.62777 0.12332 0.42114 0.0
C1093 C 0.58853 0.1162 0.52839 0.0
C1094 C 0.6529 0.13829 0.21982 0.0
C1095 C 0.64662 0.13197 0.26307 0.0
C1096 C 0.61402 0.12514 0.32263 0.0
C1097 C 0.60773 0.11566 0.47026 0.0
C1098 C 0.61456 0.11986 0.41975 0.0
C1099 C 0.63351 0.13465 0.27505 0.0
C1100 C 0.62715 0.12895 0.32423 0.0
H1101 H 0.61123 0.09519 0.57893 0.0
H1102 H 0.62306 0.10279 0.49818 0.0
H1103 H 0.59767 0.11785 0.3673 0.0
H1104 H 0.62749 0.15661 0.1738 0.0
H1105 H 0.61662 0.14577 0.24948 0.0
C1106 C 0.59802 0.90659 0.02244 0.0
C1107 C 0.59628 0.90069 0.97105 0.0
C1108 C 0.60515 0.90036 0.06341 0.0
C1109 C 0.61518 0.86771 0.10719 0.0
H1110 H 0.63766 0.88659 0.20692 0.0
C1111 C 0.65426 0.85585 0.28978 0.0
C1112 C 0.64722 0.84633 0.31861 0.0
C1113 C 0.64832 0.86304 0.24811 0.0
C1114 C 0.63148 0.88116 0.17922 0.0
H1115 H 0.60105 0.88382 0.92171 0.0
H1116 H 0.61361 0.87297 0.99323 0.0
H1117 H 0.62766 0.89796 0.12995 0.0
H1118 H 0.62828 0.83726 0.3277 0.0
H1119 H 0.6179 0.84991 0.25555 0.0
H1120 H 0.61911 0.85089 0.15595 0.0
C1121 C 0.60929 0.88235 0.00201 0.0
C1122 C 0.62567 0.8877 0.13539 0.0
C1123 C 0.60217 0.8886 0.96093 0.0
C1124 C 0.63401 0.84447 0.30612 0.0
C1125 C 0.62808 0.85164 0.26446 0.0
C1126 C 0.62097 0.86119 0.15102 0.0
C1127 C 0.6107 0.88808 0.05397 0.0
C1128 C 0.61741 0.88105 0.09902 0.0
C1129 C 0.63522 0.86085 0.23436 0.0
C1130 C 0.62913 0.86785 0.18773 0.0
H1131 H 0.59363 0.91591 0.03161 0.0
H1132 H 0.60594 0.90498 0.1031 0.0
H1133 H 0.60875 0.86233 0.08033 0.0
H1134 H 0.66446 0.85753 0.29832 0.0
H1135 H 0.65411 0.87 0.22548 0.0
C1136 C 0.60884 0.5971 0.46244 0.0
C1137 C 0.59791 0.60331 0.43967 0.0
C1138 C 0.61489 0.60218 0.50908 0.0
C1139 C 0.60759 0.62253 0.62866 0.0
H1140 H 0.64502 0.62477 0.64548 0.0
C1141 C 0.63156 0.65162 0.80272 0.0
C1142 C 0.64319 0.64696 0.82574 0.0
C1143 C 0.62599 0.64543 0.75759 0.0
C1144 C 0.63455 0.62401 0.64182 0.0
H1145 H 0.58516 0.62005 0.44666 0.0
H1146 H 0.59574 0.6289 0.52762 0.0
H1147 H 0.63584 0.61603 0.56091 0.0
H1148 H 0.65781 0.63179 0.82064 0.0
H1149 H 0.64794 0.62082 0.74239 0.0
H1150 H 0.60622 0.63043 0.70939 0.0
C1151 C 0.5995 0.62 0.50993 0.0
C1152 C 0.6293 0.61905 0.59326 0.0
C1153 C 0.5935 0.61497 0.46326 0.0
C1154 C 0.64888 0.63567 0.80378 0.0
C1155 C 0.64328 0.62944 0.75864 0.0
C1156 C 0.61281 0.62741 0.67723 0.0
C1157 C 0.61009 0.61353 0.53399 0.0
C1158 C 0.61576 0.61841 0.58594 0.0
C1159 C 0.63188 0.63437 0.73448 0.0
C1160 C 0.62635 0.62836 0.6842 0.0
H1161 H 0.61249 0.5881 0.44526 0.0
H1162 H 0.62302 0.59697 0.52679 0.0
H1163 H 0.59711 0.6219 0.62466 0.0
H1164 H 0.62693 0.66032 0.81848 0.0
H1165 H 0.6173 0.6496 0.7397 0.0
C1166 C 0.60884 0.4018 0.03994 0.0
C1167 C 0.59822 0.39557 0.06498 0.0
C1168 C 0.61479 0.39636 0.99381 0.0
C1169 C 0.60746 0.37469 0.87877 0.0
H1170 H 0.64486 0.37271 0.86017 0.0
C1171 C 0.63114 0.34415 0.70851 0.0
C1172 C 0.64274 0.34859 0.68441 0.0
C1173 C 0.62564 0.35077 0.7527 0.0
C1174 C 0.63439 0.37339 0.86427 0.0
H1175 H 0.58587 0.37845 0.06247 0.0
H1176 H 0.59626 0.36899 0.9822 0.0
H1177 H 0.63585 0.3822 0.9436 0.0
H1178 H 0.65735 0.3638 0.68645 0.0
H1179 H 0.64758 0.37553 0.76294 0.0
H1180 H 0.60592 0.366 0.79955 0.0
C1181 C 0.59987 0.37817 0.99785 0.0
C1182 C 0.62925 0.37878 0.9122 0.0
C1183 C 0.59399 0.38354 0.04411 0.0
C1184 C 0.64844 0.36008 0.70424 0.0
C1185 C 0.6429 0.36675 0.74838 0.0
C1186 C 0.61258 0.36941 0.83076 0.0
C1187 C 0.61017 0.38463 0.97161 0.0
C1188 C 0.61573 0.37932 0.92022 0.0
C1189 C 0.63155 0.36205 0.77372 0.0
C1190 C 0.62611 0.36853 0.82316 0.0
H1191 H 0.61234 0.41107 0.05503 0.0
H1192 H 0.6227 0.40157 0.97435 0.0
H1193 H 0.59699 0.37523 0.88334 0.0
H1194 H 0.6265 0.33531 0.69442 0.0
H1195 H 0.617 0.34677 0.77156 0.0
C1196 C 0.84474 0.36098 0.29216 0.0
C1197 C 0.85164 0.35149 0.32173 0.0
C1198 C 0.85067 0.36766 0.24902 0.0
C1199 C 0.87767 0.36435 0.15056 0.0
H1200 H 0.87178 0.40108 0.12467 0.0
C1201 C 0.90174 0.40834 0.01732 0.0
C1202 C 0.90355 0.40206 0.96679 0.0
C1203 C 0.89436 0.40254 0.05857 0.0
C1204 C 0.87354 0.39082 0.13143 0.0
H1205 H 0.87036 0.34198 0.33064 0.0
H1206 H 0.88076 0.35377 0.25608 0.0
H1207 H 0.86163 0.39054 0.20332 0.0
H1208 H 0.89862 0.38495 0.91921 0.0
H1209 H 0.88559 0.37484 0.99126 0.0
H1210 H 0.88986 0.36469 0.07963 0.0
C1211 C 0.87067 0.35585 0.26545 0.0
C1212 C 0.86764 0.38476 0.17623 0.0
C1213 C 0.86474 0.34917 0.30851 0.0
C1214 C 0.89745 0.39002 0.95776 0.0
C1215 C 0.89006 0.38419 0.99915 0.0
C1216 C 0.88356 0.3704 0.10579 0.0
C1217 C 0.86364 0.36501 0.23456 0.0
C1218 C 0.86973 0.37147 0.18657 0.0
C1219 C 0.8886 0.39031 0.05031 0.0
C1220 C 0.88165 0.38373 0.09592 0.0
H1221 H 0.83462 0.36299 0.3012 0.0
H1222 H 0.84496 0.37459 0.22585 0.0
H1223 H 0.87932 0.35405 0.15684 0.0
H1224 H 0.90629 0.41763 0.02565 0.0
H1225 H 0.89356 0.40745 0.09764 0.0
C1226 C 0.8605 0.6424 0.17893 0.0
C1227 C 0.85628 0.6554 0.17978 0.0
C1228 C 0.8656 0.63663 0.22624 0.0
C1229 C 0.88044 0.64536 0.3595 0.0
H1230 H 0.87385 0.60924 0.39548 0.0
C1231 C 0.90943 0.61885 0.52668 0.0
C1232 C 0.90295 0.6098 0.5601 0.0
C1233 C 0.90319 0.62438 0.48163 0.0
C1234 C 0.87567 0.61938 0.38635 0.0
H1235 H 0.85372 0.67239 0.23147 0.0
H1236 H 0.8623 0.66229 0.31364 0.0
H1237 H 0.86375 0.61878 0.31445 0.0
H1238 H 0.88473 0.59961 0.57279 0.0
H1239 H 0.87369 0.60952 0.49458 0.0
H1240 H 0.89208 0.64611 0.43184 0.0
C1241 C 0.86202 0.65662 0.2763 0.0
C1242 C 0.87002 0.6248 0.33946 0.0
C1243 C 0.85703 0.6624 0.22911 0.0
C1244 C 0.89 0.60654 0.54783 0.0
C1245 C 0.88371 0.61215 0.50276 0.0
C1246 C 0.88602 0.63998 0.40638 0.0
C1247 C 0.8665 0.64371 0.27541 0.0
C1248 C 0.87237 0.63786 0.32538 0.0
C1249 C 0.89026 0.62108 0.46895 0.0
C1250 C 0.88379 0.6269 0.42024 0.0
H1251 H 0.86005 0.63675 0.14157 0.0
H1252 H 0.86908 0.6267 0.22394 0.0
H1253 H 0.88262 0.6554 0.34963 0.0
H1254 H 0.91945 0.62151 0.53458 0.0
H1255 H 0.90863 0.63104 0.45603 0.0
C1256 C 0.40257 0.38722 0.55723 0.0
C1257 C 0.41075 0.39748 0.54104 0.0
C1258 C 0.39477 0.38083 0.51876 0.0
C1259 C 0.3931 0.37399 0.37121 0.0
H1260 H 0.35775 0.36326 0.403 0.0
C1261 C 0.36131 0.34822 0.20944 0.0
C1262 C 0.35405 0.33751 0.22796 0.0
C1263 C 0.36739 0.35654 0.24684 0.0
C1264 C 0.36765 0.36611 0.39365 0.0
H1265 H 0.41682 0.40933 0.47205 0.0
H1266 H 0.4032 0.39824 0.40534 0.0
H1267 H 0.3699 0.37583 0.47066 0.0
H1268 H 0.34728 0.3273 0.30034 0.0
H1269 H 0.358 0.34164 0.36519 0.0
H1270 H 0.39099 0.36408 0.29477 0.0
C1271 C 0.40295 0.39502 0.44754 0.0
C1272 C 0.3746 0.3733 0.43242 0.0
C1273 C 0.41071 0.40141 0.48591 0.0
C1274 C 0.35278 0.33546 0.28461 0.0
C1275 C 0.35886 0.34375 0.32191 0.0
C1276 C 0.38618 0.36676 0.33255 0.0
C1277 C 0.39502 0.38455 0.46335 0.0
C1278 C 0.38743 0.37726 0.42173 0.0
C1279 C 0.36634 0.35432 0.30353 0.0
C1280 C 0.3734 0.36265 0.34344 0.0
H1281 H 0.40238 0.38396 0.59939 0.0
H1282 H 0.38883 0.37273 0.53212 0.0
H1283 H 0.40304 0.37672 0.36206 0.0
H1284 H 0.36242 0.35009 0.16606 0.0
H1285 H 0.37293 0.36471 0.23134 0.0
C1286 C 0.40495 0.61942 0.95507 0.0
C1287 C 0.40165 0.60683 0.93754 0.0
C1288 C 0.39862 0.62507 -0.00029 0.0
C1289 C 0.38053 0.61615 0.12431 0.0
H1290 H 0.37317 0.65311 0.12966 0.0
C1291 C 0.35412 0.64138 0.30613 0.0
C1292 C 0.35902 0.65356 0.32226 0.0
C1293 C 0.35892 0.63521 0.25923 0.0
C1294 C 0.37527 0.64279 0.12896 0.0
H1295 H 0.3887 0.59051 0.95179 0.0
H1296 H 0.37752 0.60046 0.02933 0.0
H1297 H 0.38146 0.64351 0.04543 0.0
H1298 H 0.37319 0.66853 0.30301 0.0
H1299 H 0.3816 0.65772 0.22184 0.0
H1300 H 0.37437 0.61548 0.20809 0.0
C1301 C 0.38518 0.60587 0.00909 0.0
C1302 C 0.38001 0.63729 0.08067 0.0
C1303 C 0.39152 0.60021 0.96437 0.0
C1304 C 0.36913 0.6592 0.29162 0.0
C1305 C 0.37389 0.65305 0.2448 0.0
C1306 C 0.37575 0.62166 0.17265 0.0
C1307 C 0.38881 0.61828 0.02785 0.0
C1308 C 0.38285 0.62393 0.07794 0.0
C1309 C 0.36868 0.64111 0.22748 0.0
C1310 C 0.37324 0.63507 0.1757 0.0
H1311 H 0.41271 0.6248 0.93541 0.0
H1312 H 0.40177 0.63458 0.01338 0.0
H1313 H 0.38278 0.60586 0.12385 0.0
H1314 H 0.34632 0.63678 0.32878 0.0
H1315 H 0.35469 0.62602 0.24683 0.0
C1316 C 0.13574 0.65014 0.67567 0.0
C1317 C 0.14925 0.64903 0.66804 0.0
C1318 C 0.12955 0.64334 0.71774 0.0
C1319 C 0.13351 0.61605 0.81534 0.0
H1320 H 0.1076 0.63504 0.89861 0.0
C1321 C 0.1006 0.61125 0.02586 0.0
C1322 C 0.09593 0.5985 0.01929 0.0
C1323 C 0.10808 0.61708 0.98484 0.0
C1324 C 0.11492 0.62965 0.87622 0.0
H1325 H 0.16676 0.63952 0.6974 0.0
H1326 H 0.15597 0.62776 0.77105 0.0
H1327 H 0.11843 0.64557 0.82189 0.0
H1328 H 0.0959 0.58171 0.96547 0.0
H1329 H 0.10879 0.5919 0.89396 0.0
H1330 H 0.13013 0.6002 0.87038 0.0
C1331 C 0.15014 0.63381 0.74425 0.0
C1332 C 0.12099 0.63561 0.83167 0.0
C1333 C 0.15634 0.64059 0.7021 0.0
C1334 C 0.09931 0.59155 0.97182 0.0
C1335 C 0.10678 0.59738 0.93088 0.0
C1336 C 0.12744 0.61008 0.85996 0.0
C1337 C 0.13672 0.63529 0.7532 0.0
C1338 C 0.13029 0.62887 0.8005 0.0
C1339 C 0.11106 0.61029 0.93646 0.0
C1340 C 0.11803 0.6168 0.89076 0.0
H1341 H 0.12998 0.6565 0.64995 0.0
H1342 H 0.11915 0.64449 0.72285 0.0
H1343 H 0.14059 0.61056 0.79202 0.0
H1344 H 0.09822 0.61685 0.06207 0.0
H1345 H 0.11142 0.62698 0.99075 0.0
C1346 C 0.13177 0.34708 0.79859 0.0
C1347 C 0.14525 0.3449 0.79524 0.0
C1348 C 0.12533 0.35403 0.75754 0.0
C1349 C 0.11357 0.36036 0.64665 0.0
H1350 H 0.12828 0.39126 0.5799 0.0
C1351 C 0.09207 0.3825 0.44984 0.0
C1352 C 0.09039 0.39607 0.44975 0.0
C1353 C 0.09942 0.37649 0.49079 0.0
C1354 C 0.12402 0.38267 0.59827 0.0
H1355 H 0.1626 0.34874 0.74727 0.0
H1356 H 0.15135 0.36082 0.67575 0.0
H1357 H 0.13943 0.38099 0.65686 0.0
H1358 H 0.0955 0.41399 0.49148 0.0
H1359 H 0.10826 0.40349 0.56286 0.0
H1360 H 0.09807 0.36212 0.58867 0.0
C1361 C 0.14577 0.35721 0.71016 0.0
C1362 C 0.13046 0.37673 0.64206 0.0
C1363 C 0.1522 0.35022 0.75106 0.0
C1364 C 0.09659 0.40352 0.49035 0.0
C1365 C 0.10396 0.39751 0.53118 0.0
C1366 C 0.10716 0.36626 0.60278 0.0
C1367 C 0.13223 0.35899 0.71243 0.0
C1368 C 0.12529 0.36552 0.66678 0.0
C1369 C 0.10528 0.38391 0.53239 0.0
C1370 C 0.11231 0.37748 0.57808 0.0
H1371 H 0.12613 0.34314 0.83218 0.0
H1372 H 0.11492 0.35542 0.76086 0.0
H1373 H 0.10942 0.35164 0.66432 0.0
H1374 H 0.08746 0.37649 0.41904 0.0
H1375 H 0.10043 0.366 0.49013 0.0
C1376 C 0.14728 0.22558 0.32288 0.0
C1377 C 0.15492 0.225 0.37051 0.0
C1378 C 0.14504 0.23745 0.29677 0.0
C1379 C 0.15931 0.26953 0.27698 0.0
H1380 H 0.1254 0.27805 0.21732 0.0
C1381 C 0.15335 0.31365 0.13646 0.0
C1382 C 0.14677 0.31087 0.08738 0.0
C1383 C 0.15236 0.30523 0.18123 0.0
C1384 C 0.13493 0.27581 0.23367 0.0
H1385 H 0.16619 0.23642 0.4282 0.0
H1386 H 0.16242 0.25716 0.38196 0.0
H1387 H 0.12792 0.25886 0.27529 0.0
H1388 H 0.1331 0.29769 0.04852 0.0
H1389 H 0.13158 0.28297 0.12572 0.0
H1390 H 0.16652 0.28603 0.23344 0.0
C1391 C 0.15814 0.24841 0.36504 0.0
C1392 C 0.13637 0.26483 0.26684 0.0
C1393 C 0.16028 0.23654 0.39149 0.0
C1394 C 0.13836 0.3001 0.08559 0.0
C1395 C 0.13743 0.29167 0.13016 0.0
C1396 C 0.15791 0.28044 0.24348 0.0
C1397 C 0.15049 0.24898 0.31745 0.0
C1398 C 0.14863 0.26142 0.28775 0.0
C1399 C 0.14481 0.29385 0.17775 0.0
C1400 C 0.14577 0.28354 0.22029 0.0
H1401 H 0.14298 0.21687 0.30573 0.0
H1402 H 0.13927 0.23756 0.25968 0.0
H1403 H 0.16891 0.26707 0.29215 0.0
H1404 H 0.15981 0.32194 0.1394 0.0
H1405 H 0.15794 0.30736 0.21775 0.0
C1406 C 0.93788 0.90061 0.38762 0.0
C1407 C 0.94118 0.8948 0.33743 0.0
C1408 C 0.94595 0.8991 0.4333 0.0
C1409 C 0.97539 0.8815 0.48505 0.0
H1410 H 0.98292 0.91469 0.55345 0.0
C1411 C 0.02504 0.89436 0.57849 0.0
C1412 C 0.02534 0.90131 0.62799 0.0
C1413 C 0.01324 0.89191 0.55216 0.0
C1414 C 0.98079 0.9053 0.53552 0.0
H1415 H 0.95491 0.88192 0.29718 0.0
H1416 H 0.96904 0.87955 0.37588 0.0
H1417 H 0.96435 0.91275 0.49238 0.0
H1418 H 0.01348 0.91104 0.68901 0.0
H1419 H 0.99284 0.90693 0.6423 0.0
H1420 H 0.99235 0.87431 0.52612 0.0
C1421 C 0.9602 0.88517 0.38056 0.0
C1422 C 0.97009 0.90414 0.50064 0.0
C1423 C 0.95211 0.88661 0.33511 0.0
C1424 C 0.01357 0.90567 0.65086 0.0
C1425 C 0.00176 0.90334 0.62415 0.0
C1426 C 0.98617 0.88269 0.51955 0.0
C1427 C 0.9575 0.89181 0.42961 0.0
C1428 C 0.96746 0.89232 0.47377 0.0
C1429 C 0.00149 0.89647 0.57446 0.0
C1430 C 0.98916 0.89469 0.54398 0.0
H1431 H 0.92945 0.90687 0.39096 0.0
H1432 H 0.94342 0.90411 0.47083 0.0
H1433 H 0.97351 0.87219 0.46592 0.0
H1434 H 0.03393 0.89083 0.55989 0.0
H1435 H 0.01334 0.88675 0.5135 0.0
C1436 C 0.347 0.69012 0.64062 0.0
C1437 C 0.35405 0.69247 0.5923 0.0
C1438 C 0.34739 0.69905 0.68379 0.0
C1439 C 0.34069 0.72445 0.73929 0.0
H1440 H 0.36987 0.74701 0.77228 0.0
C1441 C 0.3363 0.76986 0.8788 0.0
C1442 C 0.3418 0.78126 0.857 0.0
C1443 C 0.33868 0.75779 0.8543 0.0
C1444 C 0.36164 0.74077 0.76344 0.0
H1445 H 0.36802 0.70536 0.55366 0.0
H1446 H 0.3685 0.72095 0.62802 0.0
H1447 H 0.37342 0.72718 0.71934 0.0
H1448 H 0.3541 0.78894 0.79246 0.0
H1449 H 0.35822 0.76791 0.74984 0.0
H1450 H 0.3289 0.73818 0.78268 0.0
C1451 C 0.36271 0.71223 0.63307 0.0
C1452 C 0.36367 0.72942 0.73315 0.0
C1453 C 0.36238 0.70329 0.59011 0.0
C1454 C 0.3497 0.78035 0.81021 0.0
C1455 C 0.35217 0.76829 0.78609 0.0
C1456 C 0.3387 0.73574 0.76997 0.0
C1457 C 0.3548 0.7105 0.67945 0.0
C1458 C 0.35315 0.72131 0.71937 0.0
C1459 C 0.3467 0.75689 0.80792 0.0
C1460 C 0.34909 0.74419 0.78105 0.0
H1461 H 0.34059 0.6818 0.64391 0.0
H1462 H 0.34141 0.69726 0.71954 0.0
H1463 H 0.33231 0.71857 0.72879 0.0
H1464 H 0.3302 0.77023 0.91489 0.0
H1465 H 0.33436 0.74915 0.87202 0.0
C1466 C 0.54357 0.11274 0.82916 0.0
C1467 C 0.55489 0.10509 0.83191 0.0
C1468 C 0.53501 0.1133 0.87345 0.0
C1469 C 0.52509 0.09269 0.9887 0.0
H1470 H 0.50148 0.12128 0.01757 0.0
C1471 C 0.48166 0.08826 0.13842 0.0
C1472 C 0.46972 0.09269 0.11738 0.0
C1473 C 0.4933 0.09102 0.11118 0.0
C1474 C 0.50802 0.11322 0.00993 0.0
H1475 H 0.56674 0.0931 0.88532 0.0
H1476 H 0.55195 0.09435 0.96317 0.0
H1477 H 0.52042 0.12477 0.95909 0.0
H1478 H 0.46067 0.10363 0.05163 0.0
H1479 H 0.48097 0.10842 0.00424 0.0
H1480 H 0.51254 0.08109 0.03878 0.0
C1481 C 0.5495 0.09959 0.92612 0.0
C1482 C 0.51886 0.11521 0.97645 0.0
C1483 C 0.55803 0.09897 0.88163 0.0
C1484 C 0.46969 0.10004 0.06887 0.0
C1485 C 0.48133 0.10289 0.04197 0.0
C1486 C 0.51431 0.09073 0.02251 0.0
C1487 C 0.53762 0.10632 0.92173 0.0
C1488 C 0.52734 0.10487 0.96421 0.0
C1489 C 0.49325 0.09838 0.0627 0.0
C1490 C 0.50548 0.10089 0.03229 0.0
H1491 H 0.54086 0.11763 0.79157 0.0
H1492 H 0.52595 0.11852 0.8683 0.0
H1493 H 0.53126 0.08444 0.97956 0.0
H1494 H 0.48201 0.0826 0.17577 0.0
H1495 H 0.50236 0.08745 0.12818 0.0
C1496 C 0.15973 0.6872 0.34588 0.0
C1497 C 0.15262 0.68911 0.39438 0.0
C1498 C 0.15904 0.69629 0.30339 0.0
C1499 C 0.14159 0.72616 0.25597 0.0
H1500 H 0.17587 0.73617 0.20459 0.0
C1501 C 0.15327 0.77743 0.17587 0.0
C1502 C 0.16085 0.77846 0.1282 0.0
C1503 C 0.15146 0.76539 0.20114 0.0
C1504 C 0.16621 0.73339 0.21789 0.0
H1505 H 0.13832 0.70143 0.43418 0.0
H1506 H 0.13732 0.71731 0.36103 0.0
H1507 H 0.17333 0.71646 0.25869 0.0
H1508 H 0.17263 0.76768 0.07011 0.0
H1509 H 0.16961 0.74665 0.11497 0.0
H1510 H 0.13463 0.7435 0.2171 0.0
C1511 C 0.14337 0.70879 0.35528 0.0
C1512 C 0.16472 0.72204 0.24867 0.0
C1513 C 0.144 0.69969 0.39755 0.0
C1514 C 0.16675 0.76721 0.10683 0.0
C1515 C 0.16504 0.75517 0.13248 0.0
C1516 C 0.14311 0.73758 0.2256 0.0
C1517 C 0.15127 0.70748 0.30862 0.0
C1518 C 0.15244 0.71843 0.26911 0.0
C1519 C 0.15728 0.75413 0.17961 0.0
C1520 C 0.15547 0.74143 0.20725 0.0
H1521 H 0.16637 0.67907 0.34187 0.0
H1522 H 0.16502 0.69482 0.26741 0.0
H1523 H 0.13196 0.72356 0.2702 0.0
H1524 H 0.14857 0.7859 0.19332 0.0
H1525 H 0.14559 0.7649 0.23794 0.0
C1526 C 0.47066 0.9079 0.48132 0.0
C1527 C 0.46901 0.9038 0.42693 0.0
C1528 C 0.48268 0.90652 0.50731 0.0
C1529 C 0.51778 0.90183 0.48099 0.0
H1530 H 0.51792 0.89164 0.63375 0.0
C1531 C 0.56095 0.91012 0.62743 0.0
C1532 C 0.56248 0.90174 0.67246 0.0
C1533 C 0.55087 0.90816 0.58998 0.0
C1534 C 0.51811 0.89425 0.59082 0.0
H1535 H 0.47873 0.89516 0.35693 0.0
H1536 H 0.49966 0.8926 0.40262 0.0
H1537 H 0.49743 0.89289 0.58464 0.0
H1538 H 0.55558 0.88389 0.70987 0.0
H1539 H 0.53821 0.8803 0.64378 0.0
H1540 H 0.53853 0.90316 0.48736 0.0
C1541 C 0.4917 0.89702 0.42495 0.0
C1542 C 0.50632 0.89519 0.5629 0.0
C1543 C 0.47969 0.89844 0.39887 0.0
C1544 C 0.55456 0.89063 0.67607 0.0
C1545 C 0.54453 0.88863 0.63844 0.0
C1546 C 0.52962 0.90087 0.50896 0.0
C1547 C 0.49331 0.90095 0.47961 0.0
C1548 C 0.50598 0.89922 0.50798 0.0
C1549 C 0.54218 0.89772 0.59657 0.0
C1550 C 0.5299 0.89725 0.56446 0.0
H1551 H 0.46266 0.91215 0.50395 0.0
H1552 H 0.48366 0.90989 0.54911 0.0
H1553 H 0.51786 0.90501 0.43872 0.0
H1554 H 0.56693 0.91874 0.62323 0.0
H1555 H 0.54935 0.91536 0.55829 0.0
C1556 C 0.35329 0.22009 0.68626 0.0
C1557 C 0.34475 0.22066 0.64144 0.0
C1558 C 0.35593 0.23121 0.7171 0.0
C1559 C 0.35299 0.26733 0.71631 0.0
H1560 H 0.35497 0.26296 0.8737 0.0
C1561 C 0.34495 0.30814 0.87606 0.0
C1562 C 0.35198 0.30745 0.92538 0.0
C1563 C 0.34667 0.29869 0.83556 0.0
C1564 C 0.35469 0.26434 0.82975 0.0
H1565 H 0.33232 0.23335 0.59361 0.0
H1566 H 0.33657 0.25269 0.64853 0.0
H1567 H 0.35234 0.244 0.81566 0.0
H1568 H 0.36732 0.2971 0.96827 0.0
H1569 H 0.37033 0.2807 0.89749 0.0
H1570 H 0.35481 0.28782 0.73124 0.0
C1571 C 0.34149 0.24372 0.65912 0.0
C1572 C 0.35318 0.25345 0.79637 0.0
C1573 C 0.33896 0.23261 0.6279 0.0
C1574 C 0.36163 0.29784 0.93108 0.0
C1575 C 0.36331 0.28839 0.89068 0.0
C1576 C 0.3544 0.27827 0.74989 0.0
C1577 C 0.34997 0.24315 0.7043 0.0
C1578 C 0.3522 0.25479 0.73924 0.0
C1579 C 0.35544 0.28838 0.84366 0.0
C1580 C 0.35519 0.27688 0.80701 0.0
H1581 H 0.35803 0.21106 0.6974 0.0
H1582 H 0.36269 0.23044 0.75094 0.0
H1583 H 0.35248 0.26871 0.67242 0.0
H1584 H 0.3375 0.31545 0.87018 0.0
H1585 H 0.34046 0.29894 0.79974 0.0
C1586 C 0.02501 0.10668 0.90317 0.0
C1587 C 0.02737 0.09397 0.88489 0.0
C1588 C 0.01343 0.10972 0.9302 0.0
C1589 C 0.99274 0.11241 0.01639 0.0
H1590 H 0.96205 0.09091 -0.00017 0.0
C1591 C 0.95573 0.10712 0.18881 0.0
C1592 C 0.94301 0.10283 0.17807 0.0
C1593 C 0.96462 0.10875 0.14633 0.0
C1594 C 0.97037 0.09727 0.00444 0.0
H1595 H 0.0196 0.07445 0.88022 0.0
H1596 H -0.00014 0.0794 0.93083 0.0
H1597 H 0.97981 0.08864 0.93566 0.0
H1598 H 0.9293 0.09798 0.11389 0.0
H1599 H 0.94464 0.10152 0.03906 0.0
H1600 H 0.98302 0.12153 0.08325 0.0
C1601 C 0.00655 0.08727 0.92232 0.0
C1602 C 0.98076 0.09574 0.96812 0.0
C1603 C 0.01795 0.08435 0.89375 0.0
C1604 C 0.93908 0.10117 0.12346 0.0
C1605 C 0.94794 0.10307 0.08063 0.0
C1606 C 0.9822 0.1142 0.05165 0.0
C1607 C 0.00411 0.10001 0.94123 0.0
C1608 C 0.99232 0.10292 0.97485 0.0
C1609 C 0.96098 0.10642 0.09164 0.0
C1610 C 0.97108 0.10628 0.04772 0.0
H1611 H 0.03208 0.11431 0.89601 0.0
H1612 H 0.01186 0.1197 0.94252 0.0
H1613 H 0.00139 0.11814 0.02357 0.0
H1614 H 0.95912 0.10844 0.23043 0.0
H1615 H 0.97455 0.1111 0.15712 0.0
C1616 C 0.8519 0.77516 0.67922 0.0
C1617 C 0.84418 0.77606 0.63188 0.0
C1618 C 0.85414 0.76313 0.70399 0.0
C1619 C 0.83981 0.73092 0.72027 0.0
H1620 H 0.87372 0.72194 0.77879 0.0
C1621 C 0.84526 0.68612 0.85638 0.0
C1622 C 0.85168 0.68869 0.90603 0.0
C1623 C 0.84656 0.69463 0.81203 0.0
C1624 C 0.86419 0.7243 0.76274 0.0
H1625 H 0.83279 0.76501 0.57332 0.0
H1626 H 0.83659 0.74399 0.61715 0.0
H1627 H 0.87121 0.74154 0.7233 0.0
H1628 H 0.86561 0.7014 0.94594 0.0
H1629 H 0.86766 0.71628 0.86952 0.0
H1630 H 0.83259 0.71413 0.76168 0.0
C1631 C 0.84091 0.75262 0.63492 0.0
C1632 C 0.86276 0.73552 0.73099 0.0
C1633 C 0.83876 0.76465 0.60984 0.0
C1634 C 0.86042 0.69919 0.90849 0.0
C1635 C 0.86165 0.70772 0.86435 0.0
C1636 C 0.84121 0.71976 0.75234 0.0
C1637 C 0.84864 0.75173 0.68223 0.0
C1638 C 0.85049 0.7391 0.71051 0.0
C1639 C 0.85427 0.70588 0.8165 0.0
C1640 C 0.85335 0.71647 0.77511 0.0
H1641 H 0.85625 0.78376 0.69717 0.0
H1642 H 0.85997 0.76277 0.74089 0.0
H1643 H 0.83022 0.73349 0.70546 0.0
H1644 H 0.83858 0.67802 0.85282 0.0
H1645 H 0.841 0.69273 0.77522 0.0
C1646 C 0.06226 0.08874 0.61627 0.0
C1647 C 0.06025 0.0967 0.66228 0.0
C1648 C 0.05346 0.08894 0.5726 0.0
C1649 C 0.02425 0.10625 0.51706 0.0
H1650 H 0.01383 0.07148 0.4737 0.0
C1651 C 0.97305 0.09418 0.43775 0.0
C1652 C 0.97203 0.08616 0.39136 0.0
C1653 C 0.98507 0.09612 0.46306 0.0
C1654 C 0.01675 0.08126 0.48476 0.0
H1655 H 0.04806 0.11194 0.69627 0.0
H1656 H 0.03267 0.11208 0.62123 0.0
H1657 H 0.03332 0.07444 0.52897 0.0
H1658 H 0.98277 0.07371 0.3357 0.0
H1659 H 0.00377 0.07692 0.38089 0.0
H1660 H 0.00723 0.11293 0.47499 0.0
C1661 C 0.04106 0.10575 0.61824 0.0
C1662 C 0.02797 0.08299 0.5162 0.0
C1663 C 0.04989 0.10562 0.66161 0.0
C1664 C 0.98325 0.07994 0.3714 0.0
C1665 C 0.99526 0.08176 0.3972 0.0
C1666 C 0.01296 0.10449 0.48613 0.0
C1667 C 0.04244 0.09705 0.57419 0.0
C1668 C 0.03171 0.09549 0.53383 0.0
C1669 C 0.9963 0.08998 0.44294 0.0
C1670 C 0.00895 0.09196 0.47072 0.0
H1671 H 0.07023 0.08186 0.6152 0.0
H1672 H 0.055 0.08233 0.53868 0.0
H1673 H 0.02697 0.11602 0.52896 0.0
H1674 H 0.96461 0.09914 0.45409 0.0
H1675 H 0.98556 0.10235 0.49878 0.0
C1676 C 0.638 0.29478 0.42651 0.0
C1677 C 0.64675 0.30517 0.41983 0.0
C1678 C 0.63739 0.28484 0.38769 0.0
C1679 C 0.64729 0.27449 0.24876 0.0
H1680 H 0.65165 0.24088 0.31846 0.0
C1681 C 0.66365 0.22869 0.12933 0.0
C1682 C 0.65813 0.21671 0.14443 0.0
C1683 C 0.66126 0.23987 0.16039 0.0
C1684 C 0.65021 0.25013 0.29814 0.0
H1685 H 0.66076 0.31392 0.36451 0.0
H1686 H 0.65965 0.29655 0.29668 0.0
H1687 H 0.64803 0.26005 0.3744 0.0
H1688 H 0.64563 0.2071 0.20347 0.0
H1689 H 0.64125 0.22656 0.25672 0.0
H1690 H 0.64951 0.26452 0.17235 0.0
C1691 C 0.65333 0.29607 0.33211 0.0
C1692 C 0.64812 0.26113 0.33029 0.0
C1693 C 0.65398 0.30601 0.37109 0.0
C1694 C 0.65015 0.21615 0.19103 0.0
C1695 C 0.64767 0.22732 0.22172 0.0
C1696 C 0.64927 0.26343 0.21643 0.0
C1697 C 0.64545 0.28512 0.34125 0.0
C1698 C 0.6467 0.27344 0.30604 0.0
C1699 C 0.65323 0.23932 0.20697 0.0
C1700 C 0.65083 0.25111 0.2408 0.0
H1701 H 0.63219 0.29389 0.46329 0.0
H1702 H 0.63103 0.27663 0.39522 0.0
H1703 H 0.64619 0.28386 0.229 0.0
H1704 H 0.66986 0.22943 0.09367 0.0
H1705 H 0.66587 0.24889 0.14829 0.0
C1706 C 0.44107 0.89992 0.09623 0.0
C1707 C 0.44384 0.89331 0.14526 0.0
C1708 C 0.44988 0.8996 0.05264 0.0
C1709 C 0.47482 0.90708 0.99537 0.0
H1710 H 0.49889 0.8789 0.96595 0.0
C1711 C 0.52012 0.91299 0.85617 0.0
C1712 C 0.53177 0.90842 0.87935 0.0
C1713 C 0.50814 0.91003 0.88036 0.0
C1714 C 0.49222 0.88685 0.97374 0.0
H1715 H 0.45738 0.88011 0.18478 0.0
H1716 H 0.47278 0.87977 0.10977 0.0
H1717 H 0.47925 0.87469 0.01928 0.0
H1718 H 0.54 0.89709 0.94585 0.0
H1719 H 0.51912 0.89193 0.98785 0.0
H1720 H 0.48793 0.91926 0.9505 0.0
C1721 C 0.46381 0.88516 0.10444 0.0
C1722 C 0.48098 0.88445 0.00428 0.0
C1723 C 0.45498 0.88541 0.14779 0.0
C1724 C 0.5312 0.9008 0.92705 0.0
C1725 C 0.51924 0.89773 0.95082 0.0
C1726 C 0.486 0.90944 0.96439 0.0
C1727 C 0.46166 0.89271 0.05728 0.0
C1728 C 0.47233 0.89462 0.01688 0.0
C1729 C 0.50759 0.90232 0.92777 0.0
C1730 C 0.49499 0.89943 0.95462 0.0
H1731 H 0.43249 0.90597 0.09264 0.0
H1732 H 0.44776 0.90525 0.01633 0.0
H1733 H 0.46853 0.91521 0.0049 0.0
H1734 H 0.52023 0.91886 0.81937 0.0
H1735 H 0.4993 0.91368 0.8617 0.0
C1736 C 0.84057 0.30943 0.63893 0.0
C1737 C 0.84839 0.30932 0.59167 0.0
C1738 C 0.84162 0.29947 0.6777 0.0
C1739 C 0.84944 0.2651 0.67842 0.0
H1740 H 0.8461 0.26757 0.83612 0.0
C1741 C 0.8491 0.21937 0.81347 0.0
C1742 C 0.84069 0.21915 0.85878 0.0
C1743 C 0.85108 0.23084 0.78411 0.0
C1744 C 0.84689 0.26672 0.79207 0.0
H1745 H 0.86437 0.29946 0.55105 0.0
H1746 H 0.86619 0.28216 0.61873 0.0
H1747 H 0.84862 0.28738 0.78167 0.0
H1748 H 0.82766 0.23077 0.90855 0.0
H1749 H 0.83076 0.25072 0.85608 0.0
H1750 H 0.84723 0.2446 0.68793 0.0
C1751 C 0.85909 0.28979 0.62519 0.0
C1752 C 0.84842 0.27806 0.76102 0.0
C1753 C 0.85808 0.29975 0.5866 0.0
C1754 C 0.83422 0.23064 0.87385 0.0
C1755 C 0.83609 0.2421 0.84406 0.0
C1756 C 0.84779 0.25381 0.70925 0.0
C1757 C 0.85049 0.28925 0.6698 0.0
C1758 C 0.84972 0.27734 0.70387 0.0
C1759 C 0.84457 0.24235 0.79886 0.0
C1760 C 0.84648 0.25446 0.76647 0.0
H1761 H 0.83306 0.3167 0.64428 0.0
H1762 H 0.83487 0.29931 0.71174 0.0
H1763 H 0.8501 0.26426 0.6343 0.0
H1764 H 0.85436 0.21072 0.80113 0.0
H1765 H 0.85786 0.2307 0.75019 0.0
C1766 C 0.43327 0.09032 0.38343 0.0
C1767 C 0.43573 0.0973 0.33504 0.0
C1768 C 0.44151 0.09163 0.42866 0.0
C1769 C 0.46957 0.1107 0.48391 0.0
H1770 H 0.48048 0.07714 0.54004 0.0
C1771 C 0.52047 0.10129 0.57202 0.0
C1772 C 0.5216 0.09358 0.61928 0.0
C1773 C 0.50846 0.10282 0.54622 0.0
C1774 C 0.4774 0.08661 0.52555 0.0
H1775 H 0.44811 0.11195 0.2979 0.0
H1776 H 0.46252 0.11404 0.37588 0.0
H1777 H 0.46149 0.07852 0.48086 0.0
H1778 H 0.511 0.08144 0.67659 0.0
H1779 H 0.48999 0.08397 0.63076 0.0
H1780 H 0.48596 0.11864 0.52658 0.0
C1781 C 0.45421 0.10763 0.37944 0.0
C1782 C 0.46647 0.08743 0.49178 0.0
C1783 C 0.44595 0.10637 0.33441 0.0
C1784 C 0.51045 0.08742 0.64017 0.0
C1785 C 0.49843 0.08885 0.61398 0.0
C1786 C 0.48057 0.10986 0.51734 0.0
C1787 C 0.45239 0.09991 0.42634 0.0
C1788 C 0.46262 0.09944 0.46936 0.0
C1789 C 0.49732 0.0966 0.5668 0.0
C1790 C 0.48478 0.09775 0.53733 0.0
H1791 H 0.42539 0.08334 0.38546 0.0
H1792 H 0.43966 0.08575 0.46461 0.0
H1793 H 0.46674 0.12014 0.46822 0.0
H1794 H 0.52887 0.1062 0.55493 0.0
H1795 H 0.50794 0.10869 0.50943 0.0
C1796 C 0.65146 0.77423 0.32153 0.0
C1797 C 0.65927 0.77498 0.36863 0.0
C1798 C 0.64933 0.7623 0.2957 0.0
C1799 C 0.66363 0.73016 0.27615 0.0
H1800 H 0.62915 0.72093 0.22464 0.0
C1801 C 0.65627 0.68426 0.14714 0.0
C1802 C 0.64904 0.68628 0.09906 0.0
C1803 C 0.65581 0.69332 0.18979 0.0
C1804 C 0.63885 0.72337 0.23861 0.0
H1805 H 0.67109 0.76381 0.42525 0.0
H1806 H 0.66752 0.74298 0.37948 0.0
H1807 H 0.6322 0.74069 0.27858 0.0
H1808 H 0.63475 0.69879 0.06018 0.0
H1809 H 0.63414 0.71462 0.13359 0.0
H1810 H 0.67044 0.71324 0.23433 0.0
C1811 C 0.66301 0.75164 0.36279 0.0
C1812 C 0.64058 0.73468 0.26948 0.0
C1813 C 0.66504 0.76356 0.38898 0.0
C1814 C 0.64051 0.69696 0.0965 0.0
C1815 C 0.64012 0.70604 0.13891 0.0
C1816 C 0.66193 0.71891 0.24489 0.0
C1817 C 0.65507 0.75088 0.3161 0.0
C1818 C 0.65303 0.73831 0.28764 0.0
C1819 C 0.64815 0.70461 0.18513 0.0
C1820 C 0.64955 0.71551 0.22479 0.0
H1821 H 0.64685 0.78284 0.30487 0.0
H1822 H 0.64332 0.76204 0.25928 0.0
H1823 H 0.67336 0.73277 0.28922 0.0
H1824 H 0.66283 0.67607 0.1507 0.0
H1825 H 0.66188 0.69176 0.22544 0.0
C1826 C 0.06368 0.90607 0.88593 0.0
C1827 C 0.06106 0.89867 0.83882 0.0
C1828 C 0.0555 0.90531 0.93155 0.0
C1829 C 0.02717 0.88724 0.9905 0.0
H1830 H 0.01686 0.92151 0.04067 0.0
C1831 C 0.97649 0.89834 0.07731 0.0
C1832 C 0.97551 0.90649 0.12331 0.0
C1833 C 0.98845 0.89639 0.05161 0.0
C1834 C 0.01977 0.91185 0.02786 0.0
H1835 H 0.04848 0.8838 0.80461 0.0
H1836 H 0.03416 0.88264 0.88324 0.0
H1837 H 0.03579 0.91922 0.98166 0.0
H1838 H 0.98635 0.91899 0.17842 0.0
H1839 H 0.00728 0.91573 0.1327 0.0
H1840 H 0.01067 0.88002 0.03464 0.0
C1841 C 0.04255 0.88898 0.8855 0.0
C1842 C 0.03067 0.91051 0.99418 0.0
C1843 C 0.05076 0.88969 0.84009 0.0
C1844 C 0.98678 0.91268 0.14299 0.0
C1845 C 0.99875 0.91082 0.11686 0.0
C1846 C 0.01621 0.88861 0.0238 0.0
C1847 C 0.04451 0.89715 0.93092 0.0
C1848 C 0.03431 0.89822 0.9739 0.0
C1849 C -0.0003 0.90263 0.071 0.0
C1850 C 0.01221 0.90097 0.04166 0.0
H1851 H 0.07163 0.913 0.88653 0.0
H1852 H 0.05746 0.91152 0.96639 0.0
H1853 H 0.02984 0.87761 0.97649 0.0
H1854 H 0.96801 0.8934 0.06117 0.0
H1855 H 0.98885 0.89018 0.01582 0.0
C1856 C 0.65223 0.80704 0.6392 0.0
C1857 C 0.64793 0.80391 0.58621 0.0
C1858 C 0.65138 0.79788 0.68145 0.0
C1859 C 0.63835 0.76468 0.71517 0.0
H1860 H 0.66916 0.763 0.80628 0.0
C1861 C 0.67001 0.72442 0.84521 0.0
C1862 C 0.65977 0.71674 0.86501 0.0
C1863 C 0.66743 0.73613 0.81824 0.0
C1864 C 0.66054 0.76322 0.78081 0.0
H1865 H 0.63863 0.78902 0.53688 0.0
H1866 H 0.63762 0.77304 0.60913 0.0
H1867 H 0.66596 0.78151 0.7464 0.0
H1868 H 0.63885 0.7155 0.87458 0.0
H1869 H 0.63434 0.73618 0.83028 0.0
H1870 H 0.63348 0.74591 0.74592 0.0
C1871 C 0.64137 0.78258 0.61906 0.0
C1872 C 0.65855 0.77403 0.74714 0.0
C1873 C 0.64202 0.79178 0.57723 0.0
C1874 C 0.64693 0.72115 0.85889 0.0
C1875 C 0.64435 0.733 0.83317 0.0
C1876 C 0.64048 0.75376 0.74791 0.0
C1877 C 0.64641 0.78535 0.67136 0.0
C1878 C 0.64756 0.77478 0.71292 0.0
C1879 C 0.65454 0.74058 0.81165 0.0
C1880 C 0.65174 0.75274 0.78045 0.0
H1881 H 0.65672 0.81636 0.64753 0.0
H1882 H 0.65505 0.8005 0.72151 0.0
H1883 H 0.62962 0.76501 0.69043 0.0
H1884 H 0.68 0.7212 0.84923 0.0
H1885 H 0.67555 0.7415 0.80139 0.0
C1886 C 0.43899 0.4069 0.89167 0.0
C1887 C 0.44165 0.4005 0.84207 0.0
C1888 C 0.44762 0.40591 0.93575 0.0
C1889 C 0.47732 0.38857 0.98561 0.0
H1890 H 0.48585 0.42231 0.04694 0.0
C1891 C 0.5274 0.40048 0.07717 0.0
C1892 C 0.52789 0.40775 0.12584 0.0
C1893 C 0.5156 0.39851 0.05019 0.0
C1894 C 0.48346 0.41278 0.03093 0.0
H1895 H 0.45487 0.38716 0.80149 0.0
H1896 H 0.46994 0.38563 0.87755 0.0
H1897 H 0.46688 0.42007 0.9881 0.0
H1898 H 0.51637 0.41871 0.18425 0.0
H1899 H 0.49573 0.4154 0.13646 0.0
H1900 H 0.49431 0.38147 0.02663 0.0
C1901 C 0.46119 0.39134 0.88291 0.0
C1902 C 0.47254 0.41146 0.99735 0.0
C1903 C 0.45254 0.39227 0.83901 0.0
C1904 C 0.51632 0.41308 0.14678 0.0
C1905 C 0.50451 0.4112 0.11944 0.0
C1906 C 0.4883 0.38992 0.01886 0.0
C1907 C 0.45909 0.39853 0.93108 0.0
C1908 C 0.4695 0.3994 0.97324 0.0
C1909 C 0.50403 0.40385 0.07099 0.0
C1910 C 0.49163 0.4021 0.04084 0.0
H1911 H 0.43061 0.41322 0.89559 0.0
H1912 H 0.44556 0.41134 0.97273 0.0
H1913 H 0.47513 0.3791 0.96855 0.0
H1914 H 0.53613 0.39622 0.05997 0.0
H1915 H 0.51556 0.39298 0.01246 0.0
C1916 C 0.82812 0.27314 0.33942 0.0
C1917 C 0.83813 0.2814 0.35703 0.0
C1918 C 0.83103 0.26155 0.31209 0.0
C1919 C 0.85815 0.24505 0.23783 0.0
H1920 H 0.83426 0.21596 0.24356 0.0
C1921 C 0.85768 0.20557 0.07275 0.0
C1922 C 0.85254 0.19321 0.0842 0.0
C1923 C 0.85799 0.21517 0.11303 0.0
C1924 C 0.84123 0.22384 0.24222 0.0
H1925 H 0.85903 0.28384 0.36205 0.0
H1926 H 0.86417 0.26339 0.31718 0.0
H1927 H 0.83059 0.23464 0.30192 0.0
H1928 H 0.84475 0.18086 0.14816 0.0
H1929 H 0.84589 0.19744 0.21948 0.0
H1930 H 0.86912 0.23402 0.17998 0.0
C1931 C 0.85404 0.26601 0.32203 0.0
C1932 C 0.83895 0.23474 0.27502 0.0
C1933 C 0.85111 0.27774 0.34809 0.0
C1934 C 0.84865 0.19034 0.13798 0.0
C1935 C 0.84918 0.19991 0.17869 0.0
C1936 C 0.86059 0.23404 0.20599 0.0
C1937 C 0.84405 0.25781 0.30299 0.0
C1938 C 0.84717 0.24566 0.27216 0.0
C1939 C 0.8534 0.2126 0.16622 0.0
C1940 C 0.85195 0.22344 0.20641 0.0
H1941 H 0.81802 0.27578 0.34566 0.0
H1942 H 0.82303 0.25571 0.29714 0.0
H1943 H 0.86469 0.25325 0.23385 0.0
H1944 H 0.86072 0.20815 0.0317 0.0
H1945 H 0.86114 0.22482 0.10124 0.0
C1946 C 0.96722 0.59418 0.49496 0.0
C1947 C 0.96565 0.59664 0.55109 0.0
C1948 C 0.97939 0.59564 0.47023 0.0
C1949 C 0.01463 0.59752 0.50042 0.0
H1950 H 0.01593 0.61126 0.35279 0.0
C1951 C 0.05782 0.58982 0.35427 0.0
C1952 C 0.05989 0.59878 0.3117 0.0
C1953 C 0.04776 0.59173 0.39184 0.0
C1954 C 0.01583 0.60765 0.39443 0.0
H1955 H 0.97563 0.60249 0.62544 0.0
H1956 H 0.99678 0.60525 0.58207 0.0
H1957 H 0.99525 0.61014 0.40032 0.0
H1958 H 0.05406 0.61751 0.27908 0.0
H1959 H 0.03679 0.62105 0.34575 0.0
H1960 H 0.03528 0.59515 0.49455 0.0
C1961 C 0.98867 0.602 0.55729 0.0
C1962 C 0.0039 0.60678 0.42134 0.0
C1963 C 0.97652 0.60047 0.58209 0.0
C1964 C 0.05258 0.61033 0.31093 0.0
C1965 C 0.04261 0.6123 0.34886 0.0
C1966 C 0.02661 0.59846 0.47357 0.0
C1967 C 0.99024 0.59968 0.50098 0.0
C1968 C 0.0031 0.60145 0.47418 0.0
C1969 C 0.03965 0.60271 0.388 0.0
C1970 C 0.02732 0.60331 0.41981 0.0
H1971 H 0.95906 0.59114 0.47001 0.0
H1972 H 0.98029 0.5935 0.42699 0.0
H1973 H 0.01437 0.59332 0.54105 0.0
H1974 H 0.0633 0.58083 0.3562 0.0
H1975 H 0.04578 0.58411 0.42126 0.0
C1976 C 0.66218 0.26555 0.61719 0.0
C1977 C 0.65691 0.27714 0.63816 0.0
C1978 C 0.66047 0.25379 0.64501 0.0
C1979 C 0.63956 0.23768 0.74716 0.0
H1980 H 0.66955 0.21567 0.77297 0.0
C1981 C 0.64188 0.20005 0.92066 0.0
C1982 C 0.64974 0.18896 0.91456 0.0
C1983 C 0.6411 0.20929 0.87895 0.0
C1984 C 0.66099 0.22152 0.76516 0.0
H1985 H 0.64569 0.28546 0.7048 0.0
H1986 H 0.64275 0.26496 0.75326 0.0
H1987 H 0.67177 0.23496 0.71596 0.0
H1988 H 0.66205 0.17833 0.85798 0.0
H1989 H 0.66046 0.19435 0.78465 0.0
H1990 H 0.6288 0.22436 0.79693 0.0
C1991 C 0.64811 0.26495 0.71508 0.0
C1992 C 0.66229 0.23262 0.73264 0.0
C1993 C 0.6499 0.27672 0.68754 0.0
C1994 C 0.65601 0.18683 0.86421 0.0
C1995 C 0.65518 0.19606 0.82233 0.0
C1996 C 0.63822 0.22653 0.77939 0.0
C1997 C 0.65336 0.25336 0.69409 0.0
C1998 C 0.65166 0.24096 0.72429 0.0
C1999 C 0.6481 0.20763 0.82998 0.0
C2000 C 0.64899 0.21847 0.78979 0.0
H2001 H 0.66761 0.26555 0.57918 0.0
H2002 H 0.66458 0.245 0.62778 0.0
H2003 H 0.63114 0.24382 0.7406 0.0
H2004 H 0.63689 0.20199 0.95886 0.0
H2005 H 0.63563 0.21811 0.88655 0.0
C2006 C 0.98047 0.4118 0.8588 0.0
C2007 C 0.96853 0.40774 0.88107 0.0
C2008 C 0.99216 0.40899 0.88562 0.0
C2009 C 0.00679 0.38705 0.98791 0.0
H2010 H 0.03061 0.41554 0.01512 0.0
C2011 C 0.04251 0.38777 0.16783 0.0
C2012 C 0.05395 0.39521 0.16433 0.0
C2013 C 0.03392 0.38714 0.12367 0.0
C2014 C 0.02427 0.40736 0.00684 0.0
H2015 H 0.95951 0.39741 0.9486 0.0
H2016 H 0.97988 0.39251 0.99522 0.0
H2017 H 0.01182 0.41895 0.95628 0.0
H2018 H 0.06599 0.40672 0.10981 0.0
H2019 H 0.05113 0.40535 0.0322 0.0
H2020 H 0.01909 0.3755 0.03922 0.0
C2021 C 0.98021 0.3978 0.95689 0.0
C2022 C 0.01346 0.40935 0.97327 0.0
C2023 C 0.96853 0.40071 0.93042 0.0
C2024 C 0.05718 0.40103 0.11408 0.0
C2025 C 0.04861 0.40034 0.06971 0.0
C2026 C 0.01767 0.38501 0.02113 0.0
C2027 C 0.99214 0.40193 0.93486 0.0
C2028 C 0.00442 0.39932 0.96471 0.0
C2029 C 0.03662 0.39384 0.07477 0.0
C2030 C 0.02634 0.39525 0.03229 0.0
H2031 H 0.9808 0.41721 0.82077 0.0
H2032 H 0.00122 0.41226 0.86768 0.0
H2033 H 8e-05 0.37908 0.9812 0.0
H2034 H 0.03973 0.38311 0.20585 0.0
H2035 H 0.02477 0.38211 0.12935 0.0
C2036 C 0.82776 0.72482 0.20556 0.0
C2037 C 0.83527 0.72055 0.161 0.0
C2038 C 0.82964 0.73723 0.22744 0.0
C2039 C 0.85453 0.76256 0.24059 0.0
H2040 H 0.82566 0.78295 0.2958 0.0
C2041 C 0.85863 0.79933 0.41646 0.0
C2042 C 0.85005 0.80997 0.41811 0.0
C2043 C 0.85817 0.7905 0.3731 0.0
C2044 C 0.83384 0.77753 0.27972 0.0
H2045 H 0.85038 0.72612 0.10346 0.0
H2046 H 0.8536 0.74778 0.1417 0.0
H2047 H 0.82137 0.76335 0.24289 0.0
H2048 H 0.83522 0.82043 0.37268 0.0
H2049 H 0.83453 0.80505 0.29674 0.0
H2050 H 0.867 0.77662 0.27844 0.0
C2051 C 0.84637 0.74147 0.15999 0.0
C2052 C 0.83137 0.7662 0.25004 0.0
C2053 C 0.84447 0.72908 0.13799 0.0
C2054 C 0.84187 0.81226 0.37297 0.0
C2055 C 0.8414 0.8034 0.32961 0.0
C2056 C 0.85701 0.77389 0.27043 0.0
C2057 C 0.83907 0.74564 0.20531 0.0
C2058 C 0.84168 0.75842 0.23129 0.0
C2059 C 0.84914 0.79213 0.33044 0.0
C2060 C 0.84669 0.78134 0.29141 0.0
H2061 H 0.8206 0.7185 0.22423 0.0
H2062 H 0.82397 0.74009 0.26282 0.0
H2063 H 0.86269 0.75674 0.22692 0.0
H2064 H 0.86511 0.79732 0.45039 0.0
H2065 H 0.86424 0.7819 0.37514 0.0
C2066 C 0.51506 0.58713 0.36074 0.0
C2067 C 0.52671 0.59236 0.38124 0.0
C2068 C 0.50326 0.58943 0.3876 0.0
C2069 C 0.48739 0.61177 0.48499 0.0
H2070 H 0.46537 0.58231 0.51968 0.0
C2071 C 0.45164 0.61148 0.66501 0.0
C2072 C 0.44058 0.60346 0.66308 0.0
C2073 C 0.46028 0.61192 0.62098 0.0
C2074 C 0.4712 0.59072 0.5093 0.0
H2075 H 0.53511 0.60418 0.44583 0.0
H2076 H 0.51457 0.60818 0.49248 0.0
H2077 H 0.48431 0.57924 0.46132 0.0
H2078 H 0.42927 0.59057 0.61132 0.0
H2079 H 0.44422 0.59157 0.5339 0.0
H2080 H 0.47443 0.62323 0.5337 0.0
C2081 C 0.51453 0.60238 0.45546 0.0
C2082 C 0.4821 0.58893 0.476 0.0
C2083 C 0.52632 0.59998 0.42898 0.0
C2084 C 0.43778 0.59675 0.61436 0.0
C2085 C 0.4464 0.59723 0.57013 0.0
C2086 C 0.47643 0.61359 0.51794 0.0
C2087 C 0.50288 0.59713 0.43508 0.0
C2088 C 0.49049 0.59936 0.46474 0.0
C2089 C 0.45802 0.60442 0.57379 0.0
C2090 C 0.4684 0.60302 0.53175 0.0
H2091 H 0.51503 0.58124 0.32399 0.0
H2092 H 0.49441 0.58529 0.37094 0.0
H2093 H 0.49357 0.62004 0.47614 0.0
H2094 H 0.45408 0.61683 0.70182 0.0
H2095 H 0.46915 0.6175 0.62554 0.0
C2096 C 0.34534 0.18591 0.36236 0.0
C2097 C 0.3517 0.18882 0.41178 0.0
C2098 C 0.34626 0.19436 0.31768 0.0
C2099 C 0.36317 0.2242 0.26647 0.0
H2100 H 0.32914 0.23235 0.20702 0.0
C2101 C 0.3498 0.27447 0.18123 0.0
C2102 C 0.34237 0.27514 0.13303 0.0
C2103 C 0.35223 0.26252 0.20629 0.0
C2104 C 0.33875 0.23006 0.22244 0.0
H2105 H 0.36498 0.20227 0.45138 0.0
H2106 H 0.3664 0.21705 0.37436 0.0
H2107 H 0.33182 0.2133 0.26498 0.0
H2108 H 0.33166 0.26378 0.07329 0.0
H2109 H 0.33575 0.24287 0.11783 0.0
H2110 H 0.36989 0.24143 0.22602 0.0
C2111 C 0.36075 0.20823 0.36958 0.0
C2112 C 0.34032 0.21909 0.25551 0.0
C2113 C 0.35988 0.19976 0.41405 0.0
C2114 C 0.3374 0.26359 0.11046 0.0
C2115 C 0.33972 0.25162 0.13591 0.0
C2116 C 0.36157 0.23523 0.23377 0.0
C2117 C 0.35355 0.20591 0.32161 0.0
C2118 C 0.35248 0.21622 0.27914 0.0
C2119 C 0.34719 0.25098 0.18401 0.0
C2120 C 0.34927 0.23845 0.21262 0.0
H2121 H 0.33907 0.17748 0.35905 0.0
H2122 H 0.34083 0.19214 0.28088 0.0
H2123 H 0.37271 0.22214 0.28314 0.0
H2124 H 0.3538 0.28319 0.19962 0.0
H2125 H 0.35785 0.26234 0.24382 0.0
C2126 C 0.56183 0.59496 0.11499 0.0
C2127 C 0.55928 0.60144 0.1645 0.0
C2128 C 0.55322 0.59606 0.07091 0.0
C2129 C 0.52381 0.61381 0.02074 0.0
H2130 H 0.51465 0.5801 0.96079 0.0
C2131 C 0.4735 0.60258 0.92944 0.0
C2132 C 0.47287 0.59504 0.88153 0.0
C2133 C 0.48535 0.60449 0.95621 0.0
C2134 C 0.51722 0.58963 0.97638 0.0
H2135 H 0.54629 0.61505 0.20488 0.0
H2136 H 0.53125 0.61677 0.1288 0.0
H2137 H 0.53368 0.58213 0.01939 0.0
H2138 H 0.4842 0.5836 0.8241 0.0
H2139 H 0.5049 0.58683 0.87142 0.0
H2140 H 0.50694 0.62114 0.97949 0.0
C2141 C 0.5399 0.61091 0.12354 0.0
C2142 C 0.52817 0.59082 0.00984 0.0
C2143 C 0.54853 0.60986 0.16744 0.0
C2144 C 0.48436 0.58943 0.861 0.0
C2145 C 0.4962 0.59126 0.88809 0.0
C2146 C 0.5128 0.6126 0.98757 0.0
C2147 C 0.54188 0.60363 0.0755 0.0
C2148 C 0.53144 0.60287 0.03346 0.0
C2149 C 0.49681 0.59883 0.93592 0.0
C2150 C 0.50923 0.60043 0.96606 0.0
H2151 H 0.5701 0.5885 0.11116 0.0
H2152 H 0.55518 0.59055 0.03402 0.0
H2153 H 0.52616 0.62328 0.03747 0.0
H2154 H 0.46484 0.60705 0.94629 0.0
H2155 H 0.48548 0.6102 0.99347 0.0
C2156 C 0.1429 0.79303 0.9245 0.0
C2157 C 0.14757 0.80558 0.91305 0.0
C2158 C 0.14245 0.78358 0.88362 0.0
C2159 C 0.15799 0.77593 0.75052 0.0
H2160 H 0.13561 0.74575 0.76167 0.0
C2161 C 0.17152 0.72748 0.64707 0.0
C2162 C 0.1616 0.7189 0.63131 0.0
C2163 C 0.16855 0.73887 0.67571 0.0
C2164 C 0.14183 0.75417 0.7569 0.0
H2165 H 0.15436 0.81839 0.84868 0.0
H2166 H 0.15293 0.80207 0.7764 0.0
H2167 H 0.13122 0.76462 0.81772 0.0
H2168 H 0.14077 0.71569 0.63096 0.0
H2169 H 0.13548 0.73583 0.67806 0.0
H2170 H 0.16823 0.76572 0.68784 0.0
C2171 C 0.15014 0.79935 0.81756 0.0
C2172 C 0.13942 0.76497 0.79 0.0
C2173 C 0.15083 0.80876 0.85885 0.0
C2174 C 0.14864 0.72205 0.64342 0.0
C2175 C 0.14562 0.73359 0.67077 0.0
C2176 C 0.16021 0.76524 0.71647 0.0
C2177 C 0.14641 0.78649 0.82983 0.0
C2178 C 0.14771 0.77586 0.78858 0.0
C2179 C 0.15554 0.74211 0.688 0.0
C2180 C 0.1524 0.75404 0.72026 0.0
H2181 H 0.14037 0.79021 0.96587 0.0
H2182 H 0.1397 0.77381 0.89529 0.0
H2183 H 0.1647 0.78403 0.7483 0.0
H2184 H 0.18161 0.72523 0.6384 0.0
H2185 H 0.17652 0.74495 0.68918 0.0
C2186 C 0.02112 0.39865 0.43133 0.0
C2187 C 0.02172 0.40584 0.38245 0.0
C2188 C 0.00929 0.39698 0.45855 0.0
C2189 C 0.97757 0.41215 0.47769 0.0
H2190 H 0.96825 0.37888 0.54141 0.0
C2191 C 0.93295 0.40807 0.61679 0.0
C2192 C 0.93535 0.40167 0.6666 0.0
C2193 C 0.94153 0.40666 0.57278 0.0
C2194 C 0.97071 0.38824 0.52399 0.0
H2195 H 0.01036 0.4169 0.32379 0.0
H2196 H 0.98971 0.4141 0.37192 0.0
H2197 H 0.98752 0.38055 0.48342 0.0
H2198 H 0.94803 0.38788 0.70763 0.0
H2199 H 0.96305 0.38564 0.63177 0.0
H2200 H 0.96121 0.42003 0.52006 0.0
C2201 C 0.99841 0.40975 0.38897 0.0
C2202 C 0.98175 0.38919 0.4908 0.0
C2203 C 0.01023 0.41133 0.36143 0.0
C2204 C 0.9459 0.39301 0.66995 0.0
C2205 C 0.95452 0.39167 0.62615 0.0
C2206 C 0.96661 0.41123 0.51123 0.0
C2207 C 0.99783 0.40253 0.43775 0.0
C2208 C 0.98543 0.40121 0.46826 0.0
C2209 C 0.95272 0.39887 0.57778 0.0
C2210 C 0.9632 0.39933 0.53578 0.0
H2211 H 0.02979 0.39427 0.44854 0.0
H2212 H 0.00917 0.39152 0.4965 0.0
H2213 H 0.98024 0.42157 0.46127 0.0
H2214 H 0.92482 0.41471 0.61266 0.0
H2215 H 0.93969 0.41211 0.53562 0.0
C2216 C 0.32869 0.72837 0.32177 0.0
C2217 C 0.33929 0.72233 0.34765 0.0
C2218 C 0.33049 0.73979 0.29176 0.0
C2219 C 0.35094 0.76831 0.27413 0.0
H2220 H 0.34038 0.76692 0.12176 0.0
C2221 C 0.34513 0.81179 0.12056 0.0
C2222 C 0.35084 0.80977 0.0689 0.0
C2223 C 0.34542 0.80196 0.16022 0.0
C2224 C 0.34339 0.76741 0.16422 0.0
H2225 H 0.35998 0.72378 0.36435 0.0
H2226 H 0.36302 0.74396 0.3128 0.0
H2227 H 0.33657 0.74815 0.18109 0.0
H2228 H 0.36221 0.79625 0.02007 0.0
H2229 H 0.36244 0.77911 0.08886 0.0
H2230 H 0.35749 0.78776 0.25714 0.0
C2231 C 0.35338 0.73974 0.3154 0.0
C2232 C 0.34113 0.75675 0.19814 0.0
C2233 C 0.35164 0.72817 0.34449 0.0
C2234 C 0.35767 0.79813 0.05928 0.0
C2235 C 0.35778 0.78828 0.09851 0.0
C2236 C 0.35295 0.77913 0.24035 0.0
C2237 C 0.34286 0.74553 0.28812 0.0
C2238 C 0.34493 0.75708 0.25325 0.0
C2239 C 0.35128 0.78995 0.14848 0.0
C2240 C 0.3493 0.77869 0.18501 0.0
H2241 H 0.31907 0.72408 0.32352 0.0
H2242 H 0.32224 0.74413 0.27107 0.0
H2243 H 0.35393 0.76875 0.31661 0.0
H2244 H 0.33984 0.82066 0.12929 0.0
H2245 H 0.34035 0.80344 0.19859 0.0
C2246 C 0.95223 0.61463 0.82818 0.0
C2247 C 0.94107 0.60679 0.83218 0.0
C2248 C 0.96109 0.61529 0.8714 0.0
C2249 C 0.97822 0.61703 0.97157 0.0
H2250 H 0.98512 0.5828 0.03161 0.0
C2251 C 0.02831 0.60149 0.05406 0.0
C2252 C 0.02874 0.59408 0.10237 0.0
C2253 C 0.01641 0.60446 0.02946 0.0
C2254 C 0.98321 0.59247 0.01597 0.0
H2255 H 0.92973 0.59467 0.887 0.0
H2256 H 0.94503 0.59611 0.96303 0.0
H2257 H 0.96581 0.58627 0.97607 0.0
H2258 H 0.01701 0.584 0.16282 0.0
H2259 H 0.99622 0.58904 0.11923 0.0
H2260 H 0.99605 0.623 0.00949 0.0
C2261 C 0.94715 0.60139 0.92574 0.0
C2262 C 0.97208 0.5945 0.98431 0.0
C2263 C 0.93832 0.60066 0.8823 0.0
C2264 C 0.01701 0.5897 0.12554 0.0
C2265 C 0.00511 0.59257 0.10061 0.0
C2266 C 0.98941 0.61496 0.00287 0.0
C2267 C 0.95893 0.60823 0.91986 0.0
C2268 C 0.96959 0.60673 0.96061 0.0
C2269 C 0.00469 0.59999 0.05234 0.0
C2270 C 0.99216 0.60259 0.02434 0.0
H2271 H 0.95462 0.61956 0.79031 0.0
H2272 H 0.97005 0.62061 0.86511 0.0
H2273 H 0.9765 0.62663 0.9548 0.0
H2274 H 0.03716 0.60504 0.03526 0.0
H2275 H 0.0164 0.61003 0.99183 0.0
C2276 C 0.15936 0.26583 0.89243 0.0
C2277 C 0.15419 0.27744 0.87117 0.0
C2278 C 0.15727 0.25401 0.86558 0.0
C2279 C 0.13587 0.23781 0.7654 0.0
H2280 H 0.16603 0.21647 0.73397 0.0
C2281 C 0.13831 0.20253 0.58422 0.0
C2282 C 0.14667 0.19172 0.58653 0.0
C2283 C 0.13728 0.21098 0.6287 0.0
C2284 C 0.15742 0.2221 0.74343 0.0
H2285 H 0.14263 0.28572 0.80549 0.0
H2286 H 0.139 0.26509 0.75879 0.0
H2287 H 0.16828 0.23537 0.79307 0.0
H2288 H 0.15948 0.1806 0.63931 0.0
H2289 H 0.15743 0.19521 0.7175 0.0
H2290 H 0.12503 0.22469 0.71498 0.0
C2291 C 0.14459 0.26513 0.79637 0.0
C2292 C 0.15874 0.23298 0.77716 0.0
C2293 C 0.14678 0.27696 0.82287 0.0
C2294 C 0.15307 0.18892 0.63597 0.0
C2295 C 0.15198 0.19735 0.68066 0.0
C2296 C 0.13451 0.22686 0.73201 0.0
C2297 C 0.14986 0.25354 0.81731 0.0
C2298 C 0.14806 0.24114 0.78725 0.0
C2299 C 0.1445 0.20877 0.67672 0.0
C2300 C 0.14535 0.21907 0.71935 0.0
H2301 H 0.16509 0.26588 0.92963 0.0
H2302 H 0.16141 0.24521 0.88271 0.0
H2303 H 0.12742 0.24383 0.7733 0.0
H2304 H 0.13318 0.20496 0.54686 0.0
H2305 H 0.13149 0.21971 0.62389 0.0
C2306 C 0.48601 0.41333 0.64669 0.0
C2307 C 0.47422 0.4086 0.62531 0.0
C2308 C 0.49776 0.41089 0.61971 0.0
C2309 C 0.51309 0.38891 0.51936 0.0
H2310 H 0.53594 0.41803 0.48936 0.0
C2311 C 0.54896 0.38978 0.33986 0.0
C2312 C 0.5602 0.39753 0.34299 0.0
C2313 C 0.54031 0.38917 0.3838 0.0
C2314 C 0.52988 0.4097 0.49842 0.0
H2315 H 0.46554 0.39754 0.55902 0.0
H2316 H 0.48601 0.39331 0.51211 0.0
H2317 H 0.51703 0.42114 0.54783 0.0
H2318 H 0.57181 0.40967 0.39671 0.0
H2319 H 0.55683 0.40835 0.47394 0.0
H2320 H 0.52579 0.37751 0.46921 0.0
C2321 C 0.48618 0.39881 0.54992 0.0
C2322 C 0.51899 0.41151 0.53178 0.0
C2323 C 0.47444 0.40135 0.57656 0.0
C2324 C 0.56317 0.40373 0.39273 0.0
C2325 C 0.55453 0.40306 0.43687 0.0
C2326 C 0.52404 0.38707 0.48634 0.0
C2327 C 0.49796 0.40356 0.57117 0.0
C2328 C 0.5103 0.40123 0.54136 0.0
C2329 C 0.54274 0.3962 0.4321 0.0
C2330 C 0.53237 0.39753 0.47422 0.0
H2331 H 0.48617 0.41893 0.68424 0.0
H2332 H 0.5067 0.41463 0.63705 0.0
H2333 H 0.50667 0.38076 0.5269 0.0
H2334 H 0.54639 0.38483 0.30224 0.0
H2335 H 0.53131 0.38385 0.37837 0.0
loop_
_geom_bond_atom_site_label_1
_geom_bond_atom_site_label_2
_geom_bond_distance
_geom_bond_site_symmetry_2
_ccdc_geom_bond_type
C0 O1 1.160 . S
C0 O7 1.185 . S
O1 C0 1.160 . S
O2 Zn3 1.899 . S
O2 C10 1.284 . S
Zn3 O2 1.899 . S
Zn3 O4 2.032 . S
Zn3 O7 2.086 . S
Zn3 O12 1.977 . S
O4 Zn3 2.032 . S
O4 C8 1.278 . S
C5 O6 1.203 . S
C5 O12 1.267 . S
O6 C5 1.203 . S
O7 C0 1.185 . S
O7 Zn3 2.086 . S
C8 O4 1.278 . S
C8 O9 1.211 . S
O9 C8 1.211 . S
C10 O2 1.284 . S
C10 O11 1.273 . S
O11 C10 1.273 . S
O12 Zn3 1.977 . S
O12 C5 1.267 . S
C13 O14 1.160 . S
C13 O20 1.185 . S
O14 C13 1.160 . S
O15 Zn16 1.899 . S
O15 C23 1.284 . S
Zn16 O15 1.899 . S
Zn16 O17 2.032 . S
Zn16 O20 2.086 . S
Zn16 O25 1.977 . S
O17 Zn16 2.032 . S
O17 C21 1.278 . S
C18 O19 1.203 . S
C18 O25 1.267 . S
O19 C18 1.203 . S
O20 C13 1.185 . S
O20 Zn16 2.086 . S
C21 O17 1.278 . S
C21 O22 1.211 . S
O22 C21 1.211 . S
C23 O15 1.284 . S
C23 O24 1.273 . S
O24 C23 1.273 . S
O25 Zn16 1.977 . S
O25 C18 1.267 . S
C26 O27 1.160 . S
C26 O33 1.185 . S
O27 C26 1.160 . S
O28 Zn29 1.899 . S
O28 C36 1.284 . S
Zn29 O28 1.899 . S
Zn29 O30 2.032 . S
Zn29 O33 2.086 . S
Zn29 O38 1.977 . S
O30 Zn29 2.032 . S
O30 C34 1.278 . S
C31 O32 1.203 . S
C31 O38 1.267 . S
O32 C31 1.203 . S
O33 C26 1.185 . S
O33 Zn29 2.086 . S
C34 O30 1.278 . S
C34 O35 1.211 . S
O35 C34 1.211 . S
C36 O28 1.284 . S
C36 O37 1.273 . S
O37 C36 1.273 . S
O38 Zn29 1.977 . S
O38 C31 1.267 . S
C39 O40 1.160 . S
C39 O46 1.185 . S
O40 C39 1.160 . S
O41 Zn42 1.899 . S
O41 C49 1.284 . S
Zn42 O41 1.899 . S
Zn42 O43 2.032 . S
Zn42 O46 2.086 . S
Zn42 O51 1.977 . S
O43 Zn42 2.032 . S
O43 C47 1.278 . S
C44 O45 1.203 . S
C44 O51 1.267 . S
O45 C44 1.203 . S
O46 C39 1.185 . S
O46 Zn42 2.086 . S
C47 O43 1.278 . S
C47 O48 1.211 . S
O48 C47 1.211 . S
C49 O41 1.284 . S
C49 O50 1.273 . S
O50 C49 1.273 . S
O51 Zn42 1.977 . S
O51 C44 1.267 . S
C52 O53 1.160 . S
C52 O59 1.185 . S
O53 C52 1.160 . S
O54 Zn55 1.899 . S
O54 C62 1.284 . S
Zn55 O54 1.899 . S
Zn55 O56 2.032 . S
Zn55 O59 2.086 . S
Zn55 O64 1.977 . S
O56 Zn55 2.032 . S
O56 C60 1.278 . S
C57 O58 1.203 . S
C57 O64 1.267 . S
O58 C57 1.203 . S
O59 C52 1.185 . S
O59 Zn55 2.086 . S
C60 O56 1.278 . S
C60 O61 1.211 . S
O61 C60 1.211 . S
C62 O54 1.284 . S
C62 O63 1.273 . S
O63 C62 1.273 . S
O64 Zn55 1.977 . S
O64 C57 1.267 . S
C65 O66 1.160 . S
C65 O72 1.185 . S
O66 C65 1.160 . S
O67 Zn68 1.899 . S
O67 C75 1.284 . S
Zn68 O67 1.899 . S
Zn68 O69 2.032 . S
Zn68 O72 2.086 . S
Zn68 O77 1.977 . S
O69 Zn68 2.032 . S
O69 C73 1.278 . S
C70 O71 1.203 . S
C70 O77 1.267 . S
O71 C70 1.203 . S
O72 C65 1.185 . S
O72 Zn68 2.086 . S
C73 O69 1.278 . S
C73 O74 1.211 . S
O74 C73 1.211 . S
C75 O67 1.284 . S
C75 O76 1.273 . S
O76 C75 1.273 . S
O77 Zn68 1.977 . S
O77 C70 1.267 . S
C78 O79 1.160 . S
C78 O85 1.185 . S
O79 C78 1.160 . S
O80 Zn81 1.899 . S
O80 C88 1.284 . S
Zn81 O80 1.899 . S
Zn81 O82 2.032 . S
Zn81 O85 2.086 . S
Zn81 O90 1.977 . S
O82 Zn81 2.032 . S
O82 C86 1.278 . S
C83 O84 1.203 . S
C83 O90 1.267 . S
O84 C83 1.203 . S
O85 C78 1.185 . S
O85 Zn81 2.086 . S
C86 O82 1.278 . S
C86 O87 1.211 . S
O87 C86 1.211 . S
C88 O80 1.284 . S
C88 O89 1.273 . S
O89 C88 1.273 . S
O90 Zn81 1.977 . S
O90 C83 1.267 . S
C91 O92 1.160 . S
C91 O98 1.185 . S
O92 C91 1.160 . S
O93 Zn94 1.899 . S
O93 C101 1.284 . S
Zn94 O93 1.899 . S
Zn94 O95 2.032 . S
Zn94 O98 2.086 . S
Zn94 O103 1.977 . S
O95 Zn94 2.032 . S
O95 C99 1.278 . S
C96 O97 1.203 . S
C96 O103 1.267 . S
O97 C96 1.203 . S
O98 C91 1.185 . S
O98 Zn94 2.086 . S
C99 O95 1.278 . S
C99 O100 1.211 . S
O100 C99 1.211 . S
C101 O93 1.284 . S
C101 O102 1.273 . S
O102 C101 1.273 . S
O103 Zn94 1.977 . S
O103 C96 1.267 . S
C104 O105 1.160 . S
C104 O111 1.185 . S
O105 C104 1.160 . S
O106 Zn107 1.899 . S
O106 C114 1.284 . S
Zn107 O106 1.899 . S
Zn107 O108 2.032 . S
Zn107 O111 2.086 . S
Zn107 O116 1.977 . S
O108 Zn107 2.032 . S
O108 C112 1.278 . S
C109 O110 1.203 . S
C109 O116 1.267 . S
O110 C109 1.203 . S
O111 C104 1.185 . S
O111 Zn107 2.086 . S
C112 O108 1.278 . S
C112 O113 1.211 . S
O113 C112 1.211 . S
C114 O106 1.284 . S
C114 O115 1.273 . S
O115 C114 1.273 . S
O116 Zn107 1.977 . S
O116 C109 1.267 . S
C117 O118 1.160 . S
C117 O124 1.185 . S
O118 C117 1.160 . S
O119 Zn120 1.899 . S
O119 C127 1.284 . S
Zn120 O119 1.899 . S
Zn120 O121 2.032 . S
Zn120 O124 2.086 . S
Zn120 O129 1.977 . S
O121 Zn120 2.032 . S
O121 C125 1.278 . S
C122 O123 1.203 . S
C122 O129 1.267 . S
O123 C122 1.203 . S
O124 C117 1.185 . S
O124 Zn120 2.086 . S
C125 O121 1.278 . S
C125 O126 1.211 . S
O126 C125 1.211 . S
C127 O119 1.284 . S
C127 O128 1.273 . S
O128 C127 1.273 . S
O129 Zn120 1.977 . S
O129 C122 1.267 . S
C130 O131 1.160 . S
C130 O137 1.185 . S
O131 C130 1.160 . S
O132 Zn133 1.899 . S
O132 C140 1.284 . S
Zn133 O132 1.899 . S
Zn133 O134 2.032 . S
Zn133 O137 2.086 . S
Zn133 O142 1.977 . S
O134 Zn133 2.032 . S
O134 C138 1.278 . S
C135 O136 1.203 . S
C135 O142 1.267 . S
O136 C135 1.203 . S
O137 C130 1.185 . S
O137 Zn133 2.086 . S
C138 O134 1.278 . S
C138 O139 1.211 . S
O139 C138 1.211 . S
C140 O132 1.284 . S
C140 O141 1.273 . S
O141 C140 1.273 . S
O142 Zn133 1.977 . S
O142 C135 1.267 . S
C143 O144 1.160 . S
C143 O150 1.185 . S
O144 C143 1.160 . S
O145 Zn146 1.899 . S
O145 C153 1.284 . S
Zn146 O145 1.899 . S
Zn146 O147 2.032 . S
Zn146 O150 2.086 . S
Zn146 O155 1.977 . S
O147 Zn146 2.032 . S
O147 C151 1.278 . S
C148 O149 1.203 . S
C148 O155 1.267 . S
O149 C148 1.203 . S
O150 C143 1.185 . S
O150 Zn146 2.086 . S
C151 O147 1.278 . S
C151 O152 1.211 . S
O152 C151 1.211 . S
C153 O145 1.284 . S
C153 O154 1.273 . S
O154 C153 1.273 . S
O155 Zn146 1.977 . S
O155 C148 1.267 . S
C156 O157 1.160 . S
C156 O163 1.185 . S
O157 C156 1.160 . S
O158 Zn159 1.899 . S
O158 C166 1.284 . S
Zn159 O158 1.899 . S
Zn159 O160 2.032 . S
Zn159 O163 2.086 . S
Zn159 O168 1.977 . S
O160 Zn159 2.032 . S
O160 C164 1.278 . S
C161 O162 1.203 . S
C161 O168 1.267 . S
O162 C161 1.203 . S
O163 C156 1.185 . S
O163 Zn159 2.086 . S
C164 O160 1.278 . S
C164 O165 1.211 . S
O165 C164 1.211 . S
C166 O158 1.284 . S
C166 O167 1.273 . S
O167 C166 1.273 . S
O168 Zn159 1.977 . S
O168 C161 1.267 . S
C169 O170 1.160 . S
C169 O176 1.185 . S
O170 C169 1.160 . S
O171 Zn172 1.899 . S
O171 C179 1.284 . S
Zn172 O171 1.899 . S
Zn172 O173 2.032 . S
Zn172 O176 2.086 . S
Zn172 O181 1.977 . S
O173 Zn172 2.032 . S
O173 C177 1.278 . S
C174 O175 1.203 . S
C174 O181 1.267 . S
O175 C174 1.203 . S
O176 C169 1.185 . S
O176 Zn172 2.086 . S
C177 O173 1.278 . S
C177 O178 1.211 . S
O178 C177 1.211 . S
C179 O171 1.284 . S
C179 O180 1.273 . S
O180 C179 1.273 . S
O181 Zn172 1.977 . S
O181 C174 1.267 . S
C182 O183 1.160 . S
C182 O189 1.185 . S
O183 C182 1.160 . S
O184 Zn185 1.899 . S
O184 C192 1.284 . S
Zn185 O184 1.899 . S
Zn185 O186 2.032 . S
Zn185 O189 2.086 . S
Zn185 O194 1.977 . S
O186 Zn185 2.032 . S
O186 C190 1.278 . S
C187 O188 1.203 . S
C187 O194 1.267 . S
O188 C187 1.203 . S
O189 C182 1.185 . S
O189 Zn185 2.086 . S
C190 O186 1.278 . S
C190 O191 1.211 . S
O191 C190 1.211 . S
C192 O184 1.284 . S
C192 O193 1.273 . S
O193 C192 1.273 . S
O194 Zn185 1.977 . S
O194 C187 1.267 . S
C195 O196 1.160 . S
C195 O202 1.185 . S
O196 C195 1.160 . S
O197 Zn198 1.899 . S
O197 C205 1.284 . S
Zn198 O197 1.899 . S
Zn198 O199 2.032 . S
Zn198 O202 2.086 . S
Zn198 O207 1.977 . S
O199 Zn198 2.032 . S
O199 C203 1.278 . S
C200 O201 1.203 . S
C200 O207 1.267 . S
O201 C200 1.203 . S
O202 C195 1.185 . S
O202 Zn198 2.086 . S
C203 O199 1.278 . S
C203 O204 1.211 . S
O204 C203 1.211 . S
C205 O197 1.284 . S
C205 O206 1.273 . S
O206 C205 1.273 . S
O207 Zn198 1.977 . S
O207 C200 1.267 . S
C208 O209 1.160 . S
C208 O215 1.185 . S
O209 C208 1.160 . S
O210 Zn211 1.899 . S
O210 C218 1.284 . S
Zn211 O210 1.899 . S
Zn211 O212 2.032 . S
Zn211 O215 2.086 . S
Zn211 O220 1.977 . S
O212 Zn211 2.032 . S
O212 C216 1.278 . S
C213 O214 1.203 . S
C213 O220 1.267 . S
O214 C213 1.203 . S
O215 C208 1.185 . S
O215 Zn211 2.086 . S
C216 O212 1.278 . S
C216 O217 1.211 . S
O217 C216 1.211 . S
C218 O210 1.284 . S
C218 O219 1.273 . S
O219 C218 1.273 . S
O220 Zn211 1.977 . S
O220 C213 1.267 . S
C221 O222 1.160 . S
C221 O228 1.185 . S
O222 C221 1.160 . S
O223 Zn224 1.899 . S
O223 C231 1.284 . S
Zn224 O223 1.899 . S
Zn224 O225 2.032 . S
Zn224 O228 2.086 . S
Zn224 O233 1.977 . S
O225 Zn224 2.032 . S
O225 C229 1.278 . S
C226 O227 1.203 . S
C226 O233 1.267 . S
O227 C226 1.203 . S
O228 C221 1.185 . S
O228 Zn224 2.086 . S
C229 O225 1.278 . S
C229 O230 1.211 . S
O230 C229 1.211 . S
C231 O223 1.284 . S
C231 O232 1.273 . S
O232 C231 1.273 . S
O233 Zn224 1.977 . S
O233 C226 1.267 . S
C234 O235 1.160 . S
C234 O241 1.185 . S
O235 C234 1.160 . S
O236 Zn237 1.899 . S
O236 C244 1.284 . S
Zn237 O236 1.899 . S
Zn237 O238 2.032 . S
Zn237 O241 2.086 . S
Zn237 O246 1.977 . S
O238 Zn237 2.032 . S
O238 C242 1.278 . S
C239 O240 1.203 . S
C239 O246 1.267 . S
O240 C239 1.203 . S
O241 C234 1.185 . S
O241 Zn237 2.086 . S
C242 O238 1.278 . S
C242 O243 1.211 . S
O243 C242 1.211 . S
C244 O236 1.284 . S
C244 O245 1.273 . S
O245 C244 1.273 . S
O246 Zn237 1.977 . S
O246 C239 1.267 . S
C247 O248 1.160 . S
C247 O254 1.185 . S
O248 C247 1.160 . S
O249 Zn250 1.899 . S
O249 C257 1.284 . S
Zn250 O249 1.899 . S
Zn250 O251 2.032 . S
Zn250 O254 2.086 . S
Zn250 O259 1.977 . S
O251 Zn250 2.032 . S
O251 C255 1.278 . S
C252 O253 1.203 . S
C252 O259 1.267 . S
O253 C252 1.203 . S
O254 C247 1.185 . S
O254 Zn250 2.086 . S
C255 O251 1.278 . S
C255 O256 1.211 . S
O256 C255 1.211 . S
C257 O249 1.284 . S
C257 O258 1.273 . S
O258 C257 1.273 . S
O259 Zn250 1.977 . S
O259 C252 1.267 . S
C260 O261 1.160 . S
C260 O267 1.185 . S
O261 C260 1.160 . S
O262 Zn263 1.899 . S
O262 C270 1.284 . S
Zn263 O262 1.899 . S
Zn263 O264 2.032 . S
Zn263 O267 2.086 . S
Zn263 O272 1.977 . S
O264 Zn263 2.032 . S
O264 C268 1.278 . S
C265 O266 1.203 . S
C265 O272 1.267 . S
O266 C265 1.203 . S
O267 C260 1.185 . S
O267 Zn263 2.086 . S
C268 O264 1.278 . S
C268 O269 1.211 . S
O269 C268 1.211 . S
C270 O262 1.284 . S
C270 O271 1.273 . S
O271 C270 1.273 . S
O272 Zn263 1.977 . S
O272 C265 1.267 . S
C273 O274 1.160 . S
C273 O280 1.185 . S
O274 C273 1.160 . S
O275 Zn276 1.899 . S
O275 C283 1.284 . S
Zn276 O275 1.899 . S
Zn276 O277 2.032 . S
Zn276 O280 2.086 . S
Zn276 O285 1.977 . S
O277 Zn276 2.032 . S
O277 C281 1.278 . S
C278 O279 1.203 . S
C278 O285 1.267 . S
O279 C278 1.203 . S
O280 C273 1.185 . S
O280 Zn276 2.086 . S
C281 O277 1.278 . S
C281 O282 1.211 . S
O282 C281 1.211 . S
C283 O275 1.284 . S
C283 O284 1.273 . S
O284 C283 1.273 . S
O285 Zn276 1.977 . S
O285 C278 1.267 . S
C286 O287 1.160 . S
C286 O293 1.185 . S
O287 C286 1.160 . S
O288 Zn289 1.899 . S
O288 C296 1.284 . S
Zn289 O288 1.899 . S
Zn289 O290 2.032 . S
Zn289 O293 2.086 . S
Zn289 O298 1.977 . S
O290 Zn289 2.032 . S
O290 C294 1.278 . S
C291 O292 1.203 . S
C291 O298 1.267 . S
O292 C291 1.203 . S
O293 C286 1.185 . S
O293 Zn289 2.086 . S
C294 O290 1.278 . S
C294 O295 1.211 . S
O295 C294 1.211 . S
C296 O288 1.284 . S
C296 O297 1.273 . S
O297 C296 1.273 . S
O298 Zn289 1.977 . S
O298 C291 1.267 . S
C299 O300 1.160 . S
C299 O306 1.185 . S
O300 C299 1.160 . S
O301 Zn302 1.899 . S
O301 C309 1.284 . S
Zn302 O301 1.899 . S
Zn302 O303 2.032 . S
Zn302 O306 2.086 . S
Zn302 O311 1.977 . S
O303 Zn302 2.032 . S
O303 C307 1.278 . S
C304 O305 1.203 . S
C304 O311 1.267 . S
O305 C304 1.203 . S
O306 C299 1.185 . S
O306 Zn302 2.086 . S
C307 O303 1.278 . S
C307 O308 1.211 . S
O308 C307 1.211 . S
C309 O301 1.284 . S
C309 O310 1.273 . S
O310 C309 1.273 . S
O311 Zn302 1.977 . S
O311 C304 1.267 . S
C312 O313 1.160 . S
C312 O319 1.185 . S
O313 C312 1.160 . S
O314 Zn315 1.899 . S
O314 C322 1.284 . S
Zn315 O314 1.899 . S
Zn315 O316 2.032 . S
Zn315 O319 2.086 . S
Zn315 O324 1.977 . S
O316 Zn315 2.032 . S
O316 C320 1.278 . S
C317 O318 1.203 . S
C317 O324 1.267 . S
O318 C317 1.203 . S
O319 C312 1.185 . S
O319 Zn315 2.086 . S
C320 O316 1.278 . S
C320 O321 1.211 . S
O321 C320 1.211 . S
C322 O314 1.284 . S
C322 O323 1.273 . S
O323 C322 1.273 . S
O324 Zn315 1.977 . S
O324 C317 1.267 . S
C325 O326 1.160 . S
C325 O332 1.185 . S
O326 C325 1.160 . S
O327 Zn328 1.899 . S
O327 C335 1.284 . S
Zn328 O327 1.899 . S
Zn328 O329 2.032 . S
Zn328 O332 2.086 . S
Zn328 O337 1.977 . S
O329 Zn328 2.032 . S
O329 C333 1.278 . S
C330 O331 1.203 . S
C330 O337 1.267 . S
O331 C330 1.203 . S
O332 C325 1.185 . S
O332 Zn328 2.086 . S
C333 O329 1.278 . S
C333 O334 1.211 . S
O334 C333 1.211 . S
C335 O327 1.284 . S
C335 O336 1.273 . S
O336 C335 1.273 . S
O337 Zn328 1.977 . S
O337 C330 1.267 . S
C338 O339 1.160 . S
C338 O345 1.185 . S
O339 C338 1.160 . S
O340 Zn341 1.899 . S
O340 C348 1.284 . S
Zn341 O340 1.899 . S
Zn341 O342 2.032 . S
Zn341 O345 2.086 . S
Zn341 O350 1.977 . S
O342 Zn341 2.032 . S
O342 C346 1.278 . S
C343 O344 1.203 . S
C343 O350 1.267 . S
O344 C343 1.203 . S
O345 C338 1.185 . S
O345 Zn341 2.086 . S
C346 O342 1.278 . S
C346 O347 1.211 . S
O347 C346 1.211 . S
C348 O340 1.284 . S
C348 O349 1.273 . S
O349 C348 1.273 . S
O350 Zn341 1.977 . S
O350 C343 1.267 . S
C351 O352 1.160 . S
C351 O358 1.185 . S
O352 C351 1.160 . S
O353 Zn354 1.899 . S
O353 C361 1.284 . S
Zn354 O353 1.899 . S
Zn354 O355 2.032 . S
Zn354 O358 2.086 . S
Zn354 O363 1.977 . S
O355 Zn354 2.032 . S
O355 C359 1.278 . S
C356 O357 1.203 . S
C356 O363 1.267 . S
O357 C356 1.203 . S
O358 C351 1.185 . S
O358 Zn354 2.086 . S
C359 O355 1.278 . S
C359 O360 1.211 . S
O360 C359 1.211 . S
C361 O353 1.284 . S
C361 O362 1.273 . S
O362 C361 1.273 . S
O363 Zn354 1.977 . S
O363 C356 1.267 . S
C364 O365 1.160 . S
C364 O371 1.185 . S
O365 C364 1.160 . S
O366 Zn367 1.899 . S
O366 C374 1.284 . S
Zn367 O366 1.899 . S
Zn367 O368 2.032 . S
Zn367 O371 2.086 . S
Zn367 O376 1.977 . S
O368 Zn367 2.032 . S
O368 C372 1.278 . S
C369 O370 1.203 . S
C369 O376 1.267 . S
O370 C369 1.203 . S
O371 C364 1.185 . S
O371 Zn367 2.086 . S
C372 O368 1.278 . S
C372 O373 1.211 . S
O373 C372 1.211 . S
C374 O366 1.284 . S
C374 O375 1.273 . S
O375 C374 1.273 . S
O376 Zn367 1.977 . S
O376 C369 1.267 . S
C377 O378 1.160 . S
C377 O384 1.185 . S
O378 C377 1.160 . S
O379 Zn380 1.899 . S
O379 C387 1.284 . S
Zn380 O379 1.899 . S
Zn380 O381 2.032 . S
Zn380 O384 2.086 . S
Zn380 O389 1.977 . S
O381 Zn380 2.032 . S
O381 C385 1.278 . S
C382 O383 1.203 . S
C382 O389 1.267 . S
O383 C382 1.203 . S
O384 C377 1.185 . S
O384 Zn380 2.086 . S
C385 O381 1.278 . S
C385 O386 1.211 . S
O386 C385 1.211 . S
C387 O379 1.284 . S
C387 O388 1.273 . S
O388 C387 1.273 . S
O389 Zn380 1.977 . S
O389 C382 1.267 . S
C390 O391 1.160 . S
C390 O397 1.185 . S
O391 C390 1.160 . S
O392 Zn393 1.899 . S
O392 C400 1.284 . S
Zn393 O392 1.899 . S
Zn393 O394 2.032 . S
Zn393 O397 2.086 . S
Zn393 O402 1.977 . S
O394 Zn393 2.032 . S
O394 C398 1.278 . S
C395 O396 1.203 . S
C395 O402 1.267 . S
O396 C395 1.203 . S
O397 C390 1.185 . S
O397 Zn393 2.086 . S
C398 O394 1.278 . S
C398 O399 1.211 . S
O399 C398 1.211 . S
C400 O392 1.284 . S
C400 O401 1.273 . S
O401 C400 1.273 . S
O402 Zn393 1.977 . S
O402 C395 1.267 . S
C403 O404 1.160 . S
C403 O410 1.185 . S
O404 C403 1.160 . S
O405 Zn406 1.899 . S
O405 C413 1.284 . S
Zn406 O405 1.899 . S
Zn406 O407 2.032 . S
Zn406 O410 2.086 . S
Zn406 O415 1.977 . S
O407 Zn406 2.032 . S
O407 C411 1.278 . S
C408 O409 1.203 . S
C408 O415 1.267 . S
O409 C408 1.203 . S
O410 C403 1.185 . S
O410 Zn406 2.086 . S
C411 O407 1.278 . S
C411 O412 1.211 . S
O412 C411 1.211 . S
C413 O405 1.284 . S
C413 O414 1.273 . S
O414 C413 1.273 . S
O415 Zn406 1.977 . S
O415 C408 1.267 . S
C416 C417 1.349 . S
C416 C418 1.327 . S
C416 H441 0.950 . S
C417 C416 1.349 . S
C417 C433 1.349 . S
C418 C416 1.327 . S
C418 C437 1.429 . S
C418 H442 0.950 . S
C419 C436 1.574 . S
C419 C438 1.368 . S
C419 H443 0.949 . S
H420 C424 0.949 . S
C421 C422 1.349 . S
C421 C423 1.327 . S
C421 H444 0.950 . S
C422 C421 1.349 . S
C422 C434 1.349 . S
C423 C421 1.327 . S
C423 C439 1.429 . S
C423 H445 0.950 . S
C424 H420 0.949 . S
C424 C432 1.574 . S
C424 C440 1.368 . S
H425 C433 0.950 . S
H426 C431 0.950 . S
H427 C432 0.949 . S
H428 C434 0.950 . S
H429 C435 0.950 . S
H430 C436 0.949 . S
C431 H426 0.950 . S
C431 C433 1.327 . S
C431 C437 1.429 . S
C432 C424 1.574 . S
C432 H427 0.949 . S
C432 C438 1.368 . S
C433 C417 1.349 . S
C433 H425 0.950 . S
C433 C431 1.327 . S
C434 C422 1.349 . S
C434 H428 0.950 . S
C434 C435 1.327 . S
C435 H429 0.950 . S
C435 C434 1.327 . S
C435 C439 1.429 . S
C436 C419 1.574 . S
C436 H430 0.949 . S
C436 C440 1.368 . S
C437 C418 1.429 . S
C437 C431 1.429 . S
C437 C438 1.523 . S
C438 C419 1.368 . S
C438 C432 1.368 . S
C438 C437 1.523 . S
C439 C423 1.429 . S
C439 C435 1.429 . S
C439 C440 1.523 . S
C440 C424 1.368 . S
C440 C436 1.368 . S
C440 C439 1.523 . S
H441 C416 0.950 . S
H442 C418 0.950 . S
H443 C419 0.949 . S
H444 C421 0.950 . S
H445 C423 0.950 . S
C446 C447 1.349 . S
C446 C448 1.327 . S
C446 H471 0.950 . S
C447 C446 1.349 . S
C447 C463 1.349 . S
C448 C446 1.327 . S
C448 C467 1.429 . S
C448 H472 0.950 . S
C449 C466 1.574 1_565 S
C449 C468 1.368 . S
C449 H473 0.949 . S
H450 C454 0.949 . S
C451 C452 1.349 . S
C451 C453 1.327 . S
C451 H474 0.950 . S
C452 C451 1.349 . S
C452 C464 1.349 . S
C453 C451 1.327 . S
C453 C469 1.429 . S
C453 H475 0.950 . S
C454 H450 0.949 . S
C454 C462 1.574 1_545 S
C454 C470 1.368 . S
H455 C463 0.950 . S
H456 C461 0.950 . S
H457 C462 0.949 . S
H458 C464 0.950 . S
H459 C465 0.950 . S
H460 C466 0.949 . S
C461 H456 0.950 . S
C461 C463 1.327 . S
C461 C467 1.429 . S
C462 C454 1.574 1_565 S
C462 H457 0.949 . S
C462 C468 1.368 . S
C463 C447 1.349 . S
C463 H455 0.950 . S
C463 C461 1.327 . S
C464 C452 1.349 . S
C464 H458 0.950 . S
C464 C465 1.327 . S
C465 H459 0.950 . S
C465 C464 1.327 . S
C465 C469 1.429 . S
C466 C449 1.574 1_545 S
C466 H460 0.949 . S
C466 C470 1.368 . S
C467 C448 1.429 . S
C467 C461 1.429 . S
C467 C468 1.523 . S
C468 C449 1.368 . S
C468 C462 1.368 . S
C468 C467 1.523 . S
C469 C453 1.429 . S
C469 C465 1.429 . S
C469 C470 1.523 . S
C470 C454 1.368 . S
C470 C466 1.368 . S
C470 C469 1.523 . S
H471 C446 0.950 . S
H472 C448 0.950 . S
H473 C449 0.949 . S
H474 C451 0.950 . S
H475 C453 0.950 . S
C476 C477 1.349 . S
C476 C478 1.327 . S
C476 H501 0.950 . S
C477 C476 1.349 . S
C477 C493 1.349 . S
C478 C476 1.327 . S
C478 C497 1.429 . S
C478 H502 0.950 . S
C479 C496 1.574 . S
C479 C498 1.368 . S
C479 H503 0.949 . S
H480 C484 0.949 . S
C481 C482 1.349 . S
C481 C483 1.327 . S
C481 H504 0.950 . S
C482 C481 1.349 . S
C482 C494 1.349 . S
C483 C481 1.327 . S
C483 C499 1.429 . S
C483 H505 0.950 . S
C484 H480 0.949 . S
C484 C492 1.574 . S
C484 C500 1.368 . S
H485 C493 0.950 . S
H486 C491 0.950 . S
H487 C492 0.949 . S
H488 C494 0.950 . S
H489 C495 0.950 . S
H490 C496 0.949 . S
C491 H486 0.950 . S
C491 C493 1.327 . S
C491 C497 1.429 . S
C492 C484 1.574 . S
C492 H487 0.949 . S
C492 C498 1.368 1_556 S
C493 C477 1.349 . S
C493 H485 0.950 . S
C493 C491 1.327 . S
C494 C482 1.349 . S
C494 H488 0.950 . S
C494 C495 1.327 . S
C495 H489 0.950 . S
C495 C494 1.327 . S
C495 C499 1.429 . S
C496 C479 1.574 . S
C496 H490 0.949 . S
C496 C500 1.368 1_554 S
C497 C478 1.429 . S
C497 C491 1.429 . S
C497 C498 1.523 . S
C498 C479 1.368 . S
C498 C492 1.368 1_554 S
C498 C497 1.523 . S
C499 C483 1.429 . S
C499 C495 1.429 . S
C499 C500 1.523 . S
C500 C484 1.368 . S
C500 C496 1.368 1_556 S
C500 C499 1.523 . S
H501 C476 0.950 . S
H502 C478 0.950 . S
H503 C479 0.949 . S
H504 C481 0.950 . S
H505 C483 0.950 . S
C506 C507 1.349 . S
C506 C508 1.327 . S
C506 H531 0.950 . S
C507 C506 1.349 . S
C507 C523 1.349 . S
C508 C506 1.327 . S
C508 C527 1.429 . S
C508 H532 0.950 . S
C509 C526 1.574 1_545 S
C509 C528 1.368 . S
C509 H533 0.949 . S
H510 C514 0.949 . S
C511 C512 1.349 . S
C511 C513 1.327 . S
C511 H534 0.950 . S
C512 C511 1.349 . S
C512 C524 1.349 . S
C513 C511 1.327 . S
C513 C529 1.429 . S
C513 H535 0.950 . S
C514 H510 0.949 . S
C514 C522 1.574 1_565 S
C514 C530 1.368 . S
H515 C523 0.950 . S
H516 C521 0.950 . S
H517 C522 0.949 . S
H518 C524 0.950 . S
H519 C525 0.950 . S
H520 C526 0.949 . S
C521 H516 0.950 . S
C521 C523 1.327 . S
C521 C527 1.429 . S
C522 C514 1.574 1_545 S
C522 H517 0.949 . S
C522 C528 1.368 . S
C523 C507 1.349 . S
C523 H515 0.950 . S
C523 C521 1.327 . S
C524 C512 1.349 . S
C524 H518 0.950 . S
C524 C525 1.327 . S
C525 H519 0.950 . S
C525 C524 1.327 . S
C525 C529 1.429 . S
C526 C509 1.574 1_565 S
C526 H520 0.949 . S
C526 C530 1.368 . S
C527 C508 1.429 . S
C527 C521 1.429 . S
C527 C528 1.523 . S
C528 C509 1.368 . S
C528 C522 1.368 . S
C528 C527 1.523 . S
C529 C513 1.429 . S
C529 C525 1.429 . S
C529 C530 1.523 . S
C530 C514 1.368 . S
C530 C526 1.368 . S
C530 C529 1.523 . S
H531 C506 0.950 . S
H532 C508 0.950 . S
H533 C509 0.949 . S
H534 C511 0.950 . S
H535 C513 0.950 . S
C536 C537 1.349 . S
C536 C538 1.327 . S
C536 H561 0.950 . S
C537 C536 1.349 . S
C537 C553 1.349 . S
C538 C536 1.327 . S
C538 C557 1.429 . S
C538 H562 0.950 . S
C539 C556 1.574 . S
C539 C558 1.368 . S
C539 H563 0.949 . S
H540 C544 0.949 . S
C541 C542 1.349 . S
C541 C543 1.327 . S
C541 H564 0.950 . S
C542 C541 1.349 . S
C542 C554 1.349 . S
C543 C541 1.327 . S
C543 C559 1.429 . S
C543 H565 0.950 . S
C544 H540 0.949 . S
C544 C552 1.574 . S
C544 C560 1.368 . S
H545 C553 0.950 . S
H546 C551 0.950 . S
H547 C552 0.949 . S
H548 C554 0.950 . S
H549 C555 0.950 . S
H550 C556 0.949 . S
C551 H546 0.950 . S
C551 C553 1.327 . S
C551 C557 1.429 . S
C552 C544 1.574 . S
C552 H547 0.949 . S
C552 C558 1.368 . S
C553 C537 1.349 . S
C553 H545 0.950 . S
C553 C551 1.327 . S
C554 C542 1.349 . S
C554 H548 0.950 . S
C554 C555 1.327 . S
C555 H549 0.950 . S
C555 C554 1.327 . S
C555 C559 1.429 . S
C556 C539 1.574 . S
C556 H550 0.949 . S
C556 C560 1.368 . S
C557 C538 1.429 . S
C557 C551 1.429 . S
C557 C558 1.523 . S
C558 C539 1.368 . S
C558 C552 1.368 . S
C558 C557 1.523 . S
C559 C543 1.429 . S
C559 C555 1.429 . S
C559 C560 1.523 . S
C560 C544 1.368 . S
C560 C556 1.368 . S
C560 C559 1.523 . S
H561 C536 0.950 . S
H562 C538 0.950 . S
H563 C539 0.949 . S
H564 C541 0.950 . S
H565 C543 0.950 . S
C566 C567 1.349 . S
C566 C568 1.327 . S
C566 H591 0.950 . S
C567 C566 1.349 . S
C567 C583 1.349 . S
C568 C566 1.327 . S
C568 C587 1.429 . S
C568 H592 0.950 . S
C569 C586 1.574 1_545 S
C569 C588 1.368 . S
C569 H593 0.949 . S
H570 C574 0.949 . S
C571 C572 1.349 . S
C571 C573 1.327 . S
C571 H594 0.950 . S
C572 C571 1.349 . S
C572 C584 1.349 . S
C573 C571 1.327 . S
C573 C589 1.429 . S
C573 H595 0.950 . S
C574 H570 0.949 . S
C574 C582 1.574 1_565 S
C574 C590 1.368 . S
H575 C583 0.950 . S
H576 C581 0.950 . S
H577 C582 0.949 . S
H578 C584 0.950 . S
H579 C585 0.950 . S
H580 C586 0.949 . S
C581 H576 0.950 . S
C581 C583 1.327 . S
C581 C587 1.429 . S
C582 C574 1.574 1_545 S
C582 H577 0.949 . S
C582 C588 1.368 . S
C583 C567 1.349 . S
C583 H575 0.950 . S
C583 C581 1.327 . S
C584 C572 1.349 . S
C584 H578 0.950 . S
C584 C585 1.327 . S
C585 H579 0.950 . S
C585 C584 1.327 . S
C585 C589 1.429 . S
C586 C569 1.574 1_565 S
C586 H580 0.949 . S
C586 C590 1.368 . S
C587 C568 1.429 . S
C587 C581 1.429 . S
C587 C588 1.523 . S
C588 C569 1.368 . S
C588 C582 1.368 . S
C588 C587 1.523 . S
C589 C573 1.429 . S
C589 C585 1.429 . S
C589 C590 1.523 . S
C590 C574 1.368 . S
C590 C586 1.368 . S
C590 C589 1.523 . S
H591 C566 0.950 . S
H592 C568 0.950 . S
H593 C569 0.949 . S
H594 C571 0.950 . S
H595 C573 0.950 . S
C596 C597 1.349 . S
C596 C598 1.327 . S
C596 H621 0.950 . S
C597 C596 1.349 . S
C597 C613 1.349 . S
C598 C596 1.327 . S
C598 C617 1.429 . S
C598 H622 0.950 . S
C599 C616 1.574 . S
C599 C618 1.368 1_554 S
C599 H623 0.949 . S
H600 C604 0.949 . S
C601 C602 1.349 . S
C601 C603 1.327 . S
C601 H624 0.950 . S
C602 C601 1.349 . S
C602 C614 1.349 . S
C603 C601 1.327 . S
C603 C619 1.429 . S
C603 H625 0.950 . S
C604 H600 0.949 . S
C604 C612 1.574 . S
C604 C620 1.368 1_556 S
H605 C613 0.950 . S
H606 C611 0.950 . S
H607 C612 0.949 . S
H608 C614 0.950 . S
H609 C615 0.950 . S
H610 C616 0.949 . S
C611 H606 0.950 . S
C611 C613 1.327 . S
C611 C617 1.429 . S
C612 C604 1.574 . S
C612 H607 0.949 . S
C612 C618 1.368 . S
C613 C597 1.349 . S
C613 H605 0.950 . S
C613 C611 1.327 . S
C614 C602 1.349 . S
C614 H608 0.950 . S
C614 C615 1.327 . S
C615 H609 0.950 . S
C615 C614 1.327 . S
C615 C619 1.429 . S
C616 C599 1.574 . S
C616 H610 0.949 . S
C616 C620 1.368 . S
C617 C598 1.429 . S
C617 C611 1.429 . S
C617 C618 1.523 . S
C618 C599 1.368 1_556 S
C618 C612 1.368 . S
C618 C617 1.523 . S
C619 C603 1.429 . S
C619 C615 1.429 . S
C619 C620 1.523 . S
C620 C604 1.368 1_554 S
C620 C616 1.368 . S
C620 C619 1.523 . S
H621 C596 0.950 . S
H622 C598 0.950 . S
H623 C599 0.949 . S
H624 C601 0.950 . S
H625 C603 0.950 . S
C626 C627 1.349 . S
C626 C628 1.327 . S
C626 H651 0.950 . S
C627 C626 1.349 . S
C627 C643 1.349 . S
C628 C626 1.327 . S
C628 C647 1.429 . S
C628 H652 0.950 . S
C629 C646 1.574 1_565 S
C629 C648 1.368 . S
C629 H653 0.949 . S
H630 C634 0.949 . S
C631 C632 1.349 . S
C631 C633 1.327 . S
C631 H654 0.950 . S
C632 C631 1.349 . S
C632 C644 1.349 . S
C633 C631 1.327 . S
C633 C649 1.429 . S
C633 H655 0.950 . S
C634 H630 0.949 . S
C634 C642 1.574 1_545 S
C634 C650 1.368 . S
H635 C643 0.950 . S
H636 C641 0.950 . S
H637 C642 0.949 . S
H638 C644 0.950 . S
H639 C645 0.950 . S
H640 C646 0.949 . S
C641 H636 0.950 . S
C641 C643 1.327 . S
C641 C647 1.429 . S
C642 C634 1.574 1_565 S
C642 H637 0.949 . S
C642 C648 1.368 . S
C643 C627 1.349 . S
C643 H635 0.950 . S
C643 C641 1.327 . S
C644 C632 1.349 . S
C644 H638 0.950 . S
C644 C645 1.327 . S
C645 H639 0.950 . S
C645 C644 1.327 . S
C645 C649 1.429 . S
C646 C629 1.574 1_545 S
C646 H640 0.949 . S
C646 C650 1.368 . S
C647 C628 1.429 . S
C647 C641 1.429 . S
C647 C648 1.523 . S
C648 C629 1.368 . S
C648 C642 1.368 . S
C648 C647 1.523 . S
C649 C633 1.429 . S
C649 C645 1.429 . S
C649 C650 1.523 . S
C650 C634 1.368 . S
C650 C646 1.368 . S
C650 C649 1.523 . S
H651 C626 0.950 . S
H652 C628 0.950 . S
H653 C629 0.949 . S
H654 C631 0.950 . S
H655 C633 0.950 . S
C656 C657 1.349 . S
C656 C658 1.327 . S
C656 H681 0.950 . S
C657 C656 1.349 . S
C657 C673 1.349 . S
C658 C656 1.327 . S
C658 C677 1.429 . S
C658 H682 0.950 . S
C659 C676 1.574 . S
C659 C678 1.368 . S
C659 H683 0.949 . S
H660 C664 0.949 . S
C661 C662 1.349 . S
C661 C663 1.327 . S
C661 H684 0.950 . S
C662 C661 1.349 . S
C662 C674 1.349 . S
C663 C661 1.327 . S
C663 C679 1.429 . S
C663 H685 0.950 . S
C664 H660 0.949 . S
C664 C672 1.574 . S
C664 C680 1.368 . S
H665 C673 0.950 . S
H666 C671 0.950 . S
H667 C672 0.949 . S
H668 C674 0.950 . S
H669 C675 0.950 . S
H670 C676 0.949 . S
C671 H666 0.950 . S
C671 C673 1.327 . S
C671 C677 1.429 . S
C672 C664 1.574 . S
C672 H667 0.949 . S
C672 C678 1.368 1_554 S
C673 C657 1.349 . S
C673 H665 0.950 . S
C673 C671 1.327 . S
C674 C662 1.349 . S
C674 H668 0.950 . S
C674 C675 1.327 . S
C675 H669 0.950 . S
C675 C674 1.327 . S
C675 C679 1.429 . S
C676 C659 1.574 . S
C676 H670 0.949 . S
C676 C680 1.368 1_556 S
C677 C658 1.429 . S
C677 C671 1.429 . S
C677 C678 1.523 . S
C678 C659 1.368 . S
C678 C672 1.368 1_556 S
C678 C677 1.523 . S
C679 C663 1.429 . S
C679 C675 1.429 . S
C679 C680 1.523 . S
C680 C664 1.368 . S
C680 C676 1.368 1_554 S
C680 C679 1.523 . S
H681 C656 0.950 . S
H682 C658 0.950 . S
H683 C659 0.949 . S
H684 C661 0.950 . S
H685 C663 0.950 . S
C686 C687 1.349 . S
C686 C688 1.327 . S
C686 H711 0.950 . S
C687 C686 1.349 . S
C687 C703 1.349 . S
C688 C686 1.327 . S
C688 C707 1.429 . S
C688 H712 0.950 . S
C689 C706 1.574 . S
C689 C708 1.368 . S
C689 H713 0.949 . S
H690 C694 0.949 . S
C691 C692 1.349 . S
C691 C693 1.327 . S
C691 H714 0.950 . S
C692 C691 1.349 . S
C692 C704 1.349 . S
C693 C691 1.327 . S
C693 C709 1.429 . S
C693 H715 0.950 . S
C694 H690 0.949 . S
C694 C702 1.574 . S
C694 C710 1.368 . S
H695 C703 0.950 . S
H696 C701 0.950 . S
H697 C702 0.949 . S
H698 C704 0.950 . S
H699 C705 0.950 . S
H700 C706 0.949 . S
C701 H696 0.950 . S
C701 C703 1.327 . S
C701 C707 1.429 . S
C702 C694 1.574 . S
C702 H697 0.949 . S
C702 C708 1.368 . S
C703 C687 1.349 . S
C703 H695 0.950 . S
C703 C701 1.327 . S
C704 C692 1.349 . S
C704 H698 0.950 . S
C704 C705 1.327 . S
C705 H699 0.950 . S
C705 C704 1.327 . S
C705 C709 1.429 . S
C706 C689 1.574 . S
C706 H700 0.949 . S
C706 C710 1.368 . S
C707 C688 1.429 . S
C707 C701 1.429 . S
C707 C708 1.523 . S
C708 C689 1.368 . S
C708 C702 1.368 . S
C708 C707 1.523 . S
C709 C693 1.429 . S
C709 C705 1.429 . S
C709 C710 1.523 . S
C710 C694 1.368 . S
C710 C706 1.368 . S
C710 C709 1.523 . S
H711 C686 0.950 . S
H712 C688 0.950 . S
H713 C689 0.949 . S
H714 C691 0.950 . S
H715 C693 0.950 . S
C716 C717 1.349 . S
C716 C718 1.327 . S
C716 H741 0.950 . S
C717 C716 1.349 . S
C717 C733 1.349 . S
C718 C716 1.327 . S
C718 C737 1.429 . S
C718 H742 0.950 . S
C719 C736 1.574 . S
C719 C738 1.368 . S
C719 H743 0.949 . S
H720 C724 0.949 . S
C721 C722 1.349 . S
C721 C723 1.327 . S
C721 H744 0.950 . S
C722 C721 1.349 . S
C722 C734 1.349 . S
C723 C721 1.327 . S
C723 C739 1.429 . S
C723 H745 0.950 . S
C724 H720 0.949 . S
C724 C732 1.574 . S
C724 C740 1.368 . S
H725 C733 0.950 . S
H726 C731 0.950 . S
H727 C732 0.949 . S
H728 C734 0.950 . S
H729 C735 0.950 . S
H730 C736 0.949 . S
C731 H726 0.950 . S
C731 C733 1.327 . S
C731 C737 1.429 . S
C732 C724 1.574 . S
C732 H727 0.949 . S
C732 C738 1.368 . S
C733 C717 1.349 . S
C733 H725 0.950 . S
C733 C731 1.327 . S
C734 C722 1.349 . S
C734 H728 0.950 . S
C734 C735 1.327 . S
C735 H729 0.950 . S
C735 C734 1.327 . S
C735 C739 1.429 . S
C736 C719 1.574 . S
C736 H730 0.949 . S
C736 C740 1.368 . S
C737 C718 1.429 . S
C737 C731 1.429 . S
C737 C738 1.523 . S
C738 C719 1.368 . S
C738 C732 1.368 . S
C738 C737 1.523 . S
C739 C723 1.429 . S
C739 C735 1.429 . S
C739 C740 1.523 . S
C740 C724 1.368 . S
C740 C736 1.368 . S
C740 C739 1.523 . S
H741 C716 0.950 . S
H742 C718 0.950 . S
H743 C719 0.949 . S
H744 C721 0.950 . S
H745 C723 0.950 . S
C746 C747 1.349 . S
C746 C748 1.327 . S
C746 H771 0.950 . S
C747 C746 1.349 . S
C747 C763 1.349 . S
C748 C746 1.327 . S
C748 C767 1.429 . S
C748 H772 0.950 . S
C749 C766 1.574 . S
C749 C768 1.368 . S
C749 H773 0.949 . S
H750 C754 0.949 . S
C751 C752 1.349 . S
C751 C753 1.327 . S
C751 H774 0.950 . S
C752 C751 1.349 . S
C752 C764 1.349 . S
C753 C751 1.327 . S
C753 C769 1.429 . S
C753 H775 0.950 . S
C754 H750 0.949 . S
C754 C762 1.574 . S
C754 C770 1.368 . S
H755 C763 0.950 . S
H756 C761 0.950 . S
H757 C762 0.949 . S
H758 C764 0.950 . S
H759 C765 0.950 . S
H760 C766 0.949 . S
C761 H756 0.950 . S
C761 C763 1.327 . S
C761 C767 1.429 . S
C762 C754 1.574 . S
C762 H757 0.949 . S
C762 C768 1.368 . S
C763 C747 1.349 . S
C763 H755 0.950 . S
C763 C761 1.327 . S
C764 C752 1.349 . S
C764 H758 0.950 . S
C764 C765 1.327 . S
C765 H759 0.950 . S
C765 C764 1.327 . S
C765 C769 1.429 . S
C766 C749 1.574 . S
C766 H760 0.949 . S
C766 C770 1.368 . S
C767 C748 1.429 . S
C767 C761 1.429 . S
C767 C768 1.523 . S
C768 C749 1.368 . S
C768 C762 1.368 . S
C768 C767 1.523 . S
C769 C753 1.429 . S
C769 C765 1.429 . S
C769 C770 1.523 . S
C770 C754 1.368 . S
C770 C766 1.368 . S
C770 C769 1.523 . S
H771 C746 0.950 . S
H772 C748 0.950 . S
H773 C749 0.949 . S
H774 C751 0.950 . S
H775 C753 0.950 . S
C776 C777 1.349 . S
C776 C778 1.327 . S
C776 H801 0.950 . S
C777 C776 1.349 . S
C777 C793 1.349 . S
C778 C776 1.327 . S
C778 C797 1.429 . S
C778 H802 0.950 . S
C779 C796 1.574 . S
C779 C798 1.368 1_554 S
C779 H803 0.949 . S
H780 C784 0.949 . S
C781 C782 1.349 . S
C781 C783 1.327 . S
C781 H804 0.950 . S
C782 C781 1.349 . S
C782 C794 1.349 . S
C783 C781 1.327 . S
C783 C799 1.429 . S
C783 H805 0.950 . S
C784 H780 0.949 . S
C784 C792 1.574 . S
C784 C800 1.368 1_556 S
H785 C793 0.950 . S
H786 C791 0.950 . S
H787 C792 0.949 . S
H788 C794 0.950 . S
H789 C795 0.950 . S
H790 C796 0.949 . S
C791 H786 0.950 . S
C791 C793 1.327 . S
C791 C797 1.429 . S
C792 C784 1.574 . S
C792 H787 0.949 . S
C792 C798 1.368 . S
C793 C777 1.349 . S
C793 H785 0.950 . S
C793 C791 1.327 . S
C794 C782 1.349 . S
C794 H788 0.950 . S
C794 C795 1.327 . S
C795 H789 0.950 . S
C795 C794 1.327 . S
C795 C799 1.429 . S
C796 C779 1.574 . S
C796 H790 0.949 . S
C796 C800 1.368 . S
C797 C778 1.429 . S
C797 C791 1.429 . S
C797 C798 1.523 . S
C798 C779 1.368 1_556 S
C798 C792 1.368 . S
C798 C797 1.523 . S
C799 C783 1.429 . S
C799 C795 1.429 . S
C799 C800 1.523 . S
C800 C784 1.368 1_554 S
C800 C796 1.368 . S
C800 C799 1.523 . S
H801 C776 0.950 . S
H802 C778 0.950 . S
H803 C779 0.949 . S
H804 C781 0.950 . S
H805 C783 0.950 . S
C806 C807 1.349 . S
C806 C808 1.327 . S
C806 H831 0.950 . S
C807 C806 1.349 . S
C807 C823 1.349 . S
C808 C806 1.327 . S
C808 C827 1.429 . S
C808 H832 0.950 . S
C809 C826 1.574 . S
C809 C828 1.368 . S
C809 H833 0.949 . S
H810 C814 0.949 . S
C811 C812 1.349 . S
C811 C813 1.327 . S
C811 H834 0.950 . S
C812 C811 1.349 . S
C812 C824 1.349 . S
C813 C811 1.327 . S
C813 C829 1.429 . S
C813 H835 0.950 . S
C814 H810 0.949 . S
C814 C822 1.574 . S
C814 C830 1.368 . S
H815 C823 0.950 . S
H816 C821 0.950 . S
H817 C822 0.949 . S
H818 C824 0.950 . S
H819 C825 0.950 . S
H820 C826 0.949 . S
C821 H816 0.950 . S
C821 C823 1.327 . S
C821 C827 1.429 . S
C822 C814 1.574 . S
C822 H817 0.949 . S
C822 C828 1.368 . S
C823 C807 1.349 . S
C823 H815 0.950 . S
C823 C821 1.327 . S
C824 C812 1.349 . S
C824 H818 0.950 . S
C824 C825 1.327 . S
C825 H819 0.950 . S
C825 C824 1.327 . S
C825 C829 1.429 . S
C826 C809 1.574 . S
C826 H820 0.949 . S
C826 C830 1.368 . S
C827 C808 1.429 . S
C827 C821 1.429 . S
C827 C828 1.523 . S
C828 C809 1.368 . S
C828 C822 1.368 . S
C828 C827 1.523 . S
C829 C813 1.429 . S
C829 C825 1.429 . S
C829 C830 1.523 . S
C830 C814 1.368 . S
C830 C826 1.368 . S
C830 C829 1.523 . S
H831 C806 0.950 . S
H832 C808 0.950 . S
H833 C809 0.949 . S
H834 C811 0.950 . S
H835 C813 0.950 . S
C836 C837 1.349 . S
C836 C838 1.327 . S
C836 H861 0.950 . S
C837 C836 1.349 . S
C837 C853 1.349 . S
C838 C836 1.327 . S
C838 C857 1.429 . S
C838 H862 0.950 . S
C839 C856 1.574 . S
C839 C858 1.368 . S
C839 H863 0.949 . S
H840 C844 0.949 . S
C841 C842 1.349 . S
C841 C843 1.327 . S
C841 H864 0.950 . S
C842 C841 1.349 . S
C842 C854 1.349 . S
C843 C841 1.327 . S
C843 C859 1.429 . S
C843 H865 0.950 . S
C844 H840 0.949 . S
C844 C852 1.574 . S
C844 C860 1.368 . S
H845 C853 0.950 . S
H846 C851 0.950 . S
H847 C852 0.949 . S
H848 C854 0.950 . S
H849 C855 0.950 . S
H850 C856 0.949 . S
C851 H846 0.950 . S
C851 C853 1.327 . S
C851 C857 1.429 . S
C852 C844 1.574 . S
C852 H847 0.949 . S
C852 C858 1.368 . S
C853 C837 1.349 . S
C853 H845 0.950 . S
C853 C851 1.327 . S
C854 C842 1.349 . S
C854 H848 0.950 . S
C854 C855 1.327 . S
C855 H849 0.950 . S
C855 C854 1.327 . S
C855 C859 1.429 . S
C856 C839 1.574 . S
C856 H850 0.949 . S
C856 C860 1.368 . S
C857 C838 1.429 . S
C857 C851 1.429 . S
C857 C858 1.523 . S
C858 C839 1.368 . S
C858 C852 1.368 . S
C858 C857 1.523 . S
C859 C843 1.429 . S
C859 C855 1.429 . S
C859 C860 1.523 . S
C860 C844 1.368 . S
C860 C856 1.368 . S
C860 C859 1.523 . S
H861 C836 0.950 . S
H862 C838 0.950 . S
H863 C839 0.949 . S
H864 C841 0.950 . S
H865 C843 0.950 . S
C866 C867 1.349 . S
C866 C868 1.327 . S
C866 H891 0.950 . S
C867 C866 1.349 . S
C867 C883 1.349 . S
C868 C866 1.327 . S
C868 C887 1.429 . S
C868 H892 0.950 . S
C869 C886 1.574 . S
C869 C888 1.368 . S
C869 H893 0.949 . S
H870 C874 0.949 . S
C871 C872 1.349 . S
C871 C873 1.327 . S
C871 H894 0.950 . S
C872 C871 1.349 . S
C872 C884 1.349 . S
C873 C871 1.327 . S
C873 C889 1.429 . S
C873 H895 0.950 . S
C874 H870 0.949 . S
C874 C882 1.574 . S
C874 C890 1.368 . S
H875 C883 0.950 . S
H876 C881 0.950 . S
H877 C882 0.949 . S
H878 C884 0.950 . S
H879 C885 0.950 . S
H880 C886 0.949 . S
C881 H876 0.950 . S
C881 C883 1.327 . S
C881 C887 1.429 . S
C882 C874 1.574 . S
C882 H877 0.949 . S
C882 C888 1.368 . S
C883 C867 1.349 . S
C883 H875 0.950 . S
C883 C881 1.327 . S
C884 C872 1.349 . S
C884 H878 0.950 . S
C884 C885 1.327 . S
C885 H879 0.950 . S
C885 C884 1.327 . S
C885 C889 1.429 . S
C886 C869 1.574 . S
C886 H880 0.949 . S
C886 C890 1.368 . S
C887 C868 1.429 . S
C887 C881 1.429 . S
C887 C888 1.523 . S
C888 C869 1.368 . S
C888 C882 1.368 . S
C888 C887 1.523 . S
C889 C873 1.429 . S
C889 C885 1.429 . S
C889 C890 1.523 . S
C890 C874 1.368 . S
C890 C886 1.368 . S
C890 C889 1.523 . S
H891 C866 0.950 . S
H892 C868 0.950 . S
H893 C869 0.949 . S
H894 C871 0.950 . S
H895 C873 0.950 . S
C896 C897 1.349 . S
C896 C898 1.327 . S
C896 H921 0.950 . S
C897 C896 1.349 . S
C897 C913 1.349 . S
C898 C896 1.327 . S
C898 C917 1.429 1_556 S
C898 H922 0.950 . S
C899 C916 1.574 . S
C899 C918 1.368 . S
C899 H923 0.949 . S
H900 C904 0.949 . S
C901 C902 1.349 . S
C901 C903 1.327 . S
C901 H924 0.950 . S
C902 C901 1.349 . S
C902 C914 1.349 . S
C903 C901 1.327 . S
C903 C919 1.429 . S
C903 H925 0.950 . S
C904 H900 0.949 . S
C904 C912 1.574 . S
C904 C920 1.368 . S
H905 C913 0.948 1_554 S
H906 C911 0.950 . S
H907 C912 0.949 . S
H908 C914 0.950 . S
H909 C915 0.950 . S
H910 C916 0.949 . S
C911 H906 0.950 . S
C911 C913 1.327 1_554 S
C911 C917 1.429 . S
C912 C904 1.574 . S
C912 H907 0.949 . S
C912 C918 1.368 . S
C913 C897 1.349 . S
C913 H905 0.948 1_556 S
C913 C911 1.327 1_556 S
C914 C902 1.349 . S
C914 H908 0.950 . S
C914 C915 1.327 . S
C915 H909 0.950 . S
C915 C914 1.327 . S
C915 C919 1.429 . S
C916 C899 1.574 . S
C916 H910 0.949 . S
C916 C920 1.368 . S
C917 C898 1.429 1_554 S
C917 C911 1.429 . S
C917 C918 1.523 . S
C918 C899 1.368 . S
C918 C912 1.368 . S
C918 C917 1.523 . S
C919 C903 1.429 . S
C919 C915 1.429 . S
C919 C920 1.523 . S
C920 C904 1.368 . S
C920 C916 1.368 . S
C920 C919 1.523 . S
H921 C896 0.950 . S
H922 C898 0.950 . S
H923 C899 0.949 . S
H924 C901 0.950 . S
H925 C903 0.950 . S
C926 C927 1.349 . S
C926 C928 1.327 . S
C926 H951 0.950 . S
C927 C926 1.349 . S
C927 C943 1.349 . S
C928 C926 1.327 . S
C928 C947 1.429 . S
C928 H952 0.950 . S
C929 C946 1.574 . S
C929 C948 1.368 . S
C929 H953 0.949 . S
H930 C934 0.949 . S
C931 C932 1.349 . S
C931 C933 1.327 . S
C931 H954 0.950 . S
C932 C931 1.349 . S
C932 C944 1.349 . S
C933 C931 1.327 . S
C933 C949 1.429 . S
C933 H955 0.950 . S
C934 H930 0.949 . S
C934 C942 1.574 . S
C934 C950 1.368 . S
H935 C943 0.950 . S
H936 C941 0.950 . S
H937 C942 0.949 . S
H938 C944 0.950 . S
H939 C945 0.950 . S
H940 C946 0.949 . S
C941 H936 0.950 . S
C941 C943 1.327 . S
C941 C947 1.429 . S
C942 C934 1.574 . S
C942 H937 0.949 . S
C942 C948 1.368 . S
C943 C927 1.349 . S
C943 H935 0.950 . S
C943 C941 1.327 . S
C944 C932 1.349 . S
C944 H938 0.950 . S
C944 C945 1.327 . S
C945 H939 0.950 . S
C945 C944 1.327 . S
C945 C949 1.429 . S
C946 C929 1.574 . S
C946 H940 0.949 . S
C946 C950 1.368 . S
C947 C928 1.429 . S
C947 C941 1.429 . S
C947 C948 1.523 . S
C948 C929 1.368 . S
C948 C942 1.368 . S
C948 C947 1.523 . S
C949 C933 1.429 . S
C949 C945 1.429 . S
C949 C950 1.523 . S
C950 C934 1.368 . S
C950 C946 1.368 . S
C950 C949 1.523 . S
H951 C926 0.950 . S
H952 C928 0.950 . S
H953 C929 0.949 . S
H954 C931 0.950 . S
H955 C933 0.950 . S
C956 C957 1.349 . S
C956 C958 1.327 . S
C956 H981 0.950 . S
C957 C956 1.349 . S
C957 C973 1.349 . S
C958 C956 1.327 . S
C958 C977 1.429 . S
C958 H982 0.950 . S
C959 C976 1.574 . S
C959 C978 1.368 . S
C959 H983 0.949 . S
H960 C964 0.949 . S
C961 C962 1.349 . S
C961 C963 1.327 . S
C961 H984 0.950 . S
C962 C961 1.349 . S
C962 C974 1.349 . S
C963 C961 1.327 . S
C963 C979 1.429 . S
C963 H985 0.950 . S
C964 H960 0.949 . S
C964 C972 1.574 . S
C964 C980 1.368 . S
H965 C973 0.950 . S
H966 C971 0.950 . S
H967 C972 0.949 . S
H968 C974 0.950 . S
H969 C975 0.950 . S
H970 C976 0.949 . S
C971 H966 0.950 . S
C971 C973 1.327 . S
C971 C977 1.429 . S
C972 C964 1.574 . S
C972 H967 0.949 . S
C972 C978 1.368 . S
C973 C957 1.349 . S
C973 H965 0.950 . S
C973 C971 1.327 . S
C974 C962 1.349 . S
C974 H968 0.950 . S
C974 C975 1.327 . S
C975 H969 0.950 . S
C975 C974 1.327 . S
C975 C979 1.429 . S
C976 C959 1.574 . S
C976 H970 0.949 . S
C976 C980 1.368 . S
C977 C958 1.429 . S
C977 C971 1.429 . S
C977 C978 1.523 . S
C978 C959 1.368 . S
C978 C972 1.368 . S
C978 C977 1.523 . S
C979 C963 1.429 . S
C979 C975 1.429 . S
C979 C980 1.523 . S
C980 C964 1.368 . S
C980 C976 1.368 . S
C980 C979 1.523 . S
H981 C956 0.950 . S
H982 C958 0.950 . S
H983 C959 0.949 . S
H984 C961 0.950 . S
H985 C963 0.950 . S
C986 C987 1.349 . S
C986 C988 1.327 . S
C986 H1011 0.950 . S
C987 C986 1.349 . S
C987 C1003 1.349 . S
C988 C986 1.327 . S
C988 C1007 1.429 . S
C988 H1012 0.950 . S
C989 C1006 1.574 . S
C989 C1008 1.368 . S
C989 H1013 0.949 . S
H990 C994 0.949 . S
C991 C992 1.351 . S
C991 C993 1.325 1_554 S
C991 H1014 0.949 1_554 S
C992 C991 1.351 . S
C992 C1004 1.349 . S
C993 C991 1.325 1_556 S
C993 C1009 1.429 . S
C993 H1015 0.950 . S
C994 H990 0.949 . S
C994 C1002 1.574 . S
C994 C1010 1.368 . S
H995 C1003 0.950 . S
H996 C1001 0.950 . S
H997 C1002 0.949 . S
H998 C1004 0.950 . S
H999 C1005 0.950 . S
H1000 C1006 0.949 . S
C1001 H996 0.950 . S
C1001 C1003 1.327 . S
C1001 C1007 1.429 . S
C1002 C994 1.574 . S
C1002 H997 0.949 . S
C1002 C1008 1.368 . S
C1003 C987 1.349 . S
C1003 H995 0.950 . S
C1003 C1001 1.327 . S
C1004 C992 1.349 . S
C1004 H998 0.950 . S
C1004 C1005 1.327 . S
C1005 H999 0.950 . S
C1005 C1004 1.327 . S
C1005 C1009 1.429 1_554 S
C1006 C989 1.574 . S
C1006 H1000 0.949 . S
C1006 C1010 1.368 . S
C1007 C988 1.429 . S
C1007 C1001 1.429 . S
C1007 C1008 1.523 . S
C1008 C989 1.368 . S
C1008 C1002 1.368 . S
C1008 C1007 1.523 . S
C1009 C993 1.429 . S
C1009 C1005 1.429 1_556 S
C1009 C1010 1.523 . S
C1010 C994 1.368 . S
C1010 C1006 1.368 . S
C1010 C1009 1.523 . S
H1011 C986 0.950 . S
H1012 C988 0.950 . S
H1013 C989 0.949 . S
H1014 C991 0.949 1_556 S
H1015 C993 0.950 . S
C1016 C1017 1.331 1_556 S
C1016 C1018 1.342 . S
C1016 H1041 0.953 . S
C1017 C1016 1.331 1_554 S
C1017 C1033 1.349 . S
C1018 C1016 1.342 . S
C1018 C1037 1.429 . S
C1018 H1042 0.950 . S
C1019 C1036 1.574 . S
C1019 C1038 1.368 . S
C1019 H1043 0.949 . S
H1020 C1024 0.949 . S
C1021 C1022 1.349 . S
C1021 C1023 1.327 . S
C1021 H1044 0.950 . S
C1022 C1021 1.349 . S
C1022 C1034 1.349 . S
C1023 C1021 1.327 . S
C1023 C1039 1.429 . S
C1023 H1045 0.950 . S
C1024 H1020 0.949 . S
C1024 C1032 1.574 . S
C1024 C1040 1.368 . S
H1025 C1033 0.950 . S
H1026 C1031 0.950 . S
H1027 C1032 0.949 . S
H1028 C1034 0.950 . S
H1029 C1035 0.950 . S
H1030 C1036 0.949 . S
C1031 H1026 0.950 . S
C1031 C1033 1.327 . S
C1031 C1037 1.429 1_554 S
C1032 C1024 1.574 . S
C1032 H1027 0.949 . S
C1032 C1038 1.368 . S
C1033 C1017 1.349 . S
C1033 H1025 0.950 . S
C1033 C1031 1.327 . S
C1034 C1022 1.349 . S
C1034 H1028 0.950 . S
C1034 C1035 1.327 . S
C1035 H1029 0.950 . S
C1035 C1034 1.327 . S
C1035 C1039 1.429 . S
C1036 C1019 1.574 . S
C1036 H1030 0.949 . S
C1036 C1040 1.368 . S
C1037 C1018 1.429 . S
C1037 C1031 1.429 1_556 S
C1037 C1038 1.523 . S
C1038 C1019 1.368 . S
C1038 C1032 1.368 . S
C1038 C1037 1.523 . S
C1039 C1023 1.429 . S
C1039 C1035 1.429 . S
C1039 C1040 1.523 . S
C1040 C1024 1.368 . S
C1040 C1036 1.368 . S
C1040 C1039 1.523 . S
H1041 C1016 0.953 . S
H1042 C1018 0.950 . S
H1043 C1019 0.949 . S
H1044 C1021 0.950 . S
H1045 C1023 0.950 . S
C1046 C1047 1.349 . S
C1046 C1048 1.327 . S
C1046 H1071 0.950 . S
C1047 C1046 1.349 . S
C1047 C1063 1.349 . S
C1048 C1046 1.327 . S
C1048 C1067 1.429 . S
C1048 H1072 0.950 . S
C1049 C1066 1.574 . S
C1049 C1068 1.368 . S
C1049 H1073 0.949 . S
H1050 C1054 0.949 . S
C1051 C1052 1.349 . S
C1051 C1053 1.327 . S
C1051 H1074 0.950 . S
C1052 C1051 1.349 . S
C1052 C1064 1.349 . S
C1053 C1051 1.327 . S
C1053 C1069 1.429 . S
C1053 H1075 0.950 . S
C1054 H1050 0.949 . S
C1054 C1062 1.574 . S
C1054 C1070 1.368 . S
H1055 C1063 0.950 . S
H1056 C1061 0.950 . S
H1057 C1062 0.949 . S
H1058 C1064 0.950 . S
H1059 C1065 0.950 . S
H1060 C1066 0.949 . S
C1061 H1056 0.950 . S
C1061 C1063 1.327 . S
C1061 C1067 1.429 . S
C1062 C1054 1.574 . S
C1062 H1057 0.949 . S
C1062 C1068 1.368 . S
C1063 C1047 1.349 . S
C1063 H1055 0.950 . S
C1063 C1061 1.327 . S
C1064 C1052 1.349 . S
C1064 H1058 0.950 . S
C1064 C1065 1.327 . S
C1065 H1059 0.950 . S
C1065 C1064 1.327 . S
C1065 C1069 1.429 . S
C1066 C1049 1.574 . S
C1066 H1060 0.949 . S
C1066 C1070 1.368 . S
C1067 C1048 1.429 . S
C1067 C1061 1.429 . S
C1067 C1068 1.523 . S
C1068 C1049 1.368 . S
C1068 C1062 1.368 . S
C1068 C1067 1.523 . S
C1069 C1053 1.429 . S
C1069 C1065 1.429 . S
C1069 C1070 1.523 . S
C1070 C1054 1.368 . S
C1070 C1066 1.368 . S
C1070 C1069 1.523 . S
H1071 C1046 0.950 . S
H1072 C1048 0.950 . S
H1073 C1049 0.949 . S
H1074 C1051 0.950 . S
H1075 C1053 0.950 . S
C1076 C1077 1.349 . S
C1076 C1078 1.327 . S
C1076 H1101 0.950 . S
C1077 C1076 1.349 . S
C1077 C1093 1.349 . S
C1078 C1076 1.327 . S
C1078 C1097 1.429 . S
C1078 H1102 0.950 . S
C1079 C1096 1.574 . S
C1079 C1098 1.368 . S
C1079 H1103 0.949 . S
H1080 C1084 0.949 . S
C1081 C1082 1.349 . S
C1081 C1083 1.327 . S
C1081 H1104 0.950 . S
C1082 C1081 1.349 . S
C1082 C1094 1.349 . S
C1083 C1081 1.327 . S
C1083 C1099 1.429 . S
C1083 H1105 0.950 . S
C1084 H1080 0.949 . S
C1084 C1092 1.574 . S
C1084 C1100 1.368 . S
H1085 C1093 0.950 . S
H1086 C1091 0.950 . S
H1087 C1092 0.949 . S
H1088 C1094 0.950 . S
H1089 C1095 0.950 . S
H1090 C1096 0.949 . S
C1091 H1086 0.950 . S
C1091 C1093 1.327 . S
C1091 C1097 1.429 . S
C1092 C1084 1.574 . S
C1092 H1087 0.949 . S
C1092 C1098 1.368 . S
C1093 C1077 1.349 . S
C1093 H1085 0.950 . S
C1093 C1091 1.327 . S
C1094 C1082 1.349 . S
C1094 H1088 0.950 . S
C1094 C1095 1.327 . S
C1095 H1089 0.950 . S
C1095 C1094 1.327 . S
C1095 C1099 1.429 . S
C1096 C1079 1.574 . S
C1096 H1090 0.949 . S
C1096 C1100 1.368 . S
C1097 C1078 1.429 . S
C1097 C1091 1.429 . S
C1097 C1098 1.523 . S
C1098 C1079 1.368 . S
C1098 C1092 1.368 . S
C1098 C1097 1.523 . S
C1099 C1083 1.429 . S
C1099 C1095 1.429 . S
C1099 C1100 1.523 . S
C1100 C1084 1.368 . S
C1100 C1096 1.368 . S
C1100 C1099 1.523 . S
H1101 C1076 0.950 . S
H1102 C1078 0.950 . S
H1103 C1079 0.949 . S
H1104 C1081 0.950 . S
H1105 C1083 0.950 . S
C1106 C1107 1.333 1_554 S
C1106 C1108 1.341 . S
C1106 H1131 0.953 . S
C1107 C1106 1.333 1_556 S
C1107 C1123 1.349 . S
C1108 C1106 1.341 . S
C1108 C1127 1.429 . S
C1108 H1132 0.950 . S
C1109 C1126 1.574 . S
C1109 C1128 1.368 . S
C1109 H1133 0.949 . S
H1110 C1114 0.949 . S
C1111 C1112 1.349 . S
C1111 C1113 1.327 . S
C1111 H1134 0.950 . S
C1112 C1111 1.349 . S
C1112 C1124 1.349 . S
C1113 C1111 1.327 . S
C1113 C1129 1.429 . S
C1113 H1135 0.950 . S
C1114 H1110 0.949 . S
C1114 C1122 1.574 . S
C1114 C1130 1.368 . S
H1115 C1123 0.950 . S
H1116 C1121 0.950 . S
H1117 C1122 0.949 . S
H1118 C1124 0.950 . S
H1119 C1125 0.950 . S
H1120 C1126 0.949 . S
C1121 H1116 0.950 . S
C1121 C1123 1.327 . S
C1121 C1127 1.429 1_556 S
C1122 C1114 1.574 . S
C1122 H1117 0.949 . S
C1122 C1128 1.368 . S
C1123 C1107 1.349 . S
C1123 H1115 0.950 . S
C1123 C1121 1.327 . S
C1124 C1112 1.349 . S
C1124 H1118 0.950 . S
C1124 C1125 1.327 . S
C1125 H1119 0.950 . S
C1125 C1124 1.327 . S
C1125 C1129 1.429 . S
C1126 C1109 1.574 . S
C1126 H1120 0.949 . S
C1126 C1130 1.368 . S
C1127 C1108 1.429 . S
C1127 C1121 1.429 1_554 S
C1127 C1128 1.523 . S
C1128 C1109 1.368 . S
C1128 C1122 1.368 . S
C1128 C1127 1.523 . S
C1129 C1113 1.429 . S
C1129 C1125 1.429 . S
C1129 C1130 1.523 . S
C1130 C1114 1.368 . S
C1130 C1126 1.368 . S
C1130 C1129 1.523 . S
H1131 C1106 0.953 . S
H1132 C1108 0.950 . S
H1133 C1109 0.949 . S
H1134 C1111 0.950 . S
H1135 C1113 0.950 . S
C1136 C1137 1.349 . S
C1136 C1138 1.327 . S
C1136 H1161 0.950 . S
C1137 C1136 1.349 . S
C1137 C1153 1.349 . S
C1138 C1136 1.327 . S
C1138 C1157 1.429 . S
C1138 H1162 0.950 . S
C1139 C1156 1.574 . S
C1139 C1158 1.368 . S
C1139 H1163 0.949 . S
H1140 C1144 0.949 . S
C1141 C1142 1.349 . S
C1141 C1143 1.327 . S
C1141 H1164 0.950 . S
C1142 C1141 1.349 . S
C1142 C1154 1.349 . S
C1143 C1141 1.327 . S
C1143 C1159 1.429 . S
C1143 H1165 0.950 . S
C1144 H1140 0.949 . S
C1144 C1152 1.574 . S
C1144 C1160 1.368 . S
H1145 C1153 0.950 . S
H1146 C1151 0.950 . S
H1147 C1152 0.949 . S
H1148 C1154 0.950 . S
H1149 C1155 0.950 . S
H1150 C1156 0.949 . S
C1151 H1146 0.950 . S
C1151 C1153 1.327 . S
C1151 C1157 1.429 . S
C1152 C1144 1.574 . S
C1152 H1147 0.949 . S
C1152 C1158 1.368 . S
C1153 C1137 1.349 . S
C1153 H1145 0.950 . S
C1153 C1151 1.327 . S
C1154 C1142 1.349 . S
C1154 H1148 0.950 . S
C1154 C1155 1.327 . S
C1155 H1149 0.950 . S
C1155 C1154 1.327 . S
C1155 C1159 1.429 . S
C1156 C1139 1.574 . S
C1156 H1150 0.949 . S
C1156 C1160 1.368 . S
C1157 C1138 1.429 . S
C1157 C1151 1.429 . S
C1157 C1158 1.523 . S
C1158 C1139 1.368 . S
C1158 C1152 1.368 . S
C1158 C1157 1.523 . S
C1159 C1143 1.429 . S
C1159 C1155 1.429 . S
C1159 C1160 1.523 . S
C1160 C1144 1.368 . S
C1160 C1156 1.368 . S
C1160 C1159 1.523 . S
H1161 C1136 0.950 . S
H1162 C1138 0.950 . S
H1163 C1139 0.949 . S
H1164 C1141 0.950 . S
H1165 C1143 0.950 . S
C1166 C1167 1.349 . S
C1166 C1168 1.327 1_554 S
C1166 H1191 0.950 . S
C1167 C1166 1.349 . S
C1167 C1183 1.349 . S
C1168 C1166 1.327 1_556 S
C1168 C1187 1.429 . S
C1168 H1192 0.950 . S
C1169 C1186 1.574 . S
C1169 C1188 1.368 . S
C1169 H1193 0.949 . S
H1170 C1174 0.949 . S
C1171 C1172 1.349 . S
C1171 C1173 1.327 . S
C1171 H1194 0.950 . S
C1172 C1171 1.349 . S
C1172 C1184 1.349 . S
C1173 C1171 1.327 . S
C1173 C1189 1.429 . S
C1173 H1195 0.950 . S
C1174 H1170 0.949 . S
C1174 C1182 1.574 . S
C1174 C1190 1.368 . S
H1175 C1183 0.950 . S
H1176 C1181 0.950 . S
H1177 C1182 0.949 . S
H1178 C1184 0.950 . S
H1179 C1185 0.950 . S
H1180 C1186 0.949 . S
C1181 H1176 0.950 . S
C1181 C1183 1.327 . S
C1181 C1187 1.429 1_554 S
C1182 C1174 1.574 . S
C1182 H1177 0.949 . S
C1182 C1188 1.368 . S
C1183 C1167 1.349 . S
C1183 H1175 0.950 . S
C1183 C1181 1.327 . S
C1184 C1172 1.349 . S
C1184 H1178 0.950 . S
C1184 C1185 1.327 . S
C1185 H1179 0.950 . S
C1185 C1184 1.327 . S
C1185 C1189 1.429 . S
C1186 C1169 1.574 . S
C1186 H1180 0.949 . S
C1186 C1190 1.368 . S
C1187 C1168 1.429 . S
C1187 C1181 1.429 1_556 S
C1187 C1188 1.523 . S
C1188 C1169 1.368 . S
C1188 C1182 1.368 . S
C1188 C1187 1.523 . S
C1189 C1173 1.429 . S
C1189 C1185 1.429 . S
C1189 C1190 1.523 . S
C1190 C1174 1.368 . S
C1190 C1186 1.368 . S
C1190 C1189 1.523 . S
H1191 C1166 0.950 . S
H1192 C1168 0.950 . S
H1193 C1169 0.949 . S
H1194 C1171 0.950 . S
H1195 C1173 0.950 . S
C1196 C1197 1.349 . S
C1196 C1198 1.327 . S
C1196 H1221 0.950 . S
C1197 C1196 1.349 . S
C1197 C1213 1.349 . S
C1198 C1196 1.327 . S
C1198 C1217 1.429 . S
C1198 H1222 0.950 . S
C1199 C1216 1.574 . S
C1199 C1218 1.368 . S
C1199 H1223 0.949 . S
H1200 C1204 0.949 . S
C1201 C1202 1.349 . S
C1201 C1203 1.327 1_556 S
C1201 H1224 0.950 1_556 S
C1202 C1201 1.349 . S
C1202 C1214 1.349 . S
C1203 C1201 1.327 1_554 S
C1203 C1219 1.429 . S
C1203 H1225 0.950 . S
C1204 H1200 0.949 . S
C1204 C1212 1.574 . S
C1204 C1220 1.368 . S
H1205 C1213 0.950 . S
H1206 C1211 0.950 . S
H1207 C1212 0.949 . S
H1208 C1214 0.950 . S
H1209 C1215 0.950 . S
H1210 C1216 0.949 . S
C1211 H1206 0.950 . S
C1211 C1213 1.327 . S
C1211 C1217 1.429 . S
C1212 C1204 1.574 . S
C1212 H1207 0.949 . S
C1212 C1218 1.368 . S
C1213 C1197 1.349 . S
C1213 H1205 0.950 . S
C1213 C1211 1.327 . S
C1214 C1202 1.349 . S
C1214 H1208 0.950 . S
C1214 C1215 1.327 . S
C1215 H1209 0.950 . S
C1215 C1214 1.327 . S
C1215 C1219 1.429 1_556 S
C1216 C1199 1.574 . S
C1216 H1210 0.949 . S
C1216 C1220 1.368 . S
C1217 C1198 1.429 . S
C1217 C1211 1.429 . S
C1217 C1218 1.523 . S
C1218 C1199 1.368 . S
C1218 C1212 1.368 . S
C1218 C1217 1.523 . S
C1219 C1203 1.429 . S
C1219 C1215 1.429 1_554 S
C1219 C1220 1.523 . S
C1220 C1204 1.368 . S
C1220 C1216 1.368 . S
C1220 C1219 1.523 . S
H1221 C1196 0.950 . S
H1222 C1198 0.950 . S
H1223 C1199 0.949 . S
H1224 C1201 0.950 1_554 S
H1225 C1203 0.950 . S
C1226 C1227 1.349 . S
C1226 C1228 1.327 . S
C1226 H1251 0.950 . S
C1227 C1226 1.349 . S
C1227 C1243 1.349 . S
C1228 C1226 1.327 . S
C1228 C1247 1.429 . S
C1228 H1252 0.950 . S
C1229 C1246 1.574 . S
C1229 C1248 1.368 . S
C1229 H1253 0.949 . S
H1230 C1234 0.949 . S
C1231 C1232 1.349 . S
C1231 C1233 1.327 . S
C1231 H1254 0.950 . S
C1232 C1231 1.349 . S
C1232 C1244 1.349 . S
C1233 C1231 1.327 . S
C1233 C1249 1.429 . S
C1233 H1255 0.950 . S
C1234 H1230 0.949 . S
C1234 C1242 1.574 . S
C1234 C1250 1.368 . S
H1235 C1243 0.950 . S
H1236 C1241 0.950 . S
H1237 C1242 0.949 . S
H1238 C1244 0.950 . S
H1239 C1245 0.950 . S
H1240 C1246 0.949 . S
C1241 H1236 0.950 . S
C1241 C1243 1.327 . S
C1241 C1247 1.429 . S
C1242 C1234 1.574 . S
C1242 H1237 0.949 . S
C1242 C1248 1.368 . S
C1243 C1227 1.349 . S
C1243 H1235 0.950 . S
C1243 C1241 1.327 . S
C1244 C1232 1.349 . S
C1244 H1238 0.950 . S
C1244 C1245 1.327 . S
C1245 H1239 0.950 . S
C1245 C1244 1.327 . S
C1245 C1249 1.429 . S
C1246 C1229 1.574 . S
C1246 H1240 0.949 . S
C1246 C1250 1.368 . S
C1247 C1228 1.429 . S
C1247 C1241 1.429 . S
C1247 C1248 1.523 . S
C1248 C1229 1.368 . S
C1248 C1242 1.368 . S
C1248 C1247 1.523 . S
C1249 C1233 1.429 . S
C1249 C1245 1.429 . S
C1249 C1250 1.523 . S
C1250 C1234 1.368 . S
C1250 C1246 1.368 . S
C1250 C1249 1.523 . S
H1251 C1226 0.950 . S
H1252 C1228 0.950 . S
H1253 C1229 0.949 . S
H1254 C1231 0.950 . S
H1255 C1233 0.950 . S
C1256 C1257 1.349 . S
C1256 C1258 1.327 . S
C1256 H1281 0.950 . S
C1257 C1256 1.349 . S
C1257 C1273 1.349 . S
C1258 C1256 1.327 . S
C1258 C1277 1.429 . S
C1258 H1282 0.950 . S
C1259 C1276 1.574 . S
C1259 C1278 1.368 . S
C1259 H1283 0.949 . S
H1260 C1264 0.949 . S
C1261 C1262 1.349 . S
C1261 C1263 1.327 . S
C1261 H1284 0.950 . S
C1262 C1261 1.349 . S
C1262 C1274 1.349 . S
C1263 C1261 1.327 . S
C1263 C1279 1.429 . S
C1263 H1285 0.950 . S
C1264 H1260 0.949 . S
C1264 C1272 1.574 . S
C1264 C1280 1.368 . S
H1265 C1273 0.950 . S
H1266 C1271 0.950 . S
H1267 C1272 0.949 . S
H1268 C1274 0.950 . S
H1269 C1275 0.950 . S
H1270 C1276 0.949 . S
C1271 H1266 0.950 . S
C1271 C1273 1.327 . S
C1271 C1277 1.429 . S
C1272 C1264 1.574 . S
C1272 H1267 0.949 . S
C1272 C1278 1.368 . S
C1273 C1257 1.349 . S
C1273 H1265 0.950 . S
C1273 C1271 1.327 . S
C1274 C1262 1.349 . S
C1274 H1268 0.950 . S
C1274 C1275 1.327 . S
C1275 H1269 0.950 . S
C1275 C1274 1.327 . S
C1275 C1279 1.429 . S
C1276 C1259 1.574 . S
C1276 H1270 0.949 . S
C1276 C1280 1.368 . S
C1277 C1258 1.429 . S
C1277 C1271 1.429 . S
C1277 C1278 1.523 . S
C1278 C1259 1.368 . S
C1278 C1272 1.368 . S
C1278 C1277 1.523 . S
C1279 C1263 1.429 . S
C1279 C1275 1.429 . S
C1279 C1280 1.523 . S
C1280 C1264 1.368 . S
C1280 C1276 1.368 . S
C1280 C1279 1.523 . S
H1281 C1256 0.950 . S
H1282 C1258 0.950 . S
H1283 C1259 0.949 . S
H1284 C1261 0.950 . S
H1285 C1263 0.950 . S
C1286 C1287 1.349 . S
C1286 C1288 1.326 . S
C1286 H1311 0.950 . S
C1287 C1286 1.349 . S
C1287 C1303 1.349 . S
C1288 C1286 1.326 . S
C1288 C1307 1.430 1_556 S
C1288 H1312 0.950 1_556 S
C1289 C1306 1.574 . S
C1289 C1308 1.368 . S
C1289 H1313 0.949 . S
H1290 C1294 0.949 . S
C1291 C1292 1.349 . S
C1291 C1293 1.327 . S
C1291 H1314 0.950 . S
C1292 C1291 1.349 . S
C1292 C1304 1.349 . S
C1293 C1291 1.327 . S
C1293 C1309 1.429 . S
C1293 H1315 0.950 . S
C1294 H1290 0.949 . S
C1294 C1302 1.574 . S
C1294 C1310 1.368 . S
H1295 C1303 0.950 . S
H1296 C1301 0.950 . S
H1297 C1302 0.949 . S
H1298 C1304 0.950 . S
H1299 C1305 0.950 . S
H1300 C1306 0.949 . S
C1301 H1296 0.950 . S
C1301 C1303 1.327 1_554 S
C1301 C1307 1.429 . S
C1302 C1294 1.574 . S
C1302 H1297 0.949 . S
C1302 C1308 1.368 . S
C1303 C1287 1.349 . S
C1303 H1295 0.950 . S
C1303 C1301 1.327 1_556 S
C1304 C1292 1.349 . S
C1304 H1298 0.950 . S
C1304 C1305 1.327 . S
C1305 H1299 0.950 . S
C1305 C1304 1.327 . S
C1305 C1309 1.429 . S
C1306 C1289 1.574 . S
C1306 H1300 0.949 . S
C1306 C1310 1.368 . S
C1307 C1288 1.430 1_554 S
C1307 C1301 1.429 . S
C1307 C1308 1.523 . S
C1308 C1289 1.368 . S
C1308 C1302 1.368 . S
C1308 C1307 1.523 . S
C1309 C1293 1.429 . S
C1309 C1305 1.429 . S
C1309 C1310 1.523 . S
C1310 C1294 1.368 . S
C1310 C1306 1.368 . S
C1310 C1309 1.523 . S
H1311 C1286 0.950 . S
H1312 C1288 0.950 1_554 S
H1313 C1289 0.949 . S
H1314 C1291 0.950 . S
H1315 C1293 0.950 . S
C1316 C1317 1.349 . S
C1316 C1318 1.327 . S
C1316 H1341 0.950 . S
C1317 C1316 1.349 . S
C1317 C1333 1.349 . S
C1318 C1316 1.327 . S
C1318 C1337 1.429 . S
C1318 H1342 0.950 . S
C1319 C1336 1.574 . S
C1319 C1338 1.368 . S
C1319 H1343 0.949 . S
H1320 C1324 0.949 . S
C1321 C1322 1.349 . S
C1321 C1323 1.327 . S
C1321 H1344 0.950 . S
C1322 C1321 1.349 . S
C1322 C1334 1.366 . S
C1323 C1321 1.327 . S
C1323 C1339 1.429 1_554 S
C1323 H1345 0.950 . S
C1324 H1320 0.949 . S
C1324 C1332 1.574 . S
C1324 C1340 1.368 . S
H1325 C1333 0.950 . S
H1326 C1331 0.950 . S
H1327 C1332 0.949 . S
H1328 C1334 0.948 1_556 S
H1329 C1335 0.950 . S
H1330 C1336 0.949 . S
C1331 H1326 0.950 . S
C1331 C1333 1.327 . S
C1331 C1337 1.429 . S
C1332 C1324 1.574 . S
C1332 H1327 0.949 . S
C1332 C1338 1.368 . S
C1333 C1317 1.349 . S
C1333 H1325 0.950 . S
C1333 C1331 1.327 . S
C1334 C1322 1.366 . S
C1334 H1328 0.948 1_554 S
C1334 C1335 1.313 1_554 S
C1335 H1329 0.950 . S
C1335 C1334 1.313 1_556 S
C1335 C1339 1.429 . S
C1336 C1319 1.574 . S
C1336 H1330 0.949 . S
C1336 C1340 1.368 . S
C1337 C1318 1.429 . S
C1337 C1331 1.429 . S
C1337 C1338 1.523 . S
C1338 C1319 1.368 . S
C1338 C1332 1.368 . S
C1338 C1337 1.523 . S
C1339 C1323 1.429 1_556 S
C1339 C1335 1.429 . S
C1339 C1340 1.523 . S
C1340 C1324 1.368 . S
C1340 C1336 1.368 . S
C1340 C1339 1.523 . S
H1341 C1316 0.950 . S
H1342 C1318 0.950 . S
H1343 C1319 0.949 . S
H1344 C1321 0.950 . S
H1345 C1323 0.950 . S
C1346 C1347 1.349 . S
C1346 C1348 1.327 . S
C1346 H1371 0.950 . S
C1347 C1346 1.349 . S
C1347 C1363 1.349 . S
C1348 C1346 1.327 . S
C1348 C1367 1.429 . S
C1348 H1372 0.950 . S
C1349 C1366 1.574 . S
C1349 C1368 1.368 . S
C1349 H1373 0.949 . S
H1350 C1354 0.949 . S
C1351 C1352 1.349 . S
C1351 C1353 1.327 . S
C1351 H1374 0.950 . S
C1352 C1351 1.349 . S
C1352 C1364 1.349 . S
C1353 C1351 1.327 . S
C1353 C1369 1.429 . S
C1353 H1375 0.950 . S
C1354 H1350 0.949 . S
C1354 C1362 1.574 . S
C1354 C1370 1.368 . S
H1355 C1363 0.950 . S
H1356 C1361 0.950 . S
H1357 C1362 0.949 . S
H1358 C1364 0.950 . S
H1359 C1365 0.950 . S
H1360 C1366 0.949 . S
C1361 H1356 0.950 . S
C1361 C1363 1.327 . S
C1361 C1367 1.429 . S
C1362 C1354 1.574 . S
C1362 H1357 0.949 . S
C1362 C1368 1.368 . S
C1363 C1347 1.349 . S
C1363 H1355 0.950 . S
C1363 C1361 1.327 . S
C1364 C1352 1.349 . S
C1364 H1358 0.950 . S
C1364 C1365 1.327 . S
C1365 H1359 0.950 . S
C1365 C1364 1.327 . S
C1365 C1369 1.429 . S
C1366 C1349 1.574 . S
C1366 H1360 0.949 . S
C1366 C1370 1.368 . S
C1367 C1348 1.429 . S
C1367 C1361 1.429 . S
C1367 C1368 1.523 . S
C1368 C1349 1.368 . S
C1368 C1362 1.368 . S
C1368 C1367 1.523 . S
C1369 C1353 1.429 . S
C1369 C1365 1.429 . S
C1369 C1370 1.523 . S
C1370 C1354 1.368 . S
C1370 C1366 1.368 . S
C1370 C1369 1.523 . S
H1371 C1346 0.950 . S
H1372 C1348 0.950 . S
H1373 C1349 0.949 . S
H1374 C1351 0.950 . S
H1375 C1353 0.950 . S
C1376 C1377 1.349 . S
C1376 C1378 1.327 . S
C1376 H1401 0.950 . S
C1377 C1376 1.349 . S
C1377 C1393 1.349 . S
C1378 C1376 1.327 . S
C1378 C1397 1.429 . S
C1378 H1402 0.950 . S
C1379 C1396 1.574 . S
C1379 C1398 1.368 . S
C1379 H1403 0.949 . S
H1380 C1384 0.949 . S
C1381 C1382 1.349 1_554 S
C1381 C1383 1.327 . S
C1381 H1404 0.950 . S
C1382 C1381 1.349 1_556 S
C1382 C1394 1.349 . S
C1383 C1381 1.327 . S
C1383 C1399 1.429 . S
C1383 H1405 0.950 . S
C1384 H1380 0.949 . S
C1384 C1392 1.574 . S
C1384 C1400 1.368 . S
H1385 C1393 0.950 . S
H1386 C1391 0.950 . S
H1387 C1392 0.949 . S
H1388 C1394 0.950 . S
H1389 C1395 0.950 1_556 S
H1390 C1396 0.949 . S
C1391 H1386 0.950 . S
C1391 C1393 1.327 . S
C1391 C1397 1.429 . S
C1392 C1384 1.574 . S
C1392 H1387 0.949 . S
C1392 C1398 1.368 . S
C1393 C1377 1.349 . S
C1393 H1385 0.950 . S
C1393 C1391 1.327 . S
C1394 C1382 1.349 . S
C1394 H1388 0.950 . S
C1394 C1395 1.327 1_556 S
C1395 H1389 0.950 1_554 S
C1395 C1394 1.327 1_554 S
C1395 C1399 1.429 . S
C1396 C1379 1.574 . S
C1396 H1390 0.949 . S
C1396 C1400 1.368 . S
C1397 C1378 1.429 . S
C1397 C1391 1.429 . S
C1397 C1398 1.523 . S
C1398 C1379 1.368 . S
C1398 C1392 1.368 . S
C1398 C1397 1.523 . S
C1399 C1383 1.429 . S
C1399 C1395 1.429 . S
C1399 C1400 1.523 . S
C1400 C1384 1.368 . S
C1400 C1396 1.368 . S
C1400 C1399 1.523 . S
H1401 C1376 0.950 . S
H1402 C1378 0.950 . S
H1403 C1379 0.949 . S
H1404 C1381 0.950 . S
H1405 C1383 0.950 . S
C1406 C1407 1.349 . S
C1406 C1408 1.327 . S
C1406 H1431 0.950 . S
C1407 C1406 1.349 . S
C1407 C1423 1.349 . S
C1408 C1406 1.327 . S
C1408 C1427 1.429 . S
C1408 H1432 0.950 . S
C1409 C1426 1.574 1_655 S
C1409 C1428 1.368 . S
C1409 H1433 0.949 . S
H1410 C1414 0.944 1_455 S
C1411 C1412 1.349 . S
C1411 C1413 1.327 . S
C1411 H1434 0.950 . S
C1412 C1411 1.349 . S
C1412 C1424 1.349 . S
C1413 C1411 1.327 . S
C1413 C1429 1.429 . S
C1413 H1435 0.950 . S
C1414 H1410 0.944 1_655 S
C1414 C1422 1.623 . S
C1414 C1430 1.328 1_655 S
H1415 C1423 0.950 . S
H1416 C1421 0.950 . S
H1417 C1422 0.949 . S
H1418 C1424 0.950 . S
H1419 C1425 0.950 . S
H1420 C1426 0.949 . S
C1421 H1416 0.950 . S
C1421 C1423 1.327 . S
C1421 C1427 1.429 . S
C1422 C1414 1.623 . S
C1422 H1417 0.949 . S
C1422 C1428 1.368 . S
C1423 C1407 1.349 . S
C1423 H1415 0.950 . S
C1423 C1421 1.327 . S
C1424 C1412 1.349 . S
C1424 H1418 0.950 . S
C1424 C1425 1.327 . S
C1425 H1419 0.950 . S
C1425 C1424 1.327 . S
C1425 C1429 1.429 . S
C1426 C1409 1.574 1_455 S
C1426 H1420 0.949 . S
C1426 C1430 1.368 . S
C1427 C1408 1.429 . S
C1427 C1421 1.429 . S
C1427 C1428 1.523 . S
C1428 C1409 1.368 . S
C1428 C1422 1.368 . S
C1428 C1427 1.523 . S
C1429 C1413 1.429 . S
C1429 C1425 1.429 . S
C1429 C1430 1.523 . S
C1430 C1414 1.328 1_455 S
C1430 C1426 1.368 . S
C1430 C1429 1.523 . S
H1431 C1406 0.950 . S
H1432 C1408 0.950 . S
H1433 C1409 0.949 . S
H1434 C1411 0.950 . S
H1435 C1413 0.950 . S
C1436 C1437 1.349 . S
C1436 C1438 1.327 . S
C1436 H1461 0.950 . S
C1437 C1436 1.349 . S
C1437 C1453 1.349 . S
C1438 C1436 1.327 . S
C1438 C1457 1.429 . S
C1438 H1462 0.950 . S
C1439 C1456 1.574 . S
C1439 C1458 1.368 . S
C1439 H1463 0.949 . S
H1440 C1444 0.949 . S
C1441 C1442 1.349 . S
C1441 C1443 1.327 . S
C1441 H1464 0.950 . S
C1442 C1441 1.349 . S
C1442 C1454 1.349 . S
C1443 C1441 1.327 . S
C1443 C1459 1.429 . S
C1443 H1465 0.950 . S
C1444 H1440 0.949 . S
C1444 C1452 1.574 . S
C1444 C1460 1.368 . S
H1445 C1453 0.950 . S
H1446 C1451 0.950 . S
H1447 C1452 0.949 . S
H1448 C1454 0.950 . S
H1449 C1455 0.950 . S
H1450 C1456 0.949 . S
C1451 H1446 0.950 . S
C1451 C1453 1.327 . S
C1451 C1457 1.429 . S
C1452 C1444 1.574 . S
C1452 H1447 0.949 . S
C1452 C1458 1.368 . S
C1453 C1437 1.349 . S
C1453 H1445 0.950 . S
C1453 C1451 1.327 . S
C1454 C1442 1.349 . S
C1454 H1448 0.950 . S
C1454 C1455 1.327 . S
C1455 H1449 0.950 . S
C1455 C1454 1.327 . S
C1455 C1459 1.429 . S
C1456 C1439 1.574 . S
C1456 H1450 0.949 . S
C1456 C1460 1.368 . S
C1457 C1438 1.429 . S
C1457 C1451 1.429 . S
C1457 C1458 1.523 . S
C1458 C1439 1.368 . S
C1458 C1452 1.368 . S
C1458 C1457 1.523 . S
C1459 C1443 1.429 . S
C1459 C1455 1.429 . S
C1459 C1460 1.523 . S
C1460 C1444 1.368 . S
C1460 C1456 1.368 . S
C1460 C1459 1.523 . S
H1461 C1436 0.950 . S
H1462 C1438 0.950 . S
H1463 C1439 0.949 . S
H1464 C1441 0.950 . S
H1465 C1443 0.950 . S
C1466 C1467 1.349 . S
C1466 C1468 1.327 . S
C1466 H1491 0.950 . S
C1467 C1466 1.349 . S
C1467 C1483 1.349 . S
C1468 C1466 1.327 . S
C1468 C1487 1.429 . S
C1468 H1492 0.950 . S
C1469 C1486 1.574 . S
C1469 C1488 1.368 . S
C1469 H1493 0.949 . S
H1470 C1474 0.949 . S
C1471 C1472 1.349 . S
C1471 C1473 1.327 1_554 S
C1471 H1494 0.950 . S
C1472 C1471 1.349 . S
C1472 C1484 1.349 1_554 S
C1473 C1471 1.327 1_556 S
C1473 C1489 1.429 . S
C1473 H1495 0.950 . S
C1474 H1470 0.949 . S
C1474 C1482 1.574 . S
C1474 C1490 1.368 . S
H1475 C1483 0.950 . S
H1476 C1481 0.950 . S
H1477 C1482 0.949 . S
H1478 C1484 0.950 . S
H1479 C1485 0.950 . S
H1480 C1486 0.949 . S
C1481 H1476 0.950 . S
C1481 C1483 1.327 . S
C1481 C1487 1.429 . S
C1482 C1474 1.574 . S
C1482 H1477 0.949 . S
C1482 C1488 1.368 . S
C1483 C1467 1.349 . S
C1483 H1475 0.950 . S
C1483 C1481 1.327 . S
C1484 C1472 1.349 1_556 S
C1484 H1478 0.950 . S
C1484 C1485 1.327 . S
C1485 H1479 0.950 . S
C1485 C1484 1.327 . S
C1485 C1489 1.429 . S
C1486 C1469 1.574 . S
C1486 H1480 0.949 . S
C1486 C1490 1.368 . S
C1487 C1468 1.429 . S
C1487 C1481 1.429 . S
C1487 C1488 1.523 . S
C1488 C1469 1.368 . S
C1488 C1482 1.368 . S
C1488 C1487 1.523 . S
C1489 C1473 1.429 . S
C1489 C1485 1.429 . S
C1489 C1490 1.523 . S
C1490 C1474 1.368 . S
C1490 C1486 1.368 . S
C1490 C1489 1.523 . S
H1491 C1466 0.950 . S
H1492 C1468 0.950 . S
H1493 C1469 0.949 . S
H1494 C1471 0.950 . S
H1495 C1473 0.950 . S
C1496 C1497 1.349 . S
C1496 C1498 1.327 . S
C1496 H1521 0.950 . S
C1497 C1496 1.349 . S
C1497 C1513 1.349 . S
C1498 C1496 1.327 . S
C1498 C1517 1.429 . S
C1498 H1522 0.950 . S
C1499 C1516 1.574 . S
C1499 C1518 1.368 . S
C1499 H1523 0.949 . S
H1500 C1504 0.949 . S
C1501 C1502 1.349 . S
C1501 C1503 1.327 . S
C1501 H1524 0.950 . S
C1502 C1501 1.349 . S
C1502 C1514 1.349 . S
C1503 C1501 1.327 . S
C1503 C1519 1.429 . S
C1503 H1525 0.950 . S
C1504 H1500 0.949 . S
C1504 C1512 1.574 . S
C1504 C1520 1.368 . S
H1505 C1513 0.950 . S
H1506 C1511 0.950 . S
H1507 C1512 0.949 . S
H1508 C1514 0.950 . S
H1509 C1515 0.950 . S
H1510 C1516 0.949 . S
C1511 H1506 0.950 . S
C1511 C1513 1.327 . S
C1511 C1517 1.429 . S
C1512 C1504 1.574 . S
C1512 H1507 0.949 . S
C1512 C1518 1.368 . S
C1513 C1497 1.349 . S
C1513 H1505 0.950 . S
C1513 C1511 1.327 . S
C1514 C1502 1.349 . S
C1514 H1508 0.950 . S
C1514 C1515 1.327 . S
C1515 H1509 0.950 . S
C1515 C1514 1.327 . S
C1515 C1519 1.429 . S
C1516 C1499 1.574 . S
C1516 H1510 0.949 . S
C1516 C1520 1.368 . S
C1517 C1498 1.429 . S
C1517 C1511 1.429 . S
C1517 C1518 1.523 . S
C1518 C1499 1.368 . S
C1518 C1512 1.368 . S
C1518 C1517 1.523 . S
C1519 C1503 1.429 . S
C1519 C1515 1.429 . S
C1519 C1520 1.523 . S
C1520 C1504 1.368 . S
C1520 C1516 1.368 . S
C1520 C1519 1.523 . S
H1521 C1496 0.950 . S
H1522 C1498 0.950 . S
H1523 C1499 0.949 . S
H1524 C1501 0.950 . S
H1525 C1503 0.950 . S
C1526 C1527 1.349 . S
C1526 C1528 1.327 . S
C1526 H1551 0.950 . S
C1527 C1526 1.349 . S
C1527 C1543 1.349 . S
C1528 C1526 1.327 . S
C1528 C1547 1.429 . S
C1528 H1552 0.950 . S
C1529 C1546 1.574 . S
C1529 C1548 1.368 . S
C1529 H1553 0.949 . S
H1530 C1534 0.949 . S
C1531 C1532 1.349 . S
C1531 C1533 1.327 . S
C1531 H1554 0.950 . S
C1532 C1531 1.349 . S
C1532 C1544 1.349 . S
C1533 C1531 1.327 . S
C1533 C1549 1.429 . S
C1533 H1555 0.950 . S
C1534 H1530 0.949 . S
C1534 C1542 1.574 . S
C1534 C1550 1.368 . S
H1535 C1543 0.950 . S
H1536 C1541 0.950 . S
H1537 C1542 0.949 . S
H1538 C1544 0.950 . S
H1539 C1545 0.950 . S
H1540 C1546 0.949 . S
C1541 H1536 0.950 . S
C1541 C1543 1.327 . S
C1541 C1547 1.429 . S
C1542 C1534 1.574 . S
C1542 H1537 0.949 . S
C1542 C1548 1.368 . S
C1543 C1527 1.349 . S
C1543 H1535 0.950 . S
C1543 C1541 1.327 . S
C1544 C1532 1.349 . S
C1544 H1538 0.950 . S
C1544 C1545 1.327 . S
C1545 H1539 0.950 . S
C1545 C1544 1.327 . S
C1545 C1549 1.429 . S
C1546 C1529 1.574 . S
C1546 H1540 0.949 . S
C1546 C1550 1.368 . S
C1547 C1528 1.429 . S
C1547 C1541 1.429 . S
C1547 C1548 1.523 . S
C1548 C1529 1.368 . S
C1548 C1542 1.368 . S
C1548 C1547 1.523 . S
C1549 C1533 1.429 . S
C1549 C1545 1.429 . S
C1549 C1550 1.523 . S
C1550 C1534 1.368 . S
C1550 C1546 1.368 . S
C1550 C1549 1.523 . S
H1551 C1526 0.950 . S
H1552 C1528 0.950 . S
H1553 C1529 0.949 . S
H1554 C1531 0.950 . S
H1555 C1533 0.950 . S
C1556 C1557 1.349 . S
C1556 C1558 1.327 . S
C1556 H1581 0.950 . S
C1557 C1556 1.349 . S
C1557 C1573 1.349 . S
C1558 C1556 1.327 . S
C1558 C1577 1.429 . S
C1558 H1582 0.950 . S
C1559 C1576 1.574 . S
C1559 C1578 1.368 . S
C1559 H1583 0.949 . S
H1560 C1564 0.949 . S
C1561 C1562 1.349 1_556 S
C1561 C1563 1.327 . S
C1561 H1584 0.950 . S
C1562 C1561 1.349 1_554 S
C1562 C1574 1.349 . S
C1563 C1561 1.327 . S
C1563 C1579 1.429 . S
C1563 H1585 0.950 . S
C1564 H1560 0.949 . S
C1564 C1572 1.574 . S
C1564 C1580 1.368 . S
H1565 C1573 0.950 . S
H1566 C1571 0.950 . S
H1567 C1572 0.949 . S
H1568 C1574 0.950 . S
H1569 C1575 0.950 1_554 S
H1570 C1576 0.949 . S
C1571 H1566 0.950 . S
C1571 C1573 1.327 . S
C1571 C1577 1.429 . S
C1572 C1564 1.574 . S
C1572 H1567 0.949 . S
C1572 C1578 1.368 . S
C1573 C1557 1.349 . S
C1573 H1565 0.950 . S
C1573 C1571 1.327 . S
C1574 C1562 1.349 . S
C1574 H1568 0.950 . S
C1574 C1575 1.327 1_554 S
C1575 H1569 0.950 1_556 S
C1575 C1574 1.327 1_556 S
C1575 C1579 1.429 . S
C1576 C1559 1.574 . S
C1576 H1570 0.949 . S
C1576 C1580 1.368 . S
C1577 C1558 1.429 . S
C1577 C1571 1.429 . S
C1577 C1578 1.523 . S
C1578 C1559 1.368 . S
C1578 C1572 1.368 . S
C1578 C1577 1.523 . S
C1579 C1563 1.429 . S
C1579 C1575 1.429 . S
C1579 C1580 1.523 . S
C1580 C1564 1.368 . S
C1580 C1576 1.368 . S
C1580 C1579 1.523 . S
H1581 C1556 0.950 . S
H1582 C1558 0.950 . S
H1583 C1559 0.949 . S
H1584 C1561 0.950 . S
H1585 C1563 0.950 . S
C1586 C1587 1.349 . S
C1586 C1588 1.327 1_556 S
C1586 H1611 0.950 . S
C1587 C1586 1.349 . S
C1587 C1603 1.349 1_556 S
C1588 C1586 1.327 1_554 S
C1588 C1607 1.429 . S
C1588 H1612 0.950 1_554 S
C1589 C1606 1.574 1_455 S
C1589 C1608 1.368 . S
C1589 H1613 0.949 . S
H1590 C1594 0.949 . S
C1591 C1592 1.349 . S
C1591 C1593 1.327 . S
C1591 H1614 0.950 . S
C1592 C1591 1.349 . S
C1592 C1604 1.349 . S
C1593 C1591 1.327 . S
C1593 C1609 1.429 . S
C1593 H1615 0.950 . S
C1594 H1590 0.949 . S
C1594 C1602 1.558 1_655 S
C1594 C1610 1.368 . S
H1595 C1603 0.950 . S
H1596 C1601 0.950 . S
H1597 C1602 0.953 . S
H1598 C1604 0.950 . S
H1599 C1605 0.950 . S
H1600 C1606 0.949 . S
C1601 H1596 0.950 . S
C1601 C1603 1.327 . S
C1601 C1607 1.429 . S
C1602 C1594 1.558 1_455 S
C1602 H1597 0.953 . S
C1602 C1608 1.380 . S
C1603 C1587 1.349 1_554 S
C1603 H1595 0.950 . S
C1603 C1601 1.327 . S
C1604 C1592 1.349 . S
C1604 H1598 0.950 . S
C1604 C1605 1.327 . S
C1605 H1599 0.950 . S
C1605 C1604 1.327 . S
C1605 C1609 1.429 . S
C1606 C1589 1.574 1_655 S
C1606 H1600 0.949 . S
C1606 C1610 1.368 . S
C1607 C1588 1.429 . S
C1607 C1601 1.429 . S
C1607 C1608 1.523 . S
C1608 C1589 1.368 . S
C1608 C1602 1.380 . S
C1608 C1607 1.523 . S
C1609 C1593 1.429 . S
C1609 C1605 1.429 . S
C1609 C1610 1.523 . S
C1610 C1594 1.368 . S
C1610 C1606 1.368 . S
C1610 C1609 1.523 . S
H1611 C1586 0.950 . S
H1612 C1588 0.950 1_556 S
H1613 C1589 0.949 . S
H1614 C1591 0.950 . S
H1615 C1593 0.950 . S
C1616 C1617 1.349 . S
C1616 C1618 1.327 . S
C1616 H1641 0.950 . S
C1617 C1616 1.349 . S
C1617 C1633 1.349 . S
C1618 C1616 1.327 . S
C1618 C1637 1.429 . S
C1618 H1642 0.950 . S
C1619 C1636 1.574 . S
C1619 C1638 1.368 . S
C1619 H1643 0.949 . S
H1620 C1624 0.949 . S
C1621 C1622 1.349 1_556 S
C1621 C1623 1.327 . S
C1621 H1644 0.950 . S
C1622 C1621 1.349 1_554 S
C1622 C1634 1.349 . S
C1623 C1621 1.327 . S
C1623 C1639 1.429 . S
C1623 H1645 0.950 . S
C1624 H1620 0.949 . S
C1624 C1632 1.574 . S
C1624 C1640 1.368 . S
H1625 C1633 0.950 . S
H1626 C1631 0.950 . S
H1627 C1632 0.949 . S
H1628 C1634 0.950 . S
H1629 C1635 0.950 1_554 S
H1630 C1636 0.949 . S
C1631 H1626 0.950 . S
C1631 C1633 1.327 . S
C1631 C1637 1.429 . S
C1632 C1624 1.574 . S
C1632 H1627 0.949 . S
C1632 C1638 1.368 . S
C1633 C1617 1.349 . S
C1633 H1625 0.950 . S
C1633 C1631 1.327 . S
C1634 C1622 1.349 . S
C1634 H1628 0.950 . S
C1634 C1635 1.327 1_554 S
C1635 H1629 0.950 1_556 S
C1635 C1634 1.327 1_556 S
C1635 C1639 1.429 . S
C1636 C1619 1.574 . S
C1636 H1630 0.949 . S
C1636 C1640 1.368 . S
C1637 C1618 1.429 . S
C1637 C1631 1.429 . S
C1637 C1638 1.523 . S
C1638 C1619 1.368 . S
C1638 C1632 1.368 . S
C1638 C1637 1.523 . S
C1639 C1623 1.429 . S
C1639 C1635 1.429 . S
C1639 C1640 1.523 . S
C1640 C1624 1.368 . S
C1640 C1636 1.368 . S
C1640 C1639 1.523 . S
H1641 C1616 0.950 . S
H1642 C1618 0.950 . S
H1643 C1619 0.949 . S
H1644 C1621 0.950 . S
H1645 C1623 0.950 . S
C1646 C1647 1.349 . S
C1646 C1648 1.327 . S
C1646 H1671 0.950 . S
C1647 C1646 1.349 . S
C1647 C1663 1.349 . S
C1648 C1646 1.327 . S
C1648 C1667 1.429 . S
C1648 H1672 0.950 . S
C1649 C1666 1.574 1_455 S
C1649 C1668 1.368 . S
C1649 H1673 0.949 . S
H1650 C1654 0.949 . S
C1651 C1652 1.349 . S
C1651 C1653 1.327 . S
C1651 H1674 0.950 . S
C1652 C1651 1.349 . S
C1652 C1664 1.349 . S
C1653 C1651 1.327 . S
C1653 C1669 1.429 . S
C1653 H1675 0.950 . S
C1654 H1650 0.949 . S
C1654 C1662 1.574 1_655 S
C1654 C1670 1.368 . S
H1655 C1663 0.950 . S
H1656 C1661 0.950 . S
H1657 C1662 0.949 . S
H1658 C1664 0.950 . S
H1659 C1665 0.950 . S
H1660 C1666 0.949 . S
C1661 H1656 0.950 . S
C1661 C1663 1.327 . S
C1661 C1667 1.429 . S
C1662 C1654 1.574 1_455 S
C1662 H1657 0.949 . S
C1662 C1668 1.368 . S
C1663 C1647 1.349 . S
C1663 H1655 0.950 . S
C1663 C1661 1.327 . S
C1664 C1652 1.349 . S
C1664 H1658 0.950 . S
C1664 C1665 1.327 . S
C1665 H1659 0.950 . S
C1665 C1664 1.327 . S
C1665 C1669 1.429 . S
C1666 C1649 1.574 1_655 S
C1666 H1660 0.949 . S
C1666 C1670 1.368 . S
C1667 C1648 1.429 . S
C1667 C1661 1.429 . S
C1667 C1668 1.523 . S
C1668 C1649 1.368 . S
C1668 C1662 1.368 . S
C1668 C1667 1.523 . S
C1669 C1653 1.429 . S
C1669 C1665 1.429 . S
C1669 C1670 1.523 . S
C1670 C1654 1.368 . S
C1670 C1666 1.368 . S
C1670 C1669 1.523 . S
H1671 C1646 0.950 . S
H1672 C1648 0.950 . S
H1673 C1649 0.949 . S
H1674 C1651 0.950 . S
H1675 C1653 0.950 . S
C1676 C1677 1.349 . S
C1676 C1678 1.327 . S
C1676 H1701 0.950 . S
C1677 C1676 1.349 . S
C1677 C1693 1.349 . S
C1678 C1676 1.327 . S
C1678 C1697 1.429 . S
C1678 H1702 0.950 . S
C1679 C1696 1.574 . S
C1679 C1698 1.368 . S
C1679 H1703 0.949 . S
H1680 C1684 0.949 . S
C1681 C1682 1.349 . S
C1681 C1683 1.327 . S
C1681 H1704 0.950 . S
C1682 C1681 1.349 . S
C1682 C1694 1.349 . S
C1683 C1681 1.327 . S
C1683 C1699 1.429 . S
C1683 H1705 0.950 . S
C1684 H1680 0.949 . S
C1684 C1692 1.574 . S
C1684 C1700 1.368 . S
H1685 C1693 0.950 . S
H1686 C1691 0.950 . S
H1687 C1692 0.949 . S
H1688 C1694 0.950 . S
H1689 C1695 0.950 . S
H1690 C1696 0.949 . S
C1691 H1686 0.950 . S
C1691 C1693 1.327 . S
C1691 C1697 1.429 . S
C1692 C1684 1.574 . S
C1692 H1687 0.949 . S
C1692 C1698 1.368 . S
C1693 C1677 1.349 . S
C1693 H1685 0.950 . S
C1693 C1691 1.327 . S
C1694 C1682 1.349 . S
C1694 H1688 0.950 . S
C1694 C1695 1.327 . S
C1695 H1689 0.950 . S
C1695 C1694 1.327 . S
C1695 C1699 1.429 . S
C1696 C1679 1.574 . S
C1696 H1690 0.949 . S
C1696 C1700 1.368 . S
C1697 C1678 1.429 . S
C1697 C1691 1.429 . S
C1697 C1698 1.523 . S
C1698 C1679 1.368 . S
C1698 C1692 1.368 . S
C1698 C1697 1.523 . S
C1699 C1683 1.429 . S
C1699 C1695 1.429 . S
C1699 C1700 1.523 . S
C1700 C1684 1.368 . S
C1700 C1696 1.368 . S
C1700 C1699 1.523 . S
H1701 C1676 0.950 . S
H1702 C1678 0.950 . S
H1703 C1679 0.949 . S
H1704 C1681 0.950 . S
H1705 C1683 0.950 . S
C1706 C1707 1.349 . S
C1706 C1708 1.327 . S
C1706 H1731 0.950 . S
C1707 C1706 1.349 . S
C1707 C1723 1.349 . S
C1708 C1706 1.327 . S
C1708 C1727 1.429 . S
C1708 H1732 0.950 . S
C1709 C1726 1.574 . S
C1709 C1728 1.368 . S
C1709 H1733 0.949 . S
H1710 C1714 0.949 . S
C1711 C1712 1.349 1_554 S
C1711 C1713 1.327 . S
C1711 H1734 0.950 . S
C1712 C1711 1.349 1_556 S
C1712 C1724 1.349 . S
C1713 C1711 1.327 . S
C1713 C1729 1.429 . S
C1713 H1735 0.950 . S
C1714 H1710 0.949 . S
C1714 C1722 1.574 . S
C1714 C1730 1.368 . S
H1715 C1723 0.950 . S
H1716 C1721 0.950 . S
H1717 C1722 0.949 . S
H1718 C1724 0.950 . S
H1719 C1725 0.949 . S
H1720 C1726 0.949 . S
C1721 H1716 0.950 . S
C1721 C1723 1.327 . S
C1721 C1727 1.429 . S
C1722 C1714 1.574 . S
C1722 H1717 0.949 . S
C1722 C1728 1.368 . S
C1723 C1707 1.349 . S
C1723 H1715 0.950 . S
C1723 C1721 1.327 . S
C1724 C1712 1.349 . S
C1724 H1718 0.950 . S
C1724 C1725 1.327 1_556 S
C1725 H1719 0.949 . S
C1725 C1724 1.327 1_554 S
C1725 C1729 1.429 . S
C1726 C1709 1.574 . S
C1726 H1720 0.949 . S
C1726 C1730 1.368 . S
C1727 C1708 1.429 . S
C1727 C1721 1.429 . S
C1727 C1728 1.523 . S
C1728 C1709 1.368 . S
C1728 C1722 1.368 . S
C1728 C1727 1.523 . S
C1729 C1713 1.429 . S
C1729 C1725 1.429 . S
C1729 C1730 1.523 . S
C1730 C1714 1.368 . S
C1730 C1726 1.368 . S
C1730 C1729 1.523 . S
H1731 C1706 0.950 . S
H1732 C1708 0.950 . S
H1733 C1709 0.949 . S
H1734 C1711 0.950 . S
H1735 C1713 0.950 . S
C1736 C1737 1.349 . S
C1736 C1738 1.327 . S
C1736 H1761 0.950 . S
C1737 C1736 1.349 . S
C1737 C1753 1.349 . S
C1738 C1736 1.327 . S
C1738 C1757 1.429 . S
C1738 H1762 0.950 . S
C1739 C1756 1.574 . S
C1739 C1758 1.368 . S
C1739 H1763 0.949 . S
H1740 C1744 0.949 . S
C1741 C1742 1.349 . S
C1741 C1743 1.327 . S
C1741 H1764 0.950 . S
C1742 C1741 1.349 . S
C1742 C1754 1.349 . S
C1743 C1741 1.327 . S
C1743 C1759 1.429 . S
C1743 H1765 0.950 . S
C1744 H1740 0.949 . S
C1744 C1752 1.574 . S
C1744 C1760 1.368 . S
H1745 C1753 0.950 . S
H1746 C1751 0.950 . S
H1747 C1752 0.949 . S
H1748 C1754 0.950 . S
H1749 C1755 0.950 . S
H1750 C1756 0.949 . S
C1751 H1746 0.950 . S
C1751 C1753 1.327 . S
C1751 C1757 1.429 . S
C1752 C1744 1.574 . S
C1752 H1747 0.949 . S
C1752 C1758 1.368 . S
C1753 C1737 1.349 . S
C1753 H1745 0.950 . S
C1753 C1751 1.327 . S
C1754 C1742 1.349 . S
C1754 H1748 0.950 . S
C1754 C1755 1.327 . S
C1755 H1749 0.950 . S
C1755 C1754 1.327 . S
C1755 C1759 1.429 . S
C1756 C1739 1.574 . S
C1756 H1750 0.949 . S
C1756 C1760 1.368 . S
C1757 C1738 1.429 . S
C1757 C1751 1.429 . S
C1757 C1758 1.523 . S
C1758 C1739 1.368 . S
C1758 C1752 1.368 . S
C1758 C1757 1.523 . S
C1759 C1743 1.429 . S
C1759 C1755 1.429 . S
C1759 C1760 1.523 . S
C1760 C1744 1.368 . S
C1760 C1756 1.368 . S
C1760 C1759 1.523 . S
H1761 C1736 0.950 . S
H1762 C1738 0.950 . S
H1763 C1739 0.949 . S
H1764 C1741 0.950 . S
H1765 C1743 0.950 . S
C1766 C1767 1.349 . S
C1766 C1768 1.327 . S
C1766 H1791 0.950 . S
C1767 C1766 1.349 . S
C1767 C1783 1.349 . S
C1768 C1766 1.327 . S
C1768 C1787 1.429 . S
C1768 H1792 0.950 . S
C1769 C1786 1.574 . S
C1769 C1788 1.368 . S
C1769 H1793 0.949 . S
H1770 C1774 0.949 . S
C1771 C1772 1.349 . S
C1771 C1773 1.327 . S
C1771 H1794 0.950 . S
C1772 C1771 1.349 . S
C1772 C1784 1.349 . S
C1773 C1771 1.327 . S
C1773 C1789 1.429 . S
C1773 H1795 0.950 . S
C1774 H1770 0.949 . S
C1774 C1782 1.574 . S
C1774 C1790 1.368 . S
H1775 C1783 0.950 . S
H1776 C1781 0.950 . S
H1777 C1782 0.949 . S
H1778 C1784 0.950 . S
H1779 C1785 0.950 . S
H1780 C1786 0.949 . S
C1781 H1776 0.950 . S
C1781 C1783 1.327 . S
C1781 C1787 1.429 . S
C1782 C1774 1.574 . S
C1782 H1777 0.949 . S
C1782 C1788 1.368 . S
C1783 C1767 1.349 . S
C1783 H1775 0.950 . S
C1783 C1781 1.327 . S
C1784 C1772 1.349 . S
C1784 H1778 0.950 . S
C1784 C1785 1.327 . S
C1785 H1779 0.950 . S
C1785 C1784 1.327 . S
C1785 C1789 1.429 . S
C1786 C1769 1.574 . S
C1786 H1780 0.949 . S
C1786 C1790 1.368 . S
C1787 C1768 1.429 . S
C1787 C1781 1.429 . S
C1787 C1788 1.523 . S
C1788 C1769 1.368 . S
C1788 C1782 1.368 . S
C1788 C1787 1.523 . S
C1789 C1773 1.429 . S
C1789 C1785 1.429 . S
C1789 C1790 1.523 . S
C1790 C1774 1.368 . S
C1790 C1786 1.368 . S
C1790 C1789 1.523 . S
H1791 C1766 0.950 . S
H1792 C1768 0.950 . S
H1793 C1769 0.949 . S
H1794 C1771 0.950 . S
H1795 C1773 0.950 . S
C1796 C1797 1.349 . S
C1796 C1798 1.327 . S
C1796 H1821 0.950 . S
C1797 C1796 1.349 . S
C1797 C1813 1.349 . S
C1798 C1796 1.327 . S
C1798 C1817 1.429 . S
C1798 H1822 0.950 . S
C1799 C1816 1.574 . S
C1799 C1818 1.368 . S
C1799 H1823 0.949 . S
H1800 C1804 0.949 . S
C1801 C1802 1.349 1_554 S
C1801 C1803 1.327 . S
C1801 H1824 0.950 . S
C1802 C1801 1.349 1_556 S
C1802 C1814 1.349 . S
C1803 C1801 1.327 . S
C1803 C1819 1.429 . S
C1803 H1825 0.950 . S
C1804 H1800 0.949 . S
C1804 C1812 1.574 . S
C1804 C1820 1.368 . S
H1805 C1813 0.950 . S
H1806 C1811 0.950 . S
H1807 C1812 0.949 . S
H1808 C1814 0.950 . S
H1809 C1815 0.950 . S
H1810 C1816 0.949 . S
C1811 H1806 0.950 . S
C1811 C1813 1.327 . S
C1811 C1817 1.429 . S
C1812 C1804 1.574 . S
C1812 H1807 0.949 . S
C1812 C1818 1.368 . S
C1813 C1797 1.349 . S
C1813 H1805 0.950 . S
C1813 C1811 1.327 . S
C1814 C1802 1.349 . S
C1814 H1808 0.950 . S
C1814 C1815 1.327 1_556 S
C1815 H1809 0.950 . S
C1815 C1814 1.327 1_554 S
C1815 C1819 1.429 . S
C1816 C1799 1.574 . S
C1816 H1810 0.949 . S
C1816 C1820 1.368 . S
C1817 C1798 1.429 . S
C1817 C1811 1.429 . S
C1817 C1818 1.523 . S
C1818 C1799 1.368 . S
C1818 C1812 1.368 . S
C1818 C1817 1.523 . S
C1819 C1803 1.429 . S
C1819 C1815 1.429 . S
C1819 C1820 1.523 . S
C1820 C1804 1.368 . S
C1820 C1816 1.368 . S
C1820 C1819 1.523 . S
H1821 C1796 0.950 . S
H1822 C1798 0.950 . S
H1823 C1799 0.949 . S
H1824 C1801 0.950 . S
H1825 C1803 0.950 . S
C1826 C1827 1.349 . S
C1826 C1828 1.327 . S
C1826 H1851 0.950 . S
C1827 C1826 1.349 . S
C1827 C1843 1.349 . S
C1828 C1826 1.327 . S
C1828 C1847 1.429 . S
C1828 H1852 0.950 . S
C1829 C1846 1.555 1_455 S
C1829 C1848 1.368 . S
C1829 H1853 0.949 . S
H1830 C1834 0.949 . S
C1831 C1832 1.349 . S
C1831 C1833 1.327 1_554 S
C1831 H1854 0.950 . S
C1832 C1831 1.349 . S
C1832 C1844 1.349 1_554 S
C1833 C1831 1.327 1_556 S
C1833 C1849 1.429 . S
C1833 H1855 0.950 1_556 S
C1834 H1830 0.949 . S
C1834 C1842 1.574 1_655 S
C1834 C1850 1.368 . S
H1835 C1843 0.950 . S
H1836 C1841 0.950 . S
H1837 C1842 0.949 . S
H1838 C1844 0.950 . S
H1839 C1845 0.950 . S
H1840 C1846 0.954 . S
C1841 H1836 0.950 . S
C1841 C1843 1.327 . S
C1841 C1847 1.429 . S
C1842 C1834 1.574 1_455 S
C1842 H1837 0.949 . S
C1842 C1848 1.368 . S
C1843 C1827 1.349 . S
C1843 H1835 0.950 . S
C1843 C1841 1.327 . S
C1844 C1832 1.349 1_556 S
C1844 H1838 0.950 . S
C1844 C1845 1.327 . S
C1845 H1839 0.950 . S
C1845 C1844 1.327 . S
C1845 C1849 1.429 . S
C1846 C1829 1.555 1_655 S
C1846 H1840 0.954 . S
C1846 C1850 1.383 . S
C1847 C1828 1.429 . S
C1847 C1841 1.429 . S
C1847 C1848 1.523 . S
C1848 C1829 1.368 . S
C1848 C1842 1.368 . S
C1848 C1847 1.523 . S
C1849 C1833 1.429 . S
C1849 C1845 1.429 . S
C1849 C1850 1.523 . S
C1850 C1834 1.368 . S
C1850 C1846 1.383 . S
C1850 C1849 1.523 . S
H1851 C1826 0.950 . S
H1852 C1828 0.950 . S
H1853 C1829 0.949 . S
H1854 C1831 0.950 . S
H1855 C1833 0.950 1_554 S
C1856 C1857 1.349 . S
C1856 C1858 1.327 . S
C1856 H1881 0.950 . S
C1857 C1856 1.349 . S
C1857 C1873 1.349 . S
C1858 C1856 1.327 . S
C1858 C1877 1.429 . S
C1858 H1882 0.950 . S
C1859 C1876 1.574 . S
C1859 C1878 1.368 . S
C1859 H1883 0.949 . S
H1860 C1864 0.949 . S
C1861 C1862 1.349 . S
C1861 C1863 1.327 . S
C1861 H1884 0.950 . S
C1862 C1861 1.349 . S
C1862 C1874 1.349 . S
C1863 C1861 1.327 . S
C1863 C1879 1.429 . S
C1863 H1885 0.950 . S
C1864 H1860 0.949 . S
C1864 C1872 1.574 . S
C1864 C1880 1.368 . S
H1865 C1873 0.950 . S
H1866 C1871 0.950 . S
H1867 C1872 0.949 . S
H1868 C1874 0.950 . S
H1869 C1875 0.950 . S
H1870 C1876 0.949 . S
C1871 H1866 0.950 . S
C1871 C1873 1.327 . S
C1871 C1877 1.429 . S
C1872 C1864 1.574 . S
C1872 H1867 0.949 . S
C1872 C1878 1.368 . S
C1873 C1857 1.349 . S
C1873 H1865 0.950 . S
C1873 C1871 1.327 . S
C1874 C1862 1.349 . S
C1874 H1868 0.950 . S
C1874 C1875 1.327 . S
C1875 H1869 0.950 . S
C1875 C1874 1.327 . S
C1875 C1879 1.429 . S
C1876 C1859 1.574 . S
C1876 H1870 0.949 . S
C1876 C1880 1.368 . S
C1877 C1858 1.429 . S
C1877 C1871 1.429 . S
C1877 C1878 1.523 . S
C1878 C1859 1.368 . S
C1878 C1872 1.368 . S
C1878 C1877 1.523 . S
C1879 C1863 1.429 . S
C1879 C1875 1.429 . S
C1879 C1880 1.523 . S
C1880 C1864 1.368 . S
C1880 C1876 1.368 . S
C1880 C1879 1.523 . S
H1881 C1856 0.950 . S
H1882 C1858 0.950 . S
H1883 C1859 0.949 . S
H1884 C1861 0.950 . S
H1885 C1863 0.950 . S
C1886 C1887 1.349 . S
C1886 C1888 1.327 . S
C1886 H1911 0.950 . S
C1887 C1886 1.349 . S
C1887 C1903 1.349 . S
C1888 C1886 1.327 . S
C1888 C1907 1.429 . S
C1888 H1912 0.950 . S
C1889 C1906 1.574 . S
C1889 C1908 1.368 . S
C1889 H1913 0.949 . S
H1890 C1894 0.949 . S
C1891 C1892 1.349 . S
C1891 C1893 1.327 1_554 S
C1891 H1914 0.950 . S
C1892 C1891 1.349 . S
C1892 C1904 1.349 1_554 S
C1893 C1891 1.327 1_556 S
C1893 C1909 1.429 . S
C1893 H1915 0.950 . S
C1894 H1890 0.949 . S
C1894 C1902 1.574 . S
C1894 C1910 1.368 . S
H1895 C1903 0.950 . S
H1896 C1901 0.950 . S
H1897 C1902 0.949 . S
H1898 C1904 0.950 . S
H1899 C1905 0.950 . S
H1900 C1906 0.949 . S
C1901 H1896 0.950 . S
C1901 C1903 1.327 . S
C1901 C1907 1.429 . S
C1902 C1894 1.574 . S
C1902 H1897 0.949 . S
C1902 C1908 1.368 . S
C1903 C1887 1.349 . S
C1903 H1895 0.950 . S
C1903 C1901 1.327 . S
C1904 C1892 1.349 1_556 S
C1904 H1898 0.950 . S
C1904 C1905 1.327 . S
C1905 H1899 0.950 . S
C1905 C1904 1.327 . S
C1905 C1909 1.429 . S
C1906 C1889 1.574 . S
C1906 H1900 0.949 . S
C1906 C1910 1.368 . S
C1907 C1888 1.429 . S
C1907 C1901 1.429 . S
C1907 C1908 1.523 . S
C1908 C1889 1.368 . S
C1908 C1902 1.368 . S
C1908 C1907 1.523 . S
C1909 C1893 1.429 . S
C1909 C1905 1.429 . S
C1909 C1910 1.523 . S
C1910 C1894 1.368 . S
C1910 C1906 1.368 . S
C1910 C1909 1.523 . S
H1911 C1886 0.950 . S
H1912 C1888 0.950 . S
H1913 C1889 0.949 . S
H1914 C1891 0.950 . S
H1915 C1893 0.950 . S
C1916 C1917 1.349 . S
C1916 C1918 1.327 . S
C1916 H1941 0.950 . S
C1917 C1916 1.349 . S
C1917 C1933 1.349 . S
C1918 C1916 1.327 . S
C1918 C1937 1.429 . S
C1918 H1942 0.950 . S
C1919 C1936 1.574 . S
C1919 C1938 1.368 . S
C1919 H1943 0.949 . S
H1920 C1924 0.949 . S
C1921 C1922 1.349 . S
C1921 C1923 1.327 1_556 S
C1921 H1944 0.950 . S
C1922 C1921 1.349 . S
C1922 C1934 1.349 1_556 S
C1923 C1921 1.327 1_554 S
C1923 C1939 1.429 . S
C1923 H1945 0.953 . S
C1924 H1920 0.949 . S
C1924 C1932 1.574 . S
C1924 C1940 1.368 . S
H1925 C1933 0.950 . S
H1926 C1931 0.950 . S
H1927 C1932 0.949 . S
H1928 C1934 0.950 . S
H1929 C1935 0.950 . S
H1930 C1936 0.949 . S
C1931 H1926 0.950 . S
C1931 C1933 1.327 . S
C1931 C1937 1.429 . S
C1932 C1924 1.574 . S
C1932 H1927 0.949 . S
C1932 C1938 1.368 . S
C1933 C1917 1.349 . S
C1933 H1925 0.950 . S
C1933 C1931 1.327 . S
C1934 C1922 1.349 1_554 S
C1934 H1928 0.950 . S
C1934 C1935 1.327 . S
C1935 H1929 0.950 . S
C1935 C1934 1.327 . S
C1935 C1939 1.429 . S
C1936 C1919 1.574 . S
C1936 H1930 0.949 . S
C1936 C1940 1.368 . S
C1937 C1918 1.429 . S
C1937 C1931 1.429 . S
C1937 C1938 1.523 . S
C1938 C1919 1.368 . S
C1938 C1932 1.368 . S
C1938 C1937 1.523 . S
C1939 C1923 1.429 . S
C1939 C1935 1.429 . S
C1939 C1940 1.523 . S
C1940 C1924 1.368 . S
C1940 C1936 1.368 . S
C1940 C1939 1.523 . S
H1941 C1916 0.950 . S
H1942 C1918 0.950 . S
H1943 C1919 0.949 . S
H1944 C1921 0.950 . S
H1945 C1923 0.953 . S
C1946 C1947 1.349 . S
C1946 C1948 1.327 . S
C1946 H1971 0.950 . S
C1947 C1946 1.349 . S
C1947 C1963 1.349 . S
C1948 C1946 1.327 . S
C1948 C1967 1.429 . S
C1948 H1972 0.950 . S
C1949 C1966 1.613 . S
C1949 C1968 1.336 1_455 S
C1949 H1973 0.943 1_455 S
H1950 C1954 0.949 . S
C1951 C1952 1.349 . S
C1951 C1953 1.327 . S
C1951 H1974 0.950 . S
C1952 C1951 1.349 . S
C1952 C1964 1.349 . S
C1953 C1951 1.327 . S
C1953 C1969 1.429 . S
C1953 H1975 0.950 . S
C1954 H1950 0.949 . S
C1954 C1962 1.574 1_455 S
C1954 C1970 1.368 . S
H1955 C1963 0.950 . S
H1956 C1961 0.950 . S
H1957 C1962 0.949 . S
H1958 C1964 0.950 . S
H1959 C1965 0.950 . S
H1960 C1966 0.949 . S
C1961 H1956 0.950 . S
C1961 C1963 1.327 . S
C1961 C1967 1.429 . S
C1962 C1954 1.574 1_655 S
C1962 H1957 0.949 . S
C1962 C1968 1.368 . S
C1963 C1947 1.349 . S
C1963 H1955 0.950 . S
C1963 C1961 1.327 . S
C1964 C1952 1.349 . S
C1964 H1958 0.950 . S
C1964 C1965 1.327 . S
C1965 H1959 0.950 . S
C1965 C1964 1.327 . S
C1965 C1969 1.429 . S
C1966 C1949 1.613 . S
C1966 H1960 0.949 . S
C1966 C1970 1.368 . S
C1967 C1948 1.429 . S
C1967 C1961 1.429 . S
C1967 C1968 1.523 . S
C1968 C1949 1.336 1_655 S
C1968 C1962 1.368 . S
C1968 C1967 1.523 . S
C1969 C1953 1.429 . S
C1969 C1965 1.429 . S
C1969 C1970 1.523 . S
C1970 C1954 1.368 . S
C1970 C1966 1.368 . S
C1970 C1969 1.523 . S
H1971 C1946 0.950 . S
H1972 C1948 0.950 . S
H1973 C1949 0.943 1_655 S
H1974 C1951 0.950 . S
H1975 C1953 0.950 . S
C1976 C1977 1.349 . S
C1976 C1978 1.327 . S
C1976 H2001 0.950 . S
C1977 C1976 1.349 . S
C1977 C1993 1.349 . S
C1978 C1976 1.327 . S
C1978 C1997 1.429 . S
C1978 H2002 0.950 . S
C1979 C1996 1.574 . S
C1979 C1998 1.368 . S
C1979 H2003 0.949 . S
H1980 C1984 0.949 . S
C1981 C1982 1.349 1_556 S
C1981 C1983 1.327 . S
C1981 H2004 0.950 . S
C1982 C1981 1.349 1_554 S
C1982 C1994 1.349 . S
C1983 C1981 1.327 . S
C1983 C1999 1.429 . S
C1983 H2005 0.950 . S
C1984 H1980 0.949 . S
C1984 C1992 1.574 . S
C1984 C2000 1.368 . S
H1985 C1993 0.950 . S
H1986 C1991 0.950 . S
H1987 C1992 0.949 . S
H1988 C1994 0.950 . S
H1989 C1995 0.950 . S
H1990 C1996 0.949 . S
C1991 H1986 0.950 . S
C1991 C1993 1.327 . S
C1991 C1997 1.429 . S
C1992 C1984 1.574 . S
C1992 H1987 0.949 . S
C1992 C1998 1.368 . S
C1993 C1977 1.349 . S
C1993 H1985 0.950 . S
C1993 C1991 1.327 . S
C1994 C1982 1.349 . S
C1994 H1988 0.950 . S
C1994 C1995 1.327 1_554 S
C1995 H1989 0.950 . S
C1995 C1994 1.327 1_556 S
C1995 C1999 1.429 . S
C1996 C1979 1.574 . S
C1996 H1990 0.949 . S
C1996 C2000 1.368 . S
C1997 C1978 1.429 . S
C1997 C1991 1.429 . S
C1997 C1998 1.523 . S
C1998 C1979 1.368 . S
C1998 C1992 1.368 . S
C1998 C1997 1.523 . S
C1999 C1983 1.429 . S
C1999 C1995 1.429 . S
C1999 C2000 1.523 . S
C2000 C1984 1.368 . S
C2000 C1996 1.368 . S
C2000 C1999 1.523 . S
H2001 C1976 0.950 . S
H2002 C1978 0.950 . S
H2003 C1979 0.949 . S
H2004 C1981 0.950 . S
H2005 C1983 0.950 . S
C2006 C2007 1.349 1_554 S
C2006 C2008 1.327 . S
C2006 H2031 0.950 . S
C2007 C2006 1.349 1_556 S
C2007 C2023 1.349 . S
C2008 C2006 1.327 . S
C2008 C2027 1.429 . S
C2008 H2032 0.950 . S
C2009 C2026 1.546 1_655 S
C2009 C2028 1.389 . S
C2009 H2033 0.956 . S
H2010 C2014 0.949 . S
C2011 C2012 1.349 . S
C2011 C2013 1.327 . S
C2011 H2034 0.950 . S
C2012 C2011 1.349 . S
C2012 C2024 1.349 . S
C2013 C2011 1.327 . S
C2013 C2029 1.429 . S
C2013 H2035 0.950 . S
C2014 H2010 0.949 . S
C2014 C2022 1.574 1_455 S
C2014 C2030 1.368 . S
H2015 C2023 0.950 . S
H2016 C2021 0.950 1_556 S
H2017 C2022 0.949 . S
H2018 C2024 0.950 . S
H2019 C2025 0.950 . S
H2020 C2026 0.949 . S
C2021 H2016 0.950 1_554 S
C2021 C2023 1.327 1_554 S
C2021 C2027 1.429 . S
C2022 C2014 1.574 1_655 S
C2022 H2017 0.949 . S
C2022 C2028 1.368 . S
C2023 C2007 1.349 . S
C2023 H2015 0.950 . S
C2023 C2021 1.327 1_556 S
C2024 C2012 1.349 . S
C2024 H2018 0.950 . S
C2024 C2025 1.327 . S
C2025 H2019 0.950 . S
C2025 C2024 1.327 . S
C2025 C2029 1.429 . S
C2026 C2009 1.546 1_455 S
C2026 H2020 0.949 . S
C2026 C2030 1.368 . S
C2027 C2008 1.429 . S
C2027 C2021 1.429 . S
C2027 C2028 1.523 . S
C2028 C2009 1.389 . S
C2028 C2022 1.368 . S
C2028 C2027 1.523 . S
C2029 C2013 1.429 . S
C2029 C2025 1.429 . S
C2029 C2030 1.523 . S
C2030 C2014 1.368 . S
C2030 C2026 1.368 . S
C2030 C2029 1.523 . S
H2031 C2006 0.950 . S
H2032 C2008 0.950 . S
H2033 C2009 0.956 . S
H2034 C2011 0.950 . S
H2035 C2013 0.950 . S
C2036 C2037 1.349 . S
C2036 C2038 1.327 . S
C2036 H2061 0.950 . S
C2037 C2036 1.349 . S
C2037 C2053 1.349 . S
C2038 C2036 1.327 . S
C2038 C2057 1.429 . S
C2038 H2062 0.950 . S
C2039 C2056 1.574 . S
C2039 C2058 1.368 . S
C2039 H2063 0.949 . S
H2040 C2044 0.949 . S
C2041 C2042 1.349 . S
C2041 C2043 1.327 . S
C2041 H2064 0.950 . S
C2042 C2041 1.349 . S
C2042 C2054 1.349 . S
C2043 C2041 1.327 . S
C2043 C2059 1.429 . S
C2043 H2065 0.950 . S
C2044 H2040 0.949 . S
C2044 C2052 1.574 . S
C2044 C2060 1.368 . S
H2045 C2053 0.950 . S
H2046 C2051 0.950 . S
H2047 C2052 0.949 . S
H2048 C2054 0.950 . S
H2049 C2055 0.950 . S
H2050 C2056 0.949 . S
C2051 H2046 0.950 . S
C2051 C2053 1.327 . S
C2051 C2057 1.429 . S
C2052 C2044 1.574 . S
C2052 H2047 0.949 . S
C2052 C2058 1.368 . S
C2053 C2037 1.349 . S
C2053 H2045 0.950 . S
C2053 C2051 1.327 . S
C2054 C2042 1.349 . S
C2054 H2048 0.950 . S
C2054 C2055 1.327 . S
C2055 H2049 0.950 . S
C2055 C2054 1.327 . S
C2055 C2059 1.429 . S
C2056 C2039 1.574 . S
C2056 H2050 0.949 . S
C2056 C2060 1.368 . S
C2057 C2038 1.429 . S
C2057 C2051 1.429 . S
C2057 C2058 1.523 . S
C2058 C2039 1.368 . S
C2058 C2052 1.368 . S
C2058 C2057 1.523 . S
C2059 C2043 1.429 . S
C2059 C2055 1.429 . S
C2059 C2060 1.523 . S
C2060 C2044 1.368 . S
C2060 C2056 1.368 . S
C2060 C2059 1.523 . S
H2061 C2036 0.950 . S
H2062 C2038 0.950 . S
H2063 C2039 0.949 . S
H2064 C2041 0.950 . S
H2065 C2043 0.950 . S
C2066 C2067 1.349 . S
C2066 C2068 1.327 . S
C2066 H2091 0.950 . S
C2067 C2066 1.349 . S
C2067 C2083 1.349 . S
C2068 C2066 1.327 . S
C2068 C2087 1.429 . S
C2068 H2092 0.950 . S
C2069 C2086 1.574 . S
C2069 C2088 1.368 . S
C2069 H2093 0.949 . S
H2070 C2074 0.949 . S
C2071 C2072 1.349 . S
C2071 C2073 1.327 . S
C2071 H2094 0.950 . S
C2072 C2071 1.349 . S
C2072 C2084 1.349 . S
C2073 C2071 1.327 . S
C2073 C2089 1.429 . S
C2073 H2095 0.950 . S
C2074 H2070 0.949 . S
C2074 C2082 1.574 . S
C2074 C2090 1.368 . S
H2075 C2083 0.950 . S
H2076 C2081 0.950 . S
H2077 C2082 0.949 . S
H2078 C2084 0.950 . S
H2079 C2085 0.950 . S
H2080 C2086 0.949 . S
C2081 H2076 0.950 . S
C2081 C2083 1.327 . S
C2081 C2087 1.429 . S
C2082 C2074 1.574 . S
C2082 H2077 0.949 . S
C2082 C2088 1.368 . S
C2083 C2067 1.349 . S
C2083 H2075 0.950 . S
C2083 C2081 1.327 . S
C2084 C2072 1.349 . S
C2084 H2078 0.950 . S
C2084 C2085 1.327 . S
C2085 H2079 0.950 . S
C2085 C2084 1.327 . S
C2085 C2089 1.429 . S
C2086 C2069 1.574 . S
C2086 H2080 0.949 . S
C2086 C2090 1.368 . S
C2087 C2068 1.429 . S
C2087 C2081 1.429 . S
C2087 C2088 1.523 . S
C2088 C2069 1.368 . S
C2088 C2082 1.368 . S
C2088 C2087 1.523 . S
C2089 C2073 1.429 . S
C2089 C2085 1.429 . S
C2089 C2090 1.523 . S
C2090 C2074 1.368 . S
C2090 C2086 1.368 . S
C2090 C2089 1.523 . S
H2091 C2066 0.950 . S
H2092 C2068 0.950 . S
H2093 C2069 0.949 . S
H2094 C2071 0.950 . S
H2095 C2073 0.950 . S
C2096 C2097 1.349 . S
C2096 C2098 1.327 . S
C2096 H2121 0.950 . S
C2097 C2096 1.349 . S
C2097 C2113 1.349 . S
C2098 C2096 1.327 . S
C2098 C2117 1.429 . S
C2098 H2122 0.950 . S
C2099 C2116 1.574 . S
C2099 C2118 1.368 . S
C2099 H2123 0.949 . S
H2100 C2104 0.949 . S
C2101 C2102 1.349 . S
C2101 C2103 1.327 . S
C2101 H2124 0.950 . S
C2102 C2101 1.349 . S
C2102 C2114 1.349 . S
C2103 C2101 1.327 . S
C2103 C2119 1.429 . S
C2103 H2125 0.950 . S
C2104 H2100 0.949 . S
C2104 C2112 1.574 . S
C2104 C2120 1.368 . S
H2105 C2113 0.950 . S
H2106 C2111 0.950 . S
H2107 C2112 0.949 . S
H2108 C2114 0.950 . S
H2109 C2115 0.950 . S
H2110 C2116 0.949 . S
C2111 H2106 0.950 . S
C2111 C2113 1.327 . S
C2111 C2117 1.429 . S
C2112 C2104 1.574 . S
C2112 H2107 0.949 . S
C2112 C2118 1.368 . S
C2113 C2097 1.349 . S
C2113 H2105 0.950 . S
C2113 C2111 1.327 . S
C2114 C2102 1.349 . S
C2114 H2108 0.950 . S
C2114 C2115 1.327 . S
C2115 H2109 0.950 . S
C2115 C2114 1.327 . S
C2115 C2119 1.429 . S
C2116 C2099 1.574 . S
C2116 H2110 0.949 . S
C2116 C2120 1.368 . S
C2117 C2098 1.429 . S
C2117 C2111 1.429 . S
C2117 C2118 1.523 . S
C2118 C2099 1.368 . S
C2118 C2112 1.368 . S
C2118 C2117 1.523 . S
C2119 C2103 1.429 . S
C2119 C2115 1.429 . S
C2119 C2120 1.523 . S
C2120 C2104 1.368 . S
C2120 C2116 1.368 . S
C2120 C2119 1.523 . S
H2121 C2096 0.950 . S
H2122 C2098 0.950 . S
H2123 C2099 0.949 . S
H2124 C2101 0.950 . S
H2125 C2103 0.950 . S
C2126 C2127 1.349 . S
C2126 C2128 1.327 . S
C2126 H2151 0.950 . S
C2127 C2126 1.349 . S
C2127 C2143 1.349 . S
C2128 C2126 1.327 . S
C2128 C2147 1.429 . S
C2128 H2152 0.950 . S
C2129 C2146 1.574 . S
C2129 C2148 1.368 . S
C2129 H2153 0.949 . S
H2130 C2134 0.949 . S
C2131 C2132 1.349 . S
C2131 C2133 1.327 1_556 S
C2131 H2154 0.950 . S
C2132 C2131 1.349 . S
C2132 C2144 1.349 1_556 S
C2133 C2131 1.327 1_554 S
C2133 C2149 1.429 . S
C2133 H2155 0.950 . S
C2134 H2130 0.949 . S
C2134 C2142 1.574 . S
C2134 C2150 1.368 . S
H2135 C2143 0.950 . S
H2136 C2141 0.950 . S
H2137 C2142 0.949 . S
H2138 C2144 0.950 . S
H2139 C2145 0.950 . S
H2140 C2146 0.949 . S
C2141 H2136 0.950 . S
C2141 C2143 1.327 . S
C2141 C2147 1.429 . S
C2142 C2134 1.574 . S
C2142 H2137 0.949 . S
C2142 C2148 1.368 . S
C2143 C2127 1.349 . S
C2143 H2135 0.950 . S
C2143 C2141 1.327 . S
C2144 C2132 1.349 1_554 S
C2144 H2138 0.950 . S
C2144 C2145 1.327 . S
C2145 H2139 0.950 . S
C2145 C2144 1.327 . S
C2145 C2149 1.429 . S
C2146 C2129 1.574 . S
C2146 H2140 0.949 . S
C2146 C2150 1.368 . S
C2147 C2128 1.429 . S
C2147 C2141 1.429 . S
C2147 C2148 1.523 . S
C2148 C2129 1.368 . S
C2148 C2142 1.368 . S
C2148 C2147 1.523 . S
C2149 C2133 1.429 . S
C2149 C2145 1.429 . S
C2149 C2150 1.523 . S
C2150 C2134 1.368 . S
C2150 C2146 1.368 . S
C2150 C2149 1.523 . S
H2151 C2126 0.950 . S
H2152 C2128 0.950 . S
H2153 C2129 0.949 . S
H2154 C2131 0.950 . S
H2155 C2133 0.950 . S
C2156 C2157 1.349 . S
C2156 C2158 1.327 1_554 S
C2156 H2181 0.950 . S
C2157 C2156 1.349 . S
C2157 C2173 1.349 1_554 S
C2158 C2156 1.327 1_556 S
C2158 C2177 1.429 . S
C2158 H2182 0.950 1_556 S
C2159 C2176 1.574 . S
C2159 C2178 1.368 . S
C2159 H2183 0.949 . S
H2160 C2164 0.949 . S
C2161 C2162 1.349 . S
C2161 C2163 1.327 . S
C2161 H2184 0.950 . S
C2162 C2161 1.349 . S
C2162 C2174 1.349 . S
C2163 C2161 1.327 . S
C2163 C2179 1.429 . S
C2163 H2185 0.950 . S
C2164 H2160 0.949 . S
C2164 C2172 1.574 . S
C2164 C2180 1.368 . S
H2165 C2173 0.950 . S
H2166 C2171 0.950 . S
H2167 C2172 0.949 . S
H2168 C2174 0.950 . S
H2169 C2175 0.950 . S
H2170 C2176 0.949 . S
C2171 H2166 0.950 . S
C2171 C2173 1.327 . S
C2171 C2177 1.429 . S
C2172 C2164 1.574 . S
C2172 H2167 0.949 . S
C2172 C2178 1.368 . S
C2173 C2157 1.349 1_556 S
C2173 H2165 0.950 . S
C2173 C2171 1.327 . S
C2174 C2162 1.349 . S
C2174 H2168 0.950 . S
C2174 C2175 1.327 . S
C2175 H2169 0.950 . S
C2175 C2174 1.327 . S
C2175 C2179 1.429 . S
C2176 C2159 1.574 . S
C2176 H2170 0.949 . S
C2176 C2180 1.368 . S
C2177 C2158 1.429 . S
C2177 C2171 1.429 . S
C2177 C2178 1.523 . S
C2178 C2159 1.368 . S
C2178 C2172 1.368 . S
C2178 C2177 1.523 . S
C2179 C2163 1.429 . S
C2179 C2175 1.429 . S
C2179 C2180 1.523 . S
C2180 C2164 1.368 . S
C2180 C2176 1.368 . S
C2180 C2179 1.523 . S
H2181 C2156 0.950 . S
H2182 C2158 0.950 1_554 S
H2183 C2159 0.949 . S
H2184 C2161 0.950 . S
H2185 C2163 0.950 . S
C2186 C2187 1.349 . S
C2186 C2188 1.327 . S
C2186 H2211 0.950 . S
C2187 C2186 1.349 . S
C2187 C2203 1.349 . S
C2188 C2186 1.327 . S
C2188 C2207 1.429 . S
C2188 H2212 0.950 . S
C2189 C2206 1.574 . S
C2189 C2208 1.368 1_655 S
C2189 H2213 0.949 . S
H2190 C2194 0.949 . S
C2191 C2192 1.349 . S
C2191 C2193 1.327 . S
C2191 H2214 0.950 . S
C2192 C2191 1.349 . S
C2192 C2204 1.349 . S
C2193 C2191 1.327 . S
C2193 C2209 1.429 . S
C2193 H2215 0.950 . S
C2194 H2190 0.949 . S
C2194 C2202 1.574 1_655 S
C2194 C2210 1.368 . S
H2195 C2203 0.950 . S
H2196 C2201 0.950 . S
H2197 C2202 0.949 . S
H2198 C2204 0.950 . S
H2199 C2205 0.950 . S
H2200 C2206 0.949 . S
C2201 H2196 0.950 . S
C2201 C2203 1.327 . S
C2201 C2207 1.429 . S
C2202 C2194 1.574 1_455 S
C2202 H2197 0.949 . S
C2202 C2208 1.368 . S
C2203 C2187 1.349 . S
C2203 H2195 0.950 . S
C2203 C2201 1.327 . S
C2204 C2192 1.349 . S
C2204 H2198 0.950 . S
C2204 C2205 1.327 . S
C2205 H2199 0.950 . S
C2205 C2204 1.327 . S
C2205 C2209 1.429 . S
C2206 C2189 1.574 . S
C2206 H2200 0.949 . S
C2206 C2210 1.368 . S
C2207 C2188 1.429 . S
C2207 C2201 1.429 . S
C2207 C2208 1.523 . S
C2208 C2189 1.368 1_455 S
C2208 C2202 1.368 . S
C2208 C2207 1.523 . S
C2209 C2193 1.429 . S
C2209 C2205 1.429 . S
C2209 C2210 1.523 . S
C2210 C2194 1.368 . S
C2210 C2206 1.368 . S
C2210 C2209 1.523 . S
H2211 C2186 0.950 . S
H2212 C2188 0.950 . S
H2213 C2189 0.949 . S
H2214 C2191 0.950 . S
H2215 C2193 0.950 . S
C2216 C2217 1.349 . S
C2216 C2218 1.327 . S
C2216 H2241 0.950 . S
C2217 C2216 1.349 . S
C2217 C2233 1.349 . S
C2218 C2216 1.327 . S
C2218 C2237 1.429 . S
C2218 H2242 0.950 . S
C2219 C2236 1.574 . S
C2219 C2238 1.368 . S
C2219 H2243 0.949 . S
H2220 C2224 0.949 . S
C2221 C2222 1.349 1_554 S
C2221 C2223 1.327 . S
C2221 H2244 0.950 . S
C2222 C2221 1.349 1_556 S
C2222 C2234 1.349 . S
C2223 C2221 1.327 . S
C2223 C2239 1.429 . S
C2223 H2245 0.950 . S
C2224 H2220 0.949 . S
C2224 C2232 1.574 . S
C2224 C2240 1.368 . S
H2225 C2233 0.950 . S
H2226 C2231 0.950 . S
H2227 C2232 0.949 . S
H2228 C2234 0.950 . S
H2229 C2235 0.950 1_556 S
H2230 C2236 0.949 . S
C2231 H2226 0.950 . S
C2231 C2233 1.327 . S
C2231 C2237 1.429 . S
C2232 C2224 1.574 . S
C2232 H2227 0.949 . S
C2232 C2238 1.368 . S
C2233 C2217 1.349 . S
C2233 H2225 0.950 . S
C2233 C2231 1.327 . S
C2234 C2222 1.349 . S
C2234 H2228 0.950 . S
C2234 C2235 1.327 1_556 S
C2235 H2229 0.950 1_554 S
C2235 C2234 1.327 1_554 S
C2235 C2239 1.429 . S
C2236 C2219 1.574 . S
C2236 H2230 0.949 . S
C2236 C2240 1.368 . S
C2237 C2218 1.429 . S
C2237 C2231 1.429 . S
C2237 C2238 1.523 . S
C2238 C2219 1.368 . S
C2238 C2232 1.368 . S
C2238 C2237 1.523 . S
C2239 C2223 1.429 . S
C2239 C2235 1.429 . S
C2239 C2240 1.523 . S
C2240 C2224 1.368 . S
C2240 C2236 1.368 . S
C2240 C2239 1.523 . S
H2241 C2216 0.950 . S
H2242 C2218 0.950 . S
H2243 C2219 0.949 . S
H2244 C2221 0.950 . S
H2245 C2223 0.950 . S
C2246 C2247 1.349 . S
C2246 C2248 1.327 . S
C2246 H2271 0.950 . S
C2247 C2246 1.349 . S
C2247 C2263 1.349 . S
C2248 C2246 1.327 . S
C2248 C2267 1.429 . S
C2248 H2272 0.950 . S
C2249 C2266 1.574 . S
C2249 C2268 1.368 . S
C2249 H2273 0.949 . S
H2250 C2254 0.949 . S
C2251 C2252 1.349 . S
C2251 C2253 1.327 . S
C2251 H2274 0.950 . S
C2252 C2251 1.349 . S
C2252 C2264 1.349 1_554 S
C2253 C2251 1.327 . S
C2253 C2269 1.429 1_554 S
C2253 H2275 0.950 . S
C2254 H2250 0.949 . S
C2254 C2262 1.574 1_455 S
C2254 C2270 1.368 . S
H2255 C2263 0.950 . S
H2256 C2261 0.950 . S
H2257 C2262 0.949 . S
H2258 C2264 0.950 . S
H2259 C2265 0.950 . S
H2260 C2266 0.955 . S
C2261 H2256 0.950 . S
C2261 C2263 1.327 . S
C2261 C2267 1.429 . S
C2262 C2254 1.574 1_655 S
C2262 H2257 0.949 . S
C2262 C2268 1.368 . S
C2263 C2247 1.349 . S
C2263 H2255 0.950 . S
C2263 C2261 1.327 . S
C2264 C2252 1.349 1_556 S
C2264 H2258 0.950 . S
C2264 C2265 1.327 . S
C2265 H2259 0.950 . S
C2265 C2264 1.327 . S
C2265 C2269 1.429 . S
C2266 C2249 1.574 . S
C2266 H2260 0.955 . S
C2266 C2270 1.368 1_655 S
C2267 C2248 1.429 . S
C2267 C2261 1.429 . S
C2267 C2268 1.523 . S
C2268 C2249 1.368 . S
C2268 C2262 1.368 . S
C2268 C2267 1.523 . S
C2269 C2253 1.429 1_556 S
C2269 C2265 1.429 . S
C2269 C2270 1.523 . S
C2270 C2254 1.368 . S
C2270 C2266 1.368 1_455 S
C2270 C2269 1.523 . S
H2271 C2246 0.950 . S
H2272 C2248 0.950 . S
H2273 C2249 0.949 . S
H2274 C2251 0.950 . S
H2275 C2253 0.950 . S
C2276 C2277 1.349 . S
C2276 C2278 1.327 . S
C2276 H2301 0.950 . S
C2277 C2276 1.349 . S
C2277 C2293 1.349 . S
C2278 C2276 1.327 . S
C2278 C2297 1.429 . S
C2278 H2302 0.950 . S
C2279 C2296 1.574 . S
C2279 C2298 1.368 . S
C2279 H2303 0.949 . S
H2280 C2284 0.949 . S
C2281 C2282 1.349 . S
C2281 C2283 1.327 . S
C2281 H2304 0.950 . S
C2282 C2281 1.349 . S
C2282 C2294 1.349 . S
C2283 C2281 1.327 . S
C2283 C2299 1.429 . S
C2283 H2305 0.950 . S
C2284 H2280 0.949 . S
C2284 C2292 1.574 . S
C2284 C2300 1.368 . S
H2285 C2293 0.950 . S
H2286 C2291 0.950 . S
H2287 C2292 0.949 . S
H2288 C2294 0.950 . S
H2289 C2295 0.950 . S
H2290 C2296 0.949 . S
C2291 H2286 0.950 . S
C2291 C2293 1.327 . S
C2291 C2297 1.429 . S
C2292 C2284 1.574 . S
C2292 H2287 0.949 . S
C2292 C2298 1.368 . S
C2293 C2277 1.349 . S
C2293 H2285 0.950 . S
C2293 C2291 1.327 . S
C2294 C2282 1.349 . S
C2294 H2288 0.950 . S
C2294 C2295 1.327 . S
C2295 H2289 0.950 . S
C2295 C2294 1.327 . S
C2295 C2299 1.429 . S
C2296 C2279 1.574 . S
C2296 H2290 0.949 . S
C2296 C2300 1.368 . S
C2297 C2278 1.429 . S
C2297 C2291 1.429 . S
C2297 C2298 1.523 . S
C2298 C2279 1.368 . S
C2298 C2292 1.368 . S
C2298 C2297 1.523 . S
C2299 C2283 1.429 . S
C2299 C2295 1.429 . S
C2299 C2300 1.523 . S
C2300 C2284 1.368 . S
C2300 C2296 1.368 . S
C2300 C2299 1.523 . S
H2301 C2276 0.950 . S
H2302 C2278 0.950 . S
H2303 C2279 0.949 . S
H2304 C2281 0.950 . S
H2305 C2283 0.950 . S
C2306 C2307 1.349 . S
C2306 C2308 1.327 . S
C2306 H2331 0.950 . S
C2307 C2306 1.349 . S
C2307 C2323 1.349 . S
C2308 C2306 1.327 . S
C2308 C2327 1.429 . S
C2308 H2332 0.950 . S
C2309 C2326 1.574 . S
C2309 C2328 1.368 . S
C2309 H2333 0.949 . S
H2310 C2314 0.949 . S
C2311 C2312 1.349 . S
C2311 C2313 1.327 . S
C2311 H2334 0.950 . S
C2312 C2311 1.349 . S
C2312 C2324 1.349 . S
C2313 C2311 1.327 . S
C2313 C2329 1.429 . S
C2313 H2335 0.950 . S
C2314 H2310 0.949 . S
C2314 C2322 1.574 . S
C2314 C2330 1.368 . S
H2315 C2323 0.950 . S
H2316 C2321 0.950 . S
H2317 C2322 0.949 . S
H2318 C2324 0.950 . S
H2319 C2325 0.950 . S
H2320 C2326 0.949 . S
C2321 H2316 0.950 . S
C2321 C2323 1.327 . S
C2321 C2327 1.429 . S
C2322 C2314 1.574 . S
C2322 H2317 0.949 . S
C2322 C2328 1.368 . S
C2323 C2307 1.349 . S
C2323 H2315 0.950 . S
C2323 C2321 1.327 . S
C2324 C2312 1.349 . S
C2324 H2318 0.950 . S
C2324 C2325 1.327 . S
C2325 H2319 0.950 . S
C2325 C2324 1.327 . S
C2325 C2329 1.429 . S
C2326 C2309 1.574 . S
C2326 H2320 0.949 . S
C2326 C2330 1.368 . S
C2327 C2308 1.429 . S
C2327 C2321 1.429 . S
C2327 C2328 1.523 . S
C2328 C2309 1.368 . S
C2328 C2322 1.368 . S
C2328 C2327 1.523 . S
C2329 C2313 1.429 . S
C2329 C2325 1.429 . S
C2329 C2330 1.523 . S
C2330 C2314 1.368 . S
C2330 C2326 1.368 . S
C2330 C2329 1.523 . S
H2331 C2306 0.950 . S
H2332 C2308 0.950 . S
H2333 C2309 0.949 . S
H2334 C2311 0.950 . S
H2335 C2313 0.950 . S
C417 C88 1.175 . S
C422 C10 1.175 . S
C447 C23 1.175 . S
C452 C101 1.175 . S
C477 C62 1.175 . S
C482 C36 1.175 . S
C507 C49 1.175 . S
C512 C75 1.175 . S
C537 C192 1.175 . S
C542 C114 1.175 . S
C567 C127 1.175 . S
C572 C205 1.175 . S
C597 C166 1.175 . S
C602 C140 1.175 . S
C627 C153 1.175 . S
C632 C179 1.175 . S
C657 C218 1.175 . S
C662 C296 1.175 . S
C687 C309 1.175 . S
C692 C231 1.175 . S
C717 C244 1.175 . S
C722 C270 1.175 . S
C747 C283 1.175 . S
C752 C257 1.175 . S
C777 C400 1.175 . S
C782 C322 1.175 . S
C807 C413 1.175 . S
C812 C335 1.175 . S
C837 C374 1.175 . S
C842 C348 1.175 . S
C867 C361 1.175 . S
C872 C387 1.175 . S
C897 C91 1.268 . S
C902 C0 1.268 . S
C927 C52 1.268 . S
C932 C13 1.268 . S
C957 C65 1.268 . S
C962 C26 1.268 . S
C987 C78 1.268 . S
C992 C39 1.268 . S
C1017 C195 1.269 . S
C1022 C104 1.269 . S
C1047 C156 1.268 . S
C1052 C117 1.268 . S
C1077 C169 1.268 . S
C1082 C130 1.268 . S
C1107 C143 1.268 . S
C1112 C182 1.268 . S
C1137 C299 1.268 . S
C1142 C208 1.268 . S
C1167 C221 1.268 . S
C1172 C260 1.268 . S
C1197 C234 1.268 . S
C1202 C273 1.268 . S
C1227 C286 1.268 . S
C1232 C247 1.268 . S
C1257 C403 1.269 . S
C1262 C312 1.269 . S
C1287 C325 1.268 . S
C1292 C364 1.268 . S
C1317 C338 1.268 . S
C1322 C377 1.268 . S
C1347 C390 1.268 . S
C1352 C351 1.268 . S
C1377 C8 0.840 . S
C1382 C395 0.823 . S
C1407 C200 0.823 . S
C1412 C21 0.839 . S
C1437 C369 0.824 . S
C1442 C34 0.840 . S
C1467 C174 0.823 . S
C1472 C47 0.839 . S
C1497 C343 0.823 . S
C1502 C60 0.839 . S
C1527 C73 0.839 . S
C1532 C148 0.823 . S
C1557 C86 0.839 . S
C1562 C317 0.823 . S
C1587 C99 0.840 . S
C1592 C122 0.823 . S
C1617 C112 0.839 . S
C1622 C291 0.823 . S
C1647 C96 0.823 . S
C1652 C125 0.840 . S
C1677 C265 0.823 . S
C1682 C138 0.840 . S
C1707 C70 0.823 . S
C1712 C151 0.839 . S
C1737 C239 0.823 . S
C1742 C164 0.840 . S
C1767 C44 0.823 . S
C1772 C177 0.839 . S
C1797 C190 0.840 . S
C1802 C213 0.823 . S
C1827 C18 0.823 . S
C1832 C203 0.839 . S
C1857 C187 0.823 . S
C1862 C216 0.840 . S
C1887 C408 0.823 . S
C1892 C229 0.839 . S
C1917 C242 0.839 . S
C1922 C161 0.823 . S
C1947 C255 0.839 . S
C1952 C382 0.823 . S
C1977 C268 0.839 . S
C1982 C135 0.823 . S
C2007 C281 0.840 . S
C2012 C356 0.823 . S
C2037 C294 0.840 . S
C2042 C109 0.823 . S
C2067 C307 0.840 . S
C2072 C330 0.823 . S
C2097 C83 0.823 . S
C2102 C320 0.839 . S
C2127 C304 0.823 . S
C2132 C333 0.840 . S
C2157 C57 0.823 . S
C2162 C346 0.839 . S
C2187 C359 0.839 . S
C2192 C278 0.823 . S
C2217 C372 0.840 . S
C2222 C31 0.823 . S
C2247 C252 0.823 . S
C2252 C385 0.839 . S
C2277 C398 0.840 . S
C2282 C5 0.824 . S
C2307 C411 0.840 . S
C2312 C226 0.823 . S
