# Generated by pormake.
# Topology sxb, (6)-cn, num edge types: 1
# Building blocks:
#     Node 0, Type 0, BuildingBlock: BETDIP_clean_sbu_0, # of connection points: 6
#     Node 1, Type 0, BuildingBlock: BETDIP_clean_sbu_0, # of connection points: 6
#     Node 2, Type 0, BuildingBlock: BETDIP_clean_sbu_0, # of connection points: 6
#     Node 3, Type 0, BuildingBlock: BETDIP_clean_sbu_0, # of connection points: 6
#     Edge 4, Type (0, 0), BuildingBlock: CIFDUS_clean_linker_0, # of connection points: 2
#     Edge 5, Type (0, 0), BuildingBlock: CIFDUS_clean_linker_0, # of connection points: 2
#     Edge 6, Type (0, 0), BuildingBlock: CIFDUS_clean_linker_0, # of connection points: 2
#     Edge 7, Type (0, 0), BuildingBlock: CIFDUS_clean_linker_0, # of connection points: 2
#     Edge 8, Type (0, 0), BuildingBlock: CIFDUS_clean_linker_0, # of connection points: 2
#     Edge 9, Type (0, 0), BuildingBlock: CIFDUS_clean_linker_0, # of connection points: 2
#     Edge 10, Type (0, 0), BuildingBlock: CIFDUS_clean_linker_0, # of connection points: 2
#     Edge 11, Type (0, 0), BuildingBlock: CIFDUS_clean_linker_0, # of connection points: 2
#     Edge 12, Type (0, 0), BuildingBlock: CIFDUS_clean_linker_0, # of connection points: 2
#     Edge 13, Type (0, 0), BuildingBlock: CIFDUS_clean_linker_0, # of connection points: 2
#     Edge 14, Type (0, 0), BuildingBlock: CIFDUS_clean_linker_0, # of connection points: 2
#     Edge 15, Type (0, 0), BuildingBlock: CIFDUS_clean_linker_0, # of connection points: 2
# Relax obj value: 0.524
# Max RMSD: 0.138
# Mean RMSD: 0.094
data_MOF--net-sxb--node1-BETDIP_clean_sbu_0--edge1-CIFDUS_clean_linker_0
_symmetry_space_group_name_H-M    P1
_symmetry_Int_Tables_number       1
_symmetry_cell_setting            triclinic
loop_
_symmetry_equiv_pos_as_xyz
'x, y, z'
_cell_length_a     14.521768
_cell_length_b     31.614639
_cell_length_c     25.682782
_cell_angle_alpha  92.5135
_cell_angle_beta   93.061958
_cell_angle_gamma 60.639841
loop_
_atom_site_label
_atom_site_type_symbol
_atom_site_fract_x
_atom_site_fract_y
_atom_site_fract_z
_atom_type_partial_charge
Tb0 Tb 0.9766 1.10764 0.0075 0.0
Tb1 Tb 0.16356 0.11277 0.99364 0.0
C2 C 0.80715 0.13311 0.04878 0.0
C3 C 0.7121 0.18063 0.04631 0.0
C4 C 0.64291 0.19769 0.08778 0.0
C5 C 0.536 0.23033 0.07633 0.0
C6 C 0.50305 0.23235 0.02329 0.0
C7 C 0.57044 0.23851 0.9907 0.0
C8 C 0.67893 0.20653 -0.00066 0.0
C9 C 1.02067 1.10338 0.90923 0.0
C10 C 0.96634 0.21342 -0.00066 0.0
C11 C 0.33609 1.08735 0.95586 0.0
C12 C 0.42347 1.03759 0.95088 0.0
C13 C 0.48449 1.0229 0.90636 0.0
C14 C 0.58829 0.98425 0.91096 0.0
C15 C 0.63167 0.97271 0.96231 0.0
C16 C 0.56299 0.96794 0.99539 0.0
C17 C 0.45721 1.00532 0.993 0.0
C18 C 0.11992 0.11254 0.09238 0.0
C19 C 0.17365 1.00752 0.99648 0.0
O20 O 0.8877 0.1326 0.07457 0.0
O21 O 0.83255 1.10793 0.0047 0.0
O22 O 1.0283 0.13099 0.94416 0.0
O23 O 0.97959 1.07915 0.92806 0.0
O24 O 0.9193 0.18735 0.00722 0.0
O25 O 1.06788 0.19142 0.98961 0.0
O26 O 0.25197 1.09708 0.92663 0.0
O27 O 0.31444 1.105 0.00357 0.0
O28 O 0.11377 1.08678 0.05524 0.0
O29 O 0.1596 0.13805 0.07546 0.0
O30 O 0.21577 1.03419 0.98311 0.0
O31 O 0.07716 1.02907 0.01444 0.0
H32 H 0.668 0.18231 0.1262 0.0
H33 H 0.48024 0.23924 0.10679 0.0
H34 H 0.54276 0.25257 0.9519 0.0
H35 H 0.73209 0.19737 0.96754 0.0
H36 H 0.45694 1.04369 0.87098 0.0
H37 H 0.63924 0.97661 0.87854 0.0
H38 H 0.59372 0.94839 0.03141 0.0
H39 H 0.40832 1.01245 0.02623 0.0
Tb40 Tb 0.08585 1.08691 0.50156 0.0
Tb41 Tb 1.04149 0.13416 0.50246 0.0
C42 C 0.13928 1.00075 0.52527 0.0
C43 C 0.10448 0.96523 0.51399 0.0
C44 C 0.09774 0.94011 0.55581 0.0
C45 C 1.05305 0.91023 0.54795 0.0
C46 C 1.01567 0.90492 0.49805 0.0
C47 C 1.02771 0.92786 0.45552 0.0
C48 C 1.07136 0.95835 0.46351 0.0
C49 C 1.06694 1.09065 0.39755 0.0
C50 C 0.86662 1.09174 0.50124 0.0
C51 C 0.99711 0.21721 0.4717 0.0
C52 C 1.04105 0.24964 0.47718 0.0
C53 C 1.04219 0.27311 0.43252 0.0
C54 C 0.10136 0.2967 0.43288 0.0
C55 C 0.15844 0.29745 0.47818 0.0
C56 C 0.15205 0.27667 0.52401 0.0
C57 C 0.09411 0.25226 0.52342 0.0
C58 C 1.04694 0.13755 0.6056 0.0
C59 C 0.26125 0.12853 0.50108 0.0
O60 O 1.07447 1.03892 0.55151 0.0
O61 O 0.1784 1.01191 0.48748 0.0
O62 O 0.99553 0.11172 0.42985 0.0
O63 O 0.15601 1.06953 0.42349 0.0
O64 O 0.90552 0.12185 0.50232 0.0
O65 O 0.896 0.12585 0.50242 0.0
O66 O 1.05601 0.17695 0.4469 0.0
O67 O 0.95866 0.21007 0.51268 0.0
O68 O 0.12148 0.10994 0.57684 0.0
O69 O 0.96324 0.16281 0.57696 0.0
O70 O 0.22221 1.09888 0.50571 0.0
O71 O 0.23156 1.0951 0.50653 0.0
H72 H 0.12296 0.94525 0.59494 0.0
H73 H 1.04357 0.89283 0.58111 0.0
H74 H 0.99777 0.92444 0.41692 0.0
H75 H 1.07548 0.97782 0.43082 0.0
H76 H 1.00206 0.27085 0.39655 0.0
H77 H 0.10574 0.31284 0.39738 0.0
H78 H 0.19671 0.27688 0.55911 0.0
H79 H 0.09504 0.23359 0.55799 0.0
Tb80 Tb 0.48947 0.60849 0.00745 0.0
Tb81 Tb 0.67888 0.61329 0.9963 0.0
C82 C 0.31604 0.63426 0.04413 0.0
C83 C 0.22821 0.68397 0.04842 0.0
C84 C 0.16653 0.69889 0.09273 0.0
C85 C 1.06122 0.73595 0.08703 0.0
C86 C 1.01878 0.74491 0.03533 0.0
C87 C 0.08548 0.75077 0.00188 0.0
C88 C 0.19289 0.71528 0.00539 0.0
C89 C 0.5355 0.61054 0.90975 0.0
C90 C 0.48085 0.71362 0.00664 0.0
C91 C 0.8491 0.58801 0.95599 0.0
C92 C 0.94275 0.53993 0.95658 0.0
C93 C 1.00869 0.5231 0.91381 0.0
C94 C 0.11519 0.48852 0.92301 0.0
C95 C 0.15251 0.48401 0.97554 0.0
C96 C 0.08523 0.4785 0.00885 0.0
C97 C 0.97726 0.51246 0.00247 0.0
C98 C 0.63011 0.61736 0.0937 0.0
C99 C 0.68681 0.5077 0.0023 0.0
O100 O 0.39933 0.6249 0.07388 0.0
O101 O 0.33891 0.61606 0.99664 0.0
O102 O 0.54273 0.63484 0.94806 0.0
O103 O 0.49502 0.58465 0.92477 0.0
O104 O 0.4371 0.68707 0.01804 0.0
O105 O 0.57876 0.69206 0.99037 0.0
O106 O 0.76772 0.5904 0.92916 0.0
O107 O 0.82461 0.61139 0.00117 0.0
O108 O 0.62359 0.58996 0.05809 0.0
O109 O 0.67338 0.64118 0.07609 0.0
O110 O 0.73463 0.53366 0.99549 0.0
O111 O 0.58483 0.52978 0.01113 0.0
H112 H 0.19477 0.67905 0.1287 0.0
H113 H 1.01009 0.7436 0.11936 0.0
H114 H 1.05393 0.7691 0.96524 0.0
H115 H 0.24197 0.70822 0.97227 0.0
H116 H 0.98187 0.53978 0.87605 0.0
H117 H 0.16898 0.4796 0.89161 0.0
H118 H 0.11472 0.46287 0.0469 0.0
H119 H 0.92611 0.52145 0.03512 0.0
Tb120 Tb 0.62215 0.5783 0.49683 0.0
Tb121 Tb 0.56311 0.62704 0.49958 0.0
C122 C 0.69991 0.4901 0.52003 0.0
C123 C 0.65536 0.45795 0.5107 0.0
C124 C 0.64888 0.43347 0.55329 0.0
C125 C 0.57977 0.4148 0.55068 0.0
C126 C 0.5182 0.41983 0.50515 0.0
C127 C 0.5297 0.44129 0.46123 0.0
C128 C 0.59738 0.4608 0.46412 0.0
C129 C 0.5956 0.57844 0.39411 0.0
C130 C 0.37662 0.59975 0.47749 0.0
C131 C 0.48027 0.71559 0.47569 0.0
C132 C 0.50818 0.75383 0.48547 0.0
C133 C 0.51761 0.77696 0.44242 0.0
C134 C 0.56212 0.80707 0.44886 0.0
C135 C 0.59647 0.81479 0.49856 0.0
C136 C 0.58083 0.79428 0.54223 0.0
C137 C 0.5376 0.76349 0.5357 0.0
C138 C 0.59 0.62486 0.60333 0.0
C139 C 0.80947 0.60461 0.51855 0.0
O140 O 0.64443 0.52626 0.55077 0.0
O141 O 0.7266 0.50433 0.47979 0.0
O142 O 0.52454 0.60246 0.42618 0.0
O143 O 0.68556 0.55554 0.41873 0.0
O144 O 0.45017 0.59903 0.51164 0.0
O145 O 0.44945 0.59903 0.51149 0.0
O146 O 0.54567 0.6797 0.44706 0.0
O147 O 0.45314 0.70038 0.51499 0.0
O148 O 0.66055 0.60254 0.57049 0.0
O149 O 0.50038 0.64711 0.57836 0.0
O150 O 0.73542 0.60577 0.48441 0.0
O151 O 0.73631 0.60578 0.48452 0.0
H152 H 0.69129 0.43201 0.5898 0.0
H153 H 0.57157 0.39795 0.58468 0.0
H154 H 0.48211 0.4453 0.42589 0.0
H155 H 0.59912 0.48069 0.43123 0.0
H156 H 0.4959 0.7696 0.40341 0.0
H157 H 0.57406 0.82263 0.4148 0.0
H158 H 0.60816 0.79959 0.58077 0.0
H159 H 0.53199 0.74557 0.56943 0.0
H160 H 0.51605 0.78402 0.96611 0.0
H161 H 0.29415 0.76642 0.05535 0.0
H162 H 0.17853 0.85399 0.05877 0.0
H163 H 0.13873 0.93708 0.03721 0.0
H164 H 0.35914 0.95457 0.94668 0.0
H165 H 0.47534 0.86707 0.94377 0.0
C166 C 0.44275 0.79931 0.98656 0.0
C167 C 0.41444 0.76798 0.0101 0.0
C168 C 0.37546 0.85039 0.98847 0.0
C169 C 0.31833 0.78903 0.0362 0.0
C170 C 0.25174 0.83946 0.0384 0.0
C171 C 0.21189 0.9218 0.01664 0.0
C172 C 0.23998 0.95313 0.99293 0.0
C173 C 0.279 0.8707 0.01458 0.0
C174 C 0.33555 0.93203 0.96636 0.0
C175 C 0.40238 0.88161 0.96436 0.0
H176 H 0.62138 0.43863 0.99266 0.0
H177 H 0.90125 0.45265 0.01456 0.0
H178 H 1.01182 0.36496 0.01483 0.0
H179 H 1.03138 0.28248 0.00878 0.0
H180 H 0.75164 0.26828 0.98734 0.0
H181 H 0.64094 0.35605 0.98687 0.0
C182 C 0.70651 0.42258 0.99757 0.0
C183 C 0.7522 0.45311 0.00306 0.0
C184 C 0.77073 0.37123 0.99773 0.0
C185 C 0.86307 0.43088 0.00932 0.0
C186 C 0.92691 0.38026 0.00974 0.0
C187 C 0.94625 0.29852 0.0039 0.0
C188 C 0.90065 0.26797 0.99848 0.0
C189 C 0.882 0.34983 0.00378 0.0
C190 C 0.78975 0.29012 0.99238 0.0
C191 C 0.72584 0.34076 0.99188 0.0
H192 H 0.15336 0.37228 0.534 0.0
H193 H 0.32706 0.26293 0.41779 0.0
H194 H 0.45389 0.29249 0.41443 0.0
H195 H 0.51595 0.34875 0.44588 0.0
H196 H 0.34426 0.45755 0.56284 0.0
H197 H 0.21367 0.42979 0.56425 0.0
C198 C 0.2191 0.3553 0.50803 0.0
C199 C 0.23204 0.31602 0.47605 0.0
C200 C 0.29078 0.37253 0.5063 0.0
C201 C 0.31636 0.29373 0.44223 0.0
C202 C 0.3885 0.31046 0.44041 0.0
C203 C 0.44944 0.36625 0.47134 0.0
C204 C 0.43863 0.4045 0.50441 0.0
C205 C 0.37645 0.34976 0.47231 0.0
C206 C 0.35325 0.42749 0.53756 0.0
C207 C 0.27912 0.41174 0.53832 0.0
H208 H 0.83644 0.93232 0.54595 0.0
H209 H 1.04901 0.8268 0.43641 0.0
H210 H 0.93498 0.78957 0.42661 0.0
H211 H 0.77529 0.78783 0.44973 0.0
H212 H 0.56312 0.89333 0.55949 0.0
H213 H 0.67674 0.93071 0.56886 0.0
C214 C 0.85767 0.90092 0.52028 0.0
C215 C 0.95026 0.88164 0.49219 0.0
C216 C 0.7919 0.88038 0.51476 0.0
C217 C 0.9775 0.84173 0.45825 0.0
C218 C 0.91266 0.82067 0.45274 0.0
C219 C 0.7539 0.81929 0.4753 0.0
C220 C 0.66148 0.83845 0.5036 0.0
C221 C 0.81965 0.83988 0.48071 0.0
C222 C 0.63437 0.87844 0.53746 0.0
C223 C 0.69902 0.89959 0.54276 0.0
H224 H 0.59287 1.02613 0.05703 0.0
H225 H 0.76444 0.9999 0.91662 0.0
H226 H 0.70159 1.08673 0.91079 0.0
H227 H 0.57222 0.16944 0.93563 0.0
H228 H 0.39361 0.1959 0.07417 0.0
H229 H 0.46626 0.10876 0.08312 0.0
C230 C 0.61699 1.03894 0.02471 0.0
C231 C 0.67059 1.00705 0.98271 0.0
C232 C 0.57022 1.0891 0.01826 0.0
C233 C 0.71504 1.02396 0.94697 0.0
C234 C 0.67551 1.07387 0.94226 0.0
C235 C 0.54845 0.15682 0.96822 0.0
C236 C 0.48635 0.18973 0.00786 0.0
C237 C 0.59698 1.10673 0.97552 0.0
C238 C 0.44705 0.17173 0.04512 0.0
C239 C 0.49147 0.12177 0.05143 0.0
H240 H 0.35612 0.18652 0.50453 0.0
H241 H 0.43895 1.03555 0.49936 0.0
H242 H 0.62666 1.01214 0.49845 0.0
H243 H 0.77206 1.03367 0.49882 0.0
H244 H 0.68907 0.18469 0.50572 0.0
H245 H 0.50148 0.20805 0.50668 0.0
C246 C 0.4149 0.14838 0.50346 0.0
C247 C 0.38003 0.1132 0.50226 0.0
C248 C 0.52509 0.13483 0.50327 0.0
C249 C 0.46016 1.064 0.50069 0.0
C250 C 0.56887 1.05043 0.50004 0.0
C251 C 0.7132 1.07182 0.50053 0.0
C252 C 0.74802 1.10703 0.50201 0.0
C253 C 0.60305 1.08536 0.50127 0.0
C254 C 0.66795 0.15622 0.50434 0.0
C255 C 0.55926 0.16977 0.50491 0.0
H256 H 0.09499 0.54426 0.06555 0.0
H257 H 0.26595 0.5186 0.92463 0.0
H258 H 0.19396 0.60582 0.9163 0.0
H259 H 1.06625 0.68834 0.94258 0.0
H260 H 0.89563 0.71376 0.08334 0.0
H261 H 0.96436 0.62662 0.09054 0.0
C262 C 0.11704 0.55714 0.03253 0.0
C263 C 0.17562 0.5246 0.99186 0.0
C264 C 1.06724 0.60726 0.02521 0.0
C265 C 0.21439 0.54263 0.95437 0.0
C266 C 0.17006 0.59265 0.94837 0.0
C267 C 1.04343 0.67534 0.97522 0.0
C268 C 0.98739 0.70747 0.01665 0.0
C269 C 0.09199 0.62515 0.98198 0.0
C270 C 0.94607 0.6898 0.05324 0.0
C271 C 0.98879 0.63977 0.05867 0.0
H272 H 0.2221 0.59204 0.41611 0.0
H273 H 0.29733 0.61015 0.57722 0.0
H274 H 0.13321 0.61376 0.60262 0.0
H275 H 0.96463 0.61176 0.58001 0.0
H276 H 0.88937 0.59368 0.41889 0.0
H277 H 1.05378 0.5898 0.39352 0.0
C278 C 0.20317 0.59663 0.45694 0.0
C279 C 0.27519 0.60057 0.49436 0.0
C280 C 0.1067 0.59869 0.47162 0.0
C281 C 0.24648 0.60661 0.547 0.0
C282 C 0.15132 0.60881 0.56169 0.0
C283 C 0.98361 0.60711 0.53918 0.0
C284 C 0.91138 0.60336 0.50173 0.0
C285 C 0.08021 0.60493 0.52451 0.0
C286 C 0.94028 0.59716 0.44911 0.0
C287 C 1.03562 0.59479 0.43445 0.0
H288 H 0.18303 1.03014 0.31952 0.0
H289 H 0.92743 0.17436 0.34929 0.0
H290 H 0.9234 0.19515 0.25807 0.0
H291 H 0.99757 0.17286 0.16964 0.0
H292 H 0.24004 1.02601 0.13828 0.0
H293 H 0.24412 1.00547 0.22957 0.0
C294 C 0.12564 1.06588 0.30572 0.0
C295 C 1.05568 1.10065 0.341 0.0
C296 C 0.12223 1.07719 0.25287 0.0
C297 C 0.98139 0.14681 0.32272 0.0
C298 C 0.97963 0.15883 0.27062 0.0
C299 C 1.05155 0.13653 0.18311 0.0
C300 C 0.12062 1.10127 0.14784 0.0
C301 C 1.0506 0.12451 0.23539 0.0
C302 C 0.18774 1.05389 0.1651 0.0
C303 C 0.1898 1.04212 0.21722 0.0
H304 H 0.97443 0.17936 0.8471 0.0
H305 H 0.12252 1.02339 0.84725 0.0
H306 H 0.15719 1.01952 0.75425 0.0
H307 H 0.13307 1.06109 0.67098 0.0
H308 H 0.9623 0.2173 0.66885 0.0
H309 H 0.94894 0.22086 0.76383 0.0
C310 C 1.015 0.14461 0.82669 0.0
C311 C 1.04586 1.1017 0.85376 0.0
C312 C 1.03021 0.14286 0.77265 0.0
C313 C 0.09739 1.05687 0.82696 0.0
C314 C 0.11734 1.05467 0.77385 0.0
C315 C 0.09474 1.0958 0.69164 0.0
C316 C 1.05021 0.13893 0.66331 0.0
C317 C 0.08251 1.09746 0.74599 0.0
C318 C 0.99796 0.18371 0.69008 0.0
C319 C 0.99 0.18572 0.74432 0.0
H320 H 0.52853 0.65658 0.33308 0.0
H321 H 0.64474 0.50242 0.32729 0.0
H322 H 0.65517 0.50134 0.23219 0.0
H323 H 0.64652 0.54328 0.15137 0.0
H324 H 0.55281 0.69543 0.15952 0.0
H325 H 0.51738 0.69872 0.25221 0.0
C326 C 0.55338 0.6231 0.31062 0.0
C327 C 0.58333 0.57981 0.33667 0.0
C328 C 0.56458 0.62242 0.2563 0.0
C329 C 0.61937 0.53626 0.30769 0.0
C330 C 0.62607 0.53562 0.25343 0.0
C331 C 0.61732 0.57717 0.17347 0.0
C332 C 0.60258 0.61904 0.14882 0.0
C333 C 0.60123 0.57828 0.22737 0.0
C334 C 0.56563 0.66266 0.17787 0.0
C335 C 0.54516 0.66456 0.23083 0.0
H336 H 0.59851 0.67595 0.69024 0.0
H337 H 0.58943 0.54614 0.64057 0.0
H338 H 0.57482 0.52911 0.73017 0.0
H339 H 0.55245 0.55372 0.82324 0.0
H340 H 0.56357 0.68296 0.87402 0.0
H341 H 0.58896 0.69754 0.78464 0.0
C342 C 0.5958 0.64341 0.69938 0.0
C343 C 0.59832 0.61164 0.65874 0.0
C344 C 0.58573 0.63411 0.75154 0.0
C345 C 0.59171 0.57031 0.67096 0.0
C346 C 0.58171 0.56085 0.72241 0.0
C347 C 0.56064 0.58497 0.81467 0.0
C348 C 0.55457 0.6175 0.8552 0.0
C349 C 0.5768 0.59287 0.76303 0.0
C350 C 0.56703 0.65748 0.84354 0.0
C351 C 0.58172 0.66588 0.79234 0.0
loop_
_geom_bond_atom_site_label_1
_geom_bond_atom_site_label_2
_geom_bond_distance
_geom_bond_site_symmetry_2
_ccdc_geom_bond_type
Tb0 C2 2.809 1_565 S
Tb0 O20 2.484 1_566 S
Tb0 O21 2.440 . S
Tb0 O22 2.658 1_655 S
Tb0 O23 2.409 . S
Tb0 O24 2.378 1_565 S
Tb0 O28 2.325 1_566 S
Tb0 O31 2.341 1_655 S
Tb1 C11 2.809 1_545 S
Tb1 O22 2.325 1_544 S
Tb1 O25 2.341 1_455 S
Tb1 O26 2.484 1_544 S
Tb1 O27 2.440 . S
Tb1 O28 2.658 1_455 S
Tb1 O29 2.409 . S
Tb1 O30 2.378 1_545 S
C2 Tb0 2.809 1_545 S
C2 C3 1.514 . S
C2 O20 1.248 1_556 S
C2 O21 1.266 1_545 S
C3 C2 1.514 . S
C3 C4 1.359 1_556 S
C3 C8 1.348 . S
C4 C3 1.359 1_554 S
C4 C5 1.380 . S
C4 H32 0.929 . S
C5 C4 1.380 . S
C5 C6 1.347 . S
C5 H33 0.931 . S
C6 C5 1.347 . S
C6 C7 1.369 1_554 S
C7 C6 1.369 1_556 S
C7 C8 1.408 . S
C7 H34 0.930 . S
C8 C3 1.348 . S
C8 C7 1.408 . S
C8 H35 0.930 . S
C9 O22 1.281 1_655 S
C9 O23 1.254 . S
C10 O24 1.236 . S
C10 O25 1.266 1_556 S
C11 Tb1 2.809 1_565 S
C11 C12 1.514 . S
C11 O26 1.248 1_554 S
C11 O27 1.266 1_565 S
C12 C11 1.514 . S
C12 C13 1.359 1_554 S
C12 C17 1.348 . S
C13 C12 1.359 1_556 S
C13 C14 1.380 . S
C13 H36 0.929 . S
C14 C13 1.380 . S
C14 C15 1.347 . S
C14 H37 0.931 . S
C15 C14 1.347 . S
C15 C16 1.369 1_556 S
C16 C15 1.369 1_554 S
C16 C17 1.408 . S
C16 H38 0.930 . S
C17 C12 1.348 . S
C17 C16 1.408 . S
C17 H39 0.930 . S
C18 O28 1.281 1_455 S
C18 O29 1.254 . S
C19 O30 1.236 . S
C19 O31 1.266 1_554 S
O20 Tb0 2.484 1_544 S
O20 C2 1.248 1_554 S
O21 Tb0 2.440 . S
O21 C2 1.266 1_565 S
O22 Tb0 2.658 1_455 S
O22 Tb1 2.325 1_566 S
O22 C9 1.281 1_455 S
O23 Tb0 2.409 . S
O23 C9 1.254 . S
O24 Tb0 2.378 1_545 S
O24 C10 1.236 . S
O25 Tb1 2.341 1_655 S
O25 C10 1.266 1_554 S
O26 Tb1 2.484 1_566 S
O26 C11 1.248 1_556 S
O27 Tb1 2.440 . S
O27 C11 1.266 1_545 S
O28 Tb0 2.325 1_544 S
O28 Tb1 2.658 1_655 S
O28 C18 1.281 1_655 S
O29 Tb1 2.409 . S
O29 C18 1.254 . S
O30 Tb1 2.378 1_565 S
O30 C19 1.236 . S
O31 Tb0 2.341 1_455 S
O31 C19 1.266 1_556 S
H32 C4 0.929 . S
H33 C5 0.931 . S
H34 C7 0.930 . S
H35 C8 0.930 . S
H36 C13 0.929 . S
H37 C14 0.931 . S
H38 C16 0.930 . S
H39 C17 0.930 . S
Tb40 C42 2.809 1_455 S
Tb40 O60 2.484 1_455 S
Tb40 O61 2.440 1_455 S
Tb40 O62 2.658 1_565 S
Tb40 O63 2.409 . S
Tb40 O64 2.378 1_455 S
Tb40 O68 2.325 1_455 S
Tb40 O71 2.341 . S
Tb41 C51 2.809 1_655 S
Tb41 O62 2.325 1_655 S
Tb41 O65 2.341 . S
Tb41 O66 2.484 1_655 S
Tb41 O67 2.440 1_655 S
Tb41 O68 2.658 1_545 S
Tb41 O69 2.409 . S
Tb41 O70 2.378 1_655 S
C42 Tb40 2.809 1_655 S
C42 C43 1.514 . S
C42 O60 1.248 . S
C42 O61 1.266 . S
C43 C42 1.514 . S
C43 C44 1.359 . S
C43 C48 1.348 . S
C44 C43 1.359 . S
C44 C45 1.380 . S
C44 H72 0.929 . S
C45 C44 1.380 . S
C45 C46 1.347 . S
C45 H73 0.931 . S
C46 C45 1.347 . S
C46 C47 1.369 . S
C47 C46 1.369 . S
C47 C48 1.408 . S
C47 H74 0.930 . S
C48 C43 1.348 . S
C48 C47 1.408 . S
C48 H75 0.930 . S
C49 O62 1.281 1_565 S
C49 O63 1.254 . S
C50 O64 1.236 1_545 S
C50 O65 1.266 . S
C51 Tb41 2.809 1_455 S
C51 C52 1.514 . S
C51 O66 1.248 . S
C51 O67 1.266 . S
C52 C51 1.514 . S
C52 C53 1.359 . S
C52 C57 1.348 . S
C53 C52 1.359 . S
C53 C54 1.380 . S
C53 H76 0.929 . S
C54 C53 1.380 . S
C54 C55 1.347 . S
C54 H77 0.931 . S
C55 C54 1.347 . S
C55 C56 1.369 . S
C56 C55 1.369 . S
C56 C57 1.408 . S
C56 H78 0.930 . S
C57 C52 1.348 . S
C57 C56 1.408 . S
C57 H79 0.930 . S
C58 O68 1.281 1_545 S
C58 O69 1.254 . S
C59 O70 1.236 1_565 S
C59 O71 1.266 . S
O60 Tb40 2.484 1_655 S
O60 C42 1.248 . S
O61 Tb40 2.440 1_655 S
O61 C42 1.266 . S
O62 Tb40 2.658 1_545 S
O62 Tb41 2.325 1_455 S
O62 C49 1.281 1_545 S
O63 Tb40 2.409 . S
O63 C49 1.254 . S
O64 Tb40 2.378 1_655 S
O64 C50 1.236 1_565 S
O65 Tb41 2.341 . S
O65 C50 1.266 . S
O66 Tb41 2.484 1_455 S
O66 C51 1.248 . S
O67 Tb41 2.440 1_455 S
O67 C51 1.266 . S
O68 Tb40 2.325 1_655 S
O68 Tb41 2.658 1_565 S
O68 C58 1.281 1_565 S
O69 Tb41 2.409 . S
O69 C58 1.254 . S
O70 Tb41 2.378 1_455 S
O70 C59 1.236 1_545 S
O71 Tb40 2.341 . S
O71 C59 1.266 . S
H72 C44 0.929 . S
H73 C45 0.931 . S
H74 C47 0.930 . S
H75 C48 0.930 . S
H76 C53 0.929 . S
H77 C54 0.931 . S
H78 C56 0.930 . S
H79 C57 0.930 . S
Tb80 C82 2.809 . S
Tb80 O100 2.484 1_556 S
Tb80 O101 2.440 . S
Tb80 O102 2.658 . S
Tb80 O103 2.409 . S
Tb80 O104 2.378 . S
Tb80 O108 2.325 1_556 S
Tb80 O111 2.341 . S
Tb81 C91 2.809 . S
Tb81 O102 2.325 1_554 S
Tb81 O105 2.341 . S
Tb81 O106 2.484 1_554 S
Tb81 O107 2.440 . S
Tb81 O108 2.658 . S
Tb81 O109 2.409 . S
Tb81 O110 2.378 . S
C82 Tb80 2.809 . S
C82 C83 1.514 . S
C82 O100 1.248 1_556 S
C82 O101 1.266 . S
C83 C82 1.514 . S
C83 C84 1.359 1_556 S
C83 C88 1.348 . S
C84 C83 1.359 1_554 S
C84 C85 1.380 . S
C84 H112 0.929 . S
C85 C84 1.380 . S
C85 C86 1.347 . S
C85 H113 0.931 . S
C86 C85 1.347 . S
C86 C87 1.369 1_554 S
C87 C86 1.369 1_556 S
C87 C88 1.408 . S
C87 H114 0.930 . S
C88 C83 1.348 . S
C88 C87 1.408 . S
C88 H115 0.930 . S
C89 O102 1.281 . S
C89 O103 1.254 . S
C90 O104 1.236 . S
C90 O105 1.266 1_556 S
C91 Tb81 2.809 . S
C91 C92 1.514 . S
C91 O106 1.248 1_554 S
C91 O107 1.266 . S
C92 C91 1.514 . S
C92 C93 1.359 1_554 S
C92 C97 1.348 . S
C93 C92 1.359 1_556 S
C93 C94 1.380 . S
C93 H116 0.929 . S
C94 C93 1.380 . S
C94 C95 1.347 . S
C94 H117 0.931 . S
C95 C94 1.347 . S
C95 C96 1.369 1_556 S
C96 C95 1.369 1_554 S
C96 C97 1.408 . S
C96 H118 0.930 . S
C97 C92 1.348 . S
C97 C96 1.408 . S
C97 H119 0.930 . S
C98 O108 1.281 . S
C98 O109 1.254 . S
C99 O110 1.236 . S
C99 O111 1.266 1_554 S
O100 Tb80 2.484 1_554 S
O100 C82 1.248 1_554 S
O101 Tb80 2.440 . S
O101 C82 1.266 . S
O102 Tb80 2.658 . S
O102 Tb81 2.325 1_556 S
O102 C89 1.281 . S
O103 Tb80 2.409 . S
O103 C89 1.254 . S
O104 Tb80 2.378 . S
O104 C90 1.236 . S
O105 Tb81 2.341 . S
O105 C90 1.266 1_554 S
O106 Tb81 2.484 1_556 S
O106 C91 1.248 1_556 S
O107 Tb81 2.440 . S
O107 C91 1.266 . S
O108 Tb80 2.325 1_554 S
O108 Tb81 2.658 . S
O108 C98 1.281 . S
O109 Tb81 2.409 . S
O109 C98 1.254 . S
O110 Tb81 2.378 . S
O110 C99 1.236 . S
O111 Tb80 2.341 . S
O111 C99 1.266 1_556 S
H112 C84 0.929 . S
H113 C85 0.931 . S
H114 C87 0.930 . S
H115 C88 0.930 . S
H116 C93 0.929 . S
H117 C94 0.931 . S
H118 C96 0.930 . S
H119 C97 0.930 . S
Tb120 C122 2.809 . S
Tb120 O140 2.484 . S
Tb120 O141 2.440 . S
Tb120 O142 2.658 . S
Tb120 O143 2.409 . S
Tb120 O144 2.378 . S
Tb120 O148 2.325 . S
Tb120 O151 2.341 . S
Tb121 C131 2.809 . S
Tb121 O142 2.325 . S
Tb121 O145 2.341 . S
Tb121 O146 2.484 . S
Tb121 O147 2.440 . S
Tb121 O148 2.658 . S
Tb121 O149 2.409 . S
Tb121 O150 2.378 . S
C122 Tb120 2.809 . S
C122 C123 1.514 . S
C122 O140 1.248 . S
C122 O141 1.266 . S
C123 C122 1.514 . S
C123 C124 1.359 . S
C123 C128 1.348 . S
C124 C123 1.359 . S
C124 C125 1.380 . S
C124 H152 0.929 . S
C125 C124 1.380 . S
C125 C126 1.347 . S
C125 H153 0.931 . S
C126 C125 1.347 . S
C126 C127 1.369 . S
C127 C126 1.369 . S
C127 C128 1.408 . S
C127 H154 0.930 . S
C128 C123 1.348 . S
C128 C127 1.408 . S
C128 H155 0.930 . S
C129 O142 1.281 . S
C129 O143 1.254 . S
C130 O144 1.236 . S
C130 O145 1.266 . S
C131 Tb121 2.809 . S
C131 C132 1.514 . S
C131 O146 1.248 . S
C131 O147 1.266 . S
C132 C131 1.514 . S
C132 C133 1.359 . S
C132 C137 1.348 . S
C133 C132 1.359 . S
C133 C134 1.380 . S
C133 H156 0.929 . S
C134 C133 1.380 . S
C134 C135 1.347 . S
C134 H157 0.931 . S
C135 C134 1.347 . S
C135 C136 1.369 . S
C136 C135 1.369 . S
C136 C137 1.408 . S
C136 H158 0.930 . S
C137 C132 1.348 . S
C137 C136 1.408 . S
C137 H159 0.930 . S
C138 O148 1.281 . S
C138 O149 1.254 . S
C139 O150 1.236 . S
C139 O151 1.266 . S
O140 Tb120 2.484 . S
O140 C122 1.248 . S
O141 Tb120 2.440 . S
O141 C122 1.266 . S
O142 Tb120 2.658 . S
O142 Tb121 2.325 . S
O142 C129 1.281 . S
O143 Tb120 2.409 . S
O143 C129 1.254 . S
O144 Tb120 2.378 . S
O144 C130 1.236 . S
O145 Tb121 2.341 . S
O145 C130 1.266 . S
O146 Tb121 2.484 . S
O146 C131 1.248 . S
O147 Tb121 2.440 . S
O147 C131 1.266 . S
O148 Tb120 2.325 . S
O148 Tb121 2.658 . S
O148 C138 1.281 . S
O149 Tb121 2.409 . S
O149 C138 1.254 . S
O150 Tb121 2.378 . S
O150 C139 1.236 . S
O151 Tb120 2.341 . S
O151 C139 1.266 . S
H152 C124 0.929 . S
H153 C125 0.931 . S
H154 C127 0.930 . S
H155 C128 0.930 . S
H156 C133 0.929 . S
H157 C134 0.931 . S
H158 C136 0.930 . S
H159 C137 0.930 . S
H160 C166 0.930 . S
H161 C169 0.930 . S
H162 C170 0.930 . S
H163 C171 0.930 . S
H164 C174 0.930 . S
H165 C175 0.930 . S
C166 H160 0.930 . S
C166 C167 1.355 1_556 S
C166 C168 1.415 . S
C167 C166 1.355 1_554 S
C167 C169 1.419 . S
C168 C166 1.415 . S
C168 C173 1.425 1_556 S
C168 C175 1.409 . S
C169 H161 0.930 . S
C169 C167 1.419 . S
C169 C170 1.362 . S
C170 H162 0.930 . S
C170 C169 1.362 . S
C170 C173 1.409 . S
C171 H163 0.930 . S
C171 C172 1.355 1_554 S
C171 C173 1.415 . S
C172 C171 1.355 1_556 S
C172 C174 1.419 . S
C173 C168 1.425 1_554 S
C173 C170 1.409 . S
C173 C171 1.415 . S
C174 H164 0.930 . S
C174 C172 1.419 . S
C174 C175 1.362 . S
C175 H165 0.930 . S
C175 C168 1.409 . S
C175 C174 1.362 . S
H176 C182 0.930 . S
H177 C185 0.930 . S
H178 C186 0.930 . S
H179 C187 0.930 . S
H180 C190 0.930 . S
H181 C191 0.930 . S
C182 H176 0.930 . S
C182 C183 1.355 1_556 S
C182 C184 1.415 . S
C183 C182 1.355 1_554 S
C183 C185 1.419 . S
C184 C182 1.415 . S
C184 C189 1.425 1_556 S
C184 C191 1.409 . S
C185 H177 0.930 . S
C185 C183 1.419 . S
C185 C186 1.362 . S
C186 H178 0.930 . S
C186 C185 1.362 . S
C186 C189 1.409 . S
C187 H179 0.930 . S
C187 C188 1.355 1_554 S
C187 C189 1.415 . S
C188 C187 1.355 1_556 S
C188 C190 1.419 . S
C189 C184 1.425 1_554 S
C189 C186 1.409 . S
C189 C187 1.415 . S
C190 H180 0.930 . S
C190 C188 1.419 . S
C190 C191 1.362 . S
C191 H181 0.930 . S
C191 C184 1.409 . S
C191 C190 1.362 . S
H192 C198 0.930 . S
H193 C201 0.930 . S
H194 C202 0.930 . S
H195 C203 0.930 . S
H196 C206 0.930 . S
H197 C207 0.930 . S
C198 H192 0.930 . S
C198 C199 1.355 . S
C198 C200 1.415 . S
C199 C198 1.355 . S
C199 C201 1.419 . S
C200 C198 1.415 . S
C200 C205 1.425 . S
C200 C207 1.409 . S
C201 H193 0.930 . S
C201 C199 1.419 . S
C201 C202 1.362 . S
C202 H194 0.930 . S
C202 C201 1.362 . S
C202 C205 1.409 . S
C203 H195 0.930 . S
C203 C204 1.355 . S
C203 C205 1.415 . S
C204 C203 1.355 . S
C204 C206 1.419 . S
C205 C200 1.425 . S
C205 C202 1.409 . S
C205 C203 1.415 . S
C206 H196 0.930 . S
C206 C204 1.419 . S
C206 C207 1.362 . S
C207 H197 0.930 . S
C207 C200 1.409 . S
C207 C206 1.362 . S
H208 C214 0.930 . S
H209 C217 0.930 . S
H210 C218 0.930 . S
H211 C219 0.930 . S
H212 C222 0.930 . S
H213 C223 0.930 . S
C214 H208 0.930 . S
C214 C215 1.355 . S
C214 C216 1.415 . S
C215 C214 1.355 . S
C215 C217 1.419 . S
C216 C214 1.415 . S
C216 C221 1.425 . S
C216 C223 1.409 . S
C217 H209 0.930 . S
C217 C215 1.419 . S
C217 C218 1.362 . S
C218 H210 0.930 . S
C218 C217 1.362 . S
C218 C221 1.409 . S
C219 H211 0.930 . S
C219 C220 1.355 . S
C219 C221 1.415 . S
C220 C219 1.355 . S
C220 C222 1.419 . S
C221 C216 1.425 . S
C221 C218 1.409 . S
C221 C219 1.415 . S
C222 H212 0.930 . S
C222 C220 1.419 . S
C222 C223 1.362 . S
C223 H213 0.930 . S
C223 C216 1.409 . S
C223 C222 1.362 . S
H224 C230 0.930 . S
H225 C233 0.930 . S
H226 C234 0.930 . S
H227 C235 0.930 . S
H228 C238 0.930 . S
H229 C239 0.930 . S
C230 H224 0.930 . S
C230 C231 1.355 1_554 S
C230 C232 1.415 . S
C231 C230 1.355 1_556 S
C231 C233 1.419 . S
C232 C230 1.415 . S
C232 C237 1.425 1_564 S
C232 C239 1.409 1_565 S
C233 H225 0.930 . S
C233 C231 1.419 . S
C233 C234 1.362 . S
C234 H226 0.930 . S
C234 C233 1.362 . S
C234 C237 1.409 1_565 S
C235 H227 0.930 . S
C235 C236 1.355 1_556 S
C235 C237 1.415 . S
C236 C235 1.355 1_554 S
C236 C238 1.419 . S
C237 C232 1.425 1_546 S
C237 C234 1.409 1_545 S
C237 C235 1.415 . S
C238 H228 0.930 . S
C238 C236 1.419 . S
C238 C239 1.362 . S
C239 H229 0.930 . S
C239 C232 1.409 1_545 S
C239 C238 1.362 . S
H240 C246 0.930 . S
H241 C249 0.930 . S
H242 C250 0.930 . S
H243 C251 0.930 . S
H244 C254 0.930 . S
H245 C255 0.930 . S
C246 H240 0.930 . S
C246 C247 1.355 1_545 S
C246 C248 1.415 . S
C247 C246 1.355 1_565 S
C247 C249 1.419 . S
C248 C246 1.415 . S
C248 C253 1.425 1_545 S
C248 C255 1.409 . S
C249 H241 0.930 . S
C249 C247 1.419 . S
C249 C250 1.362 . S
C250 H242 0.930 . S
C250 C249 1.362 . S
C250 C253 1.409 . S
C251 H243 0.930 . S
C251 C252 1.355 1_565 S
C251 C253 1.415 . S
C252 C251 1.355 1_545 S
C252 C254 1.419 . S
C253 C248 1.425 1_565 S
C253 C250 1.409 . S
C253 C251 1.415 . S
C254 H244 0.930 . S
C254 C252 1.419 . S
C254 C255 1.362 . S
C255 H245 0.930 . S
C255 C248 1.409 . S
C255 C254 1.362 . S
H256 C262 0.930 . S
H257 C265 0.930 . S
H258 C266 0.930 . S
H259 C267 0.930 . S
H260 C270 0.930 . S
H261 C271 0.930 . S
C262 H256 0.930 . S
C262 C263 1.355 1_554 S
C262 C264 1.415 . S
C263 C262 1.355 1_556 S
C263 C265 1.419 . S
C264 C262 1.415 . S
C264 C269 1.425 1_654 S
C264 C271 1.409 . S
C265 H257 0.930 . S
C265 C263 1.419 . S
C265 C266 1.362 1_655 S
C266 H258 0.930 . S
C266 C265 1.362 1_455 S
C266 C269 1.409 . S
C267 H259 0.930 . S
C267 C268 1.355 1_556 S
C267 C269 1.415 . S
C268 C267 1.355 1_554 S
C268 C270 1.419 . S
C269 C264 1.425 1_456 S
C269 C266 1.409 . S
C269 C267 1.415 . S
C270 H260 0.930 . S
C270 C268 1.419 . S
C270 C271 1.362 1_455 S
C271 H261 0.930 . S
C271 C264 1.409 . S
C271 C270 1.362 1_655 S
H272 C278 0.930 . S
H273 C281 0.930 . S
H274 C282 0.930 . S
H275 C283 0.930 . S
H276 C286 0.930 . S
H277 C287 0.930 . S
C278 H272 0.930 . S
C278 C279 1.355 . S
C278 C280 1.415 . S
C279 C278 1.355 . S
C279 C281 1.419 . S
C280 C278 1.415 . S
C280 C285 1.425 1_455 S
C280 C287 1.409 1_455 S
C281 H273 0.930 . S
C281 C279 1.419 . S
C281 C282 1.362 . S
C282 H274 0.930 . S
C282 C281 1.362 . S
C282 C285 1.409 1_455 S
C283 H275 0.930 . S
C283 C284 1.355 . S
C283 C285 1.415 . S
C284 C283 1.355 . S
C284 C286 1.419 . S
C285 C280 1.425 1_655 S
C285 C282 1.409 1_655 S
C285 C283 1.415 . S
C286 H276 0.930 . S
C286 C284 1.419 . S
C286 C287 1.362 . S
C287 H277 0.930 . S
C287 C280 1.409 1_655 S
C287 C286 1.362 . S
H288 C294 0.930 . S
H289 C297 0.930 . S
H290 C298 0.930 . S
H291 C299 0.930 . S
H292 C302 0.930 . S
H293 C303 0.930 . S
C294 H288 0.930 . S
C294 C295 1.355 1_465 S
C294 C296 1.415 . S
C295 C294 1.355 1_645 S
C295 C297 1.419 . S
C296 C294 1.415 . S
C296 C301 1.425 1_465 S
C296 C303 1.409 . S
C297 H289 0.930 . S
C297 C295 1.419 . S
C297 C298 1.362 . S
C298 H290 0.930 . S
C298 C297 1.362 . S
C298 C301 1.409 . S
C299 H291 0.930 . S
C299 C300 1.355 1_545 S
C299 C301 1.415 . S
C300 C299 1.355 1_565 S
C300 C302 1.419 1_655 S
C301 C296 1.425 1_645 S
C301 C298 1.409 . S
C301 C299 1.415 . S
C302 H292 0.930 . S
C302 C300 1.419 1_455 S
C302 C303 1.362 . S
C303 H293 0.930 . S
C303 C296 1.409 . S
C303 C302 1.362 . S
H304 C310 0.930 . S
H305 C313 0.930 . S
H306 C314 0.930 . S
H307 C315 0.930 . S
H308 C318 0.930 . S
H309 C319 0.930 . S
C310 H304 0.930 . S
C310 C311 1.355 1_645 S
C310 C312 1.415 . S
C311 C310 1.355 1_465 S
C311 C313 1.419 . S
C312 C310 1.415 . S
C312 C317 1.425 1_645 S
C312 C319 1.409 . S
C313 H305 0.930 . S
C313 C311 1.419 . S
C313 C314 1.362 . S
C314 H306 0.930 . S
C314 C313 1.362 . S
C314 C317 1.409 . S
C315 H307 0.930 . S
C315 C316 1.355 1_565 S
C315 C317 1.415 . S
C316 C315 1.355 1_545 S
C316 C318 1.419 1_455 S
C317 C312 1.425 1_465 S
C317 C314 1.409 . S
C317 C315 1.415 . S
C318 H308 0.930 . S
C318 C316 1.419 1_655 S
C318 C319 1.362 . S
C319 H309 0.930 . S
C319 C312 1.409 . S
C319 C318 1.362 . S
H320 C326 0.930 . S
H321 C329 0.930 . S
H322 C330 0.930 . S
H323 C331 0.930 . S
H324 C334 0.930 . S
H325 C335 0.930 . S
C326 H320 0.930 . S
C326 C327 1.355 . S
C326 C328 1.415 . S
C327 C326 1.355 . S
C327 C329 1.419 . S
C328 C326 1.415 . S
C328 C333 1.425 . S
C328 C335 1.409 . S
C329 H321 0.930 . S
C329 C327 1.419 . S
C329 C330 1.362 . S
C330 H322 0.930 . S
C330 C329 1.362 . S
C330 C333 1.409 . S
C331 H323 0.930 . S
C331 C332 1.355 . S
C331 C333 1.415 . S
C332 C331 1.355 . S
C332 C334 1.419 . S
C333 C328 1.425 . S
C333 C330 1.409 . S
C333 C331 1.415 . S
C334 H324 0.930 . S
C334 C332 1.419 . S
C334 C335 1.362 . S
C335 H325 0.930 . S
C335 C328 1.409 . S
C335 C334 1.362 . S
H336 C342 0.930 . S
H337 C345 0.930 . S
H338 C346 0.930 . S
H339 C347 0.930 . S
H340 C350 0.930 . S
H341 C351 0.930 . S
C342 H336 0.930 . S
C342 C343 1.355 . S
C342 C344 1.415 . S
C343 C342 1.355 . S
C343 C345 1.419 . S
C344 C342 1.415 . S
C344 C349 1.425 . S
C344 C351 1.409 . S
C345 H337 0.930 . S
C345 C343 1.419 . S
C345 C346 1.362 . S
C346 H338 0.930 . S
C346 C345 1.362 . S
C346 C349 1.409 . S
C347 H339 0.930 . S
C347 C348 1.355 . S
C347 C349 1.415 . S
C348 C347 1.355 . S
C348 C350 1.419 . S
C349 C344 1.425 . S
C349 C346 1.409 . S
C349 C347 1.415 . S
C350 H340 0.930 . S
C350 C348 1.419 . S
C350 C351 1.362 . S
C351 H341 0.930 . S
C351 C344 1.409 . S
C351 C350 1.362 . S
C167 C90 3.614 1_554 S
C172 C19 3.614 1_556 S
C183 C99 3.607 . S
C188 C10 3.608 . S
C199 C55 0.236 . S
C204 C126 0.236 . S
C215 C46 0.340 . S
C220 C135 0.340 . S
C231 C15 0.929 . S
C236 C6 0.929 . S
C247 C59 4.862 . S
C252 C50 4.862 . S
C263 C95 0.909 . S
C268 C86 0.909 . S
C279 C130 4.863 . S
C284 C139 4.863 . S
C295 C49 1.477 1_645 S
C300 C18 1.468 1_665 S
C311 C9 1.426 1_455 S
C316 C58 1.408 1_455 S
C327 C129 1.408 . S
C332 C98 1.421 . S
C343 C138 1.478 . S
C348 C89 1.468 . S
