# Generated by pormake.
# Topology wmi, (6)-cn, num edge types: 1
# Building blocks:
#     Node 0, Type 0, BuildingBlock: GEDQOX_clean_sbu_0, # of connection points: 6
#     Node 1, Type 0, BuildingBlock: GEDQOX_clean_sbu_0, # of connection points: 6
#     Node 2, Type 0, BuildingBlock: GEDQOX_clean_sbu_0, # of connection points: 6
#     Node 3, Type 0, BuildingBlock: GEDQOX_clean_sbu_0, # of connection points: 6
#     Node 4, Type 0, BuildingBlock: GEDQOX_clean_sbu_0, # of connection points: 6
#     Node 5, Type 0, BuildingBlock: GEDQOX_clean_sbu_0, # of connection points: 6
#     Node 6, Type 0, BuildingBlock: GEDQOX_clean_sbu_0, # of connection points: 6
#     Node 7, Type 0, BuildingBlock: GEDQOX_clean_sbu_0, # of connection points: 6
#     Node 8, Type 0, BuildingBlock: GEDQOX_clean_sbu_0, # of connection points: 6
#     Node 9, Type 0, BuildingBlock: GEDQOX_clean_sbu_0, # of connection points: 6
#     Node 10, Type 0, BuildingBlock: GEDQOX_clean_sbu_0, # of connection points: 6
#     Node 11, Type 0, BuildingBlock: GEDQOX_clean_sbu_0, # of connection points: 6
#     Node 12, Type 0, BuildingBlock: GEDQOX_clean_sbu_0, # of connection points: 6
#     Node 13, Type 0, BuildingBlock: GEDQOX_clean_sbu_0, # of connection points: 6
#     Node 14, Type 0, BuildingBlock: GEDQOX_clean_sbu_0, # of connection points: 6
#     Node 15, Type 0, BuildingBlock: GEDQOX_clean_sbu_0, # of connection points: 6
#     Node 16, Type 0, BuildingBlock: GEDQOX_clean_sbu_0, # of connection points: 6
#     Node 17, Type 0, BuildingBlock: GEDQOX_clean_sbu_0, # of connection points: 6
#     Edge 18, Type (0, 0), BuildingBlock: UVAHIK_clean_linker_0, # of connection points: 2
#     Edge 19, Type (0, 0), BuildingBlock: UVAHIK_clean_linker_0, # of connection points: 2
#     Edge 20, Type (0, 0), BuildingBlock: UVAHIK_clean_linker_0, # of connection points: 2
#     Edge 21, Type (0, 0), BuildingBlock: UVAHIK_clean_linker_0, # of connection points: 2
#     Edge 22, Type (0, 0), BuildingBlock: UVAHIK_clean_linker_0, # of connection points: 2
#     Edge 23, Type (0, 0), BuildingBlock: UVAHIK_clean_linker_0, # of connection points: 2
#     Edge 24, Type (0, 0), BuildingBlock: UVAHIK_clean_linker_0, # of connection points: 2
#     Edge 25, Type (0, 0), BuildingBlock: UVAHIK_clean_linker_0, # of connection points: 2
#     Edge 26, Type (0, 0), BuildingBlock: UVAHIK_clean_linker_0, # of connection points: 2
#     Edge 27, Type (0, 0), BuildingBlock: UVAHIK_clean_linker_0, # of connection points: 2
#     Edge 28, Type (0, 0), BuildingBlock: UVAHIK_clean_linker_0, # of connection points: 2
#     Edge 29, Type (0, 0), BuildingBlock: UVAHIK_clean_linker_0, # of connection points: 2
#     Edge 30, Type (0, 0), BuildingBlock: UVAHIK_clean_linker_0, # of connection points: 2
#     Edge 31, Type (0, 0), BuildingBlock: UVAHIK_clean_linker_0, # of connection points: 2
#     Edge 32, Type (0, 0), BuildingBlock: UVAHIK_clean_linker_0, # of connection points: 2
#     Edge 33, Type (0, 0), BuildingBlock: UVAHIK_clean_linker_0, # of connection points: 2
#     Edge 34, Type (0, 0), BuildingBlock: UVAHIK_clean_linker_0, # of connection points: 2
#     Edge 35, Type (0, 0), BuildingBlock: UVAHIK_clean_linker_0, # of connection points: 2
#     Edge 36, Type (0, 0), BuildingBlock: UVAHIK_clean_linker_0, # of connection points: 2
#     Edge 37, Type (0, 0), BuildingBlock: UVAHIK_clean_linker_0, # of connection points: 2
#     Edge 38, Type (0, 0), BuildingBlock: UVAHIK_clean_linker_0, # of connection points: 2
#     Edge 39, Type (0, 0), BuildingBlock: UVAHIK_clean_linker_0, # of connection points: 2
#     Edge 40, Type (0, 0), BuildingBlock: UVAHIK_clean_linker_0, # of connection points: 2
#     Edge 41, Type (0, 0), BuildingBlock: UVAHIK_clean_linker_0, # of connection points: 2
#     Edge 42, Type (0, 0), BuildingBlock: UVAHIK_clean_linker_0, # of connection points: 2
#     Edge 43, Type (0, 0), BuildingBlock: UVAHIK_clean_linker_0, # of connection points: 2
#     Edge 44, Type (0, 0), BuildingBlock: UVAHIK_clean_linker_0, # of connection points: 2
#     Edge 45, Type (0, 0), BuildingBlock: UVAHIK_clean_linker_0, # of connection points: 2
#     Edge 46, Type (0, 0), BuildingBlock: UVAHIK_clean_linker_0, # of connection points: 2
#     Edge 47, Type (0, 0), BuildingBlock: UVAHIK_clean_linker_0, # of connection points: 2
#     Edge 48, Type (0, 0), BuildingBlock: UVAHIK_clean_linker_0, # of connection points: 2
#     Edge 49, Type (0, 0), BuildingBlock: UVAHIK_clean_linker_0, # of connection points: 2
#     Edge 50, Type (0, 0), BuildingBlock: UVAHIK_clean_linker_0, # of connection points: 2
#     Edge 51, Type (0, 0), BuildingBlock: UVAHIK_clean_linker_0, # of connection points: 2
#     Edge 52, Type (0, 0), BuildingBlock: UVAHIK_clean_linker_0, # of connection points: 2
#     Edge 53, Type (0, 0), BuildingBlock: UVAHIK_clean_linker_0, # of connection points: 2
#     Edge 54, Type (0, 0), BuildingBlock: UVAHIK_clean_linker_0, # of connection points: 2
#     Edge 55, Type (0, 0), BuildingBlock: UVAHIK_clean_linker_0, # of connection points: 2
#     Edge 56, Type (0, 0), BuildingBlock: UVAHIK_clean_linker_0, # of connection points: 2
#     Edge 57, Type (0, 0), BuildingBlock: UVAHIK_clean_linker_0, # of connection points: 2
#     Edge 58, Type (0, 0), BuildingBlock: UVAHIK_clean_linker_0, # of connection points: 2
#     Edge 59, Type (0, 0), BuildingBlock: UVAHIK_clean_linker_0, # of connection points: 2
#     Edge 60, Type (0, 0), BuildingBlock: UVAHIK_clean_linker_0, # of connection points: 2
#     Edge 61, Type (0, 0), BuildingBlock: UVAHIK_clean_linker_0, # of connection points: 2
#     Edge 62, Type (0, 0), BuildingBlock: UVAHIK_clean_linker_0, # of connection points: 2
#     Edge 63, Type (0, 0), BuildingBlock: UVAHIK_clean_linker_0, # of connection points: 2
#     Edge 64, Type (0, 0), BuildingBlock: UVAHIK_clean_linker_0, # of connection points: 2
#     Edge 65, Type (0, 0), BuildingBlock: UVAHIK_clean_linker_0, # of connection points: 2
#     Edge 66, Type (0, 0), BuildingBlock: UVAHIK_clean_linker_0, # of connection points: 2
#     Edge 67, Type (0, 0), BuildingBlock: UVAHIK_clean_linker_0, # of connection points: 2
#     Edge 68, Type (0, 0), BuildingBlock: UVAHIK_clean_linker_0, # of connection points: 2
#     Edge 69, Type (0, 0), BuildingBlock: UVAHIK_clean_linker_0, # of connection points: 2
#     Edge 70, Type (0, 0), BuildingBlock: UVAHIK_clean_linker_0, # of connection points: 2
#     Edge 71, Type (0, 0), BuildingBlock: UVAHIK_clean_linker_0, # of connection points: 2
# Relax obj value: 0.090
# Max RMSD: 0.203
# Mean RMSD: 0.203
data_MOF--net-wmi--node1-GEDQOX_clean_sbu_0--edge1-UVAHIK_clean_linker_0
_symmetry_space_group_name_H-M    P1
_symmetry_Int_Tables_number       1
_symmetry_cell_setting            triclinic
loop_
_symmetry_equiv_pos_as_xyz
'x, y, z'
_cell_length_a     49.198895
_cell_length_b     49.281427
_cell_length_c     104.60379
_cell_angle_alpha  90.031721
_cell_angle_beta   89.957266
_cell_angle_gamma 119.99154
loop_
_atom_site_label
_atom_site_type_symbol
_atom_site_fract_x
_atom_site_fract_y
_atom_site_fract_z
_atom_type_partial_charge
Nd0 Nd 0.47815 0.04958 0.10043 0.0
Nd1 Nd 0.5082 1.00771 0.10889 0.0
C2 C 0.46715 0.09349 0.0915 0.0
C3 C 0.4798 0.12757 0.09361 0.0
C4 C 0.49145 0.14856 0.08328 0.0
C5 C 0.50226 0.18058 0.08509 0.0
C6 C 0.50138 0.1923 0.09728 0.0
C7 C 0.49009 0.1713 0.10763 0.0
C8 C 0.47954 0.1394 0.10584 0.0
C9 C 0.4596 0.0216 0.12382 0.0
C10 C 0.55218 0.0838 0.11075 0.0
C11 C 0.52466 0.97084 0.1209 0.0
C12 C 0.5309 0.94533 0.11767 0.0
C13 C 0.54514 0.93561 0.12676 0.0
C14 C 0.55248 0.91234 0.12376 0.0
C15 C 0.54571 0.89821 0.11159 0.0
C16 C 0.53141 0.90811 0.10248 0.0
C17 C 0.52407 0.93147 0.1055 0.0
C18 C 0.51336 0.01765 0.08262 0.0
C19 C 0.43705 0.97451 0.0967 0.0
O20 O 0.48516 0.08499 0.08556 0.0
O21 O 0.45158 0.0748 0.10096 0.0
O22 O 0.44191 0.02637 0.11605 0.0
O23 O 0.48762 0.03358 0.11966 0.0
O24 O 0.52901 0.08674 0.10581 0.0
O25 O 0.54891 0.05633 0.11381 0.0
O26 O 0.49552 0.96466 0.12005 0.0
O27 O 0.54487 0.99856 0.11645 0.0
O28 O 0.52425 1.0019 0.08847 0.0
O29 O 0.50155 0.02715 0.09081 0.0
O30 O 0.45657 0.97243 0.10483 0.0
O31 O 0.4424 1.00165 0.0918 0.0
H32 H 0.49186 0.14012 0.07376 0.0
H33 H 0.51059 0.19605 0.07689 0.0
H34 H 0.48951 0.17955 0.11717 0.0
H35 H 0.47095 0.124 0.11406 0.0
H36 H 0.55089 0.94626 0.13616 0.0
H37 H 0.56397 0.9058 0.13096 0.0
H38 H 0.52559 0.8976 0.09306 0.0
H39 H 0.51321 0.9388 0.09832 0.0
Nd40 Nd 1.02002 0.44932 0.10262 0.0
Nd41 Nd 0.06043 0.52173 0.10971 0.0
C42 C 0.97616 0.39123 0.09691 0.0
C43 C 0.94149 0.37053 0.0976 0.0
C44 C 0.92078 0.37356 0.08922 0.0
C45 C 0.88815 0.35349 0.0903 0.0
C46 C 0.87561 0.3302 0.09984 0.0
C47 C 0.89644 0.32713 0.10809 0.0
C48 C 0.92885 0.34686 0.10694 0.0
C49 C 0.05395 0.46308 0.12478 0.0
C50 C 0.98496 0.48908 0.11197 0.0
C51 C 0.09836 0.57616 0.12073 0.0
C52 C 0.12325 0.60771 0.11681 0.0
C53 C 0.14716 0.62642 0.12543 0.0
C54 C 0.17032 0.65681 0.12204 0.0
C55 C 0.17001 0.66921 0.10994 0.0
C56 C 0.14611 0.65014 0.10127 0.0
C57 C 0.12302 0.6197 0.10466 0.0
C58 C 0.04578 0.51471 0.08384 0.0
C59 C 0.09416 0.48485 0.0964 0.0
O60 O 0.98834 0.41373 0.08835 0.0
O61 O 0.99058 0.39965 0.10793 0.0
O62 O 0.05018 0.44142 0.11678 0.0
O63 O 0.03888 0.47666 0.12134 0.0
O64 O 0.98279 0.4641 0.10626 0.0
O65 O 1.01203 0.5124 0.11597 0.0
O66 O 0.10487 0.55347 0.11993 0.0
O67 O 0.06982 0.56774 0.11697 0.0
O68 O 0.0616 0.54179 0.08936 0.0
O69 O 0.03833 0.49384 0.09213 0.0
O70 O 0.09685 0.50787 0.10384 0.0
O71 O 0.06661 0.46087 0.09289 0.0
H72 H 0.9297 0.39145 0.08188 0.0
H73 H 0.87273 0.35649 0.08381 0.0
H74 H 0.88769 0.30912 0.11538 0.0
H75 H 0.94413 0.34357 0.11342 0.0
H76 H 0.14785 0.61756 0.13483 0.0
H77 H 0.18863 0.6705 0.12889 0.0
H78 H 0.14485 0.65891 0.09193 0.0
H79 H 0.10479 0.60568 0.09783 0.0
Nd80 Nd 0.62006 0.58935 0.09916 0.0
Nd81 Nd 0.54786 0.56024 0.1084 0.0
C82 C 0.67328 0.59875 0.08878 0.0
C83 C 0.6943 0.58559 0.09055 0.0
C84 C 0.71482 0.588 0.08074 0.0
C85 C 0.73623 0.57742 0.08261 0.0
C86 C 0.73775 0.56432 0.09439 0.0
C87 C 0.71654 0.56133 0.1041 0.0
C88 C 0.69502 0.57174 0.10218 0.0
C89 C 0.61254 0.60587 0.12329 0.0
C90 C 0.57935 0.51543 0.10951 0.0
C91 C 0.49464 0.54414 0.12048 0.0
C92 C 0.46331 0.53896 0.11705 0.0
C93 C 0.43739 0.51977 0.12476 0.0
C94 C 0.40732 0.51379 0.12144 0.0
C95 C 0.40255 0.52694 0.11031 0.0
C96 C 0.42869 0.54621 0.1026 0.0
C97 C 0.45875 0.55207 0.10591 0.0
C98 C 0.55243 0.55741 0.08193 0.0
C99 C 0.58871 0.6334 0.09861 0.0
O100 O 0.64575 0.58041 0.08365 0.0
O101 O 0.67192 0.61513 0.09835 0.0
O102 O 0.63621 0.62289 0.11589 0.0
O103 O 0.59489 0.57884 0.11847 0.0
O104 O 0.60522 0.53813 0.1042 0.0
O105 O 0.55568 0.51925 0.11305 0.0
O106 O 0.51809 0.57304 0.11993 0.0
O107 O 0.50176 0.52374 0.11589 0.0
O108 O 0.52582 0.54643 0.08784 0.0
O109 O 0.57359 0.56821 0.09016 0.0
O110 O 0.56715 0.61291 0.1065 0.0
O111 O 0.60867 0.62736 0.09233 0.0
H112 H 0.71457 0.59845 0.07166 0.0
H113 H 0.75162 0.57959 0.07479 0.0
H114 H 0.71707 0.55175 0.11334 0.0
H115 H 0.67935 0.56954 0.1099 0.0
H116 H 0.4404 0.50933 0.13337 0.0
H117 H 0.38785 0.49918 0.12768 0.0
H118 H 0.42586 0.55642 0.09389 0.0
H119 H 0.47841 0.56667 0.09973 0.0
Nd120 Nd 0.05582 0.46628 0.92869 0.0
Nd121 Nd 1.01714 0.4991 0.92014 0.0
C122 C 0.09784 0.45112 0.93645 0.0
C123 C 0.13204 0.46274 0.93505 0.0
C124 C 0.15472 0.48729 0.94258 0.0
C125 C 0.18676 0.49719 0.94114 0.0
C126 C 0.19686 0.48273 0.93216 0.0
C127 C 0.17405 0.45838 0.9246 0.0
C128 C 0.1422 0.44842 0.92608 0.0
C129 C 0.02583 0.44727 0.90562 0.0
C130 C 0.09303 0.54054 0.91859 0.0
C131 C 0.98077 0.51631 0.9083 0.0
C132 C 0.95529 0.52268 0.91171 0.0
C133 C 0.92804 0.50993 0.90422 0.0
C134 C 0.9041 0.5165 0.907 0.0
C135 C 0.90694 0.53621 0.91729 0.0
C136 C 0.93409 0.54852 0.92493 0.0
C137 C 0.95797 0.54178 0.92219 0.0
C138 C 0.02757 0.50536 0.94638 0.0
C139 C 0.9809 0.42843 0.93299 0.0
O140 O 0.08859 0.46687 0.94361 0.0
O141 O 0.08111 0.44026 0.92605 0.0
O142 O 0.02866 0.42915 0.91381 0.0
O143 O 0.04019 0.47573 0.90933 0.0
O144 O 0.09447 0.51738 0.92437 0.0
O145 O 0.06631 0.53764 0.91455 0.0
O146 O 0.97423 0.48708 0.90888 0.0
O147 O 1.00894 0.53619 0.91251 0.0
O148 O 1.01295 0.51718 0.94031 0.0
O149 O 0.03613 0.49222 0.9384 0.0
O150 O 0.97986 0.44859 0.92492 0.0
O151 O 1.0077 0.43214 0.93764 0.0
H152 H 0.14775 0.49872 0.94964 0.0
H153 H 0.20355 0.51577 0.94725 0.0
H154 H 0.18077 0.44702 0.91741 0.0
H155 H 0.12542 0.42934 0.92016 0.0
H156 H 0.92534 0.49498 0.89616 0.0
H157 H 0.88329 0.50604 0.90106 0.0
H158 H 0.93727 0.56396 0.93286 0.0
H159 H 0.97868 0.55182 0.92819 0.0
Nd160 Nd 0.59532 0.60969 0.92791 0.0
Nd161 Nd 0.57227 0.53912 0.91822 0.0
C162 C 0.60041 0.66016 0.93924 0.0
C163 C 0.58954 0.68282 0.93666 0.0
C164 C 0.57786 0.69302 0.94669 0.0
C165 C 0.56796 0.71481 0.94445 0.0
C166 C 0.56971 0.72706 0.93212 0.0
C167 C 0.5812 0.71658 0.92207 0.0
C168 C 0.59086 0.69462 0.9243 0.0
C169 C 0.61339 0.60606 0.9035 0.0
C170 C 0.52183 0.56439 0.91784 0.0
C171 C 0.56009 0.48715 0.90595 0.0
C172 C 0.55101 0.45461 0.90946 0.0
C173 C 0.55778 0.43647 0.90113 0.0
C174 C 0.54932 0.4056 0.90431 0.0
C175 C 0.53387 0.39214 0.91591 0.0
C176 C 0.52722 0.41055 0.92425 0.0
C177 C 0.53572 0.44143 0.92107 0.0
C178 C 0.56882 0.54199 0.94475 0.0
C179 C 0.64418 0.58459 0.92772 0.0
O180 O 0.57892 0.63162 0.94235 0.0
O181 O 0.62164 0.66082 0.9315 0.0
O182 O 0.62777 0.63027 0.91092 0.0
O183 O 0.58721 0.58581 0.90836 0.0
O184 O 0.54373 0.59179 0.92237 0.0
O185 O 0.52746 0.54153 0.91489 0.0
O186 O 0.58851 0.50894 0.90909 0.0
O187 O 0.53911 0.49563 0.90797 0.0
O188 O 0.56004 0.51606 0.93863 0.0
O189 O 0.57792 0.56341 0.93669 0.0
O190 O 0.6258 0.56431 0.91898 0.0
O191 O 0.63496 0.60087 0.93485 0.0
H192 H 0.57657 0.68426 0.9563 0.0
H193 H 0.55951 0.72252 0.95244 0.0
H194 H 0.58245 0.72513 0.91243 0.0
H195 H 0.59944 0.68696 0.91634 0.0
H196 H 0.56971 0.44622 0.89216 0.0
H197 H 0.55533 0.39244 0.89773 0.0
H198 H 0.51506 0.40098 0.93319 0.0
H199 H 0.53025 0.45498 0.92766 0.0
Nd200 Nd 0.45496 1.00872 0.92761 0.0
Nd201 Nd 0.52688 0.04992 0.919 0.0
C202 C 0.39923 0.96446 0.93581 0.0
C203 C 0.3804 0.92976 0.93552 0.0
C204 C 0.35829 0.91357 0.94515 0.0
C205 C 0.33786 0.88112 0.94422 0.0
C206 C 0.33883 0.86408 0.93355 0.0
C207 C 0.36186 0.88037 0.92413 0.0
C208 C 0.38244 0.91273 0.92514 0.0
C209 C 0.46493 0.03809 0.90454 0.0
C210 C 0.49483 0.97427 0.91746 0.0
C211 C 0.58036 0.08759 0.90726 0.0
C212 C 0.61188 0.11337 0.91087 0.0
C213 C 0.62659 0.14053 0.90335 0.0
C214 C 0.65657 0.16501 0.90651 0.0
C215 C 0.67258 0.16278 0.91725 0.0
C216 C 0.65775 0.13554 0.9248 0.0
C217 C 0.62766 0.11116 0.92169 0.0
C218 C 0.52255 0.03894 0.94518 0.0
C219 C 0.48933 0.08391 0.93137 0.0
O220 O 0.42404 0.97756 0.94322 0.0
O221 O 0.40402 0.97841 0.92473 0.0
O222 O 0.44312 0.03407 0.91255 0.0
O223 O 0.48028 0.02512 0.90837 0.0
O224 O 0.4698 0.97191 0.92325 0.0
O225 O 0.51813 1.00136 0.91344 0.0
O226 O 0.55712 0.09338 0.90794 0.0
O227 O 0.57267 0.05946 0.91128 0.0
O228 O 0.54908 0.05453 0.93921 0.0
O229 O 0.50096 0.02995 0.93713 0.0
O230 O 0.51154 0.08581 0.92362 0.0
O231 O 0.46657 0.05679 0.93595 0.0
H232 H 0.35632 0.92614 0.95326 0.0
H233 H 0.32106 0.86949 0.95183 0.0
H234 H 0.36333 0.86841 0.91571 0.0
H235 H 0.39933 0.92462 0.91756 0.0
H236 H 0.61493 0.14275 0.89496 0.0
H237 H 0.66742 0.18551 0.90042 0.0
H238 H 0.66924 0.13323 0.93322 0.0
H239 H 0.61679 0.09059 0.92774 0.0
Nd240 Nd 0.14507 0.38722 0.43236 0.0
Nd241 Nd 0.16873 0.34056 0.44247 0.0
C242 C 0.1385 0.43147 0.42077 0.0
C243 C 0.14687 0.46437 0.4233 0.0
C244 C 0.16013 0.48673 0.41352 0.0
C245 C 0.16787 0.51786 0.41565 0.0
C246 C 0.16243 0.52742 0.42762 0.0
C247 C 0.14933 0.50493 0.43744 0.0
C248 C 0.14172 0.47381 0.43532 0.0
C249 C 0.12727 0.36625 0.4569 0.0
C250 C 0.21874 0.41642 0.44227 0.0
C251 C 0.18155 0.30212 0.45541 0.0
C252 C 0.19094 0.2785 0.45263 0.0
C253 C 0.17975 0.25183 0.46038 0.0
C254 C 0.18901 0.22959 0.45815 0.0
C255 C 0.20983 0.23355 0.44812 0.0
C256 C 0.22064 0.26018 0.44024 0.0
C257 C 0.21124 0.28236 0.44246 0.0
C258 C 0.17207 0.34568 0.41588 0.0
C259 C 0.09709 0.31323 0.43257 0.0
O260 O 0.1617 0.4264 0.41837 0.0
O261 O 0.11687 0.40979 0.42803 0.0
O262 O 0.11259 0.37559 0.44941 0.0
O263 O 0.15345 0.37234 0.45201 0.0
O264 O 0.19664 0.42137 0.43755 0.0
O265 O 0.21342 0.38822 0.44555 0.0
O266 O 0.15299 0.29494 0.45221 0.0
O267 O 0.20231 0.33142 0.45303 0.0
O268 O 0.18037 0.32836 0.42219 0.0
O269 O 0.16316 0.35854 0.42381 0.0
O270 O 0.11516 0.31174 0.44158 0.0
O271 O 0.10653 0.3385 0.4253 0.0
H272 H 0.16451 0.48009 0.4042 0.0
H273 H 0.17843 0.53451 0.40791 0.0
H274 H 0.14443 0.51119 0.44673 0.0
H275 H 0.13164 0.45712 0.44308 0.0
H276 H 0.16391 0.24825 0.46823 0.0
H277 H 0.17967 0.20916 0.46427 0.0
H278 H 0.23689 0.26427 0.43251 0.0
H279 H 0.22011 0.30268 0.43629 0.0
Nd280 Nd 0.68696 0.78372 0.43331 0.0
Nd281 Nd 0.73013 0.85548 0.44149 0.0
C282 C 0.64227 0.72813 0.42522 0.0
C283 C 0.60764 0.70838 0.42609 0.0
C284 C 0.59056 0.68898 0.41585 0.0
C285 C 0.55834 0.66762 0.41708 0.0
C286 C 0.54246 0.66492 0.42866 0.0
C287 C 0.55959 0.68524 0.43877 0.0
C288 C 0.59169 0.70677 0.43748 0.0
C289 C 0.71729 0.79353 0.45621 0.0
C290 C 0.6543 0.82525 0.44338 0.0
C291 C 0.76854 0.9088 0.45314 0.0
C292 C 0.79322 0.94065 0.44943 0.0
C293 C 0.81885 0.9578 0.45756 0.0
C294 C 0.84166 0.98858 0.45451 0.0
C295 C 0.83927 1.00295 0.44325 0.0
C296 C 0.81383 0.98536 0.43498 0.0
C297 C 0.79109 0.95453 0.43802 0.0
C298 C 0.71838 0.85076 0.41537 0.0
C299 C 0.76198 0.81618 0.42909 0.0
O300 O 0.65399 0.75326 0.41802 0.0
O301 O 0.65764 0.73266 0.43593 0.0
O302 O 0.71184 0.77112 0.44831 0.0
O303 O 0.70487 0.80943 0.45242 0.0
O304 O 0.65083 0.79936 0.43801 0.0
O305 O 0.68199 0.84845 0.44692 0.0
O306 O 0.77495 0.88617 0.45169 0.0
O307 O 0.73979 0.90065 0.44981 0.0
O308 O 0.73476 0.87733 0.4212 0.0
O309 O 0.70906 0.82936 0.42351 0.0
O310 O 0.76499 0.83879 0.43684 0.0
O311 O 0.73437 0.79405 0.42464 0.0
H312 H 0.6023 0.68983 0.40696 0.0
H313 H 0.54599 0.65301 0.40896 0.0
H314 H 0.54854 0.68383 0.44789 0.0
H315 H 0.60423 0.72151 0.44555 0.0
H316 H 0.82106 0.94748 0.46637 0.0
H317 H 0.86121 1.0011 0.46099 0.0
H318 H 0.81098 0.99565 0.4263 0.0
H319 H 0.77158 0.94172 0.43155 0.0
Nd320 Nd 0.28796 0.92571 0.43461 0.0
Nd321 Nd 0.22265 0.90431 0.44347 0.0
C322 C 0.33908 0.93186 0.42326 0.0
C323 C 0.36231 0.92156 0.42571 0.0
C324 C 0.37216 0.90964 0.41565 0.0
C325 C 0.39445 0.90027 0.41773 0.0
C326 C 0.40759 0.90277 0.42994 0.0
C327 C 0.39745 0.91451 0.44003 0.0
C328 C 0.37501 0.92367 0.43796 0.0
C329 C 0.28708 0.9377 0.46007 0.0
C330 C 0.24167 0.85121 0.44276 0.0
C331 C 0.16852 0.89632 0.45248 0.0
C332 C 0.13543 0.88367 0.44846 0.0
C333 C 0.11099 0.86481 0.4569 0.0
C334 C 0.07967 0.85473 0.45372 0.0
C335 C 0.07211 0.86354 0.44203 0.0
C336 C 0.09661 0.88182 0.43346 0.0
C337 C 0.12788 0.89168 0.43661 0.0
C338 C 0.22813 0.89811 0.4174 0.0
C339 C 0.2688 0.97765 0.43805 0.0
O340 O 0.31065 0.91012 0.42017 0.0
O341 O 0.33924 0.95269 0.43106 0.0
O342 O 0.31032 0.95401 0.45245 0.0
O343 O 0.26581 0.91301 0.45469 0.0
O344 O 0.26644 0.87209 0.43633 0.0
O345 O 0.22238 0.85893 0.44825 0.0
O346 O 0.18966 0.9218 0.44682 0.0
O347 O 0.17824 0.87642 0.45453 0.0
O348 O 0.20518 0.87771 0.42429 0.0
O349 O 0.2463 0.92124 0.4241 0.0
O350 O 0.24942 0.95751 0.44653 0.0
O351 O 0.28307 0.96879 0.4297 0.0
H352 H 0.36274 0.90776 0.40612 0.0
H353 H 0.40185 0.89164 0.4097 0.0
H354 H 0.40665 0.91635 0.44959 0.0
H355 H 0.36767 0.93247 0.44596 0.0
H356 H 0.11619 0.85842 0.46611 0.0
H357 H 0.06146 0.84089 0.46059 0.0
H358 H 0.09163 0.88865 0.42431 0.0
H359 H 0.14616 0.90604 0.42985 0.0
Nd360 Nd 0.7233 0.79753 0.26104 0.0
Nd361 Nd 0.68208 0.82798 0.25179 0.0
C362 C 0.76694 0.78643 0.27028 0.0
C363 C 0.80125 0.79947 0.26857 0.0
C364 C 0.82114 0.80837 0.27925 0.0
C365 C 0.85331 0.81917 0.27779 0.0
C366 C 0.86637 0.82113 0.26558 0.0
C367 C 0.84638 0.81261 0.25489 0.0
C368 C 0.81434 0.80207 0.25635 0.0
C369 C 0.69417 0.77709 0.23794 0.0
C370 C 0.7583 0.87077 0.2498 0.0
C371 C 0.64532 0.84388 0.23937 0.0
C372 C 0.61938 0.84939 0.24271 0.0
C373 C 0.61068 0.86567 0.2342 0.0
C374 C 0.58703 0.87233 0.23748 0.0
C375 C 0.57161 0.86282 0.24936 0.0
C376 C 0.58041 0.84637 0.25785 0.0
C377 C 0.60412 0.83979 0.25456 0.0
C378 C 0.69272 0.83513 0.27801 0.0
C379 C 0.64799 0.75777 0.26501 0.0
O380 O 0.75767 0.80371 0.27631 0.0
O381 O 0.74914 0.77162 0.26049 0.0
O382 O 0.69923 0.76009 0.24598 0.0
O383 O 0.70685 0.8055 0.24164 0.0
O384 O 0.76077 0.84793 0.25534 0.0
O385 O 0.73102 0.86753 0.24635 0.0
O386 O 0.6396 0.81492 0.24016 0.0
O387 O 0.67285 0.86431 0.24394 0.0
O388 O 0.67713 0.84593 0.27195 0.0
O389 O 0.70166 0.82241 0.27002 0.0
O390 O 0.64603 0.77716 0.25678 0.0
O391 O 0.67514 0.76271 0.26982 0.0
H392 H 0.81172 0.8067 0.28877 0.0
H393 H 0.86792 0.82601 0.28625 0.0
H394 H 0.85527 0.8133 0.24535 0.0
H395 H 0.79974 0.79547 0.24788 0.0
H396 H 0.6223 0.87338 0.22503 0.0
H397 H 0.5806 0.88464 0.23064 0.0
H398 H 0.56932 0.83902 0.26712 0.0
H399 H 0.61077 0.82747 0.26132 0.0
Nd400 Nd 0.26468 0.94151 0.26024 0.0
Nd401 Nd 0.23478 0.86841 0.25431 0.0
C402 C 0.28618 0.99941 0.26865 0.0
C403 C 0.27843 0.02449 0.26635 0.0
C404 C 0.27707 0.04196 0.27668 0.0
C405 C 0.2688 0.06507 0.27476 0.0
C406 C 0.26175 0.07138 0.26244 0.0
C407 C 0.26326 0.05382 0.2521 0.0
C408 C 0.27137 0.03059 0.25404 0.0
C409 C 0.26507 0.92606 0.23475 0.0
C410 C 0.19091 0.90052 0.25281 0.0
C411 C 0.21661 0.81337 0.24348 0.0
C412 C 0.20984 0.78149 0.24701 0.0
C413 C 0.22163 0.76641 0.23934 0.0
C414 C 0.21452 0.73577 0.24206 0.0
C415 C 0.19525 0.71932 0.25252 0.0
C416 C 0.18401 0.73478 0.2604 0.0
C417 C 0.19124 0.76555 0.25768 0.0
C418 C 0.22789 0.87704 0.27999 0.0
C419 C 0.3071 0.90709 0.26495 0.0
O420 O 0.26502 0.97463 0.27477 0.0
O421 O 0.29908 0.99239 0.2592 0.0
O422 O 0.25921 0.94767 0.23867 0.0
O423 O 0.26956 0.91326 0.24431 0.0
O424 O 0.212 0.92414 0.2597 0.0
O425 O 0.19742 0.88025 0.24729 0.0
O426 O 0.24596 0.83577 0.24396 0.0
O427 O 0.19706 0.82226 0.24751 0.0
O428 O 0.21779 0.84968 0.27486 0.0
O429 O 0.24028 0.89753 0.27144 0.0
O430 O 0.2839 0.88042 0.26049 0.0
O431 O 0.30526 0.93299 0.26623 0.0
H432 H 0.28212 0.0375 0.28628 0.0
H433 H 0.2674 0.07759 0.28301 0.0
H434 H 0.25845 0.05817 0.24245 0.0
H435 H 0.272 0.01734 0.24589 0.0
H436 H 0.23618 0.77827 0.23112 0.0
H437 H 0.22418 0.72496 0.23594 0.0
H438 H 0.16898 0.72284 0.26848 0.0
H439 H 0.18194 0.77669 0.26382 0.0
Nd440 Nd 0.12441 0.33498 0.26154 0.0
Nd441 Nd 0.19443 0.38514 0.25206 0.0
C442 C 0.07455 0.28847 0.27279 0.0
C443 C 0.05144 0.25529 0.26991 0.0
C444 C 0.04167 0.23274 0.27964 0.0
C445 C 1.01972 0.20127 0.27713 0.0
C446 C 1.00689 0.19163 0.26482 0.0
C447 C 1.01687 0.2143 0.25506 0.0
C448 C 0.03898 0.24574 0.25756 0.0
C449 C 0.12733 0.35623 0.23708 0.0
C450 C 0.17275 0.31024 0.25169 0.0
C451 C 0.24589 0.42601 0.23979 0.0
C452 C 0.27835 0.4494 0.24339 0.0
C453 C 0.29672 0.47436 0.23514 0.0
C454 C 0.32754 0.49672 0.23846 0.0
C455 C 0.34064 0.49458 0.25013 0.0
C456 C 0.32201 0.46946 0.25838 0.0
C457 C 0.29119 0.44714 0.25506 0.0
C458 C 0.19143 0.37893 0.27863 0.0
C459 C 0.14651 0.40831 0.26142 0.0
O460 O 0.10329 0.29499 0.2752 0.0
O461 O 0.07343 0.30984 0.26575 0.0
O462 O 0.10266 0.34478 0.24433 0.0
O463 O 0.14841 0.35185 0.2421 0.0
O464 O 0.14482 0.30335 0.25615 0.0
O465 O 0.19476 0.33919 0.24885 0.0
O466 O 0.22391 0.43207 0.24329 0.0
O467 O 0.23779 0.39656 0.24142 0.0
O468 O 0.21705 0.3976 0.27256 0.0
O469 O 0.1703 0.36538 0.2705 0.0
O470 O 0.16684 0.41106 0.25253 0.0
O471 O 0.13139 0.38272 0.2686 0.0
H472 H 0.05096 0.23951 0.28923 0.0
H473 H 1.01239 0.18457 0.28491 0.0
H474 H 1.00784 0.20769 0.24544 0.0
H475 H 0.04632 0.26255 0.24982 0.0
H476 H 0.2872 0.47662 0.22612 0.0
H477 H 0.34093 0.51596 0.23194 0.0
H478 H 0.33134 0.46679 0.26737 0.0
H479 H 0.27744 0.42804 0.26158 0.0
Nd480 Nd 0.81488 0.71993 0.76807 0.0
Nd481 Nd 0.84422 0.67749 0.77637 0.0
C482 C 0.80308 0.76427 0.76043 0.0
C483 C 0.81831 0.79891 0.76078 0.0
C484 C 0.81464 0.81507 0.75051 0.0
C485 C 0.82569 0.84734 0.75136 0.0
C486 C 0.84041 0.86419 0.76258 0.0
C487 C 0.84496 0.84798 0.77269 0.0
C488 C 0.83423 0.81584 0.77177 0.0
C489 C 0.79289 0.68779 0.79053 0.0
C490 C 0.88879 0.753 0.77854 0.0
C491 C 0.85954 0.63974 0.78829 0.0
C492 C 0.86652 0.61482 0.78493 0.0
C493 C 0.88531 0.60873 0.79313 0.0
C494 C 0.89336 0.58609 0.78996 0.0
C495 C 0.88269 0.56892 0.7785 0.0
C496 C 0.86385 0.5752 0.77026 0.0
C497 C 0.85588 0.59799 0.77344 0.0
C498 C 0.8528 0.69059 0.75036 0.0
C499 C 0.77412 0.64527 0.76291 0.0
O500 O 0.81476 0.75158 0.75277 0.0
O501 O 0.7944 0.75009 0.77149 0.0
O502 O 0.77602 0.6927 0.78238 0.0
O503 O 0.82162 0.70125 0.78716 0.0
O504 O 0.8668 0.75619 0.77259 0.0
O505 O 0.88397 0.72554 0.78252 0.0
O506 O 0.83046 0.63344 0.78691 0.0
O507 O 0.88017 0.66797 0.78448 0.0
O508 O 0.86293 0.67413 0.75617 0.0
O509 O 0.83999 0.69921 0.75846 0.0
O510 O 0.79337 0.64227 0.7709 0.0
O511 O 0.77936 0.67295 0.7587 0.0
H512 H 0.80252 0.80258 0.74193 0.0
H513 H 0.82233 0.85897 0.74324 0.0
H514 H 0.85579 0.85979 0.78155 0.0
H515 H 0.83749 0.80403 0.77985 0.0
H516 H 0.89407 0.62175 0.80196 0.0
H517 H 0.90839 0.5824 0.79642 0.0
H518 H 0.85498 0.56228 0.76142 0.0
H519 H 0.84153 0.60257 0.76692 0.0
Nd520 Nd 0.35203 0.11931 0.76865 0.0
Nd521 Nd 0.39627 0.19281 0.77432 0.0
C522 C 0.31423 0.06153 0.76039 0.0
C523 C 0.28081 0.03768 0.76254 0.0
C524 C 0.26304 0.01755 0.75258 0.0
C525 C 0.2312 0.99543 0.75436 0.0
C526 C 0.21629 0.99283 0.76619 0.0
C527 C 0.2343 1.01317 0.77615 0.0
C528 C 0.2661 0.03538 0.77434 0.0
C529 C 0.36777 0.13558 0.79409 0.0
C530 C 0.32039 0.16147 0.77589 0.0
C531 C 0.43355 0.24808 0.78495 0.0
C532 C 0.45769 0.28 0.78107 0.0
C533 C 0.48174 0.29872 0.78964 0.0
C534 C 0.50467 0.3292 0.78628 0.0
C535 C 0.50406 0.34172 0.77425 0.0
C536 C 0.47998 0.32269 0.76562 0.0
C537 C 0.45706 0.29213 0.769 0.0
C538 C 0.38063 0.18316 0.74866 0.0
C539 C 0.42901 0.15251 0.76443 0.0
O540 O 0.31944 0.08652 0.75399 0.0
O541 O 0.33341 0.06808 0.77007 0.0
O542 O 0.34027 0.11388 0.79022 0.0
O543 O 0.38519 0.14794 0.78452 0.0
O544 O 0.31749 0.13762 0.76907 0.0
O545 O 0.34729 0.18164 0.78136 0.0
O546 O 0.441 0.22613 0.78394 0.0
O547 O 0.40461 0.23866 0.78147 0.0
O548 O 0.39804 0.21077 0.75357 0.0
O549 O 0.37242 0.16318 0.75739 0.0
O550 O 0.43273 0.17936 0.7688 0.0
O551 O 0.40107 0.12684 0.763 0.0
H552 H 0.27375 0.01909 0.74335 0.0
H553 H 0.21817 0.98069 0.74637 0.0
H554 H 0.22395 1.01175 0.78544 0.0
H555 H 0.27918 0.05079 0.78217 0.0
H556 H 0.48278 0.28975 0.79897 0.0
H557 H 0.52312 0.34283 0.79308 0.0
H558 H 0.47854 0.33155 0.75633 0.0
H559 H 0.43875 0.27805 0.7622 0.0
Nd560 Nd 0.95587 0.26051 0.76474 0.0
Nd561 Nd 0.88561 0.23532 0.77526 0.0
C562 C 1.00672 0.26786 0.75287 0.0
C563 C 0.03086 0.25899 0.75543 0.0
C564 C 0.04245 0.24888 0.74536 0.0
C565 C 0.06525 0.24033 0.74761 0.0
C566 C 0.07709 0.2418 0.76002 0.0
C567 C 0.06521 0.25181 0.77011 0.0
C568 C 0.04229 0.26017 0.76785 0.0
C569 C 0.95297 0.27763 0.7894 0.0
C570 C 0.91331 0.1869 0.77487 0.0
C571 C 0.83397 0.22102 0.78823 0.0
C572 C 0.80127 0.21301 0.78525 0.0
C573 C 0.79031 0.23309 0.78919 0.0
C574 C 0.7596 0.22599 0.78643 0.0
C575 C 0.73899 0.1985 0.77973 0.0
C576 C 0.74988 0.17825 0.77589 0.0
C577 C 0.78066 0.18544 0.77858 0.0
C578 C 0.88673 0.23292 0.74862 0.0
C579 C 0.92843 0.30743 0.76558 0.0
O580 O 0.97846 0.24494 0.75029 0.0
O581 O 1.00661 0.28906 0.76038 0.0
O582 O 0.97664 0.29285 0.78178 0.0
O583 O 0.93313 0.25137 0.78454 0.0
O584 O 0.93981 0.20922 0.76983 0.0
O585 O 0.89023 0.19168 0.77843 0.0
O586 O 0.85613 0.24996 0.78607 0.0
O587 O 0.84229 0.20044 0.78511 0.0
O588 O 0.86121 0.22404 0.75512 0.0
O589 O 0.90879 0.24183 0.7564 0.0
O590 O 0.90883 0.28862 0.77441 0.0
O591 O 0.94493 0.29891 0.7582 0.0
H592 H 0.03379 0.24751 0.73572 0.0
H593 H 0.0733 0.23222 0.73963 0.0
H594 H 0.07393 0.25364 0.77975 0.0
H595 H 0.0336 0.26769 0.77583 0.0
H596 H 0.80554 0.25434 0.79443 0.0
H597 H 0.75187 0.2419 0.78969 0.0
H598 H 0.73475 0.15705 0.77061 0.0
H599 H 0.78828 0.16941 0.77538 0.0
Nd600 Nd 0.39226 0.14207 0.5926 0.0
Nd601 Nd 0.34915 0.17178 0.58585 0.0
C602 C 0.4288 0.12103 0.60135 0.0
C603 C 0.46185 0.12932 0.59906 0.0
C604 C 0.48007 0.12844 0.60919 0.0
C605 C 0.51168 0.13731 0.6073 0.0
C606 C 0.5259 0.14728 0.5952 0.0
C607 C 0.50742 0.14803 0.58505 0.0
C608 C 0.47585 0.13928 0.58698 0.0
C609 C 0.37989 0.14375 0.56681 0.0
C610 C 0.42508 0.21597 0.5858 0.0
C611 C 0.3135 0.19105 0.57463 0.0
C612 C 0.28849 0.19761 0.57847 0.0
C613 C 0.28103 0.21591 0.57056 0.0
C614 C 0.25726 0.22224 0.57404 0.0
C615 C 0.24041 0.21034 0.58551 0.0
C616 C 0.2482 0.19216 0.59346 0.0
C617 C 0.27206 0.18592 0.58999 0.0
C618 C 0.36095 0.17612 0.61188 0.0
C619 C 0.31494 0.09865 0.5955 0.0
O620 O 0.42473 0.14205 0.60736 0.0
O621 O 0.40904 0.10785 0.59188 0.0
O622 O 0.40684 0.14949 0.57136 0.0
O623 O 0.3612 0.13828 0.57595 0.0
O624 O 0.42686 0.1948 0.59291 0.0
O625 O 0.39898 0.20948 0.57967 0.0
O626 O 0.30649 0.1617 0.57495 0.0
O627 O 0.34161 0.2102 0.57905 0.0
O628 O 0.34419 0.18649 0.60649 0.0
O629 O 0.37053 0.16495 0.6034 0.0
O630 O 0.31182 0.12159 0.59049 0.0
O631 O 0.3427 0.1012 0.59791 0.0
H632 H 0.46991 0.12117 0.61863 0.0
H633 H 0.5251 0.13689 0.61541 0.0
H634 H 0.51723 0.15512 0.57556 0.0
H635 H 0.46243 0.14044 0.579 0.0
H636 H 0.29347 0.22516 0.56164 0.0
H637 H 0.25166 0.23596 0.56761 0.0
H638 H 0.23601 0.18294 0.60242 0.0
H639 H 0.27764 0.17193 0.59628 0.0
Nd640 Nd 0.92749 0.27693 0.59254 0.0
Nd641 Nd 0.89986 0.20499 0.58539 0.0
C642 C 0.93833 0.33356 0.59885 0.0
C643 C 0.922 0.35198 0.59886 0.0
C644 C 0.92715 0.37298 0.60886 0.0
C645 C 0.91528 0.39357 0.60818 0.0
C646 C 0.89824 0.39387 0.59739 0.0
C647 C 0.89211 0.37184 0.58762 0.0
C648 C 0.90367 0.35106 0.58838 0.0
C649 C 0.94989 0.26552 0.57042 0.0
C650 C 0.8532 0.23349 0.58293 0.0
C651 C 0.88577 0.1512 0.57438 0.0
C652 C 0.87983 0.12012 0.57857 0.0
C653 C 0.88452 0.10092 0.57003 0.0
C654 C 0.87783 0.0709 0.57373 0.0
C655 C 0.86621 0.05943 0.58606 0.0
C656 C 0.86194 0.07902 0.59464 0.0
C657 C 0.86875 0.10906 0.59094 0.0
C658 C 0.89166 0.21111 0.61133 0.0
C659 C 0.9701 0.2454 0.59851 0.0
O660 O 0.92982 0.31099 0.60726 0.0
O661 O 0.94437 0.32623 0.58759 0.0
O662 O 0.96654 0.28786 0.57839 0.0
O663 O 0.92121 0.25013 0.57382 0.0
O664 O 0.87498 0.25937 0.58854 0.0
O665 O 0.85868 0.21107 0.57922 0.0
O666 O 0.91462 0.17454 0.57544 0.0
O667 O 0.86475 0.15871 0.57779 0.0
O668 O 0.88284 0.1844 0.60583 0.0
O669 O 0.90349 0.23208 0.60298 0.0
O670 O 0.95095 0.22201 0.59096 0.0
O671 O 0.96455 0.26805 0.60214 0.0
H672 H 0.94113 0.3741 0.61706 0.0
H673 H 0.91991 0.40956 0.61605 0.0
H674 H 0.87944 0.37138 0.57909 0.0
H675 H 0.89921 0.33504 0.58052 0.0
H676 H 0.89319 0.10908 0.56046 0.0
H677 H 0.88196 0.05676 0.56694 0.0
H678 H 0.85274 0.07093 0.60415 0.0
H679 H 0.86495 0.12349 0.5977 0.0
Nd680 Nd 0.79078 0.6804 0.59631 0.0
Nd681 Nd 0.86199 0.72053 0.58659 0.0
C682 C 0.73598 0.63738 0.60572 0.0
C683 C 0.71456 0.60336 0.6038 0.0
C684 C 0.69892 0.58395 0.61426 0.0
C685 C 0.67727 0.55206 0.61243 0.0
C686 C 0.67061 0.53901 0.60007 0.0
C687 C 0.68677 0.5584 0.58963 0.0
C688 C 0.70863 0.59015 0.59148 0.0
C689 C 0.79896 0.70965 0.57326 0.0
C690 C 0.82762 0.64448 0.58454 0.0
C691 C 0.9144 0.75727 0.574 0.0
C692 C 0.94658 0.78214 0.57724 0.0
C693 C 0.96327 0.80713 0.56877 0.0
C694 C 0.99404 0.83051 0.57158 0.0
C695 C 1.00884 0.82933 0.58293 0.0
C696 C 0.99184 0.80429 0.59144 0.0
C697 C 0.96104 0.78102 0.58865 0.0
C698 C 0.85974 0.70985 0.61278 0.0
C699 C 0.8271 0.75516 0.60048 0.0
O700 O 0.76264 0.64601 0.61156 0.0
O701 O 0.73898 0.65547 0.59605 0.0
O702 O 0.77759 0.70534 0.58155 0.0
O703 O 0.81439 0.69647 0.57672 0.0
O704 O 0.80285 0.64248 0.59043 0.0
O705 O 0.85166 0.67149 0.58087 0.0
O706 O 0.89197 0.76401 0.5755 0.0
O707 O 0.90633 0.72887 0.57776 0.0
O708 O 0.88583 0.72499 0.60647 0.0
O709 O 0.83763 0.70113 0.60502 0.0
O710 O 0.8476 0.75677 0.59186 0.0
O711 O 0.80519 0.72821 0.60548 0.0
H712 H 0.7031 0.59357 0.62384 0.0
H713 H 0.66511 0.53779 0.62066 0.0
H714 H 0.68255 0.54899 0.58002 0.0
H715 H 0.72059 0.60444 0.58322 0.0
H716 H 0.95251 0.80854 0.55995 0.0
H717 H 1.0061 0.84967 0.5649 0.0
H718 H 1.00248 0.80232 0.60019 0.0
H719 H 0.94862 0.76201 0.59537 0.0
C720 C 0.56576 0.8719 0.0965 0.0
C721 C 0.5536 0.8733 0.10853 0.0
C722 C 0.57423 0.84912 0.09394 0.0
C723 C 0.59549 0.79603 0.11071 0.0
H724 H 0.57169 0.74773 0.07929 0.0
C725 C 0.57857 0.67365 0.1082 0.0
C726 C 0.59116 0.66471 0.09802 0.0
C727 C 0.57946 0.70228 0.10812 0.0
C728 C 0.57908 0.76147 0.08799 0.0
H729 H 0.53959 0.85073 0.12707 0.0
H730 H 0.55436 0.81142 0.12266 0.0
H731 H 0.56167 0.79152 0.08177 0.0
H732 H 0.61456 0.67922 0.07968 0.0
H733 H 0.61542 0.72982 0.0794 0.0
H734 H 0.61175 0.76542 0.11714 0.0
C735 C 0.55808 0.82834 0.11528 0.0
C736 C 0.57326 0.78648 0.08944 0.0
C737 C 0.54957 0.85094 0.11781 0.0
C738 C 0.60479 0.68547 0.08768 0.0
C739 C 0.60516 0.71428 0.0875 0.0
C740 C 0.60121 0.77116 0.10927 0.0
C741 C 0.57086 0.8273 0.10337 0.0
C742 C 0.58047 0.80339 0.101 0.0
C743 C 0.59262 0.72296 0.0978 0.0
C744 C 0.59218 0.75295 0.09807 0.0
H745 H 0.56945 0.88888 0.08915 0.0
H746 H 0.58408 0.84906 0.08469 0.0
H747 H 0.60215 0.80905 0.1196 0.0
H748 H 0.56796 0.65849 0.11638 0.0
H749 H 0.56923 0.70802 0.11612 0.0
C750 C 0.37927 0.94402 0.09143 0.0
C751 C 0.40782 0.94489 0.09373 0.0
C752 C 0.35111 0.91514 0.09073 0.0
C753 C 0.31968 0.8291 0.08715 0.0
H754 H 0.25037 0.8207 0.10774 0.0
C755 C 0.20699 0.70902 0.09398 0.0
C756 C 0.19444 0.70185 0.10642 0.0
C757 C 0.23041 0.73947 0.09079 0.0
C758 C 0.26953 0.8226 0.10197 0.0
H759 H 0.42952 0.91632 0.09643 0.0
H760 H 0.38105 0.86657 0.09517 0.0
H761 H 0.29631 0.87242 0.10448 0.0
H762 H 0.19626 0.72167 0.12514 0.0
H763 H 0.23765 0.77434 0.11972 0.0
H764 H 0.29378 0.77927 0.08513 0.0
C765 C 0.38003 0.88785 0.09386 0.0
C766 C 0.2957 0.85236 0.09994 0.0
C767 C 0.40789 0.91648 0.09467 0.0
C768 C 0.20565 0.72612 0.11552 0.0
C769 C 0.22911 0.75653 0.11234 0.0
C770 C 0.29359 0.7994 0.08918 0.0
C771 C 0.35116 0.88671 0.09215 0.0
C772 C 0.32144 0.85589 0.09275 0.0
C773 C 0.24201 0.76361 0.09996 0.0
C774 C 0.26841 0.79563 0.09683 0.0
H775 H 0.37848 0.96554 0.09076 0.0
H776 H 0.32928 0.91507 0.08932 0.0
H777 H 0.3389 0.83097 0.08143 0.0
H778 H 0.19918 0.69096 0.08673 0.0
H779 H 0.23949 0.74405 0.08112 0.0
C780 C 0.12696 0.45904 0.09469 0.0
C781 C 0.12377 0.48561 0.09314 0.0
C782 C 0.15688 0.46196 0.09469 0.0
C783 C 0.23947 0.52291 0.10113 0.0
H784 H 0.2593 0.46018 0.08943 0.0
C785 C 0.36615 0.54524 0.10228 0.0
C786 C 0.37053 0.5209 0.10688 0.0
C787 C 0.33604 0.53993 0.09952 0.0
C788 C 0.25405 0.47783 0.09282 0.0
H789 H 0.14884 0.53548 0.08939 0.0
H790 H 0.20053 0.54038 0.08876 0.0
H791 H 0.20667 0.45239 0.08589 0.0
H792 H 0.34654 0.47153 0.11178 0.0
H793 H 0.29396 0.46236 0.10708 0.0
H794 H 0.28659 0.54831 0.10809 0.0
C795 C 0.18034 0.51747 0.09047 0.0
C796 C 0.22386 0.47335 0.09079 0.0
C797 C 0.15066 0.51462 0.09066 0.0
C798 C 0.34402 0.49092 0.1084 0.0
C799 C 0.31388 0.48556 0.10557 0.0
C800 C 0.26954 0.52743 0.10308 0.0
C801 C 0.18406 0.49148 0.09303 0.0
C802 C 0.21619 0.49593 0.09489 0.0
C803 C 0.30947 0.5101 0.10123 0.0
C804 C 0.27731 0.50503 0.09894 0.0
H805 H 0.10663 0.43649 0.09682 0.0
H806 H 0.15876 0.44142 0.09673 0.0
H807 H 0.23434 0.54044 0.10477 0.0
H808 H 0.38595 0.56866 0.10108 0.0
H809 H 0.33356 0.55929 0.09605 0.0
C810 C 0.86642 0.54927 0.9096 0.0
C811 C 0.88194 0.54431 0.91983 0.0
C812 C 0.84239 0.55596 0.91182 0.0
C813 C 0.80775 0.58518 0.93561 0.0
H814 H 0.73414 0.54061 0.91418 0.0
C815 C 0.6903 0.58962 0.9403 0.0
C816 C 0.67627 0.5894 0.92857 0.0
C817 C 0.71748 0.58691 0.94053 0.0
C818 C 0.75462 0.55352 0.92018 0.0
H819 H 0.8845 0.5432 0.94053 0.0
H820 H 0.84258 0.55527 0.94439 0.0
H821 H 0.77701 0.52988 0.91212 0.0
H822 H 0.68084 0.58872 0.908 0.0
H823 H 0.72826 0.58534 0.90837 0.0
H824 H 0.78502 0.60902 0.94357 0.0
C825 C 0.84922 0.55399 0.93463 0.0
C826 C 0.77922 0.54733 0.91899 0.0
C827 C 0.87325 0.54708 0.9324 0.0
C828 C 0.69104 0.58883 0.91718 0.0
C829 C 0.71807 0.58652 0.9174 0.0
C830 C 0.78297 0.59149 0.93678 0.0
C831 C 0.83323 0.55806 0.92435 0.0
C832 C 0.80638 0.56349 0.92648 0.0
C833 C 0.73088 0.58409 0.92904 0.0
C834 C 0.75644 0.5762 0.92885 0.0
H835 H 0.87295 0.54818 0.8998 0.0
H836 H 0.831 0.55962 0.90368 0.0
H837 H 0.82838 0.59799 0.94154 0.0
H838 H 0.67918 0.58976 0.94922 0.0
H839 H 0.72691 0.58523 0.94966 0.0
C840 C 0.51889 0.1419 0.93383 0.0
C841 C 0.48993 0.11379 0.93404 0.0
C842 C 0.52026 0.17087 0.93411 0.0
C843 C 0.47425 0.20806 0.92525 0.0
H844 H 0.5427 0.28019 0.94188 0.0
C845 C 0.51401 0.33559 0.90993 0.0
C846 C 0.525 0.35921 0.91932 0.0
C847 C 0.50654 0.30497 0.91304 0.0
C848 C 0.52316 0.26034 0.93728 0.0
H849 H 0.43959 0.09409 0.9351 0.0
H850 H 0.44189 0.14511 0.93563 0.0
H851 H 0.53478 0.22811 0.94597 0.0
H852 H 0.53646 0.36865 0.93945 0.0
H853 H 0.52288 0.31526 0.9449 0.0
H854 H 0.46271 0.24038 0.91653 0.0
C855 C 0.4636 0.14455 0.93521 0.0
C856 C 0.51879 0.23041 0.93954 0.0
C857 C 0.46226 0.11534 0.93507 0.0
C858 C 0.52783 0.35113 0.93196 0.0
C859 C 0.52036 0.3205 0.93507 0.0
C860 C 0.47863 0.23806 0.92298 0.0
C861 C 0.49267 0.1727 0.93451 0.0
C862 C 0.49467 0.20391 0.93337 0.0
C863 C 0.50982 0.297 0.92564 0.0
C864 C 0.5035 0.26471 0.92879 0.0
H865 H 0.54067 0.14153 0.93302 0.0
H866 H 0.54303 0.19188 0.9334 0.0
H867 H 0.45557 0.18829 0.92025 0.0
H868 H 0.51108 0.34072 0.90013 0.0
H869 H 0.49886 0.2877 0.90547 0.0
C870 C 0.71157 0.22014 0.91978 0.0
C871 C 0.70458 0.18884 0.92054 0.0
C872 C 0.74176 0.24473 0.92249 0.0
C873 C 0.81784 0.26415 0.93784 0.0
H874 H 0.84875 0.33828 0.91666 0.0
C875 C 0.94772 0.37025 0.9369 0.0
C876 C 0.95048 0.39995 0.93577 0.0
C877 C 0.91796 0.34302 0.93656 0.0
C878 C 0.8404 0.31787 0.92275 0.0
H879 H 0.72395 0.15889 0.92488 0.0
H880 H 0.77685 0.20185 0.92943 0.0
H881 H 0.79684 0.29392 0.91275 0.0
H882 H 0.92433 0.42455 0.93453 0.0
H883 H 0.87297 0.37756 0.93413 0.0
H884 H 0.86211 0.28844 0.94768 0.0
C885 C 0.75882 0.2074 0.92694 0.0
C886 C 0.81051 0.29239 0.92053 0.0
C887 C 0.72848 0.18274 0.92429 0.0
C888 C 0.92301 0.40198 0.93527 0.0
C889 C 0.89355 0.37503 0.93495 0.0
C890 C 0.84803 0.28973 0.94001 0.0
C891 C 0.76596 0.23877 0.92594 0.0
C892 C 0.79853 0.26532 0.92815 0.0
C893 C 0.89065 0.34521 0.93507 0.0
C894 C 0.85941 0.31708 0.93261 0.0
H895 H 0.69359 0.22567 0.91717 0.0
H896 H 0.74606 0.26849 0.92193 0.0
H897 H 0.80939 0.24377 0.94395 0.0
H898 H 0.96851 0.36798 0.9372 0.0
H899 H 0.91645 0.32033 0.9367 0.0
C900 C 0.27681 0.02607 0.42654 0.0
C901 C 0.2727 1.00947 0.43797 0.0
C902 C 0.27521 0.05377 0.42654 0.0
C903 C 0.27897 0.11608 0.44778 0.0
H904 H 0.22114 0.11998 0.42372 0.0
C905 C 0.22639 0.19601 0.4565 0.0
C906 C 0.2205 0.21027 0.44604 0.0
C907 C 0.23615 0.17406 0.45464 0.0
C908 C 0.23781 0.11966 0.43039 0.0
H909 H 0.26543 1.00964 0.4584 0.0
H910 H 0.26331 0.05789 0.45844 0.0
H911 H 0.23419 0.07843 0.42179 0.0
H912 H 0.22038 0.21224 0.42532 0.0
H913 H 0.23818 0.17459 0.42207 0.0
H914 H 0.28252 0.15704 0.45646 0.0
C915 C 0.26756 0.04967 0.44947 0.0
C916 C 0.2453 0.09579 0.42926 0.0
C917 C 0.26863 0.02189 0.44943 0.0
C918 C 0.22494 0.20205 0.43363 0.0
C919 C 0.23482 0.18011 0.43176 0.0
C920 C 0.27167 0.14004 0.44886 0.0
C921 C 0.27011 0.06563 0.438 0.0
C922 C 0.26545 0.09331 0.43812 0.0
C923 C 0.24054 0.16575 0.44224 0.0
C924 C 0.25042 0.14179 0.44036 0.0
H925 H 0.27972 0.01688 0.41755 0.0
H926 H 0.27745 0.06565 0.41756 0.0
H927 H 0.29494 0.11512 0.45465 0.0
H928 H 0.22371 0.20198 0.46621 0.0
H929 H 0.2398 0.16324 0.46297 0.0
C930 C 0.05118 0.27364 0.41952 0.0
C931 C 0.06511 0.28591 0.43143 0.0
C932 C 0.02295 0.2448 0.41885 0.0
C933 C 0.95458 0.1888 0.43814 0.0
H934 H 0.95638 0.12357 0.41807 0.0
C935 C 0.87486 0.0587 0.45024 0.0
C936 C 0.86271 0.03636 0.44036 0.0
C937 C 0.89671 0.09002 0.44764 0.0
C938 C 0.95512 0.14155 0.42356 0.0
H939 H 0.05991 0.27859 0.45192 0.0
H940 H 1.01068 0.22937 0.45079 0.0
H941 H 0.9985 0.1779 0.41573 0.0
H942 H 0.86435 0.02982 0.41992 0.0
H943 H 0.90196 0.08468 0.41534 0.0
H944 H 0.91162 0.15271 0.44614 0.0
C945 C 1.02136 0.24157 0.44196 0.0
C946 C 0.97928 0.17272 0.42219 0.0
C947 C 0.04966 0.26978 0.44261 0.0
C948 C 0.87294 0.04636 0.42777 0.0
C949 C 0.89479 0.07781 0.42515 0.0
C950 C 0.93037 0.15778 0.43944 0.0
C951 C 1.00797 0.22835 0.4301 0.0
C952 C 0.97973 0.19652 0.42975 0.0
C953 C 0.90696 0.10009 0.43506 0.0
C954 C 0.93078 0.13355 0.43247 0.0
H955 H 0.06282 0.28549 0.41077 0.0
H956 H 1.0131 0.23513 0.40958 0.0
H957 H 0.95409 0.20671 0.44399 0.0
H958 H 0.86728 0.05208 0.46003 0.0
H959 H 0.90588 0.10629 0.45557 0.0
C960 C 1.01389 0.82457 0.44166 0.0
C961 C 0.03903 0.85475 0.43899 0.0
C962 C 0.98286 0.81671 0.43895 0.0
C963 C 0.93594 0.84412 0.42037 0.0
H964 H 0.86956 0.79165 0.44403 0.0
C965 C 0.81907 0.84399 0.42421 0.0
C966 C 0.79112 0.81554 0.42621 0.0
C967 C 0.84799 0.84507 0.42387 0.0
C968 C 0.88773 0.80591 0.43721 0.0
H969 H 0.05099 0.90049 0.43163 0.0
H970 H 0.99724 0.88714 0.42714 0.0
H971 H 0.92265 0.80111 0.44755 0.0
H972 H 0.77139 0.76575 0.42923 0.0
H973 H 0.82234 0.76763 0.42882 0.0
H974 H 0.90117 0.84992 0.41036 0.0
C975 C 1.00135 0.8691 0.43097 0.0
C976 C 0.91826 0.81138 0.43922 0.0
C977 C 0.03231 0.87685 0.43358 0.0
C978 C 0.79255 0.7879 0.42745 0.0
C979 C 0.8217 0.78906 0.42737 0.0
C980 C 0.90554 0.83891 0.41845 0.0
C981 C 0.9761 0.8389 0.43358 0.0
C982 C 0.94298 0.83103 0.43095 0.0
C983 C 0.8498 0.8178 0.42578 0.0
C984 C 0.88115 0.82015 0.42695 0.0
H985 H 1.01823 0.80688 0.44572 0.0
H986 H 0.96422 0.7931 0.44095 0.0
H987 H 0.95402 0.85871 0.41358 0.0
H988 H 0.81866 0.86569 0.42334 0.0
H989 H 0.86911 0.86761 0.42276 0.0
C990 C 0.36595 0.93347 0.26408 0.0
C991 C 0.33693 0.90766 0.26757 0.0
C992 C 0.39313 0.93089 0.26387 0.0
C993 C 0.41428 0.86884 0.26058 0.0
H994 H 0.49897 0.93552 0.26765 0.0
C995 C 0.51888 0.84716 0.259 0.0
C996 C 0.54629 0.86978 0.25281 0.0
C997 C 0.49463 0.85322 0.26184 0.0
C998 C 0.47545 0.91674 0.26556 0.0
H999 H 0.31401 0.85998 0.27464 0.0
H1000 H 0.36124 0.85588 0.2748 0.0
H1001 H 0.45471 0.94414 0.27137 0.0
H1002 H 0.56997 0.917 0.24513 0.0
H1003 H 0.52742 0.92738 0.24994 0.0
H1004 H 0.43479 0.8415 0.25471 0.0
C1005 C 0.36307 0.87772 0.27173 0.0
C1006 C 0.45008 0.92168 0.26769 0.0
C1007 C 0.33601 0.88016 0.27177 0.0
C1008 C 0.54903 0.89888 0.24976 0.0
C1009 C 0.52479 0.90499 0.25265 0.0
C1010 C 0.43951 0.86389 0.25851 0.0
C1011 C 0.39174 0.90253 0.26726 0.0
C1012 C 0.41912 0.89771 0.26527 0.0
C1013 C 0.49712 0.88209 0.2586 0.0
C1014 C 0.47043 0.8877 0.26099 0.0
H1015 H 0.36726 0.95485 0.26068 0.0
H1016 H 0.41475 0.95048 0.26036 0.0
H1017 H 0.39093 0.85008 0.25825 0.0
H1018 H 0.51583 0.82444 0.26141 0.0
H1019 H 0.47381 0.83518 0.26657 0.0
C1020 C 0.18476 0.67454 0.26741 0.0
C1021 C 0.18647 0.68602 0.25492 0.0
C1022 C 0.17761 0.64349 0.26946 0.0
C1023 C 0.18096 0.57927 0.25272 0.0
H1024 H 0.12362 0.52476 0.27883 0.0
C1025 C 0.13912 0.4494 0.25127 0.0
C1026 C 0.14076 0.43493 0.26256 0.0
C1027 C 0.14125 0.47865 0.25158 0.0
C1028 C 0.13991 0.53983 0.27159 0.0
H1029 H 0.18021 0.67303 0.23487 0.0
H1030 H 0.16813 0.61943 0.23841 0.0
H1031 H 0.13481 0.57915 0.27704 0.0
H1032 H 0.14422 0.43893 0.28317 0.0
H1033 H 0.14829 0.49087 0.28377 0.0
H1034 H 0.18627 0.54048 0.24721 0.0
C1035 C 0.17296 0.63454 0.24663 0.0
C1036 C 0.14633 0.57095 0.27056 0.0
C1037 C 0.17999 0.66539 0.2446 0.0
C1038 C 0.14253 0.44946 0.27434 0.0
C1039 C 0.145 0.4792 0.27466 0.0
C1040 C 0.17461 0.54842 0.25374 0.0
C1041 C 0.17211 0.62327 0.25906 0.0
C1042 C 0.16649 0.59083 0.26093 0.0
C1043 C 0.14567 0.49462 0.26321 0.0
C1044 C 0.1535 0.52804 0.26299 0.0
H1045 H 0.18976 0.68978 0.2756 0.0
H1046 H 0.17729 0.6356 0.27915 0.0
H1047 H 0.19728 0.59412 0.24544 0.0
H1048 H 0.13773 0.43873 0.24205 0.0
H1049 H 0.14079 0.48938 0.24261 0.0
C1050 C 0.59 0.72955 0.26759 0.0
C1051 C 0.61818 0.72885 0.26807 0.0
C1052 C 0.56105 0.70195 0.26819 0.0
C1053 C 0.52445 0.61852 0.26035 0.0
H1054 H 0.4517 0.61541 0.27623 0.0
C1055 C 0.39744 0.53102 0.24443 0.0
C1056 C 0.37346 0.51855 0.25369 0.0
C1057 C 0.428 0.55409 0.24769 0.0
C1058 C 0.47174 0.61558 0.27186 0.0
H1059 H 0.63814 0.69863 0.27002 0.0
H1060 H 0.58717 0.64991 0.27108 0.0
H1061 H 0.50374 0.6598 0.28033 0.0
H1062 H 0.36322 0.52067 0.27372 0.0
H1063 H 0.41654 0.56041 0.27944 0.0
H1064 H 0.49237 0.57435 0.2518 0.0
C1065 C 0.58763 0.67203 0.27021 0.0
C1066 C 0.50162 0.64124 0.27413 0.0
C1067 C 0.61679 0.6999 0.26974 0.0
C1068 C 0.38106 0.52948 0.26635 0.0
C1069 C 0.41163 0.55256 0.26961 0.0
C1070 C 0.49452 0.59282 0.25806 0.0
C1071 C 0.5594 0.67272 0.26918 0.0
C1072 C 0.52831 0.64339 0.26819 0.0
C1073 C 0.43549 0.56537 0.26031 0.0
C1074 C 0.46768 0.5913 0.26359 0.0
H1075 H 0.59028 0.75151 0.2663 0.0
H1076 H 0.53994 0.70347 0.26722 0.0
H1077 H 0.54442 0.61948 0.25554 0.0
H1078 H 0.39263 0.52292 0.23463 0.0
H1079 H 0.4456 0.56361 0.24023 0.0
C1080 C 0.89246 0.52539 0.78493 0.0
C1081 C 0.89126 0.54461 0.77527 0.0
C1082 C 0.9016 0.5034 0.78214 0.0
C1083 C 0.90784 0.45608 0.75634 0.0
H1084 H 0.96081 0.44583 0.78102 0.0
C1085 C 0.94006 0.35654 0.75341 0.0
C1086 C 0.93251 0.33928 0.76485 0.0
C1087 C 0.94049 0.38532 0.75299 0.0
C1088 C 0.94616 0.44851 0.77399 0.0
H1089 H 0.89843 0.55526 0.75501 0.0
H1090 H 0.91401 0.51634 0.75012 0.0
H1091 H 0.95001 0.4887 0.7835 0.0
H1092 H 0.92066 0.33918 0.78486 0.0
H1093 H 0.92215 0.3889 0.78418 0.0
H1094 H 0.90326 0.41503 0.7471 0.0
C1095 C 0.90784 0.51847 0.75986 0.0
C1096 C 0.93983 0.47297 0.77544 0.0
C1097 C 0.89881 0.54069 0.76267 0.0
C1098 C 0.92659 0.35181 0.77588 0.0
C1099 C 0.9276 0.3805 0.77552 0.0
C1100 C 0.91421 0.43148 0.75488 0.0
C1101 C 0.9097 0.49982 0.76961 0.0
C1102 C 0.91973 0.47643 0.7669 0.0
C1103 C 0.93416 0.39748 0.76408 0.0
C1104 C 0.93258 0.42684 0.76395 0.0
H1105 H 0.88609 0.52714 0.79468 0.0
H1106 H 0.902 0.48888 0.78983 0.0
H1107 H 0.89226 0.45811 0.74959 0.0
H1108 H 0.94452 0.34734 0.74475 0.0
H1109 H 0.9456 0.39796 0.74404 0.0
C1110 C 0.71653 0.61573 0.75727 0.0
C1111 C 0.74483 0.61604 0.75955 0.0
C1112 C 0.68817 0.58714 0.75631 0.0
C1113 C 0.65541 0.50094 0.7521 0.0
H1114 H 0.58619 0.49329 0.77254 0.0
C1115 C 0.54115 0.38168 0.75833 0.0
C1116 C 0.52852 0.37439 0.77076 0.0
C1117 C 0.56497 0.41206 0.75525 0.0
C1118 C 0.6053 0.49497 0.7668 0.0
H1119 H 0.76583 0.58673 0.76187 0.0
H1120 H 0.71696 0.53744 0.76016 0.0
H1121 H 0.63283 0.54462 0.76963 0.0
H1122 H 0.5305 0.39398 0.78955 0.0
H1123 H 0.57246 0.44647 0.7843 0.0
H1124 H 0.62869 0.45121 0.74978 0.0
C1125 C 0.71632 0.55897 0.75908 0.0
C1126 C 0.6319 0.52454 0.76498 0.0
C1127 C 0.74442 0.58734 0.76015 0.0
C1128 C 0.53994 0.39851 0.77993 0.0
C1129 C 0.56376 0.42884 0.77686 0.0
C1130 C 0.62887 0.47143 0.75393 0.0
C1131 C 0.68769 0.55838 0.75744 0.0
C1132 C 0.65763 0.52781 0.75785 0.0
C1133 C 0.57684 0.43601 0.76451 0.0
C1134 C 0.60371 0.4679 0.76154 0.0
H1135 H 0.71608 0.63746 0.75686 0.0
H1136 H 0.66655 0.58753 0.75494 0.0
H1137 H 0.67459 0.50261 0.74641 0.0
H1138 H 0.53317 0.36373 0.75103 0.0
H1139 H 0.57417 0.41673 0.7456 0.0
C1140 C 0.48542 0.17951 0.75839 0.0
C1141 C 0.45829 0.15171 0.76202 0.0
C1142 C 0.51481 0.18177 0.75877 0.0
C1143 C 0.55794 0.13831 0.76168 0.0
H1144 H 0.61988 0.21517 0.77811 0.0
C1145 C 0.68077 0.16054 0.77808 0.0
C1146 C 0.70636 0.19115 0.77672 0.0
C1147 C 0.65007 0.15399 0.77558 0.0
C1148 C 0.60311 0.19376 0.77333 0.0
H1149 H 0.44047 0.10376 0.7681 0.0
H1150 H 0.49226 0.10771 0.76882 0.0
H1151 H 0.56734 0.20617 0.7744 0.0
H1152 H 0.71971 0.23856 0.77114 0.0
H1153 H 0.66649 0.2272 0.76669 0.0
H1154 H 0.59404 0.12601 0.76065 0.0
C1155 C 0.49062 0.12774 0.76562 0.0
C1156 C 0.57287 0.18857 0.77121 0.0
C1157 C 0.46095 0.12541 0.76517 0.0
C1158 C 0.70053 0.21487 0.77255 0.0
C1159 C 0.66994 0.20832 0.77 0.0
C1160 C 0.58841 0.14358 0.76377 0.0
C1161 C 0.518 0.15637 0.76289 0.0
C1162 C 0.54994 0.16096 0.76524 0.0
C1163 C 0.64421 0.17789 0.77163 0.0
C1164 C 0.61149 0.17155 0.76953 0.0
H1165 H 0.4841 0.2001 0.75577 0.0
H1166 H 0.53527 0.20389 0.75625 0.0
H1167 H 0.54086 0.11683 0.75705 0.0
H1168 H 0.68439 0.14175 0.78138 0.0
H1169 H 0.63088 0.13037 0.77707 0.0
C1170 C 0.99865 0.21826 0.60526 0.0
C1171 C 0.99965 0.24635 0.60198 0.0
C1172 C 0.02606 0.21645 0.60557 0.0
C1173 C 0.11361 0.2625 0.60405 0.0
H1174 H 0.10223 0.1859 0.58864 0.0
C1175 C 0.21697 0.24563 0.58681 0.0
C1176 C 0.21434 0.21621 0.58897 0.0
C1177 C 0.19194 0.25065 0.58958 0.0
C1178 C 0.10585 0.20727 0.59312 0.0
H1179 H 0.03018 0.29497 0.59694 0.0
H1180 H 0.0784 0.29182 0.59725 0.0
H1181 H 0.05718 0.19274 0.5918 0.0
H1182 H 0.18321 0.1691 0.59588 0.0
H1183 H 0.13982 0.17791 0.60082 0.0
H1184 H 0.16265 0.27713 0.60505 0.0
C1185 C 0.05645 0.27127 0.59984 0.0
C1186 C 0.07991 0.2112 0.59498 0.0
C1187 C 0.02888 0.27318 0.59972 0.0
C1188 C 0.18621 0.19212 0.59418 0.0
C1189 C 0.16118 0.19708 0.59689 0.0
C1190 C 0.1397 0.25859 0.60212 0.0
C1191 C 0.05519 0.24252 0.60232 0.0
C1192 C 0.08331 0.23876 0.60055 0.0
C1193 C 0.16356 0.2263 0.59451 0.0
C1194 C 0.13609 0.23082 0.59668 0.0
H1195 H 0.97637 0.19723 0.60705 0.0
H1196 H 0.02419 0.19417 0.6079 0.0
H1197 H 0.11715 0.28395 0.60842 0.0
H1198 H 0.23841 0.26484 0.58295 0.0
H1199 H 0.19454 0.27337 0.58755 0.0
C1200 C 0.80111 0.78619 0.60672 0.0
C1201 C 0.82834 0.78499 0.60375 0.0
C1202 C 0.80221 0.81518 0.60756 0.0
C1203 C 0.85762 0.90131 0.61001 0.0
H1204 H 0.79467 0.90855 0.59045 0.0
C1205 C 0.86503 0.02106 0.60232 0.0
C1206 C 0.85843 0.02716 0.5899 0.0
C1207 C 0.85819 0.99088 0.60583 0.0
C1208 C 0.81248 0.90696 0.59593 0.0
H1209 H 0.87831 0.81307 0.60011 0.0
H1210 H 0.88027 0.8631 0.60161 0.0
H1211 H 0.78888 0.85699 0.59404 0.0
H1212 H 0.83853 1.00582 0.57159 0.0
H1213 H 0.82755 0.95359 0.57757 0.0
H1214 H 0.88207 0.95128 0.61137 0.0
C1215 C 0.85804 0.84198 0.60332 0.0
C1216 C 0.80891 0.87732 0.59815 0.0
C1217 C 0.85688 0.8132 0.60237 0.0
C1218 C 0.8444 1.00216 0.58117 0.0
C1219 C 0.83763 0.97202 0.58467 0.0
C1220 C 0.86121 0.93091 0.60779 0.0
C1221 C 0.83065 0.8434 0.60562 0.0
C1222 C 0.83185 0.8742 0.60496 0.0
C1223 C 0.84461 0.96598 0.59703 0.0
C1224 C 0.83906 0.93421 0.60047 0.0
H1225 H 0.77875 0.7648 0.60775 0.0
H1226 H 0.78073 0.8155 0.60945 0.0
H1227 H 0.87554 0.89974 0.61543 0.0
H1228 H 0.87606 0.03973 0.60928 0.0
H1229 H 0.86362 0.98709 0.61547 0.0
C1230 C 0.25684 0.06832 0.59843 0.0
C1231 C 0.28551 0.06855 0.59777 0.0
C1232 C 0.22839 0.04017 0.59888 0.0
C1233 C 0.19258 0.95746 0.5895 0.0
H1234 H 0.12129 0.95104 0.60802 0.0
C1235 C 0.06444 0.86722 0.57612 0.0
C1236 C 0.04179 0.85411 0.58588 0.0
C1237 C 0.09513 0.8909 0.57882 0.0
C1238 C 0.14094 0.95211 0.6029 0.0
H1239 H 0.30669 0.03915 0.59755 0.0
H1240 H 0.25663 0.98958 0.59842 0.0
H1241 H 0.17319 0.99607 0.61147 0.0
H1242 H 0.03409 0.85575 0.60622 0.0
H1243 H 0.08767 0.89631 0.61098 0.0
H1244 H 0.16026 0.91338 0.58097 0.0
C1245 C 0.25635 1.01142 0.59847 0.0
C1246 C 0.17074 0.97818 0.60479 0.0
C1247 C 0.28504 0.03979 0.59809 0.0
C1248 C 0.05087 0.86502 0.59846 0.0
C1249 C 0.08159 0.88861 0.60118 0.0
C1250 C 0.16273 0.93128 0.58764 0.0
C1251 C 0.22764 1.0113 0.59867 0.0
C1252 C 0.19685 0.98157 0.59791 0.0
C1253 C 0.10411 0.90208 0.59138 0.0
C1254 C 0.13638 0.92855 0.59413 0.0
H1255 H 0.25625 0.09 0.59826 0.0
H1256 H 0.20686 0.04112 0.59886 0.0
H1257 H 0.21207 0.95934 0.58398 0.0
H1258 H 0.05853 0.85915 0.56634 0.0
H1259 H 0.11162 0.9009 0.57099 0.0
C1260 C 0.53447 0.01732 0.06101 0.0
C1261 C 0.51379 0.02213 0.06865 0.0
C1262 C 0.53446 0.02039 0.04772 0.0
C1263 C 0.48551 1.01163 0.02063 0.0
H1264 H 0.56322 0.06707 1.00305 0.0
C1265 C 0.49119 0.02828 0.96538 0.0
C1266 C 0.5191 0.03473 0.95918 0.0
C1267 C 0.48937 0.02713 0.97878 0.0
C1268 C 0.54136 0.05099 1.00772 0.0
H1269 H 0.47664 0.03359 0.06845 0.0
H1270 H 0.47596 0.03801 0.04505 0.0
H1271 H 0.5624 0.06452 0.02628 0.0
H1272 H 0.56647 0.04375 0.96198 0.0
H1273 H 0.56293 0.04003 0.98513 0.0
H1274 H 0.46464 0.99685 1.00214 0.0
C1275 C 0.49243 0.03231 0.04941 0.0
C1276 C 0.54091 0.04983 0.02107 0.0
C1277 C 0.49295 0.02996 0.06276 0.0
C1278 C 0.54474 0.03898 0.96653 0.0
C1279 C 0.54276 0.0372 0.97986 0.0
C1280 C 0.48605 1.01228 1.00723 0.0
C1281 C 0.51328 0.02762 0.04179 0.0
C1282 C 0.51306 0.03003 0.02765 0.0
C1283 C 0.51529 0.0319 0.98623 0.0
C1284 C 0.5141 0.03178 1.00055 0.0
H1285 H 0.55072 1.0112 0.0653 0.0
H1286 H 0.55065 0.01651 0.04205 0.0
H1287 H 0.46377 0.99597 0.0255 0.0
H1288 H 0.47116 0.02519 0.95991 0.0
H1289 H 0.4679 0.02334 0.98325 0.0
C1290 C 0.02599 0.52632 0.96785 0.0
C1291 C 0.03096 0.50551 0.96042 0.0
C1292 C 0.02694 0.52545 0.98118 0.0
C1293 C 0.05118 0.49327 1.00856 0.0
H1294 H 0.99677 0.515 0.02738 0.0
C1295 C 0.03367 0.48178 0.06403 0.0
C1296 C 0.04009 0.50999 0.06994 0.0
C1297 C 0.03106 0.47878 0.05068 0.0
C1298 C 1.01206 0.50884 0.02224 0.0
H1299 H 0.04102 0.46751 0.96104 0.0
H1300 H 0.04154 0.46502 0.98438 0.0
H1301 H 0.99539 0.51418 1.00412 0.0
H1302 H 0.04801 0.55679 0.06664 0.0
H1303 H 0.04228 0.55113 0.04343 0.0
H1304 H 0.06707 0.48718 0.0269 0.0
C1305 C 0.03772 0.48269 0.97996 0.0
C1306 C 1.01156 0.50866 1.00888 0.0
C1307 C 0.03733 0.48399 0.96657 0.0
C1308 C 0.04298 0.53476 0.06233 0.0
C1309 C 0.03966 0.53152 0.04906 0.0
C1310 C 0.05123 0.4929 0.02196 0.0
C1311 C 0.03221 0.50323 0.98749 0.0
C1312 C 0.03157 0.5015 1.0018 0.0
C1313 C 0.03406 0.50367 0.04308 0.0
C1314 C 0.03204 0.5012 0.02892 0.0
H1315 H 1.02124 0.54331 0.96334 0.0
H1316 H 0.02353 0.54233 0.98653 0.0
H1317 H 0.0672 0.48796 1.00353 0.0
H1318 H 0.03157 0.46242 0.06969 0.0
H1319 H 0.02663 0.45703 0.04629 0.0
C1320 C 0.54951 0.51871 0.96629 0.0
C1321 C 0.56798 0.54521 0.95877 0.0
C1322 C 0.54912 0.52115 0.97959 0.0
C1323 C 0.57259 0.57963 1.00629 0.0
H1324 H 0.5576 0.50767 0.02665 0.0
C1325 C 0.58524 0.57734 0.06208 0.0
C1326 C 0.55653 0.55665 0.06798 0.0
C1327 C 0.58837 0.57718 0.04876 0.0
C1328 C 0.56188 0.52793 0.02105 0.0
H1329 H 0.60073 0.5951 0.95917 0.0
H1330 H 0.60146 0.59932 0.98245 0.0
H1331 H 0.5606 0.50542 1.00346 0.0
H1332 H 0.50884 0.51932 0.0647 0.0
H1333 H 0.51477 0.51817 0.04147 0.0
H1334 H 0.57501 0.6023 0.02416 0.0
C1335 C 0.58632 0.57669 0.97814 0.0
C1336 C 0.56326 0.52663 1.00773 0.0
C1337 C 0.58611 0.57431 0.96478 0.0
C1338 C 0.53122 0.5355 0.06038 0.0
C1339 C 0.53459 0.5348 0.04713 0.0
C1340 C 0.57193 0.58114 0.01966 0.0
C1341 C 0.56787 0.55008 0.98578 0.0
C1342 C 0.56808 0.55225 1.00009 0.0
C1343 C 0.56308 0.55577 0.0412 0.0
C1344 C 0.56612 0.55514 0.02713 0.0
H1345 H 0.5351 0.49602 0.96187 0.0
H1346 H 0.53385 0.50023 0.98498 0.0
H1347 H 0.57588 0.59973 1.00085 0.0
H1348 H 0.60503 0.59401 0.06773 0.0
H1349 H 0.61057 0.59352 0.04436 0.0
C1350 C 0.18105 0.33116 0.39403 0.0
C1351 C 0.17253 0.34894 0.40181 0.0
C1352 C 0.18156 0.33405 0.38071 0.0
C1353 C 0.16256 0.33198 0.35271 0.0
H1354 H 0.20246 0.415 0.33767 0.0
C1355 C 0.1593 0.35328 0.29823 0.0
C1356 C 0.18795 0.37526 0.29267 0.0
C1357 C 0.15634 0.34989 0.31155 0.0
C1358 C 0.19128 0.39166 0.34172 0.0
H1359 H 0.15757 0.38344 0.40178 0.0
H1360 H 0.15894 0.38895 0.37848 0.0
H1361 H 0.19922 0.40924 0.36092 0.0
H1362 H 0.23587 0.41119 0.29664 0.0
H1363 H 0.23068 0.40552 0.31987 0.0
H1364 H 0.15479 0.31441 0.33351 0.0
C1365 C 0.16532 0.37282 0.38269 0.0
C1366 C 0.18918 0.38836 0.35504 0.0
C1367 C 0.16447 0.36965 0.39602 0.0
C1368 C 0.21349 0.39402 0.30067 0.0
C1369 C 0.21047 0.39089 0.31397 0.0
C1370 C 0.16433 0.33527 0.33939 0.0
C1371 C 0.17384 0.35502 0.37487 0.0
C1372 C 0.17504 0.35849 0.3607 0.0
C1373 C 0.18189 0.36872 0.31958 0.0
C1374 C 0.17895 0.36516 0.33374 0.0
H1375 H 0.18735 0.31497 0.39823 0.0
H1376 H 0.18853 0.32023 0.37497 0.0
H1377 H 0.15128 0.30864 0.35677 0.0
H1378 H 0.13918 0.33871 0.2923 0.0
H1379 H 0.13394 0.3328 0.31557 0.0
C1380 C 0.7061 0.81866 0.39534 0.0
C1381 C 0.7136 0.84696 0.40141 0.0
C1382 C 0.70435 0.81637 0.38197 0.0
C1383 C 0.72809 0.86717 0.35267 0.0
H1384 H 0.67123 0.78926 0.33556 0.0
C1385 C 0.69343 0.858 0.29934 0.0
C1386 C 0.69746 0.83644 0.29198 0.0
C1387 C 0.69675 0.85879 0.31263 0.0
C1388 C 0.68738 0.81109 0.34025 0.0
H1389 H 0.72389 0.89461 0.39839 0.0
H1390 H 0.7191 0.89029 0.37527 0.0
H1391 H 0.67285 0.79126 0.35891 0.0
H1392 H 0.70776 0.79857 0.29268 0.0
H1393 H 0.71264 0.79933 0.31608 0.0
H1394 H 0.74139 0.88717 0.33393 0.0
C1395 C 0.71591 0.87013 0.38063 0.0
C1396 C 0.68846 0.81228 0.35364 0.0
C1397 C 0.71831 0.87257 0.39394 0.0
C1398 C 0.70476 0.81556 0.29814 0.0
C1399 C 0.70736 0.81586 0.3115 0.0
C1400 C 0.72649 0.86609 0.33933 0.0
C1401 C 0.70952 0.8422 0.37439 0.0
C1402 C 0.70871 0.84043 0.36008 0.0
C1403 C 0.70345 0.83756 0.31885 0.0
C1404 C 0.70606 0.83811 0.33299 0.0
H1405 H 0.70264 0.79864 0.4009 0.0
H1406 H 0.69976 0.79457 0.3776 0.0
H1407 H 0.74471 0.88908 0.35715 0.0
H1408 H 0.68773 0.8743 0.29482 0.0
H1409 H 0.69348 0.87563 0.31809 0.0
C1410 C 0.24683 0.91156 0.29948 0.0
C1411 C 0.22697 0.88232 0.29384 0.0
C1412 C 0.24767 0.91496 0.31283 0.0
C1413 C 0.22736 0.86663 0.34243 0.0
H1414 H 0.23806 0.94145 0.35925 0.0
C1415 C 0.20741 0.87061 0.39655 0.0
C1416 C 0.22938 0.89724 0.40329 0.0
C1417 C 0.20818 0.86992 0.38319 0.0
C1418 C 0.23534 0.92051 0.35467 0.0
H1419 H 0.19142 0.8342 0.29757 0.0
H1420 H 0.19195 0.84025 0.32063 0.0
H1421 H 0.23682 0.93863 0.33589 0.0
H1422 H 0.26947 0.94402 0.40138 0.0
H1423 H 0.27074 0.94286 0.37799 0.0
H1424 H 0.22536 0.84832 0.36117 0.0
C1425 C 0.20773 0.86038 0.31493 0.0
C1426 C 0.23468 0.91891 0.34128 0.0
C1427 C 0.20718 0.85695 0.30168 0.0
C1428 C 0.25219 0.92318 0.39642 0.0
C1429 C 0.25281 0.92259 0.38304 0.0
C1430 C 0.22776 0.86815 0.35576 0.0
C1431 C 0.22846 0.88921 0.32074 0.0
C1432 C 0.23035 0.89178 0.33498 0.0
C1433 C 0.23084 0.89592 0.37627 0.0
C1434 C 0.23149 0.89497 0.36206 0.0
H1435 H 0.26249 0.93143 0.29363 0.0
H1436 H 0.26407 0.93747 0.31695 0.0
H1437 H 0.22485 0.84568 0.33796 0.0
H1438 H 0.18953 0.85031 0.4016 0.0
H1439 H 0.19072 0.84914 0.37826 0.0
C1440 C 0.83273 0.70277 0.73038 0.0
C1441 C 0.85388 0.69557 0.7364 0.0
C1442 C 0.83244 0.70502 0.71702 0.0
C1443 C 0.88111 0.72234 0.68864 0.0
H1444 H 0.8045 0.66856 0.67005 0.0
C1445 C 0.88324 0.71081 0.63397 0.0
C1446 C 0.85714 0.70606 0.62681 0.0
C1447 C 0.88187 0.70928 0.64732 0.0
C1448 C 0.82601 0.68421 0.67504 0.0
H1449 H 0.89166 0.68578 0.73329 0.0
H1450 H 0.89196 0.69092 0.71001 0.0
H1451 H 0.80415 0.66834 0.6934 0.0
H1452 H 0.80903 0.6959 0.62793 0.0
H1453 H 0.80685 0.69455 0.65126 0.0
H1454 H 0.90298 0.73918 0.67051 0.0
C1455 C 0.87538 0.6944 0.71559 0.0
C1456 C 0.82576 0.68393 0.68844 0.0
C1457 C 0.87518 0.69143 0.72888 0.0
C1458 C 0.82943 0.69941 0.63324 0.0
C1459 C 0.82821 0.69851 0.64664 0.0
C1460 C 0.88126 0.72314 0.67528 0.0
C1461 C 0.85378 0.70085 0.70951 0.0
C1462 C 0.85341 0.70268 0.69535 0.0
C1463 C 0.85454 0.7037 0.6539 0.0
C1464 C 0.85384 0.70371 0.66823 0.0
H1465 H 0.8159 0.70581 0.73596 0.0
H1466 H 0.81562 0.71011 0.71256 0.0
H1467 H 0.90268 0.73727 0.69376 0.0
H1468 H 0.90485 0.71576 0.62924 0.0
H1469 H 0.90237 0.71247 0.65244 0.0
C1470 C 0.35882 0.1945 0.63373 0.0
C1471 C 0.36476 0.17508 0.62583 0.0
C1472 C 0.35947 0.19219 0.647 0.0
C1473 C 0.38473 0.1595 0.67365 0.0
H1474 H 0.32672 0.17585 0.69269 0.0
C1475 C 0.36765 0.14844 0.72936 0.0
C1476 C 0.37405 0.17705 0.73488 0.0
C1477 C 0.36447 0.14438 0.71605 0.0
C1478 C 0.34292 0.17107 0.68749 0.0
H1479 H 0.37648 0.1382 0.62553 0.0
H1480 H 0.3767 0.13331 0.64885 0.0
H1481 H 0.32558 0.17579 0.66944 0.0
H1482 H 0.38135 0.22339 0.731 0.0
H1483 H 0.37453 0.21583 0.7079 0.0
H1484 H 0.40151 0.15429 0.69194 0.0
C1485 C 0.37218 0.15089 0.6448 0.0
C1486 C 0.34257 0.17136 0.67414 0.0
C1487 C 0.37205 0.15362 0.63144 0.0
C1488 C 0.37633 0.20109 0.72698 0.0
C1489 C 0.37241 0.19677 0.71378 0.0
C1490 C 0.38467 0.15867 0.68705 0.0
C1491 C 0.3654 0.16986 0.65277 0.0
C1492 C 0.36406 0.16649 0.667 0.0
C1493 C 0.36685 0.16857 0.70817 0.0
C1494 C 0.36425 0.16519 0.69407 0.0
H1495 H 0.35341 0.21145 0.62964 0.0
H1496 H 0.35517 0.20796 0.65273 0.0
H1497 H 0.40175 0.1558 0.66854 0.0
H1498 H 0.36611 0.12968 0.73527 0.0
H1499 H 0.36014 0.12241 0.71192 0.0
C1500 C 0.89976 0.24505 0.63057 0.0
C1501 C 0.89173 0.21575 0.62531 0.0
C1502 C 0.90049 0.24905 0.64387 0.0
C1503 C 0.90942 0.21549 0.67399 0.0
H1504 H 0.86867 0.2569 0.6899 0.0
C1505 C 0.91765 0.24163 0.72842 0.0
C1506 C 0.88909 0.23335 0.73451 0.0
C1507 C 0.91947 0.24148 0.71505 0.0
C1508 C 0.88017 0.24529 0.68559 0.0
H1509 H 0.87811 0.16768 0.62981 0.0
H1510 H 0.87971 0.1747 0.65294 0.0
H1511 H 0.869 0.25287 0.66657 0.0
H1512 H 0.84019 0.21898 0.73141 0.0
H1513 H 0.84339 0.21903 0.70809 0.0
H1514 H 0.92037 0.20765 0.69298 0.0
C1515 C 0.88551 0.19462 0.64683 0.0
C1516 C 0.88057 0.24321 0.67224 0.0
C1517 C 0.88439 0.19056 0.63358 0.0
C1518 C 0.86252 0.22542 0.72698 0.0
C1519 C 0.8644 0.22562 0.71363 0.0
C1520 C 0.90937 0.21792 0.68732 0.0
C1521 C 0.89365 0.22391 0.65215 0.0
C1522 C 0.89484 0.22791 0.66629 0.0
C1523 C 0.89284 0.23346 0.7075 0.0
C1524 C 0.89441 0.23251 0.69329 0.0
H1525 H 0.90546 0.26482 0.62441 0.0
H1526 H 0.90694 0.27193 0.64769 0.0
H1527 H 0.92085 0.2038 0.6697 0.0
H1528 H 0.93854 0.24809 0.73399 0.0
H1529 H 0.94179 0.24788 0.71062 0.0
C1530 C 0.29972 0.91468 0.22079 0.0
C1531 C 0.28158 0.92926 0.22244 0.0
C1532 C 0.31965 0.92176 0.21021 0.0
C1533 C 0.33497 0.95505 0.17758 0.0
H1534 H 0.41998 0.97197 0.18336 0.0
C1535 C 0.41667 0.97708 0.13522 0.0
C1536 C 0.44645 1.00408 0.13583 0.0
C1537 C 0.39835 0.96494 0.14619 0.0
C1538 C 0.39635 0.96735 0.1816 0.0
H1539 H 0.26924 0.96171 0.21394 0.0
H1540 H 0.30349 0.97357 0.19533 0.0
H1541 H 0.38309 0.95662 0.20132 0.0
H1542 H 0.48122 0.03863 0.14851 0.0
H1543 H 0.44913 0.01718 0.16792 0.0
H1544 H 0.3481 0.96604 0.15795 0.0
C1545 C 0.30245 0.95679 0.20227 0.0
C1546 C 0.37511 0.9583 0.19186 0.0
C1547 C 0.28275 0.94995 0.21293 0.0
C1548 C 0.45861 0.01742 0.14782 0.0
C1549 C 0.44008 1.00525 0.1589 0.0
C1550 C 0.35603 0.96376 0.16734 0.0
C1551 C 0.32169 0.9433 0.20091 0.0
C1552 C 0.34416 0.95214 0.18998 0.0
C1553 C 0.40915 0.97969 0.15809 0.0
C1554 C 0.38701 0.97002 0.16918 0.0
H1555 H 0.29945 0.89866 0.22795 0.0
H1556 H 0.33372 0.91056 0.20937 0.0
H1557 H 0.31134 0.95035 0.17575 0.0
H1558 H 0.40667 0.96645 0.12607 0.0
H1559 H 0.37502 0.9448 0.14524 0.0
C1560 C 0.09918 0.46516 0.13594 0.0
C1561 C 0.07225 0.46811 0.13663 0.0
C1562 C 0.11274 0.46115 0.14698 0.0
C1563 C 0.11119 0.46181 0.18274 0.0
H1564 H 0.13242 0.39619 0.17911 0.0
C1565 C 0.10794 0.38597 0.22472 0.0
C1566 C 0.13006 0.37593 0.22584 0.0
C1567 C 0.10772 0.40304 0.21417 0.0
C1568 C 0.12728 0.41501 0.18028 0.0
H1569 H 0.03923 0.47075 0.14947 0.0
H1570 H 0.06265 0.46337 0.16893 0.0
H1571 H 0.11885 0.41596 0.16028 0.0
H1572 H 0.1699 0.37664 0.21673 0.0
H1573 H 0.16912 0.40627 0.1978 0.0
H1574 H 0.11851 0.45989 0.20284 0.0
C1575 C 0.0737 0.46465 0.15982 0.0
C1576 C 0.11941 0.42641 0.16945 0.0
C1577 C 0.06029 0.46906 0.14869 0.0
C1578 C 0.15256 0.38401 0.21613 0.0
C1579 C 0.15201 0.40087 0.20531 0.0
C1580 C 0.119 0.45035 0.19357 0.0
C1581 C 0.09942 0.45942 0.15906 0.0
C1582 C 0.11064 0.44957 0.17054 0.0
C1583 C 0.1294 0.41046 0.20421 0.0
C1584 C 0.12642 0.42625 0.19252 0.0
H1585 H 0.10891 0.46437 0.12673 0.0
H1586 H 0.13298 0.45814 0.14598 0.0
H1587 H 0.10517 0.48 0.18397 0.0
H1588 H 0.09033 0.38044 0.23204 0.0
H1589 H 0.08968 0.40948 0.21363 0.0
C1590 C 0.65545 0.73038 0.22597 0.0
C1591 C 0.67582 0.76299 0.22614 0.0
C1592 C 0.6416 0.71466 0.21464 0.0
C1593 C 0.65587 0.7227 0.17993 0.0
H1594 H 0.57668 0.64427 0.17892 0.0
C1595 C 0.6156 0.65223 0.13369 0.0
C1596 C 0.60622 0.62026 0.1345 0.0
C1597 C 0.61759 0.66941 0.14458 0.0
C1598 C 0.59888 0.66604 0.17906 0.0
H1599 H 0.69609 0.80508 0.21465 0.0
H1600 H 0.67141 0.77756 0.1946 0.0
H1601 H 0.59151 0.67681 0.19815 0.0
H1602 H 0.58983 0.5807 0.1473 0.0
H1603 H 0.59366 0.61106 0.16665 0.0
H1604 H 0.66344 0.71186 0.16094 0.0
C1605 C 0.66661 0.76407 0.20332 0.0
C1606 C 0.60745 0.68479 0.19009 0.0
C1607 C 0.68052 0.77994 0.21479 0.0
C1608 C 0.59678 0.60522 0.1464 0.0
C1609 C 0.59912 0.62268 0.15745 0.0
C1610 C 0.64722 0.70412 0.16891 0.0
C1611 C 0.64761 0.73104 0.20305 0.0
C1612 C 0.63636 0.71316 0.19077 0.0
C1613 C 0.6108 0.6553 0.15668 0.0
C1614 C 0.61879 0.67537 0.16836 0.0
H1615 H 0.65112 0.71664 0.2346 0.0
H1616 H 0.62754 0.68936 0.21492 0.0
H1617 H 0.67855 0.74392 0.18011 0.0
H1618 H 0.62301 0.66449 0.12464 0.0
H1619 H 0.62582 0.6942 0.14355 0.0
C1620 C 0.98656 0.40249 0.89289 0.0
C1621 C 1.0094 0.43446 0.89333 0.0
C1622 C 0.97472 0.38724 0.88126 0.0
C1623 C 0.99847 0.39331 0.8475 0.0
H1624 H 0.9154 0.32069 0.84344 0.0
C1625 C 0.96349 0.32646 0.80026 0.0
C1626 C 0.94901 0.29361 0.80068 0.0
C1627 C 0.96578 0.34375 0.81114 0.0
C1628 C 0.93873 0.34077 0.84446 0.0
H1629 H 0.03633 0.4761 0.88191 0.0
H1630 H 1.01526 0.4495 0.86136 0.0
H1631 H 0.9281 0.35281 0.86276 0.0
H1632 H 0.92401 0.25293 0.8128 0.0
H1633 H 0.92845 0.28347 0.8322 0.0
H1634 H 1.0093 0.3812 0.82934 0.0
C1635 C 1.00686 0.43607 0.8701 0.0
C1636 C 0.94606 0.3593 0.85553 0.0
C1637 C 1.0187 0.45147 0.88186 0.0
C1638 C 0.93517 0.27819 0.81219 0.0
C1639 C 0.93779 0.29573 0.82327 0.0
C1640 C 0.99112 0.37493 0.83645 0.0
C1641 C 0.98538 0.40348 0.86964 0.0
C1642 C 0.97619 0.38569 0.85727 0.0
C1643 C 0.95413 0.32885 0.82293 0.0
C1644 C 0.96122 0.3483 0.83478 0.0
H1645 H 0.97879 0.38875 0.90159 0.0
H1646 H 0.95854 0.36223 0.88141 0.0
H1647 H 1.0221 0.41287 0.84855 0.0
H1648 H 0.97404 0.33909 0.79149 0.0
H1649 H 0.97761 0.36905 0.81037 0.0
C1650 C 0.61384 0.58341 0.88161 0.0
C1651 C 0.62955 0.603 0.89204 0.0
C1652 C 0.63071 0.58461 0.87049 0.0
C1653 C 0.71261 0.61389 0.85831 0.0
H1654 H 0.68023 0.6247 0.82617 0.0
C1655 C 0.7917 0.67758 0.81424 0.0
C1656 C 0.7783 0.66842 0.80205 0.0
C1657 C 0.77354 0.66321 0.82522 0.0
C1658 C 0.68955 0.62118 0.83499 0.0
H1659 H 0.67532 0.63788 0.8992 0.0
H1660 H 0.70405 0.63964 0.88026 0.0
H1661 H 0.64711 0.60927 0.84513 0.0
H1662 H 0.73657 0.63554 0.79169 0.0
H1663 H 0.70559 0.6099 0.81061 0.0
H1664 H 0.75539 0.62671 0.84825 0.0
C1665 C 0.67901 0.62339 0.88045 0.0
C1666 C 0.67039 0.61222 0.84589 0.0
C1667 C 0.66231 0.62257 0.89133 0.0
C1668 C 0.74744 0.64322 0.801 0.0
C1669 C 0.72953 0.62874 0.81187 0.0
C1670 C 0.73178 0.62286 0.8474 0.0
C1671 C 0.66355 0.60492 0.86976 0.0
C1672 C 0.68189 0.60917 0.85777 0.0
C1673 C 0.74179 0.63934 0.82415 0.0
C1674 C 0.72075 0.62722 0.83563 0.0
H1675 H 0.58863 0.56815 0.88187 0.0
H1676 H 0.61805 0.56996 0.86242 0.0
H1677 H 0.72213 0.61133 0.86726 0.0
H1678 H 0.81529 0.6972 0.81531 0.0
H1679 H 0.78384 0.6721 0.83451 0.0
C1680 C 0.36133 0.11197 0.81595 0.0
C1681 C 0.38095 0.13269 0.80646 0.0
C1682 C 0.37414 0.10518 0.82662 0.0
C1683 C 0.44519 0.10361 0.83692 0.0
H1684 H 0.41013 0.09514 0.87083 0.0
C1685 C 0.46844 0.04297 0.88057 0.0
C1686 C 0.46945 0.05594 0.89264 0.0
C1687 C 0.46242 0.05558 0.86957 0.0
C1688 C 0.42043 0.09764 0.86145 0.0
H1689 H 0.42949 0.16354 0.80102 0.0
H1690 H 0.45175 0.15172 0.81962 0.0
H1691 H 0.38932 0.11134 0.85315 0.0
H1692 H 0.4676 0.09348 0.90261 0.0
H1693 H 0.45822 0.11591 0.88356 0.0
H1694 H 0.4762 0.08963 0.8453 0.0
C1695 C 0.42646 0.14044 0.81875 0.0
C1696 C 0.40824 0.10664 0.85127 0.0
C1697 C 0.41367 0.14747 0.80816 0.0
C1698 C 0.467 0.08308 0.8934 0.0
C1699 C 0.4612 0.09569 0.8825 0.0
C1700 C 0.45723 0.09428 0.84711 0.0
C1701 C 0.40687 0.11876 0.828 0.0
C1702 C 0.42043 0.10977 0.83887 0.0
C1703 C 0.45732 0.08127 0.87053 0.0
C1704 C 0.44509 0.09133 0.85953 0.0
H1705 H 0.33606 0.10009 0.8149 0.0
H1706 H 0.35835 0.08829 0.83353 0.0
H1707 H 0.4549 0.10545 0.82745 0.0
H1708 H 0.46968 0.0217 0.87977 0.0
H1709 H 0.45961 0.04393 0.86048 0.0
C1710 C 0.95063 0.2564 0.5467 0.0
C1711 C 0.96446 0.26103 0.55882 0.0
C1712 C 0.96862 0.26059 0.53562 0.0
C1713 C 0.0523 0.30436 0.52547 0.0
H1714 H 1.01977 0.26154 0.49326 0.0
C1715 C 0.12739 0.34363 0.47878 0.0
C1716 C 0.11133 0.34683 0.46832 0.0
C1717 C 0.11076 0.32779 0.4899 0.0
C1718 C 0.02927 0.27377 0.50219 0.0
H1719 H 1.00686 0.27105 0.56895 0.0
H1720 H 0.03757 0.27707 0.54985 0.0
H1721 H 0.987 0.24309 0.5124 0.0
H1722 H 0.0652 0.33442 0.46106 0.0
H1723 H 0.03682 0.30717 0.48004 0.0
H1724 H 0.0942 0.33556 0.5152 0.0
C1725 C 1.01339 0.27134 0.54873 0.0
C1726 C 1.01038 0.26322 0.51317 0.0
C1727 C 0.99564 0.26751 0.5597 0.0
C1728 C 0.07845 0.33268 0.46897 0.0
C1729 C 0.06198 0.31666 0.47987 0.0
C1730 C 0.07117 0.3149 0.5145 0.0
C1731 C 1.00064 0.26928 0.53651 0.0
C1732 C 1.0214 0.27868 0.52493 0.0
C1733 C 0.0778 0.31442 0.49061 0.0
C1734 C 0.0597 0.3002 0.50264 0.0
H1735 H 0.92678 0.25182 0.54576 0.0
H1736 H 0.95794 0.25886 0.52639 0.0
H1737 H 0.06158 0.31728 0.53428 0.0
H1738 H 0.15269 0.35428 0.47855 0.0
H1739 H 0.12369 0.32634 0.49799 0.0
C1740 C 0.75462 0.78429 0.46866 0.0
C1741 C 0.73503 0.79745 0.46817 0.0
C1742 C 0.76782 0.78225 0.48014 0.0
C1743 C 0.75309 0.77792 0.51483 0.0
H1744 H 0.83139 0.77687 0.51646 0.0
C1745 C 0.79382 0.75079 0.56189 0.0
C1746 C 0.80308 0.72805 0.56149 0.0
C1747 C 0.79102 0.76458 0.55071 0.0
C1748 C 0.80941 0.77692 0.51614 0.0
H1749 H 0.71543 0.82061 0.47926 0.0
H1750 H 0.73901 0.81749 0.49957 0.0
H1751 H 0.81725 0.79395 0.49689 0.0
H1752 H 0.81863 0.7033 0.54912 0.0
H1753 H 0.81363 0.72753 0.5293 0.0
H1754 H 0.74513 0.76071 0.53403 0.0
C1755 C 0.74369 0.80821 0.49099 0.0
C1756 C 0.80124 0.78675 0.50492 0.0
C1757 C 0.73042 0.81034 0.47936 0.0
C1758 C 0.81159 0.72087 0.54969 0.0
C1759 C 0.80862 0.7347 0.53838 0.0
C1760 C 0.76136 0.76834 0.52606 0.0
C1761 C 0.76194 0.79337 0.49158 0.0
C1762 C 0.77268 0.78689 0.50402 0.0
C1763 C 0.7972 0.75591 0.53875 0.0
C1764 C 0.78944 0.76737 0.52683 0.0
H1765 H 0.75884 0.77433 0.46016 0.0
H1766 H 0.78131 0.77036 0.48011 0.0
H1767 H 0.73067 0.77704 0.5145 0.0
H1768 H 0.78753 0.75715 0.57088 0.0
H1769 H 0.78303 0.7814 0.55142 0.0
C1770 C 0.31706 0.96121 0.47975 0.0
C1771 C 0.28806 0.94788 0.47341 0.0
C1772 C 0.32318 0.98098 0.49021 0.0
C1773 C 0.29169 1.01007 0.51503 0.0
H1774 H 0.37001 0.08776 0.50972 0.0
C1775 C 0.33627 0.11288 0.55127 0.0
C1776 C 0.36842 0.12771 0.55431 0.0
C1777 C 0.32424 0.09241 0.54081 0.0
C1778 C 0.34825 0.06618 0.51147 0.0
H1779 H 0.24191 0.94316 0.47354 0.0
H1780 H 0.25247 0.97768 0.49218 0.0
H1781 H 0.35192 0.04633 0.49381 0.0
H1782 H 0.41333 0.1339 0.54832 0.0
H1783 H 0.39254 0.09824 0.53024 0.0
H1784 H 0.28852 0.02958 0.53292 0.0
C1785 C 0.27042 0.97262 0.48899 0.0
C1786 C 0.33782 0.04241 0.5023 0.0
C1787 C 0.26424 0.95262 0.47842 0.0
C1788 C 0.38849 0.123 0.54622 0.0
C1789 C 0.37647 0.10248 0.53581 0.0
C1790 C 0.30232 0.03383 0.52432 0.0
C1791 C 0.30051 0.98814 0.49458 0.0
C1792 C 0.30976 1.01385 0.50407 0.0
C1793 C 0.34405 0.08626 0.53312 0.0
C1794 C 0.33107 0.06204 0.52276 0.0
H1795 H 0.33591 0.95814 0.47602 0.0
H1796 H 0.34635 0.99203 0.49447 0.0
H1797 H 0.26998 0.98834 0.51665 0.0
H1798 H 0.32016 0.11603 0.5573 0.0
H1799 H 0.29928 0.08092 0.53892 0.0
C1800 C 0.59752 0.47687 0.1048 0.0
C1801 C 0.57565 0.48358 0.11055 0.0
C1802 C 0.5919 0.44606 0.10425 0.0
C1803 C 0.54392 0.36651 0.11818 0.0
H1804 H 0.55759 0.33847 0.08541 0.0
C1805 C 0.494 0.23499 0.10696 0.0
C1806 C 0.5116 0.22612 0.09919 0.0
C1807 C 0.50336 0.26664 0.10876 0.0
C1808 C 0.55407 0.34591 0.09471 0.0
H1809 H 0.53129 0.46297 0.12073 0.0
H1810 H 0.5217 0.40947 0.11986 0.0
H1811 H 0.572 0.39311 0.08827 0.0
H1812 H 0.55321 0.24381 0.08737 0.0
H1813 H 0.56987 0.29901 0.09065 0.0
H1814 H 0.52607 0.31941 0.12466 0.0
C1815 C 0.54322 0.42805 0.11576 0.0
C1816 C 0.56233 0.37734 0.09634 0.0
C1817 C 0.5487 0.45881 0.11623 0.0
C1818 C 0.53889 0.24978 0.09329 0.0
C1819 C 0.5484 0.28149 0.09516 0.0
C1820 C 0.53584 0.33512 0.11658 0.0
C1821 C 0.56441 0.42116 0.10953 0.0
C1822 C 0.55713 0.38802 0.10806 0.0
C1823 C 0.53074 0.29041 0.10291 0.0
C1824 C 0.54051 0.32424 0.10478 0.0
H1825 H 0.61856 0.49526 0.10033 0.0
H1826 H 0.60897 0.44169 0.09956 0.0
H1827 H 0.53997 0.37399 0.12739 0.0
H1828 H 0.47258 0.2174 0.11149 0.0
H1829 H 0.48873 0.27239 0.11458 0.0
C1830 C 0.60978 0.10921 0.11576 0.0
C1831 C 0.58401 0.11212 0.11183 0.0
C1832 C 0.64036 0.1348 0.11522 0.0
C1833 C 0.68804 0.21164 0.09902 0.0
H1834 H 0.75072 0.22089 0.12374 0.0
C1835 C 0.82184 0.29422 0.09062 0.0
C1836 C 0.84105 0.30884 0.10129 0.0
C1837 C 0.78987 0.27221 0.09219 0.0
C1838 C 0.73355 0.21903 0.11681 0.0
H1839 H 0.57043 0.14495 0.10467 0.0
H1840 H 0.62367 0.18975 0.10402 0.0
H1841 H 0.69647 0.18004 0.12666 0.0
H1842 H 0.84123 0.31297 0.12192 0.0
H1843 H 0.78567 0.27532 0.12464 0.0
H1844 H 0.72512 0.2511 0.0893 0.0
C1845 C 0.62027 0.16741 0.10727 0.0
C1846 C 0.70235 0.19519 0.1184 0.0
C1847 C 0.58962 0.14172 0.10777 0.0
C1848 C 0.82725 0.30173 0.11351 0.0
C1849 C 0.79533 0.27998 0.11507 0.0
C1850 C 0.71928 0.23562 0.09745 0.0
C1851 C 0.64616 0.1642 0.11079 0.0
C1852 C 0.67913 0.1909 0.10947 0.0
C1853 C 0.77622 0.26443 0.10446 0.0
C1854 C 0.74258 0.23955 0.10628 0.0
H1855 H 0.60656 0.08683 0.11888 0.0
H1856 H 0.65956 0.13114 0.11787 0.0
H1857 H 0.67101 0.20897 0.09185 0.0
H1858 H 0.83176 0.29896 0.08109 0.0
H1859 H 0.77612 0.26057 0.08378 0.0
C1860 C 0.79218 0.57198 0.09137 0.0
C1861 C 0.76187 0.55467 0.09665 0.0
C1862 C 0.81502 0.56353 0.09371 0.0
C1863 C 0.82562 0.49755 0.10521 0.0
H1864 H 0.9123 0.56348 0.10856 0.0
C1865 C 0.92941 0.47265 0.10561 0.0
C1866 C 0.95662 0.4927 0.11261 0.0
C1867 C 0.90453 0.47876 0.10465 0.0
C1868 C 0.8882 0.54467 0.10784 0.0
H1869 H 0.73205 0.51429 0.10842 0.0
H1870 H 0.77206 0.50024 0.11282 0.0
H1871 H 0.87175 0.57704 0.10509 0.0
H1872 H 0.97801 0.53405 0.12466 0.0
H1873 H 0.93442 0.5441 0.12333 0.0
H1874 H 0.84208 0.4652 0.10831 0.0
C1875 C 0.77808 0.52016 0.1067 0.0
C1876 C 0.86487 0.55249 0.10561 0.0
C1877 C 0.75515 0.52851 0.1043 0.0
C1878 C 0.95759 0.51817 0.11911 0.0
C1879 C 0.93261 0.52413 0.11824 0.0
C1880 C 0.84898 0.48972 0.10751 0.0
C1881 C 0.80844 0.53761 0.10148 0.0
C1882 C 0.83322 0.52908 0.10416 0.0
C1883 C 0.906 0.50499 0.11073 0.0
C1884 C 0.88069 0.51316 0.10879 0.0
H1885 H 0.79857 0.5925 0.08558 0.0
H1886 H 0.83787 0.57733 0.08932 0.0
H1887 H 0.80164 0.47877 0.10403 0.0
H1888 H 0.9278 0.45289 0.1004 0.0
H1889 H 0.8847 0.46357 0.09869 0.0
C1890 C 0.48167 0.58162 0.92019 0.0
C1891 C 0.48894 0.55815 0.91706 0.0
C1892 C 0.45038 0.57463 0.92108 0.0
C1893 C 0.37135 0.50799 0.92753 0.0
H1894 H 0.34189 0.56296 0.91521 0.0
C1895 C 0.23979 0.46996 0.92816 0.0
C1896 C 0.23083 0.49245 0.93071 0.0
C1897 C 0.27133 0.47881 0.92637 0.0
C1898 C 0.34978 0.54752 0.91888 0.0
H1899 H 0.46863 0.50911 0.91193 0.0
H1900 H 0.41431 0.49709 0.91345 0.0
H1901 H 0.39652 0.57698 0.91177 0.0
H1902 H 0.24861 0.54216 0.93343 0.0
H1903 H 0.30376 0.5575 0.93074 0.0
H1904 H 0.32504 0.47879 0.93484 0.0
C1905 C 0.43283 0.52083 0.91536 0.0
C1906 C 0.38113 0.55553 0.91685 0.0
C1907 C 0.46407 0.52783 0.91438 0.0
C1908 C 0.25453 0.5241 0.9316 0.0
C1909 C 0.28621 0.53297 0.92987 0.0
C1910 C 0.34015 0.5001 0.92963 0.0
C1911 C 0.42555 0.54397 0.91897 0.0
C1912 C 0.39224 0.53574 0.92107 0.0
C1913 C 0.29507 0.51043 0.9272 0.0
C1914 C 0.32878 0.51959 0.92526 0.0
H1915 H 0.50012 0.60524 0.92233 0.0
H1916 H 0.44565 0.59301 0.92393 0.0
H1917 H 0.37924 0.49252 0.93115 0.0
H1918 H 0.22241 0.44531 0.9276 0.0
H1919 H 0.277 0.46073 0.92417 0.0
C1920 C 0.52502 0.9476 0.91087 0.0
C1921 C 0.4983 0.94593 0.91659 0.0
C1922 C 0.53039 0.92225 0.91155 0.0
C1923 C 0.51119 0.85319 0.93155 0.0
H1924 H 0.5471 0.82997 0.90354 0.0
C1925 C 0.53273 0.74802 0.93552 0.0
C1926 C 0.55991 0.75089 0.92977 0.0
C1927 C 0.52372 0.77051 0.93337 0.0
C1928 C 0.53742 0.83634 0.91153 0.0
H1929 H 0.45561 0.91543 0.92707 0.0
H1930 H 0.46496 0.87133 0.92818 0.0
H1931 H 0.53366 0.87093 0.90045 0.0
H1932 H 0.59914 0.78012 0.91739 0.0
H1933 H 0.58382 0.81949 0.91381 0.0
H1934 H 0.51551 0.8192 0.94274 0.0
C1935 C 0.48198 0.89245 0.92331 0.0
C1936 C 0.52961 0.85982 0.90973 0.0
C1937 C 0.4765 0.91772 0.92257 0.0
C1938 C 0.57782 0.77687 0.92182 0.0
C1939 C 0.56894 0.79947 0.91974 0.0
C1940 C 0.51916 0.82986 0.93338 0.0
C1941 C 0.50929 0.89457 0.91802 0.0
C1942 C 0.51648 0.86865 0.91972 0.0
C1943 C 0.54175 0.79668 0.92549 0.0
C1944 C 0.53253 0.82113 0.92342 0.0
H1945 H 0.54239 0.96888 0.9062 0.0
H1946 H 0.55177 0.92485 0.90743 0.0
H1947 H 0.50162 0.8597 0.93954 0.0
H1948 H 0.51811 0.7281 0.94155 0.0
H1949 H 0.50235 0.76713 0.9378 0.0
C1950 C 0.32313 0.80927 0.92591 0.0
C1951 C 0.31518 0.82991 0.93197 0.0
C1952 C 0.30053 0.77771 0.9239 0.0
C1953 C 0.21355 0.7239 0.92283 0.0
H1954 H 0.23591 0.6589 0.92416 0.0
C1955 C 0.12212 0.59599 0.91042 0.0
C1956 C 0.12181 0.57206 0.91786 0.0
C1957 C 0.14721 0.62683 0.91116 0.0
C1958 C 0.2291 0.67665 0.92384 0.0
H1959 H 0.27662 0.83278 0.94068 0.0
H1960 H 0.23793 0.77792 0.93773 0.0
H1961 H 0.27583 0.71316 0.92814 0.0
H1962 H 0.14846 0.5619 0.93162 0.0
H1963 H 0.19173 0.6156 0.93315 0.0
H1964 H 0.16662 0.68743 0.91911 0.0
C1965 C 0.2615 0.7862 0.93423 0.0
C1966 C 0.25221 0.70799 0.92597 0.0
C1967 C 0.28399 0.81777 0.93614 0.0
C1968 C 0.14792 0.57961 0.92568 0.0
C1969 C 0.17288 0.61057 0.92654 0.0
C1970 C 0.19044 0.6926 0.92082 0.0
C1971 C 0.26927 0.76569 0.92795 0.0
C1972 C 0.24478 0.73214 0.92555 0.0
C1973 C 0.17261 0.63483 0.9195 0.0
C1974 C 0.19777 0.66841 0.9213 0.0
H1975 H 0.3469 0.81742 0.9227 0.0
H1976 H 0.30754 0.76291 0.91893 0.0
H1977 H 0.2068 0.74167 0.92219 0.0
H1978 H 0.10257 0.59107 0.90421 0.0
H1979 H 0.14639 0.64451 0.90531 0.0
C1980 C 0.25543 0.80994 0.43718 0.0
C1981 C 0.23464 0.81808 0.44296 0.0
C1982 C 0.24784 0.7786 0.43626 0.0
C1983 C 0.19548 0.69866 0.4491 0.0
H1984 H 0.21465 0.67266 0.41695 0.0
C1985 C 0.18236 0.57562 0.4416 0.0
C1986 C 0.17022 0.5606 0.4298 0.0
C1987 C 0.18979 0.60674 0.44357 0.0
C1988 C 0.20891 0.67941 0.42597 0.0
H1989 H 0.1898 0.79934 0.45263 0.0
H1990 H 0.17653 0.74456 0.45098 0.0
H1991 H 0.2282 0.72701 0.41991 0.0
H1992 H 0.1557 0.56679 0.41095 0.0
H1993 H 0.16893 0.62092 0.41435 0.0
H1994 H 0.17577 0.65081 0.45506 0.0
C1995 C 0.19885 0.76255 0.44723 0.0
C1996 C 0.21705 0.71074 0.42773 0.0
C1997 C 0.20644 0.79401 0.44815 0.0
C1998 C 0.16558 0.57762 0.42008 0.0
C1999 C 0.17313 0.60874 0.42203 0.0
C2000 C 0.18746 0.66728 0.44736 0.0
C2001 C 0.21924 0.7544 0.44108 0.0
C2002 C 0.21049 0.72086 0.43932 0.0
C2003 C 0.18543 0.62379 0.43379 0.0
C2004 C 0.19402 0.65722 0.43575 0.0
H2005 H 0.27747 0.82777 0.43314 0.0
H2006 H 0.26443 0.77333 0.43169 0.0
H2007 H 0.19024 0.7056 0.45818 0.0
H2008 H 0.18672 0.56354 0.44926 0.0
H2009 H 0.19959 0.61765 0.45269 0.0
C2010 C 0.49636 0.61073 0.42455 0.0
C2011 C 0.50862 0.64033 0.43038 0.0
C2012 C 0.4651 0.58733 0.4265 0.0
C2013 C 0.38764 0.57443 0.43833 0.0
H2014 H 0.36739 0.48768 0.43905 0.0
C2015 C 0.2592 0.47199 0.43694 0.0
C2016 C 0.2514 0.44351 0.44301 0.0
C2017 C 0.29038 0.49644 0.43634 0.0
C2018 C 0.37253 0.51176 0.43907 0.0
H2019 H 0.49671 0.66829 0.44273 0.0
H2020 H 0.44291 0.62726 0.44657 0.0
H2021 H 0.42155 0.52887 0.43635 0.0
H2022 H 0.2705 0.41911 0.45364 0.0
H2023 H 0.32466 0.46207 0.453 0.0
H2024 H 0.33878 0.55737 0.44153 0.0
C2025 C 0.45728 0.62224 0.44025 0.0
C2026 C 0.40373 0.53551 0.43728 0.0
C2027 C 0.48847 0.64577 0.43819 0.0
C2028 C 0.27557 0.4406 0.44884 0.0
C2029 C 0.30678 0.46524 0.44835 0.0
C2030 C 0.35648 0.55069 0.44025 0.0
C2031 C 0.44509 0.59257 0.43448 0.0
C2032 C 0.41178 0.56724 0.43675 0.0
C2033 C 0.31477 0.49337 0.4419 0.0
C2034 C 0.34834 0.51892 0.44053 0.0
H2035 H 0.51104 0.60528 0.41862 0.0
H2036 H 0.45664 0.56511 0.42167 0.0
H2037 H 0.39262 0.59843 0.43786 0.0
H2038 H 0.24136 0.47513 0.43224 0.0
H2039 H 0.29538 0.51738 0.4311 0.0
C2040 C 0.62926 0.85686 0.45012 0.0
C2041 C 0.62656 0.82985 0.44431 0.0
C2042 C 0.60464 0.8634 0.44952 0.0
C2043 C 0.51931 0.82848 0.44159 0.0
H2044 H 0.54267 0.91533 0.43627 0.0
C2045 C 0.42937 0.86647 0.42637 0.0
C2046 C 0.43197 0.89352 0.43211 0.0
C2047 C 0.45237 0.85799 0.42836 0.0
C2048 C 0.53565 0.89099 0.43789 0.0
H2049 H 0.59502 0.78799 0.43365 0.0
H2050 H 0.55239 0.79955 0.43245 0.0
H2051 H 0.58335 0.90152 0.43912 0.0
H2052 H 0.46127 0.93299 0.44437 0.0
H2053 H 0.50115 0.91817 0.44788 0.0
H2054 H 0.47152 0.81802 0.44013 0.0
C2055 C 0.57342 0.81559 0.43763 0.0
C2056 C 0.55907 0.88302 0.43957 0.0
C2057 C 0.59802 0.80896 0.43829 0.0
C2058 C 0.45825 0.91185 0.43989 0.0
C2059 C 0.48135 0.90351 0.44179 0.0
C2060 C 0.49586 0.83646 0.43984 0.0
C2061 C 0.57657 0.84324 0.44302 0.0
C2062 C 0.55131 0.85164 0.44147 0.0
C2063 C 0.47877 0.87647 0.43605 0.0
C2064 C 0.5037 0.86784 0.43797 0.0
H2065 H 0.65075 0.87347 0.4549 0.0
H2066 H 0.60781 0.88454 0.45406 0.0
H2067 H 0.51225 0.80414 0.44319 0.0
H2068 H 0.40936 0.85161 0.42042 0.0
H2069 H 0.44968 0.83718 0.42368 0.0
C2070 C 0.91747 0.84883 0.25326 0.0
C2071 C 0.90043 0.83125 0.26399 0.0
C2072 C 0.94899 0.85728 0.25154 0.0
C2073 C 1.01917 0.86853 0.26905 0.0
H2074 H 0.04845 0.8603 0.23561 0.0
C2075 C 0.15057 0.91526 0.25893 0.0
C2076 C 0.15837 0.8953 0.25223 0.0
C2077 C 0.11943 0.90861 0.25969 0.0
C2078 C 0.04063 0.86265 0.24502 0.0
H2079 H 0.90376 0.80877 0.28129 0.0
H2080 H 0.95874 0.82407 0.27842 0.0
H2081 H 0.99357 0.84616 0.23852 0.0
H2082 H 0.1393 0.85316 0.24068 0.0
H2083 H 0.08494 0.84168 0.24195 0.0
H2084 H 0.06604 0.88472 0.27559 0.0
C2085 C 0.94767 0.83145 0.27136 0.0
C2086 C 1.00923 0.85481 0.24666 0.0
C2087 C 0.91608 0.82277 0.27303 0.0
C2088 C 0.13425 0.86912 0.2459 0.0
C2089 C 0.10305 0.86255 0.24661 0.0
C2090 C 0.05057 0.87662 0.26738 0.0
C2091 C 0.9645 0.84867 0.26056 0.0
C2092 C 0.99806 0.85752 0.25872 0.0
C2093 C 0.09516 0.88189 0.25373 0.0
C2094 C 0.06173 0.87372 0.25536 0.0
H2095 H 0.90656 0.85636 0.2462 0.0
H2096 H 0.96136 0.87095 0.24322 0.0
H2097 H 1.01146 0.87117 0.27844 0.0
H2098 H 0.16842 0.93573 0.2639 0.0
H2099 H 0.11431 0.92432 0.26507 0.0
C2100 C 0.26657 0.12378 0.26765 0.0
C2101 C 0.25267 0.09595 0.26041 0.0
C2102 C 0.25783 0.14658 0.26587 0.0
C2103 C 0.19415 0.15806 0.25223 0.0
H2104 H 0.25632 0.24596 0.25586 0.0
C2105 C 0.15985 0.25464 0.25569 0.0
C2106 C 0.18035 0.28454 0.25064 0.0
C2107 C 0.1683 0.23137 0.25594 0.0
C2108 C 0.23864 0.22157 0.25464 0.0
H2109 H 0.21827 0.07057 0.24561 0.0
H2110 H 0.20387 0.11061 0.24222 0.0
H2111 H 0.27209 0.20662 0.25789 0.0
H2112 H 0.22552 0.31282 0.24146 0.0
H2113 H 0.23986 0.27211 0.24158 0.0
H2114 H 0.16085 0.17308 0.24866 0.0
C2115 C 0.22123 0.11465 0.24945 0.0
C2116 C 0.24764 0.19886 0.25601 0.0
C2117 C 0.22986 0.09177 0.25128 0.0
C2118 C 0.20913 0.29017 0.24548 0.0
C2119 C 0.21751 0.26682 0.24566 0.0
C2120 C 0.18517 0.18078 0.2508 0.0
C2121 C 0.23501 0.1424 0.25674 0.0
C2122 C 0.22551 0.16672 0.25492 0.0
C2123 C 0.19744 0.23721 0.25108 0.0
C2124 C 0.20723 0.21291 0.25207 0.0
H2125 H 0.28449 0.12817 0.27466 0.0
H2126 H 0.26875 0.16735 0.2718 0.0
H2127 H 0.17628 0.13362 0.25145 0.0
H2128 H 0.13756 0.24938 0.25983 0.0
H2129 H 0.15231 0.20912 0.26035 0.0
C2130 C 0.7852 0.92746 0.2431 0.0
C2131 C 0.78692 0.90232 0.24863 0.0
C2132 C 0.81077 0.95807 0.24368 0.0
C2133 C 0.88087 1.00728 0.26332 0.0
H2134 H 0.90285 0.06723 0.23576 0.0
C2135 C 0.98635 0.13365 0.26745 0.0
C2136 C 0.98307 0.15815 0.2622 0.0
C2137 C 0.96379 0.10227 0.26515 0.0
C2138 C 0.89683 0.05093 0.24362 0.0
H2139 H 0.81776 0.88983 0.25864 0.0
H2140 H 0.86229 0.94309 0.25956 0.0
H2141 H 0.8617 1.01294 0.23254 0.0
H2142 H 0.95314 0.16859 0.25048 0.0
H2143 H 0.91368 0.11404 0.2466 0.0
H2144 H 0.91542 0.04523 0.27451 0.0
C2145 C 0.84094 0.93915 0.25492 0.0
C2146 C 0.87324 0.01971 0.24175 0.0
C2147 C 0.81543 0.9085 0.25428 0.0
C2148 C 0.95668 0.15037 0.25454 0.0
C2149 C 0.93403 0.11899 0.25229 0.0
C2150 C 0.90432 0.03851 0.26522 0.0
C2151 C 0.83875 0.96446 0.24986 0.0
C2152 C 0.86485 0.99746 0.25159 0.0
C2153 C 0.93718 0.09443 0.25759 0.0
C2154 C 0.9126 0.06088 0.25542 0.0
H2155 H 0.76369 0.92373 0.23868 0.0
H2156 H 0.80811 0.97693 0.23975 0.0
H2157 H 0.87469 0.991 0.27121 0.0
H2158 H 1.0066 0.13872 0.27323 0.0
H2159 H 0.96745 0.08414 0.26921 0.0
C2160 C 0.8315 0.90974 0.75848 0.0
C2161 C 0.84972 0.89806 0.76399 0.0
C2162 C 0.83937 0.94102 0.76022 0.0
C2163 C 0.90477 0.01927 0.77071 0.0
H2164 H 0.83767 0.03865 0.7729 0.0
C2165 C 0.92883 0.14694 0.76914 0.0
C2166 C 0.90852 0.1546 0.77565 0.0
C2167 C 0.92255 0.11593 0.76859 0.0
C2168 C 0.8568 0.03377 0.77251 0.0
H2169 H 0.89119 0.91102 0.77547 0.0
H2170 H 0.90401 0.96488 0.77896 0.0
H2171 H 0.82503 0.98464 0.77038 0.0
H2172 H 0.86628 0.13552 0.78718 0.0
H2173 H 0.85593 0.08173 0.78664 0.0
H2174 H 0.9365 0.06829 0.77334 0.0
C2175 C 0.88389 0.95003 0.77307 0.0
C2176 C 0.84951 1.00264 0.77082 0.0
C2177 C 0.87623 0.91882 0.77121 0.0
C2178 C 0.88237 0.13053 0.78201 0.0
C2179 C 0.87627 0.09953 0.78159 0.0
C2180 C 0.91205 0.05037 0.77255 0.0
C2181 C 0.8655 0.96162 0.76765 0.0
C2182 C 0.87337 0.99489 0.76977 0.0
C2183 C 0.89593 0.09163 0.77466 0.0
C2184 C 0.88819 0.05819 0.77336 0.0
H2185 H 0.81067 0.89459 0.753 0.0
H2186 H 0.82487 0.94901 0.75567 0.0
H2187 H 0.92391 0.0145 0.76983 0.0
H2188 H 0.9491 0.16473 0.76404 0.0
H2189 H 0.93808 0.11097 0.76301 0.0
C2190 C 0.16883 0.9393 0.76233 0.0
C2191 C 0.18223 0.96907 0.7681 0.0
C2192 C 0.13705 0.91708 0.7641 0.0
C2193 C 0.06045 0.90858 0.77458 0.0
H2194 H 0.03593 0.8208 0.77684 0.0
C2195 C 0.92987 0.80836 0.77278 0.0
C2196 C 0.92116 0.78057 0.77961 0.0
C2197 C 0.96135 0.83243 0.77226 0.0
C2198 C 0.04225 0.84521 0.77639 0.0
H2199 H 0.1719 0.99856 0.78021 0.0
H2200 H 0.11695 0.95962 0.78362 0.0
H2201 H 0.09097 0.85993 0.77436 0.0
H2202 H 0.93887 0.75734 0.79184 0.0
H2203 H 0.99326 0.79942 0.79123 0.0
H2204 H 1.01169 0.89381 0.77693 0.0
C2205 C 0.13094 0.95356 0.77754 0.0
C2206 C 0.07397 0.86774 0.77475 0.0
C2207 C 0.16273 0.97584 0.77572 0.0
C2208 C 0.9446 0.77822 0.7864 0.0
C2209 C 0.97599 0.80233 0.78594 0.0
C2210 C 0.02868 0.88601 0.77626 0.0
C2211 C 0.11757 0.92379 0.77177 0.0
C2212 C 0.08361 0.8998 0.77375 0.0
C2213 C 0.98503 0.82951 0.7786 0.0
C2214 C 1.01905 0.85393 0.77717 0.0
H2215 H 0.18299 0.93291 0.75652 0.0
H2216 H 0.1277 0.89468 0.75933 0.0
H2217 H 0.06674 0.93293 0.77372 0.0
H2218 H 0.91258 0.81104 0.76738 0.0
H2219 H 0.96723 0.85279 0.76643 0.0
C2220 C 0.26516 0.14678 0.77009 0.0
C2221 C 0.29336 0.16712 0.77644 0.0
C2222 C 0.24097 0.1538 0.76923 0.0
C2223 C 0.21014 0.20257 0.7829 0.0
H2224 H 0.17141 0.19092 0.74955 0.0
C2225 C 0.10165 0.21741 0.77367 0.0
C2226 C 0.10177 0.23308 0.76239 0.0
C2227 C 0.12476 0.20924 0.77586 0.0
C2228 C 0.18206 0.19448 0.75891 0.0
H2229 H 0.31752 0.21031 0.78731 0.0
H2230 H 0.27518 0.22248 0.78583 0.0
H2231 H 0.21171 0.17666 0.75284 0.0
H2232 H 0.12709 0.25297 0.74471 0.0
H2233 H 0.16692 0.23831 0.74844 0.0
H2234 H 0.18063 0.22076 0.78891 0.0
C2235 C 0.27183 0.20102 0.78154 0.0
C2236 C 0.20495 0.18595 0.76085 0.0
C2237 C 0.29616 0.19406 0.78236 0.0
C2238 C 0.12574 0.24038 0.75339 0.0
C2239 C 0.1487 0.23203 0.75554 0.0
C2240 C 0.18703 0.21089 0.78099 0.0
C2241 C 0.24419 0.1813 0.77472 0.0
C2242 C 0.21936 0.18994 0.77285 0.0
C2243 C 0.1485 0.21631 0.76679 0.0
C2244 C 0.1728 0.20708 0.76895 0.0
H2245 H 0.26199 0.12572 0.76547 0.0
H2246 H 0.21979 0.13778 0.76411 0.0
H2247 H 0.22061 0.20579 0.79229 0.0
H2248 H 0.08336 0.21091 0.78076 0.0
H2249 H 0.12365 0.19679 0.78455 0.0
C2250 C 0.57338 0.14152 0.59958 0.0
C2251 C 0.55978 0.15696 0.59319 0.0
C2252 C 0.60505 0.15064 0.59777 0.0
C2253 C 0.68114 0.21677 0.5859 0.0
H2254 H 0.70584 0.15344 0.58591 0.0
C2255 C 0.81181 0.24781 0.58809 0.0
C2256 C 0.82054 0.22794 0.58189 0.0
C2257 C 0.78028 0.24024 0.58857 0.0
C2258 C 0.69945 0.1715 0.58571 0.0
H2259 H 0.56959 0.19459 0.57991 0.0
H2260 H 0.62434 0.20978 0.57645 0.0
H2261 H 0.65083 0.13788 0.58832 0.0
H2262 H 0.80273 0.1852 0.57078 0.0
H2263 H 0.74817 0.17254 0.57133 0.0
H2264 H 0.72976 0.25032 0.58298 0.0
C2265 C 0.6106 0.19084 0.58304 0.0
C2266 C 0.66777 0.16256 0.58731 0.0
C2267 C 0.57893 0.18179 0.5849 0.0
C2268 C 0.797 0.20102 0.57572 0.0
C2269 C 0.76553 0.19356 0.57615 0.0
C2270 C 0.71285 0.22571 0.58425 0.0
C2271 C 0.6242 0.17542 0.58945 0.0
C2272 C 0.65808 0.18505 0.5875 0.0
C2273 C 0.75654 0.21267 0.58282 0.0
C2274 C 0.72255 0.20322 0.58418 0.0
H2275 H 0.55947 0.12207 0.60593 0.0
H2276 H 0.6146 0.13839 0.60303 0.0
H2277 H 0.6748 0.23488 0.58612 0.0
H2278 H 0.82918 0.26867 0.593 0.0
H2279 H 0.77443 0.25548 0.5939 0.0
C2280 C 0.86049 0.41112 0.58953 0.0
C2281 C 0.88833 0.418 0.596 0.0
C2282 C 0.85235 0.4343 0.58756 0.0
C2283 C 0.88719 0.52138 0.58759 0.0
H2284 H 0.80013 0.50063 0.58744 0.0
C2285 C 0.85429 0.61588 0.57607 0.0
C2286 C 0.83004 0.61566 0.58327 0.0
C2287 C 0.85944 0.59037 0.57643 0.0
C2288 C 0.82461 0.50699 0.58755 0.0
H2289 H 0.92921 0.45519 0.60554 0.0
H2290 H 0.9143 0.49483 0.60271 0.0
H2291 H 0.81305 0.45972 0.59132 0.0
H2292 H 0.79143 0.58767 0.59617 0.0
H2293 H 0.80085 0.54379 0.59707 0.0
H2294 H 0.8989 0.56884 0.58446 0.0
C2295 C 0.89907 0.4717 0.59882 0.0
C2296 C 0.83204 0.48332 0.5896 0.0
C2297 C 0.90738 0.44864 0.60067 0.0
C2298 C 0.81025 0.58868 0.59042 0.0
C2299 C 0.81563 0.56334 0.59091 0.0
C2300 C 0.87979 0.54506 0.58567 0.0
C2301 C 0.87163 0.46505 0.59209 0.0
C2302 C 0.86348 0.49016 0.58972 0.0
C2303 C 0.84075 0.56405 0.58414 0.0
C2304 C 0.84839 0.53831 0.58565 0.0
H2305 H 0.84488 0.38777 0.58594 0.0
H2306 H 0.83117 0.42816 0.58224 0.0
H2307 H 0.91165 0.52767 0.58736 0.0
H2308 H 0.86988 0.63613 0.57037 0.0
H2309 H 0.87849 0.59158 0.5708 0.0
C2310 C 0.45174 0.27216 0.57829 0.0
C2311 C 0.45239 0.24845 0.58555 0.0
C2312 C 0.47636 0.30328 0.57909 0.0
C2313 C 0.53824 0.35687 0.60121 0.0
H2314 H 0.5735 0.41062 0.57162 0.0
C2315 C 0.6452 0.48184 0.60588 0.0
C2316 C 0.64642 0.5055 0.598 0.0
C2317 C 0.62232 0.45041 0.60396 0.0
C2318 C 0.56367 0.39612 0.58002 0.0
H2319 H 0.48013 0.23899 0.59906 0.0
H2320 H 0.52271 0.29301 0.60046 0.0
H2321 H 0.53221 0.3562 0.56876 0.0
H2322 H 0.62418 0.51468 0.58202 0.0
H2323 H 0.58387 0.46015 0.57884 0.0
H2324 H 0.56891 0.39666 0.61253 0.0
C2325 C 0.50306 0.2876 0.59423 0.0
C2326 C 0.54003 0.36484 0.57835 0.0
C2327 C 0.47867 0.25653 0.59334 0.0
C2328 C 0.62416 0.49697 0.58815 0.0
C2329 C 0.60107 0.4656 0.58631 0.0
C2330 C 0.5616 0.38816 0.60289 0.0
C2331 C 0.50203 0.31146 0.58727 0.0
C2332 C 0.52712 0.3448 0.58893 0.0
C2333 C 0.59976 0.4418 0.59418 0.0
C2334 C 0.57479 0.40829 0.59233 0.0
H2335 H 0.43191 0.26684 0.57219 0.0
H2336 H 0.47478 0.32112 0.57364 0.0
H2337 H 0.52843 0.34221 0.60958 0.0
H2338 H 0.66224 0.48758 0.61345 0.0
H2339 H 0.62258 0.43283 0.61007 0.0
loop_
_geom_bond_atom_site_label_1
_geom_bond_atom_site_label_2
_geom_bond_distance
_geom_bond_site_symmetry_2
_ccdc_geom_bond_type
Nd0 C2 2.836 . S
Nd0 O20 2.500 . S
Nd0 O21 2.492 . S
Nd0 O22 2.487 . S
Nd0 O23 2.682 1_545 S
Nd0 O24 2.410 . S
Nd0 O29 2.414 . S
Nd0 O31 2.424 1_545 S
Nd1 C11 2.836 . S
Nd1 O23 2.414 . S
Nd1 O25 2.424 1_565 S
Nd1 O26 2.500 . S
Nd1 O27 2.492 . S
Nd1 O28 2.487 . S
Nd1 O29 2.682 1_565 S
Nd1 O30 2.410 . S
C2 Nd0 2.836 . S
C2 C3 1.498 . S
C2 O20 1.258 . S
C2 O21 1.239 . S
C3 C2 1.498 . S
C3 C4 1.366 . S
C3 C8 1.407 . S
C4 C3 1.366 . S
C4 C5 1.392 . S
C4 H32 0.930 . S
C5 C4 1.392 . S
C5 C6 1.398 . S
C5 H33 0.929 . S
C6 C5 1.398 . S
C6 C7 1.352 . S
C7 C6 1.352 . S
C7 C8 1.384 . S
C7 H34 0.930 . S
C8 C3 1.407 . S
C8 C7 1.384 . S
C8 H35 0.929 . S
C9 O22 1.241 . S
C9 O23 1.273 1_545 S
C10 O24 1.251 . S
C10 O25 1.268 . S
C11 Nd1 2.836 . S
C11 C12 1.498 . S
C11 O26 1.258 . S
C11 O27 1.239 . S
C12 C11 1.498 . S
C12 C13 1.366 . S
C12 C17 1.407 . S
C13 C12 1.366 . S
C13 C14 1.392 . S
C13 H36 0.930 . S
C14 C13 1.392 . S
C14 C15 1.398 . S
C14 H37 0.929 . S
C15 C14 1.398 . S
C15 C16 1.352 . S
C16 C15 1.352 . S
C16 C17 1.384 . S
C16 H38 0.930 . S
C17 C12 1.407 . S
C17 C16 1.384 . S
C17 H39 0.929 . S
C18 O28 1.241 1_545 S
C18 O29 1.273 . S
C19 O30 1.251 . S
C19 O31 1.268 . S
O20 Nd0 2.500 . S
O20 C2 1.258 . S
O21 Nd0 2.492 . S
O21 C2 1.239 . S
O22 Nd0 2.487 . S
O22 C9 1.241 . S
O23 Nd0 2.682 1_565 S
O23 Nd1 2.414 . S
O23 C9 1.273 1_565 S
O24 Nd0 2.410 . S
O24 C10 1.251 . S
O25 Nd1 2.424 1_545 S
O25 C10 1.268 . S
O26 Nd1 2.500 . S
O26 C11 1.258 . S
O27 Nd1 2.492 . S
O27 C11 1.239 . S
O28 Nd1 2.487 . S
O28 C18 1.241 1_565 S
O29 Nd0 2.414 . S
O29 Nd1 2.682 1_545 S
O29 C18 1.273 . S
O30 Nd1 2.410 . S
O30 C19 1.251 . S
O31 Nd0 2.424 1_565 S
O31 C19 1.268 . S
H32 C4 0.930 . S
H33 C5 0.929 . S
H34 C7 0.930 . S
H35 C8 0.929 . S
H36 C13 0.930 . S
H37 C14 0.929 . S
H38 C16 0.930 . S
H39 C17 0.929 . S
Nd40 C42 2.836 1_455 S
Nd40 O60 2.500 1_455 S
Nd40 O61 2.492 1_455 S
Nd40 O62 2.487 . S
Nd40 O63 2.682 . S
Nd40 O64 2.410 1_455 S
Nd40 O69 2.414 . S
Nd40 O71 2.424 . S
Nd41 C51 2.836 . S
Nd41 O63 2.414 . S
Nd41 O65 2.424 1_455 S
Nd41 O66 2.500 . S
Nd41 O67 2.492 . S
Nd41 O68 2.487 . S
Nd41 O69 2.682 . S
Nd41 O70 2.410 . S
C42 Nd40 2.836 1_655 S
C42 C43 1.498 . S
C42 O60 1.258 . S
C42 O61 1.239 . S
C43 C42 1.498 . S
C43 C44 1.366 . S
C43 C48 1.407 . S
C44 C43 1.366 . S
C44 C45 1.392 . S
C44 H72 0.930 . S
C45 C44 1.392 . S
C45 C46 1.398 . S
C45 H73 0.929 . S
C46 C45 1.398 . S
C46 C47 1.352 . S
C47 C46 1.352 . S
C47 C48 1.384 . S
C47 H74 0.930 . S
C48 C43 1.407 . S
C48 C47 1.384 . S
C48 H75 0.929 . S
C49 O62 1.241 . S
C49 O63 1.273 . S
C50 O64 1.251 . S
C50 O65 1.268 . S
C51 Nd41 2.836 . S
C51 C52 1.498 . S
C51 O66 1.258 . S
C51 O67 1.239 . S
C52 C51 1.498 . S
C52 C53 1.366 . S
C52 C57 1.407 . S
C53 C52 1.366 . S
C53 C54 1.392 . S
C53 H76 0.930 . S
C54 C53 1.392 . S
C54 C55 1.398 . S
C54 H77 0.929 . S
C55 C54 1.398 . S
C55 C56 1.352 . S
C56 C55 1.352 . S
C56 C57 1.384 . S
C56 H78 0.930 . S
C57 C52 1.407 . S
C57 C56 1.384 . S
C57 H79 0.929 . S
C58 O68 1.241 . S
C58 O69 1.273 . S
C59 O70 1.251 . S
C59 O71 1.268 . S
O60 Nd40 2.500 1_655 S
O60 C42 1.258 . S
O61 Nd40 2.492 1_655 S
O61 C42 1.239 . S
O62 Nd40 2.487 . S
O62 C49 1.241 . S
O63 Nd40 2.682 . S
O63 Nd41 2.414 . S
O63 C49 1.273 . S
O64 Nd40 2.410 1_655 S
O64 C50 1.251 . S
O65 Nd41 2.424 1_655 S
O65 C50 1.268 . S
O66 Nd41 2.500 . S
O66 C51 1.258 . S
O67 Nd41 2.492 . S
O67 C51 1.239 . S
O68 Nd41 2.487 . S
O68 C58 1.241 . S
O69 Nd40 2.414 . S
O69 Nd41 2.682 . S
O69 C58 1.273 . S
O70 Nd41 2.410 . S
O70 C59 1.251 . S
O71 Nd40 2.424 . S
O71 C59 1.268 . S
H72 C44 0.930 . S
H73 C45 0.929 . S
H74 C47 0.930 . S
H75 C48 0.929 . S
H76 C53 0.930 . S
H77 C54 0.929 . S
H78 C56 0.930 . S
H79 C57 0.929 . S
Nd80 C82 2.836 . S
Nd80 O100 2.500 . S
Nd80 O101 2.492 . S
Nd80 O102 2.487 . S
Nd80 O103 2.682 . S
Nd80 O104 2.410 . S
Nd80 O109 2.414 . S
Nd80 O111 2.424 . S
Nd81 C91 2.836 . S
Nd81 O103 2.414 . S
Nd81 O105 2.424 . S
Nd81 O106 2.500 . S
Nd81 O107 2.492 . S
Nd81 O108 2.487 . S
Nd81 O109 2.682 . S
Nd81 O110 2.410 . S
C82 Nd80 2.836 . S
C82 C83 1.498 . S
C82 O100 1.258 . S
C82 O101 1.239 . S
C83 C82 1.498 . S
C83 C84 1.366 . S
C83 C88 1.407 . S
C84 C83 1.366 . S
C84 C85 1.392 . S
C84 H112 0.930 . S
C85 C84 1.392 . S
C85 C86 1.398 . S
C85 H113 0.929 . S
C86 C85 1.398 . S
C86 C87 1.352 . S
C87 C86 1.352 . S
C87 C88 1.384 . S
C87 H114 0.930 . S
C88 C83 1.407 . S
C88 C87 1.384 . S
C88 H115 0.929 . S
C89 O102 1.241 . S
C89 O103 1.273 . S
C90 O104 1.251 . S
C90 O105 1.268 . S
C91 Nd81 2.836 . S
C91 C92 1.498 . S
C91 O106 1.258 . S
C91 O107 1.239 . S
C92 C91 1.498 . S
C92 C93 1.366 . S
C92 C97 1.407 . S
C93 C92 1.366 . S
C93 C94 1.392 . S
C93 H116 0.930 . S
C94 C93 1.392 . S
C94 C95 1.398 . S
C94 H117 0.929 . S
C95 C94 1.398 . S
C95 C96 1.352 . S
C96 C95 1.352 . S
C96 C97 1.384 . S
C96 H118 0.930 . S
C97 C92 1.407 . S
C97 C96 1.384 . S
C97 H119 0.929 . S
C98 O108 1.241 . S
C98 O109 1.273 . S
C99 O110 1.251 . S
C99 O111 1.268 . S
O100 Nd80 2.500 . S
O100 C82 1.258 . S
O101 Nd80 2.492 . S
O101 C82 1.239 . S
O102 Nd80 2.487 . S
O102 C89 1.241 . S
O103 Nd80 2.682 . S
O103 Nd81 2.414 . S
O103 C89 1.273 . S
O104 Nd80 2.410 . S
O104 C90 1.251 . S
O105 Nd81 2.424 . S
O105 C90 1.268 . S
O106 Nd81 2.500 . S
O106 C91 1.258 . S
O107 Nd81 2.492 . S
O107 C91 1.239 . S
O108 Nd81 2.487 . S
O108 C98 1.241 . S
O109 Nd80 2.414 . S
O109 Nd81 2.682 . S
O109 C98 1.273 . S
O110 Nd81 2.410 . S
O110 C99 1.251 . S
O111 Nd80 2.424 . S
O111 C99 1.268 . S
H112 C84 0.930 . S
H113 C85 0.929 . S
H114 C87 0.930 . S
H115 C88 0.929 . S
H116 C93 0.930 . S
H117 C94 0.929 . S
H118 C96 0.930 . S
H119 C97 0.929 . S
Nd120 C122 2.836 . S
Nd120 O140 2.500 . S
Nd120 O141 2.492 . S
Nd120 O142 2.487 . S
Nd120 O143 2.682 1_455 S
Nd120 O144 2.410 . S
Nd120 O149 2.414 . S
Nd120 O151 2.424 1_455 S
Nd121 C131 2.836 . S
Nd121 O143 2.414 . S
Nd121 O145 2.424 1_655 S
Nd121 O146 2.500 . S
Nd121 O147 2.492 . S
Nd121 O148 2.487 . S
Nd121 O149 2.682 1_655 S
Nd121 O150 2.410 . S
C122 Nd120 2.836 . S
C122 C123 1.498 . S
C122 O140 1.258 . S
C122 O141 1.239 . S
C123 C122 1.498 . S
C123 C124 1.366 . S
C123 C128 1.407 . S
C124 C123 1.366 . S
C124 C125 1.392 . S
C124 H152 0.930 . S
C125 C124 1.392 . S
C125 C126 1.398 . S
C125 H153 0.929 . S
C126 C125 1.398 . S
C126 C127 1.352 . S
C127 C126 1.352 . S
C127 C128 1.384 . S
C127 H154 0.930 . S
C128 C123 1.407 . S
C128 C127 1.384 . S
C128 H155 0.929 . S
C129 O142 1.241 . S
C129 O143 1.273 1_455 S
C130 O144 1.251 . S
C130 O145 1.268 . S
C131 Nd121 2.836 . S
C131 C132 1.498 . S
C131 O146 1.258 . S
C131 O147 1.239 . S
C132 C131 1.498 . S
C132 C133 1.366 . S
C132 C137 1.407 . S
C133 C132 1.366 . S
C133 C134 1.392 . S
C133 H156 0.930 . S
C134 C133 1.392 . S
C134 C135 1.398 . S
C134 H157 0.929 . S
C135 C134 1.398 . S
C135 C136 1.352 . S
C136 C135 1.352 . S
C136 C137 1.384 . S
C136 H158 0.930 . S
C137 C132 1.407 . S
C137 C136 1.384 . S
C137 H159 0.929 . S
C138 O148 1.241 1_455 S
C138 O149 1.273 . S
C139 O150 1.251 . S
C139 O151 1.268 . S
O140 Nd120 2.500 . S
O140 C122 1.258 . S
O141 Nd120 2.492 . S
O141 C122 1.239 . S
O142 Nd120 2.487 . S
O142 C129 1.241 . S
O143 Nd120 2.682 1_655 S
O143 Nd121 2.414 . S
O143 C129 1.273 1_655 S
O144 Nd120 2.410 . S
O144 C130 1.251 . S
O145 Nd121 2.424 1_455 S
O145 C130 1.268 . S
O146 Nd121 2.500 . S
O146 C131 1.258 . S
O147 Nd121 2.492 . S
O147 C131 1.239 . S
O148 Nd121 2.487 . S
O148 C138 1.241 1_655 S
O149 Nd120 2.414 . S
O149 Nd121 2.682 1_455 S
O149 C138 1.273 . S
O150 Nd121 2.410 . S
O150 C139 1.251 . S
O151 Nd120 2.424 1_655 S
O151 C139 1.268 . S
H152 C124 0.930 . S
H153 C125 0.929 . S
H154 C127 0.930 . S
H155 C128 0.929 . S
H156 C133 0.930 . S
H157 C134 0.929 . S
H158 C136 0.930 . S
H159 C137 0.929 . S
Nd160 C162 2.836 . S
Nd160 O180 2.500 . S
Nd160 O181 2.492 . S
Nd160 O182 2.487 . S
Nd160 O183 2.682 . S
Nd160 O184 2.410 . S
Nd160 O189 2.414 . S
Nd160 O191 2.424 . S
Nd161 C171 2.836 . S
Nd161 O183 2.414 . S
Nd161 O185 2.424 . S
Nd161 O186 2.500 . S
Nd161 O187 2.492 . S
Nd161 O188 2.487 . S
Nd161 O189 2.682 . S
Nd161 O190 2.410 . S
C162 Nd160 2.836 . S
C162 C163 1.498 . S
C162 O180 1.258 . S
C162 O181 1.239 . S
C163 C162 1.498 . S
C163 C164 1.366 . S
C163 C168 1.407 . S
C164 C163 1.366 . S
C164 C165 1.392 . S
C164 H192 0.930 . S
C165 C164 1.392 . S
C165 C166 1.398 . S
C165 H193 0.929 . S
C166 C165 1.398 . S
C166 C167 1.352 . S
C167 C166 1.352 . S
C167 C168 1.384 . S
C167 H194 0.930 . S
C168 C163 1.407 . S
C168 C167 1.384 . S
C168 H195 0.929 . S
C169 O182 1.241 . S
C169 O183 1.273 . S
C170 O184 1.251 . S
C170 O185 1.268 . S
C171 Nd161 2.836 . S
C171 C172 1.498 . S
C171 O186 1.258 . S
C171 O187 1.239 . S
C172 C171 1.498 . S
C172 C173 1.366 . S
C172 C177 1.407 . S
C173 C172 1.366 . S
C173 C174 1.392 . S
C173 H196 0.930 . S
C174 C173 1.392 . S
C174 C175 1.398 . S
C174 H197 0.929 . S
C175 C174 1.398 . S
C175 C176 1.352 . S
C176 C175 1.352 . S
C176 C177 1.384 . S
C176 H198 0.930 . S
C177 C172 1.407 . S
C177 C176 1.384 . S
C177 H199 0.929 . S
C178 O188 1.241 . S
C178 O189 1.273 . S
C179 O190 1.251 . S
C179 O191 1.268 . S
O180 Nd160 2.500 . S
O180 C162 1.258 . S
O181 Nd160 2.492 . S
O181 C162 1.239 . S
O182 Nd160 2.487 . S
O182 C169 1.241 . S
O183 Nd160 2.682 . S
O183 Nd161 2.414 . S
O183 C169 1.273 . S
O184 Nd160 2.410 . S
O184 C170 1.251 . S
O185 Nd161 2.424 . S
O185 C170 1.268 . S
O186 Nd161 2.500 . S
O186 C171 1.258 . S
O187 Nd161 2.492 . S
O187 C171 1.239 . S
O188 Nd161 2.487 . S
O188 C178 1.241 . S
O189 Nd160 2.414 . S
O189 Nd161 2.682 . S
O189 C178 1.273 . S
O190 Nd161 2.410 . S
O190 C179 1.251 . S
O191 Nd160 2.424 . S
O191 C179 1.268 . S
H192 C164 0.930 . S
H193 C165 0.929 . S
H194 C167 0.930 . S
H195 C168 0.929 . S
H196 C173 0.930 . S
H197 C174 0.929 . S
H198 C176 0.930 . S
H199 C177 0.929 . S
Nd200 C202 2.836 1_545 S
Nd200 O220 2.500 1_545 S
Nd200 O221 2.492 1_545 S
Nd200 O222 2.487 . S
Nd200 O223 2.682 . S
Nd200 O224 2.410 1_545 S
Nd200 O229 2.414 . S
Nd200 O231 2.424 . S
Nd201 C211 2.836 . S
Nd201 O223 2.414 . S
Nd201 O225 2.424 1_545 S
Nd201 O226 2.500 . S
Nd201 O227 2.492 . S
Nd201 O228 2.487 . S
Nd201 O229 2.682 . S
Nd201 O230 2.410 . S
C202 Nd200 2.836 1_565 S
C202 C203 1.498 . S
C202 O220 1.258 . S
C202 O221 1.239 . S
C203 C202 1.498 . S
C203 C204 1.366 . S
C203 C208 1.407 . S
C204 C203 1.366 . S
C204 C205 1.392 . S
C204 H232 0.930 . S
C205 C204 1.392 . S
C205 C206 1.398 . S
C205 H233 0.929 . S
C206 C205 1.398 . S
C206 C207 1.352 . S
C207 C206 1.352 . S
C207 C208 1.384 . S
C207 H234 0.930 . S
C208 C203 1.407 . S
C208 C207 1.384 . S
C208 H235 0.929 . S
C209 O222 1.241 . S
C209 O223 1.273 . S
C210 O224 1.251 . S
C210 O225 1.268 . S
C211 Nd201 2.836 . S
C211 C212 1.498 . S
C211 O226 1.258 . S
C211 O227 1.239 . S
C212 C211 1.498 . S
C212 C213 1.366 . S
C212 C217 1.407 . S
C213 C212 1.366 . S
C213 C214 1.392 . S
C213 H236 0.930 . S
C214 C213 1.392 . S
C214 C215 1.398 . S
C214 H237 0.929 . S
C215 C214 1.398 . S
C215 C216 1.352 . S
C216 C215 1.352 . S
C216 C217 1.384 . S
C216 H238 0.930 . S
C217 C212 1.407 . S
C217 C216 1.384 . S
C217 H239 0.929 . S
C218 O228 1.241 . S
C218 O229 1.273 . S
C219 O230 1.251 . S
C219 O231 1.268 . S
O220 Nd200 2.500 1_565 S
O220 C202 1.258 . S
O221 Nd200 2.492 1_565 S
O221 C202 1.239 . S
O222 Nd200 2.487 . S
O222 C209 1.241 . S
O223 Nd200 2.682 . S
O223 Nd201 2.414 . S
O223 C209 1.273 . S
O224 Nd200 2.410 1_565 S
O224 C210 1.251 . S
O225 Nd201 2.424 1_565 S
O225 C210 1.268 . S
O226 Nd201 2.500 . S
O226 C211 1.258 . S
O227 Nd201 2.492 . S
O227 C211 1.239 . S
O228 Nd201 2.487 . S
O228 C218 1.241 . S
O229 Nd200 2.414 . S
O229 Nd201 2.682 . S
O229 C218 1.273 . S
O230 Nd201 2.410 . S
O230 C219 1.251 . S
O231 Nd200 2.424 . S
O231 C219 1.268 . S
H232 C204 0.930 . S
H233 C205 0.929 . S
H234 C207 0.930 . S
H235 C208 0.929 . S
H236 C213 0.930 . S
H237 C214 0.929 . S
H238 C216 0.930 . S
H239 C217 0.929 . S
Nd240 C242 2.836 . S
Nd240 O260 2.500 . S
Nd240 O261 2.492 . S
Nd240 O262 2.487 . S
Nd240 O263 2.682 . S
Nd240 O264 2.410 . S
Nd240 O269 2.414 . S
Nd240 O271 2.424 . S
Nd241 C251 2.836 . S
Nd241 O263 2.414 . S
Nd241 O265 2.424 . S
Nd241 O266 2.500 . S
Nd241 O267 2.492 . S
Nd241 O268 2.487 . S
Nd241 O269 2.682 . S
Nd241 O270 2.410 . S
C242 Nd240 2.836 . S
C242 C243 1.498 . S
C242 O260 1.258 . S
C242 O261 1.239 . S
C243 C242 1.498 . S
C243 C244 1.366 . S
C243 C248 1.407 . S
C244 C243 1.366 . S
C244 C245 1.392 . S
C244 H272 0.930 . S
C245 C244 1.392 . S
C245 C246 1.398 . S
C245 H273 0.929 . S
C246 C245 1.398 . S
C246 C247 1.352 . S
C247 C246 1.352 . S
C247 C248 1.384 . S
C247 H274 0.930 . S
C248 C243 1.407 . S
C248 C247 1.384 . S
C248 H275 0.929 . S
C249 O262 1.241 . S
C249 O263 1.273 . S
C250 O264 1.251 . S
C250 O265 1.268 . S
C251 Nd241 2.836 . S
C251 C252 1.498 . S
C251 O266 1.258 . S
C251 O267 1.239 . S
C252 C251 1.498 . S
C252 C253 1.366 . S
C252 C257 1.407 . S
C253 C252 1.366 . S
C253 C254 1.392 . S
C253 H276 0.930 . S
C254 C253 1.392 . S
C254 C255 1.398 . S
C254 H277 0.929 . S
C255 C254 1.398 . S
C255 C256 1.352 . S
C256 C255 1.352 . S
C256 C257 1.384 . S
C256 H278 0.930 . S
C257 C252 1.407 . S
C257 C256 1.384 . S
C257 H279 0.929 . S
C258 O268 1.241 . S
C258 O269 1.273 . S
C259 O270 1.251 . S
C259 O271 1.268 . S
O260 Nd240 2.500 . S
O260 C242 1.258 . S
O261 Nd240 2.492 . S
O261 C242 1.239 . S
O262 Nd240 2.487 . S
O262 C249 1.241 . S
O263 Nd240 2.682 . S
O263 Nd241 2.414 . S
O263 C249 1.273 . S
O264 Nd240 2.410 . S
O264 C250 1.251 . S
O265 Nd241 2.424 . S
O265 C250 1.268 . S
O266 Nd241 2.500 . S
O266 C251 1.258 . S
O267 Nd241 2.492 . S
O267 C251 1.239 . S
O268 Nd241 2.487 . S
O268 C258 1.241 . S
O269 Nd240 2.414 . S
O269 Nd241 2.682 . S
O269 C258 1.273 . S
O270 Nd241 2.410 . S
O270 C259 1.251 . S
O271 Nd240 2.424 . S
O271 C259 1.268 . S
H272 C244 0.930 . S
H273 C245 0.929 . S
H274 C247 0.930 . S
H275 C248 0.929 . S
H276 C253 0.930 . S
H277 C254 0.929 . S
H278 C256 0.930 . S
H279 C257 0.929 . S
Nd280 C282 2.836 . S
Nd280 O300 2.500 . S
Nd280 O301 2.492 . S
Nd280 O302 2.487 . S
Nd280 O303 2.682 . S
Nd280 O304 2.410 . S
Nd280 O309 2.414 . S
Nd280 O311 2.424 . S
Nd281 C291 2.836 . S
Nd281 O303 2.414 . S
Nd281 O305 2.424 . S
Nd281 O306 2.500 . S
Nd281 O307 2.492 . S
Nd281 O308 2.487 . S
Nd281 O309 2.682 . S
Nd281 O310 2.410 . S
C282 Nd280 2.836 . S
C282 C283 1.498 . S
C282 O300 1.258 . S
C282 O301 1.239 . S
C283 C282 1.498 . S
C283 C284 1.366 . S
C283 C288 1.407 . S
C284 C283 1.366 . S
C284 C285 1.392 . S
C284 H312 0.930 . S
C285 C284 1.392 . S
C285 C286 1.398 . S
C285 H313 0.929 . S
C286 C285 1.398 . S
C286 C287 1.352 . S
C287 C286 1.352 . S
C287 C288 1.384 . S
C287 H314 0.930 . S
C288 C283 1.407 . S
C288 C287 1.384 . S
C288 H315 0.929 . S
C289 O302 1.241 . S
C289 O303 1.273 . S
C290 O304 1.251 . S
C290 O305 1.268 . S
C291 Nd281 2.836 . S
C291 C292 1.498 . S
C291 O306 1.258 . S
C291 O307 1.239 . S
C292 C291 1.498 . S
C292 C293 1.366 . S
C292 C297 1.407 . S
C293 C292 1.366 . S
C293 C294 1.392 . S
C293 H316 0.930 . S
C294 C293 1.392 . S
C294 C295 1.398 . S
C294 H317 0.929 . S
C295 C294 1.398 . S
C295 C296 1.352 . S
C296 C295 1.352 . S
C296 C297 1.384 . S
C296 H318 0.930 1_565 S
C297 C292 1.407 . S
C297 C296 1.384 . S
C297 H319 0.929 . S
C298 O308 1.241 . S
C298 O309 1.273 . S
C299 O310 1.251 . S
C299 O311 1.268 . S
O300 Nd280 2.500 . S
O300 C282 1.258 . S
O301 Nd280 2.492 . S
O301 C282 1.239 . S
O302 Nd280 2.487 . S
O302 C289 1.241 . S
O303 Nd280 2.682 . S
O303 Nd281 2.414 . S
O303 C289 1.273 . S
O304 Nd280 2.410 . S
O304 C290 1.251 . S
O305 Nd281 2.424 . S
O305 C290 1.268 . S
O306 Nd281 2.500 . S
O306 C291 1.258 . S
O307 Nd281 2.492 . S
O307 C291 1.239 . S
O308 Nd281 2.487 . S
O308 C298 1.241 . S
O309 Nd280 2.414 . S
O309 Nd281 2.682 . S
O309 C298 1.273 . S
O310 Nd281 2.410 . S
O310 C299 1.251 . S
O311 Nd280 2.424 . S
O311 C299 1.268 . S
H312 C284 0.930 . S
H313 C285 0.929 . S
H314 C287 0.930 . S
H315 C288 0.929 . S
H316 C293 0.930 . S
H317 C294 0.929 . S
H318 C296 0.930 1_545 S
H319 C297 0.929 . S
Nd320 C322 2.836 . S
Nd320 O340 2.500 . S
Nd320 O341 2.492 . S
Nd320 O342 2.487 . S
Nd320 O343 2.682 . S
Nd320 O344 2.410 . S
Nd320 O349 2.414 . S
Nd320 O351 2.424 . S
Nd321 C331 2.836 . S
Nd321 O343 2.414 . S
Nd321 O345 2.424 . S
Nd321 O346 2.500 . S
Nd321 O347 2.492 . S
Nd321 O348 2.487 . S
Nd321 O349 2.682 . S
Nd321 O350 2.410 . S
C322 Nd320 2.836 . S
C322 C323 1.498 . S
C322 O340 1.258 . S
C322 O341 1.239 . S
C323 C322 1.498 . S
C323 C324 1.366 . S
C323 C328 1.407 . S
C324 C323 1.366 . S
C324 C325 1.392 . S
C324 H352 0.930 . S
C325 C324 1.392 . S
C325 C326 1.398 . S
C325 H353 0.929 . S
C326 C325 1.398 . S
C326 C327 1.352 . S
C327 C326 1.352 . S
C327 C328 1.384 . S
C327 H354 0.930 . S
C328 C323 1.407 . S
C328 C327 1.384 . S
C328 H355 0.929 . S
C329 O342 1.241 . S
C329 O343 1.273 . S
C330 O344 1.251 . S
C330 O345 1.268 . S
C331 Nd321 2.836 . S
C331 C332 1.498 . S
C331 O346 1.258 . S
C331 O347 1.239 . S
C332 C331 1.498 . S
C332 C333 1.366 . S
C332 C337 1.407 . S
C333 C332 1.366 . S
C333 C334 1.392 . S
C333 H356 0.930 . S
C334 C333 1.392 . S
C334 C335 1.398 . S
C334 H357 0.929 . S
C335 C334 1.398 . S
C335 C336 1.352 . S
C336 C335 1.352 . S
C336 C337 1.384 . S
C336 H358 0.930 . S
C337 C332 1.407 . S
C337 C336 1.384 . S
C337 H359 0.929 . S
C338 O348 1.241 . S
C338 O349 1.273 . S
C339 O350 1.251 . S
C339 O351 1.268 . S
O340 Nd320 2.500 . S
O340 C322 1.258 . S
O341 Nd320 2.492 . S
O341 C322 1.239 . S
O342 Nd320 2.487 . S
O342 C329 1.241 . S
O343 Nd320 2.682 . S
O343 Nd321 2.414 . S
O343 C329 1.273 . S
O344 Nd320 2.410 . S
O344 C330 1.251 . S
O345 Nd321 2.424 . S
O345 C330 1.268 . S
O346 Nd321 2.500 . S
O346 C331 1.258 . S
O347 Nd321 2.492 . S
O347 C331 1.239 . S
O348 Nd321 2.487 . S
O348 C338 1.241 . S
O349 Nd320 2.414 . S
O349 Nd321 2.682 . S
O349 C338 1.273 . S
O350 Nd321 2.410 . S
O350 C339 1.251 . S
O351 Nd320 2.424 . S
O351 C339 1.268 . S
H352 C324 0.930 . S
H353 C325 0.929 . S
H354 C327 0.930 . S
H355 C328 0.929 . S
H356 C333 0.930 . S
H357 C334 0.929 . S
H358 C336 0.930 . S
H359 C337 0.929 . S
Nd360 C362 2.836 . S
Nd360 O380 2.500 . S
Nd360 O381 2.492 . S
Nd360 O382 2.487 . S
Nd360 O383 2.682 . S
Nd360 O384 2.410 . S
Nd360 O389 2.414 . S
Nd360 O391 2.424 . S
Nd361 C371 2.836 . S
Nd361 O383 2.414 . S
Nd361 O385 2.424 . S
Nd361 O386 2.500 . S
Nd361 O387 2.492 . S
Nd361 O388 2.487 . S
Nd361 O389 2.682 . S
Nd361 O390 2.410 . S
C362 Nd360 2.836 . S
C362 C363 1.498 . S
C362 O380 1.258 . S
C362 O381 1.239 . S
C363 C362 1.498 . S
C363 C364 1.366 . S
C363 C368 1.407 . S
C364 C363 1.366 . S
C364 C365 1.392 . S
C364 H392 0.930 . S
C365 C364 1.392 . S
C365 C366 1.398 . S
C365 H393 0.929 . S
C366 C365 1.398 . S
C366 C367 1.352 . S
C367 C366 1.352 . S
C367 C368 1.384 . S
C367 H394 0.930 . S
C368 C363 1.407 . S
C368 C367 1.384 . S
C368 H395 0.929 . S
C369 O382 1.241 . S
C369 O383 1.273 . S
C370 O384 1.251 . S
C370 O385 1.268 . S
C371 Nd361 2.836 . S
C371 C372 1.498 . S
C371 O386 1.258 . S
C371 O387 1.239 . S
C372 C371 1.498 . S
C372 C373 1.366 . S
C372 C377 1.407 . S
C373 C372 1.366 . S
C373 C374 1.392 . S
C373 H396 0.930 . S
C374 C373 1.392 . S
C374 C375 1.398 . S
C374 H397 0.929 . S
C375 C374 1.398 . S
C375 C376 1.352 . S
C376 C375 1.352 . S
C376 C377 1.384 . S
C376 H398 0.930 . S
C377 C372 1.407 . S
C377 C376 1.384 . S
C377 H399 0.929 . S
C378 O388 1.241 . S
C378 O389 1.273 . S
C379 O390 1.251 . S
C379 O391 1.268 . S
O380 Nd360 2.500 . S
O380 C362 1.258 . S
O381 Nd360 2.492 . S
O381 C362 1.239 . S
O382 Nd360 2.487 . S
O382 C369 1.241 . S
O383 Nd360 2.682 . S
O383 Nd361 2.414 . S
O383 C369 1.273 . S
O384 Nd360 2.410 . S
O384 C370 1.251 . S
O385 Nd361 2.424 . S
O385 C370 1.268 . S
O386 Nd361 2.500 . S
O386 C371 1.258 . S
O387 Nd361 2.492 . S
O387 C371 1.239 . S
O388 Nd361 2.487 . S
O388 C378 1.241 . S
O389 Nd360 2.414 . S
O389 Nd361 2.682 . S
O389 C378 1.273 . S
O390 Nd361 2.410 . S
O390 C379 1.251 . S
O391 Nd360 2.424 . S
O391 C379 1.268 . S
H392 C364 0.930 . S
H393 C365 0.929 . S
H394 C367 0.930 . S
H395 C368 0.929 . S
H396 C373 0.930 . S
H397 C374 0.929 . S
H398 C376 0.930 . S
H399 C377 0.929 . S
Nd400 C402 2.836 . S
Nd400 O420 2.500 . S
Nd400 O421 2.492 . S
Nd400 O422 2.487 . S
Nd400 O423 2.682 . S
Nd400 O424 2.410 . S
Nd400 O429 2.414 . S
Nd400 O431 2.424 . S
Nd401 C411 2.836 . S
Nd401 O423 2.414 . S
Nd401 O425 2.424 . S
Nd401 O426 2.500 . S
Nd401 O427 2.492 . S
Nd401 O428 2.487 . S
Nd401 O429 2.682 . S
Nd401 O430 2.410 . S
C402 Nd400 2.836 . S
C402 C403 1.498 . S
C402 O420 1.258 . S
C402 O421 1.239 . S
C403 C402 1.498 . S
C403 C404 1.366 . S
C403 C408 1.407 1_565 S
C404 C403 1.366 . S
C404 C405 1.392 1_565 S
C404 H432 0.930 . S
C405 C404 1.392 1_545 S
C405 C406 1.398 . S
C405 H433 0.929 . S
C406 C405 1.398 . S
C406 C407 1.352 . S
C407 C406 1.352 . S
C407 C408 1.384 . S
C407 H434 0.930 . S
C408 C403 1.407 1_545 S
C408 C407 1.384 . S
C408 H435 0.929 . S
C409 O422 1.241 . S
C409 O423 1.273 . S
C410 O424 1.251 . S
C410 O425 1.268 . S
C411 Nd401 2.836 . S
C411 C412 1.498 . S
C411 O426 1.258 . S
C411 O427 1.239 . S
C412 C411 1.498 . S
C412 C413 1.366 . S
C412 C417 1.407 . S
C413 C412 1.366 . S
C413 C414 1.392 . S
C413 H436 0.930 . S
C414 C413 1.392 . S
C414 C415 1.398 . S
C414 H437 0.929 . S
C415 C414 1.398 . S
C415 C416 1.352 . S
C416 C415 1.352 . S
C416 C417 1.384 . S
C416 H438 0.930 . S
C417 C412 1.407 . S
C417 C416 1.384 . S
C417 H439 0.929 . S
C418 O428 1.241 . S
C418 O429 1.273 . S
C419 O430 1.251 . S
C419 O431 1.268 . S
O420 Nd400 2.500 . S
O420 C402 1.258 . S
O421 Nd400 2.492 . S
O421 C402 1.239 . S
O422 Nd400 2.487 . S
O422 C409 1.241 . S
O423 Nd400 2.682 . S
O423 Nd401 2.414 . S
O423 C409 1.273 . S
O424 Nd400 2.410 . S
O424 C410 1.251 . S
O425 Nd401 2.424 . S
O425 C410 1.268 . S
O426 Nd401 2.500 . S
O426 C411 1.258 . S
O427 Nd401 2.492 . S
O427 C411 1.239 . S
O428 Nd401 2.487 . S
O428 C418 1.241 . S
O429 Nd400 2.414 . S
O429 Nd401 2.682 . S
O429 C418 1.273 . S
O430 Nd401 2.410 . S
O430 C419 1.251 . S
O431 Nd400 2.424 . S
O431 C419 1.268 . S
H432 C404 0.930 . S
H433 C405 0.929 . S
H434 C407 0.930 . S
H435 C408 0.929 . S
H436 C413 0.930 . S
H437 C414 0.929 . S
H438 C416 0.930 . S
H439 C417 0.929 . S
Nd440 C442 2.836 . S
Nd440 O460 2.500 . S
Nd440 O461 2.492 . S
Nd440 O462 2.487 . S
Nd440 O463 2.682 . S
Nd440 O464 2.410 . S
Nd440 O469 2.414 . S
Nd440 O471 2.424 . S
Nd441 C451 2.836 . S
Nd441 O463 2.414 . S
Nd441 O465 2.424 . S
Nd441 O466 2.500 . S
Nd441 O467 2.492 . S
Nd441 O468 2.487 . S
Nd441 O469 2.682 . S
Nd441 O470 2.410 . S
C442 Nd440 2.836 . S
C442 C443 1.498 . S
C442 O460 1.258 . S
C442 O461 1.239 . S
C443 C442 1.498 . S
C443 C444 1.366 . S
C443 C448 1.407 . S
C444 C443 1.366 . S
C444 C445 1.392 . S
C444 H472 0.930 . S
C445 C444 1.392 . S
C445 C446 1.398 1_455 S
C445 H473 0.929 . S
C446 C445 1.398 1_655 S
C446 C447 1.352 . S
C447 C446 1.352 . S
C447 C448 1.384 1_655 S
C447 H474 0.930 . S
C448 C443 1.407 . S
C448 C447 1.384 1_455 S
C448 H475 0.929 . S
C449 O462 1.241 . S
C449 O463 1.273 . S
C450 O464 1.251 . S
C450 O465 1.268 . S
C451 Nd441 2.836 . S
C451 C452 1.498 . S
C451 O466 1.258 . S
C451 O467 1.239 . S
C452 C451 1.498 . S
C452 C453 1.366 . S
C452 C457 1.407 . S
C453 C452 1.366 . S
C453 C454 1.392 . S
C453 H476 0.930 . S
C454 C453 1.392 . S
C454 C455 1.398 . S
C454 H477 0.929 . S
C455 C454 1.398 . S
C455 C456 1.352 . S
C456 C455 1.352 . S
C456 C457 1.384 . S
C456 H478 0.930 . S
C457 C452 1.407 . S
C457 C456 1.384 . S
C457 H479 0.929 . S
C458 O468 1.241 . S
C458 O469 1.273 . S
C459 O470 1.251 . S
C459 O471 1.268 . S
O460 Nd440 2.500 . S
O460 C442 1.258 . S
O461 Nd440 2.492 . S
O461 C442 1.239 . S
O462 Nd440 2.487 . S
O462 C449 1.241 . S
O463 Nd440 2.682 . S
O463 Nd441 2.414 . S
O463 C449 1.273 . S
O464 Nd440 2.410 . S
O464 C450 1.251 . S
O465 Nd441 2.424 . S
O465 C450 1.268 . S
O466 Nd441 2.500 . S
O466 C451 1.258 . S
O467 Nd441 2.492 . S
O467 C451 1.239 . S
O468 Nd441 2.487 . S
O468 C458 1.241 . S
O469 Nd440 2.414 . S
O469 Nd441 2.682 . S
O469 C458 1.273 . S
O470 Nd441 2.410 . S
O470 C459 1.251 . S
O471 Nd440 2.424 . S
O471 C459 1.268 . S
H472 C444 0.930 . S
H473 C445 0.929 . S
H474 C447 0.930 . S
H475 C448 0.929 . S
H476 C453 0.930 . S
H477 C454 0.929 . S
H478 C456 0.930 . S
H479 C457 0.929 . S
Nd480 C482 2.836 . S
Nd480 O500 2.500 . S
Nd480 O501 2.492 . S
Nd480 O502 2.487 . S
Nd480 O503 2.682 . S
Nd480 O504 2.410 . S
Nd480 O509 2.414 . S
Nd480 O511 2.424 . S
Nd481 C491 2.836 . S
Nd481 O503 2.414 . S
Nd481 O505 2.424 . S
Nd481 O506 2.500 . S
Nd481 O507 2.492 . S
Nd481 O508 2.487 . S
Nd481 O509 2.682 . S
Nd481 O510 2.410 . S
C482 Nd480 2.836 . S
C482 C483 1.498 . S
C482 O500 1.258 . S
C482 O501 1.239 . S
C483 C482 1.498 . S
C483 C484 1.366 . S
C483 C488 1.407 . S
C484 C483 1.366 . S
C484 C485 1.392 . S
C484 H512 0.930 . S
C485 C484 1.392 . S
C485 C486 1.398 . S
C485 H513 0.929 . S
C486 C485 1.398 . S
C486 C487 1.352 . S
C487 C486 1.352 . S
C487 C488 1.384 . S
C487 H514 0.930 . S
C488 C483 1.407 . S
C488 C487 1.384 . S
C488 H515 0.929 . S
C489 O502 1.241 . S
C489 O503 1.273 . S
C490 O504 1.251 . S
C490 O505 1.268 . S
C491 Nd481 2.836 . S
C491 C492 1.498 . S
C491 O506 1.258 . S
C491 O507 1.239 . S
C492 C491 1.498 . S
C492 C493 1.366 . S
C492 C497 1.407 . S
C493 C492 1.366 . S
C493 C494 1.392 . S
C493 H516 0.930 . S
C494 C493 1.392 . S
C494 C495 1.398 . S
C494 H517 0.929 . S
C495 C494 1.398 . S
C495 C496 1.352 . S
C496 C495 1.352 . S
C496 C497 1.384 . S
C496 H518 0.930 . S
C497 C492 1.407 . S
C497 C496 1.384 . S
C497 H519 0.929 . S
C498 O508 1.241 . S
C498 O509 1.273 . S
C499 O510 1.251 . S
C499 O511 1.268 . S
O500 Nd480 2.500 . S
O500 C482 1.258 . S
O501 Nd480 2.492 . S
O501 C482 1.239 . S
O502 Nd480 2.487 . S
O502 C489 1.241 . S
O503 Nd480 2.682 . S
O503 Nd481 2.414 . S
O503 C489 1.273 . S
O504 Nd480 2.410 . S
O504 C490 1.251 . S
O505 Nd481 2.424 . S
O505 C490 1.268 . S
O506 Nd481 2.500 . S
O506 C491 1.258 . S
O507 Nd481 2.492 . S
O507 C491 1.239 . S
O508 Nd481 2.487 . S
O508 C498 1.241 . S
O509 Nd480 2.414 . S
O509 Nd481 2.682 . S
O509 C498 1.273 . S
O510 Nd481 2.410 . S
O510 C499 1.251 . S
O511 Nd480 2.424 . S
O511 C499 1.268 . S
H512 C484 0.930 . S
H513 C485 0.929 . S
H514 C487 0.930 . S
H515 C488 0.929 . S
H516 C493 0.930 . S
H517 C494 0.929 . S
H518 C496 0.930 . S
H519 C497 0.929 . S
Nd520 C522 2.836 . S
Nd520 O540 2.500 . S
Nd520 O541 2.492 . S
Nd520 O542 2.487 . S
Nd520 O543 2.682 . S
Nd520 O544 2.410 . S
Nd520 O549 2.414 . S
Nd520 O551 2.424 . S
Nd521 C531 2.836 . S
Nd521 O543 2.414 . S
Nd521 O545 2.424 . S
Nd521 O546 2.500 . S
Nd521 O547 2.492 . S
Nd521 O548 2.487 . S
Nd521 O549 2.682 . S
Nd521 O550 2.410 . S
C522 Nd520 2.836 . S
C522 C523 1.498 . S
C522 O540 1.258 . S
C522 O541 1.239 . S
C523 C522 1.498 . S
C523 C524 1.366 . S
C523 C528 1.407 . S
C524 C523 1.366 . S
C524 C525 1.392 . S
C524 H552 0.930 . S
C525 C524 1.392 . S
C525 C526 1.398 1_545 S
C525 H553 0.929 . S
C526 C525 1.398 1_565 S
C526 C527 1.352 . S
C527 C526 1.352 . S
C527 C528 1.384 1_565 S
C527 H554 0.930 . S
C528 C523 1.407 . S
C528 C527 1.384 1_545 S
C528 H555 0.929 . S
C529 O542 1.241 . S
C529 O543 1.273 . S
C530 O544 1.251 . S
C530 O545 1.268 . S
C531 Nd521 2.836 . S
C531 C532 1.498 . S
C531 O546 1.258 . S
C531 O547 1.239 . S
C532 C531 1.498 . S
C532 C533 1.366 . S
C532 C537 1.407 . S
C533 C532 1.366 . S
C533 C534 1.392 . S
C533 H556 0.930 . S
C534 C533 1.392 . S
C534 C535 1.398 . S
C534 H557 0.929 . S
C535 C534 1.398 . S
C535 C536 1.352 . S
C536 C535 1.352 . S
C536 C537 1.384 . S
C536 H558 0.930 . S
C537 C532 1.407 . S
C537 C536 1.384 . S
C537 H559 0.929 . S
C538 O548 1.241 . S
C538 O549 1.273 . S
C539 O550 1.251 . S
C539 O551 1.268 . S
O540 Nd520 2.500 . S
O540 C522 1.258 . S
O541 Nd520 2.492 . S
O541 C522 1.239 . S
O542 Nd520 2.487 . S
O542 C529 1.241 . S
O543 Nd520 2.682 . S
O543 Nd521 2.414 . S
O543 C529 1.273 . S
O544 Nd520 2.410 . S
O544 C530 1.251 . S
O545 Nd521 2.424 . S
O545 C530 1.268 . S
O546 Nd521 2.500 . S
O546 C531 1.258 . S
O547 Nd521 2.492 . S
O547 C531 1.239 . S
O548 Nd521 2.487 . S
O548 C538 1.241 . S
O549 Nd520 2.414 . S
O549 Nd521 2.682 . S
O549 C538 1.273 . S
O550 Nd521 2.410 . S
O550 C539 1.251 . S
O551 Nd520 2.424 . S
O551 C539 1.268 . S
H552 C524 0.930 . S
H553 C525 0.929 . S
H554 C527 0.930 . S
H555 C528 0.929 . S
H556 C533 0.930 . S
H557 C534 0.929 . S
H558 C536 0.930 . S
H559 C537 0.929 . S
Nd560 C562 2.836 . S
Nd560 O580 2.500 . S
Nd560 O581 2.492 . S
Nd560 O582 2.487 . S
Nd560 O583 2.682 . S
Nd560 O584 2.410 . S
Nd560 O589 2.414 . S
Nd560 O591 2.424 . S
Nd561 C571 2.836 . S
Nd561 O583 2.414 . S
Nd561 O585 2.424 . S
Nd561 O586 2.500 . S
Nd561 O587 2.492 . S
Nd561 O588 2.487 . S
Nd561 O589 2.682 . S
Nd561 O590 2.410 . S
C562 Nd560 2.836 . S
C562 C563 1.498 . S
C562 O580 1.258 . S
C562 O581 1.239 . S
C563 C562 1.498 . S
C563 C564 1.366 . S
C563 C568 1.407 1_655 S
C564 C563 1.366 . S
C564 C565 1.392 1_655 S
C564 H592 0.930 . S
C565 C564 1.392 1_455 S
C565 C566 1.398 . S
C565 H593 0.929 . S
C566 C565 1.398 . S
C566 C567 1.352 . S
C567 C566 1.352 . S
C567 C568 1.384 . S
C567 H594 0.930 . S
C568 C563 1.407 1_455 S
C568 C567 1.384 . S
C568 H595 0.929 . S
C569 O582 1.241 . S
C569 O583 1.273 . S
C570 O584 1.251 . S
C570 O585 1.268 . S
C571 Nd561 2.836 . S
C571 C572 1.498 . S
C571 O586 1.258 . S
C571 O587 1.239 . S
C572 C571 1.498 . S
C572 C573 1.366 . S
C572 C577 1.407 . S
C573 C572 1.366 . S
C573 C574 1.392 . S
C573 H596 0.930 . S
C574 C573 1.392 . S
C574 C575 1.398 . S
C574 H597 0.929 . S
C575 C574 1.398 . S
C575 C576 1.352 . S
C576 C575 1.352 . S
C576 C577 1.384 . S
C576 H598 0.930 . S
C577 C572 1.407 . S
C577 C576 1.384 . S
C577 H599 0.929 . S
C578 O588 1.241 . S
C578 O589 1.273 . S
C579 O590 1.251 . S
C579 O591 1.268 . S
O580 Nd560 2.500 . S
O580 C562 1.258 . S
O581 Nd560 2.492 . S
O581 C562 1.239 . S
O582 Nd560 2.487 . S
O582 C569 1.241 . S
O583 Nd560 2.682 . S
O583 Nd561 2.414 . S
O583 C569 1.273 . S
O584 Nd560 2.410 . S
O584 C570 1.251 . S
O585 Nd561 2.424 . S
O585 C570 1.268 . S
O586 Nd561 2.500 . S
O586 C571 1.258 . S
O587 Nd561 2.492 . S
O587 C571 1.239 . S
O588 Nd561 2.487 . S
O588 C578 1.241 . S
O589 Nd560 2.414 . S
O589 Nd561 2.682 . S
O589 C578 1.273 . S
O590 Nd561 2.410 . S
O590 C579 1.251 . S
O591 Nd560 2.424 . S
O591 C579 1.268 . S
H592 C564 0.930 . S
H593 C565 0.929 . S
H594 C567 0.930 . S
H595 C568 0.929 . S
H596 C573 0.930 . S
H597 C574 0.929 . S
H598 C576 0.930 . S
H599 C577 0.929 . S
Nd600 C602 2.836 . S
Nd600 O620 2.500 . S
Nd600 O621 2.492 . S
Nd600 O622 2.487 . S
Nd600 O623 2.682 . S
Nd600 O624 2.410 . S
Nd600 O629 2.414 . S
Nd600 O631 2.424 . S
Nd601 C611 2.836 . S
Nd601 O623 2.414 . S
Nd601 O625 2.424 . S
Nd601 O626 2.500 . S
Nd601 O627 2.492 . S
Nd601 O628 2.487 . S
Nd601 O629 2.682 . S
Nd601 O630 2.410 . S
C602 Nd600 2.836 . S
C602 C603 1.498 . S
C602 O620 1.258 . S
C602 O621 1.239 . S
C603 C602 1.498 . S
C603 C604 1.366 . S
C603 C608 1.407 . S
C604 C603 1.366 . S
C604 C605 1.392 . S
C604 H632 0.930 . S
C605 C604 1.392 . S
C605 C606 1.398 . S
C605 H633 0.929 . S
C606 C605 1.398 . S
C606 C607 1.352 . S
C607 C606 1.352 . S
C607 C608 1.384 . S
C607 H634 0.930 . S
C608 C603 1.407 . S
C608 C607 1.384 . S
C608 H635 0.929 . S
C609 O622 1.241 . S
C609 O623 1.273 . S
C610 O624 1.251 . S
C610 O625 1.268 . S
C611 Nd601 2.836 . S
C611 C612 1.498 . S
C611 O626 1.258 . S
C611 O627 1.239 . S
C612 C611 1.498 . S
C612 C613 1.366 . S
C612 C617 1.407 . S
C613 C612 1.366 . S
C613 C614 1.392 . S
C613 H636 0.930 . S
C614 C613 1.392 . S
C614 C615 1.398 . S
C614 H637 0.929 . S
C615 C614 1.398 . S
C615 C616 1.352 . S
C616 C615 1.352 . S
C616 C617 1.384 . S
C616 H638 0.930 . S
C617 C612 1.407 . S
C617 C616 1.384 . S
C617 H639 0.929 . S
C618 O628 1.241 . S
C618 O629 1.273 . S
C619 O630 1.251 . S
C619 O631 1.268 . S
O620 Nd600 2.500 . S
O620 C602 1.258 . S
O621 Nd600 2.492 . S
O621 C602 1.239 . S
O622 Nd600 2.487 . S
O622 C609 1.241 . S
O623 Nd600 2.682 . S
O623 Nd601 2.414 . S
O623 C609 1.273 . S
O624 Nd600 2.410 . S
O624 C610 1.251 . S
O625 Nd601 2.424 . S
O625 C610 1.268 . S
O626 Nd601 2.500 . S
O626 C611 1.258 . S
O627 Nd601 2.492 . S
O627 C611 1.239 . S
O628 Nd601 2.487 . S
O628 C618 1.241 . S
O629 Nd600 2.414 . S
O629 Nd601 2.682 . S
O629 C618 1.273 . S
O630 Nd601 2.410 . S
O630 C619 1.251 . S
O631 Nd600 2.424 . S
O631 C619 1.268 . S
H632 C604 0.930 . S
H633 C605 0.929 . S
H634 C607 0.930 . S
H635 C608 0.929 . S
H636 C613 0.930 . S
H637 C614 0.929 . S
H638 C616 0.930 . S
H639 C617 0.929 . S
Nd640 C642 2.836 . S
Nd640 O660 2.500 . S
Nd640 O661 2.492 . S
Nd640 O662 2.487 . S
Nd640 O663 2.682 . S
Nd640 O664 2.410 . S
Nd640 O669 2.414 . S
Nd640 O671 2.424 . S
Nd641 C651 2.836 . S
Nd641 O663 2.414 . S
Nd641 O665 2.424 . S
Nd641 O666 2.500 . S
Nd641 O667 2.492 . S
Nd641 O668 2.487 . S
Nd641 O669 2.682 . S
Nd641 O670 2.410 . S
C642 Nd640 2.836 . S
C642 C643 1.498 . S
C642 O660 1.258 . S
C642 O661 1.239 . S
C643 C642 1.498 . S
C643 C644 1.366 . S
C643 C648 1.407 . S
C644 C643 1.366 . S
C644 C645 1.392 . S
C644 H672 0.930 . S
C645 C644 1.392 . S
C645 C646 1.398 . S
C645 H673 0.929 . S
C646 C645 1.398 . S
C646 C647 1.352 . S
C647 C646 1.352 . S
C647 C648 1.384 . S
C647 H674 0.930 . S
C648 C643 1.407 . S
C648 C647 1.384 . S
C648 H675 0.929 . S
C649 O662 1.241 . S
C649 O663 1.273 . S
C650 O664 1.251 . S
C650 O665 1.268 . S
C651 Nd641 2.836 . S
C651 C652 1.498 . S
C651 O666 1.258 . S
C651 O667 1.239 . S
C652 C651 1.498 . S
C652 C653 1.366 . S
C652 C657 1.407 . S
C653 C652 1.366 . S
C653 C654 1.392 . S
C653 H676 0.930 . S
C654 C653 1.392 . S
C654 C655 1.398 . S
C654 H677 0.929 . S
C655 C654 1.398 . S
C655 C656 1.352 . S
C656 C655 1.352 . S
C656 C657 1.384 . S
C656 H678 0.930 . S
C657 C652 1.407 . S
C657 C656 1.384 . S
C657 H679 0.929 . S
C658 O668 1.241 . S
C658 O669 1.273 . S
C659 O670 1.251 . S
C659 O671 1.268 . S
O660 Nd640 2.500 . S
O660 C642 1.258 . S
O661 Nd640 2.492 . S
O661 C642 1.239 . S
O662 Nd640 2.487 . S
O662 C649 1.241 . S
O663 Nd640 2.682 . S
O663 Nd641 2.414 . S
O663 C649 1.273 . S
O664 Nd640 2.410 . S
O664 C650 1.251 . S
O665 Nd641 2.424 . S
O665 C650 1.268 . S
O666 Nd641 2.500 . S
O666 C651 1.258 . S
O667 Nd641 2.492 . S
O667 C651 1.239 . S
O668 Nd641 2.487 . S
O668 C658 1.241 . S
O669 Nd640 2.414 . S
O669 Nd641 2.682 . S
O669 C658 1.273 . S
O670 Nd641 2.410 . S
O670 C659 1.251 . S
O671 Nd640 2.424 . S
O671 C659 1.268 . S
H672 C644 0.930 . S
H673 C645 0.929 . S
H674 C647 0.930 . S
H675 C648 0.929 . S
H676 C653 0.930 . S
H677 C654 0.929 . S
H678 C656 0.930 . S
H679 C657 0.929 . S
Nd680 C682 2.836 . S
Nd680 O700 2.500 . S
Nd680 O701 2.492 . S
Nd680 O702 2.487 . S
Nd680 O703 2.682 . S
Nd680 O704 2.410 . S
Nd680 O709 2.414 . S
Nd680 O711 2.424 . S
Nd681 C691 2.836 . S
Nd681 O703 2.414 . S
Nd681 O705 2.424 . S
Nd681 O706 2.500 . S
Nd681 O707 2.492 . S
Nd681 O708 2.487 . S
Nd681 O709 2.682 . S
Nd681 O710 2.410 . S
C682 Nd680 2.836 . S
C682 C683 1.498 . S
C682 O700 1.258 . S
C682 O701 1.239 . S
C683 C682 1.498 . S
C683 C684 1.366 . S
C683 C688 1.407 . S
C684 C683 1.366 . S
C684 C685 1.392 . S
C684 H712 0.930 . S
C685 C684 1.392 . S
C685 C686 1.398 . S
C685 H713 0.929 . S
C686 C685 1.398 . S
C686 C687 1.352 . S
C687 C686 1.352 . S
C687 C688 1.384 . S
C687 H714 0.930 . S
C688 C683 1.407 . S
C688 C687 1.384 . S
C688 H715 0.929 . S
C689 O702 1.241 . S
C689 O703 1.273 . S
C690 O704 1.251 . S
C690 O705 1.268 . S
C691 Nd681 2.836 . S
C691 C692 1.498 . S
C691 O706 1.258 . S
C691 O707 1.239 . S
C692 C691 1.498 . S
C692 C693 1.366 . S
C692 C697 1.407 . S
C693 C692 1.366 . S
C693 C694 1.392 . S
C693 H716 0.930 . S
C694 C693 1.392 . S
C694 C695 1.398 . S
C694 H717 0.929 . S
C695 C694 1.398 . S
C695 C696 1.352 . S
C696 C695 1.352 . S
C696 C697 1.384 . S
C696 H718 0.930 1_655 S
C697 C692 1.407 . S
C697 C696 1.384 . S
C697 H719 0.929 . S
C698 O708 1.241 . S
C698 O709 1.273 . S
C699 O710 1.251 . S
C699 O711 1.268 . S
O700 Nd680 2.500 . S
O700 C682 1.258 . S
O701 Nd680 2.492 . S
O701 C682 1.239 . S
O702 Nd680 2.487 . S
O702 C689 1.241 . S
O703 Nd680 2.682 . S
O703 Nd681 2.414 . S
O703 C689 1.273 . S
O704 Nd680 2.410 . S
O704 C690 1.251 . S
O705 Nd681 2.424 . S
O705 C690 1.268 . S
O706 Nd681 2.500 . S
O706 C691 1.258 . S
O707 Nd681 2.492 . S
O707 C691 1.239 . S
O708 Nd681 2.487 . S
O708 C698 1.241 . S
O709 Nd680 2.414 . S
O709 Nd681 2.682 . S
O709 C698 1.273 . S
O710 Nd681 2.410 . S
O710 C699 1.251 . S
O711 Nd680 2.424 . S
O711 C699 1.268 . S
H712 C684 0.930 . S
H713 C685 0.929 . S
H714 C687 0.930 . S
H715 C688 0.929 . S
H716 C693 0.930 . S
H717 C694 0.929 . S
H718 C696 0.930 1_455 S
H719 C697 0.929 . S
C720 C721 1.349 . S
C720 C722 1.327 . S
C720 H745 0.950 . S
C721 C720 1.349 . S
C721 C737 1.349 . S
C722 C720 1.327 . S
C722 C741 1.429 . S
C722 H746 0.950 . S
C723 C740 1.574 . S
C723 C742 1.368 . S
C723 H747 0.949 . S
H724 C728 0.949 . S
C725 C726 1.349 . S
C725 C727 1.327 . S
C725 H748 0.950 . S
C726 C725 1.349 . S
C726 C738 1.349 . S
C727 C725 1.327 . S
C727 C743 1.429 . S
C727 H749 0.950 . S
C728 H724 0.949 . S
C728 C736 1.574 . S
C728 C744 1.368 . S
H729 C737 0.950 . S
H730 C735 0.950 . S
H731 C736 0.949 . S
H732 C738 0.950 . S
H733 C739 0.950 . S
H734 C740 0.949 . S
C735 H730 0.950 . S
C735 C737 1.327 . S
C735 C741 1.429 . S
C736 C728 1.574 . S
C736 H731 0.949 . S
C736 C742 1.368 . S
C737 C721 1.349 . S
C737 H729 0.950 . S
C737 C735 1.327 . S
C738 C726 1.349 . S
C738 H732 0.950 . S
C738 C739 1.327 . S
C739 H733 0.950 . S
C739 C738 1.327 . S
C739 C743 1.429 . S
C740 C723 1.574 . S
C740 H734 0.949 . S
C740 C744 1.368 . S
C741 C722 1.429 . S
C741 C735 1.429 . S
C741 C742 1.523 . S
C742 C723 1.368 . S
C742 C736 1.368 . S
C742 C741 1.523 . S
C743 C727 1.429 . S
C743 C739 1.429 . S
C743 C744 1.523 . S
C744 C728 1.368 . S
C744 C740 1.368 . S
C744 C743 1.523 . S
H745 C720 0.950 . S
H746 C722 0.950 . S
H747 C723 0.949 . S
H748 C725 0.950 . S
H749 C727 0.950 . S
C750 C751 1.349 . S
C750 C752 1.327 . S
C750 H775 0.950 . S
C751 C750 1.349 . S
C751 C767 1.349 . S
C752 C750 1.327 . S
C752 C771 1.429 . S
C752 H776 0.950 . S
C753 C770 1.574 . S
C753 C772 1.368 . S
C753 H777 0.949 . S
H754 C758 0.949 . S
C755 C756 1.349 . S
C755 C757 1.327 . S
C755 H778 0.950 . S
C756 C755 1.349 . S
C756 C768 1.349 . S
C757 C755 1.327 . S
C757 C773 1.429 . S
C757 H779 0.950 . S
C758 H754 0.949 . S
C758 C766 1.574 . S
C758 C774 1.368 . S
H759 C767 0.950 . S
H760 C765 0.950 . S
H761 C766 0.949 . S
H762 C768 0.950 . S
H763 C769 0.950 . S
H764 C770 0.949 . S
C765 H760 0.950 . S
C765 C767 1.327 . S
C765 C771 1.429 . S
C766 C758 1.574 . S
C766 H761 0.949 . S
C766 C772 1.368 . S
C767 C751 1.349 . S
C767 H759 0.950 . S
C767 C765 1.327 . S
C768 C756 1.349 . S
C768 H762 0.950 . S
C768 C769 1.327 . S
C769 H763 0.950 . S
C769 C768 1.327 . S
C769 C773 1.429 . S
C770 C753 1.574 . S
C770 H764 0.949 . S
C770 C774 1.368 . S
C771 C752 1.429 . S
C771 C765 1.429 . S
C771 C772 1.523 . S
C772 C753 1.368 . S
C772 C766 1.368 . S
C772 C771 1.523 . S
C773 C757 1.429 . S
C773 C769 1.429 . S
C773 C774 1.523 . S
C774 C758 1.368 . S
C774 C770 1.368 . S
C774 C773 1.523 . S
H775 C750 0.950 . S
H776 C752 0.950 . S
H777 C753 0.949 . S
H778 C755 0.950 . S
H779 C757 0.950 . S
C780 C781 1.349 . S
C780 C782 1.327 . S
C780 H805 0.950 . S
C781 C780 1.349 . S
C781 C797 1.349 . S
C782 C780 1.327 . S
C782 C801 1.429 . S
C782 H806 0.950 . S
C783 C800 1.574 . S
C783 C802 1.368 . S
C783 H807 0.949 . S
H784 C788 0.949 . S
C785 C786 1.349 . S
C785 C787 1.327 . S
C785 H808 0.950 . S
C786 C785 1.349 . S
C786 C798 1.349 . S
C787 C785 1.327 . S
C787 C803 1.429 . S
C787 H809 0.950 . S
C788 H784 0.949 . S
C788 C796 1.574 . S
C788 C804 1.368 . S
H789 C797 0.950 . S
H790 C795 0.950 . S
H791 C796 0.949 . S
H792 C798 0.950 . S
H793 C799 0.950 . S
H794 C800 0.949 . S
C795 H790 0.950 . S
C795 C797 1.327 . S
C795 C801 1.429 . S
C796 C788 1.574 . S
C796 H791 0.949 . S
C796 C802 1.368 . S
C797 C781 1.349 . S
C797 H789 0.950 . S
C797 C795 1.327 . S
C798 C786 1.349 . S
C798 H792 0.950 . S
C798 C799 1.327 . S
C799 H793 0.950 . S
C799 C798 1.327 . S
C799 C803 1.429 . S
C800 C783 1.574 . S
C800 H794 0.949 . S
C800 C804 1.368 . S
C801 C782 1.429 . S
C801 C795 1.429 . S
C801 C802 1.523 . S
C802 C783 1.368 . S
C802 C796 1.368 . S
C802 C801 1.523 . S
C803 C787 1.429 . S
C803 C799 1.429 . S
C803 C804 1.523 . S
C804 C788 1.368 . S
C804 C800 1.368 . S
C804 C803 1.523 . S
H805 C780 0.950 . S
H806 C782 0.950 . S
H807 C783 0.949 . S
H808 C785 0.950 . S
H809 C787 0.950 . S
C810 C811 1.349 . S
C810 C812 1.327 . S
C810 H835 0.950 . S
C811 C810 1.349 . S
C811 C827 1.349 . S
C812 C810 1.327 . S
C812 C831 1.429 . S
C812 H836 0.950 . S
C813 C830 1.574 . S
C813 C832 1.368 . S
C813 H837 0.949 . S
H814 C818 0.949 . S
C815 C816 1.349 . S
C815 C817 1.327 . S
C815 H838 0.950 . S
C816 C815 1.349 . S
C816 C828 1.349 . S
C817 C815 1.327 . S
C817 C833 1.429 . S
C817 H839 0.950 . S
C818 H814 0.949 . S
C818 C826 1.574 . S
C818 C834 1.368 . S
H819 C827 0.950 . S
H820 C825 0.950 . S
H821 C826 0.949 . S
H822 C828 0.950 . S
H823 C829 0.950 . S
H824 C830 0.949 . S
C825 H820 0.950 . S
C825 C827 1.327 . S
C825 C831 1.429 . S
C826 C818 1.574 . S
C826 H821 0.949 . S
C826 C832 1.368 . S
C827 C811 1.349 . S
C827 H819 0.950 . S
C827 C825 1.327 . S
C828 C816 1.349 . S
C828 H822 0.950 . S
C828 C829 1.327 . S
C829 H823 0.950 . S
C829 C828 1.327 . S
C829 C833 1.429 . S
C830 C813 1.574 . S
C830 H824 0.949 . S
C830 C834 1.368 . S
C831 C812 1.429 . S
C831 C825 1.429 . S
C831 C832 1.523 . S
C832 C813 1.368 . S
C832 C826 1.368 . S
C832 C831 1.523 . S
C833 C817 1.429 . S
C833 C829 1.429 . S
C833 C834 1.523 . S
C834 C818 1.368 . S
C834 C830 1.368 . S
C834 C833 1.523 . S
H835 C810 0.950 . S
H836 C812 0.950 . S
H837 C813 0.949 . S
H838 C815 0.950 . S
H839 C817 0.950 . S
C840 C841 1.349 . S
C840 C842 1.327 . S
C840 H865 0.950 . S
C841 C840 1.349 . S
C841 C857 1.349 . S
C842 C840 1.327 . S
C842 C861 1.429 . S
C842 H866 0.950 . S
C843 C860 1.574 . S
C843 C862 1.368 . S
C843 H867 0.949 . S
H844 C848 0.949 . S
C845 C846 1.349 . S
C845 C847 1.327 . S
C845 H868 0.950 . S
C846 C845 1.349 . S
C846 C858 1.349 . S
C847 C845 1.327 . S
C847 C863 1.429 . S
C847 H869 0.950 . S
C848 H844 0.949 . S
C848 C856 1.574 . S
C848 C864 1.368 . S
H849 C857 0.950 . S
H850 C855 0.950 . S
H851 C856 0.949 . S
H852 C858 0.950 . S
H853 C859 0.950 . S
H854 C860 0.949 . S
C855 H850 0.950 . S
C855 C857 1.327 . S
C855 C861 1.429 . S
C856 C848 1.574 . S
C856 H851 0.949 . S
C856 C862 1.368 . S
C857 C841 1.349 . S
C857 H849 0.950 . S
C857 C855 1.327 . S
C858 C846 1.349 . S
C858 H852 0.950 . S
C858 C859 1.327 . S
C859 H853 0.950 . S
C859 C858 1.327 . S
C859 C863 1.429 . S
C860 C843 1.574 . S
C860 H854 0.949 . S
C860 C864 1.368 . S
C861 C842 1.429 . S
C861 C855 1.429 . S
C861 C862 1.523 . S
C862 C843 1.368 . S
C862 C856 1.368 . S
C862 C861 1.523 . S
C863 C847 1.429 . S
C863 C859 1.429 . S
C863 C864 1.523 . S
C864 C848 1.368 . S
C864 C860 1.368 . S
C864 C863 1.523 . S
H865 C840 0.950 . S
H866 C842 0.950 . S
H867 C843 0.949 . S
H868 C845 0.950 . S
H869 C847 0.950 . S
C870 C871 1.349 . S
C870 C872 1.327 . S
C870 H895 0.950 . S
C871 C870 1.349 . S
C871 C887 1.349 . S
C872 C870 1.327 . S
C872 C891 1.429 . S
C872 H896 0.950 . S
C873 C890 1.574 . S
C873 C892 1.368 . S
C873 H897 0.949 . S
H874 C878 0.949 . S
C875 C876 1.349 . S
C875 C877 1.327 . S
C875 H898 0.950 . S
C876 C875 1.349 . S
C876 C888 1.349 . S
C877 C875 1.327 . S
C877 C893 1.429 . S
C877 H899 0.950 . S
C878 H874 0.949 . S
C878 C886 1.574 . S
C878 C894 1.368 . S
H879 C887 0.950 . S
H880 C885 0.950 . S
H881 C886 0.949 . S
H882 C888 0.950 . S
H883 C889 0.950 . S
H884 C890 0.949 . S
C885 H880 0.950 . S
C885 C887 1.327 . S
C885 C891 1.429 . S
C886 C878 1.574 . S
C886 H881 0.949 . S
C886 C892 1.368 . S
C887 C871 1.349 . S
C887 H879 0.950 . S
C887 C885 1.327 . S
C888 C876 1.349 . S
C888 H882 0.950 . S
C888 C889 1.327 . S
C889 H883 0.950 . S
C889 C888 1.327 . S
C889 C893 1.429 . S
C890 C873 1.574 . S
C890 H884 0.949 . S
C890 C894 1.368 . S
C891 C872 1.429 . S
C891 C885 1.429 . S
C891 C892 1.523 . S
C892 C873 1.368 . S
C892 C886 1.368 . S
C892 C891 1.523 . S
C893 C877 1.429 . S
C893 C889 1.429 . S
C893 C894 1.523 . S
C894 C878 1.368 . S
C894 C890 1.368 . S
C894 C893 1.523 . S
H895 C870 0.950 . S
H896 C872 0.950 . S
H897 C873 0.949 . S
H898 C875 0.950 . S
H899 C877 0.950 . S
C900 C901 1.349 . S
C900 C902 1.327 . S
C900 H925 0.950 . S
C901 C900 1.349 . S
C901 C917 1.349 . S
C902 C900 1.327 . S
C902 C921 1.425 1_565 S
C902 H926 0.950 . S
C903 C920 1.574 . S
C903 C922 1.368 . S
C903 H927 0.949 . S
H904 C908 0.949 . S
C905 C906 1.349 . S
C905 C907 1.327 . S
C905 H928 0.950 . S
C906 C905 1.349 . S
C906 C918 1.349 . S
C907 C905 1.327 . S
C907 C923 1.429 . S
C907 H929 0.950 . S
C908 H904 0.949 . S
C908 C916 1.574 . S
C908 C924 1.368 . S
H909 C917 0.950 . S
H910 C915 0.950 1_545 S
H911 C916 0.949 . S
H912 C918 0.950 . S
H913 C919 0.950 . S
H914 C920 0.949 . S
C915 H910 0.950 1_565 S
C915 C917 1.327 . S
C915 C921 1.426 1_565 S
C916 C908 1.574 . S
C916 H911 0.949 . S
C916 C922 1.368 . S
C917 C901 1.349 . S
C917 H909 0.950 . S
C917 C915 1.327 . S
C918 C906 1.349 . S
C918 H912 0.950 . S
C918 C919 1.327 . S
C919 H913 0.950 . S
C919 C918 1.327 . S
C919 C923 1.429 . S
C920 C903 1.574 . S
C920 H914 0.949 . S
C920 C924 1.368 . S
C921 C902 1.425 1_545 S
C921 C915 1.426 1_545 S
C921 C922 1.529 . S
C922 C903 1.368 . S
C922 C916 1.368 . S
C922 C921 1.529 . S
C923 C907 1.429 . S
C923 C919 1.429 . S
C923 C924 1.523 . S
C924 C908 1.368 . S
C924 C920 1.368 . S
C924 C923 1.523 . S
H925 C900 0.950 . S
H926 C902 0.950 . S
H927 C903 0.949 . S
H928 C905 0.950 . S
H929 C907 0.950 . S
C930 C931 1.349 . S
C930 C932 1.327 . S
C930 H955 0.950 . S
C931 C930 1.349 . S
C931 C947 1.349 . S
C932 C930 1.327 . S
C932 C951 1.429 . S
C932 H956 0.950 . S
C933 C950 1.574 . S
C933 C952 1.368 1_655 S
C933 H957 0.949 1_655 S
H934 C938 0.949 . S
C935 C936 1.349 . S
C935 C937 1.327 . S
C935 H958 0.950 . S
C936 C935 1.349 . S
C936 C948 1.349 . S
C937 C935 1.327 . S
C937 C953 1.429 . S
C937 H959 0.950 . S
C938 H934 0.949 . S
C938 C946 1.579 . S
C938 C954 1.368 . S
H939 C947 0.950 . S
H940 C945 0.950 . S
H941 C946 0.945 1_455 S
H942 C948 0.950 . S
H943 C949 0.950 . S
H944 C950 0.949 . S
C945 H940 0.950 . S
C945 C947 1.327 . S
C945 C951 1.429 . S
C946 C938 1.579 . S
C946 H941 0.945 1_655 S
C946 C952 1.368 1_655 S
C947 C931 1.349 . S
C947 H939 0.950 . S
C947 C945 1.327 . S
C948 C936 1.349 . S
C948 H942 0.950 . S
C948 C949 1.327 . S
C949 H943 0.950 . S
C949 C948 1.327 . S
C949 C953 1.429 . S
C950 C933 1.574 . S
C950 H944 0.949 . S
C950 C954 1.368 . S
C951 C932 1.429 . S
C951 C945 1.429 . S
C951 C952 1.523 . S
C952 C933 1.368 1_455 S
C952 C946 1.368 1_455 S
C952 C951 1.523 . S
C953 C937 1.429 . S
C953 C949 1.429 . S
C953 C954 1.523 . S
C954 C938 1.368 . S
C954 C950 1.368 . S
C954 C953 1.523 . S
H955 C930 0.950 . S
H956 C932 0.950 . S
H957 C933 0.949 1_455 S
H958 C935 0.950 . S
H959 C937 0.950 . S
C960 C961 1.339 1_655 S
C960 C962 1.345 . S
C960 H985 0.941 1_655 S
C961 C960 1.339 1_455 S
C961 C977 1.349 . S
C962 C960 1.345 . S
C962 C981 1.429 . S
C962 H986 0.950 . S
C963 C980 1.574 . S
C963 C982 1.368 . S
C963 H987 0.949 . S
H964 C968 0.949 . S
C965 C966 1.349 . S
C965 C967 1.327 . S
C965 H988 0.950 . S
C966 C965 1.349 . S
C966 C978 1.349 . S
C967 C965 1.327 . S
C967 C983 1.429 . S
C967 H989 0.950 . S
C968 H964 0.949 . S
C968 C976 1.574 . S
C968 C984 1.368 . S
H969 C977 0.950 . S
H970 C975 0.950 . S
H971 C976 0.949 . S
H972 C978 0.950 . S
H973 C979 0.950 . S
H974 C980 0.949 . S
C975 H970 0.950 . S
C975 C977 1.327 1_655 S
C975 C981 1.429 . S
C976 C968 1.574 . S
C976 H971 0.949 . S
C976 C982 1.368 . S
C977 C961 1.349 . S
C977 H969 0.950 . S
C977 C975 1.327 1_455 S
C978 C966 1.349 . S
C978 H972 0.950 . S
C978 C979 1.327 . S
C979 H973 0.950 . S
C979 C978 1.327 . S
C979 C983 1.429 . S
C980 C963 1.574 . S
C980 H974 0.949 . S
C980 C984 1.368 . S
C981 C962 1.429 . S
C981 C975 1.429 . S
C981 C982 1.523 . S
C982 C963 1.368 . S
C982 C976 1.368 . S
C982 C981 1.523 . S
C983 C967 1.429 . S
C983 C979 1.429 . S
C983 C984 1.523 . S
C984 C968 1.368 . S
C984 C980 1.368 . S
C984 C983 1.523 . S
H985 C960 0.941 1_455 S
H986 C962 0.950 . S
H987 C963 0.949 . S
H988 C965 0.950 . S
H989 C967 0.950 . S
C990 C991 1.349 . S
C990 C992 1.327 . S
C990 H1015 0.950 . S
C991 C990 1.349 . S
C991 C1007 1.349 . S
C992 C990 1.327 . S
C992 C1011 1.429 . S
C992 H1016 0.950 . S
C993 C1010 1.574 . S
C993 C1012 1.368 . S
C993 H1017 0.949 . S
H994 C998 0.949 . S
C995 C996 1.349 . S
C995 C997 1.327 . S
C995 H1018 0.950 . S
C996 C995 1.349 . S
C996 C1008 1.349 . S
C997 C995 1.327 . S
C997 C1013 1.429 . S
C997 H1019 0.950 . S
C998 H994 0.949 . S
C998 C1006 1.574 . S
C998 C1014 1.368 . S
H999 C1007 0.950 . S
H1000 C1005 0.950 . S
H1001 C1006 0.949 . S
H1002 C1008 0.950 . S
H1003 C1009 0.950 . S
H1004 C1010 0.949 . S
C1005 H1000 0.950 . S
C1005 C1007 1.327 . S
C1005 C1011 1.429 . S
C1006 C998 1.574 . S
C1006 H1001 0.949 . S
C1006 C1012 1.368 . S
C1007 C991 1.349 . S
C1007 H999 0.950 . S
C1007 C1005 1.327 . S
C1008 C996 1.349 . S
C1008 H1002 0.950 . S
C1008 C1009 1.327 . S
C1009 H1003 0.950 . S
C1009 C1008 1.327 . S
C1009 C1013 1.429 . S
C1010 C993 1.574 . S
C1010 H1004 0.949 . S
C1010 C1014 1.368 . S
C1011 C992 1.429 . S
C1011 C1005 1.429 . S
C1011 C1012 1.523 . S
C1012 C993 1.368 . S
C1012 C1006 1.368 . S
C1012 C1011 1.523 . S
C1013 C997 1.429 . S
C1013 C1009 1.429 . S
C1013 C1014 1.523 . S
C1014 C998 1.368 . S
C1014 C1010 1.368 . S
C1014 C1013 1.523 . S
H1015 C990 0.950 . S
H1016 C992 0.950 . S
H1017 C993 0.949 . S
H1018 C995 0.950 . S
H1019 C997 0.950 . S
C1020 C1021 1.349 . S
C1020 C1022 1.327 . S
C1020 H1045 0.950 . S
C1021 C1020 1.349 . S
C1021 C1037 1.349 . S
C1022 C1020 1.327 . S
C1022 C1041 1.429 . S
C1022 H1046 0.950 . S
C1023 C1040 1.574 . S
C1023 C1042 1.368 . S
C1023 H1047 0.949 . S
H1024 C1028 0.949 . S
C1025 C1026 1.349 . S
C1025 C1027 1.327 . S
C1025 H1048 0.950 . S
C1026 C1025 1.349 . S
C1026 C1038 1.349 . S
C1027 C1025 1.327 . S
C1027 C1043 1.429 . S
C1027 H1049 0.950 . S
C1028 H1024 0.949 . S
C1028 C1036 1.574 . S
C1028 C1044 1.368 . S
H1029 C1037 0.950 . S
H1030 C1035 0.950 . S
H1031 C1036 0.949 . S
H1032 C1038 0.950 . S
H1033 C1039 0.950 . S
H1034 C1040 0.949 . S
C1035 H1030 0.950 . S
C1035 C1037 1.327 . S
C1035 C1041 1.429 . S
C1036 C1028 1.574 . S
C1036 H1031 0.949 . S
C1036 C1042 1.368 . S
C1037 C1021 1.349 . S
C1037 H1029 0.950 . S
C1037 C1035 1.327 . S
C1038 C1026 1.349 . S
C1038 H1032 0.950 . S
C1038 C1039 1.327 . S
C1039 H1033 0.950 . S
C1039 C1038 1.327 . S
C1039 C1043 1.429 . S
C1040 C1023 1.574 . S
C1040 H1034 0.949 . S
C1040 C1044 1.368 . S
C1041 C1022 1.429 . S
C1041 C1035 1.429 . S
C1041 C1042 1.523 . S
C1042 C1023 1.368 . S
C1042 C1036 1.368 . S
C1042 C1041 1.523 . S
C1043 C1027 1.429 . S
C1043 C1039 1.429 . S
C1043 C1044 1.523 . S
C1044 C1028 1.368 . S
C1044 C1040 1.368 . S
C1044 C1043 1.523 . S
H1045 C1020 0.950 . S
H1046 C1022 0.950 . S
H1047 C1023 0.949 . S
H1048 C1025 0.950 . S
H1049 C1027 0.950 . S
C1050 C1051 1.349 . S
C1050 C1052 1.327 . S
C1050 H1075 0.950 . S
C1051 C1050 1.349 . S
C1051 C1067 1.349 . S
C1052 C1050 1.327 . S
C1052 C1071 1.429 . S
C1052 H1076 0.950 . S
C1053 C1070 1.574 . S
C1053 C1072 1.368 . S
C1053 H1077 0.949 . S
H1054 C1058 0.949 . S
C1055 C1056 1.349 . S
C1055 C1057 1.327 . S
C1055 H1078 0.950 . S
C1056 C1055 1.349 . S
C1056 C1068 1.349 . S
C1057 C1055 1.327 . S
C1057 C1073 1.429 . S
C1057 H1079 0.950 . S
C1058 H1054 0.949 . S
C1058 C1066 1.574 . S
C1058 C1074 1.368 . S
H1059 C1067 0.950 . S
H1060 C1065 0.950 . S
H1061 C1066 0.949 . S
H1062 C1068 0.950 . S
H1063 C1069 0.950 . S
H1064 C1070 0.949 . S
C1065 H1060 0.950 . S
C1065 C1067 1.327 . S
C1065 C1071 1.429 . S
C1066 C1058 1.574 . S
C1066 H1061 0.949 . S
C1066 C1072 1.368 . S
C1067 C1051 1.349 . S
C1067 H1059 0.950 . S
C1067 C1065 1.327 . S
C1068 C1056 1.349 . S
C1068 H1062 0.950 . S
C1068 C1069 1.327 . S
C1069 H1063 0.950 . S
C1069 C1068 1.327 . S
C1069 C1073 1.429 . S
C1070 C1053 1.574 . S
C1070 H1064 0.949 . S
C1070 C1074 1.368 . S
C1071 C1052 1.429 . S
C1071 C1065 1.429 . S
C1071 C1072 1.523 . S
C1072 C1053 1.368 . S
C1072 C1066 1.368 . S
C1072 C1071 1.523 . S
C1073 C1057 1.429 . S
C1073 C1069 1.429 . S
C1073 C1074 1.523 . S
C1074 C1058 1.368 . S
C1074 C1070 1.368 . S
C1074 C1073 1.523 . S
H1075 C1050 0.950 . S
H1076 C1052 0.950 . S
H1077 C1053 0.949 . S
H1078 C1055 0.950 . S
H1079 C1057 0.950 . S
C1080 C1081 1.349 . S
C1080 C1082 1.327 . S
C1080 H1105 0.950 . S
C1081 C1080 1.349 . S
C1081 C1097 1.349 . S
C1082 C1080 1.327 . S
C1082 C1101 1.429 . S
C1082 H1106 0.950 . S
C1083 C1100 1.574 . S
C1083 C1102 1.368 . S
C1083 H1107 0.949 . S
H1084 C1088 0.949 . S
C1085 C1086 1.349 . S
C1085 C1087 1.327 . S
C1085 H1108 0.950 . S
C1086 C1085 1.349 . S
C1086 C1098 1.349 . S
C1087 C1085 1.327 . S
C1087 C1103 1.429 . S
C1087 H1109 0.950 . S
C1088 H1084 0.949 . S
C1088 C1096 1.574 . S
C1088 C1104 1.368 . S
H1089 C1097 0.950 . S
H1090 C1095 0.950 . S
H1091 C1096 0.949 . S
H1092 C1098 0.950 . S
H1093 C1099 0.950 . S
H1094 C1100 0.949 . S
C1095 H1090 0.950 . S
C1095 C1097 1.327 . S
C1095 C1101 1.429 . S
C1096 C1088 1.574 . S
C1096 H1091 0.949 . S
C1096 C1102 1.368 . S
C1097 C1081 1.349 . S
C1097 H1089 0.950 . S
C1097 C1095 1.327 . S
C1098 C1086 1.349 . S
C1098 H1092 0.950 . S
C1098 C1099 1.327 . S
C1099 H1093 0.950 . S
C1099 C1098 1.327 . S
C1099 C1103 1.429 . S
C1100 C1083 1.574 . S
C1100 H1094 0.949 . S
C1100 C1104 1.368 . S
C1101 C1082 1.429 . S
C1101 C1095 1.429 . S
C1101 C1102 1.523 . S
C1102 C1083 1.368 . S
C1102 C1096 1.368 . S
C1102 C1101 1.523 . S
C1103 C1087 1.429 . S
C1103 C1099 1.429 . S
C1103 C1104 1.523 . S
C1104 C1088 1.368 . S
C1104 C1100 1.368 . S
C1104 C1103 1.523 . S
H1105 C1080 0.950 . S
H1106 C1082 0.950 . S
H1107 C1083 0.949 . S
H1108 C1085 0.950 . S
H1109 C1087 0.950 . S
C1110 C1111 1.349 . S
C1110 C1112 1.327 . S
C1110 H1135 0.950 . S
C1111 C1110 1.349 . S
C1111 C1127 1.349 . S
C1112 C1110 1.327 . S
C1112 C1131 1.429 . S
C1112 H1136 0.950 . S
C1113 C1130 1.574 . S
C1113 C1132 1.368 . S
C1113 H1137 0.949 . S
H1114 C1118 0.949 . S
C1115 C1116 1.349 . S
C1115 C1117 1.327 . S
C1115 H1138 0.950 . S
C1116 C1115 1.349 . S
C1116 C1128 1.349 . S
C1117 C1115 1.327 . S
C1117 C1133 1.429 . S
C1117 H1139 0.950 . S
C1118 H1114 0.949 . S
C1118 C1126 1.574 . S
C1118 C1134 1.368 . S
H1119 C1127 0.950 . S
H1120 C1125 0.950 . S
H1121 C1126 0.949 . S
H1122 C1128 0.950 . S
H1123 C1129 0.950 . S
H1124 C1130 0.949 . S
C1125 H1120 0.950 . S
C1125 C1127 1.327 . S
C1125 C1131 1.429 . S
C1126 C1118 1.574 . S
C1126 H1121 0.949 . S
C1126 C1132 1.368 . S
C1127 C1111 1.349 . S
C1127 H1119 0.950 . S
C1127 C1125 1.327 . S
C1128 C1116 1.349 . S
C1128 H1122 0.950 . S
C1128 C1129 1.327 . S
C1129 H1123 0.950 . S
C1129 C1128 1.327 . S
C1129 C1133 1.429 . S
C1130 C1113 1.574 . S
C1130 H1124 0.949 . S
C1130 C1134 1.368 . S
C1131 C1112 1.429 . S
C1131 C1125 1.429 . S
C1131 C1132 1.523 . S
C1132 C1113 1.368 . S
C1132 C1126 1.368 . S
C1132 C1131 1.523 . S
C1133 C1117 1.429 . S
C1133 C1129 1.429 . S
C1133 C1134 1.523 . S
C1134 C1118 1.368 . S
C1134 C1130 1.368 . S
C1134 C1133 1.523 . S
H1135 C1110 0.950 . S
H1136 C1112 0.950 . S
H1137 C1113 0.949 . S
H1138 C1115 0.950 . S
H1139 C1117 0.950 . S
C1140 C1141 1.349 . S
C1140 C1142 1.327 . S
C1140 H1165 0.950 . S
C1141 C1140 1.349 . S
C1141 C1157 1.349 . S
C1142 C1140 1.327 . S
C1142 C1161 1.429 . S
C1142 H1166 0.950 . S
C1143 C1160 1.574 . S
C1143 C1162 1.368 . S
C1143 H1167 0.949 . S
H1144 C1148 0.949 . S
C1145 C1146 1.349 . S
C1145 C1147 1.327 . S
C1145 H1168 0.950 . S
C1146 C1145 1.349 . S
C1146 C1158 1.349 . S
C1147 C1145 1.327 . S
C1147 C1163 1.429 . S
C1147 H1169 0.950 . S
C1148 H1144 0.949 . S
C1148 C1156 1.574 . S
C1148 C1164 1.368 . S
H1149 C1157 0.950 . S
H1150 C1155 0.950 . S
H1151 C1156 0.949 . S
H1152 C1158 0.950 . S
H1153 C1159 0.950 . S
H1154 C1160 0.949 . S
C1155 H1150 0.950 . S
C1155 C1157 1.327 . S
C1155 C1161 1.429 . S
C1156 C1148 1.574 . S
C1156 H1151 0.949 . S
C1156 C1162 1.368 . S
C1157 C1141 1.349 . S
C1157 H1149 0.950 . S
C1157 C1155 1.327 . S
C1158 C1146 1.349 . S
C1158 H1152 0.950 . S
C1158 C1159 1.327 . S
C1159 H1153 0.950 . S
C1159 C1158 1.327 . S
C1159 C1163 1.429 . S
C1160 C1143 1.574 . S
C1160 H1154 0.949 . S
C1160 C1164 1.368 . S
C1161 C1142 1.429 . S
C1161 C1155 1.429 . S
C1161 C1162 1.523 . S
C1162 C1143 1.368 . S
C1162 C1156 1.368 . S
C1162 C1161 1.523 . S
C1163 C1147 1.429 . S
C1163 C1159 1.429 . S
C1163 C1164 1.523 . S
C1164 C1148 1.368 . S
C1164 C1160 1.368 . S
C1164 C1163 1.523 . S
H1165 C1140 0.950 . S
H1166 C1142 0.950 . S
H1167 C1143 0.949 . S
H1168 C1145 0.950 . S
H1169 C1147 0.950 . S
C1170 C1171 1.349 . S
C1170 C1172 1.327 . S
C1170 H1195 0.950 . S
C1171 C1170 1.349 . S
C1171 C1187 1.349 . S
C1172 C1170 1.327 . S
C1172 C1191 1.425 1_655 S
C1172 H1196 0.950 . S
C1173 C1190 1.574 . S
C1173 C1192 1.368 . S
C1173 H1197 0.949 . S
H1174 C1178 0.949 . S
C1175 C1176 1.349 . S
C1175 C1177 1.327 . S
C1175 H1198 0.950 . S
C1176 C1175 1.349 . S
C1176 C1188 1.349 . S
C1177 C1175 1.327 . S
C1177 C1193 1.429 . S
C1177 H1199 0.950 . S
C1178 H1174 0.949 . S
C1178 C1186 1.574 . S
C1178 C1194 1.368 . S
H1179 C1187 0.950 . S
H1180 C1185 0.950 1_455 S
H1181 C1186 0.949 . S
H1182 C1188 0.950 . S
H1183 C1189 0.950 . S
H1184 C1190 0.949 . S
C1185 H1180 0.950 1_655 S
C1185 C1187 1.327 . S
C1185 C1191 1.426 1_655 S
C1186 C1178 1.574 . S
C1186 H1181 0.949 . S
C1186 C1192 1.368 . S
C1187 C1171 1.349 . S
C1187 H1179 0.950 . S
C1187 C1185 1.327 . S
C1188 C1176 1.349 . S
C1188 H1182 0.950 . S
C1188 C1189 1.327 . S
C1189 H1183 0.950 . S
C1189 C1188 1.327 . S
C1189 C1193 1.429 . S
C1190 C1173 1.574 . S
C1190 H1184 0.949 . S
C1190 C1194 1.368 . S
C1191 C1172 1.425 1_455 S
C1191 C1185 1.426 1_455 S
C1191 C1192 1.529 . S
C1192 C1173 1.368 . S
C1192 C1186 1.368 . S
C1192 C1191 1.529 . S
C1193 C1177 1.429 . S
C1193 C1189 1.429 . S
C1193 C1194 1.523 . S
C1194 C1178 1.368 . S
C1194 C1190 1.368 . S
C1194 C1193 1.523 . S
H1195 C1170 0.950 . S
H1196 C1172 0.950 . S
H1197 C1173 0.949 . S
H1198 C1175 0.950 . S
H1199 C1177 0.950 . S
C1200 C1201 1.349 . S
C1200 C1202 1.327 . S
C1200 H1225 0.950 . S
C1201 C1200 1.349 . S
C1201 C1217 1.349 . S
C1202 C1200 1.327 . S
C1202 C1221 1.429 . S
C1202 H1226 0.950 . S
C1203 C1220 1.574 . S
C1203 C1222 1.368 . S
C1203 H1227 0.949 . S
H1204 C1208 0.949 . S
C1205 C1206 1.349 . S
C1205 C1207 1.327 1_545 S
C1205 H1228 0.950 . S
C1206 C1205 1.349 . S
C1206 C1218 1.349 1_545 S
C1207 C1205 1.327 1_565 S
C1207 C1223 1.429 . S
C1207 H1229 0.950 . S
C1208 H1204 0.949 . S
C1208 C1216 1.574 . S
C1208 C1224 1.368 . S
H1209 C1217 0.950 . S
H1210 C1215 0.950 . S
H1211 C1216 0.949 . S
H1212 C1218 0.950 1_545 S
H1213 C1219 0.950 . S
H1214 C1220 0.949 . S
C1215 H1210 0.950 . S
C1215 C1217 1.327 . S
C1215 C1221 1.429 . S
C1216 C1208 1.574 . S
C1216 H1211 0.949 . S
C1216 C1222 1.368 . S
C1217 C1201 1.349 . S
C1217 H1209 0.950 . S
C1217 C1215 1.327 . S
C1218 C1206 1.349 1_565 S
C1218 H1212 0.950 1_565 S
C1218 C1219 1.327 . S
C1219 H1213 0.950 . S
C1219 C1218 1.327 . S
C1219 C1223 1.429 . S
C1220 C1203 1.574 . S
C1220 H1214 0.949 . S
C1220 C1224 1.368 . S
C1221 C1202 1.429 . S
C1221 C1215 1.429 . S
C1221 C1222 1.523 . S
C1222 C1203 1.368 . S
C1222 C1216 1.368 . S
C1222 C1221 1.523 . S
C1223 C1207 1.429 . S
C1223 C1219 1.429 . S
C1223 C1224 1.523 . S
C1224 C1208 1.368 . S
C1224 C1220 1.368 . S
C1224 C1223 1.523 . S
H1225 C1200 0.950 . S
H1226 C1202 0.950 . S
H1227 C1203 0.949 . S
H1228 C1205 0.950 . S
H1229 C1207 0.950 . S
C1230 C1231 1.349 . S
C1230 C1232 1.327 . S
C1230 H1255 0.950 . S
C1231 C1230 1.349 . S
C1231 C1247 1.349 . S
C1232 C1230 1.327 . S
C1232 C1251 1.429 . S
C1232 H1256 0.950 . S
C1233 C1250 1.574 . S
C1233 C1252 1.368 1_565 S
C1233 H1257 0.949 . S
H1234 C1238 0.949 . S
C1235 C1236 1.349 . S
C1235 C1237 1.327 . S
C1235 H1258 0.950 . S
C1236 C1235 1.349 . S
C1236 C1248 1.349 . S
C1237 C1235 1.327 . S
C1237 C1253 1.429 . S
C1237 H1259 0.950 . S
C1238 H1234 0.949 . S
C1238 C1246 1.574 1_565 S
C1238 C1254 1.368 . S
H1239 C1247 0.950 . S
H1240 C1245 0.950 . S
H1241 C1246 0.949 . S
H1242 C1248 0.950 . S
H1243 C1249 0.950 . S
H1244 C1250 0.949 . S
C1245 H1240 0.950 . S
C1245 C1247 1.327 . S
C1245 C1251 1.429 . S
C1246 C1238 1.574 1_545 S
C1246 H1241 0.949 . S
C1246 C1252 1.368 . S
C1247 C1231 1.349 . S
C1247 H1239 0.950 . S
C1247 C1245 1.327 . S
C1248 C1236 1.349 . S
C1248 H1242 0.950 . S
C1248 C1249 1.327 . S
C1249 H1243 0.950 . S
C1249 C1248 1.327 . S
C1249 C1253 1.429 . S
C1250 C1233 1.574 . S
C1250 H1244 0.949 . S
C1250 C1254 1.368 . S
C1251 C1232 1.429 . S
C1251 C1245 1.429 . S
C1251 C1252 1.523 . S
C1252 C1233 1.368 1_545 S
C1252 C1246 1.368 . S
C1252 C1251 1.523 . S
C1253 C1237 1.429 . S
C1253 C1249 1.429 . S
C1253 C1254 1.523 . S
C1254 C1238 1.368 . S
C1254 C1250 1.368 . S
C1254 C1253 1.523 . S
H1255 C1230 0.950 . S
H1256 C1232 0.950 . S
H1257 C1233 0.949 . S
H1258 C1235 0.950 . S
H1259 C1237 0.950 . S
C1260 C1261 1.349 . S
C1260 C1262 1.327 . S
C1260 H1285 0.950 . S
C1261 C1260 1.349 . S
C1261 C1277 1.349 1_545 S
C1262 C1260 1.327 . S
C1262 C1281 1.429 . S
C1262 H1286 0.950 . S
C1263 C1280 1.574 1_554 S
C1263 C1282 1.368 1_565 S
C1263 H1287 0.949 . S
H1264 C1268 0.949 . S
C1265 C1266 1.349 1_565 S
C1265 C1267 1.327 . S
C1265 H1288 0.950 . S
C1266 C1265 1.349 1_545 S
C1266 C1278 1.349 . S
C1267 C1265 1.327 . S
C1267 C1283 1.429 1_565 S
C1267 H1289 0.950 . S
C1268 H1264 0.949 . S
C1268 C1276 1.574 1_556 S
C1268 C1284 1.368 . S
H1269 C1277 0.950 . S
H1270 C1275 0.950 . S
H1271 C1276 0.949 . S
H1272 C1278 0.950 . S
H1273 C1279 0.950 . S
H1274 C1280 0.949 . S
C1275 H1270 0.950 . S
C1275 C1277 1.327 . S
C1275 C1281 1.429 1_565 S
C1276 C1268 1.574 1_554 S
C1276 H1271 0.949 . S
C1276 C1282 1.368 . S
C1277 C1261 1.349 1_565 S
C1277 H1269 0.950 . S
C1277 C1275 1.327 . S
C1278 C1266 1.349 . S
C1278 H1272 0.950 . S
C1278 C1279 1.327 . S
C1279 H1273 0.950 . S
C1279 C1278 1.327 . S
C1279 C1283 1.429 . S
C1280 C1263 1.574 1_556 S
C1280 H1274 0.949 . S
C1280 C1284 1.368 1_565 S
C1281 C1262 1.429 . S
C1281 C1275 1.429 1_545 S
C1281 C1282 1.523 . S
C1282 C1263 1.368 1_545 S
C1282 C1276 1.368 . S
C1282 C1281 1.523 . S
C1283 C1267 1.429 1_545 S
C1283 C1279 1.429 . S
C1283 C1284 1.523 . S
C1284 C1268 1.368 . S
C1284 C1280 1.368 1_545 S
C1284 C1283 1.523 . S
H1285 C1260 0.950 . S
H1286 C1262 0.950 . S
H1287 C1263 0.949 . S
H1288 C1265 0.950 . S
H1289 C1267 0.950 . S
C1290 C1291 1.349 . S
C1290 C1292 1.327 . S
C1290 H1315 0.950 . S
C1291 C1290 1.349 . S
C1291 C1307 1.349 . S
C1292 C1290 1.327 . S
C1292 C1311 1.429 . S
C1292 H1316 0.950 . S
C1293 C1310 1.574 1_556 S
C1293 C1312 1.368 . S
C1293 H1317 0.949 . S
H1294 C1298 0.949 . S
C1295 C1296 1.349 . S
C1295 C1297 1.327 . S
C1295 H1318 0.950 . S
C1296 C1295 1.349 . S
C1296 C1308 1.349 . S
C1297 C1295 1.327 . S
C1297 C1313 1.429 . S
C1297 H1319 0.950 . S
C1298 H1294 0.949 . S
C1298 C1306 1.574 1_554 S
C1298 C1314 1.368 . S
H1299 C1307 0.950 . S
H1300 C1305 0.950 . S
H1301 C1306 0.949 . S
H1302 C1308 0.950 . S
H1303 C1309 0.950 . S
H1304 C1310 0.949 . S
C1305 H1300 0.950 . S
C1305 C1307 1.327 . S
C1305 C1311 1.429 . S
C1306 C1298 1.574 1_556 S
C1306 H1301 0.949 . S
C1306 C1312 1.368 . S
C1307 C1291 1.349 . S
C1307 H1299 0.950 . S
C1307 C1305 1.327 . S
C1308 C1296 1.349 . S
C1308 H1302 0.950 . S
C1308 C1309 1.327 . S
C1309 H1303 0.950 . S
C1309 C1308 1.327 . S
C1309 C1313 1.429 . S
C1310 C1293 1.574 1_554 S
C1310 H1304 0.949 . S
C1310 C1314 1.368 . S
C1311 C1292 1.429 . S
C1311 C1305 1.429 . S
C1311 C1312 1.523 . S
C1312 C1293 1.368 . S
C1312 C1306 1.368 . S
C1312 C1311 1.523 . S
C1313 C1297 1.429 . S
C1313 C1309 1.429 . S
C1313 C1314 1.523 . S
C1314 C1298 1.368 . S
C1314 C1310 1.368 . S
C1314 C1313 1.523 . S
H1315 C1290 0.950 . S
H1316 C1292 0.950 . S
H1317 C1293 0.949 . S
H1318 C1295 0.950 . S
H1319 C1297 0.950 . S
C1320 C1321 1.349 . S
C1320 C1322 1.327 . S
C1320 H1345 0.950 . S
C1321 C1320 1.349 . S
C1321 C1337 1.349 . S
C1322 C1320 1.327 . S
C1322 C1341 1.429 . S
C1322 H1346 0.950 . S
C1323 C1340 1.574 1_556 S
C1323 C1342 1.368 . S
C1323 H1347 0.949 . S
H1324 C1328 0.949 . S
C1325 C1326 1.349 . S
C1325 C1327 1.327 . S
C1325 H1348 0.950 . S
C1326 C1325 1.349 . S
C1326 C1338 1.349 . S
C1327 C1325 1.327 . S
C1327 C1343 1.429 . S
C1327 H1349 0.950 . S
C1328 H1324 0.949 . S
C1328 C1336 1.574 1_554 S
C1328 C1344 1.368 . S
H1329 C1337 0.950 . S
H1330 C1335 0.950 . S
H1331 C1336 0.949 . S
H1332 C1338 0.950 . S
H1333 C1339 0.950 . S
H1334 C1340 0.949 . S
C1335 H1330 0.950 . S
C1335 C1337 1.327 . S
C1335 C1341 1.429 . S
C1336 C1328 1.574 1_556 S
C1336 H1331 0.949 . S
C1336 C1342 1.368 . S
C1337 C1321 1.349 . S
C1337 H1329 0.950 . S
C1337 C1335 1.327 . S
C1338 C1326 1.349 . S
C1338 H1332 0.950 . S
C1338 C1339 1.327 . S
C1339 H1333 0.950 . S
C1339 C1338 1.327 . S
C1339 C1343 1.429 . S
C1340 C1323 1.574 1_554 S
C1340 H1334 0.949 . S
C1340 C1344 1.368 . S
C1341 C1322 1.429 . S
C1341 C1335 1.429 . S
C1341 C1342 1.523 . S
C1342 C1323 1.368 . S
C1342 C1336 1.368 . S
C1342 C1341 1.523 . S
C1343 C1327 1.429 . S
C1343 C1339 1.429 . S
C1343 C1344 1.523 . S
C1344 C1328 1.368 . S
C1344 C1340 1.368 . S
C1344 C1343 1.523 . S
H1345 C1320 0.950 . S
H1346 C1322 0.950 . S
H1347 C1323 0.949 . S
H1348 C1325 0.950 . S
H1349 C1327 0.950 . S
C1350 C1351 1.349 . S
C1350 C1352 1.327 . S
C1350 H1375 0.950 . S
C1351 C1350 1.349 . S
C1351 C1367 1.349 . S
C1352 C1350 1.327 . S
C1352 C1371 1.429 . S
C1352 H1376 0.950 . S
C1353 C1370 1.574 . S
C1353 C1372 1.368 . S
C1353 H1377 0.949 . S
H1354 C1358 0.949 . S
C1355 C1356 1.349 . S
C1355 C1357 1.327 . S
C1355 H1378 0.950 . S
C1356 C1355 1.349 . S
C1356 C1368 1.349 . S
C1357 C1355 1.327 . S
C1357 C1373 1.429 . S
C1357 H1379 0.950 . S
C1358 H1354 0.949 . S
C1358 C1366 1.574 . S
C1358 C1374 1.368 . S
H1359 C1367 0.950 . S
H1360 C1365 0.950 . S
H1361 C1366 0.949 . S
H1362 C1368 0.950 . S
H1363 C1369 0.950 . S
H1364 C1370 0.949 . S
C1365 H1360 0.950 . S
C1365 C1367 1.327 . S
C1365 C1371 1.429 . S
C1366 C1358 1.574 . S
C1366 H1361 0.949 . S
C1366 C1372 1.368 . S
C1367 C1351 1.349 . S
C1367 H1359 0.950 . S
C1367 C1365 1.327 . S
C1368 C1356 1.349 . S
C1368 H1362 0.950 . S
C1368 C1369 1.327 . S
C1369 H1363 0.950 . S
C1369 C1368 1.327 . S
C1369 C1373 1.429 . S
C1370 C1353 1.574 . S
C1370 H1364 0.949 . S
C1370 C1374 1.368 . S
C1371 C1352 1.429 . S
C1371 C1365 1.429 . S
C1371 C1372 1.523 . S
C1372 C1353 1.368 . S
C1372 C1366 1.368 . S
C1372 C1371 1.523 . S
C1373 C1357 1.429 . S
C1373 C1369 1.429 . S
C1373 C1374 1.523 . S
C1374 C1358 1.368 . S
C1374 C1370 1.368 . S
C1374 C1373 1.523 . S
H1375 C1350 0.950 . S
H1376 C1352 0.950 . S
H1377 C1353 0.949 . S
H1378 C1355 0.950 . S
H1379 C1357 0.950 . S
C1380 C1381 1.349 . S
C1380 C1382 1.327 . S
C1380 H1405 0.950 . S
C1381 C1380 1.349 . S
C1381 C1397 1.349 . S
C1382 C1380 1.327 . S
C1382 C1401 1.429 . S
C1382 H1406 0.950 . S
C1383 C1400 1.574 . S
C1383 C1402 1.368 . S
C1383 H1407 0.949 . S
H1384 C1388 0.949 . S
C1385 C1386 1.349 . S
C1385 C1387 1.327 . S
C1385 H1408 0.950 . S
C1386 C1385 1.349 . S
C1386 C1398 1.349 . S
C1387 C1385 1.327 . S
C1387 C1403 1.429 . S
C1387 H1409 0.950 . S
C1388 H1384 0.949 . S
C1388 C1396 1.574 . S
C1388 C1404 1.368 . S
H1389 C1397 0.950 . S
H1390 C1395 0.950 . S
H1391 C1396 0.949 . S
H1392 C1398 0.950 . S
H1393 C1399 0.950 . S
H1394 C1400 0.949 . S
C1395 H1390 0.950 . S
C1395 C1397 1.327 . S
C1395 C1401 1.429 . S
C1396 C1388 1.574 . S
C1396 H1391 0.949 . S
C1396 C1402 1.368 . S
C1397 C1381 1.349 . S
C1397 H1389 0.950 . S
C1397 C1395 1.327 . S
C1398 C1386 1.349 . S
C1398 H1392 0.950 . S
C1398 C1399 1.327 . S
C1399 H1393 0.950 . S
C1399 C1398 1.327 . S
C1399 C1403 1.429 . S
C1400 C1383 1.574 . S
C1400 H1394 0.949 . S
C1400 C1404 1.368 . S
C1401 C1382 1.429 . S
C1401 C1395 1.429 . S
C1401 C1402 1.523 . S
C1402 C1383 1.368 . S
C1402 C1396 1.368 . S
C1402 C1401 1.523 . S
C1403 C1387 1.429 . S
C1403 C1399 1.429 . S
C1403 C1404 1.523 . S
C1404 C1388 1.368 . S
C1404 C1400 1.368 . S
C1404 C1403 1.523 . S
H1405 C1380 0.950 . S
H1406 C1382 0.950 . S
H1407 C1383 0.949 . S
H1408 C1385 0.950 . S
H1409 C1387 0.950 . S
C1410 C1411 1.349 . S
C1410 C1412 1.327 . S
C1410 H1435 0.950 . S
C1411 C1410 1.349 . S
C1411 C1427 1.349 . S
C1412 C1410 1.327 . S
C1412 C1431 1.429 . S
C1412 H1436 0.950 . S
C1413 C1430 1.574 . S
C1413 C1432 1.368 . S
C1413 H1437 0.949 . S
H1414 C1418 0.949 . S
C1415 C1416 1.349 . S
C1415 C1417 1.327 . S
C1415 H1438 0.950 . S
C1416 C1415 1.349 . S
C1416 C1428 1.349 . S
C1417 C1415 1.327 . S
C1417 C1433 1.429 . S
C1417 H1439 0.950 . S
C1418 H1414 0.949 . S
C1418 C1426 1.574 . S
C1418 C1434 1.368 . S
H1419 C1427 0.950 . S
H1420 C1425 0.950 . S
H1421 C1426 0.949 . S
H1422 C1428 0.950 . S
H1423 C1429 0.950 . S
H1424 C1430 0.949 . S
C1425 H1420 0.950 . S
C1425 C1427 1.327 . S
C1425 C1431 1.429 . S
C1426 C1418 1.574 . S
C1426 H1421 0.949 . S
C1426 C1432 1.368 . S
C1427 C1411 1.349 . S
C1427 H1419 0.950 . S
C1427 C1425 1.327 . S
C1428 C1416 1.349 . S
C1428 H1422 0.950 . S
C1428 C1429 1.327 . S
C1429 H1423 0.950 . S
C1429 C1428 1.327 . S
C1429 C1433 1.429 . S
C1430 C1413 1.574 . S
C1430 H1424 0.949 . S
C1430 C1434 1.368 . S
C1431 C1412 1.429 . S
C1431 C1425 1.429 . S
C1431 C1432 1.523 . S
C1432 C1413 1.368 . S
C1432 C1426 1.368 . S
C1432 C1431 1.523 . S
C1433 C1417 1.429 . S
C1433 C1429 1.429 . S
C1433 C1434 1.523 . S
C1434 C1418 1.368 . S
C1434 C1430 1.368 . S
C1434 C1433 1.523 . S
H1435 C1410 0.950 . S
H1436 C1412 0.950 . S
H1437 C1413 0.949 . S
H1438 C1415 0.950 . S
H1439 C1417 0.950 . S
C1440 C1441 1.349 . S
C1440 C1442 1.327 . S
C1440 H1465 0.950 . S
C1441 C1440 1.349 . S
C1441 C1457 1.349 . S
C1442 C1440 1.327 . S
C1442 C1461 1.429 . S
C1442 H1466 0.950 . S
C1443 C1460 1.574 . S
C1443 C1462 1.368 . S
C1443 H1467 0.949 . S
H1444 C1448 0.949 . S
C1445 C1446 1.349 . S
C1445 C1447 1.327 . S
C1445 H1468 0.950 . S
C1446 C1445 1.349 . S
C1446 C1458 1.349 . S
C1447 C1445 1.327 . S
C1447 C1463 1.429 . S
C1447 H1469 0.950 . S
C1448 H1444 0.949 . S
C1448 C1456 1.574 . S
C1448 C1464 1.368 . S
H1449 C1457 0.950 . S
H1450 C1455 0.950 . S
H1451 C1456 0.949 . S
H1452 C1458 0.950 . S
H1453 C1459 0.950 . S
H1454 C1460 0.949 . S
C1455 H1450 0.950 . S
C1455 C1457 1.327 . S
C1455 C1461 1.429 . S
C1456 C1448 1.574 . S
C1456 H1451 0.949 . S
C1456 C1462 1.368 . S
C1457 C1441 1.349 . S
C1457 H1449 0.950 . S
C1457 C1455 1.327 . S
C1458 C1446 1.349 . S
C1458 H1452 0.950 . S
C1458 C1459 1.327 . S
C1459 H1453 0.950 . S
C1459 C1458 1.327 . S
C1459 C1463 1.429 . S
C1460 C1443 1.574 . S
C1460 H1454 0.949 . S
C1460 C1464 1.368 . S
C1461 C1442 1.429 . S
C1461 C1455 1.429 . S
C1461 C1462 1.523 . S
C1462 C1443 1.368 . S
C1462 C1456 1.368 . S
C1462 C1461 1.523 . S
C1463 C1447 1.429 . S
C1463 C1459 1.429 . S
C1463 C1464 1.523 . S
C1464 C1448 1.368 . S
C1464 C1460 1.368 . S
C1464 C1463 1.523 . S
H1465 C1440 0.950 . S
H1466 C1442 0.950 . S
H1467 C1443 0.949 . S
H1468 C1445 0.950 . S
H1469 C1447 0.950 . S
C1470 C1471 1.349 . S
C1470 C1472 1.327 . S
C1470 H1495 0.950 . S
C1471 C1470 1.349 . S
C1471 C1487 1.349 . S
C1472 C1470 1.327 . S
C1472 C1491 1.429 . S
C1472 H1496 0.950 . S
C1473 C1490 1.574 . S
C1473 C1492 1.368 . S
C1473 H1497 0.949 . S
H1474 C1478 0.949 . S
C1475 C1476 1.349 . S
C1475 C1477 1.327 . S
C1475 H1498 0.950 . S
C1476 C1475 1.349 . S
C1476 C1488 1.349 . S
C1477 C1475 1.327 . S
C1477 C1493 1.429 . S
C1477 H1499 0.950 . S
C1478 H1474 0.949 . S
C1478 C1486 1.574 . S
C1478 C1494 1.368 . S
H1479 C1487 0.950 . S
H1480 C1485 0.950 . S
H1481 C1486 0.949 . S
H1482 C1488 0.950 . S
H1483 C1489 0.950 . S
H1484 C1490 0.949 . S
C1485 H1480 0.950 . S
C1485 C1487 1.327 . S
C1485 C1491 1.429 . S
C1486 C1478 1.574 . S
C1486 H1481 0.949 . S
C1486 C1492 1.368 . S
C1487 C1471 1.349 . S
C1487 H1479 0.950 . S
C1487 C1485 1.327 . S
C1488 C1476 1.349 . S
C1488 H1482 0.950 . S
C1488 C1489 1.327 . S
C1489 H1483 0.950 . S
C1489 C1488 1.327 . S
C1489 C1493 1.429 . S
C1490 C1473 1.574 . S
C1490 H1484 0.949 . S
C1490 C1494 1.368 . S
C1491 C1472 1.429 . S
C1491 C1485 1.429 . S
C1491 C1492 1.523 . S
C1492 C1473 1.368 . S
C1492 C1486 1.368 . S
C1492 C1491 1.523 . S
C1493 C1477 1.429 . S
C1493 C1489 1.429 . S
C1493 C1494 1.523 . S
C1494 C1478 1.368 . S
C1494 C1490 1.368 . S
C1494 C1493 1.523 . S
H1495 C1470 0.950 . S
H1496 C1472 0.950 . S
H1497 C1473 0.949 . S
H1498 C1475 0.950 . S
H1499 C1477 0.950 . S
C1500 C1501 1.349 . S
C1500 C1502 1.327 . S
C1500 H1525 0.950 . S
C1501 C1500 1.349 . S
C1501 C1517 1.349 . S
C1502 C1500 1.327 . S
C1502 C1521 1.429 . S
C1502 H1526 0.950 . S
C1503 C1520 1.574 . S
C1503 C1522 1.368 . S
C1503 H1527 0.949 . S
H1504 C1508 0.949 . S
C1505 C1506 1.349 . S
C1505 C1507 1.327 . S
C1505 H1528 0.950 . S
C1506 C1505 1.349 . S
C1506 C1518 1.349 . S
C1507 C1505 1.327 . S
C1507 C1523 1.429 . S
C1507 H1529 0.950 . S
C1508 H1504 0.949 . S
C1508 C1516 1.574 . S
C1508 C1524 1.368 . S
H1509 C1517 0.950 . S
H1510 C1515 0.950 . S
H1511 C1516 0.949 . S
H1512 C1518 0.950 . S
H1513 C1519 0.950 . S
H1514 C1520 0.949 . S
C1515 H1510 0.950 . S
C1515 C1517 1.327 . S
C1515 C1521 1.429 . S
C1516 C1508 1.574 . S
C1516 H1511 0.949 . S
C1516 C1522 1.368 . S
C1517 C1501 1.349 . S
C1517 H1509 0.950 . S
C1517 C1515 1.327 . S
C1518 C1506 1.349 . S
C1518 H1512 0.950 . S
C1518 C1519 1.327 . S
C1519 H1513 0.950 . S
C1519 C1518 1.327 . S
C1519 C1523 1.429 . S
C1520 C1503 1.574 . S
C1520 H1514 0.949 . S
C1520 C1524 1.368 . S
C1521 C1502 1.429 . S
C1521 C1515 1.429 . S
C1521 C1522 1.523 . S
C1522 C1503 1.368 . S
C1522 C1516 1.368 . S
C1522 C1521 1.523 . S
C1523 C1507 1.429 . S
C1523 C1519 1.429 . S
C1523 C1524 1.523 . S
C1524 C1508 1.368 . S
C1524 C1520 1.368 . S
C1524 C1523 1.523 . S
H1525 C1500 0.950 . S
H1526 C1502 0.950 . S
H1527 C1503 0.949 . S
H1528 C1505 0.950 . S
H1529 C1507 0.950 . S
C1530 C1531 1.349 . S
C1530 C1532 1.327 . S
C1530 H1555 0.950 . S
C1531 C1530 1.349 . S
C1531 C1547 1.349 . S
C1532 C1530 1.327 . S
C1532 C1551 1.429 . S
C1532 H1556 0.950 . S
C1533 C1550 1.574 . S
C1533 C1552 1.368 . S
C1533 H1557 0.949 . S
H1534 C1538 0.949 . S
C1535 C1536 1.349 . S
C1535 C1537 1.327 . S
C1535 H1558 0.950 . S
C1536 C1535 1.349 . S
C1536 C1548 1.349 . S
C1537 C1535 1.327 . S
C1537 C1553 1.429 . S
C1537 H1559 0.950 . S
C1538 H1534 0.949 . S
C1538 C1546 1.574 . S
C1538 C1554 1.368 . S
H1539 C1547 0.950 . S
H1540 C1545 0.950 . S
H1541 C1546 0.949 . S
H1542 C1548 0.950 1_545 S
H1543 C1549 0.950 . S
H1544 C1550 0.949 . S
C1545 H1540 0.950 . S
C1545 C1547 1.327 . S
C1545 C1551 1.429 . S
C1546 C1538 1.574 . S
C1546 H1541 0.949 . S
C1546 C1552 1.368 . S
C1547 C1531 1.349 . S
C1547 H1539 0.950 . S
C1547 C1545 1.327 . S
C1548 C1536 1.349 . S
C1548 H1542 0.950 1_565 S
C1548 C1549 1.327 . S
C1549 H1543 0.950 . S
C1549 C1548 1.327 . S
C1549 C1553 1.429 . S
C1550 C1533 1.574 . S
C1550 H1544 0.949 . S
C1550 C1554 1.368 . S
C1551 C1532 1.429 . S
C1551 C1545 1.429 . S
C1551 C1552 1.523 . S
C1552 C1533 1.368 . S
C1552 C1546 1.368 . S
C1552 C1551 1.523 . S
C1553 C1537 1.429 . S
C1553 C1549 1.429 . S
C1553 C1554 1.523 . S
C1554 C1538 1.368 . S
C1554 C1550 1.368 . S
C1554 C1553 1.523 . S
H1555 C1530 0.950 . S
H1556 C1532 0.950 . S
H1557 C1533 0.949 . S
H1558 C1535 0.950 . S
H1559 C1537 0.950 . S
C1560 C1561 1.349 . S
C1560 C1562 1.327 . S
C1560 H1585 0.950 . S
C1561 C1560 1.349 . S
C1561 C1577 1.349 . S
C1562 C1560 1.327 . S
C1562 C1581 1.429 . S
C1562 H1586 0.950 . S
C1563 C1580 1.574 . S
C1563 C1582 1.368 . S
C1563 H1587 0.949 . S
H1564 C1568 0.949 . S
C1565 C1566 1.349 . S
C1565 C1567 1.327 . S
C1565 H1588 0.950 . S
C1566 C1565 1.349 . S
C1566 C1578 1.349 . S
C1567 C1565 1.327 . S
C1567 C1583 1.429 . S
C1567 H1589 0.950 . S
C1568 H1564 0.949 . S
C1568 C1576 1.574 . S
C1568 C1584 1.368 . S
H1569 C1577 0.950 . S
H1570 C1575 0.950 . S
H1571 C1576 0.949 . S
H1572 C1578 0.950 . S
H1573 C1579 0.950 . S
H1574 C1580 0.949 . S
C1575 H1570 0.950 . S
C1575 C1577 1.327 . S
C1575 C1581 1.429 . S
C1576 C1568 1.574 . S
C1576 H1571 0.949 . S
C1576 C1582 1.368 . S
C1577 C1561 1.349 . S
C1577 H1569 0.950 . S
C1577 C1575 1.327 . S
C1578 C1566 1.349 . S
C1578 H1572 0.950 . S
C1578 C1579 1.327 . S
C1579 H1573 0.950 . S
C1579 C1578 1.327 . S
C1579 C1583 1.429 . S
C1580 C1563 1.574 . S
C1580 H1574 0.949 . S
C1580 C1584 1.368 . S
C1581 C1562 1.429 . S
C1581 C1575 1.429 . S
C1581 C1582 1.523 . S
C1582 C1563 1.368 . S
C1582 C1576 1.368 . S
C1582 C1581 1.523 . S
C1583 C1567 1.429 . S
C1583 C1579 1.429 . S
C1583 C1584 1.523 . S
C1584 C1568 1.368 . S
C1584 C1580 1.368 . S
C1584 C1583 1.523 . S
H1585 C1560 0.950 . S
H1586 C1562 0.950 . S
H1587 C1563 0.949 . S
H1588 C1565 0.950 . S
H1589 C1567 0.950 . S
C1590 C1591 1.349 . S
C1590 C1592 1.327 . S
C1590 H1615 0.950 . S
C1591 C1590 1.349 . S
C1591 C1607 1.349 . S
C1592 C1590 1.327 . S
C1592 C1611 1.429 . S
C1592 H1616 0.950 . S
C1593 C1610 1.574 . S
C1593 C1612 1.368 . S
C1593 H1617 0.949 . S
H1594 C1598 0.949 . S
C1595 C1596 1.349 . S
C1595 C1597 1.327 . S
C1595 H1618 0.950 . S
C1596 C1595 1.349 . S
C1596 C1608 1.349 . S
C1597 C1595 1.327 . S
C1597 C1613 1.429 . S
C1597 H1619 0.950 . S
C1598 H1594 0.949 . S
C1598 C1606 1.574 . S
C1598 C1614 1.368 . S
H1599 C1607 0.950 . S
H1600 C1605 0.950 . S
H1601 C1606 0.949 . S
H1602 C1608 0.950 . S
H1603 C1609 0.950 . S
H1604 C1610 0.949 . S
C1605 H1600 0.950 . S
C1605 C1607 1.327 . S
C1605 C1611 1.429 . S
C1606 C1598 1.574 . S
C1606 H1601 0.949 . S
C1606 C1612 1.368 . S
C1607 C1591 1.349 . S
C1607 H1599 0.950 . S
C1607 C1605 1.327 . S
C1608 C1596 1.349 . S
C1608 H1602 0.950 . S
C1608 C1609 1.327 . S
C1609 H1603 0.950 . S
C1609 C1608 1.327 . S
C1609 C1613 1.429 . S
C1610 C1593 1.574 . S
C1610 H1604 0.949 . S
C1610 C1614 1.368 . S
C1611 C1592 1.429 . S
C1611 C1605 1.429 . S
C1611 C1612 1.523 . S
C1612 C1593 1.368 . S
C1612 C1606 1.368 . S
C1612 C1611 1.523 . S
C1613 C1597 1.429 . S
C1613 C1609 1.429 . S
C1613 C1614 1.523 . S
C1614 C1598 1.368 . S
C1614 C1610 1.368 . S
C1614 C1613 1.523 . S
H1615 C1590 0.950 . S
H1616 C1592 0.950 . S
H1617 C1593 0.949 . S
H1618 C1595 0.950 . S
H1619 C1597 0.950 . S
C1620 C1621 1.349 . S
C1620 C1622 1.327 . S
C1620 H1645 0.950 . S
C1621 C1620 1.349 . S
C1621 C1637 1.349 1_655 S
C1622 C1620 1.327 . S
C1622 C1641 1.429 . S
C1622 H1646 0.950 . S
C1623 C1640 1.574 . S
C1623 C1642 1.368 . S
C1623 H1647 0.949 . S
H1624 C1628 0.949 . S
C1625 C1626 1.349 . S
C1625 C1627 1.327 . S
C1625 H1648 0.950 . S
C1626 C1625 1.349 . S
C1626 C1638 1.349 . S
C1627 C1625 1.327 . S
C1627 C1643 1.429 . S
C1627 H1649 0.950 . S
C1628 H1624 0.949 . S
C1628 C1636 1.574 . S
C1628 C1644 1.368 . S
H1629 C1637 0.950 . S
H1630 C1635 0.950 1_455 S
H1631 C1636 0.949 . S
H1632 C1638 0.950 . S
H1633 C1639 0.950 . S
H1634 C1640 0.949 . S
C1635 H1630 0.950 1_655 S
C1635 C1637 1.327 1_655 S
C1635 C1641 1.429 . S
C1636 C1628 1.574 . S
C1636 H1631 0.949 . S
C1636 C1642 1.368 . S
C1637 C1621 1.349 1_455 S
C1637 H1629 0.950 . S
C1637 C1635 1.327 1_455 S
C1638 C1626 1.349 . S
C1638 H1632 0.950 . S
C1638 C1639 1.327 . S
C1639 H1633 0.950 . S
C1639 C1638 1.327 . S
C1639 C1643 1.429 . S
C1640 C1623 1.574 . S
C1640 H1634 0.949 . S
C1640 C1644 1.368 . S
C1641 C1622 1.429 . S
C1641 C1635 1.429 . S
C1641 C1642 1.523 . S
C1642 C1623 1.368 . S
C1642 C1636 1.368 . S
C1642 C1641 1.523 . S
C1643 C1627 1.429 . S
C1643 C1639 1.429 . S
C1643 C1644 1.523 . S
C1644 C1628 1.368 . S
C1644 C1640 1.368 . S
C1644 C1643 1.523 . S
H1645 C1620 0.950 . S
H1646 C1622 0.950 . S
H1647 C1623 0.949 . S
H1648 C1625 0.950 . S
H1649 C1627 0.950 . S
C1650 C1651 1.349 . S
C1650 C1652 1.327 . S
C1650 H1675 0.950 . S
C1651 C1650 1.349 . S
C1651 C1667 1.349 . S
C1652 C1650 1.327 . S
C1652 C1671 1.429 . S
C1652 H1676 0.950 . S
C1653 C1670 1.574 . S
C1653 C1672 1.368 . S
C1653 H1677 0.949 . S
H1654 C1658 0.949 . S
C1655 C1656 1.349 . S
C1655 C1657 1.327 . S
C1655 H1678 0.950 . S
C1656 C1655 1.349 . S
C1656 C1668 1.349 . S
C1657 C1655 1.327 . S
C1657 C1673 1.429 . S
C1657 H1679 0.950 . S
C1658 H1654 0.949 . S
C1658 C1666 1.574 . S
C1658 C1674 1.368 . S
H1659 C1667 0.950 . S
H1660 C1665 0.950 . S
H1661 C1666 0.949 . S
H1662 C1668 0.950 . S
H1663 C1669 0.950 . S
H1664 C1670 0.949 . S
C1665 H1660 0.950 . S
C1665 C1667 1.327 . S
C1665 C1671 1.429 . S
C1666 C1658 1.574 . S
C1666 H1661 0.949 . S
C1666 C1672 1.368 . S
C1667 C1651 1.349 . S
C1667 H1659 0.950 . S
C1667 C1665 1.327 . S
C1668 C1656 1.349 . S
C1668 H1662 0.950 . S
C1668 C1669 1.327 . S
C1669 H1663 0.950 . S
C1669 C1668 1.327 . S
C1669 C1673 1.429 . S
C1670 C1653 1.574 . S
C1670 H1664 0.949 . S
C1670 C1674 1.368 . S
C1671 C1652 1.429 . S
C1671 C1665 1.429 . S
C1671 C1672 1.523 . S
C1672 C1653 1.368 . S
C1672 C1666 1.368 . S
C1672 C1671 1.523 . S
C1673 C1657 1.429 . S
C1673 C1669 1.429 . S
C1673 C1674 1.523 . S
C1674 C1658 1.368 . S
C1674 C1670 1.368 . S
C1674 C1673 1.523 . S
H1675 C1650 0.950 . S
H1676 C1652 0.950 . S
H1677 C1653 0.949 . S
H1678 C1655 0.950 . S
H1679 C1657 0.950 . S
C1680 C1681 1.349 . S
C1680 C1682 1.327 . S
C1680 H1705 0.950 . S
C1681 C1680 1.349 . S
C1681 C1697 1.349 . S
C1682 C1680 1.327 . S
C1682 C1701 1.429 . S
C1682 H1706 0.950 . S
C1683 C1700 1.574 . S
C1683 C1702 1.368 . S
C1683 H1707 0.949 . S
H1684 C1688 0.949 . S
C1685 C1686 1.349 . S
C1685 C1687 1.327 . S
C1685 H1708 0.950 . S
C1686 C1685 1.349 . S
C1686 C1698 1.349 . S
C1687 C1685 1.327 . S
C1687 C1703 1.429 . S
C1687 H1709 0.950 . S
C1688 H1684 0.949 . S
C1688 C1696 1.574 . S
C1688 C1704 1.368 . S
H1689 C1697 0.950 . S
H1690 C1695 0.950 . S
H1691 C1696 0.949 . S
H1692 C1698 0.950 . S
H1693 C1699 0.950 . S
H1694 C1700 0.949 . S
C1695 H1690 0.950 . S
C1695 C1697 1.327 . S
C1695 C1701 1.429 . S
C1696 C1688 1.574 . S
C1696 H1691 0.949 . S
C1696 C1702 1.368 . S
C1697 C1681 1.349 . S
C1697 H1689 0.950 . S
C1697 C1695 1.327 . S
C1698 C1686 1.349 . S
C1698 H1692 0.950 . S
C1698 C1699 1.327 . S
C1699 H1693 0.950 . S
C1699 C1698 1.327 . S
C1699 C1703 1.429 . S
C1700 C1683 1.574 . S
C1700 H1694 0.949 . S
C1700 C1704 1.368 . S
C1701 C1682 1.429 . S
C1701 C1695 1.429 . S
C1701 C1702 1.523 . S
C1702 C1683 1.368 . S
C1702 C1696 1.368 . S
C1702 C1701 1.523 . S
C1703 C1687 1.429 . S
C1703 C1699 1.429 . S
C1703 C1704 1.523 . S
C1704 C1688 1.368 . S
C1704 C1700 1.368 . S
C1704 C1703 1.523 . S
H1705 C1680 0.950 . S
H1706 C1682 0.950 . S
H1707 C1683 0.949 . S
H1708 C1685 0.950 . S
H1709 C1687 0.950 . S
C1710 C1711 1.349 . S
C1710 C1712 1.327 . S
C1710 H1735 0.950 . S
C1711 C1710 1.349 . S
C1711 C1727 1.349 . S
C1712 C1710 1.327 . S
C1712 C1731 1.429 . S
C1712 H1736 0.950 . S
C1713 C1730 1.574 . S
C1713 C1732 1.368 1_455 S
C1713 H1737 0.949 . S
H1714 C1718 0.949 . S
C1715 C1716 1.349 . S
C1715 C1717 1.327 . S
C1715 H1738 0.950 . S
C1716 C1715 1.349 . S
C1716 C1728 1.349 . S
C1717 C1715 1.327 . S
C1717 C1733 1.429 . S
C1717 H1739 0.950 . S
C1718 H1714 0.949 . S
C1718 C1726 1.574 1_455 S
C1718 C1734 1.368 . S
H1719 C1727 0.950 . S
H1720 C1725 0.950 . S
H1721 C1726 0.949 . S
H1722 C1728 0.950 . S
H1723 C1729 0.950 . S
H1724 C1730 0.949 . S
C1725 H1720 0.950 . S
C1725 C1727 1.327 . S
C1725 C1731 1.429 . S
C1726 C1718 1.574 1_655 S
C1726 H1721 0.949 . S
C1726 C1732 1.368 . S
C1727 C1711 1.349 . S
C1727 H1719 0.950 . S
C1727 C1725 1.327 . S
C1728 C1716 1.349 . S
C1728 H1722 0.950 . S
C1728 C1729 1.327 . S
C1729 H1723 0.950 . S
C1729 C1728 1.327 . S
C1729 C1733 1.429 . S
C1730 C1713 1.574 . S
C1730 H1724 0.949 . S
C1730 C1734 1.368 . S
C1731 C1712 1.429 . S
C1731 C1725 1.429 . S
C1731 C1732 1.523 . S
C1732 C1713 1.368 1_655 S
C1732 C1726 1.368 . S
C1732 C1731 1.523 . S
C1733 C1717 1.429 . S
C1733 C1729 1.429 . S
C1733 C1734 1.523 . S
C1734 C1718 1.368 . S
C1734 C1730 1.368 . S
C1734 C1733 1.523 . S
H1735 C1710 0.950 . S
H1736 C1712 0.950 . S
H1737 C1713 0.949 . S
H1738 C1715 0.950 . S
H1739 C1717 0.950 . S
C1740 C1741 1.349 . S
C1740 C1742 1.327 . S
C1740 H1765 0.950 . S
C1741 C1740 1.349 . S
C1741 C1757 1.349 . S
C1742 C1740 1.327 . S
C1742 C1761 1.429 . S
C1742 H1766 0.950 . S
C1743 C1760 1.574 . S
C1743 C1762 1.368 . S
C1743 H1767 0.949 . S
H1744 C1748 0.949 . S
C1745 C1746 1.349 . S
C1745 C1747 1.327 . S
C1745 H1768 0.950 . S
C1746 C1745 1.349 . S
C1746 C1758 1.349 . S
C1747 C1745 1.327 . S
C1747 C1763 1.429 . S
C1747 H1769 0.950 . S
C1748 H1744 0.949 . S
C1748 C1756 1.574 . S
C1748 C1764 1.368 . S
H1749 C1757 0.950 . S
H1750 C1755 0.950 . S
H1751 C1756 0.949 . S
H1752 C1758 0.950 . S
H1753 C1759 0.950 . S
H1754 C1760 0.949 . S
C1755 H1750 0.950 . S
C1755 C1757 1.327 . S
C1755 C1761 1.429 . S
C1756 C1748 1.574 . S
C1756 H1751 0.949 . S
C1756 C1762 1.368 . S
C1757 C1741 1.349 . S
C1757 H1749 0.950 . S
C1757 C1755 1.327 . S
C1758 C1746 1.349 . S
C1758 H1752 0.950 . S
C1758 C1759 1.327 . S
C1759 H1753 0.950 . S
C1759 C1758 1.327 . S
C1759 C1763 1.429 . S
C1760 C1743 1.574 . S
C1760 H1754 0.949 . S
C1760 C1764 1.368 . S
C1761 C1742 1.429 . S
C1761 C1755 1.429 . S
C1761 C1762 1.523 . S
C1762 C1743 1.368 . S
C1762 C1756 1.368 . S
C1762 C1761 1.523 . S
C1763 C1747 1.429 . S
C1763 C1759 1.429 . S
C1763 C1764 1.523 . S
C1764 C1748 1.368 . S
C1764 C1760 1.368 . S
C1764 C1763 1.523 . S
H1765 C1740 0.950 . S
H1766 C1742 0.950 . S
H1767 C1743 0.949 . S
H1768 C1745 0.950 . S
H1769 C1747 0.950 . S
C1770 C1771 1.349 . S
C1770 C1772 1.327 . S
C1770 H1795 0.950 . S
C1771 C1770 1.349 . S
C1771 C1787 1.349 . S
C1772 C1770 1.327 . S
C1772 C1791 1.429 . S
C1772 H1796 0.950 . S
C1773 C1790 1.574 . S
C1773 C1792 1.368 1_545 S
C1773 H1797 0.949 . S
H1774 C1778 0.949 . S
C1775 C1776 1.349 . S
C1775 C1777 1.327 . S
C1775 H1798 0.950 . S
C1776 C1775 1.349 . S
C1776 C1788 1.349 . S
C1777 C1775 1.327 . S
C1777 C1793 1.429 . S
C1777 H1799 0.950 . S
C1778 H1774 0.949 . S
C1778 C1786 1.574 1_545 S
C1778 C1794 1.368 . S
H1779 C1787 0.950 . S
H1780 C1785 0.950 . S
H1781 C1786 0.949 . S
H1782 C1788 0.950 . S
H1783 C1789 0.950 . S
H1784 C1790 0.949 . S
C1785 H1780 0.950 . S
C1785 C1787 1.327 . S
C1785 C1791 1.429 . S
C1786 C1778 1.574 1_565 S
C1786 H1781 0.949 . S
C1786 C1792 1.368 . S
C1787 C1771 1.349 . S
C1787 H1779 0.950 . S
C1787 C1785 1.327 . S
C1788 C1776 1.349 . S
C1788 H1782 0.950 . S
C1788 C1789 1.327 . S
C1789 H1783 0.950 . S
C1789 C1788 1.327 . S
C1789 C1793 1.429 . S
C1790 C1773 1.574 . S
C1790 H1784 0.949 . S
C1790 C1794 1.368 . S
C1791 C1772 1.429 . S
C1791 C1785 1.429 . S
C1791 C1792 1.523 . S
C1792 C1773 1.368 1_565 S
C1792 C1786 1.368 . S
C1792 C1791 1.523 . S
C1793 C1777 1.429 . S
C1793 C1789 1.429 . S
C1793 C1794 1.523 . S
C1794 C1778 1.368 . S
C1794 C1790 1.368 . S
C1794 C1793 1.523 . S
H1795 C1770 0.950 . S
H1796 C1772 0.950 . S
H1797 C1773 0.949 . S
H1798 C1775 0.950 . S
H1799 C1777 0.950 . S
C1800 C1801 1.349 . S
C1800 C1802 1.327 . S
C1800 H1825 0.950 . S
C1801 C1800 1.349 . S
C1801 C1817 1.349 . S
C1802 C1800 1.327 . S
C1802 C1821 1.429 . S
C1802 H1826 0.950 . S
C1803 C1820 1.574 . S
C1803 C1822 1.368 . S
C1803 H1827 0.949 . S
H1804 C1808 0.949 . S
C1805 C1806 1.349 . S
C1805 C1807 1.327 . S
C1805 H1828 0.950 . S
C1806 C1805 1.349 . S
C1806 C1818 1.349 . S
C1807 C1805 1.327 . S
C1807 C1823 1.429 . S
C1807 H1829 0.950 . S
C1808 H1804 0.949 . S
C1808 C1816 1.574 . S
C1808 C1824 1.368 . S
H1809 C1817 0.950 . S
H1810 C1815 0.950 . S
H1811 C1816 0.949 . S
H1812 C1818 0.950 . S
H1813 C1819 0.950 . S
H1814 C1820 0.949 . S
C1815 H1810 0.950 . S
C1815 C1817 1.327 . S
C1815 C1821 1.429 . S
C1816 C1808 1.574 . S
C1816 H1811 0.949 . S
C1816 C1822 1.368 . S
C1817 C1801 1.349 . S
C1817 H1809 0.950 . S
C1817 C1815 1.327 . S
C1818 C1806 1.349 . S
C1818 H1812 0.950 . S
C1818 C1819 1.327 . S
C1819 H1813 0.950 . S
C1819 C1818 1.327 . S
C1819 C1823 1.429 . S
C1820 C1803 1.574 . S
C1820 H1814 0.949 . S
C1820 C1824 1.368 . S
C1821 C1802 1.429 . S
C1821 C1815 1.429 . S
C1821 C1822 1.523 . S
C1822 C1803 1.368 . S
C1822 C1816 1.368 . S
C1822 C1821 1.523 . S
C1823 C1807 1.429 . S
C1823 C1819 1.429 . S
C1823 C1824 1.523 . S
C1824 C1808 1.368 . S
C1824 C1820 1.368 . S
C1824 C1823 1.523 . S
H1825 C1800 0.950 . S
H1826 C1802 0.950 . S
H1827 C1803 0.949 . S
H1828 C1805 0.950 . S
H1829 C1807 0.950 . S
C1830 C1831 1.349 . S
C1830 C1832 1.327 . S
C1830 H1855 0.950 . S
C1831 C1830 1.349 . S
C1831 C1847 1.349 . S
C1832 C1830 1.327 . S
C1832 C1851 1.429 . S
C1832 H1856 0.950 . S
C1833 C1850 1.574 . S
C1833 C1852 1.368 . S
C1833 H1857 0.949 . S
H1834 C1838 0.949 . S
C1835 C1836 1.349 . S
C1835 C1837 1.327 . S
C1835 H1858 0.950 . S
C1836 C1835 1.349 . S
C1836 C1848 1.349 . S
C1837 C1835 1.327 . S
C1837 C1853 1.429 . S
C1837 H1859 0.950 . S
C1838 H1834 0.949 . S
C1838 C1846 1.574 . S
C1838 C1854 1.368 . S
H1839 C1847 0.950 . S
H1840 C1845 0.950 . S
H1841 C1846 0.949 . S
H1842 C1848 0.950 . S
H1843 C1849 0.950 . S
H1844 C1850 0.949 . S
C1845 H1840 0.950 . S
C1845 C1847 1.327 . S
C1845 C1851 1.429 . S
C1846 C1838 1.574 . S
C1846 H1841 0.949 . S
C1846 C1852 1.368 . S
C1847 C1831 1.349 . S
C1847 H1839 0.950 . S
C1847 C1845 1.327 . S
C1848 C1836 1.349 . S
C1848 H1842 0.950 . S
C1848 C1849 1.327 . S
C1849 H1843 0.950 . S
C1849 C1848 1.327 . S
C1849 C1853 1.429 . S
C1850 C1833 1.574 . S
C1850 H1844 0.949 . S
C1850 C1854 1.368 . S
C1851 C1832 1.429 . S
C1851 C1845 1.429 . S
C1851 C1852 1.523 . S
C1852 C1833 1.368 . S
C1852 C1846 1.368 . S
C1852 C1851 1.523 . S
C1853 C1837 1.429 . S
C1853 C1849 1.429 . S
C1853 C1854 1.523 . S
C1854 C1838 1.368 . S
C1854 C1850 1.368 . S
C1854 C1853 1.523 . S
H1855 C1830 0.950 . S
H1856 C1832 0.950 . S
H1857 C1833 0.949 . S
H1858 C1835 0.950 . S
H1859 C1837 0.950 . S
C1860 C1861 1.349 . S
C1860 C1862 1.327 . S
C1860 H1885 0.950 . S
C1861 C1860 1.349 . S
C1861 C1877 1.349 . S
C1862 C1860 1.327 . S
C1862 C1881 1.429 . S
C1862 H1886 0.950 . S
C1863 C1880 1.574 . S
C1863 C1882 1.368 . S
C1863 H1887 0.949 . S
H1864 C1868 0.949 . S
C1865 C1866 1.349 . S
C1865 C1867 1.327 . S
C1865 H1888 0.950 . S
C1866 C1865 1.349 . S
C1866 C1878 1.349 . S
C1867 C1865 1.327 . S
C1867 C1883 1.429 . S
C1867 H1889 0.950 . S
C1868 H1864 0.949 . S
C1868 C1876 1.574 . S
C1868 C1884 1.368 . S
H1869 C1877 0.950 . S
H1870 C1875 0.950 . S
H1871 C1876 0.949 . S
H1872 C1878 0.950 . S
H1873 C1879 0.950 . S
H1874 C1880 0.949 . S
C1875 H1870 0.950 . S
C1875 C1877 1.327 . S
C1875 C1881 1.429 . S
C1876 C1868 1.574 . S
C1876 H1871 0.949 . S
C1876 C1882 1.368 . S
C1877 C1861 1.349 . S
C1877 H1869 0.950 . S
C1877 C1875 1.327 . S
C1878 C1866 1.349 . S
C1878 H1872 0.950 . S
C1878 C1879 1.327 . S
C1879 H1873 0.950 . S
C1879 C1878 1.327 . S
C1879 C1883 1.429 . S
C1880 C1863 1.574 . S
C1880 H1874 0.949 . S
C1880 C1884 1.368 . S
C1881 C1862 1.429 . S
C1881 C1875 1.429 . S
C1881 C1882 1.523 . S
C1882 C1863 1.368 . S
C1882 C1876 1.368 . S
C1882 C1881 1.523 . S
C1883 C1867 1.429 . S
C1883 C1879 1.429 . S
C1883 C1884 1.523 . S
C1884 C1868 1.368 . S
C1884 C1880 1.368 . S
C1884 C1883 1.523 . S
H1885 C1860 0.950 . S
H1886 C1862 0.950 . S
H1887 C1863 0.949 . S
H1888 C1865 0.950 . S
H1889 C1867 0.950 . S
C1890 C1891 1.349 . S
C1890 C1892 1.327 . S
C1890 H1915 0.950 . S
C1891 C1890 1.349 . S
C1891 C1907 1.349 . S
C1892 C1890 1.327 . S
C1892 C1911 1.429 . S
C1892 H1916 0.950 . S
C1893 C1910 1.574 . S
C1893 C1912 1.368 . S
C1893 H1917 0.949 . S
H1894 C1898 0.949 . S
C1895 C1896 1.349 . S
C1895 C1897 1.327 . S
C1895 H1918 0.950 . S
C1896 C1895 1.349 . S
C1896 C1908 1.349 . S
C1897 C1895 1.327 . S
C1897 C1913 1.429 . S
C1897 H1919 0.950 . S
C1898 H1894 0.949 . S
C1898 C1906 1.574 . S
C1898 C1914 1.368 . S
H1899 C1907 0.950 . S
H1900 C1905 0.950 . S
H1901 C1906 0.949 . S
H1902 C1908 0.950 . S
H1903 C1909 0.950 . S
H1904 C1910 0.949 . S
C1905 H1900 0.950 . S
C1905 C1907 1.327 . S
C1905 C1911 1.429 . S
C1906 C1898 1.574 . S
C1906 H1901 0.949 . S
C1906 C1912 1.368 . S
C1907 C1891 1.349 . S
C1907 H1899 0.950 . S
C1907 C1905 1.327 . S
C1908 C1896 1.349 . S
C1908 H1902 0.950 . S
C1908 C1909 1.327 . S
C1909 H1903 0.950 . S
C1909 C1908 1.327 . S
C1909 C1913 1.429 . S
C1910 C1893 1.574 . S
C1910 H1904 0.949 . S
C1910 C1914 1.368 . S
C1911 C1892 1.429 . S
C1911 C1905 1.429 . S
C1911 C1912 1.523 . S
C1912 C1893 1.368 . S
C1912 C1906 1.368 . S
C1912 C1911 1.523 . S
C1913 C1897 1.429 . S
C1913 C1909 1.429 . S
C1913 C1914 1.523 . S
C1914 C1898 1.368 . S
C1914 C1910 1.368 . S
C1914 C1913 1.523 . S
H1915 C1890 0.950 . S
H1916 C1892 0.950 . S
H1917 C1893 0.949 . S
H1918 C1895 0.950 . S
H1919 C1897 0.950 . S
C1920 C1921 1.349 . S
C1920 C1922 1.327 . S
C1920 H1945 0.950 . S
C1921 C1920 1.349 . S
C1921 C1937 1.349 . S
C1922 C1920 1.327 . S
C1922 C1941 1.429 . S
C1922 H1946 0.950 . S
C1923 C1940 1.574 . S
C1923 C1942 1.368 . S
C1923 H1947 0.949 . S
H1924 C1928 0.949 . S
C1925 C1926 1.349 . S
C1925 C1927 1.327 . S
C1925 H1948 0.950 . S
C1926 C1925 1.349 . S
C1926 C1938 1.349 . S
C1927 C1925 1.327 . S
C1927 C1943 1.429 . S
C1927 H1949 0.950 . S
C1928 H1924 0.949 . S
C1928 C1936 1.574 . S
C1928 C1944 1.368 . S
H1929 C1937 0.950 . S
H1930 C1935 0.950 . S
H1931 C1936 0.949 . S
H1932 C1938 0.950 . S
H1933 C1939 0.950 . S
H1934 C1940 0.949 . S
C1935 H1930 0.950 . S
C1935 C1937 1.327 . S
C1935 C1941 1.429 . S
C1936 C1928 1.574 . S
C1936 H1931 0.949 . S
C1936 C1942 1.368 . S
C1937 C1921 1.349 . S
C1937 H1929 0.950 . S
C1937 C1935 1.327 . S
C1938 C1926 1.349 . S
C1938 H1932 0.950 . S
C1938 C1939 1.327 . S
C1939 H1933 0.950 . S
C1939 C1938 1.327 . S
C1939 C1943 1.429 . S
C1940 C1923 1.574 . S
C1940 H1934 0.949 . S
C1940 C1944 1.368 . S
C1941 C1922 1.429 . S
C1941 C1935 1.429 . S
C1941 C1942 1.523 . S
C1942 C1923 1.368 . S
C1942 C1936 1.368 . S
C1942 C1941 1.523 . S
C1943 C1927 1.429 . S
C1943 C1939 1.429 . S
C1943 C1944 1.523 . S
C1944 C1928 1.368 . S
C1944 C1940 1.368 . S
C1944 C1943 1.523 . S
H1945 C1920 0.950 . S
H1946 C1922 0.950 . S
H1947 C1923 0.949 . S
H1948 C1925 0.950 . S
H1949 C1927 0.950 . S
C1950 C1951 1.349 . S
C1950 C1952 1.327 . S
C1950 H1975 0.950 . S
C1951 C1950 1.349 . S
C1951 C1967 1.349 . S
C1952 C1950 1.327 . S
C1952 C1971 1.429 . S
C1952 H1976 0.950 . S
C1953 C1970 1.574 . S
C1953 C1972 1.368 . S
C1953 H1977 0.949 . S
H1954 C1958 0.949 . S
C1955 C1956 1.349 . S
C1955 C1957 1.327 . S
C1955 H1978 0.950 . S
C1956 C1955 1.349 . S
C1956 C1968 1.349 . S
C1957 C1955 1.327 . S
C1957 C1973 1.429 . S
C1957 H1979 0.950 . S
C1958 H1954 0.949 . S
C1958 C1966 1.574 . S
C1958 C1974 1.368 . S
H1959 C1967 0.950 . S
H1960 C1965 0.950 . S
H1961 C1966 0.949 . S
H1962 C1968 0.950 . S
H1963 C1969 0.950 . S
H1964 C1970 0.949 . S
C1965 H1960 0.950 . S
C1965 C1967 1.327 . S
C1965 C1971 1.429 . S
C1966 C1958 1.574 . S
C1966 H1961 0.949 . S
C1966 C1972 1.368 . S
C1967 C1951 1.349 . S
C1967 H1959 0.950 . S
C1967 C1965 1.327 . S
C1968 C1956 1.349 . S
C1968 H1962 0.950 . S
C1968 C1969 1.327 . S
C1969 H1963 0.950 . S
C1969 C1968 1.327 . S
C1969 C1973 1.429 . S
C1970 C1953 1.574 . S
C1970 H1964 0.949 . S
C1970 C1974 1.368 . S
C1971 C1952 1.429 . S
C1971 C1965 1.429 . S
C1971 C1972 1.523 . S
C1972 C1953 1.368 . S
C1972 C1966 1.368 . S
C1972 C1971 1.523 . S
C1973 C1957 1.429 . S
C1973 C1969 1.429 . S
C1973 C1974 1.523 . S
C1974 C1958 1.368 . S
C1974 C1970 1.368 . S
C1974 C1973 1.523 . S
H1975 C1950 0.950 . S
H1976 C1952 0.950 . S
H1977 C1953 0.949 . S
H1978 C1955 0.950 . S
H1979 C1957 0.950 . S
C1980 C1981 1.349 . S
C1980 C1982 1.327 . S
C1980 H2005 0.950 . S
C1981 C1980 1.349 . S
C1981 C1997 1.349 . S
C1982 C1980 1.327 . S
C1982 C2001 1.429 . S
C1982 H2006 0.950 . S
C1983 C2000 1.574 . S
C1983 C2002 1.368 . S
C1983 H2007 0.949 . S
H1984 C1988 0.949 . S
C1985 C1986 1.349 . S
C1985 C1987 1.327 . S
C1985 H2008 0.950 . S
C1986 C1985 1.349 . S
C1986 C1998 1.349 . S
C1987 C1985 1.327 . S
C1987 C2003 1.429 . S
C1987 H2009 0.950 . S
C1988 H1984 0.949 . S
C1988 C1996 1.574 . S
C1988 C2004 1.368 . S
H1989 C1997 0.950 . S
H1990 C1995 0.950 . S
H1991 C1996 0.949 . S
H1992 C1998 0.950 . S
H1993 C1999 0.950 . S
H1994 C2000 0.949 . S
C1995 H1990 0.950 . S
C1995 C1997 1.327 . S
C1995 C2001 1.429 . S
C1996 C1988 1.574 . S
C1996 H1991 0.949 . S
C1996 C2002 1.368 . S
C1997 C1981 1.349 . S
C1997 H1989 0.950 . S
C1997 C1995 1.327 . S
C1998 C1986 1.349 . S
C1998 H1992 0.950 . S
C1998 C1999 1.327 . S
C1999 H1993 0.950 . S
C1999 C1998 1.327 . S
C1999 C2003 1.429 . S
C2000 C1983 1.574 . S
C2000 H1994 0.949 . S
C2000 C2004 1.368 . S
C2001 C1982 1.429 . S
C2001 C1995 1.429 . S
C2001 C2002 1.523 . S
C2002 C1983 1.368 . S
C2002 C1996 1.368 . S
C2002 C2001 1.523 . S
C2003 C1987 1.429 . S
C2003 C1999 1.429 . S
C2003 C2004 1.523 . S
C2004 C1988 1.368 . S
C2004 C2000 1.368 . S
C2004 C2003 1.523 . S
H2005 C1980 0.950 . S
H2006 C1982 0.950 . S
H2007 C1983 0.949 . S
H2008 C1985 0.950 . S
H2009 C1987 0.950 . S
C2010 C2011 1.349 . S
C2010 C2012 1.327 . S
C2010 H2035 0.950 . S
C2011 C2010 1.349 . S
C2011 C2027 1.349 . S
C2012 C2010 1.327 . S
C2012 C2031 1.429 . S
C2012 H2036 0.950 . S
C2013 C2030 1.574 . S
C2013 C2032 1.368 . S
C2013 H2037 0.949 . S
H2014 C2018 0.949 . S
C2015 C2016 1.349 . S
C2015 C2017 1.327 . S
C2015 H2038 0.950 . S
C2016 C2015 1.349 . S
C2016 C2028 1.349 . S
C2017 C2015 1.327 . S
C2017 C2033 1.429 . S
C2017 H2039 0.950 . S
C2018 H2014 0.949 . S
C2018 C2026 1.574 . S
C2018 C2034 1.368 . S
H2019 C2027 0.950 . S
H2020 C2025 0.950 . S
H2021 C2026 0.949 . S
H2022 C2028 0.950 . S
H2023 C2029 0.950 . S
H2024 C2030 0.949 . S
C2025 H2020 0.950 . S
C2025 C2027 1.327 . S
C2025 C2031 1.429 . S
C2026 C2018 1.574 . S
C2026 H2021 0.949 . S
C2026 C2032 1.368 . S
C2027 C2011 1.349 . S
C2027 H2019 0.950 . S
C2027 C2025 1.327 . S
C2028 C2016 1.349 . S
C2028 H2022 0.950 . S
C2028 C2029 1.327 . S
C2029 H2023 0.950 . S
C2029 C2028 1.327 . S
C2029 C2033 1.429 . S
C2030 C2013 1.574 . S
C2030 H2024 0.949 . S
C2030 C2034 1.368 . S
C2031 C2012 1.429 . S
C2031 C2025 1.429 . S
C2031 C2032 1.523 . S
C2032 C2013 1.368 . S
C2032 C2026 1.368 . S
C2032 C2031 1.523 . S
C2033 C2017 1.429 . S
C2033 C2029 1.429 . S
C2033 C2034 1.523 . S
C2034 C2018 1.368 . S
C2034 C2030 1.368 . S
C2034 C2033 1.523 . S
H2035 C2010 0.950 . S
H2036 C2012 0.950 . S
H2037 C2013 0.949 . S
H2038 C2015 0.950 . S
H2039 C2017 0.950 . S
C2040 C2041 1.349 . S
C2040 C2042 1.327 . S
C2040 H2065 0.950 . S
C2041 C2040 1.349 . S
C2041 C2057 1.349 . S
C2042 C2040 1.327 . S
C2042 C2061 1.429 . S
C2042 H2066 0.950 . S
C2043 C2060 1.574 . S
C2043 C2062 1.368 . S
C2043 H2067 0.949 . S
H2044 C2048 0.949 . S
C2045 C2046 1.349 . S
C2045 C2047 1.327 . S
C2045 H2068 0.950 . S
C2046 C2045 1.349 . S
C2046 C2058 1.349 . S
C2047 C2045 1.327 . S
C2047 C2063 1.429 . S
C2047 H2069 0.950 . S
C2048 H2044 0.949 . S
C2048 C2056 1.574 . S
C2048 C2064 1.368 . S
H2049 C2057 0.950 . S
H2050 C2055 0.950 . S
H2051 C2056 0.949 . S
H2052 C2058 0.950 . S
H2053 C2059 0.950 . S
H2054 C2060 0.949 . S
C2055 H2050 0.950 . S
C2055 C2057 1.327 . S
C2055 C2061 1.429 . S
C2056 C2048 1.574 . S
C2056 H2051 0.949 . S
C2056 C2062 1.368 . S
C2057 C2041 1.349 . S
C2057 H2049 0.950 . S
C2057 C2055 1.327 . S
C2058 C2046 1.349 . S
C2058 H2052 0.950 . S
C2058 C2059 1.327 . S
C2059 H2053 0.950 . S
C2059 C2058 1.327 . S
C2059 C2063 1.429 . S
C2060 C2043 1.574 . S
C2060 H2054 0.949 . S
C2060 C2064 1.368 . S
C2061 C2042 1.429 . S
C2061 C2055 1.429 . S
C2061 C2062 1.523 . S
C2062 C2043 1.368 . S
C2062 C2056 1.368 . S
C2062 C2061 1.523 . S
C2063 C2047 1.429 . S
C2063 C2059 1.429 . S
C2063 C2064 1.523 . S
C2064 C2048 1.368 . S
C2064 C2060 1.368 . S
C2064 C2063 1.523 . S
H2065 C2040 0.950 . S
H2066 C2042 0.950 . S
H2067 C2043 0.949 . S
H2068 C2045 0.950 . S
H2069 C2047 0.950 . S
C2070 C2071 1.349 . S
C2070 C2072 1.327 . S
C2070 H2095 0.950 . S
C2071 C2070 1.349 . S
C2071 C2087 1.349 . S
C2072 C2070 1.327 . S
C2072 C2091 1.429 . S
C2072 H2096 0.950 . S
C2073 C2090 1.574 1_655 S
C2073 C2092 1.368 . S
C2073 H2097 0.949 . S
H2074 C2078 0.949 . S
C2075 C2076 1.349 . S
C2075 C2077 1.327 . S
C2075 H2098 0.950 . S
C2076 C2075 1.349 . S
C2076 C2088 1.349 . S
C2077 C2075 1.327 . S
C2077 C2093 1.429 . S
C2077 H2099 0.950 . S
C2078 H2074 0.949 . S
C2078 C2086 1.574 1_455 S
C2078 C2094 1.368 . S
H2079 C2087 0.950 . S
H2080 C2085 0.950 . S
H2081 C2086 0.949 . S
H2082 C2088 0.950 . S
H2083 C2089 0.950 . S
H2084 C2090 0.949 . S
C2085 H2080 0.950 . S
C2085 C2087 1.327 . S
C2085 C2091 1.429 . S
C2086 C2078 1.574 1_655 S
C2086 H2081 0.949 . S
C2086 C2092 1.368 . S
C2087 C2071 1.349 . S
C2087 H2079 0.950 . S
C2087 C2085 1.327 . S
C2088 C2076 1.349 . S
C2088 H2082 0.950 . S
C2088 C2089 1.327 . S
C2089 H2083 0.950 . S
C2089 C2088 1.327 . S
C2089 C2093 1.429 . S
C2090 C2073 1.574 1_455 S
C2090 H2084 0.949 . S
C2090 C2094 1.368 . S
C2091 C2072 1.429 . S
C2091 C2085 1.429 . S
C2091 C2092 1.523 . S
C2092 C2073 1.368 . S
C2092 C2086 1.368 . S
C2092 C2091 1.523 . S
C2093 C2077 1.429 . S
C2093 C2089 1.429 . S
C2093 C2094 1.523 . S
C2094 C2078 1.368 . S
C2094 C2090 1.368 . S
C2094 C2093 1.523 . S
H2095 C2070 0.950 . S
H2096 C2072 0.950 . S
H2097 C2073 0.949 . S
H2098 C2075 0.950 . S
H2099 C2077 0.950 . S
C2100 C2101 1.349 . S
C2100 C2102 1.327 . S
C2100 H2125 0.950 . S
C2101 C2100 1.349 . S
C2101 C2117 1.349 . S
C2102 C2100 1.327 . S
C2102 C2121 1.429 . S
C2102 H2126 0.950 . S
C2103 C2120 1.574 . S
C2103 C2122 1.368 . S
C2103 H2127 0.949 . S
H2104 C2108 0.949 . S
C2105 C2106 1.349 . S
C2105 C2107 1.327 . S
C2105 H2128 0.950 . S
C2106 C2105 1.349 . S
C2106 C2118 1.349 . S
C2107 C2105 1.327 . S
C2107 C2123 1.429 . S
C2107 H2129 0.950 . S
C2108 H2104 0.949 . S
C2108 C2116 1.574 . S
C2108 C2124 1.368 . S
H2109 C2117 0.950 . S
H2110 C2115 0.950 . S
H2111 C2116 0.949 . S
H2112 C2118 0.950 . S
H2113 C2119 0.950 . S
H2114 C2120 0.949 . S
C2115 H2110 0.950 . S
C2115 C2117 1.327 . S
C2115 C2121 1.429 . S
C2116 C2108 1.574 . S
C2116 H2111 0.949 . S
C2116 C2122 1.368 . S
C2117 C2101 1.349 . S
C2117 H2109 0.950 . S
C2117 C2115 1.327 . S
C2118 C2106 1.349 . S
C2118 H2112 0.950 . S
C2118 C2119 1.327 . S
C2119 H2113 0.950 . S
C2119 C2118 1.327 . S
C2119 C2123 1.429 . S
C2120 C2103 1.574 . S
C2120 H2114 0.949 . S
C2120 C2124 1.368 . S
C2121 C2102 1.429 . S
C2121 C2115 1.429 . S
C2121 C2122 1.523 . S
C2122 C2103 1.368 . S
C2122 C2116 1.368 . S
C2122 C2121 1.523 . S
C2123 C2107 1.429 . S
C2123 C2119 1.429 . S
C2123 C2124 1.523 . S
C2124 C2108 1.368 . S
C2124 C2120 1.368 . S
C2124 C2123 1.523 . S
H2125 C2100 0.950 . S
H2126 C2102 0.950 . S
H2127 C2103 0.949 . S
H2128 C2105 0.950 . S
H2129 C2107 0.950 . S
C2130 C2131 1.349 . S
C2130 C2132 1.327 . S
C2130 H2155 0.950 . S
C2131 C2130 1.349 . S
C2131 C2147 1.349 . S
C2132 C2130 1.327 . S
C2132 C2151 1.429 . S
C2132 H2156 0.950 . S
C2133 C2150 1.574 . S
C2133 C2152 1.379 1_545 S
C2133 H2157 0.949 1_545 S
H2134 C2138 0.949 . S
C2135 C2136 1.349 . S
C2135 C2137 1.327 . S
C2135 H2158 0.950 . S
C2136 C2135 1.349 . S
C2136 C2148 1.349 . S
C2137 C2135 1.327 . S
C2137 C2153 1.429 . S
C2137 H2159 0.950 . S
C2138 H2134 0.949 . S
C2138 C2146 1.574 . S
C2138 C2154 1.368 . S
H2139 C2147 0.950 . S
H2140 C2145 0.950 . S
H2141 C2146 0.949 . S
H2142 C2148 0.950 . S
H2143 C2149 0.950 . S
H2144 C2150 0.949 . S
C2145 H2140 0.950 . S
C2145 C2147 1.327 . S
C2145 C2151 1.429 . S
C2146 C2138 1.574 . S
C2146 H2141 0.949 . S
C2146 C2152 1.340 1_545 S
C2147 C2131 1.349 . S
C2147 H2139 0.950 . S
C2147 C2145 1.327 . S
C2148 C2136 1.349 . S
C2148 H2142 0.950 . S
C2148 C2149 1.327 . S
C2149 H2143 0.950 . S
C2149 C2148 1.327 . S
C2149 C2153 1.429 . S
C2150 C2133 1.574 . S
C2150 H2144 0.949 . S
C2150 C2154 1.368 . S
C2151 C2132 1.429 . S
C2151 C2145 1.429 . S
C2151 C2152 1.546 . S
C2152 C2133 1.379 1_565 S
C2152 C2146 1.340 1_565 S
C2152 C2151 1.546 . S
C2153 C2137 1.429 . S
C2153 C2149 1.429 . S
C2153 C2154 1.523 . S
C2154 C2138 1.368 . S
C2154 C2150 1.368 . S
C2154 C2153 1.523 . S
H2155 C2130 0.950 . S
H2156 C2132 0.950 . S
H2157 C2133 0.949 1_565 S
H2158 C2135 0.950 . S
H2159 C2137 0.950 . S
C2160 C2161 1.349 . S
C2160 C2162 1.327 . S
C2160 H2185 0.950 . S
C2161 C2160 1.349 . S
C2161 C2177 1.349 . S
C2162 C2160 1.327 . S
C2162 C2181 1.429 . S
C2162 H2186 0.950 . S
C2163 C2180 1.574 1_565 S
C2163 C2182 1.368 . S
C2163 H2187 0.949 . S
H2164 C2168 0.949 . S
C2165 C2166 1.349 . S
C2165 C2167 1.327 . S
C2165 H2188 0.950 . S
C2166 C2165 1.349 . S
C2166 C2178 1.349 . S
C2167 C2165 1.327 . S
C2167 C2183 1.429 . S
C2167 H2189 0.950 . S
C2168 H2164 0.949 . S
C2168 C2176 1.574 1_545 S
C2168 C2184 1.368 . S
H2169 C2177 0.950 . S
H2170 C2175 0.950 . S
H2171 C2176 0.949 . S
H2172 C2178 0.950 . S
H2173 C2179 0.950 . S
H2174 C2180 0.949 . S
C2175 H2170 0.950 . S
C2175 C2177 1.327 . S
C2175 C2181 1.429 . S
C2176 C2168 1.574 1_565 S
C2176 H2171 0.949 . S
C2176 C2182 1.368 . S
C2177 C2161 1.349 . S
C2177 H2169 0.950 . S
C2177 C2175 1.327 . S
C2178 C2166 1.349 . S
C2178 H2172 0.950 . S
C2178 C2179 1.327 . S
C2179 H2173 0.950 . S
C2179 C2178 1.327 . S
C2179 C2183 1.429 . S
C2180 C2163 1.574 1_545 S
C2180 H2174 0.949 . S
C2180 C2184 1.368 . S
C2181 C2162 1.429 . S
C2181 C2175 1.429 . S
C2181 C2182 1.523 . S
C2182 C2163 1.368 . S
C2182 C2176 1.368 . S
C2182 C2181 1.523 . S
C2183 C2167 1.429 . S
C2183 C2179 1.429 . S
C2183 C2184 1.523 . S
C2184 C2168 1.368 . S
C2184 C2180 1.368 . S
C2184 C2183 1.523 . S
H2185 C2160 0.950 . S
H2186 C2162 0.950 . S
H2187 C2163 0.949 . S
H2188 C2165 0.950 . S
H2189 C2167 0.950 . S
C2190 C2191 1.349 . S
C2190 C2192 1.327 . S
C2190 H2215 0.950 . S
C2191 C2190 1.349 . S
C2191 C2207 1.349 . S
C2192 C2190 1.327 . S
C2192 C2211 1.429 . S
C2192 H2216 0.950 . S
C2193 C2210 1.574 . S
C2193 C2212 1.368 . S
C2193 H2217 0.949 . S
H2194 C2198 0.949 . S
C2195 C2196 1.349 . S
C2195 C2197 1.327 . S
C2195 H2218 0.950 . S
C2196 C2195 1.349 . S
C2196 C2208 1.349 . S
C2197 C2195 1.327 . S
C2197 C2213 1.429 . S
C2197 H2219 0.950 . S
C2198 H2194 0.949 . S
C2198 C2206 1.574 . S
C2198 C2214 1.339 1_455 S
H2199 C2207 0.950 . S
H2200 C2205 0.950 . S
H2201 C2206 0.949 . S
H2202 C2208 0.950 . S
H2203 C2209 0.950 . S
H2204 C2210 0.949 1_655 S
C2205 H2200 0.950 . S
C2205 C2207 1.327 . S
C2205 C2211 1.429 . S
C2206 C2198 1.574 . S
C2206 H2201 0.949 . S
C2206 C2212 1.368 . S
C2207 C2191 1.349 . S
C2207 H2199 0.950 . S
C2207 C2205 1.327 . S
C2208 C2196 1.349 . S
C2208 H2202 0.950 . S
C2208 C2209 1.327 . S
C2209 H2203 0.950 . S
C2209 C2208 1.327 . S
C2209 C2213 1.429 . S
C2210 C2193 1.574 . S
C2210 H2204 0.949 1_455 S
C2210 C2214 1.381 1_455 S
C2211 C2192 1.429 . S
C2211 C2205 1.429 . S
C2211 C2212 1.523 . S
C2212 C2193 1.368 . S
C2212 C2206 1.368 . S
C2212 C2211 1.523 . S
C2213 C2197 1.429 . S
C2213 C2209 1.429 . S
C2213 C2214 1.546 . S
C2214 C2198 1.339 1_655 S
C2214 C2210 1.381 1_655 S
C2214 C2213 1.546 . S
H2215 C2190 0.950 . S
H2216 C2192 0.950 . S
H2217 C2193 0.949 . S
H2218 C2195 0.950 . S
H2219 C2197 0.950 . S
C2220 C2221 1.349 . S
C2220 C2222 1.327 . S
C2220 H2245 0.950 . S
C2221 C2220 1.349 . S
C2221 C2237 1.349 . S
C2222 C2220 1.327 . S
C2222 C2241 1.429 . S
C2222 H2246 0.950 . S
C2223 C2240 1.574 . S
C2223 C2242 1.368 . S
C2223 H2247 0.949 . S
H2224 C2228 0.949 . S
C2225 C2226 1.349 . S
C2225 C2227 1.327 . S
C2225 H2248 0.950 . S
C2226 C2225 1.349 . S
C2226 C2238 1.349 . S
C2227 C2225 1.327 . S
C2227 C2243 1.429 . S
C2227 H2249 0.950 . S
C2228 H2224 0.949 . S
C2228 C2236 1.574 . S
C2228 C2244 1.368 . S
H2229 C2237 0.950 . S
H2230 C2235 0.950 . S
H2231 C2236 0.949 . S
H2232 C2238 0.950 . S
H2233 C2239 0.950 . S
H2234 C2240 0.949 . S
C2235 H2230 0.950 . S
C2235 C2237 1.327 . S
C2235 C2241 1.429 . S
C2236 C2228 1.574 . S
C2236 H2231 0.949 . S
C2236 C2242 1.368 . S
C2237 C2221 1.349 . S
C2237 H2229 0.950 . S
C2237 C2235 1.327 . S
C2238 C2226 1.349 . S
C2238 H2232 0.950 . S
C2238 C2239 1.327 . S
C2239 H2233 0.950 . S
C2239 C2238 1.327 . S
C2239 C2243 1.429 . S
C2240 C2223 1.574 . S
C2240 H2234 0.949 . S
C2240 C2244 1.368 . S
C2241 C2222 1.429 . S
C2241 C2235 1.429 . S
C2241 C2242 1.523 . S
C2242 C2223 1.368 . S
C2242 C2236 1.368 . S
C2242 C2241 1.523 . S
C2243 C2227 1.429 . S
C2243 C2239 1.429 . S
C2243 C2244 1.523 . S
C2244 C2228 1.368 . S
C2244 C2240 1.368 . S
C2244 C2243 1.523 . S
H2245 C2220 0.950 . S
H2246 C2222 0.950 . S
H2247 C2223 0.949 . S
H2248 C2225 0.950 . S
H2249 C2227 0.950 . S
C2250 C2251 1.349 . S
C2250 C2252 1.327 . S
C2250 H2275 0.950 . S
C2251 C2250 1.349 . S
C2251 C2267 1.349 . S
C2252 C2250 1.327 . S
C2252 C2271 1.429 . S
C2252 H2276 0.950 . S
C2253 C2270 1.574 . S
C2253 C2272 1.368 . S
C2253 H2277 0.949 . S
H2254 C2258 0.949 . S
C2255 C2256 1.349 . S
C2255 C2257 1.327 . S
C2255 H2278 0.950 . S
C2256 C2255 1.349 . S
C2256 C2268 1.349 . S
C2257 C2255 1.327 . S
C2257 C2273 1.429 . S
C2257 H2279 0.950 . S
C2258 H2254 0.949 . S
C2258 C2266 1.574 . S
C2258 C2274 1.368 . S
H2259 C2267 0.950 . S
H2260 C2265 0.950 . S
H2261 C2266 0.949 . S
H2262 C2268 0.950 . S
H2263 C2269 0.950 . S
H2264 C2270 0.949 . S
C2265 H2260 0.950 . S
C2265 C2267 1.327 . S
C2265 C2271 1.429 . S
C2266 C2258 1.574 . S
C2266 H2261 0.949 . S
C2266 C2272 1.368 . S
C2267 C2251 1.349 . S
C2267 H2259 0.950 . S
C2267 C2265 1.327 . S
C2268 C2256 1.349 . S
C2268 H2262 0.950 . S
C2268 C2269 1.327 . S
C2269 H2263 0.950 . S
C2269 C2268 1.327 . S
C2269 C2273 1.429 . S
C2270 C2253 1.574 . S
C2270 H2264 0.949 . S
C2270 C2274 1.368 . S
C2271 C2252 1.429 . S
C2271 C2265 1.429 . S
C2271 C2272 1.523 . S
C2272 C2253 1.368 . S
C2272 C2266 1.368 . S
C2272 C2271 1.523 . S
C2273 C2257 1.429 . S
C2273 C2269 1.429 . S
C2273 C2274 1.523 . S
C2274 C2258 1.368 . S
C2274 C2270 1.368 . S
C2274 C2273 1.523 . S
H2275 C2250 0.950 . S
H2276 C2252 0.950 . S
H2277 C2253 0.949 . S
H2278 C2255 0.950 . S
H2279 C2257 0.950 . S
C2280 C2281 1.349 . S
C2280 C2282 1.327 . S
C2280 H2305 0.950 . S
C2281 C2280 1.349 . S
C2281 C2297 1.349 . S
C2282 C2280 1.327 . S
C2282 C2301 1.429 . S
C2282 H2306 0.950 . S
C2283 C2300 1.574 . S
C2283 C2302 1.368 . S
C2283 H2307 0.949 . S
H2284 C2288 0.949 . S
C2285 C2286 1.349 . S
C2285 C2287 1.327 . S
C2285 H2308 0.950 . S
C2286 C2285 1.349 . S
C2286 C2298 1.349 . S
C2287 C2285 1.327 . S
C2287 C2303 1.429 . S
C2287 H2309 0.950 . S
C2288 H2284 0.949 . S
C2288 C2296 1.574 . S
C2288 C2304 1.368 . S
H2289 C2297 0.950 . S
H2290 C2295 0.950 . S
H2291 C2296 0.949 . S
H2292 C2298 0.950 . S
H2293 C2299 0.950 . S
H2294 C2300 0.949 . S
C2295 H2290 0.950 . S
C2295 C2297 1.327 . S
C2295 C2301 1.429 . S
C2296 C2288 1.574 . S
C2296 H2291 0.949 . S
C2296 C2302 1.368 . S
C2297 C2281 1.349 . S
C2297 H2289 0.950 . S
C2297 C2295 1.327 . S
C2298 C2286 1.349 . S
C2298 H2292 0.950 . S
C2298 C2299 1.327 . S
C2299 H2293 0.950 . S
C2299 C2298 1.327 . S
C2299 C2303 1.429 . S
C2300 C2283 1.574 . S
C2300 H2294 0.949 . S
C2300 C2304 1.368 . S
C2301 C2282 1.429 . S
C2301 C2295 1.429 . S
C2301 C2302 1.523 . S
C2302 C2283 1.368 . S
C2302 C2296 1.368 . S
C2302 C2301 1.523 . S
C2303 C2287 1.429 . S
C2303 C2299 1.429 . S
C2303 C2304 1.523 . S
C2304 C2288 1.368 . S
C2304 C2300 1.368 . S
C2304 C2303 1.523 . S
H2305 C2280 0.950 . S
H2306 C2282 0.950 . S
H2307 C2283 0.949 . S
H2308 C2285 0.950 . S
H2309 C2287 0.950 . S
C2310 C2311 1.349 . S
C2310 C2312 1.327 . S
C2310 H2335 0.950 . S
C2311 C2310 1.349 . S
C2311 C2327 1.349 . S
C2312 C2310 1.327 . S
C2312 C2331 1.429 . S
C2312 H2336 0.950 . S
C2313 C2330 1.574 . S
C2313 C2332 1.368 . S
C2313 H2337 0.949 . S
H2314 C2318 0.949 . S
C2315 C2316 1.349 . S
C2315 C2317 1.327 . S
C2315 H2338 0.950 . S
C2316 C2315 1.349 . S
C2316 C2328 1.349 . S
C2317 C2315 1.327 . S
C2317 C2333 1.429 . S
C2317 H2339 0.950 . S
C2318 H2314 0.949 . S
C2318 C2326 1.574 . S
C2318 C2334 1.368 . S
H2319 C2327 0.950 . S
H2320 C2325 0.950 . S
H2321 C2326 0.949 . S
H2322 C2328 0.950 . S
H2323 C2329 0.950 . S
H2324 C2330 0.949 . S
C2325 H2320 0.950 . S
C2325 C2327 1.327 . S
C2325 C2331 1.429 . S
C2326 C2318 1.574 . S
C2326 H2321 0.949 . S
C2326 C2332 1.368 . S
C2327 C2311 1.349 . S
C2327 H2319 0.950 . S
C2327 C2325 1.327 . S
C2328 C2316 1.349 . S
C2328 H2322 0.950 . S
C2328 C2329 1.327 . S
C2329 H2323 0.950 . S
C2329 C2328 1.327 . S
C2329 C2333 1.429 . S
C2330 C2313 1.574 . S
C2330 H2324 0.949 . S
C2330 C2334 1.368 . S
C2331 C2312 1.429 . S
C2331 C2325 1.429 . S
C2331 C2332 1.523 . S
C2332 C2313 1.368 . S
C2332 C2326 1.368 . S
C2332 C2331 1.523 . S
C2333 C2317 1.429 . S
C2333 C2329 1.429 . S
C2333 C2334 1.523 . S
C2334 C2318 1.368 . S
C2334 C2330 1.368 . S
C2334 C2333 1.523 . S
H2335 C2310 0.950 . S
H2336 C2312 0.950 . S
H2337 C2313 0.949 . S
H2338 C2315 0.950 . S
H2339 C2317 0.950 . S
C721 C15 1.144 . S
C726 C99 1.165 . S
C751 C19 1.165 . S
C756 C55 1.144 . S
C781 C59 1.165 . S
C786 C95 1.144 . S
C811 C135 1.144 . S
C816 C179 1.165 . S
C841 C219 1.165 . S
C846 C175 1.144 . S
C871 C215 1.144 . S
C876 C139 1.165 . S
C901 C339 1.165 . S
C906 C255 1.144 . S
C931 C259 1.165 . S
C936 C295 1.144 1_545 S
C961 C335 1.143 . S
C966 C299 1.165 . S
C991 C419 1.165 . S
C996 C375 1.144 . S
C1021 C415 1.144 . S
C1026 C459 1.165 . S
C1051 C379 1.165 . S
C1056 C455 1.144 . S
C1081 C495 1.144 . S
C1086 C579 1.165 . S
C1111 C499 1.165 . S
C1116 C535 1.144 . S
C1141 C539 1.165 . S
C1146 C575 1.144 . S
C1171 C659 1.165 . S
C1176 C615 1.144 . S
C1201 C699 1.165 . S
C1206 C655 1.143 . S
C1231 C619 1.165 . S
C1236 C695 1.144 1_455 S
C1261 C18 1.785 . S
C1266 C218 1.785 . S
C1291 C138 1.785 . S
C1296 C58 1.785 . S
C1321 C178 1.785 . S
C1326 C98 1.785 . S
C1351 C258 1.785 . S
C1356 C458 1.785 . S
C1381 C298 1.785 . S
C1386 C378 1.785 . S
C1411 C418 1.785 . S
C1416 C338 1.785 . S
C1441 C498 1.785 . S
C1446 C698 1.785 . S
C1471 C618 1.785 . S
C1476 C538 1.785 . S
C1501 C658 1.785 . S
C1506 C578 1.785 . S
C1531 C409 2.039 . S
C1536 C9 2.039 1_565 S
C1561 C49 2.039 . S
C1566 C449 2.039 . S
C1591 C369 2.039 . S
C1596 C89 2.039 . S
C1621 C129 2.038 1_655 S
C1626 C569 2.038 . S
C1651 C169 2.039 . S
C1656 C489 2.039 . S
C1681 C529 2.039 . S
C1686 C209 2.039 . S
C1711 C649 2.038 . S
C1716 C249 2.039 . S
C1741 C289 2.039 . S
C1746 C689 2.039 . S
C1771 C329 2.039 . S
C1776 C609 2.039 . S
C1801 C90 1.845 . S
C1806 C6 1.860 . S
C1831 C10 1.845 . S
C1836 C46 1.860 . S
C1861 C86 1.860 . S
C1866 C50 1.845 . S
C1891 C170 1.845 . S
C1896 C126 1.860 . S
C1921 C210 1.845 . S
C1926 C166 1.860 . S
C1951 C206 1.860 . S
C1956 C130 1.845 . S
C1981 C330 1.845 . S
C1986 C246 1.860 . S
C2011 C286 1.860 . S
C2016 C250 1.845 . S
C2041 C290 1.845 . S
C2046 C326 1.860 . S
C2071 C366 1.860 . S
C2076 C410 1.845 . S
C2101 C406 1.860 . S
C2106 C450 1.845 . S
C2131 C370 1.845 . S
C2136 C446 1.860 . S
C2161 C486 1.860 . S
C2166 C570 1.845 . S
C2191 C526 1.860 . S
C2196 C490 1.845 . S
C2221 C530 1.845 . S
C2226 C566 1.860 . S
C2251 C606 1.860 . S
C2256 C650 1.845 . S
C2281 C646 1.860 . S
C2286 C690 1.845 . S
C2311 C610 1.845 . S
C2316 C686 1.860 . S
