# Generated by pormake.
# Topology hcp, (12)-cn, num edge types: 1
# Building blocks:
#     Node 0, Type 0, BuildingBlock: QEWDON_clean_sbu_0, # of connection points: 12
#     Node 1, Type 0, BuildingBlock: QEWDON_clean_sbu_0, # of connection points: 12
#     Edge 2, Type (0, 0), BuildingBlock: XUDNAN_clean_linker_2, # of connection points: 2
#     Edge 3, Type (0, 0), BuildingBlock: XUDNAN_clean_linker_2, # of connection points: 2
#     Edge 4, Type (0, 0), BuildingBlock: XUDNAN_clean_linker_2, # of connection points: 2
#     Edge 5, Type (0, 0), BuildingBlock: XUDNAN_clean_linker_2, # of connection points: 2
#     Edge 6, Type (0, 0), BuildingBlock: XUDNAN_clean_linker_2, # of connection points: 2
#     Edge 7, Type (0, 0), BuildingBlock: XUDNAN_clean_linker_2, # of connection points: 2
#     Edge 8, Type (0, 0), BuildingBlock: XUDNAN_clean_linker_2, # of connection points: 2
#     Edge 9, Type (0, 0), BuildingBlock: XUDNAN_clean_linker_2, # of connection points: 2
#     Edge 10, Type (0, 0), BuildingBlock: XUDNAN_clean_linker_2, # of connection points: 2
#     Edge 11, Type (0, 0), BuildingBlock: XUDNAN_clean_linker_2, # of connection points: 2
#     Edge 12, Type (0, 0), BuildingBlock: XUDNAN_clean_linker_2, # of connection points: 2
#     Edge 13, Type (0, 0), BuildingBlock: XUDNAN_clean_linker_2, # of connection points: 2
# Relax obj value: 0.193
# Max RMSD: 0.273
# Mean RMSD: 0.273
data_MOF--net-hcp--node1-QEWDON_clean_sbu_0--edge1-XUDNAN_clean_linker_2
_symmetry_space_group_name_H-M    P1
_symmetry_Int_Tables_number       1
_symmetry_cell_setting            triclinic
loop_
_symmetry_equiv_pos_as_xyz
'x, y, z'
_cell_length_a     19.868219
_cell_length_b     18.470105
_cell_length_c     31.451239
_cell_angle_alpha  91.628386
_cell_angle_beta   88.297185
_cell_angle_gamma 123.3029
loop_
_atom_site_label
_atom_site_type_symbol
_atom_site_fract_x
_atom_site_fract_y
_atom_site_fract_z
_atom_type_partial_charge
Zn0 Zn 0.74748 0.25677 0.3013 0.0
Zn1 Zn 0.82204 0.40998 0.23428 0.0
O2 O 0.72754 0.34234 0.27561 0.0
H3 H 0.68999 0.35577 0.28707 0.0
C4 C 0.55564 0.06743 0.23467 0.0
O5 O 0.54034 0.0927 0.27108 0.0
Zn6 Zn 0.53372 0.48505 0.22003 0.0
Zn7 Zn 0.4406 0.32657 0.2814 0.0
O8 O 0.48632 0.35733 0.22083 0.0
H9 H 0.46698 0.31818 0.19656 0.0
Zn10 Zn 0.52402 0.1895 0.19085 0.0
O11 O 0.61698 0.31556 0.19511 0.0
Zn12 Zn 0.62744 0.36341 0.13763 0.0
H13 H 0.6318 0.35048 0.22075 0.0
Zn14 Zn 0.56189 0.35486 0.36215 0.0
O15 O 0.60228 0.42016 0.30829 0.0
H16 H 0.58597 0.39106 0.28101 0.0
Zn17 Zn 0.71093 0.52626 0.32003 0.0
C18 C 0.42325 0.20267 0.3929 0.0
O19 O 0.36322 0.12174 0.39754 0.0
O20 O 0.86919 0.31659 0.30366 0.0
O21 O 0.89733 0.37035 0.23825 0.0
O22 O 0.41986 0.41698 0.30697 0.0
O23 O 0.46151 0.50921 0.2535 0.0
O24 O 0.46906 0.15507 0.13292 0.0
O25 O 0.56897 0.26404 0.09671 0.0
C26 C 0.85939 0.56966 0.26867 0.0
O27 O 0.65214 0.39442 0.40449 0.0
O28 O 0.7507 0.52152 0.3787 0.0
O29 O 0.34442 0.19901 0.29049 0.0
C30 C 0.91933 0.35758 0.27347 0.0
O31 O 0.67003 0.16467 0.34642 0.0
C32 C 0.56084 0.48389 0.13185 0.0
O33 O 0.55322 0.10016 0.20033 0.0
C34 C 0.42607 0.48184 0.28945 0.0
O35 O 0.46849 0.22534 0.3601 0.0
C36 C 0.79647 0.43546 0.14066 0.0
O37 O 0.89248 0.53745 0.24796 0.0
O38 O 0.78613 0.51898 0.27972 0.0
C39 C 0.50826 0.18643 0.09829 0.0
O40 O 0.53927 0.52025 0.15868 0.0
O41 O 0.58639 0.44025 0.14661 0.0
C42 C 0.66208 0.61453 0.27517 0.0
O43 O 0.74285 0.42873 0.1168 0.0
O44 O 0.77486 0.4044 0.17779 0.0
C45 C 0.72284 0.4626 0.40686 0.0
O46 O 0.7042 0.62875 0.30786 0.0
O47 O 0.6352 0.54398 0.25436 0.0
C48 C 0.27519 0.18745 0.29018 0.0
O49 O 0.27041 0.25479 0.28486 0.0
C50 C 0.66229 0.18305 0.38483 0.0
O51 O 0.70415 0.26436 0.39765 0.0
Zn52 Zn 0.45033 0.58835 0.75578 0.0
Zn53 Zn 0.48173 0.71546 0.68089 0.0
O54 O 0.39418 0.63492 0.72301 0.0
H55 H 0.35196 0.64102 0.73468 0.0
C56 C 0.22569 0.3166 0.67392 0.0
O57 O 0.19396 0.35314 0.69545 0.0
Zn58 Zn 0.23778 0.7841 0.69671 0.0
Zn59 Zn 0.08982 0.61243 0.73785 0.0
O60 O 0.17727 0.65334 0.69135 0.0
H61 H 0.17145 0.6201 0.66584 0.0
Zn62 Zn 0.25211 0.44789 0.61512 0.0
O63 O 0.28923 0.55175 0.65488 0.0
Zn64 Zn 0.3074 0.63046 0.60758 0.0
H65 H 0.25906 0.54634 0.68058 0.0
Zn66 Zn 0.36394 0.68352 0.87257 0.0
O67 O 0.33259 0.71612 0.81894 0.0
H68 H 0.28116 0.68295 0.80507 0.0
Zn69 Zn 0.42821 0.83071 0.79983 0.0
C70 C 0.23933 0.65594 0.93501 0.0
O71 O 0.24861 0.72221 0.91477 0.0
O72 O 0.57197 0.67322 0.75798 0.0
O73 O 0.59095 0.75988 0.70539 0.0
O74 O 0.07072 0.70897 0.75394 0.0
O75 O 0.16017 0.81869 0.71323 0.0
O76 O 0.1602 0.42783 0.57734 0.0
O77 O 0.20908 0.56767 0.56975 0.0
C78 C 0.49157 0.86185 0.71063 0.0
O79 O 0.47483 0.78391 0.89213 0.0
O80 O 0.51743 0.88364 0.84222 0.0
O81 O -0.015 0.48537 0.73603 0.0
C82 C 0.61819 0.73942 0.73562 0.0
O83 O 0.40972 0.51868 0.81181 0.0
C84 C 0.32523 0.80585 0.61991 0.0
O85 O 0.25496 0.34418 0.63699 0.0
C86 C 0.10038 0.78458 0.73924 0.0
O87 O 0.2798 0.62452 0.92249 0.0
C88 C 0.4565 0.63916 0.58712 0.0
O89 O 0.49433 0.8302 0.67472 0.0
O90 O 0.46215 0.81151 0.74222 0.0
C91 C 0.15576 0.48813 0.56192 0.0
O92 O 0.30132 0.84482 0.64328 0.0
O93 O 0.30684 0.7318 0.63165 0.0
C94 C 0.34264 0.89366 0.76522 0.0
O95 O 0.40422 0.65256 0.57403 0.0
O96 O 0.48021 0.6552 0.6255 0.0
C97 C 0.52721 0.85841 0.87745 0.0
O98 O 0.39245 0.91225 0.79441 0.0
O99 O 0.31805 0.82534 0.74295 0.0
C100 C 0.92347 0.47416 0.71782 0.0
O101 O 0.92921 0.54114 0.7003 0.0
C102 C 0.43533 0.56569 0.8453 0.0
O103 O 0.47294 0.65 0.84172 0.0
H104 H 0.58647 0.03056 0.87812 0.0
H105 H 0.58803 0.83293 0.94783 0.0
H106 H 0.59237 0.90617 0.01526 0.0
H107 H 0.71067 0.21825 0.96435 0.0
H108 H 0.65171 0.26167 0.95177 0.0
H109 H 0.6799 0.21309 0.9104 0.0
H110 H 0.52966 0.11339 0.8915 0.0
H111 H 0.49938 0.15568 0.93462 0.0
H112 H 0.45817 0.04113 0.93109 0.0
H113 H 0.53887 0.96029 0.07002 0.0
H114 H 0.49142 0.03456 0.11543 0.0
H115 H 0.53544 0.20726 0.01217 0.0
C116 C 0.59437 1.00654 0.9073 0.0
C117 C 0.58297 0.92407 0.90836 0.0
C118 C 0.59391 0.89467 0.94692 0.0
C119 C 0.59587 0.93564 0.98532 0.0
C120 C 0.59222 1.0087 0.98378 0.0
C121 C 0.59733 0.04772 0.94582 0.0
C122 C 0.58307 0.11997 0.95287 0.0
C123 C 0.66099 0.20851 0.94437 0.0
C124 C 0.51343 0.10659 0.92592 0.0
C125 C 0.5607 0.1089 -0.00033 0.0
C126 C 0.56628 0.0443 0.01678 0.0
C127 C 0.53796 1.01382 0.05764 0.0
C128 C 0.50895 0.0549 0.08279 0.0
C129 C 0.50977 0.12662 0.0672 0.0
C130 C 0.53423 0.15256 0.02477 0.0
H131 H 0.41455 0.58764 0.50415 0.0
H132 H 0.54772 0.57565 0.60777 0.0
H133 H 0.56129 0.46829 0.56698 0.0
H134 H 0.30046 0.37427 0.48138 0.0
H135 H 0.30228 0.3801 0.42432 0.0
H136 H 0.31521 0.46886 0.45653 0.0
H137 H 0.44875 0.5754 0.4189 0.0
H138 H 0.44203 0.49065 0.38566 0.0
H139 H 0.52912 0.5571 0.41774 0.0
H140 H 0.54491 0.34811 0.51885 0.0
H141 H 0.50759 0.23271 0.46409 0.0
H142 H 0.38409 0.3221 0.39346 0.0
C143 C 0.44875 0.56461 0.51782 0.0
C144 C 0.47989 0.59018 0.55924 0.0
C145 C 0.52353 0.55752 0.57603 0.0
C146 C 0.53147 0.49625 0.55313 0.0
C147 C 0.49654 0.46929 0.51326 0.0
C148 C 0.45749 0.50375 0.49539 0.0
C149 C 0.42096 0.46017 0.45326 0.0
C150 C 0.32931 0.41842 0.45393 0.0
C151 C 0.46265 0.52474 0.41676 0.0
C152 C 0.44134 0.39242 0.45134 0.0
C153 C 0.48616 0.39955 0.48591 0.0
C154 C 0.50994 0.34213 0.49167 0.0
C155 C 0.48753 0.27614 0.46113 0.0
C156 C 0.44106 0.26766 0.42604 0.0
C157 C 0.41848 0.32689 0.42073 0.0
H158 H 0.87113 0.56578 0.08369 0.0
H159 H 0.90628 0.39458 0.15705 0.0
H160 H 0.03145 0.44104 0.11581 0.0
H161 H 0.92385 0.52248 0.98696 0.0
H162 H -0.02499 0.63079 0.96653 0.0
H163 H 0.89695 0.59626 0.00644 0.0
H164 H -0.00517 0.72466 0.05569 0.0
H165 H 0.07304 0.76097 0.01551 0.0
H166 H 0.09001 0.74079 0.06861 0.0
H167 H 0.13862 0.48712 0.05761 0.0
H168 H 0.22849 0.54308 0.99416 0.0
H169 H 0.12479 0.68762 0.96061 0.0
C170 C 0.90683 0.54048 0.09211 0.0
C171 C 0.88001 0.47777 0.12411 0.0
C172 C 0.92721 0.44469 0.13366 0.0
C173 C -0.00217 0.46998 0.10996 0.0
C174 C 0.0207 0.52924 0.07728 0.0
C175 C -0.02252 0.56559 0.06907 0.0
C176 C 0.01129 0.62346 0.03061 0.0
C177 C 0.948 0.59127 0.99559 0.0
C178 C 0.04428 0.71809 0.04338 0.0
C179 C 0.07856 0.61167 0.01738 0.0
C180 C 0.08323 0.55718 0.04463 0.0
C181 C 0.13672 0.53152 0.03674 0.0
C182 C 0.18732 0.56333 0.00048 0.0
C183 C 0.1846 0.62075 0.97271 0.0
C184 C 0.12939 0.64502 0.98154 0.0
H185 H 0.42142 0.97812 0.60296 0.0
H186 H 0.32853 0.72445 0.54601 0.0
H187 H 0.40476 0.79362 0.47966 0.0
H188 H 0.42764 0.09411 0.51321 0.0
H189 H 0.52211 0.1895 0.52976 0.0
H190 H 0.4542 0.11334 0.56861 0.0
H191 H 0.57702 0.10811 0.5924 0.0
H192 H 0.63909 0.17843 0.54987 0.0
H193 H 0.62407 0.07347 0.55468 0.0
H194 H 0.48967 0.89108 0.41971 0.0
H195 H 0.58032 1.00839 0.37068 0.0
H196 H 0.62233 0.19933 0.46786 0.0
C197 C 0.41797 0.93694 0.57683 0.0
C198 C 0.3702 0.84569 0.57993 0.0
C199 C 0.36607 0.79428 0.54465 0.0
C200 C 0.40882 0.83313 0.50679 0.0
C201 C 0.45635 0.92342 0.50512 0.0
C202 C 0.46215 0.97463 0.53945 0.0
C203 C 0.52001 0.07006 0.53017 0.0
C204 C 0.47832 0.11952 0.53564 0.0
C205 C 0.59446 0.10984 0.55845 0.0
C206 C 0.54208 0.0649 0.48414 0.0
C207 C 0.50566 0.97962 0.47064 0.0
C208 C 0.51835 0.95805 0.42982 0.0
C209 C 0.56969 0.02525 0.40205 0.0
C210 C 0.60775 0.11318 0.41491 0.0
C211 C 0.59374 0.13294 0.45674 0.0
H212 H 0.51447 0.57996 0.09287 0.0
H213 H 0.57897 0.3936 0.06658 0.0
H214 H 0.54109 0.38389 0.99154 0.0
H215 H 0.3448 0.48773 0.02303 0.0
H216 H 0.3678 0.59194 0.0068 0.0
H217 H 0.39612 0.57999 0.0587 0.0
H218 H 0.54609 0.7026 0.04218 0.0
H219 H 0.51291 0.71419 0.99183 0.0
H220 H 0.59294 0.69549 0.99361 0.0
H221 H 0.48985 0.39011 0.91999 0.0
H222 H 0.4538 0.43123 0.85446 0.0
H223 H 0.43373 0.62264 0.92639 0.0
C224 C 0.52109 0.53737 0.07133 0.0
C225 C 0.54833 0.48609 0.08582 0.0
C226 C 0.55697 0.43215 0.05643 0.0
C227 C 0.53537 0.42614 0.01375 0.0
C228 C 0.50639 0.47564 0.00085 0.0
C229 C 0.50097 0.53165 0.02858 0.0
C230 C 0.47193 0.58104 0.00633 0.0
C231 C 0.39027 0.55872 0.02484 0.0
C232 C 0.53491 0.67917 0.0086 0.0
C233 C 0.46338 0.54538 0.96144 0.0
C234 C 0.48134 0.48286 0.95922 0.0
C235 C 0.47615 0.43934 0.92128 0.0
C236 C 0.45492 0.46256 0.88432 0.0
C237 C 0.44098 0.53 0.88545 0.0
C238 C 0.44401 0.57079 0.92468 0.0
H239 H 0.88874 0.56539 0.40793 0.0
H240 H 0.67982 0.36212 0.47717 0.0
H241 H 0.76848 0.34222 0.52136 0.0
H242 H 0.00042 0.4675 0.40588 0.0
H243 H 0.09687 0.56706 0.41362 0.0
H244 H 0.01767 0.56838 0.38805 0.0
H245 H 0.02953 0.68098 0.44371 0.0
H246 H 0.10947 0.68065 0.46904 0.0
H247 H 0.02181 0.65772 0.4996 0.0
H248 H 0.87723 0.33392 0.55318 0.0
H249 H 0.00276 0.35704 0.5808 0.0
H250 H 0.14288 0.57217 0.49506 0.0
C251 C 0.86176 0.51837 0.43315 0.0
C252 C 0.77714 0.46508 0.43895 0.0
C253 C 0.74434 0.40352 0.47199 0.0
C254 C 0.79418 0.39128 0.49711 0.0
C255 C 0.87687 0.44193 0.48924 0.0
C256 C 0.91081 0.5057 0.45883 0.0
C257 C 0.00179 0.5515 0.4572 0.0
C258 C 0.03083 0.53774 0.41361 0.0
C259 C 0.04306 0.64845 0.46806 0.0
C260 C 0.01344 0.504 0.49182 0.0
C261 C 0.94034 0.43967 0.50907 0.0
C262 C 0.93496 0.3847 0.54032 0.0
C263 C 0.00645 0.39774 0.5555 0.0
C264 C 0.08214 0.46635 0.54007 0.0
C265 C 0.0856 0.51942 0.50744 0.0
H266 H 0.57459 0.98758 0.30101 0.0
H267 H 0.57311 0.99077 0.16332 0.0
H268 H 0.59704 0.87337 0.15946 0.0
H269 H 0.7343 0.94833 0.30781 0.0
H270 H 0.68948 0.87944 0.35338 0.0
H271 H 0.67268 0.9643 0.34498 0.0
H272 H 0.5198 0.85064 0.34892 0.0
H273 H 0.534 0.76314 0.35481 0.0
H274 H 0.47448 0.76101 0.31199 0.0
H275 H 0.6235 0.75868 0.16997 0.0
H276 H 0.65318 0.65359 0.1946 0.0
H277 H 0.63516 0.72075 0.32566 0.0
C278 C 0.57964 0.96369 0.27025 0.0
C279 C 0.57199 0.99838 0.23269 0.0
C280 C 0.57881 0.96542 0.19266 0.0
C281 C 0.5923 0.89859 0.19009 0.0
C282 C 0.59927 0.86574 0.22779 0.0
C283 C 0.59378 0.89739 0.26715 0.0
C284 C 0.60464 0.85115 0.30273 0.0
C285 C 0.67972 0.91458 0.32875 0.0
C286 C 0.52876 0.80356 0.33132 0.0
C287 C 0.61662 0.78822 0.2771 0.0
C288 C 0.61327 0.798 0.23394 0.0
C289 C 0.62498 0.74938 0.20367 0.0
C290 C 0.64061 0.68907 0.21787 0.0
C291 C 0.64352 0.67723 0.26181 0.0
C292 C 0.6321 0.72795 0.29185 0.0
H293 H -0.01145 0.74479 0.8016 0.0
H294 H 0.11335 0.91924 0.69683 0.0
H295 H 0.01533 0.9612 0.69973 0.0
H296 H 0.81299 0.65172 0.76586 0.0
H297 H 0.75606 0.63845 0.81406 0.0
H298 H 0.85109 0.64978 0.81689 0.0
H299 H 0.90381 0.78147 0.86823 0.0
H300 H 0.80762 0.76973 0.86624 0.0
H301 H 0.89874 0.87197 0.85353 0.0
H302 H 0.88426 0.94517 0.69685 0.0
H303 H 0.73823 0.87924 0.6912 0.0
H304 H 0.69527 0.71356 0.79748 0.0
C305 C -0.00283 0.79477 0.7806 0.0
C306 C 0.05774 0.82812 0.7487 0.0
C307 C 0.0674 0.89305 0.72158 0.0
C308 C 0.01197 0.9175 0.72317 0.0
C309 C 0.94807 0.87721 0.75246 0.0
C310 C 0.94168 0.81875 0.7816 0.0
C311 C 0.86023 0.77143 0.80388 0.0
C312 C 0.81768 0.67211 0.79983 0.0
C313 C 0.8681 0.80043 0.85075 0.0
C314 C 0.81841 0.8039 0.77888 0.0
C315 C 0.87085 0.86773 0.75071 0.0
C316 C 0.8432 0.89745 0.71972 0.0
C317 C 0.75999 0.85897 0.71645 0.0
C318 C 0.7055 0.79055 0.74363 0.0
C319 C 0.73559 0.76593 0.77638 0.0
H320 H 0.26036 0.03339 0.30725 0.0
H321 H 0.12156 0.14254 0.27805 0.0
H322 H -0.00197 0.99613 0.27598 0.0
H323 H 0.15964 0.85152 0.2401 0.0
H324 H 0.16101 0.77739 0.27557 0.0
H325 H 0.2381 0.89123 0.27874 0.0
H326 H 0.20344 0.89367 0.35865 0.0
H327 H 0.12609 0.77959 0.35567 0.0
H328 H 0.10138 0.85539 0.37467 0.0
H329 H 0.89483 0.83968 0.26563 0.0
H330 H 0.81582 0.6814 0.25419 0.0
H331 H 0.01359 0.66974 0.29783 0.0
C332 C 0.20376 0.02648 0.30105 0.0
C333 C 0.20078 0.09953 0.29261 0.0
C334 C 0.12555 0.08776 0.28458 0.0
C335 C 0.05489 1.00478 0.28339 0.0
C336 C 0.06003 0.93412 0.29101 0.0
C337 C 0.13217 0.94387 0.3003 0.0
C338 C 0.12101 0.85643 0.30562 0.0
C339 C 0.17301 0.84341 0.27306 0.0
C340 C 0.13905 0.84566 0.35138 0.0
C341 C 0.03202 0.7963 0.29635 0.0
C342 C -0.00189 0.8427 0.28815 0.0
C343 C 0.91931 0.80236 0.27422 0.0
C344 C 0.87378 0.71219 0.2689 0.0
C345 C 0.90581 0.66303 0.27877 0.0
C346 C -0.01362 0.70576 0.29218 0.0
H347 H 0.29282 0.23058 0.63965 0.0
H348 H 0.16957 0.24631 0.75245 0.0
H349 H 0.18237 0.13631 0.78682 0.0
H350 H 0.20654 1.00002 0.64205 0.0
H351 H 0.29812 1.0079 0.62602 0.0
H352 H 0.27933 0.08728 0.6087 0.0
H353 H 0.41308 0.2118 0.64028 0.0
H354 H 0.43378 0.13304 0.6558 0.0
H355 H 0.43527 0.20712 0.69495 0.0
H356 H 0.21705 0.0334 0.81126 0.0
H357 H 0.26402 0.93576 0.82207 0.0
H358 H 0.35906 0.98138 0.69298 0.0
C359 C 0.26787 0.21033 0.67143 0.0
C360 C 0.23022 0.24726 0.69336 0.0
C361 C 0.19871 0.21917 0.73498 0.0
C362 C 0.20567 0.15667 0.75483 0.0
C363 C 0.24405 0.12255 0.73262 0.0
C364 C 0.27412 0.14771 0.69172 0.0
C365 C 0.31428 0.10205 0.67536 0.0
C366 C 0.27197 0.04592 0.63574 0.0
C367 C 0.40447 0.16748 0.66611 0.0
C368 C 0.30159 0.04712 0.71347 0.0
C369 C 0.26185 0.0608 0.74631 0.0
C370 C 0.24743 0.02136 0.78565 0.0
C371 C 0.27432 0.96634 0.79157 0.0
C372 C 0.31367 0.95029 0.7581 0.0
C373 C 0.32746 0.99115 0.71865 0.0
H374 H 0.30605 0.40606 0.34879 0.0
H375 H 0.4323 0.62588 0.26507 0.0
H376 H 0.3178 0.64179 0.26923 0.0
H377 H 0.14765 0.30344 0.30505 0.0
H378 H 0.07303 0.26253 0.34736 0.0
H379 H 0.1731 0.29268 0.35811 0.0
H380 H 0.18499 0.39749 0.41727 0.0
H381 H 0.08481 0.37026 0.4075 0.0
H382 H 0.16855 0.48169 0.40614 0.0
H383 H 0.18126 0.59475 0.255 0.0
H384 H 0.0376 0.5084 0.2374 0.0
H385 H -0.00605 0.3189 0.33117 0.0
C386 C 0.31166 0.46129 0.33398 0.0
C387 C 0.37699 0.51384 0.30619 0.0
C388 C 0.38221 0.58433 0.28626 0.0
C389 C 0.31743 0.59416 0.28866 0.0
C390 C 0.24892 0.53398 0.31178 0.0
C391 C 0.24679 0.47112 0.33602 0.0
C392 C 0.16139 0.40342 0.35039 0.0
C393 C 0.13753 0.31018 0.33949 0.0
C394 C 0.14931 0.41396 0.39813 0.0
C395 C 0.11567 0.42953 0.32437 0.0
C396 C 0.1671 0.50696 0.30385 0.0
C397 C 0.14011 0.53622 0.27234 0.0
C398 C 0.05878 0.48568 0.26182 0.0
C399 C 0.0054 0.4067 0.28277 0.0
C400 C 0.0339 0.37945 0.31501 0.0
H401 H 0.87908 0.32524 0.76123 0.0
H402 H 0.79249 0.42709 0.67018 0.0
H403 H 0.66444 0.28461 0.66552 0.0
H404 H 0.79589 0.11956 0.71255 0.0
H405 H 0.7689 0.06048 0.76146 0.0
H406 H 0.85158 0.17221 0.76021 0.0
H407 H 0.78387 0.20882 0.82155 0.0
H408 H 0.70164 0.09664 0.8227 0.0
H409 H 0.68187 0.17984 0.81583 0.0
H410 H 0.552 0.1285 0.66476 0.0
H411 H 0.46489 0.96798 0.66706 0.0
H412 H 0.61628 0.96748 0.76249 0.0
C413 C 0.83287 0.31776 0.74064 0.0
C414 C 0.84612 0.38777 0.71611 0.0
C415 C 0.78401 0.37492 0.68944 0.0
C416 C 0.71073 0.29415 0.68668 0.0
C417 C 0.69952 0.22667 0.71125 0.0
C418 C 0.75862 0.23752 0.7379 0.0
C419 C 0.73239 0.15288 0.75923 0.0
C420 C 0.79063 0.12464 0.74766 0.0
C421 C 0.72446 0.16004 0.8077 0.0
C422 C 0.65053 0.09249 0.7394 0.0
C423 C 0.63261 0.1366 0.71199 0.0
C424 C 0.56445 0.09345 0.68669 0.0
C425 C 0.51498 1.00271 0.68829 0.0
C426 C 0.53219 0.95639 0.71589 0.0
C427 C 0.59982 1.00204 0.74249 0.0
loop_
_geom_bond_atom_site_label_1
_geom_bond_atom_site_label_2
_geom_bond_distance
_geom_bond_site_symmetry_2
_ccdc_geom_bond_type
Zn0 O2 1.933 . S
Zn0 O20 1.985 . S
Zn0 O31 1.955 . S
Zn1 O2 1.911 . S
Zn1 O21 1.970 . S
Zn1 O37 1.945 . S
Zn1 O44 1.981 . S
O2 Zn0 1.933 . S
O2 Zn1 1.911 . S
O2 H3 0.841 . S
H3 O2 0.841 . S
C4 O5 1.246 . S
C4 O33 1.276 . S
O5 C4 1.246 . S
Zn6 O8 1.911 . S
Zn6 O23 1.970 . S
Zn6 O40 1.945 . S
Zn6 O47 1.981 . S
Zn7 O8 1.933 . S
Zn7 O22 1.985 . S
Zn7 O29 1.955 . S
O8 Zn6 1.911 . S
O8 Zn7 1.933 . S
O8 H9 0.841 . S
H9 O8 0.841 . S
Zn10 O11 1.933 . S
Zn10 O24 1.985 . S
Zn10 O33 1.955 . S
O11 Zn10 1.933 . S
O11 Zn12 1.911 . S
O11 H13 0.841 . S
Zn12 O11 1.911 . S
Zn12 O25 1.970 . S
Zn12 O41 1.981 . S
Zn12 O43 1.945 . S
H13 O11 0.841 . S
Zn14 O15 1.933 . S
Zn14 O27 1.985 . S
Zn14 O35 1.955 . S
O15 Zn14 1.933 . S
O15 H16 0.841 . S
O15 Zn17 1.911 . S
H16 O15 0.841 . S
Zn17 O15 1.911 . S
Zn17 O28 1.970 . S
Zn17 O38 1.981 . S
Zn17 O46 1.945 . S
C18 O19 1.246 . S
C18 O35 1.276 . S
O19 C18 1.246 . S
O20 Zn0 1.985 . S
O20 C30 1.245 . S
O21 Zn1 1.970 . S
O21 C30 1.263 . S
O22 Zn7 1.985 . S
O22 C34 1.245 . S
O23 Zn6 1.970 . S
O23 C34 1.263 . S
O24 Zn10 1.985 . S
O24 C39 1.245 . S
O25 Zn12 1.970 . S
O25 C39 1.263 . S
C26 O37 1.262 . S
C26 O38 1.245 . S
O27 Zn14 1.985 . S
O27 C45 1.245 . S
O28 Zn17 1.970 . S
O28 C45 1.263 . S
O29 Zn7 1.955 . S
O29 C48 1.276 . S
C30 O20 1.245 . S
C30 O21 1.263 . S
O31 Zn0 1.955 . S
O31 C50 1.276 . S
C32 O40 1.262 . S
C32 O41 1.245 . S
O33 C4 1.276 . S
O33 Zn10 1.955 . S
C34 O22 1.245 . S
C34 O23 1.263 . S
O35 Zn14 1.955 . S
O35 C18 1.276 . S
C36 O43 1.262 . S
C36 O44 1.245 . S
O37 Zn1 1.945 . S
O37 C26 1.262 . S
O38 Zn17 1.981 . S
O38 C26 1.245 . S
C39 O24 1.245 . S
C39 O25 1.263 . S
O40 Zn6 1.945 . S
O40 C32 1.262 . S
O41 Zn12 1.981 . S
O41 C32 1.245 . S
C42 O46 1.262 . S
C42 O47 1.245 . S
O43 Zn12 1.945 . S
O43 C36 1.262 . S
O44 Zn1 1.981 . S
O44 C36 1.245 . S
C45 O27 1.245 . S
C45 O28 1.263 . S
O46 Zn17 1.945 . S
O46 C42 1.262 . S
O47 Zn6 1.981 . S
O47 C42 1.245 . S
C48 O29 1.276 . S
C48 O49 1.246 . S
O49 C48 1.246 . S
C50 O31 1.276 . S
C50 O51 1.246 . S
O51 C50 1.246 . S
Zn52 O54 1.933 . S
Zn52 O72 1.985 . S
Zn52 O83 1.955 . S
Zn53 O54 1.911 . S
Zn53 O73 1.970 . S
Zn53 O89 1.945 . S
Zn53 O96 1.981 . S
O54 Zn52 1.933 . S
O54 Zn53 1.911 . S
O54 H55 0.841 . S
H55 O54 0.841 . S
C56 O57 1.246 . S
C56 O85 1.276 . S
O57 C56 1.246 . S
Zn58 O60 1.911 . S
Zn58 O75 1.970 . S
Zn58 O92 1.945 . S
Zn58 O99 1.981 . S
Zn59 O60 1.933 . S
Zn59 O74 1.985 . S
Zn59 O81 1.955 . S
O60 Zn58 1.911 . S
O60 Zn59 1.933 . S
O60 H61 0.841 . S
H61 O60 0.841 . S
Zn62 O63 1.933 . S
Zn62 O76 1.985 . S
Zn62 O85 1.955 . S
O63 Zn62 1.933 . S
O63 Zn64 1.911 . S
O63 H65 0.841 . S
Zn64 O63 1.911 . S
Zn64 O77 1.970 . S
Zn64 O93 1.981 . S
Zn64 O95 1.945 . S
H65 O63 0.841 . S
Zn66 O67 1.933 . S
Zn66 O79 1.985 . S
Zn66 O87 1.955 . S
O67 Zn66 1.933 . S
O67 H68 0.841 . S
O67 Zn69 1.911 . S
H68 O67 0.841 . S
Zn69 O67 1.911 . S
Zn69 O80 1.970 . S
Zn69 O90 1.981 . S
Zn69 O98 1.945 . S
C70 O71 1.246 . S
C70 O87 1.276 . S
O71 C70 1.246 . S
O72 Zn52 1.985 . S
O72 C82 1.245 . S
O73 Zn53 1.970 . S
O73 C82 1.263 . S
O74 Zn59 1.985 . S
O74 C86 1.245 . S
O75 Zn58 1.970 . S
O75 C86 1.263 . S
O76 Zn62 1.985 . S
O76 C91 1.245 . S
O77 Zn64 1.970 . S
O77 C91 1.263 . S
C78 O89 1.262 . S
C78 O90 1.245 . S
O79 Zn66 1.985 . S
O79 C97 1.245 . S
O80 Zn69 1.970 . S
O80 C97 1.263 . S
O81 Zn59 1.955 . S
O81 C100 1.276 . S
C82 O72 1.245 . S
C82 O73 1.263 . S
O83 Zn52 1.955 . S
O83 C102 1.276 . S
C84 O92 1.262 . S
C84 O93 1.245 . S
O85 C56 1.276 . S
O85 Zn62 1.955 . S
C86 O74 1.245 . S
C86 O75 1.263 . S
O87 Zn66 1.955 . S
O87 C70 1.276 . S
C88 O95 1.262 . S
C88 O96 1.245 . S
O89 Zn53 1.945 . S
O89 C78 1.262 . S
O90 Zn69 1.981 . S
O90 C78 1.245 . S
C91 O76 1.245 . S
C91 O77 1.263 . S
O92 Zn58 1.945 . S
O92 C84 1.262 . S
O93 Zn64 1.981 . S
O93 C84 1.245 . S
C94 O98 1.262 . S
C94 O99 1.245 . S
O95 Zn64 1.945 . S
O95 C88 1.262 . S
O96 Zn53 1.981 . S
O96 C88 1.245 . S
C97 O79 1.245 . S
C97 O80 1.263 . S
O98 Zn69 1.945 . S
O98 C94 1.262 . S
O99 Zn58 1.981 . S
O99 C94 1.245 . S
C100 O81 1.276 . S
C100 O101 1.246 . S
O101 C100 1.246 . S
C102 O83 1.276 . S
C102 O103 1.246 . S
O103 C102 1.246 . S
H104 C116 0.930 . S
H105 C118 0.930 . S
H106 C119 0.930 . S
H107 C123 0.973 . S
H108 C123 0.968 . S
H109 C123 0.945 1_556 S
H110 C124 0.960 . S
H111 C124 0.961 . S
H112 C124 0.959 . S
H113 C127 0.929 . S
H114 C128 0.931 . S
H115 C130 0.930 . S
C116 H104 0.930 . S
C116 C117 1.399 . S
C116 C121 1.399 . S
C117 C116 1.399 . S
C117 C118 1.376 . S
C118 H105 0.930 . S
C118 C117 1.376 . S
C118 C119 1.388 . S
C119 H106 0.930 . S
C119 C118 1.388 . S
C119 C120 1.390 . S
C120 C119 1.390 . S
C120 C121 1.394 . S
C120 C126 1.465 1_556 S
C121 C116 1.399 . S
C121 C120 1.394 . S
C121 C122 1.516 1_565 S
C122 C121 1.516 1_545 S
C122 C123 1.497 1_556 S
C122 C124 1.561 . S
C122 C125 1.526 1_556 S
C123 H107 0.973 . S
C123 H108 0.968 . S
C123 H109 0.945 1_554 S
C123 C122 1.497 1_554 S
C124 H110 0.960 . S
C124 H111 0.961 . S
C124 H112 0.959 . S
C124 C122 1.561 . S
C125 C122 1.526 1_554 S
C125 C126 1.396 1_545 S
C125 C130 1.390 . S
C126 C120 1.465 1_554 S
C126 C125 1.396 1_565 S
C126 C127 1.399 . S
C127 H113 0.929 . S
C127 C126 1.399 . S
C127 C128 1.385 1_565 S
C128 H114 0.931 . S
C128 C127 1.385 1_545 S
C128 C129 1.389 . S
C129 C128 1.389 . S
C129 C130 1.387 . S
C130 H115 0.930 . S
C130 C125 1.390 . S
C130 C129 1.387 . S
H131 C143 0.930 . S
H132 C145 0.930 . S
H133 C146 0.930 . S
H134 C150 0.959 . S
H135 C150 0.959 . S
H136 C150 0.961 . S
H137 C151 0.960 . S
H138 C151 0.961 . S
H139 C151 0.959 . S
H140 C154 0.929 . S
H141 C155 0.931 . S
H142 C157 0.930 . S
C143 H131 0.930 . S
C143 C144 1.399 . S
C143 C148 1.399 . S
C144 C143 1.399 . S
C144 C145 1.376 . S
C145 H132 0.930 . S
C145 C144 1.376 . S
C145 C146 1.388 . S
C146 H133 0.930 . S
C146 C145 1.388 . S
C146 C147 1.390 . S
C147 C146 1.390 . S
C147 C148 1.394 . S
C147 C153 1.465 . S
C148 C143 1.399 . S
C148 C147 1.394 . S
C148 C149 1.516 . S
C149 C148 1.516 . S
C149 C150 1.502 . S
C149 C151 1.561 . S
C149 C152 1.526 . S
C150 H134 0.959 . S
C150 H135 0.959 . S
C150 H136 0.961 . S
C150 C149 1.502 . S
C151 H137 0.960 . S
C151 H138 0.961 . S
C151 H139 0.959 . S
C151 C149 1.561 . S
C152 C149 1.526 . S
C152 C153 1.396 . S
C152 C157 1.390 . S
C153 C147 1.465 . S
C153 C152 1.396 . S
C153 C154 1.399 . S
C154 H140 0.929 . S
C154 C153 1.399 . S
C154 C155 1.385 . S
C155 H141 0.931 . S
C155 C154 1.385 . S
C155 C156 1.389 . S
C156 C155 1.389 . S
C156 C157 1.387 . S
C157 H142 0.930 . S
C157 C152 1.390 . S
C157 C156 1.387 . S
H158 C170 0.930 . S
H159 C172 0.930 . S
H160 C173 0.930 1_455 S
H161 C177 0.959 . S
H162 C177 0.959 . S
H163 C177 0.971 . S
H164 C178 0.960 . S
H165 C178 0.961 1_556 S
H166 C178 0.959 . S
H167 C181 0.929 . S
H168 C182 0.931 . S
H169 C184 0.930 . S
C170 H158 0.930 . S
C170 C171 1.399 . S
C170 C175 1.399 . S
C171 C170 1.399 . S
C171 C172 1.376 . S
C172 H159 0.930 . S
C172 C171 1.376 . S
C172 C173 1.388 . S
C173 H160 0.930 1_655 S
C173 C172 1.388 . S
C173 C174 1.390 . S
C174 C173 1.390 . S
C174 C175 1.394 . S
C174 C180 1.465 1_654 S
C175 C170 1.399 . S
C175 C174 1.394 . S
C175 C176 1.516 1_554 S
C176 C175 1.516 1_556 S
C176 C177 1.502 . S
C176 C178 1.561 1_656 S
C176 C179 1.526 1_655 S
C177 H161 0.959 . S
C177 H162 0.959 . S
C177 H163 0.971 . S
C177 C176 1.502 . S
C178 H164 0.960 . S
C178 H165 0.961 1_554 S
C178 H166 0.959 . S
C178 C176 1.561 1_454 S
C179 C176 1.526 1_455 S
C179 C180 1.396 . S
C179 C184 1.390 . S
C180 C174 1.465 1_456 S
C180 C179 1.396 . S
C180 C181 1.399 . S
C181 H167 0.929 . S
C181 C180 1.399 . S
C181 C182 1.385 . S
C182 H168 0.931 . S
C182 C181 1.385 . S
C182 C183 1.389 . S
C183 C182 1.389 . S
C183 C184 1.387 . S
C184 H169 0.930 . S
C184 C179 1.390 . S
C184 C183 1.387 . S
H185 C197 0.930 . S
H186 C199 0.930 . S
H187 C200 0.930 . S
H188 C204 0.959 . S
H189 C204 0.959 . S
H190 C204 0.961 . S
H191 C205 0.960 . S
H192 C205 0.961 . S
H193 C205 0.959 . S
H194 C208 0.929 . S
H195 C209 0.931 . S
H196 C211 0.930 . S
C197 H185 0.930 . S
C197 C198 1.399 . S
C197 C202 1.399 . S
C198 C197 1.399 . S
C198 C199 1.376 . S
C199 H186 0.930 . S
C199 C198 1.376 . S
C199 C200 1.388 . S
C200 H187 0.930 . S
C200 C199 1.388 . S
C200 C201 1.390 . S
C201 C200 1.390 . S
C201 C202 1.394 . S
C201 C207 1.465 . S
C202 C197 1.399 . S
C202 C201 1.394 . S
C202 C203 1.516 1_565 S
C203 C202 1.516 1_545 S
C203 C204 1.502 . S
C203 C205 1.561 . S
C203 C206 1.526 . S
C204 H188 0.959 . S
C204 H189 0.959 . S
C204 H190 0.961 . S
C204 C203 1.502 . S
C205 H191 0.960 . S
C205 H192 0.961 . S
C205 H193 0.959 . S
C205 C203 1.561 . S
C206 C203 1.526 . S
C206 C207 1.396 1_545 S
C206 C211 1.390 . S
C207 C201 1.465 . S
C207 C206 1.396 1_565 S
C207 C208 1.399 . S
C208 H194 0.929 . S
C208 C207 1.399 . S
C208 C209 1.385 1_565 S
C209 H195 0.931 . S
C209 C208 1.385 1_545 S
C209 C210 1.389 . S
C210 C209 1.389 . S
C210 C211 1.387 . S
C211 H196 0.930 . S
C211 C206 1.390 . S
C211 C210 1.387 . S
H212 C224 0.930 . S
H213 C226 0.930 . S
H214 C227 0.930 . S
H215 C231 0.959 1_556 S
H216 C231 0.959 1_556 S
H217 C231 0.961 . S
H218 C232 0.960 . S
H219 C232 0.961 . S
H220 C232 0.959 . S
H221 C235 0.929 . S
H222 C236 0.931 . S
H223 C238 0.930 . S
C224 H212 0.930 . S
C224 C225 1.399 . S
C224 C229 1.399 . S
C225 C224 1.399 . S
C225 C226 1.376 . S
C226 H213 0.930 . S
C226 C225 1.376 . S
C226 C227 1.388 . S
C227 H214 0.930 . S
C227 C226 1.388 . S
C227 C228 1.390 . S
C228 C227 1.390 . S
C228 C229 1.394 . S
C228 C234 1.465 1_554 S
C229 C224 1.399 . S
C229 C228 1.394 . S
C229 C230 1.516 . S
C230 C229 1.516 . S
C230 C231 1.502 . S
C230 C232 1.561 . S
C230 C233 1.526 1_554 S
C231 H215 0.959 1_554 S
C231 H216 0.959 1_554 S
C231 H217 0.961 . S
C231 C230 1.502 . S
C232 H218 0.960 . S
C232 H219 0.961 . S
C232 H220 0.959 . S
C232 C230 1.561 . S
C233 C230 1.526 1_556 S
C233 C234 1.396 . S
C233 C238 1.390 . S
C234 C228 1.465 1_556 S
C234 C233 1.396 . S
C234 C235 1.399 . S
C235 H221 0.929 . S
C235 C234 1.399 . S
C235 C236 1.385 . S
C236 H222 0.931 . S
C236 C235 1.385 . S
C236 C237 1.389 . S
C237 C236 1.389 . S
C237 C238 1.387 . S
C238 H223 0.930 . S
C238 C233 1.390 . S
C238 C237 1.387 . S
H239 C251 0.930 . S
H240 C253 0.930 . S
H241 C254 0.930 . S
H242 C258 0.959 . S
H243 C258 0.959 . S
H244 C258 0.961 . S
H245 C259 0.960 . S
H246 C259 0.961 . S
H247 C259 0.959 . S
H248 C262 0.929 . S
H249 C263 0.931 . S
H250 C265 0.930 . S
C251 H239 0.930 . S
C251 C252 1.399 . S
C251 C256 1.399 . S
C252 C251 1.399 . S
C252 C253 1.376 . S
C253 H240 0.930 . S
C253 C252 1.376 . S
C253 C254 1.388 . S
C254 H241 0.930 . S
C254 C253 1.388 . S
C254 C255 1.390 . S
C255 C254 1.390 . S
C255 C256 1.394 . S
C255 C261 1.465 . S
C256 C251 1.399 . S
C256 C255 1.394 . S
C256 C257 1.516 1_655 S
C257 C256 1.516 1_455 S
C257 C258 1.502 . S
C257 C259 1.561 . S
C257 C260 1.526 . S
C258 H242 0.959 . S
C258 H243 0.959 . S
C258 H244 0.961 . S
C258 C257 1.502 . S
C259 H245 0.960 . S
C259 H246 0.961 . S
C259 H247 0.959 . S
C259 C257 1.561 . S
C260 C257 1.526 . S
C260 C261 1.396 1_455 S
C260 C265 1.390 . S
C261 C255 1.465 . S
C261 C260 1.396 1_655 S
C261 C262 1.399 . S
C262 H248 0.929 . S
C262 C261 1.399 . S
C262 C263 1.385 1_655 S
C263 H249 0.931 . S
C263 C262 1.385 1_455 S
C263 C264 1.389 . S
C264 C263 1.389 . S
C264 C265 1.387 . S
C265 H250 0.930 . S
C265 C260 1.390 . S
C265 C264 1.387 . S
H266 C278 0.931 . S
H267 C280 0.930 . S
H268 C281 0.930 . S
H269 C285 0.959 . S
H270 C285 0.959 . S
H271 C285 0.961 . S
H272 C286 0.960 . S
H273 C286 0.961 . S
H274 C286 0.959 . S
H275 C289 0.929 . S
H276 C290 0.931 . S
H277 C292 0.930 . S
C278 H266 0.931 . S
C278 C279 1.399 1_565 S
C278 C283 1.399 . S
C279 C278 1.399 1_545 S
C279 C280 1.376 1_545 S
C280 H267 0.930 . S
C280 C279 1.376 1_565 S
C280 C281 1.388 . S
C281 H268 0.930 . S
C281 C280 1.388 . S
C281 C282 1.390 . S
C282 C281 1.390 . S
C282 C283 1.394 . S
C282 C288 1.465 . S
C283 C278 1.399 . S
C283 C282 1.394 . S
C283 C284 1.516 . S
C284 C283 1.516 . S
C284 C285 1.502 . S
C284 C286 1.561 . S
C284 C287 1.526 . S
C285 H269 0.959 . S
C285 H270 0.959 . S
C285 H271 0.961 . S
C285 C284 1.502 . S
C286 H272 0.960 . S
C286 H273 0.961 . S
C286 H274 0.959 . S
C286 C284 1.561 . S
C287 C284 1.526 . S
C287 C288 1.396 . S
C287 C292 1.390 . S
C288 C282 1.465 . S
C288 C287 1.396 . S
C288 C289 1.399 . S
C289 H275 0.929 . S
C289 C288 1.399 . S
C289 C290 1.385 . S
C290 H276 0.931 . S
C290 C289 1.385 . S
C290 C291 1.389 . S
C291 C290 1.389 . S
C291 C292 1.387 . S
C292 H277 0.930 . S
C292 C287 1.390 . S
C292 C291 1.387 . S
H293 C305 0.930 . S
H294 C307 0.930 . S
H295 C308 0.930 . S
H296 C312 0.959 . S
H297 C312 0.959 . S
H298 C312 0.961 . S
H299 C313 0.960 . S
H300 C313 0.961 . S
H301 C313 0.959 . S
H302 C316 0.929 . S
H303 C317 0.931 . S
H304 C319 0.930 . S
C305 H293 0.930 . S
C305 C306 1.399 1_655 S
C305 C310 1.399 . S
C306 C305 1.399 1_455 S
C306 C307 1.376 . S
C307 H294 0.930 . S
C307 C306 1.376 . S
C307 C308 1.388 1_455 S
C308 H295 0.930 . S
C308 C307 1.388 1_655 S
C308 C309 1.390 . S
C309 C308 1.390 . S
C309 C310 1.394 . S
C309 C315 1.465 . S
C310 C305 1.399 . S
C310 C309 1.394 . S
C310 C311 1.516 . S
C311 C310 1.516 . S
C311 C312 1.502 . S
C311 C313 1.561 . S
C311 C314 1.526 . S
C312 H296 0.959 . S
C312 H297 0.959 . S
C312 H298 0.961 . S
C312 C311 1.502 . S
C313 H299 0.960 . S
C313 H300 0.961 . S
C313 H301 0.959 . S
C313 C311 1.561 . S
C314 C311 1.526 . S
C314 C315 1.396 . S
C314 C319 1.390 . S
C315 C309 1.465 . S
C315 C314 1.396 . S
C315 C316 1.399 . S
C316 H302 0.929 . S
C316 C315 1.399 . S
C316 C317 1.385 . S
C317 H303 0.931 . S
C317 C316 1.385 . S
C317 C318 1.389 . S
C318 C317 1.389 . S
C318 C319 1.387 . S
C319 H304 0.930 . S
C319 C314 1.390 . S
C319 C318 1.387 . S
H320 C332 0.930 . S
H321 C334 0.930 . S
H322 C335 0.930 . S
H323 C339 0.959 . S
H324 C339 0.959 . S
H325 C339 0.961 . S
H326 C340 0.960 . S
H327 C340 0.961 . S
H328 C340 0.959 . S
H329 C343 0.929 . S
H330 C344 0.931 . S
H331 C346 0.930 . S
C332 H320 0.930 . S
C332 C333 1.399 1_565 S
C332 C337 1.399 . S
C333 C332 1.399 1_545 S
C333 C334 1.376 . S
C334 H321 0.930 . S
C334 C333 1.376 . S
C334 C335 1.388 1_545 S
C335 H322 0.930 . S
C335 C334 1.388 1_565 S
C335 C336 1.390 . S
C336 C335 1.390 . S
C336 C337 1.394 . S
C336 C342 1.465 . S
C337 C332 1.399 . S
C337 C336 1.394 . S
C337 C338 1.516 . S
C338 C337 1.516 . S
C338 C339 1.502 . S
C338 C340 1.561 . S
C338 C341 1.526 . S
C339 H323 0.959 . S
C339 H324 0.959 . S
C339 H325 0.961 . S
C339 C338 1.502 . S
C340 H326 0.960 . S
C340 H327 0.961 . S
C340 H328 0.959 . S
C340 C338 1.561 . S
C341 C338 1.526 . S
C341 C342 1.396 . S
C341 C346 1.390 . S
C342 C336 1.465 . S
C342 C341 1.396 . S
C342 C343 1.399 . S
C343 H329 0.929 . S
C343 C342 1.399 . S
C343 C344 1.385 1_455 S
C344 H330 0.931 . S
C344 C343 1.385 1_655 S
C344 C345 1.389 . S
C345 C344 1.389 . S
C345 C346 1.387 1_655 S
C346 H331 0.930 . S
C346 C341 1.390 . S
C346 C345 1.387 1_455 S
H347 C359 0.930 . S
H348 C361 0.930 . S
H349 C362 0.930 . S
H350 C366 0.959 . S
H351 C366 0.959 . S
H352 C366 0.961 . S
H353 C367 0.960 . S
H354 C367 0.961 . S
H355 C367 0.959 . S
H356 C370 0.929 . S
H357 C371 0.931 . S
H358 C373 0.930 1_565 S
C359 H347 0.930 . S
C359 C360 1.399 . S
C359 C364 1.399 . S
C360 C359 1.399 . S
C360 C361 1.376 . S
C361 H348 0.930 . S
C361 C360 1.376 . S
C361 C362 1.388 . S
C362 H349 0.930 . S
C362 C361 1.388 . S
C362 C363 1.390 . S
C363 C362 1.390 . S
C363 C364 1.394 . S
C363 C369 1.465 . S
C364 C359 1.399 . S
C364 C363 1.394 . S
C364 C365 1.516 . S
C365 C364 1.516 . S
C365 C366 1.502 . S
C365 C367 1.561 . S
C365 C368 1.526 . S
C366 H350 0.959 . S
C366 H351 0.959 . S
C366 H352 0.961 . S
C366 C365 1.502 . S
C367 H353 0.960 . S
C367 H354 0.961 . S
C367 H355 0.959 . S
C367 C365 1.561 . S
C368 C365 1.526 . S
C368 C369 1.396 . S
C368 C373 1.390 . S
C369 C363 1.465 . S
C369 C368 1.396 . S
C369 C370 1.399 . S
C370 H356 0.929 . S
C370 C369 1.399 . S
C370 C371 1.385 . S
C371 H357 0.931 . S
C371 C370 1.385 . S
C371 C372 1.389 . S
C372 C371 1.389 . S
C372 C373 1.387 . S
C373 H358 0.930 1_545 S
C373 C368 1.390 . S
C373 C372 1.387 . S
H374 C386 0.930 . S
H375 C388 0.930 . S
H376 C389 0.930 . S
H377 C393 0.959 . S
H378 C393 0.959 . S
H379 C393 0.961 . S
H380 C394 0.960 . S
H381 C394 0.961 . S
H382 C394 0.959 . S
H383 C397 0.929 . S
H384 C398 0.931 1_655 S
H385 C400 0.931 . S
C386 H374 0.930 . S
C386 C387 1.399 . S
C386 C391 1.399 . S
C387 C386 1.399 . S
C387 C388 1.376 . S
C388 H375 0.930 . S
C388 C387 1.376 . S
C388 C389 1.388 . S
C389 H376 0.930 . S
C389 C388 1.388 . S
C389 C390 1.390 . S
C390 C389 1.390 . S
C390 C391 1.394 . S
C390 C396 1.465 . S
C391 C386 1.399 . S
C391 C390 1.394 . S
C391 C392 1.516 . S
C392 C391 1.516 . S
C392 C393 1.502 . S
C392 C394 1.561 . S
C392 C395 1.526 . S
C393 H377 0.959 . S
C393 H378 0.959 . S
C393 H379 0.961 . S
C393 C392 1.502 . S
C394 H380 0.960 . S
C394 H381 0.961 . S
C394 H382 0.959 . S
C394 C392 1.561 . S
C395 C392 1.526 . S
C395 C396 1.396 . S
C395 C400 1.386 1_455 S
C396 C390 1.465 . S
C396 C395 1.396 . S
C396 C397 1.399 . S
C397 H383 0.929 . S
C397 C396 1.399 . S
C397 C398 1.385 . S
C398 H384 0.931 1_455 S
C398 C397 1.385 . S
C398 C399 1.389 1_455 S
C399 C398 1.389 1_655 S
C399 C400 1.389 . S
C400 H385 0.931 . S
C400 C395 1.386 1_655 S
C400 C399 1.389 . S
H401 C413 0.930 . S
H402 C415 0.930 . S
H403 C416 0.930 . S
H404 C420 0.959 . S
H405 C420 0.959 . S
H406 C420 0.961 . S
H407 C421 0.960 . S
H408 C421 0.961 . S
H409 C421 0.959 . S
H410 C424 0.929 . S
H411 C425 0.931 . S
H412 C427 0.930 . S
C413 H401 0.930 . S
C413 C414 1.399 1_655 S
C413 C418 1.399 . S
C414 C413 1.399 1_455 S
C414 C415 1.376 . S
C415 H402 0.930 . S
C415 C414 1.376 . S
C415 C416 1.388 1_455 S
C416 H403 0.930 . S
C416 C415 1.388 1_655 S
C416 C417 1.390 . S
C417 C416 1.390 . S
C417 C418 1.394 . S
C417 C423 1.465 . S
C418 C413 1.399 . S
C418 C417 1.394 . S
C418 C419 1.516 . S
C419 C418 1.516 . S
C419 C420 1.502 . S
C419 C421 1.561 . S
C419 C422 1.526 . S
C420 H404 0.959 . S
C420 H405 0.959 . S
C420 H406 0.961 . S
C420 C419 1.502 . S
C421 H407 0.960 . S
C421 H408 0.961 . S
C421 H409 0.959 . S
C421 C419 1.561 . S
C422 C419 1.526 . S
C422 C423 1.396 . S
C422 C427 1.390 . S
C423 C417 1.465 . S
C423 C422 1.396 . S
C423 C424 1.399 . S
C424 H410 0.929 . S
C424 C423 1.399 . S
C424 C425 1.385 1_545 S
C425 H411 0.931 . S
C425 C424 1.385 1_565 S
C425 C426 1.389 . S
C426 C425 1.389 . S
C426 C427 1.387 1_565 S
C427 H412 0.930 . S
C427 C422 1.390 . S
C427 C426 1.387 1_545 S
C117 C97 0.548 . S
C129 C39 0.748 . S
C144 C88 2.456 . S
C156 C18 2.396 . S
C171 C36 1.796 . S
C183 C70 1.783 . S
C198 C84 2.811 . S
C210 C50 2.796 . S
C225 C32 1.811 . S
C237 C102 1.728 . S
C252 C45 1.846 . S
C264 C91 1.873 . S
C279 C4 1.300 . S
C291 C42 1.389 . S
C306 C86 0.832 . S
C318 C82 0.732 . S
C333 C48 1.353 . S
C345 C26 1.421 . S
C360 C56 1.338 . S
C372 C94 1.333 1_545 S
C387 C34 0.817 . S
C399 C30 0.749 . S
C414 C100 1.384 . S
C426 C78 1.390 . S
