# Generated by pormake.
# Topology zfe, (5)-cn, num edge types: 1
# Building blocks:
#     Node 0, Type 0, BuildingBlock: XOMCOT_clean_sbu_1, # of connection points: 5
#     Node 1, Type 0, BuildingBlock: XOMCOT_clean_sbu_1, # of connection points: 5
#     Node 2, Type 0, BuildingBlock: XOMCOT_clean_sbu_1, # of connection points: 5
#     Node 3, Type 0, BuildingBlock: XOMCOT_clean_sbu_1, # of connection points: 5
#     Node 4, Type 0, BuildingBlock: XOMCOT_clean_sbu_1, # of connection points: 5
#     Node 5, Type 0, BuildingBlock: XOMCOT_clean_sbu_1, # of connection points: 5
#     Node 6, Type 0, BuildingBlock: XOMCOT_clean_sbu_1, # of connection points: 5
#     Node 7, Type 0, BuildingBlock: XOMCOT_clean_sbu_1, # of connection points: 5
#     Node 8, Type 0, BuildingBlock: XOMCOT_clean_sbu_1, # of connection points: 5
#     Node 9, Type 0, BuildingBlock: XOMCOT_clean_sbu_1, # of connection points: 5
#     Node 10, Type 0, BuildingBlock: XOMCOT_clean_sbu_1, # of connection points: 5
#     Node 11, Type 0, BuildingBlock: XOMCOT_clean_sbu_1, # of connection points: 5
#     Node 12, Type 0, BuildingBlock: XOMCOT_clean_sbu_1, # of connection points: 5
#     Node 13, Type 0, BuildingBlock: XOMCOT_clean_sbu_1, # of connection points: 5
#     Node 14, Type 0, BuildingBlock: XOMCOT_clean_sbu_1, # of connection points: 5
#     Node 15, Type 0, BuildingBlock: XOMCOT_clean_sbu_1, # of connection points: 5
#     Edge 16, Type (0, 0), BuildingBlock: MIFKUJ_clean_linker_0, # of connection points: 2
#     Edge 17, Type (0, 0), BuildingBlock: MIFKUJ_clean_linker_0, # of connection points: 2
#     Edge 18, Type (0, 0), BuildingBlock: MIFKUJ_clean_linker_0, # of connection points: 2
#     Edge 19, Type (0, 0), BuildingBlock: MIFKUJ_clean_linker_0, # of connection points: 2
#     Edge 20, Type (0, 0), BuildingBlock: MIFKUJ_clean_linker_0, # of connection points: 2
#     Edge 21, Type (0, 0), BuildingBlock: MIFKUJ_clean_linker_0, # of connection points: 2
#     Edge 22, Type (0, 0), BuildingBlock: MIFKUJ_clean_linker_0, # of connection points: 2
#     Edge 23, Type (0, 0), BuildingBlock: MIFKUJ_clean_linker_0, # of connection points: 2
#     Edge 24, Type (0, 0), BuildingBlock: MIFKUJ_clean_linker_0, # of connection points: 2
#     Edge 25, Type (0, 0), BuildingBlock: MIFKUJ_clean_linker_0, # of connection points: 2
#     Edge 26, Type (0, 0), BuildingBlock: MIFKUJ_clean_linker_0, # of connection points: 2
#     Edge 27, Type (0, 0), BuildingBlock: MIFKUJ_clean_linker_0, # of connection points: 2
#     Edge 28, Type (0, 0), BuildingBlock: MIFKUJ_clean_linker_0, # of connection points: 2
#     Edge 29, Type (0, 0), BuildingBlock: MIFKUJ_clean_linker_0, # of connection points: 2
#     Edge 30, Type (0, 0), BuildingBlock: MIFKUJ_clean_linker_0, # of connection points: 2
#     Edge 31, Type (0, 0), BuildingBlock: MIFKUJ_clean_linker_0, # of connection points: 2
#     Edge 32, Type (0, 0), BuildingBlock: MIFKUJ_clean_linker_0, # of connection points: 2
#     Edge 33, Type (0, 0), BuildingBlock: MIFKUJ_clean_linker_0, # of connection points: 2
#     Edge 34, Type (0, 0), BuildingBlock: MIFKUJ_clean_linker_0, # of connection points: 2
#     Edge 35, Type (0, 0), BuildingBlock: MIFKUJ_clean_linker_0, # of connection points: 2
#     Edge 36, Type (0, 0), BuildingBlock: MIFKUJ_clean_linker_0, # of connection points: 2
#     Edge 37, Type (0, 0), BuildingBlock: MIFKUJ_clean_linker_0, # of connection points: 2
#     Edge 38, Type (0, 0), BuildingBlock: MIFKUJ_clean_linker_0, # of connection points: 2
#     Edge 39, Type (0, 0), BuildingBlock: MIFKUJ_clean_linker_0, # of connection points: 2
#     Edge 40, Type (0, 0), BuildingBlock: MIFKUJ_clean_linker_0, # of connection points: 2
#     Edge 41, Type (0, 0), BuildingBlock: MIFKUJ_clean_linker_0, # of connection points: 2
#     Edge 42, Type (0, 0), BuildingBlock: MIFKUJ_clean_linker_0, # of connection points: 2
#     Edge 43, Type (0, 0), BuildingBlock: MIFKUJ_clean_linker_0, # of connection points: 2
#     Edge 44, Type (0, 0), BuildingBlock: MIFKUJ_clean_linker_0, # of connection points: 2
#     Edge 45, Type (0, 0), BuildingBlock: MIFKUJ_clean_linker_0, # of connection points: 2
#     Edge 46, Type (0, 0), BuildingBlock: MIFKUJ_clean_linker_0, # of connection points: 2
#     Edge 47, Type (0, 0), BuildingBlock: MIFKUJ_clean_linker_0, # of connection points: 2
#     Edge 48, Type (0, 0), BuildingBlock: MIFKUJ_clean_linker_0, # of connection points: 2
#     Edge 49, Type (0, 0), BuildingBlock: MIFKUJ_clean_linker_0, # of connection points: 2
#     Edge 50, Type (0, 0), BuildingBlock: MIFKUJ_clean_linker_0, # of connection points: 2
#     Edge 51, Type (0, 0), BuildingBlock: MIFKUJ_clean_linker_0, # of connection points: 2
#     Edge 52, Type (0, 0), BuildingBlock: MIFKUJ_clean_linker_0, # of connection points: 2
#     Edge 53, Type (0, 0), BuildingBlock: MIFKUJ_clean_linker_0, # of connection points: 2
#     Edge 54, Type (0, 0), BuildingBlock: MIFKUJ_clean_linker_0, # of connection points: 2
#     Edge 55, Type (0, 0), BuildingBlock: MIFKUJ_clean_linker_0, # of connection points: 2
# Relax obj value: 0.187
# Max RMSD: 0.156
# Mean RMSD: 0.156
data_MOF--net-zfe--node1-XOMCOT_clean_sbu_1--edge1-MIFKUJ_clean_linker_0
_symmetry_space_group_name_H-M    P1
_symmetry_Int_Tables_number       1
_symmetry_cell_setting            triclinic
loop_
_symmetry_equiv_pos_as_xyz
'x, y, z'
_cell_length_a     68.288569
_cell_length_b     68.259758
_cell_length_c     36.193892
_cell_angle_alpha  90.084958
_cell_angle_beta   89.986408
_cell_angle_gamma 89.998604
loop_
_atom_site_label
_atom_site_type_symbol
_atom_site_fract_x
_atom_site_fract_y
_atom_site_fract_z
_atom_type_partial_charge
C0 C 0.07661 0.23738 0.99698 0.0
C1 C 0.09162 0.2504 0.99112 0.0
N2 N 0.08621 0.26805 1.00439 0.0
N3 N 0.06179 0.24656 0.01448 0.0
C4 C 0.06779 0.26543 0.01742 0.0
H5 H 0.07664 0.22203 0.98956 0.0
Co6 Co 0.0386 0.2338 0.02922 0.0
C7 C 0.0448 0.25966 0.09997 0.0
O8 O 0.06331 0.26442 0.09595 0.0
N9 N 0.0154 0.22101 0.04438 0.0
C10 C 0.99562 0.20483 0.08248 0.0
C11 C 0.01246 0.21556 0.07987 0.0
C12 C 0.99984 0.21346 0.02586 0.0
N13 N 0.98769 0.20348 0.04865 0.0
O14 O 0.02377 0.25233 0.9998 0.0
H15 H 0.02246 0.21837 0.10242 0.0
H16 H 0.99798 0.21436 0.99623 0.0
O17 O 0.03617 0.2493 0.07536 0.0
C18 C 0.02533 0.24487 0.96738 0.0
O19 O 0.03366 0.22757 0.96436 0.0
N20 N 0.05357 0.21402 0.05235 0.0
C21 C 0.07901 0.18271 0.06558 0.0
C22 C 0.08204 0.20094 0.08268 0.0
C23 C 0.06904 0.21645 0.07585 0.0
C24 C 0.05026 0.19623 0.0363 0.0
C25 C 0.06254 0.18036 0.043 0.0
H26 H 0.07238 0.2306 0.08717 0.0
H27 H 0.03864 0.19459 0.01626 0.0
H28 H 0.05905 0.27689 0.02987 0.0
H29 H 0.10555 0.24701 0.97836 0.0
H30 H 0.98991 0.19799 0.10717 0.0
H31 H 0.09473 0.20338 0.10005 0.0
H32 H 0.05988 0.1667 0.02856 0.0
C33 C 0.76449 0.07559 0.98759 0.0
C34 C 0.75119 0.09037 0.98175 0.0
N35 N 0.73388 0.08495 0.99639 0.0
N36 N 0.75583 0.06099 1.00658 0.0
C37 C 0.73695 0.06681 1.01033 0.0
H38 H 0.77978 0.07579 0.97979 0.0
Co39 Co 0.76931 0.0389 0.02427 0.0
C40 C 0.74231 0.04503 0.09433 0.0
O41 O 0.73656 0.06327 0.09043 0.0
N42 N 0.78282 0.01667 0.04284 0.0
C43 C 0.79774 0.99834 0.08516 0.0
C44 C 0.78847 0.01572 0.0786 0.0
C45 C 0.78915 0.99951 0.02804 0.0
N46 N 0.79818 0.98804 0.05347 0.0
O47 O 0.75167 0.02251 0.99597 0.0
H48 H 0.78619 0.02714 0.09889 0.0
H49 H 0.78715 0.99542 0.99942 0.0
O50 O 0.75346 0.03717 0.07001 0.0
C51 C 0.76005 0.02083 0.96441 0.0
O52 O 0.77767 0.0283 0.96045 0.0
N53 N 0.78813 0.05539 0.04645 0.0
C54 C 0.81848 0.08196 0.05957 0.0
C55 C 0.79978 0.08511 0.07467 0.0
C56 C 0.78475 0.0715 0.06798 0.0
C57 C 0.8063 0.05214 0.03201 0.0
C58 C 0.8217 0.06497 0.03878 0.0
H59 H 0.77023 0.07468 0.07781 0.0
H60 H 0.80865 0.03995 0.01341 0.0
H61 H 0.72586 0.05828 0.02429 0.0
H62 H 0.75417 0.10428 0.96857 0.0
H63 H 0.80413 0.99386 0.11117 0.0
H64 H 0.79668 0.09823 0.09049 0.0
H65 H 0.83576 0.06222 0.02587 0.0
C66 C 0.92639 0.7671 1.00081 0.0
C67 C 0.91102 0.75435 0.99642 0.0
N68 N 0.91642 0.73662 1.00927 0.0
N69 N 0.94148 0.7577 0.01692 0.0
C70 C 0.93522 0.73895 0.02049 0.0
H71 H 0.92649 0.7824 0.99305 0.0
Co72 Co 0.96559 0.76966 0.02882 0.0
C73 C 0.95905 0.74555 0.10135 0.0
O74 O 0.9403 0.74179 0.09777 0.0
N75 N 0.98973 0.78152 0.04091 0.0
C76 C 0.01311 0.79476 0.07576 0.0
C77 C 0.99512 0.78593 0.07591 0.0
C78 C 0.00463 0.78835 0.01975 0.0
N79 N 0.01907 0.79623 0.04057 0.0
O80 O 0.97895 0.74985 0.99966 0.0
H81 H 0.98624 0.78354 0.10021 0.0
H82 H 0.00474 0.78793 0.98986 0.0
O83 O 0.96816 0.75496 0.07601 0.0
C84 C 0.97678 0.75649 0.96676 0.0
O85 O 0.96826 0.77363 0.96275 0.0
N86 N 0.95219 0.7907 0.05142 0.0
C87 C 0.92706 0.82283 0.05921 0.0
C88 C 0.92426 0.80577 0.08034 0.0
C89 C 0.93705 0.7898 0.07604 0.0
C90 C 0.95581 0.80764 0.03271 0.0
C91 C 0.94371 0.8239 0.03666 0.0
H92 H 0.9336 0.77635 0.0899 0.0
H93 H 0.96731 0.80814 0.01223 0.0
H94 H 0.94412 0.72737 0.03204 0.0
H95 H 0.89691 0.75795 0.98465 0.0
H96 H 0.02091 0.80045 0.09952 0.0
H97 H 0.91155 0.80421 0.09798 0.0
H98 H 0.94681 0.83686 0.02045 0.0
C99 C 0.2392 0.92738 1.00696 0.0
C100 C 0.25234 0.91237 1.00223 0.0
N101 N 0.26953 0.91765 0.01756 0.0
N102 N 0.24783 0.9421 0.02574 0.0
C103 C 0.26655 0.93601 0.03071 0.0
H104 H 0.22414 0.92742 0.99776 0.0
Co105 Co 0.23463 0.96518 0.03964 0.0
C106 C 0.25783 0.95792 0.11294 0.0
O107 O 0.26178 0.9392 0.10907 0.0
N108 N 0.22132 0.98818 0.05394 0.0
C109 C 0.20386 0.00773 0.0905 0.0
C110 C 0.21484 0.99101 0.08887 0.0
C111 C 0.2141 0.00363 0.03476 0.0
N112 N 0.20339 0.01566 0.0566 0.0
O113 O 0.25422 0.98035 0.01376 0.0
H114 H 0.21711 0.981 0.1116 0.0
H115 H 0.21576 0.00549 1.00523 0.0
O116 O 0.24857 0.96711 0.08756 0.0
C117 C 0.24858 0.97979 0.98 0.0
O118 O 0.23211 0.97077 0.97217 0.0
N119 N 0.21394 0.95017 0.05922 0.0
C120 C 0.18133 0.92578 0.06776 0.0
C121 C 0.19798 0.92343 0.0902 0.0
C122 C 0.21421 0.93584 0.08551 0.0
C123 C 0.19769 0.95289 0.03799 0.0
C124 C 0.18126 0.94105 0.04195 0.0
H125 H 0.22711 0.93317 0.10165 0.0
H126 H 0.19787 0.96376 0.01629 0.0
H127 H 0.27758 0.9446 0.04478 0.0
H128 H 0.24936 0.89851 0.98878 0.0
H129 H 0.19622 0.01335 0.11449 0.0
H130 H 0.19867 0.91181 0.11049 0.0
H131 H 0.16902 0.94319 0.02336 0.0
C132 C 0.07706 0.76409 0.57521 0.0
C133 C 0.09191 0.7509 0.58126 0.0
N134 N 0.08731 0.7339 0.56433 0.0
N135 N 0.06318 0.75567 0.55404 0.0
C136 C 0.06953 0.73706 0.54886 0.0
H137 H 0.07659 0.77907 0.58493 0.0
Co138 Co 0.04073 0.7688 0.5372 0.0
C139 C 0.04886 0.74464 0.46448 0.0
O140 O 0.06737 0.73988 0.46843 0.0
N141 N 0.01815 0.78188 0.51957 0.0
C142 C 0.99936 0.79682 0.47811 0.0
C143 C 0.01723 0.78855 0.48445 0.0
C144 C 1.00044 0.78656 0.53421 0.0
N145 N 0.98868 0.79552 0.50919 0.0
O146 O 0.02493 0.74951 0.56233 0.0
H147 H 0.02895 0.78755 0.46444 0.0
H148 H 0.99612 0.78326 0.56228 0.0
O149 O 0.04008 0.75443 0.48971 0.0
C150 C 0.02326 0.7561 0.59535 0.0
O151 O 0.03036 0.77355 0.60277 0.0
N152 N 0.05659 0.78905 0.51805 0.0
C153 C 0.08194 0.82085 0.50884 0.0
C154 C 0.08572 0.80287 0.4913 0.0
C155 C 0.07278 0.7871 0.49619 0.0
C156 C 0.05267 0.80652 0.53484 0.0
C157 C 0.06493 0.82263 0.53018 0.0
H158 H 0.07655 0.77314 0.48448 0.0
H159 H 0.04038 0.80771 0.55358 0.0
H160 H 0.06152 0.7262 0.53319 0.0
H161 H 0.10521 0.75374 0.59662 0.0
H162 H 0.9947 0.80371 0.45272 0.0
H163 H 0.09882 0.80085 0.47487 0.0
H164 H 0.06167 0.83605 0.54498 0.0
C165 C 0.24013 0.07729 0.58554 0.0
C166 C 0.25378 0.09154 0.59295 0.0
N167 N 0.27096 0.08619 0.57762 0.0
N168 N 0.24841 0.06303 0.56504 0.0
C169 C 0.26736 0.06862 0.56142 0.0
H170 H 0.22494 0.07748 0.59403 0.0
Co171 Co 0.23448 0.04085 0.54883 0.0
C172 C 0.25946 0.04728 0.47688 0.0
O173 O 0.26535 0.06542 0.48164 0.0
N174 N 0.2204 0.01856 0.5323 0.0
C175 C 0.20257 1.00043 0.49373 0.0
C176 C 0.21373 0.01697 0.49722 0.0
C177 C 0.21317 0.00248 0.5496 0.0
N178 N 0.20221 0.99133 0.52657 0.0
O179 O 0.25289 0.0245 0.57516 0.0
H180 H 0.21618 0.02764 0.47565 0.0
H181 H 0.2151 0.9994 0.57867 0.0
O182 O 0.24898 0.03892 0.50158 0.0
C183 C 0.24563 0.02335 0.60773 0.0
O184 O 0.22856 0.03162 0.61398 0.0
N185 N 0.21504 0.0572 0.5284 0.0
C186 C 0.18418 0.08332 0.51648 0.0
C187 C 0.20242 0.08627 0.49943 0.0
C188 C 0.21771 0.07292 0.50563 0.0
C189 C 0.19734 0.05419 0.54493 0.0
C190 C 0.18168 0.06681 0.53886 0.0
H191 H 0.23188 0.076 0.49408 0.0
H192 H 0.19559 0.04234 0.56444 0.0
H193 H 0.27833 0.05995 0.54734 0.0
H194 H 0.25102 0.10512 0.6075 0.0
H195 H 0.19493 0.9956 0.46913 0.0
H196 H 0.20497 0.09901 0.48229 0.0
H197 H 0.16802 0.06425 0.55329 0.0
C198 C 0.92824 0.24072 0.57463 0.0
C199 C 0.91322 0.25367 0.58068 0.0
N200 N 0.91754 0.27069 0.56369 0.0
N201 N 0.94202 0.24929 0.55346 0.0
C202 C 0.93541 0.26781 0.54834 0.0
H203 H 0.92898 0.22582 0.58466 0.0
Co204 Co 0.96469 0.23606 0.53796 0.0
C205 C 0.95691 0.25957 0.46472 0.0
O206 O 0.93849 0.26451 0.46935 0.0
N207 N 0.98739 0.22264 0.52234 0.0
C208 C 0.00629 0.20487 0.48508 0.0
C209 C 0.9895 0.21572 0.48753 0.0
C210 C 0.00335 0.21584 0.54059 0.0
N211 N 0.01498 0.20492 0.51836 0.0
O212 O 0.98025 0.25562 0.5629 0.0
H213 H 0.97899 0.21768 0.4655 0.0
H214 H 0.00592 0.21797 0.56981 0.0
O215 O 0.96591 0.24989 0.48982 0.0
C216 C 0.98116 0.2496 0.59636 0.0
O217 O 0.97327 0.23259 0.60451 0.0
N218 N 0.94914 0.21559 0.51898 0.0
C219 C 0.92305 0.1842 0.51214 0.0
C220 C 0.92037 0.20143 0.49151 0.0
C221 C 0.93359 0.21704 0.49544 0.0
C222 C 0.95234 0.19865 0.53796 0.0
C223 C 0.93971 0.18275 0.53457 0.0
H224 H 0.93044 0.23057 0.48161 0.0
H225 H 0.96426 0.19782 0.55756 0.0
H226 H 0.94338 0.27883 0.53305 0.0
H227 H 0.90006 0.25066 0.59634 0.0
H228 H 0.01151 0.19708 0.46093 0.0
H229 H 0.9076 0.20332 0.47416 0.0
H230 H 0.94267 0.16967 0.5505 0.0
C231 C 0.76421 0.92835 0.57037 0.0
C232 C 0.75055 0.91402 0.57686 0.0
N233 N 0.73382 0.91885 0.5593 0.0
N234 N 0.75638 0.94219 0.54838 0.0
C235 C 0.73761 0.93635 0.54315 0.0
H236 H 0.77911 0.92852 0.58048 0.0
Co237 Co 0.77078 0.96382 0.53152 0.0
C238 C 0.74581 0.9575 0.45881 0.0
O239 O 0.73965 0.93943 0.46317 0.0
N240 N 0.78529 0.98558 0.51413 0.0
C241 C 0.802 0.00346 0.47358 0.0
C242 C 0.79283 0.98597 0.4796 0.0
C243 C 0.79039 0.00317 0.5288 0.0
N244 N 0.80044 0.01436 0.5044 0.0
O245 O 0.75266 0.98081 0.55743 0.0
H246 H 0.79166 0.97419 0.4597 0.0
H247 H 0.78662 0.00786 0.55645 0.0
O248 O 0.75642 0.96557 0.48379 0.0
C249 C 0.76026 0.98233 0.58972 0.0
O250 O 0.77749 0.97433 0.59542 0.0
N251 N 0.78994 0.94675 0.51222 0.0
C252 C 0.81971 0.91877 0.50603 0.0
C253 C 0.80198 0.91653 0.48664 0.0
C254 C 0.78717 0.93072 0.49023 0.0
C255 C 0.80735 0.94947 0.5299 0.0
C256 C 0.82246 0.93593 0.52669 0.0
H257 H 0.77317 0.92803 0.4776 0.0
H258 H 0.8092 0.9618 0.54836 0.0
H259 H 0.72706 0.9446 0.52728 0.0
H260 H 0.75292 0.90095 0.59314 0.0
H261 H 0.8095 0.00774 0.4485 0.0
H262 H 0.79911 0.90343 0.47063 0.0
H263 H 0.83597 0.9386 0.54153 0.0
C264 C 0.58217 0.74014 0.49588 0.0
C265 C 0.59659 0.75401 0.49259 0.0
N266 N 0.58979 0.77109 0.50614 0.0
N267 N 0.56629 0.74818 0.51209 0.0
C268 C 0.57113 0.7673 0.51673 0.0
H269 H 0.58332 0.72497 0.48753 0.0
Co270 Co 0.54354 0.73363 0.5233 0.0
C271 C 0.54718 0.75747 0.59702 0.0
O272 O 0.56537 0.76343 0.59367 0.0
N273 N 0.52094 0.71896 0.53471 0.0
C274 C 0.50169 0.69966 0.56829 0.0
C275 C 0.51815 0.71104 0.56852 0.0
C276 C 0.50571 0.7122 0.51427 0.0
N277 N 0.49388 0.70036 0.5343 0.0
O278 O 0.52804 0.7523 0.49555 0.0
H279 H 0.52798 0.71276 0.59172 0.0
H280 H 0.50382 0.71513 0.48511 0.0
O281 O 0.5393 0.74717 0.57137 0.0
C282 C 0.53079 0.74682 0.46204 0.0
O283 O 0.54148 0.73111 0.45612 0.0
N284 N 0.55908 0.71386 0.54459 0.0
C285 C 0.58399 0.68218 0.55765 0.0
C286 C 0.58547 0.69936 0.57896 0.0
C287 C 0.57274 0.71512 0.57205 0.0
C288 C 0.55751 0.69723 0.52393 0.0
C289 C 0.56958 0.68121 0.53025 0.0
H290 H 0.57459 0.72847 0.58746 0.0
H291 H 0.54726 0.69669 0.50117 0.0
H292 H 0.56144 0.77806 0.5289 0.0
H293 H 0.61111 0.7516 0.48149 0.0
H294 H 0.49608 0.69109 0.59113 0.0
H295 H 0.59658 0.70073 0.60015 0.0
H296 H 0.56825 0.6685 0.51244 0.0
C297 C 0.26172 0.58133 0.47711 0.0
C298 C 0.24873 0.59615 0.48411 0.0
N299 N 0.23406 0.589 0.50497 0.0
N300 N 0.25558 0.56477 0.4938 0.0
C301 C 0.23843 0.56981 0.51023 0.0
H302 H 0.27497 0.58249 0.46085 0.0
Co303 Co 0.26989 0.54123 0.48994 0.0
C304 C 0.2711 0.52975 0.56951 0.0
O305 O 0.29029 0.5304 0.56734 0.0
N306 N 0.28393 0.51746 0.48366 0.0
C307 C 0.29878 0.49399 0.4511 0.0
C308 C 0.2907 0.51239 0.4499 0.0
C309 C 0.28756 0.5014 0.50471 0.0
N310 N 0.29685 0.48709 0.48568 0.0
O311 O 0.24808 0.52881 0.46481 0.0
H312 H 0.28973 0.52157 0.42565 0.0
H313 H 0.28269 0.49951 0.53278 0.0
O314 O 0.2607 0.53295 0.54045 0.0
C315 C 0.24792 0.53512 0.43146 0.0
O316 O 0.26023 0.54909 0.4224 0.0
N317 N 0.29236 0.55449 0.50938 0.0
C318 C 0.32415 0.57932 0.52361 0.0
C319 C 0.30701 0.58065 0.54478 0.0
C320 C 0.29128 0.56805 0.53731 0.0
C321 C 0.30903 0.55323 0.48864 0.0
C322 C 0.32516 0.56513 0.49581 0.0
H323 H 0.27787 0.56978 0.55291 0.0
H324 H 0.30966 0.54388 0.46476 0.0
H325 H 0.22946 0.55973 0.5259 0.0
H326 H 0.2498 0.61104 0.47403 0.0
H327 H 0.30563 0.48633 0.42831 0.0
H328 H 0.30562 0.59161 0.56629 0.0
H329 H 0.33794 0.56403 0.47817 0.0
C330 C 0.43851 0.2465 0.47098 0.0
C331 C 0.42525 0.23146 0.47238 0.0
N332 N 0.4207 0.22805 0.508 0.0
N333 N 0.44259 0.25265 0.50552 0.0
C334 C 0.43153 0.24106 0.52772 0.0
H335 H 0.44421 0.25309 0.44608 0.0
Co336 Co 0.45787 0.27505 0.51294 0.0
C337 C 0.46914 0.27634 0.59241 0.0
O338 O 0.46576 0.29528 0.59085 0.0
N339 N 0.47349 0.29803 0.5186 0.0
C340 C 0.4839 0.32891 0.51733 0.0
C341 C 0.46845 0.31665 0.5103 0.0
C342 C 0.49247 0.2994 0.52957 0.0
N343 N 0.49901 0.31813 0.52977 0.0
O344 O 0.47964 0.26205 0.48822 0.0
H345 H 0.45464 0.32135 0.49904 0.0
H346 H 0.50115 0.28692 0.53797 0.0
O347 O 0.46635 0.26575 0.56338 0.0
C348 C 0.48166 0.26946 0.4559 0.0
O349 O 0.47081 0.28462 0.44698 0.0
N350 N 0.43537 0.2881 0.53087 0.0
C351 C 0.40264 0.31217 0.54098 0.0
C352 C 0.41041 0.30135 0.57062 0.0
C353 C 0.42649 0.28886 0.56473 0.0
C354 C 0.42664 0.29678 0.50131 0.0
C355 C 0.41061 0.30915 0.50575 0.0
H356 H 0.43163 0.28004 0.5874 0.0
H357 H 0.43298 0.29496 0.47413 0.0
H358 H 0.43061 0.24282 0.5574 0.0
H359 H 0.41906 0.22388 0.44882 0.0
H360 H 0.48407 0.34457 0.51275 0.0
H361 H 0.40413 0.30251 0.59801 0.0
H362 H 0.40514 0.31694 0.48184 0.0
C363 C 0.73424 0.41967 0.51353 0.0
C364 C 0.74757 0.40471 0.51036 0.0
N365 N 0.7653 0.41148 0.52061 0.0
N366 N 0.74331 0.43584 0.52642 0.0
C367 C 0.76239 0.43058 0.52916 0.0
H368 H 0.71879 0.41873 0.50725 0.0
Co369 Co 0.73062 0.45985 0.53594 0.0
C370 C 0.75486 0.45574 0.60857 0.0
O371 O 0.75931 0.4371 0.60553 0.0
N372 N 0.71803 0.48381 0.54569 0.0
C373 C 0.70273 0.5069 0.57816 0.0
C374 C 0.71194 0.48912 0.57984 0.0
C375 C 0.71221 0.4987 0.52351 0.0
N376 N 0.70296 0.51288 0.54289 0.0
O377 O 0.75001 0.47315 0.50558 0.0
H378 H 0.71362 0.48034 0.60448 0.0
H379 H 0.71429 0.49896 0.49387 0.0
O380 O 0.74512 0.46426 0.58294 0.0
C381 C 0.74398 0.46974 0.47261 0.0
O382 O 0.7276 0.45984 0.4686 0.0
N383 N 0.70998 0.44647 0.55995 0.0
C384 C 0.67699 0.42391 0.57696 0.0
C385 C 0.69453 0.4215 0.59671 0.0
C386 C 0.71091 0.43306 0.5879 0.0
C387 C 0.69295 0.44902 0.54088 0.0
C388 C 0.67628 0.43817 0.54925 0.0
H389 H 0.72443 0.43031 0.6021 0.0
H390 H 0.69252 0.45898 0.5177 0.0
H391 H 0.77379 0.44039 0.53862 0.0
H392 H 0.74439 0.38992 0.50139 0.0
H393 H 0.69597 0.51471 0.6009 0.0
H394 H 0.69571 0.41049 0.61811 0.0
H395 H 0.66323 0.44021 0.5327 0.0
C396 C 0.57868 0.2618 0.07021 0.0
C397 C 0.59278 0.24783 0.07608 0.0
N398 N 0.58833 0.23183 0.05584 0.0
N399 N 0.56535 0.25493 0.04603 0.0
C400 C 0.57123 0.23635 0.03879 0.0
H401 H 0.57836 0.27631 0.08224 0.0
Co402 Co 0.54449 0.27061 0.02949 0.0
C403 C 0.54985 0.24691 0.9549 0.0
O404 O 0.56761 0.2398 0.95842 0.0
N405 N 0.52351 0.28652 0.01255 0.0
C406 C 0.50771 0.30701 0.97509 0.0
C407 C 0.52427 0.29603 0.97979 0.0
C408 C 0.50593 0.2918 0.02702 0.0
N409 N 0.49619 0.30434 1.00469 0.0
O410 O 0.52649 0.25285 0.05342 0.0
H411 H 0.53628 0.29515 0.96038 0.0
H412 H 0.50051 0.28699 0.05356 0.0
O413 O 0.54243 0.25738 0.98079 0.0
C414 C 0.52513 0.25997 0.08612 0.0
O415 O 0.53399 0.27664 0.09323 0.0
N416 N 0.56259 0.28926 0.01213 0.0
C417 C 0.59048 0.31888 1.00471 0.0
C418 C 0.59286 0.30092 0.98625 0.0
C419 C 0.57858 0.28622 0.99018 0.0
C420 C 0.56033 0.30658 0.03047 0.0
C421 C 0.57383 0.32166 0.02657 0.0
H422 H 0.58098 0.27218 0.97738 0.0
H423 H 0.54822 0.30849 0.04939 0.0
H424 H 0.5633 0.22642 0.02099 0.0
H425 H 0.60545 0.2495 0.09374 0.0
H426 H 0.50429 0.31625 0.95166 0.0
H427 H 0.60575 0.29817 0.96959 0.0
H428 H 0.57171 0.3351 0.04203 0.0
C429 C 0.74019 0.5801 0.07497 0.0
C430 C 0.75335 0.59518 0.07858 0.0
N431 N 0.77045 0.58965 0.06314 0.0
N432 N 0.7487 0.56511 0.05678 0.0
C433 C 0.76739 0.57109 0.05114 0.0
H434 H 0.72513 0.58023 0.08423 0.0
Co435 Co 0.73533 0.54204 0.04346 0.0
C436 C 0.75878 0.54817 0.96982 0.0
O437 O 0.76334 0.56678 0.97304 0.0
N438 N 0.72194 0.519 0.02956 0.0
C439 C 0.7047 0.4993 0.99297 0.0
C440 C 0.71491 0.51646 0.99494 0.0
C441 C 0.7159 0.50285 0.04817 0.0
N442 N 0.70528 0.49073 0.02631 0.0
O443 O 0.7546 0.52689 0.07039 0.0
H444 H 0.71654 0.52683 0.97258 0.0
H445 H 0.71852 0.50039 0.07727 0.0
O446 O 0.74932 0.5395 0.99561 0.0
C447 C 0.74865 0.52779 0.10397 0.0
O448 O 0.73219 0.53705 0.11095 0.0
N449 N 0.7149 0.55716 0.02287 0.0
C450 C 0.6825 0.58145 1.01115 0.0
C451 C 0.69994 0.58427 0.99123 0.0
C452 C 0.71602 0.57189 0.99745 0.0
C453 C 0.69797 0.55419 0.04207 0.0
C454 C 0.68159 0.56592 0.03632 0.0
H455 H 0.72951 0.57494 0.9834 0.0
H456 H 0.69744 0.54311 0.06336 0.0
H457 H 0.77833 0.5623 0.03724 0.0
H458 H 0.75042 0.60928 0.09112 0.0
H459 H 0.69707 0.49365 0.96901 0.0
H460 H 0.70128 0.59622 0.97174 0.0
H461 H 0.66865 0.56348 0.053 0.0
C462 C 0.42288 0.73741 0.06011 0.0
C463 C 0.40806 0.75073 0.06506 0.0
N464 N 0.41405 0.76826 0.05222 0.0
N465 N 0.43821 0.74625 0.04365 0.0
C466 C 0.43266 0.76525 0.0404 0.0
H467 H 0.42244 0.72211 0.06777 0.0
Co468 Co 0.46143 0.73279 0.03137 0.0
C469 C 0.45729 0.75795 0.95944 0.0
O470 O 0.43898 0.76358 0.96276 0.0
N471 N 0.48457 0.71923 0.01894 0.0
C472 C 0.50511 0.7018 0.98424 0.0
C473 C 0.48812 0.71243 0.98444 0.0
C474 C 0.4998 0.71252 0.03935 0.0
N475 N 0.51243 0.70189 0.01863 0.0
O476 O 0.47618 0.75163 0.06014 0.0
H477 H 0.47853 0.71444 0.96098 0.0
H478 H 0.50122 0.71467 0.06885 0.0
O479 O 0.46514 0.74732 0.98452 0.0
C480 C 0.47414 0.74584 0.09359 0.0
O481 O 0.46437 0.72958 0.09967 0.0
N482 N 0.44657 0.7129 1.00843 0.0
C483 C 0.4219 0.68131 0.99277 0.0
C484 C 0.41964 0.69924 0.97422 0.0
C485 C 0.43227 0.71491 0.98232 0.0
C486 C 0.44896 0.6955 0.02634 0.0
C487 C 0.43706 0.67949 0.01854 0.0
H488 H 0.42971 0.72882 0.96932 0.0
H489 H 0.45966 0.69429 0.04824 0.0
H490 H 0.44192 0.77655 0.02885 0.0
H491 H 0.39393 0.74765 0.07726 0.0
H492 H 0.51141 0.69414 0.96085 0.0
H493 H 0.40793 0.70126 0.9544 0.0
H494 H 0.43902 0.6661 0.03414 0.0
C495 C 0.26548 0.4227 0.04205 0.0
C496 C 0.25195 0.40822 0.04807 0.0
N497 N 0.2348 0.41373 0.0329 0.0
N498 N 0.25718 0.43732 0.02258 0.0
C499 C 0.23822 0.43176 0.01859 0.0
H500 H 0.28058 0.42249 0.05101 0.0
Co501 Co 0.27141 0.45959 1.00797 0.0
C502 C 0.247 0.45389 0.93517 0.0
O503 O 0.24054 0.43597 0.94009 0.0
N504 N 0.28591 0.48189 0.99334 0.0
C505 C 0.30521 0.50005 0.95755 0.0
C506 C 0.29413 0.48339 0.95946 0.0
C507 C 0.29214 0.49814 1.01153 0.0
N508 N 0.30397 0.50931 0.9902 0.0
O509 O 0.25259 0.47582 0.03358 0.0
H510 H 0.29272 0.4726 0.9377 0.0
H511 H 0.28885 0.50134 0.04013 0.0
O512 O 0.2577 0.46202 0.9599 0.0
C513 C 0.25896 0.47657 0.06682 0.0
O514 O 0.2757 0.46798 0.07444 0.0
N515 N 0.29111 0.44336 0.98817 0.0
C516 C 0.32246 0.41782 0.97619 0.0
C517 C 0.30486 0.41558 0.95651 0.0
C518 C 0.28927 0.42861 0.96284 0.0
C519 C 0.30813 0.44566 1.00734 0.0
C520 C 0.32399 0.43329 1.00149 0.0
H521 H 0.27559 0.4262 0.94884 0.0
H522 H 0.30913 0.4568 0.02853 0.0
H523 H 0.22726 0.44055 1.00483 0.0
H524 H 0.25461 0.3946 0.0625 0.0
H525 H 0.31384 0.50489 0.93416 0.0
H526 H 0.30303 0.40367 0.937 0.0
H527 H 0.33706 0.43527 0.01804 0.0
H528 H 0.07499 0.30642 1.00671 0.0
H529 H 0.09647 0.33514 0.01376 0.0
H530 H 0.14684 0.29709 0.01689 0.0
H531 H 0.12568 0.26865 1.01058 0.0
H532 H 0.14795 0.32414 0.07177 0.0
H533 H 0.13511 0.32324 0.93927 0.0
H534 H 0.11373 0.32452 0.88446 0.0
H535 H 0.09197 0.38072 0.91874 0.0
H536 H 0.11314 0.37967 0.97398 0.0
H537 H 0.23312 0.37419 0.03064 0.0
H538 H 0.20414 0.35364 0.02833 0.0
H539 H 0.16743 0.405 0.02527 0.0
H540 H 0.19679 0.42595 0.02768 0.0
H541 H 0.15438 0.3763 0.97721 0.0
H542 H 0.17063 0.3797 0.10441 0.0
H543 H 0.19204 0.37893 0.15922 0.0
H544 H 0.20628 0.31878 0.13706 0.0
H545 H 0.18518 0.31926 0.08178 0.0
C546 C 0.09063 0.30422 1.00898 0.0
C547 C 0.09858 0.28518 1.00776 0.0
C548 C 0.10291 0.32065 0.01278 0.0
C549 C 0.12332 0.3183 0.01569 0.0
C550 C 0.13117 0.29932 0.01467 0.0
C551 C 0.11901 0.28302 1.01067 0.0
C552 C 0.13681 0.33532 0.02033 0.0
C553 C 0.14937 0.33551 0.05103 0.0
C554 C 0.13819 0.35065 0.9941 0.0
C555 C 0.12552 0.35127 0.96094 0.0
C556 C 0.12564 0.33579 0.93526 0.0
C557 C 0.11358 0.33649 0.90409 0.0
C558 C 0.10143 0.35266 0.89819 0.0
C559 C 0.10136 0.36819 0.92339 0.0
C560 C 0.1134 0.36755 0.95461 0.0
C561 C 0.21894 0.38124 0.02994 0.0
C562 C 0.21734 0.40179 0.03013 0.0
C563 C 0.20231 0.3694 0.02847 0.0
C564 C 0.18353 0.37771 0.02744 0.0
C565 C 0.18177 0.39824 0.02633 0.0
C566 C 0.19854 0.41019 0.02769 0.0
C567 C 0.16603 0.36461 0.02789 0.0
C568 C 0.15271 0.36517 0.99833 0.0
C569 C 0.16379 0.35 0.05535 0.0
C570 C 0.17638 0.34955 0.08881 0.0
C571 C 0.17842 0.36634 0.11109 0.0
C572 C 0.19049 0.36595 0.14226 0.0
C573 C 0.20053 0.34882 0.15159 0.0
C574 C 0.19849 0.33203 0.1298 0.0
C575 C 0.18645 0.33235 0.09857 0.0
H576 H 0.20988 0.34856 0.17573 0.0
H577 H 0.09211 0.35321 0.87403 0.0
H578 H 0.73369 0.12405 1.00781 0.0
H579 H 0.70536 0.14514 0.01814 0.0
H580 H 0.66693 0.0954 1.00692 0.0
H581 H 0.69554 0.07397 0.9968 0.0
H582 H 0.6556 0.13304 0.96647 0.0
H583 H 0.6715 0.10812 0.08653 0.0
H584 H 0.69382 0.09957 0.13755 0.0
H585 H 0.71052 0.15995 0.14847 0.0
H586 H 0.68857 0.16881 0.09702 0.0
H587 H 0.57729 0.1953 0.03259 0.0
H588 H 0.59864 0.16682 0.0228 0.0
H589 H 0.64855 0.20102 0.05698 0.0
H590 H 0.62761 0.22926 0.06652 0.0
H591 H 0.6502 0.16627 0.08807 0.0
H592 H 0.63838 0.19092 0.96514 0.0
H593 H 0.61791 0.20057 0.91207 0.0
H594 H 0.59495 0.14213 0.90487 0.0
H595 H 0.61509 0.1322 0.95829 0.0
C596 C 0.71923 0.11758 1.00704 0.0
C597 C 0.71687 0.09732 1.00127 0.0
C598 C 0.70304 0.12966 0.01315 0.0
C599 C 0.68403 0.12187 0.0133 0.0
C600 C 0.68148 0.10172 1.00681 0.0
C601 C 0.6978 0.08949 1.00127 0.0
C602 C 0.66715 0.13495 0.02166 0.0
C603 C 0.65408 0.13999 0.99329 0.0
C604 C 0.66546 0.14432 0.0564 0.0
C605 C 0.67849 0.1391 0.08771 0.0
C606 C 0.68005 0.11956 0.09961 0.0
C607 C 0.69262 0.11465 0.12864 0.0
C608 C 0.70361 0.1292 0.1462 0.0
C609 C 0.70201 0.14869 0.13482 0.0
C610 C 0.68949 0.15367 0.10574 0.0
C611 C 0.59281 0.19677 0.03794 0.0
C612 C 0.60058 0.21467 0.05068 0.0
C613 C 0.60502 0.18045 0.03233 0.0
C614 C 0.62529 0.18172 0.03905 0.0
C615 C 0.63299 0.19952 0.0519 0.0
C616 C 0.62087 0.21574 0.05753 0.0
C617 C 0.63877 0.16479 0.03264 0.0
C618 C 0.65134 0.15906 0.06143 0.0
C619 C 0.64008 0.15496 0.99817 0.0
C620 C 0.62803 0.16089 0.966 0.0
C621 C 0.62883 0.18017 0.95243 0.0
C622 C 0.61732 0.18568 0.92226 0.0
C623 C 0.60508 0.17199 0.90519 0.0
C624 C 0.60439 0.15273 0.91818 0.0
C625 C 0.61585 0.14715 0.9484 0.0
H626 H 0.59618 0.17629 0.88183 0.0
H627 H 0.71333 0.12538 0.16868 0.0
H628 H 0.80871 0.57866 0.05659 0.0
H629 H 0.83691 0.6002 0.0446 0.0
H630 H 0.79837 0.65023 0.0427 0.0
H631 H 0.77042 0.62898 0.05405 0.0
H632 H 0.82375 0.65048 0.9847 0.0
H633 H 0.82665 0.64041 0.11748 0.0
H634 H 0.82942 0.62025 0.17373 0.0
H635 H 0.88486 0.59807 0.13644 0.0
H636 H 0.88229 0.61793 0.07969 0.0
H637 H 0.87678 0.736 0.01375 0.0
H638 H 0.85559 0.70763 0.01951 0.0
H639 H 0.90598 0.66961 0.02059 0.0
H640 H 0.92756 0.69823 0.01445 0.0
H641 H 0.87883 0.65866 0.07275 0.0
H642 H 0.8782 0.67175 0.94403 0.0
H643 H 0.8758 0.69178 0.88759 0.0
H644 H 0.8167 0.70738 0.91548 0.0
H645 H 0.81883 0.68767 0.97239 0.0
C646 C 0.8063 0.59424 0.05355 0.0
C647 C 0.78729 0.60207 0.05666 0.0
C648 C 0.82242 0.60655 0.04688 0.0
C649 C 0.81979 0.62689 0.04292 0.0
C650 C 0.80081 0.63463 0.04569 0.0
C651 C 0.78482 0.62243 0.05259 0.0
C652 C 0.83652 0.64039 0.03559 0.0
C653 C 0.83575 0.6523 1.00403 0.0
C654 C 0.8526 0.64232 0.06004 0.0
C655 C 0.85416 0.63045 0.09416 0.0
C656 C 0.83935 0.6311 0.12113 0.0
C657 C 0.8409 0.61976 0.15312 0.0
C658 C 0.85727 0.60783 0.15859 0.0
C659 C 0.87217 0.60728 0.13212 0.0
C660 C 0.87068 0.61858 0.10005 0.0
C661 C 0.88349 0.72166 0.0146 0.0
C662 C 0.90398 0.71952 0.01297 0.0
C663 C 0.87127 0.70538 0.01808 0.0
C664 C 0.87911 0.68639 0.01984 0.0
C665 C 0.89957 0.6841 0.01911 0.0
C666 C 0.91189 0.7005 0.01562 0.0
C667 C 0.86565 0.66922 0.0225 0.0
C668 C 0.86704 0.65661 0.05305 0.0
C669 C 0.85015 0.66652 0.99698 0.0
C670 C 0.84872 0.67831 0.96262 0.0
C671 C 0.86473 0.67955 0.93826 0.0
C672 C 0.86342 0.69084 0.90616 0.0
C673 C 0.84612 0.70087 0.89798 0.0
C674 C 0.83009 0.6996 0.92186 0.0
C675 C 0.83133 0.68835 0.95402 0.0
H676 H 0.84513 0.7096 0.87312 0.0
H677 H 0.85845 0.59907 0.18338 0.0
H678 H 0.30783 0.9287 0.02315 0.0
H679 H 0.33629 0.90703 0.03177 0.0
H680 H 0.29795 0.85683 0.03163 0.0
H681 H 0.26978 0.87818 0.02369 0.0
H682 H 0.32413 0.85526 0.08795 0.0
H683 H 0.32508 0.8689 0.95602 0.0
H684 H 0.32706 0.89075 0.90193 0.0
H685 H 0.38309 0.91169 0.93858 0.0
H686 H 0.38131 0.89013 0.99317 0.0
H687 H 0.37455 0.77008 0.0468 0.0
H688 H 0.35414 0.79913 0.04397 0.0
H689 H 0.40554 0.83576 0.0466 0.0
H690 H 0.42636 0.80636 0.04979 0.0
H691 H 0.37767 0.84905 0.99596 0.0
H692 H 0.37893 0.83213 0.12313 0.0
H693 H 0.37716 0.81034 0.17729 0.0
H694 H 0.31744 0.79638 0.15118 0.0
H695 H 0.31893 0.81786 0.09652 0.0
C696 C 0.30552 0.91305 0.02507 0.0
C697 C 0.2865 0.90521 0.02237 0.0
C698 C 0.32179 0.90067 0.02979 0.0
C699 C 0.31929 0.88025 0.03216 0.0
C700 C 0.3003 0.8725 0.02984 0.0
C701 C 0.28417 0.88477 0.02491 0.0
C702 C 0.33615 0.86663 0.03736 0.0
C703 C 0.33581 0.85389 0.06777 0.0
C704 C 0.35183 0.86527 1.01183 0.0
C705 C 0.35295 0.87809 0.97889 0.0
C706 C 0.33775 0.87828 0.95269 0.0
C707 C 0.33885 0.89059 0.92192 0.0
C708 C 0.35516 0.90265 0.91689 0.0
C709 C 0.37044 0.90237 0.94255 0.0
C710 C 0.3694 0.8901 0.9734 0.0
C711 C 0.38165 0.78424 0.04729 0.0
C712 C 0.40218 0.78578 0.0493 0.0
C713 C 0.36989 0.80092 0.04546 0.0
C714 C 0.37823 0.8197 0.04578 0.0
C715 C 0.39875 0.82142 0.04654 0.0
C716 C 0.41063 0.80461 0.04835 0.0
C717 C 0.36517 0.83722 0.04581 0.0
C718 C 0.36623 0.85068 0.01653 0.0
C719 C 0.35015 0.83937 0.07252 0.0
C720 C 0.34909 0.82655 0.10559 0.0
C721 C 0.36546 0.82433 0.1288 0.0
C722 C 0.3645 0.81204 0.15961 0.0
C723 C 0.34721 0.80196 0.16764 0.0
C724 C 0.33082 0.80419 0.14492 0.0
C725 C 0.33171 0.81645 0.11405 0.0
H726 H 0.3465 0.79245 0.1915 0.0
H727 H 0.35598 0.91218 0.89306 0.0
H728 H 0.07648 0.69582 0.55371 0.0
H729 H 0.09835 0.66757 0.5447 0.0
H730 H 0.14848 0.70548 0.55623 0.0
H731 H 0.12695 0.73352 0.56461 0.0
H732 H 0.15166 0.68171 0.49627 0.0
H733 H 0.13442 0.67525 0.62571 0.0
H734 H 0.11138 0.67125 0.67762 0.0
H735 H 0.09092 0.61708 0.6311 0.0
H736 H 0.11368 0.62091 0.57862 0.0
H737 H 0.2343 0.62642 0.52816 0.0
H738 H 0.20602 0.64735 0.53972 0.0
H739 H 0.16743 0.59829 0.52139 0.0
H740 H 0.19607 0.57707 0.50988 0.0
H741 H 0.15437 0.62381 0.5789 0.0
H742 H 0.17364 0.62843 0.45278 0.0
H743 H 0.19674 0.63209 0.40089 0.0
H744 H 0.21255 0.68943 0.43967 0.0
H745 H 0.18977 0.68598 0.49216 0.0
C746 C 0.09216 0.6981 0.5543 0.0
C747 C 0.09991 0.71698 0.56014 0.0
C748 C 0.10465 0.68192 0.54938 0.0
C749 C 0.1251 0.68436 0.54995 0.0
C750 C 0.13278 0.70318 0.55573 0.0
C751 C 0.1204 0.71923 0.56088 0.0
C752 C 0.13878 0.66764 0.54359 0.0
C753 C 0.15227 0.66911 0.51447 0.0
C754 C 0.13919 0.6508 0.56645 0.0
C755 C 0.12557 0.64849 0.59802 0.0
C756 C 0.12488 0.66258 0.62638 0.0
C757 C 0.1119 0.66033 0.65594 0.0
C758 C 0.09964 0.64396 0.6576 0.0
C759 C 0.10039 0.62978 0.62975 0.0
C760 C 0.11333 0.63197 0.6001 0.0
C761 C 0.21981 0.62001 0.52696 0.0
C762 C 0.21738 0.60017 0.51756 0.0
C763 C 0.20364 0.63199 0.5336 0.0
C764 C 0.18455 0.62453 0.53064 0.0
C765 C 0.18202 0.6044 0.52362 0.0
C766 C 0.19835 0.59228 0.51714 0.0
C767 C 0.16761 0.6383 0.53237 0.0
C768 C 0.15353 0.63627 0.56039 0.0
C769 C 0.16651 0.65463 0.50835 0.0
C770 C 0.18007 0.65689 0.47655 0.0
C771 C 0.18213 0.64177 0.45038 0.0
C772 C 0.19517 0.64381 0.42085 0.0
C773 C 0.20613 0.66097 0.41702 0.0
C774 C 0.20405 0.67614 0.44268 0.0
C775 C 0.19106 0.67416 0.47231 0.0
H776 H 0.21621 0.66252 0.39413 0.0
H777 H 0.0896 0.64224 0.68051 0.0
H778 H 0.42123 0.20584 0.57045 0.0
H779 H 0.39708 0.18067 0.58821 0.0
H780 H 0.36287 0.19442 0.4915 0.0
H781 H 0.38665 0.21938 0.47408 0.0
H782 H 0.33963 0.18991 0.55062 0.0
H783 H 0.39274 0.15505 0.49225 0.0
H784 H 0.42707 0.14454 0.48468 0.0
H785 H 0.42626 0.119 0.59302 0.0
H786 H 0.39199 0.1296 0.60142 0.0
H787 H 0.29953 0.0855 0.52502 0.0
H788 H 0.32686 0.10856 0.51872 0.0
H789 H 0.30959 0.13701 0.62001 0.0
H790 H 0.28252 0.11395 0.62674 0.0
H791 H 0.35912 0.12009 0.56105 0.0
H792 H 0.31274 0.18651 0.60629 0.0
H793 H 0.27807 0.19666 0.60851 0.0
H794 H 0.265 0.15866 0.51713 0.0
H795 H 0.29962 0.14851 0.51403 0.0
C796 C 0.40842 0.20359 0.55335 0.0
C797 C 0.40594 0.21445 0.5207 0.0
C798 C 0.39471 0.18913 0.56331 0.0
C799 C 0.37821 0.18549 0.54097 0.0
C800 C 0.37545 0.19686 0.50916 0.0
C801 C 0.38915 0.21107 0.49908 0.0
C802 C 0.36384 0.16968 0.54982 0.0
C803 C 0.34397 0.17468 0.55328 0.0
C804 C 0.36933 0.14972 0.55266 0.0
C805 C 0.38989 0.14331 0.54762 0.0
C806 C 0.39994 0.14734 0.51458 0.0
C807 C 0.41938 0.14134 0.51011 0.0
C808 C 0.42886 0.13116 0.5384 0.0
C809 C 0.41891 0.12692 0.57117 0.0
C810 C 0.39948 0.13291 0.57579 0.0
C811 C 0.30178 0.09638 0.54637 0.0
C812 C 0.28858 0.09799 0.57612 0.0
C813 C 0.31742 0.1096 0.5427 0.0
C814 C 0.32013 0.12474 0.56859 0.0
C815 C 0.30764 0.12568 0.59934 0.0
C816 C 0.29207 0.1125 0.60305 0.0
C817 C 0.335 0.1404 0.56216 0.0
C818 C 0.35488 0.13537 0.55902 0.0
C819 C 0.32952 0.16035 0.55904 0.0
C820 C 0.30872 0.1666 0.56024 0.0
C821 C 0.30247 0.18038 0.5866 0.0
C822 C 0.28283 0.18613 0.58801 0.0
C823 C 0.26933 0.17826 0.56307 0.0
C824 C 0.27546 0.16469 0.53654 0.0
C825 C 0.29508 0.15892 0.53496 0.0
H826 H 0.25413 0.1827 0.56424 0.0
H827 H 0.4439 0.12652 0.53489 0.0
H828 H 0.80321 0.42384 0.51606 0.0
H829 H 0.83281 0.40383 0.52506 0.0
H830 H 0.79672 0.3531 0.54497 0.0
H831 H 0.76741 0.37286 0.53671 0.0
H832 H 0.82559 0.35648 0.59612 0.0
H833 H 0.81953 0.36006 0.46238 0.0
H834 H 0.81795 0.37749 0.40281 0.0
H835 H 0.87453 0.40276 0.42309 0.0
H836 H 0.87632 0.38566 0.48305 0.0
H837 H 0.87792 0.27081 0.56763 0.0
H838 H 0.85605 0.29867 0.5624 0.0
H839 H 0.90541 0.33691 0.54471 0.0
H840 H 0.92771 0.30877 0.55028 0.0
H841 H 0.8747 0.34523 0.49728 0.0
H842 H 0.88292 0.33799 0.62675 0.0
H843 H 0.8848 0.32044 0.68612 0.0
H844 H 0.82472 0.30282 0.67508 0.0
H845 H 0.82255 0.32002 0.61534 0.0
C846 C 0.80164 0.40844 0.52246 0.0
C847 C 0.7829 0.39995 0.52532 0.0
C848 C 0.81855 0.397 0.52739 0.0
C849 C 0.817 0.37691 0.53552 0.0
C850 C 0.79832 0.36853 0.53869 0.0
C851 C 0.78153 0.37985 0.53356 0.0
C852 C 0.83459 0.36432 0.5411 0.0
C853 C 0.83629 0.354 0.57446 0.0
C854 C 0.84902 0.36159 0.51342 0.0
C855 C 0.84795 0.3718 0.47738 0.0
C856 C 0.83155 0.36947 0.45428 0.0
C857 C 0.83063 0.37926 0.42042 0.0
C858 C 0.8461 0.39128 0.40923 0.0
C859 C 0.86254 0.39348 0.43183 0.0
C860 C 0.86352 0.38374 0.46574 0.0
C861 C 0.8843 0.28511 0.56321 0.0
C862 C 0.90471 0.28748 0.56008 0.0
C863 C 0.87169 0.3011 0.56003 0.0
C864 C 0.87905 0.31999 0.55383 0.0
C865 C 0.89938 0.32248 0.54971 0.0
C866 C 0.91211 0.30637 0.55288 0.0
C867 C 0.86522 0.33686 0.55179 0.0
C868 C 0.86424 0.348 0.51923 0.0
C869 C 0.85146 0.34046 0.5803 0.0
C870 C 0.85261 0.33023 0.61643 0.0
C871 C 0.87014 0.33028 0.63686 0.0
C872 C 0.87125 0.3204 0.6706 0.0
C873 C 0.8549 0.3105 0.68434 0.0
C874 C 0.83738 0.3105 0.6644 0.0
C875 C 0.83619 0.32034 0.63062 0.0
H876 H 0.85579 0.30286 0.71046 0.0
H877 H 0.84536 0.39884 0.383 0.0
H878 H 0.62849 0.77299 0.52094 0.0
H879 H 0.64818 0.80213 0.53172 0.0
H880 H 0.59717 0.83851 0.51713 0.0
H881 H 0.57713 0.809 0.50596 0.0
H882 H 0.63251 0.85229 0.47938 0.0
H883 H 0.61159 0.83377 0.59985 0.0
H884 H 0.60501 0.81093 0.65108 0.0
H885 H 0.66617 0.79673 0.65728 0.0
H886 H 0.67309 0.81923 0.60566 0.0
H887 H 0.69649 0.93038 0.54257 0.0
H888 H 0.66765 0.90923 0.53544 0.0
H889 H 0.70306 0.85862 0.56013 0.0
H890 H 0.73165 0.87936 0.56694 0.0
H891 H 0.6695 0.85689 0.59706 0.0
H892 H 0.68937 0.87108 0.47102 0.0
H893 H 0.69641 0.89299 0.41854 0.0
H894 H 0.63754 0.91499 0.4224 0.0
H895 H 0.63023 0.89339 0.47528 0.0
C896 C 0.6214 0.78714 0.51955 0.0
C897 C 0.60121 0.78863 0.51232 0.0
C898 C 0.63269 0.80383 0.52602 0.0
C899 C 0.62417 0.82251 0.52541 0.0
C900 C 0.60405 0.82422 0.51773 0.0
C901 C 0.59261 0.80738 0.5116 0.0
C902 C 0.63658 0.83994 0.53353 0.0
C903 C 0.64026 0.85362 0.50542 0.0
C904 C 0.64688 0.84154 0.56733 0.0
C905 C 0.64284 0.82813 0.59871 0.0
C906 C 0.62363 0.82568 0.61196 0.0
C907 C 0.61984 0.8128 0.6411 0.0
C908 C 0.63516 0.80237 0.6574 0.0
C909 C 0.65432 0.80482 0.64463 0.0
C910 C 0.65818 0.81766 0.61546 0.0
C911 C 0.69815 0.91475 0.54638 0.0
C912 C 0.7165 0.9067 0.55567 0.0
C913 C 0.68161 0.90266 0.54231 0.0
C914 C 0.68313 0.88227 0.5472 0.0
C915 C 0.7014 0.87429 0.55656 0.0
C916 C 0.71782 0.88628 0.56063 0.0
C917 C 0.66601 0.8689 0.54245 0.0
C918 C 0.66144 0.85592 0.57128 0.0
C919 C 0.65498 0.86796 0.5093 0.0
C920 C 0.65933 0.88081 0.47738 0.0
C921 C 0.67798 0.8807 0.46086 0.0
C922 C 0.68201 0.89305 0.43102 0.0
C923 C 0.66745 0.90543 0.41723 0.0
C924 C 0.64881 0.90543 0.43317 0.0
C925 C 0.64472 0.89314 0.46307 0.0
H926 H 0.6706 0.91498 0.39413 0.0
H927 H 0.6322 0.79241 0.67995 0.0
H928 H 0.16497 0.01974 0.06825 0.0
H929 H 0.14579 0.04985 0.06246 0.0
H930 H 0.19647 0.07978 0.01914 0.0
H931 H 0.21568 0.04926 0.02467 0.0
H932 H 0.17833 0.09921 0.07923 0.0
H933 H 0.15964 0.07248 0.96278 0.0
H934 H 0.14809 0.04702 0.91961 0.0
H935 H 0.09367 0.04317 0.97861 0.0
H936 H 0.10501 0.06841 0.02249 0.0
H937 H 0.11857 0.18522 0.05513 0.0
H938 H 0.14181 0.1581 0.04861 0.0
H939 H 0.09571 0.11692 0.07351 0.0
H940 H 0.0724 0.14396 0.07915 0.0
H941 H 0.11448 0.10522 0.01497 0.0
H942 H 0.13413 0.12841 0.13526 0.0
H943 H 0.14548 0.15285 0.18072 0.0
H944 H 0.19761 0.16244 0.11689 0.0
H945 H 0.18644 0.13822 0.07079 0.0
C946 C 0.17182 0.03265 0.05661 0.0
C947 C 0.19166 0.03227 0.04657 0.0
C948 C 0.16091 0.04982 0.05334 0.0
C949 C 0.16967 0.06706 0.04027 0.0
C950 C 0.18941 0.06661 0.02917 0.0
C951 C 0.20031 0.04923 0.03196 0.0
C952 C 0.15835 0.08564 0.04096 0.0
C953 C 0.16457 0.10076 0.06453 0.0
C954 C 0.14018 0.08741 0.02254 0.0
C955 C 0.13324 0.07227 0.99608 0.0
C956 C 0.14527 0.06611 0.96673 0.0
C957 C 0.13875 0.05173 0.94209 0.0
C958 C 0.12017 0.04346 0.94639 0.0
C959 C 0.10806 0.04959 0.97531 0.0
C960 C 0.11452 0.06395 1.00004 0.0
C961 C 0.11353 0.1704 0.06005 0.0
C962 C 0.09369 0.16669 0.06775 0.0
C963 C 0.12681 0.15489 0.0562 0.0
C964 C 0.12057 0.13539 0.0606 0.0
C965 C 0.10089 0.13179 0.0697 0.0
C966 C 0.08759 0.14724 0.07312 0.0
C967 C 0.13416 0.11864 0.05408 0.0
C968 C 0.12835 0.10385 0.02934 0.0
C969 C 0.15263 0.11713 0.07168 0.0
C970 C 0.15934 0.13168 0.09936 0.0
C971 C 0.14794 0.13585 0.13076 0.0
C972 C 0.15435 0.14964 0.15667 0.0
C973 C 0.17222 0.15924 0.15163 0.0
C974 C 0.18375 0.15502 0.12072 0.0
C975 C 0.17739 0.14126 0.09471 0.0
H976 H 0.17716 0.1699 0.17173 0.0
H977 H 0.11515 0.03233 0.92729 0.0
H978 H 0.98178 0.16619 0.06832 0.0
H979 H 0.95133 0.14759 0.06309 0.0
H980 H 0.92446 0.196 1.00577 0.0
H981 H 0.95535 0.21468 1.01085 0.0
H982 H 0.90223 0.18156 0.06649 0.0
H983 H 0.93282 0.1562 0.95812 0.0
H984 H 0.95962 0.14203 0.92106 0.0
H985 H 0.96029 0.09117 0.99072 0.0
H986 H 0.93369 0.10516 0.02856 0.0
H987 H 0.8164 0.12094 0.04275 0.0
H988 H 0.84383 0.14383 0.03588 0.0
H989 H 0.88368 0.09921 0.07428 0.0
H990 H 0.8564 0.07623 0.08011 0.0
H991 H 0.89746 0.11454 0.01419 0.0
H992 H 0.87034 0.14106 0.12676 0.0
H993 H 0.84448 0.15512 0.16632 0.0
H994 H 0.83805 0.20341 0.09139 0.0
H995 H 0.86371 0.18949 0.05113 0.0
C996 C 0.96948 0.17267 0.05392 0.0
C997 C 0.97084 0.19176 0.03978 0.0
C998 C 0.95211 0.16206 0.05095 0.0
C999 C 0.93562 0.17037 0.03397 0.0
C1000 C 0.93704 0.18931 0.0189 0.0
C1001 C 0.95465 0.19987 0.02145 0.0
C1002 C 0.91681 0.15942 0.03421 0.0
C1003 C 0.90097 0.16707 0.05435 0.0
C1004 C 0.91538 0.14034 0.01915 0.0
C1005 C 0.93131 0.1318 0.99632 0.0
C1006 C 0.93877 0.14205 0.96571 0.0
C1007 C 0.95391 0.13404 0.94453 0.0
C1008 C 0.96167 0.11572 0.95356 0.0
C1009 C 0.95427 0.10536 0.98376 0.0
C1010 C 0.93913 0.11331 1.00505 0.0
C1011 C 0.83097 0.11622 0.05056 0.0
C1012 C 0.83429 0.09684 0.06205 0.0
C1013 C 0.84666 0.12929 0.04653 0.0
C1014 C 0.86591 0.1233 0.05453 0.0
C1015 C 0.86904 0.10418 0.06761 0.0
C1016 C 0.85343 0.09108 0.07118 0.0
C1017 C 0.883 0.13639 0.04748 0.0
C1018 C 0.89853 0.12912 0.02596 0.0
C1019 C 0.88418 0.15574 0.06155 0.0
C1020 C 0.86877 0.16411 0.08572 0.0
C1021 C 0.86329 0.15459 0.11857 0.0
C1022 C 0.8487 0.16255 0.14115 0.0
C1023 C 0.83958 0.18011 0.13131 0.0
C1024 C 0.84509 0.18978 0.09893 0.0
C1025 C 0.85966 0.18187 0.07624 0.0
H1026 H 0.82829 0.18625 0.14883 0.0
H1027 H 0.97339 0.10955 0.93714 0.0
H1028 H 0.91489 0.84305 0.99831 0.0
H1029 H 0.89121 0.86961 0.99483 0.0
H1030 H 0.88037 0.86468 0.11177 0.0
H1031 H 0.9046 0.83816 0.11582 0.0
H1032 H 0.84591 0.86865 0.06869 0.0
H1033 H 0.90837 0.90067 0.08245 0.0
H1034 H 0.94285 0.90735 0.06661 0.0
H1035 H 0.92565 0.92539 0.95775 0.0
H1036 H 0.89107 0.91854 0.97277 0.0
H1037 H 0.80118 0.95961 0.10485 0.0
H1038 H 0.82078 0.92995 0.10126 0.0
H1039 H 0.8355 0.94329 0.98811 0.0
H1040 H 0.8163 0.97369 0.99216 0.0
H1041 H 0.8674 0.93417 0.02539 0.0
H1042 H 0.80505 0.90421 1.01122 0.0
H1043 H 0.77043 0.89714 0.02518 0.0
H1044 H 0.78672 0.87473 0.13161 0.0
H1045 H 0.82143 0.88192 0.11852 0.0
C1046 C 0.90775 0.84774 0.02354 0.0
C1047 C 0.91203 0.83868 0.05757 0.0
C1048 C 0.89407 0.86287 0.02137 0.0
C1049 C 0.88421 0.86931 0.05308 0.0
C1050 C 0.88788 0.85995 0.08695 0.0
C1051 C 0.90171 0.8448 0.08922 0.0
C1052 C 0.87036 0.88606 0.05069 0.0
C1053 C 0.85061 0.88306 0.0597 0.0
C1054 C 0.87639 0.90465 0.03761 0.0
C1055 C 0.89716 0.90891 0.02862 0.0
C1056 C 0.91196 0.90591 0.05504 0.0
C1057 C 0.93151 0.90975 0.04622 0.0
C1058 C 0.93644 0.91674 1.01117 0.0
C1059 C 0.92181 0.91995 0.98488 0.0
C1060 C 0.90223 0.91611 0.99354 0.0
C1061 C 0.80849 0.95622 0.07909 0.0
C1062 C 0.80736 0.96915 0.0489 0.0
C1063 C 0.81955 0.93909 0.07693 0.0
C1064 C 0.82955 0.93422 0.04433 0.0
C1065 C 0.82789 0.94671 0.01357 0.0
C1066 C 0.81679 0.96399 0.01577 0.0
C1067 C 0.84284 0.91689 0.0437 0.0
C1068 C 0.86256 0.91976 0.03414 0.0
C1069 C 0.83672 0.89815 0.05597 0.0
C1070 C 0.81585 0.89375 0.06398 0.0
C1071 C 0.80125 0.89791 0.03772 0.0
C1072 C 0.7816 0.89386 0.04546 0.0
C1073 C 0.77638 0.88553 0.07929 0.0
C1074 C 0.79079 0.88119 0.10543 0.0
C1075 C 0.81046 0.88523 0.09784 0.0
H1076 H 0.76116 0.8824 0.08523 0.0
H1077 H 0.95159 0.91971 1.0044 0.0
H1078 H 0.18279 0.8857 0.07345 0.0
H1079 H 0.15572 0.86252 0.06605 0.0
H1080 H 0.11533 0.91069 0.05409 0.0
H1081 H 0.14214 0.93388 0.06298 0.0
H1082 H 0.09886 0.88302 0.09306 0.0
H1083 H 0.13399 0.88542 0.97849 0.0
H1084 H 0.16293 0.88321 0.93796 0.0
H1085 H 0.17069 0.8229 0.96817 0.0
H1086 H 0.14193 0.82483 1.00933 0.0
H1087 H 0.02028 0.83237 1.01178 0.0
H1088 H 0.0492 0.85387 1.01121 0.0
H1089 H 0.08521 0.80553 0.04672 0.0
H1090 H 0.05617 0.78427 0.04791 0.0
H1091 H 0.10399 0.83268 0.99437 0.0
H1092 H 0.06858 0.83133 0.1101 0.0
H1093 H 0.03876 0.834 0.1482 0.0
H1094 H 0.03099 0.89353 0.11295 0.0
H1095 H 0.06058 0.89108 0.07402 0.0
C1096 C 0.16808 0.89136 0.07013 0.0
C1097 C 0.16468 0.91167 0.06852 0.0
C1098 C 0.15264 0.87808 0.06537 0.0
C1099 C 0.13352 0.88483 0.05862 0.0
C1100 C 0.12995 0.90509 0.05891 0.0
C1101 C 0.14533 0.91834 0.06381 0.0
C1102 C 0.11727 0.87093 0.05035 0.0
C1103 C 0.09996 0.87219 0.07118 0.0
C1104 C 0.11868 0.85657 0.02209 0.0
C1105 C 0.13594 0.85533 0.99729 0.0
C1106 C 0.14196 0.87173 0.97671 0.0
C1107 C 0.15831 0.87052 0.95359 0.0
C1108 C 0.16868 0.85294 0.95057 0.0
C1109 C 0.16267 0.83652 0.97059 0.0
C1110 C 0.14634 0.83766 0.99381 0.0
C1111 C 0.03455 0.82625 0.01783 0.0
C1112 C 0.03622 0.80671 0.0293 0.0
C1113 C 0.05099 0.8385 0.01785 0.0
C1114 C 0.06931 0.83129 0.02919 0.0
C1115 C 0.07125 0.81134 0.0377 0.0
C1116 C 0.05475 0.7992 0.03821 0.0
C1117 C 0.08572 0.84496 0.03691 0.0
C1118 C 0.10299 0.84358 0.01613 0.0
C1119 C 0.08426 0.85934 0.06498 0.0
C1120 C 0.06666 0.86095 0.08883 0.0
C1121 C 0.06042 0.84494 0.11022 0.0
C1122 C 0.04357 0.84641 0.13199 0.0
C1123 C 0.03296 0.86391 0.13292 0.0
C1124 C 0.03921 0.87998 0.11215 0.0
C1125 C 0.05601 0.87856 0.09022 0.0
H1126 H 0.01992 0.86503 0.14981 0.0
H1127 H 0.18134 0.85204 0.93265 0.0
H1128 H 0.2151 0.95721 0.55562 0.0
H1129 H 0.19654 0.9262 0.55833 0.0
H1130 H 0.14531 0.95603 0.5172 0.0
H1131 H 0.1639 0.98666 0.51394 0.0
H1132 H 0.13709 0.9291 0.57446 0.0
H1133 H 0.17281 0.93283 0.45848 0.0
H1134 H 0.20281 0.93583 0.42098 0.0
H1135 H 0.22612 0.88392 0.4714 0.0
H1136 H 0.19634 0.88079 0.50963 0.0
H1137 H 0.07439 0.85963 0.49722 0.0
H1138 H 0.09691 0.88718 0.5046 0.0
H1139 H 0.14416 0.847 0.52726 0.0
H1140 H 0.12165 0.8193 0.51929 0.0
H1141 H 0.15716 0.87689 0.48669 0.0
H1142 H 0.12045 0.87064 0.59775 0.0
H1143 H 0.09083 0.86728 0.63619 0.0
H1144 H 0.07019 0.92315 0.59823 0.0
H1145 H 0.09955 0.92671 0.55909 0.0
C1146 C 0.19976 0.95709 0.54808 0.0
C1147 C 0.19083 0.97418 0.53467 0.0
C1148 C 0.18922 0.93944 0.54935 0.0
C1149 C 0.16957 0.9388 0.53769 0.0
C1150 C 0.16042 0.95617 0.52634 0.0
C1151 C 0.171 0.97363 0.52449 0.0
C1152 C 0.1587 0.92001 0.53476 0.0
C1153 C 0.14143 0.91769 0.55523 0.0
C1154 C 0.16465 0.90491 0.51034 0.0
C1155 C 0.18247 0.90672 0.48724 0.0
C1156 C 0.18441 0.92216 0.46181 0.0
C1157 C 0.20136 0.92387 0.44038 0.0
C1158 C 0.21639 0.91011 0.44389 0.0
C1159 C 0.21448 0.89459 0.46877 0.0
C1160 C 0.19757 0.89284 0.49032 0.0
C1161 C 0.08963 0.85666 0.5034 0.0
C1162 C 0.09622 0.8373 0.50792 0.0
C1163 C 0.10248 0.87242 0.5078 0.0
C1164 C 0.12215 0.86921 0.51745 0.0
C1165 C 0.12903 0.84986 0.52008 0.0
C1166 C 0.11618 0.83404 0.51535 0.0
C1167 C 0.13524 0.88612 0.52584 0.0
C1168 C 0.15293 0.8881 0.5064 0.0
C1169 C 0.12976 0.90086 0.5515 0.0
C1170 C 0.11214 0.89887 0.57526 0.0
C1171 C 0.10954 0.88215 0.59741 0.0
C1172 C 0.0928 0.88022 0.61934 0.0
C1173 C 0.07862 0.89497 0.6196 0.0
C1174 C 0.08118 0.91172 0.59798 0.0
C1175 C 0.09788 0.91372 0.57594 0.0
H1176 H 0.06567 0.89344 0.6366 0.0
H1177 H 0.2295 0.91145 0.42727 0.0
H1178 H 0.02086 0.16696 0.5036 0.0
H1179 H 0.0514 0.14863 0.51065 0.0
H1180 H 0.07874 0.19944 0.5594 0.0
H1181 H 0.04776 0.21781 0.55272 0.0
H1182 H 0.10005 0.18194 0.49898 0.0
H1183 H 0.07149 0.16291 0.61362 0.0
H1184 H 0.04542 0.15097 0.65496 0.0
H1185 H 0.04357 0.09645 0.59574 0.0
H1186 H 0.06944 0.10817 0.55366 0.0
H1187 H 0.18636 0.12291 0.52753 0.0
H1188 H 0.15901 0.14601 0.53295 0.0
H1189 H 0.11849 0.09966 0.50572 0.0
H1190 H 0.14571 0.07653 0.50123 0.0
H1191 H 0.1059 0.11823 0.56376 0.0
H1192 H 0.13066 0.13818 0.44477 0.0
H1193 H 0.15568 0.14981 0.4008 0.0
H1194 H 0.16374 0.202 0.4654 0.0
H1195 H 0.13893 0.19055 0.51003 0.0
C1196 C 0.03331 0.17406 0.51645 0.0
C1197 C 0.03206 0.1937 0.52774 0.0
C1198 C 0.05072 0.16362 0.52049 0.0
C1199 C 0.06734 0.17267 0.53558 0.0
C1200 C 0.06605 0.1922 0.54775 0.0
C1201 C 0.0484 0.2026 0.54424 0.0
C1202 C 0.08614 0.16177 0.53636 0.0
C1203 C 0.10157 0.16822 0.51381 0.0
C1204 C 0.08787 0.14365 0.55497 0.0
C1205 C 0.07234 0.13649 0.58032 0.0
C1206 C 0.06543 0.14843 0.60922 0.0
C1207 C 0.0507 0.14169 0.63283 0.0
C1208 C 0.04282 0.12298 0.62795 0.0
C1209 C 0.04969 0.11095 0.59949 0.0
C1210 C 0.06441 0.11762 0.57578 0.0
C1211 C 0.17164 0.11779 0.52193 0.0
C1212 C 0.16814 0.09794 0.51391 0.0
C1213 C 0.156 0.13099 0.52513 0.0
C1214 C 0.13662 0.12462 0.51974 0.0
C1215 C 0.13325 0.10493 0.51032 0.0
C1216 C 0.14882 0.09173 0.50756 0.0
C1217 C 0.11969 0.13807 0.52546 0.0
C1218 C 0.1046 0.13208 0.54931 0.0
C1219 C 0.11822 0.15651 0.50774 0.0
C1220 C 0.13312 0.1634 0.48095 0.0
C1221 C 0.13789 0.15206 0.44976 0.0
C1222 C 0.152 0.15863 0.42469 0.0
C1223 C 0.16134 0.17661 0.43037 0.0
C1224 C 0.15653 0.18807 0.46108 0.0
C1225 C 0.14243 0.18155 0.48625 0.0
H1226 H 0.17226 0.18167 0.41093 0.0
H1227 H 0.03142 0.11778 0.64625 0.0
H1228 H 0.81613 0.03011 0.56674 0.0
H1229 H 0.83431 0.06115 0.57102 0.0
H1230 H 0.82124 0.07311 0.45664 0.0
H1231 H 0.80319 0.04237 0.4524 0.0
H1232 H 0.85988 0.07563 0.47026 0.0
H1233 H 0.80028 0.09956 0.52576 0.0
H1234 H 0.77335 0.09931 0.57114 0.0
H1235 H 0.81468 0.10626 0.65957 0.0
H1236 H 0.8419 0.10628 0.61473 0.0
H1237 H 0.90122 0.17 0.45395 0.0
H1238 H 0.87746 0.14316 0.45491 0.0
H1239 H 0.88772 0.13512 0.5715 0.0
H1240 H 0.91062 0.16248 0.57119 0.0
H1241 H 0.85031 0.13064 0.5581 0.0
H1242 H 0.90964 0.10545 0.50551 0.0
H1243 H 0.9375 0.10436 0.46219 0.0
H1244 H 0.89782 0.09815 0.3709 0.0
H1245 H 0.8697 0.09947 0.41367 0.0
C1246 C 0.81681 0.03961 0.54286 0.0
C1247 C 0.80849 0.03372 0.50911 0.0
C1248 C 0.82721 0.0573 0.54525 0.0
C1249 C 0.82925 0.0694 0.51402 0.0
C1250 C 0.82005 0.06394 0.48096 0.0
C1251 C 0.80977 0.04635 0.47856 0.0
C1252 C 0.84209 0.08697 0.51456 0.0
C1253 C 0.8576 0.08779 0.48912 0.0
C1254 C 0.83952 0.10254 0.53995 0.0
C1255 C 0.82315 0.10272 0.5669 0.0
C1256 C 0.80364 0.10088 0.5549 0.0
C1257 C 0.78832 0.10081 0.58053 0.0
C1258 C 0.7923 0.1027 0.61823 0.0
C1259 C 0.81162 0.10476 0.63037 0.0
C1260 C 0.827 0.10482 0.60485 0.0
C1261 C 0.89825 0.16269 0.47988 0.0
C1262 C 0.90814 0.16823 0.51233 0.0
C1263 C 0.88477 0.14722 0.48035 0.0
C1264 C 0.88105 0.13684 0.51317 0.0
C1265 C 0.89041 0.14278 0.54579 0.0
C1266 C 0.90374 0.15829 0.54541 0.0
C1267 C 0.86795 0.1194 0.51341 0.0
C1268 C 0.85251 0.11853 0.5391 0.0
C1269 C 0.87069 0.10362 0.48853 0.0
C1270 C 0.88757 0.10277 0.46275 0.0
C1271 C 0.90686 0.104 0.47617 0.0
C1272 C 0.92269 0.10332 0.45172 0.0
C1273 C 0.91943 0.10124 0.41381 0.0
C1274 C 0.90032 0.09979 0.40027 0.0
C1275 C 0.88443 0.1005 0.4246 0.0
H1276 H 0.93171 0.10071 0.39493 0.0
H1277 H 0.78042 0.10262 0.63803 0.0
H1278 H 0.9727 0.81321 0.56943 0.0
H1279 H 0.94129 0.83088 0.5713 0.0
H1280 H 0.92924 0.81256 0.45946 0.0
H1281 H 0.96031 0.79497 0.45769 0.0
H1282 H 0.92611 0.85166 0.46692 0.0
H1283 H 0.90298 0.79459 0.53144 0.0
H1284 H 0.90337 0.76957 0.5805 0.0
H1285 H 0.89645 0.81437 0.66287 0.0
H1286 H 0.89629 0.8397 0.61431 0.0
H1287 H 0.83214 0.8946 0.44948 0.0
H1288 H 0.85832 0.87006 0.45158 0.0
H1289 H 0.86812 0.88328 0.5667 0.0
H1290 H 0.84145 0.90688 0.56533 0.0
H1291 H 0.87188 0.84582 0.55735 0.0
H1292 H 0.89715 0.9028 0.49581 0.0
H1293 H 0.898 0.92881 0.44861 0.0
H1294 H 0.90247 0.88542 0.36299 0.0
H1295 H 0.90139 0.85913 0.40969 0.0
C1296 C 0.96307 0.81259 0.5457 0.0
C1297 C 0.96904 0.80294 0.51327 0.0
C1298 C 0.94518 0.82272 0.54669 0.0
C1299 C 0.93296 0.82317 0.51537 0.0
C1300 C 0.93848 0.81261 0.4838 0.0
C1301 C 0.95625 0.80257 0.48282 0.0
C1302 C 0.91521 0.83581 0.51406 0.0
C1303 C 0.91411 0.85017 0.48637 0.0
C1304 C 0.89981 0.83428 0.54004 0.0
C1305 C 0.89982 0.81906 0.56925 0.0
C1306 C 0.90171 0.79912 0.56004 0.0
C1307 C 0.90185 0.78488 0.58775 0.0
C1308 C 0.89999 0.79038 0.62479 0.0
C1309 C 0.89792 0.81014 0.63417 0.0
C1310 C 0.89778 0.82444 0.60656 0.0
C1311 C 0.83969 0.89208 0.47534 0.0
C1312 C 0.83491 0.90305 0.50701 0.0
C1313 C 0.85479 0.87816 0.47646 0.0
C1314 C 0.86552 0.87507 0.50915 0.0
C1315 C 0.86022 0.88544 0.54108 0.0
C1316 C 0.84508 0.89918 0.54007 0.0
C1317 C 0.88274 0.86162 0.51005 0.0
C1318 C 0.88381 0.84721 0.53773 0.0
C1319 C 0.89828 0.86323 0.48432 0.0
C1320 C 0.89896 0.879 0.45621 0.0
C1321 C 0.89816 0.89881 0.4669 0.0
C1322 C 0.89871 0.9136 0.44024 0.0
C1323 C 0.90023 0.90877 0.40282 0.0
C1324 C 0.90126 0.88914 0.39199 0.0
C1325 C 0.90069 0.87429 0.41853 0.0
H1326 H 0.90066 0.92024 0.38223 0.0
H1327 H 0.9001 0.77933 0.6462 0.0
H1328 H 0.71955 0.54807 0.53262 0.0
H1329 H 0.70183 0.5794 0.52878 0.0
H1330 H 0.64704 0.54797 0.52455 0.0
H1331 H 0.6649 0.51684 0.52794 0.0
H1332 H 0.6455 0.58076 0.48243 0.0
H1333 H 0.66591 0.5632 0.60598 0.0
H1334 H 0.6902 0.55449 0.65361 0.0
H1335 H 0.7196 0.60938 0.63692 0.0
H1336 H 0.69564 0.61827 0.58872 0.0
H1337 H 0.57584 0.64311 0.5598 0.0
H1338 H 0.59891 0.61599 0.55319 0.0
H1339 H 0.64718 0.6567 0.55573 0.0
H1340 H 0.62404 0.68405 0.56227 0.0
H1341 H 0.65503 0.62207 0.59402 0.0
H1342 H 0.6317 0.64096 0.47472 0.0
H1343 H 0.60662 0.64926 0.42833 0.0
H1344 H 0.58208 0.59157 0.43777 0.0
H1345 H 0.60683 0.58302 0.48471 0.0
C1346 C 0.70379 0.548 0.52925 0.0
C1347 C 0.69348 0.53025 0.52993 0.0
C1348 C 0.69367 0.56582 0.52752 0.0
C1349 C 0.67307 0.56604 0.52701 0.0
C1350 C 0.6629 0.54819 0.52489 0.0
C1351 C 0.67304 0.53043 0.52659 0.0
C1352 C 0.66198 0.58455 0.53261 0.0
C1353 C 0.64755 0.58975 0.50686 0.0
C1354 C 0.66487 0.59652 0.5642 0.0
C1355 C 0.67913 0.5913 0.59347 0.0
C1356 C 0.67764 0.57335 0.6123 0.0
C1357 C 0.69134 0.56838 0.63941 0.0
C1358 C 0.70647 0.58135 0.64822 0.0
C1359 C 0.7079 0.59934 0.63001 0.0
C1360 C 0.69426 0.60435 0.60279 0.0
C1361 C 0.59138 0.64628 0.55947 0.0
C1362 C 0.59812 0.66573 0.56117 0.0
C1363 C 0.60454 0.63078 0.55557 0.0
C1364 C 0.62473 0.63437 0.55308 0.0
C1365 C 0.63164 0.65363 0.55733 0.0
C1366 C 0.61842 0.66922 0.56129 0.0
C1367 C 0.63835 0.61806 0.54414 0.0
C1368 C 0.6532 0.61327 0.56928 0.0
C1369 C 0.63579 0.60641 0.51206 0.0
C1370 C 0.62105 0.6114 0.48344 0.0
C1371 C 0.62088 0.63008 0.46709 0.0
C1372 C 0.60673 0.63483 0.44068 0.0
C1373 C 0.59275 0.62096 0.43015 0.0
C1374 C 0.59292 0.6023 0.44596 0.0
C1375 C 0.60702 0.59749 0.47245 0.0
H1376 H 0.5818 0.62467 0.40971 0.0
H1377 H 0.71706 0.57748 0.66922 0.0
H1378 H 0.36285 0.57116 0.5329 0.0
H1379 H 0.39026 0.59434 0.53322 0.0
H1380 H 0.34979 0.64249 0.52232 0.0
H1381 H 0.32222 0.61928 0.5226 0.0
H1382 H 0.38273 0.64265 0.47056 0.0
H1383 H 0.36951 0.63887 0.60011 0.0
H1384 H 0.36318 0.62234 0.65944 0.0
H1385 H 0.4194 0.59432 0.65363 0.0
H1386 H 0.42595 0.61046 0.59395 0.0
H1387 H 0.46 0.71379 0.50517 0.0
H1388 H 0.42927 0.69504 0.50007 0.0
H1389 H 0.45987 0.6427 0.53385 0.0
H1390 H 0.49014 0.66155 0.53979 0.0
H1391 H 0.42911 0.64791 0.57552 0.0
H1392 H 0.44174 0.64954 0.44461 0.0
H1393 H 0.4483 0.66522 0.38453 0.0
H1394 H 0.39385 0.69646 0.39179 0.0
H1395 H 0.38709 0.68115 0.4522 0.0
C1396 C 0.35981 0.58671 0.53108 0.0
C1397 C 0.34045 0.59347 0.52801 0.0
C1398 C 0.37544 0.59992 0.53118 0.0
C1399 C 0.37203 0.62011 0.5277 0.0
C1400 C 0.3527 0.62695 0.52496 0.0
C1401 C 0.337 0.61373 0.5255 0.0
C1402 C 0.38883 0.63389 0.52651 0.0
C1403 C 0.39273 0.64412 0.49367 0.0
C1404 C 0.402 0.63547 0.55645 0.0
C1405 C 0.39814 0.62574 0.59237 0.0
C1406 C 0.38045 0.62904 0.61131 0.0
C1407 C 0.37684 0.61977 0.64504 0.0
C1408 C 0.39086 0.60725 0.66025 0.0
C1409 C 0.40855 0.60401 0.64179 0.0
C1410 C 0.41222 0.61323 0.60803 0.0
C1411 C 0.46013 0.69817 0.51031 0.0
C1412 C 0.4773 0.689 0.52271 0.0
C1413 C 0.44262 0.68747 0.50758 0.0
C1414 C 0.4422 0.66743 0.51681 0.0
C1415 C 0.45973 0.65814 0.52692 0.0
C1416 C 0.47704 0.66883 0.53002 0.0
C1417 C 0.42346 0.65633 0.51911 0.0
C1418 C 0.41911 0.64663 0.55235 0.0
C1419 C 0.40999 0.65517 0.48943 0.0
C1420 C 0.41403 0.66438 0.45313 0.0
C1421 C 0.43125 0.65989 0.43355 0.0
C1422 C 0.43498 0.66868 0.39941 0.0
C1423 C 0.42153 0.68188 0.3844 0.0
C1424 C 0.40428 0.68626 0.40348 0.0
C1425 C 0.40048 0.67753 0.43766 0.0
H1426 H 0.42445 0.68867 0.35796 0.0
H1427 H 0.38804 0.60009 0.68638 0.0
H1428 H 0.31022 0.47869 0.55442 0.0
H1429 H 0.32444 0.44757 0.5753 0.0
H1430 H 0.31317 0.42215 0.46825 0.0
H1431 H 0.2989 0.45308 0.44743 0.0
H1432 H 0.30461 0.39656 0.52664 0.0
H1433 H 0.35732 0.4397 0.4869 0.0
H1434 H 0.37658 0.47025 0.4891 0.0
H1435 H 0.38973 0.46009 0.60349 0.0
H1436 H 0.37031 0.42959 0.60207 0.0
H1437 H 0.37139 0.32018 0.49594 0.0
H1438 H 0.34999 0.34863 0.49807 0.0
H1439 H 0.37668 0.36688 0.60056 0.0
H1440 H 0.39898 0.33882 0.59748 0.0
H1441 H 0.37549 0.39645 0.55657 0.0
H1442 H 0.32745 0.35082 0.59482 0.0
H1443 H 0.30808 0.32035 0.59425 0.0
H1444 H 0.28543 0.33483 0.48707 0.0
H1445 H 0.30488 0.36526 0.48672 0.0
C1446 C 0.3105 0.46636 0.53559 0.0
C1447 C 0.3036 0.46838 0.49918 0.0
C1448 C 0.31871 0.44863 0.54747 0.0
C1449 C 0.32 0.43258 0.52323 0.0
C1450 C 0.31234 0.43433 0.48742 0.0
C1451 C 0.30434 0.45207 0.47544 0.0
C1452 C 0.33035 0.41429 0.53405 0.0
C1453 C 0.32012 0.39646 0.53311 0.0
C1454 C 0.35042 0.41426 0.54374 0.0
C1455 C 0.36218 0.43252 0.5445 0.0
C1456 C 0.36419 0.44407 0.5126 0.0
C1457 C 0.37515 0.46136 0.51368 0.0
C1458 C 0.38432 0.46714 0.54645 0.0
C1459 C 0.38259 0.45561 0.57816 0.0
C1460 C 0.37161 0.43833 0.57723 0.0
C1461 C 0.37265 0.33013 0.51915 0.0
C1462 C 0.38711 0.32729 0.54631 0.0
C1463 C 0.36017 0.34634 0.52059 0.0
C1464 C 0.36154 0.35995 0.54963 0.0
C1465 C 0.3753 0.35662 0.57785 0.0
C1466 C 0.38792 0.34044 0.57626 0.0
C1467 C 0.34989 0.37845 0.5484 0.0
C1468 C 0.35989 0.39641 0.55098 0.0
C1469 C 0.32954 0.37857 0.54061 0.0
C1470 C 0.31774 0.3603 0.54067 0.0
C1471 C 0.31845 0.34745 0.57101 0.0
C1472 C 0.30743 0.33019 0.57087 0.0
C1473 C 0.29556 0.32564 0.54062 0.0
C1474 C 0.29464 0.33837 0.51048 0.0
C1475 C 0.30564 0.35565 0.51046 0.0
H1476 H 0.28704 0.31227 0.54056 0.0
H1477 H 0.39281 0.48053 0.54723 0.0
H1478 H 0.50686 0.35415 0.55712 0.0
H1479 H 0.53888 0.36835 0.56948 0.0
H1480 H 0.56652 0.31356 0.54125 0.0
H1481 H 0.5342 0.29918 0.52797 0.0
H1482 H 0.58326 0.33419 0.60571 0.0
H1483 H 0.56762 0.34531 0.47849 0.0
H1484 H 0.54648 0.3551 0.42648 0.0
H1485 H 0.54259 0.41342 0.4705 0.0
H1486 H 0.56346 0.40389 0.52312 0.0
H1487 H 0.6764 0.3838 0.5804 0.0
H1488 H 0.64751 0.36247 0.57787 0.0
H1489 H 0.61 0.41328 0.58261 0.0
H1490 H 0.63875 0.43455 0.58455 0.0
H1491 H 0.60015 0.39102 0.52655 0.0
H1492 H 0.61439 0.37976 0.65524 0.0
H1493 H 0.63485 0.37004 0.70827 0.0
H1494 H 0.64137 0.31236 0.66241 0.0
H1495 H 0.62115 0.32181 0.60882 0.0
C1496 C 0.51969 0.34505 0.55337 0.0
C1497 C 0.51794 0.32562 0.54076 0.0
C1498 C 0.538 0.35318 0.56077 0.0
C1499 C 0.55509 0.3421 0.55584 0.0
C1500 C 0.55348 0.32236 0.54518 0.0
C1501 C 0.53503 0.31417 0.53762 0.0
C1502 C 0.57444 0.35187 0.55944 0.0
C1503 C 0.58718 0.3464 0.58805 0.0
C1504 C 0.57938 0.36798 0.53672 0.0
C1505 C 0.56699 0.37384 0.5049 0.0
C1506 C 0.56214 0.36019 0.47723 0.0
C1507 C 0.55022 0.36569 0.44762 0.0
C1508 C 0.54317 0.38486 0.44522 0.0
C1509 C 0.54805 0.39858 0.4724 0.0
C1510 C 0.55995 0.39313 0.50211 0.0
C1511 C 0.66197 0.39035 0.58188 0.0
C1512 C 0.65982 0.41084 0.58253 0.0
C1513 C 0.64545 0.37815 0.58035 0.0
C1514 C 0.62651 0.38624 0.57992 0.0
C1515 C 0.62442 0.40667 0.58259 0.0
C1516 C 0.64086 0.41882 0.58381 0.0
C1517 C 0.60887 0.3738 0.57363 0.0
C1518 C 0.59642 0.37873 0.54419 0.0
C1519 C 0.60429 0.35725 0.59564 0.0
C1520 C 0.61645 0.35156 0.62781 0.0
C1521 C 0.62033 0.36505 0.65629 0.0
C1522 C 0.63185 0.35958 0.68649 0.0
C1523 C 0.63946 0.34061 0.68865 0.0
C1524 C 0.6355 0.32706 0.66066 0.0
C1525 C 0.624 0.33246 0.63039 0.0
H1526 H 0.64837 0.33641 0.71205 0.0
H1527 H 0.53394 0.3891 0.42228 0.0
H1528 H 0.6679 0.48258 1.01088 0.0
H1529 H 0.65164 0.45088 0.01621 0.0
H1530 H 0.70356 0.42654 0.06624 0.0
H1531 H 0.71992 0.45871 0.06089 0.0
H1532 H 0.68903 0.40401 1.00705 0.0
H1533 H 0.66438 0.43085 0.11862 0.0
H1534 H 0.64979 0.45589 0.15933 0.0
H1535 H 0.59731 0.45559 0.09405 0.0
H1536 H 0.61167 0.43076 0.05259 0.0
H1537 H 0.6294 0.31588 0.02186 0.0
H1538 H 0.65238 0.34302 0.03244 0.0
H1539 H 0.60817 0.38416 0.99731 0.0
H1540 H 0.5852 0.3572 0.98765 0.0
H1541 H 0.62293 0.39507 0.06125 0.0
H1542 H 0.64997 0.37229 0.94455 0.0
H1543 H 0.66478 0.34776 0.90295 0.0
H1544 H 0.71286 0.34052 0.97815 0.0
H1545 H 0.6982 0.36485 0.02041 0.0
C1546 C 0.67567 0.47056 0.02372 0.0
C1547 C 0.69507 0.47301 0.03565 0.0
C1548 C 0.6664 0.45246 0.0268 0.0
C1549 C 0.67634 0.43634 0.04177 0.0
C1550 C 0.69561 0.43882 0.05472 0.0
C1551 C 0.70486 0.45715 0.05202 0.0
C1552 C 0.66666 0.41684 0.04135 0.0
C1553 C 0.67478 0.40183 0.01964 0.0
C1554 C 0.64796 0.41411 0.05736 0.0
C1555 C 0.63916 0.42897 0.08237 0.0
C1556 C 0.64978 0.43621 0.11278 0.0
C1557 C 0.64154 0.45036 0.13603 0.0
C1558 C 0.62264 0.45734 0.12926 0.0
C1559 C 0.61194 0.45016 0.09927 0.0
C1560 C 0.62011 0.43602 0.07592 0.0
C1561 C 0.62483 0.3307 0.01553 0.0
C1562 C 0.60557 0.33449 1.00389 0.0
C1563 C 0.63793 0.3462 0.02172 0.0
C1564 C 0.632 0.36569 0.01584 0.0
C1565 C 0.61305 0.3693 1.0024 0.0
C1566 C 0.59997 0.3539 0.99662 0.0
C1567 C 0.64488 0.38255 0.02552 0.0
C1568 C 0.63734 0.39705 0.04918 0.0
C1569 C 0.66407 0.38477 1.01128 0.0
C1570 C 0.67287 0.3702 0.98583 0.0
C1571 C 0.66362 0.36535 0.95234 0.0
C1572 C 0.672 0.35151 0.92862 0.0
C1573 C 0.68971 0.34254 0.93795 0.0
C1574 C 0.69912 0.34745 0.97098 0.0
C1575 C 0.69079 0.36127 0.99482 0.0
H1576 H 0.69618 0.33183 0.91955 0.0
H1577 H 0.61629 0.4683 0.14728 0.0
H1578 H 0.54752 0.71644 0.03846 0.0
H1579 H 0.57828 0.69765 0.04269 0.0
H1580 H 0.546 0.64405 0.02558 0.0
H1581 H 0.51552 0.66292 0.02106 0.0
H1582 H 0.5761 0.63974 0.07685 0.0
H1583 H 0.56598 0.66584 0.95414 0.0
H1584 H 0.56038 0.69237 0.90919 0.0
H1585 H 0.61435 0.71969 0.94178 0.0
H1586 H 0.6201 0.69345 0.98738 0.0
H1587 H 0.64362 0.57257 1.00567 0.0
H1588 H 0.61585 0.59498 1.01079 0.0
H1589 H 0.65554 0.64403 0.01696 0.0
H1590 H 0.68346 0.62159 1.01147 0.0
H1591 H 0.62368 0.65312 0.97628 0.0
H1592 H 0.63538 0.62513 0.09516 0.0
H1593 H 0.64083 0.59845 0.13984 0.0
H1594 H 0.58404 0.5748 0.1152 0.0
H1595 H 0.57837 0.60118 0.06993 0.0
C1596 C 0.54708 0.70061 0.03691 0.0
C1597 C 0.52932 0.69098 0.02994 0.0
C1598 C 0.56457 0.68991 0.03895 0.0
C1599 C 0.56444 0.66945 0.03409 0.0
C1600 C 0.54646 0.65978 0.0295 0.0
C1601 C 0.52908 0.67049 0.02707 0.0
C1602 C 0.58296 0.65818 0.03047 0.0
C1603 C 0.58648 0.64261 0.05481 0.0
C1604 C 0.59669 0.66216 1.0021 0.0
C1605 C 0.59335 0.67782 0.97446 0.0
C1606 C 0.57657 0.67759 0.95193 0.0
C1607 C 0.57338 0.69255 0.9263 0.0
C1608 C 0.58697 0.70773 0.92271 0.0
C1609 C 0.60381 0.70794 0.94465 0.0
C1610 C 0.60705 0.69302 0.97038 0.0
C1611 C 0.64643 0.58815 1.00774 0.0
C1612 C 0.66574 0.5953 1.00846 0.0
C1613 C 0.63055 0.60095 1.01082 0.0
C1614 C 0.6336 0.62117 0.01519 0.0
C1615 C 0.65283 0.62848 0.01387 0.0
C1616 C 0.66877 0.61566 1.01054 0.0
C1617 C 0.61673 0.63446 0.02239 0.0
C1618 C 0.61349 0.65039 0.99868 0.0
C1619 C 0.60326 0.63083 0.05141 0.0
C1620 C 0.60652 0.61506 0.07894 0.0
C1621 C 0.6241 0.61417 0.0991 0.0
C1622 C 0.62722 0.59911 0.12455 0.0
C1623 C 0.6128 0.58492 0.13031 0.0
C1624 C 0.5952 0.5858 0.11069 0.0
C1625 C 0.59202 0.60082 0.08516 0.0
H1626 H 0.61525 0.57326 0.15002 0.0
H1627 H 0.58448 0.71931 0.90285 0.0
H1628 H 0.28923 0.54305 0.01795 0.0
H1629 H 0.30691 0.57447 0.02355 0.0
H1630 H 0.3602 0.546 0.98864 0.0
H1631 H 0.34251 0.51496 0.98246 0.0
H1632 H 0.36545 0.57286 0.04782 0.0
H1633 H 0.33452 0.56869 0.92684 0.0
H1634 H 0.30607 0.56525 0.88537 0.0
H1635 H 0.27992 0.61655 0.93326 0.0
H1636 H 0.30811 0.62012 0.97543 0.0
H1637 H 0.43019 0.6428 0.98076 0.0
H1638 H 0.4076 0.61508 0.98388 0.0
H1639 H 0.35924 0.6549 0.99971 0.0
H1640 H 0.38187 0.68278 0.99577 0.0
H1641 H 0.34811 0.62474 0.95759 0.0
H1642 H 0.38016 0.63169 0.0734 0.0
H1643 H 0.40807 0.63559 0.11597 0.0
H1644 H 0.43101 0.57993 0.08143 0.0
H1645 H 0.40339 0.57583 0.03818 0.0
C1646 C 0.3048 0.54355 0.01236 0.0
C1647 C 0.3146 0.52674 0.99983 0.0
C1648 C 0.31484 0.56144 0.01529 0.0
C1649 C 0.33485 0.56256 1.00624 0.0
C1650 C 0.3448 0.54547 0.99578 0.0
C1651 C 0.33473 0.52778 0.99224 0.0
C1652 C 0.34537 0.58159 1.00514 0.0
C1653 C 0.36171 0.5842 0.02807 0.0
C1654 C 0.34015 0.5966 0.98006 0.0
C1655 C 0.32329 0.59453 0.95458 0.0
C1656 C 0.32262 0.57913 0.92875 0.0
C1657 C 0.30656 0.57718 0.90508 0.0
C1658 C 0.29117 0.59064 0.90676 0.0
C1659 C 0.29183 0.60611 0.93205 0.0
C1660 C 0.30785 0.60811 0.95583 0.0
C1661 C 0.4147 0.64564 0.98432 0.0
C1662 C 0.4078 0.66492 0.98823 0.0
C1663 C 0.4018 0.6298 0.98635 0.0
C1664 C 0.38177 0.63286 0.99307 0.0
C1665 C 0.37465 0.65216 0.99481 0.0
C1666 C 0.38756 0.66808 0.99238 0.0
C1667 C 0.36857 0.61584 0.99967 0.0
C1668 C 0.35173 0.6136 0.97781 0.0
C1669 C 0.3732 0.60123 0.02608 0.0
C1670 C 0.38976 0.60352 0.05234 0.0
C1671 C 0.39121 0.62033 0.0747 0.0
C1672 C 0.40698 0.62258 0.09897 0.0
C1673 C 0.42132 0.60803 0.10136 0.0
C1674 C 0.41989 0.59119 0.07953 0.0
C1675 C 0.40417 0.58889 0.05516 0.0
H1676 H 0.43351 0.6098 0.12016 0.0
H1677 H 0.27875 0.5891 0.8884 0.0
H1678 H 0.46137 0.28703 0.01873 0.0
H1679 H 0.429 0.30313 0.01681 0.0
H1680 H 0.45725 0.35896 1.00016 0.0
H1681 H 0.48928 0.34284 1.00136 0.0
H1682 H 0.42579 0.36048 0.0505 0.0
H1683 H 0.44135 0.33564 0.92837 0.0
H1684 H 0.44963 0.30975 0.88342 0.0
H1685 H 0.39628 0.27949 0.90952 0.0
H1686 H 0.38783 0.30508 0.95509 0.0
H1687 H 0.36137 0.42592 0.96954 0.0
H1688 H 0.38873 0.40318 0.97634 0.0
H1689 H 0.3483 0.3548 0.98354 0.0
H1690 H 0.3207 0.37764 0.97675 0.0
H1691 H 0.38263 0.34549 0.94377 0.0
H1692 H 0.3652 0.3726 0.06076 0.0
H1693 H 0.35687 0.39898 0.10463 0.0
H1694 H 0.41359 0.42478 0.0888 0.0
H1695 H 0.42215 0.39874 0.04431 0.0
C1696 C 0.46052 0.30277 0.01557 0.0
C1697 C 0.47766 0.3138 1.01035 0.0
C1698 C 0.44213 0.31193 0.01416 0.0
C1699 C 0.44075 0.33223 1.00808 0.0
C1700 C 0.45797 0.34331 1.00491 0.0
C1701 C 0.47622 0.33414 1.00563 0.0
C1702 C 0.42155 0.34206 1.00288 0.0
C1703 C 0.41636 0.35721 0.02718 0.0
C1704 C 0.40903 0.33749 0.97289 0.0
C1705 C 0.41409 0.32212 0.94551 0.0
C1706 C 0.43148 0.32336 0.92481 0.0
C1707 C 0.43619 0.30877 0.89916 0.0
C1708 C 0.42353 0.29295 0.89371 0.0
C1709 C 0.4061 0.29172 0.91384 0.0
C1710 C 0.40134 0.30627 0.93958 0.0
C1711 C 0.35829 0.41041 0.97203 0.0
C1712 C 0.33887 0.40359 0.97304 0.0
C1713 C 0.37394 0.39743 0.97597 0.0
C1714 C 0.37053 0.37735 0.98126 0.0
C1715 C 0.35124 0.37026 0.9797 0.0
C1716 C 0.3355 0.3833 0.97566 0.0
C1717 C 0.38713 0.36422 0.99093 0.0
C1718 C 0.39184 0.3485 0.96751 0.0
C1719 C 0.39924 0.36822 0.02184 0.0
C1720 C 0.39427 0.38378 0.04899 0.0
C1721 C 0.37586 0.38397 0.06644 0.0
C1722 C 0.37109 0.39886 0.09143 0.0
C1723 C 0.38468 0.41356 0.09945 0.0
C1724 C 0.40308 0.41338 0.08254 0.0
C1725 C 0.4079 0.39855 0.05746 0.0
H1726 H 0.38096 0.42508 0.11881 0.0
H1727 H 0.42719 0.28167 0.87382 0.0
H1728 H 0.99584 0.25606 0.44586 0.0
H1729 H 0.01042 0.25808 0.38396 0.0
H1730 H 0.9536 0.27015 0.33754 0.0
H1731 H 0.93898 0.26851 0.39916 0.0
H1732 H 0.97499 0.23988 0.30005 0.0
H1733 H 0.98418 0.30621 0.34329 0.0
H1734 H 0.99574 0.3314 0.38707 0.0
H1735 H 0.05488 0.31124 0.37358 0.0
H1736 H 0.04363 0.28574 0.3301 0.0
H1737 H 0.00547 0.25928 0.11643 0.0
H1738 H 0.99012 0.26158 0.17742 0.0
H1739 H 0.04714 0.26745 0.22765 0.0
H1740 H 0.06233 0.2664 0.16673 0.0
H1741 H 0.02501 0.28894 0.26409 0.0
H1742 H 0.01776 0.22248 0.22384 0.0
H1743 H 0.00776 0.19535 0.1829 0.0
H1744 H 0.94755 0.21255 0.19376 0.0
H1745 H 0.95722 0.24001 0.23425 0.0
C1746 C 0.98647 0.25934 0.42254 0.0
C1747 C 0.96622 0.2622 0.42768 0.0
C1748 C 0.99483 0.26049 0.38713 0.0
C1749 C 0.98312 0.26426 0.35597 0.0
C1750 C 0.96295 0.26719 0.36106 0.0
C1751 C 0.95463 0.26637 0.39646 0.0
C1752 C 0.99176 0.26478 0.31801 0.0
C1753 C 0.98576 0.25075 0.29197 0.0
C1754 C 0.00625 0.27856 0.30775 0.0
C1755 C 0.01304 0.29395 0.33373 0.0
C1756 C 0.99963 0.30704 0.3499 0.0
C1757 C 0.00613 0.32139 0.37461 0.0
C1758 C 0.02603 0.32288 0.38318 0.0
C1759 C 0.03947 0.31005 0.36696 0.0
C1760 C 0.03304 0.29566 0.34226 0.0
C1761 C 0.0147 0.26132 0.14046 0.0
C1762 C 0.03515 0.26267 0.13654 0.0
C1763 C 0.00591 0.26241 0.17552 0.0
C1764 C 0.0174 0.26419 0.20773 0.0
C1765 C 0.03781 0.26605 0.2036 0.0
C1766 C 0.04653 0.26545 0.16855 0.0
C1767 C 0.00835 0.26391 0.24566 0.0
C1768 C 0.01427 0.278 0.27186 0.0
C1769 C 0.99407 0.24986 0.25633 0.0
C1770 C 0.98824 0.23342 0.23181 0.0
C1771 C 0.0024 0.22057 0.21728 0.0
C1772 C 0.99679 0.20512 0.19418 0.0
C1773 C 0.97703 0.20223 0.18576 0.0
C1774 C 0.96285 0.21481 0.20032 0.0
C1775 C 0.96839 0.23032 0.22333 0.0
H1776 H 0.9727 0.19022 0.16801 0.0
H1777 H 0.03103 0.33401 0.40231 0.0
H1778 H 0.7604 0.99307 0.43523 0.0
H1779 H 0.75833 0.00744 0.37346 0.0
H1780 H 0.72207 0.95939 0.33765 0.0
H1781 H 0.72459 0.94455 0.39901 0.0
H1782 H 0.7702 0.99061 0.30415 0.0
H1783 H 0.68796 0.98009 0.27624 0.0
H1784 H 0.6569 0.97782 0.31083 0.0
H1785 H 0.68109 0.01325 0.39769 0.0
H1786 H 0.71218 0.01594 0.3634 0.0
H1787 H 0.75167 0.00707 0.11328 0.0
H1788 H 0.75017 0.99199 0.1745 0.0
H1789 H 0.724 0.04451 0.21864 0.0
H1790 H 0.7255 0.05973 0.15757 0.0
H1791 H 0.7072 0.01168 0.24862 0.0
H1792 H 0.77293 0.03617 0.22824 0.0
H1793 H 0.80336 0.03865 0.19178 0.0
H1794 H 0.81229 0.97663 0.20202 0.0
H1795 H 0.78176 0.97375 0.23815 0.0
C1796 C 0.75207 0.98544 0.4143 0.0
C1797 C 0.74292 0.96743 0.42229 0.0
C1798 C 0.7509 0.99372 0.37886 0.0
C1799 C 0.74014 0.98449 0.35069 0.0
C1800 C 0.73047 0.96683 0.35882 0.0
C1801 C 0.73191 0.95837 0.39408 0.0
C1802 C 0.73911 0.99325 0.31281 0.0
C1803 C 0.75641 0.99518 0.29206 0.0
C1804 C 0.72117 0.99929 0.29678 0.0
C1805 C 0.70246 0.99803 0.31741 0.0
C1806 C 0.68662 0.98745 0.30266 0.0
C1807 C 0.66901 0.98608 0.32222 0.0
C1808 C 0.66705 0.99533 0.3565 0.0
C1809 C 0.68266 0.00602 0.37122 0.0
C1810 C 0.70029 0.00744 0.35175 0.0
C1811 C 0.74551 0.01543 0.1359 0.0
C1812 C 0.73902 0.0348 0.13037 0.0
C1813 C 0.74465 0.00675 0.17101 0.0
C1814 C 0.73727 0.01719 0.20154 0.0
C1815 C 0.72983 0.03613 0.1957 0.0
C1816 C 0.73073 0.04484 0.16062 0.0
C1817 C 0.73825 0.00884 0.2398 0.0
C1818 C 0.72097 0.00701 0.26064 0.0
C1819 C 0.75622 0.00288 0.25593 0.0
C1820 C 0.77502 0.00473 0.23572 0.0
C1821 C 0.78139 0.02306 0.22269 0.0
C1822 C 0.79863 0.02453 0.20205 0.0
C1823 C 0.80974 0.0078 0.19456 0.0
C1824 C 0.80367 0.98957 0.20787 0.0
C1825 C 0.78642 0.98802 0.22847 0.0
H1826 H 0.82305 0.00896 0.17846 0.0
H1827 H 0.65341 0.99424 0.37161 0.0
H1828 H 0.99835 0.74726 0.11872 0.0
H1829 H 0.01339 0.74505 0.18015 0.0
H1830 H 0.95662 0.73485 0.22849 0.0
H1831 H 0.94153 0.7369 0.16741 0.0
H1832 H 0.97783 0.76396 0.2652 0.0
H1833 H 0.98806 0.69793 0.22193 0.0
H1834 H 0.9998 0.67281 0.1782 0.0
H1835 H 0.05871 0.69379 0.19074 0.0
H1836 H 0.04727 0.71923 0.23418 0.0
H1837 H 0.00952 0.745 0.44832 0.0
H1838 H 0.99401 0.74283 0.38752 0.0
H1839 H 0.05093 0.73782 0.33647 0.0
H1840 H 0.06631 0.73873 0.39728 0.0
H1841 H 0.02908 0.71604 0.30032 0.0
H1842 H 0.0204 0.78263 0.33987 0.0
H1843 H 0.00983 0.80989 0.38001 0.0
H1844 H 0.95014 0.79064 0.37169 0.0
H1845 H 0.96037 0.76313 0.33179 0.0
C1846 C 0.98908 0.74435 0.14235 0.0
C1847 C 0.96869 0.74227 0.13792 0.0
C1848 C 0.99772 0.74306 0.17752 0.0
C1849 C 0.98616 0.73979 0.20912 0.0
C1850 C 0.96587 0.73742 0.20466 0.0
C1851 C 0.95727 0.73848 0.16954 0.0
C1852 C 0.99504 0.73942 0.24693 0.0
C1853 C 0.98887 0.75332 0.27308 0.0
C1854 C 0.00987 0.72595 0.25698 0.0
C1855 C 0.01677 0.7106 0.23102 0.0
C1856 C 0.00349 0.69729 0.21513 0.0
C1857 C 0.0101 0.68297 0.19044 0.0
C1858 C 0.02998 0.68174 0.18162 0.0
C1859 C 0.04331 0.69478 0.19756 0.0
C1860 C 0.03677 0.70914 0.22224 0.0
C1861 C 0.01871 0.74322 0.42414 0.0
C1862 C 0.03919 0.74201 0.42782 0.0
C1863 C 0.00982 0.74221 0.38918 0.0
C1864 C 0.02121 0.74065 0.3568 0.0
C1865 C 0.04166 0.73904 0.36066 0.0
C1866 C 0.0505 0.73957 0.39563 0.0
C1867 C 0.01199 0.74073 0.319 0.0
C1868 C 0.01807 0.72675 0.29271 0.0
C1869 C 0.99731 0.75441 0.30857 0.0
C1870 C 0.99118 0.77073 0.33309 0.0
C1871 C 0.00504 0.78412 0.34682 0.0
C1872 C 0.9991 0.79965 0.36944 0.0
C1873 C 0.97932 0.80202 0.3783 0.0
C1874 C 0.96545 0.78881 0.36472 0.0
C1875 C 0.9713 0.77326 0.34209 0.0
H1876 H 0.97474 0.81408 0.39571 0.0
H1877 H 0.03507 0.67064 0.16251 0.0
H1878 H 0.25385 0.00857 0.45816 0.0
H1879 H 0.25538 0.99371 0.39645 0.0
H1880 H 0.27121 0.04957 0.34987 0.0
H1881 H 0.27001 0.06447 0.41138 0.0
H1882 H 0.2403 0.03001 0.31127 0.0
H1883 H 0.30533 0.01651 0.3571 0.0
H1884 H 0.32917 0.00352 0.40198 0.0
H1885 H 0.3051 0.94582 0.38891 0.0
H1886 H 0.28092 0.95852 0.34431 0.0
H1887 H 0.25981 0.99725 0.129 0.0
H1888 H 0.26244 0.0127 0.18988 0.0
H1889 H 0.26349 0.95563 0.24106 0.0
H1890 H 0.26216 0.94024 0.18023 0.0
H1891 H 0.28613 0.97645 0.27808 0.0
H1892 H 0.22086 0.98807 0.23508 0.0
H1893 H 0.19549 0.99955 0.19172 0.0
H1894 H 0.21685 0.05847 0.20192 0.0
H1895 H 0.24258 0.04728 0.24483 0.0
C1896 C 0.25785 0.01767 0.43487 0.0
C1897 C 0.26188 0.03774 0.43995 0.0
C1898 C 0.25871 0.00914 0.39954 0.0
C1899 C 0.2634 0.02051 0.36837 0.0
C1900 C 0.26752 0.04049 0.37339 0.0
C1901 C 0.26696 0.04896 0.40873 0.0
C1902 C 0.26376 0.01166 0.33051 0.0
C1903 C 0.25048 0.01846 0.30382 0.0
C1904 C 0.27661 0.99617 0.32101 0.0
C1905 C 0.2912 0.98851 0.34765 0.0
C1906 C 0.30502 1.00108 0.36403 0.0
C1907 C 0.31861 0.99377 0.38937 0.0
C1908 C 0.31862 0.97387 0.39836 0.0
C1909 C 0.30506 0.96123 0.38195 0.0
C1910 C 0.29142 0.96848 0.35662 0.0
C1911 C 0.26084 0.98801 0.15324 0.0
C1912 C 0.26079 0.96749 0.14962 0.0
C1913 C 0.26213 0.99687 0.18822 0.0
C1914 C 0.26266 0.98544 0.22064 0.0
C1915 C 0.26307 0.96492 0.21684 0.0
C1916 C 0.2623 0.95608 0.18186 0.0
C1917 C 0.26255 0.99469 0.25842 0.0
C1918 C 0.27588 0.98798 0.28526 0.0
C1919 C 0.24942 0.00999 0.2683 0.0
C1920 C 0.23377 0.0168 0.24291 0.0
C1921 C 0.22021 0.00346 0.22792 0.0
C1922 C 0.20577 0.00991 0.20342 0.0
C1923 C 0.20458 0.02972 0.19404 0.0
C1924 C 0.21781 0.04313 0.20919 0.0
C1925 C 0.23232 0.03674 0.2336 0.0
H1926 H 0.19338 0.0347 0.17509 0.0
H1927 H 0.32916 0.96823 0.41799 0.0
H1928 H 0.01108 0.73729 0.94718 0.0
H1929 H 0.02034 0.72729 0.88398 0.0
H1930 H 0.9626 0.7429 0.84549 0.0
H1931 H 0.95338 0.75221 0.90795 0.0
H1932 H 0.97402 0.71357 0.80684 0.0
H1933 H 0.00352 0.77512 0.84332 0.0
H1934 H 0.02441 0.7964 0.88186 0.0
H1935 H 0.07458 0.76121 0.85503 0.0
H1936 H 0.0539 0.73955 0.81671 0.0
H1937 H 0.98734 0.75591 0.62758 0.0
H1938 H 0.98035 0.74626 0.69151 0.0
H1939 H 0.0387 0.7227 0.70143 0.0
H1940 H 0.04554 0.73217 0.63729 0.0
H1941 H 0.0306 0.74988 0.7552 0.0
H1942 H 0.99984 0.69228 0.70768 0.0
H1943 H 0.97757 0.67334 0.66766 0.0
H1944 H 0.92814 0.70376 0.71345 0.0
H1945 H 0.95014 0.72309 0.75339 0.0
C1946 C 1.00023 0.73783 0.92539 0.0
C1947 C 0.98151 0.74549 0.93249 0.0
C1948 C 0.00557 0.7324 0.88912 0.0
C1949 C 0.99231 0.73471 0.85946 0.0
C1950 C 0.9732 0.74096 0.86746 0.0
C1951 C 0.96792 0.74631 0.90334 0.0
C1952 C 0.99836 0.73246 0.81976 0.0
C1953 C 0.98642 0.72152 0.79563 0.0
C1954 C 0.01469 0.74255 0.80475 0.0
C1955 C 0.02714 0.75558 0.82759 0.0
C1956 C 0.01898 0.77185 0.84586 0.0
C1957 C 0.03078 0.78398 0.86764 0.0
C1958 C 0.0508 0.78012 0.871 0.0
C1959 C 0.05906 0.76415 0.85249 0.0
C1960 C 0.04731 0.75194 0.83075 0.0
C1961 C 0.99827 0.74772 0.6428 0.0
C1962 C 0.01674 0.74417 0.62707 0.0
C1963 C 0.99437 0.74238 0.67953 0.0
C1964 C 0.00899 0.7337 0.70151 0.0
C1965 C 0.02714 0.72928 0.68514 0.0
C1966 C 0.03094 0.73441 0.64829 0.0
C1967 C 0.00602 0.73133 0.74229 0.0
C1968 C 0.01849 0.74153 0.76652 0.0
C1969 C 0.98997 0.72088 0.75725 0.0
C1970 C 0.97667 0.70923 0.73338 0.0
C1971 C 0.98424 0.69504 0.70903 0.0
C1972 C 0.97165 0.68421 0.68639 0.0
C1973 C 0.95146 0.68737 0.68797 0.0
C1974 C 0.94379 0.70133 0.71225 0.0
C1975 C 0.95631 0.71221 0.73494 0.0
H1976 H 0.94174 0.67897 0.67041 0.0
H1977 H 0.05991 0.78953 0.88787 0.0
H1978 H 0.2321 0.99354 0.64898 0.0
H1979 H 0.24094 0.98665 0.71307 0.0
H1980 H 0.2888 0.02763 0.70548 0.0
H1981 H 0.28003 0.03435 0.64069 0.0
H1982 H 0.29658 0.99504 0.75476 0.0
H1983 H 0.24813 0.04478 0.73495 0.0
H1984 H 0.21798 0.05832 0.70755 0.0
H1985 H 0.18396 0.01342 0.76024 0.0
H1986 H 0.21398 0.99939 0.7874 0.0
H1987 H 0.25098 0.01726 0.95451 0.0
H1988 H 0.25919 0.02659 0.89085 0.0
H1989 H 0.27733 0.96721 0.86836 0.0
H1990 H 0.26954 0.95816 0.93196 0.0
H1991 H 0.24041 0.01395 0.8342 0.0
H1992 H 0.30562 0.96372 0.7923 0.0
H1993 H 0.33641 0.95144 0.8193 0.0
H1994 H 0.33869 1.00112 0.89205 0.0
H1995 H 0.30805 0.01384 0.8652 0.0
C1996 C 0.24511 1.00035 0.66039 0.0
C1997 C 0.25559 0.01421 0.63964 0.0
C1998 C 0.25004 0.99656 0.6972 0.0
C1999 C 0.26534 0.00685 0.71443 0.0
C2000 C 0.27696 0.01946 0.69284 0.0
C2001 C 0.27207 0.02317 0.65569 0.0
C2002 C 0.2672 0.00637 0.75563 0.0
C2003 C 0.28436 0.99919 0.77221 0.0
C2004 C 0.25147 0.01231 0.7786 0.0
C2005 C 0.23332 0.02096 0.763 0.0
C2006 C 0.23423 0.03773 0.74053 0.0
C2007 C 0.21717 0.04549 0.72503 0.0
C2008 C 0.19907 0.03672 0.73211 0.0
C2009 C 0.19799 0.02019 0.75477 0.0
C2010 C 0.21503 0.01234 0.77024 0.0
C2011 C 0.25778 0.00654 0.93651 0.0
C2012 C 0.2602 0.98714 0.94849 0.0
C2013 C 0.26218 0.01177 0.89988 0.0
C2014 C 0.26896 0.99766 0.87442 0.0
C2015 C 0.27255 0.97855 0.88727 0.0
C2016 C 0.2682 0.97338 0.92383 0.0
C2017 C 0.26966 0.00206 0.83379 0.0
C2018 C 0.25284 0.00995 0.8171 0.0
C2019 C 0.28582 0.99702 0.81096 0.0
C2020 C 0.30444 0.98965 0.82688 0.0
C2021 C 0.31274 0.97208 0.81391 0.0
C2022 C 0.33016 0.96503 0.82923 0.0
C2023 C 0.33948 0.97547 0.85743 0.0
C2024 C 0.33143 0.99302 0.87029 0.0
C2025 C 0.31401 1.00014 0.85507 0.0
H2026 H 0.35295 0.96997 0.86928 0.0
H2027 H 0.18587 0.04274 0.72008 0.0
H2028 H 0.0483 0.24596 0.9075 0.0
H2029 H 0.04005 0.25654 0.8455 0.0
H2030 H 0.98426 0.27783 0.88455 0.0
H2031 H 0.99251 0.26663 0.94761 0.0
H2032 H 0.97933 0.25596 0.82439 0.0
H2033 H 0.02093 0.30975 0.85128 0.0
H2034 H 0.05035 0.32679 0.87437 0.0
H2035 H 0.08585 0.29633 0.79501 0.0
H2036 H 0.05674 0.27888 0.77179 0.0
H2037 H 0.961 0.27638 0.63627 0.0
H2038 H 0.96802 0.28553 0.70054 0.0
H2039 H 0.02381 0.25619 0.6934 0.0
H2040 H 0.01669 0.24699 0.62928 0.0
H2041 H 0.0253 0.28948 0.73914 0.0
H2042 H 0.98499 0.23164 0.72214 0.0
H2043 H 0.95603 0.21405 0.69853 0.0
H2044 H 0.91831 0.25251 0.75992 0.0
H2045 H 0.94709 0.27054 0.7834 0.0
C2046 C 0.03441 0.25331 0.90319 0.0
C2047 C 0.02109 0.25554 0.93253 0.0
C2048 C 0.02974 0.25949 0.86756 0.0
C2049 C 0.0116 0.26827 0.85999 0.0
C2050 C 0.99842 0.27122 0.88958 0.0
C2051 C 0.00319 0.26502 0.92569 0.0
C2052 C 0.00614 0.27248 0.82063 0.0
C2053 C 0.98913 0.26382 0.80606 0.0
C2054 C 0.01904 0.28237 0.79614 0.0
C2055 C 0.03662 0.29294 0.80986 0.0
C2056 C 0.03503 0.30659 0.83888 0.0
C2057 C 0.05165 0.31633 0.85198 0.0
C2058 C 0.06994 0.31262 0.83617 0.0
C2059 C 0.07166 0.29919 0.8072 0.0
C2060 C 0.05509 0.2894 0.79401 0.0
C2061 C 0.9752 0.27283 0.64785 0.0
C2062 C 0.98856 0.26147 0.62748 0.0
C2063 C 0.97908 0.2778 0.68479 0.0
C2064 C 0.99636 0.27135 0.70211 0.0
C2065 C 0.01042 0.26142 0.68074 0.0
C2066 C 0.00645 0.25633 0.64392 0.0
C2067 C 0.99879 0.27266 0.74314 0.0
C2068 C 0.01527 0.28218 0.75782 0.0
C2069 C 0.98543 0.26359 0.76777 0.0
C2070 C 0.96816 0.25258 0.75415 0.0
C2071 C 0.97051 0.23643 0.73038 0.0
C2072 C 0.95414 0.22637 0.71704 0.0
C2073 C 0.93534 0.2322 0.72763 0.0
C2074 C 0.93288 0.24805 0.75167 0.0
C2075 C 0.94922 0.25819 0.765 0.0
H2076 H 0.92267 0.2244 0.71727 0.0
H2077 H 0.08279 0.32016 0.8463 0.0
H2078 H 0.72493 0.97271 0.62098 0.0
H2079 H 0.71508 0.97997 0.68505 0.0
H2080 H 0.76537 0.01766 0.69714 0.0
H2081 H 0.77501 0.01051 0.63366 0.0
H2082 H 0.73528 0.97006 0.74485 0.0
H2083 H 0.75957 0.05117 0.76267 0.0
H2084 H 0.75904 0.08187 0.72688 0.0
H2085 H 0.70968 0.06104 0.66476 0.0
H2086 H 0.70975 0.0303 0.70046 0.0
H2087 H 0.7755 0.9939 0.9185 0.0
H2088 H 0.76594 0.98733 0.85474 0.0
H2089 H 0.71508 0.02408 0.86842 0.0
H2090 H 0.72477 0.03067 0.93288 0.0
H2091 H 0.73554 0.03461 0.80794 0.0
H2092 H 0.70992 0.97449 0.85266 0.0
H2093 H 0.70969 0.94364 0.88801 0.0
H2094 H 0.75863 0.92255 0.82497 0.0
H2095 H 0.75934 0.95337 0.78957 0.0
C2096 C 0.73327 0.9833 0.63681 0.0
C2097 C 0.75047 0.99144 0.62202 0.0
C2098 C 0.72783 0.98721 0.67366 0.0
C2099 C 0.73939 0.99947 0.69623 0.0
C2100 C 0.75592 0.00847 0.68048 0.0
C2101 C 0.7614 0.00445 0.64398 0.0
C2102 C 0.73571 1.00132 0.737 0.0
C2103 C 0.7351 0.9842 0.75855 0.0
C2104 C 0.73515 0.01972 0.75523 0.0
C2105 C 0.73473 0.03837 0.73417 0.0
C2106 C 0.7485 0.05318 0.74156 0.0
C2107 C 0.74831 0.07058 0.72123 0.0
C2108 C 0.73436 0.07339 0.69352 0.0
C2109 C 0.72052 0.05882 0.68616 0.0
C2110 C 0.72064 0.0414 0.7064 0.0
C2111 C 0.76183 0.99993 0.90841 0.0
C2112 C 0.75066 0.01244 0.93098 0.0
C2113 C 0.7564 0.99624 0.87177 0.0
C2114 C 0.7397 0.00511 0.85645 0.0
C2115 C 0.72798 0.01697 0.87949 0.0
C2116 C 0.73333 0.02049 0.91652 0.0
C2117 C 0.73586 0.00335 0.81574 0.0
C2118 C 0.73524 0.02048 0.79422 0.0
C2119 C 0.73516 0.98496 0.79751 0.0
C2120 C 0.73472 0.9663 0.81855 0.0
C2121 C 0.72071 0.96332 0.84647 0.0
C2122 C 0.72049 0.94583 0.8665 0.0
C2123 C 0.73415 0.93115 0.85876 0.0
C2124 C 0.74805 0.93392 0.83092 0.0
C2125 C 0.74834 0.95139 0.81081 0.0
H2126 H 0.73396 0.91762 0.87432 0.0
H2127 H 0.73426 0.08686 0.67778 0.0
H2128 H 0.4432 0.77521 0.89636 0.0
H2129 H 0.45883 0.77698 0.83572 0.0
H2130 H 0.51067 0.74973 0.88006 0.0
H2131 H 0.49512 0.74785 0.94087 0.0
H2132 H 0.49157 0.79384 0.80746 0.0
H2133 H 0.52971 0.71925 0.81513 0.0
H2134 H 0.52671 0.68812 0.84929 0.0
H2135 H 0.4646 0.69666 0.8587 0.0
H2136 H 0.46722 0.72771 0.82425 0.0
H2137 H 0.55942 0.7785 0.6575 0.0
H2138 H 0.54416 0.7804 0.71859 0.0
H2139 H 0.49677 0.74387 0.68071 0.0
H2140 H 0.51161 0.74234 0.61922 0.0
H2141 H 0.51317 0.73155 0.74946 0.0
H2142 H 0.48789 0.79011 0.6924 0.0
H2143 H 0.49049 0.82163 0.65957 0.0
H2144 H 0.52523 0.84509 0.74806 0.0
H2145 H 0.52306 0.81359 0.78119 0.0
C2146 C 0.45801 0.76976 0.89345 0.0
C2147 C 0.46774 0.76112 0.92364 0.0
C2148 C 0.46696 0.77082 0.85862 0.0
C2149 C 0.48584 0.76321 0.85295 0.0
C2150 C 0.49596 0.75539 0.88341 0.0
C2151 C 0.48702 0.75434 0.9183 0.0
C2152 C 0.49448 0.76268 0.81491 0.0
C2153 C 0.49636 0.78021 0.7949 0.0
C2154 C 0.50061 0.74492 0.7981 0.0
C2155 C 0.4987 0.72585 0.81735 0.0
C2156 C 0.5154 0.71439 0.82425 0.0
C2157 C 0.51377 0.69679 0.84373 0.0
C2158 C 0.49548 0.69044 0.85623 0.0
C2159 C 0.47877 0.70162 0.84908 0.0
C2160 C 0.48032 0.71922 0.82958 0.0
C2161 C 0.54565 0.771 0.66192 0.0
C2162 C 0.53691 0.76009 0.63323 0.0
C2163 C 0.53694 0.77209 0.69701 0.0
C2164 C 0.51935 0.76217 0.70445 0.0
C2165 C 0.51042 0.75152 0.6758 0.0
C2166 C 0.51896 0.75067 0.64053 0.0
C2167 C 0.51041 0.76274 0.74218 0.0
C2168 C 0.50848 0.74518 0.76211 0.0
C2169 C 0.50423 0.78047 0.75888 0.0
C2170 C 0.50547 0.79943 0.73909 0.0
C2171 C 0.49622 0.80193 0.70471 0.0
C2172 C 0.49759 0.81981 0.68608 0.0
C2173 C 0.50806 0.83534 0.70167 0.0
C2174 C 0.51715 0.83304 0.73599 0.0
C2175 C 0.51583 0.81519 0.75472 0.0
H2176 H 0.50911 0.84916 0.68721 0.0
H2177 H 0.49426 0.67685 0.87143 0.0
H2178 H 0.22548 0.44094 0.87581 0.0
H2179 H 0.22377 0.45499 0.81387 0.0
H2180 H 0.26167 0.50218 0.84822 0.0
H2181 H 0.26245 0.48884 0.91068 0.0
H2182 H 0.23686 0.51656 0.80356 0.0
H2183 H 0.27767 0.45932 0.79739 0.0
H2184 H 0.28592 0.42438 0.80497 0.0
H2185 H 0.23913 0.40846 0.73159 0.0
H2186 H 0.23044 0.44332 0.72395 0.0
H2187 H 0.28472 0.54072 0.6363 0.0
H2188 H 0.27459 0.5292 0.69709 0.0
H2189 H 0.22861 0.495 0.647 0.0
H2190 H 0.23869 0.50684 0.58538 0.0
H2191 H 0.25274 0.4736 0.69703 0.0
H2192 H 0.21609 0.53337 0.69766 0.0
H2193 H 0.2111 0.56888 0.68963 0.0
H2194 H 0.25403 0.58066 0.77344 0.0
H2195 H 0.2595 0.54522 0.7816 0.0
C2196 C 0.23331 0.45442 0.87036 0.0
C2197 C 0.24443 0.46349 0.89834 0.0
C2198 C 0.23245 0.46239 0.83466 0.0
C2199 C 0.24305 0.47942 0.82566 0.0
C2200 C 0.25347 0.48895 0.85402 0.0
C2201 C 0.25404 0.48118 0.88988 0.0
C2202 C 0.24375 0.48706 0.78675 0.0
C2203 C 0.24046 0.50713 0.7804 0.0
C2204 C 0.24804 0.47484 0.75598 0.0
C2205 C 0.25326 0.4539 0.76045 0.0
C2206 C 0.26906 0.44836 0.78308 0.0
C2207 C 0.27382 0.42857 0.78736 0.0
C2208 C 0.26302 0.41421 0.76886 0.0
C2209 C 0.24746 0.4196 0.74596 0.0
C2210 C 0.24261 0.43937 0.74164 0.0
C2211 C 0.2722 0.53102 0.63818 0.0
C2212 C 0.26246 0.52475 0.60601 0.0
C2213 C 0.2664 0.52446 0.67305 0.0
C2214 C 0.25078 0.51126 0.67683 0.0
C2215 C 0.24066 0.50524 0.64482 0.0
C2216 C 0.24631 0.51212 0.60968 0.0
C2217 C 0.24612 0.50305 0.71413 0.0
C2218 C 0.24878 0.48292 0.72018 0.0
C2219 C 0.24167 0.51527 0.74469 0.0
C2220 C 0.23829 0.53661 0.74007 0.0
C2221 C 0.22457 0.54353 0.7142 0.0
C2222 C 0.22164 0.56365 0.70966 0.0
C2223 C 0.23226 0.57702 0.73097 0.0
C2224 C 0.24581 0.57029 0.75695 0.0
C2225 C 0.24881 0.55018 0.76158 0.0
H2226 H 0.22997 0.59259 0.7274 0.0
H2227 H 0.26673 0.3989 0.7722 0.0
H2228 H 0.55984 0.22404 0.8952 0.0
H2229 H 0.54484 0.22349 0.83393 0.0
H2230 H 0.50237 0.26631 0.86973 0.0
H2231 H 0.5164 0.26576 0.93159 0.0
H2232 H 0.48475 0.24391 0.82665 0.0
H2233 H 0.54684 0.27666 0.81487 0.0
H2234 H 0.58271 0.28014 0.81975 0.0
H2235 H 0.59056 0.23063 0.7479 0.0
H2236 H 0.55472 0.22674 0.74294 0.0
H2237 H 0.46207 0.29196 0.6599 0.0
H2238 H 0.47432 0.28153 0.71972 0.0
H2239 H 0.50259 0.23191 0.66872 0.0
H2240 H 0.4902 0.24246 0.60778 0.0
H2241 H 0.52728 0.25281 0.71685 0.0
H2242 H 0.46287 0.225 0.72281 0.0
H2243 H 0.42687 0.22507 0.71769 0.0
H2244 H 0.42327 0.26979 0.80099 0.0
H2245 H 0.45926 0.27022 0.80622 0.0
C2246 C 0.54718 0.23322 0.89017 0.0
C2247 C 0.53963 0.24526 0.91843 0.0
C2248 C 0.53869 0.23305 0.85482 0.0
C2249 C 0.52275 0.24534 0.84635 0.0
C2250 C 0.51473 0.25678 0.87501 0.0
C2251 C 0.52292 0.25659 0.91057 0.0
C2252 C 0.51456 0.24663 0.80779 0.0
C2253 C 0.49413 0.24602 0.8028 0.0
C2254 C 0.5266 0.24892 0.77605 0.0
C2255 C 0.54813 0.25127 0.77889 0.0
C2256 C 0.55623 0.26645 0.80031 0.0
C2257 C 0.57655 0.2685 0.80306 0.0
C2258 C 0.58891 0.25557 0.78424 0.0
C2259 C 0.58097 0.24061 0.76252 0.0
C2260 C 0.56066 0.23848 0.75971 0.0
C2261 C 0.47073 0.27868 0.6612 0.0
C2262 C 0.47515 0.26806 0.62883 0.0
C2263 C 0.47767 0.27267 0.69567 0.0
C2264 C 0.48929 0.25583 0.69906 0.0
C2265 C 0.49358 0.24493 0.66692 0.0
C2266 C 0.4864 0.25088 0.63213 0.0
C2267 C 0.49757 0.2505 0.73606 0.0
C2268 C 0.51798 0.25041 0.74074 0.0
C2269 C 0.4855 0.24806 0.76762 0.0
C2270 C 0.46381 0.24771 0.76473 0.0
C2271 C 0.45442 0.23495 0.73986 0.0
C2272 C 0.43401 0.23489 0.73696 0.0
C2273 C 0.42279 0.24745 0.75896 0.0
C2274 C 0.43197 0.26007 0.78397 0.0
C2275 C 0.45238 0.26021 0.78694 0.0
H2276 H 0.40699 0.24738 0.75667 0.0
H2277 H 0.60463 0.25719 0.7864 0.0
H2278 H 0.75084 0.495 0.62527 0.0
H2279 H 0.7532 0.51065 0.68624 0.0
H2280 H 0.76719 0.4549 0.7353 0.0
H2281 H 0.76515 0.43923 0.67469 0.0
H2282 H 0.73733 0.47562 0.77332 0.0
H2283 H 0.80241 0.48708 0.72552 0.0
H2284 H 0.82624 0.49914 0.67969 0.0
H2285 H 0.8037 0.55752 0.6919 0.0
H2286 H 0.77954 0.54574 0.73746 0.0
H2287 H 0.75923 0.50868 0.95442 0.0
H2288 H 0.76079 0.49287 0.89372 0.0
H2289 H 0.7634 0.54963 0.84154 0.0
H2290 H 0.76317 0.56532 0.90209 0.0
H2291 H 0.78489 0.52805 0.80409 0.0
H2292 H 0.71968 0.51843 0.84934 0.0
H2293 H 0.69417 0.50778 0.89319 0.0
H2294 H 0.7138 0.44825 0.88319 0.0
H2295 H 0.73966 0.45859 0.83977 0.0
C2296 C 0.75463 0.4861 0.64895 0.0
C2297 C 0.75786 0.46582 0.64484 0.0
C2298 C 0.75596 0.49508 0.68385 0.0
C2299 C 0.76036 0.48397 0.71551 0.0
C2300 C 0.76373 0.4638 0.71141 0.0
C2301 C 0.76268 0.45488 0.67655 0.0
C2302 C 0.76113 0.49321 0.75302 0.0
C2303 C 0.74788 0.48693 0.78023 0.0
C2304 C 0.77446 0.50839 0.76183 0.0
C2305 C 0.78905 0.51549 0.73462 0.0
C2306 C 0.80243 0.50246 0.71821 0.0
C2307 C 0.81602 0.50925 0.69232 0.0
C2308 C 0.81645 0.52908 0.68281 0.0
C2309 C 0.80333 0.54217 0.69925 0.0
C2310 C 0.7897 0.53544 0.72513 0.0
C2311 C 0.76038 0.51776 0.92999 0.0
C2312 C 0.7611 0.53829 0.93326 0.0
C2313 C 0.76105 0.50871 0.89512 0.0
C2314 C 0.76171 0.51996 0.86248 0.0
C2315 C 0.76287 0.54046 0.86592 0.0
C2316 C 0.76273 0.54948 0.90076 0.0
C2317 C 0.76099 0.51055 0.82484 0.0
C2318 C 0.77426 0.51678 0.79745 0.0
C2319 C 0.74735 0.4956 0.81563 0.0
C2320 C 0.73172 0.48932 0.84156 0.0
C2321 C 0.71863 0.50309 0.85667 0.0
C2322 C 0.70411 0.4971 0.88143 0.0
C2323 C 0.70238 0.47735 0.89098 0.0
C2324 C 0.71517 0.46354 0.87578 0.0
C2325 C 0.72976 0.46946 0.85109 0.0
H2326 H 0.6911 0.47273 0.9101 0.0
H2327 H 0.82698 0.53431 0.66276 0.0
H2328 H 0.49426 0.27339 0.12491 0.0
H2329 H 0.48709 0.26565 0.18937 0.0
H2330 H 0.52876 0.21823 0.18545 0.0
H2331 H 0.536 0.22613 0.12061 0.0
H2332 H 0.47558 0.23662 0.23538 0.0
H2333 H 0.55665 0.22157 0.26449 0.0
H2334 H 0.58885 0.22659 0.23488 0.0
H2335 H 0.56701 0.27789 0.18008 0.0
H2336 H 0.53483 0.27335 0.20986 0.0
H2337 H 0.47927 0.23159 0.43085 0.0
H2338 H 0.48812 0.22066 0.36822 0.0
H2339 H 0.51618 0.27624 0.34815 0.0
H2340 H 0.50736 0.28705 0.41029 0.0
H2341 H 0.53517 0.24762 0.31112 0.0
H2342 H 0.46823 0.26949 0.32832 0.0
H2343 H 0.43568 0.26793 0.35777 0.0
H2344 H 0.42831 0.20895 0.31875 0.0
H2345 H 0.461 0.21006 0.28962 0.0
C2346 C 0.50112 0.26066 0.13721 0.0
C2347 C 0.51539 0.25012 0.11749 0.0
C2348 C 0.49713 0.25632 0.17426 0.0
C2349 C 0.50759 0.24155 0.1927 0.0
C2350 C 0.52058 0.2298 0.17203 0.0
C2351 C 0.5245 0.23411 0.13475 0.0
C2352 C 0.50686 0.2406 0.23406 0.0
C2353 C 0.48868 0.23863 0.25191 0.0
C2354 C 0.52382 0.24365 0.25597 0.0
C2355 C 0.54331 0.24697 0.23904 0.0
C2356 C 0.55878 0.23397 0.24628 0.0
C2357 C 0.57702 0.23673 0.22947 0.0
C2358 C 0.57995 0.2525 0.2055 0.0
C2359 C 0.56471 0.26565 0.19856 0.0
C2360 C 0.54648 0.263 0.21542 0.0
C2361 C 0.48818 0.24104 0.41369 0.0
C2362 C 0.49286 0.26008 0.42562 0.0
C2363 C 0.493 0.23491 0.37765 0.0
C2364 C 0.50257 0.24773 0.35305 0.0
C2365 C 0.50883 0.26602 0.36637 0.0
C2366 C 0.50387 0.27218 0.40207 0.0
C2367 C 0.50391 0.2435 0.31247 0.0
C2368 C 0.52217 0.24482 0.29471 0.0
C2369 C 0.48696 0.24027 0.29061 0.0
C2370 C 0.46712 0.23978 0.30717 0.0
C2371 C 0.45969 0.25616 0.32618 0.0
C2372 C 0.44124 0.25536 0.34283 0.0
C2373 C 0.42996 0.23833 0.34023 0.0
C2374 C 0.43709 0.22211 0.32082 0.0
C2375 C 0.45558 0.22281 0.30425 0.0
H2376 H 0.41569 0.23772 0.35318 0.0
H2377 H 0.59404 0.25456 0.19238 0.0
H2378 H 0.76251 0.50486 0.45581 0.0
H2379 H 0.77232 0.51582 0.39353 0.0
H2380 H 0.75722 0.459 0.34959 0.0
H2381 H 0.74796 0.4481 0.41107 0.0
H2382 H 0.78721 0.4719 0.31292 0.0
H2383 H 0.72473 0.49905 0.3501 0.0
H2384 H 0.70282 0.51844 0.39018 0.0
H2385 H 0.73705 0.57001 0.36909 0.0
H2386 H 0.75933 0.55083 0.32929 0.0
H2387 H 0.75094 0.49032 0.12989 0.0
H2388 H 0.75872 0.48105 0.19376 0.0
H2389 H 0.77674 0.54039 0.21666 0.0
H2390 H 0.7688 0.54958 0.153 0.0
H2391 H 0.75026 0.52908 0.26546 0.0
H2392 H 0.80973 0.50153 0.21913 0.0
H2393 H 0.83032 0.48119 0.17832 0.0
H2394 H 0.80042 0.42945 0.21515 0.0
H2395 H 0.77945 0.4495 0.25583 0.0
C2396 C 0.76196 0.49459 0.433 0.0
C2397 C 0.75444 0.47564 0.43834 0.0
C2398 C 0.76732 0.5009 0.39727 0.0
C2399 C 0.76518 0.48837 0.3664 0.0
C2400 C 0.75902 0.46904 0.37255 0.0
C2401 C 0.75367 0.46282 0.40788 0.0
C2402 C 0.76759 0.49541 0.32735 0.0
C2403 C 0.77911 0.48441 0.30258 0.0
C2404 C 0.7573 0.51189 0.31355 0.0
C2405 C 0.74382 0.52347 0.33713 0.0
C2406 C 0.72765 0.5145 0.35422 0.0
C2407 C 0.71516 0.52545 0.37686 0.0
C2408 C 0.71858 0.54543 0.38228 0.0
C2409 C 0.73445 0.55452 0.36495 0.0
C2410 C 0.74701 0.54362 0.34235 0.0
C2411 C 0.75753 0.50109 0.14806 0.0
C2412 C 0.75986 0.52053 0.13614 0.0
C2413 C 0.76179 0.49586 0.18478 0.0
C2414 C 0.76836 0.51 0.21037 0.0
C2415 C 0.77172 0.52917 0.1977 0.0
C2416 C 0.76748 0.53436 0.1611 0.0
C2417 C 0.76968 0.50541 0.25086 0.0
C2418 C 0.75872 0.51681 0.27584 0.0
C2419 C 0.7803 0.48917 0.2647 0.0
C2420 C 0.79292 0.47705 0.24034 0.0
C2421 C 0.80744 0.48583 0.21833 0.0
C2422 C 0.8192 0.47435 0.19526 0.0
C2423 C 0.81666 0.45405 0.19409 0.0
C2424 C 0.80237 0.44518 0.21607 0.0
C2425 C 0.79056 0.45659 0.23918 0.0
H2426 H 0.82578 0.44519 0.17621 0.0
H2427 H 0.70891 0.55388 0.39983 0.0
H2428 H 0.55273 0.75817 0.40455 0.0
H2429 H 0.54156 0.76644 0.3427 0.0
H2430 H 0.48174 0.76654 0.38118 0.0
H2431 H 0.49312 0.75776 0.44366 0.0
H2432 H 0.48476 0.74423 0.32266 0.0
H2433 H 0.50556 0.80929 0.34761 0.0
H2434 H 0.52765 0.83549 0.36908 0.0
H2435 H 0.57016 0.81883 0.28746 0.0
H2436 H 0.54845 0.79233 0.26581 0.0
H2437 H 0.45054 0.76238 0.14413 0.0
H2438 H 0.45917 0.7709 0.20773 0.0
H2439 H 0.52015 0.76117 0.18284 0.0
H2440 H 0.51143 0.75272 0.11871 0.0
H2441 H 0.51402 0.79198 0.23534 0.0
H2442 H 0.49453 0.72487 0.216 0.0
H2443 H 0.47251 0.69854 0.19474 0.0
H2444 H 0.42734 0.71951 0.26728 0.0
H2445 H 0.44899 0.74621 0.28847 0.0
C2446 C 0.53723 0.76068 0.40017 0.0
C2447 C 0.52383 0.75762 0.42908 0.0
C2448 C 0.53082 0.76545 0.36464 0.0
C2449 C 0.51076 0.76733 0.35691 0.0
C2450 C 0.49732 0.76529 0.38631 0.0
C2451 C 0.5038 0.76054 0.42217 0.0
C2452 C 0.50404 0.76906 0.31756 0.0
C2453 C 0.49082 0.75503 0.30391 0.0
C2454 C 0.5123 0.78273 0.29244 0.0
C2455 C 0.5254 0.79872 0.30523 0.0
C2456 C 0.51967 0.81112 0.33439 0.0
C2457 C 0.53212 0.82604 0.34657 0.0
C2458 C 0.55031 0.82881 0.32969 0.0
C2459 C 0.55607 0.81667 0.30052 0.0
C2460 C 0.54368 0.80172 0.28824 0.0
C2461 C 0.46587 0.76291 0.1518 0.0
C2462 C 0.48035 0.75725 0.12633 0.0
C2463 C 0.47078 0.76758 0.1883 0.0
C2464 C 0.49029 0.76639 0.20039 0.0
C2465 C 0.505 0.76224 0.17422 0.0
C2466 C 0.50005 0.75759 0.13747 0.0
C2467 C 0.49487 0.76715 0.24081 0.0
C2468 C 0.50775 0.78147 0.25444 0.0
C2469 C 0.48629 0.75378 0.26605 0.0
C2470 C 0.47329 0.73768 0.25348 0.0
C2471 C 0.47984 0.72398 0.22717 0.0
C2472 C 0.46743 0.70897 0.21516 0.0
C2473 C 0.44851 0.70739 0.22956 0.0
C2474 C 0.44198 0.72078 0.25608 0.0
C2475 C 0.45431 0.73586 0.26809 0.0
H2476 H 0.43893 0.69576 0.22025 0.0
H2477 H 0.55993 0.84037 0.33917 0.0
H2478 H 0.2713 0.50751 0.10662 0.0
H2479 H 0.2614 0.51556 0.16974 0.0
H2480 H 0.21484 0.47305 0.16309 0.0
H2481 H 0.22462 0.46522 0.09924 0.0
H2482 H 0.20483 0.50544 0.20826 0.0
H2483 H 0.25652 0.45864 0.19737 0.0
H2484 H 0.28798 0.4459 0.17405 0.0
H2485 H 0.31831 0.49413 0.22444 0.0
H2486 H 0.28698 0.50735 0.24751 0.0
H2487 H 0.2474 0.49605 0.41391 0.0
H2488 H 0.24081 0.4826 0.35206 0.0
H2489 H 0.22082 0.53941 0.31609 0.0
H2490 H 0.22722 0.55263 0.3775 0.0
H2491 H 0.26041 0.49335 0.29358 0.0
H2492 H 0.19249 0.5369 0.24032 0.0
H2493 H 0.16031 0.54773 0.26359 0.0
H2494 H 0.16075 0.50157 0.34403 0.0
H2495 H 0.19278 0.49028 0.32094 0.0
C2496 C 0.25836 0.50057 0.11798 0.0
C2497 C 0.24848 0.48604 0.09778 0.0
C2498 C 0.25285 0.50499 0.15427 0.0
C2499 C 0.23761 0.49465 0.17156 0.0
C2500 C 0.22664 0.48124 0.15042 0.0
C2501 C 0.2321 0.47691 0.11379 0.0
C2502 C 0.23488 0.49628 0.21247 0.0
C2503 C 0.21693 0.50278 0.22698 0.0
C2504 C 0.25045 0.49216 0.23718 0.0
C2505 C 0.26938 0.48405 0.22397 0.0
C2506 C 0.26988 0.46659 0.20331 0.0
C2507 C 0.28769 0.45928 0.19013 0.0
C2508 C 0.30513 0.46921 0.19772 0.0
C2509 C 0.30479 0.48645 0.21858 0.0
C2510 C 0.28701 0.49385 0.23173 0.0
C2511 C 0.24061 0.50534 0.39332 0.0
C2512 C 0.2375 0.52531 0.4007 0.0
C2513 C 0.23713 0.49774 0.35775 0.0
C2514 C 0.23029 0.50994 0.3291 0.0
C2515 C 0.22576 0.52952 0.33753 0.0
C2516 C 0.22936 0.53709 0.37282 0.0
C2517 C 0.23054 0.50328 0.2896 0.0
C2518 C 0.24813 0.49583 0.27517 0.0
C2519 C 0.21453 0.50626 0.26521 0.0
C2520 C 0.19513 0.51283 0.27901 0.0
C2521 C 0.18568 0.52899 0.26283 0.0
C2522 C 0.16747 0.53522 0.27603 0.0
C2523 C 0.15851 0.52537 0.30532 0.0
C2524 C 0.16773 0.50923 0.32143 0.0
C2525 C 0.18593 0.50293 0.30833 0.0
H2526 H 0.14442 0.53023 0.31551 0.0
H2527 H 0.3189 0.46353 0.18748 0.0
loop_
_geom_bond_atom_site_label_1
_geom_bond_atom_site_label_2
_geom_bond_distance
_geom_bond_site_symmetry_2
_ccdc_geom_bond_type
C0 C1 1.351 . S
C0 N3 1.368 . S
C0 H5 0.931 . S
C1 C0 1.351 . S
C1 N2 1.373 1_556 S
C1 H29 0.930 . S
N2 C1 1.373 1_554 S
N2 C4 1.340 . S
N3 C0 1.368 . S
N3 C4 1.321 1_556 S
N3 Co6 2.135 1_556 S
C4 N2 1.340 . S
C4 N3 1.321 1_554 S
C4 H28 0.930 . S
H5 C0 0.931 . S
Co6 N3 2.135 1_554 S
Co6 N9 2.121 . S
Co6 O14 2.055 1_554 S
Co6 O17 2.039 . S
Co6 N20 2.140 . S
C7 O8 1.227 . S
C7 O17 1.265 . S
O8 C7 1.227 . S
N9 Co6 2.121 . S
N9 C11 1.375 . S
N9 C12 1.313 1_454 S
C10 C11 1.338 1_655 S
C10 N13 1.377 . S
C10 H30 0.930 . S
C11 N9 1.375 . S
C11 C10 1.338 1_455 S
C11 H15 0.931 . S
C12 N9 1.313 1_656 S
C12 N13 1.344 1_556 S
C12 H16 0.930 . S
N13 C10 1.377 . S
N13 C12 1.344 1_554 S
O14 Co6 2.055 1_556 S
O14 C18 1.253 . S
H15 C11 0.931 . S
H16 C12 0.930 . S
O17 Co6 2.039 . S
O17 C7 1.265 . S
C18 O14 1.253 . S
C18 O19 1.227 . S
O19 C18 1.227 . S
N20 Co6 2.140 . S
N20 C23 1.346 . S
N20 C24 1.345 1_554 S
C21 C22 1.387 . S
C21 C25 1.391 1_554 S
C22 C21 1.387 . S
C22 C23 1.369 . S
C22 H31 0.929 . S
C23 N20 1.346 . S
C23 C22 1.369 . S
C23 H26 0.928 . S
C24 N20 1.345 1_556 S
C24 C25 1.371 . S
C24 H27 0.931 . S
C25 C21 1.391 1_556 S
C25 C24 1.371 . S
C25 H32 0.930 . S
H26 C23 0.928 . S
H27 C24 0.931 . S
H28 C4 0.930 . S
H29 C1 0.930 . S
H30 C10 0.930 . S
H31 C22 0.929 . S
H32 C25 0.930 . S
C33 C34 1.351 . S
C33 N36 1.368 . S
C33 H38 0.931 . S
C34 C33 1.351 . S
C34 N35 1.373 1_556 S
C34 H62 0.930 . S
N35 C34 1.373 1_554 S
N35 C37 1.340 . S
N36 C33 1.368 . S
N36 C37 1.321 1_556 S
N36 Co39 2.135 1_556 S
C37 N35 1.340 . S
C37 N36 1.321 1_554 S
C37 H61 0.930 . S
H38 C33 0.931 . S
Co39 N36 2.135 1_554 S
Co39 N42 2.121 . S
Co39 O47 2.055 1_554 S
Co39 O50 2.039 . S
Co39 N53 2.140 . S
C40 O41 1.227 . S
C40 O50 1.265 . S
O41 C40 1.227 . S
N42 Co39 2.121 . S
N42 C44 1.375 . S
N42 C45 1.313 1_544 S
C43 C44 1.338 1_565 S
C43 N46 1.377 . S
C43 H63 0.930 . S
C44 N42 1.375 . S
C44 C43 1.338 1_545 S
C44 H48 0.931 . S
C45 N42 1.313 1_566 S
C45 N46 1.344 1_556 S
C45 H49 0.930 . S
N46 C43 1.377 . S
N46 C45 1.344 1_554 S
O47 Co39 2.055 1_556 S
O47 C51 1.253 . S
H48 C44 0.931 . S
H49 C45 0.930 . S
O50 Co39 2.039 . S
O50 C40 1.265 . S
C51 O47 1.253 . S
C51 O52 1.227 . S
O52 C51 1.227 . S
N53 Co39 2.140 . S
N53 C56 1.346 . S
N53 C57 1.345 1_554 S
C54 C55 1.387 . S
C54 C58 1.391 1_554 S
C55 C54 1.387 . S
C55 C56 1.369 . S
C55 H64 0.929 . S
C56 N53 1.346 . S
C56 C55 1.369 . S
C56 H59 0.928 . S
C57 N53 1.345 1_556 S
C57 C58 1.371 . S
C57 H60 0.931 . S
C58 C54 1.391 1_556 S
C58 C57 1.371 . S
C58 H65 0.930 . S
H59 C56 0.928 . S
H60 C57 0.931 . S
H61 C37 0.930 . S
H62 C34 0.930 . S
H63 C43 0.930 . S
H64 C55 0.929 . S
H65 C58 0.930 . S
C66 C67 1.351 . S
C66 N69 1.368 . S
C66 H71 0.931 . S
C67 C66 1.351 . S
C67 N68 1.373 1_556 S
C67 H95 0.930 . S
N68 C67 1.373 1_554 S
N68 C70 1.340 . S
N69 C66 1.368 . S
N69 C70 1.321 1_556 S
N69 Co72 2.135 1_556 S
C70 N68 1.340 . S
C70 N69 1.321 1_554 S
C70 H94 0.930 . S
H71 C66 0.931 . S
Co72 N69 2.135 1_554 S
Co72 N75 2.121 . S
Co72 O80 2.055 1_554 S
Co72 O83 2.039 . S
Co72 N86 2.140 . S
C73 O74 1.227 . S
C73 O83 1.265 . S
O74 C73 1.227 . S
N75 Co72 2.121 . S
N75 C77 1.375 . S
N75 C78 1.313 1_654 S
C76 C77 1.338 1_455 S
C76 N79 1.377 . S
C76 H96 0.930 . S
C77 N75 1.375 . S
C77 C76 1.338 1_655 S
C77 H81 0.931 . S
C78 N75 1.313 1_456 S
C78 N79 1.344 1_556 S
C78 H82 0.930 . S
N79 C76 1.377 . S
N79 C78 1.344 1_554 S
O80 Co72 2.055 1_556 S
O80 C84 1.253 . S
H81 C77 0.931 . S
H82 C78 0.930 . S
O83 Co72 2.039 . S
O83 C73 1.265 . S
C84 O80 1.253 . S
C84 O85 1.227 . S
O85 C84 1.227 . S
N86 Co72 2.140 . S
N86 C89 1.346 . S
N86 C90 1.345 1_554 S
C87 C88 1.387 . S
C87 C91 1.391 1_554 S
C88 C87 1.387 . S
C88 C89 1.369 . S
C88 H97 0.929 . S
C89 N86 1.346 . S
C89 C88 1.369 . S
C89 H92 0.928 . S
C90 N86 1.345 1_556 S
C90 C91 1.371 . S
C90 H93 0.931 . S
C91 C87 1.391 1_556 S
C91 C90 1.371 . S
C91 H98 0.930 . S
H92 C89 0.928 . S
H93 C90 0.931 . S
H94 C70 0.930 . S
H95 C67 0.930 . S
H96 C76 0.930 . S
H97 C88 0.929 . S
H98 C91 0.930 . S
C99 C100 1.351 . S
C99 N102 1.368 . S
C99 H104 0.931 . S
C100 C99 1.351 . S
C100 N101 1.373 1_556 S
C100 H128 0.930 . S
N101 C100 1.373 1_554 S
N101 C103 1.340 . S
N102 C99 1.368 . S
N102 C103 1.321 1_556 S
N102 Co105 2.135 1_556 S
C103 N101 1.340 . S
C103 N102 1.321 1_554 S
C103 H127 0.930 . S
H104 C99 0.931 . S
Co105 N102 2.135 1_554 S
Co105 N108 2.121 . S
Co105 O113 2.055 1_554 S
Co105 O116 2.039 . S
Co105 N119 2.140 . S
C106 O107 1.227 . S
C106 O116 1.265 . S
O107 C106 1.227 . S
N108 Co105 2.121 . S
N108 C110 1.375 . S
N108 C111 1.313 1_564 S
C109 C110 1.338 1_545 S
C109 N112 1.377 . S
C109 H129 0.930 . S
C110 N108 1.375 . S
C110 C109 1.338 1_565 S
C110 H114 0.931 . S
C111 N108 1.313 1_546 S
C111 N112 1.344 1_556 S
C111 H115 0.930 . S
N112 C109 1.377 . S
N112 C111 1.344 1_554 S
O113 Co105 2.055 1_556 S
O113 C117 1.253 . S
H114 C110 0.931 . S
H115 C111 0.930 . S
O116 Co105 2.039 . S
O116 C106 1.265 . S
C117 O113 1.253 . S
C117 O118 1.227 . S
O118 C117 1.227 . S
N119 Co105 2.140 . S
N119 C122 1.346 . S
N119 C123 1.345 1_554 S
C120 C121 1.387 . S
C120 C124 1.391 1_554 S
C121 C120 1.387 . S
C121 C122 1.369 . S
C121 H130 0.929 . S
C122 N119 1.346 . S
C122 C121 1.369 . S
C122 H125 0.928 . S
C123 N119 1.345 1_556 S
C123 C124 1.371 . S
C123 H126 0.931 . S
C124 C120 1.391 1_556 S
C124 C123 1.371 . S
C124 H131 0.930 . S
H125 C122 0.928 . S
H126 C123 0.931 . S
H127 C103 0.930 . S
H128 C100 0.930 . S
H129 C109 0.930 . S
H130 C121 0.929 . S
H131 C124 0.930 . S
C132 C133 1.351 . S
C132 N135 1.368 . S
C132 H137 0.931 . S
C133 C132 1.351 . S
C133 N134 1.373 . S
C133 H161 0.930 . S
N134 C133 1.373 . S
N134 C136 1.340 . S
N135 C132 1.368 . S
N135 C136 1.321 . S
N135 Co138 2.135 . S
C136 N134 1.340 . S
C136 N135 1.321 . S
C136 H160 0.930 . S
H137 C132 0.931 . S
Co138 N135 2.135 . S
Co138 N141 2.121 . S
Co138 O146 2.055 . S
Co138 O149 2.039 . S
Co138 N152 2.140 . S
C139 O140 1.227 . S
C139 O149 1.265 . S
O140 C139 1.227 . S
N141 Co138 2.121 . S
N141 C143 1.375 . S
N141 C144 1.313 1_455 S
C142 C143 1.338 1_655 S
C142 N145 1.377 . S
C142 H162 0.930 . S
C143 N141 1.375 . S
C143 C142 1.338 1_455 S
C143 H147 0.931 . S
C144 N141 1.313 1_655 S
C144 N145 1.344 . S
C144 H148 0.930 . S
N145 C142 1.377 . S
N145 C144 1.344 . S
O146 Co138 2.055 . S
O146 C150 1.253 . S
H147 C143 0.931 . S
H148 C144 0.930 . S
O149 Co138 2.039 . S
O149 C139 1.265 . S
C150 O146 1.253 . S
C150 O151 1.227 . S
O151 C150 1.227 . S
N152 Co138 2.140 . S
N152 C155 1.346 . S
N152 C156 1.345 . S
C153 C154 1.387 . S
C153 C157 1.391 . S
C154 C153 1.387 . S
C154 C155 1.369 . S
C154 H163 0.929 . S
C155 N152 1.346 . S
C155 C154 1.369 . S
C155 H158 0.928 . S
C156 N152 1.345 . S
C156 C157 1.371 . S
C156 H159 0.931 . S
C157 C153 1.391 . S
C157 C156 1.371 . S
C157 H164 0.930 . S
H158 C155 0.928 . S
H159 C156 0.931 . S
H160 C136 0.930 . S
H161 C133 0.930 . S
H162 C142 0.930 . S
H163 C154 0.929 . S
H164 C157 0.930 . S
C165 C166 1.351 . S
C165 N168 1.368 . S
C165 H170 0.931 . S
C166 C165 1.351 . S
C166 N167 1.373 . S
C166 H194 0.930 . S
N167 C166 1.373 . S
N167 C169 1.340 . S
N168 C165 1.368 . S
N168 C169 1.321 . S
N168 Co171 2.135 . S
C169 N167 1.340 . S
C169 N168 1.321 . S
C169 H193 0.930 . S
H170 C165 0.931 . S
Co171 N168 2.135 . S
Co171 N174 2.121 . S
Co171 O179 2.055 . S
Co171 O182 2.039 . S
Co171 N185 2.140 . S
C172 O173 1.227 . S
C172 O182 1.265 . S
O173 C172 1.227 . S
N174 Co171 2.121 . S
N174 C176 1.375 . S
N174 C177 1.313 1_545 S
C175 C176 1.338 1_565 S
C175 N178 1.377 . S
C175 H195 0.930 . S
C176 N174 1.375 . S
C176 C175 1.338 1_545 S
C176 H180 0.931 . S
C177 N174 1.313 1_565 S
C177 N178 1.344 . S
C177 H181 0.930 . S
N178 C175 1.377 . S
N178 C177 1.344 . S
O179 Co171 2.055 . S
O179 C183 1.253 . S
H180 C176 0.931 . S
H181 C177 0.930 . S
O182 Co171 2.039 . S
O182 C172 1.265 . S
C183 O179 1.253 . S
C183 O184 1.227 . S
O184 C183 1.227 . S
N185 Co171 2.140 . S
N185 C188 1.346 . S
N185 C189 1.345 . S
C186 C187 1.387 . S
C186 C190 1.391 . S
C187 C186 1.387 . S
C187 C188 1.369 . S
C187 H196 0.929 . S
C188 N185 1.346 . S
C188 C187 1.369 . S
C188 H191 0.928 . S
C189 N185 1.345 . S
C189 C190 1.371 . S
C189 H192 0.931 . S
C190 C186 1.391 . S
C190 C189 1.371 . S
C190 H197 0.930 . S
H191 C188 0.928 . S
H192 C189 0.931 . S
H193 C169 0.930 . S
H194 C166 0.930 . S
H195 C175 0.930 . S
H196 C187 0.929 . S
H197 C190 0.930 . S
C198 C199 1.351 . S
C198 N201 1.368 . S
C198 H203 0.931 . S
C199 C198 1.351 . S
C199 N200 1.373 . S
C199 H227 0.930 . S
N200 C199 1.373 . S
N200 C202 1.340 . S
N201 C198 1.368 . S
N201 C202 1.321 . S
N201 Co204 2.135 . S
C202 N200 1.340 . S
C202 N201 1.321 . S
C202 H226 0.930 . S
H203 C198 0.931 . S
Co204 N201 2.135 . S
Co204 N207 2.121 . S
Co204 O212 2.055 . S
Co204 O215 2.039 . S
Co204 N218 2.140 . S
C205 O206 1.227 . S
C205 O215 1.265 . S
O206 C205 1.227 . S
N207 Co204 2.121 . S
N207 C209 1.375 . S
N207 C210 1.313 1_655 S
C208 C209 1.338 1_455 S
C208 N211 1.377 . S
C208 H228 0.930 . S
C209 N207 1.375 . S
C209 C208 1.338 1_655 S
C209 H213 0.931 . S
C210 N207 1.313 1_455 S
C210 N211 1.344 . S
C210 H214 0.930 . S
N211 C208 1.377 . S
N211 C210 1.344 . S
O212 Co204 2.055 . S
O212 C216 1.253 . S
H213 C209 0.931 . S
H214 C210 0.930 . S
O215 Co204 2.039 . S
O215 C205 1.265 . S
C216 O212 1.253 . S
C216 O217 1.227 . S
O217 C216 1.227 . S
N218 Co204 2.140 . S
N218 C221 1.346 . S
N218 C222 1.345 . S
C219 C220 1.387 . S
C219 C223 1.391 . S
C220 C219 1.387 . S
C220 C221 1.369 . S
C220 H229 0.929 . S
C221 N218 1.346 . S
C221 C220 1.369 . S
C221 H224 0.928 . S
C222 N218 1.345 . S
C222 C223 1.371 . S
C222 H225 0.931 . S
C223 C219 1.391 . S
C223 C222 1.371 . S
C223 H230 0.930 . S
H224 C221 0.928 . S
H225 C222 0.931 . S
H226 C202 0.930 . S
H227 C199 0.930 . S
H228 C208 0.930 . S
H229 C220 0.929 . S
H230 C223 0.930 . S
C231 C232 1.351 . S
C231 N234 1.368 . S
C231 H236 0.931 . S
C232 C231 1.351 . S
C232 N233 1.373 . S
C232 H260 0.930 . S
N233 C232 1.373 . S
N233 C235 1.340 . S
N234 C231 1.368 . S
N234 C235 1.321 . S
N234 Co237 2.135 . S
C235 N233 1.340 . S
C235 N234 1.321 . S
C235 H259 0.930 . S
H236 C231 0.931 . S
Co237 N234 2.135 . S
Co237 N240 2.121 . S
Co237 O245 2.055 . S
Co237 O248 2.039 . S
Co237 N251 2.140 . S
C238 O239 1.227 . S
C238 O248 1.265 . S
O239 C238 1.227 . S
N240 Co237 2.121 . S
N240 C242 1.375 . S
N240 C243 1.313 1_565 S
C241 C242 1.338 1_545 S
C241 N244 1.377 . S
C241 H261 0.930 . S
C242 N240 1.375 . S
C242 C241 1.338 1_565 S
C242 H246 0.931 . S
C243 N240 1.313 1_545 S
C243 N244 1.344 . S
C243 H247 0.930 . S
N244 C241 1.377 . S
N244 C243 1.344 . S
O245 Co237 2.055 . S
O245 C249 1.253 . S
H246 C242 0.931 . S
H247 C243 0.930 . S
O248 Co237 2.039 . S
O248 C238 1.265 . S
C249 O245 1.253 . S
C249 O250 1.227 . S
O250 C249 1.227 . S
N251 Co237 2.140 . S
N251 C254 1.346 . S
N251 C255 1.345 . S
C252 C253 1.387 . S
C252 C256 1.391 . S
C253 C252 1.387 . S
C253 C254 1.369 . S
C253 H262 0.929 . S
C254 N251 1.346 . S
C254 C253 1.369 . S
C254 H257 0.928 . S
C255 N251 1.345 . S
C255 C256 1.371 . S
C255 H258 0.931 . S
C256 C252 1.391 . S
C256 C255 1.371 . S
C256 H263 0.930 . S
H257 C254 0.928 . S
H258 C255 0.931 . S
H259 C235 0.930 . S
H260 C232 0.930 . S
H261 C241 0.930 . S
H262 C253 0.929 . S
H263 C256 0.930 . S
C264 C265 1.351 . S
C264 N267 1.368 . S
C264 H269 0.931 . S
C265 C264 1.351 . S
C265 N266 1.373 . S
C265 H293 0.930 . S
N266 C265 1.373 . S
N266 C268 1.340 . S
N267 C264 1.368 . S
N267 C268 1.321 . S
N267 Co270 2.135 . S
C268 N266 1.340 . S
C268 N267 1.321 . S
C268 H292 0.930 . S
H269 C264 0.931 . S
Co270 N267 2.135 . S
Co270 N273 2.121 . S
Co270 O278 2.055 . S
Co270 O281 2.039 . S
Co270 N284 2.140 . S
C271 O272 1.227 . S
C271 O281 1.265 . S
O272 C271 1.227 . S
N273 Co270 2.121 . S
N273 C275 1.375 . S
N273 C276 1.313 . S
C274 C275 1.338 . S
C274 N277 1.377 . S
C274 H294 0.930 . S
C275 N273 1.375 . S
C275 C274 1.338 . S
C275 H279 0.931 . S
C276 N273 1.313 . S
C276 N277 1.344 . S
C276 H280 0.930 . S
N277 C274 1.377 . S
N277 C276 1.344 . S
O278 Co270 2.055 . S
O278 C282 1.253 . S
H279 C275 0.931 . S
H280 C276 0.930 . S
O281 Co270 2.039 . S
O281 C271 1.265 . S
C282 O278 1.253 . S
C282 O283 1.227 . S
O283 C282 1.227 . S
N284 Co270 2.140 . S
N284 C287 1.346 . S
N284 C288 1.345 . S
C285 C286 1.387 . S
C285 C289 1.391 . S
C286 C285 1.387 . S
C286 C287 1.369 . S
C286 H295 0.929 . S
C287 N284 1.346 . S
C287 C286 1.369 . S
C287 H290 0.928 . S
C288 N284 1.345 . S
C288 C289 1.371 . S
C288 H291 0.931 . S
C289 C285 1.391 . S
C289 C288 1.371 . S
C289 H296 0.930 . S
H290 C287 0.928 . S
H291 C288 0.931 . S
H292 C268 0.930 . S
H293 C265 0.930 . S
H294 C274 0.930 . S
H295 C286 0.929 . S
H296 C289 0.930 . S
C297 C298 1.351 . S
C297 N300 1.368 . S
C297 H302 0.931 . S
C298 C297 1.351 . S
C298 N299 1.373 . S
C298 H326 0.930 . S
N299 C298 1.373 . S
N299 C301 1.340 . S
N300 C297 1.368 . S
N300 C301 1.321 . S
N300 Co303 2.135 . S
C301 N299 1.340 . S
C301 N300 1.321 . S
C301 H325 0.930 . S
H302 C297 0.931 . S
Co303 N300 2.135 . S
Co303 N306 2.121 . S
Co303 O311 2.055 . S
Co303 O314 2.039 . S
Co303 N317 2.140 . S
C304 O305 1.227 . S
C304 O314 1.265 . S
O305 C304 1.227 . S
N306 Co303 2.121 . S
N306 C308 1.375 . S
N306 C309 1.313 . S
C307 C308 1.338 . S
C307 N310 1.377 . S
C307 H327 0.930 . S
C308 N306 1.375 . S
C308 C307 1.338 . S
C308 H312 0.931 . S
C309 N306 1.313 . S
C309 N310 1.344 . S
C309 H313 0.930 . S
N310 C307 1.377 . S
N310 C309 1.344 . S
O311 Co303 2.055 . S
O311 C315 1.253 . S
H312 C308 0.931 . S
H313 C309 0.930 . S
O314 Co303 2.039 . S
O314 C304 1.265 . S
C315 O311 1.253 . S
C315 O316 1.227 . S
O316 C315 1.227 . S
N317 Co303 2.140 . S
N317 C320 1.346 . S
N317 C321 1.345 . S
C318 C319 1.387 . S
C318 C322 1.391 . S
C319 C318 1.387 . S
C319 C320 1.369 . S
C319 H328 0.929 . S
C320 N317 1.346 . S
C320 C319 1.369 . S
C320 H323 0.928 . S
C321 N317 1.345 . S
C321 C322 1.371 . S
C321 H324 0.931 . S
C322 C318 1.391 . S
C322 C321 1.371 . S
C322 H329 0.930 . S
H323 C320 0.928 . S
H324 C321 0.931 . S
H325 C301 0.930 . S
H326 C298 0.930 . S
H327 C307 0.930 . S
H328 C319 0.929 . S
H329 C322 0.930 . S
C330 C331 1.351 . S
C330 N333 1.368 . S
C330 H335 0.931 . S
C331 C330 1.351 . S
C331 N332 1.373 . S
C331 H359 0.930 . S
N332 C331 1.373 . S
N332 C334 1.340 . S
N333 C330 1.368 . S
N333 C334 1.321 . S
N333 Co336 2.135 . S
C334 N332 1.340 . S
C334 N333 1.321 . S
C334 H358 0.930 . S
H335 C330 0.931 . S
Co336 N333 2.135 . S
Co336 N339 2.121 . S
Co336 O344 2.055 . S
Co336 O347 2.039 . S
Co336 N350 2.140 . S
C337 O338 1.227 . S
C337 O347 1.265 . S
O338 C337 1.227 . S
N339 Co336 2.121 . S
N339 C341 1.375 . S
N339 C342 1.313 . S
C340 C341 1.338 . S
C340 N343 1.377 . S
C340 H360 0.930 . S
C341 N339 1.375 . S
C341 C340 1.338 . S
C341 H345 0.931 . S
C342 N339 1.313 . S
C342 N343 1.344 . S
C342 H346 0.930 . S
N343 C340 1.377 . S
N343 C342 1.344 . S
O344 Co336 2.055 . S
O344 C348 1.253 . S
H345 C341 0.931 . S
H346 C342 0.930 . S
O347 Co336 2.039 . S
O347 C337 1.265 . S
C348 O344 1.253 . S
C348 O349 1.227 . S
O349 C348 1.227 . S
N350 Co336 2.140 . S
N350 C353 1.346 . S
N350 C354 1.345 . S
C351 C352 1.387 . S
C351 C355 1.391 . S
C352 C351 1.387 . S
C352 C353 1.369 . S
C352 H361 0.929 . S
C353 N350 1.346 . S
C353 C352 1.369 . S
C353 H356 0.928 . S
C354 N350 1.345 . S
C354 C355 1.371 . S
C354 H357 0.931 . S
C355 C351 1.391 . S
C355 C354 1.371 . S
C355 H362 0.930 . S
H356 C353 0.928 . S
H357 C354 0.931 . S
H358 C334 0.930 . S
H359 C331 0.930 . S
H360 C340 0.930 . S
H361 C352 0.929 . S
H362 C355 0.930 . S
C363 C364 1.351 . S
C363 N366 1.368 . S
C363 H368 0.931 . S
C364 C363 1.351 . S
C364 N365 1.373 . S
C364 H392 0.930 . S
N365 C364 1.373 . S
N365 C367 1.340 . S
N366 C363 1.368 . S
N366 C367 1.321 . S
N366 Co369 2.135 . S
C367 N365 1.340 . S
C367 N366 1.321 . S
C367 H391 0.930 . S
H368 C363 0.931 . S
Co369 N366 2.135 . S
Co369 N372 2.121 . S
Co369 O377 2.055 . S
Co369 O380 2.039 . S
Co369 N383 2.140 . S
C370 O371 1.227 . S
C370 O380 1.265 . S
O371 C370 1.227 . S
N372 Co369 2.121 . S
N372 C374 1.375 . S
N372 C375 1.313 . S
C373 C374 1.338 . S
C373 N376 1.377 . S
C373 H393 0.930 . S
C374 N372 1.375 . S
C374 C373 1.338 . S
C374 H378 0.931 . S
C375 N372 1.313 . S
C375 N376 1.344 . S
C375 H379 0.930 . S
N376 C373 1.377 . S
N376 C375 1.344 . S
O377 Co369 2.055 . S
O377 C381 1.253 . S
H378 C374 0.931 . S
H379 C375 0.930 . S
O380 Co369 2.039 . S
O380 C370 1.265 . S
C381 O377 1.253 . S
C381 O382 1.227 . S
O382 C381 1.227 . S
N383 Co369 2.140 . S
N383 C386 1.346 . S
N383 C387 1.345 . S
C384 C385 1.387 . S
C384 C388 1.391 . S
C385 C384 1.387 . S
C385 C386 1.369 . S
C385 H394 0.929 . S
C386 N383 1.346 . S
C386 C385 1.369 . S
C386 H389 0.928 . S
C387 N383 1.345 . S
C387 C388 1.371 . S
C387 H390 0.931 . S
C388 C384 1.391 . S
C388 C387 1.371 . S
C388 H395 0.930 . S
H389 C386 0.928 . S
H390 C387 0.931 . S
H391 C367 0.930 . S
H392 C364 0.930 . S
H393 C373 0.930 . S
H394 C385 0.929 . S
H395 C388 0.930 . S
C396 C397 1.351 . S
C396 N399 1.368 . S
C396 H401 0.931 . S
C397 C396 1.351 . S
C397 N398 1.373 . S
C397 H425 0.930 . S
N398 C397 1.373 . S
N398 C400 1.340 . S
N399 C396 1.368 . S
N399 C400 1.321 . S
N399 Co402 2.135 . S
C400 N398 1.340 . S
C400 N399 1.321 . S
C400 H424 0.930 1_554 S
H401 C396 0.931 . S
Co402 N399 2.135 . S
Co402 N405 2.121 . S
Co402 O410 2.055 . S
Co402 O413 2.039 1_554 S
Co402 N416 2.140 . S
C403 O404 1.227 . S
C403 O413 1.265 . S
O404 C403 1.227 . S
N405 Co402 2.121 . S
N405 C407 1.375 1_554 S
N405 C408 1.313 . S
C406 C407 1.338 . S
C406 N409 1.377 1_556 S
C406 H426 0.930 . S
C407 N405 1.375 1_556 S
C407 C406 1.338 . S
C407 H411 0.931 . S
C408 N405 1.313 . S
C408 N409 1.344 . S
C408 H412 0.930 . S
N409 C406 1.377 1_554 S
N409 C408 1.344 . S
O410 Co402 2.055 . S
O410 C414 1.253 . S
H411 C407 0.931 . S
H412 C408 0.930 . S
O413 Co402 2.039 1_556 S
O413 C403 1.265 . S
C414 O410 1.253 . S
C414 O415 1.227 . S
O415 C414 1.227 . S
N416 Co402 2.140 . S
N416 C419 1.346 . S
N416 C420 1.345 . S
C417 C418 1.387 . S
C417 C421 1.391 . S
C418 C417 1.387 . S
C418 C419 1.369 . S
C418 H427 0.929 1_554 S
C419 N416 1.346 . S
C419 C418 1.369 . S
C419 H422 0.928 1_554 S
C420 N416 1.345 . S
C420 C421 1.371 . S
C420 H423 0.931 . S
C421 C417 1.391 . S
C421 C420 1.371 . S
C421 H428 0.930 . S
H422 C419 0.928 1_556 S
H423 C420 0.931 . S
H424 C400 0.930 1_556 S
H425 C397 0.930 . S
H426 C406 0.930 . S
H427 C418 0.929 1_556 S
H428 C421 0.930 . S
C429 C430 1.351 . S
C429 N432 1.368 . S
C429 H434 0.931 . S
C430 C429 1.351 . S
C430 N431 1.373 . S
C430 H458 0.930 . S
N431 C430 1.373 . S
N431 C433 1.340 . S
N432 C429 1.368 . S
N432 C433 1.321 . S
N432 Co435 2.135 . S
C433 N431 1.340 . S
C433 N432 1.321 . S
C433 H457 0.930 1_554 S
H434 C429 0.931 . S
Co435 N432 2.135 . S
Co435 N438 2.121 . S
Co435 O443 2.055 . S
Co435 O446 2.039 1_554 S
Co435 N449 2.140 . S
C436 O437 1.227 . S
C436 O446 1.265 . S
O437 C436 1.227 . S
N438 Co435 2.121 . S
N438 C440 1.375 1_554 S
N438 C441 1.313 . S
C439 C440 1.338 . S
C439 N442 1.377 1_556 S
C439 H459 0.930 . S
C440 N438 1.375 1_556 S
C440 C439 1.338 . S
C440 H444 0.931 . S
C441 N438 1.313 . S
C441 N442 1.344 . S
C441 H445 0.930 . S
N442 C439 1.377 1_554 S
N442 C441 1.344 . S
O443 Co435 2.055 . S
O443 C447 1.253 . S
H444 C440 0.931 . S
H445 C441 0.930 . S
O446 Co435 2.039 1_556 S
O446 C436 1.265 . S
C447 O443 1.253 . S
C447 O448 1.227 . S
O448 C447 1.227 . S
N449 Co435 2.140 . S
N449 C452 1.346 . S
N449 C453 1.345 . S
C450 C451 1.387 . S
C450 C454 1.391 . S
C451 C450 1.387 . S
C451 C452 1.369 . S
C451 H460 0.929 1_554 S
C452 N449 1.346 . S
C452 C451 1.369 . S
C452 H455 0.928 1_554 S
C453 N449 1.345 . S
C453 C454 1.371 . S
C453 H456 0.931 . S
C454 C450 1.391 . S
C454 C453 1.371 . S
C454 H461 0.930 . S
H455 C452 0.928 1_556 S
H456 C453 0.931 . S
H457 C433 0.930 1_556 S
H458 C430 0.930 . S
H459 C439 0.930 . S
H460 C451 0.929 1_556 S
H461 C454 0.930 . S
C462 C463 1.351 . S
C462 N465 1.368 . S
C462 H467 0.931 . S
C463 C462 1.351 . S
C463 N464 1.373 . S
C463 H491 0.930 . S
N464 C463 1.373 . S
N464 C466 1.340 . S
N465 C462 1.368 . S
N465 C466 1.321 . S
N465 Co468 2.135 . S
C466 N464 1.340 . S
C466 N465 1.321 . S
C466 H490 0.930 1_554 S
H467 C462 0.931 . S
Co468 N465 2.135 . S
Co468 N471 2.121 . S
Co468 O476 2.055 . S
Co468 O479 2.039 1_554 S
Co468 N482 2.140 . S
C469 O470 1.227 . S
C469 O479 1.265 . S
O470 C469 1.227 . S
N471 Co468 2.121 . S
N471 C473 1.375 1_554 S
N471 C474 1.313 . S
C472 C473 1.338 . S
C472 N475 1.377 1_556 S
C472 H492 0.930 . S
C473 N471 1.375 1_556 S
C473 C472 1.338 . S
C473 H477 0.931 . S
C474 N471 1.313 . S
C474 N475 1.344 . S
C474 H478 0.930 . S
N475 C472 1.377 1_554 S
N475 C474 1.344 . S
O476 Co468 2.055 . S
O476 C480 1.253 . S
H477 C473 0.931 . S
H478 C474 0.930 . S
O479 Co468 2.039 1_556 S
O479 C469 1.265 . S
C480 O476 1.253 . S
C480 O481 1.227 . S
O481 C480 1.227 . S
N482 Co468 2.140 . S
N482 C485 1.346 . S
N482 C486 1.345 . S
C483 C484 1.387 . S
C483 C487 1.391 . S
C484 C483 1.387 . S
C484 C485 1.369 . S
C484 H493 0.929 1_554 S
C485 N482 1.346 . S
C485 C484 1.369 . S
C485 H488 0.928 1_554 S
C486 N482 1.345 . S
C486 C487 1.371 . S
C486 H489 0.931 . S
C487 C483 1.391 . S
C487 C486 1.371 . S
C487 H494 0.930 . S
H488 C485 0.928 1_556 S
H489 C486 0.931 . S
H490 C466 0.930 1_556 S
H491 C463 0.930 . S
H492 C472 0.930 . S
H493 C484 0.929 1_556 S
H494 C487 0.930 . S
C495 C496 1.351 . S
C495 N498 1.368 . S
C495 H500 0.931 . S
C496 C495 1.351 . S
C496 N497 1.373 . S
C496 H524 0.930 . S
N497 C496 1.373 . S
N497 C499 1.340 . S
N498 C495 1.368 . S
N498 C499 1.321 . S
N498 Co501 2.135 . S
C499 N497 1.340 . S
C499 N498 1.321 . S
C499 H523 0.930 1_554 S
H500 C495 0.931 . S
Co501 N498 2.135 . S
Co501 N504 2.121 . S
Co501 O509 2.055 . S
Co501 O512 2.039 1_554 S
Co501 N515 2.140 . S
C502 O503 1.227 . S
C502 O512 1.265 . S
O503 C502 1.227 . S
N504 Co501 2.121 . S
N504 C506 1.375 1_554 S
N504 C507 1.313 . S
C505 C506 1.338 . S
C505 N508 1.377 1_556 S
C505 H525 0.930 . S
C506 N504 1.375 1_556 S
C506 C505 1.338 . S
C506 H510 0.931 . S
C507 N504 1.313 . S
C507 N508 1.344 . S
C507 H511 0.930 . S
N508 C505 1.377 1_554 S
N508 C507 1.344 . S
O509 Co501 2.055 . S
O509 C513 1.253 . S
H510 C506 0.931 . S
H511 C507 0.930 . S
O512 Co501 2.039 1_556 S
O512 C502 1.265 . S
C513 O509 1.253 . S
C513 O514 1.227 . S
O514 C513 1.227 . S
N515 Co501 2.140 . S
N515 C518 1.346 . S
N515 C519 1.345 . S
C516 C517 1.387 . S
C516 C520 1.391 . S
C517 C516 1.387 . S
C517 C518 1.369 . S
C517 H526 0.929 1_554 S
C518 N515 1.346 . S
C518 C517 1.369 . S
C518 H521 0.928 1_554 S
C519 N515 1.345 . S
C519 C520 1.371 . S
C519 H522 0.931 . S
C520 C516 1.391 . S
C520 C519 1.371 . S
C520 H527 0.930 . S
H521 C518 0.928 1_556 S
H522 C519 0.931 . S
H523 C499 0.930 1_556 S
H524 C496 0.930 . S
H525 C505 0.930 . S
H526 C517 0.929 1_556 S
H527 C520 0.930 . S
H528 C546 0.951 . S
H529 C548 0.951 . S
H530 C550 0.950 . S
H531 C551 0.950 . S
H532 C553 0.950 . S
H533 C556 0.950 . S
H534 C557 0.950 . S
H535 C559 0.950 . S
H536 C560 0.950 . S
H537 C561 0.951 . S
H538 C563 0.951 . S
H539 C565 0.950 . S
H540 C566 0.950 . S
H541 C568 0.950 . S
H542 C571 0.950 . S
H543 C572 0.950 . S
H544 C574 0.950 . S
H545 C575 0.950 . S
C546 H528 0.951 . S
C546 C547 1.366 . S
C546 C548 1.388 . S
C547 C546 1.366 . S
C547 C551 1.385 . S
C548 H529 0.951 . S
C548 C546 1.388 . S
C548 C549 1.366 . S
C549 C548 1.366 . S
C549 C550 1.414 . S
C549 C552 1.499 . S
C550 H530 0.950 . S
C550 C549 1.414 . S
C550 C551 1.374 . S
C551 H531 0.950 . S
C551 C547 1.385 . S
C551 C550 1.374 . S
C552 C549 1.499 . S
C552 C553 1.373 . S
C552 C554 1.389 1_554 S
C553 H532 0.950 . S
C553 C552 1.373 . S
C553 C569 1.377 . S
C554 C552 1.389 1_556 S
C554 C555 1.524 . S
C554 C568 1.377 . S
C555 C554 1.524 . S
C555 C556 1.397 . S
C555 C560 1.363 . S
C556 H533 0.950 . S
C556 C555 1.397 . S
C556 C557 1.334 . S
C557 H534 0.950 . S
C557 C556 1.334 . S
C557 C558 1.287 . S
C558 C557 1.287 . S
C558 C559 1.524 . S
C558 H577 0.913 . S
C559 H535 0.950 . S
C559 C558 1.524 . S
C559 C560 1.415 . S
C560 H536 0.950 . S
C560 C555 1.363 . S
C560 C559 1.415 . S
C561 H537 0.951 . S
C561 C562 1.366 . S
C561 C563 1.388 . S
C562 C561 1.366 . S
C562 C566 1.385 . S
C563 H538 0.951 . S
C563 C561 1.388 . S
C563 C564 1.366 . S
C564 C563 1.366 . S
C564 C565 1.414 . S
C564 C567 1.499 . S
C565 H539 0.950 . S
C565 C564 1.414 . S
C565 C566 1.374 . S
C566 H540 0.950 . S
C566 C562 1.385 . S
C566 C565 1.374 . S
C567 C564 1.499 . S
C567 C568 1.373 1_554 S
C567 C569 1.389 . S
C568 H541 0.950 . S
C568 C554 1.377 . S
C568 C567 1.373 1_556 S
C569 C553 1.377 . S
C569 C567 1.389 . S
C569 C570 1.524 . S
C570 C569 1.524 . S
C570 C571 1.397 . S
C570 C575 1.363 . S
C571 H542 0.950 . S
C571 C570 1.397 . S
C571 C572 1.334 . S
C572 H543 0.950 . S
C572 C571 1.334 . S
C572 C573 1.287 . S
C573 C572 1.287 . S
C573 C574 1.524 . S
C573 H576 0.999 . S
C574 H544 0.950 . S
C574 C573 1.524 . S
C574 C575 1.415 . S
C575 H545 0.950 . S
C575 C570 1.363 . S
C575 C574 1.415 . S
H576 C573 0.999 . S
H577 C558 0.913 . S
H578 C596 0.951 . S
H579 C598 0.951 . S
H580 C600 0.950 . S
H581 C601 0.950 . S
H582 C603 0.950 1_556 S
H583 C606 0.950 . S
H584 C607 0.950 . S
H585 C609 0.950 . S
H586 C610 0.950 . S
H587 C611 0.951 . S
H588 C613 0.951 . S
H589 C615 0.950 . S
H590 C616 0.950 . S
H591 C618 0.950 . S
H592 C621 0.950 . S
H593 C622 0.950 . S
H594 C624 0.950 . S
H595 C625 0.950 1_554 S
C596 H578 0.951 . S
C596 C597 1.366 . S
C596 C598 1.388 . S
C597 C596 1.366 . S
C597 C601 1.385 . S
C598 H579 0.951 . S
C598 C596 1.388 . S
C598 C599 1.366 . S
C599 C598 1.366 . S
C599 C600 1.414 . S
C599 C602 1.499 . S
C600 H580 0.950 . S
C600 C599 1.414 . S
C600 C601 1.374 . S
C601 H581 0.950 . S
C601 C597 1.385 . S
C601 C600 1.374 . S
C602 C599 1.499 . S
C602 C603 1.373 . S
C602 C604 1.389 . S
C603 H582 0.950 1_554 S
C603 C602 1.373 . S
C603 C619 1.377 . S
C604 C602 1.389 . S
C604 C605 1.524 . S
C604 C618 1.377 . S
C605 C604 1.524 . S
C605 C606 1.397 . S
C605 C610 1.363 . S
C606 H583 0.950 . S
C606 C605 1.397 . S
C606 C607 1.334 . S
C607 H584 0.950 . S
C607 C606 1.334 . S
C607 C608 1.287 . S
C608 C607 1.287 . S
C608 C609 1.524 . S
C608 H627 0.913 . S
C609 H585 0.950 . S
C609 C608 1.524 . S
C609 C610 1.415 . S
C610 H586 0.950 . S
C610 C605 1.363 . S
C610 C609 1.415 . S
C611 H587 0.951 . S
C611 C612 1.366 . S
C611 C613 1.388 . S
C612 C611 1.366 . S
C612 C616 1.385 . S
C613 H588 0.951 . S
C613 C611 1.388 . S
C613 C614 1.366 . S
C614 C613 1.366 . S
C614 C615 1.414 . S
C614 C617 1.499 . S
C615 H589 0.950 . S
C615 C614 1.414 . S
C615 C616 1.374 . S
C616 H590 0.950 . S
C616 C612 1.385 . S
C616 C615 1.374 . S
C617 C614 1.499 . S
C617 C618 1.373 . S
C617 C619 1.392 . S
C618 H591 0.950 . S
C618 C604 1.377 . S
C618 C617 1.373 . S
C619 C603 1.377 . S
C619 C617 1.392 . S
C619 C620 1.520 1_554 S
C620 C619 1.520 1_556 S
C620 C621 1.397 . S
C620 C625 1.363 . S
C621 H592 0.950 . S
C621 C620 1.397 . S
C621 C622 1.334 . S
C622 H593 0.950 . S
C622 C621 1.334 . S
C622 C623 1.287 . S
C623 C622 1.287 . S
C623 C624 1.524 . S
C623 H626 0.999 . S
C624 H594 0.950 . S
C624 C623 1.524 . S
C624 C625 1.415 . S
C625 H595 0.950 1_556 S
C625 C620 1.363 . S
C625 C624 1.415 . S
H626 C623 0.999 . S
H627 C608 0.913 . S
H628 C646 0.951 . S
H629 C648 0.951 . S
H630 C650 0.940 1_556 S
H631 C651 0.942 1_556 S
H632 C653 0.950 . S
H633 C656 0.950 . S
H634 C657 0.950 . S
H635 C659 0.950 . S
H636 C660 0.950 . S
H637 C661 0.951 1_556 S
H638 C663 0.951 1_556 S
H639 C665 0.950 . S
H640 C666 0.950 . S
H641 C668 0.950 . S
H642 C671 0.950 . S
H643 C672 0.950 . S
H644 C674 0.950 . S
H645 C675 0.950 . S
C646 H628 0.951 . S
C646 C647 1.366 . S
C646 C648 1.388 . S
C647 C646 1.366 . S
C647 C651 1.385 . S
C648 H629 0.951 . S
C648 C646 1.388 . S
C648 C649 1.366 . S
C649 C648 1.366 . S
C649 C650 1.414 . S
C649 C652 1.499 . S
C650 H630 0.940 1_554 S
C650 C649 1.414 . S
C650 C651 1.374 . S
C651 H631 0.942 1_554 S
C651 C647 1.385 . S
C651 C650 1.374 . S
C652 C649 1.499 . S
C652 C653 1.373 1_554 S
C652 C654 1.389 . S
C653 H632 0.950 . S
C653 C652 1.373 1_556 S
C653 C669 1.377 . S
C654 C652 1.389 . S
C654 C655 1.524 . S
C654 C668 1.377 . S
C655 C654 1.524 . S
C655 C656 1.397 . S
C655 C660 1.363 . S
C656 H633 0.950 . S
C656 C655 1.397 . S
C656 C657 1.334 . S
C657 H634 0.950 . S
C657 C656 1.334 . S
C657 C658 1.287 . S
C658 C657 1.287 . S
C658 C659 1.524 . S
C658 H677 0.913 . S
C659 H635 0.950 . S
C659 C658 1.524 . S
C659 C660 1.415 . S
C660 H636 0.950 . S
C660 C655 1.363 . S
C660 C659 1.415 . S
C661 H637 0.951 1_554 S
C661 C662 1.366 . S
C661 C663 1.388 . S
C662 C661 1.366 . S
C662 C666 1.385 . S
C663 H638 0.951 1_554 S
C663 C661 1.388 . S
C663 C664 1.366 . S
C664 C663 1.366 . S
C664 C665 1.414 . S
C664 C667 1.499 . S
C665 H639 0.950 . S
C665 C664 1.414 . S
C665 C666 1.374 . S
C666 H640 0.950 . S
C666 C662 1.385 . S
C666 C665 1.374 . S
C667 C664 1.499 . S
C667 C668 1.373 . S
C667 C669 1.389 1_554 S
C668 H641 0.950 . S
C668 C654 1.377 . S
C668 C667 1.373 . S
C669 C653 1.377 . S
C669 C667 1.389 1_556 S
C669 C670 1.524 . S
C670 C669 1.524 . S
C670 C671 1.397 . S
C670 C675 1.363 . S
C671 H642 0.950 . S
C671 C670 1.397 . S
C671 C672 1.334 . S
C672 H643 0.950 . S
C672 C671 1.334 . S
C672 C673 1.287 . S
C673 C672 1.287 . S
C673 C674 1.524 . S
C673 H676 0.999 . S
C674 H644 0.950 . S
C674 C673 1.524 . S
C674 C675 1.415 . S
C675 H645 0.950 . S
C675 C670 1.363 . S
C675 C674 1.415 . S
H676 C673 0.999 . S
H677 C658 0.913 . S
H678 C696 0.951 . S
H679 C698 0.951 . S
H680 C700 0.950 . S
H681 C701 0.950 . S
H682 C703 0.950 . S
H683 C706 0.950 . S
H684 C707 0.950 . S
H685 C709 0.950 . S
H686 C710 0.950 . S
H687 C711 0.951 . S
H688 C713 0.951 . S
H689 C715 0.950 . S
H690 C716 0.950 . S
H691 C718 0.950 . S
H692 C721 0.950 . S
H693 C722 0.950 . S
H694 C724 0.950 . S
H695 C725 0.950 . S
C696 H678 0.951 . S
C696 C697 1.366 . S
C696 C698 1.388 . S
C697 C696 1.366 . S
C697 C701 1.385 . S
C698 H679 0.951 . S
C698 C696 1.388 . S
C698 C699 1.366 . S
C699 C698 1.366 . S
C699 C700 1.414 . S
C699 C702 1.499 . S
C700 H680 0.950 . S
C700 C699 1.414 . S
C700 C701 1.374 . S
C701 H681 0.950 . S
C701 C697 1.385 . S
C701 C700 1.374 . S
C702 C699 1.499 . S
C702 C703 1.373 . S
C702 C704 1.389 1_554 S
C703 H682 0.950 . S
C703 C702 1.373 . S
C703 C719 1.377 . S
C704 C702 1.389 1_556 S
C704 C705 1.524 . S
C704 C718 1.377 . S
C705 C704 1.524 . S
C705 C706 1.397 . S
C705 C710 1.363 . S
C706 H683 0.950 . S
C706 C705 1.397 . S
C706 C707 1.334 . S
C707 H684 0.950 . S
C707 C706 1.334 . S
C707 C708 1.287 . S
C708 C707 1.287 . S
C708 C709 1.524 . S
C708 H727 0.913 . S
C709 H685 0.950 . S
C709 C708 1.524 . S
C709 C710 1.415 . S
C710 H686 0.950 . S
C710 C705 1.363 . S
C710 C709 1.415 . S
C711 H687 0.951 . S
C711 C712 1.366 . S
C711 C713 1.388 . S
C712 C711 1.366 . S
C712 C716 1.385 . S
C713 H688 0.951 . S
C713 C711 1.388 . S
C713 C714 1.366 . S
C714 C713 1.366 . S
C714 C715 1.414 . S
C714 C717 1.499 . S
C715 H689 0.950 . S
C715 C714 1.414 . S
C715 C716 1.374 . S
C716 H690 0.950 . S
C716 C712 1.385 . S
C716 C715 1.374 . S
C717 C714 1.499 . S
C717 C718 1.373 1_554 S
C717 C719 1.389 . S
C718 H691 0.950 . S
C718 C704 1.377 . S
C718 C717 1.373 1_556 S
C719 C703 1.377 . S
C719 C717 1.389 . S
C719 C720 1.524 . S
C720 C719 1.524 . S
C720 C721 1.397 . S
C720 C725 1.363 . S
C721 H692 0.950 . S
C721 C720 1.397 . S
C721 C722 1.334 . S
C722 H693 0.950 . S
C722 C721 1.334 . S
C722 C723 1.287 . S
C723 C722 1.287 . S
C723 C724 1.524 . S
C723 H726 0.999 . S
C724 H694 0.950 . S
C724 C723 1.524 . S
C724 C725 1.415 . S
C725 H695 0.950 . S
C725 C720 1.363 . S
C725 C724 1.415 . S
H726 C723 0.999 . S
H727 C708 0.913 . S
H728 C746 0.951 . S
H729 C748 0.951 . S
H730 C750 0.950 . S
H731 C751 0.950 . S
H732 C753 0.950 . S
H733 C756 0.950 . S
H734 C757 0.950 . S
H735 C759 0.950 . S
H736 C760 0.950 . S
H737 C761 0.951 . S
H738 C763 0.951 . S
H739 C765 0.950 . S
H740 C766 0.950 . S
H741 C768 0.950 . S
H742 C771 0.950 . S
H743 C772 0.950 . S
H744 C774 0.950 . S
H745 C775 0.950 . S
C746 H728 0.951 . S
C746 C747 1.366 . S
C746 C748 1.388 . S
C747 C746 1.366 . S
C747 C751 1.385 . S
C748 H729 0.951 . S
C748 C746 1.388 . S
C748 C749 1.366 . S
C749 C748 1.366 . S
C749 C750 1.414 . S
C749 C752 1.499 . S
C750 H730 0.950 . S
C750 C749 1.414 . S
C750 C751 1.374 . S
C751 H731 0.950 . S
C751 C747 1.385 . S
C751 C750 1.374 . S
C752 C749 1.499 . S
C752 C753 1.373 . S
C752 C754 1.389 . S
C753 H732 0.950 . S
C753 C752 1.373 . S
C753 C769 1.377 . S
C754 C752 1.389 . S
C754 C755 1.524 . S
C754 C768 1.377 . S
C755 C754 1.524 . S
C755 C756 1.397 . S
C755 C760 1.363 . S
C756 H733 0.950 . S
C756 C755 1.397 . S
C756 C757 1.334 . S
C757 H734 0.950 . S
C757 C756 1.334 . S
C757 C758 1.287 . S
C758 C757 1.287 . S
C758 C759 1.524 . S
C758 H777 0.913 . S
C759 H735 0.950 . S
C759 C758 1.524 . S
C759 C760 1.415 . S
C760 H736 0.950 . S
C760 C755 1.363 . S
C760 C759 1.415 . S
C761 H737 0.951 . S
C761 C762 1.366 . S
C761 C763 1.388 . S
C762 C761 1.366 . S
C762 C766 1.385 . S
C763 H738 0.951 . S
C763 C761 1.388 . S
C763 C764 1.366 . S
C764 C763 1.366 . S
C764 C765 1.414 . S
C764 C767 1.499 . S
C765 H739 0.950 . S
C765 C764 1.414 . S
C765 C766 1.374 . S
C766 H740 0.950 . S
C766 C762 1.385 . S
C766 C765 1.374 . S
C767 C764 1.499 . S
C767 C768 1.373 . S
C767 C769 1.389 . S
C768 H741 0.950 . S
C768 C754 1.377 . S
C768 C767 1.373 . S
C769 C753 1.377 . S
C769 C767 1.389 . S
C769 C770 1.524 . S
C770 C769 1.524 . S
C770 C771 1.397 . S
C770 C775 1.363 . S
C771 H742 0.950 . S
C771 C770 1.397 . S
C771 C772 1.334 . S
C772 H743 0.950 . S
C772 C771 1.334 . S
C772 C773 1.287 . S
C773 C772 1.287 . S
C773 C774 1.524 . S
C773 H776 0.999 . S
C774 H744 0.950 . S
C774 C773 1.524 . S
C774 C775 1.415 . S
C775 H745 0.950 . S
C775 C770 1.363 . S
C775 C774 1.415 . S
H776 C773 0.999 . S
H777 C758 0.913 . S
H778 C796 0.951 . S
H779 C798 0.951 . S
H780 C800 0.950 . S
H781 C801 0.950 . S
H782 C803 0.950 . S
H783 C806 0.950 . S
H784 C807 0.950 . S
H785 C809 0.950 . S
H786 C810 0.950 . S
H787 C811 0.951 . S
H788 C813 0.951 . S
H789 C815 0.950 . S
H790 C816 0.950 . S
H791 C818 0.950 . S
H792 C821 0.950 . S
H793 C822 0.950 . S
H794 C824 0.950 . S
H795 C825 0.950 . S
C796 H778 0.951 . S
C796 C797 1.366 . S
C796 C798 1.388 . S
C797 C796 1.366 . S
C797 C801 1.385 . S
C798 H779 0.951 . S
C798 C796 1.388 . S
C798 C799 1.366 . S
C799 C798 1.366 . S
C799 C800 1.414 . S
C799 C802 1.499 . S
C800 H780 0.950 . S
C800 C799 1.414 . S
C800 C801 1.374 . S
C801 H781 0.950 . S
C801 C797 1.385 . S
C801 C800 1.374 . S
C802 C799 1.499 . S
C802 C803 1.373 . S
C802 C804 1.389 . S
C803 H782 0.950 . S
C803 C802 1.373 . S
C803 C819 1.377 . S
C804 C802 1.389 . S
C804 C805 1.524 . S
C804 C818 1.377 . S
C805 C804 1.524 . S
C805 C806 1.397 . S
C805 C810 1.363 . S
C806 H783 0.950 . S
C806 C805 1.397 . S
C806 C807 1.334 . S
C807 H784 0.950 . S
C807 C806 1.334 . S
C807 C808 1.287 . S
C808 C807 1.287 . S
C808 C809 1.524 . S
C808 H827 0.913 . S
C809 H785 0.950 . S
C809 C808 1.524 . S
C809 C810 1.415 . S
C810 H786 0.950 . S
C810 C805 1.363 . S
C810 C809 1.415 . S
C811 H787 0.951 . S
C811 C812 1.366 . S
C811 C813 1.388 . S
C812 C811 1.366 . S
C812 C816 1.385 . S
C813 H788 0.951 . S
C813 C811 1.388 . S
C813 C814 1.366 . S
C814 C813 1.366 . S
C814 C815 1.414 . S
C814 C817 1.499 . S
C815 H789 0.950 . S
C815 C814 1.414 . S
C815 C816 1.374 . S
C816 H790 0.950 . S
C816 C812 1.385 . S
C816 C815 1.374 . S
C817 C814 1.499 . S
C817 C818 1.373 . S
C817 C819 1.389 . S
C818 H791 0.950 . S
C818 C804 1.377 . S
C818 C817 1.373 . S
C819 C803 1.377 . S
C819 C817 1.389 . S
C819 C820 1.524 . S
C820 C819 1.524 . S
C820 C821 1.397 . S
C820 C825 1.363 . S
C821 H792 0.950 . S
C821 C820 1.397 . S
C821 C822 1.334 . S
C822 H793 0.950 . S
C822 C821 1.334 . S
C822 C823 1.287 . S
C823 C822 1.287 . S
C823 C824 1.524 . S
C823 H826 0.999 . S
C824 H794 0.950 . S
C824 C823 1.524 . S
C824 C825 1.415 . S
C825 H795 0.950 . S
C825 C820 1.363 . S
C825 C824 1.415 . S
H826 C823 0.999 . S
H827 C808 0.913 . S
H828 C846 0.951 . S
H829 C848 0.951 . S
H830 C850 0.950 . S
H831 C851 0.950 . S
H832 C853 0.950 . S
H833 C856 0.950 . S
H834 C857 0.950 . S
H835 C859 0.950 . S
H836 C860 0.950 . S
H837 C861 0.951 . S
H838 C863 0.951 . S
H839 C865 0.950 . S
H840 C866 0.950 . S
H841 C868 0.950 . S
H842 C871 0.950 . S
H843 C872 0.950 . S
H844 C874 0.950 . S
H845 C875 0.950 . S
C846 H828 0.951 . S
C846 C847 1.366 . S
C846 C848 1.388 . S
C847 C846 1.366 . S
C847 C851 1.385 . S
C848 H829 0.951 . S
C848 C846 1.388 . S
C848 C849 1.366 . S
C849 C848 1.366 . S
C849 C850 1.414 . S
C849 C852 1.499 . S
C850 H830 0.950 . S
C850 C849 1.414 . S
C850 C851 1.374 . S
C851 H831 0.950 . S
C851 C847 1.385 . S
C851 C850 1.374 . S
C852 C849 1.499 . S
C852 C853 1.373 . S
C852 C854 1.389 . S
C853 H832 0.950 . S
C853 C852 1.373 . S
C853 C869 1.377 . S
C854 C852 1.389 . S
C854 C855 1.524 . S
C854 C868 1.377 . S
C855 C854 1.524 . S
C855 C856 1.397 . S
C855 C860 1.363 . S
C856 H833 0.950 . S
C856 C855 1.397 . S
C856 C857 1.334 . S
C857 H834 0.950 . S
C857 C856 1.334 . S
C857 C858 1.287 . S
C858 C857 1.287 . S
C858 C859 1.524 . S
C858 H877 0.913 . S
C859 H835 0.950 . S
C859 C858 1.524 . S
C859 C860 1.415 . S
C860 H836 0.950 . S
C860 C855 1.363 . S
C860 C859 1.415 . S
C861 H837 0.951 . S
C861 C862 1.366 . S
C861 C863 1.388 . S
C862 C861 1.366 . S
C862 C866 1.385 . S
C863 H838 0.951 . S
C863 C861 1.388 . S
C863 C864 1.366 . S
C864 C863 1.366 . S
C864 C865 1.414 . S
C864 C867 1.499 . S
C865 H839 0.950 . S
C865 C864 1.414 . S
C865 C866 1.374 . S
C866 H840 0.950 . S
C866 C862 1.385 . S
C866 C865 1.374 . S
C867 C864 1.499 . S
C867 C868 1.373 . S
C867 C869 1.389 . S
C868 H841 0.950 . S
C868 C854 1.377 . S
C868 C867 1.373 . S
C869 C853 1.377 . S
C869 C867 1.389 . S
C869 C870 1.524 . S
C870 C869 1.524 . S
C870 C871 1.397 . S
C870 C875 1.363 . S
C871 H842 0.950 . S
C871 C870 1.397 . S
C871 C872 1.334 . S
C872 H843 0.950 . S
C872 C871 1.334 . S
C872 C873 1.287 . S
C873 C872 1.287 . S
C873 C874 1.524 . S
C873 H876 0.999 . S
C874 H844 0.950 . S
C874 C873 1.524 . S
C874 C875 1.415 . S
C875 H845 0.950 . S
C875 C870 1.363 . S
C875 C874 1.415 . S
H876 C873 0.999 . S
H877 C858 0.913 . S
H878 C896 0.951 . S
H879 C898 0.951 . S
H880 C900 0.950 . S
H881 C901 0.950 . S
H882 C903 0.950 . S
H883 C906 0.950 . S
H884 C907 0.950 . S
H885 C909 0.950 . S
H886 C910 0.950 . S
H887 C911 0.951 . S
H888 C913 0.951 . S
H889 C915 0.950 . S
H890 C916 0.950 . S
H891 C918 0.950 . S
H892 C921 0.950 . S
H893 C922 0.950 . S
H894 C924 0.950 . S
H895 C925 0.950 . S
C896 H878 0.951 . S
C896 C897 1.366 . S
C896 C898 1.388 . S
C897 C896 1.366 . S
C897 C901 1.385 . S
C898 H879 0.951 . S
C898 C896 1.388 . S
C898 C899 1.366 . S
C899 C898 1.366 . S
C899 C900 1.414 . S
C899 C902 1.499 . S
C900 H880 0.950 . S
C900 C899 1.414 . S
C900 C901 1.374 . S
C901 H881 0.950 . S
C901 C897 1.385 . S
C901 C900 1.374 . S
C902 C899 1.499 . S
C902 C903 1.373 . S
C902 C904 1.389 . S
C903 H882 0.950 . S
C903 C902 1.373 . S
C903 C919 1.377 . S
C904 C902 1.389 . S
C904 C905 1.524 . S
C904 C918 1.377 . S
C905 C904 1.524 . S
C905 C906 1.397 . S
C905 C910 1.363 . S
C906 H883 0.950 . S
C906 C905 1.397 . S
C906 C907 1.334 . S
C907 H884 0.950 . S
C907 C906 1.334 . S
C907 C908 1.287 . S
C908 C907 1.287 . S
C908 C909 1.524 . S
C908 H927 0.913 . S
C909 H885 0.950 . S
C909 C908 1.524 . S
C909 C910 1.415 . S
C910 H886 0.950 . S
C910 C905 1.363 . S
C910 C909 1.415 . S
C911 H887 0.951 . S
C911 C912 1.366 . S
C911 C913 1.388 . S
C912 C911 1.366 . S
C912 C916 1.385 . S
C913 H888 0.951 . S
C913 C911 1.388 . S
C913 C914 1.366 . S
C914 C913 1.366 . S
C914 C915 1.414 . S
C914 C917 1.499 . S
C915 H889 0.950 . S
C915 C914 1.414 . S
C915 C916 1.374 . S
C916 H890 0.950 . S
C916 C912 1.385 . S
C916 C915 1.374 . S
C917 C914 1.499 . S
C917 C918 1.373 . S
C917 C919 1.389 . S
C918 H891 0.950 . S
C918 C904 1.377 . S
C918 C917 1.373 . S
C919 C903 1.377 . S
C919 C917 1.389 . S
C919 C920 1.524 . S
C920 C919 1.524 . S
C920 C921 1.397 . S
C920 C925 1.363 . S
C921 H892 0.950 . S
C921 C920 1.397 . S
C921 C922 1.334 . S
C922 H893 0.950 . S
C922 C921 1.334 . S
C922 C923 1.287 . S
C923 C922 1.287 . S
C923 C924 1.524 . S
C923 H926 0.999 . S
C924 H894 0.950 . S
C924 C923 1.524 . S
C924 C925 1.415 . S
C925 H895 0.950 . S
C925 C920 1.363 . S
C925 C924 1.415 . S
H926 C923 0.999 . S
H927 C908 0.913 . S
H928 C946 0.951 . S
H929 C948 0.951 . S
H930 C950 0.950 . S
H931 C951 0.950 . S
H932 C953 0.950 . S
H933 C956 0.950 . S
H934 C957 0.950 . S
H935 C959 0.950 . S
H936 C960 0.950 . S
H937 C961 0.951 . S
H938 C963 0.951 . S
H939 C965 0.950 . S
H940 C966 0.950 . S
H941 C968 0.950 . S
H942 C971 0.950 . S
H943 C972 0.950 . S
H944 C974 0.950 . S
H945 C975 0.950 . S
C946 H928 0.951 . S
C946 C947 1.366 1_554 S
C946 C948 1.388 . S
C947 C946 1.366 1_556 S
C947 C951 1.385 . S
C948 H929 0.951 . S
C948 C946 1.388 . S
C948 C949 1.366 1_554 S
C949 C948 1.366 1_556 S
C949 C950 1.414 . S
C949 C952 1.499 . S
C950 H930 0.950 . S
C950 C949 1.414 . S
C950 C951 1.374 . S
C951 H931 0.950 . S
C951 C947 1.385 . S
C951 C950 1.374 . S
C952 C949 1.499 . S
C952 C953 1.373 1_556 S
C952 C954 1.389 . S
C953 H932 0.950 . S
C953 C952 1.373 1_554 S
C953 C969 1.377 . S
C954 C952 1.389 . S
C954 C955 1.524 . S
C954 C968 1.377 1_556 S
C955 C954 1.524 . S
C955 C956 1.397 . S
C955 C960 1.363 1_556 S
C956 H933 0.950 . S
C956 C955 1.397 . S
C956 C957 1.334 . S
C957 H934 0.950 . S
C957 C956 1.334 . S
C957 C958 1.287 . S
C958 C957 1.287 . S
C958 C959 1.524 1_556 S
C958 H977 0.913 . S
C959 H935 0.950 . S
C959 C958 1.524 1_554 S
C959 C960 1.415 . S
C960 H936 0.950 . S
C960 C955 1.363 1_554 S
C960 C959 1.415 . S
C961 H937 0.951 . S
C961 C962 1.366 1_556 S
C961 C963 1.388 . S
C962 C961 1.366 1_554 S
C962 C966 1.385 . S
C963 H938 0.951 . S
C963 C961 1.388 . S
C963 C964 1.366 1_556 S
C964 C963 1.366 1_554 S
C964 C965 1.414 . S
C964 C967 1.499 . S
C965 H939 0.950 . S
C965 C964 1.414 . S
C965 C966 1.374 . S
C966 H940 0.950 . S
C966 C962 1.385 . S
C966 C965 1.374 . S
C967 C964 1.499 . S
C967 C968 1.373 . S
C967 C969 1.389 . S
C968 H941 0.950 . S
C968 C954 1.377 1_554 S
C968 C967 1.373 . S
C969 C953 1.377 . S
C969 C967 1.389 . S
C969 C970 1.524 . S
C970 C969 1.524 . S
C970 C971 1.397 . S
C970 C975 1.363 1_554 S
C971 H942 0.950 . S
C971 C970 1.397 . S
C971 C972 1.334 . S
C972 H943 0.950 . S
C972 C971 1.334 . S
C972 C973 1.287 . S
C973 C972 1.287 . S
C973 C974 1.524 1_554 S
C973 H976 0.999 . S
C974 H944 0.950 . S
C974 C973 1.524 1_556 S
C974 C975 1.415 . S
C975 H945 0.950 . S
C975 C970 1.363 1_556 S
C975 C974 1.415 . S
H976 C973 0.999 . S
H977 C958 0.913 . S
H978 C996 0.951 . S
H979 C998 0.951 . S
H980 C1000 0.950 . S
H981 C1001 0.950 . S
H982 C1003 0.950 . S
H983 C1006 0.950 . S
H984 C1007 0.950 . S
H985 C1009 0.950 . S
H986 C1010 0.950 . S
H987 C1011 0.951 . S
H988 C1013 0.951 . S
H989 C1015 0.950 . S
H990 C1016 0.950 . S
H991 C1018 0.950 . S
H992 C1021 0.950 . S
H993 C1022 0.950 . S
H994 C1024 0.950 . S
H995 C1025 0.950 . S
C996 H978 0.951 . S
C996 C997 1.366 1_554 S
C996 C998 1.388 . S
C997 C996 1.366 1_556 S
C997 C1001 1.385 . S
C998 H979 0.951 . S
C998 C996 1.388 . S
C998 C999 1.366 1_554 S
C999 C998 1.366 1_556 S
C999 C1000 1.414 . S
C999 C1002 1.499 . S
C1000 H980 0.950 . S
C1000 C999 1.414 . S
C1000 C1001 1.374 . S
C1001 H981 0.950 . S
C1001 C997 1.385 . S
C1001 C1000 1.374 . S
C1002 C999 1.499 . S
C1002 C1003 1.373 . S
C1002 C1004 1.389 1_556 S
C1003 H982 0.950 . S
C1003 C1002 1.373 . S
C1003 C1019 1.377 . S
C1004 C1002 1.389 1_554 S
C1004 C1005 1.524 . S
C1004 C1018 1.377 . S
C1005 C1004 1.524 . S
C1005 C1006 1.397 1_554 S
C1005 C1010 1.363 . S
C1006 H983 0.950 . S
C1006 C1005 1.397 1_556 S
C1006 C1007 1.334 . S
C1007 H984 0.950 . S
C1007 C1006 1.334 . S
C1007 C1008 1.287 1_556 S
C1008 C1007 1.287 1_554 S
C1008 C1009 1.524 . S
C1008 H1027 0.913 . S
C1009 H985 0.950 . S
C1009 C1008 1.524 . S
C1009 C1010 1.415 . S
C1010 H986 0.950 . S
C1010 C1005 1.363 . S
C1010 C1009 1.415 . S
C1011 H987 0.951 . S
C1011 C1012 1.366 1_556 S
C1011 C1013 1.388 . S
C1012 C1011 1.366 1_554 S
C1012 C1016 1.385 . S
C1013 H988 0.951 . S
C1013 C1011 1.388 . S
C1013 C1014 1.366 1_556 S
C1014 C1013 1.366 1_554 S
C1014 C1015 1.414 . S
C1014 C1017 1.499 . S
C1015 H989 0.950 . S
C1015 C1014 1.414 . S
C1015 C1016 1.374 . S
C1016 H990 0.950 . S
C1016 C1012 1.385 . S
C1016 C1015 1.374 . S
C1017 C1014 1.499 . S
C1017 C1018 1.373 . S
C1017 C1019 1.389 1_554 S
C1018 H991 0.950 . S
C1018 C1004 1.377 . S
C1018 C1017 1.373 . S
C1019 C1003 1.377 . S
C1019 C1017 1.389 1_556 S
C1019 C1020 1.524 . S
C1020 C1019 1.524 . S
C1020 C1021 1.397 1_556 S
C1020 C1025 1.363 . S
C1021 H992 0.950 . S
C1021 C1020 1.397 1_554 S
C1021 C1022 1.334 . S
C1022 H993 0.950 . S
C1022 C1021 1.334 . S
C1022 C1023 1.287 1_554 S
C1023 C1022 1.287 1_556 S
C1023 C1024 1.524 . S
C1023 H1026 0.999 . S
C1024 H994 0.950 . S
C1024 C1023 1.524 . S
C1024 C1025 1.415 . S
C1025 H995 0.950 . S
C1025 C1020 1.363 . S
C1025 C1024 1.415 . S
H1026 C1023 0.999 . S
H1027 C1008 0.913 . S
H1028 C1046 0.951 . S
H1029 C1048 0.951 . S
H1030 C1050 0.950 . S
H1031 C1051 0.950 . S
H1032 C1053 0.950 . S
H1033 C1056 0.950 . S
H1034 C1057 0.950 . S
H1035 C1059 0.950 . S
H1036 C1060 0.950 . S
H1037 C1061 0.951 . S
H1038 C1063 0.951 . S
H1039 C1065 0.950 . S
H1040 C1066 0.950 . S
H1041 C1068 0.950 . S
H1042 C1071 0.950 . S
H1043 C1072 0.950 . S
H1044 C1074 0.950 . S
H1045 C1075 0.950 . S
C1046 H1028 0.951 . S
C1046 C1047 1.366 1_556 S
C1046 C1048 1.388 . S
C1047 C1046 1.366 1_554 S
C1047 C1051 1.385 . S
C1048 H1029 0.951 . S
C1048 C1046 1.388 . S
C1048 C1049 1.366 1_556 S
C1049 C1048 1.366 1_554 S
C1049 C1050 1.414 . S
C1049 C1052 1.499 . S
C1050 H1030 0.950 . S
C1050 C1049 1.414 . S
C1050 C1051 1.374 . S
C1051 H1031 0.950 . S
C1051 C1047 1.385 . S
C1051 C1050 1.374 . S
C1052 C1049 1.499 . S
C1052 C1053 1.373 . S
C1052 C1054 1.393 . S
C1053 H1032 0.950 . S
C1053 C1052 1.373 . S
C1053 C1069 1.377 . S
C1054 C1052 1.393 . S
C1054 C1055 1.525 . S
C1054 C1068 1.374 1_554 S
C1055 C1054 1.525 . S
C1055 C1056 1.397 . S
C1055 C1060 1.363 1_554 S
C1056 H1033 0.950 . S
C1056 C1055 1.397 . S
C1056 C1057 1.334 . S
C1057 H1034 0.950 . S
C1057 C1056 1.334 . S
C1057 C1058 1.287 . S
C1058 C1057 1.287 . S
C1058 C1059 1.524 1_554 S
C1058 H1077 0.913 . S
C1059 H1035 0.950 . S
C1059 C1058 1.524 1_556 S
C1059 C1060 1.415 . S
C1060 H1036 0.950 . S
C1060 C1055 1.363 1_556 S
C1060 C1059 1.415 . S
C1061 H1037 0.951 . S
C1061 C1062 1.366 1_554 S
C1061 C1063 1.388 . S
C1062 C1061 1.366 1_556 S
C1062 C1066 1.385 . S
C1063 H1038 0.951 . S
C1063 C1061 1.388 . S
C1063 C1064 1.366 1_554 S
C1064 C1063 1.366 1_556 S
C1064 C1065 1.414 . S
C1064 C1067 1.499 . S
C1065 H1039 0.950 . S
C1065 C1064 1.414 . S
C1065 C1066 1.374 . S
C1066 H1040 0.950 . S
C1066 C1062 1.385 . S
C1066 C1065 1.374 . S
C1067 C1064 1.499 . S
C1067 C1068 1.373 . S
C1067 C1069 1.389 1_556 S
C1068 H1041 0.950 . S
C1068 C1054 1.374 1_556 S
C1068 C1067 1.373 . S
C1069 C1053 1.377 . S
C1069 C1067 1.389 1_554 S
C1069 C1070 1.524 . S
C1070 C1069 1.524 . S
C1070 C1071 1.397 1_554 S
C1070 C1075 1.363 . S
C1071 H1042 0.950 . S
C1071 C1070 1.397 1_556 S
C1071 C1072 1.334 . S
C1072 H1043 0.950 . S
C1072 C1071 1.334 . S
C1072 C1073 1.287 . S
C1073 C1072 1.287 . S
C1073 C1074 1.524 1_556 S
C1073 H1076 0.999 . S
C1074 H1044 0.950 . S
C1074 C1073 1.524 1_554 S
C1074 C1075 1.415 . S
C1075 H1045 0.950 . S
C1075 C1070 1.363 . S
C1075 C1074 1.415 . S
H1076 C1073 0.999 . S
H1077 C1058 0.913 . S
H1078 C1096 0.951 . S
H1079 C1098 0.951 . S
H1080 C1100 0.950 . S
H1081 C1101 0.950 . S
H1082 C1103 0.950 . S
H1083 C1106 0.950 . S
H1084 C1107 0.950 . S
H1085 C1109 0.950 . S
H1086 C1110 0.950 . S
H1087 C1111 0.951 . S
H1088 C1113 0.951 . S
H1089 C1115 0.950 . S
H1090 C1116 0.950 . S
H1091 C1118 0.950 . S
H1092 C1121 0.950 . S
H1093 C1122 0.950 . S
H1094 C1124 0.950 . S
H1095 C1125 0.950 . S
C1096 H1078 0.951 . S
C1096 C1097 1.366 1_556 S
C1096 C1098 1.388 . S
C1097 C1096 1.366 1_554 S
C1097 C1101 1.385 . S
C1098 H1079 0.951 . S
C1098 C1096 1.388 . S
C1098 C1099 1.366 1_556 S
C1099 C1098 1.366 1_554 S
C1099 C1100 1.414 . S
C1099 C1102 1.499 . S
C1100 H1080 0.950 . S
C1100 C1099 1.414 . S
C1100 C1101 1.374 . S
C1101 H1081 0.950 . S
C1101 C1097 1.385 . S
C1101 C1100 1.374 . S
C1102 C1099 1.499 . S
C1102 C1103 1.373 . S
C1102 C1104 1.389 1_554 S
C1103 H1082 0.950 . S
C1103 C1102 1.373 . S
C1103 C1119 1.377 . S
C1104 C1102 1.389 1_556 S
C1104 C1105 1.524 . S
C1104 C1118 1.377 . S
C1105 C1104 1.524 . S
C1105 C1106 1.397 . S
C1105 C1110 1.363 . S
C1106 H1083 0.950 . S
C1106 C1105 1.397 . S
C1106 C1107 1.334 . S
C1107 H1084 0.950 . S
C1107 C1106 1.334 . S
C1107 C1108 1.287 . S
C1108 C1107 1.287 . S
C1108 C1109 1.524 . S
C1108 H1127 0.913 . S
C1109 H1085 0.950 . S
C1109 C1108 1.524 . S
C1109 C1110 1.415 . S
C1110 H1086 0.950 . S
C1110 C1105 1.363 . S
C1110 C1109 1.415 . S
C1111 H1087 0.951 . S
C1111 C1112 1.366 1_554 S
C1111 C1113 1.388 . S
C1112 C1111 1.366 1_556 S
C1112 C1116 1.385 . S
C1113 H1088 0.951 . S
C1113 C1111 1.388 . S
C1113 C1114 1.366 . S
C1114 C1113 1.366 . S
C1114 C1115 1.414 1_554 S
C1114 C1117 1.499 . S
C1115 H1089 0.950 . S
C1115 C1114 1.414 1_556 S
C1115 C1116 1.374 . S
C1116 H1090 0.950 . S
C1116 C1112 1.385 . S
C1116 C1115 1.374 . S
C1117 C1114 1.499 . S
C1117 C1118 1.373 1_554 S
C1117 C1119 1.389 . S
C1118 H1091 0.950 . S
C1118 C1104 1.377 . S
C1118 C1117 1.373 1_556 S
C1119 C1103 1.377 . S
C1119 C1117 1.389 . S
C1119 C1120 1.524 . S
C1120 C1119 1.524 . S
C1120 C1121 1.397 . S
C1120 C1125 1.363 . S
C1121 H1092 0.950 . S
C1121 C1120 1.397 . S
C1121 C1122 1.334 . S
C1122 H1093 0.950 . S
C1122 C1121 1.334 . S
C1122 C1123 1.287 . S
C1123 C1122 1.287 . S
C1123 C1124 1.524 . S
C1123 H1126 0.999 . S
C1124 H1094 0.950 . S
C1124 C1123 1.524 . S
C1124 C1125 1.415 . S
C1125 H1095 0.950 . S
C1125 C1120 1.363 . S
C1125 C1124 1.415 . S
H1126 C1123 0.999 . S
H1127 C1108 0.913 . S
H1128 C1146 0.951 . S
H1129 C1148 0.951 . S
H1130 C1150 0.950 . S
H1131 C1151 0.950 . S
H1132 C1153 0.950 . S
H1133 C1156 0.950 . S
H1134 C1157 0.950 . S
H1135 C1159 0.950 . S
H1136 C1160 0.950 . S
H1137 C1161 0.951 . S
H1138 C1163 0.951 . S
H1139 C1165 0.950 . S
H1140 C1166 0.950 . S
H1141 C1168 0.950 . S
H1142 C1171 0.950 . S
H1143 C1172 0.950 . S
H1144 C1174 0.950 . S
H1145 C1175 0.950 . S
C1146 H1128 0.951 . S
C1146 C1147 1.366 . S
C1146 C1148 1.388 . S
C1147 C1146 1.366 . S
C1147 C1151 1.385 . S
C1148 H1129 0.951 . S
C1148 C1146 1.388 . S
C1148 C1149 1.366 . S
C1149 C1148 1.366 . S
C1149 C1150 1.414 . S
C1149 C1152 1.499 . S
C1150 H1130 0.950 . S
C1150 C1149 1.414 . S
C1150 C1151 1.374 . S
C1151 H1131 0.950 . S
C1151 C1147 1.385 . S
C1151 C1150 1.374 . S
C1152 C1149 1.499 . S
C1152 C1153 1.373 . S
C1152 C1154 1.389 . S
C1153 H1132 0.950 . S
C1153 C1152 1.373 . S
C1153 C1169 1.377 . S
C1154 C1152 1.389 . S
C1154 C1155 1.524 . S
C1154 C1168 1.377 . S
C1155 C1154 1.524 . S
C1155 C1156 1.397 . S
C1155 C1160 1.363 . S
C1156 H1133 0.950 . S
C1156 C1155 1.397 . S
C1156 C1157 1.334 . S
C1157 H1134 0.950 . S
C1157 C1156 1.334 . S
C1157 C1158 1.287 . S
C1158 C1157 1.287 . S
C1158 C1159 1.524 . S
C1158 H1177 0.913 . S
C1159 H1135 0.950 . S
C1159 C1158 1.524 . S
C1159 C1160 1.415 . S
C1160 H1136 0.950 . S
C1160 C1155 1.363 . S
C1160 C1159 1.415 . S
C1161 H1137 0.951 . S
C1161 C1162 1.366 . S
C1161 C1163 1.388 . S
C1162 C1161 1.366 . S
C1162 C1166 1.385 . S
C1163 H1138 0.951 . S
C1163 C1161 1.388 . S
C1163 C1164 1.366 . S
C1164 C1163 1.366 . S
C1164 C1165 1.414 . S
C1164 C1167 1.499 . S
C1165 H1139 0.950 . S
C1165 C1164 1.414 . S
C1165 C1166 1.374 . S
C1166 H1140 0.950 . S
C1166 C1162 1.385 . S
C1166 C1165 1.374 . S
C1167 C1164 1.499 . S
C1167 C1168 1.373 . S
C1167 C1169 1.389 . S
C1168 H1141 0.950 . S
C1168 C1154 1.377 . S
C1168 C1167 1.373 . S
C1169 C1153 1.377 . S
C1169 C1167 1.389 . S
C1169 C1170 1.524 . S
C1170 C1169 1.524 . S
C1170 C1171 1.397 . S
C1170 C1175 1.363 . S
C1171 H1142 0.950 . S
C1171 C1170 1.397 . S
C1171 C1172 1.334 . S
C1172 H1143 0.950 . S
C1172 C1171 1.334 . S
C1172 C1173 1.287 . S
C1173 C1172 1.287 . S
C1173 C1174 1.524 . S
C1173 H1176 0.999 . S
C1174 H1144 0.950 . S
C1174 C1173 1.524 . S
C1174 C1175 1.415 . S
C1175 H1145 0.950 . S
C1175 C1170 1.363 . S
C1175 C1174 1.415 . S
H1176 C1173 0.999 . S
H1177 C1158 0.913 . S
H1178 C1196 0.951 . S
H1179 C1198 0.951 . S
H1180 C1200 0.950 . S
H1181 C1201 0.950 . S
H1182 C1203 0.950 . S
H1183 C1206 0.950 . S
H1184 C1207 0.950 . S
H1185 C1209 0.950 . S
H1186 C1210 0.950 . S
H1187 C1211 0.951 . S
H1188 C1213 0.951 . S
H1189 C1215 0.950 . S
H1190 C1216 0.950 . S
H1191 C1218 0.950 . S
H1192 C1221 0.950 . S
H1193 C1222 0.950 . S
H1194 C1224 0.950 . S
H1195 C1225 0.950 . S
C1196 H1178 0.951 . S
C1196 C1197 1.366 . S
C1196 C1198 1.388 . S
C1197 C1196 1.366 . S
C1197 C1201 1.385 . S
C1198 H1179 0.951 . S
C1198 C1196 1.388 . S
C1198 C1199 1.366 . S
C1199 C1198 1.366 . S
C1199 C1200 1.414 . S
C1199 C1202 1.499 . S
C1200 H1180 0.950 . S
C1200 C1199 1.414 . S
C1200 C1201 1.374 . S
C1201 H1181 0.950 . S
C1201 C1197 1.385 . S
C1201 C1200 1.374 . S
C1202 C1199 1.499 . S
C1202 C1203 1.373 . S
C1202 C1204 1.389 . S
C1203 H1182 0.950 . S
C1203 C1202 1.373 . S
C1203 C1219 1.377 . S
C1204 C1202 1.389 . S
C1204 C1205 1.524 . S
C1204 C1218 1.377 . S
C1205 C1204 1.524 . S
C1205 C1206 1.397 . S
C1205 C1210 1.363 . S
C1206 H1183 0.950 . S
C1206 C1205 1.397 . S
C1206 C1207 1.334 . S
C1207 H1184 0.950 . S
C1207 C1206 1.334 . S
C1207 C1208 1.287 . S
C1208 C1207 1.287 . S
C1208 C1209 1.524 . S
C1208 H1227 0.913 . S
C1209 H1185 0.950 . S
C1209 C1208 1.524 . S
C1209 C1210 1.415 . S
C1210 H1186 0.950 . S
C1210 C1205 1.363 . S
C1210 C1209 1.415 . S
C1211 H1187 0.951 . S
C1211 C1212 1.366 . S
C1211 C1213 1.388 . S
C1212 C1211 1.366 . S
C1212 C1216 1.385 . S
C1213 H1188 0.951 . S
C1213 C1211 1.388 . S
C1213 C1214 1.366 . S
C1214 C1213 1.366 . S
C1214 C1215 1.414 . S
C1214 C1217 1.499 . S
C1215 H1189 0.950 . S
C1215 C1214 1.414 . S
C1215 C1216 1.374 . S
C1216 H1190 0.950 . S
C1216 C1212 1.385 . S
C1216 C1215 1.374 . S
C1217 C1214 1.499 . S
C1217 C1218 1.373 . S
C1217 C1219 1.389 . S
C1218 H1191 0.950 . S
C1218 C1204 1.377 . S
C1218 C1217 1.373 . S
C1219 C1203 1.377 . S
C1219 C1217 1.389 . S
C1219 C1220 1.524 . S
C1220 C1219 1.524 . S
C1220 C1221 1.397 . S
C1220 C1225 1.363 . S
C1221 H1192 0.950 . S
C1221 C1220 1.397 . S
C1221 C1222 1.334 . S
C1222 H1193 0.950 . S
C1222 C1221 1.334 . S
C1222 C1223 1.287 . S
C1223 C1222 1.287 . S
C1223 C1224 1.524 . S
C1223 H1226 0.999 . S
C1224 H1194 0.950 . S
C1224 C1223 1.524 . S
C1224 C1225 1.415 . S
C1225 H1195 0.950 . S
C1225 C1220 1.363 . S
C1225 C1224 1.415 . S
H1226 C1223 0.999 . S
H1227 C1208 0.913 . S
H1228 C1246 0.951 . S
H1229 C1248 0.951 . S
H1230 C1250 0.950 . S
H1231 C1251 0.950 . S
H1232 C1253 0.950 . S
H1233 C1256 0.950 . S
H1234 C1257 0.950 . S
H1235 C1259 0.950 . S
H1236 C1260 0.950 . S
H1237 C1261 0.951 . S
H1238 C1263 0.951 . S
H1239 C1265 0.950 . S
H1240 C1266 0.950 . S
H1241 C1268 0.950 . S
H1242 C1271 0.950 . S
H1243 C1272 0.950 . S
H1244 C1274 0.950 . S
H1245 C1275 0.950 . S
C1246 H1228 0.951 . S
C1246 C1247 1.366 . S
C1246 C1248 1.388 . S
C1247 C1246 1.366 . S
C1247 C1251 1.385 . S
C1248 H1229 0.951 . S
C1248 C1246 1.388 . S
C1248 C1249 1.366 . S
C1249 C1248 1.366 . S
C1249 C1250 1.414 . S
C1249 C1252 1.499 . S
C1250 H1230 0.950 . S
C1250 C1249 1.414 . S
C1250 C1251 1.374 . S
C1251 H1231 0.950 . S
C1251 C1247 1.385 . S
C1251 C1250 1.374 . S
C1252 C1249 1.499 . S
C1252 C1253 1.373 . S
C1252 C1254 1.389 . S
C1253 H1232 0.950 . S
C1253 C1252 1.373 . S
C1253 C1269 1.377 . S
C1254 C1252 1.389 . S
C1254 C1255 1.524 . S
C1254 C1268 1.377 . S
C1255 C1254 1.524 . S
C1255 C1256 1.397 . S
C1255 C1260 1.363 . S
C1256 H1233 0.950 . S
C1256 C1255 1.397 . S
C1256 C1257 1.334 . S
C1257 H1234 0.950 . S
C1257 C1256 1.334 . S
C1257 C1258 1.287 . S
C1258 C1257 1.287 . S
C1258 C1259 1.524 . S
C1258 H1277 0.913 . S
C1259 H1235 0.950 . S
C1259 C1258 1.524 . S
C1259 C1260 1.415 . S
C1260 H1236 0.950 . S
C1260 C1255 1.363 . S
C1260 C1259 1.415 . S
C1261 H1237 0.951 . S
C1261 C1262 1.366 . S
C1261 C1263 1.388 . S
C1262 C1261 1.366 . S
C1262 C1266 1.385 . S
C1263 H1238 0.951 . S
C1263 C1261 1.388 . S
C1263 C1264 1.366 . S
C1264 C1263 1.366 . S
C1264 C1265 1.414 . S
C1264 C1267 1.499 . S
C1265 H1239 0.950 . S
C1265 C1264 1.414 . S
C1265 C1266 1.374 . S
C1266 H1240 0.950 . S
C1266 C1262 1.385 . S
C1266 C1265 1.374 . S
C1267 C1264 1.499 . S
C1267 C1268 1.373 . S
C1267 C1269 1.389 . S
C1268 H1241 0.950 . S
C1268 C1254 1.377 . S
C1268 C1267 1.373 . S
C1269 C1253 1.377 . S
C1269 C1267 1.389 . S
C1269 C1270 1.524 . S
C1270 C1269 1.524 . S
C1270 C1271 1.397 . S
C1270 C1275 1.363 . S
C1271 H1242 0.950 . S
C1271 C1270 1.397 . S
C1271 C1272 1.334 . S
C1272 H1243 0.950 . S
C1272 C1271 1.334 . S
C1272 C1273 1.287 . S
C1273 C1272 1.287 . S
C1273 C1274 1.524 . S
C1273 H1276 0.999 . S
C1274 H1244 0.950 . S
C1274 C1273 1.524 . S
C1274 C1275 1.415 . S
C1275 H1245 0.950 . S
C1275 C1270 1.363 . S
C1275 C1274 1.415 . S
H1276 C1273 0.999 . S
H1277 C1258 0.913 . S
H1278 C1296 0.951 . S
H1279 C1298 0.951 . S
H1280 C1300 0.950 . S
H1281 C1301 0.950 . S
H1282 C1303 0.950 . S
H1283 C1306 0.950 . S
H1284 C1307 0.950 . S
H1285 C1309 0.950 . S
H1286 C1310 0.950 . S
H1287 C1311 0.951 . S
H1288 C1313 0.951 . S
H1289 C1315 0.950 . S
H1290 C1316 0.950 . S
H1291 C1318 0.950 . S
H1292 C1321 0.950 . S
H1293 C1322 0.950 . S
H1294 C1324 0.950 . S
H1295 C1325 0.950 . S
C1296 H1278 0.951 . S
C1296 C1297 1.366 . S
C1296 C1298 1.388 . S
C1297 C1296 1.366 . S
C1297 C1301 1.385 . S
C1298 H1279 0.951 . S
C1298 C1296 1.388 . S
C1298 C1299 1.366 . S
C1299 C1298 1.366 . S
C1299 C1300 1.414 . S
C1299 C1302 1.499 . S
C1300 H1280 0.950 . S
C1300 C1299 1.414 . S
C1300 C1301 1.374 . S
C1301 H1281 0.950 . S
C1301 C1297 1.385 . S
C1301 C1300 1.374 . S
C1302 C1299 1.499 . S
C1302 C1303 1.373 . S
C1302 C1304 1.389 . S
C1303 H1282 0.950 . S
C1303 C1302 1.373 . S
C1303 C1319 1.377 . S
C1304 C1302 1.389 . S
C1304 C1305 1.524 . S
C1304 C1318 1.377 . S
C1305 C1304 1.524 . S
C1305 C1306 1.397 . S
C1305 C1310 1.363 . S
C1306 H1283 0.950 . S
C1306 C1305 1.397 . S
C1306 C1307 1.334 . S
C1307 H1284 0.950 . S
C1307 C1306 1.334 . S
C1307 C1308 1.287 . S
C1308 C1307 1.287 . S
C1308 C1309 1.524 . S
C1308 H1327 0.913 . S
C1309 H1285 0.950 . S
C1309 C1308 1.524 . S
C1309 C1310 1.415 . S
C1310 H1286 0.950 . S
C1310 C1305 1.363 . S
C1310 C1309 1.415 . S
C1311 H1287 0.951 . S
C1311 C1312 1.366 . S
C1311 C1313 1.388 . S
C1312 C1311 1.366 . S
C1312 C1316 1.385 . S
C1313 H1288 0.951 . S
C1313 C1311 1.388 . S
C1313 C1314 1.366 . S
C1314 C1313 1.366 . S
C1314 C1315 1.414 . S
C1314 C1317 1.499 . S
C1315 H1289 0.950 . S
C1315 C1314 1.414 . S
C1315 C1316 1.374 . S
C1316 H1290 0.950 . S
C1316 C1312 1.385 . S
C1316 C1315 1.374 . S
C1317 C1314 1.499 . S
C1317 C1318 1.373 . S
C1317 C1319 1.389 . S
C1318 H1291 0.950 . S
C1318 C1304 1.377 . S
C1318 C1317 1.373 . S
C1319 C1303 1.377 . S
C1319 C1317 1.389 . S
C1319 C1320 1.524 . S
C1320 C1319 1.524 . S
C1320 C1321 1.397 . S
C1320 C1325 1.363 . S
C1321 H1292 0.950 . S
C1321 C1320 1.397 . S
C1321 C1322 1.334 . S
C1322 H1293 0.950 . S
C1322 C1321 1.334 . S
C1322 C1323 1.287 . S
C1323 C1322 1.287 . S
C1323 C1324 1.524 . S
C1323 H1326 0.999 . S
C1324 H1294 0.950 . S
C1324 C1323 1.524 . S
C1324 C1325 1.415 . S
C1325 H1295 0.950 . S
C1325 C1320 1.363 . S
C1325 C1324 1.415 . S
H1326 C1323 0.999 . S
H1327 C1308 0.913 . S
H1328 C1346 0.951 . S
H1329 C1348 0.951 . S
H1330 C1350 0.950 . S
H1331 C1351 0.950 . S
H1332 C1353 0.950 . S
H1333 C1356 0.950 . S
H1334 C1357 0.950 . S
H1335 C1359 0.950 . S
H1336 C1360 0.950 . S
H1337 C1361 0.951 . S
H1338 C1363 0.951 . S
H1339 C1365 0.950 . S
H1340 C1366 0.950 . S
H1341 C1368 0.950 . S
H1342 C1371 0.950 . S
H1343 C1372 0.950 . S
H1344 C1374 0.950 . S
H1345 C1375 0.950 . S
C1346 H1328 0.951 . S
C1346 C1347 1.366 . S
C1346 C1348 1.388 . S
C1347 C1346 1.366 . S
C1347 C1351 1.385 . S
C1348 H1329 0.951 . S
C1348 C1346 1.388 . S
C1348 C1349 1.366 . S
C1349 C1348 1.366 . S
C1349 C1350 1.414 . S
C1349 C1352 1.499 . S
C1350 H1330 0.950 . S
C1350 C1349 1.414 . S
C1350 C1351 1.374 . S
C1351 H1331 0.950 . S
C1351 C1347 1.385 . S
C1351 C1350 1.374 . S
C1352 C1349 1.499 . S
C1352 C1353 1.373 . S
C1352 C1354 1.389 . S
C1353 H1332 0.950 . S
C1353 C1352 1.373 . S
C1353 C1369 1.377 . S
C1354 C1352 1.389 . S
C1354 C1355 1.524 . S
C1354 C1368 1.377 . S
C1355 C1354 1.524 . S
C1355 C1356 1.397 . S
C1355 C1360 1.363 . S
C1356 H1333 0.950 . S
C1356 C1355 1.397 . S
C1356 C1357 1.334 . S
C1357 H1334 0.950 . S
C1357 C1356 1.334 . S
C1357 C1358 1.287 . S
C1358 C1357 1.287 . S
C1358 C1359 1.524 . S
C1358 H1377 0.913 . S
C1359 H1335 0.950 . S
C1359 C1358 1.524 . S
C1359 C1360 1.415 . S
C1360 H1336 0.950 . S
C1360 C1355 1.363 . S
C1360 C1359 1.415 . S
C1361 H1337 0.951 . S
C1361 C1362 1.366 . S
C1361 C1363 1.388 . S
C1362 C1361 1.366 . S
C1362 C1366 1.385 . S
C1363 H1338 0.951 . S
C1363 C1361 1.388 . S
C1363 C1364 1.366 . S
C1364 C1363 1.366 . S
C1364 C1365 1.414 . S
C1364 C1367 1.499 . S
C1365 H1339 0.950 . S
C1365 C1364 1.414 . S
C1365 C1366 1.374 . S
C1366 H1340 0.950 . S
C1366 C1362 1.385 . S
C1366 C1365 1.374 . S
C1367 C1364 1.499 . S
C1367 C1368 1.373 . S
C1367 C1369 1.389 . S
C1368 H1341 0.950 . S
C1368 C1354 1.377 . S
C1368 C1367 1.373 . S
C1369 C1353 1.377 . S
C1369 C1367 1.389 . S
C1369 C1370 1.524 . S
C1370 C1369 1.524 . S
C1370 C1371 1.397 . S
C1370 C1375 1.363 . S
C1371 H1342 0.950 . S
C1371 C1370 1.397 . S
C1371 C1372 1.334 . S
C1372 H1343 0.950 . S
C1372 C1371 1.334 . S
C1372 C1373 1.287 . S
C1373 C1372 1.287 . S
C1373 C1374 1.524 . S
C1373 H1376 0.999 . S
C1374 H1344 0.950 . S
C1374 C1373 1.524 . S
C1374 C1375 1.415 . S
C1375 H1345 0.950 . S
C1375 C1370 1.363 . S
C1375 C1374 1.415 . S
H1376 C1373 0.999 . S
H1377 C1358 0.913 . S
H1378 C1396 0.951 . S
H1379 C1398 0.951 . S
H1380 C1400 0.950 . S
H1381 C1401 0.950 . S
H1382 C1403 0.950 . S
H1383 C1406 0.950 . S
H1384 C1407 0.950 . S
H1385 C1409 0.950 . S
H1386 C1410 0.950 . S
H1387 C1411 0.951 . S
H1388 C1413 0.951 . S
H1389 C1415 0.950 . S
H1390 C1416 0.950 . S
H1391 C1418 0.950 . S
H1392 C1421 0.950 . S
H1393 C1422 0.950 . S
H1394 C1424 0.950 . S
H1395 C1425 0.950 . S
C1396 H1378 0.951 . S
C1396 C1397 1.366 . S
C1396 C1398 1.388 . S
C1397 C1396 1.366 . S
C1397 C1401 1.385 . S
C1398 H1379 0.951 . S
C1398 C1396 1.388 . S
C1398 C1399 1.366 . S
C1399 C1398 1.366 . S
C1399 C1400 1.414 . S
C1399 C1402 1.499 . S
C1400 H1380 0.950 . S
C1400 C1399 1.414 . S
C1400 C1401 1.374 . S
C1401 H1381 0.950 . S
C1401 C1397 1.385 . S
C1401 C1400 1.374 . S
C1402 C1399 1.499 . S
C1402 C1403 1.373 . S
C1402 C1404 1.389 . S
C1403 H1382 0.950 . S
C1403 C1402 1.373 . S
C1403 C1419 1.377 . S
C1404 C1402 1.389 . S
C1404 C1405 1.524 . S
C1404 C1418 1.377 . S
C1405 C1404 1.524 . S
C1405 C1406 1.397 . S
C1405 C1410 1.363 . S
C1406 H1383 0.950 . S
C1406 C1405 1.397 . S
C1406 C1407 1.334 . S
C1407 H1384 0.950 . S
C1407 C1406 1.334 . S
C1407 C1408 1.287 . S
C1408 C1407 1.287 . S
C1408 C1409 1.524 . S
C1408 H1427 0.913 . S
C1409 H1385 0.950 . S
C1409 C1408 1.524 . S
C1409 C1410 1.415 . S
C1410 H1386 0.950 . S
C1410 C1405 1.363 . S
C1410 C1409 1.415 . S
C1411 H1387 0.951 . S
C1411 C1412 1.366 . S
C1411 C1413 1.388 . S
C1412 C1411 1.366 . S
C1412 C1416 1.385 . S
C1413 H1388 0.951 . S
C1413 C1411 1.388 . S
C1413 C1414 1.366 . S
C1414 C1413 1.366 . S
C1414 C1415 1.414 . S
C1414 C1417 1.499 . S
C1415 H1389 0.950 . S
C1415 C1414 1.414 . S
C1415 C1416 1.374 . S
C1416 H1390 0.950 . S
C1416 C1412 1.385 . S
C1416 C1415 1.374 . S
C1417 C1414 1.499 . S
C1417 C1418 1.373 . S
C1417 C1419 1.389 . S
C1418 H1391 0.950 . S
C1418 C1404 1.377 . S
C1418 C1417 1.373 . S
C1419 C1403 1.377 . S
C1419 C1417 1.389 . S
C1419 C1420 1.524 . S
C1420 C1419 1.524 . S
C1420 C1421 1.397 . S
C1420 C1425 1.363 . S
C1421 H1392 0.950 . S
C1421 C1420 1.397 . S
C1421 C1422 1.334 . S
C1422 H1393 0.950 . S
C1422 C1421 1.334 . S
C1422 C1423 1.287 . S
C1423 C1422 1.287 . S
C1423 C1424 1.524 . S
C1423 H1426 0.999 . S
C1424 H1394 0.950 . S
C1424 C1423 1.524 . S
C1424 C1425 1.415 . S
C1425 H1395 0.950 . S
C1425 C1420 1.363 . S
C1425 C1424 1.415 . S
H1426 C1423 0.999 . S
H1427 C1408 0.913 . S
H1428 C1446 0.951 . S
H1429 C1448 0.951 . S
H1430 C1450 0.950 . S
H1431 C1451 0.950 . S
H1432 C1453 0.950 . S
H1433 C1456 0.950 . S
H1434 C1457 0.950 . S
H1435 C1459 0.950 . S
H1436 C1460 0.950 . S
H1437 C1461 0.951 . S
H1438 C1463 0.951 . S
H1439 C1465 0.950 . S
H1440 C1466 0.950 . S
H1441 C1468 0.950 . S
H1442 C1471 0.950 . S
H1443 C1472 0.950 . S
H1444 C1474 0.950 . S
H1445 C1475 0.950 . S
C1446 H1428 0.951 . S
C1446 C1447 1.366 . S
C1446 C1448 1.388 . S
C1447 C1446 1.366 . S
C1447 C1451 1.385 . S
C1448 H1429 0.951 . S
C1448 C1446 1.388 . S
C1448 C1449 1.366 . S
C1449 C1448 1.366 . S
C1449 C1450 1.414 . S
C1449 C1452 1.499 . S
C1450 H1430 0.950 . S
C1450 C1449 1.414 . S
C1450 C1451 1.374 . S
C1451 H1431 0.950 . S
C1451 C1447 1.385 . S
C1451 C1450 1.374 . S
C1452 C1449 1.499 . S
C1452 C1453 1.373 . S
C1452 C1454 1.389 . S
C1453 H1432 0.950 . S
C1453 C1452 1.373 . S
C1453 C1469 1.377 . S
C1454 C1452 1.389 . S
C1454 C1455 1.524 . S
C1454 C1468 1.377 . S
C1455 C1454 1.524 . S
C1455 C1456 1.397 . S
C1455 C1460 1.363 . S
C1456 H1433 0.950 . S
C1456 C1455 1.397 . S
C1456 C1457 1.334 . S
C1457 H1434 0.950 . S
C1457 C1456 1.334 . S
C1457 C1458 1.287 . S
C1458 C1457 1.287 . S
C1458 C1459 1.524 . S
C1458 H1477 0.913 . S
C1459 H1435 0.950 . S
C1459 C1458 1.524 . S
C1459 C1460 1.415 . S
C1460 H1436 0.950 . S
C1460 C1455 1.363 . S
C1460 C1459 1.415 . S
C1461 H1437 0.951 . S
C1461 C1462 1.366 . S
C1461 C1463 1.388 . S
C1462 C1461 1.366 . S
C1462 C1466 1.385 . S
C1463 H1438 0.951 . S
C1463 C1461 1.388 . S
C1463 C1464 1.366 . S
C1464 C1463 1.366 . S
C1464 C1465 1.414 . S
C1464 C1467 1.499 . S
C1465 H1439 0.950 . S
C1465 C1464 1.414 . S
C1465 C1466 1.374 . S
C1466 H1440 0.950 . S
C1466 C1462 1.385 . S
C1466 C1465 1.374 . S
C1467 C1464 1.499 . S
C1467 C1468 1.373 . S
C1467 C1469 1.389 . S
C1468 H1441 0.950 . S
C1468 C1454 1.377 . S
C1468 C1467 1.373 . S
C1469 C1453 1.377 . S
C1469 C1467 1.389 . S
C1469 C1470 1.524 . S
C1470 C1469 1.524 . S
C1470 C1471 1.397 . S
C1470 C1475 1.363 . S
C1471 H1442 0.950 . S
C1471 C1470 1.397 . S
C1471 C1472 1.334 . S
C1472 H1443 0.950 . S
C1472 C1471 1.334 . S
C1472 C1473 1.287 . S
C1473 C1472 1.287 . S
C1473 C1474 1.524 . S
C1473 H1476 0.999 . S
C1474 H1444 0.950 . S
C1474 C1473 1.524 . S
C1474 C1475 1.415 . S
C1475 H1445 0.950 . S
C1475 C1470 1.363 . S
C1475 C1474 1.415 . S
H1476 C1473 0.999 . S
H1477 C1458 0.913 . S
H1478 C1496 0.951 . S
H1479 C1498 0.951 . S
H1480 C1500 0.950 . S
H1481 C1501 0.950 . S
H1482 C1503 0.950 . S
H1483 C1506 0.950 . S
H1484 C1507 0.950 . S
H1485 C1509 0.950 . S
H1486 C1510 0.950 . S
H1487 C1511 0.951 . S
H1488 C1513 0.951 . S
H1489 C1515 0.950 . S
H1490 C1516 0.950 . S
H1491 C1518 0.950 . S
H1492 C1521 0.950 . S
H1493 C1522 0.950 . S
H1494 C1524 0.950 . S
H1495 C1525 0.950 . S
C1496 H1478 0.951 . S
C1496 C1497 1.366 . S
C1496 C1498 1.388 . S
C1497 C1496 1.366 . S
C1497 C1501 1.385 . S
C1498 H1479 0.951 . S
C1498 C1496 1.388 . S
C1498 C1499 1.366 . S
C1499 C1498 1.366 . S
C1499 C1500 1.414 . S
C1499 C1502 1.499 . S
C1500 H1480 0.950 . S
C1500 C1499 1.414 . S
C1500 C1501 1.374 . S
C1501 H1481 0.950 . S
C1501 C1497 1.385 . S
C1501 C1500 1.374 . S
C1502 C1499 1.499 . S
C1502 C1503 1.373 . S
C1502 C1504 1.389 . S
C1503 H1482 0.950 . S
C1503 C1502 1.373 . S
C1503 C1519 1.377 . S
C1504 C1502 1.389 . S
C1504 C1505 1.524 . S
C1504 C1518 1.377 . S
C1505 C1504 1.524 . S
C1505 C1506 1.397 . S
C1505 C1510 1.363 . S
C1506 H1483 0.950 . S
C1506 C1505 1.397 . S
C1506 C1507 1.334 . S
C1507 H1484 0.950 . S
C1507 C1506 1.334 . S
C1507 C1508 1.287 . S
C1508 C1507 1.287 . S
C1508 C1509 1.524 . S
C1508 H1527 0.913 . S
C1509 H1485 0.950 . S
C1509 C1508 1.524 . S
C1509 C1510 1.415 . S
C1510 H1486 0.950 . S
C1510 C1505 1.363 . S
C1510 C1509 1.415 . S
C1511 H1487 0.951 . S
C1511 C1512 1.366 . S
C1511 C1513 1.388 . S
C1512 C1511 1.366 . S
C1512 C1516 1.385 . S
C1513 H1488 0.951 . S
C1513 C1511 1.388 . S
C1513 C1514 1.366 . S
C1514 C1513 1.366 . S
C1514 C1515 1.414 . S
C1514 C1517 1.499 . S
C1515 H1489 0.950 . S
C1515 C1514 1.414 . S
C1515 C1516 1.374 . S
C1516 H1490 0.950 . S
C1516 C1512 1.385 . S
C1516 C1515 1.374 . S
C1517 C1514 1.499 . S
C1517 C1518 1.373 . S
C1517 C1519 1.389 . S
C1518 H1491 0.950 . S
C1518 C1504 1.377 . S
C1518 C1517 1.373 . S
C1519 C1503 1.377 . S
C1519 C1517 1.389 . S
C1519 C1520 1.524 . S
C1520 C1519 1.524 . S
C1520 C1521 1.397 . S
C1520 C1525 1.363 . S
C1521 H1492 0.950 . S
C1521 C1520 1.397 . S
C1521 C1522 1.334 . S
C1522 H1493 0.950 . S
C1522 C1521 1.334 . S
C1522 C1523 1.287 . S
C1523 C1522 1.287 . S
C1523 C1524 1.524 . S
C1523 H1526 0.999 . S
C1524 H1494 0.950 . S
C1524 C1523 1.524 . S
C1524 C1525 1.415 . S
C1525 H1495 0.950 . S
C1525 C1520 1.363 . S
C1525 C1524 1.415 . S
H1526 C1523 0.999 . S
H1527 C1508 0.913 . S
H1528 C1546 0.951 1_556 S
H1529 C1548 0.951 1_556 S
H1530 C1550 0.950 . S
H1531 C1551 0.950 . S
H1532 C1553 0.950 . S
H1533 C1556 0.950 . S
H1534 C1557 0.950 . S
H1535 C1559 0.950 . S
H1536 C1560 0.950 1_556 S
H1537 C1561 0.951 . S
H1538 C1563 0.951 . S
H1539 C1565 0.950 1_556 S
H1540 C1566 0.950 1_556 S
H1541 C1568 0.950 . S
H1542 C1571 0.950 . S
H1543 C1572 0.950 . S
H1544 C1574 0.950 . S
H1545 C1575 0.950 . S
C1546 H1528 0.951 1_554 S
C1546 C1547 1.366 . S
C1546 C1548 1.388 . S
C1547 C1546 1.366 . S
C1547 C1551 1.385 . S
C1548 H1529 0.951 1_554 S
C1548 C1546 1.388 . S
C1548 C1549 1.366 . S
C1549 C1548 1.366 . S
C1549 C1550 1.414 . S
C1549 C1552 1.499 . S
C1550 H1530 0.950 . S
C1550 C1549 1.414 . S
C1550 C1551 1.374 . S
C1551 H1531 0.950 . S
C1551 C1547 1.385 . S
C1551 C1550 1.374 . S
C1552 C1549 1.499 . S
C1552 C1553 1.373 . S
C1552 C1554 1.389 . S
C1553 H1532 0.950 . S
C1553 C1552 1.373 . S
C1553 C1569 1.377 . S
C1554 C1552 1.389 . S
C1554 C1555 1.524 . S
C1554 C1568 1.377 . S
C1555 C1554 1.524 . S
C1555 C1556 1.397 . S
C1555 C1560 1.363 . S
C1556 H1533 0.950 . S
C1556 C1555 1.397 . S
C1556 C1557 1.334 . S
C1557 H1534 0.950 . S
C1557 C1556 1.334 . S
C1557 C1558 1.287 . S
C1558 C1557 1.287 . S
C1558 C1559 1.524 . S
C1558 H1577 0.913 . S
C1559 H1535 0.950 . S
C1559 C1558 1.524 . S
C1559 C1560 1.415 . S
C1560 H1536 0.950 1_554 S
C1560 C1555 1.363 . S
C1560 C1559 1.415 . S
C1561 H1537 0.951 . S
C1561 C1562 1.366 . S
C1561 C1563 1.388 . S
C1562 C1561 1.366 . S
C1562 C1566 1.385 . S
C1563 H1538 0.951 . S
C1563 C1561 1.388 . S
C1563 C1564 1.366 . S
C1564 C1563 1.366 . S
C1564 C1565 1.414 . S
C1564 C1567 1.499 . S
C1565 H1539 0.950 1_554 S
C1565 C1564 1.414 . S
C1565 C1566 1.374 . S
C1566 H1540 0.950 1_554 S
C1566 C1562 1.385 . S
C1566 C1565 1.374 . S
C1567 C1564 1.499 . S
C1567 C1568 1.373 . S
C1567 C1569 1.389 . S
C1568 H1541 0.950 . S
C1568 C1554 1.377 . S
C1568 C1567 1.373 . S
C1569 C1553 1.377 . S
C1569 C1567 1.389 . S
C1569 C1570 1.524 . S
C1570 C1569 1.524 . S
C1570 C1571 1.397 1_554 S
C1570 C1575 1.363 . S
C1571 H1542 0.950 . S
C1571 C1570 1.397 1_556 S
C1571 C1572 1.334 . S
C1572 H1543 0.950 . S
C1572 C1571 1.334 . S
C1572 C1573 1.287 1_556 S
C1573 C1572 1.287 1_554 S
C1573 C1574 1.524 . S
C1573 H1576 0.999 . S
C1574 H1544 0.950 . S
C1574 C1573 1.524 . S
C1574 C1575 1.415 . S
C1575 H1545 0.950 . S
C1575 C1570 1.363 . S
C1575 C1574 1.415 . S
H1576 C1573 0.999 . S
H1577 C1558 0.913 . S
H1578 C1596 0.951 . S
H1579 C1598 0.951 . S
H1580 C1600 0.950 . S
H1581 C1601 0.950 . S
H1582 C1603 0.950 . S
H1583 C1606 0.950 . S
H1584 C1607 0.950 . S
H1585 C1609 0.950 . S
H1586 C1610 0.950 . S
H1587 C1611 0.941 1_556 S
H1588 C1613 0.951 . S
H1589 C1615 0.950 . S
H1590 C1616 0.950 . S
H1591 C1618 0.950 . S
H1592 C1621 0.950 . S
H1593 C1622 0.950 . S
H1594 C1624 0.950 . S
H1595 C1625 0.950 . S
C1596 H1578 0.951 . S
C1596 C1597 1.366 . S
C1596 C1598 1.388 . S
C1597 C1596 1.366 . S
C1597 C1601 1.385 . S
C1598 H1579 0.951 . S
C1598 C1596 1.388 . S
C1598 C1599 1.366 . S
C1599 C1598 1.366 . S
C1599 C1600 1.414 . S
C1599 C1602 1.499 . S
C1600 H1580 0.950 . S
C1600 C1599 1.414 . S
C1600 C1601 1.374 . S
C1601 H1581 0.950 . S
C1601 C1597 1.385 . S
C1601 C1600 1.374 . S
C1602 C1599 1.499 . S
C1602 C1603 1.373 . S
C1602 C1604 1.389 . S
C1603 H1582 0.950 . S
C1603 C1602 1.373 . S
C1603 C1619 1.377 . S
C1604 C1602 1.389 . S
C1604 C1605 1.524 . S
C1604 C1618 1.377 . S
C1605 C1604 1.524 . S
C1605 C1606 1.397 1_554 S
C1605 C1610 1.363 . S
C1606 H1583 0.950 . S
C1606 C1605 1.397 1_556 S
C1606 C1607 1.334 . S
C1607 H1584 0.950 . S
C1607 C1606 1.334 . S
C1607 C1608 1.287 . S
C1608 C1607 1.287 . S
C1608 C1609 1.524 1_556 S
C1608 H1627 0.913 . S
C1609 H1585 0.950 . S
C1609 C1608 1.524 1_554 S
C1609 C1610 1.415 . S
C1610 H1586 0.950 . S
C1610 C1605 1.363 . S
C1610 C1609 1.415 . S
C1611 H1587 0.941 1_554 S
C1611 C1612 1.366 . S
C1611 C1613 1.388 . S
C1612 C1611 1.366 . S
C1612 C1616 1.385 . S
C1613 H1588 0.951 . S
C1613 C1611 1.388 . S
C1613 C1614 1.366 . S
C1614 C1613 1.366 . S
C1614 C1615 1.414 . S
C1614 C1617 1.499 . S
C1615 H1589 0.950 . S
C1615 C1614 1.414 . S
C1615 C1616 1.374 . S
C1616 H1590 0.950 . S
C1616 C1612 1.385 . S
C1616 C1615 1.374 . S
C1617 C1614 1.499 . S
C1617 C1618 1.373 . S
C1617 C1619 1.389 . S
C1618 H1591 0.950 . S
C1618 C1604 1.377 . S
C1618 C1617 1.373 . S
C1619 C1603 1.377 . S
C1619 C1617 1.389 . S
C1619 C1620 1.524 . S
C1620 C1619 1.524 . S
C1620 C1621 1.397 . S
C1620 C1625 1.363 . S
C1621 H1592 0.950 . S
C1621 C1620 1.397 . S
C1621 C1622 1.334 . S
C1622 H1593 0.950 . S
C1622 C1621 1.334 . S
C1622 C1623 1.287 . S
C1623 C1622 1.287 . S
C1623 C1624 1.524 . S
C1623 H1626 0.999 . S
C1624 H1594 0.950 . S
C1624 C1623 1.524 . S
C1624 C1625 1.415 . S
C1625 H1595 0.950 . S
C1625 C1620 1.363 . S
C1625 C1624 1.415 . S
H1626 C1623 0.999 . S
H1627 C1608 0.913 . S
H1628 C1646 0.951 . S
H1629 C1648 0.951 . S
H1630 C1650 0.950 1_556 S
H1631 C1651 0.950 1_556 S
H1632 C1653 0.950 . S
H1633 C1656 0.950 1_556 S
H1634 C1657 0.950 1_556 S
H1635 C1659 0.950 . S
H1636 C1660 0.950 . S
H1637 C1661 0.951 1_556 S
H1638 C1663 0.951 1_556 S
H1639 C1665 0.950 . S
H1640 C1666 0.950 . S
H1641 C1668 0.950 . S
H1642 C1671 0.950 . S
H1643 C1672 0.950 . S
H1644 C1674 0.950 1_556 S
H1645 C1675 0.950 1_556 S
C1646 H1628 0.951 . S
C1646 C1647 1.366 . S
C1646 C1648 1.388 . S
C1647 C1646 1.366 . S
C1647 C1651 1.385 . S
C1648 H1629 0.951 . S
C1648 C1646 1.388 . S
C1648 C1649 1.366 . S
C1649 C1648 1.366 . S
C1649 C1650 1.414 . S
C1649 C1652 1.499 . S
C1650 H1630 0.950 1_554 S
C1650 C1649 1.414 . S
C1650 C1651 1.374 . S
C1651 H1631 0.950 1_554 S
C1651 C1647 1.385 . S
C1651 C1650 1.374 . S
C1652 C1649 1.499 . S
C1652 C1653 1.373 . S
C1652 C1654 1.389 . S
C1653 H1632 0.950 . S
C1653 C1652 1.373 . S
C1653 C1669 1.377 . S
C1654 C1652 1.389 . S
C1654 C1655 1.524 . S
C1654 C1668 1.377 . S
C1655 C1654 1.524 . S
C1655 C1656 1.397 . S
C1655 C1660 1.363 . S
C1656 H1633 0.950 1_554 S
C1656 C1655 1.397 . S
C1656 C1657 1.334 . S
C1657 H1634 0.950 1_554 S
C1657 C1656 1.334 . S
C1657 C1658 1.287 . S
C1658 C1657 1.287 . S
C1658 C1659 1.524 . S
C1658 H1677 0.913 . S
C1659 H1635 0.950 . S
C1659 C1658 1.524 . S
C1659 C1660 1.415 . S
C1660 H1636 0.950 . S
C1660 C1655 1.363 . S
C1660 C1659 1.415 . S
C1661 H1637 0.951 1_554 S
C1661 C1662 1.366 . S
C1661 C1663 1.388 . S
C1662 C1661 1.366 . S
C1662 C1666 1.385 . S
C1663 H1638 0.951 1_554 S
C1663 C1661 1.388 . S
C1663 C1664 1.366 . S
C1664 C1663 1.366 . S
C1664 C1665 1.414 . S
C1664 C1667 1.499 . S
C1665 H1639 0.950 . S
C1665 C1664 1.414 . S
C1665 C1666 1.374 . S
C1666 H1640 0.950 . S
C1666 C1662 1.385 . S
C1666 C1665 1.374 . S
C1667 C1664 1.499 . S
C1667 C1668 1.373 . S
C1667 C1669 1.389 . S
C1668 H1641 0.950 . S
C1668 C1654 1.377 . S
C1668 C1667 1.373 . S
C1669 C1653 1.377 . S
C1669 C1667 1.389 . S
C1669 C1670 1.524 . S
C1670 C1669 1.524 . S
C1670 C1671 1.397 . S
C1670 C1675 1.363 . S
C1671 H1642 0.950 . S
C1671 C1670 1.397 . S
C1671 C1672 1.334 . S
C1672 H1643 0.950 . S
C1672 C1671 1.334 . S
C1672 C1673 1.287 . S
C1673 C1672 1.287 . S
C1673 C1674 1.524 . S
C1673 H1676 0.999 . S
C1674 H1644 0.950 1_554 S
C1674 C1673 1.524 . S
C1674 C1675 1.415 . S
C1675 H1645 0.950 1_554 S
C1675 C1670 1.363 . S
C1675 C1674 1.415 . S
H1676 C1673 0.999 . S
H1677 C1658 0.913 . S
H1678 C1696 0.951 . S
H1679 C1698 0.951 . S
H1680 C1700 0.950 . S
H1681 C1701 0.950 . S
H1682 C1703 0.950 . S
H1683 C1706 0.950 . S
H1684 C1707 0.950 . S
H1685 C1709 0.950 . S
H1686 C1710 0.950 . S
H1687 C1711 0.951 . S
H1688 C1713 0.951 . S
H1689 C1715 0.950 . S
H1690 C1716 0.950 . S
H1691 C1718 0.950 1_556 S
H1692 C1721 0.950 . S
H1693 C1722 0.950 . S
H1694 C1724 0.950 . S
H1695 C1725 0.950 . S
C1696 H1678 0.951 . S
C1696 C1697 1.366 . S
C1696 C1698 1.388 . S
C1697 C1696 1.366 . S
C1697 C1701 1.385 . S
C1698 H1679 0.951 . S
C1698 C1696 1.388 . S
C1698 C1699 1.366 . S
C1699 C1698 1.366 . S
C1699 C1700 1.414 . S
C1699 C1702 1.499 . S
C1700 H1680 0.950 . S
C1700 C1699 1.414 . S
C1700 C1701 1.374 . S
C1701 H1681 0.950 . S
C1701 C1697 1.385 . S
C1701 C1700 1.374 . S
C1702 C1699 1.499 . S
C1702 C1703 1.373 . S
C1702 C1704 1.389 . S
C1703 H1682 0.950 . S
C1703 C1702 1.373 . S
C1703 C1719 1.377 . S
C1704 C1702 1.389 . S
C1704 C1705 1.524 1_554 S
C1704 C1718 1.377 . S
C1705 C1704 1.524 1_556 S
C1705 C1706 1.397 . S
C1705 C1710 1.363 . S
C1706 H1683 0.950 . S
C1706 C1705 1.397 . S
C1706 C1707 1.334 . S
C1707 H1684 0.950 . S
C1707 C1706 1.334 . S
C1707 C1708 1.287 . S
C1708 C1707 1.287 . S
C1708 C1709 1.524 . S
C1708 H1727 0.913 . S
C1709 H1685 0.950 . S
C1709 C1708 1.524 . S
C1709 C1710 1.415 . S
C1710 H1686 0.950 . S
C1710 C1705 1.363 . S
C1710 C1709 1.415 . S
C1711 H1687 0.951 . S
C1711 C1712 1.366 . S
C1711 C1713 1.388 . S
C1712 C1711 1.366 . S
C1712 C1716 1.385 . S
C1713 H1688 0.951 . S
C1713 C1711 1.388 . S
C1713 C1714 1.366 . S
C1714 C1713 1.366 . S
C1714 C1715 1.414 . S
C1714 C1717 1.499 . S
C1715 H1689 0.950 . S
C1715 C1714 1.414 . S
C1715 C1716 1.374 . S
C1716 H1690 0.950 . S
C1716 C1712 1.385 . S
C1716 C1715 1.374 . S
C1717 C1714 1.499 . S
C1717 C1718 1.373 . S
C1717 C1719 1.389 . S
C1718 H1691 0.950 1_554 S
C1718 C1704 1.377 . S
C1718 C1717 1.373 . S
C1719 C1703 1.377 . S
C1719 C1717 1.389 . S
C1719 C1720 1.524 . S
C1720 C1719 1.524 . S
C1720 C1721 1.397 . S
C1720 C1725 1.363 . S
C1721 H1692 0.950 . S
C1721 C1720 1.397 . S
C1721 C1722 1.334 . S
C1722 H1693 0.950 . S
C1722 C1721 1.334 . S
C1722 C1723 1.287 . S
C1723 C1722 1.287 . S
C1723 C1724 1.524 . S
C1723 H1726 0.999 . S
C1724 H1694 0.950 . S
C1724 C1723 1.524 . S
C1724 C1725 1.415 . S
C1725 H1695 0.950 . S
C1725 C1720 1.363 . S
C1725 C1724 1.415 . S
H1726 C1723 0.999 . S
H1727 C1708 0.913 . S
H1728 C1746 0.956 1_455 S
H1729 C1748 0.951 . S
H1730 C1750 0.950 . S
H1731 C1751 0.950 . S
H1732 C1753 0.950 . S
H1733 C1756 0.950 . S
H1734 C1757 0.950 . S
H1735 C1759 0.950 . S
H1736 C1760 0.950 . S
H1737 C1761 0.955 1_655 S
H1738 C1763 0.951 . S
H1739 C1765 0.950 . S
H1740 C1766 0.950 . S
H1741 C1768 0.950 . S
H1742 C1771 0.950 . S
H1743 C1772 0.950 . S
H1744 C1774 0.950 . S
H1745 C1775 0.950 . S
C1746 H1728 0.956 1_655 S
C1746 C1747 1.360 . S
C1746 C1748 1.389 1_655 S
C1747 C1746 1.360 . S
C1747 C1751 1.385 . S
C1748 H1729 0.951 . S
C1748 C1746 1.389 1_455 S
C1748 C1749 1.366 1_455 S
C1749 C1748 1.366 1_655 S
C1749 C1750 1.414 . S
C1749 C1752 1.499 . S
C1750 H1730 0.950 . S
C1750 C1749 1.414 . S
C1750 C1751 1.374 . S
C1751 H1731 0.950 . S
C1751 C1747 1.385 . S
C1751 C1750 1.374 . S
C1752 C1749 1.499 . S
C1752 C1753 1.373 . S
C1752 C1754 1.389 1_655 S
C1753 H1732 0.950 . S
C1753 C1752 1.373 . S
C1753 C1769 1.377 . S
C1754 C1752 1.389 1_455 S
C1754 C1755 1.524 . S
C1754 C1768 1.377 . S
C1755 C1754 1.524 . S
C1755 C1756 1.397 . S
C1755 C1760 1.363 . S
C1756 H1733 0.950 . S
C1756 C1755 1.397 . S
C1756 C1757 1.334 . S
C1757 H1734 0.950 . S
C1757 C1756 1.334 . S
C1757 C1758 1.287 . S
C1758 C1757 1.287 . S
C1758 C1759 1.524 . S
C1758 H1777 0.913 . S
C1759 H1735 0.950 . S
C1759 C1758 1.524 . S
C1759 C1760 1.415 . S
C1760 H1736 0.950 . S
C1760 C1755 1.363 . S
C1760 C1759 1.415 . S
C1761 H1737 0.955 1_455 S
C1761 C1762 1.360 . S
C1761 C1763 1.389 1_455 S
C1762 C1761 1.360 . S
C1762 C1766 1.385 . S
C1763 H1738 0.951 . S
C1763 C1761 1.389 1_655 S
C1763 C1764 1.366 1_655 S
C1764 C1763 1.366 1_455 S
C1764 C1765 1.414 . S
C1764 C1767 1.499 . S
C1765 H1739 0.950 . S
C1765 C1764 1.414 . S
C1765 C1766 1.374 . S
C1766 H1740 0.950 . S
C1766 C1762 1.385 . S
C1766 C1765 1.374 . S
C1767 C1764 1.499 . S
C1767 C1768 1.373 . S
C1767 C1769 1.389 1_455 S
C1768 H1741 0.950 . S
C1768 C1754 1.377 . S
C1768 C1767 1.373 . S
C1769 C1753 1.377 . S
C1769 C1767 1.389 1_655 S
C1769 C1770 1.524 . S
C1770 C1769 1.524 . S
C1770 C1771 1.397 . S
C1770 C1775 1.363 . S
C1771 H1742 0.950 . S
C1771 C1770 1.397 . S
C1771 C1772 1.334 . S
C1772 H1743 0.950 . S
C1772 C1771 1.334 . S
C1772 C1773 1.287 . S
C1773 C1772 1.287 . S
C1773 C1774 1.524 . S
C1773 H1776 0.999 . S
C1774 H1744 0.950 . S
C1774 C1773 1.524 . S
C1774 C1775 1.415 . S
C1775 H1745 0.950 . S
C1775 C1770 1.363 . S
C1775 C1774 1.415 . S
H1776 C1773 0.999 . S
H1777 C1758 0.913 . S
H1778 C1796 0.951 . S
H1779 C1798 0.951 . S
H1780 C1800 0.950 . S
H1781 C1801 0.950 . S
H1782 C1803 0.950 . S
H1783 C1806 0.950 . S
H1784 C1807 0.950 . S
H1785 C1809 0.950 . S
H1786 C1810 0.950 . S
H1787 C1811 0.951 . S
H1788 C1813 0.951 . S
H1789 C1815 0.950 . S
H1790 C1816 0.950 . S
H1791 C1818 0.950 . S
H1792 C1821 0.950 . S
H1793 C1822 0.950 . S
H1794 C1824 0.950 . S
H1795 C1825 0.950 . S
C1796 H1778 0.951 . S
C1796 C1797 1.366 . S
C1796 C1798 1.388 . S
C1797 C1796 1.366 . S
C1797 C1801 1.385 . S
C1798 H1779 0.951 . S
C1798 C1796 1.388 . S
C1798 C1799 1.366 . S
C1799 C1798 1.366 . S
C1799 C1800 1.414 . S
C1799 C1802 1.499 . S
C1800 H1780 0.950 . S
C1800 C1799 1.414 . S
C1800 C1801 1.374 . S
C1801 H1781 0.950 . S
C1801 C1797 1.385 . S
C1801 C1800 1.374 . S
C1802 C1799 1.499 . S
C1802 C1803 1.373 1_565 S
C1802 C1804 1.389 . S
C1803 H1782 0.950 . S
C1803 C1802 1.373 1_545 S
C1803 C1819 1.377 . S
C1804 C1802 1.389 . S
C1804 C1805 1.524 . S
C1804 C1818 1.377 . S
C1805 C1804 1.524 . S
C1805 C1806 1.397 . S
C1805 C1810 1.363 . S
C1806 H1783 0.950 . S
C1806 C1805 1.397 . S
C1806 C1807 1.334 . S
C1807 H1784 0.950 . S
C1807 C1806 1.334 . S
C1807 C1808 1.287 . S
C1808 C1807 1.287 . S
C1808 C1809 1.524 . S
C1808 H1827 0.913 . S
C1809 H1785 0.950 . S
C1809 C1808 1.524 . S
C1809 C1810 1.415 . S
C1810 H1786 0.950 . S
C1810 C1805 1.363 . S
C1810 C1809 1.415 . S
C1811 H1787 0.951 . S
C1811 C1812 1.366 . S
C1811 C1813 1.388 . S
C1812 C1811 1.366 . S
C1812 C1816 1.385 . S
C1813 H1788 0.951 . S
C1813 C1811 1.388 . S
C1813 C1814 1.366 . S
C1814 C1813 1.366 . S
C1814 C1815 1.414 . S
C1814 C1817 1.499 . S
C1815 H1789 0.950 . S
C1815 C1814 1.414 . S
C1815 C1816 1.374 . S
C1816 H1790 0.950 . S
C1816 C1812 1.385 . S
C1816 C1815 1.374 . S
C1817 C1814 1.499 . S
C1817 C1818 1.373 1_545 S
C1817 C1819 1.389 . S
C1818 H1791 0.950 . S
C1818 C1804 1.377 . S
C1818 C1817 1.373 1_565 S
C1819 C1803 1.377 . S
C1819 C1817 1.389 . S
C1819 C1820 1.524 . S
C1820 C1819 1.524 . S
C1820 C1821 1.397 . S
C1820 C1825 1.363 . S
C1821 H1792 0.950 . S
C1821 C1820 1.397 . S
C1821 C1822 1.334 . S
C1822 H1793 0.950 . S
C1822 C1821 1.334 . S
C1822 C1823 1.287 . S
C1823 C1822 1.287 . S
C1823 C1824 1.524 . S
C1823 H1826 0.999 . S
C1824 H1794 0.950 . S
C1824 C1823 1.524 . S
C1824 C1825 1.415 . S
C1825 H1795 0.950 . S
C1825 C1820 1.363 . S
C1825 C1824 1.415 . S
H1826 C1823 0.999 . S
H1827 C1808 0.913 . S
H1828 C1846 0.951 1_455 S
H1829 C1848 0.951 . S
H1830 C1850 0.950 . S
H1831 C1851 0.950 . S
H1832 C1853 0.950 . S
H1833 C1856 0.950 . S
H1834 C1857 0.950 . S
H1835 C1859 0.950 . S
H1836 C1860 0.950 . S
H1837 C1861 0.951 1_655 S
H1838 C1863 0.951 . S
H1839 C1865 0.950 . S
H1840 C1866 0.950 . S
H1841 C1868 0.950 . S
H1842 C1871 0.950 . S
H1843 C1872 0.950 . S
H1844 C1874 0.950 . S
H1845 C1875 0.950 . S
C1846 H1828 0.951 1_655 S
C1846 C1847 1.366 . S
C1846 C1848 1.388 1_655 S
C1847 C1846 1.366 . S
C1847 C1851 1.385 . S
C1848 H1829 0.951 . S
C1848 C1846 1.388 1_455 S
C1848 C1849 1.366 1_455 S
C1849 C1848 1.366 1_655 S
C1849 C1850 1.414 . S
C1849 C1852 1.499 . S
C1850 H1830 0.950 . S
C1850 C1849 1.414 . S
C1850 C1851 1.374 . S
C1851 H1831 0.950 . S
C1851 C1847 1.385 . S
C1851 C1850 1.374 . S
C1852 C1849 1.499 . S
C1852 C1853 1.373 . S
C1852 C1854 1.389 . S
C1853 H1832 0.950 . S
C1853 C1852 1.373 . S
C1853 C1869 1.377 1_655 S
C1854 C1852 1.389 . S
C1854 C1855 1.524 . S
C1854 C1868 1.377 1_655 S
C1855 C1854 1.524 . S
C1855 C1856 1.397 . S
C1855 C1860 1.363 1_655 S
C1856 H1833 0.950 . S
C1856 C1855 1.397 . S
C1856 C1857 1.334 . S
C1857 H1834 0.950 . S
C1857 C1856 1.334 . S
C1857 C1858 1.287 . S
C1858 C1857 1.287 . S
C1858 C1859 1.524 1_655 S
C1858 H1877 0.913 . S
C1859 H1835 0.950 . S
C1859 C1858 1.524 1_455 S
C1859 C1860 1.415 . S
C1860 H1836 0.950 . S
C1860 C1855 1.363 1_455 S
C1860 C1859 1.415 . S
C1861 H1837 0.951 1_455 S
C1861 C1862 1.366 . S
C1861 C1863 1.388 1_455 S
C1862 C1861 1.366 . S
C1862 C1866 1.385 . S
C1863 H1838 0.951 . S
C1863 C1861 1.388 1_655 S
C1863 C1864 1.366 1_655 S
C1864 C1863 1.366 1_455 S
C1864 C1865 1.414 . S
C1864 C1867 1.499 . S
C1865 H1839 0.950 . S
C1865 C1864 1.414 . S
C1865 C1866 1.374 . S
C1866 H1840 0.950 . S
C1866 C1862 1.385 . S
C1866 C1865 1.374 . S
C1867 C1864 1.499 . S
C1867 C1868 1.373 . S
C1867 C1869 1.389 . S
C1868 H1841 0.950 . S
C1868 C1854 1.377 1_455 S
C1868 C1867 1.373 . S
C1869 C1853 1.377 1_455 S
C1869 C1867 1.389 . S
C1869 C1870 1.524 . S
C1870 C1869 1.524 . S
C1870 C1871 1.397 . S
C1870 C1875 1.363 1_455 S
C1871 H1842 0.950 . S
C1871 C1870 1.397 . S
C1871 C1872 1.334 . S
C1872 H1843 0.950 . S
C1872 C1871 1.334 . S
C1872 C1873 1.287 . S
C1873 C1872 1.287 . S
C1873 C1874 1.524 1_455 S
C1873 H1876 0.999 . S
C1874 H1844 0.950 . S
C1874 C1873 1.524 1_655 S
C1874 C1875 1.415 . S
C1875 H1845 0.950 . S
C1875 C1870 1.363 1_655 S
C1875 C1874 1.415 . S
H1876 C1873 0.999 . S
H1877 C1858 0.913 . S
H1878 C1896 0.951 . S
H1879 C1898 0.951 1_565 S
H1880 C1900 0.950 . S
H1881 C1901 0.950 . S
H1882 C1903 0.950 . S
H1883 C1906 0.950 . S
H1884 C1907 0.950 . S
H1885 C1909 0.950 . S
H1886 C1910 0.950 . S
H1887 C1911 0.951 . S
H1888 C1913 0.951 1_545 S
H1889 C1915 0.950 . S
H1890 C1916 0.950 . S
H1891 C1918 0.950 . S
H1892 C1921 0.950 . S
H1893 C1922 0.950 . S
H1894 C1924 0.950 . S
H1895 C1925 0.950 . S
C1896 H1878 0.951 . S
C1896 C1897 1.366 . S
C1896 C1898 1.388 . S
C1897 C1896 1.366 . S
C1897 C1901 1.385 . S
C1898 H1879 0.951 1_545 S
C1898 C1896 1.388 . S
C1898 C1899 1.366 . S
C1899 C1898 1.366 . S
C1899 C1900 1.414 . S
C1899 C1902 1.499 . S
C1900 H1880 0.950 . S
C1900 C1899 1.414 . S
C1900 C1901 1.374 . S
C1901 H1881 0.950 . S
C1901 C1897 1.385 . S
C1901 C1900 1.374 . S
C1902 C1899 1.499 . S
C1902 C1903 1.373 . S
C1902 C1904 1.389 1_545 S
C1903 H1882 0.950 . S
C1903 C1902 1.373 . S
C1903 C1919 1.377 . S
C1904 C1902 1.389 1_565 S
C1904 C1905 1.524 . S
C1904 C1918 1.377 . S
C1905 C1904 1.524 . S
C1905 C1906 1.397 . S
C1905 C1910 1.363 . S
C1906 H1883 0.950 . S
C1906 C1905 1.397 . S
C1906 C1907 1.334 . S
C1907 H1884 0.950 . S
C1907 C1906 1.334 . S
C1907 C1908 1.287 . S
C1908 C1907 1.287 . S
C1908 C1909 1.524 . S
C1908 H1927 0.913 . S
C1909 H1885 0.950 . S
C1909 C1908 1.524 . S
C1909 C1910 1.415 . S
C1910 H1886 0.950 . S
C1910 C1905 1.363 . S
C1910 C1909 1.415 . S
C1911 H1887 0.951 . S
C1911 C1912 1.366 . S
C1911 C1913 1.388 . S
C1912 C1911 1.366 . S
C1912 C1916 1.385 . S
C1913 H1888 0.951 1_565 S
C1913 C1911 1.388 . S
C1913 C1914 1.366 . S
C1914 C1913 1.366 . S
C1914 C1915 1.414 . S
C1914 C1917 1.499 . S
C1915 H1889 0.950 . S
C1915 C1914 1.414 . S
C1915 C1916 1.374 . S
C1916 H1890 0.950 . S
C1916 C1912 1.385 . S
C1916 C1915 1.374 . S
C1917 C1914 1.499 . S
C1917 C1918 1.373 . S
C1917 C1919 1.389 1_565 S
C1918 H1891 0.950 . S
C1918 C1904 1.377 . S
C1918 C1917 1.373 . S
C1919 C1903 1.377 . S
C1919 C1917 1.389 1_545 S
C1919 C1920 1.524 . S
C1920 C1919 1.524 . S
C1920 C1921 1.397 . S
C1920 C1925 1.363 . S
C1921 H1892 0.950 . S
C1921 C1920 1.397 . S
C1921 C1922 1.334 . S
C1922 H1893 0.950 . S
C1922 C1921 1.334 . S
C1922 C1923 1.287 . S
C1923 C1922 1.287 . S
C1923 C1924 1.524 . S
C1923 H1926 0.999 . S
C1924 H1894 0.950 . S
C1924 C1923 1.524 . S
C1924 C1925 1.415 . S
C1925 H1895 0.950 . S
C1925 C1920 1.363 . S
C1925 C1924 1.415 . S
H1926 C1923 0.999 . S
H1927 C1908 0.913 . S
H1928 C1946 0.951 . S
H1929 C1948 0.951 . S
H1930 C1950 0.950 . S
H1931 C1951 0.950 . S
H1932 C1953 0.950 . S
H1933 C1956 0.950 . S
H1934 C1957 0.950 . S
H1935 C1959 0.950 . S
H1936 C1960 0.950 . S
H1937 C1961 0.951 . S
H1938 C1963 0.951 . S
H1939 C1965 0.950 . S
H1940 C1966 0.950 . S
H1941 C1968 0.950 . S
H1942 C1971 0.950 . S
H1943 C1972 0.950 . S
H1944 C1974 0.950 . S
H1945 C1975 0.950 . S
C1946 H1928 0.951 . S
C1946 C1947 1.366 1_455 S
C1946 C1948 1.388 . S
C1947 C1946 1.366 1_655 S
C1947 C1951 1.385 . S
C1948 H1929 0.951 . S
C1948 C1946 1.388 . S
C1948 C1949 1.366 1_455 S
C1949 C1948 1.366 1_655 S
C1949 C1950 1.414 . S
C1949 C1952 1.499 . S
C1950 H1930 0.950 . S
C1950 C1949 1.414 . S
C1950 C1951 1.374 . S
C1951 H1931 0.950 . S
C1951 C1947 1.385 . S
C1951 C1950 1.374 . S
C1952 C1949 1.499 . S
C1952 C1953 1.373 . S
C1952 C1954 1.389 1_655 S
C1953 H1932 0.950 . S
C1953 C1952 1.373 . S
C1953 C1969 1.377 . S
C1954 C1952 1.389 1_455 S
C1954 C1955 1.524 . S
C1954 C1968 1.377 . S
C1955 C1954 1.524 . S
C1955 C1956 1.397 . S
C1955 C1960 1.363 . S
C1956 H1933 0.950 . S
C1956 C1955 1.397 . S
C1956 C1957 1.334 . S
C1957 H1934 0.950 . S
C1957 C1956 1.334 . S
C1957 C1958 1.287 . S
C1958 C1957 1.287 . S
C1958 C1959 1.524 . S
C1958 H1977 0.913 . S
C1959 H1935 0.950 . S
C1959 C1958 1.524 . S
C1959 C1960 1.415 . S
C1960 H1936 0.950 . S
C1960 C1955 1.363 . S
C1960 C1959 1.415 . S
C1961 H1937 0.951 . S
C1961 C1962 1.366 1_655 S
C1961 C1963 1.388 . S
C1962 C1961 1.366 1_455 S
C1962 C1966 1.385 . S
C1963 H1938 0.951 . S
C1963 C1961 1.388 . S
C1963 C1964 1.366 1_655 S
C1964 C1963 1.366 1_455 S
C1964 C1965 1.414 . S
C1964 C1967 1.499 . S
C1965 H1939 0.950 . S
C1965 C1964 1.414 . S
C1965 C1966 1.374 . S
C1966 H1940 0.950 . S
C1966 C1962 1.385 . S
C1966 C1965 1.374 . S
C1967 C1964 1.499 . S
C1967 C1968 1.373 . S
C1967 C1969 1.389 1_455 S
C1968 H1941 0.950 . S
C1968 C1954 1.377 . S
C1968 C1967 1.373 . S
C1969 C1953 1.377 . S
C1969 C1967 1.389 1_655 S
C1969 C1970 1.524 . S
C1970 C1969 1.524 . S
C1970 C1971 1.397 . S
C1970 C1975 1.363 . S
C1971 H1942 0.950 . S
C1971 C1970 1.397 . S
C1971 C1972 1.334 . S
C1972 H1943 0.950 . S
C1972 C1971 1.334 . S
C1972 C1973 1.287 . S
C1973 C1972 1.287 . S
C1973 C1974 1.524 . S
C1973 H1976 0.999 . S
C1974 H1944 0.950 . S
C1974 C1973 1.524 . S
C1974 C1975 1.415 . S
C1975 H1945 0.950 . S
C1975 C1970 1.363 . S
C1975 C1974 1.415 . S
H1976 C1973 0.999 . S
H1977 C1958 0.913 . S
H1978 C1996 0.951 . S
H1979 C1998 0.951 . S
H1980 C2000 0.950 . S
H1981 C2001 0.950 . S
H1982 C2003 0.950 . S
H1983 C2006 0.950 . S
H1984 C2007 0.950 . S
H1985 C2009 0.950 . S
H1986 C2010 0.950 . S
H1987 C2011 0.951 . S
H1988 C2013 0.951 . S
H1989 C2015 0.950 . S
H1990 C2016 0.950 . S
H1991 C2018 0.950 . S
H1992 C2021 0.950 . S
H1993 C2022 0.950 . S
H1994 C2024 0.950 . S
H1995 C2025 0.950 . S
C1996 H1978 0.951 . S
C1996 C1997 1.366 1_565 S
C1996 C1998 1.388 . S
C1997 C1996 1.366 1_545 S
C1997 C2001 1.385 . S
C1998 H1979 0.951 . S
C1998 C1996 1.388 . S
C1998 C1999 1.366 1_565 S
C1999 C1998 1.366 1_545 S
C1999 C2000 1.414 . S
C1999 C2002 1.499 . S
C2000 H1980 0.950 . S
C2000 C1999 1.414 . S
C2000 C2001 1.374 . S
C2001 H1981 0.950 . S
C2001 C1997 1.385 . S
C2001 C2000 1.374 . S
C2002 C1999 1.499 . S
C2002 C2003 1.373 . S
C2002 C2004 1.389 . S
C2003 H1982 0.950 . S
C2003 C2002 1.373 . S
C2003 C2019 1.377 1_545 S
C2004 C2002 1.389 . S
C2004 C2005 1.524 . S
C2004 C2018 1.377 1_545 S
C2005 C2004 1.524 . S
C2005 C2006 1.397 . S
C2005 C2010 1.363 1_545 S
C2006 H1983 0.950 . S
C2006 C2005 1.397 . S
C2006 C2007 1.334 . S
C2007 H1984 0.950 . S
C2007 C2006 1.334 . S
C2007 C2008 1.287 . S
C2008 C2007 1.287 . S
C2008 C2009 1.524 1_545 S
C2008 H2027 0.913 . S
C2009 H1985 0.950 . S
C2009 C2008 1.524 1_565 S
C2009 C2010 1.415 . S
C2010 H1986 0.950 . S
C2010 C2005 1.363 1_565 S
C2010 C2009 1.415 . S
C2011 H1987 0.951 . S
C2011 C2012 1.366 1_545 S
C2011 C2013 1.388 . S
C2012 C2011 1.366 1_565 S
C2012 C2016 1.385 . S
C2013 H1988 0.951 . S
C2013 C2011 1.388 . S
C2013 C2014 1.366 1_545 S
C2014 C2013 1.366 1_565 S
C2014 C2015 1.414 . S
C2014 C2017 1.499 . S
C2015 H1989 0.950 . S
C2015 C2014 1.414 . S
C2015 C2016 1.374 . S
C2016 H1990 0.950 . S
C2016 C2012 1.385 . S
C2016 C2015 1.374 . S
C2017 C2014 1.499 . S
C2017 C2018 1.373 . S
C2017 C2019 1.389 . S
C2018 H1991 0.950 . S
C2018 C2004 1.377 1_565 S
C2018 C2017 1.373 . S
C2019 C2003 1.377 1_565 S
C2019 C2017 1.389 . S
C2019 C2020 1.524 . S
C2020 C2019 1.524 . S
C2020 C2021 1.397 . S
C2020 C2025 1.363 1_565 S
C2021 H1992 0.950 . S
C2021 C2020 1.397 . S
C2021 C2022 1.334 . S
C2022 H1993 0.950 . S
C2022 C2021 1.334 . S
C2022 C2023 1.287 . S
C2023 C2022 1.287 . S
C2023 C2024 1.524 1_565 S
C2023 H2026 0.999 . S
C2024 H1994 0.950 . S
C2024 C2023 1.524 1_545 S
C2024 C2025 1.415 . S
C2025 H1995 0.950 . S
C2025 C2020 1.363 1_545 S
C2025 C2024 1.415 . S
H2026 C2023 0.999 . S
H2027 C2008 0.913 . S
H2028 C2046 0.951 . S
H2029 C2048 0.951 . S
H2030 C2050 0.950 . S
H2031 C2051 0.950 . S
H2032 C2053 0.950 . S
H2033 C2056 0.950 . S
H2034 C2057 0.950 . S
H2035 C2059 0.950 . S
H2036 C2060 0.950 . S
H2037 C2061 0.951 . S
H2038 C2063 0.951 . S
H2039 C2065 0.950 . S
H2040 C2066 0.950 . S
H2041 C2068 0.950 . S
H2042 C2071 0.950 . S
H2043 C2072 0.950 . S
H2044 C2074 0.950 . S
H2045 C2075 0.950 . S
C2046 H2028 0.951 . S
C2046 C2047 1.366 . S
C2046 C2048 1.388 . S
C2047 C2046 1.366 . S
C2047 C2051 1.385 1_455 S
C2048 H2029 0.951 . S
C2048 C2046 1.388 . S
C2048 C2049 1.366 . S
C2049 C2048 1.366 . S
C2049 C2050 1.414 1_455 S
C2049 C2052 1.499 . S
C2050 H2030 0.950 . S
C2050 C2049 1.414 1_655 S
C2050 C2051 1.374 . S
C2051 H2031 0.950 . S
C2051 C2047 1.385 1_655 S
C2051 C2050 1.374 . S
C2052 C2049 1.499 . S
C2052 C2053 1.373 1_455 S
C2052 C2054 1.389 . S
C2053 H2032 0.950 . S
C2053 C2052 1.373 1_655 S
C2053 C2069 1.377 . S
C2054 C2052 1.389 . S
C2054 C2055 1.524 . S
C2054 C2068 1.377 . S
C2055 C2054 1.524 . S
C2055 C2056 1.397 . S
C2055 C2060 1.363 . S
C2056 H2033 0.950 . S
C2056 C2055 1.397 . S
C2056 C2057 1.334 . S
C2057 H2034 0.950 . S
C2057 C2056 1.334 . S
C2057 C2058 1.287 . S
C2058 C2057 1.287 . S
C2058 C2059 1.524 . S
C2058 H2077 0.913 . S
C2059 H2035 0.950 . S
C2059 C2058 1.524 . S
C2059 C2060 1.415 . S
C2060 H2036 0.950 . S
C2060 C2055 1.363 . S
C2060 C2059 1.415 . S
C2061 H2037 0.951 . S
C2061 C2062 1.366 . S
C2061 C2063 1.388 . S
C2062 C2061 1.366 . S
C2062 C2066 1.385 1_655 S
C2063 H2038 0.951 . S
C2063 C2061 1.388 . S
C2063 C2064 1.366 . S
C2064 C2063 1.366 . S
C2064 C2065 1.414 1_655 S
C2064 C2067 1.499 . S
C2065 H2039 0.950 . S
C2065 C2064 1.414 1_455 S
C2065 C2066 1.374 . S
C2066 H2040 0.950 . S
C2066 C2062 1.385 1_455 S
C2066 C2065 1.374 . S
C2067 C2064 1.499 . S
C2067 C2068 1.373 1_655 S
C2067 C2069 1.389 . S
C2068 H2041 0.950 . S
C2068 C2054 1.377 . S
C2068 C2067 1.373 1_455 S
C2069 C2053 1.377 . S
C2069 C2067 1.389 . S
C2069 C2070 1.524 . S
C2070 C2069 1.524 . S
C2070 C2071 1.397 . S
C2070 C2075 1.363 . S
C2071 H2042 0.950 . S
C2071 C2070 1.397 . S
C2071 C2072 1.334 . S
C2072 H2043 0.950 . S
C2072 C2071 1.334 . S
C2072 C2073 1.287 . S
C2073 C2072 1.287 . S
C2073 C2074 1.524 . S
C2073 H2076 0.999 . S
C2074 H2044 0.950 . S
C2074 C2073 1.524 . S
C2074 C2075 1.415 . S
C2075 H2045 0.950 . S
C2075 C2070 1.363 . S
C2075 C2074 1.415 . S
H2076 C2073 0.999 . S
H2077 C2058 0.913 . S
H2078 C2096 0.951 . S
H2079 C2098 0.951 . S
H2080 C2100 0.962 . S
H2081 C2101 0.950 . S
H2082 C2103 0.950 . S
H2083 C2106 0.950 . S
H2084 C2107 0.950 . S
H2085 C2109 0.950 . S
H2086 C2110 0.950 . S
H2087 C2111 0.951 . S
H2088 C2113 0.951 . S
H2089 C2115 0.962 . S
H2090 C2116 0.950 . S
H2091 C2118 0.950 . S
H2092 C2121 0.950 . S
H2093 C2122 0.950 . S
H2094 C2124 0.950 . S
H2095 C2125 0.950 . S
C2096 H2078 0.951 . S
C2096 C2097 1.366 . S
C2096 C2098 1.388 . S
C2097 C2096 1.366 . S
C2097 C2101 1.385 . S
C2098 H2079 0.951 . S
C2098 C2096 1.388 . S
C2098 C2099 1.366 . S
C2099 C2098 1.366 . S
C2099 C2100 1.414 . S
C2099 C2102 1.499 . S
C2100 H2080 0.962 . S
C2100 C2099 1.414 . S
C2100 C2101 1.374 . S
C2101 H2081 0.950 . S
C2101 C2097 1.385 . S
C2101 C2100 1.374 . S
C2102 C2099 1.499 . S
C2102 C2103 1.373 . S
C2102 C2104 1.389 1_565 S
C2103 H2082 0.950 . S
C2103 C2102 1.373 . S
C2103 C2119 1.377 . S
C2104 C2102 1.389 1_545 S
C2104 C2105 1.524 . S
C2104 C2118 1.377 . S
C2105 C2104 1.524 . S
C2105 C2106 1.397 . S
C2105 C2110 1.363 . S
C2106 H2083 0.950 . S
C2106 C2105 1.397 . S
C2106 C2107 1.334 . S
C2107 H2084 0.950 . S
C2107 C2106 1.334 . S
C2107 C2108 1.287 . S
C2108 C2107 1.287 . S
C2108 C2109 1.524 . S
C2108 H2127 0.913 . S
C2109 H2085 0.950 . S
C2109 C2108 1.524 . S
C2109 C2110 1.415 . S
C2110 H2086 0.950 . S
C2110 C2105 1.363 . S
C2110 C2109 1.415 . S
C2111 H2087 0.951 . S
C2111 C2112 1.366 . S
C2111 C2113 1.388 . S
C2112 C2111 1.366 . S
C2112 C2116 1.385 . S
C2113 H2088 0.951 . S
C2113 C2111 1.388 . S
C2113 C2114 1.366 . S
C2114 C2113 1.366 . S
C2114 C2115 1.414 . S
C2114 C2117 1.499 . S
C2115 H2089 0.962 . S
C2115 C2114 1.414 . S
C2115 C2116 1.374 . S
C2116 H2090 0.950 . S
C2116 C2112 1.385 . S
C2116 C2115 1.374 . S
C2117 C2114 1.499 . S
C2117 C2118 1.373 . S
C2117 C2119 1.389 1_545 S
C2118 H2091 0.950 . S
C2118 C2104 1.377 . S
C2118 C2117 1.373 . S
C2119 C2103 1.377 . S
C2119 C2117 1.389 1_565 S
C2119 C2120 1.524 . S
C2120 C2119 1.524 . S
C2120 C2121 1.397 . S
C2120 C2125 1.363 . S
C2121 H2092 0.950 . S
C2121 C2120 1.397 . S
C2121 C2122 1.334 . S
C2122 H2093 0.950 . S
C2122 C2121 1.334 . S
C2122 C2123 1.287 . S
C2123 C2122 1.287 . S
C2123 C2124 1.524 . S
C2123 H2126 0.999 . S
C2124 H2094 0.950 . S
C2124 C2123 1.524 . S
C2124 C2125 1.415 . S
C2125 H2095 0.950 . S
C2125 C2120 1.363 . S
C2125 C2124 1.415 . S
H2126 C2123 0.999 . S
H2127 C2108 0.913 . S
H2128 C2146 0.951 . S
H2129 C2148 0.951 . S
H2130 C2150 0.950 . S
H2131 C2151 0.950 . S
H2132 C2153 0.950 . S
H2133 C2156 0.950 . S
H2134 C2157 0.950 . S
H2135 C2159 0.950 . S
H2136 C2160 0.950 . S
H2137 C2161 0.951 . S
H2138 C2163 0.951 . S
H2139 C2165 0.950 . S
H2140 C2166 0.950 . S
H2141 C2168 0.950 . S
H2142 C2171 0.950 . S
H2143 C2172 0.950 . S
H2144 C2174 0.950 . S
H2145 C2175 0.950 . S
C2146 H2128 0.951 . S
C2146 C2147 1.366 . S
C2146 C2148 1.388 . S
C2147 C2146 1.366 . S
C2147 C2151 1.385 . S
C2148 H2129 0.951 . S
C2148 C2146 1.388 . S
C2148 C2149 1.366 . S
C2149 C2148 1.366 . S
C2149 C2150 1.414 . S
C2149 C2152 1.499 . S
C2150 H2130 0.950 . S
C2150 C2149 1.414 . S
C2150 C2151 1.374 . S
C2151 H2131 0.950 . S
C2151 C2147 1.385 . S
C2151 C2150 1.374 . S
C2152 C2149 1.499 . S
C2152 C2153 1.373 . S
C2152 C2154 1.389 . S
C2153 H2132 0.950 . S
C2153 C2152 1.373 . S
C2153 C2169 1.377 . S
C2154 C2152 1.389 . S
C2154 C2155 1.524 . S
C2154 C2168 1.377 . S
C2155 C2154 1.524 . S
C2155 C2156 1.397 . S
C2155 C2160 1.363 . S
C2156 H2133 0.950 . S
C2156 C2155 1.397 . S
C2156 C2157 1.334 . S
C2157 H2134 0.950 . S
C2157 C2156 1.334 . S
C2157 C2158 1.287 . S
C2158 C2157 1.287 . S
C2158 C2159 1.524 . S
C2158 H2177 0.913 . S
C2159 H2135 0.950 . S
C2159 C2158 1.524 . S
C2159 C2160 1.415 . S
C2160 H2136 0.950 . S
C2160 C2155 1.363 . S
C2160 C2159 1.415 . S
C2161 H2137 0.951 . S
C2161 C2162 1.366 . S
C2161 C2163 1.388 . S
C2162 C2161 1.366 . S
C2162 C2166 1.385 . S
C2163 H2138 0.951 . S
C2163 C2161 1.388 . S
C2163 C2164 1.366 . S
C2164 C2163 1.366 . S
C2164 C2165 1.414 . S
C2164 C2167 1.499 . S
C2165 H2139 0.950 . S
C2165 C2164 1.414 . S
C2165 C2166 1.374 . S
C2166 H2140 0.950 . S
C2166 C2162 1.385 . S
C2166 C2165 1.374 . S
C2167 C2164 1.499 . S
C2167 C2168 1.373 . S
C2167 C2169 1.389 . S
C2168 H2141 0.950 . S
C2168 C2154 1.377 . S
C2168 C2167 1.373 . S
C2169 C2153 1.377 . S
C2169 C2167 1.389 . S
C2169 C2170 1.524 . S
C2170 C2169 1.524 . S
C2170 C2171 1.397 . S
C2170 C2175 1.363 . S
C2171 H2142 0.950 . S
C2171 C2170 1.397 . S
C2171 C2172 1.334 . S
C2172 H2143 0.950 . S
C2172 C2171 1.334 . S
C2172 C2173 1.287 . S
C2173 C2172 1.287 . S
C2173 C2174 1.524 . S
C2173 H2176 0.999 . S
C2174 H2144 0.950 . S
C2174 C2173 1.524 . S
C2174 C2175 1.415 . S
C2175 H2145 0.950 . S
C2175 C2170 1.363 . S
C2175 C2174 1.415 . S
H2176 C2173 0.999 . S
H2177 C2158 0.913 . S
H2178 C2196 0.951 . S
H2179 C2198 0.951 . S
H2180 C2200 0.950 . S
H2181 C2201 0.950 . S
H2182 C2203 0.950 . S
H2183 C2206 0.950 . S
H2184 C2207 0.950 . S
H2185 C2209 0.950 . S
H2186 C2210 0.950 . S
H2187 C2211 0.951 . S
H2188 C2213 0.951 . S
H2189 C2215 0.950 . S
H2190 C2216 0.950 . S
H2191 C2218 0.950 . S
H2192 C2221 0.950 . S
H2193 C2222 0.950 . S
H2194 C2224 0.950 . S
H2195 C2225 0.950 . S
C2196 H2178 0.951 . S
C2196 C2197 1.366 . S
C2196 C2198 1.388 . S
C2197 C2196 1.366 . S
C2197 C2201 1.385 . S
C2198 H2179 0.951 . S
C2198 C2196 1.388 . S
C2198 C2199 1.366 . S
C2199 C2198 1.366 . S
C2199 C2200 1.414 . S
C2199 C2202 1.499 . S
C2200 H2180 0.950 . S
C2200 C2199 1.414 . S
C2200 C2201 1.374 . S
C2201 H2181 0.950 . S
C2201 C2197 1.385 . S
C2201 C2200 1.374 . S
C2202 C2199 1.499 . S
C2202 C2203 1.373 . S
C2202 C2204 1.389 . S
C2203 H2182 0.950 . S
C2203 C2202 1.373 . S
C2203 C2219 1.377 . S
C2204 C2202 1.389 . S
C2204 C2205 1.524 . S
C2204 C2218 1.377 . S
C2205 C2204 1.524 . S
C2205 C2206 1.397 . S
C2205 C2210 1.363 . S
C2206 H2183 0.950 . S
C2206 C2205 1.397 . S
C2206 C2207 1.334 . S
C2207 H2184 0.950 . S
C2207 C2206 1.334 . S
C2207 C2208 1.287 . S
C2208 C2207 1.287 . S
C2208 C2209 1.524 . S
C2208 H2227 0.913 . S
C2209 H2185 0.950 . S
C2209 C2208 1.524 . S
C2209 C2210 1.415 . S
C2210 H2186 0.950 . S
C2210 C2205 1.363 . S
C2210 C2209 1.415 . S
C2211 H2187 0.951 . S
C2211 C2212 1.366 . S
C2211 C2213 1.388 . S
C2212 C2211 1.366 . S
C2212 C2216 1.385 . S
C2213 H2188 0.951 . S
C2213 C2211 1.388 . S
C2213 C2214 1.366 . S
C2214 C2213 1.366 . S
C2214 C2215 1.414 . S
C2214 C2217 1.499 . S
C2215 H2189 0.950 . S
C2215 C2214 1.414 . S
C2215 C2216 1.374 . S
C2216 H2190 0.950 . S
C2216 C2212 1.385 . S
C2216 C2215 1.374 . S
C2217 C2214 1.499 . S
C2217 C2218 1.373 . S
C2217 C2219 1.389 . S
C2218 H2191 0.950 . S
C2218 C2204 1.377 . S
C2218 C2217 1.373 . S
C2219 C2203 1.377 . S
C2219 C2217 1.389 . S
C2219 C2220 1.524 . S
C2220 C2219 1.524 . S
C2220 C2221 1.397 . S
C2220 C2225 1.363 . S
C2221 H2192 0.950 . S
C2221 C2220 1.397 . S
C2221 C2222 1.334 . S
C2222 H2193 0.950 . S
C2222 C2221 1.334 . S
C2222 C2223 1.287 . S
C2223 C2222 1.287 . S
C2223 C2224 1.524 . S
C2223 H2226 0.999 . S
C2224 H2194 0.950 . S
C2224 C2223 1.524 . S
C2224 C2225 1.415 . S
C2225 H2195 0.950 . S
C2225 C2220 1.363 . S
C2225 C2224 1.415 . S
H2226 C2223 0.999 . S
H2227 C2208 0.913 . S
H2228 C2246 0.951 . S
H2229 C2248 0.951 . S
H2230 C2250 0.950 . S
H2231 C2251 0.950 . S
H2232 C2253 0.950 . S
H2233 C2256 0.950 . S
H2234 C2257 0.950 . S
H2235 C2259 0.950 . S
H2236 C2260 0.950 . S
H2237 C2261 0.951 . S
H2238 C2263 0.951 . S
H2239 C2265 0.950 . S
H2240 C2266 0.950 . S
H2241 C2268 0.950 . S
H2242 C2271 0.950 . S
H2243 C2272 0.950 . S
H2244 C2274 0.950 . S
H2245 C2275 0.950 . S
C2246 H2228 0.951 . S
C2246 C2247 1.366 . S
C2246 C2248 1.388 . S
C2247 C2246 1.366 . S
C2247 C2251 1.385 . S
C2248 H2229 0.951 . S
C2248 C2246 1.388 . S
C2248 C2249 1.366 . S
C2249 C2248 1.366 . S
C2249 C2250 1.414 . S
C2249 C2252 1.499 . S
C2250 H2230 0.950 . S
C2250 C2249 1.414 . S
C2250 C2251 1.374 . S
C2251 H2231 0.950 . S
C2251 C2247 1.385 . S
C2251 C2250 1.374 . S
C2252 C2249 1.499 . S
C2252 C2253 1.373 . S
C2252 C2254 1.389 . S
C2253 H2232 0.950 . S
C2253 C2252 1.373 . S
C2253 C2269 1.377 . S
C2254 C2252 1.389 . S
C2254 C2255 1.524 . S
C2254 C2268 1.377 . S
C2255 C2254 1.524 . S
C2255 C2256 1.397 . S
C2255 C2260 1.363 . S
C2256 H2233 0.950 . S
C2256 C2255 1.397 . S
C2256 C2257 1.334 . S
C2257 H2234 0.950 . S
C2257 C2256 1.334 . S
C2257 C2258 1.287 . S
C2258 C2257 1.287 . S
C2258 C2259 1.524 . S
C2258 H2277 0.913 . S
C2259 H2235 0.950 . S
C2259 C2258 1.524 . S
C2259 C2260 1.415 . S
C2260 H2236 0.950 . S
C2260 C2255 1.363 . S
C2260 C2259 1.415 . S
C2261 H2237 0.951 . S
C2261 C2262 1.366 . S
C2261 C2263 1.388 . S
C2262 C2261 1.366 . S
C2262 C2266 1.385 . S
C2263 H2238 0.951 . S
C2263 C2261 1.388 . S
C2263 C2264 1.366 . S
C2264 C2263 1.366 . S
C2264 C2265 1.414 . S
C2264 C2267 1.499 . S
C2265 H2239 0.950 . S
C2265 C2264 1.414 . S
C2265 C2266 1.374 . S
C2266 H2240 0.950 . S
C2266 C2262 1.385 . S
C2266 C2265 1.374 . S
C2267 C2264 1.499 . S
C2267 C2268 1.373 . S
C2267 C2269 1.389 . S
C2268 H2241 0.950 . S
C2268 C2254 1.377 . S
C2268 C2267 1.373 . S
C2269 C2253 1.377 . S
C2269 C2267 1.389 . S
C2269 C2270 1.524 . S
C2270 C2269 1.524 . S
C2270 C2271 1.397 . S
C2270 C2275 1.363 . S
C2271 H2242 0.950 . S
C2271 C2270 1.397 . S
C2271 C2272 1.334 . S
C2272 H2243 0.950 . S
C2272 C2271 1.334 . S
C2272 C2273 1.287 . S
C2273 C2272 1.287 . S
C2273 C2274 1.524 . S
C2273 H2276 0.999 . S
C2274 H2244 0.950 . S
C2274 C2273 1.524 . S
C2274 C2275 1.415 . S
C2275 H2245 0.950 . S
C2275 C2270 1.363 . S
C2275 C2274 1.415 . S
H2276 C2273 0.999 . S
H2277 C2258 0.913 . S
H2278 C2296 0.951 . S
H2279 C2298 0.951 . S
H2280 C2300 0.950 . S
H2281 C2301 0.950 . S
H2282 C2303 0.950 . S
H2283 C2306 0.950 . S
H2284 C2307 0.950 . S
H2285 C2309 0.950 . S
H2286 C2310 0.950 . S
H2287 C2311 0.951 . S
H2288 C2313 0.951 . S
H2289 C2315 0.950 . S
H2290 C2316 0.950 . S
H2291 C2318 0.950 . S
H2292 C2321 0.950 . S
H2293 C2322 0.950 . S
H2294 C2324 0.950 . S
H2295 C2325 0.950 . S
C2296 H2278 0.951 . S
C2296 C2297 1.366 . S
C2296 C2298 1.388 . S
C2297 C2296 1.366 . S
C2297 C2301 1.385 . S
C2298 H2279 0.951 . S
C2298 C2296 1.388 . S
C2298 C2299 1.366 . S
C2299 C2298 1.366 . S
C2299 C2300 1.414 . S
C2299 C2302 1.499 . S
C2300 H2280 0.950 . S
C2300 C2299 1.414 . S
C2300 C2301 1.374 . S
C2301 H2281 0.950 . S
C2301 C2297 1.385 . S
C2301 C2300 1.374 . S
C2302 C2299 1.499 . S
C2302 C2303 1.373 . S
C2302 C2304 1.389 . S
C2303 H2282 0.950 . S
C2303 C2302 1.373 . S
C2303 C2319 1.377 . S
C2304 C2302 1.389 . S
C2304 C2305 1.524 . S
C2304 C2318 1.377 . S
C2305 C2304 1.524 . S
C2305 C2306 1.397 . S
C2305 C2310 1.363 . S
C2306 H2283 0.950 . S
C2306 C2305 1.397 . S
C2306 C2307 1.334 . S
C2307 H2284 0.950 . S
C2307 C2306 1.334 . S
C2307 C2308 1.287 . S
C2308 C2307 1.287 . S
C2308 C2309 1.524 . S
C2308 H2327 0.913 . S
C2309 H2285 0.950 . S
C2309 C2308 1.524 . S
C2309 C2310 1.415 . S
C2310 H2286 0.950 . S
C2310 C2305 1.363 . S
C2310 C2309 1.415 . S
C2311 H2287 0.951 . S
C2311 C2312 1.366 . S
C2311 C2313 1.388 . S
C2312 C2311 1.366 . S
C2312 C2316 1.385 . S
C2313 H2288 0.951 . S
C2313 C2311 1.388 . S
C2313 C2314 1.366 . S
C2314 C2313 1.366 . S
C2314 C2315 1.414 . S
C2314 C2317 1.499 . S
C2315 H2289 0.950 . S
C2315 C2314 1.414 . S
C2315 C2316 1.374 . S
C2316 H2290 0.950 . S
C2316 C2312 1.385 . S
C2316 C2315 1.374 . S
C2317 C2314 1.499 . S
C2317 C2318 1.373 . S
C2317 C2319 1.389 . S
C2318 H2291 0.950 . S
C2318 C2304 1.377 . S
C2318 C2317 1.373 . S
C2319 C2303 1.377 . S
C2319 C2317 1.389 . S
C2319 C2320 1.524 . S
C2320 C2319 1.524 . S
C2320 C2321 1.397 . S
C2320 C2325 1.363 . S
C2321 H2292 0.950 . S
C2321 C2320 1.397 . S
C2321 C2322 1.334 . S
C2322 H2293 0.950 . S
C2322 C2321 1.334 . S
C2322 C2323 1.287 . S
C2323 C2322 1.287 . S
C2323 C2324 1.524 . S
C2323 H2326 0.999 . S
C2324 H2294 0.950 . S
C2324 C2323 1.524 . S
C2324 C2325 1.415 . S
C2325 H2295 0.950 . S
C2325 C2320 1.363 . S
C2325 C2324 1.415 . S
H2326 C2323 0.999 . S
H2327 C2308 0.913 . S
H2328 C2346 0.951 . S
H2329 C2348 0.951 . S
H2330 C2350 0.950 . S
H2331 C2351 0.950 . S
H2332 C2353 0.950 . S
H2333 C2356 0.950 . S
H2334 C2357 0.950 . S
H2335 C2359 0.950 . S
H2336 C2360 0.950 . S
H2337 C2361 0.951 . S
H2338 C2363 0.951 . S
H2339 C2365 0.950 . S
H2340 C2366 0.950 . S
H2341 C2368 0.950 . S
H2342 C2371 0.950 . S
H2343 C2372 0.950 . S
H2344 C2374 0.950 . S
H2345 C2375 0.950 . S
C2346 H2328 0.951 . S
C2346 C2347 1.366 . S
C2346 C2348 1.388 . S
C2347 C2346 1.366 . S
C2347 C2351 1.385 . S
C2348 H2329 0.951 . S
C2348 C2346 1.388 . S
C2348 C2349 1.366 . S
C2349 C2348 1.366 . S
C2349 C2350 1.414 . S
C2349 C2352 1.499 . S
C2350 H2330 0.950 . S
C2350 C2349 1.414 . S
C2350 C2351 1.374 . S
C2351 H2331 0.950 . S
C2351 C2347 1.385 . S
C2351 C2350 1.374 . S
C2352 C2349 1.499 . S
C2352 C2353 1.373 . S
C2352 C2354 1.389 . S
C2353 H2332 0.950 . S
C2353 C2352 1.373 . S
C2353 C2369 1.377 . S
C2354 C2352 1.389 . S
C2354 C2355 1.524 . S
C2354 C2368 1.377 . S
C2355 C2354 1.524 . S
C2355 C2356 1.397 . S
C2355 C2360 1.363 . S
C2356 H2333 0.950 . S
C2356 C2355 1.397 . S
C2356 C2357 1.334 . S
C2357 H2334 0.950 . S
C2357 C2356 1.334 . S
C2357 C2358 1.287 . S
C2358 C2357 1.287 . S
C2358 C2359 1.524 . S
C2358 H2377 0.913 . S
C2359 H2335 0.950 . S
C2359 C2358 1.524 . S
C2359 C2360 1.415 . S
C2360 H2336 0.950 . S
C2360 C2355 1.363 . S
C2360 C2359 1.415 . S
C2361 H2337 0.951 . S
C2361 C2362 1.366 . S
C2361 C2363 1.388 . S
C2362 C2361 1.366 . S
C2362 C2366 1.385 . S
C2363 H2338 0.951 . S
C2363 C2361 1.388 . S
C2363 C2364 1.366 . S
C2364 C2363 1.366 . S
C2364 C2365 1.414 . S
C2364 C2367 1.499 . S
C2365 H2339 0.950 . S
C2365 C2364 1.414 . S
C2365 C2366 1.374 . S
C2366 H2340 0.950 . S
C2366 C2362 1.385 . S
C2366 C2365 1.374 . S
C2367 C2364 1.499 . S
C2367 C2368 1.373 . S
C2367 C2369 1.389 . S
C2368 H2341 0.950 . S
C2368 C2354 1.377 . S
C2368 C2367 1.373 . S
C2369 C2353 1.377 . S
C2369 C2367 1.389 . S
C2369 C2370 1.524 . S
C2370 C2369 1.524 . S
C2370 C2371 1.397 . S
C2370 C2375 1.363 . S
C2371 H2342 0.950 . S
C2371 C2370 1.397 . S
C2371 C2372 1.334 . S
C2372 H2343 0.950 . S
C2372 C2371 1.334 . S
C2372 C2373 1.287 . S
C2373 C2372 1.287 . S
C2373 C2374 1.524 . S
C2373 H2376 0.999 . S
C2374 H2344 0.950 . S
C2374 C2373 1.524 . S
C2374 C2375 1.415 . S
C2375 H2345 0.950 . S
C2375 C2370 1.363 . S
C2375 C2374 1.415 . S
H2376 C2373 0.999 . S
H2377 C2358 0.913 . S
H2378 C2396 0.951 . S
H2379 C2398 0.951 . S
H2380 C2400 0.950 . S
H2381 C2401 0.950 . S
H2382 C2403 0.950 . S
H2383 C2406 0.950 . S
H2384 C2407 0.950 . S
H2385 C2409 0.950 . S
H2386 C2410 0.950 . S
H2387 C2411 0.951 . S
H2388 C2413 0.951 . S
H2389 C2415 0.950 . S
H2390 C2416 0.950 . S
H2391 C2418 0.950 . S
H2392 C2421 0.950 . S
H2393 C2422 0.950 . S
H2394 C2424 0.950 . S
H2395 C2425 0.950 . S
C2396 H2378 0.951 . S
C2396 C2397 1.366 . S
C2396 C2398 1.388 . S
C2397 C2396 1.366 . S
C2397 C2401 1.385 . S
C2398 H2379 0.951 . S
C2398 C2396 1.388 . S
C2398 C2399 1.366 . S
C2399 C2398 1.366 . S
C2399 C2400 1.414 . S
C2399 C2402 1.499 . S
C2400 H2380 0.950 . S
C2400 C2399 1.414 . S
C2400 C2401 1.374 . S
C2401 H2381 0.950 . S
C2401 C2397 1.385 . S
C2401 C2400 1.374 . S
C2402 C2399 1.499 . S
C2402 C2403 1.373 . S
C2402 C2404 1.389 . S
C2403 H2382 0.950 . S
C2403 C2402 1.373 . S
C2403 C2419 1.377 . S
C2404 C2402 1.389 . S
C2404 C2405 1.524 . S
C2404 C2418 1.377 . S
C2405 C2404 1.524 . S
C2405 C2406 1.397 . S
C2405 C2410 1.363 . S
C2406 H2383 0.950 . S
C2406 C2405 1.397 . S
C2406 C2407 1.334 . S
C2407 H2384 0.950 . S
C2407 C2406 1.334 . S
C2407 C2408 1.287 . S
C2408 C2407 1.287 . S
C2408 C2409 1.524 . S
C2408 H2427 0.913 . S
C2409 H2385 0.950 . S
C2409 C2408 1.524 . S
C2409 C2410 1.415 . S
C2410 H2386 0.950 . S
C2410 C2405 1.363 . S
C2410 C2409 1.415 . S
C2411 H2387 0.951 . S
C2411 C2412 1.366 . S
C2411 C2413 1.388 . S
C2412 C2411 1.366 . S
C2412 C2416 1.385 . S
C2413 H2388 0.951 . S
C2413 C2411 1.388 . S
C2413 C2414 1.366 . S
C2414 C2413 1.366 . S
C2414 C2415 1.414 . S
C2414 C2417 1.499 . S
C2415 H2389 0.950 . S
C2415 C2414 1.414 . S
C2415 C2416 1.374 . S
C2416 H2390 0.950 . S
C2416 C2412 1.385 . S
C2416 C2415 1.374 . S
C2417 C2414 1.499 . S
C2417 C2418 1.373 . S
C2417 C2419 1.389 . S
C2418 H2391 0.950 . S
C2418 C2404 1.377 . S
C2418 C2417 1.373 . S
C2419 C2403 1.377 . S
C2419 C2417 1.389 . S
C2419 C2420 1.524 . S
C2420 C2419 1.524 . S
C2420 C2421 1.397 . S
C2420 C2425 1.363 . S
C2421 H2392 0.950 . S
C2421 C2420 1.397 . S
C2421 C2422 1.334 . S
C2422 H2393 0.950 . S
C2422 C2421 1.334 . S
C2422 C2423 1.287 . S
C2423 C2422 1.287 . S
C2423 C2424 1.524 . S
C2423 H2426 0.999 . S
C2424 H2394 0.950 . S
C2424 C2423 1.524 . S
C2424 C2425 1.415 . S
C2425 H2395 0.950 . S
C2425 C2420 1.363 . S
C2425 C2424 1.415 . S
H2426 C2423 0.999 . S
H2427 C2408 0.913 . S
H2428 C2446 0.951 . S
H2429 C2448 0.951 . S
H2430 C2450 0.950 . S
H2431 C2451 0.950 . S
H2432 C2453 0.950 . S
H2433 C2456 0.950 . S
H2434 C2457 0.950 . S
H2435 C2459 0.950 . S
H2436 C2460 0.950 . S
H2437 C2461 0.951 . S
H2438 C2463 0.951 . S
H2439 C2465 0.950 . S
H2440 C2466 0.950 . S
H2441 C2468 0.950 . S
H2442 C2471 0.950 . S
H2443 C2472 0.950 . S
H2444 C2474 0.950 . S
H2445 C2475 0.950 . S
C2446 H2428 0.951 . S
C2446 C2447 1.366 . S
C2446 C2448 1.388 . S
C2447 C2446 1.366 . S
C2447 C2451 1.385 . S
C2448 H2429 0.951 . S
C2448 C2446 1.388 . S
C2448 C2449 1.366 . S
C2449 C2448 1.366 . S
C2449 C2450 1.414 . S
C2449 C2452 1.499 . S
C2450 H2430 0.950 . S
C2450 C2449 1.414 . S
C2450 C2451 1.374 . S
C2451 H2431 0.950 . S
C2451 C2447 1.385 . S
C2451 C2450 1.374 . S
C2452 C2449 1.499 . S
C2452 C2453 1.373 . S
C2452 C2454 1.389 . S
C2453 H2432 0.950 . S
C2453 C2452 1.373 . S
C2453 C2469 1.377 . S
C2454 C2452 1.389 . S
C2454 C2455 1.524 . S
C2454 C2468 1.377 . S
C2455 C2454 1.524 . S
C2455 C2456 1.397 . S
C2455 C2460 1.363 . S
C2456 H2433 0.950 . S
C2456 C2455 1.397 . S
C2456 C2457 1.334 . S
C2457 H2434 0.950 . S
C2457 C2456 1.334 . S
C2457 C2458 1.287 . S
C2458 C2457 1.287 . S
C2458 C2459 1.524 . S
C2458 H2477 0.913 . S
C2459 H2435 0.950 . S
C2459 C2458 1.524 . S
C2459 C2460 1.415 . S
C2460 H2436 0.950 . S
C2460 C2455 1.363 . S
C2460 C2459 1.415 . S
C2461 H2437 0.951 . S
C2461 C2462 1.366 . S
C2461 C2463 1.388 . S
C2462 C2461 1.366 . S
C2462 C2466 1.385 . S
C2463 H2438 0.951 . S
C2463 C2461 1.388 . S
C2463 C2464 1.366 . S
C2464 C2463 1.366 . S
C2464 C2465 1.414 . S
C2464 C2467 1.499 . S
C2465 H2439 0.950 . S
C2465 C2464 1.414 . S
C2465 C2466 1.374 . S
C2466 H2440 0.950 . S
C2466 C2462 1.385 . S
C2466 C2465 1.374 . S
C2467 C2464 1.499 . S
C2467 C2468 1.373 . S
C2467 C2469 1.389 . S
C2468 H2441 0.950 . S
C2468 C2454 1.377 . S
C2468 C2467 1.373 . S
C2469 C2453 1.377 . S
C2469 C2467 1.389 . S
C2469 C2470 1.524 . S
C2470 C2469 1.524 . S
C2470 C2471 1.397 . S
C2470 C2475 1.363 . S
C2471 H2442 0.950 . S
C2471 C2470 1.397 . S
C2471 C2472 1.334 . S
C2472 H2443 0.950 . S
C2472 C2471 1.334 . S
C2472 C2473 1.287 . S
C2473 C2472 1.287 . S
C2473 C2474 1.524 . S
C2473 H2476 0.999 . S
C2474 H2444 0.950 . S
C2474 C2473 1.524 . S
C2474 C2475 1.415 . S
C2475 H2445 0.950 . S
C2475 C2470 1.363 . S
C2475 C2474 1.415 . S
H2476 C2473 0.999 . S
H2477 C2458 0.913 . S
H2478 C2496 0.951 . S
H2479 C2498 0.951 . S
H2480 C2500 0.950 . S
H2481 C2501 0.950 . S
H2482 C2503 0.950 . S
H2483 C2506 0.950 . S
H2484 C2507 0.950 . S
H2485 C2509 0.950 . S
H2486 C2510 0.950 . S
H2487 C2511 0.951 . S
H2488 C2513 0.951 . S
H2489 C2515 0.950 . S
H2490 C2516 0.950 . S
H2491 C2518 0.950 . S
H2492 C2521 0.950 . S
H2493 C2522 0.950 . S
H2494 C2524 0.950 . S
H2495 C2525 0.950 . S
C2496 H2478 0.951 . S
C2496 C2497 1.366 . S
C2496 C2498 1.388 . S
C2497 C2496 1.366 . S
C2497 C2501 1.385 . S
C2498 H2479 0.951 . S
C2498 C2496 1.388 . S
C2498 C2499 1.366 . S
C2499 C2498 1.366 . S
C2499 C2500 1.414 . S
C2499 C2502 1.499 . S
C2500 H2480 0.950 . S
C2500 C2499 1.414 . S
C2500 C2501 1.374 . S
C2501 H2481 0.950 . S
C2501 C2497 1.385 . S
C2501 C2500 1.374 . S
C2502 C2499 1.499 . S
C2502 C2503 1.373 . S
C2502 C2504 1.389 . S
C2503 H2482 0.950 . S
C2503 C2502 1.373 . S
C2503 C2519 1.377 . S
C2504 C2502 1.389 . S
C2504 C2505 1.524 . S
C2504 C2518 1.377 . S
C2505 C2504 1.524 . S
C2505 C2506 1.397 . S
C2505 C2510 1.363 . S
C2506 H2483 0.950 . S
C2506 C2505 1.397 . S
C2506 C2507 1.334 . S
C2507 H2484 0.950 . S
C2507 C2506 1.334 . S
C2507 C2508 1.287 . S
C2508 C2507 1.287 . S
C2508 C2509 1.524 . S
C2508 H2527 0.913 . S
C2509 H2485 0.950 . S
C2509 C2508 1.524 . S
C2509 C2510 1.415 . S
C2510 H2486 0.950 . S
C2510 C2505 1.363 . S
C2510 C2509 1.415 . S
C2511 H2487 0.951 . S
C2511 C2512 1.366 . S
C2511 C2513 1.388 . S
C2512 C2511 1.366 . S
C2512 C2516 1.385 . S
C2513 H2488 0.951 . S
C2513 C2511 1.388 . S
C2513 C2514 1.366 . S
C2514 C2513 1.366 . S
C2514 C2515 1.414 . S
C2514 C2517 1.499 . S
C2515 H2489 0.950 . S
C2515 C2514 1.414 . S
C2515 C2516 1.374 . S
C2516 H2490 0.950 . S
C2516 C2512 1.385 . S
C2516 C2515 1.374 . S
C2517 C2514 1.499 . S
C2517 C2518 1.373 . S
C2517 C2519 1.389 . S
C2518 H2491 0.950 . S
C2518 C2504 1.377 . S
C2518 C2517 1.373 . S
C2519 C2503 1.377 . S
C2519 C2517 1.389 . S
C2519 C2520 1.524 . S
C2520 C2519 1.524 . S
C2520 C2521 1.397 . S
C2520 C2525 1.363 . S
C2521 H2492 0.950 . S
C2521 C2520 1.397 . S
C2521 C2522 1.334 . S
C2522 H2493 0.950 . S
C2522 C2521 1.334 . S
C2522 C2523 1.287 . S
C2523 C2522 1.287 . S
C2523 C2524 1.524 . S
C2523 H2526 0.999 . S
C2524 H2494 0.950 . S
C2524 C2523 1.524 . S
C2524 C2525 1.415 . S
C2525 H2495 0.950 . S
C2525 C2520 1.363 . S
C2525 C2524 1.415 . S
H2526 C2523 0.999 . S
H2527 C2508 0.913 . S
C547 N2 1.264 . S
C562 N497 1.264 . S
C597 N35 1.263 . S
C612 N398 1.263 . S
C647 N431 1.264 . S
C662 N68 1.264 . S
C697 N101 1.264 . S
C712 N464 1.264 . S
C747 N134 1.264 . S
C762 N299 1.264 . S
C797 N332 1.264 . S
C812 N167 1.264 . S
C847 N365 1.264 . S
C862 N200 1.264 . S
C897 N266 1.263 . S
C912 N233 1.263 . S
C947 N112 1.552 1_556 S
C962 C21 1.609 . S
C997 N13 1.552 1_556 S
C1012 C54 1.609 . S
C1047 C87 1.609 . S
C1062 N46 1.552 1_556 S
C1097 C120 1.609 . S
C1112 N79 1.553 1_556 S
C1147 N178 1.553 . S
C1162 C153 1.609 . S
C1197 N211 1.552 . S
C1212 C186 1.609 . S
C1247 N244 1.552 . S
C1262 C219 1.609 . S
C1297 N145 1.552 . S
C1312 C252 1.609 . S
C1347 N376 1.553 . S
C1362 C285 1.609 . S
C1397 C318 1.609 . S
C1412 N277 1.552 . S
C1447 N310 1.553 . S
C1462 C351 1.609 . S
C1497 N343 1.552 . S
C1512 C384 1.609 . S
C1547 N442 1.552 . S
C1562 C417 1.609 . S
C1597 N475 1.553 . S
C1612 C450 1.609 . S
C1647 N508 1.553 . S
C1662 C483 1.609 . S
C1697 N409 1.553 . S
C1712 C516 1.609 . S
C1747 C205 1.545 . S
C1762 C7 1.546 . S
C1797 C238 1.545 . S
C1812 C40 1.546 . S
C1847 C73 1.545 . S
C1862 C139 1.546 . S
C1897 C172 1.545 . S
C1912 C106 1.545 . S
C1947 C84 0.741 . S
C1962 C150 0.740 . S
C1997 C183 0.742 . S
C2012 C117 0.741 . S
C2047 C18 0.741 . S
C2062 C216 0.742 . S
C2097 C249 0.741 . S
C2112 C51 0.741 . S
C2147 C469 1.546 . S
C2162 C271 1.545 . S
C2197 C502 1.545 . S
C2212 C304 1.546 . S
C2247 C403 1.545 . S
C2262 C337 1.546 . S
C2297 C370 1.545 . S
C2312 C436 1.545 . S
C2347 C414 0.742 . S
C2362 C348 0.741 . S
C2397 C381 0.742 . S
C2412 C447 0.741 . S
C2447 C282 0.741 . S
C2462 C480 0.742 . S
C2497 C513 0.742 . S
C2512 C315 0.741 . S
