# Generated by pormake.
# Topology rho, (4)-cn, num edge types: 1
# Building blocks:
#     Node 0, Type 0, BuildingBlock: CEKHIL_clean_sbu_0, # of connection points: 4
#     Node 1, Type 0, BuildingBlock: CEKHIL_clean_sbu_0, # of connection points: 4
#     Node 2, Type 0, BuildingBlock: CEKHIL_clean_sbu_0, # of connection points: 4
#     Node 3, Type 0, BuildingBlock: CEKHIL_clean_sbu_0, # of connection points: 4
#     Node 4, Type 0, BuildingBlock: CEKHIL_clean_sbu_0, # of connection points: 4
#     Node 5, Type 0, BuildingBlock: CEKHIL_clean_sbu_0, # of connection points: 4
#     Node 6, Type 0, BuildingBlock: CEKHIL_clean_sbu_0, # of connection points: 4
#     Node 7, Type 0, BuildingBlock: CEKHIL_clean_sbu_0, # of connection points: 4
#     Node 8, Type 0, BuildingBlock: CEKHIL_clean_sbu_0, # of connection points: 4
#     Node 9, Type 0, BuildingBlock: CEKHIL_clean_sbu_0, # of connection points: 4
#     Node 10, Type 0, BuildingBlock: CEKHIL_clean_sbu_0, # of connection points: 4
#     Node 11, Type 0, BuildingBlock: CEKHIL_clean_sbu_0, # of connection points: 4
#     Node 12, Type 0, BuildingBlock: CEKHIL_clean_sbu_0, # of connection points: 4
#     Node 13, Type 0, BuildingBlock: CEKHIL_clean_sbu_0, # of connection points: 4
#     Node 14, Type 0, BuildingBlock: CEKHIL_clean_sbu_0, # of connection points: 4
#     Node 15, Type 0, BuildingBlock: CEKHIL_clean_sbu_0, # of connection points: 4
#     Node 16, Type 0, BuildingBlock: CEKHIL_clean_sbu_0, # of connection points: 4
#     Node 17, Type 0, BuildingBlock: CEKHIL_clean_sbu_0, # of connection points: 4
#     Node 18, Type 0, BuildingBlock: CEKHIL_clean_sbu_0, # of connection points: 4
#     Node 19, Type 0, BuildingBlock: CEKHIL_clean_sbu_0, # of connection points: 4
#     Node 20, Type 0, BuildingBlock: CEKHIL_clean_sbu_0, # of connection points: 4
#     Node 21, Type 0, BuildingBlock: CEKHIL_clean_sbu_0, # of connection points: 4
#     Node 22, Type 0, BuildingBlock: CEKHIL_clean_sbu_0, # of connection points: 4
#     Node 23, Type 0, BuildingBlock: CEKHIL_clean_sbu_0, # of connection points: 4
#     Node 24, Type 0, BuildingBlock: CEKHIL_clean_sbu_0, # of connection points: 4
#     Node 25, Type 0, BuildingBlock: CEKHIL_clean_sbu_0, # of connection points: 4
#     Node 26, Type 0, BuildingBlock: CEKHIL_clean_sbu_0, # of connection points: 4
#     Node 27, Type 0, BuildingBlock: CEKHIL_clean_sbu_0, # of connection points: 4
#     Node 28, Type 0, BuildingBlock: CEKHIL_clean_sbu_0, # of connection points: 4
#     Node 29, Type 0, BuildingBlock: CEKHIL_clean_sbu_0, # of connection points: 4
#     Node 30, Type 0, BuildingBlock: CEKHIL_clean_sbu_0, # of connection points: 4
#     Node 31, Type 0, BuildingBlock: CEKHIL_clean_sbu_0, # of connection points: 4
#     Node 32, Type 0, BuildingBlock: CEKHIL_clean_sbu_0, # of connection points: 4
#     Node 33, Type 0, BuildingBlock: CEKHIL_clean_sbu_0, # of connection points: 4
#     Node 34, Type 0, BuildingBlock: CEKHIL_clean_sbu_0, # of connection points: 4
#     Node 35, Type 0, BuildingBlock: CEKHIL_clean_sbu_0, # of connection points: 4
#     Node 36, Type 0, BuildingBlock: CEKHIL_clean_sbu_0, # of connection points: 4
#     Node 37, Type 0, BuildingBlock: CEKHIL_clean_sbu_0, # of connection points: 4
#     Node 38, Type 0, BuildingBlock: CEKHIL_clean_sbu_0, # of connection points: 4
#     Node 39, Type 0, BuildingBlock: CEKHIL_clean_sbu_0, # of connection points: 4
#     Node 40, Type 0, BuildingBlock: CEKHIL_clean_sbu_0, # of connection points: 4
#     Node 41, Type 0, BuildingBlock: CEKHIL_clean_sbu_0, # of connection points: 4
#     Node 42, Type 0, BuildingBlock: CEKHIL_clean_sbu_0, # of connection points: 4
#     Node 43, Type 0, BuildingBlock: CEKHIL_clean_sbu_0, # of connection points: 4
#     Node 44, Type 0, BuildingBlock: CEKHIL_clean_sbu_0, # of connection points: 4
#     Node 45, Type 0, BuildingBlock: CEKHIL_clean_sbu_0, # of connection points: 4
#     Node 46, Type 0, BuildingBlock: CEKHIL_clean_sbu_0, # of connection points: 4
#     Node 47, Type 0, BuildingBlock: CEKHIL_clean_sbu_0, # of connection points: 4
#     Edge 48, Type (0, 0), BuildingBlock: EZIPEK_clean_linker_0, # of connection points: 2
#     Edge 49, Type (0, 0), BuildingBlock: EZIPEK_clean_linker_0, # of connection points: 2
#     Edge 50, Type (0, 0), BuildingBlock: EZIPEK_clean_linker_0, # of connection points: 2
#     Edge 51, Type (0, 0), BuildingBlock: EZIPEK_clean_linker_0, # of connection points: 2
#     Edge 52, Type (0, 0), BuildingBlock: EZIPEK_clean_linker_0, # of connection points: 2
#     Edge 53, Type (0, 0), BuildingBlock: EZIPEK_clean_linker_0, # of connection points: 2
#     Edge 54, Type (0, 0), BuildingBlock: EZIPEK_clean_linker_0, # of connection points: 2
#     Edge 55, Type (0, 0), BuildingBlock: EZIPEK_clean_linker_0, # of connection points: 2
#     Edge 56, Type (0, 0), BuildingBlock: EZIPEK_clean_linker_0, # of connection points: 2
#     Edge 57, Type (0, 0), BuildingBlock: EZIPEK_clean_linker_0, # of connection points: 2
#     Edge 58, Type (0, 0), BuildingBlock: EZIPEK_clean_linker_0, # of connection points: 2
#     Edge 59, Type (0, 0), BuildingBlock: EZIPEK_clean_linker_0, # of connection points: 2
#     Edge 60, Type (0, 0), BuildingBlock: EZIPEK_clean_linker_0, # of connection points: 2
#     Edge 61, Type (0, 0), BuildingBlock: EZIPEK_clean_linker_0, # of connection points: 2
#     Edge 62, Type (0, 0), BuildingBlock: EZIPEK_clean_linker_0, # of connection points: 2
#     Edge 63, Type (0, 0), BuildingBlock: EZIPEK_clean_linker_0, # of connection points: 2
#     Edge 64, Type (0, 0), BuildingBlock: EZIPEK_clean_linker_0, # of connection points: 2
#     Edge 65, Type (0, 0), BuildingBlock: EZIPEK_clean_linker_0, # of connection points: 2
#     Edge 66, Type (0, 0), BuildingBlock: EZIPEK_clean_linker_0, # of connection points: 2
#     Edge 67, Type (0, 0), BuildingBlock: EZIPEK_clean_linker_0, # of connection points: 2
#     Edge 68, Type (0, 0), BuildingBlock: EZIPEK_clean_linker_0, # of connection points: 2
#     Edge 69, Type (0, 0), BuildingBlock: EZIPEK_clean_linker_0, # of connection points: 2
#     Edge 70, Type (0, 0), BuildingBlock: EZIPEK_clean_linker_0, # of connection points: 2
#     Edge 71, Type (0, 0), BuildingBlock: EZIPEK_clean_linker_0, # of connection points: 2
#     Edge 72, Type (0, 0), BuildingBlock: EZIPEK_clean_linker_0, # of connection points: 2
#     Edge 73, Type (0, 0), BuildingBlock: EZIPEK_clean_linker_0, # of connection points: 2
#     Edge 74, Type (0, 0), BuildingBlock: EZIPEK_clean_linker_0, # of connection points: 2
#     Edge 75, Type (0, 0), BuildingBlock: EZIPEK_clean_linker_0, # of connection points: 2
#     Edge 76, Type (0, 0), BuildingBlock: EZIPEK_clean_linker_0, # of connection points: 2
#     Edge 77, Type (0, 0), BuildingBlock: EZIPEK_clean_linker_0, # of connection points: 2
#     Edge 78, Type (0, 0), BuildingBlock: EZIPEK_clean_linker_0, # of connection points: 2
#     Edge 79, Type (0, 0), BuildingBlock: EZIPEK_clean_linker_0, # of connection points: 2
#     Edge 80, Type (0, 0), BuildingBlock: EZIPEK_clean_linker_0, # of connection points: 2
#     Edge 81, Type (0, 0), BuildingBlock: EZIPEK_clean_linker_0, # of connection points: 2
#     Edge 82, Type (0, 0), BuildingBlock: EZIPEK_clean_linker_0, # of connection points: 2
#     Edge 83, Type (0, 0), BuildingBlock: EZIPEK_clean_linker_0, # of connection points: 2
#     Edge 84, Type (0, 0), BuildingBlock: EZIPEK_clean_linker_0, # of connection points: 2
#     Edge 85, Type (0, 0), BuildingBlock: EZIPEK_clean_linker_0, # of connection points: 2
#     Edge 86, Type (0, 0), BuildingBlock: EZIPEK_clean_linker_0, # of connection points: 2
#     Edge 87, Type (0, 0), BuildingBlock: EZIPEK_clean_linker_0, # of connection points: 2
#     Edge 88, Type (0, 0), BuildingBlock: EZIPEK_clean_linker_0, # of connection points: 2
#     Edge 89, Type (0, 0), BuildingBlock: EZIPEK_clean_linker_0, # of connection points: 2
#     Edge 90, Type (0, 0), BuildingBlock: EZIPEK_clean_linker_0, # of connection points: 2
#     Edge 91, Type (0, 0), BuildingBlock: EZIPEK_clean_linker_0, # of connection points: 2
#     Edge 92, Type (0, 0), BuildingBlock: EZIPEK_clean_linker_0, # of connection points: 2
#     Edge 93, Type (0, 0), BuildingBlock: EZIPEK_clean_linker_0, # of connection points: 2
#     Edge 94, Type (0, 0), BuildingBlock: EZIPEK_clean_linker_0, # of connection points: 2
#     Edge 95, Type (0, 0), BuildingBlock: EZIPEK_clean_linker_0, # of connection points: 2
#     Edge 96, Type (0, 0), BuildingBlock: EZIPEK_clean_linker_0, # of connection points: 2
#     Edge 97, Type (0, 0), BuildingBlock: EZIPEK_clean_linker_0, # of connection points: 2
#     Edge 98, Type (0, 0), BuildingBlock: EZIPEK_clean_linker_0, # of connection points: 2
#     Edge 99, Type (0, 0), BuildingBlock: EZIPEK_clean_linker_0, # of connection points: 2
#     Edge 100, Type (0, 0), BuildingBlock: EZIPEK_clean_linker_0, # of connection points: 2
#     Edge 101, Type (0, 0), BuildingBlock: EZIPEK_clean_linker_0, # of connection points: 2
#     Edge 102, Type (0, 0), BuildingBlock: EZIPEK_clean_linker_0, # of connection points: 2
#     Edge 103, Type (0, 0), BuildingBlock: EZIPEK_clean_linker_0, # of connection points: 2
#     Edge 104, Type (0, 0), BuildingBlock: EZIPEK_clean_linker_0, # of connection points: 2
#     Edge 105, Type (0, 0), BuildingBlock: EZIPEK_clean_linker_0, # of connection points: 2
#     Edge 106, Type (0, 0), BuildingBlock: EZIPEK_clean_linker_0, # of connection points: 2
#     Edge 107, Type (0, 0), BuildingBlock: EZIPEK_clean_linker_0, # of connection points: 2
#     Edge 108, Type (0, 0), BuildingBlock: EZIPEK_clean_linker_0, # of connection points: 2
#     Edge 109, Type (0, 0), BuildingBlock: EZIPEK_clean_linker_0, # of connection points: 2
#     Edge 110, Type (0, 0), BuildingBlock: EZIPEK_clean_linker_0, # of connection points: 2
#     Edge 111, Type (0, 0), BuildingBlock: EZIPEK_clean_linker_0, # of connection points: 2
#     Edge 112, Type (0, 0), BuildingBlock: EZIPEK_clean_linker_0, # of connection points: 2
#     Edge 113, Type (0, 0), BuildingBlock: EZIPEK_clean_linker_0, # of connection points: 2
#     Edge 114, Type (0, 0), BuildingBlock: EZIPEK_clean_linker_0, # of connection points: 2
#     Edge 115, Type (0, 0), BuildingBlock: EZIPEK_clean_linker_0, # of connection points: 2
#     Edge 116, Type (0, 0), BuildingBlock: EZIPEK_clean_linker_0, # of connection points: 2
#     Edge 117, Type (0, 0), BuildingBlock: EZIPEK_clean_linker_0, # of connection points: 2
#     Edge 118, Type (0, 0), BuildingBlock: EZIPEK_clean_linker_0, # of connection points: 2
#     Edge 119, Type (0, 0), BuildingBlock: EZIPEK_clean_linker_0, # of connection points: 2
#     Edge 120, Type (0, 0), BuildingBlock: EZIPEK_clean_linker_0, # of connection points: 2
#     Edge 121, Type (0, 0), BuildingBlock: EZIPEK_clean_linker_0, # of connection points: 2
#     Edge 122, Type (0, 0), BuildingBlock: EZIPEK_clean_linker_0, # of connection points: 2
#     Edge 123, Type (0, 0), BuildingBlock: EZIPEK_clean_linker_0, # of connection points: 2
#     Edge 124, Type (0, 0), BuildingBlock: EZIPEK_clean_linker_0, # of connection points: 2
#     Edge 125, Type (0, 0), BuildingBlock: EZIPEK_clean_linker_0, # of connection points: 2
#     Edge 126, Type (0, 0), BuildingBlock: EZIPEK_clean_linker_0, # of connection points: 2
#     Edge 127, Type (0, 0), BuildingBlock: EZIPEK_clean_linker_0, # of connection points: 2
#     Edge 128, Type (0, 0), BuildingBlock: EZIPEK_clean_linker_0, # of connection points: 2
#     Edge 129, Type (0, 0), BuildingBlock: EZIPEK_clean_linker_0, # of connection points: 2
#     Edge 130, Type (0, 0), BuildingBlock: EZIPEK_clean_linker_0, # of connection points: 2
#     Edge 131, Type (0, 0), BuildingBlock: EZIPEK_clean_linker_0, # of connection points: 2
#     Edge 132, Type (0, 0), BuildingBlock: EZIPEK_clean_linker_0, # of connection points: 2
#     Edge 133, Type (0, 0), BuildingBlock: EZIPEK_clean_linker_0, # of connection points: 2
#     Edge 134, Type (0, 0), BuildingBlock: EZIPEK_clean_linker_0, # of connection points: 2
#     Edge 135, Type (0, 0), BuildingBlock: EZIPEK_clean_linker_0, # of connection points: 2
#     Edge 136, Type (0, 0), BuildingBlock: EZIPEK_clean_linker_0, # of connection points: 2
#     Edge 137, Type (0, 0), BuildingBlock: EZIPEK_clean_linker_0, # of connection points: 2
#     Edge 138, Type (0, 0), BuildingBlock: EZIPEK_clean_linker_0, # of connection points: 2
#     Edge 139, Type (0, 0), BuildingBlock: EZIPEK_clean_linker_0, # of connection points: 2
#     Edge 140, Type (0, 0), BuildingBlock: EZIPEK_clean_linker_0, # of connection points: 2
#     Edge 141, Type (0, 0), BuildingBlock: EZIPEK_clean_linker_0, # of connection points: 2
#     Edge 142, Type (0, 0), BuildingBlock: EZIPEK_clean_linker_0, # of connection points: 2
#     Edge 143, Type (0, 0), BuildingBlock: EZIPEK_clean_linker_0, # of connection points: 2
# Relax obj value: 0.078
# Max RMSD: 0.093
# Mean RMSD: 0.084
data_MOF--net-rho--node1-CEKHIL_clean_sbu_0--edge1-EZIPEK_clean_linker_0
_symmetry_space_group_name_H-M    P1
_symmetry_Int_Tables_number       1
_symmetry_cell_setting            triclinic
loop_
_symmetry_equiv_pos_as_xyz
'x, y, z'
_cell_length_a     52.49037
_cell_length_b     51.972187
_cell_length_c     51.950379
_cell_angle_alpha  90.228654
_cell_angle_beta   90.08146
_cell_angle_gamma 90.750123
loop_
_atom_site_label
_atom_site_type_symbol
_atom_site_fract_x
_atom_site_fract_y
_atom_site_fract_z
_atom_type_partial_charge
Co0 Co 0.11178 0.25041 0.38459 0.0
O1 O 0.14811 0.24497 0.38627 0.0
O2 O 0.11871 0.21398 0.38499 0.0
C3 C 0.11274 0.28071 0.35358 0.0
O4 O 0.07297 0.24798 0.38181 0.0
Co5 Co 0.08801 0.303 0.39878 0.0
O6 O 0.05489 0.28604 0.3905 0.0
C7 C 0.1078 0.26983 0.43967 0.0
C8 C 0.14268 0.22051 0.38596 0.0
C9 C 0.05327 0.26227 0.38455 0.0
O10 O 0.11002 0.25119 0.42348 0.0
O11 O 0.10164 0.29266 0.43329 0.0
O12 O 0.11399 0.25646 0.34753 0.0
O13 O 0.11332 0.28588 0.3779 0.0
Co14 Co 0.75267 0.10938 0.39179 0.0
O15 O 0.74513 0.10749 0.35541 0.0
O16 O 0.71636 0.10573 0.38653 0.0
C17 C 0.78052 0.14289 0.38881 0.0
O18 O 0.75197 0.11174 0.43108 0.0
Co19 Co 0.80697 0.10069 0.4135 0.0
O20 O 0.79177 0.11075 0.44703 0.0
C21 C 0.77599 0.05614 0.39662 0.0
C22 C 0.7213 0.10593 0.36203 0.0
C23 C 0.76781 0.11302 0.44997 0.0
O24 O 0.75654 0.07073 0.39358 0.0
O25 O 0.79843 0.06471 0.40168 0.0
O26 O 0.75611 0.1469 0.38932 0.0
O27 O 0.78712 0.11909 0.38832 0.0
Co28 Co 0.89165 0.75123 0.39141 0.0
O29 O 0.85579 0.75899 0.39031 0.0
O30 O 0.88696 0.78816 0.39026 0.0
C31 C 0.89046 0.71991 0.36091 0.0
O32 O 0.93069 0.75069 0.39111 0.0
Co33 Co 0.90955 0.69881 0.41018 0.0
O34 O 0.94405 0.715 0.41069 0.0
C35 C 0.89177 0.73542 0.44813 0.0
C36 C 0.86263 0.78304 0.38979 0.0
C37 C 0.94864 0.73666 0.40021 0.0
O38 O 0.89117 0.75265 0.43045 0.0
O39 O 0.89611 0.71174 0.44362 0.0
O40 O 0.89168 0.74403 0.35456 0.0
O41 O 0.88749 0.71538 0.38523 0.0
Co42 Co 0.25546 0.89348 0.39244 0.0
O43 O 0.26109 0.89378 0.35565 0.0
O44 O 0.2915 0.89441 0.38537 0.0
C45 C 0.22512 0.8617 0.39262 0.0
O46 O 0.25838 0.89237 0.43154 0.0
Co47 Co 0.20389 0.90852 0.41617 0.0
O48 O 0.22175 0.9051 0.4497 0.0
C49 C 0.23704 0.94895 0.39569 0.0
C50 C 0.28526 0.89441 0.36119 0.0
C51 C 0.24478 0.89785 0.45129 0.0
O52 O 0.25494 0.93245 0.39316 0.0
O53 O 0.21428 0.94293 0.40218 0.0
O54 O 0.24917 0.85613 0.39158 0.0
O55 O 0.22006 0.88594 0.39131 0.0
Co56 Co 0.11686 0.74742 0.61638 0.0
O57 O 0.15264 0.75636 0.61555 0.0
O58 O 0.12122 0.78445 0.61699 0.0
C59 C 0.1196 0.71676 0.64701 0.0
O60 O 0.07786 0.74527 0.61833 0.0
Co61 Co 0.09912 0.69237 0.59982 0.0
O62 O 0.06487 0.7046 0.6096 0.0
C63 C 0.1123 0.73031 0.56004 0.0
C64 C 0.14558 0.78016 0.61658 0.0
C65 C 0.06025 0.7279 0.61551 0.0
O66 O 0.11513 0.74775 0.5775 0.0
O67 O 0.10789 0.70656 0.56498 0.0
O68 O 0.11926 0.74094 0.65329 0.0
O69 O 0.12118 0.71215 0.62258 0.0
Co70 Co 0.25229 0.11092 0.6077 0.0
O71 O 0.24238 0.14656 0.60723 0.0
O72 O 0.21564 0.11313 0.60578 0.0
C73 C 0.28079 0.11416 0.64019 0.0
O74 O 0.25499 0.07167 0.60863 0.0
Co75 Co 0.30738 0.09396 0.59501 0.0
O76 O 0.2959 0.05932 0.60626 0.0
C77 C 0.27291 0.10917 0.55286 0.0
C78 C 0.21906 0.13794 0.60596 0.0
C79 C 0.27231 0.0543 0.60934 0.0
O80 O 0.25448 0.11115 0.56896 0.0
O81 O 0.2958 0.10418 0.55959 0.0
O82 O 0.25653 0.11249 0.64499 0.0
O83 O 0.28675 0.11644 0.61615 0.0
Co84 Co 0.89104 0.25367 0.60751 0.0
O85 O 0.85506 0.24635 0.60932 0.0
O86 O 0.88524 0.21683 0.60863 0.0
C87 C 0.89102 0.28468 0.63818 0.0
O88 O 0.93006 0.25382 0.6061 0.0
Co89 Co 0.91062 0.30735 0.59039 0.0
O90 O 0.9443 0.29452 0.60127 0.0
C91 C 0.89426 0.26947 0.551 0.0
C92 C 0.86115 0.22226 0.60975 0.0
C93 C 0.94824 0.27066 0.60479 0.0
O94 O 0.88957 0.2529 0.56874 0.0
O95 O 0.9016 0.29264 0.55558 0.0
O96 O 0.89199 0.26055 0.64444 0.0
O97 O 0.88818 0.28928 0.61389 0.0
Co98 Co 0.75907 0.89548 0.61102 0.0
O99 O 0.76874 0.85989 0.61364 0.0
O100 O 0.79571 0.89296 0.61022 0.0
C101 C 0.72955 0.89433 0.64275 0.0
O102 O 0.75725 0.9345 0.60874 0.0
Co103 Co 0.70451 0.91227 0.59645 0.0
O104 O 0.71648 0.94694 0.60768 0.0
C105 C 0.73932 0.89364 0.556 0.0
C106 C 0.79213 0.86827 0.61216 0.0
C107 C 0.74023 0.95203 0.60948 0.0
O108 O 0.75769 0.89247 0.57235 0.0
O109 O 0.71642 0.89925 0.56208 0.0
O110 O 0.75358 0.89726 0.6483 0.0
O111 O 0.72433 0.89044 0.61876 0.0
Co112 Co 0.39387 0.11211 0.24985 0.0
O113 O 0.35767 0.11315 0.25572 0.0
O114 O 0.38702 0.11088 0.28637 0.0
C115 C 0.39395 0.14434 0.2208 0.0
O116 O 0.43275 0.11134 0.25187 0.0
Co117 Co 0.41693 0.0996 0.19675 0.0
O118 O 0.45013 0.10933 0.21243 0.0
C119 C 0.39679 0.05747 0.22934 0.0
C120 C 0.36309 0.11217 0.28006 0.0
C121 C 0.45217 0.11131 0.23677 0.0
O122 O 0.39244 0.0734 0.24775 0.0
O123 O 0.40485 0.06423 0.20709 0.0
O124 O 0.39478 0.14936 0.24531 0.0
O125 O 0.39201 0.12031 0.21453 0.0
Co126 Co 0.88992 0.39142 0.24642 0.0
O127 O 0.8532 0.39262 0.24172 0.0
O128 O 0.88137 0.39028 0.21017 0.0
C129 C 0.88914 0.3614 0.27853 0.0
O130 O 0.92852 0.38865 0.2421 0.0
Co131 Co 0.91777 0.40697 0.29574 0.0
O132 O 0.94937 0.39492 0.27934 0.0
C133 C 0.89751 0.44733 0.26301 0.0
C134 C 0.85768 0.39143 0.21714 0.0
C135 C 0.94918 0.38966 0.25545 0.0
O136 O 0.89215 0.43039 0.24558 0.0
O137 O 0.90595 0.44173 0.28532 0.0
O138 O 0.88788 0.35473 0.25438 0.0
O139 O 0.88962 0.38596 0.28258 0.0
Co140 Co 0.61192 0.88407 0.25261 0.0
O141 O 0.64751 0.88598 0.2615 0.0
O142 O 0.61585 0.88501 0.28972 0.0
C143 C 0.61567 0.85227 0.22299 0.0
O144 O 0.57295 0.8815 0.25002 0.0
Co145 Co 0.59601 0.89853 0.19676 0.0
O146 O 0.56159 0.88785 0.2086 0.0
C147 C 0.60897 0.9396 0.23372 0.0
C148 C 0.64026 0.88582 0.28532 0.0
C149 C 0.55605 0.8831 0.232 0.0
O150 O 0.61015 0.92278 0.25175 0.0
O151 O 0.60596 0.93373 0.20993 0.0
O152 O 0.6147 0.84703 0.24738 0.0
O153 O 0.61703 0.87654 0.2177 0.0
Co154 Co 0.1076 0.613 0.25484 0.0
O155 O 0.14363 0.61282 0.24741 0.0
O156 O 0.11303 0.61542 0.21808 0.0
C157 C 0.10908 0.64221 0.28744 0.0
O158 O 0.06871 0.61472 0.25479 0.0
Co159 Co 0.08776 0.5919 0.30552 0.0
O160 O 0.05357 0.59374 0.28914 0.0
C161 C 0.10523 0.55537 0.26767 0.0
C162 C 0.13723 0.61432 0.22332 0.0
C163 C 0.05003 0.60543 0.26798 0.0
O164 O 0.10641 0.5741 0.25161 0.0
O165 O 0.10054 0.55856 0.29155 0.0
O166 O 0.10899 0.64945 0.26355 0.0
O167 O 0.1111 0.61762 0.29108 0.0
Co168 Co 0.39712 0.88958 0.75397 0.0
O169 O 0.36087 0.88814 0.74746 0.0
O170 O 0.3906 0.8895 0.71724 0.0
C171 C 0.39767 0.85799 0.78413 0.0
O172 O 0.43617 0.8901 0.75279 0.0
Co173 Co 0.41773 0.90714 0.80606 0.0
O174 O 0.45177 0.90695 0.78941 0.0
C175 C 0.39577 0.9454 0.77263 0.0
C176 C 0.36655 0.88863 0.72318 0.0
C177 C 0.45501 0.89797 0.76683 0.0
O178 O 0.39587 0.92863 0.75435 0.0
O179 O 0.40119 0.93997 0.79591 0.0
O180 O 0.3979 0.85253 0.75971 0.0
O181 O 0.39481 0.88211 0.78972 0.0
Co182 Co 0.11187 0.38328 0.74847 0.0
O183 O 0.14679 0.37896 0.75901 0.0
O184 O 0.11398 0.3824 0.78561 0.0
C185 C 0.11218 0.35253 0.71762 0.0
O186 O 0.07327 0.38742 0.74524 0.0
Co187 Co 0.0984 0.40131 0.69361 0.0
O188 O 0.06272 0.39418 0.70388 0.0
C189 C 0.11295 0.43993 0.7329 0.0
C190 C 0.13839 0.37976 0.78247 0.0
C191 C 0.05664 0.39063 0.72733 0.0
O192 O 0.11632 0.42186 0.74933 0.0
O193 O 0.10671 0.43581 0.7094 0.0
O194 O 0.10838 0.34648 0.74156 0.0
O195 O 0.11758 0.37646 0.71321 0.0
Co196 Co 0.60863 0.11339 0.75495 0.0
O197 O 0.64454 0.11538 0.74694 0.0
O198 O 0.6135 0.11302 0.71803 0.0
C199 C 0.60899 0.14507 0.78517 0.0
O200 O 0.56972 0.11171 0.75516 0.0
Co201 Co 0.5905 0.09746 0.80929 0.0
O202 O 0.55588 0.10417 0.79542 0.0
C203 C 0.61012 0.05804 0.77433 0.0
C204 C 0.63777 0.1145 0.72291 0.0
C205 C 0.55171 0.10875 0.7717 0.0
O206 O 0.61005 0.07453 0.75588 0.0
O207 O 0.60616 0.06418 0.79786 0.0
O208 O 0.60772 0.15069 0.76086 0.0
O209 O 0.61219 0.12104 0.7903 0.0
Co210 Co 0.89455 0.61502 0.75014 0.0
O211 O 0.85808 0.61468 0.75446 0.0
O212 O 0.88625 0.61299 0.78629 0.0
C213 C 0.89533 0.648 0.72204 0.0
O214 O 0.93335 0.61584 0.75375 0.0
Co215 Co 0.91969 0.60384 0.69765 0.0
O216 O 0.95257 0.61049 0.71549 0.0
C217 C 0.89786 0.56103 0.72776 0.0
C218 C 0.86258 0.61381 0.779 0.0
C219 C 0.95348 0.61396 0.73974 0.0
O220 O 0.89445 0.57623 0.74702 0.0
O221 O 0.90575 0.56859 0.70573 0.0
O222 O 0.8944 0.65232 0.74665 0.0
O223 O 0.8941 0.62411 0.71504 0.0
Co224 Co 0.25471 0.39488 0.11445 0.0
O225 O 0.26153 0.35832 0.11333 0.0
O226 O 0.29094 0.38934 0.11332 0.0
C227 C 0.22484 0.39283 0.14607 0.0
O228 O 0.25695 0.43408 0.11624 0.0
Co229 Co 0.20245 0.41861 0.10215 0.0
O230 O 0.21878 0.45227 0.11089 0.0
C231 C 0.23355 0.39724 0.06024 0.0
C232 C 0.28551 0.36494 0.11286 0.0
C233 C 0.24263 0.4539 0.11524 0.0
O234 O 0.25281 0.39567 0.07554 0.0
O235 O 0.21123 0.4035 0.06767 0.0
O236 O 0.24899 0.39328 0.1518 0.0
O237 O 0.21954 0.39226 0.12183 0.0
Co238 Co 0.25154 0.60573 0.89293 0.0
O239 O 0.24588 0.60481 0.85619 0.0
O240 O 0.2155 0.60677 0.88578 0.0
C241 C 0.28302 0.63602 0.89244 0.0
O242 O 0.24896 0.60808 0.93223 0.0
Co243 Co 0.30163 0.58864 0.91723 0.0
O244 O 0.28501 0.59437 0.95077 0.0
C245 C 0.26473 0.54885 0.90145 0.0
C246 C 0.22177 0.60582 0.86164 0.0
C247 C 0.26249 0.6029 0.95218 0.0
O248 O 0.24992 0.56681 0.89378 0.0
O249 O 0.2867 0.55353 0.9111 0.0
O250 O 0.25924 0.64252 0.89157 0.0
O251 O 0.28736 0.61153 0.89142 0.0
Co252 Co 0.3917 0.25252 0.89107 0.0
O253 O 0.35512 0.25679 0.89196 0.0
O254 O 0.38347 0.28871 0.89191 0.0
C255 C 0.39162 0.22232 0.85928 0.0
O256 O 0.43052 0.25673 0.88959 0.0
Co257 Co 0.41699 0.20097 0.90438 0.0
O258 O 0.44983 0.21949 0.89888 0.0
C259 C 0.39583 0.23272 0.94586 0.0
C260 C 0.3597 0.28141 0.89218 0.0
C261 C 0.45065 0.24326 0.89305 0.0
O262 O 0.39291 0.25145 0.93001 0.0
O263 O 0.40255 0.21018 0.93888 0.0
O264 O 0.39049 0.24664 0.85378 0.0
O265 O 0.39093 0.21683 0.88348 0.0
Co266 Co 0.75225 0.39362 0.88491 0.0
O267 O 0.7621 0.39268 0.84913 0.0
O268 O 0.78888 0.39154 0.88215 0.0
C269 C 0.71986 0.36417 0.8814 0.0
O270 O 0.74998 0.3932 0.92425 0.0
Co271 Co 0.70027 0.41257 0.90275 0.0
O272 O 0.7096 0.39917 0.93696 0.0
C273 C 0.73863 0.45062 0.88695 0.0
C274 C 0.78544 0.39183 0.85738 0.0
C275 C 0.73268 0.39387 0.94176 0.0
O276 O 0.75483 0.43245 0.88443 0.0
O277 O 0.71523 0.44666 0.89263 0.0
O278 O 0.74337 0.35707 0.88414 0.0
O279 O 0.71685 0.38876 0.87927 0.0
Co280 Co 0.61243 0.75299 0.88822 0.0
O281 O 0.64892 0.74812 0.88927 0.0
O282 O 0.61992 0.71677 0.89055 0.0
C283 C 0.61268 0.78181 0.85541 0.0
O284 O 0.57374 0.74921 0.88669 0.0
Co285 Co 0.58771 0.80542 0.89961 0.0
O286 O 0.55467 0.78696 0.89445 0.0
C287 C 0.60849 0.77527 0.94221 0.0
C288 C 0.64379 0.72363 0.89048 0.0
C289 C 0.55374 0.76296 0.88945 0.0
O290 O 0.61106 0.7558 0.92707 0.0
O291 O 0.6025 0.79769 0.93431 0.0
O292 O 0.61367 0.75727 0.8507 0.0
O293 O 0.61352 0.78828 0.8794 0.0
Co294 Co 0.75194 0.60972 0.10434 0.0
O295 O 0.74612 0.64637 0.10356 0.0
O296 O 0.71589 0.61615 0.10239 0.0
C297 C 0.78085 0.61051 0.13702 0.0
O298 O 0.74925 0.57053 0.10579 0.0
Co299 Co 0.80363 0.58602 0.0915 0.0
O300 O 0.78549 0.55216 0.09253 0.0
C301 C 0.77357 0.60854 0.05038 0.0
C302 C 0.72201 0.64043 0.10244 0.0
C303 C 0.76254 0.55067 0.10023 0.0
O304 O 0.75413 0.60893 0.06542 0.0
O305 O 0.79598 0.60322 0.05814 0.0
O306 O 0.75655 0.61091 0.14175 0.0
O307 O 0.78705 0.61162 0.11296 0.0
Co308 Co 0.39317 0.7511 0.11029 0.0
O309 O 0.35672 0.74594 0.10908 0.0
O310 O 0.38494 0.71464 0.11042 0.0
C311 C 0.39169 0.7817 0.14136 0.0
O312 O 0.43209 0.74833 0.11254 0.0
Co313 Co 0.41797 0.80367 0.09694 0.0
O314 O 0.45013 0.78758 0.10824 0.0
C315 C 0.40002 0.76947 0.05511 0.0
C316 C 0.36119 0.72149 0.11017 0.0
C317 C 0.45171 0.76348 0.11217 0.0
O318 O 0.39497 0.75154 0.07145 0.0
O319 O 0.40717 0.79225 0.06154 0.0
O320 O 0.3913 0.75746 0.14732 0.0
O321 O 0.3917 0.78679 0.11705 0.0
Co322 Co 0.60883 0.2469 0.11627 0.0
O323 O 0.64438 0.25648 0.11607 0.0
O324 O 0.61246 0.28405 0.11676 0.0
C325 C 0.61147 0.21633 0.14696 0.0
O326 O 0.56987 0.2438 0.11731 0.0
Co327 Co 0.59309 0.19163 0.09888 0.0
O328 O 0.55835 0.20275 0.10831 0.0
C329 C 0.60707 0.22987 0.05981 0.0
C330 C 0.6369 0.28014 0.11646 0.0
C331 C 0.55289 0.22585 0.11422 0.0
O332 O 0.60811 0.24729 0.07743 0.0
O333 O 0.6035 0.20594 0.06451 0.0
O334 O 0.61046 0.24051 0.15323 0.0
O335 O 0.61387 0.21177 0.12259 0.0
Co336 Co 0.89679 0.75745 0.61277 0.0
O337 O 0.86182 0.76798 0.61217 0.0
O338 O 0.89516 0.79466 0.61201 0.0
C339 C 0.89278 0.72831 0.64468 0.0
O340 O 0.93555 0.75302 0.61456 0.0
Co341 Co 0.90911 0.70095 0.59749 0.0
O342 O 0.9445 0.71152 0.60594 0.0
C343 C 0.8956 0.7377 0.55729 0.0
C344 C 0.87053 0.79143 0.61202 0.0
C345 C 0.95141 0.73437 0.61201 0.0
O346 O 0.897 0.75616 0.57382 0.0
O347 O 0.89738 0.71395 0.56327 0.0
O348 O 0.89489 0.75267 0.64995 0.0
O349 O 0.89004 0.72287 0.6205 0.0
Co350 Co 0.25513 0.89121 0.61578 0.0
O351 O 0.262 0.89077 0.65248 0.0
O352 O 0.29144 0.89079 0.62202 0.0
C353 C 0.22399 0.86018 0.61535 0.0
O354 O 0.25689 0.89037 0.57667 0.0
Co355 Co 0.20355 0.90798 0.59355 0.0
O356 O 0.22085 0.90589 0.55961 0.0
C357 C 0.23882 0.94767 0.61198 0.0
C358 C 0.28602 0.89042 0.64638 0.0
C359 C 0.2433 0.89723 0.55739 0.0
O360 O 0.25584 0.93035 0.61549 0.0
O361 O 0.21575 0.94245 0.60585 0.0
O362 O 0.24792 0.85412 0.61593 0.0
O363 O 0.21944 0.88449 0.61764 0.0
Co364 Co 0.1119 0.24657 0.60396 0.0
O365 O 0.14724 0.23718 0.60517 0.0
O366 O 0.11489 0.20955 0.60133 0.0
C367 C 0.11394 0.27465 0.63729 0.0
O368 O 0.07302 0.24898 0.60261 0.0
Co369 Co 0.0964 0.30291 0.59243 0.0
O370 O 0.06222 0.29073 0.6036 0.0
C371 C 0.11132 0.26857 0.54967 0.0
C372 C 0.13936 0.21351 0.60311 0.0
C373 C 0.05632 0.26687 0.60415 0.0
O374 O 0.11347 0.24958 0.56529 0.0
O375 O 0.1063 0.29156 0.55681 0.0
O376 O 0.11137 0.25012 0.64149 0.0
O377 O 0.11728 0.28111 0.61355 0.0
Co378 Co 0.74838 0.11613 0.61552 0.0
O379 O 0.73989 0.1171 0.65169 0.0
O380 O 0.71175 0.11547 0.61983 0.0
C381 C 0.77864 0.14753 0.61697 0.0
O382 O 0.74939 0.11542 0.57612 0.0
Co383 Co 0.80271 0.10174 0.59664 0.0
O384 O 0.79003 0.11311 0.56266 0.0
C385 C 0.76608 0.06065 0.61132 0.0
C386 C 0.71622 0.11624 0.64444 0.0
C387 C 0.76631 0.11551 0.55819 0.0
O388 O 0.74885 0.07739 0.61605 0.0
O389 O 0.78892 0.06644 0.60469 0.0
O390 O 0.75466 0.15339 0.6157 0.0
O391 O 0.78334 0.12338 0.61951 0.0
Co392 Co 0.89355 0.24953 0.38595 0.0
O393 O 0.89247 0.25573 0.34929 0.0
O394 O 0.89528 0.286 0.37933 0.0
C395 C 0.86085 0.22069 0.38655 0.0
O396 O 0.89445 0.25121 0.42522 0.0
Co397 Co 0.90617 0.19604 0.4075 0.0
O398 O 0.89666 0.21127 0.44133 0.0
C399 C 0.94753 0.22851 0.38681 0.0
C400 C 0.89355 0.28005 0.35505 0.0
C401 C 0.89445 0.23552 0.44431 0.0
O402 O 0.93196 0.24737 0.38512 0.0
O403 O 0.94026 0.20551 0.3921 0.0
O404 O 0.85649 0.24522 0.38683 0.0
O405 O 0.88443 0.21433 0.38386 0.0
Co406 Co 0.75381 0.89126 0.3903 0.0
O407 O 0.76 0.85458 0.38886 0.0
O408 O 0.78992 0.88503 0.3881 0.0
C409 C 0.72154 0.89192 0.36102 0.0
O410 O 0.75627 0.9305 0.39052 0.0
Co411 Co 0.70377 0.91445 0.40964 0.0
O412 O 0.72064 0.94856 0.40577 0.0
C413 C 0.73921 0.89259 0.44708 0.0
C414 C 0.7841 0.86068 0.38809 0.0
C415 C 0.7431 0.95024 0.3968 0.0
O416 O 0.75586 0.88994 0.42917 0.0
O417 O 0.71645 0.89994 0.44281 0.0
O418 O 0.7452 0.89175 0.35365 0.0
O419 O 0.7179 0.8896 0.38553 0.0
Co420 Co 0.11202 0.75417 0.39572 0.0
O421 O 0.11309 0.74701 0.35904 0.0
O422 O 0.1121 0.71748 0.38967 0.0
C423 C 0.14298 0.7852 0.39578 0.0
O424 O 0.11222 0.75242 0.43515 0.0
Co425 Co 0.09562 0.80496 0.41901 0.0
O426 O 0.09972 0.78934 0.45339 0.0
C427 C 0.05573 0.76888 0.40205 0.0
C428 C 0.11276 0.72281 0.3653 0.0
C429 C 0.10733 0.76635 0.45502 0.0
O430 O 0.07341 0.75365 0.39459 0.0
O431 O 0.06062 0.79079 0.41224 0.0
O432 O 0.14861 0.76094 0.39613 0.0
O433 O 0.11893 0.79031 0.39359 0.0
Co434 Co 0.25302 0.11401 0.38794 0.0
O435 O 0.24588 0.15037 0.38628 0.0
O436 O 0.21665 0.11932 0.38903 0.0
C437 C 0.28229 0.11406 0.35593 0.0
O438 O 0.25218 0.07475 0.38934 0.0
Co439 Co 0.30651 0.09319 0.40137 0.0
O440 O 0.29182 0.05907 0.39186 0.0
C441 C 0.27315 0.11239 0.44284 0.0
C442 C 0.22197 0.14376 0.38752 0.0
C443 C 0.26781 0.05589 0.38965 0.0
O444 O 0.25487 0.11572 0.42671 0.0
O445 O 0.29556 0.10544 0.43634 0.0
O446 O 0.2581 0.11283 0.35056 0.0
O447 O 0.28796 0.11691 0.37995 0.0
Co448 Co 0.61726 0.89323 0.74837 0.0
O449 O 0.61764 0.85642 0.75325 0.0
O450 O 0.61692 0.88546 0.78468 0.0
C451 C 0.64836 0.89445 0.71863 0.0
O452 O 0.61788 0.93268 0.75152 0.0
Co453 Co 0.60189 0.91816 0.69769 0.0
O454 O 0.61142 0.95154 0.71329 0.0
C455 C 0.56133 0.90098 0.73305 0.0
C456 C 0.61734 0.86143 0.77775 0.0
C457 C 0.6161 0.95287 0.73725 0.0
O458 O 0.57882 0.89215 0.74775 0.0
O459 O 0.56657 0.91238 0.71189 0.0
O460 O 0.65376 0.89358 0.743 0.0
O461 O 0.62438 0.89258 0.71265 0.0
Co462 Co 0.11183 0.6043 0.75325 0.0
O463 O 0.11373 0.64072 0.74627 0.0
O464 O 0.11091 0.61014 0.71649 0.0
C465 C 0.14387 0.60429 0.78247 0.0
O466 O 0.11038 0.56502 0.7522 0.0
Co467 Co 0.09851 0.58263 0.80687 0.0
O468 O 0.11076 0.54951 0.79243 0.0
C469 C 0.0575 0.60329 0.77431 0.0
C470 C 0.11298 0.63447 0.72206 0.0
C471 C 0.112 0.54623 0.76814 0.0
O472 O 0.07336 0.60586 0.75553 0.0
O473 O 0.06415 0.5964 0.79697 0.0
O474 O 0.1488 0.60346 0.75798 0.0
O475 O 0.12015 0.6068 0.7885 0.0
Co476 Co 0.3874 0.10993 0.75178 0.0
O477 O 0.35173 0.11127 0.74325 0.0
O478 O 0.38307 0.10841 0.7148 0.0
C479 C 0.38672 0.14277 0.78056 0.0
O480 O 0.42635 0.10862 0.75307 0.0
Co481 Co 0.40493 0.09708 0.80715 0.0
O482 O 0.43927 0.10668 0.79432 0.0
C483 C 0.38892 0.05491 0.77211 0.0
C484 C 0.35878 0.11004 0.71937 0.0
C485 C 0.44398 0.10857 0.77035 0.0
O486 O 0.38549 0.0711 0.7538 0.0
O487 O 0.39506 0.0615 0.79509 0.0
O488 O 0.38864 0.14735 0.75609 0.0
O489 O 0.38326 0.11892 0.78676 0.0
Co490 Co 0.8924 0.39593 0.74693 0.0
O491 O 0.85696 0.39347 0.75639 0.0
O492 O 0.88904 0.39713 0.78404 0.0
C493 C 0.89102 0.3635 0.71774 0.0
O494 O 0.93127 0.39813 0.74469 0.0
Co495 Co 0.90872 0.40955 0.69119 0.0
O496 O 0.94289 0.39882 0.70306 0.0
C497 C 0.89275 0.4509 0.72666 0.0
C498 C 0.86464 0.39488 0.7801 0.0
C499 C 0.94833 0.39743 0.72692 0.0
O500 O 0.89045 0.4347 0.7452 0.0
O501 O 0.89833 0.44456 0.70354 0.0
O502 O 0.89354 0.35857 0.7421 0.0
O503 O 0.88742 0.38733 0.71202 0.0
Co504 Co 0.61107 0.10404 0.25373 0.0
O505 O 0.61175 0.14046 0.24693 0.0
O506 O 0.61046 0.10994 0.21699 0.0
C507 C 0.64236 0.10457 0.28355 0.0
O508 O 0.61126 0.06475 0.2531 0.0
Co509 Co 0.59556 0.08332 0.30719 0.0
O510 O 0.60233 0.04883 0.29234 0.0
C511 C 0.55598 0.10233 0.2726 0.0
C512 C 0.61132 0.13433 0.22269 0.0
C513 C 0.60794 0.04578 0.26869 0.0
O514 O 0.5726 0.1041 0.25453 0.0
O515 O 0.56148 0.09641 0.2958 0.0
O516 O 0.64782 0.1045 0.25916 0.0
O517 O 0.61846 0.10677 0.28914 0.0
Co518 Co 0.88813 0.61285 0.24857 0.0
O519 O 0.88638 0.64929 0.25581 0.0
O520 O 0.88813 0.61851 0.28523 0.0
C521 C 0.85713 0.61209 0.21827 0.0
O522 O 0.88925 0.57351 0.24976 0.0
Co523 Co 0.9044 0.59141 0.19621 0.0
O524 O 0.90006 0.55688 0.21136 0.0
C525 C 0.94421 0.60744 0.2331 0.0
C526 C 0.88695 0.64287 0.27994 0.0
C527 C 0.89394 0.55429 0.23488 0.0
O528 O 0.9266 0.61498 0.24845 0.0
O529 O 0.93934 0.59761 0.211 0.0
O530 O 0.85145 0.61136 0.24258 0.0
O531 O 0.88106 0.61515 0.21282 0.0
Co532 Co 0.39109 0.89284 0.24933 0.0
O533 O 0.35554 0.89559 0.25791 0.0
O534 O 0.38703 0.89451 0.28636 0.0
C535 C 0.38659 0.86056 0.22051 0.0
O536 O 0.42997 0.88882 0.24733 0.0
Co537 Co 0.40883 0.90537 0.19358 0.0
O538 O 0.44286 0.89561 0.2065 0.0
C539 C 0.39466 0.94738 0.22828 0.0
C540 C 0.36267 0.8955 0.28182 0.0
C541 C 0.44749 0.88996 0.22989 0.0
O542 O 0.39414 0.93163 0.24733 0.0
O543 O 0.39758 0.94034 0.20487 0.0
O544 O 0.3869 0.85574 0.245 0.0
O545 O 0.38604 0.88467 0.21452 0.0
Co546 Co 0.10727 0.39177 0.24635 0.0
O547 O 0.10867 0.35547 0.25376 0.0
O548 O 0.10427 0.38624 0.28306 0.0
C549 C 0.14109 0.3921 0.2193 0.0
O550 O 0.10557 0.4311 0.24659 0.0
Co551 Co 0.09717 0.41232 0.19189 0.0
O552 O 0.10971 0.44572 0.20627 0.0
C553 C 0.05396 0.39263 0.2229 0.0
C554 C 0.10654 0.3619 0.2778 0.0
C555 C 0.10847 0.44966 0.23045 0.0
O556 O 0.06904 0.38945 0.24214 0.0
O557 O 0.06165 0.39979 0.20061 0.0
O558 O 0.1444 0.39346 0.24404 0.0
O559 O 0.11779 0.38886 0.21167 0.0
Co560 Co 0.75309 0.61616 0.88674 0.0
O561 O 0.74647 0.65257 0.8888 0.0
O562 O 0.71685 0.62182 0.88991 0.0
C563 C 0.78077 0.61843 0.85338 0.0
O564 O 0.75221 0.5769 0.88464 0.0
Co565 Co 0.80781 0.59572 0.89625 0.0
O566 O 0.79221 0.56188 0.88646 0.0
C567 C 0.77729 0.61414 0.93957 0.0
C568 C 0.7225 0.64626 0.89008 0.0
C569 C 0.76821 0.55834 0.88394 0.0
O570 O 0.75714 0.61401 0.92537 0.0
O571 O 0.7998 0.61229 0.93035 0.0
O572 O 0.75636 0.61837 0.84907 0.0
O573 O 0.78734 0.6195 0.87723 0.0
Co574 Co 0.74715 0.38943 0.10843 0.0
O575 O 0.75421 0.39091 0.1451 0.0
O576 O 0.78362 0.39002 0.11464 0.0
C577 C 0.71669 0.35793 0.1103 0.0
O578 O 0.74819 0.38734 0.06904 0.0
Co579 Co 0.69394 0.40315 0.08661 0.0
O580 O 0.70955 0.39616 0.05259 0.0
C581 C 0.72872 0.44472 0.1031 0.0
C582 C 0.77819 0.39077 0.13902 0.0
C583 C 0.73291 0.39041 0.0499 0.0
O584 O 0.74663 0.42835 0.10663 0.0
O585 O 0.70571 0.43832 0.0977 0.0
O586 O 0.7407 0.35217 0.11044 0.0
O587 O 0.71185 0.38219 0.11129 0.0
Co588 Co 0.61509 0.74962 0.10611 0.0
O589 O 0.65091 0.74217 0.1043 0.0
O590 O 0.6198 0.71299 0.10144 0.0
C591 C 0.61774 0.77583 0.14091 0.0
O592 O 0.5761 0.75008 0.10834 0.0
Co593 Co 0.59656 0.80558 0.09808 0.0
O594 O 0.56251 0.79103 0.10649 0.0
C595 C 0.61134 0.77453 0.05315 0.0
C596 C 0.6441 0.71821 0.10195 0.0
C597 C 0.55827 0.76695 0.1088 0.0
O598 O 0.61363 0.75462 0.06756 0.0
O599 O 0.60659 0.79704 0.06181 0.0
O600 O 0.61726 0.75102 0.14361 0.0
O601 O 0.61928 0.78384 0.11742 0.0
Co602 Co 0.24863 0.61524 0.11682 0.0
O603 O 0.24026 0.61482 0.15305 0.0
O604 O 0.21212 0.61284 0.1212 0.0
C605 C 0.27728 0.64821 0.11876 0.0
O606 O 0.24929 0.61601 0.07754 0.0
Co607 Co 0.30365 0.60397 0.09738 0.0
O608 O 0.28934 0.6113 0.06286 0.0
C609 C 0.27031 0.56118 0.11408 0.0
C610 C 0.21657 0.61357 0.1458 0.0
C611 C 0.26559 0.61442 0.05912 0.0
O612 O 0.25132 0.57647 0.11629 0.0
O613 O 0.29305 0.56864 0.10889 0.0
O614 O 0.253 0.65275 0.11821 0.0
O615 O 0.28317 0.62426 0.12056 0.0
Co616 Co 0.38899 0.25263 0.11117 0.0
O617 O 0.35398 0.26312 0.10958 0.0
O618 O 0.38729 0.28983 0.10966 0.0
C619 C 0.38475 0.22414 0.1436 0.0
O620 O 0.4277 0.24823 0.11376 0.0
Co621 Co 0.40132 0.19572 0.09725 0.0
O622 O 0.4368 0.20683 0.1048 0.0
C623 C 0.38989 0.23193 0.05592 0.0
C624 C 0.36266 0.28657 0.10929 0.0
C625 C 0.44363 0.22966 0.111 0.0
O626 O 0.39043 0.25062 0.07225 0.0
O627 O 0.39162 0.20828 0.06225 0.0
O628 O 0.38643 0.24861 0.14846 0.0
O629 O 0.38213 0.2182 0.11953 0.0
Co630 Co 0.24541 0.38392 0.89414 0.0
O631 O 0.25408 0.34783 0.89415 0.0
O632 O 0.28205 0.38011 0.89286 0.0
C633 C 0.21401 0.38139 0.86403 0.0
O634 O 0.24428 0.4232 0.8926 0.0
Co635 Co 0.19338 0.4021 0.91279 0.0
O636 O 0.20957 0.43694 0.91321 0.0
C637 C 0.23022 0.38615 0.95101 0.0
C638 C 0.27772 0.35544 0.89329 0.0
C639 C 0.23072 0.44142 0.90204 0.0
O640 O 0.24716 0.38495 0.9332 0.0
O641 O 0.20671 0.39019 0.94655 0.0
O642 O 0.23783 0.38252 0.85733 0.0
O643 O 0.20986 0.37909 0.88849 0.0
Co644 Co 0.61075 0.25409 0.89611 0.0
O645 O 0.61056 0.24731 0.85947 0.0
O646 O 0.60967 0.21738 0.88976 0.0
C647 C 0.64273 0.28405 0.89474 0.0
O648 O 0.61163 0.25264 0.93535 0.0
Co649 Co 0.59746 0.30677 0.91888 0.0
O650 O 0.60232 0.29084 0.95315 0.0
C651 C 0.55624 0.27363 0.8993 0.0
C652 C 0.60998 0.22308 0.86544 0.0
C653 C 0.60806 0.26724 0.95503 0.0
O654 O 0.57219 0.25526 0.89625 0.0
O655 O 0.5628 0.29645 0.90602 0.0
O656 O 0.64765 0.25963 0.89559 0.0
O657 O 0.61879 0.28966 0.89355 0.0
Co658 Co 0.394 0.7455 0.89078 0.0
O659 O 0.39394 0.75162 0.854 0.0
O660 O 0.3942 0.78195 0.88415 0.0
C661 C 0.36306 0.71453 0.89083 0.0
O662 O 0.39308 0.74803 0.9299 0.0
Co663 Co 0.40996 0.69407 0.91427 0.0
O664 O 0.40886 0.7124 0.94797 0.0
C665 C 0.4493 0.72802 0.89369 0.0
C666 C 0.3941 0.77597 0.85987 0.0
C667 C 0.40005 0.73501 0.9496 0.0
O668 O 0.43259 0.74576 0.89124 0.0
O669 O 0.44368 0.70488 0.89985 0.0
O670 O 0.35728 0.73876 0.89026 0.0
O671 O 0.38712 0.70956 0.88922 0.0
C672 C 0.08758 0.3237 0.30021 0.0
C673 C 0.10757 0.34213 0.29825 0.0
C674 C 0.13053 0.32098 0.33334 0.0
C675 C 0.11136 0.30136 0.33394 0.0
N676 N 0.07358 0.28183 0.31516 0.0
N677 N 0.14964 0.35691 0.31028 0.0
C678 C 0.09054 0.30198 0.31644 0.0
C679 C 0.12941 0.34054 0.31424 0.0
N680 N 0.06517 0.3277 0.2875 0.0
N681 N 0.15008 0.32073 0.35078 0.0
H682 H 0.14943 0.37164 0.29672 0.0
H683 H 0.16732 0.35492 0.31907 0.0
H684 H 0.15337 0.3054 0.36317 0.0
H685 H 0.16255 0.33619 0.35375 0.0
H686 H 0.0488 0.31649 0.29016 0.0
H687 H 0.06216 0.34395 0.27626 0.0
H688 H 0.06005 0.27976 0.30059 0.0
H689 H 0.07381 0.2663 0.32775 0.0
C690 C 0.68234 0.12499 0.34171 0.0
C691 C 0.70066 0.10509 0.34236 0.0
C692 C 0.68043 0.08441 0.30464 0.0
C693 C 0.66258 0.10472 0.30363 0.0
N694 N 0.64979 0.147 0.3174 0.0
N695 N 0.71802 0.06621 0.32459 0.0
C696 C 0.66423 0.1256 0.3213 0.0
C697 C 0.70002 0.08498 0.32371 0.0
N698 N 0.68241 0.14358 0.36043 0.0
N699 N 0.67807 0.06414 0.28787 0.0
H700 H 0.73077 0.06447 0.33982 0.0
H701 H 0.72096 0.05264 0.31019 0.0
H702 H 0.66406 0.06299 0.27368 0.0
H703 H 0.68892 0.04758 0.28859 0.0
H704 H 0.66747 0.15626 0.36328 0.0
H705 H 0.6968 0.1457 0.37412 0.0
H706 H 0.65206 0.16408 0.32771 0.0
H707 H 0.63705 0.14879 0.30213 0.0
C708 C 0.90881 0.68133 0.3384 0.0
C709 C 0.8888 0.69927 0.34099 0.0
C710 C 0.86637 0.6788 0.30449 0.0
C711 C 0.88752 0.66251 0.30066 0.0
N712 N 0.93077 0.65121 0.31086 0.0
N713 N 0.84893 0.71627 0.32583 0.0
C714 C 0.9092 0.66446 0.31687 0.0
C715 C 0.86773 0.69841 0.32374 0.0
N716 N 0.92749 0.6803 0.35659 0.0
N717 N 0.84456 0.67473 0.29052 0.0
H718 H 0.8479 0.72938 0.34103 0.0
H719 H 0.8349 0.71891 0.31195 0.0
H720 H 0.84288 0.66054 0.27634 0.0
H721 H 0.82748 0.68398 0.29419 0.0
H722 H 0.94072 0.66559 0.35766 0.0
H723 H 0.92849 0.69317 0.37184 0.0
H724 H 0.94817 0.65404 0.32016 0.0
H725 H 0.93205 0.63909 0.29491 0.0
C726 C 0.34108 0.91648 0.31951 0.0
C727 C 0.34349 0.89499 0.30279 0.0
C728 C 0.30855 0.8726 0.32533 0.0
C729 C 0.30501 0.89477 0.34084 0.0
N730 N 0.31515 0.93905 0.35082 0.0
N731 N 0.3285 0.85333 0.28801 0.0
C732 C 0.32064 0.91702 0.33754 0.0
C733 C 0.32684 0.8733 0.30514 0.0
N734 N 0.35828 0.93642 0.31809 0.0
N735 N 0.29523 0.85046 0.3307 0.0
H736 H 0.34293 0.85191 0.27434 0.0
H737 H 0.31485 0.8387 0.2864 0.0
H738 H 0.28158 0.8492 0.34523 0.0
H739 H 0.29894 0.83274 0.3222 0.0
H740 H 0.35947 0.95125 0.33158 0.0
H741 H 0.37256 0.93745 0.30418 0.0
H742 H 0.32391 0.95677 0.34739 0.0
H743 H 0.30027 0.94019 0.36404 0.0
C744 C 0.13572 0.65613 0.68518 0.0
C745 C 0.11436 0.65449 0.7018 0.0
C746 C 0.09863 0.69538 0.68526 0.0
C747 C 0.11841 0.69584 0.66654 0.0
N748 N 0.15585 0.67619 0.64825 0.0
N749 N 0.07245 0.66876 0.7129 0.0
C750 C 0.13684 0.67591 0.66621 0.0
C751 C 0.09506 0.67314 0.70061 0.0
N752 N 0.15557 0.63966 0.68844 0.0
N753 N 0.08315 0.71603 0.68872 0.0
H754 H 0.0687 0.65174 0.72281 0.0
H755 H 0.05656 0.68035 0.7106 0.0
H756 H 0.08284 0.73195 0.67667 0.0
H757 H 0.07103 0.71776 0.70449 0.0
H758 H 0.17299 0.64161 0.67907 0.0
H759 H 0.1554 0.62496 0.70205 0.0
H760 H 0.16748 0.66052 0.64459 0.0
H761 H 0.15966 0.69184 0.63633 0.0
C762 C 0.32007 0.1327 0.66173 0.0
C763 C 0.30052 0.11341 0.66087 0.0
C764 C 0.321 0.09082 0.69673 0.0
C765 C 0.33964 0.11071 0.69841 0.0
N766 N 0.35513 0.15251 0.68549 0.0
N767 N 0.28002 0.07644 0.68076 0.0
C768 C 0.33886 0.13207 0.68155 0.0
C769 C 0.30019 0.09327 0.6794 0.0
N770 N 0.32036 0.1521 0.644 0.0
N771 N 0.32393 0.06884 0.71079 0.0
H772 H 0.26566 0.07508 0.667 0.0
H773 H 0.27697 0.06419 0.69631 0.0
H774 H 0.33909 0.06613 0.72345 0.0
H775 H 0.31277 0.05231 0.70815 0.0
H776 H 0.33598 0.16426 0.64099 0.0
H777 H 0.3052 0.15579 0.63165 0.0
H778 H 0.35373 0.17002 0.67598 0.0
H779 H 0.36911 0.15281 0.69978 0.0
C780 C 0.9127 0.30811 0.67476 0.0
C781 C 0.89138 0.3054 0.65803 0.0
C782 C 0.86905 0.33911 0.68213 0.0
C783 C 0.89104 0.343 0.69769 0.0
N784 N 0.93472 0.3332 0.70749 0.0
N785 N 0.84984 0.31946 0.64429 0.0
C786 C 0.91305 0.3279 0.69377 0.0
C787 C 0.86981 0.32139 0.66115 0.0
N788 N 0.93269 0.29167 0.67251 0.0
N789 N 0.84688 0.35118 0.68845 0.0
H790 H 0.84825 0.30516 0.63025 0.0
H791 H 0.8353 0.33285 0.64326 0.0
H792 H 0.84533 0.36375 0.70405 0.0
H793 H 0.82938 0.34711 0.67983 0.0
H794 H 0.94715 0.29008 0.68611 0.0
H795 H 0.93427 0.27859 0.65744 0.0
H796 H 0.95244 0.32546 0.70339 0.0
H797 H 0.93541 0.34677 0.72219 0.0
C798 C 0.70584 0.91591 0.67901 0.0
C799 C 0.70917 0.89426 0.66266 0.0
C800 C 0.67121 0.87357 0.68156 0.0
C801 C 0.6689 0.89459 0.69899 0.0
N802 N 0.68681 0.93358 0.71746 0.0
N803 N 0.6983 0.85027 0.65198 0.0
C804 C 0.68715 0.915 0.69875 0.0
C805 C 0.69262 0.87253 0.66479 0.0
N806 N 0.71957 0.93796 0.6748 0.0
N807 N 0.65327 0.85424 0.68133 0.0
H808 H 0.71428 0.84838 0.64026 0.0
H809 H 0.68869 0.83288 0.65484 0.0
H810 H 0.63884 0.85253 0.69497 0.0
H811 H 0.65192 0.84046 0.66677 0.0
H812 H 0.71589 0.95541 0.68389 0.0
H813 H 0.73315 0.93941 0.66039 0.0
H814 H 0.70156 0.9469 0.72023 0.0
H815 H 0.67259 0.93483 0.73136 0.0
C816 C 0.34004 0.13415 0.31609 0.0
C817 C 0.34265 0.11245 0.29967 0.0
C818 C 0.30605 0.09137 0.32048 0.0
C819 C 0.30241 0.1137 0.33582 0.0
N820 N 0.31294 0.15804 0.34521 0.0
N821 N 0.32689 0.07146 0.28399 0.0
C822 C 0.31869 0.13553 0.3329 0.0
C823 C 0.32517 0.09144 0.30111 0.0
N824 N 0.35793 0.15352 0.31558 0.0
N825 N 0.2921 0.0696 0.32536 0.0
H826 H 0.34176 0.06967 0.27085 0.0
H827 H 0.31285 0.05729 0.28178 0.0
H828 H 0.27801 0.06901 0.33932 0.0
H829 H 0.29573 0.05171 0.31717 0.0
H830 H 0.35891 0.16824 0.32921 0.0
H831 H 0.3729 0.15413 0.30242 0.0
H832 H 0.32235 0.17545 0.34181 0.0
H833 H 0.29717 0.16 0.35722 0.0
C834 C 0.87179 0.30046 0.31688 0.0
C835 C 0.89217 0.30028 0.33495 0.0
C836 C 0.90486 0.34337 0.32116 0.0
C837 C 0.88783 0.34187 0.29985 0.0
N838 N 0.85355 0.31879 0.27831 0.0
N839 N 0.93179 0.31923 0.34969 0.0
C840 C 0.87105 0.32015 0.29779 0.0
C841 C 0.90992 0.32095 0.33555 0.0
N842 N 0.85222 0.28296 0.31896 0.0
N843 N 0.91451 0.3664 0.3294 0.0
H844 H 0.93661 0.30275 0.35992 0.0
H845 H 0.94634 0.33306 0.3488 0.0
H846 H 0.90617 0.38357 0.32423 0.0
H847 H 0.92643 0.36828 0.34539 0.0
H848 H 0.83553 0.28382 0.30815 0.0
H849 H 0.8514 0.26888 0.33316 0.0
H850 H 0.8437 0.30193 0.27343 0.0
H851 H 0.84904 0.33445 0.26678 0.0
C852 C 0.68295 0.91101 0.33939 0.0
C853 C 0.70002 0.89017 0.34223 0.0
C854 C 0.67604 0.86544 0.30953 0.0
C855 C 0.6594 0.88655 0.30635 0.0
N856 N 0.64788 0.93023 0.316 0.0
N857 N 0.71055 0.84598 0.33354 0.0
C858 C 0.66285 0.90943 0.32096 0.0
C859 C 0.69603 0.86698 0.32812 0.0
N860 N 0.68587 0.93229 0.35458 0.0
N861 N 0.67295 0.84407 0.2943 0.0
H862 H 0.72523 0.84628 0.34706 0.0
H863 H 0.70714 0.82765 0.3261 0.0
H864 H 0.65746 0.84141 0.28193 0.0
H865 H 0.68611 0.82934 0.29296 0.0
H866 H 0.67262 0.94691 0.35622 0.0
H867 H 0.70145 0.93477 0.36658 0.0
H868 H 0.65115 0.94858 0.32342 0.0
H869 H 0.63267 0.92966 0.30308 0.0
C870 C 0.0907 0.66421 0.32654 0.0
C871 C 0.11102 0.66152 0.30875 0.0
C872 C 0.13363 0.69795 0.32953 0.0
C873 C 0.11219 0.70201 0.34557 0.0
N874 N 0.0687 0.69177 0.35672 0.0
N875 N 0.15162 0.67636 0.29236 0.0
C876 C 0.09034 0.68577 0.34349 0.0
C877 C 0.1324 0.67863 0.30994 0.0
N878 N 0.07168 0.6461 0.32732 0.0
N879 N 0.15557 0.71183 0.33379 0.0
H880 H 0.15276 0.66107 0.27937 0.0
H881 H 0.16595 0.69014 0.28985 0.0
H882 H 0.15714 0.72608 0.34792 0.0
H883 H 0.17281 0.70804 0.32478 0.0
H884 H 0.05797 0.64518 0.34177 0.0
H885 H 0.07083 0.63067 0.31461 0.0
H886 H 0.0512 0.68251 0.35391 0.0
H887 H 0.06753 0.70769 0.36889 0.0
C888 C 0.33109 0.91138 0.70066 0.0
C889 C 0.34627 0.88913 0.70322 0.0
C890 C 0.32269 0.8681 0.66783 0.0
C891 C 0.3065 0.88978 0.66627 0.0
N892 N 0.29365 0.93118 0.68237 0.0
N893 N 0.3549 0.84512 0.69196 0.0
C894 C 0.31017 0.9111 0.68315 0.0
C895 C 0.34175 0.86721 0.68741 0.0
N896 N 0.33742 0.9332 0.71418 0.0
N897 N 0.3198 0.8483 0.6506 0.0
H898 H 0.36907 0.84384 0.70598 0.0
H899 H 0.35068 0.82752 0.68324 0.0
H900 H 0.30487 0.84716 0.63737 0.0
H901 H 0.33284 0.83354 0.64846 0.0
H902 H 0.32908 0.951 0.71123 0.0
H903 H 0.35254 0.93415 0.72719 0.0
H904 H 0.29311 0.94579 0.69611 0.0
H905 H 0.27938 0.93257 0.66857 0.0
C906 C 0.13557 0.32797 0.68347 0.0
C907 C 0.11259 0.33269 0.69698 0.0
C908 C 0.09142 0.29729 0.67351 0.0
C909 C 0.11366 0.29411 0.65834 0.0
N910 N 0.15653 0.30751 0.64739 0.0
N911 N 0.06765 0.32464 0.70238 0.0
C912 C 0.13556 0.30991 0.66278 0.0
C913 C 0.09028 0.31799 0.69143 0.0
N914 N 0.15776 0.33965 0.6914 0.0
N915 N 0.07132 0.28053 0.67088 0.0
H916 H 0.06613 0.33973 0.71544 0.0
H917 H 0.05008 0.31682 0.69694 0.0
H918 H 0.07079 0.26596 0.65715 0.0
H919 H 0.05591 0.27984 0.68347 0.0
H920 H 0.17565 0.33489 0.68436 0.0
H921 H 0.15871 0.35263 0.70674 0.0
H922 H 0.1716 0.32073 0.64727 0.0
H923 H 0.15845 0.29294 0.63372 0.0
C924 C 0.69024 0.13871 0.67794 0.0
C925 C 0.69526 0.11606 0.66359 0.0
C926 C 0.66088 0.09307 0.68641 0.0
C927 C 0.65707 0.11521 0.70201 0.0
N928 N 0.6691 0.1585 0.71438 0.0
N929 N 0.68775 0.0709 0.6556 0.0
C930 C 0.67209 0.13785 0.6983 0.0
C931 C 0.68108 0.09306 0.66806 0.0
N932 N 0.70217 0.16131 0.67138 0.0
N933 N 0.64529 0.07197 0.68927 0.0
H934 H 0.70217 0.07023 0.64184 0.0
H935 H 0.68031 0.0528 0.65998 0.0
H936 H 0.63145 0.07053 0.70358 0.0
H937 H 0.64501 0.05635 0.67668 0.0
H938 H 0.69749 0.17915 0.67907 0.0
H939 H 0.71559 0.16265 0.65664 0.0
H940 H 0.68151 0.17426 0.71495 0.0
H941 H 0.65483 0.15941 0.72829 0.0
C942 C 0.87382 0.68866 0.66538 0.0
C943 C 0.89305 0.70826 0.66514 0.0
C944 C 0.91339 0.68867 0.70295 0.0
C945 C 0.89421 0.66922 0.70307 0.0
N946 N 0.85293 0.6541 0.68884 0.0
N947 N 0.92906 0.7292 0.68621 0.0
C948 C 0.87364 0.67 0.68536 0.0
C949 C 0.91207 0.70906 0.6848 0.0
N950 N 0.8552 0.68821 0.64693 0.0
N951 N 0.93368 0.68695 0.71938 0.0
H952 H 0.93195 0.74246 0.67152 0.0
H953 H 0.94022 0.73318 0.70236 0.0
H954 H 0.93504 0.67285 0.73349 0.0
H955 H 0.95008 0.69834 0.71804 0.0
H956 H 0.84345 0.6723 0.64337 0.0
H957 H 0.85168 0.70351 0.63459 0.0
H958 H 0.83603 0.65548 0.67846 0.0
H959 H 0.85147 0.64096 0.70389 0.0
C960 C 0.31138 0.33311 0.08799 0.0
C961 C 0.30599 0.34556 0.11171 0.0
C962 C 0.3403 0.3218 0.13296 0.0
C963 C 0.34484 0.30847 0.10951 0.0
N964 N 0.33431 0.29972 0.06516 0.0
N965 N 0.3167 0.35472 0.15593 0.0
C966 C 0.3303 0.31372 0.08712 0.0
C967 C 0.32093 0.34078 0.13396 0.0
N968 N 0.2993 0.34088 0.06606 0.0
N969 N 0.35365 0.31523 0.15457 0.0
H970 H 0.3019 0.3678 0.15772 0.0
H971 H 0.3283 0.35438 0.17215 0.0
H972 H 0.36829 0.30186 0.15442 0.0
H973 H 0.34979 0.32201 0.17298 0.0
H974 H 0.30386 0.33454 0.04764 0.0
H975 H 0.2858 0.35539 0.06597 0.0
H976 H 0.32244 0.30006 0.04912 0.0
H977 H 0.34914 0.28668 0.0633 0.0
C978 C 0.34001 0.6777 0.91251 0.0
C979 C 0.34308 0.69383 0.89074 0.0
C980 C 0.30822 0.67017 0.86889 0.0
C981 C 0.30389 0.6557 0.89165 0.0
N982 N 0.31247 0.64936 0.93663 0.0
N983 N 0.32905 0.70685 0.84856 0.0
C984 C 0.31906 0.66034 0.91378 0.0
C985 C 0.32678 0.69054 0.86904 0.0
N986 N 0.35711 0.67895 0.93221 0.0
N987 N 0.29524 0.6638 0.84688 0.0
H988 H 0.34355 0.72065 0.84705 0.0
H989 H 0.31586 0.70764 0.83361 0.0
H990 H 0.28153 0.6491 0.84611 0.0
H991 H 0.29929 0.67164 0.82892 0.0
H992 H 0.35811 0.66539 0.94688 0.0
H993 H 0.37138 0.69277 0.93289 0.0
H994 H 0.32069 0.65429 0.95426 0.0
H995 H 0.29677 0.63729 0.93826 0.0
C996 C 0.31446 0.33382 0.9151 0.0
C997 C 0.29884 0.33666 0.89298 0.0
C998 C 0.32198 0.30208 0.87103 0.0
C999 C 0.33867 0.30036 0.89252 0.0
N1000 N 0.35231 0.31552 0.93435 0.0
N1001 N 0.28926 0.32615 0.8488 0.0
C1002 C 0.33541 0.31662 0.91432 0.0
C1003 C 0.30292 0.32138 0.87069 0.0
N1004 N 0.30851 0.34673 0.93725 0.0
N1005 N 0.32435 0.28523 0.8509 0.0
H1006 H 0.27512 0.34003 0.84786 0.0
H1007 H 0.29308 0.31782 0.831 0.0
H1008 H 0.33914 0.27211 0.84941 0.0
H1009 H 0.31094 0.28318 0.83624 0.0
H1010 H 0.31717 0.34347 0.95494 0.0
H1011 H 0.29344 0.35956 0.9385 0.0
H1012 H 0.35303 0.32888 0.94931 0.0
H1013 H 0.36665 0.30187 0.93549 0.0
C1014 C 0.68215 0.301 0.87156 0.0
C1015 C 0.66298 0.30412 0.89068 0.0
C1016 C 0.67572 0.34928 0.8949 0.0
C1017 C 0.69828 0.34489 0.88071 0.0
N1018 N 0.72214 0.31613 0.85347 0.0
N1019 N 0.64649 0.33032 0.92511 0.0
C1020 C 0.70142 0.32045 0.86867 0.0
C1021 C 0.66129 0.32798 0.90375 0.0
N1022 N 0.68101 0.28061 0.85486 0.0
N1023 N 0.66671 0.37349 0.89836 0.0
H1024 H 0.63757 0.31448 0.93345 0.0
H1025 H 0.64615 0.34708 0.93622 0.0
H1026 H 0.67293 0.38869 0.88697 0.0
H1027 H 0.64978 0.37718 0.9081 0.0
H1028 H 0.69302 0.27878 0.83903 0.0
H1029 H 0.66639 0.26689 0.85491 0.0
H1030 H 0.7274 0.29782 0.84738 0.0
H1031 H 0.73427 0.33085 0.8472 0.0
C1032 C 0.69928 0.68231 0.86861 0.0
C1033 C 0.70245 0.66621 0.89042 0.0
C1034 C 0.66853 0.68933 0.91312 0.0
C1035 C 0.66428 0.70422 0.8907 0.0
N1036 N 0.67296 0.71301 0.84603 0.0
N1037 N 0.68936 0.65282 0.93283 0.0
C1038 C 0.67908 0.70035 0.86821 0.0
C1039 C 0.68677 0.66921 0.91248 0.0
N1040 N 0.71556 0.68033 0.84817 0.0
N1041 N 0.65584 0.69518 0.93533 0.0
H1042 H 0.70358 0.63903 0.93383 0.0
H1043 H 0.67672 0.65189 0.94821 0.0
H1044 H 0.64229 0.70965 0.93642 0.0
H1045 H 0.65989 0.68713 0.95315 0.0
H1046 H 0.71655 0.69367 0.8333 0.0
H1047 H 0.7292 0.66603 0.84656 0.0
H1048 H 0.68088 0.70892 0.82815 0.0
H1049 H 0.65844 0.72646 0.84496 0.0
C1050 C 0.67688 0.69253 0.12506 0.0
C1051 C 0.66345 0.69771 0.10195 0.0
C1052 C 0.68759 0.6644 0.07934 0.0
C1053 C 0.70217 0.66045 0.10204 0.0
N1054 N 0.71282 0.67224 0.14574 0.0
N1055 N 0.65768 0.69135 0.05638 0.0
C1056 C 0.69749 0.67505 0.12464 0.0
C1057 C 0.66915 0.6843 0.07889 0.0
N1058 N 0.66917 0.70353 0.14767 0.0
N1059 N 0.69138 0.64907 0.05826 0.0
H1060 H 0.64391 0.70562 0.05546 0.0
H1061 H 0.66292 0.68444 0.03835 0.0
H1062 H 0.70568 0.63536 0.05734 0.0
H1063 H 0.67957 0.64889 0.04216 0.0
H1064 H 0.67617 0.69843 0.16567 0.0
H1065 H 0.65413 0.71637 0.1488 0.0
H1066 H 0.7126 0.68456 0.16158 0.0
H1067 H 0.727 0.65844 0.14691 0.0
C1068 C 0.32059 0.70177 0.09339 0.0
C1069 C 0.33988 0.70256 0.11249 0.0
C1070 C 0.31725 0.66879 0.13666 0.0
C1071 C 0.29735 0.66879 0.11797 0.0
N1072 N 0.27719 0.6905 0.08228 0.0
N1073 N 0.35413 0.69084 0.15495 0.0
C1074 C 0.29802 0.68698 0.0976 0.0
C1075 C 0.33765 0.68706 0.13482 0.0
N1076 N 0.32446 0.714 0.07047 0.0
N1077 N 0.31642 0.65168 0.15658 0.0
H1078 H 0.36907 0.70425 0.15458 0.0
H1079 H 0.35185 0.68233 0.17291 0.0
H1080 H 0.30033 0.64057 0.16095 0.0
H1081 H 0.33195 0.64795 0.16842 0.0
H1082 H 0.31239 0.71182 0.05465 0.0
H1083 H 0.34123 0.72411 0.06634 0.0
H1084 H 0.27574 0.70577 0.06945 0.0
H1085 H 0.26062 0.6794 0.08334 0.0
C1086 C 0.68925 0.32779 0.13638 0.0
C1087 C 0.69608 0.33805 0.11202 0.0
C1088 C 0.66109 0.31348 0.09166 0.0
C1089 C 0.65577 0.30154 0.11554 0.0
N1090 N 0.66591 0.29504 0.16027 0.0
N1091 N 0.69153 0.33727 0.06593 0.0
C1092 C 0.67019 0.30805 0.13783 0.0
C1093 C 0.68272 0.33005 0.08952 0.0
N1094 N 0.7006 0.33735 0.15819 0.0
N1095 N 0.64547 0.30897 0.07099 0.0
H1096 H 0.70778 0.3486 0.06393 0.0
H1097 H 0.68449 0.33004 0.04858 0.0
H1098 H 0.62982 0.29642 0.07162 0.0
H1099 H 0.64673 0.31913 0.0538 0.0
H1100 H 0.69458 0.33283 0.17672 0.0
H1101 H 0.71508 0.35128 0.15781 0.0
H1102 H 0.67768 0.2966 0.17636 0.0
H1103 H 0.65127 0.28145 0.16238 0.0
C1104 C 0.59257 0.82904 0.80319 0.0
C1105 C 0.61636 0.84053 0.79697 0.0
C1106 C 0.63798 0.81141 0.82678 0.0
C1107 C 0.61392 0.80148 0.83468 0.0
N1108 N 0.56816 0.80362 0.8334 0.0
N1109 N 0.66153 0.84502 0.80427 0.0
C1110 C 0.59117 0.81101 0.82362 0.0
C1111 C 0.63905 0.83238 0.80918 0.0
N1112 N 0.57128 0.83517 0.78939 0.0
N1113 N 0.6598 0.80045 0.83575 0.0
H1114 H 0.66312 0.85985 0.79087 0.0
H1115 H 0.67823 0.84206 0.8146 0.0
H1116 H 0.65972 0.78539 0.84897 0.0
H1117 H 0.67789 0.8049 0.82877 0.0
H1118 H 0.55396 0.82532 0.79098 0.0
H1119 H 0.57135 0.8489 0.77482 0.0
H1120 H 0.55092 0.81195 0.8284 0.0
H1121 H 0.56668 0.79049 0.84826 0.0
C1122 C 0.19702 0.58248 0.82735 0.0
C1123 C 0.20215 0.60555 0.84115 0.0
C1124 C 0.16853 0.62754 0.81717 0.0
C1125 C 0.16432 0.60482 0.80232 0.0
N1126 N 0.17668 0.56176 0.79078 0.0
N1127 N 0.19582 0.65096 0.84725 0.0
C1128 C 0.1793 0.58265 0.80662 0.0
C1129 C 0.18865 0.62833 0.83562 0.0
N1130 N 0.20829 0.56011 0.83483 0.0
N1131 N 0.15334 0.64842 0.81359 0.0
H1132 H 0.21036 0.65221 0.86093 0.0
H1133 H 0.1888 0.66885 0.84209 0.0
H1134 H 0.13989 0.64955 0.79888 0.0
H1135 H 0.15313 0.66424 0.82593 0.0
H1136 H 0.20315 0.54204 0.82767 0.0
H1137 H 0.22151 0.55925 0.84979 0.0
H1138 H 0.18903 0.54625 0.79079 0.0
H1139 H 0.16303 0.56068 0.77634 0.0
C1140 C 0.41119 0.17616 0.80586 0.0
C1141 C 0.38768 0.16367 0.80015 0.0
C1142 C 0.36623 0.19137 0.8317 0.0
C1143 C 0.39023 0.20194 0.8391 0.0
N1144 N 0.43594 0.2002 0.8371 0.0
N1145 N 0.34291 0.15756 0.80896 0.0
C1146 C 0.41281 0.19319 0.82722 0.0
C1147 C 0.36521 0.17069 0.81355 0.0
N1148 N 0.43198 0.17205 0.79073 0.0
N1149 N 0.34439 0.20152 0.84156 0.0
H1150 H 0.34106 0.14338 0.79478 0.0
H1151 H 0.32661 0.15962 0.82012 0.0
H1152 H 0.34446 0.21626 0.85526 0.0
H1153 H 0.32623 0.1967 0.83492 0.0
H1154 H 0.44889 0.18266 0.79229 0.0
H1155 H 0.43151 0.15966 0.775 0.0
H1156 H 0.45312 0.19237 0.8311 0.0
H1157 H 0.43756 0.2119 0.85323 0.0
C1158 C 0.84198 0.41525 0.81744 0.0
C1159 C 0.8461 0.39342 0.80157 0.0
C1160 C 0.81079 0.37033 0.82268 0.0
C1161 C 0.80718 0.39184 0.83915 0.0
N1162 N 0.82123 0.43343 0.85494 0.0
N1163 N 0.83804 0.34865 0.79198 0.0
C1164 C 0.82351 0.41381 0.83749 0.0
C1165 C 0.83147 0.37052 0.80499 0.0
N1166 N 0.85467 0.43783 0.81238 0.0
N1167 N 0.7943 0.34977 0.82385 0.0
H1168 H 0.85326 0.34801 0.77911 0.0
H1169 H 0.82995 0.33062 0.79546 0.0
H1170 H 0.78009 0.34805 0.83777 0.0
H1171 H 0.79377 0.335 0.81027 0.0
H1172 H 0.85043 0.4553 0.82111 0.0
H1173 H 0.86838 0.43962 0.79797 0.0
H1174 H 0.8344 0.44848 0.85675 0.0
H1175 H 0.80697 0.43398 0.86886 0.0
C1176 C 0.63145 0.17701 0.16626 0.0
C1177 C 0.6116 0.19545 0.16657 0.0
C1178 C 0.59134 0.17297 0.2029 0.0
C1179 C 0.6111 0.15463 0.20264 0.0
N1180 N 0.64901 0.13748 0.1833 0.0
N1181 N 0.57589 0.21421 0.18906 0.0
C1182 C 0.63082 0.15609 0.18399 0.0
C1183 C 0.59256 0.19443 0.18605 0.0
N1184 N 0.65214 0.18091 0.15065 0.0
N1185 N 0.57032 0.16885 0.21798 0.0
H1186 H 0.57396 0.22919 0.17602 0.0
H1187 H 0.56451 0.21644 0.20531 0.0
H1188 H 0.56818 0.15291 0.22993 0.0
H1189 H 0.55381 0.17968 0.21674 0.0
H1190 H 0.66844 0.16977 0.15095 0.0
H1191 H 0.65433 0.19689 0.13878 0.0
H1192 H 0.66186 0.13514 0.16828 0.0
H1193 H 0.6507 0.12332 0.19732 0.0
C1194 C 0.83225 0.58896 0.18392 0.0
C1195 C 0.83709 0.61178 0.19805 0.0
C1196 C 0.80336 0.63348 0.17371 0.0
C1197 C 0.80034 0.61117 0.15797 0.0
N1198 N 0.8153 0.56925 0.14562 0.0
N1199 N 0.82917 0.65677 0.20529 0.0
C1200 C 0.81589 0.58947 0.1623 0.0
C1201 C 0.82307 0.63435 0.19273 0.0
N1202 N 0.84223 0.56629 0.19198 0.0
N1203 N 0.7875 0.65386 0.1704 0.0
H1204 H 0.8431 0.65792 0.21961 0.0
H1205 H 0.82171 0.67457 0.20049 0.0
H1206 H 0.77416 0.65472 0.15555 0.0
H1207 H 0.78659 0.66938 0.18307 0.0
H1208 H 0.83714 0.54838 0.18434 0.0
H1209 H 0.85338 0.56522 0.20835 0.0
H1210 H 0.82852 0.55447 0.14568 0.0
H1211 H 0.80254 0.56835 0.13055 0.0
C1212 C 0.36916 0.81894 0.16204 0.0
C1213 C 0.39028 0.80219 0.16131 0.0
C1214 C 0.40652 0.82093 0.20157 0.0
C1215 C 0.38718 0.83981 0.20076 0.0
N1216 N 0.35004 0.85728 0.17985 0.0
N1217 N 0.43169 0.7911 0.17707 0.0
C1218 C 0.36861 0.83909 0.18073 0.0
C1219 C 0.40953 0.80409 0.18031 0.0
N1220 N 0.34893 0.81467 0.14587 0.0
N1221 N 0.42232 0.81897 0.2224 0.0
H1222 H 0.43487 0.77992 0.16082 0.0
H1223 H 0.44773 0.79383 0.18865 0.0
H1224 H 0.42338 0.83239 0.23726 0.0
H1225 H 0.43403 0.8032 0.22534 0.0
H1226 H 0.33173 0.82431 0.14731 0.0
H1227 H 0.34839 0.79987 0.13228 0.0
H1228 H 0.33838 0.86006 0.1639 0.0
H1229 H 0.34673 0.87031 0.19472 0.0
C1230 C 0.19892 0.41462 0.18046 0.0
C1231 C 0.2043 0.39218 0.1659 0.0
C1232 C 0.16831 0.36947 0.18661 0.0
C1233 C 0.16293 0.39209 0.20102 0.0
N1234 N 0.17517 0.43484 0.21477 0.0
N1235 N 0.19355 0.3487 0.15339 0.0
C1236 C 0.17892 0.41421 0.1989 0.0
C1237 C 0.18882 0.3697 0.16854 0.0
N1238 N 0.21182 0.43694 0.17528 0.0
N1239 N 0.15474 0.34733 0.19142 0.0
H1240 H 0.20938 0.34748 0.14135 0.0
H1241 H 0.18145 0.33278 0.15175 0.0
H1242 H 0.14 0.34626 0.20481 0.0
H1243 H 0.15897 0.32944 0.18363 0.0
H1244 H 0.20705 0.45491 0.1826 0.0
H1245 H 0.22625 0.43776 0.16174 0.0
H1246 H 0.18801 0.45014 0.21683 0.0
H1247 H 0.15978 0.43603 0.22723 0.0
C1248 C 0.80272 0.59614 0.81646 0.0
C1249 C 0.80028 0.6181 0.83263 0.0
C1250 C 0.83778 0.63804 0.8121 0.0
C1251 C 0.84149 0.61509 0.79779 0.0
N1252 N 0.82978 0.57116 0.78817 0.0
N1253 N 0.81577 0.65974 0.84681 0.0
C1254 C 0.82448 0.59387 0.80034 0.0
C1255 C 0.81796 0.63896 0.83075 0.0
N1256 N 0.78418 0.57749 0.81641 0.0
N1257 N 0.85252 0.65933 0.80704 0.0
H1258 H 0.80016 0.66247 0.85888 0.0
H1259 H 0.82986 0.67386 0.84901 0.0
H1260 H 0.86736 0.65934 0.79372 0.0
H1261 H 0.849 0.67753 0.81454 0.0
H1262 H 0.78332 0.56237 0.80323 0.0
H1263 H 0.76837 0.57828 0.82832 0.0
H1264 H 0.81982 0.55403 0.79138 0.0
H1265 H 0.84559 0.56883 0.77628 0.0
C1266 C 0.41611 0.83482 0.82245 0.0
C1267 C 0.39629 0.83729 0.804 0.0
C1268 C 0.37417 0.79978 0.82298 0.0
C1269 C 0.39508 0.79628 0.83989 0.0
N1270 N 0.43804 0.80729 0.85253 0.0
N1271 N 0.35686 0.82125 0.78554 0.0
C1272 C 0.41659 0.81298 0.8388 0.0
C1273 C 0.37551 0.81937 0.80383 0.0
N1274 N 0.43442 0.85353 0.82464 0.0
N1275 N 0.35249 0.78522 0.8261 0.0
H1276 H 0.35555 0.83671 0.77291 0.0
H1277 H 0.34319 0.80695 0.78211 0.0
H1278 H 0.35083 0.77074 0.83986 0.0
H1279 H 0.33548 0.78862 0.81648 0.0
H1280 H 0.4475 0.85455 0.83972 0.0
H1281 H 0.43526 0.8692 0.81241 0.0
H1282 H 0.45539 0.81695 0.85026 0.0
H1283 H 0.43931 0.79128 0.86448 0.0
C1284 C 0.17568 0.40048 0.8421 0.0
C1285 C 0.19318 0.37998 0.84445 0.0
C1286 C 0.17189 0.35749 0.80843 0.0
C1287 C 0.15627 0.37923 0.80458 0.0
N1288 N 0.14573 0.42306 0.81515 0.0
N1289 N 0.20895 0.33926 0.82921 0.0
C1290 C 0.15861 0.40106 0.82087 0.0
C1291 C 0.19159 0.35857 0.82737 0.0
N1292 N 0.17539 0.41957 0.86012 0.0
N1293 N 0.16719 0.33545 0.79465 0.0
H1294 H 0.22228 0.33819 0.84406 0.0
H1295 H 0.211 0.32488 0.8154 0.0
H1296 H 0.15275 0.33393 0.78088 0.0
H1297 H 0.17603 0.31803 0.79823 0.0
H1298 H 0.16098 0.43308 0.86159 0.0
H1299 H 0.18874 0.42075 0.87476 0.0
H1300 H 0.14909 0.44063 0.82432 0.0
H1301 H 0.13314 0.42452 0.79972 0.0
C1302 C 0.63238 0.17132 0.8187 0.0
C1303 C 0.60922 0.16516 0.80571 0.0
C1304 C 0.5863 0.19551 0.83349 0.0
C1305 C 0.60969 0.20282 0.84526 0.0
N1306 N 0.65541 0.20044 0.84745 0.0
N1307 N 0.56472 0.17331 0.79844 0.0
C1308 C 0.63286 0.19142 0.83747 0.0
C1309 C 0.58635 0.17789 0.81242 0.0
N1310 N 0.65393 0.15787 0.81313 0.0
N1311 N 0.56395 0.20483 0.84304 0.0
H1312 H 0.56392 0.15978 0.78369 0.0
H1313 H 0.54815 0.18394 0.80023 0.0
H1314 H 0.56325 0.21784 0.85834 0.0
H1315 H 0.546 0.19831 0.83724 0.0
H1316 H 0.6706 0.15913 0.82394 0.0
H1317 H 0.65483 0.14421 0.79841 0.0
H1318 H 0.67322 0.19518 0.84058 0.0
H1319 H 0.65642 0.21468 0.86164 0.0
C1320 C 0.83043 0.36789 0.18455 0.0
C1321 C 0.83674 0.39113 0.19773 0.0
C1322 C 0.80589 0.41446 0.17115 0.0
C1323 C 0.79847 0.39095 0.15911 0.0
N1324 N 0.80097 0.34479 0.15634 0.0
N1325 N 0.82878 0.43598 0.20597 0.0
C1326 C 0.81005 0.36752 0.16633 0.0
C1327 C 0.82386 0.41424 0.1918 0.0
N1328 N 0.84412 0.3462 0.1893 0.0
N1329 N 0.79648 0.4371 0.16208 0.0
H1330 H 0.84261 0.43687 0.22037 0.0
H1331 H 0.81813 0.45268 0.20467 0.0
H1332 H 0.78354 0.43789 0.14687 0.0
H1333 H 0.80288 0.45519 0.1681 0.0
H1334 H 0.84268 0.32948 0.17828 0.0
H1335 H 0.85815 0.3453 0.2035 0.0
H1336 H 0.80648 0.32678 0.16283 0.0
H1337 H 0.78643 0.34383 0.14264 0.0
C1338 C 0.63557 0.83353 0.18297 0.0
C1339 C 0.61699 0.83168 0.20288 0.0
C1340 C 0.60044 0.79128 0.18368 0.0
C1341 C 0.61836 0.79384 0.16331 0.0
N1342 N 0.65777 0.81244 0.14803 0.0
N1343 N 0.58447 0.80644 0.22466 0.0
C1344 C 0.63714 0.81372 0.16406 0.0
C1345 C 0.60046 0.8097 0.20412 0.0
N1346 N 0.65242 0.85383 0.18249 0.0
N1347 N 0.58242 0.77201 0.18292 0.0
H1348 H 0.58041 0.82079 0.23797 0.0
H1349 H 0.57557 0.78904 0.22921 0.0
H1350 H 0.5811 0.75832 0.16831 0.0
H1351 H 0.56709 0.77057 0.1955 0.0
H1352 H 0.66308 0.85881 0.16633 0.0
H1353 H 0.65565 0.86609 0.19809 0.0
H1354 H 0.67355 0.82472 0.14922 0.0
H1355 H 0.66064 0.79729 0.13518 0.0
C1356 C 0.17147 0.59133 0.19906 0.0
C1357 C 0.15678 0.61382 0.20272 0.0
C1358 C 0.17942 0.63502 0.1671 0.0
C1359 C 0.19551 0.61335 0.16488 0.0
N1360 N 0.20831 0.57147 0.17945 0.0
N1361 N 0.14844 0.65813 0.19272 0.0
C1362 C 0.19199 0.5917 0.18114 0.0
C1363 C 0.16104 0.63589 0.18725 0.0
N1364 N 0.16504 0.56926 0.21192 0.0
N1365 N 0.18177 0.65485 0.15 0.0
H1366 H 0.13487 0.65951 0.20729 0.0
H1367 H 0.15267 0.67578 0.18423 0.0
H1368 H 0.19602 0.65581 0.13607 0.0
H1369 H 0.16871 0.66968 0.14851 0.0
H1370 H 0.17308 0.55143 0.20818 0.0
H1371 H 0.15009 0.56817 0.22506 0.0
H1372 H 0.20898 0.55661 0.1928 0.0
H1373 H 0.22224 0.57011 0.16526 0.0
C1374 C 0.36748 0.1848 0.16609 0.0
C1375 C 0.38657 0.20438 0.16417 0.0
C1376 C 0.41102 0.18373 0.19859 0.0
C1377 C 0.39141 0.165 0.20138 0.0
N1378 N 0.3485 0.15076 0.1918 0.0
N1379 N 0.42416 0.22526 0.1824 0.0
C1380 C 0.369 0.16625 0.18612 0.0
C1381 C 0.40745 0.20486 0.18175 0.0
N1382 N 0.34751 0.18416 0.14916 0.0
N1383 N 0.43381 0.18047 0.21082 0.0
H1384 H 0.42475 0.23976 0.16868 0.0
H1385 H 0.43719 0.22823 0.1973 0.0
H1386 H 0.43733 0.16481 0.22267 0.0
H1387 H 0.44997 0.19173 0.20722 0.0
H1388 H 0.33524 0.16838 0.14708 0.0
H1389 H 0.34361 0.199 0.13638 0.0
H1390 H 0.33063 0.15266 0.18337 0.0
H1391 H 0.3485 0.13744 0.20675 0.0
C1392 C 0.84948 0.82912 0.59108 0.0
C1393 C 0.8527 0.8133 0.61302 0.0
C1394 C 0.81883 0.83645 0.6356 0.0
C1395 C 0.81379 0.85031 0.61275 0.0
N1396 N 0.82239 0.85874 0.56797 0.0
N1397 N 0.84022 0.80078 0.65592 0.0
C1398 C 0.8288 0.8466 0.59034 0.0
C1399 C 0.83732 0.81669 0.63523 0.0
N1400 N 0.86603 0.82723 0.57087 0.0
N1401 N 0.80654 0.84286 0.65789 0.0
H1402 H 0.85487 0.78749 0.65732 0.0
H1403 H 0.82749 0.79984 0.67123 0.0
H1404 H 0.79296 0.8573 0.65887 0.0
H1405 H 0.81118 0.83548 0.67586 0.0
H1406 H 0.86653 0.84006 0.55555 0.0
H1407 H 0.88059 0.81379 0.57016 0.0
H1408 H 0.83057 0.8547 0.5502 0.0
H1409 H 0.80746 0.87171 0.56667 0.0
C1410 C 0.8354 0.18548 0.36488 0.0
C1411 C 0.83981 0.20125 0.38685 0.0
C1412 C 0.80261 0.18172 0.40817 0.0
C1413 C 0.79984 0.16405 0.38743 0.0
N1414 N 0.8141 0.14812 0.34624 0.0
N1415 N 0.82983 0.21222 0.43073 0.0
C1416 C 0.81648 0.16559 0.36588 0.0
C1417 C 0.82387 0.19893 0.40877 0.0
N1418 N 0.8484 0.19039 0.34258 0.0
N1419 N 0.7849 0.18211 0.42738 0.0
H1420 H 0.84529 0.22481 0.43184 0.0
H1421 H 0.82097 0.20916 0.44839 0.0
H1422 H 0.7697 0.16918 0.42812 0.0
H1423 H 0.78408 0.19641 0.44143 0.0
H1424 H 0.84417 0.18156 0.32504 0.0
H1425 H 0.8621 0.205 0.34093 0.0
H1426 H 0.82768 0.14588 0.33184 0.0
H1427 H 0.799 0.13496 0.34482 0.0
C1428 C 0.82098 0.8393 0.40998 0.0
C1429 C 0.80427 0.84082 0.38845 0.0
C1430 C 0.82766 0.8062 0.36683 0.0
C1431 C 0.84326 0.80362 0.389 0.0
N1432 N 0.85283 0.81487 0.43302 0.0
N1433 N 0.78988 0.82442 0.34737 0.0
C1434 C 0.83954 0.81954 0.41088 0.0
C1435 C 0.80701 0.82378 0.36721 0.0
N1436 N 0.81904 0.8567 0.4297 0.0
N1437 N 0.83331 0.79261 0.34501 0.0
H1438 H 0.77561 0.83811 0.34602 0.0
H1439 H 0.78881 0.81055 0.33289 0.0
H1440 H 0.84841 0.77979 0.34398 0.0
H1441 H 0.82451 0.79543 0.32731 0.0
H1442 H 0.83262 0.85887 0.44419 0.0
H1443 H 0.80445 0.87003 0.43102 0.0
H1444 H 0.84895 0.82359 0.45062 0.0
H1445 H 0.86668 0.80074 0.43441 0.0
C1446 C 0.16731 0.8228 0.41503 0.0
C1447 C 0.16333 0.80554 0.39418 0.0
C1448 C 0.19937 0.82605 0.37127 0.0
C1449 C 0.20459 0.84153 0.3933 0.0
N1450 N 0.19716 0.84979 0.43817 0.0
N1451 N 0.17661 0.78936 0.35276 0.0
C1452 C 0.18946 0.83865 0.41566 0.0
C1453 C 0.17978 0.80668 0.37241 0.0
N1454 N 0.14991 0.82425 0.43438 0.0
N1455 N 0.21246 0.83053 0.34896 0.0
H1456 H 0.1613 0.77642 0.3518 0.0
H1457 H 0.18975 0.78697 0.33799 0.0
H1458 H 0.22703 0.84429 0.34752 0.0
H1459 H 0.20779 0.82198 0.3314 0.0
H1460 H 0.15018 0.83856 0.44848 0.0
H1461 H 0.13393 0.81247 0.43495 0.0
H1462 H 0.1886 0.84628 0.45591 0.0
H1463 H 0.21419 0.85991 0.43944 0.0
C1464 C 0.19806 0.17853 0.36482 0.0
C1465 C 0.20161 0.16333 0.38715 0.0
C1466 C 0.16552 0.18455 0.40815 0.0
C1467 C 0.163 0.20088 0.38643 0.0
N1468 N 0.17822 0.21549 0.34511 0.0
N1469 N 0.1916 0.15416 0.43145 0.0
C1470 C 0.17978 0.19856 0.36512 0.0
C1471 C 0.18601 0.16684 0.40916 0.0
N1472 N 0.2113 0.17294 0.34286 0.0
N1473 N 0.14836 0.18604 0.42787 0.0
H1474 H 0.20649 0.14116 0.43298 0.0
H1475 H 0.18289 0.1579 0.44903 0.0
H1476 H 0.13426 0.19996 0.42882 0.0
H1477 H 0.14712 0.17265 0.44268 0.0
H1478 H 0.20763 0.18125 0.32507 0.0
H1479 H 0.22472 0.15836 0.34182 0.0
H1480 H 0.19187 0.21702 0.33066 0.0
H1481 H 0.16398 0.2292 0.34358 0.0
C1482 C 0.18008 0.15772 0.62529 0.0
C1483 C 0.19731 0.15575 0.60436 0.0
C1484 C 0.17546 0.19059 0.58186 0.0
C1485 C 0.15786 0.1922 0.60254 0.0
N1486 N 0.14074 0.17512 0.64212 0.0
N1487 N 0.20887 0.16645 0.5608 0.0
C1488 C 0.15923 0.17492 0.6236 0.0
C1489 C 0.19431 0.17114 0.58209 0.0
N1490 N 0.1845 0.14419 0.64736 0.0
N1491 N 0.17427 0.20783 0.56208 0.0
H1492 H 0.22276 0.1523 0.56023 0.0
H1493 H 0.20591 0.17502 0.54299 0.0
H1494 H 0.15957 0.22098 0.56008 0.0
H1495 H 0.18841 0.20998 0.5482 0.0
H1496 H 0.17453 0.14692 0.66443 0.0
H1497 H 0.19951 0.13139 0.64932 0.0
H1498 H 0.13892 0.16112 0.6563 0.0
H1499 H 0.12602 0.18838 0.64245 0.0
C1500 C 0.80273 0.18197 0.59262 0.0
C1501 C 0.79959 0.16704 0.61531 0.0
C1502 C 0.83723 0.1884 0.63451 0.0
C1503 C 0.84111 0.20204 0.61124 0.0
N1504 N 0.8306 0.20902 0.56672 0.0
N1505 N 0.81469 0.15442 0.6573 0.0
C1506 C 0.82466 0.19809 0.58991 0.0
C1507 C 0.81722 0.16967 0.63602 0.0
N1508 N 0.7847 0.18092 0.57367 0.0
N1509 N 0.85191 0.19428 0.65557 0.0
H1510 H 0.79899 0.14237 0.66046 0.0
H1511 H 0.82866 0.15282 0.67142 0.0
H1512 H 0.86697 0.20756 0.65506 0.0
H1513 H 0.84825 0.1874 0.67399 0.0
H1514 H 0.78421 0.19349 0.55814 0.0
H1515 H 0.76904 0.16856 0.57433 0.0
H1516 H 0.82111 0.20468 0.54961 0.0
H1517 H 0.84658 0.22083 0.56401 0.0
C1518 C 0.18692 0.83649 0.59426 0.0
C1519 C 0.20327 0.84014 0.61588 0.0
C1520 C 0.18062 0.80523 0.63867 0.0
C1521 C 0.16469 0.80144 0.61679 0.0
N1522 N 0.15453 0.81053 0.57258 0.0
N1523 N 0.2136 0.83085 0.66006 0.0
C1524 C 0.16814 0.81649 0.59437 0.0
C1525 C 0.19966 0.82512 0.63843 0.0
N1526 N 0.18916 0.85247 0.57365 0.0
N1527 N 0.17777 0.7894 0.65949 0.0
H1528 H 0.2275 0.84535 0.66068 0.0
H1529 H 0.21049 0.82258 0.67798 0.0
H1530 H 0.16309 0.77576 0.66097 0.0
H1531 H 0.19039 0.78879 0.6749 0.0
H1532 H 0.17602 0.85349 0.55868 0.0
H1533 H 0.20383 0.86582 0.57225 0.0
H1534 H 0.15821 0.81837 0.55456 0.0
H1535 H 0.14044 0.79621 0.57192 0.0
C1536 C 0.08894 0.25601 0.48166 0.0
C1537 C 0.1105 0.26453 0.46748 0.0
C1538 C 0.1344 0.27175 0.50751 0.0
C1539 C 0.11271 0.26353 0.52166 0.0
N1540 N 0.07188 0.24171 0.52261 0.0
N1541 N 0.15521 0.27514 0.46582 0.0
C1542 C 0.09085 0.25349 0.50882 0.0
C1543 C 0.13378 0.27062 0.48011 0.0
N1544 N 0.06624 0.2517 0.46932 0.0
N1545 N 0.15528 0.28123 0.52033 0.0
H1546 H 0.15516 0.27446 0.44573 0.0
H1547 H 0.17333 0.27753 0.47369 0.0
H1548 H 0.15676 0.28095 0.54037 0.0
H1549 H 0.17064 0.29028 0.51134 0.0
H1550 H 0.04907 0.24843 0.47883 0.0
H1551 H 0.06417 0.25323 0.44943 0.0
H1552 H 0.05663 0.2318 0.51419 0.0
H1553 H 0.07246 0.23983 0.54257 0.0
C1554 C 0.74902 0.13482 0.51727 0.0
C1555 C 0.75824 0.11323 0.53088 0.0
C1556 C 0.76049 0.08903 0.49049 0.0
C1557 C 0.75807 0.11226 0.47682 0.0
N1558 N 0.74407 0.15597 0.47584 0.0
N1559 N 0.77017 0.06849 0.53097 0.0
C1560 C 0.75025 0.13481 0.48981 0.0
C1561 C 0.76282 0.08979 0.51765 0.0
N1562 N 0.73873 0.15484 0.53057 0.0
N1563 N 0.75974 0.06626 0.47735 0.0
H1564 H 0.77068 0.06786 0.55102 0.0
H1565 H 0.77678 0.05184 0.52215 0.0
H1566 H 0.75645 0.06559 0.45754 0.0
H1567 H 0.75922 0.04834 0.48624 0.0
H1568 H 0.73064 0.17081 0.52194 0.0
H1569 H 0.73601 0.15416 0.55041 0.0
H1570 H 0.74123 0.17413 0.48374 0.0
H1571 H 0.74144 0.15489 0.45599 0.0
C1572 C 0.91287 0.75217 0.48809 0.0
C1573 C 0.89039 0.7433 0.47548 0.0
C1574 C 0.86931 0.73662 0.517 0.0
C1575 C 0.89234 0.74382 0.52965 0.0
N1576 N 0.93392 0.76406 0.52816 0.0
N1577 N 0.84564 0.73331 0.47673 0.0
C1578 C 0.91335 0.7537 0.51545 0.0
C1579 C 0.86802 0.73762 0.48964 0.0
N1580 N 0.93421 0.75756 0.4739 0.0
N1581 N 0.84899 0.72816 0.53124 0.0
H1582 H 0.84442 0.73424 0.45669 0.0
H1583 H 0.82805 0.73089 0.48565 0.0
H1584 H 0.84887 0.72877 0.55132 0.0
H1585 H 0.83258 0.71987 0.52339 0.0
H1586 H 0.95218 0.76092 0.4818 0.0
H1587 H 0.93425 0.75761 0.45383 0.0
H1588 H 0.94876 0.7739 0.5191 0.0
H1589 H 0.93539 0.76449 0.54815 0.0
C1590 C 0.25108 0.87093 0.4902 0.0
C1591 C 0.2554 0.89451 0.47741 0.0
C1592 C 0.26403 0.91594 0.51852 0.0
C1593 C 0.25345 0.89419 0.53111 0.0
N1594 N 0.24069 0.84955 0.5304 0.0
N1595 N 0.27245 0.93749 0.47778 0.0
C1596 C 0.24861 0.87101 0.51742 0.0
C1597 C 0.2643 0.91639 0.49114 0.0
N1598 N 0.24972 0.84869 0.4762 0.0
N1599 N 0.27355 0.93592 0.53291 0.0
H1600 H 0.27469 0.93695 0.45782 0.0
H1601 H 0.27723 0.95512 0.48612 0.0
H1602 H 0.27425 0.93519 0.55298 0.0
H1603 H 0.28218 0.95231 0.52528 0.0
H1604 H 0.24792 0.83046 0.48427 0.0
H1605 H 0.25307 0.84848 0.4564 0.0
H1606 H 0.23383 0.8329 0.52144 0.0
H1607 H 0.24054 0.84871 0.55046 0.0
C1608 C 0.08842 0.73642 0.51877 0.0
C1609 C 0.11168 0.73849 0.53272 0.0
C1610 C 0.13245 0.75857 0.49537 0.0
C1611 C 0.10959 0.75511 0.48105 0.0
N1612 N 0.06698 0.7377 0.4774 0.0
N1613 N 0.15664 0.74838 0.53387 0.0
C1614 C 0.08796 0.743 0.49224 0.0
C1615 C 0.13394 0.74875 0.52091 0.0
N1616 N 0.06642 0.72955 0.53124 0.0
N1617 N 0.1525 0.77174 0.48469 0.0
H1618 H 0.15835 0.74143 0.55259 0.0
H1619 H 0.17409 0.75318 0.52558 0.0
H1620 H 0.1525 0.77796 0.46562 0.0
H1621 H 0.16856 0.77773 0.49496 0.0
H1622 H 0.0484 0.73066 0.52296 0.0
H1623 H 0.06577 0.72477 0.5507 0.0
H1624 H 0.05175 0.72624 0.48348 0.0
H1625 H 0.06559 0.74318 0.45818 0.0
C1626 C 0.28082 0.1349 0.48477 0.0
C1627 C 0.26804 0.11521 0.47073 0.0
C1628 C 0.25146 0.09693 0.51094 0.0
C1629 C 0.26796 0.11372 0.52504 0.0
N1630 N 0.29643 0.1505 0.52608 0.0
N1631 N 0.24147 0.07698 0.46983 0.0
C1632 C 0.28193 0.13341 0.51211 0.0
C1633 C 0.253 0.09638 0.4836 0.0
N1634 N 0.29144 0.15523 0.47182 0.0
N1635 N 0.23433 0.08146 0.52353 0.0
H1636 H 0.24131 0.07628 0.44978 0.0
H1637 H 0.2334 0.06064 0.4782 0.0
H1638 H 0.23264 0.08087 0.54344 0.0
H1639 H 0.22004 0.07091 0.51421 0.0
H1640 H 0.29928 0.17145 0.48073 0.0
H1641 H 0.2905 0.15685 0.45182 0.0
H1642 H 0.3096 0.16324 0.51802 0.0
H1643 H 0.29575 0.15153 0.54613 0.0
C1644 C 0.8755 0.27113 0.50633 0.0
C1645 C 0.89345 0.2607 0.52377 0.0
C1646 C 0.91414 0.23807 0.48819 0.0
C1647 C 0.89455 0.24591 0.47116 0.0
N1648 N 0.85568 0.26934 0.46412 0.0
N1649 N 0.92795 0.23138 0.53198 0.0
C1650 C 0.87507 0.26249 0.48019 0.0
C1651 C 0.91205 0.24317 0.51493 0.0
N1652 N 0.85892 0.2894 0.51477 0.0
N1653 N 0.93575 0.22728 0.47853 0.0
H1654 H 0.92838 0.23544 0.55161 0.0
H1655 H 0.93954 0.21606 0.52689 0.0
H1656 H 0.93875 0.22479 0.45889 0.0
H1657 H 0.9519 0.22371 0.48955 0.0
H1658 H 0.84756 0.30021 0.50257 0.0
H1659 H 0.85742 0.2948 0.53406 0.0
H1660 H 0.83917 0.27831 0.47034 0.0
H1661 H 0.85536 0.26502 0.44457 0.0
C1662 C 0.73094 0.86878 0.48802 0.0
C1663 C 0.74596 0.88695 0.47423 0.0
C1664 C 0.76084 0.90631 0.51464 0.0
C1665 C 0.74476 0.88905 0.52842 0.0
N1666 N 0.72052 0.84944 0.52926 0.0
N1667 N 0.78221 0.91599 0.47447 0.0
C1668 C 0.73176 0.86877 0.51538 0.0
C1669 C 0.76338 0.90329 0.48756 0.0
N1670 N 0.71548 0.85196 0.47481 0.0
N1671 N 0.77225 0.9267 0.527 0.0
H1672 H 0.78507 0.9137 0.45478 0.0
H1673 H 0.79675 0.92643 0.48353 0.0
H1674 H 0.77078 0.92989 0.54675 0.0
H1675 H 0.78152 0.94164 0.51736 0.0
H1676 H 0.70164 0.8404 0.48347 0.0
H1677 H 0.71609 0.85018 0.45479 0.0
H1678 H 0.71251 0.83293 0.52103 0.0
H1679 H 0.72124 0.84886 0.54933 0.0
C1680 C 0.49029 0.08474 0.24702 0.0
C1681 C 0.47799 0.10894 0.24814 0.0
C1682 C 0.51685 0.12895 0.26592 0.0
C1683 C 0.52877 0.10462 0.26554 0.0
N1684 N 0.5254 0.05851 0.26137 0.0
N1685 N 0.47729 0.15256 0.26399 0.0
C1686 C 0.51503 0.08224 0.25779 0.0
C1687 C 0.49057 0.13062 0.25927 0.0
N1688 N 0.47844 0.06417 0.23538 0.0
N1689 N 0.53079 0.15049 0.27215 0.0
H1690 H 0.45794 0.15412 0.25993 0.0
H1691 H 0.48473 0.16827 0.27413 0.0
H1692 H 0.54981 0.14979 0.27795 0.0
H1693 H 0.52411 0.16912 0.26991 0.0
H1694 H 0.48758 0.04703 0.23104 0.0
H1695 H 0.45974 0.06459 0.22862 0.0
H1696 H 0.51539 0.04129 0.25866 0.0
H1697 H 0.54344 0.05593 0.26932 0.0
C1698 C 0.87135 0.51419 0.25032 0.0
C1699 C 0.8944 0.52797 0.24562 0.0
C1700 C 0.91917 0.48895 0.25241 0.0
C1701 C 0.89614 0.47496 0.25659 0.0
N1702 N 0.85077 0.47404 0.26332 0.0
N1703 N 0.94017 0.53055 0.24781 0.0
C1704 C 0.87229 0.48751 0.25655 0.0
C1705 C 0.91831 0.51591 0.2483 0.0
N1706 N 0.84864 0.52662 0.24855 0.0
N1707 N 0.94185 0.47628 0.25171 0.0
H1708 H 0.94016 0.55044 0.24515 0.0
H1709 H 0.95814 0.52361 0.25227 0.0
H1710 H 0.94348 0.45678 0.25589 0.0
H1711 H 0.95891 0.48457 0.24551 0.0
H1712 H 0.83094 0.51741 0.24837 0.0
H1713 H 0.84751 0.54654 0.24698 0.0
H1714 H 0.83301 0.48225 0.26596 0.0
H1715 H 0.85087 0.45446 0.26765 0.0
C1716 C 0.51591 0.89961 0.25275 0.0
C1717 C 0.52842 0.88044 0.23803 0.0
C1718 C 0.4872 0.8645 0.22186 0.0
C1719 C 0.47452 0.88387 0.2363 0.0
N1720 N 0.47637 0.91579 0.27025 0.0
N1721 N 0.52595 0.84078 0.21417 0.0
C1722 C 0.48872 0.89985 0.25357 0.0
C1723 C 0.51394 0.86154 0.22457 0.0
N1724 N 0.52989 0.91886 0.26425 0.0
N1725 N 0.4739 0.84967 0.20454 0.0
H1726 H 0.54561 0.83853 0.2153 0.0
H1727 H 0.5164 0.82481 0.20653 0.0
H1728 H 0.45424 0.85053 0.20235 0.0
H1729 H 0.48245 0.83764 0.19111 0.0
H1730 H 0.52189 0.93529 0.27221 0.0
H1731 H 0.54974 0.9194 0.26434 0.0
H1732 H 0.48556 0.92577 0.28509 0.0
H1733 H 0.45666 0.91749 0.27082 0.0
C1734 C 0.08711 0.51908 0.24122 0.0
C1735 C 0.10666 0.52864 0.25763 0.0
C1736 C 0.12606 0.48587 0.25853 0.0
C1737 C 0.10793 0.47685 0.24001 0.0
N1738 N 0.07244 0.48613 0.21166 0.0
N1739 N 0.14707 0.52277 0.27856 0.0
C1740 C 0.08898 0.4939 0.2306 0.0
C1741 C 0.12676 0.51246 0.2654 0.0
N1742 N 0.0659 0.53352 0.23692 0.0
N1743 N 0.14244 0.46913 0.2699 0.0
H1744 H 0.14823 0.54215 0.2838 0.0
H1745 H 0.16373 0.51276 0.28223 0.0
H1746 H 0.1433 0.4497 0.26519 0.0
H1747 H 0.15389 0.47405 0.28559 0.0
H1748 H 0.04954 0.52645 0.22784 0.0
H1749 H 0.06354 0.55194 0.24451 0.0
H1750 H 0.06094 0.49878 0.20155 0.0
H1751 H 0.07103 0.46736 0.2048 0.0
C1752 C 0.48831 0.90121 0.73101 0.0
C1753 C 0.48182 0.89613 0.75709 0.0
C1754 C 0.52723 0.89685 0.76789 0.0
C1755 C 0.53394 0.89829 0.74132 0.0
N1756 N 0.51865 0.89184 0.69757 0.0
N1757 N 0.49678 0.8788 0.79751 0.0
C1758 C 0.51385 0.89745 0.72278 0.0
C1759 C 0.50178 0.89064 0.77464 0.0
N1760 N 0.47081 0.91074 0.71421 0.0
N1761 N 0.54426 0.90276 0.787 0.0
H1762 H 0.47875 0.87176 0.80224 0.0
H1763 H 0.5112 0.87286 0.8099 0.0
H1764 H 0.56236 0.91039 0.78379 0.0
H1765 H 0.53898 0.90346 0.80634 0.0
H1766 H 0.4757 0.91649 0.69562 0.0
H1767 H 0.45245 0.91583 0.71957 0.0
H1768 H 0.50413 0.88945 0.68401 0.0
H1769 H 0.53642 0.88594 0.69105 0.0
C1770 C 0.13126 0.48502 0.73164 0.0
C1771 C 0.11365 0.467 0.74224 0.0
C1772 C 0.09329 0.50161 0.76667 0.0
C1773 C 0.11228 0.51929 0.75805 0.0
N1774 N 0.15011 0.52791 0.73292 0.0
N1775 N 0.07925 0.4575 0.77188 0.0
C1776 C 0.13137 0.51108 0.7405 0.0
C1777 C 0.09523 0.47508 0.7605 0.0
N1778 N 0.14786 0.4772 0.71298 0.0
N1779 N 0.07223 0.51045 0.77924 0.0
H1780 H 0.07782 0.43827 0.76636 0.0
H1781 H 0.06829 0.46167 0.78802 0.0
H1782 H 0.06945 0.52981 0.78334 0.0
H1783 H 0.05621 0.49914 0.78319 0.0
H1784 H 0.15888 0.48974 0.70194 0.0
H1785 H 0.14985 0.45798 0.7076 0.0
H1786 H 0.16647 0.52246 0.72313 0.0
H1787 H 0.15006 0.54743 0.73735 0.0
C1788 C 0.48446 0.12813 0.75223 0.0
C1789 C 0.47112 0.10664 0.7626 0.0
C1790 C 0.51135 0.08371 0.76685 0.0
C1791 C 0.52476 0.10712 0.76283 0.0
N1792 N 0.52507 0.15069 0.74729 0.0
N1793 N 0.47127 0.06256 0.77706 0.0
C1794 C 0.51164 0.12902 0.75377 0.0
C1795 C 0.48441 0.08386 0.76877 0.0
N1796 N 0.47121 0.14734 0.74067 0.0
N1797 N 0.52457 0.06128 0.76802 0.0
H1798 H 0.45142 0.06134 0.77698 0.0
H1799 H 0.47996 0.0465 0.78491 0.0
H1800 H 0.5442 0.06086 0.76496 0.0
H1801 H 0.51603 0.04313 0.76897 0.0
H1802 H 0.47972 0.16285 0.73125 0.0
H1803 H 0.45151 0.14641 0.73824 0.0
H1804 H 0.51677 0.16843 0.74389 0.0
H1805 H 0.54484 0.15089 0.74559 0.0
C1806 C 0.91737 0.51839 0.73685 0.0
C1807 C 0.89525 0.53294 0.73173 0.0
C1808 C 0.86991 0.49314 0.72727 0.0
C1809 C 0.89207 0.47876 0.73256 0.0
N1810 N 0.9348 0.47735 0.7494 0.0
N1811 N 0.84968 0.535 0.72703 0.0
C1812 C 0.9151 0.49133 0.73977 0.0
C1813 C 0.87118 0.52055 0.72868 0.0
N1814 N 0.94076 0.53028 0.73768 0.0
N1815 N 0.84798 0.48057 0.72013 0.0
H1816 H 0.85017 0.55508 0.72744 0.0
H1817 H 0.8313 0.52723 0.72716 0.0
H1818 H 0.84628 0.46054 0.72013 0.0
H1819 H 0.83191 0.48982 0.7132 0.0
H1820 H 0.95786 0.52038 0.73849 0.0
H1821 H 0.94327 0.55007 0.73543 0.0
H1822 H 0.95124 0.48565 0.75726 0.0
H1823 H 0.93369 0.45746 0.75186 0.0
C1824 C 0.26238 0.52046 0.13883 0.0
C1825 C 0.26542 0.53313 0.11487 0.0
C1826 C 0.26036 0.49202 0.09197 0.0
C1827 C 0.25463 0.47994 0.11565 0.0
N1828 N 0.26056 0.47966 0.16142 0.0
N1829 N 0.26709 0.5317 0.06843 0.0
C1830 C 0.25848 0.4933 0.13915 0.0
C1831 C 0.26464 0.51905 0.09136 0.0
N1832 N 0.26302 0.53444 0.16117 0.0
N1833 N 0.26334 0.4772 0.07043 0.0
H1834 H 0.27125 0.55132 0.06716 0.0
H1835 H 0.26354 0.52323 0.05058 0.0
H1836 H 0.2625 0.45716 0.07112 0.0
H1837 H 0.26944 0.48421 0.05272 0.0
H1838 H 0.25804 0.52695 0.17904 0.0
H1839 H 0.26718 0.55412 0.16164 0.0
H1840 H 0.26476 0.48783 0.17926 0.0
H1841 H 0.26161 0.45967 0.16126 0.0
C1842 C 0.22969 0.51465 0.90303 0.0
C1843 C 0.25581 0.52142 0.89967 0.0
C1844 C 0.26605 0.47555 0.90063 0.0
C1845 C 0.23968 0.46883 0.89981 0.0
N1846 N 0.19713 0.48412 0.89049 0.0
N1847 N 0.2973 0.50657 0.88603 0.0
C1848 C 0.22167 0.489 0.89796 0.0
C1849 C 0.27357 0.50137 0.89557 0.0
N1850 N 0.21258 0.53187 0.91244 0.0
N1851 N 0.28398 0.45811 0.90764 0.0
H1852 H 0.30287 0.52478 0.87965 0.0
H1853 H 0.31003 0.49206 0.88125 0.0
H1854 H 0.27953 0.43975 0.91435 0.0
H1855 H 0.30312 0.46322 0.9101 0.0
H1856 H 0.19379 0.52665 0.91667 0.0
H1857 H 0.21771 0.55004 0.91937 0.0
H1858 H 0.18413 0.49879 0.88732 0.0
H1859 H 0.19089 0.46613 0.88405 0.0
C1860 C 0.48614 0.26553 0.91631 0.0
C1861 C 0.47609 0.2561 0.89278 0.0
C1862 C 0.51793 0.26195 0.87225 0.0
C1863 C 0.52861 0.26787 0.89674 0.0
N1864 N 0.52355 0.27302 0.9427 0.0
N1865 N 0.48074 0.24818 0.84751 0.0
C1866 C 0.51285 0.26931 0.91892 0.0
C1867 C 0.49154 0.2552 0.87043 0.0
N1868 N 0.46995 0.2715 0.93597 0.0
N1869 N 0.53287 0.26368 0.85075 0.0
H1870 H 0.46105 0.24712 0.84511 0.0
H1871 H 0.49098 0.2437 0.83099 0.0
H1872 H 0.55217 0.26869 0.8515 0.0
H1873 H 0.52612 0.26153 0.83203 0.0
H1874 H 0.47575 0.28068 0.95288 0.0
H1875 H 0.4502 0.26973 0.93421 0.0
H1876 H 0.51344 0.27113 0.95983 0.0
H1877 H 0.54304 0.2759 0.94558 0.0
C1878 C 0.74327 0.5205 0.86457 0.0
C1879 C 0.75855 0.53121 0.88462 0.0
C1880 C 0.76372 0.48844 0.90352 0.0
C1881 C 0.74742 0.47773 0.88441 0.0
N1882 N 0.72017 0.48326 0.84751 0.0
N1883 N 0.77473 0.52669 0.92765 0.0
C1884 C 0.73672 0.49372 0.86514 0.0
C1885 C 0.76648 0.51549 0.90529 0.0
N1886 N 0.73525 0.53577 0.84493 0.0
N1887 N 0.7765 0.47296 0.92023 0.0
H1888 H 0.774 0.5465 0.93044 0.0
H1889 H 0.77863 0.51644 0.94437 0.0
H1890 H 0.77486 0.45299 0.92018 0.0
H1891 H 0.79063 0.47988 0.93266 0.0
H1892 H 0.72717 0.5288 0.82794 0.0
H1893 H 0.73706 0.5557 0.84545 0.0
H1894 H 0.70924 0.49405 0.83491 0.0
H1895 H 0.71662 0.46352 0.84604 0.0
C1896 C 0.49207 0.73411 0.91443 0.0
C1897 C 0.47666 0.73511 0.89188 0.0
C1898 C 0.51367 0.74907 0.86648 0.0
C1899 C 0.5284 0.75009 0.88933 0.0
N1900 N 0.53443 0.73699 0.93322 0.0
N1901 N 0.47184 0.74473 0.84678 0.0
C1902 C 0.5184 0.74066 0.91281 0.0
C1903 C 0.4872 0.74291 0.86796 0.0
N1904 N 0.48122 0.72832 0.93767 0.0
N1905 N 0.52548 0.75222 0.84329 0.0
H1906 H 0.45273 0.73897 0.84676 0.0
H1907 H 0.47752 0.75325 0.82959 0.0
H1908 H 0.54522 0.75395 0.84177 0.0
H1909 H 0.51644 0.75003 0.82557 0.0
H1910 H 0.4905 0.73045 0.95527 0.0
H1911 H 0.46213 0.72305 0.93982 0.0
H1912 H 0.52914 0.72791 0.95023 0.0
H1913 H 0.55395 0.74087 0.93229 0.0
C1914 C 0.73839 0.51388 0.08064 0.0
C1915 C 0.7507 0.52478 0.10242 0.0
C1916 C 0.74438 0.48447 0.1262 0.0
C1917 C 0.73533 0.47255 0.10328 0.0
N1918 N 0.72547 0.47517 0.05786 0.0
N1919 N 0.76553 0.52129 0.14614 0.0
C1920 C 0.73256 0.48711 0.08032 0.0
C1921 C 0.75365 0.51032 0.12533 0.0
N1922 N 0.73188 0.52928 0.06045 0.0
N1923 N 0.74305 0.47141 0.14897 0.0
H1924 H 0.77033 0.54079 0.14694 0.0
H1925 H 0.77141 0.51098 0.16217 0.0
H1926 H 0.73601 0.45259 0.15029 0.0
H1927 H 0.74702 0.47971 0.16681 0.0
H1928 H 0.72058 0.52311 0.04508 0.0
H1929 H 0.73574 0.54902 0.06021 0.0
H1930 H 0.72623 0.48404 0.03995 0.0
H1931 H 0.72068 0.45569 0.05663 0.0
C1932 C 0.51808 0.74614 0.09132 0.0
C1933 C 0.53128 0.75856 0.11197 0.0
C1934 C 0.49174 0.75849 0.13668 0.0
C1935 C 0.47781 0.75297 0.11418 0.0
N1936 N 0.47719 0.73877 0.07016 0.0
N1937 N 0.52927 0.77946 0.15367 0.0
C1938 C 0.49087 0.74544 0.09158 0.0
C1939 C 0.51779 0.76535 0.13463 0.0
N1940 N 0.53137 0.73572 0.07135 0.0
N1941 N 0.48012 0.7565 0.15998 0.0
H1942 H 0.54794 0.78625 0.15227 0.0
H1943 H 0.51936 0.78655 0.16951 0.0
H1944 H 0.4619 0.74837 0.16147 0.0
H1945 H 0.48976 0.75908 0.17739 0.0
H1946 H 0.5229 0.72477 0.05677 0.0
H1947 H 0.55119 0.7362 0.07044 0.0
H1948 H 0.48527 0.73612 0.05207 0.0
H1949 H 0.45739 0.73671 0.07054 0.0
C1950 C 0.51084 0.21743 0.13536 0.0
C1951 C 0.52536 0.23169 0.11722 0.0
C1952 C 0.48602 0.25105 0.1007 0.0
C1953 C 0.47138 0.23382 0.11614 0.0
N1954 N 0.46984 0.20018 0.14818 0.0
N1955 N 0.52696 0.26054 0.08097 0.0
C1956 C 0.48383 0.21719 0.13375 0.0
C1957 C 0.51307 0.24854 0.0998 0.0
N1958 N 0.523 0.20395 0.15417 0.0
N1959 N 0.47418 0.26938 0.08637 0.0
H1960 H 0.54669 0.25922 0.07946 0.0
H1961 H 0.51884 0.27026 0.06558 0.0
H1962 H 0.45449 0.27113 0.08527 0.0
H1963 H 0.48391 0.28426 0.07711 0.0
H1964 H 0.51384 0.19598 0.17007 0.0
H1965 H 0.5427 0.20224 0.15489 0.0
H1966 H 0.47767 0.18511 0.15855 0.0
H1967 H 0.45005 0.20008 0.14876 0.0
C1968 C 0.58689 0.77396 0.01206 0.0
C1969 C 0.61052 0.77092 0.02485 0.0
C1970 C 0.63199 0.76483 0.98327 0.0
C1971 C 0.60898 0.7713 0.97051 0.0
N1972 N 0.56432 0.7821 0.97235 0.0
N1973 N 0.65565 0.76345 0.0236 0.0
C1974 C 0.58634 0.7757 0.98481 0.0
C1975 C 0.63307 0.76591 0.01074 0.0
N1976 N 0.56482 0.77444 0.02606 0.0
N1977 N 0.65281 0.75802 0.96913 0.0
H1978 H 0.65691 0.76364 0.04364 0.0
H1979 H 0.67332 0.76249 0.01464 0.0
H1980 H 0.65313 0.75845 0.94908 0.0
H1981 H 0.6693 0.75047 0.97705 0.0
H1982 H 0.54669 0.77343 0.01795 0.0
H1983 H 0.56447 0.77368 0.0461 0.0
H1984 H 0.54827 0.78911 0.98163 0.0
H1985 H 0.56228 0.78163 0.95241 0.0
C1986 C 0.24454 0.5887 0.99437 0.0
C1987 C 0.25302 0.60893 0.97825 0.0
C1988 C 0.26395 0.63536 0.01565 0.0
C1989 C 0.25665 0.61474 0.03201 0.0
N1990 N 0.23294 0.57496 0.03742 0.0
N1991 N 0.26115 0.65416 0.97308 0.0
C1992 C 0.24431 0.59254 0.02152 0.0
C1993 C 0.25931 0.63326 0.98882 0.0
N1994 N 0.23801 0.56546 0.9837 0.0
N1995 N 0.27651 0.65633 0.02554 0.0
H1996 H 0.25702 0.65293 0.95345 0.0
H1997 H 0.26397 0.67287 0.97984 0.0
H1998 H 0.28019 0.65841 0.04512 0.0
H1999 H 0.28478 0.67065 0.01421 0.0
H2000 H 0.23472 0.54885 0.99439 0.0
H2001 H 0.23694 0.56269 0.96381 0.0
H2002 H 0.22194 0.55949 0.03078 0.0
H2003 H 0.23266 0.57702 0.05737 0.0
C2004 C 0.36874 0.24044 0.01334 0.0
C2005 C 0.39127 0.23783 0.02813 0.0
C2006 C 0.41699 0.23579 0.98895 0.0
C2007 C 0.39441 0.23773 0.97395 0.0
N2008 N 0.34965 0.24722 0.97124 0.0
N2009 N 0.43703 0.23975 0.03092 0.0
C2010 C 0.37054 0.24202 0.98598 0.0
C2011 C 0.41548 0.23776 0.01616 0.0
N2012 N 0.34564 0.24029 0.02546 0.0
N2013 N 0.43981 0.23115 0.97722 0.0
H2014 H 0.43655 0.24086 0.05097 0.0
H2015 H 0.45522 0.24258 0.02341 0.0
H2016 H 0.44209 0.23072 0.9573 0.0
H2017 H 0.4563 0.22627 0.9871 0.0
H2018 H 0.32823 0.23929 0.01587 0.0
H2019 H 0.3439 0.23997 0.04547 0.0
H2020 H 0.33225 0.25293 0.97878 0.0
H2021 H 0.35016 0.24759 0.95119 0.0
C2022 C 0.74032 0.36605 0.00887 0.0
C2023 C 0.74263 0.38919 0.02314 0.0
C2024 C 0.74583 0.41417 0.98349 0.0
C2025 C 0.74008 0.39148 0.96915 0.0
N2026 N 0.73354 0.34559 0.96709 0.0
N2027 N 0.757 0.43307 0.02496 0.0
C2028 C 0.73831 0.36719 0.9815 0.0
C2029 C 0.74853 0.41258 0.01064 0.0
N2030 N 0.74077 0.34318 0.02168 0.0
N2031 N 0.74698 0.43743 0.9713 0.0
H2032 H 0.75969 0.43179 0.04483 0.0
H2033 H 0.76362 0.4503 0.01714 0.0
H2034 H 0.74512 0.43927 0.95142 0.0
H2035 H 0.74826 0.45503 0.98085 0.0
H2036 H 0.74007 0.32521 0.01284 0.0
H2037 H 0.74432 0.34241 0.04143 0.0
H2038 H 0.72966 0.32752 0.97478 0.0
H2039 H 0.73278 0.34591 0.94701 0.0
C2040 C 0.62966 0.26211 0.99791 0.0
C2041 C 0.60909 0.25588 0.98113 0.0
C2042 C 0.58682 0.23371 0.01626 0.0
C2043 C 0.60817 0.23825 0.03256 0.0
N2044 N 0.65152 0.2532 0.03807 0.0
N2045 N 0.57006 0.23215 0.97281 0.0
C2046 C 0.63006 0.25153 0.02317 0.0
C2047 C 0.58837 0.2404 0.98981 0.0
N2048 N 0.64868 0.27833 0.98976 0.0
N2049 N 0.56444 0.22452 0.02637 0.0
H2050 H 0.56992 0.23731 0.95345 0.0
H2051 H 0.55612 0.21849 0.9774 0.0
H2052 H 0.56213 0.22006 0.04579 0.0
H2053 H 0.54739 0.22366 0.01611 0.0
H2054 H 0.66251 0.28621 0.00195 0.0
H2055 H 0.64985 0.28514 0.97093 0.0
H2056 H 0.66892 0.2604 0.03151 0.0
H2057 H 0.65257 0.24546 0.05653 0.0
C2058 C 0.76194 0.63208 0.00946 0.0
C2059 C 0.7699 0.60943 0.02214 0.0
C2060 C 0.78321 0.59067 0.98127 0.0
C2061 C 0.7744 0.61281 0.96801 0.0
N2062 N 0.75188 0.65306 0.96903 0.0
N2063 N 0.77974 0.56439 0.01935 0.0
C2064 C 0.76237 0.63294 0.98196 0.0
C2065 C 0.77785 0.58788 0.00774 0.0
N2066 N 0.75522 0.65309 0.02368 0.0
N2067 N 0.79741 0.57244 0.96905 0.0
H2068 H 0.77558 0.56149 0.03876 0.0
H2069 H 0.78264 0.54735 0.00918 0.0
H2070 H 0.80183 0.5727 0.94958 0.0
H2071 H 0.80681 0.55789 0.97884 0.0
H2072 H 0.75192 0.67112 0.01581 0.0
H2073 H 0.75435 0.65285 0.04374 0.0
H2074 H 0.74038 0.66672 0.97776 0.0
H2075 H 0.75349 0.65539 0.94917 0.0
C2076 C 0.37614 0.74474 0.99027 0.0
C2077 C 0.39865 0.74703 0.97537 0.0
C2078 C 0.42183 0.76474 0.0124 0.0
C2079 C 0.39917 0.76304 0.0273 0.0
N2080 N 0.35353 0.75791 0.02874 0.0
N2081 N 0.44045 0.76572 0.96975 0.0
C2082 C 0.37591 0.75488 0.01575 0.0
C2083 C 0.42074 0.75911 0.98567 0.0
N2084 N 0.35514 0.73254 0.98022 0.0
N2085 N 0.44464 0.77055 0.02392 0.0
H2086 H 0.43985 0.76249 0.94992 0.0
H2087 H 0.45613 0.77674 0.97566 0.0
H2088 H 0.44649 0.77485 0.04344 0.0
H2089 H 0.4621 0.76901 0.01457 0.0
H2090 H 0.33924 0.72744 0.99112 0.0
H2091 H 0.35418 0.72632 0.96113 0.0
H2092 H 0.33568 0.75457 0.02052 0.0
H2093 H 0.35271 0.76602 0.04712 0.0
C2094 C 0.23889 0.36869 0.02136 0.0
C2095 C 0.23741 0.3938 0.03219 0.0
C2096 C 0.241 0.41262 0.9892 0.0
C2097 C 0.23829 0.38779 0.97824 0.0
N2098 N 0.2353 0.34192 0.98286 0.0
N2099 N 0.23346 0.43968 0.0262 0.0
C2100 C 0.23781 0.36565 0.99405 0.0
C2101 C 0.23776 0.41581 0.01607 0.0
N2102 N 0.24061 0.34786 0.03721 0.0
N2103 N 0.24647 0.43319 0.97376 0.0
H2104 H 0.23013 0.44285 0.0457 0.0
H2105 H 0.23079 0.45602 0.01503 0.0
H2106 H 0.24911 0.43132 0.95396 0.0
H2107 H 0.25103 0.45147 0.98084 0.0
H2108 H 0.24412 0.32928 0.03072 0.0
H2109 H 0.23999 0.34939 0.05722 0.0
H2110 H 0.23203 0.32501 0.99305 0.0
H2111 H 0.23568 0.33933 0.96292 0.0
C2112 C 0.01175 0.58743 0.77316 0.0
C2113 C 0.02995 0.60749 0.76911 0.0
C2114 C 0.99743 0.6329 0.74736 0.0
C2115 C 0.97893 0.61338 0.75238 0.0
N2116 N 0.96728 0.57518 0.7764 0.0
N2117 N 0.03738 0.65248 0.76088 0.0
C2118 C 0.98564 0.59177 0.76752 0.0
C2119 C 0.02197 0.63123 0.75878 0.0
N2120 N 0.01944 0.56368 0.78092 0.0
N2121 N 0.99192 0.65276 0.73126 0.0
H2122 H 0.05519 0.652 0.76984 0.0
H2123 H 0.03147 0.6709 0.75598 0.0
H2124 H 0.97418 0.65476 0.72259 0.0
H2125 H 0.00562 0.666 0.72496 0.0
H2126 H 0.00747 0.54753 0.781 0.0
H2127 H 0.03828 0.55949 0.78516 0.0
H2128 H 0.97098 0.56076 0.78972 0.0
H2129 H 0.94796 0.5771 0.77244 0.0
C2130 C 0.36861 0.98446 0.77584 0.0
C2131 C 0.39109 0.9728 0.76658 0.0
C2132 C 0.4077 0.015 0.75312 0.0
C2133 C 0.38732 0.02692 0.76638 0.0
N2134 N 0.34771 0.02367 0.78948 0.0
N2135 N 0.43253 0.97641 0.74685 0.0
C2136 C 0.3674 0.0118 0.77725 0.0
C2137 C 0.41056 0.98786 0.75484 0.0
N2138 N 0.3484 0.96926 0.78295 0.0
N2139 N 0.42451 0.02966 0.7392 0.0
H2140 H 0.43516 0.95657 0.74728 0.0
H2141 H 0.44879 0.98658 0.74124 0.0
H2142 H 0.42356 0.04963 0.73812 0.0
H2143 H 0.43818 0.02197 0.727 0.0
H2144 H 0.33059 0.97633 0.78784 0.0
H2145 H 0.34883 0.94921 0.78178 0.0
H2146 H 0.3341 0.014 0.80047 0.0
H2147 H 0.34551 0.0436 0.78939 0.0
C2148 C 0.01799 0.41784 0.72736 0.0
C2149 C 0.02941 0.39422 0.73411 0.0
C2150 C 0.98738 0.3767 0.74603 0.0
C2151 C 0.97583 0.39805 0.73389 0.0
N2152 N 0.97977 0.44029 0.71502 0.0
N2153 N 0.02569 0.35166 0.75206 0.0
C2154 C 0.99107 0.41917 0.72545 0.0
C2155 C 0.01436 0.37393 0.74456 0.0
N2156 N 0.03302 0.43915 0.72337 0.0
N2157 N 0.97266 0.35925 0.75908 0.0
H2158 H 0.04538 0.34971 0.75309 0.0
H2159 H 0.01567 0.33483 0.7564 0.0
H2160 H 0.95301 0.36097 0.76094 0.0
H2161 H 0.98005 0.34447 0.77016 0.0
H2162 H 0.02594 0.4576 0.72094 0.0
H2163 H 0.05282 0.43886 0.72503 0.0
H2164 H 0.98971 0.45475 0.70533 0.0
H2165 H 0.96011 0.44295 0.71513 0.0
C2166 C 0.63487 0.99772 0.74141 0.0
C2167 C 0.61656 0.97894 0.74932 0.0
C2168 C 0.59438 0.01189 0.77464 0.0
C2169 C 0.61341 0.03035 0.76767 0.0
N2170 N 0.65468 0.03946 0.74937 0.0
N2171 N 0.58029 0.9674 0.77568 0.0
C2172 C 0.63451 0.02284 0.75247 0.0
C2173 C 0.59701 0.98575 0.76691 0.0
N2174 N 0.6523 0.99179 0.72286 0.0
N2175 N 0.57271 0.01954 0.78696 0.0
H2176 H 0.57904 0.94889 0.76811 0.0
H2177 H 0.56835 0.97015 0.79142 0.0
H2178 H 0.56964 0.03822 0.79334 0.0
H2179 H 0.55661 0.00785 0.78918 0.0
H2180 H 0.66395 0.00546 0.71396 0.0
H2181 H 0.65394 0.97346 0.71495 0.0
H2182 H 0.67174 0.03435 0.74066 0.0
H2183 H 0.65537 0.05772 0.75776 0.0
C2184 C 0.99028 0.3665 0.24729 0.0
C2185 C 0.97416 0.38761 0.24229 0.0
C2186 C 0.00994 0.41144 0.2233 0.0
C2187 C 0.02602 0.39006 0.22747 0.0
N2188 N 0.02966 0.34489 0.23674 0.0
N2189 N 0.9669 0.42674 0.2186 0.0
C2190 C 0.01562 0.36682 0.23747 0.0
C2191 C 0.98338 0.40884 0.22782 0.0
N2192 N 0.98149 0.34635 0.26172 0.0
N2193 N 0.02014 0.43487 0.21688 0.0
H2194 H 0.94729 0.42571 0.22153 0.0
H2195 H 0.97239 0.4412 0.20584 0.0
H2196 H 0.03958 0.43807 0.21447 0.0
H2197 H 0.00962 0.45173 0.21656 0.0
H2198 H 0.9932 0.33186 0.26857 0.0
H2199 H 0.96262 0.34488 0.26793 0.0
H2200 H 0.02235 0.32683 0.24158 0.0
H2201 H 0.04802 0.34445 0.22906 0.0
C2202 C 0.62803 0.0019 0.26779 0.0
C2203 C 0.60922 0.01903 0.25851 0.0
C2204 C 0.58923 0.98347 0.23427 0.0
C2205 C 0.60964 0.96722 0.24123 0.0
N2206 N 0.65126 0.96261 0.26026 0.0
N2207 N 0.57395 0.0269 0.22962 0.0
C2208 C 0.62986 0.97691 0.25676 0.0
C2209 C 0.59064 0.01012 0.2405 0.0
N2210 N 0.64385 0.00918 0.28748 0.0
N2211 N 0.56761 0.97323 0.22335 0.0
H2212 H 0.57311 0.0463 0.23454 0.0
H2213 H 0.56211 0.02191 0.21423 0.0
H2214 H 0.56512 0.95365 0.21954 0.0
H2215 H 0.55104 0.98368 0.22059 0.0
H2216 H 0.65592 0.99648 0.29684 0.0
H2217 H 0.6434 0.0273 0.29606 0.0
H2218 H 0.66766 0.96971 0.26926 0.0
H2219 H 0.65359 0.94449 0.25195 0.0
C2220 C 0.00291 0.60999 0.27665 0.0
C2221 C 0.02317 0.60833 0.25859 0.0
C2222 C 0.99154 0.61304 0.22417 0.0
C2223 C 0.97136 0.60885 0.24199 0.0
N2224 N 0.96039 0.5948 0.28523 0.0
N2225 N 0.03454 0.60123 0.21376 0.0
C2226 C 0.97766 0.60492 0.26831 0.0
C2227 C 0.01698 0.60794 0.23187 0.0
N2228 N 0.00734 0.61714 0.30157 0.0
N2229 N 0.9868 0.62254 0.2002 0.0
H2230 H 0.05262 0.59459 0.21825 0.0
H2231 H 0.02983 0.59899 0.19436 0.0
H2232 H 0.96883 0.62865 0.19447 0.0
H2233 H 1.00137 0.62746 0.18743 0.0
H2234 H 0.99258 0.62004 0.31466 0.0
H2235 H 0.0251 0.62359 0.30805 0.0
H2236 H 0.96527 0.59027 0.30414 0.0
H2237 H 0.94255 0.58769 0.27974 0.0
C2238 C 0.37259 0.01616 0.22234 0.0
C2239 C 0.39327 0.02958 0.23405 0.0
C2240 C 0.41325 0.98881 0.24544 0.0
C2241 C 0.39274 0.97534 0.23338 0.0
N2242 N 0.3502 0.9754 0.21604 0.0
N2243 N 0.42979 0.02932 0.26226 0.0
C2244 C 0.37151 0.98883 0.22362 0.0
C2245 C 0.41237 0.01607 0.24758 0.0
N2246 N 0.35433 0.02958 0.2095 0.0
N2247 N 0.4343 0.97574 0.25331 0.0
H2248 H 0.43 0.04932 0.2639 0.0
H2249 H 0.44263 0.02049 0.27458 0.0
H2250 H 0.43571 0.95579 0.25211 0.0
H2251 H 0.45115 0.9847 0.25931 0.0
H2252 H 0.34043 0.02099 0.19789 0.0
H2253 H 0.35376 0.04965 0.20957 0.0
H2254 H 0.33316 0.98402 0.21089 0.0
H2255 H 0.34884 0.95537 0.21708 0.0
C2256 C 0.74215 0.02297 0.59273 0.0
C2257 C 0.75888 0.03302 0.6119 0.0
C2258 C 0.76443 0.98963 0.62956 0.0
C2259 C 0.74842 0.97953 0.60971 0.0
N2260 N 0.72855 0.98553 0.56829 0.0
N2261 N 0.78797 0.02629 0.64708 0.0
C2262 C 0.73899 0.99593 0.59021 0.0
C2263 C 0.77066 0.01641 0.62985 0.0
N2264 N 0.72931 0.03917 0.57675 0.0
N2265 N 0.77316 0.97387 0.64854 0.0
H2266 H 0.79143 0.04598 0.64934 0.0
H2267 H 0.79982 0.01507 0.65838 0.0
H2268 H 0.77119 0.95395 0.64802 0.0
H2269 H 0.78163 0.9805 0.66547 0.0
H2270 H 0.71452 0.03305 0.56472 0.0
H2271 H 0.73199 0.05906 0.57668 0.0
H2272 H 0.72388 0.99633 0.55216 0.0
H2273 H 0.72725 0.96575 0.56493 0.0
C2274 C 0.76332 0.0163 0.37219 0.0
C2275 C 0.7719 0.02783 0.39545 0.0
C2276 C 0.76733 0.98633 0.41758 0.0
C2277 C 0.75513 0.97607 0.39538 0.0
N2278 N 0.74144 0.98043 0.35137 0.0
N2279 N 0.78399 0.02383 0.44016 0.0
C2280 C 0.7533 0.99074 0.37252 0.0
C2281 C 0.77487 0.01273 0.41803 0.0
N2282 N 0.76594 0.02948 0.34962 0.0
N2283 N 0.77177 0.97067 0.43816 0.0
H2284 H 0.7912 0.04255 0.44107 0.0
H2285 H 0.78362 0.01498 0.45807 0.0
H2286 H 0.76552 0.95157 0.43876 0.0
H2287 H 0.78298 0.97579 0.45394 0.0
H2288 H 0.7623 0.02146 0.33157 0.0
H2289 H 0.77401 0.04792 0.3488 0.0
H2290 H 0.73654 0.99109 0.33522 0.0
H2291 H 0.73538 0.96126 0.35044 0.0
C2292 C 0.98314 0.77187 0.39979 0.0
C2293 C 0.97594 0.7454 0.39828 0.0
C2294 C 0.02099 0.73425 0.40207 0.0
C2295 C 0.02839 0.76053 0.39948 0.0
N2296 N 0.01488 0.80306 0.38659 0.0
N2297 N 0.99047 0.70243 0.38781 0.0
C2298 C 0.009 0.77901 0.39543 0.0
C2299 C 0.99558 0.72687 0.39622 0.0
N2300 N 0.96607 0.79022 0.40679 0.0
N2301 N 0.03734 0.71633 0.41146 0.0
H2302 H 0.97273 0.69676 0.38068 0.0
H2303 H 0.00481 0.68909 0.38454 0.0
H2304 H 0.0554 0.72078 0.41859 0.0
H2305 H 0.03156 0.69743 0.41517 0.0
H2306 H 0.97148 0.80938 0.40981 0.0
H2307 H 0.94761 0.78601 0.41289 0.0
H2308 H 1.00091 0.81634 0.38184 0.0
H2309 H 0.03317 0.80842 0.38072 0.0
C2310 C 0.25949 0.01592 0.41518 0.0
C2311 C 0.25752 0.02924 0.39145 0.0
C2312 C 0.24274 0.98957 0.37015 0.0
C2313 C 0.24365 0.97664 0.39407 0.0
N2314 N 0.24607 0.97911 0.44038 0.0
N2315 N 0.23987 0.03068 0.34859 0.0
C2316 C 0.24999 0.9903 0.41692 0.0
C2317 C 0.2469 0.01668 0.36954 0.0
N2318 N 0.27051 0.02767 0.43609 0.0
N2319 N 0.23809 0.97597 0.34804 0.0
H2320 H 0.24081 0.05069 0.34836 0.0
H2321 H 0.23025 0.02278 0.33282 0.0
H2322 H 0.23434 0.9562 0.34795 0.0
H2323 H 0.23987 0.98392 0.32975 0.0
H2324 H 0.2753 0.01788 0.45283 0.0
H2325 H 0.27628 0.04694 0.43628 0.0
H2326 H 0.24774 0.98905 0.45776 0.0
H2327 H 0.23876 0.96049 0.44246 0.0
C2328 C 0.00942 0.26033 0.36437 0.0
C2329 C 0.02727 0.25052 0.38235 0.0
C2330 C 0.99301 0.22554 0.40299 0.0
C2331 C 0.9754 0.23415 0.38408 0.0
N2332 N 0.96874 0.25418 0.34287 0.0
N2333 N 0.03686 0.21886 0.41499 0.0
C2334 C 0.98419 0.24991 0.36358 0.0
C2335 C 0.01939 0.23134 0.40018 0.0
N2336 N 0.01635 0.27987 0.3482 0.0
N2337 N 0.98457 0.21357 0.42483 0.0
H2338 H 0.05626 0.22314 0.41507 0.0
H2339 H 0.03231 0.20257 0.42577 0.0
H2340 H 0.96557 0.20923 0.42851 0.0
H2341 H 0.99622 0.21016 0.44068 0.0
H2342 H 0.00337 0.28988 0.33698 0.0
H2343 H 0.03484 0.2873 0.34724 0.0
H2344 H 0.97486 0.26353 0.32625 0.0
H2345 H 0.95059 0.24595 0.34109 0.0
C2346 C 0.25272 0.01561 0.5879 0.0
C2347 C 0.26424 0.02685 0.61005 0.0
C2348 C 0.25644 0.98715 0.63421 0.0
C2349 C 0.2469 0.97514 0.6116 0.0
N2350 N 0.23934 0.97666 0.56571 0.0
N2351 N 0.28298 0.02121 0.65203 0.0
C2352 C 0.24581 0.98907 0.5881 0.0
C2353 C 0.26792 0.01199 0.63255 0.0
N2354 N 0.24872 0.03023 0.56649 0.0
N2355 N 0.25336 0.97538 0.65746 0.0
H2356 H 0.29266 0.03879 0.65085 0.0
H2357 H 0.28808 0.01025 0.66793 0.0
H2358 H 0.24384 0.95774 0.65938 0.0
H2359 H 0.25785 0.98427 0.67493 0.0
H2360 H 0.23733 0.02434 0.55108 0.0
H2361 H 0.25593 0.0489 0.56457 0.0
H2362 H 0.24117 0.98491 0.54756 0.0
H2363 H 0.23405 0.9573 0.56484 0.0
C2364 C 0.98817 0.25074 0.62336 0.0
C2365 C 0.97511 0.26221 0.60247 0.0
C2366 C 0.01546 0.2693 0.57976 0.0
C2367 C 0.02876 0.26035 0.60172 0.0
N2368 N 0.02827 0.23491 0.64032 0.0
N2369 N 0.97506 0.27386 0.55764 0.0
C2370 C 0.01525 0.24847 0.62223 0.0
C2371 C 0.98843 0.26869 0.57961 0.0
N2372 N 0.97484 0.24289 0.64452 0.0
N2373 N 0.02877 0.27913 0.55933 0.0
H2374 H 0.95521 0.27348 0.55693 0.0
H2375 H 0.9834 0.27618 0.53963 0.0
H2376 H 0.04854 0.27806 0.55784 0.0
H2377 H 0.02045 0.28917 0.54428 0.0
H2378 H 0.98329 0.23756 0.66179 0.0
H2379 H 0.95501 0.24225 0.64496 0.0
H2380 H 0.01958 0.22427 0.65486 0.0
H2381 H 0.04788 0.23222 0.63928 0.0
C2382 C 0.02116 0.75203 0.60137 0.0
C2383 C 0.03295 0.73472 0.61872 0.0
C2384 C 0.99101 0.7217 0.63551 0.0
C2385 C 0.97909 0.73834 0.61756 0.0
N2386 N 0.98275 0.77364 0.58765 0.0
N2387 N 0.02982 0.70686 0.65554 0.0
C2388 C 0.99417 0.75513 0.60211 0.0
C2389 C 0.01803 0.72091 0.63692 0.0
N2390 N 0.03543 0.76394 0.58278 0.0
N2391 N 0.97641 0.7057 0.65047 0.0
H2392 H 0.04942 0.70435 0.65601 0.0
H2393 H 0.02057 0.69904 0.67146 0.0
H2394 H 0.95663 0.70664 0.6512 0.0
H2395 H 0.98357 0.69063 0.6613 0.0
H2396 H 0.02767 0.77392 0.56739 0.0
H2397 H 0.05516 0.76242 0.58154 0.0
H2398 H 0.99277 0.78826 0.57829 0.0
H2399 H 0.96311 0.77584 0.58661 0.0
loop_
_geom_bond_atom_site_label_1
_geom_bond_atom_site_label_2
_geom_bond_distance
_geom_bond_site_symmetry_2
_ccdc_geom_bond_type
Co0 O1 2.216 . S
Co0 O2 2.091 . S
Co0 O4 2.004 . S
Co0 O10 2.021 . S
Co0 O12 2.137 . S
Co0 O13 2.244 . S
O1 Co0 2.216 . S
O1 C8 1.247 . S
O2 Co0 2.091 . S
O2 C8 1.261 . S
C3 O12 1.247 . S
C3 O13 1.272 . S
O4 Co0 2.004 . S
O4 C9 1.259 . S
Co5 O6 2.061 . S
Co5 O11 2.052 . S
Co5 O13 2.135 . S
O6 Co5 2.061 . S
O6 C9 1.235 . S
C7 O10 1.238 . S
C7 O11 1.241 . S
C8 O1 1.247 . S
C8 O2 1.261 . S
C9 O4 1.259 . S
C9 O6 1.235 . S
O10 Co0 2.021 . S
O10 C7 1.238 . S
O11 Co5 2.052 . S
O11 C7 1.241 . S
O12 Co0 2.137 . S
O12 C3 1.247 . S
O13 Co0 2.244 . S
O13 C3 1.272 . S
O13 Co5 2.135 . S
Co14 O15 2.216 . S
Co14 O16 2.091 . S
Co14 O18 2.004 . S
Co14 O24 2.021 . S
Co14 O26 2.137 . S
Co14 O27 2.244 . S
O15 Co14 2.216 . S
O15 C22 1.247 . S
O16 Co14 2.091 . S
O16 C22 1.261 . S
C17 O26 1.247 . S
C17 O27 1.272 . S
O18 Co14 2.004 . S
O18 C23 1.259 . S
Co19 O20 2.061 . S
Co19 O25 2.052 . S
Co19 O27 2.135 . S
O20 Co19 2.061 . S
O20 C23 1.235 . S
C21 O24 1.238 . S
C21 O25 1.241 . S
C22 O15 1.247 . S
C22 O16 1.261 . S
C23 O18 1.259 . S
C23 O20 1.235 . S
O24 Co14 2.021 . S
O24 C21 1.238 . S
O25 Co19 2.052 . S
O25 C21 1.241 . S
O26 Co14 2.137 . S
O26 C17 1.247 . S
O27 Co14 2.244 . S
O27 C17 1.272 . S
O27 Co19 2.135 . S
Co28 O29 2.216 . S
Co28 O30 2.091 . S
Co28 O32 2.004 . S
Co28 O38 2.021 . S
Co28 O40 2.137 . S
Co28 O41 2.244 . S
O29 Co28 2.216 . S
O29 C36 1.247 . S
O30 Co28 2.091 . S
O30 C36 1.261 . S
C31 O40 1.247 . S
C31 O41 1.272 . S
O32 Co28 2.004 . S
O32 C37 1.259 . S
Co33 O34 2.061 . S
Co33 O39 2.052 . S
Co33 O41 2.135 . S
O34 Co33 2.061 . S
O34 C37 1.235 . S
C35 O38 1.238 . S
C35 O39 1.241 . S
C36 O29 1.247 . S
C36 O30 1.261 . S
C37 O32 1.259 . S
C37 O34 1.235 . S
O38 Co28 2.021 . S
O38 C35 1.238 . S
O39 Co33 2.052 . S
O39 C35 1.241 . S
O40 Co28 2.137 . S
O40 C31 1.247 . S
O41 Co28 2.244 . S
O41 C31 1.272 . S
O41 Co33 2.135 . S
Co42 O43 2.216 . S
Co42 O44 2.091 . S
Co42 O46 2.004 . S
Co42 O52 2.021 . S
Co42 O54 2.137 . S
Co42 O55 2.244 . S
O43 Co42 2.216 . S
O43 C50 1.247 . S
O44 Co42 2.091 . S
O44 C50 1.261 . S
C45 O54 1.247 . S
C45 O55 1.272 . S
O46 Co42 2.004 . S
O46 C51 1.259 . S
Co47 O48 2.061 . S
Co47 O53 2.052 . S
Co47 O55 2.135 . S
O48 Co47 2.061 . S
O48 C51 1.235 . S
C49 O52 1.238 . S
C49 O53 1.241 . S
C50 O43 1.247 . S
C50 O44 1.261 . S
C51 O46 1.259 . S
C51 O48 1.235 . S
O52 Co42 2.021 . S
O52 C49 1.238 . S
O53 Co47 2.052 . S
O53 C49 1.241 . S
O54 Co42 2.137 . S
O54 C45 1.247 . S
O55 Co42 2.244 . S
O55 C45 1.272 . S
O55 Co47 2.135 . S
Co56 O57 2.216 . S
Co56 O58 2.091 . S
Co56 O60 2.004 . S
Co56 O66 2.021 . S
Co56 O68 2.137 . S
Co56 O69 2.244 . S
O57 Co56 2.216 . S
O57 C64 1.247 . S
O58 Co56 2.091 . S
O58 C64 1.261 . S
C59 O68 1.247 . S
C59 O69 1.272 . S
O60 Co56 2.004 . S
O60 C65 1.259 . S
Co61 O62 2.061 . S
Co61 O67 2.052 . S
Co61 O69 2.135 . S
O62 Co61 2.061 . S
O62 C65 1.235 . S
C63 O66 1.238 . S
C63 O67 1.241 . S
C64 O57 1.247 . S
C64 O58 1.261 . S
C65 O60 1.259 . S
C65 O62 1.235 . S
O66 Co56 2.021 . S
O66 C63 1.238 . S
O67 Co61 2.052 . S
O67 C63 1.241 . S
O68 Co56 2.137 . S
O68 C59 1.247 . S
O69 Co56 2.244 . S
O69 C59 1.272 . S
O69 Co61 2.135 . S
Co70 O71 2.216 . S
Co70 O72 2.091 . S
Co70 O74 2.004 . S
Co70 O80 2.021 . S
Co70 O82 2.137 . S
Co70 O83 2.244 . S
O71 Co70 2.216 . S
O71 C78 1.247 . S
O72 Co70 2.091 . S
O72 C78 1.261 . S
C73 O82 1.247 . S
C73 O83 1.272 . S
O74 Co70 2.004 . S
O74 C79 1.259 . S
Co75 O76 2.061 . S
Co75 O81 2.052 . S
Co75 O83 2.135 . S
O76 Co75 2.061 . S
O76 C79 1.235 . S
C77 O80 1.238 . S
C77 O81 1.241 . S
C78 O71 1.247 . S
C78 O72 1.261 . S
C79 O74 1.259 . S
C79 O76 1.235 . S
O80 Co70 2.021 . S
O80 C77 1.238 . S
O81 Co75 2.052 . S
O81 C77 1.241 . S
O82 Co70 2.137 . S
O82 C73 1.247 . S
O83 Co70 2.244 . S
O83 C73 1.272 . S
O83 Co75 2.135 . S
Co84 O85 2.216 . S
Co84 O86 2.091 . S
Co84 O88 2.004 . S
Co84 O94 2.021 . S
Co84 O96 2.137 . S
Co84 O97 2.244 . S
O85 Co84 2.216 . S
O85 C92 1.247 . S
O86 Co84 2.091 . S
O86 C92 1.261 . S
C87 O96 1.247 . S
C87 O97 1.272 . S
O88 Co84 2.004 . S
O88 C93 1.259 . S
Co89 O90 2.061 . S
Co89 O95 2.052 . S
Co89 O97 2.135 . S
O90 Co89 2.061 . S
O90 C93 1.235 . S
C91 O94 1.238 . S
C91 O95 1.241 . S
C92 O85 1.247 . S
C92 O86 1.261 . S
C93 O88 1.259 . S
C93 O90 1.235 . S
O94 Co84 2.021 . S
O94 C91 1.238 . S
O95 Co89 2.052 . S
O95 C91 1.241 . S
O96 Co84 2.137 . S
O96 C87 1.247 . S
O97 Co84 2.244 . S
O97 C87 1.272 . S
O97 Co89 2.135 . S
Co98 O99 2.216 . S
Co98 O100 2.091 . S
Co98 O102 2.004 . S
Co98 O108 2.021 . S
Co98 O110 2.137 . S
Co98 O111 2.244 . S
O99 Co98 2.216 . S
O99 C106 1.247 . S
O100 Co98 2.091 . S
O100 C106 1.261 . S
C101 O110 1.247 . S
C101 O111 1.272 . S
O102 Co98 2.004 . S
O102 C107 1.259 . S
Co103 O104 2.061 . S
Co103 O109 2.052 . S
Co103 O111 2.135 . S
O104 Co103 2.061 . S
O104 C107 1.235 . S
C105 O108 1.238 . S
C105 O109 1.241 . S
C106 O99 1.247 . S
C106 O100 1.261 . S
C107 O102 1.259 . S
C107 O104 1.235 . S
O108 Co98 2.021 . S
O108 C105 1.238 . S
O109 Co103 2.052 . S
O109 C105 1.241 . S
O110 Co98 2.137 . S
O110 C101 1.247 . S
O111 Co98 2.244 . S
O111 C101 1.272 . S
O111 Co103 2.135 . S
Co112 O113 2.216 . S
Co112 O114 2.091 . S
Co112 O116 2.004 . S
Co112 O122 2.021 . S
Co112 O124 2.137 . S
Co112 O125 2.244 . S
O113 Co112 2.216 . S
O113 C120 1.247 . S
O114 Co112 2.091 . S
O114 C120 1.261 . S
C115 O124 1.247 . S
C115 O125 1.272 . S
O116 Co112 2.004 . S
O116 C121 1.259 . S
Co117 O118 2.061 . S
Co117 O123 2.052 . S
Co117 O125 2.135 . S
O118 Co117 2.061 . S
O118 C121 1.235 . S
C119 O122 1.238 . S
C119 O123 1.241 . S
C120 O113 1.247 . S
C120 O114 1.261 . S
C121 O116 1.259 . S
C121 O118 1.235 . S
O122 Co112 2.021 . S
O122 C119 1.238 . S
O123 Co117 2.052 . S
O123 C119 1.241 . S
O124 Co112 2.137 . S
O124 C115 1.247 . S
O125 Co112 2.244 . S
O125 C115 1.272 . S
O125 Co117 2.135 . S
Co126 O127 2.216 . S
Co126 O128 2.091 . S
Co126 O130 2.004 . S
Co126 O136 2.021 . S
Co126 O138 2.137 . S
Co126 O139 2.244 . S
O127 Co126 2.216 . S
O127 C134 1.247 . S
O128 Co126 2.091 . S
O128 C134 1.261 . S
C129 O138 1.247 . S
C129 O139 1.272 . S
O130 Co126 2.004 . S
O130 C135 1.259 . S
Co131 O132 2.061 . S
Co131 O137 2.052 . S
Co131 O139 2.135 . S
O132 Co131 2.061 . S
O132 C135 1.235 . S
C133 O136 1.238 . S
C133 O137 1.241 . S
C134 O127 1.247 . S
C134 O128 1.261 . S
C135 O130 1.259 . S
C135 O132 1.235 . S
O136 Co126 2.021 . S
O136 C133 1.238 . S
O137 Co131 2.052 . S
O137 C133 1.241 . S
O138 Co126 2.137 . S
O138 C129 1.247 . S
O139 Co126 2.244 . S
O139 C129 1.272 . S
O139 Co131 2.135 . S
Co140 O141 2.216 . S
Co140 O142 2.091 . S
Co140 O144 2.004 . S
Co140 O150 2.021 . S
Co140 O152 2.137 . S
Co140 O153 2.244 . S
O141 Co140 2.216 . S
O141 C148 1.247 . S
O142 Co140 2.091 . S
O142 C148 1.261 . S
C143 O152 1.247 . S
C143 O153 1.272 . S
O144 Co140 2.004 . S
O144 C149 1.259 . S
Co145 O146 2.061 . S
Co145 O151 2.052 . S
Co145 O153 2.135 . S
O146 Co145 2.061 . S
O146 C149 1.235 . S
C147 O150 1.238 . S
C147 O151 1.241 . S
C148 O141 1.247 . S
C148 O142 1.261 . S
C149 O144 1.259 . S
C149 O146 1.235 . S
O150 Co140 2.021 . S
O150 C147 1.238 . S
O151 Co145 2.052 . S
O151 C147 1.241 . S
O152 Co140 2.137 . S
O152 C143 1.247 . S
O153 Co140 2.244 . S
O153 C143 1.272 . S
O153 Co145 2.135 . S
Co154 O155 2.216 . S
Co154 O156 2.091 . S
Co154 O158 2.004 . S
Co154 O164 2.021 . S
Co154 O166 2.137 . S
Co154 O167 2.244 . S
O155 Co154 2.216 . S
O155 C162 1.247 . S
O156 Co154 2.091 . S
O156 C162 1.261 . S
C157 O166 1.247 . S
C157 O167 1.272 . S
O158 Co154 2.004 . S
O158 C163 1.259 . S
Co159 O160 2.061 . S
Co159 O165 2.052 . S
Co159 O167 2.135 . S
O160 Co159 2.061 . S
O160 C163 1.235 . S
C161 O164 1.238 . S
C161 O165 1.241 . S
C162 O155 1.247 . S
C162 O156 1.261 . S
C163 O158 1.259 . S
C163 O160 1.235 . S
O164 Co154 2.021 . S
O164 C161 1.238 . S
O165 Co159 2.052 . S
O165 C161 1.241 . S
O166 Co154 2.137 . S
O166 C157 1.247 . S
O167 Co154 2.244 . S
O167 C157 1.272 . S
O167 Co159 2.135 . S
Co168 O169 2.216 . S
Co168 O170 2.091 . S
Co168 O172 2.004 . S
Co168 O178 2.021 . S
Co168 O180 2.137 . S
Co168 O181 2.244 . S
O169 Co168 2.216 . S
O169 C176 1.247 . S
O170 Co168 2.091 . S
O170 C176 1.261 . S
C171 O180 1.247 . S
C171 O181 1.272 . S
O172 Co168 2.004 . S
O172 C177 1.259 . S
Co173 O174 2.061 . S
Co173 O179 2.052 . S
Co173 O181 2.135 . S
O174 Co173 2.061 . S
O174 C177 1.235 . S
C175 O178 1.238 . S
C175 O179 1.241 . S
C176 O169 1.247 . S
C176 O170 1.261 . S
C177 O172 1.259 . S
C177 O174 1.235 . S
O178 Co168 2.021 . S
O178 C175 1.238 . S
O179 Co173 2.052 . S
O179 C175 1.241 . S
O180 Co168 2.137 . S
O180 C171 1.247 . S
O181 Co168 2.244 . S
O181 C171 1.272 . S
O181 Co173 2.135 . S
Co182 O183 2.216 . S
Co182 O184 2.091 . S
Co182 O186 2.004 . S
Co182 O192 2.021 . S
Co182 O194 2.137 . S
Co182 O195 2.244 . S
O183 Co182 2.216 . S
O183 C190 1.247 . S
O184 Co182 2.091 . S
O184 C190 1.261 . S
C185 O194 1.247 . S
C185 O195 1.272 . S
O186 Co182 2.004 . S
O186 C191 1.259 . S
Co187 O188 2.061 . S
Co187 O193 2.052 . S
Co187 O195 2.135 . S
O188 Co187 2.061 . S
O188 C191 1.235 . S
C189 O192 1.238 . S
C189 O193 1.241 . S
C190 O183 1.247 . S
C190 O184 1.261 . S
C191 O186 1.259 . S
C191 O188 1.235 . S
O192 Co182 2.021 . S
O192 C189 1.238 . S
O193 Co187 2.052 . S
O193 C189 1.241 . S
O194 Co182 2.137 . S
O194 C185 1.247 . S
O195 Co182 2.244 . S
O195 C185 1.272 . S
O195 Co187 2.135 . S
Co196 O197 2.216 . S
Co196 O198 2.091 . S
Co196 O200 2.004 . S
Co196 O206 2.021 . S
Co196 O208 2.137 . S
Co196 O209 2.244 . S
O197 Co196 2.216 . S
O197 C204 1.247 . S
O198 Co196 2.091 . S
O198 C204 1.261 . S
C199 O208 1.247 . S
C199 O209 1.272 . S
O200 Co196 2.004 . S
O200 C205 1.259 . S
Co201 O202 2.061 . S
Co201 O207 2.052 . S
Co201 O209 2.135 . S
O202 Co201 2.061 . S
O202 C205 1.235 . S
C203 O206 1.238 . S
C203 O207 1.241 . S
C204 O197 1.247 . S
C204 O198 1.261 . S
C205 O200 1.259 . S
C205 O202 1.235 . S
O206 Co196 2.021 . S
O206 C203 1.238 . S
O207 Co201 2.052 . S
O207 C203 1.241 . S
O208 Co196 2.137 . S
O208 C199 1.247 . S
O209 Co196 2.244 . S
O209 C199 1.272 . S
O209 Co201 2.135 . S
Co210 O211 2.216 . S
Co210 O212 2.091 . S
Co210 O214 2.004 . S
Co210 O220 2.021 . S
Co210 O222 2.137 . S
Co210 O223 2.244 . S
O211 Co210 2.216 . S
O211 C218 1.247 . S
O212 Co210 2.091 . S
O212 C218 1.261 . S
C213 O222 1.247 . S
C213 O223 1.272 . S
O214 Co210 2.004 . S
O214 C219 1.259 . S
Co215 O216 2.061 . S
Co215 O221 2.052 . S
Co215 O223 2.135 . S
O216 Co215 2.061 . S
O216 C219 1.235 . S
C217 O220 1.238 . S
C217 O221 1.241 . S
C218 O211 1.247 . S
C218 O212 1.261 . S
C219 O214 1.259 . S
C219 O216 1.235 . S
O220 Co210 2.021 . S
O220 C217 1.238 . S
O221 Co215 2.052 . S
O221 C217 1.241 . S
O222 Co210 2.137 . S
O222 C213 1.247 . S
O223 Co210 2.244 . S
O223 C213 1.272 . S
O223 Co215 2.135 . S
Co224 O225 2.216 . S
Co224 O226 2.091 . S
Co224 O228 2.004 . S
Co224 O234 2.021 . S
Co224 O236 2.137 . S
Co224 O237 2.244 . S
O225 Co224 2.216 . S
O225 C232 1.247 . S
O226 Co224 2.091 . S
O226 C232 1.261 . S
C227 O236 1.247 . S
C227 O237 1.272 . S
O228 Co224 2.004 . S
O228 C233 1.259 . S
Co229 O230 2.061 . S
Co229 O235 2.052 . S
Co229 O237 2.135 . S
O230 Co229 2.061 . S
O230 C233 1.235 . S
C231 O234 1.238 . S
C231 O235 1.241 . S
C232 O225 1.247 . S
C232 O226 1.261 . S
C233 O228 1.259 . S
C233 O230 1.235 . S
O234 Co224 2.021 . S
O234 C231 1.238 . S
O235 Co229 2.052 . S
O235 C231 1.241 . S
O236 Co224 2.137 . S
O236 C227 1.247 . S
O237 Co224 2.244 . S
O237 C227 1.272 . S
O237 Co229 2.135 . S
Co238 O239 2.216 . S
Co238 O240 2.091 . S
Co238 O242 2.004 . S
Co238 O248 2.021 . S
Co238 O250 2.137 . S
Co238 O251 2.244 . S
O239 Co238 2.216 . S
O239 C246 1.247 . S
O240 Co238 2.091 . S
O240 C246 1.261 . S
C241 O250 1.247 . S
C241 O251 1.272 . S
O242 Co238 2.004 . S
O242 C247 1.259 . S
Co243 O244 2.061 . S
Co243 O249 2.052 . S
Co243 O251 2.135 . S
O244 Co243 2.061 . S
O244 C247 1.235 . S
C245 O248 1.238 . S
C245 O249 1.241 . S
C246 O239 1.247 . S
C246 O240 1.261 . S
C247 O242 1.259 . S
C247 O244 1.235 . S
O248 Co238 2.021 . S
O248 C245 1.238 . S
O249 Co243 2.052 . S
O249 C245 1.241 . S
O250 Co238 2.137 . S
O250 C241 1.247 . S
O251 Co238 2.244 . S
O251 C241 1.272 . S
O251 Co243 2.135 . S
Co252 O253 2.216 . S
Co252 O254 2.091 . S
Co252 O256 2.004 . S
Co252 O262 2.021 . S
Co252 O264 2.137 . S
Co252 O265 2.244 . S
O253 Co252 2.216 . S
O253 C260 1.247 . S
O254 Co252 2.091 . S
O254 C260 1.261 . S
C255 O264 1.247 . S
C255 O265 1.272 . S
O256 Co252 2.004 . S
O256 C261 1.259 . S
Co257 O258 2.061 . S
Co257 O263 2.052 . S
Co257 O265 2.135 . S
O258 Co257 2.061 . S
O258 C261 1.235 . S
C259 O262 1.238 . S
C259 O263 1.241 . S
C260 O253 1.247 . S
C260 O254 1.261 . S
C261 O256 1.259 . S
C261 O258 1.235 . S
O262 Co252 2.021 . S
O262 C259 1.238 . S
O263 Co257 2.052 . S
O263 C259 1.241 . S
O264 Co252 2.137 . S
O264 C255 1.247 . S
O265 Co252 2.244 . S
O265 C255 1.272 . S
O265 Co257 2.135 . S
Co266 O267 2.216 . S
Co266 O268 2.091 . S
Co266 O270 2.004 . S
Co266 O276 2.021 . S
Co266 O278 2.137 . S
Co266 O279 2.244 . S
O267 Co266 2.216 . S
O267 C274 1.247 . S
O268 Co266 2.091 . S
O268 C274 1.261 . S
C269 O278 1.247 . S
C269 O279 1.272 . S
O270 Co266 2.004 . S
O270 C275 1.259 . S
Co271 O272 2.061 . S
Co271 O277 2.052 . S
Co271 O279 2.135 . S
O272 Co271 2.061 . S
O272 C275 1.235 . S
C273 O276 1.238 . S
C273 O277 1.241 . S
C274 O267 1.247 . S
C274 O268 1.261 . S
C275 O270 1.259 . S
C275 O272 1.235 . S
O276 Co266 2.021 . S
O276 C273 1.238 . S
O277 Co271 2.052 . S
O277 C273 1.241 . S
O278 Co266 2.137 . S
O278 C269 1.247 . S
O279 Co266 2.244 . S
O279 C269 1.272 . S
O279 Co271 2.135 . S
Co280 O281 2.216 . S
Co280 O282 2.091 . S
Co280 O284 2.004 . S
Co280 O290 2.021 . S
Co280 O292 2.137 . S
Co280 O293 2.244 . S
O281 Co280 2.216 . S
O281 C288 1.247 . S
O282 Co280 2.091 . S
O282 C288 1.261 . S
C283 O292 1.247 . S
C283 O293 1.272 . S
O284 Co280 2.004 . S
O284 C289 1.259 . S
Co285 O286 2.061 . S
Co285 O291 2.052 . S
Co285 O293 2.135 . S
O286 Co285 2.061 . S
O286 C289 1.235 . S
C287 O290 1.238 . S
C287 O291 1.241 . S
C288 O281 1.247 . S
C288 O282 1.261 . S
C289 O284 1.259 . S
C289 O286 1.235 . S
O290 Co280 2.021 . S
O290 C287 1.238 . S
O291 Co285 2.052 . S
O291 C287 1.241 . S
O292 Co280 2.137 . S
O292 C283 1.247 . S
O293 Co280 2.244 . S
O293 C283 1.272 . S
O293 Co285 2.135 . S
Co294 O295 2.216 . S
Co294 O296 2.091 . S
Co294 O298 2.004 . S
Co294 O304 2.021 . S
Co294 O306 2.137 . S
Co294 O307 2.244 . S
O295 Co294 2.216 . S
O295 C302 1.247 . S
O296 Co294 2.091 . S
O296 C302 1.261 . S
C297 O306 1.247 . S
C297 O307 1.272 . S
O298 Co294 2.004 . S
O298 C303 1.259 . S
Co299 O300 2.061 . S
Co299 O305 2.052 . S
Co299 O307 2.135 . S
O300 Co299 2.061 . S
O300 C303 1.235 . S
C301 O304 1.238 . S
C301 O305 1.241 . S
C302 O295 1.247 . S
C302 O296 1.261 . S
C303 O298 1.259 . S
C303 O300 1.235 . S
O304 Co294 2.021 . S
O304 C301 1.238 . S
O305 Co299 2.052 . S
O305 C301 1.241 . S
O306 Co294 2.137 . S
O306 C297 1.247 . S
O307 Co294 2.244 . S
O307 C297 1.272 . S
O307 Co299 2.135 . S
Co308 O309 2.216 . S
Co308 O310 2.091 . S
Co308 O312 2.004 . S
Co308 O318 2.021 . S
Co308 O320 2.137 . S
Co308 O321 2.244 . S
O309 Co308 2.216 . S
O309 C316 1.247 . S
O310 Co308 2.091 . S
O310 C316 1.261 . S
C311 O320 1.247 . S
C311 O321 1.272 . S
O312 Co308 2.004 . S
O312 C317 1.259 . S
Co313 O314 2.061 . S
Co313 O319 2.052 . S
Co313 O321 2.135 . S
O314 Co313 2.061 . S
O314 C317 1.235 . S
C315 O318 1.238 . S
C315 O319 1.241 . S
C316 O309 1.247 . S
C316 O310 1.261 . S
C317 O312 1.259 . S
C317 O314 1.235 . S
O318 Co308 2.021 . S
O318 C315 1.238 . S
O319 Co313 2.052 . S
O319 C315 1.241 . S
O320 Co308 2.137 . S
O320 C311 1.247 . S
O321 Co308 2.244 . S
O321 C311 1.272 . S
O321 Co313 2.135 . S
Co322 O323 2.216 . S
Co322 O324 2.091 . S
Co322 O326 2.004 . S
Co322 O332 2.021 . S
Co322 O334 2.137 . S
Co322 O335 2.244 . S
O323 Co322 2.216 . S
O323 C330 1.247 . S
O324 Co322 2.091 . S
O324 C330 1.261 . S
C325 O334 1.247 . S
C325 O335 1.272 . S
O326 Co322 2.004 . S
O326 C331 1.259 . S
Co327 O328 2.061 . S
Co327 O333 2.052 . S
Co327 O335 2.135 . S
O328 Co327 2.061 . S
O328 C331 1.235 . S
C329 O332 1.238 . S
C329 O333 1.241 . S
C330 O323 1.247 . S
C330 O324 1.261 . S
C331 O326 1.259 . S
C331 O328 1.235 . S
O332 Co322 2.021 . S
O332 C329 1.238 . S
O333 Co327 2.052 . S
O333 C329 1.241 . S
O334 Co322 2.137 . S
O334 C325 1.247 . S
O335 Co322 2.244 . S
O335 C325 1.272 . S
O335 Co327 2.135 . S
Co336 O337 2.216 . S
Co336 O338 2.091 . S
Co336 O340 2.004 . S
Co336 O346 2.021 . S
Co336 O348 2.137 . S
Co336 O349 2.244 . S
O337 Co336 2.216 . S
O337 C344 1.247 . S
O338 Co336 2.091 . S
O338 C344 1.261 . S
C339 O348 1.247 . S
C339 O349 1.272 . S
O340 Co336 2.004 . S
O340 C345 1.259 . S
Co341 O342 2.061 . S
Co341 O347 2.052 . S
Co341 O349 2.135 . S
O342 Co341 2.061 . S
O342 C345 1.235 . S
C343 O346 1.238 . S
C343 O347 1.241 . S
C344 O337 1.247 . S
C344 O338 1.261 . S
C345 O340 1.259 . S
C345 O342 1.235 . S
O346 Co336 2.021 . S
O346 C343 1.238 . S
O347 Co341 2.052 . S
O347 C343 1.241 . S
O348 Co336 2.137 . S
O348 C339 1.247 . S
O349 Co336 2.244 . S
O349 C339 1.272 . S
O349 Co341 2.135 . S
Co350 O351 2.216 . S
Co350 O352 2.091 . S
Co350 O354 2.004 . S
Co350 O360 2.021 . S
Co350 O362 2.137 . S
Co350 O363 2.244 . S
O351 Co350 2.216 . S
O351 C358 1.247 . S
O352 Co350 2.091 . S
O352 C358 1.261 . S
C353 O362 1.247 . S
C353 O363 1.272 . S
O354 Co350 2.004 . S
O354 C359 1.259 . S
Co355 O356 2.061 . S
Co355 O361 2.052 . S
Co355 O363 2.135 . S
O356 Co355 2.061 . S
O356 C359 1.235 . S
C357 O360 1.238 . S
C357 O361 1.241 . S
C358 O351 1.247 . S
C358 O352 1.261 . S
C359 O354 1.259 . S
C359 O356 1.235 . S
O360 Co350 2.021 . S
O360 C357 1.238 . S
O361 Co355 2.052 . S
O361 C357 1.241 . S
O362 Co350 2.137 . S
O362 C353 1.247 . S
O363 Co350 2.244 . S
O363 C353 1.272 . S
O363 Co355 2.135 . S
Co364 O365 2.216 . S
Co364 O366 2.091 . S
Co364 O368 2.004 . S
Co364 O374 2.021 . S
Co364 O376 2.137 . S
Co364 O377 2.244 . S
O365 Co364 2.216 . S
O365 C372 1.247 . S
O366 Co364 2.091 . S
O366 C372 1.261 . S
C367 O376 1.247 . S
C367 O377 1.272 . S
O368 Co364 2.004 . S
O368 C373 1.259 . S
Co369 O370 2.061 . S
Co369 O375 2.052 . S
Co369 O377 2.135 . S
O370 Co369 2.061 . S
O370 C373 1.235 . S
C371 O374 1.238 . S
C371 O375 1.241 . S
C372 O365 1.247 . S
C372 O366 1.261 . S
C373 O368 1.259 . S
C373 O370 1.235 . S
O374 Co364 2.021 . S
O374 C371 1.238 . S
O375 Co369 2.052 . S
O375 C371 1.241 . S
O376 Co364 2.137 . S
O376 C367 1.247 . S
O377 Co364 2.244 . S
O377 C367 1.272 . S
O377 Co369 2.135 . S
Co378 O379 2.216 . S
Co378 O380 2.091 . S
Co378 O382 2.004 . S
Co378 O388 2.021 . S
Co378 O390 2.137 . S
Co378 O391 2.244 . S
O379 Co378 2.216 . S
O379 C386 1.247 . S
O380 Co378 2.091 . S
O380 C386 1.261 . S
C381 O390 1.247 . S
C381 O391 1.272 . S
O382 Co378 2.004 . S
O382 C387 1.259 . S
Co383 O384 2.061 . S
Co383 O389 2.052 . S
Co383 O391 2.135 . S
O384 Co383 2.061 . S
O384 C387 1.235 . S
C385 O388 1.238 . S
C385 O389 1.241 . S
C386 O379 1.247 . S
C386 O380 1.261 . S
C387 O382 1.259 . S
C387 O384 1.235 . S
O388 Co378 2.021 . S
O388 C385 1.238 . S
O389 Co383 2.052 . S
O389 C385 1.241 . S
O390 Co378 2.137 . S
O390 C381 1.247 . S
O391 Co378 2.244 . S
O391 C381 1.272 . S
O391 Co383 2.135 . S
Co392 O393 2.216 . S
Co392 O394 2.091 . S
Co392 O396 2.004 . S
Co392 O402 2.021 . S
Co392 O404 2.137 . S
Co392 O405 2.244 . S
O393 Co392 2.216 . S
O393 C400 1.247 . S
O394 Co392 2.091 . S
O394 C400 1.261 . S
C395 O404 1.247 . S
C395 O405 1.272 . S
O396 Co392 2.004 . S
O396 C401 1.259 . S
Co397 O398 2.061 . S
Co397 O403 2.052 . S
Co397 O405 2.135 . S
O398 Co397 2.061 . S
O398 C401 1.235 . S
C399 O402 1.238 . S
C399 O403 1.241 . S
C400 O393 1.247 . S
C400 O394 1.261 . S
C401 O396 1.259 . S
C401 O398 1.235 . S
O402 Co392 2.021 . S
O402 C399 1.238 . S
O403 Co397 2.052 . S
O403 C399 1.241 . S
O404 Co392 2.137 . S
O404 C395 1.247 . S
O405 Co392 2.244 . S
O405 C395 1.272 . S
O405 Co397 2.135 . S
Co406 O407 2.216 . S
Co406 O408 2.091 . S
Co406 O410 2.004 . S
Co406 O416 2.021 . S
Co406 O418 2.137 . S
Co406 O419 2.244 . S
O407 Co406 2.216 . S
O407 C414 1.247 . S
O408 Co406 2.091 . S
O408 C414 1.261 . S
C409 O418 1.247 . S
C409 O419 1.272 . S
O410 Co406 2.004 . S
O410 C415 1.259 . S
Co411 O412 2.061 . S
Co411 O417 2.052 . S
Co411 O419 2.135 . S
O412 Co411 2.061 . S
O412 C415 1.235 . S
C413 O416 1.238 . S
C413 O417 1.241 . S
C414 O407 1.247 . S
C414 O408 1.261 . S
C415 O410 1.259 . S
C415 O412 1.235 . S
O416 Co406 2.021 . S
O416 C413 1.238 . S
O417 Co411 2.052 . S
O417 C413 1.241 . S
O418 Co406 2.137 . S
O418 C409 1.247 . S
O419 Co406 2.244 . S
O419 C409 1.272 . S
O419 Co411 2.135 . S
Co420 O421 2.216 . S
Co420 O422 2.091 . S
Co420 O424 2.004 . S
Co420 O430 2.021 . S
Co420 O432 2.137 . S
Co420 O433 2.244 . S
O421 Co420 2.216 . S
O421 C428 1.247 . S
O422 Co420 2.091 . S
O422 C428 1.261 . S
C423 O432 1.247 . S
C423 O433 1.272 . S
O424 Co420 2.004 . S
O424 C429 1.259 . S
Co425 O426 2.061 . S
Co425 O431 2.052 . S
Co425 O433 2.135 . S
O426 Co425 2.061 . S
O426 C429 1.235 . S
C427 O430 1.238 . S
C427 O431 1.241 . S
C428 O421 1.247 . S
C428 O422 1.261 . S
C429 O424 1.259 . S
C429 O426 1.235 . S
O430 Co420 2.021 . S
O430 C427 1.238 . S
O431 Co425 2.052 . S
O431 C427 1.241 . S
O432 Co420 2.137 . S
O432 C423 1.247 . S
O433 Co420 2.244 . S
O433 C423 1.272 . S
O433 Co425 2.135 . S
Co434 O435 2.216 . S
Co434 O436 2.091 . S
Co434 O438 2.004 . S
Co434 O444 2.021 . S
Co434 O446 2.137 . S
Co434 O447 2.244 . S
O435 Co434 2.216 . S
O435 C442 1.247 . S
O436 Co434 2.091 . S
O436 C442 1.261 . S
C437 O446 1.247 . S
C437 O447 1.272 . S
O438 Co434 2.004 . S
O438 C443 1.259 . S
Co439 O440 2.061 . S
Co439 O445 2.052 . S
Co439 O447 2.135 . S
O440 Co439 2.061 . S
O440 C443 1.235 . S
C441 O444 1.238 . S
C441 O445 1.241 . S
C442 O435 1.247 . S
C442 O436 1.261 . S
C443 O438 1.259 . S
C443 O440 1.235 . S
O444 Co434 2.021 . S
O444 C441 1.238 . S
O445 Co439 2.052 . S
O445 C441 1.241 . S
O446 Co434 2.137 . S
O446 C437 1.247 . S
O447 Co434 2.244 . S
O447 C437 1.272 . S
O447 Co439 2.135 . S
Co448 O449 2.216 . S
Co448 O450 2.091 . S
Co448 O452 2.004 . S
Co448 O458 2.021 . S
Co448 O460 2.137 . S
Co448 O461 2.244 . S
O449 Co448 2.216 . S
O449 C456 1.247 . S
O450 Co448 2.091 . S
O450 C456 1.261 . S
C451 O460 1.247 . S
C451 O461 1.272 . S
O452 Co448 2.004 . S
O452 C457 1.259 . S
Co453 O454 2.061 . S
Co453 O459 2.052 . S
Co453 O461 2.135 . S
O454 Co453 2.061 . S
O454 C457 1.235 . S
C455 O458 1.238 . S
C455 O459 1.241 . S
C456 O449 1.247 . S
C456 O450 1.261 . S
C457 O452 1.259 . S
C457 O454 1.235 . S
O458 Co448 2.021 . S
O458 C455 1.238 . S
O459 Co453 2.052 . S
O459 C455 1.241 . S
O460 Co448 2.137 . S
O460 C451 1.247 . S
O461 Co448 2.244 . S
O461 C451 1.272 . S
O461 Co453 2.135 . S
Co462 O463 2.216 . S
Co462 O464 2.091 . S
Co462 O466 2.004 . S
Co462 O472 2.021 . S
Co462 O474 2.137 . S
Co462 O475 2.244 . S
O463 Co462 2.216 . S
O463 C470 1.247 . S
O464 Co462 2.091 . S
O464 C470 1.261 . S
C465 O474 1.247 . S
C465 O475 1.272 . S
O466 Co462 2.004 . S
O466 C471 1.259 . S
Co467 O468 2.061 . S
Co467 O473 2.052 . S
Co467 O475 2.135 . S
O468 Co467 2.061 . S
O468 C471 1.235 . S
C469 O472 1.238 . S
C469 O473 1.241 . S
C470 O463 1.247 . S
C470 O464 1.261 . S
C471 O466 1.259 . S
C471 O468 1.235 . S
O472 Co462 2.021 . S
O472 C469 1.238 . S
O473 Co467 2.052 . S
O473 C469 1.241 . S
O474 Co462 2.137 . S
O474 C465 1.247 . S
O475 Co462 2.244 . S
O475 C465 1.272 . S
O475 Co467 2.135 . S
Co476 O477 2.216 . S
Co476 O478 2.091 . S
Co476 O480 2.004 . S
Co476 O486 2.021 . S
Co476 O488 2.137 . S
Co476 O489 2.244 . S
O477 Co476 2.216 . S
O477 C484 1.247 . S
O478 Co476 2.091 . S
O478 C484 1.261 . S
C479 O488 1.247 . S
C479 O489 1.272 . S
O480 Co476 2.004 . S
O480 C485 1.259 . S
Co481 O482 2.061 . S
Co481 O487 2.052 . S
Co481 O489 2.135 . S
O482 Co481 2.061 . S
O482 C485 1.235 . S
C483 O486 1.238 . S
C483 O487 1.241 . S
C484 O477 1.247 . S
C484 O478 1.261 . S
C485 O480 1.259 . S
C485 O482 1.235 . S
O486 Co476 2.021 . S
O486 C483 1.238 . S
O487 Co481 2.052 . S
O487 C483 1.241 . S
O488 Co476 2.137 . S
O488 C479 1.247 . S
O489 Co476 2.244 . S
O489 C479 1.272 . S
O489 Co481 2.135 . S
Co490 O491 2.216 . S
Co490 O492 2.091 . S
Co490 O494 2.004 . S
Co490 O500 2.021 . S
Co490 O502 2.137 . S
Co490 O503 2.244 . S
O491 Co490 2.216 . S
O491 C498 1.247 . S
O492 Co490 2.091 . S
O492 C498 1.261 . S
C493 O502 1.247 . S
C493 O503 1.272 . S
O494 Co490 2.004 . S
O494 C499 1.259 . S
Co495 O496 2.061 . S
Co495 O501 2.052 . S
Co495 O503 2.135 . S
O496 Co495 2.061 . S
O496 C499 1.235 . S
C497 O500 1.238 . S
C497 O501 1.241 . S
C498 O491 1.247 . S
C498 O492 1.261 . S
C499 O494 1.259 . S
C499 O496 1.235 . S
O500 Co490 2.021 . S
O500 C497 1.238 . S
O501 Co495 2.052 . S
O501 C497 1.241 . S
O502 Co490 2.137 . S
O502 C493 1.247 . S
O503 Co490 2.244 . S
O503 C493 1.272 . S
O503 Co495 2.135 . S
Co504 O505 2.216 . S
Co504 O506 2.091 . S
Co504 O508 2.004 . S
Co504 O514 2.021 . S
Co504 O516 2.137 . S
Co504 O517 2.244 . S
O505 Co504 2.216 . S
O505 C512 1.247 . S
O506 Co504 2.091 . S
O506 C512 1.261 . S
C507 O516 1.247 . S
C507 O517 1.272 . S
O508 Co504 2.004 . S
O508 C513 1.259 . S
Co509 O510 2.061 . S
Co509 O515 2.052 . S
Co509 O517 2.135 . S
O510 Co509 2.061 . S
O510 C513 1.235 . S
C511 O514 1.238 . S
C511 O515 1.241 . S
C512 O505 1.247 . S
C512 O506 1.261 . S
C513 O508 1.259 . S
C513 O510 1.235 . S
O514 Co504 2.021 . S
O514 C511 1.238 . S
O515 Co509 2.052 . S
O515 C511 1.241 . S
O516 Co504 2.137 . S
O516 C507 1.247 . S
O517 Co504 2.244 . S
O517 C507 1.272 . S
O517 Co509 2.135 . S
Co518 O519 2.216 . S
Co518 O520 2.091 . S
Co518 O522 2.004 . S
Co518 O528 2.021 . S
Co518 O530 2.137 . S
Co518 O531 2.244 . S
O519 Co518 2.216 . S
O519 C526 1.247 . S
O520 Co518 2.091 . S
O520 C526 1.261 . S
C521 O530 1.247 . S
C521 O531 1.272 . S
O522 Co518 2.004 . S
O522 C527 1.259 . S
Co523 O524 2.061 . S
Co523 O529 2.052 . S
Co523 O531 2.135 . S
O524 Co523 2.061 . S
O524 C527 1.235 . S
C525 O528 1.238 . S
C525 O529 1.241 . S
C526 O519 1.247 . S
C526 O520 1.261 . S
C527 O522 1.259 . S
C527 O524 1.235 . S
O528 Co518 2.021 . S
O528 C525 1.238 . S
O529 Co523 2.052 . S
O529 C525 1.241 . S
O530 Co518 2.137 . S
O530 C521 1.247 . S
O531 Co518 2.244 . S
O531 C521 1.272 . S
O531 Co523 2.135 . S
Co532 O533 2.216 . S
Co532 O534 2.091 . S
Co532 O536 2.004 . S
Co532 O542 2.021 . S
Co532 O544 2.137 . S
Co532 O545 2.244 . S
O533 Co532 2.216 . S
O533 C540 1.247 . S
O534 Co532 2.091 . S
O534 C540 1.261 . S
C535 O544 1.247 . S
C535 O545 1.272 . S
O536 Co532 2.004 . S
O536 C541 1.259 . S
Co537 O538 2.061 . S
Co537 O543 2.052 . S
Co537 O545 2.135 . S
O538 Co537 2.061 . S
O538 C541 1.235 . S
C539 O542 1.238 . S
C539 O543 1.241 . S
C540 O533 1.247 . S
C540 O534 1.261 . S
C541 O536 1.259 . S
C541 O538 1.235 . S
O542 Co532 2.021 . S
O542 C539 1.238 . S
O543 Co537 2.052 . S
O543 C539 1.241 . S
O544 Co532 2.137 . S
O544 C535 1.247 . S
O545 Co532 2.244 . S
O545 C535 1.272 . S
O545 Co537 2.135 . S
Co546 O547 2.216 . S
Co546 O548 2.091 . S
Co546 O550 2.004 . S
Co546 O556 2.021 . S
Co546 O558 2.137 . S
Co546 O559 2.244 . S
O547 Co546 2.216 . S
O547 C554 1.247 . S
O548 Co546 2.091 . S
O548 C554 1.261 . S
C549 O558 1.247 . S
C549 O559 1.272 . S
O550 Co546 2.004 . S
O550 C555 1.259 . S
Co551 O552 2.061 . S
Co551 O557 2.052 . S
Co551 O559 2.135 . S
O552 Co551 2.061 . S
O552 C555 1.235 . S
C553 O556 1.238 . S
C553 O557 1.241 . S
C554 O547 1.247 . S
C554 O548 1.261 . S
C555 O550 1.259 . S
C555 O552 1.235 . S
O556 Co546 2.021 . S
O556 C553 1.238 . S
O557 Co551 2.052 . S
O557 C553 1.241 . S
O558 Co546 2.137 . S
O558 C549 1.247 . S
O559 Co546 2.244 . S
O559 C549 1.272 . S
O559 Co551 2.135 . S
Co560 O561 2.216 . S
Co560 O562 2.091 . S
Co560 O564 2.004 . S
Co560 O570 2.021 . S
Co560 O572 2.137 . S
Co560 O573 2.244 . S
O561 Co560 2.216 . S
O561 C568 1.247 . S
O562 Co560 2.091 . S
O562 C568 1.261 . S
C563 O572 1.247 . S
C563 O573 1.272 . S
O564 Co560 2.004 . S
O564 C569 1.259 . S
Co565 O566 2.061 . S
Co565 O571 2.052 . S
Co565 O573 2.135 . S
O566 Co565 2.061 . S
O566 C569 1.235 . S
C567 O570 1.238 . S
C567 O571 1.241 . S
C568 O561 1.247 . S
C568 O562 1.261 . S
C569 O564 1.259 . S
C569 O566 1.235 . S
O570 Co560 2.021 . S
O570 C567 1.238 . S
O571 Co565 2.052 . S
O571 C567 1.241 . S
O572 Co560 2.137 . S
O572 C563 1.247 . S
O573 Co560 2.244 . S
O573 C563 1.272 . S
O573 Co565 2.135 . S
Co574 O575 2.216 . S
Co574 O576 2.091 . S
Co574 O578 2.004 . S
Co574 O584 2.021 . S
Co574 O586 2.137 . S
Co574 O587 2.244 . S
O575 Co574 2.216 . S
O575 C582 1.247 . S
O576 Co574 2.091 . S
O576 C582 1.261 . S
C577 O586 1.247 . S
C577 O587 1.272 . S
O578 Co574 2.004 . S
O578 C583 1.259 . S
Co579 O580 2.061 . S
Co579 O585 2.052 . S
Co579 O587 2.135 . S
O580 Co579 2.061 . S
O580 C583 1.235 . S
C581 O584 1.238 . S
C581 O585 1.241 . S
C582 O575 1.247 . S
C582 O576 1.261 . S
C583 O578 1.259 . S
C583 O580 1.235 . S
O584 Co574 2.021 . S
O584 C581 1.238 . S
O585 Co579 2.052 . S
O585 C581 1.241 . S
O586 Co574 2.137 . S
O586 C577 1.247 . S
O587 Co574 2.244 . S
O587 C577 1.272 . S
O587 Co579 2.135 . S
Co588 O589 2.216 . S
Co588 O590 2.091 . S
Co588 O592 2.004 . S
Co588 O598 2.021 . S
Co588 O600 2.137 . S
Co588 O601 2.244 . S
O589 Co588 2.216 . S
O589 C596 1.247 . S
O590 Co588 2.091 . S
O590 C596 1.261 . S
C591 O600 1.247 . S
C591 O601 1.272 . S
O592 Co588 2.004 . S
O592 C597 1.259 . S
Co593 O594 2.061 . S
Co593 O599 2.052 . S
Co593 O601 2.135 . S
O594 Co593 2.061 . S
O594 C597 1.235 . S
C595 O598 1.238 . S
C595 O599 1.241 . S
C596 O589 1.247 . S
C596 O590 1.261 . S
C597 O592 1.259 . S
C597 O594 1.235 . S
O598 Co588 2.021 . S
O598 C595 1.238 . S
O599 Co593 2.052 . S
O599 C595 1.241 . S
O600 Co588 2.137 . S
O600 C591 1.247 . S
O601 Co588 2.244 . S
O601 C591 1.272 . S
O601 Co593 2.135 . S
Co602 O603 2.216 . S
Co602 O604 2.091 . S
Co602 O606 2.004 . S
Co602 O612 2.021 . S
Co602 O614 2.137 . S
Co602 O615 2.244 . S
O603 Co602 2.216 . S
O603 C610 1.247 . S
O604 Co602 2.091 . S
O604 C610 1.261 . S
C605 O614 1.247 . S
C605 O615 1.272 . S
O606 Co602 2.004 . S
O606 C611 1.259 . S
Co607 O608 2.061 . S
Co607 O613 2.052 . S
Co607 O615 2.135 . S
O608 Co607 2.061 . S
O608 C611 1.235 . S
C609 O612 1.238 . S
C609 O613 1.241 . S
C610 O603 1.247 . S
C610 O604 1.261 . S
C611 O606 1.259 . S
C611 O608 1.235 . S
O612 Co602 2.021 . S
O612 C609 1.238 . S
O613 Co607 2.052 . S
O613 C609 1.241 . S
O614 Co602 2.137 . S
O614 C605 1.247 . S
O615 Co602 2.244 . S
O615 C605 1.272 . S
O615 Co607 2.135 . S
Co616 O617 2.216 . S
Co616 O618 2.091 . S
Co616 O620 2.004 . S
Co616 O626 2.021 . S
Co616 O628 2.137 . S
Co616 O629 2.244 . S
O617 Co616 2.216 . S
O617 C624 1.247 . S
O618 Co616 2.091 . S
O618 C624 1.261 . S
C619 O628 1.247 . S
C619 O629 1.272 . S
O620 Co616 2.004 . S
O620 C625 1.259 . S
Co621 O622 2.061 . S
Co621 O627 2.052 . S
Co621 O629 2.135 . S
O622 Co621 2.061 . S
O622 C625 1.235 . S
C623 O626 1.238 . S
C623 O627 1.241 . S
C624 O617 1.247 . S
C624 O618 1.261 . S
C625 O620 1.259 . S
C625 O622 1.235 . S
O626 Co616 2.021 . S
O626 C623 1.238 . S
O627 Co621 2.052 . S
O627 C623 1.241 . S
O628 Co616 2.137 . S
O628 C619 1.247 . S
O629 Co616 2.244 . S
O629 C619 1.272 . S
O629 Co621 2.135 . S
Co630 O631 2.216 . S
Co630 O632 2.091 . S
Co630 O634 2.004 . S
Co630 O640 2.021 . S
Co630 O642 2.137 . S
Co630 O643 2.244 . S
O631 Co630 2.216 . S
O631 C638 1.247 . S
O632 Co630 2.091 . S
O632 C638 1.261 . S
C633 O642 1.247 . S
C633 O643 1.272 . S
O634 Co630 2.004 . S
O634 C639 1.259 . S
Co635 O636 2.061 . S
Co635 O641 2.052 . S
Co635 O643 2.135 . S
O636 Co635 2.061 . S
O636 C639 1.235 . S
C637 O640 1.238 . S
C637 O641 1.241 . S
C638 O631 1.247 . S
C638 O632 1.261 . S
C639 O634 1.259 . S
C639 O636 1.235 . S
O640 Co630 2.021 . S
O640 C637 1.238 . S
O641 Co635 2.052 . S
O641 C637 1.241 . S
O642 Co630 2.137 . S
O642 C633 1.247 . S
O643 Co630 2.244 . S
O643 C633 1.272 . S
O643 Co635 2.135 . S
Co644 O645 2.216 . S
Co644 O646 2.091 . S
Co644 O648 2.004 . S
Co644 O654 2.021 . S
Co644 O656 2.137 . S
Co644 O657 2.244 . S
O645 Co644 2.216 . S
O645 C652 1.247 . S
O646 Co644 2.091 . S
O646 C652 1.261 . S
C647 O656 1.247 . S
C647 O657 1.272 . S
O648 Co644 2.004 . S
O648 C653 1.259 . S
Co649 O650 2.061 . S
Co649 O655 2.052 . S
Co649 O657 2.135 . S
O650 Co649 2.061 . S
O650 C653 1.235 . S
C651 O654 1.238 . S
C651 O655 1.241 . S
C652 O645 1.247 . S
C652 O646 1.261 . S
C653 O648 1.259 . S
C653 O650 1.235 . S
O654 Co644 2.021 . S
O654 C651 1.238 . S
O655 Co649 2.052 . S
O655 C651 1.241 . S
O656 Co644 2.137 . S
O656 C647 1.247 . S
O657 Co644 2.244 . S
O657 C647 1.272 . S
O657 Co649 2.135 . S
Co658 O659 2.216 . S
Co658 O660 2.091 . S
Co658 O662 2.004 . S
Co658 O668 2.021 . S
Co658 O670 2.137 . S
Co658 O671 2.244 . S
O659 Co658 2.216 . S
O659 C666 1.247 . S
O660 Co658 2.091 . S
O660 C666 1.261 . S
C661 O670 1.247 . S
C661 O671 1.272 . S
O662 Co658 2.004 . S
O662 C667 1.259 . S
Co663 O664 2.061 . S
Co663 O669 2.052 . S
Co663 O671 2.135 . S
O664 Co663 2.061 . S
O664 C667 1.235 . S
C665 O668 1.238 . S
C665 O669 1.241 . S
C666 O659 1.247 . S
C666 O660 1.261 . S
C667 O662 1.259 . S
C667 O664 1.235 . S
O668 Co658 2.021 . S
O668 C665 1.238 . S
O669 Co663 2.052 . S
O669 C665 1.241 . S
O670 Co658 2.137 . S
O670 C661 1.247 . S
O671 Co658 2.244 . S
O671 C661 1.272 . S
O671 Co663 2.135 . S
C672 C673 1.363 . S
C672 C678 1.379 . S
C672 N680 1.356 . S
C673 C672 1.363 . S
C673 C679 1.363 . S
C674 C675 1.363 . S
C674 C679 1.379 . S
C674 N681 1.356 . S
C675 C674 1.363 . S
C675 C678 1.363 . S
N676 C678 1.356 . S
N676 H688 0.984 . S
N676 H689 0.985 . S
N677 C679 1.356 . S
N677 H682 0.984 . S
N677 H683 0.985 . S
C678 C672 1.379 . S
C678 C675 1.363 . S
C678 N676 1.356 . S
C679 C673 1.363 . S
C679 C674 1.379 . S
C679 N677 1.356 . S
N680 C672 1.356 . S
N680 H686 0.984 . S
N680 H687 0.984 . S
N681 C674 1.356 . S
N681 H684 0.984 . S
N681 H685 0.985 . S
H682 N677 0.984 . S
H683 N677 0.985 . S
H684 N681 0.984 . S
H685 N681 0.985 . S
H686 N680 0.984 . S
H687 N680 0.984 . S
H688 N676 0.984 . S
H689 N676 0.985 . S
C690 C691 1.363 . S
C690 C696 1.379 . S
C690 N698 1.356 . S
C691 C690 1.363 . S
C691 C697 1.363 . S
C692 C693 1.363 . S
C692 C697 1.379 . S
C692 N699 1.356 . S
C693 C692 1.363 . S
C693 C696 1.363 . S
N694 C696 1.356 . S
N694 H706 0.984 . S
N694 H707 0.985 . S
N695 C697 1.356 . S
N695 H700 0.984 . S
N695 H701 0.985 . S
C696 C690 1.379 . S
C696 C693 1.363 . S
C696 N694 1.356 . S
C697 C691 1.363 . S
C697 C692 1.379 . S
C697 N695 1.356 . S
N698 C690 1.356 . S
N698 H704 0.984 . S
N698 H705 0.984 . S
N699 C692 1.356 . S
N699 H702 0.984 . S
N699 H703 0.985 . S
H700 N695 0.984 . S
H701 N695 0.985 . S
H702 N699 0.984 . S
H703 N699 0.985 . S
H704 N698 0.984 . S
H705 N698 0.984 . S
H706 N694 0.984 . S
H707 N694 0.985 . S
C708 C709 1.363 . S
C708 C714 1.379 . S
C708 N716 1.356 . S
C709 C708 1.363 . S
C709 C715 1.363 . S
C710 C711 1.363 . S
C710 C715 1.379 . S
C710 N717 1.356 . S
C711 C710 1.363 . S
C711 C714 1.363 . S
N712 C714 1.356 . S
N712 H724 0.984 . S
N712 H725 0.985 . S
N713 C715 1.356 . S
N713 H718 0.984 . S
N713 H719 0.985 . S
C714 C708 1.379 . S
C714 C711 1.363 . S
C714 N712 1.356 . S
C715 C709 1.363 . S
C715 C710 1.379 . S
C715 N713 1.356 . S
N716 C708 1.356 . S
N716 H722 0.984 . S
N716 H723 0.984 . S
N717 C710 1.356 . S
N717 H720 0.984 . S
N717 H721 0.985 . S
H718 N713 0.984 . S
H719 N713 0.985 . S
H720 N717 0.984 . S
H721 N717 0.985 . S
H722 N716 0.984 . S
H723 N716 0.984 . S
H724 N712 0.984 . S
H725 N712 0.985 . S
C726 C727 1.363 . S
C726 C732 1.379 . S
C726 N734 1.356 . S
C727 C726 1.363 . S
C727 C733 1.363 . S
C728 C729 1.363 . S
C728 C733 1.379 . S
C728 N735 1.356 . S
C729 C728 1.363 . S
C729 C732 1.363 . S
N730 C732 1.356 . S
N730 H742 0.984 . S
N730 H743 0.985 . S
N731 C733 1.356 . S
N731 H736 0.984 . S
N731 H737 0.985 . S
C732 C726 1.379 . S
C732 C729 1.363 . S
C732 N730 1.356 . S
C733 C727 1.363 . S
C733 C728 1.379 . S
C733 N731 1.356 . S
N734 C726 1.356 . S
N734 H740 0.984 . S
N734 H741 0.984 . S
N735 C728 1.356 . S
N735 H738 0.984 . S
N735 H739 0.985 . S
H736 N731 0.984 . S
H737 N731 0.985 . S
H738 N735 0.984 . S
H739 N735 0.985 . S
H740 N734 0.984 . S
H741 N734 0.984 . S
H742 N730 0.984 . S
H743 N730 0.985 . S
C744 C745 1.363 . S
C744 C750 1.379 . S
C744 N752 1.356 . S
C745 C744 1.363 . S
C745 C751 1.363 . S
C746 C747 1.363 . S
C746 C751 1.379 . S
C746 N753 1.356 . S
C747 C746 1.363 . S
C747 C750 1.363 . S
N748 C750 1.356 . S
N748 H760 0.984 . S
N748 H761 0.985 . S
N749 C751 1.356 . S
N749 H754 0.984 . S
N749 H755 0.985 . S
C750 C744 1.379 . S
C750 C747 1.363 . S
C750 N748 1.356 . S
C751 C745 1.363 . S
C751 C746 1.379 . S
C751 N749 1.356 . S
N752 C744 1.356 . S
N752 H758 0.984 . S
N752 H759 0.984 . S
N753 C746 1.356 . S
N753 H756 0.984 . S
N753 H757 0.985 . S
H754 N749 0.984 . S
H755 N749 0.985 . S
H756 N753 0.984 . S
H757 N753 0.985 . S
H758 N752 0.984 . S
H759 N752 0.984 . S
H760 N748 0.984 . S
H761 N748 0.985 . S
C762 C763 1.363 . S
C762 C768 1.379 . S
C762 N770 1.356 . S
C763 C762 1.363 . S
C763 C769 1.363 . S
C764 C765 1.363 . S
C764 C769 1.379 . S
C764 N771 1.356 . S
C765 C764 1.363 . S
C765 C768 1.363 . S
N766 C768 1.356 . S
N766 H778 0.984 . S
N766 H779 0.985 . S
N767 C769 1.356 . S
N767 H772 0.984 . S
N767 H773 0.985 . S
C768 C762 1.379 . S
C768 C765 1.363 . S
C768 N766 1.356 . S
C769 C763 1.363 . S
C769 C764 1.379 . S
C769 N767 1.356 . S
N770 C762 1.356 . S
N770 H776 0.984 . S
N770 H777 0.984 . S
N771 C764 1.356 . S
N771 H774 0.984 . S
N771 H775 0.985 . S
H772 N767 0.984 . S
H773 N767 0.985 . S
H774 N771 0.984 . S
H775 N771 0.985 . S
H776 N770 0.984 . S
H777 N770 0.984 . S
H778 N766 0.984 . S
H779 N766 0.985 . S
C780 C781 1.363 . S
C780 C786 1.379 . S
C780 N788 1.356 . S
C781 C780 1.363 . S
C781 C787 1.363 . S
C782 C783 1.363 . S
C782 C787 1.379 . S
C782 N789 1.356 . S
C783 C782 1.363 . S
C783 C786 1.363 . S
N784 C786 1.356 . S
N784 H796 0.984 . S
N784 H797 0.985 . S
N785 C787 1.356 . S
N785 H790 0.984 . S
N785 H791 0.985 . S
C786 C780 1.379 . S
C786 C783 1.363 . S
C786 N784 1.356 . S
C787 C781 1.363 . S
C787 C782 1.379 . S
C787 N785 1.356 . S
N788 C780 1.356 . S
N788 H794 0.984 . S
N788 H795 0.984 . S
N789 C782 1.356 . S
N789 H792 0.984 . S
N789 H793 0.985 . S
H790 N785 0.984 . S
H791 N785 0.985 . S
H792 N789 0.984 . S
H793 N789 0.985 . S
H794 N788 0.984 . S
H795 N788 0.984 . S
H796 N784 0.984 . S
H797 N784 0.985 . S
C798 C799 1.363 . S
C798 C804 1.379 . S
C798 N806 1.356 . S
C799 C798 1.363 . S
C799 C805 1.363 . S
C800 C801 1.363 . S
C800 C805 1.379 . S
C800 N807 1.356 . S
C801 C800 1.363 . S
C801 C804 1.363 . S
N802 C804 1.356 . S
N802 H814 0.984 . S
N802 H815 0.985 . S
N803 C805 1.356 . S
N803 H808 0.984 . S
N803 H809 0.985 . S
C804 C798 1.379 . S
C804 C801 1.363 . S
C804 N802 1.356 . S
C805 C799 1.363 . S
C805 C800 1.379 . S
C805 N803 1.356 . S
N806 C798 1.356 . S
N806 H812 0.984 . S
N806 H813 0.984 . S
N807 C800 1.356 . S
N807 H810 0.984 . S
N807 H811 0.985 . S
H808 N803 0.984 . S
H809 N803 0.985 . S
H810 N807 0.984 . S
H811 N807 0.985 . S
H812 N806 0.984 . S
H813 N806 0.984 . S
H814 N802 0.984 . S
H815 N802 0.985 . S
C816 C817 1.363 . S
C816 C822 1.379 . S
C816 N824 1.356 . S
C817 C816 1.363 . S
C817 C823 1.363 . S
C818 C819 1.363 . S
C818 C823 1.379 . S
C818 N825 1.356 . S
C819 C818 1.363 . S
C819 C822 1.363 . S
N820 C822 1.356 . S
N820 H832 0.984 . S
N820 H833 0.985 . S
N821 C823 1.356 . S
N821 H826 0.984 . S
N821 H827 0.985 . S
C822 C816 1.379 . S
C822 C819 1.363 . S
C822 N820 1.356 . S
C823 C817 1.363 . S
C823 C818 1.379 . S
C823 N821 1.356 . S
N824 C816 1.356 . S
N824 H830 0.984 . S
N824 H831 0.984 . S
N825 C818 1.356 . S
N825 H828 0.984 . S
N825 H829 0.985 . S
H826 N821 0.984 . S
H827 N821 0.985 . S
H828 N825 0.984 . S
H829 N825 0.985 . S
H830 N824 0.984 . S
H831 N824 0.984 . S
H832 N820 0.984 . S
H833 N820 0.985 . S
C834 C835 1.363 . S
C834 C840 1.379 . S
C834 N842 1.356 . S
C835 C834 1.363 . S
C835 C841 1.363 . S
C836 C837 1.363 . S
C836 C841 1.379 . S
C836 N843 1.356 . S
C837 C836 1.363 . S
C837 C840 1.363 . S
N838 C840 1.356 . S
N838 H850 0.984 . S
N838 H851 0.985 . S
N839 C841 1.356 . S
N839 H844 0.984 . S
N839 H845 0.985 . S
C840 C834 1.379 . S
C840 C837 1.363 . S
C840 N838 1.356 . S
C841 C835 1.363 . S
C841 C836 1.379 . S
C841 N839 1.356 . S
N842 C834 1.356 . S
N842 H848 0.984 . S
N842 H849 0.984 . S
N843 C836 1.356 . S
N843 H846 0.984 . S
N843 H847 0.985 . S
H844 N839 0.984 . S
H845 N839 0.985 . S
H846 N843 0.984 . S
H847 N843 0.985 . S
H848 N842 0.984 . S
H849 N842 0.984 . S
H850 N838 0.984 . S
H851 N838 0.985 . S
C852 C853 1.363 . S
C852 C858 1.379 . S
C852 N860 1.356 . S
C853 C852 1.363 . S
C853 C859 1.363 . S
C854 C855 1.363 . S
C854 C859 1.379 . S
C854 N861 1.356 . S
C855 C854 1.363 . S
C855 C858 1.363 . S
N856 C858 1.356 . S
N856 H868 0.984 . S
N856 H869 0.985 . S
N857 C859 1.356 . S
N857 H862 0.984 . S
N857 H863 0.985 . S
C858 C852 1.379 . S
C858 C855 1.363 . S
C858 N856 1.356 . S
C859 C853 1.363 . S
C859 C854 1.379 . S
C859 N857 1.356 . S
N860 C852 1.356 . S
N860 H866 0.984 . S
N860 H867 0.984 . S
N861 C854 1.356 . S
N861 H864 0.984 . S
N861 H865 0.985 . S
H862 N857 0.984 . S
H863 N857 0.985 . S
H864 N861 0.984 . S
H865 N861 0.985 . S
H866 N860 0.984 . S
H867 N860 0.984 . S
H868 N856 0.984 . S
H869 N856 0.985 . S
C870 C871 1.363 . S
C870 C876 1.379 . S
C870 N878 1.356 . S
C871 C870 1.363 . S
C871 C877 1.363 . S
C872 C873 1.363 . S
C872 C877 1.379 . S
C872 N879 1.356 . S
C873 C872 1.363 . S
C873 C876 1.363 . S
N874 C876 1.356 . S
N874 H886 0.984 . S
N874 H887 0.985 . S
N875 C877 1.356 . S
N875 H880 0.984 . S
N875 H881 0.985 . S
C876 C870 1.379 . S
C876 C873 1.363 . S
C876 N874 1.356 . S
C877 C871 1.363 . S
C877 C872 1.379 . S
C877 N875 1.356 . S
N878 C870 1.356 . S
N878 H884 0.984 . S
N878 H885 0.984 . S
N879 C872 1.356 . S
N879 H882 0.984 . S
N879 H883 0.985 . S
H880 N875 0.984 . S
H881 N875 0.985 . S
H882 N879 0.984 . S
H883 N879 0.985 . S
H884 N878 0.984 . S
H885 N878 0.984 . S
H886 N874 0.984 . S
H887 N874 0.985 . S
C888 C889 1.363 . S
C888 C894 1.379 . S
C888 N896 1.356 . S
C889 C888 1.363 . S
C889 C895 1.363 . S
C890 C891 1.363 . S
C890 C895 1.379 . S
C890 N897 1.356 . S
C891 C890 1.363 . S
C891 C894 1.363 . S
N892 C894 1.356 . S
N892 H904 0.984 . S
N892 H905 0.985 . S
N893 C895 1.356 . S
N893 H898 0.984 . S
N893 H899 0.985 . S
C894 C888 1.379 . S
C894 C891 1.363 . S
C894 N892 1.356 . S
C895 C889 1.363 . S
C895 C890 1.379 . S
C895 N893 1.356 . S
N896 C888 1.356 . S
N896 H902 0.984 . S
N896 H903 0.984 . S
N897 C890 1.356 . S
N897 H900 0.984 . S
N897 H901 0.985 . S
H898 N893 0.984 . S
H899 N893 0.985 . S
H900 N897 0.984 . S
H901 N897 0.985 . S
H902 N896 0.984 . S
H903 N896 0.984 . S
H904 N892 0.984 . S
H905 N892 0.985 . S
C906 C907 1.363 . S
C906 C912 1.379 . S
C906 N914 1.356 . S
C907 C906 1.363 . S
C907 C913 1.363 . S
C908 C909 1.363 . S
C908 C913 1.379 . S
C908 N915 1.356 . S
C909 C908 1.363 . S
C909 C912 1.363 . S
N910 C912 1.356 . S
N910 H922 0.984 . S
N910 H923 0.985 . S
N911 C913 1.356 . S
N911 H916 0.984 . S
N911 H917 0.985 . S
C912 C906 1.379 . S
C912 C909 1.363 . S
C912 N910 1.356 . S
C913 C907 1.363 . S
C913 C908 1.379 . S
C913 N911 1.356 . S
N914 C906 1.356 . S
N914 H920 0.984 . S
N914 H921 0.984 . S
N915 C908 1.356 . S
N915 H918 0.984 . S
N915 H919 0.985 . S
H916 N911 0.984 . S
H917 N911 0.985 . S
H918 N915 0.984 . S
H919 N915 0.985 . S
H920 N914 0.984 . S
H921 N914 0.984 . S
H922 N910 0.984 . S
H923 N910 0.985 . S
C924 C925 1.363 . S
C924 C930 1.379 . S
C924 N932 1.356 . S
C925 C924 1.363 . S
C925 C931 1.363 . S
C926 C927 1.363 . S
C926 C931 1.379 . S
C926 N933 1.356 . S
C927 C926 1.363 . S
C927 C930 1.363 . S
N928 C930 1.356 . S
N928 H940 0.984 . S
N928 H941 0.985 . S
N929 C931 1.356 . S
N929 H934 0.984 . S
N929 H935 0.985 . S
C930 C924 1.379 . S
C930 C927 1.363 . S
C930 N928 1.356 . S
C931 C925 1.363 . S
C931 C926 1.379 . S
C931 N929 1.356 . S
N932 C924 1.356 . S
N932 H938 0.984 . S
N932 H939 0.984 . S
N933 C926 1.356 . S
N933 H936 0.984 . S
N933 H937 0.985 . S
H934 N929 0.984 . S
H935 N929 0.985 . S
H936 N933 0.984 . S
H937 N933 0.985 . S
H938 N932 0.984 . S
H939 N932 0.984 . S
H940 N928 0.984 . S
H941 N928 0.985 . S
C942 C943 1.363 . S
C942 C948 1.379 . S
C942 N950 1.356 . S
C943 C942 1.363 . S
C943 C949 1.363 . S
C944 C945 1.363 . S
C944 C949 1.379 . S
C944 N951 1.356 . S
C945 C944 1.363 . S
C945 C948 1.363 . S
N946 C948 1.356 . S
N946 H958 0.984 . S
N946 H959 0.985 . S
N947 C949 1.356 . S
N947 H952 0.984 . S
N947 H953 0.985 . S
C948 C942 1.379 . S
C948 C945 1.363 . S
C948 N946 1.356 . S
C949 C943 1.363 . S
C949 C944 1.379 . S
C949 N947 1.356 . S
N950 C942 1.356 . S
N950 H956 0.984 . S
N950 H957 0.984 . S
N951 C944 1.356 . S
N951 H954 0.984 . S
N951 H955 0.985 . S
H952 N947 0.984 . S
H953 N947 0.985 . S
H954 N951 0.984 . S
H955 N951 0.985 . S
H956 N950 0.984 . S
H957 N950 0.984 . S
H958 N946 0.984 . S
H959 N946 0.985 . S
C960 C961 1.363 . S
C960 C966 1.379 . S
C960 N968 1.356 . S
C961 C960 1.363 . S
C961 C967 1.363 . S
C962 C963 1.363 . S
C962 C967 1.379 . S
C962 N969 1.356 . S
C963 C962 1.363 . S
C963 C966 1.363 . S
N964 C966 1.356 . S
N964 H976 0.984 . S
N964 H977 0.985 . S
N965 C967 1.356 . S
N965 H970 0.984 . S
N965 H971 0.985 . S
C966 C960 1.379 . S
C966 C963 1.363 . S
C966 N964 1.356 . S
C967 C961 1.363 . S
C967 C962 1.379 . S
C967 N965 1.356 . S
N968 C960 1.356 . S
N968 H974 0.984 . S
N968 H975 0.984 . S
N969 C962 1.356 . S
N969 H972 0.984 . S
N969 H973 0.985 . S
H970 N965 0.984 . S
H971 N965 0.985 . S
H972 N969 0.984 . S
H973 N969 0.985 . S
H974 N968 0.984 . S
H975 N968 0.984 . S
H976 N964 0.984 . S
H977 N964 0.985 . S
C978 C979 1.363 . S
C978 C984 1.379 . S
C978 N986 1.356 . S
C979 C978 1.363 . S
C979 C985 1.363 . S
C980 C981 1.363 . S
C980 C985 1.379 . S
C980 N987 1.356 . S
C981 C980 1.363 . S
C981 C984 1.363 . S
N982 C984 1.356 . S
N982 H994 0.984 . S
N982 H995 0.985 . S
N983 C985 1.356 . S
N983 H988 0.984 . S
N983 H989 0.985 . S
C984 C978 1.379 . S
C984 C981 1.363 . S
C984 N982 1.356 . S
C985 C979 1.363 . S
C985 C980 1.379 . S
C985 N983 1.356 . S
N986 C978 1.356 . S
N986 H992 0.984 . S
N986 H993 0.984 . S
N987 C980 1.356 . S
N987 H990 0.984 . S
N987 H991 0.985 . S
H988 N983 0.984 . S
H989 N983 0.985 . S
H990 N987 0.984 . S
H991 N987 0.985 . S
H992 N986 0.984 . S
H993 N986 0.984 . S
H994 N982 0.984 . S
H995 N982 0.985 . S
C996 C997 1.363 . S
C996 C1002 1.379 . S
C996 N1004 1.356 . S
C997 C996 1.363 . S
C997 C1003 1.363 . S
C998 C999 1.363 . S
C998 C1003 1.379 . S
C998 N1005 1.356 . S
C999 C998 1.363 . S
C999 C1002 1.363 . S
N1000 C1002 1.356 . S
N1000 H1012 0.984 . S
N1000 H1013 0.985 . S
N1001 C1003 1.356 . S
N1001 H1006 0.984 . S
N1001 H1007 0.985 . S
C1002 C996 1.379 . S
C1002 C999 1.363 . S
C1002 N1000 1.356 . S
C1003 C997 1.363 . S
C1003 C998 1.379 . S
C1003 N1001 1.356 . S
N1004 C996 1.356 . S
N1004 H1010 0.984 . S
N1004 H1011 0.984 . S
N1005 C998 1.356 . S
N1005 H1008 0.984 . S
N1005 H1009 0.985 . S
H1006 N1001 0.984 . S
H1007 N1001 0.985 . S
H1008 N1005 0.984 . S
H1009 N1005 0.985 . S
H1010 N1004 0.984 . S
H1011 N1004 0.984 . S
H1012 N1000 0.984 . S
H1013 N1000 0.985 . S
C1014 C1015 1.363 . S
C1014 C1020 1.379 . S
C1014 N1022 1.356 . S
C1015 C1014 1.363 . S
C1015 C1021 1.363 . S
C1016 C1017 1.363 . S
C1016 C1021 1.379 . S
C1016 N1023 1.356 . S
C1017 C1016 1.363 . S
C1017 C1020 1.363 . S
N1018 C1020 1.356 . S
N1018 H1030 0.984 . S
N1018 H1031 0.985 . S
N1019 C1021 1.356 . S
N1019 H1024 0.984 . S
N1019 H1025 0.985 . S
C1020 C1014 1.379 . S
C1020 C1017 1.363 . S
C1020 N1018 1.356 . S
C1021 C1015 1.363 . S
C1021 C1016 1.379 . S
C1021 N1019 1.356 . S
N1022 C1014 1.356 . S
N1022 H1028 0.984 . S
N1022 H1029 0.984 . S
N1023 C1016 1.356 . S
N1023 H1026 0.984 . S
N1023 H1027 0.985 . S
H1024 N1019 0.984 . S
H1025 N1019 0.985 . S
H1026 N1023 0.984 . S
H1027 N1023 0.985 . S
H1028 N1022 0.984 . S
H1029 N1022 0.984 . S
H1030 N1018 0.984 . S
H1031 N1018 0.985 . S
C1032 C1033 1.363 . S
C1032 C1038 1.379 . S
C1032 N1040 1.356 . S
C1033 C1032 1.363 . S
C1033 C1039 1.363 . S
C1034 C1035 1.363 . S
C1034 C1039 1.379 . S
C1034 N1041 1.356 . S
C1035 C1034 1.363 . S
C1035 C1038 1.363 . S
N1036 C1038 1.356 . S
N1036 H1048 0.984 . S
N1036 H1049 0.985 . S
N1037 C1039 1.356 . S
N1037 H1042 0.984 . S
N1037 H1043 0.985 . S
C1038 C1032 1.379 . S
C1038 C1035 1.363 . S
C1038 N1036 1.356 . S
C1039 C1033 1.363 . S
C1039 C1034 1.379 . S
C1039 N1037 1.356 . S
N1040 C1032 1.356 . S
N1040 H1046 0.984 . S
N1040 H1047 0.984 . S
N1041 C1034 1.356 . S
N1041 H1044 0.984 . S
N1041 H1045 0.985 . S
H1042 N1037 0.984 . S
H1043 N1037 0.985 . S
H1044 N1041 0.984 . S
H1045 N1041 0.985 . S
H1046 N1040 0.984 . S
H1047 N1040 0.984 . S
H1048 N1036 0.984 . S
H1049 N1036 0.985 . S
C1050 C1051 1.363 . S
C1050 C1056 1.379 . S
C1050 N1058 1.356 . S
C1051 C1050 1.363 . S
C1051 C1057 1.363 . S
C1052 C1053 1.363 . S
C1052 C1057 1.379 . S
C1052 N1059 1.356 . S
C1053 C1052 1.363 . S
C1053 C1056 1.363 . S
N1054 C1056 1.356 . S
N1054 H1066 0.984 . S
N1054 H1067 0.985 . S
N1055 C1057 1.356 . S
N1055 H1060 0.984 . S
N1055 H1061 0.985 . S
C1056 C1050 1.379 . S
C1056 C1053 1.363 . S
C1056 N1054 1.356 . S
C1057 C1051 1.363 . S
C1057 C1052 1.379 . S
C1057 N1055 1.356 . S
N1058 C1050 1.356 . S
N1058 H1064 0.984 . S
N1058 H1065 0.984 . S
N1059 C1052 1.356 . S
N1059 H1062 0.984 . S
N1059 H1063 0.985 . S
H1060 N1055 0.984 . S
H1061 N1055 0.985 . S
H1062 N1059 0.984 . S
H1063 N1059 0.985 . S
H1064 N1058 0.984 . S
H1065 N1058 0.984 . S
H1066 N1054 0.984 . S
H1067 N1054 0.985 . S
C1068 C1069 1.363 . S
C1068 C1074 1.379 . S
C1068 N1076 1.356 . S
C1069 C1068 1.363 . S
C1069 C1075 1.363 . S
C1070 C1071 1.363 . S
C1070 C1075 1.379 . S
C1070 N1077 1.356 . S
C1071 C1070 1.363 . S
C1071 C1074 1.363 . S
N1072 C1074 1.356 . S
N1072 H1084 0.984 . S
N1072 H1085 0.985 . S
N1073 C1075 1.356 . S
N1073 H1078 0.984 . S
N1073 H1079 0.985 . S
C1074 C1068 1.379 . S
C1074 C1071 1.363 . S
C1074 N1072 1.356 . S
C1075 C1069 1.363 . S
C1075 C1070 1.379 . S
C1075 N1073 1.356 . S
N1076 C1068 1.356 . S
N1076 H1082 0.984 . S
N1076 H1083 0.984 . S
N1077 C1070 1.356 . S
N1077 H1080 0.984 . S
N1077 H1081 0.985 . S
H1078 N1073 0.984 . S
H1079 N1073 0.985 . S
H1080 N1077 0.984 . S
H1081 N1077 0.985 . S
H1082 N1076 0.984 . S
H1083 N1076 0.984 . S
H1084 N1072 0.984 . S
H1085 N1072 0.985 . S
C1086 C1087 1.363 . S
C1086 C1092 1.379 . S
C1086 N1094 1.356 . S
C1087 C1086 1.363 . S
C1087 C1093 1.363 . S
C1088 C1089 1.363 . S
C1088 C1093 1.379 . S
C1088 N1095 1.356 . S
C1089 C1088 1.363 . S
C1089 C1092 1.363 . S
N1090 C1092 1.356 . S
N1090 H1102 0.984 . S
N1090 H1103 0.985 . S
N1091 C1093 1.356 . S
N1091 H1096 0.984 . S
N1091 H1097 0.985 . S
C1092 C1086 1.379 . S
C1092 C1089 1.363 . S
C1092 N1090 1.356 . S
C1093 C1087 1.363 . S
C1093 C1088 1.379 . S
C1093 N1091 1.356 . S
N1094 C1086 1.356 . S
N1094 H1100 0.984 . S
N1094 H1101 0.984 . S
N1095 C1088 1.356 . S
N1095 H1098 0.984 . S
N1095 H1099 0.985 . S
H1096 N1091 0.984 . S
H1097 N1091 0.985 . S
H1098 N1095 0.984 . S
H1099 N1095 0.985 . S
H1100 N1094 0.984 . S
H1101 N1094 0.984 . S
H1102 N1090 0.984 . S
H1103 N1090 0.985 . S
C1104 C1105 1.363 . S
C1104 C1110 1.379 . S
C1104 N1112 1.356 . S
C1105 C1104 1.363 . S
C1105 C1111 1.363 . S
C1106 C1107 1.363 . S
C1106 C1111 1.379 . S
C1106 N1113 1.356 . S
C1107 C1106 1.363 . S
C1107 C1110 1.363 . S
N1108 C1110 1.356 . S
N1108 H1120 0.984 . S
N1108 H1121 0.985 . S
N1109 C1111 1.356 . S
N1109 H1114 0.984 . S
N1109 H1115 0.985 . S
C1110 C1104 1.379 . S
C1110 C1107 1.363 . S
C1110 N1108 1.356 . S
C1111 C1105 1.363 . S
C1111 C1106 1.379 . S
C1111 N1109 1.356 . S
N1112 C1104 1.356 . S
N1112 H1118 0.984 . S
N1112 H1119 0.984 . S
N1113 C1106 1.356 . S
N1113 H1116 0.984 . S
N1113 H1117 0.985 . S
H1114 N1109 0.984 . S
H1115 N1109 0.985 . S
H1116 N1113 0.984 . S
H1117 N1113 0.985 . S
H1118 N1112 0.984 . S
H1119 N1112 0.984 . S
H1120 N1108 0.984 . S
H1121 N1108 0.985 . S
C1122 C1123 1.363 . S
C1122 C1128 1.379 . S
C1122 N1130 1.356 . S
C1123 C1122 1.363 . S
C1123 C1129 1.363 . S
C1124 C1125 1.363 . S
C1124 C1129 1.379 . S
C1124 N1131 1.356 . S
C1125 C1124 1.363 . S
C1125 C1128 1.363 . S
N1126 C1128 1.356 . S
N1126 H1138 0.984 . S
N1126 H1139 0.985 . S
N1127 C1129 1.356 . S
N1127 H1132 0.984 . S
N1127 H1133 0.985 . S
C1128 C1122 1.379 . S
C1128 C1125 1.363 . S
C1128 N1126 1.356 . S
C1129 C1123 1.363 . S
C1129 C1124 1.379 . S
C1129 N1127 1.356 . S
N1130 C1122 1.356 . S
N1130 H1136 0.984 . S
N1130 H1137 0.984 . S
N1131 C1124 1.356 . S
N1131 H1134 0.984 . S
N1131 H1135 0.985 . S
H1132 N1127 0.984 . S
H1133 N1127 0.985 . S
H1134 N1131 0.984 . S
H1135 N1131 0.985 . S
H1136 N1130 0.984 . S
H1137 N1130 0.984 . S
H1138 N1126 0.984 . S
H1139 N1126 0.985 . S
C1140 C1141 1.363 . S
C1140 C1146 1.379 . S
C1140 N1148 1.356 . S
C1141 C1140 1.363 . S
C1141 C1147 1.363 . S
C1142 C1143 1.363 . S
C1142 C1147 1.379 . S
C1142 N1149 1.356 . S
C1143 C1142 1.363 . S
C1143 C1146 1.363 . S
N1144 C1146 1.356 . S
N1144 H1156 0.984 . S
N1144 H1157 0.985 . S
N1145 C1147 1.356 . S
N1145 H1150 0.984 . S
N1145 H1151 0.985 . S
C1146 C1140 1.379 . S
C1146 C1143 1.363 . S
C1146 N1144 1.356 . S
C1147 C1141 1.363 . S
C1147 C1142 1.379 . S
C1147 N1145 1.356 . S
N1148 C1140 1.356 . S
N1148 H1154 0.984 . S
N1148 H1155 0.984 . S
N1149 C1142 1.356 . S
N1149 H1152 0.984 . S
N1149 H1153 0.985 . S
H1150 N1145 0.984 . S
H1151 N1145 0.985 . S
H1152 N1149 0.984 . S
H1153 N1149 0.985 . S
H1154 N1148 0.984 . S
H1155 N1148 0.984 . S
H1156 N1144 0.984 . S
H1157 N1144 0.985 . S
C1158 C1159 1.363 . S
C1158 C1164 1.379 . S
C1158 N1166 1.356 . S
C1159 C1158 1.363 . S
C1159 C1165 1.363 . S
C1160 C1161 1.363 . S
C1160 C1165 1.379 . S
C1160 N1167 1.356 . S
C1161 C1160 1.363 . S
C1161 C1164 1.363 . S
N1162 C1164 1.356 . S
N1162 H1174 0.984 . S
N1162 H1175 0.985 . S
N1163 C1165 1.356 . S
N1163 H1168 0.984 . S
N1163 H1169 0.985 . S
C1164 C1158 1.379 . S
C1164 C1161 1.363 . S
C1164 N1162 1.356 . S
C1165 C1159 1.363 . S
C1165 C1160 1.379 . S
C1165 N1163 1.356 . S
N1166 C1158 1.356 . S
N1166 H1172 0.984 . S
N1166 H1173 0.984 . S
N1167 C1160 1.356 . S
N1167 H1170 0.984 . S
N1167 H1171 0.985 . S
H1168 N1163 0.984 . S
H1169 N1163 0.985 . S
H1170 N1167 0.984 . S
H1171 N1167 0.985 . S
H1172 N1166 0.984 . S
H1173 N1166 0.984 . S
H1174 N1162 0.984 . S
H1175 N1162 0.985 . S
C1176 C1177 1.363 . S
C1176 C1182 1.379 . S
C1176 N1184 1.356 . S
C1177 C1176 1.363 . S
C1177 C1183 1.363 . S
C1178 C1179 1.363 . S
C1178 C1183 1.379 . S
C1178 N1185 1.356 . S
C1179 C1178 1.363 . S
C1179 C1182 1.363 . S
N1180 C1182 1.356 . S
N1180 H1192 0.984 . S
N1180 H1193 0.985 . S
N1181 C1183 1.356 . S
N1181 H1186 0.984 . S
N1181 H1187 0.985 . S
C1182 C1176 1.379 . S
C1182 C1179 1.363 . S
C1182 N1180 1.356 . S
C1183 C1177 1.363 . S
C1183 C1178 1.379 . S
C1183 N1181 1.356 . S
N1184 C1176 1.356 . S
N1184 H1190 0.984 . S
N1184 H1191 0.984 . S
N1185 C1178 1.356 . S
N1185 H1188 0.984 . S
N1185 H1189 0.985 . S
H1186 N1181 0.984 . S
H1187 N1181 0.985 . S
H1188 N1185 0.984 . S
H1189 N1185 0.985 . S
H1190 N1184 0.984 . S
H1191 N1184 0.984 . S
H1192 N1180 0.984 . S
H1193 N1180 0.985 . S
C1194 C1195 1.363 . S
C1194 C1200 1.379 . S
C1194 N1202 1.356 . S
C1195 C1194 1.363 . S
C1195 C1201 1.363 . S
C1196 C1197 1.363 . S
C1196 C1201 1.379 . S
C1196 N1203 1.356 . S
C1197 C1196 1.363 . S
C1197 C1200 1.363 . S
N1198 C1200 1.356 . S
N1198 H1210 0.984 . S
N1198 H1211 0.985 . S
N1199 C1201 1.356 . S
N1199 H1204 0.984 . S
N1199 H1205 0.985 . S
C1200 C1194 1.379 . S
C1200 C1197 1.363 . S
C1200 N1198 1.356 . S
C1201 C1195 1.363 . S
C1201 C1196 1.379 . S
C1201 N1199 1.356 . S
N1202 C1194 1.356 . S
N1202 H1208 0.984 . S
N1202 H1209 0.984 . S
N1203 C1196 1.356 . S
N1203 H1206 0.984 . S
N1203 H1207 0.985 . S
H1204 N1199 0.984 . S
H1205 N1199 0.985 . S
H1206 N1203 0.984 . S
H1207 N1203 0.985 . S
H1208 N1202 0.984 . S
H1209 N1202 0.984 . S
H1210 N1198 0.984 . S
H1211 N1198 0.985 . S
C1212 C1213 1.363 . S
C1212 C1218 1.379 . S
C1212 N1220 1.356 . S
C1213 C1212 1.363 . S
C1213 C1219 1.363 . S
C1214 C1215 1.363 . S
C1214 C1219 1.379 . S
C1214 N1221 1.356 . S
C1215 C1214 1.363 . S
C1215 C1218 1.363 . S
N1216 C1218 1.356 . S
N1216 H1228 0.984 . S
N1216 H1229 0.985 . S
N1217 C1219 1.356 . S
N1217 H1222 0.984 . S
N1217 H1223 0.985 . S
C1218 C1212 1.379 . S
C1218 C1215 1.363 . S
C1218 N1216 1.356 . S
C1219 C1213 1.363 . S
C1219 C1214 1.379 . S
C1219 N1217 1.356 . S
N1220 C1212 1.356 . S
N1220 H1226 0.984 . S
N1220 H1227 0.984 . S
N1221 C1214 1.356 . S
N1221 H1224 0.984 . S
N1221 H1225 0.985 . S
H1222 N1217 0.984 . S
H1223 N1217 0.985 . S
H1224 N1221 0.984 . S
H1225 N1221 0.985 . S
H1226 N1220 0.984 . S
H1227 N1220 0.984 . S
H1228 N1216 0.984 . S
H1229 N1216 0.985 . S
C1230 C1231 1.363 . S
C1230 C1236 1.379 . S
C1230 N1238 1.356 . S
C1231 C1230 1.363 . S
C1231 C1237 1.363 . S
C1232 C1233 1.363 . S
C1232 C1237 1.379 . S
C1232 N1239 1.356 . S
C1233 C1232 1.363 . S
C1233 C1236 1.363 . S
N1234 C1236 1.356 . S
N1234 H1246 0.984 . S
N1234 H1247 0.985 . S
N1235 C1237 1.356 . S
N1235 H1240 0.984 . S
N1235 H1241 0.985 . S
C1236 C1230 1.379 . S
C1236 C1233 1.363 . S
C1236 N1234 1.356 . S
C1237 C1231 1.363 . S
C1237 C1232 1.379 . S
C1237 N1235 1.356 . S
N1238 C1230 1.356 . S
N1238 H1244 0.984 . S
N1238 H1245 0.984 . S
N1239 C1232 1.356 . S
N1239 H1242 0.984 . S
N1239 H1243 0.985 . S
H1240 N1235 0.984 . S
H1241 N1235 0.985 . S
H1242 N1239 0.984 . S
H1243 N1239 0.985 . S
H1244 N1238 0.984 . S
H1245 N1238 0.984 . S
H1246 N1234 0.984 . S
H1247 N1234 0.985 . S
C1248 C1249 1.363 . S
C1248 C1254 1.379 . S
C1248 N1256 1.356 . S
C1249 C1248 1.363 . S
C1249 C1255 1.363 . S
C1250 C1251 1.363 . S
C1250 C1255 1.379 . S
C1250 N1257 1.356 . S
C1251 C1250 1.363 . S
C1251 C1254 1.363 . S
N1252 C1254 1.356 . S
N1252 H1264 0.984 . S
N1252 H1265 0.985 . S
N1253 C1255 1.356 . S
N1253 H1258 0.984 . S
N1253 H1259 0.985 . S
C1254 C1248 1.379 . S
C1254 C1251 1.363 . S
C1254 N1252 1.356 . S
C1255 C1249 1.363 . S
C1255 C1250 1.379 . S
C1255 N1253 1.356 . S
N1256 C1248 1.356 . S
N1256 H1262 0.984 . S
N1256 H1263 0.984 . S
N1257 C1250 1.356 . S
N1257 H1260 0.984 . S
N1257 H1261 0.985 . S
H1258 N1253 0.984 . S
H1259 N1253 0.985 . S
H1260 N1257 0.984 . S
H1261 N1257 0.985 . S
H1262 N1256 0.984 . S
H1263 N1256 0.984 . S
H1264 N1252 0.984 . S
H1265 N1252 0.985 . S
C1266 C1267 1.363 . S
C1266 C1272 1.379 . S
C1266 N1274 1.356 . S
C1267 C1266 1.363 . S
C1267 C1273 1.363 . S
C1268 C1269 1.363 . S
C1268 C1273 1.379 . S
C1268 N1275 1.356 . S
C1269 C1268 1.363 . S
C1269 C1272 1.363 . S
N1270 C1272 1.356 . S
N1270 H1282 0.984 . S
N1270 H1283 0.985 . S
N1271 C1273 1.356 . S
N1271 H1276 0.984 . S
N1271 H1277 0.985 . S
C1272 C1266 1.379 . S
C1272 C1269 1.363 . S
C1272 N1270 1.356 . S
C1273 C1267 1.363 . S
C1273 C1268 1.379 . S
C1273 N1271 1.356 . S
N1274 C1266 1.356 . S
N1274 H1280 0.984 . S
N1274 H1281 0.984 . S
N1275 C1268 1.356 . S
N1275 H1278 0.984 . S
N1275 H1279 0.985 . S
H1276 N1271 0.984 . S
H1277 N1271 0.985 . S
H1278 N1275 0.984 . S
H1279 N1275 0.985 . S
H1280 N1274 0.984 . S
H1281 N1274 0.984 . S
H1282 N1270 0.984 . S
H1283 N1270 0.985 . S
C1284 C1285 1.363 . S
C1284 C1290 1.379 . S
C1284 N1292 1.356 . S
C1285 C1284 1.363 . S
C1285 C1291 1.363 . S
C1286 C1287 1.363 . S
C1286 C1291 1.379 . S
C1286 N1293 1.356 . S
C1287 C1286 1.363 . S
C1287 C1290 1.363 . S
N1288 C1290 1.356 . S
N1288 H1300 0.984 . S
N1288 H1301 0.985 . S
N1289 C1291 1.356 . S
N1289 H1294 0.984 . S
N1289 H1295 0.985 . S
C1290 C1284 1.379 . S
C1290 C1287 1.363 . S
C1290 N1288 1.356 . S
C1291 C1285 1.363 . S
C1291 C1286 1.379 . S
C1291 N1289 1.356 . S
N1292 C1284 1.356 . S
N1292 H1298 0.984 . S
N1292 H1299 0.984 . S
N1293 C1286 1.356 . S
N1293 H1296 0.984 . S
N1293 H1297 0.985 . S
H1294 N1289 0.984 . S
H1295 N1289 0.985 . S
H1296 N1293 0.984 . S
H1297 N1293 0.985 . S
H1298 N1292 0.984 . S
H1299 N1292 0.984 . S
H1300 N1288 0.984 . S
H1301 N1288 0.985 . S
C1302 C1303 1.363 . S
C1302 C1308 1.379 . S
C1302 N1310 1.356 . S
C1303 C1302 1.363 . S
C1303 C1309 1.363 . S
C1304 C1305 1.363 . S
C1304 C1309 1.379 . S
C1304 N1311 1.356 . S
C1305 C1304 1.363 . S
C1305 C1308 1.363 . S
N1306 C1308 1.356 . S
N1306 H1318 0.984 . S
N1306 H1319 0.985 . S
N1307 C1309 1.356 . S
N1307 H1312 0.984 . S
N1307 H1313 0.985 . S
C1308 C1302 1.379 . S
C1308 C1305 1.363 . S
C1308 N1306 1.356 . S
C1309 C1303 1.363 . S
C1309 C1304 1.379 . S
C1309 N1307 1.356 . S
N1310 C1302 1.356 . S
N1310 H1316 0.984 . S
N1310 H1317 0.984 . S
N1311 C1304 1.356 . S
N1311 H1314 0.984 . S
N1311 H1315 0.985 . S
H1312 N1307 0.984 . S
H1313 N1307 0.985 . S
H1314 N1311 0.984 . S
H1315 N1311 0.985 . S
H1316 N1310 0.984 . S
H1317 N1310 0.984 . S
H1318 N1306 0.984 . S
H1319 N1306 0.985 . S
C1320 C1321 1.363 . S
C1320 C1326 1.379 . S
C1320 N1328 1.356 . S
C1321 C1320 1.363 . S
C1321 C1327 1.363 . S
C1322 C1323 1.363 . S
C1322 C1327 1.379 . S
C1322 N1329 1.356 . S
C1323 C1322 1.363 . S
C1323 C1326 1.363 . S
N1324 C1326 1.356 . S
N1324 H1336 0.984 . S
N1324 H1337 0.985 . S
N1325 C1327 1.356 . S
N1325 H1330 0.984 . S
N1325 H1331 0.985 . S
C1326 C1320 1.379 . S
C1326 C1323 1.363 . S
C1326 N1324 1.356 . S
C1327 C1321 1.363 . S
C1327 C1322 1.379 . S
C1327 N1325 1.356 . S
N1328 C1320 1.356 . S
N1328 H1334 0.984 . S
N1328 H1335 0.984 . S
N1329 C1322 1.356 . S
N1329 H1332 0.984 . S
N1329 H1333 0.985 . S
H1330 N1325 0.984 . S
H1331 N1325 0.985 . S
H1332 N1329 0.984 . S
H1333 N1329 0.985 . S
H1334 N1328 0.984 . S
H1335 N1328 0.984 . S
H1336 N1324 0.984 . S
H1337 N1324 0.985 . S
C1338 C1339 1.363 . S
C1338 C1344 1.379 . S
C1338 N1346 1.356 . S
C1339 C1338 1.363 . S
C1339 C1345 1.363 . S
C1340 C1341 1.363 . S
C1340 C1345 1.379 . S
C1340 N1347 1.356 . S
C1341 C1340 1.363 . S
C1341 C1344 1.363 . S
N1342 C1344 1.356 . S
N1342 H1354 0.984 . S
N1342 H1355 0.985 . S
N1343 C1345 1.356 . S
N1343 H1348 0.984 . S
N1343 H1349 0.985 . S
C1344 C1338 1.379 . S
C1344 C1341 1.363 . S
C1344 N1342 1.356 . S
C1345 C1339 1.363 . S
C1345 C1340 1.379 . S
C1345 N1343 1.356 . S
N1346 C1338 1.356 . S
N1346 H1352 0.984 . S
N1346 H1353 0.984 . S
N1347 C1340 1.356 . S
N1347 H1350 0.984 . S
N1347 H1351 0.985 . S
H1348 N1343 0.984 . S
H1349 N1343 0.985 . S
H1350 N1347 0.984 . S
H1351 N1347 0.985 . S
H1352 N1346 0.984 . S
H1353 N1346 0.984 . S
H1354 N1342 0.984 . S
H1355 N1342 0.985 . S
C1356 C1357 1.363 . S
C1356 C1362 1.379 . S
C1356 N1364 1.356 . S
C1357 C1356 1.363 . S
C1357 C1363 1.363 . S
C1358 C1359 1.363 . S
C1358 C1363 1.379 . S
C1358 N1365 1.356 . S
C1359 C1358 1.363 . S
C1359 C1362 1.363 . S
N1360 C1362 1.356 . S
N1360 H1372 0.984 . S
N1360 H1373 0.985 . S
N1361 C1363 1.356 . S
N1361 H1366 0.984 . S
N1361 H1367 0.985 . S
C1362 C1356 1.379 . S
C1362 C1359 1.363 . S
C1362 N1360 1.356 . S
C1363 C1357 1.363 . S
C1363 C1358 1.379 . S
C1363 N1361 1.356 . S
N1364 C1356 1.356 . S
N1364 H1370 0.984 . S
N1364 H1371 0.984 . S
N1365 C1358 1.356 . S
N1365 H1368 0.984 . S
N1365 H1369 0.985 . S
H1366 N1361 0.984 . S
H1367 N1361 0.985 . S
H1368 N1365 0.984 . S
H1369 N1365 0.985 . S
H1370 N1364 0.984 . S
H1371 N1364 0.984 . S
H1372 N1360 0.984 . S
H1373 N1360 0.985 . S
C1374 C1375 1.363 . S
C1374 C1380 1.379 . S
C1374 N1382 1.356 . S
C1375 C1374 1.363 . S
C1375 C1381 1.363 . S
C1376 C1377 1.363 . S
C1376 C1381 1.379 . S
C1376 N1383 1.356 . S
C1377 C1376 1.363 . S
C1377 C1380 1.363 . S
N1378 C1380 1.356 . S
N1378 H1390 0.984 . S
N1378 H1391 0.985 . S
N1379 C1381 1.356 . S
N1379 H1384 0.984 . S
N1379 H1385 0.985 . S
C1380 C1374 1.379 . S
C1380 C1377 1.363 . S
C1380 N1378 1.356 . S
C1381 C1375 1.363 . S
C1381 C1376 1.379 . S
C1381 N1379 1.356 . S
N1382 C1374 1.356 . S
N1382 H1388 0.984 . S
N1382 H1389 0.984 . S
N1383 C1376 1.356 . S
N1383 H1386 0.984 . S
N1383 H1387 0.985 . S
H1384 N1379 0.984 . S
H1385 N1379 0.985 . S
H1386 N1383 0.984 . S
H1387 N1383 0.985 . S
H1388 N1382 0.984 . S
H1389 N1382 0.984 . S
H1390 N1378 0.984 . S
H1391 N1378 0.985 . S
C1392 C1393 1.363 . S
C1392 C1398 1.379 . S
C1392 N1400 1.356 . S
C1393 C1392 1.363 . S
C1393 C1399 1.363 . S
C1394 C1395 1.363 . S
C1394 C1399 1.379 . S
C1394 N1401 1.356 . S
C1395 C1394 1.363 . S
C1395 C1398 1.363 . S
N1396 C1398 1.356 . S
N1396 H1408 0.984 . S
N1396 H1409 0.985 . S
N1397 C1399 1.356 . S
N1397 H1402 0.984 . S
N1397 H1403 0.985 . S
C1398 C1392 1.379 . S
C1398 C1395 1.363 . S
C1398 N1396 1.356 . S
C1399 C1393 1.363 . S
C1399 C1394 1.379 . S
C1399 N1397 1.356 . S
N1400 C1392 1.356 . S
N1400 H1406 0.984 . S
N1400 H1407 0.984 . S
N1401 C1394 1.356 . S
N1401 H1404 0.984 . S
N1401 H1405 0.985 . S
H1402 N1397 0.984 . S
H1403 N1397 0.985 . S
H1404 N1401 0.984 . S
H1405 N1401 0.985 . S
H1406 N1400 0.984 . S
H1407 N1400 0.984 . S
H1408 N1396 0.984 . S
H1409 N1396 0.985 . S
C1410 C1411 1.363 . S
C1410 C1416 1.379 . S
C1410 N1418 1.356 . S
C1411 C1410 1.363 . S
C1411 C1417 1.363 . S
C1412 C1413 1.363 . S
C1412 C1417 1.379 . S
C1412 N1419 1.356 . S
C1413 C1412 1.363 . S
C1413 C1416 1.363 . S
N1414 C1416 1.356 . S
N1414 H1426 0.984 . S
N1414 H1427 0.985 . S
N1415 C1417 1.356 . S
N1415 H1420 0.984 . S
N1415 H1421 0.985 . S
C1416 C1410 1.379 . S
C1416 C1413 1.363 . S
C1416 N1414 1.356 . S
C1417 C1411 1.363 . S
C1417 C1412 1.379 . S
C1417 N1415 1.356 . S
N1418 C1410 1.356 . S
N1418 H1424 0.984 . S
N1418 H1425 0.984 . S
N1419 C1412 1.356 . S
N1419 H1422 0.984 . S
N1419 H1423 0.985 . S
H1420 N1415 0.984 . S
H1421 N1415 0.985 . S
H1422 N1419 0.984 . S
H1423 N1419 0.985 . S
H1424 N1418 0.984 . S
H1425 N1418 0.984 . S
H1426 N1414 0.984 . S
H1427 N1414 0.985 . S
C1428 C1429 1.363 . S
C1428 C1434 1.379 . S
C1428 N1436 1.356 . S
C1429 C1428 1.363 . S
C1429 C1435 1.363 . S
C1430 C1431 1.363 . S
C1430 C1435 1.379 . S
C1430 N1437 1.356 . S
C1431 C1430 1.363 . S
C1431 C1434 1.363 . S
N1432 C1434 1.356 . S
N1432 H1444 0.984 . S
N1432 H1445 0.985 . S
N1433 C1435 1.356 . S
N1433 H1438 0.984 . S
N1433 H1439 0.985 . S
C1434 C1428 1.379 . S
C1434 C1431 1.363 . S
C1434 N1432 1.356 . S
C1435 C1429 1.363 . S
C1435 C1430 1.379 . S
C1435 N1433 1.356 . S
N1436 C1428 1.356 . S
N1436 H1442 0.984 . S
N1436 H1443 0.984 . S
N1437 C1430 1.356 . S
N1437 H1440 0.984 . S
N1437 H1441 0.985 . S
H1438 N1433 0.984 . S
H1439 N1433 0.985 . S
H1440 N1437 0.984 . S
H1441 N1437 0.985 . S
H1442 N1436 0.984 . S
H1443 N1436 0.984 . S
H1444 N1432 0.984 . S
H1445 N1432 0.985 . S
C1446 C1447 1.363 . S
C1446 C1452 1.379 . S
C1446 N1454 1.356 . S
C1447 C1446 1.363 . S
C1447 C1453 1.363 . S
C1448 C1449 1.363 . S
C1448 C1453 1.379 . S
C1448 N1455 1.356 . S
C1449 C1448 1.363 . S
C1449 C1452 1.363 . S
N1450 C1452 1.356 . S
N1450 H1462 0.984 . S
N1450 H1463 0.985 . S
N1451 C1453 1.356 . S
N1451 H1456 0.984 . S
N1451 H1457 0.985 . S
C1452 C1446 1.379 . S
C1452 C1449 1.363 . S
C1452 N1450 1.356 . S
C1453 C1447 1.363 . S
C1453 C1448 1.379 . S
C1453 N1451 1.356 . S
N1454 C1446 1.356 . S
N1454 H1460 0.984 . S
N1454 H1461 0.984 . S
N1455 C1448 1.356 . S
N1455 H1458 0.984 . S
N1455 H1459 0.985 . S
H1456 N1451 0.984 . S
H1457 N1451 0.985 . S
H1458 N1455 0.984 . S
H1459 N1455 0.985 . S
H1460 N1454 0.984 . S
H1461 N1454 0.984 . S
H1462 N1450 0.984 . S
H1463 N1450 0.985 . S
C1464 C1465 1.363 . S
C1464 C1470 1.379 . S
C1464 N1472 1.356 . S
C1465 C1464 1.363 . S
C1465 C1471 1.363 . S
C1466 C1467 1.363 . S
C1466 C1471 1.379 . S
C1466 N1473 1.356 . S
C1467 C1466 1.363 . S
C1467 C1470 1.363 . S
N1468 C1470 1.356 . S
N1468 H1480 0.984 . S
N1468 H1481 0.985 . S
N1469 C1471 1.356 . S
N1469 H1474 0.984 . S
N1469 H1475 0.985 . S
C1470 C1464 1.379 . S
C1470 C1467 1.363 . S
C1470 N1468 1.356 . S
C1471 C1465 1.363 . S
C1471 C1466 1.379 . S
C1471 N1469 1.356 . S
N1472 C1464 1.356 . S
N1472 H1478 0.984 . S
N1472 H1479 0.984 . S
N1473 C1466 1.356 . S
N1473 H1476 0.984 . S
N1473 H1477 0.985 . S
H1474 N1469 0.984 . S
H1475 N1469 0.985 . S
H1476 N1473 0.984 . S
H1477 N1473 0.985 . S
H1478 N1472 0.984 . S
H1479 N1472 0.984 . S
H1480 N1468 0.984 . S
H1481 N1468 0.985 . S
C1482 C1483 1.363 . S
C1482 C1488 1.379 . S
C1482 N1490 1.356 . S
C1483 C1482 1.363 . S
C1483 C1489 1.363 . S
C1484 C1485 1.363 . S
C1484 C1489 1.379 . S
C1484 N1491 1.356 . S
C1485 C1484 1.363 . S
C1485 C1488 1.363 . S
N1486 C1488 1.356 . S
N1486 H1498 0.984 . S
N1486 H1499 0.985 . S
N1487 C1489 1.356 . S
N1487 H1492 0.984 . S
N1487 H1493 0.985 . S
C1488 C1482 1.379 . S
C1488 C1485 1.363 . S
C1488 N1486 1.356 . S
C1489 C1483 1.363 . S
C1489 C1484 1.379 . S
C1489 N1487 1.356 . S
N1490 C1482 1.356 . S
N1490 H1496 0.984 . S
N1490 H1497 0.984 . S
N1491 C1484 1.356 . S
N1491 H1494 0.984 . S
N1491 H1495 0.985 . S
H1492 N1487 0.984 . S
H1493 N1487 0.985 . S
H1494 N1491 0.984 . S
H1495 N1491 0.985 . S
H1496 N1490 0.984 . S
H1497 N1490 0.984 . S
H1498 N1486 0.984 . S
H1499 N1486 0.985 . S
C1500 C1501 1.363 . S
C1500 C1506 1.379 . S
C1500 N1508 1.356 . S
C1501 C1500 1.363 . S
C1501 C1507 1.363 . S
C1502 C1503 1.363 . S
C1502 C1507 1.379 . S
C1502 N1509 1.356 . S
C1503 C1502 1.363 . S
C1503 C1506 1.363 . S
N1504 C1506 1.356 . S
N1504 H1516 0.984 . S
N1504 H1517 0.985 . S
N1505 C1507 1.356 . S
N1505 H1510 0.984 . S
N1505 H1511 0.985 . S
C1506 C1500 1.379 . S
C1506 C1503 1.363 . S
C1506 N1504 1.356 . S
C1507 C1501 1.363 . S
C1507 C1502 1.379 . S
C1507 N1505 1.356 . S
N1508 C1500 1.356 . S
N1508 H1514 0.984 . S
N1508 H1515 0.984 . S
N1509 C1502 1.356 . S
N1509 H1512 0.984 . S
N1509 H1513 0.985 . S
H1510 N1505 0.984 . S
H1511 N1505 0.985 . S
H1512 N1509 0.984 . S
H1513 N1509 0.985 . S
H1514 N1508 0.984 . S
H1515 N1508 0.984 . S
H1516 N1504 0.984 . S
H1517 N1504 0.985 . S
C1518 C1519 1.363 . S
C1518 C1524 1.379 . S
C1518 N1526 1.356 . S
C1519 C1518 1.363 . S
C1519 C1525 1.363 . S
C1520 C1521 1.363 . S
C1520 C1525 1.379 . S
C1520 N1527 1.356 . S
C1521 C1520 1.363 . S
C1521 C1524 1.363 . S
N1522 C1524 1.356 . S
N1522 H1534 0.984 . S
N1522 H1535 0.985 . S
N1523 C1525 1.356 . S
N1523 H1528 0.984 . S
N1523 H1529 0.985 . S
C1524 C1518 1.379 . S
C1524 C1521 1.363 . S
C1524 N1522 1.356 . S
C1525 C1519 1.363 . S
C1525 C1520 1.379 . S
C1525 N1523 1.356 . S
N1526 C1518 1.356 . S
N1526 H1532 0.984 . S
N1526 H1533 0.984 . S
N1527 C1520 1.356 . S
N1527 H1530 0.984 . S
N1527 H1531 0.985 . S
H1528 N1523 0.984 . S
H1529 N1523 0.985 . S
H1530 N1527 0.984 . S
H1531 N1527 0.985 . S
H1532 N1526 0.984 . S
H1533 N1526 0.984 . S
H1534 N1522 0.984 . S
H1535 N1522 0.985 . S
C1536 C1537 1.363 . S
C1536 C1542 1.379 . S
C1536 N1544 1.356 . S
C1537 C1536 1.363 . S
C1537 C1543 1.363 . S
C1538 C1539 1.363 . S
C1538 C1543 1.379 . S
C1538 N1545 1.356 . S
C1539 C1538 1.363 . S
C1539 C1542 1.363 . S
N1540 C1542 1.356 . S
N1540 H1552 0.984 . S
N1540 H1553 0.985 . S
N1541 C1543 1.356 . S
N1541 H1546 0.984 . S
N1541 H1547 0.985 . S
C1542 C1536 1.379 . S
C1542 C1539 1.363 . S
C1542 N1540 1.356 . S
C1543 C1537 1.363 . S
C1543 C1538 1.379 . S
C1543 N1541 1.356 . S
N1544 C1536 1.356 . S
N1544 H1550 0.984 . S
N1544 H1551 0.984 . S
N1545 C1538 1.356 . S
N1545 H1548 0.984 . S
N1545 H1549 0.985 . S
H1546 N1541 0.984 . S
H1547 N1541 0.985 . S
H1548 N1545 0.984 . S
H1549 N1545 0.985 . S
H1550 N1544 0.984 . S
H1551 N1544 0.984 . S
H1552 N1540 0.984 . S
H1553 N1540 0.985 . S
C1554 C1555 1.363 . S
C1554 C1560 1.379 . S
C1554 N1562 1.356 . S
C1555 C1554 1.363 . S
C1555 C1561 1.363 . S
C1556 C1557 1.363 . S
C1556 C1561 1.379 . S
C1556 N1563 1.356 . S
C1557 C1556 1.363 . S
C1557 C1560 1.363 . S
N1558 C1560 1.356 . S
N1558 H1570 0.984 . S
N1558 H1571 0.985 . S
N1559 C1561 1.356 . S
N1559 H1564 0.984 . S
N1559 H1565 0.985 . S
C1560 C1554 1.379 . S
C1560 C1557 1.363 . S
C1560 N1558 1.356 . S
C1561 C1555 1.363 . S
C1561 C1556 1.379 . S
C1561 N1559 1.356 . S
N1562 C1554 1.356 . S
N1562 H1568 0.984 . S
N1562 H1569 0.984 . S
N1563 C1556 1.356 . S
N1563 H1566 0.984 . S
N1563 H1567 0.985 . S
H1564 N1559 0.984 . S
H1565 N1559 0.985 . S
H1566 N1563 0.984 . S
H1567 N1563 0.985 . S
H1568 N1562 0.984 . S
H1569 N1562 0.984 . S
H1570 N1558 0.984 . S
H1571 N1558 0.985 . S
C1572 C1573 1.363 . S
C1572 C1578 1.379 . S
C1572 N1580 1.356 . S
C1573 C1572 1.363 . S
C1573 C1579 1.363 . S
C1574 C1575 1.363 . S
C1574 C1579 1.379 . S
C1574 N1581 1.356 . S
C1575 C1574 1.363 . S
C1575 C1578 1.363 . S
N1576 C1578 1.356 . S
N1576 H1588 0.984 . S
N1576 H1589 0.985 . S
N1577 C1579 1.356 . S
N1577 H1582 0.984 . S
N1577 H1583 0.985 . S
C1578 C1572 1.379 . S
C1578 C1575 1.363 . S
C1578 N1576 1.356 . S
C1579 C1573 1.363 . S
C1579 C1574 1.379 . S
C1579 N1577 1.356 . S
N1580 C1572 1.356 . S
N1580 H1586 0.984 . S
N1580 H1587 0.984 . S
N1581 C1574 1.356 . S
N1581 H1584 0.984 . S
N1581 H1585 0.985 . S
H1582 N1577 0.984 . S
H1583 N1577 0.985 . S
H1584 N1581 0.984 . S
H1585 N1581 0.985 . S
H1586 N1580 0.984 . S
H1587 N1580 0.984 . S
H1588 N1576 0.984 . S
H1589 N1576 0.985 . S
C1590 C1591 1.363 . S
C1590 C1596 1.379 . S
C1590 N1598 1.356 . S
C1591 C1590 1.363 . S
C1591 C1597 1.363 . S
C1592 C1593 1.363 . S
C1592 C1597 1.379 . S
C1592 N1599 1.356 . S
C1593 C1592 1.363 . S
C1593 C1596 1.363 . S
N1594 C1596 1.356 . S
N1594 H1606 0.984 . S
N1594 H1607 0.985 . S
N1595 C1597 1.356 . S
N1595 H1600 0.984 . S
N1595 H1601 0.985 . S
C1596 C1590 1.379 . S
C1596 C1593 1.363 . S
C1596 N1594 1.356 . S
C1597 C1591 1.363 . S
C1597 C1592 1.379 . S
C1597 N1595 1.356 . S
N1598 C1590 1.356 . S
N1598 H1604 0.984 . S
N1598 H1605 0.984 . S
N1599 C1592 1.356 . S
N1599 H1602 0.984 . S
N1599 H1603 0.985 . S
H1600 N1595 0.984 . S
H1601 N1595 0.985 . S
H1602 N1599 0.984 . S
H1603 N1599 0.985 . S
H1604 N1598 0.984 . S
H1605 N1598 0.984 . S
H1606 N1594 0.984 . S
H1607 N1594 0.985 . S
C1608 C1609 1.363 . S
C1608 C1614 1.379 . S
C1608 N1616 1.356 . S
C1609 C1608 1.363 . S
C1609 C1615 1.363 . S
C1610 C1611 1.363 . S
C1610 C1615 1.379 . S
C1610 N1617 1.356 . S
C1611 C1610 1.363 . S
C1611 C1614 1.363 . S
N1612 C1614 1.356 . S
N1612 H1624 0.984 . S
N1612 H1625 0.985 . S
N1613 C1615 1.356 . S
N1613 H1618 0.984 . S
N1613 H1619 0.985 . S
C1614 C1608 1.379 . S
C1614 C1611 1.363 . S
C1614 N1612 1.356 . S
C1615 C1609 1.363 . S
C1615 C1610 1.379 . S
C1615 N1613 1.356 . S
N1616 C1608 1.356 . S
N1616 H1622 0.984 . S
N1616 H1623 0.984 . S
N1617 C1610 1.356 . S
N1617 H1620 0.984 . S
N1617 H1621 0.985 . S
H1618 N1613 0.984 . S
H1619 N1613 0.985 . S
H1620 N1617 0.984 . S
H1621 N1617 0.985 . S
H1622 N1616 0.984 . S
H1623 N1616 0.984 . S
H1624 N1612 0.984 . S
H1625 N1612 0.985 . S
C1626 C1627 1.363 . S
C1626 C1632 1.379 . S
C1626 N1634 1.356 . S
C1627 C1626 1.363 . S
C1627 C1633 1.363 . S
C1628 C1629 1.363 . S
C1628 C1633 1.379 . S
C1628 N1635 1.356 . S
C1629 C1628 1.363 . S
C1629 C1632 1.363 . S
N1630 C1632 1.356 . S
N1630 H1642 0.984 . S
N1630 H1643 0.985 . S
N1631 C1633 1.356 . S
N1631 H1636 0.984 . S
N1631 H1637 0.985 . S
C1632 C1626 1.379 . S
C1632 C1629 1.363 . S
C1632 N1630 1.356 . S
C1633 C1627 1.363 . S
C1633 C1628 1.379 . S
C1633 N1631 1.356 . S
N1634 C1626 1.356 . S
N1634 H1640 0.984 . S
N1634 H1641 0.984 . S
N1635 C1628 1.356 . S
N1635 H1638 0.984 . S
N1635 H1639 0.985 . S
H1636 N1631 0.984 . S
H1637 N1631 0.985 . S
H1638 N1635 0.984 . S
H1639 N1635 0.985 . S
H1640 N1634 0.984 . S
H1641 N1634 0.984 . S
H1642 N1630 0.984 . S
H1643 N1630 0.985 . S
C1644 C1645 1.363 . S
C1644 C1650 1.379 . S
C1644 N1652 1.356 . S
C1645 C1644 1.363 . S
C1645 C1651 1.363 . S
C1646 C1647 1.363 . S
C1646 C1651 1.379 . S
C1646 N1653 1.356 . S
C1647 C1646 1.363 . S
C1647 C1650 1.363 . S
N1648 C1650 1.356 . S
N1648 H1660 0.984 . S
N1648 H1661 0.985 . S
N1649 C1651 1.356 . S
N1649 H1654 0.984 . S
N1649 H1655 0.985 . S
C1650 C1644 1.379 . S
C1650 C1647 1.363 . S
C1650 N1648 1.356 . S
C1651 C1645 1.363 . S
C1651 C1646 1.379 . S
C1651 N1649 1.356 . S
N1652 C1644 1.356 . S
N1652 H1658 0.984 . S
N1652 H1659 0.984 . S
N1653 C1646 1.356 . S
N1653 H1656 0.984 . S
N1653 H1657 0.985 . S
H1654 N1649 0.984 . S
H1655 N1649 0.985 . S
H1656 N1653 0.984 . S
H1657 N1653 0.985 . S
H1658 N1652 0.984 . S
H1659 N1652 0.984 . S
H1660 N1648 0.984 . S
H1661 N1648 0.985 . S
C1662 C1663 1.363 . S
C1662 C1668 1.379 . S
C1662 N1670 1.356 . S
C1663 C1662 1.363 . S
C1663 C1669 1.363 . S
C1664 C1665 1.363 . S
C1664 C1669 1.379 . S
C1664 N1671 1.356 . S
C1665 C1664 1.363 . S
C1665 C1668 1.363 . S
N1666 C1668 1.356 . S
N1666 H1678 0.984 . S
N1666 H1679 0.985 . S
N1667 C1669 1.356 . S
N1667 H1672 0.984 . S
N1667 H1673 0.985 . S
C1668 C1662 1.379 . S
C1668 C1665 1.363 . S
C1668 N1666 1.356 . S
C1669 C1663 1.363 . S
C1669 C1664 1.379 . S
C1669 N1667 1.356 . S
N1670 C1662 1.356 . S
N1670 H1676 0.984 . S
N1670 H1677 0.984 . S
N1671 C1664 1.356 . S
N1671 H1674 0.984 . S
N1671 H1675 0.985 . S
H1672 N1667 0.984 . S
H1673 N1667 0.985 . S
H1674 N1671 0.984 . S
H1675 N1671 0.985 . S
H1676 N1670 0.984 . S
H1677 N1670 0.984 . S
H1678 N1666 0.984 . S
H1679 N1666 0.985 . S
C1680 C1681 1.363 . S
C1680 C1686 1.379 . S
C1680 N1688 1.356 . S
C1681 C1680 1.363 . S
C1681 C1687 1.363 . S
C1682 C1683 1.363 . S
C1682 C1687 1.379 . S
C1682 N1689 1.356 . S
C1683 C1682 1.363 . S
C1683 C1686 1.363 . S
N1684 C1686 1.356 . S
N1684 H1696 0.984 . S
N1684 H1697 0.985 . S
N1685 C1687 1.356 . S
N1685 H1690 0.984 . S
N1685 H1691 0.985 . S
C1686 C1680 1.379 . S
C1686 C1683 1.363 . S
C1686 N1684 1.356 . S
C1687 C1681 1.363 . S
C1687 C1682 1.379 . S
C1687 N1685 1.356 . S
N1688 C1680 1.356 . S
N1688 H1694 0.984 . S
N1688 H1695 0.984 . S
N1689 C1682 1.356 . S
N1689 H1692 0.984 . S
N1689 H1693 0.985 . S
H1690 N1685 0.984 . S
H1691 N1685 0.985 . S
H1692 N1689 0.984 . S
H1693 N1689 0.985 . S
H1694 N1688 0.984 . S
H1695 N1688 0.984 . S
H1696 N1684 0.984 . S
H1697 N1684 0.985 . S
C1698 C1699 1.363 . S
C1698 C1704 1.379 . S
C1698 N1706 1.356 . S
C1699 C1698 1.363 . S
C1699 C1705 1.363 . S
C1700 C1701 1.363 . S
C1700 C1705 1.379 . S
C1700 N1707 1.356 . S
C1701 C1700 1.363 . S
C1701 C1704 1.363 . S
N1702 C1704 1.356 . S
N1702 H1714 0.984 . S
N1702 H1715 0.985 . S
N1703 C1705 1.356 . S
N1703 H1708 0.984 . S
N1703 H1709 0.985 . S
C1704 C1698 1.379 . S
C1704 C1701 1.363 . S
C1704 N1702 1.356 . S
C1705 C1699 1.363 . S
C1705 C1700 1.379 . S
C1705 N1703 1.356 . S
N1706 C1698 1.356 . S
N1706 H1712 0.984 . S
N1706 H1713 0.984 . S
N1707 C1700 1.356 . S
N1707 H1710 0.984 . S
N1707 H1711 0.985 . S
H1708 N1703 0.984 . S
H1709 N1703 0.985 . S
H1710 N1707 0.984 . S
H1711 N1707 0.985 . S
H1712 N1706 0.984 . S
H1713 N1706 0.984 . S
H1714 N1702 0.984 . S
H1715 N1702 0.985 . S
C1716 C1717 1.363 . S
C1716 C1722 1.379 . S
C1716 N1724 1.356 . S
C1717 C1716 1.363 . S
C1717 C1723 1.363 . S
C1718 C1719 1.363 . S
C1718 C1723 1.379 . S
C1718 N1725 1.356 . S
C1719 C1718 1.363 . S
C1719 C1722 1.363 . S
N1720 C1722 1.356 . S
N1720 H1732 0.984 . S
N1720 H1733 0.985 . S
N1721 C1723 1.356 . S
N1721 H1726 0.984 . S
N1721 H1727 0.985 . S
C1722 C1716 1.379 . S
C1722 C1719 1.363 . S
C1722 N1720 1.356 . S
C1723 C1717 1.363 . S
C1723 C1718 1.379 . S
C1723 N1721 1.356 . S
N1724 C1716 1.356 . S
N1724 H1730 0.984 . S
N1724 H1731 0.984 . S
N1725 C1718 1.356 . S
N1725 H1728 0.984 . S
N1725 H1729 0.985 . S
H1726 N1721 0.984 . S
H1727 N1721 0.985 . S
H1728 N1725 0.984 . S
H1729 N1725 0.985 . S
H1730 N1724 0.984 . S
H1731 N1724 0.984 . S
H1732 N1720 0.984 . S
H1733 N1720 0.985 . S
C1734 C1735 1.363 . S
C1734 C1740 1.379 . S
C1734 N1742 1.356 . S
C1735 C1734 1.363 . S
C1735 C1741 1.363 . S
C1736 C1737 1.363 . S
C1736 C1741 1.379 . S
C1736 N1743 1.356 . S
C1737 C1736 1.363 . S
C1737 C1740 1.363 . S
N1738 C1740 1.356 . S
N1738 H1750 0.984 . S
N1738 H1751 0.985 . S
N1739 C1741 1.356 . S
N1739 H1744 0.984 . S
N1739 H1745 0.985 . S
C1740 C1734 1.379 . S
C1740 C1737 1.363 . S
C1740 N1738 1.356 . S
C1741 C1735 1.363 . S
C1741 C1736 1.379 . S
C1741 N1739 1.356 . S
N1742 C1734 1.356 . S
N1742 H1748 0.984 . S
N1742 H1749 0.984 . S
N1743 C1736 1.356 . S
N1743 H1746 0.984 . S
N1743 H1747 0.985 . S
H1744 N1739 0.984 . S
H1745 N1739 0.985 . S
H1746 N1743 0.984 . S
H1747 N1743 0.985 . S
H1748 N1742 0.984 . S
H1749 N1742 0.984 . S
H1750 N1738 0.984 . S
H1751 N1738 0.985 . S
C1752 C1753 1.363 . S
C1752 C1758 1.379 . S
C1752 N1760 1.356 . S
C1753 C1752 1.363 . S
C1753 C1759 1.363 . S
C1754 C1755 1.363 . S
C1754 C1759 1.379 . S
C1754 N1761 1.356 . S
C1755 C1754 1.363 . S
C1755 C1758 1.363 . S
N1756 C1758 1.356 . S
N1756 H1768 0.984 . S
N1756 H1769 0.985 . S
N1757 C1759 1.356 . S
N1757 H1762 0.984 . S
N1757 H1763 0.985 . S
C1758 C1752 1.379 . S
C1758 C1755 1.363 . S
C1758 N1756 1.356 . S
C1759 C1753 1.363 . S
C1759 C1754 1.379 . S
C1759 N1757 1.356 . S
N1760 C1752 1.356 . S
N1760 H1766 0.984 . S
N1760 H1767 0.984 . S
N1761 C1754 1.356 . S
N1761 H1764 0.984 . S
N1761 H1765 0.985 . S
H1762 N1757 0.984 . S
H1763 N1757 0.985 . S
H1764 N1761 0.984 . S
H1765 N1761 0.985 . S
H1766 N1760 0.984 . S
H1767 N1760 0.984 . S
H1768 N1756 0.984 . S
H1769 N1756 0.985 . S
C1770 C1771 1.363 . S
C1770 C1776 1.379 . S
C1770 N1778 1.356 . S
C1771 C1770 1.363 . S
C1771 C1777 1.363 . S
C1772 C1773 1.363 . S
C1772 C1777 1.379 . S
C1772 N1779 1.356 . S
C1773 C1772 1.363 . S
C1773 C1776 1.363 . S
N1774 C1776 1.356 . S
N1774 H1786 0.984 . S
N1774 H1787 0.985 . S
N1775 C1777 1.356 . S
N1775 H1780 0.984 . S
N1775 H1781 0.985 . S
C1776 C1770 1.379 . S
C1776 C1773 1.363 . S
C1776 N1774 1.356 . S
C1777 C1771 1.363 . S
C1777 C1772 1.379 . S
C1777 N1775 1.356 . S
N1778 C1770 1.356 . S
N1778 H1784 0.984 . S
N1778 H1785 0.984 . S
N1779 C1772 1.356 . S
N1779 H1782 0.984 . S
N1779 H1783 0.985 . S
H1780 N1775 0.984 . S
H1781 N1775 0.985 . S
H1782 N1779 0.984 . S
H1783 N1779 0.985 . S
H1784 N1778 0.984 . S
H1785 N1778 0.984 . S
H1786 N1774 0.984 . S
H1787 N1774 0.985 . S
C1788 C1789 1.363 . S
C1788 C1794 1.379 . S
C1788 N1796 1.356 . S
C1789 C1788 1.363 . S
C1789 C1795 1.363 . S
C1790 C1791 1.363 . S
C1790 C1795 1.379 . S
C1790 N1797 1.356 . S
C1791 C1790 1.363 . S
C1791 C1794 1.363 . S
N1792 C1794 1.356 . S
N1792 H1804 0.984 . S
N1792 H1805 0.985 . S
N1793 C1795 1.356 . S
N1793 H1798 0.984 . S
N1793 H1799 0.985 . S
C1794 C1788 1.379 . S
C1794 C1791 1.363 . S
C1794 N1792 1.356 . S
C1795 C1789 1.363 . S
C1795 C1790 1.379 . S
C1795 N1793 1.356 . S
N1796 C1788 1.356 . S
N1796 H1802 0.984 . S
N1796 H1803 0.984 . S
N1797 C1790 1.356 . S
N1797 H1800 0.984 . S
N1797 H1801 0.985 . S
H1798 N1793 0.984 . S
H1799 N1793 0.985 . S
H1800 N1797 0.984 . S
H1801 N1797 0.985 . S
H1802 N1796 0.984 . S
H1803 N1796 0.984 . S
H1804 N1792 0.984 . S
H1805 N1792 0.985 . S
C1806 C1807 1.363 . S
C1806 C1812 1.379 . S
C1806 N1814 1.356 . S
C1807 C1806 1.363 . S
C1807 C1813 1.363 . S
C1808 C1809 1.363 . S
C1808 C1813 1.379 . S
C1808 N1815 1.356 . S
C1809 C1808 1.363 . S
C1809 C1812 1.363 . S
N1810 C1812 1.356 . S
N1810 H1822 0.984 . S
N1810 H1823 0.985 . S
N1811 C1813 1.356 . S
N1811 H1816 0.984 . S
N1811 H1817 0.985 . S
C1812 C1806 1.379 . S
C1812 C1809 1.363 . S
C1812 N1810 1.356 . S
C1813 C1807 1.363 . S
C1813 C1808 1.379 . S
C1813 N1811 1.356 . S
N1814 C1806 1.356 . S
N1814 H1820 0.984 . S
N1814 H1821 0.984 . S
N1815 C1808 1.356 . S
N1815 H1818 0.984 . S
N1815 H1819 0.985 . S
H1816 N1811 0.984 . S
H1817 N1811 0.985 . S
H1818 N1815 0.984 . S
H1819 N1815 0.985 . S
H1820 N1814 0.984 . S
H1821 N1814 0.984 . S
H1822 N1810 0.984 . S
H1823 N1810 0.985 . S
C1824 C1825 1.363 . S
C1824 C1830 1.379 . S
C1824 N1832 1.356 . S
C1825 C1824 1.363 . S
C1825 C1831 1.363 . S
C1826 C1827 1.363 . S
C1826 C1831 1.379 . S
C1826 N1833 1.356 . S
C1827 C1826 1.363 . S
C1827 C1830 1.363 . S
N1828 C1830 1.356 . S
N1828 H1840 0.984 . S
N1828 H1841 0.985 . S
N1829 C1831 1.356 . S
N1829 H1834 0.984 . S
N1829 H1835 0.985 . S
C1830 C1824 1.379 . S
C1830 C1827 1.363 . S
C1830 N1828 1.356 . S
C1831 C1825 1.363 . S
C1831 C1826 1.379 . S
C1831 N1829 1.356 . S
N1832 C1824 1.356 . S
N1832 H1838 0.984 . S
N1832 H1839 0.984 . S
N1833 C1826 1.356 . S
N1833 H1836 0.984 . S
N1833 H1837 0.985 . S
H1834 N1829 0.984 . S
H1835 N1829 0.985 . S
H1836 N1833 0.984 . S
H1837 N1833 0.985 . S
H1838 N1832 0.984 . S
H1839 N1832 0.984 . S
H1840 N1828 0.984 . S
H1841 N1828 0.985 . S
C1842 C1843 1.363 . S
C1842 C1848 1.379 . S
C1842 N1850 1.356 . S
C1843 C1842 1.363 . S
C1843 C1849 1.363 . S
C1844 C1845 1.363 . S
C1844 C1849 1.379 . S
C1844 N1851 1.356 . S
C1845 C1844 1.363 . S
C1845 C1848 1.363 . S
N1846 C1848 1.356 . S
N1846 H1858 0.984 . S
N1846 H1859 0.985 . S
N1847 C1849 1.356 . S
N1847 H1852 0.984 . S
N1847 H1853 0.985 . S
C1848 C1842 1.379 . S
C1848 C1845 1.363 . S
C1848 N1846 1.356 . S
C1849 C1843 1.363 . S
C1849 C1844 1.379 . S
C1849 N1847 1.356 . S
N1850 C1842 1.356 . S
N1850 H1856 0.984 . S
N1850 H1857 0.984 . S
N1851 C1844 1.356 . S
N1851 H1854 0.984 . S
N1851 H1855 0.985 . S
H1852 N1847 0.984 . S
H1853 N1847 0.985 . S
H1854 N1851 0.984 . S
H1855 N1851 0.985 . S
H1856 N1850 0.984 . S
H1857 N1850 0.984 . S
H1858 N1846 0.984 . S
H1859 N1846 0.985 . S
C1860 C1861 1.363 . S
C1860 C1866 1.379 . S
C1860 N1868 1.356 . S
C1861 C1860 1.363 . S
C1861 C1867 1.363 . S
C1862 C1863 1.363 . S
C1862 C1867 1.379 . S
C1862 N1869 1.356 . S
C1863 C1862 1.363 . S
C1863 C1866 1.363 . S
N1864 C1866 1.356 . S
N1864 H1876 0.984 . S
N1864 H1877 0.985 . S
N1865 C1867 1.356 . S
N1865 H1870 0.984 . S
N1865 H1871 0.985 . S
C1866 C1860 1.379 . S
C1866 C1863 1.363 . S
C1866 N1864 1.356 . S
C1867 C1861 1.363 . S
C1867 C1862 1.379 . S
C1867 N1865 1.356 . S
N1868 C1860 1.356 . S
N1868 H1874 0.984 . S
N1868 H1875 0.984 . S
N1869 C1862 1.356 . S
N1869 H1872 0.984 . S
N1869 H1873 0.985 . S
H1870 N1865 0.984 . S
H1871 N1865 0.985 . S
H1872 N1869 0.984 . S
H1873 N1869 0.985 . S
H1874 N1868 0.984 . S
H1875 N1868 0.984 . S
H1876 N1864 0.984 . S
H1877 N1864 0.985 . S
C1878 C1879 1.363 . S
C1878 C1884 1.379 . S
C1878 N1886 1.356 . S
C1879 C1878 1.363 . S
C1879 C1885 1.363 . S
C1880 C1881 1.363 . S
C1880 C1885 1.379 . S
C1880 N1887 1.356 . S
C1881 C1880 1.363 . S
C1881 C1884 1.363 . S
N1882 C1884 1.356 . S
N1882 H1894 0.984 . S
N1882 H1895 0.985 . S
N1883 C1885 1.356 . S
N1883 H1888 0.984 . S
N1883 H1889 0.985 . S
C1884 C1878 1.379 . S
C1884 C1881 1.363 . S
C1884 N1882 1.356 . S
C1885 C1879 1.363 . S
C1885 C1880 1.379 . S
C1885 N1883 1.356 . S
N1886 C1878 1.356 . S
N1886 H1892 0.984 . S
N1886 H1893 0.984 . S
N1887 C1880 1.356 . S
N1887 H1890 0.984 . S
N1887 H1891 0.985 . S
H1888 N1883 0.984 . S
H1889 N1883 0.985 . S
H1890 N1887 0.984 . S
H1891 N1887 0.985 . S
H1892 N1886 0.984 . S
H1893 N1886 0.984 . S
H1894 N1882 0.984 . S
H1895 N1882 0.985 . S
C1896 C1897 1.363 . S
C1896 C1902 1.379 . S
C1896 N1904 1.356 . S
C1897 C1896 1.363 . S
C1897 C1903 1.363 . S
C1898 C1899 1.363 . S
C1898 C1903 1.379 . S
C1898 N1905 1.356 . S
C1899 C1898 1.363 . S
C1899 C1902 1.363 . S
N1900 C1902 1.356 . S
N1900 H1912 0.984 . S
N1900 H1913 0.985 . S
N1901 C1903 1.356 . S
N1901 H1906 0.984 . S
N1901 H1907 0.985 . S
C1902 C1896 1.379 . S
C1902 C1899 1.363 . S
C1902 N1900 1.356 . S
C1903 C1897 1.363 . S
C1903 C1898 1.379 . S
C1903 N1901 1.356 . S
N1904 C1896 1.356 . S
N1904 H1910 0.984 . S
N1904 H1911 0.984 . S
N1905 C1898 1.356 . S
N1905 H1908 0.984 . S
N1905 H1909 0.985 . S
H1906 N1901 0.984 . S
H1907 N1901 0.985 . S
H1908 N1905 0.984 . S
H1909 N1905 0.985 . S
H1910 N1904 0.984 . S
H1911 N1904 0.984 . S
H1912 N1900 0.984 . S
H1913 N1900 0.985 . S
C1914 C1915 1.363 . S
C1914 C1920 1.379 . S
C1914 N1922 1.356 . S
C1915 C1914 1.363 . S
C1915 C1921 1.363 . S
C1916 C1917 1.363 . S
C1916 C1921 1.379 . S
C1916 N1923 1.356 . S
C1917 C1916 1.363 . S
C1917 C1920 1.363 . S
N1918 C1920 1.356 . S
N1918 H1930 0.984 . S
N1918 H1931 0.985 . S
N1919 C1921 1.356 . S
N1919 H1924 0.984 . S
N1919 H1925 0.985 . S
C1920 C1914 1.379 . S
C1920 C1917 1.363 . S
C1920 N1918 1.356 . S
C1921 C1915 1.363 . S
C1921 C1916 1.379 . S
C1921 N1919 1.356 . S
N1922 C1914 1.356 . S
N1922 H1928 0.984 . S
N1922 H1929 0.984 . S
N1923 C1916 1.356 . S
N1923 H1926 0.984 . S
N1923 H1927 0.985 . S
H1924 N1919 0.984 . S
H1925 N1919 0.985 . S
H1926 N1923 0.984 . S
H1927 N1923 0.985 . S
H1928 N1922 0.984 . S
H1929 N1922 0.984 . S
H1930 N1918 0.984 . S
H1931 N1918 0.985 . S
C1932 C1933 1.363 . S
C1932 C1938 1.379 . S
C1932 N1940 1.356 . S
C1933 C1932 1.363 . S
C1933 C1939 1.363 . S
C1934 C1935 1.363 . S
C1934 C1939 1.379 . S
C1934 N1941 1.356 . S
C1935 C1934 1.363 . S
C1935 C1938 1.363 . S
N1936 C1938 1.356 . S
N1936 H1948 0.984 . S
N1936 H1949 0.985 . S
N1937 C1939 1.356 . S
N1937 H1942 0.984 . S
N1937 H1943 0.985 . S
C1938 C1932 1.379 . S
C1938 C1935 1.363 . S
C1938 N1936 1.356 . S
C1939 C1933 1.363 . S
C1939 C1934 1.379 . S
C1939 N1937 1.356 . S
N1940 C1932 1.356 . S
N1940 H1946 0.984 . S
N1940 H1947 0.984 . S
N1941 C1934 1.356 . S
N1941 H1944 0.984 . S
N1941 H1945 0.985 . S
H1942 N1937 0.984 . S
H1943 N1937 0.985 . S
H1944 N1941 0.984 . S
H1945 N1941 0.985 . S
H1946 N1940 0.984 . S
H1947 N1940 0.984 . S
H1948 N1936 0.984 . S
H1949 N1936 0.985 . S
C1950 C1951 1.363 . S
C1950 C1956 1.379 . S
C1950 N1958 1.356 . S
C1951 C1950 1.363 . S
C1951 C1957 1.363 . S
C1952 C1953 1.363 . S
C1952 C1957 1.379 . S
C1952 N1959 1.356 . S
C1953 C1952 1.363 . S
C1953 C1956 1.363 . S
N1954 C1956 1.356 . S
N1954 H1966 0.984 . S
N1954 H1967 0.985 . S
N1955 C1957 1.356 . S
N1955 H1960 0.984 . S
N1955 H1961 0.985 . S
C1956 C1950 1.379 . S
C1956 C1953 1.363 . S
C1956 N1954 1.356 . S
C1957 C1951 1.363 . S
C1957 C1952 1.379 . S
C1957 N1955 1.356 . S
N1958 C1950 1.356 . S
N1958 H1964 0.984 . S
N1958 H1965 0.984 . S
N1959 C1952 1.356 . S
N1959 H1962 0.984 . S
N1959 H1963 0.985 . S
H1960 N1955 0.984 . S
H1961 N1955 0.985 . S
H1962 N1959 0.984 . S
H1963 N1959 0.985 . S
H1964 N1958 0.984 . S
H1965 N1958 0.984 . S
H1966 N1954 0.984 . S
H1967 N1954 0.985 . S
C1968 C1969 1.363 . S
C1968 C1974 1.379 1_554 S
C1968 N1976 1.356 . S
C1969 C1968 1.363 . S
C1969 C1975 1.363 . S
C1970 C1971 1.363 . S
C1970 C1975 1.379 1_556 S
C1970 N1977 1.356 . S
C1971 C1970 1.363 . S
C1971 C1974 1.363 . S
N1972 C1974 1.356 . S
N1972 H1984 0.984 . S
N1972 H1985 0.985 . S
N1973 C1975 1.356 . S
N1973 H1978 0.984 . S
N1973 H1979 0.985 . S
C1974 C1968 1.379 1_556 S
C1974 C1971 1.363 . S
C1974 N1972 1.356 . S
C1975 C1969 1.363 . S
C1975 C1970 1.379 1_554 S
C1975 N1973 1.356 . S
N1976 C1968 1.356 . S
N1976 H1982 0.984 . S
N1976 H1983 0.984 . S
N1977 C1970 1.356 . S
N1977 H1980 0.984 . S
N1977 H1981 0.985 . S
H1978 N1973 0.984 . S
H1979 N1973 0.985 . S
H1980 N1977 0.984 . S
H1981 N1977 0.985 . S
H1982 N1976 0.984 . S
H1983 N1976 0.984 . S
H1984 N1972 0.984 . S
H1985 N1972 0.985 . S
C1986 C1987 1.363 . S
C1986 C1992 1.379 1_556 S
C1986 N1994 1.356 . S
C1987 C1986 1.363 . S
C1987 C1993 1.363 . S
C1988 C1989 1.363 . S
C1988 C1993 1.379 1_554 S
C1988 N1995 1.356 . S
C1989 C1988 1.363 . S
C1989 C1992 1.363 . S
N1990 C1992 1.356 . S
N1990 H2002 0.984 . S
N1990 H2003 0.985 . S
N1991 C1993 1.356 . S
N1991 H1996 0.984 . S
N1991 H1997 0.985 . S
C1992 C1986 1.379 1_554 S
C1992 C1989 1.363 . S
C1992 N1990 1.356 . S
C1993 C1987 1.363 . S
C1993 C1988 1.379 1_556 S
C1993 N1991 1.356 . S
N1994 C1986 1.356 . S
N1994 H2000 0.984 . S
N1994 H2001 0.984 . S
N1995 C1988 1.356 . S
N1995 H1998 0.984 . S
N1995 H1999 0.985 . S
H1996 N1991 0.984 . S
H1997 N1991 0.985 . S
H1998 N1995 0.984 . S
H1999 N1995 0.985 . S
H2000 N1994 0.984 . S
H2001 N1994 0.984 . S
H2002 N1990 0.984 . S
H2003 N1990 0.985 . S
C2004 C2005 1.363 . S
C2004 C2010 1.379 1_554 S
C2004 N2012 1.356 . S
C2005 C2004 1.363 . S
C2005 C2011 1.363 . S
C2006 C2007 1.363 . S
C2006 C2011 1.379 1_556 S
C2006 N2013 1.356 . S
C2007 C2006 1.363 . S
C2007 C2010 1.363 . S
N2008 C2010 1.356 . S
N2008 H2020 0.984 . S
N2008 H2021 0.985 . S
N2009 C2011 1.356 . S
N2009 H2014 0.984 . S
N2009 H2015 0.985 . S
C2010 C2004 1.379 1_556 S
C2010 C2007 1.363 . S
C2010 N2008 1.356 . S
C2011 C2005 1.363 . S
C2011 C2006 1.379 1_554 S
C2011 N2009 1.356 . S
N2012 C2004 1.356 . S
N2012 H2018 0.984 . S
N2012 H2019 0.984 . S
N2013 C2006 1.356 . S
N2013 H2016 0.984 . S
N2013 H2017 0.985 . S
H2014 N2009 0.984 . S
H2015 N2009 0.985 . S
H2016 N2013 0.984 . S
H2017 N2013 0.985 . S
H2018 N2012 0.984 . S
H2019 N2012 0.984 . S
H2020 N2008 0.984 . S
H2021 N2008 0.985 . S
C2022 C2023 1.363 . S
C2022 C2028 1.379 1_554 S
C2022 N2030 1.356 . S
C2023 C2022 1.363 . S
C2023 C2029 1.363 . S
C2024 C2025 1.363 . S
C2024 C2029 1.379 1_556 S
C2024 N2031 1.356 . S
C2025 C2024 1.363 . S
C2025 C2028 1.363 . S
N2026 C2028 1.356 . S
N2026 H2038 0.984 . S
N2026 H2039 0.985 . S
N2027 C2029 1.356 . S
N2027 H2032 0.984 . S
N2027 H2033 0.985 . S
C2028 C2022 1.379 1_556 S
C2028 C2025 1.363 . S
C2028 N2026 1.356 . S
C2029 C2023 1.363 . S
C2029 C2024 1.379 1_554 S
C2029 N2027 1.356 . S
N2030 C2022 1.356 . S
N2030 H2036 0.984 . S
N2030 H2037 0.984 . S
N2031 C2024 1.356 . S
N2031 H2034 0.984 . S
N2031 H2035 0.985 . S
H2032 N2027 0.984 . S
H2033 N2027 0.985 . S
H2034 N2031 0.984 . S
H2035 N2031 0.985 . S
H2036 N2030 0.984 . S
H2037 N2030 0.984 . S
H2038 N2026 0.984 . S
H2039 N2026 0.985 . S
C2040 C2041 1.363 . S
C2040 C2046 1.379 1_556 S
C2040 N2048 1.356 . S
C2041 C2040 1.363 . S
C2041 C2047 1.363 . S
C2042 C2043 1.363 . S
C2042 C2047 1.379 1_554 S
C2042 N2049 1.356 . S
C2043 C2042 1.363 . S
C2043 C2046 1.363 . S
N2044 C2046 1.356 . S
N2044 H2056 0.984 . S
N2044 H2057 0.985 . S
N2045 C2047 1.356 . S
N2045 H2050 0.984 . S
N2045 H2051 0.985 . S
C2046 C2040 1.379 1_554 S
C2046 C2043 1.363 . S
C2046 N2044 1.356 . S
C2047 C2041 1.363 . S
C2047 C2042 1.379 1_556 S
C2047 N2045 1.356 . S
N2048 C2040 1.356 . S
N2048 H2054 0.984 . S
N2048 H2055 0.984 . S
N2049 C2042 1.356 . S
N2049 H2052 0.984 . S
N2049 H2053 0.985 . S
H2050 N2045 0.984 . S
H2051 N2045 0.985 . S
H2052 N2049 0.984 . S
H2053 N2049 0.985 . S
H2054 N2048 0.984 . S
H2055 N2048 0.984 . S
H2056 N2044 0.984 . S
H2057 N2044 0.985 . S
C2058 C2059 1.363 . S
C2058 C2064 1.379 1_554 S
C2058 N2066 1.356 . S
C2059 C2058 1.363 . S
C2059 C2065 1.363 . S
C2060 C2061 1.363 . S
C2060 C2065 1.379 1_556 S
C2060 N2067 1.356 . S
C2061 C2060 1.363 . S
C2061 C2064 1.363 . S
N2062 C2064 1.356 . S
N2062 H2074 0.984 . S
N2062 H2075 0.985 . S
N2063 C2065 1.356 . S
N2063 H2068 0.984 . S
N2063 H2069 0.985 . S
C2064 C2058 1.379 1_556 S
C2064 C2061 1.363 . S
C2064 N2062 1.356 . S
C2065 C2059 1.363 . S
C2065 C2060 1.379 1_554 S
C2065 N2063 1.356 . S
N2066 C2058 1.356 . S
N2066 H2072 0.984 . S
N2066 H2073 0.984 . S
N2067 C2060 1.356 . S
N2067 H2070 0.984 . S
N2067 H2071 0.985 . S
H2068 N2063 0.984 . S
H2069 N2063 0.985 . S
H2070 N2067 0.984 . S
H2071 N2067 0.985 . S
H2072 N2066 0.984 . S
H2073 N2066 0.984 . S
H2074 N2062 0.984 . S
H2075 N2062 0.985 . S
C2076 C2077 1.363 . S
C2076 C2082 1.379 1_556 S
C2076 N2084 1.356 . S
C2077 C2076 1.363 . S
C2077 C2083 1.363 . S
C2078 C2079 1.363 . S
C2078 C2083 1.379 1_554 S
C2078 N2085 1.356 . S
C2079 C2078 1.363 . S
C2079 C2082 1.363 . S
N2080 C2082 1.356 . S
N2080 H2092 0.984 . S
N2080 H2093 0.985 . S
N2081 C2083 1.356 . S
N2081 H2086 0.984 . S
N2081 H2087 0.985 . S
C2082 C2076 1.379 1_554 S
C2082 C2079 1.363 . S
C2082 N2080 1.356 . S
C2083 C2077 1.363 . S
C2083 C2078 1.379 1_556 S
C2083 N2081 1.356 . S
N2084 C2076 1.356 . S
N2084 H2090 0.984 . S
N2084 H2091 0.984 . S
N2085 C2078 1.356 . S
N2085 H2088 0.984 . S
N2085 H2089 0.985 . S
H2086 N2081 0.984 . S
H2087 N2081 0.985 . S
H2088 N2085 0.984 . S
H2089 N2085 0.985 . S
H2090 N2084 0.984 . S
H2091 N2084 0.984 . S
H2092 N2080 0.984 . S
H2093 N2080 0.985 . S
C2094 C2095 1.363 . S
C2094 C2100 1.379 1_554 S
C2094 N2102 1.356 . S
C2095 C2094 1.363 . S
C2095 C2101 1.363 . S
C2096 C2097 1.363 . S
C2096 C2101 1.379 1_556 S
C2096 N2103 1.356 . S
C2097 C2096 1.363 . S
C2097 C2100 1.363 . S
N2098 C2100 1.356 . S
N2098 H2110 0.984 . S
N2098 H2111 0.985 . S
N2099 C2101 1.356 . S
N2099 H2104 0.984 . S
N2099 H2105 0.985 . S
C2100 C2094 1.379 1_556 S
C2100 C2097 1.363 . S
C2100 N2098 1.356 . S
C2101 C2095 1.363 . S
C2101 C2096 1.379 1_554 S
C2101 N2099 1.356 . S
N2102 C2094 1.356 . S
N2102 H2108 0.984 . S
N2102 H2109 0.984 . S
N2103 C2096 1.356 . S
N2103 H2106 0.984 . S
N2103 H2107 0.985 . S
H2104 N2099 0.984 . S
H2105 N2099 0.985 . S
H2106 N2103 0.984 . S
H2107 N2103 0.985 . S
H2108 N2102 0.984 . S
H2109 N2102 0.984 . S
H2110 N2098 0.984 . S
H2111 N2098 0.985 . S
C2112 C2113 1.363 . S
C2112 C2118 1.379 1_455 S
C2112 N2120 1.356 . S
C2113 C2112 1.363 . S
C2113 C2119 1.363 . S
C2114 C2115 1.363 . S
C2114 C2119 1.379 1_655 S
C2114 N2121 1.356 . S
C2115 C2114 1.363 . S
C2115 C2118 1.363 . S
N2116 C2118 1.356 . S
N2116 H2128 0.984 . S
N2116 H2129 0.985 . S
N2117 C2119 1.356 . S
N2117 H2122 0.984 . S
N2117 H2123 0.985 . S
C2118 C2112 1.379 1_655 S
C2118 C2115 1.363 . S
C2118 N2116 1.356 . S
C2119 C2113 1.363 . S
C2119 C2114 1.379 1_455 S
C2119 N2117 1.356 . S
N2120 C2112 1.356 . S
N2120 H2126 0.984 . S
N2120 H2127 0.984 . S
N2121 C2114 1.356 . S
N2121 H2124 0.984 . S
N2121 H2125 0.985 . S
H2122 N2117 0.984 . S
H2123 N2117 0.985 . S
H2124 N2121 0.984 . S
H2125 N2121 0.985 . S
H2126 N2120 0.984 . S
H2127 N2120 0.984 . S
H2128 N2116 0.984 . S
H2129 N2116 0.985 . S
C2130 C2131 1.363 . S
C2130 C2136 1.379 1_565 S
C2130 N2138 1.356 . S
C2131 C2130 1.363 . S
C2131 C2137 1.363 . S
C2132 C2133 1.363 . S
C2132 C2137 1.379 1_545 S
C2132 N2139 1.356 . S
C2133 C2132 1.363 . S
C2133 C2136 1.363 . S
N2134 C2136 1.356 . S
N2134 H2146 0.984 . S
N2134 H2147 0.985 . S
N2135 C2137 1.356 . S
N2135 H2140 0.984 . S
N2135 H2141 0.985 . S
C2136 C2130 1.379 1_545 S
C2136 C2133 1.363 . S
C2136 N2134 1.356 . S
C2137 C2131 1.363 . S
C2137 C2132 1.379 1_565 S
C2137 N2135 1.356 . S
N2138 C2130 1.356 . S
N2138 H2144 0.984 . S
N2138 H2145 0.984 . S
N2139 C2132 1.356 . S
N2139 H2142 0.984 . S
N2139 H2143 0.985 . S
H2140 N2135 0.984 . S
H2141 N2135 0.985 . S
H2142 N2139 0.984 . S
H2143 N2139 0.985 . S
H2144 N2138 0.984 . S
H2145 N2138 0.984 . S
H2146 N2134 0.984 . S
H2147 N2134 0.985 . S
C2148 C2149 1.363 . S
C2148 C2154 1.379 1_455 S
C2148 N2156 1.356 . S
C2149 C2148 1.363 . S
C2149 C2155 1.363 . S
C2150 C2151 1.363 . S
C2150 C2155 1.379 1_655 S
C2150 N2157 1.356 . S
C2151 C2150 1.363 . S
C2151 C2154 1.363 . S
N2152 C2154 1.356 . S
N2152 H2164 0.984 . S
N2152 H2165 0.985 . S
N2153 C2155 1.356 . S
N2153 H2158 0.984 . S
N2153 H2159 0.985 . S
C2154 C2148 1.379 1_655 S
C2154 C2151 1.363 . S
C2154 N2152 1.356 . S
C2155 C2149 1.363 . S
C2155 C2150 1.379 1_455 S
C2155 N2153 1.356 . S
N2156 C2148 1.356 . S
N2156 H2162 0.984 . S
N2156 H2163 0.984 . S
N2157 C2150 1.356 . S
N2157 H2160 0.984 . S
N2157 H2161 0.985 . S
H2158 N2153 0.984 . S
H2159 N2153 0.985 . S
H2160 N2157 0.984 . S
H2161 N2157 0.985 . S
H2162 N2156 0.984 . S
H2163 N2156 0.984 . S
H2164 N2152 0.984 . S
H2165 N2152 0.985 . S
C2166 C2167 1.363 . S
C2166 C2172 1.379 1_565 S
C2166 N2174 1.356 . S
C2167 C2166 1.363 . S
C2167 C2173 1.363 . S
C2168 C2169 1.363 . S
C2168 C2173 1.379 1_545 S
C2168 N2175 1.356 . S
C2169 C2168 1.363 . S
C2169 C2172 1.363 . S
N2170 C2172 1.356 . S
N2170 H2182 0.984 . S
N2170 H2183 0.985 . S
N2171 C2173 1.356 . S
N2171 H2176 0.984 . S
N2171 H2177 0.985 . S
C2172 C2166 1.379 1_545 S
C2172 C2169 1.363 . S
C2172 N2170 1.356 . S
C2173 C2167 1.363 . S
C2173 C2168 1.379 1_565 S
C2173 N2171 1.356 . S
N2174 C2166 1.356 . S
N2174 H2180 0.984 . S
N2174 H2181 0.984 . S
N2175 C2168 1.356 . S
N2175 H2178 0.984 . S
N2175 H2179 0.985 . S
H2176 N2171 0.984 . S
H2177 N2171 0.985 . S
H2178 N2175 0.984 . S
H2179 N2175 0.985 . S
H2180 N2174 0.984 . S
H2181 N2174 0.984 . S
H2182 N2170 0.984 . S
H2183 N2170 0.985 . S
C2184 C2185 1.363 . S
C2184 C2190 1.379 1_655 S
C2184 N2192 1.356 . S
C2185 C2184 1.363 . S
C2185 C2191 1.363 . S
C2186 C2187 1.363 . S
C2186 C2191 1.379 1_455 S
C2186 N2193 1.356 . S
C2187 C2186 1.363 . S
C2187 C2190 1.363 . S
N2188 C2190 1.356 . S
N2188 H2200 0.984 . S
N2188 H2201 0.985 . S
N2189 C2191 1.356 . S
N2189 H2194 0.984 . S
N2189 H2195 0.985 . S
C2190 C2184 1.379 1_455 S
C2190 C2187 1.363 . S
C2190 N2188 1.356 . S
C2191 C2185 1.363 . S
C2191 C2186 1.379 1_655 S
C2191 N2189 1.356 . S
N2192 C2184 1.356 . S
N2192 H2198 0.984 . S
N2192 H2199 0.984 . S
N2193 C2186 1.356 . S
N2193 H2196 0.984 . S
N2193 H2197 0.985 . S
H2194 N2189 0.984 . S
H2195 N2189 0.985 . S
H2196 N2193 0.984 . S
H2197 N2193 0.985 . S
H2198 N2192 0.984 . S
H2199 N2192 0.984 . S
H2200 N2188 0.984 . S
H2201 N2188 0.985 . S
C2202 C2203 1.363 . S
C2202 C2208 1.379 1_545 S
C2202 N2210 1.356 . S
C2203 C2202 1.363 . S
C2203 C2209 1.363 . S
C2204 C2205 1.363 . S
C2204 C2209 1.379 1_565 S
C2204 N2211 1.356 . S
C2205 C2204 1.363 . S
C2205 C2208 1.363 . S
N2206 C2208 1.356 . S
N2206 H2218 0.984 . S
N2206 H2219 0.985 . S
N2207 C2209 1.356 . S
N2207 H2212 0.984 . S
N2207 H2213 0.985 . S
C2208 C2202 1.379 1_565 S
C2208 C2205 1.363 . S
C2208 N2206 1.356 . S
C2209 C2203 1.363 . S
C2209 C2204 1.379 1_545 S
C2209 N2207 1.356 . S
N2210 C2202 1.356 . S
N2210 H2216 0.984 . S
N2210 H2217 0.984 . S
N2211 C2204 1.356 . S
N2211 H2214 0.984 . S
N2211 H2215 0.985 . S
H2212 N2207 0.984 . S
H2213 N2207 0.985 . S
H2214 N2211 0.984 . S
H2215 N2211 0.985 . S
H2216 N2210 0.984 . S
H2217 N2210 0.984 . S
H2218 N2206 0.984 . S
H2219 N2206 0.985 . S
C2220 C2221 1.363 . S
C2220 C2226 1.379 1_455 S
C2220 N2228 1.356 . S
C2221 C2220 1.363 . S
C2221 C2227 1.363 . S
C2222 C2223 1.363 . S
C2222 C2227 1.379 1_655 S
C2222 N2229 1.356 . S
C2223 C2222 1.363 . S
C2223 C2226 1.363 . S
N2224 C2226 1.356 . S
N2224 H2236 0.984 . S
N2224 H2237 0.985 . S
N2225 C2227 1.356 . S
N2225 H2230 0.984 . S
N2225 H2231 0.985 . S
C2226 C2220 1.379 1_655 S
C2226 C2223 1.363 . S
C2226 N2224 1.356 . S
C2227 C2221 1.363 . S
C2227 C2222 1.379 1_455 S
C2227 N2225 1.356 . S
N2228 C2220 1.356 . S
N2228 H2234 0.984 . S
N2228 H2235 0.984 . S
N2229 C2222 1.356 . S
N2229 H2232 0.984 . S
N2229 H2233 0.985 . S
H2230 N2225 0.984 . S
H2231 N2225 0.985 . S
H2232 N2229 0.984 . S
H2233 N2229 0.985 . S
H2234 N2228 0.984 . S
H2235 N2228 0.984 . S
H2236 N2224 0.984 . S
H2237 N2224 0.985 . S
C2238 C2239 1.363 . S
C2238 C2244 1.379 1_545 S
C2238 N2246 1.356 . S
C2239 C2238 1.363 . S
C2239 C2245 1.363 . S
C2240 C2241 1.363 . S
C2240 C2245 1.379 1_565 S
C2240 N2247 1.356 . S
C2241 C2240 1.363 . S
C2241 C2244 1.363 . S
N2242 C2244 1.356 . S
N2242 H2254 0.984 . S
N2242 H2255 0.985 . S
N2243 C2245 1.356 . S
N2243 H2248 0.984 . S
N2243 H2249 0.985 . S
C2244 C2238 1.379 1_565 S
C2244 C2241 1.363 . S
C2244 N2242 1.356 . S
C2245 C2239 1.363 . S
C2245 C2240 1.379 1_545 S
C2245 N2243 1.356 . S
N2246 C2238 1.356 . S
N2246 H2252 0.984 . S
N2246 H2253 0.984 . S
N2247 C2240 1.356 . S
N2247 H2250 0.984 . S
N2247 H2251 0.985 . S
H2248 N2243 0.984 . S
H2249 N2243 0.985 . S
H2250 N2247 0.984 . S
H2251 N2247 0.985 . S
H2252 N2246 0.984 . S
H2253 N2246 0.984 . S
H2254 N2242 0.984 . S
H2255 N2242 0.985 . S
C2256 C2257 1.363 . S
C2256 C2262 1.379 1_545 S
C2256 N2264 1.356 . S
C2257 C2256 1.363 . S
C2257 C2263 1.363 . S
C2258 C2259 1.363 . S
C2258 C2263 1.379 1_565 S
C2258 N2265 1.356 . S
C2259 C2258 1.363 . S
C2259 C2262 1.363 . S
N2260 C2262 1.356 . S
N2260 H2272 0.984 . S
N2260 H2273 0.985 . S
N2261 C2263 1.356 . S
N2261 H2266 0.984 . S
N2261 H2267 0.985 . S
C2262 C2256 1.379 1_565 S
C2262 C2259 1.363 . S
C2262 N2260 1.356 . S
C2263 C2257 1.363 . S
C2263 C2258 1.379 1_545 S
C2263 N2261 1.356 . S
N2264 C2256 1.356 . S
N2264 H2270 0.984 . S
N2264 H2271 0.984 . S
N2265 C2258 1.356 . S
N2265 H2268 0.984 . S
N2265 H2269 0.985 . S
H2266 N2261 0.984 . S
H2267 N2261 0.985 . S
H2268 N2265 0.984 . S
H2269 N2265 0.985 . S
H2270 N2264 0.984 . S
H2271 N2264 0.984 . S
H2272 N2260 0.984 . S
H2273 N2260 0.985 . S
C2274 C2275 1.363 . S
C2274 C2280 1.379 1_545 S
C2274 N2282 1.356 . S
C2275 C2274 1.363 . S
C2275 C2281 1.363 . S
C2276 C2277 1.363 . S
C2276 C2281 1.379 1_565 S
C2276 N2283 1.356 . S
C2277 C2276 1.363 . S
C2277 C2280 1.363 . S
N2278 C2280 1.356 . S
N2278 H2290 0.984 . S
N2278 H2291 0.985 . S
N2279 C2281 1.356 . S
N2279 H2284 0.984 . S
N2279 H2285 0.985 . S
C2280 C2274 1.379 1_565 S
C2280 C2277 1.363 . S
C2280 N2278 1.356 . S
C2281 C2275 1.363 . S
C2281 C2276 1.379 1_545 S
C2281 N2279 1.356 . S
N2282 C2274 1.356 . S
N2282 H2288 0.984 . S
N2282 H2289 0.984 . S
N2283 C2276 1.356 . S
N2283 H2286 0.984 . S
N2283 H2287 0.985 . S
H2284 N2279 0.984 . S
H2285 N2279 0.985 . S
H2286 N2283 0.984 . S
H2287 N2283 0.985 . S
H2288 N2282 0.984 . S
H2289 N2282 0.984 . S
H2290 N2278 0.984 . S
H2291 N2278 0.985 . S
C2292 C2293 1.363 . S
C2292 C2298 1.379 1_655 S
C2292 N2300 1.356 . S
C2293 C2292 1.363 . S
C2293 C2299 1.363 . S
C2294 C2295 1.363 . S
C2294 C2299 1.379 1_455 S
C2294 N2301 1.356 . S
C2295 C2294 1.363 . S
C2295 C2298 1.363 . S
N2296 C2298 1.356 . S
N2296 H2308 0.984 . S
N2296 H2309 0.985 . S
N2297 C2299 1.356 . S
N2297 H2302 0.984 . S
N2297 H2303 0.985 . S
C2298 C2292 1.379 1_455 S
C2298 C2295 1.363 . S
C2298 N2296 1.356 . S
C2299 C2293 1.363 . S
C2299 C2294 1.379 1_655 S
C2299 N2297 1.356 . S
N2300 C2292 1.356 . S
N2300 H2306 0.984 . S
N2300 H2307 0.984 . S
N2301 C2294 1.356 . S
N2301 H2304 0.984 . S
N2301 H2305 0.985 . S
H2302 N2297 0.984 . S
H2303 N2297 0.985 . S
H2304 N2301 0.984 . S
H2305 N2301 0.985 . S
H2306 N2300 0.984 . S
H2307 N2300 0.984 . S
H2308 N2296 0.984 . S
H2309 N2296 0.985 . S
C2310 C2311 1.363 . S
C2310 C2316 1.379 1_545 S
C2310 N2318 1.356 . S
C2311 C2310 1.363 . S
C2311 C2317 1.363 . S
C2312 C2313 1.363 . S
C2312 C2317 1.379 1_565 S
C2312 N2319 1.356 . S
C2313 C2312 1.363 . S
C2313 C2316 1.363 . S
N2314 C2316 1.356 . S
N2314 H2326 0.984 . S
N2314 H2327 0.985 . S
N2315 C2317 1.356 . S
N2315 H2320 0.984 . S
N2315 H2321 0.985 . S
C2316 C2310 1.379 1_565 S
C2316 C2313 1.363 . S
C2316 N2314 1.356 . S
C2317 C2311 1.363 . S
C2317 C2312 1.379 1_545 S
C2317 N2315 1.356 . S
N2318 C2310 1.356 . S
N2318 H2324 0.984 . S
N2318 H2325 0.984 . S
N2319 C2312 1.356 . S
N2319 H2322 0.984 . S
N2319 H2323 0.985 . S
H2320 N2315 0.984 . S
H2321 N2315 0.985 . S
H2322 N2319 0.984 . S
H2323 N2319 0.985 . S
H2324 N2318 0.984 . S
H2325 N2318 0.984 . S
H2326 N2314 0.984 . S
H2327 N2314 0.985 . S
C2328 C2329 1.363 . S
C2328 C2334 1.379 1_455 S
C2328 N2336 1.356 . S
C2329 C2328 1.363 . S
C2329 C2335 1.363 . S
C2330 C2331 1.363 . S
C2330 C2335 1.379 1_655 S
C2330 N2337 1.356 . S
C2331 C2330 1.363 . S
C2331 C2334 1.363 . S
N2332 C2334 1.356 . S
N2332 H2344 0.984 . S
N2332 H2345 0.985 . S
N2333 C2335 1.356 . S
N2333 H2338 0.984 . S
N2333 H2339 0.985 . S
C2334 C2328 1.379 1_655 S
C2334 C2331 1.363 . S
C2334 N2332 1.356 . S
C2335 C2329 1.363 . S
C2335 C2330 1.379 1_455 S
C2335 N2333 1.356 . S
N2336 C2328 1.356 . S
N2336 H2342 0.984 . S
N2336 H2343 0.984 . S
N2337 C2330 1.356 . S
N2337 H2340 0.984 . S
N2337 H2341 0.985 . S
H2338 N2333 0.984 . S
H2339 N2333 0.985 . S
H2340 N2337 0.984 . S
H2341 N2337 0.985 . S
H2342 N2336 0.984 . S
H2343 N2336 0.984 . S
H2344 N2332 0.984 . S
H2345 N2332 0.985 . S
C2346 C2347 1.363 . S
C2346 C2352 1.379 1_545 S
C2346 N2354 1.356 . S
C2347 C2346 1.363 . S
C2347 C2353 1.363 . S
C2348 C2349 1.363 . S
C2348 C2353 1.379 1_565 S
C2348 N2355 1.356 . S
C2349 C2348 1.363 . S
C2349 C2352 1.363 . S
N2350 C2352 1.356 . S
N2350 H2362 0.984 . S
N2350 H2363 0.985 . S
N2351 C2353 1.356 . S
N2351 H2356 0.984 . S
N2351 H2357 0.985 . S
C2352 C2346 1.379 1_565 S
C2352 C2349 1.363 . S
C2352 N2350 1.356 . S
C2353 C2347 1.363 . S
C2353 C2348 1.379 1_545 S
C2353 N2351 1.356 . S
N2354 C2346 1.356 . S
N2354 H2360 0.984 . S
N2354 H2361 0.984 . S
N2355 C2348 1.356 . S
N2355 H2358 0.984 . S
N2355 H2359 0.985 . S
H2356 N2351 0.984 . S
H2357 N2351 0.985 . S
H2358 N2355 0.984 . S
H2359 N2355 0.985 . S
H2360 N2354 0.984 . S
H2361 N2354 0.984 . S
H2362 N2350 0.984 . S
H2363 N2350 0.985 . S
C2364 C2365 1.363 . S
C2364 C2370 1.379 1_655 S
C2364 N2372 1.356 . S
C2365 C2364 1.363 . S
C2365 C2371 1.363 . S
C2366 C2367 1.363 . S
C2366 C2371 1.379 1_455 S
C2366 N2373 1.356 . S
C2367 C2366 1.363 . S
C2367 C2370 1.363 . S
N2368 C2370 1.356 . S
N2368 H2380 0.984 . S
N2368 H2381 0.985 . S
N2369 C2371 1.356 . S
N2369 H2374 0.984 . S
N2369 H2375 0.985 . S
C2370 C2364 1.379 1_455 S
C2370 C2367 1.363 . S
C2370 N2368 1.356 . S
C2371 C2365 1.363 . S
C2371 C2366 1.379 1_655 S
C2371 N2369 1.356 . S
N2372 C2364 1.356 . S
N2372 H2378 0.984 . S
N2372 H2379 0.984 . S
N2373 C2366 1.356 . S
N2373 H2376 0.984 . S
N2373 H2377 0.985 . S
H2374 N2369 0.984 . S
H2375 N2369 0.985 . S
H2376 N2373 0.984 . S
H2377 N2373 0.985 . S
H2378 N2372 0.984 . S
H2379 N2372 0.984 . S
H2380 N2368 0.984 . S
H2381 N2368 0.985 . S
C2382 C2383 1.363 . S
C2382 C2388 1.379 1_455 S
C2382 N2390 1.356 . S
C2383 C2382 1.363 . S
C2383 C2389 1.363 . S
C2384 C2385 1.363 . S
C2384 C2389 1.379 1_655 S
C2384 N2391 1.356 . S
C2385 C2384 1.363 . S
C2385 C2388 1.363 . S
N2386 C2388 1.356 . S
N2386 H2398 0.984 . S
N2386 H2399 0.985 . S
N2387 C2389 1.356 . S
N2387 H2392 0.984 . S
N2387 H2393 0.985 . S
C2388 C2382 1.379 1_655 S
C2388 C2385 1.363 . S
C2388 N2386 1.356 . S
C2389 C2383 1.363 . S
C2389 C2384 1.379 1_455 S
C2389 N2387 1.356 . S
N2390 C2382 1.356 . S
N2390 H2396 0.984 . S
N2390 H2397 0.984 . S
N2391 C2384 1.356 . S
N2391 H2394 0.984 . S
N2391 H2395 0.985 . S
H2392 N2387 0.984 . S
H2393 N2387 0.985 . S
H2394 N2391 0.984 . S
H2395 N2391 0.985 . S
H2396 N2390 0.984 . S
H2397 N2390 0.984 . S
H2398 N2386 0.984 . S
H2399 N2386 0.985 . S
C673 C554 1.358 . S
C675 C3 1.359 . S
C691 C22 1.375 . S
C693 C507 1.376 . S
C709 C31 1.355 . S
C711 C526 1.355 . S
C727 C540 1.346 . S
C729 C50 1.343 . S
C745 C470 1.276 . S
C747 C59 1.275 . S
C763 C73 1.388 . S
C765 C484 1.392 . S
C781 C87 1.299 . S
C783 C493 1.295 . S
C799 C101 1.420 . S
C801 C451 1.424 . S
C817 C120 1.421 . S
C819 C437 1.418 . S
C835 C400 1.315 . S
C837 C129 1.316 . S
C853 C409 1.370 . S
C855 C148 1.372 . S
C871 C157 1.311 . S
C873 C428 1.312 . S
C889 C176 1.282 . S
C891 C358 1.280 . S
C907 C185 1.327 . S
C909 C367 1.324 . S
C925 C386 1.230 . S
C927 C204 1.230 . S
C943 C339 1.389 . S
C945 C213 1.393 . S
C961 C232 1.424 . S
C963 C624 1.422 . S
C979 C661 1.402 . S
C981 C241 1.398 . S
C997 C638 1.391 . S
C999 C260 1.390 . S
C1015 C647 1.336 . S
C1017 C269 1.331 . S
C1033 C568 1.367 . S
C1035 C288 1.369 . S
C1051 C596 1.399 . S
C1053 C302 1.399 . S
C1069 C316 1.296 . S
C1071 C605 1.295 . S
C1087 C577 1.244 . S
C1089 C330 1.246 . S
C1105 C456 1.358 . S
C1107 C283 1.359 . S
C1123 C246 1.377 . S
C1125 C465 1.377 . S
C1141 C479 1.370 . S
C1143 C255 1.373 . S
C1159 C498 1.353 . S
C1161 C274 1.350 . S
C1177 C325 1.283 . S
C1179 C512 1.284 . S
C1195 C521 1.412 . S
C1197 C297 1.406 . S
C1213 C311 1.302 . S
C1215 C535 1.297 . S
C1231 C227 1.418 . S
C1233 C549 1.423 . S
C1249 C563 1.417 . S
C1251 C218 1.420 . S
C1267 C171 1.330 . S
C1269 C666 1.330 . S
C1285 C633 1.373 . S
C1287 C190 1.375 . S
C1303 C199 1.253 . S
C1305 C652 1.256 . S
C1321 C134 1.229 . S
C1323 C582 1.228 . S
C1339 C143 1.330 . S
C1341 C591 1.328 . S
C1357 C162 1.246 . S
C1359 C610 1.245 . S
C1375 C619 1.389 . S
C1377 C115 1.393 . S
C1393 C344 1.420 . S
C1395 C106 1.422 . S
C1411 C395 1.393 . S
C1413 C17 1.390 . S
C1429 C414 1.363 . S
C1431 C36 1.363 . S
C1447 C423 1.340 . S
C1449 C45 1.337 . S
C1465 C442 1.365 . S
C1467 C8 1.367 . S
C1483 C78 1.372 . S
C1485 C372 1.371 . S
C1501 C381 1.286 . S
C1503 C92 1.288 . S
C1519 C353 1.249 . S
C1521 C64 1.251 . S
C1537 C7 1.503 . S
C1539 C371 1.503 . S
C1555 C387 1.412 . S
C1557 C23 1.409 . S
C1573 C35 1.506 . S
C1575 C343 1.504 . S
C1591 C51 1.406 . S
C1593 C359 1.402 . S
C1609 C63 1.454 . S
C1611 C429 1.454 . S
C1627 C441 1.510 . S
C1629 C77 1.508 . S
C1645 C91 1.462 . S
C1647 C401 1.464 . S
C1663 C413 1.522 . S
C1665 C105 1.521 . S
C1681 C121 1.537 . S
C1683 C511 1.536 . S
C1699 C527 1.470 . S
C1701 C133 1.476 . S
C1717 C149 1.481 . S
C1719 C541 1.489 . S
C1735 C161 1.482 . S
C1737 C555 1.476 . S
C1753 C177 1.500 . S
C1755 C455 1.493 . S
C1771 C189 1.458 . S
C1773 C471 1.461 . S
C1789 C485 1.441 . S
C1791 C205 1.440 . S
C1807 C217 1.510 . S
C1809 C497 1.517 . S
C1825 C609 1.488 . S
C1827 C233 1.491 . S
C1843 C245 1.485 . S
C1845 C639 1.496 . S
C1861 C261 1.517 . S
C1863 C651 1.510 . S
C1879 C569 1.469 . S
C1881 C273 1.458 . S
C1897 C665 1.507 . S
C1899 C289 1.511 . S
C1915 C303 1.469 . S
C1917 C581 1.463 . S
C1933 C597 1.475 . S
C1935 C317 1.469 . S
C1951 C331 1.450 . S
C1953 C625 1.466 . S
C1969 C595 1.508 . S
C1971 C287 1.509 . S
C1987 C247 1.414 . S
C1989 C611 1.416 . S
C2005 C623 1.511 . S
C2007 C259 1.515 . S
C2023 C583 1.400 . S
C2025 C275 1.401 . S
C2041 C653 1.452 . S
C2043 C329 1.450 . S
C2059 C301 1.517 . S
C2061 C567 1.517 . S
C2077 C667 1.468 . S
C2079 C315 1.466 . S
C2095 C231 1.526 . S
C2097 C637 1.526 . S
C2113 C469 1.537 . S
C2115 C219 1.538 . S
C2131 C175 1.501 . S
C2133 C483 1.489 . S
C2149 C191 1.481 . S
C2151 C499 1.488 . S
C2167 C457 1.449 . S
C2169 C203 1.453 . S
C2185 C135 1.469 . S
C2187 C553 1.466 . S
C2203 C513 1.460 . S
C2205 C147 1.458 . S
C2221 C163 1.466 . S
C2223 C525 1.462 . S
C2239 C119 1.510 . S
C2241 C539 1.517 . S
C2257 C385 1.486 . S
C2259 C107 1.489 . S
C2275 C21 1.477 . S
C2277 C415 1.489 . S
C2293 C37 1.496 . S
C2295 C427 1.490 . S
C2311 C443 1.464 . S
C2313 C49 1.456 . S
C2329 C9 1.509 . S
C2331 C399 1.505 . S
C2347 C79 1.447 . S
C2349 C357 1.443 . S
C2365 C93 1.463 . S
C2367 C373 1.468 . S
C2383 C65 1.452 . S
C2385 C345 1.462 . S
