# Generated by pormake.
# Topology mok, (4)-cn, num edge types: 1
# Building blocks:
#     Node 0, Type 0, BuildingBlock: NAHDIM_clean_sbu_0, # of connection points: 4
#     Node 1, Type 0, BuildingBlock: NAHDIM_clean_sbu_0, # of connection points: 4
#     Node 2, Type 0, BuildingBlock: NAHDIM_clean_sbu_0, # of connection points: 4
#     Node 3, Type 0, BuildingBlock: NAHDIM_clean_sbu_0, # of connection points: 4
#     Node 4, Type 0, BuildingBlock: NAHDIM_clean_sbu_0, # of connection points: 4
#     Node 5, Type 0, BuildingBlock: NAHDIM_clean_sbu_0, # of connection points: 4
#     Node 6, Type 0, BuildingBlock: NAHDIM_clean_sbu_0, # of connection points: 4
#     Node 7, Type 0, BuildingBlock: NAHDIM_clean_sbu_0, # of connection points: 4
#     Edge 8, Type (0, 0), BuildingBlock: MIFKUJ_clean_linker_0, # of connection points: 2
#     Edge 9, Type (0, 0), BuildingBlock: MIFKUJ_clean_linker_0, # of connection points: 2
#     Edge 10, Type (0, 0), BuildingBlock: MIFKUJ_clean_linker_0, # of connection points: 2
#     Edge 11, Type (0, 0), BuildingBlock: MIFKUJ_clean_linker_0, # of connection points: 2
#     Edge 12, Type (0, 0), BuildingBlock: MIFKUJ_clean_linker_0, # of connection points: 2
#     Edge 13, Type (0, 0), BuildingBlock: MIFKUJ_clean_linker_0, # of connection points: 2
#     Edge 14, Type (0, 0), BuildingBlock: MIFKUJ_clean_linker_0, # of connection points: 2
#     Edge 15, Type (0, 0), BuildingBlock: MIFKUJ_clean_linker_0, # of connection points: 2
#     Edge 16, Type (0, 0), BuildingBlock: MIFKUJ_clean_linker_0, # of connection points: 2
#     Edge 17, Type (0, 0), BuildingBlock: MIFKUJ_clean_linker_0, # of connection points: 2
#     Edge 18, Type (0, 0), BuildingBlock: MIFKUJ_clean_linker_0, # of connection points: 2
#     Edge 19, Type (0, 0), BuildingBlock: MIFKUJ_clean_linker_0, # of connection points: 2
#     Edge 20, Type (0, 0), BuildingBlock: MIFKUJ_clean_linker_0, # of connection points: 2
#     Edge 21, Type (0, 0), BuildingBlock: MIFKUJ_clean_linker_0, # of connection points: 2
#     Edge 22, Type (0, 0), BuildingBlock: MIFKUJ_clean_linker_0, # of connection points: 2
#     Edge 23, Type (0, 0), BuildingBlock: MIFKUJ_clean_linker_0, # of connection points: 2
# Relax obj value: 0.052
# Max RMSD: 0.062
# Mean RMSD: 0.062
data_MOF--net-mok--node1-NAHDIM_clean_sbu_0--edge1-MIFKUJ_clean_linker_0
_symmetry_space_group_name_H-M    P1
_symmetry_Int_Tables_number       1
_symmetry_cell_setting            triclinic
loop_
_symmetry_equiv_pos_as_xyz
'x, y, z'
_cell_length_a     64.337161
_cell_length_b     25.873952
_cell_length_c     32.600034
_cell_angle_alpha  90.00928
_cell_angle_beta   90.004614
_cell_angle_gamma 90.009114
loop_
_atom_site_label
_atom_site_type_symbol
_atom_site_fract_x
_atom_site_fract_y
_atom_site_fract_z
_atom_type_partial_charge
C0 C 0.56345 0.22947 0.02769 0.0
O1 O 0.5545 0.27501 0.03029 0.0
O2 O 0.58902 0.33254 0.96963 0.0
Zn3 Zn 0.59879 0.29417 0.01979 0.0
O4 O 0.59382 0.3359 0.07123 0.0
C5 C 0.63715 0.2504 0.98733 0.0
O6 O 0.62455 0.22572 0.96236 0.0
O7 O 0.58306 0.2272 0.02337 0.0
C8 C 0.60624 0.33014 0.1012 0.0
O9 O 0.62157 0.29686 0.09785 0.0
C10 C 0.58566 0.38093 0.9687 0.0
O11 O 0.58831 0.40833 0.00222 0.0
O12 O 0.62956 0.28089 0.01396 0.0
C13 C 0.4379 0.76926 0.01433 0.0
O14 O 0.44651 0.7234 0.01732 0.0
O15 O 0.40652 0.67196 0.95102 0.0
Zn16 Zn 0.40069 0.70844 0.00451 0.0
O17 O 0.40608 0.6619 0.05317 0.0
C18 C 0.35677 0.69612 0.99324 0.0
O19 O 0.36289 0.65004 0.98146 0.0
O20 O 0.41838 0.77251 0.00891 0.0
C21 C 0.40215 0.61375 0.05221 0.0
O22 O 0.3951 0.59306 0.01815 0.0
C23 C 0.42156 0.64152 0.94355 0.0
O24 O 0.43527 0.63175 0.97237 0.0
O25 O 0.37032 0.72893 0.00461 0.0
C26 C 0.56575 0.77694 0.51735 0.0
O27 O 0.55726 0.73074 0.51773 0.0
O28 O 0.59312 0.6801 0.57914 0.0
Zn29 Zn 0.60245 0.71677 0.52777 0.0
O30 O 0.59848 0.67159 0.47749 0.0
C31 C 0.64513 0.70695 0.55318 0.0
O32 O 0.63826 0.66281 0.56779 0.0
O33 O 0.58533 0.78095 0.52111 0.0
C34 C 0.61333 0.64622 0.46145 0.0
O35 O 0.63194 0.64919 0.47778 0.0
C36 C 0.5871 0.63333 0.57985 0.0
O37 O 0.58642 0.60692 0.54546 0.0
O38 O 0.63259 0.73685 0.53458 0.0
C39 C 0.43608 0.22872 0.50199 0.0
O40 O 0.44409 0.27544 0.5026 0.0
O41 O 0.40633 0.32619 0.55828 0.0
Zn42 Zn 0.39877 0.28721 0.50702 0.0
O43 O 0.40322 0.33065 0.45661 0.0
C44 C 0.35496 0.30267 0.50911 0.0
O45 O 0.36098 0.3509 0.50477 0.0
O46 O 0.41645 0.22359 0.50341 0.0
C47 C 0.39693 0.31325 0.42235 0.0
O48 O 0.38799 0.26761 0.42114 0.0
C49 C 0.4114 0.37365 0.55857 0.0
O50 O 0.4121 0.39926 0.52381 0.0
O51 O 0.36863 0.26729 0.51068 0.0
C52 C 0.05906 0.73328 0.02521 0.0
O53 O 0.05028 0.77853 0.01934 0.0
O54 O 0.08417 0.83466 0.97359 0.0
Zn55 Zn 0.09519 0.79635 0.02295 0.0
O56 O 0.09174 0.83797 0.07506 0.0
C57 C 0.13766 0.80857 0.99465 0.0
O58 O 0.13027 0.85128 0.97848 0.0
O59 O 0.07872 0.73078 0.02833 0.0
C60 C 0.10453 0.87349 0.08449 0.0
O61 O 0.12001 0.88372 0.05956 0.0
C62 C 0.07874 0.88189 0.97334 0.0
O63 O 0.08041 0.90941 0.00702 0.0
O64 O 0.12553 0.77881 0.01443 0.0
C65 C 0.93574 0.2705 0.01154 0.0
O66 O 0.94387 0.22544 0.02085 0.0
O67 O 0.91273 0.1704 0.93908 0.0
Zn68 Zn 0.90172 0.20558 0.9899 0.0
O69 O 0.90516 0.16216 0.04062 0.0
C70 C 0.85928 0.18948 0.96407 0.0
O71 O 0.86745 0.14903 0.94581 0.0
O72 O 0.91729 0.27221 0.99769 0.0
C73 C 0.90335 0.11329 0.04189 0.0
O74 O 0.89958 0.08749 0.00799 0.0
C75 C 0.92835 0.14031 0.93805 0.0
O76 O 0.93837 0.12953 0.97209 0.0
O77 O 0.87106 0.22004 0.98389 0.0
C78 C 0.058 0.26837 0.52398 0.0
O79 O 0.04858 0.22331 0.52414 0.0
O80 O 0.08368 0.16967 0.58857 0.0
Zn81 Zn 0.09348 0.20443 0.53692 0.0
O82 O 0.08938 0.15903 0.48758 0.0
C83 C 0.13717 0.18466 0.54344 0.0
O84 O 0.1306 0.13657 0.54413 0.0
O85 O 0.07756 0.27007 0.52895 0.0
C86 C 0.09816 0.17322 0.45455 0.0
O87 O 0.10899 0.21629 0.45442 0.0
C88 C 0.07162 0.13076 0.58855 0.0
O89 O 0.06528 0.11146 0.55344 0.0
O90 O 0.12392 0.22099 0.5414 0.0
C91 C 0.94034 0.73889 0.49943 0.0
O92 O 0.9498 0.78386 0.49773 0.0
O93 O 0.91763 0.84514 0.55289 0.0
Zn94 Zn 0.90537 0.80489 0.50573 0.0
O95 O 0.90869 0.84127 0.45132 0.0
C96 C 0.86326 0.82181 0.53497 0.0
O97 O 0.87084 0.86625 0.54749 0.0
O98 O 0.92068 0.73772 0.50263 0.0
C99 C 0.89691 0.87797 0.4399 0.0
O100 O 0.88218 0.89424 0.46459 0.0
C101 C 0.92075 0.89361 0.55358 0.0
O102 O 0.91588 0.92165 0.52142 0.0
O103 O 0.87511 0.78992 0.51671 0.0
H104 H 0.83683 0.25993 0.00827 0.0
H105 H 0.79905 0.26968 0.01061 0.0
H106 H 0.79231 0.14717 0.9219 0.0
H107 H 0.83012 0.13705 0.91934 0.0
H108 H 0.76668 0.23171 0.90586 0.0
H109 H 0.78404 0.12105 0.019 0.0
H110 H 0.80305 0.09649 0.08168 0.0
H111 H 0.77852 0.2292 0.14425 0.0
H112 H 0.75966 0.2551 0.08163 0.0
H113 H 0.65866 0.18694 0.93515 0.0
H114 H 0.69634 0.17636 0.93001 0.0
H115 H 0.70494 0.28798 0.02686 0.0
H116 H 0.66732 0.2981 0.03272 0.0
H117 H 0.72979 0.20731 0.03814 0.0
H118 H 0.71316 0.31971 0.92589 0.0
H119 H 0.69481 0.34702 0.86311 0.0
H120 H 0.71818 0.21403 0.79923 0.0
H121 H 0.73645 0.18553 0.86183 0.0
C122 C 0.82734 0.23525 0.98904 0.0
C123 C 0.83649 0.19753 0.96375 0.0
C124 C 0.80575 0.24076 0.99054 0.0
C125 C 0.79289 0.20878 0.96674 0.0
C126 C 0.80197 0.17214 0.94057 0.0
C127 C 0.82357 0.16634 0.93925 0.0
C128 C 0.76996 0.21289 0.96985 0.0
C129 C 0.75855 0.2257 0.93463 0.0
C130 C 0.75947 0.20612 0.00762 0.0
C131 C 0.7706 0.1903 0.04548 0.0
C132 C 0.78283 0.14523 0.04602 0.0
C133 C 0.79356 0.13103 0.08157 0.0
C134 C 0.79203 0.16134 0.11692 0.0
C135 C 0.77972 0.20581 0.11682 0.0
C136 C 0.769 0.22026 0.08131 0.0
C137 C 0.66856 0.20923 0.95538 0.0
C138 C 0.65996 0.2435 0.98425 0.0
C139 C 0.69012 0.2033 0.95228 0.0
C140 C 0.7035 0.23185 0.97772 0.0
C141 C 0.69493 0.26559 0.00689 0.0
C142 C 0.6734 0.27143 0.0101 0.0
C143 C 0.72642 0.22645 0.97415 0.0
C144 C 0.73786 0.21329 0.00931 0.0
C145 C 0.73694 0.23317 0.93636 0.0
C146 C 0.72599 0.25021 0.89867 0.0
C147 C 0.71424 0.29606 0.89855 0.0
C148 C 0.70389 0.31179 0.86298 0.0
C149 C 0.70528 0.2822 0.82724 0.0
C150 C 0.71709 0.23687 0.82696 0.0
C151 C 0.72746 0.22093 0.86246 0.0
H152 H 0.69726 0.29445 0.79973 0.0
H153 H 0.80036 0.15034 0.14441 0.0
H154 H 0.15677 0.71487 0.00259 0.0
H155 H 0.19406 0.69684 0.00104 0.0
H156 H 0.20661 0.85913 0.98266 0.0
H157 H 0.1693 0.8768 0.98196 0.0
H158 H 0.23169 0.80855 0.93808 0.0
H159 H 0.21226 0.79472 0.07919 0.0
H160 H 0.1921 0.76372 0.13863 0.0
H161 H 0.2115 0.608 0.11397 0.0
H162 H 0.23157 0.63799 0.05403 0.0
H163 H 0.33878 0.79181 -1e-05 0.0
H164 H 0.30155 0.81233 -0.00058 0.0
H165 H 0.28704 0.6504 0.98685 0.0
H166 H 0.32409 0.62959 0.98691 0.0
H167 H 0.26366 0.70296 0.04831 0.0
H168 H 0.28345 0.72182 0.90581 0.0
H169 H 0.30437 0.75747 0.84908 0.0
H170 H 0.2851 0.91109 0.88131 0.0
H171 H 0.2643 0.87638 0.93862 0.0
C172 C 0.16751 0.74662 0.99806 0.0
C173 C 0.16015 0.79725 0.99256 0.0
C174 C 0.18884 0.73637 0.99747 0.0
C175 C 0.20326 0.77678 0.99269 0.0
C176 C 0.19586 0.82726 0.9865 0.0
C177 C 0.17452 0.83735 0.98616 0.0
C178 C 0.22602 0.7665 0.99411 0.0
C179 C 0.23866 0.78609 0.96257 0.0
C180 C 0.23524 0.73671 0.02577 0.0
C181 C 0.22326 0.71856 0.0619 0.0
C182 C 0.21212 0.75382 0.08628 0.0
C183 C 0.20072 0.73644 0.12008 0.0
C184 C 0.20048 0.68391 0.13001 0.0
C185 C 0.21168 0.64867 0.10621 0.0
C186 C 0.22309 0.66585 0.07235 0.0
C187 C 0.32765 0.7606 0.99713 0.0
C188 C 0.33437 0.70909 0.9934 0.0
C189 C 0.30642 0.77239 0.99669 0.0
C190 C 0.2916 0.73285 0.99292 0.0
C191 C 0.29826 0.68142 0.98977 0.0
C192 C 0.31944 0.66966 0.98967 0.0
C193 C 0.2691 0.74485 0.99234 0.0
C194 C 0.25658 0.72558 0.02403 0.0
C195 C 0.26007 0.77571 0.96132 0.0
C196 C 0.2725 0.79654 0.92676 0.0
C197 C 0.28382 0.76324 0.90102 0.0
C198 C 0.29563 0.78326 0.86871 0.0
C199 C 0.29611 0.83652 0.86167 0.0
C200 C 0.28474 0.86985 0.88684 0.0
C201 C 0.27293 0.85002 0.91922 0.0
H202 H 0.30526 0.85195 0.83664 0.0
H203 H 0.19164 0.67052 0.15618 0.0
H204 H 0.83163 0.88923 0.55067 0.0
H205 H 0.79464 0.86966 0.55701 0.0
H206 H 0.8077 0.70741 0.53985 0.0
H207 H 0.84461 0.72716 0.53161 0.0
H208 H 0.77601 0.7303 0.4969 0.0
H209 H 0.79457 0.76277 0.63621 0.0
H210 H 0.80956 0.81075 0.69449 0.0
H211 H 0.76701 0.93574 0.67321 0.0
H212 H 0.75195 0.88881 0.61441 0.0
H213 H 0.67737 0.64113 0.5679 0.0
H214 H 0.71454 0.66144 0.56804 0.0
H215 H 0.70061 0.82171 0.54458 0.0
H216 H 0.66335 0.80162 0.54356 0.0
H217 H 0.73218 0.79875 0.60976 0.0
H218 H 0.71459 0.76154 0.4681 0.0
H219 H 0.69952 0.70788 0.4131 0.0
H220 H 0.74093 0.58381 0.44424 0.0
H221 H 0.75603 0.6365 0.4999 0.0
C222 C 0.82662 0.84936 0.54848 0.0
C223 C 0.84101 0.80972 0.54068 0.0
C224 C 0.80547 0.83815 0.55235 0.0
C225 C 0.79834 0.78691 0.54956 0.0
C226 C 0.81277 0.74724 0.54211 0.0
C227 C 0.83387 0.75855 0.53749 0.0
C228 C 0.77581 0.77484 0.55288 0.0
C229 C 0.76657 0.74472 0.52198 0.0
C230 C 0.76328 0.79415 0.58523 0.0
C231 C 0.77227 0.82247 0.62064 0.0
C232 C 0.78851 0.80066 0.64375 0.0
C233 C 0.79701 0.82764 0.67692 0.0
C234 C 0.78928 0.87632 0.68748 0.0
C235 C 0.773 0.89806 0.66496 0.0
C236 C 0.76446 0.87127 0.63173 0.0
C237 C 0.6822 0.68077 0.56306 0.0
C238 C 0.66747 0.71979 0.55555 0.0
C239 C 0.70341 0.69224 0.5631 0.0
C240 C 0.71022 0.74299 0.55623 0.0
C241 C 0.69557 0.78234 0.54999 0.0
C242 C 0.67435 0.77075 0.54923 0.0
C243 C 0.73268 0.7545 0.55392 0.0
C244 C 0.7418 0.78442 0.58491 0.0
C245 C 0.74519 0.73425 0.52215 0.0
C246 C 0.73627 0.70276 0.48844 0.0
C247 C 0.72035 0.72265 0.46346 0.0
C248 C 0.71183 0.69245 0.43213 0.0
C249 C 0.71922 0.64241 0.42526 0.0
C250 C 0.7352 0.62255 0.44964 0.0
C251 C 0.74375 0.65257 0.48106 0.0
H252 H 0.7126 0.61909 0.40098 0.0
H253 H 0.79587 0.89714 0.71317 0.0
H254 H 0.15575 0.27917 0.53552 0.0
H255 H 0.19289 0.29785 0.53068 0.0
H256 H 0.20673 0.13563 0.54405 0.0
H257 H 0.16956 0.11652 0.54918 0.0
H258 H 0.23263 0.19676 0.59043 0.0
H259 H 0.20857 0.18891 0.45137 0.0
H260 H 0.18582 0.21095 0.39307 0.0
H261 H 0.2042 0.37009 0.4022 0.0
H262 H 0.22684 0.34911 0.46098 0.0
H263 H 0.33737 0.20759 0.52142 0.0
H264 H 0.30044 0.18709 0.52825 0.0
H265 H 0.28507 0.3481 0.5122 0.0
H266 H 0.32195 0.36892 0.50495 0.0
H267 H 0.25998 0.2862 0.46704 0.0
H268 H 0.28386 0.29426 0.60638 0.0
H269 H 0.30651 0.27236 0.66487 0.0
H270 H 0.28849 0.11301 0.65529 0.0
H271 H 0.26594 0.13385 0.59634 0.0
C272 C 0.16667 0.24744 0.53766 0.0
C273 C 0.15969 0.1963 0.54256 0.0
C274 C 0.18789 0.25819 0.53472 0.0
C275 C 0.20253 0.21804 0.53652 0.0
C276 C 0.19567 0.16713 0.5425 0.0
C277 C 0.17442 0.1563 0.54531 0.0
C278 C 0.22499 0.22921 0.53151 0.0
C279 C 0.23868 0.21568 0.56323 0.0
C280 C 0.23276 0.25482 0.49634 0.0
C281 C 0.21925 0.26751 0.46084 0.0
C282 C 0.20764 0.22868 0.44116 0.0
C283 C 0.19478 0.24096 0.40799 0.0
C284 C 0.19353 0.29191 0.39401 0.0
C285 C 0.20517 0.33065 0.4131 0.0
C286 C 0.21803 0.31858 0.44633 0.0
C287 C 0.32614 0.23867 0.51931 0.0
C288 C 0.33261 0.28994 0.51277 0.0
C289 C 0.30505 0.22689 0.52339 0.0
C290 C 0.29003 0.26616 0.52117 0.0
C291 C 0.29641 0.31723 0.51408 0.0
C292 C 0.3175 0.32907 0.51005 0.0
C293 C 0.26764 0.25397 0.52604 0.0
C294 C 0.25395 0.26726 0.49425 0.0
C295 C 0.25989 0.22816 0.56114 0.0
C296 C 0.27338 0.21554 0.59668 0.0
C297 C 0.28486 0.25448 0.61653 0.0
C298 C 0.29765 0.24227 0.64981 0.0
C299 C 0.29898 0.1913 0.66372 0.0
C300 C 0.28747 0.15246 0.64445 0.0
C301 C 0.27466 0.16445 0.61112 0.0
H302 H 0.30889 0.18192 0.68949 0.0
H303 H 0.18357 0.30135 0.36832 0.0
H304 H 0.57299 0.3893 0.12508 0.0
H305 H 0.56982 0.44117 0.18764 0.0
H306 H 0.63155 0.39469 0.22407 0.0
H307 H 0.63449 0.34155 0.16266 0.0
H308 H 0.60715 0.39133 0.28734 0.0
H309 H 0.61976 0.51669 0.17924 0.0
H310 H 0.61208 0.56083 0.1139 0.0
H311 H 0.5522 0.60598 0.15975 0.0
H312 H 0.55945 0.5616 0.22522 0.0
H313 H 0.64125 0.583 0.42351 0.0
H314 H 0.63561 0.52823 0.36369 0.0
H315 H 0.57193 0.57959 0.35669 0.0
H316 H 0.57746 0.63499 0.41676 0.0
H317 H 0.59154 0.57894 0.28096 0.0
H318 H 0.58126 0.46242 0.39252 0.0
H319 H 0.58968 0.41976 0.45807 0.0
H320 H 0.64574 0.35848 0.40573 0.0
H321 H 0.63782 0.40141 0.34001 0.0
C322 C 0.58585 0.39013 0.14652 0.0
C323 C 0.60401 0.36142 0.13891 0.0
C324 C 0.58406 0.41995 0.18217 0.0
C325 C 0.60055 0.4224 0.21038 0.0
C326 C 0.61859 0.39337 0.20287 0.0
C327 C 0.62027 0.36308 0.16764 0.0
C328 C 0.59932 0.45514 0.24777 0.0
C329 C 0.60389 0.43242 0.28583 0.0
C330 C 0.59435 0.50846 0.24614 0.0
C331 C 0.59006 0.53539 0.20692 0.0
C332 C 0.60491 0.53577 0.17527 0.0
C333 C 0.60064 0.56087 0.13824 0.0
C334 C 0.58164 0.58607 0.13264 0.0
C335 C 0.5669 0.58637 0.16411 0.0
C336 C 0.57108 0.5613 0.20119 0.0
C337 C 0.62602 0.58272 0.40937 0.0
C338 C 0.60978 0.61324 0.42502 0.0
C339 C 0.6228 0.55121 0.37523 0.0
C340 C 0.60329 0.54939 0.35608 0.0
C341 C 0.58709 0.58033 0.37116 0.0
C342 C 0.59027 0.61181 0.40552 0.0
C343 C 0.60007 0.51533 0.32008 0.0
C344 C 0.59457 0.53772 0.28242 0.0
C345 C 0.60426 0.46173 0.322 0.0
C346 C 0.609 0.43544 0.36139 0.0
C347 C 0.59546 0.44014 0.39506 0.0
C348 C 0.60013 0.41587 0.43224 0.0
C349 C 0.61825 0.3865 0.43608 0.0
C350 C 0.63171 0.38125 0.40271 0.0
C351 C 0.62712 0.4055 0.36547 0.0
H352 H 0.62184 0.36775 0.4649 0.0
H353 H 0.57837 0.60546 0.10394 0.0
H354 H 0.41964 0.64115 0.12569 0.0
H355 H 0.4208 0.58998 0.18884 0.0
H356 H 0.39003 0.46403 0.127 0.0
H357 H 0.38884 0.51469 0.06381 0.0
H358 H 0.37172 0.48934 0.20095 0.0
H359 H 0.44018 0.4546 0.14839 0.0
H360 H 0.47497 0.47702 0.12215 0.0
H361 H 0.48899 0.55566 0.23479 0.0
H362 H 0.45414 0.53436 0.2615 0.0
H363 H 0.38304 0.28937 0.34553 0.0
H364 H 0.3857 0.34174 0.28348 0.0
H365 H 0.41825 0.45994 0.35116 0.0
H366 H 0.4158 0.40755 0.41354 0.0
H367 H 0.43606 0.44194 0.27603 0.0
H368 H 0.36843 0.47715 0.32927 0.0
H369 H 0.33369 0.4563 0.35653 0.0
H370 H 0.31799 0.37992 0.24376 0.0
H371 H 0.35278 0.39964 0.21603 0.0
C372 C 0.41327 0.6024 0.12545 0.0
C373 C 0.40411 0.58201 0.08976 0.0
C374 C 0.41401 0.57319 0.16151 0.0
C375 C 0.40555 0.52321 0.16251 0.0
C376 C 0.39663 0.50256 0.12683 0.0
C377 C 0.39603 0.53153 0.09072 0.0
C378 C 0.40516 0.49311 0.20115 0.0
C379 C 0.3858 0.47837 0.21709 0.0
C380 C 0.42352 0.48037 0.22282 0.0
C381 C 0.44445 0.49339 0.20676 0.0
C382 C 0.4506 0.47713 0.16742 0.0
C383 C 0.47035 0.48953 0.15249 0.0
C384 C 0.48416 0.51788 0.17674 0.0
C385 C 0.47826 0.53379 0.21601 0.0
C386 C 0.45852 0.52153 0.23107 0.0
C387 C 0.39083 0.32642 0.34728 0.0
C388 C 0.39911 0.34441 0.38454 0.0
C389 C 0.39228 0.35636 0.31178 0.0
C390 C 0.40196 0.40496 0.31284 0.0
C391 C 0.41068 0.42257 0.34974 0.0
C392 C 0.40919 0.39267 0.38535 0.0
C393 C 0.40262 0.43757 0.27549 0.0
C394 C 0.42199 0.45297 0.2599 0.0
C395 C 0.38426 0.4513 0.25421 0.0
C396 C 0.3633 0.43943 0.27073 0.0
C397 C 0.35764 0.45552 0.31041 0.0
C398 C 0.33792 0.44397 0.32593 0.0
C399 C 0.32366 0.41668 0.30194 0.0
C400 C 0.32906 0.40099 0.26233 0.0
C401 C 0.34878 0.41238 0.24668 0.0
H402 H 0.3084 0.4078 0.314 0.0
H403 H 0.49945 0.52741 0.16515 0.0
H404 H 0.45164 0.57471 0.91592 0.0
H405 H 0.45253 0.52912 0.85002 0.0
H406 H 0.39543 0.60408 0.81432 0.0
H407 H 0.39431 0.64923 0.87984 0.0
H408 H 0.39347 0.50293 0.80032 0.0
H409 H 0.44235 0.64046 0.77732 0.0
H410 H 0.47385 0.69297 0.78804 0.0
H411 H 0.51204 0.55999 0.76528 0.0
H412 H 0.48084 0.50623 0.75623 0.0
H413 H 0.42036 0.47587 0.5709 0.0
H414 H 0.42459 0.52054 0.63651 0.0
H415 H 0.41608 0.37637 0.70078 0.0
H416 H 0.41156 0.33151 0.63547 0.0
H417 H 0.45152 0.51135 0.70039 0.0
H418 H 0.38738 0.40012 0.78654 0.0
H419 H 0.35524 0.35165 0.77141 0.0
H420 H 0.34608 0.44163 0.66223 0.0
H421 H 0.378 0.49107 0.67701 0.0
C422 C 0.43933 0.58162 0.89394 0.0
C423 C 0.42286 0.61547 0.9032 0.0
C424 C 0.4399 0.55567 0.85626 0.0
C425 C 0.42404 0.56327 0.82726 0.0
C426 C 0.40777 0.59748 0.83632 0.0
C427 C 0.4072 0.6234 0.87379 0.0
C428 C 0.42383 0.53457 0.7879 0.0
C429 C 0.40624 0.50465 0.77861 0.0
C430 C 0.44042 0.53702 0.75942 0.0
C431 C 0.4592 0.56911 0.76661 0.0
C432 C 0.45746 0.62217 0.77538 0.0
C433 C 0.47529 0.65221 0.78116 0.0
C434 C 0.49496 0.62981 0.77759 0.0
C435 C 0.49683 0.57729 0.7684 0.0
C436 C 0.47908 0.54696 0.7631 0.0
C437 C 0.41951 0.45359 0.59897 0.0
C438 C 0.41541 0.40023 0.59797 0.0
C439 C 0.42202 0.47915 0.63642 0.0
C440 C 0.42041 0.45186 0.67347 0.0
C441 C 0.41709 0.39828 0.67253 0.0
C442 C 0.41453 0.37271 0.63514 0.0
C443 C 0.42125 0.47984 0.7131 0.0
C444 C 0.43891 0.5094 0.72242 0.0
C445 C 0.40464 0.47765 0.74148 0.0
C446 C 0.38519 0.44888 0.73268 0.0
C447 C 0.37846 0.40968 0.7594 0.0
C448 C 0.36029 0.38203 0.75087 0.0
C449 C 0.34867 0.39343 0.7158 0.0
C450 C 0.35514 0.4327 0.6893 0.0
C451 C 0.37328 0.46051 0.69772 0.0
H452 H 0.33463 0.37191 0.70921 0.0
H453 H 0.50876 0.65317 0.7818 0.0
H454 H 0.58123 0.48451 0.95367 0.0
H455 H 0.57608 0.52647 0.88728 0.0
H456 H 0.57278 0.37723 0.82858 0.0
H457 H 0.57824 0.33502 0.89465 0.0
H458 H 0.59985 0.43646 0.79102 0.0
H459 H 0.52912 0.45649 0.8332 0.0
H460 H 0.49947 0.48092 0.87707 0.0
H461 H 0.51988 0.6389 0.87658 0.0
H462 H 0.54968 0.6154 0.83273 0.0
H463 H 0.57734 0.53185 0.59334 0.0
H464 H 0.57236 0.48887 0.65939 0.0
H465 H 0.58137 0.63401 0.722 0.0
H466 H 0.58622 0.67746 0.6561 0.0
H467 H 0.54984 0.57578 0.75661 0.0
H468 H 0.62091 0.55295 0.71436 0.0
H469 H 0.64893 0.52768 0.6668 0.0
H470 H 0.62652 0.37134 0.66664 0.0
H471 H 0.59817 0.39588 0.71376 0.0
C472 C 0.57913 0.46059 0.92672 0.0
C473 C 0.58035 0.40643 0.92941 0.0
C474 C 0.57604 0.48465 0.88879 0.0
C475 C 0.57395 0.455 0.85294 0.0
C476 C 0.57438 0.40089 0.85582 0.0
C477 C 0.57752 0.37683 0.89365 0.0
C478 C 0.57341 0.48026 0.81208 0.0
C479 C 0.58859 0.46613 0.78326 0.0
C480 C 0.55914 0.52004 0.80231 0.0
C481 C 0.54177 0.53406 0.83008 0.0
C482 C 0.52743 0.49633 0.84288 0.0
C483 C 0.51054 0.51005 0.86757 0.0
C484 C 0.50783 0.56139 0.87973 0.0
C485 C 0.52203 0.59911 0.86727 0.0
C486 C 0.5389 0.58564 0.8424 0.0
C487 C 0.57806 0.55477 0.62111 0.0
C488 C 0.58239 0.60799 0.61947 0.0
C489 C 0.57524 0.53012 0.65882 0.0
C490 C 0.57676 0.55819 0.69557 0.0
C491 C 0.58017 0.61167 0.69398 0.0
C492 C 0.58304 0.63635 0.65629 0.0
C493 C 0.57602 0.53128 0.73565 0.0
C494 C 0.56081 0.5455 0.76437 0.0
C495 C 0.59017 0.49127 0.74534 0.0
C496 C 0.60729 0.47637 0.71723 0.0
C497 C 0.62186 0.51327 0.70392 0.0
C498 C 0.63782 0.49907 0.67709 0.0
C499 C 0.63947 0.44797 0.66362 0.0
C500 C 0.6252 0.41093 0.67705 0.0
C501 C 0.60919 0.42496 0.70383 0.0
H502 H 0.65184 0.43705 0.64285 0.0
H503 H 0.49469 0.57198 0.89868 0.0
H504 H 0.07615 0.85814 0.14607 0.0
H505 H 0.07312 0.9062 0.21049 0.0
H506 H 0.12419 0.00404 0.17398 0.0
H507 H 0.12758 0.95574 0.11013 0.0
H508 H 0.1291 0.97343 0.25036 0.0
H509 H 0.07324 0.04442 0.1705 0.0
H510 H 0.04111 0.04294 0.12931 0.0
H511 H 0.00768 0.97826 0.23101 0.0
H512 H 0.03971 0.97831 0.27263 0.0
H513 H 0.11962 0.18598 0.38321 0.0
H514 H 0.11861 0.13135 0.32222 0.0
H515 H 0.07301 0.03313 0.37986 0.0
H516 H 0.07392 0.08771 0.44135 0.0
H517 H 0.06395 0.05775 0.29682 0.0
H518 H 0.1203 0.99125 0.37733 0.0
H519 H 0.15247 0.99745 0.41815 0.0
H520 H 0.185 0.05825 0.31377 0.0
H521 H 0.15293 0.05313 0.27247 0.0
C522 C 0.08669 0.89 0.15173 0.0
C523 C 0.10213 0.90309 0.12301 0.0
C524 C 0.08488 0.91755 0.18849 0.0
C525 C 0.09834 0.95895 0.19692 0.0
C526 C 0.11367 0.97216 0.16817 0.0
C527 C 0.11556 0.94455 0.13161 0.0
C528 C 0.09691 0.98799 0.23606 0.0
C529 C 0.11488 0.99224 0.26026 0.0
C530 C 0.07821 0.01136 0.24959 0.0
C531 C 0.05897 0.01071 0.2245 0.0
C532 C 0.0591 0.02929 0.18395 0.0
C533 C 0.04089 0.02877 0.16055 0.0
C534 C 0.02239 0.01026 0.17749 0.0
C535 C 0.02205 0.99232 0.2179 0.0
C536 C 0.04023 0.99257 0.2414 0.0
C537 C 0.1093 0.15292 0.38295 0.0
C538 C 0.09692 0.14101 0.41719 0.0
C539 C 0.10878 0.12169 0.34809 0.0
C540 C 0.09588 0.07802 0.34676 0.0
C541 C 0.08309 0.06666 0.38041 0.0
C542 C 0.0837 0.09774 0.41551 0.0
C543 C 0.09621 0.04382 0.3104 0.0
C544 C 0.07807 0.03849 0.28692 0.0
C545 C 0.11476 0.01969 0.29729 0.0
C546 C 0.13416 0.02219 0.3219 0.0
C547 C 0.13427 0.00629 0.36316 0.0
C548 C 0.1525 0.00955 0.38637 0.0
C549 C 0.17075 0.02834 0.36859 0.0
C550 C 0.17084 0.04375 0.32751 0.0
C551 C 0.15265 0.04061 0.30417 0.0
H552 H 0.18484 0.03087 0.38663 0.0
H553 H 0.00829 0.00999 0.15935 0.0
H554 H 0.91846 0.83935 0.37443 0.0
H555 H 0.92106 0.87621 0.30561 0.0
H556 H 0.88426 0.00696 0.34426 0.0
H557 H 0.88092 0.96924 0.41259 0.0
H558 H 0.8708 0.97588 0.27461 0.0
H559 H 0.93892 0.01325 0.32733 0.0
H560 H 0.97291 0.99412 0.35887 0.0
H561 H 0.98733 0.89018 0.26022 0.0
H562 H 0.95337 0.90847 0.2282 0.0
H563 H 0.89764 0.15478 0.11774 0.0
H564 H 0.89789 0.10986 0.18371 0.0
H565 H 0.91213 0.96645 0.12256 0.0
H566 H 0.91139 0.01094 0.05596 0.0
H567 H 0.93742 0.99901 0.20011 0.0
H568 H 0.86843 0.96651 0.14729 0.0
H569 H 0.83487 0.99132 0.11652 0.0
H570 H 0.8228 0.09303 0.21783 0.0
H571 H 0.85647 0.06939 0.24892 0.0
C572 C 0.91103 0.87611 0.3683 0.0
C573 C 0.89945 0.9014 0.39888 0.0
C574 C 0.91262 0.8973 0.32898 0.0
C575 C 0.90306 0.94472 0.31979 0.0
C576 C 0.89174 0.97028 0.35054 0.0
C577 C 0.88987 0.94874 0.38962 0.0
C578 C 0.90411 0.96688 0.27779 0.0
C579 C 0.88543 0.98138 0.25865 0.0
C580 C 0.92312 0.97305 0.25634 0.0
C581 C 0.94351 0.96182 0.27561 0.0
C582 C 0.94928 0.98602 0.31253 0.0
C583 C 0.96856 0.97542 0.33044 0.0
C584 C 0.98225 0.94085 0.31161 0.0
C585 C 0.97669 0.91685 0.27481 0.0
C586 C 0.95746 0.92743 0.25671 0.0
C587 C 0.90094 0.11373 0.11828 0.0
C588 C 0.90444 0.08628 0.08171 0.0
C589 C 0.90105 0.0882 0.15595 0.0
C590 C 0.905 0.03501 0.15778 0.0
C591 C 0.90907 0.0076 0.12155 0.0
C592 C 0.90855 0.03296 0.08366 0.0
C593 C 0.90421 0.0082 0.19769 0.0
C594 C 0.92287 0.99302 0.21628 0.0
C595 C 0.88526 0.00201 0.21893 0.0
C596 C 0.86507 0.01656 0.20021 0.0
C597 C 0.85873 0.99461 0.16277 0.0
C598 C 0.83967 0.00835 0.14534 0.0
C599 C 0.82673 0.04377 0.16519 0.0
C600 C 0.83285 0.06561 0.20249 0.0
C601 C 0.85191 0.05201 0.22005 0.0
H602 H 0.81192 0.05408 0.15178 0.0
H603 H 0.99719 0.93277 0.32548 0.0
H604 H 0.93977 0.84749 0.61889 0.0
H605 H 0.94928 0.88721 0.68428 0.0
H606 H 0.92752 0.03488 0.64019 0.0
H607 H 0.91869 0.99577 0.57423 0.0
H608 H 0.96089 0.04835 0.68578 0.0
H609 H 0.89658 0.95283 0.69955 0.0
H610 H 0.87435 0.87527 0.69589 0.0
H611 H 0.91444 0.79691 0.78089 0.0
H612 H 0.93705 0.87387 0.78464 0.0
H613 H 0.91973 0.17397 0.8608 0.0
H614 H 0.92736 0.13026 0.79608 0.0
H615 H 0.95784 0.00726 0.86193 0.0
H616 H 0.95063 0.0514 0.92702 0.0
H617 H 0.92658 0.97423 0.80872 0.0
H618 H 0.98714 0.08072 0.80317 0.0
H619 H 0.00736 0.16176 0.8062 0.0
H620 H 0.97204 0.22351 0.70598 0.0
H621 H 0.95137 0.14339 0.7026 0.0
C622 C 0.93722 0.88855 0.62299 0.0
C623 C 0.92824 0.91843 0.59163 0.0
C624 C 0.94263 0.91117 0.66039 0.0
C625 C 0.93872 0.96381 0.66745 0.0
C626 C 0.93065 0.99417 0.63549 0.0
C627 C 0.92553 0.97173 0.59784 0.0
C628 C 0.94165 0.9867 0.70881 0.0
C629 C 0.95334 0.03228 0.71266 0.0
C630 C 0.93224 0.965 0.74411 0.0
C631 C 0.91863 0.91882 0.74198 0.0
C632 C 0.90072 0.91891 0.71722 0.0
C633 C 0.88805 0.8751 0.71517 0.0
C634 C 0.89302 0.83113 0.73804 0.0
C635 C 0.91064 0.83095 0.76312 0.0
C636 C 0.92338 0.87465 0.76523 0.0
C637 C 0.92832 0.13798 0.86149 0.0
C638 C 0.93449 0.11592 0.89894 0.0
C639 C 0.93282 0.11329 0.82448 0.0
C640 C 0.94336 0.06584 0.82427 0.0
C641 C 0.9499 0.04416 0.86154 0.0
C642 C 0.94574 0.06935 0.89861 0.0
C643 C 0.94536 0.03658 0.78547 0.0
C644 C 0.93454 0.98975 0.78207 0.0
C645 C 0.95529 0.05762 0.75058 0.0
C646 C 0.9676 0.10608 0.75281 0.0
C647 C 0.98355 0.11173 0.78201 0.0
C648 C 0.99513 0.15743 0.78373 0.0
C649 C 0.99098 0.19766 0.75637 0.0
C650 C 0.97524 0.19231 0.72716 0.0
C651 C 0.96361 0.14674 0.72528 0.0
H652 H -2e-05 0.23296 0.75777 0.0
H653 H 0.88318 0.79724 0.73641 0.0
H654 H 0.07544 0.98487 0.95601 0.0
H655 H 0.06664 0.02432 0.89027 0.0
H656 H 0.05634 0.87306 0.83817 0.0
H657 H 0.06588 0.83335 0.90348 0.0
H658 H 0.07997 0.92426 0.79038 0.0
H659 H 0.01514 0.96279 0.85363 0.0
H660 H 0.99133 0.99439 0.90734 0.0
H661 H 0.01653 0.14726 0.89519 0.0
H662 H 0.04081 0.11634 0.84204 0.0
H663 H 0.05291 0.03686 0.5998 0.0
H664 H 0.0464 0.99273 0.66499 0.0
H665 H 0.07028 0.12454 0.73083 0.0
H666 H 0.07693 0.16886 0.66594 0.0
H667 H 0.03467 0.07703 0.76856 0.0
H668 H 0.10236 0.03194 0.71129 0.0
H669 H 0.12531 0.99886 0.65666 0.0
H670 H 0.09251 0.8543 0.65724 0.0
H671 H 0.06917 0.88687 0.71153 0.0
C672 C 0.07104 0.96004 0.9307 0.0
C673 C 0.07152 0.90601 0.9348 0.0
C674 C 0.06583 0.98267 0.89316 0.0
C675 C 0.06058 0.95173 0.85926 0.0
C676 C 0.06034 0.89777 0.86383 0.0
C677 C 0.06583 0.87511 0.90116 0.0
C678 C 0.05751 0.97536 0.81818 0.0
C679 C 0.06965 0.95685 0.78553 0.0
C680 C 0.04432 0.01845 0.81175 0.0
C681 C 0.02987 0.03717 0.84396 0.0
C682 C 0.01573 0.00306 0.86265 0.0
C683 C 0.00214 0.02085 0.89298 0.0
C684 C 0.00241 0.0728 0.90467 0.0
C685 C 0.01634 0.10702 0.88615 0.0
C686 C 0.03003 0.08937 0.85593 0.0
C687 C 0.05651 0.05675 0.62815 0.0
C688 C 0.06571 0.10604 0.62773 0.0
C689 C 0.05273 0.03153 0.66533 0.0
C690 C 0.05799 0.05534 0.7026 0.0
C691 C 0.06608 0.10564 0.70235 0.0
C692 C 0.07003 0.13069 0.66523 0.0
C693 C 0.05727 0.02602 0.7415 0.0
C694 C 0.04457 0.04367 0.77356 0.0
C695 C 0.06976 0.98172 0.74742 0.0
C696 C 0.08389 0.96203 0.71508 0.0
C697 C 0.09995 0.99326 0.69953 0.0
C698 C 0.11304 0.97458 0.66868 0.0
C699 C 0.11033 0.92457 0.6534 0.0
C700 C 0.09456 0.89307 0.66905 0.0
C701 C 0.08141 0.9116 0.69986 0.0
H702 H 0.12048 0.91017 0.62951 0.0
H703 H 0.99183 0.08655 0.92805 0.0
H704 H 0.48028 0.77589 0.01406 0.0
H705 H 0.50158 0.85387 0.0176 0.0
H706 H 0.44615 0.94732 0.02504 0.0
H707 H 0.42472 0.86951 0.02032 0.0
H708 H 0.47256 0.98929 0.97368 0.0
H709 H 0.47725 0.92188 0.11046 0.0
H710 H 0.48397 0.8558 0.16333 0.0
H711 H 0.5474 0.84379 0.12348 0.0
H712 H 0.54099 0.90935 0.07 0.0
H713 H 0.52133 0.22161 0.03625 0.0
H714 H 0.50023 0.14315 0.03543 0.0
H715 H 0.55551 0.05098 0.01959 0.0
H716 H 0.57681 0.12932 0.02088 0.0
H717 H 0.5293 0.00865 0.07564 0.0
H718 H 0.52416 0.07654 0.93864 0.0
H719 H 0.51718 0.14337 0.88651 0.0
H720 H 0.45403 0.15527 0.92808 0.0
H721 H 0.46072 0.08897 0.98085 0.0
C722 C 0.47261 0.81302 0.01656 0.0
C723 C 0.4508 0.81649 0.01703 0.0
C724 C 0.48482 0.85759 0.01878 0.0
C725 C 0.47549 0.90647 0.02221 0.0
C726 C 0.45371 0.91004 0.02248 0.0
C727 C 0.44148 0.86551 0.01986 0.0
C728 C 0.48841 0.95395 0.02471 0.0
C729 C 0.48476 0.99379 0.99638 0.0
C730 C 0.50466 0.95942 0.05371 0.0
C731 C 0.50858 0.92018 0.08598 0.0
C732 C 0.49259 0.90488 0.11278 0.0
C733 C 0.49635 0.86757 0.14289 0.0
C734 C 0.51608 0.84552 0.14669 0.0
C735 C 0.53212 0.86086 0.12047 0.0
C736 C 0.52843 0.89813 0.09028 0.0
C737 C 0.52904 0.18468 0.03269 0.0
C738 C 0.55075 0.18175 0.02842 0.0
C739 C 0.51693 0.13987 0.03208 0.0
C740 C 0.52628 0.09129 0.0269 0.0
C741 C 0.54799 0.08811 0.02351 0.0
C742 C 0.56012 0.13293 0.02415 0.0
C743 C 0.51338 0.04386 0.02471 0.0
C744 C 0.51706 0.00407 0.05302 0.0
C745 C 0.49709 0.0385 0.99583 0.0
C746 C 0.493 0.07814 0.96394 0.0
C747 C 0.50883 0.09368 0.93686 0.0
C748 C 0.50492 0.13142 0.90717 0.0
C749 C 0.48519 0.15364 0.90405 0.0
C750 C 0.46931 0.13806 0.93056 0.0
C751 C 0.47315 0.10037 0.96034 0.0
H752 H 0.48219 0.18286 0.88104 0.0
H753 H 0.51896 0.81662 0.17001 0.0
H754 H 0.57847 0.87775 0.51459 0.0
H755 H 0.55674 0.95489 0.50945 0.0
H756 H 0.50179 0.85938 0.50647 0.0
H757 H 0.52342 0.78191 0.511 0.0
H758 H 0.49967 0.93584 0.45036 0.0
H759 H 0.5159 0.92155 0.59378 0.0
H760 H 0.5389 0.91328 0.65395 0.0
H761 H 0.56865 0.05663 0.62298 0.0
H762 H 0.54601 0.0654 0.56228 0.0
H763 H 0.42448 0.12707 0.49939 0.0
H764 H 0.44709 0.05123 0.49908 0.0
H765 H 0.50105 0.15018 0.50112 0.0
H766 H 0.47855 0.22632 0.50188 0.0
H767 H 0.50421 0.07295 0.55643 0.0
H768 H 0.4872 0.08839 0.41389 0.0
H769 H 0.46402 0.09661 0.35402 0.0
H770 H 0.43552 0.95122 0.38351 0.0
H771 H 0.45834 0.94247 0.44393 0.0
C772 C 0.56176 0.87309 0.51277 0.0
C773 C 0.55266 0.82368 0.51342 0.0
C774 C 0.54937 0.91725 0.50997 0.0
C775 C 0.52764 0.91287 0.50809 0.0
C776 C 0.51853 0.8636 0.50796 0.0
C777 C 0.53092 0.81939 0.51068 0.0
C778 C 0.5144 0.9597 0.5066 0.0
C779 C 0.50047 0.96555 0.4738 0.0
C780 C 0.51581 0.99897 0.53671 0.0
C781 C 0.5294 0.99385 0.57325 0.0
C782 C 0.52746 0.9511 0.59962 0.0
C783 C 0.54041 0.94636 0.63385 0.0
C784 C 0.55526 0.98433 0.64222 0.0
C785 C 0.55716 0.0272 0.61643 0.0
C786 C 0.54426 0.0321 0.58212 0.0
C787 C 0.44116 0.13276 0.49962 0.0
C788 C 0.44972 0.18275 0.50065 0.0
C789 C 0.45406 0.08935 0.49925 0.0
C790 C 0.47575 0.0951 0.49969 0.0
C791 C 0.48435 0.14492 0.50072 0.0
C792 C 0.47146 0.18837 0.50105 0.0
C793 C 0.48945 0.04908 0.50023 0.0
C794 C 0.50346 0.04335 0.5329 0.0
C795 C 0.48808 0.00992 0.47004 0.0
C796 C 0.47436 0.01502 0.43367 0.0
C797 C 0.47588 0.05837 0.40781 0.0
C798 C 0.46282 0.06309 0.37373 0.0
C799 C 0.44827 0.02453 0.36502 0.0
C800 C 0.44678 0.9811 0.39032 0.0
C801 C 0.45979 0.97621 0.42447 0.0
H802 H 0.43818 0.02825 0.33862 0.0
H803 H 0.56527 0.98059 0.66874 0.0
H804 H 0.07191 0.6346 0.04154 0.0
H805 H 0.05081 0.55607 0.04207 0.0
H806 H 0.99635 0.64578 0.01213 0.0
H807 H 0.01725 0.72462 0.0124 0.0
H808 H 0.98746 0.576 0.06936 0.0
H809 H 0.02198 0.57504 0.93887 0.0
H810 H 0.05194 0.57857 0.89178 0.0
H811 H 0.07762 0.44269 0.94789 0.0
H812 H 0.04793 0.43876 0.99571 0.0
H813 H 0.9232 0.37022 0.99835 0.0
H814 H 0.94416 0.44876 0.00399 0.0
H815 H 0.99716 0.35761 0.04046 0.0
H816 H 0.97639 0.27887 0.03467 0.0
H817 H 0.00692 0.42747 0.98108 0.0
H818 H 0.97134 0.42788 0.11056 0.0
H819 H 0.94084 0.42468 0.15629 0.0
H820 H 0.91648 0.56208 0.10025 0.0
H821 H 0.94671 0.56571 0.05376 0.0
C822 C 0.05543 0.63765 0.03518 0.0
C823 C 0.04627 0.68582 0.02672 0.0
C824 C 0.04341 0.5927 0.03534 0.0
C825 C 0.02206 0.59497 0.02656 0.0
C826 C 0.0128 0.64312 0.01892 0.0
C827 C 0.02479 0.68813 0.01898 0.0
C828 C 0.00938 0.54713 0.02497 0.0
C829 C 0.99157 0.54376 0.04969 0.0
C830 C 0.01498 0.50468 -0.00011 0.0
C831 C 0.03284 0.50693 0.97115 0.0
C832 C 0.0341 0.54616 0.94139 0.0
C833 C 0.05102 0.54819 0.91453 0.0
C834 C 0.0667 0.51096 0.91692 0.0
C835 C 0.06547 0.47155 0.94612 0.0
C836 C 0.0486 0.46938 0.97309 0.0
C837 C 0.93929 0.36688 0.00774 0.0
C838 C 0.94813 0.3183 0.01607 0.0
C839 C 0.95122 0.41182 0.0111 0.0
C840 C 0.97216 0.40899 0.02294 0.0
C841 C 0.98102 0.36059 0.03131 0.0
C842 C 0.9691 0.31567 0.02809 0.0
C843 C 0.98503 0.45636 0.02546 0.0
C844 C 0.00286 0.45967 0.00084 0.0
C845 C 0.97937 0.49881 0.05043 0.0
C846 C 0.96119 0.49677 0.07841 0.0
C847 C 0.95939 0.45717 0.10775 0.0
C848 C 0.94217 0.45532 0.13386 0.0
C849 C 0.92671 0.49307 0.13111 0.0
C850 C 0.92846 0.53283 0.10231 0.0
C851 C 0.94565 0.53482 0.0761 0.0
H852 H 0.91339 0.49159 0.15135 0.0
H853 H 0.07978 0.51259 0.89609 0.0
H854 H 0.01584 0.27902 0.5179 0.0
H855 H 0.99605 0.35915 0.51095 0.0
H856 H 0.05314 0.44669 0.51077 0.0
H857 H 0.07302 0.36688 0.51846 0.0
H858 H 0.0253 0.4894 0.56067 0.0
H859 H 0.02562 0.42671 0.42226 0.0
H860 H 0.02023 0.36311 0.36694 0.0
H861 H 0.9551 0.3568 0.39525 0.0
H862 H 0.96015 0.41988 0.45114 0.0
H863 H 0.98256 0.72817 0.49625 0.0
H864 H 0.00258 0.64795 0.4979 0.0
H865 H 0.94573 0.55985 0.50366 0.0
H866 H 0.92554 0.63986 0.50162 0.0
H867 H 0.97358 0.51787 0.45002 0.0
H868 H 0.97357 0.5796 0.58915 0.0
H869 H 0.97907 0.64345 0.64426 0.0
H870 H 0.04395 0.65166 0.61403 0.0
H871 H 0.03877 0.58835 0.55834 0.0
C872 C 0.02419 0.3153 0.51623 0.0
C873 C 0.046 0.3166 0.51873 0.0
C874 C 0.01287 0.36104 0.51207 0.0
C875 C 0.02315 0.40883 0.50991 0.0
C876 C 0.04491 0.41021 0.51235 0.0
C877 C 0.05624 0.36454 0.51667 0.0
C878 C 0.0112 0.45755 0.50629 0.0
C879 C 0.01422 0.49593 0.53611 0.0
C880 C 0.9964 0.46551 0.4748 0.0
C881 C 0.99331 0.42765 0.44115 0.0
C882 C 0.01018 0.41145 0.41691 0.0
C883 C 0.00718 0.37555 0.38541 0.0
C884 C 0.98735 0.35582 0.37765 0.0
C885 C 0.97046 0.37206 0.40132 0.0
C886 C 0.97338 0.40793 0.43289 0.0
C887 C 0.97429 0.69175 0.49772 0.0
C888 C 0.95246 0.69038 0.49902 0.0
C889 C 0.98577 0.64597 0.49879 0.0
C890 C 0.97562 0.59807 0.50138 0.0
C891 C 0.95383 0.59648 0.50173 0.0
C892 C 0.94234 0.64224 0.5007 0.0
C893 C 0.98774 0.54961 0.50433 0.0
C894 C 0.98472 0.5113 0.47446 0.0
C895 C 0.00258 0.5417 0.53574 0.0
C896 C 0.00574 0.57964 0.56931 0.0
C897 C 0.98898 0.59534 0.59404 0.0
C898 C 0.99204 0.63137 0.62542 0.0
C899 C 0.01183 0.65171 0.63257 0.0
C900 C 0.02862 0.63593 0.60842 0.0
C901 C 0.02563 0.59995 0.57696 0.0
H902 H 0.01417 0.6796 0.65689 0.0
H903 H 0.98505 0.32804 0.35325 0.0
loop_
_geom_bond_atom_site_label_1
_geom_bond_atom_site_label_2
_geom_bond_distance
_geom_bond_site_symmetry_2
_ccdc_geom_bond_type
C0 O1 1.160 1_554 S
C0 O7 1.185 . S
O1 C0 1.160 1_556 S
O2 Zn3 1.899 1_556 S
O2 C10 1.284 . S
Zn3 O2 1.899 1_554 S
Zn3 O4 2.032 . S
Zn3 O7 2.086 . S
Zn3 O12 1.977 . S
O4 Zn3 2.032 . S
O4 C8 1.278 . S
C5 O6 1.203 1_554 S
C5 O12 1.267 . S
O6 C5 1.203 1_556 S
O7 C0 1.185 . S
O7 Zn3 2.086 . S
C8 O4 1.278 . S
C8 O9 1.211 . S
O9 C8 1.211 . S
C10 O2 1.284 . S
C10 O11 1.273 . S
O11 C10 1.273 . S
O12 Zn3 1.977 . S
O12 C5 1.267 . S
C13 O14 1.160 1_554 S
C13 O20 1.185 . S
O14 C13 1.160 1_556 S
O15 Zn16 1.899 1_556 S
O15 C23 1.284 . S
Zn16 O15 1.899 1_554 S
Zn16 O17 2.032 . S
Zn16 O20 2.086 . S
Zn16 O25 1.977 . S
O17 Zn16 2.032 . S
O17 C21 1.278 . S
C18 O19 1.203 1_554 S
C18 O25 1.267 . S
O19 C18 1.203 1_556 S
O20 C13 1.185 . S
O20 Zn16 2.086 . S
C21 O17 1.278 . S
C21 O22 1.211 . S
O22 C21 1.211 . S
C23 O15 1.284 . S
C23 O24 1.273 . S
O24 C23 1.273 . S
O25 Zn16 1.977 . S
O25 C18 1.267 . S
C26 O27 1.160 . S
C26 O33 1.185 . S
O27 C26 1.160 . S
O28 Zn29 1.899 . S
O28 C36 1.284 . S
Zn29 O28 1.899 . S
Zn29 O30 2.032 . S
Zn29 O33 2.086 . S
Zn29 O38 1.977 . S
O30 Zn29 2.032 . S
O30 C34 1.278 . S
C31 O32 1.203 . S
C31 O38 1.267 . S
O32 C31 1.203 . S
O33 C26 1.185 . S
O33 Zn29 2.086 . S
C34 O30 1.278 . S
C34 O35 1.211 . S
O35 C34 1.211 . S
C36 O28 1.284 . S
C36 O37 1.273 . S
O37 C36 1.273 . S
O38 Zn29 1.977 . S
O38 C31 1.267 . S
C39 O40 1.160 . S
C39 O46 1.185 . S
O40 C39 1.160 . S
O41 Zn42 1.899 . S
O41 C49 1.284 . S
Zn42 O41 1.899 . S
Zn42 O43 2.032 . S
Zn42 O46 2.086 . S
Zn42 O51 1.977 . S
O43 Zn42 2.032 . S
O43 C47 1.278 . S
C44 O45 1.203 . S
C44 O51 1.267 . S
O45 C44 1.203 . S
O46 C39 1.185 . S
O46 Zn42 2.086 . S
C47 O43 1.278 . S
C47 O48 1.211 . S
O48 C47 1.211 . S
C49 O41 1.284 . S
C49 O50 1.273 . S
O50 C49 1.273 . S
O51 Zn42 1.977 . S
O51 C44 1.267 . S
C52 O53 1.160 1_554 S
C52 O59 1.185 . S
O53 C52 1.160 1_556 S
O54 Zn55 1.899 1_556 S
O54 C62 1.284 . S
Zn55 O54 1.899 1_554 S
Zn55 O56 2.032 . S
Zn55 O59 2.086 . S
Zn55 O64 1.977 . S
O56 Zn55 2.032 . S
O56 C60 1.278 . S
C57 O58 1.203 1_554 S
C57 O64 1.267 . S
O58 C57 1.203 1_556 S
O59 C52 1.185 . S
O59 Zn55 2.086 . S
C60 O56 1.278 . S
C60 O61 1.211 . S
O61 C60 1.211 . S
C62 O54 1.284 . S
C62 O63 1.273 . S
O63 C62 1.273 . S
O64 Zn55 1.977 . S
O64 C57 1.267 . S
C65 O66 1.160 1_554 S
C65 O72 1.185 . S
O66 C65 1.160 1_556 S
O67 Zn68 1.899 1_556 S
O67 C75 1.284 . S
Zn68 O67 1.899 1_554 S
Zn68 O69 2.032 . S
Zn68 O72 2.086 . S
Zn68 O77 1.977 . S
O69 Zn68 2.032 . S
O69 C73 1.278 . S
C70 O71 1.203 1_554 S
C70 O77 1.267 . S
O71 C70 1.203 1_556 S
O72 C65 1.185 . S
O72 Zn68 2.086 . S
C73 O69 1.278 . S
C73 O74 1.211 . S
O74 C73 1.211 . S
C75 O67 1.284 . S
C75 O76 1.273 . S
O76 C75 1.273 . S
O77 Zn68 1.977 . S
O77 C70 1.267 . S
C78 O79 1.160 . S
C78 O85 1.185 . S
O79 C78 1.160 . S
O80 Zn81 1.899 . S
O80 C88 1.284 . S
Zn81 O80 1.899 . S
Zn81 O82 2.032 . S
Zn81 O85 2.086 . S
Zn81 O90 1.977 . S
O82 Zn81 2.032 . S
O82 C86 1.278 . S
C83 O84 1.203 . S
C83 O90 1.267 . S
O84 C83 1.203 . S
O85 C78 1.185 . S
O85 Zn81 2.086 . S
C86 O82 1.278 . S
C86 O87 1.211 . S
O87 C86 1.211 . S
C88 O80 1.284 . S
C88 O89 1.273 . S
O89 C88 1.273 . S
O90 Zn81 1.977 . S
O90 C83 1.267 . S
C91 O92 1.160 . S
C91 O98 1.185 . S
O92 C91 1.160 . S
O93 Zn94 1.899 . S
O93 C101 1.284 . S
Zn94 O93 1.899 . S
Zn94 O95 2.032 . S
Zn94 O98 2.086 . S
Zn94 O103 1.977 . S
O95 Zn94 2.032 . S
O95 C99 1.278 . S
C96 O97 1.203 . S
C96 O103 1.267 . S
O97 C96 1.203 . S
O98 C91 1.185 . S
O98 Zn94 2.086 . S
C99 O95 1.278 . S
C99 O100 1.211 . S
O100 C99 1.211 . S
C101 O93 1.284 . S
C101 O102 1.273 . S
O102 C101 1.273 . S
O103 Zn94 1.977 . S
O103 C96 1.267 . S
H104 C122 0.951 . S
H105 C124 0.951 . S
H106 C126 0.950 . S
H107 C127 0.950 . S
H108 C129 0.950 . S
H109 C132 0.950 . S
H110 C133 0.950 . S
H111 C135 0.950 . S
H112 C136 0.950 . S
H113 C137 0.951 . S
H114 C139 0.951 . S
H115 C141 0.950 . S
H116 C142 0.950 . S
H117 C144 0.950 . S
H118 C147 0.950 . S
H119 C148 0.950 . S
H120 C150 0.950 . S
H121 C151 0.950 . S
C122 H104 0.951 . S
C122 C123 1.366 . S
C122 C124 1.388 . S
C123 C122 1.366 . S
C123 C127 1.385 1_554 S
C124 H105 0.951 . S
C124 C122 1.388 . S
C124 C125 1.366 . S
C125 C124 1.366 . S
C125 C126 1.414 1_554 S
C125 C128 1.499 . S
C126 H106 0.950 . S
C126 C125 1.414 1_556 S
C126 C127 1.374 . S
C127 H107 0.950 . S
C127 C123 1.385 1_556 S
C127 C126 1.374 . S
C128 C125 1.499 . S
C128 C129 1.373 1_554 S
C128 C130 1.389 . S
C129 H108 0.950 . S
C129 C128 1.373 1_556 S
C129 C145 1.377 . S
C130 C128 1.389 . S
C130 C131 1.524 . S
C130 C144 1.377 . S
C131 C130 1.524 . S
C131 C132 1.397 . S
C131 C136 1.363 . S
C132 H109 0.950 . S
C132 C131 1.397 . S
C132 C133 1.334 . S
C133 H110 0.950 . S
C133 C132 1.334 . S
C133 C134 1.287 . S
C134 C133 1.287 . S
C134 C135 1.524 . S
C134 H153 0.913 . S
C135 H111 0.950 . S
C135 C134 1.524 . S
C135 C136 1.415 . S
C136 H112 0.950 . S
C136 C131 1.363 . S
C136 C135 1.415 . S
C137 H113 0.951 . S
C137 C138 1.366 1_556 S
C137 C139 1.388 . S
C138 C137 1.366 1_554 S
C138 C142 1.385 . S
C139 H114 0.951 . S
C139 C137 1.388 . S
C139 C140 1.366 1_556 S
C140 C139 1.366 1_554 S
C140 C141 1.414 . S
C140 C143 1.499 . S
C141 H115 0.950 . S
C141 C140 1.414 . S
C141 C142 1.374 . S
C142 H116 0.950 . S
C142 C138 1.385 . S
C142 C141 1.374 . S
C143 C140 1.499 . S
C143 C144 1.373 . S
C143 C145 1.389 1_554 S
C144 H117 0.950 . S
C144 C130 1.377 . S
C144 C143 1.373 . S
C145 C129 1.377 . S
C145 C143 1.389 1_556 S
C145 C146 1.524 . S
C146 C145 1.524 . S
C146 C147 1.397 . S
C146 C151 1.363 . S
C147 H118 0.950 . S
C147 C146 1.397 . S
C147 C148 1.334 . S
C148 H119 0.950 . S
C148 C147 1.334 . S
C148 C149 1.287 . S
C149 C148 1.287 . S
C149 C150 1.524 . S
C149 H152 0.999 . S
C150 H120 0.950 . S
C150 C149 1.524 . S
C150 C151 1.415 . S
C151 H121 0.950 . S
C151 C146 1.363 . S
C151 C150 1.415 . S
H152 C149 0.999 . S
H153 C134 0.913 . S
H154 C172 0.951 . S
H155 C174 0.951 . S
H156 C176 0.950 . S
H157 C177 0.950 . S
H158 C179 0.950 . S
H159 C182 0.950 . S
H160 C183 0.950 . S
H161 C185 0.950 . S
H162 C186 0.950 . S
H163 C187 0.951 . S
H164 C189 0.951 . S
H165 C191 0.950 . S
H166 C192 0.950 . S
H167 C194 0.950 . S
H168 C197 0.950 . S
H169 C198 0.950 . S
H170 C200 0.950 . S
H171 C201 0.950 1_554 S
C172 H154 0.951 . S
C172 C173 1.366 1_556 S
C172 C174 1.388 . S
C173 C172 1.366 1_554 S
C173 C177 1.385 . S
C174 H155 0.951 . S
C174 C172 1.388 . S
C174 C175 1.366 1_556 S
C175 C174 1.366 1_554 S
C175 C176 1.414 . S
C175 C178 1.499 . S
C176 H156 0.950 . S
C176 C175 1.414 . S
C176 C177 1.374 . S
C177 H157 0.950 . S
C177 C173 1.385 . S
C177 C176 1.374 . S
C178 C175 1.499 . S
C178 C179 1.373 1_554 S
C178 C180 1.389 . S
C179 H158 0.950 . S
C179 C178 1.373 1_556 S
C179 C195 1.377 . S
C180 C178 1.389 . S
C180 C181 1.524 . S
C180 C194 1.377 . S
C181 C180 1.524 . S
C181 C182 1.397 . S
C181 C186 1.363 . S
C182 H159 0.950 . S
C182 C181 1.397 . S
C182 C183 1.334 . S
C183 H160 0.950 . S
C183 C182 1.334 . S
C183 C184 1.287 . S
C184 C183 1.287 . S
C184 C185 1.524 . S
C184 H203 0.913 . S
C185 H161 0.950 . S
C185 C184 1.524 . S
C185 C186 1.415 . S
C186 H162 0.950 . S
C186 C181 1.363 . S
C186 C185 1.415 . S
C187 H163 0.951 . S
C187 C188 1.366 . S
C187 C189 1.388 . S
C188 C187 1.366 . S
C188 C192 1.385 1_554 S
C189 H164 0.951 . S
C189 C187 1.388 . S
C189 C190 1.366 . S
C190 C189 1.366 . S
C190 C191 1.414 1_554 S
C190 C193 1.499 . S
C191 H165 0.950 . S
C191 C190 1.414 1_556 S
C191 C192 1.374 . S
C192 H166 0.950 . S
C192 C188 1.385 1_556 S
C192 C191 1.374 . S
C193 C190 1.499 . S
C193 C194 1.373 . S
C193 C195 1.389 1_554 S
C194 H167 0.950 . S
C194 C180 1.377 . S
C194 C193 1.373 . S
C195 C179 1.377 . S
C195 C193 1.389 1_556 S
C195 C196 1.524 . S
C196 C195 1.524 . S
C196 C197 1.397 . S
C196 C201 1.363 . S
C197 H168 0.950 . S
C197 C196 1.397 . S
C197 C198 1.334 . S
C198 H169 0.950 . S
C198 C197 1.334 . S
C198 C199 1.287 . S
C199 C198 1.287 . S
C199 C200 1.524 . S
C199 H202 0.999 . S
C200 H170 0.950 . S
C200 C199 1.524 . S
C200 C201 1.415 . S
C201 H171 0.950 1_556 S
C201 C196 1.363 . S
C201 C200 1.415 . S
H202 C199 0.999 . S
H203 C184 0.913 . S
H204 C222 0.951 . S
H205 C224 0.951 . S
H206 C226 0.950 . S
H207 C227 0.950 . S
H208 C229 0.950 . S
H209 C232 0.950 . S
H210 C233 0.950 . S
H211 C235 0.950 . S
H212 C236 0.950 . S
H213 C237 0.951 . S
H214 C239 0.951 . S
H215 C241 0.950 . S
H216 C242 0.950 . S
H217 C244 0.950 . S
H218 C247 0.950 . S
H219 C248 0.950 . S
H220 C250 0.950 . S
H221 C251 0.950 . S
C222 H204 0.951 . S
C222 C223 1.366 . S
C222 C224 1.388 . S
C223 C222 1.366 . S
C223 C227 1.385 . S
C224 H205 0.951 . S
C224 C222 1.388 . S
C224 C225 1.366 . S
C225 C224 1.366 . S
C225 C226 1.414 . S
C225 C228 1.499 . S
C226 H206 0.950 . S
C226 C225 1.414 . S
C226 C227 1.374 . S
C227 H207 0.950 . S
C227 C223 1.385 . S
C227 C226 1.374 . S
C228 C225 1.499 . S
C228 C229 1.373 . S
C228 C230 1.389 . S
C229 H208 0.950 . S
C229 C228 1.373 . S
C229 C245 1.377 . S
C230 C228 1.389 . S
C230 C231 1.524 . S
C230 C244 1.377 . S
C231 C230 1.524 . S
C231 C232 1.397 . S
C231 C236 1.363 . S
C232 H209 0.950 . S
C232 C231 1.397 . S
C232 C233 1.334 . S
C233 H210 0.950 . S
C233 C232 1.334 . S
C233 C234 1.287 . S
C234 C233 1.287 . S
C234 C235 1.524 . S
C234 H253 0.913 . S
C235 H211 0.950 . S
C235 C234 1.524 . S
C235 C236 1.415 . S
C236 H212 0.950 . S
C236 C231 1.363 . S
C236 C235 1.415 . S
C237 H213 0.951 . S
C237 C238 1.366 . S
C237 C239 1.388 . S
C238 C237 1.366 . S
C238 C242 1.385 . S
C239 H214 0.951 . S
C239 C237 1.388 . S
C239 C240 1.366 . S
C240 C239 1.366 . S
C240 C241 1.414 . S
C240 C243 1.499 . S
C241 H215 0.950 . S
C241 C240 1.414 . S
C241 C242 1.374 . S
C242 H216 0.950 . S
C242 C238 1.385 . S
C242 C241 1.374 . S
C243 C240 1.499 . S
C243 C244 1.373 . S
C243 C245 1.389 . S
C244 H217 0.950 . S
C244 C230 1.377 . S
C244 C243 1.373 . S
C245 C229 1.377 . S
C245 C243 1.389 . S
C245 C246 1.524 . S
C246 C245 1.524 . S
C246 C247 1.397 . S
C246 C251 1.363 . S
C247 H218 0.950 . S
C247 C246 1.397 . S
C247 C248 1.334 . S
C248 H219 0.950 . S
C248 C247 1.334 . S
C248 C249 1.287 . S
C249 C248 1.287 . S
C249 C250 1.524 . S
C249 H252 0.999 . S
C250 H220 0.950 . S
C250 C249 1.524 . S
C250 C251 1.415 . S
C251 H221 0.950 . S
C251 C246 1.363 . S
C251 C250 1.415 . S
H252 C249 0.999 . S
H253 C234 0.913 . S
H254 C272 0.951 . S
H255 C274 0.951 . S
H256 C276 0.950 . S
H257 C277 0.950 . S
H258 C279 0.950 . S
H259 C282 0.950 . S
H260 C283 0.950 . S
H261 C285 0.950 . S
H262 C286 0.950 . S
H263 C287 0.951 . S
H264 C289 0.951 . S
H265 C291 0.950 . S
H266 C292 0.950 . S
H267 C294 0.950 . S
H268 C297 0.950 . S
H269 C298 0.950 . S
H270 C300 0.950 . S
H271 C301 0.950 . S
C272 H254 0.951 . S
C272 C273 1.366 . S
C272 C274 1.388 . S
C273 C272 1.366 . S
C273 C277 1.385 . S
C274 H255 0.951 . S
C274 C272 1.388 . S
C274 C275 1.366 . S
C275 C274 1.366 . S
C275 C276 1.414 . S
C275 C278 1.499 . S
C276 H256 0.950 . S
C276 C275 1.414 . S
C276 C277 1.374 . S
C277 H257 0.950 . S
C277 C273 1.385 . S
C277 C276 1.374 . S
C278 C275 1.499 . S
C278 C279 1.373 . S
C278 C280 1.389 . S
C279 H258 0.950 . S
C279 C278 1.373 . S
C279 C295 1.377 . S
C280 C278 1.389 . S
C280 C281 1.524 . S
C280 C294 1.377 . S
C281 C280 1.524 . S
C281 C282 1.397 . S
C281 C286 1.363 . S
C282 H259 0.950 . S
C282 C281 1.397 . S
C282 C283 1.334 . S
C283 H260 0.950 . S
C283 C282 1.334 . S
C283 C284 1.287 . S
C284 C283 1.287 . S
C284 C285 1.524 . S
C284 H303 0.913 . S
C285 H261 0.950 . S
C285 C284 1.524 . S
C285 C286 1.415 . S
C286 H262 0.950 . S
C286 C281 1.363 . S
C286 C285 1.415 . S
C287 H263 0.951 . S
C287 C288 1.366 . S
C287 C289 1.388 . S
C288 C287 1.366 . S
C288 C292 1.385 . S
C289 H264 0.951 . S
C289 C287 1.388 . S
C289 C290 1.366 . S
C290 C289 1.366 . S
C290 C291 1.414 . S
C290 C293 1.499 . S
C291 H265 0.950 . S
C291 C290 1.414 . S
C291 C292 1.374 . S
C292 H266 0.950 . S
C292 C288 1.385 . S
C292 C291 1.374 . S
C293 C290 1.499 . S
C293 C294 1.373 . S
C293 C295 1.389 . S
C294 H267 0.950 . S
C294 C280 1.377 . S
C294 C293 1.373 . S
C295 C279 1.377 . S
C295 C293 1.389 . S
C295 C296 1.524 . S
C296 C295 1.524 . S
C296 C297 1.397 . S
C296 C301 1.363 . S
C297 H268 0.950 . S
C297 C296 1.397 . S
C297 C298 1.334 . S
C298 H269 0.950 . S
C298 C297 1.334 . S
C298 C299 1.287 . S
C299 C298 1.287 . S
C299 C300 1.524 . S
C299 H302 0.999 . S
C300 H270 0.950 . S
C300 C299 1.524 . S
C300 C301 1.415 . S
C301 H271 0.950 . S
C301 C296 1.363 . S
C301 C300 1.415 . S
H302 C299 0.999 . S
H303 C284 0.913 . S
H304 C322 0.951 . S
H305 C324 0.951 . S
H306 C326 0.950 . S
H307 C327 0.950 . S
H308 C329 0.950 . S
H309 C332 0.950 . S
H310 C333 0.950 . S
H311 C335 0.950 . S
H312 C336 0.950 . S
H313 C337 0.951 . S
H314 C339 0.951 . S
H315 C341 0.950 . S
H316 C342 0.950 . S
H317 C344 0.950 . S
H318 C347 0.950 . S
H319 C348 0.950 . S
H320 C350 0.950 . S
H321 C351 0.950 . S
C322 H304 0.951 . S
C322 C323 1.366 . S
C322 C324 1.388 . S
C323 C322 1.366 . S
C323 C327 1.385 . S
C324 H305 0.951 . S
C324 C322 1.388 . S
C324 C325 1.366 . S
C325 C324 1.366 . S
C325 C326 1.414 . S
C325 C328 1.499 . S
C326 H306 0.950 . S
C326 C325 1.414 . S
C326 C327 1.374 . S
C327 H307 0.950 . S
C327 C323 1.385 . S
C327 C326 1.374 . S
C328 C325 1.499 . S
C328 C329 1.373 . S
C328 C330 1.389 . S
C329 H308 0.950 . S
C329 C328 1.373 . S
C329 C345 1.377 . S
C330 C328 1.389 . S
C330 C331 1.524 . S
C330 C344 1.377 . S
C331 C330 1.524 . S
C331 C332 1.397 . S
C331 C336 1.363 . S
C332 H309 0.950 . S
C332 C331 1.397 . S
C332 C333 1.334 . S
C333 H310 0.950 . S
C333 C332 1.334 . S
C333 C334 1.287 . S
C334 C333 1.287 . S
C334 C335 1.524 . S
C334 H353 0.913 . S
C335 H311 0.950 . S
C335 C334 1.524 . S
C335 C336 1.415 . S
C336 H312 0.950 . S
C336 C331 1.363 . S
C336 C335 1.415 . S
C337 H313 0.951 . S
C337 C338 1.366 . S
C337 C339 1.388 . S
C338 C337 1.366 . S
C338 C342 1.385 . S
C339 H314 0.951 . S
C339 C337 1.388 . S
C339 C340 1.366 . S
C340 C339 1.366 . S
C340 C341 1.414 . S
C340 C343 1.499 . S
C341 H315 0.950 . S
C341 C340 1.414 . S
C341 C342 1.374 . S
C342 H316 0.950 . S
C342 C338 1.385 . S
C342 C341 1.374 . S
C343 C340 1.499 . S
C343 C344 1.373 . S
C343 C345 1.389 . S
C344 H317 0.950 . S
C344 C330 1.377 . S
C344 C343 1.373 . S
C345 C329 1.377 . S
C345 C343 1.389 . S
C345 C346 1.524 . S
C346 C345 1.524 . S
C346 C347 1.397 . S
C346 C351 1.363 . S
C347 H318 0.950 . S
C347 C346 1.397 . S
C347 C348 1.334 . S
C348 H319 0.950 . S
C348 C347 1.334 . S
C348 C349 1.287 . S
C349 C348 1.287 . S
C349 C350 1.524 . S
C349 H352 0.999 . S
C350 H320 0.950 . S
C350 C349 1.524 . S
C350 C351 1.415 . S
C351 H321 0.950 . S
C351 C346 1.363 . S
C351 C350 1.415 . S
H352 C349 0.999 . S
H353 C334 0.913 . S
H354 C372 0.951 . S
H355 C374 0.951 . S
H356 C376 0.950 . S
H357 C377 0.950 . S
H358 C379 0.950 . S
H359 C382 0.950 . S
H360 C383 0.950 . S
H361 C385 0.950 . S
H362 C386 0.950 . S
H363 C387 0.951 . S
H364 C389 0.951 . S
H365 C391 0.950 . S
H366 C392 0.950 . S
H367 C394 0.950 . S
H368 C397 0.950 . S
H369 C398 0.950 . S
H370 C400 0.950 . S
H371 C401 0.950 . S
C372 H354 0.951 . S
C372 C373 1.366 . S
C372 C374 1.388 . S
C373 C372 1.366 . S
C373 C377 1.385 . S
C374 H355 0.951 . S
C374 C372 1.388 . S
C374 C375 1.366 . S
C375 C374 1.366 . S
C375 C376 1.414 . S
C375 C378 1.499 . S
C376 H356 0.950 . S
C376 C375 1.414 . S
C376 C377 1.374 . S
C377 H357 0.950 . S
C377 C373 1.385 . S
C377 C376 1.374 . S
C378 C375 1.499 . S
C378 C379 1.373 . S
C378 C380 1.389 . S
C379 H358 0.950 . S
C379 C378 1.373 . S
C379 C395 1.377 . S
C380 C378 1.389 . S
C380 C381 1.524 . S
C380 C394 1.377 . S
C381 C380 1.524 . S
C381 C382 1.397 . S
C381 C386 1.363 . S
C382 H359 0.950 . S
C382 C381 1.397 . S
C382 C383 1.334 . S
C383 H360 0.950 . S
C383 C382 1.334 . S
C383 C384 1.287 . S
C384 C383 1.287 . S
C384 C385 1.524 . S
C384 H403 0.913 . S
C385 H361 0.950 . S
C385 C384 1.524 . S
C385 C386 1.415 . S
C386 H362 0.950 . S
C386 C381 1.363 . S
C386 C385 1.415 . S
C387 H363 0.951 . S
C387 C388 1.366 . S
C387 C389 1.388 . S
C388 C387 1.366 . S
C388 C392 1.385 . S
C389 H364 0.951 . S
C389 C387 1.388 . S
C389 C390 1.366 . S
C390 C389 1.366 . S
C390 C391 1.414 . S
C390 C393 1.499 . S
C391 H365 0.950 . S
C391 C390 1.414 . S
C391 C392 1.374 . S
C392 H366 0.950 . S
C392 C388 1.385 . S
C392 C391 1.374 . S
C393 C390 1.499 . S
C393 C394 1.373 . S
C393 C395 1.389 . S
C394 H367 0.950 . S
C394 C380 1.377 . S
C394 C393 1.373 . S
C395 C379 1.377 . S
C395 C393 1.389 . S
C395 C396 1.524 . S
C396 C395 1.524 . S
C396 C397 1.397 . S
C396 C401 1.363 . S
C397 H368 0.950 . S
C397 C396 1.397 . S
C397 C398 1.334 . S
C398 H369 0.950 . S
C398 C397 1.334 . S
C398 C399 1.287 . S
C399 C398 1.287 . S
C399 C400 1.524 . S
C399 H402 0.999 . S
C400 H370 0.950 . S
C400 C399 1.524 . S
C400 C401 1.415 . S
C401 H371 0.950 . S
C401 C396 1.363 . S
C401 C400 1.415 . S
H402 C399 0.999 . S
H403 C384 0.913 . S
H404 C422 0.951 . S
H405 C424 0.951 . S
H406 C426 0.950 . S
H407 C427 0.950 . S
H408 C429 0.950 . S
H409 C432 0.950 . S
H410 C433 0.950 . S
H411 C435 0.950 . S
H412 C436 0.950 . S
H413 C437 0.951 . S
H414 C439 0.951 . S
H415 C441 0.950 . S
H416 C442 0.950 . S
H417 C444 0.950 . S
H418 C447 0.950 . S
H419 C448 0.950 . S
H420 C450 0.950 . S
H421 C451 0.950 . S
C422 H404 0.951 . S
C422 C423 1.366 . S
C422 C424 1.388 . S
C423 C422 1.366 . S
C423 C427 1.385 . S
C424 H405 0.951 . S
C424 C422 1.388 . S
C424 C425 1.366 . S
C425 C424 1.366 . S
C425 C426 1.414 . S
C425 C428 1.499 . S
C426 H406 0.950 . S
C426 C425 1.414 . S
C426 C427 1.374 . S
C427 H407 0.950 . S
C427 C423 1.385 . S
C427 C426 1.374 . S
C428 C425 1.499 . S
C428 C429 1.373 . S
C428 C430 1.389 . S
C429 H408 0.950 . S
C429 C428 1.373 . S
C429 C445 1.377 . S
C430 C428 1.389 . S
C430 C431 1.524 . S
C430 C444 1.377 . S
C431 C430 1.524 . S
C431 C432 1.397 . S
C431 C436 1.363 . S
C432 H409 0.950 . S
C432 C431 1.397 . S
C432 C433 1.334 . S
C433 H410 0.950 . S
C433 C432 1.334 . S
C433 C434 1.287 . S
C434 C433 1.287 . S
C434 C435 1.524 . S
C434 H453 0.913 . S
C435 H411 0.950 . S
C435 C434 1.524 . S
C435 C436 1.415 . S
C436 H412 0.950 . S
C436 C431 1.363 . S
C436 C435 1.415 . S
C437 H413 0.951 . S
C437 C438 1.366 . S
C437 C439 1.388 . S
C438 C437 1.366 . S
C438 C442 1.385 . S
C439 H414 0.951 . S
C439 C437 1.388 . S
C439 C440 1.366 . S
C440 C439 1.366 . S
C440 C441 1.414 . S
C440 C443 1.499 . S
C441 H415 0.950 . S
C441 C440 1.414 . S
C441 C442 1.374 . S
C442 H416 0.950 . S
C442 C438 1.385 . S
C442 C441 1.374 . S
C443 C440 1.499 . S
C443 C444 1.373 . S
C443 C445 1.389 . S
C444 H417 0.950 . S
C444 C430 1.377 . S
C444 C443 1.373 . S
C445 C429 1.377 . S
C445 C443 1.389 . S
C445 C446 1.524 . S
C446 C445 1.524 . S
C446 C447 1.397 . S
C446 C451 1.363 . S
C447 H418 0.950 . S
C447 C446 1.397 . S
C447 C448 1.334 . S
C448 H419 0.950 . S
C448 C447 1.334 . S
C448 C449 1.287 . S
C449 C448 1.287 . S
C449 C450 1.524 . S
C449 H452 0.999 . S
C450 H420 0.950 . S
C450 C449 1.524 . S
C450 C451 1.415 . S
C451 H421 0.950 . S
C451 C446 1.363 . S
C451 C450 1.415 . S
H452 C449 0.999 . S
H453 C434 0.913 . S
H454 C472 0.951 . S
H455 C474 0.951 . S
H456 C476 0.950 . S
H457 C477 0.950 . S
H458 C479 0.950 . S
H459 C482 0.950 . S
H460 C483 0.950 . S
H461 C485 0.950 . S
H462 C486 0.950 . S
H463 C487 0.951 . S
H464 C489 0.951 . S
H465 C491 0.950 . S
H466 C492 0.950 . S
H467 C494 0.950 . S
H468 C497 0.950 . S
H469 C498 0.950 . S
H470 C500 0.950 . S
H471 C501 0.950 . S
C472 H454 0.951 . S
C472 C473 1.366 . S
C472 C474 1.388 . S
C473 C472 1.366 . S
C473 C477 1.385 . S
C474 H455 0.951 . S
C474 C472 1.388 . S
C474 C475 1.366 . S
C475 C474 1.366 . S
C475 C476 1.414 . S
C475 C478 1.499 . S
C476 H456 0.950 . S
C476 C475 1.414 . S
C476 C477 1.374 . S
C477 H457 0.950 . S
C477 C473 1.385 . S
C477 C476 1.374 . S
C478 C475 1.499 . S
C478 C479 1.373 . S
C478 C480 1.389 . S
C479 H458 0.950 . S
C479 C478 1.373 . S
C479 C495 1.377 . S
C480 C478 1.389 . S
C480 C481 1.524 . S
C480 C494 1.377 . S
C481 C480 1.524 . S
C481 C482 1.397 . S
C481 C486 1.363 . S
C482 H459 0.950 . S
C482 C481 1.397 . S
C482 C483 1.334 . S
C483 H460 0.950 . S
C483 C482 1.334 . S
C483 C484 1.287 . S
C484 C483 1.287 . S
C484 C485 1.524 . S
C484 H503 0.913 . S
C485 H461 0.950 . S
C485 C484 1.524 . S
C485 C486 1.415 . S
C486 H462 0.950 . S
C486 C481 1.363 . S
C486 C485 1.415 . S
C487 H463 0.951 . S
C487 C488 1.366 . S
C487 C489 1.388 . S
C488 C487 1.366 . S
C488 C492 1.385 . S
C489 H464 0.951 . S
C489 C487 1.388 . S
C489 C490 1.366 . S
C490 C489 1.366 . S
C490 C491 1.414 . S
C490 C493 1.499 . S
C491 H465 0.950 . S
C491 C490 1.414 . S
C491 C492 1.374 . S
C492 H466 0.950 . S
C492 C488 1.385 . S
C492 C491 1.374 . S
C493 C490 1.499 . S
C493 C494 1.373 . S
C493 C495 1.389 . S
C494 H467 0.950 . S
C494 C480 1.377 . S
C494 C493 1.373 . S
C495 C479 1.377 . S
C495 C493 1.389 . S
C495 C496 1.524 . S
C496 C495 1.524 . S
C496 C497 1.397 . S
C496 C501 1.363 . S
C497 H468 0.950 . S
C497 C496 1.397 . S
C497 C498 1.334 . S
C498 H469 0.950 . S
C498 C497 1.334 . S
C498 C499 1.287 . S
C499 C498 1.287 . S
C499 C500 1.524 . S
C499 H502 0.999 . S
C500 H470 0.950 . S
C500 C499 1.524 . S
C500 C501 1.415 . S
C501 H471 0.950 . S
C501 C496 1.363 . S
C501 C500 1.415 . S
H502 C499 0.999 . S
H503 C484 0.913 . S
H504 C522 0.951 . S
H505 C524 0.951 . S
H506 C526 0.950 . S
H507 C527 0.950 . S
H508 C529 0.950 . S
H509 C532 0.950 . S
H510 C533 0.950 . S
H511 C535 0.950 . S
H512 C536 0.950 . S
H513 C537 0.951 . S
H514 C539 0.951 . S
H515 C541 0.950 . S
H516 C542 0.950 . S
H517 C544 0.950 . S
H518 C547 0.950 . S
H519 C548 0.950 . S
H520 C550 0.950 . S
H521 C551 0.950 . S
C522 H504 0.951 . S
C522 C523 1.366 . S
C522 C524 1.388 . S
C523 C522 1.366 . S
C523 C527 1.385 . S
C524 H505 0.951 . S
C524 C522 1.388 . S
C524 C525 1.366 . S
C525 C524 1.366 . S
C525 C526 1.414 . S
C525 C528 1.499 . S
C526 H506 0.950 . S
C526 C525 1.414 . S
C526 C527 1.374 . S
C527 H507 0.950 . S
C527 C523 1.385 . S
C527 C526 1.374 . S
C528 C525 1.499 . S
C528 C529 1.373 . S
C528 C530 1.389 1_565 S
C529 H508 0.950 . S
C529 C528 1.373 . S
C529 C545 1.377 . S
C530 C528 1.389 1_545 S
C530 C531 1.524 . S
C530 C544 1.377 . S
C531 C530 1.524 . S
C531 C532 1.397 . S
C531 C536 1.363 . S
C532 H509 0.950 . S
C532 C531 1.397 . S
C532 C533 1.334 . S
C533 H510 0.950 . S
C533 C532 1.334 . S
C533 C534 1.287 . S
C534 C533 1.287 . S
C534 C535 1.524 . S
C534 H553 0.913 . S
C535 H511 0.950 . S
C535 C534 1.524 . S
C535 C536 1.415 . S
C536 H512 0.950 . S
C536 C531 1.363 . S
C536 C535 1.415 . S
C537 H513 0.951 . S
C537 C538 1.366 . S
C537 C539 1.388 . S
C538 C537 1.366 . S
C538 C542 1.385 . S
C539 H514 0.951 . S
C539 C537 1.388 . S
C539 C540 1.366 . S
C540 C539 1.366 . S
C540 C541 1.414 . S
C540 C543 1.499 . S
C541 H515 0.950 . S
C541 C540 1.414 . S
C541 C542 1.374 . S
C542 H516 0.950 . S
C542 C538 1.385 . S
C542 C541 1.374 . S
C543 C540 1.499 . S
C543 C544 1.373 . S
C543 C545 1.389 1_545 S
C544 H517 0.950 . S
C544 C530 1.377 . S
C544 C543 1.373 . S
C545 C529 1.377 . S
C545 C543 1.389 1_565 S
C545 C546 1.524 . S
C546 C545 1.524 . S
C546 C547 1.397 . S
C546 C551 1.363 . S
C547 H518 0.950 . S
C547 C546 1.397 . S
C547 C548 1.334 . S
C548 H519 0.950 . S
C548 C547 1.334 . S
C548 C549 1.287 . S
C549 C548 1.287 . S
C549 C550 1.524 . S
C549 H552 0.999 . S
C550 H520 0.950 . S
C550 C549 1.524 . S
C550 C551 1.415 . S
C551 H521 0.950 . S
C551 C546 1.363 . S
C551 C550 1.415 . S
H552 C549 0.999 . S
H553 C534 0.913 . S
H554 C572 0.951 . S
H555 C574 0.951 . S
H556 C576 0.950 . S
H557 C577 0.950 . S
H558 C579 0.950 . S
H559 C582 0.950 . S
H560 C583 0.950 . S
H561 C585 0.977 . S
H562 C586 0.950 . S
H563 C587 0.951 . S
H564 C589 0.951 . S
H565 C591 0.950 . S
H566 C592 0.950 . S
H567 C594 0.950 . S
H568 C597 0.950 . S
H569 C598 0.950 . S
H570 C600 0.950 . S
H571 C601 0.950 . S
C572 H554 0.951 . S
C572 C573 1.366 . S
C572 C574 1.388 . S
C573 C572 1.366 . S
C573 C577 1.385 . S
C574 H555 0.951 . S
C574 C572 1.388 . S
C574 C575 1.366 . S
C575 C574 1.366 . S
C575 C576 1.414 . S
C575 C578 1.499 . S
C576 H556 0.950 . S
C576 C575 1.414 . S
C576 C577 1.374 . S
C577 H557 0.950 . S
C577 C573 1.385 . S
C577 C576 1.374 . S
C578 C575 1.499 . S
C578 C579 1.373 . S
C578 C580 1.389 . S
C579 H558 0.950 . S
C579 C578 1.373 . S
C579 C595 1.377 1_565 S
C580 C578 1.389 . S
C580 C581 1.524 . S
C580 C594 1.377 1_565 S
C581 C580 1.524 . S
C581 C582 1.397 1_565 S
C581 C586 1.363 . S
C582 H559 0.950 . S
C582 C581 1.397 1_545 S
C582 C583 1.334 . S
C583 H560 0.950 . S
C583 C582 1.334 . S
C583 C584 1.287 1_545 S
C584 C583 1.287 1_565 S
C584 C585 1.524 . S
C584 H603 0.913 1_655 S
C585 H561 0.977 . S
C585 C584 1.524 . S
C585 C586 1.415 . S
C586 H562 0.950 . S
C586 C581 1.363 . S
C586 C585 1.415 . S
C587 H563 0.951 . S
C587 C588 1.366 . S
C587 C589 1.388 . S
C588 C587 1.366 . S
C588 C592 1.385 . S
C589 H564 0.951 . S
C589 C587 1.388 . S
C589 C590 1.366 . S
C590 C589 1.366 . S
C590 C591 1.414 . S
C590 C593 1.499 . S
C591 H565 0.950 . S
C591 C590 1.414 . S
C591 C592 1.374 . S
C592 H566 0.950 . S
C592 C588 1.385 . S
C592 C591 1.374 . S
C593 C590 1.499 . S
C593 C594 1.373 . S
C593 C595 1.389 . S
C594 H567 0.950 . S
C594 C580 1.377 1_545 S
C594 C593 1.373 . S
C595 C579 1.377 1_545 S
C595 C593 1.389 . S
C595 C596 1.524 . S
C596 C595 1.524 . S
C596 C597 1.397 1_545 S
C596 C601 1.363 . S
C597 H568 0.950 . S
C597 C596 1.397 1_565 S
C597 C598 1.334 . S
C598 H569 0.950 . S
C598 C597 1.334 . S
C598 C599 1.287 1_565 S
C599 C598 1.287 1_545 S
C599 C600 1.524 . S
C599 H602 0.999 . S
C600 H570 0.950 . S
C600 C599 1.524 . S
C600 C601 1.415 . S
C601 H571 0.950 . S
C601 C596 1.363 . S
C601 C600 1.415 . S
H602 C599 0.999 . S
H603 C584 0.913 1_455 S
H604 C622 0.951 . S
H605 C624 0.951 . S
H606 C626 0.950 . S
H607 C627 0.950 . S
H608 C629 0.950 . S
H609 C632 0.950 . S
H610 C633 0.950 . S
H611 C635 0.950 . S
H612 C636 0.950 . S
H613 C637 0.951 . S
H614 C639 0.951 . S
H615 C641 0.950 . S
H616 C642 0.950 . S
H617 C644 0.950 . S
H618 C647 0.950 . S
H619 C648 0.950 . S
H620 C650 0.950 . S
H621 C651 0.950 . S
C622 H604 0.951 . S
C622 C623 1.366 . S
C622 C624 1.388 . S
C623 C622 1.366 . S
C623 C627 1.385 . S
C624 H605 0.951 . S
C624 C622 1.388 . S
C624 C625 1.366 . S
C625 C624 1.366 . S
C625 C626 1.414 . S
C625 C628 1.499 . S
C626 H606 0.950 . S
C626 C625 1.414 . S
C626 C627 1.374 . S
C627 H607 0.950 . S
C627 C623 1.385 . S
C627 C626 1.374 . S
C628 C625 1.499 . S
C628 C629 1.373 1_565 S
C628 C630 1.389 . S
C629 H608 0.950 . S
C629 C628 1.373 1_545 S
C629 C645 1.377 . S
C630 C628 1.389 . S
C630 C631 1.524 . S
C630 C644 1.377 . S
C631 C630 1.524 . S
C631 C632 1.397 . S
C631 C636 1.363 . S
C632 H609 0.950 . S
C632 C631 1.397 . S
C632 C633 1.334 . S
C633 H610 0.950 . S
C633 C632 1.334 . S
C633 C634 1.287 . S
C634 C633 1.287 . S
C634 C635 1.524 . S
C634 H653 0.913 . S
C635 H611 0.950 . S
C635 C634 1.524 . S
C635 C636 1.415 . S
C636 H612 0.950 . S
C636 C631 1.363 . S
C636 C635 1.415 . S
C637 H613 0.951 . S
C637 C638 1.366 . S
C637 C639 1.388 . S
C638 C637 1.366 . S
C638 C642 1.385 . S
C639 H614 0.951 . S
C639 C637 1.388 . S
C639 C640 1.366 . S
C640 C639 1.366 . S
C640 C641 1.414 . S
C640 C643 1.499 . S
C641 H615 0.950 . S
C641 C640 1.414 . S
C641 C642 1.374 . S
C642 H616 0.950 . S
C642 C638 1.385 . S
C642 C641 1.374 . S
C643 C640 1.499 . S
C643 C644 1.373 1_545 S
C643 C645 1.389 . S
C644 H617 0.950 . S
C644 C630 1.377 . S
C644 C643 1.373 1_565 S
C645 C629 1.377 . S
C645 C643 1.389 . S
C645 C646 1.524 . S
C646 C645 1.524 . S
C646 C647 1.397 . S
C646 C651 1.363 . S
C647 H618 0.950 . S
C647 C646 1.397 . S
C647 C648 1.334 . S
C648 H619 0.950 . S
C648 C647 1.334 . S
C648 C649 1.287 . S
C649 C648 1.287 . S
C649 C650 1.524 . S
C649 H652 0.999 . S
C650 H620 0.950 . S
C650 C649 1.524 . S
C650 C651 1.415 . S
C651 H621 0.950 . S
C651 C646 1.363 . S
C651 C650 1.415 . S
H652 C649 0.999 . S
H653 C634 0.913 . S
H654 C672 0.951 . S
H655 C674 0.951 . S
H656 C676 0.950 . S
H657 C677 0.950 . S
H658 C679 0.950 . S
H659 C682 0.950 . S
H660 C683 0.950 . S
H661 C685 0.950 . S
H662 C686 0.950 . S
H663 C687 0.951 . S
H664 C689 0.951 . S
H665 C691 0.950 . S
H666 C692 0.950 . S
H667 C694 0.950 . S
H668 C697 0.950 . S
H669 C698 0.950 . S
H670 C700 0.950 . S
H671 C701 0.950 . S
C672 H654 0.951 . S
C672 C673 1.366 . S
C672 C674 1.388 . S
C673 C672 1.366 . S
C673 C677 1.385 . S
C674 H655 0.951 . S
C674 C672 1.388 . S
C674 C675 1.366 . S
C675 C674 1.366 . S
C675 C676 1.414 . S
C675 C678 1.499 . S
C676 H656 0.950 . S
C676 C675 1.414 . S
C676 C677 1.374 . S
C677 H657 0.950 . S
C677 C673 1.385 . S
C677 C676 1.374 . S
C678 C675 1.499 . S
C678 C679 1.373 . S
C678 C680 1.389 1_565 S
C679 H658 0.950 . S
C679 C678 1.373 . S
C679 C695 1.377 . S
C680 C678 1.389 1_545 S
C680 C681 1.524 . S
C680 C694 1.377 . S
C681 C680 1.524 . S
C681 C682 1.397 . S
C681 C686 1.363 . S
C682 H659 0.950 . S
C682 C681 1.397 . S
C682 C683 1.334 . S
C683 H660 0.950 . S
C683 C682 1.334 . S
C683 C684 1.287 . S
C684 C683 1.287 . S
C684 C685 1.524 . S
C684 H703 0.913 . S
C685 H661 0.950 . S
C685 C684 1.524 . S
C685 C686 1.415 . S
C686 H662 0.950 . S
C686 C681 1.363 . S
C686 C685 1.415 . S
C687 H663 0.951 . S
C687 C688 1.366 . S
C687 C689 1.388 . S
C688 C687 1.366 . S
C688 C692 1.385 . S
C689 H664 0.951 . S
C689 C687 1.388 . S
C689 C690 1.366 . S
C690 C689 1.366 . S
C690 C691 1.414 . S
C690 C693 1.499 . S
C691 H665 0.950 . S
C691 C690 1.414 . S
C691 C692 1.374 . S
C692 H666 0.950 . S
C692 C688 1.385 . S
C692 C691 1.374 . S
C693 C690 1.499 . S
C693 C694 1.373 . S
C693 C695 1.389 1_545 S
C694 H667 0.950 . S
C694 C680 1.377 . S
C694 C693 1.373 . S
C695 C679 1.377 . S
C695 C693 1.389 1_565 S
C695 C696 1.524 . S
C696 C695 1.524 . S
C696 C697 1.397 . S
C696 C701 1.363 . S
C697 H668 0.950 . S
C697 C696 1.397 . S
C697 C698 1.334 . S
C698 H669 0.950 . S
C698 C697 1.334 . S
C698 C699 1.287 . S
C699 C698 1.287 . S
C699 C700 1.524 . S
C699 H702 0.999 . S
C700 H670 0.950 . S
C700 C699 1.524 . S
C700 C701 1.415 . S
C701 H671 0.950 . S
C701 C696 1.363 . S
C701 C700 1.415 . S
H702 C699 0.999 . S
H703 C684 0.913 . S
H704 C722 0.951 1_556 S
H705 C724 0.951 1_556 S
H706 C726 0.950 . S
H707 C727 0.950 . S
H708 C729 0.950 1_556 S
H709 C732 0.950 . S
H710 C733 0.950 . S
H711 C735 0.950 . S
H712 C736 0.950 . S
H713 C737 0.951 . S
H714 C739 0.951 . S
H715 C741 0.950 1_556 S
H716 C742 0.950 1_556 S
H717 C744 0.950 . S
H718 C747 0.950 . S
H719 C748 0.950 . S
H720 C750 0.950 . S
H721 C751 0.950 1_554 S
C722 H704 0.951 1_554 S
C722 C723 1.366 . S
C722 C724 1.388 . S
C723 C722 1.366 . S
C723 C727 1.385 . S
C724 H705 0.951 1_554 S
C724 C722 1.388 . S
C724 C725 1.366 . S
C725 C724 1.366 . S
C725 C726 1.414 . S
C725 C728 1.499 . S
C726 H706 0.950 . S
C726 C725 1.414 . S
C726 C727 1.374 . S
C727 H707 0.950 . S
C727 C723 1.385 . S
C727 C726 1.374 . S
C728 C725 1.499 . S
C728 C729 1.373 1_565 S
C728 C730 1.389 . S
C729 H708 0.950 1_554 S
C729 C728 1.373 1_545 S
C729 C745 1.378 . S
C730 C728 1.389 . S
C730 C731 1.524 . S
C730 C744 1.377 . S
C731 C730 1.524 . S
C731 C732 1.397 . S
C731 C736 1.363 . S
C732 H709 0.950 . S
C732 C731 1.397 . S
C732 C733 1.334 . S
C733 H710 0.950 . S
C733 C732 1.334 . S
C733 C734 1.287 . S
C734 C733 1.287 . S
C734 C735 1.524 . S
C734 H753 0.913 . S
C735 H711 0.950 . S
C735 C734 1.524 . S
C735 C736 1.415 . S
C736 H712 0.950 . S
C736 C731 1.363 . S
C736 C735 1.415 . S
C737 H713 0.951 . S
C737 C738 1.366 . S
C737 C739 1.388 . S
C738 C737 1.366 . S
C738 C742 1.385 . S
C739 H714 0.951 . S
C739 C737 1.388 . S
C739 C740 1.366 . S
C740 C739 1.366 . S
C740 C741 1.414 . S
C740 C743 1.499 . S
C741 H715 0.950 1_554 S
C741 C740 1.414 . S
C741 C742 1.374 . S
C742 H716 0.950 1_554 S
C742 C738 1.385 . S
C742 C741 1.374 . S
C743 C740 1.499 . S
C743 C744 1.373 1_545 S
C743 C745 1.397 . S
C744 H717 0.950 . S
C744 C730 1.377 . S
C744 C743 1.373 1_565 S
C745 C729 1.378 . S
C745 C743 1.397 . S
C745 C746 1.513 1_554 S
C746 C745 1.513 1_556 S
C746 C747 1.397 . S
C746 C751 1.363 . S
C747 H718 0.950 . S
C747 C746 1.397 . S
C747 C748 1.334 . S
C748 H719 0.950 . S
C748 C747 1.334 . S
C748 C749 1.287 . S
C749 C748 1.287 . S
C749 C750 1.524 . S
C749 H752 0.999 . S
C750 H720 0.950 . S
C750 C749 1.524 . S
C750 C751 1.415 . S
C751 H721 0.950 1_556 S
C751 C746 1.363 . S
C751 C750 1.415 . S
H752 C749 0.999 . S
H753 C734 0.913 . S
H754 C772 0.951 . S
H755 C774 0.951 . S
H756 C776 0.950 . S
H757 C777 0.950 . S
H758 C779 0.950 . S
H759 C782 0.950 . S
H760 C783 0.950 . S
H761 C785 0.950 . S
H762 C786 0.950 . S
H763 C787 0.951 . S
H764 C789 0.951 . S
H765 C791 0.950 . S
H766 C792 0.950 . S
H767 C794 0.950 . S
H768 C797 0.950 . S
H769 C798 0.950 . S
H770 C800 0.950 . S
H771 C801 0.950 . S
C772 H754 0.951 . S
C772 C773 1.366 . S
C772 C774 1.388 . S
C773 C772 1.366 . S
C773 C777 1.385 . S
C774 H755 0.951 . S
C774 C772 1.388 . S
C774 C775 1.366 . S
C775 C774 1.366 . S
C775 C776 1.414 . S
C775 C778 1.499 . S
C776 H756 0.950 . S
C776 C775 1.414 . S
C776 C777 1.374 . S
C777 H757 0.950 . S
C777 C773 1.385 . S
C777 C776 1.374 . S
C778 C775 1.499 . S
C778 C779 1.373 . S
C778 C780 1.389 . S
C779 H758 0.950 . S
C779 C778 1.373 . S
C779 C795 1.377 1_565 S
C780 C778 1.389 . S
C780 C781 1.524 . S
C780 C794 1.377 1_565 S
C781 C780 1.524 . S
C781 C782 1.397 . S
C781 C786 1.363 1_565 S
C782 H759 0.950 . S
C782 C781 1.397 . S
C782 C783 1.334 . S
C783 H760 0.950 . S
C783 C782 1.334 . S
C783 C784 1.287 . S
C784 C783 1.287 . S
C784 C785 1.524 1_565 S
C784 H803 0.913 . S
C785 H761 0.950 . S
C785 C784 1.524 1_545 S
C785 C786 1.415 . S
C786 H762 0.950 . S
C786 C781 1.363 1_545 S
C786 C785 1.415 . S
C787 H763 0.951 . S
C787 C788 1.366 . S
C787 C789 1.388 . S
C788 C787 1.366 . S
C788 C792 1.385 . S
C789 H764 0.951 . S
C789 C787 1.388 . S
C789 C790 1.366 . S
C790 C789 1.366 . S
C790 C791 1.414 . S
C790 C793 1.499 . S
C791 H765 0.950 . S
C791 C790 1.414 . S
C791 C792 1.374 . S
C792 H766 0.950 . S
C792 C788 1.385 . S
C792 C791 1.374 . S
C793 C790 1.499 . S
C793 C794 1.373 . S
C793 C795 1.389 . S
C794 H767 0.950 . S
C794 C780 1.377 1_545 S
C794 C793 1.373 . S
C795 C779 1.377 1_545 S
C795 C793 1.389 . S
C795 C796 1.524 . S
C796 C795 1.524 . S
C796 C797 1.397 . S
C796 C801 1.363 1_545 S
C797 H768 0.950 . S
C797 C796 1.397 . S
C797 C798 1.334 . S
C798 H769 0.950 . S
C798 C797 1.334 . S
C798 C799 1.287 . S
C799 C798 1.287 . S
C799 C800 1.524 1_545 S
C799 H802 0.999 . S
C800 H770 0.950 . S
C800 C799 1.524 1_565 S
C800 C801 1.415 . S
C801 H771 0.950 . S
C801 C796 1.363 1_565 S
C801 C800 1.415 . S
H802 C799 0.999 . S
H803 C784 0.913 . S
H804 C822 0.951 . S
H805 C824 0.951 . S
H806 C826 0.950 . S
H807 C827 0.950 . S
H808 C829 0.950 . S
H809 C832 0.950 . S
H810 C833 0.950 . S
H811 C835 0.950 . S
H812 C836 0.950 . S
H813 C837 0.951 . S
H814 C839 0.951 . S
H815 C841 0.950 . S
H816 C842 0.950 . S
H817 C844 0.950 . S
H818 C847 0.950 . S
H819 C848 0.950 . S
H820 C850 0.950 . S
H821 C851 0.950 . S
C822 H804 0.951 . S
C822 C823 1.366 . S
C822 C824 1.388 . S
C823 C822 1.366 . S
C823 C827 1.385 . S
C824 H805 0.951 . S
C824 C822 1.388 . S
C824 C825 1.366 . S
C825 C824 1.366 . S
C825 C826 1.414 . S
C825 C828 1.499 . S
C826 H806 0.950 . S
C826 C825 1.414 . S
C826 C827 1.374 . S
C827 H807 0.950 . S
C827 C823 1.385 . S
C827 C826 1.374 . S
C828 C825 1.499 . S
C828 C829 1.373 1_455 S
C828 C830 1.389 1_554 S
C829 H808 0.950 . S
C829 C828 1.373 1_655 S
C829 C845 1.377 . S
C830 C828 1.389 1_556 S
C830 C831 1.524 . S
C830 C844 1.377 . S
C831 C830 1.524 . S
C831 C832 1.397 . S
C831 C836 1.363 . S
C832 H809 0.950 . S
C832 C831 1.397 . S
C832 C833 1.334 . S
C833 H810 0.950 . S
C833 C832 1.334 . S
C833 C834 1.287 . S
C834 C833 1.287 . S
C834 C835 1.524 . S
C834 H853 0.913 . S
C835 H811 0.950 . S
C835 C834 1.524 . S
C835 C836 1.415 . S
C836 H812 0.950 . S
C836 C831 1.363 . S
C836 C835 1.415 . S
C837 H813 0.951 . S
C837 C838 1.366 . S
C837 C839 1.388 . S
C838 C837 1.366 . S
C838 C842 1.385 . S
C839 H814 0.951 . S
C839 C837 1.388 . S
C839 C840 1.366 . S
C840 C839 1.366 . S
C840 C841 1.414 . S
C840 C843 1.499 . S
C841 H815 0.950 . S
C841 C840 1.414 . S
C841 C842 1.374 . S
C842 H816 0.950 . S
C842 C838 1.385 . S
C842 C841 1.374 . S
C843 C840 1.499 . S
C843 C844 1.373 1_654 S
C843 C845 1.389 . S
C844 H817 0.950 . S
C844 C830 1.377 . S
C844 C843 1.373 1_456 S
C845 C829 1.377 . S
C845 C843 1.389 . S
C845 C846 1.524 . S
C846 C845 1.524 . S
C846 C847 1.397 . S
C846 C851 1.363 . S
C847 H818 0.950 . S
C847 C846 1.397 . S
C847 C848 1.334 . S
C848 H819 0.950 . S
C848 C847 1.334 . S
C848 C849 1.287 . S
C849 C848 1.287 . S
C849 C850 1.524 . S
C849 H852 0.999 . S
C850 H820 0.950 . S
C850 C849 1.524 . S
C850 C851 1.415 . S
C851 H821 0.950 . S
C851 C846 1.363 . S
C851 C850 1.415 . S
H852 C849 0.999 . S
H853 C834 0.913 . S
H854 C872 0.951 . S
H855 C874 0.951 . S
H856 C876 0.950 . S
H857 C877 0.950 . S
H858 C879 0.950 . S
H859 C882 0.950 . S
H860 C883 0.950 . S
H861 C885 0.950 . S
H862 C886 0.950 . S
H863 C887 0.951 . S
H864 C889 0.951 . S
H865 C891 0.950 . S
H866 C892 0.950 . S
H867 C894 0.950 . S
H868 C897 0.950 . S
H869 C898 0.950 . S
H870 C900 0.950 . S
H871 C901 0.950 . S
C872 H854 0.951 . S
C872 C873 1.366 . S
C872 C874 1.388 . S
C873 C872 1.366 . S
C873 C877 1.385 . S
C874 H855 0.951 . S
C874 C872 1.388 . S
C874 C875 1.366 . S
C875 C874 1.366 . S
C875 C876 1.414 . S
C875 C878 1.499 . S
C876 H856 0.950 . S
C876 C875 1.414 . S
C876 C877 1.374 . S
C877 H857 0.950 . S
C877 C873 1.385 . S
C877 C876 1.374 . S
C878 C875 1.499 . S
C878 C879 1.373 . S
C878 C880 1.389 1_455 S
C879 H858 0.950 . S
C879 C878 1.373 . S
C879 C895 1.377 . S
C880 C878 1.389 1_655 S
C880 C881 1.524 . S
C880 C894 1.377 . S
C881 C880 1.524 . S
C881 C882 1.397 1_655 S
C881 C886 1.363 . S
C882 H859 0.950 . S
C882 C881 1.397 1_455 S
C882 C883 1.334 . S
C883 H860 0.950 . S
C883 C882 1.334 . S
C883 C884 1.287 1_455 S
C884 C883 1.287 1_655 S
C884 C885 1.524 . S
C884 H903 0.913 . S
C885 H861 0.950 . S
C885 C884 1.524 . S
C885 C886 1.415 . S
C886 H862 0.950 . S
C886 C881 1.363 . S
C886 C885 1.415 . S
C887 H863 0.951 . S
C887 C888 1.366 . S
C887 C889 1.388 . S
C888 C887 1.366 . S
C888 C892 1.385 . S
C889 H864 0.951 . S
C889 C887 1.388 . S
C889 C890 1.366 . S
C890 C889 1.366 . S
C890 C891 1.414 . S
C890 C893 1.499 . S
C891 H865 0.950 . S
C891 C890 1.414 . S
C891 C892 1.374 . S
C892 H866 0.950 . S
C892 C888 1.385 . S
C892 C891 1.374 . S
C893 C890 1.499 . S
C893 C894 1.373 . S
C893 C895 1.389 1_655 S
C894 H867 0.950 . S
C894 C880 1.377 . S
C894 C893 1.373 . S
C895 C879 1.377 . S
C895 C893 1.389 1_455 S
C895 C896 1.524 . S
C896 C895 1.524 . S
C896 C897 1.397 1_455 S
C896 C901 1.363 . S
C897 H868 0.950 . S
C897 C896 1.397 1_655 S
C897 C898 1.334 . S
C898 H869 0.950 . S
C898 C897 1.334 . S
C898 C899 1.287 1_655 S
C899 C898 1.287 1_455 S
C899 C900 1.524 . S
C899 H902 0.999 . S
C900 H870 0.950 . S
C900 C899 1.524 . S
C900 C901 1.415 . S
C901 H871 0.950 . S
C901 C896 1.363 . S
C901 C900 1.415 . S
H902 C899 0.999 . S
H903 C884 0.913 . S
C123 C70 1.477 . S
C138 C5 1.477 . S
C173 C57 1.476 . S
C188 C18 1.476 . S
C223 C96 1.477 . S
C238 C31 1.476 . S
C273 C83 1.476 . S
C288 C44 1.476 . S
C323 C8 1.274 . S
C338 C34 1.274 . S
C373 C21 1.274 . S
C388 C47 1.274 . S
C423 C23 1.306 . S
C438 C49 1.306 . S
C473 C10 1.306 . S
C488 C36 1.306 . S
C523 C60 1.274 . S
C538 C86 1.274 . S
C573 C99 1.273 . S
C588 C73 1.275 . S
C623 C101 1.306 . S
C638 C75 1.306 . S
C673 C62 1.306 . S
C688 C88 1.306 . S
C723 C13 1.496 . S
C738 C0 1.497 . S
C773 C26 1.496 . S
C788 C39 1.496 . S
C823 C52 1.496 . S
C838 C65 1.496 . S
C873 C78 1.496 . S
C888 C91 1.496 . S
