# Generated by pormake.
# Topology wkc, (5)-cn, num edge types: 1
# Building blocks:
#     Node 0, Type 0, BuildingBlock: XOMCOT_clean_sbu_1, # of connection points: 5
#     Node 1, Type 0, BuildingBlock: XOMCOT_clean_sbu_1, # of connection points: 5
#     Node 2, Type 0, BuildingBlock: XOMCOT_clean_sbu_1, # of connection points: 5
#     Node 3, Type 0, BuildingBlock: XOMCOT_clean_sbu_1, # of connection points: 5
#     Node 4, Type 0, BuildingBlock: XOMCOT_clean_sbu_1, # of connection points: 5
#     Node 5, Type 0, BuildingBlock: XOMCOT_clean_sbu_1, # of connection points: 5
#     Node 6, Type 0, BuildingBlock: XOMCOT_clean_sbu_1, # of connection points: 5
#     Node 7, Type 0, BuildingBlock: XOMCOT_clean_sbu_1, # of connection points: 5
#     Node 8, Type 0, BuildingBlock: XOMCOT_clean_sbu_1, # of connection points: 5
#     Node 9, Type 0, BuildingBlock: XOMCOT_clean_sbu_1, # of connection points: 5
#     Node 10, Type 0, BuildingBlock: XOMCOT_clean_sbu_1, # of connection points: 5
#     Node 11, Type 0, BuildingBlock: XOMCOT_clean_sbu_1, # of connection points: 5
#     Edge 12, Type (0, 0), BuildingBlock: XUDNAN_clean_linker_2, # of connection points: 2
#     Edge 13, Type (0, 0), BuildingBlock: XUDNAN_clean_linker_2, # of connection points: 2
#     Edge 14, Type (0, 0), BuildingBlock: XUDNAN_clean_linker_2, # of connection points: 2
#     Edge 15, Type (0, 0), BuildingBlock: XUDNAN_clean_linker_2, # of connection points: 2
#     Edge 16, Type (0, 0), BuildingBlock: XUDNAN_clean_linker_2, # of connection points: 2
#     Edge 17, Type (0, 0), BuildingBlock: XUDNAN_clean_linker_2, # of connection points: 2
#     Edge 18, Type (0, 0), BuildingBlock: XUDNAN_clean_linker_2, # of connection points: 2
#     Edge 19, Type (0, 0), BuildingBlock: XUDNAN_clean_linker_2, # of connection points: 2
#     Edge 20, Type (0, 0), BuildingBlock: XUDNAN_clean_linker_2, # of connection points: 2
#     Edge 21, Type (0, 0), BuildingBlock: XUDNAN_clean_linker_2, # of connection points: 2
#     Edge 22, Type (0, 0), BuildingBlock: XUDNAN_clean_linker_2, # of connection points: 2
#     Edge 23, Type (0, 0), BuildingBlock: XUDNAN_clean_linker_2, # of connection points: 2
#     Edge 24, Type (0, 0), BuildingBlock: XUDNAN_clean_linker_2, # of connection points: 2
#     Edge 25, Type (0, 0), BuildingBlock: XUDNAN_clean_linker_2, # of connection points: 2
#     Edge 26, Type (0, 0), BuildingBlock: XUDNAN_clean_linker_2, # of connection points: 2
#     Edge 27, Type (0, 0), BuildingBlock: XUDNAN_clean_linker_2, # of connection points: 2
#     Edge 28, Type (0, 0), BuildingBlock: XUDNAN_clean_linker_2, # of connection points: 2
#     Edge 29, Type (0, 0), BuildingBlock: XUDNAN_clean_linker_2, # of connection points: 2
#     Edge 30, Type (0, 0), BuildingBlock: XUDNAN_clean_linker_2, # of connection points: 2
#     Edge 31, Type (0, 0), BuildingBlock: XUDNAN_clean_linker_2, # of connection points: 2
#     Edge 32, Type (0, 0), BuildingBlock: XUDNAN_clean_linker_2, # of connection points: 2
#     Edge 33, Type (0, 0), BuildingBlock: XUDNAN_clean_linker_2, # of connection points: 2
#     Edge 34, Type (0, 0), BuildingBlock: XUDNAN_clean_linker_2, # of connection points: 2
#     Edge 35, Type (0, 0), BuildingBlock: XUDNAN_clean_linker_2, # of connection points: 2
#     Edge 36, Type (0, 0), BuildingBlock: XUDNAN_clean_linker_2, # of connection points: 2
#     Edge 37, Type (0, 0), BuildingBlock: XUDNAN_clean_linker_2, # of connection points: 2
#     Edge 38, Type (0, 0), BuildingBlock: XUDNAN_clean_linker_2, # of connection points: 2
#     Edge 39, Type (0, 0), BuildingBlock: XUDNAN_clean_linker_2, # of connection points: 2
#     Edge 40, Type (0, 0), BuildingBlock: XUDNAN_clean_linker_2, # of connection points: 2
#     Edge 41, Type (0, 0), BuildingBlock: XUDNAN_clean_linker_2, # of connection points: 2
# Relax obj value: 0.260
# Max RMSD: 0.215
# Mean RMSD: 0.215
data_MOF--net-wkc--node1-XOMCOT_clean_sbu_1--edge1-XUDNAN_clean_linker_2
_symmetry_space_group_name_H-M    P1
_symmetry_Int_Tables_number       1
_symmetry_cell_setting            triclinic
loop_
_symmetry_equiv_pos_as_xyz
'x, y, z'
_cell_length_a     37.71619
_cell_length_b     37.810492
_cell_length_c     47.171681
_cell_angle_alpha  89.972437
_cell_angle_beta   90.091423
_cell_angle_gamma 119.95209
loop_
_atom_site_label
_atom_site_type_symbol
_atom_site_fract_x
_atom_site_fract_y
_atom_site_fract_z
_atom_type_partial_charge
C0 C 0.31629 0.47513 0.0661 0.0
C1 C 0.31403 0.50239 0.0842 0.0
N2 N 0.29213 0.51706 0.07141 0.0
N3 N 0.29526 0.47207 0.04216 0.0
C4 C 0.28115 0.49831 0.04596 0.0
H5 H 0.33307 0.45934 0.06998 0.0
Co6 Co 0.29043 0.44105 0.00998 0.0
C7 C 0.19902 0.3904 0.0041 0.0
O8 O 0.20143 0.35803 0.99705 0.0
N9 N 0.28686 0.41084 0.97696 0.0
C10 C 0.27124 0.38306 0.93372 0.0
C11 C 0.26183 0.40284 0.95437 0.0
C12 C 0.31276 0.39776 0.9686 0.0
N13 N 0.30346 0.38006 0.94275 0.0
O14 O 0.30415 0.4875 0.98628 0.0
H15 H 0.23888 0.41187 0.95252 0.0
H16 H 0.33892 0.40208 0.9806 0.0
O17 O 0.23194 0.42443 0.00835 0.0
C18 C 0.34031 0.51746 0.9897 0.0
O19 O 0.36453 0.51447 0.0084 0.0
N20 N 0.28019 0.39687 0.03404 0.0
C21 C 0.28068 0.34608 0.07686 0.0
C22 C 0.24732 0.35232 0.07371 0.0
C23 C 0.24817 0.37872 0.05267 0.0
C24 C 0.3129 0.39111 0.03712 0.0
C25 C 0.31346 0.36529 0.05795 0.0
H26 H 0.22483 0.38716 0.05336 0.0
H27 H 0.34059 0.40985 0.02544 0.0
H28 H 0.26374 0.50404 0.03019 0.0
H29 H 0.32867 0.51189 0.10473 0.0
H30 H 0.25657 0.37309 0.91324 0.0
H31 H 0.2224 0.33966 0.08883 0.0
H32 H 0.34048 0.3624 0.06035 0.0
C33 C 0.85698 0.30272 0.22468 0.0
C34 C 0.82795 0.30079 0.24309 0.0
N35 N 0.79077 0.27582 0.23192 0.0
N36 N 0.8383 0.27848 0.20215 0.0
C37 C 0.79784 0.26282 0.207 0.0
H38 H 0.88969 0.32162 0.22728 0.0
Co39 Co 0.86466 0.27322 0.17042 0.0
C40 C 0.82876 0.1838 0.16285 0.0
O41 O 0.86502 0.19038 0.15514 0.0
N42 N 0.89188 0.27002 0.13737 0.0
C43 C 0.90305 0.25863 0.09264 0.0
C44 C 0.87414 0.24797 0.11368 0.0
C45 C 0.9312 0.29534 0.12945 0.0
N46 N 0.93887 0.28871 0.10263 0.0
O47 O 0.83197 0.28672 0.14655 0.0
H48 H 0.84176 0.22666 0.11138 0.0
H49 H 0.95367 0.3198 0.14231 0.0
O50 O 0.82386 0.21409 0.16905 0.0
C51 C 0.8527 0.32533 0.1434 0.0
O52 O 0.88802 0.34538 0.15665 0.0
N53 N 0.89931 0.26423 0.19477 0.0
C54 C 0.95194 0.26754 0.23771 0.0
C55 C 0.91338 0.23278 0.2343 0.0
C56 C 0.88703 0.23216 0.21315 0.0
C57 C 0.93678 0.29818 0.19807 0.0
C58 C 0.96379 0.30023 0.21898 0.0
H59 H 0.8559 0.20735 0.21339 0.0
H60 H 0.94422 0.32556 0.18643 0.0
H61 H 0.77411 0.24284 0.19236 0.0
H62 H 0.83376 0.3178 0.26265 0.0
H63 H 0.89766 0.2469 0.07118 0.0
H64 H 0.90246 0.20773 0.24924 0.0
H65 H 0.99278 0.32821 0.2216 0.0
C66 C 0.55785 0.8594 0.37909 0.0
C67 C 0.52699 0.83192 0.3963 0.0
N68 N 0.51538 0.79406 0.38692 0.0
N69 N 0.5663 0.83893 0.3593 0.0
C70 C 0.53938 0.79908 0.36432 0.0
H71 H 0.57352 0.89228 0.38104 0.0
Co72 Co 0.60673 0.86337 0.33153 0.0
C73 C 0.6155 0.78543 0.33127 0.0
O74 O 0.58516 0.76003 0.31496 0.0
N75 N 0.64693 0.88867 0.30327 0.0
C76 C 0.69777 0.90518 0.27279 0.0
C77 C 0.67565 0.87966 0.29469 0.0
C78 C 0.6527 0.92024 0.28648 0.0
N79 N 0.68335 0.93073 0.26767 0.0
O80 O 0.56615 0.83384 0.30313 0.0
H81 H 0.68055 0.85614 0.30361 0.0
H82 H 0.63446 0.93496 0.28773 0.0
O83 O 0.62112 0.82105 0.3361 0.0
C84 C 0.5495 0.85548 0.2984 0.0
O85 O 0.56376 0.89033 0.312 0.0
N86 N 0.64493 0.89415 0.35968 0.0
C87 C 0.6812 0.93969 0.40812 0.0
C88 C 0.66851 0.8981 0.40737 0.0
C89 C 0.65007 0.87572 0.38301 0.0
C90 C 0.66004 0.93531 0.35934 0.0
C91 C 0.67859 0.95887 0.38347 0.0
H92 H 0.63588 0.84295 0.38427 0.0
H93 H 0.65427 0.94937 0.34132 0.0
H94 H 0.5377 0.77422 0.35195 0.0
H95 H 0.51383 0.83917 0.41421 0.0
H96 H 0.72287 0.90522 0.26165 0.0
H97 H 0.66913 0.88228 0.42637 0.0
H98 H 0.68713 0.99081 0.38371 0.0
C99 C 0.73139 0.54234 0.55388 0.0
C100 C 0.7342 0.5112 0.56703 0.0
N101 N 0.75894 0.5027 0.55144 0.0
N102 N 0.7546 0.55362 0.53024 0.0
C103 C 0.77134 0.52934 0.52964 0.0
H104 H 0.71144 0.55381 0.56012 0.0
Co105 Co 0.7563 0.5863 0.49985 0.0
C106 C 0.84534 0.64425 0.49106 0.0
O107 O 0.83707 0.67128 0.48015 0.0
N108 N 0.75726 0.61798 0.46797 0.0
C109 C 0.76123 0.63543 0.42227 0.0
C110 C 0.76969 0.61373 0.44189 0.0
C111 C 0.7419 0.64329 0.46347 0.0
N112 N 0.74378 0.6539 0.43594 0.0
O113 O 0.7459 0.54229 0.47453 0.0
H114 H 0.78346 0.59526 0.4372 0.0
H115 H 0.72838 0.65308 0.47955 0.0
O116 O 0.81612 0.60927 0.49863 0.0
C117 C 0.70727 0.51811 0.47503 0.0
O118 O 0.68505 0.52804 0.49101 0.0
N119 N 0.76093 0.62604 0.52559 0.0
C120 C 0.74611 0.65881 0.57384 0.0
C121 C 0.78501 0.66388 0.56905 0.0
C122 C 0.79179 0.64681 0.54474 0.0
C123 C 0.72364 0.62276 0.52952 0.0
C124 C 0.71576 0.6395 0.55323 0.0
H125 H 0.82024 0.64676 0.54318 0.0
H126 H 0.69863 0.60366 0.51545 0.0
H127 H 0.79027 0.52948 0.51237 0.0
H128 H 0.71675 0.494 0.58529 0.0
H129 H 0.76728 0.63745 0.39973 0.0
H130 H 0.80856 0.6773 0.58518 0.0
H131 H 0.68501 0.63393 0.55678 0.0
C132 C 0.18088 0.71271 0.70667 0.0
C133 C 0.21037 0.70995 0.72221 0.0
N134 N 0.24712 0.74181 0.71532 0.0
N135 N 0.1989 0.74618 0.69005 0.0
C136 C 0.23931 0.76316 0.6958 0.0
H137 H 0.14851 0.6907 0.7066 0.0
Co138 Co 0.17247 0.75886 0.66149 0.0
C139 C 0.247 0.84581 0.66121 0.0
O140 O 0.27276 0.83891 0.64688 0.0
N141 N 0.14517 0.77032 0.6323 0.0
C142 C 0.13046 0.80114 0.59786 0.0
C143 C 0.157 0.80649 0.61954 0.0
C144 C 0.11099 0.74341 0.6179 0.0
N145 N 0.10155 0.76142 0.59665 0.0
O146 O 0.20605 0.7525 0.63393 0.0
H147 H 0.1838 0.8351 0.62485 0.0
H148 H 0.09421 0.71099 0.6222 0.0
O149 O 0.21081 0.81689 0.66633 0.0
C150 C 0.18673 0.7151 0.62654 0.0
O151 O 0.15054 0.69111 0.63765 0.0
N152 N 0.13753 0.76148 0.68857 0.0
C153 C 0.08309 0.75227 0.73162 0.0
C154 C 0.12073 0.78844 0.7292 0.0
C155 C 0.14788 0.7923 0.70771 0.0
C156 C 0.1004 0.72672 0.69004 0.0
C157 C 0.07276 0.72134 0.71154 0.0
H158 H 0.17761 0.81944 0.70749 0.0
H159 H 0.09299 0.70223 0.67518 0.0
H160 H 0.26297 0.78911 0.68472 0.0
H161 H 0.20527 0.68591 0.73696 0.0
H162 H 0.13259 0.82479 0.58383 0.0
H163 H 0.12999 0.81269 0.74465 0.0
H164 H 0.04395 0.6929 0.71281 0.0
C165 C 0.48399 0.16189 0.87677 0.0
C166 C 0.51514 0.18779 0.89462 0.0
N167 N 0.52551 0.22639 0.88794 0.0
N168 N 0.47423 0.18416 0.85946 0.0
C169 C 0.50049 0.22339 0.86649 0.0
H170 H 0.46932 0.12894 0.87641 0.0
Co171 Co 0.43523 0.16494 0.83069 0.0
C172 C 0.3866 0.20447 0.8457 0.0
O173 O 0.35295 0.16902 0.84268 0.0
N174 N 0.39748 0.14545 0.79983 0.0
C175 C 0.35681 0.13944 0.76353 0.0
C176 C 0.37967 0.16371 0.78577 0.0
C177 C 0.38749 0.11174 0.78401 0.0
N178 N 0.3616 0.10651 0.76254 0.0
O179 O 0.47688 0.20086 0.80507 0.0
H180 H 0.38388 0.1935 0.7905 0.0
H181 H 0.39942 0.09146 0.78786 0.0
O182 O 0.42137 0.20752 0.84043 0.0
C183 C 0.49383 0.18252 0.79379 0.0
O184 O 0.47961 0.14378 0.79966 0.0
N185 N 0.39542 0.12762 0.85694 0.0
C186 C 0.35158 0.06982 0.8993 0.0
C187 C 0.37119 0.11183 0.90515 0.0
C188 C 0.39255 0.14012 0.88369 0.0
C189 C 0.37569 0.08693 0.85093 0.0
C190 C 0.35239 0.05789 0.87126 0.0
H191 H 0.40951 0.17209 0.8893 0.0
H192 H 0.37983 0.07592 0.83108 0.0
H193 H 0.50127 0.24929 0.85606 0.0
H194 H 0.52967 0.17905 0.9108 0.0
H195 H 0.33877 0.14599 0.74884 0.0
H196 H 0.3724 0.12307 0.92642 0.0
H197 H 0.337 0.02608 0.86512 0.0
C198 C 0.52989 0.70656 0.77776 0.0
C199 C 0.4977 0.70602 0.76357 0.0
N200 N 0.49416 0.73794 0.77256 0.0
N201 N 0.54664 0.73872 0.79559 0.0
C202 C 0.5243 0.75735 0.79189 0.0
H203 H 0.53943 0.684 0.77609 0.0
Co204 Co 0.58571 0.74845 0.82356 0.0
C205 C 0.64456 0.83661 0.8135 0.0
O206 O 0.67462 0.82847 0.81351 0.0
N207 N 0.62341 0.75659 0.85324 0.0
C208 C 0.66649 0.78034 0.88997 0.0
C209 C 0.64732 0.79005 0.86903 0.0
C210 C 0.62643 0.72642 0.86664 0.0
N211 N 0.65351 0.74016 0.88836 0.0
O212 O 0.54775 0.74479 0.85186 0.0
H213 H 0.64951 0.81946 0.86668 0.0
H214 H 0.60817 0.69457 0.86102 0.0
O215 O 0.60794 0.80792 0.81856 0.0
C216 C 0.52235 0.70691 0.85541 0.0
O217 O 0.52717 0.68028 0.84046 0.0
N218 N 0.621 0.74752 0.79516 0.0
C219 C 0.65644 0.72799 0.75013 0.0
C220 C 0.64631 0.7588 0.74714 0.0
C221 C 0.62823 0.76786 0.76987 0.0
C222 C 0.63141 0.71802 0.79819 0.0
C223 C 0.65029 0.70882 0.77649 0.0
H224 H 0.61742 0.78915 0.76641 0.0
H225 H 0.62219 0.69872 0.81647 0.0
H226 H 0.52844 0.78313 0.80442 0.0
H227 H 0.47784 0.68336 0.7483 0.0
H228 H 0.68729 0.80112 0.90576 0.0
H229 H 0.64963 0.77373 0.72692 0.0
H230 H 0.65753 0.68477 0.77983 0.0
C231 C 0.82922 0.53305 0.93225 0.0
C232 C 0.79674 0.49869 0.92059 0.0
N233 N 0.76423 0.48638 0.93782 0.0
N234 N 0.81697 0.54265 0.95648 0.0
C235 C 0.77725 0.51366 0.95924 0.0
H236 H 0.86018 0.54884 0.9242 0.0
Co237 Co 0.84844 0.58181 0.98359 0.0
C238 C 0.81152 0.63519 0.98459 0.0
O239 O 0.8487 0.66676 0.98664 0.0
N240 N 0.88022 0.61979 0.0124 0.0
C241 C 0.89515 0.65135 0.05435 0.0
C242 C 0.86507 0.631 0.03443 0.0
C243 C 0.91925 0.63197 0.02044 0.0
N244 N 0.92925 0.65173 0.04564 0.0
O245 O 0.82154 0.54185 0.01276 0.0
H246 H 0.83331 0.62242 0.03701 0.0
H247 H 0.93924 0.62413 0.00921 0.0
O248 O 0.8066 0.59906 0.98464 0.0
C249 C 0.84347 0.52539 0.01691 0.0
O250 O 0.87693 0.53826 0.00177 0.0
N251 N 0.87732 0.61936 0.95405 0.0
C252 C 0.92175 0.66345 0.90661 0.0
C253 C 0.88106 0.65374 0.91022 0.0
C254 C 0.85898 0.63055 0.9336 0.0
C255 C 0.91658 0.62769 0.95026 0.0
C256 C 0.93951 0.65009 0.92694 0.0
H257 H 0.82655 0.6196 0.93413 0.0
H258 H 0.92938 0.61437 0.96415 0.0
H259 H 0.75866 0.51166 0.9773 0.0
H260 H 0.79768 0.48256 0.90191 0.0
H261 H 0.8913 0.66236 0.07465 0.0
H262 H 0.86571 0.66184 0.89422 0.0
H263 H 0.97045 0.65574 0.92433 0.0
C264 C 0.30903 0.83186 0.1112 0.0
C265 C 0.31131 0.79925 0.10013 0.0
N266 N 0.28644 0.76572 0.11536 0.0
N267 N 0.28241 0.81863 0.13302 0.0
C268 C 0.26923 0.77838 0.13497 0.0
H269 H 0.32661 0.86334 0.10445 0.0
Co270 Co 0.27005 0.84807 0.15889 0.0
C271 C 0.17959 0.80595 0.15597 0.0
O272 O 0.18262 0.8421 0.1573 0.0
N273 N 0.25881 0.87748 0.18679 0.0
C274 C 0.23468 0.88828 0.22706 0.0
C275 C 0.23022 0.85975 0.20732 0.0
C276 C 0.28213 0.91664 0.19591 0.0
N277 N 0.26746 0.92408 0.21997 0.0
O278 O 0.28501 0.82375 0.18885 0.0
H279 H 0.20887 0.82742 0.20906 0.0
H280 H 0.31071 0.9387 0.18632 0.0
O281 O 0.21205 0.80321 0.15849 0.0
C282 C 0.32329 0.84778 0.1923 0.0
O283 O 0.34094 0.88167 0.17737 0.0
N284 N 0.25962 0.87413 0.1281 0.0
C285 C 0.26294 0.91059 0.07585 0.0
C286 C 0.23533 0.86915 0.08027 0.0
C287 C 0.23476 0.85139 0.10621 0.0
C288 C 0.28552 0.91499 0.12442 0.0
C289 C 0.28722 0.93401 0.09858 0.0
H290 H 0.21718 0.81854 0.10746 0.0
H291 H 0.308 0.93236 0.14031 0.0
H292 H 0.24826 0.75896 0.15118 0.0
H293 H 0.33126 0.80057 0.08319 0.0
H294 H 0.21679 0.88256 0.24619 0.0
H295 H 0.21664 0.84986 0.06305 0.0
H296 H 0.30996 0.96585 0.09566 0.0
C297 C 0.48617 0.28173 0.27154 0.0
C298 C 0.51984 0.28185 0.26012 0.0
N299 N 0.53611 0.26862 0.28004 0.0
N300 N 0.48061 0.26792 0.29851 0.0
C301 C 0.51185 0.26065 0.30297 0.0
H302 H 0.46785 0.29239 0.26091 0.0
Co303 Co 0.44193 0.26465 0.32568 0.0
C304 C 0.42458 0.17651 0.32891 0.0
O305 O 0.46144 0.18447 0.3361 0.0
N306 N 0.40419 0.26246 0.35253 0.0
C307 C 0.3471 0.24317 0.37694 0.0
C308 C 0.36626 0.23115 0.35764 0.0
C309 C 0.40726 0.29334 0.36887 0.0
N310 N 0.3728 0.28244 0.38407 0.0
O311 O 0.4794 0.2721 0.35566 0.0
H312 H 0.3525 0.202 0.34705 0.0
H313 H 0.43398 0.32352 0.36901 0.0
O314 O 0.41643 0.2053 0.32628 0.0
C315 C 0.50642 0.30984 0.35686 0.0
O316 O 0.50406 0.33533 0.33907 0.0
N317 N 0.40628 0.26066 0.29669 0.0
C318 C 0.36013 0.26541 0.25237 0.0
C319 C 0.36228 0.22986 0.25658 0.0
C320 C 0.38589 0.22817 0.27877 0.0
C321 C 0.40369 0.29505 0.2933 0.0
C322 C 0.38078 0.29813 0.27123 0.0
H323 H 0.38894 0.20137 0.28057 0.0
H324 H 0.42048 0.32067 0.30743 0.0
H325 H 0.51759 0.25097 0.32308 0.0
H326 H 0.53218 0.29244 0.23915 0.0
H327 H 0.31578 0.22479 0.384 0.0
H328 H 0.3474 0.20432 0.24208 0.0
H329 H 0.37979 0.32609 0.26864 0.0
C330 C 0.20852 0.49085 0.43305 0.0
C331 C 0.24137 0.52419 0.42071 0.0
N332 N 0.27426 0.53629 0.43764 0.0
N333 N 0.22087 0.48176 0.45747 0.0
C334 C 0.26099 0.5098 0.45956 0.0
H335 H 0.17732 0.47553 0.4254 0.0
Co336 Co 0.18982 0.44477 0.48585 0.0
C337 C 0.22923 0.39336 0.48978 0.0
O338 O 0.19292 0.361 0.49339 0.0
N339 N 0.15849 0.40884 0.51579 0.0
C340 C 0.14283 0.37779 0.55796 0.0
C341 C 0.1734 0.39838 0.5384 0.0
C342 C 0.11913 0.39619 0.52317 0.0
N343 N 0.10865 0.3766 0.54841 0.0
O344 O 0.21652 0.48744 0.51345 0.0
H345 H 0.20516 0.40713 0.5414 0.0
H346 H 0.09895 0.40311 0.51126 0.0
O347 O 0.23237 0.4287 0.4884 0.0
C348 C 0.19541 0.50531 0.5137 0.0
O349 O 0.16291 0.49059 0.49727 0.0
N350 N 0.16092 0.40484 0.45774 0.0
C351 C 0.11482 0.35689 0.41203 0.0
C352 C 0.15544 0.36629 0.41571 0.0
C353 C 0.17838 0.39139 0.43823 0.0
C354 C 0.12181 0.39682 0.45377 0.0
C355 C 0.09799 0.37235 0.43146 0.0
H356 H 0.21075 0.40203 0.43864 0.0
H357 H 0.1099 0.41207 0.46653 0.0
H358 H 0.27972 0.51174 0.47755 0.0
H359 H 0.24046 0.53983 0.40174 0.0
H360 H 0.14618 0.3668 0.57842 0.0
H361 H 0.17013 0.35665 0.40027 0.0
H362 H 0.06717 0.36703 0.42874 0.0
C363 C 0.72286 0.18197 0.60871 0.0
C364 C 0.72179 0.2102 0.59087 0.0
N365 N 0.74827 0.2477 0.60079 0.0
N366 N 0.75069 0.20167 0.62935 0.0
C367 C 0.76518 0.24175 0.62422 0.0
H368 H 0.70447 0.14913 0.60685 0.0
Co369 Co 0.76265 0.17743 0.6597 0.0
C370 C 0.85282 0.21661 0.65293 0.0
O371 O 0.84955 0.18045 0.6553 0.0
N372 N 0.77228 0.15252 0.69159 0.0
C373 C 0.79511 0.13463 0.72958 0.0
C374 C 0.8052 0.1633 0.70841 0.0
C375 C 0.74199 0.11905 0.70454 0.0
N376 N 0.7552 0.1066 0.72698 0.0
O377 O 0.75054 0.20944 0.6853 0.0
H378 H 0.83453 0.19073 0.70627 0.0
H379 H 0.71061 0.10349 0.69721 0.0
O380 O 0.82101 0.2202 0.65639 0.0
C381 C 0.71153 0.19063 0.68643 0.0
O382 O 0.69126 0.15612 0.67237 0.0
N383 N 0.77021 0.1432 0.6335 0.0
C384 C 0.75664 0.09028 0.58821 0.0
C385 C 0.78364 0.13229 0.58528 0.0
C386 C 0.79022 0.15825 0.60828 0.0
C387 C 0.74659 0.10203 0.63704 0.0
C388 C 0.74058 0.07514 0.61508 0.0
H389 H 0.80784 0.19079 0.60469 0.0
H390 H 0.72875 0.08928 0.65575 0.0
H391 H 0.78754 0.26609 0.63746 0.0
H392 H 0.70238 0.20374 0.57243 0.0
H393 H 0.8154 0.13484 0.74591 0.0
H394 H 0.7966 0.14547 0.56487 0.0
H395 H 0.72031 0.04279 0.61855 0.0
H396 H 0.31779 0.21062 0.8523 0.0
H397 H 0.44881 0.27639 0.86743 0.0
H398 H 0.44232 0.3306 0.89216 0.0
H399 H 0.30676 0.30055 0.84057 0.0
H400 H 0.25784 0.27789 0.85811 0.0
H401 H 0.2735 0.24595 0.84007 0.0
H402 H 0.26237 0.20448 0.8862 0.0
H403 H 0.24692 0.23638 0.90443 0.0
H404 H 0.28841 0.2307 0.9182 0.0
H405 H 0.42014 0.37456 0.91903 0.0
H406 H 0.38492 0.40658 0.94306 0.0
H407 H 0.26887 0.31287 0.90911 0.0
C408 C 0.34528 0.23669 0.86044 0.0
C409 C 0.38387 0.23925 0.85785 0.0
C410 C 0.41898 0.27386 0.86894 0.0
C411 C 0.41555 0.30475 0.8831 0.0
C412 C 0.37688 0.30082 0.88574 0.0
C413 C 0.34244 0.26785 0.8744 0.0
C414 C 0.30424 0.27015 0.88074 0.0
C415 C 0.28443 0.27387 0.85323 0.0
C416 C 0.2737 0.23324 0.89845 0.0
C417 C 0.32238 0.30923 0.89785 0.0
C418 C 0.36431 0.32646 0.90057 0.0
C419 C 0.3874 0.36155 0.91674 0.0
C420 C 0.36713 0.37938 0.93046 0.0
C421 C 0.32421 0.36234 0.92782 0.0
C422 C 0.30177 0.32698 0.91107 0.0
H423 H 0.12439 0.31964 0.00587 0.0
H424 H 0.18442 0.44834 0.02762 0.0
H425 H 0.12214 0.43683 0.0526 0.0
H426 H 0.01988 0.3049 0.99649 0.0
H427 H 0.99603 0.25457 0.01188 0.0
H428 H 0.04357 0.27388 0.99286 0.0
H429 H 0.07634 0.26032 0.03679 0.0
H430 H 0.02917 0.24144 0.05605 0.0
H431 H 0.07584 0.28281 0.07037 0.0
H432 H 0.05666 0.40988 0.08025 0.0
H433 H 0.99081 0.37026 0.10544 0.0
H434 H 0.97241 0.25942 0.06507 0.0
C435 C 0.12415 0.34567 0.01521 0.0
C436 C 0.15945 0.38498 0.01463 0.0
C437 C 0.15784 0.418 0.02756 0.0
C438 C 0.12256 0.41174 0.04188 0.0
C439 C 0.08887 0.37237 0.04289 0.0
C440 C 0.08912 0.33998 0.02953 0.0
C441 C 0.04973 0.30029 0.03513 0.0
C442 C 0.02589 0.28236 0.00744 0.0
C443 C 0.05831 0.26941 0.0505 0.0
C444 C 0.02769 0.31523 0.05429 0.0
C445 C 0.05079 0.35693 0.05847 0.0
C446 C 0.03807 0.37733 0.0768 0.0
C447 C 1.00082 0.35456 0.09118 0.0
C448 C 0.97653 0.31185 0.08712 0.0
C449 C 0.99008 0.29212 0.06818 0.0
H450 H 0.77617 0.15695 0.20847 0.0
H451 H 0.81332 0.11522 0.13471 0.0
H452 H 0.77249 0.0441 0.15133 0.0
H453 H 0.78702 0.09419 0.25604 0.0
H454 H 0.74389 0.08342 0.27821 0.0
H455 H 0.76886 0.1301 0.25818 0.0
H456 H 0.70012 0.11252 0.23437 0.0
H457 H 0.67469 0.06589 0.2546 0.0
H458 H 0.6707 0.06425 0.21648 0.0
H459 H 0.73733 0.97986 0.1788 0.0
H460 H 0.70745 0.92541 0.21487 0.0
H461 H 0.69275 1.00698 0.27191 0.0
C462 C 0.7742 0.13258 0.19529 0.0
C463 C 0.79727 0.14142 0.16999 0.0
C464 C 0.79542 0.10898 0.1539 0.0
C465 C 0.77233 0.0685 0.1632 0.0
C466 C 0.75127 0.06083 0.18876 0.0
C467 C 0.75161 0.09183 0.20453 0.0
C468 C 0.72998 0.07561 0.23274 0.0
C469 C 0.75919 0.09711 0.25776 0.0
C470 C 0.69158 0.07981 0.23465 0.0
C471 C 0.71871 0.03107 0.23068 0.0
C472 C 0.73096 0.02326 0.20496 0.0
C473 C 0.72693 0.98539 0.1988 0.0
C474 C 0.71021 0.95473 0.21948 0.0
C475 C 0.6976 0.96189 0.24607 0.0
C476 C 0.70136 1.00044 0.25153 0.0
H477 H 0.68105 0.63064 0.39889 0.0
H478 H 0.77535 0.7343 0.44452 0.0
H479 H 0.7548 0.77978 0.4205 0.0
H480 H 0.68697 0.68142 0.33294 0.0
H481 H 0.6325 0.65491 0.32689 0.0
H482 H 0.65528 0.63072 0.34689 0.0
H483 H 0.60683 0.61971 0.389 0.0
H484 H 0.58364 0.6435 0.36902 0.0
H485 H 0.60496 0.66282 0.40359 0.0
H486 H 0.72695 0.81397 0.38937 0.0
H487 H 0.68722 0.83438 0.35909 0.0
H488 H 0.60499 0.70751 0.33701 0.0
C489 C 0.69708 0.66294 0.40375 0.0
C490 C 0.72984 0.67939 0.42335 0.0
C491 C 0.75017 0.72152 0.42958 0.0
C492 C 0.73883 0.74741 0.41593 0.0
C493 C 0.70661 0.73041 0.39647 0.0
C494 C 0.68543 0.68904 0.39078 0.0
C495 C 0.65062 0.67846 0.37004 0.0
C496 C 0.65672 0.6603 0.34256 0.0
C497 C 0.60905 0.64941 0.38374 0.0
C498 C 0.65565 0.72037 0.36486 0.0
C499 C 0.68862 0.74988 0.37998 0.0
C500 C 0.70051 0.79102 0.37797 0.0
C501 C 0.67742 0.80227 0.36081 0.0
C502 C 0.64194 0.77252 0.34638 0.0
C503 C 0.63154 0.73102 0.34801 0.0
H504 H 0.02394 0.69639 0.60328 0.0
H505 H 0.10627 0.78468 0.54201 0.0
H506 H 0.05083 0.75853 0.5067 0.0
H507 H 0.96469 0.61269 0.55115 0.0
H508 H 0.91676 0.59617 0.56906 0.0
H509 H 0.96388 0.61881 0.589 0.0
H510 H 0.94766 0.67282 0.60922 0.0
H511 H 0.90059 0.65038 0.58938 0.0
H512 H 0.9375 0.70378 0.58514 0.0
H513 H 0.98568 0.72923 0.47985 0.0
H514 H 0.91433 0.69715 0.46278 0.0
H515 H 0.87288 0.62445 0.53948 0.0
C516 C 0.03041 0.70949 0.58222 0.0
C517 C 0.06953 0.74282 0.57551 0.0
C518 C 0.07654 0.75961 0.54783 0.0
C519 C 0.04528 0.74471 0.5275 0.0
C520 C 1.00691 0.71262 0.53492 0.0
C521 C 0.99926 0.69489 0.5615 0.0
C522 C 0.95436 0.66242 0.56431 0.0
C523 C 0.94966 0.62 0.56864 0.0
C524 C 0.93383 0.673 0.58844 0.0
C525 C 0.93798 0.66559 0.53548 0.0
C526 C 0.96902 0.69465 0.51886 0.0
C527 C 0.96123 0.70579 0.4924 0.0
C528 C 0.92062 0.68742 0.48285 0.0
C529 C 0.88818 0.65785 0.49951 0.0
C530 C 0.89718 0.64615 0.52591 0.0
H531 H 0.32244 0.90381 0.68199 0.0
H532 H 0.19892 0.87998 0.66696 0.0
H533 H 0.21689 0.94643 0.68818 0.0
H534 H 0.3317 0.94771 0.75014 0.0
H535 H 0.38515 0.98532 0.74681 0.0
H536 H 0.3644 0.93798 0.72754 0.0
H537 H 0.39068 0.97795 0.68045 0.0
H538 H 0.41159 0.02545 0.69961 0.0
H539 H 0.37613 0.01515 0.6709 0.0
H540 H 0.24695 0.01404 0.71207 0.0
H541 H 0.28565 0.07646 0.74061 0.0
H542 H 0.38908 0.05608 0.74334 0.0
C543 C 0.29955 0.9131 0.68265 0.0
C544 C 0.25947 0.88708 0.67232 0.0
C545 C 0.2299 0.8996 0.67441 0.0
C546 C 0.23984 0.93734 0.68641 0.0
C547 C 0.27938 0.96213 0.69666 0.0
C548 C 0.30875 0.9505 0.6952 0.0
C549 C 0.34787 0.98154 0.71002 0.0
C550 C 0.35785 0.96196 0.73512 0.0
C551 C 0.38369 1.00119 0.68899 0.0
C552 C 0.33571 0.01216 0.72014 0.0
C553 C 0.29627 1.00056 0.71178 0.0
C554 C 0.27794 0.02355 0.71864 0.0
C555 C 0.30029 0.05915 0.73475 0.0
C556 C 0.34047 0.07137 0.7442 0.0
C557 C 0.35838 0.0475 0.73659 0.0
H558 H 0.81593 0.70861 0.97497 0.0
H559 H 0.73143 0.57806 0.97194 0.0
H560 H 0.67913 0.59091 0.95011 0.0
H561 H 0.74031 0.74111 0.98866 0.0
H562 H 0.76669 0.78527 0.96614 0.0
H563 H 0.79508 0.76567 0.98466 0.0
H564 H 0.82565 0.75954 0.93699 0.0
H565 H 0.79721 0.7788 0.91831 0.0
H566 H 0.79173 0.73025 0.9085 0.0
H567 H 0.63824 0.61859 0.9245 0.0
H568 H 0.61264 0.65787 0.89828 0.0
H569 H 0.72564 0.76982 0.91698 0.0
C570 C 0.78613 0.68261 0.9704 0.0
C571 C 0.77776 0.64226 0.97547 0.0
C572 C 0.7385 0.60925 0.96859 0.0
C573 C 0.70862 0.61629 0.9561 0.0
C574 C 0.71841 0.65649 0.95068 0.0
C575 C 0.75622 0.68907 0.9578 0.0
C576 C 0.76048 0.72917 0.94798 0.0
C577 C 0.76595 0.75694 0.97338 0.0
C578 C 0.79585 0.75068 0.92668 0.0
C579 C 0.71939 0.71417 0.93378 0.0
C580 C 0.69536 0.67222 0.9357 0.0
C581 C 0.65678 0.65147 0.92308 0.0
C582 C 0.64259 0.67411 0.908 0.0
C583 C 0.66697 0.71717 0.90545 0.0
C584 C 0.70574 0.73718 0.91886 0.0
H585 H 0.10572 0.80196 0.14975 0.0
H586 H 0.16784 0.7336 0.13332 0.0
H587 H 0.10853 0.68402 0.10484 0.0
H588 H 1.00044 0.71363 0.15305 0.0
H589 H 0.97943 0.74159 0.13568 0.0
H590 H 0.02445 0.76815 0.15754 0.0
H591 H 0.06313 0.81585 0.11538 0.0
H592 H 0.01856 0.7891 0.09326 0.0
H593 H 0.06655 0.79396 0.08226 0.0
H594 H 0.04506 0.64642 0.07339 0.0
H595 H 0.98144 0.62138 0.04536 0.0
H596 H 0.96221 0.71539 0.08237 0.0
C597 C 0.10652 0.77599 0.14082 0.0
C598 C 0.14145 0.77162 0.14396 0.0
C599 C 0.14129 0.73738 0.13158 0.0
C600 C 0.10779 0.70919 0.11519 0.0
C601 C 0.07455 0.71543 0.1116 0.0
C602 C 0.07349 0.74771 0.12448 0.0
C603 C 0.03546 0.7492 0.11616 0.0
C604 C 1.00834 0.74275 0.14216 0.0
C605 C 0.04661 0.78941 0.10086 0.0
C606 C 1.01552 0.7132 0.09611 0.0
C607 C 0.03839 0.69398 0.09373 0.0
C608 C 0.02678 0.66105 0.07537 0.0
C609 C 0.99078 0.64727 0.05929 0.0
C610 C 0.96672 0.66637 0.06165 0.0
C611 C 0.97952 0.69974 0.08039 0.0
H612 H 0.43992 0.12286 0.29936 0.0
H613 H 0.3414 0.13912 0.33164 0.0
H614 H 0.291 0.07617 0.3073 0.0
H615 H 0.3972 0.08898 0.23113 0.0
H616 H 0.41388 0.05212 0.22717 0.0
H617 H 0.44255 0.09638 0.24924 0.0
H618 H 0.43543 0.05006 0.29184 0.0
H619 H 0.40723 1.00565 0.26979 0.0
H620 H 0.38528 1.01037 0.30249 0.0
H621 H 0.25139 0.01324 0.2784 0.0
H622 H 0.22457 0.95309 0.24695 0.0
H623 H 0.3481 0.97795 0.23114 0.0
C624 C 0.40767 0.11252 0.3019 0.0
C625 C 0.39451 0.13567 0.31775 0.0
C626 C 0.35215 0.12185 0.3198 0.0
C627 C 0.32328 0.08611 0.306 0.0
C628 C 0.33723 0.06457 0.28998 0.0
C629 C 0.37837 0.07706 0.28788 0.0
C630 C 0.38511 0.04927 0.26804 0.0
C631 C 0.41123 0.07312 0.24238 0.0
C632 C 0.4044 0.02754 0.284 0.0
C633 C 0.34135 0.01939 0.25927 0.0
C634 C 0.31431 0.02876 0.27239 0.0
C635 C 0.27224 1.00556 0.26805 0.0
C636 C 0.25729 0.9715 0.25018 0.0
C637 C 0.2842 0.96101 0.23656 0.0
C638 C 0.32689 0.98562 0.24096 0.0
H639 H 0.23078 0.32183 0.48724 0.0
H640 H 0.30316 0.45064 0.46686 0.0
H641 H 0.35241 0.43732 0.44112 0.0
H642 H 0.31768 0.30176 0.49441 0.0
H643 H 0.28848 0.25203 0.4784 0.0
H644 H 0.2629 0.27303 0.49872 0.0
H645 H 0.21592 0.26303 0.45575 0.0
H646 H 0.24161 0.24255 0.43518 0.0
H647 H 0.23861 0.28582 0.42217 0.0
H648 H 0.38888 0.40783 0.41216 0.0
H649 H 0.4096 0.36582 0.38435 0.0
H650 H 0.31345 0.25674 0.42457 0.0
C651 C 0.2576 0.34753 0.47811 0.0
C652 C 0.26312 0.38737 0.47931 0.0
C653 C 0.2984 0.41992 0.4666 0.0
C654 C 0.32652 0.4126 0.45181 0.0
C655 C 0.31923 0.37264 0.45013 0.0
C656 C 0.28584 0.34076 0.46331 0.0
C657 C 0.28293 0.3002 0.45664 0.0
C658 C 0.28833 0.28061 0.48365 0.0
C659 C 0.24238 0.27122 0.44153 0.0
C660 C 0.31911 0.31394 0.43691 0.0
C661 C 0.34 0.35583 0.43358 0.0
C662 C 0.37308 0.37506 0.41502 0.0
C663 C 0.38475 0.35085 0.39931 0.0
C664 C 0.36327 0.3077 0.40205 0.0
C665 C 0.33048 0.28945 0.4216 0.0
H666 H 0.92651 0.21992 0.64651 0.0
H667 H 0.86503 0.28893 0.62993 0.0
H668 H 0.92517 0.33925 0.60259 0.0
H669 H 0.03071 0.30797 0.65301 0.0
H670 H 0.0533 0.2814 0.63584 0.0
H671 H 1.00696 0.25328 0.65609 0.0
H672 H 0.97129 0.20785 0.61231 0.0
H673 H 1.01729 0.23608 0.59182 0.0
H674 H 0.96992 0.23145 0.57942 0.0
H675 H 0.99005 0.37844 0.5729 0.0
H676 H 0.05559 0.40575 0.54704 0.0
H677 H 0.07428 0.31113 0.58365 0.0
C678 C 0.92592 0.24606 0.63766 0.0
C679 C 0.89098 0.25048 0.64054 0.0
C680 C 0.8915 0.28501 0.62834 0.0
C681 C 0.9255 0.31367 0.61261 0.0
C682 C 0.95892 0.30763 0.60948 0.0
C683 C 0.95955 0.27493 0.62205 0.0
C684 C 0.99838 0.27434 0.61473 0.0
C685 C 0.02385 0.27957 0.64151 0.0
C686 C 0.98861 0.23511 0.59861 0.0
C687 C 0.01935 0.31146 0.59571 0.0
C688 C 0.99614 0.33027 0.59285 0.0
C689 C 1.00858 0.36413 0.57526 0.0
C690 C 0.04572 0.37924 0.56044 0.0
C691 C 0.0702 0.36068 0.56335 0.0
C692 C 0.05662 0.32638 0.58132 0.0
H693 H 0.71922 0.90354 0.80224 0.0
H694 H 0.5894 0.86304 0.80382 0.0
H695 H 0.60408 0.93002 0.78475 0.0
H696 H 0.75606 1.01037 0.82128 0.0
H697 H 0.79949 0.02907 0.79789 0.0
H698 H 0.77884 0.97931 0.81382 0.0
H699 H 0.76982 0.94698 0.76401 0.0
H700 H 0.79031 0.99653 0.74794 0.0
H701 H 0.74061 0.95572 0.73747 0.0
H702 H 0.63306 1.00009 0.76179 0.0
H703 H 0.67349 0.06685 0.738 0.0
H704 H 0.7841 0.06091 0.75165 0.0
C705 C 0.69381 0.90884 0.79904 0.0
C706 C 0.65309 0.87794 0.80471 0.0
C707 C 0.62085 0.88623 0.79989 0.0
C708 C 0.62892 0.92422 0.78901 0.0
C709 C 0.66941 0.95373 0.78321 0.0
C710 C 0.70132 0.94648 0.78826 0.0
C711 C 0.74189 0.98235 0.77904 0.0
C712 C 0.77077 1.0014 0.80453 0.0
C713 C 0.76181 0.96962 0.75573 0.0
C714 C 0.72788 1.01079 0.76756 0.0
C715 C 0.686 0.99385 0.77023 0.0
C716 C 0.6659 0.01371 0.75985 0.0
C717 C 0.68911 0.05157 0.74622 0.0
C718 C 0.73206 0.06934 0.74303 0.0
C719 C 0.75153 0.04866 0.75423 0.0
H720 H 0.29406 0.72837 0.06819 0.0
H721 H 0.27121 0.71303 0.15875 0.0
H722 H 0.26585 0.64555 0.1564 0.0
H723 H 0.22548 0.6218 0.04883 0.0
H724 H 0.25907 0.62156 0.02179 0.0
H725 H 0.25927 0.66818 0.03009 0.0
H726 H 0.33728 0.70429 0.03978 0.0
H727 H 0.33731 0.65784 0.03143 0.0
H728 H 0.35683 0.68253 0.06511 0.0
H729 H 0.26728 0.58207 0.14524 0.0
H730 H 0.2744 0.52542 0.12539 0.0
H731 H 0.29505 0.5802 0.04196 0.0
C732 C 0.28783 0.71071 0.08746 0.0
C733 C 0.28264 0.72589 0.1136 0.0
C734 C 0.27443 0.70181 0.13838 0.0
C735 C 0.27155 0.66347 0.13731 0.0
C736 C 0.27675 0.64941 0.11127 0.0
C737 C 0.28459 0.67213 0.08674 0.0
C738 C 0.28988 0.65009 0.06165 0.0
C739 C 0.25642 0.6398 0.03927 0.0
C740 C 0.33288 0.67518 0.04874 0.0
C741 C 0.28444 0.61184 0.07606 0.0
C742 C 0.27686 0.61214 0.10469 0.0
C743 C 0.27279 0.58124 0.12281 0.0
C744 C 0.27699 0.54933 0.11142 0.0
C745 C 0.28488 0.54841 0.08221 0.0
C746 C 0.28814 0.57983 0.06426 0.0
H747 H 0.72444 0.26804 0.2033 0.0
H748 H 0.77081 0.26715 0.28728 0.0
H749 H 0.70848 0.26158 0.30854 0.0
H750 H 0.6825 0.32989 0.22041 0.0
H751 H 0.63783 0.30374 0.19816 0.0
H752 H 0.68398 0.30333 0.1891 0.0
H753 H 0.64417 0.22427 0.18847 0.0
H754 H 0.59775 0.22441 0.19725 0.0
H755 H 0.61489 0.19674 0.21913 0.0
H756 H 0.64476 0.26188 0.32084 0.0
H757 H 0.58218 0.266 0.32388 0.0
H758 H 0.57509 0.26568 0.23184 0.0
C759 C 0.72086 0.2656 0.2261 0.0
C760 C 0.75231 0.26788 0.24371 0.0
C761 C 0.74711 0.26565 0.2735 0.0
C762 C 0.7118 0.26234 0.28573 0.0
C763 C 0.68185 0.26126 0.26788 0.0
C764 C 0.68576 0.26255 0.23871 0.0
C765 C 0.64991 0.2632 0.22456 0.0
C766 C 0.66444 0.30237 0.20703 0.0
C767 C 0.62522 0.22487 0.20627 0.0
C768 C 0.62576 0.26283 0.25038 0.0
C769 C 0.6447 0.26145 0.27507 0.0
C770 C 0.62925 0.26235 0.30164 0.0
C771 C 0.59335 0.26456 0.30309 0.0
C772 C 0.57298 0.26588 0.27811 0.0
C773 C 0.58966 0.26489 0.2514 0.0
H774 H 0.45794 0.72656 0.35916 0.0
H775 H 0.50267 0.77711 0.44263 0.0
H776 H 0.44769 0.71425 0.46462 0.0
H777 H 0.35249 0.68077 0.37636 0.0
H778 H 0.33638 0.63614 0.35457 0.0
H779 H 0.3814 0.68339 0.34523 0.0
H780 H 0.42431 0.64717 0.34534 0.0
H781 H 0.37936 0.59972 0.3546 0.0
H782 H 0.42457 0.61956 0.37644 0.0
H783 H 0.38705 0.64772 0.47755 0.0
H784 H 0.32219 0.58262 0.48098 0.0
H785 H 0.3143 0.57487 0.38919 0.0
C786 C 0.4564 0.72389 0.38204 0.0
C787 C 0.48455 0.75641 0.39931 0.0
C788 C 0.48124 0.75248 0.42915 0.0
C789 C 0.45029 0.71687 0.44177 0.0
C790 C 0.42264 0.68556 0.42423 0.0
C791 C 0.42518 0.68868 0.39501 0.0
C792 C 0.38984 0.65153 0.38118 0.0
C793 C 0.36347 0.6637 0.36328 0.0
C794 C 0.40547 0.62811 0.36334 0.0
C795 C 0.36691 0.62732 0.40719 0.0
C796 C 0.38675 0.64736 0.43176 0.0
C797 C 0.37138 0.63154 0.45848 0.0
C798 C 0.33459 0.59435 0.4602 0.0
C799 C 0.31325 0.57338 0.43536 0.0
C800 C 0.32986 0.5902 0.40852 0.0
H801 H 0.75855 0.46305 0.59988 0.0
H802 H 0.76838 0.46067 0.50832 0.0
H803 H 0.77166 0.39753 0.51171 0.0
H804 H 0.82665 0.42182 0.61609 0.0
H805 H 0.79606 0.39194 0.64561 0.0
H806 H 0.79756 0.43893 0.63637 0.0
H807 H 0.71852 0.40027 0.63212 0.0
H808 H 0.71678 0.35321 0.64129 0.0
H809 H 0.69356 0.35681 0.6088 0.0
H810 H 0.76701 0.33146 0.52414 0.0
H811 H 0.7583 0.26785 0.54553 0.0
H812 H 0.7538 0.31276 0.62912 0.0
C813 C 0.76184 0.44943 0.58062 0.0
C814 C 0.76369 0.46723 0.55387 0.0
C815 C 0.76786 0.44836 0.52911 0.0
C816 C 0.76947 0.41222 0.53078 0.0
C817 C 0.7672 0.39532 0.55739 0.0
C818 C 0.76384 0.41338 0.58192 0.0
C819 C 0.76062 0.38795 0.60774 0.0
C820 C 0.79742 0.41158 0.62762 0.0
C821 C 0.71995 0.37372 0.6234 0.0
C822 C 0.7618 0.35242 0.59375 0.0
C823 C 0.76558 0.35736 0.56467 0.0
C824 C 0.76467 0.3275 0.54691 0.0
C825 C 0.75957 0.29149 0.55916 0.0
C826 C 0.75586 0.28582 0.58886 0.0
C827 C 0.75747 0.31689 0.60639 0.0
H828 H 0.26964 0.68559 0.72777 0.0
H829 H 0.31466 0.8157 0.72363 0.0
H830 H 0.38326 0.82932 0.7388 0.0
H831 H 0.32816 0.68691 0.78912 0.0
H832 H 0.33746 0.64781 0.77538 0.0
H833 H 0.29179 0.64864 0.76532 0.0
H834 H 0.31057 0.6503 0.71232 0.0
H835 H 0.35635 0.64961 0.72221 0.0
H836 H 0.3597 0.68984 0.69986 0.0
H837 H 0.44702 0.82833 0.75513 0.0
H838 H 0.5014 0.81281 0.76847 0.0
H839 H 0.41489 0.68347 0.76001 0.0
C840 C 0.29381 0.71692 0.73042 0.0
C841 C 0.2868 0.74964 0.72476 0.0
C842 C 0.31947 0.79024 0.7278 0.0
C843 C 0.35844 0.79823 0.73651 0.0
C844 C 0.36436 0.76525 0.74182 0.0
C845 C 0.33298 0.7254 0.7387 0.0
C846 C 0.34765 0.69542 0.74465 0.0
C847 C 0.32491 0.66809 0.77013 0.0
C848 C 0.34331 0.66979 0.71818 0.0
C849 C 0.39218 0.72458 0.75162 0.0
C850 C 0.4012 0.76473 0.75015 0.0
C851 C 0.44029 0.79699 0.75624 0.0
C852 C 0.47094 0.78794 0.76389 0.0
C853 C 0.46247 0.74702 0.76504 0.0
C854 C 0.42248 0.71507 0.75884 0.0
H855 H 0.72161 0.44859 0.89018 0.0
H856 H 0.7211 0.43786 0.98171 0.0
H857 H 0.6581 0.37059 0.97891 0.0
H858 H 0.61037 0.39993 0.88198 0.0
H859 H 0.60975 0.37477 0.84939 0.0
H860 H 0.65403 0.42277 0.85868 0.0
H861 H 0.69982 0.38994 0.85392 0.0
H862 H 0.65569 0.34184 0.84472 0.0
H863 H 0.68762 0.3448 0.87414 0.0
H864 H 0.59867 0.3022 0.96592 0.0
H865 H 0.54325 0.2395 0.94369 0.0
H866 H 0.5799 0.29572 0.86089 0.0
C867 C 0.70798 0.43211 0.90958 0.0
C868 C 0.72607 0.44844 0.93616 0.0
C869 C 0.70738 0.42617 0.96117 0.0
C870 C 0.67176 0.38784 0.95978 0.0
C871 C 0.65489 0.37242 0.93323 0.0
C872 C 0.67204 0.39404 0.90859 0.0
C873 C 0.64781 0.37042 0.88277 0.0
C874 C 0.6294 0.39334 0.8673 0.0
C875 C 0.67432 0.36121 0.86271 0.0
C876 C 0.61483 0.33188 0.89672 0.0
C877 C 0.61963 0.33357 0.92583 0.0
C878 C 0.59426 0.30072 0.94318 0.0
C879 C 0.56308 0.26525 0.93044 0.0
C880 C 0.55725 0.26313 0.90072 0.0
C881 C 0.58334 0.29699 0.88372 0.0
H882 H 0.39049 0.32908 0.21551 0.0
H883 H 0.28376 0.21095 0.23185 0.0
H884 H 0.25087 0.21798 0.18828 0.0
H885 H 0.33727 0.37863 0.18785 0.0
H886 H 0.37595 0.40697 0.16164 0.0
H887 H 0.38977 0.39261 0.19445 0.0
H888 H 0.42196 0.35673 0.16631 0.0
H889 H 0.40792 0.37067 0.13341 0.0
H890 H 0.39128 0.31786 0.14075 0.0
H891 H 0.22981 0.23925 0.14281 0.0
H892 H 0.22355 0.27184 0.09881 0.0
H893 H 0.34544 0.37443 0.11279 0.0
C894 C 0.35995 0.30494 0.21014 0.0
C895 C 0.33938 0.26969 0.22709 0.0
C896 C 0.2999 0.23823 0.21905 0.0
C897 C 0.28103 0.24201 0.19444 0.0
C898 C 0.30232 0.27723 0.1781 0.0
C899 C 0.34098 0.30803 0.18564 0.0
C900 C 0.35802 0.3423 0.16425 0.0
C901 C 0.36569 0.38249 0.17787 0.0
C902 C 0.3971 0.34715 0.15036 0.0
C903 C 0.32293 0.3261 0.14344 0.0
C904 C 0.2909 0.28867 0.15176 0.0
C905 C 0.25482 0.26842 0.13601 0.0
C906 C 0.25149 0.28706 0.11114 0.0
C907 C 0.28428 0.3252 0.10227 0.0
C908 C 0.32029 0.34477 0.11871 0.0
H909 H 0.07518 0.38169 0.37622 0.0
H910 H 0.10331 0.28487 0.3894 0.0
H911 H 0.06405 0.25005 0.34594 0.0
H912 H 0.97286 0.31951 0.35033 0.0
H913 H 0.97718 0.35696 0.32482 0.0
H914 H 1.00676 0.37308 0.35703 0.0
H915 H 0.07337 0.41242 0.32761 0.0
H916 H 0.04401 0.39634 0.29531 0.0
H917 H 0.08505 0.38569 0.3009 0.0
H918 H 0.01919 0.22529 0.30124 0.0
H919 H 0.97713 0.21545 0.25817 0.0
H920 H 0.98197 0.33049 0.27488 0.0
C921 C 0.07273 0.35293 0.37013 0.0
C922 C 0.09167 0.33555 0.38624 0.0
C923 C 0.08877 0.29847 0.37726 0.0
C924 C 0.06651 0.27853 0.35273 0.0
C925 C 0.04791 0.29646 0.33738 0.0
C926 C 0.05117 0.33303 0.34571 0.0
C927 C 0.02951 0.34679 0.3254 0.0
C928 C 0.9945 0.3492 0.34029 0.0
C929 C 0.0598 0.38773 0.31148 0.0
C930 C 1.01332 0.31223 0.30428 0.0
C931 C 0.02384 0.28322 0.31152 0.0
C932 C 1.01111 0.24802 0.29528 0.0
C933 C 0.98725 0.24261 0.27097 0.0
C934 C 0.97704 0.27255 0.2631 0.0
C935 C 0.99015 0.30756 0.2801 0.0
H936 H 0.75152 1.00289 0.43172 0.0
H937 H 0.62228 0.92027 0.44653 0.0
H938 H 0.62823 0.95015 0.49393 0.0
H939 H 0.78429 0.99901 0.50307 0.0
H940 H 0.82328 0.05212 0.50433 0.0
H941 H 0.80922 0.02549 0.47091 0.0
H942 H 0.79344 0.07974 0.45041 0.0
H943 H 0.80759 0.10661 0.48374 0.0
H944 H 0.75789 0.09051 0.46863 0.0
H945 H 0.64679 0.98777 0.53845 0.0
H946 H 0.67729 0.03167 0.57982 0.0
H947 H 0.79643 0.08933 0.53887 0.0
C948 C 0.72467 0.99149 0.44505 0.0
C949 C 0.68645 0.95939 0.43584 0.0
C950 C 0.65176 0.94477 0.45356 0.0
C951 C 0.65483 0.96154 0.48039 0.0
C952 C 0.69289 0.99278 0.48915 0.0
C953 C 0.72729 1.00774 0.47222 0.0
C954 C 0.76449 0.04106 0.48748 0.0
C955 C 0.79725 0.02866 0.4917 0.0
C956 C 0.78187 0.0819 0.47161 0.0
C957 C 0.74539 0.0423 0.5155 0.0
C958 C 0.70405 0.01417 0.51575 0.0
C959 C 0.67925 1.00959 0.53876 0.0
C960 C 0.69711 0.03445 0.56235 0.0
C961 C 0.7396 0.06334 0.56304 0.0
C962 C 0.76399 0.06738 0.53913 0.0
H963 H 0.76424 0.72982 0.60244 0.0
H964 H 0.69888 0.5978 0.60896 0.0
H965 H 0.67106 0.60198 0.65528 0.0
H966 H 0.7885 0.75008 0.67893 0.0
H967 H 0.78094 0.79353 0.67939 0.0
H968 H 0.79836 0.78075 0.6475 0.0
H969 H 0.73758 0.77775 0.61979 0.0
H970 H 0.71977 0.79017 0.65162 0.0
H971 H 0.68607 0.74457 0.63206 0.0
H972 H 0.6463 0.61893 0.69792 0.0
H973 H 0.62771 0.64806 0.73767 0.0
H974 H 0.70963 0.77032 0.70599 0.0
C975 C 0.74464 0.70206 0.61402 0.0
C976 C 0.73359 0.66345 0.60247 0.0
C977 C 0.70751 0.62753 0.61773 0.0
C978 C 0.69164 0.62962 0.64395 0.0
C979 C 0.70226 0.66792 0.65463 0.0
C980 C 0.72832 0.7036 0.64044 0.0
C981 C 0.73331 0.74054 0.65666 0.0
C982 C 0.77793 0.76784 0.66619 0.0
C983 C 0.71828 0.76467 0.63897 0.0
C984 C 0.70542 0.7198 0.68181 0.0
C985 C 0.68808 0.67793 0.68004 0.0
C986 C 0.66023 0.65172 0.69992 0.0
C987 C 0.65009 0.66867 0.72256 0.0
C988 C 0.66798 0.71157 0.72542 0.0
C989 C 0.69574 0.73747 0.70452 0.0
H990 H 0.05186 0.6877 0.76785 0.0
H991 H 0.0555 0.80229 0.75155 0.0
H992 H 1.01311 0.79174 0.7943 0.0
H993 H 0.94835 0.63163 0.7949 0.0
H994 H 0.96104 0.60549 0.82149 0.0
H995 H 0.98952 0.62132 0.78886 0.0
H996 H 0.05699 0.66134 0.81739 0.0
H997 H 0.02871 0.64584 0.85009 0.0
H998 H 0.06206 0.69928 0.84273 0.0
H999 H 0.96968 0.76774 0.83894 0.0
H1000 H 0.93224 0.73431 0.88311 0.0
H1001 H 0.96088 0.63769 0.87085 0.0
C1002 C 0.04317 0.71023 0.77308 0.0
C1003 C 0.05634 0.74552 0.75633 0.0
C1004 C 0.04542 0.77496 0.76415 0.0
C1005 C 0.02136 0.76917 0.7883 0.0
C1006 C 1.00902 0.73405 0.80449 0.0
C1007 C 0.01981 0.70524 0.79726 0.0
C1008 C 1.00441 0.67113 0.81881 0.0
C1009 C 0.97402 0.62997 0.8052 0.0
C1010 C 0.04018 0.66932 0.8331 0.0
C1011 C 0.98321 0.68515 0.83934 0.0
C1012 C 0.98578 0.72127 0.83063 0.0
C1013 C 0.96767 0.73957 0.84602 0.0
C1014 C 0.94648 0.72043 0.87099 0.0
C1015 C 0.94421 0.68382 0.88042 0.0
C1016 C 0.9628 0.66608 0.86433 0.0
H1017 H 0.26995 0.98252 0.0556 0.0
H1018 H 0.27743 0.876 0.03046 0.0
H1019 H 0.2968 0.90358 0.9822 0.0
H1020 H 0.22821 0.99406 0.98735 0.0
H1021 H 0.25696 0.04904 0.98855 0.0
H1022 H 0.24133 0.02011 0.02103 0.0
H1023 H 0.31672 0.05659 0.03808 0.0
H1024 H 0.33259 0.08546 0.00562 0.0
H1025 H 0.3551 0.05516 0.01615 0.0
H1026 H 0.32236 0.94482 0.93907 0.0
H1027 H 0.34818 0.99541 0.90123 0.0
H1028 H 0.31828 0.07384 0.9512 0.0
C1029 C 0.27519 0.96493 0.03975 0.0
C1030 C 0.2717 0.9269 0.0466 0.0
C1031 C 0.27911 0.90478 0.02548 0.0
C1032 C 0.29034 0.92027 0.99805 0.0
C1033 C 0.29366 0.95777 0.99195 0.0
C1034 C 0.28589 0.97972 0.01196 0.0
C1035 C 0.29255 0.01966 -0.00042 0.0
C1036 C 0.25236 0.02076 0.9991 0.0
C1037 C 0.32625 0.05638 0.01583 0.0
C1038 C 0.30628 0.017 0.9698 0.0
C1039 C 0.30671 0.98103 0.96606 0.0
C1040 C 0.32102 0.97261 0.94134 0.0
C1041 C 0.33524 1.00165 0.91969 0.0
C1042 C 0.33436 0.03865 0.92244 0.0
C1043 C 0.31939 0.04608 0.94801 0.0
H1044 H 0.34043 0.52241 0.93225 0.0
H1045 H 0.38036 0.59548 0.00861 0.0
H1046 H 0.42204 0.65747 0.97997 0.0
H1047 H 0.43312 0.5648 0.9029 0.0
H1048 H 0.41792 0.56343 0.86648 0.0
H1049 H 0.38225 0.52762 0.89147 0.0
H1050 H 0.3303 0.55132 0.87943 0.0
H1051 H 0.36586 0.5872 0.85411 0.0
H1052 H 0.34574 0.60468 0.882 0.0
H1053 H 0.46921 0.70852 0.94437 0.0
H1054 H 0.51937 0.74247 0.90561 0.0
H1055 H 0.45106 0.63538 0.85295 0.0
C1056 C 0.35631 0.55187 0.94265 0.0
C1057 C 0.35661 0.55466 0.9724 0.0
C1058 C 0.37936 0.59315 0.98569 0.0
C1059 C 0.40298 0.62847 0.96959 0.0
C1060 C 0.40374 0.62465 0.94023 0.0
C1061 C 0.38079 0.58726 0.92685 0.0
C1062 C 0.39232 0.58984 0.8959 0.0
C1063 C 0.40731 0.55966 0.88881 0.0
C1064 C 0.35641 0.58286 0.87673 0.0
C1065 C 0.42678 0.6337 0.89436 0.0
C1066 C 0.43218 0.65376 0.91985 0.0
C1067 C 0.4647 0.69342 0.92411 0.0
C1068 C 0.49302 0.71255 0.90203 0.0
C1069 C 0.48893 0.69152 0.87639 0.0
C1070 C 0.45471 0.65223 0.87233 0.0
H1071 H 0.89759 0.51376 0.04668 0.0
H1072 H 0.76734 0.4639 0.03439 0.0
H1073 H 0.75363 0.40536 0.06576 0.0
H1074 H 0.89816 0.42144 0.04508 0.0
H1075 H 0.93722 0.43642 0.07186 0.0
H1076 H 0.93573 0.47456 0.04988 0.0
H1077 H 0.93223 0.51273 0.09453 0.0
H1078 H 0.93435 0.47503 0.11668 0.0
H1079 H 0.89288 0.48544 0.12056 0.0
H1080 H 0.75627 0.34885 0.09634 0.0
H1081 H 0.77459 0.30585 0.12613 0.0
H1082 H 0.90291 0.39671 0.11764 0.0
C1083 C 0.86609 0.49076 0.0508 0.0
C1084 C 0.83349 0.49314 0.03819 0.0
C1085 C 0.79271 0.46267 0.04417 0.0
C1086 C 0.78474 0.42927 0.06175 0.0
C1087 C 0.81794 0.42736 0.07333 0.0
C1088 C 0.85776 0.45788 0.06833 0.0
C1089 C 0.88845 0.44947 0.08283 0.0
C1090 C 0.91652 0.44521 0.06111 0.0
C1091 C 0.91343 0.48263 0.10497 0.0
C1092 C 0.85994 0.40916 0.09669 0.0
C1093 C 0.81934 0.39637 0.09097 0.0
C1094 C 0.78799 0.35895 0.1011 0.0
C1095 C 0.7986 0.3346 0.11782 0.0
C1096 C 0.8401 0.34816 0.12435 0.0
C1097 C 0.87084 0.38572 0.11337 0.0
H1098 H 0.5312 0.90517 0.26911 0.0
H1099 H 0.4862 0.77727 0.28678 0.0
H1100 H 0.42107 0.75947 0.26184 0.0
H1101 H 0.44016 0.90498 0.28159 0.0
H1102 H 0.44772 0.94074 0.25376 0.0
H1103 H 0.49121 0.94221 0.27067 0.0
H1104 H 0.51826 0.93398 0.22201 0.0
H1105 H 0.47532 0.93343 0.20485 0.0
H1106 H 0.48517 0.89197 0.19926 0.0
H1107 H 0.35797 0.75794 0.23704 0.0
H1108 H 0.30842 0.77224 0.21178 0.0
H1109 H 0.39787 0.90145 0.21276 0.0
C1110 C 0.50794 0.87327 0.26736 0.0
C1111 C 0.51364 0.84255 0.27972 0.0
C1112 C 0.48254 0.8012 0.27703 0.0
C1113 C 0.44539 0.79094 0.26316 0.0
C1114 C 0.44027 0.82244 0.25203 0.0
C1115 C 0.47122 0.86271 0.25372 0.0
C1116 C 0.45882 0.89143 0.24083 0.0
C1117 C 0.45951 0.92159 0.26305 0.0
C1118 C 0.48599 0.91401 0.21522 0.0
C1119 C 0.41572 0.86132 0.23181 0.0
C1120 C 0.40512 0.82159 0.23832 0.0
C1121 C 0.36622 0.78899 0.23181 0.0
C1122 C 0.33813 0.79736 0.21773 0.0
C1123 C 0.34931 0.83794 0.21036 0.0
C1124 C 0.38837 0.87005 0.21799 0.0
H1125 H 0.50865 0.33176 0.41161 0.0
H1126 H 0.58364 0.32928 0.34334 0.0
H1127 H 0.64619 0.37536 0.37044 0.0
H1128 H 0.56312 0.43214 0.42263 0.0
H1129 H 0.55805 0.43179 0.46063 0.0
H1130 H 0.5199 0.39037 0.43996 0.0
H1131 H 0.5307 0.33846 0.46917 0.0
H1132 H 0.56854 0.37977 0.49041 0.0
H1133 H 0.58141 0.34543 0.47273 0.0
H1134 H 0.69982 0.43211 0.4008 0.0
H1135 H 0.73876 0.49244 0.4319 0.0
H1136 H 0.62797 0.45827 0.47953 0.0
C1137 C 0.53829 0.33907 0.40328 0.0
C1138 C 0.54166 0.32581 0.37608 0.0
C1139 C 0.58075 0.33794 0.36473 0.0
C1140 C 0.61637 0.36431 0.37991 0.0
C1141 C 0.61224 0.37839 0.40633 0.0
C1142 C 0.57406 0.3657 0.41809 0.0
C1143 C 0.5775 0.38962 0.44464 0.0
C1144 C 0.55323 0.41231 0.44176 0.0
C1145 C 0.56373 0.36165 0.47079 0.0
C1146 C 0.62315 0.41902 0.44523 0.0
C1147 C 0.64294 0.41174 0.42335 0.0
C1148 C 0.68475 0.43751 0.41839 0.0
C1149 C 0.70664 0.47175 0.43607 0.0
C1150 C 0.68646 0.48008 0.45811 0.0
C1151 C 0.64443 0.45274 0.46295 0.0
H1152 H 0.14947 0.54126 0.52036 0.0
H1153 H 0.26529 0.55276 0.54592 0.0
H1154 H 0.28085 0.61481 0.57376 0.0
H1155 H 0.18389 0.64917 0.51385 0.0
H1156 H 0.1365 0.64292 0.52752 0.0
H1157 H 0.13677 0.60188 0.50831 0.0
H1158 H 0.10201 0.55297 0.55078 0.0
H1159 H 0.10109 0.59362 0.56986 0.0
H1160 H 0.12512 0.56729 0.58543 0.0
H1161 H 0.2808 0.67484 0.60096 0.0
H1162 H 0.26221 0.72032 0.62731 0.0
H1163 H 0.14645 0.66633 0.58276 0.0
C1164 C 0.17841 0.55685 0.53153 0.0
C1165 C 0.20624 0.54218 0.53089 0.0
C1166 C 0.24348 0.56344 0.54615 0.0
C1167 C 0.25263 0.59884 0.56183 0.0
C1168 C 0.22429 0.61248 0.56184 0.0
C1169 C 0.18784 0.59174 0.54709 0.0
C1170 C 0.16089 0.61023 0.55158 0.0
C1171 C 0.15414 0.62705 0.52365 0.0
C1172 C 0.11989 0.57919 0.56524 0.0
C1173 C 0.18725 0.64428 0.57176 0.0
C1174 C 0.22409 0.64587 0.57722 0.0
C1175 C 0.25225 0.67404 0.59649 0.0
C1176 C 0.24172 0.70002 0.61116 0.0
C1177 C 0.20322 0.69703 0.6066 0.0
C1178 C 0.17636 0.66958 0.5862 0.0
H1179 H 0.6316 0.16575 0.67919 0.0
H1180 H 0.73745 0.24961 0.72873 0.0
H1181 H 0.69313 0.26741 0.7573 0.0
H1182 H 0.57595 0.22398 0.68167 0.0
H1183 H 0.52739 0.17745 0.68435 0.0
H1184 H 0.56881 0.17801 0.66494 0.0
H1185 H 0.56284 0.1186 0.69598 0.0
H1186 H 0.52146 0.11774 0.71524 0.0
H1187 H 0.56595 0.12413 0.73401 0.0
H1188 H 0.63405 0.26775 0.78453 0.0
H1189 H 0.56807 0.24728 0.80868 0.0
H1190 H 0.50303 0.16176 0.74112 0.0
C1191 C 0.64586 0.18854 0.69567 0.0
C1192 C 0.68795 0.20624 0.70182 0.0
C1193 C 0.70525 0.23586 0.72358 0.0
C1194 C 0.6803 0.24618 0.7398 0.0
C1195 C 0.63842 0.22702 0.73362 0.0
C1196 C 0.6216 0.19895 0.71185 0.0
C1197 C 0.57552 0.1788 0.71109 0.0
C1198 C 0.56108 0.19026 0.68389 0.0
C1199 C 0.5553 0.13209 0.7143 0.0
C1200 C 0.56844 0.19816 0.73678 0.0
C1201 C 0.60494 0.22682 0.74917 0.0
C1202 C 0.60544 0.24606 0.7746 0.0
C1203 C 0.5679 0.23454 0.78808 0.0
C1204 C 0.53077 0.20365 0.77627 0.0
C1205 C 0.53109 0.18624 0.75003 0.0
loop_
_geom_bond_atom_site_label_1
_geom_bond_atom_site_label_2
_geom_bond_distance
_geom_bond_site_symmetry_2
_ccdc_geom_bond_type
C0 C1 1.351 . S
C0 N3 1.368 . S
C0 H5 0.931 . S
C1 C0 1.351 . S
C1 N2 1.373 . S
C1 H29 0.930 . S
N2 C1 1.373 . S
N2 C4 1.340 . S
N3 C0 1.368 . S
N3 C4 1.321 . S
N3 Co6 2.135 1_554 S
C4 N2 1.340 . S
C4 N3 1.321 . S
C4 H28 0.930 . S
H5 C0 0.931 . S
Co6 N3 2.135 1_556 S
Co6 N9 2.121 . S
Co6 O14 2.055 . S
Co6 O17 2.039 . S
Co6 N20 2.140 1_556 S
C7 O8 1.227 . S
C7 O17 1.265 1_554 S
O8 C7 1.227 . S
N9 Co6 2.121 . S
N9 C11 1.375 . S
N9 C12 1.313 . S
C10 C11 1.338 . S
C10 N13 1.377 . S
C10 H30 0.930 . S
C11 N9 1.375 . S
C11 C10 1.338 . S
C11 H15 0.931 1_556 S
C12 N9 1.313 . S
C12 N13 1.344 . S
C12 H16 0.930 . S
N13 C10 1.377 . S
N13 C12 1.344 . S
O14 Co6 2.055 . S
O14 C18 1.253 . S
H15 C11 0.931 1_554 S
H16 C12 0.930 . S
O17 Co6 2.039 . S
O17 C7 1.265 1_556 S
C18 O14 1.253 . S
C18 O19 1.227 . S
O19 C18 1.227 . S
N20 Co6 2.140 1_554 S
N20 C23 1.346 . S
N20 C24 1.345 . S
C21 C22 1.387 . S
C21 C25 1.391 . S
C22 C21 1.387 . S
C22 C23 1.369 . S
C22 H31 0.929 . S
C23 N20 1.346 . S
C23 C22 1.369 . S
C23 H26 0.928 . S
C24 N20 1.345 . S
C24 C25 1.371 . S
C24 H27 0.931 . S
C25 C21 1.391 . S
C25 C24 1.371 . S
C25 H32 0.930 . S
H26 C23 0.928 . S
H27 C24 0.931 . S
H28 C4 0.930 . S
H29 C1 0.930 . S
H30 C10 0.930 . S
H31 C22 0.929 . S
H32 C25 0.930 . S
C33 C34 1.351 . S
C33 N36 1.368 . S
C33 H38 0.931 . S
C34 C33 1.351 . S
C34 N35 1.373 . S
C34 H62 0.930 . S
N35 C34 1.373 . S
N35 C37 1.340 . S
N36 C33 1.368 . S
N36 C37 1.321 . S
N36 Co39 2.135 . S
C37 N35 1.340 . S
C37 N36 1.321 . S
C37 H61 0.930 . S
H38 C33 0.931 . S
Co39 N36 2.135 . S
Co39 N42 2.121 . S
Co39 O47 2.055 . S
Co39 O50 2.039 . S
Co39 N53 2.140 . S
C40 O41 1.227 . S
C40 O50 1.265 . S
O41 C40 1.227 . S
N42 Co39 2.121 . S
N42 C44 1.375 . S
N42 C45 1.313 . S
C43 C44 1.338 . S
C43 N46 1.377 . S
C43 H63 0.930 . S
C44 N42 1.375 . S
C44 C43 1.338 . S
C44 H48 0.931 . S
C45 N42 1.313 . S
C45 N46 1.344 . S
C45 H49 0.930 . S
N46 C43 1.377 . S
N46 C45 1.344 . S
O47 Co39 2.055 . S
O47 C51 1.253 . S
H48 C44 0.931 . S
H49 C45 0.930 . S
O50 Co39 2.039 . S
O50 C40 1.265 . S
C51 O47 1.253 . S
C51 O52 1.227 . S
O52 C51 1.227 . S
N53 Co39 2.140 . S
N53 C56 1.346 . S
N53 C57 1.345 . S
C54 C55 1.387 . S
C54 C58 1.391 . S
C55 C54 1.387 . S
C55 C56 1.369 . S
C55 H64 0.929 . S
C56 N53 1.346 . S
C56 C55 1.369 . S
C56 H59 0.928 . S
C57 N53 1.345 . S
C57 C58 1.371 . S
C57 H60 0.931 . S
C58 C54 1.391 . S
C58 C57 1.371 . S
C58 H65 0.930 . S
H59 C56 0.928 . S
H60 C57 0.931 . S
H61 C37 0.930 . S
H62 C34 0.930 . S
H63 C43 0.930 . S
H64 C55 0.929 . S
H65 C58 0.930 . S
C66 C67 1.351 . S
C66 N69 1.368 . S
C66 H71 0.931 . S
C67 C66 1.351 . S
C67 N68 1.373 . S
C67 H95 0.930 . S
N68 C67 1.373 . S
N68 C70 1.340 . S
N69 C66 1.368 . S
N69 C70 1.321 . S
N69 Co72 2.135 . S
C70 N68 1.340 . S
C70 N69 1.321 . S
C70 H94 0.930 . S
H71 C66 0.931 . S
Co72 N69 2.135 . S
Co72 N75 2.121 . S
Co72 O80 2.055 . S
Co72 O83 2.039 . S
Co72 N86 2.140 . S
C73 O74 1.227 . S
C73 O83 1.265 . S
O74 C73 1.227 . S
N75 Co72 2.121 . S
N75 C77 1.375 . S
N75 C78 1.313 . S
C76 C77 1.338 . S
C76 N79 1.377 . S
C76 H96 0.930 . S
C77 N75 1.375 . S
C77 C76 1.338 . S
C77 H81 0.931 . S
C78 N75 1.313 . S
C78 N79 1.344 . S
C78 H82 0.930 . S
N79 C76 1.377 . S
N79 C78 1.344 . S
O80 Co72 2.055 . S
O80 C84 1.253 . S
H81 C77 0.931 . S
H82 C78 0.930 . S
O83 Co72 2.039 . S
O83 C73 1.265 . S
C84 O80 1.253 . S
C84 O85 1.227 . S
O85 C84 1.227 . S
N86 Co72 2.140 . S
N86 C89 1.346 . S
N86 C90 1.345 . S
C87 C88 1.387 . S
C87 C91 1.391 . S
C88 C87 1.387 . S
C88 C89 1.369 . S
C88 H97 0.929 . S
C89 N86 1.346 . S
C89 C88 1.369 . S
C89 H92 0.928 . S
C90 N86 1.345 . S
C90 C91 1.371 . S
C90 H93 0.931 . S
C91 C87 1.391 . S
C91 C90 1.371 . S
C91 H98 0.930 . S
H92 C89 0.928 . S
H93 C90 0.931 . S
H94 C70 0.930 . S
H95 C67 0.930 . S
H96 C76 0.930 . S
H97 C88 0.929 . S
H98 C91 0.930 . S
C99 C100 1.351 . S
C99 N102 1.368 . S
C99 H104 0.931 . S
C100 C99 1.351 . S
C100 N101 1.373 . S
C100 H128 0.930 . S
N101 C100 1.373 . S
N101 C103 1.340 . S
N102 C99 1.368 . S
N102 C103 1.321 . S
N102 Co105 2.135 . S
C103 N101 1.340 . S
C103 N102 1.321 . S
C103 H127 0.930 . S
H104 C99 0.931 . S
Co105 N102 2.135 . S
Co105 N108 2.121 . S
Co105 O113 2.055 . S
Co105 O116 2.039 . S
Co105 N119 2.140 . S
C106 O107 1.227 . S
C106 O116 1.265 . S
O107 C106 1.227 . S
N108 Co105 2.121 . S
N108 C110 1.375 . S
N108 C111 1.313 . S
C109 C110 1.338 . S
C109 N112 1.377 . S
C109 H129 0.930 . S
C110 N108 1.375 . S
C110 C109 1.338 . S
C110 H114 0.931 . S
C111 N108 1.313 . S
C111 N112 1.344 . S
C111 H115 0.930 . S
N112 C109 1.377 . S
N112 C111 1.344 . S
O113 Co105 2.055 . S
O113 C117 1.253 . S
H114 C110 0.931 . S
H115 C111 0.930 . S
O116 Co105 2.039 . S
O116 C106 1.265 . S
C117 O113 1.253 . S
C117 O118 1.227 . S
O118 C117 1.227 . S
N119 Co105 2.140 . S
N119 C122 1.346 . S
N119 C123 1.345 . S
C120 C121 1.387 . S
C120 C124 1.391 . S
C121 C120 1.387 . S
C121 C122 1.369 . S
C121 H130 0.929 . S
C122 N119 1.346 . S
C122 C121 1.369 . S
C122 H125 0.928 . S
C123 N119 1.345 . S
C123 C124 1.371 . S
C123 H126 0.931 . S
C124 C120 1.391 . S
C124 C123 1.371 . S
C124 H131 0.930 . S
H125 C122 0.928 . S
H126 C123 0.931 . S
H127 C103 0.930 . S
H128 C100 0.930 . S
H129 C109 0.930 . S
H130 C121 0.929 . S
H131 C124 0.930 . S
C132 C133 1.351 . S
C132 N135 1.368 . S
C132 H137 0.931 . S
C133 C132 1.351 . S
C133 N134 1.373 . S
C133 H161 0.930 . S
N134 C133 1.373 . S
N134 C136 1.340 . S
N135 C132 1.368 . S
N135 C136 1.321 . S
N135 Co138 2.135 . S
C136 N134 1.340 . S
C136 N135 1.321 . S
C136 H160 0.930 . S
H137 C132 0.931 . S
Co138 N135 2.135 . S
Co138 N141 2.121 . S
Co138 O146 2.055 . S
Co138 O149 2.039 . S
Co138 N152 2.140 . S
C139 O140 1.227 . S
C139 O149 1.265 . S
O140 C139 1.227 . S
N141 Co138 2.121 . S
N141 C143 1.375 . S
N141 C144 1.313 . S
C142 C143 1.338 . S
C142 N145 1.377 . S
C142 H162 0.930 . S
C143 N141 1.375 . S
C143 C142 1.338 . S
C143 H147 0.931 . S
C144 N141 1.313 . S
C144 N145 1.344 . S
C144 H148 0.930 . S
N145 C142 1.377 . S
N145 C144 1.344 . S
O146 Co138 2.055 . S
O146 C150 1.253 . S
H147 C143 0.931 . S
H148 C144 0.930 . S
O149 Co138 2.039 . S
O149 C139 1.265 . S
C150 O146 1.253 . S
C150 O151 1.227 . S
O151 C150 1.227 . S
N152 Co138 2.140 . S
N152 C155 1.346 . S
N152 C156 1.345 . S
C153 C154 1.387 . S
C153 C157 1.391 . S
C154 C153 1.387 . S
C154 C155 1.369 . S
C154 H163 0.929 . S
C155 N152 1.346 . S
C155 C154 1.369 . S
C155 H158 0.928 . S
C156 N152 1.345 . S
C156 C157 1.371 . S
C156 H159 0.931 . S
C157 C153 1.391 . S
C157 C156 1.371 . S
C157 H164 0.930 . S
H158 C155 0.928 . S
H159 C156 0.931 . S
H160 C136 0.930 . S
H161 C133 0.930 . S
H162 C142 0.930 . S
H163 C154 0.929 . S
H164 C157 0.930 . S
C165 C166 1.351 . S
C165 N168 1.368 . S
C165 H170 0.931 . S
C166 C165 1.351 . S
C166 N167 1.373 . S
C166 H194 0.930 . S
N167 C166 1.373 . S
N167 C169 1.340 . S
N168 C165 1.368 . S
N168 C169 1.321 . S
N168 Co171 2.135 . S
C169 N167 1.340 . S
C169 N168 1.321 . S
C169 H193 0.930 . S
H170 C165 0.931 . S
Co171 N168 2.135 . S
Co171 N174 2.121 . S
Co171 O179 2.055 . S
Co171 O182 2.039 . S
Co171 N185 2.140 . S
C172 O173 1.227 . S
C172 O182 1.265 . S
O173 C172 1.227 . S
N174 Co171 2.121 . S
N174 C176 1.375 . S
N174 C177 1.313 . S
C175 C176 1.338 . S
C175 N178 1.377 . S
C175 H195 0.930 . S
C176 N174 1.375 . S
C176 C175 1.338 . S
C176 H180 0.931 . S
C177 N174 1.313 . S
C177 N178 1.344 . S
C177 H181 0.930 . S
N178 C175 1.377 . S
N178 C177 1.344 . S
O179 Co171 2.055 . S
O179 C183 1.253 . S
H180 C176 0.931 . S
H181 C177 0.930 . S
O182 Co171 2.039 . S
O182 C172 1.265 . S
C183 O179 1.253 . S
C183 O184 1.227 . S
O184 C183 1.227 . S
N185 Co171 2.140 . S
N185 C188 1.346 . S
N185 C189 1.345 . S
C186 C187 1.387 . S
C186 C190 1.391 . S
C187 C186 1.387 . S
C187 C188 1.369 . S
C187 H196 0.929 . S
C188 N185 1.346 . S
C188 C187 1.369 . S
C188 H191 0.928 . S
C189 N185 1.345 . S
C189 C190 1.371 . S
C189 H192 0.931 . S
C190 C186 1.391 . S
C190 C189 1.371 . S
C190 H197 0.930 . S
H191 C188 0.928 . S
H192 C189 0.931 . S
H193 C169 0.930 . S
H194 C166 0.930 . S
H195 C175 0.930 . S
H196 C187 0.929 . S
H197 C190 0.930 . S
C198 C199 1.351 . S
C198 N201 1.368 . S
C198 H203 0.931 . S
C199 C198 1.351 . S
C199 N200 1.373 . S
C199 H227 0.930 . S
N200 C199 1.373 . S
N200 C202 1.340 . S
N201 C198 1.368 . S
N201 C202 1.321 . S
N201 Co204 2.135 . S
C202 N200 1.340 . S
C202 N201 1.321 . S
C202 H226 0.930 . S
H203 C198 0.931 . S
Co204 N201 2.135 . S
Co204 N207 2.121 . S
Co204 O212 2.055 . S
Co204 O215 2.039 . S
Co204 N218 2.140 . S
C205 O206 1.227 . S
C205 O215 1.265 . S
O206 C205 1.227 . S
N207 Co204 2.121 . S
N207 C209 1.375 . S
N207 C210 1.313 . S
C208 C209 1.338 . S
C208 N211 1.377 . S
C208 H228 0.930 . S
C209 N207 1.375 . S
C209 C208 1.338 . S
C209 H213 0.931 . S
C210 N207 1.313 . S
C210 N211 1.344 . S
C210 H214 0.930 . S
N211 C208 1.377 . S
N211 C210 1.344 . S
O212 Co204 2.055 . S
O212 C216 1.253 . S
H213 C209 0.931 . S
H214 C210 0.930 . S
O215 Co204 2.039 . S
O215 C205 1.265 . S
C216 O212 1.253 . S
C216 O217 1.227 . S
O217 C216 1.227 . S
N218 Co204 2.140 . S
N218 C221 1.346 . S
N218 C222 1.345 . S
C219 C220 1.387 . S
C219 C223 1.391 . S
C220 C219 1.387 . S
C220 C221 1.369 . S
C220 H229 0.929 . S
C221 N218 1.346 . S
C221 C220 1.369 . S
C221 H224 0.928 . S
C222 N218 1.345 . S
C222 C223 1.371 . S
C222 H225 0.931 . S
C223 C219 1.391 . S
C223 C222 1.371 . S
C223 H230 0.930 . S
H224 C221 0.928 . S
H225 C222 0.931 . S
H226 C202 0.930 . S
H227 C199 0.930 . S
H228 C208 0.930 . S
H229 C220 0.929 . S
H230 C223 0.930 . S
C231 C232 1.351 . S
C231 N234 1.368 . S
C231 H236 0.931 . S
C232 C231 1.351 . S
C232 N233 1.373 . S
C232 H260 0.930 . S
N233 C232 1.373 . S
N233 C235 1.340 . S
N234 C231 1.368 . S
N234 C235 1.321 . S
N234 Co237 2.135 . S
C235 N233 1.340 . S
C235 N234 1.321 . S
C235 H259 0.930 . S
H236 C231 0.931 . S
Co237 N234 2.135 . S
Co237 N240 2.121 1_556 S
Co237 O245 2.055 1_556 S
Co237 O248 2.039 1_556 S
Co237 N251 2.140 . S
C238 O239 1.227 . S
C238 O248 1.265 1_556 S
O239 C238 1.227 . S
N240 Co237 2.121 1_554 S
N240 C242 1.375 . S
N240 C243 1.313 . S
C241 C242 1.338 . S
C241 N244 1.377 . S
C241 H261 0.930 . S
C242 N240 1.375 . S
C242 C241 1.338 . S
C242 H246 0.931 1_554 S
C243 N240 1.313 . S
C243 N244 1.344 . S
C243 H247 0.930 . S
N244 C241 1.377 . S
N244 C243 1.344 . S
O245 Co237 2.055 1_554 S
O245 C249 1.253 . S
H246 C242 0.931 1_556 S
H247 C243 0.930 . S
O248 Co237 2.039 1_554 S
O248 C238 1.265 1_554 S
C249 O245 1.253 . S
C249 O250 1.227 . S
O250 C249 1.227 . S
N251 Co237 2.140 . S
N251 C254 1.346 . S
N251 C255 1.345 . S
C252 C253 1.387 . S
C252 C256 1.391 . S
C253 C252 1.387 . S
C253 C254 1.369 . S
C253 H262 0.929 . S
C254 N251 1.346 . S
C254 C253 1.369 . S
C254 H257 0.928 . S
C255 N251 1.345 . S
C255 C256 1.371 . S
C255 H258 0.931 . S
C256 C252 1.391 . S
C256 C255 1.371 . S
C256 H263 0.930 . S
H257 C254 0.928 . S
H258 C255 0.931 . S
H259 C235 0.930 . S
H260 C232 0.930 . S
H261 C241 0.930 . S
H262 C253 0.929 . S
H263 C256 0.930 . S
C264 C265 1.351 . S
C264 N267 1.368 . S
C264 H269 0.931 . S
C265 C264 1.351 . S
C265 N266 1.373 . S
C265 H293 0.930 . S
N266 C265 1.373 . S
N266 C268 1.340 . S
N267 C264 1.368 . S
N267 C268 1.321 . S
N267 Co270 2.135 . S
C268 N266 1.340 . S
C268 N267 1.321 . S
C268 H292 0.930 . S
H269 C264 0.931 . S
Co270 N267 2.135 . S
Co270 N273 2.121 . S
Co270 O278 2.055 . S
Co270 O281 2.039 . S
Co270 N284 2.140 . S
C271 O272 1.227 . S
C271 O281 1.265 . S
O272 C271 1.227 . S
N273 Co270 2.121 . S
N273 C275 1.375 . S
N273 C276 1.313 . S
C274 C275 1.338 . S
C274 N277 1.377 . S
C274 H294 0.930 . S
C275 N273 1.375 . S
C275 C274 1.338 . S
C275 H279 0.931 . S
C276 N273 1.313 . S
C276 N277 1.344 . S
C276 H280 0.930 . S
N277 C274 1.377 . S
N277 C276 1.344 . S
O278 Co270 2.055 . S
O278 C282 1.253 . S
H279 C275 0.931 . S
H280 C276 0.930 . S
O281 Co270 2.039 . S
O281 C271 1.265 . S
C282 O278 1.253 . S
C282 O283 1.227 . S
O283 C282 1.227 . S
N284 Co270 2.140 . S
N284 C287 1.346 . S
N284 C288 1.345 . S
C285 C286 1.387 . S
C285 C289 1.391 . S
C286 C285 1.387 . S
C286 C287 1.369 . S
C286 H295 0.929 . S
C287 N284 1.346 . S
C287 C286 1.369 . S
C287 H290 0.928 . S
C288 N284 1.345 . S
C288 C289 1.371 . S
C288 H291 0.931 . S
C289 C285 1.391 . S
C289 C288 1.371 . S
C289 H296 0.930 . S
H290 C287 0.928 . S
H291 C288 0.931 . S
H292 C268 0.930 . S
H293 C265 0.930 . S
H294 C274 0.930 . S
H295 C286 0.929 . S
H296 C289 0.930 . S
C297 C298 1.351 . S
C297 N300 1.368 . S
C297 H302 0.931 . S
C298 C297 1.351 . S
C298 N299 1.373 . S
C298 H326 0.930 . S
N299 C298 1.373 . S
N299 C301 1.340 . S
N300 C297 1.368 . S
N300 C301 1.321 . S
N300 Co303 2.135 . S
C301 N299 1.340 . S
C301 N300 1.321 . S
C301 H325 0.930 . S
H302 C297 0.931 . S
Co303 N300 2.135 . S
Co303 N306 2.121 . S
Co303 O311 2.055 . S
Co303 O314 2.039 . S
Co303 N317 2.140 . S
C304 O305 1.227 . S
C304 O314 1.265 . S
O305 C304 1.227 . S
N306 Co303 2.121 . S
N306 C308 1.375 . S
N306 C309 1.313 . S
C307 C308 1.338 . S
C307 N310 1.377 . S
C307 H327 0.930 . S
C308 N306 1.375 . S
C308 C307 1.338 . S
C308 H312 0.931 . S
C309 N306 1.313 . S
C309 N310 1.344 . S
C309 H313 0.930 . S
N310 C307 1.377 . S
N310 C309 1.344 . S
O311 Co303 2.055 . S
O311 C315 1.253 . S
H312 C308 0.931 . S
H313 C309 0.930 . S
O314 Co303 2.039 . S
O314 C304 1.265 . S
C315 O311 1.253 . S
C315 O316 1.227 . S
O316 C315 1.227 . S
N317 Co303 2.140 . S
N317 C320 1.346 . S
N317 C321 1.345 . S
C318 C319 1.387 . S
C318 C322 1.391 . S
C319 C318 1.387 . S
C319 C320 1.369 . S
C319 H328 0.929 . S
C320 N317 1.346 . S
C320 C319 1.369 . S
C320 H323 0.928 . S
C321 N317 1.345 . S
C321 C322 1.371 . S
C321 H324 0.931 . S
C322 C318 1.391 . S
C322 C321 1.371 . S
C322 H329 0.930 . S
H323 C320 0.928 . S
H324 C321 0.931 . S
H325 C301 0.930 . S
H326 C298 0.930 . S
H327 C307 0.930 . S
H328 C319 0.929 . S
H329 C322 0.930 . S
C330 C331 1.351 . S
C330 N333 1.368 . S
C330 H335 0.931 . S
C331 C330 1.351 . S
C331 N332 1.373 . S
C331 H359 0.930 . S
N332 C331 1.373 . S
N332 C334 1.340 . S
N333 C330 1.368 . S
N333 C334 1.321 . S
N333 Co336 2.135 . S
C334 N332 1.340 . S
C334 N333 1.321 . S
C334 H358 0.930 . S
H335 C330 0.931 . S
Co336 N333 2.135 . S
Co336 N339 2.121 . S
Co336 O344 2.055 . S
Co336 O347 2.039 . S
Co336 N350 2.140 . S
C337 O338 1.227 . S
C337 O347 1.265 . S
O338 C337 1.227 . S
N339 Co336 2.121 . S
N339 C341 1.375 . S
N339 C342 1.313 . S
C340 C341 1.338 . S
C340 N343 1.377 . S
C340 H360 0.930 . S
C341 N339 1.375 . S
C341 C340 1.338 . S
C341 H345 0.931 . S
C342 N339 1.313 . S
C342 N343 1.344 . S
C342 H346 0.930 . S
N343 C340 1.377 . S
N343 C342 1.344 . S
O344 Co336 2.055 . S
O344 C348 1.253 . S
H345 C341 0.931 . S
H346 C342 0.930 . S
O347 Co336 2.039 . S
O347 C337 1.265 . S
C348 O344 1.253 . S
C348 O349 1.227 . S
O349 C348 1.227 . S
N350 Co336 2.140 . S
N350 C353 1.346 . S
N350 C354 1.345 . S
C351 C352 1.387 . S
C351 C355 1.391 . S
C352 C351 1.387 . S
C352 C353 1.369 . S
C352 H361 0.929 . S
C353 N350 1.346 . S
C353 C352 1.369 . S
C353 H356 0.928 . S
C354 N350 1.345 . S
C354 C355 1.371 . S
C354 H357 0.931 . S
C355 C351 1.391 . S
C355 C354 1.371 . S
C355 H362 0.930 . S
H356 C353 0.928 . S
H357 C354 0.931 . S
H358 C334 0.930 . S
H359 C331 0.930 . S
H360 C340 0.930 . S
H361 C352 0.929 . S
H362 C355 0.930 . S
C363 C364 1.351 . S
C363 N366 1.368 . S
C363 H368 0.931 . S
C364 C363 1.351 . S
C364 N365 1.373 . S
C364 H392 0.930 . S
N365 C364 1.373 . S
N365 C367 1.340 . S
N366 C363 1.368 . S
N366 C367 1.321 . S
N366 Co369 2.135 . S
C367 N365 1.340 . S
C367 N366 1.321 . S
C367 H391 0.930 . S
H368 C363 0.931 . S
Co369 N366 2.135 . S
Co369 N372 2.121 . S
Co369 O377 2.055 . S
Co369 O380 2.039 . S
Co369 N383 2.140 . S
C370 O371 1.227 . S
C370 O380 1.265 . S
O371 C370 1.227 . S
N372 Co369 2.121 . S
N372 C374 1.375 . S
N372 C375 1.313 . S
C373 C374 1.338 . S
C373 N376 1.377 . S
C373 H393 0.930 . S
C374 N372 1.375 . S
C374 C373 1.338 . S
C374 H378 0.931 . S
C375 N372 1.313 . S
C375 N376 1.344 . S
C375 H379 0.930 . S
N376 C373 1.377 . S
N376 C375 1.344 . S
O377 Co369 2.055 . S
O377 C381 1.253 . S
H378 C374 0.931 . S
H379 C375 0.930 . S
O380 Co369 2.039 . S
O380 C370 1.265 . S
C381 O377 1.253 . S
C381 O382 1.227 . S
O382 C381 1.227 . S
N383 Co369 2.140 . S
N383 C386 1.346 . S
N383 C387 1.345 . S
C384 C385 1.387 . S
C384 C388 1.391 . S
C385 C384 1.387 . S
C385 C386 1.369 . S
C385 H394 0.929 . S
C386 N383 1.346 . S
C386 C385 1.369 . S
C386 H389 0.928 . S
C387 N383 1.345 . S
C387 C388 1.371 . S
C387 H390 0.931 . S
C388 C384 1.391 . S
C388 C387 1.371 . S
C388 H395 0.930 . S
H389 C386 0.928 . S
H390 C387 0.931 . S
H391 C367 0.930 . S
H392 C364 0.930 . S
H393 C373 0.930 . S
H394 C385 0.929 . S
H395 C388 0.930 . S
H396 C408 0.930 . S
H397 C410 0.930 . S
H398 C411 0.930 . S
H399 C415 0.959 . S
H400 C415 0.959 . S
H401 C415 0.961 . S
H402 C416 0.960 . S
H403 C416 0.961 . S
H404 C416 0.959 . S
H405 C419 0.929 . S
H406 C420 0.931 . S
H407 C422 0.930 . S
C408 H396 0.930 . S
C408 C409 1.399 . S
C408 C413 1.399 . S
C409 C408 1.399 . S
C409 C410 1.376 . S
C410 H397 0.930 . S
C410 C409 1.376 . S
C410 C411 1.388 . S
C411 H398 0.930 . S
C411 C410 1.388 . S
C411 C412 1.390 . S
C412 C411 1.390 . S
C412 C413 1.394 . S
C412 C418 1.465 . S
C413 C408 1.399 . S
C413 C412 1.394 . S
C413 C414 1.516 . S
C414 C413 1.516 . S
C414 C415 1.502 . S
C414 C416 1.561 . S
C414 C417 1.526 . S
C415 H399 0.959 . S
C415 H400 0.959 . S
C415 H401 0.961 . S
C415 C414 1.502 . S
C416 H402 0.960 . S
C416 H403 0.961 . S
C416 H404 0.959 . S
C416 C414 1.561 . S
C417 C414 1.526 . S
C417 C418 1.396 . S
C417 C422 1.390 . S
C418 C412 1.465 . S
C418 C417 1.396 . S
C418 C419 1.399 . S
C419 H405 0.929 . S
C419 C418 1.399 . S
C419 C420 1.385 . S
C420 H406 0.931 . S
C420 C419 1.385 . S
C420 C421 1.389 . S
C421 C420 1.389 . S
C421 C422 1.387 . S
C422 H407 0.930 . S
C422 C417 1.390 . S
C422 C421 1.387 . S
H423 C435 0.896 1_556 S
H424 C437 0.930 . S
H425 C438 0.930 . S
H426 C442 0.959 . S
H427 C442 0.959 1_655 S
H428 C442 0.961 1_556 S
H429 C443 0.960 . S
H430 C443 0.961 . S
H431 C443 0.959 . S
H432 C446 0.929 . S
H433 C447 0.931 . S
H434 C449 0.930 . S
C435 H423 0.896 1_554 S
C435 C436 1.399 . S
C435 C440 1.399 . S
C436 C435 1.399 . S
C436 C437 1.376 . S
C437 H424 0.930 . S
C437 C436 1.376 . S
C437 C438 1.388 . S
C438 H425 0.930 . S
C438 C437 1.388 . S
C438 C439 1.390 . S
C439 C438 1.390 . S
C439 C440 1.394 . S
C439 C445 1.465 . S
C440 C435 1.399 . S
C440 C439 1.394 . S
C440 C441 1.516 . S
C441 C440 1.516 . S
C441 C442 1.502 . S
C441 C443 1.561 . S
C441 C444 1.526 . S
C442 H426 0.959 . S
C442 H427 0.959 1_455 S
C442 H428 0.961 1_554 S
C442 C441 1.502 . S
C443 H429 0.960 . S
C443 H430 0.961 . S
C443 H431 0.959 . S
C443 C441 1.561 . S
C444 C441 1.526 . S
C444 C445 1.396 . S
C444 C449 1.390 1_455 S
C445 C439 1.465 . S
C445 C444 1.396 . S
C445 C446 1.399 . S
C446 H432 0.929 . S
C446 C445 1.399 . S
C446 C447 1.385 . S
C447 H433 0.931 . S
C447 C446 1.385 . S
C447 C448 1.389 1_455 S
C448 C447 1.389 1_655 S
C448 C449 1.387 . S
C449 H434 0.930 . S
C449 C444 1.390 1_655 S
C449 C448 1.387 . S
H450 C462 0.930 . S
H451 C464 0.930 . S
H452 C465 0.930 . S
H453 C469 0.959 . S
H454 C469 0.959 . S
H455 C469 0.961 . S
H456 C470 0.960 . S
H457 C470 0.961 . S
H458 C470 0.959 . S
H459 C473 0.929 . S
H460 C474 0.931 . S
H461 C476 0.930 . S
C462 H450 0.930 . S
C462 C463 1.399 . S
C462 C467 1.399 . S
C463 C462 1.399 . S
C463 C464 1.376 . S
C464 H451 0.930 . S
C464 C463 1.376 . S
C464 C465 1.388 . S
C465 H452 0.930 . S
C465 C464 1.388 . S
C465 C466 1.390 . S
C466 C465 1.390 . S
C466 C467 1.394 . S
C466 C472 1.465 . S
C467 C462 1.399 . S
C467 C466 1.394 . S
C467 C468 1.516 . S
C468 C467 1.516 . S
C468 C469 1.502 . S
C468 C470 1.561 . S
C468 C471 1.526 . S
C469 H453 0.959 . S
C469 H454 0.959 . S
C469 H455 0.961 . S
C469 C468 1.502 . S
C470 H456 0.960 . S
C470 H457 0.961 . S
C470 H458 0.959 . S
C470 C468 1.561 . S
C471 C468 1.526 . S
C471 C472 1.396 . S
C471 C476 1.390 . S
C472 C466 1.465 . S
C472 C471 1.396 . S
C472 C473 1.399 1_545 S
C473 H459 0.929 . S
C473 C472 1.399 1_565 S
C473 C474 1.385 . S
C474 H460 0.931 . S
C474 C473 1.385 . S
C474 C475 1.389 . S
C475 C474 1.389 . S
C475 C476 1.387 1_565 S
C476 H461 0.930 . S
C476 C471 1.390 . S
C476 C475 1.387 1_545 S
H477 C489 0.930 . S
H478 C491 0.930 . S
H479 C492 0.930 . S
H480 C496 0.959 . S
H481 C496 0.959 . S
H482 C496 0.961 . S
H483 C497 0.960 . S
H484 C497 0.961 . S
H485 C497 0.959 . S
H486 C500 0.929 . S
H487 C501 0.931 . S
H488 C503 0.930 . S
C489 H477 0.930 . S
C489 C490 1.399 . S
C489 C494 1.399 . S
C490 C489 1.399 . S
C490 C491 1.376 . S
C491 H478 0.930 . S
C491 C490 1.376 . S
C491 C492 1.388 . S
C492 H479 0.930 . S
C492 C491 1.388 . S
C492 C493 1.390 . S
C493 C492 1.390 . S
C493 C494 1.394 . S
C493 C499 1.465 . S
C494 C489 1.399 . S
C494 C493 1.394 . S
C494 C495 1.516 . S
C495 C494 1.516 . S
C495 C496 1.502 . S
C495 C497 1.561 . S
C495 C498 1.526 . S
C496 H480 0.959 . S
C496 H481 0.959 . S
C496 H482 0.961 . S
C496 C495 1.502 . S
C497 H483 0.960 . S
C497 H484 0.961 . S
C497 H485 0.959 . S
C497 C495 1.561 . S
C498 C495 1.526 . S
C498 C499 1.396 . S
C498 C503 1.390 . S
C499 C493 1.465 . S
C499 C498 1.396 . S
C499 C500 1.399 . S
C500 H486 0.929 . S
C500 C499 1.399 . S
C500 C501 1.385 . S
C501 H487 0.931 . S
C501 C500 1.385 . S
C501 C502 1.389 . S
C502 C501 1.389 . S
C502 C503 1.387 . S
C503 H488 0.930 . S
C503 C498 1.390 . S
C503 C502 1.387 . S
H504 C516 0.930 . S
H505 C518 0.930 . S
H506 C519 0.930 . S
H507 C523 0.959 . S
H508 C523 0.959 . S
H509 C523 0.961 . S
H510 C524 0.960 . S
H511 C524 0.961 . S
H512 C524 0.959 . S
H513 C527 0.929 . S
H514 C528 0.931 . S
H515 C530 0.930 . S
C516 H504 0.930 . S
C516 C517 1.399 1_655 S
C516 C521 1.399 . S
C517 C516 1.399 1_455 S
C517 C518 1.376 . S
C518 H505 0.930 . S
C518 C517 1.376 . S
C518 C519 1.388 1_455 S
C519 H506 0.930 . S
C519 C518 1.388 1_655 S
C519 C520 1.390 . S
C520 C519 1.390 . S
C520 C521 1.394 . S
C520 C526 1.465 . S
C521 C516 1.399 . S
C521 C520 1.394 . S
C521 C522 1.516 . S
C522 C521 1.516 . S
C522 C523 1.502 . S
C522 C524 1.561 . S
C522 C525 1.526 . S
C523 H507 0.959 . S
C523 H508 0.959 . S
C523 H509 0.961 . S
C523 C522 1.502 . S
C524 H510 0.960 . S
C524 H511 0.961 . S
C524 H512 0.959 . S
C524 C522 1.561 . S
C525 C522 1.526 . S
C525 C526 1.396 . S
C525 C530 1.390 . S
C526 C520 1.465 . S
C526 C525 1.396 . S
C526 C527 1.399 . S
C527 H513 0.929 . S
C527 C526 1.399 . S
C527 C528 1.385 . S
C528 H514 0.931 . S
C528 C527 1.385 . S
C528 C529 1.389 . S
C529 C528 1.389 . S
C529 C530 1.387 . S
C530 H515 0.930 . S
C530 C525 1.390 . S
C530 C529 1.387 . S
H531 C543 0.930 . S
H532 C545 0.930 . S
H533 C546 0.930 . S
H534 C550 0.959 . S
H535 C550 0.959 1_545 S
H536 C550 0.961 . S
H537 C551 0.960 . S
H538 C551 0.961 1_545 S
H539 C551 0.959 . S
H540 C554 0.929 . S
H541 C555 0.931 . S
H542 C557 0.930 . S
C543 H531 0.930 . S
C543 C544 1.399 . S
C543 C548 1.399 . S
C544 C543 1.399 . S
C544 C545 1.376 . S
C545 H532 0.930 . S
C545 C544 1.376 . S
C545 C546 1.388 . S
C546 H533 0.930 . S
C546 C545 1.388 . S
C546 C547 1.390 . S
C547 C546 1.390 . S
C547 C548 1.394 . S
C547 C553 1.465 . S
C548 C543 1.399 . S
C548 C547 1.394 . S
C548 C549 1.516 . S
C549 C548 1.516 . S
C549 C550 1.502 . S
C549 C551 1.561 . S
C549 C552 1.526 . S
C550 H534 0.959 . S
C550 H535 0.959 1_565 S
C550 H536 0.961 . S
C550 C549 1.502 . S
C551 H537 0.960 . S
C551 H538 0.961 1_565 S
C551 H539 0.959 . S
C551 C549 1.561 . S
C552 C549 1.526 . S
C552 C553 1.396 . S
C552 C557 1.390 1_565 S
C553 C547 1.465 . S
C553 C552 1.396 . S
C553 C554 1.399 . S
C554 H540 0.929 . S
C554 C553 1.399 . S
C554 C555 1.385 . S
C555 H541 0.931 . S
C555 C554 1.385 . S
C555 C556 1.389 1_565 S
C556 C555 1.389 1_545 S
C556 C557 1.387 . S
C557 H542 0.930 . S
C557 C552 1.390 1_545 S
C557 C556 1.387 . S
H558 C570 0.930 . S
H559 C572 0.930 . S
H560 C573 0.930 . S
H561 C577 0.959 . S
H562 C577 0.959 . S
H563 C577 0.961 . S
H564 C578 0.960 . S
H565 C578 0.961 . S
H566 C578 0.959 . S
H567 C581 0.929 . S
H568 C582 0.931 . S
H569 C584 0.930 . S
C570 H558 0.930 . S
C570 C571 1.399 . S
C570 C575 1.399 . S
C571 C570 1.399 . S
C571 C572 1.376 . S
C572 H559 0.930 . S
C572 C571 1.376 . S
C572 C573 1.388 . S
C573 H560 0.930 . S
C573 C572 1.388 . S
C573 C574 1.390 . S
C574 C573 1.390 . S
C574 C575 1.394 . S
C574 C580 1.465 . S
C575 C570 1.399 . S
C575 C574 1.394 . S
C575 C576 1.516 . S
C576 C575 1.516 . S
C576 C577 1.502 . S
C576 C578 1.561 . S
C576 C579 1.526 . S
C577 H561 0.959 . S
C577 H562 0.959 . S
C577 H563 0.961 . S
C577 C576 1.502 . S
C578 H564 0.960 . S
C578 H565 0.961 . S
C578 H566 0.959 . S
C578 C576 1.561 . S
C579 C576 1.526 . S
C579 C580 1.396 . S
C579 C584 1.390 . S
C580 C574 1.465 . S
C580 C579 1.396 . S
C580 C581 1.399 . S
C581 H567 0.929 . S
C581 C580 1.399 . S
C581 C582 1.385 . S
C582 H568 0.931 . S
C582 C581 1.385 . S
C582 C583 1.389 . S
C583 C582 1.389 . S
C583 C584 1.387 . S
C584 H569 0.930 . S
C584 C579 1.390 . S
C584 C583 1.387 . S
H585 C597 0.930 . S
H586 C599 0.930 . S
H587 C600 0.930 . S
H588 C604 0.959 . S
H589 C604 0.959 . S
H590 C604 0.961 . S
H591 C605 0.960 . S
H592 C605 0.961 . S
H593 C605 0.959 . S
H594 C608 0.931 1_655 S
H595 C609 0.931 . S
H596 C611 0.930 . S
C597 H585 0.930 . S
C597 C598 1.399 . S
C597 C602 1.399 . S
C598 C597 1.399 . S
C598 C599 1.376 . S
C599 H586 0.930 . S
C599 C598 1.376 . S
C599 C600 1.388 . S
C600 H587 0.930 . S
C600 C599 1.388 . S
C600 C601 1.390 . S
C601 C600 1.390 . S
C601 C602 1.394 . S
C601 C607 1.465 . S
C602 C597 1.399 . S
C602 C601 1.394 . S
C602 C603 1.516 . S
C603 C602 1.516 . S
C603 C604 1.502 . S
C603 C605 1.561 . S
C603 C606 1.526 . S
C604 H588 0.959 . S
C604 H589 0.959 . S
C604 H590 0.961 . S
C604 C603 1.502 . S
C605 H591 0.960 . S
C605 H592 0.961 . S
C605 H593 0.959 . S
C605 C603 1.561 . S
C606 C603 1.526 . S
C606 C607 1.396 . S
C606 C611 1.390 . S
C607 C601 1.465 . S
C607 C606 1.396 . S
C607 C608 1.399 . S
C608 H594 0.931 1_455 S
C608 C607 1.399 . S
C608 C609 1.385 1_455 S
C609 H595 0.931 . S
C609 C608 1.385 1_655 S
C609 C610 1.389 . S
C610 C609 1.389 . S
C610 C611 1.387 1_655 S
C611 H596 0.930 . S
C611 C606 1.390 . S
C611 C610 1.387 1_455 S
H612 C624 0.930 . S
H613 C626 0.930 . S
H614 C627 0.930 . S
H615 C631 0.959 . S
H616 C631 0.959 . S
H617 C631 0.961 . S
H618 C632 0.960 . S
H619 C632 0.961 1_565 S
H620 C632 0.959 . S
H621 C635 0.929 . S
H622 C636 0.931 1_565 S
H623 C638 0.930 . S
C624 H612 0.930 . S
C624 C625 1.399 . S
C624 C629 1.399 . S
C625 C624 1.399 . S
C625 C626 1.376 . S
C626 H613 0.930 . S
C626 C625 1.376 . S
C626 C627 1.388 . S
C627 H614 0.930 . S
C627 C626 1.388 . S
C627 C628 1.390 . S
C628 C627 1.390 . S
C628 C629 1.394 . S
C628 C634 1.465 . S
C629 C624 1.399 . S
C629 C628 1.394 . S
C629 C630 1.516 . S
C630 C629 1.516 . S
C630 C631 1.502 . S
C630 C632 1.561 . S
C630 C633 1.526 . S
C631 H615 0.959 . S
C631 H616 0.959 . S
C631 H617 0.961 . S
C631 C630 1.502 . S
C632 H618 0.960 . S
C632 H619 0.961 1_545 S
C632 H620 0.959 . S
C632 C630 1.561 . S
C633 C630 1.526 . S
C633 C634 1.396 . S
C633 C638 1.390 1_545 S
C634 C628 1.465 . S
C634 C633 1.396 . S
C634 C635 1.399 . S
C635 H621 0.929 . S
C635 C634 1.399 . S
C635 C636 1.385 . S
C636 H622 0.931 1_545 S
C636 C635 1.385 . S
C636 C637 1.389 1_545 S
C637 C636 1.389 1_565 S
C637 C638 1.387 . S
C638 H623 0.930 . S
C638 C633 1.390 1_565 S
C638 C637 1.387 . S
H639 C651 0.930 . S
H640 C653 0.930 . S
H641 C654 0.930 . S
H642 C658 0.959 . S
H643 C658 0.959 . S
H644 C658 0.961 . S
H645 C659 0.960 . S
H646 C659 0.961 . S
H647 C659 0.959 . S
H648 C662 0.929 . S
H649 C663 0.931 . S
H650 C665 0.930 . S
C651 H639 0.930 . S
C651 C652 1.399 . S
C651 C656 1.399 . S
C652 C651 1.399 . S
C652 C653 1.376 . S
C653 H640 0.930 . S
C653 C652 1.376 . S
C653 C654 1.388 . S
C654 H641 0.930 . S
C654 C653 1.388 . S
C654 C655 1.390 . S
C655 C654 1.390 . S
C655 C656 1.394 . S
C655 C661 1.465 . S
C656 C651 1.399 . S
C656 C655 1.394 . S
C656 C657 1.516 . S
C657 C656 1.516 . S
C657 C658 1.502 . S
C657 C659 1.561 . S
C657 C660 1.526 . S
C658 H642 0.959 . S
C658 H643 0.959 . S
C658 H644 0.961 . S
C658 C657 1.502 . S
C659 H645 0.960 . S
C659 H646 0.961 . S
C659 H647 0.959 . S
C659 C657 1.561 . S
C660 C657 1.526 . S
C660 C661 1.396 . S
C660 C665 1.390 . S
C661 C655 1.465 . S
C661 C660 1.396 . S
C661 C662 1.399 . S
C662 H648 0.929 . S
C662 C661 1.399 . S
C662 C663 1.385 . S
C663 H649 0.931 . S
C663 C662 1.385 . S
C663 C664 1.389 . S
C664 C663 1.389 . S
C664 C665 1.387 . S
C665 H650 0.930 . S
C665 C660 1.390 . S
C665 C664 1.387 . S
H666 C678 0.930 . S
H667 C680 0.930 . S
H668 C681 0.930 . S
H669 C685 0.959 . S
H670 C685 0.959 . S
H671 C685 0.961 . S
H672 C686 0.960 . S
H673 C686 0.961 . S
H674 C686 0.959 . S
H675 C689 0.929 . S
H676 C690 0.931 . S
H677 C692 0.930 . S
C678 H666 0.930 . S
C678 C679 1.399 . S
C678 C683 1.399 . S
C679 C678 1.399 . S
C679 C680 1.376 . S
C680 H667 0.930 . S
C680 C679 1.376 . S
C680 C681 1.388 . S
C681 H668 0.930 . S
C681 C680 1.388 . S
C681 C682 1.390 . S
C682 C681 1.390 . S
C682 C683 1.394 . S
C682 C688 1.465 . S
C683 C678 1.399 . S
C683 C682 1.394 . S
C683 C684 1.516 . S
C684 C683 1.516 . S
C684 C685 1.502 . S
C684 C686 1.561 . S
C684 C687 1.526 . S
C685 H669 0.959 . S
C685 H670 0.959 . S
C685 H671 0.961 . S
C685 C684 1.502 . S
C686 H672 0.960 . S
C686 H673 0.961 . S
C686 H674 0.959 . S
C686 C684 1.561 . S
C687 C684 1.526 . S
C687 C688 1.396 . S
C687 C692 1.390 . S
C688 C682 1.465 . S
C688 C687 1.396 . S
C688 C689 1.399 . S
C689 H675 0.929 . S
C689 C688 1.399 . S
C689 C690 1.385 1_655 S
C690 H676 0.931 . S
C690 C689 1.385 1_455 S
C690 C691 1.389 . S
C691 C690 1.389 . S
C691 C692 1.387 1_455 S
C692 H677 0.930 . S
C692 C687 1.390 . S
C692 C691 1.387 1_655 S
H693 C705 0.930 . S
H694 C707 0.930 . S
H695 C708 0.930 . S
H696 C712 0.959 . S
H697 C712 0.959 . S
H698 C712 0.961 . S
H699 C713 0.960 . S
H700 C713 0.961 . S
H701 C713 0.959 . S
H702 C716 0.929 . S
H703 C717 0.931 . S
H704 C719 0.930 . S
C705 H693 0.930 . S
C705 C706 1.399 . S
C705 C710 1.399 . S
C706 C705 1.399 . S
C706 C707 1.376 . S
C707 H694 0.930 . S
C707 C706 1.376 . S
C707 C708 1.388 . S
C708 H695 0.930 . S
C708 C707 1.388 . S
C708 C709 1.390 . S
C709 C708 1.390 . S
C709 C710 1.394 . S
C709 C715 1.465 . S
C710 C705 1.399 . S
C710 C709 1.394 . S
C710 C711 1.516 . S
C711 C710 1.516 . S
C711 C712 1.502 . S
C711 C713 1.561 . S
C711 C714 1.526 . S
C712 H696 0.959 . S
C712 H697 0.959 . S
C712 H698 0.961 . S
C712 C711 1.502 . S
C713 H699 0.960 . S
C713 H700 0.961 . S
C713 H701 0.959 . S
C713 C711 1.561 . S
C714 C711 1.526 . S
C714 C715 1.396 . S
C714 C719 1.390 . S
C715 C709 1.465 . S
C715 C714 1.396 . S
C715 C716 1.399 . S
C716 H702 0.929 . S
C716 C715 1.399 . S
C716 C717 1.385 1_565 S
C717 H703 0.931 . S
C717 C716 1.385 1_545 S
C717 C718 1.389 . S
C718 C717 1.389 . S
C718 C719 1.387 1_545 S
C719 H704 0.930 . S
C719 C714 1.390 . S
C719 C718 1.387 1_565 S
H720 C732 0.930 . S
H721 C734 0.930 . S
H722 C735 0.930 . S
H723 C739 0.959 . S
H724 C739 0.959 . S
H725 C739 0.961 . S
H726 C740 0.960 . S
H727 C740 0.961 . S
H728 C740 0.959 . S
H729 C743 0.929 . S
H730 C744 0.931 . S
H731 C746 0.930 . S
C732 H720 0.930 . S
C732 C733 1.399 . S
C732 C737 1.399 . S
C733 C732 1.399 . S
C733 C734 1.376 . S
C734 H721 0.930 . S
C734 C733 1.376 . S
C734 C735 1.388 . S
C735 H722 0.930 . S
C735 C734 1.388 . S
C735 C736 1.390 . S
C736 C735 1.390 . S
C736 C737 1.394 . S
C736 C742 1.465 . S
C737 C732 1.399 . S
C737 C736 1.394 . S
C737 C738 1.516 . S
C738 C737 1.516 . S
C738 C739 1.502 . S
C738 C740 1.561 . S
C738 C741 1.526 . S
C739 H723 0.959 . S
C739 H724 0.959 . S
C739 H725 0.961 . S
C739 C738 1.502 . S
C740 H726 0.960 . S
C740 H727 0.961 . S
C740 H728 0.959 . S
C740 C738 1.561 . S
C741 C738 1.526 . S
C741 C742 1.396 . S
C741 C746 1.390 . S
C742 C736 1.465 . S
C742 C741 1.396 . S
C742 C743 1.399 . S
C743 H729 0.929 . S
C743 C742 1.399 . S
C743 C744 1.385 . S
C744 H730 0.931 . S
C744 C743 1.385 . S
C744 C745 1.389 . S
C745 C744 1.389 . S
C745 C746 1.387 . S
C746 H731 0.930 . S
C746 C741 1.390 . S
C746 C745 1.387 . S
H747 C759 0.930 . S
H748 C761 0.930 . S
H749 C762 0.930 . S
H750 C766 0.959 . S
H751 C766 0.959 . S
H752 C766 0.961 . S
H753 C767 0.960 . S
H754 C767 0.961 . S
H755 C767 0.959 . S
H756 C770 0.929 . S
H757 C771 0.931 . S
H758 C773 0.930 . S
C759 H747 0.930 . S
C759 C760 1.399 . S
C759 C764 1.399 . S
C760 C759 1.399 . S
C760 C761 1.376 . S
C761 H748 0.930 . S
C761 C760 1.376 . S
C761 C762 1.388 . S
C762 H749 0.930 . S
C762 C761 1.388 . S
C762 C763 1.390 . S
C763 C762 1.390 . S
C763 C764 1.394 . S
C763 C769 1.465 . S
C764 C759 1.399 . S
C764 C763 1.394 . S
C764 C765 1.516 . S
C765 C764 1.516 . S
C765 C766 1.502 . S
C765 C767 1.561 . S
C765 C768 1.526 . S
C766 H750 0.959 . S
C766 H751 0.959 . S
C766 H752 0.961 . S
C766 C765 1.502 . S
C767 H753 0.960 . S
C767 H754 0.961 . S
C767 H755 0.959 . S
C767 C765 1.561 . S
C768 C765 1.526 . S
C768 C769 1.396 . S
C768 C773 1.390 . S
C769 C763 1.465 . S
C769 C768 1.396 . S
C769 C770 1.399 . S
C770 H756 0.929 . S
C770 C769 1.399 . S
C770 C771 1.385 . S
C771 H757 0.931 . S
C771 C770 1.385 . S
C771 C772 1.389 . S
C772 C771 1.389 . S
C772 C773 1.387 . S
C773 H758 0.930 . S
C773 C768 1.390 . S
C773 C772 1.387 . S
H774 C786 0.930 . S
H775 C788 0.930 . S
H776 C789 0.930 . S
H777 C793 0.959 . S
H778 C793 0.959 . S
H779 C793 0.961 . S
H780 C794 0.960 . S
H781 C794 0.961 . S
H782 C794 0.959 . S
H783 C797 0.929 . S
H784 C798 0.931 . S
H785 C800 0.930 . S
C786 H774 0.930 . S
C786 C787 1.399 . S
C786 C791 1.399 . S
C787 C786 1.399 . S
C787 C788 1.376 . S
C788 H775 0.930 . S
C788 C787 1.376 . S
C788 C789 1.388 . S
C789 H776 0.930 . S
C789 C788 1.388 . S
C789 C790 1.390 . S
C790 C789 1.390 . S
C790 C791 1.394 . S
C790 C796 1.465 . S
C791 C786 1.399 . S
C791 C790 1.394 . S
C791 C792 1.516 . S
C792 C791 1.516 . S
C792 C793 1.502 . S
C792 C794 1.561 . S
C792 C795 1.526 . S
C793 H777 0.959 . S
C793 H778 0.959 . S
C793 H779 0.961 . S
C793 C792 1.502 . S
C794 H780 0.960 . S
C794 H781 0.961 . S
C794 H782 0.959 . S
C794 C792 1.561 . S
C795 C792 1.526 . S
C795 C796 1.396 . S
C795 C800 1.390 . S
C796 C790 1.465 . S
C796 C795 1.396 . S
C796 C797 1.399 . S
C797 H783 0.929 . S
C797 C796 1.399 . S
C797 C798 1.385 . S
C798 H784 0.931 . S
C798 C797 1.385 . S
C798 C799 1.389 . S
C799 C798 1.389 . S
C799 C800 1.387 . S
C800 H785 0.930 . S
C800 C795 1.390 . S
C800 C799 1.387 . S
H801 C813 0.930 . S
H802 C815 0.930 . S
H803 C816 0.930 . S
H804 C820 0.959 . S
H805 C820 0.959 . S
H806 C820 0.961 . S
H807 C821 0.960 . S
H808 C821 0.961 . S
H809 C821 0.959 . S
H810 C824 0.929 . S
H811 C825 0.931 . S
H812 C827 0.930 . S
C813 H801 0.930 . S
C813 C814 1.399 . S
C813 C818 1.399 . S
C814 C813 1.399 . S
C814 C815 1.376 . S
C815 H802 0.930 . S
C815 C814 1.376 . S
C815 C816 1.388 . S
C816 H803 0.930 . S
C816 C815 1.388 . S
C816 C817 1.390 . S
C817 C816 1.390 . S
C817 C818 1.394 . S
C817 C823 1.465 . S
C818 C813 1.399 . S
C818 C817 1.394 . S
C818 C819 1.516 . S
C819 C818 1.516 . S
C819 C820 1.502 . S
C819 C821 1.561 . S
C819 C822 1.526 . S
C820 H804 0.959 . S
C820 H805 0.959 . S
C820 H806 0.961 . S
C820 C819 1.502 . S
C821 H807 0.960 . S
C821 H808 0.961 . S
C821 H809 0.959 . S
C821 C819 1.561 . S
C822 C819 1.526 . S
C822 C823 1.396 . S
C822 C827 1.390 . S
C823 C817 1.465 . S
C823 C822 1.396 . S
C823 C824 1.399 . S
C824 H810 0.929 . S
C824 C823 1.399 . S
C824 C825 1.385 . S
C825 H811 0.931 . S
C825 C824 1.385 . S
C825 C826 1.389 . S
C826 C825 1.389 . S
C826 C827 1.387 . S
C827 H812 0.930 . S
C827 C822 1.390 . S
C827 C826 1.387 . S
H828 C840 0.930 . S
H829 C842 0.930 . S
H830 C843 0.930 . S
H831 C847 0.959 . S
H832 C847 0.959 . S
H833 C847 0.961 . S
H834 C848 0.960 . S
H835 C848 0.961 . S
H836 C848 0.959 . S
H837 C851 0.929 . S
H838 C852 0.931 . S
H839 C854 0.930 . S
C840 H828 0.930 . S
C840 C841 1.399 . S
C840 C845 1.399 . S
C841 C840 1.399 . S
C841 C842 1.376 . S
C842 H829 0.930 . S
C842 C841 1.376 . S
C842 C843 1.388 . S
C843 H830 0.930 . S
C843 C842 1.388 . S
C843 C844 1.390 . S
C844 C843 1.390 . S
C844 C845 1.394 . S
C844 C850 1.465 . S
C845 C840 1.399 . S
C845 C844 1.394 . S
C845 C846 1.516 . S
C846 C845 1.516 . S
C846 C847 1.502 . S
C846 C848 1.561 . S
C846 C849 1.526 . S
C847 H831 0.959 . S
C847 H832 0.959 . S
C847 H833 0.961 . S
C847 C846 1.502 . S
C848 H834 0.960 . S
C848 H835 0.961 . S
C848 H836 0.959 . S
C848 C846 1.561 . S
C849 C846 1.526 . S
C849 C850 1.396 . S
C849 C854 1.390 . S
C850 C844 1.465 . S
C850 C849 1.396 . S
C850 C851 1.399 . S
C851 H837 0.929 . S
C851 C850 1.399 . S
C851 C852 1.385 . S
C852 H838 0.931 . S
C852 C851 1.385 . S
C852 C853 1.389 . S
C853 C852 1.389 . S
C853 C854 1.387 . S
C854 H839 0.930 . S
C854 C849 1.390 . S
C854 C853 1.387 . S
H855 C867 0.930 . S
H856 C869 0.930 . S
H857 C870 0.930 . S
H858 C874 0.959 . S
H859 C874 0.959 . S
H860 C874 0.961 . S
H861 C875 0.960 . S
H862 C875 0.961 . S
H863 C875 0.959 . S
H864 C878 0.929 . S
H865 C879 0.931 . S
H866 C881 0.930 . S
C867 H855 0.930 . S
C867 C868 1.399 . S
C867 C872 1.399 . S
C868 C867 1.399 . S
C868 C869 1.376 . S
C869 H856 0.930 . S
C869 C868 1.376 . S
C869 C870 1.388 . S
C870 H857 0.930 . S
C870 C869 1.388 . S
C870 C871 1.390 . S
C871 C870 1.390 . S
C871 C872 1.394 . S
C871 C877 1.465 . S
C872 C867 1.399 . S
C872 C871 1.394 . S
C872 C873 1.516 . S
C873 C872 1.516 . S
C873 C874 1.502 . S
C873 C875 1.561 . S
C873 C876 1.526 . S
C874 H858 0.959 . S
C874 H859 0.959 . S
C874 H860 0.961 . S
C874 C873 1.502 . S
C875 H861 0.960 . S
C875 H862 0.961 . S
C875 H863 0.959 . S
C875 C873 1.561 . S
C876 C873 1.526 . S
C876 C877 1.396 . S
C876 C881 1.390 . S
C877 C871 1.465 . S
C877 C876 1.396 . S
C877 C878 1.399 . S
C878 H864 0.929 . S
C878 C877 1.399 . S
C878 C879 1.385 . S
C879 H865 0.931 . S
C879 C878 1.385 . S
C879 C880 1.389 . S
C880 C879 1.389 . S
C880 C881 1.387 . S
C881 H866 0.930 . S
C881 C876 1.390 . S
C881 C880 1.387 . S
H882 C894 0.930 . S
H883 C896 0.930 . S
H884 C897 0.930 . S
H885 C901 0.959 . S
H886 C901 0.959 . S
H887 C901 0.961 . S
H888 C902 0.960 . S
H889 C902 0.961 . S
H890 C902 0.959 . S
H891 C905 0.929 . S
H892 C906 0.931 . S
H893 C908 0.930 . S
C894 H882 0.930 . S
C894 C895 1.399 . S
C894 C899 1.399 . S
C895 C894 1.399 . S
C895 C896 1.376 . S
C896 H883 0.930 . S
C896 C895 1.376 . S
C896 C897 1.388 . S
C897 H884 0.930 . S
C897 C896 1.388 . S
C897 C898 1.390 . S
C898 C897 1.390 . S
C898 C899 1.394 . S
C898 C904 1.465 . S
C899 C894 1.399 . S
C899 C898 1.394 . S
C899 C900 1.516 . S
C900 C899 1.516 . S
C900 C901 1.502 . S
C900 C902 1.561 . S
C900 C903 1.526 . S
C901 H885 0.959 . S
C901 H886 0.959 . S
C901 H887 0.961 . S
C901 C900 1.502 . S
C902 H888 0.960 . S
C902 H889 0.961 . S
C902 H890 0.959 . S
C902 C900 1.561 . S
C903 C900 1.526 . S
C903 C904 1.396 . S
C903 C908 1.390 . S
C904 C898 1.465 . S
C904 C903 1.396 . S
C904 C905 1.399 . S
C905 H891 0.929 . S
C905 C904 1.399 . S
C905 C906 1.385 . S
C906 H892 0.931 . S
C906 C905 1.385 . S
C906 C907 1.389 . S
C907 C906 1.389 . S
C907 C908 1.387 . S
C908 H893 0.930 . S
C908 C903 1.390 . S
C908 C907 1.387 . S
H909 C921 0.930 . S
H910 C923 0.930 . S
H911 C924 0.930 . S
H912 C928 0.959 . S
H913 C928 0.959 . S
H914 C928 0.961 . S
H915 C929 0.960 . S
H916 C929 0.961 . S
H917 C929 0.959 . S
H918 C932 0.929 . S
H919 C933 0.931 . S
H920 C935 0.930 . S
C921 H909 0.930 . S
C921 C922 1.399 . S
C921 C926 1.399 . S
C922 C921 1.399 . S
C922 C923 1.376 . S
C923 H910 0.930 . S
C923 C922 1.376 . S
C923 C924 1.388 . S
C924 H911 0.930 . S
C924 C923 1.388 . S
C924 C925 1.390 . S
C925 C924 1.390 . S
C925 C926 1.394 . S
C925 C931 1.465 1_455 S
C926 C921 1.399 . S
C926 C925 1.394 . S
C926 C927 1.516 1_455 S
C927 C926 1.516 1_655 S
C927 C928 1.502 . S
C927 C929 1.561 1_655 S
C927 C930 1.526 . S
C928 H912 0.959 . S
C928 H913 0.959 . S
C928 H914 0.961 . S
C928 C927 1.502 . S
C929 H915 0.960 . S
C929 H916 0.961 . S
C929 H917 0.959 . S
C929 C927 1.561 1_455 S
C930 C927 1.526 . S
C930 C931 1.396 . S
C930 C935 1.390 . S
C931 C925 1.465 1_655 S
C931 C930 1.396 . S
C931 C932 1.399 . S
C932 H918 0.929 . S
C932 C931 1.399 . S
C932 C933 1.385 . S
C933 H919 0.931 . S
C933 C932 1.385 . S
C933 C934 1.389 . S
C934 C933 1.389 . S
C934 C935 1.387 . S
C935 H920 0.930 . S
C935 C930 1.390 . S
C935 C934 1.387 . S
H936 C948 0.930 . S
H937 C950 0.930 . S
H938 C951 0.930 . S
H939 C955 0.959 . S
H940 C955 0.959 . S
H941 C955 0.961 . S
H942 C956 0.960 . S
H943 C956 0.961 . S
H944 C956 0.959 . S
H945 C959 0.929 . S
H946 C960 0.931 . S
H947 C962 0.930 . S
C948 H936 0.930 . S
C948 C949 1.399 . S
C948 C953 1.399 . S
C949 C948 1.399 . S
C949 C950 1.376 . S
C950 H937 0.930 . S
C950 C949 1.376 . S
C950 C951 1.388 . S
C951 H938 0.930 . S
C951 C950 1.388 . S
C951 C952 1.390 . S
C952 C951 1.390 . S
C952 C953 1.394 . S
C952 C958 1.465 . S
C953 C948 1.399 . S
C953 C952 1.394 . S
C953 C954 1.516 1_565 S
C954 C953 1.516 1_545 S
C954 C955 1.502 . S
C954 C956 1.561 . S
C954 C957 1.526 . S
C955 H939 0.959 . S
C955 H940 0.959 . S
C955 H941 0.961 . S
C955 C954 1.502 . S
C956 H942 0.960 . S
C956 H943 0.961 . S
C956 H944 0.959 . S
C956 C954 1.561 . S
C957 C954 1.526 . S
C957 C958 1.396 1_545 S
C957 C962 1.390 . S
C958 C952 1.465 . S
C958 C957 1.396 1_565 S
C958 C959 1.399 . S
C959 H945 0.929 . S
C959 C958 1.399 . S
C959 C960 1.385 1_565 S
C960 H946 0.931 . S
C960 C959 1.385 1_545 S
C960 C961 1.389 . S
C961 C960 1.389 . S
C961 C962 1.387 . S
C962 H947 0.930 . S
C962 C957 1.390 . S
C962 C961 1.387 . S
H963 C975 0.930 . S
H964 C977 0.930 . S
H965 C978 0.930 . S
H966 C982 0.959 . S
H967 C982 0.959 . S
H968 C982 0.961 . S
H969 C983 0.960 . S
H970 C983 0.961 . S
H971 C983 0.959 . S
H972 C986 0.929 . S
H973 C987 0.931 . S
H974 C989 0.930 . S
C975 H963 0.930 . S
C975 C976 1.399 . S
C975 C980 1.399 . S
C976 C975 1.399 . S
C976 C977 1.376 . S
C977 H964 0.930 . S
C977 C976 1.376 . S
C977 C978 1.388 . S
C978 H965 0.930 . S
C978 C977 1.388 . S
C978 C979 1.390 . S
C979 C978 1.390 . S
C979 C980 1.394 . S
C979 C985 1.465 . S
C980 C975 1.399 . S
C980 C979 1.394 . S
C980 C981 1.516 . S
C981 C980 1.516 . S
C981 C982 1.502 . S
C981 C983 1.561 . S
C981 C984 1.526 . S
C982 H966 0.959 . S
C982 H967 0.959 . S
C982 H968 0.961 . S
C982 C981 1.502 . S
C983 H969 0.960 . S
C983 H970 0.961 . S
C983 H971 0.959 . S
C983 C981 1.561 . S
C984 C981 1.526 . S
C984 C985 1.396 . S
C984 C989 1.390 . S
C985 C979 1.465 . S
C985 C984 1.396 . S
C985 C986 1.399 . S
C986 H972 0.929 . S
C986 C985 1.399 . S
C986 C987 1.385 . S
C987 H973 0.931 . S
C987 C986 1.385 . S
C987 C988 1.389 . S
C988 C987 1.389 . S
C988 C989 1.387 . S
C989 H974 0.930 . S
C989 C984 1.390 . S
C989 C988 1.387 . S
H990 C1002 0.930 . S
H991 C1004 0.930 . S
H992 C1005 0.930 . S
H993 C1009 0.959 . S
H994 C1009 0.959 . S
H995 C1009 0.961 . S
H996 C1010 0.960 . S
H997 C1010 0.961 1_655 S
H998 C1010 0.959 . S
H999 C1013 0.929 1_455 S
H1000 C1014 0.931 . S
H1001 C1016 0.930 . S
C1002 H990 0.930 . S
C1002 C1003 1.399 . S
C1002 C1007 1.399 . S
C1003 C1002 1.399 . S
C1003 C1004 1.376 . S
C1004 H991 0.930 . S
C1004 C1003 1.376 . S
C1004 C1005 1.388 . S
C1005 H992 0.930 . S
C1005 C1004 1.388 . S
C1005 C1006 1.390 . S
C1006 C1005 1.390 . S
C1006 C1007 1.394 . S
C1006 C1012 1.458 1_455 S
C1007 C1002 1.399 . S
C1007 C1006 1.394 . S
C1007 C1008 1.516 1_455 S
C1008 C1007 1.516 1_655 S
C1008 C1009 1.502 . S
C1008 C1010 1.561 1_655 S
C1008 C1011 1.526 . S
C1009 H993 0.959 . S
C1009 H994 0.959 . S
C1009 H995 0.961 . S
C1009 C1008 1.502 . S
C1010 H996 0.960 . S
C1010 H997 0.961 1_455 S
C1010 H998 0.959 . S
C1010 C1008 1.561 1_455 S
C1011 C1008 1.526 . S
C1011 C1012 1.397 . S
C1011 C1016 1.390 . S
C1012 C1006 1.458 1_655 S
C1012 C1011 1.397 . S
C1012 C1013 1.404 . S
C1013 H999 0.929 1_655 S
C1013 C1012 1.404 . S
C1013 C1014 1.385 . S
C1014 H1000 0.931 . S
C1014 C1013 1.385 . S
C1014 C1015 1.389 . S
C1015 C1014 1.389 . S
C1015 C1016 1.387 . S
C1016 H1001 0.930 . S
C1016 C1011 1.390 . S
C1016 C1015 1.387 . S
H1017 C1029 0.930 . S
H1018 C1031 0.930 . S
H1019 C1032 0.930 1_556 S
H1020 C1036 0.959 . S
H1021 C1036 0.959 . S
H1022 C1036 0.961 . S
H1023 C1037 0.960 . S
H1024 C1037 0.961 . S
H1025 C1037 0.959 . S
H1026 C1040 0.929 . S
H1027 C1041 0.931 . S
H1028 C1043 0.930 . S
C1029 H1017 0.930 . S
C1029 C1030 1.399 . S
C1029 C1034 1.399 . S
C1030 C1029 1.399 . S
C1030 C1031 1.376 . S
C1031 H1018 0.930 . S
C1031 C1030 1.376 . S
C1031 C1032 1.388 . S
C1032 H1019 0.930 1_554 S
C1032 C1031 1.388 . S
C1032 C1033 1.390 . S
C1033 C1032 1.390 . S
C1033 C1034 1.394 . S
C1033 C1039 1.465 1_554 S
C1034 C1029 1.399 . S
C1034 C1033 1.394 . S
C1034 C1035 1.516 1_565 S
C1035 C1034 1.516 1_545 S
C1035 C1036 1.502 . S
C1035 C1037 1.561 . S
C1035 C1038 1.526 1_554 S
C1036 H1020 0.959 . S
C1036 H1021 0.959 . S
C1036 H1022 0.961 . S
C1036 C1035 1.502 . S
C1037 H1023 0.960 . S
C1037 H1024 0.961 . S
C1037 H1025 0.959 . S
C1037 C1035 1.561 . S
C1038 C1035 1.526 1_556 S
C1038 C1039 1.396 1_545 S
C1038 C1043 1.390 . S
C1039 C1033 1.465 1_556 S
C1039 C1038 1.396 1_565 S
C1039 C1040 1.399 . S
C1040 H1026 0.929 . S
C1040 C1039 1.399 . S
C1040 C1041 1.385 1_565 S
C1041 H1027 0.931 . S
C1041 C1040 1.385 1_545 S
C1041 C1042 1.389 . S
C1042 C1041 1.389 . S
C1042 C1043 1.387 . S
C1043 H1028 0.930 . S
C1043 C1038 1.390 . S
C1043 C1042 1.387 . S
H1044 C1056 0.930 . S
H1045 C1058 0.930 . S
H1046 C1059 0.930 . S
H1047 C1063 0.959 . S
H1048 C1063 0.959 . S
H1049 C1063 0.961 . S
H1050 C1064 0.960 . S
H1051 C1064 0.961 . S
H1052 C1064 0.959 . S
H1053 C1067 0.929 . S
H1054 C1068 0.931 . S
H1055 C1070 0.930 . S
C1056 H1044 0.930 . S
C1056 C1057 1.399 . S
C1056 C1061 1.399 . S
C1057 C1056 1.399 . S
C1057 C1058 1.376 . S
C1058 H1045 0.930 . S
C1058 C1057 1.376 . S
C1058 C1059 1.388 . S
C1059 H1046 0.930 . S
C1059 C1058 1.388 . S
C1059 C1060 1.390 . S
C1060 C1059 1.390 . S
C1060 C1061 1.394 . S
C1060 C1066 1.465 . S
C1061 C1056 1.399 . S
C1061 C1060 1.394 . S
C1061 C1062 1.516 . S
C1062 C1061 1.516 . S
C1062 C1063 1.502 . S
C1062 C1064 1.561 . S
C1062 C1065 1.526 . S
C1063 H1047 0.959 . S
C1063 H1048 0.959 . S
C1063 H1049 0.961 . S
C1063 C1062 1.502 . S
C1064 H1050 0.960 . S
C1064 H1051 0.961 . S
C1064 H1052 0.959 . S
C1064 C1062 1.561 . S
C1065 C1062 1.526 . S
C1065 C1066 1.396 . S
C1065 C1070 1.390 . S
C1066 C1060 1.465 . S
C1066 C1065 1.396 . S
C1066 C1067 1.399 . S
C1067 H1053 0.929 . S
C1067 C1066 1.399 . S
C1067 C1068 1.385 . S
C1068 H1054 0.931 . S
C1068 C1067 1.385 . S
C1068 C1069 1.389 . S
C1069 C1068 1.389 . S
C1069 C1070 1.387 . S
C1070 H1055 0.930 . S
C1070 C1065 1.390 . S
C1070 C1069 1.387 . S
H1071 C1083 0.930 . S
H1072 C1085 0.930 . S
H1073 C1086 0.930 . S
H1074 C1090 0.959 . S
H1075 C1090 0.959 . S
H1076 C1090 0.961 . S
H1077 C1091 0.960 . S
H1078 C1091 0.961 . S
H1079 C1091 0.959 . S
H1080 C1094 0.929 . S
H1081 C1095 0.931 . S
H1082 C1097 0.930 . S
C1083 H1071 0.930 . S
C1083 C1084 1.399 . S
C1083 C1088 1.399 . S
C1084 C1083 1.399 . S
C1084 C1085 1.376 . S
C1085 H1072 0.930 . S
C1085 C1084 1.376 . S
C1085 C1086 1.388 . S
C1086 H1073 0.930 . S
C1086 C1085 1.388 . S
C1086 C1087 1.390 . S
C1087 C1086 1.390 . S
C1087 C1088 1.394 . S
C1087 C1093 1.465 . S
C1088 C1083 1.399 . S
C1088 C1087 1.394 . S
C1088 C1089 1.516 . S
C1089 C1088 1.516 . S
C1089 C1090 1.502 . S
C1089 C1091 1.561 . S
C1089 C1092 1.526 . S
C1090 H1074 0.959 . S
C1090 H1075 0.959 . S
C1090 H1076 0.961 . S
C1090 C1089 1.502 . S
C1091 H1077 0.960 . S
C1091 H1078 0.961 . S
C1091 H1079 0.959 . S
C1091 C1089 1.561 . S
C1092 C1089 1.526 . S
C1092 C1093 1.396 . S
C1092 C1097 1.390 . S
C1093 C1087 1.465 . S
C1093 C1092 1.396 . S
C1093 C1094 1.399 . S
C1094 H1080 0.929 . S
C1094 C1093 1.399 . S
C1094 C1095 1.385 . S
C1095 H1081 0.931 . S
C1095 C1094 1.385 . S
C1095 C1096 1.389 . S
C1096 C1095 1.389 . S
C1096 C1097 1.387 . S
C1097 H1082 0.930 . S
C1097 C1092 1.390 . S
C1097 C1096 1.387 . S
H1098 C1110 0.930 . S
H1099 C1112 0.930 . S
H1100 C1113 0.930 . S
H1101 C1117 0.959 . S
H1102 C1117 0.959 . S
H1103 C1117 0.961 . S
H1104 C1118 0.960 . S
H1105 C1118 0.961 . S
H1106 C1118 0.959 . S
H1107 C1121 0.929 . S
H1108 C1122 0.931 . S
H1109 C1124 0.930 . S
C1110 H1098 0.930 . S
C1110 C1111 1.399 . S
C1110 C1115 1.399 . S
C1111 C1110 1.399 . S
C1111 C1112 1.376 . S
C1112 H1099 0.930 . S
C1112 C1111 1.376 . S
C1112 C1113 1.388 . S
C1113 H1100 0.930 . S
C1113 C1112 1.388 . S
C1113 C1114 1.390 . S
C1114 C1113 1.390 . S
C1114 C1115 1.394 . S
C1114 C1120 1.465 . S
C1115 C1110 1.399 . S
C1115 C1114 1.394 . S
C1115 C1116 1.516 . S
C1116 C1115 1.516 . S
C1116 C1117 1.502 . S
C1116 C1118 1.561 . S
C1116 C1119 1.526 . S
C1117 H1101 0.959 . S
C1117 H1102 0.959 . S
C1117 H1103 0.961 . S
C1117 C1116 1.502 . S
C1118 H1104 0.960 . S
C1118 H1105 0.961 . S
C1118 H1106 0.959 . S
C1118 C1116 1.561 . S
C1119 C1116 1.526 . S
C1119 C1120 1.396 . S
C1119 C1124 1.390 . S
C1120 C1114 1.465 . S
C1120 C1119 1.396 . S
C1120 C1121 1.399 . S
C1121 H1107 0.929 . S
C1121 C1120 1.399 . S
C1121 C1122 1.385 . S
C1122 H1108 0.931 . S
C1122 C1121 1.385 . S
C1122 C1123 1.389 . S
C1123 C1122 1.389 . S
C1123 C1124 1.387 . S
C1124 H1109 0.930 . S
C1124 C1119 1.390 . S
C1124 C1123 1.387 . S
H1125 C1137 0.930 . S
H1126 C1139 0.930 . S
H1127 C1140 0.930 . S
H1128 C1144 0.959 . S
H1129 C1144 0.959 . S
H1130 C1144 0.961 . S
H1131 C1145 0.960 . S
H1132 C1145 0.961 . S
H1133 C1145 0.959 . S
H1134 C1148 0.929 . S
H1135 C1149 0.931 . S
H1136 C1151 0.930 . S
C1137 H1125 0.930 . S
C1137 C1138 1.399 . S
C1137 C1142 1.399 . S
C1138 C1137 1.399 . S
C1138 C1139 1.376 . S
C1139 H1126 0.930 . S
C1139 C1138 1.376 . S
C1139 C1140 1.388 . S
C1140 H1127 0.930 . S
C1140 C1139 1.388 . S
C1140 C1141 1.390 . S
C1141 C1140 1.390 . S
C1141 C1142 1.394 . S
C1141 C1147 1.465 . S
C1142 C1137 1.399 . S
C1142 C1141 1.394 . S
C1142 C1143 1.516 . S
C1143 C1142 1.516 . S
C1143 C1144 1.502 . S
C1143 C1145 1.561 . S
C1143 C1146 1.526 . S
C1144 H1128 0.959 . S
C1144 H1129 0.959 . S
C1144 H1130 0.961 . S
C1144 C1143 1.502 . S
C1145 H1131 0.960 . S
C1145 H1132 0.961 . S
C1145 H1133 0.959 . S
C1145 C1143 1.561 . S
C1146 C1143 1.526 . S
C1146 C1147 1.396 . S
C1146 C1151 1.390 . S
C1147 C1141 1.465 . S
C1147 C1146 1.396 . S
C1147 C1148 1.399 . S
C1148 H1134 0.929 . S
C1148 C1147 1.399 . S
C1148 C1149 1.385 . S
C1149 H1135 0.931 . S
C1149 C1148 1.385 . S
C1149 C1150 1.389 . S
C1150 C1149 1.389 . S
C1150 C1151 1.387 . S
C1151 H1136 0.930 . S
C1151 C1146 1.390 . S
C1151 C1150 1.387 . S
H1152 C1164 0.930 . S
H1153 C1166 0.930 . S
H1154 C1167 0.930 . S
H1155 C1171 0.959 . S
H1156 C1171 0.959 . S
H1157 C1171 0.961 . S
H1158 C1172 0.960 . S
H1159 C1172 0.961 . S
H1160 C1172 0.959 . S
H1161 C1175 0.929 . S
H1162 C1176 0.931 . S
H1163 C1178 0.930 . S
C1164 H1152 0.930 . S
C1164 C1165 1.399 . S
C1164 C1169 1.399 . S
C1165 C1164 1.399 . S
C1165 C1166 1.376 . S
C1166 H1153 0.930 . S
C1166 C1165 1.376 . S
C1166 C1167 1.388 . S
C1167 H1154 0.930 . S
C1167 C1166 1.388 . S
C1167 C1168 1.390 . S
C1168 C1167 1.390 . S
C1168 C1169 1.394 . S
C1168 C1174 1.465 . S
C1169 C1164 1.399 . S
C1169 C1168 1.394 . S
C1169 C1170 1.516 . S
C1170 C1169 1.516 . S
C1170 C1171 1.502 . S
C1170 C1172 1.561 . S
C1170 C1173 1.526 . S
C1171 H1155 0.959 . S
C1171 H1156 0.959 . S
C1171 H1157 0.961 . S
C1171 C1170 1.502 . S
C1172 H1158 0.960 . S
C1172 H1159 0.961 . S
C1172 H1160 0.959 . S
C1172 C1170 1.561 . S
C1173 C1170 1.526 . S
C1173 C1174 1.396 . S
C1173 C1178 1.390 . S
C1174 C1168 1.465 . S
C1174 C1173 1.396 . S
C1174 C1175 1.399 . S
C1175 H1161 0.929 . S
C1175 C1174 1.399 . S
C1175 C1176 1.385 . S
C1176 H1162 0.931 . S
C1176 C1175 1.385 . S
C1176 C1177 1.389 . S
C1177 C1176 1.389 . S
C1177 C1178 1.387 . S
C1178 H1163 0.930 . S
C1178 C1173 1.390 . S
C1178 C1177 1.387 . S
H1179 C1191 0.930 . S
H1180 C1193 0.930 . S
H1181 C1194 0.930 . S
H1182 C1198 0.959 . S
H1183 C1198 0.959 . S
H1184 C1198 0.961 . S
H1185 C1199 0.960 . S
H1186 C1199 0.961 . S
H1187 C1199 0.959 . S
H1188 C1202 0.929 . S
H1189 C1203 0.931 . S
H1190 C1205 0.930 . S
C1191 H1179 0.930 . S
C1191 C1192 1.399 . S
C1191 C1196 1.399 . S
C1192 C1191 1.399 . S
C1192 C1193 1.376 . S
C1193 H1180 0.930 . S
C1193 C1192 1.376 . S
C1193 C1194 1.388 . S
C1194 H1181 0.930 . S
C1194 C1193 1.388 . S
C1194 C1195 1.390 . S
C1195 C1194 1.390 . S
C1195 C1196 1.394 . S
C1195 C1201 1.465 . S
C1196 C1191 1.399 . S
C1196 C1195 1.394 . S
C1196 C1197 1.516 . S
C1197 C1196 1.516 . S
C1197 C1198 1.502 . S
C1197 C1199 1.561 . S
C1197 C1200 1.526 . S
C1198 H1182 0.959 . S
C1198 H1183 0.959 . S
C1198 H1184 0.961 . S
C1198 C1197 1.502 . S
C1199 H1185 0.960 . S
C1199 H1186 0.961 . S
C1199 H1187 0.959 . S
C1199 C1197 1.561 . S
C1200 C1197 1.526 . S
C1200 C1201 1.396 . S
C1200 C1205 1.390 . S
C1201 C1195 1.465 . S
C1201 C1200 1.396 . S
C1201 C1202 1.399 . S
C1202 H1188 0.929 . S
C1202 C1201 1.399 . S
C1202 C1203 1.385 . S
C1203 H1189 0.931 . S
C1203 C1202 1.385 . S
C1203 C1204 1.389 . S
C1204 C1203 1.389 . S
C1204 C1205 1.387 . S
C1205 H1190 0.930 . S
C1205 C1200 1.390 . S
C1205 C1204 1.387 . S
C409 C172 1.402 . S
C421 N13 1.528 . S
C436 C7 1.397 . S
C448 N46 1.525 . S
C463 C40 1.495 . S
C475 N79 1.544 . S
C490 N112 1.524 . S
C502 C73 1.402 . S
C517 N145 1.534 . S
C529 C106 1.468 . S
C544 C139 1.410 . S
C556 N178 1.524 . S
C571 C238 1.406 . S
C583 N211 1.524 . S
C598 C271 1.462 . S
C610 N244 1.542 . S
C625 C304 1.425 . S
C637 N277 1.526 . S
C652 C337 1.410 . S
C664 N310 1.524 . S
C679 C370 1.448 . S
C691 N343 1.540 . S
C706 C205 1.454 . S
C718 N376 1.541 . S
C733 N266 1.224 . S
C745 N2 1.252 . S
C760 N35 1.293 . S
C772 N299 1.215 . S
C787 N68 1.307 . S
C799 N332 1.225 . S
C814 N101 1.214 . S
C826 N365 1.292 . S
C841 N134 1.250 . S
C853 N200 1.311 . S
C868 N233 1.213 . S
C880 N167 1.282 . S
C895 C318 1.154 . S
C907 C21 1.164 . S
C922 C351 1.149 . S
C934 C54 1.155 . S
C949 C87 1.170 . S
C961 C384 1.178 . S
C976 C120 1.180 . S
C988 C219 1.179 . S
C1003 C153 1.151 . S
C1015 C252 1.158 . S
C1030 C285 1.169 . S
C1042 C186 1.177 . S
C1057 C18 1.003 . S
C1069 C216 1.088 . S
C1084 C249 1.082 . S
C1096 C51 1.020 . S
C1111 C84 1.066 . S
C1123 C282 1.041 . S
C1138 C315 1.000 . S
C1150 C117 1.083 . S
C1165 C348 1.076 . S
C1177 C150 1.003 . S
C1192 C381 1.023 . S
C1204 C183 1.049 . S
