# Generated by pormake.
# Topology lcy-e, (6)-cn, num edge types: 1
# Building blocks:
#     Node 0, Type 0, BuildingBlock: BETFAJ_clean_sbu_0, # of connection points: 6
#     Node 1, Type 0, BuildingBlock: BETFAJ_clean_sbu_0, # of connection points: 6
#     Node 2, Type 0, BuildingBlock: BETFAJ_clean_sbu_0, # of connection points: 6
#     Node 3, Type 0, BuildingBlock: BETFAJ_clean_sbu_0, # of connection points: 6
#     Node 4, Type 0, BuildingBlock: BETFAJ_clean_sbu_0, # of connection points: 6
#     Node 5, Type 0, BuildingBlock: BETFAJ_clean_sbu_0, # of connection points: 6
#     Node 6, Type 0, BuildingBlock: BETFAJ_clean_sbu_0, # of connection points: 6
#     Node 7, Type 0, BuildingBlock: BETFAJ_clean_sbu_0, # of connection points: 6
#     Node 8, Type 0, BuildingBlock: BETFAJ_clean_sbu_0, # of connection points: 6
#     Node 9, Type 0, BuildingBlock: BETFAJ_clean_sbu_0, # of connection points: 6
#     Node 10, Type 0, BuildingBlock: BETFAJ_clean_sbu_0, # of connection points: 6
#     Node 11, Type 0, BuildingBlock: BETFAJ_clean_sbu_0, # of connection points: 6
#     Edge 12, Type (0, 0), BuildingBlock: KIFKEQ_clean_linker_1, # of connection points: 2
#     Edge 13, Type (0, 0), BuildingBlock: KIFKEQ_clean_linker_1, # of connection points: 2
#     Edge 14, Type (0, 0), BuildingBlock: KIFKEQ_clean_linker_1, # of connection points: 2
#     Edge 15, Type (0, 0), BuildingBlock: KIFKEQ_clean_linker_1, # of connection points: 2
#     Edge 16, Type (0, 0), BuildingBlock: KIFKEQ_clean_linker_1, # of connection points: 2
#     Edge 17, Type (0, 0), BuildingBlock: KIFKEQ_clean_linker_1, # of connection points: 2
#     Edge 18, Type (0, 0), BuildingBlock: KIFKEQ_clean_linker_1, # of connection points: 2
#     Edge 19, Type (0, 0), BuildingBlock: KIFKEQ_clean_linker_1, # of connection points: 2
#     Edge 20, Type (0, 0), BuildingBlock: KIFKEQ_clean_linker_1, # of connection points: 2
#     Edge 21, Type (0, 0), BuildingBlock: KIFKEQ_clean_linker_1, # of connection points: 2
#     Edge 22, Type (0, 0), BuildingBlock: KIFKEQ_clean_linker_1, # of connection points: 2
#     Edge 23, Type (0, 0), BuildingBlock: KIFKEQ_clean_linker_1, # of connection points: 2
#     Edge 24, Type (0, 0), BuildingBlock: KIFKEQ_clean_linker_1, # of connection points: 2
#     Edge 25, Type (0, 0), BuildingBlock: KIFKEQ_clean_linker_1, # of connection points: 2
#     Edge 26, Type (0, 0), BuildingBlock: KIFKEQ_clean_linker_1, # of connection points: 2
#     Edge 27, Type (0, 0), BuildingBlock: KIFKEQ_clean_linker_1, # of connection points: 2
#     Edge 28, Type (0, 0), BuildingBlock: KIFKEQ_clean_linker_1, # of connection points: 2
#     Edge 29, Type (0, 0), BuildingBlock: KIFKEQ_clean_linker_1, # of connection points: 2
#     Edge 30, Type (0, 0), BuildingBlock: KIFKEQ_clean_linker_1, # of connection points: 2
#     Edge 31, Type (0, 0), BuildingBlock: KIFKEQ_clean_linker_1, # of connection points: 2
#     Edge 32, Type (0, 0), BuildingBlock: KIFKEQ_clean_linker_1, # of connection points: 2
#     Edge 33, Type (0, 0), BuildingBlock: KIFKEQ_clean_linker_1, # of connection points: 2
#     Edge 34, Type (0, 0), BuildingBlock: KIFKEQ_clean_linker_1, # of connection points: 2
#     Edge 35, Type (0, 0), BuildingBlock: KIFKEQ_clean_linker_1, # of connection points: 2
#     Edge 36, Type (0, 0), BuildingBlock: KIFKEQ_clean_linker_1, # of connection points: 2
#     Edge 37, Type (0, 0), BuildingBlock: KIFKEQ_clean_linker_1, # of connection points: 2
#     Edge 38, Type (0, 0), BuildingBlock: KIFKEQ_clean_linker_1, # of connection points: 2
#     Edge 39, Type (0, 0), BuildingBlock: KIFKEQ_clean_linker_1, # of connection points: 2
#     Edge 40, Type (0, 0), BuildingBlock: KIFKEQ_clean_linker_1, # of connection points: 2
#     Edge 41, Type (0, 0), BuildingBlock: KIFKEQ_clean_linker_1, # of connection points: 2
#     Edge 42, Type (0, 0), BuildingBlock: KIFKEQ_clean_linker_1, # of connection points: 2
#     Edge 43, Type (0, 0), BuildingBlock: KIFKEQ_clean_linker_1, # of connection points: 2
#     Edge 44, Type (0, 0), BuildingBlock: KIFKEQ_clean_linker_1, # of connection points: 2
#     Edge 45, Type (0, 0), BuildingBlock: KIFKEQ_clean_linker_1, # of connection points: 2
#     Edge 46, Type (0, 0), BuildingBlock: KIFKEQ_clean_linker_1, # of connection points: 2
#     Edge 47, Type (0, 0), BuildingBlock: KIFKEQ_clean_linker_1, # of connection points: 2
# Relax obj value: 0.202
# Max RMSD: 0.312
# Mean RMSD: 0.287
data_MOF--net-lcy-e--node1-BETFAJ_clean_sbu_0--edge1-KIFKEQ_clean_linker_1
_symmetry_space_group_name_H-M    P1
_symmetry_Int_Tables_number       1
_symmetry_cell_setting            triclinic
loop_
_symmetry_equiv_pos_as_xyz
'x, y, z'
_cell_length_a     45.939966
_cell_length_b     42.603495
_cell_length_c     45.94576
_cell_angle_alpha  89.566235
_cell_angle_beta   90.92382
_cell_angle_gamma 88.468334
loop_
_atom_site_label
_atom_site_type_symbol
_atom_site_fract_x
_atom_site_fract_y
_atom_site_fract_z
_atom_type_partial_charge
Sm0 Sm 0.14704 0.27628 0.47528 0.0
Sm1 Sm 0.16199 0.21638 0.51623 0.0
C2 C 0.14907 0.33144 0.44915 0.0
C3 C 0.15218 0.34148 0.41883 0.0
C4 C 0.16029 0.37219 0.41256 0.0
C5 C 0.16635 0.38097 0.38398 0.0
C6 C 0.16444 0.3591 0.36127 0.0
C7 C 0.15556 0.32851 0.3676 0.0
C8 C 0.1496 0.31973 0.39621 0.0
C9 C 0.11355 0.22615 0.45821 0.0
C10 C 0.20017 0.22511 0.45799 0.0
C11 C 0.16329 0.16409 0.54753 0.0
C12 C 0.14551 0.14203 0.56397 0.0
C13 C 0.12057 0.1285 0.55176 0.0
C14 C 0.10625 0.10489 0.56683 0.0
C15 C 0.11682 0.09435 0.59418 0.0
C16 C 0.14102 0.10892 0.60675 0.0
C17 C 0.15522 0.13245 0.59177 0.0
C18 C 0.19507 0.26915 0.52359 0.0
C19 C 0.11112 0.26645 0.53581 0.0
O20 O 0.17209 0.31683 0.46046 0.0
O21 O 0.1245 0.31822 0.45568 0.0
O22 O 0.13255 0.22661 0.4782 0.0
O23 O 0.11257 0.25331 0.44522 0.0
O24 O 0.1887 0.2539 0.4548 0.0
O25 O 0.19059 0.20497 0.47738 0.0
O26 O 0.1603 0.16463 0.51909 0.0
O27 O 0.16745 0.19178 0.55889 0.0
O28 O 0.16823 0.26834 0.51879 0.0
O29 O 0.20561 0.24083 0.52778 0.0
O30 O 0.11952 0.23649 0.5355 0.0
O31 O 0.1213 0.28722 0.51709 0.0
H32 H 0.16257 0.38916 0.42984 0.0
H33 H 0.17279 0.40482 0.37969 0.0
H34 H 0.15418 0.31109 0.35063 0.0
H35 H 0.14373 0.29575 0.40081 0.0
H36 H 0.11263 0.13544 0.5303 0.0
H37 H 0.08768 0.09405 0.55661 0.0
H38 H 0.14933 0.10172 0.62804 0.0
H39 H 0.17437 0.14258 0.6016 0.0
Sm40 Sm 1.00173 0.8593 0.73767 0.0
Sm41 Sm 0.04968 0.88164 0.77967 0.0
C42 C 0.9557 0.85459 0.70247 0.0
C43 C 0.94461 0.86668 0.67415 0.0
C44 C 0.95567 0.89386 0.66135 0.0
C45 C 0.94338 0.90604 0.63534 0.0
C46 C 0.91966 0.89135 0.6219 0.0
C47 C 0.90928 0.86365 0.63449 0.0
C48 C 0.92162 0.85149 0.66032 0.0
C49 C 0.0519 0.82378 0.73616 0.0
C50 C 0.04214 0.92018 0.71955 0.0
C51 C 0.09553 0.88869 0.81467 0.0
C52 C 0.11788 0.87147 0.83229 0.0
C53 C 0.1286 0.84158 0.82439 0.0
C54 C 0.15153 0.82701 0.84038 0.0
C55 C 0.16404 0.84203 0.86458 0.0
C56 C 0.15281 0.87177 0.87252 0.0
C57 C 0.13 0.88626 0.85656 0.0
C58 C 0.99548 0.91124 0.78445 0.0
C59 C 1.01076 0.8233 0.79952 0.0
O60 O 0.95733 0.875 0.72351 0.0
O61 O 0.978 0.83486 0.70214 0.0
O62 O 0.05112 0.85351 0.73785 0.0
O63 O 0.02602 0.8125 0.73338 0.0
O64 O 0.01877 0.90358 0.714 0.0
O65 O 0.05894 0.91469 0.74254 0.0
O66 O 0.09719 0.88617 0.78639 0.0
O67 O 0.06876 0.88915 0.82396 0.0
O68 O 1.00097 0.88275 0.78054 0.0
O69 O 0.01963 0.92608 0.788 0.0
O70 O 0.03754 0.83374 0.79859 0.0
O71 O 0.9907 0.83288 0.78009 0.0
H72 H 0.97338 0.90597 0.67177 0.0
H73 H 0.9518 0.92745 0.62627 0.0
H74 H 0.8914 0.85143 0.62444 0.0
H75 H 0.91286 0.83044 0.66979 0.0
H76 H 0.11954 0.82974 0.80567 0.0
H77 H 0.15942 0.80398 0.83385 0.0
H78 H 0.16215 0.88429 0.89069 0.0
H79 H 0.12221 0.90943 0.86285 0.0
Sm80 Sm 0.3838 0.77235 0.02601 0.0
Sm81 Sm 0.39554 0.731 0.97321 0.0
C82 C 0.3837 0.81001 0.07157 0.0
C83 C 0.40085 0.83519 0.08514 0.0
C84 C 0.42685 0.8287 0.10094 0.0
C85 C 0.44143 0.85288 0.11513 0.0
C86 C 0.43021 0.88396 0.11394 0.0
C87 C 0.40465 0.8904 0.09749 0.0
C88 C 0.39011 0.86633 0.08343 0.0
C89 C 0.33799 0.77057 0.98669 0.0
C90 C 0.43268 0.79496 0.97856 0.0
C91 C 0.39951 0.70854 0.91949 0.0
C92 C 0.38419 0.69329 0.89498 0.0
C93 C 0.38301 0.7085 0.86774 0.0
C94 C 0.37155 0.6936 0.84324 0.0
C95 C 0.36105 0.66298 0.84533 0.0
C96 C 0.36131 0.64816 0.87289 0.0
C97 C 0.37279 0.66312 0.89746 0.0
C98 C 0.42906 0.71662 0.02251 0.0
C99 C 0.35654 0.70278 0.023 0.0
O100 O 0.39418 0.78104 0.07273 0.0
O101 O 0.37057 0.81704 0.04677 0.0
O102 O 0.36448 0.77244 0.98007 0.0
O103 O 0.33505 0.77018 1.01467 0.0
O104 O 0.41736 0.80252 1.00177 0.0
O105 O 0.42936 0.76813 0.96501 0.0
O106 O 0.39183 0.73754 0.92526 0.0
O107 O 0.40644 0.69201 0.94284 0.0
O108 O 0.4225 0.74356 1.01278 0.0
O109 O 0.41937 0.69546 1.00482 0.0
O110 O 0.3577 0.70628 0.99443 0.0
O111 O 0.36905 0.72308 0.04074 0.0
H112 H 0.43565 0.80492 0.10281 0.0
H113 H 0.46093 0.84707 0.12782 0.0
H114 H 0.39565 0.9141 0.09567 0.0
H115 H 0.37009 0.87209 0.07154 0.0
H116 H 0.39187 0.73166 0.86518 0.0
H117 H 0.37213 0.70562 0.82242 0.0
H118 H 0.35305 0.62474 0.8754 0.0
H119 H 0.37331 0.65081 0.91818 0.0
Sm120 Sm 0.55375 0.12221 0.24532 0.0
Sm121 Sm 0.50625 0.10686 0.28843 0.0
C122 C 0.60062 0.12012 0.21244 0.0
C123 C 0.60959 0.10829 0.18382 0.0
C124 C 0.63912 0.10149 0.1791 0.0
C125 C 0.64836 0.09061 0.15207 0.0
C126 C 0.62823 0.08639 0.12907 0.0
C127 C 0.59847 0.09264 0.13411 0.0
C128 C 0.58923 0.10346 0.16128 0.0
C129 C 0.50396 0.15728 0.23545 0.0
C130 C 0.5123 0.06027 0.23376 0.0
C131 C 0.46074 0.10484 0.32344 0.0
C132 C 0.43693 0.12306 0.33726 0.0
C133 C 0.42445 0.1504 0.32444 0.0
C134 C 0.39999 0.16528 0.33686 0.0
C135 C 0.38755 0.15307 0.36229 0.0
C136 C 0.40059 0.12591 0.37513 0.0
C137 C 0.42496 0.11121 0.3628 0.0
C138 C 0.56106 0.07891 0.29943 0.0
C139 C 0.54454 0.16732 0.30058 0.0
O140 O 0.59525 0.09884 0.23218 0.0
O141 O 0.58206 0.14399 0.21255 0.0
O142 O 0.50418 0.12837 0.2427 0.0
O143 O 0.53009 0.16714 0.2313 0.0
O144 O 0.53518 0.0764 0.22597 0.0
O145 O 0.4966 0.06816 0.25637 0.0
O146 O 0.45903 0.1012 0.29525 0.0
O147 O 0.48741 0.10841 0.333 0.0
O148 O 0.55504 0.10632 0.29128 0.0
O149 O 0.53703 0.06432 0.30397 0.0
O150 O 0.51744 0.15789 0.29911 0.0
O151 O 0.56482 0.15347 0.28458 0.0
H152 H 0.6551 0.1047 0.19635 0.0
H153 H 0.67134 0.08543 0.14923 0.0
H154 H 0.5824 0.08986 0.11689 0.0
H155 H 0.56626 0.10832 0.16461 0.0
H156 H 0.43328 0.15993 0.30462 0.0
H157 H 0.39082 0.18628 0.32649 0.0
H158 H 0.39146 0.11532 0.39431 0.0
H159 H 0.43401 0.08994 0.37286 0.0
Sm160 Sm 0.64174 0.23917 0.55664 0.0
Sm161 Sm 0.65398 0.29513 0.51709 0.0
C162 C 0.64334 0.18863 0.59085 0.0
C163 C 0.65601 0.17771 0.61924 0.0
C164 C 0.68095 0.15789 0.61991 0.0
C165 C 0.69198 0.1456 0.64627 0.0
C166 C 0.67824 0.15259 0.67269 0.0
C167 C 0.65368 0.17304 0.67214 0.0
C168 C 0.64263 0.18537 0.64571 0.0
C169 C 0.60188 0.28734 0.56114 0.0
C170 C 0.69356 0.28868 0.57503 0.0
C171 C 0.65496 0.34705 0.48473 0.0
C172 C 0.63872 0.37131 0.46759 0.0
C173 C 0.60934 0.37903 0.47268 0.0
C174 C 0.59553 0.4043 0.45771 0.0
C175 C 0.611 0.42239 0.43765 0.0
C176 C 0.64025 0.41402 0.43235 0.0
C177 C 0.65391 0.38878 0.44714 0.0
C178 C 0.6884 0.24128 0.50871 0.0
C179 C 0.60599 0.24591 0.49572 0.0
O180 O 0.66139 0.19277 0.56949 0.0
O181 O 0.62235 0.20998 0.59121 0.0
O182 O 0.62912 0.29128 0.55944 0.0
O183 O 0.59561 0.25787 0.56188 0.0
O184 O 0.68228 0.26074 0.5789 0.0
O185 O 0.68419 0.30791 0.55427 0.0
O186 O 0.6515 0.34695 0.51292 0.0
O187 O 0.65812 0.31889 0.47387 0.0
O188 O 0.66174 0.24308 0.5133 0.0
O189 O 0.69858 0.26936 0.50662 0.0
O190 O 0.61131 0.27615 0.49783 0.0
O191 O 0.61889 0.2252 0.51374 0.0
H192 H 0.69171 0.15139 0.59994 0.0
H193 H 0.71118 0.1303 0.6459 0.0
H194 H 0.64238 0.17865 0.69201 0.0
H195 H 0.62324 0.20039 0.64601 0.0
H196 H 0.59727 0.36591 0.48854 0.0
H197 H 0.573 0.41014 0.46233 0.0
H198 H 0.65265 0.42696 0.41663 0.0
H199 H 0.67661 0.38325 0.44296 0.0
Sm200 Sm 0.99662 0.37405 0.73989 0.0
Sm201 Sm 0.03582 0.35427 0.78853 0.0
C202 C 0.96758 0.38755 0.69099 0.0
C203 C 0.94002 0.37574 0.67913 0.0
C204 C 0.93148 0.34508 0.68564 0.0
C205 C 0.90425 0.33474 0.67647 0.0
C206 C 0.88493 0.35492 0.66079 0.0
C207 C 0.89373 0.3855 0.654 0.0
C208 C 0.92104 0.3958 0.66312 0.0
C209 C 0.98365 0.40342 0.79166 0.0
C210 C 0.97469 0.3167 0.77902 0.0
C211 C 0.06058 0.33867 0.83916 0.0
C212 C 0.07652 0.35352 0.86296 0.0
C213 C 0.07321 0.38581 0.86827 0.0
C214 C 0.08782 0.39924 0.89181 0.0
C215 C 0.1061 0.38057 0.91013 0.0
C216 C 0.10954 0.34831 0.90439 0.0
C217 C 0.09484 0.33493 0.881 0.0
C218 C 0.04859 0.32609 0.73622 0.0
C219 C 0.05963 0.40849 0.74994 0.0
O220 O 0.98954 0.3674 0.69243 0.0
O221 O 0.96524 0.40448 0.71444 0.0
O222 O 1.00902 0.39913 0.78197 0.0
O223 O 0.96444 0.39157 0.77423 0.0
O224 O 0.97181 0.33005 0.75314 0.0
O225 O 0.99562 0.32478 0.79715 0.0
O226 O 0.03308 0.34696 0.83609 0.0
O227 O 0.07405 0.33614 0.81441 0.0
O228 O 0.02355 0.33006 0.7465 0.0
O229 O 0.06822 0.33557 0.75444 0.0
O230 O 0.05797 0.39954 0.77728 0.0
O231 O 0.04025 0.39906 0.73038 0.0
H232 H 0.94564 0.32927 0.6983 0.0
H233 H 0.89803 0.3112 0.68234 0.0
H234 H 0.87948 0.40148 0.64164 0.0
H235 H 0.92716 0.41959 0.65807 0.0
H236 H 0.0592 0.40053 0.85438 0.0
H237 H 0.08499 0.42419 0.89558 0.0
H238 H 0.12317 0.33328 0.91836 0.0
H239 H 0.09753 0.30995 0.87718 0.0
Sm240 Sm 0.9015 0.75389 0.05032 0.0
Sm241 Sm 0.88316 0.69908 1.0126 0.0
C242 C 0.90373 0.80429 0.0838 0.0
C243 C 0.89359 0.81446 0.11275 0.0
C244 C 0.87627 0.84195 0.11493 0.0
C245 C 0.86656 0.85227 0.14202 0.0
C246 C 0.8741 0.83541 0.16761 0.0
C247 C 0.89139 0.80778 0.16539 0.0
C248 C 0.90095 0.79734 0.13824 0.0
C249 C 0.9387 0.70311 0.0548 0.0
C250 C 0.84911 0.70667 0.07227 0.0
C251 C 0.87807 0.64816 0.97997 0.0
C252 C 0.8925 0.62658 0.9594 0.0
C253 C 0.9228 0.62111 0.95969 0.0
C254 C 0.93534 0.59851 0.94125 0.0
C255 C 0.91779 0.58103 0.92221 0.0
C256 C 0.8875 0.58706 0.9219 0.0
C257 C 0.87507 0.60957 0.94021 0.0
C258 C 0.85115 0.75503 1.00503 0.0
C259 C 0.93296 0.74462 0.98852 0.0
O260 O 0.88359 0.80049 0.06381 0.0
O261 O 0.92455 0.78277 0.08299 0.0
O262 O 0.91114 0.70115 0.05397 0.0
O263 O 0.94685 0.73201 0.05486 0.0
O264 O 0.86158 0.73422 0.07471 0.0
O265 O 0.85611 0.68689 0.05159 0.0
O266 O 0.88737 0.6475 1.00702 0.0
O267 O 0.87059 0.67639 0.97076 0.0
O268 O 0.87813 0.75159 1.00792 0.0
O269 O 0.83917 0.72771 1.00483 0.0
O270 O 0.92503 0.71519 0.99104 0.0
O271 O 0.92334 0.76635 1.00682 0.0
H272 H 0.87036 0.85558 0.09562 0.0
H273 H 0.8536 0.87384 0.14297 0.0
H274 H 0.89734 0.79409 0.18463 0.0
H275 H 0.91411 0.77591 0.13726 0.0
H276 H 0.93668 0.63399 0.97439 0.0
H277 H 0.95875 0.59475 0.9419 0.0
H278 H 0.87316 0.57378 0.90803 0.0
H279 H 0.85163 0.61321 0.93984 0.0
Sm280 Sm 0.54379 0.61752 0.2391 0.0
Sm281 Sm 0.50142 0.64014 0.28553 0.0
C282 C 0.57865 0.61233 0.19383 0.0
C283 C 0.60682 0.62415 0.18418 0.0
C284 C 0.61126 0.6288 0.1544 0.0
C285 C 0.63789 0.63945 0.14452 0.0
C286 C 0.66079 0.64557 0.16425 0.0
C287 C 0.65601 0.64153 0.19424 0.0
C288 C 0.62924 0.63097 0.20412 0.0
C289 C 0.54835 0.58341 0.28961 0.0
C290 C 0.55878 0.68075 0.27853 0.0
C291 C 0.46612 0.64683 0.33041 0.0
C292 C 0.45144 0.62879 0.35315 0.0
C293 C 0.46314 0.60018 0.36412 0.0
C294 C 0.44978 0.5849 0.38734 0.0
C295 C 0.42444 0.59793 0.39988 0.0
C296 C 0.41269 0.62634 0.38836 0.0
C297 C 0.42603 0.64153 0.36527 0.0
C298 C 0.49325 0.66703 0.23042 0.0
C299 C 0.48478 0.57956 0.24782 0.0
O300 O 0.55718 0.63302 0.19509 0.0
O301 O 0.57922 0.59244 0.21569 0.0
O302 O 0.54482 0.6131 0.28864 0.0
O303 O 0.5515 0.57162 0.26386 0.0
O304 O 0.56461 0.6637 0.25526 0.0
O305 O 0.53671 0.67479 0.29536 0.0
O306 O 0.49447 0.64813 0.33251 0.0
O307 O 0.45667 0.64411 0.30357 0.0
O308 O 0.49932 0.63903 0.23669 0.0
O309 O 0.48931 0.68279 0.25424 0.0
O310 O 0.4861 0.59068 0.27451 0.0
O311 O 0.50276 0.58956 0.22767 0.0
H312 H 0.59411 0.62404 0.1387 0.0
H313 H 0.64051 0.64292 0.12134 0.0
H314 H 0.67316 0.64581 0.21004 0.0
H315 H 0.62616 0.62783 0.22728 0.0
H316 H 0.48279 0.58992 0.35503 0.0
H317 H 0.45927 0.56294 0.39546 0.0
H318 H 0.39356 0.63741 0.39771 0.0
H319 H 0.4168 0.66369 0.35727 0.0
Sm320 Sm 0.23404 0.50226 0.13839 0.0
Sm321 Sm 0.27219 0.4422 0.12905 0.0
C322 C 0.20516 0.55665 0.14253 0.0
C323 C 0.17493 0.56736 0.1353 0.0
C324 C 0.1703 0.59151 0.11469 0.0
C325 C 0.14212 0.60006 0.10519 0.0
C326 C 0.11783 0.58483 0.11629 0.0
C327 C 0.12235 0.56129 0.13762 0.0
C328 C 0.15065 0.55245 0.1469 0.0
C329 C 0.21829 0.45006 0.16939 0.0
C330 C 0.21271 0.45435 0.08869 0.0
C331 C 0.29232 0.38331 0.12692 0.0
C332 C 0.31187 0.35973 0.14177 0.0
C333 C 0.30025 0.33627 0.15955 0.0
C334 C 0.31812 0.31189 0.17103 0.0
C335 C 0.34795 0.31025 0.1647 0.0
C336 C 0.35966 0.33422 0.14759 0.0
C337 C 0.34186 0.35858 0.1362 0.0
C338 C 0.28957 0.49411 0.09874 0.0
C339 C 0.29758 0.49196 0.17302 0.0
O340 O 0.22114 0.54915 0.12023 0.0
O341 O 0.20914 0.53725 0.16457 0.0
O342 O 0.24395 0.4588 0.16571 0.0
O343 O 0.19976 0.46936 0.15667 0.0
O344 O 0.21051 0.48343 0.09816 0.0
O345 O 0.23252 0.43411 0.09917 0.0
O346 O 0.26815 0.39158 0.13988 0.0
O347 O 0.30419 0.40662 0.11312 0.0
O348 O 0.26356 0.48656 0.10281 0.0
O349 O 0.30769 0.4722 0.10808 0.0
O350 O 0.29579 0.46158 0.16834 0.0
O351 O 0.27823 0.5126 0.16174 0.0
H352 H 0.1886 0.60337 0.10541 0.0
H353 H 0.13933 0.61864 0.08908 0.0
H354 H 0.10406 0.54911 0.14651 0.0
H355 H 0.1535 0.53354 0.16266 0.0
H356 H 0.27715 0.33627 0.16396 0.0
H357 H 0.30839 0.29373 0.184 0.0
H358 H 0.38266 0.334 0.14273 0.0
H359 H 0.35157 0.37611 0.12249 0.0
Sm360 Sm 0.73546 0.97199 0.88502 0.0
Sm361 Sm 0.77524 0.02412 0.90309 0.0
C362 C 0.70054 0.92349 0.8822 0.0
C363 C 0.67255 0.91381 0.89432 0.0
C364 C 0.67067 0.88379 0.90672 0.0
C365 C 0.64433 0.87359 0.9177 0.0
C366 C 0.61914 0.89314 0.91637 0.0
C367 C 0.62124 0.92356 0.90454 0.0
C368 C 0.6477 0.93382 0.89366 0.0
C369 C 0.73213 0.02272 0.84836 0.0
C370 C 0.71636 0.02021 0.93867 0.0
C371 C 0.81028 0.0725 0.90675 0.0
C372 C 0.82707 0.0936 0.88825 0.0
C373 C 0.81722 0.1028 0.86026 0.0
C374 C 0.83272 0.12459 0.84403 0.0
C375 C 0.85843 0.13732 0.85545 0.0
C376 C 0.86838 0.12747 0.88328 0.0
C377 C 0.85285 0.10588 0.89946 0.0
C378 C 0.7818 0.96834 0.93474 0.0
C379 C 0.79621 0.97794 0.85183 0.0
O380 O 0.72245 0.92493 0.90059 0.0
O381 O 0.69984 0.94646 0.86312 0.0
O382 O 0.73341 0.02473 0.87589 0.0
O383 O 0.73132 0.99383 0.83977 0.0
O384 O 0.71286 0.99272 0.92603 0.0
O385 O 0.73737 0.03883 0.93125 0.0
O386 O 0.7819 0.07536 0.9049 0.0
O387 O 0.81959 0.04332 0.90914 0.0
O388 O 0.77838 0.97144 0.90783 0.0
O389 O 0.78344 0.99581 0.94669 0.0
O390 O 0.79392 0.00765 0.85948 0.0
O391 O 0.77828 0.95704 0.86253 0.0
H392 H 0.68962 0.86808 0.90774 0.0
H393 H 0.6437 0.85027 0.92718 0.0
H394 H 0.60227 0.93915 0.90295 0.0
H395 H 0.6486 0.95724 0.88443 0.0
H396 H 0.79738 0.09346 0.85111 0.0
H397 H 0.82462 0.13146 0.82259 0.0
H398 H 0.88781 0.13712 0.89295 0.0
H399 H 0.86072 0.09921 0.92106 0.0
Sm400 Sm 0.7624 0.96798 0.3987 0.0
Sm401 Sm 0.81995 0.00923 0.38953 0.0
C402 C 0.71134 0.94125 0.39278 0.0
C403 C 0.69753 0.9193 0.37228 0.0
C404 C 0.66865 0.9247 0.36283 0.0
C405 C 0.65415 0.90192 0.3467 0.0
C406 C 0.66817 0.87308 0.33994 0.0
C407 C 0.69765 0.86859 0.34815 0.0
C408 C 0.71218 0.89148 0.36394 0.0
C409 C 0.80316 0.95499 0.44268 0.0
C410 C 0.81179 0.94338 0.3519 0.0
C411 C 0.87412 0.02918 0.38691 0.0
C412 C 0.89746 0.04751 0.40065 0.0
C413 C 0.92631 0.03617 0.39891 0.0
C414 C 0.94939 0.05396 0.40926 0.0
C415 C 0.94418 0.08364 0.42166 0.0
C416 C 0.91506 0.09456 0.42419 0.0
C417 C 0.89192 0.07668 0.41377 0.0
C418 C 0.77078 0.02467 0.35642 0.0
C419 C 0.77077 0.03614 0.4322 0.0
O420 O 0.71576 0.96995 0.38375 0.0
O421 O 0.73292 0.92951 0.40867 0.0
O422 O 0.80542 0.974 0.42181 0.0
O423 O 0.77811 0.94192 0.44065 0.0
O424 O 0.78589 0.93908 0.36337 0.0
O425 O 0.82825 0.96732 0.35896 0.0
O426 O 0.86736 1.00265 0.39935 0.0
O427 O 0.85165 0.04441 0.37517 0.0
O428 O 0.7802 0.99746 0.36299 0.0
O429 O 0.78886 0.04548 0.36593 0.0
O430 O 0.79926 0.03358 0.42846 0.0
O431 O 0.75218 0.01617 0.42041 0.0
H432 H 0.657 0.94612 0.36872 0.0
H433 H 0.63171 0.90665 0.34016 0.0
H434 H 0.70923 0.84674 0.34368 0.0
H435 H 0.7346 0.88675 0.37063 0.0
H436 H 0.9311 0.01378 0.38875 0.0
H437 H 0.97141 0.04489 0.40649 0.0
H438 H 0.91014 0.11708 0.43398 0.0
H439 H 0.86982 0.0859 0.4155 0.0
Sm440 Sm 0.30574 0.48155 0.63677 0.0
Sm441 Sm 0.26316 0.53916 0.61806 0.0
C442 C 0.33408 0.42692 0.63755 0.0
C443 C 0.36492 0.41755 0.63532 0.0
C444 C 0.37288 0.38582 0.63251 0.0
C445 C 0.4019 0.37693 0.6278 0.0
C446 C 0.42352 0.39968 0.62577 0.0
C447 C 0.41543 0.43151 0.62907 0.0
C448 C 0.38635 0.44037 0.6338 0.0
C449 C 0.32211 0.53431 0.66696 0.0
C450 C 0.3223 0.52852 0.58165 0.0
C451 C 0.2306 0.5912 0.6129 0.0
C452 C 0.21762 0.61637 0.63049 0.0
C453 C 0.22329 0.61825 0.6605 0.0
C454 C 0.21179 0.64339 0.6765 0.0
C455 C 0.19432 0.66698 0.66271 0.0
C456 C 0.1886 0.66466 0.63261 0.0
C457 C 0.20023 0.63966 0.61669 0.0
C458 C 0.25625 0.4826 0.58952 0.0
C459 C 0.24509 0.49472 0.67231 0.0
O460 O 0.3225 0.43955 0.61381 0.0
O461 O 0.32654 0.44166 0.66137 0.0
O462 O 0.30165 0.53282 0.6484 0.0
O463 O 0.33561 0.50726 0.66901 0.0
O464 O 0.32581 0.50047 0.59411 0.0
O465 O 0.30229 0.54908 0.59009 0.0
O466 O 0.25905 0.59058 0.61152 0.0
O467 O 0.21962 0.56325 0.61532 0.0
O468 O 0.26192 0.4869 0.61583 0.0
O469 O 0.25171 0.50957 0.57653 0.0
O470 O 0.24514 0.52384 0.66211 0.0
O471 O 0.26442 0.473 0.66382 0.0
H472 H 0.35653 0.36797 0.63326 0.0
H473 H 0.40723 0.35226 0.62479 0.0
H474 H 0.43153 0.44956 0.62782 0.0
H475 H 0.38047 0.46506 0.63571 0.0
H476 H 0.23669 0.60039 0.67147 0.0
H477 H 0.21677 0.64448 0.69958 0.0
H478 H 0.17472 0.6819 0.62135 0.0
H479 H 0.19564 0.63854 0.59351 0.0
H480 H 0.19039 0.29667 0.5759 0.0
H481 H 0.22906 0.30759 0.49176 0.0
H482 H 0.20727 0.34829 0.59013 0.0
H483 H 0.24632 0.35961 0.50589 0.0
H484 H 0.23764 0.4663 0.53424 0.0
H485 H 0.22584 0.41339 0.51729 0.0
H486 H 0.2521 0.37501 0.60123 0.0
H487 H 0.26311 0.42719 0.61809 0.0
C488 C 0.20318 0.30995 0.56075 0.0
C489 C 0.20912 0.29805 0.53309 0.0
C490 C 0.21279 0.33954 0.56879 0.0
C491 C 0.22833 0.3581 0.5492 0.0
C492 C 0.23435 0.346 0.52143 0.0
C493 C 0.22484 0.31616 0.51347 0.0
C494 C 0.24105 0.44644 0.54887 0.0
C495 C 0.25114 0.45096 0.57752 0.0
C496 C 0.23445 0.41615 0.53917 0.0
C497 C 0.23774 0.38996 0.55802 0.0
C498 C 0.24878 0.39462 0.58629 0.0
C499 C 0.25529 0.42463 0.59589 0.0
H500 H 0.83181 0.01445 0.81964 0.0
H501 H 0.82067 0.91898 0.84878 0.0
H502 H 0.87928 0.99973 0.80017 0.0
H503 H 0.8684 0.90446 0.83039 0.0
H504 H 0.94591 0.87913 0.77868 0.0
H505 H 0.89667 0.89588 0.7895 0.0
H506 H 0.92766 0.98625 0.8165 0.0
H507 H 0.97738 0.96978 0.80361 0.0
C508 C 0.83936 0.9902 0.82157 0.0
C509 C 0.82242 0.96782 0.83568 0.0
C510 C 0.86675 0.98185 0.81071 0.0
C511 C 0.87796 0.95097 0.81387 0.0
C512 C 0.86045 0.92838 0.82708 0.0
C513 C 0.83295 0.93667 0.83766 0.0
C514 C 0.94227 0.90286 0.7863 0.0
C515 C 0.96557 0.92324 0.79005 0.0
C516 C 0.91392 0.91233 0.79296 0.0
C517 C 0.90801 0.9423 0.80428 0.0
C518 C 0.93128 0.96307 0.80753 0.0
C519 C 0.95981 0.95366 0.80035 0.0
H520 H 0.3507 0.68508 0.08025 0.0
H521 H 0.33474 0.65384 0.99225 0.0
H522 H 0.3343 0.63464 0.09882 0.0
H523 H 0.31863 0.60371 1.01085 0.0
H524 H 0.32702 0.50558 0.05492 0.0
H525 H 0.34231 0.55687 0.03687 0.0
H526 H 0.2887 0.60298 0.10092 0.0
H527 H 0.27409 0.55187 0.11898 0.0
C528 C 0.34341 0.66768 0.06489 0.0
C529 C 0.34401 0.67362 0.03476 0.0
C530 C 0.33405 0.63878 0.07553 0.0
C531 C 0.32542 0.61512 0.05626 0.0
C532 C 0.32555 0.62129 0.02622 0.0
C533 C 0.33457 0.6502 0.01561 0.0
C534 C 0.31843 0.52676 0.06491 0.0
C535 C 0.29856 0.5249 0.08766 0.0
C536 C 0.32706 0.55606 0.05458 0.0
C537 C 0.31646 0.58399 0.0673 0.0
C538 C 0.29716 0.58194 0.09059 0.0
C539 C 0.28829 0.55269 0.10058 0.0
H540 H 0.60959 0.11242 0.29287 0.0
H541 H 0.58171 0.02174 0.32233 0.0
H542 H 0.65948 0.0983 0.30569 0.0
H543 H 0.63262 0.0074 0.33562 0.0
H544 H 0.73347 0.98628 0.32751 0.0
H545 H 0.68225 0.99711 0.31407 0.0
H546 H 0.68841 0.09013 0.34999 0.0
H547 H 0.73932 0.0792 0.36339 0.0
C548 C 0.61407 0.08934 0.30216 0.0
C549 C 0.59147 0.06828 0.30672 0.0
C550 C 0.64285 0.08131 0.30969 0.0
C551 C 0.65017 0.05188 0.32206 0.0
C552 C 0.62774 0.0303 0.32607 0.0
C553 C 0.59859 0.03848 0.31858 0.0
C554 C 0.7238 0.00907 0.33241 0.0
C555 C 0.7404 0.03191 0.34648 0.0
C556 C 0.69442 0.01517 0.32492 0.0
C557 C 0.68111 0.04449 0.33092 0.0
C558 C 0.69797 0.06741 0.34471 0.0
C559 C 0.72721 0.06122 0.35233 0.0
H560 H 0.74345 0.23076 0.48645 0.0
H561 H 0.66599 0.18356 0.51259 0.0
H562 H 0.76425 0.18037 0.46976 0.0
H563 H 0.68684 0.13381 0.49739 0.0
H564 H 0.7144 0.05839 0.4336 0.0
H565 H 0.69646 0.10795 0.45313 0.0
H566 H 0.78317 0.12852 0.484 0.0
H567 H 0.80133 0.07912 0.46373 0.0
C568 C 0.73111 0.20964 0.48906 0.0
C569 C 0.70309 0.2112 0.5008 0.0
C570 C 0.743 0.18075 0.47963 0.0
C571 C 0.72708 0.15295 0.48189 0.0
C572 C 0.69952 0.15466 0.49461 0.0
C573 C 0.68767 0.1833 0.5037 0.0
C574 C 0.72961 0.07319 0.44492 0.0
C575 C 0.75928 0.06455 0.44721 0.0
C576 C 0.71932 0.10174 0.45617 0.0
C577 C 0.73834 0.12238 0.47025 0.0
C578 C 0.76795 0.11348 0.47299 0.0
C579 C 0.77829 0.08495 0.46159 0.0
H580 H 0.10991 0.41561 0.78118 0.0
H581 H 0.0693 0.43866 0.69794 0.0
H582 H 0.15523 0.43791 0.76498 0.0
H583 H 0.11484 0.46175 0.68206 0.0
H584 H 0.1938 0.52763 0.67877 0.0
H585 H 0.14856 0.50883 0.69865 0.0
H586 H 0.1918 0.42121 0.72299 0.0
H587 H 0.23726 0.43959 0.70239 0.0
C588 C 0.11044 0.4259 0.75957 0.0
C589 C 0.08586 0.42542 0.74085 0.0
C590 C 0.13654 0.43846 0.75029 0.0
C591 C 0.13855 0.45141 0.7223 0.0
C592 C 0.11378 0.45198 0.70384 0.0
C593 C 0.08775 0.4388 0.71292 0.0
C594 C 0.19396 0.5045 0.68874 0.0
C595 C 0.2193 0.48509 0.68896 0.0
C596 C 0.16789 0.49371 0.69989 0.0
C597 C 0.16664 0.46352 0.71208 0.0
C598 C 0.19222 0.44463 0.71369 0.0
C599 C 0.21824 0.45518 0.70197 0.0
H600 H 0.80016 0.9552 0.99114 0.0
H601 H 0.77734 0.91113 0.90993 0.0
H602 H 0.81312 0.9032 1.01207 0.0
H603 H 0.7889 0.85969 0.93106 0.0
H604 H 0.87607 0.81175 1.00845 0.0
H605 H 0.85504 0.86322 0.99643 0.0
H606 H 0.77362 0.82094 0.97349 0.0
H607 H 0.79449 0.76884 0.98699 0.0
C608 C 0.79734 0.93448 0.978 0.0
C609 C 0.78751 0.93731 0.94896 0.0
C610 C 0.80468 0.90476 0.98994 0.0
C611 C 0.80167 0.87735 0.97326 0.0
C612 C 0.79091 0.88025 0.94462 0.0
C613 C 0.7843 0.90982 0.93253 0.0
C614 C 0.8534 0.81334 1.00168 0.0
C615 C 0.83684 0.78614 0.99905 0.0
C616 C 0.84137 0.84295 0.99479 0.0
C617 C 0.81264 0.8462 0.98427 0.0
C618 C 0.79582 0.8191 0.98175 0.0
C619 C 0.80772 0.78934 0.98942 0.0
H620 H 0.43556 0.57205 0.27911 0.0
H621 H 0.47487 0.54749 0.19716 0.0
H622 H 0.3898 0.55016 0.26256 0.0
H623 H 0.4289 0.52467 0.18106 0.0
H624 H 0.34838 0.45882 0.18204 0.0
H625 H 0.39434 0.47773 0.20119 0.0
H626 H 0.35398 0.56857 0.21634 0.0
H627 H 0.30769 0.55 0.19632 0.0
C628 C 0.43469 0.5614 0.25779 0.0
C629 C 0.45894 0.5615 0.2394 0.0
C630 C 0.40836 0.54914 0.24831 0.0
C631 C 0.40589 0.53609 0.22053 0.0
C632 C 0.43039 0.53472 0.20261 0.0
C633 C 0.45666 0.54763 0.21184 0.0
C634 C 0.34904 0.48276 0.18973 0.0
C635 C 0.32426 0.50293 0.18777 0.0
C636 C 0.37548 0.49356 0.20047 0.0
C637 C 0.3776 0.52452 0.21006 0.0
C638 C 0.35273 0.54451 0.20908 0.0
C639 C 0.32632 0.5339 0.19769 0.0
H640 H 0.50947 0.20397 0.33475 0.0
H641 H 0.59887 0.1722 0.32463 0.0
H642 H 0.52176 0.22441 0.38291 0.0
H643 H 0.61089 0.19237 0.37274 0.0
H644 H 0.60933 0.18747 0.47208 0.0
H645 H 0.59392 0.17255 0.42319 0.0
H646 H 0.5551 0.26488 0.40907 0.0
H647 H 0.57075 0.28011 0.45804 0.0
C648 C 0.53186 0.20203 0.34248 0.0
C649 C 0.55317 0.18634 0.32592 0.0
C650 C 0.53882 0.21363 0.37007 0.0
C651 C 0.5671 0.20934 0.38169 0.0
C652 C 0.58878 0.19544 0.36443 0.0
C653 C 0.58195 0.18426 0.33672 0.0
C654 C 0.59695 0.20442 0.45886 0.0
C655 C 0.59133 0.23501 0.46891 0.0
C656 C 0.58847 0.19598 0.43073 0.0
C657 C 0.57384 0.21779 0.41223 0.0
C658 C 0.56651 0.24772 0.42288 0.0
C659 C 0.57538 0.25635 0.45091 0.0
H660 H 0.0776 0.23201 0.57224 0.0
H661 H 0.10799 0.32587 0.55779 0.0
H662 H 0.05893 0.24793 0.61959 0.0
H663 H 0.08955 0.34156 0.60523 0.0
H664 H 0.0983 0.33568 0.70668 0.0
H665 H 0.10834 0.32365 0.65592 0.0
H666 H 0.02251 0.28596 0.64567 0.0
H667 H 1.01223 0.29853 0.69667 0.0
C668 C 0.07971 0.25621 0.57886 0.0
C669 C 0.0944 0.27762 0.56126 0.0
C670 C 0.06897 0.26531 0.60596 0.0
C671 C 0.07311 0.29587 0.61623 0.0
C672 C 0.08633 0.31775 0.59797 0.0
C673 C 0.09666 0.30881 0.57068 0.0
C674 C 0.08157 0.32479 0.69363 0.0
C675 C 0.05456 0.31784 0.70564 0.0
C676 C 0.08721 0.31819 0.66449 0.0
C677 C 0.06614 0.30406 0.64678 0.0
C678 C 0.03915 0.29685 0.65884 0.0
C679 C 0.03329 0.30398 0.68796 0.0
H680 H 0.04198 0.81596 0.85017 0.0
H681 H 0.95983 0.79291 0.80945 0.0
H682 H 0.02524 0.79561 0.89648 0.0
H683 H 0.9435 0.77172 0.85601 0.0
H684 H 0.94096 0.70949 0.93989 0.0
H685 H 0.96123 0.72578 0.89372 0.0
H686 H 0.98072 0.81602 0.93006 0.0
H687 H 0.95966 0.80013 0.97649 0.0
C688 C 0.02057 0.80597 0.85088 0.0
C689 C 1.00218 0.80609 0.82602 0.0
C690 C 1.01098 0.79457 0.87751 0.0
C691 C 0.98307 0.78242 0.87977 0.0
C692 C 0.96516 0.78102 0.85473 0.0
C693 C 0.97452 0.79305 0.82812 0.0
C694 C 0.94984 0.73273 0.93831 0.0
C695 C 0.94869 0.75358 0.96196 0.0
C696 C 0.96125 0.74203 0.91174 0.0
C697 C 0.97232 0.77212 0.90838 0.0
C698 C 0.97231 0.79262 0.93224 0.0
C699 C 0.96031 0.78354 0.95875 0.0
H700 H 0.50011 0.63284 0.18167 0.0
H701 H 0.4685 0.7235 0.21053 0.0
H702 H 0.48605 0.64606 0.13212 0.0
H703 H 0.45301 0.73658 0.16027 0.0
H704 H 0.45271 0.75804 0.06082 0.0
H705 H 0.46862 0.74811 0.11123 0.0
H706 H 0.44355 0.65145 0.10311 0.0
H707 H 0.42853 0.66131 0.05271 0.0
C708 C 0.49018 0.65577 0.17742 0.0
C709 C 0.48552 0.67714 0.20017 0.0
C710 C 0.48172 0.66323 0.14887 0.0
C711 C 0.46789 0.69221 0.142 0.0
C712 C 0.46372 0.71405 0.16465 0.0
C713 C 0.47248 0.70658 0.19348 0.0
C714 C 0.45083 0.73463 0.06985 0.0
C715 C 0.4397 0.71034 0.05271 0.0
C716 C 0.45971 0.72899 0.09884 0.0
C717 C 0.45763 0.69891 0.11139 0.0
C718 C 0.44617 0.67476 0.09414 0.0
C719 C 0.43747 0.68037 0.06518 0.0
H720 H 0.21157 0.39205 0.34493 0.0
H721 H 0.13631 0.34574 0.30996 0.0
H722 H 0.22468 0.40823 0.29606 0.0
H723 H 0.14992 0.36128 0.26074 0.0
H724 H 0.16378 0.43797 0.18824 0.0
H725 H 0.15111 0.41113 0.23319 0.0
H726 H 0.24202 0.38764 0.24952 0.0
H727 H 0.25471 0.41495 0.20475 0.0
C728 C 0.19785 0.38529 0.32676 0.0
C729 C 0.17275 0.36791 0.3313 0.0
C730 C 0.2056 0.39415 0.29871 0.0
C731 C 0.1884 0.3859 0.27452 0.0
C732 C 0.16351 0.3681 0.27898 0.0
C733 C 0.15582 0.35907 0.3071 0.0
C734 C 0.18097 0.42655 0.20117 0.0
C735 C 0.21025 0.42895 0.19332 0.0
C736 C 0.17371 0.41106 0.22685 0.0
C737 C 0.19562 0.39769 0.24511 0.0
C738 C 0.22473 0.39827 0.23617 0.0
C739 C 0.23198 0.41373 0.21048 0.0
H740 H 0.94422 0.91602 0.57254 0.0
H741 H 0.86141 0.8984 0.61179 0.0
H742 H 0.91879 0.93404 0.52769 0.0
H743 H 0.8363 0.91632 0.56755 0.0
H744 H 0.80297 0.90406 0.47708 0.0
H745 H 0.8333 0.89163 0.51935 0.0
H746 H 0.88207 0.97545 0.50495 0.0
H747 H 0.85136 0.98786 0.46148 0.0
C748 C 0.92064 0.91637 0.57173 0.0
C749 C 0.90483 0.90511 0.59549 0.0
C750 C 0.90612 0.92674 0.54611 0.0
C751 C 0.87557 0.92603 0.54388 0.0
C752 C 0.85989 0.91641 0.56827 0.0
C753 C 0.87428 0.90606 0.59364 0.0
C754 C 0.82026 0.91986 0.48269 0.0
C755 C 0.82457 0.94714 0.46618 0.0
C756 C 0.83757 0.91278 0.50707 0.0
C757 C 0.85965 0.93291 0.51595 0.0
C758 C 0.8651 0.95956 0.49868 0.0
C759 C 0.84761 0.96667 0.47388 0.0
H760 H 0.37238 0.54436 0.6956 0.0
H761 H 0.28413 0.58049 0.68643 0.0
H762 H 0.38012 0.5776 0.73759 0.0
H763 H 0.29166 0.61391 0.72927 0.0
H764 H 0.32965 0.68556 0.79751 0.0
H765 H 0.31966 0.65831 0.75178 0.0
H766 H 0.36188 0.5743 0.78707 0.0
H767 H 0.37264 0.60154 0.83205 0.0
C768 C 0.35474 0.55992 0.70231 0.0
C769 C 0.32761 0.55979 0.68784 0.0
C770 C 0.35907 0.57875 0.7266 0.0
C771 C 0.3363 0.59781 0.7373 0.0
C772 C 0.30963 0.59938 0.72164 0.0
C773 C 0.30532 0.58045 0.69704 0.0
C774 C 0.3368 0.66126 0.79547 0.0
C775 C 0.35212 0.64583 0.81851 0.0
C776 C 0.33086 0.64561 0.76933 0.0
C777 C 0.34034 0.61428 0.76557 0.0
C778 C 0.35475 0.59863 0.78898 0.0
C779 C 0.36057 0.61416 0.81501 0.0
H780 H 0.67677 0.10528 0.10099 0.0
H781 H 0.60312 0.04513 0.09077 0.0
H782 H 0.69469 0.08868 0.05405 0.0
H783 H 0.62053 0.02945 0.0428 0.0
H784 H 0.6836 0.98332 0.97429 0.0
H785 H 0.65981 0.99921 0.01941 0.0
H786 H 0.6834 0.09524 1.00344 0.0
H787 H 0.70764 0.07932 0.95916 0.0
C788 C 0.66436 0.08845 0.08874 0.0
C789 C 0.63855 0.07645 0.09984 0.0
C790 C 0.67444 0.07925 0.06153 0.0
C791 C 0.65894 0.05791 0.04442 0.0
C792 C 0.63309 0.04581 0.05543 0.0
C793 C 0.62296 0.05505 0.08281 0.0
C794 C 0.68328 0.00787 0.98025 0.0
C795 C 0.69787 0.02997 0.96336 0.0
C796 C 0.66962 0.01701 1.00609 0.0
C797 C 0.67019 0.04843 0.0154 0.0
C798 C 0.68324 0.0707 0.99743 0.0
C799 C 0.697 0.06159 0.97189 0.0
H800 H 0.6834 0.17819 0.72751 0.0
H801 H 0.69577 0.09151 0.6806 0.0
H802 H 0.70012 0.15167 0.77255 0.0
H803 H 0.7121 0.06525 0.72509 0.0
H804 H 0.76221 0.02733 0.79916 0.0
H805 H 0.75236 0.06292 0.75834 0.0
H806 H 0.68623 0.11142 0.80808 0.0
H807 H 0.69732 0.07621 0.84969 0.0
C808 C 0.68963 0.15351 0.7268 0.0
C809 C 0.68858 0.13708 0.70032 0.0
C810 C 0.69921 0.13834 0.7526 0.0
C811 C 0.70793 0.10642 0.75245 0.0
C812 C 0.70646 0.09006 0.72599 0.0
C813 C 0.69701 0.10515 0.70036 0.0
C814 C 0.74613 0.04618 0.80161 0.0
C815 C 0.73038 0.04902 0.82737 0.0
C816 C 0.74023 0.06637 0.77813 0.0
C817 C 0.71786 0.08947 0.77954 0.0
C818 C 0.70356 0.09387 0.80621 0.0
C819 C 0.7099 0.07381 0.83006 0.0
H820 H 0.17484 0.4906 0.05501 0.0
H821 H 0.20859 0.39549 0.06659 0.0
H822 H 0.14828 0.47453 1.01129 0.0
H823 H 0.18186 0.37958 0.02344 0.0
H824 H 0.16251 0.37031 0.92745 0.0
H825 H 0.18661 0.38938 0.97119 0.0
H826 H 0.10807 0.4409 0.994 0.0
H827 H 0.08389 0.42179 0.94999 0.0
C828 C 0.17632 0.46624 0.04848 0.0
C829 C 0.19409 0.44441 0.0641 0.0
C830 C 0.16108 0.45706 0.02348 0.0
C831 C 0.16339 0.42592 1.01372 0.0
C832 C 0.18021 0.40391 0.03005 0.0
C833 C 0.19539 0.41303 0.05491 0.0
C834 C 0.15038 0.38567 0.94182 0.0
C835 C 0.12125 0.39431 0.93549 0.0
C836 C 0.16414 0.39655 0.96688 0.0
C837 C 0.14907 0.41626 0.98622 0.0
C838 C 0.12024 0.42584 0.97942 0.0
C839 C 0.10644 0.41494 0.95424 0.0
H840 H 0.86521 0.94116 0.32648 0.0
H841 H 0.78072 0.89894 0.32258 0.0
H842 H 0.87983 0.91192 0.28365 0.0
H843 H 0.79564 0.86928 0.27977 0.0
H844 H 0.82046 0.85958 0.18218 0.0
H845 H 0.80574 0.88199 0.22858 0.0
H846 H 0.89107 0.85947 0.26502 0.0
H847 H 0.90602 0.83779 0.21838 0.0
C848 C 0.84984 0.92532 0.31676 0.0
C849 C 0.82169 0.92261 0.32796 0.0
C850 C 0.85833 0.90838 0.29223 0.0
C851 C 0.83887 0.88835 0.27815 0.0
C852 C 0.81103 0.88482 0.28988 0.0
C853 C 0.80256 0.90166 0.31457 0.0
C854 C 0.83608 0.85942 0.2001 0.0
C855 C 0.86449 0.84708 0.19649 0.0
C856 C 0.82753 0.87194 0.22681 0.0
C857 C 0.84723 0.87259 0.25054 0.0
C858 C 0.87544 0.8596 0.24712 0.0
C859 C 0.88393 0.84692 0.22045 0.0
H860 H 0.31705 0.58177 0.54854 0.0
H861 H 0.36723 0.49467 0.55615 0.0
H862 H 0.34261 0.59491 0.5046 0.0
H863 H 0.3931 0.50822 0.51156 0.0
H864 H 0.45106 0.56918 0.44761 0.0
H865 H 0.42788 0.54974 0.49164 0.0
H866 H 0.34338 0.57352 0.45407 0.0
H867 H 0.36629 0.59234 0.41009 0.0
C868 C 0.33365 0.56539 0.54098 0.0
C869 C 0.33989 0.53699 0.55596 0.0
C870 C 0.34819 0.57291 0.51556 0.0
C871 C 0.36958 0.55242 0.50434 0.0
C872 C 0.37666 0.52445 0.51968 0.0
C873 C 0.36182 0.5167 0.54518 0.0
C874 C 0.42752 0.56968 0.44851 0.0
C875 C 0.41058 0.58281 0.42541 0.0
C876 C 0.41427 0.55858 0.47377 0.0
C877 C 0.38384 0.56056 0.4765 0.0
C878 C 0.36692 0.5723 0.45288 0.0
C879 C 0.38008 0.58317 0.42768 0.0
H880 H 0.23319 0.17118 0.46425 0.0
H881 H 0.22694 0.25709 0.41359 0.0
H882 H 0.27815 0.15666 0.4402 0.0
H883 H 0.27239 0.24213 0.38921 0.0
H884 H 0.33953 0.18004 0.33387 0.0
H885 H 0.29403 0.19935 0.35526 0.0
H886 H 0.32879 0.17776 0.44108 0.0
H887 H 0.37435 0.15938 0.42005 0.0
C888 C 0.2412 0.18695 0.4478 0.0
C889 C 0.2263 0.21545 0.44102 0.0
C890 C 0.26721 0.17865 0.43413 0.0
C891 C 0.27908 0.19839 0.41304 0.0
C892 C 0.26379 0.22641 0.40539 0.0
C893 C 0.23777 0.23497 0.41939 0.0
C894 C 0.33774 0.17996 0.35734 0.0
C895 C 0.36066 0.16765 0.37514 0.0
C896 C 0.31157 0.19096 0.36957 0.0
C897 C 0.30762 0.18965 0.39984 0.0
C898 C 0.33088 0.17848 0.41764 0.0
C899 C 0.35703 0.16781 0.40551 0.0
H900 H 0.05887 0.08227 0.60199 0.0
H901 H 0.14567 0.04475 0.61972 0.0
H902 H 0.0386 0.03916 0.63038 0.0
H903 H 0.12561 1.00206 0.64772 0.0
H904 H 0.08582 0.96107 0.72771 0.0
H905 H 0.10156 1.00192 0.69529 0.0
H906 H 0.03372 0.97922 0.63344 0.0
H907 H 0.01744 0.93779 0.66639 0.0
C908 C 0.07354 0.06464 0.61164 0.0
C909 C 0.10388 0.06722 0.60918 0.0
C910 C 0.06196 0.03998 0.62778 0.0
C911 C 0.08057 0.01757 0.64164 0.0
C912 C 0.11076 0.0194 0.63787 0.0
C913 C 0.12225 0.0439 0.62189 0.0
C914 C 0.0741 0.96454 0.70724 0.0
C915 C 0.05047 0.9458 0.69958 0.0
C916 C 0.08328 0.988 0.68857 0.0
C917 C 0.06919 0.99346 0.66163 0.0
C918 C 0.04499 0.97547 0.65411 0.0
C919 C 0.03575 0.95173 0.67293 0.0
H920 H 0.2117 0.80935 0.8437 0.0
H921 H 0.17298 0.8415 0.92355 0.0
H922 H 0.25355 0.78768 0.87143 0.0
H923 H 0.21511 0.82132 0.95094 0.0
H924 H 0.28124 0.7613 0.9979 0.0
H925 H 0.239 0.77422 0.96708 0.0
H926 H 0.29575 0.80465 0.89887 0.0
H927 H 0.33824 0.79055 0.92965 0.0
C928 C 0.21199 0.81161 0.86716 0.0
C929 C 0.18896 0.82729 0.88136 0.0
C930 C 0.23616 0.79951 0.88303 0.0
C931 C 0.23781 0.8027 0.91347 0.0
C932 C 0.21452 0.81795 0.92761 0.0
C933 C 0.19044 0.82995 0.91182 0.0
C934 C 0.28471 0.77043 0.97619 0.0
C935 C 0.31299 0.77531 0.9663 0.0
C936 C 0.26047 0.77805 0.95856 0.0
C937 C 0.26385 0.79108 0.93064 0.0
C938 C 0.29228 0.79457 0.92019 0.0
C939 C 0.31664 0.78663 0.93784 0.0
H940 H 0.47004 0.01911 0.24691 0.0
H941 H 0.53353 0.03915 0.18133 0.0
H942 H 0.45239 0.97607 0.21799 0.0
H943 H 0.51527 0.99586 0.15191 0.0
H944 H 0.4886 0.8957 0.12134 0.0
H945 H 0.5105 0.93738 0.15025 0.0
H946 H 0.42461 0.97173 0.17303 0.0
H947 H 0.40296 0.92986 0.14526 0.0
C948 C 0.48028 0.0144 0.22627 0.0
C949 C 0.50306 0.03291 0.21635 0.0
C950 C 0.47001 0.9897 0.2096 0.0
C951 C 0.4821 0.98277 0.18243 0.0
C952 C 0.50554 1.00055 0.1728 0.0
C953 C 0.51591 0.02542 0.1896 0.0
C954 C 0.47447 0.91207 0.13271 0.0
C955 C 0.44401 0.90944 0.13093 0.0
C956 C 0.487 0.93611 0.14901 0.0
C957 C 0.46932 0.95779 0.16408 0.0
C958 C 0.43891 0.9552 0.16205 0.0
C959 C 0.42646 0.93136 0.14579 0.0
H960 H 0.87035 0.29808 0.63804 0.0
H961 H 0.83306 0.38758 0.66375 0.0
H962 H 0.82237 0.28147 0.62179 0.0
H963 H 0.78508 0.37092 0.64775 0.0
H964 H 0.71662 0.34677 0.57786 0.0
H965 H 0.76155 0.36172 0.60161 0.0
H966 H 0.77333 0.26777 0.63669 0.0
H967 H 0.72825 0.25243 0.61215 0.0
C968 C 0.85184 0.31405 0.64057 0.0
C969 C 0.85557 0.34428 0.65189 0.0
C970 C 0.82431 0.30447 0.63138 0.0
C971 C 0.79987 0.3249 0.63336 0.0
C972 C 0.80351 0.3548 0.64545 0.0
C973 C 0.83102 0.36439 0.65455 0.0
C974 C 0.72855 0.32927 0.59086 0.0
C975 C 0.7189 0.2983 0.5929 0.0
C976 C 0.7543 0.33796 0.60469 0.0
C977 C 0.77115 0.31594 0.621 0.0
C978 C 0.76102 0.28519 0.62397 0.0
C979 C 0.73507 0.27647 0.61013 0.0
H980 H 0.02008 0.43878 0.82547 0.0
H981 H 0.92925 0.42257 0.8072 0.0
H982 H 1.00614 0.48215 0.85775 0.0
H983 H 0.91544 0.46554 0.8392 0.0
H984 H 0.90207 0.56704 0.86611 0.0
H985 H 0.91926 0.52345 0.83651 0.0
H986 H 0.98009 0.49478 0.9048 0.0
H987 H 0.96245 0.53827 0.93491 0.0
C988 C 0.99718 0.44426 0.82858 0.0
C989 C 0.97577 0.42744 0.81359 0.0
C990 C 0.9892 0.46904 0.84708 0.0
C991 C 0.95968 0.47762 0.8507 0.0
C992 C 0.93837 0.45999 0.83645 0.0
C993 C 0.9463 0.43519 0.81824 0.0
C994 C 0.91898 0.5514 0.875 0.0
C995 C 0.93052 0.55604 0.90315 0.0
C996 C 0.92887 0.52638 0.85797 0.0
C997 C 0.95076 0.50534 0.86845 0.0
C998 C 0.96324 0.51061 0.89608 0.0
C999 C 0.95317 0.53562 0.91328 0.0
H1000 H 0.81299 0.74572 0.10374 0.0
H1001 H 0.83029 0.6481 0.08404 0.0
H1002 H 0.76834 0.7313 0.12849 0.0
H1003 H 0.78651 0.6337 0.10923 0.0
H1004 H 0.68928 0.62351 0.11653 0.0
H1005 H 0.73577 0.63916 0.09778 0.0
H1006 H 0.74559 0.70381 0.16903 0.0
H1007 H 0.69801 0.68907 0.18723 0.0
C1008 C 0.80763 0.72116 0.10527 0.0
C1009 C 0.82496 0.69811 0.09158 0.0
C1010 C 0.78205 0.71288 0.11945 0.0
C1011 C 0.77348 0.68138 0.12034 0.0
C1012 C 0.79194 0.65826 0.10826 0.0
C1013 C 0.81721 0.66652 0.09396 0.0
C1014 C 0.70109 0.64133 0.1281 0.0
C1015 C 0.68971 0.65511 0.15334 0.0
C1016 C 0.72807 0.65 0.11756 0.0
C1017 C 0.74467 0.67256 0.13203 0.0
C1018 C 0.73335 0.68647 0.15727 0.0
C1019 C 0.70621 0.67777 0.16786 0.0
H1020 H 0.55632 0.42661 0.41276 0.0
H1021 H 0.63384 0.47997 0.42674 0.0
H1022 H 0.53571 0.46901 0.38211 0.0
H1023 H 0.61359 0.52193 0.3955 0.0
H1024 H 0.56428 0.59997 0.34564 0.0
H1025 H 0.57501 0.56368 0.38667 0.0
H1026 H 0.54919 0.48583 0.33328 0.0
H1027 H 0.53868 0.52163 0.29297 0.0
C1028 C 0.56877 0.44758 0.4097 0.0
C1029 C 0.59692 0.44965 0.42185 0.0
C1030 C 0.55704 0.47182 0.39199 0.0
C1031 C 0.57311 0.49878 0.38611 0.0
C1032 C 0.60053 0.50164 0.39968 0.0
C1033 C 0.61231 0.47736 0.41728 0.0
C1034 C 0.56045 0.57517 0.34304 0.0
C1035 C 0.55099 0.56353 0.31609 0.0
C1036 C 0.56671 0.55439 0.36639 0.0
C1037 C 0.56304 0.5218 0.36324 0.0
C1038 C 0.55198 0.51071 0.33669 0.0
C1039 C 0.54618 0.53125 0.31344 0.0
H1040 H 0.34953 0.28109 0.21852 0.0
H1041 H 0.38876 0.27791 0.13374 0.0
H1042 H 0.38414 0.23989 0.2359 0.0
H1043 H 0.42317 0.2373 0.15113 0.0
H1044 H 0.50449 0.21164 0.20538 0.0
H1045 H 0.46384 0.2445 0.18864 0.0
H1046 H 0.40382 0.18056 0.22712 0.0
H1047 H 0.44535 0.14671 0.24407 0.0
C1048 C 0.36519 0.27129 0.20349 0.0
C1049 C 0.36683 0.28328 0.17492 0.0
C1050 C 0.38488 0.24765 0.21343 0.0
C1051 C 0.4065 0.23568 0.19494 0.0
C1052 C 0.407 0.24645 0.16598 0.0
C1053 C 0.38743 0.26989 0.1561 0.0
C1054 C 0.48271 0.20428 0.2103 0.0
C1055 C 0.47814 0.17636 0.22584 0.0
C1056 C 0.45936 0.22315 0.20054 0.0
C1057 C 0.43066 0.21491 0.20622 0.0
C1058 C 0.4258 0.18734 0.22235 0.0
C1059 C 0.44945 0.16797 0.2319 0.0
H1060 H 0.92861 0.29114 0.74876 0.0
H1061 H 0.97772 0.28336 0.8297 0.0
H1062 H 0.89956 0.24633 0.76371 0.0
H1063 H 0.94901 0.23933 0.84431 0.0
H1064 H 0.9173 0.14142 0.84979 0.0
H1065 H 0.9441 0.18424 0.82856 0.0
H1066 H 0.86315 0.23099 0.80269 0.0
H1067 H 0.83613 0.18802 0.82421 0.0
C1068 C 0.93314 0.28005 0.7697 0.0
C1069 C 0.95564 0.2908 0.78792 0.0
C1070 C 0.9165 0.25446 0.77826 0.0
C1071 C 0.9223 0.23901 0.80501 0.0
C1072 C 0.94439 0.25024 0.82331 0.0
C1073 C 0.96075 0.27574 0.81494 0.0
C1074 C 0.90516 0.16075 0.83952 0.0
C1075 C 0.87456 0.16151 0.83914 0.0
C1076 C 0.92052 0.18528 0.82731 0.0
C1077 C 0.90573 0.21124 0.81435 0.0
C1078 C 0.87515 0.21127 0.81246 0.0
C1079 C 0.8597 0.18664 0.82477 0.0
H1080 H 0.06849 0.59668 0.14775 0.0
H1081 H 0.09989 0.59251 0.05981 0.0
H1082 H 0.02148 0.61771 0.12953 0.0
H1083 H 0.05292 0.61282 0.04154 0.0
H1084 H 0.99159 0.70031 0.03158 0.0
H1085 H 0.03199 0.66494 0.04443 0.0
H1086 H 0.97588 0.61212 0.10009 0.0
H1087 H 0.93491 0.64834 0.08698 0.0
C1088 C 0.06511 0.59961 0.12449 0.0
C1089 C 0.08806 0.59359 0.10525 0.0
C1090 C 0.03812 0.61147 0.11402 0.0
C1091 C 0.03352 0.61735 0.08408 0.0
C1092 C 0.0559 0.60921 0.06477 0.0
C1093 C 0.08285 0.59764 0.07523 0.0
C1094 C 0.98767 0.68067 0.04601 0.0
C1095 C 0.96023 0.67703 0.05833 0.0
C1096 C 1.01083 0.66024 0.0533 0.0
C1097 C 1.0073 0.63566 0.0734 0.0
C1098 C 0.97935 0.63098 0.0847 0.0
C1099 C 0.95586 0.65141 0.077 0.0
H1100 H 0.68733 0.82815 0.30108 0.0
H1101 H 0.61144 0.85782 0.34919 0.0
H1102 H 0.66212 0.78144 0.28526 0.0
H1103 H 0.58578 0.81254 0.33179 0.0
H1104 H 0.56074 0.7116 0.33005 0.0
H1105 H 0.58719 0.75821 0.34225 0.0
H1106 H 0.62356 0.75963 0.2561 0.0
H1107 H 0.5975 0.71185 0.24409 0.0
C1108 C 0.6652 0.82497 0.30808 0.0
C1109 C 0.65165 0.84679 0.32677 0.0
C1110 C 0.65061 0.7983 0.29867 0.0
C1111 C 0.62202 0.79286 0.30758 0.0
C1112 C 0.60802 0.81548 0.32504 0.0
C1113 C 0.62265 0.8419 0.33463 0.0
C1114 C 0.57441 0.7217 0.31363 0.0
C1115 C 0.57677 0.70807 0.28598 0.0
C1116 C 0.58945 0.74871 0.32058 0.0
C1117 C 0.60712 0.7632 0.3 0.0
C1118 C 0.61019 0.74911 0.27252 0.0
C1119 C 0.59523 0.72175 0.26561 0.0
H1120 H 0.60744 0.34591 0.5861 0.0
H1121 H 0.54512 0.28299 0.5487 0.0
H1122 H 0.56681 0.37988 0.60325 0.0
H1123 H 0.50528 0.31639 0.56575 0.0
H1124 H 0.45501 0.34919 0.64739 0.0
H1125 H 0.50173 0.32853 0.63038 0.0
H1126 H 0.50824 0.40751 0.57189 0.0
H1127 H 0.46092 0.42812 0.58829 0.0
C1128 C 0.58521 0.33985 0.58091 0.0
C1129 C 0.57929 0.31171 0.56646 0.0
C1130 C 0.56211 0.35912 0.59075 0.0
C1131 C 0.53314 0.35031 0.58602 0.0
C1132 C 0.52748 0.32341 0.56982 0.0
C1133 C 0.55028 0.30437 0.56011 0.0
C1134 C 0.46646 0.3624 0.63114 0.0
C1135 C 0.45399 0.39003 0.61887 0.0
C1136 C 0.49331 0.35075 0.62168 0.0
C1137 C 0.50842 0.3666 0.6 0.0
C1138 C 0.49705 0.3952 0.58893 0.0
C1139 C 0.47 0.40687 0.59832 0.0
H1140 H 0.1868 0.7288 0.64634 0.0
H1141 H 0.17138 0.66463 0.71739 0.0
H1142 H 0.15748 0.76918 0.6702 0.0
H1143 H 0.14346 0.70557 0.74198 0.0
H1144 H 0.05545 0.76108 0.74248 0.0
H1145 H 0.09553 0.72585 0.73035 0.0
H1146 H 0.14853 0.80535 0.71055 0.0
H1147 H 0.10754 0.84104 0.72251 0.0
C1148 C 0.17755 0.72344 0.66728 0.0
C1149 C 0.18089 0.69317 0.67958 0.0
C1150 C 0.16113 0.74681 0.6812 0.0
C1151 C 0.14777 0.7405 0.70784 0.0
C1152 C 0.15303 0.71103 0.72121 0.0
C1153 C 0.16929 0.6876 0.70721 0.0
C1154 C 0.07579 0.77112 0.73596 0.0
C1155 C 0.07829 0.80373 0.733 0.0
C1156 C 0.09895 0.75088 0.72928 0.0
C1157 C 0.1253 0.7627 0.71938 0.0
C1158 C 0.12839 0.79552 0.71786 0.0
C1159 C 0.10506 0.81593 0.72481 0.0
H1160 H 0.46213 0.83983 1.0093 0.0
H1161 H 0.45717 0.79534 0.92526 0.0
H1162 H 0.50642 0.86616 0.99442 0.0
H1163 H 0.50063 0.82186 0.91034 0.0
H1164 H 0.59767 0.8347 0.90821 0.0
H1165 H 0.55141 0.81466 0.92358 0.0
H1166 H 0.52869 0.90461 0.96089 0.0
H1167 H 0.57592 0.9245 0.94642 0.0
C1168 C 0.4701 0.83621 0.98749 0.0
C1169 C 0.45639 0.81516 0.96862 0.0
C1170 C 0.49546 0.85127 0.97896 0.0
C1171 C 0.50742 0.84558 0.95139 0.0
C1172 C 0.49252 0.82609 0.93201 0.0
C1173 C 0.46745 0.81101 0.94053 0.0
C1174 C 0.58307 0.85019 0.92001 0.0
C1175 C 0.59065 0.88122 0.92613 0.0
C1176 C 0.55628 0.8388 0.92849 0.0
C1177 C 0.53614 0.85813 0.94318 0.0
C1178 C 0.54373 0.8891 0.94965 0.0
C1179 C 0.57067 0.90056 0.94112 0.0
H1180 H 0.94862 0.14725 0.41451 0.0
H1181 H 0.9966 0.06571 0.44779 0.0
H1182 H 0.99025 0.17958 0.42486 0.0
H1183 H 0.0389 0.09802 0.45698 0.0
H1184 H 0.09994 0.17599 0.49318 0.0
H1185 H 0.05903 0.14056 0.48639 0.0
H1186 H 0.03731 0.18662 0.40447 0.0
H1187 H 0.07744 0.22191 0.41162 0.0
C1188 C 0.96792 0.1362 0.42431 0.0
C1189 C 0.96912 0.10374 0.43015 0.0
C1190 C 0.99205 0.15472 0.42987 0.0
C1191 C 0.01821 0.14137 0.44134 0.0
C1192 C 0.01916 0.10912 0.44816 0.0
C1193 C 0.99495 0.09054 0.44259 0.0
C1194 C 0.08662 0.17804 0.47358 0.0
C1195 C 0.0918 0.20169 0.45298 0.0
C1196 C 0.06314 0.15787 0.46967 0.0
C1197 C 0.04446 0.16107 0.44509 0.0
C1198 C 0.05065 0.18395 0.42403 0.0
C1199 C 0.07388 0.20402 0.42798 0.0
loop_
_geom_bond_atom_site_label_1
_geom_bond_atom_site_label_2
_geom_bond_distance
_geom_bond_site_symmetry_2
_ccdc_geom_bond_type
Sm0 C2 2.846 . S
Sm0 O20 2.543 . S
Sm0 O21 2.450 . S
Sm0 O22 2.681 . S
Sm0 O23 2.464 . S
Sm0 O24 2.396 . S
Sm0 O28 2.386 . S
Sm0 O31 2.408 . S
Sm1 C11 2.846 . S
Sm1 O22 2.386 . S
Sm1 O25 2.408 . S
Sm1 O26 2.543 . S
Sm1 O27 2.450 . S
Sm1 O28 2.681 . S
Sm1 O29 2.464 . S
Sm1 O30 2.396 . S
C2 Sm0 2.846 . S
C2 C3 1.506 . S
C2 O20 1.261 . S
C2 O21 1.242 . S
C3 C2 1.506 . S
C3 C4 1.358 . S
C3 C8 1.382 . S
C4 C3 1.358 . S
C4 C5 1.385 . S
C4 H32 0.930 . S
C5 C4 1.385 . S
C5 C6 1.395 . S
C5 H33 0.929 . S
C6 C5 1.395 . S
C6 C7 1.335 . S
C7 C6 1.335 . S
C7 C8 1.398 . S
C7 H34 0.930 . S
C8 C3 1.382 . S
C8 C7 1.398 . S
C8 H35 0.929 . S
C9 O22 1.271 . S
C9 O23 1.251 . S
C10 O24 1.252 . S
C10 O25 1.272 . S
C11 Sm1 2.846 . S
C11 C12 1.506 . S
C11 O26 1.261 . S
C11 O27 1.242 . S
C12 C11 1.506 . S
C12 C13 1.358 . S
C12 C17 1.382 . S
C13 C12 1.358 . S
C13 C14 1.385 . S
C13 H36 0.930 . S
C14 C13 1.385 . S
C14 C15 1.395 . S
C14 H37 0.929 . S
C15 C14 1.395 . S
C15 C16 1.335 . S
C16 C15 1.335 . S
C16 C17 1.398 . S
C16 H38 0.930 . S
C17 C12 1.382 . S
C17 C16 1.398 . S
C17 H39 0.929 . S
C18 O28 1.271 . S
C18 O29 1.251 . S
C19 O30 1.252 . S
C19 O31 1.272 . S
O20 Sm0 2.543 . S
O20 C2 1.261 . S
O21 Sm0 2.450 . S
O21 C2 1.242 . S
O22 Sm0 2.681 . S
O22 Sm1 2.386 . S
O22 C9 1.271 . S
O23 Sm0 2.464 . S
O23 C9 1.251 . S
O24 Sm0 2.396 . S
O24 C10 1.252 . S
O25 Sm1 2.408 . S
O25 C10 1.272 . S
O26 Sm1 2.543 . S
O26 C11 1.261 . S
O27 Sm1 2.450 . S
O27 C11 1.242 . S
O28 Sm0 2.386 . S
O28 Sm1 2.681 . S
O28 C18 1.271 . S
O29 Sm1 2.464 . S
O29 C18 1.251 . S
O30 Sm1 2.396 . S
O30 C19 1.252 . S
O31 Sm0 2.408 . S
O31 C19 1.272 . S
H32 C4 0.930 . S
H33 C5 0.929 . S
H34 C7 0.930 . S
H35 C8 0.929 . S
H36 C13 0.930 . S
H37 C14 0.929 . S
H38 C16 0.930 . S
H39 C17 0.929 . S
Sm40 C42 2.846 . S
Sm40 O60 2.543 . S
Sm40 O61 2.450 . S
Sm40 O62 2.681 1_655 S
Sm40 O63 2.464 1_655 S
Sm40 O64 2.396 1_655 S
Sm40 O68 2.386 . S
Sm40 O71 2.408 . S
Sm41 C51 2.846 . S
Sm41 O62 2.386 . S
Sm41 O65 2.408 . S
Sm41 O66 2.543 . S
Sm41 O67 2.450 . S
Sm41 O68 2.681 1_455 S
Sm41 O69 2.464 . S
Sm41 O70 2.396 . S
C42 Sm40 2.846 . S
C42 C43 1.506 . S
C42 O60 1.261 . S
C42 O61 1.242 . S
C43 C42 1.506 . S
C43 C44 1.358 . S
C43 C48 1.382 . S
C44 C43 1.358 . S
C44 C45 1.385 . S
C44 H72 0.930 . S
C45 C44 1.385 . S
C45 C46 1.395 . S
C45 H73 0.929 . S
C46 C45 1.395 . S
C46 C47 1.335 . S
C47 C46 1.335 . S
C47 C48 1.398 . S
C47 H74 0.930 . S
C48 C43 1.382 . S
C48 C47 1.398 . S
C48 H75 0.929 . S
C49 O62 1.271 . S
C49 O63 1.251 . S
C50 O64 1.252 . S
C50 O65 1.272 . S
C51 Sm41 2.846 . S
C51 C52 1.506 . S
C51 O66 1.261 . S
C51 O67 1.242 . S
C52 C51 1.506 . S
C52 C53 1.358 . S
C52 C57 1.382 . S
C53 C52 1.358 . S
C53 C54 1.385 . S
C53 H76 0.930 . S
C54 C53 1.385 . S
C54 C55 1.395 . S
C54 H77 0.929 . S
C55 C54 1.395 . S
C55 C56 1.335 . S
C56 C55 1.335 . S
C56 C57 1.398 . S
C56 H78 0.930 . S
C57 C52 1.382 . S
C57 C56 1.398 . S
C57 H79 0.929 . S
C58 O68 1.271 . S
C58 O69 1.251 1_655 S
C59 O70 1.252 1_655 S
C59 O71 1.272 . S
O60 Sm40 2.543 . S
O60 C42 1.261 . S
O61 Sm40 2.450 . S
O61 C42 1.242 . S
O62 Sm40 2.681 1_455 S
O62 Sm41 2.386 . S
O62 C49 1.271 . S
O63 Sm40 2.464 1_455 S
O63 C49 1.251 . S
O64 Sm40 2.396 1_455 S
O64 C50 1.252 . S
O65 Sm41 2.408 . S
O65 C50 1.272 . S
O66 Sm41 2.543 . S
O66 C51 1.261 . S
O67 Sm41 2.450 . S
O67 C51 1.242 . S
O68 Sm40 2.386 . S
O68 Sm41 2.681 1_655 S
O68 C58 1.271 . S
O69 Sm41 2.464 . S
O69 C58 1.251 1_455 S
O70 Sm41 2.396 . S
O70 C59 1.252 1_455 S
O71 Sm40 2.408 . S
O71 C59 1.272 . S
H72 C44 0.930 . S
H73 C45 0.929 . S
H74 C47 0.930 . S
H75 C48 0.929 . S
H76 C53 0.930 . S
H77 C54 0.929 . S
H78 C56 0.930 . S
H79 C57 0.929 . S
Sm80 C82 2.846 . S
Sm80 O100 2.543 . S
Sm80 O101 2.450 . S
Sm80 O102 2.681 1_554 S
Sm80 O103 2.464 1_554 S
Sm80 O104 2.396 1_554 S
Sm80 O108 2.386 . S
Sm80 O111 2.408 . S
Sm81 C91 2.846 . S
Sm81 O102 2.386 . S
Sm81 O105 2.408 . S
Sm81 O106 2.543 . S
Sm81 O107 2.450 . S
Sm81 O108 2.681 1_556 S
Sm81 O109 2.464 . S
Sm81 O110 2.396 . S
C82 Sm80 2.846 . S
C82 C83 1.506 . S
C82 O100 1.261 . S
C82 O101 1.242 . S
C83 C82 1.506 . S
C83 C84 1.358 . S
C83 C88 1.382 . S
C84 C83 1.358 . S
C84 C85 1.385 . S
C84 H112 0.930 . S
C85 C84 1.385 . S
C85 C86 1.395 . S
C85 H113 0.929 . S
C86 C85 1.395 . S
C86 C87 1.335 . S
C87 C86 1.335 . S
C87 C88 1.398 . S
C87 H114 0.930 . S
C88 C83 1.382 . S
C88 C87 1.398 . S
C88 H115 0.929 . S
C89 O102 1.271 . S
C89 O103 1.251 . S
C90 O104 1.252 . S
C90 O105 1.272 . S
C91 Sm81 2.846 . S
C91 C92 1.506 . S
C91 O106 1.261 . S
C91 O107 1.242 . S
C92 C91 1.506 . S
C92 C93 1.358 . S
C92 C97 1.382 . S
C93 C92 1.358 . S
C93 C94 1.385 . S
C93 H116 0.930 . S
C94 C93 1.385 . S
C94 C95 1.395 . S
C94 H117 0.929 . S
C95 C94 1.395 . S
C95 C96 1.335 . S
C96 C95 1.335 . S
C96 C97 1.398 . S
C96 H118 0.930 . S
C97 C92 1.382 . S
C97 C96 1.398 . S
C97 H119 0.929 . S
C98 O108 1.271 . S
C98 O109 1.251 1_554 S
C99 O110 1.252 1_554 S
C99 O111 1.272 . S
O100 Sm80 2.543 . S
O100 C82 1.261 . S
O101 Sm80 2.450 . S
O101 C82 1.242 . S
O102 Sm80 2.681 1_556 S
O102 Sm81 2.386 . S
O102 C89 1.271 . S
O103 Sm80 2.464 1_556 S
O103 C89 1.251 . S
O104 Sm80 2.396 1_556 S
O104 C90 1.252 . S
O105 Sm81 2.408 . S
O105 C90 1.272 . S
O106 Sm81 2.543 . S
O106 C91 1.261 . S
O107 Sm81 2.450 . S
O107 C91 1.242 . S
O108 Sm80 2.386 . S
O108 Sm81 2.681 1_554 S
O108 C98 1.271 . S
O109 Sm81 2.464 . S
O109 C98 1.251 1_556 S
O110 Sm81 2.396 . S
O110 C99 1.252 1_556 S
O111 Sm80 2.408 . S
O111 C99 1.272 . S
H112 C84 0.930 . S
H113 C85 0.929 . S
H114 C87 0.930 . S
H115 C88 0.929 . S
H116 C93 0.930 . S
H117 C94 0.929 . S
H118 C96 0.930 . S
H119 C97 0.929 . S
Sm120 C122 2.846 . S
Sm120 O140 2.543 . S
Sm120 O141 2.450 . S
Sm120 O142 2.681 . S
Sm120 O143 2.464 . S
Sm120 O144 2.396 . S
Sm120 O148 2.386 . S
Sm120 O151 2.408 . S
Sm121 C131 2.846 . S
Sm121 O142 2.386 . S
Sm121 O145 2.408 . S
Sm121 O146 2.543 . S
Sm121 O147 2.450 . S
Sm121 O148 2.681 . S
Sm121 O149 2.464 . S
Sm121 O150 2.396 . S
C122 Sm120 2.846 . S
C122 C123 1.506 . S
C122 O140 1.261 . S
C122 O141 1.242 . S
C123 C122 1.506 . S
C123 C124 1.358 . S
C123 C128 1.382 . S
C124 C123 1.358 . S
C124 C125 1.385 . S
C124 H152 0.930 . S
C125 C124 1.385 . S
C125 C126 1.395 . S
C125 H153 0.929 . S
C126 C125 1.395 . S
C126 C127 1.335 . S
C127 C126 1.335 . S
C127 C128 1.398 . S
C127 H154 0.930 . S
C128 C123 1.382 . S
C128 C127 1.398 . S
C128 H155 0.929 . S
C129 O142 1.271 . S
C129 O143 1.251 . S
C130 O144 1.252 . S
C130 O145 1.272 . S
C131 Sm121 2.846 . S
C131 C132 1.506 . S
C131 O146 1.261 . S
C131 O147 1.242 . S
C132 C131 1.506 . S
C132 C133 1.358 . S
C132 C137 1.382 . S
C133 C132 1.358 . S
C133 C134 1.385 . S
C133 H156 0.930 . S
C134 C133 1.385 . S
C134 C135 1.395 . S
C134 H157 0.929 . S
C135 C134 1.395 . S
C135 C136 1.335 . S
C136 C135 1.335 . S
C136 C137 1.398 . S
C136 H158 0.930 . S
C137 C132 1.382 . S
C137 C136 1.398 . S
C137 H159 0.929 . S
C138 O148 1.271 . S
C138 O149 1.251 . S
C139 O150 1.252 . S
C139 O151 1.272 . S
O140 Sm120 2.543 . S
O140 C122 1.261 . S
O141 Sm120 2.450 . S
O141 C122 1.242 . S
O142 Sm120 2.681 . S
O142 Sm121 2.386 . S
O142 C129 1.271 . S
O143 Sm120 2.464 . S
O143 C129 1.251 . S
O144 Sm120 2.396 . S
O144 C130 1.252 . S
O145 Sm121 2.408 . S
O145 C130 1.272 . S
O146 Sm121 2.543 . S
O146 C131 1.261 . S
O147 Sm121 2.450 . S
O147 C131 1.242 . S
O148 Sm120 2.386 . S
O148 Sm121 2.681 . S
O148 C138 1.271 . S
O149 Sm121 2.464 . S
O149 C138 1.251 . S
O150 Sm121 2.396 . S
O150 C139 1.252 . S
O151 Sm120 2.408 . S
O151 C139 1.272 . S
H152 C124 0.930 . S
H153 C125 0.929 . S
H154 C127 0.930 . S
H155 C128 0.929 . S
H156 C133 0.930 . S
H157 C134 0.929 . S
H158 C136 0.930 . S
H159 C137 0.929 . S
Sm160 C162 2.846 . S
Sm160 O180 2.543 . S
Sm160 O181 2.450 . S
Sm160 O182 2.681 . S
Sm160 O183 2.464 . S
Sm160 O184 2.396 . S
Sm160 O188 2.386 . S
Sm160 O191 2.408 . S
Sm161 C171 2.846 . S
Sm161 O182 2.386 . S
Sm161 O185 2.408 . S
Sm161 O186 2.543 . S
Sm161 O187 2.450 . S
Sm161 O188 2.681 . S
Sm161 O189 2.464 . S
Sm161 O190 2.396 . S
C162 Sm160 2.846 . S
C162 C163 1.506 . S
C162 O180 1.261 . S
C162 O181 1.242 . S
C163 C162 1.506 . S
C163 C164 1.358 . S
C163 C168 1.382 . S
C164 C163 1.358 . S
C164 C165 1.385 . S
C164 H192 0.930 . S
C165 C164 1.385 . S
C165 C166 1.395 . S
C165 H193 0.929 . S
C166 C165 1.395 . S
C166 C167 1.335 . S
C167 C166 1.335 . S
C167 C168 1.398 . S
C167 H194 0.930 . S
C168 C163 1.382 . S
C168 C167 1.398 . S
C168 H195 0.929 . S
C169 O182 1.271 . S
C169 O183 1.251 . S
C170 O184 1.252 . S
C170 O185 1.272 . S
C171 Sm161 2.846 . S
C171 C172 1.506 . S
C171 O186 1.261 . S
C171 O187 1.242 . S
C172 C171 1.506 . S
C172 C173 1.358 . S
C172 C177 1.382 . S
C173 C172 1.358 . S
C173 C174 1.385 . S
C173 H196 0.930 . S
C174 C173 1.385 . S
C174 C175 1.395 . S
C174 H197 0.929 . S
C175 C174 1.395 . S
C175 C176 1.335 . S
C176 C175 1.335 . S
C176 C177 1.398 . S
C176 H198 0.930 . S
C177 C172 1.382 . S
C177 C176 1.398 . S
C177 H199 0.929 . S
C178 O188 1.271 . S
C178 O189 1.251 . S
C179 O190 1.252 . S
C179 O191 1.272 . S
O180 Sm160 2.543 . S
O180 C162 1.261 . S
O181 Sm160 2.450 . S
O181 C162 1.242 . S
O182 Sm160 2.681 . S
O182 Sm161 2.386 . S
O182 C169 1.271 . S
O183 Sm160 2.464 . S
O183 C169 1.251 . S
O184 Sm160 2.396 . S
O184 C170 1.252 . S
O185 Sm161 2.408 . S
O185 C170 1.272 . S
O186 Sm161 2.543 . S
O186 C171 1.261 . S
O187 Sm161 2.450 . S
O187 C171 1.242 . S
O188 Sm160 2.386 . S
O188 Sm161 2.681 . S
O188 C178 1.271 . S
O189 Sm161 2.464 . S
O189 C178 1.251 . S
O190 Sm161 2.396 . S
O190 C179 1.252 . S
O191 Sm160 2.408 . S
O191 C179 1.272 . S
H192 C164 0.930 . S
H193 C165 0.929 . S
H194 C167 0.930 . S
H195 C168 0.929 . S
H196 C173 0.930 . S
H197 C174 0.929 . S
H198 C176 0.930 . S
H199 C177 0.929 . S
Sm200 C202 2.846 . S
Sm200 O220 2.543 . S
Sm200 O221 2.450 . S
Sm200 O222 2.681 . S
Sm200 O223 2.464 . S
Sm200 O224 2.396 . S
Sm200 O228 2.386 1_655 S
Sm200 O231 2.408 1_655 S
Sm201 C211 2.846 . S
Sm201 O222 2.386 1_455 S
Sm201 O225 2.408 1_455 S
Sm201 O226 2.543 . S
Sm201 O227 2.450 . S
Sm201 O228 2.681 . S
Sm201 O229 2.464 . S
Sm201 O230 2.396 . S
C202 Sm200 2.846 . S
C202 C203 1.506 . S
C202 O220 1.261 . S
C202 O221 1.242 . S
C203 C202 1.506 . S
C203 C204 1.358 . S
C203 C208 1.382 . S
C204 C203 1.358 . S
C204 C205 1.385 . S
C204 H232 0.930 . S
C205 C204 1.385 . S
C205 C206 1.395 . S
C205 H233 0.929 . S
C206 C205 1.395 . S
C206 C207 1.335 . S
C207 C206 1.335 . S
C207 C208 1.398 . S
C207 H234 0.930 . S
C208 C203 1.382 . S
C208 C207 1.398 . S
C208 H235 0.929 . S
C209 O222 1.271 . S
C209 O223 1.251 . S
C210 O224 1.252 . S
C210 O225 1.272 . S
C211 Sm201 2.846 . S
C211 C212 1.506 . S
C211 O226 1.261 . S
C211 O227 1.242 . S
C212 C211 1.506 . S
C212 C213 1.358 . S
C212 C217 1.382 . S
C213 C212 1.358 . S
C213 C214 1.385 . S
C213 H236 0.930 . S
C214 C213 1.385 . S
C214 C215 1.395 . S
C214 H237 0.929 . S
C215 C214 1.395 . S
C215 C216 1.335 . S
C216 C215 1.335 . S
C216 C217 1.398 . S
C216 H238 0.930 . S
C217 C212 1.382 . S
C217 C216 1.398 . S
C217 H239 0.929 . S
C218 O228 1.271 . S
C218 O229 1.251 . S
C219 O230 1.252 . S
C219 O231 1.272 . S
O220 Sm200 2.543 . S
O220 C202 1.261 . S
O221 Sm200 2.450 . S
O221 C202 1.242 . S
O222 Sm200 2.681 . S
O222 Sm201 2.386 1_655 S
O222 C209 1.271 . S
O223 Sm200 2.464 . S
O223 C209 1.251 . S
O224 Sm200 2.396 . S
O224 C210 1.252 . S
O225 Sm201 2.408 1_655 S
O225 C210 1.272 . S
O226 Sm201 2.543 . S
O226 C211 1.261 . S
O227 Sm201 2.450 . S
O227 C211 1.242 . S
O228 Sm200 2.386 1_455 S
O228 Sm201 2.681 . S
O228 C218 1.271 . S
O229 Sm201 2.464 . S
O229 C218 1.251 . S
O230 Sm201 2.396 . S
O230 C219 1.252 . S
O231 Sm200 2.408 1_455 S
O231 C219 1.272 . S
H232 C204 0.930 . S
H233 C205 0.929 . S
H234 C207 0.930 . S
H235 C208 0.929 . S
H236 C213 0.930 . S
H237 C214 0.929 . S
H238 C216 0.930 . S
H239 C217 0.929 . S
Sm240 C242 2.846 . S
Sm240 O260 2.543 . S
Sm240 O261 2.450 . S
Sm240 O262 2.681 . S
Sm240 O263 2.464 . S
Sm240 O264 2.396 . S
Sm240 O268 2.386 . S
Sm240 O271 2.408 1_554 S
Sm241 C251 2.846 . S
Sm241 O262 2.386 1_556 S
Sm241 O265 2.408 1_556 S
Sm241 O266 2.543 . S
Sm241 O267 2.450 . S
Sm241 O268 2.681 1_556 S
Sm241 O269 2.464 . S
Sm241 O270 2.396 . S
C242 Sm240 2.846 . S
C242 C243 1.506 . S
C242 O260 1.261 . S
C242 O261 1.242 . S
C243 C242 1.506 . S
C243 C244 1.358 . S
C243 C248 1.382 . S
C244 C243 1.358 . S
C244 C245 1.385 . S
C244 H272 0.930 . S
C245 C244 1.385 . S
C245 C246 1.395 . S
C245 H273 0.929 . S
C246 C245 1.395 . S
C246 C247 1.335 . S
C247 C246 1.335 . S
C247 C248 1.398 . S
C247 H274 0.930 . S
C248 C243 1.382 . S
C248 C247 1.398 . S
C248 H275 0.929 . S
C249 O262 1.271 . S
C249 O263 1.251 . S
C250 O264 1.252 . S
C250 O265 1.272 . S
C251 Sm241 2.846 . S
C251 C252 1.506 . S
C251 O266 1.261 . S
C251 O267 1.242 . S
C252 C251 1.506 . S
C252 C253 1.358 . S
C252 C257 1.382 . S
C253 C252 1.358 . S
C253 C254 1.385 . S
C253 H276 0.930 . S
C254 C253 1.385 . S
C254 C255 1.395 . S
C254 H277 0.929 . S
C255 C254 1.395 . S
C255 C256 1.335 . S
C256 C255 1.335 . S
C256 C257 1.398 . S
C256 H278 0.930 . S
C257 C252 1.382 . S
C257 C256 1.398 . S
C257 H279 0.929 . S
C258 O268 1.271 1_556 S
C258 O269 1.251 . S
C259 O270 1.252 . S
C259 O271 1.272 . S
O260 Sm240 2.543 . S
O260 C242 1.261 . S
O261 Sm240 2.450 . S
O261 C242 1.242 . S
O262 Sm240 2.681 . S
O262 Sm241 2.386 1_554 S
O262 C249 1.271 . S
O263 Sm240 2.464 . S
O263 C249 1.251 . S
O264 Sm240 2.396 . S
O264 C250 1.252 . S
O265 Sm241 2.408 1_554 S
O265 C250 1.272 . S
O266 Sm241 2.543 . S
O266 C251 1.261 . S
O267 Sm241 2.450 . S
O267 C251 1.242 . S
O268 Sm240 2.386 . S
O268 Sm241 2.681 1_554 S
O268 C258 1.271 1_554 S
O269 Sm241 2.464 . S
O269 C258 1.251 . S
O270 Sm241 2.396 . S
O270 C259 1.252 . S
O271 Sm240 2.408 1_556 S
O271 C259 1.272 . S
H272 C244 0.930 . S
H273 C245 0.929 . S
H274 C247 0.930 . S
H275 C248 0.929 . S
H276 C253 0.930 . S
H277 C254 0.929 . S
H278 C256 0.930 . S
H279 C257 0.929 . S
Sm280 C282 2.846 . S
Sm280 O300 2.543 . S
Sm280 O301 2.450 . S
Sm280 O302 2.681 . S
Sm280 O303 2.464 . S
Sm280 O304 2.396 . S
Sm280 O308 2.386 . S
Sm280 O311 2.408 . S
Sm281 C291 2.846 . S
Sm281 O302 2.386 . S
Sm281 O305 2.408 . S
Sm281 O306 2.543 . S
Sm281 O307 2.450 . S
Sm281 O308 2.681 . S
Sm281 O309 2.464 . S
Sm281 O310 2.396 . S
C282 Sm280 2.846 . S
C282 C283 1.506 . S
C282 O300 1.261 . S
C282 O301 1.242 . S
C283 C282 1.506 . S
C283 C284 1.358 . S
C283 C288 1.382 . S
C284 C283 1.358 . S
C284 C285 1.385 . S
C284 H312 0.930 . S
C285 C284 1.385 . S
C285 C286 1.395 . S
C285 H313 0.929 . S
C286 C285 1.395 . S
C286 C287 1.335 . S
C287 C286 1.335 . S
C287 C288 1.398 . S
C287 H314 0.930 . S
C288 C283 1.382 . S
C288 C287 1.398 . S
C288 H315 0.929 . S
C289 O302 1.271 . S
C289 O303 1.251 . S
C290 O304 1.252 . S
C290 O305 1.272 . S
C291 Sm281 2.846 . S
C291 C292 1.506 . S
C291 O306 1.261 . S
C291 O307 1.242 . S
C292 C291 1.506 . S
C292 C293 1.358 . S
C292 C297 1.382 . S
C293 C292 1.358 . S
C293 C294 1.385 . S
C293 H316 0.930 . S
C294 C293 1.385 . S
C294 C295 1.395 . S
C294 H317 0.929 . S
C295 C294 1.395 . S
C295 C296 1.335 . S
C296 C295 1.335 . S
C296 C297 1.398 . S
C296 H318 0.930 . S
C297 C292 1.382 . S
C297 C296 1.398 . S
C297 H319 0.929 . S
C298 O308 1.271 . S
C298 O309 1.251 . S
C299 O310 1.252 . S
C299 O311 1.272 . S
O300 Sm280 2.543 . S
O300 C282 1.261 . S
O301 Sm280 2.450 . S
O301 C282 1.242 . S
O302 Sm280 2.681 . S
O302 Sm281 2.386 . S
O302 C289 1.271 . S
O303 Sm280 2.464 . S
O303 C289 1.251 . S
O304 Sm280 2.396 . S
O304 C290 1.252 . S
O305 Sm281 2.408 . S
O305 C290 1.272 . S
O306 Sm281 2.543 . S
O306 C291 1.261 . S
O307 Sm281 2.450 . S
O307 C291 1.242 . S
O308 Sm280 2.386 . S
O308 Sm281 2.681 . S
O308 C298 1.271 . S
O309 Sm281 2.464 . S
O309 C298 1.251 . S
O310 Sm281 2.396 . S
O310 C299 1.252 . S
O311 Sm280 2.408 . S
O311 C299 1.272 . S
H312 C284 0.930 . S
H313 C285 0.929 . S
H314 C287 0.930 . S
H315 C288 0.929 . S
H316 C293 0.930 . S
H317 C294 0.929 . S
H318 C296 0.930 . S
H319 C297 0.929 . S
Sm320 C322 2.846 . S
Sm320 O340 2.543 . S
Sm320 O341 2.450 . S
Sm320 O342 2.681 . S
Sm320 O343 2.464 . S
Sm320 O344 2.396 . S
Sm320 O348 2.386 . S
Sm320 O351 2.408 . S
Sm321 C331 2.846 . S
Sm321 O342 2.386 . S
Sm321 O345 2.408 . S
Sm321 O346 2.543 . S
Sm321 O347 2.450 . S
Sm321 O348 2.681 . S
Sm321 O349 2.464 . S
Sm321 O350 2.396 . S
C322 Sm320 2.846 . S
C322 C323 1.506 . S
C322 O340 1.261 . S
C322 O341 1.242 . S
C323 C322 1.506 . S
C323 C324 1.358 . S
C323 C328 1.382 . S
C324 C323 1.358 . S
C324 C325 1.385 . S
C324 H352 0.930 . S
C325 C324 1.385 . S
C325 C326 1.395 . S
C325 H353 0.929 . S
C326 C325 1.395 . S
C326 C327 1.335 . S
C327 C326 1.335 . S
C327 C328 1.398 . S
C327 H354 0.930 . S
C328 C323 1.382 . S
C328 C327 1.398 . S
C328 H355 0.929 . S
C329 O342 1.271 . S
C329 O343 1.251 . S
C330 O344 1.252 . S
C330 O345 1.272 . S
C331 Sm321 2.846 . S
C331 C332 1.506 . S
C331 O346 1.261 . S
C331 O347 1.242 . S
C332 C331 1.506 . S
C332 C333 1.358 . S
C332 C337 1.382 . S
C333 C332 1.358 . S
C333 C334 1.385 . S
C333 H356 0.930 . S
C334 C333 1.385 . S
C334 C335 1.395 . S
C334 H357 0.929 . S
C335 C334 1.395 . S
C335 C336 1.335 . S
C336 C335 1.335 . S
C336 C337 1.398 . S
C336 H358 0.930 . S
C337 C332 1.382 . S
C337 C336 1.398 . S
C337 H359 0.929 . S
C338 O348 1.271 . S
C338 O349 1.251 . S
C339 O350 1.252 . S
C339 O351 1.272 . S
O340 Sm320 2.543 . S
O340 C322 1.261 . S
O341 Sm320 2.450 . S
O341 C322 1.242 . S
O342 Sm320 2.681 . S
O342 Sm321 2.386 . S
O342 C329 1.271 . S
O343 Sm320 2.464 . S
O343 C329 1.251 . S
O344 Sm320 2.396 . S
O344 C330 1.252 . S
O345 Sm321 2.408 . S
O345 C330 1.272 . S
O346 Sm321 2.543 . S
O346 C331 1.261 . S
O347 Sm321 2.450 . S
O347 C331 1.242 . S
O348 Sm320 2.386 . S
O348 Sm321 2.681 . S
O348 C338 1.271 . S
O349 Sm321 2.464 . S
O349 C338 1.251 . S
O350 Sm321 2.396 . S
O350 C339 1.252 . S
O351 Sm320 2.408 . S
O351 C339 1.272 . S
H352 C324 0.930 . S
H353 C325 0.929 . S
H354 C327 0.930 . S
H355 C328 0.929 . S
H356 C333 0.930 . S
H357 C334 0.929 . S
H358 C336 0.930 . S
H359 C337 0.929 . S
Sm360 C362 2.846 . S
Sm360 O380 2.543 . S
Sm360 O381 2.450 . S
Sm360 O382 2.681 1_565 S
Sm360 O383 2.464 1_565 S
Sm360 O384 2.396 1_565 S
Sm360 O388 2.386 . S
Sm360 O391 2.408 . S
Sm361 C371 2.846 . S
Sm361 O382 2.386 . S
Sm361 O385 2.408 . S
Sm361 O386 2.543 . S
Sm361 O387 2.450 . S
Sm361 O388 2.681 1_545 S
Sm361 O389 2.464 1_545 S
Sm361 O390 2.396 1_545 S
C362 Sm360 2.846 . S
C362 C363 1.506 . S
C362 O380 1.261 . S
C362 O381 1.242 . S
C363 C362 1.506 . S
C363 C364 1.358 . S
C363 C368 1.382 . S
C364 C363 1.358 . S
C364 C365 1.385 . S
C364 H392 0.930 . S
C365 C364 1.385 . S
C365 C366 1.395 . S
C365 H393 0.929 . S
C366 C365 1.395 . S
C366 C367 1.335 . S
C367 C366 1.335 . S
C367 C368 1.398 . S
C367 H394 0.930 . S
C368 C363 1.382 . S
C368 C367 1.398 . S
C368 H395 0.929 . S
C369 O382 1.271 . S
C369 O383 1.251 . S
C370 O384 1.252 . S
C370 O385 1.272 . S
C371 Sm361 2.846 . S
C371 C372 1.506 . S
C371 O386 1.261 . S
C371 O387 1.242 . S
C372 C371 1.506 . S
C372 C373 1.358 . S
C372 C377 1.382 . S
C373 C372 1.358 . S
C373 C374 1.385 . S
C373 H396 0.930 . S
C374 C373 1.385 . S
C374 C375 1.395 . S
C374 H397 0.929 . S
C375 C374 1.395 . S
C375 C376 1.335 . S
C376 C375 1.335 . S
C376 C377 1.398 . S
C376 H398 0.930 . S
C377 C372 1.382 . S
C377 C376 1.398 . S
C377 H399 0.929 . S
C378 O388 1.271 . S
C378 O389 1.251 . S
C379 O390 1.252 . S
C379 O391 1.272 . S
O380 Sm360 2.543 . S
O380 C362 1.261 . S
O381 Sm360 2.450 . S
O381 C362 1.242 . S
O382 Sm360 2.681 1_545 S
O382 Sm361 2.386 . S
O382 C369 1.271 . S
O383 Sm360 2.464 1_545 S
O383 C369 1.251 . S
O384 Sm360 2.396 1_545 S
O384 C370 1.252 . S
O385 Sm361 2.408 . S
O385 C370 1.272 . S
O386 Sm361 2.543 . S
O386 C371 1.261 . S
O387 Sm361 2.450 . S
O387 C371 1.242 . S
O388 Sm360 2.386 . S
O388 Sm361 2.681 1_565 S
O388 C378 1.271 . S
O389 Sm361 2.464 1_565 S
O389 C378 1.251 . S
O390 Sm361 2.396 1_565 S
O390 C379 1.252 . S
O391 Sm360 2.408 . S
O391 C379 1.272 . S
H392 C364 0.930 . S
H393 C365 0.929 . S
H394 C367 0.930 . S
H395 C368 0.929 . S
H396 C373 0.930 . S
H397 C374 0.929 . S
H398 C376 0.930 . S
H399 C377 0.929 . S
Sm400 C402 2.846 . S
Sm400 O420 2.543 . S
Sm400 O421 2.450 . S
Sm400 O422 2.681 . S
Sm400 O423 2.464 . S
Sm400 O424 2.396 . S
Sm400 O428 2.386 1_565 S
Sm400 O431 2.408 1_565 S
Sm401 C411 2.846 . S
Sm401 O422 2.386 1_545 S
Sm401 O425 2.408 1_545 S
Sm401 O426 2.543 . S
Sm401 O427 2.450 . S
Sm401 O428 2.681 . S
Sm401 O429 2.464 . S
Sm401 O430 2.396 . S
C402 Sm400 2.846 . S
C402 C403 1.506 . S
C402 O420 1.261 . S
C402 O421 1.242 . S
C403 C402 1.506 . S
C403 C404 1.358 . S
C403 C408 1.382 . S
C404 C403 1.358 . S
C404 C405 1.385 . S
C404 H432 0.930 . S
C405 C404 1.385 . S
C405 C406 1.395 . S
C405 H433 0.929 . S
C406 C405 1.395 . S
C406 C407 1.335 . S
C407 C406 1.335 . S
C407 C408 1.398 . S
C407 H434 0.930 . S
C408 C403 1.382 . S
C408 C407 1.398 . S
C408 H435 0.929 . S
C409 O422 1.271 . S
C409 O423 1.251 . S
C410 O424 1.252 . S
C410 O425 1.272 . S
C411 Sm401 2.846 . S
C411 C412 1.506 . S
C411 O426 1.261 . S
C411 O427 1.242 . S
C412 C411 1.506 . S
C412 C413 1.358 . S
C412 C417 1.382 . S
C413 C412 1.358 . S
C413 C414 1.385 . S
C413 H436 0.930 . S
C414 C413 1.385 . S
C414 C415 1.395 . S
C414 H437 0.929 . S
C415 C414 1.395 . S
C415 C416 1.335 . S
C416 C415 1.335 . S
C416 C417 1.398 . S
C416 H438 0.930 . S
C417 C412 1.382 . S
C417 C416 1.398 . S
C417 H439 0.929 . S
C418 O428 1.271 . S
C418 O429 1.251 . S
C419 O430 1.252 . S
C419 O431 1.272 . S
O420 Sm400 2.543 . S
O420 C402 1.261 . S
O421 Sm400 2.450 . S
O421 C402 1.242 . S
O422 Sm400 2.681 . S
O422 Sm401 2.386 1_565 S
O422 C409 1.271 . S
O423 Sm400 2.464 . S
O423 C409 1.251 . S
O424 Sm400 2.396 . S
O424 C410 1.252 . S
O425 Sm401 2.408 1_565 S
O425 C410 1.272 . S
O426 Sm401 2.543 . S
O426 C411 1.261 . S
O427 Sm401 2.450 . S
O427 C411 1.242 . S
O428 Sm400 2.386 1_545 S
O428 Sm401 2.681 . S
O428 C418 1.271 . S
O429 Sm401 2.464 . S
O429 C418 1.251 . S
O430 Sm401 2.396 . S
O430 C419 1.252 . S
O431 Sm400 2.408 1_545 S
O431 C419 1.272 . S
H432 C404 0.930 . S
H433 C405 0.929 . S
H434 C407 0.930 . S
H435 C408 0.929 . S
H436 C413 0.930 . S
H437 C414 0.929 . S
H438 C416 0.930 . S
H439 C417 0.929 . S
Sm440 C442 2.846 . S
Sm440 O460 2.543 . S
Sm440 O461 2.450 . S
Sm440 O462 2.681 . S
Sm440 O463 2.464 . S
Sm440 O464 2.396 . S
Sm440 O468 2.386 . S
Sm440 O471 2.408 . S
Sm441 C451 2.846 . S
Sm441 O462 2.386 . S
Sm441 O465 2.408 . S
Sm441 O466 2.543 . S
Sm441 O467 2.450 . S
Sm441 O468 2.681 . S
Sm441 O469 2.464 . S
Sm441 O470 2.396 . S
C442 Sm440 2.846 . S
C442 C443 1.506 . S
C442 O460 1.261 . S
C442 O461 1.242 . S
C443 C442 1.506 . S
C443 C444 1.358 . S
C443 C448 1.382 . S
C444 C443 1.358 . S
C444 C445 1.385 . S
C444 H472 0.930 . S
C445 C444 1.385 . S
C445 C446 1.395 . S
C445 H473 0.929 . S
C446 C445 1.395 . S
C446 C447 1.335 . S
C447 C446 1.335 . S
C447 C448 1.398 . S
C447 H474 0.930 . S
C448 C443 1.382 . S
C448 C447 1.398 . S
C448 H475 0.929 . S
C449 O462 1.271 . S
C449 O463 1.251 . S
C450 O464 1.252 . S
C450 O465 1.272 . S
C451 Sm441 2.846 . S
C451 C452 1.506 . S
C451 O466 1.261 . S
C451 O467 1.242 . S
C452 C451 1.506 . S
C452 C453 1.358 . S
C452 C457 1.382 . S
C453 C452 1.358 . S
C453 C454 1.385 . S
C453 H476 0.930 . S
C454 C453 1.385 . S
C454 C455 1.395 . S
C454 H477 0.929 . S
C455 C454 1.395 . S
C455 C456 1.335 . S
C456 C455 1.335 . S
C456 C457 1.398 . S
C456 H478 0.930 . S
C457 C452 1.382 . S
C457 C456 1.398 . S
C457 H479 0.929 . S
C458 O468 1.271 . S
C458 O469 1.251 . S
C459 O470 1.252 . S
C459 O471 1.272 . S
O460 Sm440 2.543 . S
O460 C442 1.261 . S
O461 Sm440 2.450 . S
O461 C442 1.242 . S
O462 Sm440 2.681 . S
O462 Sm441 2.386 . S
O462 C449 1.271 . S
O463 Sm440 2.464 . S
O463 C449 1.251 . S
O464 Sm440 2.396 . S
O464 C450 1.252 . S
O465 Sm441 2.408 . S
O465 C450 1.272 . S
O466 Sm441 2.543 . S
O466 C451 1.261 . S
O467 Sm441 2.450 . S
O467 C451 1.242 . S
O468 Sm440 2.386 . S
O468 Sm441 2.681 . S
O468 C458 1.271 . S
O469 Sm441 2.464 . S
O469 C458 1.251 . S
O470 Sm441 2.396 . S
O470 C459 1.252 . S
O471 Sm440 2.408 . S
O471 C459 1.272 . S
H472 C444 0.930 . S
H473 C445 0.929 . S
H474 C447 0.930 . S
H475 C448 0.929 . S
H476 C453 0.930 . S
H477 C454 0.929 . S
H478 C456 0.930 . S
H479 C457 0.929 . S
H480 C488 0.950 . S
H481 C493 0.950 . S
H482 C490 0.950 . S
H483 C492 0.950 . S
H484 C494 0.950 . S
H485 C496 0.950 . S
H486 C498 0.950 . S
H487 C499 0.950 . S
C488 H480 0.950 . S
C488 C489 1.386 . S
C488 C490 1.391 . S
C489 C488 1.386 . S
C489 C493 1.393 . S
C490 H482 0.950 . S
C490 C488 1.391 . S
C490 C491 1.400 . S
C491 C490 1.400 . S
C491 C492 1.398 . S
C491 C497 1.491 . S
C492 H483 0.950 . S
C492 C491 1.398 . S
C492 C493 1.391 . S
C493 H481 0.950 . S
C493 C489 1.393 . S
C493 C492 1.391 . S
C494 H484 0.950 . S
C494 C495 1.386 . S
C494 C496 1.391 . S
C495 C494 1.386 . S
C495 C499 1.393 . S
C496 H485 0.950 . S
C496 C494 1.391 . S
C496 C497 1.400 . S
C497 C491 1.491 . S
C497 C496 1.400 . S
C497 C498 1.398 . S
C498 H486 0.950 . S
C498 C497 1.398 . S
C498 C499 1.391 . S
C499 H487 0.950 . S
C499 C495 1.393 . S
C499 C498 1.391 . S
H500 C508 0.950 1_545 S
H501 C513 0.950 . S
H502 C510 0.950 1_545 S
H503 C512 0.950 . S
H504 C514 0.950 . S
H505 C516 0.950 . S
H506 C518 0.950 . S
H507 C519 0.950 . S
C508 H500 0.950 1_565 S
C508 C509 1.386 . S
C508 C510 1.391 . S
C509 C508 1.386 . S
C509 C513 1.393 . S
C510 H502 0.950 1_565 S
C510 C508 1.391 . S
C510 C511 1.400 . S
C511 C510 1.400 . S
C511 C512 1.398 . S
C511 C517 1.491 . S
C512 H503 0.950 . S
C512 C511 1.398 . S
C512 C513 1.391 . S
C513 H501 0.950 . S
C513 C509 1.393 . S
C513 C512 1.391 . S
C514 H504 0.950 . S
C514 C515 1.386 . S
C514 C516 1.391 . S
C515 C514 1.386 . S
C515 C519 1.393 . S
C516 H505 0.950 . S
C516 C514 1.391 . S
C516 C517 1.400 . S
C517 C511 1.491 . S
C517 C516 1.400 . S
C517 C518 1.398 . S
C518 H506 0.950 . S
C518 C517 1.398 . S
C518 C519 1.391 . S
C519 H507 0.950 . S
C519 C515 1.393 . S
C519 C518 1.391 . S
H520 C528 0.950 . S
H521 C533 0.950 . S
H522 C530 0.950 . S
H523 C532 0.950 1_556 S
H524 C534 0.950 . S
H525 C536 0.950 . S
H526 C538 0.950 . S
H527 C539 0.950 . S
C528 H520 0.950 . S
C528 C529 1.386 . S
C528 C530 1.391 . S
C529 C528 1.386 . S
C529 C533 1.393 1_554 S
C530 H522 0.950 . S
C530 C528 1.391 . S
C530 C531 1.400 . S
C531 C530 1.400 . S
C531 C532 1.398 . S
C531 C537 1.491 . S
C532 H523 0.950 1_554 S
C532 C531 1.398 . S
C532 C533 1.391 1_554 S
C533 H521 0.950 . S
C533 C529 1.393 1_556 S
C533 C532 1.391 1_556 S
C534 H524 0.950 . S
C534 C535 1.386 . S
C534 C536 1.391 . S
C535 C534 1.386 . S
C535 C539 1.393 . S
C536 H525 0.950 . S
C536 C534 1.391 . S
C536 C537 1.400 . S
C537 C531 1.491 . S
C537 C536 1.400 . S
C537 C538 1.398 . S
C538 H526 0.950 . S
C538 C537 1.398 . S
C538 C539 1.391 . S
C539 H527 0.950 . S
C539 C535 1.393 . S
C539 C538 1.391 . S
H540 C548 0.950 . S
H541 C553 0.950 . S
H542 C550 0.950 . S
H543 C552 0.950 . S
H544 C554 0.954 . S
H545 C556 0.950 . S
H546 C558 0.950 . S
H547 C559 0.950 . S
C548 H540 0.950 . S
C548 C549 1.386 . S
C548 C550 1.391 . S
C549 C548 1.386 . S
C549 C553 1.393 . S
C550 H542 0.950 . S
C550 C548 1.391 . S
C550 C551 1.400 . S
C551 C550 1.400 . S
C551 C552 1.398 . S
C551 C557 1.491 . S
C552 H543 0.950 . S
C552 C551 1.398 . S
C552 C553 1.391 . S
C553 H541 0.950 . S
C553 C549 1.393 . S
C553 C552 1.391 . S
C554 H544 0.954 . S
C554 C555 1.386 . S
C554 C556 1.391 . S
C555 C554 1.386 . S
C555 C559 1.393 . S
C556 H545 0.950 . S
C556 C554 1.391 . S
C556 C557 1.400 . S
C557 C551 1.491 . S
C557 C556 1.400 . S
C557 C558 1.398 . S
C558 H546 0.950 . S
C558 C557 1.398 . S
C558 C559 1.391 . S
C559 H547 0.950 . S
C559 C555 1.393 . S
C559 C558 1.391 . S
H560 C568 0.950 . S
H561 C573 0.950 . S
H562 C570 0.950 . S
H563 C572 0.950 . S
H564 C574 0.950 . S
H565 C576 0.950 . S
H566 C578 0.950 . S
H567 C579 0.950 . S
C568 H560 0.950 . S
C568 C569 1.386 . S
C568 C570 1.391 . S
C569 C568 1.386 . S
C569 C573 1.393 . S
C570 H562 0.950 . S
C570 C568 1.391 . S
C570 C571 1.400 . S
C571 C570 1.400 . S
C571 C572 1.398 . S
C571 C577 1.491 . S
C572 H563 0.950 . S
C572 C571 1.398 . S
C572 C573 1.391 . S
C573 H561 0.950 . S
C573 C569 1.393 . S
C573 C572 1.391 . S
C574 H564 0.950 . S
C574 C575 1.386 . S
C574 C576 1.391 . S
C575 C574 1.386 . S
C575 C579 1.393 . S
C576 H565 0.950 . S
C576 C574 1.391 . S
C576 C577 1.400 . S
C577 C571 1.491 . S
C577 C576 1.400 . S
C577 C578 1.398 . S
C578 H566 0.950 . S
C578 C577 1.398 . S
C578 C579 1.391 . S
C579 H567 0.950 . S
C579 C575 1.393 . S
C579 C578 1.391 . S
H580 C588 0.950 . S
H581 C593 0.950 . S
H582 C590 0.950 . S
H583 C592 0.950 . S
H584 C594 0.950 . S
H585 C596 0.950 . S
H586 C598 0.950 . S
H587 C599 0.950 . S
C588 H580 0.950 . S
C588 C589 1.386 . S
C588 C590 1.391 . S
C589 C588 1.386 . S
C589 C593 1.393 . S
C590 H582 0.950 . S
C590 C588 1.391 . S
C590 C591 1.400 . S
C591 C590 1.400 . S
C591 C592 1.398 . S
C591 C597 1.491 . S
C592 H583 0.950 . S
C592 C591 1.398 . S
C592 C593 1.391 . S
C593 H581 0.950 . S
C593 C589 1.393 . S
C593 C592 1.391 . S
C594 H584 0.950 . S
C594 C595 1.386 . S
C594 C596 1.391 . S
C595 C594 1.386 . S
C595 C599 1.393 . S
C596 H585 0.950 . S
C596 C594 1.391 . S
C596 C597 1.400 . S
C597 C591 1.491 . S
C597 C596 1.400 . S
C597 C598 1.398 . S
C598 H586 0.950 . S
C598 C597 1.398 . S
C598 C599 1.391 . S
C599 H587 0.950 . S
C599 C595 1.393 . S
C599 C598 1.391 . S
H600 C608 0.950 . S
H601 C613 0.950 . S
H602 C610 0.950 . S
H603 C612 0.950 . S
H604 C614 0.950 . S
H605 C616 0.950 . S
H606 C618 0.950 . S
H607 C619 0.950 1_554 S
C608 H600 0.950 . S
C608 C609 1.386 . S
C608 C610 1.391 . S
C609 C608 1.386 . S
C609 C613 1.393 . S
C610 H602 0.950 . S
C610 C608 1.391 . S
C610 C611 1.400 . S
C611 C610 1.400 . S
C611 C612 1.398 . S
C611 C617 1.491 . S
C612 H603 0.950 . S
C612 C611 1.398 . S
C612 C613 1.391 . S
C613 H601 0.950 . S
C613 C609 1.393 . S
C613 C612 1.391 . S
C614 H604 0.950 . S
C614 C615 1.386 . S
C614 C616 1.391 . S
C615 C614 1.386 . S
C615 C619 1.393 . S
C616 H605 0.950 . S
C616 C614 1.391 . S
C616 C617 1.400 . S
C617 C611 1.491 . S
C617 C616 1.400 . S
C617 C618 1.398 . S
C618 H606 0.950 . S
C618 C617 1.398 . S
C618 C619 1.391 . S
C619 H607 0.950 1_556 S
C619 C615 1.393 . S
C619 C618 1.391 . S
H620 C628 0.950 . S
H621 C633 0.950 . S
H622 C630 0.950 . S
H623 C632 0.950 . S
H624 C634 0.950 . S
H625 C636 0.950 . S
H626 C638 0.950 . S
H627 C639 0.950 . S
C628 H620 0.950 . S
C628 C629 1.386 . S
C628 C630 1.391 . S
C629 C628 1.386 . S
C629 C633 1.393 . S
C630 H622 0.950 . S
C630 C628 1.391 . S
C630 C631 1.400 . S
C631 C630 1.400 . S
C631 C632 1.398 . S
C631 C637 1.491 . S
C632 H623 0.950 . S
C632 C631 1.398 . S
C632 C633 1.391 . S
C633 H621 0.950 . S
C633 C629 1.393 . S
C633 C632 1.391 . S
C634 H624 0.950 . S
C634 C635 1.386 . S
C634 C636 1.391 . S
C635 C634 1.386 . S
C635 C639 1.393 . S
C636 H625 0.950 . S
C636 C634 1.391 . S
C636 C637 1.400 . S
C637 C631 1.491 . S
C637 C636 1.400 . S
C637 C638 1.398 . S
C638 H626 0.950 . S
C638 C637 1.398 . S
C638 C639 1.391 . S
C639 H627 0.950 . S
C639 C635 1.393 . S
C639 C638 1.391 . S
H640 C648 0.950 . S
H641 C653 0.950 . S
H642 C650 0.950 . S
H643 C652 0.950 . S
H644 C654 0.950 . S
H645 C656 0.950 . S
H646 C658 0.950 . S
H647 C659 0.950 . S
C648 H640 0.950 . S
C648 C649 1.386 . S
C648 C650 1.391 . S
C649 C648 1.386 . S
C649 C653 1.393 . S
C650 H642 0.950 . S
C650 C648 1.391 . S
C650 C651 1.400 . S
C651 C650 1.400 . S
C651 C652 1.398 . S
C651 C657 1.491 . S
C652 H643 0.950 . S
C652 C651 1.398 . S
C652 C653 1.391 . S
C653 H641 0.950 . S
C653 C649 1.393 . S
C653 C652 1.391 . S
C654 H644 0.950 . S
C654 C655 1.386 . S
C654 C656 1.391 . S
C655 C654 1.386 . S
C655 C659 1.393 . S
C656 H645 0.950 . S
C656 C654 1.391 . S
C656 C657 1.400 . S
C657 C651 1.491 . S
C657 C656 1.400 . S
C657 C658 1.398 . S
C658 H646 0.950 . S
C658 C657 1.398 . S
C658 C659 1.391 . S
C659 H647 0.950 . S
C659 C655 1.393 . S
C659 C658 1.391 . S
H660 C668 0.950 . S
H661 C673 0.950 . S
H662 C670 0.950 . S
H663 C672 0.950 . S
H664 C674 0.950 . S
H665 C676 0.950 . S
H666 C678 0.950 . S
H667 C679 0.950 1_655 S
C668 H660 0.950 . S
C668 C669 1.386 . S
C668 C670 1.391 . S
C669 C668 1.386 . S
C669 C673 1.393 . S
C670 H662 0.950 . S
C670 C668 1.391 . S
C670 C671 1.400 . S
C671 C670 1.400 . S
C671 C672 1.398 . S
C671 C677 1.491 . S
C672 H663 0.950 . S
C672 C671 1.398 . S
C672 C673 1.391 . S
C673 H661 0.950 . S
C673 C669 1.393 . S
C673 C672 1.391 . S
C674 H664 0.950 . S
C674 C675 1.386 . S
C674 C676 1.391 . S
C675 C674 1.386 . S
C675 C679 1.393 . S
C676 H665 0.950 . S
C676 C674 1.391 . S
C676 C677 1.400 . S
C677 C671 1.491 . S
C677 C676 1.400 . S
C677 C678 1.398 . S
C678 H666 0.950 . S
C678 C677 1.398 . S
C678 C679 1.391 . S
C679 H667 0.950 1_455 S
C679 C675 1.393 . S
C679 C678 1.391 . S
H680 C688 0.950 . S
H681 C693 0.950 . S
H682 C690 0.950 . S
H683 C692 0.950 . S
H684 C694 0.950 . S
H685 C696 0.950 . S
H686 C698 0.950 . S
H687 C699 0.950 . S
C688 H680 0.950 . S
C688 C689 1.386 . S
C688 C690 1.391 . S
C689 C688 1.386 . S
C689 C693 1.393 . S
C690 H682 0.950 . S
C690 C688 1.391 . S
C690 C691 1.400 . S
C691 C690 1.400 . S
C691 C692 1.398 . S
C691 C697 1.491 . S
C692 H683 0.950 . S
C692 C691 1.398 . S
C692 C693 1.391 . S
C693 H681 0.950 . S
C693 C689 1.393 . S
C693 C692 1.391 . S
C694 H684 0.950 . S
C694 C695 1.386 . S
C694 C696 1.391 . S
C695 C694 1.386 . S
C695 C699 1.393 . S
C696 H685 0.950 . S
C696 C694 1.391 . S
C696 C697 1.400 . S
C697 C691 1.491 . S
C697 C696 1.400 . S
C697 C698 1.398 . S
C698 H686 0.950 . S
C698 C697 1.398 . S
C698 C699 1.391 . S
C699 H687 0.950 . S
C699 C695 1.393 . S
C699 C698 1.391 . S
H700 C708 0.950 . S
H701 C713 0.950 . S
H702 C710 0.950 . S
H703 C712 0.950 . S
H704 C714 0.950 . S
H705 C716 0.950 . S
H706 C718 0.950 . S
H707 C719 0.950 . S
C708 H700 0.950 . S
C708 C709 1.386 . S
C708 C710 1.391 . S
C709 C708 1.386 . S
C709 C713 1.393 . S
C710 H702 0.950 . S
C710 C708 1.391 . S
C710 C711 1.400 . S
C711 C710 1.400 . S
C711 C712 1.398 . S
C711 C717 1.491 . S
C712 H703 0.950 . S
C712 C711 1.398 . S
C712 C713 1.391 . S
C713 H701 0.950 . S
C713 C709 1.393 . S
C713 C712 1.391 . S
C714 H704 0.950 . S
C714 C715 1.386 . S
C714 C716 1.391 . S
C715 C714 1.386 . S
C715 C719 1.393 . S
C716 H705 0.950 . S
C716 C714 1.391 . S
C716 C717 1.400 . S
C717 C711 1.491 . S
C717 C716 1.400 . S
C717 C718 1.398 . S
C718 H706 0.950 . S
C718 C717 1.398 . S
C718 C719 1.391 . S
C719 H707 0.950 . S
C719 C715 1.393 . S
C719 C718 1.391 . S
H720 C728 0.950 . S
H721 C733 0.950 . S
H722 C730 0.950 . S
H723 C732 0.950 . S
H724 C734 0.950 . S
H725 C736 0.950 . S
H726 C738 0.950 . S
H727 C739 0.950 . S
C728 H720 0.950 . S
C728 C729 1.386 . S
C728 C730 1.391 . S
C729 C728 1.386 . S
C729 C733 1.393 . S
C730 H722 0.950 . S
C730 C728 1.391 . S
C730 C731 1.400 . S
C731 C730 1.400 . S
C731 C732 1.398 . S
C731 C737 1.491 . S
C732 H723 0.950 . S
C732 C731 1.398 . S
C732 C733 1.391 . S
C733 H721 0.950 . S
C733 C729 1.393 . S
C733 C732 1.391 . S
C734 H724 0.950 . S
C734 C735 1.386 . S
C734 C736 1.391 . S
C735 C734 1.386 . S
C735 C739 1.393 . S
C736 H725 0.950 . S
C736 C734 1.391 . S
C736 C737 1.400 . S
C737 C731 1.491 . S
C737 C736 1.400 . S
C737 C738 1.398 . S
C738 H726 0.950 . S
C738 C737 1.398 . S
C738 C739 1.391 . S
C739 H727 0.950 . S
C739 C735 1.393 . S
C739 C738 1.391 . S
H740 C748 0.950 . S
H741 C753 0.950 . S
H742 C750 0.950 . S
H743 C752 0.950 . S
H744 C754 0.950 . S
H745 C756 0.950 . S
H746 C758 0.950 . S
H747 C759 0.950 . S
C748 H740 0.950 . S
C748 C749 1.386 . S
C748 C750 1.391 . S
C749 C748 1.386 . S
C749 C753 1.393 . S
C750 H742 0.950 . S
C750 C748 1.391 . S
C750 C751 1.400 . S
C751 C750 1.400 . S
C751 C752 1.398 . S
C751 C757 1.491 . S
C752 H743 0.950 . S
C752 C751 1.398 . S
C752 C753 1.391 . S
C753 H741 0.950 . S
C753 C749 1.393 . S
C753 C752 1.391 . S
C754 H744 0.950 . S
C754 C755 1.386 . S
C754 C756 1.391 . S
C755 C754 1.386 . S
C755 C759 1.393 . S
C756 H745 0.950 . S
C756 C754 1.391 . S
C756 C757 1.400 . S
C757 C751 1.491 . S
C757 C756 1.400 . S
C757 C758 1.398 . S
C758 H746 0.950 . S
C758 C757 1.398 . S
C758 C759 1.391 . S
C759 H747 0.950 . S
C759 C755 1.393 . S
C759 C758 1.391 . S
H760 C768 0.950 . S
H761 C773 0.950 . S
H762 C770 0.950 . S
H763 C772 0.950 . S
H764 C774 0.950 . S
H765 C776 0.950 . S
H766 C778 0.950 . S
H767 C779 0.950 . S
C768 H760 0.950 . S
C768 C769 1.386 . S
C768 C770 1.391 . S
C769 C768 1.386 . S
C769 C773 1.393 . S
C770 H762 0.950 . S
C770 C768 1.391 . S
C770 C771 1.400 . S
C771 C770 1.400 . S
C771 C772 1.398 . S
C771 C777 1.491 . S
C772 H763 0.950 . S
C772 C771 1.398 . S
C772 C773 1.391 . S
C773 H761 0.950 . S
C773 C769 1.393 . S
C773 C772 1.391 . S
C774 H764 0.950 . S
C774 C775 1.386 . S
C774 C776 1.391 . S
C775 C774 1.386 . S
C775 C779 1.393 . S
C776 H765 0.950 . S
C776 C774 1.391 . S
C776 C777 1.400 . S
C777 C771 1.491 . S
C777 C776 1.400 . S
C777 C778 1.398 . S
C778 H766 0.950 . S
C778 C777 1.398 . S
C778 C779 1.391 . S
C779 H767 0.950 . S
C779 C775 1.393 . S
C779 C778 1.391 . S
H780 C788 0.950 . S
H781 C793 0.950 . S
H782 C790 0.950 . S
H783 C792 0.950 1_556 S
H784 C794 0.950 . S
H785 C796 0.950 . S
H786 C798 0.950 1_554 S
H787 C799 0.950 . S
C788 H780 0.950 . S
C788 C789 1.386 . S
C788 C790 1.391 . S
C789 C788 1.386 . S
C789 C793 1.393 . S
C790 H782 0.950 . S
C790 C788 1.391 . S
C790 C791 1.400 . S
C791 C790 1.400 . S
C791 C792 1.398 . S
C791 C797 1.491 1_554 S
C792 H783 0.950 1_554 S
C792 C791 1.398 . S
C792 C793 1.391 . S
C793 H781 0.950 . S
C793 C789 1.393 . S
C793 C792 1.391 . S
C794 H784 0.950 . S
C794 C795 1.386 . S
C794 C796 1.391 . S
C795 C794 1.386 . S
C795 C799 1.393 . S
C796 H785 0.950 . S
C796 C794 1.391 . S
C796 C797 1.400 . S
C797 C791 1.491 1_556 S
C797 C796 1.400 . S
C797 C798 1.398 . S
C798 H786 0.950 1_556 S
C798 C797 1.398 . S
C798 C799 1.391 . S
C799 H787 0.950 . S
C799 C795 1.393 . S
C799 C798 1.391 . S
H800 C808 0.950 . S
H801 C813 0.950 . S
H802 C810 0.950 . S
H803 C812 0.950 . S
H804 C814 0.950 . S
H805 C816 0.950 . S
H806 C818 0.950 . S
H807 C819 0.950 . S
C808 H800 0.950 . S
C808 C809 1.386 . S
C808 C810 1.391 . S
C809 C808 1.386 . S
C809 C813 1.393 . S
C810 H802 0.950 . S
C810 C808 1.391 . S
C810 C811 1.400 . S
C811 C810 1.400 . S
C811 C812 1.398 . S
C811 C817 1.491 . S
C812 H803 0.950 . S
C812 C811 1.398 . S
C812 C813 1.391 . S
C813 H801 0.950 . S
C813 C809 1.393 . S
C813 C812 1.391 . S
C814 H804 0.950 . S
C814 C815 1.386 . S
C814 C816 1.391 . S
C815 C814 1.386 . S
C815 C819 1.393 . S
C816 H805 0.950 . S
C816 C814 1.391 . S
C816 C817 1.400 . S
C817 C811 1.491 . S
C817 C816 1.400 . S
C817 C818 1.398 . S
C818 H806 0.950 . S
C818 C817 1.398 . S
C818 C819 1.391 . S
C819 H807 0.950 . S
C819 C815 1.393 . S
C819 C818 1.391 . S
H820 C828 0.950 . S
H821 C833 0.950 . S
H822 C830 0.950 . S
H823 C832 0.950 . S
H824 C834 0.950 . S
H825 C836 0.950 . S
H826 C838 0.950 . S
H827 C839 0.950 . S
C828 H820 0.950 . S
C828 C829 1.386 . S
C828 C830 1.391 1_554 S
C829 C828 1.386 . S
C829 C833 1.393 . S
C830 H822 0.950 . S
C830 C828 1.391 1_556 S
C830 C831 1.400 . S
C831 C830 1.400 . S
C831 C832 1.398 . S
C831 C837 1.491 . S
C832 H823 0.950 . S
C832 C831 1.398 . S
C832 C833 1.391 1_556 S
C833 H821 0.950 . S
C833 C829 1.393 . S
C833 C832 1.391 1_554 S
C834 H824 0.950 . S
C834 C835 1.386 . S
C834 C836 1.391 . S
C835 C834 1.386 . S
C835 C839 1.393 . S
C836 H825 0.950 . S
C836 C834 1.391 . S
C836 C837 1.400 . S
C837 C831 1.491 . S
C837 C836 1.400 . S
C837 C838 1.398 . S
C838 H826 0.950 . S
C838 C837 1.398 . S
C838 C839 1.391 . S
C839 H827 0.950 . S
C839 C835 1.393 . S
C839 C838 1.391 . S
H840 C848 0.950 . S
H841 C853 0.950 . S
H842 C850 0.950 . S
H843 C852 0.950 . S
H844 C854 0.950 . S
H845 C856 0.950 . S
H846 C858 0.950 . S
H847 C859 0.950 . S
C848 H840 0.950 . S
C848 C849 1.386 . S
C848 C850 1.391 . S
C849 C848 1.386 . S
C849 C853 1.393 . S
C850 H842 0.950 . S
C850 C848 1.391 . S
C850 C851 1.400 . S
C851 C850 1.400 . S
C851 C852 1.398 . S
C851 C857 1.491 . S
C852 H843 0.950 . S
C852 C851 1.398 . S
C852 C853 1.391 . S
C853 H841 0.950 . S
C853 C849 1.393 . S
C853 C852 1.391 . S
C854 H844 0.950 . S
C854 C855 1.386 . S
C854 C856 1.391 . S
C855 C854 1.386 . S
C855 C859 1.393 . S
C856 H845 0.950 . S
C856 C854 1.391 . S
C856 C857 1.400 . S
C857 C851 1.491 . S
C857 C856 1.400 . S
C857 C858 1.398 . S
C858 H846 0.950 . S
C858 C857 1.398 . S
C858 C859 1.391 . S
C859 H847 0.950 . S
C859 C855 1.393 . S
C859 C858 1.391 . S
H860 C868 0.950 . S
H861 C873 0.950 . S
H862 C870 0.950 . S
H863 C872 0.950 . S
H864 C874 0.950 . S
H865 C876 0.950 . S
H866 C878 0.950 . S
H867 C879 0.950 . S
C868 H860 0.950 . S
C868 C869 1.386 . S
C868 C870 1.391 . S
C869 C868 1.386 . S
C869 C873 1.393 . S
C870 H862 0.950 . S
C870 C868 1.391 . S
C870 C871 1.400 . S
C871 C870 1.400 . S
C871 C872 1.398 . S
C871 C877 1.491 . S
C872 H863 0.950 . S
C872 C871 1.398 . S
C872 C873 1.391 . S
C873 H861 0.950 . S
C873 C869 1.393 . S
C873 C872 1.391 . S
C874 H864 0.950 . S
C874 C875 1.386 . S
C874 C876 1.391 . S
C875 C874 1.386 . S
C875 C879 1.393 . S
C876 H865 0.950 . S
C876 C874 1.391 . S
C876 C877 1.400 . S
C877 C871 1.491 . S
C877 C876 1.400 . S
C877 C878 1.398 . S
C878 H866 0.950 . S
C878 C877 1.398 . S
C878 C879 1.391 . S
C879 H867 0.950 . S
C879 C875 1.393 . S
C879 C878 1.391 . S
H880 C888 0.950 . S
H881 C893 0.950 . S
H882 C890 0.950 . S
H883 C892 0.950 . S
H884 C894 0.950 . S
H885 C896 0.950 . S
H886 C898 0.950 . S
H887 C899 0.950 . S
C888 H880 0.950 . S
C888 C889 1.386 . S
C888 C890 1.391 . S
C889 C888 1.386 . S
C889 C893 1.393 . S
C890 H882 0.950 . S
C890 C888 1.391 . S
C890 C891 1.400 . S
C891 C890 1.400 . S
C891 C892 1.398 . S
C891 C897 1.491 . S
C892 H883 0.950 . S
C892 C891 1.398 . S
C892 C893 1.391 . S
C893 H881 0.950 . S
C893 C889 1.393 . S
C893 C892 1.391 . S
C894 H884 0.950 . S
C894 C895 1.386 . S
C894 C896 1.391 . S
C895 C894 1.386 . S
C895 C899 1.393 . S
C896 H885 0.950 . S
C896 C894 1.391 . S
C896 C897 1.400 . S
C897 C891 1.491 . S
C897 C896 1.400 . S
C897 C898 1.398 . S
C898 H886 0.950 . S
C898 C897 1.398 . S
C898 C899 1.391 . S
C899 H887 0.950 . S
C899 C895 1.393 . S
C899 C898 1.391 . S
H900 C908 0.950 . S
H901 C913 0.950 . S
H902 C910 0.950 . S
H903 C912 0.950 . S
H904 C914 0.950 . S
H905 C916 0.950 . S
H906 C918 0.950 . S
H907 C919 0.950 1_655 S
C908 H900 0.950 . S
C908 C909 1.386 . S
C908 C910 1.391 . S
C909 C908 1.386 . S
C909 C913 1.393 . S
C910 H902 0.950 . S
C910 C908 1.391 . S
C910 C911 1.400 . S
C911 C910 1.400 . S
C911 C912 1.398 . S
C911 C917 1.491 . S
C912 H903 0.950 . S
C912 C911 1.398 . S
C912 C913 1.391 . S
C913 H901 0.950 . S
C913 C909 1.393 . S
C913 C912 1.391 . S
C914 H904 0.950 . S
C914 C915 1.386 . S
C914 C916 1.391 . S
C915 C914 1.386 . S
C915 C919 1.393 . S
C916 H905 0.950 . S
C916 C914 1.391 . S
C916 C917 1.400 1_565 S
C917 C911 1.491 . S
C917 C916 1.400 1_545 S
C917 C918 1.398 . S
C918 H906 0.950 . S
C918 C917 1.398 . S
C918 C919 1.391 1_545 S
C919 H907 0.950 1_455 S
C919 C915 1.393 . S
C919 C918 1.391 1_565 S
H920 C928 0.950 . S
H921 C933 0.950 . S
H922 C930 0.950 . S
H923 C932 0.950 . S
H924 C934 0.950 . S
H925 C936 0.950 . S
H926 C938 0.950 . S
H927 C939 0.950 . S
C928 H920 0.950 . S
C928 C929 1.386 . S
C928 C930 1.391 . S
C929 C928 1.386 . S
C929 C933 1.393 . S
C930 H922 0.950 . S
C930 C928 1.391 . S
C930 C931 1.400 . S
C931 C930 1.400 . S
C931 C932 1.398 . S
C931 C937 1.491 . S
C932 H923 0.950 . S
C932 C931 1.398 . S
C932 C933 1.391 . S
C933 H921 0.950 . S
C933 C929 1.393 . S
C933 C932 1.391 . S
C934 H924 0.950 . S
C934 C935 1.386 . S
C934 C936 1.391 . S
C935 C934 1.386 . S
C935 C939 1.393 . S
C936 H925 0.950 . S
C936 C934 1.391 . S
C936 C937 1.400 . S
C937 C931 1.491 . S
C937 C936 1.400 . S
C937 C938 1.398 . S
C938 H926 0.950 . S
C938 C937 1.398 . S
C938 C939 1.391 . S
C939 H927 0.950 . S
C939 C935 1.393 . S
C939 C938 1.391 . S
H940 C948 0.950 . S
H941 C953 0.950 . S
H942 C950 0.950 . S
H943 C952 0.950 . S
H944 C954 0.950 . S
H945 C956 0.950 . S
H946 C958 0.950 . S
H947 C959 0.950 . S
C948 H940 0.950 . S
C948 C949 1.386 . S
C948 C950 1.391 . S
C949 C948 1.386 . S
C949 C953 1.393 . S
C950 H942 0.950 . S
C950 C948 1.391 . S
C950 C951 1.400 . S
C951 C950 1.400 . S
C951 C952 1.398 . S
C951 C957 1.491 1_545 S
C952 H943 0.950 . S
C952 C951 1.398 . S
C952 C953 1.391 . S
C953 H941 0.950 . S
C953 C949 1.393 . S
C953 C952 1.391 . S
C954 H944 0.950 . S
C954 C955 1.386 . S
C954 C956 1.391 . S
C955 C954 1.386 . S
C955 C959 1.393 . S
C956 H945 0.950 . S
C956 C954 1.391 . S
C956 C957 1.400 . S
C957 C951 1.491 1_565 S
C957 C956 1.400 . S
C957 C958 1.398 . S
C958 H946 0.950 . S
C958 C957 1.398 . S
C958 C959 1.391 . S
C959 H947 0.950 . S
C959 C955 1.393 . S
C959 C958 1.391 . S
H960 C968 0.950 . S
H961 C973 0.950 . S
H962 C970 0.950 . S
H963 C972 0.950 . S
H964 C974 0.950 . S
H965 C976 0.950 . S
H966 C978 0.950 . S
H967 C979 0.950 . S
C968 H960 0.950 . S
C968 C969 1.386 . S
C968 C970 1.391 . S
C969 C968 1.386 . S
C969 C973 1.393 . S
C970 H962 0.950 . S
C970 C968 1.391 . S
C970 C971 1.400 . S
C971 C970 1.400 . S
C971 C972 1.398 . S
C971 C977 1.491 . S
C972 H963 0.950 . S
C972 C971 1.398 . S
C972 C973 1.391 . S
C973 H961 0.950 . S
C973 C969 1.393 . S
C973 C972 1.391 . S
C974 H964 0.950 . S
C974 C975 1.386 . S
C974 C976 1.391 . S
C975 C974 1.386 . S
C975 C979 1.393 . S
C976 H965 0.950 . S
C976 C974 1.391 . S
C976 C977 1.400 . S
C977 C971 1.491 . S
C977 C976 1.400 . S
C977 C978 1.398 . S
C978 H966 0.950 . S
C978 C977 1.398 . S
C978 C979 1.391 . S
C979 H967 0.950 . S
C979 C975 1.393 . S
C979 C978 1.391 . S
H980 C988 0.950 . S
H981 C993 0.950 . S
H982 C990 0.950 . S
H983 C992 0.950 . S
H984 C994 0.950 . S
H985 C996 0.950 . S
H986 C998 0.950 . S
H987 C999 0.950 . S
C988 H980 0.950 . S
C988 C989 1.386 . S
C988 C990 1.391 . S
C989 C988 1.386 . S
C989 C993 1.393 . S
C990 H982 0.950 . S
C990 C988 1.391 . S
C990 C991 1.400 . S
C991 C990 1.400 . S
C991 C992 1.398 . S
C991 C997 1.491 . S
C992 H983 0.950 . S
C992 C991 1.398 . S
C992 C993 1.391 . S
C993 H981 0.950 . S
C993 C989 1.393 . S
C993 C992 1.391 . S
C994 H984 0.950 . S
C994 C995 1.386 . S
C994 C996 1.391 . S
C995 C994 1.386 . S
C995 C999 1.393 . S
C996 H985 0.950 . S
C996 C994 1.391 . S
C996 C997 1.400 . S
C997 C991 1.491 . S
C997 C996 1.400 . S
C997 C998 1.398 . S
C998 H986 0.950 . S
C998 C997 1.398 . S
C998 C999 1.391 . S
C999 H987 0.950 . S
C999 C995 1.393 . S
C999 C998 1.391 . S
H1000 C1008 0.950 . S
H1001 C1013 0.950 . S
H1002 C1010 0.950 . S
H1003 C1012 0.950 . S
H1004 C1014 0.950 . S
H1005 C1016 0.950 . S
H1006 C1018 0.950 . S
H1007 C1019 0.950 . S
C1008 H1000 0.950 . S
C1008 C1009 1.386 . S
C1008 C1010 1.391 . S
C1009 C1008 1.386 . S
C1009 C1013 1.393 . S
C1010 H1002 0.950 . S
C1010 C1008 1.391 . S
C1010 C1011 1.400 . S
C1011 C1010 1.400 . S
C1011 C1012 1.398 . S
C1011 C1017 1.491 . S
C1012 H1003 0.950 . S
C1012 C1011 1.398 . S
C1012 C1013 1.391 . S
C1013 H1001 0.950 . S
C1013 C1009 1.393 . S
C1013 C1012 1.391 . S
C1014 H1004 0.950 . S
C1014 C1015 1.386 . S
C1014 C1016 1.391 . S
C1015 C1014 1.386 . S
C1015 C1019 1.393 . S
C1016 H1005 0.950 . S
C1016 C1014 1.391 . S
C1016 C1017 1.400 . S
C1017 C1011 1.491 . S
C1017 C1016 1.400 . S
C1017 C1018 1.398 . S
C1018 H1006 0.950 . S
C1018 C1017 1.398 . S
C1018 C1019 1.391 . S
C1019 H1007 0.950 . S
C1019 C1015 1.393 . S
C1019 C1018 1.391 . S
H1020 C1028 0.950 . S
H1021 C1033 0.950 . S
H1022 C1030 0.950 . S
H1023 C1032 0.950 . S
H1024 C1034 0.950 . S
H1025 C1036 0.950 . S
H1026 C1038 0.950 . S
H1027 C1039 0.950 . S
C1028 H1020 0.950 . S
C1028 C1029 1.386 . S
C1028 C1030 1.391 . S
C1029 C1028 1.386 . S
C1029 C1033 1.393 . S
C1030 H1022 0.950 . S
C1030 C1028 1.391 . S
C1030 C1031 1.400 . S
C1031 C1030 1.400 . S
C1031 C1032 1.398 . S
C1031 C1037 1.491 . S
C1032 H1023 0.950 . S
C1032 C1031 1.398 . S
C1032 C1033 1.391 . S
C1033 H1021 0.950 . S
C1033 C1029 1.393 . S
C1033 C1032 1.391 . S
C1034 H1024 0.950 . S
C1034 C1035 1.386 . S
C1034 C1036 1.391 . S
C1035 C1034 1.386 . S
C1035 C1039 1.393 . S
C1036 H1025 0.950 . S
C1036 C1034 1.391 . S
C1036 C1037 1.400 . S
C1037 C1031 1.491 . S
C1037 C1036 1.400 . S
C1037 C1038 1.398 . S
C1038 H1026 0.950 . S
C1038 C1037 1.398 . S
C1038 C1039 1.391 . S
C1039 H1027 0.950 . S
C1039 C1035 1.393 . S
C1039 C1038 1.391 . S
H1040 C1048 0.950 . S
H1041 C1053 0.950 . S
H1042 C1050 0.950 . S
H1043 C1052 0.950 . S
H1044 C1054 0.950 . S
H1045 C1056 0.950 . S
H1046 C1058 0.950 . S
H1047 C1059 0.950 . S
C1048 H1040 0.950 . S
C1048 C1049 1.386 . S
C1048 C1050 1.391 . S
C1049 C1048 1.386 . S
C1049 C1053 1.393 . S
C1050 H1042 0.950 . S
C1050 C1048 1.391 . S
C1050 C1051 1.400 . S
C1051 C1050 1.400 . S
C1051 C1052 1.398 . S
C1051 C1057 1.491 . S
C1052 H1043 0.950 . S
C1052 C1051 1.398 . S
C1052 C1053 1.391 . S
C1053 H1041 0.950 . S
C1053 C1049 1.393 . S
C1053 C1052 1.391 . S
C1054 H1044 0.950 . S
C1054 C1055 1.386 . S
C1054 C1056 1.391 . S
C1055 C1054 1.386 . S
C1055 C1059 1.393 . S
C1056 H1045 0.950 . S
C1056 C1054 1.391 . S
C1056 C1057 1.400 . S
C1057 C1051 1.491 . S
C1057 C1056 1.400 . S
C1057 C1058 1.398 . S
C1058 H1046 0.950 . S
C1058 C1057 1.398 . S
C1058 C1059 1.391 . S
C1059 H1047 0.950 . S
C1059 C1055 1.393 . S
C1059 C1058 1.391 . S
H1060 C1068 0.950 . S
H1061 C1073 0.950 . S
H1062 C1070 0.950 . S
H1063 C1072 0.950 . S
H1064 C1074 0.950 . S
H1065 C1076 0.950 . S
H1066 C1078 0.950 . S
H1067 C1079 0.950 . S
C1068 H1060 0.950 . S
C1068 C1069 1.386 . S
C1068 C1070 1.391 . S
C1069 C1068 1.386 . S
C1069 C1073 1.393 . S
C1070 H1062 0.950 . S
C1070 C1068 1.391 . S
C1070 C1071 1.400 . S
C1071 C1070 1.400 . S
C1071 C1072 1.398 . S
C1071 C1077 1.491 . S
C1072 H1063 0.950 . S
C1072 C1071 1.398 . S
C1072 C1073 1.391 . S
C1073 H1061 0.950 . S
C1073 C1069 1.393 . S
C1073 C1072 1.391 . S
C1074 H1064 0.950 . S
C1074 C1075 1.386 . S
C1074 C1076 1.391 . S
C1075 C1074 1.386 . S
C1075 C1079 1.393 . S
C1076 H1065 0.950 . S
C1076 C1074 1.391 . S
C1076 C1077 1.400 . S
C1077 C1071 1.491 . S
C1077 C1076 1.400 . S
C1077 C1078 1.398 . S
C1078 H1066 0.950 . S
C1078 C1077 1.398 . S
C1078 C1079 1.391 . S
C1079 H1067 0.950 . S
C1079 C1075 1.393 . S
C1079 C1078 1.391 . S
H1080 C1088 0.950 . S
H1081 C1093 0.950 . S
H1082 C1090 0.950 . S
H1083 C1092 0.950 . S
H1084 C1094 0.936 1_556 S
H1085 C1096 0.950 . S
H1086 C1098 0.950 . S
H1087 C1099 0.950 . S
C1088 H1080 0.950 . S
C1088 C1089 1.386 . S
C1088 C1090 1.391 . S
C1089 C1088 1.386 . S
C1089 C1093 1.393 . S
C1090 H1082 0.950 . S
C1090 C1088 1.391 . S
C1090 C1091 1.400 . S
C1091 C1090 1.400 . S
C1091 C1092 1.398 . S
C1091 C1097 1.491 1_455 S
C1092 H1083 0.950 . S
C1092 C1091 1.398 . S
C1092 C1093 1.391 . S
C1093 H1081 0.950 . S
C1093 C1089 1.393 . S
C1093 C1092 1.391 . S
C1094 H1084 0.936 1_554 S
C1094 C1095 1.386 . S
C1094 C1096 1.391 . S
C1095 C1094 1.386 . S
C1095 C1099 1.393 . S
C1096 H1085 0.950 . S
C1096 C1094 1.391 . S
C1096 C1097 1.400 . S
C1097 C1091 1.491 1_655 S
C1097 C1096 1.400 . S
C1097 C1098 1.398 . S
C1098 H1086 0.950 . S
C1098 C1097 1.398 . S
C1098 C1099 1.391 . S
C1099 H1087 0.950 . S
C1099 C1095 1.393 . S
C1099 C1098 1.391 . S
H1100 C1108 0.950 . S
H1101 C1113 0.950 . S
H1102 C1110 0.950 . S
H1103 C1112 0.950 . S
H1104 C1114 0.950 . S
H1105 C1116 0.950 . S
H1106 C1118 0.950 . S
H1107 C1119 0.950 . S
C1108 H1100 0.950 . S
C1108 C1109 1.386 . S
C1108 C1110 1.391 . S
C1109 C1108 1.386 . S
C1109 C1113 1.393 . S
C1110 H1102 0.950 . S
C1110 C1108 1.391 . S
C1110 C1111 1.400 . S
C1111 C1110 1.400 . S
C1111 C1112 1.398 . S
C1111 C1117 1.491 . S
C1112 H1103 0.950 . S
C1112 C1111 1.398 . S
C1112 C1113 1.391 . S
C1113 H1101 0.950 . S
C1113 C1109 1.393 . S
C1113 C1112 1.391 . S
C1114 H1104 0.950 . S
C1114 C1115 1.386 . S
C1114 C1116 1.391 . S
C1115 C1114 1.386 . S
C1115 C1119 1.393 . S
C1116 H1105 0.950 . S
C1116 C1114 1.391 . S
C1116 C1117 1.400 . S
C1117 C1111 1.491 . S
C1117 C1116 1.400 . S
C1117 C1118 1.398 . S
C1118 H1106 0.950 . S
C1118 C1117 1.398 . S
C1118 C1119 1.391 . S
C1119 H1107 0.950 . S
C1119 C1115 1.393 . S
C1119 C1118 1.391 . S
H1120 C1128 0.950 . S
H1121 C1133 0.950 . S
H1122 C1130 0.950 . S
H1123 C1132 0.950 . S
H1124 C1134 0.950 . S
H1125 C1136 0.950 . S
H1126 C1138 0.950 . S
H1127 C1139 0.950 . S
C1128 H1120 0.950 . S
C1128 C1129 1.386 . S
C1128 C1130 1.391 . S
C1129 C1128 1.386 . S
C1129 C1133 1.393 . S
C1130 H1122 0.950 . S
C1130 C1128 1.391 . S
C1130 C1131 1.400 . S
C1131 C1130 1.400 . S
C1131 C1132 1.398 . S
C1131 C1137 1.491 . S
C1132 H1123 0.950 . S
C1132 C1131 1.398 . S
C1132 C1133 1.391 . S
C1133 H1121 0.950 . S
C1133 C1129 1.393 . S
C1133 C1132 1.391 . S
C1134 H1124 0.950 . S
C1134 C1135 1.386 . S
C1134 C1136 1.391 . S
C1135 C1134 1.386 . S
C1135 C1139 1.393 . S
C1136 H1125 0.950 . S
C1136 C1134 1.391 . S
C1136 C1137 1.400 . S
C1137 C1131 1.491 . S
C1137 C1136 1.400 . S
C1137 C1138 1.398 . S
C1138 H1126 0.950 . S
C1138 C1137 1.398 . S
C1138 C1139 1.391 . S
C1139 H1127 0.950 . S
C1139 C1135 1.393 . S
C1139 C1138 1.391 . S
H1140 C1148 0.950 . S
H1141 C1153 0.950 . S
H1142 C1150 0.950 . S
H1143 C1152 0.950 . S
H1144 C1154 0.950 . S
H1145 C1156 0.950 . S
H1146 C1158 0.950 . S
H1147 C1159 0.950 . S
C1148 H1140 0.950 . S
C1148 C1149 1.386 . S
C1148 C1150 1.391 . S
C1149 C1148 1.386 . S
C1149 C1153 1.393 . S
C1150 H1142 0.950 . S
C1150 C1148 1.391 . S
C1150 C1151 1.400 . S
C1151 C1150 1.400 . S
C1151 C1152 1.398 . S
C1151 C1157 1.491 . S
C1152 H1143 0.950 . S
C1152 C1151 1.398 . S
C1152 C1153 1.391 . S
C1153 H1141 0.950 . S
C1153 C1149 1.393 . S
C1153 C1152 1.391 . S
C1154 H1144 0.950 . S
C1154 C1155 1.386 . S
C1154 C1156 1.391 . S
C1155 C1154 1.386 . S
C1155 C1159 1.393 . S
C1156 H1145 0.950 . S
C1156 C1154 1.391 . S
C1156 C1157 1.400 . S
C1157 C1151 1.491 . S
C1157 C1156 1.400 . S
C1157 C1158 1.398 . S
C1158 H1146 0.950 . S
C1158 C1157 1.398 . S
C1158 C1159 1.391 . S
C1159 H1147 0.950 . S
C1159 C1155 1.393 . S
C1159 C1158 1.391 . S
H1160 C1168 0.950 . S
H1161 C1173 0.950 . S
H1162 C1170 0.950 . S
H1163 C1172 0.950 . S
H1164 C1174 0.950 . S
H1165 C1176 0.950 . S
H1166 C1178 0.950 . S
H1167 C1179 0.950 . S
C1168 H1160 0.950 . S
C1168 C1169 1.386 . S
C1168 C1170 1.391 . S
C1169 C1168 1.386 . S
C1169 C1173 1.393 . S
C1170 H1162 0.950 . S
C1170 C1168 1.391 . S
C1170 C1171 1.400 . S
C1171 C1170 1.400 . S
C1171 C1172 1.398 . S
C1171 C1177 1.491 . S
C1172 H1163 0.950 . S
C1172 C1171 1.398 . S
C1172 C1173 1.391 . S
C1173 H1161 0.950 . S
C1173 C1169 1.393 . S
C1173 C1172 1.391 . S
C1174 H1164 0.950 . S
C1174 C1175 1.386 . S
C1174 C1176 1.391 . S
C1175 C1174 1.386 . S
C1175 C1179 1.393 . S
C1176 H1165 0.950 . S
C1176 C1174 1.391 . S
C1176 C1177 1.400 . S
C1177 C1171 1.491 . S
C1177 C1176 1.400 . S
C1177 C1178 1.398 . S
C1178 H1166 0.950 . S
C1178 C1177 1.398 . S
C1178 C1179 1.391 . S
C1179 H1167 0.950 . S
C1179 C1175 1.393 . S
C1179 C1178 1.391 . S
H1180 C1188 0.950 . S
H1181 C1193 0.950 . S
H1182 C1190 0.950 . S
H1183 C1192 0.950 . S
H1184 C1194 0.950 . S
H1185 C1196 0.950 . S
H1186 C1198 0.950 . S
H1187 C1199 0.950 . S
C1188 H1180 0.950 . S
C1188 C1189 1.386 . S
C1188 C1190 1.391 . S
C1189 C1188 1.386 . S
C1189 C1193 1.393 . S
C1190 H1182 0.950 . S
C1190 C1188 1.391 . S
C1190 C1191 1.400 . S
C1191 C1190 1.400 . S
C1191 C1192 1.398 . S
C1191 C1197 1.491 . S
C1192 H1183 0.950 . S
C1192 C1191 1.398 . S
C1192 C1193 1.391 . S
C1193 H1181 0.950 . S
C1193 C1189 1.393 . S
C1193 C1192 1.391 . S
C1194 H1184 0.950 . S
C1194 C1195 1.386 . S
C1194 C1196 1.391 1_455 S
C1195 C1194 1.386 . S
C1195 C1199 1.393 . S
C1196 H1185 0.950 . S
C1196 C1194 1.391 1_655 S
C1196 C1197 1.400 . S
C1197 C1191 1.491 . S
C1197 C1196 1.400 . S
C1197 C1198 1.398 1_655 S
C1198 H1186 0.950 . S
C1198 C1197 1.398 1_455 S
C1198 C1199 1.391 . S
C1199 H1187 0.950 . S
C1199 C1195 1.393 . S
C1199 C1198 1.391 . S
C489 C18 1.047 . S
C495 C458 1.033 . S
C509 C379 1.642 . S
C515 C58 1.745 . S
C529 C99 1.273 . S
C535 C338 1.311 . S
C549 C138 2.033 . S
C555 C418 2.033 . S
C569 C178 1.672 . S
C575 C419 1.600 . S
C589 C219 1.430 . S
C595 C459 1.481 . S
C609 C378 1.811 . S
C615 C258 1.810 . S
C629 C299 1.658 . S
C635 C339 1.738 . S
C649 C139 1.729 . S
C655 C179 1.762 . S
C669 C19 1.536 . S
C675 C218 1.627 . S
C689 C59 1.598 . S
C695 C259 1.624 . S
C709 C298 1.883 . S
C715 C98 1.894 . S
C729 C6 1.591 . S
C735 C329 1.476 . S
C749 C46 1.823 . S
C755 C409 1.730 . S
C769 C449 1.943 . S
C775 C95 1.970 . S
C789 C126 1.549 . S
C795 C370 1.513 . S
C809 C166 1.230 . S
C815 C369 1.198 . S
C829 C330 1.933 . S
C835 C215 1.844 . S
C849 C410 1.356 . S
C855 C246 1.365 . S
C869 C450 2.667 . S
C875 C295 2.576 . S
C889 C10 2.756 . S
C895 C135 2.660 . S
C909 C15 1.971 . S
C915 C50 2.043 . S
C929 C55 2.279 . S
C935 C89 2.253 . S
C949 C130 1.691 . S
C955 C86 1.726 . S
C969 C206 1.459 . S
C975 C170 1.435 . S
C989 C209 1.262 . S
C995 C255 1.307 . S
C1009 C250 1.480 . S
C1015 C286 1.496 . S
C1029 C175 0.823 . S
C1035 C289 0.805 . S
C1049 C335 0.761 . S
C1055 C129 0.754 . S
C1069 C210 1.665 . S
C1075 C375 1.609 . S
C1089 C326 1.372 . S
C1095 C249 1.321 . S
C1109 C406 1.826 . S
C1115 C290 1.813 . S
C1129 C169 1.263 . S
C1135 C446 1.326 . S
C1149 C455 1.692 . S
C1155 C49 1.648 . S
C1169 C90 1.520 . S
C1175 C366 1.536 . S
C1189 C415 1.774 . S
C1195 C9 1.745 . S
