# Generated by pormake.
# Topology fch, (5)-cn, num edge types: 1
# Building blocks:
#     Node 0, Type 0, BuildingBlock: XOMCOT_clean_sbu_1, # of connection points: 5
#     Node 1, Type 0, BuildingBlock: XOMCOT_clean_sbu_1, # of connection points: 5
#     Node 2, Type 0, BuildingBlock: XOMCOT_clean_sbu_1, # of connection points: 5
#     Node 3, Type 0, BuildingBlock: XOMCOT_clean_sbu_1, # of connection points: 5
#     Node 4, Type 0, BuildingBlock: XOMCOT_clean_sbu_1, # of connection points: 5
#     Node 5, Type 0, BuildingBlock: XOMCOT_clean_sbu_1, # of connection points: 5
#     Node 6, Type 0, BuildingBlock: XOMCOT_clean_sbu_1, # of connection points: 5
#     Node 7, Type 0, BuildingBlock: XOMCOT_clean_sbu_1, # of connection points: 5
#     Node 8, Type 0, BuildingBlock: XOMCOT_clean_sbu_1, # of connection points: 5
#     Node 9, Type 0, BuildingBlock: XOMCOT_clean_sbu_1, # of connection points: 5
#     Node 10, Type 0, BuildingBlock: XOMCOT_clean_sbu_1, # of connection points: 5
#     Node 11, Type 0, BuildingBlock: XOMCOT_clean_sbu_1, # of connection points: 5
#     Node 12, Type 0, BuildingBlock: XOMCOT_clean_sbu_1, # of connection points: 5
#     Node 13, Type 0, BuildingBlock: XOMCOT_clean_sbu_1, # of connection points: 5
#     Node 14, Type 0, BuildingBlock: XOMCOT_clean_sbu_1, # of connection points: 5
#     Node 15, Type 0, BuildingBlock: XOMCOT_clean_sbu_1, # of connection points: 5
#     Node 16, Type 0, BuildingBlock: XOMCOT_clean_sbu_1, # of connection points: 5
#     Node 17, Type 0, BuildingBlock: XOMCOT_clean_sbu_1, # of connection points: 5
#     Node 18, Type 0, BuildingBlock: XOMCOT_clean_sbu_1, # of connection points: 5
#     Node 19, Type 0, BuildingBlock: XOMCOT_clean_sbu_1, # of connection points: 5
#     Node 20, Type 0, BuildingBlock: XOMCOT_clean_sbu_1, # of connection points: 5
#     Node 21, Type 0, BuildingBlock: XOMCOT_clean_sbu_1, # of connection points: 5
#     Node 22, Type 0, BuildingBlock: XOMCOT_clean_sbu_1, # of connection points: 5
#     Node 23, Type 0, BuildingBlock: XOMCOT_clean_sbu_1, # of connection points: 5
#     Node 24, Type 0, BuildingBlock: XOMCOT_clean_sbu_1, # of connection points: 5
#     Node 25, Type 0, BuildingBlock: XOMCOT_clean_sbu_1, # of connection points: 5
#     Node 26, Type 0, BuildingBlock: XOMCOT_clean_sbu_1, # of connection points: 5
#     Node 27, Type 0, BuildingBlock: XOMCOT_clean_sbu_1, # of connection points: 5
#     Node 28, Type 0, BuildingBlock: XOMCOT_clean_sbu_1, # of connection points: 5
#     Node 29, Type 0, BuildingBlock: XOMCOT_clean_sbu_1, # of connection points: 5
#     Node 30, Type 0, BuildingBlock: XOMCOT_clean_sbu_1, # of connection points: 5
#     Node 31, Type 0, BuildingBlock: XOMCOT_clean_sbu_1, # of connection points: 5
#     Node 32, Type 0, BuildingBlock: XOMCOT_clean_sbu_1, # of connection points: 5
#     Node 33, Type 0, BuildingBlock: XOMCOT_clean_sbu_1, # of connection points: 5
#     Node 34, Type 0, BuildingBlock: XOMCOT_clean_sbu_1, # of connection points: 5
#     Node 35, Type 0, BuildingBlock: XOMCOT_clean_sbu_1, # of connection points: 5
#     Node 36, Type 0, BuildingBlock: XOMCOT_clean_sbu_1, # of connection points: 5
#     Node 37, Type 0, BuildingBlock: XOMCOT_clean_sbu_1, # of connection points: 5
#     Node 38, Type 0, BuildingBlock: XOMCOT_clean_sbu_1, # of connection points: 5
#     Node 39, Type 0, BuildingBlock: XOMCOT_clean_sbu_1, # of connection points: 5
#     Node 40, Type 0, BuildingBlock: XOMCOT_clean_sbu_1, # of connection points: 5
#     Node 41, Type 0, BuildingBlock: XOMCOT_clean_sbu_1, # of connection points: 5
#     Node 42, Type 0, BuildingBlock: XOMCOT_clean_sbu_1, # of connection points: 5
#     Node 43, Type 0, BuildingBlock: XOMCOT_clean_sbu_1, # of connection points: 5
#     Node 44, Type 0, BuildingBlock: XOMCOT_clean_sbu_1, # of connection points: 5
#     Node 45, Type 0, BuildingBlock: XOMCOT_clean_sbu_1, # of connection points: 5
#     Node 46, Type 0, BuildingBlock: XOMCOT_clean_sbu_1, # of connection points: 5
#     Node 47, Type 0, BuildingBlock: XOMCOT_clean_sbu_1, # of connection points: 5
#     Edge 48, Type (0, 0), BuildingBlock: OJICUG_clean_linker_0, # of connection points: 2
#     Edge 49, Type (0, 0), BuildingBlock: OJICUG_clean_linker_0, # of connection points: 2
#     Edge 50, Type (0, 0), BuildingBlock: OJICUG_clean_linker_0, # of connection points: 2
#     Edge 51, Type (0, 0), BuildingBlock: OJICUG_clean_linker_0, # of connection points: 2
#     Edge 52, Type (0, 0), BuildingBlock: OJICUG_clean_linker_0, # of connection points: 2
#     Edge 53, Type (0, 0), BuildingBlock: OJICUG_clean_linker_0, # of connection points: 2
#     Edge 54, Type (0, 0), BuildingBlock: OJICUG_clean_linker_0, # of connection points: 2
#     Edge 55, Type (0, 0), BuildingBlock: OJICUG_clean_linker_0, # of connection points: 2
#     Edge 56, Type (0, 0), BuildingBlock: OJICUG_clean_linker_0, # of connection points: 2
#     Edge 57, Type (0, 0), BuildingBlock: OJICUG_clean_linker_0, # of connection points: 2
#     Edge 58, Type (0, 0), BuildingBlock: OJICUG_clean_linker_0, # of connection points: 2
#     Edge 59, Type (0, 0), BuildingBlock: OJICUG_clean_linker_0, # of connection points: 2
#     Edge 60, Type (0, 0), BuildingBlock: OJICUG_clean_linker_0, # of connection points: 2
#     Edge 61, Type (0, 0), BuildingBlock: OJICUG_clean_linker_0, # of connection points: 2
#     Edge 62, Type (0, 0), BuildingBlock: OJICUG_clean_linker_0, # of connection points: 2
#     Edge 63, Type (0, 0), BuildingBlock: OJICUG_clean_linker_0, # of connection points: 2
#     Edge 64, Type (0, 0), BuildingBlock: OJICUG_clean_linker_0, # of connection points: 2
#     Edge 65, Type (0, 0), BuildingBlock: OJICUG_clean_linker_0, # of connection points: 2
#     Edge 66, Type (0, 0), BuildingBlock: OJICUG_clean_linker_0, # of connection points: 2
#     Edge 67, Type (0, 0), BuildingBlock: OJICUG_clean_linker_0, # of connection points: 2
#     Edge 68, Type (0, 0), BuildingBlock: OJICUG_clean_linker_0, # of connection points: 2
#     Edge 69, Type (0, 0), BuildingBlock: OJICUG_clean_linker_0, # of connection points: 2
#     Edge 70, Type (0, 0), BuildingBlock: OJICUG_clean_linker_0, # of connection points: 2
#     Edge 71, Type (0, 0), BuildingBlock: OJICUG_clean_linker_0, # of connection points: 2
#     Edge 72, Type (0, 0), BuildingBlock: OJICUG_clean_linker_0, # of connection points: 2
#     Edge 73, Type (0, 0), BuildingBlock: OJICUG_clean_linker_0, # of connection points: 2
#     Edge 74, Type (0, 0), BuildingBlock: OJICUG_clean_linker_0, # of connection points: 2
#     Edge 75, Type (0, 0), BuildingBlock: OJICUG_clean_linker_0, # of connection points: 2
#     Edge 76, Type (0, 0), BuildingBlock: OJICUG_clean_linker_0, # of connection points: 2
#     Edge 77, Type (0, 0), BuildingBlock: OJICUG_clean_linker_0, # of connection points: 2
#     Edge 78, Type (0, 0), BuildingBlock: OJICUG_clean_linker_0, # of connection points: 2
#     Edge 79, Type (0, 0), BuildingBlock: OJICUG_clean_linker_0, # of connection points: 2
#     Edge 80, Type (0, 0), BuildingBlock: OJICUG_clean_linker_0, # of connection points: 2
#     Edge 81, Type (0, 0), BuildingBlock: OJICUG_clean_linker_0, # of connection points: 2
#     Edge 82, Type (0, 0), BuildingBlock: OJICUG_clean_linker_0, # of connection points: 2
#     Edge 83, Type (0, 0), BuildingBlock: OJICUG_clean_linker_0, # of connection points: 2
#     Edge 84, Type (0, 0), BuildingBlock: OJICUG_clean_linker_0, # of connection points: 2
#     Edge 85, Type (0, 0), BuildingBlock: OJICUG_clean_linker_0, # of connection points: 2
#     Edge 86, Type (0, 0), BuildingBlock: OJICUG_clean_linker_0, # of connection points: 2
#     Edge 87, Type (0, 0), BuildingBlock: OJICUG_clean_linker_0, # of connection points: 2
#     Edge 88, Type (0, 0), BuildingBlock: OJICUG_clean_linker_0, # of connection points: 2
#     Edge 89, Type (0, 0), BuildingBlock: OJICUG_clean_linker_0, # of connection points: 2
#     Edge 90, Type (0, 0), BuildingBlock: OJICUG_clean_linker_0, # of connection points: 2
#     Edge 91, Type (0, 0), BuildingBlock: OJICUG_clean_linker_0, # of connection points: 2
#     Edge 92, Type (0, 0), BuildingBlock: OJICUG_clean_linker_0, # of connection points: 2
#     Edge 93, Type (0, 0), BuildingBlock: OJICUG_clean_linker_0, # of connection points: 2
#     Edge 94, Type (0, 0), BuildingBlock: OJICUG_clean_linker_0, # of connection points: 2
#     Edge 95, Type (0, 0), BuildingBlock: OJICUG_clean_linker_0, # of connection points: 2
#     Edge 96, Type (0, 0), BuildingBlock: OJICUG_clean_linker_0, # of connection points: 2
#     Edge 97, Type (0, 0), BuildingBlock: OJICUG_clean_linker_0, # of connection points: 2
#     Edge 98, Type (0, 0), BuildingBlock: OJICUG_clean_linker_0, # of connection points: 2
#     Edge 99, Type (0, 0), BuildingBlock: OJICUG_clean_linker_0, # of connection points: 2
#     Edge 100, Type (0, 0), BuildingBlock: OJICUG_clean_linker_0, # of connection points: 2
#     Edge 101, Type (0, 0), BuildingBlock: OJICUG_clean_linker_0, # of connection points: 2
#     Edge 102, Type (0, 0), BuildingBlock: OJICUG_clean_linker_0, # of connection points: 2
#     Edge 103, Type (0, 0), BuildingBlock: OJICUG_clean_linker_0, # of connection points: 2
#     Edge 104, Type (0, 0), BuildingBlock: OJICUG_clean_linker_0, # of connection points: 2
#     Edge 105, Type (0, 0), BuildingBlock: OJICUG_clean_linker_0, # of connection points: 2
#     Edge 106, Type (0, 0), BuildingBlock: OJICUG_clean_linker_0, # of connection points: 2
#     Edge 107, Type (0, 0), BuildingBlock: OJICUG_clean_linker_0, # of connection points: 2
#     Edge 108, Type (0, 0), BuildingBlock: OJICUG_clean_linker_0, # of connection points: 2
#     Edge 109, Type (0, 0), BuildingBlock: OJICUG_clean_linker_0, # of connection points: 2
#     Edge 110, Type (0, 0), BuildingBlock: OJICUG_clean_linker_0, # of connection points: 2
#     Edge 111, Type (0, 0), BuildingBlock: OJICUG_clean_linker_0, # of connection points: 2
#     Edge 112, Type (0, 0), BuildingBlock: OJICUG_clean_linker_0, # of connection points: 2
#     Edge 113, Type (0, 0), BuildingBlock: OJICUG_clean_linker_0, # of connection points: 2
#     Edge 114, Type (0, 0), BuildingBlock: OJICUG_clean_linker_0, # of connection points: 2
#     Edge 115, Type (0, 0), BuildingBlock: OJICUG_clean_linker_0, # of connection points: 2
#     Edge 116, Type (0, 0), BuildingBlock: OJICUG_clean_linker_0, # of connection points: 2
#     Edge 117, Type (0, 0), BuildingBlock: OJICUG_clean_linker_0, # of connection points: 2
#     Edge 118, Type (0, 0), BuildingBlock: OJICUG_clean_linker_0, # of connection points: 2
#     Edge 119, Type (0, 0), BuildingBlock: OJICUG_clean_linker_0, # of connection points: 2
#     Edge 120, Type (0, 0), BuildingBlock: OJICUG_clean_linker_0, # of connection points: 2
#     Edge 121, Type (0, 0), BuildingBlock: OJICUG_clean_linker_0, # of connection points: 2
#     Edge 122, Type (0, 0), BuildingBlock: OJICUG_clean_linker_0, # of connection points: 2
#     Edge 123, Type (0, 0), BuildingBlock: OJICUG_clean_linker_0, # of connection points: 2
#     Edge 124, Type (0, 0), BuildingBlock: OJICUG_clean_linker_0, # of connection points: 2
#     Edge 125, Type (0, 0), BuildingBlock: OJICUG_clean_linker_0, # of connection points: 2
#     Edge 126, Type (0, 0), BuildingBlock: OJICUG_clean_linker_0, # of connection points: 2
#     Edge 127, Type (0, 0), BuildingBlock: OJICUG_clean_linker_0, # of connection points: 2
#     Edge 128, Type (0, 0), BuildingBlock: OJICUG_clean_linker_0, # of connection points: 2
#     Edge 129, Type (0, 0), BuildingBlock: OJICUG_clean_linker_0, # of connection points: 2
#     Edge 130, Type (0, 0), BuildingBlock: OJICUG_clean_linker_0, # of connection points: 2
#     Edge 131, Type (0, 0), BuildingBlock: OJICUG_clean_linker_0, # of connection points: 2
#     Edge 132, Type (0, 0), BuildingBlock: OJICUG_clean_linker_0, # of connection points: 2
#     Edge 133, Type (0, 0), BuildingBlock: OJICUG_clean_linker_0, # of connection points: 2
#     Edge 134, Type (0, 0), BuildingBlock: OJICUG_clean_linker_0, # of connection points: 2
#     Edge 135, Type (0, 0), BuildingBlock: OJICUG_clean_linker_0, # of connection points: 2
#     Edge 136, Type (0, 0), BuildingBlock: OJICUG_clean_linker_0, # of connection points: 2
#     Edge 137, Type (0, 0), BuildingBlock: OJICUG_clean_linker_0, # of connection points: 2
#     Edge 138, Type (0, 0), BuildingBlock: OJICUG_clean_linker_0, # of connection points: 2
#     Edge 139, Type (0, 0), BuildingBlock: OJICUG_clean_linker_0, # of connection points: 2
#     Edge 140, Type (0, 0), BuildingBlock: OJICUG_clean_linker_0, # of connection points: 2
#     Edge 141, Type (0, 0), BuildingBlock: OJICUG_clean_linker_0, # of connection points: 2
#     Edge 142, Type (0, 0), BuildingBlock: OJICUG_clean_linker_0, # of connection points: 2
#     Edge 143, Type (0, 0), BuildingBlock: OJICUG_clean_linker_0, # of connection points: 2
#     Edge 144, Type (0, 0), BuildingBlock: OJICUG_clean_linker_0, # of connection points: 2
#     Edge 145, Type (0, 0), BuildingBlock: OJICUG_clean_linker_0, # of connection points: 2
#     Edge 146, Type (0, 0), BuildingBlock: OJICUG_clean_linker_0, # of connection points: 2
#     Edge 147, Type (0, 0), BuildingBlock: OJICUG_clean_linker_0, # of connection points: 2
#     Edge 148, Type (0, 0), BuildingBlock: OJICUG_clean_linker_0, # of connection points: 2
#     Edge 149, Type (0, 0), BuildingBlock: OJICUG_clean_linker_0, # of connection points: 2
#     Edge 150, Type (0, 0), BuildingBlock: OJICUG_clean_linker_0, # of connection points: 2
#     Edge 151, Type (0, 0), BuildingBlock: OJICUG_clean_linker_0, # of connection points: 2
#     Edge 152, Type (0, 0), BuildingBlock: OJICUG_clean_linker_0, # of connection points: 2
#     Edge 153, Type (0, 0), BuildingBlock: OJICUG_clean_linker_0, # of connection points: 2
#     Edge 154, Type (0, 0), BuildingBlock: OJICUG_clean_linker_0, # of connection points: 2
#     Edge 155, Type (0, 0), BuildingBlock: OJICUG_clean_linker_0, # of connection points: 2
#     Edge 156, Type (0, 0), BuildingBlock: OJICUG_clean_linker_0, # of connection points: 2
#     Edge 157, Type (0, 0), BuildingBlock: OJICUG_clean_linker_0, # of connection points: 2
#     Edge 158, Type (0, 0), BuildingBlock: OJICUG_clean_linker_0, # of connection points: 2
#     Edge 159, Type (0, 0), BuildingBlock: OJICUG_clean_linker_0, # of connection points: 2
#     Edge 160, Type (0, 0), BuildingBlock: OJICUG_clean_linker_0, # of connection points: 2
#     Edge 161, Type (0, 0), BuildingBlock: OJICUG_clean_linker_0, # of connection points: 2
#     Edge 162, Type (0, 0), BuildingBlock: OJICUG_clean_linker_0, # of connection points: 2
#     Edge 163, Type (0, 0), BuildingBlock: OJICUG_clean_linker_0, # of connection points: 2
#     Edge 164, Type (0, 0), BuildingBlock: OJICUG_clean_linker_0, # of connection points: 2
#     Edge 165, Type (0, 0), BuildingBlock: OJICUG_clean_linker_0, # of connection points: 2
#     Edge 166, Type (0, 0), BuildingBlock: OJICUG_clean_linker_0, # of connection points: 2
#     Edge 167, Type (0, 0), BuildingBlock: OJICUG_clean_linker_0, # of connection points: 2
# Relax obj value: 0.588
# Max RMSD: 0.227
# Mean RMSD: 0.227
data_MOF--net-fch--node1-XOMCOT_clean_sbu_1--edge1-OJICUG_clean_linker_0
_symmetry_space_group_name_H-M    P1
_symmetry_Int_Tables_number       1
_symmetry_cell_setting            triclinic
loop_
_symmetry_equiv_pos_as_xyz
'x, y, z'
_cell_length_a     59.933745
_cell_length_b     59.923476
_cell_length_c     59.906451
_cell_angle_alpha  90.014484
_cell_angle_beta   89.998966
_cell_angle_gamma 89.994147
loop_
_atom_site_label
_atom_site_type_symbol
_atom_site_fract_x
_atom_site_fract_y
_atom_site_fract_z
_atom_type_partial_charge
C0 C 0.0067 0.38252 0.13403 0.0
C1 C 0.98651 0.37716 0.12448 0.0
N2 N 0.98173 0.39262 0.10881 0.0
N3 N 0.01445 0.40135 0.12454 0.0
C4 C -0.00099 0.40704 0.10922 0.0
H5 H 0.01528 0.37319 0.14688 0.0
Co6 Co 0.04137 0.41521 0.12968 0.0
C7 C 0.03052 0.46345 0.1344 0.0
O8 O 0.0459 0.4649 0.14997 0.0
N9 N 0.06938 0.42905 0.13413 0.0
C10 C 0.10228 0.44221 0.14553 0.0
C11 C 0.08585 0.42666 0.14945 0.0
C12 C 0.07702 0.44518 0.12039 0.0
N13 N 0.09655 0.45382 0.12725 0.0
O14 O 0.04845 0.41265 0.09895 0.0
H15 H 0.08628 0.41472 0.16285 0.0
H16 H 0.06761 0.45155 0.10634 0.0
O17 O 0.02706 0.44474 0.12461 0.0
C18 C 0.06097 0.39595 0.0951 0.0
O19 O 0.06559 0.3823 0.11165 0.0
N20 N 0.03483 0.41611 0.1603 0.0
C21 C 0.03761 0.42282 0.20576 0.0
C22 C 0.02123 0.43393 0.19327 0.0
C23 C 0.01953 0.42962 0.17044 0.0
C24 C 0.04716 0.40178 0.17283 0.0
C25 C 0.04933 0.40522 0.19571 0.0
H26 H 0.00703 0.43832 0.16083 0.0
H27 H 0.05729 0.38926 0.16467 0.0
H28 H 0.0008 0.42117 0.09812 0.0
H29 H 0.97616 0.36304 0.12888 0.0
H30 H 0.11709 0.44499 0.1555 0.0
H31 H 0.01075 0.4466 0.20078 0.0
H32 H 0.06157 0.39557 0.20486 0.0
C33 C 0.61408 0.00953 0.13445 0.0
C34 C 0.61963 0.98937 0.12492 0.0
N35 N 0.60366 0.98391 0.11001 0.0
N36 N 0.59463 0.01658 0.12569 0.0
C37 C 0.58875 0.00075 0.11084 0.0
H38 H 0.62368 0.01858 0.14677 0.0
Co39 Co 0.57994 0.0431 0.13086 0.0
C40 C 0.53307 0.02983 0.14012 0.0
O41 O 0.53264 0.04479 0.15617 0.0
N42 N 0.56501 0.07057 0.1352 0.0
C43 C 0.55086 0.10333 0.14583 0.0
C44 C 0.56811 0.08843 0.14872 0.0
C45 C 0.54667 0.07595 0.1233 0.0
N46 N 0.53718 0.09514 0.13007 0.0
O47 O 0.57996 0.04915 0.09984 0.0
H48 H 0.5817 0.09087 0.1602 0.0
H49 H 0.53993 0.06541 0.11028 0.0
O50 O 0.55079 0.02731 0.12838 0.0
C51 C 0.59793 0.05831 0.09326 0.0
O52 O 0.61445 0.06049 0.10752 0.0
N53 N 0.58148 0.03766 0.16167 0.0
C54 C 0.57658 0.04065 0.20723 0.0
C55 C 0.56737 0.02249 0.19573 0.0
C56 C 0.57062 0.02094 0.17271 0.0
C57 C 0.59472 0.05198 0.17328 0.0
C58 C 0.59185 0.05446 0.1962 0.0
H59 H 0.56285 0.00743 0.16365 0.0
H60 H 0.60592 0.06299 0.1644 0.0
H61 H 0.57411 0.002 0.10036 0.0
H62 H 0.63425 0.97952 0.1288 0.0
H63 H 0.54823 0.11856 0.15519 0.0
H64 H 0.55633 0.01081 0.20399 0.0
H65 H 0.60028 0.06788 0.2049 0.0
C66 C 0.98599 0.61375 0.133 0.0
C67 C 0.00604 0.61922 0.12322 0.0
N68 N 0.01089 0.60361 0.10771 0.0
N69 N 0.9784 0.59469 0.12384 0.0
C70 C 0.99379 0.58899 0.10845 0.0
H71 H 0.97742 0.62311 0.14584 0.0
Co72 Co 0.9518 0.58044 0.1295 0.0
C73 C 0.96355 0.53251 0.13466 0.0
O74 O 0.94858 0.5311 0.15064 0.0
N75 N 0.92409 0.56613 0.13447 0.0
C76 C 0.89136 0.55273 0.14612 0.0
C77 C 0.90767 0.56846 0.14986 0.0
C78 C 0.91656 0.54977 0.12093 0.0
N79 N 0.89712 0.54102 0.12791 0.0
O80 O 0.94427 0.58259 0.09885 0.0
H81 H 0.90713 0.58056 0.16312 0.0
H82 H 0.92591 0.54345 0.10682 0.0
O83 O 0.9665 0.55111 0.1245 0.0
C84 C 0.93151 0.59909 0.09495 0.0
O85 O 0.92672 0.61276 0.11144 0.0
N86 N 0.95882 0.57995 0.16002 0.0
C87 C 0.9576 0.57367 0.20563 0.0
C88 C 0.9741 0.56314 0.19278 0.0
C89 C 0.97491 0.56717 0.16985 0.0
C90 C 0.94629 0.59392 0.17276 0.0
C91 C 0.94486 0.59064 0.19572 0.0
H92 H 0.98746 0.55885 0.15996 0.0
H93 H 0.93557 0.60606 0.16478 0.0
H94 H 0.99209 0.57467 0.09759 0.0
H95 H 0.01627 0.6335 0.12739 0.0
H96 H 0.87653 0.55 0.15608 0.0
H97 H 0.98536 0.55105 0.2001 0.0
H98 H 0.93248 0.59989 0.20508 0.0
C99 C 0.38036 0.98565 0.13403 0.0
C100 C 0.3748 0.00589 0.12466 0.0
N101 N 0.39074 0.01144 0.10974 0.0
N102 N 0.39979 0.97864 0.12518 0.0
C103 C 0.40563 0.99456 0.11041 0.0
H104 H 0.37083 0.97656 0.14636 0.0
Co105 Co 0.4146 0.95215 0.13029 0.0
C106 C 0.46142 0.96561 0.13934 0.0
O107 O 0.4619 0.95072 0.15545 0.0
N108 N 0.42967 0.92473 0.13454 0.0
C109 C 0.44388 0.89194 0.14497 0.0
C110 C 0.42662 0.9068 0.14797 0.0
C111 C 0.448 0.91943 0.12257 0.0
N112 N 0.45753 0.90022 0.12922 0.0
O113 O 0.4143 0.946 0.09926 0.0
H114 H 0.41303 0.90428 0.15944 0.0
H115 H 0.45467 0.93002 0.10957 0.0
O116 O 0.4437 0.96802 0.12758 0.0
C117 C 0.39633 0.93677 0.09278 0.0
O118 O 0.3799 0.93453 0.10714 0.0
N119 N 0.41337 0.95773 0.16115 0.0
C120 C 0.41885 0.95566 0.20688 0.0
C121 C 0.42746 0.97381 0.19479 0.0
C122 C 0.42398 0.97485 0.17179 0.0
C123 C 0.40056 0.94339 0.17316 0.0
C124 C 0.40368 0.94139 0.19611 0.0
H125 H 0.43126 0.98842 0.16242 0.0
H126 H 0.38938 0.9321 0.16462 0.0
H127 H 0.42026 0.99338 0.09991 0.0
H128 H 0.36022 0.01575 0.12867 0.0
H129 H 0.44654 0.87667 0.15424 0.0
H130 H 0.43782 0.98631 0.20272 0.0
H131 H 0.39566 0.92773 0.20476 0.0
C132 C 0.00392 0.61089 0.85846 0.0
C133 C 0.98501 0.61821 0.86926 0.0
N134 N 0.98414 0.60838 0.88944 0.0
N135 N 0.01481 0.59627 0.87171 0.0
C136 C 0.00266 0.59571 0.8907 0.0
H137 H 0.00878 0.61556 0.84178 0.0
Co138 Co 0.04058 0.57939 0.86677 0.0
C139 C 0.00552 0.54481 0.87703 0.0
O140 O 0.98967 0.55676 0.86771 0.0
N141 N 0.06648 0.56304 0.86235 0.0
C142 C 0.09708 0.54752 0.84823 0.0
C143 C 0.08196 0.5647 0.84604 0.0
C144 C 0.07297 0.54544 0.87466 0.0
N145 N 0.09128 0.53552 0.86629 0.0
O146 O 0.04992 0.58548 0.89636 0.0
H147 H 0.08204 0.57722 0.83307 0.0
H148 H 0.064 0.53954 0.88916 0.0
O149 O 0.02554 0.55223 0.87743 0.0
C150 C 0.06463 0.6005 0.89914 0.0
O151 O 0.07166 0.61181 0.88172 0.0
N152 N 0.03279 0.57366 0.83694 0.0
C153 C 0.03908 0.56404 0.79183 0.0
C154 C 0.02998 0.54808 0.80626 0.0
C155 C 0.0276 0.55296 0.82882 0.0
C156 C 0.03972 0.59003 0.82276 0.0
C157 C 0.04303 0.58559 0.80013 0.0
H158 H 0.02388 0.53917 0.8396 0.0
H159 H 0.04516 0.60588 0.82948 0.0
H160 H 0.00679 0.58522 0.90481 0.0
H161 H 0.97226 0.62892 0.86225 0.0
H162 H 0.11109 0.54401 0.83737 0.0
H163 H 0.0263 0.53132 0.80058 0.0
H164 H 0.05046 0.59842 0.78981 0.0
C165 C 0.3786 0.01226 0.86508 0.0
C166 C 0.3725 0.9922 0.87446 0.0
N167 N 0.38981 0.98448 0.88665 0.0
N168 N 0.39966 0.01704 0.87123 0.0
C169 C 0.40601 -5e-05 0.88438 0.0
H170 H 0.36825 0.02292 0.85483 0.0
Co171 Co 0.41523 0.04281 0.86515 0.0
C172 C 0.46178 0.02791 0.8565 0.0
O173 O 0.46272 0.04211 0.83981 0.0
N174 N 0.43093 0.06962 0.85983 0.0
C175 C 0.44544 0.10196 0.84844 0.0
C176 C 0.42806 0.08716 0.84586 0.0
C177 C 0.44934 0.07504 0.87159 0.0
N178 N 0.45899 0.09401 0.86443 0.0
O179 O 0.41537 0.04989 0.89596 0.0
H180 H 0.41444 0.08951 0.83439 0.0
H181 H 0.45588 0.06482 0.88496 0.0
O182 O 0.44393 0.02634 0.86819 0.0
C183 C 0.39776 0.06002 0.90207 0.0
O184 O 0.38159 0.06272 0.8875 0.0
N185 N 0.4135 0.03626 0.83459 0.0
C186 C 0.41822 0.03699 0.78875 0.0
C187 C 0.42687 0.01909 0.80119 0.0
C188 C 0.42378 0.01875 0.82428 0.0
C189 C 0.40061 0.05038 0.8224 0.0
C190 C 0.40335 0.05168 0.79936 0.0
H191 H 0.43107 0.00537 0.8339 0.0
H192 H 0.38977 0.06209 0.83082 0.0
H193 H 0.42221 -0.00098 0.89224 0.0
H194 H 0.35638 0.98426 0.87279 0.0
H195 H 0.44815 0.11702 0.83886 0.0
H196 H 0.43701 0.00629 0.79345 0.0
H197 H 0.39533 0.06521 0.79049 0.0
C198 C 0.99059 0.3839 0.85883 0.0
C199 C 0.00932 0.37647 0.86983 0.0
N200 N 0.01017 0.38651 0.88993 0.0
N201 N 0.97979 0.3988 0.87183 0.0
C202 C 0.9918 0.39944 0.8909 0.0
H203 H 0.98573 0.37909 0.84217 0.0
Co204 Co 0.95414 0.41571 0.86643 0.0
C205 C 0.98925 0.45044 0.87676 0.0
O206 O 0.00549 0.43829 0.86843 0.0
N207 N 0.92833 0.43204 0.86155 0.0
C208 C 0.8976 0.44732 0.84742 0.0
C209 C 0.91283 0.43021 0.84528 0.0
C210 C 0.92176 0.44968 0.87378 0.0
N211 N 0.90336 0.45944 0.86542 0.0
O212 O 0.9447 0.41073 0.89611 0.0
H213 H 0.91269 0.41756 0.83244 0.0
H214 H 0.93068 0.45566 0.88829 0.0
O215 O 0.96923 0.44306 0.87644 0.0
C216 C 0.93351 0.39343 0.90101 0.0
O217 O 0.93028 0.37807 0.88569 0.0
N218 N 0.96207 0.4205 0.83646 0.0
C219 C 0.95608 0.42933 0.79117 0.0
C220 C 0.96598 0.44518 0.80521 0.0
C221 C 0.96824 0.44071 0.82786 0.0
C222 C 0.95456 0.40406 0.82265 0.0
C223 C 0.95132 0.40813 0.79994 0.0
H224 H 0.9728 0.45452 0.83829 0.0
H225 H 0.94863 0.38855 0.82973 0.0
H226 H 0.98768 0.41011 0.90488 0.0
H227 H 0.02197 0.3655 0.86304 0.0
H228 H 0.8835 0.45063 0.83663 0.0
H229 H 0.97042 0.46161 0.79913 0.0
H230 H 0.94336 0.39538 0.78992 0.0
C231 C 0.61371 0.98579 0.86124 0.0
C232 C 0.6191 0.006 0.87072 0.0
N233 N 0.60319 0.0113 0.88576 0.0
N234 N 0.5944 0.97852 0.87012 0.0
C235 C 0.58844 0.99429 0.88503 0.0
H236 H 0.62333 0.97685 0.84886 0.0
Co237 Co 0.5804 0.95169 0.86479 0.0
C238 C 0.53283 0.96302 0.85723 0.0
O239 O 0.53252 0.94772 0.8415 0.0
N240 N 0.56634 0.92372 0.8602 0.0
C241 C 0.55328 0.89055 0.84934 0.0
C242 C 0.56919 0.90667 0.84558 0.0
C243 C 0.54946 0.91673 0.87339 0.0
N244 N 0.54093 0.89705 0.86685 0.0
O245 O 0.58162 0.94502 0.89573 0.0
H246 H 0.58181 0.90549 0.83287 0.0
H247 H 0.54268 0.92661 0.88692 0.0
O248 O 0.55079 0.96636 0.86839 0.0
C249 C 0.59832 0.93278 0.90039 0.0
O250 O 0.61261 0.9281 0.88442 0.0
N251 N 0.58082 0.95789 0.83407 0.0
C252 C 0.57475 0.95569 0.78862 0.0
C253 C 0.56498 0.9731 0.80079 0.0
C254 C 0.56881 0.97428 0.82374 0.0
C255 C 0.59442 0.94453 0.82176 0.0
C256 C 0.591 0.94243 0.79887 0.0
H257 H 0.56068 0.98722 0.83331 0.0
H258 H 0.60629 0.93378 0.83007 0.0
H259 H 0.5739 0.9929 0.89563 0.0
H260 H 0.63359 0.016 0.86673 0.0
H261 H 0.55089 0.87532 0.8399 0.0
H262 H 0.55313 0.98439 0.79311 0.0
H263 H 0.59976 0.92959 0.78963 0.0
C264 C 0.13134 0.01258 0.37911 0.0
C265 C 0.12124 0.99298 0.37268 0.0
N266 N 0.10657 0.98696 0.38868 0.0
N267 N 0.12322 0.01873 0.39914 0.0
C268 C 0.1081 0.00298 0.40447 0.0
H269 H 0.14376 0.02177 0.36979 0.0
Co270 Co 0.13018 0.04414 0.41505 0.0
C271 C 0.13705 0.02851 0.46179 0.0
O272 O 0.15413 0.04214 0.46363 0.0
N273 N 0.1366 0.07056 0.43097 0.0
C274 C 0.14895 0.10321 0.44393 0.0
C275 C 0.1509 0.08764 0.42716 0.0
C276 C 0.12542 0.07689 0.44947 0.0
N277 N 0.13309 0.09616 0.4581 0.0
O278 O 0.09966 0.05246 0.41517 0.0
H279 H 0.16182 0.08937 0.41299 0.0
H280 H 0.1117 0.06747 0.45648 0.0
O281 O 0.12611 0.02749 0.44343 0.0
C282 C 0.09388 0.06306 0.39772 0.0
O283 O 0.10854 0.06559 0.3816 0.0
N284 N 0.16049 0.0365 0.41345 0.0
C285 C 0.20621 0.03714 0.41812 0.0
C286 C 0.19369 0.02 0.42799 0.0
C287 C 0.17064 0.0195 0.4247 0.0
C288 C 0.17277 0.04977 0.39976 0.0
C289 C 0.19583 0.05089 0.40228 0.0
H290 H 0.16095 0.00654 0.43259 0.0
H291 H 0.16443 0.06112 0.38849 0.0
H292 H 0.0981 0.00357 0.41948 0.0
H293 H 0.12472 0.98379 0.35753 0.0
H294 H 0.15843 0.1185 0.4455 0.0
H295 H 0.20137 0.00806 0.43918 0.0
H296 H 0.20495 0.06377 0.39348 0.0
C297 C 0.98543 0.13539 0.38129 0.0
C298 C 0.00646 0.12741 0.37674 0.0
N299 N 0.01179 0.11207 0.39235 0.0
N300 N 0.97766 0.12528 0.39979 0.0
C301 C 0.99398 0.11116 0.40612 0.0
H302 H 0.97625 0.14754 0.3716 0.0
Co303 Co 0.94972 0.12832 0.41223 0.0
C304 C 0.95689 0.13559 0.46045 0.0
O305 O 0.9417 0.15138 0.45932 0.0
N306 N 0.92067 0.13041 0.42487 0.0
C307 C 0.88838 0.14059 0.44033 0.0
C308 C 0.90338 0.14489 0.42344 0.0
C309 C 0.91458 0.11646 0.4415 0.0
N310 N 0.89588 0.12301 0.45211 0.0
O311 O 0.94549 0.09705 0.41029 0.0
H312 H 0.90191 0.15861 0.41195 0.0
H313 H 0.925 0.10283 0.44706 0.0
O314 O 0.96256 0.12493 0.44274 0.0
C315 C 0.93785 0.08956 0.39199 0.0
O316 O 0.9358 0.10325 0.37497 0.0
N317 N 0.95383 0.15938 0.41291 0.0
C318 C 0.95025 0.20461 0.42037 0.0
C319 C 0.96755 0.19247 0.43036 0.0
C320 C 0.96958 0.16979 0.42568 0.0
C321 C 0.94039 0.17174 0.39943 0.0
C322 C 0.93778 0.19453 0.40333 0.0
H323 H 0.9826 0.16033 0.4338 0.0
H324 H 0.93009 0.16351 0.38709 0.0
H325 H 0.99242 0.09986 0.42012 0.0
H326 H 0.01694 0.13254 0.36296 0.0
H327 H 0.87413 0.15081 0.44465 0.0
H328 H 0.97849 0.20009 0.44257 0.0
H329 H 0.92491 0.2036 0.39447 0.0
C330 C 0.86354 0.98241 0.37975 0.0
C331 C 0.87397 0.00181 0.37331 0.0
N332 N 0.88861 0.00769 0.38939 0.0
N333 N 0.8714 0.97624 0.39988 0.0
C334 C 0.8867 0.99181 0.40526 0.0
H335 H 0.85111 0.97331 0.37035 0.0
Co336 Co 0.86408 0.95084 0.41559 0.0
C337 C 0.85671 0.96645 0.4623 0.0
O338 O 0.83958 0.95285 0.46396 0.0
N339 N 0.85728 0.92437 0.4312 0.0
C340 C 0.84511 0.8912 0.44295 0.0
C341 C 0.84347 0.90711 0.42648 0.0
C342 C 0.86788 0.91785 0.44997 0.0
N343 N 0.86028 0.89824 0.45785 0.0
O344 O 0.89459 0.94234 0.41611 0.0
H345 H 0.83328 0.90542 0.41177 0.0
H346 H 0.88129 0.92724 0.45759 0.0
O347 O 0.86788 0.96738 0.44408 0.0
C348 C 0.90061 0.9318 0.39869 0.0
O349 O 0.88615 0.92934 0.38238 0.0
N350 N 0.8338 0.95866 0.41365 0.0
C351 C 0.78809 0.95795 0.41826 0.0
C352 C 0.80057 0.97503 0.42828 0.0
C353 C 0.82361 0.9756 0.42497 0.0
C354 C 0.82154 0.9455 0.39983 0.0
C355 C 0.79848 0.94435 0.40229 0.0
H356 H 0.83328 0.98852 0.43296 0.0
H357 H 0.8299 0.93426 0.38844 0.0
H358 H 0.8966 0.99114 0.42034 0.0
H359 H 0.87077 0.01095 0.35807 0.0
H360 H 0.83604 0.8756 0.44375 0.0
H361 H 0.79286 0.98684 0.43959 0.0
H362 H 0.78935 0.93156 0.39337 0.0
C363 C 0.00895 0.85934 0.38273 0.0
C364 C 0.98792 0.86735 0.3783 0.0
N365 N 0.98284 0.88295 0.39373 0.0
N366 N 0.017 0.86968 0.40099 0.0
C367 C 0.00081 0.88399 0.4073 0.0
H368 H 0.01795 0.84703 0.37308 0.0
Co369 Co 0.04521 0.86644 0.41277 0.0
C370 C 0.03936 0.86184 0.46162 0.0
O371 O 0.05465 0.8461 0.46147 0.0
N372 N 0.07454 0.86398 0.42448 0.0
C373 C 0.10738 0.85305 0.43819 0.0
C374 C 0.09122 0.84884 0.4224 0.0
C375 C 0.08206 0.87814 0.44034 0.0
N376 N 0.10132 0.87135 0.44963 0.0
O377 O 0.04998 0.89753 0.41 0.0
H378 H 0.09159 0.83486 0.41113 0.0
H379 H 0.07219 0.8918 0.44685 0.0
O380 O 0.03328 0.8711 0.44331 0.0
C381 C 0.0579 0.9047 0.39168 0.0
O382 O 0.06002 0.89077 0.37487 0.0
N383 N 0.04059 0.8355 0.41442 0.0
C384 C 0.04406 0.79006 0.42119 0.0
C385 C 0.02808 0.80248 0.43293 0.0
C386 C 0.02608 0.82527 0.4287 0.0
C387 C 0.05262 0.82302 0.39977 0.0
C388 C 0.05517 0.80018 0.40324 0.0
H389 H 0.01391 0.8348 0.43797 0.0
H390 H 0.06203 0.8312 0.38671 0.0
H391 H 0.00256 0.8955 0.42111 0.0
H392 H 0.97727 0.86206 0.36471 0.0
H393 H 0.12175 0.84272 0.44182 0.0
H394 H 0.01805 0.79491 0.44593 0.0
H395 H 0.06705 0.79105 0.39313 0.0
C396 C 0.13154 0.98786 0.61065 0.0
C397 C 0.12382 0.00916 0.6145 0.0
N398 N 0.10868 0.01423 0.5986 0.0
N399 N 0.1214 0.97968 0.59235 0.0
C400 C 0.10753 0.99599 0.58548 0.0
H401 H 0.14372 0.97891 0.62052 0.0
Co402 Co 0.12448 0.95201 0.57929 0.0
C403 C 0.13301 0.96246 0.53147 0.0
O404 O 0.14807 0.9465 0.53126 0.0
N405 N 0.12668 0.92346 0.56584 0.0
C406 C 0.13682 0.89035 0.55222 0.0
C407 C 0.1397 0.90534 0.56939 0.0
C408 C 0.11473 0.91799 0.54753 0.0
N409 N 0.12147 0.8987 0.53815 0.0
O410 O 0.09315 0.94777 0.58099 0.0
H411 H 0.15128 0.90308 0.58294 0.0
H412 H 0.10231 0.92888 0.54026 0.0
O413 O 0.12185 0.96627 0.54935 0.0
C414 C 0.08668 0.94072 0.59997 0.0
O415 O 0.10146 0.93882 0.61607 0.0
N416 N 0.15564 0.95579 0.57936 0.0
C417 C 0.20114 0.9512 0.57389 0.0
C418 C 0.18985 0.96897 0.56366 0.0
C419 C 0.16699 0.97146 0.56731 0.0
C420 C 0.16709 0.94191 0.59318 0.0
C421 C 0.18992 0.93876 0.59024 0.0
H422 H 0.15827 0.98494 0.55913 0.0
H423 H 0.15816 0.93197 0.6053 0.0
H424 H 0.09641 0.99421 0.57137 0.0
H425 H 0.12914 0.02007 0.62787 0.0
H426 H 0.14638 0.87526 0.54956 0.0
H427 H 0.1981 0.9798 0.55178 0.0
H428 H 0.19841 0.92593 0.59972 0.0
C429 C 0.00788 0.13301 0.61307 0.0
C430 C 0.99025 0.12064 0.6212 0.0
N431 N 0.98852 0.1018 0.60899 0.0
N432 N 0.01702 0.1221 0.59563 0.0
C433 C 0.00551 0.10277 0.59428 0.0
H434 H 0.01264 0.14952 0.61857 0.0
Co435 Co 0.0383 0.1313 0.57467 0.0
C436 C 0.99616 0.1263 0.54769 0.0
O437 O 0.98342 0.13046 0.56505 0.0
N438 N 0.05958 0.14014 0.55332 0.0
C439 C 0.0741 0.15528 0.52269 0.0
C440 C 0.05682 0.15605 0.53756 0.0
C441 C 0.07884 0.12993 0.54751 0.0
N442 N 0.08781 0.13858 0.5287 0.0
O443 O 0.0485 0.10123 0.57246 0.0
H444 H 0.04221 0.16629 0.53546 0.0
H445 H 0.08536 0.11536 0.55589 0.0
O446 O 0.0174 0.12654 0.54978 0.0
C447 C 0.06052 0.09648 0.58936 0.0
O448 O 0.06354 0.11185 0.60473 0.0
N449 N 0.03036 0.1613 0.57854 0.0
C450 C 0.03682 0.20693 0.57573 0.0
C451 C 0.01804 0.19708 0.56584 0.0
C452 C 0.01494 0.17406 0.56761 0.0
C453 C 0.04666 0.1711 0.59097 0.0
C454 C 0.05029 0.19399 0.58975 0.0
H455 H 0.00188 0.16679 0.5578 0.0
H456 H 0.05856 0.16073 0.59974 0.0
H457 H 0.00826 0.0906 0.58124 0.0
H458 H 0.97847 0.12608 0.63377 0.0
H459 H 0.07506 0.16461 0.50725 0.0
H460 H 0.00703 0.20673 0.55523 0.0
H461 H 0.06488 0.201 0.59779 0.0
C462 C 0.86406 0.00811 0.61241 0.0
C463 C 0.87191 0.98686 0.61627 0.0
N464 N 0.88466 0.98066 0.59874 0.0
N465 N 0.87173 0.01516 0.59252 0.0
C466 C 0.88426 -0.00179 0.58466 0.0
H467 H 0.85379 0.01796 0.62352 0.0
Co468 Co 0.86795 0.04282 0.57968 0.0
C469 C 0.86017 0.0331 0.5315 0.0
O470 O 0.8451 0.04905 0.53114 0.0
N471 N 0.86496 0.07143 0.56662 0.0
C472 C 0.85432 0.10452 0.5533 0.0
C473 C 0.85093 0.08888 0.56979 0.0
C474 C 0.87772 0.07784 0.5492 0.0
N475 N 0.87105 0.09732 0.54023 0.0
O476 O 0.89922 0.04771 0.58134 0.0
H477 H 0.83852 0.09034 0.58268 0.0
H478 H 0.8905 0.06733 0.54196 0.0
O479 O 0.8709 0.02908 0.54958 0.0
C480 C 0.90572 0.05512 0.60018 0.0
O481 O 0.89103 0.05702 0.61635 0.0
N482 N 0.83691 0.0383 0.57978 0.0
C483 C 0.79145 0.04311 0.57423 0.0
C484 C 0.80285 0.02586 0.5632 0.0
C485 C 0.82568 0.02321 0.5669 0.0
C486 C 0.82536 0.05142 0.59423 0.0
C487 C 0.80252 0.05463 0.59134 0.0
H488 H 0.83448 0.01017 0.55811 0.0
H489 H 0.83426 0.0611 0.60661 0.0
H490 H 0.89305 -0.00113 0.56892 0.0
H491 H 0.86887 0.97704 0.63111 0.0
H492 H 0.84477 0.11964 0.55074 0.0
H493 H 0.79473 0.01567 0.55068 0.0
H494 H 0.79397 0.067 0.60138 0.0
C495 C 0.98534 0.86245 0.61248 0.0
C496 C 0.00261 0.87508 0.62098 0.0
N497 N 0.00394 0.89421 0.60919 0.0
N498 N 0.97604 0.8735 0.59523 0.0
C499 C 0.98704 0.89314 0.5944 0.0
H500 H 0.9811 0.84564 0.61747 0.0
Co501 Co 0.95576 0.86416 0.57342 0.0
C502 C -0.00142 0.87091 0.54777 0.0
O503 O 0.01108 0.86645 0.56523 0.0
N504 N 0.93553 0.85514 0.55123 0.0
C505 C 0.92267 0.8409 0.51947 0.0
C506 C 0.93999 0.84088 0.53431 0.0
C507 C 0.91527 0.86362 0.54613 0.0
N508 N 0.90724 0.85549 0.52668 0.0
O509 O 0.94479 0.89397 0.57154 0.0
H510 H 0.95566 0.83253 0.53154 0.0
H511 H 0.90724 0.87672 0.55555 0.0
O512 O 0.97732 0.87011 0.54943 0.0
C513 C 0.931 0.89748 0.58734 0.0
O514 O 0.92666 0.88107 0.60124 0.0
N515 N 0.96442 0.83434 0.57682 0.0
C516 C 0.95831 0.78879 0.57245 0.0
C517 C 0.97696 0.79912 0.56283 0.0
C518 C 0.97991 0.82209 0.56541 0.0
C519 C 0.94824 0.824 0.58896 0.0
C520 C 0.94481 0.80113 0.58698 0.0
H521 H 0.99284 0.82984 0.55578 0.0
H522 H 0.93624 0.83396 0.59805 0.0
H523 H 0.98414 0.90546 0.58153 0.0
H524 H 0.01453 0.86959 0.63339 0.0
H525 H 0.9227 0.83277 0.50332 0.0
H526 H 0.98798 0.78993 0.55182 0.0
H527 H 0.9303 0.79375 0.59483 0.0
C528 C 0.38256 0.13446 0.00908 0.0
C529 C 0.3773 0.12532 0.98867 0.0
N530 N 0.3929 0.1099 0.98355 0.0
N531 N 0.40147 0.12498 0.01663 0.0
C532 C 0.40732 0.11005 0.00085 0.0
H533 H 0.37314 0.14705 0.01792 0.0
Co534 Co 0.41533 0.12986 0.04359 0.0
C535 C 0.46353 0.13533 0.03231 0.0
O536 O 0.46512 0.15079 0.0478 0.0
N537 N 0.42912 0.13409 0.07162 0.0
C538 C 0.4416 0.14512 0.10494 0.0
C539 C 0.42601 0.14883 0.0885 0.0
C540 C 0.44574 0.12081 0.07901 0.0
N541 N 0.45395 0.12748 0.0988 0.0
O542 O 0.41361 0.09896 0.05013 0.0
H543 H 0.41341 0.1616 0.08932 0.0
H544 H 0.45262 0.10718 0.06935 0.0
O545 O 0.44484 0.12546 0.02905 0.0
C546 C 0.39557 0.09268 0.05934 0.0
O547 O 0.3792 0.10713 0.06141 0.0
N548 N 0.4157 0.16062 0.03754 0.0
C549 C 0.42335 0.20577 0.0416 0.0
C550 C 0.43386 0.19361 0.02455 0.0
C551 C 0.42907 0.17094 0.02226 0.0
C552 C 0.40159 0.17307 0.05022 0.0
C553 C 0.40549 0.19581 0.053 0.0
H554 H 0.4375 0.1615 0.00945 0.0
H555 H 0.38891 0.16489 0.06012 0.0
H556 H 0.42156 0.09907 0.0024 0.0
H557 H 0.36315 0.12982 0.97841 0.0
H558 H 0.4438 0.15469 0.12011 0.0
H559 H 0.44689 0.20088 0.01437 0.0
H560 H 0.3958 0.20503 0.06517 0.0
C561 C 0.38112 0.86223 0.98577 0.0
C562 C 0.37555 0.87174 0.00594 0.0
N563 N 0.39133 0.8869 0.01127 0.0
N564 N 0.4004 0.87124 0.97858 0.0
C565 C 0.40612 0.88626 0.99431 0.0
H566 H 0.37172 0.84965 0.97687 0.0
Co567 Co 0.41526 0.86587 0.95223 0.0
C568 C 0.46276 0.85922 0.96573 0.0
O569 O 0.46431 0.84306 0.95098 0.0
N570 N 0.4303 0.86124 0.92489 0.0
C571 C 0.44457 0.84974 0.89249 0.0
C572 C 0.42753 0.84689 0.90764 0.0
C573 C 0.44817 0.87354 0.9189 0.0
N574 N 0.45776 0.86628 0.89993 0.0
O575 O 0.41396 0.89671 0.94535 0.0
H576 H 0.41434 0.83483 0.90587 0.0
H577 H 0.45458 0.88713 0.92891 0.0
O578 O 0.44431 0.86985 0.96799 0.0
C579 C 0.39712 0.9011 0.93321 0.0
O580 O 0.38309 0.88489 0.92853 0.0
N581 N 0.41484 0.8352 0.95847 0.0
C582 C 0.42097 0.78975 0.95592 0.0
C583 C 0.43098 0.80192 0.9732 0.0
C584 C 0.42687 0.82478 0.97476 0.0
C585 C 0.40124 0.82298 0.94503 0.0
C586 C 0.40443 0.80006 0.94299 0.0
H587 H 0.43474 0.83421 0.98793 0.0
H588 H 0.38948 0.83138 0.93421 0.0
H589 H 0.42063 0.89691 0.99299 0.0
H590 H 0.3611 0.8676 0.01595 0.0
H591 H 0.44749 0.8398 0.87769 0.0
H592 H 0.44278 0.79414 0.98447 0.0
H593 H 0.39557 0.79102 0.93008 0.0
C594 C 0.13362 0.3791 0.98643 0.0
C595 C 0.12501 0.3736 0.00701 0.0
N596 N 0.11124 0.39017 0.01367 0.0
N597 N 0.12543 0.39906 0.98025 0.0
C598 C 0.11192 0.40539 0.99707 0.0
H599 H 0.14443 0.36885 0.97622 0.0
Co600 Co 0.12841 0.41263 0.9529 0.0
C601 C 0.13499 0.46088 0.96307 0.0
O602 O 0.14981 0.46162 0.9469 0.0
N603 N 0.13048 0.42614 0.92446 0.0
C604 C 0.13905 0.43913 0.89063 0.0
C605 C 0.14355 0.42291 0.90629 0.0
C606 C 0.11716 0.4433 0.91854 0.0
N607 N 0.12271 0.4522 0.89868 0.0
O608 O 0.09718 0.41036 0.9485 0.0
H609 H 0.15591 0.41005 0.90425 0.0
H610 H 0.10424 0.4499 0.92929 0.0
O611 O 0.12481 0.44249 0.96724 0.0
C612 C 0.0911 0.39195 0.93986 0.0
O613 O 0.10616 0.37628 0.93687 0.0
N614 N 0.1595 0.41339 0.9569 0.0
C615 C 0.2044 0.42156 0.95095 0.0
C616 C 0.19298 0.43139 0.96889 0.0
C617 C 0.17047 0.42637 0.97209 0.0
C618 C 0.17141 0.39993 0.94305 0.0
C619 C 0.19394 0.40417 0.93926 0.0
H620 H 0.16156 0.4344 0.98554 0.0
H621 H 0.16291 0.38731 0.93334 0.0
H622 H 0.10233 0.42066 0.99674 0.0
H623 H 0.12805 0.35817 0.01586 0.0
H624 H 0.14789 0.44171 0.87509 0.0
H625 H 0.2007 0.44406 0.97921 0.0
H626 H 0.20265 0.39497 0.92637 0.0
C627 C 0.61292 0.13347 0.98686 0.0
C628 C 0.61832 0.12399 0.00706 0.0
N629 N 0.60254 0.10876 0.0122 0.0
N630 N 0.59376 0.12439 0.97945 0.0
C631 C 0.58789 0.10937 0.99511 0.0
H632 H 0.62246 0.14598 0.97802 0.0
Co633 Co 0.57972 0.12958 0.95263 0.0
C634 C 0.53169 0.13558 0.96433 0.0
O635 O 0.53009 0.15113 0.94894 0.0
N636 N 0.56574 0.13411 0.92476 0.0
C637 C 0.55344 0.14512 0.89137 0.0
C638 C 0.56895 0.14884 0.90788 0.0
C639 C 0.54906 0.12092 0.91734 0.0
N640 N 0.54102 0.12753 0.89747 0.0
O641 O 0.58088 0.09864 0.946 0.0
H642 H 0.58163 0.16151 0.90707 0.0
H643 H 0.54214 0.10727 0.92695 0.0
O644 O 0.55034 0.12559 0.96743 0.0
C645 C 0.59884 0.09222 0.93671 0.0
O646 O 0.61533 0.10652 0.93465 0.0
N647 N 0.57995 0.16033 0.95871 0.0
C648 C 0.57388 0.20569 0.95451 0.0
C649 C 0.56287 0.194 0.97154 0.0
C650 C 0.56678 0.17115 0.97385 0.0
C651 C 0.59446 0.17224 0.94599 0.0
C652 C 0.5913 0.19507 0.94307 0.0
H653 H 0.55793 0.16204 0.98661 0.0
H654 H 0.60683 0.16359 0.93608 0.0
H655 H 0.57348 0.09861 0.99361 0.0
H656 H 0.6327 0.1281 0.01718 0.0
H657 H 0.55144 0.15458 0.8761 0.0
H658 H 0.55013 0.20188 0.98165 0.0
H659 H 0.60116 0.2039 0.93075 0.0
C660 C 0.86067 0.61626 0.98519 0.0
C661 C 0.86907 0.62177 0.00585 0.0
N662 N 0.8825 0.60505 0.01279 0.0
N663 N 0.86863 0.59613 0.97925 0.0
C664 C 0.88183 0.58972 0.99628 0.0
H665 H 0.8501 0.62657 0.9748 0.0
Co666 Co 0.86554 0.58231 0.95202 0.0
C667 C 0.85839 0.53424 0.96265 0.0
O668 O 0.84354 0.53348 0.94651 0.0
N669 N 0.86332 0.56852 0.92374 0.0
C670 C 0.8546 0.55533 0.89004 0.0
C671 C 0.85018 0.57164 0.90562 0.0
C672 C 0.87653 0.55125 0.91793 0.0
N673 N 0.87094 0.54227 0.89812 0.0
O674 O 0.89682 0.5842 0.94764 0.0
H675 H 0.83782 0.58451 0.90356 0.0
H676 H 0.88946 0.54468 0.92869 0.0
O677 O 0.86875 0.55255 0.96666 0.0
C678 C 0.90287 0.60255 0.93885 0.0
O679 O 0.88779 0.61816 0.93576 0.0
N680 N 0.83446 0.58205 0.95595 0.0
C681 C 0.78919 0.57567 0.95038 0.0
C682 C 0.80042 0.56523 0.96809 0.0
C683 C 0.82314 0.56935 0.97111 0.0
C684 C 0.82296 0.59595 0.9422 0.0
C685 C 0.80023 0.59266 0.93866 0.0
H686 H 0.83181 0.56099 0.9845 0.0
H687 H 0.83186 0.60825 0.93245 0.0
H688 H 0.89116 0.57429 0.99622 0.0
H689 H 0.86612 0.63728 0.01459 0.0
H690 H 0.84576 0.5527 0.87451 0.0
H691 H 0.79232 0.55282 0.97842 0.0
H692 H 0.79178 0.60232 0.92593 0.0
C693 C 0.61528 0.86401 0.01146 0.0
C694 C 0.62102 0.8728 0.99106 0.0
N695 N 0.60375 0.88513 0.98346 0.0
N696 N 0.59448 0.87064 0.01665 0.0
C697 C 0.58788 0.88349 -0.0006 0.0
H698 H 0.62582 0.85402 0.02217 0.0
Co699 Co 0.58029 0.86577 0.04345 0.0
C700 C 0.53234 0.859 0.03218 0.0
O701 O 0.53121 0.8437 0.04785 0.0
N702 N 0.56626 0.86158 0.07139 0.0
C703 C 0.55332 0.85044 0.10449 0.0
C704 C 0.56913 0.84676 0.08824 0.0
C705 C 0.54952 0.87482 0.07859 0.0
N706 N 0.54104 0.86809 0.09825 0.0
O707 O 0.58124 0.89676 0.04957 0.0
H708 H 0.58163 0.83391 0.08912 0.0
H709 H 0.54269 0.88841 0.06884 0.0
O710 O 0.5508 0.86924 0.02866 0.0
C711 C 0.59916 0.90309 0.059 0.0
O712 O 0.61548 0.88864 0.06139 0.0
N713 N 0.58088 0.83496 0.03785 0.0
C714 C 0.57564 0.78956 0.04286 0.0
C715 C 0.56423 0.80083 0.02579 0.0
C716 C 0.56774 0.82369 0.02304 0.0
C717 C 0.59572 0.82351 0.05063 0.0
C718 C 0.59303 0.80066 0.0539 0.0
H719 H 0.55857 0.83243 0.01025 0.0
H720 H 0.60795 0.83254 0.06036 0.0
H721 H 0.57188 0.89178 -0.00119 0.0
H722 H 0.63699 0.87079 0.98291 0.0
H723 H 0.5509 0.84079 0.11957 0.0
H724 H 0.55147 0.79263 0.01597 0.0
H725 H 0.60322 0.79221 0.0662 0.0
C726 C 0.13337 0.6158 0.01045 0.0
C727 C 0.125 0.62229 0.99005 0.0
N728 N 0.11124 0.60612 0.98258 0.0
N729 N 0.12507 0.59557 0.01564 0.0
C730 C 0.11162 0.59015 -0.00154 0.0
H731 H 0.14444 0.62536 0.02103 0.0
Co732 Co 0.12921 0.57995 0.04181 0.0
C733 C 0.13556 0.53239 0.0274 0.0
O734 O 0.15134 0.52987 0.04242 0.0
N735 N 0.13268 0.56441 0.06897 0.0
C736 C 0.14274 0.55076 0.10209 0.0
C737 C 0.1458 0.56783 0.08705 0.0
C738 C 0.12074 0.54609 0.07432 0.0
N739 N 0.1272 0.53689 0.09378 0.0
O740 O 0.09811 0.58091 0.04742 0.0
H741 H 0.15699 0.58165 0.08958 0.0
H742 H 0.10784 0.53925 0.0637 0.0
O743 O 0.12573 0.55128 0.02524 0.0
C744 C 0.09184 0.59875 0.05704 0.0
O745 O 0.10646 0.61485 0.05991 0.0
N746 N 0.16011 0.58044 0.03695 0.0
C747 C 0.20504 0.57293 0.04292 0.0
C748 C 0.19393 0.56344 0.02459 0.0
C749 C 0.17135 0.5682 0.0214 0.0
C750 C 0.1717 0.59385 0.05111 0.0
C751 C 0.19429 0.58996 0.05486 0.0
H752 H 0.16261 0.56058 0.00764 0.0
H753 H 0.16288 0.6059 0.06125 0.0
H754 H 0.10218 0.57479 -0.00226 0.0
H755 H 0.12837 0.63794 0.98169 0.0
H756 H 0.15177 0.54843 0.11756 0.0
H757 H 0.20191 0.55116 0.014 0.0
H758 H 0.20274 0.59895 0.06807 0.0
C759 C 0.85904 0.38113 0.00878 0.0
C760 C 0.868 0.37498 0.98854 0.0
N761 N 0.88348 0.39025 0.98267 0.0
N762 N 0.86867 0.40029 0.0155 0.0
C763 C 0.88354 0.40533 -0.00057 0.0
H764 H 0.84638 0.3722 0.01802 0.0
Co765 Co 0.86386 0.41578 0.04169 0.0
C766 C 0.85711 0.4631 0.02743 0.0
O767 O 0.84101 0.46505 0.04219 0.0
N768 N 0.85971 0.43127 0.06879 0.0
C769 C 0.84893 0.44528 0.10155 0.0
C770 C 0.8459 0.42825 0.08643 0.0
C771 C 0.87185 0.44937 0.07445 0.0
N772 N 0.86505 0.45875 0.0937 0.0
O773 O 0.89484 0.41501 0.04796 0.0
H774 H 0.8342 0.4148 0.08855 0.0
H775 H 0.88513 0.45596 0.06415 0.0
O776 O 0.86747 0.44449 0.02529 0.0
C777 C 0.90104 0.39719 0.05765 0.0
O778 O 0.88647 0.38099 0.0602 0.0
N779 N 0.83308 0.41505 0.03614 0.0
C780 C 0.78739 0.41957 0.03907 0.0
C781 C 0.7991 0.43007 0.02174 0.0
C782 C 0.82209 0.42682 0.02003 0.0
C783 C 0.82144 0.40118 0.04981 0.0
C784 C 0.79845 0.40355 0.05203 0.0
H785 H 0.8311 0.43492 0.00672 0.0
H786 H 0.83033 0.38968 0.06053 0.0
H787 H 0.89452 0.41961 0.00038 0.0
H788 H 0.86325 0.36049 0.97888 0.0
H789 H 0.83949 0.44789 0.11673 0.0
H790 H 0.79081 0.44149 0.01044 0.0
H791 H 0.78987 0.39437 0.06502 0.0
C792 C 0.50106 0.88382 0.63703 0.0
C793 C 0.48225 0.87632 0.6262 0.0
N794 N 0.48152 0.88587 0.60586 0.0
N795 N 0.51204 0.89827 0.62368 0.0
C796 C 0.50004 0.89857 0.60459 0.0
H797 H 0.50583 0.87938 0.65381 0.0
Co798 Co 0.53791 0.91493 0.62878 0.0
C799 C 0.50327 0.95002 0.61792 0.0
O800 O 0.48677 0.93812 0.62609 0.0
N801 N 0.56396 0.931 0.63336 0.0
C802 C 0.59509 0.94582 0.64711 0.0
C803 C 0.57963 0.92895 0.64945 0.0
C804 C 0.57067 0.94851 0.62103 0.0
N805 N 0.58931 0.958 0.62916 0.0
O806 O 0.54726 0.90938 0.59919 0.0
H807 H 0.57975 0.91629 0.66227 0.0
H808 H 0.56172 0.95457 0.60657 0.0
O809 O 0.52318 0.94235 0.61845 0.0
C810 C 0.55979 0.89276 0.59522 0.0
O811 O 0.56404 0.8785 0.61133 0.0
N812 N 0.53015 0.92029 0.65869 0.0
C813 C 0.53757 0.93002 0.70356 0.0
C814 C 0.52745 0.9457 0.6895 0.0
C815 C 0.5244 0.94075 0.66703 0.0
C816 C 0.5377 0.90401 0.67265 0.0
C817 C 0.54165 0.90852 0.69516 0.0
H818 H 0.51967 0.95437 0.65644 0.0
H819 H 0.54325 0.88828 0.66574 0.0
H820 H 0.50429 0.90886 0.59037 0.0
H821 H 0.46949 0.86567 0.63325 0.0
H822 H 0.60937 0.94891 0.65773 0.0
H823 H 0.52348 0.96233 0.69534 0.0
H824 H 0.54971 0.89587 0.70522 0.0
C825 C 0.11731 0.51465 0.63095 0.0
C826 C 0.12432 0.49487 0.62158 0.0
N827 N 0.10773 0.4868 0.60864 0.0
N828 N 0.09637 0.51891 0.62408 0.0
C829 C 0.09101 0.50179 0.61052 0.0
H830 H 0.12704 0.52556 0.64153 0.0
Co831 Co 0.08028 0.54458 0.62918 0.0
C832 C 0.03238 0.53003 0.63183 0.0
O833 O 0.02829 0.545 0.64733 0.0
N834 N 0.06427 0.5714 0.6336 0.0
C835 C 0.04851 0.60289 0.64564 0.0
C836 C 0.06565 0.58798 0.64892 0.0
C837 C 0.04719 0.57768 0.62035 0.0
N838 N 0.03665 0.59604 0.62788 0.0
O839 O 0.08252 0.55177 0.59851 0.0
H840 H 0.07785 0.58937 0.66202 0.0
H841 H 0.04181 0.56811 0.60601 0.0
O842 O 0.05208 0.52806 0.62369 0.0
C843 C 0.09873 0.56478 0.59426 0.0
O844 O 0.1121 0.5706 0.61065 0.0
N845 N 0.07958 0.53794 0.65966 0.0
C846 C 0.07318 0.53982 0.70512 0.0
C847 C 0.06292 0.52294 0.69265 0.0
C848 C 0.06679 0.52197 0.66969 0.0
C849 C 0.09315 0.5511 0.67222 0.0
C850 C 0.08964 0.55298 0.6951 0.0
H851 H 0.05848 0.50927 0.66001 0.0
H852 H 0.10503 0.56199 0.66408 0.0
H853 H 0.07522 0.5006 0.6019 0.0
H854 H 0.14064 0.48745 0.6237 0.0
H855 H 0.04448 0.61698 0.6562 0.0
H856 H 0.05084 0.5118 0.70018 0.0
H857 H 0.09856 0.56554 0.70455 0.0
C858 C 0.49113 0.11038 0.63779 0.0
C859 C 0.51027 0.11742 0.62722 0.0
N860 N 0.51112 0.10777 0.60694 0.0
N861 N 0.48005 0.09611 0.62431 0.0
C862 C 0.49237 0.09546 0.60542 0.0
H863 H 0.48622 0.11499 0.65448 0.0
Co864 Co 0.45387 0.07967 0.62874 0.0
C865 C 0.48841 0.04459 0.61876 0.0
O866 O 0.50417 0.05608 0.62878 0.0
N867 N 0.42763 0.06372 0.63263 0.0
C868 C 0.39668 0.04844 0.6462 0.0
C869 C 0.41191 0.06549 0.64869 0.0
C870 C 0.42118 0.04621 0.62017 0.0
N871 N 0.40267 0.03639 0.62822 0.0
O872 O 0.44488 0.08644 0.59921 0.0
H873 H 0.41181 0.07793 0.66175 0.0
H874 H 0.43036 0.04027 0.60581 0.0
O875 O 0.46856 0.0524 0.61784 0.0
C876 C 0.43014 0.10152 0.59693 0.0
O877 O 0.42325 0.11237 0.61471 0.0
N878 N 0.46118 0.07333 0.65856 0.0
C879 C 0.45363 0.06338 0.70323 0.0
C880 C 0.46204 0.04711 0.68884 0.0
C881 C 0.46519 0.05225 0.66641 0.0
C882 C 0.45459 0.08978 0.67284 0.0
C883 C 0.45063 0.08515 0.69532 0.0
H884 H 0.46823 0.03844 0.65541 0.0
H885 H 0.4499 0.10592 0.66627 0.0
H886 H 0.48813 0.08522 0.59116 0.0
H887 H 0.52314 0.12786 0.63441 0.0
H888 H 0.38253 0.04502 0.65689 0.0
H889 H 0.46392 0.02998 0.69434 0.0
H890 H 0.4438 0.09803 0.70602 0.0
C891 C 0.8817 0.4864 0.63456 0.0
C892 C 0.87612 0.50685 0.62566 0.0
N893 N 0.89108 0.51194 0.60962 0.0
N894 N 0.90016 0.47878 0.62424 0.0
C895 C 0.90539 0.49458 0.60912 0.0
H896 H 0.8728 0.47756 0.64754 0.0
Co897 Co 0.9146 0.45186 0.62796 0.0
C898 C 0.96322 0.46439 0.63054 0.0
O899 O 0.96714 0.44873 0.64538 0.0
N900 N 0.92912 0.42399 0.63096 0.0
C901 C 0.94338 0.39149 0.64213 0.0
C902 C 0.92658 0.40678 0.64539 0.0
C903 C 0.94641 0.41766 0.61799 0.0
N904 N 0.95605 0.39863 0.62507 0.0
O905 O 0.91174 0.44614 0.59696 0.0
H906 H 0.91381 0.40519 0.65792 0.0
H907 H 0.95302 0.42794 0.6047 0.0
O908 O 0.94347 0.46718 0.62278 0.0
C909 C 0.89304 0.43853 0.59039 0.0
O910 O 0.87676 0.43647 0.60495 0.0
N911 N 0.91611 0.45709 0.65876 0.0
C912 C 0.92296 0.45389 0.70414 0.0
C913 C 0.93365 0.47068 0.69192 0.0
C914 C 0.92958 0.47233 0.66906 0.0
C915 C 0.90231 0.44403 0.67118 0.0
C916 C 0.90605 0.44144 0.69396 0.0
H917 H 0.9381 0.48507 0.65963 0.0
H918 H 0.88975 0.43398 0.66297 0.0
H919 H 0.91911 0.49299 0.59749 0.0
H920 H 0.8622 0.51717 0.63073 0.0
H921 H 0.94641 0.37665 0.65198 0.0
H922 H 0.94607 0.48134 0.6996 0.0
H923 H 0.89671 0.42905 0.70325 0.0
C924 C 0.50273 0.11141 0.35932 0.0
C925 C 0.48387 0.11886 0.3701 0.0
N926 N 0.48299 0.10915 0.39035 0.0
N927 N 0.5136 0.09683 0.37262 0.0
C928 C 0.50145 0.09637 0.39162 0.0
H929 H 0.50763 0.11599 0.34262 0.0
Co930 Co 0.53949 0.08013 0.36766 0.0
C931 C 0.50459 0.04508 0.37764 0.0
O932 O 0.48829 0.05712 0.36929 0.0
N933 N 0.56552 0.06398 0.36324 0.0
C934 C 0.59643 0.04868 0.34955 0.0
C935 C 0.58123 0.06577 0.34717 0.0
C936 C 0.57196 0.04641 0.37562 0.0
N937 N 0.59046 0.03663 0.36752 0.0
O938 O 0.54853 0.0854 0.39742 0.0
H939 H 0.58149 0.07835 0.33427 0.0
H940 H 0.56285 0.04045 0.39003 0.0
O941 O 0.52453 0.05269 0.37756 0.0
C942 C 0.5607 0.10222 0.40172 0.0
O943 O 0.56482 0.11675 0.38583 0.0
N944 N 0.53206 0.07506 0.33762 0.0
C945 C 0.53996 0.06577 0.29273 0.0
C946 C 0.52985 0.0499 0.30657 0.0
C947 C 0.52656 0.05463 0.32905 0.0
C948 C 0.53966 0.0915 0.32387 0.0
C949 C 0.54383 0.08722 0.30135 0.0
H950 H 0.52188 0.04087 0.33948 0.0
H951 H 0.54507 0.1072 0.33097 0.0
H952 H 0.5056 0.08597 0.40579 0.0
H953 H 0.4712 0.12964 0.36307 0.0
H954 H 0.61064 0.0453 0.33892 0.0
H955 H 0.52607 0.03328 0.30054 0.0
H956 H 0.55188 0.1 0.29145 0.0
C957 C 0.88524 0.50472 0.36004 0.0
C958 C 0.88167 0.48376 0.36869 0.0
N959 N 0.89743 0.4797 0.38427 0.0
N960 N 0.90324 0.51371 0.37001 0.0
C961 C 0.91023 0.4982 0.38473 0.0
H962 H 0.87533 0.51292 0.34737 0.0
Co963 Co 0.91512 0.54166 0.36559 0.0
C964 C 0.96391 0.53378 0.36067 0.0
O965 O 0.96464 0.54977 0.34565 0.0
N966 N 0.92704 0.57068 0.36188 0.0
C967 C 0.9382 0.60457 0.35123 0.0
C968 C 0.92345 0.58746 0.34713 0.0
C969 C 0.94293 0.57884 0.37559 0.0
N970 N 0.95044 0.59896 0.36912 0.0
O971 O 0.91226 0.54778 0.39653 0.0
H972 H 0.91126 0.58764 0.33394 0.0
H973 H 0.95011 0.56938 0.38921 0.0
O974 O 0.9454 0.52921 0.37033 0.0
C975 C 0.89502 0.55929 0.40106 0.0
O976 O 0.88074 0.56351 0.38495 0.0
N977 N 0.91655 0.53592 0.33476 0.0
C978 C 0.92469 0.54054 0.28976 0.0
C979 C 0.93588 0.52402 0.30198 0.0
C980 C 0.93092 0.52144 0.32459 0.0
C981 C 0.90204 0.54795 0.32214 0.0
C982 C 0.90623 0.55111 0.2995 0.0
H983 H 0.93992 0.50909 0.33413 0.0
H984 H 0.88871 0.55711 0.33015 0.0
H985 H 0.92414 0.50073 0.39597 0.0
H986 H 0.86856 0.47238 0.36373 0.0
H987 H 0.94015 0.61968 0.34153 0.0
H988 H 0.94946 0.51454 0.29474 0.0
H989 H 0.89622 0.56293 0.29018 0.0
C990 C 0.49132 0.88399 0.35934 0.0
C991 C 0.51028 0.87688 0.37019 0.0
N992 N 0.51119 0.88702 0.39023 0.0
N993 N 0.48042 0.89877 0.3724 0.0
C994 C 0.49266 0.8997 0.39132 0.0
H995 H 0.48639 0.87902 0.34276 0.0
Co996 Co 0.45444 0.91536 0.36744 0.0
C997 C 0.48934 0.95045 0.37664 0.0
O998 O 0.50526 0.93855 0.36737 0.0
N999 N 0.42841 0.93148 0.3631 0.0
C1000 C 0.39767 0.94715 0.34948 0.0
C1001 C 0.41274 0.92994 0.34696 0.0
C1002 C 0.42209 0.949 0.37561 0.0
N1003 N 0.40372 0.95904 0.36756 0.0
O1004 O 0.44542 0.90999 0.3972 0.0
H1005 H 0.41253 0.91755 0.33387 0.0
H1006 H 0.43129 0.9548 0.39002 0.0
O1007 O 0.46943 0.9428 0.37734 0.0
C1008 C 0.4331 0.89322 0.40123 0.0
O1009 O 0.429 0.87889 0.38513 0.0
N1010 N 0.46178 0.92047 0.33739 0.0
C1011 C 0.45436 0.9291 0.29241 0.0
C1012 C 0.46331 0.94558 0.30622 0.0
C1013 C 0.46643 0.94112 0.3288 0.0
C1014 C 0.45474 0.90372 0.32368 0.0
C1015 C 0.45082 0.9077 0.30106 0.0
H1016 H 0.47001 0.95518 0.3393 0.0
H1017 H 0.4497 0.88792 0.3308 0.0
H1018 H 0.4885 0.91034 0.40531 0.0
H1019 H 0.52298 0.86601 0.36334 0.0
H1020 H 0.38358 0.95076 0.33878 0.0
H1021 H 0.46568 0.96246 0.30016 0.0
H1022 H 0.44362 0.89465 0.29082 0.0
C1023 C 0.11418 0.48173 0.3642 0.0
C1024 C 0.11986 0.5016 0.37424 0.0
N1025 N 0.10342 0.50733 0.38854 0.0
N1026 N 0.09418 0.47513 0.372 0.0
C1027 C 0.08816 0.49086 0.3869 0.0
H1028 H 0.12387 0.47277 0.35189 0.0
Co1029 Co 0.07849 0.44978 0.36453 0.0
C1030 C 0.03167 0.46584 0.35772 0.0
O1031 O 0.02943 0.45231 0.3406 0.0
N1032 N 0.06264 0.42345 0.35754 0.0
C1033 C 0.05006 0.39086 0.34463 0.0
C1034 C 0.06691 0.4064 0.34332 0.0
C1035 C 0.0438 0.41711 0.36809 0.0
N1036 N 0.03537 0.39793 0.36002 0.0
O1037 O 0.07827 0.44103 0.39504 0.0
H1038 H 0.08151 0.40463 0.33299 0.0
H1039 H 0.03643 0.42641 0.38172 0.0
O1040 O 0.05011 0.46647 0.36853 0.0
C1041 C 0.09383 0.42715 0.39907 0.0
O1042 O 0.10758 0.42188 0.3828 0.0
N1043 N 0.08037 0.45769 0.33429 0.0
C1044 C 0.07394 0.45459 0.28901 0.0
C1045 C 0.06435 0.47234 0.30093 0.0
C1046 C 0.06858 0.47409 0.3238 0.0
C1047 C 0.09416 0.44438 0.32217 0.0
C1048 C 0.09082 0.44208 0.2993 0.0
H1049 H 0.06069 0.48723 0.33324 0.0
H1050 H 0.10584 0.43354 0.33064 0.0
H1051 H 0.07294 0.49003 0.39656 0.0
H1052 H 0.13475 0.51123 0.37086 0.0
H1053 H 0.04881 0.37554 0.33514 0.0
H1054 H 0.05221 0.48334 0.29331 0.0
H1055 H 0.09982 0.42926 0.29028 0.0
C1056 C 0.631 0.51382 0.87883 0.0
C1057 C 0.62241 0.49366 0.87198 0.0
N1058 N 0.60915 0.48564 0.88834 0.0
N1059 N 0.62332 0.51839 0.89943 0.0
C1060 C 0.61008 0.50103 0.90479 0.0
H1061 H 0.64156 0.5248 0.86916 0.0
Co1062 Co 0.62715 0.54463 0.91499 0.0
C1063 C 0.63445 0.53086 0.96221 0.0
O1064 O 0.64995 0.54631 0.96371 0.0
N1065 N 0.63028 0.57195 0.93053 0.0
C1066 C 0.64092 0.6044 0.94537 0.0
C1067 C 0.64409 0.58967 0.92803 0.0
C1068 C 0.61786 0.57729 0.94857 0.0
N1069 N 0.62455 0.59637 0.95839 0.0
O1070 O 0.59592 0.54983 0.91364 0.0
H1071 H 0.65603 0.59205 0.91482 0.0
H1072 H 0.60512 0.56643 0.95535 0.0
O1073 O 0.62377 0.52827 0.94382 0.0
C1074 C 0.58931 0.55809 0.89521 0.0
O1075 O 0.60395 0.5611 0.87916 0.0
N1076 N 0.65813 0.53992 0.91461 0.0
C1077 C 0.70376 0.54354 0.91957 0.0
C1078 C 0.69224 0.52589 0.92972 0.0
C1079 C 0.66931 0.52384 0.92625 0.0
C1080 C 0.66967 0.5539 0.90096 0.0
C1081 C 0.69261 0.55652 0.90362 0.0
H1082 H 0.66048 0.51029 0.93417 0.0
H1083 H 0.66072 0.56454 0.88944 0.0
H1084 H 0.601 0.50001 0.92034 0.0
H1085 H 0.62518 0.48597 0.85588 0.0
H1086 H 0.65019 0.61961 0.94834 0.0
H1087 H 0.70062 0.51454 0.94103 0.0
H1088 H 0.70104 0.56974 0.89464 0.0
C1089 C 0.48472 0.63258 0.88388 0.0
C1090 C 0.50243 0.62063 0.87537 0.0
N1091 N 0.50485 0.60182 0.88752 0.0
N1092 N 0.47621 0.62147 0.9015 0.0
C1093 C 0.48814 0.6024 0.90257 0.0
H1094 H 0.47952 0.64901 0.87853 0.0
Co1095 Co 0.45539 0.63042 0.92301 0.0
C1096 C 0.49808 0.62551 0.94911 0.0
O1097 O 0.51053 0.63027 0.93169 0.0
N1098 N 0.43468 0.63912 0.94486 0.0
C1099 C 0.42103 0.65402 0.97597 0.0
C1100 C 0.43848 0.65406 0.96134 0.0
C1101 C 0.41469 0.63009 0.95008 0.0
N1102 N 0.40616 0.63867 0.96915 0.0
O1103 O 0.44526 0.60027 0.92524 0.0
H1104 H 0.45384 0.66297 0.96405 0.0
H1105 H 0.4073 0.61634 0.94104 0.0
O1106 O 0.47683 0.62545 0.94729 0.0
C1107 C 0.43317 0.59555 0.90838 0.0
O1108 O 0.42984 0.61105 0.89321 0.0
N1109 N 0.46318 0.66046 0.91924 0.0
C1110 C 0.45514 0.70574 0.92356 0.0
C1111 C 0.47425 0.69619 0.93317 0.0
C1112 C 0.47816 0.67336 0.9306 0.0
C1113 C 0.44681 0.67014 0.90683 0.0
C1114 C 0.44248 0.69286 0.9087 0.0
H1115 H 0.49127 0.66618 0.94041 0.0
H1116 H 0.43536 0.65971 0.89755 0.0
H1117 H 0.48592 0.59018 0.91567 0.0
H1118 H 0.51383 0.62638 0.8626 0.0
H1119 H 0.42065 0.66271 0.99181 0.0
H1120 H 0.48468 0.70555 0.94458 0.0
H1121 H 0.42815 0.69979 0.90014 0.0
C1122 C 0.36271 0.48749 0.88373 0.0
C1123 C 0.37177 0.50825 0.87997 0.0
N1124 N 0.38584 0.51309 0.8969 0.0
N1125 N 0.37088 0.4794 0.90302 0.0
C1126 C 0.38501 0.49522 0.91057 0.0
H1127 H 0.35083 0.47891 0.8732 0.0
Co1128 Co 0.36449 0.45235 0.91617 0.0
C1129 C 0.35521 0.46393 0.96353 0.0
O1130 O 0.33878 0.44939 0.96364 0.0
N1131 N 0.35873 0.42439 0.92953 0.0
C1132 C 0.34726 0.39061 0.94027 0.0
C1133 C 0.34531 0.40698 0.92424 0.0
C1134 C 0.36954 0.41746 0.94802 0.0
N1135 N 0.36225 0.39756 0.95541 0.0
O1136 O 0.39535 0.44511 0.91649 0.0
H1137 H 0.33489 0.40567 0.90966 0.0
H1138 H 0.38255 0.42703 0.9561 0.0
O1139 O 0.36701 0.46655 0.9459 0.0
C1140 C 0.40176 0.43574 0.89855 0.0
O1141 O 0.3875 0.43402 0.88196 0.0
N1142 N 0.33388 0.45902 0.91441 0.0
C1143 C 0.2882 0.45661 0.91899 0.0
C1144 C 0.30013 0.47367 0.92969 0.0
C1145 C 0.32314 0.47512 0.92644 0.0
C1146 C 0.32204 0.44608 0.90003 0.0
C1147 C 0.29902 0.44404 0.90247 0.0
H1148 H 0.3324 0.48794 0.93509 0.0
H1149 H 0.33074 0.43568 0.88811 0.0
H1150 H 0.39473 0.49342 0.92567 0.0
H1151 H 0.36794 0.519 0.86599 0.0
H1152 H 0.33828 0.37495 0.94081 0.0
H1153 H 0.29207 0.48476 0.94147 0.0
H1154 H 0.2903 0.43135 0.893 0.0
C1155 C 0.50788 0.36026 0.88222 0.0
C1156 C 0.4871 0.36898 0.87786 0.0
N1157 N 0.48269 0.38485 0.89322 0.0
N1158 N 0.51641 0.37045 0.90033 0.0
C1159 C 0.50077 0.38536 0.90665 0.0
H1160 H 0.5164 0.34759 0.87259 0.0
Co1161 Co 0.54462 0.36658 0.9119 0.0
C1162 C 0.53914 0.36321 0.96087 0.0
O1163 O 0.55403 0.3471 0.96086 0.0
N1164 N 0.574 0.3635 0.92343 0.0
C1165 C 0.60686 0.35219 0.93673 0.0
C1166 C 0.59033 0.348 0.92133 0.0
C1167 C 0.58209 0.37781 0.93886 0.0
N1168 N 0.60139 0.37083 0.94793 0.0
O1169 O 0.55035 0.39744 0.90805 0.0
H1170 H 0.59024 0.33384 0.91029 0.0
H1171 H 0.57264 0.39185 0.94522 0.0
O1172 O 0.53313 0.37232 0.94245 0.0
C1173 C 0.56208 0.40227 0.89105 0.0
O1174 O 0.56737 0.38626 0.87701 0.0
N1175 N 0.53906 0.33586 0.91442 0.0
C1176 C 0.54152 0.2905 0.92233 0.0
C1177 C 0.52586 0.3036 0.9338 0.0
C1178 C 0.52439 0.32633 0.92903 0.0
C1179 C 0.55067 0.32273 0.90002 0.0
C1180 C 0.55275 0.29994 0.90407 0.0
H1181 H 0.51255 0.3364 0.93815 0.0
H1182 H 0.56016 0.33034 0.88668 0.0
H1183 H 0.50301 0.39693 0.92034 0.0
H1184 H 0.47617 0.36401 0.86438 0.0
H1185 H 0.6211 0.34166 0.94028 0.0
H1186 H 0.5157 0.29661 0.94701 0.0
H1187 H 0.56441 0.29036 0.89413 0.0
C1188 C 0.63306 0.48398 0.11331 0.0
C1189 C 0.6242 0.50417 0.11982 0.0
N1190 N 0.60812 0.50991 0.10514 0.0
N1191 N 0.62271 0.4772 0.09454 0.0
C1192 C 0.60763 0.49323 0.09003 0.0
H1193 H 0.64592 0.47466 0.12189 0.0
Co1194 Co 0.62583 0.45063 0.07934 0.0
C1195 C 0.63287 0.4645 0.0319 0.0
O1196 O 0.64834 0.44905 0.03003 0.0
N1197 N 0.62816 0.4231 0.06404 0.0
C1198 C 0.63804 0.39006 0.0501 0.0
C1199 C 0.64071 0.40466 0.06761 0.0
C1200 C 0.61669 0.41827 0.04526 0.0
N1201 N 0.62325 0.39897 0.03577 0.0
O1202 O 0.59459 0.446 0.08116 0.0
H1203 H 0.65154 0.40177 0.08165 0.0
H1204 H 0.60443 0.42937 0.03802 0.0
O1205 O 0.62245 0.46698 0.05046 0.0
C1206 C 0.58813 0.43851 0.09996 0.0
O1207 O 0.60294 0.43593 0.11594 0.0
N1208 N 0.65693 0.45463 0.07921 0.0
C1209 C 0.70212 0.44933 0.07232 0.0
C1210 C 0.69091 0.46766 0.06299 0.0
C1211 C 0.66823 0.47052 0.06745 0.0
C1212 C 0.66847 0.44021 0.09237 0.0
C1213 C 0.69116 0.43678 0.08877 0.0
H1214 H 0.65955 0.48444 0.06001 0.0
H1215 H 0.65966 0.43003 0.10438 0.0
H1216 H 0.59595 0.49217 0.0763 0.0
H1217 H 0.62927 0.51379 0.13424 0.0
H1218 H 0.64715 0.37466 0.04759 0.0
H1219 H 0.69898 0.47867 0.05116 0.0
H1220 H 0.69964 0.42359 0.09775 0.0
C1221 C 0.50707 0.63576 0.11476 0.0
C1222 C 0.48617 0.62726 0.11901 0.0
N1223 N 0.48154 0.61163 0.10345 0.0
N1224 N 0.51546 0.62567 0.09652 0.0
C1225 C 0.49961 0.61107 0.09002 0.0
H1226 H 0.51578 0.64818 0.12454 0.0
Co1227 Co 0.54365 0.62884 0.08463 0.0
C1228 C 0.53739 0.63519 0.03615 0.0
O1229 O 0.55255 0.65102 0.03714 0.0
N1230 N 0.57292 0.63098 0.07247 0.0
C1231 C 0.60537 0.64102 0.05727 0.0
C1232 C 0.59002 0.64569 0.07376 0.0
C1233 C 0.57942 0.61662 0.05635 0.0
N1234 N 0.59826 0.623 0.0459 0.0
O1235 O 0.5481 0.5977 0.08708 0.0
H1236 H 0.59112 0.6598 0.08482 0.0
H1237 H 0.56921 0.60276 0.05098 0.0
O1238 O 0.53143 0.62496 0.054 0.0
C1239 C 0.55734 0.59095 0.10493 0.0
O1240 O 0.5605 0.60525 0.12126 0.0
N1241 N 0.53939 0.65986 0.08351 0.0
C1242 C 0.54325 0.70519 0.07631 0.0
C1243 C 0.52627 0.69304 0.06573 0.0
C1244 C 0.52414 0.6703 0.07018 0.0
C1245 C 0.55246 0.67216 0.09738 0.0
C1246 C 0.55524 0.69494 0.09362 0.0
H1247 H 0.51139 0.66088 0.0616 0.0
H1248 H 0.56247 0.66387 0.10991 0.0
H1249 H 0.50173 0.59962 0.07621 0.0
H1250 H 0.47532 0.63216 0.13258 0.0
H1251 H 0.61959 0.65125 0.0529 0.0
H1252 H 0.51561 0.70072 0.05332 0.0
H1253 H 0.56792 0.70386 0.10291 0.0
C1254 C 0.36271 0.50781 0.1125 0.0
C1255 C 0.37168 0.48703 0.1163 0.0
N1256 N 0.38568 0.48206 0.09934 0.0
N1257 N 0.37085 0.51581 0.09317 0.0
C1258 C 0.3849 0.49992 0.08564 0.0
H1259 H 0.35082 0.51645 0.123 0.0
Co1260 Co 0.36422 0.54271 0.07979 0.0
C1261 C 0.35523 0.53077 0.03248 0.0
O1262 O 0.33867 0.54516 0.03229 0.0
N1263 N 0.35819 0.57051 0.06619 0.0
C1264 C 0.34612 0.60387 0.05484 0.0
C1265 C 0.34435 0.5877 0.07108 0.0
C1266 C 0.36906 0.57742 0.04773 0.0
N1267 N 0.36142 0.59703 0.03995 0.0
O1268 O 0.39498 0.55035 0.07967 0.0
H1269 H 0.33369 0.58897 0.0855 0.0
H1270 H 0.38232 0.56797 0.03989 0.0
O1271 O 0.36705 0.52835 0.05013 0.0
C1272 C 0.40098 0.56011 0.09754 0.0
O1273 O 0.38648 0.56185 0.11391 0.0
N1274 N 0.3337 0.53564 0.08142 0.0
C1275 C 0.2881 0.53759 0.07629 0.0
C1276 C 0.30029 0.52054 0.06588 0.0
C1277 C 0.32326 0.51931 0.06944 0.0
C1278 C 0.32158 0.54855 0.09561 0.0
C1279 C 0.29858 0.55034 0.09289 0.0
H1280 H 0.33275 0.50652 0.061 0.0
H1281 H 0.33005 0.55914 0.10751 0.0
H1282 H 0.39453 0.50161 0.07047 0.0
H1283 H 0.36778 0.47631 0.13029 0.0
H1284 H 0.33675 0.61929 0.05395 0.0
H1285 H 0.29247 0.50933 0.05404 0.0
H1286 H 0.28962 0.56302 0.10215 0.0
C1287 C 0.48497 0.36318 0.1121 0.0
C1288 C 0.50227 0.37557 0.12081 0.0
N1289 N 0.50404 0.39465 0.10899 0.0
N1290 N 0.47608 0.3743 0.09468 0.0
C1291 C 0.48731 0.3938 0.09398 0.0
H1292 H 0.4804 0.34646 0.11711 0.0
Co1293 Co 0.45582 0.36497 0.07283 0.0
C1294 C 0.49862 0.37193 0.04708 0.0
O1295 O 0.51126 0.36771 0.06449 0.0
N1296 N 0.43566 0.35587 0.05068 0.0
C1297 C 0.42276 0.34087 0.0193 0.0
C1298 C 0.43998 0.34104 0.03423 0.0
C1299 C 0.41559 0.36455 0.0452 0.0
N1300 N 0.40752 0.35592 0.02595 0.0
O1301 O 0.44484 0.39484 0.07077 0.0
H1302 H 0.4555 0.33231 0.03182 0.0
H1303 H 0.40779 0.37808 0.05422 0.0
O1304 O 0.47738 0.37087 0.04884 0.0
C1305 C 0.43249 0.39929 0.08751 0.0
O1306 O 0.42924 0.38369 0.10258 0.0
N1307 N 0.46452 0.3352 0.07638 0.0
C1308 C 0.45926 0.28952 0.07256 0.0
C1309 C 0.47792 0.30002 0.06315 0.0
C1310 C 0.48045 0.32306 0.06546 0.0
C1311 C 0.44825 0.32478 0.08831 0.0
C1312 C 0.44524 0.30184 0.08661 0.0
H1313 H 0.49348 0.3309 0.05605 0.0
H1314 H 0.43593 0.33469 0.09704 0.0
H1315 H 0.4847 0.40613 0.08107 0.0
H1316 H 0.51395 0.36992 0.13337 0.0
H1317 H 0.42277 0.3322 0.00343 0.0
H1318 H 0.48932 0.29085 0.05253 0.0
H1319 H 0.43069 0.29434 0.09427 0.0
C1320 C 0.87898 0.63189 0.50988 0.0
C1321 C 0.87308 0.62259 0.48975 0.0
N1322 N 0.89005 0.60957 0.4826 0.0
N1323 N 0.89959 0.62491 0.51535 0.0
C1324 C 0.90591 0.61137 0.49854 0.0
H1325 H 0.86863 0.64241 0.52028 0.0
Co1326 Co 0.91364 0.6298 0.54219 0.0
C1327 C 0.96166 0.63647 0.53123 0.0
O1328 O 0.96245 0.65185 0.54688 0.0
N1329 N 0.92747 0.63391 0.57022 0.0
C1330 C 0.94007 0.64445 0.60365 0.0
C1331 C 0.92429 0.64828 0.5874 0.0
C1332 C 0.9443 0.62071 0.57725 0.0
N1333 N 0.95265 0.62712 0.59707 0.0
O1334 O 0.91231 0.59883 0.54848 0.0
H1335 H 0.91154 0.66088 0.58852 0.0
H1336 H 0.95127 0.60737 0.56726 0.0
O1337 O 0.94332 0.62602 0.52761 0.0
C1338 C 0.8946 0.59275 0.55846 0.0
O1339 O 0.87851 0.60739 0.56122 0.0
N1340 N 0.91354 0.66061 0.53638 0.0
C1341 C 0.92113 0.70574 0.54087 0.0
C1342 C 0.93137 0.69381 0.52349 0.0
C1343 C 0.92661 0.67115 0.52099 0.0
C1344 C 0.8996 0.67285 0.54943 0.0
C1345 C 0.90349 0.69557 0.55243 0.0
H1346 H 0.93498 0.66186 0.50802 0.0
H1347 H 0.8871 0.66451 0.55943 0.0
H1348 H 0.92168 0.60262 0.49837 0.0
H1349 H 0.85715 0.6247 0.48153 0.0
H1350 H 0.94225 0.65379 0.61897 0.0
H1351 H 0.94425 0.70122 0.51321 0.0
H1352 H 0.89398 0.70461 0.56488 0.0
C1353 C 0.88237 0.36223 0.48662 0.0
C1354 C 0.87387 0.37427 0.50429 0.0
N1355 N 0.88617 0.39296 0.50676 0.0
N1356 N 0.90013 0.37319 0.47819 0.0
C1357 C 0.90135 0.39221 0.49018 0.0
H1358 H 0.87682 0.34591 0.48133 0.0
Co1359 Co 0.92142 0.36427 0.45712 0.0
C1360 C 0.94773 0.3686 0.49966 0.0
O1361 O 0.93038 0.36322 0.51194 0.0
N1362 N 0.94294 0.35562 0.43615 0.0
C1363 C 0.97395 0.34115 0.42187 0.0
C1364 C 0.95984 0.34112 0.43976 0.0
C1365 C 0.94735 0.36435 0.41584 0.0
N1366 N 0.96634 0.35604 0.40691 0.0
O1367 O 0.92365 0.39441 0.44706 0.0
H1368 H 0.96315 0.33256 0.45522 0.0
H1369 H 0.93781 0.37774 0.40842 0.0
O1370 O 0.94592 0.36915 0.47841 0.0
C1371 C 0.9068 0.39903 0.43493 0.0
O1372 O 0.89155 0.38356 0.43187 0.0
N1373 N 0.91762 0.33424 0.46476 0.0
C1374 C 0.9204 0.28893 0.45615 0.0
C1375 C 0.93129 0.29811 0.47476 0.0
C1376 C 0.92954 0.32096 0.47895 0.0
C1377 C 0.90428 0.32501 0.44886 0.0
C1378 C 0.90534 0.3023 0.44429 0.0
H1379 H 0.94029 0.32783 0.49151 0.0
H1380 H 0.89472 0.33577 0.43797 0.0
H1381 H 0.9145 0.40437 0.48794 0.0
H1382 H 0.8609 0.3687 0.51555 0.0
H1383 H 0.98997 0.33282 0.42116 0.0
H1384 H 0.94298 0.28836 0.4845 0.0
H1385 H 0.89593 0.29571 0.43033 0.0
C1386 C 0.63753 0.88194 0.48952 0.0
C1387 C 0.62915 0.87626 0.51016 0.0
N1388 N 0.61238 0.89044 0.51518 0.0
N1389 N 0.62622 0.89973 0.48173 0.0
C1390 C 0.61102 0.90443 0.49758 0.0
H1391 H 0.65081 0.87352 0.48067 0.0
Co1392 Co 0.62875 0.91374 0.45446 0.0
C1393 C 0.634 0.96206 0.46568 0.0
O1394 O 0.64882 0.96375 0.44959 0.0
N1395 N 0.63044 0.9277 0.42624 0.0
C1396 C 0.6386 0.94058 0.39229 0.0
C1397 C 0.64323 0.92438 0.4079 0.0
C1398 C 0.61713 0.94492 0.42051 0.0
N1399 N 0.62242 0.95375 0.40054 0.0
O1400 O 0.59753 0.91089 0.45002 0.0
H1401 H 0.6554 0.91136 0.40565 0.0
H1402 H 0.60428 0.95148 0.43136 0.0
O1403 O 0.62447 0.94325 0.46943 0.0
C1404 C 0.59176 0.89258 0.44095 0.0
O1405 O 0.60704 0.87718 0.43777 0.0
N1406 N 0.65985 0.91516 0.45827 0.0
C1407 C 0.70448 0.9241 0.45163 0.0
C1408 C 0.69317 0.93381 0.4697 0.0
C1409 C 0.6708 0.92838 0.47326 0.0
C1410 C 0.67179 0.90186 0.44431 0.0
C1411 C 0.69418 0.90646 0.44019 0.0
H1412 H 0.66197 0.93622 0.48687 0.0
H1413 H 0.66337 0.88905 0.43477 0.0
H1414 H 0.59872 0.91752 0.49578 0.0
H1415 H 0.63503 0.86275 0.52058 0.0
H1416 H 0.64717 0.94302 0.37658 0.0
H1417 H 0.70084 0.94663 0.47987 0.0
H1418 H 0.70286 0.89733 0.42722 0.0
C1419 C 0.11581 0.6301 0.48122 0.0
C1420 C 0.12212 0.62155 0.50159 0.0
N1421 N 0.10516 0.60911 0.50963 0.0
N1422 N 0.09495 0.6232 0.47658 0.0
C1423 C 0.08894 0.61042 0.49407 0.0
H1424 H 0.1259 0.64031 0.47028 0.0
Co1425 Co 0.07916 0.62814 0.45068 0.0
C1426 C 0.03218 0.63619 0.46579 0.0
O1427 O 0.03025 0.65233 0.45107 0.0
N1428 N 0.06332 0.63245 0.42381 0.0
C1429 C 0.04867 0.64384 0.39156 0.0
C1430 C 0.06633 0.64612 0.40606 0.0
C1431 C 0.04462 0.62102 0.41874 0.0
N1432 N 0.03482 0.6283 0.39988 0.0
O1433 O 0.07914 0.59705 0.44475 0.0
H1434 H 0.08014 0.65731 0.40351 0.0
H1435 H 0.03782 0.60802 0.42928 0.0
O1436 O 0.05061 0.62545 0.46754 0.0
C1437 C 0.09708 0.59038 0.43558 0.0
O1438 O 0.11347 0.6047 0.43286 0.0
N1439 N 0.08082 0.65893 0.45589 0.0
C1440 C 0.07628 0.70444 0.45135 0.0
C1441 C 0.06625 0.69344 0.46944 0.0
C1442 C 0.06947 0.6705 0.47188 0.0
C1443 C 0.09468 0.67002 0.44178 0.0
C1444 C 0.09227 0.69291 0.43874 0.0
H1445 H 0.06143 0.66192 0.48551 0.0
H1446 H 0.10598 0.66072 0.4312 0.0
H1447 H 0.07295 0.60214 0.49525 0.0
H1448 H 0.13816 0.62393 0.50954 0.0
H1449 H 0.04588 0.65349 0.37654 0.0
H1450 H 0.05471 0.70195 0.48044 0.0
H1451 H 0.10158 0.70114 0.4256 0.0
C1452 C 0.35791 0.11571 0.4877 0.0
C1453 C 0.36605 0.12201 0.50827 0.0
N1454 N 0.3812 0.10673 0.51487 0.0
N1455 N 0.36774 0.09646 0.48157 0.0
C1456 C 0.38181 0.09143 0.49835 0.0
H1457 H 0.34613 0.12489 0.47757 0.0
Co1458 Co 0.36548 0.08201 0.45454 0.0
C1459 C 0.36472 0.03298 0.46604 0.0
O1460 O 0.35099 0.02872 0.44948 0.0
N1461 N 0.36394 0.06784 0.42645 0.0
C1462 C 0.35495 0.05432 0.39298 0.0
C1463 C 0.35002 0.07019 0.40882 0.0
C1464 C 0.37818 0.05164 0.42 0.0
N1465 N 0.37243 0.04235 0.40035 0.0
O1466 O 0.39651 0.08598 0.44987 0.0
H1467 H 0.33675 0.08221 0.40731 0.0
H1468 H 0.39184 0.04586 0.43028 0.0
O1469 O 0.37126 0.05305 0.46969 0.0
C1470 C 0.40212 0.1042 0.44057 0.0
O1471 O 0.38669 0.11937 0.43696 0.0
N1472 N 0.33461 0.07927 0.4587 0.0
C1473 C 0.29005 0.06988 0.45194 0.0
C1474 C 0.30189 0.05889 0.46887 0.0
C1475 C 0.32422 0.06437 0.47245 0.0
C1476 C 0.32221 0.09321 0.44579 0.0
C1477 C 0.29986 0.08846 0.44164 0.0
H1478 H 0.3333 0.05564 0.4853 0.0
H1479 H 0.33031 0.10661 0.4368 0.0
H1480 H 0.39259 0.07696 0.49821 0.0
H1481 H 0.36166 0.13706 0.51724 0.0
H1482 H 0.34561 0.05108 0.37787 0.0
H1483 H 0.29458 0.04518 0.4781 0.0
H1484 H 0.29082 0.09827 0.42945 0.0
C1485 C 0.11529 0.36201 0.51153 0.0
C1486 C 0.11948 0.36923 0.49015 0.0
N1487 N 0.10213 0.38191 0.48334 0.0
N1488 N 0.09537 0.36997 0.51812 0.0
C1489 C 0.08777 0.38206 0.50073 0.0
H1490 H 0.12628 0.3521 0.52187 0.0
Co1491 Co 0.08327 0.36715 0.5462 0.0
C1492 C 0.03467 0.36109 0.53992 0.0
O1493 O 0.03567 0.3454 0.55522 0.0
N1494 N 0.07106 0.36528 0.57546 0.0
C1495 C 0.05568 0.35528 0.60782 0.0
C1496 C 0.07226 0.35059 0.59259 0.0
C1497 C 0.05499 0.37971 0.58187 0.0
N1498 N 0.04438 0.3733 0.60061 0.0
O1499 O 0.0864 0.39835 0.55052 0.0
H1500 H 0.08327 0.33646 0.59375 0.0
H1501 H 0.04972 0.39357 0.5716 0.0
O1502 O 0.05255 0.37129 0.53391 0.0
C1503 C 0.1038 0.40347 0.56154 0.0
O1504 O 0.11807 0.38758 0.56654 0.0
N1505 N 0.08179 0.33613 0.54206 0.0
C1506 C 0.07358 0.29104 0.54653 0.0
C1507 C 0.06328 0.3032 0.52935 0.0
C1508 C 0.06831 0.32579 0.52687 0.0
C1509 C 0.09551 0.32368 0.55515 0.0
C1510 C 0.09129 0.30101 0.55817 0.0
H1511 H 0.05987 0.33526 0.51407 0.0
H1512 H 0.1083 0.33181 0.56497 0.0
H1513 H 0.07214 0.39105 0.50101 0.0
H1514 H 0.13451 0.36595 0.48072 0.0
H1515 H 0.05113 0.345 0.62195 0.0
H1516 H 0.05027 0.29598 0.51912 0.0
H1517 H 0.1008 0.29181 0.57047 0.0
C1518 C 0.63704 0.11357 0.50836 0.0
C1519 C 0.6286 0.11937 0.48778 0.0
N1520 N 0.61215 0.10492 0.48251 0.0
N1521 N 0.62608 0.09545 0.51588 0.0
C1522 C 0.61102 0.09066 0.49992 0.0
H1523 H 0.65016 0.12211 0.51735 0.0
Co1524 Co 0.62904 0.08098 0.54289 0.0
C1525 C 0.63461 0.03296 0.53086 0.0
O1526 O 0.64978 0.03123 0.54661 0.0
N1527 N 0.63119 0.06651 0.5708 0.0
C1528 C 0.63976 0.05291 0.60437 0.0
C1529 C 0.64437 0.0693 0.58895 0.0
C1530 C 0.61781 0.0493 0.57642 0.0
N1531 N 0.62327 0.04011 0.59617 0.0
O1532 O 0.59783 0.08354 0.54769 0.0
H1533 H 0.6568 0.08207 0.59118 0.0
H1534 H 0.60473 0.04306 0.56565 0.0
O1535 O 0.62485 0.05173 0.52751 0.0
C1536 C 0.59212 0.10178 0.55694 0.0
O1537 O 0.60745 0.11713 0.56018 0.0
N1538 N 0.6601 0.07998 0.5387 0.0
C1539 C 0.70559 0.07372 0.54292 0.0
C1540 C 0.69387 0.06335 0.52552 0.0
C1541 C 0.67106 0.0674 0.52318 0.0
C1542 C 0.67194 0.09355 0.55252 0.0
C1543 C 0.69475 0.09027 0.55543 0.0
H1544 H 0.66211 0.05937 0.50976 0.0
H1545 H 0.66328 0.10571 0.56267 0.0
H1546 H 0.59901 0.07728 0.50147 0.0
H1547 H 0.63428 0.1331 0.47754 0.0
H1548 H 0.64851 0.05012 0.61992 0.0
H1549 H 0.70201 0.05156 0.51449 0.0
H1550 H 0.70333 0.09942 0.56845 0.0
C1551 C 0.35495 0.8819 0.50656 0.0
C1552 C 0.36342 0.8763 0.48591 0.0
N1553 N 0.38041 0.8903 0.48118 0.0
N1554 N 0.36646 0.89943 0.51465 0.0
C1555 C 0.38186 0.90405 0.49895 0.0
H1556 H 0.34145 0.8736 0.51519 0.0
Co1557 Co 0.36395 0.9135 0.54192 0.0
C1558 C 0.36329 0.96256 0.53071 0.0
O1559 O 0.34934 0.96677 0.5471 0.0
N1560 N 0.36217 0.92749 0.57008 0.0
C1561 C 0.35273 0.94158 0.6032 0.0
C1562 C 0.34778 0.92565 0.5874 0.0
C1563 C 0.37657 0.94349 0.57666 0.0
N1564 N 0.37061 0.95309 0.59609 0.0
O1565 O 0.39495 0.90952 0.54681 0.0
H1566 H 0.33408 0.91409 0.58862 0.0
H1567 H 0.39047 0.94899 0.56653 0.0
O1568 O 0.36982 0.94251 0.52706 0.0
C1569 C 0.40061 0.89115 0.55579 0.0
O1570 O 0.38525 0.87585 0.55905 0.0
N1571 N 0.3331 0.91615 0.53761 0.0
C1572 C 0.28767 0.92301 0.54224 0.0
C1573 C 0.29984 0.93504 0.52627 0.0
C1574 C 0.32261 0.93089 0.52377 0.0
C1575 C 0.32086 0.90165 0.55006 0.0
C1576 C 0.29809 0.9051 0.55311 0.0
H1577 H 0.33175 0.94016 0.51136 0.0
H1578 H 0.32924 0.88861 0.55933 0.0
H1579 H 0.39435 0.91693 0.50094 0.0
H1580 H 0.35741 0.86302 0.47526 0.0
H1581 H 0.34309 0.94525 0.61802 0.0
H1582 H 0.29205 0.94806 0.51645 0.0
H1583 H 0.28923 0.89489 0.56511 0.0
C1584 C 0.05749 0.46199 0.2511 0.0
C1585 C 0.06417 0.44688 0.26768 0.0
H1586 H 0.04371 0.46612 0.2184 0.0
C1587 C 0.06021 0.42395 0.26451 0.0
H1588 H 0.06019 0.47974 0.25317 0.0
C1589 C 0.05054 0.41618 0.24486 0.0
C1590 C 0.04456 0.43117 0.22793 0.0
H1591 H 0.06444 0.41193 0.27735 0.0
H1592 H 0.04799 0.3984 0.2428 0.0
C1593 C 0.04782 0.45419 0.23135 0.0
C1594 C 0.56726 0.03161 0.24686 0.0
C1595 C 0.56798 0.04702 0.22934 0.0
H1596 H 0.55853 0.02564 0.28082 0.0
C1597 C 0.55903 0.06846 0.23245 0.0
H1598 H 0.57405 0.01498 0.24475 0.0
C1599 C 0.54943 0.07442 0.2528 0.0
C1600 C 0.54887 0.05914 0.27056 0.0
H1601 H 0.559 0.08046 0.21892 0.0
H1602 H 0.54231 0.09094 0.25452 0.0
C1603 C 0.55805 0.03769 0.26737 0.0
C1604 C 0.94468 0.57999 0.24488 0.0
C1605 C 0.95163 0.56523 0.22808 0.0
H1606 H 0.93067 0.58365 0.27745 0.0
C1607 C 0.95025 0.54209 0.23193 0.0
H1608 H 0.9458 0.59788 0.24254 0.0
C1609 C 0.94149 0.53391 0.25193 0.0
C1610 C 0.93378 0.54873 0.26833 0.0
H1611 H 0.9551 0.53026 0.21915 0.0
H1612 H 0.94022 0.51604 0.25433 0.0
C1613 C 0.93582 0.57183 0.26477 0.0
C1614 C 0.45905 0.94658 0.25488 0.0
C1615 C 0.44555 0.93538 0.27033 0.0
H1616 H 0.46132 0.96144 0.22262 0.0
C1617 C 0.42292 0.93191 0.26545 0.0
H1618 H 0.47652 0.94959 0.25845 0.0
C1619 C 0.41393 0.93936 0.24529 0.0
C1620 C 0.4275 0.95013 0.22946 0.0
H1621 H 0.41206 0.92386 0.27745 0.0
H1622 H 0.39635 0.93664 0.24217 0.0
C1623 C 0.45019 0.95369 0.23455 0.0
C1624 C 0.05554 0.56702 0.73081 0.0
C1625 C 0.06465 0.54573 0.72734 0.0
H1626 H 0.03939 0.58922 0.75354 0.0
C1627 C 0.06464 0.53017 0.74472 0.0
H1628 H 0.05505 0.5791 0.71736 0.0
C1629 C 0.05613 0.53607 0.76559 0.0
C1630 C 0.04693 0.55745 0.76924 0.0
H1631 H 0.07157 0.51366 0.74227 0.0
H1632 H 0.05728 0.52398 0.77896 0.0
C1633 C 0.04659 0.57278 0.7515 0.0
C1634 C 0.42212 0.06017 0.73 0.0
C1635 C 0.44474 0.05666 0.72512 0.0
H1636 H 0.39558 0.05558 0.75333 0.0
C1637 C 0.4582 0.04527 0.74045 0.0
H1638 H 0.4113 0.06836 0.71805 0.0
C1639 C 0.44934 0.0382 0.7608 0.0
C1640 C 0.42671 0.04199 0.76599 0.0
H1641 H 0.47565 0.04221 0.73683 0.0
H1642 H 0.46048 0.03042 0.77271 0.0
C1643 C 0.41313 0.05274 0.75015 0.0
C1644 C 0.94009 0.45755 0.76458 0.0
C1645 C 0.9483 0.43583 0.76852 0.0
H1646 H 0.92572 0.48033 0.74098 0.0
C1647 C 0.94777 0.4202 0.75104 0.0
H1648 H 0.93957 0.4699 0.77775 0.0
C1649 C 0.93905 0.42607 0.73026 0.0
C1650 C 0.93105 0.44775 0.72647 0.0
H1651 H 0.95417 0.40346 0.75332 0.0
H1652 H 0.93892 0.41378 0.71699 0.0
C1653 C 0.93183 0.46352 0.74365 0.0
C1654 C 0.56459 0.96472 0.74921 0.0
C1655 C 0.56573 0.94932 0.7667 0.0
H1656 H 0.5555 0.97052 0.71532 0.0
C1657 C 0.55694 0.9278 0.76376 0.0
H1658 H 0.57123 0.98142 0.75124 0.0
C1659 C 0.54718 0.9217 0.74354 0.0
C1660 C 0.54634 0.93691 0.72572 0.0
H1661 H 0.55725 0.91582 0.77731 0.0
H1662 H 0.54024 0.90509 0.74193 0.0
C1663 C 0.55525 0.9585 0.7288 0.0
C1664 C 0.24531 0.05047 0.41194 0.0
C1665 C 0.22866 0.04292 0.42656 0.0
H1666 H 0.27773 0.06486 0.40858 0.0
C1667 C 0.23256 0.04371 0.44972 0.0
H1668 H 0.24284 0.0499 0.39403 0.0
C1669 C 0.25244 0.05251 0.45809 0.0
C1670 C 0.26875 0.06074 0.44345 0.0
H1671 H 0.21984 0.03844 0.46144 0.0
H1672 H 0.25478 0.05341 0.47599 0.0
C1673 C 0.26515 0.05927 0.4203 0.0
C1674 C 0.94085 0.22919 0.45261 0.0
C1675 C 0.94352 0.2265 0.42944 0.0
H1676 H 0.93068 0.25072 0.47925 0.0
C1677 C 0.93804 0.24417 0.41516 0.0
H1678 H 0.9445 0.21559 0.46396 0.0
C1679 C 0.93017 0.26425 0.4239 0.0
C1680 C 0.92731 0.26697 0.44709 0.0
H1681 H 0.94001 0.24252 0.39726 0.0
H1682 H 0.92677 0.27781 0.41244 0.0
C1683 C 0.93277 0.24921 0.46135 0.0
C1684 C 0.76202 0.95035 0.44983 0.0
C1685 C 0.76568 0.95201 0.42669 0.0
H1686 H 0.74012 0.93962 0.47594 0.0
C1687 C 0.74889 0.94507 0.41195 0.0
H1688 H 0.77489 0.95516 0.46159 0.0
C1689 C 0.72909 0.93604 0.42017 0.0
C1690 C 0.72571 0.93362 0.44329 0.0
H1691 H 0.75121 0.94629 0.39406 0.0
H1692 H 0.71638 0.93099 0.40835 0.0
C1693 C 0.74222 0.94124 0.45806 0.0
C1694 C 0.05425 0.76373 0.45191 0.0
C1695 C 0.05085 0.76765 0.429 0.0
H1696 H 0.06553 0.74088 0.477 0.0
C1697 C 0.05589 0.75071 0.41366 0.0
H1698 H 0.05093 0.77666 0.46411 0.0
C1699 C 0.06443 0.73038 0.42103 0.0
C1700 C 0.0682 0.72655 0.4439 0.0
H1701 H 0.05324 0.75317 0.39594 0.0
H1702 H 0.06777 0.7175 0.40878 0.0
C1703 C 0.06281 0.74335 0.4593 0.0
C1704 C 0.24852 0.91454 0.55416 0.0
C1705 C 0.26507 0.93028 0.54905 0.0
H1706 H 0.21539 0.90889 0.56597 0.0
C1707 C 0.26052 0.9531 0.55225 0.0
H1708 H 0.25145 0.89688 0.55165 0.0
C1709 C 0.2399 0.96 0.56062 0.0
C1710 C 0.22348 0.94421 0.56603 0.0
H1711 H 0.27312 0.96561 0.54888 0.0
H1712 H 0.23693 0.97765 0.56316 0.0
C1713 C 0.22795 0.92143 0.56255 0.0
C1714 C 0.05306 0.24448 0.58402 0.0
C1715 C 0.04462 0.22916 0.56849 0.0
H1716 H 0.0686 0.2761 0.58924 0.0
C1717 C 0.04599 0.2341 0.54559 0.0
H1718 H 0.05224 0.24103 0.60176 0.0
C1719 C 0.05581 0.25393 0.53834 0.0
C1720 C 0.06439 0.26926 0.55386 0.0
H1721 H 0.04014 0.22228 0.53322 0.0
H1722 H 0.05695 0.25709 0.52058 0.0
C1723 C 0.06273 0.26439 0.57679 0.0
C1724 C 0.753 0.03539 0.55933 0.0
C1725 C 0.76928 0.0507 0.56636 0.0
H1726 H 0.72007 0.03076 0.54632 0.0
C1727 C 0.76487 0.07369 0.5645 0.0
H1728 H 0.75587 0.0176 0.56059 0.0
C1729 C 0.74449 0.08122 0.5562 0.0
C1730 C 0.72809 0.06594 0.54947 0.0
H1731 H 0.77733 0.08594 0.56914 0.0
H1732 H 0.74157 0.09903 0.55504 0.0
C1733 C 0.73259 0.04295 0.55097 0.0
C1734 C 0.93917 0.74294 0.53366 0.0
C1735 C 0.93054 0.72722 0.54875 0.0
H1736 H 0.95495 0.77469 0.52946 0.0
C1737 C 0.93241 0.73136 0.57181 0.0
H1738 H 0.93794 0.74031 0.51582 0.0
C1739 C 0.94223 0.75097 0.57961 0.0
C1740 C 0.9506 0.76675 0.56452 0.0
H1741 H 0.92655 0.7193 0.58393 0.0
H1742 H 0.94316 0.75386 0.59744 0.0
C1743 C 0.94912 0.76251 0.54148 0.0
C1744 C 0.44136 0.24292 0.03414 0.0
C1745 C 0.43262 0.22736 0.04931 0.0
H1746 H 0.45689 0.27477 0.02974 0.0
C1747 C 0.43415 0.23179 0.07235 0.0
H1748 H 0.44039 0.24004 0.01632 0.0
C1749 C 0.44367 0.25158 0.08001 0.0
C1750 C 0.45208 0.26725 0.06483 0.0
H1751 H 0.42821 0.21984 0.08454 0.0
H1752 H 0.44431 0.25473 0.09781 0.0
C1753 C 0.45101 0.26268 0.04183 0.0
C1754 C 0.46109 0.745 0.93717 0.0
C1755 C 0.44652 0.72751 0.93162 0.0
H1756 H 0.4643 0.77835 0.94957 0.0
C1757 C 0.42347 0.73029 0.93538 0.0
H1758 H 0.47888 0.74345 0.93444 0.0
C1759 C 0.41515 0.75024 0.94396 0.0
C1760 C 0.42971 0.76771 0.94932 0.0
H1761 H 0.4118 0.71691 0.93201 0.0
H1762 H 0.39733 0.75204 0.94639 0.0
C1763 C 0.45276 0.76489 0.94601 0.0
C1764 C 0.24936 0.44283 0.91206 0.0
C1765 C 0.26591 0.44977 0.92708 0.0
H1766 H 0.21697 0.42861 0.90788 0.0
C1767 C 0.26204 0.44763 0.95015 0.0
H1768 H 0.25183 0.44441 0.89421 0.0
C1769 C 0.24221 0.43827 0.95802 0.0
C1770 C 0.22586 0.43085 0.94296 0.0
H1771 H 0.27471 0.45239 0.96214 0.0
H1772 H 0.23989 0.43641 0.97585 0.0
C1773 C 0.22953 0.43353 0.91991 0.0
C1774 C 0.55353 0.25099 0.91576 0.0
C1775 C 0.54793 0.26813 0.9307 0.0
H1776 H 0.56618 0.21793 0.91168 0.0
C1777 C 0.55062 0.26448 0.95377 0.0
H1778 H 0.55135 0.25313 0.89794 0.0
C1779 C 0.55916 0.24428 0.96167 0.0
C1780 C 0.56537 0.22746 0.94663 0.0
H1781 H 0.54684 0.27751 0.96572 0.0
H1782 H 0.56134 0.24198 0.97947 0.0
C1783 C 0.56219 0.23091 0.92363 0.0
C1784 C 0.7509 0.56028 0.95795 0.0
C1785 C 0.76717 0.56744 0.94269 0.0
H1786 H 0.71811 0.54693 0.96249 0.0
C1787 C 0.76286 0.56545 0.91967 0.0
H1788 H 0.75366 0.56166 0.97576 0.0
C1789 C 0.74258 0.55696 0.91208 0.0
C1790 C 0.72623 0.5501 0.92734 0.0
H1791 H 0.7753 0.5702 0.90744 0.0
H1792 H 0.73966 0.55582 0.89427 0.0
C1793 C 0.73064 0.55166 0.95034 0.0
C1794 C 0.56047 0.75102 0.03639 0.0
C1795 C 0.56759 0.76774 0.05115 0.0
H1796 H 0.54721 0.71809 0.03284 0.0
C1797 C 0.56553 0.7642 0.07428 0.0
H1798 H 0.56183 0.75329 0.01851 0.0
C1799 C 0.55692 0.74422 0.0825 0.0
C1800 C 0.55013 0.72733 0.06778 0.0
H1801 H 0.57025 0.77705 0.08609 0.0
H1802 H 0.55558 0.74199 0.10039 0.0
C1803 C 0.55187 0.73098 0.04462 0.0
C1804 C 0.24907 0.55102 0.0825 0.0
C1805 C 0.26596 0.54432 0.06777 0.0
H1806 H 0.21659 0.56513 0.08613 0.0
C1807 C 0.26261 0.54673 0.04464 0.0
H1808 H 0.25115 0.54923 0.10037 0.0
C1809 C 0.24297 0.5562 0.03644 0.0
C1810 C 0.2263 0.56344 0.05121 0.0
H1811 H 0.27557 0.54212 0.0329 0.0
H1812 H 0.24106 0.5583 0.01858 0.0
C1813 C 0.22942 0.5604 0.07431 0.0
C1814 C 0.76053 0.45008 0.04796 0.0
C1815 C 0.76486 0.42715 0.04551 0.0
H1816 H 0.73765 0.47515 0.05907 0.0
C1817 C 0.74844 0.41169 0.05169 0.0
H1818 H 0.77312 0.46235 0.04374 0.0
C1819 C 0.72818 0.419 0.06048 0.0
C1820 C 0.724 0.44193 0.0635 0.0
H1821 H 0.75133 0.39394 0.04987 0.0
H1822 H 0.71571 0.40663 0.06473 0.0
C1823 C 0.7403 0.45741 0.05691 0.0
C1824 C 0.98966 0.50695 0.15366 0.0
C1825 C 0.98078 0.515 0.13356 0.0
H1826 H 0.0126 0.48477 0.16944 0.0
C1827 C 0.98844 0.5061 0.11324 0.0
H1828 H 0.98413 0.51361 0.16955 0.0
C1829 C 0.00445 0.48891 0.1132 0.0
C1830 C 0.01351 0.48121 0.13344 0.0
H1831 H 0.98175 0.51209 0.09756 0.0
H1832 H 0.00999 0.48192 0.09747 0.0
C1833 C 0.00605 0.49052 0.15359 0.0
C1834 C 0.50693 0.00471 0.11865 0.0
C1835 C 0.51472 0.01344 0.139 0.0
H1836 H 0.4831 0.98297 0.10264 0.0
C1837 C 0.5047 0.00651 0.15899 0.0
H1838 H 0.5144 0.00989 0.10302 0.0
C1839 C 0.48748 0.99095 0.1588 0.0
C1840 C 0.47941 0.98236 0.13858 0.0
H1841 H 0.51047 0.01284 0.17493 0.0
H1842 H 0.48027 0.98577 0.17457 0.0
C1843 C 0.48905 0.9895 0.11841 0.0
C1844 C 0.01519 0.48267 0.88252 0.0
C1845 C 0.99329 0.47441 0.88127 0.0
H1846 H 0.03628 0.51138 0.8825 0.0
C1847 C 0.97542 0.48962 0.88183 0.0
H1848 H 0.02933 0.4714 0.88231 0.0
C1849 C 0.97941 0.5126 0.88188 0.0
C1850 C 0.00134 0.52086 0.88153 0.0
H1851 H 0.95833 0.48389 0.8809 0.0
H1852 H 0.96529 0.52387 0.88114 0.0
C1853 C 0.01918 0.50565 0.88274 0.0
C1854 C 0.50843 0.99062 0.87784 0.0
C1855 C 0.51414 0.97912 0.85817 0.0
H1856 H 0.48655 0.0149 0.89299 0.0
C1857 C 0.50206 0.98343 0.83854 0.0
H1858 H 0.51752 0.98761 0.89316 0.0
C1859 C 0.48501 -0.00081 0.83834 0.0
C1860 C 0.47917 0.01062 0.85788 0.0
H1861 H 0.50619 0.97506 0.82305 0.0
H1862 H 0.47634 0.00247 0.82281 0.0
C1863 C 0.49074 0.00607 0.87777 0.0
C1864 C 0.15335 -0.00237 0.48353 0.0
C1865 C 0.13468 0.01077 0.47856 0.0
H1866 H 0.16719 0.97185 0.50373 0.0
C1867 C 0.11479 0.00753 0.49053 0.0
H1868 H 0.16889 -7e-05 0.47458 0.0
C1869 C 0.11393 0.9917 0.50784 0.0
C1870 C 0.13275 0.97856 0.51278 0.0
H1871 H 0.10027 0.01769 0.48701 0.0
H1872 H 0.09868 0.98979 0.51736 0.0
C1873 C 0.15231 0.9815 0.5002 0.0
C1874 C -0.00174 0.12044 0.50601 0.0
C1875 C 0.9859 0.12603 0.52523 0.0
H1876 H -0.00144 0.11861 0.4701 0.0
C1877 C 0.96369 0.13302 0.52278 0.0
H1878 H 0.01542 0.11496 0.5074 0.0
C1879 C 0.95439 0.13558 0.50168 0.0
C1880 C 0.96679 0.13062 0.48244 0.0
H1881 H 0.95362 0.13743 0.53713 0.0
H1882 H 0.93747 0.14183 0.50047 0.0
C1883 C 0.98865 0.12248 0.48472 0.0
C1884 C 0.8409 0.01345 0.50058 0.0
C1885 C 0.86053 0.01689 0.51291 0.0
H1886 H 0.82441 0.99445 0.4753 0.0
C1887 C 0.87954 0.00404 0.5079 0.0
H1888 H 0.82588 0.02285 0.5042 0.0
C1889 C 0.87881 0.98804 0.49073 0.0
C1890 C 0.85886 0.98429 0.47902 0.0
H1891 H 0.89485 0.00634 0.51723 0.0
H1892 H 0.8935 0.97815 0.48713 0.0
C1893 C 0.83999 0.99713 0.48408 0.0
C1894 C 0.99633 0.87471 0.50595 0.0
C1895 C 0.00918 0.87222 0.52549 0.0
H1896 H 0.99598 0.87373 0.47005 0.0
C1897 C 0.03232 0.86899 0.52349 0.0
H1898 H 0.97847 0.87733 0.50694 0.0
C1899 C 0.04213 0.86665 0.50255 0.0
C1900 C 0.02915 0.86788 0.48312 0.0
H1901 H 0.04279 0.86726 0.53813 0.0
H1902 H 0.05987 0.86323 0.50159 0.0
C1903 C 0.0063 0.87273 0.48487 0.0
C1904 C 0.50591 0.11429 0.98991 0.0
C1905 C 0.51425 0.13461 0.98167 0.0
H1906 H 0.48245 0.09848 0.0122 0.0
C1907 C 0.50591 0.15472 0.99026 0.0
H1908 H 0.51215 0.09859 0.98349 0.0
C1909 C 0.48976 0.15465 0.00696 0.0
C1910 C 0.48103 0.13447 0.01501 0.0
H1911 H 0.51217 0.1706 0.9843 0.0
H1912 H 0.48379 0.17049 0.01333 0.0
C1913 C 0.489 0.11423 0.00622 0.0
C1914 C 0.48586 0.84049 0.99421 0.0
C1915 C 0.47989 0.8603 0.98331 0.0
H1916 H 0.50673 0.82479 0.01839 0.0
C1917 C 0.491 0.88021 0.98878 0.0
H1918 H 0.47759 0.82491 0.9902 0.0
C1919 C 0.50834 0.88005 0.00462 0.0
C1920 C 0.51409 0.86012 0.01564 0.0
H1921 H 0.48672 0.89564 0.98039 0.0
H1922 H 0.5171 0.8954 0.00837 0.0
C1923 C 0.5025 0.84045 0.0104 0.0
C1924 C 0.11521 0.48342 0.9928 0.0
C1925 C 0.13366 0.48001 0.97867 0.0
H1926 H 0.10101 0.50342 0.01918 0.0
C1927 C 0.15189 0.49469 0.98011 0.0
H1928 H 0.10098 0.4723 0.9921 0.0
C1929 C 0.15205 0.51194 0.99568 0.0
C1930 C 0.13375 0.51539 0.00978 0.0
H1931 H 0.16652 0.49241 0.96973 0.0
H1932 H 0.16677 0.52235 0.99696 0.0
C1933 C 0.11516 0.50121 0.00814 0.0
C1934 C 0.83993 0.50256 0.9819 0.0
C1935 C 0.85925 0.51543 0.97862 0.0
H1936 H 0.82423 0.47629 0.0002 0.0
C1937 C 0.87852 0.5104 0.99108 0.0
H1938 H 0.82473 0.50616 0.97279 0.0
C1939 C 0.87836 0.49267 0.00647 0.0
C1940 C 0.85875 0.4803 0.00997 0.0
H1941 H 0.8936 0.52012 0.98888 0.0
H1942 H 0.89323 0.48908 0.01609 0.0
C1943 C 0.8396 0.48545 0.9976 0.0
C1944 C 0.51413 0.01207 0.61383 0.0
C1945 C 0.49232 0.02067 0.6139 0.0
H1946 H 0.53475 0.98305 0.61477 0.0
C1947 C 0.47429 0.00575 0.61209 0.0
H1948 H 0.52839 0.02312 0.61504 0.0
C1949 C 0.47793 0.9827 0.61202 0.0
C1950 C 0.49967 0.97409 0.61357 0.0
H1951 H 0.45727 0.01173 0.61211 0.0
H1952 H 0.46363 0.97165 0.6118 0.0
C1953 C 0.51777 0.98904 0.61358 0.0
C1954 C 0.00332 0.47456 0.62573 0.0
C1955 C 0.98079 0.48108 0.62624 0.0
H1956 H 0.03753 0.48518 0.62622 0.0
C1957 C 0.97547 0.50388 0.62561 0.0
H1958 H 0.00779 0.45705 0.6262 0.0
C1959 C 0.99242 0.5199 0.62632 0.0
C1960 C 0.01495 0.51339 0.62685 0.0
H1961 H 0.95824 0.50932 0.62616 0.0
H1962 H 0.9879 0.53737 0.62732 0.0
C1963 C 0.02029 0.49061 0.62565 0.0
C1964 C 0.47531 0.98943 0.3827 0.0
C1965 C 0.49331 0.97443 0.38118 0.0
H1966 H 0.46478 0.02357 0.38294 0.0
C1967 C 0.51515 0.98293 0.38151 0.0
H1968 H 0.45827 0.98351 0.38248 0.0
C1969 C 0.51888 0.00595 0.38187 0.0
C1970 C 0.50084 0.02098 0.38171 0.0
H1971 H 0.52938 0.97183 0.38053 0.0
H1972 H 0.53589 0.01188 0.38095 0.0
C1973 C 0.47904 0.01245 0.38287 0.0
C1974 C 0.00287 0.48726 0.37943 0.0
C1975 C 0.01557 0.4842 0.35998 0.0
H1976 H 0.9759 0.50536 0.39488 0.0
C1977 C 0.01197 0.49815 0.34158 0.0
H1978 H 0.00531 0.47647 0.39373 0.0
C1979 C 0.99591 0.51489 0.34244 0.0
C1980 C 0.98252 0.51762 0.36149 0.0
H1981 H 0.02141 0.49594 0.32632 0.0
H1982 H 0.99336 0.52507 0.32771 0.0
C1983 C 0.98613 0.50369 0.38006 0.0
C1984 C 0.65266 0.50815 0.99155 0.0
C1985 C 0.63303 0.51406 0.98021 0.0
H1986 H 0.66779 0.48763 0.01646 0.0
C1987 C 0.61281 0.50383 0.98632 0.0
H1988 H 0.66853 0.51558 0.98708 0.0
C1989 C 0.61231 0.48813 0.00379 0.0
C1990 C 0.63215 0.48205 0.01472 0.0
H1991 H 0.59746 0.50815 0.9778 0.0
H1992 H 0.59665 0.48034 0.00835 0.0
C1993 C 0.65227 0.49213 0.00835 0.0
C1994 C 0.53088 0.63152 0.97384 0.0
C1995 C 0.50852 0.62499 0.97148 0.0
H1996 H 0.55724 0.64012 0.99612 0.0
C1997 C 0.49608 0.61981 0.99075 0.0
H1998 H 0.54102 0.63555 0.95943 0.0
C1999 C 0.50568 0.62199 0.01201 0.0
C2000 C 0.52764 0.62982 0.01421 0.0
H2001 H 0.4788 0.61467 0.98944 0.0
H2002 H 0.49565 0.61856 0.02666 0.0
C2003 C 0.54021 0.63419 0.99493 0.0
C2004 C 0.33589 0.50525 0.00652 0.0
C2005 C 0.35605 0.51378 0.01478 0.0
H2006 H 0.32002 0.48246 0.98423 0.0
C2007 C 0.37634 0.5056 0.00633 0.0
H2008 H 0.32003 0.51112 0.01293 0.0
C2009 C 0.37632 0.48944 0.98935 0.0
C2010 C 0.35604 0.48074 0.98141 0.0
H2011 H 0.39206 0.51196 0.01257 0.0
H2012 H 0.39204 0.48353 0.98267 0.0
C2013 C 0.33589 0.48871 0.99024 0.0
C2014 C 0.49615 0.37576 0.00527 0.0
C2015 C 0.50912 0.37348 0.02476 0.0
H2016 H 0.49568 0.3747 0.96937 0.0
C2017 C 0.53231 0.37073 0.02267 0.0
H2018 H 0.47825 0.37803 0.00632 0.0
C2019 C 0.54209 0.36857 0.0017 0.0
C2020 C 0.529 0.36952 0.98232 0.0
H2021 H 0.54287 0.36919 0.03727 0.0
H2022 H 0.55987 0.36542 0.00065 0.0
C2023 C 0.50608 0.37396 0.98415 0.0
C2024 C 0.98427 0.61604 0.50199 0.0
C2025 C 0.98047 0.63506 0.51526 0.0
H2026 H 0.00439 0.60117 0.47607 0.0
C2027 C 0.99446 0.6537 0.51263 0.0
H2028 H 0.97369 0.60148 0.50363 0.0
C2029 C 0.01142 0.65366 0.49675 0.0
C2030 C 0.01528 0.63478 0.48353 0.0
H2031 H 0.99186 0.66873 0.52233 0.0
H2032 H 0.02141 0.66858 0.49463 0.0
C2033 C 0.00181 0.6158 0.48638 0.0
C2034 C 0.01053 0.37367 0.50783 0.0
C2035 C 0.01272 0.36602 0.52989 0.0
H2036 H 0.98804 0.38028 0.48067 0.0
C2037 C 0.99341 0.3612 0.54224 0.0
H2038 H 0.02518 0.3774 0.49793 0.0
C2039 C 0.97237 0.36325 0.53267 0.0
C2040 C 0.97004 0.36962 0.51025 0.0
H2041 H 0.99454 0.35533 0.55931 0.0
H2042 H 0.95797 0.35889 0.5427 0.0
C2043 C 0.98931 0.37524 0.49799 0.0
C2044 C 0.61312 0.00616 0.50644 0.0
C2045 C 0.63348 0.01508 0.51396 0.0
H2046 H 0.59722 0.98151 0.48551 0.0
C2047 C 0.65353 0.0064 0.5056 0.0
H2048 H 0.59746 0.01257 0.51279 0.0
C2049 C 0.65338 0.98936 0.48981 0.0
C2050 C 0.63319 0.98007 0.48247 0.0
H2051 H 0.66944 0.01303 0.5111 0.0
H2052 H 0.66918 0.98317 0.48356 0.0
C2053 C 0.61299 0.98841 0.49103 0.0
C2054 C 0.36968 0.97554 0.49154 0.0
C2055 C 0.36798 0.98046 0.5144 0.0
H2056 H 0.36971 0.98855 0.45819 0.0
C2057 C 0.36813 0.0029 0.52128 0.0
H2058 H 0.36948 0.9584 0.48577 0.0
C2059 C 0.36889 0.02014 0.50553 0.0
C2060 C 0.36883 0.01521 0.48262 0.0
H2061 H 0.36687 0.00712 0.53882 0.0
H2062 H 0.36801 0.03727 0.51126 0.0
C2063 C 0.36975 0.99278 0.47578 0.0
C2064 C 0.12232 0.51056 0.12518 0.0
C2065 C 0.12065 0.51543 0.1023 0.0
H2066 H 0.116 0.48676 0.15112 0.0
C2067 C 0.11271 0.49889 0.08766 0.0
H2068 H 0.12835 0.52294 0.13686 0.0
C2069 C 0.10567 0.47833 0.09581 0.0
C2070 C 0.10662 0.47375 0.11872 0.0
H2071 H 0.11189 0.50176 0.06985 0.0
H2072 H 0.0992 0.46604 0.08424 0.0
C2073 C 0.11541 0.48983 0.13332 0.0
C2074 C 0.49939 0.08853 0.11527 0.0
C2075 C 0.5156 0.10336 0.12355 0.0
H2076 H 0.46683 0.08471 0.1012 0.0
C2077 C 0.51032 0.12613 0.12541 0.0
H2078 H 0.50254 0.07078 0.11434 0.0
C2079 C 0.48956 0.134 0.11826 0.0
C2080 C 0.47388 0.11922 0.10905 0.0
H2081 H 0.52243 0.13794 0.13172 0.0
H2082 H 0.48614 0.15172 0.11899 0.0
C2083 C 0.47883 0.09641 0.10798 0.0
C2084 C 0.88788 0.51677 0.09628 0.0
C2085 C 0.88682 0.52127 0.1192 0.0
H2086 H 0.88137 0.49361 0.07013 0.0
C2087 C 0.87748 0.50534 0.13363 0.0
H2088 H 0.89472 0.52896 0.08482 0.0
C2089 C 0.87012 0.48483 0.1253 0.0
C2090 C 0.87193 0.48002 0.10241 0.0
H2091 H 0.87674 0.50837 0.15143 0.0
H2092 H 0.86365 0.47254 0.13683 0.0
C2093 C 0.88043 0.49643 0.08794 0.0
C2094 C 0.48448 0.86929 0.12452 0.0
C2095 C 0.47911 0.89204 0.12262 0.0
H2096 H 0.50877 0.84378 0.11825 0.0
C2097 C 0.49527 0.9069 0.11431 0.0
H2098 H 0.4724 0.85745 0.13085 0.0
C2099 C 0.51589 0.89908 0.10709 0.0
C2100 C 0.52095 0.8763 0.10827 0.0
H2101 H 0.49207 0.92464 0.11333 0.0
H2102 H 0.52787 0.91081 0.10033 0.0
C2103 C 0.50529 0.86149 0.11745 0.0
C2104 C 0.10904 0.499 0.85936 0.0
C2105 C 0.10095 0.51516 0.87429 0.0
H2106 H 0.12189 0.46582 0.85546 0.0
C2107 C 0.10085 0.51059 0.89722 0.0
H2108 H 0.10905 0.50212 0.84156 0.0
C2109 C 0.1081 0.49004 0.90511 0.0
C2110 C 0.11548 0.47346 0.89023 0.0
H2111 H 0.09506 0.52295 0.90906 0.0
H2112 H 0.10806 0.48729 0.92296 0.0
C2113 C 0.11623 0.47825 0.86728 0.0
C2114 C 0.50589 0.13346 0.87698 0.0
C2115 C 0.52144 0.11896 0.88681 0.0
H2116 H 0.47339 0.13691 0.86254 0.0
C2117 C 0.51672 0.0961 0.88796 0.0
H2118 H 0.50915 0.15122 0.87615 0.0
C2119 C 0.49647 0.08792 0.88014 0.0
C2120 C 0.48035 0.1025 0.87126 0.0
H2121 H 0.52865 0.0846 0.89518 0.0
H2122 H 0.49345 0.07015 0.88118 0.0
C2123 C 0.48544 0.1253 0.8693 0.0
C2124 C 0.88509 0.49572 0.85864 0.0
C2125 C 0.89343 0.47963 0.8735 0.0
H2126 H 0.87179 0.52873 0.85486 0.0
C2127 C 0.89348 0.48414 0.89645 0.0
H2128 H 0.8851 0.49264 0.84083 0.0
C2129 C 0.88594 0.50456 0.90442 0.0
C2130 C 0.87833 0.52108 0.8896 0.0
H2131 H 0.89945 0.47182 0.90825 0.0
H2132 H 0.88597 0.50727 0.92227 0.0
C2133 C 0.87762 0.51635 0.86663 0.0
C2134 C 0.50529 0.87743 0.86075 0.0
C2135 C 0.52093 0.88707 0.87531 0.0
H2136 H 0.47248 0.86368 0.85716 0.0
C2137 C 0.51593 0.88874 0.89808 0.0
H2138 H 0.50875 0.87622 0.84306 0.0
C2139 C 0.49537 0.88162 0.90612 0.0
C2140 C 0.47924 0.87285 0.8915 0.0
H2141 H 0.52789 0.89582 0.90964 0.0
H2142 H 0.49219 0.883 0.92385 0.0
C2143 C 0.48455 0.87041 0.86879 0.0
C2144 C 0.11578 0.09424 0.49531 0.0
C2145 C 0.12517 0.10696 0.47799 0.0
H2146 H 0.09666 0.09432 0.5253 0.0
C2147 C 0.12537 0.1303 0.47981 0.0
H2148 H 0.11599 0.07619 0.49467 0.0
C2149 C 0.11464 0.14075 0.49765 0.0
C2150 C 0.1035 0.12804 0.51392 0.0
H2151 H 0.13263 0.14052 0.46681 0.0
H2152 H 0.11397 0.1588 0.49807 0.0
C2153 C 0.10505 0.10466 0.51311 0.0
C2154 C 0.86193 0.11573 0.5044 0.0
C2155 C 0.87755 0.10555 0.51866 0.0
H2156 H 0.85533 0.12875 0.47173 0.0
C2157 C 0.89912 0.10138 0.51073 0.0
H2158 H 0.84502 0.11878 0.50996 0.0
C2159 C 0.90488 0.10667 0.48889 0.0
C2160 C 0.88929 0.11656 0.47436 0.0
H2161 H 0.91158 0.09383 0.52142 0.0
H2162 H 0.92179 0.10327 0.48371 0.0
C2163 C 0.86776 0.12121 0.48244 0.0
C2164 C 0.88067 0.85298 0.49547 0.0
C2165 C 0.89069 0.86556 0.51255 0.0
H2166 H 0.86316 0.85364 0.46434 0.0
C2167 C 0.8874 0.88876 0.51304 0.0
H2168 H 0.88274 0.83504 0.49489 0.0
C2169 C 0.87623 0.89935 0.49563 0.0
C2170 C 0.8681 0.88696 0.47747 0.0
H2171 H 0.89491 0.89898 0.52589 0.0
H2172 H 0.87485 0.91736 0.49585 0.0
C2173 C 0.86944 0.86359 0.47804 0.0
C2174 C 0.11949 0.86918 0.50933 0.0
C2175 C 0.11718 0.89166 0.51558 0.0
H2176 H 0.11642 0.84504 0.48312 0.0
C2177 C 0.11152 0.90748 0.49915 0.0
H2178 H 0.12384 0.85665 0.52158 0.0
C2179 C 0.10749 0.90089 0.47724 0.0
C2180 C 0.10912 0.87838 0.47116 0.0
H2181 H 0.11029 0.92505 0.50311 0.0
H2182 H 0.10266 0.91334 0.46506 0.0
C2183 C 0.1155 0.86259 0.4873 0.0
C2184 C 0.60838 0.9939 0.63574 0.0
C2185 C 0.59949 0.97802 0.62096 0.0
H2186 H 0.62249 0.02656 0.63942 0.0
C2187 C 0.59922 0.98258 0.59803 0.0
H2188 H 0.60853 0.9908 0.65354 0.0
C2189 C 0.60715 0.00283 0.58998 0.0
C2190 C 0.61538 0.01912 0.60473 0.0
H2191 H 0.59281 0.97042 0.58629 0.0
H2192 H 0.60695 0.00557 0.57214 0.0
C2193 C 0.61623 0.01434 0.62768 0.0
C2194 C 0.98778 0.63372 0.61747 0.0
C2195 C 0.97291 0.61902 0.60687 0.0
H2196 H 0.02016 0.63799 0.63203 0.0
C2197 C 0.97901 0.59663 0.60403 0.0
H2198 H 0.98356 0.65116 0.61958 0.0
C2199 C -0.00015 0.58917 0.61095 0.0
C2200 C 0.01512 0.60396 0.62087 0.0
H2201 H 0.96768 0.5849 0.59622 0.0
H2202 H 0.00389 0.57175 0.60858 0.0
C2203 C 0.00875 0.62624 0.62441 0.0
C2204 C 0.37657 0.97958 0.62721 0.0
C2205 C 0.37849 0.97415 0.60447 0.0
H2206 H 0.38285 0.00393 0.6527 0.0
C2207 C 0.38732 0.99006 0.58967 0.0
H2208 H 0.3698 0.96766 0.63897 0.0
C2209 C 0.39455 0.01067 0.59743 0.0
C2210 C 0.39315 0.01594 0.62019 0.0
H2211 H 0.38839 0.98678 0.57195 0.0
H2212 H 0.40126 0.02254 0.58559 0.0
C2213 C 0.38385 0.00034 0.63502 0.0
C2214 C 0.99209 0.38076 0.63441 0.0
C2215 C 0.97783 0.39084 0.61871 0.0
H2216 H 0.02474 0.36779 0.64114 0.0
C2217 C 0.98589 0.39518 0.59721 0.0
H2218 H 0.98649 0.37761 0.65129 0.0
C2219 C 0.00777 0.38999 0.59157 0.0
C2220 C 0.02222 0.38002 0.6072 0.0
H2221 H 0.97524 0.40266 0.58468 0.0
H2222 H 0.01303 0.39343 0.57468 0.0
C2223 C 0.01407 0.37536 0.62869 0.0
C2224 C 0.6073 0.99145 0.4067 0.0
C2225 C 0.61495 0.97487 0.39195 0.0
H2226 H 0.59394 0.02428 0.41038 0.0
C2227 C 0.61577 0.97955 0.36897 0.0
H2228 H 0.60716 0.98879 0.42455 0.0
C2229 C 0.60848 0.00021 0.3609 0.0
C2230 C 0.60018 0.01638 0.3757 0.0
H2231 H 0.6216 0.96713 0.35723 0.0
H2232 H 0.60859 0.00325 0.34309 0.0
C2233 C 0.59993 0.0119 0.39864 0.0
C2234 C 0.00716 0.62467 0.36948 0.0
C2235 C 0.01286 0.62257 0.39213 0.0
H2236 H 0.98238 0.61886 0.34435 0.0
C2237 C 0.9967 0.61484 0.4073 0.0
H2238 H 0.01923 0.63061 0.35744 0.0
C2239 C 0.97576 0.60818 0.39983 0.0
C2240 C 0.97043 0.60932 0.3771 0.0
H2241 H 0.00022 0.61375 0.42498 0.0
H2242 H 0.96384 0.60164 0.41173 0.0
C2243 C 0.98606 0.61813 0.36202 0.0
C2244 C 0.38864 0.00513 0.40649 0.0
C2245 C 0.38015 0.02131 0.39179 0.0
H2246 H 0.40211 0.9724 0.41032 0.0
C2247 C 0.37835 0.01615 0.36897 0.0
H2248 H 0.38962 0.00819 0.42425 0.0
C2249 C 0.3854 0.99537 0.36099 0.0
C2250 C 0.39436 0.9795 0.37573 0.0
H2251 H 0.37184 0.02828 0.35728 0.0
H2252 H 0.38449 0.99199 0.34327 0.0
C2253 C 0.39565 0.9845 0.39855 0.0
C2254 C 0.01406 0.36369 0.36806 0.0
C2255 C 0.01541 0.38705 0.36752 0.0
H2256 H 0.99654 0.33529 0.38077 0.0
C2257 C -0.00226 0.39975 0.37624 0.0
H2258 H 0.02734 0.3535 0.36128 0.0
C2259 C 0.98018 0.38937 0.38738 0.0
C2260 C 0.98005 0.36609 0.39002 0.0
H2261 H -0.00194 0.41779 0.37543 0.0
H2262 H 0.9678 0.39974 0.39548 0.0
C2263 C 0.99648 0.35329 0.37922 0.0
C2264 C 0.6331 0.61483 0.99434 0.0
C2265 C 0.61783 0.60414 0.98007 0.0
H2266 H 0.63904 0.62868 0.02679 0.0
C2267 C 0.59627 0.59962 0.98786 0.0
H2268 H 0.64998 0.61817 0.9889 0.0
C2269 C 0.59012 0.60534 0.00949 0.0
C2270 C 0.60532 0.61592 0.02398 0.0
H2271 H 0.58406 0.5917 0.97715 0.0
H2272 H 0.57317 0.60184 0.01449 0.0
C2273 C 0.6269 0.62066 0.0161 0.0
C2274 C 0.37967 0.64156 0.00042 0.0
C2275 C 0.38981 0.6287 0.98359 0.0
H2276 H 0.36284 0.64146 0.03195 0.0
C2277 C 0.38707 0.60544 0.98386 0.0
H2278 H 0.38123 0.65956 0.00038 0.0
C2279 C 0.3765 0.59515 0.00182 0.0
C2280 C 0.36851 0.6079 0.01982 0.0
H2281 H 0.3946 0.59499 0.9712 0.0
H2282 H 0.37552 0.57711 0.00211 0.0
C2283 C 0.36913 0.63124 0.01844 0.0
C2284 C 0.38763 0.38884 0.01154 0.0
C2285 C 0.39114 0.36568 0.01139 0.0
H2286 H 0.37534 0.41714 0.99375 0.0
C2287 C 0.3816 0.35283 0.99419 0.0
H2288 H 0.39467 0.39928 0.02448 0.0
C2289 C 0.37088 0.36317 0.97628 0.0
C2290 C 0.36948 0.38651 0.97538 0.0
H2291 H 0.38373 0.33489 0.99389 0.0
H2292 H 0.36505 0.35304 0.96251 0.0
C2293 C 0.3769 0.39914 0.9937 0.0
C2294 C 0.62057 0.3692 0.00729 0.0
C2295 C 0.61866 0.39178 0.01331 0.0
H2296 H 0.61674 0.34479 0.98146 0.0
C2297 C 0.61297 0.40749 0.9968 0.0
H2298 H 0.6249 0.35672 0.01961 0.0
C2299 C 0.60848 0.40068 0.97503 0.0
C2300 C 0.6097 0.37807 0.9692 0.0
H2301 H 0.61202 0.42511 0.00061 0.0
H2302 H 0.60361 0.41304 0.96278 0.0
C2303 C 0.61614 0.3624 0.98542 0.0
C2304 C 0.06763 0.40748 0.05547 0.0
C2305 C 0.07274 0.39357 0.07359 0.0
H2306 H 0.07535 0.41703 0.02211 0.0
C2307 C 0.09023 0.37811 0.07148 0.0
H2308 H 0.05419 0.41952 0.05659 0.0
C2309 C 0.10273 0.37694 0.05187 0.0
C2310 C 0.09792 0.39105 0.03375 0.0
H2311 H 0.09471 0.36723 0.0852 0.0
H2312 H 0.11647 0.36527 0.05121 0.0
C2313 C 0.07998 0.40615 0.03573 0.0
C2314 C 0.62096 0.09 0.04397 0.0
C2315 C 0.60154 0.09473 0.03171 0.0
H2316 H 0.63507 0.07452 0.07284 0.0
C2317 C 0.58107 0.08587 0.03908 0.0
H2318 H 0.63706 0.09612 0.03857 0.0
C2319 C 0.57998 0.07316 0.0586 0.0
C2320 C 0.59931 0.06919 0.07122 0.0
H2321 H 0.56574 0.08932 0.0302 0.0
H2322 H 0.56387 0.06717 0.06422 0.0
C2323 C 0.61985 0.07743 0.06353 0.0
C2324 C 0.9254 0.58759 0.05523 0.0
C2325 C 0.91994 0.6014 0.07333 0.0
H2326 H 0.91824 0.57821 0.02167 0.0
C2327 C 0.90243 0.61681 0.07103 0.0
H2328 H 0.93886 0.5756 0.05649 0.0
C2329 C 0.89027 0.61805 0.05122 0.0
C2330 C 0.89544 0.60407 0.0331 0.0
H2331 H 0.8977 0.62762 0.08473 0.0
H2332 H 0.87651 0.62969 0.05037 0.0
C2333 C 0.91337 0.58898 0.03529 0.0
C2334 C 0.41289 0.90959 0.03829 0.0
C2335 C 0.3924 0.90073 0.03095 0.0
H2336 H 0.43019 0.92815 0.06346 0.0
C2337 C 0.37305 0.90526 0.0434 0.0
H2338 H 0.42819 0.90628 0.02931 0.0
C2339 C 0.37426 0.91768 0.06308 0.0
C2340 C 0.39482 0.92596 0.0707 0.0
H2341 H 0.35694 0.89913 0.03806 0.0
H2342 H 0.3591 0.92046 0.07252 0.0
C2343 C 0.41407 0.92214 0.05791 0.0
C2344 C 0.0681 0.59117 0.93968 0.0
C2345 C 0.07552 0.60333 0.92107 0.0
H2346 H 0.07331 0.58286 0.97392 0.0
C2347 C 0.09424 0.61726 0.92332 0.0
H2348 H 0.05363 0.5804 0.93853 0.0
C2349 C 0.10573 0.61846 0.94357 0.0
C2350 C 0.0987 0.60582 0.96204 0.0
H2351 H 0.10042 0.62681 0.90927 0.0
H2352 H 0.1205 0.6288 0.94451 0.0
C2353 C 0.07953 0.59245 0.95994 0.0
C2354 C 0.41435 0.08686 0.95674 0.0
C2355 C 0.39396 0.09614 0.96384 0.0
H2356 H 0.43154 0.06794 0.93172 0.0
C2357 C 0.37468 0.09207 0.95113 0.0
H2358 H 0.42959 0.0898 0.96594 0.0
C2359 C 0.37586 0.07969 0.93145 0.0
C2360 C 0.39632 0.07096 0.92407 0.0
H2361 H 0.35863 0.09851 0.95629 0.0
H2362 H 0.36075 0.07725 0.92183 0.0
C2363 C 0.4155 0.07432 0.93709 0.0
C2364 C 0.8995 0.3714 0.94945 0.0
C2365 C 0.89692 0.39067 0.96266 0.0
H2366 H 0.91319 0.35711 0.91966 0.0
C2367 C 0.90744 0.41051 0.95578 0.0
H2368 H 0.89202 0.35572 0.95431 0.0
C2369 C 0.91992 0.41114 0.93615 0.0
C2370 C 0.922 0.39204 0.92274 0.0
H2371 H 0.90566 0.4258 0.96518 0.0
H2372 H 0.92739 0.42684 0.93117 0.0
C2373 C 0.91181 0.37212 0.92964 0.0
C2374 C 0.61664 0.90514 0.9255 0.0
C2375 C 0.6003 0.92163 0.92229 0.0
H2376 H 0.63021 0.88031 0.94697 0.0
C2377 C 0.58537 0.92637 0.9397 0.0
H2378 H 0.62833 0.90096 0.91236 0.0
C2379 C 0.58663 0.91463 0.95985 0.0
C2380 C 0.60273 0.89776 0.96294 0.0
H2381 H 0.57261 0.93901 0.93773 0.0
H2382 H 0.57496 0.91889 0.97293 0.0
C2383 C 0.61777 0.89329 0.94549 0.0
C2384 C 0.03874 0.0893 0.41395 0.0
C2385 C 0.0319 0.0989 0.39362 0.0
H2386 H 0.06363 0.07027 0.43121 0.0
C2387 C 0.04513 0.09555 0.37454 0.0
H2388 H 0.02912 0.0917 0.42904 0.0
C2389 C 0.06495 0.08342 0.37584 0.0
C2390 C 0.07198 0.07422 0.39622 0.0
H2391 H 0.04022 0.10225 0.35852 0.0
H2392 H 0.07488 0.08143 0.36086 0.0
C2393 C 0.05855 0.07702 0.41522 0.0
C2394 C 0.9235 0.05518 0.41074 0.0
C2395 C 0.92772 0.06713 0.39102 0.0
H2396 H 0.90735 0.02727 0.4258 0.0
C2397 C 0.92021 0.05842 0.3706 0.0
H2398 H 0.92896 0.06151 0.42677 0.0
C2399 C 0.90796 0.03861 0.36999 0.0
C2400 C 0.90279 0.02715 0.38982 0.0
H2401 H 0.92335 0.06718 0.3551 0.0
H2402 H 0.90233 0.03249 0.35398 0.0
C2403 C 0.91109 0.03547 0.41016 0.0
C2404 C 0.92975 0.91155 0.37701 0.0
C2405 C 0.92259 0.92075 0.39734 0.0
H2406 H 0.9546 0.89278 0.3598 0.0
C2407 C 0.93599 0.91806 0.41639 0.0
H2408 H 0.91988 0.91347 0.36198 0.0
C2409 C 0.95587 0.90587 0.41521 0.0
C2410 C 0.96278 0.89621 0.39493 0.0
H2411 H 0.93082 0.92484 0.43234 0.0
H2412 H 0.96549 0.90353 0.43031 0.0
C2413 C 0.94961 0.8995 0.3758 0.0
C2414 C 0.08435 0.95906 0.40953 0.0
C2415 C 0.09272 0.96727 0.38918 0.0
H2416 H 0.06654 0.93307 0.42625 0.0
C2417 C 0.0879 0.95551 0.36943 0.0
H2418 H 0.08786 0.96744 0.42512 0.0
C2419 C 0.0758 0.93559 0.37013 0.0
C2420 C 0.06811 0.92709 0.39056 0.0
H2421 H 0.09364 0.96151 0.3534 0.0
H2422 H 0.07288 0.92664 0.35469 0.0
C2423 C 0.0721 0.93926 0.41019 0.0
C2424 C 0.04923 0.93007 0.58503 0.0
C2425 C 0.06392 0.93181 0.60316 0.0
H2426 H 0.01884 0.91665 0.57257 0.0
C2427 C 0.05741 0.92307 0.62397 0.0
H2428 H 0.05374 0.93659 0.56878 0.0
C2429 C 0.03718 0.91168 0.62626 0.0
C2430 C 0.02302 0.90883 0.60782 0.0
H2431 H 0.06831 0.92429 0.63834 0.0
H2432 H 0.03293 0.90453 0.64229 0.0
C2433 C 0.02904 0.9187 0.58731 0.0
C2434 C 0.08107 0.06866 0.61231 0.0
C2435 C 0.07188 0.07477 0.59163 0.0
H2436 H 0.09954 0.04456 0.63087 0.0
C2437 C 0.07459 0.06049 0.57327 0.0
H2438 H 0.07913 0.07927 0.62683 0.0
C2439 C 0.08666 0.04063 0.57552 0.0
C2440 C 0.09607 0.03459 0.59623 0.0
H2441 H 0.06787 0.06491 0.55708 0.0
H2442 H 0.08896 0.03029 0.5609 0.0
C2443 C 0.09294 0.0488 0.61461 0.0
C2444 C 0.94289 0.06632 0.58484 0.0
C2445 C 0.92843 0.06428 0.60313 0.0
H2446 H 0.97314 0.07998 0.57221 0.0
C2447 C 0.93512 0.07287 0.62395 0.0
H2448 H 0.93821 0.05996 0.56857 0.0
C2449 C 0.95534 0.08429 0.62614 0.0
C2450 C 0.96931 0.08735 0.60758 0.0
H2451 H 0.92441 0.07143 0.63844 0.0
H2452 H 0.95977 0.09125 0.64221 0.0
C2453 C 0.96307 0.07774 0.58702 0.0
C2454 C 0.91427 0.95809 0.58049 0.0
C2455 C 0.89641 0.95984 0.59572 0.0
H2456 H 0.93921 0.937 0.5658 0.0
C2457 C 0.89012 0.94082 0.60789 0.0
H2458 H 0.91987 0.97238 0.57101 0.0
C2459 C 0.90142 0.92069 0.60507 0.0
C2460 C 0.91921 0.91896 0.58988 0.0
H2461 H 0.87628 0.94133 0.61945 0.0
H2462 H 0.89604 0.9064 0.61475 0.0
C2463 C 0.92549 0.93782 0.57754 0.0
C2464 C 0.41225 0.03857 0.08715 0.0
C2465 C 0.39177 0.03116 0.09595 0.0
H2466 H 0.4295 0.06367 0.06849 0.0
C2467 C 0.37238 0.04352 0.09131 0.0
H2468 H 0.42759 0.0297 0.09056 0.0
C2469 C 0.37353 0.06313 0.07876 0.0
C2470 C 0.39407 0.07075 0.07045 0.0
H2471 H 0.35627 0.03814 0.09741 0.0
H2472 H 0.35834 0.07248 0.07586 0.0
C2473 C 0.41338 0.0581 0.07447 0.0
C2474 C 0.3779 0.92619 0.90615 0.0
C2475 C 0.39444 0.9231 0.92248 0.0
H2476 H 0.36373 0.9478 0.8817 0.0
C2477 C 0.40889 0.94082 0.92753 0.0
H2478 H 0.36653 0.91284 0.90179 0.0
C2479 C 0.40709 0.96109 0.91614 0.0
C2480 C 0.39093 0.96401 0.8993 0.0
H2481 H 0.42172 0.93897 0.94013 0.0
H2482 H 0.41843 0.9744 0.92058 0.0
C2483 C 0.37622 0.94635 0.89465 0.0
C2484 C 0.034 0.40617 0.91725 0.0
C2485 C 0.02882 0.38677 0.90506 0.0
H2486 H 0.05773 0.42302 0.93795 0.0
C2487 C 0.04319 0.36833 0.90644 0.0
H2488 H 0.02343 0.42078 0.91635 0.0
C2489 C 0.0629 0.36964 0.91879 0.0
C2490 C 0.06868 0.38946 0.92994 0.0
H2491 H 0.03947 0.35309 0.89748 0.0
H2492 H 0.07398 0.35536 0.91889 0.0
C2493 C 0.05374 0.4075 0.92956 0.0
C2494 C 0.58177 0.03832 0.90859 0.0
C2495 C 0.60223 0.03085 0.89978 0.0
H2496 H 0.56465 0.06347 0.92736 0.0
C2497 C 0.6217 0.04302 0.9046 0.0
H2498 H 0.5664 0.02954 0.90507 0.0
C2499 C 0.62065 0.06254 0.91727 0.0
C2500 C 0.60014 0.07029 0.92554 0.0
H2501 H 0.63779 0.03756 0.89853 0.0
H2502 H 0.63591 0.07176 0.92028 0.0
C2503 C 0.58075 0.0578 0.9214 0.0
C2504 C 0.94039 0.58715 0.92877 0.0
C2505 C 0.92532 0.6051 0.92901 0.0
H2506 H 0.97091 0.57407 0.91582 0.0
C2507 C 0.93105 0.62492 0.91783 0.0
H2508 H 0.93644 0.57164 0.93718 0.0
C2509 C 0.95083 0.62633 0.90562 0.0
C2510 C 0.96535 0.608 0.90441 0.0
H2511 H 0.91987 0.63913 0.91782 0.0
H2512 H 0.95451 0.64156 0.89664 0.0
C2513 C 0.96022 0.5886 0.9166 0.0
C2514 C 0.62214 0.9522 0.09111 0.0
C2515 C 0.60269 0.96435 0.09599 0.0
H2516 H 0.6363 0.92349 0.07532 0.0
C2517 C 0.58221 0.9569 0.08721 0.0
H2518 H 0.63825 0.95763 0.09718 0.0
C2519 C 0.58116 0.93749 0.07434 0.0
C2520 C 0.60053 0.92501 0.07013 0.0
H2521 H 0.56683 0.96564 0.09079 0.0
H2522 H 0.56504 0.93184 0.0684 0.0
C2523 C 0.62106 0.93271 0.07839 0.0
C2524 C 0.05683 0.58109 0.07142 0.0
C2525 C 0.06976 0.60029 0.06783 0.0
H2526 H 0.02827 0.56694 0.08734 0.0
C2527 C 0.06237 0.62078 0.07648 0.0
H2528 H 0.06221 0.56501 0.06512 0.0
C2529 C 0.04283 0.62195 0.0891 0.0
C2530 C 0.03029 0.60262 0.09349 0.0
H2531 H 0.07191 0.63591 0.07387 0.0
H2532 H 0.03769 0.63801 0.09555 0.0
C2533 C 0.03734 0.58222 0.08418 0.0
C2534 C 0.95536 0.41388 0.08509 0.0
C2535 C 0.96231 0.39355 0.09461 0.0
H2536 H 0.93065 0.43096 0.06573 0.0
C2537 C 0.94973 0.37422 0.09037 0.0
H2538 H 0.96449 0.42915 0.08814 0.0
C2539 C 0.93026 0.37531 0.07764 0.0
C2540 C 0.92299 0.39573 0.06874 0.0
H2541 H 0.95479 0.35821 0.09699 0.0
H2542 H 0.9207 0.36018 0.07512 0.0
C2543 C 0.93594 0.41494 0.07223 0.0
C2544 C 0.58407 0.87219 0.56815 0.0
C2545 C 0.57203 0.89144 0.57389 0.0
H2546 H 0.606 0.85655 0.5448 0.0
C2547 C 0.57305 0.91014 0.55981 0.0
H2548 H 0.58357 0.85751 0.5787 0.0
C2549 C 0.58624 0.90978 0.54065 0.0
C2550 C 0.59853 0.89061 0.5349 0.0
H2551 H 0.56419 0.92536 0.56393 0.0
H2552 H 0.58712 0.92479 0.5307 0.0
C2553 C 0.5971 0.87172 0.5488 0.0
C2554 C 0.11846 0.60306 0.54822 0.0
C2555 C 0.10434 0.59709 0.53047 0.0
H2556 H 0.12785 0.59747 0.58215 0.0
C2557 C 0.08905 0.57953 0.53363 0.0
H2558 H 0.13028 0.6166 0.54654 0.0
C2559 C 0.08747 0.56869 0.55421 0.0
C2560 C 0.10128 0.57504 0.57202 0.0
H2561 H 0.07821 0.57411 0.52025 0.0
H2562 H 0.07529 0.55548 0.55621 0.0
C2563 C 0.11699 0.59213 0.56872 0.0
C2564 C 0.39921 0.11747 0.57392 0.0
C2565 C 0.41874 0.10457 0.57531 0.0
H2566 H 0.37174 0.12797 0.55376 0.0
C2567 C 0.42638 0.09339 0.55619 0.0
H2568 H 0.39285 0.12625 0.58839 0.0
C2569 C 0.41437 0.09455 0.53627 0.0
C2570 C 0.39434 0.10676 0.53504 0.0
H2571 H 0.44147 0.08345 0.55668 0.0
H2572 H 0.42081 0.08574 0.52189 0.0
C2573 C 0.38711 0.11851 0.55402 0.0
C2574 C 0.90728 0.41697 0.53293 0.0
C2575 C 0.88701 0.40711 0.52624 0.0
H2576 H 0.92503 0.43469 0.55828 0.0
C2577 C 0.86821 0.4096 0.54002 0.0
H2578 H 0.92227 0.41518 0.52305 0.0
C2579 C 0.86991 0.42069 0.56049 0.0
C2580 C 0.89045 0.42954 0.56758 0.0
H2581 H 0.85232 0.40246 0.53526 0.0
H2582 H 0.85528 0.4217 0.57105 0.0
C2583 C 0.90896 0.42809 0.55331 0.0
C2584 C 0.57376 0.08482 0.43721 0.0
C2585 C 0.57258 0.10359 0.42325 0.0
H2586 H 0.5877 0.07022 0.46643 0.0
C2587 C 0.58414 0.12304 0.42932 0.0
H2588 H 0.56527 0.06946 0.43285 0.0
C2589 C 0.59687 0.12361 0.44887 0.0
C2590 C 0.5985 0.10465 0.46264 0.0
H2591 H 0.5835 0.13779 0.41889 0.0
H2592 H 0.60541 0.13893 0.4531 0.0
C2593 C 0.58666 0.08529 0.45658 0.0
C2594 C 0.87634 0.5872 0.42564 0.0
C2595 C 0.89283 0.57081 0.42275 0.0
H2596 H 0.86285 0.61267 0.4464 0.0
C2597 C 0.908 0.56679 0.44014 0.0
H2598 H 0.86446 0.59084 0.4125 0.0
C2599 C 0.90691 0.57921 0.45988 0.0
C2600 C 0.89075 0.5961 0.46258 0.0
H2601 H 0.92089 0.55424 0.43841 0.0
H2602 H 0.91882 0.5755 0.47289 0.0
C2603 C 0.87538 0.59976 0.44522 0.0
C2604 C 0.41966 0.91043 0.43669 0.0
C2605 C 0.42089 0.89177 0.42257 0.0
H2606 H 0.40536 0.9249 0.46581 0.0
C2607 C 0.40902 0.87238 0.42826 0.0
H2608 H 0.42837 0.92574 0.43261 0.0
C2609 C 0.39594 0.87177 0.44758 0.0
C2610 C 0.39431 0.89061 0.4615 0.0
H2611 H 0.40967 0.85773 0.41769 0.0
H2612 H 0.38716 0.85652 0.45154 0.0
C2613 C 0.40643 0.90991 0.45582 0.0
C2614 C 0.08489 0.41139 0.45976 0.0
C2615 C 0.09985 0.3934 0.46226 0.0
H2616 H 0.07121 0.43622 0.43788 0.0
C2617 C 0.11269 0.38686 0.44375 0.0
H2618 H 0.0749 0.41717 0.47364 0.0
C2619 C 0.11079 0.39801 0.42342 0.0
C2620 C 0.09585 0.4159 0.42093 0.0
H2621 H 0.12409 0.37291 0.44479 0.0
H2622 H 0.12093 0.39237 0.40955 0.0
C2623 C 0.08285 0.42246 0.43928 0.0
C2624 C 0.55917 0.57508 0.87187 0.0
C2625 C 0.5663 0.56651 0.89253 0.0
H2626 H 0.5337 0.59263 0.85396 0.0
C2627 C 0.55187 0.5677 0.91091 0.0
H2628 H 0.56985 0.57422 0.85731 0.0
C2629 C 0.53124 0.57834 0.909 0.0
C2630 C 0.52452 0.58797 0.8886 0.0
H2631 H 0.55689 0.56129 0.92706 0.0
H2632 H 0.5212 0.57998 0.92389 0.0
C2633 C 0.53849 0.58567 0.86993 0.0
C2634 C 0.4032 0.54719 0.88157 0.0
C2635 C 0.39878 0.53321 0.89985 0.0
H2636 H 0.4176 0.57762 0.86998 0.0
C2637 C 0.40689 0.53946 0.92106 0.0
H2638 H 0.39773 0.54279 0.86494 0.0
C2639 C 0.41872 0.55941 0.9239 0.0
C2640 C 0.42244 0.57358 0.90563 0.0
H2641 H 0.40365 0.52928 0.93561 0.0
H2642 H 0.42433 0.56407 0.94045 0.0
C2643 C 0.41476 0.56715 0.88444 0.0
C2644 C 0.45636 0.4083 0.91489 0.0
C2645 C 0.46312 0.39881 0.89448 0.0
H2646 H 0.43168 0.42757 0.93223 0.0
C2647 C 0.45026 0.40292 0.8753 0.0
H2648 H 0.46578 0.40535 0.93001 0.0
C2649 C 0.43077 0.41556 0.87659 0.0
C2650 C 0.42365 0.42448 0.89707 0.0
H2651 H 0.4552 0.39632 0.85924 0.0
H2652 H 0.42108 0.41803 0.86153 0.0
C2653 C 0.43681 0.42103 0.91617 0.0
C2654 C 0.56703 0.44174 0.90381 0.0
C2655 C 0.57268 0.42443 0.88908 0.0
H2656 H 0.57372 0.47489 0.91484 0.0
C2657 C 0.5898 0.42791 0.87346 0.0
H2658 H 0.55384 0.43959 0.91599 0.0
C2659 C 0.60155 0.448 0.87306 0.0
C2660 C 0.59634 0.46522 0.88815 0.0
H2661 H 0.59466 0.41484 0.86194 0.0
H2662 H 0.61512 0.44971 0.8613 0.0
C2663 C 0.57864 0.46195 0.90328 0.0
C2664 C 0.55032 0.42931 0.08506 0.0
C2665 C 0.56512 0.43032 0.10314 0.0
H2666 H 0.51946 0.41712 0.07257 0.0
C2667 C 0.55837 0.4217 0.12391 0.0
H2668 H 0.55502 0.43581 0.06885 0.0
C2669 C 0.53774 0.41108 0.12618 0.0
C2670 C 0.52345 0.40884 0.10774 0.0
H2671 H 0.56934 0.42244 0.13826 0.0
H2672 H 0.53328 0.40397 0.14218 0.0
C2673 C 0.52975 0.41867 0.08731 0.0
C2674 C 0.57063 0.55629 0.08598 0.0
C2675 C 0.56824 0.56888 0.10561 0.0
H2676 H 0.58565 0.52816 0.07025 0.0
C2677 C 0.57829 0.56121 0.12535 0.0
H2678 H 0.56325 0.56184 0.07043 0.0
C2679 C 0.59104 0.5417 0.12531 0.0
C2680 C 0.59413 0.5295 0.10549 0.0
H2681 H 0.57669 0.57053 0.14077 0.0
H2682 H 0.59856 0.5363 0.14081 0.0
C2683 C 0.5835 0.5369 0.0859 0.0
C2684 C 0.42946 0.58089 0.11966 0.0
C2685 C 0.42268 0.57173 0.09918 0.0
H2686 H 0.45355 0.60043 0.13717 0.0
C2687 C 0.43598 0.57521 0.0802 0.0
H2688 H 0.41964 0.57842 0.13464 0.0
C2689 C 0.45538 0.58814 0.0816 0.0
C2690 C 0.4619 0.59777 0.10203 0.0
H2691 H 0.43109 0.56852 0.06413 0.0
H2692 H 0.46492 0.59105 0.06655 0.0
C2693 C 0.44884 0.59371 0.12108 0.0
C2694 C 0.41379 0.42748 0.11151 0.0
C2695 C 0.42167 0.42122 0.09035 0.0
H2696 H 0.39682 0.4518 0.1311 0.0
C2697 C 0.41828 0.43561 0.0722 0.0
H2698 H 0.41637 0.41683 0.12589 0.0
C2699 C 0.40662 0.45565 0.07512 0.0
C2700 C 0.39837 0.46179 0.0963 0.0
H2701 H 0.42406 0.43109 0.05567 0.0
H2702 H 0.40367 0.466 0.06063 0.0
C2703 C 0.40242 0.44754 0.11448 0.0
C2704 C 0.91265 0.558 0.57296 0.0
C2705 C 0.89336 0.57091 0.5698 0.0
H2706 H 0.9272 0.52949 0.58858 0.0
C2707 C 0.87315 0.5637 0.57924 0.0
H2708 H 0.92853 0.56327 0.56612 0.0
C2709 C 0.87234 0.54424 0.59203 0.0
C2710 C 0.89173 0.5316 0.59575 0.0
H2711 H 0.85798 0.57327 0.57704 0.0
H2712 H 0.85649 0.53915 0.59902 0.0
C2713 C 0.91186 0.5386 0.58586 0.0
C2714 C 0.88143 0.44598 0.40163 0.0
C2715 C 0.89982 0.45998 0.39786 0.0
H2716 H 0.86924 0.416 0.41646 0.0
C2717 C 0.92055 0.45429 0.40742 0.0
H2718 H 0.86515 0.45002 0.39498 0.0
C2719 C 0.92284 0.43479 0.4201 0.0
C2720 C 0.9045 0.4206 0.4233 0.0
H2721 H 0.93513 0.46456 0.40469 0.0
H2722 H 0.93907 0.43052 0.42683 0.0
C2723 C 0.88376 0.42651 0.41412 0.0
C2724 C 0.53477 0.90663 0.41785 0.0
C2725 C 0.52985 0.88733 0.40538 0.0
H2726 H 0.55814 0.92341 0.43901 0.0
C2727 C 0.5444 0.86902 0.40665 0.0
H2728 H 0.52407 0.92115 0.41705 0.0
C2729 C 0.56397 0.87033 0.41922 0.0
C2730 C 0.56946 0.89004 0.43072 0.0
H2731 H 0.54089 0.85385 0.39749 0.0
H2732 H 0.57518 0.85615 0.41925 0.0
C2733 C 0.55438 0.90797 0.43039 0.0
C2734 C 0.08117 0.53508 0.40971 0.0
C2735 C 0.10196 0.52728 0.40197 0.0
H2736 H 0.06332 0.56105 0.42663 0.0
C2737 C 0.12121 0.53969 0.40699 0.0
H2738 H 0.06592 0.52617 0.40602 0.0
C2739 C 0.11964 0.55981 0.41862 0.0
C2740 C 0.09881 0.5679 0.42568 0.0
H2741 H 0.13753 0.53403 0.40177 0.0
H2742 H 0.13475 0.56922 0.42174 0.0
C2743 C 0.07963 0.55514 0.42153 0.0
C2744 C 0.45942 0.09012 0.41836 0.0
C2745 C 0.46431 0.10914 0.40548 0.0
H2746 H 0.436 0.07368 0.43969 0.0
C2747 C 0.44965 0.1274 0.40625 0.0
H2748 H 0.4702 0.07564 0.41797 0.0
C2749 C 0.42996 0.12624 0.41867 0.0
C2750 C 0.42449 0.10675 0.43053 0.0
H2751 H 0.45313 0.14238 0.39678 0.0
H2752 H 0.41864 0.14033 0.41828 0.0
C2753 C 0.43973 0.08894 0.43075 0.0
C2754 C 0.12342 0.4496 0.59978 0.0
C2755 C 0.10775 0.46654 0.59553 0.0
H2756 H 0.13466 0.41665 0.59219 0.0
C2757 C 0.09174 0.46305 0.57865 0.0
H2758 H 0.13591 0.45147 0.61266 0.0
C2759 C 0.09086 0.44284 0.56704 0.0
C2760 C 0.10611 0.42574 0.57185 0.0
H2761 H 0.07968 0.47578 0.57442 0.0
H2762 H 0.07797 0.44048 0.55458 0.0
C2763 C 0.12267 0.42951 0.58802 0.0
C2764 C 0.54472 0.1255 0.5911 0.0
C2765 C 0.52993 0.10737 0.59198 0.0
H2766 H 0.57579 0.13811 0.57897 0.0
C2767 C 0.53475 0.08814 0.57938 0.0
H2768 H 0.5413 0.1406 0.60039 0.0
C2769 C 0.55449 0.08667 0.56705 0.0
C2770 C 0.5698 0.10441 0.56708 0.0
H2771 H 0.52384 0.07376 0.57989 0.0
H2772 H 0.55816 0.07129 0.55829 0.0
C2773 C 0.56442 0.12406 0.57873 0.0
C2774 C 0.44815 0.86771 0.58994 0.0
C2775 C 0.46287 0.88593 0.59071 0.0
H2776 H 0.41708 0.85491 0.57796 0.0
C2777 C 0.45801 0.90499 0.57788 0.0
H2778 H 0.45161 0.85271 0.59939 0.0
C2779 C 0.43829 0.90626 0.56555 0.0
C2780 C 0.423 0.8885 0.56578 0.0
H2781 H 0.46884 0.91943 0.57828 0.0
H2782 H 0.43459 0.92156 0.55666 0.0
C2783 C 0.42844 0.86896 0.57757 0.0
loop_
_geom_bond_atom_site_label_1
_geom_bond_atom_site_label_2
_geom_bond_distance
_geom_bond_site_symmetry_2
_ccdc_geom_bond_type
C0 C1 1.351 . S
C0 N3 1.368 . S
C0 H5 0.931 . S
C1 C0 1.351 . S
C1 N2 1.373 1_455 S
C1 H29 0.930 . S
N2 C1 1.373 1_655 S
N2 C4 1.340 1_655 S
N3 C0 1.368 . S
N3 C4 1.321 . S
N3 Co6 2.135 . S
C4 N2 1.340 1_455 S
C4 N3 1.321 . S
C4 H28 0.930 1_455 S
H5 C0 0.931 . S
Co6 N3 2.135 . S
Co6 N9 2.121 . S
Co6 O14 2.055 . S
Co6 O17 2.039 . S
Co6 N20 2.140 . S
C7 O8 1.227 . S
C7 O17 1.265 . S
O8 C7 1.227 . S
N9 Co6 2.121 . S
N9 C11 1.375 . S
N9 C12 1.313 . S
C10 C11 1.338 . S
C10 N13 1.377 . S
C10 H30 0.930 . S
C11 N9 1.375 . S
C11 C10 1.338 . S
C11 H15 0.931 . S
C12 N9 1.313 . S
C12 N13 1.344 . S
C12 H16 0.930 . S
N13 C10 1.377 . S
N13 C12 1.344 . S
O14 Co6 2.055 . S
O14 C18 1.253 . S
H15 C11 0.931 . S
H16 C12 0.930 . S
O17 Co6 2.039 . S
O17 C7 1.265 . S
C18 O14 1.253 . S
C18 O19 1.227 . S
O19 C18 1.227 . S
N20 Co6 2.140 . S
N20 C23 1.346 . S
N20 C24 1.345 . S
C21 C22 1.387 . S
C21 C25 1.391 . S
C22 C21 1.387 . S
C22 C23 1.369 . S
C22 H31 0.929 . S
C23 N20 1.346 . S
C23 C22 1.369 . S
C23 H26 0.928 . S
C24 N20 1.345 . S
C24 C25 1.371 . S
C24 H27 0.931 . S
C25 C21 1.391 . S
C25 C24 1.371 . S
C25 H32 0.930 . S
H26 C23 0.928 . S
H27 C24 0.931 . S
H28 C4 0.930 1_655 S
H29 C1 0.930 . S
H30 C10 0.930 . S
H31 C22 0.929 . S
H32 C25 0.930 . S
C33 C34 1.351 . S
C33 N36 1.368 . S
C33 H38 0.931 . S
C34 C33 1.351 . S
C34 N35 1.373 1_545 S
C34 H62 0.930 . S
N35 C34 1.373 1_565 S
N35 C37 1.340 1_565 S
N36 C33 1.368 . S
N36 C37 1.321 . S
N36 Co39 2.135 . S
C37 N35 1.340 1_545 S
C37 N36 1.321 . S
C37 H61 0.930 1_545 S
H38 C33 0.931 . S
Co39 N36 2.135 . S
Co39 N42 2.121 . S
Co39 O47 2.055 . S
Co39 O50 2.039 . S
Co39 N53 2.140 . S
C40 O41 1.227 . S
C40 O50 1.265 . S
O41 C40 1.227 . S
N42 Co39 2.121 . S
N42 C44 1.375 . S
N42 C45 1.313 . S
C43 C44 1.338 . S
C43 N46 1.377 . S
C43 H63 0.930 . S
C44 N42 1.375 . S
C44 C43 1.338 . S
C44 H48 0.931 . S
C45 N42 1.313 . S
C45 N46 1.344 . S
C45 H49 0.930 . S
N46 C43 1.377 . S
N46 C45 1.344 . S
O47 Co39 2.055 . S
O47 C51 1.253 . S
H48 C44 0.931 . S
H49 C45 0.930 . S
O50 Co39 2.039 . S
O50 C40 1.265 . S
C51 O47 1.253 . S
C51 O52 1.227 . S
O52 C51 1.227 . S
N53 Co39 2.140 . S
N53 C56 1.346 . S
N53 C57 1.345 . S
C54 C55 1.387 . S
C54 C58 1.391 . S
C55 C54 1.387 . S
C55 C56 1.369 . S
C55 H64 0.929 . S
C56 N53 1.346 . S
C56 C55 1.369 . S
C56 H59 0.928 . S
C57 N53 1.345 . S
C57 C58 1.371 . S
C57 H60 0.931 . S
C58 C54 1.391 . S
C58 C57 1.371 . S
C58 H65 0.930 . S
H59 C56 0.928 . S
H60 C57 0.931 . S
H61 C37 0.930 1_565 S
H62 C34 0.930 . S
H63 C43 0.930 . S
H64 C55 0.929 . S
H65 C58 0.930 . S
C66 C67 1.351 . S
C66 N69 1.368 . S
C66 H71 0.931 . S
C67 C66 1.351 . S
C67 N68 1.373 1_655 S
C67 H95 0.930 . S
N68 C67 1.373 1_455 S
N68 C70 1.340 1_455 S
N69 C66 1.368 . S
N69 C70 1.321 . S
N69 Co72 2.135 . S
C70 N68 1.340 1_655 S
C70 N69 1.321 . S
C70 H94 0.930 1_655 S
H71 C66 0.931 . S
Co72 N69 2.135 . S
Co72 N75 2.121 . S
Co72 O80 2.055 . S
Co72 O83 2.039 . S
Co72 N86 2.140 . S
C73 O74 1.227 . S
C73 O83 1.265 . S
O74 C73 1.227 . S
N75 Co72 2.121 . S
N75 C77 1.375 . S
N75 C78 1.313 . S
C76 C77 1.338 . S
C76 N79 1.377 . S
C76 H96 0.930 . S
C77 N75 1.375 . S
C77 C76 1.338 . S
C77 H81 0.931 . S
C78 N75 1.313 . S
C78 N79 1.344 . S
C78 H82 0.930 . S
N79 C76 1.377 . S
N79 C78 1.344 . S
O80 Co72 2.055 . S
O80 C84 1.253 . S
H81 C77 0.931 . S
H82 C78 0.930 . S
O83 Co72 2.039 . S
O83 C73 1.265 . S
C84 O80 1.253 . S
C84 O85 1.227 . S
O85 C84 1.227 . S
N86 Co72 2.140 . S
N86 C89 1.346 . S
N86 C90 1.345 . S
C87 C88 1.387 . S
C87 C91 1.391 . S
C88 C87 1.387 . S
C88 C89 1.369 . S
C88 H97 0.929 . S
C89 N86 1.346 . S
C89 C88 1.369 . S
C89 H92 0.928 . S
C90 N86 1.345 . S
C90 C91 1.371 . S
C90 H93 0.931 . S
C91 C87 1.391 . S
C91 C90 1.371 . S
C91 H98 0.930 . S
H92 C89 0.928 . S
H93 C90 0.931 . S
H94 C70 0.930 1_455 S
H95 C67 0.930 . S
H96 C76 0.930 . S
H97 C88 0.929 . S
H98 C91 0.930 . S
C99 C100 1.351 . S
C99 N102 1.368 . S
C99 H104 0.931 . S
C100 C99 1.351 . S
C100 N101 1.373 1_565 S
C100 H128 0.930 . S
N101 C100 1.373 1_545 S
N101 C103 1.340 1_545 S
N102 C99 1.368 . S
N102 C103 1.321 . S
N102 Co105 2.135 . S
C103 N101 1.340 1_565 S
C103 N102 1.321 . S
C103 H127 0.930 1_565 S
H104 C99 0.931 . S
Co105 N102 2.135 . S
Co105 N108 2.121 . S
Co105 O113 2.055 . S
Co105 O116 2.039 . S
Co105 N119 2.140 . S
C106 O107 1.227 . S
C106 O116 1.265 . S
O107 C106 1.227 . S
N108 Co105 2.121 . S
N108 C110 1.375 . S
N108 C111 1.313 . S
C109 C110 1.338 . S
C109 N112 1.377 . S
C109 H129 0.930 . S
C110 N108 1.375 . S
C110 C109 1.338 . S
C110 H114 0.931 . S
C111 N108 1.313 . S
C111 N112 1.344 . S
C111 H115 0.930 . S
N112 C109 1.377 . S
N112 C111 1.344 . S
O113 Co105 2.055 . S
O113 C117 1.253 . S
H114 C110 0.931 . S
H115 C111 0.930 . S
O116 Co105 2.039 . S
O116 C106 1.265 . S
C117 O113 1.253 . S
C117 O118 1.227 . S
O118 C117 1.227 . S
N119 Co105 2.140 . S
N119 C122 1.346 . S
N119 C123 1.345 . S
C120 C121 1.387 . S
C120 C124 1.391 . S
C121 C120 1.387 . S
C121 C122 1.369 . S
C121 H130 0.929 . S
C122 N119 1.346 . S
C122 C121 1.369 . S
C122 H125 0.928 . S
C123 N119 1.345 . S
C123 C124 1.371 . S
C123 H126 0.931 . S
C124 C120 1.391 . S
C124 C123 1.371 . S
C124 H131 0.930 . S
H125 C122 0.928 . S
H126 C123 0.931 . S
H127 C103 0.930 1_545 S
H128 C100 0.930 . S
H129 C109 0.930 . S
H130 C121 0.929 . S
H131 C124 0.930 . S
C132 C133 1.351 . S
C132 N135 1.368 . S
C132 H137 0.931 . S
C133 C132 1.351 . S
C133 N134 1.373 1_455 S
C133 H161 0.930 . S
N134 C133 1.373 1_655 S
N134 C136 1.340 1_655 S
N135 C132 1.368 . S
N135 C136 1.321 . S
N135 Co138 2.135 . S
C136 N134 1.340 1_455 S
C136 N135 1.321 . S
C136 H160 0.930 1_455 S
H137 C132 0.931 . S
Co138 N135 2.135 . S
Co138 N141 2.121 . S
Co138 O146 2.055 . S
Co138 O149 2.039 . S
Co138 N152 2.140 . S
C139 O140 1.227 . S
C139 O149 1.265 . S
O140 C139 1.227 . S
N141 Co138 2.121 . S
N141 C143 1.375 . S
N141 C144 1.313 . S
C142 C143 1.338 . S
C142 N145 1.377 . S
C142 H162 0.930 . S
C143 N141 1.375 . S
C143 C142 1.338 . S
C143 H147 0.931 . S
C144 N141 1.313 . S
C144 N145 1.344 . S
C144 H148 0.930 . S
N145 C142 1.377 . S
N145 C144 1.344 . S
O146 Co138 2.055 . S
O146 C150 1.253 . S
H147 C143 0.931 . S
H148 C144 0.930 . S
O149 Co138 2.039 . S
O149 C139 1.265 . S
C150 O146 1.253 . S
C150 O151 1.227 . S
O151 C150 1.227 . S
N152 Co138 2.140 . S
N152 C155 1.346 . S
N152 C156 1.345 . S
C153 C154 1.387 . S
C153 C157 1.391 . S
C154 C153 1.387 . S
C154 C155 1.369 . S
C154 H163 0.929 . S
C155 N152 1.346 . S
C155 C154 1.369 . S
C155 H158 0.928 . S
C156 N152 1.345 . S
C156 C157 1.371 . S
C156 H159 0.931 . S
C157 C153 1.391 . S
C157 C156 1.371 . S
C157 H164 0.930 . S
H158 C155 0.928 . S
H159 C156 0.931 . S
H160 C136 0.930 1_655 S
H161 C133 0.930 . S
H162 C142 0.930 . S
H163 C154 0.929 . S
H164 C157 0.930 . S
C165 C166 1.351 . S
C165 N168 1.368 . S
C165 H170 0.931 . S
C166 C165 1.351 . S
C166 N167 1.373 1_545 S
C166 H194 0.930 . S
N167 C166 1.373 1_565 S
N167 C169 1.340 1_565 S
N168 C165 1.368 . S
N168 C169 1.321 . S
N168 Co171 2.135 . S
C169 N167 1.340 1_545 S
C169 N168 1.321 . S
C169 H193 0.930 1_545 S
H170 C165 0.931 . S
Co171 N168 2.135 . S
Co171 N174 2.121 . S
Co171 O179 2.055 . S
Co171 O182 2.039 . S
Co171 N185 2.140 . S
C172 O173 1.227 . S
C172 O182 1.265 . S
O173 C172 1.227 . S
N174 Co171 2.121 . S
N174 C176 1.375 . S
N174 C177 1.313 . S
C175 C176 1.338 . S
C175 N178 1.377 . S
C175 H195 0.930 . S
C176 N174 1.375 . S
C176 C175 1.338 . S
C176 H180 0.931 . S
C177 N174 1.313 . S
C177 N178 1.344 . S
C177 H181 0.930 . S
N178 C175 1.377 . S
N178 C177 1.344 . S
O179 Co171 2.055 . S
O179 C183 1.253 . S
H180 C176 0.931 . S
H181 C177 0.930 . S
O182 Co171 2.039 . S
O182 C172 1.265 . S
C183 O179 1.253 . S
C183 O184 1.227 . S
O184 C183 1.227 . S
N185 Co171 2.140 . S
N185 C188 1.346 . S
N185 C189 1.345 . S
C186 C187 1.387 . S
C186 C190 1.391 . S
C187 C186 1.387 . S
C187 C188 1.369 . S
C187 H196 0.929 . S
C188 N185 1.346 . S
C188 C187 1.369 . S
C188 H191 0.928 . S
C189 N185 1.345 . S
C189 C190 1.371 . S
C189 H192 0.931 . S
C190 C186 1.391 . S
C190 C189 1.371 . S
C190 H197 0.930 . S
H191 C188 0.928 . S
H192 C189 0.931 . S
H193 C169 0.930 1_565 S
H194 C166 0.930 . S
H195 C175 0.930 . S
H196 C187 0.929 . S
H197 C190 0.930 . S
C198 C199 1.351 . S
C198 N201 1.368 . S
C198 H203 0.931 . S
C199 C198 1.351 . S
C199 N200 1.373 1_655 S
C199 H227 0.930 . S
N200 C199 1.373 1_455 S
N200 C202 1.340 1_455 S
N201 C198 1.368 . S
N201 C202 1.321 . S
N201 Co204 2.135 . S
C202 N200 1.340 1_655 S
C202 N201 1.321 . S
C202 H226 0.930 1_655 S
H203 C198 0.931 . S
Co204 N201 2.135 . S
Co204 N207 2.121 . S
Co204 O212 2.055 . S
Co204 O215 2.039 . S
Co204 N218 2.140 . S
C205 O206 1.227 . S
C205 O215 1.265 . S
O206 C205 1.227 . S
N207 Co204 2.121 . S
N207 C209 1.375 . S
N207 C210 1.313 . S
C208 C209 1.338 . S
C208 N211 1.377 . S
C208 H228 0.930 . S
C209 N207 1.375 . S
C209 C208 1.338 . S
C209 H213 0.931 . S
C210 N207 1.313 . S
C210 N211 1.344 . S
C210 H214 0.930 . S
N211 C208 1.377 . S
N211 C210 1.344 . S
O212 Co204 2.055 . S
O212 C216 1.253 . S
H213 C209 0.931 . S
H214 C210 0.930 . S
O215 Co204 2.039 . S
O215 C205 1.265 . S
C216 O212 1.253 . S
C216 O217 1.227 . S
O217 C216 1.227 . S
N218 Co204 2.140 . S
N218 C221 1.346 . S
N218 C222 1.345 . S
C219 C220 1.387 . S
C219 C223 1.391 . S
C220 C219 1.387 . S
C220 C221 1.369 . S
C220 H229 0.929 . S
C221 N218 1.346 . S
C221 C220 1.369 . S
C221 H224 0.928 . S
C222 N218 1.345 . S
C222 C223 1.371 . S
C222 H225 0.931 . S
C223 C219 1.391 . S
C223 C222 1.371 . S
C223 H230 0.930 . S
H224 C221 0.928 . S
H225 C222 0.931 . S
H226 C202 0.930 1_455 S
H227 C199 0.930 . S
H228 C208 0.930 . S
H229 C220 0.929 . S
H230 C223 0.930 . S
C231 C232 1.351 . S
C231 N234 1.368 . S
C231 H236 0.931 . S
C232 C231 1.351 . S
C232 N233 1.373 1_565 S
C232 H260 0.930 . S
N233 C232 1.373 1_545 S
N233 C235 1.340 1_545 S
N234 C231 1.368 . S
N234 C235 1.321 . S
N234 Co237 2.135 . S
C235 N233 1.340 1_565 S
C235 N234 1.321 . S
C235 H259 0.930 1_565 S
H236 C231 0.931 . S
Co237 N234 2.135 . S
Co237 N240 2.121 . S
Co237 O245 2.055 . S
Co237 O248 2.039 . S
Co237 N251 2.140 . S
C238 O239 1.227 . S
C238 O248 1.265 . S
O239 C238 1.227 . S
N240 Co237 2.121 . S
N240 C242 1.375 . S
N240 C243 1.313 . S
C241 C242 1.338 . S
C241 N244 1.377 . S
C241 H261 0.930 . S
C242 N240 1.375 . S
C242 C241 1.338 . S
C242 H246 0.931 . S
C243 N240 1.313 . S
C243 N244 1.344 . S
C243 H247 0.930 . S
N244 C241 1.377 . S
N244 C243 1.344 . S
O245 Co237 2.055 . S
O245 C249 1.253 . S
H246 C242 0.931 . S
H247 C243 0.930 . S
O248 Co237 2.039 . S
O248 C238 1.265 . S
C249 O245 1.253 . S
C249 O250 1.227 . S
O250 C249 1.227 . S
N251 Co237 2.140 . S
N251 C254 1.346 . S
N251 C255 1.345 . S
C252 C253 1.387 . S
C252 C256 1.391 . S
C253 C252 1.387 . S
C253 C254 1.369 . S
C253 H262 0.929 . S
C254 N251 1.346 . S
C254 C253 1.369 . S
C254 H257 0.928 . S
C255 N251 1.345 . S
C255 C256 1.371 . S
C255 H258 0.931 . S
C256 C252 1.391 . S
C256 C255 1.371 . S
C256 H263 0.930 . S
H257 C254 0.928 . S
H258 C255 0.931 . S
H259 C235 0.930 1_545 S
H260 C232 0.930 . S
H261 C241 0.930 . S
H262 C253 0.929 . S
H263 C256 0.930 . S
C264 C265 1.351 . S
C264 N267 1.368 . S
C264 H269 0.931 . S
C265 C264 1.351 . S
C265 N266 1.373 1_545 S
C265 H293 0.930 . S
N266 C265 1.373 1_565 S
N266 C268 1.340 1_565 S
N267 C264 1.368 . S
N267 C268 1.321 . S
N267 Co270 2.135 . S
C268 N266 1.340 1_545 S
C268 N267 1.321 . S
C268 H292 0.930 1_545 S
H269 C264 0.931 . S
Co270 N267 2.135 . S
Co270 N273 2.121 . S
Co270 O278 2.055 . S
Co270 O281 2.039 . S
Co270 N284 2.140 . S
C271 O272 1.227 . S
C271 O281 1.265 . S
O272 C271 1.227 . S
N273 Co270 2.121 . S
N273 C275 1.375 . S
N273 C276 1.313 . S
C274 C275 1.338 . S
C274 N277 1.377 . S
C274 H294 0.930 . S
C275 N273 1.375 . S
C275 C274 1.338 . S
C275 H279 0.931 . S
C276 N273 1.313 . S
C276 N277 1.344 . S
C276 H280 0.930 . S
N277 C274 1.377 . S
N277 C276 1.344 . S
O278 Co270 2.055 . S
O278 C282 1.253 . S
H279 C275 0.931 . S
H280 C276 0.930 . S
O281 Co270 2.039 . S
O281 C271 1.265 . S
C282 O278 1.253 . S
C282 O283 1.227 . S
O283 C282 1.227 . S
N284 Co270 2.140 . S
N284 C287 1.346 . S
N284 C288 1.345 . S
C285 C286 1.387 . S
C285 C289 1.391 . S
C286 C285 1.387 . S
C286 C287 1.369 . S
C286 H295 0.929 . S
C287 N284 1.346 . S
C287 C286 1.369 . S
C287 H290 0.928 . S
C288 N284 1.345 . S
C288 C289 1.371 . S
C288 H291 0.931 . S
C289 C285 1.391 . S
C289 C288 1.371 . S
C289 H296 0.930 . S
H290 C287 0.928 . S
H291 C288 0.931 . S
H292 C268 0.930 1_565 S
H293 C265 0.930 . S
H294 C274 0.930 . S
H295 C286 0.929 . S
H296 C289 0.930 . S
C297 C298 1.351 . S
C297 N300 1.368 . S
C297 H302 0.931 . S
C298 C297 1.351 . S
C298 N299 1.373 1_655 S
C298 H326 0.930 . S
N299 C298 1.373 1_455 S
N299 C301 1.340 1_455 S
N300 C297 1.368 . S
N300 C301 1.321 . S
N300 Co303 2.135 . S
C301 N299 1.340 1_655 S
C301 N300 1.321 . S
C301 H325 0.930 1_655 S
H302 C297 0.931 . S
Co303 N300 2.135 . S
Co303 N306 2.121 . S
Co303 O311 2.055 . S
Co303 O314 2.039 . S
Co303 N317 2.140 . S
C304 O305 1.227 . S
C304 O314 1.265 . S
O305 C304 1.227 . S
N306 Co303 2.121 . S
N306 C308 1.375 . S
N306 C309 1.313 . S
C307 C308 1.338 . S
C307 N310 1.377 . S
C307 H327 0.930 . S
C308 N306 1.375 . S
C308 C307 1.338 . S
C308 H312 0.931 . S
C309 N306 1.313 . S
C309 N310 1.344 . S
C309 H313 0.930 . S
N310 C307 1.377 . S
N310 C309 1.344 . S
O311 Co303 2.055 . S
O311 C315 1.253 . S
H312 C308 0.931 . S
H313 C309 0.930 . S
O314 Co303 2.039 . S
O314 C304 1.265 . S
C315 O311 1.253 . S
C315 O316 1.227 . S
O316 C315 1.227 . S
N317 Co303 2.140 . S
N317 C320 1.346 . S
N317 C321 1.345 . S
C318 C319 1.387 . S
C318 C322 1.391 . S
C319 C318 1.387 . S
C319 C320 1.369 . S
C319 H328 0.929 . S
C320 N317 1.346 . S
C320 C319 1.369 . S
C320 H323 0.928 . S
C321 N317 1.345 . S
C321 C322 1.371 . S
C321 H324 0.931 . S
C322 C318 1.391 . S
C322 C321 1.371 . S
C322 H329 0.930 . S
H323 C320 0.928 . S
H324 C321 0.931 . S
H325 C301 0.930 1_455 S
H326 C298 0.930 . S
H327 C307 0.930 . S
H328 C319 0.929 . S
H329 C322 0.930 . S
C330 C331 1.351 . S
C330 N333 1.368 . S
C330 H335 0.931 . S
C331 C330 1.351 . S
C331 N332 1.373 1_565 S
C331 H359 0.930 . S
N332 C331 1.373 1_545 S
N332 C334 1.340 1_545 S
N333 C330 1.368 . S
N333 C334 1.321 . S
N333 Co336 2.135 . S
C334 N332 1.340 1_565 S
C334 N333 1.321 . S
C334 H358 0.930 1_565 S
H335 C330 0.931 . S
Co336 N333 2.135 . S
Co336 N339 2.121 . S
Co336 O344 2.055 . S
Co336 O347 2.039 . S
Co336 N350 2.140 . S
C337 O338 1.227 . S
C337 O347 1.265 . S
O338 C337 1.227 . S
N339 Co336 2.121 . S
N339 C341 1.375 . S
N339 C342 1.313 . S
C340 C341 1.338 . S
C340 N343 1.377 . S
C340 H360 0.930 . S
C341 N339 1.375 . S
C341 C340 1.338 . S
C341 H345 0.931 . S
C342 N339 1.313 . S
C342 N343 1.344 . S
C342 H346 0.930 . S
N343 C340 1.377 . S
N343 C342 1.344 . S
O344 Co336 2.055 . S
O344 C348 1.253 . S
H345 C341 0.931 . S
H346 C342 0.930 . S
O347 Co336 2.039 . S
O347 C337 1.265 . S
C348 O344 1.253 . S
C348 O349 1.227 . S
O349 C348 1.227 . S
N350 Co336 2.140 . S
N350 C353 1.346 . S
N350 C354 1.345 . S
C351 C352 1.387 . S
C351 C355 1.391 . S
C352 C351 1.387 . S
C352 C353 1.369 . S
C352 H361 0.929 . S
C353 N350 1.346 . S
C353 C352 1.369 . S
C353 H356 0.928 . S
C354 N350 1.345 . S
C354 C355 1.371 . S
C354 H357 0.931 . S
C355 C351 1.391 . S
C355 C354 1.371 . S
C355 H362 0.930 . S
H356 C353 0.928 . S
H357 C354 0.931 . S
H358 C334 0.930 1_545 S
H359 C331 0.930 . S
H360 C340 0.930 . S
H361 C352 0.929 . S
H362 C355 0.930 . S
C363 C364 1.351 . S
C363 N366 1.368 . S
C363 H368 0.931 . S
C364 C363 1.351 . S
C364 N365 1.373 1_455 S
C364 H392 0.930 . S
N365 C364 1.373 1_655 S
N365 C367 1.340 1_655 S
N366 C363 1.368 . S
N366 C367 1.321 . S
N366 Co369 2.135 . S
C367 N365 1.340 1_455 S
C367 N366 1.321 . S
C367 H391 0.930 1_455 S
H368 C363 0.931 . S
Co369 N366 2.135 . S
Co369 N372 2.121 . S
Co369 O377 2.055 . S
Co369 O380 2.039 . S
Co369 N383 2.140 . S
C370 O371 1.227 . S
C370 O380 1.265 . S
O371 C370 1.227 . S
N372 Co369 2.121 . S
N372 C374 1.375 . S
N372 C375 1.313 . S
C373 C374 1.338 . S
C373 N376 1.377 . S
C373 H393 0.930 . S
C374 N372 1.375 . S
C374 C373 1.338 . S
C374 H378 0.931 . S
C375 N372 1.313 . S
C375 N376 1.344 . S
C375 H379 0.930 . S
N376 C373 1.377 . S
N376 C375 1.344 . S
O377 Co369 2.055 . S
O377 C381 1.253 . S
H378 C374 0.931 . S
H379 C375 0.930 . S
O380 Co369 2.039 . S
O380 C370 1.265 . S
C381 O377 1.253 . S
C381 O382 1.227 . S
O382 C381 1.227 . S
N383 Co369 2.140 . S
N383 C386 1.346 . S
N383 C387 1.345 . S
C384 C385 1.387 . S
C384 C388 1.391 . S
C385 C384 1.387 . S
C385 C386 1.369 . S
C385 H394 0.929 . S
C386 N383 1.346 . S
C386 C385 1.369 . S
C386 H389 0.928 . S
C387 N383 1.345 . S
C387 C388 1.371 . S
C387 H390 0.931 . S
C388 C384 1.391 . S
C388 C387 1.371 . S
C388 H395 0.930 . S
H389 C386 0.928 . S
H390 C387 0.931 . S
H391 C367 0.930 1_655 S
H392 C364 0.930 . S
H393 C373 0.930 . S
H394 C385 0.929 . S
H395 C388 0.930 . S
C396 C397 1.351 . S
C396 N399 1.368 . S
C396 H401 0.931 . S
C397 C396 1.351 . S
C397 N398 1.373 1_565 S
C397 H425 0.930 . S
N398 C397 1.373 1_545 S
N398 C400 1.340 1_545 S
N399 C396 1.368 . S
N399 C400 1.321 . S
N399 Co402 2.135 . S
C400 N398 1.340 1_565 S
C400 N399 1.321 . S
C400 H424 0.930 1_565 S
H401 C396 0.931 . S
Co402 N399 2.135 . S
Co402 N405 2.121 . S
Co402 O410 2.055 . S
Co402 O413 2.039 . S
Co402 N416 2.140 . S
C403 O404 1.227 . S
C403 O413 1.265 . S
O404 C403 1.227 . S
N405 Co402 2.121 . S
N405 C407 1.375 . S
N405 C408 1.313 . S
C406 C407 1.338 . S
C406 N409 1.377 . S
C406 H426 0.930 . S
C407 N405 1.375 . S
C407 C406 1.338 . S
C407 H411 0.931 . S
C408 N405 1.313 . S
C408 N409 1.344 . S
C408 H412 0.930 . S
N409 C406 1.377 . S
N409 C408 1.344 . S
O410 Co402 2.055 . S
O410 C414 1.253 . S
H411 C407 0.931 . S
H412 C408 0.930 . S
O413 Co402 2.039 . S
O413 C403 1.265 . S
C414 O410 1.253 . S
C414 O415 1.227 . S
O415 C414 1.227 . S
N416 Co402 2.140 . S
N416 C419 1.346 . S
N416 C420 1.345 . S
C417 C418 1.387 . S
C417 C421 1.391 . S
C418 C417 1.387 . S
C418 C419 1.369 . S
C418 H427 0.929 . S
C419 N416 1.346 . S
C419 C418 1.369 . S
C419 H422 0.928 . S
C420 N416 1.345 . S
C420 C421 1.371 . S
C420 H423 0.931 . S
C421 C417 1.391 . S
C421 C420 1.371 . S
C421 H428 0.930 . S
H422 C419 0.928 . S
H423 C420 0.931 . S
H424 C400 0.930 1_545 S
H425 C397 0.930 . S
H426 C406 0.930 . S
H427 C418 0.929 . S
H428 C421 0.930 . S
C429 C430 1.351 . S
C429 N432 1.368 . S
C429 H434 0.931 . S
C430 C429 1.351 . S
C430 N431 1.373 1_455 S
C430 H458 0.930 . S
N431 C430 1.373 1_655 S
N431 C433 1.340 1_655 S
N432 C429 1.368 . S
N432 C433 1.321 . S
N432 Co435 2.135 . S
C433 N431 1.340 1_455 S
C433 N432 1.321 . S
C433 H457 0.930 1_455 S
H434 C429 0.931 . S
Co435 N432 2.135 . S
Co435 N438 2.121 . S
Co435 O443 2.055 . S
Co435 O446 2.039 . S
Co435 N449 2.140 . S
C436 O437 1.227 . S
C436 O446 1.265 . S
O437 C436 1.227 . S
N438 Co435 2.121 . S
N438 C440 1.375 . S
N438 C441 1.313 . S
C439 C440 1.338 . S
C439 N442 1.377 . S
C439 H459 0.930 . S
C440 N438 1.375 . S
C440 C439 1.338 . S
C440 H444 0.931 . S
C441 N438 1.313 . S
C441 N442 1.344 . S
C441 H445 0.930 . S
N442 C439 1.377 . S
N442 C441 1.344 . S
O443 Co435 2.055 . S
O443 C447 1.253 . S
H444 C440 0.931 . S
H445 C441 0.930 . S
O446 Co435 2.039 . S
O446 C436 1.265 . S
C447 O443 1.253 . S
C447 O448 1.227 . S
O448 C447 1.227 . S
N449 Co435 2.140 . S
N449 C452 1.346 . S
N449 C453 1.345 . S
C450 C451 1.387 . S
C450 C454 1.391 . S
C451 C450 1.387 . S
C451 C452 1.369 . S
C451 H460 0.929 . S
C452 N449 1.346 . S
C452 C451 1.369 . S
C452 H455 0.928 . S
C453 N449 1.345 . S
C453 C454 1.371 . S
C453 H456 0.931 . S
C454 C450 1.391 . S
C454 C453 1.371 . S
C454 H461 0.930 . S
H455 C452 0.928 . S
H456 C453 0.931 . S
H457 C433 0.930 1_655 S
H458 C430 0.930 . S
H459 C439 0.930 . S
H460 C451 0.929 . S
H461 C454 0.930 . S
C462 C463 1.351 . S
C462 N465 1.368 . S
C462 H467 0.931 . S
C463 C462 1.351 . S
C463 N464 1.373 1_545 S
C463 H491 0.930 . S
N464 C463 1.373 1_565 S
N464 C466 1.340 1_565 S
N465 C462 1.368 . S
N465 C466 1.321 . S
N465 Co468 2.135 . S
C466 N464 1.340 1_545 S
C466 N465 1.321 . S
C466 H490 0.930 1_545 S
H467 C462 0.931 . S
Co468 N465 2.135 . S
Co468 N471 2.121 . S
Co468 O476 2.055 . S
Co468 O479 2.039 . S
Co468 N482 2.140 . S
C469 O470 1.227 . S
C469 O479 1.265 . S
O470 C469 1.227 . S
N471 Co468 2.121 . S
N471 C473 1.375 . S
N471 C474 1.313 . S
C472 C473 1.338 . S
C472 N475 1.377 . S
C472 H492 0.930 . S
C473 N471 1.375 . S
C473 C472 1.338 . S
C473 H477 0.931 . S
C474 N471 1.313 . S
C474 N475 1.344 . S
C474 H478 0.930 . S
N475 C472 1.377 . S
N475 C474 1.344 . S
O476 Co468 2.055 . S
O476 C480 1.253 . S
H477 C473 0.931 . S
H478 C474 0.930 . S
O479 Co468 2.039 . S
O479 C469 1.265 . S
C480 O476 1.253 . S
C480 O481 1.227 . S
O481 C480 1.227 . S
N482 Co468 2.140 . S
N482 C485 1.346 . S
N482 C486 1.345 . S
C483 C484 1.387 . S
C483 C487 1.391 . S
C484 C483 1.387 . S
C484 C485 1.369 . S
C484 H493 0.929 . S
C485 N482 1.346 . S
C485 C484 1.369 . S
C485 H488 0.928 . S
C486 N482 1.345 . S
C486 C487 1.371 . S
C486 H489 0.931 . S
C487 C483 1.391 . S
C487 C486 1.371 . S
C487 H494 0.930 . S
H488 C485 0.928 . S
H489 C486 0.931 . S
H490 C466 0.930 1_565 S
H491 C463 0.930 . S
H492 C472 0.930 . S
H493 C484 0.929 . S
H494 C487 0.930 . S
C495 C496 1.351 . S
C495 N498 1.368 . S
C495 H500 0.931 . S
C496 C495 1.351 . S
C496 N497 1.373 1_655 S
C496 H524 0.930 . S
N497 C496 1.373 1_455 S
N497 C499 1.340 1_455 S
N498 C495 1.368 . S
N498 C499 1.321 . S
N498 Co501 2.135 . S
C499 N497 1.340 1_655 S
C499 N498 1.321 . S
C499 H523 0.930 1_655 S
H500 C495 0.931 . S
Co501 N498 2.135 . S
Co501 N504 2.121 . S
Co501 O509 2.055 . S
Co501 O512 2.039 . S
Co501 N515 2.140 . S
C502 O503 1.227 . S
C502 O512 1.265 . S
O503 C502 1.227 . S
N504 Co501 2.121 . S
N504 C506 1.375 . S
N504 C507 1.313 . S
C505 C506 1.338 . S
C505 N508 1.377 . S
C505 H525 0.930 . S
C506 N504 1.375 . S
C506 C505 1.338 . S
C506 H510 0.931 . S
C507 N504 1.313 . S
C507 N508 1.344 . S
C507 H511 0.930 . S
N508 C505 1.377 . S
N508 C507 1.344 . S
O509 Co501 2.055 . S
O509 C513 1.253 . S
H510 C506 0.931 . S
H511 C507 0.930 . S
O512 Co501 2.039 . S
O512 C502 1.265 . S
C513 O509 1.253 . S
C513 O514 1.227 . S
O514 C513 1.227 . S
N515 Co501 2.140 . S
N515 C518 1.346 . S
N515 C519 1.345 . S
C516 C517 1.387 . S
C516 C520 1.391 . S
C517 C516 1.387 . S
C517 C518 1.369 . S
C517 H526 0.929 . S
C518 N515 1.346 . S
C518 C517 1.369 . S
C518 H521 0.928 . S
C519 N515 1.345 . S
C519 C520 1.371 . S
C519 H522 0.931 . S
C520 C516 1.391 . S
C520 C519 1.371 . S
C520 H527 0.930 . S
H521 C518 0.928 . S
H522 C519 0.931 . S
H523 C499 0.930 1_455 S
H524 C496 0.930 . S
H525 C505 0.930 . S
H526 C517 0.929 . S
H527 C520 0.930 . S
C528 C529 1.351 . S
C528 N531 1.368 . S
C528 H533 0.931 . S
C529 C528 1.351 . S
C529 N530 1.373 1_554 S
C529 H557 0.930 . S
N530 C529 1.373 1_556 S
N530 C532 1.340 1_556 S
N531 C528 1.368 . S
N531 C532 1.321 . S
N531 Co534 2.135 . S
C532 N530 1.340 1_554 S
C532 N531 1.321 . S
C532 H556 0.930 1_554 S
H533 C528 0.931 . S
Co534 N531 2.135 . S
Co534 N537 2.121 . S
Co534 O542 2.055 . S
Co534 O545 2.039 . S
Co534 N548 2.140 . S
C535 O536 1.227 . S
C535 O545 1.265 . S
O536 C535 1.227 . S
N537 Co534 2.121 . S
N537 C539 1.375 . S
N537 C540 1.313 . S
C538 C539 1.338 . S
C538 N541 1.377 . S
C538 H558 0.930 . S
C539 N537 1.375 . S
C539 C538 1.338 . S
C539 H543 0.931 . S
C540 N537 1.313 . S
C540 N541 1.344 . S
C540 H544 0.930 . S
N541 C538 1.377 . S
N541 C540 1.344 . S
O542 Co534 2.055 . S
O542 C546 1.253 . S
H543 C539 0.931 . S
H544 C540 0.930 . S
O545 Co534 2.039 . S
O545 C535 1.265 . S
C546 O542 1.253 . S
C546 O547 1.227 . S
O547 C546 1.227 . S
N548 Co534 2.140 . S
N548 C551 1.346 . S
N548 C552 1.345 . S
C549 C550 1.387 . S
C549 C553 1.391 . S
C550 C549 1.387 . S
C550 C551 1.369 . S
C550 H559 0.929 . S
C551 N548 1.346 . S
C551 C550 1.369 . S
C551 H554 0.928 . S
C552 N548 1.345 . S
C552 C553 1.371 . S
C552 H555 0.931 . S
C553 C549 1.391 . S
C553 C552 1.371 . S
C553 H560 0.930 . S
H554 C551 0.928 . S
H555 C552 0.931 . S
H556 C532 0.930 1_556 S
H557 C529 0.930 . S
H558 C538 0.930 . S
H559 C550 0.929 . S
H560 C553 0.930 . S
C561 C562 1.351 . S
C561 N564 1.368 . S
C561 H566 0.931 . S
C562 C561 1.351 . S
C562 N563 1.373 1_556 S
C562 H590 0.930 . S
N563 C562 1.373 1_554 S
N563 C565 1.340 1_554 S
N564 C561 1.368 . S
N564 C565 1.321 . S
N564 Co567 2.135 . S
C565 N563 1.340 1_556 S
C565 N564 1.321 . S
C565 H589 0.930 1_556 S
H566 C561 0.931 . S
Co567 N564 2.135 . S
Co567 N570 2.121 . S
Co567 O575 2.055 . S
Co567 O578 2.039 . S
Co567 N581 2.140 . S
C568 O569 1.227 . S
C568 O578 1.265 . S
O569 C568 1.227 . S
N570 Co567 2.121 . S
N570 C572 1.375 . S
N570 C573 1.313 . S
C571 C572 1.338 . S
C571 N574 1.377 . S
C571 H591 0.930 . S
C572 N570 1.375 . S
C572 C571 1.338 . S
C572 H576 0.931 . S
C573 N570 1.313 . S
C573 N574 1.344 . S
C573 H577 0.930 . S
N574 C571 1.377 . S
N574 C573 1.344 . S
O575 Co567 2.055 . S
O575 C579 1.253 . S
H576 C572 0.931 . S
H577 C573 0.930 . S
O578 Co567 2.039 . S
O578 C568 1.265 . S
C579 O575 1.253 . S
C579 O580 1.227 . S
O580 C579 1.227 . S
N581 Co567 2.140 . S
N581 C584 1.346 . S
N581 C585 1.345 . S
C582 C583 1.387 . S
C582 C586 1.391 . S
C583 C582 1.387 . S
C583 C584 1.369 . S
C583 H592 0.929 . S
C584 N581 1.346 . S
C584 C583 1.369 . S
C584 H587 0.928 . S
C585 N581 1.345 . S
C585 C586 1.371 . S
C585 H588 0.931 . S
C586 C582 1.391 . S
C586 C585 1.371 . S
C586 H593 0.930 . S
H587 C584 0.928 . S
H588 C585 0.931 . S
H589 C565 0.930 1_554 S
H590 C562 0.930 . S
H591 C571 0.930 . S
H592 C583 0.929 . S
H593 C586 0.930 . S
C594 C595 1.351 . S
C594 N597 1.368 . S
C594 H599 0.931 . S
C595 C594 1.351 . S
C595 N596 1.373 1_556 S
C595 H623 0.930 . S
N596 C595 1.373 1_554 S
N596 C598 1.340 1_554 S
N597 C594 1.368 . S
N597 C598 1.321 . S
N597 Co600 2.135 . S
C598 N596 1.340 1_556 S
C598 N597 1.321 . S
C598 H622 0.930 1_556 S
H599 C594 0.931 . S
Co600 N597 2.135 . S
Co600 N603 2.121 . S
Co600 O608 2.055 . S
Co600 O611 2.039 . S
Co600 N614 2.140 . S
C601 O602 1.227 . S
C601 O611 1.265 . S
O602 C601 1.227 . S
N603 Co600 2.121 . S
N603 C605 1.375 . S
N603 C606 1.313 . S
C604 C605 1.338 . S
C604 N607 1.377 . S
C604 H624 0.930 . S
C605 N603 1.375 . S
C605 C604 1.338 . S
C605 H609 0.931 . S
C606 N603 1.313 . S
C606 N607 1.344 . S
C606 H610 0.930 . S
N607 C604 1.377 . S
N607 C606 1.344 . S
O608 Co600 2.055 . S
O608 C612 1.253 . S
H609 C605 0.931 . S
H610 C606 0.930 . S
O611 Co600 2.039 . S
O611 C601 1.265 . S
C612 O608 1.253 . S
C612 O613 1.227 . S
O613 C612 1.227 . S
N614 Co600 2.140 . S
N614 C617 1.346 . S
N614 C618 1.345 . S
C615 C616 1.387 . S
C615 C619 1.391 . S
C616 C615 1.387 . S
C616 C617 1.369 . S
C616 H625 0.929 . S
C617 N614 1.346 . S
C617 C616 1.369 . S
C617 H620 0.928 . S
C618 N614 1.345 . S
C618 C619 1.371 . S
C618 H621 0.931 . S
C619 C615 1.391 . S
C619 C618 1.371 . S
C619 H626 0.930 . S
H620 C617 0.928 . S
H621 C618 0.931 . S
H622 C598 0.930 1_554 S
H623 C595 0.930 . S
H624 C604 0.930 . S
H625 C616 0.929 . S
H626 C619 0.930 . S
C627 C628 1.351 . S
C627 N630 1.368 . S
C627 H632 0.931 . S
C628 C627 1.351 . S
C628 N629 1.373 1_556 S
C628 H656 0.930 . S
N629 C628 1.373 1_554 S
N629 C631 1.340 1_554 S
N630 C627 1.368 . S
N630 C631 1.321 . S
N630 Co633 2.135 . S
C631 N629 1.340 1_556 S
C631 N630 1.321 . S
C631 H655 0.930 1_556 S
H632 C627 0.931 . S
Co633 N630 2.135 . S
Co633 N636 2.121 . S
Co633 O641 2.055 . S
Co633 O644 2.039 . S
Co633 N647 2.140 . S
C634 O635 1.227 . S
C634 O644 1.265 . S
O635 C634 1.227 . S
N636 Co633 2.121 . S
N636 C638 1.375 . S
N636 C639 1.313 . S
C637 C638 1.338 . S
C637 N640 1.377 . S
C637 H657 0.930 . S
C638 N636 1.375 . S
C638 C637 1.338 . S
C638 H642 0.931 . S
C639 N636 1.313 . S
C639 N640 1.344 . S
C639 H643 0.930 . S
N640 C637 1.377 . S
N640 C639 1.344 . S
O641 Co633 2.055 . S
O641 C645 1.253 . S
H642 C638 0.931 . S
H643 C639 0.930 . S
O644 Co633 2.039 . S
O644 C634 1.265 . S
C645 O641 1.253 . S
C645 O646 1.227 . S
O646 C645 1.227 . S
N647 Co633 2.140 . S
N647 C650 1.346 . S
N647 C651 1.345 . S
C648 C649 1.387 . S
C648 C652 1.391 . S
C649 C648 1.387 . S
C649 C650 1.369 . S
C649 H658 0.929 . S
C650 N647 1.346 . S
C650 C649 1.369 . S
C650 H653 0.928 . S
C651 N647 1.345 . S
C651 C652 1.371 . S
C651 H654 0.931 . S
C652 C648 1.391 . S
C652 C651 1.371 . S
C652 H659 0.930 . S
H653 C650 0.928 . S
H654 C651 0.931 . S
H655 C631 0.930 1_554 S
H656 C628 0.930 . S
H657 C637 0.930 . S
H658 C649 0.929 . S
H659 C652 0.930 . S
C660 C661 1.351 . S
C660 N663 1.368 . S
C660 H665 0.931 . S
C661 C660 1.351 . S
C661 N662 1.373 1_556 S
C661 H689 0.930 . S
N662 C661 1.373 1_554 S
N662 C664 1.340 1_554 S
N663 C660 1.368 . S
N663 C664 1.321 . S
N663 Co666 2.135 . S
C664 N662 1.340 1_556 S
C664 N663 1.321 . S
C664 H688 0.930 1_556 S
H665 C660 0.931 . S
Co666 N663 2.135 . S
Co666 N669 2.121 . S
Co666 O674 2.055 . S
Co666 O677 2.039 . S
Co666 N680 2.140 . S
C667 O668 1.227 . S
C667 O677 1.265 . S
O668 C667 1.227 . S
N669 Co666 2.121 . S
N669 C671 1.375 . S
N669 C672 1.313 . S
C670 C671 1.338 . S
C670 N673 1.377 . S
C670 H690 0.930 . S
C671 N669 1.375 . S
C671 C670 1.338 . S
C671 H675 0.931 . S
C672 N669 1.313 . S
C672 N673 1.344 . S
C672 H676 0.930 . S
N673 C670 1.377 . S
N673 C672 1.344 . S
O674 Co666 2.055 . S
O674 C678 1.253 . S
H675 C671 0.931 . S
H676 C672 0.930 . S
O677 Co666 2.039 . S
O677 C667 1.265 . S
C678 O674 1.253 . S
C678 O679 1.227 . S
O679 C678 1.227 . S
N680 Co666 2.140 . S
N680 C683 1.346 . S
N680 C684 1.345 . S
C681 C682 1.387 . S
C681 C685 1.391 . S
C682 C681 1.387 . S
C682 C683 1.369 . S
C682 H691 0.929 . S
C683 N680 1.346 . S
C683 C682 1.369 . S
C683 H686 0.928 . S
C684 N680 1.345 . S
C684 C685 1.371 . S
C684 H687 0.931 . S
C685 C681 1.391 . S
C685 C684 1.371 . S
C685 H692 0.930 . S
H686 C683 0.928 . S
H687 C684 0.931 . S
H688 C664 0.930 1_554 S
H689 C661 0.930 . S
H690 C670 0.930 . S
H691 C682 0.929 . S
H692 C685 0.930 . S
C693 C694 1.351 . S
C693 N696 1.368 . S
C693 H698 0.931 . S
C694 C693 1.351 . S
C694 N695 1.373 1_554 S
C694 H722 0.930 . S
N695 C694 1.373 1_556 S
N695 C697 1.340 1_556 S
N696 C693 1.368 . S
N696 C697 1.321 . S
N696 Co699 2.135 . S
C697 N695 1.340 1_554 S
C697 N696 1.321 . S
C697 H721 0.930 1_554 S
H698 C693 0.931 . S
Co699 N696 2.135 . S
Co699 N702 2.121 . S
Co699 O707 2.055 . S
Co699 O710 2.039 . S
Co699 N713 2.140 . S
C700 O701 1.227 . S
C700 O710 1.265 . S
O701 C700 1.227 . S
N702 Co699 2.121 . S
N702 C704 1.375 . S
N702 C705 1.313 . S
C703 C704 1.338 . S
C703 N706 1.377 . S
C703 H723 0.930 . S
C704 N702 1.375 . S
C704 C703 1.338 . S
C704 H708 0.931 . S
C705 N702 1.313 . S
C705 N706 1.344 . S
C705 H709 0.930 . S
N706 C703 1.377 . S
N706 C705 1.344 . S
O707 Co699 2.055 . S
O707 C711 1.253 . S
H708 C704 0.931 . S
H709 C705 0.930 . S
O710 Co699 2.039 . S
O710 C700 1.265 . S
C711 O707 1.253 . S
C711 O712 1.227 . S
O712 C711 1.227 . S
N713 Co699 2.140 . S
N713 C716 1.346 . S
N713 C717 1.345 . S
C714 C715 1.387 . S
C714 C718 1.391 . S
C715 C714 1.387 . S
C715 C716 1.369 . S
C715 H724 0.929 . S
C716 N713 1.346 . S
C716 C715 1.369 . S
C716 H719 0.928 . S
C717 N713 1.345 . S
C717 C718 1.371 . S
C717 H720 0.931 . S
C718 C714 1.391 . S
C718 C717 1.371 . S
C718 H725 0.930 . S
H719 C716 0.928 . S
H720 C717 0.931 . S
H721 C697 0.930 1_556 S
H722 C694 0.930 . S
H723 C703 0.930 . S
H724 C715 0.929 . S
H725 C718 0.930 . S
C726 C727 1.351 . S
C726 N729 1.368 . S
C726 H731 0.931 . S
C727 C726 1.351 . S
C727 N728 1.373 1_554 S
C727 H755 0.930 . S
N728 C727 1.373 1_556 S
N728 C730 1.340 1_556 S
N729 C726 1.368 . S
N729 C730 1.321 . S
N729 Co732 2.135 . S
C730 N728 1.340 1_554 S
C730 N729 1.321 . S
C730 H754 0.930 1_554 S
H731 C726 0.931 . S
Co732 N729 2.135 . S
Co732 N735 2.121 . S
Co732 O740 2.055 . S
Co732 O743 2.039 . S
Co732 N746 2.140 . S
C733 O734 1.227 . S
C733 O743 1.265 . S
O734 C733 1.227 . S
N735 Co732 2.121 . S
N735 C737 1.375 . S
N735 C738 1.313 . S
C736 C737 1.338 . S
C736 N739 1.377 . S
C736 H756 0.930 . S
C737 N735 1.375 . S
C737 C736 1.338 . S
C737 H741 0.931 . S
C738 N735 1.313 . S
C738 N739 1.344 . S
C738 H742 0.930 . S
N739 C736 1.377 . S
N739 C738 1.344 . S
O740 Co732 2.055 . S
O740 C744 1.253 . S
H741 C737 0.931 . S
H742 C738 0.930 . S
O743 Co732 2.039 . S
O743 C733 1.265 . S
C744 O740 1.253 . S
C744 O745 1.227 . S
O745 C744 1.227 . S
N746 Co732 2.140 . S
N746 C749 1.346 . S
N746 C750 1.345 . S
C747 C748 1.387 . S
C747 C751 1.391 . S
C748 C747 1.387 . S
C748 C749 1.369 . S
C748 H757 0.929 . S
C749 N746 1.346 . S
C749 C748 1.369 . S
C749 H752 0.928 . S
C750 N746 1.345 . S
C750 C751 1.371 . S
C750 H753 0.931 . S
C751 C747 1.391 . S
C751 C750 1.371 . S
C751 H758 0.930 . S
H752 C749 0.928 . S
H753 C750 0.931 . S
H754 C730 0.930 1_556 S
H755 C727 0.930 . S
H756 C736 0.930 . S
H757 C748 0.929 . S
H758 C751 0.930 . S
C759 C760 1.351 . S
C759 N762 1.368 . S
C759 H764 0.931 . S
C760 C759 1.351 . S
C760 N761 1.373 1_554 S
C760 H788 0.930 . S
N761 C760 1.373 1_556 S
N761 C763 1.340 1_556 S
N762 C759 1.368 . S
N762 C763 1.321 . S
N762 Co765 2.135 . S
C763 N761 1.340 1_554 S
C763 N762 1.321 . S
C763 H787 0.930 1_554 S
H764 C759 0.931 . S
Co765 N762 2.135 . S
Co765 N768 2.121 . S
Co765 O773 2.055 . S
Co765 O776 2.039 . S
Co765 N779 2.140 . S
C766 O767 1.227 . S
C766 O776 1.265 . S
O767 C766 1.227 . S
N768 Co765 2.121 . S
N768 C770 1.375 . S
N768 C771 1.313 . S
C769 C770 1.338 . S
C769 N772 1.377 . S
C769 H789 0.930 . S
C770 N768 1.375 . S
C770 C769 1.338 . S
C770 H774 0.931 . S
C771 N768 1.313 . S
C771 N772 1.344 . S
C771 H775 0.930 . S
N772 C769 1.377 . S
N772 C771 1.344 . S
O773 Co765 2.055 . S
O773 C777 1.253 . S
H774 C770 0.931 . S
H775 C771 0.930 . S
O776 Co765 2.039 . S
O776 C766 1.265 . S
C777 O773 1.253 . S
C777 O778 1.227 . S
O778 C777 1.227 . S
N779 Co765 2.140 . S
N779 C782 1.346 . S
N779 C783 1.345 . S
C780 C781 1.387 . S
C780 C784 1.391 . S
C781 C780 1.387 . S
C781 C782 1.369 . S
C781 H790 0.929 . S
C782 N779 1.346 . S
C782 C781 1.369 . S
C782 H785 0.928 . S
C783 N779 1.345 . S
C783 C784 1.371 . S
C783 H786 0.931 . S
C784 C780 1.391 . S
C784 C783 1.371 . S
C784 H791 0.930 . S
H785 C782 0.928 . S
H786 C783 0.931 . S
H787 C763 0.930 1_556 S
H788 C760 0.930 . S
H789 C769 0.930 . S
H790 C781 0.929 . S
H791 C784 0.930 . S
C792 C793 1.351 . S
C792 N795 1.368 . S
C792 H797 0.931 . S
C793 C792 1.351 . S
C793 N794 1.373 . S
C793 H821 0.930 . S
N794 C793 1.373 . S
N794 C796 1.340 . S
N795 C792 1.368 . S
N795 C796 1.321 . S
N795 Co798 2.135 . S
C796 N794 1.340 . S
C796 N795 1.321 . S
C796 H820 0.930 . S
H797 C792 0.931 . S
Co798 N795 2.135 . S
Co798 N801 2.121 . S
Co798 O806 2.055 . S
Co798 O809 2.039 . S
Co798 N812 2.140 . S
C799 O800 1.227 . S
C799 O809 1.265 . S
O800 C799 1.227 . S
N801 Co798 2.121 . S
N801 C803 1.375 . S
N801 C804 1.313 . S
C802 C803 1.338 . S
C802 N805 1.377 . S
C802 H822 0.930 . S
C803 N801 1.375 . S
C803 C802 1.338 . S
C803 H807 0.931 . S
C804 N801 1.313 . S
C804 N805 1.344 . S
C804 H808 0.930 . S
N805 C802 1.377 . S
N805 C804 1.344 . S
O806 Co798 2.055 . S
O806 C810 1.253 . S
H807 C803 0.931 . S
H808 C804 0.930 . S
O809 Co798 2.039 . S
O809 C799 1.265 . S
C810 O806 1.253 . S
C810 O811 1.227 . S
O811 C810 1.227 . S
N812 Co798 2.140 . S
N812 C815 1.346 . S
N812 C816 1.345 . S
C813 C814 1.387 . S
C813 C817 1.391 . S
C814 C813 1.387 . S
C814 C815 1.369 . S
C814 H823 0.929 . S
C815 N812 1.346 . S
C815 C814 1.369 . S
C815 H818 0.928 . S
C816 N812 1.345 . S
C816 C817 1.371 . S
C816 H819 0.931 . S
C817 C813 1.391 . S
C817 C816 1.371 . S
C817 H824 0.930 . S
H818 C815 0.928 . S
H819 C816 0.931 . S
H820 C796 0.930 . S
H821 C793 0.930 . S
H822 C802 0.930 . S
H823 C814 0.929 . S
H824 C817 0.930 . S
C825 C826 1.351 . S
C825 N828 1.368 . S
C825 H830 0.931 . S
C826 C825 1.351 . S
C826 N827 1.373 . S
C826 H854 0.930 . S
N827 C826 1.373 . S
N827 C829 1.340 . S
N828 C825 1.368 . S
N828 C829 1.321 . S
N828 Co831 2.135 . S
C829 N827 1.340 . S
C829 N828 1.321 . S
C829 H853 0.930 . S
H830 C825 0.931 . S
Co831 N828 2.135 . S
Co831 N834 2.121 . S
Co831 O839 2.055 . S
Co831 O842 2.039 . S
Co831 N845 2.140 . S
C832 O833 1.227 . S
C832 O842 1.265 . S
O833 C832 1.227 . S
N834 Co831 2.121 . S
N834 C836 1.375 . S
N834 C837 1.313 . S
C835 C836 1.338 . S
C835 N838 1.377 . S
C835 H855 0.930 . S
C836 N834 1.375 . S
C836 C835 1.338 . S
C836 H840 0.931 . S
C837 N834 1.313 . S
C837 N838 1.344 . S
C837 H841 0.930 . S
N838 C835 1.377 . S
N838 C837 1.344 . S
O839 Co831 2.055 . S
O839 C843 1.253 . S
H840 C836 0.931 . S
H841 C837 0.930 . S
O842 Co831 2.039 . S
O842 C832 1.265 . S
C843 O839 1.253 . S
C843 O844 1.227 . S
O844 C843 1.227 . S
N845 Co831 2.140 . S
N845 C848 1.346 . S
N845 C849 1.345 . S
C846 C847 1.387 . S
C846 C850 1.391 . S
C847 C846 1.387 . S
C847 C848 1.369 . S
C847 H856 0.929 . S
C848 N845 1.346 . S
C848 C847 1.369 . S
C848 H851 0.928 . S
C849 N845 1.345 . S
C849 C850 1.371 . S
C849 H852 0.931 . S
C850 C846 1.391 . S
C850 C849 1.371 . S
C850 H857 0.930 . S
H851 C848 0.928 . S
H852 C849 0.931 . S
H853 C829 0.930 . S
H854 C826 0.930 . S
H855 C835 0.930 . S
H856 C847 0.929 . S
H857 C850 0.930 . S
C858 C859 1.351 . S
C858 N861 1.368 . S
C858 H863 0.931 . S
C859 C858 1.351 . S
C859 N860 1.373 . S
C859 H887 0.930 . S
N860 C859 1.373 . S
N860 C862 1.340 . S
N861 C858 1.368 . S
N861 C862 1.321 . S
N861 Co864 2.135 . S
C862 N860 1.340 . S
C862 N861 1.321 . S
C862 H886 0.930 . S
H863 C858 0.931 . S
Co864 N861 2.135 . S
Co864 N867 2.121 . S
Co864 O872 2.055 . S
Co864 O875 2.039 . S
Co864 N878 2.140 . S
C865 O866 1.227 . S
C865 O875 1.265 . S
O866 C865 1.227 . S
N867 Co864 2.121 . S
N867 C869 1.375 . S
N867 C870 1.313 . S
C868 C869 1.338 . S
C868 N871 1.377 . S
C868 H888 0.930 . S
C869 N867 1.375 . S
C869 C868 1.338 . S
C869 H873 0.931 . S
C870 N867 1.313 . S
C870 N871 1.344 . S
C870 H874 0.930 . S
N871 C868 1.377 . S
N871 C870 1.344 . S
O872 Co864 2.055 . S
O872 C876 1.253 . S
H873 C869 0.931 . S
H874 C870 0.930 . S
O875 Co864 2.039 . S
O875 C865 1.265 . S
C876 O872 1.253 . S
C876 O877 1.227 . S
O877 C876 1.227 . S
N878 Co864 2.140 . S
N878 C881 1.346 . S
N878 C882 1.345 . S
C879 C880 1.387 . S
C879 C883 1.391 . S
C880 C879 1.387 . S
C880 C881 1.369 . S
C880 H889 0.929 . S
C881 N878 1.346 . S
C881 C880 1.369 . S
C881 H884 0.928 . S
C882 N878 1.345 . S
C882 C883 1.371 . S
C882 H885 0.931 . S
C883 C879 1.391 . S
C883 C882 1.371 . S
C883 H890 0.930 . S
H884 C881 0.928 . S
H885 C882 0.931 . S
H886 C862 0.930 . S
H887 C859 0.930 . S
H888 C868 0.930 . S
H889 C880 0.929 . S
H890 C883 0.930 . S
C891 C892 1.351 . S
C891 N894 1.368 . S
C891 H896 0.931 . S
C892 C891 1.351 . S
C892 N893 1.373 . S
C892 H920 0.930 . S
N893 C892 1.373 . S
N893 C895 1.340 . S
N894 C891 1.368 . S
N894 C895 1.321 . S
N894 Co897 2.135 . S
C895 N893 1.340 . S
C895 N894 1.321 . S
C895 H919 0.930 . S
H896 C891 0.931 . S
Co897 N894 2.135 . S
Co897 N900 2.121 . S
Co897 O905 2.055 . S
Co897 O908 2.039 . S
Co897 N911 2.140 . S
C898 O899 1.227 . S
C898 O908 1.265 . S
O899 C898 1.227 . S
N900 Co897 2.121 . S
N900 C902 1.375 . S
N900 C903 1.313 . S
C901 C902 1.338 . S
C901 N904 1.377 . S
C901 H921 0.930 . S
C902 N900 1.375 . S
C902 C901 1.338 . S
C902 H906 0.931 . S
C903 N900 1.313 . S
C903 N904 1.344 . S
C903 H907 0.930 . S
N904 C901 1.377 . S
N904 C903 1.344 . S
O905 Co897 2.055 . S
O905 C909 1.253 . S
H906 C902 0.931 . S
H907 C903 0.930 . S
O908 Co897 2.039 . S
O908 C898 1.265 . S
C909 O905 1.253 . S
C909 O910 1.227 . S
O910 C909 1.227 . S
N911 Co897 2.140 . S
N911 C914 1.346 . S
N911 C915 1.345 . S
C912 C913 1.387 . S
C912 C916 1.391 . S
C913 C912 1.387 . S
C913 C914 1.369 . S
C913 H922 0.929 . S
C914 N911 1.346 . S
C914 C913 1.369 . S
C914 H917 0.928 . S
C915 N911 1.345 . S
C915 C916 1.371 . S
C915 H918 0.931 . S
C916 C912 1.391 . S
C916 C915 1.371 . S
C916 H923 0.930 . S
H917 C914 0.928 . S
H918 C915 0.931 . S
H919 C895 0.930 . S
H920 C892 0.930 . S
H921 C901 0.930 . S
H922 C913 0.929 . S
H923 C916 0.930 . S
C924 C925 1.351 . S
C924 N927 1.368 . S
C924 H929 0.931 . S
C925 C924 1.351 . S
C925 N926 1.373 . S
C925 H953 0.930 . S
N926 C925 1.373 . S
N926 C928 1.340 . S
N927 C924 1.368 . S
N927 C928 1.321 . S
N927 Co930 2.135 . S
C928 N926 1.340 . S
C928 N927 1.321 . S
C928 H952 0.930 . S
H929 C924 0.931 . S
Co930 N927 2.135 . S
Co930 N933 2.121 . S
Co930 O938 2.055 . S
Co930 O941 2.039 . S
Co930 N944 2.140 . S
C931 O932 1.227 . S
C931 O941 1.265 . S
O932 C931 1.227 . S
N933 Co930 2.121 . S
N933 C935 1.375 . S
N933 C936 1.313 . S
C934 C935 1.338 . S
C934 N937 1.377 . S
C934 H954 0.930 . S
C935 N933 1.375 . S
C935 C934 1.338 . S
C935 H939 0.931 . S
C936 N933 1.313 . S
C936 N937 1.344 . S
C936 H940 0.930 . S
N937 C934 1.377 . S
N937 C936 1.344 . S
O938 Co930 2.055 . S
O938 C942 1.253 . S
H939 C935 0.931 . S
H940 C936 0.930 . S
O941 Co930 2.039 . S
O941 C931 1.265 . S
C942 O938 1.253 . S
C942 O943 1.227 . S
O943 C942 1.227 . S
N944 Co930 2.140 . S
N944 C947 1.346 . S
N944 C948 1.345 . S
C945 C946 1.387 . S
C945 C949 1.391 . S
C946 C945 1.387 . S
C946 C947 1.369 . S
C946 H955 0.929 . S
C947 N944 1.346 . S
C947 C946 1.369 . S
C947 H950 0.928 . S
C948 N944 1.345 . S
C948 C949 1.371 . S
C948 H951 0.931 . S
C949 C945 1.391 . S
C949 C948 1.371 . S
C949 H956 0.930 . S
H950 C947 0.928 . S
H951 C948 0.931 . S
H952 C928 0.930 . S
H953 C925 0.930 . S
H954 C934 0.930 . S
H955 C946 0.929 . S
H956 C949 0.930 . S
C957 C958 1.351 . S
C957 N960 1.368 . S
C957 H962 0.931 . S
C958 C957 1.351 . S
C958 N959 1.373 . S
C958 H986 0.930 . S
N959 C958 1.373 . S
N959 C961 1.340 . S
N960 C957 1.368 . S
N960 C961 1.321 . S
N960 Co963 2.135 . S
C961 N959 1.340 . S
C961 N960 1.321 . S
C961 H985 0.930 . S
H962 C957 0.931 . S
Co963 N960 2.135 . S
Co963 N966 2.121 . S
Co963 O971 2.055 . S
Co963 O974 2.039 . S
Co963 N977 2.140 . S
C964 O965 1.227 . S
C964 O974 1.265 . S
O965 C964 1.227 . S
N966 Co963 2.121 . S
N966 C968 1.375 . S
N966 C969 1.313 . S
C967 C968 1.338 . S
C967 N970 1.377 . S
C967 H987 0.930 . S
C968 N966 1.375 . S
C968 C967 1.338 . S
C968 H972 0.931 . S
C969 N966 1.313 . S
C969 N970 1.344 . S
C969 H973 0.930 . S
N970 C967 1.377 . S
N970 C969 1.344 . S
O971 Co963 2.055 . S
O971 C975 1.253 . S
H972 C968 0.931 . S
H973 C969 0.930 . S
O974 Co963 2.039 . S
O974 C964 1.265 . S
C975 O971 1.253 . S
C975 O976 1.227 . S
O976 C975 1.227 . S
N977 Co963 2.140 . S
N977 C980 1.346 . S
N977 C981 1.345 . S
C978 C979 1.387 . S
C978 C982 1.391 . S
C979 C978 1.387 . S
C979 C980 1.369 . S
C979 H988 0.929 . S
C980 N977 1.346 . S
C980 C979 1.369 . S
C980 H983 0.928 . S
C981 N977 1.345 . S
C981 C982 1.371 . S
C981 H984 0.931 . S
C982 C978 1.391 . S
C982 C981 1.371 . S
C982 H989 0.930 . S
H983 C980 0.928 . S
H984 C981 0.931 . S
H985 C961 0.930 . S
H986 C958 0.930 . S
H987 C967 0.930 . S
H988 C979 0.929 . S
H989 C982 0.930 . S
C990 C991 1.351 . S
C990 N993 1.368 . S
C990 H995 0.931 . S
C991 C990 1.351 . S
C991 N992 1.373 . S
C991 H1019 0.930 . S
N992 C991 1.373 . S
N992 C994 1.340 . S
N993 C990 1.368 . S
N993 C994 1.321 . S
N993 Co996 2.135 . S
C994 N992 1.340 . S
C994 N993 1.321 . S
C994 H1018 0.930 . S
H995 C990 0.931 . S
Co996 N993 2.135 . S
Co996 N999 2.121 . S
Co996 O1004 2.055 . S
Co996 O1007 2.039 . S
Co996 N1010 2.140 . S
C997 O998 1.227 . S
C997 O1007 1.265 . S
O998 C997 1.227 . S
N999 Co996 2.121 . S
N999 C1001 1.375 . S
N999 C1002 1.313 . S
C1000 C1001 1.338 . S
C1000 N1003 1.377 . S
C1000 H1020 0.930 . S
C1001 N999 1.375 . S
C1001 C1000 1.338 . S
C1001 H1005 0.931 . S
C1002 N999 1.313 . S
C1002 N1003 1.344 . S
C1002 H1006 0.930 . S
N1003 C1000 1.377 . S
N1003 C1002 1.344 . S
O1004 Co996 2.055 . S
O1004 C1008 1.253 . S
H1005 C1001 0.931 . S
H1006 C1002 0.930 . S
O1007 Co996 2.039 . S
O1007 C997 1.265 . S
C1008 O1004 1.253 . S
C1008 O1009 1.227 . S
O1009 C1008 1.227 . S
N1010 Co996 2.140 . S
N1010 C1013 1.346 . S
N1010 C1014 1.345 . S
C1011 C1012 1.387 . S
C1011 C1015 1.391 . S
C1012 C1011 1.387 . S
C1012 C1013 1.369 . S
C1012 H1021 0.929 . S
C1013 N1010 1.346 . S
C1013 C1012 1.369 . S
C1013 H1016 0.928 . S
C1014 N1010 1.345 . S
C1014 C1015 1.371 . S
C1014 H1017 0.931 . S
C1015 C1011 1.391 . S
C1015 C1014 1.371 . S
C1015 H1022 0.930 . S
H1016 C1013 0.928 . S
H1017 C1014 0.931 . S
H1018 C994 0.930 . S
H1019 C991 0.930 . S
H1020 C1000 0.930 . S
H1021 C1012 0.929 . S
H1022 C1015 0.930 . S
C1023 C1024 1.351 . S
C1023 N1026 1.368 . S
C1023 H1028 0.931 . S
C1024 C1023 1.351 . S
C1024 N1025 1.373 . S
C1024 H1052 0.930 . S
N1025 C1024 1.373 . S
N1025 C1027 1.340 . S
N1026 C1023 1.368 . S
N1026 C1027 1.321 . S
N1026 Co1029 2.135 . S
C1027 N1025 1.340 . S
C1027 N1026 1.321 . S
C1027 H1051 0.930 . S
H1028 C1023 0.931 . S
Co1029 N1026 2.135 . S
Co1029 N1032 2.121 . S
Co1029 O1037 2.055 . S
Co1029 O1040 2.039 . S
Co1029 N1043 2.140 . S
C1030 O1031 1.227 . S
C1030 O1040 1.265 . S
O1031 C1030 1.227 . S
N1032 Co1029 2.121 . S
N1032 C1034 1.375 . S
N1032 C1035 1.313 . S
C1033 C1034 1.338 . S
C1033 N1036 1.377 . S
C1033 H1053 0.930 . S
C1034 N1032 1.375 . S
C1034 C1033 1.338 . S
C1034 H1038 0.931 . S
C1035 N1032 1.313 . S
C1035 N1036 1.344 . S
C1035 H1039 0.930 . S
N1036 C1033 1.377 . S
N1036 C1035 1.344 . S
O1037 Co1029 2.055 . S
O1037 C1041 1.253 . S
H1038 C1034 0.931 . S
H1039 C1035 0.930 . S
O1040 Co1029 2.039 . S
O1040 C1030 1.265 . S
C1041 O1037 1.253 . S
C1041 O1042 1.227 . S
O1042 C1041 1.227 . S
N1043 Co1029 2.140 . S
N1043 C1046 1.346 . S
N1043 C1047 1.345 . S
C1044 C1045 1.387 . S
C1044 C1048 1.391 . S
C1045 C1044 1.387 . S
C1045 C1046 1.369 . S
C1045 H1054 0.929 . S
C1046 N1043 1.346 . S
C1046 C1045 1.369 . S
C1046 H1049 0.928 . S
C1047 N1043 1.345 . S
C1047 C1048 1.371 . S
C1047 H1050 0.931 . S
C1048 C1044 1.391 . S
C1048 C1047 1.371 . S
C1048 H1055 0.930 . S
H1049 C1046 0.928 . S
H1050 C1047 0.931 . S
H1051 C1027 0.930 . S
H1052 C1024 0.930 . S
H1053 C1033 0.930 . S
H1054 C1045 0.929 . S
H1055 C1048 0.930 . S
C1056 C1057 1.351 . S
C1056 N1059 1.368 . S
C1056 H1061 0.931 . S
C1057 C1056 1.351 . S
C1057 N1058 1.373 . S
C1057 H1085 0.930 . S
N1058 C1057 1.373 . S
N1058 C1060 1.340 . S
N1059 C1056 1.368 . S
N1059 C1060 1.321 . S
N1059 Co1062 2.135 . S
C1060 N1058 1.340 . S
C1060 N1059 1.321 . S
C1060 H1084 0.930 . S
H1061 C1056 0.931 . S
Co1062 N1059 2.135 . S
Co1062 N1065 2.121 . S
Co1062 O1070 2.055 . S
Co1062 O1073 2.039 . S
Co1062 N1076 2.140 . S
C1063 O1064 1.227 . S
C1063 O1073 1.265 . S
O1064 C1063 1.227 . S
N1065 Co1062 2.121 . S
N1065 C1067 1.375 . S
N1065 C1068 1.313 . S
C1066 C1067 1.338 . S
C1066 N1069 1.377 . S
C1066 H1086 0.930 . S
C1067 N1065 1.375 . S
C1067 C1066 1.338 . S
C1067 H1071 0.931 . S
C1068 N1065 1.313 . S
C1068 N1069 1.344 . S
C1068 H1072 0.930 . S
N1069 C1066 1.377 . S
N1069 C1068 1.344 . S
O1070 Co1062 2.055 . S
O1070 C1074 1.253 . S
H1071 C1067 0.931 . S
H1072 C1068 0.930 . S
O1073 Co1062 2.039 . S
O1073 C1063 1.265 . S
C1074 O1070 1.253 . S
C1074 O1075 1.227 . S
O1075 C1074 1.227 . S
N1076 Co1062 2.140 . S
N1076 C1079 1.346 . S
N1076 C1080 1.345 . S
C1077 C1078 1.387 . S
C1077 C1081 1.391 . S
C1078 C1077 1.387 . S
C1078 C1079 1.369 . S
C1078 H1087 0.929 . S
C1079 N1076 1.346 . S
C1079 C1078 1.369 . S
C1079 H1082 0.928 . S
C1080 N1076 1.345 . S
C1080 C1081 1.371 . S
C1080 H1083 0.931 . S
C1081 C1077 1.391 . S
C1081 C1080 1.371 . S
C1081 H1088 0.930 . S
H1082 C1079 0.928 . S
H1083 C1080 0.931 . S
H1084 C1060 0.930 . S
H1085 C1057 0.930 . S
H1086 C1066 0.930 . S
H1087 C1078 0.929 . S
H1088 C1081 0.930 . S
C1089 C1090 1.351 . S
C1089 N1092 1.368 . S
C1089 H1094 0.931 . S
C1090 C1089 1.351 . S
C1090 N1091 1.373 . S
C1090 H1118 0.930 . S
N1091 C1090 1.373 . S
N1091 C1093 1.340 . S
N1092 C1089 1.368 . S
N1092 C1093 1.321 . S
N1092 Co1095 2.135 . S
C1093 N1091 1.340 . S
C1093 N1092 1.321 . S
C1093 H1117 0.930 . S
H1094 C1089 0.931 . S
Co1095 N1092 2.135 . S
Co1095 N1098 2.121 . S
Co1095 O1103 2.055 . S
Co1095 O1106 2.039 . S
Co1095 N1109 2.140 . S
C1096 O1097 1.227 . S
C1096 O1106 1.265 . S
O1097 C1096 1.227 . S
N1098 Co1095 2.121 . S
N1098 C1100 1.375 . S
N1098 C1101 1.313 . S
C1099 C1100 1.338 . S
C1099 N1102 1.377 . S
C1099 H1119 0.930 . S
C1100 N1098 1.375 . S
C1100 C1099 1.338 . S
C1100 H1104 0.931 . S
C1101 N1098 1.313 . S
C1101 N1102 1.344 . S
C1101 H1105 0.930 . S
N1102 C1099 1.377 . S
N1102 C1101 1.344 . S
O1103 Co1095 2.055 . S
O1103 C1107 1.253 . S
H1104 C1100 0.931 . S
H1105 C1101 0.930 . S
O1106 Co1095 2.039 . S
O1106 C1096 1.265 . S
C1107 O1103 1.253 . S
C1107 O1108 1.227 . S
O1108 C1107 1.227 . S
N1109 Co1095 2.140 . S
N1109 C1112 1.346 . S
N1109 C1113 1.345 . S
C1110 C1111 1.387 . S
C1110 C1114 1.391 . S
C1111 C1110 1.387 . S
C1111 C1112 1.369 . S
C1111 H1120 0.929 . S
C1112 N1109 1.346 . S
C1112 C1111 1.369 . S
C1112 H1115 0.928 . S
C1113 N1109 1.345 . S
C1113 C1114 1.371 . S
C1113 H1116 0.931 . S
C1114 C1110 1.391 . S
C1114 C1113 1.371 . S
C1114 H1121 0.930 . S
H1115 C1112 0.928 . S
H1116 C1113 0.931 . S
H1117 C1093 0.930 . S
H1118 C1090 0.930 . S
H1119 C1099 0.930 . S
H1120 C1111 0.929 . S
H1121 C1114 0.930 . S
C1122 C1123 1.351 . S
C1122 N1125 1.368 . S
C1122 H1127 0.931 . S
C1123 C1122 1.351 . S
C1123 N1124 1.373 . S
C1123 H1151 0.930 . S
N1124 C1123 1.373 . S
N1124 C1126 1.340 . S
N1125 C1122 1.368 . S
N1125 C1126 1.321 . S
N1125 Co1128 2.135 . S
C1126 N1124 1.340 . S
C1126 N1125 1.321 . S
C1126 H1150 0.930 . S
H1127 C1122 0.931 . S
Co1128 N1125 2.135 . S
Co1128 N1131 2.121 . S
Co1128 O1136 2.055 . S
Co1128 O1139 2.039 . S
Co1128 N1142 2.140 . S
C1129 O1130 1.227 . S
C1129 O1139 1.265 . S
O1130 C1129 1.227 . S
N1131 Co1128 2.121 . S
N1131 C1133 1.375 . S
N1131 C1134 1.313 . S
C1132 C1133 1.338 . S
C1132 N1135 1.377 . S
C1132 H1152 0.930 . S
C1133 N1131 1.375 . S
C1133 C1132 1.338 . S
C1133 H1137 0.931 . S
C1134 N1131 1.313 . S
C1134 N1135 1.344 . S
C1134 H1138 0.930 . S
N1135 C1132 1.377 . S
N1135 C1134 1.344 . S
O1136 Co1128 2.055 . S
O1136 C1140 1.253 . S
H1137 C1133 0.931 . S
H1138 C1134 0.930 . S
O1139 Co1128 2.039 . S
O1139 C1129 1.265 . S
C1140 O1136 1.253 . S
C1140 O1141 1.227 . S
O1141 C1140 1.227 . S
N1142 Co1128 2.140 . S
N1142 C1145 1.346 . S
N1142 C1146 1.345 . S
C1143 C1144 1.387 . S
C1143 C1147 1.391 . S
C1144 C1143 1.387 . S
C1144 C1145 1.369 . S
C1144 H1153 0.929 . S
C1145 N1142 1.346 . S
C1145 C1144 1.369 . S
C1145 H1148 0.928 . S
C1146 N1142 1.345 . S
C1146 C1147 1.371 . S
C1146 H1149 0.931 . S
C1147 C1143 1.391 . S
C1147 C1146 1.371 . S
C1147 H1154 0.930 . S
H1148 C1145 0.928 . S
H1149 C1146 0.931 . S
H1150 C1126 0.930 . S
H1151 C1123 0.930 . S
H1152 C1132 0.930 . S
H1153 C1144 0.929 . S
H1154 C1147 0.930 . S
C1155 C1156 1.351 . S
C1155 N1158 1.368 . S
C1155 H1160 0.931 . S
C1156 C1155 1.351 . S
C1156 N1157 1.373 . S
C1156 H1184 0.930 . S
N1157 C1156 1.373 . S
N1157 C1159 1.340 . S
N1158 C1155 1.368 . S
N1158 C1159 1.321 . S
N1158 Co1161 2.135 . S
C1159 N1157 1.340 . S
C1159 N1158 1.321 . S
C1159 H1183 0.930 . S
H1160 C1155 0.931 . S
Co1161 N1158 2.135 . S
Co1161 N1164 2.121 . S
Co1161 O1169 2.055 . S
Co1161 O1172 2.039 . S
Co1161 N1175 2.140 . S
C1162 O1163 1.227 . S
C1162 O1172 1.265 . S
O1163 C1162 1.227 . S
N1164 Co1161 2.121 . S
N1164 C1166 1.375 . S
N1164 C1167 1.313 . S
C1165 C1166 1.338 . S
C1165 N1168 1.377 . S
C1165 H1185 0.930 . S
C1166 N1164 1.375 . S
C1166 C1165 1.338 . S
C1166 H1170 0.931 . S
C1167 N1164 1.313 . S
C1167 N1168 1.344 . S
C1167 H1171 0.930 . S
N1168 C1165 1.377 . S
N1168 C1167 1.344 . S
O1169 Co1161 2.055 . S
O1169 C1173 1.253 . S
H1170 C1166 0.931 . S
H1171 C1167 0.930 . S
O1172 Co1161 2.039 . S
O1172 C1162 1.265 . S
C1173 O1169 1.253 . S
C1173 O1174 1.227 . S
O1174 C1173 1.227 . S
N1175 Co1161 2.140 . S
N1175 C1178 1.346 . S
N1175 C1179 1.345 . S
C1176 C1177 1.387 . S
C1176 C1180 1.391 . S
C1177 C1176 1.387 . S
C1177 C1178 1.369 . S
C1177 H1186 0.929 . S
C1178 N1175 1.346 . S
C1178 C1177 1.369 . S
C1178 H1181 0.928 . S
C1179 N1175 1.345 . S
C1179 C1180 1.371 . S
C1179 H1182 0.931 . S
C1180 C1176 1.391 . S
C1180 C1179 1.371 . S
C1180 H1187 0.930 . S
H1181 C1178 0.928 . S
H1182 C1179 0.931 . S
H1183 C1159 0.930 . S
H1184 C1156 0.930 . S
H1185 C1165 0.930 . S
H1186 C1177 0.929 . S
H1187 C1180 0.930 . S
C1188 C1189 1.351 . S
C1188 N1191 1.368 . S
C1188 H1193 0.931 . S
C1189 C1188 1.351 . S
C1189 N1190 1.373 . S
C1189 H1217 0.930 . S
N1190 C1189 1.373 . S
N1190 C1192 1.340 . S
N1191 C1188 1.368 . S
N1191 C1192 1.321 . S
N1191 Co1194 2.135 . S
C1192 N1190 1.340 . S
C1192 N1191 1.321 . S
C1192 H1216 0.930 . S
H1193 C1188 0.931 . S
Co1194 N1191 2.135 . S
Co1194 N1197 2.121 . S
Co1194 O1202 2.055 . S
Co1194 O1205 2.039 . S
Co1194 N1208 2.140 . S
C1195 O1196 1.227 . S
C1195 O1205 1.265 . S
O1196 C1195 1.227 . S
N1197 Co1194 2.121 . S
N1197 C1199 1.375 . S
N1197 C1200 1.313 . S
C1198 C1199 1.338 . S
C1198 N1201 1.377 . S
C1198 H1218 0.930 . S
C1199 N1197 1.375 . S
C1199 C1198 1.338 . S
C1199 H1203 0.931 . S
C1200 N1197 1.313 . S
C1200 N1201 1.344 . S
C1200 H1204 0.930 . S
N1201 C1198 1.377 . S
N1201 C1200 1.344 . S
O1202 Co1194 2.055 . S
O1202 C1206 1.253 . S
H1203 C1199 0.931 . S
H1204 C1200 0.930 . S
O1205 Co1194 2.039 . S
O1205 C1195 1.265 . S
C1206 O1202 1.253 . S
C1206 O1207 1.227 . S
O1207 C1206 1.227 . S
N1208 Co1194 2.140 . S
N1208 C1211 1.346 . S
N1208 C1212 1.345 . S
C1209 C1210 1.387 . S
C1209 C1213 1.391 . S
C1210 C1209 1.387 . S
C1210 C1211 1.369 . S
C1210 H1219 0.929 . S
C1211 N1208 1.346 . S
C1211 C1210 1.369 . S
C1211 H1214 0.928 . S
C1212 N1208 1.345 . S
C1212 C1213 1.371 . S
C1212 H1215 0.931 . S
C1213 C1209 1.391 . S
C1213 C1212 1.371 . S
C1213 H1220 0.930 . S
H1214 C1211 0.928 . S
H1215 C1212 0.931 . S
H1216 C1192 0.930 . S
H1217 C1189 0.930 . S
H1218 C1198 0.930 . S
H1219 C1210 0.929 . S
H1220 C1213 0.930 . S
C1221 C1222 1.351 . S
C1221 N1224 1.368 . S
C1221 H1226 0.931 . S
C1222 C1221 1.351 . S
C1222 N1223 1.373 . S
C1222 H1250 0.930 . S
N1223 C1222 1.373 . S
N1223 C1225 1.340 . S
N1224 C1221 1.368 . S
N1224 C1225 1.321 . S
N1224 Co1227 2.135 . S
C1225 N1223 1.340 . S
C1225 N1224 1.321 . S
C1225 H1249 0.930 . S
H1226 C1221 0.931 . S
Co1227 N1224 2.135 . S
Co1227 N1230 2.121 . S
Co1227 O1235 2.055 . S
Co1227 O1238 2.039 . S
Co1227 N1241 2.140 . S
C1228 O1229 1.227 . S
C1228 O1238 1.265 . S
O1229 C1228 1.227 . S
N1230 Co1227 2.121 . S
N1230 C1232 1.375 . S
N1230 C1233 1.313 . S
C1231 C1232 1.338 . S
C1231 N1234 1.377 . S
C1231 H1251 0.930 . S
C1232 N1230 1.375 . S
C1232 C1231 1.338 . S
C1232 H1236 0.931 . S
C1233 N1230 1.313 . S
C1233 N1234 1.344 . S
C1233 H1237 0.930 . S
N1234 C1231 1.377 . S
N1234 C1233 1.344 . S
O1235 Co1227 2.055 . S
O1235 C1239 1.253 . S
H1236 C1232 0.931 . S
H1237 C1233 0.930 . S
O1238 Co1227 2.039 . S
O1238 C1228 1.265 . S
C1239 O1235 1.253 . S
C1239 O1240 1.227 . S
O1240 C1239 1.227 . S
N1241 Co1227 2.140 . S
N1241 C1244 1.346 . S
N1241 C1245 1.345 . S
C1242 C1243 1.387 . S
C1242 C1246 1.391 . S
C1243 C1242 1.387 . S
C1243 C1244 1.369 . S
C1243 H1252 0.929 . S
C1244 N1241 1.346 . S
C1244 C1243 1.369 . S
C1244 H1247 0.928 . S
C1245 N1241 1.345 . S
C1245 C1246 1.371 . S
C1245 H1248 0.931 . S
C1246 C1242 1.391 . S
C1246 C1245 1.371 . S
C1246 H1253 0.930 . S
H1247 C1244 0.928 . S
H1248 C1245 0.931 . S
H1249 C1225 0.930 . S
H1250 C1222 0.930 . S
H1251 C1231 0.930 . S
H1252 C1243 0.929 . S
H1253 C1246 0.930 . S
C1254 C1255 1.351 . S
C1254 N1257 1.368 . S
C1254 H1259 0.931 . S
C1255 C1254 1.351 . S
C1255 N1256 1.373 . S
C1255 H1283 0.930 . S
N1256 C1255 1.373 . S
N1256 C1258 1.340 . S
N1257 C1254 1.368 . S
N1257 C1258 1.321 . S
N1257 Co1260 2.135 . S
C1258 N1256 1.340 . S
C1258 N1257 1.321 . S
C1258 H1282 0.930 . S
H1259 C1254 0.931 . S
Co1260 N1257 2.135 . S
Co1260 N1263 2.121 . S
Co1260 O1268 2.055 . S
Co1260 O1271 2.039 . S
Co1260 N1274 2.140 . S
C1261 O1262 1.227 . S
C1261 O1271 1.265 . S
O1262 C1261 1.227 . S
N1263 Co1260 2.121 . S
N1263 C1265 1.375 . S
N1263 C1266 1.313 . S
C1264 C1265 1.338 . S
C1264 N1267 1.377 . S
C1264 H1284 0.930 . S
C1265 N1263 1.375 . S
C1265 C1264 1.338 . S
C1265 H1269 0.931 . S
C1266 N1263 1.313 . S
C1266 N1267 1.344 . S
C1266 H1270 0.930 . S
N1267 C1264 1.377 . S
N1267 C1266 1.344 . S
O1268 Co1260 2.055 . S
O1268 C1272 1.253 . S
H1269 C1265 0.931 . S
H1270 C1266 0.930 . S
O1271 Co1260 2.039 . S
O1271 C1261 1.265 . S
C1272 O1268 1.253 . S
C1272 O1273 1.227 . S
O1273 C1272 1.227 . S
N1274 Co1260 2.140 . S
N1274 C1277 1.346 . S
N1274 C1278 1.345 . S
C1275 C1276 1.387 . S
C1275 C1279 1.391 . S
C1276 C1275 1.387 . S
C1276 C1277 1.369 . S
C1276 H1285 0.929 . S
C1277 N1274 1.346 . S
C1277 C1276 1.369 . S
C1277 H1280 0.928 . S
C1278 N1274 1.345 . S
C1278 C1279 1.371 . S
C1278 H1281 0.931 . S
C1279 C1275 1.391 . S
C1279 C1278 1.371 . S
C1279 H1286 0.930 . S
H1280 C1277 0.928 . S
H1281 C1278 0.931 . S
H1282 C1258 0.930 . S
H1283 C1255 0.930 . S
H1284 C1264 0.930 . S
H1285 C1276 0.929 . S
H1286 C1279 0.930 . S
C1287 C1288 1.351 . S
C1287 N1290 1.368 . S
C1287 H1292 0.931 . S
C1288 C1287 1.351 . S
C1288 N1289 1.373 . S
C1288 H1316 0.930 . S
N1289 C1288 1.373 . S
N1289 C1291 1.340 . S
N1290 C1287 1.368 . S
N1290 C1291 1.321 . S
N1290 Co1293 2.135 . S
C1291 N1289 1.340 . S
C1291 N1290 1.321 . S
C1291 H1315 0.930 . S
H1292 C1287 0.931 . S
Co1293 N1290 2.135 . S
Co1293 N1296 2.121 . S
Co1293 O1301 2.055 . S
Co1293 O1304 2.039 . S
Co1293 N1307 2.140 . S
C1294 O1295 1.227 . S
C1294 O1304 1.265 . S
O1295 C1294 1.227 . S
N1296 Co1293 2.121 . S
N1296 C1298 1.375 . S
N1296 C1299 1.313 . S
C1297 C1298 1.338 . S
C1297 N1300 1.377 . S
C1297 H1317 0.930 . S
C1298 N1296 1.375 . S
C1298 C1297 1.338 . S
C1298 H1302 0.931 . S
C1299 N1296 1.313 . S
C1299 N1300 1.344 . S
C1299 H1303 0.930 . S
N1300 C1297 1.377 . S
N1300 C1299 1.344 . S
O1301 Co1293 2.055 . S
O1301 C1305 1.253 . S
H1302 C1298 0.931 . S
H1303 C1299 0.930 . S
O1304 Co1293 2.039 . S
O1304 C1294 1.265 . S
C1305 O1301 1.253 . S
C1305 O1306 1.227 . S
O1306 C1305 1.227 . S
N1307 Co1293 2.140 . S
N1307 C1310 1.346 . S
N1307 C1311 1.345 . S
C1308 C1309 1.387 . S
C1308 C1312 1.391 . S
C1309 C1308 1.387 . S
C1309 C1310 1.369 . S
C1309 H1318 0.929 . S
C1310 N1307 1.346 . S
C1310 C1309 1.369 . S
C1310 H1313 0.928 . S
C1311 N1307 1.345 . S
C1311 C1312 1.371 . S
C1311 H1314 0.931 . S
C1312 C1308 1.391 . S
C1312 C1311 1.371 . S
C1312 H1319 0.930 . S
H1313 C1310 0.928 . S
H1314 C1311 0.931 . S
H1315 C1291 0.930 . S
H1316 C1288 0.930 . S
H1317 C1297 0.930 . S
H1318 C1309 0.929 . S
H1319 C1312 0.930 . S
C1320 C1321 1.351 . S
C1320 N1323 1.368 . S
C1320 H1325 0.931 . S
C1321 C1320 1.351 . S
C1321 N1322 1.373 . S
C1321 H1349 0.930 . S
N1322 C1321 1.373 . S
N1322 C1324 1.340 . S
N1323 C1320 1.368 . S
N1323 C1324 1.321 . S
N1323 Co1326 2.135 . S
C1324 N1322 1.340 . S
C1324 N1323 1.321 . S
C1324 H1348 0.930 . S
H1325 C1320 0.931 . S
Co1326 N1323 2.135 . S
Co1326 N1329 2.121 . S
Co1326 O1334 2.055 . S
Co1326 O1337 2.039 . S
Co1326 N1340 2.140 . S
C1327 O1328 1.227 . S
C1327 O1337 1.265 . S
O1328 C1327 1.227 . S
N1329 Co1326 2.121 . S
N1329 C1331 1.375 . S
N1329 C1332 1.313 . S
C1330 C1331 1.338 . S
C1330 N1333 1.377 . S
C1330 H1350 0.930 . S
C1331 N1329 1.375 . S
C1331 C1330 1.338 . S
C1331 H1335 0.931 . S
C1332 N1329 1.313 . S
C1332 N1333 1.344 . S
C1332 H1336 0.930 . S
N1333 C1330 1.377 . S
N1333 C1332 1.344 . S
O1334 Co1326 2.055 . S
O1334 C1338 1.253 . S
H1335 C1331 0.931 . S
H1336 C1332 0.930 . S
O1337 Co1326 2.039 . S
O1337 C1327 1.265 . S
C1338 O1334 1.253 . S
C1338 O1339 1.227 . S
O1339 C1338 1.227 . S
N1340 Co1326 2.140 . S
N1340 C1343 1.346 . S
N1340 C1344 1.345 . S
C1341 C1342 1.387 . S
C1341 C1345 1.391 . S
C1342 C1341 1.387 . S
C1342 C1343 1.369 . S
C1342 H1351 0.929 . S
C1343 N1340 1.346 . S
C1343 C1342 1.369 . S
C1343 H1346 0.928 . S
C1344 N1340 1.345 . S
C1344 C1345 1.371 . S
C1344 H1347 0.931 . S
C1345 C1341 1.391 . S
C1345 C1344 1.371 . S
C1345 H1352 0.930 . S
H1346 C1343 0.928 . S
H1347 C1344 0.931 . S
H1348 C1324 0.930 . S
H1349 C1321 0.930 . S
H1350 C1330 0.930 . S
H1351 C1342 0.929 . S
H1352 C1345 0.930 . S
C1353 C1354 1.351 . S
C1353 N1356 1.368 . S
C1353 H1358 0.931 . S
C1354 C1353 1.351 . S
C1354 N1355 1.373 . S
C1354 H1382 0.930 . S
N1355 C1354 1.373 . S
N1355 C1357 1.340 . S
N1356 C1353 1.368 . S
N1356 C1357 1.321 . S
N1356 Co1359 2.135 . S
C1357 N1355 1.340 . S
C1357 N1356 1.321 . S
C1357 H1381 0.930 . S
H1358 C1353 0.931 . S
Co1359 N1356 2.135 . S
Co1359 N1362 2.121 . S
Co1359 O1367 2.055 . S
Co1359 O1370 2.039 . S
Co1359 N1373 2.140 . S
C1360 O1361 1.227 . S
C1360 O1370 1.265 . S
O1361 C1360 1.227 . S
N1362 Co1359 2.121 . S
N1362 C1364 1.375 . S
N1362 C1365 1.313 . S
C1363 C1364 1.338 . S
C1363 N1366 1.377 . S
C1363 H1383 0.930 . S
C1364 N1362 1.375 . S
C1364 C1363 1.338 . S
C1364 H1368 0.931 . S
C1365 N1362 1.313 . S
C1365 N1366 1.344 . S
C1365 H1369 0.930 . S
N1366 C1363 1.377 . S
N1366 C1365 1.344 . S
O1367 Co1359 2.055 . S
O1367 C1371 1.253 . S
H1368 C1364 0.931 . S
H1369 C1365 0.930 . S
O1370 Co1359 2.039 . S
O1370 C1360 1.265 . S
C1371 O1367 1.253 . S
C1371 O1372 1.227 . S
O1372 C1371 1.227 . S
N1373 Co1359 2.140 . S
N1373 C1376 1.346 . S
N1373 C1377 1.345 . S
C1374 C1375 1.387 . S
C1374 C1378 1.391 . S
C1375 C1374 1.387 . S
C1375 C1376 1.369 . S
C1375 H1384 0.929 . S
C1376 N1373 1.346 . S
C1376 C1375 1.369 . S
C1376 H1379 0.928 . S
C1377 N1373 1.345 . S
C1377 C1378 1.371 . S
C1377 H1380 0.931 . S
C1378 C1374 1.391 . S
C1378 C1377 1.371 . S
C1378 H1385 0.930 . S
H1379 C1376 0.928 . S
H1380 C1377 0.931 . S
H1381 C1357 0.930 . S
H1382 C1354 0.930 . S
H1383 C1363 0.930 . S
H1384 C1375 0.929 . S
H1385 C1378 0.930 . S
C1386 C1387 1.351 . S
C1386 N1389 1.368 . S
C1386 H1391 0.931 . S
C1387 C1386 1.351 . S
C1387 N1388 1.373 . S
C1387 H1415 0.930 . S
N1388 C1387 1.373 . S
N1388 C1390 1.340 . S
N1389 C1386 1.368 . S
N1389 C1390 1.321 . S
N1389 Co1392 2.135 . S
C1390 N1388 1.340 . S
C1390 N1389 1.321 . S
C1390 H1414 0.930 . S
H1391 C1386 0.931 . S
Co1392 N1389 2.135 . S
Co1392 N1395 2.121 . S
Co1392 O1400 2.055 . S
Co1392 O1403 2.039 . S
Co1392 N1406 2.140 . S
C1393 O1394 1.227 . S
C1393 O1403 1.265 . S
O1394 C1393 1.227 . S
N1395 Co1392 2.121 . S
N1395 C1397 1.375 . S
N1395 C1398 1.313 . S
C1396 C1397 1.338 . S
C1396 N1399 1.377 . S
C1396 H1416 0.930 . S
C1397 N1395 1.375 . S
C1397 C1396 1.338 . S
C1397 H1401 0.931 . S
C1398 N1395 1.313 . S
C1398 N1399 1.344 . S
C1398 H1402 0.930 . S
N1399 C1396 1.377 . S
N1399 C1398 1.344 . S
O1400 Co1392 2.055 . S
O1400 C1404 1.253 . S
H1401 C1397 0.931 . S
H1402 C1398 0.930 . S
O1403 Co1392 2.039 . S
O1403 C1393 1.265 . S
C1404 O1400 1.253 . S
C1404 O1405 1.227 . S
O1405 C1404 1.227 . S
N1406 Co1392 2.140 . S
N1406 C1409 1.346 . S
N1406 C1410 1.345 . S
C1407 C1408 1.387 . S
C1407 C1411 1.391 . S
C1408 C1407 1.387 . S
C1408 C1409 1.369 . S
C1408 H1417 0.929 . S
C1409 N1406 1.346 . S
C1409 C1408 1.369 . S
C1409 H1412 0.928 . S
C1410 N1406 1.345 . S
C1410 C1411 1.371 . S
C1410 H1413 0.931 . S
C1411 C1407 1.391 . S
C1411 C1410 1.371 . S
C1411 H1418 0.930 . S
H1412 C1409 0.928 . S
H1413 C1410 0.931 . S
H1414 C1390 0.930 . S
H1415 C1387 0.930 . S
H1416 C1396 0.930 . S
H1417 C1408 0.929 . S
H1418 C1411 0.930 . S
C1419 C1420 1.351 . S
C1419 N1422 1.368 . S
C1419 H1424 0.931 . S
C1420 C1419 1.351 . S
C1420 N1421 1.373 . S
C1420 H1448 0.930 . S
N1421 C1420 1.373 . S
N1421 C1423 1.340 . S
N1422 C1419 1.368 . S
N1422 C1423 1.321 . S
N1422 Co1425 2.135 . S
C1423 N1421 1.340 . S
C1423 N1422 1.321 . S
C1423 H1447 0.930 . S
H1424 C1419 0.931 . S
Co1425 N1422 2.135 . S
Co1425 N1428 2.121 . S
Co1425 O1433 2.055 . S
Co1425 O1436 2.039 . S
Co1425 N1439 2.140 . S
C1426 O1427 1.227 . S
C1426 O1436 1.265 . S
O1427 C1426 1.227 . S
N1428 Co1425 2.121 . S
N1428 C1430 1.375 . S
N1428 C1431 1.313 . S
C1429 C1430 1.338 . S
C1429 N1432 1.377 . S
C1429 H1449 0.930 . S
C1430 N1428 1.375 . S
C1430 C1429 1.338 . S
C1430 H1434 0.931 . S
C1431 N1428 1.313 . S
C1431 N1432 1.344 . S
C1431 H1435 0.930 . S
N1432 C1429 1.377 . S
N1432 C1431 1.344 . S
O1433 Co1425 2.055 . S
O1433 C1437 1.253 . S
H1434 C1430 0.931 . S
H1435 C1431 0.930 . S
O1436 Co1425 2.039 . S
O1436 C1426 1.265 . S
C1437 O1433 1.253 . S
C1437 O1438 1.227 . S
O1438 C1437 1.227 . S
N1439 Co1425 2.140 . S
N1439 C1442 1.346 . S
N1439 C1443 1.345 . S
C1440 C1441 1.387 . S
C1440 C1444 1.391 . S
C1441 C1440 1.387 . S
C1441 C1442 1.369 . S
C1441 H1450 0.929 . S
C1442 N1439 1.346 . S
C1442 C1441 1.369 . S
C1442 H1445 0.928 . S
C1443 N1439 1.345 . S
C1443 C1444 1.371 . S
C1443 H1446 0.931 . S
C1444 C1440 1.391 . S
C1444 C1443 1.371 . S
C1444 H1451 0.930 . S
H1445 C1442 0.928 . S
H1446 C1443 0.931 . S
H1447 C1423 0.930 . S
H1448 C1420 0.930 . S
H1449 C1429 0.930 . S
H1450 C1441 0.929 . S
H1451 C1444 0.930 . S
C1452 C1453 1.351 . S
C1452 N1455 1.368 . S
C1452 H1457 0.931 . S
C1453 C1452 1.351 . S
C1453 N1454 1.373 . S
C1453 H1481 0.930 . S
N1454 C1453 1.373 . S
N1454 C1456 1.340 . S
N1455 C1452 1.368 . S
N1455 C1456 1.321 . S
N1455 Co1458 2.135 . S
C1456 N1454 1.340 . S
C1456 N1455 1.321 . S
C1456 H1480 0.930 . S
H1457 C1452 0.931 . S
Co1458 N1455 2.135 . S
Co1458 N1461 2.121 . S
Co1458 O1466 2.055 . S
Co1458 O1469 2.039 . S
Co1458 N1472 2.140 . S
C1459 O1460 1.227 . S
C1459 O1469 1.265 . S
O1460 C1459 1.227 . S
N1461 Co1458 2.121 . S
N1461 C1463 1.375 . S
N1461 C1464 1.313 . S
C1462 C1463 1.338 . S
C1462 N1465 1.377 . S
C1462 H1482 0.930 . S
C1463 N1461 1.375 . S
C1463 C1462 1.338 . S
C1463 H1467 0.931 . S
C1464 N1461 1.313 . S
C1464 N1465 1.344 . S
C1464 H1468 0.930 . S
N1465 C1462 1.377 . S
N1465 C1464 1.344 . S
O1466 Co1458 2.055 . S
O1466 C1470 1.253 . S
H1467 C1463 0.931 . S
H1468 C1464 0.930 . S
O1469 Co1458 2.039 . S
O1469 C1459 1.265 . S
C1470 O1466 1.253 . S
C1470 O1471 1.227 . S
O1471 C1470 1.227 . S
N1472 Co1458 2.140 . S
N1472 C1475 1.346 . S
N1472 C1476 1.345 . S
C1473 C1474 1.387 . S
C1473 C1477 1.391 . S
C1474 C1473 1.387 . S
C1474 C1475 1.369 . S
C1474 H1483 0.929 . S
C1475 N1472 1.346 . S
C1475 C1474 1.369 . S
C1475 H1478 0.928 . S
C1476 N1472 1.345 . S
C1476 C1477 1.371 . S
C1476 H1479 0.931 . S
C1477 C1473 1.391 . S
C1477 C1476 1.371 . S
C1477 H1484 0.930 . S
H1478 C1475 0.928 . S
H1479 C1476 0.931 . S
H1480 C1456 0.930 . S
H1481 C1453 0.930 . S
H1482 C1462 0.930 . S
H1483 C1474 0.929 . S
H1484 C1477 0.930 . S
C1485 C1486 1.351 . S
C1485 N1488 1.368 . S
C1485 H1490 0.931 . S
C1486 C1485 1.351 . S
C1486 N1487 1.373 . S
C1486 H1514 0.930 . S
N1487 C1486 1.373 . S
N1487 C1489 1.340 . S
N1488 C1485 1.368 . S
N1488 C1489 1.321 . S
N1488 Co1491 2.135 . S
C1489 N1487 1.340 . S
C1489 N1488 1.321 . S
C1489 H1513 0.930 . S
H1490 C1485 0.931 . S
Co1491 N1488 2.135 . S
Co1491 N1494 2.121 . S
Co1491 O1499 2.055 . S
Co1491 O1502 2.039 . S
Co1491 N1505 2.140 . S
C1492 O1493 1.227 . S
C1492 O1502 1.265 . S
O1493 C1492 1.227 . S
N1494 Co1491 2.121 . S
N1494 C1496 1.375 . S
N1494 C1497 1.313 . S
C1495 C1496 1.338 . S
C1495 N1498 1.377 . S
C1495 H1515 0.930 . S
C1496 N1494 1.375 . S
C1496 C1495 1.338 . S
C1496 H1500 0.931 . S
C1497 N1494 1.313 . S
C1497 N1498 1.344 . S
C1497 H1501 0.930 . S
N1498 C1495 1.377 . S
N1498 C1497 1.344 . S
O1499 Co1491 2.055 . S
O1499 C1503 1.253 . S
H1500 C1496 0.931 . S
H1501 C1497 0.930 . S
O1502 Co1491 2.039 . S
O1502 C1492 1.265 . S
C1503 O1499 1.253 . S
C1503 O1504 1.227 . S
O1504 C1503 1.227 . S
N1505 Co1491 2.140 . S
N1505 C1508 1.346 . S
N1505 C1509 1.345 . S
C1506 C1507 1.387 . S
C1506 C1510 1.391 . S
C1507 C1506 1.387 . S
C1507 C1508 1.369 . S
C1507 H1516 0.929 . S
C1508 N1505 1.346 . S
C1508 C1507 1.369 . S
C1508 H1511 0.928 . S
C1509 N1505 1.345 . S
C1509 C1510 1.371 . S
C1509 H1512 0.931 . S
C1510 C1506 1.391 . S
C1510 C1509 1.371 . S
C1510 H1517 0.930 . S
H1511 C1508 0.928 . S
H1512 C1509 0.931 . S
H1513 C1489 0.930 . S
H1514 C1486 0.930 . S
H1515 C1495 0.930 . S
H1516 C1507 0.929 . S
H1517 C1510 0.930 . S
C1518 C1519 1.351 . S
C1518 N1521 1.368 . S
C1518 H1523 0.931 . S
C1519 C1518 1.351 . S
C1519 N1520 1.373 . S
C1519 H1547 0.930 . S
N1520 C1519 1.373 . S
N1520 C1522 1.340 . S
N1521 C1518 1.368 . S
N1521 C1522 1.321 . S
N1521 Co1524 2.135 . S
C1522 N1520 1.340 . S
C1522 N1521 1.321 . S
C1522 H1546 0.930 . S
H1523 C1518 0.931 . S
Co1524 N1521 2.135 . S
Co1524 N1527 2.121 . S
Co1524 O1532 2.055 . S
Co1524 O1535 2.039 . S
Co1524 N1538 2.140 . S
C1525 O1526 1.227 . S
C1525 O1535 1.265 . S
O1526 C1525 1.227 . S
N1527 Co1524 2.121 . S
N1527 C1529 1.375 . S
N1527 C1530 1.313 . S
C1528 C1529 1.338 . S
C1528 N1531 1.377 . S
C1528 H1548 0.930 . S
C1529 N1527 1.375 . S
C1529 C1528 1.338 . S
C1529 H1533 0.931 . S
C1530 N1527 1.313 . S
C1530 N1531 1.344 . S
C1530 H1534 0.930 . S
N1531 C1528 1.377 . S
N1531 C1530 1.344 . S
O1532 Co1524 2.055 . S
O1532 C1536 1.253 . S
H1533 C1529 0.931 . S
H1534 C1530 0.930 . S
O1535 Co1524 2.039 . S
O1535 C1525 1.265 . S
C1536 O1532 1.253 . S
C1536 O1537 1.227 . S
O1537 C1536 1.227 . S
N1538 Co1524 2.140 . S
N1538 C1541 1.346 . S
N1538 C1542 1.345 . S
C1539 C1540 1.387 . S
C1539 C1543 1.391 . S
C1540 C1539 1.387 . S
C1540 C1541 1.369 . S
C1540 H1549 0.929 . S
C1541 N1538 1.346 . S
C1541 C1540 1.369 . S
C1541 H1544 0.928 . S
C1542 N1538 1.345 . S
C1542 C1543 1.371 . S
C1542 H1545 0.931 . S
C1543 C1539 1.391 . S
C1543 C1542 1.371 . S
C1543 H1550 0.930 . S
H1544 C1541 0.928 . S
H1545 C1542 0.931 . S
H1546 C1522 0.930 . S
H1547 C1519 0.930 . S
H1548 C1528 0.930 . S
H1549 C1540 0.929 . S
H1550 C1543 0.930 . S
C1551 C1552 1.351 . S
C1551 N1554 1.368 . S
C1551 H1556 0.931 . S
C1552 C1551 1.351 . S
C1552 N1553 1.373 . S
C1552 H1580 0.930 . S
N1553 C1552 1.373 . S
N1553 C1555 1.340 . S
N1554 C1551 1.368 . S
N1554 C1555 1.321 . S
N1554 Co1557 2.135 . S
C1555 N1553 1.340 . S
C1555 N1554 1.321 . S
C1555 H1579 0.930 . S
H1556 C1551 0.931 . S
Co1557 N1554 2.135 . S
Co1557 N1560 2.121 . S
Co1557 O1565 2.055 . S
Co1557 O1568 2.039 . S
Co1557 N1571 2.140 . S
C1558 O1559 1.227 . S
C1558 O1568 1.265 . S
O1559 C1558 1.227 . S
N1560 Co1557 2.121 . S
N1560 C1562 1.375 . S
N1560 C1563 1.313 . S
C1561 C1562 1.338 . S
C1561 N1564 1.377 . S
C1561 H1581 0.930 . S
C1562 N1560 1.375 . S
C1562 C1561 1.338 . S
C1562 H1566 0.931 . S
C1563 N1560 1.313 . S
C1563 N1564 1.344 . S
C1563 H1567 0.930 . S
N1564 C1561 1.377 . S
N1564 C1563 1.344 . S
O1565 Co1557 2.055 . S
O1565 C1569 1.253 . S
H1566 C1562 0.931 . S
H1567 C1563 0.930 . S
O1568 Co1557 2.039 . S
O1568 C1558 1.265 . S
C1569 O1565 1.253 . S
C1569 O1570 1.227 . S
O1570 C1569 1.227 . S
N1571 Co1557 2.140 . S
N1571 C1574 1.346 . S
N1571 C1575 1.345 . S
C1572 C1573 1.387 . S
C1572 C1576 1.391 . S
C1573 C1572 1.387 . S
C1573 C1574 1.369 . S
C1573 H1582 0.929 . S
C1574 N1571 1.346 . S
C1574 C1573 1.369 . S
C1574 H1577 0.928 . S
C1575 N1571 1.345 . S
C1575 C1576 1.371 . S
C1575 H1578 0.931 . S
C1576 C1572 1.391 . S
C1576 C1575 1.371 . S
C1576 H1583 0.930 . S
H1577 C1574 0.928 . S
H1578 C1575 0.931 . S
H1579 C1555 0.930 . S
H1580 C1552 0.930 . S
H1581 C1561 0.930 . S
H1582 C1573 0.929 . S
H1583 C1576 0.930 . S
C1584 C1585 1.387 . S
C1584 H1588 0.950 . S
C1584 C1593 1.390 . S
C1585 C1584 1.387 . S
C1585 C1587 1.387 . S
H1586 C1593 0.950 . S
C1587 C1585 1.387 . S
C1587 C1589 1.390 . S
C1587 H1591 0.950 . S
H1588 C1584 0.950 . S
C1589 C1587 1.390 . S
C1589 C1590 1.387 . S
C1589 H1592 0.950 . S
C1590 C1589 1.387 . S
C1590 C1593 1.387 . S
H1591 C1587 0.950 . S
H1592 C1589 0.950 . S
C1593 C1584 1.390 . S
C1593 H1586 0.950 . S
C1593 C1590 1.387 . S
C1594 C1595 1.387 . S
C1594 H1598 0.950 . S
C1594 C1603 1.390 . S
C1595 C1594 1.387 . S
C1595 C1597 1.387 . S
H1596 C1603 0.950 . S
C1597 C1595 1.387 . S
C1597 C1599 1.390 . S
C1597 H1601 0.950 . S
H1598 C1594 0.950 . S
C1599 C1597 1.390 . S
C1599 C1600 1.387 . S
C1599 H1602 0.950 . S
C1600 C1599 1.387 . S
C1600 C1603 1.387 . S
H1601 C1597 0.950 . S
H1602 C1599 0.950 . S
C1603 C1594 1.390 . S
C1603 H1596 0.950 . S
C1603 C1600 1.387 . S
C1604 C1605 1.387 . S
C1604 H1608 0.950 . S
C1604 C1613 1.390 . S
C1605 C1604 1.387 . S
C1605 C1607 1.387 . S
H1606 C1613 0.950 . S
C1607 C1605 1.387 . S
C1607 C1609 1.390 . S
C1607 H1611 0.950 . S
H1608 C1604 0.950 . S
C1609 C1607 1.390 . S
C1609 C1610 1.387 . S
C1609 H1612 0.950 . S
C1610 C1609 1.387 . S
C1610 C1613 1.387 . S
H1611 C1607 0.950 . S
H1612 C1609 0.950 . S
C1613 C1604 1.390 . S
C1613 H1606 0.950 . S
C1613 C1610 1.387 . S
C1614 C1615 1.387 . S
C1614 H1618 0.950 . S
C1614 C1623 1.390 . S
C1615 C1614 1.387 . S
C1615 C1617 1.387 . S
H1616 C1623 0.950 . S
C1617 C1615 1.387 . S
C1617 C1619 1.390 . S
C1617 H1621 0.950 . S
H1618 C1614 0.950 . S
C1619 C1617 1.390 . S
C1619 C1620 1.387 . S
C1619 H1622 0.950 . S
C1620 C1619 1.387 . S
C1620 C1623 1.387 . S
H1621 C1617 0.950 . S
H1622 C1619 0.950 . S
C1623 C1614 1.390 . S
C1623 H1616 0.950 . S
C1623 C1620 1.387 . S
C1624 C1625 1.387 . S
C1624 H1628 0.950 . S
C1624 C1633 1.390 . S
C1625 C1624 1.387 . S
C1625 C1627 1.387 . S
H1626 C1633 0.950 . S
C1627 C1625 1.387 . S
C1627 C1629 1.390 . S
C1627 H1631 0.950 . S
H1628 C1624 0.950 . S
C1629 C1627 1.390 . S
C1629 C1630 1.387 . S
C1629 H1632 0.950 . S
C1630 C1629 1.387 . S
C1630 C1633 1.387 . S
H1631 C1627 0.950 . S
H1632 C1629 0.950 . S
C1633 C1624 1.390 . S
C1633 H1626 0.950 . S
C1633 C1630 1.387 . S
C1634 C1635 1.387 . S
C1634 H1638 0.950 . S
C1634 C1643 1.390 . S
C1635 C1634 1.387 . S
C1635 C1637 1.387 . S
H1636 C1643 0.950 . S
C1637 C1635 1.387 . S
C1637 C1639 1.390 . S
C1637 H1641 0.950 . S
H1638 C1634 0.950 . S
C1639 C1637 1.390 . S
C1639 C1640 1.387 . S
C1639 H1642 0.950 . S
C1640 C1639 1.387 . S
C1640 C1643 1.387 . S
H1641 C1637 0.950 . S
H1642 C1639 0.950 . S
C1643 C1634 1.390 . S
C1643 H1636 0.950 . S
C1643 C1640 1.387 . S
C1644 C1645 1.387 . S
C1644 H1648 0.950 . S
C1644 C1653 1.390 . S
C1645 C1644 1.387 . S
C1645 C1647 1.387 . S
H1646 C1653 0.950 . S
C1647 C1645 1.387 . S
C1647 C1649 1.390 . S
C1647 H1651 0.950 . S
H1648 C1644 0.950 . S
C1649 C1647 1.390 . S
C1649 C1650 1.387 . S
C1649 H1652 0.950 . S
C1650 C1649 1.387 . S
C1650 C1653 1.387 . S
H1651 C1647 0.950 . S
H1652 C1649 0.950 . S
C1653 C1644 1.390 . S
C1653 H1646 0.950 . S
C1653 C1650 1.387 . S
C1654 C1655 1.387 . S
C1654 H1658 0.950 . S
C1654 C1663 1.390 . S
C1655 C1654 1.387 . S
C1655 C1657 1.387 . S
H1656 C1663 0.950 . S
C1657 C1655 1.387 . S
C1657 C1659 1.390 . S
C1657 H1661 0.950 . S
H1658 C1654 0.950 . S
C1659 C1657 1.390 . S
C1659 C1660 1.387 . S
C1659 H1662 0.950 . S
C1660 C1659 1.387 . S
C1660 C1663 1.387 . S
H1661 C1657 0.950 . S
H1662 C1659 0.950 . S
C1663 C1654 1.390 . S
C1663 H1656 0.950 . S
C1663 C1660 1.387 . S
C1664 C1665 1.387 . S
C1664 H1668 0.950 . S
C1664 C1673 1.390 . S
C1665 C1664 1.387 . S
C1665 C1667 1.387 . S
H1666 C1673 0.950 . S
C1667 C1665 1.387 . S
C1667 C1669 1.390 . S
C1667 H1671 0.950 . S
H1668 C1664 0.950 . S
C1669 C1667 1.390 . S
C1669 C1670 1.387 . S
C1669 H1672 0.950 . S
C1670 C1669 1.387 . S
C1670 C1673 1.387 . S
H1671 C1667 0.950 . S
H1672 C1669 0.950 . S
C1673 C1664 1.390 . S
C1673 H1666 0.950 . S
C1673 C1670 1.387 . S
C1674 C1675 1.387 . S
C1674 H1678 0.950 . S
C1674 C1683 1.390 . S
C1675 C1674 1.387 . S
C1675 C1677 1.387 . S
H1676 C1683 0.950 . S
C1677 C1675 1.387 . S
C1677 C1679 1.390 . S
C1677 H1681 0.950 . S
H1678 C1674 0.950 . S
C1679 C1677 1.390 . S
C1679 C1680 1.387 . S
C1679 H1682 0.950 . S
C1680 C1679 1.387 . S
C1680 C1683 1.387 . S
H1681 C1677 0.950 . S
H1682 C1679 0.950 . S
C1683 C1674 1.390 . S
C1683 H1676 0.950 . S
C1683 C1680 1.387 . S
C1684 C1685 1.387 . S
C1684 H1688 0.950 . S
C1684 C1693 1.390 . S
C1685 C1684 1.387 . S
C1685 C1687 1.387 . S
H1686 C1693 0.950 . S
C1687 C1685 1.387 . S
C1687 C1689 1.390 . S
C1687 H1691 0.950 . S
H1688 C1684 0.950 . S
C1689 C1687 1.390 . S
C1689 C1690 1.387 . S
C1689 H1692 0.950 . S
C1690 C1689 1.387 . S
C1690 C1693 1.387 . S
H1691 C1687 0.950 . S
H1692 C1689 0.950 . S
C1693 C1684 1.390 . S
C1693 H1686 0.950 . S
C1693 C1690 1.387 . S
C1694 C1695 1.387 . S
C1694 H1698 0.950 . S
C1694 C1703 1.390 . S
C1695 C1694 1.387 . S
C1695 C1697 1.387 . S
H1696 C1703 0.950 . S
C1697 C1695 1.387 . S
C1697 C1699 1.390 . S
C1697 H1701 0.950 . S
H1698 C1694 0.950 . S
C1699 C1697 1.390 . S
C1699 C1700 1.387 . S
C1699 H1702 0.950 . S
C1700 C1699 1.387 . S
C1700 C1703 1.387 . S
H1701 C1697 0.950 . S
H1702 C1699 0.950 . S
C1703 C1694 1.390 . S
C1703 H1696 0.950 . S
C1703 C1700 1.387 . S
C1704 C1705 1.387 . S
C1704 H1708 0.950 . S
C1704 C1713 1.390 . S
C1705 C1704 1.387 . S
C1705 C1707 1.387 . S
H1706 C1713 0.950 . S
C1707 C1705 1.387 . S
C1707 C1709 1.390 . S
C1707 H1711 0.950 . S
H1708 C1704 0.950 . S
C1709 C1707 1.390 . S
C1709 C1710 1.387 . S
C1709 H1712 0.950 . S
C1710 C1709 1.387 . S
C1710 C1713 1.387 . S
H1711 C1707 0.950 . S
H1712 C1709 0.950 . S
C1713 C1704 1.390 . S
C1713 H1706 0.950 . S
C1713 C1710 1.387 . S
C1714 C1715 1.387 . S
C1714 H1718 0.950 . S
C1714 C1723 1.390 . S
C1715 C1714 1.387 . S
C1715 C1717 1.387 . S
H1716 C1723 0.950 . S
C1717 C1715 1.387 . S
C1717 C1719 1.390 . S
C1717 H1721 0.950 . S
H1718 C1714 0.950 . S
C1719 C1717 1.390 . S
C1719 C1720 1.387 . S
C1719 H1722 0.950 . S
C1720 C1719 1.387 . S
C1720 C1723 1.387 . S
H1721 C1717 0.950 . S
H1722 C1719 0.950 . S
C1723 C1714 1.390 . S
C1723 H1716 0.950 . S
C1723 C1720 1.387 . S
C1724 C1725 1.387 . S
C1724 H1728 0.950 . S
C1724 C1733 1.390 . S
C1725 C1724 1.387 . S
C1725 C1727 1.387 . S
H1726 C1733 0.950 . S
C1727 C1725 1.387 . S
C1727 C1729 1.390 . S
C1727 H1731 0.950 . S
H1728 C1724 0.950 . S
C1729 C1727 1.390 . S
C1729 C1730 1.387 . S
C1729 H1732 0.950 . S
C1730 C1729 1.387 . S
C1730 C1733 1.387 . S
H1731 C1727 0.950 . S
H1732 C1729 0.950 . S
C1733 C1724 1.390 . S
C1733 H1726 0.950 . S
C1733 C1730 1.387 . S
C1734 C1735 1.387 . S
C1734 H1738 0.950 . S
C1734 C1743 1.390 . S
C1735 C1734 1.387 . S
C1735 C1737 1.387 . S
H1736 C1743 0.950 . S
C1737 C1735 1.387 . S
C1737 C1739 1.390 . S
C1737 H1741 0.950 . S
H1738 C1734 0.950 . S
C1739 C1737 1.390 . S
C1739 C1740 1.387 . S
C1739 H1742 0.950 . S
C1740 C1739 1.387 . S
C1740 C1743 1.387 . S
H1741 C1737 0.950 . S
H1742 C1739 0.950 . S
C1743 C1734 1.390 . S
C1743 H1736 0.950 . S
C1743 C1740 1.387 . S
C1744 C1745 1.387 . S
C1744 H1748 0.950 . S
C1744 C1753 1.390 . S
C1745 C1744 1.387 . S
C1745 C1747 1.387 . S
H1746 C1753 0.950 . S
C1747 C1745 1.387 . S
C1747 C1749 1.390 . S
C1747 H1751 0.950 . S
H1748 C1744 0.950 . S
C1749 C1747 1.390 . S
C1749 C1750 1.387 . S
C1749 H1752 0.950 . S
C1750 C1749 1.387 . S
C1750 C1753 1.387 . S
H1751 C1747 0.950 . S
H1752 C1749 0.950 . S
C1753 C1744 1.390 . S
C1753 H1746 0.950 . S
C1753 C1750 1.387 . S
C1754 C1755 1.387 . S
C1754 H1758 0.950 . S
C1754 C1763 1.390 . S
C1755 C1754 1.387 . S
C1755 C1757 1.387 . S
H1756 C1763 0.950 . S
C1757 C1755 1.387 . S
C1757 C1759 1.390 . S
C1757 H1761 0.950 . S
H1758 C1754 0.950 . S
C1759 C1757 1.390 . S
C1759 C1760 1.387 . S
C1759 H1762 0.950 . S
C1760 C1759 1.387 . S
C1760 C1763 1.387 . S
H1761 C1757 0.950 . S
H1762 C1759 0.950 . S
C1763 C1754 1.390 . S
C1763 H1756 0.950 . S
C1763 C1760 1.387 . S
C1764 C1765 1.387 . S
C1764 H1768 0.950 . S
C1764 C1773 1.390 . S
C1765 C1764 1.387 . S
C1765 C1767 1.387 . S
H1766 C1773 0.950 . S
C1767 C1765 1.387 . S
C1767 C1769 1.390 . S
C1767 H1771 0.950 . S
H1768 C1764 0.950 . S
C1769 C1767 1.390 . S
C1769 C1770 1.387 . S
C1769 H1772 0.950 . S
C1770 C1769 1.387 . S
C1770 C1773 1.387 . S
H1771 C1767 0.950 . S
H1772 C1769 0.950 . S
C1773 C1764 1.390 . S
C1773 H1766 0.950 . S
C1773 C1770 1.387 . S
C1774 C1775 1.387 . S
C1774 H1778 0.950 . S
C1774 C1783 1.390 . S
C1775 C1774 1.387 . S
C1775 C1777 1.387 . S
H1776 C1783 0.950 . S
C1777 C1775 1.387 . S
C1777 C1779 1.390 . S
C1777 H1781 0.950 . S
H1778 C1774 0.950 . S
C1779 C1777 1.390 . S
C1779 C1780 1.387 . S
C1779 H1782 0.950 . S
C1780 C1779 1.387 . S
C1780 C1783 1.387 . S
H1781 C1777 0.950 . S
H1782 C1779 0.950 . S
C1783 C1774 1.390 . S
C1783 H1776 0.950 . S
C1783 C1780 1.387 . S
C1784 C1785 1.387 . S
C1784 H1788 0.950 . S
C1784 C1793 1.390 . S
C1785 C1784 1.387 . S
C1785 C1787 1.387 . S
H1786 C1793 0.950 . S
C1787 C1785 1.387 . S
C1787 C1789 1.390 . S
C1787 H1791 0.950 . S
H1788 C1784 0.950 . S
C1789 C1787 1.390 . S
C1789 C1790 1.387 . S
C1789 H1792 0.950 . S
C1790 C1789 1.387 . S
C1790 C1793 1.387 . S
H1791 C1787 0.950 . S
H1792 C1789 0.950 . S
C1793 C1784 1.390 . S
C1793 H1786 0.950 . S
C1793 C1790 1.387 . S
C1794 C1795 1.387 . S
C1794 H1798 0.950 . S
C1794 C1803 1.390 . S
C1795 C1794 1.387 . S
C1795 C1797 1.387 . S
H1796 C1803 0.950 . S
C1797 C1795 1.387 . S
C1797 C1799 1.390 . S
C1797 H1801 0.950 . S
H1798 C1794 0.950 . S
C1799 C1797 1.390 . S
C1799 C1800 1.387 . S
C1799 H1802 0.950 . S
C1800 C1799 1.387 . S
C1800 C1803 1.387 . S
H1801 C1797 0.950 . S
H1802 C1799 0.950 . S
C1803 C1794 1.390 . S
C1803 H1796 0.950 . S
C1803 C1800 1.387 . S
C1804 C1805 1.387 . S
C1804 H1808 0.950 . S
C1804 C1813 1.390 . S
C1805 C1804 1.387 . S
C1805 C1807 1.387 . S
H1806 C1813 0.950 . S
C1807 C1805 1.387 . S
C1807 C1809 1.390 . S
C1807 H1811 0.950 . S
H1808 C1804 0.950 . S
C1809 C1807 1.390 . S
C1809 C1810 1.387 . S
C1809 H1812 0.950 . S
C1810 C1809 1.387 . S
C1810 C1813 1.387 . S
H1811 C1807 0.950 . S
H1812 C1809 0.950 . S
C1813 C1804 1.390 . S
C1813 H1806 0.950 . S
C1813 C1810 1.387 . S
C1814 C1815 1.387 . S
C1814 H1818 0.950 . S
C1814 C1823 1.390 . S
C1815 C1814 1.387 . S
C1815 C1817 1.387 . S
H1816 C1823 0.950 . S
C1817 C1815 1.387 . S
C1817 C1819 1.390 . S
C1817 H1821 0.950 . S
H1818 C1814 0.950 . S
C1819 C1817 1.390 . S
C1819 C1820 1.387 . S
C1819 H1822 0.950 . S
C1820 C1819 1.387 . S
C1820 C1823 1.387 . S
H1821 C1817 0.950 . S
H1822 C1819 0.950 . S
C1823 C1814 1.390 . S
C1823 H1816 0.950 . S
C1823 C1820 1.387 . S
C1824 C1825 1.387 . S
C1824 H1828 0.950 . S
C1824 C1833 1.390 1_655 S
C1825 C1824 1.387 . S
C1825 C1827 1.387 . S
H1826 C1833 0.950 . S
C1827 C1825 1.387 . S
C1827 C1829 1.390 1_655 S
C1827 H1831 0.950 . S
H1828 C1824 0.950 . S
C1829 C1827 1.390 1_455 S
C1829 C1830 1.387 . S
C1829 H1832 0.950 . S
C1830 C1829 1.387 . S
C1830 C1833 1.387 . S
H1831 C1827 0.950 . S
H1832 C1829 0.950 . S
C1833 C1824 1.390 1_455 S
C1833 H1826 0.950 . S
C1833 C1830 1.387 . S
C1834 C1835 1.387 . S
C1834 H1838 0.950 . S
C1834 C1843 1.390 1_545 S
C1835 C1834 1.387 . S
C1835 C1837 1.387 . S
H1836 C1843 0.950 . S
C1837 C1835 1.387 . S
C1837 C1839 1.390 1_545 S
C1837 H1841 0.950 . S
H1838 C1834 0.950 . S
C1839 C1837 1.390 1_565 S
C1839 C1840 1.387 . S
C1839 H1842 0.950 . S
C1840 C1839 1.387 . S
C1840 C1843 1.387 . S
H1841 C1837 0.950 . S
H1842 C1839 0.950 . S
C1843 C1834 1.390 1_565 S
C1843 H1836 0.950 . S
C1843 C1840 1.387 . S
C1844 C1845 1.387 . S
C1844 H1848 0.950 . S
C1844 C1853 1.390 1_655 S
C1845 C1844 1.387 . S
C1845 C1847 1.387 . S
H1846 C1853 0.950 . S
C1847 C1845 1.387 . S
C1847 C1849 1.390 1_655 S
C1847 H1851 0.950 . S
H1848 C1844 0.950 . S
C1849 C1847 1.390 1_455 S
C1849 C1850 1.387 . S
C1849 H1852 0.950 . S
C1850 C1849 1.387 . S
C1850 C1853 1.387 . S
H1851 C1847 0.950 . S
H1852 C1849 0.950 . S
C1853 C1844 1.390 1_455 S
C1853 H1846 0.950 . S
C1853 C1850 1.387 . S
C1854 C1855 1.387 . S
C1854 H1858 0.950 . S
C1854 C1863 1.390 1_565 S
C1855 C1854 1.387 . S
C1855 C1857 1.387 . S
H1856 C1863 0.950 . S
C1857 C1855 1.387 . S
C1857 C1859 1.390 1_565 S
C1857 H1861 0.950 . S
H1858 C1854 0.950 . S
C1859 C1857 1.390 1_545 S
C1859 C1860 1.387 . S
C1859 H1862 0.950 . S
C1860 C1859 1.387 . S
C1860 C1863 1.387 . S
H1861 C1857 0.950 . S
H1862 C1859 0.950 . S
C1863 C1854 1.390 1_545 S
C1863 H1856 0.950 . S
C1863 C1860 1.387 . S
C1864 C1865 1.387 . S
C1864 H1868 0.950 . S
C1864 C1873 1.390 1_545 S
C1865 C1864 1.387 . S
C1865 C1867 1.387 . S
H1866 C1873 0.950 . S
C1867 C1865 1.387 . S
C1867 C1869 1.390 1_545 S
C1867 H1871 0.950 . S
H1868 C1864 0.950 . S
C1869 C1867 1.390 1_565 S
C1869 C1870 1.387 . S
C1869 H1872 0.950 . S
C1870 C1869 1.387 . S
C1870 C1873 1.387 . S
H1871 C1867 0.950 . S
H1872 C1869 0.950 . S
C1873 C1864 1.390 1_565 S
C1873 H1866 0.950 . S
C1873 C1870 1.387 . S
C1874 C1875 1.387 . S
C1874 H1878 0.950 . S
C1874 C1883 1.390 1_455 S
C1875 C1874 1.387 . S
C1875 C1877 1.387 . S
H1876 C1883 0.950 . S
C1877 C1875 1.387 . S
C1877 C1879 1.390 1_455 S
C1877 H1881 0.950 . S
H1878 C1874 0.950 . S
C1879 C1877 1.390 1_655 S
C1879 C1880 1.387 . S
C1879 H1882 0.950 . S
C1880 C1879 1.387 . S
C1880 C1883 1.387 . S
H1881 C1877 0.950 . S
H1882 C1879 0.950 . S
C1883 C1874 1.390 1_655 S
C1883 H1876 0.950 . S
C1883 C1880 1.387 . S
C1884 C1885 1.387 . S
C1884 H1888 0.950 . S
C1884 C1893 1.390 1_545 S
C1885 C1884 1.387 . S
C1885 C1887 1.387 . S
H1886 C1893 0.950 . S
C1887 C1885 1.387 . S
C1887 C1889 1.390 1_545 S
C1887 H1891 0.950 . S
H1888 C1884 0.950 . S
C1889 C1887 1.390 1_565 S
C1889 C1890 1.387 . S
C1889 H1892 0.950 . S
C1890 C1889 1.387 . S
C1890 C1893 1.387 . S
H1891 C1887 0.950 . S
H1892 C1889 0.950 . S
C1893 C1884 1.390 1_565 S
C1893 H1886 0.950 . S
C1893 C1890 1.387 . S
C1894 C1895 1.387 . S
C1894 H1898 0.950 . S
C1894 C1903 1.390 1_655 S
C1895 C1894 1.387 . S
C1895 C1897 1.387 . S
H1896 C1903 0.950 . S
C1897 C1895 1.387 . S
C1897 C1899 1.390 1_655 S
C1897 H1901 0.950 . S
H1898 C1894 0.950 . S
C1899 C1897 1.390 1_455 S
C1899 C1900 1.387 . S
C1899 H1902 0.950 . S
C1900 C1899 1.387 . S
C1900 C1903 1.387 . S
H1901 C1897 0.950 . S
H1902 C1899 0.950 . S
C1903 C1894 1.390 1_455 S
C1903 H1896 0.950 . S
C1903 C1900 1.387 . S
C1904 C1905 1.387 . S
C1904 H1908 0.950 . S
C1904 C1913 1.390 1_556 S
C1905 C1904 1.387 . S
C1905 C1907 1.387 . S
H1906 C1913 0.950 . S
C1907 C1905 1.387 . S
C1907 C1909 1.390 1_556 S
C1907 H1911 0.950 . S
H1908 C1904 0.950 . S
C1909 C1907 1.390 1_554 S
C1909 C1910 1.387 . S
C1909 H1912 0.950 . S
C1910 C1909 1.387 . S
C1910 C1913 1.387 . S
H1911 C1907 0.950 . S
H1912 C1909 0.950 . S
C1913 C1904 1.390 1_554 S
C1913 H1906 0.950 . S
C1913 C1910 1.387 . S
C1914 C1915 1.387 . S
C1914 H1918 0.950 . S
C1914 C1923 1.390 1_556 S
C1915 C1914 1.387 . S
C1915 C1917 1.387 . S
H1916 C1923 0.950 . S
C1917 C1915 1.387 . S
C1917 C1919 1.390 1_556 S
C1917 H1921 0.950 . S
H1918 C1914 0.950 . S
C1919 C1917 1.390 1_554 S
C1919 C1920 1.387 . S
C1919 H1922 0.950 . S
C1920 C1919 1.387 . S
C1920 C1923 1.387 . S
H1921 C1917 0.950 . S
H1922 C1919 0.950 . S
C1923 C1914 1.390 1_554 S
C1923 H1916 0.950 . S
C1923 C1920 1.387 . S
C1924 C1925 1.387 . S
C1924 H1928 0.950 . S
C1924 C1933 1.390 1_556 S
C1925 C1924 1.387 . S
C1925 C1927 1.387 . S
H1926 C1933 0.950 . S
C1927 C1925 1.387 . S
C1927 C1929 1.390 1_556 S
C1927 H1931 0.950 . S
H1928 C1924 0.950 . S
C1929 C1927 1.390 1_554 S
C1929 C1930 1.387 . S
C1929 H1932 0.950 . S
C1930 C1929 1.387 . S
C1930 C1933 1.387 . S
H1931 C1927 0.950 . S
H1932 C1929 0.950 . S
C1933 C1924 1.390 1_554 S
C1933 H1926 0.950 . S
C1933 C1930 1.387 . S
C1934 C1935 1.387 . S
C1934 H1938 0.950 . S
C1934 C1943 1.390 1_556 S
C1935 C1934 1.387 . S
C1935 C1937 1.387 . S
H1936 C1943 0.950 . S
C1937 C1935 1.387 . S
C1937 C1939 1.390 1_556 S
C1937 H1941 0.950 . S
H1938 C1934 0.950 . S
C1939 C1937 1.390 1_554 S
C1939 C1940 1.387 . S
C1939 H1942 0.950 . S
C1940 C1939 1.387 . S
C1940 C1943 1.387 . S
H1941 C1937 0.950 . S
H1942 C1939 0.950 . S
C1943 C1934 1.390 1_554 S
C1943 H1936 0.950 . S
C1943 C1940 1.387 . S
C1944 C1945 1.387 . S
C1944 H1948 0.950 . S
C1944 C1953 1.390 1_545 S
C1945 C1944 1.387 . S
C1945 C1947 1.387 . S
H1946 C1953 0.950 . S
C1947 C1945 1.387 . S
C1947 C1949 1.390 1_545 S
C1947 H1951 0.950 . S
H1948 C1944 0.950 . S
C1949 C1947 1.390 1_565 S
C1949 C1950 1.387 . S
C1949 H1952 0.950 . S
C1950 C1949 1.387 . S
C1950 C1953 1.387 . S
H1951 C1947 0.950 . S
H1952 C1949 0.950 . S
C1953 C1944 1.390 1_565 S
C1953 H1946 0.950 . S
C1953 C1950 1.387 . S
C1954 C1955 1.387 . S
C1954 H1958 0.950 . S
C1954 C1963 1.390 1_655 S
C1955 C1954 1.387 . S
C1955 C1957 1.387 . S
H1956 C1963 0.950 . S
C1957 C1955 1.387 . S
C1957 C1959 1.390 1_655 S
C1957 H1961 0.950 . S
H1958 C1954 0.950 . S
C1959 C1957 1.390 1_455 S
C1959 C1960 1.387 . S
C1959 H1962 0.950 . S
C1960 C1959 1.387 . S
C1960 C1963 1.387 . S
H1961 C1957 0.950 . S
H1962 C1959 0.950 . S
C1963 C1954 1.390 1_455 S
C1963 H1956 0.950 . S
C1963 C1960 1.387 . S
C1964 C1965 1.387 . S
C1964 H1968 0.950 . S
C1964 C1973 1.390 1_565 S
C1965 C1964 1.387 . S
C1965 C1967 1.387 . S
H1966 C1973 0.950 . S
C1967 C1965 1.387 . S
C1967 C1969 1.390 1_565 S
C1967 H1971 0.950 . S
H1968 C1964 0.950 . S
C1969 C1967 1.390 1_545 S
C1969 C1970 1.387 . S
C1969 H1972 0.950 . S
C1970 C1969 1.387 . S
C1970 C1973 1.387 . S
H1971 C1967 0.950 . S
H1972 C1969 0.950 . S
C1973 C1964 1.390 1_545 S
C1973 H1966 0.950 . S
C1973 C1970 1.387 . S
C1974 C1975 1.387 . S
C1974 H1978 0.950 . S
C1974 C1983 1.390 1_455 S
C1975 C1974 1.387 . S
C1975 C1977 1.387 . S
H1976 C1983 0.950 . S
C1977 C1975 1.387 . S
C1977 C1979 1.390 1_455 S
C1977 H1981 0.950 . S
H1978 C1974 0.950 . S
C1979 C1977 1.390 1_655 S
C1979 C1980 1.387 . S
C1979 H1982 0.950 . S
C1980 C1979 1.387 . S
C1980 C1983 1.387 . S
H1981 C1977 0.950 . S
H1982 C1979 0.950 . S
C1983 C1974 1.390 1_655 S
C1983 H1976 0.950 . S
C1983 C1980 1.387 . S
C1984 C1985 1.387 . S
C1984 H1988 0.950 . S
C1984 C1993 1.390 1_556 S
C1985 C1984 1.387 . S
C1985 C1987 1.387 . S
H1986 C1993 0.950 . S
C1987 C1985 1.387 . S
C1987 C1989 1.390 1_556 S
C1987 H1991 0.950 . S
H1988 C1984 0.950 . S
C1989 C1987 1.390 1_554 S
C1989 C1990 1.387 . S
C1989 H1992 0.950 . S
C1990 C1989 1.387 . S
C1990 C1993 1.387 . S
H1991 C1987 0.950 . S
H1992 C1989 0.950 . S
C1993 C1984 1.390 1_554 S
C1993 H1986 0.950 . S
C1993 C1990 1.387 . S
C1994 C1995 1.387 . S
C1994 H1998 0.950 . S
C1994 C2003 1.390 1_556 S
C1995 C1994 1.387 . S
C1995 C1997 1.387 . S
H1996 C2003 0.950 . S
C1997 C1995 1.387 . S
C1997 C1999 1.390 1_556 S
C1997 H2001 0.950 . S
H1998 C1994 0.950 . S
C1999 C1997 1.390 1_554 S
C1999 C2000 1.387 . S
C1999 H2002 0.950 . S
C2000 C1999 1.387 . S
C2000 C2003 1.387 . S
H2001 C1997 0.950 . S
H2002 C1999 0.950 . S
C2003 C1994 1.390 1_554 S
C2003 H1996 0.950 . S
C2003 C2000 1.387 . S
C2004 C2005 1.387 . S
C2004 H2008 0.950 . S
C2004 C2013 1.390 1_554 S
C2005 C2004 1.387 . S
C2005 C2007 1.387 . S
H2006 C2013 0.950 . S
C2007 C2005 1.387 . S
C2007 C2009 1.390 1_554 S
C2007 H2011 0.950 . S
H2008 C2004 0.950 . S
C2009 C2007 1.390 1_556 S
C2009 C2010 1.387 . S
C2009 H2012 0.950 . S
C2010 C2009 1.387 . S
C2010 C2013 1.387 . S
H2011 C2007 0.950 . S
H2012 C2009 0.950 . S
C2013 C2004 1.390 1_556 S
C2013 H2006 0.950 . S
C2013 C2010 1.387 . S
C2014 C2015 1.387 . S
C2014 H2018 0.950 . S
C2014 C2023 1.390 1_554 S
C2015 C2014 1.387 . S
C2015 C2017 1.387 . S
H2016 C2023 0.950 . S
C2017 C2015 1.387 . S
C2017 C2019 1.390 1_554 S
C2017 H2021 0.950 . S
H2018 C2014 0.950 . S
C2019 C2017 1.390 1_556 S
C2019 C2020 1.387 . S
C2019 H2022 0.950 . S
C2020 C2019 1.387 . S
C2020 C2023 1.387 . S
H2021 C2017 0.950 . S
H2022 C2019 0.950 . S
C2023 C2014 1.390 1_556 S
C2023 H2016 0.950 . S
C2023 C2020 1.387 . S
C2024 C2025 1.387 . S
C2024 H2028 0.950 . S
C2024 C2033 1.390 1_655 S
C2025 C2024 1.387 . S
C2025 C2027 1.387 . S
H2026 C2033 0.950 . S
C2027 C2025 1.387 . S
C2027 C2029 1.390 1_655 S
C2027 H2031 0.950 . S
H2028 C2024 0.950 . S
C2029 C2027 1.390 1_455 S
C2029 C2030 1.387 . S
C2029 H2032 0.950 . S
C2030 C2029 1.387 . S
C2030 C2033 1.387 . S
H2031 C2027 0.950 . S
H2032 C2029 0.950 . S
C2033 C2024 1.390 1_455 S
C2033 H2026 0.950 . S
C2033 C2030 1.387 . S
C2034 C2035 1.387 . S
C2034 H2038 0.950 . S
C2034 C2043 1.390 1_455 S
C2035 C2034 1.387 . S
C2035 C2037 1.387 . S
H2036 C2043 0.950 . S
C2037 C2035 1.387 . S
C2037 C2039 1.390 1_455 S
C2037 H2041 0.950 . S
H2038 C2034 0.950 . S
C2039 C2037 1.390 1_655 S
C2039 C2040 1.387 . S
C2039 H2042 0.950 . S
C2040 C2039 1.387 . S
C2040 C2043 1.387 . S
H2041 C2037 0.950 . S
H2042 C2039 0.950 . S
C2043 C2034 1.390 1_655 S
C2043 H2036 0.950 . S
C2043 C2040 1.387 . S
C2044 C2045 1.387 . S
C2044 H2048 0.950 . S
C2044 C2053 1.390 1_545 S
C2045 C2044 1.387 . S
C2045 C2047 1.387 . S
H2046 C2053 0.950 . S
C2047 C2045 1.387 . S
C2047 C2049 1.390 1_545 S
C2047 H2051 0.950 . S
H2048 C2044 0.950 . S
C2049 C2047 1.390 1_565 S
C2049 C2050 1.387 . S
C2049 H2052 0.950 . S
C2050 C2049 1.387 . S
C2050 C2053 1.387 . S
H2051 C2047 0.950 . S
H2052 C2049 0.950 . S
C2053 C2044 1.390 1_565 S
C2053 H2046 0.950 . S
C2053 C2050 1.387 . S
C2054 C2055 1.387 . S
C2054 H2058 0.950 . S
C2054 C2063 1.390 1_565 S
C2055 C2054 1.387 . S
C2055 C2057 1.387 . S
H2056 C2063 0.950 . S
C2057 C2055 1.387 . S
C2057 C2059 1.390 1_565 S
C2057 H2061 0.950 . S
H2058 C2054 0.950 . S
C2059 C2057 1.390 1_545 S
C2059 C2060 1.387 . S
C2059 H2062 0.950 . S
C2060 C2059 1.387 . S
C2060 C2063 1.387 . S
H2061 C2057 0.950 . S
H2062 C2059 0.950 . S
C2063 C2054 1.390 1_545 S
C2063 H2056 0.950 . S
C2063 C2060 1.387 . S
C2064 C2065 1.387 . S
C2064 H2068 0.950 . S
C2064 C2073 1.390 . S
C2065 C2064 1.387 . S
C2065 C2067 1.387 . S
H2066 C2073 0.950 . S
C2067 C2065 1.387 . S
C2067 C2069 1.390 . S
C2067 H2071 0.950 . S
H2068 C2064 0.950 . S
C2069 C2067 1.390 . S
C2069 C2070 1.387 . S
C2069 H2072 0.950 . S
C2070 C2069 1.387 . S
C2070 C2073 1.387 . S
H2071 C2067 0.950 . S
H2072 C2069 0.950 . S
C2073 C2064 1.390 . S
C2073 H2066 0.950 . S
C2073 C2070 1.387 . S
C2074 C2075 1.387 . S
C2074 H2078 0.950 . S
C2074 C2083 1.390 . S
C2075 C2074 1.387 . S
C2075 C2077 1.387 . S
H2076 C2083 0.950 . S
C2077 C2075 1.387 . S
C2077 C2079 1.390 . S
C2077 H2081 0.950 . S
H2078 C2074 0.950 . S
C2079 C2077 1.390 . S
C2079 C2080 1.387 . S
C2079 H2082 0.950 . S
C2080 C2079 1.387 . S
C2080 C2083 1.387 . S
H2081 C2077 0.950 . S
H2082 C2079 0.950 . S
C2083 C2074 1.390 . S
C2083 H2076 0.950 . S
C2083 C2080 1.387 . S
C2084 C2085 1.387 . S
C2084 H2088 0.950 . S
C2084 C2093 1.390 . S
C2085 C2084 1.387 . S
C2085 C2087 1.387 . S
H2086 C2093 0.950 . S
C2087 C2085 1.387 . S
C2087 C2089 1.390 . S
C2087 H2091 0.950 . S
H2088 C2084 0.950 . S
C2089 C2087 1.390 . S
C2089 C2090 1.387 . S
C2089 H2092 0.950 . S
C2090 C2089 1.387 . S
C2090 C2093 1.387 . S
H2091 C2087 0.950 . S
H2092 C2089 0.950 . S
C2093 C2084 1.390 . S
C2093 H2086 0.950 . S
C2093 C2090 1.387 . S
C2094 C2095 1.387 . S
C2094 H2098 0.950 . S
C2094 C2103 1.390 . S
C2095 C2094 1.387 . S
C2095 C2097 1.387 . S
H2096 C2103 0.950 . S
C2097 C2095 1.387 . S
C2097 C2099 1.390 . S
C2097 H2101 0.950 . S
H2098 C2094 0.950 . S
C2099 C2097 1.390 . S
C2099 C2100 1.387 . S
C2099 H2102 0.950 . S
C2100 C2099 1.387 . S
C2100 C2103 1.387 . S
H2101 C2097 0.950 . S
H2102 C2099 0.950 . S
C2103 C2094 1.390 . S
C2103 H2096 0.950 . S
C2103 C2100 1.387 . S
C2104 C2105 1.387 . S
C2104 H2108 0.950 . S
C2104 C2113 1.390 . S
C2105 C2104 1.387 . S
C2105 C2107 1.387 . S
H2106 C2113 0.950 . S
C2107 C2105 1.387 . S
C2107 C2109 1.390 . S
C2107 H2111 0.950 . S
H2108 C2104 0.950 . S
C2109 C2107 1.390 . S
C2109 C2110 1.387 . S
C2109 H2112 0.950 . S
C2110 C2109 1.387 . S
C2110 C2113 1.387 . S
H2111 C2107 0.950 . S
H2112 C2109 0.950 . S
C2113 C2104 1.390 . S
C2113 H2106 0.950 . S
C2113 C2110 1.387 . S
C2114 C2115 1.387 . S
C2114 H2118 0.950 . S
C2114 C2123 1.390 . S
C2115 C2114 1.387 . S
C2115 C2117 1.387 . S
H2116 C2123 0.950 . S
C2117 C2115 1.387 . S
C2117 C2119 1.390 . S
C2117 H2121 0.950 . S
H2118 C2114 0.950 . S
C2119 C2117 1.390 . S
C2119 C2120 1.387 . S
C2119 H2122 0.950 . S
C2120 C2119 1.387 . S
C2120 C2123 1.387 . S
H2121 C2117 0.950 . S
H2122 C2119 0.950 . S
C2123 C2114 1.390 . S
C2123 H2116 0.950 . S
C2123 C2120 1.387 . S
C2124 C2125 1.387 . S
C2124 H2128 0.950 . S
C2124 C2133 1.390 . S
C2125 C2124 1.387 . S
C2125 C2127 1.387 . S
H2126 C2133 0.950 . S
C2127 C2125 1.387 . S
C2127 C2129 1.390 . S
C2127 H2131 0.950 . S
H2128 C2124 0.950 . S
C2129 C2127 1.390 . S
C2129 C2130 1.387 . S
C2129 H2132 0.950 . S
C2130 C2129 1.387 . S
C2130 C2133 1.387 . S
H2131 C2127 0.950 . S
H2132 C2129 0.950 . S
C2133 C2124 1.390 . S
C2133 H2126 0.950 . S
C2133 C2130 1.387 . S
C2134 C2135 1.387 . S
C2134 H2138 0.950 . S
C2134 C2143 1.390 . S
C2135 C2134 1.387 . S
C2135 C2137 1.387 . S
H2136 C2143 0.950 . S
C2137 C2135 1.387 . S
C2137 C2139 1.390 . S
C2137 H2141 0.950 . S
H2138 C2134 0.950 . S
C2139 C2137 1.390 . S
C2139 C2140 1.387 . S
C2139 H2142 0.950 . S
C2140 C2139 1.387 . S
C2140 C2143 1.387 . S
H2141 C2137 0.950 . S
H2142 C2139 0.950 . S
C2143 C2134 1.390 . S
C2143 H2136 0.950 . S
C2143 C2140 1.387 . S
C2144 C2145 1.387 . S
C2144 H2148 0.950 . S
C2144 C2153 1.390 . S
C2145 C2144 1.387 . S
C2145 C2147 1.387 . S
H2146 C2153 0.950 . S
C2147 C2145 1.387 . S
C2147 C2149 1.390 . S
C2147 H2151 0.950 . S
H2148 C2144 0.950 . S
C2149 C2147 1.390 . S
C2149 C2150 1.387 . S
C2149 H2152 0.950 . S
C2150 C2149 1.387 . S
C2150 C2153 1.387 . S
H2151 C2147 0.950 . S
H2152 C2149 0.950 . S
C2153 C2144 1.390 . S
C2153 H2146 0.950 . S
C2153 C2150 1.387 . S
C2154 C2155 1.387 . S
C2154 H2158 0.950 . S
C2154 C2163 1.390 . S
C2155 C2154 1.387 . S
C2155 C2157 1.387 . S
H2156 C2163 0.950 . S
C2157 C2155 1.387 . S
C2157 C2159 1.390 . S
C2157 H2161 0.950 . S
H2158 C2154 0.950 . S
C2159 C2157 1.390 . S
C2159 C2160 1.387 . S
C2159 H2162 0.950 . S
C2160 C2159 1.387 . S
C2160 C2163 1.387 . S
H2161 C2157 0.950 . S
H2162 C2159 0.950 . S
C2163 C2154 1.390 . S
C2163 H2156 0.950 . S
C2163 C2160 1.387 . S
C2164 C2165 1.387 . S
C2164 H2168 0.950 . S
C2164 C2173 1.390 . S
C2165 C2164 1.387 . S
C2165 C2167 1.387 . S
H2166 C2173 0.950 . S
C2167 C2165 1.387 . S
C2167 C2169 1.390 . S
C2167 H2171 0.950 . S
H2168 C2164 0.950 . S
C2169 C2167 1.390 . S
C2169 C2170 1.387 . S
C2169 H2172 0.950 . S
C2170 C2169 1.387 . S
C2170 C2173 1.387 . S
H2171 C2167 0.950 . S
H2172 C2169 0.950 . S
C2173 C2164 1.390 . S
C2173 H2166 0.950 . S
C2173 C2170 1.387 . S
C2174 C2175 1.387 . S
C2174 H2178 0.950 . S
C2174 C2183 1.390 . S
C2175 C2174 1.387 . S
C2175 C2177 1.387 . S
H2176 C2183 0.950 . S
C2177 C2175 1.387 . S
C2177 C2179 1.390 . S
C2177 H2181 0.950 . S
H2178 C2174 0.950 . S
C2179 C2177 1.390 . S
C2179 C2180 1.387 . S
C2179 H2182 0.950 . S
C2180 C2179 1.387 . S
C2180 C2183 1.387 . S
H2181 C2177 0.950 . S
H2182 C2179 0.950 . S
C2183 C2174 1.390 . S
C2183 H2176 0.950 . S
C2183 C2180 1.387 . S
C2184 C2185 1.387 . S
C2184 H2188 0.950 . S
C2184 C2193 1.390 1_565 S
C2185 C2184 1.387 . S
C2185 C2187 1.387 . S
H2186 C2193 0.950 . S
C2187 C2185 1.387 . S
C2187 C2189 1.390 1_565 S
C2187 H2191 0.950 . S
H2188 C2184 0.950 . S
C2189 C2187 1.390 1_545 S
C2189 C2190 1.387 . S
C2189 H2192 0.950 . S
C2190 C2189 1.387 . S
C2190 C2193 1.387 . S
H2191 C2187 0.950 . S
H2192 C2189 0.950 . S
C2193 C2184 1.390 1_545 S
C2193 H2186 0.950 . S
C2193 C2190 1.387 . S
C2194 C2195 1.387 . S
C2194 H2198 0.950 . S
C2194 C2203 1.390 1_655 S
C2195 C2194 1.387 . S
C2195 C2197 1.387 . S
H2196 C2203 0.950 . S
C2197 C2195 1.387 . S
C2197 C2199 1.390 1_655 S
C2197 H2201 0.950 . S
H2198 C2194 0.950 . S
C2199 C2197 1.390 1_455 S
C2199 C2200 1.387 . S
C2199 H2202 0.950 . S
C2200 C2199 1.387 . S
C2200 C2203 1.387 . S
H2201 C2197 0.950 . S
H2202 C2199 0.950 . S
C2203 C2194 1.390 1_455 S
C2203 H2196 0.950 . S
C2203 C2200 1.387 . S
C2204 C2205 1.387 . S
C2204 H2208 0.950 . S
C2204 C2213 1.390 1_565 S
C2205 C2204 1.387 . S
C2205 C2207 1.387 . S
H2206 C2213 0.950 . S
C2207 C2205 1.387 . S
C2207 C2209 1.390 1_565 S
C2207 H2211 0.950 . S
H2208 C2204 0.950 . S
C2209 C2207 1.390 1_545 S
C2209 C2210 1.387 . S
C2209 H2212 0.950 . S
C2210 C2209 1.387 . S
C2210 C2213 1.387 . S
H2211 C2207 0.950 . S
H2212 C2209 0.950 . S
C2213 C2204 1.390 1_545 S
C2213 H2206 0.950 . S
C2213 C2210 1.387 . S
C2214 C2215 1.387 . S
C2214 H2218 0.950 . S
C2214 C2223 1.390 1_655 S
C2215 C2214 1.387 . S
C2215 C2217 1.387 . S
H2216 C2223 0.950 . S
C2217 C2215 1.387 . S
C2217 C2219 1.390 1_655 S
C2217 H2221 0.950 . S
H2218 C2214 0.950 . S
C2219 C2217 1.390 1_455 S
C2219 C2220 1.387 . S
C2219 H2222 0.950 . S
C2220 C2219 1.387 . S
C2220 C2223 1.387 . S
H2221 C2217 0.950 . S
H2222 C2219 0.950 . S
C2223 C2214 1.390 1_455 S
C2223 H2216 0.950 . S
C2223 C2220 1.387 . S
C2224 C2225 1.387 . S
C2224 H2228 0.950 . S
C2224 C2233 1.390 1_565 S
C2225 C2224 1.387 . S
C2225 C2227 1.387 . S
H2226 C2233 0.950 . S
C2227 C2225 1.387 . S
C2227 C2229 1.390 1_565 S
C2227 H2231 0.950 . S
H2228 C2224 0.950 . S
C2229 C2227 1.390 1_545 S
C2229 C2230 1.387 . S
C2229 H2232 0.950 . S
C2230 C2229 1.387 . S
C2230 C2233 1.387 . S
H2231 C2227 0.950 . S
H2232 C2229 0.950 . S
C2233 C2224 1.390 1_545 S
C2233 H2226 0.950 . S
C2233 C2230 1.387 . S
C2234 C2235 1.387 . S
C2234 H2238 0.950 . S
C2234 C2243 1.390 1_455 S
C2235 C2234 1.387 . S
C2235 C2237 1.387 . S
H2236 C2243 0.950 . S
C2237 C2235 1.387 . S
C2237 C2239 1.390 1_455 S
C2237 H2241 0.950 . S
H2238 C2234 0.950 . S
C2239 C2237 1.390 1_655 S
C2239 C2240 1.387 . S
C2239 H2242 0.950 . S
C2240 C2239 1.387 . S
C2240 C2243 1.387 . S
H2241 C2237 0.950 . S
H2242 C2239 0.950 . S
C2243 C2234 1.390 1_655 S
C2243 H2236 0.950 . S
C2243 C2240 1.387 . S
C2244 C2245 1.387 . S
C2244 H2248 0.950 . S
C2244 C2253 1.390 1_545 S
C2245 C2244 1.387 . S
C2245 C2247 1.387 . S
H2246 C2253 0.950 . S
C2247 C2245 1.387 . S
C2247 C2249 1.390 1_545 S
C2247 H2251 0.950 . S
H2248 C2244 0.950 . S
C2249 C2247 1.390 1_565 S
C2249 C2250 1.387 . S
C2249 H2252 0.950 . S
C2250 C2249 1.387 . S
C2250 C2253 1.387 . S
H2251 C2247 0.950 . S
H2252 C2249 0.950 . S
C2253 C2244 1.390 1_565 S
C2253 H2246 0.950 . S
C2253 C2250 1.387 . S
C2254 C2255 1.387 . S
C2254 H2258 0.950 . S
C2254 C2263 1.390 1_455 S
C2255 C2254 1.387 . S
C2255 C2257 1.387 . S
H2256 C2263 0.950 . S
C2257 C2255 1.387 . S
C2257 C2259 1.390 1_455 S
C2257 H2261 0.950 . S
H2258 C2254 0.950 . S
C2259 C2257 1.390 1_655 S
C2259 C2260 1.387 . S
C2259 H2262 0.950 . S
C2260 C2259 1.387 . S
C2260 C2263 1.387 . S
H2261 C2257 0.950 . S
H2262 C2259 0.950 . S
C2263 C2254 1.390 1_655 S
C2263 H2256 0.950 . S
C2263 C2260 1.387 . S
C2264 C2265 1.387 . S
C2264 H2268 0.950 . S
C2264 C2273 1.390 1_556 S
C2265 C2264 1.387 . S
C2265 C2267 1.387 . S
H2266 C2273 0.950 . S
C2267 C2265 1.387 . S
C2267 C2269 1.390 1_556 S
C2267 H2271 0.950 . S
H2268 C2264 0.950 . S
C2269 C2267 1.390 1_554 S
C2269 C2270 1.387 . S
C2269 H2272 0.950 . S
C2270 C2269 1.387 . S
C2270 C2273 1.387 . S
H2271 C2267 0.950 . S
H2272 C2269 0.950 . S
C2273 C2264 1.390 1_554 S
C2273 H2266 0.950 . S
C2273 C2270 1.387 . S
C2274 C2275 1.387 . S
C2274 H2278 0.950 . S
C2274 C2283 1.390 1_556 S
C2275 C2274 1.387 . S
C2275 C2277 1.387 . S
H2276 C2283 0.950 . S
C2277 C2275 1.387 . S
C2277 C2279 1.390 1_556 S
C2277 H2281 0.950 . S
H2278 C2274 0.950 . S
C2279 C2277 1.390 1_554 S
C2279 C2280 1.387 . S
C2279 H2282 0.950 . S
C2280 C2279 1.387 . S
C2280 C2283 1.387 . S
H2281 C2277 0.950 . S
H2282 C2279 0.950 . S
C2283 C2274 1.390 1_554 S
C2283 H2276 0.950 . S
C2283 C2280 1.387 . S
C2284 C2285 1.387 . S
C2284 H2288 0.950 . S
C2284 C2293 1.390 1_554 S
C2285 C2284 1.387 . S
C2285 C2287 1.387 . S
H2286 C2293 0.950 . S
C2287 C2285 1.387 . S
C2287 C2289 1.390 1_554 S
C2287 H2291 0.950 . S
H2288 C2284 0.950 . S
C2289 C2287 1.390 1_556 S
C2289 C2290 1.387 . S
C2289 H2292 0.950 . S
C2290 C2289 1.387 . S
C2290 C2293 1.387 . S
H2291 C2287 0.950 . S
H2292 C2289 0.950 . S
C2293 C2284 1.390 1_556 S
C2293 H2286 0.950 . S
C2293 C2290 1.387 . S
C2294 C2295 1.387 . S
C2294 H2298 0.950 . S
C2294 C2303 1.390 1_554 S
C2295 C2294 1.387 . S
C2295 C2297 1.387 . S
H2296 C2303 0.950 . S
C2297 C2295 1.387 . S
C2297 C2299 1.390 1_554 S
C2297 H2301 0.950 . S
H2298 C2294 0.950 . S
C2299 C2297 1.390 1_556 S
C2299 C2300 1.387 . S
C2299 H2302 0.950 . S
C2300 C2299 1.387 . S
C2300 C2303 1.387 . S
H2301 C2297 0.950 . S
H2302 C2299 0.950 . S
C2303 C2294 1.390 1_556 S
C2303 H2296 0.950 . S
C2303 C2300 1.387 . S
C2304 C2305 1.387 . S
C2304 H2308 0.950 . S
C2304 C2313 1.390 . S
C2305 C2304 1.387 . S
C2305 C2307 1.387 . S
H2306 C2313 0.950 . S
C2307 C2305 1.387 . S
C2307 C2309 1.390 . S
C2307 H2311 0.950 . S
H2308 C2304 0.950 . S
C2309 C2307 1.390 . S
C2309 C2310 1.387 . S
C2309 H2312 0.950 . S
C2310 C2309 1.387 . S
C2310 C2313 1.387 . S
H2311 C2307 0.950 . S
H2312 C2309 0.950 . S
C2313 C2304 1.390 . S
C2313 H2306 0.950 . S
C2313 C2310 1.387 . S
C2314 C2315 1.387 . S
C2314 H2318 0.950 . S
C2314 C2323 1.390 . S
C2315 C2314 1.387 . S
C2315 C2317 1.387 . S
H2316 C2323 0.950 . S
C2317 C2315 1.387 . S
C2317 C2319 1.390 . S
C2317 H2321 0.950 . S
H2318 C2314 0.950 . S
C2319 C2317 1.390 . S
C2319 C2320 1.387 . S
C2319 H2322 0.950 . S
C2320 C2319 1.387 . S
C2320 C2323 1.387 . S
H2321 C2317 0.950 . S
H2322 C2319 0.950 . S
C2323 C2314 1.390 . S
C2323 H2316 0.950 . S
C2323 C2320 1.387 . S
C2324 C2325 1.387 . S
C2324 H2328 0.950 . S
C2324 C2333 1.390 . S
C2325 C2324 1.387 . S
C2325 C2327 1.387 . S
H2326 C2333 0.950 . S
C2327 C2325 1.387 . S
C2327 C2329 1.390 . S
C2327 H2331 0.950 . S
H2328 C2324 0.950 . S
C2329 C2327 1.390 . S
C2329 C2330 1.387 . S
C2329 H2332 0.950 . S
C2330 C2329 1.387 . S
C2330 C2333 1.387 . S
H2331 C2327 0.950 . S
H2332 C2329 0.950 . S
C2333 C2324 1.390 . S
C2333 H2326 0.950 . S
C2333 C2330 1.387 . S
C2334 C2335 1.387 . S
C2334 H2338 0.950 . S
C2334 C2343 1.390 . S
C2335 C2334 1.387 . S
C2335 C2337 1.387 . S
H2336 C2343 0.950 . S
C2337 C2335 1.387 . S
C2337 C2339 1.390 . S
C2337 H2341 0.950 . S
H2338 C2334 0.950 . S
C2339 C2337 1.390 . S
C2339 C2340 1.387 . S
C2339 H2342 0.950 . S
C2340 C2339 1.387 . S
C2340 C2343 1.387 . S
H2341 C2337 0.950 . S
H2342 C2339 0.950 . S
C2343 C2334 1.390 . S
C2343 H2336 0.950 . S
C2343 C2340 1.387 . S
C2344 C2345 1.387 . S
C2344 H2348 0.950 . S
C2344 C2353 1.390 . S
C2345 C2344 1.387 . S
C2345 C2347 1.387 . S
H2346 C2353 0.950 . S
C2347 C2345 1.387 . S
C2347 C2349 1.390 . S
C2347 H2351 0.950 . S
H2348 C2344 0.950 . S
C2349 C2347 1.390 . S
C2349 C2350 1.387 . S
C2349 H2352 0.950 . S
C2350 C2349 1.387 . S
C2350 C2353 1.387 . S
H2351 C2347 0.950 . S
H2352 C2349 0.950 . S
C2353 C2344 1.390 . S
C2353 H2346 0.950 . S
C2353 C2350 1.387 . S
C2354 C2355 1.387 . S
C2354 H2358 0.950 . S
C2354 C2363 1.390 . S
C2355 C2354 1.387 . S
C2355 C2357 1.387 . S
H2356 C2363 0.950 . S
C2357 C2355 1.387 . S
C2357 C2359 1.390 . S
C2357 H2361 0.950 . S
H2358 C2354 0.950 . S
C2359 C2357 1.390 . S
C2359 C2360 1.387 . S
C2359 H2362 0.950 . S
C2360 C2359 1.387 . S
C2360 C2363 1.387 . S
H2361 C2357 0.950 . S
H2362 C2359 0.950 . S
C2363 C2354 1.390 . S
C2363 H2356 0.950 . S
C2363 C2360 1.387 . S
C2364 C2365 1.387 . S
C2364 H2368 0.950 . S
C2364 C2373 1.390 . S
C2365 C2364 1.387 . S
C2365 C2367 1.387 . S
H2366 C2373 0.950 . S
C2367 C2365 1.387 . S
C2367 C2369 1.390 . S
C2367 H2371 0.950 . S
H2368 C2364 0.950 . S
C2369 C2367 1.390 . S
C2369 C2370 1.387 . S
C2369 H2372 0.950 . S
C2370 C2369 1.387 . S
C2370 C2373 1.387 . S
H2371 C2367 0.950 . S
H2372 C2369 0.950 . S
C2373 C2364 1.390 . S
C2373 H2366 0.950 . S
C2373 C2370 1.387 . S
C2374 C2375 1.387 . S
C2374 H2378 0.950 . S
C2374 C2383 1.390 . S
C2375 C2374 1.387 . S
C2375 C2377 1.387 . S
H2376 C2383 0.950 . S
C2377 C2375 1.387 . S
C2377 C2379 1.390 . S
C2377 H2381 0.950 . S
H2378 C2374 0.950 . S
C2379 C2377 1.390 . S
C2379 C2380 1.387 . S
C2379 H2382 0.950 . S
C2380 C2379 1.387 . S
C2380 C2383 1.387 . S
H2381 C2377 0.950 . S
H2382 C2379 0.950 . S
C2383 C2374 1.390 . S
C2383 H2376 0.950 . S
C2383 C2380 1.387 . S
C2384 C2385 1.387 . S
C2384 H2388 0.950 . S
C2384 C2393 1.390 . S
C2385 C2384 1.387 . S
C2385 C2387 1.387 . S
H2386 C2393 0.950 . S
C2387 C2385 1.387 . S
C2387 C2389 1.390 . S
C2387 H2391 0.950 . S
H2388 C2384 0.950 . S
C2389 C2387 1.390 . S
C2389 C2390 1.387 . S
C2389 H2392 0.950 . S
C2390 C2389 1.387 . S
C2390 C2393 1.387 . S
H2391 C2387 0.950 . S
H2392 C2389 0.950 . S
C2393 C2384 1.390 . S
C2393 H2386 0.950 . S
C2393 C2390 1.387 . S
C2394 C2395 1.387 . S
C2394 H2398 0.950 . S
C2394 C2403 1.390 . S
C2395 C2394 1.387 . S
C2395 C2397 1.387 . S
H2396 C2403 0.950 . S
C2397 C2395 1.387 . S
C2397 C2399 1.390 . S
C2397 H2401 0.950 . S
H2398 C2394 0.950 . S
C2399 C2397 1.390 . S
C2399 C2400 1.387 . S
C2399 H2402 0.950 . S
C2400 C2399 1.387 . S
C2400 C2403 1.387 . S
H2401 C2397 0.950 . S
H2402 C2399 0.950 . S
C2403 C2394 1.390 . S
C2403 H2396 0.950 . S
C2403 C2400 1.387 . S
C2404 C2405 1.387 . S
C2404 H2408 0.950 . S
C2404 C2413 1.390 . S
C2405 C2404 1.387 . S
C2405 C2407 1.387 . S
H2406 C2413 0.950 . S
C2407 C2405 1.387 . S
C2407 C2409 1.390 . S
C2407 H2411 0.950 . S
H2408 C2404 0.950 . S
C2409 C2407 1.390 . S
C2409 C2410 1.387 . S
C2409 H2412 0.950 . S
C2410 C2409 1.387 . S
C2410 C2413 1.387 . S
H2411 C2407 0.950 . S
H2412 C2409 0.950 . S
C2413 C2404 1.390 . S
C2413 H2406 0.950 . S
C2413 C2410 1.387 . S
C2414 C2415 1.387 . S
C2414 H2418 0.950 . S
C2414 C2423 1.390 . S
C2415 C2414 1.387 . S
C2415 C2417 1.387 . S
H2416 C2423 0.950 . S
C2417 C2415 1.387 . S
C2417 C2419 1.390 . S
C2417 H2421 0.950 . S
H2418 C2414 0.950 . S
C2419 C2417 1.390 . S
C2419 C2420 1.387 . S
C2419 H2422 0.950 . S
C2420 C2419 1.387 . S
C2420 C2423 1.387 . S
H2421 C2417 0.950 . S
H2422 C2419 0.950 . S
C2423 C2414 1.390 . S
C2423 H2416 0.950 . S
C2423 C2420 1.387 . S
C2424 C2425 1.387 . S
C2424 H2428 0.950 . S
C2424 C2433 1.390 . S
C2425 C2424 1.387 . S
C2425 C2427 1.387 . S
H2426 C2433 0.950 . S
C2427 C2425 1.387 . S
C2427 C2429 1.390 . S
C2427 H2431 0.950 . S
H2428 C2424 0.950 . S
C2429 C2427 1.390 . S
C2429 C2430 1.387 . S
C2429 H2432 0.950 . S
C2430 C2429 1.387 . S
C2430 C2433 1.387 . S
H2431 C2427 0.950 . S
H2432 C2429 0.950 . S
C2433 C2424 1.390 . S
C2433 H2426 0.950 . S
C2433 C2430 1.387 . S
C2434 C2435 1.387 . S
C2434 H2438 0.950 . S
C2434 C2443 1.390 . S
C2435 C2434 1.387 . S
C2435 C2437 1.387 . S
H2436 C2443 0.950 . S
C2437 C2435 1.387 . S
C2437 C2439 1.390 . S
C2437 H2441 0.950 . S
H2438 C2434 0.950 . S
C2439 C2437 1.390 . S
C2439 C2440 1.387 . S
C2439 H2442 0.950 . S
C2440 C2439 1.387 . S
C2440 C2443 1.387 . S
H2441 C2437 0.950 . S
H2442 C2439 0.950 . S
C2443 C2434 1.390 . S
C2443 H2436 0.950 . S
C2443 C2440 1.387 . S
C2444 C2445 1.387 . S
C2444 H2448 0.950 . S
C2444 C2453 1.390 . S
C2445 C2444 1.387 . S
C2445 C2447 1.387 . S
H2446 C2453 0.950 . S
C2447 C2445 1.387 . S
C2447 C2449 1.390 . S
C2447 H2451 0.950 . S
H2448 C2444 0.950 . S
C2449 C2447 1.390 . S
C2449 C2450 1.387 . S
C2449 H2452 0.950 . S
C2450 C2449 1.387 . S
C2450 C2453 1.387 . S
H2451 C2447 0.950 . S
H2452 C2449 0.950 . S
C2453 C2444 1.390 . S
C2453 H2446 0.950 . S
C2453 C2450 1.387 . S
C2454 C2455 1.387 . S
C2454 H2458 0.950 . S
C2454 C2463 1.390 . S
C2455 C2454 1.387 . S
C2455 C2457 1.387 . S
H2456 C2463 0.950 . S
C2457 C2455 1.387 . S
C2457 C2459 1.390 . S
C2457 H2461 0.950 . S
H2458 C2454 0.950 . S
C2459 C2457 1.390 . S
C2459 C2460 1.387 . S
C2459 H2462 0.950 . S
C2460 C2459 1.387 . S
C2460 C2463 1.387 . S
H2461 C2457 0.950 . S
H2462 C2459 0.950 . S
C2463 C2454 1.390 . S
C2463 H2456 0.950 . S
C2463 C2460 1.387 . S
C2464 C2465 1.387 . S
C2464 H2468 0.950 . S
C2464 C2473 1.390 . S
C2465 C2464 1.387 . S
C2465 C2467 1.387 . S
H2466 C2473 0.950 . S
C2467 C2465 1.387 . S
C2467 C2469 1.390 . S
C2467 H2471 0.950 . S
H2468 C2464 0.950 . S
C2469 C2467 1.390 . S
C2469 C2470 1.387 . S
C2469 H2472 0.950 . S
C2470 C2469 1.387 . S
C2470 C2473 1.387 . S
H2471 C2467 0.950 . S
H2472 C2469 0.950 . S
C2473 C2464 1.390 . S
C2473 H2466 0.950 . S
C2473 C2470 1.387 . S
C2474 C2475 1.387 . S
C2474 H2478 0.950 . S
C2474 C2483 1.390 . S
C2475 C2474 1.387 . S
C2475 C2477 1.387 . S
H2476 C2483 0.950 . S
C2477 C2475 1.387 . S
C2477 C2479 1.390 . S
C2477 H2481 0.950 . S
H2478 C2474 0.950 . S
C2479 C2477 1.390 . S
C2479 C2480 1.387 . S
C2479 H2482 0.950 . S
C2480 C2479 1.387 . S
C2480 C2483 1.387 . S
H2481 C2477 0.950 . S
H2482 C2479 0.950 . S
C2483 C2474 1.390 . S
C2483 H2476 0.950 . S
C2483 C2480 1.387 . S
C2484 C2485 1.387 . S
C2484 H2488 0.950 . S
C2484 C2493 1.390 . S
C2485 C2484 1.387 . S
C2485 C2487 1.387 . S
H2486 C2493 0.950 . S
C2487 C2485 1.387 . S
C2487 C2489 1.390 . S
C2487 H2491 0.950 . S
H2488 C2484 0.950 . S
C2489 C2487 1.390 . S
C2489 C2490 1.387 . S
C2489 H2492 0.950 . S
C2490 C2489 1.387 . S
C2490 C2493 1.387 . S
H2491 C2487 0.950 . S
H2492 C2489 0.950 . S
C2493 C2484 1.390 . S
C2493 H2486 0.950 . S
C2493 C2490 1.387 . S
C2494 C2495 1.387 . S
C2494 H2498 0.950 . S
C2494 C2503 1.390 . S
C2495 C2494 1.387 . S
C2495 C2497 1.387 . S
H2496 C2503 0.950 . S
C2497 C2495 1.387 . S
C2497 C2499 1.390 . S
C2497 H2501 0.950 . S
H2498 C2494 0.950 . S
C2499 C2497 1.390 . S
C2499 C2500 1.387 . S
C2499 H2502 0.950 . S
C2500 C2499 1.387 . S
C2500 C2503 1.387 . S
H2501 C2497 0.950 . S
H2502 C2499 0.950 . S
C2503 C2494 1.390 . S
C2503 H2496 0.950 . S
C2503 C2500 1.387 . S
C2504 C2505 1.387 . S
C2504 H2508 0.950 . S
C2504 C2513 1.390 . S
C2505 C2504 1.387 . S
C2505 C2507 1.387 . S
H2506 C2513 0.950 . S
C2507 C2505 1.387 . S
C2507 C2509 1.390 . S
C2507 H2511 0.950 . S
H2508 C2504 0.950 . S
C2509 C2507 1.390 . S
C2509 C2510 1.387 . S
C2509 H2512 0.950 . S
C2510 C2509 1.387 . S
C2510 C2513 1.387 . S
H2511 C2507 0.950 . S
H2512 C2509 0.950 . S
C2513 C2504 1.390 . S
C2513 H2506 0.950 . S
C2513 C2510 1.387 . S
C2514 C2515 1.387 . S
C2514 H2518 0.950 . S
C2514 C2523 1.390 . S
C2515 C2514 1.387 . S
C2515 C2517 1.387 . S
H2516 C2523 0.950 . S
C2517 C2515 1.387 . S
C2517 C2519 1.390 . S
C2517 H2521 0.950 . S
H2518 C2514 0.950 . S
C2519 C2517 1.390 . S
C2519 C2520 1.387 . S
C2519 H2522 0.950 . S
C2520 C2519 1.387 . S
C2520 C2523 1.387 . S
H2521 C2517 0.950 . S
H2522 C2519 0.950 . S
C2523 C2514 1.390 . S
C2523 H2516 0.950 . S
C2523 C2520 1.387 . S
C2524 C2525 1.387 . S
C2524 H2528 0.950 . S
C2524 C2533 1.390 . S
C2525 C2524 1.387 . S
C2525 C2527 1.387 . S
H2526 C2533 0.950 . S
C2527 C2525 1.387 . S
C2527 C2529 1.390 . S
C2527 H2531 0.950 . S
H2528 C2524 0.950 . S
C2529 C2527 1.390 . S
C2529 C2530 1.387 . S
C2529 H2532 0.950 . S
C2530 C2529 1.387 . S
C2530 C2533 1.387 . S
H2531 C2527 0.950 . S
H2532 C2529 0.950 . S
C2533 C2524 1.390 . S
C2533 H2526 0.950 . S
C2533 C2530 1.387 . S
C2534 C2535 1.387 . S
C2534 H2538 0.950 . S
C2534 C2543 1.390 . S
C2535 C2534 1.387 . S
C2535 C2537 1.387 . S
H2536 C2543 0.950 . S
C2537 C2535 1.387 . S
C2537 C2539 1.390 . S
C2537 H2541 0.950 . S
H2538 C2534 0.950 . S
C2539 C2537 1.390 . S
C2539 C2540 1.387 . S
C2539 H2542 0.950 . S
C2540 C2539 1.387 . S
C2540 C2543 1.387 . S
H2541 C2537 0.950 . S
H2542 C2539 0.950 . S
C2543 C2534 1.390 . S
C2543 H2536 0.950 . S
C2543 C2540 1.387 . S
C2544 C2545 1.387 . S
C2544 H2548 0.950 . S
C2544 C2553 1.390 . S
C2545 C2544 1.387 . S
C2545 C2547 1.387 . S
H2546 C2553 0.950 . S
C2547 C2545 1.387 . S
C2547 C2549 1.390 . S
C2547 H2551 0.950 . S
H2548 C2544 0.950 . S
C2549 C2547 1.390 . S
C2549 C2550 1.387 . S
C2549 H2552 0.950 . S
C2550 C2549 1.387 . S
C2550 C2553 1.387 . S
H2551 C2547 0.950 . S
H2552 C2549 0.950 . S
C2553 C2544 1.390 . S
C2553 H2546 0.950 . S
C2553 C2550 1.387 . S
C2554 C2555 1.387 . S
C2554 H2558 0.950 . S
C2554 C2563 1.390 . S
C2555 C2554 1.387 . S
C2555 C2557 1.387 . S
H2556 C2563 0.950 . S
C2557 C2555 1.387 . S
C2557 C2559 1.390 . S
C2557 H2561 0.950 . S
H2558 C2554 0.950 . S
C2559 C2557 1.390 . S
C2559 C2560 1.387 . S
C2559 H2562 0.950 . S
C2560 C2559 1.387 . S
C2560 C2563 1.387 . S
H2561 C2557 0.950 . S
H2562 C2559 0.950 . S
C2563 C2554 1.390 . S
C2563 H2556 0.950 . S
C2563 C2560 1.387 . S
C2564 C2565 1.387 . S
C2564 H2568 0.950 . S
C2564 C2573 1.390 . S
C2565 C2564 1.387 . S
C2565 C2567 1.387 . S
H2566 C2573 0.950 . S
C2567 C2565 1.387 . S
C2567 C2569 1.390 . S
C2567 H2571 0.950 . S
H2568 C2564 0.950 . S
C2569 C2567 1.390 . S
C2569 C2570 1.387 . S
C2569 H2572 0.950 . S
C2570 C2569 1.387 . S
C2570 C2573 1.387 . S
H2571 C2567 0.950 . S
H2572 C2569 0.950 . S
C2573 C2564 1.390 . S
C2573 H2566 0.950 . S
C2573 C2570 1.387 . S
C2574 C2575 1.387 . S
C2574 H2578 0.950 . S
C2574 C2583 1.390 . S
C2575 C2574 1.387 . S
C2575 C2577 1.387 . S
H2576 C2583 0.950 . S
C2577 C2575 1.387 . S
C2577 C2579 1.390 . S
C2577 H2581 0.950 . S
H2578 C2574 0.950 . S
C2579 C2577 1.390 . S
C2579 C2580 1.387 . S
C2579 H2582 0.950 . S
C2580 C2579 1.387 . S
C2580 C2583 1.387 . S
H2581 C2577 0.950 . S
H2582 C2579 0.950 . S
C2583 C2574 1.390 . S
C2583 H2576 0.950 . S
C2583 C2580 1.387 . S
C2584 C2585 1.387 . S
C2584 H2588 0.950 . S
C2584 C2593 1.390 . S
C2585 C2584 1.387 . S
C2585 C2587 1.387 . S
H2586 C2593 0.950 . S
C2587 C2585 1.387 . S
C2587 C2589 1.390 . S
C2587 H2591 0.950 . S
H2588 C2584 0.950 . S
C2589 C2587 1.390 . S
C2589 C2590 1.387 . S
C2589 H2592 0.950 . S
C2590 C2589 1.387 . S
C2590 C2593 1.387 . S
H2591 C2587 0.950 . S
H2592 C2589 0.950 . S
C2593 C2584 1.390 . S
C2593 H2586 0.950 . S
C2593 C2590 1.387 . S
C2594 C2595 1.387 . S
C2594 H2598 0.950 . S
C2594 C2603 1.390 . S
C2595 C2594 1.387 . S
C2595 C2597 1.387 . S
H2596 C2603 0.950 . S
C2597 C2595 1.387 . S
C2597 C2599 1.390 . S
C2597 H2601 0.950 . S
H2598 C2594 0.950 . S
C2599 C2597 1.390 . S
C2599 C2600 1.387 . S
C2599 H2602 0.950 . S
C2600 C2599 1.387 . S
C2600 C2603 1.387 . S
H2601 C2597 0.950 . S
H2602 C2599 0.950 . S
C2603 C2594 1.390 . S
C2603 H2596 0.950 . S
C2603 C2600 1.387 . S
C2604 C2605 1.387 . S
C2604 H2608 0.950 . S
C2604 C2613 1.390 . S
C2605 C2604 1.387 . S
C2605 C2607 1.387 . S
H2606 C2613 0.950 . S
C2607 C2605 1.387 . S
C2607 C2609 1.390 . S
C2607 H2611 0.950 . S
H2608 C2604 0.950 . S
C2609 C2607 1.390 . S
C2609 C2610 1.387 . S
C2609 H2612 0.950 . S
C2610 C2609 1.387 . S
C2610 C2613 1.387 . S
H2611 C2607 0.950 . S
H2612 C2609 0.950 . S
C2613 C2604 1.390 . S
C2613 H2606 0.950 . S
C2613 C2610 1.387 . S
C2614 C2615 1.387 . S
C2614 H2618 0.950 . S
C2614 C2623 1.390 . S
C2615 C2614 1.387 . S
C2615 C2617 1.387 . S
H2616 C2623 0.950 . S
C2617 C2615 1.387 . S
C2617 C2619 1.390 . S
C2617 H2621 0.950 . S
H2618 C2614 0.950 . S
C2619 C2617 1.390 . S
C2619 C2620 1.387 . S
C2619 H2622 0.950 . S
C2620 C2619 1.387 . S
C2620 C2623 1.387 . S
H2621 C2617 0.950 . S
H2622 C2619 0.950 . S
C2623 C2614 1.390 . S
C2623 H2616 0.950 . S
C2623 C2620 1.387 . S
C2624 C2625 1.387 . S
C2624 H2628 0.950 . S
C2624 C2633 1.390 . S
C2625 C2624 1.387 . S
C2625 C2627 1.387 . S
H2626 C2633 0.950 . S
C2627 C2625 1.387 . S
C2627 C2629 1.390 . S
C2627 H2631 0.950 . S
H2628 C2624 0.950 . S
C2629 C2627 1.390 . S
C2629 C2630 1.387 . S
C2629 H2632 0.950 . S
C2630 C2629 1.387 . S
C2630 C2633 1.387 . S
H2631 C2627 0.950 . S
H2632 C2629 0.950 . S
C2633 C2624 1.390 . S
C2633 H2626 0.950 . S
C2633 C2630 1.387 . S
C2634 C2635 1.387 . S
C2634 H2638 0.950 . S
C2634 C2643 1.390 . S
C2635 C2634 1.387 . S
C2635 C2637 1.387 . S
H2636 C2643 0.950 . S
C2637 C2635 1.387 . S
C2637 C2639 1.390 . S
C2637 H2641 0.950 . S
H2638 C2634 0.950 . S
C2639 C2637 1.390 . S
C2639 C2640 1.387 . S
C2639 H2642 0.950 . S
C2640 C2639 1.387 . S
C2640 C2643 1.387 . S
H2641 C2637 0.950 . S
H2642 C2639 0.950 . S
C2643 C2634 1.390 . S
C2643 H2636 0.950 . S
C2643 C2640 1.387 . S
C2644 C2645 1.387 . S
C2644 H2648 0.950 . S
C2644 C2653 1.390 . S
C2645 C2644 1.387 . S
C2645 C2647 1.387 . S
H2646 C2653 0.950 . S
C2647 C2645 1.387 . S
C2647 C2649 1.390 . S
C2647 H2651 0.950 . S
H2648 C2644 0.950 . S
C2649 C2647 1.390 . S
C2649 C2650 1.387 . S
C2649 H2652 0.950 . S
C2650 C2649 1.387 . S
C2650 C2653 1.387 . S
H2651 C2647 0.950 . S
H2652 C2649 0.950 . S
C2653 C2644 1.390 . S
C2653 H2646 0.950 . S
C2653 C2650 1.387 . S
C2654 C2655 1.387 . S
C2654 H2658 0.950 . S
C2654 C2663 1.390 . S
C2655 C2654 1.387 . S
C2655 C2657 1.387 . S
H2656 C2663 0.950 . S
C2657 C2655 1.387 . S
C2657 C2659 1.390 . S
C2657 H2661 0.950 . S
H2658 C2654 0.950 . S
C2659 C2657 1.390 . S
C2659 C2660 1.387 . S
C2659 H2662 0.950 . S
C2660 C2659 1.387 . S
C2660 C2663 1.387 . S
H2661 C2657 0.950 . S
H2662 C2659 0.950 . S
C2663 C2654 1.390 . S
C2663 H2656 0.950 . S
C2663 C2660 1.387 . S
C2664 C2665 1.387 . S
C2664 H2668 0.950 . S
C2664 C2673 1.390 . S
C2665 C2664 1.387 . S
C2665 C2667 1.387 . S
H2666 C2673 0.950 . S
C2667 C2665 1.387 . S
C2667 C2669 1.390 . S
C2667 H2671 0.950 . S
H2668 C2664 0.950 . S
C2669 C2667 1.390 . S
C2669 C2670 1.387 . S
C2669 H2672 0.950 . S
C2670 C2669 1.387 . S
C2670 C2673 1.387 . S
H2671 C2667 0.950 . S
H2672 C2669 0.950 . S
C2673 C2664 1.390 . S
C2673 H2666 0.950 . S
C2673 C2670 1.387 . S
C2674 C2675 1.387 . S
C2674 H2678 0.950 . S
C2674 C2683 1.390 . S
C2675 C2674 1.387 . S
C2675 C2677 1.387 . S
H2676 C2683 0.950 . S
C2677 C2675 1.387 . S
C2677 C2679 1.390 . S
C2677 H2681 0.950 . S
H2678 C2674 0.950 . S
C2679 C2677 1.390 . S
C2679 C2680 1.387 . S
C2679 H2682 0.950 . S
C2680 C2679 1.387 . S
C2680 C2683 1.387 . S
H2681 C2677 0.950 . S
H2682 C2679 0.950 . S
C2683 C2674 1.390 . S
C2683 H2676 0.950 . S
C2683 C2680 1.387 . S
C2684 C2685 1.387 . S
C2684 H2688 0.950 . S
C2684 C2693 1.390 . S
C2685 C2684 1.387 . S
C2685 C2687 1.387 . S
H2686 C2693 0.950 . S
C2687 C2685 1.387 . S
C2687 C2689 1.390 . S
C2687 H2691 0.950 . S
H2688 C2684 0.950 . S
C2689 C2687 1.390 . S
C2689 C2690 1.387 . S
C2689 H2692 0.950 . S
C2690 C2689 1.387 . S
C2690 C2693 1.387 . S
H2691 C2687 0.950 . S
H2692 C2689 0.950 . S
C2693 C2684 1.390 . S
C2693 H2686 0.950 . S
C2693 C2690 1.387 . S
C2694 C2695 1.387 . S
C2694 H2698 0.950 . S
C2694 C2703 1.390 . S
C2695 C2694 1.387 . S
C2695 C2697 1.387 . S
H2696 C2703 0.950 . S
C2697 C2695 1.387 . S
C2697 C2699 1.390 . S
C2697 H2701 0.950 . S
H2698 C2694 0.950 . S
C2699 C2697 1.390 . S
C2699 C2700 1.387 . S
C2699 H2702 0.950 . S
C2700 C2699 1.387 . S
C2700 C2703 1.387 . S
H2701 C2697 0.950 . S
H2702 C2699 0.950 . S
C2703 C2694 1.390 . S
C2703 H2696 0.950 . S
C2703 C2700 1.387 . S
C2704 C2705 1.387 . S
C2704 H2708 0.950 . S
C2704 C2713 1.390 . S
C2705 C2704 1.387 . S
C2705 C2707 1.387 . S
H2706 C2713 0.950 . S
C2707 C2705 1.387 . S
C2707 C2709 1.390 . S
C2707 H2711 0.950 . S
H2708 C2704 0.950 . S
C2709 C2707 1.390 . S
C2709 C2710 1.387 . S
C2709 H2712 0.950 . S
C2710 C2709 1.387 . S
C2710 C2713 1.387 . S
H2711 C2707 0.950 . S
H2712 C2709 0.950 . S
C2713 C2704 1.390 . S
C2713 H2706 0.950 . S
C2713 C2710 1.387 . S
C2714 C2715 1.387 . S
C2714 H2718 0.950 . S
C2714 C2723 1.390 . S
C2715 C2714 1.387 . S
C2715 C2717 1.387 . S
H2716 C2723 0.950 . S
C2717 C2715 1.387 . S
C2717 C2719 1.390 . S
C2717 H2721 0.950 . S
H2718 C2714 0.950 . S
C2719 C2717 1.390 . S
C2719 C2720 1.387 . S
C2719 H2722 0.950 . S
C2720 C2719 1.387 . S
C2720 C2723 1.387 . S
H2721 C2717 0.950 . S
H2722 C2719 0.950 . S
C2723 C2714 1.390 . S
C2723 H2716 0.950 . S
C2723 C2720 1.387 . S
C2724 C2725 1.387 . S
C2724 H2728 0.950 . S
C2724 C2733 1.390 . S
C2725 C2724 1.387 . S
C2725 C2727 1.387 . S
H2726 C2733 0.950 . S
C2727 C2725 1.387 . S
C2727 C2729 1.390 . S
C2727 H2731 0.950 . S
H2728 C2724 0.950 . S
C2729 C2727 1.390 . S
C2729 C2730 1.387 . S
C2729 H2732 0.950 . S
C2730 C2729 1.387 . S
C2730 C2733 1.387 . S
H2731 C2727 0.950 . S
H2732 C2729 0.950 . S
C2733 C2724 1.390 . S
C2733 H2726 0.950 . S
C2733 C2730 1.387 . S
C2734 C2735 1.387 . S
C2734 H2738 0.950 . S
C2734 C2743 1.390 . S
C2735 C2734 1.387 . S
C2735 C2737 1.387 . S
H2736 C2743 0.950 . S
C2737 C2735 1.387 . S
C2737 C2739 1.390 . S
C2737 H2741 0.950 . S
H2738 C2734 0.950 . S
C2739 C2737 1.390 . S
C2739 C2740 1.387 . S
C2739 H2742 0.950 . S
C2740 C2739 1.387 . S
C2740 C2743 1.387 . S
H2741 C2737 0.950 . S
H2742 C2739 0.950 . S
C2743 C2734 1.390 . S
C2743 H2736 0.950 . S
C2743 C2740 1.387 . S
C2744 C2745 1.387 . S
C2744 H2748 0.950 . S
C2744 C2753 1.390 . S
C2745 C2744 1.387 . S
C2745 C2747 1.387 . S
H2746 C2753 0.950 . S
C2747 C2745 1.387 . S
C2747 C2749 1.390 . S
C2747 H2751 0.950 . S
H2748 C2744 0.950 . S
C2749 C2747 1.390 . S
C2749 C2750 1.387 . S
C2749 H2752 0.950 . S
C2750 C2749 1.387 . S
C2750 C2753 1.387 . S
H2751 C2747 0.950 . S
H2752 C2749 0.950 . S
C2753 C2744 1.390 . S
C2753 H2746 0.950 . S
C2753 C2750 1.387 . S
C2754 C2755 1.387 . S
C2754 H2758 0.950 . S
C2754 C2763 1.390 . S
C2755 C2754 1.387 . S
C2755 C2757 1.387 . S
H2756 C2763 0.950 . S
C2757 C2755 1.387 . S
C2757 C2759 1.390 . S
C2757 H2761 0.950 . S
H2758 C2754 0.950 . S
C2759 C2757 1.390 . S
C2759 C2760 1.387 . S
C2759 H2762 0.950 . S
C2760 C2759 1.387 . S
C2760 C2763 1.387 . S
H2761 C2757 0.950 . S
H2762 C2759 0.950 . S
C2763 C2754 1.390 . S
C2763 H2756 0.950 . S
C2763 C2760 1.387 . S
C2764 C2765 1.387 . S
C2764 H2768 0.950 . S
C2764 C2773 1.390 . S
C2765 C2764 1.387 . S
C2765 C2767 1.387 . S
H2766 C2773 0.950 . S
C2767 C2765 1.387 . S
C2767 C2769 1.390 . S
C2767 H2771 0.950 . S
H2768 C2764 0.950 . S
C2769 C2767 1.390 . S
C2769 C2770 1.387 . S
C2769 H2772 0.950 . S
C2770 C2769 1.387 . S
C2770 C2773 1.387 . S
H2771 C2767 0.950 . S
H2772 C2769 0.950 . S
C2773 C2764 1.390 . S
C2773 H2766 0.950 . S
C2773 C2770 1.387 . S
C2774 C2775 1.387 . S
C2774 H2778 0.950 . S
C2774 C2783 1.390 . S
C2775 C2774 1.387 . S
C2775 C2777 1.387 . S
H2776 C2783 0.950 . S
C2777 C2775 1.387 . S
C2777 C2779 1.390 . S
C2777 H2781 0.950 . S
H2778 C2774 0.950 . S
C2779 C2777 1.390 . S
C2779 C2780 1.387 . S
C2779 H2782 0.950 . S
C2780 C2779 1.387 . S
C2780 C2783 1.387 . S
H2781 C2777 0.950 . S
H2782 C2779 0.950 . S
C2783 C2774 1.390 . S
C2783 H2776 0.950 . S
C2783 C2780 1.387 . S
C1585 C1044 1.529 . S
C1590 C21 1.530 . S
C1595 C54 1.529 . S
C1600 C945 1.531 . S
C1605 C87 1.532 . S
C1610 C978 1.533 . S
C1615 C1011 1.530 . S
C1620 C120 1.532 . S
C1625 C846 1.533 . S
C1630 C153 1.531 . S
C1635 C879 1.533 . S
C1640 C186 1.530 . S
C1645 C219 1.532 . S
C1650 C912 1.529 . S
C1655 C252 1.529 . S
C1660 C813 1.530 . S
C1665 C285 1.532 . S
C1670 C1473 1.533 . S
C1675 C318 1.531 . S
C1680 C1374 1.529 . S
C1685 C351 1.532 . S
C1690 C1407 1.530 . S
C1695 C384 1.530 . S
C1700 C1440 1.529 . S
C1705 C1572 1.533 . S
C1710 C417 1.533 . S
C1715 C450 1.533 . S
C1720 C1506 1.533 . S
C1725 C483 1.529 . S
C1730 C1539 1.530 . S
C1735 C1341 1.529 . S
C1740 C516 1.531 . S
C1745 C549 1.529 . S
C1750 C1308 1.530 . S
C1755 C1110 1.529 . S
C1760 C582 1.532 . S
C1765 C1143 1.532 . S
C1770 C615 1.533 . S
C1775 C1176 1.531 . S
C1780 C648 1.533 . S
C1785 C681 1.529 . S
C1790 C1077 1.530 . S
C1795 C714 1.529 . S
C1800 C1242 1.530 . S
C1805 C1275 1.532 . S
C1810 C747 1.533 . S
C1815 C780 1.530 . S
C1820 C1209 1.529 . S
C1825 C73 1.319 . S
C1830 C7 1.319 . S
C1835 C40 1.318 . S
C1840 C106 1.318 . S
C1845 C205 1.319 . S
C1850 C139 1.319 . S
C1855 C238 1.318 . S
C1860 C172 1.318 . S
C1865 C271 1.319 . S
C1870 C403 1.319 . S
C1875 C436 1.318 . S
C1880 C304 1.318 . S
C1885 C469 1.319 . S
C1890 C337 1.319 . S
C1895 C502 1.318 . S
C1900 C370 1.318 . S
C1905 C634 1.318 . S
C1910 C535 1.318 . S
C1915 C568 1.319 . S
C1920 C700 1.319 . S
C1925 C601 1.318 . S
C1930 C733 1.318 . S
C1935 C667 1.319 . S
C1940 C766 1.319 . S
C1945 C865 1.319 . S
C1950 C799 1.319 . S
C1955 C898 1.319 . S
C1960 C832 1.319 . S
C1965 C997 1.318 . S
C1970 C931 1.318 . S
C1975 C1030 1.318 . S
C1980 C964 1.318 . S
C1985 C1063 1.319 . S
C1990 C1195 1.319 . S
C1995 C1096 1.319 . S
C2000 C1228 1.319 . S
C2005 C1261 1.319 . S
C2010 C1129 1.319 . S
C2015 C1294 1.318 . S
C2020 C1162 1.318 . S
C2025 C1327 1.318 . S
C2030 C1426 1.318 . S
C2035 C1492 1.318 . S
C2040 C1360 1.318 . S
C2045 C1525 1.318 . S
C2050 C1393 1.318 . S
C2055 C1558 1.318 . S
C2060 C1459 1.318 . S
C2065 N739 0.903 . S
C2070 N13 0.903 . S
C2075 N46 0.911 . S
C2080 N541 0.910 . S
C2085 N79 0.911 . S
C2090 N772 0.909 . S
C2095 N112 0.903 . S
C2100 N706 0.903 . S
C2105 N145 0.904 . S
C2110 N607 0.909 . S
C2115 N640 0.903 . S
C2120 N178 0.903 . S
C2125 N211 0.904 . S
C2130 N673 0.908 . S
C2135 N244 0.903 . S
C2140 N574 0.903 . S
C2145 N277 0.905 . S
C2150 N442 0.910 . S
C2155 N475 0.904 . S
C2160 N310 0.909 . S
C2165 N508 0.902 . S
C2170 N343 0.905 . S
C2175 N409 0.905 . S
C2180 N376 0.902 . S
C2185 N805 0.903 . S
C2190 N1531 0.907 . S
C2195 N1333 0.903 . S
C2200 N838 0.903 . S
C2205 N1564 0.906 . S
C2210 N871 0.902 . S
C2215 N904 0.902 . S
C2220 N1498 0.904 . S
C2225 N1399 0.909 . S
C2230 N937 0.911 . S
C2235 N1432 0.903 . S
C2240 N970 0.903 . S
C2245 N1465 0.910 . S
C2250 N1003 0.911 . S
C2255 N1036 0.904 . S
C2260 N1366 0.902 . S
C2265 N1069 0.903 . S
C2270 N1234 0.903 . S
C2275 N1102 0.902 . S
C2280 N1267 0.906 . S
C2285 N1300 0.911 . S
C2290 N1135 0.908 . S
C2295 N1201 0.904 . S
C2300 N1168 0.902 . S
C2305 C18 2.163 . S
C2310 N596 1.935 . S
C2315 N629 1.931 . S
C2320 C51 2.162 . S
C2325 C84 2.163 . S
C2330 N662 1.934 . S
C2335 N563 1.935 . S
C2340 C117 2.163 . S
C2345 C150 2.163 . S
C2350 N728 1.932 . S
C2355 N530 1.935 . S
C2360 C183 2.163 . S
C2365 N761 1.931 . S
C2370 C216 2.162 . S
C2375 C249 2.162 . S
C2380 N695 1.933 . S
C2385 N299 1.935 . S
C2390 C282 2.163 . S
C2395 C315 2.163 . S
C2400 N332 1.935 . S
C2405 C348 2.162 . S
C2410 N365 1.931 . S
C2415 N266 1.935 . S
C2420 C381 2.163 . S
C2425 C414 2.163 . S
C2430 N497 1.935 . S
C2435 C447 2.162 . S
C2440 N398 1.931 . S
C2445 C480 2.163 . S
C2450 N431 1.935 . S
C2455 N464 1.934 . S
C2460 C513 2.163 . S
C2465 N101 1.935 . S
C2470 C546 2.163 . S
C2475 C579 2.162 . S
C2480 N167 1.934 . S
C2485 N200 1.935 . S
C2490 C612 2.163 . S
C2495 N233 1.935 . S
C2500 C645 2.163 . S
C2505 C678 2.163 . S
C2510 N134 1.935 . S
C2515 N35 1.931 . S
C2520 C711 2.162 . S
C2525 C744 2.163 . S
C2530 N68 1.935 . S
C2535 N2 1.935 . S
C2540 C777 2.163 . S
C2545 C810 2.162 . S
C2550 N1388 1.931 . S
C2555 N1421 1.934 . S
C2560 C843 2.162 . S
C2565 C876 2.162 . S
C2570 N1454 1.931 . S
C2575 N1355 1.934 . S
C2580 C909 2.162 . S
C2585 C942 2.163 . S
C2590 N1520 1.935 . S
C2595 C975 2.162 . S
C2600 N1322 1.932 . S
C2605 C1008 2.163 . S
C2610 N1553 1.935 . S
C2615 N1487 1.933 . S
C2620 C1041 2.163 . S
C2625 C1074 2.162 . S
C2630 N1091 1.931 . S
C2635 N1124 1.931 . S
C2640 C1107 2.162 . S
C2645 N1157 1.935 . S
C2650 C1140 2.163 . S
C2655 C1173 2.163 . S
C2660 N1058 1.934 . S
C2665 C1206 2.163 . S
C2670 N1289 1.933 . S
C2675 C1239 2.163 . S
C2680 N1190 1.935 . S
C2685 C1272 2.162 . S
C2690 N1223 1.931 . S
C2695 C1305 2.163 . S
C2700 N1256 1.931 . S
C2705 C1338 2.163 . S
C2710 N893 1.935 . S
C2715 N959 1.931 . S
C2720 C1371 2.162 . S
C2725 N992 1.932 . S
C2730 C1404 2.163 . S
C2735 N1025 1.935 . S
C2740 C1437 2.163 . S
C2745 N926 1.933 . S
C2750 C1470 2.163 . S
C2755 N827 1.931 . S
C2760 C1503 2.162 . S
C2765 N860 1.931 . S
C2770 C1536 2.162 . S
C2775 N794 1.931 . S
C2780 C1569 2.162 . S
