# Generated by pormake.
# Topology ukm, (4)-cn, num edge types: 1
# Building blocks:
#     Node 0, Type 0, BuildingBlock: TATPOV_clean_sbu_0, # of connection points: 4
#     Node 1, Type 0, BuildingBlock: TATPOV_clean_sbu_0, # of connection points: 4
#     Node 2, Type 0, BuildingBlock: TATPOV_clean_sbu_0, # of connection points: 4
#     Node 3, Type 0, BuildingBlock: TATPOV_clean_sbu_0, # of connection points: 4
#     Node 4, Type 0, BuildingBlock: TATPOV_clean_sbu_0, # of connection points: 4
#     Node 5, Type 0, BuildingBlock: TATPOV_clean_sbu_0, # of connection points: 4
#     Node 6, Type 0, BuildingBlock: TATPOV_clean_sbu_0, # of connection points: 4
#     Node 7, Type 0, BuildingBlock: TATPOV_clean_sbu_0, # of connection points: 4
#     Node 8, Type 0, BuildingBlock: TATPOV_clean_sbu_0, # of connection points: 4
#     Node 9, Type 0, BuildingBlock: TATPOV_clean_sbu_0, # of connection points: 4
#     Node 10, Type 0, BuildingBlock: TATPOV_clean_sbu_0, # of connection points: 4
#     Node 11, Type 0, BuildingBlock: TATPOV_clean_sbu_0, # of connection points: 4
#     Node 12, Type 0, BuildingBlock: TATPOV_clean_sbu_0, # of connection points: 4
#     Node 13, Type 0, BuildingBlock: TATPOV_clean_sbu_0, # of connection points: 4
#     Node 14, Type 0, BuildingBlock: TATPOV_clean_sbu_0, # of connection points: 4
#     Node 15, Type 0, BuildingBlock: TATPOV_clean_sbu_0, # of connection points: 4
#     Node 16, Type 0, BuildingBlock: TATPOV_clean_sbu_0, # of connection points: 4
#     Node 17, Type 0, BuildingBlock: TATPOV_clean_sbu_0, # of connection points: 4
#     Node 18, Type 0, BuildingBlock: TATPOV_clean_sbu_0, # of connection points: 4
#     Node 19, Type 0, BuildingBlock: TATPOV_clean_sbu_0, # of connection points: 4
#     Node 20, Type 0, BuildingBlock: TATPOV_clean_sbu_0, # of connection points: 4
#     Node 21, Type 0, BuildingBlock: TATPOV_clean_sbu_0, # of connection points: 4
#     Node 22, Type 0, BuildingBlock: TATPOV_clean_sbu_0, # of connection points: 4
#     Node 23, Type 0, BuildingBlock: TATPOV_clean_sbu_0, # of connection points: 4
#     Node 24, Type 0, BuildingBlock: TATPOV_clean_sbu_0, # of connection points: 4
#     Node 25, Type 0, BuildingBlock: TATPOV_clean_sbu_0, # of connection points: 4
#     Node 26, Type 0, BuildingBlock: TATPOV_clean_sbu_0, # of connection points: 4
#     Node 27, Type 0, BuildingBlock: TATPOV_clean_sbu_0, # of connection points: 4
#     Node 28, Type 0, BuildingBlock: TATPOV_clean_sbu_0, # of connection points: 4
#     Node 29, Type 0, BuildingBlock: TATPOV_clean_sbu_0, # of connection points: 4
#     Node 30, Type 0, BuildingBlock: TATPOV_clean_sbu_0, # of connection points: 4
#     Node 31, Type 0, BuildingBlock: TATPOV_clean_sbu_0, # of connection points: 4
#     Edge 32, Type (0, 0), BuildingBlock: KIFKEQ_clean_linker_1, # of connection points: 2
#     Edge 33, Type (0, 0), BuildingBlock: KIFKEQ_clean_linker_1, # of connection points: 2
#     Edge 34, Type (0, 0), BuildingBlock: KIFKEQ_clean_linker_1, # of connection points: 2
#     Edge 35, Type (0, 0), BuildingBlock: KIFKEQ_clean_linker_1, # of connection points: 2
#     Edge 36, Type (0, 0), BuildingBlock: KIFKEQ_clean_linker_1, # of connection points: 2
#     Edge 37, Type (0, 0), BuildingBlock: KIFKEQ_clean_linker_1, # of connection points: 2
#     Edge 38, Type (0, 0), BuildingBlock: KIFKEQ_clean_linker_1, # of connection points: 2
#     Edge 39, Type (0, 0), BuildingBlock: KIFKEQ_clean_linker_1, # of connection points: 2
#     Edge 40, Type (0, 0), BuildingBlock: KIFKEQ_clean_linker_1, # of connection points: 2
#     Edge 41, Type (0, 0), BuildingBlock: KIFKEQ_clean_linker_1, # of connection points: 2
#     Edge 42, Type (0, 0), BuildingBlock: KIFKEQ_clean_linker_1, # of connection points: 2
#     Edge 43, Type (0, 0), BuildingBlock: KIFKEQ_clean_linker_1, # of connection points: 2
#     Edge 44, Type (0, 0), BuildingBlock: KIFKEQ_clean_linker_1, # of connection points: 2
#     Edge 45, Type (0, 0), BuildingBlock: KIFKEQ_clean_linker_1, # of connection points: 2
#     Edge 46, Type (0, 0), BuildingBlock: KIFKEQ_clean_linker_1, # of connection points: 2
#     Edge 47, Type (0, 0), BuildingBlock: KIFKEQ_clean_linker_1, # of connection points: 2
#     Edge 48, Type (0, 0), BuildingBlock: KIFKEQ_clean_linker_1, # of connection points: 2
#     Edge 49, Type (0, 0), BuildingBlock: KIFKEQ_clean_linker_1, # of connection points: 2
#     Edge 50, Type (0, 0), BuildingBlock: KIFKEQ_clean_linker_1, # of connection points: 2
#     Edge 51, Type (0, 0), BuildingBlock: KIFKEQ_clean_linker_1, # of connection points: 2
#     Edge 52, Type (0, 0), BuildingBlock: KIFKEQ_clean_linker_1, # of connection points: 2
#     Edge 53, Type (0, 0), BuildingBlock: KIFKEQ_clean_linker_1, # of connection points: 2
#     Edge 54, Type (0, 0), BuildingBlock: KIFKEQ_clean_linker_1, # of connection points: 2
#     Edge 55, Type (0, 0), BuildingBlock: KIFKEQ_clean_linker_1, # of connection points: 2
#     Edge 56, Type (0, 0), BuildingBlock: KIFKEQ_clean_linker_1, # of connection points: 2
#     Edge 57, Type (0, 0), BuildingBlock: KIFKEQ_clean_linker_1, # of connection points: 2
#     Edge 58, Type (0, 0), BuildingBlock: KIFKEQ_clean_linker_1, # of connection points: 2
#     Edge 59, Type (0, 0), BuildingBlock: KIFKEQ_clean_linker_1, # of connection points: 2
#     Edge 60, Type (0, 0), BuildingBlock: KIFKEQ_clean_linker_1, # of connection points: 2
#     Edge 61, Type (0, 0), BuildingBlock: KIFKEQ_clean_linker_1, # of connection points: 2
#     Edge 62, Type (0, 0), BuildingBlock: KIFKEQ_clean_linker_1, # of connection points: 2
#     Edge 63, Type (0, 0), BuildingBlock: KIFKEQ_clean_linker_1, # of connection points: 2
#     Edge 64, Type (0, 0), BuildingBlock: KIFKEQ_clean_linker_1, # of connection points: 2
#     Edge 65, Type (0, 0), BuildingBlock: KIFKEQ_clean_linker_1, # of connection points: 2
#     Edge 66, Type (0, 0), BuildingBlock: KIFKEQ_clean_linker_1, # of connection points: 2
#     Edge 67, Type (0, 0), BuildingBlock: KIFKEQ_clean_linker_1, # of connection points: 2
#     Edge 68, Type (0, 0), BuildingBlock: KIFKEQ_clean_linker_1, # of connection points: 2
#     Edge 69, Type (0, 0), BuildingBlock: KIFKEQ_clean_linker_1, # of connection points: 2
#     Edge 70, Type (0, 0), BuildingBlock: KIFKEQ_clean_linker_1, # of connection points: 2
#     Edge 71, Type (0, 0), BuildingBlock: KIFKEQ_clean_linker_1, # of connection points: 2
#     Edge 72, Type (0, 0), BuildingBlock: KIFKEQ_clean_linker_1, # of connection points: 2
#     Edge 73, Type (0, 0), BuildingBlock: KIFKEQ_clean_linker_1, # of connection points: 2
#     Edge 74, Type (0, 0), BuildingBlock: KIFKEQ_clean_linker_1, # of connection points: 2
#     Edge 75, Type (0, 0), BuildingBlock: KIFKEQ_clean_linker_1, # of connection points: 2
#     Edge 76, Type (0, 0), BuildingBlock: KIFKEQ_clean_linker_1, # of connection points: 2
#     Edge 77, Type (0, 0), BuildingBlock: KIFKEQ_clean_linker_1, # of connection points: 2
#     Edge 78, Type (0, 0), BuildingBlock: KIFKEQ_clean_linker_1, # of connection points: 2
#     Edge 79, Type (0, 0), BuildingBlock: KIFKEQ_clean_linker_1, # of connection points: 2
#     Edge 80, Type (0, 0), BuildingBlock: KIFKEQ_clean_linker_1, # of connection points: 2
#     Edge 81, Type (0, 0), BuildingBlock: KIFKEQ_clean_linker_1, # of connection points: 2
#     Edge 82, Type (0, 0), BuildingBlock: KIFKEQ_clean_linker_1, # of connection points: 2
#     Edge 83, Type (0, 0), BuildingBlock: KIFKEQ_clean_linker_1, # of connection points: 2
#     Edge 84, Type (0, 0), BuildingBlock: KIFKEQ_clean_linker_1, # of connection points: 2
#     Edge 85, Type (0, 0), BuildingBlock: KIFKEQ_clean_linker_1, # of connection points: 2
#     Edge 86, Type (0, 0), BuildingBlock: KIFKEQ_clean_linker_1, # of connection points: 2
#     Edge 87, Type (0, 0), BuildingBlock: KIFKEQ_clean_linker_1, # of connection points: 2
#     Edge 88, Type (0, 0), BuildingBlock: KIFKEQ_clean_linker_1, # of connection points: 2
#     Edge 89, Type (0, 0), BuildingBlock: KIFKEQ_clean_linker_1, # of connection points: 2
#     Edge 90, Type (0, 0), BuildingBlock: KIFKEQ_clean_linker_1, # of connection points: 2
#     Edge 91, Type (0, 0), BuildingBlock: KIFKEQ_clean_linker_1, # of connection points: 2
#     Edge 92, Type (0, 0), BuildingBlock: KIFKEQ_clean_linker_1, # of connection points: 2
#     Edge 93, Type (0, 0), BuildingBlock: KIFKEQ_clean_linker_1, # of connection points: 2
#     Edge 94, Type (0, 0), BuildingBlock: KIFKEQ_clean_linker_1, # of connection points: 2
#     Edge 95, Type (0, 0), BuildingBlock: KIFKEQ_clean_linker_1, # of connection points: 2
# Relax obj value: 0.261
# Max RMSD: 0.206
# Mean RMSD: 0.206
data_MOF--net-ukm--node1-TATPOV_clean_sbu_0--edge1-KIFKEQ_clean_linker_1
_symmetry_space_group_name_H-M    P1
_symmetry_Int_Tables_number       1
_symmetry_cell_setting            triclinic
loop_
_symmetry_equiv_pos_as_xyz
'x, y, z'
_cell_length_a     29.556383
_cell_length_b     100.98663
_cell_length_c     37.598852
_cell_angle_alpha  90.019496
_cell_angle_beta   90.023824
_cell_angle_gamma 89.991965
loop_
_atom_site_label
_atom_site_type_symbol
_atom_site_fract_x
_atom_site_fract_y
_atom_site_fract_z
_atom_type_partial_charge
Zn0 Zn 0.03397 0.29924 0.33177 0.0
Zn1 Zn 0.11927 0.2925 0.31664 0.0
O2 O 0.07974 0.27601 0.30439 0.0
O3 O 0.01165 0.28073 0.32465 0.0
O4 O 0.18553 0.28701 0.31313 0.0
O5 O 0.04969 0.30664 0.37968 0.0
O6 O 0.11957 0.30167 0.36533 0.0
C7 C 0.03832 0.27281 0.30917 0.0
C8 C 0.07331 0.3127 0.27027 0.0
O9 O 0.10904 0.30631 0.27825 0.0
O10 O 0.03726 0.31117 0.2881 0.0
C11 C 0.21463 0.29605 0.30719 0.0
O12 O 0.20041 0.30816 0.30103 0.0
C13 C 0.0915 0.30691 0.38679 0.0
Zn14 Zn 0.1763 0.90199 0.28898 0.0
Zn15 Zn 0.09427 0.9093 0.29809 0.0
O16 O 0.13336 0.9265 0.29972 0.0
O17 O 0.20382 0.91985 0.29424 0.0
O18 O 0.03223 0.91434 0.31693 0.0
O19 O 0.18015 0.888 0.32616 0.0
O20 O 0.10719 0.8918 0.32507 0.0
C21 C 0.17546 0.92918 0.29668 0.0
C22 C 0.11688 0.89917 0.22669 0.0
O23 O 0.08682 0.90461 0.24608 0.0
O24 O 0.15581 0.89672 0.23931 0.0
C25 C 1.0023 0.90528 0.31796 0.0
O26 O 0.01217 0.89358 0.30478 0.0
C27 C 0.14046 0.88461 0.33463 0.0
Zn28 Zn 0.06429 0.93014 0.9074 0.0
Zn29 Zn 0.14715 0.93731 0.91751 0.0
O30 O 0.10575 0.95371 0.92726 0.0
O31 O 0.03696 0.94809 0.91077 0.0
O32 O 0.21176 0.94415 0.91194 0.0
O33 O 0.07181 0.92068 0.8613 0.0
O34 O 0.14275 0.92419 0.87539 0.0
C35 C 0.06385 0.95656 0.92363 0.0
C36 C 0.10907 0.91955 0.97189 0.0
O37 O 0.14356 0.92612 0.96185 0.0
O38 O 0.07298 0.91972 0.95355 0.0
C39 C 0.24391 0.94191 0.93367 0.0
O40 O 0.23525 0.93554 0.96335 0.0
C41 C 0.11332 0.91849 0.85589 0.0
Zn42 Zn 0.14347 0.31942 0.95376 0.0
Zn43 Zn 0.05526 0.31616 0.95168 0.0
O44 O 0.08343 0.2973 0.95519 0.0
O45 O 0.15712 0.30003 0.95134 0.0
O46 O 0.98944 0.31336 0.9387 0.0
O47 O 0.14718 0.33142 0.9114 0.0
O48 O 0.07317 0.3303 0.91478 0.0
C49 C 0.12337 0.29245 0.95507 0.0
C50 C 0.09267 0.32821 0.01732 0.0
O51 O 0.05738 0.32436 0.00084 0.0
O52 O 0.13135 0.32723 0.00287 0.0
C53 C 0.96231 0.32308 0.94158 0.0
O54 O 0.97711 0.33417 0.95568 0.0
C55 C 0.10868 0.33532 0.90119 0.0
Zn56 Zn 0.99355 0.66627 0.7344 0.0
Zn57 Zn 0.92959 0.67057 0.69202 0.0
O58 O 0.97566 0.68643 0.68871 0.0
O59 O 0.03785 0.67844 0.71234 0.0
O60 O 0.88188 0.6732 0.65336 0.0
O61 O 0.99874 0.64698 0.72743 0.0
O62 O 0.94993 0.65084 0.68457 0.0
C63 C 0.01736 0.68785 0.69716 0.0
C64 C 0.91193 0.67521 0.76834 0.0
O65 O 0.89415 0.67299 0.73813 0.0
O66 O 0.95406 0.67379 0.77293 0.0
C67 C 0.85073 0.68191 0.65497 0.0
O68 O 0.85046 0.6903 0.68169 0.0
C69 C 0.97565 0.64282 0.70148 0.0
Zn70 Zn 0.86245 0.04896 0.6384 0.0
Zn71 Zn 0.94337 0.04315 0.64945 0.0
O72 O 0.90285 0.0263 0.64369 0.0
O73 O 0.83758 0.03197 0.62058 0.0
O74 O 0.00849 0.03739 0.64193 0.0
O75 O 0.86969 0.06475 0.60759 0.0
O76 O 0.94018 0.06101 0.62253 0.0
C77 C 0.86336 0.02308 0.63279 0.0
C78 C 0.89559 0.05103 0.71302 0.0
O79 O 0.9345 0.04809 0.70082 0.0
O80 O 0.86155 0.05164 0.69245 0.0
C81 C 0.04064 0.04279 0.65917 0.0
O82 O 0.03091 0.0516 0.68373 0.0
C83 C 0.91053 0.06842 0.60808 0.0
Zn84 Zn 0.88593 0.05207 0.05114 0.0
Zn85 Zn 0.80691 0.04332 0.04094 0.0
O86 O 0.85137 0.02731 0.04823 0.0
O87 O 0.9153 0.03562 0.06787 0.0
O88 O 0.74275 0.03629 0.04586 0.0
O89 O 0.872 0.06695 0.08365 0.0
O90 O 0.80303 0.06054 0.071 0.0
C91 C 0.89233 0.02567 0.0584 0.0
C92 C 0.85287 0.0533 0.97728 0.0
O93 O 0.81577 0.04886 0.98968 0.0
O94 O 0.88644 0.05524 -0.00233 0.0
C95 C 0.71101 0.04384 0.03521 0.0
O96 O 0.72171 0.05502 0.01943 0.0
C97 C 0.82982 0.06878 0.08566 0.0
Zn98 Zn 0.72474 0.68924 0.06891 0.0
Zn99 Zn 0.812 0.69506 0.08574 0.0
O100 O 0.77553 0.7115 0.10017 0.0
O101 O 0.70414 0.70668 0.0898 0.0
O102 O 0.87555 0.69869 0.10326 0.0
O103 O 0.7276 0.67182 0.09576 0.0
O104 O 0.79954 0.6764 0.10436 0.0
C105 C 0.734 0.71489 0.09972 0.0
C106 C 0.78688 0.69183 0.00866 0.0
O107 O 0.81649 0.69428 0.03236 0.0
O108 O 0.74625 0.68938 0.01733 0.0
C109 C 0.89991 0.70783 0.09009 0.0
O110 O 0.88314 0.71525 0.06459 0.0
C111 C 0.76645 0.66837 0.10655 0.0
Zn112 Zn 0.10971 0.80001 0.7767 0.0
Zn113 Zn 0.19373 0.79817 0.77567 0.0
O114 O 0.16263 0.77981 0.78298 0.0
O115 O 0.09133 0.78262 0.79711 0.0
O116 O 0.25696 0.79623 0.79622 0.0
O117 O 0.10038 0.81716 0.80146 0.0
O118 O 0.17403 0.81661 0.79485 0.0
C119 C 0.12409 0.77491 0.79089 0.0
C120 C 0.15688 0.79974 0.70571 0.0
O121 O 0.19459 0.79961 0.72218 0.0
O122 O 0.11994 0.80001 0.72298 0.0
C123 C 0.28541 0.80566 0.79428 0.0
O124 O 0.2751 0.81617 0.77534 0.0
C125 C 0.1383 0.82286 0.80375 0.0
Zn126 Zn 0.18482 0.45103 0.79977 0.0
Zn127 Zn 0.10321 0.45796 0.81037 0.0
O128 O 0.14534 0.47312 0.82935 0.0
O129 O 0.21238 0.46388 0.83297 0.0
O130 O 0.03889 0.46271 0.8249 0.0
O131 O 0.17801 0.43233 0.81422 0.0
O132 O 0.10847 0.4383 0.82741 0.0
C133 C 0.18716 0.4738 0.83782 0.0
C134 C 0.13755 0.4588 0.73588 0.0
O135 O 0.10313 0.4589 0.75624 0.0
O136 O 0.1765 0.45639 0.74837 0.0
C137 C 0.02566 0.47368 0.83798 0.0
O138 O 0.0551 0.48326 0.84272 0.0
C139 C 0.13933 0.42946 0.82618 0.0
Zn140 Zn 0.07881 0.42073 0.43119 0.0
Zn141 Zn 0.1805 0.42487 0.41951 0.0
O142 O 0.15207 0.43496 0.3779 0.0
O143 O 0.08624 0.42624 0.37954 0.0
O144 O 0.24807 0.42644 0.41124 0.0
O145 O 0.09832 0.40215 0.44273 0.0
O146 O 0.16922 0.40473 0.42455 0.0
C147 C 0.10959 0.43669 0.37787 0.0
C148 C 0.13034 0.43782 0.48187 0.0
O149 O 0.16683 0.43465 0.46583 0.0
O150 O 0.09209 0.43376 0.47102 0.0
C151 C 0.26856 0.43751 0.41275 0.0
O152 O 0.24541 0.44822 0.42071 0.0
C153 C 0.13722 0.39744 0.43628 0.0
Zn154 Zn 0.17848 0.76818 0.37806 0.0
Zn155 Zn 0.09793 0.76167 0.38527 0.0
O156 O 0.13834 0.74432 0.38053 0.0
O157 O 0.20478 0.75134 0.36247 0.0
O158 O 0.03189 0.75676 0.3753 0.0
O159 O 0.17472 0.78325 0.34486 0.0
O160 O 0.10347 0.77942 0.35712 0.0
C161 C 0.17912 0.74188 0.37097 0.0
C162 C 0.14058 0.77149 0.45004 0.0
O163 O 0.10349 0.76752 0.43645 0.0
O164 O 0.17618 0.77215 0.43126 0.0
C165 C 1.00198 0.75374 0.39829 0.0
O166 O 0.01389 0.75261 0.43182 0.0
C167 C 0.13382 0.78677 0.34326 0.0
Zn168 Zn 0.85675 0.17713 0.16767 0.0
Zn169 Zn 0.77929 0.18641 0.17657 0.0
O170 O 0.82447 0.20264 0.17583 0.0
O171 O 0.89083 0.1938 0.16445 0.0
O172 O 0.71553 0.19369 0.16959 0.0
O173 O 0.8474 0.166 0.12512 0.0
O174 O 0.77792 0.17036 0.14156 0.0
C175 C 0.86729 0.20388 0.17167 0.0
C176 C 0.81628 0.17157 0.23734 0.0
O177 O 0.78379 0.17879 0.22635 0.0
O178 O 0.84944 0.16907 0.21698 0.0
C179 C 0.68189 0.18734 0.18213 0.0
O180 O 0.68955 0.17693 0.2022 0.0
C181 C 0.80559 0.16362 0.12287 0.0
Zn182 Zn 0.79232 0.55135 0.19215 0.0
Zn183 Zn 0.88029 0.55069 0.18096 0.0
O184 O 0.8567 0.53125 0.1826 0.0
O185 O 0.7824 0.53205 0.18271 0.0
O186 O 0.9462 0.54952 0.16544 0.0
O187 O 0.77975 0.56562 0.15647 0.0
O188 O 0.85376 0.56599 0.15091 0.0
C189 C 0.8185 0.52533 0.18328 0.0
C190 C 0.84958 0.55879 0.253 0.0
O191 O 0.88249 0.55717 0.23162 0.0
O192 O 0.80922 0.55669 0.24293 0.0
C193 C 0.95739 0.54941 0.13274 0.0
O194 O 0.92539 0.54971 0.10848 0.0
C195 C 0.81503 0.57092 0.14392 0.0
Zn196 Zn 0.02376 0.53783 0.54829 0.0
Zn197 Zn 0.94033 0.53084 0.56444 0.0
O198 O 0.97402 0.51371 0.54903 0.0
O199 O 0.04578 0.51915 0.54361 0.0
O200 O 0.8812 0.52491 0.58647 0.0
O201 O 0.03421 0.54889 0.5917 0.0
O202 O 0.96306 0.54406 0.60214 0.0
C203 C 0.01485 0.51051 0.54198 0.0
C204 C 0.9521 0.5468 0.49901 0.0
O205 O 0.92455 0.54118 0.5202 0.0
O206 O 0.99436 0.54648 0.50502 0.0
C207 C 0.84451 0.5224 0.57011 0.0
O208 O 0.84369 0.52297 0.5352 0.0
C209 C 0.99881 0.55047 0.61008 0.0
Zn210 Zn 0.84504 0.17986 0.56845 0.0
Zn211 Zn 0.92461 0.18739 0.55143 0.0
O212 O 0.88389 0.2042 0.55479 0.0
O213 O 0.81785 0.19767 0.57503 0.0
O214 O 0.98999 0.19359 0.55149 0.0
O215 O 0.86029 0.16786 0.60876 0.0
O216 O 0.92746 0.17177 0.58666 0.0
C217 C 0.84298 0.20681 0.56334 0.0
C218 C 0.87433 0.17347 0.49521 0.0
O219 O 0.91092 0.17943 0.50329 0.0
O220 O 0.84303 0.17225 0.5181 0.0
C221 C 0.0201 0.18515 0.54294 0.0
O222 O 0.00713 0.1734 0.53191 0.0
C223 C 0.90193 0.16508 0.60717 0.0
Zn224 Zn 0.51715 0.33943 0.73748 0.0
Zn225 Zn 0.60077 0.33352 0.75771 0.0
O226 O 0.56592 0.31568 0.7565 0.0
O227 O 0.49573 0.32061 0.74226 0.0
O228 O 0.66051 0.32908 0.78151 0.0
O229 O 0.50767 0.35358 0.77459 0.0
O230 O 0.57981 0.35011 0.78529 0.0
C231 C 0.52565 0.31201 0.74913 0.0
C232 C 0.58805 0.34277 0.68311 0.0
O233 O 0.61536 0.33863 0.70685 0.0
O234 O 0.54633 0.34418 0.69016 0.0
C235 C 0.66153 0.32855 0.81533 0.0
O236 O 0.62385 0.33055 0.83308 0.0
C237 C 0.54389 0.35684 0.79022 0.0
Zn238 Zn 0.74801 0.93878 0.84986 0.0
Zn239 Zn 0.65827 0.94403 0.84352 0.0
O240 O 0.69003 0.9593 0.81633 0.0
O241 O 0.76245 0.95642 0.82828 0.0
O242 O 0.59055 0.94791 0.84535 0.0
O243 O 0.74447 0.93573 0.9025 0.0
O244 O 0.67195 0.93956 0.89544 0.0
C245 C 0.73128 0.96287 0.81301 0.0
C246 C 0.69729 0.92038 0.80525 0.0
O247 O 0.6632 0.92734 0.81413 0.0
O248 O 0.73666 0.92337 0.81602 0.0
C249 C 0.57401 0.95405 0.87194 0.0
O250 O 0.60176 0.95897 0.89585 0.0
C251 C 0.70497 0.93629 0.91532 0.0
Zn252 Zn 0.54518 0.9038 0.5122 0.0
Zn253 Zn 0.63185 0.90559 0.49449 0.0
O254 O 0.60516 0.92466 0.4927 0.0
O255 O 0.53179 0.92294 0.50118 0.0
O256 O 0.69445 0.90682 0.47246 0.0
O257 O 0.5316 0.88853 0.47947 0.0
O258 O 0.60483 0.88918 0.46973 0.0
C259 C 0.5663 0.93008 0.49577 0.0
C260 C 0.61142 0.89831 0.5692 0.0
O261 O 0.64165 0.90054 0.54586 0.0
O262 O 0.56976 0.89929 0.56139 0.0
C263 C 0.70518 0.91521 0.44863 0.0
O264 O 0.67507 0.92397 0.43828 0.0
C265 C 0.56674 0.88342 0.46603 0.0
Zn266 Zn 0.72057 0.30073 0.38685 0.0
Zn267 Zn 0.63345 0.29649 0.3868 0.0
O268 O 0.66547 0.27906 0.40344 0.0
O269 O 0.73818 0.282 0.39365 0.0
O270 O 0.56672 0.29206 0.37897 0.0
O271 O 0.72421 0.30938 0.33938 0.0
O272 O 0.65035 0.30774 0.34281 0.0
C273 C 0.70612 0.27474 0.40426 0.0
C274 C 0.66915 0.31445 0.4427 0.0
O275 O 0.63459 0.30922 0.42816 0.0
O276 O 0.70862 0.31209 0.43102 0.0
C277 C 0.55142 0.29036 0.34762 0.0
O278 O 0.57976 0.2907 0.32073 0.0
C279 C 0.68553 0.31217 0.32722 0.0
Zn280 Zn 0.40937 0.71133 0.09711 0.0
Zn281 Zn 0.32158 0.70659 0.13558 0.0
O282 O 0.33883 0.72334 0.11157 0.0
O283 O 0.40128 0.73201 0.09645 0.0
O284 O 0.25572 0.70728 0.15107 0.0
O285 O 0.38084 0.69705 0.06399 0.0
O286 O 0.32358 0.69207 0.0996 0.0
C287 C 0.37122 0.73091 0.12018 0.0
C288 C 0.40918 0.69985 0.17216 0.0
O289 O 0.36605 0.70065 0.17338 0.0
O290 O 0.43133 0.70353 0.14483 0.0
C291 C 0.2314 0.71747 0.14527 0.0
O292 O 0.25073 0.7283 0.13333 0.0
C293 C 0.34783 0.68954 0.07247 0.0
Zn294 Zn 0.23224 0.04376 0.19423 0.0
Zn295 Zn 0.31507 0.03992 0.1688 0.0
O296 O 0.28646 0.02126 0.17665 0.0
O297 O 0.21478 0.02477 0.18954 0.0
O298 O 0.37734 0.03659 0.14747 0.0
O299 O 0.21733 0.05723 0.1574 0.0
O300 O 0.28655 0.05453 0.13718 0.0
C301 C 0.24716 0.01683 0.18434 0.0
C302 C 0.30455 0.051 0.24256 0.0
O303 O 0.33002 0.04784 0.21668 0.0
O304 O 0.26197 0.0498 0.24012 0.0
C305 C 0.38571 0.037 0.11428 0.0
O306 O 0.35231 0.0392 0.09197 0.0
C307 C 0.24856 0.06054 0.13623 0.0
Zn308 Zn 0.53331 0.05435 0.52707 0.0
Zn309 Zn 0.45057 0.04935 0.55439 0.0
O310 O 0.48469 0.03139 0.55728 0.0
O311 O 0.55333 0.03566 0.53768 0.0
O312 O 0.39008 0.04665 0.57875 0.0
O313 O 0.54359 0.0702 0.55924 0.0
O314 O 0.47336 0.06677 0.57621 0.0
C315 C 0.5244 0.02744 0.54905 0.0
C316 C 0.45783 0.05642 0.47713 0.0
O317 O 0.43354 0.0532 0.50365 0.0
O318 O 0.50044 0.05743 0.48012 0.0
C319 C 0.36352 0.03703 0.57235 0.0
O320 O 0.37625 0.02779 0.54986 0.0
C321 C 0.50885 0.07394 0.57617 0.0
Zn322 Zn 0.44075 0.64878 0.43663 0.0
Zn323 Zn 0.49363 0.66642 0.46878 0.0
O324 O 0.43344 0.67694 0.46886 0.0
O325 O 0.38968 0.66191 0.44355 0.0
O326 O 0.54298 0.67631 0.49614 0.0
O327 O 0.45102 0.63408 0.4707 0.0
O328 O 0.4931 0.64898 0.49749 0.0
C329 C 0.39484 0.67337 0.45676 0.0
C330 C 0.50708 0.65925 0.38998 0.0
O331 O 0.51624 0.66629 0.41714 0.0
O332 O 0.47781 0.65014 0.39216 0.0
C333 C 0.58291 0.67213 0.48982 0.0
O334 O 0.58838 0.66299 0.46531 0.0
C335 C 0.47655 0.63734 0.49616 0.0
Zn336 Zn 0.49584 0.76913 0.38351 0.0
Zn337 Zn 0.57304 0.76617 0.3586 0.0
O338 O 0.5345 0.74917 0.35092 0.0
O339 O 0.47207 0.75059 0.38216 0.0
O340 O 0.64019 0.76135 0.36082 0.0
O341 O 0.50487 0.78035 0.42715 0.0
O342 O 0.56791 0.78086 0.39667 0.0
C343 C 0.49614 0.74438 0.35984 0.0
C344 C 0.51689 0.78088 0.31162 0.0
O345 O 0.55675 0.77611 0.31421 0.0
O346 O 0.48845 0.77934 0.33663 0.0
C347 C 0.66804 0.75837 0.33626 0.0
O348 O 0.65368 0.7576 0.30325 0.0
C349 C 0.54289 0.78564 0.42111 0.0
Zn350 Zn 0.78504 0.43042 0.29208 0.0
Zn351 Zn 0.68818 0.43398 0.32432 0.0
O352 O 0.72655 0.4468 0.3537 0.0
O353 O 0.79039 0.43788 0.34182 0.0
O354 O 0.62483 0.43436 0.34506 0.0
O355 O 0.76868 0.41101 0.29185 0.0
O356 O 0.7029 0.4142 0.31913 0.0
C357 C 0.7675 0.44837 0.34464 0.0
C358 C 0.71091 0.44403 0.2503 0.0
O359 O 0.68309 0.44142 0.27517 0.0
O360 O 0.75269 0.44112 0.25283 0.0
C361 C 0.5972 0.44373 0.33875 0.0
O362 O 0.61053 0.45375 0.31906 0.0
C363 C 0.73239 0.40653 0.30529 0.0
Zn364 Zn 0.52691 0.46603 0.94909 0.0
Zn365 Zn 0.61021 0.4707 0.93166 0.0
O366 O 0.57709 0.4884 0.94374 0.0
O367 O 0.50401 0.48453 0.94302 0.0
O368 O 0.67098 0.4751 0.90939 0.0
O369 O 0.51515 0.45161 0.91368 0.0
O370 O 0.58657 0.45519 0.90065 0.0
C371 C 0.53646 0.49253 0.94735 0.0
C372 C 0.59705 0.46104 0.00398 0.0
O373 O 0.62558 0.46337 0.97952 0.0
O374 O 0.55488 0.46177 -0.00227 0.0
C375 C 0.70374 0.47985 0.92729 0.0
O376 O 0.69715 0.48297 0.96082 0.0
C377 C 0.55022 0.44858 0.89628 0.0
Zn378 Zn 0.62199 0.83567 0.09401 0.0
Zn379 Zn 0.57739 0.82934 0.03599 0.0
O380 O 0.62077 0.81339 0.04217 0.0
O381 O 0.65562 0.81839 0.09218 0.0
O382 O 0.54183 0.82596 0.99052 0.0
O383 O 0.64811 0.85224 0.07516 0.0
O384 O 0.60464 0.84821 0.02885 0.0
C385 C 0.64845 0.81035 0.06696 0.0
C386 C 0.52798 0.83163 0.10656 0.0
O387 O 0.52856 0.828 0.07415 0.0
O388 O 0.56324 0.83642 0.12069 0.0
C389 C 0.52932 0.81446 0.98074 0.0
O390 O 0.54147 0.80415 -0.00019 0.0
C391 C 0.63188 0.85582 0.04563 0.0
Zn392 Zn 0.51294 0.19139 0.68006 0.0
Zn393 Zn 0.4252 0.19346 0.65905 0.0
O394 O 0.45141 0.21246 0.65914 0.0
O395 O 0.52441 0.21074 0.66977 0.0
O396 O 0.3609 0.19529 0.64036 0.0
O397 O 0.52442 0.17635 0.64543 0.0
O398 O 0.45208 0.17764 0.63193 0.0
C399 C 0.48996 0.21787 0.66387 0.0
C400 C 0.4451 0.18545 0.73434 0.0
O401 O 0.41677 0.1876 0.70954 0.0
O402 O 0.48726 0.18675 0.72904 0.0
C403 C 0.35038 0.1934 0.60792 0.0
O404 O 0.38244 0.19046 0.58505 0.0
C405 C 0.49016 0.17179 0.62932 0.0
Zn406 Zn 0.45407 0.56793 0.77294 0.0
Zn407 Zn 0.49664 0.5484 0.73843 0.0
O408 O 0.43643 0.53919 0.75056 0.0
O409 O 0.40171 0.55525 0.7796 0.0
O410 O 0.53444 0.53637 0.70719 0.0
O411 O 0.45593 0.58064 0.73269 0.0
O412 O 0.49295 0.56471 0.70549 0.0
C413 C 0.40237 0.54345 0.76812 0.0
C414 C 0.53364 0.5588 0.80876 0.0
O415 O 0.53402 0.55022 0.78399 0.0
O416 O 0.50451 0.56799 0.80873 0.0
C417 C 0.5647 0.52844 0.71842 0.0
O418 O 0.56845 0.52635 0.75277 0.0
C419 C 0.47679 0.57641 0.70567 0.0
Zn420 Zn 0.46613 0.57523 0.12112 0.0
Zn421 Zn 0.38033 0.56512 0.08844 0.0
O422 O 0.40348 0.56063 0.13668 0.0
O423 O 0.46854 0.56052 0.16064 0.0
O424 O 0.31778 0.55682 0.08441 0.0
O425 O 0.42778 0.59232 0.1203 0.0
O426 O 0.37229 0.585 0.08571 0.0
C427 C 0.43905 0.55408 0.14351 0.0
C428 C 0.46653 0.56315 0.04664 0.0
O429 O 0.42462 0.56017 0.04932 0.0
O430 O 0.48707 0.56933 0.07139 0.0
C431 C 0.2858 0.5627 0.06811 0.0
O432 O 0.29502 0.57348 0.04995 0.0
C433 C 0.39304 0.59449 0.10103 0.0
Zn434 Zn 0.21186 0.17621 0.01381 0.0
Zn435 Zn 0.28578 0.18158 0.04873 0.0
O436 O 0.24626 0.19885 0.05104 0.0
O437 O 0.18103 0.19285 0.02786 0.0
O438 O 0.34188 0.18463 0.07916 0.0
O439 O 0.1998 0.15907 0.03761 0.0
O440 O 0.26288 0.1632 0.06654 0.0
C441 C 0.2057 0.20167 0.04174 0.0
C442 C 0.29151 0.17772 0.96964 0.0
O443 O 0.31184 0.17968 -0.001 0.0
O444 O 0.24897 0.17623 0.96892 0.0
C445 C 0.36871 0.19442 0.07595 0.0
O446 O 0.35888 0.20383 0.05309 0.0
C447 C 0.2298 0.15548 0.05951 0.0
H448 H 0.19042 0.38051 0.39805 0.0
H449 H 0.10016 0.38229 0.48807 0.0
H450 H 0.18955 0.35641 0.40092 0.0
H451 H 0.10116 0.35824 0.4925 0.0
H452 H 0.17924 0.31412 0.40062 0.0
H453 H 0.20226 0.33523 0.42612 0.0
H454 H 0.06382 0.34267 0.45753 0.0
H455 H 0.04144 0.32152 0.43346 0.0
C456 C 0.17162 0.37572 0.41916 0.0
C457 C 0.14443 0.38318 0.44221 0.0
C458 C 0.17137 0.36189 0.42112 0.0
C459 C 0.14454 0.35531 0.44662 0.0
C460 C 0.12114 0.36293 0.47192 0.0
C461 C 0.1206 0.3767 0.46943 0.0
C462 C 0.1541 0.32001 0.41437 0.0
C463 C 0.10816 0.31636 0.41389 0.0
C464 C 0.16725 0.33221 0.42863 0.0
C465 C 0.13469 0.34092 0.44263 0.0
C466 C 0.09001 0.33634 0.4468 0.0
C467 C 0.07697 0.32414 0.43279 0.0
H468 H 0.20254 0.86679 0.35901 0.0
H469 H 0.06033 0.87099 0.33451 0.0
H470 H 0.19419 0.84283 0.35883 0.0
H471 H 0.05231 0.84695 0.33372 0.0
H472 H 0.06049 0.80143 0.3638 0.0
H473 H 0.0574 0.82558 0.36678 0.0
H474 H 0.18228 0.82788 0.30751 0.0
H475 H 0.18582 0.80383 0.305 0.0
C476 C 0.16926 0.86263 0.35447 0.0
C477 C 0.13234 0.87081 0.3461 0.0
C478 C 0.16461 0.84889 0.35385 0.0
C479 C 0.12297 0.84304 0.34488 0.0
C480 C 0.08494 0.85119 0.34024 0.0
C481 C 0.08955 0.86497 0.34093 0.0
C482 C 0.08648 0.8071 0.35037 0.0
C483 C 0.12378 0.80072 0.33457 0.0
C484 C 0.08489 0.82093 0.35239 0.0
C485 C 0.12045 0.82857 0.33852 0.0
C486 C 0.15522 0.82221 0.31958 0.0
C487 C 0.15689 0.80844 0.31765 0.0
H488 H 0.19357 0.90507 0.85774 0.0
H489 H 0.0616 0.90479 0.80819 0.0
H490 H 0.20364 0.88189 0.84223 0.0
H491 H 0.07235 0.88168 0.79171 0.0
H492 H 0.06974 0.8387 0.82693 0.0
H493 H 0.06941 0.86269 0.83113 0.0
H494 H 0.21006 0.86374 0.79994 0.0
H495 H 0.21072 0.83958 0.79646 0.0
C496 C 0.16747 0.90024 0.84222 0.0
C497 C 0.12625 0.90668 0.83497 0.0
C498 C 0.17323 0.8869 0.83343 0.0
C499 C 0.13809 0.87983 0.8169 0.0
C500 C 0.09937 0.88675 0.80562 0.0
C501 C 0.09345 0.90005 0.81464 0.0
C502 C 0.10077 0.84401 0.82132 0.0
C503 C 0.1402 0.83722 0.81129 0.0
C504 C 0.10041 0.85779 0.8232 0.0
C505 C 0.13941 0.86515 0.81495 0.0
C506 C 0.17941 0.85836 0.80626 0.0
C507 C 0.17982 0.84452 0.80447 0.0
H508 H 0.05817 0.41628 0.82562 0.0
H509 H 0.20022 0.41132 0.84886 0.0
H510 H 0.04597 0.3926 0.83573 0.0
H511 H 0.18805 0.38801 0.86054 0.0
H512 H 0.17097 0.3453 0.85486 0.0
H513 H 0.1739 0.36785 0.8321 0.0
H514 H 0.04356 0.37593 0.87965 0.0
H515 H 0.03962 0.35317 0.90046 0.0
C516 C 0.08656 0.41017 0.8335 0.0
C517 C 0.13014 0.41561 0.83638 0.0
C518 C 0.07967 0.3966 0.83918 0.0
C519 C 0.11617 0.38829 0.84829 0.0
C520 C 0.15936 0.39394 0.85233 0.0
C521 C 0.1663 0.40737 0.84614 0.0
C522 C 0.14239 0.3518 0.85946 0.0
C523 C 0.10538 0.34753 0.87978 0.0
C524 C 0.14425 0.36478 0.84686 0.0
C525 C 0.10967 0.37388 0.85509 0.0
C526 C 0.07087 0.36925 0.87281 0.0
C527 C 0.0686 0.35617 0.88476 0.0
H528 H 0.06803 0.56592 0.63466 0.0
H529 H 0.92281 0.56116 0.63993 0.0
H530 H 0.06104 0.58789 0.66081 0.0
H531 H 0.91602 0.58314 0.66621 0.0
H532 H 0.03346 0.62433 0.72828 0.0
H533 H 0.03779 0.6009 0.71373 0.0
H534 H 0.92831 0.60559 0.63869 0.0
H535 H 0.92357 0.62914 0.65343 0.0
C536 C 0.03476 0.56939 0.64233 0.0
C537 C 0.99597 0.56184 0.63478 0.0
C538 C 0.03075 0.58199 0.65728 0.0
C539 C 0.98788 0.58732 0.66484 0.0
C540 C 0.94939 0.57937 0.65994 0.0
C541 C 0.95341 0.56671 0.64528 0.0
C542 C 0.01018 0.6204 0.70869 0.0
C543 C 0.97825 0.62864 0.69185 0.0
C544 C 0.01276 0.60696 0.70039 0.0
C545 C 0.98331 0.60141 0.67524 0.0
C546 C 0.95104 0.60958 0.6586 0.0
C547 C 0.94862 0.62308 0.66675 0.0
H548 H 0.9888 0.08189 0.62346 0.0
H549 H 0.85521 0.08694 0.57842 0.0
H550 H 0.9958 0.10594 0.62965 0.0
H551 H 0.86237 0.1108 0.58496 0.0
H552 H 0.8552 0.14744 0.64802 0.0
H553 H 0.86589 0.12355 0.64662 0.0
H554 H 0.99261 0.12861 0.59141 0.0
H555 H 0.98222 0.15261 0.59262 0.0
C556 C 0.96155 0.08811 0.61387 0.0
C557 C 0.92106 0.08249 0.60103 0.0
C558 C 0.96549 0.10185 0.61775 0.0
C559 C 0.92896 0.11008 0.60899 0.0
C560 C 0.89044 0.10457 0.59294 0.0
C561 C 0.88661 0.09091 0.58879 0.0
C562 C 0.88619 0.14354 0.63673 0.0
C563 C 0.91714 0.15191 0.61948 0.0
C564 C 0.89205 0.12986 0.63563 0.0
C565 C 0.92921 0.12433 0.61772 0.0
C566 C 0.96335 0.13269 0.60487 0.0
C567 C 0.95742 0.14643 0.60582 0.0
H568 H 0.73162 0.14857 0.13967 0.0
H569 H 0.84954 0.14963 0.07179 0.0
H570 H 0.72695 0.12453 0.13168 0.0
H571 H 0.84467 0.12572 0.06405 0.0
H572 H 0.87622 0.08744 0.12283 0.0
H573 H 0.85801 0.11089 0.12628 0.0
H574 H 0.72804 0.10354 0.07799 0.0
H575 H 0.74623 0.07986 0.07403 0.0
C576 C 0.75519 0.1438 0.12172 0.0
C577 C 0.79158 0.15092 0.10691 0.0
C578 C 0.75261 0.13004 0.1174 0.0
C579 C 0.78618 0.12338 0.09809 0.0
C580 C 0.8189 0.13071 0.07958 0.0
C581 C 0.82148 0.14438 0.08383 0.0
C582 C 0.84326 0.09071 0.11376 0.0
C583 C 0.81303 0.08183 0.0976 0.0
C584 C 0.83302 0.10414 0.11551 0.0
C585 C 0.79223 0.10895 0.10147 0.0
C586 C 0.7599 0.1 0.08858 0.0
C587 C 0.77027 0.08647 0.08661 0.0
H588 H 0.74199 0.58277 0.11242 0.0
H589 H 0.88003 0.58993 0.1447 0.0
H590 H 0.73152 0.6064 0.10221 0.0
H591 H 0.86897 0.61349 0.13711 0.0
H592 H 0.84644 0.65538 0.10032 0.0
H593 H 0.85949 0.63175 0.1027 0.0
H594 H 0.72014 0.62567 0.13406 0.0
H595 H 0.7065 0.6494 0.12897 0.0
C596 C 0.77031 0.58939 0.11677 0.0
C597 C 0.81181 0.58448 0.12931 0.0
C598 C 0.76412 0.60298 0.1116 0.0
C599 C 0.79897 0.61202 0.11965 0.0
C600 C 0.84129 0.60696 0.13023 0.0
C601 C 0.84777 0.59336 0.13456 0.0
C602 C 0.81871 0.64902 0.10824 0.0
C603 C 0.77545 0.65428 0.11466 0.0
C604 C 0.82619 0.63539 0.1096 0.0
C605 C 0.79089 0.62663 0.11833 0.0
C606 C 0.74797 0.63199 0.12623 0.0
C607 C 0.74022 0.64564 0.12397 0.0
H608 H 0.48021 0.43644 0.86172 0.0
H609 H 0.62174 0.43209 0.88727 0.0
H610 H 0.47961 0.41427 0.83612 0.0
H611 H 0.62072 0.40964 0.86458 0.0
H612 H 0.61695 0.37292 0.79631 0.0
H613 H 0.61901 0.39548 0.81812 0.0
H614 H 0.4786 0.39223 0.84981 0.0
H615 H 0.47602 0.36993 0.82508 0.0
C616 C 0.51126 0.43073 0.86163 0.0
C617 C 0.55109 0.43602 0.87614 0.0
C618 C 0.51085 0.41791 0.84752 0.0
C619 C 0.54996 0.40992 0.84858 0.0
C620 C 0.59003 0.41543 0.8625 0.0
C621 C 0.59071 0.42837 0.87563 0.0
C622 C 0.58669 0.37698 0.80837 0.0
C623 C 0.54635 0.36966 0.8091 0.0
C624 C 0.58781 0.38998 0.82102 0.0
C625 C 0.5489 0.39589 0.83571 0.0
C626 C 0.509 0.38827 0.83781 0.0
C627 C 0.50758 0.37538 0.82417 0.0
H628 H 0.59408 0.86867 0.9889 0.0
H629 H 0.69334 0.87334 0.07251 0.0
H630 H 0.61032 0.89105 0.96829 0.0
H631 H 0.70913 0.89577 0.05201 0.0
H632 H 0.76468 0.92361 0.95929 0.0
H633 H 0.74507 0.90529 -0.00179 0.0
H634 H 0.60336 0.91478 0.9867 0.0
H635 H 0.62276 0.93308 0.94745 0.0
C636 C 0.61928 0.87446 0.00289 0.0
C637 C 0.64259 0.86919 0.03216 0.0
C638 C 0.62812 0.88735 0.99144 0.0
C639 C 0.66057 0.89521 0.00891 0.0
C640 C 0.68389 0.88994 0.03814 0.0
C641 C 0.67489 0.87709 0.04974 0.0
C642 C 0.72943 0.92216 0.96615 0.0
C643 C 0.69519 0.9295 0.94926 0.0
C644 C 0.71819 0.91161 0.98845 0.0
C645 C 0.67261 0.90835 -0.00565 0.0
C646 C 0.63873 0.91687 0.98163 0.0
C647 C 0.64995 0.92743 0.95943 0.0
H648 H 0.61553 0.80113 0.40485 0.0
H649 H 0.49231 0.80092 0.4667 0.0
H650 H 0.62186 0.82483 0.41283 0.0
H651 H 0.49992 0.8247 0.47631 0.0
H652 H 0.49221 0.8683 0.45074 0.0
H653 H 0.48978 0.84435 0.44299 0.0
H654 H 0.63574 0.84285 0.44965 0.0
H655 H 0.63817 0.86675 0.45561 0.0
C656 C 0.59046 0.80607 0.42116 0.0
C657 C 0.55308 0.79909 0.4348 0.0
C658 C 0.59412 0.81974 0.42573 0.0
C659 C 0.56087 0.82681 0.44457 0.0
C660 C 0.5254 0.81967 0.46064 0.0
C661 C 0.52145 0.80597 0.45571 0.0
C662 C 0.52381 0.86287 0.44969 0.0
C663 C 0.56535 0.86947 0.45377 0.0
C664 C 0.52242 0.8491 0.44589 0.0
C665 C 0.56251 0.84156 0.44649 0.0
C666 C 0.60413 0.84826 0.44887 0.0
C667 C 0.60554 0.86204 0.45218 0.0
H668 H 0.74754 0.32165 0.27955 0.0
H669 H 0.61568 0.32958 0.32408 0.0
H670 H 0.75492 0.34488 0.26335 0.0
H671 H 0.62426 0.35277 0.31081 0.0
H672 H 0.65023 0.39546 0.29265 0.0
H673 H 0.63318 0.37224 0.28163 0.0
H674 H 0.77429 0.36252 0.29863 0.0
H675 H 0.7913 0.38585 0.30672 0.0
C676 C 0.71951 0.32828 0.28481 0.0
C677 C 0.68162 0.32387 0.30394 0.0
C678 C 0.72407 0.34167 0.27623 0.0
C679 C 0.69135 0.35092 0.28747 0.0
C680 C 0.65061 0.34611 0.30194 0.0
C681 C 0.64553 0.33267 0.30956 0.0
C682 C 0.67745 0.38829 0.29402 0.0
C683 C 0.72195 0.39236 0.30109 0.0
C684 C 0.66777 0.37496 0.28762 0.0
C685 C 0.7022 0.36534 0.28918 0.0
C686 C 0.74685 0.36955 0.29616 0.0
C687 C 0.75666 0.38292 0.30151 0.0
H688 H 0.44091 0.61687 0.11592 0.0
H689 H 0.3177 0.6034 0.06548 0.0
H690 H 0.42533 0.63931 0.0962 0.0
H691 H 0.30204 0.62609 0.04588 0.0
H692 H 0.27697 0.67226 0.07657 0.0
H693 H 0.28447 0.64823 0.07679 0.0
H694 H 0.42098 0.65183 0.03729 0.0
H695 H 0.41375 0.67586 0.03717 0.0
C696 C 0.41028 0.61869 0.10087 0.0
C697 C 0.38051 0.60832 0.09239 0.0
C698 C 0.40173 0.63153 0.08908 0.0
C699 C 0.363 0.63437 0.06881 0.0
C700 C 0.33239 0.62412 0.06114 0.0
C701 C 0.34126 0.61118 0.07257 0.0
C702 C 0.30792 0.66792 0.06645 0.0
C703 C 0.34519 0.67598 0.05778 0.0
C704 C 0.3122 0.65414 0.06665 0.0
C705 C 0.3538 0.64824 0.05818 0.0
C706 C 0.38887 0.65619 0.04476 0.0
C707 C 0.3845 0.66997 0.04429 0.0
H708 H 0.29414 0.14276 0.09962 0.0
H709 H 0.16566 0.13665 0.04711 0.0
H710 H 0.2979 0.11915 0.11325 0.0
H711 H 0.17018 0.11313 0.05967 0.0
H712 H 0.31468 0.07496 0.10286 0.0
H713 H 0.309 0.09797 0.08336 0.0
H714 H 0.16606 0.09774 0.10746 0.0
H715 H 0.17139 0.07477 0.12584 0.0
C716 C 0.26653 0.13643 0.0913 0.0
C717 C 0.22957 0.14162 0.07236 0.0
C718 C 0.26901 0.12286 0.09861 0.0
C719 C 0.23463 0.11421 0.08711 0.0
C720 C 0.19712 0.11949 0.06909 0.0
C721 C 0.19455 0.13302 0.06192 0.0
C722 C 0.28181 0.07971 0.10301 0.0
C723 C 0.24356 0.07306 0.11619 0.0
C724 C 0.2787 0.09296 0.09238 0.0
C725 C 0.23728 0.09978 0.0946 0.0
C726 C 0.19849 0.09281 0.10536 0.0
C727 C 0.20157 0.07961 0.11592 0.0
H728 H 0.43417 0.08935 0.57589 0.0
H729 H 0.57659 0.09018 0.60089 0.0
H730 H 0.42977 0.113 0.58349 0.0
H731 H 0.57172 0.11395 0.61214 0.0
H732 H 0.5628 0.15831 0.60159 0.0
H733 H 0.56715 0.13465 0.58881 0.0
H734 H 0.42637 0.13054 0.61886 0.0
H735 H 0.42152 0.15409 0.62805 0.0
C736 C 0.46431 0.09457 0.58442 0.0
C737 C 0.50564 0.08786 0.58818 0.0
C738 C 0.46184 0.10826 0.58889 0.0
C739 C 0.50034 0.11567 0.59856 0.0
C740 C 0.54143 0.1088 0.60381 0.0
C741 C 0.5442 0.09509 0.59806 0.0
C742 C 0.53259 0.15232 0.60431 0.0
C743 C 0.49171 0.1581 0.61532 0.0
C744 C 0.53517 0.13868 0.5977 0.0
C745 C 0.49729 0.13041 0.60311 0.0
C746 C 0.45623 0.13638 0.61342 0.0
C747 C 0.45333 0.15002 0.6188 0.0
H748 H 0.51819 0.64209 0.55981 0.0
H749 H 0.45374 0.61118 0.49834 0.0
H750 H 0.52477 0.62696 0.61017 0.0
H751 H 0.46015 0.59616 0.54874 0.0
H752 H 0.5088 0.5698 0.63969 0.0
H753 H 0.5162 0.58431 0.58795 0.0
H754 H 0.46534 0.61712 0.64985 0.0
H755 H 0.45809 0.60276 0.70142 0.0
C756 C 0.50593 0.63204 0.55689 0.0
C757 C 0.48498 0.62787 0.52527 0.0
C758 C 0.50956 0.62341 0.58573 0.0
C759 C 0.49268 0.61044 0.58333 0.0
C760 C 0.47373 0.60608 0.55118 0.0
C761 C 0.46979 0.61472 0.52244 0.0
C762 C 0.49945 0.58013 0.64227 0.0
C763 C 0.48259 0.58512 0.67454 0.0
C764 C 0.50363 0.5884 0.61269 0.0
C765 C 0.49149 0.60182 0.61503 0.0
C766 C 0.47554 0.60686 0.64747 0.0
C767 C 0.471 0.59859 0.67689 0.0
H768 H 0.50785 0.29164 0.28372 0.0
H769 H 0.48294 0.28663 0.39614 0.0
H770 H 0.42663 0.29158 0.27249 0.0
H771 H 0.4013 0.28646 0.38466 0.0
H772 H 0.25745 0.27574 0.34234 0.0
H773 H 0.33911 0.27298 0.35173 0.0
H774 H 0.36437 0.30789 0.28859 0.0
H775 H 0.28326 0.31074 0.27958 0.0
C776 C 0.48511 0.29038 0.30604 0.0
C777 C 0.502 0.28921 0.34089 0.0
C778 C 0.43852 0.2904 0.29956 0.0
C779 C 0.40759 0.28907 0.32768 0.0
C780 C 0.42435 0.28741 0.36242 0.0
C781 C 0.47108 0.28758 0.369 0.0
C782 C 0.28052 0.28272 0.33013 0.0
C783 C 0.2639 0.29345 0.31019 0.0
C784 C 0.32719 0.2812 0.33575 0.0
C785 C 0.35812 0.29023 0.32092 0.0
C786 C 0.34145 0.30071 0.30013 0.0
C787 C 0.29494 0.30236 0.29506 0.0
H788 H 0.96836 0.92836 0.34626 0.0
H789 H 0.93668 0.88697 0.3311 0.0
H790 H 0.89732 0.93129 0.37882 0.0
H791 H 0.86605 0.88993 0.36334 0.0
H792 H 0.77059 0.89627 0.45679 0.0
H793 H 0.84246 0.89447 0.42536 0.0
H794 H 0.8134 0.9307 0.36887 0.0
H795 H 0.74144 0.93258 0.40047 0.0
C796 C 0.9462 0.91992 0.34967 0.0
C797 C 0.9583 0.90742 0.33611 0.0
C798 C 0.90547 0.92161 0.36824 0.0
C799 C 0.87623 0.91082 0.37392 0.0
C800 C 0.88815 0.89839 0.35994 0.0
C801 C 0.92855 0.89673 0.3412 0.0
C802 C 0.77958 0.90391 0.43785 0.0
C803 C 0.7501 0.91454 0.43106 0.0
C804 C 0.82067 0.90283 0.41967 0.0
C805 C 0.83349 0.91239 0.39442 0.0
C806 C 0.80462 0.92321 0.3883 0.0
C807 C 0.76329 0.92425 0.4063 0.0
H808 H 0.50603 0.94408 0.82975 0.0
H809 H 0.52948 0.96426 0.92941 0.0
H810 H 0.42555 0.9424 0.84407 0.0
H811 H 0.44926 0.96266 0.94348 0.0
H812 H 0.31899 0.94041 0.97599 0.0
H813 H 0.39745 0.94459 0.95961 0.0
H814 H 0.35514 0.95539 0.85359 0.0
H815 H 0.27641 0.95112 0.8699 0.0
C816 C 0.494 0.94831 0.85446 0.0
C817 C 0.52438 0.95424 0.87848 0.0
C818 C 0.4478 0.94739 0.86262 0.0
C819 C 0.43098 0.9523 0.89508 0.0
C820 C 0.46116 0.95859 0.91852 0.0
C821 C 0.50719 0.95958 0.9103 0.0
C822 C 0.32628 0.94378 0.94926 0.0
C823 C 0.2913 0.94542 0.92429 0.0
C824 C 0.37132 0.94624 0.9399 0.0
C825 C 0.38266 0.95032 0.90525 0.0
C826 C 0.34763 0.95214 0.88039 0.0
C827 C 0.30247 0.94978 0.88984 0.0
H828 H 0.74445 0.32177 0.78789 0.0
H829 H 0.67626 0.33051 0.8868 0.0
H830 H 0.8159 0.31931 0.8201 0.0
H831 H 0.74749 0.32804 0.91879 0.0
H832 H 0.893 0.34055 0.95128 0.0
H833 H 0.81969 0.34083 0.92157 0.0
H834 H 0.85417 0.3048 0.86598 0.0
H835 H 0.92778 0.30448 0.8958 0.0
C836 C 0.74462 0.32309 0.81648 0.0
C837 C 0.70465 0.3264 0.83472 0.0
C838 C 0.78549 0.3216 0.83495 0.0
C839 C 0.78734 0.32353 0.87198 0.0
C840 C 0.74725 0.32663 0.89023 0.0
C841 C 0.70638 0.32799 0.87186 0.0
C842 C 0.88484 0.3326 0.933 0.0
C843 C 0.91628 0.3225 0.92591 0.0
C844 C 0.84273 0.33275 0.91607 0.0
C845 C 0.83119 0.32286 0.89134 0.0
C846 C 0.86228 0.31262 0.88466 0.0
C847 C 0.90428 0.31239 0.90195 0.0
H848 H 0.83488 0.66406 0.60157 0.0
H849 H 0.78078 0.69965 0.64901 0.0
H850 H 0.77075 0.66316 0.56116 0.0
H851 H 0.71706 0.699 0.60771 0.0
H852 H 0.5835 0.68359 0.5563 0.0
H853 H 0.64904 0.68698 0.59503 0.0
H854 H 0.7372 0.67324 0.51108 0.0
H855 H 0.67188 0.66948 0.47316 0.0
C856 C 0.80962 0.67182 0.60307 0.0
C857 C 0.81312 0.68192 0.62862 0.0
C858 C 0.7728 0.67135 0.57969 0.0
C859 C 0.7385 0.68104 0.58094 0.0
C860 C 0.74238 0.69127 0.60618 0.0
C861 C 0.77917 0.6917 0.62973 0.0
C862 C 0.61697 0.68149 0.54603 0.0
C863 C 0.6224 0.67615 0.51177 0.0
C864 C 0.65465 0.68344 0.56821 0.0
C865 C 0.69861 0.68019 0.55649 0.0
C866 C 0.70394 0.67552 0.52149 0.0
C867 C 0.6664 0.67346 0.49957 0.0
H868 H 0.07311 0.02964 0.60073 0.0
H869 H 0.11661 0.05028 0.69537 0.0
H870 H 0.15162 0.02747 0.58184 0.0
H871 H 0.19517 0.0477 0.67722 0.0
H872 H 0.32246 0.05627 0.61203 0.0
H873 H 0.24542 0.05659 0.63455 0.0
H874 H 0.22323 0.01738 0.59186 0.0
H875 H 0.30009 0.01727 0.56821 0.0
C876 C 0.09948 0.03352 0.61782 0.0
C877 C 0.08851 0.04022 0.64944 0.0
C878 C 0.14463 0.03222 0.60707 0.0
C879 C 0.17997 0.0375 0.62782 0.0
C880 C 0.16893 0.04376 0.66012 0.0
C881 C 0.12381 0.04516 0.6707 0.0
C882 C 0.30129 0.04767 0.60761 0.0
C883 C 0.3175 0.03677 0.58818 0.0
C884 C 0.25705 0.04781 0.62076 0.0
C885 C 0.22784 0.03701 0.61511 0.0
C886 C 0.24442 0.02597 0.59629 0.0
C887 C 0.28865 0.02587 0.58291 0.0
H888 H 0.41571 0.03899 0.04562 0.0
H889 H 0.46303 0.03279 0.15308 0.0
H890 H 0.49365 0.03892 0.02443 0.0
H891 H 0.54105 0.0329 0.13188 0.0
H892 H 0.67657 0.02428 0.07828 0.0
H893 H 0.59759 0.02103 0.0958 0.0
H894 H 0.55804 0.05386 0.02909 0.0
H895 H 0.6364 0.057 0.01136 0.0
C896 C 0.44268 0.03753 0.06474 0.0
C897 C 0.43301 0.03598 0.10112 0.0
C898 C 0.48743 0.03756 0.05258 0.0
C899 C 0.5237 0.03599 0.07645 0.0
C900 C 0.51397 0.03401 0.11269 0.0
C901 C 0.46919 0.03403 0.12488 0.0
C902 C 0.6509 0.03068 0.06702 0.0
C903 C 0.66288 0.04092 0.04348 0.0
C904 C 0.60569 0.02888 0.07726 0.0
C905 C 0.57142 0.03721 0.06395 0.0
C906 C 0.58337 0.04717 0.03957 0.0
C907 C 0.62846 0.04901 0.02954 0.0
H908 H 0.94422 0.69484 0.14387 0.0
H909 H 0.96258 0.72524 0.06434 0.0
H910 H 0.02254 0.69771 0.16295 0.0
H911 H 0.04096 0.72786 0.08272 0.0
H912 H 0.1702 0.73755 0.13841 0.0
H913 H 0.08883 0.7357 0.12955 0.0
H914 H 0.09796 0.69325 0.14203 0.0
H915 H 0.17921 0.69515 0.15188 0.0
C916 C 0.96493 0.70214 0.13046 0.0
C917 C 0.94709 0.7098 0.10251 0.0
C918 C 0.00993 0.70374 0.1413 0.0
C919 C 0.03819 0.71303 0.12444 0.0
C920 C 0.02007 0.72078 0.09678 0.0
C921 C 0.97511 0.71921 0.08602 0.0
C922 C 0.15476 0.72784 0.13985 0.0
C923 C 0.18132 0.71649 0.14557 0.0
C924 C 0.1081 0.72677 0.13447 0.0
C925 C 0.08682 0.71431 0.13447 0.0
C926 C 0.11306 0.70302 0.14205 0.0
C927 C 0.15976 0.7041 0.14763 0.0
H928 H 0.50243 0.79131 0.94918 0.0
H929 H 0.48625 0.83374 0.94231 0.0
H930 H 0.44849 0.78845 0.90073 0.0
H931 H 0.4312 0.83089 0.8948 0.0
H932 H 0.35571 0.82328 0.79324 0.0
H933 H 0.41875 0.82483 0.83481 0.0
H934 H 0.36979 0.79009 0.88977 0.0
H935 H 0.30779 0.78829 0.84743 0.0
C936 C 0.48741 0.80004 0.9373 0.0
C937 C 0.49861 0.81276 0.94976 0.0
C938 C 0.4562 0.79839 0.90961 0.0
C939 C 0.4351 0.80942 0.8938 0.0
C940 C 0.44713 0.82215 0.90583 0.0
C941 C 0.47858 0.8238 0.93332 0.0
C942 C 0.35876 0.81586 0.81391 0.0
C943 C 0.32652 0.80569 0.81705 0.0
C944 C 0.39476 0.81681 0.83799 0.0
C945 C 0.39929 0.80768 0.86606 0.0
C946 C 0.36788 0.79723 0.86836 0.0
C947 C 0.33209 0.79622 0.8441 0.0
H948 H 0.781 0.48934 0.95831 0.0
H949 H 0.73124 0.47169 0.86118 0.0
H950 H 0.8579 0.48855 0.93501 0.0
H951 H 0.80816 0.47108 0.8377 0.0
H952 H 0.95563 0.45618 0.82993 0.0
H953 H 0.87757 0.45869 0.84961 0.0
H954 H 0.90849 0.49772 0.88984 0.0
H955 H 0.98686 0.49515 0.87056 0.0
C956 C 0.78634 0.48544 0.93181 0.0
C957 C 0.74988 0.48052 0.91171 0.0
C958 C 0.83049 0.48504 0.91837 0.0
C959 C 0.83931 0.47968 0.88454 0.0
C960 C 0.80267 0.47509 0.86406 0.0
C961 C 0.75849 0.47554 0.87744 0.0
C962 C 0.94581 0.46533 0.84284 0.0
C963 C 0.97766 0.47544 0.84875 0.0
C964 C 0.90091 0.4668 0.85392 0.0
C965 C 0.88668 0.47842 0.87132 0.0
C966 C 0.9184 0.48859 0.87688 0.0
C967 C 0.96331 0.48714 0.86566 0.0
H968 H 0.52888 0.46152 0.32745 0.0
H969 H 0.55825 0.42443 0.37986 0.0
H970 H 0.45041 0.46 0.34674 0.0
H971 H 0.47989 0.42306 0.39985 0.0
H972 H 0.32559 0.41753 0.39218 0.0
H973 H 0.40518 0.4192 0.37589 0.0
H974 H 0.40241 0.46114 0.39852 0.0
H975 H 0.32254 0.45953 0.41405 0.0
C976 C 0.51873 0.45309 0.34336 0.0
C977 C 0.54992 0.44308 0.352 0.0
C978 C 0.4737 0.45226 0.35462 0.0
C979 C 0.45869 0.44139 0.37485 0.0
C980 C 0.49007 0.43147 0.38389 0.0
C981 C 0.53512 0.4323 0.37261 0.0
C982 C 0.34197 0.42711 0.39381 0.0
C983 C 0.31755 0.4384 0.40432 0.0
C984 C 0.38775 0.42805 0.38465 0.0
C985 C 0.41032 0.44031 0.38581 0.0
C986 C 0.386 0.45157 0.3968 0.0
C987 C 0.34021 0.45063 0.40592 0.0
H988 H 0.71006 0.762 0.40041 0.0
H989 H 0.73686 0.75051 0.2918 0.0
H990 H 0.79005 0.75998 0.41432 0.0
H991 H 0.81702 0.74804 0.306 0.0
H992 H 0.96314 0.76016 0.33427 0.0
H993 H 0.88302 0.76048 0.31908 0.0
H994 H 0.85055 0.74514 0.42328 0.0
H995 H 0.93058 0.74528 0.43882 0.0
C996 C 0.73295 0.75889 0.37953 0.0
C997 C 0.71683 0.75645 0.34492 0.0
C998 C 0.779 0.75763 0.3876 0.0
C999 C 0.81041 0.75381 0.36137 0.0
C1000 C 0.79415 0.75119 0.32683 0.0
C1001 C 0.74802 0.75252 0.3187 0.0
C1002 C 0.93895 0.75676 0.35387 0.0
C1003 C 0.95344 0.75276 0.38787 0.0
C1004 C 0.89283 0.75688 0.34508 0.0
C1005 C 0.85988 0.75292 0.36996 0.0
C1006 C 0.87463 0.74853 0.4036 0.0
C1007 C 0.9207 0.74851 0.41247 0.0
H1008 H 0.65423 0.20285 0.12628 0.0
H1009 H 0.60312 0.17864 0.21191 0.0
H1010 H 0.57763 0.2054 0.10319 0.0
H1011 H 0.52638 0.18161 0.18984 0.0
H1012 H 0.40662 0.17452 0.11531 0.0
H1013 H 0.48084 0.17404 0.14304 0.0
H1014 H 0.5043 0.21439 0.10936 0.0
H1015 H 0.43047 0.21464 0.08034 0.0
C1016 C 0.62652 0.1983 0.14062 0.0
C1017 C 0.6349 0.19045 0.17079 0.0
C1018 C 0.58242 0.1998 0.12745 0.0
C1019 C 0.5455 0.19359 0.14433 0.0
C1020 C 0.55386 0.18627 0.17551 0.0
C1021 C 0.59795 0.18465 0.1884 0.0
C1022 C 0.42742 0.18333 0.11402 0.0
C1023 C 0.41252 0.1946 0.09544 0.0
C1024 C 0.47007 0.1831 0.13018 0.0
C1025 C 0.49897 0.19418 0.12858 0.0
C1026 C 0.4835 0.20558 0.11072 0.0
C1027 C 0.44093 0.20576 0.09426 0.0
H1028 H 0.25279 0.54369 0.11343 0.0
H1029 H 0.21022 0.57287 0.03638 0.0
H1030 H 0.17368 0.53909 0.1277 0.0
H1031 H 0.13145 0.5684 0.05094 0.0
H1032 H 0.99215 0.55047 0.06535 0.0
H1033 H 0.07131 0.552 0.04764 0.0
H1034 H 0.11167 0.55065 0.15799 0.0
H1035 H 0.03246 0.54893 0.17574 0.0
C1036 C 0.22661 0.54902 0.09922 0.0
C1037 C 0.23795 0.55869 0.07382 0.0
C1038 C 0.18124 0.54645 0.10763 0.0
C1039 C 0.14613 0.55344 0.09067 0.0
C1040 C 0.15751 0.56274 0.06432 0.0
C1041 C 0.2028 0.56535 0.05605 0.0
C1042 C 0.01787 0.55041 0.08588 0.0
C1043 C 0.00582 0.54964 0.12201 0.0
C1044 C 0.06331 0.55135 0.0757 0.0
C1045 C 0.09794 0.55151 0.10136 0.0
C1046 C 0.08595 0.55041 0.13747 0.0
C1047 C 0.04046 0.54951 0.14767 0.0
H1048 H 0.75915 0.5175 0.54446 0.0
H1049 H 0.83405 0.52239 0.6423 0.0
H1050 H 0.68892 0.5159 0.57837 0.0
H1051 H 0.76412 0.52118 0.67595 0.0
H1052 H 0.63651 0.51219 0.73323 0.0
H1053 H 0.70228 0.50791 0.69582 0.0
H1054 H 0.64144 0.53072 0.61115 0.0
H1055 H 0.5753 0.53464 0.64804 0.0
C1056 C 0.76072 0.51814 0.57319 0.0
C1057 C 0.80226 0.52017 0.5906 0.0
C1058 C 0.7204 0.51729 0.59264 0.0
C1059 C 0.72067 0.51847 0.62995 0.0
C1060 C 0.76249 0.52002 0.64734 0.0
C1061 C 0.80271 0.52083 0.62795 0.0
C1062 C 0.63677 0.51606 0.70637 0.0
C1063 C 0.6008 0.52388 0.69383 0.0
C1064 C 0.67467 0.5137 0.68499 0.0
C1065 C 0.67762 0.51915 0.65061 0.0
C1066 C 0.64037 0.52628 0.63733 0.0
C1067 C 0.60239 0.52858 0.65863 0.0
H1068 H 0.05903 0.20636 0.57708 0.0
H1069 H 0.0918 0.16997 0.52237 0.0
H1070 H 0.13918 0.2096 0.59092 0.0
H1071 H 0.17143 0.17314 0.53644 0.0
H1072 H 0.31601 0.18784 0.542 0.0
H1073 H 0.23684 0.18723 0.52382 0.0
H1074 H 0.19641 0.19898 0.62957 0.0
H1075 H 0.27567 0.19974 0.64773 0.0
C1076 C 0.08332 0.19912 0.5677 0.0
C1077 C 0.06893 0.18789 0.54867 0.0
C1078 C 0.1292 0.20093 0.57585 0.0
C1079 C 0.16175 0.19161 0.5649 0.0
C1080 C 0.14741 0.1806 0.54498 0.0
C1081 C 0.10163 0.17874 0.53705 0.0
C1082 C 0.29031 0.19039 0.56135 0.0
C1083 C 0.30228 0.19377 0.5964 0.0
C1084 C 0.24487 0.18998 0.55094 0.0
C1085 C 0.21021 0.193 0.57526 0.0
C1086 C 0.22223 0.19673 0.61006 0.0
C1087 C 0.26771 0.19708 0.62053 0.0
H1088 H 0.83285 0.22587 0.20545 0.0
H1089 H 0.95734 0.2091 0.16551 0.0
H1090 H 0.87623 0.2426 0.23757 0.0
H1091 H 1.00049 0.22514 0.19901 0.0
H1092 H 0.0679 0.26133 0.24779 0.0
H1093 H 0.02559 0.2464 0.20942 0.0
H1094 H 0.92057 0.24359 0.28916 0.0
H1095 H 0.96197 0.25911 0.32653 0.0
C1096 C 0.86935 0.2259 0.20291 0.0
C1097 C 0.8915 0.21604 0.18315 0.0
C1098 C 0.89439 0.23534 0.22192 0.0
C1099 C 0.94212 0.23505 0.22186 0.0
C1100 C 0.96395 0.22578 0.19987 0.0
C1101 C 0.939 0.2165 0.18058 0.0
C1102 C 0.03627 0.25728 0.25744 0.0
C1103 C 0.01839 0.26135 0.29027 0.0
C1104 C 0.01172 0.24875 0.2353 0.0
C1105 C 0.96903 0.2439 0.24574 0.0
C1106 C 0.95251 0.24742 0.27956 0.0
C1107 C 0.97667 0.25613 0.30138 0.0
H1108 H 0.12522 0.95207 0.29698 0.0
H1109 H 0.25885 0.937 0.27383 0.0
H1110 H 0.14521 0.97302 0.26892 0.0
H1111 H 0.27785 0.95748 0.24408 0.0
H1112 H 0.3096 0.0003 0.21378 0.0
H1113 H 0.29448 0.97982 0.24564 0.0
H1114 H 0.15476 0.9814 0.21154 0.0
H1115 H 0.16965 0.00229 0.18148 0.0
C1116 C 0.15905 0.95328 0.28639 0.0
C1117 C 0.19023 0.94279 0.28752 0.0
C1118 C 0.17033 0.96522 0.26968 0.0
C1119 C 0.21282 0.96689 0.25322 0.0
C1120 C 0.24488 0.95667 0.25641 0.0
C1121 C 0.23388 0.94485 0.27359 0.0
C1122 C 0.27594 -0.00392 0.21238 0.0
C1123 C 0.24082 0.00288 0.19508 0.0
C1124 C 0.26711 0.98434 0.23087 0.0
C1125 C 0.22308 0.97901 0.23193 0.0
C1126 C 0.18872 0.9854 0.21247 0.0
C1127 C 0.19739 -0.00274 0.1946 0.0
H1128 H 0.85878 0.00297 0.0278 0.0
H1129 H 0.98268 0.02077 0.06577 0.0
H1130 H 0.9027 0.98623 -0.00356 0.0
H1131 H 0.02636 0.0047 0.03281 0.0
H1132 H 0.09532 0.96884 0.98318 0.0
H1133 H 0.05336 0.98375 0.02178 0.0
H1134 H 0.9452 0.98532 0.94432 0.0
H1135 H 0.98627 0.96976 0.90688 0.0
C1136 C 0.89531 0.00317 0.0301 0.0
C1137 C 0.91706 0.01336 0.04895 0.0
C1138 C 0.92064 -0.00628 0.01148 0.0
C1139 C 0.96831 -0.00566 0.01088 0.0
C1140 C 0.98987 0.00383 0.03235 0.0
C1141 C 0.9646 0.01311 0.05142 0.0
C1142 C 0.06306 0.97263 0.97404 0.0
C1143 C 0.04419 0.96818 0.9419 0.0
C1144 C 0.03871 0.98114 -0.00366 0.0
C1145 C 0.99523 0.98561 0.9867 0.0
C1146 C 0.97777 0.98177 0.95339 0.0
C1147 C 1.00172 0.97306 0.93147 0.0
H1148 H 0.25558 0.22449 0.04895 0.0
H1149 H 0.12027 0.21036 0.02773 0.0
H1150 H 0.2332 0.2466 0.02951 0.0
H1151 H 0.09857 0.23215 0.00691 0.0
H1152 H 0.06514 0.27575 0.98949 0.0
H1153 H 0.08334 0.25463 0.01735 0.0
H1154 H 0.21834 0.2566 0.97346 0.0
H1155 H 0.20057 0.27793 0.94683 0.0
C1156 C 0.22083 0.22615 0.04094 0.0
C1157 C 0.18992 0.2156 0.03955 0.0
C1158 C 0.20815 0.23878 0.02917 0.0
C1159 C 0.16435 0.24112 0.01565 0.0
C1160 C 0.13255 0.23079 0.01704 0.0
C1161 C 0.1451 0.21823 0.029 0.0
C1162 C 0.09844 0.27156 0.98526 0.0
C1163 C 0.13136 0.27852 0.96585 0.0
C1164 C 0.10902 0.25945 0.00144 0.0
C1165 C 0.15264 0.25396 -0.00174 0.0
C1166 C 0.18485 0.26068 0.97746 0.0
C1167 C 0.17443 0.27283 0.96164 0.0
H1168 H 0.97522 0.71199 0.69304 0.0
H1169 H 0.10596 0.69384 0.70933 0.0
H1170 H 1.00448 0.73281 0.71654 0.0
H1171 H 0.13462 0.71441 0.73397 0.0
H1172 H 0.17884 0.7573 0.75621 0.0
H1173 H 0.15546 0.73692 0.72711 0.0
H1174 H 0.02335 0.74034 0.77542 0.0
H1175 H 0.04627 0.76099 0.80364 0.0
C1176 C 0.01053 0.71253 0.70063 0.0
C1177 C 0.03806 0.70119 0.69965 0.0
C1178 C 0.0271 0.7244 0.71483 0.0
C1179 C 0.07152 0.72518 0.72829 0.0
C1180 C 0.1002 0.7142 0.72412 0.0
C1181 C 0.08373 0.70237 0.70982 0.0
C1182 C 0.14513 0.75355 0.76139 0.0
C1183 C 0.11436 0.76086 0.78217 0.0
C1184 C 0.1316 0.74188 0.74443 0.0
C1185 C 0.08709 0.73714 0.74808 0.0
C1186 C 0.05741 0.74393 0.77099 0.0
C1187 C 0.07083 0.75565 0.78776 0.0
H1188 H 0.80713 0.97807 0.81232 0.0
H1189 H 0.68703 0.96917 0.7515 0.0
H1190 H 0.83757 0.99047 0.76238 0.0
H1191 H 0.71826 0.98111 0.70068 0.0
H1192 H 0.7736 0.01649 0.63389 0.0
H1193 H 0.73846 0.00177 0.67656 0.0
H1194 H 0.87011 0.98668 0.70595 0.0
H1195 H 0.90555 0.00198 0.66443 0.0
C1196 C 0.78699 0.97892 0.78834 0.0
C1197 C 0.74462 0.97271 0.78591 0.0
C1198 C 0.8048 0.98581 0.75939 0.0
C1199 C 0.78105 0.98649 0.72698 0.0
C1200 C 0.7376 0.9808 0.72512 0.0
C1201 C 0.71947 0.97405 0.75438 0.0
C1202 C 0.79513 0.00976 0.64859 0.0
C1203 C 0.8426 0.01071 0.6464 0.0
C1204 C 0.77482 0.0013 0.6733 0.0
C1205 C 0.8015 -0.00659 0.69584 0.0
C1206 C 0.8486 -0.00694 0.69014 0.0
C1207 C 0.86896 0.00166 0.6658 0.0
H1208 H 0.62576 0.78849 0.02757 0.0
H1209 H 0.71237 0.80137 0.11354 0.0
H1210 H 0.64713 0.76556 0.03933 0.0
H1211 H 0.73298 0.77848 0.12561 0.0
H1212 H 0.79076 0.73596 0.11047 0.0
H1213 H 0.77301 0.75929 0.10165 0.0
H1214 H 0.63212 0.74938 0.08685 0.0
H1215 H 0.6498 0.72603 0.09514 0.0
C1216 C 0.64987 0.78647 0.04859 0.0
C1217 C 0.6672 0.79678 0.06967 0.0
C1218 C 0.66163 0.77331 0.05566 0.0
C1219 C 0.69111 0.77018 0.08385 0.0
C1220 C 0.7102 0.78054 0.10373 0.0
C1221 C 0.69835 0.79368 0.09676 0.0
C1222 C 0.75581 0.73876 0.10614 0.0
C1223 C 0.72178 0.72908 0.10321 0.0
C1224 C 0.74568 0.75215 0.10094 0.0
C1225 C 0.70133 0.75615 0.09272 0.0
C1226 C 0.66685 0.74657 0.09216 0.0
C1227 C 0.67692 0.73319 0.09741 0.0
H1228 H 0.40265 0.51641 0.76628 0.0
H1229 H 0.31955 0.5499 0.79563 0.0
H1230 H 0.34647 0.50147 0.79165 0.0
H1231 H 0.26326 0.53486 0.82096 0.0
H1232 H 0.15858 0.49809 0.81476 0.0
H1233 H 0.20896 0.51649 0.80011 0.0
H1234 H 0.31851 0.49681 0.85461 0.0
H1235 H 0.2684 0.47847 0.86927 0.0
C1236 C 0.37218 0.52058 0.77771 0.0
C1237 C 0.36566 0.53434 0.77898 0.0
C1238 C 0.34028 0.51204 0.79268 0.0
C1239 C 0.30096 0.51705 0.80892 0.0
C1240 C 0.29341 0.53076 0.80885 0.0
C1241 C 0.32561 0.53933 0.79425 0.0
C1242 C 0.1928 0.49798 0.82508 0.0
C1243 C 0.20979 0.48672 0.8426 0.0
C1244 C 0.22178 0.50846 0.81636 0.0
C1245 C 0.26795 0.50781 0.82518 0.0
C1246 C 0.28334 0.49736 0.84662 0.0
C1247 C 0.25447 0.48695 0.8554 0.0
H1248 H 0.15647 0.45881 0.39942 0.0
H1249 H 0.02407 0.44074 0.40387 0.0
H1250 H 0.13146 0.47587 0.44048 0.0
H1251 H 0.99994 0.45722 0.44667 0.0
H1252 H 0.958 0.49566 0.50139 0.0
H1253 H 0.9792 0.47846 0.45951 0.0
H1254 H 0.11628 0.4794 0.49996 0.0
H1255 H 0.09527 0.49722 0.54032 0.0
C1256 C 0.12202 0.45845 0.40918 0.0
C1257 C 0.09275 0.44814 0.39902 0.0
C1258 C 0.10776 0.46817 0.43321 0.0
C1259 C 0.06391 0.46782 0.44791 0.0
C1260 C 0.03387 0.45794 0.43605 0.0
C1261 C 0.04786 0.44838 0.41152 0.0
C1262 C 0.9924 0.49196 0.50192 0.0
C1263 C 0.025 0.49782 0.52409 0.0
C1264 C 0.00474 0.48209 0.4777 0.0
C1265 C 0.04983 0.47764 0.47556 0.0
C1266 C 0.08162 0.48287 0.49972 0.0
C1267 C 0.06945 0.49292 0.52343 0.0
H1268 H 0.30469 0.66821 0.44868 0.0
H1269 H 0.40115 0.70032 0.45225 0.0
H1270 H 0.2467 0.68343 0.4266 0.0
H1271 H 0.34323 0.71545 0.4299 0.0
H1272 H 0.25708 0.73257 0.3422 0.0
H1273 H 0.30594 0.71562 0.36745 0.0
H1274 H 0.20149 0.70514 0.44248 0.0
H1275 H 0.15231 0.72238 0.41746 0.0
C1276 C 0.31322 0.67858 0.44557 0.0
C1277 C 0.35762 0.68305 0.45208 0.0
C1278 C 0.28 0.68726 0.43285 0.0
C1279 C 0.29076 0.70053 0.42586 0.0
C1280 C 0.33429 0.70519 0.4345 0.0
C1281 C 0.3673 0.69657 0.44773 0.0
C1282 C 0.24391 0.72643 0.36345 0.0
C1283 C 0.20091 0.72893 0.37804 0.0
C1284 C 0.27219 0.71684 0.37821 0.0
C1285 C 0.25799 0.70937 0.40762 0.0
C1286 C 0.2134 0.71089 0.42004 0.0
C1287 C 0.18506 0.72064 0.40542 0.0
H1288 H 0.71229 0.46891 0.3238 0.0
H1289 H 0.84416 0.45181 0.30484 0.0
H1290 H 0.72666 0.48536 0.27794 0.0
H1291 H 0.85782 0.46796 0.25808 0.0
H1292 H 0.8848 0.51036 0.21405 0.0
H1293 H 0.87335 0.49074 0.25022 0.0
H1294 H 0.73416 0.48874 0.21538 0.0
H1295 H 0.74524 0.50877 0.18023 0.0
C1296 C 0.74429 0.46861 0.3098 0.0
C1297 C 0.7769 0.45893 0.31799 0.0
C1298 C 0.75233 0.47795 0.28306 0.0
C1299 C 0.79322 0.47792 0.26383 0.0
C1300 C 0.82605 0.46836 0.27236 0.0
C1301 C 0.81814 0.45906 0.29922 0.0
C1302 C 0.85212 0.50552 0.21315 0.0
C1303 C 0.81576 0.51128 0.19464 0.0
C1304 C 0.84546 0.49423 0.23408 0.0
C1305 C 0.80241 0.48834 0.23661 0.0
C1306 C 0.76734 0.49329 0.21505 0.0
C1307 C 0.77388 0.50466 0.19445 0.0
H1308 H 0.8835 0.22815 0.53143 0.0
H1309 H 0.7529 0.21293 0.56305 0.0
H1310 H 0.84627 0.24436 0.4935 0.0
H1311 H 0.71592 0.22862 0.52389 0.0
H1312 H 0.66313 0.2651 0.46287 0.0
H1313 H 0.69554 0.25021 0.50711 0.0
H1314 H 0.80966 0.24307 0.43775 0.0
H1315 H 0.77812 0.25843 0.39448 0.0
C1316 C 0.84687 0.22844 0.53094 0.0
C1317 C 0.82134 0.21908 0.5499 0.0
C1318 C 0.82545 0.23757 0.50863 0.0
C1319 C 0.77807 0.23748 0.50451 0.0
C1320 C 0.75242 0.22896 0.52609 0.0
C1321 C 0.77379 0.21995 0.54873 0.0
C1322 C 0.69447 0.26003 0.45669 0.0
C1323 C 0.71812 0.2629 0.42523 0.0
C1324 C 0.71333 0.25158 0.48222 0.0
C1325 C 0.75594 0.2457 0.47654 0.0
C1326 C 0.77766 0.2478 0.44371 0.0
C1327 C 0.75916 0.25638 0.41852 0.0
H1328 H 0.45111 0.30165 0.71647 0.0
H1329 H 0.57929 0.29038 0.76267 0.0
H1330 H 0.44201 0.27953 0.69254 0.0
H1331 H 0.56912 0.26793 0.74022 0.0
H1332 H 0.56598 0.23337 0.66483 0.0
H1333 H 0.57245 0.25599 0.68674 0.0
H1334 H 0.42764 0.25729 0.70271 0.0
H1335 H 0.42113 0.23498 0.67916 0.0
C1336 C 0.47685 0.29434 0.72242 0.0
C1337 C 0.51607 0.29785 0.74146 0.0
C1338 C 0.4716 0.28159 0.70859 0.0
C1339 C 0.50511 0.27189 0.71385 0.0
C1340 C 0.54316 0.2752 0.73465 0.0
C1341 C 0.54871 0.28804 0.74808 0.0
C1342 C 0.53543 0.23861 0.67225 0.0
C1343 C 0.49305 0.23235 0.67015 0.0
C1344 C 0.53918 0.25153 0.68541 0.0
C1345 C 0.50071 0.25847 0.69733 0.0
C1346 C 0.45808 0.25239 0.69365 0.0
C1347 C 0.45428 0.23954 0.67998 0.0
H1348 H 0.47121 0.00646 0.56967 0.0
H1349 H 0.59979 0.01575 0.5211 0.0
H1350 H 0.48291 0.98309 0.55613 0.0
H1351 H 0.61046 -0.00737 0.50608 0.0
H1352 H 0.6338 0.94799 0.50849 0.0
H1353 H 0.62565 0.97115 0.52496 0.0
H1354 H 0.48135 0.9685 0.50738 0.0
H1355 H 0.48944 0.94515 0.49253 0.0
C1356 C 0.50219 0.00352 0.55646 0.0
C1357 C 0.53448 0.01303 0.54651 0.0
C1358 C 0.50865 0.99011 0.54817 0.0
C1359 C 0.54733 0.9859 0.52937 0.0
C1360 C 0.58042 -0.00462 0.52079 0.0
C1361 C 0.57423 0.00872 0.52944 0.0
C1362 C 0.60041 0.9524 0.50759 0.0
C1363 C 0.56228 0.94468 0.49919 0.0
C1364 C 0.59566 0.96573 0.51713 0.0
C1365 C 0.5527 0.97177 0.51806 0.0
C1366 C 0.51484 0.96417 0.50802 0.0
C1367 C 0.51953 0.95079 0.49894 0.0
H1368 H 0.5351 0.72765 0.31113 0.0
H1369 H 0.40537 0.74172 0.34799 0.0
H1370 H 0.50131 0.72177 0.25423 0.0
H1371 H 0.37236 0.73673 0.29075 0.0
H1372 H 0.32069 0.7269 0.18058 0.0
H1373 H 0.34755 0.72516 0.24171 0.0
H1374 H 0.48251 0.73528 0.20661 0.0
H1375 H 0.45618 0.73622 0.14577 0.0
C1376 C 0.49906 0.72909 0.30755 0.0
C1377 C 0.47336 0.73551 0.33386 0.0
C1378 C 0.47976 0.72598 0.27458 0.0
C1379 C 0.43453 0.72942 0.26698 0.0
C1380 C 0.4074 0.73408 0.29508 0.0
C1381 C 0.42648 0.73691 0.3283 0.0
C1382 C 0.35611 0.72869 0.18597 0.0
C1383 C 0.38636 0.73132 0.15799 0.0
C1384 C 0.37162 0.72772 0.22115 0.0
C1385 C 0.41763 0.72974 0.2294 0.0
C1386 C 0.44727 0.73308 0.20148 0.0
C1387 C 0.43192 0.73386 0.1664 0.0
H1388 H 0.45931 0.50754 0.94972 0.0
H1389 H 0.59242 0.50393 -0.00421 0.0
H1390 H 0.4372 0.52241 -0.00249 0.0
H1391 H 0.56992 0.51781 0.04482 0.0
H1392 H 0.52665 0.54908 0.1232 0.0
H1393 H 0.55202 0.53632 0.0728 0.0
H1394 H 0.41464 0.52299 0.05463 0.0
H1395 H 0.38894 0.53691 0.10347 0.0
C1396 C 0.48415 0.51017 0.96971 0.0
C1397 C 0.52762 0.50456 0.96882 0.0
C1398 C 0.47119 0.51845 -0.00219 0.0
C1399 C 0.50105 0.52113 0.02623 0.0
C1400 C 0.54561 0.51622 0.02376 0.0
C1401 C 0.55883 0.50823 -0.00476 0.0
C1402 C 0.50181 0.54335 0.10862 0.0
C1403 C 0.45546 0.54435 0.11675 0.0
C1404 C 0.5165 0.53588 0.07952 0.0
C1405 C 0.48556 0.52867 0.05852 0.0
C1406 C 0.43958 0.5288 0.06877 0.0
C1407 C 0.42472 0.53661 0.09729 0.0
H1408 H 1.00376 0.31521 0.22398 0.0
H1409 H 0.14093 0.32795 0.24305 0.0
H1410 H 0.0072 0.32395 0.16416 0.0
H1411 H 0.14351 0.33791 0.18404 0.0
H1412 H 0.16073 0.32821 0.06562 0.0
H1413 H 0.15391 0.32924 0.12927 0.0
H1414 H 0.01165 0.33881 0.11882 0.0
H1415 H 0.01822 0.3367 0.05441 0.0
C1416 C 0.03412 0.32037 0.21568 0.0
C1417 C 0.07243 0.32068 0.23763 0.0
C1418 C 0.03608 0.32553 0.18133 0.0
C1419 C 0.0761 0.33143 0.16856 0.0
C1420 C 0.11271 0.33299 0.19226 0.0
C1421 C 0.11123 0.32741 0.2262 0.0
C1422 C 0.12812 0.33079 0.07681 0.0
C1423 C 0.08977 0.33205 0.05508 0.0
C1424 C 0.12419 0.33153 0.11364 0.0
C1425 C 0.08191 0.33386 0.12971 0.0
C1426 C 0.04445 0.33653 0.10761 0.0
C1427 C 0.0482 0.33543 0.07065 0.0
H1428 H 0.18015 0.91666 0.01767 0.0
H1429 H 0.03904 0.90653 0.00389 0.0
H1430 H 0.17803 0.90772 0.07769 0.0
H1431 H 0.0372 0.89746 0.06395 0.0
H1432 H 0.0448 0.9076 0.18704 0.0
H1433 H 0.04117 0.90887 0.12243 0.0
H1434 H 0.1678 0.88769 0.11479 0.0
H1435 H 0.17182 0.88653 0.17938 0.0
C1436 C 0.14893 0.91231 0.02718 0.0
C1437 C 0.10963 0.91248 0.00622 0.0
C1438 C 0.14779 0.90708 0.06148 0.0
C1439 C 0.10734 0.90195 0.0755 0.0
C1440 C 0.06868 0.90147 0.05388 0.0
C1441 C 0.06984 0.90665 0.0195 0.0
C1442 C 0.07125 0.90291 0.17159 0.0
C1443 C 0.10907 0.89723 0.18829 0.0
C1444 C 0.06909 0.90358 0.13455 0.0
C1445 C 0.10464 0.89857 0.11368 0.0
C1446 C 0.14039 0.89185 0.13032 0.0
C1447 C 0.14257 0.89117 0.1673 0.0
H1448 H 0.93205 0.69594 0.80991 0.0
H1449 H 0.83175 0.66552 0.79339 0.0
H1450 H 0.89538 0.70236 0.86518 0.0
H1451 H 0.79604 0.6714 0.85011 0.0
H1452 H 0.73252 0.68883 0.95008 0.0
H1453 H 0.7564 0.68704 0.88804 0.0
H1454 H 0.89583 0.69143 0.92089 0.0
H1455 H 0.87211 0.69365 0.98212 0.0
C1456 C 0.90178 0.69072 0.81816 0.0
C1457 C 0.88489 0.68014 0.79805 0.0
C1458 C 0.88095 0.69432 0.84983 0.0
C1459 C 0.84358 0.68715 0.8625 0.0
C1460 C 0.82476 0.67713 0.84103 0.0
C1461 C 0.84517 0.67371 0.80873 0.0
C1462 C 0.76822 0.68955 0.94388 0.0
C1463 C 0.80046 0.69137 0.97097 0.0
C1464 C 0.78185 0.68847 0.90841 0.0
C1465 C 0.82793 0.68917 0.8995 0.0
C1466 C 0.85995 0.69116 0.92665 0.0
C1467 C 0.84637 0.69232 0.9619 0.0
H1468 H 0.82042 0.04546 0.75116 0.0
H1469 H 0.95566 0.06117 0.76091 0.0
H1470 H 0.80979 0.04749 0.81485 0.0
H1471 H 0.94418 0.06419 0.82464 0.0
H1472 H 0.93092 0.05137 0.94012 0.0
H1473 H 0.94078 0.05211 0.87627 0.0
H1474 H 0.79826 0.06088 0.86355 0.0
H1475 H 0.78812 0.05914 0.92778 0.0
C1476 C 0.84758 0.04961 0.76701 0.0
C1477 C 0.88896 0.05309 0.75133 0.0
C1478 C 0.84137 0.05091 0.80356 0.0
C1479 C 0.87606 0.05603 0.82517 0.0
C1480 C 0.91702 0.05993 0.80908 0.0
C1481 C 0.92363 0.05829 0.77257 0.0
C1482 C 0.90177 0.05357 0.92365 0.0
C1483 C 0.8587 0.05513 0.93877 0.0
C1484 C 0.90746 0.0541 0.88693 0.0
C1485 C 0.87035 0.05653 0.86445 0.0
C1486 C 0.82748 0.05866 0.87986 0.0
C1487 C 0.82161 0.05778 0.91665 0.0
H1488 H 0.08343 0.79247 0.66747 0.0
H1489 H 0.2251 0.80224 0.65634 0.0
H1490 H 0.07997 0.78621 0.60579 0.0
H1491 H 0.22099 0.79674 0.59308 0.0
H1492 H 0.21203 0.77006 0.49521 0.0
H1493 H 0.21641 0.7783 0.55594 0.0
H1494 H 0.07881 0.79268 0.54742 0.0
H1495 H 0.0738 0.78355 0.48764 0.0
C1496 C 0.11371 0.79362 0.65154 0.0
C1497 C 0.15466 0.79782 0.66686 0.0
C1498 C 0.11161 0.79009 0.61587 0.0
C1499 C 0.15016 0.79093 0.59419 0.0
C1500 C 0.1908 0.7957 0.60913 0.0
C1501 C 0.19315 0.79898 0.64526 0.0
C1502 C 0.18267 0.77489 0.50661 0.0
C1503 C 0.14238 0.77604 0.4871 0.0
C1504 C 0.18533 0.77979 0.54123 0.0
C1505 C 0.14804 0.78622 0.55676 0.0
C1506 C 0.10793 0.78753 0.53677 0.0
C1507 C 0.10495 0.78232 0.50248 0.0
H1508 H 0.06462 0.45259 0.69494 0.0
H1509 H 0.19944 0.46892 0.69001 0.0
H1510 H 0.06234 0.45141 0.63042 0.0
H1511 H 0.19644 0.46852 0.62529 0.0
H1512 H 0.20361 0.44236 0.5243 0.0
H1513 H 0.20313 0.4514 0.58406 0.0
H1514 H 0.06072 0.46056 0.57345 0.0
H1515 H 0.06073 0.45066 0.51457 0.0
C1516 C 0.09318 0.45632 0.67992 0.0
C1517 C 0.13251 0.46058 0.69729 0.0
C1518 C 0.09186 0.45575 0.64285 0.0
C1519 C 0.12959 0.45967 0.62251 0.0
C1520 C 0.16733 0.46505 0.64008 0.0
C1521 C 0.16899 0.46535 0.67713 0.0
C1522 C 0.1724 0.44649 0.53454 0.0
C1523 C 0.13208 0.44557 0.51505 0.0
C1524 C 0.17212 0.45181 0.56878 0.0
C1525 C 0.13163 0.45654 0.58394 0.0
C1526 C 0.09218 0.45665 0.56309 0.0
C1527 C 0.09227 0.45106 0.5292 0.0
H1528 H 0.75782 0.17772 0.29134 0.0
H1529 H 0.88081 0.15613 0.26849 0.0
H1530 H 0.77093 0.17464 0.35481 0.0
H1531 H 0.89356 0.15301 0.33189 0.0
H1532 H 0.9331 0.1741 0.4391 0.0
H1533 H 0.91551 0.17 0.37678 0.0
H1534 H 0.77928 0.15881 0.40545 0.0
H1535 H 0.79662 0.16297 0.46782 0.0
C1536 C 0.787 0.17204 0.29979 0.0
C1537 C 0.8187 0.16739 0.27492 0.0
C1538 C 0.79442 0.17023 0.33614 0.0
C1539 C 0.83364 0.16375 0.3482 0.0
C1540 C 0.86347 0.15823 0.32328 0.0
C1541 C 0.85601 0.16 0.28698 0.0
C1542 C 0.89966 0.17054 0.43222 0.0
C1543 C 0.86613 0.16904 0.45834 0.0
C1544 C 0.88965 0.1681 0.39654 0.0
C1545 C 0.8459 0.16417 0.38632 0.0
C1546 C 0.8131 0.16197 0.41261 0.0
C1547 C 0.82317 0.16432 0.44831 0.0
H1548 H 1.00075 0.55221 0.43961 0.0
H1549 H 0.86597 0.55489 0.48344 0.0
H1550 H 0.97241 0.55891 0.38213 0.0
H1551 H 0.83756 0.56247 0.42602 0.0
H1552 H 0.79916 0.55164 0.31012 0.0
H1553 H 0.82172 0.55241 0.37204 0.0
H1554 H 0.94247 0.5741 0.34287 0.0
H1555 H 0.92103 0.57244 0.28043 0.0
C1556 C 0.96515 0.5546 0.43715 0.0
C1557 C 0.93543 0.55282 0.46583 0.0
C1558 C 0.94884 0.5586 0.40413 0.0
C1559 C 0.90248 0.56116 0.39914 0.0
C1560 C 0.87326 0.56027 0.42861 0.0
C1561 C 0.88951 0.55599 0.46156 0.0
C1562 C 0.8301 0.55679 0.31706 0.0
C1563 C 0.85885 0.56175 0.29057 0.0
C1564 C 0.84298 0.55733 0.3527 0.0
C1565 C 0.88445 0.56311 0.36259 0.0
C1566 C 0.91104 0.56919 0.33617 0.0
C1567 C 0.8987 0.56833 0.30043 0.0
H1568 H 0.60374 0.33276 0.45501 0.0
H1569 H 0.72181 0.31464 0.50162 0.0
H1570 H 0.58967 0.34474 0.51017 0.0
H1571 H 0.70599 0.32555 0.55777 0.0
H1572 H 0.67476 0.34529 0.65806 0.0
H1573 H 0.69941 0.34293 0.59648 0.0
H1574 H 0.55948 0.33939 0.5636 0.0
H1575 H 0.53543 0.34273 0.62405 0.0
C1576 C 0.62662 0.33138 0.47722 0.0
C1577 C 0.66341 0.3227 0.47449 0.0
C1578 C 0.61851 0.33816 0.50894 0.0
C1579 C 0.64599 0.33594 0.539 0.0
C1580 C 0.68425 0.32773 0.53535 0.0
C1581 C 0.69318 0.32132 0.50324 0.0
C1582 C 0.64944 0.34438 0.63736 0.0
C1583 C 0.60324 0.34399 0.64591 0.0
C1584 C 0.6635 0.34289 0.60208 0.0
C1585 C 0.63163 0.34063 0.57485 0.0
C1586 C 0.58531 0.34124 0.58337 0.0
C1587 C 0.57134 0.34306 0.61837 0.0
H1588 H 0.55939 0.90113 0.62806 0.0
H1589 H 0.69281 0.88919 0.59391 0.0
H1590 H 0.58364 0.90054 0.68917 0.0
H1591 H 0.71687 0.8877 0.65585 0.0
H1592 H 0.75561 0.91445 0.75216 0.0
H1593 H 0.73651 0.90346 0.69704 0.0
H1594 H 0.60767 0.89163 0.74172 0.0
H1595 H 0.62581 0.90373 0.79599 0.0
C1596 C 0.59367 0.89797 0.63376 0.0
C1597 C 0.62456 0.89555 0.60623 0.0
C1598 C 0.6076 0.89745 0.66907 0.0
C1599 C 0.65263 0.89424 0.67778 0.0
C1600 C 0.68234 0.89058 0.65019 0.0
C1601 C 0.66859 0.8914 0.6147 0.0
C1602 C 0.72377 0.90916 0.75051 0.0
C1603 C 0.69159 0.91022 0.77773 0.0
C1604 C 0.71277 0.90274 0.71885 0.0
C1605 C 0.66972 0.89701 0.71426 0.0
C1606 C 0.64032 0.89644 0.7437 0.0
C1607 C 0.65077 0.90324 0.77492 0.0
H1608 H 0.503 0.64538 0.32794 0.0
H1609 H 0.53859 0.68371 0.37092 0.0
H1610 H 0.49029 0.65546 0.26996 0.0
H1611 H 0.52586 0.69371 0.31268 0.0
H1612 H 0.49768 0.7039 0.1906 0.0
H1613 H 0.53941 0.69332 0.23947 0.0
H1614 H 0.4184 0.67224 0.26978 0.0
H1615 H 0.37662 0.68291 0.22186 0.0
C1616 C 0.51019 0.65583 0.32466 0.0
C1617 C 0.52028 0.66383 0.3542 0.0
C1618 C 0.50276 0.66159 0.29151 0.0
C1619 C 0.50591 0.67536 0.28743 0.0
C1620 C 0.52301 0.68306 0.31541 0.0
C1621 C 0.53038 0.6773 0.34872 0.0
C1622 C 0.48014 0.69699 0.20777 0.0
C1623 C 0.434 0.69415 0.20243 0.0
C1624 C 0.50401 0.69096 0.23552 0.0
C1625 C 0.48225 0.68177 0.25758 0.0
C1626 C 0.43609 0.67909 0.25248 0.0
C1627 C 0.41209 0.68529 0.22536 0.0
H1628 H 0.37203 0.06489 0.46466 0.0
H1629 H 0.49511 0.05296 0.41175 0.0
H1630 H 0.3344 0.06707 0.40735 0.0
H1631 H 0.45703 0.05429 0.35459 0.0
H1632 H 0.38726 0.06227 0.25288 0.0
H1633 H 0.42405 0.06687 0.30958 0.0
H1634 H 0.30514 0.05271 0.36495 0.0
H1635 H 0.26779 0.04894 0.30845 0.0
C1636 C 0.39094 0.06272 0.44068 0.0
C1637 C 0.43623 0.05863 0.44248 0.0
C1638 C 0.36939 0.06391 0.40786 0.0
C1639 C 0.39243 0.0607 0.37628 0.0
C1640 C 0.43833 0.05705 0.3782 0.0
C1641 C 0.46014 0.05617 0.41098 0.0
C1642 C 0.36888 0.06038 0.27728 0.0
C1643 C 0.32491 0.05515 0.27641 0.0
C1644 C 0.38999 0.06292 0.30975 0.0
C1645 C 0.36787 0.06 0.34192 0.0
C1646 C 0.32309 0.05529 0.34084 0.0
C1647 C 0.30168 0.05302 0.30841 0.0
H1648 H 0.5003 0.84244 0.16918 0.0
H1649 H 0.47856 0.80915 0.09909 0.0
H1650 H 0.47781 0.82893 0.21975 0.0
H1651 H 0.45702 0.79558 0.14986 0.0
H1652 H 0.55195 0.77899 0.24479 0.0
H1653 H 0.52854 0.79135 0.19211 0.0
H1654 H 0.42594 0.81142 0.25355 0.0
H1655 H 0.44872 0.79888 0.30626 0.0
C1656 C 0.48811 0.83248 0.16433 0.0
C1657 C 0.49261 0.82668 0.13056 0.0
C1658 C 0.47533 0.82472 0.1933 0.0
C1659 C 0.46729 0.81114 0.18859 0.0
C1660 C 0.46386 0.806 0.15402 0.0
C1661 C 0.47587 0.81383 0.12494 0.0
C1662 C 0.52415 0.78594 0.24695 0.0
C1663 C 0.50251 0.7881 0.27958 0.0
C1664 C 0.51023 0.79284 0.21675 0.0
C1665 C 0.47493 0.80215 0.21883 0.0
C1666 C 0.45275 0.80416 0.25129 0.0
C1667 C 0.46609 0.79706 0.28136 0.0
H1668 H 0.55023 0.46535 0.06497 0.0
H1669 H 0.68022 0.45248 0.02537 0.0
H1670 H 0.57806 0.46375 0.12559 0.0
H1671 H 0.70754 0.45016 0.08621 0.0
H1672 H 0.7577 0.4565 0.19724 0.0
H1673 H 0.72959 0.462 0.13796 0.0
H1674 H 0.59688 0.44769 0.16764 0.0
H1675 H 0.62431 0.44286 0.22684 0.0
C1676 C 0.58453 0.46193 0.06931 0.0
C1677 C 0.61297 0.4589 0.04055 0.0
C1678 C 0.60053 0.46102 0.10406 0.0
C1679 C 0.64505 0.45682 0.11083 0.0
C1680 C 0.67337 0.45369 0.08196 0.0
C1681 C 0.65758 0.45483 0.04713 0.0
C1682 C 0.72238 0.45475 0.19109 0.0
C1683 C 0.69329 0.44914 0.21643 0.0
C1684 C 0.70635 0.45779 0.15713 0.0
C1685 C 0.66114 0.45509 0.14786 0.0
C1686 C 0.63173 0.45005 0.17388 0.0
C1687 C 0.64753 0.44722 0.20787 0.0
H1688 H 0.3702 0.17114 0.74923 0.0
H1689 H 0.48186 0.19166 0.7987 0.0
H1690 H 0.33675 0.16718 0.80732 0.0
H1691 H 0.44715 0.18841 0.85698 0.0
H1692 H 0.38269 0.17437 0.96022 0.0
H1693 H 0.42382 0.174 0.90381 0.0
H1694 H 0.29833 0.18091 0.84752 0.0
H1695 H 0.2575 0.18066 0.90321 0.0
C1696 C 0.38755 0.17478 0.77268 0.0
C1697 C 0.42816 0.18185 0.76967 0.0
C1698 C 0.36833 0.17259 0.80591 0.0
C1699 C 0.38873 0.17775 0.83674 0.0
C1700 C 0.43067 0.18425 0.83382 0.0
C1701 C 0.45045 0.18617 0.80049 0.0
C1702 C 0.36406 0.17572 0.93567 0.0
C1703 C 0.31693 0.17748 0.93603 0.0
C1704 C 0.38758 0.17555 0.90343 0.0
C1705 C 0.36434 0.17729 0.87111 0.0
C1706 C 0.31722 0.17915 0.87175 0.0
C1707 C 0.29377 0.17913 0.90376 0.0
H1708 H 0.55542 0.56829 0.03197 0.0
H1709 H 0.43693 0.54862 0.98994 0.0
H1710 H 0.59615 0.56353 0.97699 0.0
H1711 H 0.47801 0.54369 0.93549 0.0
H1712 H 0.54657 0.53509 0.84092 0.0
H1713 H 0.54784 0.53251 0.90546 0.0
H1714 H 0.57394 0.57436 0.91701 0.0
H1715 H 0.57158 0.57696 0.85277 0.0
C1716 C 0.53826 0.56276 0.01129 0.0
C1717 C 0.49253 0.5591 0.01493 0.0
C1718 C 0.56185 0.55992 0.98006 0.0
C1719 C 0.54035 0.55319 0.95219 0.0
C1720 C 0.49568 0.54873 0.95681 0.0
C1721 C 0.47188 0.55174 0.98777 0.0
C1722 C 0.55534 0.54357 0.85717 0.0
C1723 C 0.55782 0.55629 0.84217 0.0
C1724 C 0.55575 0.5421 0.8941 0.0
C1725 C 0.55972 0.5533 0.91603 0.0
C1726 C 0.57059 0.56557 0.90069 0.0
C1727 C 0.56928 0.56708 0.86387 0.0
loop_
_geom_bond_atom_site_label_1
_geom_bond_atom_site_label_2
_geom_bond_distance
_geom_bond_site_symmetry_2
_ccdc_geom_bond_type
Zn0 O3 2.031 . S
Zn0 O5 2.049 . S
Zn0 O10 2.067 . S
Zn1 O2 1.962 . S
Zn1 O4 1.986 . S
Zn1 O6 1.996 . S
Zn1 O9 1.943 . S
O2 Zn1 1.962 . S
O2 C7 1.254 . S
O3 Zn0 2.031 . S
O3 C7 1.269 . S
O4 Zn1 1.986 . S
O4 C11 1.262 . S
O5 Zn0 2.049 . S
O5 C13 1.260 . S
O6 Zn1 1.996 . S
O6 C13 1.257 . S
C7 O2 1.254 . S
C7 O3 1.269 . S
C8 O9 1.249 . S
C8 O10 1.270 . S
O9 Zn1 1.943 . S
O9 C8 1.249 . S
O10 Zn0 2.067 . S
O10 C8 1.270 . S
C11 O4 1.262 . S
C11 O12 1.232 . S
O12 C11 1.232 . S
C13 O5 1.260 . S
C13 O6 1.257 . S
Zn14 O17 2.031 . S
Zn14 O19 2.049 . S
Zn14 O24 2.067 . S
Zn15 O16 1.962 . S
Zn15 O18 1.986 . S
Zn15 O20 1.996 . S
Zn15 O23 1.943 . S
O16 Zn15 1.962 . S
O16 C21 1.254 . S
O17 Zn14 2.031 . S
O17 C21 1.269 . S
O18 Zn15 1.986 . S
O18 C25 1.262 . S
O19 Zn14 2.049 . S
O19 C27 1.260 . S
O20 Zn15 1.996 . S
O20 C27 1.257 . S
C21 O16 1.254 . S
C21 O17 1.269 . S
C22 O23 1.249 . S
C22 O24 1.270 . S
O23 Zn15 1.943 . S
O23 C22 1.249 . S
O24 Zn14 2.067 . S
O24 C22 1.270 . S
C25 O18 1.262 . S
C25 O26 1.232 . S
O26 C25 1.232 . S
C27 O19 1.260 . S
C27 O20 1.257 . S
Zn28 O31 2.031 . S
Zn28 O33 2.049 . S
Zn28 O38 2.064 1_556 S
Zn29 O30 1.962 . S
Zn29 O32 1.986 . S
Zn29 O34 1.996 . S
Zn29 O37 1.943 . S
O30 Zn29 1.962 . S
O30 C35 1.254 . S
O31 Zn28 2.031 . S
O31 C35 1.269 . S
O32 Zn29 1.986 . S
O32 C39 1.262 . S
O33 Zn28 2.049 . S
O33 C41 1.260 . S
O34 Zn29 1.996 . S
O34 C41 1.257 . S
C35 O30 1.254 . S
C35 O31 1.269 . S
C36 O37 1.249 1_554 S
C36 O38 1.271 . S
O37 Zn29 1.943 . S
O37 C36 1.249 1_556 S
O38 Zn28 2.064 1_554 S
O38 C36 1.271 . S
C39 O32 1.262 . S
C39 O40 1.232 . S
O40 C39 1.232 . S
C41 O33 1.260 . S
C41 O34 1.257 . S
Zn42 O45 2.031 . S
Zn42 O47 2.049 . S
Zn42 O52 2.065 1_556 S
Zn43 O44 1.962 . S
Zn43 O46 1.986 . S
Zn43 O48 1.996 . S
Zn43 O51 1.943 . S
O44 Zn43 1.962 . S
O44 C49 1.254 . S
O45 Zn42 2.031 . S
O45 C49 1.269 . S
O46 Zn43 1.986 . S
O46 C53 1.262 . S
O47 Zn42 2.049 . S
O47 C55 1.260 . S
O48 Zn43 1.996 . S
O48 C55 1.257 . S
C49 O44 1.254 . S
C49 O45 1.269 . S
C50 O51 1.249 1_554 S
C50 O52 1.271 . S
O51 Zn43 1.943 . S
O51 C50 1.249 1_556 S
O52 Zn42 2.065 1_554 S
O52 C50 1.271 . S
C53 O46 1.262 . S
C53 O54 1.232 . S
O54 C53 1.232 . S
C55 O47 1.260 . S
C55 O48 1.257 . S
Zn56 O59 2.031 . S
Zn56 O61 2.049 . S
Zn56 O66 2.067 . S
Zn57 O58 1.962 . S
Zn57 O60 1.986 . S
Zn57 O62 1.996 . S
Zn57 O65 1.943 . S
O58 Zn57 1.962 . S
O58 C63 1.254 . S
O59 Zn56 2.031 . S
O59 C63 1.269 . S
O60 Zn57 1.986 . S
O60 C67 1.262 . S
O61 Zn56 2.049 . S
O61 C69 1.260 . S
O62 Zn57 1.996 . S
O62 C69 1.257 . S
C63 O58 1.254 . S
C63 O59 1.269 . S
C64 O65 1.249 . S
C64 O66 1.270 . S
O65 Zn57 1.943 . S
O65 C64 1.249 . S
O66 Zn56 2.067 . S
O66 C64 1.270 . S
C67 O60 1.262 . S
C67 O68 1.232 . S
O68 C67 1.232 . S
C69 O61 1.260 . S
C69 O62 1.257 . S
Zn70 O73 2.031 . S
Zn70 O75 2.049 . S
Zn70 O80 2.067 . S
Zn71 O72 1.962 . S
Zn71 O74 1.986 . S
Zn71 O76 1.996 . S
Zn71 O79 1.943 . S
O72 Zn71 1.962 . S
O72 C77 1.254 . S
O73 Zn70 2.031 . S
O73 C77 1.269 . S
O74 Zn71 1.986 . S
O74 C81 1.262 . S
O75 Zn70 2.049 . S
O75 C83 1.260 . S
O76 Zn71 1.996 . S
O76 C83 1.257 . S
C77 O72 1.254 . S
C77 O73 1.269 . S
C78 O79 1.249 . S
C78 O80 1.270 . S
O79 Zn71 1.943 . S
O79 C78 1.249 . S
O80 Zn70 2.067 . S
O80 C78 1.270 . S
C81 O74 1.262 . S
C81 O82 1.232 . S
O82 C81 1.232 . S
C83 O75 1.260 . S
C83 O76 1.257 . S
Zn84 O87 2.031 . S
Zn84 O89 2.049 . S
Zn84 O94 2.064 1_554 S
Zn85 O86 1.962 . S
Zn85 O88 1.986 . S
Zn85 O90 1.996 . S
Zn85 O93 1.943 . S
O86 Zn85 1.962 . S
O86 C91 1.254 . S
O87 Zn84 2.031 . S
O87 C91 1.269 . S
O88 Zn85 1.986 . S
O88 C95 1.262 . S
O89 Zn84 2.049 . S
O89 C97 1.260 . S
O90 Zn85 1.996 . S
O90 C97 1.257 . S
C91 O86 1.254 . S
C91 O87 1.269 . S
C92 O93 1.249 1_556 S
C92 O94 1.271 . S
O93 Zn85 1.943 . S
O93 C92 1.249 1_554 S
O94 Zn84 2.064 1_556 S
O94 C92 1.271 . S
C95 O88 1.262 . S
C95 O96 1.232 . S
O96 C95 1.232 . S
C97 O89 1.260 . S
C97 O90 1.257 . S
Zn98 O101 2.031 . S
Zn98 O103 2.049 . S
Zn98 O108 2.065 1_554 S
Zn99 O100 1.962 . S
Zn99 O102 1.986 . S
Zn99 O104 1.996 . S
Zn99 O107 1.943 . S
O100 Zn99 1.962 . S
O100 C105 1.254 . S
O101 Zn98 2.031 . S
O101 C105 1.269 . S
O102 Zn99 1.986 . S
O102 C109 1.262 . S
O103 Zn98 2.049 . S
O103 C111 1.260 . S
O104 Zn99 1.996 . S
O104 C111 1.257 . S
C105 O100 1.254 . S
C105 O101 1.269 . S
C106 O107 1.249 1_556 S
C106 O108 1.271 . S
O107 Zn99 1.943 . S
O107 C106 1.249 1_554 S
O108 Zn98 2.065 1_556 S
O108 C106 1.271 . S
C109 O102 1.262 . S
C109 O110 1.232 . S
O110 C109 1.232 . S
C111 O103 1.260 . S
C111 O104 1.257 . S
Zn112 O115 2.031 . S
Zn112 O117 2.049 . S
Zn112 O122 2.067 . S
Zn113 O114 1.962 . S
Zn113 O116 1.986 . S
Zn113 O118 1.996 . S
Zn113 O121 1.943 . S
O114 Zn113 1.962 . S
O114 C119 1.254 . S
O115 Zn112 2.031 . S
O115 C119 1.269 . S
O116 Zn113 1.986 . S
O116 C123 1.262 . S
O117 Zn112 2.049 . S
O117 C125 1.260 . S
O118 Zn113 1.996 . S
O118 C125 1.257 . S
C119 O114 1.254 . S
C119 O115 1.269 . S
C120 O121 1.249 . S
C120 O122 1.270 . S
O121 Zn113 1.943 . S
O121 C120 1.249 . S
O122 Zn112 2.067 . S
O122 C120 1.270 . S
C123 O116 1.262 . S
C123 O124 1.232 . S
O124 C123 1.232 . S
C125 O117 1.260 . S
C125 O118 1.257 . S
Zn126 O129 2.031 . S
Zn126 O131 2.049 . S
Zn126 O136 2.067 . S
Zn127 O128 1.962 . S
Zn127 O130 1.986 . S
Zn127 O132 1.996 . S
Zn127 O135 1.943 . S
O128 Zn127 1.962 . S
O128 C133 1.254 . S
O129 Zn126 2.031 . S
O129 C133 1.269 . S
O130 Zn127 1.986 . S
O130 C137 1.262 . S
O131 Zn126 2.049 . S
O131 C139 1.260 . S
O132 Zn127 1.996 . S
O132 C139 1.257 . S
C133 O128 1.254 . S
C133 O129 1.269 . S
C134 O135 1.249 . S
C134 O136 1.270 . S
O135 Zn127 1.943 . S
O135 C134 1.249 . S
O136 Zn126 2.067 . S
O136 C134 1.270 . S
C137 O130 1.262 . S
C137 O138 1.232 . S
O138 C137 1.232 . S
C139 O131 1.260 . S
C139 O132 1.257 . S
Zn140 O143 2.031 . S
Zn140 O145 2.049 . S
Zn140 O150 2.067 . S
Zn141 O142 1.962 . S
Zn141 O144 1.986 . S
Zn141 O146 1.996 . S
Zn141 O149 1.943 . S
O142 Zn141 1.962 . S
O142 C147 1.254 . S
O143 Zn140 2.031 . S
O143 C147 1.269 . S
O144 Zn141 1.986 . S
O144 C151 1.262 . S
O145 Zn140 2.049 . S
O145 C153 1.260 . S
O146 Zn141 1.996 . S
O146 C153 1.257 . S
C147 O142 1.254 . S
C147 O143 1.269 . S
C148 O149 1.249 . S
C148 O150 1.270 . S
O149 Zn141 1.943 . S
O149 C148 1.249 . S
O150 Zn140 2.067 . S
O150 C148 1.270 . S
C151 O144 1.262 . S
C151 O152 1.232 . S
O152 C151 1.232 . S
C153 O145 1.260 . S
C153 O146 1.257 . S
Zn154 O157 2.031 . S
Zn154 O159 2.049 . S
Zn154 O164 2.067 . S
Zn155 O156 1.962 . S
Zn155 O158 1.986 . S
Zn155 O160 1.996 . S
Zn155 O163 1.943 . S
O156 Zn155 1.962 . S
O156 C161 1.254 . S
O157 Zn154 2.031 . S
O157 C161 1.269 . S
O158 Zn155 1.986 . S
O158 C165 1.262 . S
O159 Zn154 2.049 . S
O159 C167 1.260 . S
O160 Zn155 1.996 . S
O160 C167 1.257 . S
C161 O156 1.254 . S
C161 O157 1.269 . S
C162 O163 1.249 . S
C162 O164 1.270 . S
O163 Zn155 1.943 . S
O163 C162 1.249 . S
O164 Zn154 2.067 . S
O164 C162 1.270 . S
C165 O158 1.262 . S
C165 O166 1.232 . S
O166 C165 1.232 . S
C167 O159 1.260 . S
C167 O160 1.257 . S
Zn168 O171 2.031 . S
Zn168 O173 2.049 . S
Zn168 O178 2.067 . S
Zn169 O170 1.962 . S
Zn169 O172 1.986 . S
Zn169 O174 1.996 . S
Zn169 O177 1.943 . S
O170 Zn169 1.962 . S
O170 C175 1.254 . S
O171 Zn168 2.031 . S
O171 C175 1.269 . S
O172 Zn169 1.986 . S
O172 C179 1.262 . S
O173 Zn168 2.049 . S
O173 C181 1.260 . S
O174 Zn169 1.996 . S
O174 C181 1.257 . S
C175 O170 1.254 . S
C175 O171 1.269 . S
C176 O177 1.249 . S
C176 O178 1.270 . S
O177 Zn169 1.943 . S
O177 C176 1.249 . S
O178 Zn168 2.067 . S
O178 C176 1.270 . S
C179 O172 1.262 . S
C179 O180 1.232 . S
O180 C179 1.232 . S
C181 O173 1.260 . S
C181 O174 1.257 . S
Zn182 O185 2.031 . S
Zn182 O187 2.049 . S
Zn182 O192 2.067 . S
Zn183 O184 1.962 . S
Zn183 O186 1.986 . S
Zn183 O188 1.996 . S
Zn183 O191 1.943 . S
O184 Zn183 1.962 . S
O184 C189 1.254 . S
O185 Zn182 2.031 . S
O185 C189 1.269 . S
O186 Zn183 1.986 . S
O186 C193 1.262 . S
O187 Zn182 2.049 . S
O187 C195 1.260 . S
O188 Zn183 1.996 . S
O188 C195 1.257 . S
C189 O184 1.254 . S
C189 O185 1.269 . S
C190 O191 1.249 . S
C190 O192 1.270 . S
O191 Zn183 1.943 . S
O191 C190 1.249 . S
O192 Zn182 2.067 . S
O192 C190 1.270 . S
C193 O186 1.262 . S
C193 O194 1.232 . S
O194 C193 1.232 . S
C195 O187 1.260 . S
C195 O188 1.257 . S
Zn196 O199 2.031 . S
Zn196 O201 2.049 . S
Zn196 O206 2.067 . S
Zn197 O198 1.962 . S
Zn197 O200 1.986 . S
Zn197 O202 1.996 . S
Zn197 O205 1.943 . S
O198 Zn197 1.962 . S
O198 C203 1.254 . S
O199 Zn196 2.031 . S
O199 C203 1.269 . S
O200 Zn197 1.986 . S
O200 C207 1.262 . S
O201 Zn196 2.049 . S
O201 C209 1.260 . S
O202 Zn197 1.996 . S
O202 C209 1.257 . S
C203 O198 1.254 . S
C203 O199 1.269 . S
C204 O205 1.249 . S
C204 O206 1.270 . S
O205 Zn197 1.943 . S
O205 C204 1.249 . S
O206 Zn196 2.067 . S
O206 C204 1.270 . S
C207 O200 1.262 . S
C207 O208 1.232 . S
O208 C207 1.232 . S
C209 O201 1.260 . S
C209 O202 1.257 . S
Zn210 O213 2.031 . S
Zn210 O215 2.049 . S
Zn210 O220 2.067 . S
Zn211 O212 1.962 . S
Zn211 O214 1.986 . S
Zn211 O216 1.996 . S
Zn211 O219 1.943 . S
O212 Zn211 1.962 . S
O212 C217 1.254 . S
O213 Zn210 2.031 . S
O213 C217 1.269 . S
O214 Zn211 1.986 . S
O214 C221 1.262 . S
O215 Zn210 2.049 . S
O215 C223 1.260 . S
O216 Zn211 1.996 . S
O216 C223 1.257 . S
C217 O212 1.254 . S
C217 O213 1.269 . S
C218 O219 1.249 . S
C218 O220 1.270 . S
O219 Zn211 1.943 . S
O219 C218 1.249 . S
O220 Zn210 2.067 . S
O220 C218 1.270 . S
C221 O214 1.262 . S
C221 O222 1.232 . S
O222 C221 1.232 . S
C223 O215 1.260 . S
C223 O216 1.257 . S
Zn224 O227 2.031 . S
Zn224 O229 2.049 . S
Zn224 O234 2.067 . S
Zn225 O226 1.962 . S
Zn225 O228 1.986 . S
Zn225 O230 1.996 . S
Zn225 O233 1.943 . S
O226 Zn225 1.962 . S
O226 C231 1.254 . S
O227 Zn224 2.031 . S
O227 C231 1.269 . S
O228 Zn225 1.986 . S
O228 C235 1.262 . S
O229 Zn224 2.049 . S
O229 C237 1.260 . S
O230 Zn225 1.996 . S
O230 C237 1.257 . S
C231 O226 1.254 . S
C231 O227 1.269 . S
C232 O233 1.249 . S
C232 O234 1.270 . S
O233 Zn225 1.943 . S
O233 C232 1.249 . S
O234 Zn224 2.067 . S
O234 C232 1.270 . S
C235 O228 1.262 . S
C235 O236 1.232 . S
O236 C235 1.232 . S
C237 O229 1.260 . S
C237 O230 1.257 . S
Zn238 O241 2.031 . S
Zn238 O243 2.049 . S
Zn238 O248 2.067 . S
Zn239 O240 1.962 . S
Zn239 O242 1.986 . S
Zn239 O244 1.996 . S
Zn239 O247 1.943 . S
O240 Zn239 1.962 . S
O240 C245 1.254 . S
O241 Zn238 2.031 . S
O241 C245 1.269 . S
O242 Zn239 1.986 . S
O242 C249 1.262 . S
O243 Zn238 2.049 . S
O243 C251 1.260 . S
O244 Zn239 1.996 . S
O244 C251 1.257 . S
C245 O240 1.254 . S
C245 O241 1.269 . S
C246 O247 1.249 . S
C246 O248 1.270 . S
O247 Zn239 1.943 . S
O247 C246 1.249 . S
O248 Zn238 2.067 . S
O248 C246 1.270 . S
C249 O242 1.262 . S
C249 O250 1.232 . S
O250 C249 1.232 . S
C251 O243 1.260 . S
C251 O244 1.257 . S
Zn252 O255 2.031 . S
Zn252 O257 2.049 . S
Zn252 O262 2.067 . S
Zn253 O254 1.962 . S
Zn253 O256 1.986 . S
Zn253 O258 1.996 . S
Zn253 O261 1.943 . S
O254 Zn253 1.962 . S
O254 C259 1.254 . S
O255 Zn252 2.031 . S
O255 C259 1.269 . S
O256 Zn253 1.986 . S
O256 C263 1.262 . S
O257 Zn252 2.049 . S
O257 C265 1.260 . S
O258 Zn253 1.996 . S
O258 C265 1.257 . S
C259 O254 1.254 . S
C259 O255 1.269 . S
C260 O261 1.249 . S
C260 O262 1.270 . S
O261 Zn253 1.943 . S
O261 C260 1.249 . S
O262 Zn252 2.067 . S
O262 C260 1.270 . S
C263 O256 1.262 . S
C263 O264 1.232 . S
O264 C263 1.232 . S
C265 O257 1.260 . S
C265 O258 1.257 . S
Zn266 O269 2.031 . S
Zn266 O271 2.049 . S
Zn266 O276 2.067 . S
Zn267 O268 1.962 . S
Zn267 O270 1.986 . S
Zn267 O272 1.996 . S
Zn267 O275 1.943 . S
O268 Zn267 1.962 . S
O268 C273 1.254 . S
O269 Zn266 2.031 . S
O269 C273 1.269 . S
O270 Zn267 1.986 . S
O270 C277 1.262 . S
O271 Zn266 2.049 . S
O271 C279 1.260 . S
O272 Zn267 1.996 . S
O272 C279 1.257 . S
C273 O268 1.254 . S
C273 O269 1.269 . S
C274 O275 1.249 . S
C274 O276 1.270 . S
O275 Zn267 1.943 . S
O275 C274 1.249 . S
O276 Zn266 2.067 . S
O276 C274 1.270 . S
C277 O270 1.262 . S
C277 O278 1.232 . S
O278 C277 1.232 . S
C279 O271 1.260 . S
C279 O272 1.257 . S
Zn280 O283 2.031 . S
Zn280 O285 2.049 . S
Zn280 O290 2.067 . S
Zn281 O282 1.962 . S
Zn281 O284 1.986 . S
Zn281 O286 1.996 . S
Zn281 O289 1.943 . S
O282 Zn281 1.962 . S
O282 C287 1.254 . S
O283 Zn280 2.031 . S
O283 C287 1.269 . S
O284 Zn281 1.986 . S
O284 C291 1.262 . S
O285 Zn280 2.049 . S
O285 C293 1.260 . S
O286 Zn281 1.996 . S
O286 C293 1.257 . S
C287 O282 1.254 . S
C287 O283 1.269 . S
C288 O289 1.249 . S
C288 O290 1.270 . S
O289 Zn281 1.943 . S
O289 C288 1.249 . S
O290 Zn280 2.067 . S
O290 C288 1.270 . S
C291 O284 1.262 . S
C291 O292 1.232 . S
O292 C291 1.232 . S
C293 O285 1.260 . S
C293 O286 1.257 . S
Zn294 O297 2.031 . S
Zn294 O299 2.049 . S
Zn294 O304 2.067 . S
Zn295 O296 1.962 . S
Zn295 O298 1.986 . S
Zn295 O300 1.996 . S
Zn295 O303 1.943 . S
O296 Zn295 1.962 . S
O296 C301 1.254 . S
O297 Zn294 2.031 . S
O297 C301 1.269 . S
O298 Zn295 1.986 . S
O298 C305 1.262 . S
O299 Zn294 2.049 . S
O299 C307 1.260 . S
O300 Zn295 1.996 . S
O300 C307 1.257 . S
C301 O296 1.254 . S
C301 O297 1.269 . S
C302 O303 1.249 . S
C302 O304 1.270 . S
O303 Zn295 1.943 . S
O303 C302 1.249 . S
O304 Zn294 2.067 . S
O304 C302 1.270 . S
C305 O298 1.262 . S
C305 O306 1.232 . S
O306 C305 1.232 . S
C307 O299 1.260 . S
C307 O300 1.257 . S
Zn308 O311 2.031 . S
Zn308 O313 2.049 . S
Zn308 O318 2.067 . S
Zn309 O310 1.962 . S
Zn309 O312 1.986 . S
Zn309 O314 1.996 . S
Zn309 O317 1.943 . S
O310 Zn309 1.962 . S
O310 C315 1.254 . S
O311 Zn308 2.031 . S
O311 C315 1.269 . S
O312 Zn309 1.986 . S
O312 C319 1.262 . S
O313 Zn308 2.049 . S
O313 C321 1.260 . S
O314 Zn309 1.996 . S
O314 C321 1.257 . S
C315 O310 1.254 . S
C315 O311 1.269 . S
C316 O317 1.249 . S
C316 O318 1.270 . S
O317 Zn309 1.943 . S
O317 C316 1.249 . S
O318 Zn308 2.067 . S
O318 C316 1.270 . S
C319 O312 1.262 . S
C319 O320 1.232 . S
O320 C319 1.232 . S
C321 O313 1.260 . S
C321 O314 1.257 . S
Zn322 O325 2.031 . S
Zn322 O327 2.049 . S
Zn322 O332 2.067 . S
Zn323 O324 1.962 . S
Zn323 O326 1.986 . S
Zn323 O328 1.996 . S
Zn323 O331 1.943 . S
O324 Zn323 1.962 . S
O324 C329 1.254 . S
O325 Zn322 2.031 . S
O325 C329 1.269 . S
O326 Zn323 1.986 . S
O326 C333 1.262 . S
O327 Zn322 2.049 . S
O327 C335 1.260 . S
O328 Zn323 1.996 . S
O328 C335 1.257 . S
C329 O324 1.254 . S
C329 O325 1.269 . S
C330 O331 1.249 . S
C330 O332 1.270 . S
O331 Zn323 1.943 . S
O331 C330 1.249 . S
O332 Zn322 2.067 . S
O332 C330 1.270 . S
C333 O326 1.262 . S
C333 O334 1.232 . S
O334 C333 1.232 . S
C335 O327 1.260 . S
C335 O328 1.257 . S
Zn336 O339 2.031 . S
Zn336 O341 2.049 . S
Zn336 O346 2.067 . S
Zn337 O338 1.962 . S
Zn337 O340 1.986 . S
Zn337 O342 1.996 . S
Zn337 O345 1.943 . S
O338 Zn337 1.962 . S
O338 C343 1.254 . S
O339 Zn336 2.031 . S
O339 C343 1.269 . S
O340 Zn337 1.986 . S
O340 C347 1.262 . S
O341 Zn336 2.049 . S
O341 C349 1.260 . S
O342 Zn337 1.996 . S
O342 C349 1.257 . S
C343 O338 1.254 . S
C343 O339 1.269 . S
C344 O345 1.249 . S
C344 O346 1.270 . S
O345 Zn337 1.943 . S
O345 C344 1.249 . S
O346 Zn336 2.067 . S
O346 C344 1.270 . S
C347 O340 1.262 . S
C347 O348 1.232 . S
O348 C347 1.232 . S
C349 O341 1.260 . S
C349 O342 1.257 . S
Zn350 O353 2.031 . S
Zn350 O355 2.049 . S
Zn350 O360 2.067 . S
Zn351 O352 1.962 . S
Zn351 O354 1.986 . S
Zn351 O356 1.996 . S
Zn351 O359 1.943 . S
O352 Zn351 1.962 . S
O352 C357 1.254 . S
O353 Zn350 2.031 . S
O353 C357 1.269 . S
O354 Zn351 1.986 . S
O354 C361 1.262 . S
O355 Zn350 2.049 . S
O355 C363 1.260 . S
O356 Zn351 1.996 . S
O356 C363 1.257 . S
C357 O352 1.254 . S
C357 O353 1.269 . S
C358 O359 1.249 . S
C358 O360 1.270 . S
O359 Zn351 1.943 . S
O359 C358 1.249 . S
O360 Zn350 2.067 . S
O360 C358 1.270 . S
C361 O354 1.262 . S
C361 O362 1.232 . S
O362 C361 1.232 . S
C363 O355 1.260 . S
C363 O356 1.257 . S
Zn364 O367 2.031 . S
Zn364 O369 2.049 . S
Zn364 O374 2.064 1_556 S
Zn365 O366 1.962 . S
Zn365 O368 1.986 . S
Zn365 O370 1.996 . S
Zn365 O373 1.943 . S
O366 Zn365 1.962 . S
O366 C371 1.254 . S
O367 Zn364 2.031 . S
O367 C371 1.269 . S
O368 Zn365 1.986 . S
O368 C375 1.262 . S
O369 Zn364 2.049 . S
O369 C377 1.260 . S
O370 Zn365 1.996 . S
O370 C377 1.257 . S
C371 O366 1.254 . S
C371 O367 1.269 . S
C372 O373 1.249 1_554 S
C372 O374 1.271 . S
O373 Zn365 1.943 . S
O373 C372 1.249 1_556 S
O374 Zn364 2.064 1_554 S
O374 C372 1.271 . S
C375 O368 1.262 . S
C375 O376 1.232 . S
O376 C375 1.232 . S
C377 O369 1.260 . S
C377 O370 1.257 . S
Zn378 O381 2.031 . S
Zn378 O383 2.049 . S
Zn378 O388 2.065 1_556 S
Zn379 O380 1.962 . S
Zn379 O382 1.986 . S
Zn379 O384 1.996 . S
Zn379 O387 1.943 . S
O380 Zn379 1.962 . S
O380 C385 1.254 . S
O381 Zn378 2.031 . S
O381 C385 1.269 . S
O382 Zn379 1.986 . S
O382 C389 1.262 . S
O383 Zn378 2.049 . S
O383 C391 1.260 . S
O384 Zn379 1.996 . S
O384 C391 1.257 . S
C385 O380 1.254 . S
C385 O381 1.269 . S
C386 O387 1.249 1_554 S
C386 O388 1.271 . S
O387 Zn379 1.943 . S
O387 C386 1.249 1_556 S
O388 Zn378 2.065 1_554 S
O388 C386 1.271 . S
C389 O382 1.262 . S
C389 O390 1.232 . S
O390 C389 1.232 . S
C391 O383 1.260 . S
C391 O384 1.257 . S
Zn392 O395 2.031 . S
Zn392 O397 2.049 . S
Zn392 O402 2.067 . S
Zn393 O394 1.962 . S
Zn393 O396 1.986 . S
Zn393 O398 1.996 . S
Zn393 O401 1.943 . S
O394 Zn393 1.962 . S
O394 C399 1.254 . S
O395 Zn392 2.031 . S
O395 C399 1.269 . S
O396 Zn393 1.986 . S
O396 C403 1.262 . S
O397 Zn392 2.049 . S
O397 C405 1.260 . S
O398 Zn393 1.996 . S
O398 C405 1.257 . S
C399 O394 1.254 . S
C399 O395 1.269 . S
C400 O401 1.249 . S
C400 O402 1.270 . S
O401 Zn393 1.943 . S
O401 C400 1.249 . S
O402 Zn392 2.067 . S
O402 C400 1.270 . S
C403 O396 1.262 . S
C403 O404 1.232 . S
O404 C403 1.232 . S
C405 O397 1.260 . S
C405 O398 1.257 . S
Zn406 O409 2.031 . S
Zn406 O411 2.049 . S
Zn406 O416 2.067 . S
Zn407 O408 1.962 . S
Zn407 O410 1.986 . S
Zn407 O412 1.996 . S
Zn407 O415 1.943 . S
O408 Zn407 1.962 . S
O408 C413 1.254 . S
O409 Zn406 2.031 . S
O409 C413 1.269 . S
O410 Zn407 1.986 . S
O410 C417 1.262 . S
O411 Zn406 2.049 . S
O411 C419 1.260 . S
O412 Zn407 1.996 . S
O412 C419 1.257 . S
C413 O408 1.254 . S
C413 O409 1.269 . S
C414 O415 1.249 . S
C414 O416 1.270 . S
O415 Zn407 1.943 . S
O415 C414 1.249 . S
O416 Zn406 2.067 . S
O416 C414 1.270 . S
C417 O410 1.262 . S
C417 O418 1.232 . S
O418 C417 1.232 . S
C419 O411 1.260 . S
C419 O412 1.257 . S
Zn420 O423 2.031 . S
Zn420 O425 2.049 . S
Zn420 O430 2.064 1_554 S
Zn421 O422 1.962 . S
Zn421 O424 1.986 . S
Zn421 O426 1.996 . S
Zn421 O429 1.943 . S
O422 Zn421 1.962 . S
O422 C427 1.254 . S
O423 Zn420 2.031 . S
O423 C427 1.269 . S
O424 Zn421 1.986 . S
O424 C431 1.262 . S
O425 Zn420 2.049 . S
O425 C433 1.260 . S
O426 Zn421 1.996 . S
O426 C433 1.257 . S
C427 O422 1.254 . S
C427 O423 1.269 . S
C428 O429 1.249 1_556 S
C428 O430 1.271 . S
O429 Zn421 1.943 . S
O429 C428 1.249 1_554 S
O430 Zn420 2.064 1_556 S
O430 C428 1.271 . S
C431 O424 1.262 . S
C431 O432 1.232 . S
O432 C431 1.232 . S
C433 O425 1.260 . S
C433 O426 1.257 . S
Zn434 O437 2.031 . S
Zn434 O439 2.049 . S
Zn434 O444 2.065 1_554 S
Zn435 O436 1.962 . S
Zn435 O438 1.986 . S
Zn435 O440 1.996 . S
Zn435 O443 1.943 . S
O436 Zn435 1.962 . S
O436 C441 1.254 . S
O437 Zn434 2.031 . S
O437 C441 1.269 . S
O438 Zn435 1.986 . S
O438 C445 1.262 . S
O439 Zn434 2.049 . S
O439 C447 1.260 . S
O440 Zn435 1.996 . S
O440 C447 1.257 . S
C441 O436 1.254 . S
C441 O437 1.269 . S
C442 O443 1.249 1_556 S
C442 O444 1.271 . S
O443 Zn435 1.943 . S
O443 C442 1.249 1_554 S
O444 Zn434 2.065 1_556 S
O444 C442 1.271 . S
C445 O438 1.262 . S
C445 O446 1.232 . S
O446 C445 1.232 . S
C447 O439 1.260 . S
C447 O440 1.257 . S
H448 C456 0.950 . S
H449 C461 0.950 . S
H450 C458 0.950 . S
H451 C460 0.950 . S
H452 C462 0.950 . S
H453 C464 0.950 . S
H454 C466 0.950 . S
H455 C467 0.950 . S
C456 H448 0.950 . S
C456 C457 1.386 . S
C456 C458 1.391 . S
C457 C456 1.386 . S
C457 C461 1.393 . S
C458 H450 0.950 . S
C458 C456 1.391 . S
C458 C459 1.400 . S
C459 C458 1.400 . S
C459 C460 1.398 . S
C459 C465 1.491 . S
C460 H451 0.950 . S
C460 C459 1.398 . S
C460 C461 1.391 . S
C461 H449 0.950 . S
C461 C457 1.393 . S
C461 C460 1.391 . S
C462 H452 0.950 . S
C462 C463 1.386 . S
C462 C464 1.391 . S
C463 C462 1.386 . S
C463 C467 1.393 . S
C464 H453 0.950 . S
C464 C462 1.391 . S
C464 C465 1.400 . S
C465 C459 1.491 . S
C465 C464 1.400 . S
C465 C466 1.398 . S
C466 H454 0.950 . S
C466 C465 1.398 . S
C466 C467 1.391 . S
C467 H455 0.950 . S
C467 C463 1.393 . S
C467 C466 1.391 . S
H468 C476 0.950 . S
H469 C481 0.950 . S
H470 C478 0.950 . S
H471 C480 0.950 . S
H472 C482 0.950 . S
H473 C484 0.950 . S
H474 C486 0.950 . S
H475 C487 0.950 . S
C476 H468 0.950 . S
C476 C477 1.386 . S
C476 C478 1.391 . S
C477 C476 1.386 . S
C477 C481 1.393 . S
C478 H470 0.950 . S
C478 C476 1.391 . S
C478 C479 1.400 . S
C479 C478 1.400 . S
C479 C480 1.398 . S
C479 C485 1.491 . S
C480 H471 0.950 . S
C480 C479 1.398 . S
C480 C481 1.391 . S
C481 H469 0.950 . S
C481 C477 1.393 . S
C481 C480 1.391 . S
C482 H472 0.950 . S
C482 C483 1.386 . S
C482 C484 1.391 . S
C483 C482 1.386 . S
C483 C487 1.393 . S
C484 H473 0.950 . S
C484 C482 1.391 . S
C484 C485 1.400 . S
C485 C479 1.491 . S
C485 C484 1.400 . S
C485 C486 1.398 . S
C486 H474 0.950 . S
C486 C485 1.398 . S
C486 C487 1.391 . S
C487 H475 0.950 . S
C487 C483 1.393 . S
C487 C486 1.391 . S
H488 C496 0.950 . S
H489 C501 0.950 . S
H490 C498 0.950 . S
H491 C500 0.950 . S
H492 C502 0.950 . S
H493 C504 0.950 . S
H494 C506 0.950 . S
H495 C507 0.950 . S
C496 H488 0.950 . S
C496 C497 1.386 . S
C496 C498 1.391 . S
C497 C496 1.386 . S
C497 C501 1.393 . S
C498 H490 0.950 . S
C498 C496 1.391 . S
C498 C499 1.400 . S
C499 C498 1.400 . S
C499 C500 1.398 . S
C499 C505 1.491 . S
C500 H491 0.950 . S
C500 C499 1.398 . S
C500 C501 1.391 . S
C501 H489 0.950 . S
C501 C497 1.393 . S
C501 C500 1.391 . S
C502 H492 0.950 . S
C502 C503 1.386 . S
C502 C504 1.391 . S
C503 C502 1.386 . S
C503 C507 1.393 . S
C504 H493 0.950 . S
C504 C502 1.391 . S
C504 C505 1.400 . S
C505 C499 1.491 . S
C505 C504 1.400 . S
C505 C506 1.398 . S
C506 H494 0.950 . S
C506 C505 1.398 . S
C506 C507 1.391 . S
C507 H495 0.950 . S
C507 C503 1.393 . S
C507 C506 1.391 . S
H508 C516 0.950 . S
H509 C521 0.950 . S
H510 C518 0.950 . S
H511 C520 0.950 . S
H512 C522 0.950 . S
H513 C524 0.950 . S
H514 C526 0.950 . S
H515 C527 0.950 . S
C516 H508 0.950 . S
C516 C517 1.386 . S
C516 C518 1.391 . S
C517 C516 1.386 . S
C517 C521 1.393 . S
C518 H510 0.950 . S
C518 C516 1.391 . S
C518 C519 1.400 . S
C519 C518 1.400 . S
C519 C520 1.398 . S
C519 C525 1.491 . S
C520 H511 0.950 . S
C520 C519 1.398 . S
C520 C521 1.391 . S
C521 H509 0.950 . S
C521 C517 1.393 . S
C521 C520 1.391 . S
C522 H512 0.950 . S
C522 C523 1.386 . S
C522 C524 1.391 . S
C523 C522 1.386 . S
C523 C527 1.393 . S
C524 H513 0.950 . S
C524 C522 1.391 . S
C524 C525 1.400 . S
C525 C519 1.491 . S
C525 C524 1.400 . S
C525 C526 1.398 . S
C526 H514 0.950 . S
C526 C525 1.398 . S
C526 C527 1.391 . S
C527 H515 0.950 . S
C527 C523 1.393 . S
C527 C526 1.391 . S
H528 C536 0.950 . S
H529 C541 0.950 . S
H530 C538 0.950 . S
H531 C540 0.950 . S
H532 C542 0.950 . S
H533 C544 0.950 . S
H534 C546 0.950 . S
H535 C547 0.950 . S
C536 H528 0.950 . S
C536 C537 1.386 . S
C536 C538 1.391 . S
C537 C536 1.386 . S
C537 C541 1.393 . S
C538 H530 0.950 . S
C538 C536 1.391 . S
C538 C539 1.400 . S
C539 C538 1.400 . S
C539 C540 1.398 . S
C539 C545 1.491 . S
C540 H531 0.950 . S
C540 C539 1.398 . S
C540 C541 1.391 . S
C541 H529 0.950 . S
C541 C537 1.393 . S
C541 C540 1.391 . S
C542 H532 0.950 . S
C542 C543 1.386 . S
C542 C544 1.391 . S
C543 C542 1.386 . S
C543 C547 1.393 . S
C544 H533 0.950 . S
C544 C542 1.391 . S
C544 C545 1.400 . S
C545 C539 1.491 . S
C545 C544 1.400 . S
C545 C546 1.398 . S
C546 H534 0.950 . S
C546 C545 1.398 . S
C546 C547 1.391 . S
C547 H535 0.950 . S
C547 C543 1.393 . S
C547 C546 1.391 . S
H548 C556 0.950 . S
H549 C561 0.950 . S
H550 C558 0.950 . S
H551 C560 0.950 . S
H552 C562 0.950 . S
H553 C564 0.950 . S
H554 C566 0.950 . S
H555 C567 0.950 . S
C556 H548 0.950 . S
C556 C557 1.386 . S
C556 C558 1.391 . S
C557 C556 1.386 . S
C557 C561 1.393 . S
C558 H550 0.950 . S
C558 C556 1.391 . S
C558 C559 1.400 . S
C559 C558 1.400 . S
C559 C560 1.398 . S
C559 C565 1.491 . S
C560 H551 0.950 . S
C560 C559 1.398 . S
C560 C561 1.391 . S
C561 H549 0.950 . S
C561 C557 1.393 . S
C561 C560 1.391 . S
C562 H552 0.950 . S
C562 C563 1.386 . S
C562 C564 1.391 . S
C563 C562 1.386 . S
C563 C567 1.393 . S
C564 H553 0.950 . S
C564 C562 1.391 . S
C564 C565 1.400 . S
C565 C559 1.491 . S
C565 C564 1.400 . S
C565 C566 1.398 . S
C566 H554 0.950 . S
C566 C565 1.398 . S
C566 C567 1.391 . S
C567 H555 0.950 . S
C567 C563 1.393 . S
C567 C566 1.391 . S
H568 C576 0.950 . S
H569 C581 0.950 . S
H570 C578 0.950 . S
H571 C580 0.950 . S
H572 C582 0.950 . S
H573 C584 0.950 . S
H574 C586 0.950 . S
H575 C587 0.950 . S
C576 H568 0.950 . S
C576 C577 1.386 . S
C576 C578 1.391 . S
C577 C576 1.386 . S
C577 C581 1.393 . S
C578 H570 0.950 . S
C578 C576 1.391 . S
C578 C579 1.400 . S
C579 C578 1.400 . S
C579 C580 1.398 . S
C579 C585 1.491 . S
C580 H571 0.950 . S
C580 C579 1.398 . S
C580 C581 1.391 . S
C581 H569 0.950 . S
C581 C577 1.393 . S
C581 C580 1.391 . S
C582 H572 0.950 . S
C582 C583 1.386 . S
C582 C584 1.391 . S
C583 C582 1.386 . S
C583 C587 1.393 . S
C584 H573 0.950 . S
C584 C582 1.391 . S
C584 C585 1.400 . S
C585 C579 1.491 . S
C585 C584 1.400 . S
C585 C586 1.398 . S
C586 H574 0.950 . S
C586 C585 1.398 . S
C586 C587 1.391 . S
C587 H575 0.950 . S
C587 C583 1.393 . S
C587 C586 1.391 . S
H588 C596 0.950 . S
H589 C601 0.950 . S
H590 C598 0.950 . S
H591 C600 0.950 . S
H592 C602 0.950 . S
H593 C604 0.950 . S
H594 C606 0.950 . S
H595 C607 0.950 . S
C596 H588 0.950 . S
C596 C597 1.386 . S
C596 C598 1.391 . S
C597 C596 1.386 . S
C597 C601 1.393 . S
C598 H590 0.950 . S
C598 C596 1.391 . S
C598 C599 1.400 . S
C599 C598 1.400 . S
C599 C600 1.398 . S
C599 C605 1.491 . S
C600 H591 0.950 . S
C600 C599 1.398 . S
C600 C601 1.391 . S
C601 H589 0.950 . S
C601 C597 1.393 . S
C601 C600 1.391 . S
C602 H592 0.950 . S
C602 C603 1.386 . S
C602 C604 1.391 . S
C603 C602 1.386 . S
C603 C607 1.393 . S
C604 H593 0.950 . S
C604 C602 1.391 . S
C604 C605 1.400 . S
C605 C599 1.491 . S
C605 C604 1.400 . S
C605 C606 1.398 . S
C606 H594 0.950 . S
C606 C605 1.398 . S
C606 C607 1.391 . S
C607 H595 0.950 . S
C607 C603 1.393 . S
C607 C606 1.391 . S
H608 C616 0.950 . S
H609 C621 0.950 . S
H610 C618 0.950 . S
H611 C620 0.950 . S
H612 C622 0.950 . S
H613 C624 0.950 . S
H614 C626 0.950 . S
H615 C627 0.950 . S
C616 H608 0.950 . S
C616 C617 1.386 . S
C616 C618 1.391 . S
C617 C616 1.386 . S
C617 C621 1.393 . S
C618 H610 0.950 . S
C618 C616 1.391 . S
C618 C619 1.400 . S
C619 C618 1.400 . S
C619 C620 1.398 . S
C619 C625 1.491 . S
C620 H611 0.950 . S
C620 C619 1.398 . S
C620 C621 1.391 . S
C621 H609 0.950 . S
C621 C617 1.393 . S
C621 C620 1.391 . S
C622 H612 0.950 . S
C622 C623 1.386 . S
C622 C624 1.391 . S
C623 C622 1.386 . S
C623 C627 1.393 . S
C624 H613 0.950 . S
C624 C622 1.391 . S
C624 C625 1.400 . S
C625 C619 1.491 . S
C625 C624 1.400 . S
C625 C626 1.398 . S
C626 H614 0.950 . S
C626 C625 1.398 . S
C626 C627 1.391 . S
C627 H615 0.950 . S
C627 C623 1.393 . S
C627 C626 1.391 . S
H628 C636 0.950 . S
H629 C641 0.950 . S
H630 C638 0.950 . S
H631 C640 0.950 . S
H632 C642 0.950 . S
H633 C644 0.950 . S
H634 C646 0.950 . S
H635 C647 0.950 . S
C636 H628 0.950 . S
C636 C637 1.386 . S
C636 C638 1.391 . S
C637 C636 1.386 . S
C637 C641 1.393 . S
C638 H630 0.950 . S
C638 C636 1.391 . S
C638 C639 1.400 . S
C639 C638 1.400 . S
C639 C640 1.398 . S
C639 C645 1.491 . S
C640 H631 0.950 . S
C640 C639 1.398 . S
C640 C641 1.391 . S
C641 H629 0.950 . S
C641 C637 1.393 . S
C641 C640 1.391 . S
C642 H632 0.950 . S
C642 C643 1.386 . S
C642 C644 1.391 . S
C643 C642 1.386 . S
C643 C647 1.393 . S
C644 H633 0.950 . S
C644 C642 1.391 . S
C644 C645 1.400 . S
C645 C639 1.491 . S
C645 C644 1.400 . S
C645 C646 1.398 . S
C646 H634 0.950 . S
C646 C645 1.398 . S
C646 C647 1.391 . S
C647 H635 0.950 . S
C647 C643 1.393 . S
C647 C646 1.391 . S
H648 C656 0.950 . S
H649 C661 0.950 . S
H650 C658 0.950 . S
H651 C660 0.950 . S
H652 C662 0.950 . S
H653 C664 0.950 . S
H654 C666 0.950 . S
H655 C667 0.950 . S
C656 H648 0.950 . S
C656 C657 1.386 . S
C656 C658 1.391 . S
C657 C656 1.386 . S
C657 C661 1.393 . S
C658 H650 0.950 . S
C658 C656 1.391 . S
C658 C659 1.400 . S
C659 C658 1.400 . S
C659 C660 1.398 . S
C659 C665 1.491 . S
C660 H651 0.950 . S
C660 C659 1.398 . S
C660 C661 1.391 . S
C661 H649 0.950 . S
C661 C657 1.393 . S
C661 C660 1.391 . S
C662 H652 0.950 . S
C662 C663 1.386 . S
C662 C664 1.391 . S
C663 C662 1.386 . S
C663 C667 1.393 . S
C664 H653 0.950 . S
C664 C662 1.391 . S
C664 C665 1.400 . S
C665 C659 1.491 . S
C665 C664 1.400 . S
C665 C666 1.398 . S
C666 H654 0.950 . S
C666 C665 1.398 . S
C666 C667 1.391 . S
C667 H655 0.950 . S
C667 C663 1.393 . S
C667 C666 1.391 . S
H668 C676 0.950 . S
H669 C681 0.950 . S
H670 C678 0.950 . S
H671 C680 0.950 . S
H672 C682 0.950 . S
H673 C684 0.950 . S
H674 C686 0.950 . S
H675 C687 0.950 . S
C676 H668 0.950 . S
C676 C677 1.386 . S
C676 C678 1.391 . S
C677 C676 1.386 . S
C677 C681 1.393 . S
C678 H670 0.950 . S
C678 C676 1.391 . S
C678 C679 1.400 . S
C679 C678 1.400 . S
C679 C680 1.398 . S
C679 C685 1.491 . S
C680 H671 0.950 . S
C680 C679 1.398 . S
C680 C681 1.391 . S
C681 H669 0.950 . S
C681 C677 1.393 . S
C681 C680 1.391 . S
C682 H672 0.950 . S
C682 C683 1.386 . S
C682 C684 1.391 . S
C683 C682 1.386 . S
C683 C687 1.393 . S
C684 H673 0.950 . S
C684 C682 1.391 . S
C684 C685 1.400 . S
C685 C679 1.491 . S
C685 C684 1.400 . S
C685 C686 1.398 . S
C686 H674 0.950 . S
C686 C685 1.398 . S
C686 C687 1.391 . S
C687 H675 0.950 . S
C687 C683 1.393 . S
C687 C686 1.391 . S
H688 C696 0.950 . S
H689 C701 0.950 . S
H690 C698 0.950 . S
H691 C700 0.950 . S
H692 C702 0.950 . S
H693 C704 0.950 . S
H694 C706 0.950 . S
H695 C707 0.950 . S
C696 H688 0.950 . S
C696 C697 1.386 . S
C696 C698 1.391 . S
C697 C696 1.386 . S
C697 C701 1.393 . S
C698 H690 0.950 . S
C698 C696 1.391 . S
C698 C699 1.400 . S
C699 C698 1.400 . S
C699 C700 1.398 . S
C699 C705 1.491 . S
C700 H691 0.950 . S
C700 C699 1.398 . S
C700 C701 1.391 . S
C701 H689 0.950 . S
C701 C697 1.393 . S
C701 C700 1.391 . S
C702 H692 0.950 . S
C702 C703 1.386 . S
C702 C704 1.391 . S
C703 C702 1.386 . S
C703 C707 1.393 . S
C704 H693 0.950 . S
C704 C702 1.391 . S
C704 C705 1.400 . S
C705 C699 1.491 . S
C705 C704 1.400 . S
C705 C706 1.398 . S
C706 H694 0.950 . S
C706 C705 1.398 . S
C706 C707 1.391 . S
C707 H695 0.950 . S
C707 C703 1.393 . S
C707 C706 1.391 . S
H708 C716 0.950 . S
H709 C721 0.950 . S
H710 C718 0.950 . S
H711 C720 0.950 . S
H712 C722 0.950 . S
H713 C724 0.950 . S
H714 C726 0.950 . S
H715 C727 0.950 . S
C716 H708 0.950 . S
C716 C717 1.386 . S
C716 C718 1.391 . S
C717 C716 1.386 . S
C717 C721 1.393 . S
C718 H710 0.950 . S
C718 C716 1.391 . S
C718 C719 1.400 . S
C719 C718 1.400 . S
C719 C720 1.398 . S
C719 C725 1.491 . S
C720 H711 0.950 . S
C720 C719 1.398 . S
C720 C721 1.391 . S
C721 H709 0.950 . S
C721 C717 1.393 . S
C721 C720 1.391 . S
C722 H712 0.950 . S
C722 C723 1.386 . S
C722 C724 1.391 . S
C723 C722 1.386 . S
C723 C727 1.393 . S
C724 H713 0.950 . S
C724 C722 1.391 . S
C724 C725 1.400 . S
C725 C719 1.491 . S
C725 C724 1.400 . S
C725 C726 1.398 . S
C726 H714 0.950 . S
C726 C725 1.398 . S
C726 C727 1.391 . S
C727 H715 0.950 . S
C727 C723 1.393 . S
C727 C726 1.391 . S
H728 C736 0.950 . S
H729 C741 0.950 . S
H730 C738 0.950 . S
H731 C740 0.950 . S
H732 C742 0.950 . S
H733 C744 0.950 . S
H734 C746 0.950 . S
H735 C747 0.950 . S
C736 H728 0.950 . S
C736 C737 1.386 . S
C736 C738 1.391 . S
C737 C736 1.386 . S
C737 C741 1.393 . S
C738 H730 0.950 . S
C738 C736 1.391 . S
C738 C739 1.400 . S
C739 C738 1.400 . S
C739 C740 1.398 . S
C739 C745 1.491 . S
C740 H731 0.950 . S
C740 C739 1.398 . S
C740 C741 1.391 . S
C741 H729 0.950 . S
C741 C737 1.393 . S
C741 C740 1.391 . S
C742 H732 0.950 . S
C742 C743 1.386 . S
C742 C744 1.391 . S
C743 C742 1.386 . S
C743 C747 1.393 . S
C744 H733 0.950 . S
C744 C742 1.391 . S
C744 C745 1.400 . S
C745 C739 1.491 . S
C745 C744 1.400 . S
C745 C746 1.398 . S
C746 H734 0.950 . S
C746 C745 1.398 . S
C746 C747 1.391 . S
C747 H735 0.950 . S
C747 C743 1.393 . S
C747 C746 1.391 . S
H748 C756 0.950 . S
H749 C761 0.950 . S
H750 C758 0.950 . S
H751 C760 0.950 . S
H752 C762 0.950 . S
H753 C764 0.950 . S
H754 C766 0.950 . S
H755 C767 0.950 . S
C756 H748 0.950 . S
C756 C757 1.386 . S
C756 C758 1.391 . S
C757 C756 1.386 . S
C757 C761 1.393 . S
C758 H750 0.950 . S
C758 C756 1.391 . S
C758 C759 1.400 . S
C759 C758 1.400 . S
C759 C760 1.398 . S
C759 C765 1.491 . S
C760 H751 0.950 . S
C760 C759 1.398 . S
C760 C761 1.391 . S
C761 H749 0.950 . S
C761 C757 1.393 . S
C761 C760 1.391 . S
C762 H752 0.950 . S
C762 C763 1.386 . S
C762 C764 1.391 . S
C763 C762 1.386 . S
C763 C767 1.393 . S
C764 H753 0.950 . S
C764 C762 1.391 . S
C764 C765 1.400 . S
C765 C759 1.491 . S
C765 C764 1.400 . S
C765 C766 1.398 . S
C766 H754 0.950 . S
C766 C765 1.398 . S
C766 C767 1.391 . S
C767 H755 0.950 . S
C767 C763 1.393 . S
C767 C766 1.391 . S
H768 C776 0.950 . S
H769 C781 0.950 . S
H770 C778 0.950 . S
H771 C780 0.950 . S
H772 C782 0.950 . S
H773 C784 0.950 . S
H774 C786 0.950 . S
H775 C787 0.950 . S
C776 H768 0.950 . S
C776 C777 1.386 . S
C776 C778 1.391 . S
C777 C776 1.386 . S
C777 C781 1.393 . S
C778 H770 0.950 . S
C778 C776 1.391 . S
C778 C779 1.400 . S
C779 C778 1.400 . S
C779 C780 1.398 . S
C779 C785 1.491 . S
C780 H771 0.950 . S
C780 C779 1.398 . S
C780 C781 1.391 . S
C781 H769 0.950 . S
C781 C777 1.393 . S
C781 C780 1.391 . S
C782 H772 0.950 . S
C782 C783 1.386 . S
C782 C784 1.391 . S
C783 C782 1.386 . S
C783 C787 1.393 . S
C784 H773 0.950 . S
C784 C782 1.391 . S
C784 C785 1.400 . S
C785 C779 1.491 . S
C785 C784 1.400 . S
C785 C786 1.398 . S
C786 H774 0.950 . S
C786 C785 1.398 . S
C786 C787 1.391 . S
C787 H775 0.950 . S
C787 C783 1.393 . S
C787 C786 1.391 . S
H788 C796 0.950 . S
H789 C801 0.950 . S
H790 C798 0.950 . S
H791 C800 0.950 . S
H792 C802 0.950 . S
H793 C804 0.950 . S
H794 C806 0.950 . S
H795 C807 0.950 . S
C796 H788 0.950 . S
C796 C797 1.386 . S
C796 C798 1.391 . S
C797 C796 1.386 . S
C797 C801 1.393 . S
C798 H790 0.950 . S
C798 C796 1.391 . S
C798 C799 1.400 . S
C799 C798 1.400 . S
C799 C800 1.398 . S
C799 C805 1.491 . S
C800 H791 0.950 . S
C800 C799 1.398 . S
C800 C801 1.391 . S
C801 H789 0.950 . S
C801 C797 1.393 . S
C801 C800 1.391 . S
C802 H792 0.950 . S
C802 C803 1.386 . S
C802 C804 1.391 . S
C803 C802 1.386 . S
C803 C807 1.393 . S
C804 H793 0.950 . S
C804 C802 1.391 . S
C804 C805 1.400 . S
C805 C799 1.491 . S
C805 C804 1.400 . S
C805 C806 1.398 . S
C806 H794 0.950 . S
C806 C805 1.398 . S
C806 C807 1.391 . S
C807 H795 0.950 . S
C807 C803 1.393 . S
C807 C806 1.391 . S
H808 C816 0.950 . S
H809 C821 0.950 . S
H810 C818 0.950 . S
H811 C820 0.950 . S
H812 C822 0.950 . S
H813 C824 0.950 . S
H814 C826 0.950 . S
H815 C827 0.950 . S
C816 H808 0.950 . S
C816 C817 1.386 . S
C816 C818 1.391 . S
C817 C816 1.386 . S
C817 C821 1.393 . S
C818 H810 0.950 . S
C818 C816 1.391 . S
C818 C819 1.400 . S
C819 C818 1.400 . S
C819 C820 1.398 . S
C819 C825 1.491 . S
C820 H811 0.950 . S
C820 C819 1.398 . S
C820 C821 1.391 . S
C821 H809 0.950 . S
C821 C817 1.393 . S
C821 C820 1.391 . S
C822 H812 0.950 . S
C822 C823 1.386 . S
C822 C824 1.391 . S
C823 C822 1.386 . S
C823 C827 1.393 . S
C824 H813 0.950 . S
C824 C822 1.391 . S
C824 C825 1.400 . S
C825 C819 1.491 . S
C825 C824 1.400 . S
C825 C826 1.398 . S
C826 H814 0.950 . S
C826 C825 1.398 . S
C826 C827 1.391 . S
C827 H815 0.950 . S
C827 C823 1.393 . S
C827 C826 1.391 . S
H828 C836 0.950 . S
H829 C841 0.950 . S
H830 C838 0.950 . S
H831 C840 0.950 . S
H832 C842 0.950 . S
H833 C844 0.950 . S
H834 C846 0.950 . S
H835 C847 0.950 . S
C836 H828 0.950 . S
C836 C837 1.386 . S
C836 C838 1.391 . S
C837 C836 1.386 . S
C837 C841 1.393 . S
C838 H830 0.950 . S
C838 C836 1.391 . S
C838 C839 1.400 . S
C839 C838 1.400 . S
C839 C840 1.398 . S
C839 C845 1.491 . S
C840 H831 0.950 . S
C840 C839 1.398 . S
C840 C841 1.391 . S
C841 H829 0.950 . S
C841 C837 1.393 . S
C841 C840 1.391 . S
C842 H832 0.950 . S
C842 C843 1.386 . S
C842 C844 1.391 . S
C843 C842 1.386 . S
C843 C847 1.393 . S
C844 H833 0.950 . S
C844 C842 1.391 . S
C844 C845 1.400 . S
C845 C839 1.491 . S
C845 C844 1.400 . S
C845 C846 1.398 . S
C846 H834 0.950 . S
C846 C845 1.398 . S
C846 C847 1.391 . S
C847 H835 0.950 . S
C847 C843 1.393 . S
C847 C846 1.391 . S
H848 C856 0.950 . S
H849 C861 0.950 . S
H850 C858 0.950 . S
H851 C860 0.950 . S
H852 C862 0.950 . S
H853 C864 0.950 . S
H854 C866 0.950 . S
H855 C867 0.950 . S
C856 H848 0.950 . S
C856 C857 1.386 . S
C856 C858 1.391 . S
C857 C856 1.386 . S
C857 C861 1.393 . S
C858 H850 0.950 . S
C858 C856 1.391 . S
C858 C859 1.400 . S
C859 C858 1.400 . S
C859 C860 1.398 . S
C859 C865 1.491 . S
C860 H851 0.950 . S
C860 C859 1.398 . S
C860 C861 1.391 . S
C861 H849 0.950 . S
C861 C857 1.393 . S
C861 C860 1.391 . S
C862 H852 0.950 . S
C862 C863 1.386 . S
C862 C864 1.391 . S
C863 C862 1.386 . S
C863 C867 1.393 . S
C864 H853 0.950 . S
C864 C862 1.391 . S
C864 C865 1.400 . S
C865 C859 1.491 . S
C865 C864 1.400 . S
C865 C866 1.398 . S
C866 H854 0.950 . S
C866 C865 1.398 . S
C866 C867 1.391 . S
C867 H855 0.950 . S
C867 C863 1.393 . S
C867 C866 1.391 . S
H868 C876 0.950 . S
H869 C881 0.950 . S
H870 C878 0.950 . S
H871 C880 0.950 . S
H872 C882 0.950 . S
H873 C884 0.950 . S
H874 C886 0.950 . S
H875 C887 0.950 . S
C876 H868 0.950 . S
C876 C877 1.386 . S
C876 C878 1.391 . S
C877 C876 1.386 . S
C877 C881 1.393 . S
C878 H870 0.950 . S
C878 C876 1.391 . S
C878 C879 1.400 . S
C879 C878 1.400 . S
C879 C880 1.398 . S
C879 C885 1.491 . S
C880 H871 0.950 . S
C880 C879 1.398 . S
C880 C881 1.391 . S
C881 H869 0.950 . S
C881 C877 1.393 . S
C881 C880 1.391 . S
C882 H872 0.950 . S
C882 C883 1.386 . S
C882 C884 1.391 . S
C883 C882 1.386 . S
C883 C887 1.393 . S
C884 H873 0.950 . S
C884 C882 1.391 . S
C884 C885 1.400 . S
C885 C879 1.491 . S
C885 C884 1.400 . S
C885 C886 1.398 . S
C886 H874 0.950 . S
C886 C885 1.398 . S
C886 C887 1.391 . S
C887 H875 0.950 . S
C887 C883 1.393 . S
C887 C886 1.391 . S
H888 C896 0.950 . S
H889 C901 0.950 . S
H890 C898 0.950 . S
H891 C900 0.950 . S
H892 C902 0.950 . S
H893 C904 0.950 . S
H894 C906 0.950 . S
H895 C907 0.950 . S
C896 H888 0.950 . S
C896 C897 1.386 . S
C896 C898 1.391 . S
C897 C896 1.386 . S
C897 C901 1.393 . S
C898 H890 0.950 . S
C898 C896 1.391 . S
C898 C899 1.400 . S
C899 C898 1.400 . S
C899 C900 1.398 . S
C899 C905 1.491 . S
C900 H891 0.950 . S
C900 C899 1.398 . S
C900 C901 1.391 . S
C901 H889 0.950 . S
C901 C897 1.393 . S
C901 C900 1.391 . S
C902 H892 0.950 . S
C902 C903 1.386 . S
C902 C904 1.391 . S
C903 C902 1.386 . S
C903 C907 1.393 . S
C904 H893 0.950 . S
C904 C902 1.391 . S
C904 C905 1.400 . S
C905 C899 1.491 . S
C905 C904 1.400 . S
C905 C906 1.398 . S
C906 H894 0.950 . S
C906 C905 1.398 . S
C906 C907 1.391 . S
C907 H895 0.950 . S
C907 C903 1.393 . S
C907 C906 1.391 . S
H908 C916 0.950 . S
H909 C921 0.950 . S
H910 C918 0.950 . S
H911 C920 0.950 . S
H912 C922 0.950 . S
H913 C924 0.950 . S
H914 C926 0.950 . S
H915 C927 0.950 . S
C916 H908 0.950 . S
C916 C917 1.386 . S
C916 C918 1.391 . S
C917 C916 1.386 . S
C917 C921 1.393 . S
C918 H910 0.950 . S
C918 C916 1.391 . S
C918 C919 1.400 . S
C919 C918 1.400 . S
C919 C920 1.398 . S
C919 C925 1.491 . S
C920 H911 0.950 . S
C920 C919 1.398 . S
C920 C921 1.391 . S
C921 H909 0.950 . S
C921 C917 1.393 . S
C921 C920 1.391 . S
C922 H912 0.950 . S
C922 C923 1.386 . S
C922 C924 1.391 . S
C923 C922 1.386 . S
C923 C927 1.393 . S
C924 H913 0.950 . S
C924 C922 1.391 . S
C924 C925 1.400 . S
C925 C919 1.491 . S
C925 C924 1.400 . S
C925 C926 1.398 . S
C926 H914 0.950 . S
C926 C925 1.398 . S
C926 C927 1.391 . S
C927 H915 0.950 . S
C927 C923 1.393 . S
C927 C926 1.391 . S
H928 C936 0.950 . S
H929 C941 0.950 . S
H930 C938 0.950 . S
H931 C940 0.950 . S
H932 C942 0.950 . S
H933 C944 0.950 . S
H934 C946 0.950 . S
H935 C947 0.950 . S
C936 H928 0.950 . S
C936 C937 1.386 . S
C936 C938 1.391 . S
C937 C936 1.386 . S
C937 C941 1.393 . S
C938 H930 0.950 . S
C938 C936 1.391 . S
C938 C939 1.400 . S
C939 C938 1.400 . S
C939 C940 1.398 . S
C939 C945 1.491 . S
C940 H931 0.950 . S
C940 C939 1.398 . S
C940 C941 1.391 . S
C941 H929 0.950 . S
C941 C937 1.393 . S
C941 C940 1.391 . S
C942 H932 0.950 . S
C942 C943 1.386 . S
C942 C944 1.391 . S
C943 C942 1.386 . S
C943 C947 1.393 . S
C944 H933 0.950 . S
C944 C942 1.391 . S
C944 C945 1.400 . S
C945 C939 1.491 . S
C945 C944 1.400 . S
C945 C946 1.398 . S
C946 H934 0.950 . S
C946 C945 1.398 . S
C946 C947 1.391 . S
C947 H935 0.950 . S
C947 C943 1.393 . S
C947 C946 1.391 . S
H948 C956 0.950 . S
H949 C961 0.950 . S
H950 C958 0.950 . S
H951 C960 0.950 . S
H952 C962 0.950 . S
H953 C964 0.950 . S
H954 C966 0.950 . S
H955 C967 0.950 . S
C956 H948 0.950 . S
C956 C957 1.386 . S
C956 C958 1.391 . S
C957 C956 1.386 . S
C957 C961 1.393 . S
C958 H950 0.950 . S
C958 C956 1.391 . S
C958 C959 1.400 . S
C959 C958 1.400 . S
C959 C960 1.398 . S
C959 C965 1.491 . S
C960 H951 0.950 . S
C960 C959 1.398 . S
C960 C961 1.391 . S
C961 H949 0.950 . S
C961 C957 1.393 . S
C961 C960 1.391 . S
C962 H952 0.950 . S
C962 C963 1.386 . S
C962 C964 1.391 . S
C963 C962 1.386 . S
C963 C967 1.393 . S
C964 H953 0.950 . S
C964 C962 1.391 . S
C964 C965 1.400 . S
C965 C959 1.491 . S
C965 C964 1.400 . S
C965 C966 1.398 . S
C966 H954 0.950 . S
C966 C965 1.398 . S
C966 C967 1.391 . S
C967 H955 0.950 . S
C967 C963 1.393 . S
C967 C966 1.391 . S
H968 C976 0.950 . S
H969 C981 0.950 . S
H970 C978 0.950 . S
H971 C980 0.950 . S
H972 C982 0.950 . S
H973 C984 0.950 . S
H974 C986 0.950 . S
H975 C987 0.950 . S
C976 H968 0.950 . S
C976 C977 1.386 . S
C976 C978 1.391 . S
C977 C976 1.386 . S
C977 C981 1.393 . S
C978 H970 0.950 . S
C978 C976 1.391 . S
C978 C979 1.400 . S
C979 C978 1.400 . S
C979 C980 1.398 . S
C979 C985 1.491 . S
C980 H971 0.950 . S
C980 C979 1.398 . S
C980 C981 1.391 . S
C981 H969 0.950 . S
C981 C977 1.393 . S
C981 C980 1.391 . S
C982 H972 0.950 . S
C982 C983 1.386 . S
C982 C984 1.391 . S
C983 C982 1.386 . S
C983 C987 1.393 . S
C984 H973 0.950 . S
C984 C982 1.391 . S
C984 C985 1.400 . S
C985 C979 1.491 . S
C985 C984 1.400 . S
C985 C986 1.398 . S
C986 H974 0.950 . S
C986 C985 1.398 . S
C986 C987 1.391 . S
C987 H975 0.950 . S
C987 C983 1.393 . S
C987 C986 1.391 . S
H988 C996 0.950 . S
H989 C1001 0.950 . S
H990 C998 0.950 . S
H991 C1000 0.950 . S
H992 C1002 0.950 . S
H993 C1004 0.950 . S
H994 C1006 0.950 . S
H995 C1007 0.950 . S
C996 H988 0.950 . S
C996 C997 1.386 . S
C996 C998 1.391 . S
C997 C996 1.386 . S
C997 C1001 1.393 . S
C998 H990 0.950 . S
C998 C996 1.391 . S
C998 C999 1.400 . S
C999 C998 1.400 . S
C999 C1000 1.398 . S
C999 C1005 1.491 . S
C1000 H991 0.950 . S
C1000 C999 1.398 . S
C1000 C1001 1.391 . S
C1001 H989 0.950 . S
C1001 C997 1.393 . S
C1001 C1000 1.391 . S
C1002 H992 0.950 . S
C1002 C1003 1.386 . S
C1002 C1004 1.391 . S
C1003 C1002 1.386 . S
C1003 C1007 1.393 . S
C1004 H993 0.950 . S
C1004 C1002 1.391 . S
C1004 C1005 1.400 . S
C1005 C999 1.491 . S
C1005 C1004 1.400 . S
C1005 C1006 1.398 . S
C1006 H994 0.950 . S
C1006 C1005 1.398 . S
C1006 C1007 1.391 . S
C1007 H995 0.950 . S
C1007 C1003 1.393 . S
C1007 C1006 1.391 . S
H1008 C1016 0.950 . S
H1009 C1021 0.950 . S
H1010 C1018 0.950 . S
H1011 C1020 0.950 . S
H1012 C1022 0.950 . S
H1013 C1024 0.950 . S
H1014 C1026 0.950 . S
H1015 C1027 0.950 . S
C1016 H1008 0.950 . S
C1016 C1017 1.386 . S
C1016 C1018 1.391 . S
C1017 C1016 1.386 . S
C1017 C1021 1.393 . S
C1018 H1010 0.950 . S
C1018 C1016 1.391 . S
C1018 C1019 1.400 . S
C1019 C1018 1.400 . S
C1019 C1020 1.398 . S
C1019 C1025 1.491 . S
C1020 H1011 0.950 . S
C1020 C1019 1.398 . S
C1020 C1021 1.391 . S
C1021 H1009 0.950 . S
C1021 C1017 1.393 . S
C1021 C1020 1.391 . S
C1022 H1012 0.950 . S
C1022 C1023 1.386 . S
C1022 C1024 1.391 . S
C1023 C1022 1.386 . S
C1023 C1027 1.393 . S
C1024 H1013 0.950 . S
C1024 C1022 1.391 . S
C1024 C1025 1.400 . S
C1025 C1019 1.491 . S
C1025 C1024 1.400 . S
C1025 C1026 1.398 . S
C1026 H1014 0.950 . S
C1026 C1025 1.398 . S
C1026 C1027 1.391 . S
C1027 H1015 0.950 . S
C1027 C1023 1.393 . S
C1027 C1026 1.391 . S
H1028 C1036 0.950 . S
H1029 C1041 0.950 . S
H1030 C1038 0.950 . S
H1031 C1040 0.950 . S
H1032 C1042 0.950 . S
H1033 C1044 0.950 . S
H1034 C1046 0.950 . S
H1035 C1047 0.950 . S
C1036 H1028 0.950 . S
C1036 C1037 1.386 . S
C1036 C1038 1.391 . S
C1037 C1036 1.386 . S
C1037 C1041 1.393 . S
C1038 H1030 0.950 . S
C1038 C1036 1.391 . S
C1038 C1039 1.400 . S
C1039 C1038 1.400 . S
C1039 C1040 1.398 . S
C1039 C1045 1.491 . S
C1040 H1031 0.950 . S
C1040 C1039 1.398 . S
C1040 C1041 1.391 . S
C1041 H1029 0.950 . S
C1041 C1037 1.393 . S
C1041 C1040 1.391 . S
C1042 H1032 0.950 . S
C1042 C1043 1.386 . S
C1042 C1044 1.391 . S
C1043 C1042 1.386 . S
C1043 C1047 1.393 . S
C1044 H1033 0.950 . S
C1044 C1042 1.391 . S
C1044 C1045 1.400 . S
C1045 C1039 1.491 . S
C1045 C1044 1.400 . S
C1045 C1046 1.398 . S
C1046 H1034 0.950 . S
C1046 C1045 1.398 . S
C1046 C1047 1.391 . S
C1047 H1035 0.950 . S
C1047 C1043 1.393 . S
C1047 C1046 1.391 . S
H1048 C1056 0.950 . S
H1049 C1061 0.950 . S
H1050 C1058 0.950 . S
H1051 C1060 0.950 . S
H1052 C1062 0.950 . S
H1053 C1064 0.950 . S
H1054 C1066 0.950 . S
H1055 C1067 0.950 . S
C1056 H1048 0.950 . S
C1056 C1057 1.386 . S
C1056 C1058 1.391 . S
C1057 C1056 1.386 . S
C1057 C1061 1.393 . S
C1058 H1050 0.950 . S
C1058 C1056 1.391 . S
C1058 C1059 1.400 . S
C1059 C1058 1.400 . S
C1059 C1060 1.398 . S
C1059 C1065 1.491 . S
C1060 H1051 0.950 . S
C1060 C1059 1.398 . S
C1060 C1061 1.391 . S
C1061 H1049 0.950 . S
C1061 C1057 1.393 . S
C1061 C1060 1.391 . S
C1062 H1052 0.950 . S
C1062 C1063 1.386 . S
C1062 C1064 1.391 . S
C1063 C1062 1.386 . S
C1063 C1067 1.393 . S
C1064 H1053 0.950 . S
C1064 C1062 1.391 . S
C1064 C1065 1.400 . S
C1065 C1059 1.491 . S
C1065 C1064 1.400 . S
C1065 C1066 1.398 . S
C1066 H1054 0.950 . S
C1066 C1065 1.398 . S
C1066 C1067 1.391 . S
C1067 H1055 0.950 . S
C1067 C1063 1.393 . S
C1067 C1066 1.391 . S
H1068 C1076 0.950 . S
H1069 C1081 0.950 . S
H1070 C1078 0.950 . S
H1071 C1080 0.950 . S
H1072 C1082 0.950 . S
H1073 C1084 0.950 . S
H1074 C1086 0.950 . S
H1075 C1087 0.950 . S
C1076 H1068 0.950 . S
C1076 C1077 1.386 . S
C1076 C1078 1.391 . S
C1077 C1076 1.386 . S
C1077 C1081 1.393 . S
C1078 H1070 0.950 . S
C1078 C1076 1.391 . S
C1078 C1079 1.400 . S
C1079 C1078 1.400 . S
C1079 C1080 1.398 . S
C1079 C1085 1.491 . S
C1080 H1071 0.950 . S
C1080 C1079 1.398 . S
C1080 C1081 1.391 . S
C1081 H1069 0.950 . S
C1081 C1077 1.393 . S
C1081 C1080 1.391 . S
C1082 H1072 0.950 . S
C1082 C1083 1.386 . S
C1082 C1084 1.391 . S
C1083 C1082 1.386 . S
C1083 C1087 1.393 . S
C1084 H1073 0.950 . S
C1084 C1082 1.391 . S
C1084 C1085 1.400 . S
C1085 C1079 1.491 . S
C1085 C1084 1.400 . S
C1085 C1086 1.398 . S
C1086 H1074 0.950 . S
C1086 C1085 1.398 . S
C1086 C1087 1.391 . S
C1087 H1075 0.950 . S
C1087 C1083 1.393 . S
C1087 C1086 1.391 . S
H1088 C1096 0.950 . S
H1089 C1101 0.954 . S
H1090 C1098 0.950 . S
H1091 C1100 0.950 . S
H1092 C1102 0.950 . S
H1093 C1104 0.950 . S
H1094 C1106 0.950 . S
H1095 C1107 0.954 . S
C1096 H1088 0.950 . S
C1096 C1097 1.386 . S
C1096 C1098 1.391 . S
C1097 C1096 1.386 . S
C1097 C1101 1.385 1_655 S
C1098 H1090 0.950 . S
C1098 C1096 1.391 . S
C1098 C1099 1.400 . S
C1099 C1098 1.400 . S
C1099 C1100 1.398 1_655 S
C1099 C1105 1.491 1_655 S
C1100 H1091 0.950 . S
C1100 C1099 1.398 1_455 S
C1100 C1101 1.394 . S
C1101 H1089 0.954 . S
C1101 C1097 1.385 1_455 S
C1101 C1100 1.394 . S
C1102 H1092 0.950 . S
C1102 C1103 1.386 . S
C1102 C1104 1.391 . S
C1103 C1102 1.386 . S
C1103 C1107 1.385 1_455 S
C1104 H1093 0.950 . S
C1104 C1102 1.391 . S
C1104 C1105 1.400 . S
C1105 C1099 1.491 1_455 S
C1105 C1104 1.400 . S
C1105 C1106 1.398 1_455 S
C1106 H1094 0.950 . S
C1106 C1105 1.398 1_655 S
C1106 C1107 1.394 . S
C1107 H1095 0.954 . S
C1107 C1103 1.385 1_655 S
C1107 C1106 1.394 . S
H1108 C1116 0.950 . S
H1109 C1121 0.950 . S
H1110 C1118 0.950 . S
H1111 C1120 0.950 . S
H1112 C1122 0.950 . S
H1113 C1124 0.950 . S
H1114 C1126 0.950 . S
H1115 C1127 0.950 . S
C1116 H1108 0.950 . S
C1116 C1117 1.386 . S
C1116 C1118 1.391 . S
C1117 C1116 1.386 . S
C1117 C1121 1.393 . S
C1118 H1110 0.950 . S
C1118 C1116 1.391 . S
C1118 C1119 1.400 . S
C1119 C1118 1.400 . S
C1119 C1120 1.398 . S
C1119 C1125 1.491 1_565 S
C1120 H1111 0.950 . S
C1120 C1119 1.398 . S
C1120 C1121 1.391 . S
C1121 H1109 0.950 . S
C1121 C1117 1.393 . S
C1121 C1120 1.391 . S
C1122 H1112 0.950 . S
C1122 C1123 1.386 . S
C1122 C1124 1.391 . S
C1123 C1122 1.386 . S
C1123 C1127 1.393 . S
C1124 H1113 0.950 . S
C1124 C1122 1.391 . S
C1124 C1125 1.400 . S
C1125 C1119 1.491 1_545 S
C1125 C1124 1.400 . S
C1125 C1126 1.398 . S
C1126 H1114 0.950 . S
C1126 C1125 1.398 . S
C1126 C1127 1.391 . S
C1127 H1115 0.950 . S
C1127 C1123 1.393 . S
C1127 C1126 1.391 . S
H1128 C1136 0.950 . S
H1129 C1141 0.950 1_455 S
H1130 C1138 0.950 1_565 S
H1131 C1140 0.965 . S
H1132 C1142 0.950 . S
H1133 C1144 0.950 1_545 S
H1134 C1146 0.965 . S
H1135 C1147 0.950 1_655 S
C1136 H1128 0.950 . S
C1136 C1137 1.386 . S
C1136 C1138 1.391 . S
C1137 C1136 1.386 . S
C1137 C1141 1.393 . S
C1138 H1130 0.950 1_545 S
C1138 C1136 1.391 . S
C1138 C1139 1.400 . S
C1139 C1138 1.400 . S
C1139 C1140 1.398 1_655 S
C1139 C1145 1.491 1_644 S
C1140 H1131 0.965 . S
C1140 C1139 1.398 1_455 S
C1140 C1141 1.391 1_455 S
C1141 H1129 0.950 1_655 S
C1141 C1137 1.393 . S
C1141 C1140 1.391 1_655 S
C1142 H1132 0.950 . S
C1142 C1143 1.386 . S
C1142 C1144 1.391 . S
C1143 C1142 1.386 . S
C1143 C1147 1.393 . S
C1144 H1133 0.950 1_565 S
C1144 C1142 1.391 . S
C1144 C1145 1.400 . S
C1145 C1139 1.491 1_466 S
C1145 C1144 1.400 . S
C1145 C1146 1.398 1_455 S
C1146 H1134 0.965 . S
C1146 C1145 1.398 1_655 S
C1146 C1147 1.391 1_655 S
C1147 H1135 0.950 1_455 S
C1147 C1143 1.393 . S
C1147 C1146 1.391 1_455 S
H1148 C1156 0.950 . S
H1149 C1161 0.950 . S
H1150 C1158 0.950 . S
H1151 C1160 0.950 . S
H1152 C1162 0.950 . S
H1153 C1164 0.950 . S
H1154 C1166 0.950 . S
H1155 C1167 0.950 . S
C1156 H1148 0.950 . S
C1156 C1157 1.386 . S
C1156 C1158 1.391 1_554 S
C1157 C1156 1.386 . S
C1157 C1161 1.393 . S
C1158 H1150 0.950 . S
C1158 C1156 1.391 1_556 S
C1158 C1159 1.400 1_556 S
C1159 C1158 1.400 1_554 S
C1159 C1160 1.398 . S
C1159 C1165 1.491 1_554 S
C1160 H1151 0.950 . S
C1160 C1159 1.398 . S
C1160 C1161 1.391 . S
C1161 H1149 0.950 . S
C1161 C1157 1.393 . S
C1161 C1160 1.391 . S
C1162 H1152 0.950 . S
C1162 C1163 1.386 . S
C1162 C1164 1.391 1_556 S
C1163 C1162 1.386 . S
C1163 C1167 1.393 . S
C1164 H1153 0.950 . S
C1164 C1162 1.391 1_554 S
C1164 C1165 1.400 1_554 S
C1165 C1159 1.491 1_556 S
C1165 C1164 1.400 1_556 S
C1165 C1166 1.398 . S
C1166 H1154 0.950 . S
C1166 C1165 1.398 . S
C1166 C1167 1.391 . S
C1167 H1155 0.950 . S
C1167 C1163 1.393 . S
C1167 C1166 1.391 . S
H1168 C1176 0.950 . S
H1169 C1181 0.950 1_455 S
H1170 C1178 0.950 . S
H1171 C1180 0.950 . S
H1172 C1182 0.950 . S
H1173 C1184 0.950 . S
H1174 C1186 0.950 . S
H1175 C1187 0.950 1_655 S
C1176 H1168 0.950 . S
C1176 C1177 1.386 . S
C1176 C1178 1.391 . S
C1177 C1176 1.386 . S
C1177 C1181 1.393 . S
C1178 H1170 0.950 . S
C1178 C1176 1.391 . S
C1178 C1179 1.400 . S
C1179 C1178 1.400 . S
C1179 C1180 1.398 1_655 S
C1179 C1185 1.491 1_655 S
C1180 H1171 0.950 . S
C1180 C1179 1.398 1_455 S
C1180 C1181 1.391 1_455 S
C1181 H1169 0.950 1_655 S
C1181 C1177 1.393 . S
C1181 C1180 1.391 1_655 S
C1182 H1172 0.950 . S
C1182 C1183 1.386 . S
C1182 C1184 1.391 . S
C1183 C1182 1.386 . S
C1183 C1187 1.393 . S
C1184 H1173 0.950 . S
C1184 C1182 1.391 . S
C1184 C1185 1.400 . S
C1185 C1179 1.491 1_455 S
C1185 C1184 1.400 . S
C1185 C1186 1.398 1_455 S
C1186 H1174 0.950 . S
C1186 C1185 1.398 1_655 S
C1186 C1187 1.391 1_655 S
C1187 H1175 0.950 1_455 S
C1187 C1183 1.393 . S
C1187 C1186 1.391 1_455 S
H1188 C1196 0.950 . S
H1189 C1201 0.950 . S
H1190 C1198 0.950 . S
H1191 C1200 0.950 . S
H1192 C1202 0.950 . S
H1193 C1204 0.950 . S
H1194 C1206 0.950 . S
H1195 C1207 0.950 . S
C1196 H1188 0.950 . S
C1196 C1197 1.386 . S
C1196 C1198 1.391 . S
C1197 C1196 1.386 . S
C1197 C1201 1.393 . S
C1198 H1190 0.950 . S
C1198 C1196 1.391 . S
C1198 C1199 1.400 . S
C1199 C1198 1.400 . S
C1199 C1200 1.398 . S
C1199 C1205 1.491 1_565 S
C1200 H1191 0.950 . S
C1200 C1199 1.398 . S
C1200 C1201 1.391 . S
C1201 H1189 0.950 . S
C1201 C1197 1.393 . S
C1201 C1200 1.391 . S
C1202 H1192 0.950 . S
C1202 C1203 1.386 . S
C1202 C1204 1.391 . S
C1203 C1202 1.386 . S
C1203 C1207 1.393 . S
C1204 H1193 0.950 . S
C1204 C1202 1.391 . S
C1204 C1205 1.400 . S
C1205 C1199 1.491 1_545 S
C1205 C1204 1.400 . S
C1205 C1206 1.398 . S
C1206 H1194 0.950 . S
C1206 C1205 1.398 . S
C1206 C1207 1.391 . S
C1207 H1195 0.950 . S
C1207 C1203 1.393 . S
C1207 C1206 1.391 . S
H1208 C1216 0.950 . S
H1209 C1221 0.950 . S
H1210 C1218 0.923 1_554 S
H1211 C1220 0.950 . S
H1212 C1222 0.950 . S
H1213 C1224 0.923 1_556 S
H1214 C1226 0.950 . S
H1215 C1227 0.950 . S
C1216 H1208 0.950 . S
C1216 C1217 1.386 . S
C1216 C1218 1.409 . S
C1217 C1216 1.386 . S
C1217 C1221 1.393 . S
C1218 H1210 0.923 1_556 S
C1218 C1216 1.409 . S
C1218 C1219 1.409 . S
C1219 C1218 1.409 . S
C1219 C1220 1.398 . S
C1219 C1225 1.491 1_556 S
C1220 H1211 0.950 . S
C1220 C1219 1.398 . S
C1220 C1221 1.391 . S
C1221 H1209 0.950 . S
C1221 C1217 1.393 . S
C1221 C1220 1.391 . S
C1222 H1212 0.950 . S
C1222 C1223 1.386 . S
C1222 C1224 1.409 . S
C1223 C1222 1.386 . S
C1223 C1227 1.393 . S
C1224 H1213 0.923 1_554 S
C1224 C1222 1.409 . S
C1224 C1225 1.409 . S
C1225 C1219 1.491 1_554 S
C1225 C1224 1.409 . S
C1225 C1226 1.398 . S
C1226 H1214 0.950 . S
C1226 C1225 1.398 . S
C1226 C1227 1.391 . S
C1227 H1215 0.950 . S
C1227 C1223 1.393 . S
C1227 C1226 1.391 . S
H1228 C1236 0.950 . S
H1229 C1241 0.950 . S
H1230 C1238 0.950 . S
H1231 C1240 0.950 . S
H1232 C1242 0.950 . S
H1233 C1244 0.950 . S
H1234 C1246 0.950 . S
H1235 C1247 0.950 . S
C1236 H1228 0.950 . S
C1236 C1237 1.386 . S
C1236 C1238 1.391 . S
C1237 C1236 1.386 . S
C1237 C1241 1.393 . S
C1238 H1230 0.950 . S
C1238 C1236 1.391 . S
C1238 C1239 1.400 . S
C1239 C1238 1.400 . S
C1239 C1240 1.398 . S
C1239 C1245 1.491 . S
C1240 H1231 0.950 . S
C1240 C1239 1.398 . S
C1240 C1241 1.391 . S
C1241 H1229 0.950 . S
C1241 C1237 1.393 . S
C1241 C1240 1.391 . S
C1242 H1232 0.950 . S
C1242 C1243 1.386 . S
C1242 C1244 1.391 . S
C1243 C1242 1.386 . S
C1243 C1247 1.393 . S
C1244 H1233 0.950 . S
C1244 C1242 1.391 . S
C1244 C1245 1.400 . S
C1245 C1239 1.491 . S
C1245 C1244 1.400 . S
C1245 C1246 1.398 . S
C1246 H1234 0.950 . S
C1246 C1245 1.398 . S
C1246 C1247 1.391 . S
C1247 H1235 0.950 . S
C1247 C1243 1.393 . S
C1247 C1246 1.391 . S
H1248 C1256 0.950 . S
H1249 C1261 0.950 1_655 S
H1250 C1258 0.950 . S
H1251 C1260 0.950 . S
H1252 C1262 0.950 . S
H1253 C1264 0.950 . S
H1254 C1266 0.950 . S
H1255 C1267 0.950 1_455 S
C1256 H1248 0.950 . S
C1256 C1257 1.386 . S
C1256 C1258 1.391 . S
C1257 C1256 1.386 . S
C1257 C1261 1.393 . S
C1258 H1250 0.950 . S
C1258 C1256 1.391 . S
C1258 C1259 1.400 . S
C1259 C1258 1.400 . S
C1259 C1260 1.398 1_455 S
C1259 C1265 1.491 1_455 S
C1260 H1251 0.950 . S
C1260 C1259 1.398 1_655 S
C1260 C1261 1.391 1_655 S
C1261 H1249 0.950 1_455 S
C1261 C1257 1.393 . S
C1261 C1260 1.391 1_455 S
C1262 H1252 0.950 . S
C1262 C1263 1.386 . S
C1262 C1264 1.391 . S
C1263 C1262 1.386 . S
C1263 C1267 1.393 . S
C1264 H1253 0.950 . S
C1264 C1262 1.391 . S
C1264 C1265 1.400 . S
C1265 C1259 1.491 1_655 S
C1265 C1264 1.400 . S
C1265 C1266 1.398 1_655 S
C1266 H1254 0.950 . S
C1266 C1265 1.398 1_455 S
C1266 C1267 1.391 1_455 S
C1267 H1255 0.950 1_655 S
C1267 C1263 1.393 . S
C1267 C1266 1.391 1_655 S
H1268 C1276 0.950 . S
H1269 C1281 0.950 . S
H1270 C1278 0.950 . S
H1271 C1280 0.950 . S
H1272 C1282 0.950 . S
H1273 C1284 0.950 . S
H1274 C1286 0.950 . S
H1275 C1287 0.950 . S
C1276 H1268 0.950 . S
C1276 C1277 1.386 . S
C1276 C1278 1.391 . S
C1277 C1276 1.386 . S
C1277 C1281 1.393 . S
C1278 H1270 0.950 . S
C1278 C1276 1.391 . S
C1278 C1279 1.400 . S
C1279 C1278 1.400 . S
C1279 C1280 1.398 . S
C1279 C1285 1.491 . S
C1280 H1271 0.950 . S
C1280 C1279 1.398 . S
C1280 C1281 1.391 . S
C1281 H1269 0.950 . S
C1281 C1277 1.393 . S
C1281 C1280 1.391 . S
C1282 H1272 0.950 . S
C1282 C1283 1.386 . S
C1282 C1284 1.391 . S
C1283 C1282 1.386 . S
C1283 C1287 1.393 . S
C1284 H1273 0.950 . S
C1284 C1282 1.391 . S
C1284 C1285 1.400 . S
C1285 C1279 1.491 . S
C1285 C1284 1.400 . S
C1285 C1286 1.398 . S
C1286 H1274 0.950 . S
C1286 C1285 1.398 . S
C1286 C1287 1.391 . S
C1287 H1275 0.950 . S
C1287 C1283 1.393 . S
C1287 C1286 1.391 . S
H1288 C1296 0.950 . S
H1289 C1301 0.950 . S
H1290 C1298 0.950 . S
H1291 C1300 0.950 . S
H1292 C1302 0.950 . S
H1293 C1304 0.950 . S
H1294 C1306 0.950 . S
H1295 C1307 0.950 . S
C1296 H1288 0.950 . S
C1296 C1297 1.386 . S
C1296 C1298 1.391 . S
C1297 C1296 1.386 . S
C1297 C1301 1.393 . S
C1298 H1290 0.950 . S
C1298 C1296 1.391 . S
C1298 C1299 1.400 . S
C1299 C1298 1.400 . S
C1299 C1300 1.398 . S
C1299 C1305 1.491 . S
C1300 H1291 0.950 . S
C1300 C1299 1.398 . S
C1300 C1301 1.391 . S
C1301 H1289 0.950 . S
C1301 C1297 1.393 . S
C1301 C1300 1.391 . S
C1302 H1292 0.950 . S
C1302 C1303 1.386 . S
C1302 C1304 1.391 . S
C1303 C1302 1.386 . S
C1303 C1307 1.393 . S
C1304 H1293 0.950 . S
C1304 C1302 1.391 . S
C1304 C1305 1.400 . S
C1305 C1299 1.491 . S
C1305 C1304 1.400 . S
C1305 C1306 1.398 . S
C1306 H1294 0.950 . S
C1306 C1305 1.398 . S
C1306 C1307 1.391 . S
C1307 H1295 0.950 . S
C1307 C1303 1.393 . S
C1307 C1306 1.391 . S
H1308 C1316 0.950 . S
H1309 C1321 0.950 . S
H1310 C1318 0.950 . S
H1311 C1320 0.950 . S
H1312 C1322 0.950 . S
H1313 C1324 0.950 . S
H1314 C1326 0.950 . S
H1315 C1327 0.950 . S
C1316 H1308 0.950 . S
C1316 C1317 1.386 . S
C1316 C1318 1.391 . S
C1317 C1316 1.386 . S
C1317 C1321 1.393 . S
C1318 H1310 0.950 . S
C1318 C1316 1.391 . S
C1318 C1319 1.400 . S
C1319 C1318 1.400 . S
C1319 C1320 1.398 . S
C1319 C1325 1.491 . S
C1320 H1311 0.950 . S
C1320 C1319 1.398 . S
C1320 C1321 1.391 . S
C1321 H1309 0.950 . S
C1321 C1317 1.393 . S
C1321 C1320 1.391 . S
C1322 H1312 0.950 . S
C1322 C1323 1.386 . S
C1322 C1324 1.391 . S
C1323 C1322 1.386 . S
C1323 C1327 1.393 . S
C1324 H1313 0.950 . S
C1324 C1322 1.391 . S
C1324 C1325 1.400 . S
C1325 C1319 1.491 . S
C1325 C1324 1.400 . S
C1325 C1326 1.398 . S
C1326 H1314 0.950 . S
C1326 C1325 1.398 . S
C1326 C1327 1.391 . S
C1327 H1315 0.950 . S
C1327 C1323 1.393 . S
C1327 C1326 1.391 . S
H1328 C1336 0.950 . S
H1329 C1341 0.950 . S
H1330 C1338 0.950 . S
H1331 C1340 0.950 . S
H1332 C1342 0.950 . S
H1333 C1344 0.950 . S
H1334 C1346 0.950 . S
H1335 C1347 0.950 . S
C1336 H1328 0.950 . S
C1336 C1337 1.386 . S
C1336 C1338 1.391 . S
C1337 C1336 1.386 . S
C1337 C1341 1.393 . S
C1338 H1330 0.950 . S
C1338 C1336 1.391 . S
C1338 C1339 1.400 . S
C1339 C1338 1.400 . S
C1339 C1340 1.398 . S
C1339 C1345 1.491 . S
C1340 H1331 0.950 . S
C1340 C1339 1.398 . S
C1340 C1341 1.391 . S
C1341 H1329 0.950 . S
C1341 C1337 1.393 . S
C1341 C1340 1.391 . S
C1342 H1332 0.950 . S
C1342 C1343 1.386 . S
C1342 C1344 1.391 . S
C1343 C1342 1.386 . S
C1343 C1347 1.393 . S
C1344 H1333 0.950 . S
C1344 C1342 1.391 . S
C1344 C1345 1.400 . S
C1345 C1339 1.491 . S
C1345 C1344 1.400 . S
C1345 C1346 1.398 . S
C1346 H1334 0.950 . S
C1346 C1345 1.398 . S
C1346 C1347 1.391 . S
C1347 H1335 0.950 . S
C1347 C1343 1.393 . S
C1347 C1346 1.391 . S
H1348 C1356 0.950 . S
H1349 C1361 0.950 . S
H1350 C1358 0.950 . S
H1351 C1360 0.950 . S
H1352 C1362 0.950 . S
H1353 C1364 0.950 . S
H1354 C1366 0.950 . S
H1355 C1367 0.950 . S
C1356 H1348 0.950 . S
C1356 C1357 1.386 . S
C1356 C1358 1.391 . S
C1357 C1356 1.386 . S
C1357 C1361 1.393 . S
C1358 H1350 0.950 . S
C1358 C1356 1.391 . S
C1358 C1359 1.400 . S
C1359 C1358 1.400 . S
C1359 C1360 1.398 . S
C1359 C1365 1.491 1_545 S
C1360 H1351 0.950 . S
C1360 C1359 1.398 . S
C1360 C1361 1.391 . S
C1361 H1349 0.950 . S
C1361 C1357 1.393 . S
C1361 C1360 1.391 . S
C1362 H1352 0.950 . S
C1362 C1363 1.386 . S
C1362 C1364 1.391 . S
C1363 C1362 1.386 . S
C1363 C1367 1.393 . S
C1364 H1353 0.950 . S
C1364 C1362 1.391 . S
C1364 C1365 1.400 . S
C1365 C1359 1.491 1_565 S
C1365 C1364 1.400 . S
C1365 C1366 1.398 . S
C1366 H1354 0.950 . S
C1366 C1365 1.398 . S
C1366 C1367 1.391 . S
C1367 H1355 0.950 . S
C1367 C1363 1.393 . S
C1367 C1366 1.391 . S
H1368 C1376 0.950 . S
H1369 C1381 0.950 . S
H1370 C1378 0.950 . S
H1371 C1380 0.950 . S
H1372 C1382 0.950 . S
H1373 C1384 0.950 . S
H1374 C1386 0.950 . S
H1375 C1387 0.950 . S
C1376 H1368 0.950 . S
C1376 C1377 1.386 . S
C1376 C1378 1.391 . S
C1377 C1376 1.386 . S
C1377 C1381 1.393 . S
C1378 H1370 0.950 . S
C1378 C1376 1.391 . S
C1378 C1379 1.400 . S
C1379 C1378 1.400 . S
C1379 C1380 1.398 . S
C1379 C1385 1.491 . S
C1380 H1371 0.950 . S
C1380 C1379 1.398 . S
C1380 C1381 1.391 . S
C1381 H1369 0.950 . S
C1381 C1377 1.393 . S
C1381 C1380 1.391 . S
C1382 H1372 0.950 . S
C1382 C1383 1.386 . S
C1382 C1384 1.391 . S
C1383 C1382 1.386 . S
C1383 C1387 1.393 . S
C1384 H1373 0.950 . S
C1384 C1382 1.391 . S
C1384 C1385 1.400 . S
C1385 C1379 1.491 . S
C1385 C1384 1.400 . S
C1385 C1386 1.398 . S
C1386 H1374 0.950 . S
C1386 C1385 1.398 . S
C1386 C1387 1.391 . S
C1387 H1375 0.950 . S
C1387 C1383 1.393 . S
C1387 C1386 1.391 . S
H1388 C1396 0.950 . S
H1389 C1401 0.950 . S
H1390 C1398 0.942 1_554 S
H1391 C1400 0.950 . S
H1392 C1402 0.950 . S
H1393 C1404 0.942 1_556 S
H1394 C1406 0.950 . S
H1395 C1407 0.950 . S
C1396 H1388 0.950 . S
C1396 C1397 1.386 . S
C1396 C1398 1.391 . S
C1397 C1396 1.386 . S
C1397 C1401 1.393 . S
C1398 H1390 0.942 1_556 S
C1398 C1396 1.391 . S
C1398 C1399 1.400 . S
C1399 C1398 1.400 . S
C1399 C1400 1.398 . S
C1399 C1405 1.491 1_556 S
C1400 H1391 0.950 . S
C1400 C1399 1.398 . S
C1400 C1401 1.391 . S
C1401 H1389 0.950 . S
C1401 C1397 1.393 . S
C1401 C1400 1.391 . S
C1402 H1392 0.950 . S
C1402 C1403 1.386 . S
C1402 C1404 1.391 . S
C1403 C1402 1.386 . S
C1403 C1407 1.393 . S
C1404 H1393 0.942 1_554 S
C1404 C1402 1.391 . S
C1404 C1405 1.400 . S
C1405 C1399 1.491 1_554 S
C1405 C1404 1.400 . S
C1405 C1406 1.398 . S
C1406 H1394 0.950 . S
C1406 C1405 1.398 . S
C1406 C1407 1.391 . S
C1407 H1395 0.950 . S
C1407 C1403 1.393 . S
C1407 C1406 1.391 . S
H1408 C1416 0.950 . S
H1409 C1421 0.950 . S
H1410 C1418 0.950 . S
H1411 C1420 0.950 . S
H1412 C1422 0.950 . S
H1413 C1424 0.950 . S
H1414 C1426 0.950 . S
H1415 C1427 0.950 . S
C1416 H1408 0.950 . S
C1416 C1417 1.386 . S
C1416 C1418 1.391 . S
C1417 C1416 1.386 . S
C1417 C1421 1.393 . S
C1418 H1410 0.950 . S
C1418 C1416 1.391 . S
C1418 C1419 1.400 . S
C1419 C1418 1.400 . S
C1419 C1420 1.398 . S
C1419 C1425 1.491 . S
C1420 H1411 0.950 . S
C1420 C1419 1.398 . S
C1420 C1421 1.391 . S
C1421 H1409 0.950 . S
C1421 C1417 1.393 . S
C1421 C1420 1.391 . S
C1422 H1412 0.950 . S
C1422 C1423 1.386 . S
C1422 C1424 1.391 . S
C1423 C1422 1.386 . S
C1423 C1427 1.393 . S
C1424 H1413 0.950 . S
C1424 C1422 1.391 . S
C1424 C1425 1.400 . S
C1425 C1419 1.491 . S
C1425 C1424 1.400 . S
C1425 C1426 1.398 . S
C1426 H1414 0.950 . S
C1426 C1425 1.398 . S
C1426 C1427 1.391 . S
C1427 H1415 0.950 . S
C1427 C1423 1.393 . S
C1427 C1426 1.391 . S
H1428 C1436 0.950 . S
H1429 C1441 0.950 . S
H1430 C1438 0.950 . S
H1431 C1440 0.950 . S
H1432 C1442 0.950 . S
H1433 C1444 0.950 . S
H1434 C1446 0.950 . S
H1435 C1447 0.950 . S
C1436 H1428 0.950 . S
C1436 C1437 1.386 . S
C1436 C1438 1.391 . S
C1437 C1436 1.386 . S
C1437 C1441 1.393 . S
C1438 H1430 0.950 . S
C1438 C1436 1.391 . S
C1438 C1439 1.400 . S
C1439 C1438 1.400 . S
C1439 C1440 1.398 . S
C1439 C1445 1.491 . S
C1440 H1431 0.950 . S
C1440 C1439 1.398 . S
C1440 C1441 1.391 . S
C1441 H1429 0.950 . S
C1441 C1437 1.393 . S
C1441 C1440 1.391 . S
C1442 H1432 0.950 . S
C1442 C1443 1.386 . S
C1442 C1444 1.391 . S
C1443 C1442 1.386 . S
C1443 C1447 1.393 . S
C1444 H1433 0.950 . S
C1444 C1442 1.391 . S
C1444 C1445 1.400 . S
C1445 C1439 1.491 . S
C1445 C1444 1.400 . S
C1445 C1446 1.398 . S
C1446 H1434 0.950 . S
C1446 C1445 1.398 . S
C1446 C1447 1.391 . S
C1447 H1435 0.950 . S
C1447 C1443 1.393 . S
C1447 C1446 1.391 . S
H1448 C1456 0.950 . S
H1449 C1461 0.950 . S
H1450 C1458 0.950 . S
H1451 C1460 0.950 . S
H1452 C1462 0.950 . S
H1453 C1464 0.950 . S
H1454 C1466 0.950 . S
H1455 C1467 0.950 . S
C1456 H1448 0.950 . S
C1456 C1457 1.386 . S
C1456 C1458 1.391 . S
C1457 C1456 1.386 . S
C1457 C1461 1.393 . S
C1458 H1450 0.950 . S
C1458 C1456 1.391 . S
C1458 C1459 1.400 . S
C1459 C1458 1.400 . S
C1459 C1460 1.398 . S
C1459 C1465 1.491 . S
C1460 H1451 0.950 . S
C1460 C1459 1.398 . S
C1460 C1461 1.391 . S
C1461 H1449 0.950 . S
C1461 C1457 1.393 . S
C1461 C1460 1.391 . S
C1462 H1452 0.950 . S
C1462 C1463 1.386 . S
C1462 C1464 1.391 . S
C1463 C1462 1.386 . S
C1463 C1467 1.393 . S
C1464 H1453 0.950 . S
C1464 C1462 1.391 . S
C1464 C1465 1.400 . S
C1465 C1459 1.491 . S
C1465 C1464 1.400 . S
C1465 C1466 1.398 . S
C1466 H1454 0.950 . S
C1466 C1465 1.398 . S
C1466 C1467 1.391 . S
C1467 H1455 0.950 . S
C1467 C1463 1.393 . S
C1467 C1466 1.391 . S
H1468 C1476 0.950 . S
H1469 C1481 0.950 . S
H1470 C1478 0.950 . S
H1471 C1480 0.950 . S
H1472 C1482 0.950 . S
H1473 C1484 0.950 . S
H1474 C1486 0.950 . S
H1475 C1487 0.950 . S
C1476 H1468 0.950 . S
C1476 C1477 1.386 . S
C1476 C1478 1.391 . S
C1477 C1476 1.386 . S
C1477 C1481 1.393 . S
C1478 H1470 0.950 . S
C1478 C1476 1.391 . S
C1478 C1479 1.400 . S
C1479 C1478 1.400 . S
C1479 C1480 1.398 . S
C1479 C1485 1.491 . S
C1480 H1471 0.950 . S
C1480 C1479 1.398 . S
C1480 C1481 1.391 . S
C1481 H1469 0.950 . S
C1481 C1477 1.393 . S
C1481 C1480 1.391 . S
C1482 H1472 0.950 . S
C1482 C1483 1.386 . S
C1482 C1484 1.391 . S
C1483 C1482 1.386 . S
C1483 C1487 1.393 . S
C1484 H1473 0.950 . S
C1484 C1482 1.391 . S
C1484 C1485 1.400 . S
C1485 C1479 1.491 . S
C1485 C1484 1.400 . S
C1485 C1486 1.398 . S
C1486 H1474 0.950 . S
C1486 C1485 1.398 . S
C1486 C1487 1.391 . S
C1487 H1475 0.950 . S
C1487 C1483 1.393 . S
C1487 C1486 1.391 . S
H1488 C1496 0.950 . S
H1489 C1501 0.950 . S
H1490 C1498 0.950 . S
H1491 C1500 0.950 . S
H1492 C1502 0.950 . S
H1493 C1504 0.950 . S
H1494 C1506 0.950 . S
H1495 C1507 0.950 . S
C1496 H1488 0.950 . S
C1496 C1497 1.386 . S
C1496 C1498 1.391 . S
C1497 C1496 1.386 . S
C1497 C1501 1.393 . S
C1498 H1490 0.950 . S
C1498 C1496 1.391 . S
C1498 C1499 1.400 . S
C1499 C1498 1.400 . S
C1499 C1500 1.398 . S
C1499 C1505 1.491 . S
C1500 H1491 0.950 . S
C1500 C1499 1.398 . S
C1500 C1501 1.391 . S
C1501 H1489 0.950 . S
C1501 C1497 1.393 . S
C1501 C1500 1.391 . S
C1502 H1492 0.950 . S
C1502 C1503 1.386 . S
C1502 C1504 1.391 . S
C1503 C1502 1.386 . S
C1503 C1507 1.393 . S
C1504 H1493 0.950 . S
C1504 C1502 1.391 . S
C1504 C1505 1.400 . S
C1505 C1499 1.491 . S
C1505 C1504 1.400 . S
C1505 C1506 1.398 . S
C1506 H1494 0.950 . S
C1506 C1505 1.398 . S
C1506 C1507 1.391 . S
C1507 H1495 0.950 . S
C1507 C1503 1.393 . S
C1507 C1506 1.391 . S
H1508 C1516 0.950 . S
H1509 C1521 0.950 . S
H1510 C1518 0.950 . S
H1511 C1520 0.950 . S
H1512 C1522 0.950 . S
H1513 C1524 0.950 . S
H1514 C1526 0.950 . S
H1515 C1527 0.950 . S
C1516 H1508 0.950 . S
C1516 C1517 1.386 . S
C1516 C1518 1.391 . S
C1517 C1516 1.386 . S
C1517 C1521 1.393 . S
C1518 H1510 0.950 . S
C1518 C1516 1.391 . S
C1518 C1519 1.400 . S
C1519 C1518 1.400 . S
C1519 C1520 1.398 . S
C1519 C1525 1.491 . S
C1520 H1511 0.950 . S
C1520 C1519 1.398 . S
C1520 C1521 1.391 . S
C1521 H1509 0.950 . S
C1521 C1517 1.393 . S
C1521 C1520 1.391 . S
C1522 H1512 0.950 . S
C1522 C1523 1.386 . S
C1522 C1524 1.391 . S
C1523 C1522 1.386 . S
C1523 C1527 1.393 . S
C1524 H1513 0.950 . S
C1524 C1522 1.391 . S
C1524 C1525 1.400 . S
C1525 C1519 1.491 . S
C1525 C1524 1.400 . S
C1525 C1526 1.398 . S
C1526 H1514 0.950 . S
C1526 C1525 1.398 . S
C1526 C1527 1.391 . S
C1527 H1515 0.950 . S
C1527 C1523 1.393 . S
C1527 C1526 1.391 . S
H1528 C1536 0.950 . S
H1529 C1541 0.950 . S
H1530 C1538 0.950 . S
H1531 C1540 0.950 . S
H1532 C1542 0.950 . S
H1533 C1544 0.950 . S
H1534 C1546 0.950 . S
H1535 C1547 0.950 . S
C1536 H1528 0.950 . S
C1536 C1537 1.386 . S
C1536 C1538 1.391 . S
C1537 C1536 1.386 . S
C1537 C1541 1.393 . S
C1538 H1530 0.950 . S
C1538 C1536 1.391 . S
C1538 C1539 1.400 . S
C1539 C1538 1.400 . S
C1539 C1540 1.398 . S
C1539 C1545 1.491 . S
C1540 H1531 0.950 . S
C1540 C1539 1.398 . S
C1540 C1541 1.391 . S
C1541 H1529 0.950 . S
C1541 C1537 1.393 . S
C1541 C1540 1.391 . S
C1542 H1532 0.950 . S
C1542 C1543 1.386 . S
C1542 C1544 1.391 . S
C1543 C1542 1.386 . S
C1543 C1547 1.393 . S
C1544 H1533 0.950 . S
C1544 C1542 1.391 . S
C1544 C1545 1.400 . S
C1545 C1539 1.491 . S
C1545 C1544 1.400 . S
C1545 C1546 1.398 . S
C1546 H1534 0.950 . S
C1546 C1545 1.398 . S
C1546 C1547 1.391 . S
C1547 H1535 0.950 . S
C1547 C1543 1.393 . S
C1547 C1546 1.391 . S
H1548 C1556 0.950 . S
H1549 C1561 0.950 . S
H1550 C1558 0.950 . S
H1551 C1560 0.950 . S
H1552 C1562 0.950 . S
H1553 C1564 0.950 . S
H1554 C1566 0.950 . S
H1555 C1567 0.950 . S
C1556 H1548 0.950 . S
C1556 C1557 1.386 . S
C1556 C1558 1.391 . S
C1557 C1556 1.386 . S
C1557 C1561 1.393 . S
C1558 H1550 0.950 . S
C1558 C1556 1.391 . S
C1558 C1559 1.400 . S
C1559 C1558 1.400 . S
C1559 C1560 1.398 . S
C1559 C1565 1.491 . S
C1560 H1551 0.950 . S
C1560 C1559 1.398 . S
C1560 C1561 1.391 . S
C1561 H1549 0.950 . S
C1561 C1557 1.393 . S
C1561 C1560 1.391 . S
C1562 H1552 0.950 . S
C1562 C1563 1.386 . S
C1562 C1564 1.391 . S
C1563 C1562 1.386 . S
C1563 C1567 1.393 . S
C1564 H1553 0.950 . S
C1564 C1562 1.391 . S
C1564 C1565 1.400 . S
C1565 C1559 1.491 . S
C1565 C1564 1.400 . S
C1565 C1566 1.398 . S
C1566 H1554 0.950 . S
C1566 C1565 1.398 . S
C1566 C1567 1.391 . S
C1567 H1555 0.950 . S
C1567 C1563 1.393 . S
C1567 C1566 1.391 . S
H1568 C1576 0.950 . S
H1569 C1581 0.950 . S
H1570 C1578 0.950 . S
H1571 C1580 0.950 . S
H1572 C1582 0.950 . S
H1573 C1584 0.950 . S
H1574 C1586 0.950 . S
H1575 C1587 0.950 . S
C1576 H1568 0.950 . S
C1576 C1577 1.386 . S
C1576 C1578 1.391 . S
C1577 C1576 1.386 . S
C1577 C1581 1.393 . S
C1578 H1570 0.950 . S
C1578 C1576 1.391 . S
C1578 C1579 1.400 . S
C1579 C1578 1.400 . S
C1579 C1580 1.398 . S
C1579 C1585 1.491 . S
C1580 H1571 0.950 . S
C1580 C1579 1.398 . S
C1580 C1581 1.391 . S
C1581 H1569 0.950 . S
C1581 C1577 1.393 . S
C1581 C1580 1.391 . S
C1582 H1572 0.950 . S
C1582 C1583 1.386 . S
C1582 C1584 1.391 . S
C1583 C1582 1.386 . S
C1583 C1587 1.393 . S
C1584 H1573 0.950 . S
C1584 C1582 1.391 . S
C1584 C1585 1.400 . S
C1585 C1579 1.491 . S
C1585 C1584 1.400 . S
C1585 C1586 1.398 . S
C1586 H1574 0.950 . S
C1586 C1585 1.398 . S
C1586 C1587 1.391 . S
C1587 H1575 0.950 . S
C1587 C1583 1.393 . S
C1587 C1586 1.391 . S
H1588 C1596 0.950 . S
H1589 C1601 0.950 . S
H1590 C1598 0.950 . S
H1591 C1600 0.950 . S
H1592 C1602 0.950 . S
H1593 C1604 0.950 . S
H1594 C1606 0.950 . S
H1595 C1607 0.950 . S
C1596 H1588 0.950 . S
C1596 C1597 1.386 . S
C1596 C1598 1.391 . S
C1597 C1596 1.386 . S
C1597 C1601 1.393 . S
C1598 H1590 0.950 . S
C1598 C1596 1.391 . S
C1598 C1599 1.400 . S
C1599 C1598 1.400 . S
C1599 C1600 1.398 . S
C1599 C1605 1.491 . S
C1600 H1591 0.950 . S
C1600 C1599 1.398 . S
C1600 C1601 1.391 . S
C1601 H1589 0.950 . S
C1601 C1597 1.393 . S
C1601 C1600 1.391 . S
C1602 H1592 0.950 . S
C1602 C1603 1.386 . S
C1602 C1604 1.391 . S
C1603 C1602 1.386 . S
C1603 C1607 1.393 . S
C1604 H1593 0.950 . S
C1604 C1602 1.391 . S
C1604 C1605 1.400 . S
C1605 C1599 1.491 . S
C1605 C1604 1.400 . S
C1605 C1606 1.398 . S
C1606 H1594 0.950 . S
C1606 C1605 1.398 . S
C1606 C1607 1.391 . S
C1607 H1595 0.950 . S
C1607 C1603 1.393 . S
C1607 C1606 1.391 . S
H1608 C1616 0.950 . S
H1609 C1621 0.950 . S
H1610 C1618 0.950 . S
H1611 C1620 0.950 . S
H1612 C1622 0.950 . S
H1613 C1624 0.950 . S
H1614 C1626 0.950 . S
H1615 C1627 0.950 . S
C1616 H1608 0.950 . S
C1616 C1617 1.386 . S
C1616 C1618 1.391 . S
C1617 C1616 1.386 . S
C1617 C1621 1.393 . S
C1618 H1610 0.950 . S
C1618 C1616 1.391 . S
C1618 C1619 1.400 . S
C1619 C1618 1.400 . S
C1619 C1620 1.398 . S
C1619 C1625 1.491 . S
C1620 H1611 0.950 . S
C1620 C1619 1.398 . S
C1620 C1621 1.391 . S
C1621 H1609 0.950 . S
C1621 C1617 1.393 . S
C1621 C1620 1.391 . S
C1622 H1612 0.950 . S
C1622 C1623 1.386 . S
C1622 C1624 1.391 . S
C1623 C1622 1.386 . S
C1623 C1627 1.393 . S
C1624 H1613 0.950 . S
C1624 C1622 1.391 . S
C1624 C1625 1.400 . S
C1625 C1619 1.491 . S
C1625 C1624 1.400 . S
C1625 C1626 1.398 . S
C1626 H1614 0.950 . S
C1626 C1625 1.398 . S
C1626 C1627 1.391 . S
C1627 H1615 0.950 . S
C1627 C1623 1.393 . S
C1627 C1626 1.391 . S
H1628 C1636 0.950 . S
H1629 C1641 0.950 . S
H1630 C1638 0.950 . S
H1631 C1640 0.950 . S
H1632 C1642 0.950 . S
H1633 C1644 0.950 . S
H1634 C1646 0.950 . S
H1635 C1647 0.950 . S
C1636 H1628 0.950 . S
C1636 C1637 1.386 . S
C1636 C1638 1.391 . S
C1637 C1636 1.386 . S
C1637 C1641 1.393 . S
C1638 H1630 0.950 . S
C1638 C1636 1.391 . S
C1638 C1639 1.400 . S
C1639 C1638 1.400 . S
C1639 C1640 1.398 . S
C1639 C1645 1.491 . S
C1640 H1631 0.950 . S
C1640 C1639 1.398 . S
C1640 C1641 1.391 . S
C1641 H1629 0.950 . S
C1641 C1637 1.393 . S
C1641 C1640 1.391 . S
C1642 H1632 0.950 . S
C1642 C1643 1.386 . S
C1642 C1644 1.391 . S
C1643 C1642 1.386 . S
C1643 C1647 1.393 . S
C1644 H1633 0.950 . S
C1644 C1642 1.391 . S
C1644 C1645 1.400 . S
C1645 C1639 1.491 . S
C1645 C1644 1.400 . S
C1645 C1646 1.398 . S
C1646 H1634 0.950 . S
C1646 C1645 1.398 . S
C1646 C1647 1.391 . S
C1647 H1635 0.950 . S
C1647 C1643 1.393 . S
C1647 C1646 1.391 . S
H1648 C1656 0.950 . S
H1649 C1661 0.950 . S
H1650 C1658 0.950 . S
H1651 C1660 0.950 . S
H1652 C1662 0.950 . S
H1653 C1664 0.950 . S
H1654 C1666 0.950 . S
H1655 C1667 0.950 . S
C1656 H1648 0.950 . S
C1656 C1657 1.386 . S
C1656 C1658 1.391 . S
C1657 C1656 1.386 . S
C1657 C1661 1.393 . S
C1658 H1650 0.950 . S
C1658 C1656 1.391 . S
C1658 C1659 1.400 . S
C1659 C1658 1.400 . S
C1659 C1660 1.398 . S
C1659 C1665 1.491 . S
C1660 H1651 0.950 . S
C1660 C1659 1.398 . S
C1660 C1661 1.391 . S
C1661 H1649 0.950 . S
C1661 C1657 1.393 . S
C1661 C1660 1.391 . S
C1662 H1652 0.950 . S
C1662 C1663 1.386 . S
C1662 C1664 1.391 . S
C1663 C1662 1.386 . S
C1663 C1667 1.393 . S
C1664 H1653 0.950 . S
C1664 C1662 1.391 . S
C1664 C1665 1.400 . S
C1665 C1659 1.491 . S
C1665 C1664 1.400 . S
C1665 C1666 1.398 . S
C1666 H1654 0.950 . S
C1666 C1665 1.398 . S
C1666 C1667 1.391 . S
C1667 H1655 0.950 . S
C1667 C1663 1.393 . S
C1667 C1666 1.391 . S
H1668 C1676 0.950 . S
H1669 C1681 0.950 . S
H1670 C1678 0.950 . S
H1671 C1680 0.950 . S
H1672 C1682 0.950 . S
H1673 C1684 0.950 . S
H1674 C1686 0.950 . S
H1675 C1687 0.950 . S
C1676 H1668 0.950 . S
C1676 C1677 1.386 . S
C1676 C1678 1.391 . S
C1677 C1676 1.386 . S
C1677 C1681 1.393 . S
C1678 H1670 0.950 . S
C1678 C1676 1.391 . S
C1678 C1679 1.400 . S
C1679 C1678 1.400 . S
C1679 C1680 1.398 . S
C1679 C1685 1.491 . S
C1680 H1671 0.950 . S
C1680 C1679 1.398 . S
C1680 C1681 1.391 . S
C1681 H1669 0.950 . S
C1681 C1677 1.393 . S
C1681 C1680 1.391 . S
C1682 H1672 0.950 . S
C1682 C1683 1.386 . S
C1682 C1684 1.391 . S
C1683 C1682 1.386 . S
C1683 C1687 1.393 . S
C1684 H1673 0.950 . S
C1684 C1682 1.391 . S
C1684 C1685 1.400 . S
C1685 C1679 1.491 . S
C1685 C1684 1.400 . S
C1685 C1686 1.398 . S
C1686 H1674 0.950 . S
C1686 C1685 1.398 . S
C1686 C1687 1.391 . S
C1687 H1675 0.950 . S
C1687 C1683 1.393 . S
C1687 C1686 1.391 . S
H1688 C1696 0.950 . S
H1689 C1701 0.950 . S
H1690 C1698 0.950 . S
H1691 C1700 0.950 . S
H1692 C1702 0.950 . S
H1693 C1704 0.950 . S
H1694 C1706 0.950 . S
H1695 C1707 0.950 . S
C1696 H1688 0.950 . S
C1696 C1697 1.386 . S
C1696 C1698 1.391 . S
C1697 C1696 1.386 . S
C1697 C1701 1.393 . S
C1698 H1690 0.950 . S
C1698 C1696 1.391 . S
C1698 C1699 1.400 . S
C1699 C1698 1.400 . S
C1699 C1700 1.398 . S
C1699 C1705 1.491 . S
C1700 H1691 0.950 . S
C1700 C1699 1.398 . S
C1700 C1701 1.391 . S
C1701 H1689 0.950 . S
C1701 C1697 1.393 . S
C1701 C1700 1.391 . S
C1702 H1692 0.950 . S
C1702 C1703 1.386 . S
C1702 C1704 1.391 . S
C1703 C1702 1.386 . S
C1703 C1707 1.393 . S
C1704 H1693 0.950 . S
C1704 C1702 1.391 . S
C1704 C1705 1.400 . S
C1705 C1699 1.491 . S
C1705 C1704 1.400 . S
C1705 C1706 1.398 . S
C1706 H1694 0.950 . S
C1706 C1705 1.398 . S
C1706 C1707 1.391 . S
C1707 H1695 0.950 . S
C1707 C1703 1.393 . S
C1707 C1706 1.391 . S
H1708 C1716 0.950 . S
H1709 C1721 0.950 . S
H1710 C1718 0.950 . S
H1711 C1720 0.950 . S
H1712 C1722 0.950 . S
H1713 C1724 0.950 . S
H1714 C1726 0.950 . S
H1715 C1727 0.950 . S
C1716 H1708 0.950 . S
C1716 C1717 1.386 . S
C1716 C1718 1.391 . S
C1717 C1716 1.386 . S
C1717 C1721 1.393 . S
C1718 H1710 0.950 . S
C1718 C1716 1.391 . S
C1718 C1719 1.400 . S
C1719 C1718 1.400 . S
C1719 C1720 1.398 . S
C1719 C1725 1.491 . S
C1720 H1711 0.950 . S
C1720 C1719 1.398 . S
C1720 C1721 1.391 . S
C1721 H1709 0.950 . S
C1721 C1717 1.393 . S
C1721 C1720 1.391 . S
C1722 H1712 0.950 . S
C1722 C1723 1.386 . S
C1722 C1724 1.391 . S
C1723 C1722 1.386 . S
C1723 C1727 1.393 . S
C1724 H1713 0.950 . S
C1724 C1722 1.391 . S
C1724 C1725 1.400 . S
C1725 C1719 1.491 . S
C1725 C1724 1.400 . S
C1725 C1726 1.398 . S
C1726 H1714 0.950 . S
C1726 C1725 1.398 . S
C1726 C1727 1.391 . S
C1727 H1715 0.950 . S
C1727 C1723 1.393 . S
C1727 C1726 1.391 . S
C457 C153 1.223 . S
C463 C13 1.201 . S
C477 C27 1.225 . S
C483 C167 1.217 . S
C497 C41 1.212 . S
C503 C125 1.198 . S
C517 C139 1.203 . S
C523 C55 1.203 . S
C537 C209 1.223 . S
C543 C69 1.200 . S
C557 C83 1.225 . S
C563 C223 1.215 . S
C577 C181 1.225 . S
C583 C97 1.213 . S
C597 C195 1.201 . S
C603 C111 1.205 . S
C617 C377 1.209 . S
C623 C237 1.226 . S
C637 C391 1.199 . S
C643 C251 1.220 . S
C657 C349 1.199 . S
C663 C265 1.221 . S
C677 C279 1.226 . S
C683 C363 1.209 . S
C697 C433 1.200 . S
C703 C293 1.222 . S
C717 C447 1.203 . S
C723 C307 1.225 . S
C737 C321 1.223 . S
C743 C405 1.218 . S
C757 C335 1.200 . S
C763 C419 1.207 . S
C777 C277 1.469 . S
C783 C11 1.468 . S
C797 C25 1.474 1_655 S
C803 C263 1.472 . S
C817 C249 1.474 . S
C823 C39 1.473 . S
C837 C235 1.473 . S
C843 C53 1.474 1_655 S
C857 C67 1.470 . S
C863 C333 1.471 . S
C877 C81 1.469 1_455 S
C883 C319 1.470 . S
C897 C305 1.474 . S
C903 C95 1.474 . S
C917 C109 1.468 1_455 S
C923 C291 1.469 . S
C937 C389 1.472 . S
C943 C123 1.474 . S
C957 C375 1.469 . S
C963 C137 1.468 1_655 S
C977 C361 1.469 . S
C983 C151 1.468 . S
C997 C347 1.473 . S
C1003 C165 1.471 1_655 S
C1017 C179 1.469 . S
C1023 C445 1.471 . S
C1037 C431 1.470 . S
C1043 C193 1.469 1_455 S
C1057 C207 1.473 . S
C1063 C417 1.471 . S
C1077 C221 1.468 1_455 S
C1083 C403 1.469 . S
C1097 C175 1.157 . S
C1103 C7 1.157 . S
C1117 C21 1.194 . S
C1123 C301 1.194 . S
C1137 C91 1.156 . S
C1143 C35 1.156 . S
C1157 C441 1.176 . S
C1163 C49 1.176 . S
C1177 C63 1.156 . S
C1183 C119 1.156 . S
C1197 C245 1.157 . S
C1203 C77 1.157 . S
C1217 C385 1.190 . S
C1223 C105 1.190 . S
C1237 C413 1.156 . S
C1243 C133 1.156 . S
C1257 C147 1.191 . S
C1263 C203 1.191 . S
C1277 C329 1.177 . S
C1283 C161 1.177 . S
C1297 C357 1.188 . S
C1303 C189 1.188 . S
C1317 C217 1.176 . S
C1323 C273 1.176 . S
C1337 C231 1.156 . S
C1343 C399 1.156 . S
C1357 C315 1.159 . S
C1363 C259 1.159 . S
C1377 C343 1.190 . S
C1383 C287 1.190 . S
C1397 C371 1.159 . S
C1403 C427 1.159 . S
C1417 C8 0.920 . S
C1423 C50 0.936 . S
C1437 C36 0.935 . S
C1443 C22 0.918 . S
C1457 C64 0.927 . S
C1463 C106 0.913 . S
C1477 C78 0.936 . S
C1483 C92 0.919 . S
C1497 C120 0.914 . S
C1503 C162 0.919 . S
C1517 C134 0.915 . S
C1523 C148 0.917 . S
C1537 C176 0.920 . S
C1543 C218 0.936 . S
C1557 C204 0.922 . S
C1563 C190 0.913 . S
C1577 C274 0.924 . S
C1583 C232 0.912 . S
C1597 C260 0.913 . S
C1603 C246 0.922 . S
C1617 C330 0.936 . S
C1623 C288 0.929 . S
C1637 C316 0.916 . S
C1643 C302 0.934 . S
C1657 C386 0.932 . S
C1663 C344 0.915 . S
C1677 C372 0.920 . S
C1683 C358 0.936 . S
C1697 C400 0.928 . S
C1703 C442 0.937 . S
C1717 C428 0.930 . S
C1723 C414 0.936 . S
