# Generated by pormake.
# Topology wjd, (6)-cn, num edge types: 1
# Building blocks:
#     Node 0, Type 0, BuildingBlock: BETDAH_clean_sbu_0, # of connection points: 6
#     Node 1, Type 0, BuildingBlock: BETDAH_clean_sbu_0, # of connection points: 6
#     Node 2, Type 0, BuildingBlock: BETDAH_clean_sbu_0, # of connection points: 6
#     Node 3, Type 0, BuildingBlock: BETDAH_clean_sbu_0, # of connection points: 6
#     Node 4, Type 0, BuildingBlock: BETDAH_clean_sbu_0, # of connection points: 6
#     Node 5, Type 0, BuildingBlock: BETDAH_clean_sbu_0, # of connection points: 6
#     Node 6, Type 0, BuildingBlock: BETDAH_clean_sbu_0, # of connection points: 6
#     Node 7, Type 0, BuildingBlock: BETDAH_clean_sbu_0, # of connection points: 6
#     Node 8, Type 0, BuildingBlock: BETDAH_clean_sbu_0, # of connection points: 6
#     Node 9, Type 0, BuildingBlock: BETDAH_clean_sbu_0, # of connection points: 6
#     Node 10, Type 0, BuildingBlock: BETDAH_clean_sbu_0, # of connection points: 6
#     Node 11, Type 0, BuildingBlock: BETDAH_clean_sbu_0, # of connection points: 6
#     Edge 12, Type (0, 0), BuildingBlock: ZUJKAS_clean_linker_0, # of connection points: 2
#     Edge 13, Type (0, 0), BuildingBlock: ZUJKAS_clean_linker_0, # of connection points: 2
#     Edge 14, Type (0, 0), BuildingBlock: ZUJKAS_clean_linker_0, # of connection points: 2
#     Edge 15, Type (0, 0), BuildingBlock: ZUJKAS_clean_linker_0, # of connection points: 2
#     Edge 16, Type (0, 0), BuildingBlock: ZUJKAS_clean_linker_0, # of connection points: 2
#     Edge 17, Type (0, 0), BuildingBlock: ZUJKAS_clean_linker_0, # of connection points: 2
#     Edge 18, Type (0, 0), BuildingBlock: ZUJKAS_clean_linker_0, # of connection points: 2
#     Edge 19, Type (0, 0), BuildingBlock: ZUJKAS_clean_linker_0, # of connection points: 2
#     Edge 20, Type (0, 0), BuildingBlock: ZUJKAS_clean_linker_0, # of connection points: 2
#     Edge 21, Type (0, 0), BuildingBlock: ZUJKAS_clean_linker_0, # of connection points: 2
#     Edge 22, Type (0, 0), BuildingBlock: ZUJKAS_clean_linker_0, # of connection points: 2
#     Edge 23, Type (0, 0), BuildingBlock: ZUJKAS_clean_linker_0, # of connection points: 2
#     Edge 24, Type (0, 0), BuildingBlock: ZUJKAS_clean_linker_0, # of connection points: 2
#     Edge 25, Type (0, 0), BuildingBlock: ZUJKAS_clean_linker_0, # of connection points: 2
#     Edge 26, Type (0, 0), BuildingBlock: ZUJKAS_clean_linker_0, # of connection points: 2
#     Edge 27, Type (0, 0), BuildingBlock: ZUJKAS_clean_linker_0, # of connection points: 2
#     Edge 28, Type (0, 0), BuildingBlock: ZUJKAS_clean_linker_0, # of connection points: 2
#     Edge 29, Type (0, 0), BuildingBlock: ZUJKAS_clean_linker_0, # of connection points: 2
#     Edge 30, Type (0, 0), BuildingBlock: ZUJKAS_clean_linker_0, # of connection points: 2
#     Edge 31, Type (0, 0), BuildingBlock: ZUJKAS_clean_linker_0, # of connection points: 2
#     Edge 32, Type (0, 0), BuildingBlock: ZUJKAS_clean_linker_0, # of connection points: 2
#     Edge 33, Type (0, 0), BuildingBlock: ZUJKAS_clean_linker_0, # of connection points: 2
#     Edge 34, Type (0, 0), BuildingBlock: ZUJKAS_clean_linker_0, # of connection points: 2
#     Edge 35, Type (0, 0), BuildingBlock: ZUJKAS_clean_linker_0, # of connection points: 2
#     Edge 36, Type (0, 0), BuildingBlock: ZUJKAS_clean_linker_0, # of connection points: 2
#     Edge 37, Type (0, 0), BuildingBlock: ZUJKAS_clean_linker_0, # of connection points: 2
#     Edge 38, Type (0, 0), BuildingBlock: ZUJKAS_clean_linker_0, # of connection points: 2
#     Edge 39, Type (0, 0), BuildingBlock: ZUJKAS_clean_linker_0, # of connection points: 2
#     Edge 40, Type (0, 0), BuildingBlock: ZUJKAS_clean_linker_0, # of connection points: 2
#     Edge 41, Type (0, 0), BuildingBlock: ZUJKAS_clean_linker_0, # of connection points: 2
#     Edge 42, Type (0, 0), BuildingBlock: ZUJKAS_clean_linker_0, # of connection points: 2
#     Edge 43, Type (0, 0), BuildingBlock: ZUJKAS_clean_linker_0, # of connection points: 2
#     Edge 44, Type (0, 0), BuildingBlock: ZUJKAS_clean_linker_0, # of connection points: 2
#     Edge 45, Type (0, 0), BuildingBlock: ZUJKAS_clean_linker_0, # of connection points: 2
#     Edge 46, Type (0, 0), BuildingBlock: ZUJKAS_clean_linker_0, # of connection points: 2
#     Edge 47, Type (0, 0), BuildingBlock: ZUJKAS_clean_linker_0, # of connection points: 2
# Relax obj value: 0.098
# Max RMSD: 0.207
# Mean RMSD: 0.207
data_MOF--net-wjd--node1-BETDAH_clean_sbu_0--edge1-ZUJKAS_clean_linker_0
_symmetry_space_group_name_H-M    P1
_symmetry_Int_Tables_number       1
_symmetry_cell_setting            triclinic
loop_
_symmetry_equiv_pos_as_xyz
'x, y, z'
_cell_length_a     49.190408
_cell_length_b     49.248015
_cell_length_c     68.483931
_cell_angle_alpha  90.031004
_cell_angle_beta   89.922233
_cell_angle_gamma 119.97432
loop_
_atom_site_label
_atom_site_type_symbol
_atom_site_fract_x
_atom_site_fract_y
_atom_site_fract_z
_atom_type_partial_charge
Ho0 Ho 0.36575 0.16453 0.13463 0.0
Ho1 Ho 0.32725 0.09129 0.14279 0.0
C2 C 0.40269 0.12707 0.14509 0.0
C3 C 0.40117 0.22464 0.13127 0.0
C4 C 0.43197 0.2533 0.13356 0.0
C5 C 0.45008 0.2602 0.15062 0.0
C6 C 0.47776 0.28928 0.15261 0.0
C7 C 0.48767 0.31192 0.13762 0.0
C8 C 0.4695 0.30447 0.12052 0.0
C9 C 0.44212 0.27555 0.11853 0.0
C10 C 0.34207 0.1248 0.10365 0.0
C11 C 0.29213 0.13283 0.14046 0.0
C12 C 0.29037 0.03256 0.13568 0.0
C13 C 0.25699 1.01105 0.13986 0.0
C14 C 0.24214 0.98037 0.13261 0.0
C15 C 0.2097 0.96088 0.13478 0.0
C16 C 0.19151 0.97187 0.14412 0.0
C17 C 0.20668 1.00254 0.15167 0.0
C18 C 0.23913 0.02193 0.14959 0.0
C19 C 0.33676 0.12282 0.17692 0.0
O20 O 0.40306 0.1542 0.14472 0.0
O21 O 0.37671 0.09957 0.14244 0.0
O22 O 0.39838 0.2048 0.11763 0.0
O23 O 0.38437 0.21103 0.14687 0.0
O24 O 0.34179 0.15093 0.10493 0.0
O25 O 0.35473 0.12145 0.11865 0.0
O26 O 0.28987 0.10498 0.13817 0.0
O27 O 0.31936 0.159 0.14192 0.0
O28 O 0.30939 0.04268 0.15074 0.0
O29 O 0.29555 0.0549 0.1233 0.0
O30 O 0.32154 0.09249 0.17539 0.0
O31 O 0.34571 0.13428 0.16007 0.0
H32 H 0.44264 0.2434 0.16245 0.0
H33 H 0.4913 0.29405 0.1659 0.0
H34 H 0.47585 0.32137 0.10882 0.0
H35 H 0.4283 0.27088 0.10535 0.0
H36 H 0.25552 0.97174 0.12485 0.0
H37 H 0.19872 0.93753 0.12859 0.0
H38 H 0.19345 1.01161 0.15913 0.0
H39 H 0.2502 0.04565 0.1552 0.0
Ho40 Ho 0.79288 0.70758 0.40775 0.0
Ho41 Ho 0.83005 0.67059 0.41408 0.0
C42 C 0.86959 0.74424 0.40804 0.0
C43 C 0.76977 0.74289 0.41652 0.0
C44 C 0.78004 0.77612 0.41313 0.0
C45 C 0.77146 0.79211 0.42645 0.0
C46 C 0.78435 0.82457 0.42503 0.0
C47 C 0.80607 0.84172 0.41017 0.0
C48 C 0.81401 0.82535 0.39655 0.0
C49 C 0.80127 0.79289 0.39809 0.0
C50 C 0.81444 0.69937 0.37298 0.0
C51 C 0.75443 0.63179 0.40639 0.0
C52 C 0.85646 0.63639 0.41493 0.0
C53 C 0.85283 0.60467 0.41432 0.0
C54 C 0.84567 0.58713 0.39696 0.0
C55 C 0.84758 0.55964 0.39621 0.0
C56 C 0.85704 0.54944 0.41272 0.0
C57 C 0.86294 0.56639 0.43021 0.0
C58 C 0.86091 0.59365 0.43098 0.0
C59 C 0.81442 0.69309 0.4459 0.0
O60 O 0.84383 0.74568 0.41183 0.0
O61 O 0.86918 0.71744 0.40561 0.0
O62 O 0.76067 0.72431 0.40123 0.0
O63 O 0.78818 0.73829 0.42814 0.0
O64 O 0.79864 0.71388 0.375 0.0
O65 O 0.81773 0.69058 0.38966 0.0
O66 O 0.7814 0.63175 0.40691 0.0
O67 O 0.75254 0.65772 0.40822 0.0
O68 O 0.84632 0.64401 0.4305 0.0
O69 O 0.85262 0.64853 0.39886 0.0
O70 O 0.84118 0.69414 0.44397 0.0
O71 O 0.79793 0.68029 0.43109 0.0
H72 H 0.75551 0.7796 0.43834 0.0
H73 H 0.77805 0.83632 0.43598 0.0
H74 H 0.83028 0.83763 0.38477 0.0
H75 H 0.80856 0.78101 0.38783 0.0
H76 H 0.83968 0.59516 0.3838 0.0
H77 H 0.84301 0.54717 0.38249 0.0
H78 H 0.86978 0.5589 0.44327 0.0
H79 H 0.86687 0.60682 0.44451 0.0
Ho80 Ho 0.86403 0.20363 0.13045 0.0
Ho81 Ho 0.93729 0.2372 0.13911 0.0
C82 C 0.90192 0.27704 0.14283 0.0
C83 C 0.80412 0.18034 0.12675 0.0
C84 C 0.77533 0.18163 0.13097 0.0
C85 C 0.76602 0.18378 0.15006 0.0
C86 C 0.73628 0.1803 0.15348 0.0
C87 C 0.71533 0.17425 0.13791 0.0
C88 C 0.72532 0.17332 0.11882 0.0
C89 C 0.75495 0.17698 0.11541 0.0
C90 C 0.90437 0.2205 0.09971 0.0
C91 C 0.89502 0.16079 0.13518 0.0
C92 C 0.9962 0.25935 0.13222 0.0
C93 C 1.01785 0.24766 0.13631 0.0
C94 C 0.04803 0.26277 0.12819 0.0
C95 C 0.0676 0.24993 0.13037 0.0
C96 C 0.05718 0.2216 0.14059 0.0
C97 C 0.02697 0.20677 0.14891 0.0
C98 C 1.00749 0.2197 0.14679 0.0
C99 C 0.90477 0.21391 0.17276 0.0
O100 O 0.87475 0.25032 0.14255 0.0
O101 O 0.9293 0.27854 0.13954 0.0
O102 O 0.82467 0.20113 0.11471 0.0
O103 O 0.81691 0.17247 0.14081 0.0
O104 O 0.87784 0.19444 0.10044 0.0
O105 O 0.90766 0.23581 0.11502 0.0
O106 O 0.92316 0.18626 0.13355 0.0
O107 O 0.86895 0.16212 0.13666 0.0
O108 O 0.98579 0.26786 0.14736 0.0
O109 O 0.97403 0.24227 0.11973 0.0
O110 O 0.93516 0.22839 0.17158 0.0
O111 O 0.89382 0.21245 0.1559 0.0
H112 H 0.78126 0.1872 0.16234 0.0
H113 H 0.72922 0.18111 0.16836 0.0
H114 H 0.71 0.16926 0.10648 0.0
H115 H 0.76155 0.17508 0.10058 0.0
H116 H 0.05617 0.28408 0.11978 0.0
H117 H 0.09055 0.26171 0.12356 0.0
H118 H 1.01836 0.18513 0.15702 0.0
H119 H 0.98408 0.20755 0.15298 0.0
Ho120 Ho 0.3291 0.09704 0.40983 0.0
Ho121 Ho 0.36841 0.17084 0.41663 0.0
C122 C 0.29439 0.13912 0.4124 0.0
C123 C 0.29282 0.03867 0.41827 0.0
C124 C 0.25952 0.01586 0.41478 0.0
C125 C 0.24339 0.99114 0.42797 0.0
C126 C 0.21095 0.97138 0.42633 0.0
C127 C 0.19393 0.97591 0.4114 0.0
C128 C 0.21041 1.00046 0.39796 0.0
C129 C 0.24287 0.02036 0.39971 0.0
C130 C 0.33798 0.12726 0.37522 0.0
C131 C 0.40454 0.13237 0.40678 0.0
C132 C 0.4053 0.23099 0.41828 0.0
C133 C 0.43631 0.25856 0.4136 0.0
C134 C 0.44284 0.27265 0.39503 0.0
C135 C 0.46982 0.30186 0.39194 0.0
C136 C 0.49077 0.31772 0.40736 0.0
C137 C 0.48474 0.30293 0.4257 0.0
C138 C 0.45786 0.27381 0.42877 0.0
C139 C 0.3456 0.13248 0.44833 0.0
O140 O 0.29209 0.11124 0.41472 0.0
O141 O 0.32162 0.1652 0.41036 0.0
O142 O 0.31158 0.04809 0.40303 0.0
O143 O 0.29756 0.06166 0.42996 0.0
O144 O 0.32243 0.09699 0.37721 0.0
O145 O 0.34746 0.13929 0.39187 0.0
O146 O 0.4049 0.15948 0.40613 0.0
O147 O 0.37856 0.10518 0.41022 0.0
O148 O 0.4042 0.21159 0.43175 0.0
O149 O 0.38511 0.2169 0.40413 0.0
O150 O 0.34589 0.15889 0.44689 0.0
O151 O 0.35753 0.12845 0.4332 0.0
H152 H 0.25579 0.98765 0.43989 0.0
H153 H 0.19911 0.95316 0.43716 0.0
H154 H 0.19824 1.00445 0.38613 0.0
H155 H 0.25485 0.03964 0.38954 0.0
H156 H 0.42659 0.26172 0.38306 0.0
H157 H 0.47392 0.31231 0.37756 0.0
H158 H 0.49997 0.31451 0.43801 0.0
H159 H 0.45323 0.2639 0.44333 0.0
Ho160 Ho 0.82742 0.66385 0.13318 0.0
Ho161 Ho 0.79091 0.70128 0.1395 0.0
C162 C 0.75249 0.62632 0.14194 0.0
C163 C 0.85118 0.62734 0.13143 0.0
C164 C 0.84841 0.59683 0.13676 0.0
C165 C 0.86721 0.59542 0.15173 0.0
C166 C 0.86958 0.56848 0.15441 0.0
C167 C 0.85345 0.54241 0.14204 0.0
C168 C 0.83354 0.54331 0.12764 0.0
C169 C 0.83109 0.57019 0.125 0.0
C170 C 0.81302 0.68729 0.10129 0.0
C171 C 0.86796 0.73724 0.14027 0.0
C172 C 0.76894 0.73749 0.13043 0.0
C173 C 0.77952 0.77077 0.1338 0.0
C174 C 0.80529 0.78895 0.14597 0.0
C175 C 0.81766 0.8214 0.14725 0.0
C176 C 0.80453 0.83622 0.13633 0.0
C177 C 0.77835 0.81769 0.12442 0.0
C178 C 0.76603 0.78528 0.12315 0.0
C179 C 0.80813 0.68928 0.17462 0.0
O180 O 0.77966 0.6269 0.14352 0.0
O181 O 0.75052 0.65164 0.13773 0.0
O182 O 0.83175 0.62746 0.11841 0.0
O183 O 0.85825 0.64843 0.14514 0.0
O184 O 0.83951 0.68787 0.10335 0.0
O185 O 0.79622 0.67445 0.11598 0.0
O186 O 0.84232 0.73929 0.13736 0.0
O187 O 0.86729 0.71017 0.14141 0.0
O188 O 0.75932 0.71893 0.14573 0.0
O189 O 0.78748 0.73261 0.11907 0.0
O190 O 0.79225 0.70367 0.17239 0.0
O191 O 0.81373 0.68235 0.15791 0.0
H192 H 0.88128 0.6157 0.16082 0.0
H193 H 0.88531 0.56871 0.16554 0.0
H194 H 0.82041 0.52347 0.11806 0.0
H195 H 0.81661 0.57048 0.1132 0.0
H196 H 0.81628 0.77815 0.1541 0.0
H197 H 0.83763 0.83488 0.15669 0.0
H198 H 0.76797 0.82835 0.11557 0.0
H199 H 0.74652 0.77168 0.1134 0.0
Ho200 Ho 0.93437 0.24113 0.40658 0.0
Ho201 Ho 0.86562 0.20504 0.41669 0.0
C202 C 0.89733 0.16457 0.40865 0.0
C203 C 0.99438 0.26264 0.40559 0.0
C204 C 1.01453 0.24843 0.4072 0.0
C205 C 1.00435 0.22013 0.41728 0.0
C206 C 0.02331 0.20641 0.41815 0.0
C207 C 0.05294 0.22077 0.409 0.0
C208 C 0.06307 0.24929 0.39905 0.0
C209 C 0.04402 0.2629 0.39813 0.0
C210 C 0.89648 0.23031 0.37556 0.0
C211 C 0.8995 0.28017 0.41066 0.0
C212 C 0.80524 0.17852 0.42125 0.0
C213 C 0.77667 0.18119 0.41946 0.0
C214 C 0.76797 0.18929 0.40179 0.0
C215 C 0.73842 0.18687 0.39988 0.0
C216 C 0.71694 0.1761 0.41555 0.0
C217 C 0.72633 0.16925 0.43339 0.0
C218 C 0.75578 0.17173 0.4353 0.0
C219 C 0.90662 0.21854 0.44687 0.0
O220 O 0.92441 0.19099 0.41065 0.0
O221 O 0.87057 0.16443 0.40808 0.0
O222 O 0.97692 0.25529 0.38996 0.0
O223 O 0.97916 0.26218 0.42137 0.0
O224 O 0.9229 0.25597 0.37847 0.0
O225 O 0.89174 0.21082 0.38908 0.0
O226 O 0.87322 0.25286 0.40916 0.0
O227 O 0.92712 0.28192 0.41265 0.0
O228 O 0.82537 0.19453 0.43497 0.0
O229 O 0.81873 0.17667 0.40524 0.0
O230 O 0.88114 0.19175 0.44477 0.0
O231 O 0.90846 0.23637 0.43324 0.0
H232 H 0.98168 0.20854 0.42443 0.0
H233 H 1.01453 0.18431 0.42575 0.0
H234 H 0.08592 0.26133 0.39213 0.0
H235 H 0.05232 0.28476 0.3903 0.0
H236 H 0.78353 0.1965 0.38928 0.0
H237 H 0.73194 0.19224 0.38591 0.0
H238 H 0.71067 0.16147 0.44587 0.0
H239 H 0.76184 0.16521 0.44904 0.0
Ho240 Ho 0.10833 0.32644 0.64296 0.0
Ho241 Ho 0.1772 0.3596 0.63285 0.0
C242 C 0.14565 0.28721 0.64043 0.0
C243 C 0.04839 0.28788 0.64385 0.0
C244 C 0.02808 0.25348 0.64291 0.0
C245 C 0.03617 0.2349 0.63143 0.0
C246 C 1.01672 0.20226 0.63097 0.0
C247 C 0.98882 0.18753 0.64201 0.0
C248 C 0.98105 0.20633 0.6536 0.0
C249 C 1.00045 0.23892 0.65401 0.0
C250 C 0.14606 0.3529 0.6741 0.0
C251 C 0.1428 0.40031 0.63943 0.0
C252 C 0.23758 0.39371 0.62841 0.0
C253 C 0.26612 0.42493 0.63025 0.0
C254 C 0.27465 0.44179 0.6479 0.0
C255 C 0.30416 0.46893 0.64984 0.0
C256 C 0.32577 0.47955 0.63425 0.0
C257 C 0.31657 0.46322 0.61643 0.0
C258 C 0.28715 0.43627 0.61448 0.0
C259 C 0.13625 0.33266 0.6026 0.0
O260 O 0.11844 0.28642 0.63875 0.0
O261 O 0.17237 0.31387 0.6409 0.0
O262 O 0.06558 0.29883 0.65954 0.0
O263 O 0.06378 0.30185 0.62795 0.0
O264 O 0.11941 0.35177 0.67138 0.0
O265 O 0.15111 0.33871 0.66033 0.0
O266 O 0.16919 0.39943 0.64086 0.0
O267 O 0.1153 0.37442 0.63718 0.0
O268 O 0.21746 0.38962 0.61468 0.0
O269 O 0.22409 0.37828 0.64438 0.0
O270 O 0.16183 0.33144 0.60453 0.0
O271 O 0.13428 0.34829 0.61643 0.0
H272 H 0.05747 0.24559 0.62278 0.0
H273 H 0.02334 0.18864 0.62174 0.0
H274 H 0.96013 0.19586 0.66258 0.0
H275 H 0.99393 0.25278 0.66309 0.0
H276 H 0.25898 0.43351 0.66036 0.0
H277 H 0.31051 0.48086 0.6638 0.0
H278 H 0.33233 0.47102 0.60401 0.0
H279 H 0.28122 0.42362 0.60076 0.0
Ho280 Ho 0.21562 0.8574 0.91568 0.0
Ho281 Ho 0.24899 0.93053 0.90738 0.0
C282 C 0.2895 0.89577 0.90391 0.0
C283 C 0.19251 0.79752 0.91907 0.0
C284 C 0.19422 0.76894 0.91495 0.0
C285 C 0.1945 0.75861 0.89584 0.0
C286 C 0.191 0.72886 0.89263 0.0
C287 C 0.18679 0.70887 0.90846 0.0
C288 C 0.18782 0.7199 0.92753 0.0
C289 C 0.19148 0.74955 0.93071 0.0
C290 C 0.23118 0.89705 0.94666 0.0
C291 C 0.17242 0.8878 0.91059 0.0
C292 C 0.27081 0.98936 0.91426 0.0
C293 C 0.25817 1.01066 0.91143 0.0
C294 C 0.22578 0.99929 0.91288 0.0
C295 C 0.21384 0.01966 0.91151 0.0
C296 C 0.23403 0.05194 0.90851 0.0
C297 C 0.26647 0.06316 0.90656 0.0
C298 C 0.27842 0.04269 0.90805 0.0
C299 C 0.22695 0.89865 0.87337 0.0
O300 O 0.2629 0.8685 0.90438 0.0
O301 O 0.29067 0.92306 0.90674 0.0
O302 O 0.21266 0.81789 0.93145 0.0
O303 O 0.1851 0.81048 0.90488 0.0
O304 O 0.20522 0.87047 0.94555 0.0
O305 O 0.24716 0.90079 0.93155 0.0
O306 O 0.19775 0.91595 0.9126 0.0
O307 O 0.17406 0.86197 0.90896 0.0
O308 O 0.27789 0.97913 0.89845 0.0
O309 O 0.256 0.96728 0.92727 0.0
O310 O 0.24137 0.92897 0.87486 0.0
O311 O 0.22493 0.88732 0.8902 0.0
H312 H 0.19637 0.77301 0.88339 0.0
H313 H 0.19025 0.72099 0.87777 0.0
H314 H 0.1852 0.70534 0.94004 0.0
H315 H 0.19098 0.75688 0.94557 0.0
H316 H 0.20969 0.97471 0.91554 0.0
H317 H 0.18884 1.01015 0.9134 0.0
H318 H 0.28268 0.08779 0.90394 0.0
H319 H 0.30348 0.05193 0.90681 0.0
Ho320 Ho 0.71382 0.78763 0.64069 0.0
Ho321 Ho 0.67534 0.82272 0.63311 0.0
C322 C 0.74916 0.86441 0.63885 0.0
C323 C 0.75003 0.76519 0.6328 0.0
C324 C 0.78319 0.77527 0.6366 0.0
C325 C 0.80017 0.76905 0.62261 0.0
C326 C 0.83252 0.78154 0.62466 0.0
C327 C 0.84861 0.80046 0.64082 0.0
C328 C 0.8313 0.80613 0.65503 0.0
C329 C 0.79892 0.79381 0.65288 0.0
C330 C 0.70393 0.80871 0.67511 0.0
C331 C 0.6382 0.74811 0.64274 0.0
C332 C 0.63958 0.84717 0.63043 0.0
C333 C 0.60903 0.84523 0.63407 0.0
C334 C 0.59664 0.84251 0.65296 0.0
C335 C 0.57007 0.84563 0.65593 0.0
C336 C 0.55574 0.85188 0.64011 0.0
C337 C 0.56756 0.85336 0.62122 0.0
C338 C 0.59386 0.85008 0.61826 0.0
C339 C 0.69937 0.80749 0.60184 0.0
O340 O 0.75144 0.83879 0.63661 0.0
O341 O 0.72191 0.8634 0.64028 0.0
O342 O 0.7308 0.75585 0.64781 0.0
O343 O 0.74579 0.78363 0.62099 0.0
O344 O 0.71933 0.79377 0.67337 0.0
O345 O 0.69506 0.8116 0.65833 0.0
O346 O 0.63801 0.77497 0.64307 0.0
O347 O 0.66421 0.74665 0.63985 0.0
O348 O 0.64078 0.82872 0.61711 0.0
O349 O 0.6585 0.85222 0.64518 0.0
O350 O 0.69931 0.83371 0.60331 0.0
O351 O 0.68663 0.79123 0.61675 0.0
H352 H 0.78851 0.75524 0.60979 0.0
H353 H 0.84503 0.7771 0.61322 0.0
H354 H 0.84277 0.82024 0.66778 0.0
H355 H 0.78631 0.79929 0.66371 0.0
H356 H 0.60799 0.83898 0.66546 0.0
H357 H 0.56153 0.84442 0.67067 0.0
H358 H 0.55676 0.85759 0.60869 0.0
H359 H 0.60305 0.85247 0.60358 0.0
Ho360 Ho 0.17654 0.36154 0.91522 0.0
Ho361 Ho 0.10263 0.32138 0.90941 0.0
C362 C 0.13712 0.39583 0.90364 0.0
C363 C 0.23667 0.39895 0.91596 0.0
C364 C 0.26458 0.42739 0.90827 0.0
C365 C 0.28508 0.42413 0.89543 0.0
C366 C 0.31465 0.44969 0.89115 0.0
C367 C 0.32456 0.47914 0.89969 0.0
C368 C 0.30342 0.48282 0.91174 0.0
C369 C 0.27381 0.4572 0.91605 0.0
C370 C 0.13944 0.34042 0.94757 0.0
C371 C 0.14546 0.28762 0.91221 0.0
C372 C 0.04456 0.28424 0.91817 0.0
C373 C 0.02338 0.25015 0.91566 0.0
C374 C 0.03352 0.2288 0.92026 0.0
C375 C 1.01332 0.19659 0.9182 0.0
C376 C 0.98252 0.18486 0.91134 0.0
C377 C 0.97253 0.20633 0.90653 0.0
C378 C 0.99276 0.23864 0.90872 0.0
C379 C 0.13174 0.32932 0.87442 0.0
O380 O 0.16412 0.39597 0.90242 0.0
O381 O 0.1103 0.37048 0.90861 0.0
O382 O 0.217 0.40229 0.92726 0.0
O383 O 0.22283 0.37425 0.90462 0.0
O384 O 0.16609 0.34122 0.94604 0.0
O385 O 0.13454 0.35115 0.93222 0.0
O386 O 0.11743 0.285 0.91452 0.0
O387 O 0.17133 0.31484 0.90976 0.0
O388 O 0.05325 0.30133 0.90223 0.0
O389 O 0.06769 0.29224 0.93048 0.0
O390 O 0.10153 0.31401 0.8769 0.0
O391 O 0.14443 0.33928 0.89087 0.0
H392 H 0.27888 0.40144 0.88936 0.0
H393 H 0.33015 0.44614 0.88157 0.0
H394 H 0.31035 0.50509 0.9187 0.0
H395 H 0.25881 0.46049 0.92622 0.0
H396 H 0.05703 0.23692 0.92566 0.0
H397 H 0.02175 0.18087 0.92234 0.0
H398 H 0.94913 0.19821 0.90094 0.0
H399 H 0.98447 0.25465 0.905 0.0
Ho400 Ho 0.24996 0.93395 0.64181 0.0
Ho401 Ho 0.2151 0.86071 0.63337 0.0
C402 C 0.1732 0.89231 0.64025 0.0
C403 C 0.2725 0.99264 0.63424 0.0
C404 C 0.26186 0.01531 0.63772 0.0
C405 C 0.2704 0.03993 0.62448 0.0
C406 C 0.25732 0.05936 0.62593 0.0
C407 C 0.23547 0.0546 0.64073 0.0
C408 C 0.2275 0.03019 0.65426 0.0
C409 C 0.24043 1.01061 0.65268 0.0
C410 C 0.22841 0.90197 0.67582 0.0
C411 C 0.28936 0.89798 0.64418 0.0
C412 C 0.191 0.80079 0.62938 0.0
C413 C 0.193 0.77207 0.63202 0.0
C414 C 0.19634 0.76152 0.65046 0.0
C415 C 0.19337 0.73177 0.65248 0.0
C416 C 0.18662 0.71203 0.63615 0.0
C417 C 0.18453 0.72327 0.61769 0.0
C418 C 0.18769 0.7529 0.61567 0.0
C419 C 0.23058 0.90084 0.60263 0.0
O420 O 0.19871 0.92028 0.63797 0.0
O421 O 0.17434 0.86613 0.64124 0.0
O422 O 0.28104 0.98259 0.64952 0.0
O423 O 0.25482 0.97015 0.62211 0.0
O424 O 0.24327 0.93236 0.67449 0.0
O425 O 0.22583 0.89079 0.65889 0.0
O426 O 0.26253 0.87091 0.64386 0.0
O427 O 0.291 0.9255 0.64143 0.0
O428 O 0.20942 0.82119 0.61636 0.0
O429 O 0.18587 0.81374 0.64462 0.0
O430 O 0.20418 0.87471 0.60395 0.0
O431 O 0.2468 0.90391 0.61747 0.0
H432 H 0.28646 0.04354 0.61262 0.0
H433 H 0.26362 0.07746 0.61502 0.0
H434 H 0.21109 0.02604 0.66599 0.0
H435 H 0.23314 0.99136 0.66287 0.0
H436 H 0.20026 0.77578 0.66335 0.0
H437 H 0.19506 0.72371 0.6669 0.0
H438 H 0.17987 0.70886 0.60479 0.0
H439 H 0.18485 0.76041 0.60132 0.0
Ho440 Ho 0.67261 0.81763 0.91568 0.0
Ho441 Ho 0.7124 0.78414 0.90787 0.0
C442 C 0.6374 0.74435 0.90336 0.0
C443 C 0.63551 0.84066 0.91786 0.0
C444 C 0.607 0.84044 0.91056 0.0
C445 C 0.61005 0.86363 0.89733 0.0
C446 C 0.58457 0.8679 0.89329 0.0
C447 C 0.55541 0.84921 0.90246 0.0
C448 C 0.55193 0.82498 0.91495 0.0
C449 C 0.57746 0.82073 0.91903 0.0
C450 C 0.6953 0.80128 0.94708 0.0
C451 C 0.74657 0.86051 0.91132 0.0
C452 C 0.74841 0.76148 0.91576 0.0
C453 C 0.78175 0.77222 0.9124 0.0
C454 C 0.80021 0.79883 0.90092 0.0
C455 C 0.83266 0.8111 0.89963 0.0
C456 C 0.84722 0.79702 0.90985 0.0
C457 C 0.82842 0.77003 0.92108 0.0
C458 C 0.796 0.75782 0.92237 0.0
C459 C 0.70348 0.80629 0.87363 0.0
O460 O 0.63723 0.77119 0.90305 0.0
O461 O 0.66311 0.74285 0.90718 0.0
O462 O 0.63218 0.81715 0.9286 0.0
O463 O 0.66012 0.8519 0.90638 0.0
O464 O 0.69416 0.82697 0.94613 0.0
O465 O 0.68384 0.78585 0.93173 0.0
O466 O 0.74938 0.83513 0.91286 0.0
O467 O 0.71917 0.8591 0.90978 0.0
O468 O 0.73019 0.75315 0.90032 0.0
O469 O 0.74333 0.77908 0.92783 0.0
O470 O 0.71927 0.79175 0.87539 0.0
O471 O 0.69378 0.8084 0.89035 0.0
H472 H 0.63253 0.87947 0.89073 0.0
H473 H 0.58795 0.88646 0.88337 0.0
H474 H 0.5299 0.81032 0.9224 0.0
H475 H 0.57436 0.80295 0.92951 0.0
H476 H 0.78959 0.8105 0.89333 0.0
H477 H 0.84638 0.83172 0.89073 0.0
H478 H 0.83889 0.7589 0.9294 0.0
H479 H 0.78217 0.73763 0.9316 0.0
H480 H 0.04024 0.15974 0.13641 0.0
H481 H 0.07407 0.13647 0.13854 0.0
H482 H 0.15387 0.22778 0.1498 0.0
H483 H 0.1202 0.25109 0.14813 0.0
H484 H 0.1274 0.15088 0.1155 0.0
H485 H 0.15807 0.1734 0.19388 0.0
H486 H 0.12527 0.17506 0.18338 0.0
H487 H 0.16447 0.20773 0.18086 0.0
C488 C 0.06492 0.1748 0.13963 0.0
C489 C 0.07751 0.20728 0.1422 0.0
C490 C 0.08422 0.16148 0.14072 0.0
C491 C 0.11637 0.18032 0.14461 0.0
C492 C 0.12901 0.21272 0.14713 0.0
H493 H 0.289 0.18594 0.14602 0.0
H494 H 0.24278 0.19154 0.14748 0.0
C495 C 0.10979 0.22606 0.14597 0.0
C496 C 0.13716 0.16655 0.14534 0.0
H497 H 0.19148 0.16215 0.17405 0.0
C498 C 0.14103 0.15277 0.12839 0.0
C499 C 0.15467 0.16883 0.16224 0.0
C500 C 0.15023 0.18177 0.18119 0.0
C501 C 0.16351 0.14311 0.1275 0.0
C502 C 0.18222 0.147 0.14409 0.0
C503 C 0.17715 0.15926 0.16133 0.0
C504 C 0.20971 0.1423 0.14319 0.0
C505 C 0.16838 0.13052 0.10853 0.0
C506 C 0.20649 0.11255 0.14037 0.0
C507 C 0.23316 0.10914 0.13949 0.0
C508 C 0.26338 0.13547 0.14144 0.0
C509 C 0.26624 0.16508 0.1444 0.0
C510 C 0.23976 0.1684 0.14529 0.0
H511 H 0.15478 0.13282 0.09635 0.0
H512 H 0.19364 0.14304 0.10451 0.0
H513 H 0.16082 0.10533 0.11032 0.0
H514 H 0.18342 0.09203 0.13896 0.0
H515 H 0.2301 0.086 0.13729 0.0
H516 H 0.15027 0.99293 0.40154 0.0
H517 H 0.09311 0.95961 0.40039 0.0
H518 H 0.10132 0.88002 0.418 0.0
H519 H 0.15842 0.91274 0.4186 0.0
H520 H 0.05625 0.90129 0.37783 0.0
H521 H 0.03878 0.8849 0.45799 0.0
H522 H 0.07382 0.91667 0.4472 0.0
H523 H 0.06872 0.87795 0.44823 0.0
C524 C 0.14002 0.96825 0.40492 0.0
C525 C 0.15911 0.95561 0.41023 0.0
C526 C 0.1073 0.94932 0.4044 0.0
C527 C 0.09302 0.91751 0.4094 0.0
C528 C 0.11189 0.90469 0.41445 0.0
H529 H 0.92219 0.75133 0.39032 0.0
H530 H 0.97436 0.79747 0.38988 0.0
C531 C 0.14457 0.92349 0.41483 0.0
C532 C 0.05839 0.89733 0.40902 0.0
H533 H 0.99554 0.85036 0.43791 0.0
C534 C 0.04287 0.89048 0.39098 0.0
C535 C 0.04094 0.88364 0.42623 0.0
C536 C 0.05629 0.89131 0.44606 0.0
C537 C 1.01058 0.86888 0.38959 0.0
C538 C 0.99351 0.85374 0.40667 0.0
C539 C 1.00869 0.86193 0.42483 0.0
C540 C 0.96095 0.82694 0.40575 0.0
C541 C 0.9951 0.86184 0.3698 0.0
C542 C 0.93598 0.82814 0.41491 0.0
C543 C 0.90581 0.80162 0.41514 0.0
C544 C 0.90044 0.77339 0.40656 0.0
C545 C 0.92549 0.7726 0.39718 0.0
C546 C 0.95535 0.79905 0.39677 0.0
H547 H 1.00861 0.88122 0.35931 0.0
H548 H 0.99387 0.84028 0.36388 0.0
H549 H 0.9708 0.85777 0.37085 0.0
H550 H 0.93993 0.84943 0.42205 0.0
H551 H 0.88702 0.80293 0.42252 0.0
H552 H 0.84089 0.10453 0.13714 0.0
H553 H 0.83442 0.05238 0.13674 0.0
H554 H 0.93466 0.09195 0.13272 0.0
H555 H 0.94164 0.14505 0.13324 0.0
H556 H 0.85567 0.0272 0.10615 0.0
H557 H 0.90613 0.02742 0.17903 0.0
H558 H 0.89333 0.05495 0.17294 0.0
H559 H 0.9289 0.05953 0.16263 0.0
C560 C 0.86176 0.10245 0.13624 0.0
C561 C 0.89186 0.12918 0.1352 0.0
C562 C 0.85792 0.07246 0.136 0.0
C563 C 0.884 0.06827 0.1348 0.0
C564 C 0.91422 0.09473 0.13386 0.0
H565 H 0.86697 0.88133 0.13659 0.0
H566 H 0.88971 0.93838 0.1357 0.0
C567 C 0.91814 0.12501 0.13407 0.0
C568 C 0.8787 0.03588 0.13403 0.0
H569 H 0.88201 0.97984 0.16166 0.0
C570 C 0.8618 0.01693 0.11816 0.0
C571 C 0.88685 0.02262 0.14968 0.0
C572 C 0.90469 0.04198 0.16714 0.0
C573 C 0.85185 0.98483 0.11782 0.0
C574 C 0.85846 0.97116 0.13395 0.0
C575 C 0.87675 0.99037 0.14939 0.0
C576 C 0.84495 0.93672 0.13546 0.0
C577 C 0.8339 0.9657 0.1003 0.0
C578 C 0.81227 0.91693 0.13613 0.0
C579 C 0.79921 0.88441 0.13676 0.0
C580 C 0.81856 0.87093 0.13682 0.0
C581 C 0.85137 0.8909 0.13672 0.0
C582 C 0.86443 0.9235 0.13611 0.0
H583 H 0.83859 0.98065 0.08717 0.0
H584 H 0.84001 0.94733 0.09694 0.0
H585 H 0.80837 0.95399 0.10344 0.0
H586 H 0.79682 0.92669 0.13609 0.0
H587 H 0.77391 0.86981 0.13722 0.0
H588 H 0.29096 0.19215 0.40687 0.0
H589 H 0.24493 0.19819 0.40798 0.0
H590 H 0.18624 0.09931 0.41908 0.0
H591 H 0.23264 0.09277 0.41786 0.0
H592 H 0.16183 0.1242 0.39057 0.0
H593 H 0.19756 0.19541 0.45811 0.0
H594 H 0.22793 0.21021 0.43994 0.0
H595 H 0.21485 0.17223 0.45056 0.0
C596 C 0.26838 0.17153 0.40958 0.0
C597 C 0.26567 0.14196 0.41246 0.0
C598 C 0.24202 0.17512 0.41029 0.0
C599 C 0.21224 0.14936 0.41401 0.0
C600 C 0.2091 0.11957 0.41638 0.0
H601 H 0.06194 0.19065 0.43997 0.0
H602 H 0.0964 0.16821 0.4416 0.0
C603 C 0.23563 0.11589 0.41568 0.0
C604 C 0.18473 0.15409 0.41523 0.0
H605 H 0.15886 0.19836 0.43842 0.0
C606 C 0.16088 0.14004 0.4012 0.0
C607 C 0.18322 0.17436 0.42929 0.0
C608 C 0.20709 0.18868 0.44546 0.0
C609 C 0.13644 0.14703 0.40024 0.0
C610 C 0.13621 0.16907 0.41346 0.0
C611 C 0.15918 0.18179 0.42812 0.0
C612 C 0.11331 0.18038 0.41191 0.0
C613 C 0.11123 0.13083 0.38503 0.0
C614 C 0.11133 0.1948 0.39471 0.0
C615 C 0.09143 0.20742 0.39367 0.0
C616 C 0.07327 0.20625 0.4099 0.0
C617 C 0.07519 0.19162 0.42709 0.0
C618 C 0.09504 0.17891 0.42809 0.0
H619 H 0.10879 0.10797 0.38071 0.0
H620 H 0.08816 0.12676 0.39037 0.0
H621 H 0.11767 0.14575 0.37177 0.0
H622 H 0.12571 0.19694 0.38217 0.0
H623 H 0.09034 0.21816 0.38012 0.0
H624 H 0.1467 0.98855 0.13806 0.0
H625 H 0.08953 0.95491 0.13968 0.0
H626 H 0.10066 0.87586 0.15427 0.0
H627 H 0.15772 0.90938 0.15309 0.0
H628 H 0.05167 0.9006 0.11735 0.0
H629 H 0.04 0.87359 0.19642 0.0
H630 H 0.07492 0.90585 0.18593 0.0
H631 H 0.0685 0.86659 0.18457 0.0
C632 C 0.13697 0.9641 0.14191 0.0
C633 C 0.15679 0.95168 0.14554 0.0
C634 C 0.10431 0.94489 0.14271 0.0
C635 C 0.09085 0.913 0.14737 0.0
C636 C 0.11055 0.90054 0.15099 0.0
H637 H 0.9235 0.74076 0.14931 0.0
H638 H 0.97515 0.78699 0.1515 0.0
C639 C 0.14316 0.91966 0.15011 0.0
C640 C 0.05624 0.89226 0.14769 0.0
H641 H 0.99618 0.83944 0.17632 0.0
C642 C 0.03935 0.88761 0.13031 0.0
C643 C 0.04023 0.87556 0.16466 0.0
C644 C 0.05677 0.88084 0.18401 0.0
C645 C 1.00724 0.86516 0.12914 0.0
C646 C 0.99162 0.84728 0.14587 0.0
C647 C 1.0082 0.85313 0.16349 0.0
C648 C 0.9594 0.81982 0.14486 0.0
C649 C 0.9907 0.85943 0.10976 0.0
C650 C 0.93311 0.82288 0.14058 0.0
C651 C 0.90313 0.79618 0.13926 0.0
C652 C 0.89909 0.76609 0.1422 0.0
C653 C 0.92554 0.76342 0.14681 0.0
C654 C 0.95523 0.78991 0.14814 0.0
H655 H 1.00724 0.87212 0.09762 0.0
H656 H 0.97779 0.83399 0.10631 0.0
H657 H 0.97332 0.8675 0.11055 0.0
H658 H 0.93577 0.84583 0.13826 0.0
H659 H 0.88326 0.79911 0.13578 0.0
H660 H 0.867 0.88489 0.40052 0.0
H661 H 0.89145 0.94206 0.39972 0.0
H662 H 0.80407 0.93483 0.41764 0.0
H663 H 0.77905 0.87772 0.41785 0.0
H664 H 0.86958 0.97944 0.37735 0.0
H665 H 0.87273 0.99647 0.45766 0.0
H666 H 0.8694 0.9616 0.44659 0.0
H667 H 0.83568 0.96656 0.44814 0.0
C668 C 0.8528 0.89536 0.40405 0.0
C669 C 0.82098 0.87654 0.4093 0.0
C670 C 0.86693 0.92807 0.40373 0.0
C671 C 0.84967 0.94261 0.4089 0.0
C672 C 0.81792 0.92402 0.41395 0.0
H673 H 0.85096 0.11129 0.39245 0.0
H674 H 0.84607 0.05961 0.39162 0.0
C675 C 0.8037 0.89136 0.41411 0.0
C676 C 0.86441 0.9772 0.40862 0.0
H677 H 0.88099 0.03983 0.43782 0.0
C678 C 0.87258 0.99277 0.39058 0.0
C679 C 0.86867 0.99454 0.42593 0.0
C680 C 0.86144 0.97907 0.44573 0.0
C681 C 0.88314 0.025 0.38931 0.0
C682 C 0.8855 0.04195 0.40651 0.0
C683 C 0.87912 0.02675 0.42466 0.0
C684 C 0.89056 0.07421 0.40575 0.0
C685 C 0.89078 0.04055 0.36954 0.0
C686 C 0.91729 0.09965 0.41402 0.0
C687 C 0.92031 0.12954 0.41442 0.0
C688 C 0.89627 0.1341 0.40694 0.0
C689 C 0.86983 0.10856 0.39845 0.0
C690 C 0.86706 0.07901 0.39783 0.0
H691 H 0.89599 0.02698 0.35869 0.0
H692 H 0.87031 0.0421 0.36419 0.0
H693 H 0.91118 0.06471 0.37043 0.0
H694 H 0.93557 0.09629 0.42035 0.0
H695 H 0.94086 0.14874 0.42113 0.0
H696 H 0.17442 0.0368 0.65027 0.0
H697 H 0.14986 0.0695 0.65094 0.0
H698 H 0.2373 0.1496 0.63327 0.0
H699 H 0.26245 0.11759 0.63325 0.0
H700 H 0.17332 0.13062 0.67333 0.0
H701 H 0.16697 0.14026 0.59282 0.0
H702 H 0.16971 0.10872 0.60439 0.0
H703 H 0.20397 0.1468 0.60212 0.0
C704 C 0.18862 0.06147 0.6468 0.0
C705 C 0.22049 0.07448 0.64165 0.0
C706 C 0.17442 0.08002 0.64704 0.0
C707 C 0.19169 0.11178 0.6419 0.0
C708 C 0.22348 0.12496 0.63698 0.0
H709 H 0.1933 0.28077 0.6551 0.0
H710 H 0.19767 0.2337 0.65639 0.0
C711 C 0.23777 0.10656 0.6369 0.0
C712 C 0.17692 0.13161 0.64198 0.0
H713 H 0.15944 0.1763 0.61214 0.0
C714 C 0.16974 0.1402 0.65995 0.0
C715 C 0.17196 0.14376 0.62449 0.0
C716 C 0.17828 0.13429 0.60481 0.0
C717 C 0.15952 0.16219 0.66093 0.0
C718 C 0.15647 0.17583 0.64351 0.0
C719 C 0.16181 0.16579 0.62547 0.0
C720 C 0.15195 0.20337 0.64385 0.0
C721 C 0.15307 0.17152 0.68062 0.0
C722 C 0.1247 0.2019 0.63629 0.0
C723 C 0.12198 0.22894 0.63563 0.0
C724 C 0.1468 0.25785 0.64213 0.0
C725 C 0.17383 0.25896 0.64984 0.0
C726 C 0.17631 0.23202 0.65073 0.0
H727 H 0.14849 0.15352 0.69191 0.0
H728 H 0.17384 0.19385 0.68525 0.0
H729 H 0.13263 0.17529 0.67991 0.0
H730 H 0.10574 0.17996 0.63078 0.0
H731 H 0.10093 0.22739 0.62957 0.0
H732 H 0.11658 0.83377 0.90615 0.0
H733 H 0.06408 0.82663 0.90668 0.0
H734 H 0.10243 0.92589 0.9152 0.0
H735 H 0.15576 0.93351 0.91465 0.0
H736 H 0.03775 0.84444 0.93882 0.0
H737 H 0.0391 0.90154 0.86827 0.0
H738 H 0.06659 0.88825 0.87335 0.0
H739 H 0.07096 0.92273 0.88511 0.0
C740 C 0.11416 0.85429 0.90807 0.0
C741 C 0.14063 0.88431 0.91039 0.0
C742 C 0.08398 0.85007 0.90837 0.0
C743 C 0.07937 0.87569 0.91088 0.0
C744 C 0.10556 0.90583 0.91303 0.0
H745 H 0.89261 0.8592 0.91136 0.0
H746 H 0.94967 0.88148 0.91223 0.0
C747 C 0.13601 0.91012 0.91278 0.0
C748 C 0.04683 0.87 0.91185 0.0
H749 H 0.99119 0.87586 0.88535 0.0
C750 C 0.02764 0.85164 0.92726 0.0
C751 C 0.03381 0.87956 0.8968 0.0
C752 C 0.05349 0.89901 0.87984 0.0
C753 C 0.9955 0.84171 0.92771 0.0
C754 C 0.98208 0.84983 0.91214 0.0
C755 C 1.00153 0.86946 0.89718 0.0
C756 C 0.94767 0.83666 0.91068 0.0
C757 C 0.97611 0.82224 0.94477 0.0
C758 C 0.92772 0.80415 0.90902 0.0
C759 C 0.89519 0.79136 0.90842 0.0
C760 C 0.88191 0.81084 0.90936 0.0
C761 C 0.90205 0.84353 0.91044 0.0
C762 C 0.93465 0.85631 0.91104 0.0
H763 H 0.9909 0.82571 0.95782 0.0
H764 H 0.95771 0.82808 0.9487 0.0
H765 H 0.96438 0.79706 0.94074 0.0
H766 H 0.93734 0.78861 0.90827 0.0
H767 H 0.88044 0.76617 0.90719 0.0
H768 H 0.81135 0.87965 0.63606 0.0
H769 H 0.858 0.93233 0.63784 0.0
H770 H 0.79837 0.97254 0.64519 0.0
H771 H 0.75222 0.92079 0.64364 0.0
H772 H 0.87445 0.98626 0.61394 0.0
H773 H 0.85937 1.00917 0.69114 0.0
H774 H 0.8397 0.97025 0.68076 0.0
H775 H 0.82415 0.9961 0.67719 0.0
C776 C 0.80823 0.89973 0.63814 0.0
C777 C 0.77794 0.89582 0.63982 0.0
C778 C 0.8349 0.92979 0.63913 0.0
C779 C 0.83166 0.95631 0.64201 0.0
C780 C 0.8015 0.95241 0.64341 0.0
H781 H 0.9245 0.15446 0.64192 0.0
H782 H 0.88993 0.09768 0.6422 0.0
C783 C 0.77503 0.92264 0.6424 0.0
C784 C 0.85935 0.98841 0.64312 0.0
H785 H 0.89114 0.05452 0.67126 0.0
C786 C 0.87859 1.00105 0.6266 0.0
C787 C 0.86475 1.00767 0.65968 0.0
C788 C 0.8461 0.99502 0.67827 0.0
C789 C 0.90182 0.03296 0.6258 0.0
C790 C 0.90596 0.05254 0.64197 0.0
C791 C 0.88773 0.03953 0.65881 0.0
C792 C 0.92752 0.08697 0.64133 0.0
C793 C 0.92069 0.04593 0.60733 0.0
C794 C 0.9602 0.09983 0.64081 0.0
C795 C 0.98016 0.13243 0.64086 0.0
C796 C 0.96777 0.15278 0.64146 0.0
C797 C 0.93495 0.13964 0.64181 0.0
C798 C 0.9151 0.10714 0.64184 0.0
H799 H 0.91172 0.02865 0.59519 0.0
H800 H 0.92039 0.06736 0.60265 0.0
H801 H 0.94547 0.05259 0.61015 0.0
H802 H 0.97028 0.08467 0.64069 0.0
H803 H 1.00528 0.14165 0.64086 0.0
H804 H 0.19952 0.28547 0.91494 0.0
H805 H 0.206 0.23963 0.91446 0.0
H806 H 0.10592 0.17935 0.90947 0.0
H807 H 0.09893 0.22549 0.90999 0.0
H808 H 0.16572 0.17848 0.94249 0.0
H809 H 0.15991 0.16438 0.86154 0.0
H810 H 0.17429 0.20265 0.87231 0.0
H811 H 0.13357 0.1738 0.87438 0.0
C812 C 0.17873 0.26255 0.91374 0.0
C813 C 0.14865 0.25922 0.91243 0.0
C814 C 0.18256 0.23637 0.91351 0.0
C815 C 0.15649 0.20627 0.91187 0.0
C816 C 0.12631 0.20253 0.91072 0.0
H817 H 0.17882 0.04238 0.89229 0.0
H818 H 0.15639 0.07684 0.89389 0.0
C819 C 0.12238 0.22887 0.91107 0.0
C820 C 0.16158 0.17914 0.91126 0.0
H821 H 0.17722 0.13518 0.87957 0.0
C822 C 0.16774 0.16856 0.92878 0.0
C823 C 0.16411 0.16635 0.89335 0.0
C824 C 0.15765 0.1772 0.87423 0.0
C825 C 0.17731 0.14606 0.92884 0.0
C826 C 0.18169 0.13457 0.91084 0.0
C827 C 0.17414 0.14418 0.89335 0.0
C828 C 0.19533 0.11364 0.90983 0.0
C829 C 0.18279 0.13498 0.9482 0.0
C830 C 0.225 0.12314 0.91786 0.0
C831 C 0.23774 0.10336 0.91719 0.0
C832 C 0.22126 0.07375 0.90822 0.0
C833 C 0.19193 0.06473 0.89964 0.0
C834 C 0.17913 0.08449 0.90043 0.0
H835 H 0.16894 0.13781 0.96005 0.0
H836 H 0.17652 0.10999 0.94754 0.0
H837 H 0.20797 0.14927 0.95212 0.0
H838 H 0.23834 0.14589 0.92473 0.0
H839 H 0.26022 0.11105 0.92409 0.0
H840 H 0.1176 0.83945 0.64789 0.0
H841 H 0.06557 0.83334 0.64961 0.0
H842 H 0.10434 0.93197 0.63821 0.0
H843 H 0.15725 0.9385 0.63627 0.0
H844 H 0.0428 0.86373 0.67478 0.0
H845 H 0.03498 0.88699 0.59592 0.0
H846 H 0.06406 0.87804 0.60501 0.0
H847 H 0.06829 0.91586 0.60944 0.0
C848 C 0.11535 0.86002 0.64571 0.0
C849 C 0.14176 0.8895 0.64177 0.0
C850 C 0.08544 0.85642 0.64679 0.0
C851 C 0.08102 0.88209 0.6439 0.0
C852 C 0.10724 0.91176 0.64026 0.0
H853 H 0.89157 0.85923 0.65424 0.0
H854 H 0.94873 0.88282 0.65617 0.0
C855 C 0.13744 0.91546 0.63922 0.0
C856 C 0.04861 0.87692 0.64444 0.0
H857 H 0.98938 0.86961 0.61488 0.0
C858 C 0.03126 0.86559 0.66179 0.0
C859 C 0.03356 0.87908 0.6274 0.0
C860 C 0.05097 0.89047 0.6083 0.0
C861 C 0.99902 0.8554 0.66237 0.0
C862 C 0.98382 0.85653 0.64519 0.0
C863 C 1.00129 0.8689 0.62802 0.0
C864 C 0.94931 0.8424 0.6444 0.0
C865 C 0.98096 0.84214 0.68107 0.0
C866 C 0.93086 0.81181 0.63731 0.0
C867 C 0.89823 0.79806 0.63643 0.0
C868 C 0.88336 0.81476 0.6425 0.0
C869 C 0.90208 0.84547 0.6497 0.0
C870 C 0.93477 0.85914 0.65067 0.0
H871 H 0.99627 0.84298 0.69324 0.0
H872 H 0.96921 0.8555 0.68538 0.0
H873 H 0.96235 0.81741 0.67872 0.0
H874 H 0.94175 0.7985 0.63251 0.0
H875 H 0.88465 0.77424 0.63111 0.0
H876 H 0.99637 0.13979 0.89933 0.0
H877 H 0.96093 0.08305 0.89758 0.0
H878 H 0.88424 0.09498 0.91713 0.0
H879 H 0.91952 0.15154 0.91955 0.0
H880 H 0.92073 0.04126 0.92991 0.0
H881 H 0.85441 0.04289 0.8648 0.0
H882 H 0.89308 0.07476 0.87073 0.0
H883 H 0.85933 0.07043 0.88364 0.0
C884 C 0.97202 0.13039 0.90344 0.0
C885 C 0.96084 0.15038 0.90956 0.0
C886 C 0.95181 0.09795 0.90232 0.0
C887 C 0.91998 0.08493 0.90707 0.0
C888 C 0.90869 0.10468 0.91315 0.0
H889 H 0.74855 0.9161 0.91668 0.0
H890 H 0.79364 0.96858 0.91495 0.0
C891 C 0.92888 0.13705 0.91441 0.0
C892 C 0.89839 0.05063 0.90593 0.0
H893 H 0.83205 0.99551 0.88307 0.0
C894 C 0.90155 0.03105 0.91952 0.0
C895 C 0.87362 0.03753 0.89227 0.0
C896 C 0.86992 0.05738 0.87689 0.0
C897 C 0.87938 0.99885 0.92053 0.0
C898 C 0.85381 0.98598 0.90736 0.0
C899 C 0.85161 1.00541 0.89319 0.0
C900 C 0.82724 0.95339 0.90923 0.0
C901 C 0.88255 0.97924 0.9363 0.0
C902 C 0.83111 0.92716 0.90678 0.0
C903 C 0.8051 0.89671 0.90788 0.0
C904 C 0.77487 0.89217 0.91122 0.0
C905 C 0.77137 0.91859 0.9139 0.0
C906 C 0.79719 0.94873 0.91293 0.0
H907 H 0.9004 0.99385 0.94738 0.0
H908 H 0.85973 0.96459 0.94379 0.0
H909 H 0.88976 0.96328 0.9296 0.0
H910 H 0.85405 0.93022 0.90363 0.0
H911 H 0.80855 0.87686 0.90566 0.0
H912 H 0.38725 0.18413 0.36248 0.0
H913 H 0.39641 0.20407 0.32853 0.0
H914 H 0.30794 0.12482 0.31133 0.0
H915 H 0.2991 0.10495 0.34461 0.0
H916 H 0.39816 0.16791 0.29491 0.0
H917 H 0.30629 0.20005 0.28587 0.0
H918 H 0.32136 0.19783 0.30953 0.0
H919 H 0.29154 0.16285 0.29778 0.0
C920 C 0.36955 0.17153 0.35147 0.0
C921 C 0.34241 0.14307 0.35614 0.0
C922 C 0.37483 0.18279 0.33211 0.0
C923 C 0.35265 0.16612 0.3174 0.0
C924 C 0.32513 0.13842 0.32241 0.0
H925 H 0.30031 0.10009 0.20861 0.0
H926 H 0.31019 0.12138 0.24154 0.0
C927 C 0.32016 0.127 0.34147 0.0
C928 C 0.35857 0.17518 0.2964 0.0
H929 H 0.32044 0.18173 0.2566 0.0
C930 C 0.38197 0.17215 0.28652 0.0
C931 C 0.33747 0.18074 0.28543 0.0
C932 C 0.31294 0.18588 0.29523 0.0
C933 C 0.38272 0.17132 0.26595 0.0
C934 C 0.35964 0.17382 0.25503 0.0
C935 C 0.33811 0.17975 0.26492 0.0
C936 C 0.35327 0.16374 0.23422 0.0
C937 C 0.40634 0.16489 0.25605 0.0
C938 C 0.37383 0.18089 0.21886 0.0
C939 C 0.36796 0.16876 0.1997 0.0
C940 C 0.3417 0.13921 0.19584 0.0
C941 C 0.32079 0.12287 0.21113 0.0
C942 C 0.32639 0.13504 0.23 0.0
H943 H 0.42214 0.16259 0.26666 0.0
H944 H 0.39401 0.14296 0.24738 0.0
H945 H 0.42088 0.18428 0.24582 0.0
H946 H 0.39465 0.20321 0.22177 0.0
H947 H 0.38454 0.18171 0.18818 0.0
H948 H 0.8278 0.65324 0.36166 0.0
H949 H 0.83873 0.64297 0.32804 0.0
H950 H 0.83565 0.72433 0.30783 0.0
H951 H 0.82477 0.73438 0.34086 0.0
H952 H 0.79846 0.63099 0.29605 0.0
H953 H 0.91341 0.73451 0.27997 0.0
H954 H 0.89945 0.72248 0.30465 0.0
H955 H 0.8876 0.74604 0.29092 0.0
C956 C 0.83029 0.66926 0.35006 0.0
C957 C 0.82555 0.69466 0.35385 0.0
C958 C 0.8364 0.66335 0.33087 0.0
C959 C 0.83857 0.6832 0.3154 0.0
C960 C 0.83489 0.70909 0.31949 0.0
H961 H 0.77406 0.68047 0.20698 0.0
H962 H 0.78517 0.67168 0.24018 0.0
C963 C 0.82842 0.71469 0.33841 0.0
C964 C 0.84107 0.6757 0.2946 0.0
H965 H 0.87776 0.71198 0.2521 0.0
C966 C 0.81638 0.64823 0.2865 0.0
C967 C 0.86465 0.69783 0.28204 0.0
C968 C 0.89295 0.7267 0.2899 0.0
C969 C 0.81293 0.64397 0.26615 0.0
C970 C 0.83449 0.6679 0.25356 0.0
C971 C 0.86096 0.69375 0.26168 0.0
C972 C 0.82676 0.66947 0.23271 0.0
C973 C 0.78514 0.61466 0.25826 0.0
C974 C 0.84652 0.67126 0.21723 0.0
C975 C 0.83993 0.67605 0.1979 0.0
C976 C 0.81402 0.67993 0.19401 0.0
C977 C 0.7942 0.67756 0.2095 0.0
C978 C 0.8004 0.6723 0.22853 0.0
H979 H 0.77781 0.59468 0.26849 0.0
H980 H 0.76504 0.61877 0.25654 0.0
H981 H 0.79046 0.60816 0.24381 0.0
H982 H 0.86723 0.66954 0.22015 0.0
H983 H 0.85574 0.6781 0.18623 0.0
H984 H 0.91403 0.17894 0.19893 0.0
H985 H 0.89901 0.17191 0.23332 0.0
H986 H 0.84548 0.21836 0.22383 0.0
H987 H 0.85969 0.22431 0.18897 0.0
H988 H 0.91967 0.22295 0.25533 0.0
H989 H 0.79037 0.15139 0.26352 0.0
H990 H 0.8105 0.15148 0.2414 0.0
H991 H 0.80333 0.18317 0.24644 0.0
C992 C 0.8979 0.18639 0.20402 0.0
C993 C 0.88774 0.20186 0.19133 0.0
C994 C 0.88946 0.18254 0.22371 0.0
C995 C 0.87113 0.19462 0.2313 0.0
C996 C 0.85914 0.20828 0.21834 0.0
H997 H 0.89926 0.2703 0.34764 0.0
H998 H 0.88776 0.25943 0.31287 0.0
C999 C 0.86721 0.21166 0.1984 0.0
C1000 C 0.86927 0.19732 0.25291 0.0
H1001 H 0.81936 0.17911 0.29188 0.0
C1002 C 0.89766 0.21311 0.26326 0.0
C1003 C 0.84062 0.18453 0.26338 0.0
C1004 C 0.80944 0.16643 0.25318 0.0
C1005 C 0.89829 0.21665 0.2836 0.0
C1006 C 0.86974 0.20463 0.29403 0.0
C1007 C 0.84122 0.18847 0.28384 0.0
C1008 C 0.86987 0.20958 0.31547 0.0
C1009 C 0.92967 0.2332 0.29381 0.0
C1010 C 0.86213 0.18489 0.32866 0.0
C1011 C 0.8685 0.19104 0.34869 0.0
C1012 C 0.88288 0.22201 0.35569 0.0
C1013 C 0.88838 0.24624 0.34263 0.0
C1014 C 0.88181 0.24007 0.32276 0.0
H1015 H 0.94887 0.23481 0.28444 0.0
H1016 H 0.93533 0.25738 0.29762 0.0
H1017 H 0.92901 0.22091 0.30755 0.0
H1018 H 0.85296 0.16118 0.32333 0.0
H1019 H 0.86411 0.17193 0.35842 0.0
H1020 H 0.19228 0.34139 0.68769 0.0
H1021 H 0.20935 0.34455 0.72182 0.0
H1022 H 0.14772 0.37912 0.73898 0.0
H1023 H 0.13185 0.3773 0.7052 0.0
H1024 H 0.20015 0.40736 0.75973 0.0
H1025 H 0.1548 0.27865 0.76044 0.0
H1026 H 0.18629 0.30125 0.74373 0.0
H1027 H 0.14853 0.29786 0.74 0.0
C1028 C 0.1829 0.35019 0.69875 0.0
C1029 C 0.16035 0.35863 0.69382 0.0
C1030 C 0.19243 0.35172 0.71828 0.0
C1031 C 0.17924 0.36131 0.73316 0.0
C1032 C 0.15821 0.3715 0.72791 0.0
H1033 H 0.10241 0.30289 0.84091 0.0
H1034 H 0.12318 0.31299 0.80799 0.0
C1035 C 0.14899 0.37028 0.70853 0.0
C1036 C 0.18482 0.35874 0.75436 0.0
H1037 H 0.16766 0.30447 0.79036 0.0
C1038 C 0.19366 0.38499 0.76644 0.0
C1039 C 0.17643 0.32955 0.76317 0.0
C1040 C 0.16577 0.30013 0.75125 0.0
C1041 C 0.19183 0.38232 0.78694 0.0
C1042 C 0.18162 0.35273 0.79567 0.0
C1043 C 0.17549 0.32714 0.78365 0.0
C1044 C 0.17089 0.34621 0.81641 0.0
C1045 C 0.19835 0.41062 0.79898 0.0
C1046 C 0.19084 0.36125 0.83242 0.0
C1047 C 0.17876 0.35555 0.85161 0.0
C1048 C 0.14666 0.3347 0.85493 0.0
C1049 C 0.12723 0.31919 0.83891 0.0
C1050 C 0.13913 0.32486 0.81999 0.0
H1051 H 0.20233 0.43085 0.78977 0.0
H1052 H 0.17845 0.40485 0.80903 0.0
H1053 H 0.21963 0.41785 0.80797 0.0
H1054 H 0.21556 0.37749 0.8301 0.0
H1055 H 0.19426 0.36778 0.86371 0.0
H1056 H 0.21874 0.84107 0.86151 0.0
H1057 H 0.20808 0.82028 0.82776 0.0
H1058 H 0.19964 0.89945 0.80926 0.0
H1059 H 0.21026 0.91999 0.84236 0.0
H1060 H 0.15291 0.83982 0.79314 0.0
H1061 H 0.27578 0.86427 0.7836 0.0
H1062 H 0.25264 0.84043 0.80378 0.0
H1063 H 0.26541 0.88148 0.80347 0.0
C1064 C 0.21392 0.85352 0.85025 0.0
C1065 C 0.21542 0.88218 0.8545 0.0
C1066 C 0.20811 0.84182 0.83098 0.0
C1067 C 0.20337 0.85851 0.81591 0.0
C1068 C 0.20322 0.88615 0.82056 0.0
H1069 H 0.21045 0.92223 0.70688 0.0
H1070 H 0.19861 0.90051 0.73973 0.0
C1071 C 0.20934 0.8979 0.83953 0.0
C1072 C 0.20057 0.84932 0.79495 0.0
H1073 H 0.24676 0.85865 0.75527 0.0
C1074 C 0.17311 0.84291 0.7849 0.0
C1075 C 0.22686 0.85327 0.78412 0.0
C1076 C 0.25697 0.86031 0.79415 0.0
C1077 C 0.17212 0.84289 0.76438 0.0
C1078 C 0.19938 0.84986 0.75357 0.0
C1079 C 0.22587 0.85333 0.76355 0.0
C1080 C 0.20292 0.85997 0.73278 0.0
C1081 C 0.14246 0.83734 0.75442 0.0
C1082 C 0.20914 0.84431 0.71772 0.0
C1083 C 0.21554 0.85662 0.69861 0.0
C1084 C 0.21659 0.88512 0.69455 0.0
C1085 C 0.20968 0.90017 0.70956 0.0
C1086 C 0.20279 0.8877 0.72837 0.0
H1087 H 0.12147 0.82246 0.76352 0.0
H1088 H 0.14355 0.86017 0.75212 0.0
H1089 H 0.13963 0.82597 0.73997 0.0
H1090 H 0.20968 0.82303 0.72085 0.0
H1091 H 0.22119 0.84479 0.68733 0.0
H1092 H 0.65412 0.81566 0.68769 0.0
H1093 H 0.64465 0.82642 0.72159 0.0
H1094 H 0.73381 0.83729 0.7389 0.0
H1095 H 0.74296 0.82627 0.70568 0.0
H1096 H 0.6434 0.78906 0.7552 0.0
H1097 H 0.73398 0.91333 0.7644 0.0
H1098 H 0.71932 0.89595 0.74071 0.0
H1099 H 0.74936 0.89129 0.75261 0.0
C1100 C 0.67191 0.82114 0.69871 0.0
C1101 C 0.69933 0.82027 0.69409 0.0
C1102 C 0.66645 0.82711 0.71805 0.0
C1103 C 0.68872 0.83305 0.73278 0.0
C1104 C 0.71653 0.83336 0.72781 0.0
H1105 H 0.74051 0.8203 0.84216 0.0
H1106 H 0.73089 0.83139 0.80909 0.0
C1107 C 0.72168 0.82693 0.70878 0.0
C1108 C 0.68261 0.83607 0.75378 0.0
H1109 H 0.72004 0.88092 0.79367 0.0
C1110 C 0.65936 0.80955 0.76362 0.0
C1111 C 0.70339 0.8628 0.7648 0.0
C1112 C 0.72772 0.89257 0.75505 0.0
C1113 C 0.65844 0.80797 0.78419 0.0
C1114 C 0.68121 0.83366 0.79516 0.0
C1115 C 0.70261 0.86117 0.78531 0.0
C1116 C 0.68739 0.83013 0.81605 0.0
C1117 C 0.63499 0.77786 0.79404 0.0
C1118 C 0.6665 0.82653 0.83125 0.0
C1119 C 0.67221 0.82045 0.8505 0.0
C1120 C 0.69866 0.81754 0.8546 0.0
C1121 C 0.71988 0.82231 0.83946 0.0
C1122 C 0.71444 0.8287 0.8205 0.0
H1123 H 0.61951 0.75965 0.78339 0.0
H1124 H 0.64746 0.76854 0.80285 0.0
H1125 H 0.62011 0.78248 0.80414 0.0
H1126 H 0.64555 0.82774 0.82817 0.0
H1127 H 0.65539 0.81669 0.86189 0.0
H1128 H 0.28954 0.94626 0.9541 0.0
H1129 H 0.30587 0.98424 0.98081 0.0
H1130 H 0.21078 0.93845 1.00246 0.0
H1131 H 0.19456 0.8998 0.97598 0.0
H1132 H 0.28997 0.02667 0.99026 0.0
H1133 H 0.25678 0.94259 0.05161 0.0
H1134 H 0.25728 0.93135 0.0266 0.0
H1135 H 0.22456 0.93436 0.03575 0.0
C1136 C 0.27213 0.94419 0.96462 0.0
C1137 C 0.24077 0.91995 0.96298 0.0
C1138 C 0.28148 0.96599 0.97989 0.0
C1139 C 0.25975 0.96412 0.99395 0.0
C1140 C 0.22826 0.94007 0.99217 0.0
H1141 H 0.30352 0.12192 0.07377 0.0
H1142 H 0.28211 0.0833 0.04722 0.0
C1143 C 0.21894 0.91806 0.97696 0.0
C1144 C 0.27019 0.98764 1.01018 0.0
H1145 H 0.27297 0.99521 0.05994 0.0
C1146 C 0.28623 0.01974 1.0055 0.0
C1147 C 0.26574 0.9788 0.03015 0.0
C1148 C 0.25044 0.94493 0.03638 0.0
C1149 C 0.29793 0.04309 1.02006 0.0
C1150 C 0.29282 0.03425 0.04002 0.0
C1151 C 0.27671 1.00214 0.04471 0.0
C1152 C 0.30524 0.05776 0.05628 0.0
C1153 C 0.3166 0.07698 1.01387 0.0
C1154 C 0.32465 0.05594 0.07066 0.0
C1155 C 0.33651 0.07772 0.08596 0.0
C1156 C 0.32925 0.10189 0.08732 0.0
C1157 C 0.30973 0.10372 0.07303 0.0
C1158 C 0.29763 0.08172 0.05777 0.0
H1159 H 0.32583 0.07938 0.99876 0.0
H1160 H 0.30119 0.08744 1.01418 0.0
H1161 H 0.33667 0.09062 1.02386 0.0
H1162 H 0.33089 0.03775 0.06996 0.0
H1163 H 0.35151 0.07568 0.09672 0.0
H1164 H 0.75571 0.68208 0.45444 0.0
H1165 H 0.73961 0.70469 0.48071 0.0
H1166 H 0.8354 0.7572 0.50068 0.0
H1167 H 0.85154 0.73401 0.47449 0.0
H1168 H 0.79556 0.73184 0.53105 0.0
H1169 H 0.75137 0.7916 0.48317 0.0
H1170 H 0.73308 0.75052 0.47789 0.0
H1171 H 0.77463 0.77533 0.47404 0.0
C1172 C 0.77338 0.6985 0.46441 0.0
C1173 C 0.80497 0.7065 0.46227 0.0
C1174 C 0.76418 0.71164 0.47936 0.0
C1175 C 0.78634 0.73333 0.49249 0.0
C1176 C 0.81784 0.74078 0.49067 0.0
H1177 H 0.73811 0.84398 0.5722 0.0
H1178 H 0.76145 0.82797 0.54603 0.0
C1179 C 0.82707 0.7275 0.47571 0.0
C1180 C 0.77634 0.74747 0.50834 0.0
H1181 H 0.73567 0.78599 0.51678 0.0
C1182 C 0.78268 0.74389 0.52789 0.0
C1183 C 0.76011 0.76389 0.50435 0.0
C1184 C 0.75469 0.77089 0.48373 0.0
C1185 C 0.77224 0.75511 0.54346 0.0
C1186 C 0.75421 0.76968 0.53949 0.0
C1187 C 0.74896 0.77438 0.51993 0.0
C1188 C 0.74011 0.77961 0.55541 0.0
C1189 C 0.781 0.75155 0.56402 0.0
C1190 C 0.71981 0.75777 0.56924 0.0
C1191 C 0.70656 0.7669 0.58417 0.0
C1192 C 0.71309 0.79808 0.58562 0.0
C1193 C 0.73277 0.81983 0.57154 0.0
C1194 C 0.74612 0.81068 0.55658 0.0
H1195 H 0.80246 0.74943 0.56427 0.0
H1196 H 0.78511 0.77178 0.57328 0.0
H1197 H 0.76161 0.7299 0.57057 0.0
H1198 H 0.71396 0.73348 0.56841 0.0
H1199 H 0.69116 0.74947 0.59464 0.0
H1200 H 0.13685 0.30058 0.97654 0.0
H1201 H 0.09699 0.27634 1.00239 0.0
H1202 H 0.05169 0.32649 0.98162 0.0
H1203 H 0.09087 0.35006 0.95569 0.0
H1204 H 0.07991 0.30005 0.03246 0.0
H1205 H 0.97859 0.23835 0.98281 0.0
H1206 H 1.01861 0.2562 0.97432 0.0
H1207 H 1.00022 0.27958 0.97783 0.0
C1208 C 0.11837 0.30639 0.97755 0.0
C1209 C 0.11675 0.32691 0.96396 0.0
C1210 C 0.09556 0.2925 0.9923 0.0
C1211 C 0.07076 0.29892 0.99373 0.0
C1212 C 0.0699 0.32032 0.98053 0.0
H1213 H 0.9543 0.27875 0.0936 0.0
H1214 H 0.9945 0.29562 0.06821 0.0
C1215 C 0.09251 0.33401 0.96579 0.0
C1216 C 0.04606 0.28385 1.00914 0.0
H1217 H 0.96653 0.24344 1.01612 0.0
C1218 C 0.05513 0.28743 0.02885 0.0
C1219 C 1.01364 0.26669 1.00455 0.0
C1220 C 1.00218 0.25965 0.98372 0.0
C1221 C 0.03279 0.27554 0.04403 0.0
C1222 C 1.00034 0.26029 0.03946 0.0
C1223 C 0.9913 0.25555 1.01973 0.0
C1224 C 0.97552 0.24983 0.05487 0.0
C1225 C 0.04427 0.2792 0.06483 0.0
C1226 C 0.9505 0.21868 0.0555 0.0
C1227 C 0.92711 0.20907 0.06991 0.0
C1228 C 0.9283 0.23041 0.08398 0.0
C1229 C 0.95295 0.26166 0.0831 0.0
C1230 C 0.97615 0.27128 0.06867 0.0
H1231 H 0.06785 0.2814 0.06553 0.0
H1232 H 0.04627 0.3009 0.07112 0.0
H1233 H 0.02785 0.25903 0.07402 0.0
H1234 H 0.94923 0.20169 0.04495 0.0
H1235 H 0.90834 0.18487 0.07019 0.0
H1236 H 0.35432 0.08307 0.45556 0.0
H1237 H 0.33159 0.04421 0.48168 0.0
H1238 H 0.28336 0.09061 0.50404 0.0
H1239 H 0.30674 0.13013 0.47799 0.0
H1240 H 0.3085 0.07411 0.53335 0.0
H1241 H 0.24352 0.97147 0.48514 0.0
H1242 H 0.28448 0.99283 0.47917 0.0
H1243 H 0.26095 1.0112 0.47629 0.0
C1244 C 0.33881 0.08498 0.46602 0.0
C1245 C 0.33208 0.10951 0.4646 0.0
C1246 C 0.32559 0.06255 0.48088 0.0
C1247 C 0.30505 0.06386 0.49465 0.0
C1248 C 0.29887 0.08882 0.49353 0.0
H1249 H 0.1938 0.90473 0.57388 0.0
H1250 H 0.2099 0.94469 0.54815 0.0
C1251 C 0.31226 0.11143 0.47865 0.0
C1252 C 0.29082 0.03961 0.5104 0.0
H1253 H 0.2503 0.96038 0.51832 0.0
C1254 C 0.29556 0.04926 0.53003 0.0
C1255 C 0.27323 1.00709 0.50622 0.0
C1256 C 0.26493 0.99502 0.48557 0.0
C1257 C 0.28436 0.0274 0.54547 0.0
C1258 C 0.26865 0.99485 0.54126 0.0
C1259 C 0.2628 0.98523 0.52165 0.0
C1260 C 0.25867 0.97051 0.55695 0.0
C1261 C 0.28917 0.0395 0.56616 0.0
C1262 C 0.28068 0.97117 0.5703 0.0
C1263 C 0.27148 0.94846 0.585 0.0
C1264 C 0.24007 0.92433 0.58665 0.0
C1265 C 0.21813 0.92312 0.57304 0.0
C1266 C 0.22734 0.94598 0.55834 0.0
H1267 H 0.29196 0.0633 0.56681 0.0
H1268 H 0.2692 0.02363 0.57569 0.0
H1269 H 0.3109 0.04111 0.57211 0.0
H1270 H 0.30514 0.98916 0.56927 0.0
H1271 H 0.28903 0.9498 0.59511 0.0
H1272 H 0.85032 0.72821 0.07258 0.0
H1273 H 0.83415 0.75154 0.04649 0.0
H1274 H 0.73839 0.69897 0.06662 0.0
H1275 H 0.75446 0.67623 0.09273 0.0
H1276 H 0.79379 0.72641 1.01611 0.0
H1277 H 0.75064 0.78614 0.06491 0.0
H1278 H 0.77375 0.76956 0.07372 0.0
H1279 H 0.73213 0.74502 0.07009 0.0
C1280 C 0.82585 0.7217 0.0714 0.0
C1281 C 0.80374 0.70068 0.08485 0.0
C1282 C 0.81661 0.73507 0.0565 0.0
C1283 C 0.7851 0.72767 0.05479 0.0
C1284 C 0.76295 0.70589 0.0679 0.0
H1285 H 0.68801 0.7435 0.95377 0.0
H1286 H 0.71159 0.7277 0.97957 0.0
C1287 C 0.77215 0.69267 0.08276 0.0
C1288 C 0.77502 0.742 0.03915 0.0
H1289 H 0.73389 0.78023 0.03149 0.0
C1290 C 0.78094 0.73842 1.0195 0.0
C1291 C 0.75881 0.75835 0.04345 0.0
C1292 C 0.75376 0.76532 0.06419 0.0
C1293 C 0.77004 0.74951 1.00413 0.0
C1294 C 0.75197 0.76396 1.00842 0.0
C1295 C 0.74721 0.76871 0.02808 0.0
C1296 C 0.73732 0.77371 0.99277 0.0
C1297 C 0.77831 0.74586 0.98343 0.0
C1298 C 0.74273 0.80459 0.9919 0.0
C1299 C 0.72885 0.81359 0.97723 0.0
C1300 C 0.70927 0.79189 0.96312 0.0
C1301 C 0.70331 0.76088 0.96427 0.0
C1302 C 0.71703 0.75187 0.97895 0.0
H1303 H 0.80004 0.74425 0.98289 0.0
H1304 H 0.75901 0.72388 0.97716 0.0
H1305 H 0.78171 0.76576 0.9741 0.0
H1306 H 0.75801 0.82187 1.00246 0.0
H1307 H 0.73378 0.83761 0.97677 0.0
H1308 H 0.13252 0.29172 0.57403 0.0
H1309 H 0.09357 0.26881 0.54771 0.0
H1310 H 0.04877 0.31952 0.56844 0.0
H1311 H 0.08719 0.34193 0.59484 0.0
H1312 H 1.00575 0.25983 0.5596 0.0
H1313 H 0.08996 0.31132 0.49813 0.0
H1314 H 0.09825 0.28781 0.51439 0.0
H1315 H 0.10094 0.32353 0.5231 0.0
C1316 C 0.1144 0.29802 0.5729 0.0
C1317 C 0.11299 0.31869 0.5865 0.0
C1318 C 0.0922 0.28503 0.55778 0.0
C1319 C 0.06836 0.29274 0.5558 0.0
C1320 C 0.06686 0.31317 0.56954 0.0
H1321 H 0.95534 0.2768 0.455 0.0
H1322 H 0.99374 0.29255 0.48138 0.0
C1323 C 0.0889 0.32601 0.58465 0.0
C1324 C 0.04478 0.27958 0.53961 0.0
H1325 H 0.03708 0.27608 0.48985 0.0
C1326 C 1.01264 0.26331 0.54435 0.0
C1327 C 0.05359 0.28435 0.51965 0.0
C1328 C 0.08753 0.30294 0.51344 0.0
C1329 C 0.98925 0.25194 0.52981 0.0
C1330 C 0.99806 0.25631 0.50984 0.0
C1331 C 0.0302 0.27242 0.50511 0.0
C1332 C 0.97448 0.24604 0.49366 0.0
C1333 C 0.95529 0.23632 0.53602 0.0
C1334 C 0.95081 0.21449 0.49148 0.0
C1335 C 0.92862 0.20542 0.47636 0.0
C1336 C 0.92986 0.22765 0.46297 0.0
C1337 C 0.95377 0.25906 0.46502 0.0
C1338 C 0.9758 0.26811 0.48012 0.0
H1339 H 0.95279 0.24196 0.5514 0.0
H1340 H 0.94177 0.24353 0.52649 0.0
H1341 H 0.94475 0.21052 0.53487 0.0
H1342 H 0.94959 0.1968 0.5014 0.0
H1343 H 0.91065 0.18101 0.47508 0.0
H1344 H 0.66129 0.12752 0.12198 0.0
H1345 H 0.60782 0.11804 0.1261 0.0
H1346 H 0.64171 0.19608 0.16589 0.0
H1347 H 0.69552 0.2059 0.16174 0.0
H1348 H 0.57129 0.108 0.16307 0.0
H1349 H 0.59405 0.21357 0.12046 0.0
H1350 H 0.61884 0.19631 0.11857 0.0
H1351 H 0.62133 0.21911 0.13964 0.0
C1352 C 0.65741 0.14274 0.13158 0.0
C1353 C 0.68271 0.1677 0.14137 0.0
C1354 C 0.62681 0.13713 0.13402 0.0
C1355 C 0.62087 0.1565 0.14616 0.0
C1356 C 0.64588 0.18101 0.15634 0.0
H1357 H 0.45565 0.17431 0.16148 0.0
H1358 H 0.50748 0.17944 0.16338 0.0
C1359 C 0.67655 0.18649 0.15403 0.0
C1360 C 0.5886 0.15156 0.14758 0.0
H1361 H 0.5436 0.1831 0.13382 0.0
C1362 C 0.56516 0.12441 0.15675 0.0
C1363 C 0.58075 0.17299 0.13927 0.0
C1364 C 0.60491 0.20208 0.12879 0.0
C1365 C 0.53405 0.11835 0.1581 0.0
C1366 C 0.52605 0.13961 0.14955 0.0
C1367 C 0.54965 0.16678 0.1404 0.0
C1368 C 0.49356 0.13458 0.14997 0.0
C1369 C 0.5103 0.08961 0.16903 0.0
C1370 C 0.46814 0.10739 0.14202 0.0
C1371 C 0.43817 0.10418 0.14113 0.0
C1372 C 0.43325 0.12839 0.14781 0.0
C1373 C 0.45862 0.15527 0.15607 0.0
C1374 C 0.48834 0.15827 0.15718 0.0
H1375 H 0.52183 0.08128 0.17948 0.0
H1376 H 0.49356 0.09427 0.17722 0.0
H1377 H 0.49682 0.07043 0.15846 0.0
H1378 H 0.47164 0.08908 0.13592 0.0
H1379 H 0.41921 0.08335 0.1345 0.0
H1380 H 0.7495 0.57624 0.39536 0.0
H1381 H 0.70235 0.52487 0.39337 0.0
H1382 H 0.64586 0.56522 0.41064 0.0
H1383 H 0.69323 0.61715 0.41273 0.0
H1384 H 0.63453 0.51024 0.43216 0.0
H1385 H 0.63132 0.49143 0.35214 0.0
H1386 H 0.66881 0.50352 0.36314 0.0
H1387 H 0.65334 0.52976 0.36316 0.0
C1388 C 0.72709 0.5744 0.39863 0.0
C1389 C 0.72523 0.60095 0.40423 0.0
C1390 C 0.70009 0.54494 0.39735 0.0
C1391 C 0.67055 0.54124 0.40162 0.0
C1392 C 0.66844 0.56762 0.40714 0.0
H1393 H 0.49237 0.36606 0.38639 0.0
H1394 H 0.53508 0.42049 0.38446 0.0
C1395 C 0.69552 0.59728 0.40829 0.0
C1396 C 0.64228 0.50947 0.40128 0.0
H1397 H 0.59924 0.44633 0.37166 0.0
C1398 C 0.62661 0.49637 0.41891 0.0
C1399 C 0.63184 0.49147 0.38395 0.0
C1400 C 0.64698 0.50479 0.36447 0.0
C1401 C 0.60146 0.46538 0.41979 0.0
C1402 C 0.59191 0.44692 0.40261 0.0
C1403 C 0.60683 0.46039 0.38485 0.0
C1404 C 0.56668 0.4135 0.40291 0.0
C1405 C 0.5853 0.4526 0.4391 0.0
C1406 C 0.57061 0.39127 0.41347 0.0
C1407 C 0.54639 0.36004 0.41442 0.0
C1408 C 0.51766 0.3503 0.40484 0.0
C1409 C 0.51423 0.37252 0.39377 0.0
C1410 C 0.53854 0.40374 0.39276 0.0
H1411 H 0.59021 0.47164 0.44966 0.0
H1412 H 0.55951 0.43799 0.43714 0.0
H1413 H 0.59391 0.43759 0.44551 0.0
H1414 H 0.59239 0.39815 0.42108 0.0
H1415 H 0.55015 0.34354 0.42278 0.0
H1416 H 0.9462 0.33768 0.13332 0.0
H1417 H 0.94031 0.38425 0.13504 0.0
H1418 H 0.84888 0.32882 0.16119 0.0
H1419 H 0.85426 0.28235 0.15914 0.0
H1420 H 0.84668 0.36184 0.13097 0.0
H1421 H 0.94486 0.4405 0.17959 0.0
H1422 H 0.95689 0.42665 0.15889 0.0
H1423 H 0.93184 0.39928 0.17714 0.0
C1424 C 0.92511 0.33557 0.13975 0.0
C1425 C 0.90067 0.30624 0.146 0.0
C1426 C 0.9218 0.36225 0.1408 0.0
C1427 C 0.89421 0.36016 0.14838 0.0
C1428 C 0.87034 0.33108 0.15524 0.0
H1429 H 0.85823 0.51299 0.17492 0.0
H1430 H 0.86825 0.469 0.1766 0.0
C1431 C 0.87349 0.30448 0.15405 0.0
C1432 C 0.88891 0.38741 0.14792 0.0
H1433 H 0.91811 0.46304 0.16328 0.0
C1434 C 0.86229 0.38393 0.13811 0.0
C1435 C 0.90903 0.41615 0.1574 0.0
C1436 C 0.9371 0.42088 0.16902 0.0
C1437 C 0.85534 0.40831 0.13736 0.0
C1438 C 0.87598 0.4374 0.14627 0.0
C1439 C 0.90243 0.44084 0.1563 0.0
C1440 C 0.87043 0.46445 0.14528 0.0
C1441 C 0.82555 0.4024 0.12733 0.0
C1442 C 0.86872 0.47681 0.12716 0.0
C1443 C 0.86285 0.50178 0.12616 0.0
C1444 C 0.8589 0.51526 0.14329 0.0
C1445 C 0.86121 0.50322 0.16146 0.0
C1446 C 0.86692 0.47807 0.16244 0.0
H1447 H 0.80823 0.37694 0.12634 0.0
H1448 H 0.81448 0.41417 0.13515 0.0
H1449 H 0.83117 0.41183 0.11224 0.0
H1450 H 0.87214 0.46726 0.11374 0.0
H1451 H 0.86202 0.51095 0.11194 0.0
H1452 H 0.45893 0.17999 0.39177 0.0
H1453 H 0.51069 0.18479 0.39122 0.0
H1454 H 0.47226 0.09312 0.41722 0.0
H1455 H 0.41996 0.08781 0.41742 0.0
H1456 H 0.54443 0.18609 0.4222 0.0
H1457 H 0.52528 0.08742 0.37414 0.0
H1458 H 0.49743 0.10104 0.37588 0.0
H1459 H 0.49857 0.07573 0.39439 0.0
C1460 C 0.46129 0.16059 0.39714 0.0
C1461 C 0.43518 0.13347 0.40466 0.0
C1462 C 0.491 0.16342 0.39683 0.0
C1463 C 0.49549 0.13927 0.40402 0.0
C1464 C 0.46938 0.11184 0.41118 0.0
H1465 H 0.66202 0.12655 0.42887 0.0
H1466 H 0.60881 0.11807 0.42577 0.0
C1467 C 0.43945 0.10886 0.41136 0.0
C1468 C 0.52785 0.14396 0.40517 0.0
H1469 H 0.57383 0.11331 0.39126 0.0
C1470 C 0.55085 0.17025 0.41532 0.0
C1471 C 0.53633 0.12329 0.39624 0.0
C1472 C 0.5132 0.09545 0.38439 0.0
C1473 C 0.58184 0.17622 0.417 0.0
C1474 C 0.59029 0.15555 0.40812 0.0
C1475 C 0.56733 0.12918 0.39803 0.0
C1476 C 0.6227 0.16065 0.40949 0.0
C1477 C 0.60515 0.20426 0.42864 0.0
C1478 C 0.64825 0.18725 0.40115 0.0
C1479 C 0.67882 0.19226 0.40297 0.0
C1480 C 0.68445 0.17078 0.4132 0.0
C1481 C 0.65867 0.1439 0.42123 0.0
C1482 C 0.62816 0.13885 0.41933 0.0
H1483 H 0.59339 0.21365 0.43811 0.0
H1484 H 0.6198 0.19816 0.43795 0.0
H1485 H 0.62097 0.22314 0.41847 0.0
H1486 H 0.64455 0.20417 0.39326 0.0
H1487 H 0.69808 0.2132 0.39664 0.0
H1488 H 0.50909 0.34892 0.17054 0.0
H1489 H 0.55373 0.40223 0.17319 0.0
H1490 H 0.5742 0.40075 0.11207 0.0
H1491 H 0.53099 0.347 0.10957 0.0
H1492 H 0.62634 0.42669 0.13228 0.0
H1493 H 0.55596 0.4808 0.15504 0.0
H1494 H 0.55203 0.45049 0.17131 0.0
H1495 H 0.5382 0.44085 0.14656 0.0
C1496 C 0.52337 0.35972 0.15772 0.0
C1497 C 0.5161 0.34362 0.13978 0.0
C1498 C 0.54861 0.39047 0.15919 0.0
C1499 C 0.56686 0.40594 0.1427 0.0
C1500 C 0.56027 0.38956 0.12496 0.0
H1501 H 0.69382 0.60682 0.12684 0.0
H1502 H 0.64831 0.55351 0.12761 0.0
C1503 C 0.53532 0.3588 0.12353 0.0
C1504 C 0.59316 0.43897 0.1438 0.0
H1505 H 0.61142 0.51366 0.15577 0.0
C1506 C 0.62302 0.44568 0.13741 0.0
C1507 C 0.5888 0.46395 0.15014 0.0
C1508 C 0.55696 0.45879 0.15596 0.0
C1509 C 0.64858 0.47643 0.13727 0.0
C1510 C 0.64454 0.50124 0.14435 0.0
C1511 C 0.61463 0.49464 0.15058 0.0
C1512 C 0.67108 0.53414 0.1452 0.0
C1513 C 0.67944 0.48205 0.12899 0.0
C1514 C 0.69858 0.54129 0.15541 0.0
C1515 C 0.72461 0.57149 0.15477 0.0
C1516 C 0.72354 0.59548 0.14427 0.0
C1517 C 0.69537 0.58884 0.13504 0.0
C1518 C 0.66939 0.55838 0.13544 0.0
H1519 H 0.6761 0.46293 0.11892 0.0
H1520 H 0.69173 0.50462 0.12095 0.0
H1521 H 0.69475 0.4828 0.14111 0.0
H1522 H 0.70017 0.52332 0.1636 0.0
H1523 H 0.74578 0.57594 0.16233 0.0
H1524 H 0.82011 0.49216 0.39529 0.0
H1525 H 0.82895 0.44733 0.3944 0.0
H1526 H 0.91542 0.50099 0.42618 0.0
H1527 H 0.90656 0.54551 0.42732 0.0
H1528 H 0.87659 0.44071 0.37902 0.0
H1529 H 0.87174 0.42278 0.45914 0.0
H1530 H 0.85952 0.44795 0.44774 0.0
H1531 H 0.9005 0.46177 0.45192 0.0
C1532 C 0.841 0.49436 0.40206 0.0
C1533 C 0.86238 0.52224 0.41163 0.0
C1534 C 0.84601 0.46873 0.40158 0.0
C1535 C 0.8725 0.47051 0.41062 0.0
C1536 C 0.89432 0.49865 0.41964 0.0
H1537 H 0.94463 0.34046 0.42008 0.0
H1538 H 0.93958 0.38764 0.41932 0.0
C1539 C 0.88923 0.52413 0.42025 0.0
C1540 C 0.8776 0.44315 0.41043 0.0
H1541 H 0.88923 0.39403 0.44012 0.0
C1542 C 0.87922 0.43044 0.39239 0.0
C1543 C 0.88106 0.4297 0.42788 0.0
C1544 C 0.87781 0.44103 0.44777 0.0
C1545 C 0.88454 0.40495 0.39133 0.0
C1546 C 0.88819 0.39173 0.40876 0.0
C1547 C 0.88673 0.40446 0.42678 0.0
C1548 C 0.89184 0.36359 0.40862 0.0
C1549 C 0.88648 0.39243 0.37159 0.0
C1550 C 0.86663 0.33451 0.40299 0.0
C1551 C 0.86932 0.3076 0.40356 0.0
C1552 C 0.89738 0.30918 0.40972 0.0
C1553 C 0.92277 0.33844 0.41519 0.0
C1554 C 0.91991 0.36539 0.4148 0.0
H1555 H 0.88977 0.40908 0.35965 0.0
H1556 H 0.90613 0.38744 0.37117 0.0
H1557 H 0.86439 0.37013 0.3688 0.0
H1558 H 0.84465 0.33256 0.3984 0.0
H1559 H 0.84929 0.28551 0.39919 0.0
H1560 H 0.22003 0.69078 0.65697 0.0
H1561 H 0.21058 0.6369 0.65855 0.0
H1562 H 0.12887 0.60559 0.62208 0.0
H1563 H 0.13849 0.6592 0.62018 0.0
H1564 H 0.16126 0.58195 0.67164 0.0
H1565 H 0.17706 0.57275 0.59223 0.0
H1566 H 0.18752 0.60953 0.60391 0.0
H1567 H 0.14731 0.58259 0.59757 0.0
C1568 C 0.20002 0.67234 0.64936 0.0
C1569 C 0.18031 0.67931 0.63819 0.0
C1570 C 0.19466 0.6416 0.65023 0.0
C1571 C 0.16945 0.61729 0.64002 0.0
C1572 C 0.14904 0.62405 0.62955 0.0
H1573 H 0.09797 0.41558 0.62934 0.0
H1574 H 0.10281 0.46772 0.63035 0.0
C1575 C 0.15454 0.65472 0.62852 0.0
C1576 C 0.16439 0.58486 0.64026 0.0
H1577 H 0.15677 0.52558 0.61057 0.0
C1578 C 0.16041 0.5697 0.65829 0.0
C1579 C 0.16334 0.56882 0.62283 0.0
C1580 C 0.16935 0.58435 0.60306 0.0
C1581 C 0.15501 0.53886 0.65931 0.0
C1582 C 0.1536 0.52283 0.64189 0.0
C1583 C 0.15749 0.53786 0.62388 0.0
C1584 C 0.14991 0.49106 0.64208 0.0
C1585 C 0.15063 0.52346 0.67899 0.0
C1586 C 0.17483 0.48706 0.64824 0.0
C1587 C 0.17229 0.45753 0.6475 0.0
C1588 C 0.14466 0.43128 0.64067 0.0
C1589 C 0.1195 0.43527 0.63474 0.0
C1590 C 0.12223 0.465 0.63528 0.0
H1591 H 0.14676 0.53671 0.69075 0.0
H1592 H 0.1304 0.49915 0.67865 0.0
H1593 H 0.17192 0.52213 0.68262 0.0
H1594 H 0.19649 0.50693 0.65334 0.0
H1595 H 0.19211 0.45535 0.65225 0.0
H1596 H 0.35075 0.94442 0.90574 0.0
H1597 H 0.39871 0.94104 0.90248 0.0
H1598 H 0.34266 0.84154 0.89246 0.0
H1599 H 0.29507 0.84464 0.89531 0.0
H1600 H 0.41681 0.90655 0.92524 0.0
H1601 H 0.40564 0.86786 0.84837 0.0
H1602 H 0.38281 0.88405 0.85839 0.0
H1603 H 0.37094 0.84346 0.86231 0.0
C1604 C 0.34867 0.92191 0.90256 0.0
C1605 C 0.31896 0.89485 0.90076 0.0
C1606 C 0.3761 0.92001 0.90074 0.0
C1607 C 0.37432 0.89111 0.89689 0.0
C1608 C 0.34473 0.86422 0.89494 0.0
H1609 H 0.49231 0.80792 0.89799 0.0
H1610 H 0.44977 0.82013 0.89616 0.0
C1611 C 0.31743 0.86606 0.89675 0.0
C1612 C 0.40306 0.88833 0.89613 0.0
H1613 H 0.44081 0.85946 0.86842 0.0
C1614 C 0.42236 0.89672 0.91271 0.0
C1615 C 0.41024 0.87538 0.87978 0.0
C1616 C 0.39149 0.86747 0.86114 0.0
C1617 C 0.44782 0.89132 0.91369 0.0
C1618 C 0.4544 0.87753 0.89757 0.0
C1619 C 0.43559 0.86983 0.88082 0.0
C1620 C 0.48036 0.87036 0.898 0.0
C1621 C 0.46681 0.89936 0.93225 0.0
C1622 C 0.51167 0.89456 0.8993 0.0
C1623 C 0.53599 0.88767 0.90037 0.0
C1624 C 0.52951 0.85639 0.90012 0.0
C1625 C 0.4981 0.83221 0.89842 0.0
C1626 C 0.47379 0.83916 0.89727 0.0
H1627 H 0.45479 0.90358 0.94464 0.0
H1628 H 0.4715 0.88026 0.93633 0.0
H1629 H 0.48973 0.92099 0.9299 0.0
H1630 H 0.5173 0.91881 0.89963 0.0
H1631 H 0.55983 0.90687 0.90189 0.0
H1632 H 0.58348 0.74197 0.6568 0.0
H1633 H 0.53169 0.69518 0.6574 0.0
H1634 H 0.57042 0.64104 0.63299 0.0
H1635 H 0.62277 0.68787 0.63277 0.0
H1636 H 0.49808 0.66175 0.62681 0.0
H1637 H 0.5171 0.58379 0.67635 0.0
H1638 H 0.54499 0.62512 0.67416 0.0
H1639 H 0.54388 0.59801 0.65612 0.0
C1640 C 0.58118 0.72006 0.65177 0.0
C1641 C 0.6074 0.71875 0.64473 0.0
C1642 C 0.55143 0.69327 0.65212 0.0
C1643 C 0.54702 0.6644 0.64541 0.0
C1644 C 0.57323 0.66282 0.63867 0.0
H1645 H 0.38088 0.48481 0.62129 0.0
H1646 H 0.43401 0.5296 0.62437 0.0
C1647 C 0.60318 0.68967 0.63847 0.0
C1648 C 0.51466 0.63673 0.64439 0.0
H1649 H 0.4687 0.56056 0.65901 0.0
C1650 C 0.49167 0.63971 0.63398 0.0
C1651 C 0.50617 0.60786 0.65369 0.0
C1652 C 0.52923 0.6035 0.66587 0.0
C1653 C 0.4607 0.61466 0.63239 0.0
C1654 C 0.45226 0.58582 0.64161 0.0
C1655 C 0.47519 0.58271 0.65197 0.0
C1656 C 0.41988 0.55845 0.64029 0.0
C1657 C 0.43739 0.61905 0.62048 0.0
C1658 C 0.39423 0.55957 0.64845 0.0
C1659 C 0.3637 0.53397 0.64667 0.0
C1660 C 0.35822 0.50674 0.63663 0.0
C1661 C 0.38411 0.50558 0.62879 0.0
C1662 C 0.41457 0.53108 0.63067 0.0
H1663 H 0.44912 0.64002 0.61089 0.0
H1664 H 0.42294 0.59813 0.61126 0.0
H1665 H 0.42137 0.62216 0.63047 0.0
H1666 H 0.39781 0.5803 0.65618 0.0
H1667 H 0.34436 0.5357 0.65286 0.0
H1668 H 0.14209 0.6558 0.92651 0.0
H1669 H 0.132 0.60216 0.92262 0.0
H1670 H 0.20522 0.6338 0.87928 0.0
H1671 H 0.21569 0.6878 0.8832 0.0
H1672 H 0.1171 0.56396 0.88636 0.0
H1673 H 0.22793 0.58785 0.92288 0.0
H1674 H 0.21141 0.61313 0.92582 0.0
H1675 H 0.23122 0.61412 0.90359 0.0
C1676 C 0.15617 0.6514 0.91619 0.0
C1677 C 0.17996 0.67613 0.90532 0.0
C1678 C 0.15019 0.6207 0.91389 0.0
C1679 C 0.16802 0.61407 0.9008 0.0
C1680 C 0.19136 0.63851 0.88958 0.0
H1681 H 0.18168 0.44677 0.88392 0.0
H1682 H 0.18699 0.49859 0.88144 0.0
C1683 C 0.19721 0.66928 0.89177 0.0
C1684 C 0.16267 0.58168 0.89938 0.0
H1685 H 0.19545 0.5369 0.91085 0.0
C1686 C 0.13422 0.55796 0.89164 0.0
C1687 C 0.18503 0.57401 0.90631 0.0
C1688 C 0.21558 0.59846 0.91526 0.0
C1689 C 0.12771 0.52674 0.89042 0.0
C1690 C 0.14992 0.51894 0.89762 0.0
C1691 C 0.17841 0.5428 0.9053 0.0
C1692 C 0.14441 0.4863 0.89744 0.0
C1693 C 0.0974 0.50263 0.88108 0.0
C1694 C 0.11837 0.46179 0.907 0.0
C1695 C 0.11504 0.43184 0.90824 0.0
C1696 C 0.13801 0.42604 0.90027 0.0
C1697 C 0.16361 0.45043 0.89032 0.0
C1698 C 0.16672 0.48015 0.8889 0.0
H1699 H 0.08785 0.51371 0.87119 0.0
H1700 H 0.10066 0.48523 0.8726 0.0
H1701 H 0.0797 0.48999 0.89265 0.0
H1702 H 0.1012 0.46605 0.91412 0.0
H1703 H 0.09524 0.41367 0.91618 0.0
H1704 H 0.29476 0.85061 0.66069 0.0
H1705 H 0.34146 0.84554 0.66307 0.0
H1706 H 0.3965 0.93605 0.63586 0.0
H1707 H 0.34981 0.94172 0.63397 0.0
H1708 H 0.3747 0.84209 0.63394 0.0
H1709 H 0.45353 0.94385 0.68001 0.0
H1710 H 0.4123 0.93078 0.67733 0.0
H1711 H 0.43984 0.95474 0.65878 0.0
C1712 C 0.31688 0.86969 0.65543 0.0
C1713 C 0.31854 0.89659 0.64711 0.0
C1714 C 0.3436 0.86673 0.65681 0.0
C1715 C 0.37267 0.89049 0.64983 0.0
C1716 C 0.37457 0.91769 0.6418 0.0
H1717 H 0.54863 0.89861 0.62397 0.0
H1718 H 0.50435 0.90777 0.62749 0.0
C1719 C 0.3478 0.92085 0.64063 0.0
C1720 C 0.40019 0.88555 0.64974 0.0
H1721 H 0.47678 0.91734 0.66395 0.0
C1722 C 0.3969 0.85844 0.64068 0.0
C1723 C 0.42925 0.90685 0.65851 0.0
C1724 C 0.43392 0.93553 0.66938 0.0
C1725 C 0.42188 0.85233 0.63984 0.0
C1726 C 0.45097 0.87381 0.64836 0.0
C1727 C 0.45439 0.9009 0.65746 0.0
C1728 C 0.4784 0.86899 0.64726 0.0
C1729 C 0.41726 0.82331 0.62944 0.0
C1730 C 0.4787 0.8444 0.65747 0.0
C1731 C 0.50404 0.83908 0.6555 0.0
C1732 C 0.52938 0.85814 0.64316 0.0
C1733 C 0.52923 0.88317 0.63333 0.0
C1734 C 0.50407 0.8886 0.63543 0.0
H1735 H 0.39515 0.81185 0.62087 0.0
H1736 H 0.43726 0.82914 0.61946 0.0
H1737 H 0.41634 0.80622 0.64036 0.0
H1738 H 0.45918 0.82914 0.66681 0.0
H1739 H 0.50345 0.81962 0.66324 0.0
H1740 H 0.58076 0.7392 0.89491 0.0
H1741 H 0.5299 0.69179 0.89216 0.0
H1742 H 0.57326 0.63539 0.90141 0.0
H1743 H 0.62464 0.68307 0.90462 0.0
H1744 H 0.50736 0.64197 0.86701 0.0
H1745 H 0.50545 0.60273 0.94335 0.0
H1746 H 0.53389 0.64143 0.93497 0.0
H1747 H 0.53852 0.60841 0.92905 0.0
C1748 C 0.57972 0.7168 0.89633 0.0
C1749 C 0.60695 0.71508 0.90017 0.0
C1750 C 0.55048 0.68963 0.8947 0.0
C1751 C 0.5476 0.66001 0.8969 0.0
C1752 C 0.5748 0.65803 0.90008 0.0
H1753 H 0.37826 0.47549 0.90042 0.0
H1754 H 0.43256 0.51831 0.89813 0.0
C1755 C 0.60421 0.68532 0.90177 0.0
C1756 C 0.51593 0.63153 0.89613 0.0
H1757 H 0.46209 0.57004 0.92353 0.0
C1758 C 0.49751 0.62617 0.87934 0.0
C1759 C 0.50302 0.61095 0.91225 0.0
C1760 C 0.52106 0.61619 0.93101 0.0
C1761 C 0.46658 0.60092 0.87827 0.0
C1762 C 0.45355 0.58068 0.89449 0.0
C1763 C 0.47214 0.58561 0.91112 0.0
C1764 C 0.42046 0.55464 0.89473 0.0
C1765 C 0.44815 0.59599 0.85973 0.0
C1766 C 0.39554 0.56083 0.89361 0.0
C1767 C 0.36439 0.53635 0.89484 0.0
C1768 C 0.35753 0.50518 0.89724 0.0
C1769 C 0.38261 0.49911 0.89821 0.0
C1770 C 0.41371 0.52359 0.89706 0.0
H1771 H 0.46376 0.60819 0.84711 0.0
H1772 H 0.43369 0.57066 0.85624 0.0
H1773 H 0.43213 0.60556 0.86168 0.0
H1774 H 0.4002 0.58467 0.89214 0.0
H1775 H 0.34568 0.54184 0.89399 0.0
loop_
_geom_bond_atom_site_label_1
_geom_bond_atom_site_label_2
_geom_bond_distance
_geom_bond_site_symmetry_2
_ccdc_geom_bond_type
Ho0 C3 2.811 . S
Ho0 O20 2.322 . S
Ho0 O22 2.378 . S
Ho0 O23 2.524 . S
Ho0 O24 2.381 . S
Ho0 O25 2.669 . S
Ho0 O27 2.346 . S
Ho0 O31 2.305 . S
Ho1 C12 2.811 . S
Ho1 O21 2.346 . S
Ho1 O25 2.305 . S
Ho1 O26 2.322 . S
Ho1 O28 2.378 . S
Ho1 O29 2.524 . S
Ho1 O30 2.381 . S
Ho1 O31 2.669 . S
C2 O20 1.259 . S
C2 O21 1.268 . S
C3 Ho0 2.811 . S
C3 C4 1.488 . S
C3 O22 1.215 . S
C3 O23 1.289 . S
C4 C3 1.488 . S
C4 C5 1.348 . S
C4 C9 1.413 . S
C5 C4 1.348 . S
C5 C6 1.442 . S
C5 H32 0.930 . S
C6 C5 1.442 . S
C6 C7 1.381 . S
C6 H33 0.931 . S
C7 C6 1.381 . S
C7 C8 1.321 . S
C8 C7 1.321 . S
C8 C9 1.403 . S
C8 H34 0.934 . S
C9 C4 1.413 . S
C9 C8 1.403 . S
C9 H35 0.930 . S
C10 O24 1.275 . S
C10 O25 1.256 . S
C11 O26 1.259 . S
C11 O27 1.268 . S
C12 Ho1 2.811 . S
C12 C13 1.488 . S
C12 O28 1.215 . S
C12 O29 1.289 . S
C13 C12 1.488 . S
C13 C14 1.348 . S
C13 C18 1.413 . S
C14 C13 1.348 . S
C14 C15 1.442 1_545 S
C14 H36 0.930 . S
C15 C14 1.442 1_565 S
C15 C16 1.381 . S
C15 H37 0.931 . S
C16 C15 1.381 . S
C16 C17 1.321 . S
C17 C16 1.321 . S
C17 C18 1.403 1_565 S
C17 H38 0.934 . S
C18 C13 1.413 . S
C18 C17 1.403 1_545 S
C18 H39 0.930 . S
C19 O30 1.275 . S
C19 O31 1.256 . S
O20 Ho0 2.322 . S
O20 C2 1.259 . S
O21 Ho1 2.346 . S
O21 C2 1.268 . S
O22 Ho0 2.378 . S
O22 C3 1.215 . S
O23 Ho0 2.524 . S
O23 C3 1.289 . S
O24 Ho0 2.381 . S
O24 C10 1.275 . S
O25 Ho0 2.669 . S
O25 Ho1 2.305 . S
O25 C10 1.256 . S
O26 Ho1 2.322 . S
O26 C11 1.259 . S
O27 Ho0 2.346 . S
O27 C11 1.268 . S
O28 Ho1 2.378 . S
O28 C12 1.215 . S
O29 Ho1 2.524 . S
O29 C12 1.289 . S
O30 Ho1 2.381 . S
O30 C19 1.275 . S
O31 Ho0 2.305 . S
O31 Ho1 2.669 . S
O31 C19 1.256 . S
H32 C5 0.930 . S
H33 C6 0.931 . S
H34 C8 0.934 . S
H35 C9 0.930 . S
H36 C14 0.930 . S
H37 C15 0.931 . S
H38 C17 0.934 . S
H39 C18 0.930 . S
Ho40 C43 2.811 . S
Ho40 O60 2.322 . S
Ho40 O62 2.378 . S
Ho40 O63 2.524 . S
Ho40 O64 2.381 . S
Ho40 O65 2.669 . S
Ho40 O67 2.346 . S
Ho40 O71 2.305 . S
Ho41 C52 2.811 . S
Ho41 O61 2.346 . S
Ho41 O65 2.305 . S
Ho41 O66 2.322 . S
Ho41 O68 2.378 . S
Ho41 O69 2.524 . S
Ho41 O70 2.381 . S
Ho41 O71 2.669 . S
C42 O60 1.259 . S
C42 O61 1.268 . S
C43 Ho40 2.811 . S
C43 C44 1.488 . S
C43 O62 1.215 . S
C43 O63 1.289 . S
C44 C43 1.488 . S
C44 C45 1.348 . S
C44 C49 1.413 . S
C45 C44 1.348 . S
C45 C46 1.442 . S
C45 H72 0.930 . S
C46 C45 1.442 . S
C46 C47 1.381 . S
C46 H73 0.931 . S
C47 C46 1.381 . S
C47 C48 1.321 . S
C48 C47 1.321 . S
C48 C49 1.403 . S
C48 H74 0.934 . S
C49 C44 1.413 . S
C49 C48 1.403 . S
C49 H75 0.930 . S
C50 O64 1.275 . S
C50 O65 1.256 . S
C51 O66 1.259 . S
C51 O67 1.268 . S
C52 Ho41 2.811 . S
C52 C53 1.488 . S
C52 O68 1.215 . S
C52 O69 1.289 . S
C53 C52 1.488 . S
C53 C54 1.348 . S
C53 C58 1.413 . S
C54 C53 1.348 . S
C54 C55 1.442 . S
C54 H76 0.930 . S
C55 C54 1.442 . S
C55 C56 1.381 . S
C55 H77 0.931 . S
C56 C55 1.381 . S
C56 C57 1.321 . S
C57 C56 1.321 . S
C57 C58 1.403 . S
C57 H78 0.934 . S
C58 C53 1.413 . S
C58 C57 1.403 . S
C58 H79 0.930 . S
C59 O70 1.275 . S
C59 O71 1.256 . S
O60 Ho40 2.322 . S
O60 C42 1.259 . S
O61 Ho41 2.346 . S
O61 C42 1.268 . S
O62 Ho40 2.378 . S
O62 C43 1.215 . S
O63 Ho40 2.524 . S
O63 C43 1.289 . S
O64 Ho40 2.381 . S
O64 C50 1.275 . S
O65 Ho40 2.669 . S
O65 Ho41 2.305 . S
O65 C50 1.256 . S
O66 Ho41 2.322 . S
O66 C51 1.259 . S
O67 Ho40 2.346 . S
O67 C51 1.268 . S
O68 Ho41 2.378 . S
O68 C52 1.215 . S
O69 Ho41 2.524 . S
O69 C52 1.289 . S
O70 Ho41 2.381 . S
O70 C59 1.275 . S
O71 Ho40 2.305 . S
O71 Ho41 2.669 . S
O71 C59 1.256 . S
H72 C45 0.930 . S
H73 C46 0.931 . S
H74 C48 0.934 . S
H75 C49 0.930 . S
H76 C54 0.930 . S
H77 C55 0.931 . S
H78 C57 0.934 . S
H79 C58 0.930 . S
Ho80 C83 2.811 . S
Ho80 O100 2.322 . S
Ho80 O102 2.378 . S
Ho80 O103 2.524 . S
Ho80 O104 2.381 . S
Ho80 O105 2.669 . S
Ho80 O107 2.346 . S
Ho80 O111 2.305 . S
Ho81 C92 2.811 . S
Ho81 O101 2.346 . S
Ho81 O105 2.305 . S
Ho81 O106 2.322 . S
Ho81 O108 2.378 . S
Ho81 O109 2.524 . S
Ho81 O110 2.381 . S
Ho81 O111 2.669 . S
C82 O100 1.259 . S
C82 O101 1.268 . S
C83 Ho80 2.811 . S
C83 C84 1.488 . S
C83 O102 1.215 . S
C83 O103 1.289 . S
C84 C83 1.488 . S
C84 C85 1.348 . S
C84 C89 1.413 . S
C85 C84 1.348 . S
C85 C86 1.442 . S
C85 H112 0.930 . S
C86 C85 1.442 . S
C86 C87 1.381 . S
C86 H113 0.931 . S
C87 C86 1.381 . S
C87 C88 1.321 . S
C88 C87 1.321 . S
C88 C89 1.403 . S
C88 H114 0.934 . S
C89 C84 1.413 . S
C89 C88 1.403 . S
C89 H115 0.930 . S
C90 O104 1.275 . S
C90 O105 1.256 . S
C91 O106 1.259 . S
C91 O107 1.268 . S
C92 Ho81 2.811 . S
C92 C93 1.488 . S
C92 O108 1.215 . S
C92 O109 1.289 . S
C93 C92 1.488 . S
C93 C94 1.348 . S
C93 C98 1.413 . S
C94 C93 1.348 . S
C94 C95 1.442 1_655 S
C94 H116 0.930 . S
C95 C94 1.442 1_455 S
C95 C96 1.381 . S
C95 H117 0.931 . S
C96 C95 1.381 . S
C96 C97 1.321 . S
C97 C96 1.321 . S
C97 C98 1.403 1_455 S
C97 H118 0.934 . S
C98 C93 1.413 . S
C98 C97 1.403 1_655 S
C98 H119 0.930 . S
C99 O110 1.275 . S
C99 O111 1.256 . S
O100 Ho80 2.322 . S
O100 C82 1.259 . S
O101 Ho81 2.346 . S
O101 C82 1.268 . S
O102 Ho80 2.378 . S
O102 C83 1.215 . S
O103 Ho80 2.524 . S
O103 C83 1.289 . S
O104 Ho80 2.381 . S
O104 C90 1.275 . S
O105 Ho80 2.669 . S
O105 Ho81 2.305 . S
O105 C90 1.256 . S
O106 Ho81 2.322 . S
O106 C91 1.259 . S
O107 Ho80 2.346 . S
O107 C91 1.268 . S
O108 Ho81 2.378 . S
O108 C92 1.215 . S
O109 Ho81 2.524 . S
O109 C92 1.289 . S
O110 Ho81 2.381 . S
O110 C99 1.275 . S
O111 Ho80 2.305 . S
O111 Ho81 2.669 . S
O111 C99 1.256 . S
H112 C85 0.930 . S
H113 C86 0.931 . S
H114 C88 0.934 . S
H115 C89 0.930 . S
H116 C94 0.930 . S
H117 C95 0.931 . S
H118 C97 0.934 . S
H119 C98 0.930 . S
Ho120 C123 2.811 . S
Ho120 O140 2.322 . S
Ho120 O142 2.378 . S
Ho120 O143 2.524 . S
Ho120 O144 2.381 . S
Ho120 O145 2.669 . S
Ho120 O147 2.346 . S
Ho120 O151 2.305 . S
Ho121 C132 2.811 . S
Ho121 O141 2.346 . S
Ho121 O145 2.305 . S
Ho121 O146 2.322 . S
Ho121 O148 2.378 . S
Ho121 O149 2.524 . S
Ho121 O150 2.381 . S
Ho121 O151 2.669 . S
C122 O140 1.259 . S
C122 O141 1.268 . S
C123 Ho120 2.811 . S
C123 C124 1.488 . S
C123 O142 1.215 . S
C123 O143 1.289 . S
C124 C123 1.488 . S
C124 C125 1.348 . S
C124 C129 1.413 . S
C125 C124 1.348 . S
C125 C126 1.442 1_545 S
C125 H152 0.930 . S
C126 C125 1.442 1_565 S
C126 C127 1.381 . S
C126 H153 0.931 . S
C127 C126 1.381 . S
C127 C128 1.321 . S
C128 C127 1.321 . S
C128 C129 1.403 1_565 S
C128 H154 0.934 . S
C129 C124 1.413 . S
C129 C128 1.403 1_545 S
C129 H155 0.930 . S
C130 O144 1.275 . S
C130 O145 1.256 . S
C131 O146 1.259 . S
C131 O147 1.268 . S
C132 Ho121 2.811 . S
C132 C133 1.488 . S
C132 O148 1.215 . S
C132 O149 1.289 . S
C133 C132 1.488 . S
C133 C134 1.348 . S
C133 C138 1.413 . S
C134 C133 1.348 . S
C134 C135 1.442 . S
C134 H156 0.930 . S
C135 C134 1.442 . S
C135 C136 1.381 . S
C135 H157 0.931 . S
C136 C135 1.381 . S
C136 C137 1.321 . S
C137 C136 1.321 . S
C137 C138 1.403 . S
C137 H158 0.934 . S
C138 C133 1.413 . S
C138 C137 1.403 . S
C138 H159 0.930 . S
C139 O150 1.275 . S
C139 O151 1.256 . S
O140 Ho120 2.322 . S
O140 C122 1.259 . S
O141 Ho121 2.346 . S
O141 C122 1.268 . S
O142 Ho120 2.378 . S
O142 C123 1.215 . S
O143 Ho120 2.524 . S
O143 C123 1.289 . S
O144 Ho120 2.381 . S
O144 C130 1.275 . S
O145 Ho120 2.669 . S
O145 Ho121 2.305 . S
O145 C130 1.256 . S
O146 Ho121 2.322 . S
O146 C131 1.259 . S
O147 Ho120 2.346 . S
O147 C131 1.268 . S
O148 Ho121 2.378 . S
O148 C132 1.215 . S
O149 Ho121 2.524 . S
O149 C132 1.289 . S
O150 Ho121 2.381 . S
O150 C139 1.275 . S
O151 Ho120 2.305 . S
O151 Ho121 2.669 . S
O151 C139 1.256 . S
H152 C125 0.930 . S
H153 C126 0.931 . S
H154 C128 0.934 . S
H155 C129 0.930 . S
H156 C134 0.930 . S
H157 C135 0.931 . S
H158 C137 0.934 . S
H159 C138 0.930 . S
Ho160 C163 2.811 . S
Ho160 O180 2.322 . S
Ho160 O182 2.378 . S
Ho160 O183 2.524 . S
Ho160 O184 2.381 . S
Ho160 O185 2.669 . S
Ho160 O187 2.346 . S
Ho160 O191 2.305 . S
Ho161 C172 2.811 . S
Ho161 O181 2.346 . S
Ho161 O185 2.305 . S
Ho161 O186 2.322 . S
Ho161 O188 2.378 . S
Ho161 O189 2.524 . S
Ho161 O190 2.381 . S
Ho161 O191 2.669 . S
C162 O180 1.259 . S
C162 O181 1.268 . S
C163 Ho160 2.811 . S
C163 C164 1.488 . S
C163 O182 1.215 . S
C163 O183 1.289 . S
C164 C163 1.488 . S
C164 C165 1.348 . S
C164 C169 1.413 . S
C165 C164 1.348 . S
C165 C166 1.442 . S
C165 H192 0.930 . S
C166 C165 1.442 . S
C166 C167 1.381 . S
C166 H193 0.931 . S
C167 C166 1.381 . S
C167 C168 1.321 . S
C168 C167 1.321 . S
C168 C169 1.403 . S
C168 H194 0.934 . S
C169 C164 1.413 . S
C169 C168 1.403 . S
C169 H195 0.930 . S
C170 O184 1.275 . S
C170 O185 1.256 . S
C171 O186 1.259 . S
C171 O187 1.268 . S
C172 Ho161 2.811 . S
C172 C173 1.488 . S
C172 O188 1.215 . S
C172 O189 1.289 . S
C173 C172 1.488 . S
C173 C174 1.348 . S
C173 C178 1.413 . S
C174 C173 1.348 . S
C174 C175 1.442 . S
C174 H196 0.930 . S
C175 C174 1.442 . S
C175 C176 1.381 . S
C175 H197 0.931 . S
C176 C175 1.381 . S
C176 C177 1.321 . S
C177 C176 1.321 . S
C177 C178 1.403 . S
C177 H198 0.934 . S
C178 C173 1.413 . S
C178 C177 1.403 . S
C178 H199 0.930 . S
C179 O190 1.275 . S
C179 O191 1.256 . S
O180 Ho160 2.322 . S
O180 C162 1.259 . S
O181 Ho161 2.346 . S
O181 C162 1.268 . S
O182 Ho160 2.378 . S
O182 C163 1.215 . S
O183 Ho160 2.524 . S
O183 C163 1.289 . S
O184 Ho160 2.381 . S
O184 C170 1.275 . S
O185 Ho160 2.669 . S
O185 Ho161 2.305 . S
O185 C170 1.256 . S
O186 Ho161 2.322 . S
O186 C171 1.259 . S
O187 Ho160 2.346 . S
O187 C171 1.268 . S
O188 Ho161 2.378 . S
O188 C172 1.215 . S
O189 Ho161 2.524 . S
O189 C172 1.289 . S
O190 Ho161 2.381 . S
O190 C179 1.275 . S
O191 Ho160 2.305 . S
O191 Ho161 2.669 . S
O191 C179 1.256 . S
H192 C165 0.930 . S
H193 C166 0.931 . S
H194 C168 0.934 . S
H195 C169 0.930 . S
H196 C174 0.930 . S
H197 C175 0.931 . S
H198 C177 0.934 . S
H199 C178 0.930 . S
Ho200 C203 2.811 . S
Ho200 O220 2.322 . S
Ho200 O222 2.378 . S
Ho200 O223 2.524 . S
Ho200 O224 2.381 . S
Ho200 O225 2.669 . S
Ho200 O227 2.346 . S
Ho200 O231 2.305 . S
Ho201 C212 2.811 . S
Ho201 O221 2.346 . S
Ho201 O225 2.305 . S
Ho201 O226 2.322 . S
Ho201 O228 2.378 . S
Ho201 O229 2.524 . S
Ho201 O230 2.381 . S
Ho201 O231 2.669 . S
C202 O220 1.259 . S
C202 O221 1.268 . S
C203 Ho200 2.811 . S
C203 C204 1.488 . S
C203 O222 1.215 . S
C203 O223 1.289 . S
C204 C203 1.488 . S
C204 C205 1.348 . S
C204 C209 1.413 . S
C205 C204 1.348 . S
C205 C206 1.442 1_655 S
C205 H232 0.930 . S
C206 C205 1.442 1_455 S
C206 C207 1.381 . S
C206 H233 0.931 . S
C207 C206 1.381 . S
C207 C208 1.321 . S
C208 C207 1.321 . S
C208 C209 1.403 1_455 S
C208 H234 0.934 . S
C209 C204 1.413 . S
C209 C208 1.403 1_655 S
C209 H235 0.930 . S
C210 O224 1.275 . S
C210 O225 1.256 . S
C211 O226 1.259 . S
C211 O227 1.268 . S
C212 Ho201 2.811 . S
C212 C213 1.488 . S
C212 O228 1.215 . S
C212 O229 1.289 . S
C213 C212 1.488 . S
C213 C214 1.348 . S
C213 C218 1.413 . S
C214 C213 1.348 . S
C214 C215 1.442 . S
C214 H236 0.930 . S
C215 C214 1.442 . S
C215 C216 1.381 . S
C215 H237 0.931 . S
C216 C215 1.381 . S
C216 C217 1.321 . S
C217 C216 1.321 . S
C217 C218 1.403 . S
C217 H238 0.934 . S
C218 C213 1.413 . S
C218 C217 1.403 . S
C218 H239 0.930 . S
C219 O230 1.275 . S
C219 O231 1.256 . S
O220 Ho200 2.322 . S
O220 C202 1.259 . S
O221 Ho201 2.346 . S
O221 C202 1.268 . S
O222 Ho200 2.378 . S
O222 C203 1.215 . S
O223 Ho200 2.524 . S
O223 C203 1.289 . S
O224 Ho200 2.381 . S
O224 C210 1.275 . S
O225 Ho200 2.669 . S
O225 Ho201 2.305 . S
O225 C210 1.256 . S
O226 Ho201 2.322 . S
O226 C211 1.259 . S
O227 Ho200 2.346 . S
O227 C211 1.268 . S
O228 Ho201 2.378 . S
O228 C212 1.215 . S
O229 Ho201 2.524 . S
O229 C212 1.289 . S
O230 Ho201 2.381 . S
O230 C219 1.275 . S
O231 Ho200 2.305 . S
O231 Ho201 2.669 . S
O231 C219 1.256 . S
H232 C205 0.930 . S
H233 C206 0.931 . S
H234 C208 0.934 . S
H235 C209 0.930 . S
H236 C214 0.930 . S
H237 C215 0.931 . S
H238 C217 0.934 . S
H239 C218 0.930 . S
Ho240 C243 2.811 . S
Ho240 O260 2.322 . S
Ho240 O262 2.378 . S
Ho240 O263 2.524 . S
Ho240 O264 2.381 . S
Ho240 O265 2.669 . S
Ho240 O267 2.346 . S
Ho240 O271 2.305 . S
Ho241 C252 2.811 . S
Ho241 O261 2.346 . S
Ho241 O265 2.305 . S
Ho241 O266 2.322 . S
Ho241 O268 2.378 . S
Ho241 O269 2.524 . S
Ho241 O270 2.381 . S
Ho241 O271 2.669 . S
C242 O260 1.259 . S
C242 O261 1.268 . S
C243 Ho240 2.811 . S
C243 C244 1.488 . S
C243 O262 1.215 . S
C243 O263 1.289 . S
C244 C243 1.488 . S
C244 C245 1.348 . S
C244 C249 1.413 . S
C245 C244 1.348 . S
C245 C246 1.442 1_455 S
C245 H272 0.930 . S
C246 C245 1.442 1_655 S
C246 C247 1.381 . S
C246 H273 0.931 . S
C247 C246 1.381 . S
C247 C248 1.321 . S
C248 C247 1.321 . S
C248 C249 1.403 1_655 S
C248 H274 0.934 . S
C249 C244 1.413 . S
C249 C248 1.403 1_455 S
C249 H275 0.930 . S
C250 O264 1.275 . S
C250 O265 1.256 . S
C251 O266 1.259 . S
C251 O267 1.268 . S
C252 Ho241 2.811 . S
C252 C253 1.488 . S
C252 O268 1.215 . S
C252 O269 1.289 . S
C253 C252 1.488 . S
C253 C254 1.348 . S
C253 C258 1.413 . S
C254 C253 1.348 . S
C254 C255 1.442 . S
C254 H276 0.930 . S
C255 C254 1.442 . S
C255 C256 1.381 . S
C255 H277 0.931 . S
C256 C255 1.381 . S
C256 C257 1.321 . S
C257 C256 1.321 . S
C257 C258 1.403 . S
C257 H278 0.934 . S
C258 C253 1.413 . S
C258 C257 1.403 . S
C258 H279 0.930 . S
C259 O270 1.275 . S
C259 O271 1.256 . S
O260 Ho240 2.322 . S
O260 C242 1.259 . S
O261 Ho241 2.346 . S
O261 C242 1.268 . S
O262 Ho240 2.378 . S
O262 C243 1.215 . S
O263 Ho240 2.524 . S
O263 C243 1.289 . S
O264 Ho240 2.381 . S
O264 C250 1.275 . S
O265 Ho240 2.669 . S
O265 Ho241 2.305 . S
O265 C250 1.256 . S
O266 Ho241 2.322 . S
O266 C251 1.259 . S
O267 Ho240 2.346 . S
O267 C251 1.268 . S
O268 Ho241 2.378 . S
O268 C252 1.215 . S
O269 Ho241 2.524 . S
O269 C252 1.289 . S
O270 Ho241 2.381 . S
O270 C259 1.275 . S
O271 Ho240 2.305 . S
O271 Ho241 2.669 . S
O271 C259 1.256 . S
H272 C245 0.930 . S
H273 C246 0.931 . S
H274 C248 0.934 . S
H275 C249 0.930 . S
H276 C254 0.930 . S
H277 C255 0.931 . S
H278 C257 0.934 . S
H279 C258 0.930 . S
Ho280 C283 2.811 . S
Ho280 O300 2.322 . S
Ho280 O302 2.378 . S
Ho280 O303 2.524 . S
Ho280 O304 2.381 . S
Ho280 O305 2.669 . S
Ho280 O307 2.346 . S
Ho280 O311 2.305 . S
Ho281 C292 2.811 . S
Ho281 O301 2.346 . S
Ho281 O305 2.305 . S
Ho281 O306 2.322 . S
Ho281 O308 2.378 . S
Ho281 O309 2.524 . S
Ho281 O310 2.381 . S
Ho281 O311 2.669 . S
C282 O300 1.259 . S
C282 O301 1.268 . S
C283 Ho280 2.811 . S
C283 C284 1.488 . S
C283 O302 1.215 . S
C283 O303 1.289 . S
C284 C283 1.488 . S
C284 C285 1.348 . S
C284 C289 1.413 . S
C285 C284 1.348 . S
C285 C286 1.442 . S
C285 H312 0.930 . S
C286 C285 1.442 . S
C286 C287 1.381 . S
C286 H313 0.931 . S
C287 C286 1.381 . S
C287 C288 1.321 . S
C288 C287 1.321 . S
C288 C289 1.403 . S
C288 H314 0.934 . S
C289 C284 1.413 . S
C289 C288 1.403 . S
C289 H315 0.930 . S
C290 O304 1.275 . S
C290 O305 1.256 . S
C291 O306 1.259 . S
C291 O307 1.268 . S
C292 Ho281 2.811 . S
C292 C293 1.488 . S
C292 O308 1.215 . S
C292 O309 1.289 . S
C293 C292 1.488 . S
C293 C294 1.348 . S
C293 C298 1.413 . S
C294 C293 1.348 . S
C294 C295 1.442 1_565 S
C294 H316 0.930 . S
C295 C294 1.442 1_545 S
C295 C296 1.381 . S
C295 H317 0.931 . S
C296 C295 1.381 . S
C296 C297 1.321 . S
C297 C296 1.321 . S
C297 C298 1.403 1_545 S
C297 H318 0.934 . S
C298 C293 1.413 . S
C298 C297 1.403 1_565 S
C298 H319 0.930 . S
C299 O310 1.275 . S
C299 O311 1.256 . S
O300 Ho280 2.322 . S
O300 C282 1.259 . S
O301 Ho281 2.346 . S
O301 C282 1.268 . S
O302 Ho280 2.378 . S
O302 C283 1.215 . S
O303 Ho280 2.524 . S
O303 C283 1.289 . S
O304 Ho280 2.381 . S
O304 C290 1.275 . S
O305 Ho280 2.669 . S
O305 Ho281 2.305 . S
O305 C290 1.256 . S
O306 Ho281 2.322 . S
O306 C291 1.259 . S
O307 Ho280 2.346 . S
O307 C291 1.268 . S
O308 Ho281 2.378 . S
O308 C292 1.215 . S
O309 Ho281 2.524 . S
O309 C292 1.289 . S
O310 Ho281 2.381 . S
O310 C299 1.275 . S
O311 Ho280 2.305 . S
O311 Ho281 2.669 . S
O311 C299 1.256 . S
H312 C285 0.930 . S
H313 C286 0.931 . S
H314 C288 0.934 . S
H315 C289 0.930 . S
H316 C294 0.930 . S
H317 C295 0.931 . S
H318 C297 0.934 . S
H319 C298 0.930 . S
Ho320 C323 2.811 . S
Ho320 O340 2.322 . S
Ho320 O342 2.378 . S
Ho320 O343 2.524 . S
Ho320 O344 2.381 . S
Ho320 O345 2.669 . S
Ho320 O347 2.346 . S
Ho320 O351 2.305 . S
Ho321 C332 2.811 . S
Ho321 O341 2.346 . S
Ho321 O345 2.305 . S
Ho321 O346 2.322 . S
Ho321 O348 2.378 . S
Ho321 O349 2.524 . S
Ho321 O350 2.381 . S
Ho321 O351 2.669 . S
C322 O340 1.259 . S
C322 O341 1.268 . S
C323 Ho320 2.811 . S
C323 C324 1.488 . S
C323 O342 1.215 . S
C323 O343 1.289 . S
C324 C323 1.488 . S
C324 C325 1.348 . S
C324 C329 1.413 . S
C325 C324 1.348 . S
C325 C326 1.442 . S
C325 H352 0.930 . S
C326 C325 1.442 . S
C326 C327 1.381 . S
C326 H353 0.931 . S
C327 C326 1.381 . S
C327 C328 1.321 . S
C328 C327 1.321 . S
C328 C329 1.403 . S
C328 H354 0.934 . S
C329 C324 1.413 . S
C329 C328 1.403 . S
C329 H355 0.930 . S
C330 O344 1.275 . S
C330 O345 1.256 . S
C331 O346 1.259 . S
C331 O347 1.268 . S
C332 Ho321 2.811 . S
C332 C333 1.488 . S
C332 O348 1.215 . S
C332 O349 1.289 . S
C333 C332 1.488 . S
C333 C334 1.348 . S
C333 C338 1.413 . S
C334 C333 1.348 . S
C334 C335 1.442 . S
C334 H356 0.930 . S
C335 C334 1.442 . S
C335 C336 1.381 . S
C335 H357 0.931 . S
C336 C335 1.381 . S
C336 C337 1.321 . S
C337 C336 1.321 . S
C337 C338 1.403 . S
C337 H358 0.934 . S
C338 C333 1.413 . S
C338 C337 1.403 . S
C338 H359 0.930 . S
C339 O350 1.275 . S
C339 O351 1.256 . S
O340 Ho320 2.322 . S
O340 C322 1.259 . S
O341 Ho321 2.346 . S
O341 C322 1.268 . S
O342 Ho320 2.378 . S
O342 C323 1.215 . S
O343 Ho320 2.524 . S
O343 C323 1.289 . S
O344 Ho320 2.381 . S
O344 C330 1.275 . S
O345 Ho320 2.669 . S
O345 Ho321 2.305 . S
O345 C330 1.256 . S
O346 Ho321 2.322 . S
O346 C331 1.259 . S
O347 Ho320 2.346 . S
O347 C331 1.268 . S
O348 Ho321 2.378 . S
O348 C332 1.215 . S
O349 Ho321 2.524 . S
O349 C332 1.289 . S
O350 Ho321 2.381 . S
O350 C339 1.275 . S
O351 Ho320 2.305 . S
O351 Ho321 2.669 . S
O351 C339 1.256 . S
H352 C325 0.930 . S
H353 C326 0.931 . S
H354 C328 0.934 . S
H355 C329 0.930 . S
H356 C334 0.930 . S
H357 C335 0.931 . S
H358 C337 0.934 . S
H359 C338 0.930 . S
Ho360 C363 2.811 . S
Ho360 O380 2.322 . S
Ho360 O382 2.378 . S
Ho360 O383 2.524 . S
Ho360 O384 2.381 . S
Ho360 O385 2.669 . S
Ho360 O387 2.346 . S
Ho360 O391 2.305 . S
Ho361 C372 2.811 . S
Ho361 O381 2.346 . S
Ho361 O385 2.305 . S
Ho361 O386 2.322 . S
Ho361 O388 2.378 . S
Ho361 O389 2.524 . S
Ho361 O390 2.381 . S
Ho361 O391 2.669 . S
C362 O380 1.259 . S
C362 O381 1.268 . S
C363 Ho360 2.811 . S
C363 C364 1.488 . S
C363 O382 1.215 . S
C363 O383 1.289 . S
C364 C363 1.488 . S
C364 C365 1.348 . S
C364 C369 1.413 . S
C365 C364 1.348 . S
C365 C366 1.442 . S
C365 H392 0.930 . S
C366 C365 1.442 . S
C366 C367 1.381 . S
C366 H393 0.931 . S
C367 C366 1.381 . S
C367 C368 1.321 . S
C368 C367 1.321 . S
C368 C369 1.403 . S
C368 H394 0.934 . S
C369 C364 1.413 . S
C369 C368 1.403 . S
C369 H395 0.930 . S
C370 O384 1.275 . S
C370 O385 1.256 . S
C371 O386 1.259 . S
C371 O387 1.268 . S
C372 Ho361 2.811 . S
C372 C373 1.488 . S
C372 O388 1.215 . S
C372 O389 1.289 . S
C373 C372 1.488 . S
C373 C374 1.348 . S
C373 C378 1.413 . S
C374 C373 1.348 . S
C374 C375 1.442 1_455 S
C374 H396 0.930 . S
C375 C374 1.442 1_655 S
C375 C376 1.381 . S
C375 H397 0.931 . S
C376 C375 1.381 . S
C376 C377 1.321 . S
C377 C376 1.321 . S
C377 C378 1.403 1_655 S
C377 H398 0.934 . S
C378 C373 1.413 . S
C378 C377 1.403 1_455 S
C378 H399 0.930 . S
C379 O390 1.275 . S
C379 O391 1.256 . S
O380 Ho360 2.322 . S
O380 C362 1.259 . S
O381 Ho361 2.346 . S
O381 C362 1.268 . S
O382 Ho360 2.378 . S
O382 C363 1.215 . S
O383 Ho360 2.524 . S
O383 C363 1.289 . S
O384 Ho360 2.381 . S
O384 C370 1.275 . S
O385 Ho360 2.669 . S
O385 Ho361 2.305 . S
O385 C370 1.256 . S
O386 Ho361 2.322 . S
O386 C371 1.259 . S
O387 Ho360 2.346 . S
O387 C371 1.268 . S
O388 Ho361 2.378 . S
O388 C372 1.215 . S
O389 Ho361 2.524 . S
O389 C372 1.289 . S
O390 Ho361 2.381 . S
O390 C379 1.275 . S
O391 Ho360 2.305 . S
O391 Ho361 2.669 . S
O391 C379 1.256 . S
H392 C365 0.930 . S
H393 C366 0.931 . S
H394 C368 0.934 . S
H395 C369 0.930 . S
H396 C374 0.930 . S
H397 C375 0.931 . S
H398 C377 0.934 . S
H399 C378 0.930 . S
Ho400 C403 2.811 . S
Ho400 O420 2.322 . S
Ho400 O422 2.378 . S
Ho400 O423 2.524 . S
Ho400 O424 2.381 . S
Ho400 O425 2.669 . S
Ho400 O427 2.346 . S
Ho400 O431 2.305 . S
Ho401 C412 2.811 . S
Ho401 O421 2.346 . S
Ho401 O425 2.305 . S
Ho401 O426 2.322 . S
Ho401 O428 2.378 . S
Ho401 O429 2.524 . S
Ho401 O430 2.381 . S
Ho401 O431 2.669 . S
C402 O420 1.259 . S
C402 O421 1.268 . S
C403 Ho400 2.811 . S
C403 C404 1.488 . S
C403 O422 1.215 . S
C403 O423 1.289 . S
C404 C403 1.488 . S
C404 C405 1.348 . S
C404 C409 1.413 . S
C405 C404 1.348 . S
C405 C406 1.442 1_565 S
C405 H432 0.930 . S
C406 C405 1.442 1_545 S
C406 C407 1.381 . S
C406 H433 0.931 . S
C407 C406 1.381 . S
C407 C408 1.321 . S
C408 C407 1.321 . S
C408 C409 1.403 1_545 S
C408 H434 0.934 . S
C409 C404 1.413 . S
C409 C408 1.403 1_565 S
C409 H435 0.930 . S
C410 O424 1.275 . S
C410 O425 1.256 . S
C411 O426 1.259 . S
C411 O427 1.268 . S
C412 Ho401 2.811 . S
C412 C413 1.488 . S
C412 O428 1.215 . S
C412 O429 1.289 . S
C413 C412 1.488 . S
C413 C414 1.348 . S
C413 C418 1.413 . S
C414 C413 1.348 . S
C414 C415 1.442 . S
C414 H436 0.930 . S
C415 C414 1.442 . S
C415 C416 1.381 . S
C415 H437 0.931 . S
C416 C415 1.381 . S
C416 C417 1.321 . S
C417 C416 1.321 . S
C417 C418 1.403 . S
C417 H438 0.934 . S
C418 C413 1.413 . S
C418 C417 1.403 . S
C418 H439 0.930 . S
C419 O430 1.275 . S
C419 O431 1.256 . S
O420 Ho400 2.322 . S
O420 C402 1.259 . S
O421 Ho401 2.346 . S
O421 C402 1.268 . S
O422 Ho400 2.378 . S
O422 C403 1.215 . S
O423 Ho400 2.524 . S
O423 C403 1.289 . S
O424 Ho400 2.381 . S
O424 C410 1.275 . S
O425 Ho400 2.669 . S
O425 Ho401 2.305 . S
O425 C410 1.256 . S
O426 Ho401 2.322 . S
O426 C411 1.259 . S
O427 Ho400 2.346 . S
O427 C411 1.268 . S
O428 Ho401 2.378 . S
O428 C412 1.215 . S
O429 Ho401 2.524 . S
O429 C412 1.289 . S
O430 Ho401 2.381 . S
O430 C419 1.275 . S
O431 Ho400 2.305 . S
O431 Ho401 2.669 . S
O431 C419 1.256 . S
H432 C405 0.930 . S
H433 C406 0.931 . S
H434 C408 0.934 . S
H435 C409 0.930 . S
H436 C414 0.930 . S
H437 C415 0.931 . S
H438 C417 0.934 . S
H439 C418 0.930 . S
Ho440 C443 2.811 . S
Ho440 O460 2.322 . S
Ho440 O462 2.378 . S
Ho440 O463 2.524 . S
Ho440 O464 2.381 . S
Ho440 O465 2.669 . S
Ho440 O467 2.346 . S
Ho440 O471 2.305 . S
Ho441 C452 2.811 . S
Ho441 O461 2.346 . S
Ho441 O465 2.305 . S
Ho441 O466 2.322 . S
Ho441 O468 2.378 . S
Ho441 O469 2.524 . S
Ho441 O470 2.381 . S
Ho441 O471 2.669 . S
C442 O460 1.259 . S
C442 O461 1.268 . S
C443 Ho440 2.811 . S
C443 C444 1.488 . S
C443 O462 1.215 . S
C443 O463 1.289 . S
C444 C443 1.488 . S
C444 C445 1.348 . S
C444 C449 1.413 . S
C445 C444 1.348 . S
C445 C446 1.442 . S
C445 H472 0.930 . S
C446 C445 1.442 . S
C446 C447 1.381 . S
C446 H473 0.931 . S
C447 C446 1.381 . S
C447 C448 1.321 . S
C448 C447 1.321 . S
C448 C449 1.403 . S
C448 H474 0.934 . S
C449 C444 1.413 . S
C449 C448 1.403 . S
C449 H475 0.930 . S
C450 O464 1.275 . S
C450 O465 1.256 . S
C451 O466 1.259 . S
C451 O467 1.268 . S
C452 Ho441 2.811 . S
C452 C453 1.488 . S
C452 O468 1.215 . S
C452 O469 1.289 . S
C453 C452 1.488 . S
C453 C454 1.348 . S
C453 C458 1.413 . S
C454 C453 1.348 . S
C454 C455 1.442 . S
C454 H476 0.930 . S
C455 C454 1.442 . S
C455 C456 1.381 . S
C455 H477 0.931 . S
C456 C455 1.381 . S
C456 C457 1.321 . S
C457 C456 1.321 . S
C457 C458 1.403 . S
C457 H478 0.934 . S
C458 C453 1.413 . S
C458 C457 1.403 . S
C458 H479 0.930 . S
C459 O470 1.275 . S
C459 O471 1.256 . S
O460 Ho440 2.322 . S
O460 C442 1.259 . S
O461 Ho441 2.346 . S
O461 C442 1.268 . S
O462 Ho440 2.378 . S
O462 C443 1.215 . S
O463 Ho440 2.524 . S
O463 C443 1.289 . S
O464 Ho440 2.381 . S
O464 C450 1.275 . S
O465 Ho440 2.669 . S
O465 Ho441 2.305 . S
O465 C450 1.256 . S
O466 Ho441 2.322 . S
O466 C451 1.259 . S
O467 Ho440 2.346 . S
O467 C451 1.268 . S
O468 Ho441 2.378 . S
O468 C452 1.215 . S
O469 Ho441 2.524 . S
O469 C452 1.289 . S
O470 Ho441 2.381 . S
O470 C459 1.275 . S
O471 Ho440 2.305 . S
O471 Ho441 2.669 . S
O471 C459 1.256 . S
H472 C445 0.930 . S
H473 C446 0.931 . S
H474 C448 0.934 . S
H475 C449 0.930 . S
H476 C454 0.930 . S
H477 C455 0.931 . S
H478 C457 0.934 . S
H479 C458 0.930 . S
H480 C488 0.929 . S
H481 C490 0.930 . S
H482 C492 0.930 . S
H483 C495 0.929 . S
H484 C498 0.930 . S
H485 C500 0.960 . S
H486 C500 0.960 . S
H487 C500 0.960 . S
C488 H480 0.929 . S
C488 C489 1.377 . S
C488 C490 1.384 . S
C489 C488 1.377 . S
C489 C495 1.390 . S
C490 H481 0.930 . S
C490 C488 1.384 . S
C490 C491 1.372 . S
C491 C490 1.372 . S
C491 C492 1.400 . S
C491 C496 1.490 . S
C492 H482 0.930 . S
C492 C491 1.400 . S
C492 C495 1.386 . S
H493 C509 0.930 . S
H494 C510 0.931 . S
C495 H483 0.929 . S
C495 C489 1.390 . S
C495 C492 1.386 . S
C496 C491 1.490 . S
C496 C498 1.395 . S
C496 C499 1.403 . S
H497 C503 0.930 . S
C498 H484 0.930 . S
C498 C496 1.395 . S
C498 C501 1.403 . S
C499 C496 1.403 . S
C499 C500 1.524 . S
C499 C503 1.400 . S
C500 H485 0.960 . S
C500 H486 0.960 . S
C500 H487 0.960 . S
C500 C499 1.524 . S
C501 C498 1.403 . S
C501 C502 1.392 . S
C501 C505 1.495 . S
C502 C501 1.392 . S
C502 C503 1.385 . S
C502 C504 1.478 . S
C503 H497 0.930 . S
C503 C499 1.400 . S
C503 C502 1.385 . S
C504 C502 1.478 . S
C504 C506 1.381 . S
C504 C510 1.383 . S
C505 C501 1.495 . S
C505 H511 0.959 . S
C505 H512 0.961 . S
C505 H513 0.960 . S
C506 C504 1.381 . S
C506 C507 1.394 . S
C506 H514 0.930 . S
C507 C506 1.394 . S
C507 C508 1.383 . S
C507 H515 0.929 . S
C508 C507 1.383 . S
C508 C509 1.377 . S
C509 H493 0.930 . S
C509 C508 1.377 . S
C509 C510 1.379 . S
C510 H494 0.931 . S
C510 C504 1.383 . S
C510 C509 1.379 . S
H511 C505 0.959 . S
H512 C505 0.961 . S
H513 C505 0.960 . S
H514 C506 0.930 . S
H515 C507 0.929 . S
H516 C524 0.929 . S
H517 C526 0.930 . S
H518 C528 0.930 . S
H519 C531 0.929 . S
H520 C534 0.930 . S
H521 C536 0.960 1_655 S
H522 C536 0.960 . S
H523 C536 0.960 . S
C524 H516 0.929 . S
C524 C525 1.377 . S
C524 C526 1.384 . S
C525 C524 1.377 . S
C525 C531 1.390 . S
C526 H517 0.930 . S
C526 C524 1.384 . S
C526 C527 1.372 . S
C527 C526 1.372 . S
C527 C528 1.400 . S
C527 C532 1.490 . S
C528 H518 0.930 . S
C528 C527 1.400 . S
C528 C531 1.386 . S
H529 C545 0.930 . S
H530 C546 0.931 . S
C531 H519 0.929 . S
C531 C525 1.390 . S
C531 C528 1.386 . S
C532 C527 1.490 . S
C532 C534 1.395 . S
C532 C535 1.403 . S
H533 C539 0.930 . S
C534 H520 0.930 . S
C534 C532 1.395 . S
C534 C537 1.380 1_455 S
C535 C532 1.403 . S
C535 C536 1.524 . S
C535 C539 1.400 1_455 S
C536 H521 0.960 1_455 S
C536 H522 0.960 . S
C536 H523 0.960 . S
C536 C535 1.524 . S
C537 C534 1.380 1_655 S
C537 C538 1.427 . S
C537 C541 1.484 . S
C538 C537 1.427 . S
C538 C539 1.385 . S
C538 C540 1.478 . S
C539 H533 0.930 . S
C539 C535 1.400 1_655 S
C539 C538 1.385 . S
C540 C538 1.478 . S
C540 C542 1.381 . S
C540 C546 1.383 . S
C541 C537 1.484 . S
C541 H547 0.959 1_655 S
C541 H548 0.961 . S
C541 H549 0.960 . S
C542 C540 1.381 . S
C542 C543 1.394 . S
C542 H550 0.930 . S
C543 C542 1.394 . S
C543 C544 1.383 . S
C543 H551 0.929 . S
C544 C543 1.383 . S
C544 C545 1.377 . S
C545 H529 0.930 . S
C545 C544 1.377 . S
C545 C546 1.379 . S
C546 H530 0.931 . S
C546 C540 1.383 . S
C546 C545 1.379 . S
H547 C541 0.959 1_455 S
H548 C541 0.961 . S
H549 C541 0.960 . S
H550 C542 0.930 . S
H551 C543 0.929 . S
H552 C560 0.929 . S
H553 C562 0.930 . S
H554 C564 0.930 . S
H555 C567 0.929 . S
H556 C570 0.941 . S
H557 C572 0.960 . S
H558 C572 0.960 . S
H559 C572 0.960 . S
C560 H552 0.929 . S
C560 C561 1.377 . S
C560 C562 1.384 . S
C561 C560 1.377 . S
C561 C567 1.390 . S
C562 H553 0.930 . S
C562 C560 1.384 . S
C562 C563 1.372 . S
C563 C562 1.372 . S
C563 C564 1.400 . S
C563 C568 1.490 . S
C564 H554 0.930 . S
C564 C563 1.400 . S
C564 C567 1.386 . S
H565 C581 0.930 . S
H566 C582 0.931 . S
C567 H555 0.929 . S
C567 C561 1.390 . S
C567 C564 1.386 . S
C568 C563 1.490 . S
C568 C570 1.399 . S
C568 C571 1.403 . S
H569 C575 0.930 . S
C570 H556 0.941 . S
C570 C568 1.399 . S
C570 C573 1.388 1_545 S
C571 C568 1.403 . S
C571 C572 1.524 . S
C571 C575 1.400 1_545 S
C572 H557 0.960 . S
C572 H558 0.960 . S
C572 H559 0.960 . S
C572 C571 1.524 . S
C573 C570 1.388 1_565 S
C573 C574 1.392 . S
C573 C577 1.495 . S
C574 C573 1.392 . S
C574 C575 1.385 . S
C574 C576 1.478 . S
C575 H569 0.930 . S
C575 C571 1.400 1_565 S
C575 C574 1.385 . S
C576 C574 1.478 . S
C576 C578 1.381 . S
C576 C582 1.383 . S
C577 C573 1.495 . S
C577 H583 0.959 . S
C577 H584 0.961 . S
C577 H585 0.960 . S
C578 C576 1.381 . S
C578 C579 1.394 . S
C578 H586 0.930 . S
C579 C578 1.394 . S
C579 C580 1.383 . S
C579 H587 0.929 . S
C580 C579 1.383 . S
C580 C581 1.377 . S
C581 H565 0.930 . S
C581 C580 1.377 . S
C581 C582 1.379 . S
C582 H566 0.931 . S
C582 C576 1.383 . S
C582 C581 1.379 . S
H583 C577 0.959 . S
H584 C577 0.961 . S
H585 C577 0.960 . S
H586 C578 0.930 . S
H587 C579 0.929 . S
H588 C596 0.929 . S
H589 C598 0.930 . S
H590 C600 0.930 . S
H591 C603 0.929 . S
H592 C606 0.930 . S
H593 C608 0.960 . S
H594 C608 0.960 . S
H595 C608 0.960 . S
C596 H588 0.929 . S
C596 C597 1.377 . S
C596 C598 1.384 . S
C597 C596 1.377 . S
C597 C603 1.390 . S
C598 H589 0.930 . S
C598 C596 1.384 . S
C598 C599 1.372 . S
C599 C598 1.372 . S
C599 C600 1.400 . S
C599 C604 1.490 . S
C600 H590 0.930 . S
C600 C599 1.400 . S
C600 C603 1.386 . S
H601 C617 0.930 . S
H602 C618 0.931 . S
C603 H591 0.929 . S
C603 C597 1.390 . S
C603 C600 1.386 . S
C604 C599 1.490 . S
C604 C606 1.395 . S
C604 C607 1.403 . S
H605 C611 0.930 . S
C606 H592 0.930 . S
C606 C604 1.395 . S
C606 C609 1.403 . S
C607 C604 1.403 . S
C607 C608 1.524 . S
C607 C611 1.400 . S
C608 H593 0.960 . S
C608 H594 0.960 . S
C608 H595 0.960 . S
C608 C607 1.524 . S
C609 C606 1.403 . S
C609 C610 1.392 . S
C609 C613 1.495 . S
C610 C609 1.392 . S
C610 C611 1.385 . S
C610 C612 1.478 . S
C611 H605 0.930 . S
C611 C607 1.400 . S
C611 C610 1.385 . S
C612 C610 1.478 . S
C612 C614 1.381 . S
C612 C618 1.383 . S
C613 C609 1.495 . S
C613 H619 0.959 . S
C613 H620 0.961 . S
C613 H621 0.960 . S
C614 C612 1.381 . S
C614 C615 1.394 . S
C614 H622 0.930 . S
C615 C614 1.394 . S
C615 C616 1.383 . S
C615 H623 0.929 . S
C616 C615 1.383 . S
C616 C617 1.377 . S
C617 H601 0.930 . S
C617 C616 1.377 . S
C617 C618 1.379 . S
C618 H602 0.931 . S
C618 C612 1.383 . S
C618 C617 1.379 . S
H619 C613 0.959 . S
H620 C613 0.961 . S
H621 C613 0.960 . S
H622 C614 0.930 . S
H623 C615 0.929 . S
H624 C632 0.929 . S
H625 C634 0.930 . S
H626 C636 0.930 . S
H627 C639 0.929 . S
H628 C642 0.930 . S
H629 C644 0.960 . S
H630 C644 0.960 . S
H631 C644 0.960 . S
C632 H624 0.929 . S
C632 C633 1.377 . S
C632 C634 1.384 . S
C633 C632 1.377 . S
C633 C639 1.390 . S
C634 H625 0.930 . S
C634 C632 1.384 . S
C634 C635 1.372 . S
C635 C634 1.372 . S
C635 C636 1.400 . S
C635 C640 1.490 . S
C636 H626 0.930 . S
C636 C635 1.400 . S
C636 C639 1.386 . S
H637 C653 0.930 . S
H638 C654 0.931 . S
C639 H627 0.929 . S
C639 C633 1.390 . S
C639 C636 1.386 . S
C640 C635 1.490 . S
C640 C642 1.395 . S
C640 C643 1.403 . S
H641 C647 0.930 . S
C642 H628 0.930 . S
C642 C640 1.395 . S
C642 C645 1.403 1_455 S
C643 C640 1.403 . S
C643 C644 1.524 . S
C643 C647 1.400 1_455 S
C644 H629 0.960 . S
C644 H630 0.960 . S
C644 H631 0.960 . S
C644 C643 1.524 . S
C645 C642 1.403 1_655 S
C645 C646 1.392 . S
C645 C649 1.495 . S
C646 C645 1.392 . S
C646 C647 1.385 . S
C646 C648 1.478 . S
C647 H641 0.930 . S
C647 C643 1.400 1_655 S
C647 C646 1.385 . S
C648 C646 1.478 . S
C648 C650 1.381 . S
C648 C654 1.383 . S
C649 C645 1.495 . S
C649 H655 0.959 . S
C649 H656 0.961 . S
C649 H657 0.960 . S
C650 C648 1.381 . S
C650 C651 1.394 . S
C650 H658 0.930 . S
C651 C650 1.394 . S
C651 C652 1.383 . S
C651 H659 0.929 . S
C652 C651 1.383 . S
C652 C653 1.377 . S
C653 H637 0.930 . S
C653 C652 1.377 . S
C653 C654 1.379 . S
C654 H638 0.931 . S
C654 C648 1.383 . S
C654 C653 1.379 . S
H655 C649 0.959 . S
H656 C649 0.961 . S
H657 C649 0.960 . S
H658 C650 0.930 . S
H659 C651 0.929 . S
H660 C668 0.929 . S
H661 C670 0.930 . S
H662 C672 0.930 . S
H663 C675 0.929 . S
H664 C678 0.930 . S
H665 C680 0.960 . S
H666 C680 0.960 . S
H667 C680 0.960 . S
C668 H660 0.929 . S
C668 C669 1.377 . S
C668 C670 1.384 . S
C669 C668 1.377 . S
C669 C675 1.390 . S
C670 H661 0.930 . S
C670 C668 1.384 . S
C670 C671 1.372 . S
C671 C670 1.372 . S
C671 C672 1.400 . S
C671 C676 1.490 . S
C672 H662 0.930 . S
C672 C671 1.400 . S
C672 C675 1.386 . S
H673 C689 0.930 . S
H674 C690 0.931 . S
C675 H663 0.929 . S
C675 C669 1.390 . S
C675 C672 1.386 . S
C676 C671 1.490 . S
C676 C678 1.395 . S
C676 C679 1.403 . S
H677 C683 0.930 . S
C678 H664 0.930 . S
C678 C676 1.395 . S
C678 C681 1.403 1_565 S
C679 C676 1.403 . S
C679 C680 1.524 . S
C679 C683 1.400 1_565 S
C680 H665 0.960 . S
C680 H666 0.960 . S
C680 H667 0.960 . S
C680 C679 1.524 . S
C681 C678 1.403 1_545 S
C681 C682 1.392 . S
C681 C685 1.495 . S
C682 C681 1.392 . S
C682 C683 1.385 . S
C682 C684 1.478 . S
C683 H677 0.930 . S
C683 C679 1.400 1_545 S
C683 C682 1.385 . S
C684 C682 1.478 . S
C684 C686 1.381 . S
C684 C690 1.383 . S
C685 C681 1.495 . S
C685 H691 0.959 1_545 S
C685 H692 0.961 . S
C685 H693 0.960 . S
C686 C684 1.381 . S
C686 C687 1.394 . S
C686 H694 0.930 . S
C687 C686 1.394 . S
C687 C688 1.383 . S
C687 H695 0.929 . S
C688 C687 1.383 . S
C688 C689 1.377 . S
C689 H673 0.930 . S
C689 C688 1.377 . S
C689 C690 1.379 . S
C690 H674 0.931 . S
C690 C684 1.383 . S
C690 C689 1.379 . S
H691 C685 0.959 1_565 S
H692 C685 0.961 . S
H693 C685 0.960 . S
H694 C686 0.930 . S
H695 C687 0.929 . S
H696 C704 0.929 . S
H697 C706 0.930 . S
H698 C708 0.930 . S
H699 C711 0.929 . S
H700 C714 0.930 . S
H701 C716 0.960 . S
H702 C716 0.960 . S
H703 C716 0.960 . S
C704 H696 0.929 . S
C704 C705 1.377 . S
C704 C706 1.384 . S
C705 C704 1.377 . S
C705 C711 1.390 . S
C706 H697 0.930 . S
C706 C704 1.384 . S
C706 C707 1.372 . S
C707 C706 1.372 . S
C707 C708 1.400 . S
C707 C712 1.490 . S
C708 H698 0.930 . S
C708 C707 1.400 . S
C708 C711 1.386 . S
H709 C725 0.930 . S
H710 C726 0.931 . S
C711 H699 0.929 . S
C711 C705 1.390 . S
C711 C708 1.386 . S
C712 C707 1.490 . S
C712 C714 1.395 . S
C712 C715 1.403 . S
H713 C719 0.930 . S
C714 H700 0.930 . S
C714 C712 1.395 . S
C714 C717 1.403 . S
C715 C712 1.403 . S
C715 C716 1.524 . S
C715 C719 1.400 . S
C716 H701 0.960 . S
C716 H702 0.960 . S
C716 H703 0.960 . S
C716 C715 1.524 . S
C717 C714 1.403 . S
C717 C718 1.392 . S
C717 C721 1.495 . S
C718 C717 1.392 . S
C718 C719 1.385 . S
C718 C720 1.478 . S
C719 H713 0.930 . S
C719 C715 1.400 . S
C719 C718 1.385 . S
C720 C718 1.478 . S
C720 C722 1.381 . S
C720 C726 1.383 . S
C721 C717 1.495 . S
C721 H727 0.959 . S
C721 H728 0.961 . S
C721 H729 0.960 . S
C722 C720 1.381 . S
C722 C723 1.394 . S
C722 H730 0.930 . S
C723 C722 1.394 . S
C723 C724 1.383 . S
C723 H731 0.929 . S
C724 C723 1.383 . S
C724 C725 1.377 . S
C725 H709 0.930 . S
C725 C724 1.377 . S
C725 C726 1.379 . S
C726 H710 0.931 . S
C726 C720 1.383 . S
C726 C725 1.379 . S
H727 C721 0.959 . S
H728 C721 0.961 . S
H729 C721 0.960 . S
H730 C722 0.930 . S
H731 C723 0.929 . S
H732 C740 0.929 . S
H733 C742 0.930 . S
H734 C744 0.930 . S
H735 C747 0.929 . S
H736 C750 0.942 . S
H737 C752 0.960 . S
H738 C752 0.960 . S
H739 C752 0.960 . S
C740 H732 0.929 . S
C740 C741 1.377 . S
C740 C742 1.384 . S
C741 C740 1.377 . S
C741 C747 1.390 . S
C742 H733 0.930 . S
C742 C740 1.384 . S
C742 C743 1.372 . S
C743 C742 1.372 . S
C743 C744 1.400 . S
C743 C748 1.490 . S
C744 H734 0.930 . S
C744 C743 1.400 . S
C744 C747 1.386 . S
H745 C761 0.930 . S
H746 C762 0.931 . S
C747 H735 0.929 . S
C747 C741 1.390 . S
C747 C744 1.386 . S
C748 C743 1.490 . S
C748 C750 1.400 . S
C748 C751 1.403 . S
H749 C755 0.930 . S
C750 H736 0.942 . S
C750 C748 1.400 . S
C750 C753 1.387 1_455 S
C751 C748 1.403 . S
C751 C752 1.524 . S
C751 C755 1.400 1_455 S
C752 H737 0.960 . S
C752 H738 0.960 . S
C752 H739 0.960 . S
C752 C751 1.524 . S
C753 C750 1.387 1_655 S
C753 C754 1.392 . S
C753 C757 1.495 . S
C754 C753 1.392 . S
C754 C755 1.385 . S
C754 C756 1.478 . S
C755 H749 0.930 . S
C755 C751 1.400 1_655 S
C755 C754 1.385 . S
C756 C754 1.478 . S
C756 C758 1.381 . S
C756 C762 1.383 . S
C757 C753 1.495 . S
C757 H763 0.959 . S
C757 H764 0.961 . S
C757 H765 0.960 . S
C758 C756 1.381 . S
C758 C759 1.394 . S
C758 H766 0.930 . S
C759 C758 1.394 . S
C759 C760 1.383 . S
C759 H767 0.929 . S
C760 C759 1.383 . S
C760 C761 1.377 . S
C761 H745 0.930 . S
C761 C760 1.377 . S
C761 C762 1.379 . S
C762 H746 0.931 . S
C762 C756 1.383 . S
C762 C761 1.379 . S
H763 C757 0.959 . S
H764 C757 0.961 . S
H765 C757 0.960 . S
H766 C758 0.930 . S
H767 C759 0.929 . S
H768 C776 0.929 . S
H769 C778 0.930 . S
H770 C780 0.930 . S
H771 C783 0.929 . S
H772 C786 0.930 . S
H773 C788 0.960 1_545 S
H774 C788 0.960 . S
H775 C788 0.960 . S
C776 H768 0.929 . S
C776 C777 1.377 . S
C776 C778 1.384 . S
C777 C776 1.377 . S
C777 C783 1.390 . S
C778 H769 0.930 . S
C778 C776 1.384 . S
C778 C779 1.372 . S
C779 C778 1.372 . S
C779 C780 1.400 . S
C779 C784 1.490 . S
C780 H770 0.930 . S
C780 C779 1.400 . S
C780 C783 1.386 . S
H781 C797 0.930 . S
H782 C798 0.931 . S
C783 H771 0.929 . S
C783 C777 1.390 . S
C783 C780 1.386 . S
C784 C779 1.490 . S
C784 C786 1.395 . S
C784 C787 1.403 . S
H785 C791 0.930 . S
C786 H772 0.930 . S
C786 C784 1.395 . S
C786 C789 1.403 1_565 S
C787 C784 1.403 . S
C787 C788 1.524 . S
C787 C791 1.400 1_565 S
C788 H773 0.960 1_565 S
C788 H774 0.960 . S
C788 H775 0.960 . S
C788 C787 1.524 . S
C789 C786 1.403 1_545 S
C789 C790 1.392 . S
C789 C793 1.495 . S
C790 C789 1.392 . S
C790 C791 1.385 . S
C790 C792 1.478 . S
C791 H785 0.930 . S
C791 C787 1.400 1_545 S
C791 C790 1.385 . S
C792 C790 1.478 . S
C792 C794 1.381 . S
C792 C798 1.383 . S
C793 C789 1.495 . S
C793 H799 0.959 . S
C793 H800 0.961 . S
C793 H801 0.960 . S
C794 C792 1.381 . S
C794 C795 1.394 . S
C794 H802 0.930 . S
C795 C794 1.394 . S
C795 C796 1.383 . S
C795 H803 0.929 . S
C796 C795 1.383 . S
C796 C797 1.377 . S
C797 H781 0.930 . S
C797 C796 1.377 . S
C797 C798 1.379 . S
C798 H782 0.931 . S
C798 C792 1.383 . S
C798 C797 1.379 . S
H799 C793 0.959 . S
H800 C793 0.961 . S
H801 C793 0.960 . S
H802 C794 0.930 . S
H803 C795 0.929 . S
H804 C812 0.929 . S
H805 C814 0.930 . S
H806 C816 0.930 . S
H807 C819 0.929 . S
H808 C822 0.930 . S
H809 C824 0.960 . S
H810 C824 0.960 . S
H811 C824 0.960 . S
C812 H804 0.929 . S
C812 C813 1.377 . S
C812 C814 1.384 . S
C813 C812 1.377 . S
C813 C819 1.390 . S
C814 H805 0.930 . S
C814 C812 1.384 . S
C814 C815 1.372 . S
C815 C814 1.372 . S
C815 C816 1.400 . S
C815 C820 1.490 . S
C816 H806 0.930 . S
C816 C815 1.400 . S
C816 C819 1.386 . S
H817 C833 0.930 . S
H818 C834 0.931 . S
C819 H807 0.929 . S
C819 C813 1.390 . S
C819 C816 1.386 . S
C820 C815 1.490 . S
C820 C822 1.395 . S
C820 C823 1.403 . S
H821 C827 0.930 . S
C822 H808 0.930 . S
C822 C820 1.395 . S
C822 C825 1.403 . S
C823 C820 1.403 . S
C823 C824 1.524 . S
C823 C827 1.400 . S
C824 H809 0.960 . S
C824 H810 0.960 . S
C824 H811 0.960 . S
C824 C823 1.524 . S
C825 C822 1.403 . S
C825 C826 1.392 . S
C825 C829 1.495 . S
C826 C825 1.392 . S
C826 C827 1.385 . S
C826 C828 1.478 . S
C827 H821 0.930 . S
C827 C823 1.400 . S
C827 C826 1.385 . S
C828 C826 1.478 . S
C828 C830 1.381 . S
C828 C834 1.383 . S
C829 C825 1.495 . S
C829 H835 0.959 . S
C829 H836 0.961 . S
C829 H837 0.960 . S
C830 C828 1.381 . S
C830 C831 1.394 . S
C830 H838 0.930 . S
C831 C830 1.394 . S
C831 C832 1.383 . S
C831 H839 0.929 . S
C832 C831 1.383 . S
C832 C833 1.377 . S
C833 H817 0.930 . S
C833 C832 1.377 . S
C833 C834 1.379 . S
C834 H818 0.931 . S
C834 C828 1.383 . S
C834 C833 1.379 . S
H835 C829 0.959 . S
H836 C829 0.961 . S
H837 C829 0.960 . S
H838 C830 0.930 . S
H839 C831 0.929 . S
H840 C848 0.929 . S
H841 C850 0.930 . S
H842 C852 0.930 . S
H843 C855 0.929 . S
H844 C858 0.923 1_455 S
H845 C860 0.960 . S
H846 C860 0.960 . S
H847 C860 0.960 . S
C848 H840 0.929 . S
C848 C849 1.377 . S
C848 C850 1.384 . S
C849 C848 1.377 . S
C849 C855 1.390 . S
C850 H841 0.930 . S
C850 C848 1.384 . S
C850 C851 1.372 . S
C851 C850 1.372 . S
C851 C852 1.400 . S
C851 C856 1.490 . S
C852 H842 0.930 . S
C852 C851 1.400 . S
C852 C855 1.386 . S
H853 C869 0.930 . S
H854 C870 0.931 . S
C855 H843 0.929 . S
C855 C849 1.390 . S
C855 C852 1.386 . S
C856 C851 1.490 . S
C856 C858 1.391 1_455 S
C856 C859 1.403 . S
H857 C863 0.930 . S
C858 H844 0.923 1_655 S
C858 C856 1.391 1_655 S
C858 C861 1.414 . S
C859 C856 1.403 . S
C859 C860 1.524 . S
C859 C863 1.400 1_455 S
C860 H845 0.960 . S
C860 H846 0.960 . S
C860 H847 0.960 . S
C860 C859 1.524 . S
C861 C858 1.414 . S
C861 C862 1.392 . S
C861 C865 1.495 . S
C862 C861 1.392 . S
C862 C863 1.385 . S
C862 C864 1.478 . S
C863 H857 0.930 . S
C863 C859 1.400 1_655 S
C863 C862 1.385 . S
C864 C862 1.478 . S
C864 C866 1.381 . S
C864 C870 1.383 . S
C865 C861 1.495 . S
C865 H871 0.959 . S
C865 H872 0.961 . S
C865 H873 0.960 . S
C866 C864 1.381 . S
C866 C867 1.394 . S
C866 H874 0.930 . S
C867 C866 1.394 . S
C867 C868 1.383 . S
C867 H875 0.929 . S
C868 C867 1.383 . S
C868 C869 1.377 . S
C869 H853 0.930 . S
C869 C868 1.377 . S
C869 C870 1.379 . S
C870 H854 0.931 . S
C870 C864 1.383 . S
C870 C869 1.379 . S
H871 C865 0.959 . S
H872 C865 0.961 . S
H873 C865 0.960 . S
H874 C866 0.930 . S
H875 C867 0.929 . S
H876 C884 0.929 . S
H877 C886 0.930 . S
H878 C888 0.930 . S
H879 C891 0.929 . S
H880 C894 0.930 . S
H881 C896 0.960 . S
H882 C896 0.960 . S
H883 C896 0.960 . S
C884 H876 0.929 . S
C884 C885 1.377 . S
C884 C886 1.384 . S
C885 C884 1.377 . S
C885 C891 1.390 . S
C886 H877 0.930 . S
C886 C884 1.384 . S
C886 C887 1.372 . S
C887 C886 1.372 . S
C887 C888 1.400 . S
C887 C892 1.490 . S
C888 H878 0.930 . S
C888 C887 1.400 . S
C888 C891 1.386 . S
H889 C905 0.930 . S
H890 C906 0.931 . S
C891 H879 0.929 . S
C891 C885 1.390 . S
C891 C888 1.386 . S
C892 C887 1.490 . S
C892 C894 1.395 . S
C892 C895 1.403 . S
H893 C899 0.930 . S
C894 H880 0.930 . S
C894 C892 1.395 . S
C894 C897 1.403 1_545 S
C895 C892 1.403 . S
C895 C896 1.524 . S
C895 C899 1.400 1_545 S
C896 H881 0.960 . S
C896 H882 0.960 . S
C896 H883 0.960 . S
C896 C895 1.524 . S
C897 C894 1.403 1_565 S
C897 C898 1.392 . S
C897 C901 1.495 . S
C898 C897 1.392 . S
C898 C899 1.385 . S
C898 C900 1.478 . S
C899 H893 0.930 . S
C899 C895 1.400 1_565 S
C899 C898 1.385 . S
C900 C898 1.478 . S
C900 C902 1.381 . S
C900 C906 1.383 . S
C901 C897 1.495 . S
C901 H907 0.959 . S
C901 H908 0.961 . S
C901 H909 0.960 . S
C902 C900 1.381 . S
C902 C903 1.394 . S
C902 H910 0.930 . S
C903 C902 1.394 . S
C903 C904 1.383 . S
C903 H911 0.929 . S
C904 C903 1.383 . S
C904 C905 1.377 . S
C905 H889 0.930 . S
C905 C904 1.377 . S
C905 C906 1.379 . S
C906 H890 0.931 . S
C906 C900 1.383 . S
C906 C905 1.379 . S
H907 C901 0.959 . S
H908 C901 0.961 . S
H909 C901 0.960 . S
H910 C902 0.930 . S
H911 C903 0.929 . S
H912 C920 0.929 . S
H913 C922 0.930 . S
H914 C924 0.930 . S
H915 C927 0.929 . S
H916 C930 0.930 . S
H917 C932 0.960 . S
H918 C932 0.960 . S
H919 C932 0.960 . S
C920 H912 0.929 . S
C920 C921 1.377 . S
C920 C922 1.384 . S
C921 C920 1.377 . S
C921 C927 1.390 . S
C922 H913 0.930 . S
C922 C920 1.384 . S
C922 C923 1.372 . S
C923 C922 1.372 . S
C923 C924 1.400 . S
C923 C928 1.490 . S
C924 H914 0.930 . S
C924 C923 1.400 . S
C924 C927 1.386 . S
H925 C941 0.930 . S
H926 C942 0.931 . S
C927 H915 0.929 . S
C927 C921 1.390 . S
C927 C924 1.386 . S
C928 C923 1.490 . S
C928 C930 1.395 . S
C928 C931 1.403 . S
H929 C935 0.930 . S
C930 H916 0.930 . S
C930 C928 1.395 . S
C930 C933 1.403 . S
C931 C928 1.403 . S
C931 C932 1.524 . S
C931 C935 1.400 . S
C932 H917 0.960 . S
C932 H918 0.960 . S
C932 H919 0.960 . S
C932 C931 1.524 . S
C933 C930 1.403 . S
C933 C934 1.392 . S
C933 C937 1.495 . S
C934 C933 1.392 . S
C934 C935 1.385 . S
C934 C936 1.478 . S
C935 H929 0.930 . S
C935 C931 1.400 . S
C935 C934 1.385 . S
C936 C934 1.478 . S
C936 C938 1.381 . S
C936 C942 1.383 . S
C937 C933 1.495 . S
C937 H943 0.959 . S
C937 H944 0.961 . S
C937 H945 0.960 . S
C938 C936 1.381 . S
C938 C939 1.394 . S
C938 H946 0.930 . S
C939 C938 1.394 . S
C939 C940 1.383 . S
C939 H947 0.929 . S
C940 C939 1.383 . S
C940 C941 1.377 . S
C941 H925 0.930 . S
C941 C940 1.377 . S
C941 C942 1.379 . S
C942 H926 0.931 . S
C942 C936 1.383 . S
C942 C941 1.379 . S
H943 C937 0.959 . S
H944 C937 0.961 . S
H945 C937 0.960 . S
H946 C938 0.930 . S
H947 C939 0.929 . S
H948 C956 0.929 . S
H949 C958 0.930 . S
H950 C960 0.930 . S
H951 C963 0.929 . S
H952 C966 0.930 . S
H953 C968 0.960 . S
H954 C968 0.960 . S
H955 C968 0.960 . S
C956 H948 0.929 . S
C956 C957 1.377 . S
C956 C958 1.384 . S
C957 C956 1.377 . S
C957 C963 1.390 . S
C958 H949 0.930 . S
C958 C956 1.384 . S
C958 C959 1.372 . S
C959 C958 1.372 . S
C959 C960 1.400 . S
C959 C964 1.490 . S
C960 H950 0.930 . S
C960 C959 1.400 . S
C960 C963 1.386 . S
H961 C977 0.930 . S
H962 C978 0.931 . S
C963 H951 0.929 . S
C963 C957 1.390 . S
C963 C960 1.386 . S
C964 C959 1.490 . S
C964 C966 1.395 . S
C964 C967 1.403 . S
H965 C971 0.930 . S
C966 H952 0.930 . S
C966 C964 1.395 . S
C966 C969 1.403 . S
C967 C964 1.403 . S
C967 C968 1.524 . S
C967 C971 1.400 . S
C968 H953 0.960 . S
C968 H954 0.960 . S
C968 H955 0.960 . S
C968 C967 1.524 . S
C969 C966 1.403 . S
C969 C970 1.392 . S
C969 C973 1.495 . S
C970 C969 1.392 . S
C970 C971 1.385 . S
C970 C972 1.478 . S
C971 H965 0.930 . S
C971 C967 1.400 . S
C971 C970 1.385 . S
C972 C970 1.478 . S
C972 C974 1.381 . S
C972 C978 1.383 . S
C973 C969 1.495 . S
C973 H979 0.959 . S
C973 H980 0.961 . S
C973 H981 0.960 . S
C974 C972 1.381 . S
C974 C975 1.394 . S
C974 H982 0.930 . S
C975 C974 1.394 . S
C975 C976 1.383 . S
C975 H983 0.929 . S
C976 C975 1.383 . S
C976 C977 1.377 . S
C977 H961 0.930 . S
C977 C976 1.377 . S
C977 C978 1.379 . S
C978 H962 0.931 . S
C978 C972 1.383 . S
C978 C977 1.379 . S
H979 C973 0.959 . S
H980 C973 0.961 . S
H981 C973 0.960 . S
H982 C974 0.930 . S
H983 C975 0.929 . S
H984 C992 0.929 . S
H985 C994 0.930 . S
H986 C996 0.930 . S
H987 C999 0.929 . S
H988 C1002 0.930 . S
H989 C1004 0.960 . S
H990 C1004 0.960 . S
H991 C1004 0.960 . S
C992 H984 0.929 . S
C992 C993 1.377 . S
C992 C994 1.384 . S
C993 C992 1.377 . S
C993 C999 1.390 . S
C994 H985 0.930 . S
C994 C992 1.384 . S
C994 C995 1.372 . S
C995 C994 1.372 . S
C995 C996 1.400 . S
C995 C1000 1.490 . S
C996 H986 0.930 . S
C996 C995 1.400 . S
C996 C999 1.386 . S
H997 C1013 0.930 . S
H998 C1014 0.931 . S
C999 H987 0.929 . S
C999 C993 1.390 . S
C999 C996 1.386 . S
C1000 C995 1.490 . S
C1000 C1002 1.395 . S
C1000 C1003 1.403 . S
H1001 C1007 0.930 . S
C1002 H988 0.930 . S
C1002 C1000 1.395 . S
C1002 C1005 1.403 . S
C1003 C1000 1.403 . S
C1003 C1004 1.524 . S
C1003 C1007 1.400 . S
C1004 H989 0.960 . S
C1004 H990 0.960 . S
C1004 H991 0.960 . S
C1004 C1003 1.524 . S
C1005 C1002 1.403 . S
C1005 C1006 1.392 . S
C1005 C1009 1.495 . S
C1006 C1005 1.392 . S
C1006 C1007 1.385 . S
C1006 C1008 1.478 . S
C1007 H1001 0.930 . S
C1007 C1003 1.400 . S
C1007 C1006 1.385 . S
C1008 C1006 1.478 . S
C1008 C1010 1.381 . S
C1008 C1014 1.383 . S
C1009 C1005 1.495 . S
C1009 H1015 0.959 . S
C1009 H1016 0.961 . S
C1009 H1017 0.960 . S
C1010 C1008 1.381 . S
C1010 C1011 1.394 . S
C1010 H1018 0.930 . S
C1011 C1010 1.394 . S
C1011 C1012 1.383 . S
C1011 H1019 0.929 . S
C1012 C1011 1.383 . S
C1012 C1013 1.377 . S
C1013 H997 0.930 . S
C1013 C1012 1.377 . S
C1013 C1014 1.379 . S
C1014 H998 0.931 . S
C1014 C1008 1.383 . S
C1014 C1013 1.379 . S
H1015 C1009 0.959 . S
H1016 C1009 0.961 . S
H1017 C1009 0.960 . S
H1018 C1010 0.930 . S
H1019 C1011 0.929 . S
H1020 C1028 0.929 . S
H1021 C1030 0.930 . S
H1022 C1032 0.930 . S
H1023 C1035 0.929 . S
H1024 C1038 0.930 . S
H1025 C1040 0.960 . S
H1026 C1040 0.960 . S
H1027 C1040 0.960 . S
C1028 H1020 0.929 . S
C1028 C1029 1.377 . S
C1028 C1030 1.384 . S
C1029 C1028 1.377 . S
C1029 C1035 1.390 . S
C1030 H1021 0.930 . S
C1030 C1028 1.384 . S
C1030 C1031 1.372 . S
C1031 C1030 1.372 . S
C1031 C1032 1.400 . S
C1031 C1036 1.490 . S
C1032 H1022 0.930 . S
C1032 C1031 1.400 . S
C1032 C1035 1.386 . S
H1033 C1049 0.930 . S
H1034 C1050 0.931 . S
C1035 H1023 0.929 . S
C1035 C1029 1.390 . S
C1035 C1032 1.386 . S
C1036 C1031 1.490 . S
C1036 C1038 1.395 . S
C1036 C1039 1.403 . S
H1037 C1043 0.930 . S
C1038 H1024 0.930 . S
C1038 C1036 1.395 . S
C1038 C1041 1.403 . S
C1039 C1036 1.403 . S
C1039 C1040 1.524 . S
C1039 C1043 1.400 . S
C1040 H1025 0.960 . S
C1040 H1026 0.960 . S
C1040 H1027 0.960 . S
C1040 C1039 1.524 . S
C1041 C1038 1.403 . S
C1041 C1042 1.392 . S
C1041 C1045 1.495 . S
C1042 C1041 1.392 . S
C1042 C1043 1.385 . S
C1042 C1044 1.478 . S
C1043 H1037 0.930 . S
C1043 C1039 1.400 . S
C1043 C1042 1.385 . S
C1044 C1042 1.478 . S
C1044 C1046 1.381 . S
C1044 C1050 1.383 . S
C1045 C1041 1.495 . S
C1045 H1051 0.959 . S
C1045 H1052 0.961 . S
C1045 H1053 0.960 . S
C1046 C1044 1.381 . S
C1046 C1047 1.394 . S
C1046 H1054 0.930 . S
C1047 C1046 1.394 . S
C1047 C1048 1.383 . S
C1047 H1055 0.929 . S
C1048 C1047 1.383 . S
C1048 C1049 1.377 . S
C1049 H1033 0.930 . S
C1049 C1048 1.377 . S
C1049 C1050 1.379 . S
C1050 H1034 0.931 . S
C1050 C1044 1.383 . S
C1050 C1049 1.379 . S
H1051 C1045 0.959 . S
H1052 C1045 0.961 . S
H1053 C1045 0.960 . S
H1054 C1046 0.930 . S
H1055 C1047 0.929 . S
H1056 C1064 0.929 . S
H1057 C1066 0.930 . S
H1058 C1068 0.930 . S
H1059 C1071 0.929 . S
H1060 C1074 0.930 . S
H1061 C1076 0.960 . S
H1062 C1076 0.960 . S
H1063 C1076 0.960 . S
C1064 H1056 0.929 . S
C1064 C1065 1.377 . S
C1064 C1066 1.384 . S
C1065 C1064 1.377 . S
C1065 C1071 1.390 . S
C1066 H1057 0.930 . S
C1066 C1064 1.384 . S
C1066 C1067 1.372 . S
C1067 C1066 1.372 . S
C1067 C1068 1.400 . S
C1067 C1072 1.490 . S
C1068 H1058 0.930 . S
C1068 C1067 1.400 . S
C1068 C1071 1.386 . S
H1069 C1085 0.930 . S
H1070 C1086 0.931 . S
C1071 H1059 0.929 . S
C1071 C1065 1.390 . S
C1071 C1068 1.386 . S
C1072 C1067 1.490 . S
C1072 C1074 1.395 . S
C1072 C1075 1.403 . S
H1073 C1079 0.930 . S
C1074 H1060 0.930 . S
C1074 C1072 1.395 . S
C1074 C1077 1.403 . S
C1075 C1072 1.403 . S
C1075 C1076 1.524 . S
C1075 C1079 1.400 . S
C1076 H1061 0.960 . S
C1076 H1062 0.960 . S
C1076 H1063 0.960 . S
C1076 C1075 1.524 . S
C1077 C1074 1.403 . S
C1077 C1078 1.392 . S
C1077 C1081 1.495 . S
C1078 C1077 1.392 . S
C1078 C1079 1.385 . S
C1078 C1080 1.478 . S
C1079 H1073 0.930 . S
C1079 C1075 1.400 . S
C1079 C1078 1.385 . S
C1080 C1078 1.478 . S
C1080 C1082 1.381 . S
C1080 C1086 1.383 . S
C1081 C1077 1.495 . S
C1081 H1087 0.959 . S
C1081 H1088 0.961 . S
C1081 H1089 0.960 . S
C1082 C1080 1.381 . S
C1082 C1083 1.394 . S
C1082 H1090 0.930 . S
C1083 C1082 1.394 . S
C1083 C1084 1.383 . S
C1083 H1091 0.929 . S
C1084 C1083 1.383 . S
C1084 C1085 1.377 . S
C1085 H1069 0.930 . S
C1085 C1084 1.377 . S
C1085 C1086 1.379 . S
C1086 H1070 0.931 . S
C1086 C1080 1.383 . S
C1086 C1085 1.379 . S
H1087 C1081 0.959 . S
H1088 C1081 0.961 . S
H1089 C1081 0.960 . S
H1090 C1082 0.930 . S
H1091 C1083 0.929 . S
H1092 C1100 0.929 . S
H1093 C1102 0.930 . S
H1094 C1104 0.930 . S
H1095 C1107 0.929 . S
H1096 C1110 0.930 . S
H1097 C1112 0.960 . S
H1098 C1112 0.960 . S
H1099 C1112 0.960 . S
C1100 H1092 0.929 . S
C1100 C1101 1.377 . S
C1100 C1102 1.384 . S
C1101 C1100 1.377 . S
C1101 C1107 1.390 . S
C1102 H1093 0.930 . S
C1102 C1100 1.384 . S
C1102 C1103 1.372 . S
C1103 C1102 1.372 . S
C1103 C1104 1.400 . S
C1103 C1108 1.490 . S
C1104 H1094 0.930 . S
C1104 C1103 1.400 . S
C1104 C1107 1.386 . S
H1105 C1121 0.930 . S
H1106 C1122 0.931 . S
C1107 H1095 0.929 . S
C1107 C1101 1.390 . S
C1107 C1104 1.386 . S
C1108 C1103 1.490 . S
C1108 C1110 1.395 . S
C1108 C1111 1.403 . S
H1109 C1115 0.930 . S
C1110 H1096 0.930 . S
C1110 C1108 1.395 . S
C1110 C1113 1.403 . S
C1111 C1108 1.403 . S
C1111 C1112 1.524 . S
C1111 C1115 1.400 . S
C1112 H1097 0.960 . S
C1112 H1098 0.960 . S
C1112 H1099 0.960 . S
C1112 C1111 1.524 . S
C1113 C1110 1.403 . S
C1113 C1114 1.392 . S
C1113 C1117 1.495 . S
C1114 C1113 1.392 . S
C1114 C1115 1.385 . S
C1114 C1116 1.478 . S
C1115 H1109 0.930 . S
C1115 C1111 1.400 . S
C1115 C1114 1.385 . S
C1116 C1114 1.478 . S
C1116 C1118 1.381 . S
C1116 C1122 1.383 . S
C1117 C1113 1.495 . S
C1117 H1123 0.959 . S
C1117 H1124 0.961 . S
C1117 H1125 0.960 . S
C1118 C1116 1.381 . S
C1118 C1119 1.394 . S
C1118 H1126 0.930 . S
C1119 C1118 1.394 . S
C1119 C1120 1.383 . S
C1119 H1127 0.929 . S
C1120 C1119 1.383 . S
C1120 C1121 1.377 . S
C1121 H1105 0.930 . S
C1121 C1120 1.377 . S
C1121 C1122 1.379 . S
C1122 H1106 0.931 . S
C1122 C1116 1.383 . S
C1122 C1121 1.379 . S
H1123 C1117 0.959 . S
H1124 C1117 0.961 . S
H1125 C1117 0.960 . S
H1126 C1118 0.930 . S
H1127 C1119 0.929 . S
H1128 C1136 0.929 . S
H1129 C1138 0.930 . S
H1130 C1140 0.930 . S
H1131 C1143 0.929 . S
H1132 C1146 0.930 . S
H1133 C1148 0.960 . S
H1134 C1148 0.960 . S
H1135 C1148 0.960 . S
C1136 H1128 0.929 . S
C1136 C1137 1.377 . S
C1136 C1138 1.384 . S
C1137 C1136 1.377 . S
C1137 C1143 1.390 . S
C1138 H1129 0.930 . S
C1138 C1136 1.384 . S
C1138 C1139 1.372 . S
C1139 C1138 1.372 . S
C1139 C1140 1.400 . S
C1139 C1144 1.490 . S
C1140 H1130 0.930 . S
C1140 C1139 1.400 . S
C1140 C1143 1.386 . S
H1141 C1157 0.930 . S
H1142 C1158 0.931 . S
C1143 H1131 0.929 . S
C1143 C1137 1.390 . S
C1143 C1140 1.386 . S
C1144 C1139 1.490 . S
C1144 C1146 1.395 1_565 S
C1144 C1147 1.403 1_556 S
H1145 C1151 0.930 . S
C1146 H1132 0.930 . S
C1146 C1144 1.395 1_545 S
C1146 C1149 1.403 . S
C1147 C1144 1.403 1_554 S
C1147 C1148 1.524 . S
C1147 C1151 1.400 . S
C1148 H1133 0.960 . S
C1148 H1134 0.960 . S
C1148 H1135 0.960 . S
C1148 C1147 1.524 . S
C1149 C1146 1.403 . S
C1149 C1150 1.392 1_556 S
C1149 C1153 1.495 . S
C1150 C1149 1.392 1_554 S
C1150 C1151 1.385 1_545 S
C1150 C1152 1.478 . S
C1151 H1145 0.930 . S
C1151 C1147 1.400 . S
C1151 C1150 1.385 1_565 S
C1152 C1150 1.478 . S
C1152 C1154 1.381 . S
C1152 C1158 1.383 . S
C1153 C1149 1.495 . S
C1153 H1159 0.959 . S
C1153 H1160 0.961 . S
C1153 H1161 0.960 . S
C1154 C1152 1.381 . S
C1154 C1155 1.394 . S
C1154 H1162 0.930 . S
C1155 C1154 1.394 . S
C1155 C1156 1.383 . S
C1155 H1163 0.929 . S
C1156 C1155 1.383 . S
C1156 C1157 1.377 . S
C1157 H1141 0.930 . S
C1157 C1156 1.377 . S
C1157 C1158 1.379 . S
C1158 H1142 0.931 . S
C1158 C1152 1.383 . S
C1158 C1157 1.379 . S
H1159 C1153 0.959 . S
H1160 C1153 0.961 . S
H1161 C1153 0.960 . S
H1162 C1154 0.930 . S
H1163 C1155 0.929 . S
H1164 C1172 0.929 . S
H1165 C1174 0.930 . S
H1166 C1176 0.930 . S
H1167 C1179 0.929 . S
H1168 C1182 0.930 . S
H1169 C1184 0.960 . S
H1170 C1184 0.960 . S
H1171 C1184 0.960 . S
C1172 H1164 0.929 . S
C1172 C1173 1.377 . S
C1172 C1174 1.384 . S
C1173 C1172 1.377 . S
C1173 C1179 1.390 . S
C1174 H1165 0.930 . S
C1174 C1172 1.384 . S
C1174 C1175 1.372 . S
C1175 C1174 1.372 . S
C1175 C1176 1.400 . S
C1175 C1180 1.490 . S
C1176 H1166 0.930 . S
C1176 C1175 1.400 . S
C1176 C1179 1.386 . S
H1177 C1193 0.930 . S
H1178 C1194 0.931 . S
C1179 H1167 0.929 . S
C1179 C1173 1.390 . S
C1179 C1176 1.386 . S
C1180 C1175 1.490 . S
C1180 C1182 1.395 . S
C1180 C1183 1.403 . S
H1181 C1187 0.930 . S
C1182 H1168 0.930 . S
C1182 C1180 1.395 . S
C1182 C1185 1.403 . S
C1183 C1180 1.403 . S
C1183 C1184 1.524 . S
C1183 C1187 1.400 . S
C1184 H1169 0.960 . S
C1184 H1170 0.960 . S
C1184 H1171 0.960 . S
C1184 C1183 1.524 . S
C1185 C1182 1.403 . S
C1185 C1186 1.392 . S
C1185 C1189 1.495 . S
C1186 C1185 1.392 . S
C1186 C1187 1.385 . S
C1186 C1188 1.478 . S
C1187 H1181 0.930 . S
C1187 C1183 1.400 . S
C1187 C1186 1.385 . S
C1188 C1186 1.478 . S
C1188 C1190 1.381 . S
C1188 C1194 1.383 . S
C1189 C1185 1.495 . S
C1189 H1195 0.959 . S
C1189 H1196 0.961 . S
C1189 H1197 0.960 . S
C1190 C1188 1.381 . S
C1190 C1191 1.394 . S
C1190 H1198 0.930 . S
C1191 C1190 1.394 . S
C1191 C1192 1.383 . S
C1191 H1199 0.929 . S
C1192 C1191 1.383 . S
C1192 C1193 1.377 . S
C1193 H1177 0.930 . S
C1193 C1192 1.377 . S
C1193 C1194 1.379 . S
C1194 H1178 0.931 . S
C1194 C1188 1.383 . S
C1194 C1193 1.379 . S
H1195 C1189 0.959 . S
H1196 C1189 0.961 . S
H1197 C1189 0.960 . S
H1198 C1190 0.930 . S
H1199 C1191 0.929 . S
H1200 C1208 0.929 . S
H1201 C1210 0.930 . S
H1202 C1212 0.930 . S
H1203 C1215 0.929 . S
H1204 C1218 0.930 . S
H1205 C1220 0.960 . S
H1206 C1220 0.960 . S
H1207 C1220 0.960 . S
C1208 H1200 0.929 . S
C1208 C1209 1.377 . S
C1208 C1210 1.384 . S
C1209 C1208 1.377 . S
C1209 C1215 1.390 . S
C1210 H1201 0.930 . S
C1210 C1208 1.384 . S
C1210 C1211 1.372 . S
C1211 C1210 1.372 . S
C1211 C1212 1.400 . S
C1211 C1216 1.490 . S
C1212 H1202 0.930 . S
C1212 C1211 1.400 . S
C1212 C1215 1.386 . S
H1213 C1229 0.930 . S
H1214 C1230 0.931 . S
C1215 H1203 0.929 . S
C1215 C1209 1.390 . S
C1215 C1212 1.386 . S
C1216 C1211 1.490 . S
C1216 C1218 1.395 1_556 S
C1216 C1219 1.403 1_455 S
H1217 C1223 0.930 . S
C1218 H1204 0.930 . S
C1218 C1216 1.395 1_554 S
C1218 C1221 1.403 . S
C1219 C1216 1.403 1_655 S
C1219 C1220 1.524 . S
C1219 C1223 1.400 . S
C1220 H1205 0.960 . S
C1220 H1206 0.960 . S
C1220 H1207 0.960 . S
C1220 C1219 1.524 . S
C1221 C1218 1.403 . S
C1221 C1222 1.392 1_455 S
C1221 C1225 1.495 . S
C1222 C1221 1.392 1_655 S
C1222 C1223 1.385 1_554 S
C1222 C1224 1.478 . S
C1223 H1217 0.930 . S
C1223 C1219 1.400 . S
C1223 C1222 1.385 1_556 S
C1224 C1222 1.478 . S
C1224 C1226 1.381 . S
C1224 C1230 1.383 . S
C1225 C1221 1.495 . S
C1225 H1231 0.959 . S
C1225 H1232 0.961 . S
C1225 H1233 0.960 . S
C1226 C1224 1.381 . S
C1226 C1227 1.394 . S
C1226 H1234 0.930 . S
C1227 C1226 1.394 . S
C1227 C1228 1.383 . S
C1227 H1235 0.929 . S
C1228 C1227 1.383 . S
C1228 C1229 1.377 . S
C1229 H1213 0.930 . S
C1229 C1228 1.377 . S
C1229 C1230 1.379 . S
C1230 H1214 0.931 . S
C1230 C1224 1.383 . S
C1230 C1229 1.379 . S
H1231 C1225 0.959 . S
H1232 C1225 0.961 . S
H1233 C1225 0.960 . S
H1234 C1226 0.930 . S
H1235 C1227 0.929 . S
H1236 C1244 0.929 . S
H1237 C1246 0.930 . S
H1238 C1248 0.930 . S
H1239 C1251 0.929 . S
H1240 C1254 0.930 . S
H1241 C1256 0.960 . S
H1242 C1256 0.960 . S
H1243 C1256 0.960 . S
C1244 H1236 0.929 . S
C1244 C1245 1.377 . S
C1244 C1246 1.384 . S
C1245 C1244 1.377 . S
C1245 C1251 1.390 . S
C1246 H1237 0.930 . S
C1246 C1244 1.384 . S
C1246 C1247 1.372 . S
C1247 C1246 1.372 . S
C1247 C1248 1.400 . S
C1247 C1252 1.490 . S
C1248 H1238 0.930 . S
C1248 C1247 1.400 . S
C1248 C1251 1.386 . S
H1249 C1265 0.930 . S
H1250 C1266 0.931 . S
C1251 H1239 0.929 . S
C1251 C1245 1.390 . S
C1251 C1248 1.386 . S
C1252 C1247 1.490 . S
C1252 C1254 1.395 . S
C1252 C1255 1.403 1_545 S
H1253 C1259 0.930 . S
C1254 H1240 0.930 . S
C1254 C1252 1.395 . S
C1254 C1257 1.403 . S
C1255 C1252 1.403 1_565 S
C1255 C1256 1.524 . S
C1255 C1259 1.400 . S
C1256 H1241 0.960 . S
C1256 H1242 0.960 . S
C1256 H1243 0.960 . S
C1256 C1255 1.524 . S
C1257 C1254 1.403 . S
C1257 C1258 1.392 1_545 S
C1257 C1261 1.495 . S
C1258 C1257 1.392 1_565 S
C1258 C1259 1.385 . S
C1258 C1260 1.478 . S
C1259 H1253 0.930 . S
C1259 C1255 1.400 . S
C1259 C1258 1.385 . S
C1260 C1258 1.478 . S
C1260 C1262 1.381 . S
C1260 C1266 1.383 . S
C1261 C1257 1.495 . S
C1261 H1267 0.959 . S
C1261 H1268 0.961 . S
C1261 H1269 0.960 . S
C1262 C1260 1.381 . S
C1262 C1263 1.394 . S
C1262 H1270 0.930 . S
C1263 C1262 1.394 . S
C1263 C1264 1.383 . S
C1263 H1271 0.929 . S
C1264 C1263 1.383 . S
C1264 C1265 1.377 . S
C1265 H1249 0.930 . S
C1265 C1264 1.377 . S
C1265 C1266 1.379 . S
C1266 H1250 0.931 . S
C1266 C1260 1.383 . S
C1266 C1265 1.379 . S
H1267 C1261 0.959 . S
H1268 C1261 0.961 . S
H1269 C1261 0.960 . S
H1270 C1262 0.930 . S
H1271 C1263 0.929 . S
H1272 C1280 0.929 . S
H1273 C1282 0.930 . S
H1274 C1284 0.930 . S
H1275 C1287 0.929 . S
H1276 C1290 0.930 . S
H1277 C1292 0.960 . S
H1278 C1292 0.960 . S
H1279 C1292 0.960 . S
C1280 H1272 0.929 . S
C1280 C1281 1.377 . S
C1280 C1282 1.384 . S
C1281 C1280 1.377 . S
C1281 C1287 1.390 . S
C1282 H1273 0.930 . S
C1282 C1280 1.384 . S
C1282 C1283 1.372 . S
C1283 C1282 1.372 . S
C1283 C1284 1.400 . S
C1283 C1288 1.490 . S
C1284 H1274 0.930 . S
C1284 C1283 1.400 . S
C1284 C1287 1.386 . S
H1285 C1301 0.930 . S
H1286 C1302 0.931 . S
C1287 H1275 0.929 . S
C1287 C1281 1.390 . S
C1287 C1284 1.386 . S
C1288 C1283 1.490 . S
C1288 C1290 1.395 1_554 S
C1288 C1291 1.403 . S
H1289 C1295 0.935 . S
C1290 H1276 0.930 . S
C1290 C1288 1.395 1_556 S
C1290 C1293 1.403 . S
C1291 C1288 1.403 . S
C1291 C1292 1.524 . S
C1291 C1295 1.431 . S
C1292 H1277 0.960 . S
C1292 H1278 0.960 . S
C1292 H1279 0.960 . S
C1292 C1291 1.524 . S
C1293 C1290 1.403 . S
C1293 C1294 1.392 . S
C1293 C1297 1.495 . S
C1294 C1293 1.392 . S
C1294 C1295 1.351 1_556 S
C1294 C1296 1.478 . S
C1295 H1289 0.935 . S
C1295 C1291 1.431 . S
C1295 C1294 1.351 1_554 S
C1296 C1294 1.478 . S
C1296 C1298 1.381 . S
C1296 C1302 1.383 . S
C1297 C1293 1.495 . S
C1297 H1303 0.959 . S
C1297 H1304 0.961 . S
C1297 H1305 0.960 . S
C1298 C1296 1.381 . S
C1298 C1299 1.394 . S
C1298 H1306 0.930 . S
C1299 C1298 1.394 . S
C1299 C1300 1.383 . S
C1299 H1307 0.929 . S
C1300 C1299 1.383 . S
C1300 C1301 1.377 . S
C1301 H1285 0.930 . S
C1301 C1300 1.377 . S
C1301 C1302 1.379 . S
C1302 H1286 0.931 . S
C1302 C1296 1.383 . S
C1302 C1301 1.379 . S
H1303 C1297 0.959 . S
H1304 C1297 0.961 . S
H1305 C1297 0.960 . S
H1306 C1298 0.930 . S
H1307 C1299 0.929 . S
H1308 C1316 0.929 . S
H1309 C1318 0.930 . S
H1310 C1320 0.930 . S
H1311 C1323 0.929 . S
H1312 C1326 0.930 . S
H1313 C1328 0.960 . S
H1314 C1328 0.960 . S
H1315 C1328 0.960 . S
C1316 H1308 0.929 . S
C1316 C1317 1.377 . S
C1316 C1318 1.384 . S
C1317 C1316 1.377 . S
C1317 C1323 1.390 . S
C1318 H1309 0.930 . S
C1318 C1316 1.384 . S
C1318 C1319 1.372 . S
C1319 C1318 1.372 . S
C1319 C1320 1.400 . S
C1319 C1324 1.490 . S
C1320 H1310 0.930 . S
C1320 C1319 1.400 . S
C1320 C1323 1.386 . S
H1321 C1337 0.930 . S
H1322 C1338 0.931 . S
C1323 H1311 0.929 . S
C1323 C1317 1.390 . S
C1323 C1320 1.386 . S
C1324 C1319 1.490 . S
C1324 C1326 1.395 1_455 S
C1324 C1327 1.403 . S
H1325 C1331 0.930 . S
C1326 H1312 0.930 . S
C1326 C1324 1.395 1_655 S
C1326 C1329 1.403 . S
C1327 C1324 1.403 . S
C1327 C1328 1.524 . S
C1327 C1331 1.400 . S
C1328 H1313 0.960 . S
C1328 H1314 0.960 . S
C1328 H1315 0.960 . S
C1328 C1327 1.524 . S
C1329 C1326 1.403 . S
C1329 C1330 1.392 . S
C1329 C1333 1.495 . S
C1330 C1329 1.392 . S
C1330 C1331 1.385 1_655 S
C1330 C1332 1.478 . S
C1331 H1325 0.930 . S
C1331 C1327 1.400 . S
C1331 C1330 1.385 1_455 S
C1332 C1330 1.478 . S
C1332 C1334 1.381 . S
C1332 C1338 1.383 . S
C1333 C1329 1.495 . S
C1333 H1339 0.959 . S
C1333 H1340 0.961 . S
C1333 H1341 0.960 . S
C1334 C1332 1.381 . S
C1334 C1335 1.394 . S
C1334 H1342 0.930 . S
C1335 C1334 1.394 . S
C1335 C1336 1.383 . S
C1335 H1343 0.929 . S
C1336 C1335 1.383 . S
C1336 C1337 1.377 . S
C1337 H1321 0.930 . S
C1337 C1336 1.377 . S
C1337 C1338 1.379 . S
C1338 H1322 0.931 . S
C1338 C1332 1.383 . S
C1338 C1337 1.379 . S
H1339 C1333 0.959 . S
H1340 C1333 0.961 . S
H1341 C1333 0.960 . S
H1342 C1334 0.930 . S
H1343 C1335 0.929 . S
H1344 C1352 0.929 . S
H1345 C1354 0.930 . S
H1346 C1356 0.930 . S
H1347 C1359 0.929 . S
H1348 C1362 0.930 . S
H1349 C1364 0.960 . S
H1350 C1364 0.960 . S
H1351 C1364 0.960 . S
C1352 H1344 0.929 . S
C1352 C1353 1.377 . S
C1352 C1354 1.384 . S
C1353 C1352 1.377 . S
C1353 C1359 1.390 . S
C1354 H1345 0.930 . S
C1354 C1352 1.384 . S
C1354 C1355 1.372 . S
C1355 C1354 1.372 . S
C1355 C1356 1.400 . S
C1355 C1360 1.490 . S
C1356 H1346 0.930 . S
C1356 C1355 1.400 . S
C1356 C1359 1.386 . S
H1357 C1373 0.930 . S
H1358 C1374 0.931 . S
C1359 H1347 0.929 . S
C1359 C1353 1.390 . S
C1359 C1356 1.386 . S
C1360 C1355 1.490 . S
C1360 C1362 1.395 . S
C1360 C1363 1.403 . S
H1361 C1367 0.930 . S
C1362 H1348 0.930 . S
C1362 C1360 1.395 . S
C1362 C1365 1.403 . S
C1363 C1360 1.403 . S
C1363 C1364 1.524 . S
C1363 C1367 1.400 . S
C1364 H1349 0.960 . S
C1364 H1350 0.960 . S
C1364 H1351 0.960 . S
C1364 C1363 1.524 . S
C1365 C1362 1.403 . S
C1365 C1366 1.392 . S
C1365 C1369 1.495 . S
C1366 C1365 1.392 . S
C1366 C1367 1.385 . S
C1366 C1368 1.478 . S
C1367 H1361 0.930 . S
C1367 C1363 1.400 . S
C1367 C1366 1.385 . S
C1368 C1366 1.478 . S
C1368 C1370 1.381 . S
C1368 C1374 1.383 . S
C1369 C1365 1.495 . S
C1369 H1375 0.959 . S
C1369 H1376 0.961 . S
C1369 H1377 0.960 . S
C1370 C1368 1.381 . S
C1370 C1371 1.394 . S
C1370 H1378 0.930 . S
C1371 C1370 1.394 . S
C1371 C1372 1.383 . S
C1371 H1379 0.929 . S
C1372 C1371 1.383 . S
C1372 C1373 1.377 . S
C1373 H1357 0.930 . S
C1373 C1372 1.377 . S
C1373 C1374 1.379 . S
C1374 H1358 0.931 . S
C1374 C1368 1.383 . S
C1374 C1373 1.379 . S
H1375 C1369 0.959 . S
H1376 C1369 0.961 . S
H1377 C1369 0.960 . S
H1378 C1370 0.930 . S
H1379 C1371 0.929 . S
H1380 C1388 0.929 . S
H1381 C1390 0.930 . S
H1382 C1392 0.930 . S
H1383 C1395 0.929 . S
H1384 C1398 0.930 . S
H1385 C1400 0.960 . S
H1386 C1400 0.960 . S
H1387 C1400 0.960 . S
C1388 H1380 0.929 . S
C1388 C1389 1.377 . S
C1388 C1390 1.384 . S
C1389 C1388 1.377 . S
C1389 C1395 1.390 . S
C1390 H1381 0.930 . S
C1390 C1388 1.384 . S
C1390 C1391 1.372 . S
C1391 C1390 1.372 . S
C1391 C1392 1.400 . S
C1391 C1396 1.490 . S
C1392 H1382 0.930 . S
C1392 C1391 1.400 . S
C1392 C1395 1.386 . S
H1393 C1409 0.930 . S
H1394 C1410 0.931 . S
C1395 H1383 0.929 . S
C1395 C1389 1.390 . S
C1395 C1392 1.386 . S
C1396 C1391 1.490 . S
C1396 C1398 1.395 . S
C1396 C1399 1.403 . S
H1397 C1403 0.930 . S
C1398 H1384 0.930 . S
C1398 C1396 1.395 . S
C1398 C1401 1.403 . S
C1399 C1396 1.403 . S
C1399 C1400 1.524 . S
C1399 C1403 1.400 . S
C1400 H1385 0.960 . S
C1400 H1386 0.960 . S
C1400 H1387 0.960 . S
C1400 C1399 1.524 . S
C1401 C1398 1.403 . S
C1401 C1402 1.392 . S
C1401 C1405 1.495 . S
C1402 C1401 1.392 . S
C1402 C1403 1.385 . S
C1402 C1404 1.478 . S
C1403 H1397 0.930 . S
C1403 C1399 1.400 . S
C1403 C1402 1.385 . S
C1404 C1402 1.478 . S
C1404 C1406 1.381 . S
C1404 C1410 1.383 . S
C1405 C1401 1.495 . S
C1405 H1411 0.959 . S
C1405 H1412 0.961 . S
C1405 H1413 0.960 . S
C1406 C1404 1.381 . S
C1406 C1407 1.394 . S
C1406 H1414 0.930 . S
C1407 C1406 1.394 . S
C1407 C1408 1.383 . S
C1407 H1415 0.929 . S
C1408 C1407 1.383 . S
C1408 C1409 1.377 . S
C1409 H1393 0.930 . S
C1409 C1408 1.377 . S
C1409 C1410 1.379 . S
C1410 H1394 0.931 . S
C1410 C1404 1.383 . S
C1410 C1409 1.379 . S
H1411 C1405 0.959 . S
H1412 C1405 0.961 . S
H1413 C1405 0.960 . S
H1414 C1406 0.930 . S
H1415 C1407 0.929 . S
H1416 C1424 0.929 . S
H1417 C1426 0.930 . S
H1418 C1428 0.930 . S
H1419 C1431 0.929 . S
H1420 C1434 0.930 . S
H1421 C1436 0.960 . S
H1422 C1436 0.960 . S
H1423 C1436 0.960 . S
C1424 H1416 0.929 . S
C1424 C1425 1.377 . S
C1424 C1426 1.384 . S
C1425 C1424 1.377 . S
C1425 C1431 1.390 . S
C1426 H1417 0.930 . S
C1426 C1424 1.384 . S
C1426 C1427 1.372 . S
C1427 C1426 1.372 . S
C1427 C1428 1.400 . S
C1427 C1432 1.490 . S
C1428 H1418 0.930 . S
C1428 C1427 1.400 . S
C1428 C1431 1.386 . S
H1429 C1445 0.930 . S
H1430 C1446 0.931 . S
C1431 H1419 0.929 . S
C1431 C1425 1.390 . S
C1431 C1428 1.386 . S
C1432 C1427 1.490 . S
C1432 C1434 1.395 . S
C1432 C1435 1.403 . S
H1433 C1439 0.930 . S
C1434 H1420 0.930 . S
C1434 C1432 1.395 . S
C1434 C1437 1.403 . S
C1435 C1432 1.403 . S
C1435 C1436 1.524 . S
C1435 C1439 1.400 . S
C1436 H1421 0.960 . S
C1436 H1422 0.960 . S
C1436 H1423 0.960 . S
C1436 C1435 1.524 . S
C1437 C1434 1.403 . S
C1437 C1438 1.392 . S
C1437 C1441 1.495 . S
C1438 C1437 1.392 . S
C1438 C1439 1.385 . S
C1438 C1440 1.478 . S
C1439 H1433 0.930 . S
C1439 C1435 1.400 . S
C1439 C1438 1.385 . S
C1440 C1438 1.478 . S
C1440 C1442 1.381 . S
C1440 C1446 1.383 . S
C1441 C1437 1.495 . S
C1441 H1447 0.959 . S
C1441 H1448 0.961 . S
C1441 H1449 0.960 . S
C1442 C1440 1.381 . S
C1442 C1443 1.394 . S
C1442 H1450 0.930 . S
C1443 C1442 1.394 . S
C1443 C1444 1.383 . S
C1443 H1451 0.929 . S
C1444 C1443 1.383 . S
C1444 C1445 1.377 . S
C1445 H1429 0.930 . S
C1445 C1444 1.377 . S
C1445 C1446 1.379 . S
C1446 H1430 0.931 . S
C1446 C1440 1.383 . S
C1446 C1445 1.379 . S
H1447 C1441 0.959 . S
H1448 C1441 0.961 . S
H1449 C1441 0.960 . S
H1450 C1442 0.930 . S
H1451 C1443 0.929 . S
H1452 C1460 0.929 . S
H1453 C1462 0.930 . S
H1454 C1464 0.930 . S
H1455 C1467 0.929 . S
H1456 C1470 0.930 . S
H1457 C1472 0.960 . S
H1458 C1472 0.960 . S
H1459 C1472 0.960 . S
C1460 H1452 0.929 . S
C1460 C1461 1.377 . S
C1460 C1462 1.384 . S
C1461 C1460 1.377 . S
C1461 C1467 1.390 . S
C1462 H1453 0.930 . S
C1462 C1460 1.384 . S
C1462 C1463 1.372 . S
C1463 C1462 1.372 . S
C1463 C1464 1.400 . S
C1463 C1468 1.490 . S
C1464 H1454 0.930 . S
C1464 C1463 1.400 . S
C1464 C1467 1.386 . S
H1465 C1481 0.930 . S
H1466 C1482 0.931 . S
C1467 H1455 0.929 . S
C1467 C1461 1.390 . S
C1467 C1464 1.386 . S
C1468 C1463 1.490 . S
C1468 C1470 1.395 . S
C1468 C1471 1.403 . S
H1469 C1475 0.930 . S
C1470 H1456 0.930 . S
C1470 C1468 1.395 . S
C1470 C1473 1.403 . S
C1471 C1468 1.403 . S
C1471 C1472 1.524 . S
C1471 C1475 1.400 . S
C1472 H1457 0.960 . S
C1472 H1458 0.960 . S
C1472 H1459 0.960 . S
C1472 C1471 1.524 . S
C1473 C1470 1.403 . S
C1473 C1474 1.392 . S
C1473 C1477 1.495 . S
C1474 C1473 1.392 . S
C1474 C1475 1.385 . S
C1474 C1476 1.478 . S
C1475 H1469 0.930 . S
C1475 C1471 1.400 . S
C1475 C1474 1.385 . S
C1476 C1474 1.478 . S
C1476 C1478 1.381 . S
C1476 C1482 1.383 . S
C1477 C1473 1.495 . S
C1477 H1483 0.959 . S
C1477 H1484 0.961 . S
C1477 H1485 0.960 . S
C1478 C1476 1.381 . S
C1478 C1479 1.394 . S
C1478 H1486 0.930 . S
C1479 C1478 1.394 . S
C1479 C1480 1.383 . S
C1479 H1487 0.929 . S
C1480 C1479 1.383 . S
C1480 C1481 1.377 . S
C1481 H1465 0.930 . S
C1481 C1480 1.377 . S
C1481 C1482 1.379 . S
C1482 H1466 0.931 . S
C1482 C1476 1.383 . S
C1482 C1481 1.379 . S
H1483 C1477 0.959 . S
H1484 C1477 0.961 . S
H1485 C1477 0.960 . S
H1486 C1478 0.930 . S
H1487 C1479 0.929 . S
H1488 C1496 0.929 . S
H1489 C1498 0.930 . S
H1490 C1500 0.930 . S
H1491 C1503 0.929 . S
H1492 C1506 0.930 . S
H1493 C1508 0.960 . S
H1494 C1508 0.960 . S
H1495 C1508 0.960 . S
C1496 H1488 0.929 . S
C1496 C1497 1.377 . S
C1496 C1498 1.384 . S
C1497 C1496 1.377 . S
C1497 C1503 1.390 . S
C1498 H1489 0.930 . S
C1498 C1496 1.384 . S
C1498 C1499 1.372 . S
C1499 C1498 1.372 . S
C1499 C1500 1.400 . S
C1499 C1504 1.490 . S
C1500 H1490 0.930 . S
C1500 C1499 1.400 . S
C1500 C1503 1.386 . S
H1501 C1517 0.930 . S
H1502 C1518 0.931 . S
C1503 H1491 0.929 . S
C1503 C1497 1.390 . S
C1503 C1500 1.386 . S
C1504 C1499 1.490 . S
C1504 C1506 1.395 . S
C1504 C1507 1.403 . S
H1505 C1511 0.930 . S
C1506 H1492 0.930 . S
C1506 C1504 1.395 . S
C1506 C1509 1.403 . S
C1507 C1504 1.403 . S
C1507 C1508 1.524 . S
C1507 C1511 1.400 . S
C1508 H1493 0.960 . S
C1508 H1494 0.960 . S
C1508 H1495 0.960 . S
C1508 C1507 1.524 . S
C1509 C1506 1.403 . S
C1509 C1510 1.392 . S
C1509 C1513 1.495 . S
C1510 C1509 1.392 . S
C1510 C1511 1.385 . S
C1510 C1512 1.478 . S
C1511 H1505 0.930 . S
C1511 C1507 1.400 . S
C1511 C1510 1.385 . S
C1512 C1510 1.478 . S
C1512 C1514 1.381 . S
C1512 C1518 1.383 . S
C1513 C1509 1.495 . S
C1513 H1519 0.959 . S
C1513 H1520 0.961 . S
C1513 H1521 0.960 . S
C1514 C1512 1.381 . S
C1514 C1515 1.394 . S
C1514 H1522 0.930 . S
C1515 C1514 1.394 . S
C1515 C1516 1.383 . S
C1515 H1523 0.929 . S
C1516 C1515 1.383 . S
C1516 C1517 1.377 . S
C1517 H1501 0.930 . S
C1517 C1516 1.377 . S
C1517 C1518 1.379 . S
C1518 H1502 0.931 . S
C1518 C1512 1.383 . S
C1518 C1517 1.379 . S
H1519 C1513 0.959 . S
H1520 C1513 0.961 . S
H1521 C1513 0.960 . S
H1522 C1514 0.930 . S
H1523 C1515 0.929 . S
H1524 C1532 0.929 . S
H1525 C1534 0.930 . S
H1526 C1536 0.930 . S
H1527 C1539 0.929 . S
H1528 C1542 0.930 . S
H1529 C1544 0.960 . S
H1530 C1544 0.960 . S
H1531 C1544 0.960 . S
C1532 H1524 0.929 . S
C1532 C1533 1.377 . S
C1532 C1534 1.384 . S
C1533 C1532 1.377 . S
C1533 C1539 1.390 . S
C1534 H1525 0.930 . S
C1534 C1532 1.384 . S
C1534 C1535 1.372 . S
C1535 C1534 1.372 . S
C1535 C1536 1.400 . S
C1535 C1540 1.490 . S
C1536 H1526 0.930 . S
C1536 C1535 1.400 . S
C1536 C1539 1.386 . S
H1537 C1553 0.930 . S
H1538 C1554 0.931 . S
C1539 H1527 0.929 . S
C1539 C1533 1.390 . S
C1539 C1536 1.386 . S
C1540 C1535 1.490 . S
C1540 C1542 1.395 . S
C1540 C1543 1.403 . S
H1541 C1547 0.930 . S
C1542 H1528 0.930 . S
C1542 C1540 1.395 . S
C1542 C1545 1.403 . S
C1543 C1540 1.403 . S
C1543 C1544 1.524 . S
C1543 C1547 1.400 . S
C1544 H1529 0.960 . S
C1544 H1530 0.960 . S
C1544 H1531 0.960 . S
C1544 C1543 1.524 . S
C1545 C1542 1.403 . S
C1545 C1546 1.392 . S
C1545 C1549 1.495 . S
C1546 C1545 1.392 . S
C1546 C1547 1.385 . S
C1546 C1548 1.478 . S
C1547 H1541 0.930 . S
C1547 C1543 1.400 . S
C1547 C1546 1.385 . S
C1548 C1546 1.478 . S
C1548 C1550 1.381 . S
C1548 C1554 1.383 . S
C1549 C1545 1.495 . S
C1549 H1555 0.959 . S
C1549 H1556 0.961 . S
C1549 H1557 0.960 . S
C1550 C1548 1.381 . S
C1550 C1551 1.394 . S
C1550 H1558 0.930 . S
C1551 C1550 1.394 . S
C1551 C1552 1.383 . S
C1551 H1559 0.929 . S
C1552 C1551 1.383 . S
C1552 C1553 1.377 . S
C1553 H1537 0.930 . S
C1553 C1552 1.377 . S
C1553 C1554 1.379 . S
C1554 H1538 0.931 . S
C1554 C1548 1.383 . S
C1554 C1553 1.379 . S
H1555 C1549 0.959 . S
H1556 C1549 0.961 . S
H1557 C1549 0.960 . S
H1558 C1550 0.930 . S
H1559 C1551 0.929 . S
H1560 C1568 0.929 . S
H1561 C1570 0.930 . S
H1562 C1572 0.930 . S
H1563 C1575 0.929 . S
H1564 C1578 0.930 . S
H1565 C1580 0.960 . S
H1566 C1580 0.960 . S
H1567 C1580 0.960 . S
C1568 H1560 0.929 . S
C1568 C1569 1.377 . S
C1568 C1570 1.384 . S
C1569 C1568 1.377 . S
C1569 C1575 1.390 . S
C1570 H1561 0.930 . S
C1570 C1568 1.384 . S
C1570 C1571 1.372 . S
C1571 C1570 1.372 . S
C1571 C1572 1.400 . S
C1571 C1576 1.490 . S
C1572 H1562 0.930 . S
C1572 C1571 1.400 . S
C1572 C1575 1.386 . S
H1573 C1589 0.930 . S
H1574 C1590 0.931 . S
C1575 H1563 0.929 . S
C1575 C1569 1.390 . S
C1575 C1572 1.386 . S
C1576 C1571 1.490 . S
C1576 C1578 1.395 . S
C1576 C1579 1.403 . S
H1577 C1583 0.930 . S
C1578 H1564 0.930 . S
C1578 C1576 1.395 . S
C1578 C1581 1.403 . S
C1579 C1576 1.403 . S
C1579 C1580 1.524 . S
C1579 C1583 1.400 . S
C1580 H1565 0.960 . S
C1580 H1566 0.960 . S
C1580 H1567 0.960 . S
C1580 C1579 1.524 . S
C1581 C1578 1.403 . S
C1581 C1582 1.392 . S
C1581 C1585 1.495 . S
C1582 C1581 1.392 . S
C1582 C1583 1.385 . S
C1582 C1584 1.478 . S
C1583 H1577 0.930 . S
C1583 C1579 1.400 . S
C1583 C1582 1.385 . S
C1584 C1582 1.478 . S
C1584 C1586 1.381 . S
C1584 C1590 1.383 . S
C1585 C1581 1.495 . S
C1585 H1591 0.959 . S
C1585 H1592 0.961 . S
C1585 H1593 0.960 . S
C1586 C1584 1.381 . S
C1586 C1587 1.394 . S
C1586 H1594 0.930 . S
C1587 C1586 1.394 . S
C1587 C1588 1.383 . S
C1587 H1595 0.929 . S
C1588 C1587 1.383 . S
C1588 C1589 1.377 . S
C1589 H1573 0.930 . S
C1589 C1588 1.377 . S
C1589 C1590 1.379 . S
C1590 H1574 0.931 . S
C1590 C1584 1.383 . S
C1590 C1589 1.379 . S
H1591 C1585 0.959 . S
H1592 C1585 0.961 . S
H1593 C1585 0.960 . S
H1594 C1586 0.930 . S
H1595 C1587 0.929 . S
H1596 C1604 0.929 . S
H1597 C1606 0.930 . S
H1598 C1608 0.930 . S
H1599 C1611 0.929 . S
H1600 C1614 0.930 . S
H1601 C1616 0.960 . S
H1602 C1616 0.960 . S
H1603 C1616 0.960 . S
C1604 H1596 0.929 . S
C1604 C1605 1.377 . S
C1604 C1606 1.384 . S
C1605 C1604 1.377 . S
C1605 C1611 1.390 . S
C1606 H1597 0.930 . S
C1606 C1604 1.384 . S
C1606 C1607 1.372 . S
C1607 C1606 1.372 . S
C1607 C1608 1.400 . S
C1607 C1612 1.490 . S
C1608 H1598 0.930 . S
C1608 C1607 1.400 . S
C1608 C1611 1.386 . S
H1609 C1625 0.930 . S
H1610 C1626 0.931 . S
C1611 H1599 0.929 . S
C1611 C1605 1.390 . S
C1611 C1608 1.386 . S
C1612 C1607 1.490 . S
C1612 C1614 1.395 . S
C1612 C1615 1.403 . S
H1613 C1619 0.930 . S
C1614 H1600 0.930 . S
C1614 C1612 1.395 . S
C1614 C1617 1.403 . S
C1615 C1612 1.403 . S
C1615 C1616 1.524 . S
C1615 C1619 1.400 . S
C1616 H1601 0.960 . S
C1616 H1602 0.960 . S
C1616 H1603 0.960 . S
C1616 C1615 1.524 . S
C1617 C1614 1.403 . S
C1617 C1618 1.392 . S
C1617 C1621 1.495 . S
C1618 C1617 1.392 . S
C1618 C1619 1.385 . S
C1618 C1620 1.478 . S
C1619 H1613 0.930 . S
C1619 C1615 1.400 . S
C1619 C1618 1.385 . S
C1620 C1618 1.478 . S
C1620 C1622 1.381 . S
C1620 C1626 1.383 . S
C1621 C1617 1.495 . S
C1621 H1627 0.959 . S
C1621 H1628 0.961 . S
C1621 H1629 0.960 . S
C1622 C1620 1.381 . S
C1622 C1623 1.394 . S
C1622 H1630 0.930 . S
C1623 C1622 1.394 . S
C1623 C1624 1.383 . S
C1623 H1631 0.929 . S
C1624 C1623 1.383 . S
C1624 C1625 1.377 . S
C1625 H1609 0.930 . S
C1625 C1624 1.377 . S
C1625 C1626 1.379 . S
C1626 H1610 0.931 . S
C1626 C1620 1.383 . S
C1626 C1625 1.379 . S
H1627 C1621 0.959 . S
H1628 C1621 0.961 . S
H1629 C1621 0.960 . S
H1630 C1622 0.930 . S
H1631 C1623 0.929 . S
H1632 C1640 0.929 . S
H1633 C1642 0.930 . S
H1634 C1644 0.930 . S
H1635 C1647 0.929 . S
H1636 C1650 0.930 . S
H1637 C1652 0.960 . S
H1638 C1652 0.960 . S
H1639 C1652 0.960 . S
C1640 H1632 0.929 . S
C1640 C1641 1.377 . S
C1640 C1642 1.384 . S
C1641 C1640 1.377 . S
C1641 C1647 1.390 . S
C1642 H1633 0.930 . S
C1642 C1640 1.384 . S
C1642 C1643 1.372 . S
C1643 C1642 1.372 . S
C1643 C1644 1.400 . S
C1643 C1648 1.490 . S
C1644 H1634 0.930 . S
C1644 C1643 1.400 . S
C1644 C1647 1.386 . S
H1645 C1661 0.930 . S
H1646 C1662 0.931 . S
C1647 H1635 0.929 . S
C1647 C1641 1.390 . S
C1647 C1644 1.386 . S
C1648 C1643 1.490 . S
C1648 C1650 1.395 . S
C1648 C1651 1.403 . S
H1649 C1655 0.930 . S
C1650 H1636 0.930 . S
C1650 C1648 1.395 . S
C1650 C1653 1.403 . S
C1651 C1648 1.403 . S
C1651 C1652 1.524 . S
C1651 C1655 1.400 . S
C1652 H1637 0.960 . S
C1652 H1638 0.960 . S
C1652 H1639 0.960 . S
C1652 C1651 1.524 . S
C1653 C1650 1.403 . S
C1653 C1654 1.392 . S
C1653 C1657 1.495 . S
C1654 C1653 1.392 . S
C1654 C1655 1.385 . S
C1654 C1656 1.478 . S
C1655 H1649 0.930 . S
C1655 C1651 1.400 . S
C1655 C1654 1.385 . S
C1656 C1654 1.478 . S
C1656 C1658 1.381 . S
C1656 C1662 1.383 . S
C1657 C1653 1.495 . S
C1657 H1663 0.959 . S
C1657 H1664 0.961 . S
C1657 H1665 0.960 . S
C1658 C1656 1.381 . S
C1658 C1659 1.394 . S
C1658 H1666 0.930 . S
C1659 C1658 1.394 . S
C1659 C1660 1.383 . S
C1659 H1667 0.929 . S
C1660 C1659 1.383 . S
C1660 C1661 1.377 . S
C1661 H1645 0.930 . S
C1661 C1660 1.377 . S
C1661 C1662 1.379 . S
C1662 H1646 0.931 . S
C1662 C1656 1.383 . S
C1662 C1661 1.379 . S
H1663 C1657 0.959 . S
H1664 C1657 0.961 . S
H1665 C1657 0.960 . S
H1666 C1658 0.930 . S
H1667 C1659 0.929 . S
H1668 C1676 0.929 . S
H1669 C1678 0.930 . S
H1670 C1680 0.930 . S
H1671 C1683 0.929 . S
H1672 C1686 0.930 . S
H1673 C1688 0.960 . S
H1674 C1688 0.960 . S
H1675 C1688 0.960 . S
C1676 H1668 0.929 . S
C1676 C1677 1.377 . S
C1676 C1678 1.384 . S
C1677 C1676 1.377 . S
C1677 C1683 1.390 . S
C1678 H1669 0.930 . S
C1678 C1676 1.384 . S
C1678 C1679 1.372 . S
C1679 C1678 1.372 . S
C1679 C1680 1.400 . S
C1679 C1684 1.490 . S
C1680 H1670 0.930 . S
C1680 C1679 1.400 . S
C1680 C1683 1.386 . S
H1681 C1697 0.930 . S
H1682 C1698 0.931 . S
C1683 H1671 0.929 . S
C1683 C1677 1.390 . S
C1683 C1680 1.386 . S
C1684 C1679 1.490 . S
C1684 C1686 1.395 . S
C1684 C1687 1.403 . S
H1685 C1691 0.930 . S
C1686 H1672 0.930 . S
C1686 C1684 1.395 . S
C1686 C1689 1.403 . S
C1687 C1684 1.403 . S
C1687 C1688 1.524 . S
C1687 C1691 1.400 . S
C1688 H1673 0.960 . S
C1688 H1674 0.960 . S
C1688 H1675 0.960 . S
C1688 C1687 1.524 . S
C1689 C1686 1.403 . S
C1689 C1690 1.392 . S
C1689 C1693 1.495 . S
C1690 C1689 1.392 . S
C1690 C1691 1.385 . S
C1690 C1692 1.478 . S
C1691 H1685 0.930 . S
C1691 C1687 1.400 . S
C1691 C1690 1.385 . S
C1692 C1690 1.478 . S
C1692 C1694 1.381 . S
C1692 C1698 1.383 . S
C1693 C1689 1.495 . S
C1693 H1699 0.959 . S
C1693 H1700 0.961 . S
C1693 H1701 0.960 . S
C1694 C1692 1.381 . S
C1694 C1695 1.394 . S
C1694 H1702 0.930 . S
C1695 C1694 1.394 . S
C1695 C1696 1.383 . S
C1695 H1703 0.929 . S
C1696 C1695 1.383 . S
C1696 C1697 1.377 . S
C1697 H1681 0.930 . S
C1697 C1696 1.377 . S
C1697 C1698 1.379 . S
C1698 H1682 0.931 . S
C1698 C1692 1.383 . S
C1698 C1697 1.379 . S
H1699 C1693 0.959 . S
H1700 C1693 0.961 . S
H1701 C1693 0.960 . S
H1702 C1694 0.930 . S
H1703 C1695 0.929 . S
H1704 C1712 0.929 . S
H1705 C1714 0.930 . S
H1706 C1716 0.930 . S
H1707 C1719 0.929 . S
H1708 C1722 0.930 . S
H1709 C1724 0.960 . S
H1710 C1724 0.960 . S
H1711 C1724 0.960 . S
C1712 H1704 0.929 . S
C1712 C1713 1.377 . S
C1712 C1714 1.384 . S
C1713 C1712 1.377 . S
C1713 C1719 1.390 . S
C1714 H1705 0.930 . S
C1714 C1712 1.384 . S
C1714 C1715 1.372 . S
C1715 C1714 1.372 . S
C1715 C1716 1.400 . S
C1715 C1720 1.490 . S
C1716 H1706 0.930 . S
C1716 C1715 1.400 . S
C1716 C1719 1.386 . S
H1717 C1733 0.930 . S
H1718 C1734 0.931 . S
C1719 H1707 0.929 . S
C1719 C1713 1.390 . S
C1719 C1716 1.386 . S
C1720 C1715 1.490 . S
C1720 C1722 1.395 . S
C1720 C1723 1.403 . S
H1721 C1727 0.930 . S
C1722 H1708 0.930 . S
C1722 C1720 1.395 . S
C1722 C1725 1.403 . S
C1723 C1720 1.403 . S
C1723 C1724 1.524 . S
C1723 C1727 1.400 . S
C1724 H1709 0.960 . S
C1724 H1710 0.960 . S
C1724 H1711 0.960 . S
C1724 C1723 1.524 . S
C1725 C1722 1.403 . S
C1725 C1726 1.392 . S
C1725 C1729 1.495 . S
C1726 C1725 1.392 . S
C1726 C1727 1.385 . S
C1726 C1728 1.478 . S
C1727 H1721 0.930 . S
C1727 C1723 1.400 . S
C1727 C1726 1.385 . S
C1728 C1726 1.478 . S
C1728 C1730 1.381 . S
C1728 C1734 1.383 . S
C1729 C1725 1.495 . S
C1729 H1735 0.959 . S
C1729 H1736 0.961 . S
C1729 H1737 0.960 . S
C1730 C1728 1.381 . S
C1730 C1731 1.394 . S
C1730 H1738 0.930 . S
C1731 C1730 1.394 . S
C1731 C1732 1.383 . S
C1731 H1739 0.929 . S
C1732 C1731 1.383 . S
C1732 C1733 1.377 . S
C1733 H1717 0.930 . S
C1733 C1732 1.377 . S
C1733 C1734 1.379 . S
C1734 H1718 0.931 . S
C1734 C1728 1.383 . S
C1734 C1733 1.379 . S
H1735 C1729 0.959 . S
H1736 C1729 0.961 . S
H1737 C1729 0.960 . S
H1738 C1730 0.930 . S
H1739 C1731 0.929 . S
H1740 C1748 0.929 . S
H1741 C1750 0.930 . S
H1742 C1752 0.930 . S
H1743 C1755 0.929 . S
H1744 C1758 0.930 . S
H1745 C1760 0.960 . S
H1746 C1760 0.960 . S
H1747 C1760 0.960 . S
C1748 H1740 0.929 . S
C1748 C1749 1.377 . S
C1748 C1750 1.384 . S
C1749 C1748 1.377 . S
C1749 C1755 1.390 . S
C1750 H1741 0.930 . S
C1750 C1748 1.384 . S
C1750 C1751 1.372 . S
C1751 C1750 1.372 . S
C1751 C1752 1.400 . S
C1751 C1756 1.490 . S
C1752 H1742 0.930 . S
C1752 C1751 1.400 . S
C1752 C1755 1.386 . S
H1753 C1769 0.930 . S
H1754 C1770 0.931 . S
C1755 H1743 0.929 . S
C1755 C1749 1.390 . S
C1755 C1752 1.386 . S
C1756 C1751 1.490 . S
C1756 C1758 1.395 . S
C1756 C1759 1.403 . S
H1757 C1763 0.930 . S
C1758 H1744 0.930 . S
C1758 C1756 1.395 . S
C1758 C1761 1.403 . S
C1759 C1756 1.403 . S
C1759 C1760 1.524 . S
C1759 C1763 1.400 . S
C1760 H1745 0.960 . S
C1760 H1746 0.960 . S
C1760 H1747 0.960 . S
C1760 C1759 1.524 . S
C1761 C1758 1.403 . S
C1761 C1762 1.392 . S
C1761 C1765 1.495 . S
C1762 C1761 1.392 . S
C1762 C1763 1.385 . S
C1762 C1764 1.478 . S
C1763 H1757 0.930 . S
C1763 C1759 1.400 . S
C1763 C1762 1.385 . S
C1764 C1762 1.478 . S
C1764 C1766 1.381 . S
C1764 C1770 1.383 . S
C1765 C1761 1.495 . S
C1765 H1771 0.959 . S
C1765 H1772 0.961 . S
C1765 H1773 0.960 . S
C1766 C1764 1.381 . S
C1766 C1767 1.394 . S
C1766 H1774 0.930 . S
C1767 C1766 1.394 . S
C1767 C1768 1.383 . S
C1767 H1775 0.929 . S
C1768 C1767 1.383 . S
C1768 C1769 1.377 . S
C1769 H1753 0.930 . S
C1769 C1768 1.377 . S
C1769 C1770 1.379 . S
C1770 H1754 0.931 . S
C1770 C1764 1.383 . S
C1770 C1769 1.379 . S
H1771 C1765 0.959 . S
H1772 C1765 0.961 . S
H1773 C1765 0.960 . S
H1774 C1766 0.930 . S
H1775 C1767 0.929 . S
C489 C96 1.245 . S
C508 C11 1.235 . S
C525 C127 1.244 . S
C544 C42 1.183 . S
C561 C91 1.212 . S
C580 C176 1.244 . S
C597 C122 1.208 . S
C616 C207 1.243 . S
C633 C16 1.245 . S
C652 C171 1.237 . S
C669 C47 1.243 . S
C688 C202 1.183 . S
C705 C407 1.243 . S
C724 C242 1.183 . S
C741 C291 1.212 . S
C760 C456 1.244 . S
C777 C322 1.212 . S
C796 C247 1.232 . S
C813 C371 1.208 . S
C832 C296 1.236 . S
C849 C402 1.220 . S
C868 C327 1.242 . S
C885 C376 1.245 . S
C904 C451 1.239 . S
C921 C130 1.753 . S
C940 C19 1.726 . S
C957 C50 1.749 . S
C976 C179 1.762 . S
C993 C99 1.749 . S
C1012 C210 1.717 . S
C1029 C250 1.750 . S
C1048 C379 1.761 . S
C1065 C299 1.747 . S
C1084 C410 1.770 . S
C1101 C330 1.753 . S
C1120 C459 1.722 . S
C1137 C290 2.274 . S
C1156 C10 2.274 . S
C1173 C59 2.274 . S
C1192 C339 2.266 . S
C1209 C370 2.274 . S
C1228 C90 2.265 . S
C1245 C139 2.273 . S
C1264 C419 2.265 . S
C1281 C170 2.273 . S
C1300 C450 2.266 . S
C1317 C259 2.274 . S
C1336 C219 2.274 . S
C1353 C87 1.763 . S
C1372 C2 1.762 . S
C1389 C51 1.766 . S
C1408 C136 1.755 . S
C1425 C82 1.766 . S
C1444 C167 1.770 . S
C1461 C131 1.769 . S
C1480 C216 1.771 . S
C1497 C7 1.757 . S
C1516 C162 1.764 . S
C1533 C56 1.763 . S
C1552 C211 1.775 . S
C1569 C416 1.763 . S
C1588 C251 1.776 . S
C1605 C282 1.768 . S
C1624 C447 1.742 . S
C1641 C331 1.769 . S
C1660 C256 1.771 . S
C1677 C287 1.762 . S
C1696 C362 1.764 . S
C1713 C411 1.769 . S
C1732 C336 1.771 . S
C1749 C442 1.764 . S
C1768 C367 1.766 . S
