# Generated by pormake.
# Topology lcy-e, (6)-cn, num edge types: 1
# Building blocks:
#     Node 0, Type 0, BuildingBlock: KUMJIN_clean_sbu_0, # of connection points: 6
#     Node 1, Type 0, BuildingBlock: KUMJIN_clean_sbu_0, # of connection points: 6
#     Node 2, Type 0, BuildingBlock: KUMJIN_clean_sbu_0, # of connection points: 6
#     Node 3, Type 0, BuildingBlock: KUMJIN_clean_sbu_0, # of connection points: 6
#     Node 4, Type 0, BuildingBlock: KUMJIN_clean_sbu_0, # of connection points: 6
#     Node 5, Type 0, BuildingBlock: KUMJIN_clean_sbu_0, # of connection points: 6
#     Node 6, Type 0, BuildingBlock: KUMJIN_clean_sbu_0, # of connection points: 6
#     Node 7, Type 0, BuildingBlock: KUMJIN_clean_sbu_0, # of connection points: 6
#     Node 8, Type 0, BuildingBlock: KUMJIN_clean_sbu_0, # of connection points: 6
#     Node 9, Type 0, BuildingBlock: KUMJIN_clean_sbu_0, # of connection points: 6
#     Node 10, Type 0, BuildingBlock: KUMJIN_clean_sbu_0, # of connection points: 6
#     Node 11, Type 0, BuildingBlock: KUMJIN_clean_sbu_0, # of connection points: 6
#     Edge 12, Type (0, 0), BuildingBlock: MIFKUJ_clean_linker_0, # of connection points: 2
#     Edge 13, Type (0, 0), BuildingBlock: MIFKUJ_clean_linker_0, # of connection points: 2
#     Edge 14, Type (0, 0), BuildingBlock: MIFKUJ_clean_linker_0, # of connection points: 2
#     Edge 15, Type (0, 0), BuildingBlock: MIFKUJ_clean_linker_0, # of connection points: 2
#     Edge 16, Type (0, 0), BuildingBlock: MIFKUJ_clean_linker_0, # of connection points: 2
#     Edge 17, Type (0, 0), BuildingBlock: MIFKUJ_clean_linker_0, # of connection points: 2
#     Edge 18, Type (0, 0), BuildingBlock: MIFKUJ_clean_linker_0, # of connection points: 2
#     Edge 19, Type (0, 0), BuildingBlock: MIFKUJ_clean_linker_0, # of connection points: 2
#     Edge 20, Type (0, 0), BuildingBlock: MIFKUJ_clean_linker_0, # of connection points: 2
#     Edge 21, Type (0, 0), BuildingBlock: MIFKUJ_clean_linker_0, # of connection points: 2
#     Edge 22, Type (0, 0), BuildingBlock: MIFKUJ_clean_linker_0, # of connection points: 2
#     Edge 23, Type (0, 0), BuildingBlock: MIFKUJ_clean_linker_0, # of connection points: 2
#     Edge 24, Type (0, 0), BuildingBlock: MIFKUJ_clean_linker_0, # of connection points: 2
#     Edge 25, Type (0, 0), BuildingBlock: MIFKUJ_clean_linker_0, # of connection points: 2
#     Edge 26, Type (0, 0), BuildingBlock: MIFKUJ_clean_linker_0, # of connection points: 2
#     Edge 27, Type (0, 0), BuildingBlock: MIFKUJ_clean_linker_0, # of connection points: 2
#     Edge 28, Type (0, 0), BuildingBlock: MIFKUJ_clean_linker_0, # of connection points: 2
#     Edge 29, Type (0, 0), BuildingBlock: MIFKUJ_clean_linker_0, # of connection points: 2
#     Edge 30, Type (0, 0), BuildingBlock: MIFKUJ_clean_linker_0, # of connection points: 2
#     Edge 31, Type (0, 0), BuildingBlock: MIFKUJ_clean_linker_0, # of connection points: 2
#     Edge 32, Type (0, 0), BuildingBlock: MIFKUJ_clean_linker_0, # of connection points: 2
#     Edge 33, Type (0, 0), BuildingBlock: MIFKUJ_clean_linker_0, # of connection points: 2
#     Edge 34, Type (0, 0), BuildingBlock: MIFKUJ_clean_linker_0, # of connection points: 2
#     Edge 35, Type (0, 0), BuildingBlock: MIFKUJ_clean_linker_0, # of connection points: 2
#     Edge 36, Type (0, 0), BuildingBlock: MIFKUJ_clean_linker_0, # of connection points: 2
#     Edge 37, Type (0, 0), BuildingBlock: MIFKUJ_clean_linker_0, # of connection points: 2
#     Edge 38, Type (0, 0), BuildingBlock: MIFKUJ_clean_linker_0, # of connection points: 2
#     Edge 39, Type (0, 0), BuildingBlock: MIFKUJ_clean_linker_0, # of connection points: 2
#     Edge 40, Type (0, 0), BuildingBlock: MIFKUJ_clean_linker_0, # of connection points: 2
#     Edge 41, Type (0, 0), BuildingBlock: MIFKUJ_clean_linker_0, # of connection points: 2
#     Edge 42, Type (0, 0), BuildingBlock: MIFKUJ_clean_linker_0, # of connection points: 2
#     Edge 43, Type (0, 0), BuildingBlock: MIFKUJ_clean_linker_0, # of connection points: 2
#     Edge 44, Type (0, 0), BuildingBlock: MIFKUJ_clean_linker_0, # of connection points: 2
#     Edge 45, Type (0, 0), BuildingBlock: MIFKUJ_clean_linker_0, # of connection points: 2
#     Edge 46, Type (0, 0), BuildingBlock: MIFKUJ_clean_linker_0, # of connection points: 2
#     Edge 47, Type (0, 0), BuildingBlock: MIFKUJ_clean_linker_0, # of connection points: 2
# Relax obj value: 0.116
# Max RMSD: 0.279
# Mean RMSD: 0.278
data_MOF--net-lcy-e--node1-KUMJIN_clean_sbu_0--edge1-MIFKUJ_clean_linker_0
_symmetry_space_group_name_H-M    P1
_symmetry_Int_Tables_number       1
_symmetry_cell_setting            triclinic
loop_
_symmetry_equiv_pos_as_xyz
'x, y, z'
_cell_length_a     54.184692
_cell_length_b     54.080505
_cell_length_c     54.466623
_cell_angle_alpha  89.76132
_cell_angle_beta   90.232288
_cell_angle_gamma 90.476706
loop_
_atom_site_label
_atom_site_type_symbol
_atom_site_fract_x
_atom_site_fract_y
_atom_site_fract_z
_atom_type_partial_charge
Eu0 Eu 0.14918 0.21034 0.52054 0.0
C1 C 0.06258 0.25331 0.4587 0.0
C2 C 0.05738 0.2224 0.42705 0.0
C3 C 0.02218 0.24646 0.44015 0.0
C4 C 0.07242 0.23509 0.44415 0.0
C5 C 0.03749 0.25972 0.45637 0.0
C6 C 0.03212 0.22785 0.42548 0.0
C7 C 0.04526 0.29393 0.48376 0.0
N8 N 0.07796 0.26601 0.47384 0.0
C9 C 0.07003 0.28699 0.48519 0.0
C10 C 0.02879 0.27996 0.46962 0.0
Eu11 Eu 0.11982 0.25355 0.47555 0.0
N12 N 0.09692 0.23041 0.44605 0.0
C13 C 0.10783 0.21436 0.43018 0.0
C14 C 0.06827 0.20501 0.41166 0.0
C15 C 0.09368 0.20123 0.41301 0.0
H16 H 0.08292 0.29818 0.49562 0.0
H17 H 0.10238 0.18813 0.4009 0.0
H18 H 0.02026 0.21821 0.41255 0.0
H19 H 0.03897 0.31017 0.49336 0.0
H20 H 0.1274 0.21106 0.43098 0.0
H21 H 0.18615 0.26499 0.59662 0.0
H22 H 0.05734 0.19479 0.39838 0.0
H23 H 0.17409 0.16072 0.49401 0.0
H24 H 0.15406 0.24852 0.56899 0.0
H25 H 0.21426 0.13959 0.49208 0.0
H26 H 1.00281 0.25095 0.43827 0.0
H27 H 0.2291 0.25058 0.59304 0.0
H28 H 0.25947 0.2223 0.57293 0.0
H29 H 0.00966 0.2855 0.46831 0.0
H30 H 0.26705 0.18772 0.54477 0.0
N31 N 0.17888 0.22673 0.54824 0.0
C32 C 0.17285 0.24266 0.56658 0.0
C33 C 0.21525 0.24385 0.58029 0.0
C34 C 0.221 0.22611 0.56265 0.0
C35 C 0.19098 0.2519 0.58249 0.0
C36 C 0.20208 0.21759 0.54685 0.0
H37 H 0.25011 0.15626 0.51514 0.0
N38 N 0.18718 0.18928 0.51757 0.0
C39 C 0.21231 0.1561 0.50305 0.0
C40 C 0.20631 0.19806 0.5312 0.0
C41 C 0.18958 0.16811 0.50419 0.0
C42 C 0.23253 0.1656 0.51604 0.0
C43 C 0.22961 0.18663 0.53062 0.0
O44 O 0.1375 0.17258 0.53013 0.0
O45 O 0.11797 0.21704 0.49442 0.0
O46 O 0.09624 0.25382 0.51063 0.0
O47 O 0.12297 0.23603 0.53954 0.0
O48 O 0.13389 0.18268 0.49293 0.0
O49 O 0.13613 0.20128 0.55745 0.0
O50 O 0.12403 0.29237 0.46492 0.0
O51 O 0.1497 0.24842 0.50347 0.0
O52 O 0.1773 0.21696 0.49102 0.0
O53 O 0.15323 0.23316 0.45914 0.0
O54 O 0.13325 0.28311 0.50139 0.0
O55 O 0.13465 0.26398 0.43946 0.0
C56 C 0.11624 0.19611 0.48456 0.0
C57 C 0.1437 0.16041 0.5714 0.0
C58 C 0.14023 0.12259 0.59636 0.0
C59 C 0.1301 0.13938 0.57913 0.0
C60 C 0.164 0.12751 0.60582 0.0
C61 C 0.16737 0.16462 0.58108 0.0
C62 C 0.17738 0.1483 0.59821 0.0
C63 C 0.10276 0.2483 0.53362 0.0
C64 C 0.13334 0.17771 0.55307 0.0
C65 C 0.24894 0.19605 0.54517 0.0
C66 C 0.24464 0.21576 0.56118 0.0
C67 C 0.14974 0.27009 0.5125 0.0
C68 C 0.1191 0.30126 0.42253 0.0
C69 C 0.1328 0.3105 0.40243 0.0
C70 C 0.12113 0.32434 0.3836 0.0
C71 C 0.09561 0.32881 0.38556 0.0
C72 C 0.09365 0.30563 0.42346 0.0
C73 C 0.08205 0.31933 0.40517 0.0
C74 C 0.17399 0.22332 0.46779 0.0
C75 C 0.1314 0.28758 0.4427 0.0
H76 H 0.11191 0.13593 0.57147 0.0
H77 H 0.17221 0.1154 0.61941 0.0
H78 H 0.17811 0.18059 0.57547 0.0
H79 H 0.19562 0.15179 0.60567 0.0
H80 H 0.15239 0.30677 0.40148 0.0
H81 H 0.08601 0.34001 0.37213 0.0
H82 H 0.08268 0.2988 0.43848 0.0
H83 H 0.06245 0.32287 0.40633 0.0
Eu84 Eu 0.01598 0.86784 0.72981 0.0
C85 C 0.0791 0.95403 0.77778 0.0
C86 C 0.11169 0.96155 0.74836 0.0
C87 C 0.10033 0.99385 0.77687 0.0
C88 C 0.09339 0.94592 0.75858 0.0
C89 C 0.0827 0.97795 0.78748 0.0
C90 C 0.11467 0.98573 0.75722 0.0
C91 C 0.05412 0.96732 0.81982 0.0
N92 N 0.06366 0.93758 0.78874 0.0
C93 C 0.05198 0.94352 0.81008 0.0
C94 C 0.06941 0.98471 0.80834 0.0
Eu95 Eu 0.06187 0.89692 0.7728 0.0
N96 N 0.09112 0.92197 0.75161 0.0
C97 C 0.10765 0.9121 0.73558 0.0
C98 C 0.12753 0.95192 0.73068 0.0
C99 C 0.12578 0.92696 0.7246 0.0
H100 H 0.04072 0.92983 0.81939 0.0
H101 H 0.13844 0.91909 0.7115 0.0
H102 H 0.12858 0.998 0.74957 0.0
H103 H 0.04433 0.97209 0.8364 0.0
H104 H 0.10681 0.8928 0.73082 0.0
H105 H 0.9354 0.83242 0.77885 0.0
H106 H 0.14178 0.96332 0.72237 0.0
H107 H 0.04933 0.84032 0.686 0.0
H108 H 0.96461 0.86414 0.76383 0.0
H109 H 0.05434 0.79882 0.66803 0.0
H110 H 0.10335 0.01229 0.78405 0.0
H111 H 0.93989 0.78894 0.76599 0.0
H112 H 0.96244 0.75757 0.74078 0.0
H113 H 0.07152 1.00297 0.81624 0.0
H114 H 0.99453 0.7485 0.71031 0.0
N115 N 0.98682 0.83859 0.74451 0.0
C116 C 0.96734 0.84509 0.7588 0.0
C117 C 0.95322 0.80265 0.75991 0.0
C118 C 0.97235 0.79634 0.744 0.0
C119 C 0.95054 0.8272 0.76712 0.0
C120 C 0.98893 0.81504 0.73631 0.0
H121 H 0.02868 0.76382 0.68287 0.0
N122 N 0.02148 0.8288 0.71107 0.0
C123 C 0.04089 0.80171 0.68235 0.0
C124 C 1.00669 0.81001 0.71891 0.0
C125 C 0.03795 0.82521 0.69251 0.0
C126 C 0.02641 0.78198 0.69082 0.0
C127 C 1.00882 0.78604 0.7091 0.0
O128 O 1.00722 0.87754 0.69166 0.0
O129 O 0.04305 0.89868 0.73641 0.0
O130 O 0.02713 0.92132 0.77245 0.0
O131 O 0.99729 0.89482 0.75497 0.0
O132 O 0.04429 0.88291 0.70246 0.0
O133 O 0.97955 0.88171 0.71972 0.0
O134 O 0.07626 0.89189 0.81011 0.0
O135 O 0.03093 0.87029 0.76803 0.0
O136 O 0.04353 0.83931 0.7416 0.0
O137 O 0.07687 0.86549 0.7487 0.0
O138 O 0.03806 0.88164 0.80358 0.0
O139 O 0.09617 0.87673 0.77955 0.0
C140 C 0.05312 0.90058 0.71573 0.0
C141 C 0.96547 0.87355 0.67928 0.0
C142 C 0.9381 0.8793 0.64375 0.0
C143 C 0.95675 0.88828 0.65967 0.0
C144 C 0.92869 0.85527 0.64763 0.0
C145 C 0.9558 0.84965 0.68261 0.0
C146 C 0.93755 0.8406 0.66684 0.0
C147 C 1.00389 0.91541 0.76647 0.0
C148 C 0.98441 0.88329 0.69632 0.0
C149 C 0.99309 0.76708 0.71751 0.0
C150 C 0.97485 0.77223 0.7349 0.0
C151 C 0.02418 0.86768 0.7902 0.0
C152 C 0.11992 0.89068 0.81329 0.0
C153 C 0.13801 0.87464 0.82301 0.0
C154 C 0.16074 0.88423 0.8319 0.0
C155 C 0.16481 0.90996 0.83102 0.0
C156 C 0.12462 0.91621 0.81284 0.0
C157 C 0.1469 0.92574 0.82159 0.0
C158 C 0.06744 0.84326 0.74397 0.0
C159 C 0.09641 0.88097 0.80308 0.0
H160 H 0.96415 0.90679 0.65709 0.0
H161 H 0.91465 0.84765 0.63556 0.0
H162 H 0.96229 0.83802 0.69744 0.0
H163 H 0.9302 0.82212 0.66952 0.0
H164 H 0.13456 0.85488 0.82337 0.0
H165 H 0.18177 0.91802 0.83807 0.0
H166 H 0.11104 0.92884 0.80581 0.0
H167 H 0.15025 0.9455 0.82117 0.0
Eu168 Eu 0.40232 0.76072 0.97432 0.0
C169 C 0.32886 0.82517 0.02541 0.0
C170 C 0.3245 0.85967 0.9971 0.0
C171 C 0.29035 0.84806 0.02339 0.0
C172 C 0.33887 0.84049 1.0074 0.0
C173 C 0.30454 0.82917 0.03378 0.0
C174 C 0.30026 0.86319 1.00505 0.0
C175 C 0.31131 0.79889 0.06557 0.0
N176 N 0.3435 0.80808 0.03645 0.0
C177 C 0.33547 0.79622 0.05732 0.0
C178 C 0.29562 0.81519 0.05352 0.0
Eu179 Eu 0.38486 0.80572 0.02185 0.0
N180 N 0.36293 0.83773 1.00097 0.0
C181 C 0.37372 0.85428 0.98506 0.0
C182 C 0.33522 0.87564 0.97991 0.0
C183 C 0.35999 0.87305 0.97405 0.0
H184 H 0.34785 0.78482 0.068 0.0
H185 H 0.36863 0.88566 0.96115 0.0
H186 H 0.2894 0.87829 0.9978 0.0
H187 H 0.30504 0.7889 0.08167 0.0
H188 H 0.39284 0.85333 0.9802 0.0
H189 H 0.43459 0.68238 0.02801 0.0
H190 H 0.32471 0.89045 0.97157 0.0
H191 H 0.42803 0.7873 0.92488 0.0
H192 H 0.40464 0.71282 0.01287 0.0
H193 H 0.46774 0.78699 0.90256 0.0
H194 H 0.27206 0.8518 0.03026 0.0
H195 H 0.47739 0.6827 0.01192 0.0
H196 H 0.50805 0.70019 0.98181 0.0
H197 H 0.27706 0.81774 0.06036 0.0
H198 H 0.51691 0.7284 0.94729 0.0
N199 N 0.43022 0.73101 0.98949 0.0
C200 C 0.42325 0.71336 1.00602 0.0
C201 C 0.4643 0.6963 1.00546 0.0
C202 C 0.47085 0.71348 0.98727 0.0
C203 C 0.44023 0.69602 0.01457 0.0
C204 C 0.4531 0.73077 0.97949 0.0
H205 H 0.50183 0.76054 0.91732 0.0
N206 N 0.44001 0.76205 0.95238 0.0
C207 C 0.46531 0.77565 0.9188 0.0
C208 C 0.4581 0.74659 0.96011 0.0
C209 C 0.44289 0.7758 0.93145 0.0
C210 C 0.48453 0.76072 0.92722 0.0
C211 C 0.48095 0.74566 0.9479 0.0
O212 O 0.3884 0.75348 0.93697 0.0
O213 O 0.37477 0.78931 0.98549 0.0
O214 O 0.36521 0.76843 0.0314 0.0
O215 O 0.37264 0.74331 0.99751 0.0
O216 O 0.38777 0.79177 0.95015 0.0
O217 O 0.38826 0.72419 0.96364 0.0
O218 O 0.38593 0.81398 0.0613 0.0
O219 O 0.40385 0.76935 0.01504 0.0
O220 O 0.43395 0.78769 0.97923 0.0
O221 O 0.41465 0.82162 0.9965 0.0
O222 O 0.42169 0.79382 0.03736 0.0
O223 O 0.4016 0.84006 0.0354 0.0
C224 C 0.37201 0.80057 0.96537 0.0
C225 C 0.39319 0.71256 0.92197 0.0
C226 C 0.38631 0.68539 0.88633 0.0
C227 C 0.37746 0.70307 0.90328 0.0
C228 C 0.4111 0.67804 0.88806 0.0
C229 C 0.41772 0.70458 0.92311 0.0
C230 C 0.42661 0.68762 0.90621 0.0
C231 C 0.36148 0.74773 0.01854 0.0
C232 C 0.38409 0.73007 0.94079 0.0
C233 C 0.49914 0.72926 0.95629 0.0
C234 C 0.49411 0.71322 0.97596 0.0
C235 C 0.42269 0.77181 0.02877 0.0
C236 C 0.38533 0.85705 0.07194 0.0
C237 C 0.40057 0.87658 0.08075 0.0
C238 C 0.39005 0.89738 0.09236 0.0
C239 C 0.36432 0.89816 0.09524 0.0
C240 C 0.35974 0.85845 0.07545 0.0
C241 C 0.34936 0.87881 0.08698 0.0
C242 C 0.43352 0.81128 0.9852 0.0
C243 C 0.39601 0.83587 0.05832 0.0
H244 H 0.3584 0.7089 0.90233 0.0
H245 H 0.41855 0.66482 0.87523 0.0
H246 H 0.43 0.71125 0.93728 0.0
H247 H 0.44562 0.68168 0.90731 0.0
H248 H 0.42037 0.87585 0.07816 0.0
H249 H 0.35574 0.91375 0.10415 0.0
H250 H 0.34761 0.8439 0.06928 0.0
H251 H 0.32957 0.87962 0.08945 0.0
Eu252 Eu 0.51644 0.15482 0.22425 0.0
C253 C 0.46173 0.06395 0.27344 0.0
C254 C 0.4316 0.05091 0.24316 0.0
C255 C 0.44879 0.02085 0.27163 0.0
C256 C 0.44652 0.06946 0.25388 0.0
C257 C 0.46265 0.03971 0.28298 0.0
C258 C 0.43328 0.02645 0.25173 0.0
C259 C 0.4889 0.05511 0.3156 0.0
N260 N 0.47442 0.0827 0.28418 0.0
C261 C 0.48718 0.07887 0.30554 0.0
C262 C 0.47683 0.03535 0.30409 0.0
Eu263 Eu 0.47168 0.12234 0.26579 0.0
N264 N 0.44533 0.09329 0.24617 0.0
C265 C 0.42817 0.10022 0.22912 0.0
C266 C 0.41498 0.05766 0.22463 0.0
C267 C 0.41299 0.0825 0.21785 0.0
H268 H 0.49662 0.09412 0.3144 0.0
H269 H 0.39987 0.088 0.20387 0.0
H270 H 0.4222 0.01187 0.24354 0.0
H271 H 0.49953 0.05205 0.33219 0.0
H272 H 0.42657 0.11934 0.22366 0.0
H273 H 0.58802 0.20155 0.27786 0.0
H274 H 0.40324 0.04397 0.21586 0.0
H275 H 0.48196 0.177 0.17738 0.0
H276 H 0.56393 0.16599 0.26227 0.0
H277 H 0.47357 0.21681 0.15709 0.0
H278 H 0.44942 1.00204 0.27851 0.0
H279 H 0.57959 0.24365 0.26213 0.0
H280 H 0.55618 0.27087 0.23285 0.0
H281 H 0.47804 0.01698 0.31198 0.0
H282 H 0.52544 0.27492 0.19972 0.0
N283 N 0.54096 0.18785 0.23932 0.0
C284 C 0.5597 0.18433 0.25572 0.0
C285 C 0.56873 0.22813 0.25551 0.0
C286 C 0.55049 0.23141 0.23754 0.0
C287 C 0.57355 0.20441 0.26442 0.0
C288 C 0.53683 0.2106 0.2296 0.0
H289 H 0.4947 0.25488 0.17127 0.0
N290 N 0.50744 0.19224 0.20319 0.0
C291 C 0.4866 0.21595 0.17217 0.0
C292 C 0.51973 0.21284 0.2108 0.0
C293 C 0.49148 0.19336 0.18372 0.0
C294 C 0.49853 0.23741 0.18026 0.0
C295 C 0.51551 0.23601 0.19964 0.0
O296 O 0.52771 0.14092 0.18846 0.0
O297 O 0.49122 0.12231 0.23005 0.0
O298 O 0.50773 0.0999 0.26471 0.0
O299 O 0.53608 0.12995 0.25117 0.0
O300 O 0.49096 0.13725 0.19544 0.0
O301 O 0.55547 0.14856 0.216 0.0
O302 O 0.45671 0.12899 0.30233 0.0
O303 O 0.50102 0.15093 0.26208 0.0
O304 O 0.48605 0.18072 0.23407 0.0
O305 O 0.45464 0.15195 0.2401 0.0
O306 O 0.49288 0.13949 0.2974 0.0
O307 O 0.43512 0.13855 0.2702 0.0
C308 C 0.48231 0.11956 0.20886 0.0
C309 C 0.56629 0.15421 0.17408 0.0
C310 C 0.58746 0.15168 0.13465 0.0
C311 C 0.57533 0.14007 0.15446 0.0
C312 C 0.59077 0.17746 0.13487 0.0
C313 C 0.57001 0.17991 0.17406 0.0
C314 C 0.58227 0.19143 0.15457 0.0
C315 C 0.53075 0.10804 0.26087 0.0
C316 C 0.55121 0.14226 0.19327 0.0
C317 C 0.52851 0.25694 0.20799 0.0
C318 C 0.54597 0.25465 0.22689 0.0
C319 C 0.50627 0.15443 0.28459 0.0
C320 C 0.41333 0.12652 0.30575 0.0
C321 C 0.39604 0.14219 0.31687 0.0
C322 C 0.3752 0.13215 0.32884 0.0
C323 C 0.37172 0.10635 0.32908 0.0
C324 C 0.4094 0.10087 0.30614 0.0
C325 C 0.38865 0.09088 0.31769 0.0
C326 C 0.46245 0.1749 0.23549 0.0
C327 C 0.43556 0.13699 0.2941 0.0
H328 H 0.57229 0.12023 0.15423 0.0
H329 H 0.60012 0.18676 0.11986 0.0
H330 H 0.56318 0.19111 0.1889 0.0
H331 H 0.58496 0.21128 0.15462 0.0
H332 H 0.39907 0.16203 0.31668 0.0
H333 H 0.35576 0.09816 0.33797 0.0
H334 H 0.42244 0.08857 0.29767 0.0
H335 H 0.38574 0.07105 0.31793 0.0
Eu336 Eu 0.63233 0.25715 0.54493 0.0
C337 C 0.71479 0.32185 0.49619 0.0
C338 C 0.71891 0.35634 0.52412 0.0
C339 C 0.75319 0.34546 0.49791 0.0
C340 C 0.70487 0.33666 0.51411 0.0
C341 C 0.73896 0.32633 0.48757 0.0
C342 C 0.74327 0.36029 0.51631 0.0
C343 C 0.73183 0.29545 0.45641 0.0
N344 N 0.69991 0.30485 0.48532 0.0
C345 C 0.70773 0.29241 0.46501 0.0
C346 C 0.74762 0.31237 0.46788 0.0
Eu347 Eu 0.65865 0.30117 0.49939 0.0
N348 N 0.6808 0.33327 0.52011 0.0
C349 C 0.66941 0.34983 0.53516 0.0
C350 C 0.70762 0.37242 0.54055 0.0
C351 C 0.68265 0.36937 0.54577 0.0
H352 H 0.69524 0.27999 0.4555 0.0
H353 H 0.67353 0.38207 0.558 0.0
H354 H 0.75429 0.37531 0.52376 0.0
H355 H 0.73804 0.28513 0.44065 0.0
H356 H 0.65017 0.3481 0.53956 0.0
H357 H 0.58893 0.18108 0.4949 0.0
H358 H 0.71778 0.38771 0.54862 0.0
H359 H 0.60955 0.29142 0.59123 0.0
H360 H 0.62347 0.20769 0.50904 0.0
H361 H 0.57022 0.29706 0.6129 0.0
H362 H 0.77169 0.34935 0.49137 0.0
H363 H 0.5473 0.18633 0.51224 0.0
H364 H 0.51983 0.20789 0.54227 0.0
H365 H 0.76611 0.31516 0.46083 0.0
H366 H 0.51486 0.23901 0.57467 0.0
N367 N 0.6009 0.22949 0.53205 0.0
C368 C 0.60515 0.21066 0.51611 0.0
C369 C 0.56222 0.19842 0.5181 0.0
C370 C 0.55839 0.21661 0.53583 0.0
C371 C 0.58576 0.19531 0.50835 0.0
C372 C 0.57838 0.23205 0.54257 0.0
H373 H 0.53355 0.2722 0.60119 0.0
N374 N 0.59538 0.26373 0.56718 0.0
C375 C 0.57148 0.28362 0.5983 0.0
C376 C 0.57561 0.2494 0.56097 0.0
C377 C 0.5938 0.28031 0.58598 0.0
C378 C 0.55082 0.26955 0.59163 0.0
C379 C 0.55274 0.25206 0.57289 0.0
O380 O 0.64549 0.24894 0.58209 0.0
O381 O 0.66325 0.28362 0.53606 0.0
O382 O 0.68288 0.26592 0.49935 0.0
O383 O 0.65863 0.23658 0.52044 0.0
O384 O 0.64871 0.28643 0.57051 0.0
O385 O 0.64277 0.21951 0.55547 0.0
O386 O 0.65552 0.31269 0.46087 0.0
O387 O 0.63061 0.27151 0.50599 0.0
O388 O 0.60249 0.28387 0.53491 0.0
O389 O 0.62619 0.31729 0.52179 0.0
O390 O 0.64656 0.2731 0.47132 0.0
O391 O 0.63631 0.33312 0.48854 0.0
C392 C 0.66576 0.29467 0.55622 0.0
C393 C 0.63672 0.20905 0.59754 0.0
C394 C 0.64031 0.18768 0.6372 0.0
C395 C 0.65103 0.20175 0.61803 0.0
C396 C 0.61528 0.18084 0.63537 0.0
C397 C 0.61187 0.2017 0.59615 0.0
C398 C 0.60127 0.18769 0.61494 0.0
C399 C 0.678 0.24284 0.50695 0.0
C400 C 0.6474 0.22525 0.57833 0.0
C401 C 0.53261 0.23717 0.5658 0.0
C402 C 0.53543 0.21949 0.54731 0.0
C403 C 0.63097 0.26134 0.48494 0.0
C404 C 0.65095 0.35581 0.45425 0.0
C405 C 0.63447 0.37178 0.44177 0.0
C406 C 0.64333 0.39389 0.43077 0.0
C407 C 0.66853 0.39994 0.43298 0.0
C408 C 0.67596 0.36248 0.456 0.0
C409 C 0.68463 0.3844 0.44556 0.0
C410 C 0.60513 0.30759 0.53003 0.0
C411 C 0.64241 0.33223 0.46547 0.0
H412 H 0.67022 0.20743 0.6193 0.0
H413 H 0.6066 0.16986 0.64966 0.0
H414 H 0.60061 0.20687 0.5806 0.0
H415 H 0.58205 0.18217 0.6137 0.0
H416 H 0.61511 0.36682 0.44021 0.0
H417 H 0.67579 0.41687 0.425 0.0
H418 H 0.6889 0.35066 0.46531 0.0
H419 H 0.70398 0.38932 0.44711 0.0
Eu420 Eu 0.9709 0.40889 0.75238 0.0
C421 C 0.99904 0.34179 0.82875 0.0
C422 C 0.9692 0.34919 0.86089 0.0
C423 C 0.98182 0.30724 0.85221 0.0
C424 C 0.98493 0.35821 0.84211 0.0
C425 C 0.99802 0.31617 0.83416 0.0
C426 C 0.96739 0.3237 0.86547 0.0
C427 C 0.03042 0.30993 0.80478 0.0
N428 N 0.01412 0.35073 0.81088 0.0
C429 C 0.03088 0.33533 0.80014 0.0
C430 C 0.01356 0.30021 0.8215 0.0
Eu431 Eu 0.01291 0.39417 0.8031 0.0
N432 N 0.98671 0.38287 0.83706 0.0
C433 C 0.97502 0.39935 0.8521 0.0
C434 C 0.95587 0.36603 0.87478 0.0
C435 C 0.95915 0.39121 0.87065 0.0
H436 H 0.04513 0.34237 0.78817 0.0
H437 H 0.9497 0.40447 0.88201 0.0
H438 H 0.95515 0.31655 0.87956 0.0
H439 H 0.04334 0.2979 0.79569 0.0
H440 H 0.97794 0.41896 0.85081 0.0
H441 H 0.04444 0.41968 0.68475 0.0
H442 H 0.94358 0.35982 0.88924 0.0
H443 H 0.92093 0.44432 0.7582 0.0
H444 H 0.01733 0.39714 0.71354 0.0
H445 H 0.90768 0.48696 0.74822 0.0
H446 H 0.98057 0.28763 0.85627 0.0
H447 H 0.03812 0.46434 0.67722 0.0
H448 H 0.01256 0.50226 0.68433 0.0
H449 H 0.01328 0.28049 0.82512 0.0
H450 H 0.97532 0.52082 0.70202 0.0
N451 N 0.99657 0.42878 0.72308 0.0
C452 C 0.01451 0.41658 0.71058 0.0
C453 C 0.02627 0.45453 0.69 0.0
C454 C 1.00684 0.46656 0.70174 0.0
C455 C 0.02985 0.42932 0.69415 0.0
C456 C 0.99205 0.45295 0.71831 0.0
H457 H 0.93568 0.51502 0.72532 0.0
N458 N 0.95658 0.44909 0.7427 0.0
C459 C 0.92577 0.48071 0.7428 0.0
C460 C 0.97137 0.46348 0.7285 0.0
C461 C 0.9333 0.45666 0.74842 0.0
C462 C 0.94168 0.49653 0.72999 0.0
C463 C 0.96454 0.48777 0.72206 0.0
O464 O 0.93307 0.39785 0.7424 0.0
O465 O 0.97803 0.38325 0.78389 0.0
O466 O 0.02529 0.37448 0.76798 0.0
O467 O 0.98906 0.37234 0.74529 0.0
O468 O 0.94325 0.39887 0.78191 0.0
O469 O 0.96221 0.39247 0.71656 0.0
O470 O 0.05266 0.38763 0.80532 0.0
O471 O 0.0106 0.41187 0.76573 0.0
O472 O 0.96567 0.43889 0.78084 0.0
O473 O 0.99224 0.4291 0.81344 0.0
O474 O 0.02646 0.43259 0.79326 0.0
O475 O 0.03353 0.40294 0.83701 0.0
C476 C 0.95671 0.38279 0.79321 0.0
C477 C 0.922 0.39943 0.70038 0.0
C478 C 0.88507 0.39387 0.67437 0.0
C479 C 0.90125 0.38513 0.69294 0.0
C480 C 0.89036 0.41688 0.6633 0.0
C481 C 0.9266 0.42225 0.68893 0.0
C482 C 0.9109 0.43085 0.67051 0.0
C483 C 0.01158 0.36477 0.75017 0.0
C484 C 0.93854 0.39082 0.72035 0.0
C485 C 0.98005 0.50198 0.70685 0.0
C486 C 1.00122 0.4914 0.69674 0.0
C487 C 0.0226 0.43179 0.76986 0.0
C488 C 0.07809 0.39609 0.84157 0.0
C489 C 0.07971 0.40465 0.86609 0.0
C490 C 0.10237 0.40368 0.87897 0.0
C491 C 0.12325 0.39429 0.86716 0.0
C492 C 0.09942 0.387 0.83023 0.0
C493 C 0.12175 0.38607 0.84298 0.0
C494 C 0.97501 0.44293 0.80297 0.0
C495 C 0.05434 0.39551 0.82785 0.0
H496 H 0.89751 0.36754 0.70185 0.0
H497 H 0.87871 0.42403 0.64876 0.0
H498 H 0.94238 0.43345 0.6942 0.0
H499 H 0.91467 0.44847 0.66175 0.0
H500 H 0.06345 0.4115 0.87526 0.0
H501 H 0.14077 0.39325 0.87676 0.0
H502 H 0.09883 0.38033 0.81151 0.0
H503 H 0.13799 0.37885 0.8341 0.0
Eu504 Eu 0.88784 0.77533 0.05181 0.0
C505 C 0.81115 0.71242 1.00986 0.0
C506 C 0.81057 0.67474 0.03409 0.0
C507 C 0.77219 0.69102 0.01812 0.0
C508 C 0.82374 0.69481 0.02354 0.0
C509 C 0.78523 0.71041 1.00683 0.0
C510 C 0.78484 0.67315 0.0316 0.0
C511 C 0.78679 0.74543 0.97951 0.0
N512 N 0.82412 0.731 0.99888 0.0
C513 C 0.81234 0.74649 0.98269 0.0
C514 C 0.7731 0.72757 0.99196 0.0
Eu515 Eu 0.86779 0.73126 1.00545 0.0
N516 N 0.84868 0.69693 0.02624 0.0
C517 C 0.86139 0.67853 0.03816 0.0
C518 C 0.82359 0.65644 0.04654 0.0
C519 C 0.84907 0.65836 0.04864 0.0
H520 H 0.82237 0.75931 0.9712 0.0
H521 H 0.85935 0.64399 0.05792 0.0
H522 H 0.77457 0.65799 0.03983 0.0
H523 H 0.77775 0.75806 0.96698 0.0
H524 H 0.88113 0.67829 0.03942 0.0
H525 H 0.92033 0.8468 0.98873 0.0
H526 H 0.81416 0.64041 0.05392 0.0
H527 H 0.91534 0.75762 0.10429 0.0
H528 H 0.88937 0.82143 1.01069 0.0
H529 H 0.95726 0.7571 0.12266 0.0
H530 H 0.75235 0.68936 0.01608 0.0
H531 H 0.96473 0.84301 0.99931 0.0
H532 H 0.99723 0.82516 0.02704 0.0
H533 H 0.75329 0.72659 0.98922 0.0
H534 H 1.00739 0.80045 0.06373 0.0
N535 N 0.91601 0.80237 0.03207 0.0
C536 C 0.90866 0.81956 0.01525 0.0
C537 C 0.95117 0.83171 1.00874 0.0
C538 C 0.95831 0.81553 0.02752 0.0
C539 C 0.92617 0.83408 1.00292 0.0
C540 C 0.94001 0.80098 0.03906 0.0
H541 H 0.99245 0.77548 0.09997 0.0
N542 N 0.92716 0.77494 0.07121 0.0
C543 C 0.95435 0.76531 0.10474 0.0
C544 C 0.9458 0.78686 0.05942 0.0
C545 C 0.93069 0.76568 0.09437 0.0
C546 C 0.97418 0.7756 0.09182 0.0
C547 C 0.96993 0.7872 0.06918 0.0
O548 O 0.87455 0.78474 0.08863 0.0
O549 O 0.85813 0.74737 0.04217 0.0
O550 O 0.8562 0.7706 0.99392 0.0
O551 O 0.85497 0.79092 0.0312 0.0
O552 O 0.87418 0.74484 0.0768 0.0
O553 O 0.87909 0.81349 0.06185 0.0
O554 O 0.86026 0.72811 0.9659 0.0
O555 O 0.89031 0.76591 0.01136 0.0
O556 O 0.91501 0.7437 0.05373 0.0
O557 O 0.899 0.71368 0.02731 0.0
O558 O 0.90736 0.73718 0.9939 0.0
O559 O 0.88135 0.69997 0.98452 0.0
C560 C 0.85717 0.73599 0.06262 0.0
C561 C 0.8871 0.82389 0.10336 0.0
C562 C 0.8869 0.84733 0.14204 0.0
C563 C 0.87424 0.83364 0.12363 0.0
C564 C 0.91272 0.8502 0.13985 0.0
C565 C 0.91249 0.82845 0.10126 0.0
C566 C 0.92523 0.84118 0.11952 0.0
C567 C 0.84878 0.78928 1.00781 0.0
C568 C 0.87437 0.80845 0.08473 0.0
C569 C 0.98863 0.80026 0.05676 0.0
C570 C 0.98284 0.81436 0.03589 0.0
C571 C 0.90979 0.76005 0.99983 0.0
C572 C 0.85861 0.68681 0.95013 0.0
C573 C 0.8729 0.66893 0.938 0.0
C574 C 0.86159 0.64884 0.92571 0.0
C575 C 0.83563 0.64705 0.92591 0.0
C576 C 0.83282 0.68458 0.94985 0.0
C577 C 0.82146 0.66481 0.93779 0.0
C578 C 0.91518 0.72145 0.04388 0.0
C579 C 0.87113 0.70676 0.96397 0.0
H580 H 0.85448 0.83077 0.12475 0.0
H581 H 0.92354 0.85936 0.15391 0.0
H582 H 0.92258 0.82206 0.08554 0.0
H583 H 0.94497 0.844 0.11796 0.0
H584 H 0.89283 0.6708 0.93813 0.0
H585 H 0.82618 0.63167 0.91722 0.0
H586 H 0.82144 0.69793 0.9591 0.0
H587 H 0.80154 0.6631 0.93784 0.0
Eu588 Eu 0.50358 0.64069 0.30005 0.0
C589 C 0.56821 0.56106 0.24835 0.0
C590 C 0.60224 0.55501 0.27643 0.0
C591 C 0.58912 0.52144 0.24983 0.0
C592 C 0.58326 0.56989 0.26682 0.0
C593 C 0.57135 0.53693 0.23916 0.0
C594 C 0.60467 0.53053 0.26835 0.0
C595 C 0.54199 0.54658 0.20716 0.0
N596 N 0.55215 0.57691 0.23775 0.0
C597 C 0.54006 0.57049 0.2166 0.0
C598 C 0.55744 0.52957 0.21873 0.0
Eu599 Eu 0.54903 0.61714 0.25475 0.0
N600 N 0.58049 0.59365 0.27416 0.0
C601 C 0.59707 0.60404 0.29014 0.0
C602 C 0.61887 0.56549 0.29307 0.0
C603 C 0.6163 0.59008 0.30002 0.0
H604 H 0.52851 0.5838 0.2073 0.0
H605 H 0.62933 0.5984 0.31271 0.0
H606 H 0.61896 0.51874 0.27581 0.0
H607 H 0.5318 0.54141 0.19081 0.0
H608 H 0.59565 0.62308 0.29555 0.0
H609 H 0.42306 0.67258 0.24851 0.0
H610 H 0.63431 0.55505 0.29977 0.0
H611 H 0.53273 0.66825 0.34709 0.0
H612 H 0.45285 0.64213 0.26415 0.0
H613 H 0.53451 0.70916 0.36714 0.0
H614 H 0.59166 0.50277 0.24319 0.0
H615 H 0.4256 0.71607 0.2622 0.0
H616 H 0.44532 0.74774 0.28983 0.0
H617 H 0.55926 0.51118 0.21115 0.0
H618 H 0.47518 0.75753 0.32264 0.0
N619 N 0.47325 0.66835 0.28518 0.0
C620 C 0.45453 0.66111 0.26995 0.0
C621 C 0.43898 0.70284 0.26888 0.0
C622 C 0.45704 0.70972 0.28602 0.0
C623 C 0.43744 0.6783 0.26116 0.0
C624 C 0.47401 0.69175 0.29409 0.0
H625 H 0.50816 0.74313 0.35191 0.0
N626 N 0.50596 0.67916 0.32061 0.0
C627 C 0.52215 0.70608 0.35177 0.0
C628 C 0.49067 0.69725 0.31261 0.0
C629 C 0.52106 0.68293 0.34043 0.0
C630 C 0.50728 0.72522 0.34309 0.0
C631 C 0.49107 0.72088 0.32346 0.0
O632 O 0.49598 0.63018 0.33833 0.0
O633 O 0.53167 0.61146 0.29153 0.0
O634 O 0.51502 0.59105 0.25368 0.0
O635 O 0.48486 0.61297 0.27526 0.0
O636 O 0.53338 0.62657 0.32607 0.0
O637 O 0.46805 0.62434 0.31063 0.0
O638 O 0.56196 0.6229 0.21697 0.0
O639 O 0.51848 0.64386 0.26143 0.0
O640 O 0.53059 0.67143 0.29182 0.0
O641 O 0.56431 0.64839 0.2795 0.0
O642 O 0.52128 0.62917 0.22637 0.0
O643 O 0.5812 0.64072 0.24656 0.0
C644 C 0.54246 0.60986 0.31204 0.0
C645 C 0.45418 0.63178 0.35135 0.0
C646 C 0.42761 0.62529 0.3875 0.0
C647 C 0.44681 0.61725 0.37188 0.0
C648 C 0.41643 0.64815 0.38249 0.0
C649 C 0.44268 0.65454 0.34712 0.0
C650 C 0.42402 0.66265 0.36261 0.0
C651 C 0.49187 0.59449 0.26115 0.0
C652 C 0.47333 0.62308 0.33403 0.0
C653 C 0.475 0.73919 0.3147 0.0
C654 C 0.45803 0.73363 0.29599 0.0
C655 C 0.50863 0.64359 0.24014 0.0
C656 C 0.60539 0.62821 0.21278 0.0
C657 C 0.62214 0.64543 0.20207 0.0
C658 C 0.64551 0.6375 0.19361 0.0
C659 C 0.65163 0.6124 0.19586 0.0
C660 C 0.61213 0.60326 0.21433 0.0
C661 C 0.63503 0.59546 0.206 0.0
C662 C 0.55445 0.66915 0.28781 0.0
C663 C 0.58131 0.63595 0.22316 0.0
H664 H 0.45555 0.59962 0.37534 0.0
H665 H 0.40188 0.65495 0.39418 0.0
H666 H 0.44798 0.66601 0.33168 0.0
H667 H 0.41527 0.68024 0.3591 0.0
H668 H 0.61726 0.66477 0.20073 0.0
H669 H 0.66932 0.60583 0.18952 0.0
H670 H 0.59968 0.58972 0.22204 0.0
H671 H 0.63996 0.57615 0.20747 0.0
Eu672 Eu 0.21128 0.51082 0.14324 0.0
C673 C 0.2572 0.43035 0.08196 0.0
C674 C 0.23392 0.39299 0.091 0.0
C675 C 0.25907 0.39514 0.05435 0.0
C676 C 0.24169 0.41711 0.09745 0.0
C677 C 0.26516 0.41976 0.05971 0.0
C678 C 0.24373 0.38169 0.07015 0.0
C679 C 0.28566 0.45818 0.04994 0.0
N680 N 0.26415 0.45365 0.08835 0.0
C681 C 0.27841 0.46753 0.07264 0.0
C682 C 0.27934 0.43406 0.04359 0.0
Eu683 Eu 0.25702 0.46394 0.1302 0.0
N684 N 0.23347 0.42807 0.11825 0.0
C685 C 0.21517 0.41673 0.13168 0.0
C686 C 0.21638 0.38092 0.10554 0.0
C687 C 0.20646 0.39316 0.12556 0.0
H688 H 0.28569 0.48535 0.07763 0.0
H689 H 0.19219 0.38437 0.13647 0.0
H690 H 0.23914 0.36267 0.06586 0.0
H691 H 0.29702 0.46929 0.03779 0.0
H692 H 0.20649 0.42554 0.14694 0.0
H693 H 0.27825 0.58478 0.16107 0.0
H694 H 0.20982 0.36251 0.10102 0.0
H695 H 0.16023 0.49769 0.17584 0.0
H696 H 0.2548 0.55486 0.13598 0.0
H697 H 0.14419 0.50385 0.21787 0.0
H698 H 0.266 0.3864 0.03793 0.0
H699 H 0.26897 0.58899 0.2053 0.0
H700 H 0.24219 0.57715 0.24112 0.0
H701 H 0.28562 0.42661 0.02628 0.0
H702 H 0.20576 0.55472 0.25676 0.0
N703 N 0.23339 0.5413 0.16572 0.0
C704 C 0.2508 0.55629 0.15521 0.0
C705 C 0.25879 0.57565 0.19436 0.0
C706 C 0.23984 0.5613 0.20469 0.0
C707 C 0.26404 0.57338 0.1694 0.0
C708 C 0.22726 0.5441 0.18966 0.0
H709 H 0.16881 0.52771 0.24809 0.0
N710 N 0.19411 0.51655 0.18287 0.0
C711 C 0.16199 0.51147 0.21277 0.0
C712 C 0.20697 0.53128 0.19855 0.0
C713 C 0.17106 0.50807 0.18903 0.0
C714 C 0.17599 0.52485 0.22979 0.0
C715 C 0.19843 0.53558 0.22257 0.0
O716 O 0.17323 0.52031 0.13298 0.0
O717 O 0.22176 0.48063 0.11716 0.0
O718 O 0.26855 0.50099 0.11249 0.0
O719 O 0.2311 0.52082 0.10811 0.0
O720 O 0.18583 0.48009 0.12992 0.0
O721 O 0.20235 0.54672 0.12692 0.0
O722 O 0.29688 0.46179 0.12362 0.0
O723 O 0.25165 0.50108 0.14767 0.0
O724 O 0.20774 0.48134 0.17296 0.0
O725 O 0.2365 0.45063 0.16395 0.0
O726 O 0.26808 0.4744 0.16879 0.0
O727 O 0.2789 0.43443 0.14655 0.0
C728 C 0.20109 0.46988 0.11495 0.0
C729 C 0.16292 0.56266 0.13608 0.0
C730 C 0.1282 0.59127 0.13172 0.0
C731 C 0.14249 0.57158 0.12257 0.0
C732 C 0.13434 0.60132 0.15476 0.0
C733 C 0.16861 0.57325 0.15889 0.0
C734 C 0.15432 0.59231 0.16821 0.0
C735 C 0.25461 0.51855 0.10257 0.0
C736 C 0.17864 0.54278 0.12624 0.0
C737 C 0.21183 0.55146 0.23812 0.0
C738 C 0.23254 0.56428 0.2292 0.0
C739 C 0.26297 0.49758 0.16789 0.0
C740 C 0.31424 0.42101 0.1253 0.0
C741 C 0.3213 0.40076 0.14018 0.0
C742 C 0.33614 0.38185 0.13063 0.0
C743 C 0.34359 0.38314 0.10601 0.0
C744 C 0.32207 0.4219 0.10075 0.0
C745 C 0.33647 0.40297 0.09117 0.0
C746 C 0.21874 0.46009 0.17755 0.0
C747 C 0.29936 0.44117 0.13595 0.0
H748 H 0.13812 0.56366 0.10481 0.0
H749 H 0.12356 0.61615 0.16248 0.0
H750 H 0.18427 0.56696 0.16944 0.0
H751 H 0.15885 0.60028 0.18588 0.0
H752 H 0.31569 0.39996 0.15925 0.0
H753 H 0.35507 0.36882 0.09833 0.0
H754 H 0.3173 0.43727 0.08897 0.0
H755 H 0.34237 0.40383 0.07223 0.0
Eu756 Eu 0.76517 0.07109 0.89548 0.0
C757 C 0.69865 0.01613 0.82176 0.0
C758 C 0.66249 0.04223 0.81923 0.0
C759 C 0.67151 0.01411 0.78604 0.0
C760 C 0.68339 0.03365 0.83232 0.0
C761 C 0.69283 1.0064 0.79835 0.0
C762 C 0.65662 0.03228 0.79621 0.0
C763 C 0.72785 0.97956 0.80184 0.0
N764 N 0.7184 1.00768 0.83466 0.0
C765 C 0.73226 0.9888 0.82534 0.0
C766 C 0.70804 0.98842 0.78824 0.0
Eu767 Eu 0.72208 0.02172 0.87595 0.0
N768 N 0.68866 0.04213 0.85528 0.0
C769 C 0.67393 0.05983 0.86556 0.0
C770 C 0.64761 0.06018 0.82982 0.0
C771 C 0.65346 0.0691 0.85301 0.0
H772 H 0.7459 0.97953 0.83646 0.0
H773 H 0.64222 0.08324 0.86128 0.0
H774 H 0.64034 0.03824 0.78627 0.0
H775 H 0.73909 0.96481 0.7947 0.0
H776 H 0.67795 0.06804 0.88301 0.0
H777 H 0.83747 0.01905 0.9421 0.0
H778 H 0.63157 0.06727 0.82025 0.0
H779 H 0.73528 0.12158 0.91459 0.0
H780 H 0.81164 0.03238 0.90713 0.0
H781 H 0.72986 0.14563 0.9527 0.0
H782 H 0.66619 1.00578 0.76877 0.0
H783 H 0.83195 0.03818 0.9829 0.0
H784 H 0.81094 0.07014 1.00875 0.0
H785 H 0.70417 0.98069 0.77029 0.0
H786 H 0.78178 0.10468 0.0116 0.0
N787 N 0.79111 0.058 0.92802 0.0
C788 C 0.80905 0.04079 0.92482 0.0
C789 C 0.82048 0.04398 0.96762 0.0
C790 C 0.80299 0.06266 0.97044 0.0
C791 C 0.82371 0.0332 0.94461 0.0
C792 C 0.78848 0.06942 0.94998 0.0
H793 H 0.7516 0.13309 0.99075 0.0
N794 N 0.75915 0.09531 0.93122 0.0
C795 C 0.7417 0.12962 0.95267 0.0
C796 C 0.77219 0.08889 0.9516 0.0
C797 C 0.74481 0.116 0.93114 0.0
C798 C 0.754 0.12247 0.97412 0.0
C799 C 0.76977 0.1021 0.97368 0.0
O800 O 0.77381 0.10721 0.87893 0.0
O801 O 0.73934 0.05786 0.86585 0.0
O802 O 0.76 0.01423 0.85754 0.0
O803 O 0.78628 0.04611 0.87047 0.0
O804 O 0.73578 0.09417 0.87644 0.0
O805 O 0.80319 0.08188 0.88685 0.0
O806 O 0.72087 0.98119 0.87721 0.0
O807 O 0.75679 0.03025 0.89717 0.0
O808 O 0.73582 0.06705 0.9244 0.0
O809 O 0.70377 0.04492 0.90566 0.0
O810 O 0.73074 1.00944 0.91474 0.0
O811 O 0.68917 1.00228 0.88905 0.0
C812 C 0.72818 0.07766 0.86114 0.0
C813 C 0.81239 0.12465 0.89 0.0
C814 C 0.83469 0.16392 0.88521 0.0
C815 C 0.82138 0.14396 0.87486 0.0
C816 C 0.83894 0.16432 0.91065 0.0
C817 C 0.81729 0.12533 0.91531 0.0
C818 C 0.83041 0.14507 0.92554 0.0
C819 C 0.78177 0.02603 0.85745 0.0
C820 C 0.79759 0.10411 0.87956 0.0
C821 C 0.7835 0.09487 0.9944 0.0
C822 C 0.80008 0.07518 0.99278 0.0
C823 C 0.75292 0.01772 0.91647 0.0
C824 C 0.68097 0.96138 0.87542 0.0
C825 C 0.66091 0.95304 0.88985 0.0
C826 C 0.64489 0.93421 0.88126 0.0
C827 C 0.64892 0.92432 0.85778 0.0
C828 C 0.68464 0.95084 0.85225 0.0
C829 C 0.6686 0.93262 0.84345 0.0
C830 C 0.71291 0.05876 0.9236 0.0
C831 C 0.69819 0.98032 0.88537 0.0
H832 H 0.81782 0.14362 0.85527 0.0
H833 H 0.84911 0.1795 0.91895 0.0
H834 H 0.81103 0.11059 0.9272 0.0
H835 H 0.83398 0.14543 0.94511 0.0
H836 H 0.65821 0.96073 0.90798 0.0
H837 H 0.63677 0.91014 0.85043 0.0
H838 H 0.70001 0.95634 0.84101 0.0
H839 H 0.67158 0.92472 0.82548 0.0
Eu840 Eu 0.76417 0.96241 0.40427 0.0
C841 C 0.82866 1.00198 0.31941 0.0
C842 C 0.86031 0.97075 0.318 0.0
C843 C 0.84805 0.9919 0.28053 0.0
C844 C 0.84287 0.98457 0.33126 0.0
C845 C 0.83152 1.00633 0.294 0.0
C846 C 0.86243 0.97414 0.29252 0.0
C847 C 0.80366 0.0407 0.29764 0.0
N848 N 0.81315 0.0158 0.33301 0.0
C849 C 0.8017 0.03581 0.32278 0.0
C850 C 0.81834 0.02563 0.28308 0.0
Eu851 Eu 0.80955 1.00616 0.37545 0.0
N852 N 0.84019 0.98166 0.35588 0.0
C853 C 0.85551 0.9661 0.36852 0.0
C854 C 0.8754 0.95426 0.33079 0.0
C855 C 0.87318 0.95216 0.35621 0.0
H856 H 0.79066 0.04778 0.33409 0.0
H857 H 0.88495 0.93963 0.36634 0.0
H858 H 0.87548 0.96345 0.282 0.0
H859 H 0.79399 0.05618 0.28956 0.0
H860 H 0.85412 0.96382 0.38807 0.0
H861 H 0.69177 0.0203 0.4425 0.0
H862 H 0.889 0.94331 0.32129 0.0
H863 H 0.78661 0.91025 0.42879 0.0
H864 H 0.71646 1.00126 0.40978 0.0
H865 H 0.79062 0.89029 0.46958 0.0
H866 H 0.85029 0.99476 0.26096 0.0
H867 H 0.69848 1.00812 0.48585 0.0
H868 H 0.7191 0.97957 0.51608 0.0
H869 H 0.82002 0.02955 0.26363 0.0
H870 H 0.74585 0.94368 0.52344 0.0
N871 N 0.73829 0.98002 0.43442 0.0
C872 C 0.7199 0.99613 0.42864 0.0
C873 C 0.70962 0.99998 0.47157 0.0
C874 C 0.72683 0.98161 0.47709 0.0
C875 C 0.70573 1.00684 0.44713 0.0
C876 C 0.74087 0.97168 0.45779 0.0
H877 H 0.7723 0.90995 0.50612 0.0
N878 N 0.76717 0.94125 0.44242 0.0
C879 C 0.78087 0.90759 0.46772 0.0
C880 C 0.75572 0.95149 0.46193 0.0
C881 C 0.77852 0.91886 0.44468 0.0
C882 C 0.77059 0.9188 0.48831 0.0
C883 C 0.75727 0.9407 0.48548 0.0
O884 O 0.75379 0.92525 0.39171 0.0
O885 O 0.79016 0.97007 0.37358 0.0
O886 O 0.77422 1.00617 0.35172 0.0
O887 O 0.74472 0.9874 0.37732 0.0
O888 O 0.79038 0.93459 0.38706 0.0
O889 O 0.72624 0.95369 0.39323 0.0
O890 O 0.82115 0.04502 0.37395 0.0
O891 O 0.78109 1.00112 0.40503 0.0
O892 O 0.79638 0.96329 0.43019 0.0
O893 O 0.82602 0.98757 0.40985 0.0
O894 O 0.78243 0.035 0.38619 0.0
O895 O 0.84239 0.01911 0.39532 0.0
C896 C 0.79927 0.94904 0.37039 0.0
C897 C 0.71265 0.91224 0.39851 0.0
C898 C 0.68532 0.87649 0.39211 0.0
C899 C 0.70331 0.89326 0.38325 0.0
C900 C 0.67721 0.87872 0.41649 0.0
C901 C 0.70445 0.91386 0.42284 0.0
C902 C 0.68686 0.89715 0.43174 0.0
C903 C 0.75112 0.9996 0.35721 0.0
C904 C 0.73057 0.93046 0.38882 0.0
C905 C 0.74465 0.95151 0.50513 0.0
C906 C 0.72947 0.97197 0.50095 0.0
C907 C 0.77148 0.02257 0.40326 0.0
C908 C 0.86437 0.05193 0.37662 0.0
C909 C 0.88205 0.06325 0.39214 0.0
C910 C 0.90475 0.07187 0.38255 0.0
C911 C 0.9092 0.0694 0.35725 0.0
C912 C 0.86939 0.04974 0.35148 0.0
C913 C 0.89162 0.05849 0.34189 0.0
C914 C 0.81867 0.97296 0.42813 0.0
C915 C 0.84121 0.0416 0.38678 0.0
H916 H 0.70957 0.8919 0.36443 0.0
H917 H 0.66349 0.86602 0.42379 0.0
H918 H 0.71152 0.92818 0.43488 0.0
H919 H 0.68055 0.89856 0.45051 0.0
H920 H 0.87839 0.06481 0.41162 0.0
H921 H 0.92629 0.07611 0.34928 0.0
H922 H 0.85619 0.04121 0.3392 0.0
H923 H 0.89529 0.05672 0.32246 0.0
Eu924 Eu 0.30498 0.49914 0.64723 0.0
C925 C 0.25767 0.56716 0.56836 0.0
C926 C 0.28774 0.60019 0.56417 0.0
C927 C 0.2613 0.58953 0.52966 0.0
C928 C 0.27665 0.58116 0.57821 0.0
C929 C 0.24941 0.57154 0.54412 0.0
C930 C 0.28035 0.60394 0.53972 0.0
C931 C 0.21621 0.5424 0.55129 0.0
N932 N 0.24601 0.55062 0.58312 0.0
C933 C 0.22479 0.53912 0.57531 0.0
C934 C 0.22878 0.55845 0.5355 0.0
Eu935 Eu 0.26139 0.54565 0.62379 0.0
N936 N 0.2835 0.57695 0.60187 0.0
C937 C 0.30072 0.59197 0.61283 0.0
C938 C 0.30541 0.61539 0.57534 0.0
C939 C 0.312 0.61121 0.59973 0.0
H940 H 0.2147 0.527 0.58762 0.0
H941 H 0.3256 0.62296 0.60858 0.0
H942 H 0.2889 0.61828 0.52861 0.0
H943 H 0.19978 0.53274 0.54508 0.0
H944 H 0.30613 0.58933 0.63166 0.0
H945 H 0.24986 0.42223 0.68324 0.0
H946 H 0.31359 0.63077 0.56545 0.0
H947 H 0.3556 0.52577 0.67158 0.0
H948 H 0.26527 0.45124 0.65179 0.0
H949 H 0.37862 0.52605 0.71079 0.0
H950 H 0.25536 0.59301 0.51095 0.0
H951 H 0.26713 0.42343 0.72533 0.0
H952 H 0.29852 0.44104 0.75462 0.0
H953 H 0.22191 0.56124 0.51699 0.0
H954 H 0.33392 0.46888 0.76196 0.0
N955 N 0.28972 0.47002 0.67612 0.0
C956 C 0.27256 0.45242 0.67018 0.0
C957 C 0.2737 0.4365 0.71166 0.0
C958 C 0.29259 0.4534 0.71716 0.0
C959 C 0.26393 0.43575 0.68793 0.0
C960 C 0.30043 0.47003 0.6987 0.0
H961 H 0.36417 0.50028 0.7456 0.0
N962 N 0.32811 0.5005 0.68423 0.0
C963 C 0.36223 0.51464 0.70882 0.0
C964 C 0.32043 0.48554 0.7028 0.0
C965 C 0.34916 0.51442 0.68663 0.0
C966 C 0.35399 0.5001 0.72844 0.0
C967 C 0.33302 0.48509 0.72551 0.0
O968 O 0.34226 0.49006 0.63476 0.0
O969 O 0.29718 0.52679 0.61716 0.0
O970 O 0.25791 0.51152 0.5989 0.0
O971 O 0.2786 0.48044 0.62067 0.0
O972 O 0.33197 0.52785 0.63218 0.0
O973 O 0.31325 0.46252 0.63264 0.0
O974 O 0.22381 0.56022 0.62571 0.0
O975 O 0.26695 0.51562 0.65178 0.0
O976 O 0.30045 0.52692 0.67768 0.0
O977 O 0.28521 0.56063 0.65588 0.0
O978 O 0.23237 0.51809 0.63552 0.0
O979 O 0.25238 0.5765 0.64802 0.0
C980 C 0.31822 0.53677 0.61504 0.0
C981 C 0.35431 0.44819 0.63805 0.0
C982 C 0.39091 0.42273 0.63101 0.0
C983 C 0.37471 0.44165 0.62339 0.0
C984 C 0.38664 0.41089 0.65365 0.0
C985 C 0.35068 0.43616 0.66063 0.0
C986 C 0.3668 0.41769 0.66837 0.0
C987 C 0.26431 0.4881 0.6025 0.0
C988 C 0.33673 0.4672 0.62954 0.0
C989 C 0.32461 0.46935 0.74432 0.0
C990 C 0.30442 0.45354 0.74016 0.0
C991 C 0.2454 0.50592 0.65121 0.0
C992 C 0.22179 0.6034 0.633 0.0
C993 C 0.21229 0.62009 0.65039 0.0
C994 C 0.20642 0.64454 0.64337 0.0
C995 C 0.21005 0.65194 0.61887 0.0
C996 C 0.22473 0.61125 0.6086 0.0
C997 C 0.21901 0.63535 0.60163 0.0
C998 C 0.29541 0.5507 0.67584 0.0
C999 C 0.22968 0.57831 0.6404 0.0
H1000 H 0.37763 0.45083 0.60589 0.0
H1001 H 0.39883 0.39644 0.66007 0.0
H1002 H 0.33527 0.44089 0.67221 0.0
H1003 H 0.36381 0.40849 0.6858 0.0
H1004 H 0.20984 0.61422 0.66928 0.0
H1005 H 0.20548 0.6705 0.61293 0.0
H1006 H 0.23145 0.59879 0.59487 0.0
H1007 H 0.22148 0.64116 0.58275 0.0
H1008 H 0.19789 0.27946 0.5012 0.0
H1009 H 0.22137 0.31529 0.51645 0.0
H1010 H 0.16673 0.32626 0.57259 0.0
H1011 H 0.1421 0.29232 0.5557 0.0
H1012 H 0.17071 0.36598 0.54585 0.0
H1013 H 0.2315 0.31087 0.58421 0.0
H1014 H 0.26235 0.27751 0.58287 0.0
H1015 H 0.3028 0.31705 0.52749 0.0
H1016 H 0.27247 0.35079 0.52868 0.0
H1017 H 0.21705 0.47212 0.60617 0.0
H1018 H 0.20082 0.43228 0.59269 0.0
H1019 H 0.26746 0.42025 0.55112 0.0
H1020 H 0.28499 0.45845 0.5681 0.0
H1021 H 0.25847 0.38047 0.56742 0.0
H1022 H 0.20197 0.43557 0.52809 0.0
H1023 H 0.17155 0.46905 0.52415 0.0
H1024 H 0.12205 0.42972 0.57204 0.0
H1025 H 0.15244 0.39641 0.57692 0.0
C1026 C 0.19154 0.28886 0.51749 0.0
C1027 C 0.16849 0.2827 0.52768 0.0
C1028 C 0.20489 0.30951 0.52615 0.0
C1029 C 0.19565 0.32388 0.54554 0.0
C1030 C 0.17395 0.31594 0.55727 0.0
C1031 C 0.16015 0.29615 0.54798 0.0
C1032 C 0.20604 0.34893 0.55145 0.0
C1033 C 0.18986 0.36912 0.55095 0.0
C1034 C 0.23125 0.35341 0.55668 0.0
C1035 C 0.24965 0.33328 0.55644 0.0
C1036 C 0.24694 0.31242 0.57171 0.0
C1037 C 0.26432 0.29345 0.57098 0.0
C1038 C 0.28436 0.29507 0.55498 0.0
C1039 C 0.28724 0.3158 0.53985 0.0
C1040 C 0.27005 0.3349 0.54064 0.0
C1041 C 0.22808 0.46098 0.59399 0.0
C1042 C 0.25219 0.46836 0.58807 0.0
C1043 C 0.21865 0.43821 0.5859 0.0
C1044 C 0.2325 0.42293 0.57024 0.0
C1045 C 0.25621 0.43124 0.56323 0.0
C1046 C 0.26613 0.45338 0.57251 0.0
C1047 C 0.22299 0.39787 0.56239 0.0
C1048 C 0.23929 0.37761 0.56234 0.0
C1049 C 0.19791 0.39341 0.55587 0.0
C1050 C 0.17965 0.41358 0.55305 0.0
C1051 C 0.18471 0.43417 0.53797 0.0
C1052 C 0.16747 0.45315 0.53561 0.0
C1053 C 0.14494 0.45157 0.54794 0.0
C1054 C 0.13956 0.43099 0.56261 0.0
C1055 C 0.15681 0.41209 0.56523 0.0
H1056 H 0.13162 0.46627 0.54607 0.0
H1057 H 0.2977 0.2803 0.55438 0.0
H1058 H 0.78487 0.98954 0.82156 0.0
H1059 H 0.82262 0.97161 0.80475 0.0
H1060 H 0.86652 0.01882 0.8517 0.0
H1061 H 0.82968 0.03729 0.86745 0.0
H1062 H 0.88677 0.01911 0.81053 0.0
H1063 H 0.85569 0.95399 0.8631 0.0
H1064 H 0.82573 0.92302 0.87836 0.0
H1065 H 0.82421 0.88817 0.80769 0.0
H1066 H 0.85415 0.91895 0.79198 0.0
H1067 H 1.0013 0.94961 0.80431 0.0
H1068 H 0.96385 0.97008 0.81914 0.0
H1069 H 0.92163 0.93632 0.76081 0.0
H1070 H 0.95844 0.91654 0.74574 0.0
H1071 H 0.90105 0.92877 0.80754 0.0
H1072 H 0.93476 0.99455 0.75677 0.0
H1073 H 0.96686 0.02457 0.74422 0.0
H1074 H 0.96493 0.05789 0.81559 0.0
H1075 H 0.93311 0.02777 0.82872 0.0
C1076 C 0.80251 0.996 0.82833 0.0
C1077 C 0.80393 0.01474 0.84609 0.0
C1078 C 0.82417 0.98569 0.81876 0.0
C1079 C 0.84757 0.99365 0.82714 0.0
C1080 C 0.84885 0.01237 0.84475 0.0
C1081 C 0.82748 0.02287 0.85389 0.0
C1082 C 0.87097 0.98301 0.81773 0.0
C1083 C 0.8899 0.99933 0.81018 0.0
C1084 C 0.87518 0.95723 0.81696 0.0
C1085 C 0.85694 0.93893 0.8263 0.0
C1086 C 0.8488 0.93984 0.85076 0.0
C1087 C 0.83185 0.9223 0.8595 0.0
C1088 C 0.82296 0.90373 0.84396 0.0
C1089 C 0.83106 0.90261 0.81968 0.0
C1090 C 0.84806 0.92006 0.81086 0.0
C1091 C 0.98418 0.94696 0.79441 0.0
C1092 C 0.98295 0.93114 0.77402 0.0
C1093 C 0.96275 0.95852 0.80297 0.0
C1094 C 0.93991 0.95438 0.79122 0.0
C1095 C 0.93895 0.93947 0.77036 0.0
C1096 C 0.96017 0.92818 0.76176 0.0
C1097 C 0.91664 0.96488 0.80066 0.0
C1098 C 0.8978 0.94853 0.80808 0.0
C1099 C 0.91267 0.99061 0.80175 0.0
C1100 C 0.93173 1.00875 0.7938 0.0
C1101 C 0.94134 1.00813 0.76986 0.0
C1102 C 0.95946 0.02518 0.76263 0.0
C1103 C 0.96795 0.0431 0.77911 0.0
C1104 C 0.95835 0.04399 0.80286 0.0
C1105 C 0.94027 0.02693 0.8102 0.0
H1106 H 0.9819 0.05636 0.77346 0.0
H1107 H 0.8099 0.89012 0.85073 0.0
H1108 H 0.33025 0.74449 0.05941 0.0
H1109 H 0.30911 0.70714 0.0749 0.0
H1110 H 0.34273 0.6643 0.01755 0.0
H1111 H 0.36215 0.70068 1.00147 0.0
H1112 H 0.29879 0.6514 0.01907 0.0
H1113 H 0.36175 0.66557 0.08117 0.0
H1114 H 0.38322 0.68742 0.11483 0.0
H1115 H 0.31684 0.68643 0.15748 0.0
H1116 H 0.2948 0.66492 0.12397 0.0
H1117 H 0.30332 0.53361 0.1024 0.0
H1118 H 0.31912 0.57409 0.08909 0.0
H1119 H 0.24702 0.59279 0.06118 0.0
H1120 H 0.23122 0.55259 0.07418 0.0
H1121 H 0.30418 0.6201 0.10447 0.0
H1122 H 0.25327 0.63128 0.01236 0.0
H1123 H 0.23695 0.60548 0.97863 0.0
H1124 H 0.29124 0.55016 0.99439 0.0
H1125 H 0.30806 0.57578 0.02796 0.0
C1126 C 0.33293 0.72718 0.05005 0.0
C1127 C 0.34787 0.72602 0.029 0.0
C1128 C 0.32096 0.70573 0.05903 0.0
C1129 C 0.32423 0.68274 0.04738 0.0
C1130 C 0.33946 0.6817 0.02675 0.0
C1131 C 0.35077 0.70287 0.01758 0.0
C1132 C 0.3119 0.6594 0.0557 0.0
C1133 C 0.30017 0.64464 0.03781 0.0
C1134 C 0.31345 0.65036 0.08011 0.0
C1135 C 0.32648 0.66408 0.09986 0.0
C1136 C 0.35162 0.67035 0.09756 0.0
C1137 C 0.36393 0.68258 0.11664 0.0
C1138 C 0.35139 0.68841 0.13819 0.0
C1139 C 0.3265 0.682 0.14073 0.0
C1140 C 0.31408 0.66982 0.12169 0.0
C1141 C 0.29098 0.5461 0.09294 0.0
C1142 C 0.26597 0.53986 0.08949 0.0
C1143 C 0.29996 0.56936 0.08561 0.0
C1144 C 0.28419 0.58656 0.07431 0.0
C1145 C 0.25956 0.57985 0.06977 0.0
C1146 C 0.2506 0.55675 0.07715 0.0
C1147 C 0.29332 0.61164 0.06747 0.0
C1148 C 0.3035 0.62689 0.08574 0.0
C1149 C 0.29149 0.62075 0.04319 0.0
C1150 C 0.28172 0.60534 0.02283 0.0
C1151 C 0.26176 0.61365 1.00856 0.0
C1152 C 0.25242 0.59905 0.98948 0.0
C1153 C 0.26299 0.57616 0.98443 0.0
C1154 C 0.283 0.56785 0.99838 0.0
C1155 C 0.29242 0.58239 0.01745 0.0
H1156 H 0.25572 0.56487 0.96967 0.0
H1157 H 0.361 0.69782 0.15295 0.0
H1158 H 0.53224 0.06067 0.28085 0.0
H1159 H 0.56927 0.03792 0.29383 0.0
H1160 H 0.6151 0.09941 0.27114 0.0
H1161 H 0.57905 0.12183 0.25826 0.0
H1162 H 0.63568 0.05772 0.25734 0.0
H1163 H 0.5997 0.09091 0.3303 0.0
H1164 H 0.56546 0.09718 0.359 0.0
H1165 H 0.56337 0.01933 0.37498 0.0
H1166 H 0.59729 0.01252 0.34569 0.0
H1167 H 0.7466 0.04199 0.32915 0.0
H1168 H 0.70874 0.05708 0.30936 0.0
H1169 H 0.67041 0.99036 0.33115 0.0
H1170 H 0.70789 0.97524 0.35061 0.0
H1171 H 0.64505 0.03137 0.34418 0.0
H1172 H 0.68524 1.00021 0.27189 0.0
H1173 H 0.71966 0.99674 0.24266 0.0
H1174 H 0.71513 0.07438 0.22663 0.0
H1175 H 0.68091 0.07839 0.25606 0.0
C1176 C 0.55019 0.0693 0.27871 0.0
C1177 C 0.55243 0.09323 0.26872 0.0
C1178 C 0.57136 0.05627 0.28602 0.0
C1179 C 0.59502 0.067 0.28347 0.0
C1180 C 0.59716 0.09061 0.27313 0.0
C1181 C 0.57627 0.10352 0.26591 0.0
C1182 C 0.61775 0.0546 0.29249 0.0
C1183 C 0.63774 0.05199 0.27635 0.0
C1184 C 0.62048 0.04707 0.31725 0.0
C1185 C 0.6008 0.05116 0.33558 0.0
C1186 C 0.59186 0.0751 0.33983 0.0
C1187 C 0.57248 0.07875 0.35621 0.0
C1188 C 0.56217 0.05865 0.36882 0.0
C1189 C 0.57133 0.03487 0.36515 0.0
C1190 C 0.59061 0.0311 0.34862 0.0
C1191 C 0.7303 0.0303 0.32911 0.0
C1192 C 0.73025 1.00747 0.34148 0.0
C1193 C 0.70861 0.03899 0.31796 0.0
C1194 C 0.68667 0.02487 0.31891 0.0
C1195 C 0.68699 1.00166 0.33037 0.0
C1196 C 0.70851 0.99304 0.34143 0.0
C1197 C 0.663 0.03454 0.30903 0.0
C1198 C 0.64289 0.03675 0.32509 0.0
C1199 C 0.66031 0.04209 0.28429 0.0
C1200 C 0.68064 0.03963 0.26633 0.0
C1201 C 0.69169 0.01657 0.26225 0.0
C1202 C 0.71115 0.01451 0.24563 0.0
C1203 C 0.71961 0.03534 0.23284 0.0
C1204 C 0.70857 0.05827 0.23658 0.0
C1205 C 0.68912 0.06044 0.2532 0.0
H1206 H 0.73469 0.0337 0.21999 0.0
H1207 H 0.54709 0.06148 0.38145 0.0
H1208 H 0.70142 0.23536 0.46244 0.0
H1209 H 0.7186 0.19609 0.44768 0.0
H1210 H 0.70513 0.16282 0.51846 0.0
H1211 H 0.68821 0.2016 0.53317 0.0
H1212 H 0.75657 0.16225 0.46296 0.0
H1213 H 0.67877 0.10626 0.50913 0.0
H1214 H 0.63575 0.11113 0.52281 0.0
H1215 H 0.6247 0.16797 0.4687 0.0
H1216 H 0.6676 0.16337 0.45462 0.0
H1217 H 0.78248 0.03325 0.45116 0.0
H1218 H 0.76724 0.06987 0.473 0.0
H1219 H 0.71349 0.08172 0.41569 0.0
H1220 H 0.72931 0.04606 0.39355 0.0
H1221 H 0.69607 0.09278 0.46449 0.0
H1222 H 0.7639 0.10898 0.409 0.0
H1223 H 0.80604 0.10167 0.3939 0.0
H1224 H 0.83598 0.12409 0.46353 0.0
H1225 H 0.79392 0.13096 0.47924 0.0
C1226 C 0.70286 0.21991 0.47504 0.0
C1227 C 0.69335 0.22164 0.49896 0.0
C1228 C 0.71255 0.19739 0.46656 0.0
C1229 C 0.71279 0.17629 0.48184 0.0
C1230 C 0.70483 0.17862 0.50618 0.0
C1231 C 0.69519 0.20091 0.51458 0.0
C1232 C 0.71939 0.15135 0.47216 0.0
C1233 C 0.74334 0.14709 0.46337 0.0
C1234 C 0.70222 0.1314 0.47258 0.0
C1235 C 0.67645 0.13459 0.48098 0.0
C1236 C 0.66715 0.1198 0.50016 0.0
C1237 C 0.6428 0.12253 0.508 0.0
C1238 C 0.62753 0.13991 0.49669 0.0
C1239 C 0.63659 0.15463 0.47755 0.0
C1240 C 0.66095 0.15201 0.46966 0.0
C1241 C 0.7666 0.04295 0.44395 0.0
C1242 C 0.75657 0.03639 0.42103 0.0
C1243 C 0.75814 0.06409 0.45622 0.0
C1244 C 0.73933 0.07868 0.44586 0.0
C1245 C 0.72791 0.07077 0.42409 0.0
C1246 C 0.7368 0.0502 0.41158 0.0
C1247 C 0.73329 0.10358 0.45579 0.0
C1248 C 0.70938 0.10787 0.46443 0.0
C1249 C 0.75045 0.12351 0.45509 0.0
C1250 C 0.77575 0.12021 0.44539 0.0
C1251 C 0.77945 0.11218 0.42116 0.0
C1252 C 0.80333 0.10811 0.41248 0.0
C1253 C 0.82368 0.11235 0.42777 0.0
C1254 C 0.82019 0.12076 0.45172 0.0
C1255 C 0.79634 0.12473 0.46053 0.0
H1256 H 0.84215 0.10915 0.42103 0.0
H1257 H 0.60865 0.14181 0.50272 0.0
H1258 H 0.06036 0.40318 0.7541 0.0
H1259 H 0.09961 0.4166 0.73635 0.0
H1260 H 0.0741 0.49181 0.73472 0.0
H1261 H 0.03477 0.4784 0.75347 0.0
H1262 H 0.10235 0.4702 0.68867 0.0
H1263 H 0.10684 0.48618 0.77513 0.0
H1264 H 0.10265 0.47602 0.81906 0.0
H1265 H 0.15595 0.41825 0.81168 0.0
H1266 H 0.15981 0.4275 0.76747 0.0
H1267 H 0.23508 0.52153 0.69781 0.0
H1268 H 0.19802 0.50901 0.72089 0.0
H1269 H 0.18582 0.44896 0.67041 0.0
H1270 H 0.222 0.46186 0.6472 0.0
H1271 H 0.17544 0.4681 0.74398 0.0
H1272 H 0.12683 0.44874 0.65166 0.0
H1273 H 0.1327 0.45917 0.60796 0.0
H1274 H 0.16832 0.52741 0.62795 0.0
H1275 H 0.16212 0.51768 0.67179 0.0
C1276 C 0.06275 0.42247 0.74938 0.0
C1277 C 0.0441 0.43962 0.75461 0.0
C1278 C 0.08537 0.43017 0.73941 0.0
C1279 C 0.08993 0.45523 0.73419 0.0
C1280 C 0.07102 0.47236 0.7385 0.0
C1281 C 0.04851 0.46469 0.7491 0.0
C1282 C 0.11495 0.46337 0.72555 0.0
C1283 C 0.11828 0.46983 0.70079 0.0
C1284 C 0.13583 0.46316 0.74135 0.0
C1285 C 0.13336 0.45733 0.76788 0.0
C1286 C 0.11735 0.47103 0.78276 0.0
C1287 C 0.11506 0.46546 0.80773 0.0
C1288 C 0.12895 0.44644 0.81814 0.0
C1289 C 0.14511 0.4329 0.80357 0.0
C1290 C 0.14732 0.43827 0.77854 0.0
C1291 C 0.22523 0.50487 0.69245 0.0
C1292 C 0.23188 0.49241 0.67085 0.0
C1293 C 0.20379 0.4979 0.70549 0.0
C1294 C 0.18861 0.47837 0.69709 0.0
C1295 C 0.1968 0.46438 0.67709 0.0
C1296 C 0.21779 0.47161 0.66393 0.0
C1297 C 0.16299 0.47437 0.70693 0.0
C1298 C 0.15952 0.46862 0.73187 0.0
C1299 C 0.1419 0.47548 0.69135 0.0
C1300 C 0.14414 0.48237 0.66502 0.0
C1301 C 0.13565 0.4661 0.64673 0.0
C1302 C 0.1391 0.47187 0.62192 0.0
C1303 C 0.15097 0.49388 0.61516 0.0
C1304 C 0.15916 0.51034 0.6332 0.0
C1305 C 0.15563 0.50473 0.65803 0.0
H1306 H 0.15378 0.49819 0.59594 0.0
H1307 H 0.12727 0.4423 0.83752 0.0
H1308 H 0.7863 0.98969 0.89177 0.0
H1309 H 0.80614 0.9523 0.90674 0.0
H1310 H 0.77757 0.96569 0.97917 0.0
H1311 H 0.75763 1.00352 0.96409 0.0
H1312 H 0.82587 0.94499 0.97931 0.0
H1313 H 0.74584 0.9301 0.9432 0.0
H1314 H 0.71445 0.93252 0.91044 0.0
H1315 H 0.76192 0.89286 0.86178 0.0
H1316 H 0.79362 0.89016 0.89437 0.0
H1317 H 0.8258 0.82682 0.03152 0.0
H1318 H 0.8127 0.86637 0.01481 0.0
H1319 H 0.83324 0.84296 0.94217 0.0
H1320 H 0.8457 0.80265 0.95878 0.0
H1321 H 0.79185 0.86922 0.94015 0.0
H1322 H 0.87195 0.8837 0.9762 0.0
H1323 H 0.90387 0.88255 1.00866 0.0
H1324 H 0.85658 0.92263 0.05703 0.0
H1325 H 0.8245 0.9244 0.02481 0.0
C1326 C 0.7851 0.98539 0.91108 0.0
C1327 C 0.77078 0.9999 0.92686 0.0
C1328 C 0.79622 0.96371 0.91958 0.0
C1329 C 0.79305 0.95593 0.94399 0.0
C1330 C 0.78026 0.9713 0.96025 0.0
C1331 C 0.76899 0.99297 0.95168 0.0
C1332 C 0.80097 0.93077 0.95186 0.0
C1333 C 0.8183 0.92842 0.97089 0.0
C1334 C 0.79151 0.90911 0.94051 0.0
C1335 C 0.77228 0.9103 0.92107 0.0
C1336 C 0.74968 0.92207 0.92545 0.0
C1337 C 0.7318 0.92345 0.90693 0.0
C1338 C 0.73626 0.91303 0.88396 0.0
C1339 C 0.75854 0.90102 0.87954 0.0
C1340 C 0.77644 0.89951 0.89805 0.0
C1341 C 0.82733 0.82986 0.01191 0.0
C1342 C 0.83723 0.81157 0.99658 0.0
C1343 C 0.82002 0.85269 1.0024 0.0
C1344 C 0.82273 0.8581 0.97732 0.0
C1345 C 0.83128 0.83942 0.96166 0.0
C1346 C 0.83838 0.81632 0.97118 0.0
C1347 C 0.81671 0.88333 0.96778 0.0
C1348 C 0.79967 0.88573 0.94844 0.0
C1349 C 0.8265 0.90507 0.97879 0.0
C1350 C 0.84576 0.90402 0.99817 0.0
C1351 C 0.86832 0.89216 0.9938 0.0
C1352 C 0.88644 0.89141 0.01214 0.0
C1353 C 0.88217 0.90228 0.03493 0.0
C1354 C 0.85985 0.91416 0.03938 0.0
C1355 C 0.84174 0.91517 0.02106 0.0
H1356 H 0.89621 0.90158 0.0491 0.0
H1357 H 0.72242 0.91413 0.86963 0.0
H1358 H 0.45034 0.58177 0.28563 0.0
H1359 H 0.41229 0.5647 0.26884 0.0
H1360 H 0.44772 0.55486 0.19881 0.0
H1361 H 0.48593 0.57299 0.21552 0.0
H1362 H 0.40532 0.577 0.1926 0.0
H1363 H 0.42917 0.50464 0.23634 0.0
H1364 H 0.44375 0.48046 0.27194 0.0
H1365 H 0.37973 0.50152 0.31281 0.0
H1366 H 0.36491 0.52611 0.27756 0.0
H1367 H 0.30213 0.51303 0.14098 0.0
H1368 H 0.34093 0.52983 0.15569 0.0
H1369 H 0.31104 0.53375 0.22891 0.0
H1370 H 0.27224 0.51531 0.21399 0.0
H1371 H 0.35204 0.51381 0.23245 0.0
H1372 H 0.32915 0.58768 0.18632 0.0
H1373 H 0.31875 0.61425 0.15082 0.0
H1374 H 0.38326 0.58948 0.11295 0.0
H1375 H 0.39392 0.56264 0.14799 0.0
C1376 C 0.45028 0.57548 0.26677 0.0
C1377 C 0.47132 0.57864 0.25197 0.0
C1378 C 0.42842 0.56557 0.25719 0.0
C1379 C 0.42698 0.55821 0.23255 0.0
C1380 C 0.44831 0.5603 0.21792 0.0
C1381 C 0.47032 0.57035 0.22756 0.0
C1382 C 0.40268 0.55035 0.22184 0.0
C1383 C 0.3938 0.56284 0.20103 0.0
C1384 C 0.38731 0.53239 0.23319 0.0
C1385 C 0.39601 0.51737 0.25435 0.0
C1386 C 0.41827 0.50424 0.25297 0.0
C1387 C 0.42657 0.49044 0.27308 0.0
C1388 C 0.4127 0.48949 0.29464 0.0
C1389 C 0.39045 0.50228 0.2961 0.0
C1390 C 0.38207 0.51612 0.27605 0.0
C1391 C 0.3033 0.51857 0.15993 0.0
C1392 C 0.28362 0.51381 0.17606 0.0
C1393 C 0.32577 0.52818 0.16848 0.0
C1394 C 0.32917 0.53371 0.19346 0.0
C1395 C 0.3091 0.52981 0.20952 0.0
C1396 C 0.28675 0.51956 0.20098 0.0
C1397 C 0.35424 0.54076 0.2032 0.0
C1398 C 0.36338 0.52802 0.2239 0.0
C1399 C 0.36997 0.55835 0.19151 0.0
C1400 C 0.36228 0.57306 0.16978 0.0
C1401 C 0.34092 0.58764 0.1703 0.0
C1402 C 0.33503 0.60282 0.15027 0.0
C1403 C 0.35041 0.60357 0.12972 0.0
C1404 C 0.37143 0.5889 0.12892 0.0
C1405 C 0.37739 0.57372 0.14882 0.0
H1406 H 0.34626 0.61559 0.11442 0.0
H1407 H 0.41917 0.47881 0.3102 0.0
H1408 H 0.548 0.1381 0.30584 0.0
H1409 H 0.56867 0.15763 0.34071 0.0
H1410 H 0.52532 0.22326 0.32953 0.0
H1411 H 0.50513 0.20381 0.29395 0.0
H1412 H 0.56889 0.23596 0.3493 0.0
H1413 H 0.5067 0.17691 0.36606 0.0
H1414 H 0.48411 0.13723 0.36556 0.0
H1415 H 0.54377 0.10245 0.4042 0.0
H1416 H 0.5674 0.14152 0.40364 0.0
H1417 H 0.58245 0.27085 0.47596 0.0
H1418 H 0.55872 0.25319 0.44148 0.0
H1419 H 0.61558 0.19919 0.43041 0.0
H1420 H 0.63973 0.21754 0.46384 0.0
H1421 H 0.56078 0.18302 0.42359 0.0
H1422 H 0.62394 0.2443 0.40012 0.0
H1423 H 0.64241 0.28591 0.40433 0.0
H1424 H 0.57378 0.31869 0.38253 0.0
H1425 H 0.55473 0.27723 0.37879 0.0
C1426 C 0.54391 0.15722 0.30993 0.0
C1427 C 0.52539 0.16965 0.29673 0.0
C1428 C 0.55541 0.16825 0.33022 0.0
C1429 C 0.54807 0.1917 0.33835 0.0
C1430 C 0.53124 0.20511 0.32381 0.0
C1431 C 0.5199 0.1941 0.30325 0.0
C1432 C 0.55591 0.20082 0.3632 0.0
C1433 C 0.56685 0.22439 0.36548 0.0
C1434 C 0.55299 0.18602 0.38469 0.0
C1435 C 0.53905 0.16219 0.38446 0.0
C1436 C 0.51526 0.16072 0.37402 0.0
C1437 C 0.50226 0.13828 0.37388 0.0
C1438 C 0.51257 0.11727 0.38468 0.0
C1439 C 0.53588 0.11867 0.39565 0.0
C1440 C 0.54917 0.14093 0.3954 0.0
C1441 C 0.58921 0.25442 0.46697 0.0
C1442 C 0.61258 0.24508 0.47304 0.0
C1443 C 0.57582 0.24455 0.44706 0.0
C1444 C 0.58546 0.22494 0.43328 0.0
C1445 C 0.60772 0.21421 0.44082 0.0
C1446 C 0.62139 0.22453 0.46012 0.0
C1447 C 0.5743 0.21754 0.4093 0.0
C1448 C 0.56269 0.19441 0.40726 0.0
C1449 C 0.57608 0.23287 0.38821 0.0
C1450 C 0.58783 0.25769 0.38946 0.0
C1451 C 0.61274 0.26039 0.39642 0.0
C1452 C 0.62332 0.28394 0.39871 0.0
C1453 C 0.60926 0.30494 0.39377 0.0
C1454 C 0.58463 0.30241 0.3864 0.0
C1455 C 0.57393 0.27889 0.3842 0.0
H1456 H 0.61746 0.32316 0.39561 0.0
H1457 H 0.50244 0.09993 0.38467 0.0
H1458 H 0.06802 0.28595 0.5352 0.0
H1459 H 0.05063 0.30477 0.5721 0.0
H1460 H 0.08991 0.25225 0.61714 0.0
H1461 H 0.10615 0.23294 0.58093 0.0
H1462 H 0.04723 0.25766 0.63509 0.0
H1463 H 0.11005 0.31453 0.60291 0.0
H1464 H 0.12767 0.34364 0.5725 0.0
H1465 H 0.06343 0.38904 0.5774 0.0
H1466 H 0.04508 0.36004 0.60738 0.0
H1467 H 0.06014 0.36022 0.73653 0.0
H1468 H 0.07532 0.3386 0.70001 0.0
H1469 H 1.00173 0.31113 0.68546 0.0
H1470 H 0.98675 0.33198 0.72185 0.0
H1471 H 0.06119 0.34667 0.65226 0.0
H1472 H 1.00321 0.257 0.65738 0.0
H1473 H 0.98524 0.22941 0.68889 0.0
H1474 H 0.04275 0.25003 0.73945 0.0
H1475 H 0.06122 0.27751 0.70817 0.0
C1476 C 0.07258 0.27816 0.55287 0.0
C1477 C 0.08881 0.25809 0.55487 0.0
C1478 C 0.06282 0.28911 0.57404 0.0
C1479 C 0.06936 0.28026 0.59751 0.0
C1480 C 0.08462 0.25957 0.59935 0.0
C1481 C 0.09403 0.24857 0.57842 0.0
C1482 C 0.06095 0.29226 0.62051 0.0
C1483 C 0.05026 0.27716 0.63873 0.0
C1484 C 0.06495 0.31771 0.62545 0.0
C1485 C 0.07605 0.33493 0.60721 0.0
C1486 C 0.09956 0.33059 0.59735 0.0
C1487 C 0.10971 0.34708 0.58021 0.0
C1488 C 0.09671 0.36811 0.57303 0.0
C1489 C 0.07348 0.37272 0.58294 0.0
C1490 C 0.06317 0.35625 0.59997 0.0
C1491 C 0.04743 0.34895 0.72593 0.0
C1492 C 0.02228 0.34779 0.73201 0.0
C1493 C 0.05603 0.33689 0.70492 0.0
C1494 C 0.03964 0.3233 0.68998 0.0
C1495 C 0.01478 0.32128 0.69678 0.0
C1496 C 1.00625 0.33323 0.71763 0.0
C1497 C 0.048 0.31192 0.66674 0.0
C1498 C 0.05836 0.32716 0.64851 0.0
C1499 C 0.04394 0.28657 0.66178 0.0
C1500 C 0.03349 0.26943 0.68047 0.0
C1501 C 0.01212 0.2555 0.67517 0.0
C1502 C 1.00182 0.23993 0.693 0.0
C1503 C 0.01281 0.23801 0.71617 0.0
C1504 C 0.03421 0.25158 0.72152 0.0
C1505 C 0.04459 0.26718 0.70375 0.0
H1506 H 1.00477 0.22599 0.72997 0.0
H1507 H 0.10465 0.38084 0.5598 0.0
H1508 H 0.02952 0.82067 0.80539 0.0
H1509 H 1.00766 0.8021 0.83979 0.0
H1510 H 0.95421 0.86092 0.8368 0.0
H1511 H 0.97849 0.88114 0.80479 0.0
H1512 H 0.96255 0.85765 0.87883 0.0
H1513 H 0.94387 0.79055 0.8253 0.0
H1514 H 0.95079 0.75728 0.79525 0.0
H1515 H 1.00078 0.72179 0.84518 0.0
H1516 H 0.9942 0.75473 0.87557 0.0
H1517 H 0.88821 0.79495 0.97014 0.0
H1518 H 0.90504 0.81335 0.93284 0.0
H1519 H 0.97441 0.77733 0.94663 0.0
H1520 H 0.9574 0.75884 0.98432 0.0
H1521 H 0.95486 0.76858 0.89921 0.0
H1522 H 0.97675 0.84691 0.94644 0.0
H1523 H 0.96528 0.88125 0.9739 0.0
H1524 H 0.89897 0.89279 0.93214 0.0
H1525 H 0.91058 0.85921 0.90392 0.0
C1526 C 0.01243 0.82897 0.81134 0.0
C1527 C 1.00511 0.85179 0.80153 0.0
C1528 C 0.99977 0.8183 0.83122 0.0
C1529 C 0.97872 0.82965 0.84121 0.0
C1530 C 0.97038 0.85159 0.82997 0.0
C1531 C 0.98389 0.86293 0.81106 0.0
C1532 C 0.96736 0.82056 0.86492 0.0
C1533 C 0.96047 0.83807 0.88272 0.0
C1534 C 0.96465 0.79506 0.87095 0.0
C1535 C 0.96867 0.77523 0.85266 0.0
C1536 C 0.95644 0.77573 0.82983 0.0
C1537 C 0.96029 0.75694 0.81274 0.0
C1538 C 0.97631 0.73757 0.81824 0.0
C1539 C 0.98841 0.73684 0.84092 0.0
C1540 C 0.98456 0.75551 0.85813 0.0
C1541 C 0.90726 0.79155 0.96577 0.0
C1542 C 0.92162 0.77592 0.9807 0.0
C1543 C 0.91693 0.80213 0.94429 0.0
C1544 C 0.94114 0.79698 0.93687 0.0
C1545 C 0.95574 0.78176 0.95198 0.0
C1546 C 0.94608 0.77136 0.97364 0.0
C1547 C 0.95039 0.80567 0.91243 0.0
C1548 C 0.95685 0.78806 0.89472 0.0
C1549 C 0.95167 0.83096 0.90599 0.0
C1550 C 0.94442 0.85054 0.92329 0.0
C1551 C 0.95974 0.8568 0.94319 0.0
C1552 C 0.95331 0.87623 0.95874 0.0
C1553 C 0.93136 0.88909 0.95483 0.0
C1554 C 0.91595 0.8828 0.93516 0.0
C1555 C 0.92255 0.86375 0.91927 0.0
H1556 H 0.92631 0.90394 0.96704 0.0
H1557 H 0.97927 0.72307 0.80495 0.0
H1558 H 0.51862 0.69173 0.22951 0.0
H1559 H 0.50157 0.71386 0.19425 0.0
H1560 H 0.44519 0.65747 0.18652 0.0
H1561 H 0.46424 0.63415 0.21984 0.0
H1562 H 0.46045 0.6628 0.14592 0.0
H1563 H 0.43651 0.72461 0.20218 0.0
H1564 H 0.44097 0.75428 0.23618 0.0
H1565 H 0.4954 0.79503 0.19526 0.0
H1566 H 0.4916 0.76539 0.16114 0.0
H1567 H 0.39673 0.73452 0.05215 0.0
H1568 H 0.40927 0.71212 0.08904 0.0
H1569 H 0.48094 0.74695 0.08576 0.0
H1570 H 0.46867 0.76879 0.0481 0.0
H1571 H 0.45546 0.75314 0.13173 0.0
H1572 H 0.47917 0.68463 0.07756 0.0
H1573 H 0.47218 0.65241 0.04624 0.0
H1574 H 0.40931 0.62526 0.08616 0.0
H1575 H 0.41661 0.65659 0.11822 0.0
C1576 C 0.50185 0.68476 0.22103 0.0
C1577 C 0.49218 0.66167 0.22816 0.0
C1578 C 0.49207 0.69739 0.2006 0.0
C1579 C 0.47177 0.68765 0.18733 0.0
C1580 C 0.46092 0.66553 0.19594 0.0
C1581 C 0.47143 0.65241 0.21553 0.0
C1582 C 0.46367 0.69865 0.16309 0.0
C1583 C 0.45887 0.6826 0.14325 0.0
C1584 C 0.46184 0.72451 0.15882 0.0
C1585 C 0.4639 0.74264 0.17914 0.0
C1586 C 0.44953 0.73982 0.20046 0.0
C1587 C 0.45195 0.75663 0.21977 0.0
C1588 C 0.4685 0.77648 0.2179 0.0
C1589 C 0.48261 0.77963 0.19669 0.0
C1590 C 0.48031 0.76284 0.17734 0.0
C1591 C 0.41553 0.73653 0.05845 0.0
C1592 C 0.43195 0.75289 0.04648 0.0
C1593 C 0.42263 0.72388 0.07989 0.0
C1594 C 0.44607 0.72781 0.09039 0.0
C1595 C 0.46277 0.74351 0.07809 0.0
C1596 C 0.45583 0.75578 0.05637 0.0
C1597 C 0.4524 0.71722 0.1151 0.0
C1598 C 0.45683 0.73338 0.13486 0.0
C1599 C 0.45295 0.69148 0.11963 0.0
C1600 C 0.44816 0.67321 0.1 0.0
C1601 C 0.46378 0.67188 0.07954 0.0
C1602 C 0.45992 0.65362 0.06181 0.0
C1603 C 0.44019 0.63696 0.06407 0.0
C1604 C 0.42451 0.63825 0.08433 0.0
C1605 C 0.42862 0.65611 0.10238 0.0
H1606 H 0.43712 0.623 0.0502 0.0
H1607 H 0.47035 0.78946 0.23288 0.0
H1608 H 0.16916 0.34223 0.38192 0.0
H1609 H 0.18997 0.36233 0.34738 0.0
H1610 H 0.12479 0.35193 0.30267 0.0
H1611 H 0.10497 0.32978 0.33605 0.0
H1612 H 0.15986 0.34721 0.27462 0.0
H1613 H 0.14216 0.40912 0.33513 0.0
H1614 H 0.14355 0.42901 0.3758 0.0
H1615 H 0.22255 0.43422 0.37168 0.0
H1616 H 0.22164 0.41408 0.3311 0.0
H1617 H 0.17228 0.45482 0.19626 0.0
H1618 H 0.15962 0.43021 0.23211 0.0
H1619 H 0.23519 0.40909 0.24447 0.0
H1620 H 0.2479 0.43319 0.20828 0.0
H1621 H 0.19901 0.42924 0.28857 0.0
H1622 H 0.21299 0.36759 0.22437 0.0
H1623 H 0.2069 0.35298 0.18192 0.0
H1624 H 0.12839 0.35221 0.1924 0.0
H1625 H 0.13403 0.36737 0.23476 0.0
C1626 C 0.15943 0.34368 0.36458 0.0
C1627 C 0.13506 0.33474 0.36214 0.0
C1628 C 0.17125 0.35562 0.34487 0.0
C1629 C 0.15877 0.35948 0.32246 0.0
C1630 C 0.1349 0.34954 0.31971 0.0
C1631 C 0.12336 0.33713 0.3391 0.0
C1632 C 0.16998 0.3743 0.302 0.0
C1633 C 0.16831 0.36515 0.27787 0.0
C1634 C 0.18125 0.3978 0.30584 0.0
C1635 C 0.18185 0.40982 0.33024 0.0
C1636 C 0.15983 0.41435 0.34299 0.0
C1637 C 0.16054 0.42568 0.36601 0.0
C1638 C 0.18313 0.43279 0.37636 0.0
C1639 C 0.20507 0.42864 0.36368 0.0
C1640 C 0.20447 0.41728 0.34067 0.0
C1641 C 0.1862 0.44515 0.20678 0.0
C1642 C 0.21106 0.44595 0.19956 0.0
C1643 C 0.17895 0.43107 0.22717 0.0
C1644 C 0.1965 0.41793 0.24091 0.0
C1645 C 0.22141 0.41917 0.23411 0.0
C1646 C 0.22859 0.4328 0.2134 0.0
C1647 C 0.18858 0.40206 0.26173 0.0
C1648 C 0.19081 0.4111 0.2857 0.0
C1649 C 0.17726 0.37881 0.25775 0.0
C1650 C 0.17393 0.36884 0.23263 0.0
C1651 C 0.19443 0.3645 0.21755 0.0
C1652 C 0.19106 0.3561 0.19352 0.0
C1653 C 0.16727 0.35172 0.18445 0.0
C1654 C 0.14681 0.35564 0.19944 0.0
C1655 C 0.15008 0.36412 0.22346 0.0
H1656 H 0.1647 0.34526 0.16582 0.0
H1657 H 0.18363 0.44158 0.39417 0.0
H1658 H 0.8899 0.88608 0.63063 0.0
H1659 H 0.87374 0.90673 0.59401 0.0
H1660 H 0.94769 0.92763 0.57303 0.0
H1661 H 0.96404 0.90669 0.60969 0.0
H1662 H 0.8745 0.95325 0.57522 0.0
H1663 H 0.95092 0.92135 0.5095 0.0
H1664 H 0.98174 0.88818 0.50612 0.0
H1665 H 0.936 0.84012 0.54979 0.0
H1666 H 0.9048 0.87285 0.55311 0.0
H1667 H 0.84761 1.00398 0.456 0.0
H1668 H 0.87233 0.99258 0.49238 0.0
H1669 H 0.8538 0.91577 0.48076 0.0
H1670 H 0.82956 0.9271 0.44457 0.0
H1671 H 0.902 0.92136 0.49463 0.0
H1672 H 0.82169 0.94858 0.52053 0.0
H1673 H 0.78776 0.97853 0.5231 0.0
H1674 H 0.83592 0.03045 0.55913 0.0
H1675 H 0.87032 1.00097 0.55636 0.0
C1676 C 0.90274 0.89521 0.61831 0.0
C1677 C 0.9283 0.89449 0.62297 0.0
C1678 C 0.89344 0.90719 0.59745 0.0
C1679 C 0.90946 0.91856 0.58055 0.0
C1680 C 0.93495 0.91881 0.58566 0.0
C1681 C 0.94427 0.90696 0.60669 0.0
C1682 C 0.89943 0.9286 0.55696 0.0
C1683 C 0.88076 0.94649 0.55761 0.0
C1684 C 0.9072 0.91957 0.53388 0.0
C1685 C 0.92572 0.89967 0.53182 0.0
C1686 C 0.94745 0.90368 0.51834 0.0
C1687 C 0.96497 0.88495 0.51642 0.0
C1688 C 0.96088 0.86209 0.52782 0.0
C1689 C 0.93921 0.85787 0.54106 0.0
C1690 C 0.92161 0.87651 0.54299 0.0
C1691 C 0.84926 0.98467 0.46105 0.0
C1692 C 0.83642 0.96642 0.44776 0.0
C1693 C 0.86323 0.97817 0.48187 0.0
C1694 C 0.86474 0.9533 0.48949 0.0
C1695 C 0.85292 0.93504 0.47536 0.0
C1696 C 0.83885 0.94155 0.45481 0.0
C1697 C 0.87726 0.94613 0.51289 0.0
C1698 C 0.89623 0.92862 0.51222 0.0
C1699 C 0.86942 0.95515 0.53594 0.0
C1700 C 0.84865 0.97269 0.538 0.0
C1701 C 0.8251 0.96645 0.52885 0.0
C1702 C 0.80577 0.98333 0.53035 0.0
C1703 C 0.80968 1.00639 0.54123 0.0
C1704 C 0.83293 0.0126 0.55068 0.0
C1705 C 0.85235 0.99582 0.54915 0.0
H1706 H 0.79469 0.01943 0.54236 0.0
H1707 H 0.97447 0.84763 0.52634 0.0
H1708 H 0.31226 0.5365 0.72123 0.0
H1709 H 0.32354 0.56208 0.75604 0.0
H1710 H 0.30221 0.62732 0.71569 0.0
H1711 H 0.29214 0.60163 0.67989 0.0
H1712 H 0.34261 0.63739 0.74036 0.0
H1713 H 0.26571 0.60093 0.76332 0.0
H1714 H 0.23558 0.56707 0.76945 0.0
H1715 H 0.28402 0.53292 0.8219 0.0
H1716 H 0.31461 0.56639 0.81583 0.0
H1717 H 0.35727 0.70815 0.85122 0.0
H1718 H 0.33675 0.68859 0.81572 0.0
H1719 H 0.3598 0.61695 0.8417 0.0
H1720 H 0.38002 0.63632 0.87697 0.0
H1721 H 0.31357 0.61425 0.82366 0.0
H1722 H 0.39181 0.64874 0.79694 0.0
H1723 H 0.42204 0.68242 0.79027 0.0
H1724 H 0.36985 0.72079 0.74476 0.0
H1725 H 0.33918 0.68746 0.75145 0.0
C1726 C 0.31022 0.55628 0.71944 0.0
C1727 C 0.3015 0.56684 0.6974 0.0
C1728 C 0.31637 0.57099 0.73969 0.0
C1729 C 0.31335 0.59678 0.73895 0.0
C1730 C 0.30468 0.6075 0.71695 0.0
C1731 C 0.2988 0.59273 0.69645 0.0
C1732 C 0.31959 0.61228 0.76105 0.0
C1733 C 0.3358 0.63257 0.75847 0.0
C1734 C 0.31108 0.60607 0.78494 0.0
C1735 C 0.29252 0.58612 0.789 0.0
C1736 C 0.26999 0.58615 0.77608 0.0
C1737 C 0.25282 0.56702 0.77955 0.0
C1738 C 0.25789 0.54784 0.79603 0.0
C1739 C 0.28011 0.54779 0.80914 0.0
C1740 C 0.29736 0.56686 0.80572 0.0
C1741 C 0.35748 0.68821 0.84957 0.0
C1742 C 0.37038 0.67382 0.86689 0.0
C1743 C 0.34595 0.67702 0.82914 0.0
C1744 C 0.34696 0.65121 0.82569 0.0
C1745 C 0.35873 0.63683 0.84373 0.0
C1746 C 0.37036 0.64796 0.86392 0.0
C1747 C 0.3369 0.63899 0.80298 0.0
C1748 C 0.32002 0.61927 0.80547 0.0
C1749 C 0.34467 0.64582 0.77903 0.0
C1750 C 0.36312 0.66577 0.77493 0.0
C1751 C 0.38672 0.66446 0.78567 0.0
C1752 C 0.40394 0.68346 0.78186 0.0
C1753 C 0.39784 0.70377 0.76717 0.0
C1754 C 0.37453 0.70508 0.75619 0.0
C1755 C 0.35723 0.68613 0.75997 0.0
H1756 H 0.4112 0.71847 0.76424 0.0
H1757 H 0.24459 0.53303 0.79866 0.0
H1758 H 0.6218 0.11507 0.13504 0.0
H1759 H 0.64061 0.09508 0.09926 0.0
H1760 H 0.5923 0.13579 0.05106 0.0
H1761 H 0.57401 0.15633 0.0867 0.0
H1762 H 0.6013 0.08053 0.03992 0.0
H1763 H 0.64199 0.16005 0.05582 0.0
H1764 H 0.66364 0.18966 0.08284 0.0
H1765 H 0.7203 0.1363 0.0968 0.0
H1766 H 0.69871 0.1062 0.07019 0.0
H1767 H 0.6635 0.06994 0.92519 0.0
H1768 H 0.63989 0.08255 0.96124 0.0
H1769 H 0.70405 0.07097 1.00707 0.0
H1770 H 0.72785 0.05988 0.97099 0.0
H1771 H 0.6859 0.11027 0.02056 0.0
H1772 H 0.64968 0.03111 1.00541 0.0
H1773 H 0.62945 0.99831 0.98108 0.0
H1774 H 0.56678 0.04498 0.96908 0.0
H1775 H 0.5868 0.07821 0.99307 0.0
C1776 C 0.61497 0.11938 0.11681 0.0
C1777 C 0.59656 0.13724 0.11352 0.0
C1778 C 0.62568 0.108 0.09644 0.0
C1779 C 0.6178 0.11396 0.07255 0.0
C1780 C 0.59852 0.13085 0.06935 0.0
C1781 C 0.5882 0.14262 0.08965 0.0
C1782 C 0.6312 0.1045 0.05086 0.0
C1783 C 0.61973 0.08708 0.03548 0.0
C1784 C 0.65547 0.11258 0.04556 0.0
C1785 C 0.66859 0.13079 0.06127 0.0
C1786 C 0.65894 0.15455 0.06484 0.0
C1787 C 0.67122 0.17144 0.08005 0.0
C1788 C 0.6933 0.16484 0.09159 0.0
C1789 C 0.70318 0.14137 0.08788 0.0
C1790 C 0.69092 0.1244 0.07274 0.0
C1791 C 0.67243 0.06993 0.943 0.0
C1792 C 0.69752 0.06409 0.94527 0.0
C1793 C 0.65889 0.07701 0.96369 0.0
C1794 C 0.67 0.07752 0.98714 0.0
C1795 C 0.69495 0.07097 0.98932 0.0
C1796 C 0.70857 0.06455 0.96865 0.0
C1797 C 0.65621 0.08591 1.00928 0.0
C1798 C 0.66756 0.10335 0.02484 0.0
C1799 C 0.63209 0.07728 0.01504 0.0
C1800 C 0.61985 0.05724 1.00085 0.0
C1801 C 0.63165 0.03444 0.99746 0.0
C1802 C 0.62022 0.01576 0.98374 0.0
C1803 C 0.59687 0.01958 0.97349 0.0
C1804 C 0.58488 0.04206 0.97701 0.0
C1805 C 0.59625 0.06082 0.99069 0.0
H1806 H 0.58806 1.0051 0.96285 0.0
H1807 H 0.70279 0.17794 0.10335 0.0
H1808 H 0.62814 0.19348 0.68534 0.0
H1809 H 0.64846 0.17564 0.7214 0.0
H1810 H 0.7049 0.14533 0.67504 0.0
H1811 H 0.68457 0.16339 0.63876 0.0
H1812 H 0.68435 0.1105 0.70552 0.0
H1813 H 0.72025 0.19018 0.71443 0.0
H1814 H 0.72143 0.23569 0.7167 0.0
H1815 H 0.67481 0.23347 0.78024 0.0
H1816 H 0.67305 0.18794 0.77816 0.0
H1817 H 0.74204 0.06043 0.8159 0.0
H1818 H 0.73204 0.07842 0.77593 0.0
H1819 H 0.68184 0.12882 0.81076 0.0
H1820 H 0.69399 0.11257 0.85085 0.0
H1821 H 0.70667 0.154 0.78239 0.0
H1822 H 0.65402 0.07823 0.7472 0.0
H1823 H 0.6488 0.0347 0.73466 0.0
H1824 H 0.72638 0.03009 0.71975 0.0
H1825 H 0.73163 0.07413 0.73059 0.0
C1826 C 0.64512 0.18336 0.68288 0.0
C1827 C 0.65474 0.17979 0.65921 0.0
C1828 C 0.6568 0.17326 0.70353 0.0
C1829 C 0.67831 0.15918 0.70103 0.0
C1830 C 0.68839 0.15618 0.67747 0.0
C1831 C 0.67685 0.16661 0.65677 0.0
C1832 C 0.68877 0.1459 0.72277 0.0
C1833 C 0.6896 0.12003 0.72227 0.0
C1834 C 0.6954 0.15822 0.74469 0.0
C1835 C 0.69637 0.18563 0.74602 0.0
C1836 C 0.71007 0.1994 0.72877 0.0
C1837 C 0.71088 0.2252 0.73005 0.0
C1838 C 0.69817 0.23747 0.74857 0.0
C1839 C 0.68465 0.22395 0.76589 0.0
C1840 C 0.68376 0.19813 0.76469 0.0
C1841 C 0.72852 0.07505 0.81489 0.0
C1842 C 0.71866 0.08499 0.83651 0.0
C1843 C 0.72245 0.08516 0.79182 0.0
C1844 C 0.70568 0.10488 0.78974 0.0
C1845 C 0.69494 0.11381 0.81147 0.0
C1846 C 0.70175 0.1044 0.83449 0.0
C1847 C 0.70102 0.11817 0.7658 0.0
C1848 C 0.70147 0.14428 0.76576 0.0
C1849 C 0.69549 0.10606 0.74332 0.0
C1850 C 0.69342 0.07901 0.74084 0.0
C1851 C 0.67002 0.06774 0.74173 0.0
C1852 C 0.66696 0.04319 0.73435 0.0
C1853 C 0.68731 0.02953 0.72671 0.0
C1854 C 0.71069 0.04058 0.72596 0.0
C1855 C 0.71367 0.0654 0.73249 0.0
H1856 H 0.68493 0.01043 0.72128 0.0
H1857 H 0.69883 0.25745 0.74953 0.0
H1858 H 0.15793 0.44467 0.10818 0.0
H1859 H 0.13905 0.43166 0.06925 0.0
H1860 H 0.20403 0.45594 0.03038 0.0
H1861 H 0.22231 0.47031 0.06906 0.0
H1862 H 0.12899 0.46432 0.02939 0.0
H1863 H 0.21079 0.417 0.98361 0.0
H1864 H 0.24117 0.3835 0.98823 0.0
H1865 H 0.19681 0.35008 0.0447 0.0
H1866 H 0.16654 0.38371 0.04078 0.0
H1867 H 0.10751 0.45033 0.89777 0.0
H1868 H 0.12109 0.46122 0.93958 0.0
H1869 H 0.11789 0.38415 0.96022 0.0
H1870 H 0.10479 0.3734 0.91851 0.0
H1871 H 0.16104 0.4024 0.97106 0.0
H1872 H 0.07765 0.42777 0.9839 0.0
H1873 H 0.03952 0.451 0.97566 0.0
H1874 H 0.07876 0.51951 0.98593 0.0
H1875 H 0.11723 0.49669 0.99391 0.0
C1876 C 0.16838 0.44685 0.09138 0.0
C1877 C 0.1919 0.45807 0.09188 0.0
C1878 C 0.15753 0.43945 0.06912 0.0
C1879 C 0.17009 0.44271 0.0468 0.0
C1880 C 0.19404 0.45292 0.04733 0.0
C1881 C 0.20467 0.46084 0.06957 0.0
C1882 C 0.15737 0.43747 0.02292 0.0
C1883 C 0.13604 0.45082 0.01658 0.0
C1884 C 0.16625 0.41983 1.00616 0.0
C1885 C 0.18668 0.40297 0.01215 0.0
C1886 C 0.20789 0.4028 0.99742 0.0
C1887 C 0.22495 0.3837 0.99975 0.0
C1888 C 0.22076 0.36452 0.01652 0.0
C1889 C 0.19994 0.36487 0.0316 0.0
C1890 C 0.18303 0.38414 0.0296 0.0
C1891 C 0.10898 0.4359 0.91154 0.0
C1892 C 0.10483 0.41107 0.90509 0.0
C1893 C 0.1168 0.44209 0.93541 0.0
C1894 C 0.1206 0.42352 0.9532 0.0
C1895 C 0.1152 0.39885 0.94692 0.0
C1896 C 0.10752 0.39269 0.92314 0.0
C1897 C 0.13259 0.42912 0.97739 0.0
C1898 C 0.154 0.4161 0.98369 0.0
C1899 C 0.12344 0.44675 0.99416 0.0
C1900 C 0.10039 0.46052 0.98922 0.0
C1901 C 0.07821 0.4478 0.98416 0.0
C1902 C 0.05652 0.46089 0.97959 0.0
C1903 C 0.05673 0.48672 0.98019 0.0
C1904 C 0.07863 0.49951 0.98542 0.0
C1905 C 0.10038 0.4865 0.98999 0.0
H1906 H 0.03992 0.49682 0.97667 0.0
H1907 H 0.2338 0.34955 0.01806 0.0
H1908 H 0.78315 0.96401 0.3252 0.0
H1909 H 0.79324 0.94641 0.28529 0.0
H1910 H 0.84211 0.89457 0.32087 0.0
H1911 H 0.83061 0.91122 0.36092 0.0
H1912 H 0.82913 0.94413 0.25861 0.0
H1913 H 0.84989 0.84274 0.28978 0.0
H1914 H 0.83481 0.81275 0.32063 0.0
H1915 H 0.7657 0.85082 0.3243 0.0
H1916 H 0.78022 0.88081 0.29323 0.0
H1917 H 0.89939 0.88973 0.1673 0.0
H1918 H 0.88161 0.90574 0.20443 0.0
H1919 H 0.82473 0.84949 0.20183 0.0
H1920 H 0.84444 0.83123 0.16604 0.0
H1921 H 0.83505 0.85375 0.2454 0.0
H1922 H 0.81627 0.91573 0.18715 0.0
H1923 H 0.82272 0.94618 0.15392 0.0
H1924 H 0.87292 0.98719 0.19974 0.0
H1925 H 0.8671 0.95677 0.23311 0.0
C1926 C 0.79605 0.94885 0.32446 0.0
C1927 C 0.80648 0.93924 0.34611 0.0
C1928 C 0.80185 0.93875 0.30158 0.0
C1929 C 0.81826 0.91881 0.29979 0.0
C1930 C 0.82884 0.9094 0.32154 0.0
C1931 C 0.82252 0.9191 0.34447 0.0
C1932 C 0.82458 0.90819 0.27523 0.0
C1933 C 0.8304 0.92436 0.2558 0.0
C1934 C 0.82524 0.88235 0.27089 0.0
C1935 C 0.81626 0.86415 0.28933 0.0
C1936 C 0.83144 0.84463 0.29708 0.0
C1937 C 0.82299 0.82765 0.31462 0.0
C1938 C 0.79934 0.82992 0.32447 0.0
C1939 C 0.78405 0.84912 0.31672 0.0
C1940 C 0.79238 0.86613 0.29916 0.0
C1941 C 0.88342 0.88022 0.17471 0.0
C1942 C 0.87384 0.85867 0.16353 0.0
C1943 C 0.87278 0.88995 0.19586 0.0
C1944 C 0.85136 0.87932 0.20598 0.0
C1945 C 0.84123 0.85821 0.19455 0.0
C1946 C 0.85239 0.84792 0.17373 0.0
C1947 C 0.84038 0.88973 0.22897 0.0
C1948 C 0.83368 0.87353 0.24814 0.0
C1949 C 0.83766 0.91556 0.23267 0.0
C1950 C 0.84137 0.93385 0.21258 0.0
C1951 C 0.82882 0.93114 0.19008 0.0
C1952 C 0.83236 0.94841 0.17122 0.0
C1953 C 0.84825 0.96858 0.1747 0.0
C1954 C 0.86063 0.97154 0.19706 0.0
C1955 C 0.8572 0.9543 0.21597 0.0
H1956 H 0.85095 0.98193 0.16008 0.0
H1957 H 0.79286 0.81677 0.33807 0.0
H1958 H 0.36399 0.55675 0.60871 0.0
H1959 H 0.38486 0.56761 0.57072 0.0
H1960 H 0.31877 0.54938 0.52981 0.0
H1961 H 0.29937 0.5348 0.56776 0.0
H1962 H 0.35088 0.53708 0.50303 0.0
H1963 H 0.34813 0.61768 0.54319 0.0
H1964 H 0.35512 0.64726 0.57723 0.0
H1965 H 0.43223 0.62974 0.5777 0.0
H1966 H 0.42556 0.60018 0.54382 0.0
H1967 H 0.38034 0.61087 0.39754 0.0
H1968 H 0.36417 0.59254 0.43543 0.0
H1969 H 0.43796 0.58914 0.46506 0.0
H1970 H 0.45427 0.60737 0.42683 0.0
H1971 H 0.40532 0.61094 0.49711 0.0
H1972 H 0.40779 0.5364 0.45067 0.0
H1973 H 0.39989 0.50945 0.41505 0.0
H1974 H 0.32178 0.51788 0.42453 0.0
H1975 H 0.32921 0.54516 0.46003 0.0
C1976 C 0.35383 0.5552 0.59161 0.0
C1977 C 0.32952 0.54584 0.59153 0.0
C1978 C 0.36572 0.56191 0.56967 0.0
C1979 C 0.35338 0.56062 0.54685 0.0
C1980 C 0.32904 0.551 0.54683 0.0
C1981 C 0.31759 0.54309 0.56871 0.0
C1982 C 0.36605 0.56808 0.52308 0.0
C1983 C 0.36233 0.55357 0.50187 0.0
C1984 C 0.38213 0.58897 0.52102 0.0
C1985 C 0.3862 0.60651 0.54143 0.0
C1986 C 0.36643 0.62002 0.55088 0.0
C1987 C 0.37037 0.63679 0.57001 0.0
C1988 C 0.39405 0.6402 0.57974 0.0
C1989 C 0.41388 0.627 0.57022 0.0
C1990 C 0.41004 0.61031 0.55103 0.0
C1991 C 0.3932 0.60576 0.41194 0.0
C1992 C 0.41863 0.6105 0.40908 0.0
C1993 C 0.38391 0.59523 0.43365 0.0
C1994 C 0.39976 0.58931 0.45327 0.0
C1995 C 0.42529 0.59346 0.45025 0.0
C1996 C 0.43465 0.6037 0.42831 0.0
C1997 C 0.38936 0.58042 0.47733 0.0
C1998 C 0.39369 0.59456 0.49848 0.0
C1999 C 0.37362 0.55945 0.47921 0.0
C2000 C 0.36907 0.54301 0.4579 0.0
C2001 C 0.38893 0.53267 0.44505 0.0
C2002 C 0.38453 0.5173 0.4249 0.0
C2003 C 0.36035 0.51201 0.41749 0.0
C2004 C 0.34051 0.52202 0.43027 0.0
C2005 C 0.3448 0.53741 0.45043 0.0
H2006 H 0.35699 0.5001 0.40189 0.0
H2007 H 0.39705 0.65316 0.59457 0.0
H2008 H 0.21829 0.20234 0.47859 0.0
H2009 H 0.25188 0.19297 0.45162 0.0
H2010 H 0.21374 0.22863 0.39161 0.0
H2011 H 0.17811 0.23549 0.41845 0.0
H2012 H 0.23547 0.19149 0.37404 0.0
H2013 H 0.26606 0.25589 0.42472 0.0
H2014 H 0.27365 0.27805 0.46354 0.0
H2015 H 0.31832 0.21816 0.48961 0.0
H2016 H 0.31076 0.19547 0.4511 0.0
H2017 H 0.35105 0.17284 0.31072 0.0
H2018 H 0.3182 0.19637 0.33093 0.0
H2019 H 0.3261 0.15098 0.39573 0.0
H2020 H 0.35853 0.12739 0.37562 0.0
H2021 H 0.32088 0.20267 0.40555 0.0
H2022 H 0.28266 0.13694 0.35607 0.0
H2023 H 0.27463 0.11606 0.31661 0.0
H2024 H 0.24506 0.18324 0.28672 0.0
H2025 H 0.25324 0.20459 0.32594 0.0
C2026 C 0.21651 0.2077 0.45961 0.0
C2027 C 0.19503 0.21918 0.45078 0.0
C2028 C 0.23626 0.20289 0.44417 0.0
C2029 C 0.23597 0.21079 0.4196 0.0
C2030 C 0.21463 0.22248 0.41054 0.0
C2031 C 0.19427 0.22649 0.42594 0.0
C2032 C 0.25781 0.20594 0.40364 0.0
C2033 C 0.25411 0.19458 0.38074 0.0
C2034 C 0.28236 0.20994 0.41212 0.0
C2035 C 0.2878 0.22395 0.43498 0.0
C2036 C 0.2775 0.24743 0.43872 0.0
C2037 C 0.28177 0.26008 0.4607 0.0
C2038 C 0.29645 0.24952 0.47903 0.0
C2039 C 0.30699 0.22634 0.47538 0.0
C2040 C 0.30277 0.21361 0.45344 0.0
C2041 C 0.34595 0.16816 0.32939 0.0
C2042 C 0.35718 0.14818 0.34156 0.0
C2043 C 0.32717 0.18154 0.34087 0.0
C2044 C 0.31962 0.17533 0.3648 0.0
C2045 C 0.33162 0.1561 0.37729 0.0
C2046 C 0.35005 0.14255 0.36574 0.0
C2047 C 0.29831 0.18761 0.37662 0.0
C2048 C 0.30218 0.20033 0.3987 0.0
C2049 C 0.27404 0.18537 0.36717 0.0
C2050 C 0.2688 0.17241 0.3438 0.0
C2051 C 0.2746 0.14729 0.34102 0.0
C2052 C 0.27 0.13537 0.31872 0.0
C2053 C 0.25941 0.14834 0.29915 0.0
C2054 C 0.25331 0.17323 0.30188 0.0
C2055 C 0.25791 0.18524 0.32413 0.0
H2056 H 0.25587 0.13908 0.28189 0.0
H2057 H 0.29965 0.2593 0.49607 0.0
H2058 H 0.15852 0.07612 0.60354 0.0
H2059 H 0.13786 0.04017 0.62125 0.0
H2060 H 0.06999 0.08099 0.62558 0.0
H2061 H 0.09099 0.11763 0.60852 0.0
H2062 H 0.07625 0.05662 0.66667 0.0
H2063 H 0.07674 0.03383 0.58375 0.0
H2064 H 0.093 0.02742 0.54208 0.0
H2065 H 0.14412 0.97391 0.57009 0.0
H2066 H 0.1284 0.98024 0.61201 0.0
H2067 H 0.02724 0.94348 0.7182 0.0
H2068 H 0.03367 0.98109 0.69436 0.0
H2069 H 0.10072 0.95038 0.66476 0.0
H2070 H 0.09102 0.91114 0.6847 0.0
H2071 H 0.08551 0.97279 0.63187 0.0
H2072 H 0.08451 1.00776 0.71988 0.0
H2073 H 0.06133 0.01725 0.7579 0.0
H2074 H 1.00293 0.04874 0.71521 0.0
H2075 H 0.02559 0.03975 0.6771 0.0
C2076 C 0.13918 0.07756 0.60824 0.0
C2077 C 0.12652 0.09994 0.60475 0.0
C2078 C 0.12727 0.0568 0.61817 0.0
C2079 C 0.10222 0.05762 0.62465 0.0
C2080 C 0.08931 0.07979 0.62075 0.0
C2081 C 0.10129 0.10068 0.61077 0.0
C2082 C 0.09015 0.03556 0.6364 0.0
C2083 C 0.07828 0.03824 0.65906 0.0
C2084 C 0.09195 0.0116 0.62628 0.0
C2085 C 0.10149 1.00765 0.60108 0.0
C2086 C 0.09157 0.02083 0.58106 0.0
C2087 C 0.10067 0.01718 0.55739 0.0
C2088 C 0.11961 1.0003 0.55345 0.0
C2089 C 0.12945 0.98699 0.57318 0.0
C2090 C 0.12043 0.99057 0.5969 0.0
C2091 C 0.04346 0.94499 0.7067 0.0
C2092 C 0.05924 0.9247 0.70406 0.0
C2093 C 0.04749 0.96689 0.69327 0.0
C2094 C 0.06846 0.96979 0.67819 0.0
C2095 C 0.08429 0.94928 0.67597 0.0
C2096 C 0.0791 0.9268 0.68782 0.0
C2097 C 0.07388 0.99323 0.66376 0.0
C2098 C 0.08404 0.99095 0.64005 0.0
C2099 C 0.06988 0.01762 0.6727 0.0
C2100 C 0.05662 0.02285 0.69575 0.0
C2101 C 0.06672 0.01664 0.7187 0.0
C2102 C 0.05372 0.0219 0.74019 0.0
C2103 C 0.03075 0.03336 0.73893 0.0
C2104 C 0.02071 0.03979 0.71617 0.0
C2105 C 0.03362 0.0347 0.69465 0.0
H2106 H 0.0208 0.03732 0.75561 0.0
H2107 H 0.12663 0.9975 0.5351 0.0
H2108 H 0.21039 0.88638 0.8236 0.0
H2109 H 0.24304 0.866 0.84665 0.0
H2110 H 0.18848 0.82492 0.88786 0.0
H2111 H 0.15551 0.84612 0.86522 0.0
H2112 H 0.21947 0.844 0.91819 0.0
H2113 H 0.23016 0.79501 0.84807 0.0
H2114 H 0.23453 0.78454 0.80433 0.0
H2115 H 0.30082 0.82838 0.80025 0.0
H2116 H 0.29693 0.83904 0.84406 0.0
H2117 H 0.32548 0.78651 0.98006 0.0
H2118 H 0.28648 0.79519 0.9592 0.0
H2119 H 0.32466 0.84343 0.90849 0.0
H2120 H 0.36388 0.83329 0.92834 0.0
H2121 H 0.29769 0.81245 0.88411 0.0
H2122 H 0.25707 0.87528 0.95079 0.0
H2123 H 0.24024 0.88334 0.99204 0.0
H2124 H 0.22605 0.80575 1.00214 0.0
H2125 H 0.24164 0.79749 0.96049 0.0
C2126 C 0.20529 0.87277 0.83736 0.0
C2127 C 0.18028 0.86812 0.84274 0.0
C2128 C 0.22406 0.86087 0.8504 0.0
C2129 C 0.21841 0.84373 0.86904 0.0
C2130 C 0.19342 0.83806 0.87361 0.0
C2131 C 0.17454 0.85004 0.86051 0.0
C2132 C 0.23854 0.83391 0.88521 0.0
C2133 C 0.23646 0.83673 0.9107 0.0
C2134 C 0.26069 0.82418 0.87571 0.0
C2135 C 0.26315 0.81797 0.84932 0.0
C2136 C 0.24559 0.80256 0.83781 0.0
C2137 C 0.248 0.79656 0.81301 0.0
C2138 C 0.26784 0.80592 0.79947 0.0
C2139 C 0.28543 0.82117 0.81076 0.0
C2140 C 0.28319 0.82712 0.83561 0.0
C2141 C 0.32542 0.79943 0.96481 0.0
C2142 C 0.34776 0.80941 0.95595 0.0
C2143 C 0.30291 0.80468 0.953 0.0
C2144 C 0.30214 0.82046 0.93237 0.0
C2145 C 0.32447 0.83122 0.92431 0.0
C2146 C 0.34696 0.82551 0.9357 0.0
C2147 C 0.27915 0.8237 0.91716 0.0
C2148 C 0.28069 0.81958 0.89167 0.0
C2149 C 0.25619 0.83153 0.92674 0.0
C2150 C 0.25161 0.83564 0.95307 0.0
C2151 C 0.25091 0.85991 0.96209 0.0
C2152 C 0.24106 0.86457 0.98529 0.0
C2153 C 0.23215 0.84505 0.99972 0.0
C2154 C 0.23311 0.82083 0.99101 0.0
C2155 C 0.24239 0.81616 0.9676 0.0
H2156 H 0.22456 0.8487 0.01768 0.0
H2157 H 0.26963 0.80129 0.78025 0.0
H2158 H 0.49402 0.07233 0.22342 0.0
H2159 H 0.48093 0.03328 0.20437 0.0
H2160 H 0.44023 0.07396 0.14952 0.0
H2161 H 0.45307 0.11296 0.16875 0.0
H2162 H 0.41313 0.0356 0.167 0.0
H2163 H 0.49639 0.04724 0.13711 0.0
H2164 H 0.54125 0.05367 0.14205 0.0
H2165 H 0.54649 0.98558 0.1825 0.0
H2166 H 0.50158 0.97892 0.1781 0.0
H2167 H 0.38568 0.94575 0.07943 0.0
H2168 H 0.4043 0.9818 0.09935 0.0
H2169 H 0.44566 0.93378 0.14738 0.0
H2170 H 0.42744 0.89746 0.12677 0.0
H2171 H 0.4729 0.97386 0.13673 0.0
H2172 H 0.39113 0.96072 0.16596 0.0
H2173 H 0.34621 0.95367 0.16281 0.0
H2174 H 0.33784 0.02376 0.12652 0.0
H2175 H 0.38278 0.03105 0.12909 0.0
C2176 C 0.48211 0.0729 0.20742 0.0
C2177 C 0.47406 0.0957 0.19792 0.0
C2178 C 0.47482 0.05055 0.19638 0.0
C2179 C 0.45961 0.05052 0.17536 0.0
C2180 C 0.45184 0.07337 0.16574 0.0
C2181 C 0.45922 0.09567 0.17671 0.0
C2182 C 0.4516 0.02687 0.16335 0.0
C2183 C 0.42625 0.02227 0.16014 0.0
C2184 C 0.46857 1.00888 0.15513 0.0
C2185 C 0.4956 0.0127 0.15747 0.0
C2186 C 0.50709 0.03372 0.14719 0.0
C2187 C 0.53252 0.03739 0.14988 0.0
C2188 C 0.5467 0.02007 0.16263 0.0
C2189 C 0.53548 0.99899 0.17265 0.0
C2190 C 0.51004 0.99525 0.17005 0.0
C2191 C 0.39914 0.94287 0.0939 0.0
C2192 C 0.40505 0.91875 0.10155 0.0
C2193 C 0.40964 0.96352 0.10547 0.0
C2194 C 0.42594 0.9607 0.12544 0.0
C2195 C 0.43302 0.93659 0.13219 0.0
C2196 C 0.42269 0.9158 0.12034 0.0
C2197 C 0.4344 0.9829 0.1398 0.0
C2198 C 0.45977 0.98715 0.14361 0.0
C2199 C 0.41744 1.00051 0.14886 0.0
C2200 C 0.39036 0.99633 0.14753 0.0
C2201 C 0.37973 0.97456 0.15717 0.0
C2202 C 0.35427 0.97053 0.1555 0.0
C2203 C 0.33919 0.98823 0.14443 0.0
C2204 C 0.34954 0.01005 0.13507 0.0
C2205 C 0.37501 0.01415 0.13664 0.0
H2206 H 0.31948 0.98508 0.14315 0.0
H2207 H 0.56639 0.02296 0.1647 0.0
H2208 H 0.83872 0.41155 0.66548 0.0
H2209 H 0.80333 0.39004 0.64757 0.0
H2210 H 0.84455 0.3222 0.64654 0.0
H2211 H 0.88051 0.34398 0.66412 0.0
H2212 H 0.82128 0.32769 0.60407 0.0
H2213 H 0.79633 0.32999 0.68679 0.0
H2214 H 0.78825 0.34765 0.72761 0.0
H2215 H 0.73482 0.39676 0.69608 0.0
H2216 H 0.74281 0.37964 0.65499 0.0
H2217 H 0.71083 0.27255 0.5522 0.0
H2218 H 0.74835 0.28219 0.57495 0.0
H2219 H 0.71322 0.34705 0.60473 0.0
H2220 H 0.6745 0.33394 0.58607 0.0
H2221 H 0.73678 0.33513 0.63722 0.0
H2222 H 0.77559 0.33508 0.54999 0.0
H2223 H 0.78795 0.3125 0.5124 0.0
H2224 H 0.81604 0.25323 0.55644 0.0
H2225 H 0.80448 0.27546 0.5941 0.0
C2226 C 0.84032 0.39201 0.66157 0.0
C2227 C 0.86264 0.37959 0.66616 0.0
C2228 C 0.8199 0.37963 0.65145 0.0
C2229 C 0.821 0.35434 0.64572 0.0
C2230 C 0.8431 0.34168 0.65074 0.0
C2231 C 0.86362 0.35411 0.66101 0.0
C2232 C 0.79936 0.34171 0.63361 0.0
C2233 C 0.80273 0.32938 0.61127 0.0
C2234 C 0.77515 0.34322 0.64309 0.0
C2235 C 0.77032 0.35365 0.66777 0.0
C2236 C 0.783 0.3447 0.68852 0.0
C2237 C 0.77841 0.35458 0.71172 0.0
C2238 C 0.76108 0.37335 0.71443 0.0
C2239 C 0.74826 0.38224 0.69395 0.0
C2240 C 0.75279 0.37243 0.67071 0.0
C2241 C 0.71135 0.28899 0.56351 0.0
C2242 C 0.68989 0.303 0.56667 0.0
C2243 C 0.73323 0.29494 0.57632 0.0
C2244 C 0.73485 0.31614 0.5914 0.0
C2245 C 0.71322 0.3304 0.59377 0.0
C2246 C 0.69094 0.32328 0.58257 0.0
C2247 C 0.75796 0.32325 0.60586 0.0
C2248 C 0.75503 0.3341 0.62924 0.0
C2249 C 0.78264 0.32002 0.59745 0.0
C2250 C 0.78881 0.30672 0.57471 0.0
C2251 C 0.7842 0.31715 0.55153 0.0
C2252 C 0.79108 0.30448 0.53029 0.0
C2253 C 0.8024 0.28143 0.53206 0.0
C2254 C 0.80714 0.27103 0.55508 0.0
C2255 C 0.80056 0.28368 0.57635 0.0
H2256 H 0.80764 0.2717 0.51557 0.0
H2257 H 0.75754 0.38097 0.73241 0.0
H2258 H 0.93086 0.46638 0.79721 0.0
H2259 H 0.91587 0.50265 0.8186 0.0
H2260 H 0.98191 0.50418 0.863 0.0
H2261 H 0.99738 0.46789 0.84108 0.0
H2262 H 0.93926 0.51187 0.89027 0.0
H2263 H 0.97625 0.5449 0.81751 0.0
H2264 H 0.98383 0.54715 0.77294 0.0
H2265 H 0.9075 0.56373 0.76013 0.0
H2266 H 0.89934 0.56115 0.80461 0.0
H2267 H 0.90628 0.62894 0.9398 0.0
H2268 H 0.92942 0.59615 0.91968 0.0
H2269 H 0.87341 0.59123 0.86338 0.0
H2270 H 0.85098 0.62485 0.88252 0.0
H2271 H 0.91599 0.58673 0.84287 0.0
H2272 H 0.87777 0.54964 0.91404 0.0
H2273 H 0.86861 0.54486 0.95813 0.0
H2274 H 0.94559 0.53421 0.97354 0.0
H2275 H 0.95524 0.53926 0.92955 0.0
C2276 C 0.94252 0.47466 0.81108 0.0
C2277 C 0.96568 0.46457 0.81683 0.0
C2278 C 0.93378 0.49533 0.82353 0.0
C2279 C 0.94793 0.50647 0.84214 0.0
C2280 C 0.97073 0.49601 0.84858 0.0
C2281 C 0.97955 0.47528 0.83601 0.0
C2282 C 0.93875 0.52909 0.8546 0.0
C2283 C 0.9346 0.52843 0.88001 0.0
C2284 C 0.93221 0.55054 0.84114 0.0
C2285 C 0.93716 0.55273 0.81441 0.0
C2286 C 0.96105 0.54892 0.80519 0.0
C2287 C 0.96545 0.55025 0.77994 0.0
C2288 C 0.94617 0.55561 0.76373 0.0
C2289 C 0.92243 0.55963 0.77273 0.0
C2290 C 0.91791 0.55826 0.79796 0.0
C2291 C 0.89905 0.62119 0.92292 0.0
C2292 C 0.87652 0.62953 0.913 0.0
C2293 C 0.9122 0.60216 0.91157 0.0
C2294 C 0.903 0.59074 0.89019 0.0
C2295 C 0.88092 0.59952 0.87991 0.0
C2296 C 0.86791 0.61865 0.89109 0.0
C2297 C 0.91598 0.56945 0.87861 0.0
C2298 C 0.92088 0.57033 0.85327 0.0
C2299 C 0.92303 0.54813 0.89212 0.0
C2300 C 0.91726 0.54513 0.91856 0.0
C2301 C 0.89277 0.54648 0.92686 0.0
C2302 C 0.88748 0.54369 0.95183 0.0
C2303 C 0.90652 0.53932 0.96864 0.0
C2304 C 0.93087 0.53766 0.96051 0.0
C2305 C 0.93626 0.54048 0.93556 0.0
H2306 H 0.90238 0.53715 0.98796 0.0
H2307 H 0.94963 0.55668 0.7442 0.0
H2308 H 0.85505 0.70752 0.10351 0.0
H2309 H 0.81912 0.69449 0.12665 0.0
H2310 H 0.77169 0.72517 0.07052 0.0
H2311 H 0.80809 0.74232 0.04993 0.0
H2312 H 0.7494 0.73245 0.10666 0.0
H2313 H 0.78538 0.64951 0.08847 0.0
H2314 H 0.81807 0.6176 0.08957 0.0
H2315 H 0.82811 0.62931 0.16676 0.0
H2316 H 0.79523 0.6606 0.1663 0.0
H2317 H 0.64281 0.6632 0.15005 0.0
H2318 H 0.67737 0.68247 0.12768 0.0
H2319 H 0.72547 0.66819 0.18934 0.0
H2320 H 0.6912 0.64848 0.21125 0.0
H2321 H 0.74611 0.65199 0.15028 0.0
H2322 H 0.70724 0.72821 0.17068 0.0
H2323 H 0.67305 0.75791 0.17279 0.0
H2324 H 0.66832 0.75942 0.09408 0.0
H2325 H 0.70227 0.72943 0.09149 0.0
C2326 C 0.83693 0.71122 0.09593 0.0
C2327 C 0.83458 0.72485 0.07403 0.0
C2328 C 0.8161 0.70321 0.10903 0.0
C2329 C 0.79201 0.70733 0.10008 0.0
C2330 C 0.78973 0.72114 0.07809 0.0
C2331 C 0.81066 0.73046 0.06576 0.0
C2332 C 0.76938 0.69882 0.11425 0.0
C2333 C 0.7487 0.71454 0.11563 0.0
C2334 C 0.76808 0.67594 0.12728 0.0
C2335 C 0.7882 0.6576 0.12723 0.0
C2336 C 0.79477 0.64538 0.10557 0.0
C2337 C 0.81322 0.62739 0.1061 0.0
C2338 C 0.82533 0.62174 0.12808 0.0
C2339 C 0.81881 0.63379 0.1497 0.0
C2340 C 0.80018 0.6515 0.14936 0.0
C2341 C 0.6606 0.66493 0.15906 0.0
C2342 C 0.66424 0.65453 0.18249 0.0
C2343 C 0.68043 0.67588 0.14623 0.0
C2344 C 0.70429 0.67685 0.15668 0.0
C2345 C 0.70745 0.66762 0.18066 0.0
C2346 C 0.68777 0.65654 0.19332 0.0
C2347 C 0.72638 0.68538 0.14217 0.0
C2348 C 0.74685 0.66971 0.14087 0.0
C2349 C 0.72745 0.70823 0.12939 0.0
C2350 C 0.70714 0.72637 0.1309 0.0
C2351 C 0.69878 0.73472 0.15382 0.0
C2352 C 0.67947 0.75164 0.1551 0.0
C2353 C 0.66848 0.7605 0.13359 0.0
C2354 C 0.67683 0.75252 0.11073 0.0
C2355 C 0.69612 0.73557 0.10935 0.0
H2356 H 0.65353 0.7736 0.13462 0.0
H2357 H 0.83964 0.6079 0.12839 0.0
H2358 H 0.60133 0.41785 0.44586 0.0
H2359 H 0.58105 0.45279 0.425 0.0
H2360 H 0.62953 0.44401 0.36309 0.0
H2361 H 0.64979 0.40958 0.38389 0.0
H2362 H 0.63167 0.48979 0.37963 0.0
H2363 H 0.56683 0.4317 0.35969 0.0
H2364 H 0.53424 0.40098 0.3689 0.0
H2365 H 0.49571 0.45468 0.41176 0.0
H2366 H 0.52826 0.48563 0.40309 0.0
H2367 H 0.53853 0.56173 0.29569 0.0
H2368 H 0.55554 0.52437 0.31496 0.0
H2369 H 0.58407 0.56862 0.37437 0.0
H2370 H 0.56944 0.60599 0.35398 0.0
H2371 H 0.54376 0.50543 0.36024 0.0
H2372 H 0.62098 0.5568 0.38931 0.0
H2373 H 0.65761 0.58268 0.3808 0.0
H2374 H 0.6768 0.5353 0.32093 0.0
H2375 H 0.63915 0.51028 0.328 0.0
C2376 C 0.6071 0.42298 0.42751 0.0
C2377 C 0.62721 0.41106 0.41654 0.0
C2378 C 0.59555 0.443 0.4156 0.0
C2379 C 0.60384 0.45127 0.39246 0.0
C2380 C 0.62288 0.43823 0.38096 0.0
C2381 C 0.6344 0.41845 0.39283 0.0
C2382 C 0.59482 0.47483 0.38112 0.0
C2383 C 0.61239 0.49314 0.37541 0.0
C2384 C 0.56969 0.4795 0.37577 0.0
C2385 C 0.55013 0.4609 0.38096 0.0
C2386 C 0.55153 0.4369 0.37126 0.0
C2387 C 0.53304 0.41945 0.37635 0.0
C2388 C 0.51296 0.42585 0.39096 0.0
C2389 C 0.5113 0.44973 0.40047 0.0
C2390 C 0.52975 0.46724 0.39547 0.0
C2391 C 0.54937 0.56355 0.31235 0.0
C2392 C 0.55359 0.587 0.3227 0.0
C2393 C 0.55893 0.54213 0.32351 0.0
C2394 C 0.57233 0.54353 0.34571 0.0
C2395 C 0.57555 0.56689 0.35652 0.0
C2396 C 0.56663 0.58833 0.34504 0.0
C2397 C 0.58072 0.5204 0.35854 0.0
C2398 C 0.56301 0.50213 0.36459 0.0
C2399 C 0.60582 0.51568 0.36436 0.0
C2400 C 0.62632 0.53274 0.35812 0.0
C2401 C 0.6322 0.55276 0.37347 0.0
C2402 C 0.65332 0.56712 0.36907 0.0
C2403 C 0.66928 0.56095 0.35002 0.0
C2404 C 0.66422 0.54032 0.33544 0.0
C2405 C 0.64277 0.52631 0.33937 0.0
H2406 H 0.68577 0.5719 0.34681 0.0
H2407 H 0.49866 0.41232 0.39487 0.0
H2408 H 0.38194 0.37623 0.1498 0.0
H2409 H 0.39873 0.33984 0.17068 0.0
H2410 H 0.32759 0.30367 0.16589 0.0
H2411 H 0.31058 0.34068 0.14567 0.0
H2412 H 0.34979 0.29095 0.20828 0.0
H2413 H 0.37281 0.29184 0.12412 0.0
H2414 H 0.38956 0.30914 0.08564 0.0
H2415 H 0.46079 0.31764 0.11955 0.0
H2416 H 0.44436 0.30079 0.1584 0.0
H2417 H 0.41318 0.17111 0.22186 0.0
H2418 H 0.38666 0.20478 0.20662 0.0
H2419 H 0.44588 0.25711 0.2186 0.0
H2420 H 0.47182 0.22429 0.23443 0.0
H2421 H 0.42553 0.2576 0.17018 0.0
H2422 H 0.40007 0.2581 0.25549 0.0
H2423 H 0.38266 0.23848 0.29259 0.0
H2424 H 0.31477 0.22402 0.25413 0.0
H2425 H 0.33196 0.24321 0.21663 0.0
C2426 C 0.36982 0.36068 0.15367 0.0
C2427 C 0.34503 0.36117 0.1462 0.0
C2428 C 0.37942 0.3398 0.16544 0.0
C2429 C 0.36461 0.31867 0.16942 0.0
C2430 C 0.33945 0.31962 0.16298 0.0
C2431 C 0.32974 0.34072 0.15144 0.0
C2432 C 0.37594 0.2953 0.17879 0.0
C2433 C 0.36613 0.28348 0.19971 0.0
C2434 C 0.39724 0.28528 0.16765 0.0
C2435 C 0.40728 0.29525 0.14425 0.0
C2436 C 0.39201 0.29756 0.12343 0.0
C2437 C 0.40145 0.30727 0.10155 0.0
C2438 C 0.42621 0.31453 0.10017 0.0
C2439 C 0.4416 0.31204 0.12066 0.0
C2440 C 0.43224 0.3024 0.14262 0.0
C2441 C 0.42033 0.18986 0.22161 0.0
C2442 C 0.4448 0.19486 0.22896 0.0
C2443 C 0.40521 0.20906 0.21285 0.0
C2444 C 0.41441 0.23343 0.21125 0.0
C2445 C 0.43845 0.23846 0.21944 0.0
C2446 C 0.45331 0.21954 0.22843 0.0
C2447 C 0.39986 0.25381 0.2 0.0
C2448 C 0.40904 0.26499 0.17859 0.0
C2449 C 0.3779 0.2629 0.2105 0.0
C2450 C 0.3674 0.25183 0.23317 0.0
C2451 C 0.38151 0.25056 0.25487 0.0
C2452 C 0.37167 0.23954 0.27599 0.0
C2453 C 0.34765 0.22993 0.27569 0.0
C2454 C 0.33339 0.23142 0.25431 0.0
C2455 C 0.34317 0.24238 0.23313 0.0
H2456 H 0.34008 0.22138 0.29205 0.0
H2457 H 0.43349 0.32204 0.0832 0.0
H2458 H 0.96996 0.33523 0.78337 0.0
H2459 H 0.95015 0.29717 0.7976 0.0
H2460 H 0.89474 0.34003 0.83458 0.0
H2461 H 0.91594 0.37823 0.82196 0.0
H2462 H 0.90556 0.30404 0.86228 0.0
H2463 H 0.88702 0.30757 0.7748 0.0
H2464 H 0.8989 0.31075 0.73119 0.0
H2465 H 0.94186 0.2447 0.73817 0.0
H2466 H 0.9304 0.24126 0.78187 0.0
H2467 H 0.81788 0.21099 0.88377 0.0
H2468 H 0.83798 0.24711 0.86501 0.0
H2469 H 0.89466 0.20014 0.83579 0.0
H2470 H 0.87389 0.16381 0.85389 0.0
H2471 H 0.88502 0.23661 0.80399 0.0
H2472 H 0.90285 0.23199 0.89015 0.0
H2473 H 0.89245 0.22852 0.93407 0.0
H2474 H 0.8523 0.29655 0.92983 0.0
H2475 H 0.86215 0.30022 0.88577 0.0
C2476 C 0.9538 0.33652 0.79492 0.0
C2477 C 0.9449 0.35969 0.80221 0.0
C2478 C 0.94215 0.31468 0.80268 0.0
C2479 C 0.92051 0.31548 0.81682 0.0
C2480 C 0.9114 0.33873 0.82375 0.0
C2481 C 0.92343 0.36059 0.81649 0.0
C2482 C 0.90744 0.29224 0.82461 0.0
C2483 C 0.90072 0.28955 0.84937 0.0
C2484 C 0.90186 0.27268 0.80811 0.0
C2485 C 0.90795 0.27424 0.78162 0.0
C2486 C 0.89899 0.29373 0.76702 0.0
C2487 C 0.90567 0.29559 0.7423 0.0
C2488 C 0.92115 0.27795 0.73193 0.0
C2489 C 0.92986 0.25834 0.74622 0.0
C2490 C 0.92324 0.2564 0.77095 0.0
C2491 C 0.83428 0.20838 0.8728 0.0
C2492 C 0.84431 0.1847 0.87012 0.0
C2493 C 0.84591 0.22902 0.86228 0.0
C2494 C 0.86823 0.22652 0.84945 0.0
C2495 C 0.87755 0.20263 0.84566 0.0
C2496 C 0.86568 0.18188 0.85593 0.0
C2497 C 0.8825 0.2489 0.84143 0.0
C2498 C 0.88967 0.25126 0.81677 0.0
C2499 C 0.88858 0.26818 0.85801 0.0
C2500 C 0.88308 0.26627 0.88462 0.0
C2501 C 0.89171 0.24615 0.89856 0.0
C2502 C 0.88591 0.24415 0.92348 0.0
C2503 C 0.87169 0.26228 0.93472 0.0
C2504 C 0.86331 0.2825 0.92109 0.0
C2505 C 0.86901 0.28457 0.89615 0.0
H2506 H 0.86719 0.26068 0.95401 0.0
H2507 H 0.92637 0.27947 0.71282 0.0
H2508 H 0.08972 0.56673 0.10901 0.0
H2509 H 0.05294 0.58499 0.0897 0.0
H2510 H 0.08197 0.65801 0.10406 0.0
H2511 H 0.11855 0.63996 0.1231 0.0
H2512 H 0.01812 0.61523 0.11054 0.0
H2513 H 0.06415 0.69719 0.05873 0.0
H2514 H 0.10309 0.70666 0.03721 0.0
H2515 H 0.11268 0.62958 0.02161 0.0
H2516 H 0.07365 0.61968 0.04274 0.0
H2517 H 0.93651 0.71534 0.08902 0.0
H2518 H 0.97207 0.68983 0.09981 0.0
H2519 H 0.97563 0.66371 0.02523 0.0
H2520 H 0.94007 0.68952 0.01431 0.0
H2521 H 0.02188 0.67801 0.04391 0.0
H2522 H 0.95413 0.62604 0.06696 0.0
H2523 H 0.91469 0.61622 0.08735 0.0
H2524 H 0.94773 0.63069 0.15768 0.0
H2525 H 0.98728 0.64104 0.13767 0.0
C2526 C 0.08839 0.58666 0.10766 0.0
C2527 C 0.10703 0.60188 0.11765 0.0
C2528 C 0.06729 0.59709 0.0968 0.0
C2529 C 0.06464 0.62292 0.09533 0.0
C2530 C 0.08358 0.63807 0.10473 0.0
C2531 C 0.10447 0.6277 0.11573 0.0
C2532 C 0.04181 0.63428 0.08491 0.0
C2533 C 0.01896 0.62883 0.09587 0.0
C2534 C 0.04272 0.65188 0.06556 0.0
C2535 C 0.06605 0.65769 0.05249 0.0
C2536 C 0.0745 0.68227 0.0506 0.0
C2537 C 0.09661 0.68772 0.0385 0.0
C2538 C 0.11038 0.66873 0.02811 0.0
C2539 C 0.10204 0.64426 0.02974 0.0
C2540 C 0.07994 0.63872 0.04181 0.0
C2541 C 0.94501 0.70438 0.07487 0.0
C2542 C 0.93569 0.70471 0.05076 0.0
C2543 C 0.96519 0.68958 0.08111 0.0
C2544 C 0.97658 0.6748 0.06335 0.0
C2545 C 0.96721 0.67498 0.03925 0.0
C2546 C 0.94679 0.68959 0.03307 0.0
C2547 C 0.99839 0.65944 0.07001 0.0
C2548 C 0.02103 0.66422 0.05841 0.0
C2549 C 0.99726 0.64111 0.08864 0.0
C2550 C 0.97363 0.63449 0.10079 0.0
C2551 C 0.95295 0.62729 0.08676 0.0
C2552 C 0.93057 0.62161 0.09825 0.0
C2553 C 0.92869 0.62287 0.12379 0.0
C2554 C 0.94921 0.62974 0.1379 0.0
C2555 C 0.97162 0.63549 0.12649 0.0
H2556 H 0.91134 0.61848 0.13265 0.0
H2557 H 0.1275 0.67298 0.01877 0.0
H2558 H 0.63686 0.86919 0.38117 0.0
H2559 H 0.6179 0.8343 0.35959 0.0
H2560 H 0.68994 0.80353 0.34694 0.0
H2561 H 0.70905 0.83928 0.3677 0.0
H2562 H 0.66119 0.79343 0.30871 0.0
H2563 H 0.65265 0.78346 0.39521 0.0
H2564 H 0.64201 0.79562 0.43742 0.0
H2565 H 0.56605 0.80338 0.41623 0.0
H2566 H 0.57629 0.79164 0.37377 0.0
H2567 H 0.6053 0.67088 0.2924 0.0
H2568 H 0.63081 0.70588 0.30658 0.0
H2569 H 0.56569 0.75067 0.31247 0.0
H2570 H 0.54042 0.71642 0.2977 0.0
H2571 H 0.59454 0.75071 0.355 0.0
H2572 H 0.60496 0.76102 0.26734 0.0
H2573 H 0.61683 0.74712 0.226 0.0
H2574 H 0.69112 0.73559 0.251 0.0
H2575 H 0.6796 0.7491 0.29261 0.0
C2576 C 0.64866 0.85515 0.37346 0.0
C2577 C 0.6744 0.85682 0.37629 0.0
C2578 C 0.63782 0.8351 0.36124 0.0
C2579 C 0.65237 0.81576 0.3522 0.0
C2580 C 0.67823 0.81803 0.35388 0.0
C2581 C 0.68916 0.83845 0.36574 0.0
C2582 C 0.64035 0.79277 0.34235 0.0
C2583 C 0.64688 0.7839 0.31901 0.0
C2584 C 0.62161 0.78013 0.35565 0.0
C2585 C 0.61529 0.78685 0.38126 0.0
C2586 C 0.6337 0.78789 0.39952 0.0
C2587 C 0.62774 0.79471 0.42349 0.0
C2588 C 0.60338 0.80031 0.42949 0.0
C2589 C 0.58491 0.79905 0.41154 0.0
C2590 C 0.59078 0.7923 0.38753 0.0
C2591 C 0.59646 0.68826 0.29645 0.0
C2592 C 0.57066 0.69057 0.29438 0.0
C2593 C 0.61108 0.70827 0.30456 0.0
C2594 C 0.60016 0.7309 0.31077 0.0
C2595 C 0.57455 0.73338 0.30803 0.0
C2596 C 0.56007 0.71362 0.29968 0.0
C2597 C 0.61491 0.75182 0.32119 0.0
C2598 C 0.60896 0.76019 0.34477 0.0
C2599 C 0.63435 0.76364 0.30824 0.0
C2600 C 0.64135 0.75581 0.28317 0.0
C2601 C 0.62378 0.75533 0.26408 0.0
C2602 C 0.63046 0.74756 0.24059 0.0
C2603 C 0.6547 0.7404 0.23589 0.0
C2604 C 0.67234 0.7411 0.25467 0.0
C2605 C 0.66575 0.74883 0.27821 0.0
H2606 H 0.65983 0.73437 0.2177 0.0
H2607 H 0.5988 0.8056 0.44805 0.0
H2608 H 0.60371 0.35824 0.53734 0.0
H2609 H 0.56793 0.38278 0.54992 0.0
H2610 H 0.52211 0.3172 0.54788 0.0
H2611 H 0.55716 0.29308 0.53459 0.0
H2612 H 0.49698 0.35396 0.53013 0.0
H2613 H 0.54676 0.34083 0.60211 0.0
H2614 H 0.58484 0.34278 0.62699 0.0
H2615 H 0.58504 0.42204 0.62193 0.0
H2616 H 0.54712 0.42053 0.59667 0.0
H2617 H 0.40163 0.37598 0.61631 0.0
H2618 H 0.43825 0.36172 0.59451 0.0
H2619 H 0.46546 0.43673 0.59001 0.0
H2620 H 0.42841 0.45118 0.61162 0.0
H2621 H 0.50101 0.40112 0.60798 0.0
H2622 H 0.44635 0.41222 0.53942 0.0
H2623 H 0.40741 0.4075 0.51627 0.0
H2624 H 0.41539 0.32858 0.51731 0.0
H2625 H 0.45423 0.3328 0.54076 0.0
C2626 C 0.58593 0.34917 0.53927 0.0
C2627 C 0.5835 0.32357 0.53531 0.0
C2628 C 0.56549 0.36318 0.54665 0.0
C2629 C 0.54224 0.35185 0.55026 0.0
C2630 C 0.53971 0.3265 0.54534 0.0
C2631 C 0.55996 0.31262 0.53792 0.0
C2632 C 0.52056 0.36583 0.55984 0.0
C2633 C 0.49792 0.3642 0.5472 0.0
C2634 C 0.52164 0.37959 0.58194 0.0
C2635 C 0.5443 0.38056 0.59726 0.0
C2636 C 0.55503 0.35866 0.60614 0.0
C2637 C 0.57657 0.35968 0.62033 0.0
C2638 C 0.58739 0.38251 0.62598 0.0
C2639 C 0.57666 0.40437 0.6175 0.0
C2640 C 0.55515 0.40345 0.60325 0.0
C2641 C 0.41528 0.38948 0.61044 0.0
C2642 C 0.41211 0.41472 0.61564 0.0
C2643 C 0.43621 0.38132 0.59795 0.0
C2644 C 0.45467 0.39812 0.59057 0.0
C2645 C 0.45148 0.42341 0.59551 0.0
C2646 C 0.43025 0.43167 0.60768 0.0
C2647 C 0.47748 0.38889 0.57843 0.0
C2648 C 0.50025 0.39129 0.59067 0.0
C2649 C 0.47644 0.37545 0.55619 0.0
C2650 C 0.45312 0.37283 0.54201 0.0
C2651 C 0.43971 0.39385 0.53488 0.0
C2652 C 0.41767 0.39126 0.52167 0.0
C2653 C 0.40891 0.36775 0.51536 0.0
C2654 C 0.4222 0.34678 0.52221 0.0
C2655 C 0.44424 0.34926 0.53544 0.0
H2656 H 0.39184 0.36579 0.50513 0.0
H2657 H 0.60406 0.38327 0.63697 0.0
H2658 H 0.16565 0.63886 0.67238 0.0
H2659 H 0.14404 0.67139 0.69492 0.0
H2660 H 0.20137 0.72364 0.67563 0.0
H2661 H 0.22289 0.69126 0.65304 0.0
H2662 H 0.18364 0.73081 0.72354 0.0
H2663 H 0.15249 0.72117 0.64124 0.0
H2664 H 0.13484 0.69829 0.60618 0.0
H2665 H 0.071 0.6794 0.64901 0.0
H2666 H 0.0885 0.70182 0.6845 0.0
H2667 H 0.11675 0.84445 0.73199 0.0
H2668 H 0.14238 0.80951 0.7196 0.0
H2669 H 0.08101 0.75962 0.73159 0.0
H2670 H 0.05542 0.79426 0.74372 0.0
H2671 H 0.10124 0.75054 0.68892 0.0
H2672 H 0.13152 0.76214 0.77099 0.0
H2673 H 0.14867 0.7866 0.80526 0.0
H2674 H 0.21348 0.80292 0.76289 0.0
H2675 H 0.19658 0.7788 0.72824 0.0
C2676 C 0.17393 0.65712 0.67353 0.0
C2677 C 0.19586 0.66259 0.66088 0.0
C2678 C 0.16153 0.67573 0.68628 0.0
C2679 C 0.17096 0.70005 0.68674 0.0
C2680 C 0.19373 0.70507 0.67553 0.0
C2681 C 0.20596 0.68658 0.66257 0.0
C2682 C 0.15606 0.72071 0.69671 0.0
C2683 C 0.16567 0.73522 0.71592 0.0
C2684 C 0.13252 0.72638 0.68693 0.0
C2685 C 0.12196 0.71288 0.66563 0.0
C2686 C 0.13481 0.71192 0.64326 0.0
C2687 C 0.12481 0.69907 0.6233 0.0
C2688 C 0.10185 0.68732 0.62539 0.0
C2689 C 0.08881 0.68845 0.64744 0.0
C2690 C 0.09877 0.70122 0.66749 0.0
C2691 C 0.10884 0.826 0.73227 0.0
C2692 C 0.08398 0.82221 0.73865 0.0
C2693 C 0.12352 0.806 0.72522 0.0
C2694 C 0.11369 0.78183 0.72474 0.0
C2695 C 0.08904 0.77804 0.73169 0.0
C2696 C 0.07441 0.79793 0.73864 0.0
C2697 C 0.12859 0.76055 0.71601 0.0
C2698 C 0.11905 0.74601 0.69683 0.0
C2699 C 0.15214 0.75491 0.72587 0.0
C2700 C 0.16268 0.76883 0.74693 0.0
C2701 C 0.14939 0.77104 0.76894 0.0
C2702 C 0.15906 0.78483 0.78844 0.0
C2703 C 0.18212 0.79637 0.78623 0.0
C2704 C 0.19561 0.794 0.76457 0.0
C2705 C 0.18601 0.78023 0.745 0.0
H2706 H 0.18954 0.80711 0.80133 0.0
H2707 H 0.09412 0.67741 0.6099 0.0
H2708 H 0.43855 0.86217 0.98588 0.0
H2709 H 0.47449 0.88686 0.9732 0.0
H2710 H 0.51365 0.81998 0.95618 0.0
H2711 H 0.47869 0.79547 0.97013 0.0
H2712 H 0.54395 0.84977 0.97686 0.0
H2713 H 0.48445 0.85852 0.91127 0.0
H2714 H 0.4441 0.86943 0.89332 0.0
H2715 H 0.4538 0.94451 0.9171 0.0
H2716 H 0.4941 0.93395 0.93547 0.0
H2717 H 0.632 0.88587 0.88859 0.0
H2718 H 0.59652 0.86924 0.9108 0.0
H2719 H 0.57534 0.94306 0.93104 0.0
H2720 H 0.61091 0.95997 0.90838 0.0
H2721 H 0.53584 0.91506 0.91319 0.0
H2722 H 0.59924 0.90537 0.97398 0.0
H2723 H 0.63991 0.89265 0.98986 0.0
H2724 H 0.62308 0.81697 0.97252 0.0
H2725 H 0.58244 0.82927 0.95623 0.0
C2726 C 0.45485 0.85274 0.97953 0.0
C2727 C 0.45538 0.82674 0.97844 0.0
C2728 C 0.47539 0.8669 0.97211 0.0
C2729 C 0.49676 0.85539 0.9632 0.0
C2730 C 0.49746 0.82945 0.9628 0.0
C2731 C 0.47718 0.81537 0.97048 0.0
C2732 C 0.51846 0.86998 0.95407 0.0
C2733 C 0.54211 0.86393 0.96283 0.0
C2734 C 0.51624 0.88897 0.93618 0.0
C2735 C 0.49214 0.89539 0.92498 0.0
C2736 C 0.4779 0.87732 0.91281 0.0
C2737 C 0.45506 0.88344 0.90254 0.0
C2738 C 0.44636 0.90763 0.90414 0.0
C2739 C 0.46054 0.92577 0.91592 0.0
C2740 C 0.48339 0.91973 0.92625 0.0
C2741 C 0.61984 0.89862 0.89778 0.0
C2742 C 0.62425 0.92428 0.89658 0.0
C2743 C 0.59962 0.88905 0.91065 0.0
C2744 C 0.58328 0.90485 0.92276 0.0
C2745 C 0.58771 0.9305 0.92188 0.0
C2746 C 0.60813 0.94012 0.90908 0.0
C2747 C 0.56124 0.89433 0.93555 0.0
C2748 C 0.53758 0.90115 0.92749 0.0
C2749 C 0.56345 0.87575 0.95381 0.0
C2750 C 0.58784 0.86828 0.96375 0.0
C2751 C 0.60427 0.88604 0.97341 0.0
C2752 C 0.62731 0.8789 0.98251 0.0
C2753 C 0.63409 0.85403 0.98217 0.0
C2754 C 0.61781 0.83623 0.97277 0.0
C2755 C 0.59475 0.84327 0.96364 0.0
H2756 H 0.65194 0.84854 0.98921 0.0
H2757 H 0.42866 0.91234 0.89619 0.0
H2758 H 0.8998 0.10847 0.41712 0.0
H2759 H 0.93305 0.13008 0.43948 0.0
H2760 H 0.98673 0.08277 0.40568 0.0
H2761 H 0.95376 0.06115 0.38362 0.0
H2762 H 0.99767 0.09021 0.4536 0.0
H2763 H 0.9745 0.14018 0.38339 0.0
H2764 H 0.94611 0.16458 0.35761 0.0
H2765 H 0.9332 0.21387 0.41773 0.0
H2766 H 0.96123 0.18951 0.444 0.0
H2767 H 0.11075 0.15525 0.45635 0.0
H2768 H 0.07231 0.13463 0.44387 0.0
H2769 H 0.03038 0.18939 0.48272 0.0
H2770 H 0.06892 0.21 0.49532 0.0
H2771 H 0.01033 0.17979 0.43779 0.0
H2772 H 0.03645 0.13289 0.50675 0.0
H2773 H 0.06553 0.10946 0.53265 0.0
H2774 H 0.07308 0.05525 0.47587 0.0
H2775 H 0.04436 0.07858 0.44943 0.0
C2776 C 0.91867 0.10247 0.41481 0.0
C2777 C 0.92419 0.08326 0.39844 0.0
C2778 C 0.93767 0.11493 0.42745 0.0
C2779 C 0.96249 0.10828 0.42404 0.0
C2780 C 0.9678 0.08834 0.40859 0.0
C2781 C 0.94893 0.07606 0.39587 0.0
C2782 C 0.98319 0.12252 0.43556 0.0
C2783 C 1.0005 0.10977 0.45002 0.0
C2784 C 0.98659 0.14824 0.43153 0.0
C2785 C 0.96964 0.16278 0.41577 0.0
C2786 C 0.96539 0.15606 0.39119 0.0
C2787 C 0.94941 0.16991 0.37647 0.0
C2788 C 0.93777 0.19069 0.38605 0.0
C2789 C 0.94216 0.19771 0.41036 0.0
C2790 C 0.95808 0.18388 0.42517 0.0
C2791 C 0.09331 0.16289 0.46216 0.0
C2792 C 0.09277 0.1845 0.47632 0.0
C2793 C 0.07136 0.15106 0.45512 0.0
C2794 C 0.0484 0.16032 0.4625 0.0
C2795 C 0.04783 0.18189 0.47677 0.0
C2796 C 0.06984 0.1937 0.48388 0.0
C2797 C 0.02513 0.14735 0.45522 0.0
C2798 C 1.00736 0.16031 0.44161 0.0
C2799 C 0.02125 0.12187 0.46009 0.0
C2800 C 0.03837 0.1076 0.47602 0.0
C2801 C 0.04444 0.11607 0.4997 0.0
C2802 C 0.06085 0.10279 0.51449 0.0
C2803 C 0.07117 0.0809 0.5059 0.0
C2804 C 0.06507 0.07221 0.4825 0.0
C2805 C 0.04871 0.08545 0.46761 0.0
H2806 H 0.08387 0.07065 0.51738 0.0
H2807 H 0.92542 0.20141 0.37462 0.0
loop_
_geom_bond_atom_site_label_1
_geom_bond_atom_site_label_2
_geom_bond_distance
_geom_bond_site_symmetry_2
_ccdc_geom_bond_type
Eu0 N31 2.657 . S
Eu0 N38 2.609 . S
Eu0 O44 2.558 . S
Eu0 O45 2.612 . S
Eu0 O47 2.339 . S
Eu0 O48 2.563 . S
Eu0 O49 2.419 . S
Eu0 O51 2.380 . S
Eu0 O52 2.432 . S
Eu0 C64 2.848 . S
C1 C4 1.429 . S
C1 C5 1.411 . S
C1 N8 1.377 . S
C2 C4 1.420 . S
C2 C6 1.423 . S
C2 C14 1.392 . S
C3 C5 1.420 . S
C3 C6 1.351 . S
C3 H26 0.931 . S
C4 C1 1.429 . S
C4 C2 1.420 . S
C4 N12 1.362 . S
C5 C1 1.411 . S
C5 C3 1.420 . S
C5 C10 1.395 . S
C6 C2 1.423 . S
C6 C3 1.351 . S
C6 H18 0.930 . S
C7 C9 1.400 . S
C7 C10 1.386 . S
C7 H19 0.930 . S
N8 C1 1.377 . S
N8 C9 1.321 . S
N8 Eu11 2.609 . S
C9 C7 1.400 . S
C9 N8 1.321 . S
C9 H16 0.930 . S
C10 C5 1.395 . S
C10 C7 1.386 . S
C10 H29 0.930 . S
Eu11 N8 2.609 . S
Eu11 N12 2.657 . S
Eu11 O45 2.380 . S
Eu11 O46 2.432 . S
Eu11 O50 2.558 . S
Eu11 O51 2.612 . S
Eu11 O53 2.339 . S
Eu11 O54 2.563 . S
Eu11 O55 2.419 . S
Eu11 C75 2.848 . S
N12 C4 1.362 . S
N12 Eu11 2.657 . S
N12 C13 1.334 . S
C13 N12 1.334 . S
C13 C15 1.413 . S
C13 H20 0.929 . S
C14 C2 1.392 . S
C14 C15 1.367 . S
C14 H22 0.930 . S
C15 C13 1.413 . S
C15 C14 1.367 . S
C15 H17 0.930 . S
H16 C9 0.930 . S
H17 C15 0.930 . S
H18 C6 0.930 . S
H19 C7 0.930 . S
H20 C13 0.929 . S
H21 C35 0.930 . S
H22 C14 0.930 . S
H23 C41 0.930 . S
H24 C32 0.929 . S
H25 C39 0.930 . S
H26 C3 0.931 . S
H27 C33 0.930 . S
H28 C66 0.930 . S
H29 C10 0.930 . S
H30 C65 0.931 . S
N31 Eu0 2.657 . S
N31 C32 1.334 . S
N31 C36 1.362 . S
C32 H24 0.929 . S
C32 N31 1.334 . S
C32 C35 1.413 . S
C33 H27 0.930 . S
C33 C34 1.392 . S
C33 C35 1.367 . S
C34 C33 1.392 . S
C34 C36 1.420 . S
C34 C66 1.423 . S
C35 H21 0.930 . S
C35 C32 1.413 . S
C35 C33 1.367 . S
C36 N31 1.362 . S
C36 C34 1.420 . S
C36 C40 1.429 . S
H37 C42 0.930 . S
N38 Eu0 2.609 . S
N38 C40 1.377 . S
N38 C41 1.321 . S
C39 H25 0.930 . S
C39 C41 1.400 . S
C39 C42 1.386 . S
C40 C36 1.429 . S
C40 N38 1.377 . S
C40 C43 1.411 . S
C41 H23 0.930 . S
C41 N38 1.321 . S
C41 C39 1.400 . S
C42 H37 0.930 . S
C42 C39 1.386 . S
C42 C43 1.395 . S
C43 C40 1.411 . S
C43 C42 1.395 . S
C43 C65 1.420 . S
O44 Eu0 2.558 . S
O44 C64 1.257 . S
O45 Eu0 2.612 . S
O45 Eu11 2.380 . S
O45 C56 1.276 . S
O46 Eu11 2.432 . S
O46 C63 1.264 . S
O47 Eu0 2.339 . S
O47 C63 1.254 . S
O48 Eu0 2.563 . S
O48 C56 1.235 . S
O49 Eu0 2.419 . S
O49 C64 1.249 . S
O50 Eu11 2.558 . S
O50 C75 1.257 . S
O51 Eu0 2.380 . S
O51 Eu11 2.612 . S
O51 C67 1.276 . S
O52 Eu0 2.432 . S
O52 C74 1.264 . S
O53 Eu11 2.339 . S
O53 C74 1.254 . S
O54 Eu11 2.563 . S
O54 C67 1.235 . S
O55 Eu11 2.419 . S
O55 C75 1.249 . S
C56 O45 1.276 . S
C56 O48 1.235 . S
C57 C59 1.393 . S
C57 C61 1.395 . S
C57 C64 1.492 . S
C58 C59 1.392 . S
C58 C60 1.386 . S
C59 C57 1.393 . S
C59 C58 1.392 . S
C59 H76 0.930 . S
C60 C58 1.386 . S
C60 C62 1.395 . S
C60 H77 0.930 . S
C61 C57 1.395 . S
C61 C62 1.379 . S
C61 H78 0.930 . S
C62 C60 1.395 . S
C62 C61 1.379 . S
C62 H79 0.930 . S
C63 O46 1.264 . S
C63 O47 1.254 . S
C64 Eu0 2.848 . S
C64 O44 1.257 . S
C64 O49 1.249 . S
C64 C57 1.492 . S
C65 H30 0.931 . S
C65 C43 1.420 . S
C65 C66 1.351 . S
C66 H28 0.930 . S
C66 C34 1.423 . S
C66 C65 1.351 . S
C67 O51 1.276 . S
C67 O54 1.235 . S
C68 C69 1.393 . S
C68 C72 1.395 . S
C68 C75 1.492 . S
C69 C68 1.393 . S
C69 C70 1.392 . S
C69 H80 0.930 . S
C70 C69 1.392 . S
C70 C71 1.386 . S
C71 C70 1.386 . S
C71 C73 1.395 . S
C71 H81 0.930 . S
C72 C68 1.395 . S
C72 C73 1.379 . S
C72 H82 0.930 . S
C73 C71 1.395 . S
C73 C72 1.379 . S
C73 H83 0.930 . S
C74 O52 1.264 . S
C74 O53 1.254 . S
C75 Eu11 2.848 . S
C75 O50 1.257 . S
C75 O55 1.249 . S
C75 C68 1.492 . S
H76 C59 0.930 . S
H77 C60 0.930 . S
H78 C61 0.930 . S
H79 C62 0.930 . S
H80 C69 0.930 . S
H81 C71 0.930 . S
H82 C72 0.930 . S
H83 C73 0.930 . S
Eu84 N115 2.657 . S
Eu84 N122 2.609 . S
Eu84 O128 2.558 . S
Eu84 O129 2.612 1_655 S
Eu84 O131 2.339 . S
Eu84 O132 2.563 1_655 S
Eu84 O133 2.419 . S
Eu84 O135 2.380 1_655 S
Eu84 O136 2.432 1_655 S
Eu84 C148 2.848 . S
C85 C88 1.429 . S
C85 C89 1.411 . S
C85 N92 1.377 . S
C86 C88 1.420 . S
C86 C90 1.423 . S
C86 C98 1.392 . S
C87 C89 1.420 . S
C87 C90 1.351 . S
C87 H110 0.931 . S
C88 C85 1.429 . S
C88 C86 1.420 . S
C88 N96 1.362 . S
C89 C85 1.411 . S
C89 C87 1.420 . S
C89 C94 1.395 . S
C90 C86 1.423 . S
C90 C87 1.351 . S
C90 H102 0.930 . S
C91 C93 1.400 . S
C91 C94 1.386 . S
C91 H103 0.930 . S
N92 C85 1.377 . S
N92 C93 1.321 . S
N92 Eu95 2.609 . S
C93 C91 1.400 . S
C93 N92 1.321 . S
C93 H100 0.930 . S
C94 C89 1.395 . S
C94 C91 1.386 . S
C94 H113 0.930 . S
Eu95 N92 2.609 . S
Eu95 N96 2.657 . S
Eu95 O129 2.380 . S
Eu95 O130 2.432 . S
Eu95 O134 2.558 . S
Eu95 O135 2.612 . S
Eu95 O137 2.339 . S
Eu95 O138 2.563 . S
Eu95 O139 2.419 . S
Eu95 C159 2.848 . S
N96 C88 1.362 . S
N96 Eu95 2.657 . S
N96 C97 1.334 . S
C97 N96 1.334 . S
C97 C99 1.413 . S
C97 H104 0.929 . S
C98 C86 1.392 . S
C98 C99 1.367 . S
C98 H106 0.930 . S
C99 C97 1.413 . S
C99 C98 1.367 . S
C99 H101 0.930 . S
H100 C93 0.930 . S
H101 C99 0.930 . S
H102 C90 0.930 . S
H103 C91 0.930 . S
H104 C97 0.929 . S
H105 C119 0.930 . S
H106 C98 0.930 . S
H107 C125 0.930 1_455 S
H108 C116 0.929 . S
H109 C123 0.955 . S
H110 C87 0.931 . S
H111 C117 0.930 . S
H112 C150 0.930 . S
H113 C94 0.930 . S
H114 C149 0.931 . S
N115 Eu84 2.657 . S
N115 C116 1.334 . S
N115 C120 1.362 . S
C116 H108 0.929 . S
C116 N115 1.334 . S
C116 C119 1.413 . S
C117 H111 0.930 . S
C117 C118 1.392 . S
C117 C119 1.367 . S
C118 C117 1.392 . S
C118 C120 1.420 . S
C118 C150 1.423 . S
C119 H105 0.930 . S
C119 C116 1.413 . S
C119 C117 1.367 . S
C120 N115 1.362 . S
C120 C118 1.420 . S
C120 C124 1.429 . S
H121 C126 0.930 . S
N122 Eu84 2.609 . S
N122 C124 1.377 . S
N122 C125 1.321 . S
C123 H109 0.955 . S
C123 C125 1.400 . S
C123 C126 1.386 . S
C124 C120 1.429 . S
C124 N122 1.377 . S
C124 C127 1.411 . S
C125 H107 0.930 1_655 S
C125 N122 1.321 . S
C125 C123 1.400 . S
C126 H121 0.930 . S
C126 C123 1.386 . S
C126 C127 1.395 . S
C127 C124 1.411 . S
C127 C126 1.395 . S
C127 C149 1.420 . S
O128 Eu84 2.558 . S
O128 C148 1.257 . S
O129 Eu84 2.612 1_455 S
O129 Eu95 2.380 . S
O129 C140 1.276 . S
O130 Eu95 2.432 . S
O130 C147 1.264 1_455 S
O131 Eu84 2.339 . S
O131 C147 1.254 . S
O132 Eu84 2.563 1_455 S
O132 C140 1.235 . S
O133 Eu84 2.419 . S
O133 C148 1.249 . S
O134 Eu95 2.558 . S
O134 C159 1.257 . S
O135 Eu84 2.380 1_455 S
O135 Eu95 2.612 . S
O135 C151 1.276 . S
O136 Eu84 2.432 1_455 S
O136 C158 1.264 . S
O137 Eu95 2.339 . S
O137 C158 1.254 . S
O138 Eu95 2.563 . S
O138 C151 1.235 . S
O139 Eu95 2.419 . S
O139 C159 1.249 . S
C140 O129 1.276 . S
C140 O132 1.235 . S
C141 C143 1.393 . S
C141 C145 1.395 . S
C141 C148 1.492 . S
C142 C143 1.392 . S
C142 C144 1.386 . S
C143 C141 1.393 . S
C143 C142 1.392 . S
C143 H160 0.930 . S
C144 C142 1.386 . S
C144 C146 1.395 . S
C144 H161 0.930 . S
C145 C141 1.395 . S
C145 C146 1.379 . S
C145 H162 0.930 . S
C146 C144 1.395 . S
C146 C145 1.379 . S
C146 H163 0.930 . S
C147 O130 1.264 1_655 S
C147 O131 1.254 . S
C148 Eu84 2.848 . S
C148 O128 1.257 . S
C148 O133 1.249 . S
C148 C141 1.492 . S
C149 H114 0.931 . S
C149 C127 1.420 . S
C149 C150 1.351 . S
C150 H112 0.930 . S
C150 C118 1.423 . S
C150 C149 1.351 . S
C151 O135 1.276 . S
C151 O138 1.235 . S
C152 C153 1.393 . S
C152 C156 1.395 . S
C152 C159 1.492 . S
C153 C152 1.393 . S
C153 C154 1.392 . S
C153 H164 0.930 . S
C154 C153 1.392 . S
C154 C155 1.386 . S
C155 C154 1.386 . S
C155 C157 1.395 . S
C155 H165 0.930 . S
C156 C152 1.395 . S
C156 C157 1.379 . S
C156 H166 0.930 . S
C157 C155 1.395 . S
C157 C156 1.379 . S
C157 H167 0.930 . S
C158 O136 1.264 . S
C158 O137 1.254 . S
C159 Eu95 2.848 . S
C159 O134 1.257 . S
C159 O139 1.249 . S
C159 C152 1.492 . S
H160 C143 0.930 . S
H161 C144 0.930 . S
H162 C145 0.930 . S
H163 C146 0.930 . S
H164 C153 0.930 . S
H165 C155 0.930 . S
H166 C156 0.930 . S
H167 C157 0.930 . S
Eu168 N199 2.657 . S
Eu168 N206 2.609 . S
Eu168 O212 2.558 . S
Eu168 O213 2.612 . S
Eu168 O215 2.339 . S
Eu168 O216 2.563 . S
Eu168 O217 2.419 . S
Eu168 O219 2.384 1_556 S
Eu168 O220 2.432 . S
Eu168 C232 2.848 . S
C169 C172 1.429 1_554 S
C169 C173 1.411 . S
C169 N176 1.377 . S
C170 C172 1.420 . S
C170 C174 1.423 . S
C170 C182 1.392 . S
C171 C173 1.420 . S
C171 C174 1.351 1_554 S
C171 H194 0.931 . S
C172 C169 1.429 1_556 S
C172 C170 1.420 . S
C172 N180 1.362 . S
C173 C169 1.411 . S
C173 C171 1.420 . S
C173 C178 1.395 . S
C174 C170 1.423 . S
C174 C171 1.351 1_556 S
C174 H186 0.930 . S
C175 C177 1.400 . S
C175 C178 1.386 . S
C175 H187 0.930 . S
N176 C169 1.377 . S
N176 C177 1.321 . S
N176 Eu179 2.609 . S
C177 C175 1.400 . S
C177 N176 1.321 . S
C177 H184 0.930 . S
C178 C173 1.395 . S
C178 C175 1.386 . S
C178 H197 0.930 . S
Eu179 N176 2.609 . S
Eu179 N180 2.657 1_554 S
Eu179 O213 2.380 1_554 S
Eu179 O214 2.432 . S
Eu179 O218 2.558 . S
Eu179 O219 2.611 . S
Eu179 O221 2.339 1_554 S
Eu179 O222 2.563 . S
Eu179 O223 2.419 . S
Eu179 C243 2.848 . S
N180 C172 1.362 . S
N180 Eu179 2.657 1_556 S
N180 C181 1.334 . S
C181 N180 1.334 . S
C181 C183 1.413 . S
C181 H188 0.929 . S
C182 C170 1.392 . S
C182 C183 1.367 . S
C182 H190 0.930 . S
C183 C181 1.413 . S
C183 C182 1.367 . S
C183 H185 0.930 . S
H184 C177 0.930 . S
H185 C183 0.930 . S
H186 C174 0.930 . S
H187 C175 0.930 . S
H188 C181 0.929 . S
H189 C203 0.930 . S
H190 C182 0.930 . S
H191 C209 0.930 . S
H192 C200 0.929 . S
H193 C207 0.930 . S
H194 C171 0.931 . S
H195 C201 0.930 . S
H196 C234 0.930 . S
H197 C178 0.930 . S
H198 C233 0.931 . S
N199 Eu168 2.657 . S
N199 C200 1.334 1_556 S
N199 C204 1.362 . S
C200 H192 0.929 . S
C200 N199 1.334 1_554 S
C200 C203 1.413 . S
C201 H195 0.930 . S
C201 C202 1.392 1_554 S
C201 C203 1.367 . S
C202 C201 1.392 1_556 S
C202 C204 1.420 . S
C202 C234 1.423 . S
C203 H189 0.930 . S
C203 C200 1.413 . S
C203 C201 1.367 . S
C204 N199 1.362 . S
C204 C202 1.420 . S
C204 C208 1.429 . S
H205 C210 0.930 . S
N206 Eu168 2.609 . S
N206 C208 1.377 . S
N206 C209 1.321 . S
C207 H193 0.930 . S
C207 C209 1.400 . S
C207 C210 1.386 . S
C208 C204 1.429 . S
C208 N206 1.377 . S
C208 C211 1.411 . S
C209 H191 0.930 . S
C209 N206 1.321 . S
C209 C207 1.400 . S
C210 H205 0.930 . S
C210 C207 1.386 . S
C210 C211 1.395 . S
C211 C208 1.411 . S
C211 C210 1.395 . S
C211 C233 1.420 . S
O212 Eu168 2.558 . S
O212 C232 1.257 . S
O213 Eu168 2.612 . S
O213 Eu179 2.380 1_556 S
O213 C224 1.276 . S
O214 Eu179 2.432 . S
O214 C231 1.295 . S
O215 Eu168 2.339 . S
O215 C231 1.226 1_556 S
O216 Eu168 2.563 . S
O216 C224 1.235 . S
O217 Eu168 2.419 . S
O217 C232 1.249 . S
O218 Eu179 2.558 . S
O218 C243 1.257 . S
O219 Eu168 2.384 1_554 S
O219 Eu179 2.611 . S
O219 C235 1.272 . S
O220 Eu168 2.432 . S
O220 C242 1.264 . S
O221 Eu179 2.339 1_556 S
O221 C242 1.254 . S
O222 Eu179 2.563 . S
O222 C235 1.235 . S
O223 Eu179 2.419 . S
O223 C243 1.249 . S
C224 O213 1.276 . S
C224 O216 1.235 . S
C225 C227 1.393 . S
C225 C229 1.395 . S
C225 C232 1.492 . S
C226 C227 1.392 . S
C226 C228 1.386 . S
C227 C225 1.393 . S
C227 C226 1.392 . S
C227 H244 0.930 . S
C228 C226 1.386 . S
C228 C230 1.395 . S
C228 H245 0.930 . S
C229 C225 1.395 . S
C229 C230 1.379 . S
C229 H246 0.930 . S
C230 C228 1.395 . S
C230 C229 1.379 . S
C230 H247 0.930 . S
C231 O214 1.295 . S
C231 O215 1.226 1_554 S
C232 Eu168 2.848 . S
C232 O212 1.257 . S
C232 O217 1.249 . S
C232 C225 1.492 . S
C233 H198 0.931 . S
C233 C211 1.420 . S
C233 C234 1.351 . S
C234 H196 0.930 . S
C234 C202 1.423 . S
C234 C233 1.351 . S
C235 O219 1.272 . S
C235 O222 1.235 . S
C236 C237 1.393 . S
C236 C240 1.395 . S
C236 C243 1.492 . S
C237 C236 1.393 . S
C237 C238 1.392 . S
C237 H248 0.930 . S
C238 C237 1.392 . S
C238 C239 1.386 . S
C239 C238 1.386 . S
C239 C241 1.395 . S
C239 H249 0.930 . S
C240 C236 1.395 . S
C240 C241 1.379 . S
C240 H250 0.930 . S
C241 C239 1.395 . S
C241 C240 1.379 . S
C241 H251 0.930 . S
C242 O220 1.264 . S
C242 O221 1.254 . S
C243 Eu179 2.848 . S
C243 O218 1.257 . S
C243 O223 1.249 . S
C243 C236 1.492 . S
H244 C227 0.930 . S
H245 C228 0.930 . S
H246 C229 0.930 . S
H247 C230 0.930 . S
H248 C237 0.930 . S
H249 C239 0.930 . S
H250 C240 0.930 . S
H251 C241 0.930 . S
Eu252 N283 2.657 . S
Eu252 N290 2.609 . S
Eu252 O296 2.558 . S
Eu252 O297 2.612 . S
Eu252 O299 2.339 . S
Eu252 O300 2.563 . S
Eu252 O301 2.419 . S
Eu252 O303 2.380 . S
Eu252 O304 2.432 . S
Eu252 C316 2.848 . S
C253 C256 1.429 . S
C253 C257 1.411 . S
C253 N260 1.377 . S
C254 C256 1.420 . S
C254 C258 1.423 . S
C254 C266 1.392 . S
C255 C257 1.420 . S
C255 C258 1.351 . S
C255 H278 0.931 . S
C256 C253 1.429 . S
C256 C254 1.420 . S
C256 N264 1.362 . S
C257 C253 1.411 . S
C257 C255 1.420 . S
C257 C262 1.395 . S
C258 C254 1.423 . S
C258 C255 1.351 . S
C258 H270 0.930 . S
C259 C261 1.400 . S
C259 C262 1.386 . S
C259 H271 0.930 . S
N260 C253 1.377 . S
N260 C261 1.321 . S
N260 Eu263 2.609 . S
C261 C259 1.400 . S
C261 N260 1.321 . S
C261 H268 0.930 . S
C262 C257 1.395 . S
C262 C259 1.386 . S
C262 H281 0.930 . S
Eu263 N260 2.609 . S
Eu263 N264 2.657 . S
Eu263 O297 2.380 . S
Eu263 O298 2.432 . S
Eu263 O302 2.558 . S
Eu263 O303 2.612 . S
Eu263 O305 2.339 . S
Eu263 O306 2.563 . S
Eu263 O307 2.419 . S
Eu263 C327 2.848 . S
N264 C256 1.362 . S
N264 Eu263 2.657 . S
N264 C265 1.334 . S
C265 N264 1.334 . S
C265 C267 1.413 . S
C265 H272 0.929 . S
C266 C254 1.392 . S
C266 C267 1.367 . S
C266 H274 0.930 . S
C267 C265 1.413 . S
C267 C266 1.367 . S
C267 H269 0.930 . S
H268 C261 0.930 . S
H269 C267 0.930 . S
H270 C258 0.930 . S
H271 C259 0.930 . S
H272 C265 0.929 . S
H273 C287 0.930 . S
H274 C266 0.930 . S
H275 C293 0.930 . S
H276 C284 0.929 . S
H277 C291 0.930 . S
H278 C255 0.931 . S
H279 C285 0.930 . S
H280 C318 0.930 . S
H281 C262 0.930 . S
H282 C317 0.931 . S
N283 Eu252 2.657 . S
N283 C284 1.334 . S
N283 C288 1.362 . S
C284 H276 0.929 . S
C284 N283 1.334 . S
C284 C287 1.413 . S
C285 H279 0.930 . S
C285 C286 1.392 . S
C285 C287 1.367 . S
C286 C285 1.392 . S
C286 C288 1.420 . S
C286 C318 1.423 . S
C287 H273 0.930 . S
C287 C284 1.413 . S
C287 C285 1.367 . S
C288 N283 1.362 . S
C288 C286 1.420 . S
C288 C292 1.429 . S
H289 C294 0.930 . S
N290 Eu252 2.609 . S
N290 C292 1.377 . S
N290 C293 1.321 . S
C291 H277 0.930 . S
C291 C293 1.400 . S
C291 C294 1.386 . S
C292 C288 1.429 . S
C292 N290 1.377 . S
C292 C295 1.411 . S
C293 H275 0.930 . S
C293 N290 1.321 . S
C293 C291 1.400 . S
C294 H289 0.930 . S
C294 C291 1.386 . S
C294 C295 1.395 . S
C295 C292 1.411 . S
C295 C294 1.395 . S
C295 C317 1.420 . S
O296 Eu252 2.558 . S
O296 C316 1.257 . S
O297 Eu252 2.612 . S
O297 Eu263 2.380 . S
O297 C308 1.276 . S
O298 Eu263 2.432 . S
O298 C315 1.264 . S
O299 Eu252 2.339 . S
O299 C315 1.254 . S
O300 Eu252 2.563 . S
O300 C308 1.235 . S
O301 Eu252 2.419 . S
O301 C316 1.249 . S
O302 Eu263 2.558 . S
O302 C327 1.257 . S
O303 Eu252 2.380 . S
O303 Eu263 2.612 . S
O303 C319 1.276 . S
O304 Eu252 2.432 . S
O304 C326 1.264 . S
O305 Eu263 2.339 . S
O305 C326 1.254 . S
O306 Eu263 2.563 . S
O306 C319 1.235 . S
O307 Eu263 2.419 . S
O307 C327 1.249 . S
C308 O297 1.276 . S
C308 O300 1.235 . S
C309 C311 1.393 . S
C309 C313 1.395 . S
C309 C316 1.492 . S
C310 C311 1.392 . S
C310 C312 1.386 . S
C311 C309 1.393 . S
C311 C310 1.392 . S
C311 H328 0.930 . S
C312 C310 1.386 . S
C312 C314 1.395 . S
C312 H329 0.930 . S
C313 C309 1.395 . S
C313 C314 1.379 . S
C313 H330 0.930 . S
C314 C312 1.395 . S
C314 C313 1.379 . S
C314 H331 0.930 . S
C315 O298 1.264 . S
C315 O299 1.254 . S
C316 Eu252 2.848 . S
C316 O296 1.257 . S
C316 O301 1.249 . S
C316 C309 1.492 . S
C317 H282 0.931 . S
C317 C295 1.420 . S
C317 C318 1.351 . S
C318 H280 0.930 . S
C318 C286 1.423 . S
C318 C317 1.351 . S
C319 O303 1.276 . S
C319 O306 1.235 . S
C320 C321 1.393 . S
C320 C324 1.395 . S
C320 C327 1.492 . S
C321 C320 1.393 . S
C321 C322 1.392 . S
C321 H332 0.930 . S
C322 C321 1.392 . S
C322 C323 1.386 . S
C323 C322 1.386 . S
C323 C325 1.395 . S
C323 H333 0.930 . S
C324 C320 1.395 . S
C324 C325 1.379 . S
C324 H334 0.930 . S
C325 C323 1.395 . S
C325 C324 1.379 . S
C325 H335 0.930 . S
C326 O304 1.264 . S
C326 O305 1.254 . S
C327 Eu263 2.848 . S
C327 O302 1.257 . S
C327 O307 1.249 . S
C327 C320 1.492 . S
H328 C311 0.930 . S
H329 C312 0.930 . S
H330 C313 0.930 . S
H331 C314 0.930 . S
H332 C321 0.930 . S
H333 C323 0.930 . S
H334 C324 0.930 . S
H335 C325 0.930 . S
Eu336 N367 2.657 . S
Eu336 N374 2.609 . S
Eu336 O380 2.558 . S
Eu336 O381 2.612 . S
Eu336 O383 2.339 . S
Eu336 O384 2.563 . S
Eu336 O385 2.419 . S
Eu336 O387 2.380 . S
Eu336 O388 2.432 . S
Eu336 C400 2.848 . S
C337 C340 1.429 . S
C337 C341 1.411 . S
C337 N344 1.377 . S
C338 C340 1.420 . S
C338 C342 1.423 . S
C338 C350 1.392 . S
C339 C341 1.420 . S
C339 C342 1.351 . S
C339 H362 0.931 . S
C340 C337 1.429 . S
C340 C338 1.420 . S
C340 N348 1.362 . S
C341 C337 1.411 . S
C341 C339 1.420 . S
C341 C346 1.395 . S
C342 C338 1.423 . S
C342 C339 1.351 . S
C342 H354 0.930 . S
C343 C345 1.400 . S
C343 C346 1.386 . S
C343 H355 0.930 . S
N344 C337 1.377 . S
N344 C345 1.321 . S
N344 Eu347 2.609 . S
C345 C343 1.400 . S
C345 N344 1.321 . S
C345 H352 0.930 . S
C346 C341 1.395 . S
C346 C343 1.386 . S
C346 H365 0.930 . S
Eu347 N344 2.609 . S
Eu347 N348 2.657 . S
Eu347 O381 2.380 . S
Eu347 O382 2.432 . S
Eu347 O386 2.558 . S
Eu347 O387 2.612 . S
Eu347 O389 2.339 . S
Eu347 O390 2.563 . S
Eu347 O391 2.419 . S
Eu347 C411 2.848 . S
N348 C340 1.362 . S
N348 Eu347 2.657 . S
N348 C349 1.334 . S
C349 N348 1.334 . S
C349 C351 1.413 . S
C349 H356 0.929 . S
C350 C338 1.392 . S
C350 C351 1.367 . S
C350 H358 0.930 . S
C351 C349 1.413 . S
C351 C350 1.367 . S
C351 H353 0.930 . S
H352 C345 0.930 . S
H353 C351 0.930 . S
H354 C342 0.930 . S
H355 C343 0.930 . S
H356 C349 0.929 . S
H357 C371 0.930 . S
H358 C350 0.930 . S
H359 C377 0.930 . S
H360 C368 0.929 . S
H361 C375 0.930 . S
H362 C339 0.931 . S
H363 C369 0.930 . S
H364 C402 0.930 . S
H365 C346 0.930 . S
H366 C401 0.931 . S
N367 Eu336 2.657 . S
N367 C368 1.334 . S
N367 C372 1.362 . S
C368 H360 0.929 . S
C368 N367 1.334 . S
C368 C371 1.413 . S
C369 H363 0.930 . S
C369 C370 1.392 . S
C369 C371 1.367 . S
C370 C369 1.392 . S
C370 C372 1.420 . S
C370 C402 1.423 . S
C371 H357 0.930 . S
C371 C368 1.413 . S
C371 C369 1.367 . S
C372 N367 1.362 . S
C372 C370 1.420 . S
C372 C376 1.429 . S
H373 C378 0.930 . S
N374 Eu336 2.609 . S
N374 C376 1.377 . S
N374 C377 1.321 . S
C375 H361 0.930 . S
C375 C377 1.400 . S
C375 C378 1.386 . S
C376 C372 1.429 . S
C376 N374 1.377 . S
C376 C379 1.411 . S
C377 H359 0.930 . S
C377 N374 1.321 . S
C377 C375 1.400 . S
C378 H373 0.930 . S
C378 C375 1.386 . S
C378 C379 1.395 . S
C379 C376 1.411 . S
C379 C378 1.395 . S
C379 C401 1.420 . S
O380 Eu336 2.558 . S
O380 C400 1.257 . S
O381 Eu336 2.612 . S
O381 Eu347 2.380 . S
O381 C392 1.276 . S
O382 Eu347 2.432 . S
O382 C399 1.264 . S
O383 Eu336 2.339 . S
O383 C399 1.254 . S
O384 Eu336 2.563 . S
O384 C392 1.235 . S
O385 Eu336 2.419 . S
O385 C400 1.249 . S
O386 Eu347 2.558 . S
O386 C411 1.257 . S
O387 Eu336 2.380 . S
O387 Eu347 2.612 . S
O387 C403 1.276 . S
O388 Eu336 2.432 . S
O388 C410 1.264 . S
O389 Eu347 2.339 . S
O389 C410 1.254 . S
O390 Eu347 2.563 . S
O390 C403 1.235 . S
O391 Eu347 2.419 . S
O391 C411 1.249 . S
C392 O381 1.276 . S
C392 O384 1.235 . S
C393 C395 1.393 . S
C393 C397 1.395 . S
C393 C400 1.492 . S
C394 C395 1.392 . S
C394 C396 1.386 . S
C395 C393 1.393 . S
C395 C394 1.392 . S
C395 H412 0.930 . S
C396 C394 1.386 . S
C396 C398 1.395 . S
C396 H413 0.930 . S
C397 C393 1.395 . S
C397 C398 1.379 . S
C397 H414 0.930 . S
C398 C396 1.395 . S
C398 C397 1.379 . S
C398 H415 0.930 . S
C399 O382 1.264 . S
C399 O383 1.254 . S
C400 Eu336 2.848 . S
C400 O380 1.257 . S
C400 O385 1.249 . S
C400 C393 1.492 . S
C401 H366 0.931 . S
C401 C379 1.420 . S
C401 C402 1.351 . S
C402 H364 0.930 . S
C402 C370 1.423 . S
C402 C401 1.351 . S
C403 O387 1.276 . S
C403 O390 1.235 . S
C404 C405 1.393 . S
C404 C408 1.395 . S
C404 C411 1.492 . S
C405 C404 1.393 . S
C405 C406 1.392 . S
C405 H416 0.930 . S
C406 C405 1.392 . S
C406 C407 1.386 . S
C407 C406 1.386 . S
C407 C409 1.395 . S
C407 H417 0.930 . S
C408 C404 1.395 . S
C408 C409 1.379 . S
C408 H418 0.930 . S
C409 C407 1.395 . S
C409 C408 1.379 . S
C409 H419 0.930 . S
C410 O388 1.264 . S
C410 O389 1.254 . S
C411 Eu347 2.848 . S
C411 O386 1.257 . S
C411 O391 1.249 . S
C411 C404 1.492 . S
H412 C395 0.930 . S
H413 C396 0.930 . S
H414 C397 0.930 . S
H415 C398 0.930 . S
H416 C405 0.930 . S
H417 C407 0.930 . S
H418 C408 0.930 . S
H419 C409 0.930 . S
Eu420 N451 2.657 . S
Eu420 N458 2.609 . S
Eu420 O464 2.558 . S
Eu420 O465 2.612 . S
Eu420 O467 2.339 . S
Eu420 O468 2.563 . S
Eu420 O469 2.419 . S
Eu420 O471 2.358 1_655 S
Eu420 O472 2.432 . S
Eu420 C484 2.848 . S
C421 C424 1.429 1_455 S
C421 C425 1.411 . S
C421 N428 1.377 . S
C422 C424 1.420 . S
C422 C426 1.423 . S
C422 C434 1.392 . S
C423 C425 1.420 . S
C423 C426 1.351 1_455 S
C423 H446 0.931 . S
C424 C421 1.429 1_655 S
C424 C422 1.420 . S
C424 N432 1.362 . S
C425 C421 1.411 . S
C425 C423 1.420 . S
C425 C430 1.395 . S
C426 C422 1.423 . S
C426 C423 1.351 1_655 S
C426 H438 0.930 . S
C427 C429 1.400 . S
C427 C430 1.386 . S
C427 H439 0.930 . S
N428 C421 1.377 . S
N428 C429 1.321 . S
N428 Eu431 2.609 . S
C429 C427 1.400 . S
C429 N428 1.321 . S
C429 H436 0.930 . S
C430 C425 1.395 . S
C430 C427 1.386 . S
C430 H449 0.930 . S
Eu431 N428 2.609 . S
Eu431 N432 2.657 1_455 S
Eu431 O465 2.380 1_455 S
Eu431 O466 2.432 . S
Eu431 O470 2.558 . S
Eu431 O471 2.618 . S
Eu431 O473 2.339 1_455 S
Eu431 O474 2.563 . S
Eu431 O475 2.419 . S
Eu431 C495 2.848 . S
N432 C424 1.362 . S
N432 Eu431 2.657 1_655 S
N432 C433 1.334 . S
C433 N432 1.334 . S
C433 C435 1.413 . S
C433 H440 0.929 . S
C434 C422 1.392 . S
C434 C435 1.367 . S
C434 H442 0.930 . S
C435 C433 1.413 . S
C435 C434 1.367 . S
C435 H437 0.930 . S
H436 C429 0.930 . S
H437 C435 0.930 . S
H438 C426 0.930 . S
H439 C427 0.930 . S
H440 C433 0.929 . S
H441 C455 0.930 . S
H442 C434 0.930 . S
H443 C461 0.930 . S
H444 C452 0.929 . S
H445 C459 0.930 . S
H446 C423 0.931 . S
H447 C453 0.930 . S
H448 C486 0.930 . S
H449 C430 0.930 . S
H450 C485 0.931 . S
N451 Eu420 2.657 . S
N451 C452 1.334 1_655 S
N451 C456 1.362 . S
C452 H444 0.929 . S
C452 N451 1.334 1_455 S
C452 C455 1.413 . S
C453 H447 0.930 . S
C453 C454 1.392 1_455 S
C453 C455 1.367 . S
C454 C453 1.392 1_655 S
C454 C456 1.420 . S
C454 C486 1.423 . S
C455 H441 0.930 . S
C455 C452 1.413 . S
C455 C453 1.367 . S
C456 N451 1.362 . S
C456 C454 1.420 . S
C456 C460 1.429 . S
H457 C462 0.930 . S
N458 Eu420 2.609 . S
N458 C460 1.377 . S
N458 C461 1.321 . S
C459 H445 0.930 . S
C459 C461 1.400 . S
C459 C462 1.386 . S
C460 C456 1.429 . S
C460 N458 1.377 . S
C460 C463 1.411 . S
C461 H443 0.930 . S
C461 N458 1.321 . S
C461 C459 1.400 . S
C462 H457 0.930 . S
C462 C459 1.386 . S
C462 C463 1.395 . S
C463 C460 1.411 . S
C463 C462 1.395 . S
C463 C485 1.420 . S
O464 Eu420 2.558 . S
O464 C484 1.257 . S
O465 Eu420 2.612 . S
O465 Eu431 2.380 1_655 S
O465 C476 1.276 . S
O466 Eu431 2.432 . S
O466 C483 1.264 . S
O467 Eu420 2.339 . S
O467 C483 1.254 1_655 S
O468 Eu420 2.563 . S
O468 C476 1.235 . S
O469 Eu420 2.419 . S
O469 C484 1.249 . S
O470 Eu431 2.558 . S
O470 C495 1.257 . S
O471 Eu420 2.358 1_455 S
O471 Eu431 2.618 . S
O471 C487 1.298 . S
O472 Eu420 2.432 . S
O472 C494 1.264 . S
O473 Eu431 2.339 1_655 S
O473 C494 1.254 . S
O474 Eu431 2.563 . S
O474 C487 1.235 . S
O475 Eu431 2.419 . S
O475 C495 1.249 . S
C476 O465 1.276 . S
C476 O468 1.235 . S
C477 C479 1.393 . S
C477 C481 1.395 . S
C477 C484 1.492 . S
C478 C479 1.392 . S
C478 C480 1.386 . S
C479 C477 1.393 . S
C479 C478 1.392 . S
C479 H496 0.930 . S
C480 C478 1.386 . S
C480 C482 1.395 . S
C480 H497 0.930 . S
C481 C477 1.395 . S
C481 C482 1.379 . S
C481 H498 0.930 . S
C482 C480 1.395 . S
C482 C481 1.379 . S
C482 H499 0.930 . S
C483 O466 1.264 . S
C483 O467 1.254 1_455 S
C484 Eu420 2.848 . S
C484 O464 1.257 . S
C484 O469 1.249 . S
C484 C477 1.492 . S
C485 H450 0.931 . S
C485 C463 1.420 . S
C485 C486 1.351 . S
C486 H448 0.930 . S
C486 C454 1.423 . S
C486 C485 1.351 . S
C487 O471 1.298 . S
C487 O474 1.235 . S
C488 C489 1.393 . S
C488 C492 1.395 . S
C488 C495 1.492 . S
C489 C488 1.393 . S
C489 C490 1.392 . S
C489 H500 0.930 . S
C490 C489 1.392 . S
C490 C491 1.386 . S
C491 C490 1.386 . S
C491 C493 1.395 . S
C491 H501 0.930 . S
C492 C488 1.395 . S
C492 C493 1.379 . S
C492 H502 0.930 . S
C493 C491 1.395 . S
C493 C492 1.379 . S
C493 H503 0.930 . S
C494 O472 1.264 . S
C494 O473 1.254 . S
C495 Eu431 2.848 . S
C495 O470 1.257 . S
C495 O475 1.249 . S
C495 C488 1.492 . S
H496 C479 0.930 . S
H497 C480 0.930 . S
H498 C481 0.930 . S
H499 C482 0.930 . S
H500 C489 0.930 . S
H501 C491 0.930 . S
H502 C492 0.930 . S
H503 C493 0.930 . S
Eu504 N535 2.657 . S
Eu504 N542 2.609 . S
Eu504 O548 2.558 . S
Eu504 O549 2.612 . S
Eu504 O551 2.339 . S
Eu504 O552 2.563 . S
Eu504 O553 2.419 . S
Eu504 O555 2.380 . S
Eu504 O556 2.432 . S
Eu504 C568 2.848 . S
C505 C508 1.429 1_556 S
C505 C509 1.411 . S
C505 N512 1.377 . S
C506 C508 1.420 . S
C506 C510 1.423 . S
C506 C518 1.392 . S
C507 C509 1.420 1_554 S
C507 C510 1.351 . S
C507 H530 0.931 1_554 S
C508 C505 1.429 1_554 S
C508 C506 1.420 . S
C508 N516 1.362 . S
C509 C505 1.411 . S
C509 C507 1.420 1_556 S
C509 C514 1.395 . S
C510 C506 1.423 . S
C510 C507 1.351 . S
C510 H522 0.930 . S
C511 C513 1.400 . S
C511 C514 1.386 . S
C511 H523 0.930 . S
N512 C505 1.377 . S
N512 C513 1.321 . S
N512 Eu515 2.609 . S
C513 C511 1.400 . S
C513 N512 1.321 . S
C513 H520 0.930 . S
C514 C509 1.395 . S
C514 C511 1.386 . S
C514 H533 0.930 . S
Eu515 N512 2.609 . S
Eu515 N516 2.657 1_556 S
Eu515 O549 2.380 1_556 S
Eu515 O550 2.432 . S
Eu515 O554 2.558 . S
Eu515 O555 2.612 1_556 S
Eu515 O557 2.339 1_556 S
Eu515 O558 2.563 . S
Eu515 O559 2.419 . S
Eu515 C579 2.848 . S
N516 C508 1.362 . S
N516 Eu515 2.657 1_554 S
N516 C517 1.334 . S
C517 N516 1.334 . S
C517 C519 1.413 . S
C517 H524 0.929 . S
C518 C506 1.392 . S
C518 C519 1.367 . S
C518 H526 0.930 . S
C519 C517 1.413 . S
C519 C518 1.367 . S
C519 H521 0.930 . S
H520 C513 0.930 . S
H521 C519 0.930 . S
H522 C510 0.930 . S
H523 C511 0.930 . S
H524 C517 0.929 . S
H525 C539 0.930 . S
H526 C518 0.930 . S
H527 C545 0.930 . S
H528 C536 0.929 . S
H529 C543 0.930 . S
H530 C507 0.931 1_556 S
H531 C537 0.930 . S
H532 C570 0.930 . S
H533 C514 0.930 . S
H534 C569 0.931 . S
N535 Eu504 2.657 . S
N535 C536 1.334 1_554 S
N535 C540 1.362 . S
C536 H528 0.929 . S
C536 N535 1.334 1_556 S
C536 C539 1.413 . S
C537 H531 0.930 . S
C537 C538 1.392 1_556 S
C537 C539 1.367 . S
C538 C537 1.392 1_554 S
C538 C540 1.420 . S
C538 C570 1.423 . S
C539 H525 0.930 . S
C539 C536 1.413 . S
C539 C537 1.367 . S
C540 N535 1.362 . S
C540 C538 1.420 . S
C540 C544 1.429 . S
H541 C546 0.930 . S
N542 Eu504 2.609 . S
N542 C544 1.377 . S
N542 C545 1.321 . S
C543 H529 0.930 . S
C543 C545 1.400 . S
C543 C546 1.386 . S
C544 C540 1.429 . S
C544 N542 1.377 . S
C544 C547 1.411 . S
C545 H527 0.930 . S
C545 N542 1.321 . S
C545 C543 1.400 . S
C546 H541 0.930 . S
C546 C543 1.386 . S
C546 C547 1.395 . S
C547 C544 1.411 . S
C547 C546 1.395 . S
C547 C569 1.420 . S
O548 Eu504 2.558 . S
O548 C568 1.257 . S
O549 Eu504 2.612 . S
O549 Eu515 2.380 1_554 S
O549 C560 1.276 . S
O550 Eu515 2.432 . S
O550 C567 1.264 1_556 S
O551 Eu504 2.339 . S
O551 C567 1.254 . S
O552 Eu504 2.563 . S
O552 C560 1.235 . S
O553 Eu504 2.419 . S
O553 C568 1.249 . S
O554 Eu515 2.558 . S
O554 C579 1.257 . S
O555 Eu504 2.380 . S
O555 Eu515 2.612 1_554 S
O555 C571 1.276 1_554 S
O556 Eu504 2.432 . S
O556 C578 1.264 . S
O557 Eu515 2.339 1_554 S
O557 C578 1.254 . S
O558 Eu515 2.563 . S
O558 C571 1.235 . S
O559 Eu515 2.419 . S
O559 C579 1.249 . S
C560 O549 1.276 . S
C560 O552 1.235 . S
C561 C563 1.393 . S
C561 C565 1.395 . S
C561 C568 1.492 . S
C562 C563 1.392 . S
C562 C564 1.386 . S
C563 C561 1.393 . S
C563 C562 1.392 . S
C563 H580 0.930 . S
C564 C562 1.386 . S
C564 C566 1.395 . S
C564 H581 0.930 . S
C565 C561 1.395 . S
C565 C566 1.379 . S
C565 H582 0.930 . S
C566 C564 1.395 . S
C566 C565 1.379 . S
C566 H583 0.930 . S
C567 O550 1.264 1_554 S
C567 O551 1.254 . S
C568 Eu504 2.848 . S
C568 O548 1.257 . S
C568 O553 1.249 . S
C568 C561 1.492 . S
C569 H534 0.931 . S
C569 C547 1.420 . S
C569 C570 1.351 . S
C570 H532 0.930 . S
C570 C538 1.423 . S
C570 C569 1.351 . S
C571 O555 1.276 1_556 S
C571 O558 1.235 . S
C572 C573 1.393 . S
C572 C576 1.395 . S
C572 C579 1.492 . S
C573 C572 1.393 . S
C573 C574 1.392 . S
C573 H584 0.930 . S
C574 C573 1.392 . S
C574 C575 1.386 . S
C575 C574 1.386 . S
C575 C577 1.395 . S
C575 H585 0.930 . S
C576 C572 1.395 . S
C576 C577 1.379 . S
C576 H586 0.930 . S
C577 C575 1.395 . S
C577 C576 1.379 . S
C577 H587 0.930 . S
C578 O556 1.264 . S
C578 O557 1.254 . S
C579 Eu515 2.848 . S
C579 O554 1.257 . S
C579 O559 1.249 . S
C579 C572 1.492 . S
H580 C563 0.930 . S
H581 C564 0.930 . S
H582 C565 0.930 . S
H583 C566 0.930 . S
H584 C573 0.930 . S
H585 C575 0.930 . S
H586 C576 0.930 . S
H587 C577 0.930 . S
Eu588 N619 2.657 . S
Eu588 N626 2.609 . S
Eu588 O632 2.558 . S
Eu588 O633 2.612 . S
Eu588 O635 2.339 . S
Eu588 O636 2.563 . S
Eu588 O637 2.419 . S
Eu588 O639 2.380 . S
Eu588 O640 2.432 . S
Eu588 C652 2.848 . S
C589 C592 1.429 . S
C589 C593 1.411 . S
C589 N596 1.377 . S
C590 C592 1.420 . S
C590 C594 1.423 . S
C590 C602 1.392 . S
C591 C593 1.420 . S
C591 C594 1.351 . S
C591 H614 0.931 . S
C592 C589 1.429 . S
C592 C590 1.420 . S
C592 N600 1.362 . S
C593 C589 1.411 . S
C593 C591 1.420 . S
C593 C598 1.395 . S
C594 C590 1.423 . S
C594 C591 1.351 . S
C594 H606 0.930 . S
C595 C597 1.400 . S
C595 C598 1.386 . S
C595 H607 0.930 . S
N596 C589 1.377 . S
N596 C597 1.321 . S
N596 Eu599 2.609 . S
C597 C595 1.400 . S
C597 N596 1.321 . S
C597 H604 0.930 . S
C598 C593 1.395 . S
C598 C595 1.386 . S
C598 H617 0.930 . S
Eu599 N596 2.609 . S
Eu599 N600 2.657 . S
Eu599 O633 2.380 . S
Eu599 O634 2.432 . S
Eu599 O638 2.558 . S
Eu599 O639 2.612 . S
Eu599 O641 2.339 . S
Eu599 O642 2.563 . S
Eu599 O643 2.419 . S
Eu599 C663 2.848 . S
N600 C592 1.362 . S
N600 Eu599 2.657 . S
N600 C601 1.334 . S
C601 N600 1.334 . S
C601 C603 1.413 . S
C601 H608 0.929 . S
C602 C590 1.392 . S
C602 C603 1.367 . S
C602 H610 0.930 . S
C603 C601 1.413 . S
C603 C602 1.367 . S
C603 H605 0.930 . S
H604 C597 0.930 . S
H605 C603 0.930 . S
H606 C594 0.930 . S
H607 C595 0.930 . S
H608 C601 0.929 . S
H609 C623 0.930 . S
H610 C602 0.930 . S
H611 C629 0.930 . S
H612 C620 0.929 . S
H613 C627 0.930 . S
H614 C591 0.931 . S
H615 C621 0.930 . S
H616 C654 0.930 . S
H617 C598 0.930 . S
H618 C653 0.931 . S
N619 Eu588 2.657 . S
N619 C620 1.334 . S
N619 C624 1.362 . S
C620 H612 0.929 . S
C620 N619 1.334 . S
C620 C623 1.413 . S
C621 H615 0.930 . S
C621 C622 1.392 . S
C621 C623 1.367 . S
C622 C621 1.392 . S
C622 C624 1.420 . S
C622 C654 1.423 . S
C623 H609 0.930 . S
C623 C620 1.413 . S
C623 C621 1.367 . S
C624 N619 1.362 . S
C624 C622 1.420 . S
C624 C628 1.429 . S
H625 C630 0.930 . S
N626 Eu588 2.609 . S
N626 C628 1.377 . S
N626 C629 1.321 . S
C627 H613 0.930 . S
C627 C629 1.400 . S
C627 C630 1.386 . S
C628 C624 1.429 . S
C628 N626 1.377 . S
C628 C631 1.411 . S
C629 H611 0.930 . S
C629 N626 1.321 . S
C629 C627 1.400 . S
C630 H625 0.930 . S
C630 C627 1.386 . S
C630 C631 1.395 . S
C631 C628 1.411 . S
C631 C630 1.395 . S
C631 C653 1.420 . S
O632 Eu588 2.558 . S
O632 C652 1.257 . S
O633 Eu588 2.612 . S
O633 Eu599 2.380 . S
O633 C644 1.276 . S
O634 Eu599 2.432 . S
O634 C651 1.264 . S
O635 Eu588 2.339 . S
O635 C651 1.254 . S
O636 Eu588 2.563 . S
O636 C644 1.235 . S
O637 Eu588 2.419 . S
O637 C652 1.249 . S
O638 Eu599 2.558 . S
O638 C663 1.257 . S
O639 Eu588 2.380 . S
O639 Eu599 2.612 . S
O639 C655 1.276 . S
O640 Eu588 2.432 . S
O640 C662 1.264 . S
O641 Eu599 2.339 . S
O641 C662 1.254 . S
O642 Eu599 2.563 . S
O642 C655 1.235 . S
O643 Eu599 2.419 . S
O643 C663 1.249 . S
C644 O633 1.276 . S
C644 O636 1.235 . S
C645 C647 1.393 . S
C645 C649 1.395 . S
C645 C652 1.492 . S
C646 C647 1.392 . S
C646 C648 1.386 . S
C647 C645 1.393 . S
C647 C646 1.392 . S
C647 H664 0.930 . S
C648 C646 1.386 . S
C648 C650 1.395 . S
C648 H665 0.930 . S
C649 C645 1.395 . S
C649 C650 1.379 . S
C649 H666 0.930 . S
C650 C648 1.395 . S
C650 C649 1.379 . S
C650 H667 0.930 . S
C651 O634 1.264 . S
C651 O635 1.254 . S
C652 Eu588 2.848 . S
C652 O632 1.257 . S
C652 O637 1.249 . S
C652 C645 1.492 . S
C653 H618 0.931 . S
C653 C631 1.420 . S
C653 C654 1.351 . S
C654 H616 0.930 . S
C654 C622 1.423 . S
C654 C653 1.351 . S
C655 O639 1.276 . S
C655 O642 1.235 . S
C656 C657 1.393 . S
C656 C660 1.395 . S
C656 C663 1.492 . S
C657 C656 1.393 . S
C657 C658 1.392 . S
C657 H668 0.930 . S
C658 C657 1.392 . S
C658 C659 1.386 . S
C659 C658 1.386 . S
C659 C661 1.395 . S
C659 H669 0.930 . S
C660 C656 1.395 . S
C660 C661 1.379 . S
C660 H670 0.930 . S
C661 C659 1.395 . S
C661 C660 1.379 . S
C661 H671 0.930 . S
C662 O640 1.264 . S
C662 O641 1.254 . S
C663 Eu599 2.848 . S
C663 O638 1.257 . S
C663 O643 1.249 . S
C663 C656 1.492 . S
H664 C647 0.930 . S
H665 C648 0.930 . S
H666 C649 0.930 . S
H667 C650 0.930 . S
H668 C657 0.930 . S
H669 C659 0.930 . S
H670 C660 0.930 . S
H671 C661 0.930 . S
Eu672 N703 2.657 . S
Eu672 N710 2.609 . S
Eu672 O716 2.558 . S
Eu672 O717 2.612 . S
Eu672 O719 2.339 . S
Eu672 O720 2.563 . S
Eu672 O721 2.419 . S
Eu672 O723 2.380 . S
Eu672 O724 2.432 . S
Eu672 C736 2.848 . S
C673 C676 1.429 . S
C673 C677 1.411 . S
C673 N680 1.377 . S
C674 C676 1.420 . S
C674 C678 1.423 . S
C674 C686 1.392 . S
C675 C677 1.420 . S
C675 C678 1.351 . S
C675 H698 0.931 . S
C676 C673 1.429 . S
C676 C674 1.420 . S
C676 N684 1.362 . S
C677 C673 1.411 . S
C677 C675 1.420 . S
C677 C682 1.395 . S
C678 C674 1.423 . S
C678 C675 1.351 . S
C678 H690 0.930 . S
C679 C681 1.400 . S
C679 C682 1.386 . S
C679 H691 0.930 . S
N680 C673 1.377 . S
N680 C681 1.321 . S
N680 Eu683 2.609 . S
C681 C679 1.400 . S
C681 N680 1.321 . S
C681 H688 0.930 . S
C682 C677 1.395 . S
C682 C679 1.386 . S
C682 H701 0.930 . S
Eu683 N680 2.609 . S
Eu683 N684 2.657 . S
Eu683 O717 2.380 . S
Eu683 O718 2.432 . S
Eu683 O722 2.558 . S
Eu683 O723 2.612 . S
Eu683 O725 2.339 . S
Eu683 O726 2.563 . S
Eu683 O727 2.419 . S
Eu683 C747 2.848 . S
N684 C676 1.362 . S
N684 Eu683 2.657 . S
N684 C685 1.334 . S
C685 N684 1.334 . S
C685 C687 1.413 . S
C685 H692 0.929 . S
C686 C674 1.392 . S
C686 C687 1.367 . S
C686 H694 0.930 . S
C687 C685 1.413 . S
C687 C686 1.367 . S
C687 H689 0.930 . S
H688 C681 0.930 . S
H689 C687 0.930 . S
H690 C678 0.930 . S
H691 C679 0.930 . S
H692 C685 0.929 . S
H693 C707 0.930 . S
H694 C686 0.930 . S
H695 C713 0.930 . S
H696 C704 0.929 . S
H697 C711 0.930 . S
H698 C675 0.931 . S
H699 C705 0.930 . S
H700 C738 0.930 . S
H701 C682 0.930 . S
H702 C737 0.931 . S
N703 Eu672 2.657 . S
N703 C704 1.334 . S
N703 C708 1.362 . S
C704 H696 0.929 . S
C704 N703 1.334 . S
C704 C707 1.413 . S
C705 H699 0.930 . S
C705 C706 1.392 . S
C705 C707 1.367 . S
C706 C705 1.392 . S
C706 C708 1.420 . S
C706 C738 1.423 . S
C707 H693 0.930 . S
C707 C704 1.413 . S
C707 C705 1.367 . S
C708 N703 1.362 . S
C708 C706 1.420 . S
C708 C712 1.429 . S
H709 C714 0.930 . S
N710 Eu672 2.609 . S
N710 C712 1.377 . S
N710 C713 1.321 . S
C711 H697 0.930 . S
C711 C713 1.400 . S
C711 C714 1.386 . S
C712 C708 1.429 . S
C712 N710 1.377 . S
C712 C715 1.411 . S
C713 H695 0.930 . S
C713 N710 1.321 . S
C713 C711 1.400 . S
C714 H709 0.930 . S
C714 C711 1.386 . S
C714 C715 1.395 . S
C715 C712 1.411 . S
C715 C714 1.395 . S
C715 C737 1.420 . S
O716 Eu672 2.558 . S
O716 C736 1.257 . S
O717 Eu672 2.612 . S
O717 Eu683 2.380 . S
O717 C728 1.276 . S
O718 Eu683 2.432 . S
O718 C735 1.264 . S
O719 Eu672 2.339 . S
O719 C735 1.254 . S
O720 Eu672 2.563 . S
O720 C728 1.235 . S
O721 Eu672 2.419 . S
O721 C736 1.249 . S
O722 Eu683 2.558 . S
O722 C747 1.257 . S
O723 Eu672 2.380 . S
O723 Eu683 2.612 . S
O723 C739 1.276 . S
O724 Eu672 2.432 . S
O724 C746 1.264 . S
O725 Eu683 2.339 . S
O725 C746 1.254 . S
O726 Eu683 2.563 . S
O726 C739 1.235 . S
O727 Eu683 2.419 . S
O727 C747 1.249 . S
C728 O717 1.276 . S
C728 O720 1.235 . S
C729 C731 1.393 . S
C729 C733 1.395 . S
C729 C736 1.492 . S
C730 C731 1.392 . S
C730 C732 1.386 . S
C731 C729 1.393 . S
C731 C730 1.392 . S
C731 H748 0.930 . S
C732 C730 1.386 . S
C732 C734 1.395 . S
C732 H749 0.930 . S
C733 C729 1.395 . S
C733 C734 1.379 . S
C733 H750 0.930 . S
C734 C732 1.395 . S
C734 C733 1.379 . S
C734 H751 0.930 . S
C735 O718 1.264 . S
C735 O719 1.254 . S
C736 Eu672 2.848 . S
C736 O716 1.257 . S
C736 O721 1.249 . S
C736 C729 1.492 . S
C737 H702 0.931 . S
C737 C715 1.420 . S
C737 C738 1.351 . S
C738 H700 0.930 . S
C738 C706 1.423 . S
C738 C737 1.351 . S
C739 O723 1.276 . S
C739 O726 1.235 . S
C740 C741 1.393 . S
C740 C744 1.395 . S
C740 C747 1.492 . S
C741 C740 1.393 . S
C741 C742 1.392 . S
C741 H752 0.930 . S
C742 C741 1.392 . S
C742 C743 1.386 . S
C743 C742 1.386 . S
C743 C745 1.395 . S
C743 H753 0.930 . S
C744 C740 1.395 . S
C744 C745 1.379 . S
C744 H754 0.930 . S
C745 C743 1.395 . S
C745 C744 1.379 . S
C745 H755 0.930 . S
C746 O724 1.264 . S
C746 O725 1.254 . S
C747 Eu683 2.848 . S
C747 O722 1.257 . S
C747 O727 1.249 . S
C747 C740 1.492 . S
H748 C731 0.930 . S
H749 C732 0.930 . S
H750 C733 0.930 . S
H751 C734 0.930 . S
H752 C741 0.930 . S
H753 C743 0.930 . S
H754 C744 0.930 . S
H755 C745 0.930 . S
Eu756 N787 2.657 . S
Eu756 N794 2.609 . S
Eu756 O800 2.558 . S
Eu756 O801 2.612 . S
Eu756 O803 2.339 . S
Eu756 O804 2.563 . S
Eu756 O805 2.419 . S
Eu756 O807 2.380 . S
Eu756 O808 2.432 . S
Eu756 C820 2.848 . S
C757 C760 1.429 1_565 S
C757 C761 1.411 . S
C757 N764 1.377 . S
C758 C760 1.420 . S
C758 C762 1.423 . S
C758 C770 1.392 . S
C759 C761 1.420 1_545 S
C759 C762 1.351 . S
C759 H782 0.923 1_545 S
C760 C757 1.429 1_545 S
C760 C758 1.420 . S
C760 N768 1.362 . S
C761 C757 1.411 . S
C761 C759 1.420 1_565 S
C761 C766 1.395 . S
C762 C758 1.423 . S
C762 C759 1.351 . S
C762 H774 0.930 . S
C763 C765 1.400 . S
C763 C766 1.386 . S
C763 H775 0.930 . S
N764 C757 1.377 . S
N764 C765 1.321 . S
N764 Eu767 2.609 . S
C765 C763 1.400 . S
C765 N764 1.321 . S
C765 H772 0.930 . S
C766 C761 1.395 . S
C766 C763 1.386 . S
C766 H785 0.930 . S
Eu767 N764 2.609 . S
Eu767 N768 2.657 1_565 S
Eu767 O801 2.380 1_565 S
Eu767 O802 2.432 . S
Eu767 O806 2.558 . S
Eu767 O807 2.612 1_565 S
Eu767 O809 2.339 1_565 S
Eu767 O810 2.563 . S
Eu767 O811 2.419 . S
Eu767 C831 2.848 . S
N768 C760 1.362 . S
N768 Eu767 2.657 1_545 S
N768 C769 1.334 . S
C769 N768 1.334 . S
C769 C771 1.413 . S
C769 H776 0.929 . S
C770 C758 1.392 . S
C770 C771 1.367 . S
C770 H778 0.930 . S
C771 C769 1.413 . S
C771 C770 1.367 . S
C771 H773 0.930 . S
H772 C765 0.930 . S
H773 C771 0.930 . S
H774 C762 0.930 . S
H775 C763 0.930 . S
H776 C769 0.929 . S
H777 C791 0.930 . S
H778 C770 0.930 . S
H779 C797 0.930 . S
H780 C788 0.927 1_565 S
H781 C795 0.930 . S
H782 C759 0.923 1_565 S
H783 C789 0.930 . S
H784 C822 0.930 . S
H785 C766 0.930 . S
H786 C821 0.931 . S
N787 Eu756 2.657 . S
N787 C788 1.340 . S
N787 C792 1.362 . S
C788 H780 0.927 1_545 S
C788 N787 1.340 . S
C788 C791 1.409 1_545 S
C789 H783 0.930 . S
C789 C790 1.392 1_565 S
C789 C791 1.367 . S
C790 C789 1.392 1_545 S
C790 C792 1.420 . S
C790 C822 1.423 . S
C791 H777 0.930 . S
C791 C788 1.409 1_565 S
C791 C789 1.367 . S
C792 N787 1.362 . S
C792 C790 1.420 . S
C792 C796 1.429 . S
H793 C798 0.930 . S
N794 Eu756 2.609 . S
N794 C796 1.377 . S
N794 C797 1.321 . S
C795 H781 0.930 . S
C795 C797 1.400 . S
C795 C798 1.386 . S
C796 C792 1.429 . S
C796 N794 1.377 . S
C796 C799 1.411 . S
C797 H779 0.930 . S
C797 N794 1.321 . S
C797 C795 1.400 . S
C798 H793 0.930 . S
C798 C795 1.386 . S
C798 C799 1.395 . S
C799 C796 1.411 . S
C799 C798 1.395 . S
C799 C821 1.420 . S
O800 Eu756 2.558 . S
O800 C820 1.257 . S
O801 Eu756 2.612 . S
O801 Eu767 2.380 1_545 S
O801 C812 1.276 . S
O802 Eu767 2.432 . S
O802 C819 1.264 1_565 S
O803 Eu756 2.339 . S
O803 C819 1.254 . S
O804 Eu756 2.563 . S
O804 C812 1.235 . S
O805 Eu756 2.419 . S
O805 C820 1.249 . S
O806 Eu767 2.558 . S
O806 C831 1.257 . S
O807 Eu756 2.380 . S
O807 Eu767 2.612 1_545 S
O807 C823 1.276 1_545 S
O808 Eu756 2.432 . S
O808 C830 1.264 . S
O809 Eu767 2.339 1_545 S
O809 C830 1.254 . S
O810 Eu767 2.563 . S
O810 C823 1.235 . S
O811 Eu767 2.419 . S
O811 C831 1.249 . S
C812 O801 1.276 . S
C812 O804 1.235 . S
C813 C815 1.393 . S
C813 C817 1.395 . S
C813 C820 1.492 . S
C814 C815 1.392 . S
C814 C816 1.386 . S
C815 C813 1.393 . S
C815 C814 1.392 . S
C815 H832 0.930 . S
C816 C814 1.386 . S
C816 C818 1.395 . S
C816 H833 0.930 . S
C817 C813 1.395 . S
C817 C818 1.379 . S
C817 H834 0.930 . S
C818 C816 1.395 . S
C818 C817 1.379 . S
C818 H835 0.930 . S
C819 O802 1.264 1_545 S
C819 O803 1.254 . S
C820 Eu756 2.848 . S
C820 O800 1.257 . S
C820 O805 1.249 . S
C820 C813 1.492 . S
C821 H786 0.931 . S
C821 C799 1.420 . S
C821 C822 1.351 . S
C822 H784 0.930 . S
C822 C790 1.423 . S
C822 C821 1.351 . S
C823 O807 1.276 1_565 S
C823 O810 1.235 . S
C824 C825 1.393 . S
C824 C828 1.395 . S
C824 C831 1.492 . S
C825 C824 1.393 . S
C825 C826 1.392 . S
C825 H836 0.930 . S
C826 C825 1.392 . S
C826 C827 1.386 . S
C827 C826 1.386 . S
C827 C829 1.395 . S
C827 H837 0.930 . S
C828 C824 1.395 . S
C828 C829 1.379 . S
C828 H838 0.930 . S
C829 C827 1.395 . S
C829 C828 1.379 . S
C829 H839 0.930 . S
C830 O808 1.264 . S
C830 O809 1.254 . S
C831 Eu767 2.848 . S
C831 O806 1.257 . S
C831 O811 1.249 . S
C831 C824 1.492 . S
H832 C815 0.930 . S
H833 C816 0.930 . S
H834 C817 0.930 . S
H835 C818 0.930 . S
H836 C825 0.930 . S
H837 C827 0.930 . S
H838 C828 0.930 . S
H839 C829 0.930 . S
Eu840 N871 2.657 . S
Eu840 N878 2.609 . S
Eu840 O884 2.558 . S
Eu840 O885 2.612 . S
Eu840 O887 2.339 . S
Eu840 O888 2.563 . S
Eu840 O889 2.419 . S
Eu840 O891 2.380 . S
Eu840 O892 2.432 . S
Eu840 C904 2.848 . S
C841 C844 1.429 1_545 S
C841 C845 1.411 . S
C841 N848 1.377 . S
C842 C844 1.420 . S
C842 C846 1.423 . S
C842 C854 1.392 . S
C843 C845 1.426 . S
C843 C846 1.342 1_545 S
C843 H866 0.934 . S
C844 C841 1.429 1_565 S
C844 C842 1.420 . S
C844 N852 1.362 . S
C845 C841 1.411 . S
C845 C843 1.426 . S
C845 C850 1.395 . S
C846 C842 1.423 . S
C846 C843 1.342 1_565 S
C846 H858 0.930 . S
C847 C849 1.400 . S
C847 C850 1.386 . S
C847 H859 0.930 . S
N848 C841 1.377 . S
N848 C849 1.321 . S
N848 Eu851 2.609 . S
C849 C847 1.400 . S
C849 N848 1.321 . S
C849 H856 0.930 . S
C850 C845 1.395 . S
C850 C847 1.386 . S
C850 H869 0.930 . S
Eu851 N848 2.609 . S
Eu851 N852 2.657 1_545 S
Eu851 O885 2.380 1_545 S
Eu851 O886 2.432 . S
Eu851 O890 2.558 . S
Eu851 O891 2.612 1_545 S
Eu851 O893 2.339 1_545 S
Eu851 O894 2.563 . S
Eu851 O895 2.419 . S
Eu851 C915 2.848 . S
N852 C844 1.362 . S
N852 Eu851 2.657 1_565 S
N852 C853 1.334 . S
C853 N852 1.334 . S
C853 C855 1.413 . S
C853 H860 0.929 . S
C854 C842 1.392 . S
C854 C855 1.367 . S
C854 H862 0.930 . S
C855 C853 1.413 . S
C855 C854 1.367 . S
C855 H857 0.930 . S
H856 C849 0.930 . S
H857 C855 0.930 . S
H858 C846 0.930 . S
H859 C847 0.930 . S
H860 C853 0.929 . S
H861 C875 0.930 . S
H862 C854 0.930 . S
H863 C881 0.930 . S
H864 C872 0.929 . S
H865 C879 0.930 . S
H866 C843 0.934 . S
H867 C873 0.930 . S
H868 C906 0.930 . S
H869 C850 0.930 . S
H870 C905 0.931 . S
N871 Eu840 2.657 . S
N871 C872 1.334 1_565 S
N871 C876 1.362 . S
C872 H864 0.929 . S
C872 N871 1.334 1_545 S
C872 C875 1.413 . S
C873 H867 0.930 . S
C873 C874 1.392 1_545 S
C873 C875 1.367 . S
C874 C873 1.392 1_565 S
C874 C876 1.420 . S
C874 C906 1.423 . S
C875 H861 0.930 . S
C875 C872 1.413 . S
C875 C873 1.367 . S
C876 N871 1.362 . S
C876 C874 1.420 . S
C876 C880 1.429 . S
H877 C882 0.930 . S
N878 Eu840 2.609 . S
N878 C880 1.377 . S
N878 C881 1.321 . S
C879 H865 0.930 . S
C879 C881 1.400 . S
C879 C882 1.386 . S
C880 C876 1.429 . S
C880 N878 1.377 . S
C880 C883 1.411 . S
C881 H863 0.930 . S
C881 N878 1.321 . S
C881 C879 1.400 . S
C882 H877 0.930 . S
C882 C879 1.386 . S
C882 C883 1.395 . S
C883 C880 1.411 . S
C883 C882 1.395 . S
C883 C905 1.420 . S
O884 Eu840 2.558 . S
O884 C904 1.257 . S
O885 Eu840 2.612 . S
O885 Eu851 2.380 1_565 S
O885 C896 1.276 . S
O886 Eu851 2.432 . S
O886 C903 1.252 1_545 S
O887 Eu840 2.339 . S
O887 C903 1.266 . S
O888 Eu840 2.563 . S
O888 C896 1.235 . S
O889 Eu840 2.419 . S
O889 C904 1.249 . S
O890 Eu851 2.558 . S
O890 C915 1.257 . S
O891 Eu840 2.380 . S
O891 Eu851 2.612 1_565 S
O891 C907 1.276 1_565 S
O892 Eu840 2.432 . S
O892 C914 1.264 . S
O893 Eu851 2.339 1_565 S
O893 C914 1.254 . S
O894 Eu851 2.563 . S
O894 C907 1.235 . S
O895 Eu851 2.419 . S
O895 C915 1.249 . S
C896 O885 1.276 . S
C896 O888 1.235 . S
C897 C899 1.393 . S
C897 C901 1.395 . S
C897 C904 1.492 . S
C898 C899 1.392 . S
C898 C900 1.386 . S
C899 C897 1.393 . S
C899 C898 1.392 . S
C899 H916 0.930 . S
C900 C898 1.386 . S
C900 C902 1.395 . S
C900 H917 0.930 . S
C901 C897 1.395 . S
C901 C902 1.379 . S
C901 H918 0.930 . S
C902 C900 1.395 . S
C902 C901 1.379 . S
C902 H919 0.930 . S
C903 O886 1.252 1_565 S
C903 O887 1.266 . S
C904 Eu840 2.848 . S
C904 O884 1.257 . S
C904 O889 1.249 . S
C904 C897 1.492 . S
C905 H870 0.931 . S
C905 C883 1.420 . S
C905 C906 1.351 . S
C906 H868 0.930 . S
C906 C874 1.423 . S
C906 C905 1.351 . S
C907 O891 1.276 1_545 S
C907 O894 1.235 . S
C908 C909 1.393 . S
C908 C912 1.395 . S
C908 C915 1.492 . S
C909 C908 1.393 . S
C909 C910 1.392 . S
C909 H920 0.930 . S
C910 C909 1.392 . S
C910 C911 1.386 . S
C911 C910 1.386 . S
C911 C913 1.395 . S
C911 H921 0.930 . S
C912 C908 1.395 . S
C912 C913 1.379 . S
C912 H922 0.930 . S
C913 C911 1.395 . S
C913 C912 1.379 . S
C913 H923 0.930 . S
C914 O892 1.264 . S
C914 O893 1.254 . S
C915 Eu851 2.848 . S
C915 O890 1.257 . S
C915 O895 1.249 . S
C915 C908 1.492 . S
H916 C899 0.930 . S
H917 C900 0.930 . S
H918 C901 0.930 . S
H919 C902 0.930 . S
H920 C909 0.930 . S
H921 C911 0.930 . S
H922 C912 0.930 . S
H923 C913 0.930 . S
Eu924 N955 2.657 . S
Eu924 N962 2.609 . S
Eu924 O968 2.558 . S
Eu924 O969 2.612 . S
Eu924 O971 2.339 . S
Eu924 O972 2.563 . S
Eu924 O973 2.419 . S
Eu924 O975 2.380 . S
Eu924 O976 2.432 . S
Eu924 C988 2.848 . S
C925 C928 1.429 . S
C925 C929 1.411 . S
C925 N932 1.377 . S
C926 C928 1.420 . S
C926 C930 1.423 . S
C926 C938 1.392 . S
C927 C929 1.420 . S
C927 C930 1.351 . S
C927 H950 0.931 . S
C928 C925 1.429 . S
C928 C926 1.420 . S
C928 N936 1.362 . S
C929 C925 1.411 . S
C929 C927 1.420 . S
C929 C934 1.395 . S
C930 C926 1.423 . S
C930 C927 1.351 . S
C930 H942 0.930 . S
C931 C933 1.400 . S
C931 C934 1.386 . S
C931 H943 0.930 . S
N932 C925 1.377 . S
N932 C933 1.321 . S
N932 Eu935 2.609 . S
C933 C931 1.400 . S
C933 N932 1.321 . S
C933 H940 0.930 . S
C934 C929 1.395 . S
C934 C931 1.386 . S
C934 H953 0.930 . S
Eu935 N932 2.609 . S
Eu935 N936 2.657 . S
Eu935 O969 2.380 . S
Eu935 O970 2.432 . S
Eu935 O974 2.558 . S
Eu935 O975 2.612 . S
Eu935 O977 2.339 . S
Eu935 O978 2.563 . S
Eu935 O979 2.419 . S
Eu935 C999 2.848 . S
N936 C928 1.362 . S
N936 Eu935 2.657 . S
N936 C937 1.334 . S
C937 N936 1.334 . S
C937 C939 1.413 . S
C937 H944 0.929 . S
C938 C926 1.392 . S
C938 C939 1.367 . S
C938 H946 0.930 . S
C939 C937 1.413 . S
C939 C938 1.367 . S
C939 H941 0.930 . S
H940 C933 0.930 . S
H941 C939 0.930 . S
H942 C930 0.930 . S
H943 C931 0.930 . S
H944 C937 0.929 . S
H945 C959 0.930 . S
H946 C938 0.930 . S
H947 C965 0.930 . S
H948 C956 0.929 . S
H949 C963 0.930 . S
H950 C927 0.931 . S
H951 C957 0.930 . S
H952 C990 0.930 . S
H953 C934 0.930 . S
H954 C989 0.931 . S
N955 Eu924 2.657 . S
N955 C956 1.334 . S
N955 C960 1.362 . S
C956 H948 0.929 . S
C956 N955 1.334 . S
C956 C959 1.413 . S
C957 H951 0.930 . S
C957 C958 1.392 . S
C957 C959 1.367 . S
C958 C957 1.392 . S
C958 C960 1.420 . S
C958 C990 1.423 . S
C959 H945 0.930 . S
C959 C956 1.413 . S
C959 C957 1.367 . S
C960 N955 1.362 . S
C960 C958 1.420 . S
C960 C964 1.429 . S
H961 C966 0.930 . S
N962 Eu924 2.609 . S
N962 C964 1.377 . S
N962 C965 1.321 . S
C963 H949 0.930 . S
C963 C965 1.400 . S
C963 C966 1.386 . S
C964 C960 1.429 . S
C964 N962 1.377 . S
C964 C967 1.411 . S
C965 H947 0.930 . S
C965 N962 1.321 . S
C965 C963 1.400 . S
C966 H961 0.930 . S
C966 C963 1.386 . S
C966 C967 1.395 . S
C967 C964 1.411 . S
C967 C966 1.395 . S
C967 C989 1.420 . S
O968 Eu924 2.558 . S
O968 C988 1.257 . S
O969 Eu924 2.612 . S
O969 Eu935 2.380 . S
O969 C980 1.276 . S
O970 Eu935 2.432 . S
O970 C987 1.264 . S
O971 Eu924 2.339 . S
O971 C987 1.254 . S
O972 Eu924 2.563 . S
O972 C980 1.235 . S
O973 Eu924 2.419 . S
O973 C988 1.249 . S
O974 Eu935 2.558 . S
O974 C999 1.257 . S
O975 Eu924 2.380 . S
O975 Eu935 2.612 . S
O975 C991 1.276 . S
O976 Eu924 2.432 . S
O976 C998 1.264 . S
O977 Eu935 2.339 . S
O977 C998 1.254 . S
O978 Eu935 2.563 . S
O978 C991 1.235 . S
O979 Eu935 2.419 . S
O979 C999 1.249 . S
C980 O969 1.276 . S
C980 O972 1.235 . S
C981 C983 1.393 . S
C981 C985 1.395 . S
C981 C988 1.492 . S
C982 C983 1.392 . S
C982 C984 1.386 . S
C983 C981 1.393 . S
C983 C982 1.392 . S
C983 H1000 0.930 . S
C984 C982 1.386 . S
C984 C986 1.395 . S
C984 H1001 0.930 . S
C985 C981 1.395 . S
C985 C986 1.379 . S
C985 H1002 0.930 . S
C986 C984 1.395 . S
C986 C985 1.379 . S
C986 H1003 0.930 . S
C987 O970 1.264 . S
C987 O971 1.254 . S
C988 Eu924 2.848 . S
C988 O968 1.257 . S
C988 O973 1.249 . S
C988 C981 1.492 . S
C989 H954 0.931 . S
C989 C967 1.420 . S
C989 C990 1.351 . S
C990 H952 0.930 . S
C990 C958 1.423 . S
C990 C989 1.351 . S
C991 O975 1.276 . S
C991 O978 1.235 . S
C992 C993 1.393 . S
C992 C996 1.395 . S
C992 C999 1.492 . S
C993 C992 1.393 . S
C993 C994 1.392 . S
C993 H1004 0.930 . S
C994 C993 1.392 . S
C994 C995 1.386 . S
C995 C994 1.386 . S
C995 C997 1.395 . S
C995 H1005 0.930 . S
C996 C992 1.395 . S
C996 C997 1.379 . S
C996 H1006 0.930 . S
C997 C995 1.395 . S
C997 C996 1.379 . S
C997 H1007 0.930 . S
C998 O976 1.264 . S
C998 O977 1.254 . S
C999 Eu935 2.848 . S
C999 O974 1.257 . S
C999 O979 1.249 . S
C999 C992 1.492 . S
H1000 C983 0.930 . S
H1001 C984 0.930 . S
H1002 C985 0.930 . S
H1003 C986 0.930 . S
H1004 C993 0.930 . S
H1005 C995 0.930 . S
H1006 C996 0.930 . S
H1007 C997 0.930 . S
H1008 C1026 0.951 . S
H1009 C1028 0.951 . S
H1010 C1030 0.950 . S
H1011 C1031 0.950 . S
H1012 C1033 0.950 . S
H1013 C1036 0.950 . S
H1014 C1037 0.950 . S
H1015 C1039 0.950 . S
H1016 C1040 0.950 . S
H1017 C1041 0.951 . S
H1018 C1043 0.951 . S
H1019 C1045 0.950 . S
H1020 C1046 0.950 . S
H1021 C1048 0.950 . S
H1022 C1051 0.950 . S
H1023 C1052 0.950 . S
H1024 C1054 0.950 . S
H1025 C1055 0.950 . S
C1026 H1008 0.951 . S
C1026 C1027 1.366 . S
C1026 C1028 1.388 . S
C1027 C1026 1.366 . S
C1027 C1031 1.385 . S
C1028 H1009 0.951 . S
C1028 C1026 1.388 . S
C1028 C1029 1.366 . S
C1029 C1028 1.366 . S
C1029 C1030 1.414 . S
C1029 C1032 1.499 . S
C1030 H1010 0.950 . S
C1030 C1029 1.414 . S
C1030 C1031 1.374 . S
C1031 H1011 0.950 . S
C1031 C1027 1.385 . S
C1031 C1030 1.374 . S
C1032 C1029 1.499 . S
C1032 C1033 1.373 . S
C1032 C1034 1.389 . S
C1033 H1012 0.950 . S
C1033 C1032 1.373 . S
C1033 C1049 1.377 . S
C1034 C1032 1.389 . S
C1034 C1035 1.524 . S
C1034 C1048 1.377 . S
C1035 C1034 1.524 . S
C1035 C1036 1.397 . S
C1035 C1040 1.363 . S
C1036 H1013 0.950 . S
C1036 C1035 1.397 . S
C1036 C1037 1.334 . S
C1037 H1014 0.950 . S
C1037 C1036 1.334 . S
C1037 C1038 1.287 . S
C1038 C1037 1.287 . S
C1038 C1039 1.524 . S
C1038 H1057 0.913 . S
C1039 H1015 0.950 . S
C1039 C1038 1.524 . S
C1039 C1040 1.415 . S
C1040 H1016 0.950 . S
C1040 C1035 1.363 . S
C1040 C1039 1.415 . S
C1041 H1017 0.951 . S
C1041 C1042 1.366 . S
C1041 C1043 1.388 . S
C1042 C1041 1.366 . S
C1042 C1046 1.385 . S
C1043 H1018 0.951 . S
C1043 C1041 1.388 . S
C1043 C1044 1.366 . S
C1044 C1043 1.366 . S
C1044 C1045 1.414 . S
C1044 C1047 1.499 . S
C1045 H1019 0.950 . S
C1045 C1044 1.414 . S
C1045 C1046 1.374 . S
C1046 H1020 0.950 . S
C1046 C1042 1.385 . S
C1046 C1045 1.374 . S
C1047 C1044 1.499 . S
C1047 C1048 1.373 . S
C1047 C1049 1.389 . S
C1048 H1021 0.950 . S
C1048 C1034 1.377 . S
C1048 C1047 1.373 . S
C1049 C1033 1.377 . S
C1049 C1047 1.389 . S
C1049 C1050 1.524 . S
C1050 C1049 1.524 . S
C1050 C1051 1.397 . S
C1050 C1055 1.363 . S
C1051 H1022 0.950 . S
C1051 C1050 1.397 . S
C1051 C1052 1.334 . S
C1052 H1023 0.950 . S
C1052 C1051 1.334 . S
C1052 C1053 1.287 . S
C1053 C1052 1.287 . S
C1053 C1054 1.524 . S
C1053 H1056 0.999 . S
C1054 H1024 0.950 . S
C1054 C1053 1.524 . S
C1054 C1055 1.415 . S
C1055 H1025 0.950 . S
C1055 C1050 1.363 . S
C1055 C1054 1.415 . S
H1056 C1053 0.999 . S
H1057 C1038 0.913 . S
H1058 C1076 0.951 . S
H1059 C1078 0.951 . S
H1060 C1080 0.950 . S
H1061 C1081 0.950 . S
H1062 C1083 0.950 . S
H1063 C1086 0.950 . S
H1064 C1087 0.950 . S
H1065 C1089 0.950 . S
H1066 C1090 0.950 . S
H1067 C1091 0.951 . S
H1068 C1093 0.951 . S
H1069 C1095 0.950 . S
H1070 C1096 0.950 . S
H1071 C1098 0.950 . S
H1072 C1101 0.950 . S
H1073 C1102 0.950 . S
H1074 C1104 0.950 . S
H1075 C1105 0.950 . S
C1076 H1058 0.951 . S
C1076 C1077 1.366 . S
C1076 C1078 1.388 . S
C1077 C1076 1.366 . S
C1077 C1081 1.385 . S
C1078 H1059 0.951 . S
C1078 C1076 1.388 . S
C1078 C1079 1.366 . S
C1079 C1078 1.366 . S
C1079 C1080 1.414 . S
C1079 C1082 1.499 . S
C1080 H1060 0.950 . S
C1080 C1079 1.414 . S
C1080 C1081 1.374 . S
C1081 H1061 0.950 . S
C1081 C1077 1.385 . S
C1081 C1080 1.374 . S
C1082 C1079 1.499 . S
C1082 C1083 1.373 . S
C1082 C1084 1.389 . S
C1083 H1062 0.950 . S
C1083 C1082 1.373 . S
C1083 C1099 1.377 . S
C1084 C1082 1.389 . S
C1084 C1085 1.524 . S
C1084 C1098 1.377 . S
C1085 C1084 1.524 . S
C1085 C1086 1.397 . S
C1085 C1090 1.363 . S
C1086 H1063 0.950 . S
C1086 C1085 1.397 . S
C1086 C1087 1.334 . S
C1087 H1064 0.950 . S
C1087 C1086 1.334 . S
C1087 C1088 1.287 . S
C1088 C1087 1.287 . S
C1088 C1089 1.524 . S
C1088 H1107 0.913 . S
C1089 H1065 0.950 . S
C1089 C1088 1.524 . S
C1089 C1090 1.415 . S
C1090 H1066 0.950 . S
C1090 C1085 1.363 . S
C1090 C1089 1.415 . S
C1091 H1067 0.951 . S
C1091 C1092 1.366 . S
C1091 C1093 1.388 . S
C1092 C1091 1.366 . S
C1092 C1096 1.385 . S
C1093 H1068 0.951 . S
C1093 C1091 1.388 . S
C1093 C1094 1.366 . S
C1094 C1093 1.366 . S
C1094 C1095 1.414 . S
C1094 C1097 1.499 . S
C1095 H1069 0.950 . S
C1095 C1094 1.414 . S
C1095 C1096 1.374 . S
C1096 H1070 0.950 . S
C1096 C1092 1.385 . S
C1096 C1095 1.374 . S
C1097 C1094 1.499 . S
C1097 C1098 1.373 . S
C1097 C1099 1.389 . S
C1098 H1071 0.950 . S
C1098 C1084 1.377 . S
C1098 C1097 1.373 . S
C1099 C1083 1.377 . S
C1099 C1097 1.389 . S
C1099 C1100 1.524 . S
C1100 C1099 1.524 . S
C1100 C1101 1.397 . S
C1100 C1105 1.363 . S
C1101 H1072 0.950 . S
C1101 C1100 1.397 . S
C1101 C1102 1.334 1_565 S
C1102 H1073 0.950 . S
C1102 C1101 1.334 1_545 S
C1102 C1103 1.287 . S
C1103 C1102 1.287 . S
C1103 C1104 1.524 . S
C1103 H1106 0.999 . S
C1104 H1074 0.950 . S
C1104 C1103 1.524 . S
C1104 C1105 1.415 1_545 S
C1105 H1075 0.950 . S
C1105 C1100 1.363 . S
C1105 C1104 1.415 1_565 S
H1106 C1103 0.999 . S
H1107 C1088 0.913 . S
H1108 C1126 0.951 . S
H1109 C1128 0.951 . S
H1110 C1130 0.950 1_556 S
H1111 C1131 0.950 . S
H1112 C1133 0.917 1_556 S
H1113 C1136 0.950 . S
H1114 C1137 0.950 . S
H1115 C1139 0.950 . S
H1116 C1140 0.950 . S
H1117 C1141 0.951 . S
H1118 C1143 0.951 . S
H1119 C1145 0.950 . S
H1120 C1146 0.950 . S
H1121 C1148 0.950 . S
H1122 C1151 0.950 . S
H1123 C1152 0.951 . S
H1124 C1154 0.950 . S
H1125 C1155 0.950 . S
C1126 H1108 0.951 . S
C1126 C1127 1.366 . S
C1126 C1128 1.388 . S
C1127 C1126 1.366 . S
C1127 C1131 1.385 1_554 S
C1128 H1109 0.951 . S
C1128 C1126 1.388 . S
C1128 C1129 1.366 . S
C1129 C1128 1.366 . S
C1129 C1130 1.414 . S
C1129 C1132 1.499 . S
C1130 H1110 0.950 1_554 S
C1130 C1129 1.414 . S
C1130 C1131 1.374 1_554 S
C1131 H1111 0.950 . S
C1131 C1127 1.385 1_556 S
C1131 C1130 1.374 1_556 S
C1132 C1129 1.499 . S
C1132 C1133 1.373 . S
C1132 C1134 1.389 . S
C1133 H1112 0.917 1_554 S
C1133 C1132 1.373 . S
C1133 C1149 1.377 . S
C1134 C1132 1.389 . S
C1134 C1135 1.524 . S
C1134 C1148 1.377 . S
C1135 C1134 1.524 . S
C1135 C1136 1.397 . S
C1135 C1140 1.363 . S
C1136 H1113 0.950 . S
C1136 C1135 1.397 . S
C1136 C1137 1.334 . S
C1137 H1114 0.950 . S
C1137 C1136 1.334 . S
C1137 C1138 1.287 . S
C1138 C1137 1.287 . S
C1138 C1139 1.524 . S
C1138 H1157 0.913 . S
C1139 H1115 0.950 . S
C1139 C1138 1.524 . S
C1139 C1140 1.415 . S
C1140 H1116 0.950 . S
C1140 C1135 1.363 . S
C1140 C1139 1.415 . S
C1141 H1117 0.951 . S
C1141 C1142 1.366 . S
C1141 C1143 1.388 . S
C1142 C1141 1.366 . S
C1142 C1146 1.385 . S
C1143 H1118 0.951 . S
C1143 C1141 1.388 . S
C1143 C1144 1.366 . S
C1144 C1143 1.366 . S
C1144 C1145 1.414 . S
C1144 C1147 1.499 . S
C1145 H1119 0.950 . S
C1145 C1144 1.414 . S
C1145 C1146 1.374 . S
C1146 H1120 0.950 . S
C1146 C1142 1.385 . S
C1146 C1145 1.374 . S
C1147 C1144 1.499 . S
C1147 C1148 1.373 . S
C1147 C1149 1.389 . S
C1148 H1121 0.950 . S
C1148 C1134 1.377 . S
C1148 C1147 1.373 . S
C1149 C1133 1.377 . S
C1149 C1147 1.389 . S
C1149 C1150 1.524 . S
C1150 C1149 1.524 . S
C1150 C1151 1.397 . S
C1150 C1155 1.363 1_554 S
C1151 H1122 0.950 . S
C1151 C1150 1.397 . S
C1151 C1152 1.334 1_554 S
C1152 H1123 0.951 . S
C1152 C1151 1.334 1_556 S
C1152 C1153 1.287 . S
C1153 C1152 1.287 . S
C1153 C1154 1.524 . S
C1153 H1156 0.999 . S
C1154 H1124 0.950 . S
C1154 C1153 1.524 . S
C1154 C1155 1.415 . S
C1155 H1125 0.950 . S
C1155 C1150 1.363 1_556 S
C1155 C1154 1.415 . S
H1156 C1153 0.999 . S
H1157 C1138 0.913 . S
H1158 C1176 0.951 . S
H1159 C1178 0.951 . S
H1160 C1180 0.950 . S
H1161 C1181 0.950 . S
H1162 C1183 0.950 . S
H1163 C1186 0.950 . S
H1164 C1187 0.950 . S
H1165 C1189 0.950 . S
H1166 C1190 0.950 . S
H1167 C1191 0.951 . S
H1168 C1193 0.951 . S
H1169 C1195 0.950 . S
H1170 C1196 0.950 . S
H1171 C1198 0.950 . S
H1172 C1201 0.950 . S
H1173 C1202 0.950 1_565 S
H1174 C1204 0.950 . S
H1175 C1205 0.950 . S
C1176 H1158 0.951 . S
C1176 C1177 1.366 . S
C1176 C1178 1.388 . S
C1177 C1176 1.366 . S
C1177 C1181 1.385 . S
C1178 H1159 0.951 . S
C1178 C1176 1.388 . S
C1178 C1179 1.366 . S
C1179 C1178 1.366 . S
C1179 C1180 1.414 . S
C1179 C1182 1.499 . S
C1180 H1160 0.950 . S
C1180 C1179 1.414 . S
C1180 C1181 1.374 . S
C1181 H1161 0.950 . S
C1181 C1177 1.385 . S
C1181 C1180 1.374 . S
C1182 C1179 1.499 . S
C1182 C1183 1.373 . S
C1182 C1184 1.389 . S
C1183 H1162 0.950 . S
C1183 C1182 1.373 . S
C1183 C1199 1.377 . S
C1184 C1182 1.389 . S
C1184 C1185 1.524 . S
C1184 C1198 1.377 . S
C1185 C1184 1.524 . S
C1185 C1186 1.397 . S
C1185 C1190 1.363 . S
C1186 H1163 0.950 . S
C1186 C1185 1.397 . S
C1186 C1187 1.334 . S
C1187 H1164 0.950 . S
C1187 C1186 1.334 . S
C1187 C1188 1.287 . S
C1188 C1187 1.287 . S
C1188 C1189 1.524 . S
C1188 H1207 0.913 . S
C1189 H1165 0.950 . S
C1189 C1188 1.524 . S
C1189 C1190 1.415 . S
C1190 H1166 0.950 . S
C1190 C1185 1.363 . S
C1190 C1189 1.415 . S
C1191 H1167 0.951 . S
C1191 C1192 1.366 . S
C1191 C1193 1.388 . S
C1192 C1191 1.366 . S
C1192 C1196 1.385 1_545 S
C1193 H1168 0.951 . S
C1193 C1191 1.388 . S
C1193 C1194 1.366 . S
C1194 C1193 1.366 . S
C1194 C1195 1.414 1_545 S
C1194 C1197 1.499 . S
C1195 H1169 0.950 . S
C1195 C1194 1.414 1_565 S
C1195 C1196 1.374 . S
C1196 H1170 0.950 . S
C1196 C1192 1.385 1_565 S
C1196 C1195 1.374 . S
C1197 C1194 1.499 . S
C1197 C1198 1.373 . S
C1197 C1199 1.389 . S
C1198 H1171 0.950 . S
C1198 C1184 1.377 . S
C1198 C1197 1.373 . S
C1199 C1183 1.377 . S
C1199 C1197 1.389 . S
C1199 C1200 1.524 . S
C1200 C1199 1.524 . S
C1200 C1201 1.397 . S
C1200 C1205 1.363 . S
C1201 H1172 0.950 . S
C1201 C1200 1.397 . S
C1201 C1202 1.334 . S
C1202 H1173 0.950 1_545 S
C1202 C1201 1.334 . S
C1202 C1203 1.287 . S
C1203 C1202 1.287 . S
C1203 C1204 1.524 . S
C1203 H1206 0.999 . S
C1204 H1174 0.950 . S
C1204 C1203 1.524 . S
C1204 C1205 1.415 . S
C1205 H1175 0.950 . S
C1205 C1200 1.363 . S
C1205 C1204 1.415 . S
H1206 C1203 0.999 . S
H1207 C1188 0.913 . S
H1208 C1226 0.951 . S
H1209 C1228 0.951 . S
H1210 C1230 0.950 . S
H1211 C1231 0.950 . S
H1212 C1233 0.950 . S
H1213 C1236 0.950 . S
H1214 C1237 0.950 . S
H1215 C1239 0.950 . S
H1216 C1240 0.950 . S
H1217 C1241 0.951 . S
H1218 C1243 0.951 . S
H1219 C1245 0.950 . S
H1220 C1246 0.950 . S
H1221 C1248 0.950 . S
H1222 C1251 0.950 . S
H1223 C1252 0.950 . S
H1224 C1254 0.950 . S
H1225 C1255 0.950 . S
C1226 H1208 0.951 . S
C1226 C1227 1.366 . S
C1226 C1228 1.388 . S
C1227 C1226 1.366 . S
C1227 C1231 1.385 . S
C1228 H1209 0.951 . S
C1228 C1226 1.388 . S
C1228 C1229 1.366 . S
C1229 C1228 1.366 . S
C1229 C1230 1.414 . S
C1229 C1232 1.499 . S
C1230 H1210 0.950 . S
C1230 C1229 1.414 . S
C1230 C1231 1.374 . S
C1231 H1211 0.950 . S
C1231 C1227 1.385 . S
C1231 C1230 1.374 . S
C1232 C1229 1.499 . S
C1232 C1233 1.373 . S
C1232 C1234 1.389 . S
C1233 H1212 0.950 . S
C1233 C1232 1.373 . S
C1233 C1249 1.377 . S
C1234 C1232 1.389 . S
C1234 C1235 1.524 . S
C1234 C1248 1.377 . S
C1235 C1234 1.524 . S
C1235 C1236 1.397 . S
C1235 C1240 1.363 . S
C1236 H1213 0.950 . S
C1236 C1235 1.397 . S
C1236 C1237 1.334 . S
C1237 H1214 0.950 . S
C1237 C1236 1.334 . S
C1237 C1238 1.287 . S
C1238 C1237 1.287 . S
C1238 C1239 1.524 . S
C1238 H1257 0.913 . S
C1239 H1215 0.950 . S
C1239 C1238 1.524 . S
C1239 C1240 1.415 . S
C1240 H1216 0.950 . S
C1240 C1235 1.363 . S
C1240 C1239 1.415 . S
C1241 H1217 0.951 . S
C1241 C1242 1.366 . S
C1241 C1243 1.388 . S
C1242 C1241 1.366 . S
C1242 C1246 1.385 . S
C1243 H1218 0.951 . S
C1243 C1241 1.388 . S
C1243 C1244 1.366 . S
C1244 C1243 1.366 . S
C1244 C1245 1.414 . S
C1244 C1247 1.499 . S
C1245 H1219 0.950 . S
C1245 C1244 1.414 . S
C1245 C1246 1.374 . S
C1246 H1220 0.950 . S
C1246 C1242 1.385 . S
C1246 C1245 1.374 . S
C1247 C1244 1.499 . S
C1247 C1248 1.373 . S
C1247 C1249 1.389 . S
C1248 H1221 0.950 . S
C1248 C1234 1.377 . S
C1248 C1247 1.373 . S
C1249 C1233 1.377 . S
C1249 C1247 1.389 . S
C1249 C1250 1.524 . S
C1250 C1249 1.524 . S
C1250 C1251 1.397 . S
C1250 C1255 1.363 . S
C1251 H1222 0.950 . S
C1251 C1250 1.397 . S
C1251 C1252 1.334 . S
C1252 H1223 0.950 . S
C1252 C1251 1.334 . S
C1252 C1253 1.287 . S
C1253 C1252 1.287 . S
C1253 C1254 1.524 . S
C1253 H1256 0.999 . S
C1254 H1224 0.950 . S
C1254 C1253 1.524 . S
C1254 C1255 1.415 . S
C1255 H1225 0.950 . S
C1255 C1250 1.363 . S
C1255 C1254 1.415 . S
H1256 C1253 0.999 . S
H1257 C1238 0.913 . S
H1258 C1276 0.951 . S
H1259 C1278 0.951 . S
H1260 C1280 0.950 . S
H1261 C1281 0.950 . S
H1262 C1283 0.950 . S
H1263 C1286 0.950 . S
H1264 C1287 0.950 . S
H1265 C1289 0.950 . S
H1266 C1290 0.950 . S
H1267 C1291 0.951 . S
H1268 C1293 0.951 . S
H1269 C1295 0.950 . S
H1270 C1296 0.950 . S
H1271 C1298 0.950 . S
H1272 C1301 0.950 . S
H1273 C1302 0.950 . S
H1274 C1304 0.950 . S
H1275 C1305 0.950 . S
C1276 H1258 0.951 . S
C1276 C1277 1.366 . S
C1276 C1278 1.388 . S
C1277 C1276 1.366 . S
C1277 C1281 1.385 . S
C1278 H1259 0.951 . S
C1278 C1276 1.388 . S
C1278 C1279 1.366 . S
C1279 C1278 1.366 . S
C1279 C1280 1.414 . S
C1279 C1282 1.499 . S
C1280 H1260 0.950 . S
C1280 C1279 1.414 . S
C1280 C1281 1.374 . S
C1281 H1261 0.950 . S
C1281 C1277 1.385 . S
C1281 C1280 1.374 . S
C1282 C1279 1.499 . S
C1282 C1283 1.373 . S
C1282 C1284 1.389 . S
C1283 H1262 0.950 . S
C1283 C1282 1.373 . S
C1283 C1299 1.377 . S
C1284 C1282 1.389 . S
C1284 C1285 1.524 . S
C1284 C1298 1.377 . S
C1285 C1284 1.524 . S
C1285 C1286 1.397 . S
C1285 C1290 1.363 . S
C1286 H1263 0.950 . S
C1286 C1285 1.397 . S
C1286 C1287 1.334 . S
C1287 H1264 0.950 . S
C1287 C1286 1.334 . S
C1287 C1288 1.287 . S
C1288 C1287 1.287 . S
C1288 C1289 1.524 . S
C1288 H1307 0.913 . S
C1289 H1265 0.950 . S
C1289 C1288 1.524 . S
C1289 C1290 1.415 . S
C1290 H1266 0.950 . S
C1290 C1285 1.363 . S
C1290 C1289 1.415 . S
C1291 H1267 0.951 . S
C1291 C1292 1.366 . S
C1291 C1293 1.388 . S
C1292 C1291 1.366 . S
C1292 C1296 1.385 . S
C1293 H1268 0.951 . S
C1293 C1291 1.388 . S
C1293 C1294 1.366 . S
C1294 C1293 1.366 . S
C1294 C1295 1.414 . S
C1294 C1297 1.499 . S
C1295 H1269 0.950 . S
C1295 C1294 1.414 . S
C1295 C1296 1.374 . S
C1296 H1270 0.950 . S
C1296 C1292 1.385 . S
C1296 C1295 1.374 . S
C1297 C1294 1.499 . S
C1297 C1298 1.373 . S
C1297 C1299 1.389 . S
C1298 H1271 0.950 . S
C1298 C1284 1.377 . S
C1298 C1297 1.373 . S
C1299 C1283 1.377 . S
C1299 C1297 1.389 . S
C1299 C1300 1.524 . S
C1300 C1299 1.524 . S
C1300 C1301 1.397 . S
C1300 C1305 1.363 . S
C1301 H1272 0.950 . S
C1301 C1300 1.397 . S
C1301 C1302 1.334 . S
C1302 H1273 0.950 . S
C1302 C1301 1.334 . S
C1302 C1303 1.287 . S
C1303 C1302 1.287 . S
C1303 C1304 1.524 . S
C1303 H1306 0.999 . S
C1304 H1274 0.950 . S
C1304 C1303 1.524 . S
C1304 C1305 1.415 . S
C1305 H1275 0.950 . S
C1305 C1300 1.363 . S
C1305 C1304 1.415 . S
H1306 C1303 0.999 . S
H1307 C1288 0.913 . S
H1308 C1326 0.951 . S
H1309 C1328 0.951 . S
H1310 C1330 0.950 . S
H1311 C1331 0.950 . S
H1312 C1333 0.950 . S
H1313 C1336 0.950 . S
H1314 C1337 0.950 . S
H1315 C1339 0.950 . S
H1316 C1340 0.950 . S
H1317 C1341 0.951 . S
H1318 C1343 0.951 . S
H1319 C1345 0.950 . S
H1320 C1346 0.950 . S
H1321 C1348 0.950 . S
H1322 C1351 0.950 . S
H1323 C1352 0.950 . S
H1324 C1354 0.950 . S
H1325 C1355 0.950 1_554 S
C1326 H1308 0.951 . S
C1326 C1327 1.366 . S
C1326 C1328 1.388 . S
C1327 C1326 1.366 . S
C1327 C1331 1.385 . S
C1328 H1309 0.951 . S
C1328 C1326 1.388 . S
C1328 C1329 1.366 . S
C1329 C1328 1.366 . S
C1329 C1330 1.414 . S
C1329 C1332 1.499 . S
C1330 H1310 0.950 . S
C1330 C1329 1.414 . S
C1330 C1331 1.374 . S
C1331 H1311 0.950 . S
C1331 C1327 1.385 . S
C1331 C1330 1.374 . S
C1332 C1329 1.499 . S
C1332 C1333 1.373 . S
C1332 C1334 1.389 . S
C1333 H1312 0.950 . S
C1333 C1332 1.373 . S
C1333 C1349 1.377 . S
C1334 C1332 1.389 . S
C1334 C1335 1.524 . S
C1334 C1348 1.377 . S
C1335 C1334 1.524 . S
C1335 C1336 1.397 . S
C1335 C1340 1.363 . S
C1336 H1313 0.950 . S
C1336 C1335 1.397 . S
C1336 C1337 1.334 . S
C1337 H1314 0.950 . S
C1337 C1336 1.334 . S
C1337 C1338 1.287 . S
C1338 C1337 1.287 . S
C1338 C1339 1.524 . S
C1338 H1357 0.913 . S
C1339 H1315 0.950 . S
C1339 C1338 1.524 . S
C1339 C1340 1.415 . S
C1340 H1316 0.950 . S
C1340 C1335 1.363 . S
C1340 C1339 1.415 . S
C1341 H1317 0.951 . S
C1341 C1342 1.366 1_554 S
C1341 C1343 1.388 . S
C1342 C1341 1.366 1_556 S
C1342 C1346 1.385 . S
C1343 H1318 0.951 . S
C1343 C1341 1.388 . S
C1343 C1344 1.366 1_554 S
C1344 C1343 1.366 1_556 S
C1344 C1345 1.414 . S
C1344 C1347 1.499 . S
C1345 H1319 0.950 . S
C1345 C1344 1.414 . S
C1345 C1346 1.374 . S
C1346 H1320 0.950 . S
C1346 C1342 1.385 . S
C1346 C1345 1.374 . S
C1347 C1344 1.499 . S
C1347 C1348 1.373 . S
C1347 C1349 1.389 . S
C1348 H1321 0.950 . S
C1348 C1334 1.377 . S
C1348 C1347 1.373 . S
C1349 C1333 1.377 . S
C1349 C1347 1.389 . S
C1349 C1350 1.524 . S
C1350 C1349 1.524 . S
C1350 C1351 1.397 . S
C1350 C1355 1.363 . S
C1351 H1322 0.950 . S
C1351 C1350 1.397 . S
C1351 C1352 1.334 . S
C1352 H1323 0.950 . S
C1352 C1351 1.334 . S
C1352 C1353 1.287 . S
C1353 C1352 1.287 . S
C1353 C1354 1.524 1_556 S
C1353 H1356 0.999 . S
C1354 H1324 0.950 . S
C1354 C1353 1.524 1_554 S
C1354 C1355 1.415 1_554 S
C1355 H1325 0.950 1_556 S
C1355 C1350 1.363 . S
C1355 C1354 1.415 1_556 S
H1356 C1353 0.999 . S
H1357 C1338 0.913 . S
H1358 C1376 0.951 . S
H1359 C1378 0.951 . S
H1360 C1380 0.950 . S
H1361 C1381 0.950 . S
H1362 C1383 0.950 . S
H1363 C1386 0.950 . S
H1364 C1387 0.950 . S
H1365 C1389 0.950 . S
H1366 C1390 0.950 . S
H1367 C1391 0.951 . S
H1368 C1393 0.951 . S
H1369 C1395 0.950 . S
H1370 C1396 0.950 . S
H1371 C1398 0.950 . S
H1372 C1401 0.950 . S
H1373 C1402 0.950 . S
H1374 C1404 0.950 . S
H1375 C1405 0.950 . S
C1376 H1358 0.951 . S
C1376 C1377 1.366 . S
C1376 C1378 1.388 . S
C1377 C1376 1.366 . S
C1377 C1381 1.385 . S
C1378 H1359 0.951 . S
C1378 C1376 1.388 . S
C1378 C1379 1.366 . S
C1379 C1378 1.366 . S
C1379 C1380 1.414 . S
C1379 C1382 1.499 . S
C1380 H1360 0.950 . S
C1380 C1379 1.414 . S
C1380 C1381 1.374 . S
C1381 H1361 0.950 . S
C1381 C1377 1.385 . S
C1381 C1380 1.374 . S
C1382 C1379 1.499 . S
C1382 C1383 1.373 . S
C1382 C1384 1.389 . S
C1383 H1362 0.950 . S
C1383 C1382 1.373 . S
C1383 C1399 1.377 . S
C1384 C1382 1.389 . S
C1384 C1385 1.524 . S
C1384 C1398 1.377 . S
C1385 C1384 1.524 . S
C1385 C1386 1.397 . S
C1385 C1390 1.363 . S
C1386 H1363 0.950 . S
C1386 C1385 1.397 . S
C1386 C1387 1.334 . S
C1387 H1364 0.950 . S
C1387 C1386 1.334 . S
C1387 C1388 1.287 . S
C1388 C1387 1.287 . S
C1388 C1389 1.524 . S
C1388 H1407 0.913 . S
C1389 H1365 0.950 . S
C1389 C1388 1.524 . S
C1389 C1390 1.415 . S
C1390 H1366 0.950 . S
C1390 C1385 1.363 . S
C1390 C1389 1.415 . S
C1391 H1367 0.951 . S
C1391 C1392 1.366 . S
C1391 C1393 1.388 . S
C1392 C1391 1.366 . S
C1392 C1396 1.385 . S
C1393 H1368 0.951 . S
C1393 C1391 1.388 . S
C1393 C1394 1.366 . S
C1394 C1393 1.366 . S
C1394 C1395 1.414 . S
C1394 C1397 1.499 . S
C1395 H1369 0.950 . S
C1395 C1394 1.414 . S
C1395 C1396 1.374 . S
C1396 H1370 0.950 . S
C1396 C1392 1.385 . S
C1396 C1395 1.374 . S
C1397 C1394 1.499 . S
C1397 C1398 1.373 . S
C1397 C1399 1.389 . S
C1398 H1371 0.950 . S
C1398 C1384 1.377 . S
C1398 C1397 1.373 . S
C1399 C1383 1.377 . S
C1399 C1397 1.389 . S
C1399 C1400 1.524 . S
C1400 C1399 1.524 . S
C1400 C1401 1.397 . S
C1400 C1405 1.363 . S
C1401 H1372 0.950 . S
C1401 C1400 1.397 . S
C1401 C1402 1.334 . S
C1402 H1373 0.950 . S
C1402 C1401 1.334 . S
C1402 C1403 1.287 . S
C1403 C1402 1.287 . S
C1403 C1404 1.524 . S
C1403 H1406 0.999 . S
C1404 H1374 0.950 . S
C1404 C1403 1.524 . S
C1404 C1405 1.415 . S
C1405 H1375 0.950 . S
C1405 C1400 1.363 . S
C1405 C1404 1.415 . S
H1406 C1403 0.999 . S
H1407 C1388 0.913 . S
H1408 C1426 0.951 . S
H1409 C1428 0.951 . S
H1410 C1430 0.950 . S
H1411 C1431 0.950 . S
H1412 C1433 0.950 . S
H1413 C1436 0.950 . S
H1414 C1437 0.950 . S
H1415 C1439 0.950 . S
H1416 C1440 0.950 . S
H1417 C1441 0.951 . S
H1418 C1443 0.951 . S
H1419 C1445 0.950 . S
H1420 C1446 0.950 . S
H1421 C1448 0.950 . S
H1422 C1451 0.950 . S
H1423 C1452 0.950 . S
H1424 C1454 0.950 . S
H1425 C1455 0.950 . S
C1426 H1408 0.951 . S
C1426 C1427 1.366 . S
C1426 C1428 1.388 . S
C1427 C1426 1.366 . S
C1427 C1431 1.385 . S
C1428 H1409 0.951 . S
C1428 C1426 1.388 . S
C1428 C1429 1.366 . S
C1429 C1428 1.366 . S
C1429 C1430 1.414 . S
C1429 C1432 1.499 . S
C1430 H1410 0.950 . S
C1430 C1429 1.414 . S
C1430 C1431 1.374 . S
C1431 H1411 0.950 . S
C1431 C1427 1.385 . S
C1431 C1430 1.374 . S
C1432 C1429 1.499 . S
C1432 C1433 1.373 . S
C1432 C1434 1.389 . S
C1433 H1412 0.950 . S
C1433 C1432 1.373 . S
C1433 C1449 1.377 . S
C1434 C1432 1.389 . S
C1434 C1435 1.524 . S
C1434 C1448 1.377 . S
C1435 C1434 1.524 . S
C1435 C1436 1.397 . S
C1435 C1440 1.363 . S
C1436 H1413 0.950 . S
C1436 C1435 1.397 . S
C1436 C1437 1.334 . S
C1437 H1414 0.950 . S
C1437 C1436 1.334 . S
C1437 C1438 1.287 . S
C1438 C1437 1.287 . S
C1438 C1439 1.524 . S
C1438 H1457 0.913 . S
C1439 H1415 0.950 . S
C1439 C1438 1.524 . S
C1439 C1440 1.415 . S
C1440 H1416 0.950 . S
C1440 C1435 1.363 . S
C1440 C1439 1.415 . S
C1441 H1417 0.951 . S
C1441 C1442 1.366 . S
C1441 C1443 1.388 . S
C1442 C1441 1.366 . S
C1442 C1446 1.385 . S
C1443 H1418 0.951 . S
C1443 C1441 1.388 . S
C1443 C1444 1.366 . S
C1444 C1443 1.366 . S
C1444 C1445 1.414 . S
C1444 C1447 1.499 . S
C1445 H1419 0.950 . S
C1445 C1444 1.414 . S
C1445 C1446 1.374 . S
C1446 H1420 0.950 . S
C1446 C1442 1.385 . S
C1446 C1445 1.374 . S
C1447 C1444 1.499 . S
C1447 C1448 1.373 . S
C1447 C1449 1.389 . S
C1448 H1421 0.950 . S
C1448 C1434 1.377 . S
C1448 C1447 1.373 . S
C1449 C1433 1.377 . S
C1449 C1447 1.389 . S
C1449 C1450 1.524 . S
C1450 C1449 1.524 . S
C1450 C1451 1.397 . S
C1450 C1455 1.363 . S
C1451 H1422 0.950 . S
C1451 C1450 1.397 . S
C1451 C1452 1.334 . S
C1452 H1423 0.950 . S
C1452 C1451 1.334 . S
C1452 C1453 1.287 . S
C1453 C1452 1.287 . S
C1453 C1454 1.524 . S
C1453 H1456 0.999 . S
C1454 H1424 0.950 . S
C1454 C1453 1.524 . S
C1454 C1455 1.415 . S
C1455 H1425 0.950 . S
C1455 C1450 1.363 . S
C1455 C1454 1.415 . S
H1456 C1453 0.999 . S
H1457 C1438 0.913 . S
H1458 C1476 0.951 . S
H1459 C1478 0.951 . S
H1460 C1480 0.950 . S
H1461 C1481 0.950 . S
H1462 C1483 0.950 . S
H1463 C1486 0.950 . S
H1464 C1487 0.950 . S
H1465 C1489 0.950 1_655 S
H1466 C1490 0.950 1_655 S
H1467 C1491 0.951 . S
H1468 C1493 0.951 . S
H1469 C1495 0.950 . S
H1470 C1496 0.950 . S
H1471 C1498 0.950 . S
H1472 C1501 0.950 . S
H1473 C1502 0.950 . S
H1474 C1504 0.950 . S
H1475 C1505 0.950 . S
C1476 H1458 0.951 . S
C1476 C1477 1.366 . S
C1476 C1478 1.388 . S
C1477 C1476 1.366 . S
C1477 C1481 1.385 . S
C1478 H1459 0.951 . S
C1478 C1476 1.388 . S
C1478 C1479 1.366 . S
C1479 C1478 1.366 . S
C1479 C1480 1.414 . S
C1479 C1482 1.499 . S
C1480 H1460 0.950 . S
C1480 C1479 1.414 . S
C1480 C1481 1.374 . S
C1481 H1461 0.950 . S
C1481 C1477 1.385 . S
C1481 C1480 1.374 . S
C1482 C1479 1.499 . S
C1482 C1483 1.373 . S
C1482 C1484 1.389 . S
C1483 H1462 0.950 . S
C1483 C1482 1.373 . S
C1483 C1499 1.377 . S
C1484 C1482 1.389 . S
C1484 C1485 1.524 . S
C1484 C1498 1.377 . S
C1485 C1484 1.524 . S
C1485 C1486 1.397 . S
C1485 C1490 1.363 . S
C1486 H1463 0.950 . S
C1486 C1485 1.397 . S
C1486 C1487 1.334 . S
C1487 H1464 0.950 . S
C1487 C1486 1.334 . S
C1487 C1488 1.287 . S
C1488 C1487 1.287 . S
C1488 C1489 1.524 . S
C1488 H1507 0.913 . S
C1489 H1465 0.950 1_455 S
C1489 C1488 1.524 . S
C1489 C1490 1.415 . S
C1490 H1466 0.950 1_455 S
C1490 C1485 1.363 . S
C1490 C1489 1.415 . S
C1491 H1467 0.951 . S
C1491 C1492 1.366 . S
C1491 C1493 1.388 . S
C1492 C1491 1.366 . S
C1492 C1496 1.385 1_455 S
C1493 H1468 0.951 . S
C1493 C1491 1.388 . S
C1493 C1494 1.366 . S
C1494 C1493 1.366 . S
C1494 C1495 1.414 1_455 S
C1494 C1497 1.499 . S
C1495 H1469 0.950 . S
C1495 C1494 1.414 1_655 S
C1495 C1496 1.374 . S
C1496 H1470 0.950 . S
C1496 C1492 1.385 1_655 S
C1496 C1495 1.374 . S
C1497 C1494 1.499 . S
C1497 C1498 1.373 . S
C1497 C1499 1.389 . S
C1498 H1471 0.950 . S
C1498 C1484 1.377 . S
C1498 C1497 1.373 . S
C1499 C1483 1.377 . S
C1499 C1497 1.389 . S
C1499 C1500 1.524 . S
C1500 C1499 1.524 . S
C1500 C1501 1.397 . S
C1500 C1505 1.363 . S
C1501 H1472 0.950 . S
C1501 C1500 1.397 . S
C1501 C1502 1.334 . S
C1502 H1473 0.950 . S
C1502 C1501 1.334 . S
C1502 C1503 1.287 . S
C1503 C1502 1.287 . S
C1503 C1504 1.524 . S
C1503 H1506 0.999 . S
C1504 H1474 0.950 . S
C1504 C1503 1.524 . S
C1504 C1505 1.415 . S
C1505 H1475 0.950 . S
C1505 C1500 1.363 . S
C1505 C1504 1.415 . S
H1506 C1503 0.999 . S
H1507 C1488 0.913 . S
H1508 C1526 0.951 . S
H1509 C1528 0.951 . S
H1510 C1530 0.950 . S
H1511 C1531 0.950 . S
H1512 C1533 0.950 . S
H1513 C1536 0.950 . S
H1514 C1537 0.950 . S
H1515 C1539 0.950 . S
H1516 C1540 0.950 . S
H1517 C1541 0.951 . S
H1518 C1543 0.951 . S
H1519 C1545 0.950 . S
H1520 C1546 0.950 . S
H1521 C1548 0.950 . S
H1522 C1551 0.950 . S
H1523 C1552 0.950 . S
H1524 C1554 0.950 . S
H1525 C1555 0.950 . S
C1526 H1508 0.951 . S
C1526 C1527 1.372 . S
C1526 C1528 1.388 . S
C1527 C1526 1.372 . S
C1527 C1531 1.375 1_455 S
C1528 H1509 0.951 . S
C1528 C1526 1.388 . S
C1528 C1529 1.366 1_455 S
C1529 C1528 1.366 1_655 S
C1529 C1530 1.414 . S
C1529 C1532 1.499 . S
C1530 H1510 0.950 . S
C1530 C1529 1.414 . S
C1530 C1531 1.374 . S
C1531 H1511 0.950 . S
C1531 C1527 1.375 1_655 S
C1531 C1530 1.374 . S
C1532 C1529 1.499 . S
C1532 C1533 1.373 . S
C1532 C1534 1.389 . S
C1533 H1512 0.950 . S
C1533 C1532 1.373 . S
C1533 C1549 1.377 . S
C1534 C1532 1.389 . S
C1534 C1535 1.524 . S
C1534 C1548 1.377 . S
C1535 C1534 1.524 . S
C1535 C1536 1.397 . S
C1535 C1540 1.363 1_655 S
C1536 H1513 0.950 . S
C1536 C1535 1.397 . S
C1536 C1537 1.334 . S
C1537 H1514 0.950 . S
C1537 C1536 1.334 . S
C1537 C1538 1.287 1_655 S
C1538 C1537 1.287 1_455 S
C1538 C1539 1.524 . S
C1538 H1557 0.913 . S
C1539 H1515 0.950 . S
C1539 C1538 1.524 . S
C1539 C1540 1.415 . S
C1540 H1516 0.950 . S
C1540 C1535 1.363 1_455 S
C1540 C1539 1.415 . S
C1541 H1517 0.951 . S
C1541 C1542 1.366 . S
C1541 C1543 1.388 . S
C1542 C1541 1.366 . S
C1542 C1546 1.385 . S
C1543 H1518 0.951 . S
C1543 C1541 1.388 . S
C1543 C1544 1.366 . S
C1544 C1543 1.366 . S
C1544 C1545 1.414 . S
C1544 C1547 1.499 . S
C1545 H1519 0.950 . S
C1545 C1544 1.414 . S
C1545 C1546 1.374 . S
C1546 H1520 0.950 . S
C1546 C1542 1.385 . S
C1546 C1545 1.374 . S
C1547 C1544 1.499 . S
C1547 C1548 1.373 . S
C1547 C1549 1.389 . S
C1548 H1521 0.950 . S
C1548 C1534 1.377 . S
C1548 C1547 1.373 . S
C1549 C1533 1.377 . S
C1549 C1547 1.389 . S
C1549 C1550 1.524 . S
C1550 C1549 1.524 . S
C1550 C1551 1.397 . S
C1550 C1555 1.363 . S
C1551 H1522 0.950 . S
C1551 C1550 1.397 . S
C1551 C1552 1.334 . S
C1552 H1523 0.950 . S
C1552 C1551 1.334 . S
C1552 C1553 1.287 . S
C1553 C1552 1.287 . S
C1553 C1554 1.524 . S
C1553 H1556 0.999 . S
C1554 H1524 0.950 . S
C1554 C1553 1.524 . S
C1554 C1555 1.415 . S
C1555 H1525 0.950 . S
C1555 C1550 1.363 . S
C1555 C1554 1.415 . S
H1556 C1553 0.999 . S
H1557 C1538 0.913 . S
H1558 C1576 0.951 . S
H1559 C1578 0.951 . S
H1560 C1580 0.950 . S
H1561 C1581 0.950 . S
H1562 C1583 0.950 . S
H1563 C1586 0.950 . S
H1564 C1587 0.950 . S
H1565 C1589 0.950 . S
H1566 C1590 0.950 . S
H1567 C1591 0.951 . S
H1568 C1593 0.951 . S
H1569 C1595 0.950 . S
H1570 C1596 0.950 . S
H1571 C1598 0.950 . S
H1572 C1601 0.950 . S
H1573 C1602 0.950 . S
H1574 C1604 0.950 . S
H1575 C1605 0.950 . S
C1576 H1558 0.951 . S
C1576 C1577 1.366 . S
C1576 C1578 1.388 . S
C1577 C1576 1.366 . S
C1577 C1581 1.385 . S
C1578 H1559 0.951 . S
C1578 C1576 1.388 . S
C1578 C1579 1.366 . S
C1579 C1578 1.366 . S
C1579 C1580 1.414 . S
C1579 C1582 1.499 . S
C1580 H1560 0.950 . S
C1580 C1579 1.414 . S
C1580 C1581 1.374 . S
C1581 H1561 0.950 . S
C1581 C1577 1.385 . S
C1581 C1580 1.374 . S
C1582 C1579 1.499 . S
C1582 C1583 1.373 . S
C1582 C1584 1.389 . S
C1583 H1562 0.950 . S
C1583 C1582 1.373 . S
C1583 C1599 1.377 . S
C1584 C1582 1.389 . S
C1584 C1585 1.524 . S
C1584 C1598 1.377 . S
C1585 C1584 1.524 . S
C1585 C1586 1.397 . S
C1585 C1590 1.363 . S
C1586 H1563 0.950 . S
C1586 C1585 1.397 . S
C1586 C1587 1.334 . S
C1587 H1564 0.950 . S
C1587 C1586 1.334 . S
C1587 C1588 1.287 . S
C1588 C1587 1.287 . S
C1588 C1589 1.524 . S
C1588 H1607 0.913 . S
C1589 H1565 0.950 . S
C1589 C1588 1.524 . S
C1589 C1590 1.415 . S
C1590 H1566 0.950 . S
C1590 C1585 1.363 . S
C1590 C1589 1.415 . S
C1591 H1567 0.951 . S
C1591 C1592 1.366 . S
C1591 C1593 1.388 . S
C1592 C1591 1.366 . S
C1592 C1596 1.385 . S
C1593 H1568 0.951 . S
C1593 C1591 1.388 . S
C1593 C1594 1.366 . S
C1594 C1593 1.366 . S
C1594 C1595 1.414 . S
C1594 C1597 1.499 . S
C1595 H1569 0.950 . S
C1595 C1594 1.414 . S
C1595 C1596 1.374 . S
C1596 H1570 0.950 . S
C1596 C1592 1.385 . S
C1596 C1595 1.374 . S
C1597 C1594 1.499 . S
C1597 C1598 1.373 . S
C1597 C1599 1.389 . S
C1598 H1571 0.950 . S
C1598 C1584 1.377 . S
C1598 C1597 1.373 . S
C1599 C1583 1.377 . S
C1599 C1597 1.389 . S
C1599 C1600 1.524 . S
C1600 C1599 1.524 . S
C1600 C1601 1.397 . S
C1600 C1605 1.363 . S
C1601 H1572 0.950 . S
C1601 C1600 1.397 . S
C1601 C1602 1.334 . S
C1602 H1573 0.950 . S
C1602 C1601 1.334 . S
C1602 C1603 1.287 . S
C1603 C1602 1.287 . S
C1603 C1604 1.524 . S
C1603 H1606 0.999 . S
C1604 H1574 0.950 . S
C1604 C1603 1.524 . S
C1604 C1605 1.415 . S
C1605 H1575 0.950 . S
C1605 C1600 1.363 . S
C1605 C1604 1.415 . S
H1606 C1603 0.999 . S
H1607 C1588 0.913 . S
H1608 C1626 0.951 . S
H1609 C1628 0.951 . S
H1610 C1630 0.950 . S
H1611 C1631 0.950 . S
H1612 C1633 0.950 . S
H1613 C1636 0.950 . S
H1614 C1637 0.950 . S
H1615 C1639 0.950 . S
H1616 C1640 0.950 . S
H1617 C1641 0.951 . S
H1618 C1643 0.951 . S
H1619 C1645 0.950 . S
H1620 C1646 0.950 . S
H1621 C1648 0.950 . S
H1622 C1651 0.950 . S
H1623 C1652 0.950 . S
H1624 C1654 0.950 . S
H1625 C1655 0.950 . S
C1626 H1608 0.951 . S
C1626 C1627 1.366 . S
C1626 C1628 1.388 . S
C1627 C1626 1.366 . S
C1627 C1631 1.385 . S
C1628 H1609 0.951 . S
C1628 C1626 1.388 . S
C1628 C1629 1.366 . S
C1629 C1628 1.366 . S
C1629 C1630 1.414 . S
C1629 C1632 1.499 . S
C1630 H1610 0.950 . S
C1630 C1629 1.414 . S
C1630 C1631 1.374 . S
C1631 H1611 0.950 . S
C1631 C1627 1.385 . S
C1631 C1630 1.374 . S
C1632 C1629 1.499 . S
C1632 C1633 1.373 . S
C1632 C1634 1.389 . S
C1633 H1612 0.950 . S
C1633 C1632 1.373 . S
C1633 C1649 1.377 . S
C1634 C1632 1.389 . S
C1634 C1635 1.524 . S
C1634 C1648 1.377 . S
C1635 C1634 1.524 . S
C1635 C1636 1.397 . S
C1635 C1640 1.363 . S
C1636 H1613 0.950 . S
C1636 C1635 1.397 . S
C1636 C1637 1.334 . S
C1637 H1614 0.950 . S
C1637 C1636 1.334 . S
C1637 C1638 1.287 . S
C1638 C1637 1.287 . S
C1638 C1639 1.524 . S
C1638 H1657 0.913 . S
C1639 H1615 0.950 . S
C1639 C1638 1.524 . S
C1639 C1640 1.415 . S
C1640 H1616 0.950 . S
C1640 C1635 1.363 . S
C1640 C1639 1.415 . S
C1641 H1617 0.951 . S
C1641 C1642 1.366 . S
C1641 C1643 1.388 . S
C1642 C1641 1.366 . S
C1642 C1646 1.385 . S
C1643 H1618 0.951 . S
C1643 C1641 1.388 . S
C1643 C1644 1.366 . S
C1644 C1643 1.366 . S
C1644 C1645 1.414 . S
C1644 C1647 1.499 . S
C1645 H1619 0.950 . S
C1645 C1644 1.414 . S
C1645 C1646 1.374 . S
C1646 H1620 0.950 . S
C1646 C1642 1.385 . S
C1646 C1645 1.374 . S
C1647 C1644 1.499 . S
C1647 C1648 1.373 . S
C1647 C1649 1.389 . S
C1648 H1621 0.950 . S
C1648 C1634 1.377 . S
C1648 C1647 1.373 . S
C1649 C1633 1.377 . S
C1649 C1647 1.389 . S
C1649 C1650 1.524 . S
C1650 C1649 1.524 . S
C1650 C1651 1.397 . S
C1650 C1655 1.363 . S
C1651 H1622 0.950 . S
C1651 C1650 1.397 . S
C1651 C1652 1.334 . S
C1652 H1623 0.950 . S
C1652 C1651 1.334 . S
C1652 C1653 1.287 . S
C1653 C1652 1.287 . S
C1653 C1654 1.524 . S
C1653 H1656 0.999 . S
C1654 H1624 0.950 . S
C1654 C1653 1.524 . S
C1654 C1655 1.415 . S
C1655 H1625 0.950 . S
C1655 C1650 1.363 . S
C1655 C1654 1.415 . S
H1656 C1653 0.999 . S
H1657 C1638 0.913 . S
H1658 C1676 0.951 . S
H1659 C1678 0.951 . S
H1660 C1680 0.950 . S
H1661 C1681 0.950 . S
H1662 C1683 0.950 . S
H1663 C1686 0.950 . S
H1664 C1687 0.950 . S
H1665 C1689 0.950 . S
H1666 C1690 0.950 . S
H1667 C1691 0.951 . S
H1668 C1693 0.951 . S
H1669 C1695 0.950 . S
H1670 C1696 0.950 . S
H1671 C1698 0.950 . S
H1672 C1701 0.950 . S
H1673 C1702 0.950 . S
H1674 C1704 0.950 . S
H1675 C1705 0.950 . S
C1676 H1658 0.951 . S
C1676 C1677 1.366 . S
C1676 C1678 1.388 . S
C1677 C1676 1.366 . S
C1677 C1681 1.385 . S
C1678 H1659 0.951 . S
C1678 C1676 1.388 . S
C1678 C1679 1.366 . S
C1679 C1678 1.366 . S
C1679 C1680 1.414 . S
C1679 C1682 1.499 . S
C1680 H1660 0.950 . S
C1680 C1679 1.414 . S
C1680 C1681 1.374 . S
C1681 H1661 0.950 . S
C1681 C1677 1.385 . S
C1681 C1680 1.374 . S
C1682 C1679 1.499 . S
C1682 C1683 1.373 . S
C1682 C1684 1.389 . S
C1683 H1662 0.950 . S
C1683 C1682 1.373 . S
C1683 C1699 1.377 . S
C1684 C1682 1.389 . S
C1684 C1685 1.524 . S
C1684 C1698 1.377 . S
C1685 C1684 1.524 . S
C1685 C1686 1.397 . S
C1685 C1690 1.363 . S
C1686 H1663 0.950 . S
C1686 C1685 1.397 . S
C1686 C1687 1.334 . S
C1687 H1664 0.950 . S
C1687 C1686 1.334 . S
C1687 C1688 1.287 . S
C1688 C1687 1.287 . S
C1688 C1689 1.524 . S
C1688 H1707 0.913 . S
C1689 H1665 0.950 . S
C1689 C1688 1.524 . S
C1689 C1690 1.415 . S
C1690 H1666 0.950 . S
C1690 C1685 1.363 . S
C1690 C1689 1.415 . S
C1691 H1667 0.951 . S
C1691 C1692 1.366 . S
C1691 C1693 1.388 . S
C1692 C1691 1.366 . S
C1692 C1696 1.385 . S
C1693 H1668 0.951 . S
C1693 C1691 1.388 . S
C1693 C1694 1.366 . S
C1694 C1693 1.366 . S
C1694 C1695 1.414 . S
C1694 C1697 1.499 . S
C1695 H1669 0.950 . S
C1695 C1694 1.414 . S
C1695 C1696 1.374 . S
C1696 H1670 0.950 . S
C1696 C1692 1.385 . S
C1696 C1695 1.374 . S
C1697 C1694 1.499 . S
C1697 C1698 1.373 . S
C1697 C1699 1.389 . S
C1698 H1671 0.950 . S
C1698 C1684 1.377 . S
C1698 C1697 1.373 . S
C1699 C1683 1.377 . S
C1699 C1697 1.389 . S
C1699 C1700 1.524 . S
C1700 C1699 1.524 . S
C1700 C1701 1.397 . S
C1700 C1705 1.363 1_565 S
C1701 H1672 0.950 . S
C1701 C1700 1.397 . S
C1701 C1702 1.334 . S
C1702 H1673 0.950 . S
C1702 C1701 1.334 . S
C1702 C1703 1.287 1_565 S
C1703 C1702 1.287 1_545 S
C1703 C1704 1.524 . S
C1703 H1706 0.999 . S
C1704 H1674 0.950 . S
C1704 C1703 1.524 . S
C1704 C1705 1.415 . S
C1705 H1675 0.950 . S
C1705 C1700 1.363 1_545 S
C1705 C1704 1.415 . S
H1706 C1703 0.999 . S
H1707 C1688 0.913 . S
H1708 C1726 0.951 . S
H1709 C1728 0.951 . S
H1710 C1730 0.950 . S
H1711 C1731 0.950 . S
H1712 C1733 0.950 . S
H1713 C1736 0.950 . S
H1714 C1737 0.950 . S
H1715 C1739 0.950 . S
H1716 C1740 0.950 . S
H1717 C1741 0.951 . S
H1718 C1743 0.951 . S
H1719 C1745 0.950 . S
H1720 C1746 0.950 . S
H1721 C1748 0.950 . S
H1722 C1751 0.950 . S
H1723 C1752 0.950 . S
H1724 C1754 0.950 . S
H1725 C1755 0.950 . S
C1726 H1708 0.951 . S
C1726 C1727 1.366 . S
C1726 C1728 1.388 . S
C1727 C1726 1.366 . S
C1727 C1731 1.385 . S
C1728 H1709 0.951 . S
C1728 C1726 1.388 . S
C1728 C1729 1.366 . S
C1729 C1728 1.366 . S
C1729 C1730 1.414 . S
C1729 C1732 1.499 . S
C1730 H1710 0.950 . S
C1730 C1729 1.414 . S
C1730 C1731 1.374 . S
C1731 H1711 0.950 . S
C1731 C1727 1.385 . S
C1731 C1730 1.374 . S
C1732 C1729 1.499 . S
C1732 C1733 1.373 . S
C1732 C1734 1.389 . S
C1733 H1712 0.950 . S
C1733 C1732 1.373 . S
C1733 C1749 1.377 . S
C1734 C1732 1.389 . S
C1734 C1735 1.524 . S
C1734 C1748 1.377 . S
C1735 C1734 1.524 . S
C1735 C1736 1.397 . S
C1735 C1740 1.363 . S
C1736 H1713 0.950 . S
C1736 C1735 1.397 . S
C1736 C1737 1.334 . S
C1737 H1714 0.950 . S
C1737 C1736 1.334 . S
C1737 C1738 1.287 . S
C1738 C1737 1.287 . S
C1738 C1739 1.524 . S
C1738 H1757 0.913 . S
C1739 H1715 0.950 . S
C1739 C1738 1.524 . S
C1739 C1740 1.415 . S
C1740 H1716 0.950 . S
C1740 C1735 1.363 . S
C1740 C1739 1.415 . S
C1741 H1717 0.951 . S
C1741 C1742 1.366 . S
C1741 C1743 1.388 . S
C1742 C1741 1.366 . S
C1742 C1746 1.385 . S
C1743 H1718 0.951 . S
C1743 C1741 1.388 . S
C1743 C1744 1.366 . S
C1744 C1743 1.366 . S
C1744 C1745 1.414 . S
C1744 C1747 1.499 . S
C1745 H1719 0.950 . S
C1745 C1744 1.414 . S
C1745 C1746 1.374 . S
C1746 H1720 0.950 . S
C1746 C1742 1.385 . S
C1746 C1745 1.374 . S
C1747 C1744 1.499 . S
C1747 C1748 1.373 . S
C1747 C1749 1.389 . S
C1748 H1721 0.950 . S
C1748 C1734 1.377 . S
C1748 C1747 1.373 . S
C1749 C1733 1.377 . S
C1749 C1747 1.389 . S
C1749 C1750 1.524 . S
C1750 C1749 1.524 . S
C1750 C1751 1.397 . S
C1750 C1755 1.363 . S
C1751 H1722 0.950 . S
C1751 C1750 1.397 . S
C1751 C1752 1.334 . S
C1752 H1723 0.950 . S
C1752 C1751 1.334 . S
C1752 C1753 1.287 . S
C1753 C1752 1.287 . S
C1753 C1754 1.524 . S
C1753 H1756 0.999 . S
C1754 H1724 0.950 . S
C1754 C1753 1.524 . S
C1754 C1755 1.415 . S
C1755 H1725 0.950 . S
C1755 C1750 1.363 . S
C1755 C1754 1.415 . S
H1756 C1753 0.999 . S
H1757 C1738 0.913 . S
H1758 C1776 0.951 . S
H1759 C1778 0.951 . S
H1760 C1780 0.950 . S
H1761 C1781 0.950 . S
H1762 C1783 0.950 . S
H1763 C1786 0.950 . S
H1764 C1787 0.950 . S
H1765 C1789 0.950 . S
H1766 C1790 0.950 . S
H1767 C1791 0.951 . S
H1768 C1793 0.951 . S
H1769 C1795 0.950 . S
H1770 C1796 0.950 . S
H1771 C1798 0.950 . S
H1772 C1801 0.950 . S
H1773 C1802 0.950 . S
H1774 C1804 0.950 . S
H1775 C1805 0.950 . S
C1776 H1758 0.951 . S
C1776 C1777 1.366 . S
C1776 C1778 1.388 . S
C1777 C1776 1.366 . S
C1777 C1781 1.385 . S
C1778 H1759 0.951 . S
C1778 C1776 1.388 . S
C1778 C1779 1.366 . S
C1779 C1778 1.366 . S
C1779 C1780 1.414 . S
C1779 C1782 1.499 . S
C1780 H1760 0.950 . S
C1780 C1779 1.414 . S
C1780 C1781 1.374 . S
C1781 H1761 0.950 . S
C1781 C1777 1.385 . S
C1781 C1780 1.374 . S
C1782 C1779 1.499 . S
C1782 C1783 1.373 . S
C1782 C1784 1.389 . S
C1783 H1762 0.950 . S
C1783 C1782 1.373 . S
C1783 C1799 1.377 . S
C1784 C1782 1.389 . S
C1784 C1785 1.524 . S
C1784 C1798 1.377 . S
C1785 C1784 1.524 . S
C1785 C1786 1.397 . S
C1785 C1790 1.363 . S
C1786 H1763 0.950 . S
C1786 C1785 1.397 . S
C1786 C1787 1.334 . S
C1787 H1764 0.950 . S
C1787 C1786 1.334 . S
C1787 C1788 1.287 . S
C1788 C1787 1.287 . S
C1788 C1789 1.524 . S
C1788 H1807 0.913 . S
C1789 H1765 0.950 . S
C1789 C1788 1.524 . S
C1789 C1790 1.415 . S
C1790 H1766 0.950 . S
C1790 C1785 1.363 . S
C1790 C1789 1.415 . S
C1791 H1767 0.951 . S
C1791 C1792 1.366 . S
C1791 C1793 1.388 . S
C1792 C1791 1.366 . S
C1792 C1796 1.385 . S
C1793 H1768 0.951 . S
C1793 C1791 1.388 . S
C1793 C1794 1.366 . S
C1794 C1793 1.366 . S
C1794 C1795 1.414 . S
C1794 C1797 1.499 1_556 S
C1795 H1769 0.950 . S
C1795 C1794 1.414 . S
C1795 C1796 1.374 . S
C1796 H1770 0.950 . S
C1796 C1792 1.385 . S
C1796 C1795 1.374 . S
C1797 C1794 1.499 1_554 S
C1797 C1798 1.373 . S
C1797 C1799 1.389 . S
C1798 H1771 0.950 . S
C1798 C1784 1.377 . S
C1798 C1797 1.373 . S
C1799 C1783 1.377 . S
C1799 C1797 1.389 . S
C1799 C1800 1.524 1_554 S
C1800 C1799 1.524 1_556 S
C1800 C1801 1.397 . S
C1800 C1805 1.363 . S
C1801 H1772 0.950 . S
C1801 C1800 1.397 . S
C1801 C1802 1.334 . S
C1802 H1773 0.950 . S
C1802 C1801 1.334 . S
C1802 C1803 1.287 . S
C1803 C1802 1.287 . S
C1803 C1804 1.524 . S
C1803 H1806 0.999 . S
C1804 H1774 0.950 . S
C1804 C1803 1.524 . S
C1804 C1805 1.415 . S
C1805 H1775 0.950 . S
C1805 C1800 1.363 . S
C1805 C1804 1.415 . S
H1806 C1803 0.999 . S
H1807 C1788 0.913 . S
H1808 C1826 0.951 . S
H1809 C1828 0.951 . S
H1810 C1830 0.950 . S
H1811 C1831 0.950 . S
H1812 C1833 0.950 . S
H1813 C1836 0.950 . S
H1814 C1837 0.950 . S
H1815 C1839 0.950 . S
H1816 C1840 0.950 . S
H1817 C1841 0.951 . S
H1818 C1843 0.951 . S
H1819 C1845 0.950 . S
H1820 C1846 0.950 . S
H1821 C1848 0.950 . S
H1822 C1851 0.950 . S
H1823 C1852 0.950 . S
H1824 C1854 0.950 . S
H1825 C1855 0.950 . S
C1826 H1808 0.951 . S
C1826 C1827 1.366 . S
C1826 C1828 1.388 . S
C1827 C1826 1.366 . S
C1827 C1831 1.385 . S
C1828 H1809 0.951 . S
C1828 C1826 1.388 . S
C1828 C1829 1.366 . S
C1829 C1828 1.366 . S
C1829 C1830 1.414 . S
C1829 C1832 1.499 . S
C1830 H1810 0.950 . S
C1830 C1829 1.414 . S
C1830 C1831 1.374 . S
C1831 H1811 0.950 . S
C1831 C1827 1.385 . S
C1831 C1830 1.374 . S
C1832 C1829 1.499 . S
C1832 C1833 1.373 . S
C1832 C1834 1.389 . S
C1833 H1812 0.950 . S
C1833 C1832 1.373 . S
C1833 C1849 1.377 . S
C1834 C1832 1.389 . S
C1834 C1835 1.524 . S
C1834 C1848 1.377 . S
C1835 C1834 1.524 . S
C1835 C1836 1.397 . S
C1835 C1840 1.363 . S
C1836 H1813 0.950 . S
C1836 C1835 1.397 . S
C1836 C1837 1.334 . S
C1837 H1814 0.950 . S
C1837 C1836 1.334 . S
C1837 C1838 1.287 . S
C1838 C1837 1.287 . S
C1838 C1839 1.524 . S
C1838 H1857 0.913 . S
C1839 H1815 0.950 . S
C1839 C1838 1.524 . S
C1839 C1840 1.415 . S
C1840 H1816 0.950 . S
C1840 C1835 1.363 . S
C1840 C1839 1.415 . S
C1841 H1817 0.951 . S
C1841 C1842 1.366 . S
C1841 C1843 1.388 . S
C1842 C1841 1.366 . S
C1842 C1846 1.385 . S
C1843 H1818 0.951 . S
C1843 C1841 1.388 . S
C1843 C1844 1.366 . S
C1844 C1843 1.366 . S
C1844 C1845 1.414 . S
C1844 C1847 1.499 . S
C1845 H1819 0.950 . S
C1845 C1844 1.414 . S
C1845 C1846 1.374 . S
C1846 H1820 0.950 . S
C1846 C1842 1.385 . S
C1846 C1845 1.374 . S
C1847 C1844 1.499 . S
C1847 C1848 1.373 . S
C1847 C1849 1.389 . S
C1848 H1821 0.950 . S
C1848 C1834 1.377 . S
C1848 C1847 1.373 . S
C1849 C1833 1.377 . S
C1849 C1847 1.389 . S
C1849 C1850 1.524 . S
C1850 C1849 1.524 . S
C1850 C1851 1.397 . S
C1850 C1855 1.363 . S
C1851 H1822 0.950 . S
C1851 C1850 1.397 . S
C1851 C1852 1.334 . S
C1852 H1823 0.950 . S
C1852 C1851 1.334 . S
C1852 C1853 1.287 . S
C1853 C1852 1.287 . S
C1853 C1854 1.524 . S
C1853 H1856 0.999 . S
C1854 H1824 0.950 . S
C1854 C1853 1.524 . S
C1854 C1855 1.415 . S
C1855 H1825 0.950 . S
C1855 C1850 1.363 . S
C1855 C1854 1.415 . S
H1856 C1853 0.999 . S
H1857 C1838 0.913 . S
H1858 C1876 0.951 . S
H1859 C1878 0.951 . S
H1860 C1880 0.950 . S
H1861 C1881 0.950 . S
H1862 C1883 0.969 . S
H1863 C1886 0.950 . S
H1864 C1887 0.959 . S
H1865 C1889 0.950 . S
H1866 C1890 0.950 . S
H1867 C1891 0.951 . S
H1868 C1893 0.951 . S
H1869 C1895 0.950 . S
H1870 C1896 0.950 . S
H1871 C1898 0.950 . S
H1872 C1901 0.950 . S
H1873 C1902 0.950 . S
H1874 C1904 0.950 . S
H1875 C1905 0.950 . S
C1876 H1858 0.951 . S
C1876 C1877 1.366 . S
C1876 C1878 1.388 . S
C1877 C1876 1.366 . S
C1877 C1881 1.385 . S
C1878 H1859 0.951 . S
C1878 C1876 1.388 . S
C1878 C1879 1.366 . S
C1879 C1878 1.366 . S
C1879 C1880 1.414 . S
C1879 C1882 1.499 1_554 S
C1880 H1860 0.950 . S
C1880 C1879 1.414 . S
C1880 C1881 1.374 . S
C1881 H1861 0.950 . S
C1881 C1877 1.385 . S
C1881 C1880 1.374 . S
C1882 C1879 1.499 1_556 S
C1882 C1883 1.373 . S
C1882 C1884 1.389 . S
C1883 H1862 0.969 . S
C1883 C1882 1.373 . S
C1883 C1899 1.377 . S
C1884 C1882 1.389 . S
C1884 C1885 1.524 . S
C1884 C1898 1.377 . S
C1885 C1884 1.524 . S
C1885 C1886 1.397 . S
C1885 C1890 1.363 . S
C1886 H1863 0.950 . S
C1886 C1885 1.397 . S
C1886 C1887 1.334 . S
C1887 H1864 0.959 . S
C1887 C1886 1.334 . S
C1887 C1888 1.287 . S
C1888 C1887 1.287 . S
C1888 C1889 1.524 . S
C1888 H1907 0.922 . S
C1889 H1865 0.950 . S
C1889 C1888 1.524 . S
C1889 C1890 1.415 . S
C1890 H1866 0.950 . S
C1890 C1885 1.363 . S
C1890 C1889 1.415 . S
C1891 H1867 0.951 . S
C1891 C1892 1.366 . S
C1891 C1893 1.388 . S
C1892 C1891 1.366 . S
C1892 C1896 1.385 . S
C1893 H1868 0.951 . S
C1893 C1891 1.388 . S
C1893 C1894 1.366 . S
C1894 C1893 1.366 . S
C1894 C1895 1.414 . S
C1894 C1897 1.499 . S
C1895 H1869 0.950 . S
C1895 C1894 1.414 . S
C1895 C1896 1.374 . S
C1896 H1870 0.950 . S
C1896 C1892 1.385 . S
C1896 C1895 1.374 . S
C1897 C1894 1.499 . S
C1897 C1898 1.373 . S
C1897 C1899 1.389 . S
C1898 H1871 0.950 . S
C1898 C1884 1.377 . S
C1898 C1897 1.373 . S
C1899 C1883 1.377 . S
C1899 C1897 1.389 . S
C1899 C1900 1.524 . S
C1900 C1899 1.524 . S
C1900 C1901 1.397 . S
C1900 C1905 1.363 . S
C1901 H1872 0.950 . S
C1901 C1900 1.397 . S
C1901 C1902 1.334 . S
C1902 H1873 0.950 . S
C1902 C1901 1.334 . S
C1902 C1903 1.287 . S
C1903 C1902 1.287 . S
C1903 C1904 1.524 . S
C1903 H1906 0.999 . S
C1904 H1874 0.950 . S
C1904 C1903 1.524 . S
C1904 C1905 1.415 . S
C1905 H1875 0.950 . S
C1905 C1900 1.363 . S
C1905 C1904 1.415 . S
H1906 C1903 0.999 . S
H1907 C1888 0.922 . S
H1908 C1926 0.951 . S
H1909 C1928 0.951 . S
H1910 C1930 0.950 . S
H1911 C1931 0.950 . S
H1912 C1933 0.950 . S
H1913 C1936 0.950 . S
H1914 C1937 0.950 . S
H1915 C1939 0.950 . S
H1916 C1940 0.950 . S
H1917 C1941 0.951 . S
H1918 C1943 0.951 . S
H1919 C1945 0.950 . S
H1920 C1946 0.950 . S
H1921 C1948 0.950 . S
H1922 C1951 0.950 . S
H1923 C1952 0.950 . S
H1924 C1954 0.950 . S
H1925 C1955 0.950 . S
C1926 H1908 0.951 . S
C1926 C1927 1.366 . S
C1926 C1928 1.388 . S
C1927 C1926 1.366 . S
C1927 C1931 1.385 . S
C1928 H1909 0.951 . S
C1928 C1926 1.388 . S
C1928 C1929 1.366 . S
C1929 C1928 1.366 . S
C1929 C1930 1.414 . S
C1929 C1932 1.499 . S
C1930 H1910 0.950 . S
C1930 C1929 1.414 . S
C1930 C1931 1.374 . S
C1931 H1911 0.950 . S
C1931 C1927 1.385 . S
C1931 C1930 1.374 . S
C1932 C1929 1.499 . S
C1932 C1933 1.373 . S
C1932 C1934 1.389 . S
C1933 H1912 0.950 . S
C1933 C1932 1.373 . S
C1933 C1949 1.377 . S
C1934 C1932 1.389 . S
C1934 C1935 1.524 . S
C1934 C1948 1.377 . S
C1935 C1934 1.524 . S
C1935 C1936 1.397 . S
C1935 C1940 1.363 . S
C1936 H1913 0.950 . S
C1936 C1935 1.397 . S
C1936 C1937 1.334 . S
C1937 H1914 0.950 . S
C1937 C1936 1.334 . S
C1937 C1938 1.287 . S
C1938 C1937 1.287 . S
C1938 C1939 1.524 . S
C1938 H1957 0.913 . S
C1939 H1915 0.950 . S
C1939 C1938 1.524 . S
C1939 C1940 1.415 . S
C1940 H1916 0.950 . S
C1940 C1935 1.363 . S
C1940 C1939 1.415 . S
C1941 H1917 0.951 . S
C1941 C1942 1.366 . S
C1941 C1943 1.388 . S
C1942 C1941 1.366 . S
C1942 C1946 1.385 . S
C1943 H1918 0.951 . S
C1943 C1941 1.388 . S
C1943 C1944 1.366 . S
C1944 C1943 1.366 . S
C1944 C1945 1.414 . S
C1944 C1947 1.499 . S
C1945 H1919 0.950 . S
C1945 C1944 1.414 . S
C1945 C1946 1.374 . S
C1946 H1920 0.950 . S
C1946 C1942 1.385 . S
C1946 C1945 1.374 . S
C1947 C1944 1.499 . S
C1947 C1948 1.373 . S
C1947 C1949 1.389 . S
C1948 H1921 0.950 . S
C1948 C1934 1.377 . S
C1948 C1947 1.373 . S
C1949 C1933 1.377 . S
C1949 C1947 1.389 . S
C1949 C1950 1.524 . S
C1950 C1949 1.524 . S
C1950 C1951 1.397 . S
C1950 C1955 1.363 . S
C1951 H1922 0.950 . S
C1951 C1950 1.397 . S
C1951 C1952 1.334 . S
C1952 H1923 0.950 . S
C1952 C1951 1.334 . S
C1952 C1953 1.287 . S
C1953 C1952 1.287 . S
C1953 C1954 1.524 . S
C1953 H1956 0.999 . S
C1954 H1924 0.950 . S
C1954 C1953 1.524 . S
C1954 C1955 1.415 . S
C1955 H1925 0.950 . S
C1955 C1950 1.363 . S
C1955 C1954 1.415 . S
H1956 C1953 0.999 . S
H1957 C1938 0.913 . S
H1958 C1976 0.951 . S
H1959 C1978 0.951 . S
H1960 C1980 0.950 . S
H1961 C1981 0.950 . S
H1962 C1983 0.950 . S
H1963 C1986 0.950 . S
H1964 C1987 0.950 . S
H1965 C1989 0.950 . S
H1966 C1990 0.950 . S
H1967 C1991 0.951 . S
H1968 C1993 0.951 . S
H1969 C1995 0.950 . S
H1970 C1996 0.950 . S
H1971 C1998 0.950 . S
H1972 C2001 0.950 . S
H1973 C2002 0.950 . S
H1974 C2004 0.950 . S
H1975 C2005 0.950 . S
C1976 H1958 0.951 . S
C1976 C1977 1.366 . S
C1976 C1978 1.388 . S
C1977 C1976 1.366 . S
C1977 C1981 1.385 . S
C1978 H1959 0.951 . S
C1978 C1976 1.388 . S
C1978 C1979 1.366 . S
C1979 C1978 1.366 . S
C1979 C1980 1.414 . S
C1979 C1982 1.499 . S
C1980 H1960 0.950 . S
C1980 C1979 1.414 . S
C1980 C1981 1.374 . S
C1981 H1961 0.950 . S
C1981 C1977 1.385 . S
C1981 C1980 1.374 . S
C1982 C1979 1.499 . S
C1982 C1983 1.373 . S
C1982 C1984 1.389 . S
C1983 H1962 0.950 . S
C1983 C1982 1.373 . S
C1983 C1999 1.377 . S
C1984 C1982 1.389 . S
C1984 C1985 1.524 . S
C1984 C1998 1.377 . S
C1985 C1984 1.524 . S
C1985 C1986 1.397 . S
C1985 C1990 1.363 . S
C1986 H1963 0.950 . S
C1986 C1985 1.397 . S
C1986 C1987 1.334 . S
C1987 H1964 0.950 . S
C1987 C1986 1.334 . S
C1987 C1988 1.287 . S
C1988 C1987 1.287 . S
C1988 C1989 1.524 . S
C1988 H2007 0.913 . S
C1989 H1965 0.950 . S
C1989 C1988 1.524 . S
C1989 C1990 1.415 . S
C1990 H1966 0.950 . S
C1990 C1985 1.363 . S
C1990 C1989 1.415 . S
C1991 H1967 0.951 . S
C1991 C1992 1.366 . S
C1991 C1993 1.388 . S
C1992 C1991 1.366 . S
C1992 C1996 1.385 . S
C1993 H1968 0.951 . S
C1993 C1991 1.388 . S
C1993 C1994 1.366 . S
C1994 C1993 1.366 . S
C1994 C1995 1.414 . S
C1994 C1997 1.499 . S
C1995 H1969 0.950 . S
C1995 C1994 1.414 . S
C1995 C1996 1.374 . S
C1996 H1970 0.950 . S
C1996 C1992 1.385 . S
C1996 C1995 1.374 . S
C1997 C1994 1.499 . S
C1997 C1998 1.373 . S
C1997 C1999 1.389 . S
C1998 H1971 0.950 . S
C1998 C1984 1.377 . S
C1998 C1997 1.373 . S
C1999 C1983 1.377 . S
C1999 C1997 1.389 . S
C1999 C2000 1.524 . S
C2000 C1999 1.524 . S
C2000 C2001 1.397 . S
C2000 C2005 1.363 . S
C2001 H1972 0.950 . S
C2001 C2000 1.397 . S
C2001 C2002 1.334 . S
C2002 H1973 0.950 . S
C2002 C2001 1.334 . S
C2002 C2003 1.287 . S
C2003 C2002 1.287 . S
C2003 C2004 1.524 . S
C2003 H2006 0.999 . S
C2004 H1974 0.950 . S
C2004 C2003 1.524 . S
C2004 C2005 1.415 . S
C2005 H1975 0.950 . S
C2005 C2000 1.363 . S
C2005 C2004 1.415 . S
H2006 C2003 0.999 . S
H2007 C1988 0.913 . S
H2008 C2026 0.951 . S
H2009 C2028 0.951 . S
H2010 C2030 0.950 . S
H2011 C2031 0.950 . S
H2012 C2033 0.950 . S
H2013 C2036 0.950 . S
H2014 C2037 0.950 . S
H2015 C2039 0.950 . S
H2016 C2040 0.950 . S
H2017 C2041 0.951 . S
H2018 C2043 0.951 . S
H2019 C2045 0.950 . S
H2020 C2046 0.950 . S
H2021 C2048 0.950 . S
H2022 C2051 0.950 . S
H2023 C2052 0.950 . S
H2024 C2054 0.950 . S
H2025 C2055 0.950 . S
C2026 H2008 0.951 . S
C2026 C2027 1.366 . S
C2026 C2028 1.388 . S
C2027 C2026 1.366 . S
C2027 C2031 1.385 . S
C2028 H2009 0.951 . S
C2028 C2026 1.388 . S
C2028 C2029 1.366 . S
C2029 C2028 1.366 . S
C2029 C2030 1.414 . S
C2029 C2032 1.499 . S
C2030 H2010 0.950 . S
C2030 C2029 1.414 . S
C2030 C2031 1.374 . S
C2031 H2011 0.950 . S
C2031 C2027 1.385 . S
C2031 C2030 1.374 . S
C2032 C2029 1.499 . S
C2032 C2033 1.373 . S
C2032 C2034 1.389 . S
C2033 H2012 0.950 . S
C2033 C2032 1.373 . S
C2033 C2049 1.377 . S
C2034 C2032 1.389 . S
C2034 C2035 1.524 . S
C2034 C2048 1.377 . S
C2035 C2034 1.524 . S
C2035 C2036 1.397 . S
C2035 C2040 1.363 . S
C2036 H2013 0.950 . S
C2036 C2035 1.397 . S
C2036 C2037 1.334 . S
C2037 H2014 0.950 . S
C2037 C2036 1.334 . S
C2037 C2038 1.287 . S
C2038 C2037 1.287 . S
C2038 C2039 1.524 . S
C2038 H2057 0.913 . S
C2039 H2015 0.950 . S
C2039 C2038 1.524 . S
C2039 C2040 1.415 . S
C2040 H2016 0.950 . S
C2040 C2035 1.363 . S
C2040 C2039 1.415 . S
C2041 H2017 0.951 . S
C2041 C2042 1.366 . S
C2041 C2043 1.388 . S
C2042 C2041 1.366 . S
C2042 C2046 1.385 . S
C2043 H2018 0.951 . S
C2043 C2041 1.388 . S
C2043 C2044 1.366 . S
C2044 C2043 1.366 . S
C2044 C2045 1.414 . S
C2044 C2047 1.499 . S
C2045 H2019 0.950 . S
C2045 C2044 1.414 . S
C2045 C2046 1.374 . S
C2046 H2020 0.950 . S
C2046 C2042 1.385 . S
C2046 C2045 1.374 . S
C2047 C2044 1.499 . S
C2047 C2048 1.373 . S
C2047 C2049 1.389 . S
C2048 H2021 0.950 . S
C2048 C2034 1.377 . S
C2048 C2047 1.373 . S
C2049 C2033 1.377 . S
C2049 C2047 1.389 . S
C2049 C2050 1.524 . S
C2050 C2049 1.524 . S
C2050 C2051 1.397 . S
C2050 C2055 1.363 . S
C2051 H2022 0.950 . S
C2051 C2050 1.397 . S
C2051 C2052 1.334 . S
C2052 H2023 0.950 . S
C2052 C2051 1.334 . S
C2052 C2053 1.287 . S
C2053 C2052 1.287 . S
C2053 C2054 1.524 . S
C2053 H2056 0.999 . S
C2054 H2024 0.950 . S
C2054 C2053 1.524 . S
C2054 C2055 1.415 . S
C2055 H2025 0.950 . S
C2055 C2050 1.363 . S
C2055 C2054 1.415 . S
H2056 C2053 0.999 . S
H2057 C2038 0.913 . S
H2058 C2076 0.951 . S
H2059 C2078 0.951 . S
H2060 C2080 0.950 . S
H2061 C2081 0.950 . S
H2062 C2083 0.950 . S
H2063 C2086 0.950 . S
H2064 C2087 0.950 . S
H2065 C2089 0.950 . S
H2066 C2090 0.950 1_565 S
H2067 C2091 0.951 . S
H2068 C2093 0.951 . S
H2069 C2095 0.950 . S
H2070 C2096 0.950 . S
H2071 C2098 0.989 . S
H2072 C2101 0.950 . S
H2073 C2102 0.950 . S
H2074 C2104 0.950 . S
H2075 C2105 0.950 . S
C2076 H2058 0.951 . S
C2076 C2077 1.366 . S
C2076 C2078 1.388 . S
C2077 C2076 1.366 . S
C2077 C2081 1.385 . S
C2078 H2059 0.951 . S
C2078 C2076 1.388 . S
C2078 C2079 1.366 . S
C2079 C2078 1.366 . S
C2079 C2080 1.414 . S
C2079 C2082 1.499 . S
C2080 H2060 0.950 . S
C2080 C2079 1.414 . S
C2080 C2081 1.374 . S
C2081 H2061 0.950 . S
C2081 C2077 1.385 . S
C2081 C2080 1.374 . S
C2082 C2079 1.499 . S
C2082 C2083 1.373 . S
C2082 C2084 1.389 . S
C2083 H2062 0.950 . S
C2083 C2082 1.373 . S
C2083 C2099 1.377 . S
C2084 C2082 1.389 . S
C2084 C2085 1.524 . S
C2084 C2098 1.339 1_545 S
C2085 C2084 1.524 . S
C2085 C2086 1.397 . S
C2085 C2090 1.363 . S
C2086 H2063 0.950 . S
C2086 C2085 1.397 . S
C2086 C2087 1.334 . S
C2087 H2064 0.950 . S
C2087 C2086 1.334 . S
C2087 C2088 1.287 . S
C2088 C2087 1.287 . S
C2088 C2089 1.524 1_545 S
C2088 H2107 0.913 . S
C2089 H2065 0.950 . S
C2089 C2088 1.524 1_565 S
C2089 C2090 1.415 1_565 S
C2090 H2066 0.950 1_545 S
C2090 C2085 1.363 . S
C2090 C2089 1.415 1_545 S
C2091 H2067 0.951 . S
C2091 C2092 1.366 . S
C2091 C2093 1.388 . S
C2092 C2091 1.366 . S
C2092 C2096 1.385 . S
C2093 H2068 0.951 . S
C2093 C2091 1.388 . S
C2093 C2094 1.366 . S
C2094 C2093 1.366 . S
C2094 C2095 1.414 . S
C2094 C2097 1.509 . S
C2095 H2069 0.950 . S
C2095 C2094 1.414 . S
C2095 C2096 1.374 . S
C2096 H2070 0.950 . S
C2096 C2092 1.385 . S
C2096 C2095 1.374 . S
C2097 C2094 1.509 . S
C2097 C2098 1.373 . S
C2097 C2099 1.378 1_565 S
C2098 H2071 0.989 . S
C2098 C2084 1.339 1_565 S
C2098 C2097 1.373 . S
C2099 C2083 1.377 . S
C2099 C2097 1.378 1_545 S
C2099 C2100 1.524 . S
C2100 C2099 1.524 . S
C2100 C2101 1.397 . S
C2100 C2105 1.363 . S
C2101 H2072 0.950 . S
C2101 C2100 1.397 . S
C2101 C2102 1.334 . S
C2102 H2073 0.950 . S
C2102 C2101 1.334 . S
C2102 C2103 1.287 . S
C2103 C2102 1.287 . S
C2103 C2104 1.524 . S
C2103 H2106 0.999 . S
C2104 H2074 0.950 . S
C2104 C2103 1.524 . S
C2104 C2105 1.415 . S
C2105 H2075 0.950 . S
C2105 C2100 1.363 . S
C2105 C2104 1.415 . S
H2106 C2103 0.999 . S
H2107 C2088 0.913 . S
H2108 C2126 0.951 . S
H2109 C2128 0.951 . S
H2110 C2130 0.950 . S
H2111 C2131 0.950 . S
H2112 C2133 0.950 . S
H2113 C2136 0.950 . S
H2114 C2137 0.950 . S
H2115 C2139 0.950 . S
H2116 C2140 0.950 . S
H2117 C2141 0.951 . S
H2118 C2143 0.951 . S
H2119 C2145 0.950 . S
H2120 C2146 0.950 . S
H2121 C2148 0.950 . S
H2122 C2151 0.950 . S
H2123 C2152 0.950 . S
H2124 C2154 0.950 . S
H2125 C2155 0.950 . S
C2126 H2108 0.951 . S
C2126 C2127 1.366 . S
C2126 C2128 1.388 . S
C2127 C2126 1.366 . S
C2127 C2131 1.385 . S
C2128 H2109 0.951 . S
C2128 C2126 1.388 . S
C2128 C2129 1.366 . S
C2129 C2128 1.366 . S
C2129 C2130 1.414 . S
C2129 C2132 1.499 . S
C2130 H2110 0.950 . S
C2130 C2129 1.414 . S
C2130 C2131 1.374 . S
C2131 H2111 0.950 . S
C2131 C2127 1.385 . S
C2131 C2130 1.374 . S
C2132 C2129 1.499 . S
C2132 C2133 1.373 . S
C2132 C2134 1.389 . S
C2133 H2112 0.950 . S
C2133 C2132 1.373 . S
C2133 C2149 1.377 . S
C2134 C2132 1.389 . S
C2134 C2135 1.524 . S
C2134 C2148 1.377 . S
C2135 C2134 1.524 . S
C2135 C2136 1.397 . S
C2135 C2140 1.363 . S
C2136 H2113 0.950 . S
C2136 C2135 1.397 . S
C2136 C2137 1.334 . S
C2137 H2114 0.950 . S
C2137 C2136 1.334 . S
C2137 C2138 1.287 . S
C2138 C2137 1.287 . S
C2138 C2139 1.524 . S
C2138 H2157 0.913 . S
C2139 H2115 0.950 . S
C2139 C2138 1.524 . S
C2139 C2140 1.415 . S
C2140 H2116 0.950 . S
C2140 C2135 1.363 . S
C2140 C2139 1.415 . S
C2141 H2117 0.951 . S
C2141 C2142 1.366 . S
C2141 C2143 1.388 . S
C2142 C2141 1.366 . S
C2142 C2146 1.385 . S
C2143 H2118 0.951 . S
C2143 C2141 1.388 . S
C2143 C2144 1.366 . S
C2144 C2143 1.366 . S
C2144 C2145 1.414 . S
C2144 C2147 1.499 . S
C2145 H2119 0.950 . S
C2145 C2144 1.414 . S
C2145 C2146 1.374 . S
C2146 H2120 0.950 . S
C2146 C2142 1.385 . S
C2146 C2145 1.374 . S
C2147 C2144 1.499 . S
C2147 C2148 1.373 . S
C2147 C2149 1.389 . S
C2148 H2121 0.950 . S
C2148 C2134 1.377 . S
C2148 C2147 1.373 . S
C2149 C2133 1.377 . S
C2149 C2147 1.389 . S
C2149 C2150 1.524 . S
C2150 C2149 1.524 . S
C2150 C2151 1.397 . S
C2150 C2155 1.363 . S
C2151 H2122 0.950 . S
C2151 C2150 1.397 . S
C2151 C2152 1.334 . S
C2152 H2123 0.950 . S
C2152 C2151 1.334 . S
C2152 C2153 1.287 . S
C2153 C2152 1.287 . S
C2153 C2154 1.524 . S
C2153 H2156 0.999 1_556 S
C2154 H2124 0.950 . S
C2154 C2153 1.524 . S
C2154 C2155 1.415 . S
C2155 H2125 0.950 . S
C2155 C2150 1.363 . S
C2155 C2154 1.415 . S
H2156 C2153 0.999 1_554 S
H2157 C2138 0.913 . S
H2158 C2176 0.951 . S
H2159 C2178 0.951 . S
H2160 C2180 0.950 . S
H2161 C2181 0.950 . S
H2162 C2183 0.950 1_545 S
H2163 C2186 0.950 . S
H2164 C2187 0.950 . S
H2165 C2189 0.950 . S
H2166 C2190 0.950 . S
H2167 C2191 0.951 . S
H2168 C2193 0.951 . S
H2169 C2195 0.950 . S
H2170 C2196 0.950 . S
H2171 C2198 0.950 . S
H2172 C2201 0.950 . S
H2173 C2202 0.950 . S
H2174 C2204 0.950 . S
H2175 C2205 0.950 1_545 S
C2176 H2158 0.951 . S
C2176 C2177 1.366 . S
C2176 C2178 1.388 . S
C2177 C2176 1.366 . S
C2177 C2181 1.385 . S
C2178 H2159 0.951 . S
C2178 C2176 1.388 . S
C2178 C2179 1.366 . S
C2179 C2178 1.366 . S
C2179 C2180 1.414 . S
C2179 C2182 1.492 1_545 S
C2180 H2160 0.950 . S
C2180 C2179 1.414 . S
C2180 C2181 1.374 . S
C2181 H2161 0.950 . S
C2181 C2177 1.385 . S
C2181 C2180 1.374 . S
C2182 C2179 1.492 1_565 S
C2182 C2183 1.374 . S
C2182 C2184 1.395 . S
C2183 H2162 0.950 1_565 S
C2183 C2182 1.374 . S
C2183 C2199 1.377 . S
C2184 C2182 1.395 . S
C2184 C2185 1.524 . S
C2184 C2198 1.377 . S
C2185 C2184 1.524 . S
C2185 C2186 1.397 1_565 S
C2185 C2190 1.363 . S
C2186 H2163 0.950 . S
C2186 C2185 1.397 1_545 S
C2186 C2187 1.334 . S
C2187 H2164 0.950 . S
C2187 C2186 1.334 . S
C2187 C2188 1.287 1_545 S
C2188 C2187 1.287 1_565 S
C2188 C2189 1.524 . S
C2188 H2207 0.913 . S
C2189 H2165 0.950 . S
C2189 C2188 1.524 . S
C2189 C2190 1.415 . S
C2190 H2166 0.950 . S
C2190 C2185 1.363 . S
C2190 C2189 1.415 . S
C2191 H2167 0.951 . S
C2191 C2192 1.366 . S
C2191 C2193 1.388 . S
C2192 C2191 1.366 . S
C2192 C2196 1.385 . S
C2193 H2168 0.951 . S
C2193 C2191 1.388 . S
C2193 C2194 1.366 . S
C2194 C2193 1.366 . S
C2194 C2195 1.414 . S
C2194 C2197 1.499 . S
C2195 H2169 0.950 . S
C2195 C2194 1.414 . S
C2195 C2196 1.374 . S
C2196 H2170 0.950 . S
C2196 C2192 1.385 . S
C2196 C2195 1.374 . S
C2197 C2194 1.499 . S
C2197 C2198 1.373 . S
C2197 C2199 1.389 . S
C2198 H2171 0.950 . S
C2198 C2184 1.377 . S
C2198 C2197 1.373 . S
C2199 C2183 1.377 . S
C2199 C2197 1.389 . S
C2199 C2200 1.524 . S
C2200 C2199 1.524 . S
C2200 C2201 1.397 . S
C2200 C2205 1.363 . S
C2201 H2172 0.950 . S
C2201 C2200 1.397 . S
C2201 C2202 1.334 . S
C2202 H2173 0.950 . S
C2202 C2201 1.334 . S
C2202 C2203 1.287 . S
C2203 C2202 1.287 . S
C2203 C2204 1.524 . S
C2203 H2206 0.999 . S
C2204 H2174 0.950 . S
C2204 C2203 1.524 . S
C2204 C2205 1.415 . S
C2205 H2175 0.950 1_565 S
C2205 C2200 1.363 . S
C2205 C2204 1.415 . S
H2206 C2203 0.999 . S
H2207 C2188 0.913 . S
H2208 C2226 0.951 . S
H2209 C2228 0.951 . S
H2210 C2230 0.950 . S
H2211 C2231 0.950 . S
H2212 C2233 0.950 . S
H2213 C2236 0.950 . S
H2214 C2237 0.950 . S
H2215 C2239 0.950 . S
H2216 C2240 0.950 . S
H2217 C2241 0.951 . S
H2218 C2243 0.951 . S
H2219 C2245 0.950 . S
H2220 C2246 0.950 . S
H2221 C2248 0.950 . S
H2222 C2251 0.950 . S
H2223 C2252 0.950 . S
H2224 C2254 0.950 . S
H2225 C2255 0.950 . S
C2226 H2208 0.951 . S
C2226 C2227 1.366 . S
C2226 C2228 1.388 . S
C2227 C2226 1.366 . S
C2227 C2231 1.385 . S
C2228 H2209 0.951 . S
C2228 C2226 1.388 . S
C2228 C2229 1.366 . S
C2229 C2228 1.366 . S
C2229 C2230 1.414 . S
C2229 C2232 1.499 . S
C2230 H2210 0.950 . S
C2230 C2229 1.414 . S
C2230 C2231 1.374 . S
C2231 H2211 0.950 . S
C2231 C2227 1.385 . S
C2231 C2230 1.374 . S
C2232 C2229 1.499 . S
C2232 C2233 1.373 . S
C2232 C2234 1.389 . S
C2233 H2212 0.950 . S
C2233 C2232 1.373 . S
C2233 C2249 1.377 . S
C2234 C2232 1.389 . S
C2234 C2235 1.524 . S
C2234 C2248 1.377 . S
C2235 C2234 1.524 . S
C2235 C2236 1.397 . S
C2235 C2240 1.363 . S
C2236 H2213 0.950 . S
C2236 C2235 1.397 . S
C2236 C2237 1.334 . S
C2237 H2214 0.950 . S
C2237 C2236 1.334 . S
C2237 C2238 1.287 . S
C2238 C2237 1.287 . S
C2238 C2239 1.524 . S
C2238 H2257 0.913 . S
C2239 H2215 0.950 . S
C2239 C2238 1.524 . S
C2239 C2240 1.415 . S
C2240 H2216 0.950 . S
C2240 C2235 1.363 . S
C2240 C2239 1.415 . S
C2241 H2217 0.951 . S
C2241 C2242 1.366 . S
C2241 C2243 1.388 . S
C2242 C2241 1.366 . S
C2242 C2246 1.385 . S
C2243 H2218 0.951 . S
C2243 C2241 1.388 . S
C2243 C2244 1.366 . S
C2244 C2243 1.366 . S
C2244 C2245 1.414 . S
C2244 C2247 1.499 . S
C2245 H2219 0.950 . S
C2245 C2244 1.414 . S
C2245 C2246 1.374 . S
C2246 H2220 0.950 . S
C2246 C2242 1.385 . S
C2246 C2245 1.374 . S
C2247 C2244 1.499 . S
C2247 C2248 1.373 . S
C2247 C2249 1.389 . S
C2248 H2221 0.950 . S
C2248 C2234 1.377 . S
C2248 C2247 1.373 . S
C2249 C2233 1.377 . S
C2249 C2247 1.389 . S
C2249 C2250 1.524 . S
C2250 C2249 1.524 . S
C2250 C2251 1.397 . S
C2250 C2255 1.363 . S
C2251 H2222 0.950 . S
C2251 C2250 1.397 . S
C2251 C2252 1.334 . S
C2252 H2223 0.950 . S
C2252 C2251 1.334 . S
C2252 C2253 1.287 . S
C2253 C2252 1.287 . S
C2253 C2254 1.524 . S
C2253 H2256 0.999 . S
C2254 H2224 0.950 . S
C2254 C2253 1.524 . S
C2254 C2255 1.415 . S
C2255 H2225 0.950 . S
C2255 C2250 1.363 . S
C2255 C2254 1.415 . S
H2256 C2253 0.999 . S
H2257 C2238 0.913 . S
H2258 C2276 0.951 . S
H2259 C2278 0.951 . S
H2260 C2280 0.950 . S
H2261 C2281 0.950 . S
H2262 C2283 0.950 . S
H2263 C2286 0.950 . S
H2264 C2287 0.950 1_455 S
H2265 C2289 0.950 . S
H2266 C2290 0.950 . S
H2267 C2291 0.951 . S
H2268 C2293 0.951 . S
H2269 C2295 0.950 . S
H2270 C2296 0.950 . S
H2271 C2298 0.950 . S
H2272 C2301 0.950 . S
H2273 C2302 0.950 . S
H2274 C2304 0.950 . S
H2275 C2305 0.950 . S
C2276 H2258 0.951 . S
C2276 C2277 1.366 . S
C2276 C2278 1.388 . S
C2277 C2276 1.366 . S
C2277 C2281 1.385 . S
C2278 H2259 0.951 . S
C2278 C2276 1.388 . S
C2278 C2279 1.366 . S
C2279 C2278 1.366 . S
C2279 C2280 1.414 . S
C2279 C2282 1.499 . S
C2280 H2260 0.950 . S
C2280 C2279 1.414 . S
C2280 C2281 1.374 . S
C2281 H2261 0.950 . S
C2281 C2277 1.385 . S
C2281 C2280 1.374 . S
C2282 C2279 1.499 . S
C2282 C2283 1.373 . S
C2282 C2284 1.389 . S
C2283 H2262 0.950 . S
C2283 C2282 1.373 . S
C2283 C2299 1.377 . S
C2284 C2282 1.389 . S
C2284 C2285 1.524 . S
C2284 C2298 1.377 . S
C2285 C2284 1.524 . S
C2285 C2286 1.397 . S
C2285 C2290 1.363 . S
C2286 H2263 0.950 . S
C2286 C2285 1.397 . S
C2286 C2287 1.334 . S
C2287 H2264 0.950 1_655 S
C2287 C2286 1.334 . S
C2287 C2288 1.287 . S
C2288 C2287 1.287 . S
C2288 C2289 1.524 . S
C2288 H2307 0.913 . S
C2289 H2265 0.950 . S
C2289 C2288 1.524 . S
C2289 C2290 1.415 . S
C2290 H2266 0.950 . S
C2290 C2285 1.363 . S
C2290 C2289 1.415 . S
C2291 H2267 0.951 . S
C2291 C2292 1.366 . S
C2291 C2293 1.388 . S
C2292 C2291 1.366 . S
C2292 C2296 1.385 . S
C2293 H2268 0.951 . S
C2293 C2291 1.388 . S
C2293 C2294 1.366 . S
C2294 C2293 1.366 . S
C2294 C2295 1.414 . S
C2294 C2297 1.499 . S
C2295 H2269 0.950 . S
C2295 C2294 1.414 . S
C2295 C2296 1.374 . S
C2296 H2270 0.950 . S
C2296 C2292 1.385 . S
C2296 C2295 1.374 . S
C2297 C2294 1.499 . S
C2297 C2298 1.373 . S
C2297 C2299 1.389 . S
C2298 H2271 0.950 . S
C2298 C2284 1.377 . S
C2298 C2297 1.373 . S
C2299 C2283 1.377 . S
C2299 C2297 1.389 . S
C2299 C2300 1.524 . S
C2300 C2299 1.524 . S
C2300 C2301 1.397 . S
C2300 C2305 1.363 . S
C2301 H2272 0.950 . S
C2301 C2300 1.397 . S
C2301 C2302 1.334 . S
C2302 H2273 0.950 . S
C2302 C2301 1.334 . S
C2302 C2303 1.287 . S
C2303 C2302 1.287 . S
C2303 C2304 1.524 . S
C2303 H2306 0.999 . S
C2304 H2274 0.950 . S
C2304 C2303 1.524 . S
C2304 C2305 1.415 . S
C2305 H2275 0.950 . S
C2305 C2300 1.363 . S
C2305 C2304 1.415 . S
H2306 C2303 0.999 . S
H2307 C2288 0.913 . S
H2308 C2326 0.951 . S
H2309 C2328 0.951 . S
H2310 C2330 0.950 . S
H2311 C2331 0.950 . S
H2312 C2333 0.950 . S
H2313 C2336 0.950 . S
H2314 C2337 0.950 . S
H2315 C2339 0.950 . S
H2316 C2340 0.950 . S
H2317 C2341 0.951 . S
H2318 C2343 0.951 . S
H2319 C2345 0.950 . S
H2320 C2346 0.950 . S
H2321 C2348 0.950 . S
H2322 C2351 0.950 . S
H2323 C2352 0.950 . S
H2324 C2354 0.950 . S
H2325 C2355 0.950 . S
C2326 H2308 0.951 . S
C2326 C2327 1.366 . S
C2326 C2328 1.388 . S
C2327 C2326 1.366 . S
C2327 C2331 1.385 . S
C2328 H2309 0.951 . S
C2328 C2326 1.388 . S
C2328 C2329 1.366 . S
C2329 C2328 1.366 . S
C2329 C2330 1.414 . S
C2329 C2332 1.499 . S
C2330 H2310 0.950 . S
C2330 C2329 1.414 . S
C2330 C2331 1.374 . S
C2331 H2311 0.950 . S
C2331 C2327 1.385 . S
C2331 C2330 1.374 . S
C2332 C2329 1.499 . S
C2332 C2333 1.373 . S
C2332 C2334 1.389 . S
C2333 H2312 0.950 . S
C2333 C2332 1.373 . S
C2333 C2349 1.377 . S
C2334 C2332 1.389 . S
C2334 C2335 1.524 . S
C2334 C2348 1.377 . S
C2335 C2334 1.524 . S
C2335 C2336 1.397 . S
C2335 C2340 1.363 . S
C2336 H2313 0.950 . S
C2336 C2335 1.397 . S
C2336 C2337 1.334 . S
C2337 H2314 0.950 . S
C2337 C2336 1.334 . S
C2337 C2338 1.287 . S
C2338 C2337 1.287 . S
C2338 C2339 1.524 . S
C2338 H2357 0.913 . S
C2339 H2315 0.950 . S
C2339 C2338 1.524 . S
C2339 C2340 1.415 . S
C2340 H2316 0.950 . S
C2340 C2335 1.363 . S
C2340 C2339 1.415 . S
C2341 H2317 0.951 . S
C2341 C2342 1.366 . S
C2341 C2343 1.388 . S
C2342 C2341 1.366 . S
C2342 C2346 1.385 . S
C2343 H2318 0.951 . S
C2343 C2341 1.388 . S
C2343 C2344 1.366 . S
C2344 C2343 1.366 . S
C2344 C2345 1.414 . S
C2344 C2347 1.499 . S
C2345 H2319 0.950 . S
C2345 C2344 1.414 . S
C2345 C2346 1.374 . S
C2346 H2320 0.950 . S
C2346 C2342 1.385 . S
C2346 C2345 1.374 . S
C2347 C2344 1.499 . S
C2347 C2348 1.373 . S
C2347 C2349 1.389 . S
C2348 H2321 0.950 . S
C2348 C2334 1.377 . S
C2348 C2347 1.373 . S
C2349 C2333 1.377 . S
C2349 C2347 1.389 . S
C2349 C2350 1.524 . S
C2350 C2349 1.524 . S
C2350 C2351 1.397 . S
C2350 C2355 1.363 . S
C2351 H2322 0.950 . S
C2351 C2350 1.397 . S
C2351 C2352 1.334 . S
C2352 H2323 0.950 . S
C2352 C2351 1.334 . S
C2352 C2353 1.287 . S
C2353 C2352 1.287 . S
C2353 C2354 1.524 . S
C2353 H2356 0.999 . S
C2354 H2324 0.950 . S
C2354 C2353 1.524 . S
C2354 C2355 1.415 . S
C2355 H2325 0.950 . S
C2355 C2350 1.363 . S
C2355 C2354 1.415 . S
H2356 C2353 0.999 . S
H2357 C2338 0.913 . S
H2358 C2376 0.951 . S
H2359 C2378 0.951 . S
H2360 C2380 0.950 . S
H2361 C2381 0.950 . S
H2362 C2383 0.950 . S
H2363 C2386 0.950 . S
H2364 C2387 0.950 . S
H2365 C2389 0.950 . S
H2366 C2390 0.950 . S
H2367 C2391 0.951 . S
H2368 C2393 0.951 . S
H2369 C2395 0.950 . S
H2370 C2396 0.950 . S
H2371 C2398 0.950 . S
H2372 C2401 0.950 . S
H2373 C2402 0.950 . S
H2374 C2404 0.950 . S
H2375 C2405 0.950 . S
C2376 H2358 0.951 . S
C2376 C2377 1.366 . S
C2376 C2378 1.388 . S
C2377 C2376 1.366 . S
C2377 C2381 1.385 . S
C2378 H2359 0.951 . S
C2378 C2376 1.388 . S
C2378 C2379 1.366 . S
C2379 C2378 1.366 . S
C2379 C2380 1.414 . S
C2379 C2382 1.499 . S
C2380 H2360 0.950 . S
C2380 C2379 1.414 . S
C2380 C2381 1.374 . S
C2381 H2361 0.950 . S
C2381 C2377 1.385 . S
C2381 C2380 1.374 . S
C2382 C2379 1.499 . S
C2382 C2383 1.373 . S
C2382 C2384 1.389 . S
C2383 H2362 0.950 . S
C2383 C2382 1.373 . S
C2383 C2399 1.377 . S
C2384 C2382 1.389 . S
C2384 C2385 1.524 . S
C2384 C2398 1.377 . S
C2385 C2384 1.524 . S
C2385 C2386 1.397 . S
C2385 C2390 1.363 . S
C2386 H2363 0.950 . S
C2386 C2385 1.397 . S
C2386 C2387 1.334 . S
C2387 H2364 0.950 . S
C2387 C2386 1.334 . S
C2387 C2388 1.287 . S
C2388 C2387 1.287 . S
C2388 C2389 1.524 . S
C2388 H2407 0.913 . S
C2389 H2365 0.950 . S
C2389 C2388 1.524 . S
C2389 C2390 1.415 . S
C2390 H2366 0.950 . S
C2390 C2385 1.363 . S
C2390 C2389 1.415 . S
C2391 H2367 0.951 . S
C2391 C2392 1.366 . S
C2391 C2393 1.388 . S
C2392 C2391 1.366 . S
C2392 C2396 1.385 . S
C2393 H2368 0.951 . S
C2393 C2391 1.388 . S
C2393 C2394 1.366 . S
C2394 C2393 1.366 . S
C2394 C2395 1.414 . S
C2394 C2397 1.499 . S
C2395 H2369 0.950 . S
C2395 C2394 1.414 . S
C2395 C2396 1.374 . S
C2396 H2370 0.950 . S
C2396 C2392 1.385 . S
C2396 C2395 1.374 . S
C2397 C2394 1.499 . S
C2397 C2398 1.373 . S
C2397 C2399 1.389 . S
C2398 H2371 0.950 . S
C2398 C2384 1.377 . S
C2398 C2397 1.373 . S
C2399 C2383 1.377 . S
C2399 C2397 1.389 . S
C2399 C2400 1.524 . S
C2400 C2399 1.524 . S
C2400 C2401 1.397 . S
C2400 C2405 1.363 . S
C2401 H2372 0.950 . S
C2401 C2400 1.397 . S
C2401 C2402 1.334 . S
C2402 H2373 0.950 . S
C2402 C2401 1.334 . S
C2402 C2403 1.287 . S
C2403 C2402 1.287 . S
C2403 C2404 1.524 . S
C2403 H2406 0.999 . S
C2404 H2374 0.950 . S
C2404 C2403 1.524 . S
C2404 C2405 1.415 . S
C2405 H2375 0.950 . S
C2405 C2400 1.363 . S
C2405 C2404 1.415 . S
H2406 C2403 0.999 . S
H2407 C2388 0.913 . S
H2408 C2426 0.951 . S
H2409 C2428 0.951 . S
H2410 C2430 0.950 . S
H2411 C2431 0.950 . S
H2412 C2433 0.950 . S
H2413 C2436 0.950 . S
H2414 C2437 0.950 . S
H2415 C2439 0.950 . S
H2416 C2440 0.950 . S
H2417 C2441 0.951 . S
H2418 C2443 0.951 . S
H2419 C2445 0.950 . S
H2420 C2446 0.950 . S
H2421 C2448 0.950 . S
H2422 C2451 0.950 . S
H2423 C2452 0.950 . S
H2424 C2454 0.950 . S
H2425 C2455 0.950 . S
C2426 H2408 0.951 . S
C2426 C2427 1.366 . S
C2426 C2428 1.388 . S
C2427 C2426 1.366 . S
C2427 C2431 1.385 . S
C2428 H2409 0.951 . S
C2428 C2426 1.388 . S
C2428 C2429 1.366 . S
C2429 C2428 1.366 . S
C2429 C2430 1.414 . S
C2429 C2432 1.499 . S
C2430 H2410 0.950 . S
C2430 C2429 1.414 . S
C2430 C2431 1.374 . S
C2431 H2411 0.950 . S
C2431 C2427 1.385 . S
C2431 C2430 1.374 . S
C2432 C2429 1.499 . S
C2432 C2433 1.373 . S
C2432 C2434 1.389 . S
C2433 H2412 0.950 . S
C2433 C2432 1.373 . S
C2433 C2449 1.377 . S
C2434 C2432 1.389 . S
C2434 C2435 1.524 . S
C2434 C2448 1.377 . S
C2435 C2434 1.524 . S
C2435 C2436 1.397 . S
C2435 C2440 1.363 . S
C2436 H2413 0.950 . S
C2436 C2435 1.397 . S
C2436 C2437 1.334 . S
C2437 H2414 0.950 . S
C2437 C2436 1.334 . S
C2437 C2438 1.287 . S
C2438 C2437 1.287 . S
C2438 C2439 1.524 . S
C2438 H2457 0.913 . S
C2439 H2415 0.950 . S
C2439 C2438 1.524 . S
C2439 C2440 1.415 . S
C2440 H2416 0.950 . S
C2440 C2435 1.363 . S
C2440 C2439 1.415 . S
C2441 H2417 0.951 . S
C2441 C2442 1.366 . S
C2441 C2443 1.388 . S
C2442 C2441 1.366 . S
C2442 C2446 1.385 . S
C2443 H2418 0.951 . S
C2443 C2441 1.388 . S
C2443 C2444 1.366 . S
C2444 C2443 1.366 . S
C2444 C2445 1.414 . S
C2444 C2447 1.499 . S
C2445 H2419 0.950 . S
C2445 C2444 1.414 . S
C2445 C2446 1.374 . S
C2446 H2420 0.950 . S
C2446 C2442 1.385 . S
C2446 C2445 1.374 . S
C2447 C2444 1.499 . S
C2447 C2448 1.373 . S
C2447 C2449 1.389 . S
C2448 H2421 0.950 . S
C2448 C2434 1.377 . S
C2448 C2447 1.373 . S
C2449 C2433 1.377 . S
C2449 C2447 1.389 . S
C2449 C2450 1.524 . S
C2450 C2449 1.524 . S
C2450 C2451 1.397 . S
C2450 C2455 1.363 . S
C2451 H2422 0.950 . S
C2451 C2450 1.397 . S
C2451 C2452 1.334 . S
C2452 H2423 0.950 . S
C2452 C2451 1.334 . S
C2452 C2453 1.287 . S
C2453 C2452 1.287 . S
C2453 C2454 1.524 . S
C2453 H2456 0.999 . S
C2454 H2424 0.950 . S
C2454 C2453 1.524 . S
C2454 C2455 1.415 . S
C2455 H2425 0.950 . S
C2455 C2450 1.363 . S
C2455 C2454 1.415 . S
H2456 C2453 0.999 . S
H2457 C2438 0.913 . S
H2458 C2476 0.951 . S
H2459 C2478 0.951 . S
H2460 C2480 0.950 . S
H2461 C2481 0.950 . S
H2462 C2483 0.950 . S
H2463 C2486 0.950 . S
H2464 C2487 0.950 . S
H2465 C2489 0.950 . S
H2466 C2490 0.950 . S
H2467 C2491 0.951 . S
H2468 C2493 0.951 . S
H2469 C2495 0.950 . S
H2470 C2496 0.950 . S
H2471 C2498 0.950 . S
H2472 C2501 0.950 . S
H2473 C2502 0.950 . S
H2474 C2504 0.950 . S
H2475 C2505 0.950 . S
C2476 H2458 0.951 . S
C2476 C2477 1.366 . S
C2476 C2478 1.388 . S
C2477 C2476 1.366 . S
C2477 C2481 1.385 . S
C2478 H2459 0.951 . S
C2478 C2476 1.388 . S
C2478 C2479 1.366 . S
C2479 C2478 1.366 . S
C2479 C2480 1.414 . S
C2479 C2482 1.499 . S
C2480 H2460 0.950 . S
C2480 C2479 1.414 . S
C2480 C2481 1.374 . S
C2481 H2461 0.950 . S
C2481 C2477 1.385 . S
C2481 C2480 1.374 . S
C2482 C2479 1.499 . S
C2482 C2483 1.373 . S
C2482 C2484 1.389 . S
C2483 H2462 0.950 . S
C2483 C2482 1.373 . S
C2483 C2499 1.377 . S
C2484 C2482 1.389 . S
C2484 C2485 1.524 . S
C2484 C2498 1.377 . S
C2485 C2484 1.524 . S
C2485 C2486 1.397 . S
C2485 C2490 1.363 . S
C2486 H2463 0.950 . S
C2486 C2485 1.397 . S
C2486 C2487 1.334 . S
C2487 H2464 0.950 . S
C2487 C2486 1.334 . S
C2487 C2488 1.287 . S
C2488 C2487 1.287 . S
C2488 C2489 1.524 . S
C2488 H2507 0.913 . S
C2489 H2465 0.950 . S
C2489 C2488 1.524 . S
C2489 C2490 1.415 . S
C2490 H2466 0.950 . S
C2490 C2485 1.363 . S
C2490 C2489 1.415 . S
C2491 H2467 0.951 . S
C2491 C2492 1.366 . S
C2491 C2493 1.388 . S
C2492 C2491 1.366 . S
C2492 C2496 1.385 . S
C2493 H2468 0.951 . S
C2493 C2491 1.388 . S
C2493 C2494 1.366 . S
C2494 C2493 1.366 . S
C2494 C2495 1.414 . S
C2494 C2497 1.499 . S
C2495 H2469 0.950 . S
C2495 C2494 1.414 . S
C2495 C2496 1.374 . S
C2496 H2470 0.950 . S
C2496 C2492 1.385 . S
C2496 C2495 1.374 . S
C2497 C2494 1.499 . S
C2497 C2498 1.373 . S
C2497 C2499 1.389 . S
C2498 H2471 0.950 . S
C2498 C2484 1.377 . S
C2498 C2497 1.373 . S
C2499 C2483 1.377 . S
C2499 C2497 1.389 . S
C2499 C2500 1.524 . S
C2500 C2499 1.524 . S
C2500 C2501 1.397 . S
C2500 C2505 1.363 . S
C2501 H2472 0.950 . S
C2501 C2500 1.397 . S
C2501 C2502 1.334 . S
C2502 H2473 0.950 . S
C2502 C2501 1.334 . S
C2502 C2503 1.287 . S
C2503 C2502 1.287 . S
C2503 C2504 1.524 . S
C2503 H2506 0.999 . S
C2504 H2474 0.950 . S
C2504 C2503 1.524 . S
C2504 C2505 1.415 . S
C2505 H2475 0.950 . S
C2505 C2500 1.363 . S
C2505 C2504 1.415 . S
H2506 C2503 0.999 . S
H2507 C2488 0.913 . S
H2508 C2526 0.951 . S
H2509 C2528 0.951 . S
H2510 C2530 0.950 . S
H2511 C2531 0.950 . S
H2512 C2533 0.950 . S
H2513 C2536 0.950 . S
H2514 C2537 0.950 . S
H2515 C2539 0.950 . S
H2516 C2540 0.950 . S
H2517 C2541 0.951 . S
H2518 C2543 0.951 . S
H2519 C2545 0.950 . S
H2520 C2546 0.994 . S
H2521 C2548 0.950 . S
H2522 C2551 0.950 . S
H2523 C2552 0.950 . S
H2524 C2554 0.950 . S
H2525 C2555 0.950 . S
C2526 H2508 0.951 . S
C2526 C2527 1.366 . S
C2526 C2528 1.388 . S
C2527 C2526 1.366 . S
C2527 C2531 1.385 . S
C2528 H2509 0.951 . S
C2528 C2526 1.388 . S
C2528 C2529 1.366 . S
C2529 C2528 1.366 . S
C2529 C2530 1.414 . S
C2529 C2532 1.499 . S
C2530 H2510 0.950 . S
C2530 C2529 1.414 . S
C2530 C2531 1.374 . S
C2531 H2511 0.950 . S
C2531 C2527 1.385 . S
C2531 C2530 1.374 . S
C2532 C2529 1.499 . S
C2532 C2533 1.373 . S
C2532 C2534 1.389 . S
C2533 H2512 0.950 . S
C2533 C2532 1.373 . S
C2533 C2549 1.377 . S
C2534 C2532 1.389 . S
C2534 C2535 1.524 . S
C2534 C2548 1.377 . S
C2535 C2534 1.524 . S
C2535 C2536 1.397 . S
C2535 C2540 1.363 . S
C2536 H2513 0.950 . S
C2536 C2535 1.397 . S
C2536 C2537 1.334 . S
C2537 H2514 0.950 . S
C2537 C2536 1.334 . S
C2537 C2538 1.287 . S
C2538 C2537 1.287 . S
C2538 C2539 1.524 . S
C2538 H2557 0.913 . S
C2539 H2515 0.950 . S
C2539 C2538 1.524 . S
C2539 C2540 1.415 . S
C2540 H2516 0.950 . S
C2540 C2535 1.363 . S
C2540 C2539 1.415 . S
C2541 H2517 0.951 . S
C2541 C2542 1.366 . S
C2541 C2543 1.388 . S
C2542 C2541 1.366 . S
C2542 C2546 1.385 . S
C2543 H2518 0.951 . S
C2543 C2541 1.388 . S
C2543 C2544 1.366 . S
C2544 C2543 1.366 . S
C2544 C2545 1.414 . S
C2544 C2547 1.499 1_655 S
C2545 H2519 0.950 . S
C2545 C2544 1.414 . S
C2545 C2546 1.374 . S
C2546 H2520 0.994 . S
C2546 C2542 1.385 . S
C2546 C2545 1.374 . S
C2547 C2544 1.499 1_455 S
C2547 C2548 1.373 . S
C2547 C2549 1.389 . S
C2548 H2521 0.950 . S
C2548 C2534 1.377 . S
C2548 C2547 1.373 . S
C2549 C2533 1.377 . S
C2549 C2547 1.389 . S
C2549 C2550 1.524 1_455 S
C2550 C2549 1.524 1_655 S
C2550 C2551 1.397 . S
C2550 C2555 1.363 . S
C2551 H2522 0.950 . S
C2551 C2550 1.397 . S
C2551 C2552 1.334 . S
C2552 H2523 0.950 . S
C2552 C2551 1.334 . S
C2552 C2553 1.287 . S
C2553 C2552 1.287 . S
C2553 C2554 1.524 . S
C2553 H2556 0.999 . S
C2554 H2524 0.950 . S
C2554 C2553 1.524 . S
C2554 C2555 1.415 . S
C2555 H2525 0.950 . S
C2555 C2550 1.363 . S
C2555 C2554 1.415 . S
H2556 C2553 0.999 . S
H2557 C2538 0.913 . S
H2558 C2576 0.951 . S
H2559 C2578 0.951 . S
H2560 C2580 0.950 . S
H2561 C2581 0.950 . S
H2562 C2583 0.950 . S
H2563 C2586 0.950 . S
H2564 C2587 0.950 . S
H2565 C2589 0.950 . S
H2566 C2590 0.950 . S
H2567 C2591 0.951 . S
H2568 C2593 0.951 . S
H2569 C2595 0.950 . S
H2570 C2596 0.950 . S
H2571 C2598 0.950 . S
H2572 C2601 0.950 . S
H2573 C2602 0.950 . S
H2574 C2604 0.950 . S
H2575 C2605 0.950 . S
C2576 H2558 0.951 . S
C2576 C2577 1.366 . S
C2576 C2578 1.388 . S
C2577 C2576 1.366 . S
C2577 C2581 1.385 . S
C2578 H2559 0.951 . S
C2578 C2576 1.388 . S
C2578 C2579 1.366 . S
C2579 C2578 1.366 . S
C2579 C2580 1.414 . S
C2579 C2582 1.499 . S
C2580 H2560 0.950 . S
C2580 C2579 1.414 . S
C2580 C2581 1.374 . S
C2581 H2561 0.950 . S
C2581 C2577 1.385 . S
C2581 C2580 1.374 . S
C2582 C2579 1.499 . S
C2582 C2583 1.373 . S
C2582 C2584 1.389 . S
C2583 H2562 0.950 . S
C2583 C2582 1.373 . S
C2583 C2599 1.377 . S
C2584 C2582 1.389 . S
C2584 C2585 1.524 . S
C2584 C2598 1.377 . S
C2585 C2584 1.524 . S
C2585 C2586 1.397 . S
C2585 C2590 1.363 . S
C2586 H2563 0.950 . S
C2586 C2585 1.397 . S
C2586 C2587 1.334 . S
C2587 H2564 0.950 . S
C2587 C2586 1.334 . S
C2587 C2588 1.287 . S
C2588 C2587 1.287 . S
C2588 C2589 1.524 . S
C2588 H2607 0.913 . S
C2589 H2565 0.950 . S
C2589 C2588 1.524 . S
C2589 C2590 1.415 . S
C2590 H2566 0.950 . S
C2590 C2585 1.363 . S
C2590 C2589 1.415 . S
C2591 H2567 0.951 . S
C2591 C2592 1.366 . S
C2591 C2593 1.388 . S
C2592 C2591 1.366 . S
C2592 C2596 1.385 . S
C2593 H2568 0.951 . S
C2593 C2591 1.388 . S
C2593 C2594 1.366 . S
C2594 C2593 1.366 . S
C2594 C2595 1.414 . S
C2594 C2597 1.499 . S
C2595 H2569 0.950 . S
C2595 C2594 1.414 . S
C2595 C2596 1.374 . S
C2596 H2570 0.950 . S
C2596 C2592 1.385 . S
C2596 C2595 1.374 . S
C2597 C2594 1.499 . S
C2597 C2598 1.373 . S
C2597 C2599 1.389 . S
C2598 H2571 0.950 . S
C2598 C2584 1.377 . S
C2598 C2597 1.373 . S
C2599 C2583 1.377 . S
C2599 C2597 1.389 . S
C2599 C2600 1.524 . S
C2600 C2599 1.524 . S
C2600 C2601 1.397 . S
C2600 C2605 1.363 . S
C2601 H2572 0.950 . S
C2601 C2600 1.397 . S
C2601 C2602 1.334 . S
C2602 H2573 0.950 . S
C2602 C2601 1.334 . S
C2602 C2603 1.287 . S
C2603 C2602 1.287 . S
C2603 C2604 1.524 . S
C2603 H2606 0.999 . S
C2604 H2574 0.950 . S
C2604 C2603 1.524 . S
C2604 C2605 1.415 . S
C2605 H2575 0.950 . S
C2605 C2600 1.363 . S
C2605 C2604 1.415 . S
H2606 C2603 0.999 . S
H2607 C2588 0.913 . S
H2608 C2626 0.951 . S
H2609 C2628 0.951 . S
H2610 C2630 0.950 . S
H2611 C2631 0.950 . S
H2612 C2633 0.950 . S
H2613 C2636 0.950 . S
H2614 C2637 0.950 . S
H2615 C2639 0.950 . S
H2616 C2640 0.950 . S
H2617 C2641 0.951 . S
H2618 C2643 0.951 . S
H2619 C2645 0.950 . S
H2620 C2646 0.950 . S
H2621 C2648 0.950 . S
H2622 C2651 0.950 . S
H2623 C2652 0.950 . S
H2624 C2654 0.950 . S
H2625 C2655 0.950 . S
C2626 H2608 0.951 . S
C2626 C2627 1.366 . S
C2626 C2628 1.388 . S
C2627 C2626 1.366 . S
C2627 C2631 1.385 . S
C2628 H2609 0.951 . S
C2628 C2626 1.388 . S
C2628 C2629 1.366 . S
C2629 C2628 1.366 . S
C2629 C2630 1.414 . S
C2629 C2632 1.499 . S
C2630 H2610 0.950 . S
C2630 C2629 1.414 . S
C2630 C2631 1.374 . S
C2631 H2611 0.950 . S
C2631 C2627 1.385 . S
C2631 C2630 1.374 . S
C2632 C2629 1.499 . S
C2632 C2633 1.373 . S
C2632 C2634 1.389 . S
C2633 H2612 0.950 . S
C2633 C2632 1.373 . S
C2633 C2649 1.377 . S
C2634 C2632 1.389 . S
C2634 C2635 1.524 . S
C2634 C2648 1.377 . S
C2635 C2634 1.524 . S
C2635 C2636 1.397 . S
C2635 C2640 1.363 . S
C2636 H2613 0.950 . S
C2636 C2635 1.397 . S
C2636 C2637 1.334 . S
C2637 H2614 0.950 . S
C2637 C2636 1.334 . S
C2637 C2638 1.287 . S
C2638 C2637 1.287 . S
C2638 C2639 1.524 . S
C2638 H2657 0.913 . S
C2639 H2615 0.950 . S
C2639 C2638 1.524 . S
C2639 C2640 1.415 . S
C2640 H2616 0.950 . S
C2640 C2635 1.363 . S
C2640 C2639 1.415 . S
C2641 H2617 0.951 . S
C2641 C2642 1.366 . S
C2641 C2643 1.388 . S
C2642 C2641 1.366 . S
C2642 C2646 1.385 . S
C2643 H2618 0.951 . S
C2643 C2641 1.388 . S
C2643 C2644 1.366 . S
C2644 C2643 1.366 . S
C2644 C2645 1.414 . S
C2644 C2647 1.499 . S
C2645 H2619 0.950 . S
C2645 C2644 1.414 . S
C2645 C2646 1.374 . S
C2646 H2620 0.950 . S
C2646 C2642 1.385 . S
C2646 C2645 1.374 . S
C2647 C2644 1.499 . S
C2647 C2648 1.373 . S
C2647 C2649 1.389 . S
C2648 H2621 0.950 . S
C2648 C2634 1.377 . S
C2648 C2647 1.373 . S
C2649 C2633 1.377 . S
C2649 C2647 1.389 . S
C2649 C2650 1.524 . S
C2650 C2649 1.524 . S
C2650 C2651 1.397 . S
C2650 C2655 1.363 . S
C2651 H2622 0.950 . S
C2651 C2650 1.397 . S
C2651 C2652 1.334 . S
C2652 H2623 0.950 . S
C2652 C2651 1.334 . S
C2652 C2653 1.287 . S
C2653 C2652 1.287 . S
C2653 C2654 1.524 . S
C2653 H2656 0.999 . S
C2654 H2624 0.950 . S
C2654 C2653 1.524 . S
C2654 C2655 1.415 . S
C2655 H2625 0.950 . S
C2655 C2650 1.363 . S
C2655 C2654 1.415 . S
H2656 C2653 0.999 . S
H2657 C2638 0.913 . S
H2658 C2676 0.951 . S
H2659 C2678 0.951 . S
H2660 C2680 0.950 . S
H2661 C2681 0.950 . S
H2662 C2683 0.950 . S
H2663 C2686 0.950 . S
H2664 C2687 0.950 . S
H2665 C2689 0.950 . S
H2666 C2690 0.950 . S
H2667 C2691 0.951 . S
H2668 C2693 0.951 . S
H2669 C2695 0.950 . S
H2670 C2696 0.950 . S
H2671 C2698 0.950 . S
H2672 C2701 0.950 . S
H2673 C2702 0.950 . S
H2674 C2704 0.950 . S
H2675 C2705 0.950 . S
C2676 H2658 0.951 . S
C2676 C2677 1.366 . S
C2676 C2678 1.388 . S
C2677 C2676 1.366 . S
C2677 C2681 1.385 . S
C2678 H2659 0.951 . S
C2678 C2676 1.388 . S
C2678 C2679 1.366 . S
C2679 C2678 1.366 . S
C2679 C2680 1.414 . S
C2679 C2682 1.499 . S
C2680 H2660 0.950 . S
C2680 C2679 1.414 . S
C2680 C2681 1.374 . S
C2681 H2661 0.950 . S
C2681 C2677 1.385 . S
C2681 C2680 1.374 . S
C2682 C2679 1.499 . S
C2682 C2683 1.373 . S
C2682 C2684 1.389 . S
C2683 H2662 0.950 . S
C2683 C2682 1.373 . S
C2683 C2699 1.377 . S
C2684 C2682 1.389 . S
C2684 C2685 1.524 . S
C2684 C2698 1.377 . S
C2685 C2684 1.524 . S
C2685 C2686 1.397 . S
C2685 C2690 1.363 . S
C2686 H2663 0.950 . S
C2686 C2685 1.397 . S
C2686 C2687 1.334 . S
C2687 H2664 0.950 . S
C2687 C2686 1.334 . S
C2687 C2688 1.287 . S
C2688 C2687 1.287 . S
C2688 C2689 1.524 . S
C2688 H2707 0.913 . S
C2689 H2665 0.950 . S
C2689 C2688 1.524 . S
C2689 C2690 1.415 . S
C2690 H2666 0.950 . S
C2690 C2685 1.363 . S
C2690 C2689 1.415 . S
C2691 H2667 0.951 . S
C2691 C2692 1.366 . S
C2691 C2693 1.388 . S
C2692 C2691 1.366 . S
C2692 C2696 1.385 . S
C2693 H2668 0.951 . S
C2693 C2691 1.388 . S
C2693 C2694 1.366 . S
C2694 C2693 1.366 . S
C2694 C2695 1.414 . S
C2694 C2697 1.499 . S
C2695 H2669 0.950 . S
C2695 C2694 1.414 . S
C2695 C2696 1.374 . S
C2696 H2670 0.950 . S
C2696 C2692 1.385 . S
C2696 C2695 1.374 . S
C2697 C2694 1.499 . S
C2697 C2698 1.373 . S
C2697 C2699 1.389 . S
C2698 H2671 0.950 . S
C2698 C2684 1.377 . S
C2698 C2697 1.373 . S
C2699 C2683 1.377 . S
C2699 C2697 1.389 . S
C2699 C2700 1.524 . S
C2700 C2699 1.524 . S
C2700 C2701 1.397 . S
C2700 C2705 1.363 . S
C2701 H2672 0.950 . S
C2701 C2700 1.397 . S
C2701 C2702 1.334 . S
C2702 H2673 0.950 . S
C2702 C2701 1.334 . S
C2702 C2703 1.287 . S
C2703 C2702 1.287 . S
C2703 C2704 1.524 . S
C2703 H2706 0.999 . S
C2704 H2674 0.950 . S
C2704 C2703 1.524 . S
C2704 C2705 1.415 . S
C2705 H2675 0.950 . S
C2705 C2700 1.363 . S
C2705 C2704 1.415 . S
H2706 C2703 0.999 . S
H2707 C2688 0.913 . S
H2708 C2726 0.951 . S
H2709 C2728 0.951 . S
H2710 C2730 0.950 . S
H2711 C2731 0.950 . S
H2712 C2733 0.950 . S
H2713 C2736 0.950 . S
H2714 C2737 0.950 . S
H2715 C2739 0.950 . S
H2716 C2740 0.950 . S
H2717 C2741 0.951 . S
H2718 C2743 0.951 . S
H2719 C2745 0.950 . S
H2720 C2746 0.950 . S
H2721 C2748 0.950 . S
H2722 C2751 0.950 . S
H2723 C2752 0.950 . S
H2724 C2754 0.950 . S
H2725 C2755 0.950 . S
C2726 H2708 0.951 . S
C2726 C2727 1.366 . S
C2726 C2728 1.388 . S
C2727 C2726 1.366 . S
C2727 C2731 1.385 . S
C2728 H2709 0.951 . S
C2728 C2726 1.388 . S
C2728 C2729 1.366 . S
C2729 C2728 1.366 . S
C2729 C2730 1.414 . S
C2729 C2732 1.499 . S
C2730 H2710 0.950 . S
C2730 C2729 1.414 . S
C2730 C2731 1.374 . S
C2731 H2711 0.950 . S
C2731 C2727 1.385 . S
C2731 C2730 1.374 . S
C2732 C2729 1.499 . S
C2732 C2733 1.373 . S
C2732 C2734 1.389 . S
C2733 H2712 0.950 . S
C2733 C2732 1.373 . S
C2733 C2749 1.377 . S
C2734 C2732 1.389 . S
C2734 C2735 1.524 . S
C2734 C2748 1.377 . S
C2735 C2734 1.524 . S
C2735 C2736 1.397 . S
C2735 C2740 1.363 . S
C2736 H2713 0.950 . S
C2736 C2735 1.397 . S
C2736 C2737 1.334 . S
C2737 H2714 0.950 . S
C2737 C2736 1.334 . S
C2737 C2738 1.287 . S
C2738 C2737 1.287 . S
C2738 C2739 1.524 . S
C2738 H2757 0.913 . S
C2739 H2715 0.950 . S
C2739 C2738 1.524 . S
C2739 C2740 1.415 . S
C2740 H2716 0.950 . S
C2740 C2735 1.363 . S
C2740 C2739 1.415 . S
C2741 H2717 0.951 . S
C2741 C2742 1.366 . S
C2741 C2743 1.388 . S
C2742 C2741 1.366 . S
C2742 C2746 1.385 . S
C2743 H2718 0.951 . S
C2743 C2741 1.388 . S
C2743 C2744 1.366 . S
C2744 C2743 1.366 . S
C2744 C2745 1.414 . S
C2744 C2747 1.499 . S
C2745 H2719 0.950 . S
C2745 C2744 1.414 . S
C2745 C2746 1.374 . S
C2746 H2720 0.950 . S
C2746 C2742 1.385 . S
C2746 C2745 1.374 . S
C2747 C2744 1.499 . S
C2747 C2748 1.373 . S
C2747 C2749 1.389 . S
C2748 H2721 0.950 . S
C2748 C2734 1.377 . S
C2748 C2747 1.373 . S
C2749 C2733 1.377 . S
C2749 C2747 1.389 . S
C2749 C2750 1.524 . S
C2750 C2749 1.524 . S
C2750 C2751 1.397 . S
C2750 C2755 1.363 . S
C2751 H2722 0.950 . S
C2751 C2750 1.397 . S
C2751 C2752 1.334 . S
C2752 H2723 0.950 . S
C2752 C2751 1.334 . S
C2752 C2753 1.287 . S
C2753 C2752 1.287 . S
C2753 C2754 1.524 . S
C2753 H2756 0.999 . S
C2754 H2724 0.950 . S
C2754 C2753 1.524 . S
C2754 C2755 1.415 . S
C2755 H2725 0.950 . S
C2755 C2750 1.363 . S
C2755 C2754 1.415 . S
H2756 C2753 0.999 . S
H2757 C2738 0.913 . S
H2758 C2776 0.951 . S
H2759 C2778 0.951 . S
H2760 C2780 0.950 . S
H2761 C2781 0.950 . S
H2762 C2783 0.950 . S
H2763 C2786 0.950 . S
H2764 C2787 0.950 . S
H2765 C2789 0.950 . S
H2766 C2790 0.950 . S
H2767 C2791 0.951 . S
H2768 C2793 0.951 . S
H2769 C2795 0.950 . S
H2770 C2796 0.950 . S
H2771 C2798 0.950 . S
H2772 C2801 0.950 . S
H2773 C2802 0.950 . S
H2774 C2804 0.950 . S
H2775 C2805 0.950 . S
C2776 H2758 0.951 . S
C2776 C2777 1.366 . S
C2776 C2778 1.388 . S
C2777 C2776 1.366 . S
C2777 C2781 1.385 . S
C2778 H2759 0.951 . S
C2778 C2776 1.388 . S
C2778 C2779 1.366 . S
C2779 C2778 1.366 . S
C2779 C2780 1.414 . S
C2779 C2782 1.499 . S
C2780 H2760 0.950 . S
C2780 C2779 1.414 . S
C2780 C2781 1.374 . S
C2781 H2761 0.950 . S
C2781 C2777 1.385 . S
C2781 C2780 1.374 . S
C2782 C2779 1.499 . S
C2782 C2783 1.373 . S
C2782 C2784 1.389 . S
C2783 H2762 0.950 . S
C2783 C2782 1.373 . S
C2783 C2799 1.377 . S
C2784 C2782 1.389 . S
C2784 C2785 1.524 . S
C2784 C2798 1.377 . S
C2785 C2784 1.524 . S
C2785 C2786 1.397 . S
C2785 C2790 1.363 . S
C2786 H2763 0.950 . S
C2786 C2785 1.397 . S
C2786 C2787 1.334 . S
C2787 H2764 0.950 . S
C2787 C2786 1.334 . S
C2787 C2788 1.287 . S
C2788 C2787 1.287 . S
C2788 C2789 1.524 . S
C2788 H2807 0.913 . S
C2789 H2765 0.950 . S
C2789 C2788 1.524 . S
C2789 C2790 1.415 . S
C2790 H2766 0.950 . S
C2790 C2785 1.363 . S
C2790 C2789 1.415 . S
C2791 H2767 0.951 . S
C2791 C2792 1.366 . S
C2791 C2793 1.388 . S
C2792 C2791 1.366 . S
C2792 C2796 1.385 . S
C2793 H2768 0.951 . S
C2793 C2791 1.388 . S
C2793 C2794 1.366 . S
C2794 C2793 1.366 . S
C2794 C2795 1.414 . S
C2794 C2797 1.501 . S
C2795 H2769 0.950 . S
C2795 C2794 1.414 . S
C2795 C2796 1.374 . S
C2796 H2770 0.950 . S
C2796 C2792 1.385 . S
C2796 C2795 1.374 . S
C2797 C2794 1.501 . S
C2797 C2798 1.371 1_455 S
C2797 C2799 1.389 1_455 S
C2798 H2771 0.950 . S
C2798 C2784 1.377 . S
C2798 C2797 1.371 1_655 S
C2799 C2783 1.377 . S
C2799 C2797 1.389 1_655 S
C2799 C2800 1.524 1_655 S
C2800 C2799 1.524 1_455 S
C2800 C2801 1.397 . S
C2800 C2805 1.363 . S
C2801 H2772 0.950 . S
C2801 C2800 1.397 . S
C2801 C2802 1.334 . S
C2802 H2773 0.950 . S
C2802 C2801 1.334 . S
C2802 C2803 1.287 . S
C2803 C2802 1.287 . S
C2803 C2804 1.524 . S
C2803 H2806 0.999 . S
C2804 H2774 0.950 . S
C2804 C2803 1.524 . S
C2804 C2805 1.415 . S
C2805 H2775 0.950 . S
C2805 C2800 1.363 . S
C2805 C2804 1.415 . S
H2806 C2803 0.999 . S
H2807 C2788 0.913 . S
C1027 C67 1.479 . S
C1042 C987 1.515 . S
C1077 C819 1.478 1_565 S
C1092 C147 1.486 . S
C1127 C231 1.405 . S
C1142 C735 1.393 . S
C1177 C315 1.440 . S
C1192 C903 1.433 1_545 S
C1227 C399 1.584 . S
C1242 C907 1.544 . S
C1277 C487 1.578 . S
C1292 C991 1.582 . S
C1327 C823 1.504 . S
C1342 C567 1.539 1_556 S
C1377 C651 1.495 . S
C1392 C739 1.460 . S
C1427 C319 1.583 . S
C1442 C403 1.582 . S
C1477 C63 1.466 . S
C1492 C483 1.470 . S
C1527 C151 1.583 . S
C1542 C571 1.587 . S
C1577 C655 1.587 . S
C1592 C235 1.584 . S
C1627 C70 1.631 . S
C1642 C746 1.764 . S
C1677 C142 1.413 . S
C1692 C914 1.603 . S
C1727 C998 1.672 . S
C1742 C226 1.470 . S
C1777 C310 1.510 . S
C1792 C830 1.721 . S
C1827 C394 1.483 . S
C1842 C812 1.681 . S
C1877 C728 1.844 . S
C1892 C490 1.701 . S
C1927 C896 1.799 . S
C1942 C562 1.582 . S
C1977 C980 1.750 . S
C1992 C646 1.539 . S
C2027 C74 1.769 . S
C2042 C322 1.633 . S
C2077 C58 1.605 . S
C2092 C140 1.822 . S
C2127 C154 1.733 . S
C2142 C224 1.880 . S
C2177 C308 1.843 . S
C2192 C238 1.702 . S
C2227 C478 1.469 . S
C2242 C392 1.663 . S
C2277 C494 1.605 . S
C2292 C574 1.486 . S
C2327 C560 1.681 . S
C2342 C658 1.552 . S
C2377 C406 1.584 . S
C2392 C644 1.717 . S
C2427 C742 1.554 . S
C2442 C326 1.682 . S
C2477 C476 1.734 . S
C2492 C814 1.526 . S
C2527 C730 1.485 . S
C2542 C578 1.692 . S
C2577 C898 1.417 . S
C2592 C662 1.612 . S
C2627 C410 1.591 . S
C2642 C982 1.395 . S
C2677 C994 1.454 . S
C2692 C158 1.577 . S
C2727 C242 1.600 . S
C2742 C826 1.477 . S
C2777 C910 1.590 . S
C2792 C56 1.724 . S
