# Generated by pormake.
# Topology vmf, (6)-cn, num edge types: 1
# Building blocks:
#     Node 0, Type 0, BuildingBlock: IZENUY_clean_sbu_0, # of connection points: 6
#     Node 1, Type 0, BuildingBlock: IZENUY_clean_sbu_0, # of connection points: 6
#     Node 2, Type 0, BuildingBlock: IZENUY_clean_sbu_0, # of connection points: 6
#     Node 3, Type 0, BuildingBlock: IZENUY_clean_sbu_0, # of connection points: 6
#     Node 4, Type 0, BuildingBlock: IZENUY_clean_sbu_0, # of connection points: 6
#     Node 5, Type 0, BuildingBlock: IZENUY_clean_sbu_0, # of connection points: 6
#     Node 6, Type 0, BuildingBlock: IZENUY_clean_sbu_0, # of connection points: 6
#     Node 7, Type 0, BuildingBlock: IZENUY_clean_sbu_0, # of connection points: 6
#     Edge 8, Type (0, 0), BuildingBlock: AJUNOK_clean_linker_0, # of connection points: 2
#     Edge 9, Type (0, 0), BuildingBlock: AJUNOK_clean_linker_0, # of connection points: 2
#     Edge 10, Type (0, 0), BuildingBlock: AJUNOK_clean_linker_0, # of connection points: 2
#     Edge 11, Type (0, 0), BuildingBlock: AJUNOK_clean_linker_0, # of connection points: 2
#     Edge 12, Type (0, 0), BuildingBlock: AJUNOK_clean_linker_0, # of connection points: 2
#     Edge 13, Type (0, 0), BuildingBlock: AJUNOK_clean_linker_0, # of connection points: 2
#     Edge 14, Type (0, 0), BuildingBlock: AJUNOK_clean_linker_0, # of connection points: 2
#     Edge 15, Type (0, 0), BuildingBlock: AJUNOK_clean_linker_0, # of connection points: 2
#     Edge 16, Type (0, 0), BuildingBlock: AJUNOK_clean_linker_0, # of connection points: 2
#     Edge 17, Type (0, 0), BuildingBlock: AJUNOK_clean_linker_0, # of connection points: 2
#     Edge 18, Type (0, 0), BuildingBlock: AJUNOK_clean_linker_0, # of connection points: 2
#     Edge 19, Type (0, 0), BuildingBlock: AJUNOK_clean_linker_0, # of connection points: 2
#     Edge 20, Type (0, 0), BuildingBlock: AJUNOK_clean_linker_0, # of connection points: 2
#     Edge 21, Type (0, 0), BuildingBlock: AJUNOK_clean_linker_0, # of connection points: 2
#     Edge 22, Type (0, 0), BuildingBlock: AJUNOK_clean_linker_0, # of connection points: 2
#     Edge 23, Type (0, 0), BuildingBlock: AJUNOK_clean_linker_0, # of connection points: 2
#     Edge 24, Type (0, 0), BuildingBlock: AJUNOK_clean_linker_0, # of connection points: 2
#     Edge 25, Type (0, 0), BuildingBlock: AJUNOK_clean_linker_0, # of connection points: 2
#     Edge 26, Type (0, 0), BuildingBlock: AJUNOK_clean_linker_0, # of connection points: 2
#     Edge 27, Type (0, 0), BuildingBlock: AJUNOK_clean_linker_0, # of connection points: 2
#     Edge 28, Type (0, 0), BuildingBlock: AJUNOK_clean_linker_0, # of connection points: 2
#     Edge 29, Type (0, 0), BuildingBlock: AJUNOK_clean_linker_0, # of connection points: 2
#     Edge 30, Type (0, 0), BuildingBlock: AJUNOK_clean_linker_0, # of connection points: 2
#     Edge 31, Type (0, 0), BuildingBlock: AJUNOK_clean_linker_0, # of connection points: 2
# Relax obj value: 0.281
# Max RMSD: 0.266
# Mean RMSD: 0.266
data_MOF--net-vmf--node1-IZENUY_clean_sbu_0--edge1-AJUNOK_clean_linker_0
_symmetry_space_group_name_H-M    P1
_symmetry_Int_Tables_number       1
_symmetry_cell_setting            triclinic
loop_
_symmetry_equiv_pos_as_xyz
'x, y, z'
_cell_length_a     21.370225
_cell_length_b     31.903694
_cell_length_c     20.901428
_cell_angle_alpha  90.941742
_cell_angle_beta   108.02494
_cell_angle_gamma 89.631857
loop_
_atom_site_label
_atom_site_type_symbol
_atom_site_fract_x
_atom_site_fract_y
_atom_site_fract_z
_atom_type_partial_charge
Fe0 Fe 0.24703 0.37964 0.20763 0.0
Fe1 Fe 0.24057 0.29177 0.26515 0.0
O2 O 0.2162 0.34522 0.25694 0.0
Fe3 Fe 0.15834 0.36449 0.29575 0.0
O4 O 0.09948 0.37617 0.21158 0.0
O5 O 0.17099 0.40983 0.1764 0.0
O6 O 0.21706 0.34668 0.13363 0.0
C7 C 0.23235 0.30876 0.13062 0.0
C8 C 0.24454 0.43404 0.30827 0.0
O9 O 0.2483 0.28632 0.182 0.0
C10 C 0.23722 0.31438 0.39576 0.0
O11 O 0.32799 0.35547 0.22763 0.0
O12 O 0.32793 0.30557 0.29914 0.0
O13 O 0.19005 0.41833 0.30736 0.0
O14 O 0.27996 0.41531 0.27853 0.0
C15 C 0.11027 0.28364 0.25551 0.0
O16 O 0.23829 0.28796 0.35058 0.0
O17 O 0.21321 0.35114 0.38074 0.0
C18 C 0.35827 0.32869 0.26968 0.0
O19 O 0.15531 0.27325 0.2309 0.0
O20 O 0.1154 0.31556 0.2925 0.0
C21 C 0.11315 0.39661 0.16583 0.0
Fe22 Fe 0.79766 0.38421 0.84354 0.0
Fe23 Fe 0.81636 0.29708 0.78352 0.0
O24 O 0.83294 0.35159 0.79351 0.0
Fe25 Fe 0.88827 0.37399 0.75552 0.0
O26 O 0.94603 0.38545 0.84071 0.0
O27 O 0.87174 0.41614 0.87729 0.0
O28 O 0.82841 0.3516 0.9166 0.0
C29 C 0.81793 0.31288 0.91789 0.0
C30 C 0.79731 0.44073 0.74761 0.0
O31 O 0.80987 0.28976 0.86673 0.0
C32 C 0.81308 0.32247 0.65317 0.0
O33 O 0.71887 0.35723 0.82022 0.0
O34 O 0.7281 0.30632 0.751 0.0
O35 O 0.85306 0.42686 0.74851 0.0
O36 O 0.76257 0.41995 0.77459 0.0
C37 C 0.94549 0.2947 0.78789 0.0
O38 O 0.81739 0.29503 0.69719 0.0
O39 O 0.83346 0.3601 0.66984 0.0
C40 C 0.69402 0.32776 0.77961 0.0
O41 O 0.90406 0.28262 0.81573 0.0
O42 O 0.9351 0.32721 0.75351 0.0
C43 C 0.93023 0.40353 0.88838 0.0
Fe44 Fe 0.79892 0.7636 0.79411 0.0
Fe45 Fe 0.78882 0.67507 0.84715 0.0
O46 O 0.8211 0.71 0.79973 0.0
Fe47 Fe 0.87798 0.69123 0.7599 0.0
O48 O 0.92212 0.74041 0.76525 0.0
O49 O 0.88407 0.78097 0.83054 0.0
O50 O 0.78967 0.76737 0.87672 0.0
C51 C 0.80629 0.7442 0.92725 0.0
C52 C 0.80047 0.74308 0.66294 0.0
O53 O 0.82016 0.70626 0.92261 0.0
C54 C 0.79068 0.62149 0.74633 0.0
O55 O 0.71227 0.75082 0.75741 0.0
O56 O 0.70747 0.70081 0.82685 0.0
O57 O 0.82276 0.70577 0.6758 0.0
O58 O 0.80328 0.76904 0.70979 0.0
C59 C 0.92317 0.65697 0.88768 0.0
O60 O 0.75495 0.64079 0.77492 0.0
O61 O 0.8452 0.63729 0.74687 0.0
C62 C 0.67925 0.72863 0.78493 0.0
O63 O 0.86508 0.64385 0.87774 0.0
O64 O 0.93605 0.67885 0.84312 0.0
C65 C 0.92819 0.77165 0.80422 0.0
Fe66 Fe 0.25111 0.67054 0.20779 0.0
Fe67 Fe 0.15581 0.6792 0.29201 0.0
O68 O 0.21327 0.70186 0.25696 0.0
Fe69 Fe 0.23252 0.75624 0.26814 0.0
O70 O 0.20277 0.76485 0.17778 0.0
O71 O 0.26042 0.7127 0.15599 0.0
O72 O 0.17279 0.66095 0.14566 0.0
C73 C 0.11972 0.65004 0.15457 0.0
C74 C 0.3559 0.71715 0.27701 0.0
O75 O 0.11486 0.64727 0.21403 0.0
C76 C 0.23488 0.73594 0.39603 0.0
O77 O 0.24805 0.62136 0.24871 0.0
O78 O 0.21166 0.63729 0.3328 0.0
O79 O 0.31776 0.74875 0.26721 0.0
O80 O 0.33299 0.68025 0.26603 0.0
C81 C 0.097 0.756 0.26242 0.0
O82 O 0.18696 0.71012 0.37316 0.0
O83 O 0.26383 0.7514 0.35784 0.0
C84 C 0.24104 0.6125 0.30436 0.0
O85 O 0.09298 0.71704 0.25587 0.0
O86 O 0.15173 0.77435 0.27369 0.0
C87 C 0.2256 0.74466 0.1375 0.0
Fe88 Fe 0.73853 0.88003 0.20747 0.0
Fe89 Fe 0.72507 0.7946 0.26896 0.0
O90 O 0.70726 0.84894 0.26045 0.0
Fe91 Fe 0.65563 0.87249 0.3027 0.0
O92 O 0.59448 0.88481 0.22071 0.0
O93 O 0.66591 0.91394 0.18002 0.0
O94 O 0.69929 0.84744 0.13546 0.0
C95 C 0.70865 0.80872 0.13207 0.0
C96 C 0.74871 0.93755 0.30648 0.0
O97 O 0.727 0.78679 0.184 0.0
C98 C 0.73393 0.82135 0.40076 0.0
O99 O 0.81638 0.8513 0.22373 0.0
O100 O 0.81357 0.80428 0.29839 0.0
O101 O 0.69371 0.92487 0.31007 0.0
O102 O 0.77986 0.91539 0.27613 0.0
C103 C 0.59758 0.79205 0.26999 0.0
O104 O 0.72756 0.79335 0.35597 0.0
O105 O 0.71348 0.85879 0.38563 0.0
C106 C 0.84529 0.82463 0.26705 0.0
O107 O 0.63783 0.77976 0.24025 0.0
O108 O 0.60787 0.82563 0.30421 0.0
C109 C 0.60728 0.90344 0.17287 0.0
Fe110 Fe 0.2926 0.79486 0.7889 0.0
Fe111 Fe 0.37344 0.87126 0.77288 0.0
O112 O 0.31259 0.84904 0.80295 0.0
Fe113 Fe 0.27172 0.87996 0.84918 0.0
O114 O 0.26312 0.83726 0.90111 0.0
O115 O 0.32156 0.78519 0.8789 0.0
O116 O 0.37331 0.77677 0.78245 0.0
C117 C 0.42916 0.79414 0.80031 0.0
C118 C 0.16873 0.83283 0.78099 0.0
O119 O 0.43373 0.83257 0.81327 0.0
C120 C 0.28828 0.93853 0.75539 0.0
O121 O 0.26223 0.802 0.69947 0.0
O122 O 0.34522 0.84045 0.69102 0.0
O123 O 0.19184 0.86953 0.78769 0.0
O124 O 0.20751 0.80162 0.79069 0.0
C125 C 0.4019 0.90196 0.90928 0.0
O126 O 0.32017 0.91365 0.72974 0.0
O127 O 0.27508 0.929 0.80789 0.0
C128 C 0.29554 0.81636 0.66441 0.0
O129 O 0.41118 0.9033 0.85157 0.0
O130 O 0.34719 0.89104 0.91404 0.0
C131 C 0.29785 0.80496 0.91913 0.0
Fe132 Fe 0.31975 0.25948 0.79059 0.0
Fe133 Fe 0.30474 0.17259 0.84809 0.0
O134 O 0.33644 0.20489 0.79682 0.0
Fe135 Fe 0.38832 0.18221 0.75399 0.0
O136 O 0.43467 0.22889 0.75301 0.0
O137 O 0.40787 0.27333 0.82061 0.0
O138 O 0.31776 0.26624 0.87561 0.0
C139 C 0.33319 0.24348 0.92662 0.0
C140 C 0.30936 0.23427 0.65746 0.0
O141 O 0.34141 0.20462 0.92202 0.0
C142 C 0.29651 0.11697 0.74597 0.0
O143 O 0.23068 0.25053 0.76138 0.0
O144 O 0.22733 0.2005 0.83176 0.0
O145 O 0.33015 0.19665 0.67113 0.0
O146 O 0.31729 0.26181 0.70335 0.0
C147 C 0.43598 0.15095 0.88407 0.0
O148 O 0.26485 0.13777 0.77759 0.0
O149 O 0.35203 0.12986 0.74532 0.0
C150 C 0.19932 0.22885 0.79171 0.0
O151 O 0.37763 0.13929 0.87523 0.0
O152 O 0.44946 0.16967 0.83657 0.0
C153 C 0.44935 0.25909 0.79379 0.0
Fe154 Fe 0.73652 0.26125 0.25829 0.0
Fe155 Fe 0.75261 0.17238 0.20112 0.0
O156 O 0.7195 0.20654 0.25131 0.0
Fe157 Fe 0.66557 0.18512 0.29214 0.0
O158 O 0.61904 0.23186 0.29442 0.0
O159 O 0.6488 0.27651 0.23161 0.0
O160 O 0.73583 0.26673 0.17233 0.0
C161 C 0.72426 0.24258 0.12181 0.0
C162 C 0.74482 0.23756 0.39139 0.0
O163 O 0.71959 0.20349 0.12653 0.0
C164 C 0.75588 0.11788 0.30047 0.0
O165 O 0.82564 0.25285 0.28524 0.0
O166 O 0.83106 0.19883 0.21995 0.0
O167 O 0.72221 0.20019 0.37643 0.0
O168 O 0.74153 0.26421 0.34636 0.0
C169 C 0.62058 0.15289 0.16093 0.0
O170 O 0.78974 0.13786 0.27146 0.0
O171 O 0.70069 0.13224 0.30046 0.0
C172 C 0.85799 0.22852 0.25874 0.0
O173 O 0.67878 0.14009 0.17185 0.0
O174 O 0.60582 0.17247 0.20804 0.0
C175 C 0.60933 0.26514 0.26223 0.0
C176 C 0.50769 0.30827 0.21086 0.0
C177 C 0.55293 0.29071 0.26769 0.0
C178 C 0.44586 0.32236 0.21319 0.0
C179 C 0.42693 0.31886 0.27214 0.0
H180 H 0.51826 0.30862 0.16341 0.0
H181 H 0.41122 0.33387 0.16723 0.0
S182 S 0.5321 0.28153 0.43726 0.0
N183 N 0.57812 0.27595 0.38712 0.0
N184 N 0.46138 0.30101 0.39016 0.0
C185 C 0.47334 0.30388 0.33019 0.0
C186 C 0.53649 0.29032 0.32829 0.0
C187 C 0.57961 0.3378 0.78729 0.0
C188 C 0.63064 0.31093 0.78207 0.0
C189 C 0.52159 0.32165 0.79614 0.0
C190 C 0.51406 0.27829 0.80184 0.0
H191 H 0.58419 0.37138 0.78338 0.0
H192 H 0.48172 0.34288 0.79573 0.0
S193 S 0.63787 0.19569 0.80324 0.0
N194 N 0.67235 0.23956 0.79065 0.0
N195 N 0.56535 0.20949 0.80919 0.0
C196 C 0.56667 0.25166 0.80103 0.0
C197 C 0.62437 0.26784 0.7905 0.0
C198 C 0.51384 0.73593 0.82034 0.0
C199 C 0.48732 0.77344 0.78886 0.0
C200 C 0.57438 0.72025 0.81596 0.0
C201 C 0.60999 0.74119 0.77907 0.0
H202 H 0.48945 0.71978 0.85113 0.0
H203 H 0.59455 0.69239 0.84389 0.0
S204 S 0.55606 0.83826 0.68095 0.0
N205 N 0.49798 0.82936 0.71567 0.0
N206 N 0.60947 0.7997 0.70549 0.0
C207 C 0.58115 0.77732 0.74394 0.0
C208 C 0.52055 0.79348 0.74943 0.0
C209 C 0.46271 0.75092 0.33452 0.0
C210 C 0.42494 0.72555 0.28147 0.0
C211 C 0.52038 0.7701 0.33138 0.0
C212 C 0.54221 0.76538 0.27439 0.0
H213 H 0.44567 0.75781 0.3773 0.0
H214 H 0.54664 0.7903 0.37311 0.0
S215 S 0.46103 0.70118 0.1223 0.0
N216 N 0.41385 0.69534 0.17103 0.0
N217 N 0.52248 0.73177 0.16481 0.0
C218 C 0.50662 0.73832 0.22228 0.0
C219 C 0.44779 0.71845 0.2258 0.0
C220 C 1.00225 0.75984 0.30741 0.0
C221 C 0.03797 0.77821 0.26871 0.0
C222 C 0.94206 0.77644 0.30953 0.0
C223 C 0.91419 0.81195 0.2722 0.0
H224 H 1.02044 0.73166 0.33546 0.0
H225 H 0.9161 0.76018 0.33875 0.0
S226 S 0.99042 0.87318 0.16553 0.0
N227 N 0.0435 0.83495 0.1951 0.0
N228 N 0.92977 0.86639 0.19777 0.0
C229 C 0.95096 0.8317 0.23525 0.0
C230 C 1.01294 0.81483 0.23385 0.0
C231 C 0.04492 0.78845 0.85652 0.0
C232 C 0.98444 0.79912 0.81008 0.0
C233 C 0.10392 0.80179 0.84805 0.0
C234 C 0.10483 0.82589 0.79249 0.0
H235 H 0.04704 0.76684 0.89649 0.0
H236 H 0.14936 0.79134 0.88364 0.0
S237 S 0.95909 0.86473 0.65935 0.0
N238 N 0.9281 0.83723 0.70872 0.0
N239 N 0.03996 0.86284 0.69336 0.0
C240 C 0.04468 0.83929 0.74818 0.0
C241 C 0.9842 0.82557 0.75674 0.0
C242 C 0.02726 0.27412 0.7308 0.0
C243 C 1.00435 0.27029 0.7871 0.0
C244 C 0.08952 0.25976 0.73185 0.0
C245 C 0.13112 0.24024 0.78881 0.0
H246 H 0.99772 0.28999 0.68607 0.0
H247 H 0.10562 0.26475 0.68824 0.0
S248 S 0.0933 0.22023 0.94808 0.0
N249 N 0.02699 0.24416 0.90016 0.0
N250 N 0.14381 0.21589 0.90238 0.0
C251 C 0.10747 0.23406 0.8443 0.0
C252 C 0.04403 0.24923 0.84331 0.0
C253 C 0.04284 0.23111 0.29055 0.0
C254 C 0.04868 0.26033 0.24291 0.0
C255 C 0.98087 0.22086 0.29648 0.0
C256 C 0.92356 0.24092 0.25685 0.0
H257 H 0.08664 0.21795 0.32583 0.0
H258 H 0.97793 0.19812 0.33337 0.0
S259 S 0.91273 0.31815 0.12365 0.0
N260 N 0.99191 0.30724 0.15366 0.0
N261 N 0.87614 0.28937 0.16644 0.0
C262 C 0.92879 0.26909 0.20797 0.0
C263 C 0.99121 0.27849 0.20067 0.0
C264 C 0.04446 0.39758 0.97292 0.0
C265 C 0.97702 0.40619 0.95938 0.0
C266 C 0.08758 0.39613 0.03942 0.0
C267 C 0.06532 0.40142 0.09621 0.0
H268 H 0.06428 0.39163 0.93179 0.0
H269 H 0.1389 0.38982 0.04599 0.0
S270 S 0.89488 0.42889 0.08989 0.0
N271 N 0.89128 0.42398 1.01005 0.0
N272 N 0.97197 0.4189 0.13397 0.0
C273 C 0.99849 0.41099 0.08373 0.0
C274 C 0.95466 0.41391 1.01589 0.0
C275 C 0.03581 0.61355 0.05557 0.0
C276 C 0.0609 0.65034 0.09284 0.0
C277 C 0.99082 0.61545 0.98937 0.0
C278 C 0.97154 0.65415 0.95705 0.0
H279 H 0.05254 0.58321 0.07678 0.0
H280 H 0.97258 0.58647 0.9626 0.0
S281 S 1.01984 0.75928 0.03448 0.0
N282 N 0.05981 0.72636 0.09329 0.0
N283 N 0.97773 0.72984 0.96998 0.0
C284 C 0.99531 0.69088 0.99458 0.0
C285 C 0.03943 0.68897 0.0619 0.0
C286 C 0.48854 0.90696 0.09948 0.0
C287 C 0.5557 0.90964 0.1057 0.0
C288 C 0.4399 0.90758 0.03614 0.0
C289 C 0.45553 0.90981 0.97502 0.0
H290 H 0.47324 0.90343 0.14391 0.0
H291 H 0.38924 0.90462 0.03539 0.0
S292 S 0.62432 0.91933 0.96285 0.0
N293 N 0.63535 0.9173 0.0445 0.0
N294 N 0.54403 0.91657 0.92603 0.0
C295 C 0.52243 0.91403 0.98051 0.0
C296 C 0.57223 0.91431 0.0454 0.0
C297 C 0.50517 0.15234 0.0772 0.0
C298 C 0.57349 0.14827 0.09041 0.0
C299 C 0.46161 0.15098 1.01077 0.0
C300 C 0.48418 0.14772 0.9538 0.0
H301 H 0.48502 0.1566 0.11847 0.0
H302 H 0.40958 0.1536 1.00436 0.0
S303 S 0.65774 0.13258 0.95972 0.0
N304 N 0.66093 0.13643 0.0395 0.0
N305 N 0.57934 0.13762 0.91587 0.0
C306 C 0.55207 0.14285 0.96615 0.0
C307 C 0.59641 0.14223 0.03385 0.0
C308 C 0.20908 0.54633 0.3483 0.0
C309 C 0.25515 0.56878 0.327 0.0
C310 C 0.20984 0.50231 0.34837 0.0
C311 C 0.25671 0.47922 0.32718 0.0
H312 H 0.16872 0.56256 0.35909 0.0
H313 H 0.17027 0.48641 0.36024 0.0
S314 S 0.39772 0.5243 0.28333 0.0
N315 N 0.35578 0.56546 0.29632 0.0
N316 N 0.35795 0.48293 0.29712 0.0
C317 C 0.30776 0.50166 0.3139 0.0
C318 C 0.30668 0.5464 0.3135 0.0
C319 C 0.82362 0.55306 0.70555 0.0
C320 C 0.77902 0.57584 0.73012 0.0
C321 C 0.82519 0.50913 0.70603 0.0
C322 C 0.78237 0.48583 0.73126 0.0
H323 H 0.86054 0.56923 0.68961 0.0
H324 H 0.86322 0.4935 0.69023 0.0
S325 S 0.6466 0.52984 0.78773 0.0
N326 N 0.68347 0.57135 0.76992 0.0
N327 N 0.68684 0.48885 0.77117 0.0
C328 C 0.73292 0.50797 0.74928 0.0
C329 C 0.73116 0.5529 0.74862 0.0
C330 C 0.72894 1.00787 0.35178 0.0
C331 C 0.76585 0.98285 0.32047 0.0
C332 C 0.73097 0.05175 0.35045 0.0
C333 C 0.76985 0.07278 0.31757 0.0
H334 H 0.6949 0.99354 0.37398 0.0
H335 H 0.69837 0.06924 0.37175 0.0
S336 S 0.88634 1.02222 0.23998 0.0
N337 N 0.85078 0.98265 0.26502 0.0
N338 N 0.8541 0.0651 0.26216 0.0
C339 C 0.81233 0.04833 0.29234 0.0
C340 C 0.81043 1.00342 0.29385 0.0
C341 C 0.23428 1.00787 0.75782 0.0
C342 C 0.2764 0.98268 0.73302 0.0
C343 C 0.23587 0.05169 0.75555 0.0
C344 C 0.27981 0.07214 0.72848 0.0
H345 H 0.20307 0.99378 0.7837 0.0
H346 H 0.20629 0.06946 0.78018 0.0
S347 S 0.3878 1.02062 0.64118 0.0
N348 N 0.35405 0.98135 0.66906 0.0
N349 N 0.35668 0.06373 0.66404 0.0
C350 C 0.31598 0.04728 0.69581 0.0
C351 C 0.31435 1.00254 0.6982 0.0
C352 C 0.31795 0.24165 0.54088 0.0
C353 C 0.28515 0.25091 0.58795 0.0
C354 C 0.30428 0.26428 0.48086 0.0
C355 C 0.25726 0.29718 0.46513 0.0
H356 H 0.35606 0.21787 0.55147 0.0
H357 H 0.33081 0.2557 0.44599 0.0
S358 S 0.1553 0.33214 0.57051 0.0
N359 N 0.20196 0.29447 0.61415 0.0
N360 N 0.17625 0.33635 0.50114 0.0
C361 C 0.22374 0.30645 0.51154 0.0
C362 C 0.2375 0.28339 0.57266 0.0
C363 C 0.74252 0.27442 0.56478 0.0
C364 C 0.79247 0.30541 0.58288 0.0
C365 C 0.72995 0.25006 0.50524 0.0
C366 C 0.76723 0.25536 0.46128 0.0
H367 H 0.71324 0.26853 0.59776 0.0
H368 H 0.68952 0.22798 0.49261 0.0
S369 S 0.90652 0.32988 0.48676 0.0
N370 N 0.88119 0.33824 0.55297 0.0
N371 N 0.85787 0.29314 0.44112 0.0
C372 C 0.81785 0.28589 0.47919 0.0
C373 C 0.8303 0.31077 0.53963 0.0
C374 C 0.79663 0.76957 0.48501 0.0
C375 C 0.7556 0.80551 0.47055 0.0
C376 C 0.80879 0.74794 0.5457 0.0
C377 C 0.78039 0.7614 0.59453 0.0
H378 H 0.81889 0.75755 0.44833 0.0
H379 H 0.84163 0.72117 0.55488 0.0
S380 S 0.66828 0.85318 0.58112 0.0
N381 N 0.68634 0.85307 0.50989 0.0
N382 N 0.7084 0.81301 0.62386 0.0
C383 C 0.73931 0.79744 0.58066 0.0
C384 C 0.7274 0.81947 0.51902 0.0
C385 C 0.22138 0.77564 0.56532 0.0
C386 C 0.28068 0.79816 0.59435 0.0
C387 C 0.20789 0.75418 0.50299 0.0
C388 C 0.25301 0.75404 0.46631 0.0
H389 H 0.1846 0.77439 0.59111 0.0
H390 H 0.16103 0.73837 0.4828 0.0
S391 S 0.41689 0.80644 0.52016 0.0
N392 N 0.38538 0.81789 0.58114 0.0
N393 N 0.36102 0.77761 0.46514 0.0
C394 C 0.31286 0.7761 0.49497 0.0
C395 C 0.32633 0.79815 0.5583 0.0
C396 C 0.25647 0.25011 0.06415 0.0
C397 C 0.25341 0.2936 0.07437 0.0
C398 C 0.28835 0.23364 1.02058 0.0
C399 C 0.31776 0.26021 0.98533 0.0
H400 H 0.23451 0.22858 0.0906 0.0
H401 H 0.28698 0.20001 1.0121 0.0
S402 S 0.32917 0.3761 0.99938 0.0
N403 N 0.28644 0.36287 0.04955 0.0
N404 N 0.34623 0.33168 0.96669 0.0
C405 C 0.31692 0.30369 0.99663 0.0
C406 C 0.28419 0.32051 0.04086 0.0
C407 C 0.76988 0.23464 1.02703 0.0
C408 C 0.73627 0.25951 0.06189 0.0
C409 C 0.79872 0.25262 0.98261 0.0
C410 C 0.79499 0.29604 0.97154 0.0
H411 H 0.77718 0.20142 0.03675 0.0
H412 H 0.82462 0.23239 0.95708 0.0
S413 S 0.70493 0.37383 0.04401 0.0
N414 N 0.69559 0.32894 0.07811 0.0
N415 N 0.74941 0.36286 0.99389 0.0
C416 C 0.75881 0.32097 1.00366 0.0
C417 C 0.72925 0.30261 0.04872 0.0
C418 C 0.7894 0.80179 0.99863 0.0
C419 C 0.78716 0.75861 0.98457 0.0
C420 C 0.75818 0.81849 0.04238 0.0
C421 C 0.72442 0.79235 0.0739 0.0
H422 H 0.81448 0.8229 0.97459 0.0
H423 H 0.76313 0.85181 0.05373 0.0
S424 S 0.70098 0.67759 0.05104 0.0
N425 N 0.74601 0.69015 1.00274 0.0
N426 N 0.6882 0.72189 0.08704 0.0
C427 C 0.72107 0.74921 0.0598 0.0
C428 C 0.75278 0.73214 1.01502 0.0
C429 C 0.26976 0.80006 0.08476 0.0
C430 C 0.2327 0.76333 0.07767 0.0
C431 C 0.29762 0.81102 0.03529 0.0
C432 C 0.28969 0.78535 0.97795 0.0
H433 H 0.27964 0.81936 0.12995 0.0
H434 H 0.32381 0.84049 0.04069 0.0
S435 S 0.19513 0.68655 0.93604 0.0
N436 N 0.18828 0.70158 1.00957 0.0
N437 N 0.24109 0.72238 0.91607 0.0
C438 C 0.25319 0.7484 0.97069 0.0
C439 C 0.22394 0.7376 1.02043 0.0
loop_
_geom_bond_atom_site_label_1
_geom_bond_atom_site_label_2
_geom_bond_distance
_geom_bond_site_symmetry_2
_ccdc_geom_bond_type
Fe0 O2 1.918 . S
Fe0 O5 1.997 . S
Fe0 O6 2.002 . S
Fe0 O11 1.976 . S
Fe0 O14 1.996 . S
Fe1 O2 1.918 . S
Fe1 O9 1.997 . S
Fe1 O12 1.996 . S
Fe1 O16 1.976 . S
Fe1 O19 2.002 . S
O2 Fe0 1.918 . S
O2 Fe1 1.918 . S
O2 Fe3 1.918 . S
Fe3 O2 1.918 . S
Fe3 O4 2.002 . S
Fe3 O13 1.976 . S
Fe3 O17 1.996 . S
Fe3 O20 1.997 . S
O4 Fe3 2.002 . S
O4 C21 1.295 . S
O5 Fe0 1.997 . S
O5 C21 1.235 . S
O6 Fe0 2.002 . S
O6 C7 1.295 . S
C7 O6 1.295 . S
C7 O9 1.235 . S
C8 O13 1.287 . S
C8 O14 1.255 . S
O9 Fe1 1.997 . S
O9 C7 1.235 . S
C10 O16 1.287 . S
C10 O17 1.255 . S
O11 Fe0 1.976 . S
O11 C18 1.287 . S
O12 Fe1 1.996 . S
O12 C18 1.255 . S
O13 Fe3 1.976 . S
O13 C8 1.287 . S
O14 Fe0 1.996 . S
O14 C8 1.255 . S
C15 O19 1.295 . S
C15 O20 1.235 . S
O16 Fe1 1.976 . S
O16 C10 1.287 . S
O17 Fe3 1.996 . S
O17 C10 1.255 . S
C18 O11 1.287 . S
C18 O12 1.255 . S
O19 Fe1 2.002 . S
O19 C15 1.295 . S
O20 Fe3 1.997 . S
O20 C15 1.235 . S
C21 O4 1.295 . S
C21 O5 1.235 . S
Fe22 O24 1.918 . S
Fe22 O27 1.997 . S
Fe22 O28 2.002 . S
Fe22 O33 1.976 . S
Fe22 O36 1.996 . S
Fe23 O24 1.918 . S
Fe23 O31 1.997 . S
Fe23 O34 1.996 . S
Fe23 O38 1.976 . S
Fe23 O41 2.002 . S
O24 Fe22 1.918 . S
O24 Fe23 1.918 . S
O24 Fe25 1.918 . S
Fe25 O24 1.918 . S
Fe25 O26 2.002 . S
Fe25 O35 1.976 . S
Fe25 O39 1.996 . S
Fe25 O42 1.997 . S
O26 Fe25 2.002 . S
O26 C43 1.295 . S
O27 Fe22 1.997 . S
O27 C43 1.235 . S
O28 Fe22 2.002 . S
O28 C29 1.295 . S
C29 O28 1.295 . S
C29 O31 1.235 . S
C30 O35 1.287 . S
C30 O36 1.255 . S
O31 Fe23 1.997 . S
O31 C29 1.235 . S
C32 O38 1.287 . S
C32 O39 1.255 . S
O33 Fe22 1.976 . S
O33 C40 1.287 . S
O34 Fe23 1.996 . S
O34 C40 1.255 . S
O35 Fe25 1.976 . S
O35 C30 1.287 . S
O36 Fe22 1.996 . S
O36 C30 1.255 . S
C37 O41 1.295 . S
C37 O42 1.235 . S
O38 Fe23 1.976 . S
O38 C32 1.287 . S
O39 Fe25 1.996 . S
O39 C32 1.255 . S
C40 O33 1.287 . S
C40 O34 1.255 . S
O41 Fe23 2.002 . S
O41 C37 1.295 . S
O42 Fe25 1.997 . S
O42 C37 1.235 . S
C43 O26 1.295 . S
C43 O27 1.235 . S
Fe44 O46 1.918 . S
Fe44 O49 1.997 . S
Fe44 O50 2.002 . S
Fe44 O55 1.976 . S
Fe44 O58 1.996 . S
Fe45 O46 1.918 . S
Fe45 O53 1.997 . S
Fe45 O56 1.996 . S
Fe45 O60 1.976 . S
Fe45 O63 2.002 . S
O46 Fe44 1.918 . S
O46 Fe45 1.918 . S
O46 Fe47 1.918 . S
Fe47 O46 1.918 . S
Fe47 O48 2.002 . S
Fe47 O57 1.976 . S
Fe47 O61 1.996 . S
Fe47 O64 1.997 . S
O48 Fe47 2.002 . S
O48 C65 1.295 . S
O49 Fe44 1.997 . S
O49 C65 1.235 . S
O50 Fe44 2.002 . S
O50 C51 1.295 . S
C51 O50 1.295 . S
C51 O53 1.235 . S
C52 O57 1.287 . S
C52 O58 1.255 . S
O53 Fe45 1.997 . S
O53 C51 1.235 . S
C54 O60 1.287 . S
C54 O61 1.255 . S
O55 Fe44 1.976 . S
O55 C62 1.287 . S
O56 Fe45 1.996 . S
O56 C62 1.255 . S
O57 Fe47 1.976 . S
O57 C52 1.287 . S
O58 Fe44 1.996 . S
O58 C52 1.255 . S
C59 O63 1.295 . S
C59 O64 1.235 . S
O60 Fe45 1.976 . S
O60 C54 1.287 . S
O61 Fe47 1.996 . S
O61 C54 1.255 . S
C62 O55 1.287 . S
C62 O56 1.255 . S
O63 Fe45 2.002 . S
O63 C59 1.295 . S
O64 Fe47 1.997 . S
O64 C59 1.235 . S
C65 O48 1.295 . S
C65 O49 1.235 . S
Fe66 O68 1.918 . S
Fe66 O71 1.997 . S
Fe66 O72 2.002 . S
Fe66 O77 1.976 . S
Fe66 O80 1.996 . S
Fe67 O68 1.918 . S
Fe67 O75 1.997 . S
Fe67 O78 1.996 . S
Fe67 O82 1.976 . S
Fe67 O85 2.002 . S
O68 Fe66 1.918 . S
O68 Fe67 1.918 . S
O68 Fe69 1.918 . S
Fe69 O68 1.918 . S
Fe69 O70 2.002 . S
Fe69 O79 1.976 . S
Fe69 O83 1.996 . S
Fe69 O86 1.997 . S
O70 Fe69 2.002 . S
O70 C87 1.295 . S
O71 Fe66 1.997 . S
O71 C87 1.235 . S
O72 Fe66 2.002 . S
O72 C73 1.295 . S
C73 O72 1.295 . S
C73 O75 1.235 . S
C74 O79 1.287 . S
C74 O80 1.255 . S
O75 Fe67 1.997 . S
O75 C73 1.235 . S
C76 O82 1.287 . S
C76 O83 1.255 . S
O77 Fe66 1.976 . S
O77 C84 1.287 . S
O78 Fe67 1.996 . S
O78 C84 1.255 . S
O79 Fe69 1.976 . S
O79 C74 1.287 . S
O80 Fe66 1.996 . S
O80 C74 1.255 . S
C81 O85 1.295 . S
C81 O86 1.235 . S
O82 Fe67 1.976 . S
O82 C76 1.287 . S
O83 Fe69 1.996 . S
O83 C76 1.255 . S
C84 O77 1.287 . S
C84 O78 1.255 . S
O85 Fe67 2.002 . S
O85 C81 1.295 . S
O86 Fe69 1.997 . S
O86 C81 1.235 . S
C87 O70 1.295 . S
C87 O71 1.235 . S
Fe88 O90 1.918 . S
Fe88 O93 1.997 . S
Fe88 O94 2.002 . S
Fe88 O99 1.976 . S
Fe88 O102 1.996 . S
Fe89 O90 1.918 . S
Fe89 O97 1.997 . S
Fe89 O100 1.996 . S
Fe89 O104 1.976 . S
Fe89 O107 2.002 . S
O90 Fe88 1.918 . S
O90 Fe89 1.918 . S
O90 Fe91 1.918 . S
Fe91 O90 1.918 . S
Fe91 O92 2.002 . S
Fe91 O101 1.976 . S
Fe91 O105 1.996 . S
Fe91 O108 1.997 . S
O92 Fe91 2.002 . S
O92 C109 1.295 . S
O93 Fe88 1.997 . S
O93 C109 1.235 . S
O94 Fe88 2.002 . S
O94 C95 1.295 . S
C95 O94 1.295 . S
C95 O97 1.235 . S
C96 O101 1.287 . S
C96 O102 1.255 . S
O97 Fe89 1.997 . S
O97 C95 1.235 . S
C98 O104 1.287 . S
C98 O105 1.255 . S
O99 Fe88 1.976 . S
O99 C106 1.287 . S
O100 Fe89 1.996 . S
O100 C106 1.255 . S
O101 Fe91 1.976 . S
O101 C96 1.287 . S
O102 Fe88 1.996 . S
O102 C96 1.255 . S
C103 O107 1.295 . S
C103 O108 1.235 . S
O104 Fe89 1.976 . S
O104 C98 1.287 . S
O105 Fe91 1.996 . S
O105 C98 1.255 . S
C106 O99 1.287 . S
C106 O100 1.255 . S
O107 Fe89 2.002 . S
O107 C103 1.295 . S
O108 Fe91 1.997 . S
O108 C103 1.235 . S
C109 O92 1.295 . S
C109 O93 1.235 . S
Fe110 O112 1.918 . S
Fe110 O115 1.997 . S
Fe110 O116 2.002 . S
Fe110 O121 1.976 . S
Fe110 O124 1.996 . S
Fe111 O112 1.918 . S
Fe111 O119 1.997 . S
Fe111 O122 1.996 . S
Fe111 O126 1.976 . S
Fe111 O129 2.002 . S
O112 Fe110 1.918 . S
O112 Fe111 1.918 . S
O112 Fe113 1.918 . S
Fe113 O112 1.918 . S
Fe113 O114 2.002 . S
Fe113 O123 1.976 . S
Fe113 O127 1.996 . S
Fe113 O130 1.997 . S
O114 Fe113 2.002 . S
O114 C131 1.295 . S
O115 Fe110 1.997 . S
O115 C131 1.235 . S
O116 Fe110 2.002 . S
O116 C117 1.295 . S
C117 O116 1.295 . S
C117 O119 1.235 . S
C118 O123 1.287 . S
C118 O124 1.255 . S
O119 Fe111 1.997 . S
O119 C117 1.235 . S
C120 O126 1.287 . S
C120 O127 1.255 . S
O121 Fe110 1.976 . S
O121 C128 1.287 . S
O122 Fe111 1.996 . S
O122 C128 1.255 . S
O123 Fe113 1.976 . S
O123 C118 1.287 . S
O124 Fe110 1.996 . S
O124 C118 1.255 . S
C125 O129 1.295 . S
C125 O130 1.235 . S
O126 Fe111 1.976 . S
O126 C120 1.287 . S
O127 Fe113 1.996 . S
O127 C120 1.255 . S
C128 O121 1.287 . S
C128 O122 1.255 . S
O129 Fe111 2.002 . S
O129 C125 1.295 . S
O130 Fe113 1.997 . S
O130 C125 1.235 . S
C131 O114 1.295 . S
C131 O115 1.235 . S
Fe132 O134 1.918 . S
Fe132 O137 1.997 . S
Fe132 O138 2.002 . S
Fe132 O143 1.976 . S
Fe132 O146 1.996 . S
Fe133 O134 1.918 . S
Fe133 O141 1.997 . S
Fe133 O144 1.996 . S
Fe133 O148 1.976 . S
Fe133 O151 2.002 . S
O134 Fe132 1.918 . S
O134 Fe133 1.918 . S
O134 Fe135 1.918 . S
Fe135 O134 1.918 . S
Fe135 O136 2.002 . S
Fe135 O145 1.976 . S
Fe135 O149 1.996 . S
Fe135 O152 1.997 . S
O136 Fe135 2.002 . S
O136 C153 1.295 . S
O137 Fe132 1.997 . S
O137 C153 1.235 . S
O138 Fe132 2.002 . S
O138 C139 1.295 . S
C139 O138 1.295 . S
C139 O141 1.235 . S
C140 O145 1.287 . S
C140 O146 1.255 . S
O141 Fe133 1.997 . S
O141 C139 1.235 . S
C142 O148 1.287 . S
C142 O149 1.255 . S
O143 Fe132 1.976 . S
O143 C150 1.287 . S
O144 Fe133 1.996 . S
O144 C150 1.255 . S
O145 Fe135 1.976 . S
O145 C140 1.287 . S
O146 Fe132 1.996 . S
O146 C140 1.255 . S
C147 O151 1.295 . S
C147 O152 1.235 . S
O148 Fe133 1.976 . S
O148 C142 1.287 . S
O149 Fe135 1.996 . S
O149 C142 1.255 . S
C150 O143 1.287 . S
C150 O144 1.255 . S
O151 Fe133 2.002 . S
O151 C147 1.295 . S
O152 Fe135 1.997 . S
O152 C147 1.235 . S
C153 O136 1.295 . S
C153 O137 1.235 . S
Fe154 O156 1.918 . S
Fe154 O159 1.997 . S
Fe154 O160 2.002 . S
Fe154 O165 1.976 . S
Fe154 O168 1.996 . S
Fe155 O156 1.918 . S
Fe155 O163 1.997 . S
Fe155 O166 1.996 . S
Fe155 O170 1.976 . S
Fe155 O173 2.002 . S
O156 Fe154 1.918 . S
O156 Fe155 1.918 . S
O156 Fe157 1.918 . S
Fe157 O156 1.918 . S
Fe157 O158 2.002 . S
Fe157 O167 1.976 . S
Fe157 O171 1.996 . S
Fe157 O174 1.997 . S
O158 Fe157 2.002 . S
O158 C175 1.295 . S
O159 Fe154 1.997 . S
O159 C175 1.235 . S
O160 Fe154 2.002 . S
O160 C161 1.295 . S
C161 O160 1.295 . S
C161 O163 1.235 . S
C162 O167 1.287 . S
C162 O168 1.255 . S
O163 Fe155 1.997 . S
O163 C161 1.235 . S
C164 O170 1.287 . S
C164 O171 1.255 . S
O165 Fe154 1.976 . S
O165 C172 1.287 . S
O166 Fe155 1.996 . S
O166 C172 1.255 . S
O167 Fe157 1.976 . S
O167 C162 1.287 . S
O168 Fe154 1.996 . S
O168 C162 1.255 . S
C169 O173 1.295 . S
C169 O174 1.235 . S
O170 Fe155 1.976 . S
O170 C164 1.287 . S
O171 Fe157 1.996 . S
O171 C164 1.255 . S
C172 O165 1.287 . S
C172 O166 1.255 . S
O173 Fe155 2.002 . S
O173 C169 1.295 . S
O174 Fe157 1.997 . S
O174 C169 1.235 . S
C175 O158 1.295 . S
C175 O159 1.235 . S
C176 C177 1.369 . S
C176 C178 1.419 . S
C176 H180 0.930 . S
C177 C176 1.369 . S
C177 C186 1.429 . S
C178 C176 1.419 . S
C178 C179 1.363 . S
C178 H181 0.929 . S
C179 C178 1.363 . S
C179 C185 1.428 . S
H180 C176 0.930 . S
H181 C178 0.929 . S
S182 N183 1.613 . S
S182 N184 1.610 . S
N183 S182 1.613 . S
N183 C186 1.350 . S
N184 S182 1.610 . S
N184 C185 1.351 . S
C185 C179 1.428 . S
C185 N184 1.351 . S
C185 C186 1.434 . S
C186 C177 1.429 . S
C186 N183 1.350 . S
C186 C185 1.434 . S
C187 C188 1.369 . S
C187 C189 1.419 . S
C187 H191 0.930 . S
C188 C187 1.369 . S
C188 C197 1.429 . S
C189 C187 1.419 . S
C189 C190 1.363 . S
C189 H192 0.929 . S
C190 C189 1.363 . S
C190 C196 1.428 . S
H191 C187 0.930 . S
H192 C189 0.929 . S
S193 N194 1.613 . S
S193 N195 1.610 . S
N194 S193 1.613 . S
N194 C197 1.350 . S
N195 S193 1.610 . S
N195 C196 1.351 . S
C196 C190 1.428 . S
C196 N195 1.351 . S
C196 C197 1.434 . S
C197 C188 1.429 . S
C197 N194 1.350 . S
C197 C196 1.434 . S
C198 C199 1.369 . S
C198 C200 1.419 . S
C198 H202 0.930 . S
C199 C198 1.369 . S
C199 C208 1.429 . S
C200 C198 1.419 . S
C200 C201 1.363 . S
C200 H203 0.929 . S
C201 C200 1.363 . S
C201 C207 1.428 . S
H202 C198 0.930 . S
H203 C200 0.929 . S
S204 N205 1.613 . S
S204 N206 1.610 . S
N205 S204 1.613 . S
N205 C208 1.350 . S
N206 S204 1.610 . S
N206 C207 1.351 . S
C207 C201 1.428 . S
C207 N206 1.351 . S
C207 C208 1.434 . S
C208 C199 1.429 . S
C208 N205 1.350 . S
C208 C207 1.434 . S
C209 C210 1.369 . S
C209 C211 1.419 . S
C209 H213 0.930 . S
C210 C209 1.369 . S
C210 C219 1.429 . S
C211 C209 1.419 . S
C211 C212 1.363 . S
C211 H214 0.929 . S
C212 C211 1.363 . S
C212 C218 1.428 . S
H213 C209 0.930 . S
H214 C211 0.929 . S
S215 N216 1.613 . S
S215 N217 1.610 . S
N216 S215 1.613 . S
N216 C219 1.350 . S
N217 S215 1.610 . S
N217 C218 1.351 . S
C218 C212 1.428 . S
C218 N217 1.351 . S
C218 C219 1.434 . S
C219 C210 1.429 . S
C219 N216 1.350 . S
C219 C218 1.434 . S
C220 C221 1.369 . S
C220 C222 1.419 1_455 S
C220 H224 0.930 . S
C221 C220 1.369 . S
C221 C230 1.429 . S
C222 C220 1.419 1_655 S
C222 C223 1.363 . S
C222 H225 0.929 . S
C223 C222 1.363 . S
C223 C229 1.428 . S
H224 C220 0.930 . S
H225 C222 0.929 . S
S226 N227 1.613 1_655 S
S226 N228 1.610 . S
N227 S226 1.613 1_455 S
N227 C230 1.350 . S
N228 S226 1.610 . S
N228 C229 1.351 . S
C229 C223 1.428 . S
C229 N228 1.351 . S
C229 C230 1.434 1_655 S
C230 C221 1.429 . S
C230 N227 1.350 . S
C230 C229 1.434 1_455 S
C231 C232 1.369 1_455 S
C231 C233 1.418 . S
C231 H235 0.930 1_455 S
C232 C231 1.369 1_655 S
C232 C241 1.429 . S
C233 C231 1.418 . S
C233 C234 1.363 . S
C233 H236 0.929 . S
C234 C233 1.363 . S
C234 C240 1.428 . S
H235 C231 0.930 1_655 S
H236 C233 0.929 . S
S237 N238 1.613 . S
S237 N239 1.610 1_655 S
N238 S237 1.613 . S
N238 C241 1.350 . S
N239 S237 1.610 1_455 S
N239 C240 1.351 . S
C240 C234 1.428 . S
C240 N239 1.351 . S
C240 C241 1.434 1_455 S
C241 C232 1.429 . S
C241 N238 1.350 . S
C241 C240 1.434 1_655 S
C242 C243 1.360 1_455 S
C242 C244 1.429 . S
C242 H246 0.929 1_455 S
C243 C242 1.360 1_655 S
C243 C252 1.429 . S
C244 C242 1.429 . S
C244 C245 1.363 . S
C244 H247 0.929 . S
C245 C244 1.363 . S
C245 C251 1.428 . S
H246 C242 0.929 1_655 S
H247 C244 0.929 . S
S248 N249 1.613 . S
S248 N250 1.610 1_655 S
N249 S248 1.613 . S
N249 C252 1.350 . S
N250 S248 1.610 1_455 S
N250 C251 1.351 . S
C251 C245 1.428 . S
C251 N250 1.351 . S
C251 C252 1.434 1_455 S
C252 C243 1.429 . S
C252 N249 1.350 . S
C252 C251 1.434 1_655 S
C253 C254 1.369 . S
C253 C255 1.419 1_455 S
C253 H257 0.930 . S
C254 C253 1.369 . S
C254 C263 1.429 1_455 S
C255 C253 1.419 1_655 S
C255 C256 1.363 . S
C255 H258 0.929 . S
C256 C255 1.363 . S
C256 C262 1.428 . S
H257 C253 0.930 . S
H258 C255 0.929 . S
S259 N260 1.613 . S
S259 N261 1.610 . S
N260 S259 1.613 . S
N260 C263 1.350 . S
N261 S259 1.610 . S
N261 C262 1.351 . S
C262 C256 1.428 . S
C262 N261 1.351 . S
C262 C263 1.434 . S
C263 C254 1.429 1_655 S
C263 N260 1.350 . S
C263 C262 1.434 . S
C264 C265 1.369 . S
C264 C266 1.419 1_656 S
C264 H268 0.930 . S
C265 C264 1.369 . S
C265 C274 1.429 . S
C266 C264 1.419 1_454 S
C266 C267 1.363 . S
C266 H269 0.929 . S
C267 C266 1.363 . S
C267 C273 1.428 . S
H268 C264 0.930 . S
H269 C266 0.929 . S
S270 N271 1.613 1_554 S
S270 N272 1.609 1_655 S
N271 S270 1.613 1_556 S
N271 C274 1.350 . S
N272 S270 1.609 1_455 S
N272 C273 1.351 . S
C273 C267 1.428 . S
C273 N272 1.351 . S
C273 C274 1.434 1_454 S
C274 C265 1.429 . S
C274 N271 1.350 . S
C274 C273 1.434 1_656 S
C275 C276 1.369 . S
C275 C277 1.419 1_454 S
C275 H279 0.930 . S
C276 C275 1.369 . S
C276 C285 1.429 . S
C277 C275 1.419 1_656 S
C277 C278 1.363 . S
C277 H280 0.929 . S
C278 C277 1.363 . S
C278 C284 1.428 . S
H279 C275 0.930 . S
H280 C277 0.929 . S
S281 N282 1.613 1_556 S
S281 N283 1.610 1_455 S
N282 S281 1.613 1_554 S
N282 C285 1.350 . S
N283 S281 1.610 1_655 S
N283 C284 1.351 . S
C284 C278 1.428 . S
C284 N283 1.351 . S
C284 C285 1.434 1_656 S
C285 C276 1.429 . S
C285 N282 1.350 . S
C285 C284 1.434 1_454 S
C286 C287 1.369 . S
C286 C288 1.419 . S
C286 H290 0.930 . S
C287 C286 1.369 . S
C287 C296 1.429 1_554 S
C288 C286 1.419 . S
C288 C289 1.363 1_554 S
C288 H291 0.929 . S
C289 C288 1.363 1_556 S
C289 C295 1.428 . S
H290 C286 0.930 . S
H291 C288 0.929 . S
S292 N293 1.613 . S
S292 N294 1.610 . S
N293 S292 1.613 . S
N293 C296 1.350 . S
N294 S292 1.610 . S
N294 C295 1.351 . S
C295 C289 1.428 . S
C295 N294 1.351 . S
C295 C296 1.434 . S
C296 C287 1.429 1_556 S
C296 N293 1.350 . S
C296 C295 1.434 . S
C297 C298 1.369 . S
C297 C299 1.419 . S
C297 H301 0.930 . S
C298 C297 1.369 . S
C298 C307 1.429 1_554 S
C299 C297 1.419 . S
C299 C300 1.363 1_554 S
C299 H302 0.929 . S
C300 C299 1.363 1_556 S
C300 C306 1.428 . S
H301 C297 0.930 . S
H302 C299 0.929 . S
S303 N304 1.613 . S
S303 N305 1.610 . S
N304 S303 1.613 . S
N304 C307 1.350 . S
N305 S303 1.610 . S
N305 C306 1.351 . S
C306 C300 1.428 . S
C306 N305 1.351 . S
C306 C307 1.434 . S
C307 C298 1.429 1_556 S
C307 N304 1.350 . S
C307 C306 1.434 . S
C308 C309 1.369 . S
C308 C310 1.419 . S
C308 H312 0.930 . S
C309 C308 1.369 . S
C309 C318 1.429 . S
C310 C308 1.419 . S
C310 C311 1.363 . S
C310 H313 0.929 . S
C311 C310 1.363 . S
C311 C317 1.428 . S
H312 C308 0.930 . S
H313 C310 0.929 . S
S314 N315 1.613 . S
S314 N316 1.610 . S
N315 S314 1.613 . S
N315 C318 1.350 . S
N316 S314 1.610 . S
N316 C317 1.351 . S
C317 C311 1.428 . S
C317 N316 1.351 . S
C317 C318 1.434 . S
C318 C309 1.429 . S
C318 N315 1.350 . S
C318 C317 1.434 . S
C319 C320 1.369 . S
C319 C321 1.419 . S
C319 H323 0.930 . S
C320 C319 1.369 . S
C320 C329 1.429 . S
C321 C319 1.419 . S
C321 C322 1.363 . S
C321 H324 0.929 . S
C322 C321 1.363 . S
C322 C328 1.428 . S
H323 C319 0.930 . S
H324 C321 0.929 . S
S325 N326 1.613 . S
S325 N327 1.610 . S
N326 S325 1.613 . S
N326 C329 1.350 . S
N327 S325 1.610 . S
N327 C328 1.351 . S
C328 C322 1.428 . S
C328 N327 1.351 . S
C328 C329 1.434 . S
C329 C320 1.429 . S
C329 N326 1.350 . S
C329 C328 1.434 . S
C330 C331 1.369 . S
C330 C332 1.419 1_565 S
C330 H334 0.930 . S
C331 C330 1.369 . S
C331 C340 1.429 . S
C332 C330 1.419 1_545 S
C332 C333 1.363 . S
C332 H335 0.929 . S
C333 C332 1.363 . S
C333 C339 1.428 . S
H334 C330 0.930 . S
H335 C332 0.929 . S
S336 N337 1.600 1_545 S
S336 N338 1.623 . S
N337 S336 1.600 1_565 S
N337 C340 1.350 . S
N338 S336 1.623 . S
N338 C339 1.351 . S
C339 C333 1.428 . S
C339 N338 1.351 . S
C339 C340 1.434 1_545 S
C340 C331 1.429 . S
C340 N337 1.350 . S
C340 C339 1.434 1_565 S
C341 C342 1.369 . S
C341 C343 1.419 1_565 S
C341 H345 0.930 . S
C342 C341 1.369 . S
C342 C351 1.429 . S
C343 C341 1.419 1_545 S
C343 C344 1.363 . S
C343 H346 0.929 . S
C344 C343 1.363 . S
C344 C350 1.428 . S
H345 C341 0.930 . S
H346 C343 0.929 . S
S347 N348 1.618 . S
S347 N349 1.605 1_565 S
N348 S347 1.618 . S
N348 C351 1.350 . S
N349 S347 1.605 1_545 S
N349 C350 1.351 . S
C350 C344 1.428 . S
C350 N349 1.351 . S
C350 C351 1.434 1_545 S
C351 C342 1.429 . S
C351 N348 1.350 . S
C351 C350 1.434 1_565 S
C352 C353 1.369 . S
C352 C354 1.419 . S
C352 H356 0.930 . S
C353 C352 1.369 . S
C353 C362 1.429 . S
C354 C352 1.419 . S
C354 C355 1.363 . S
C354 H357 0.929 . S
C355 C354 1.363 . S
C355 C361 1.428 . S
H356 C352 0.930 . S
H357 C354 0.929 . S
S358 N359 1.613 . S
S358 N360 1.610 . S
N359 S358 1.613 . S
N359 C362 1.350 . S
N360 S358 1.610 . S
N360 C361 1.351 . S
C361 C355 1.428 . S
C361 N360 1.351 . S
C361 C362 1.434 . S
C362 C353 1.429 . S
C362 N359 1.350 . S
C362 C361 1.434 . S
C363 C364 1.369 . S
C363 C365 1.419 . S
C363 H367 0.930 . S
C364 C363 1.369 . S
C364 C373 1.429 . S
C365 C363 1.419 . S
C365 C366 1.363 . S
C365 H368 0.929 . S
C366 C365 1.363 . S
C366 C372 1.428 . S
H367 C363 0.930 . S
H368 C365 0.929 . S
S369 N370 1.613 . S
S369 N371 1.610 . S
N370 S369 1.613 . S
N370 C373 1.350 . S
N371 S369 1.610 . S
N371 C372 1.351 . S
C372 C366 1.428 . S
C372 N371 1.351 . S
C372 C373 1.434 . S
C373 C364 1.429 . S
C373 N370 1.350 . S
C373 C372 1.434 . S
C374 C375 1.369 . S
C374 C376 1.419 . S
C374 H378 0.930 . S
C375 C374 1.369 . S
C375 C384 1.429 . S
C376 C374 1.419 . S
C376 C377 1.363 . S
C376 H379 0.929 . S
C377 C376 1.363 . S
C377 C383 1.428 . S
H378 C374 0.930 . S
H379 C376 0.929 . S
S380 N381 1.613 . S
S380 N382 1.610 . S
N381 S380 1.613 . S
N381 C384 1.350 . S
N382 S380 1.610 . S
N382 C383 1.351 . S
C383 C377 1.428 . S
C383 N382 1.351 . S
C383 C384 1.434 . S
C384 C375 1.429 . S
C384 N381 1.350 . S
C384 C383 1.434 . S
C385 C386 1.369 . S
C385 C387 1.419 . S
C385 H389 0.930 . S
C386 C385 1.369 . S
C386 C395 1.429 . S
C387 C385 1.419 . S
C387 C388 1.363 . S
C387 H390 0.929 . S
C388 C387 1.363 . S
C388 C394 1.428 . S
H389 C385 0.930 . S
H390 C387 0.929 . S
S391 N392 1.613 . S
S391 N393 1.610 . S
N392 S391 1.613 . S
N392 C395 1.350 . S
N393 S391 1.610 . S
N393 C394 1.351 . S
C394 C388 1.428 . S
C394 N393 1.351 . S
C394 C395 1.434 . S
C395 C386 1.429 . S
C395 N392 1.350 . S
C395 C394 1.434 . S
C396 C397 1.369 . S
C396 C398 1.419 1_554 S
C396 H400 0.930 . S
C397 C396 1.369 . S
C397 C406 1.429 . S
C398 C396 1.419 1_556 S
C398 C399 1.363 . S
C398 H401 0.929 . S
C399 C398 1.363 . S
C399 C405 1.428 . S
H400 C396 0.930 . S
H401 C398 0.929 . S
S402 N403 1.613 . S
S402 N404 1.610 1_554 S
N403 S402 1.613 . S
N403 C406 1.350 . S
N404 S402 1.610 1_556 S
N404 C405 1.351 . S
C405 C399 1.428 . S
C405 N404 1.351 . S
C405 C406 1.434 1_556 S
C406 C397 1.429 . S
C406 N403 1.350 . S
C406 C405 1.434 1_554 S
C407 C408 1.369 . S
C407 C409 1.419 1_554 S
C407 H411 0.930 . S
C408 C407 1.369 . S
C408 C417 1.429 . S
C409 C407 1.419 1_556 S
C409 C410 1.363 . S
C409 H412 0.929 . S
C410 C409 1.363 . S
C410 C416 1.428 . S
H411 C407 0.930 . S
H412 C409 0.929 . S
S413 N414 1.613 1_556 S
S413 N415 1.610 . S
N414 S413 1.613 1_554 S
N414 C417 1.350 . S
N415 S413 1.610 . S
N415 C416 1.351 . S
C416 C410 1.428 . S
C416 N415 1.351 . S
C416 C417 1.434 1_556 S
C417 C408 1.429 . S
C417 N414 1.350 . S
C417 C416 1.434 1_554 S
C418 C419 1.369 . S
C418 C420 1.419 1_556 S
C418 H422 0.930 . S
C419 C418 1.369 . S
C419 C428 1.429 . S
C420 C418 1.419 1_554 S
C420 C421 1.363 . S
C420 H423 0.929 . S
C421 C420 1.363 . S
C421 C427 1.428 . S
H422 C418 0.930 . S
H423 C420 0.929 . S
S424 N425 1.613 . S
S424 N426 1.610 1_556 S
N425 S424 1.613 . S
N425 C428 1.350 . S
N426 S424 1.610 1_554 S
N426 C427 1.351 . S
C427 C421 1.428 . S
C427 N426 1.351 . S
C427 C428 1.434 1_554 S
C428 C419 1.429 . S
C428 N425 1.350 . S
C428 C427 1.434 1_556 S
C429 C430 1.369 . S
C429 C431 1.419 1_554 S
C429 H433 0.930 . S
C430 C429 1.369 . S
C430 C439 1.429 . S
C431 C429 1.419 1_556 S
C431 C432 1.363 . S
C431 H434 0.929 . S
C432 C431 1.363 . S
C432 C438 1.428 . S
H433 C429 0.930 . S
H434 C431 0.929 . S
S435 N436 1.613 1_556 S
S435 N437 1.610 . S
N436 S435 1.613 1_554 S
N436 C439 1.350 . S
N437 S435 1.610 . S
N437 C438 1.351 . S
C438 C432 1.428 . S
C438 N437 1.351 . S
C438 C439 1.434 1_556 S
C439 C430 1.429 . S
C439 N436 1.350 . S
C439 C438 1.434 1_554 S
C177 C175 1.432 . S
C179 C18 1.415 . S
C188 C40 1.412 . S
C190 C153 1.434 . S
C199 C117 1.440 . S
C201 C62 1.422 . S
C210 C74 1.425 . S
C212 C103 1.445 . S
C221 C81 1.438 . S
C223 C106 1.417 . S
C232 C65 1.437 . S
C234 C118 1.419 . S
C243 C37 1.445 . S
C245 C150 1.424 . S
C254 C15 1.441 . S
C256 C172 1.420 . S
C265 C43 1.663 . S
C267 C21 1.663 . S
C276 C73 1.664 . S
C278 C59 1.664 . S
C287 C109 1.663 . S
C289 C125 1.662 . S
C298 C169 1.664 . S
C300 C147 1.665 . S
C309 C84 1.468 . S
C311 C8 1.468 . S
C320 C54 1.472 . S
C322 C30 1.472 . S
C331 C96 1.470 . S
C333 C164 1.470 . S
C342 C120 1.472 . S
C344 C142 1.471 . S
C353 C140 1.816 . S
C355 C10 1.839 . S
C364 C32 1.840 . S
C366 C162 1.817 . S
C375 C98 1.839 . S
C377 C52 1.819 . S
C386 C128 1.841 . S
C388 C76 1.817 . S
C397 C7 1.159 . S
C399 C139 1.184 . S
C408 C161 1.176 . S
C410 C29 1.169 . S
C419 C51 1.174 . S
C421 C95 1.171 . S
C430 C87 1.175 . S
C432 C131 1.170 . S
