# Generated by pormake.
# Topology usf, (4)-cn, num edge types: 1
# Building blocks:
#     Node 0, Type 0, BuildingBlock: NAWXER_clean_sbu_0, # of connection points: 4
#     Node 1, Type 0, BuildingBlock: NAWXER_clean_sbu_0, # of connection points: 4
#     Node 2, Type 0, BuildingBlock: NAWXER_clean_sbu_0, # of connection points: 4
#     Node 3, Type 0, BuildingBlock: NAWXER_clean_sbu_0, # of connection points: 4
#     Node 4, Type 0, BuildingBlock: NAWXER_clean_sbu_0, # of connection points: 4
#     Node 5, Type 0, BuildingBlock: NAWXER_clean_sbu_0, # of connection points: 4
#     Node 6, Type 0, BuildingBlock: NAWXER_clean_sbu_0, # of connection points: 4
#     Node 7, Type 0, BuildingBlock: NAWXER_clean_sbu_0, # of connection points: 4
#     Node 8, Type 0, BuildingBlock: NAWXER_clean_sbu_0, # of connection points: 4
#     Node 9, Type 0, BuildingBlock: NAWXER_clean_sbu_0, # of connection points: 4
#     Node 10, Type 0, BuildingBlock: NAWXER_clean_sbu_0, # of connection points: 4
#     Node 11, Type 0, BuildingBlock: NAWXER_clean_sbu_0, # of connection points: 4
#     Node 12, Type 0, BuildingBlock: NAWXER_clean_sbu_0, # of connection points: 4
#     Node 13, Type 0, BuildingBlock: NAWXER_clean_sbu_0, # of connection points: 4
#     Node 14, Type 0, BuildingBlock: NAWXER_clean_sbu_0, # of connection points: 4
#     Node 15, Type 0, BuildingBlock: NAWXER_clean_sbu_0, # of connection points: 4
#     Node 16, Type 0, BuildingBlock: NAWXER_clean_sbu_0, # of connection points: 4
#     Node 17, Type 0, BuildingBlock: NAWXER_clean_sbu_0, # of connection points: 4
#     Edge 18, Type (0, 0), BuildingBlock: MIFKUJ_clean_linker_0, # of connection points: 2
#     Edge 19, Type (0, 0), BuildingBlock: MIFKUJ_clean_linker_0, # of connection points: 2
#     Edge 20, Type (0, 0), BuildingBlock: MIFKUJ_clean_linker_0, # of connection points: 2
#     Edge 21, Type (0, 0), BuildingBlock: MIFKUJ_clean_linker_0, # of connection points: 2
#     Edge 22, Type (0, 0), BuildingBlock: MIFKUJ_clean_linker_0, # of connection points: 2
#     Edge 23, Type (0, 0), BuildingBlock: MIFKUJ_clean_linker_0, # of connection points: 2
#     Edge 24, Type (0, 0), BuildingBlock: MIFKUJ_clean_linker_0, # of connection points: 2
#     Edge 25, Type (0, 0), BuildingBlock: MIFKUJ_clean_linker_0, # of connection points: 2
#     Edge 26, Type (0, 0), BuildingBlock: MIFKUJ_clean_linker_0, # of connection points: 2
#     Edge 27, Type (0, 0), BuildingBlock: MIFKUJ_clean_linker_0, # of connection points: 2
#     Edge 28, Type (0, 0), BuildingBlock: MIFKUJ_clean_linker_0, # of connection points: 2
#     Edge 29, Type (0, 0), BuildingBlock: MIFKUJ_clean_linker_0, # of connection points: 2
#     Edge 30, Type (0, 0), BuildingBlock: MIFKUJ_clean_linker_0, # of connection points: 2
#     Edge 31, Type (0, 0), BuildingBlock: MIFKUJ_clean_linker_0, # of connection points: 2
#     Edge 32, Type (0, 0), BuildingBlock: MIFKUJ_clean_linker_0, # of connection points: 2
#     Edge 33, Type (0, 0), BuildingBlock: MIFKUJ_clean_linker_0, # of connection points: 2
#     Edge 34, Type (0, 0), BuildingBlock: MIFKUJ_clean_linker_0, # of connection points: 2
#     Edge 35, Type (0, 0), BuildingBlock: MIFKUJ_clean_linker_0, # of connection points: 2
#     Edge 36, Type (0, 0), BuildingBlock: MIFKUJ_clean_linker_0, # of connection points: 2
#     Edge 37, Type (0, 0), BuildingBlock: MIFKUJ_clean_linker_0, # of connection points: 2
#     Edge 38, Type (0, 0), BuildingBlock: MIFKUJ_clean_linker_0, # of connection points: 2
#     Edge 39, Type (0, 0), BuildingBlock: MIFKUJ_clean_linker_0, # of connection points: 2
#     Edge 40, Type (0, 0), BuildingBlock: MIFKUJ_clean_linker_0, # of connection points: 2
#     Edge 41, Type (0, 0), BuildingBlock: MIFKUJ_clean_linker_0, # of connection points: 2
#     Edge 42, Type (0, 0), BuildingBlock: MIFKUJ_clean_linker_0, # of connection points: 2
#     Edge 43, Type (0, 0), BuildingBlock: MIFKUJ_clean_linker_0, # of connection points: 2
#     Edge 44, Type (0, 0), BuildingBlock: MIFKUJ_clean_linker_0, # of connection points: 2
#     Edge 45, Type (0, 0), BuildingBlock: MIFKUJ_clean_linker_0, # of connection points: 2
#     Edge 46, Type (0, 0), BuildingBlock: MIFKUJ_clean_linker_0, # of connection points: 2
#     Edge 47, Type (0, 0), BuildingBlock: MIFKUJ_clean_linker_0, # of connection points: 2
#     Edge 48, Type (0, 0), BuildingBlock: MIFKUJ_clean_linker_0, # of connection points: 2
#     Edge 49, Type (0, 0), BuildingBlock: MIFKUJ_clean_linker_0, # of connection points: 2
#     Edge 50, Type (0, 0), BuildingBlock: MIFKUJ_clean_linker_0, # of connection points: 2
#     Edge 51, Type (0, 0), BuildingBlock: MIFKUJ_clean_linker_0, # of connection points: 2
#     Edge 52, Type (0, 0), BuildingBlock: MIFKUJ_clean_linker_0, # of connection points: 2
#     Edge 53, Type (0, 0), BuildingBlock: MIFKUJ_clean_linker_0, # of connection points: 2
# Relax obj value: 0.054
# Max RMSD: 0.096
# Mean RMSD: 0.096
data_MOF--net-usf--node1-NAWXER_clean_sbu_0--edge1-MIFKUJ_clean_linker_0
_symmetry_space_group_name_H-M    P1
_symmetry_Int_Tables_number       1
_symmetry_cell_setting            triclinic
loop_
_symmetry_equiv_pos_as_xyz
'x, y, z'
_cell_length_a     63.256399
_cell_length_b     63.295598
_cell_length_c     37.419205
_cell_angle_alpha  90.041554
_cell_angle_beta   89.964
_cell_angle_gamma 119.97635
loop_
_atom_site_label
_atom_site_type_symbol
_atom_site_fract_x
_atom_site_fract_y
_atom_site_fract_z
_atom_type_partial_charge
C0 C 0.03447 0.54853 0.94317 0.0
C1 C 0.05079 0.54715 0.07136 0.0
O2 O 0.05176 0.56591 0.9605 0.0
Zn3 Zn 0.04431 0.54949 0.00701 0.0
O4 O 0.01941 0.52896 0.95962 0.0
Zn5 Zn 0.01254 0.51322 0.01162 0.0
O6 O 0.98105 0.51056 0.02459 0.0
O7 O 0.0113 0.54852 0.02064 0.0
O8 O 0.03216 0.52782 0.05974 0.0
O9 O 0.06363 0.56466 0.05011 0.0
O10 O 0.05096 0.52022 0.99633 0.0
O11 O 0.0169 0.48504 0.00281 0.0
C12 C 0.9888 0.53338 0.02698 0.0
C13 C 0.03956 0.49687 0.9951 0.0
C14 C 0.46649 0.5145 0.07606 0.0
C15 C 0.44778 0.49176 0.95094 0.0
O16 O 0.44746 0.51033 0.0589 0.0
Zn17 Zn 0.45653 0.50252 0.01368 0.0
O18 O 0.48329 0.51233 0.06019 0.0
Zn19 Zn 0.49005 0.50272 0.0081 0.0
O20 O 0.51935 0.53237 0.99312 0.0
O21 O 0.48707 0.53688 0.99745 0.0
O22 O 0.46809 0.49365 0.96066 0.0
O23 O 0.4349 0.49541 0.97349 0.0
O24 O 0.45451 0.46809 0.02432 0.0
O25 O 0.49138 0.47318 0.01745 0.0
C26 C 0.5098 0.54585 0.9903 0.0
C27 C 0.46896 0.45935 0.02502 0.0
C28 C 0.50186 0.05524 0.04131 0.0
C29 C 0.51676 0.06041 0.91216 0.0
O30 O 0.50183 0.03655 0.02807 0.0
Zn31 Zn 0.50475 0.02286 0.97723 0.0
O32 O 0.50269 0.07154 0.0205 0.0
Zn33 Zn 0.50635 0.0574 0.97596 0.0
O34 O 0.47059 0.02684 0.966 0.0
O35 O 0.47332 0.99357 0.9697 0.0
O36 O 0.51447 0.07576 0.93136 0.0
O37 O 0.51336 0.04049 0.92625 0.0
O38 O 0.5339 0.02063 0.9865 0.0
O39 O 0.5402 0.05824 0.98691 0.0
C40 C 0.46043 1.00353 0.96429 0.0
C41 C 0.54835 0.04344 0.99065 0.0
C42 C 0.56659 0.06832 0.54421 0.0
C43 C 0.54366 0.06802 0.41915 0.0
O44 O 0.57786 0.08518 0.52134 0.0
Zn45 Zn 0.55669 0.06826 0.48114 0.0
O46 O 0.5478 0.04827 0.53454 0.0
Zn47 Zn 0.52614 0.03246 0.4874 0.0
O48 O 0.53059 1.00452 0.47723 0.0
O49 O 0.56461 0.03951 0.47028 0.0
O50 O 0.52921 0.0483 0.43582 0.0
O51 O 0.56239 0.08458 0.43508 0.0
O52 O 0.52351 0.06663 0.49963 0.0
O53 O 0.49468 0.02806 0.50365 0.0
C54 C 0.5532 0.01612 0.46946 0.0
C55 C 0.50145 0.05058 0.50742 0.0
C56 C 0.0129 0.51261 0.56483 0.0
C57 C 1.00404 0.48992 0.4378 0.0
O58 O 0.99493 0.50835 0.54481 0.0
Zn59 Zn 1.00654 0.49986 0.50167 0.0
O60 O 0.03059 0.51056 0.55204 0.0
Zn61 Zn 0.04154 0.50171 0.50305 0.0
O62 O 0.071 0.53302 0.49081 0.0
O63 O 0.03688 0.53425 0.4872 0.0
O64 O 0.02357 0.49263 0.45238 0.0
O65 O 0.98846 0.49202 0.45677 0.0
O66 O 1.00505 0.46634 0.51607 0.0
O67 O 0.04238 0.47202 0.51598 0.0
C68 C 0.06008 0.54483 0.48357 0.0
C69 C 0.01957 0.45794 0.52083 0.0
C70 C 0.49761 0.53142 0.45136 0.0
C71 C 0.47462 0.51093 0.57591 0.0
O72 O 0.49882 0.51269 0.46153 0.0
Zn73 Zn 0.49344 0.49214 0.50983 0.0
O74 O 0.49246 0.54315 0.47399 0.0
Zn75 Zn 0.48751 0.5222 0.51421 0.0
O76 O 0.52389 0.53049 0.52817 0.0
O77 O 0.5258 0.497 0.52053 0.0
O78 O 0.47562 0.52844 0.55799 0.0
O79 O 0.4808 0.49652 0.56114 0.0
O80 O 0.46689 0.46006 0.49512 0.0
O81 O 0.45648 0.4885 0.49623 0.0
C82 C 0.53615 0.51936 0.52952 0.0
C83 C 0.45093 0.46639 0.48992 0.0
C84 C 0.67868 0.83009 0.40228 0.0
C85 C 0.67213 0.84229 0.27492 0.0
O86 O 0.69561 0.8508 0.39088 0.0
Zn87 Zn 0.70632 0.8712 0.34209 0.0
O88 O 0.6619 0.81579 0.38106 0.0
Zn89 Zn 0.67359 0.83657 0.33923 0.0
O90 O 0.70675 0.83634 0.32793 0.0
O91 O 0.73817 0.87355 0.33322 0.0
O92 O 0.657 0.82451 0.29403 0.0
O93 O 0.69042 0.86053 0.28981 0.0
O94 O 0.70351 0.89991 0.35362 0.0
O95 O 0.66768 0.86632 0.35242 0.0
C96 C 0.72981 0.85105 0.32612 0.0
C97 C 0.68045 0.88945 0.35727 0.0
C98 C 0.21564 0.87806 0.31506 0.0
C99 C 0.17474 0.79078 0.3472 0.0
O100 O 0.22994 0.86915 0.31642 0.0
Zn101 Zn 0.22809 0.83483 0.32682 0.0
O102 O 0.193 0.86428 0.32165 0.0
Zn103 Zn 0.1937 0.8342 0.3297 0.0
O104 O 0.21344 0.8418 0.37858 0.0
O105 O 0.24777 0.84132 0.37009 0.0
O106 O 0.16421 0.80318 0.34183 0.0
O107 O 0.19774 0.80071 0.34181 0.0
O108 O 0.23784 0.82728 0.28105 0.0
O109 O 0.20321 0.82773 0.27796 0.0
C110 C 0.23316 0.84365 0.39103 0.0
C111 C 0.22011 0.8255 0.26266 0.0
C112 C 0.1516 0.34238 0.3921 0.0
C113 C 0.17477 0.33801 0.26932 0.0
O114 O 0.15203 0.32281 0.38485 0.0
Zn115 Zn 0.16095 0.30673 0.34167 0.0
O116 O 0.15842 0.35917 0.36877 0.0
Zn117 Zn 0.16518 0.34221 0.33127 0.0
O118 O 0.12958 0.31174 0.32132 0.0
O119 O 0.12916 0.27737 0.33319 0.0
O120 O 0.17457 0.35611 0.28379 0.0
O121 O 0.17037 0.31942 0.28829 0.0
O122 O 0.18985 0.30577 0.35944 0.0
O123 O 0.19723 0.34322 0.35058 0.0
C124 C 0.11802 0.28839 0.32269 0.0
C125 C 0.20465 0.32867 0.36047 0.0
C126 C 0.21806 0.3473 0.80076 0.0
C127 C 0.17153 0.38582 0.84587 0.0
O128 O 0.19537 0.33255 0.80662 0.0
Zn129 Zn 0.16372 0.33279 0.82507 0.0
O130 O 0.22675 0.36995 0.80686 0.0
Zn131 Zn 0.1963 0.3685 0.82288 0.0
O132 O 0.18923 0.35029 0.8726 0.0
O133 O 0.15598 0.31406 0.8693 0.0
O134 O 0.19414 0.39723 0.83764 0.0
O135 O 0.1592 0.36262 0.84189 0.0
O136 O 0.14237 0.32093 0.78353 0.0
O137 O 0.17426 0.3578 0.77624 0.0
C138 C 0.17368 0.33028 0.88749 0.0
C139 C 0.15445 0.33982 0.76425 0.0
C140 C 0.70805 0.87791 0.82611 0.0
C141 C 0.65262 0.79115 0.85601 0.0
O142 O 0.71853 0.86507 0.82822 0.0
Zn143 Zn 0.70933 0.82818 0.83891 0.0
O144 O 0.68521 0.86785 0.83212 0.0
Zn145 Zn 0.67901 0.8348 0.84132 0.0
O146 O 0.69725 0.83866 0.89063 0.0
O147 O 0.72711 0.83052 0.88261 0.0
O148 O 0.64636 0.80731 0.85271 0.0
O149 O 0.67496 0.79714 0.85114 0.0
O150 O 0.71719 0.81833 0.79374 0.0
O151 O 0.68602 0.82478 0.7902 0.0
C152 C 0.71483 0.83639 0.90312 0.0
C153 C 0.70067 0.81902 0.77522 0.0
C154 C 0.16558 0.79535 0.89051 0.0
C155 C 0.18061 0.80683 0.76228 0.0
O156 O 0.16723 0.78099 0.86841 0.0
Zn157 Zn 0.17052 0.79965 0.82571 0.0
O158 O 0.165 0.8141 0.87879 0.0
Zn159 Zn 0.16793 0.8316 0.82811 0.0
O160 O 0.13627 0.82921 0.82138 0.0
O161 O 0.13417 0.79363 0.81544 0.0
O162 O 0.17662 0.82313 0.77597 0.0
O163 O 0.17912 0.78975 0.78187 0.0
O164 O 0.20413 0.83295 0.83792 0.0
O165 O 0.19654 0.86336 0.83798 0.0
C166 C 0.12368 0.80653 0.81471 0.0
C167 C 0.21157 0.85572 0.84223 0.0
C168 C 0.30842 0.14091 0.71614 0.0
C169 C 0.3069 0.16297 0.5925 0.0
O170 O 0.32843 0.15987 0.70681 0.0
Zn171 Zn 0.34354 0.18191 0.65984 0.0
O172 O 0.29133 0.13024 0.69352 0.0
Zn173 Zn 0.3078 0.15194 0.65428 0.0
O174 O 0.33667 0.14434 0.64052 0.0
O175 O 0.37162 0.17814 0.6497 0.0
O176 O 0.2901 0.14566 0.61034 0.0
O177 O 0.32734 0.17749 0.60761 0.0
O178 O 0.34845 0.21349 0.67592 0.0
O179 O 0.3097 0.18525 0.67234 0.0
C180 C 0.36012 0.15592 0.63996 0.0
C181 C 0.3261 0.20725 0.67972 0.0
C182 C 0.84338 0.17781 0.73795 0.0
C183 C 0.82748 0.1569 0.61129 0.0
O184 O 0.82645 0.17748 0.71918 0.0
Zn185 Zn 0.83617 0.17005 0.67365 0.0
O186 O 0.85986 0.17483 0.72272 0.0
Zn187 Zn 0.86824 0.16683 0.67081 0.0
O188 O 0.8991 0.19607 0.6577 0.0
O189 O 0.86832 0.20301 0.65814 0.0
O190 O 0.84698 0.15763 0.62263 0.0
O191 O 0.81553 0.16307 0.63198 0.0
O192 O 0.83114 0.13466 0.68602 0.0
O193 O 0.86639 0.13559 0.68177 0.0
C194 C 0.89104 0.21066 0.65277 0.0
C195 C 0.84361 0.12383 0.68877 0.0
C196 C 0.87073 0.68317 0.70247 0.0
C197 C 0.78408 0.64011 0.66341 0.0
O198 O 0.85697 0.69238 0.69896 0.0
Zn199 Zn 0.82692 0.66263 0.684 0.0
O200 O 0.8619 0.66038 0.69622 0.0
Zn201 Zn 0.82806 0.62934 0.68073 0.0
O202 O 0.83655 0.61971 0.63638 0.0
O203 O 0.83612 0.65435 0.633 0.0
O204 O 0.7937 0.62649 0.66608 0.0
O205 O 0.79672 0.6626 0.67178 0.0
O206 O 0.81608 0.64099 0.73112 0.0
O207 O 0.81981 0.60846 0.72232 0.0
C208 C 0.83892 0.63768 0.61801 0.0
C209 C 0.81416 0.62103 0.7425 0.0
C210 C 0.82368 0.65103 0.24019 0.0
C211 C 0.81451 0.66043 0.11368 0.0
O212 O 0.84277 0.66889 0.22627 0.0
Zn213 Zn 0.85375 0.68751 0.17613 0.0
O214 O 0.80424 0.6396 0.2219 0.0
Zn215 Zn 0.81742 0.65756 0.17806 0.0
O216 O 0.84578 0.64885 0.16536 0.0
O217 O 0.8813 0.68318 0.16486 0.0
O218 O 0.79776 0.6465 0.1352 0.0
O219 O 0.83543 0.67646 0.12574 0.0
O220 O 0.85876 0.72003 0.18629 0.0
O221 O 0.82001 0.69185 0.18951 0.0
C222 C 0.86902 0.6601 0.16081 0.0
C223 C 0.83674 0.71426 0.19216 0.0
C224 C 0.35329 0.20932 0.14231 0.0
C225 C 0.31455 0.12463 0.18573 0.0
O226 O 0.36388 0.19773 0.15235 0.0
Zn227 Zn 0.3346 0.16693 0.16289 0.0
O228 O 0.32987 0.1985 0.14263 0.0
Zn229 Zn 0.29942 0.16301 0.15603 0.0
O230 O 0.2836 0.17042 0.19412 0.0
O231 O 0.32009 0.17628 0.20818 0.0
O232 O 0.29917 0.13137 0.17731 0.0
O233 O 0.33719 0.13931 0.18086 0.0
O234 O 0.31915 0.15549 0.11073 0.0
O235 O 0.28254 0.15171 0.11102 0.0
C236 C 0.3007 0.17676 0.21676 0.0
C237 C 0.29936 0.15042 0.09436 0.0
C238 C 0.83313 0.12625 0.10816 0.0
C239 C 0.81209 0.12407 0.2348 0.0
O240 O 0.82709 0.10842 0.12937 0.0
Zn241 Zn 0.82348 0.12419 0.17195 0.0
O242 O 0.83479 0.14608 0.1196 0.0
Zn243 Zn 0.82923 0.1607 0.16766 0.0
O244 O 0.86173 0.18808 0.17817 0.0
O245 O 0.85981 0.15248 0.18351 0.0
O246 O 0.81748 0.14405 0.21885 0.0
O247 O 0.81325 0.10726 0.21774 0.0
O248 O 0.79236 0.12665 0.15664 0.0
O249 O 0.80196 0.16523 0.15304 0.0
C250 C 0.87214 0.17581 0.18539 0.0
C251 C 0.78619 0.14266 0.14988 0.0
H252 H 0.02637 0.47333 0.39305 0.0
H253 H 0.03338 0.48141 0.32913 0.0
H254 H 0.98612 0.51227 0.32903 0.0
H255 H 0.97882 0.50401 0.39327 0.0
H256 H 0.98464 0.48736 0.26403 0.0
H257 H 0.0427 0.54625 0.34595 0.0
H258 H 0.07213 0.55994 0.39538 0.0
H259 H 0.11782 0.54047 0.33571 0.0
H260 H 0.08824 0.52593 0.28604 0.0
H261 H 0.03116 0.56521 0.11722 0.0
H262 H 0.02407 0.55561 0.18104 0.0
H263 H 0.06887 0.52203 0.17649 0.0
H264 H 0.07557 0.53125 0.11228 0.0
H265 H 0.07205 0.54803 0.24357 0.0
H266 H 0.01487 0.48803 0.16297 0.0
H267 H 0.98629 0.4742 0.11218 0.0
H268 H 0.93954 0.4937 0.16892 0.0
H269 H 0.96836 0.50839 0.21977 0.0
C270 C 0.01684 0.48114 0.37926 0.0
C271 C 1.00231 0.48835 0.39831 0.0
C272 C 0.0209 0.48577 0.3427 0.0
C273 C 0.01073 0.49795 0.32453 0.0
C274 C 0.99424 0.50296 0.34263 0.0
C275 C 0.99004 0.49818 0.37933 0.0
C276 C 0.01994 0.50837 0.2885 0.0
C277 C 1.00367 0.50078 0.25961 0.0
C278 C 0.04497 0.52554 0.28266 0.0
C279 C 0.063 0.53464 0.31237 0.0
C280 C 0.05877 0.54444 0.34353 0.0
C281 C 0.07551 0.55238 0.37165 0.0
C282 C 0.09677 0.55095 0.36887 0.0
C283 C 0.10132 0.54154 0.33788 0.0
C284 C 0.08455 0.53342 0.30971 0.0
C285 C 0.04045 0.55686 0.13029 0.0
C286 C 0.05435 0.54943 0.11022 0.0
C287 C 0.0362 0.55117 0.16661 0.0
C288 C 0.04578 0.53793 0.18337 0.0
C289 C 0.06143 0.53237 0.16407 0.0
C290 C 0.0654 0.53778 0.12752 0.0
C291 C 0.03673 0.52706 0.21919 0.0
C292 C 0.05303 0.53457 0.24801 0.0
C293 C 0.01181 0.50957 0.22488 0.0
C294 C 0.99406 0.49991 0.19486 0.0
C295 C 0.9987 0.48974 0.16446 0.0
C296 C 0.98245 0.48171 0.13566 0.0
C297 C 0.96123 0.48331 0.13719 0.0
C298 C 0.95612 0.49273 0.16766 0.0
C299 C 0.97242 0.50096 0.19643 0.0
H300 H 0.94867 0.4771 0.11487 0.0
H301 H 0.10977 0.55726 0.39065 0.0
H302 H 0.49085 0.5664 0.41836 0.0
H303 H 0.48566 0.56996 0.35407 0.0
H304 H 0.50152 0.51232 0.33312 0.0
H305 H 0.50686 0.50867 0.39683 0.0
H306 H 0.51532 0.57655 0.29038 0.0
H307 H 0.45514 0.47172 0.27981 0.0
H308 H 0.42871 0.43703 0.31889 0.0
H309 H 0.41354 0.48389 0.38369 0.0
H310 H 0.43952 0.51877 0.34464 0.0
H311 H 0.50713 0.52996 0.11717 0.0
H312 H 0.51159 0.53929 0.18083 0.0
H313 H 0.43713 0.52401 0.18557 0.0
H314 H 0.4324 0.51448 0.12152 0.0
H315 H 0.44735 0.50086 0.23818 0.0
H316 H 0.48232 0.58166 0.19334 0.0
H317 H 0.5089 0.61651 0.15468 0.0
H318 H 0.57232 0.61918 0.20079 0.0
H319 H 0.54613 0.58409 0.23933 0.0
C320 C 0.49378 0.55486 0.39998 0.0
C321 C 0.49898 0.53704 0.41276 0.0
C322 C 0.49081 0.55695 0.36331 0.0
C323 C 0.49282 0.54113 0.33908 0.0
C324 C 0.49961 0.52449 0.35155 0.0
C325 C 0.50269 0.52247 0.38801 0.0
C326 C 0.48586 0.54029 0.30118 0.0
C327 C 0.50038 0.56013 0.27889 0.0
C328 C 0.46596 0.51901 0.28658 0.0
C329 C 0.44946 0.49791 0.30942 0.0
C330 C 0.44601 0.47459 0.30222 0.0
C331 C 0.43113 0.4549 0.32441 0.0
C332 C 0.41953 0.45828 0.35383 0.0
C333 C 0.42261 0.48132 0.36097 0.0
C334 C 0.43742 0.50106 0.33882 0.0
C335 C 0.4917 0.52873 0.13161 0.0
C336 C 0.46937 0.52141 0.11428 0.0
C337 C 0.49436 0.53424 0.16799 0.0
C338 C 0.47477 0.53259 0.18784 0.0
C339 C 0.45249 0.5255 0.17064 0.0
C340 C 0.44984 0.52011 0.13408 0.0
C341 C 0.47735 0.53682 0.22694 0.0
C342 C 0.46202 0.51752 0.24959 0.0
C343 C 0.49632 0.55871 0.24182 0.0
C344 C 0.51221 0.58013 0.21913 0.0
C345 C 0.50193 0.58958 0.19511 0.0
C346 C 0.51693 0.60939 0.17322 0.0
C347 C 0.54228 0.62003 0.17523 0.0
C348 C 0.55268 0.61092 0.19925 0.0
C349 C 0.53776 0.59109 0.22117 0.0
H350 H 0.55386 0.63533 0.15822 0.0
H351 H 0.40816 0.44305 0.37109 0.0
H352 H 0.5196 0.03506 0.08741 0.0
H353 H 0.5252 0.04087 0.15148 0.0
H354 H 0.49544 0.0891 0.14919 0.0
H355 H 0.49073 0.08413 0.08384 0.0
H356 H 0.53228 0.10619 0.1944 0.0
H357 H 0.46088 0.02864 0.17862 0.0
H358 H 0.43567 0.98729 0.15379 0.0
H359 H 0.48447 0.96563 0.19843 0.0
H360 H 0.51016 0.00694 0.22313 0.0
H361 H 0.49939 0.04563 0.38664 0.0
H362 H 0.49011 0.04758 0.32396 0.0
H363 H 0.56637 0.09767 0.30325 0.0
H364 H 0.57554 0.09661 0.36667 0.0
H365 H 0.50158 0.03233 0.27016 0.0
H366 H 0.57398 0.13108 0.22828 0.0
H367 H 0.59494 0.17249 0.2541 0.0
H368 H 0.53583 0.15195 0.32792 0.0
H369 H 0.51436 0.11054 0.30224 0.0
C370 C 0.51398 0.04676 0.10042 0.0
C371 C 0.5042 0.05874 0.08058 0.0
C372 C 0.51723 0.05007 0.13721 0.0
C373 C 0.51016 0.06491 0.15547 0.0
C374 C 0.50085 0.07739 0.13574 0.0
C375 C 0.49802 0.07444 0.09849 0.0
C376 C 0.51241 0.06691 0.19513 0.0
C377 C 0.52544 0.09006 0.21105 0.0
C378 C 0.50306 0.04591 0.21708 0.0
C379 C 0.48752 0.02094 0.20255 0.0
C380 C 0.46631 0.01509 0.18299 0.0
C381 C 0.45193 0.99166 0.16895 0.0
C382 C 0.45849 0.97386 0.17448 0.0
C383 C 0.47941 0.97944 0.19415 0.0
C384 C 0.49387 1.00285 0.20823 0.0
C385 C 0.51416 0.05731 0.36883 0.0
C386 C 0.53822 0.0709 0.38155 0.0
C387 C 0.50883 0.05839 0.33291 0.0
C388 C 0.52747 0.0728 0.30862 0.0
C389 C 0.55153 0.08677 0.32142 0.0
C390 C 0.55681 0.08606 0.35766 0.0
C391 C 0.52181 0.07164 0.26969 0.0
C392 C 0.50821 0.04855 0.25378 0.0
C393 C 0.52999 0.09271 0.2481 0.0
C394 C 0.54269 0.11763 0.26355 0.0
C395 C 0.56542 0.13543 0.24993 0.0
C396 C 0.57739 0.1589 0.26456 0.0
C397 C 0.56676 0.16483 0.29271 0.0
C398 C 0.54409 0.14731 0.30622 0.0
C399 C 0.53203 0.12383 0.29167 0.0
H400 H 0.57607 0.183 0.304 0.0
H401 H 0.44734 0.95573 0.16357 0.0
H402 H 0.04248 0.5116 0.61648 0.0
H403 H 0.04513 0.52324 0.67887 0.0
H404 H 0.98941 0.54257 0.66209 0.0
H405 H 0.98603 0.52997 0.59926 0.0
H406 H 0.05821 0.56323 0.71198 0.0
H407 H 0.95797 0.5343 0.74017 0.0
H408 H 0.91667 0.50529 0.71796 0.0
H409 H 0.94171 0.45712 0.68193 0.0
H410 H 0.98306 0.48572 0.70428 0.0
H411 H 0.05419 0.58875 0.8985 0.0
H412 H 0.04929 0.58879 0.83327 0.0
H413 H 1.00514 0.51026 0.83442 0.0
H414 H 0.00908 0.51022 0.8988 0.0
H415 H 0.98555 0.5261 0.79092 0.0
H416 H 0.06836 0.54365 0.81219 0.0
H417 H 0.11028 0.56758 0.8358 0.0
H418 H 0.12134 0.62971 0.77476 0.0
H419 H 0.07934 0.60626 0.75126 0.0
C420 C 0.03071 0.5183 0.62593 0.0
C421 C 0.01394 0.51975 0.60285 0.0
C422 C 0.03237 0.52511 0.66171 0.0
C423 C 0.01748 0.53378 0.67544 0.0
C424 C 1.0009 0.53563 0.65235 0.0
C425 C 0.99897 0.52844 0.61643 0.0
C426 C 0.01912 0.54004 0.71416 0.0
C427 C 0.04226 0.55526 0.72919 0.0
C428 C 0.99843 0.52967 0.73682 0.0
C429 C 0.97364 0.5123 0.72344 0.0
C430 C 0.95463 0.5175 0.72753 0.0
C431 C 0.93122 0.50113 0.71493 0.0
C432 C 0.9266 0.47943 0.6984 0.0
C433 C 0.94534 0.47399 0.69458 0.0
C434 C 0.96877 0.49028 0.70718 0.0
C435 C 0.04335 0.57157 0.88472 0.0
C436 C 0.03199 0.54951 0.90388 0.0
C437 C 0.04059 0.57158 0.84745 0.0
C438 C 0.0269 0.54948 0.82872 0.0
C439 C 0.01556 0.52758 0.84805 0.0
C440 C 0.01794 0.5276 0.88504 0.0
C441 C 0.02475 0.5485 0.78897 0.0
C442 C 1.00147 0.53446 0.77367 0.0
C443 C 0.04542 0.55924 0.76624 0.0
C444 C 0.07064 0.57331 0.78033 0.0
C445 C 0.07969 0.56246 0.80401 0.0
C446 C 0.10345 0.57593 0.81734 0.0
C447 C 0.11843 0.60015 0.80684 0.0
C448 C 0.10969 0.61096 0.78293 0.0
C449 C 0.08591 0.5976 0.76962 0.0
H450 H 0.13683 0.61054 0.81716 0.0
H451 H 0.90847 0.46679 0.68865 0.0
H452 H 0.45606 0.53487 0.61446 0.0
H453 H 0.44388 0.52881 0.6774 0.0
H454 H 0.46357 0.47281 0.68574 0.0
H455 H 0.47518 0.47832 0.62288 0.0
H456 H 0.42261 0.4591 0.7204 0.0
H457 H 0.50147 0.5312 0.71539 0.0
H458 H 0.53239 0.57242 0.69562 0.0
H459 H 0.48877 0.60144 0.73696 0.0
H460 H 0.45737 0.56029 0.75648 0.0
H461 H 0.45946 0.4673 0.90248 0.0
H462 H 0.45481 0.46687 0.83757 0.0
H463 H 0.41766 0.50806 0.84807 0.0
H464 H 0.42174 0.50806 0.91333 0.0
H465 H 0.46148 0.52934 0.80375 0.0
H466 H 0.38547 0.45494 0.81724 0.0
H467 H 0.35793 0.41313 0.83871 0.0
H468 H 0.40063 0.38779 0.78365 0.0
H469 H 0.42867 0.42952 0.76226 0.0
C470 C 0.45771 0.5212 0.62969 0.0
C471 C 0.46671 0.50716 0.61371 0.0
C472 C 0.45078 0.5178 0.66566 0.0
C473 C 0.45303 0.50052 0.68638 0.0
C474 C 0.46159 0.4862 0.67027 0.0
C475 C 0.46834 0.48945 0.63432 0.0
C476 C 0.44728 0.49779 0.72513 0.0
C477 C 0.43117 0.47444 0.73865 0.0
C478 C 0.45816 0.51788 0.74887 0.0
C479 C 0.47692 0.54262 0.73696 0.0
C480 C 0.49836 0.54633 0.71995 0.0
C481 C 0.51599 0.56969 0.70886 0.0
C482 C 0.51252 0.58952 0.71495 0.0
C483 C 0.49141 0.58604 0.73219 0.0
C484 C 0.47368 0.56271 0.74327 0.0
C485 C 0.44975 0.47573 0.89101 0.0
C486 C 0.441 0.48776 0.91283 0.0
C487 C 0.44705 0.4754 0.85398 0.0
C488 C 0.43589 0.48742 0.83816 0.0
C489 C 0.42621 0.49859 0.85992 0.0
C490 C 0.42847 0.49849 0.89711 0.0
C491 C 0.43707 0.49065 0.79896 0.0
C492 C 0.45249 0.5141 0.78537 0.0
C493 C 0.42604 0.47057 0.77534 0.0
C494 C 0.40929 0.44544 0.78835 0.0
C495 C 0.38914 0.44051 0.80998 0.0
C496 C 0.3734 0.4168 0.82207 0.0
C497 C 0.37755 0.39782 0.8126 0.0
C498 C 0.39744 0.40251 0.79098 0.0
C499 C 0.41325 0.42618 0.77882 0.0
H500 H 0.36533 0.37947 0.82195 0.0
H501 H 0.52621 0.60759 0.70638 0.0
H502 H 0.51458 0.02804 0.86253 0.0
H503 H 0.53041 0.03617 0.80183 0.0
H504 H 0.55292 0.11228 0.81462 0.0
H505 H 0.53654 0.10412 0.87583 0.0
H506 H 0.53375 0.09593 0.74866 0.0
H507 H 0.59505 0.09419 0.81962 0.0
H508 H 0.61189 0.07837 0.86488 0.0
H509 H 0.58877 0.01349 0.80253 0.0
H510 H 0.57143 0.02874 0.75714 0.0
H511 H 0.59086 0.11187 0.58016 0.0
H512 H 0.59174 0.11755 0.64514 0.0
H513 H 0.556 0.03965 0.66004 0.0
H514 H 0.55507 0.03386 0.59549 0.0
H515 H 0.58997 0.06586 0.71436 0.0
H516 H 0.52262 0.06547 0.65037 0.0
H517 H 0.50781 0.08178 0.60316 0.0
H518 H 0.54462 0.15248 0.65258 0.0
H519 H 0.56002 0.13654 0.70001 0.0
C520 C 0.52277 0.04653 0.85252 0.0
C521 C 0.5245 0.06548 0.87422 0.0
C522 C 0.53195 0.05118 0.81778 0.0
C523 C 0.54344 0.07495 0.80393 0.0
C524 C 0.54434 0.09383 0.82489 0.0
C525 C 0.53495 0.08914 0.85981 0.0
C526 C 0.55456 0.07969 0.76766 0.0
C527 C 0.54652 0.08991 0.74144 0.0
C528 C 0.57117 0.07175 0.75799 0.0
C529 C 0.58183 0.06258 0.78503 0.0
C530 C 0.59343 0.07649 0.81564 0.0
C531 C 0.60307 0.06762 0.84132 0.0
C532 C 0.60138 0.04493 0.83661 0.0
C533 C 0.59008 0.03107 0.80615 0.0
C534 C 0.58037 0.03984 0.7804 0.0
C535 C 0.58392 0.09602 0.59736 0.0
C536 C 0.57262 0.0724 0.58273 0.0
C537 C 0.58436 0.09929 0.63446 0.0
C538 C 0.57362 0.07899 0.65737 0.0
C539 C 0.56436 0.05556 0.6429 0.0
C540 C 0.56373 0.05228 0.60594 0.0
C541 C 0.56869 0.08149 0.6955 0.0
C542 C 0.57778 0.0725 0.72197 0.0
C543 C 0.55322 0.09071 0.70545 0.0
C544 C 0.54273 0.09992 0.6784 0.0
C545 C 0.5277 0.08454 0.65103 0.0
C546 C 0.51931 0.09376 0.6241 0.0
C547 C 0.52554 0.11828 0.62451 0.0
C548 C 0.53996 0.13354 0.65214 0.0
C549 C 0.54851 0.12442 0.67908 0.0
H550 H 0.51897 0.12539 0.60369 0.0
H551 H 0.60885 0.03809 0.85653 0.0
H552 H 0.67402 0.82865 0.72819 0.0
H553 H 0.66947 0.82108 0.66445 0.0
H554 H 0.71635 0.78979 0.66957 0.0
H555 H 0.72169 0.79814 0.73415 0.0
H556 H 0.72799 0.81784 0.61417 0.0
H557 H 0.65378 0.75315 0.65494 0.0
H558 H 0.61598 0.73183 0.69045 0.0
H559 H 0.58864 0.77439 0.64032 0.0
H560 H 0.62642 0.79625 0.60491 0.0
H561 H 0.65289 0.78469 0.43316 0.0
H562 H 0.65639 0.77349 0.49479 0.0
H563 H 0.70918 0.84863 0.51753 0.0
H564 H 0.70633 0.85971 0.45629 0.0
H565 H 0.64684 0.78483 0.55664 0.0
H566 H 0.75121 0.85501 0.57458 0.0
H567 H 0.78875 0.87185 0.53837 0.0
H568 H 0.75528 0.80921 0.46959 0.0
H569 H 0.71767 0.79178 0.50567 0.0
C570 C 0.6833 0.81999 0.716 0.0
C571 C 0.69813 0.81387 0.73637 0.0
C572 C 0.68049 0.81548 0.67943 0.0
C573 C 0.69202 0.80426 0.66223 0.0
C574 C 0.70706 0.79824 0.68233 0.0
C575 C 0.71012 0.80304 0.71917 0.0
C576 C 0.6892 0.80036 0.62293 0.0
C577 C 0.71024 0.81036 0.60157 0.0
C578 C 0.66598 0.78964 0.60631 0.0
C579 C 0.64302 0.7764 0.62729 0.0
C580 C 0.63977 0.75806 0.6516 0.0
C581 C 0.61833 0.74587 0.67172 0.0
C582 C 0.59993 0.75176 0.66765 0.0
C583 C 0.6029 0.76983 0.64341 0.0
C584 C 0.62431 0.7821 0.62325 0.0
C585 C 0.66524 0.79877 0.45136 0.0
C586 C 0.67946 0.82305 0.43977 0.0
C587 C 0.66726 0.79234 0.48653 0.0
C588 C 0.68349 0.8101 0.51062 0.0
C589 C 0.69712 0.83443 0.49922 0.0
C590 C 0.69531 0.84079 0.46418 0.0
C591 C 0.68571 0.8038 0.54817 0.0
C592 C 0.66456 0.79181 0.56916 0.0
C593 C 0.70878 0.81189 0.5643 0.0
C594 C 0.73154 0.82214 0.5428 0.0
C595 C 0.7519 0.84473 0.5519 0.0
C596 C 0.77319 0.8544 0.53134 0.0
C597 C 0.77439 0.84163 0.50167 0.0
C598 C 0.75431 0.81911 0.49253 0.0
C599 C 0.73299 0.80934 0.513 0.0
H600 H 0.79087 0.84916 0.48578 0.0
H601 H 0.58335 0.74231 0.68326 0.0
H602 H 0.17059 0.82954 0.70859 0.0
H603 H 0.18301 0.8334 0.64588 0.0
H604 H 0.21938 0.7925 0.6671 0.0
H605 H 0.20644 0.78797 0.72991 0.0
H606 H 0.24797 0.83881 0.62732 0.0
H607 H 0.1735 0.76372 0.62286 0.0
H608 H 0.13004 0.73397 0.6329 0.0
H609 H 0.10956 0.77895 0.57344 0.0
H610 H 0.15295 0.80921 0.56355 0.0
H611 H 0.25896 0.82831 0.43245 0.0
H612 H 0.25481 0.82156 0.49747 0.0
H613 H 0.20922 0.85423 0.50267 0.0
H614 H 0.21337 0.86114 0.43842 0.0
H615 H 0.18716 0.80623 0.52921 0.0
H616 H 0.26328 0.88305 0.5386 0.0
H617 H 0.307 0.91095 0.52687 0.0
H618 H 0.32453 0.86017 0.57547 0.0
H619 H 0.28084 0.8318 0.58705 0.0
C620 C 0.18112 0.82125 0.6999 0.0
C621 C 0.1875 0.80842 0.72414 0.0
C622 C 0.18816 0.82343 0.66408 0.0
C623 C 0.20209 0.81322 0.65192 0.0
C624 C 0.20864 0.8005 0.67602 0.0
C625 C 0.20113 0.79784 0.71178 0.0
C626 C 0.20993 0.8163 0.61402 0.0
C627 C 0.23476 0.83133 0.60578 0.0
C628 C 0.19266 0.80662 0.58603 0.0
C629 C 0.16652 0.78891 0.59287 0.0
C630 C 0.15975 0.76747 0.61239 0.0
C631 C 0.13512 0.75045 0.61791 0.0
C632 C 0.11705 0.75459 0.60388 0.0
C633 C 0.12358 0.77578 0.58433 0.0
C634 C 0.1482 0.79287 0.57875 0.0
C635 C 0.24876 0.83478 0.4477 0.0
C636 C 0.23633 0.84508 0.43031 0.0
C637 C 0.24627 0.83078 0.48477 0.0
C638 C 0.23142 0.83711 0.50473 0.0
C639 C 0.22054 0.84898 0.48769 0.0
C640 C 0.22303 0.853 0.45096 0.0
C641 C 0.22506 0.82951 0.54251 0.0
C642 C 0.20044 0.81351 0.55071 0.0
C643 C 0.24255 0.83814 0.57028 0.0
C644 C 0.26877 0.85517 0.56326 0.0
C645 C 0.27643 0.87771 0.54644 0.0
C646 C 0.30121 0.89365 0.53991 0.0
C647 C 0.31853 0.8873 0.5503 0.0
C648 C 0.3111 0.86504 0.56736 0.0
C649 C 0.28633 0.84903 0.57393 0.0
H650 H 0.33771 0.89967 0.54523 0.0
H651 H 0.09799 0.74135 0.6081 0.0
H652 H 0.16478 0.38458 0.4292 0.0
H653 H 0.15791 0.38772 0.49313 0.0
H654 H 0.11455 0.30932 0.4999 0.0
H655 H 0.12128 0.30608 0.43649 0.0
H656 H 0.09731 0.33243 0.54493 0.0
H657 H 0.17284 0.33451 0.51483 0.0
H658 H 0.21223 0.35068 0.48346 0.0
H659 H 0.23757 0.42067 0.53239 0.0
H660 H 0.19812 0.40498 0.5636 0.0
H661 H 0.12212 0.30283 0.72025 0.0
H662 H 0.11438 0.30646 0.65684 0.0
H663 H 0.16131 0.3845 0.66301 0.0
H664 H 0.16927 0.38104 0.72567 0.0
H665 H 0.17533 0.36524 0.61134 0.0
H666 H 0.10079 0.36009 0.64941 0.0
H667 H 0.06119 0.34279 0.68023 0.0
H668 H 0.03359 0.2775 0.61738 0.0
H669 H 0.07323 0.29428 0.58652 0.0
C670 C 0.15325 0.36811 0.44418 0.0
C671 C 0.14393 0.34509 0.42818 0.0
C672 C 0.14935 0.36991 0.4806 0.0
C673 C 0.13597 0.3487 0.50121 0.0
C674 C 0.12492 0.32587 0.48448 0.0
C675 C 0.12898 0.32406 0.44832 0.0
C676 C 0.13642 0.3498 0.54068 0.0
C677 C 0.11431 0.3396 0.5596 0.0
C678 C 0.15865 0.35928 0.55962 0.0
C679 C 0.18244 0.36867 0.54116 0.0
C680 C 0.18674 0.3534 0.51866 0.0
C681 C 0.20908 0.36247 0.50094 0.0
C682 C 0.22737 0.38671 0.50584 0.0
C683 C 0.22337 0.40191 0.52855 0.0
C684 C 0.20102 0.39295 0.54625 0.0
C685 C 0.13037 0.32076 0.70818 0.0
C686 C 0.1466 0.34158 0.72774 0.0
C687 C 0.12587 0.32284 0.67204 0.0
C688 C 0.13735 0.34578 0.65524 0.0
C689 C 0.15239 0.36664 0.67538 0.0
C690 C 0.15697 0.36458 0.7112 0.0
C691 C 0.13618 0.34795 0.61598 0.0
C692 C 0.15826 0.35853 0.59696 0.0
C693 C 0.11389 0.33865 0.59715 0.0
C694 C 0.0901 0.32836 0.6159 0.0
C695 C 0.08638 0.34194 0.64241 0.0
C696 C 0.06388 0.33224 0.65983 0.0
C697 C 0.04488 0.30902 0.65085 0.0
C698 C 0.04834 0.29547 0.62436 0.0
C699 C 0.07082 0.30507 0.60687 0.0
H700 H 0.02747 0.30152 0.66435 0.0
H701 H 0.24465 0.3937 0.49211 0.0
H702 H 0.69543 0.87962 0.22765 0.0
H703 H 0.70069 0.87657 0.16365 0.0
H704 H 0.65314 0.79861 0.16861 0.0
H705 H 0.64779 0.80152 0.23302 0.0
H706 H 0.69687 0.81155 0.13602 0.0
H707 H 0.6345 0.8324 0.12505 0.0
H708 H 0.61366 0.85583 0.13664 0.0
H709 H 0.67484 0.92019 0.09342 0.0
H710 H 0.69622 0.89723 0.08203 0.0
H711 H 0.69992 0.79791 0.94706 0.0
H712 H 0.69185 0.79742 0.01097 0.0
H713 H 0.72653 0.87603 0.01058 0.0
H714 H 0.73306 0.87618 0.94599 0.0
H715 H 0.68574 0.85953 0.04077 0.0
H716 H 0.75076 0.84164 0.05949 0.0
H717 H 0.77348 0.81975 0.05033 0.0
H718 H 0.71 0.75231 0.07987 0.0
H719 H 0.6869 0.77382 0.0891 0.0
C720 C 0.68563 0.86187 0.21503 0.0
C721 C 0.67118 0.84081 0.23542 0.0
C722 C 0.68864 0.86016 0.17839 0.0
C723 C 0.67729 0.83736 0.16133 0.0
C724 C 0.66205 0.81638 0.18129 0.0
C725 C 0.65884 0.8181 0.218 0.0
C726 C 0.68297 0.83552 0.12336 0.0
C727 C 0.69416 0.82177 0.11503 0.0
C728 C 0.67986 0.84924 0.09619 0.0
C729 C 0.66704 0.86312 0.10294 0.0
C730 C 0.6436 0.8516 0.11828 0.0
C731 C 0.63167 0.86479 0.12476 0.0
C732 C 0.64294 0.8895 0.11584 0.0
C733 C 0.66614 0.90106 0.10034 0.0
C734 C 0.67816 0.88795 0.09382 0.0
C735 C 0.70669 0.8151 0.96105 0.0
C736 C 0.71763 0.83713 0.94205 0.0
C737 C 0.70203 0.81485 0.99762 0.0
C738 C 0.70874 0.83672 0.01597 0.0
C739 C 0.72111 0.85889 0.99717 0.0
C740 C 0.72519 0.85906 0.96041 0.0
C741 C 0.70066 0.83634 0.05352 0.0
C742 C 0.6887 0.84943 0.0617 0.0
C743 C 0.7034 0.82232 0.08069 0.0
C744 C 0.71709 0.80929 0.07471 0.0
C745 C 0.74162 0.82211 0.06377 0.0
C746 C 0.75457 0.80979 0.05867 0.0
C747 C 0.74317 0.78465 0.06444 0.0
C748 C 0.71879 0.77177 0.07535 0.0
C749 C 0.70578 0.78402 0.08059 0.0
H750 H 0.75324 0.77514 0.06051 0.0
H751 H 0.63368 0.89968 0.12087 0.0
H752 H 0.16155 0.82233 0.9441 0.0
H753 H 0.17369 0.82423 0.00631 0.0
H754 H 0.18891 0.76589 0.98782 0.0
H755 H 0.17663 0.76374 0.92514 0.0
H756 H 0.16777 0.76224 0.05406 0.0
H757 H 0.23528 0.82158 0.98843 0.0
H758 H 0.25752 0.85519 0.94572 0.0
H759 H 0.24266 0.90231 0.01043 0.0
H760 H 0.21999 0.86885 0.05334 0.0
H761 H 0.23473 0.79856 0.2225 0.0
H762 H 0.22854 0.79038 0.15773 0.0
H763 H 0.19685 0.83676 0.15043 0.0
H764 H 0.20231 0.84438 0.21463 0.0
H765 H 0.23244 0.84388 0.09497 0.0
H766 H 0.15971 0.78039 0.15538 0.0
H767 H 0.13867 0.74606 0.19745 0.0
H768 H 0.16672 0.70617 0.14102 0.0
H769 H 0.18823 0.74047 0.09891 0.0
C770 C 0.16705 0.80956 0.95327 0.0
C771 C 0.16831 0.79302 0.92947 0.0
C772 C 0.17414 0.81079 0.98887 0.0
C773 C 0.18276 0.7956 0.00149 0.0
C774 C 0.18252 0.77793 0.97853 0.0
C775 C 0.17541 0.77668 0.94275 0.0
C776 C 0.19298 0.7992 0.03818 0.0
C777 C 0.18226 0.77995 0.06282 0.0
C778 C 0.21201 0.82229 0.04961 0.0
C779 C 0.22573 0.8426 0.02399 0.0
C780 C 0.23657 0.83905 0.99343 0.0
C781 C 0.24928 0.85809 0.96919 0.0
C782 C 0.25144 0.88086 0.97528 0.0
C783 C 0.24095 0.88465 0.00572 0.0
C784 C 0.22818 0.86565 0.03005 0.0
C785 C 0.22669 0.80714 0.20688 0.0
C786 C 0.21885 0.82196 0.22351 0.0
C787 C 0.22311 0.80243 0.17004 0.0
C788 C 0.21218 0.81295 0.1494 0.0
C789 C 0.20532 0.8285 0.16586 0.0
C790 C 0.20835 0.83273 0.20255 0.0
C791 C 0.20668 0.80716 0.11094 0.0
C792 C 0.21833 0.82605 0.08596 0.0
C793 C 0.18882 0.78369 0.09913 0.0
C794 C 0.17583 0.7631 0.12433 0.0
C795 C 0.16159 0.7644 0.15217 0.0
C796 C 0.14954 0.74493 0.17597 0.0
C797 C 0.15143 0.72398 0.17199 0.0
C798 C 0.16532 0.72243 0.14413 0.0
C799 C 0.17744 0.74187 0.12029 0.0
H800 H 0.14208 0.70892 0.19043 0.0
H801 H 0.26129 0.89558 0.95648 0.0
H802 H 0.15097 0.28895 0.92955 0.0
H803 H 0.15314 0.28715 0.99501 0.0
H804 H 0.20137 0.36516 0.99825 0.0
H805 H 0.20027 0.36687 0.93379 0.0
H806 H 0.21662 0.34669 0.04382 0.0
H807 H 0.13793 0.33541 0.01355 0.0
H808 H 0.09713 0.31573 0.98577 0.0
H809 H 0.07685 0.24997 0.04428 0.0
H810 H 0.11765 0.26921 0.07213 0.0
H811 H 0.19143 0.37527 0.22017 0.0
H812 H 0.19322 0.37165 0.15493 0.0
H813 H 0.16534 0.29434 0.16552 0.0
H814 H 0.16392 0.29774 0.23018 0.0
H815 H 0.14006 0.30919 0.11454 0.0
H816 H 0.22062 0.32472 0.14754 0.0
H817 H 0.26066 0.34827 0.177 0.0
H818 H 0.27643 0.41095 0.11349 0.0
H819 H 0.2363 0.38786 0.08403 0.0
C820 C 0.16223 0.30559 0.94435 0.0
C821 C 0.17546 0.328 0.9265 0.0
C822 C 0.16338 0.3046 0.9817 0.0
C823 C 0.17723 0.32609 0.00165 0.0
C824 C 0.19071 0.3483 0.9836 0.0
C825 C 0.18998 0.34922 0.94657 0.0
C826 C 0.17727 0.3261 0.04133 0.0
C827 C 0.19982 0.33857 0.05916 0.0
C828 C 0.15541 0.31535 0.06157 0.0
C829 C 0.13093 0.30367 0.04462 0.0
C830 C 0.12482 0.3167 0.0203 0.0
C831 C 0.10169 0.30563 0.00457 0.0
C832 C 0.08443 0.28159 0.01318 0.0
C833 C 0.09026 0.26858 0.03759 0.0
C834 C 0.11338 0.27956 0.05336 0.0
C835 C 0.18593 0.35758 0.20856 0.0
C836 C 0.17762 0.33684 0.23031 0.0
C837 C 0.18694 0.35554 0.17142 0.0
C838 C 0.17935 0.3327 0.15566 0.0
C839 C 0.17122 0.31208 0.17729 0.0
C840 C 0.17058 0.31414 0.21426 0.0
C841 C 0.17928 0.33007 0.11648 0.0
C842 C 0.15676 0.31707 0.09895 0.0
C843 C 0.20109 0.34084 0.09646 0.0
C844 C 0.22536 0.35463 0.11383 0.0
C845 C 0.23254 0.34358 0.14006 0.0
C846 C 0.25527 0.35684 0.15672 0.0
C847 C 0.27105 0.38111 0.14719 0.0
C848 C 0.26417 0.39215 0.12088 0.0
C849 C 0.24145 0.37898 0.10417 0.0
H850 H 0.28864 0.39135 0.16014 0.0
H851 H 0.06652 0.27305 0.001 0.0
H852 H 0.25821 0.13124 0.05247 0.0
H853 H 0.25581 0.12437 0.98759 0.0
H854 H 0.33317 0.1507 0.98441 0.0
H855 H 0.33573 0.15726 0.04882 0.0
H856 H 0.31588 0.17309 0.93443 0.0
H857 H 0.29779 0.09328 0.977 0.0
H858 H 0.27423 0.0554 0.01161 0.0
H859 H 0.20925 0.03967 0.95406 0.0
H860 H 0.2324 0.07768 0.91943 0.0
H861 H 0.34331 0.15078 0.76608 0.0
H862 H 0.33765 0.14606 0.83067 0.0
H863 H 0.25961 0.11061 0.81675 0.0
H864 H 0.26512 0.1147 0.75177 0.0
H865 H 0.27243 0.09223 0.87484 0.0
H866 H 0.2902 0.16925 0.82822 0.0
H867 H 0.31321 0.20625 0.79164 0.0
H868 H 0.37658 0.22845 0.85714 0.0
H869 H 0.35427 0.19106 0.89326 0.0
C870 C 0.27464 0.13536 0.03794 0.0
C871 C 0.29715 0.14477 0.05575 0.0
C872 C 0.27323 0.13139 0.00098 0.0
C873 C 0.29434 0.13707 0.98138 0.0
C874 C 0.31671 0.14625 0.99915 0.0
C875 C 0.31809 0.14988 0.03599 0.0
C876 C 0.29356 0.13433 0.94212 0.0
C877 C 0.30654 0.15543 0.92137 0.0
C878 C 0.28063 0.11132 0.92522 0.0
C879 C 0.26675 0.08847 0.94595 0.0
C880 C 0.27843 0.08187 0.97197 0.0
C881 C 0.26516 0.06035 0.99154 0.0
C882 C 0.24024 0.04518 0.98513 0.0
C883 C 0.22855 0.05147 0.95905 0.0
C884 C 0.24173 0.07299 0.93944 0.0
C885 C 0.32491 0.14146 0.7767 0.0
C886 C 0.30467 0.13348 0.754 0.0
C887 C 0.3217 0.13877 0.81359 0.0
C888 C 0.29825 0.12856 0.82843 0.0
C889 C 0.27786 0.11868 0.80576 0.0
C890 C 0.28105 0.12107 0.76869 0.0
C891 C 0.29543 0.13095 0.86725 0.0
C892 C 0.28164 0.10991 0.88784 0.0
C893 C 0.30735 0.15411 0.88408 0.0
C894 C 0.3206 0.17714 0.86325 0.0
C895 C 0.30911 0.18188 0.83464 0.0
C896 C 0.32207 0.20287 0.81387 0.0
C897 C 0.34637 0.21963 0.82197 0.0
C898 C 0.35777 0.21541 0.85084 0.0
C899 C 0.345 0.19426 0.8714 0.0
H900 H 0.35632 0.23595 0.80598 0.0
H901 H 0.23 0.02852 0.00029 0.0
H902 H 0.88035 0.18788 0.78422 0.0
H903 H 0.8767 0.17709 0.84733 0.0
H904 H 0.80001 0.15404 0.84448 0.0
H905 H 0.8036 0.16511 0.78101 0.0
H906 H 0.81989 0.17481 0.90844 0.0
H907 H 0.81552 0.11172 0.83681 0.0
H908 H 0.82676 0.0925 0.78885 0.0
H909 H 0.8955 0.11496 0.84013 0.0
H910 H 0.88476 0.13461 0.88829 0.0
H911 H 0.79651 0.09836 0.06251 0.0
H912 H 0.79691 0.10452 0.99758 0.0
H913 H 0.8739 0.15646 0.00198 0.0
H914 H 0.87344 0.15094 0.06699 0.0
H915 H 0.8491 0.11698 0.93657 0.0
H916 H 0.84842 0.18199 0.00927 0.0
H917 H 0.83012 0.19459 0.0569 0.0
H918 H 0.76195 0.16138 0.0004 0.0
H919 H 0.77961 0.14773 0.95308 0.0
C920 C 0.8628 0.18107 0.79717 0.0
C921 C 0.84221 0.17714 0.7775 0.0
C922 C 0.86071 0.17475 0.83323 0.0
C923 C 0.83795 0.16414 0.85038 0.0
C924 C 0.81772 0.16201 0.83168 0.0
C925 C 0.81982 0.16847 0.79546 0.0
C926 C 0.83525 0.15384 0.8869 0.0
C927 C 0.82606 0.16201 0.91447 0.0
C928 C 0.84281 0.1367 0.89475 0.0
C929 C 0.84943 0.12485 0.866 0.0
C930 C 0.83312 0.11274 0.83773 0.0
C931 C 0.83938 0.10173 0.81052 0.0
C932 C 0.86187 0.10257 0.81135 0.0
C933 C 0.87809 0.11436 0.83949 0.0
C934 C 0.87192 0.12541 0.8668 0.0
C935 C 0.81369 0.1103 0.04932 0.0
C936 C 0.83507 0.12388 0.06942 0.0
C937 C 0.81382 0.114 0.01242 0.0
C938 C 0.83535 0.13111 0.99525 0.0
C939 C 0.85714 0.14313 0.01484 0.0
C940 C 0.85691 0.13988 0.05183 0.0
C941 C 0.83464 0.13869 0.95806 0.0
C942 C 0.843 0.12982 0.93039 0.0
C943 C 0.82553 0.15452 0.94997 0.0
C944 C 0.8152 0.16336 0.97801 0.0
C945 C 0.82942 0.17698 0.00729 0.0
C946 C 0.81916 0.18435 0.03423 0.0
C947 C 0.79482 0.17861 0.03184 0.0
C948 C 0.78076 0.16567 0.00235 0.0
C949 C 0.79087 0.15808 0.97549 0.0
H950 H 0.7869 0.18432 0.05271 0.0
H951 H 0.86668 0.09404 0.79025 0.0
H952 H 0.84909 0.66203 0.07028 0.0
H953 H 0.84533 0.65013 0.00801 0.0
H954 H 0.77088 0.63539 0.007 0.0
H955 H 0.77414 0.64565 0.07094 0.0
H956 H 0.77165 0.60257 0.97107 0.0
H957 H 0.82365 0.68909 0.9672 0.0
H958 H 0.85865 0.7294 0.98221 0.0
H959 H 0.9082 0.7063 0.94533 0.0
H960 H 0.87352 0.66578 0.93042 0.0
H961 H 0.77901 0.62426 0.77895 0.0
H962 H 0.7742 0.62327 0.84394 0.0
H963 H 0.83027 0.604 0.85576 0.0
H964 H 0.83459 0.60417 0.79046 0.0
H965 H 0.8377 0.65233 0.88501 0.0
H966 H 0.78255 0.56551 0.88602 0.0
H967 H 0.74594 0.52756 0.86709 0.0
H968 H 0.70022 0.55518 0.90462 0.0
H969 H 0.73659 0.59348 0.9233 0.0
C970 C 0.83199 0.65657 0.05669 0.0
C971 C 0.81202 0.65521 0.07513 0.0
C972 C 0.82987 0.64979 0.02094 0.0
C973 C 0.80806 0.64247 0.00225 0.0
C974 C 0.78799 0.64111 0.02069 0.0
C975 C 0.78986 0.64713 0.05706 0.0
C976 C 0.80624 0.63564 0.96384 0.0
C977 C 0.78597 0.61371 0.95223 0.0
C978 C 0.82505 0.64988 0.93906 0.0
C979 C 0.84596 0.67429 0.94807 0.0
C980 C 0.84201 0.69254 0.96254 0.0
C981 C 0.8618 0.71545 0.97097 0.0
C982 C 0.88564 0.72039 0.96483 0.0
C983 C 0.88974 0.70244 0.95015 0.0
C984 C 0.87002 0.67952 0.94165 0.0
C985 C 0.78962 0.61889 0.79542 0.0
C986 C 0.80718 0.61431 0.77997 0.0
C987 C 0.78682 0.61828 0.83242 0.0
C988 C 0.80188 0.61356 0.85442 0.0
C989 C 0.81836 0.60745 0.839 0.0
C990 C 0.82076 0.60748 0.80185 0.0
C991 C 0.80341 0.6194 0.8928 0.0
C992 C 0.82354 0.64128 0.90416 0.0
C993 C 0.78422 0.60552 0.91686 0.0
C994 C 0.76233 0.58247 0.90575 0.0
C995 C 0.76471 0.5636 0.88992 0.0
C996 C 0.74399 0.542 0.87931 0.0
C997 C 0.72077 0.53898 0.88456 0.0
C998 C 0.71822 0.55755 0.90053 0.0
C999 C 0.73888 0.5792 0.91117 0.0
H1000 H 0.70475 0.52224 0.87633 0.0
H1001 H 0.90093 0.73814 0.97134 0.0
H1002 H 0.33661 0.20414 0.26381 0.0
H1003 H 0.33275 0.20444 0.3286 0.0
H1004 H 0.25445 0.16098 0.31951 0.0
H1005 H 0.25816 0.1609 0.25418 0.0
H1006 H 0.27192 0.19529 0.3794 0.0
H1007 H 0.28114 0.13171 0.32698 0.0
H1008 H 0.30003 0.11588 0.28521 0.0
H1009 H 0.368 0.1548 0.34162 0.0
H1010 H 0.34981 0.17178 0.38284 0.0
H1011 H 0.26396 0.14297 0.55512 0.0
H1012 H 0.25871 0.14703 0.491 0.0
H1013 H 0.33655 0.19311 0.47934 0.0
H1014 H 0.34197 0.18947 0.54325 0.0
H1015 H 0.31388 0.15331 0.4295 0.0
H1016 H 0.30439 0.21922 0.4783 0.0
H1017 H 0.28534 0.23644 0.51734 0.0
H1018 H 0.21585 0.19032 0.46796 0.0
H1019 H 0.23444 0.17258 0.42894 0.0
C1020 C 0.31851 0.19526 0.2755 0.0
C1021 C 0.2977 0.18211 0.25413 0.0
C1022 C 0.31634 0.19551 0.31248 0.0
C1023 C 0.29336 0.1823 0.3287 0.0
C1024 C 0.27233 0.17121 0.30735 0.0
C1025 C 0.27449 0.17115 0.27011 0.0
C1026 C 0.29199 0.17695 0.36732 0.0
C1027 C 0.28072 0.18578 0.3904 0.0
C1028 C 0.30344 0.16443 0.38143 0.0
C1029 C 0.31416 0.15328 0.3578 0.0
C1030 C 0.3002 0.13715 0.33027 0.0
C1031 C 0.31081 0.12806 0.30655 0.0
C1032 C 0.33523 0.13441 0.31065 0.0
C1033 C 0.34909 0.14993 0.33844 0.0
C1034 C 0.33866 0.15937 0.36192 0.0
C1035 C 0.27993 0.15406 0.5389 0.0
C1036 C 0.30338 0.16593 0.55419 0.0
C1037 C 0.27688 0.15639 0.50237 0.0
C1038 C 0.29725 0.17037 0.48061 0.0
C1039 C 0.32064 0.18223 0.4958 0.0
C1040 C 0.32367 0.18021 0.53231 0.0
C1041 C 0.29445 0.1723 0.44176 0.0
C1042 C 0.30483 0.16259 0.41854 0.0
C1043 C 0.28189 0.18368 0.42762 0.0
C1044 C 0.27074 0.19437 0.45102 0.0
C1045 C 0.285 0.21258 0.47601 0.0
C1046 C 0.2743 0.22247 0.49808 0.0
C1047 C 0.24938 0.21442 0.49522 0.0
C1048 C 0.23513 0.19651 0.4702 0.0
C1049 C 0.24574 0.18654 0.44809 0.0
H1050 H 0.24113 0.22211 0.51232 0.0
H1051 H 0.34336 0.12722 0.2924 0.0
H1052 H 0.81354 0.09268 0.28436 0.0
H1053 H 0.80882 0.09374 0.34932 0.0
H1054 H 0.79154 0.15121 0.33678 0.0
H1055 H 0.79671 0.15058 0.27239 0.0
H1056 H 0.82572 0.16445 0.38347 0.0
H1057 H 0.74845 0.09354 0.36624 0.0
H1058 H 0.71819 0.05226 0.34573 0.0
H1059 H 0.75381 0.02181 0.40718 0.0
H1060 H 0.78445 0.06295 0.42781 0.0
H1061 H 0.80004 0.16902 0.56838 0.0
H1062 H 0.79061 0.15907 0.50478 0.0
H1063 H 0.82711 0.11698 0.50707 0.0
H1064 H 0.83708 0.12727 0.57017 0.0
H1065 H 0.7799 0.09527 0.46674 0.0
H1066 H 0.85908 0.16926 0.47912 0.0
H1067 H 0.88623 0.21095 0.50148 0.0
H1068 H 0.84252 0.2359 0.44853 0.0
H1069 H 0.81486 0.19422 0.42635 0.0
C1070 C 0.80829 0.10519 0.29546 0.0
C1071 C 0.80578 0.12172 0.27329 0.0
C1072 C 0.80551 0.10575 0.3326 0.0
C1073 C 0.79986 0.12262 0.34804 0.0
C1074 C 0.79609 0.13818 0.32562 0.0
C1075 C 0.79906 0.13778 0.28874 0.0
C1076 C 0.80022 0.12583 0.38749 0.0
C1077 C 0.8153 0.14931 0.4015 0.0
C1078 C 0.78694 0.10612 0.41128 0.0
C1079 C 0.76892 0.08138 0.39828 0.0
C1080 C 0.75001 0.07808 0.37508 0.0
C1081 C 0.73273 0.05469 0.36352 0.0
C1082 C 0.73412 0.03443 0.37507 0.0
C1083 C 0.75278 0.03752 0.39822 0.0
C1084 C 0.77009 0.06087 0.4099 0.0
C1085 C 0.80575 0.15739 0.55541 0.0
C1086 C 0.81947 0.1491 0.5741 0.0
C1087 C 0.80034 0.15171 0.51917 0.0
C1088 C 0.80818 0.1373 0.50134 0.0
C1089 C 0.82082 0.12803 0.52042 0.0
C1090 C 0.82664 0.13408 0.55637 0.0
C1091 C 0.80531 0.13373 0.46215 0.0
C1092 C 0.78998 0.11029 0.44837 0.0
C1093 C 0.818 0.1535 0.43843 0.0
C1094 C 0.83475 0.17858 0.45146 0.0
C1095 C 0.85513 0.18359 0.47253 0.0
C1096 C 0.87064 0.20722 0.48512 0.0
C1097 C 0.86606 0.22605 0.47653 0.0
C1098 C 0.84601 0.22129 0.45523 0.0
C1099 C 0.83042 0.19767 0.44264 0.0
H1100 H 0.87809 0.24434 0.48629 0.0
H1101 H 0.72069 0.01634 0.36616 0.0
H1102 H 0.83941 0.67119 0.57237 0.0
H1103 H 0.83853 0.66996 0.50773 0.0
H1104 H 0.84532 0.6054 0.50926 0.0
H1105 H 0.84517 0.60591 0.57486 0.0
H1106 H 0.86704 0.67362 0.4579 0.0
H1107 H 0.81181 0.56867 0.43605 0.0
H1108 H 0.78277 0.53155 0.46884 0.0
H1109 H 0.76124 0.57367 0.53354 0.0
H1110 H 0.78974 0.6109 0.50068 0.0
H1111 H 0.86357 0.65638 0.27483 0.0
H1112 H 0.86727 0.6494 0.338 0.0
H1113 H 0.79059 0.62394 0.35304 0.0
H1114 H 0.78658 0.63 0.28911 0.0
H1115 H 0.80443 0.59934 0.39549 0.0
H1116 H 0.83266 0.68279 0.36908 0.0
H1117 H 0.85648 0.72184 0.33729 0.0
H1118 H 0.92316 0.72658 0.37326 0.0
H1119 H 0.89973 0.68722 0.40459 0.0
C1120 C 0.84098 0.6568 0.55916 0.0
C1121 C 0.84213 0.63849 0.57884 0.0
C1122 C 0.84055 0.65618 0.52203 0.0
C1123 C 0.84154 0.63742 0.50358 0.0
C1124 C 0.84409 0.61981 0.523 0.0
C1125 C 0.84417 0.62021 0.56043 0.0
C1126 C 0.83879 0.63611 0.46416 0.0
C1127 C 0.85349 0.65727 0.44429 0.0
C1128 C 0.82063 0.61499 0.44646 0.0
C1129 C 0.80317 0.59264 0.46616 0.0
C1130 C 0.80082 0.56999 0.45718 0.0
C1131 C 0.78442 0.54892 0.47577 0.0
C1132 C 0.77021 0.55026 0.50332 0.0
C1133 C 0.7723 0.57265 0.51226 0.0
C1134 C 0.78858 0.59375 0.49366 0.0
C1135 C 0.84742 0.64899 0.29151 0.0
C1136 C 0.82487 0.64412 0.27736 0.0
C1137 C 0.84956 0.64498 0.32756 0.0
C1138 C 0.82934 0.6367 0.35036 0.0
C1139 C 0.80644 0.63044 0.3359 0.0
C1140 C 0.80418 0.634 0.2995 0.0
C1141 C 0.83272 0.63681 0.38953 0.0
C1142 C 0.81818 0.6155 0.4092 0.0
C1143 C 0.85025 0.65813 0.40746 0.0
C1144 C 0.86444 0.68191 0.38886 0.0
C1145 C 0.85241 0.69206 0.36999 0.0
C1146 C 0.86583 0.71426 0.35208 0.0
C1147 C 0.89131 0.72669 0.35325 0.0
C1148 C 0.90342 0.71692 0.37235 0.0
C1149 C 0.89008 0.69465 0.39016 0.0
H1150 H 0.90167 0.7439 0.33941 0.0
H1151 H 0.75756 0.53394 0.5177 0.0
H1152 H 0.08752 0.51828 0.97647 0.0
H1153 H 0.10954 0.49929 0.95181 0.0
H1154 H 0.04468 0.42862 0.95958 0.0
H1155 H 0.02222 0.44764 0.98462 0.0
H1156 H 0.08578 0.42782 0.98172 0.0
H1157 H 0.06179 0.45618 0.88009 0.0
H1158 H 0.05722 0.48542 0.84201 0.0
H1159 H 0.13511 0.53085 0.83632 0.0
H1160 H 0.14017 0.50206 0.87487 0.0
H1161 H 0.12428 0.36481 0.86783 0.0
H1162 H 0.10312 0.38408 0.89436 0.0
H1163 H 0.16839 0.45438 0.88593 0.0
H1164 H 0.19001 0.43506 0.85884 0.0
H1165 H 0.12735 0.45558 0.86447 0.0
H1166 H 0.15085 0.42611 0.96606 0.0
H1167 H 0.15458 0.39637 0.00419 0.0
H1168 H 0.07654 0.35212 0.00916 0.0
H1169 H 0.07232 0.3814 0.97062 0.0
C1170 C 0.07781 0.49866 0.97316 0.0
C1171 C 0.05296 0.48451 0.98246 0.0
C1172 C 0.09049 0.48784 0.95882 0.0
C1173 C 0.07872 0.46258 0.95325 0.0
C1174 C 0.05412 0.4482 0.96346 0.0
C1175 C 0.0413 0.45907 0.97778 0.0
C1176 C 0.0923 0.45144 0.93673 0.0
C1177 C 0.09456 0.43361 0.95584 0.0
C1178 C 0.10432 0.45946 0.90334 0.0
C1179 C 0.10136 0.47705 0.88065 0.0
C1180 C 0.07795 0.47253 0.87105 0.0
C1181 C 0.07527 0.48899 0.84932 0.0
C1182 C 0.09586 0.50996 0.83677 0.0
C1183 C 0.11918 0.51458 0.84607 0.0
C1184 C 0.12197 0.49819 0.86784 0.0
C1185 C 0.13431 0.38441 0.8715 0.0
C1186 C 0.15899 0.39837 0.8612 0.0
C1187 C 0.12211 0.39538 0.88694 0.0
C1188 C 0.1342 0.42063 0.89271 0.0
C1189 C 0.15872 0.43481 0.88192 0.0
C1190 C 0.17106 0.42377 0.86647 0.0
C1191 C 0.12089 0.43197 0.90949 0.0
C1192 C 0.11864 0.44982 0.8904 0.0
C1193 C 0.10877 0.42387 0.94281 0.0
C1194 C 0.11128 0.4059 0.96523 0.0
C1195 C 0.13448 0.40991 0.97495 0.0
C1196 C 0.13668 0.39316 0.99671 0.0
C1197 C 0.11581 0.37241 0.00913 0.0
C1198 C 0.09269 0.36824 0.99956 0.0
C1199 C 0.09038 0.38491 0.97778 0.0
H1200 H 0.11753 0.35965 0.02636 0.0
H1201 H 0.09375 0.52255 0.81968 0.0
H1202 H 0.66091 0.75298 0.85749 0.0
H1203 H 0.63433 0.71185 0.87903 0.0
H1204 H 0.57801 0.72949 0.90115 0.0
H1205 H 0.605 0.77142 0.87987 0.0
H1206 H 0.58387 0.70475 0.95652 0.0
H1207 H 0.57259 0.69323 0.83059 0.0
H1208 H 0.58495 0.69686 0.76737 0.0
H1209 H 0.62229 0.65727 0.78901 0.0
H1210 H 0.61049 0.65374 0.85251 0.0
H1211 H 0.49538 0.57992 0.98766 0.0
H1212 H 0.51791 0.62142 0.96439 0.0
H1213 H 0.57923 0.61168 0.94069 0.0
H1214 H 0.55667 0.56987 0.96386 0.0
H1215 H 0.568 0.63231 0.88477 0.0
H1216 H 0.58112 0.64585 0.01113 0.0
H1217 H 0.56855 0.6419 0.0743 0.0
H1218 H 0.52731 0.67738 0.05147 0.0
H1219 H 0.53935 0.68122 0.98801 0.0
C1220 C 0.64282 0.74824 0.86665 0.0
C1221 C 0.63511 0.76562 0.86683 0.0
C1222 C 0.62755 0.72455 0.87886 0.0
C1223 C 0.60402 0.71739 0.89135 0.0
C1224 C 0.59608 0.73457 0.89149 0.0
C1225 C 0.61145 0.75848 0.87915 0.0
C1226 C 0.58832 0.69213 0.90512 0.0
C1227 C 0.57998 0.68888 0.94059 0.0
C1228 C 0.58373 0.67139 0.88467 0.0
C1229 C 0.59079 0.67339 0.84641 0.0
C1230 C 0.58359 0.68546 0.82194 0.0
C1231 C 0.59048 0.68748 0.78604 0.0
C1232 C 0.60443 0.67734 0.7742 0.0
C1233 C 0.61149 0.66513 0.79823 0.0
C1234 C 0.60469 0.66309 0.83418 0.0
C1235 C 0.51372 0.58658 0.9777 0.0
C1236 C 0.52422 0.57151 0.97771 0.0
C1237 C 0.52661 0.6104 0.96448 0.0
C1238 C 0.55034 0.61978 0.951 0.0
C1239 C 0.56094 0.60484 0.95099 0.0
C1240 C 0.54807 0.58098 0.9644 0.0
C1241 C 0.56383 0.64498 0.93623 0.0
C1242 C 0.57174 0.64818 0.90058 0.0
C1243 C 0.56798 0.66563 0.9565 0.0
C1244 C 0.56093 0.66359 0.99473 0.0
C1245 C 0.56922 0.65264 0.01952 0.0
C1246 C 0.56221 0.65045 0.05539 0.0
C1247 C 0.54708 0.65932 0.06687 0.0
C1248 C 0.539 0.67048 0.04252 0.0
C1249 C 0.54592 0.67269 0.0066 0.0
H1250 H 0.54166 0.65758 0.09465 0.0
H1251 H 0.60974 0.67892 0.74639 0.0
H1252 H 0.23437 0.90507 0.85635 0.0
H1253 H 0.27597 0.93128 0.87887 0.0
H1254 H 0.28795 0.86994 0.87821 0.0
H1255 H 0.24663 0.84374 0.85611 0.0
H1256 H 0.30383 0.89519 0.93977 0.0
H1257 H 0.3124 0.91379 0.81378 0.0
H1258 H 0.30286 0.92707 0.75709 0.0
H1259 H 0.32208 0.99635 0.80388 0.0
H1260 H 0.33142 0.98335 0.86103 0.0
H1261 H 0.43313 0.95387 0.95476 0.0
H1262 H 0.39039 0.92995 0.93632 0.0
H1263 H 0.38526 0.99536 0.93392 0.0
H1264 H 0.42802 0.01942 0.95177 0.0
H1265 H 0.36502 0.96948 0.87608 0.0
H1266 H 0.35853 0.95225 0.001 0.0
H1267 H 0.36748 0.93921 0.05835 0.0
H1268 H 0.34364 0.86793 0.01515 0.0
H1269 H 0.33488 0.88064 0.95734 0.0
C1270 C 0.24593 0.89721 0.86076 0.0
C1271 C 0.23712 0.87229 0.85417 0.0
C1272 C 0.26973 0.91223 0.87362 0.0
C1273 C 0.2852 0.90263 0.88008 0.0
C1274 C 0.27641 0.87779 0.87349 0.0
C1275 C 0.25274 0.86284 0.86064 0.0
C1276 C 0.3105 0.91822 0.89393 0.0
C1277 C 0.31728 0.91131 0.92566 0.0
C1278 C 0.32792 0.93965 0.87612 0.0
C1279 C 0.32234 0.94749 0.84179 0.0
C1280 C 0.31439 0.93178 0.81207 0.0
C1281 C 0.30906 0.93927 0.77984 0.0
C1282 C 0.31179 0.96251 0.77692 0.0
C1283 C 0.31993 0.97834 0.8062 0.0
C1284 C 0.32526 0.97092 0.83851 0.0
C1285 C 0.42288 0.96317 0.95055 0.0
C1286 C 0.4341 0.98862 0.95482 0.0
C1287 C 0.39836 0.94943 0.94012 0.0
C1288 C 0.38441 0.96076 0.93399 0.0
C1289 C 0.39555 0.98614 0.93844 0.0
C1290 C 0.42005 0.99988 0.94879 0.0
C1291 C 0.35849 0.94634 0.92182 0.0
C1292 C 0.35157 0.95346 0.89039 0.0
C1293 C 0.34089 0.92516 0.94002 0.0
C1294 C 0.34631 0.9175 0.97469 0.0
C1295 C 0.35542 0.93386 0.00361 0.0
C1296 C 0.36041 0.92652 0.03623 0.0
C1297 C 0.35621 0.90278 0.04036 0.0
C1298 C 0.34694 0.88633 0.0119 0.0
C1299 C 0.34194 0.89359 0.9792 0.0
H1300 H 0.36007 0.89713 0.06565 0.0
H1301 H 0.30766 0.96828 0.75194 0.0
H1302 H 0.51346 0.09624 0.53001 0.0
H1303 H 0.48684 0.11002 0.55535 0.0
H1304 H 0.42484 0.03794 0.54268 0.0
H1305 H 0.45158 0.0236 0.51805 0.0
H1306 H 0.42315 0.08354 0.51391 0.0
H1307 H 0.43581 0.04697 0.61593 0.0
H1308 H 0.45601 0.03729 0.66419 0.0
H1309 H 0.49052 0.1114 0.70088 0.0
H1310 H 0.47134 0.12185 0.6519 0.0
H1311 H 0.34112 0.11101 0.60832 0.0
H1312 H 0.36296 0.09067 0.58687 0.0
H1313 H 0.43107 0.15191 0.62155 0.0
H1314 H 0.40936 0.17246 0.64303 0.0
H1315 H 0.42662 0.10775 0.64082 0.0
H1316 H 0.41623 0.14449 0.53457 0.0
H1317 H 0.39268 0.15274 0.4898 0.0
H1318 H 0.35141 0.07647 0.46426 0.0
H1319 H 0.37449 0.06772 0.50929 0.0
C1320 C 0.49417 0.08318 0.53259 0.0
C1321 C 0.48472 0.05872 0.52202 0.0
C1322 C 0.47902 0.09112 0.54737 0.0
C1323 C 0.45395 0.07497 0.55142 0.0
C1324 C 0.44422 0.05065 0.54016 0.0
C1325 C 0.45951 0.0425 0.52604 0.0
C1326 C 0.43805 0.0841 0.56582 0.0
C1327 C 0.42359 0.08844 0.5418 0.0
C1328 C 0.43903 0.09099 0.60211 0.0
C1329 C 0.45238 0.0853 0.6297 0.0
C1330 C 0.4482 0.0614 0.63362 0.0
C1331 C 0.45934 0.05572 0.66133 0.0
C1332 C 0.47445 0.07369 0.68569 0.0
C1333 C 0.47869 0.09746 0.68212 0.0
C1334 C 0.46782 0.1033 0.65422 0.0
C1335 C 0.36075 0.12019 0.61146 0.0
C1336 C 0.37346 0.14344 0.6274 0.0
C1337 C 0.37323 0.10854 0.59902 0.0
C1338 C 0.39871 0.1198 0.6023 0.0
C1339 C 0.41142 0.14285 0.61866 0.0
C1340 C 0.39897 0.15461 0.63085 0.0
C1341 C 0.41212 0.10756 0.58884 0.0
C1342 C 0.42618 0.10275 0.61298 0.0
C1343 C 0.41073 0.10017 0.55276 0.0
C1344 C 0.39691 0.10542 0.52559 0.0
C1345 C 0.40199 0.12945 0.51963 0.0
C1346 C 0.38875 0.13423 0.49416 0.0
C1347 C 0.37051 0.11514 0.47427 0.0
C1348 C 0.36552 0.09124 0.47974 0.0
C1349 C 0.37868 0.08636 0.50521 0.0
H1350 H 0.36029 0.11887 0.45456 0.0
H1351 H 0.48299 0.06924 0.70719 0.0
H1352 H 0.94137 0.2366 0.64711 0.0
H1353 H 0.96696 0.2782 0.62387 0.0
H1354 H 0.90255 0.28342 0.60456 0.0
H1355 H 0.87707 0.2423 0.62779 0.0
H1356 H 0.93321 0.2991 0.54719 0.0
H1357 H 0.93834 0.31174 0.67409 0.0
H1358 H 0.94717 0.30611 0.73639 0.0
H1359 H 0.02237 0.33342 0.70948 0.0
H1360 H 0.01392 0.33872 0.64668 0.0
H1361 H 0.97158 0.4233 0.52792 0.0
H1362 H 0.9541 0.38142 0.54858 0.0
H1363 H 0.02625 0.39143 0.56165 0.0
H1364 H 0.04411 0.43387 0.54103 0.0
H1365 H 0.99652 0.36723 0.61909 0.0
H1366 H 0.99128 0.3582 0.49229 0.0
H1367 H 0.98147 0.36439 0.4308 0.0
H1368 H 0.90554 0.33068 0.45831 0.0
H1369 H 0.91493 0.3246 0.52013 0.0
C1370 C 0.93269 0.24666 0.63802 0.0
C1371 C 0.90711 0.23604 0.63948 0.0
C1372 C 0.94735 0.27047 0.6248 0.0
C1373 C 0.93672 0.28405 0.61247 0.0
C1374 C 0.91123 0.27338 0.61379 0.0
C1375 C 0.89666 0.24982 0.6273 0.0
C1376 C 0.95181 0.30926 0.59781 0.0
C1377 C 0.94696 0.31401 0.56302 0.0
C1378 C 0.97027 0.32867 0.61799 0.0
C1379 C 0.97541 0.32527 0.65556 0.0
C1380 C 0.95671 0.31625 0.68132 0.0
C1381 C 0.96166 0.31316 0.71673 0.0
C1382 C 0.9853 0.31929 0.72681 0.0
C1383 C 1.00406 0.32858 0.70152 0.0
C1384 C 0.9992 0.33161 0.66601 0.0
C1385 C 0.98387 0.41671 0.535 0.0
C1386 C 0.00934 0.43208 0.53259 0.0
C1387 C 0.97377 0.3926 0.54675 0.0
C1388 C 0.98877 0.38303 0.55632 0.0
C1389 C 0.01425 0.39832 0.5543 0.0
C1390 C 0.02444 0.42256 0.54235 0.0
C1391 C 0.97754 0.35715 0.56871 0.0
C1392 C 0.98307 0.35226 0.60303 0.0
C1393 C 0.9596 0.33756 0.54816 0.0
C1394 C 0.95385 0.34111 0.51095 0.0
C1395 C 0.97251 0.35227 0.48531 0.0
C1396 C 0.96702 0.35574 0.45038 0.0
C1397 C 0.9429 0.34798 0.44067 0.0
C1398 C 0.92422 0.33669 0.46587 0.0
C1399 C 0.92961 0.33321 0.50085 0.0
H1400 H 0.93869 0.35068 0.41362 0.0
H1401 H 0.98912 0.31693 0.75425 0.0
H1402 H 0.7561 0.59501 0.63403 0.0
H1403 H 0.71484 0.57685 0.61028 0.0
H1404 H 0.71271 0.64209 0.63661 0.0
H1405 H 0.7544 0.66059 0.66066 0.0
H1406 H 0.67042 0.60111 0.65576 0.0
H1407 H 0.71899 0.63016 0.55106 0.0
H1408 H 0.75019 0.63661 0.50614 0.0
H1409 H 0.71484 0.55949 0.48706 0.0
H1410 H 0.68361 0.5525 0.5323 0.0
H1411 H 0.56193 0.56598 0.55543 0.0
H1412 H 0.60384 0.58758 0.57755 0.0
H1413 H 0.61094 0.52457 0.55528 0.0
H1414 H 0.5689 0.50277 0.53284 0.0
H1415 H 0.65098 0.5666 0.53322 0.0
H1416 H 0.60269 0.53828 0.64039 0.0
H1417 H 0.57043 0.53333 0.68231 0.0
H1418 H 0.60521 0.61103 0.69483 0.0
H1419 H 0.63752 0.61648 0.65255 0.0
C1420 C 0.74696 0.60562 0.63489 0.0
C1421 C 0.75869 0.62935 0.64936 0.0
C1422 C 0.72332 0.59519 0.62103 0.0
C1423 C 0.71065 0.60813 0.62122 0.0
C1424 C 0.72212 0.63173 0.63603 0.0
C1425 C 0.74597 0.64232 0.64972 0.0
C1426 C 0.68534 0.59665 0.60646 0.0
C1427 C 0.66625 0.59392 0.62876 0.0
C1428 C 0.6797 0.58681 0.57143 0.0
C1429 C 0.69904 0.5908 0.54531 0.0
C1430 C 0.71803 0.61453 0.53765 0.0
C1431 C 0.73567 0.6183 0.51203 0.0
C1432 C 0.73442 0.59848 0.49367 0.0
C1433 C 0.71571 0.57483 0.50121 0.0
C1434 C 0.69804 0.57095 0.52685 0.0
C1435 C 0.57235 0.55664 0.55515 0.0
C1436 C 0.56192 0.53254 0.54236 0.0
C1437 C 0.59635 0.56904 0.56802 0.0
C1438 C 0.61056 0.55767 0.56853 0.0
C1439 C 0.60036 0.53374 0.55528 0.0
C1440 C 0.57627 0.52127 0.5425 0.0
C1441 C 0.63607 0.57079 0.58264 0.0
C1442 C 0.65519 0.57382 0.5602 0.0
C1443 C 0.64173 0.58104 0.61743 0.0
C1444 C 0.6224 0.5778 0.64301 0.0
C1445 C 0.60336 0.55433 0.65185 0.0
C1446 C 0.58508 0.55143 0.67572 0.0
C1447 C 0.58574 0.57185 0.69116 0.0
C1448 C 0.60471 0.59523 0.68281 0.0
C1449 C 0.62302 0.59823 0.65892 0.0
H1450 H 0.57159 0.56956 0.70967 0.0
H1451 H 0.74791 0.60146 0.47351 0.0
H1452 H 0.91445 0.67742 0.13105 0.0
H1453 H 0.93204 0.6534 0.10739 0.0
H1454 H 0.86765 0.58707 0.13968 0.0
H1455 H 0.84994 0.61083 0.16317 0.0
H1456 H 0.91039 0.58744 0.1569 0.0
H1457 H 0.87393 0.60165 0.05385 0.0
H1458 H 0.86618 0.62668 0.01126 0.0
H1459 H 0.94239 0.66694 0.9848 0.0
H1460 H 0.9506 0.64209 0.02732 0.0
H1461 H 0.94361 0.50968 0.06024 0.0
H1462 H 0.92024 0.5284 0.08312 0.0
H1463 H 0.97582 0.59843 0.04369 0.0
H1464 H 0.99864 0.58004 0.02044 0.0
H1465 H 0.93363 0.59331 0.02921 0.0
H1466 H 0.97086 0.58067 0.13332 0.0
H1467 H 0.9799 0.55955 0.18117 0.0
H1468 H 0.9039 0.51893 0.20874 0.0
H1469 H 0.89432 0.53943 0.16064 0.0
C1470 C 0.90414 0.65774 0.13338 0.0
C1471 C 0.88079 0.64606 0.14896 0.0
C1472 C 0.91413 0.64403 0.11963 0.0
C1473 C 0.90103 0.61842 0.12143 0.0
C1474 C 0.87804 0.60678 0.13789 0.0
C1475 C 0.86795 0.62043 0.15127 0.0
C1476 C 0.91122 0.6037 0.10613 0.0
C1477 C 0.91513 0.58837 0.12885 0.0
C1478 C 0.91776 0.60528 0.0697 0.0
C1479 C 0.9129 0.62016 0.04399 0.0
C1480 C 0.88906 0.61595 0.03913 0.0
C1481 C 0.88458 0.63009 0.01497 0.0
C1482 C 0.9038 0.6485 0.99549 0.0
C1483 C 0.92753 0.6527 0.99996 0.0
C1484 C 0.9321 0.63855 0.02401 0.0
C1485 C 0.95059 0.52898 0.05608 0.0
C1486 C 0.97299 0.54332 0.03848 0.0
C1487 C 0.93737 0.53973 0.06946 0.0
C1488 C 0.94637 0.56495 0.06546 0.0
C1489 C 0.96841 0.57899 0.04714 0.0
C1490 C 0.98151 0.56838 0.0339 0.0
C1491 C 0.93327 0.57717 0.08013 0.0
C1492 C 0.92872 0.59208 0.05722 0.0
C1493 C 0.92631 0.57531 0.11652 0.0
C1494 C 0.93184 0.56141 0.14313 0.0
C1495 C 0.95601 0.5669 0.14913 0.0
C1496 C 0.96125 0.55515 0.17644 0.0
C1497 C 0.94249 0.53807 0.19812 0.0
C1498 C 0.9184 0.53225 0.19201 0.0
C1499 C 0.91306 0.54387 0.16469 0.0
H1500 H 0.94657 0.5294 0.21979 0.0
H1501 H 0.90032 0.65947 0.97685 0.0
H1502 H 0.33566 0.23885 0.12114 0.0
H1503 H 0.35841 0.28059 0.09914 0.0
H1504 H 0.42588 0.28004 0.11206 0.0
H1505 H 0.40313 0.23809 0.13477 0.0
H1506 H 0.43072 0.32246 0.13518 0.0
H1507 H 0.40134 0.27506 0.02917 0.0
H1508 H 0.37128 0.24389 0.98847 0.0
H1509 H 0.33087 0.28181 0.98558 0.0
H1510 H 0.36049 0.31302 0.02673 0.0
H1511 H 0.4945 0.43533 0.03731 0.0
H1512 H 0.47798 0.39261 0.05511 0.0
H1513 H 0.40514 0.382 0.05321 0.0
H1514 H 0.42138 0.4244 0.0354 0.0
H1515 H 0.4071 0.34455 0.02078 0.0
H1516 H 0.43518 0.38978 0.13153 0.0
H1517 H 0.46582 0.42094 0.17168 0.0
H1518 H 0.50973 0.38685 0.16397 0.0
H1519 H 0.47947 0.35566 0.12337 0.0
C1520 C 0.35534 0.24752 0.11937 0.0
C1521 C 0.36752 0.23499 0.12961 0.0
C1522 C 0.36835 0.27142 0.10656 0.0
C1523 C 0.39386 0.2834 0.10331 0.0
C1524 C 0.40619 0.27116 0.11413 0.0
C1525 C 0.39315 0.24716 0.12706 0.0
C1526 C 0.40744 0.30875 0.08893 0.0
C1527 C 0.42586 0.3272 0.10984 0.0
C1528 C 0.40099 0.31508 0.05602 0.0
C1529 C 0.38306 0.2963 0.03129 0.0
C1530 C 0.38594 0.27666 0.0201 0.0
C1531 C 0.36899 0.25899 0.9969 0.0
C1532 C 0.34915 0.26085 0.98449 0.0
C1533 C 0.34624 0.28039 0.99523 0.0
C1534 C 0.36312 0.29809 0.01847 0.0
C1535 C 0.47496 0.42387 0.04059 0.0
C1536 C 0.45929 0.43337 0.035 0.0
C1537 C 0.46555 0.39948 0.0509 0.0
C1538 C 0.4403 0.3841 0.05575 0.0
C1539 C 0.42466 0.39347 0.04962 0.0
C1540 C 0.43402 0.4178 0.03954 0.0
C1541 C 0.42994 0.35828 0.0674 0.0
C1542 C 0.41213 0.33973 0.04593 0.0
C1543 C 0.43706 0.35187 0.09964 0.0
C1544 C 0.45521 0.37057 0.12409 0.0
C1545 C 0.45147 0.38906 0.13816 0.0
C1546 C 0.46874 0.40669 0.16104 0.0
C1547 C 0.48975 0.40592 0.17028 0.0
C1548 C 0.49348 0.38746 0.15673 0.0
C1549 C 0.47627 0.36979 0.1338 0.0
H1550 H 0.5031 0.41959 0.188 0.0
H1551 H 0.33607 0.24716 0.96651 0.0
H1552 H 0.74858 0.09597 0.14776 0.0
H1553 H 0.70871 0.08048 0.12035 0.0
H1554 H 0.72644 0.15376 0.09355 0.0
H1555 H 0.76694 0.16969 0.12113 0.0
H1556 H 0.67711 0.12211 0.1216 0.0
H1557 H 0.73185 0.12162 0.03219 0.0
H1558 H 0.76237 0.11162 0.00944 0.0
H1559 H 0.71124 0.03525 0.02151 0.0
H1560 H 0.68058 0.04477 0.04531 0.0
H1561 H 0.58337 0.09117 0.997 0.0
H1562 H 0.62364 0.10804 0.02377 0.0
H1563 H 0.61184 0.03546 0.03969 0.0
H1564 H 0.57116 0.01823 0.0126 0.0
H1565 H 0.65837 0.06707 0.01721 0.0
H1566 H 0.60504 0.0644 0.10826 0.0
H1567 H 0.57338 0.07078 0.13621 0.0
H1568 H 0.61966 0.14831 0.1264 0.0
H1569 H 0.6515 0.14238 0.09783 0.0
C1570 C 0.74408 0.10896 0.13635 0.0
C1571 C 0.76111 0.13414 0.13646 0.0
C1572 C 0.72121 0.09999 0.12063 0.0
C1573 C 0.71473 0.11591 0.10454 0.0
C1574 C 0.73116 0.14117 0.10582 0.0
C1575 C 0.75426 0.15024 0.12157 0.0
C1576 C 0.69115 0.10577 0.0852 0.0
C1577 C 0.67314 0.11047 0.09836 0.0
C1578 C 0.68567 0.0897 0.05582 0.0
C1579 C 0.70397 0.08395 0.04082 0.0
C1580 C 0.72717 0.10271 0.03025 0.0
C1581 C 0.7445 0.09712 0.01714 0.0
C1582 C 0.73877 0.07284 0.01401 0.0
C1583 C 0.71566 0.05407 0.02397 0.0
C1584 C 0.6983 0.05955 0.03729 0.0
C1585 C 0.58931 0.07869 0.00584 0.0
C1586 C 0.57389 0.05328 0.00288 0.0
C1587 C 0.61237 0.08842 0.02132 0.0
C1588 C 0.62058 0.07303 0.03436 0.0
C1589 C 0.60578 0.04767 0.02997 0.0
C1590 C 0.58257 0.03785 0.01445 0.0
C1591 C 0.64436 0.08359 0.05335 0.0
C1592 C 0.66237 0.07888 0.04025 0.0
C1593 C 0.64964 0.0992 0.08328 0.0
C1594 C 0.63058 0.10293 0.10051 0.0
C1595 C 0.6084 0.08281 0.11174 0.0
C1596 C 0.59042 0.08634 0.12775 0.0
C1597 C 0.59446 0.10993 0.13298 0.0
C1598 C 0.61653 0.13004 0.12227 0.0
C1599 C 0.63457 0.12661 0.10618 0.0
H1600 H 0.58052 0.11262 0.14541 0.0
H1601 H 0.75222 0.06856 0.00384 0.0
H1602 H 0.60249 0.03526 0.46197 0.0
H1603 H 0.62455 0.01454 0.44389 0.0
H1604 H 0.55643 0.94686 0.43414 0.0
H1605 H 0.53425 0.96743 0.45344 0.0
H1606 H 0.58846 0.93808 0.46381 0.0
H1607 H 0.59065 0.98395 0.35993 0.0
H1608 H 0.59923 0.02076 0.32591 0.0
H1609 H 0.67541 0.05347 0.35125 0.0
H1610 H 0.66725 0.017 0.38584 0.0
H1611 H 0.63145 0.87239 0.3638 0.0
H1612 H 0.61097 0.89441 0.38306 0.0
H1613 H 0.68064 0.96008 0.39514 0.0
H1614 H 0.70136 0.93814 0.37513 0.0
H1615 H 0.64898 0.97059 0.36528 0.0
H1616 H 0.64741 0.92524 0.46827 0.0
H1617 H 0.63952 0.88867 0.50231 0.0
H1618 H 0.56301 0.85539 0.47904 0.0
H1619 H 0.57048 0.89164 0.44441 0.0
C1620 C 0.59213 0.01595 0.45601 0.0
C1621 C 0.5665 1.00309 0.45903 0.0
C1622 C 0.60482 1.0041 0.4454 0.0
C1623 C 0.59225 0.97913 0.43681 0.0
C1624 C 0.56666 0.96614 0.4404 0.0
C1625 C 0.55395 0.97794 0.45141 0.0
C1626 C 0.60575 0.96654 0.42451 0.0
C1627 C 0.60141 0.94505 0.4419 0.0
C1628 C 0.62334 0.97589 0.39663 0.0
C1629 C 0.62828 0.99784 0.37582 0.0
C1630 C 0.6092 0.99907 0.35849 0.0
C1631 C 0.61399 0.01986 0.33906 0.0
C1632 C 0.63783 0.03946 0.33651 0.0
C1633 C 0.65695 0.03829 0.3533 0.0
C1634 C 0.65225 0.01756 0.37281 0.0
C1635 C 0.64251 0.89153 0.37047 0.0
C1636 C 0.66815 0.9034 0.36802 0.0
C1637 C 0.63072 0.90412 0.38173 0.0
C1638 C 0.64418 0.92888 0.39129 0.0
C1639 C 0.66977 0.94096 0.38815 0.0
C1640 C 0.68162 0.92837 0.37672 0.0
C1641 C 0.63148 0.94205 0.40435 0.0
C1642 C 0.63601 0.96365 0.38718 0.0
C1643 C 0.61413 0.93286 0.4325 0.0
C1644 C 0.60955 0.91108 0.45347 0.0
C1645 C 0.62893 0.91006 0.4702 0.0
C1646 C 0.62453 0.88939 0.48963 0.0
C1647 C 0.60079 0.86969 0.49277 0.0
C1648 C 0.58139 0.87065 0.47655 0.0
C1649 C 0.5857 0.89126 0.45705 0.0
H1650 H 0.59742 0.85371 0.50782 0.0
H1651 H 0.64151 0.05554 0.32144 0.0
H1652 H 0.03955 0.56969 0.4546 0.0
H1653 H 0.05949 0.61081 0.43052 0.0
H1654 H 0.12985 0.61934 0.45544 0.0
H1655 H 0.10983 0.57748 0.47945 0.0
H1656 H 0.12384 0.65887 0.47862 0.0
H1657 H 0.12059 0.62138 0.36261 0.0
H1658 H 0.10269 0.59289 0.31186 0.0
H1659 H 0.04222 0.60584 0.30941 0.0
H1660 H 0.06032 0.63513 0.35929 0.0
H1661 H 0.195 0.7662 0.37773 0.0
H1662 H 0.17472 0.72531 0.40281 0.0
H1663 H 0.10465 0.71708 0.37639 0.0
H1664 H 0.12503 0.75859 0.3512 0.0
H1665 H 0.1101 0.67761 0.35493 0.0
H1666 H 0.12089 0.72345 0.46153 0.0
H1667 H 0.14318 0.75586 0.50613 0.0
H1668 H 0.19132 0.72778 0.5265 0.0
H1669 H 0.16951 0.69535 0.48177 0.0
C1670 C 0.0593 0.58016 0.45508 0.0
C1671 C 0.07307 0.5702 0.46928 0.0
C1672 C 0.07069 0.6037 0.44089 0.0
C1673 C 0.09617 0.61814 0.4408 0.0
C1674 C 0.11013 0.60845 0.45508 0.0
C1675 C 0.09869 0.58457 0.46886 0.0
C1676 C 0.10776 0.64372 0.42751 0.0
C1677 C 0.1212 0.663 0.45141 0.0
C1678 C 0.10364 0.64919 0.39243 0.0
C1679 C 0.0916 0.63012 0.36484 0.0
C1680 C 0.10337 0.61795 0.35141 0.0
C1681 C 0.09336 0.60194 0.32253 0.0
C1682 C 0.0713 0.59751 0.30748 0.0
C1683 C 0.05929 0.60925 0.32112 0.0
C1684 C 0.06951 0.62571 0.34948 0.0
C1685 C 0.17525 0.7558 0.37715 0.0
C1686 C 0.16163 0.76568 0.36217 0.0
C1687 C 0.16367 0.73243 0.39186 0.0
C1688 C 0.13817 0.7182 0.39188 0.0
C1689 C 0.12439 0.72784 0.37684 0.0
C1690 C 0.13602 0.75152 0.36244 0.0
C1691 C 0.12628 0.69282 0.40592 0.0
C1692 C 0.11271 0.67356 0.38221 0.0
C1693 C 0.13042 0.68749 0.44115 0.0
C1694 C 0.14367 0.70706 0.46801 0.0
C1695 C 0.13637 0.7243 0.47527 0.0
C1696 C 0.14888 0.74265 0.50065 0.0
C1697 C 0.16868 0.74391 0.51904 0.0
C1698 C 0.17598 0.72679 0.51219 0.0
C1699 C 0.16352 0.70839 0.48688 0.0
H1700 H 0.17835 0.75811 0.53866 0.0
H1701 H 0.0635 0.58497 0.28528 0.0
H1702 H 0.23841 0.37671 0.36819 0.0
H1703 H 0.28045 0.39493 0.388 0.0
H1704 H 0.27199 0.32346 0.40153 0.0
H1705 H 0.22919 0.30477 0.38188 0.0
H1706 H 0.29727 0.35379 0.4573 0.0
H1707 H 0.30341 0.35806 0.33069 0.0
H1708 H 0.29549 0.3666 0.26939 0.0
H1709 H 0.32817 0.44275 0.2946 0.0
H1710 H 0.33593 0.43464 0.35625 0.0
H1711 H 0.42848 0.41625 0.4838 0.0
H1712 H 0.3875 0.38832 0.46012 0.0
H1713 H 0.37696 0.44945 0.43953 0.0
H1714 H 0.41749 0.47722 0.46296 0.0
H1715 H 0.3626 0.41843 0.38321 0.0
H1716 H 0.35113 0.41275 0.51155 0.0
H1717 H 0.35851 0.4042 0.57316 0.0
H1718 H 0.3362 0.33036 0.54384 0.0
H1719 H 0.32901 0.33859 0.48188 0.0
C1720 C 0.24533 0.36469 0.37522 0.0
C1721 C 0.23033 0.33917 0.37307 0.0
C1722 C 0.26954 0.37523 0.38649 0.0
C1723 C 0.27965 0.36065 0.39565 0.0
C1724 C 0.26467 0.33512 0.39434 0.0
C1725 C 0.24023 0.32446 0.38303 0.0
C1726 C 0.3058 0.3725 0.40672 0.0
C1727 C 0.31166 0.36753 0.44075 0.0
C1728 C 0.32463 0.39068 0.38539 0.0
C1729 C 0.32009 0.39569 0.34823 0.0
C1730 C 0.30875 0.37661 0.32327 0.0
C1731 C 0.30431 0.38138 0.28843 0.0
C1732 C 0.31128 0.40519 0.27813 0.0
C1733 C 0.32276 0.4243 0.30263 0.0
C1734 C 0.32721 0.41963 0.33752 0.0
C1735 C 0.4174 0.4237 0.47424 0.0
C1736 C 0.42626 0.44899 0.47558 0.0
C1737 C 0.39395 0.40771 0.46081 0.0
C1738 C 0.37901 0.41674 0.44825 0.0
C1739 C 0.38804 0.44199 0.4491 0.0
C1740 C 0.41126 0.45787 0.46273 0.0
C1741 C 0.35395 0.40023 0.43413 0.0
C1742 C 0.34832 0.40435 0.39947 0.0
C1743 C 0.33542 0.38127 0.45483 0.0
C1744 C 0.33985 0.37637 0.49199 0.0
C1745 C 0.34804 0.39476 0.51815 0.0
C1746 C 0.35213 0.38996 0.55315 0.0
C1747 C 0.34791 0.36678 0.56238 0.0
C1748 C 0.33953 0.34833 0.53663 0.0
C1749 C 0.33543 0.35305 0.50158 0.0
H1750 H 0.35107 0.36309 0.5895 0.0
H1751 H 0.30783 0.40884 0.25115 0.0
H1752 H 0.86669 0.76031 0.21915 0.0
H1753 H 0.8546 0.78928 0.24149 0.0
H1754 H 0.77985 0.73895 0.21307 0.0
H1755 H 0.79166 0.70997 0.19114 0.0
H1756 H 0.7945 0.78666 0.19321 0.0
H1757 H 0.7973 0.74257 0.29725 0.0
H1758 H 0.81717 0.7281 0.33955 0.0
H1759 H 0.87064 0.80213 0.36468 0.0
H1760 H 0.85123 0.81704 0.32215 0.0
H1761 H 0.71521 0.80658 0.29696 0.0
H1762 H 0.74008 0.79024 0.27412 0.0
H1763 H 0.80544 0.85645 0.30372 0.0
H1764 H 0.78038 0.8734 0.32664 0.0
H1765 H 0.80312 0.8085 0.32193 0.0
H1766 H 0.79856 0.85289 0.22195 0.0
H1767 H 0.77801 0.86732 0.18083 0.0
H1768 H 0.72814 0.79349 0.14949 0.0
H1769 H 0.7485 0.77864 0.19018 0.0
C1770 C 0.84772 0.75553 0.21739 0.0
C1771 C 0.83014 0.73279 0.2034 0.0
C1772 C 0.84082 0.77205 0.23032 0.0
C1773 C 0.81628 0.76625 0.22914 0.0
C1774 C 0.79888 0.74386 0.21425 0.0
C1775 C 0.80568 0.72727 0.20181 0.0
C1776 C 0.80832 0.78301 0.24404 0.0
C1777 C 0.79646 0.79145 0.22134 0.0
C1778 C 0.81138 0.78986 0.28058 0.0
C1779 C 0.82301 0.78092 0.30619 0.0
C1780 C 0.81342 0.75576 0.31155 0.0
C1781 C 0.82457 0.74748 0.33563 0.0
C1782 C 0.84521 0.76418 0.3547 0.0
C1783 C 0.85469 0.78921 0.34983 0.0
C1784 C 0.84361 0.79759 0.32576 0.0
C1785 C 0.73487 0.81779 0.29894 0.0
C1786 C 0.74575 0.8414 0.3137 0.0
C1787 C 0.74908 0.80835 0.28573 0.0
C1788 C 0.7746 0.82212 0.28707 0.0
C1789 C 0.78573 0.84551 0.30247 0.0
C1790 C 0.77141 0.85519 0.31542 0.0
C1791 C 0.78904 0.81176 0.27115 0.0
C1792 C 0.80185 0.80431 0.29363 0.0
C1793 C 0.78703 0.8059 0.23436 0.0
C1794 C 0.77501 0.81467 0.20916 0.0
C1795 C 0.7832 0.83974 0.20627 0.0
C1796 C 0.77164 0.848 0.18295 0.0
C1797 C 0.75186 0.83135 0.1624 0.0
C1798 C 0.74361 0.8064 0.16511 0.0
C1799 C 0.7552 0.79805 0.18822 0.0
H1800 H 0.74297 0.83784 0.14443 0.0
H1801 H 0.85382 0.75774 0.37334 0.0
H1802 H 0.26875 0.0932 0.21035 0.0
H1803 H 0.25328 0.05255 0.23539 0.0
H1804 H 0.32418 0.05938 0.22269 0.0
H1805 H 0.33995 0.10039 0.19752 0.0
H1806 H 0.28731 0.0155 0.19728 0.0
H1807 H 0.30485 0.05888 0.30938 0.0
H1808 H 0.30453 0.08763 0.35367 0.0
H1809 H 0.22629 0.05094 0.34892 0.0
H1810 H 0.22614 0.02149 0.30541 0.0
H1811 H 0.26265 0.91079 0.29675 0.0
H1812 H 0.27938 0.95279 0.27682 0.0
H1813 H 0.2087 0.94658 0.28878 0.0
H1814 H 0.19167 0.90426 0.30909 0.0
H1815 H 0.24572 0.9903 0.31489 0.0
H1816 H 0.22906 0.94369 0.20713 0.0
H1817 H 0.23066 0.91394 0.16625 0.0
H1818 H 0.30878 0.95755 0.16194 0.0
H1819 H 0.30769 0.98738 0.20328 0.0
C1820 C 0.28115 0.08616 0.2129 0.0
C1821 C 0.3056 0.10007 0.20168 0.0
C1822 C 0.27228 0.06292 0.22754 0.0
C1823 C 0.28758 0.05291 0.23124 0.0
C1824 C 0.31204 0.06673 0.22018 0.0
C1825 C 0.32103 0.09018 0.20582 0.0
C1826 C 0.27756 0.0276 0.24509 0.0
C1827 C 0.27858 0.01008 0.22325 0.0
C1828 C 0.26555 0.02029 0.27851 0.0
C1829 C 0.2655 0.03818 0.30397 0.0
C1830 C 0.2876 0.05704 0.31769 0.0
C1831 C 0.28749 0.07335 0.34278 0.0
C1832 C 0.26542 0.07126 0.35385 0.0
C1833 C 0.24338 0.0526 0.34023 0.0
C1834 C 0.24336 0.03597 0.31559 0.0
C1835 C 0.25057 0.91827 0.29531 0.0
C1836 C 0.22572 0.90401 0.30443 0.0
C1837 C 0.2602 0.94234 0.28372 0.0
C1838 C 0.24526 0.9528 0.28079 0.0
C1839 C 0.22057 0.93888 0.29069 0.0
C1840 C 0.21085 0.91467 0.30224 0.0
C1841 C 0.25553 0.97818 0.26714 0.0
C1842 C 0.25448 0.99569 0.28894 0.0
C1843 C 0.2676 0.98548 0.23368 0.0
C1844 C 0.26831 0.96766 0.20859 0.0
C1845 C 0.2466 0.94684 0.1977 0.0
C1846 C 0.24741 0.92998 0.1744 0.0
C1847 C 0.26981 0.93383 0.16157 0.0
C1848 C 0.29144 0.95458 0.17193 0.0
C1849 C 0.29074 0.97148 0.19528 0.0
H1850 H 0.27039 0.92075 0.14353 0.0
H1851 H 0.26541 0.08405 0.37306 0.0
H1852 H 0.08931 0.30789 0.30747 0.0
H1853 H 0.04767 0.28746 0.28535 0.0
H1854 H 0.0456 0.21835 0.28894 0.0
H1855 H 0.08792 0.23893 0.311 0.0
H1856 H 0.02714 0.22479 0.22598 0.0
H1857 H 0.01481 0.23179 0.35055 0.0
H1858 H 0.02164 0.25281 0.40849 0.0
H1859 H 0.99899 0.30072 0.36349 0.0
H1860 H 0.99236 0.28022 0.30511 0.0
H1861 H 0.8993 0.15414 0.19864 0.0
H1862 H 0.94072 0.17267 0.22182 0.0
H1863 H 0.9454 0.24302 0.22305 0.0
H1864 H 0.90351 0.22443 0.20012 0.0
H1865 H 0.96228 0.23477 0.28464 0.0
H1866 H 0.97578 0.22906 0.1601 0.0
H1867 H 0.96946 0.20888 0.10154 0.0
H1868 H 0.99027 0.15936 0.14582 0.0
H1869 H 0.9964 0.17904 0.2048 0.0
C1870 C 0.08009 0.2883 0.30381 0.0
C1871 C 0.09206 0.27505 0.31111 0.0
C1872 C 0.05613 0.27662 0.29126 0.0
C1873 C 0.04333 0.25132 0.28583 0.0
C1874 C 0.0551 0.23791 0.29307 0.0
C1875 C 0.07923 0.24965 0.30582 0.0
C1876 C 0.01794 0.23931 0.27163 0.0
C1877 C 0.01282 0.22656 0.23915 0.0
C1878 C 0.99943 0.24228 0.28821 0.0
C1879 C 1.00328 0.25458 0.32335 0.0
C1880 C 0.01146 0.24693 0.35293 0.0
C1881 C 0.01527 0.25873 0.38586 0.0
C1882 C 0.0108 0.27812 0.38965 0.0
C1883 C 1.00246 0.28571 0.36052 0.0
C1884 C 0.99865 0.27398 0.3275 0.0
C1885 C 0.90911 0.17361 0.20356 0.0
C1886 C 0.898 0.18779 0.19741 0.0
C1887 C 0.93291 0.1842 0.21672 0.0
C1888 C 0.94635 0.2093 0.22389 0.0
C1889 C 0.93542 0.22361 0.21766 0.0
C1890 C 0.91151 0.21299 0.20439 0.0
C1891 C 0.97149 0.22031 0.2389 0.0
C1892 C 0.97656 0.23288 0.27153 0.0
C1893 C 0.98997 0.21725 0.2224 0.0
C1894 C 0.98631 0.20537 0.18696 0.0
C1895 C 0.97881 0.21373 0.15743 0.0
C1896 C 0.9753 0.20241 0.12414 0.0
C1897 C 0.9794 0.18281 0.11998 0.0
C1898 C 0.98707 0.17453 0.14909 0.0
C1899 C 0.99059 0.18577 0.18245 0.0
H1900 H 0.97668 0.17407 0.09419 0.0
H1901 H 0.01376 0.28723 0.41517 0.0
H1902 H 0.35514 0.25439 0.70414 0.0
H1903 H 0.34201 0.28298 0.72434 0.0
H1904 H 0.267 0.22833 0.70515 0.0
H1905 H 0.27987 0.19993 0.68489 0.0
H1906 H 0.27654 0.27084 0.67708 0.0
H1907 H 0.28772 0.24428 0.79482 0.0
H1908 H 0.31027 0.23744 0.84298 0.0
H1909 H 0.36728 0.31229 0.83647 0.0
H1910 H 0.3446 0.31974 0.78909 0.0
H1911 H 0.20214 0.3017 0.77475 0.0
H1912 H 0.22598 0.28399 0.75273 0.0
H1913 H 0.29247 0.35164 0.77265 0.0
H1914 H 0.26843 0.36981 0.79505 0.0
H1915 H 0.29412 0.30999 0.79658 0.0
H1916 H 0.27533 0.33713 0.68888 0.0
H1917 H 0.24923 0.3428 0.64555 0.0
H1918 H 0.2052 0.26521 0.63276 0.0
H1919 H 0.23082 0.25904 0.67641 0.0
C1920 C 0.33585 0.24847 0.70428 0.0
C1921 C 0.31861 0.22485 0.69264 0.0
C1922 C 0.32834 0.26479 0.71609 0.0
C1923 C 0.30346 0.25785 0.71643 0.0
C1924 C 0.28629 0.23423 0.70507 0.0
C1925 C 0.29373 0.21794 0.69349 0.0
C1926 C 0.29503 0.27519 0.72717 0.0
C1927 C 0.28033 0.2793 0.70328 0.0
C1928 C 0.30059 0.28703 0.76082 0.0
C1929 C 0.31468 0.28246 0.78817 0.0
C1930 C 0.30517 0.2592 0.80349 0.0
C1931 C 0.3179 0.25525 0.83073 0.0
C1932 C 0.34035 0.27432 0.84245 0.0
C1933 C 0.34996 0.29749 0.82725 0.0
C1934 C 0.33709 0.30164 0.80039 0.0
C1935 C 0.22183 0.31299 0.77448 0.0
C1936 C 0.23333 0.33728 0.78669 0.0
C1937 C 0.23547 0.30279 0.76167 0.0
C1938 C 0.26103 0.3165 0.76062 0.0
C1939 C 0.27274 0.34073 0.77306 0.0
C1940 C 0.25899 0.35112 0.78572 0.0
C1941 C 0.27502 0.30495 0.74689 0.0
C1942 C 0.29077 0.30196 0.7701 0.0
C1943 C 0.27033 0.29402 0.7126 0.0
C1944 C 0.25494 0.29763 0.6861 0.0
C1945 C 0.25999 0.32126 0.67701 0.0
C1946 C 0.24529 0.32457 0.65236 0.0
C1947 C 0.22555 0.30438 0.63645 0.0
C1948 C 0.2205 0.28083 0.6451 0.0
C1949 C 0.23513 0.27742 0.66976 0.0
H1950 H 0.2142 0.30698 0.61738 0.0
H1951 H 0.35022 0.27117 0.86344 0.0
H1952 H 0.86341 0.09455 0.70436 0.0
H1953 H 0.84208 0.05311 0.72944 0.0
H1954 H 0.77443 0.05414 0.72868 0.0
H1955 H 0.79535 0.09513 0.70405 0.0
H1956 H 0.78047 0.03724 0.79131 0.0
H1957 H 0.78617 0.02227 0.66625 0.0
H1958 H 0.80761 0.0264 0.60936 0.0
H1959 H 0.84862 0.99686 0.65831 0.0
H1960 H 0.82764 0.99286 0.71566 0.0
H1961 H 0.69243 0.9109 0.81365 0.0
H1962 H 0.71686 0.953 0.79226 0.0
H1963 H 0.78122 0.94591 0.79231 0.0
H1964 H 0.75704 0.90398 0.81315 0.0
H1965 H 0.77897 0.9664 0.73206 0.0
H1966 H 0.77179 0.97943 0.85647 0.0
H1967 H 0.75058 0.97555 0.91348 0.0
H1968 H 0.71262 0.00897 0.86631 0.0
H1969 H 0.73336 0.01273 0.80884 0.0
C1970 C 0.84396 0.08584 0.70925 0.0
C1971 C 0.83115 0.09822 0.702 0.0
C1972 C 0.83178 0.06215 0.72361 0.0
C1973 C 0.80658 0.05043 0.73089 0.0
C1974 C 0.79385 0.06277 0.72348 0.0
C1975 C 0.80591 0.08626 0.70917 0.0
C1976 C 0.7932 0.02539 0.74637 0.0
C1977 C 0.77996 0.0217 0.77817 0.0
C1978 C 0.79295 0.00517 0.72977 0.0
C1979 C 0.80555 0.00754 0.69533 0.0
C1980 C 0.79991 0.01685 0.66496 0.0
C1981 C 0.81195 0.01913 0.63262 0.0
C1982 C 0.82952 0.01197 0.63025 0.0
C1983 C 0.83504 1.00245 0.6602 0.0
C1984 C 0.82308 1.00016 0.69262 0.0
C1985 C 0.71181 0.91837 0.80937 0.0
C1986 C 0.7227 0.90397 0.81517 0.0
C1987 C 0.7258 0.94249 0.79721 0.0
C1988 C 0.75099 0.95277 0.79081 0.0
C1989 C 0.76186 0.93846 0.79691 0.0
C1990 C 0.74795 0.91444 0.809 0.0
C1991 C 0.76597 0.97815 0.77686 0.0
C1992 C 0.77954 0.98192 0.74535 0.0
C1993 C 0.76652 0.99845 0.79375 0.0
C1994 C 0.75394 0.99612 0.82824 0.0
C1995 C 0.75876 0.98575 0.85816 0.0
C1996 C 0.74685 0.98361 0.89057 0.0
C1997 C 0.73021 0.99195 0.89349 0.0
C1998 C 0.72549 1.00248 0.864 0.0
C1999 C 0.73732 1.00464 0.8315 0.0
H2000 H 0.72103 0.99029 0.91862 0.0
H2001 H 0.83882 0.01374 0.60519 0.0
H2002 H 0.09351 0.7605 0.78883 0.0
H2003 H 0.05083 0.74232 0.77057 0.0
H2004 H 0.05108 0.80827 0.80016 0.0
H2005 H 0.09395 0.82671 0.81841 0.0
H2006 H 0.00848 0.76653 0.82201 0.0
H2007 H 0.05431 0.79793 0.71483 0.0
H2008 H 0.08546 0.8047 0.66966 0.0
H2009 H 0.0494 0.72784 0.64812 0.0
H2010 H 0.01817 0.72054 0.69358 0.0
H2011 H 0.89504 0.7302 0.72936 0.0
H2012 H 0.93776 0.7535 0.74929 0.0
H2013 H 0.94789 0.69306 0.72133 0.0
H2014 H 0.9056 0.66985 0.70155 0.0
H2015 H 0.98569 0.73566 0.69799 0.0
H2016 H 0.94075 0.7045 0.80796 0.0
H2017 H 0.90984 0.6984 0.85325 0.0
H2018 H 0.94429 0.77582 0.86903 0.0
H2019 H 0.97525 0.78239 0.82352 0.0
C2020 C 0.08452 0.77117 0.79165 0.0
C2021 C 0.09731 0.79516 0.80502 0.0
C2022 C 0.06007 0.76074 0.78106 0.0
C2023 C 0.04769 0.77395 0.78366 0.0
C2024 C 0.06018 0.79768 0.79784 0.0
C2025 C 0.08476 0.80824 0.80815 0.0
C2026 C 0.02195 0.76308 0.77075 0.0
C2027 C 1.00355 0.76013 0.79474 0.0
C2028 C 0.01534 0.75444 0.73527 0.0
C2029 C 0.03402 0.75867 0.70785 0.0
C2030 C 0.05312 0.78244 0.70068 0.0
C2031 C 0.07077 0.78638 0.67499 0.0
C2032 C 0.06942 0.76671 0.65609 0.0
C2033 C 0.05041 0.74305 0.66282 0.0
C2034 C 0.03272 0.739 0.68852 0.0
C2035 C 0.9064 0.72192 0.72738 0.0
C2036 C 0.89676 0.69809 0.71386 0.0
C2037 C 0.93081 0.73522 0.73895 0.0
C2038 C 0.94611 0.72501 0.73707 0.0
C2039 C 0.93657 0.7014 0.72309 0.0
C2040 C 0.91225 0.68809 0.71186 0.0
C2041 C 0.97209 0.73869 0.74939 0.0
C2042 C 0.99059 0.7422 0.72521 0.0
C2043 C 0.97874 0.74789 0.78464 0.0
C2044 C 0.96014 0.74395 0.81201 0.0
C2045 C 0.94161 0.72023 0.82086 0.0
C2046 C 0.92411 0.71669 0.84662 0.0
C2047 C 0.92505 0.73672 0.86389 0.0
C2048 C 0.94355 0.76032 0.85556 0.0
C2049 C 0.96109 0.76397 0.82981 0.0
H2050 H 0.91146 0.73395 0.88376 0.0
H2051 H 0.08307 0.76983 0.63617 0.0
loop_
_geom_bond_atom_site_label_1
_geom_bond_atom_site_label_2
_geom_bond_distance
_geom_bond_site_symmetry_2
_ccdc_geom_bond_type
C0 O2 1.247 1_655 S
C0 O4 1.258 . S
C1 O8 1.247 1_455 S
C1 O9 1.258 . S
O2 C0 1.247 1_455 S
O2 Zn3 2.019 1_556 S
Zn3 O2 2.019 1_554 S
Zn3 O7 2.038 1_455 S
Zn3 O9 2.044 . S
Zn3 O10 2.026 1_554 S
O4 C0 1.258 . S
O4 Zn5 2.010 1_556 S
Zn5 O4 2.010 1_554 S
Zn5 O6 2.032 . S
Zn5 O8 2.053 . S
Zn5 O11 2.006 1_654 S
O6 Zn5 2.032 . S
O6 C12 1.247 . S
O7 Zn3 2.038 1_655 S
O7 C12 1.257 . S
O8 C1 1.247 1_655 S
O8 Zn5 2.053 . S
O9 C1 1.258 . S
O9 Zn3 2.044 . S
O10 Zn3 2.026 1_556 S
O10 C13 1.247 . S
O11 Zn5 2.006 1_456 S
O11 C13 1.280 . S
C12 O6 1.247 . S
C12 O7 1.257 . S
C13 O10 1.247 . S
C13 O11 1.280 . S
C14 O16 1.247 . S
C14 O18 1.258 . S
C15 O22 1.247 . S
C15 O23 1.258 . S
O16 C14 1.247 . S
O16 Zn17 2.055 . S
Zn17 O16 2.055 . S
Zn17 O21 2.031 1_554 S
Zn17 O23 2.008 1_554 S
Zn17 O24 2.033 . S
O18 C14 1.258 . S
O18 Zn19 2.045 . S
Zn19 O18 2.045 . S
Zn19 O20 2.026 1_554 S
Zn19 O22 2.018 1_554 S
Zn19 O25 2.037 . S
O20 Zn19 2.026 1_556 S
O20 C26 1.247 . S
O21 Zn17 2.031 1_556 S
O21 C26 1.258 . S
O22 C15 1.247 . S
O22 Zn19 2.018 1_556 S
O23 C15 1.258 . S
O23 Zn17 2.008 1_556 S
O24 Zn17 2.033 . S
O24 C27 1.247 . S
O25 Zn19 2.037 . S
O25 C27 1.258 . S
C26 O20 1.247 . S
C26 O21 1.258 . S
C27 O24 1.247 . S
C27 O25 1.258 . S
C28 O30 1.247 . S
C28 O32 1.258 1_565 S
C29 O36 1.247 . S
C29 O37 1.258 1_545 S
O30 C28 1.247 . S
O30 Zn31 2.052 . S
Zn31 O30 2.052 . S
Zn31 O35 2.031 1_554 S
Zn31 O37 2.011 1_554 S
Zn31 O38 2.023 1_565 S
O32 C28 1.258 1_545 S
O32 Zn33 2.043 . S
Zn33 O32 2.043 . S
Zn33 O34 2.028 1_554 S
Zn33 O36 2.020 1_554 S
Zn33 O39 2.037 . S
O34 Zn33 2.028 1_556 S
O34 C40 1.242 1_545 S
O35 Zn31 2.031 1_556 S
O35 C40 1.258 . S
O36 C29 1.247 . S
O36 Zn33 2.020 1_556 S
O37 C29 1.258 1_565 S
O37 Zn31 2.011 1_556 S
O38 Zn31 2.023 1_545 S
O38 C41 1.296 . S
O39 Zn33 2.037 . S
O39 C41 1.258 . S
C40 O34 1.242 1_565 S
C40 O35 1.258 . S
C41 O38 1.296 . S
C41 O39 1.258 . S
C42 O44 1.247 1_565 S
C42 O46 1.258 . S
C43 O50 1.247 1_545 S
C43 O51 1.258 . S
O44 C42 1.247 1_545 S
O44 Zn45 2.028 . S
Zn45 O44 2.028 . S
Zn45 O49 2.044 . S
Zn45 O51 2.035 . S
Zn45 O52 2.028 . S
O46 C42 1.258 . S
O46 Zn47 2.035 . S
Zn47 O46 2.035 . S
Zn47 O48 2.028 . S
Zn47 O50 2.028 . S
Zn47 O53 1.992 1_565 S
O48 Zn47 2.028 . S
O48 C54 1.247 . S
O49 Zn45 2.044 . S
O49 C54 1.251 1_545 S
O50 C43 1.247 1_565 S
O50 Zn47 2.028 . S
O51 C43 1.258 . S
O51 Zn45 2.035 . S
O52 Zn45 2.028 . S
O52 C55 1.247 . S
O53 Zn47 1.992 1_545 S
O53 C55 1.297 . S
C54 O48 1.247 . S
C54 O49 1.251 1_565 S
C55 O52 1.247 . S
C55 O53 1.297 . S
C56 O58 1.247 1_455 S
C56 O60 1.258 . S
C57 O64 1.247 1_655 S
C57 O65 1.258 . S
O58 C56 1.247 1_655 S
O58 Zn59 2.028 . S
Zn59 O58 2.028 . S
Zn59 O63 2.031 1_655 S
Zn59 O65 2.035 . S
Zn59 O66 2.028 . S
O60 C56 1.258 . S
O60 Zn61 2.035 . S
Zn61 O60 2.035 . S
Zn61 O62 2.028 . S
Zn61 O64 2.028 . S
Zn61 O67 2.035 1_455 S
O62 Zn61 2.028 . S
O62 C68 1.247 . S
O63 Zn59 2.031 1_455 S
O63 C68 1.280 . S
O64 C57 1.247 1_455 S
O64 Zn61 2.028 . S
O65 C57 1.258 . S
O65 Zn59 2.035 . S
O66 Zn59 2.028 . S
O66 C69 1.247 . S
O67 Zn61 2.035 1_655 S
O67 C69 1.259 . S
C68 O62 1.247 . S
C68 O63 1.280 . S
C69 O66 1.247 . S
C69 O67 1.259 . S
C70 O72 1.247 . S
C70 O74 1.258 . S
C71 O78 1.247 . S
C71 O79 1.258 . S
O72 C70 1.247 . S
O72 Zn73 2.028 . S
Zn73 O72 2.028 . S
Zn73 O77 2.035 . S
Zn73 O79 2.035 . S
Zn73 O80 2.028 . S
O74 C70 1.258 . S
O74 Zn75 2.035 . S
Zn75 O74 2.035 . S
Zn75 O76 2.028 . S
Zn75 O78 2.028 . S
Zn75 O81 2.035 . S
O76 Zn75 2.028 . S
O76 C82 1.247 . S
O77 Zn73 2.035 . S
O77 C82 1.258 . S
O78 C71 1.247 . S
O78 Zn75 2.028 . S
O79 C71 1.258 . S
O79 Zn73 2.035 . S
O80 Zn73 2.028 . S
O80 C83 1.247 . S
O81 Zn75 2.035 . S
O81 C83 1.258 . S
C82 O76 1.247 . S
C82 O77 1.258 . S
C83 O80 1.247 . S
C83 O81 1.258 . S
C84 O86 1.247 . S
C84 O88 1.258 . S
C85 O92 1.247 . S
C85 O93 1.258 . S
O86 C84 1.247 . S
O86 Zn87 2.028 . S
Zn87 O86 2.028 . S
Zn87 O91 2.035 . S
Zn87 O93 2.035 . S
Zn87 O94 2.028 . S
O88 C84 1.258 . S
O88 Zn89 2.035 . S
Zn89 O88 2.035 . S
Zn89 O90 2.028 . S
Zn89 O92 2.028 . S
Zn89 O95 2.035 . S
O90 Zn89 2.028 . S
O90 C96 1.247 . S
O91 Zn87 2.035 . S
O91 C96 1.258 . S
O92 C85 1.247 . S
O92 Zn89 2.028 . S
O93 C85 1.258 . S
O93 Zn87 2.035 . S
O94 Zn87 2.028 . S
O94 C97 1.247 . S
O95 Zn89 2.035 . S
O95 C97 1.258 . S
C96 O90 1.247 . S
C96 O91 1.258 . S
C97 O94 1.247 . S
C97 O95 1.258 . S
C98 O100 1.247 . S
C98 O102 1.258 . S
C99 O106 1.247 . S
C99 O107 1.258 . S
O100 C98 1.247 . S
O100 Zn101 2.028 . S
Zn101 O100 2.028 . S
Zn101 O105 2.035 . S
Zn101 O107 2.035 . S
Zn101 O108 2.028 . S
O102 C98 1.258 . S
O102 Zn103 2.035 . S
Zn103 O102 2.035 . S
Zn103 O104 2.028 . S
Zn103 O106 2.028 . S
Zn103 O109 2.035 . S
O104 Zn103 2.028 . S
O104 C110 1.247 . S
O105 Zn101 2.035 . S
O105 C110 1.258 . S
O106 C99 1.247 . S
O106 Zn103 2.028 . S
O107 C99 1.258 . S
O107 Zn101 2.035 . S
O108 Zn101 2.028 . S
O108 C111 1.247 . S
O109 Zn103 2.035 . S
O109 C111 1.258 . S
C110 O104 1.247 . S
C110 O105 1.258 . S
C111 O108 1.247 . S
C111 O109 1.258 . S
C112 O114 1.247 . S
C112 O116 1.258 . S
C113 O120 1.247 . S
C113 O121 1.258 . S
O114 C112 1.247 . S
O114 Zn115 2.028 . S
Zn115 O114 2.028 . S
Zn115 O119 2.035 . S
Zn115 O121 2.035 . S
Zn115 O122 2.028 . S
O116 C112 1.258 . S
O116 Zn117 2.035 . S
Zn117 O116 2.035 . S
Zn117 O118 2.028 . S
Zn117 O120 2.028 . S
Zn117 O123 2.035 . S
O118 Zn117 2.028 . S
O118 C124 1.247 . S
O119 Zn115 2.035 . S
O119 C124 1.258 . S
O120 C113 1.247 . S
O120 Zn117 2.028 . S
O121 C113 1.258 . S
O121 Zn115 2.035 . S
O122 Zn115 2.028 . S
O122 C125 1.247 . S
O123 Zn117 2.035 . S
O123 C125 1.258 . S
C124 O118 1.247 . S
C124 O119 1.258 . S
C125 O122 1.247 . S
C125 O123 1.258 . S
C126 O128 1.247 . S
C126 O130 1.258 . S
C127 O134 1.247 . S
C127 O135 1.258 . S
O128 C126 1.247 . S
O128 Zn129 2.028 . S
Zn129 O128 2.028 . S
Zn129 O133 2.035 . S
Zn129 O135 2.035 . S
Zn129 O136 2.028 . S
O130 C126 1.258 . S
O130 Zn131 2.035 . S
Zn131 O130 2.035 . S
Zn131 O132 2.028 . S
Zn131 O134 2.028 . S
Zn131 O137 2.035 . S
O132 Zn131 2.028 . S
O132 C138 1.247 . S
O133 Zn129 2.035 . S
O133 C138 1.258 . S
O134 C127 1.247 . S
O134 Zn131 2.028 . S
O135 C127 1.258 . S
O135 Zn129 2.035 . S
O136 Zn129 2.028 . S
O136 C139 1.247 . S
O137 Zn131 2.035 . S
O137 C139 1.258 . S
C138 O132 1.247 . S
C138 O133 1.258 . S
C139 O136 1.247 . S
C139 O137 1.258 . S
C140 O142 1.247 . S
C140 O144 1.258 . S
C141 O148 1.247 . S
C141 O149 1.258 . S
O142 C140 1.247 . S
O142 Zn143 2.028 . S
Zn143 O142 2.028 . S
Zn143 O147 2.035 . S
Zn143 O149 2.035 . S
Zn143 O150 2.028 . S
O144 C140 1.258 . S
O144 Zn145 2.035 . S
Zn145 O144 2.035 . S
Zn145 O146 2.028 . S
Zn145 O148 2.028 . S
Zn145 O151 2.035 . S
O146 Zn145 2.028 . S
O146 C152 1.247 . S
O147 Zn143 2.035 . S
O147 C152 1.258 . S
O148 C141 1.247 . S
O148 Zn145 2.028 . S
O149 C141 1.258 . S
O149 Zn143 2.035 . S
O150 Zn143 2.028 . S
O150 C153 1.247 . S
O151 Zn145 2.035 . S
O151 C153 1.258 . S
C152 O146 1.247 . S
C152 O147 1.258 . S
C153 O150 1.247 . S
C153 O151 1.258 . S
C154 O156 1.247 . S
C154 O158 1.258 . S
C155 O162 1.247 . S
C155 O163 1.258 . S
O156 C154 1.247 . S
O156 Zn157 2.028 . S
Zn157 O156 2.028 . S
Zn157 O161 2.035 . S
Zn157 O163 2.035 . S
Zn157 O164 2.028 . S
O158 C154 1.258 . S
O158 Zn159 2.035 . S
Zn159 O158 2.035 . S
Zn159 O160 2.028 . S
Zn159 O162 2.028 . S
Zn159 O165 2.035 . S
O160 Zn159 2.028 . S
O160 C166 1.247 . S
O161 Zn157 2.035 . S
O161 C166 1.258 . S
O162 C155 1.247 . S
O162 Zn159 2.028 . S
O163 C155 1.258 . S
O163 Zn157 2.035 . S
O164 Zn157 2.028 . S
O164 C167 1.247 . S
O165 Zn159 2.035 . S
O165 C167 1.258 . S
C166 O160 1.247 . S
C166 O161 1.258 . S
C167 O164 1.247 . S
C167 O165 1.258 . S
C168 O170 1.247 . S
C168 O172 1.258 . S
C169 O176 1.247 . S
C169 O177 1.258 . S
O170 C168 1.247 . S
O170 Zn171 2.028 . S
Zn171 O170 2.028 . S
Zn171 O175 2.035 . S
Zn171 O177 2.035 . S
Zn171 O178 2.028 . S
O172 C168 1.258 . S
O172 Zn173 2.035 . S
Zn173 O172 2.035 . S
Zn173 O174 2.028 . S
Zn173 O176 2.028 . S
Zn173 O179 2.035 . S
O174 Zn173 2.028 . S
O174 C180 1.247 . S
O175 Zn171 2.035 . S
O175 C180 1.258 . S
O176 C169 1.247 . S
O176 Zn173 2.028 . S
O177 C169 1.258 . S
O177 Zn171 2.035 . S
O178 Zn171 2.028 . S
O178 C181 1.247 . S
O179 Zn173 2.035 . S
O179 C181 1.258 . S
C180 O174 1.247 . S
C180 O175 1.258 . S
C181 O178 1.247 . S
C181 O179 1.258 . S
C182 O184 1.247 . S
C182 O186 1.258 . S
C183 O190 1.247 . S
C183 O191 1.258 . S
O184 C182 1.247 . S
O184 Zn185 2.028 . S
Zn185 O184 2.028 . S
Zn185 O189 2.035 . S
Zn185 O191 2.035 . S
Zn185 O192 2.028 . S
O186 C182 1.258 . S
O186 Zn187 2.035 . S
Zn187 O186 2.035 . S
Zn187 O188 2.028 . S
Zn187 O190 2.028 . S
Zn187 O193 2.035 . S
O188 Zn187 2.028 . S
O188 C194 1.247 . S
O189 Zn185 2.035 . S
O189 C194 1.258 . S
O190 C183 1.247 . S
O190 Zn187 2.028 . S
O191 C183 1.258 . S
O191 Zn185 2.035 . S
O192 Zn185 2.028 . S
O192 C195 1.247 . S
O193 Zn187 2.035 . S
O193 C195 1.258 . S
C194 O188 1.247 . S
C194 O189 1.258 . S
C195 O192 1.247 . S
C195 O193 1.258 . S
C196 O198 1.247 . S
C196 O200 1.258 . S
C197 O204 1.247 . S
C197 O205 1.258 . S
O198 C196 1.247 . S
O198 Zn199 2.028 . S
Zn199 O198 2.028 . S
Zn199 O203 2.035 . S
Zn199 O205 2.035 . S
Zn199 O206 2.028 . S
O200 C196 1.258 . S
O200 Zn201 2.035 . S
Zn201 O200 2.035 . S
Zn201 O202 2.028 . S
Zn201 O204 2.028 . S
Zn201 O207 2.035 . S
O202 Zn201 2.028 . S
O202 C208 1.247 . S
O203 Zn199 2.035 . S
O203 C208 1.258 . S
O204 C197 1.247 . S
O204 Zn201 2.028 . S
O205 C197 1.258 . S
O205 Zn199 2.035 . S
O206 Zn199 2.028 . S
O206 C209 1.247 . S
O207 Zn201 2.035 . S
O207 C209 1.258 . S
C208 O202 1.247 . S
C208 O203 1.258 . S
C209 O206 1.247 . S
C209 O207 1.258 . S
C210 O212 1.247 . S
C210 O214 1.258 . S
C211 O218 1.247 . S
C211 O219 1.258 . S
O212 C210 1.247 . S
O212 Zn213 2.028 . S
Zn213 O212 2.028 . S
Zn213 O217 2.035 . S
Zn213 O219 2.035 . S
Zn213 O220 2.028 . S
O214 C210 1.258 . S
O214 Zn215 2.035 . S
Zn215 O214 2.035 . S
Zn215 O216 2.028 . S
Zn215 O218 2.028 . S
Zn215 O221 2.035 . S
O216 Zn215 2.028 . S
O216 C222 1.247 . S
O217 Zn213 2.035 . S
O217 C222 1.258 . S
O218 C211 1.247 . S
O218 Zn215 2.028 . S
O219 C211 1.258 . S
O219 Zn213 2.035 . S
O220 Zn213 2.028 . S
O220 C223 1.247 . S
O221 Zn215 2.035 . S
O221 C223 1.258 . S
C222 O216 1.247 . S
C222 O217 1.258 . S
C223 O220 1.247 . S
C223 O221 1.258 . S
C224 O226 1.247 . S
C224 O228 1.258 . S
C225 O232 1.247 . S
C225 O233 1.258 . S
O226 C224 1.247 . S
O226 Zn227 2.028 . S
Zn227 O226 2.028 . S
Zn227 O231 2.035 . S
Zn227 O233 2.035 . S
Zn227 O234 2.028 . S
O228 C224 1.258 . S
O228 Zn229 2.035 . S
Zn229 O228 2.035 . S
Zn229 O230 2.028 . S
Zn229 O232 2.028 . S
Zn229 O235 2.035 . S
O230 Zn229 2.028 . S
O230 C236 1.247 . S
O231 Zn227 2.035 . S
O231 C236 1.258 . S
O232 C225 1.247 . S
O232 Zn229 2.028 . S
O233 C225 1.258 . S
O233 Zn227 2.035 . S
O234 Zn227 2.028 . S
O234 C237 1.247 . S
O235 Zn229 2.035 . S
O235 C237 1.258 . S
C236 O230 1.247 . S
C236 O231 1.258 . S
C237 O234 1.247 . S
C237 O235 1.258 . S
C238 O240 1.247 . S
C238 O242 1.258 . S
C239 O246 1.247 . S
C239 O247 1.258 . S
O240 C238 1.247 . S
O240 Zn241 2.028 . S
Zn241 O240 2.028 . S
Zn241 O245 2.035 . S
Zn241 O247 2.035 . S
Zn241 O248 2.028 . S
O242 C238 1.258 . S
O242 Zn243 2.035 . S
Zn243 O242 2.035 . S
Zn243 O244 2.028 . S
Zn243 O246 2.028 . S
Zn243 O249 2.035 . S
O244 Zn243 2.028 . S
O244 C250 1.247 . S
O245 Zn241 2.035 . S
O245 C250 1.258 . S
O246 C239 1.247 . S
O246 Zn243 2.028 . S
O247 C239 1.258 . S
O247 Zn241 2.035 . S
O248 Zn241 2.028 . S
O248 C251 1.247 . S
O249 Zn243 2.035 . S
O249 C251 1.258 . S
C250 O244 1.247 . S
C250 O245 1.258 . S
C251 O248 1.247 . S
C251 O249 1.258 . S
H252 C270 0.951 . S
H253 C272 0.951 . S
H254 C274 0.950 . S
H255 C275 0.950 . S
H256 C277 0.950 . S
H257 C280 0.950 . S
H258 C281 0.950 . S
H259 C283 0.950 . S
H260 C284 0.950 . S
H261 C285 0.951 . S
H262 C287 0.951 . S
H263 C289 0.950 . S
H264 C290 0.950 . S
H265 C292 0.950 . S
H266 C295 0.950 . S
H267 C296 0.950 . S
H268 C298 0.950 . S
H269 C299 0.950 . S
C270 H252 0.951 . S
C270 C271 1.366 1_455 S
C270 C272 1.388 . S
C271 C270 1.366 1_655 S
C271 C275 1.385 . S
C272 H253 0.951 . S
C272 C270 1.388 . S
C272 C273 1.352 1_455 S
C273 C272 1.352 1_655 S
C273 C274 1.428 . S
C273 C276 1.499 . S
C274 H254 0.950 . S
C274 C273 1.428 . S
C274 C275 1.374 . S
C275 H255 0.950 . S
C275 C271 1.385 . S
C275 C274 1.374 . S
C276 C273 1.499 . S
C276 C277 1.374 . S
C276 C278 1.389 1_655 S
C277 H256 0.950 . S
C277 C276 1.374 . S
C277 C293 1.377 . S
C278 C276 1.389 1_455 S
C278 C279 1.524 . S
C278 C292 1.377 . S
C279 C278 1.524 . S
C279 C280 1.397 . S
C279 C284 1.363 . S
C280 H257 0.950 . S
C280 C279 1.397 . S
C280 C281 1.334 . S
C281 H258 0.950 . S
C281 C280 1.334 . S
C281 C282 1.287 . S
C282 C281 1.287 . S
C282 C283 1.524 . S
C282 H301 0.913 . S
C283 H259 0.950 . S
C283 C282 1.524 . S
C283 C284 1.415 . S
C284 H260 0.950 . S
C284 C279 1.363 . S
C284 C283 1.415 . S
C285 H261 0.951 . S
C285 C286 1.366 1_655 S
C285 C287 1.388 . S
C286 C285 1.366 1_455 S
C286 C290 1.385 . S
C287 H262 0.951 . S
C287 C285 1.388 . S
C287 C288 1.331 1_655 S
C288 C287 1.331 1_455 S
C288 C289 1.450 . S
C288 C291 1.499 . S
C289 H263 0.950 . S
C289 C288 1.450 . S
C289 C290 1.374 . S
C290 H264 0.950 . S
C290 C286 1.385 . S
C290 C289 1.374 . S
C291 C288 1.499 . S
C291 C292 1.392 . S
C291 C293 1.370 1_455 S
C292 H265 0.950 . S
C292 C278 1.377 . S
C292 C291 1.392 . S
C293 C277 1.377 . S
C293 C291 1.370 1_655 S
C293 C294 1.524 . S
C294 C293 1.524 . S
C294 C295 1.397 . S
C294 C299 1.363 . S
C295 H266 0.950 . S
C295 C294 1.397 . S
C295 C296 1.334 . S
C296 H267 0.950 . S
C296 C295 1.334 . S
C296 C297 1.287 . S
C297 C296 1.287 . S
C297 C298 1.524 . S
C297 H300 0.999 . S
C298 H268 0.950 . S
C298 C297 1.524 . S
C298 C299 1.415 . S
C299 H269 0.950 . S
C299 C294 1.363 . S
C299 C298 1.415 . S
H300 C297 0.999 . S
H301 C282 0.913 . S
H302 C320 0.951 . S
H303 C322 0.951 . S
H304 C324 0.950 . S
H305 C325 0.950 . S
H306 C327 0.950 . S
H307 C330 0.950 . S
H308 C331 0.950 . S
H309 C333 0.950 . S
H310 C334 0.950 . S
H311 C335 0.951 . S
H312 C337 0.951 . S
H313 C339 0.950 . S
H314 C340 0.950 . S
H315 C342 0.950 . S
H316 C345 0.950 . S
H317 C346 0.950 . S
H318 C348 0.950 . S
H319 C349 0.950 . S
C320 H302 0.951 . S
C320 C321 1.366 . S
C320 C322 1.388 . S
C321 C320 1.366 . S
C321 C325 1.385 . S
C322 H303 0.951 . S
C322 C320 1.388 . S
C322 C323 1.366 . S
C323 C322 1.366 . S
C323 C324 1.414 . S
C323 C326 1.499 . S
C324 H304 0.950 . S
C324 C323 1.414 . S
C324 C325 1.374 . S
C325 H305 0.950 . S
C325 C321 1.385 . S
C325 C324 1.374 . S
C326 C323 1.499 . S
C326 C327 1.373 . S
C326 C328 1.389 . S
C327 H306 0.950 . S
C327 C326 1.373 . S
C327 C343 1.377 . S
C328 C326 1.389 . S
C328 C329 1.524 . S
C328 C342 1.377 . S
C329 C328 1.524 . S
C329 C330 1.397 . S
C329 C334 1.363 . S
C330 H307 0.950 . S
C330 C329 1.397 . S
C330 C331 1.334 . S
C331 H308 0.950 . S
C331 C330 1.334 . S
C331 C332 1.287 . S
C332 C331 1.287 . S
C332 C333 1.524 . S
C332 H351 0.913 . S
C333 H309 0.950 . S
C333 C332 1.524 . S
C333 C334 1.415 . S
C334 H310 0.950 . S
C334 C329 1.363 . S
C334 C333 1.415 . S
C335 H311 0.951 . S
C335 C336 1.366 . S
C335 C337 1.388 . S
C336 C335 1.366 . S
C336 C340 1.385 . S
C337 H312 0.951 . S
C337 C335 1.388 . S
C337 C338 1.366 . S
C338 C337 1.366 . S
C338 C339 1.414 . S
C338 C341 1.499 . S
C339 H313 0.950 . S
C339 C338 1.414 . S
C339 C340 1.374 . S
C340 H314 0.950 . S
C340 C336 1.385 . S
C340 C339 1.374 . S
C341 C338 1.499 . S
C341 C342 1.373 . S
C341 C343 1.389 . S
C342 H315 0.950 . S
C342 C328 1.377 . S
C342 C341 1.373 . S
C343 C327 1.377 . S
C343 C341 1.389 . S
C343 C344 1.524 . S
C344 C343 1.524 . S
C344 C345 1.397 . S
C344 C349 1.363 . S
C345 H316 0.950 . S
C345 C344 1.397 . S
C345 C346 1.334 . S
C346 H317 0.950 . S
C346 C345 1.334 . S
C346 C347 1.287 . S
C347 C346 1.287 . S
C347 C348 1.524 . S
C347 H350 0.999 . S
C348 H318 0.950 . S
C348 C347 1.524 . S
C348 C349 1.415 . S
C349 H319 0.950 . S
C349 C344 1.363 . S
C349 C348 1.415 . S
H350 C347 0.999 . S
H351 C332 0.913 . S
H352 C370 0.951 . S
H353 C372 0.951 . S
H354 C374 0.950 . S
H355 C375 0.950 . S
H356 C377 0.950 . S
H357 C380 0.950 . S
H358 C381 0.950 . S
H359 C383 0.950 . S
H360 C384 0.950 . S
H361 C385 0.951 . S
H362 C387 0.951 . S
H363 C389 0.950 . S
H364 C390 0.950 . S
H365 C392 0.950 . S
H366 C395 0.950 . S
H367 C396 0.950 . S
H368 C398 0.950 . S
H369 C399 0.950 . S
C370 H352 0.951 . S
C370 C371 1.366 . S
C370 C372 1.388 . S
C371 C370 1.366 . S
C371 C375 1.385 1_565 S
C372 H353 0.951 . S
C372 C370 1.388 . S
C372 C373 1.366 . S
C373 C372 1.366 . S
C373 C374 1.414 1_565 S
C373 C376 1.499 . S
C374 H354 0.950 . S
C374 C373 1.414 1_545 S
C374 C375 1.374 . S
C375 H355 0.950 . S
C375 C371 1.385 1_545 S
C375 C374 1.374 . S
C376 C373 1.499 . S
C376 C377 1.373 1_565 S
C376 C378 1.389 . S
C377 H356 0.950 . S
C377 C376 1.373 1_545 S
C377 C393 1.377 . S
C378 C376 1.389 . S
C378 C379 1.524 . S
C378 C392 1.377 . S
C379 C378 1.524 . S
C379 C380 1.397 . S
C379 C384 1.363 . S
C380 H357 0.950 . S
C380 C379 1.397 . S
C380 C381 1.334 . S
C381 H358 0.950 . S
C381 C380 1.334 . S
C381 C382 1.287 . S
C382 C381 1.287 . S
C382 C383 1.524 . S
C382 H401 0.913 . S
C383 H359 0.950 . S
C383 C382 1.524 . S
C383 C384 1.415 . S
C384 H360 0.950 . S
C384 C379 1.363 . S
C384 C383 1.415 . S
C385 H361 0.951 . S
C385 C386 1.366 . S
C385 C387 1.388 . S
C386 C385 1.366 . S
C386 C390 1.385 1_545 S
C387 H362 0.951 . S
C387 C385 1.388 . S
C387 C388 1.366 . S
C388 C387 1.366 . S
C388 C389 1.414 1_545 S
C388 C391 1.499 . S
C389 H363 0.950 . S
C389 C388 1.414 1_565 S
C389 C390 1.374 . S
C390 H364 0.950 . S
C390 C386 1.385 1_565 S
C390 C389 1.374 . S
C391 C388 1.499 . S
C391 C392 1.373 1_545 S
C391 C393 1.389 . S
C392 H365 0.950 . S
C392 C378 1.377 . S
C392 C391 1.373 1_565 S
C393 C377 1.377 . S
C393 C391 1.389 . S
C393 C394 1.524 . S
C394 C393 1.524 . S
C394 C395 1.397 . S
C394 C399 1.363 . S
C395 H366 0.950 . S
C395 C394 1.397 . S
C395 C396 1.334 . S
C396 H367 0.950 . S
C396 C395 1.334 . S
C396 C397 1.287 . S
C397 C396 1.287 . S
C397 C398 1.524 . S
C397 H400 0.999 . S
C398 H368 0.950 . S
C398 C397 1.524 . S
C398 C399 1.415 . S
C399 H369 0.950 . S
C399 C394 1.363 . S
C399 C398 1.415 . S
H400 C397 0.999 . S
H401 C382 0.913 . S
H402 C420 0.951 . S
H403 C422 0.932 . S
H404 C424 0.950 . S
H405 C425 0.950 . S
H406 C427 0.950 . S
H407 C430 0.950 . S
H408 C431 0.950 . S
H409 C433 0.950 . S
H410 C434 0.950 . S
H411 C435 0.951 . S
H412 C437 0.959 . S
H413 C439 0.951 . S
H414 C440 0.950 . S
H415 C442 0.950 . S
H416 C445 0.950 . S
H417 C446 0.950 . S
H418 C448 0.950 . S
H419 C449 0.950 . S
C420 H402 0.951 . S
C420 C421 1.366 . S
C420 C422 1.388 . S
C421 C420 1.366 . S
C421 C425 1.385 . S
C422 H403 0.932 . S
C422 C420 1.388 . S
C422 C423 1.371 . S
C423 C422 1.371 . S
C423 C424 1.410 . S
C423 C426 1.498 1_455 S
C424 H404 0.950 . S
C424 C423 1.410 . S
C424 C425 1.374 . S
C425 H405 0.950 . S
C425 C421 1.385 . S
C425 C424 1.374 . S
C426 C423 1.498 1_655 S
C426 C427 1.365 1_655 S
C426 C428 1.397 . S
C427 H406 0.950 . S
C427 C426 1.365 1_455 S
C427 C443 1.377 . S
C428 C426 1.397 . S
C428 C429 1.524 . S
C428 C442 1.377 . S
C429 C428 1.524 . S
C429 C430 1.397 . S
C429 C434 1.363 . S
C430 H407 0.950 . S
C430 C429 1.397 . S
C430 C431 1.334 . S
C431 H408 0.950 . S
C431 C430 1.334 . S
C431 C432 1.287 . S
C432 C431 1.287 . S
C432 C433 1.524 . S
C432 H451 0.913 . S
C433 H409 0.950 . S
C433 C432 1.524 . S
C433 C434 1.415 . S
C434 H410 0.950 . S
C434 C429 1.363 . S
C434 C433 1.415 . S
C435 H411 0.951 . S
C435 C436 1.366 . S
C435 C437 1.390 . S
C436 C435 1.366 . S
C436 C440 1.385 . S
C437 H412 0.959 . S
C437 C435 1.390 . S
C437 C438 1.347 1_655 S
C438 C437 1.347 1_455 S
C438 C439 1.436 1_455 S
C438 C441 1.497 . S
C439 H413 0.951 . S
C439 C438 1.436 1_655 S
C439 C440 1.377 . S
C440 H414 0.950 . S
C440 C436 1.385 . S
C440 C439 1.377 . S
C441 C438 1.497 . S
C441 C442 1.358 1_455 S
C441 C443 1.405 . S
C442 H415 0.950 . S
C442 C428 1.377 . S
C442 C441 1.358 1_655 S
C443 C427 1.377 . S
C443 C441 1.405 . S
C443 C444 1.524 . S
C444 C443 1.524 . S
C444 C445 1.397 . S
C444 C449 1.363 . S
C445 H416 0.950 . S
C445 C444 1.397 . S
C445 C446 1.334 . S
C446 H417 0.950 . S
C446 C445 1.334 . S
C446 C447 1.287 . S
C447 C446 1.287 . S
C447 C448 1.524 . S
C447 H450 0.999 . S
C448 H418 0.950 . S
C448 C447 1.524 . S
C448 C449 1.415 . S
C449 H419 0.950 . S
C449 C444 1.363 . S
C449 C448 1.415 . S
H450 C447 0.999 . S
H451 C432 0.913 . S
H452 C470 0.951 . S
H453 C472 0.951 . S
H454 C474 0.950 . S
H455 C475 0.950 . S
H456 C477 0.950 . S
H457 C480 0.950 . S
H458 C481 0.950 . S
H459 C483 0.950 . S
H460 C484 0.950 . S
H461 C485 0.951 . S
H462 C487 0.951 . S
H463 C489 0.950 . S
H464 C490 0.950 . S
H465 C492 0.950 . S
H466 C495 0.950 . S
H467 C496 0.950 . S
H468 C498 0.950 . S
H469 C499 0.950 . S
C470 H452 0.951 . S
C470 C471 1.366 . S
C470 C472 1.388 . S
C471 C470 1.366 . S
C471 C475 1.385 . S
C472 H453 0.951 . S
C472 C470 1.388 . S
C472 C473 1.366 . S
C473 C472 1.366 . S
C473 C474 1.414 . S
C473 C476 1.499 . S
C474 H454 0.950 . S
C474 C473 1.414 . S
C474 C475 1.374 . S
C475 H455 0.950 . S
C475 C471 1.385 . S
C475 C474 1.374 . S
C476 C473 1.499 . S
C476 C477 1.373 . S
C476 C478 1.389 . S
C477 H456 0.950 . S
C477 C476 1.373 . S
C477 C493 1.377 . S
C478 C476 1.389 . S
C478 C479 1.524 . S
C478 C492 1.377 . S
C479 C478 1.524 . S
C479 C480 1.397 . S
C479 C484 1.363 . S
C480 H457 0.950 . S
C480 C479 1.397 . S
C480 C481 1.334 . S
C481 H458 0.950 . S
C481 C480 1.334 . S
C481 C482 1.287 . S
C482 C481 1.287 . S
C482 C483 1.524 . S
C482 H501 0.913 . S
C483 H459 0.950 . S
C483 C482 1.524 . S
C483 C484 1.415 . S
C484 H460 0.950 . S
C484 C479 1.363 . S
C484 C483 1.415 . S
C485 H461 0.951 . S
C485 C486 1.366 . S
C485 C487 1.388 . S
C486 C485 1.366 . S
C486 C490 1.385 . S
C487 H462 0.951 . S
C487 C485 1.388 . S
C487 C488 1.366 . S
C488 C487 1.366 . S
C488 C489 1.414 . S
C488 C491 1.499 . S
C489 H463 0.950 . S
C489 C488 1.414 . S
C489 C490 1.374 . S
C490 H464 0.950 . S
C490 C486 1.385 . S
C490 C489 1.374 . S
C491 C488 1.499 . S
C491 C492 1.373 . S
C491 C493 1.389 . S
C492 H465 0.950 . S
C492 C478 1.377 . S
C492 C491 1.373 . S
C493 C477 1.377 . S
C493 C491 1.389 . S
C493 C494 1.524 . S
C494 C493 1.524 . S
C494 C495 1.397 . S
C494 C499 1.363 . S
C495 H466 0.950 . S
C495 C494 1.397 . S
C495 C496 1.334 . S
C496 H467 0.950 . S
C496 C495 1.334 . S
C496 C497 1.287 . S
C497 C496 1.287 . S
C497 C498 1.524 . S
C497 H500 0.999 . S
C498 H468 0.950 . S
C498 C497 1.524 . S
C498 C499 1.415 . S
C499 H469 0.950 . S
C499 C494 1.363 . S
C499 C498 1.415 . S
H500 C497 0.999 . S
H501 C482 0.913 . S
H502 C520 0.951 . S
H503 C522 0.951 . S
H504 C524 0.950 . S
H505 C525 0.950 . S
H506 C527 0.950 . S
H507 C530 0.950 . S
H508 C531 0.950 . S
H509 C533 0.950 . S
H510 C534 0.950 . S
H511 C535 0.951 . S
H512 C537 0.951 . S
H513 C539 0.950 . S
H514 C540 0.950 . S
H515 C542 0.950 . S
H516 C545 0.950 . S
H517 C546 0.950 . S
H518 C548 0.950 . S
H519 C549 0.950 . S
C520 H502 0.951 . S
C520 C521 1.366 1_565 S
C520 C522 1.388 . S
C521 C520 1.366 1_545 S
C521 C525 1.385 . S
C522 H503 0.951 . S
C522 C520 1.388 . S
C522 C523 1.366 1_565 S
C523 C522 1.366 1_545 S
C523 C524 1.414 . S
C523 C526 1.499 . S
C524 H504 0.950 . S
C524 C523 1.414 . S
C524 C525 1.374 . S
C525 H505 0.950 . S
C525 C521 1.385 . S
C525 C524 1.374 . S
C526 C523 1.499 . S
C526 C527 1.373 . S
C526 C528 1.389 1_545 S
C527 H506 0.950 . S
C527 C526 1.373 . S
C527 C543 1.377 . S
C528 C526 1.389 1_565 S
C528 C529 1.524 . S
C528 C542 1.377 . S
C529 C528 1.524 . S
C529 C530 1.397 . S
C529 C534 1.363 . S
C530 H507 0.950 . S
C530 C529 1.397 . S
C530 C531 1.334 . S
C531 H508 0.950 . S
C531 C530 1.334 . S
C531 C532 1.287 . S
C532 C531 1.287 . S
C532 C533 1.524 . S
C532 H551 0.913 . S
C533 H509 0.950 . S
C533 C532 1.524 . S
C533 C534 1.415 . S
C534 H510 0.950 . S
C534 C529 1.363 . S
C534 C533 1.415 . S
C535 H511 0.951 . S
C535 C536 1.366 1_545 S
C535 C537 1.388 . S
C536 C535 1.366 1_565 S
C536 C540 1.385 . S
C537 H512 0.951 . S
C537 C535 1.388 . S
C537 C538 1.365 1_545 S
C538 C537 1.365 1_565 S
C538 C539 1.414 . S
C538 C541 1.499 1_565 S
C539 H513 0.950 . S
C539 C538 1.414 . S
C539 C540 1.374 . S
C540 H514 0.950 . S
C540 C536 1.385 . S
C540 C539 1.374 . S
C541 C538 1.499 1_545 S
C541 C542 1.376 1_545 S
C541 C543 1.387 . S
C542 H515 0.950 . S
C542 C528 1.377 . S
C542 C541 1.376 1_565 S
C543 C527 1.377 . S
C543 C541 1.387 . S
C543 C544 1.524 . S
C544 C543 1.524 . S
C544 C545 1.397 . S
C544 C549 1.363 . S
C545 H516 0.950 . S
C545 C544 1.397 . S
C545 C546 1.334 . S
C546 H517 0.950 . S
C546 C545 1.334 . S
C546 C547 1.287 . S
C547 C546 1.287 . S
C547 C548 1.524 . S
C547 H550 0.999 . S
C548 H518 0.950 . S
C548 C547 1.524 . S
C548 C549 1.415 . S
C549 H519 0.950 . S
C549 C544 1.363 . S
C549 C548 1.415 . S
H550 C547 0.999 . S
H551 C532 0.913 . S
H552 C570 0.951 . S
H553 C572 0.951 . S
H554 C574 0.950 . S
H555 C575 0.950 . S
H556 C577 0.950 . S
H557 C580 0.950 . S
H558 C581 0.950 . S
H559 C583 0.950 . S
H560 C584 0.950 . S
H561 C585 0.951 . S
H562 C587 0.951 . S
H563 C589 0.950 . S
H564 C590 0.950 . S
H565 C592 0.950 . S
H566 C595 0.950 . S
H567 C596 0.950 . S
H568 C598 0.950 . S
H569 C599 0.950 . S
C570 H552 0.951 . S
C570 C571 1.366 . S
C570 C572 1.388 . S
C571 C570 1.366 . S
C571 C575 1.385 . S
C572 H553 0.951 . S
C572 C570 1.388 . S
C572 C573 1.366 . S
C573 C572 1.366 . S
C573 C574 1.414 . S
C573 C576 1.499 . S
C574 H554 0.950 . S
C574 C573 1.414 . S
C574 C575 1.374 . S
C575 H555 0.950 . S
C575 C571 1.385 . S
C575 C574 1.374 . S
C576 C573 1.499 . S
C576 C577 1.373 . S
C576 C578 1.389 . S
C577 H556 0.950 . S
C577 C576 1.373 . S
C577 C593 1.377 . S
C578 C576 1.389 . S
C578 C579 1.524 . S
C578 C592 1.377 . S
C579 C578 1.524 . S
C579 C580 1.397 . S
C579 C584 1.363 . S
C580 H557 0.950 . S
C580 C579 1.397 . S
C580 C581 1.334 . S
C581 H558 0.950 . S
C581 C580 1.334 . S
C581 C582 1.287 . S
C582 C581 1.287 . S
C582 C583 1.524 . S
C582 H601 0.913 . S
C583 H559 0.950 . S
C583 C582 1.524 . S
C583 C584 1.415 . S
C584 H560 0.950 . S
C584 C579 1.363 . S
C584 C583 1.415 . S
C585 H561 0.951 . S
C585 C586 1.366 . S
C585 C587 1.388 . S
C586 C585 1.366 . S
C586 C590 1.385 . S
C587 H562 0.951 . S
C587 C585 1.388 . S
C587 C588 1.366 . S
C588 C587 1.366 . S
C588 C589 1.414 . S
C588 C591 1.499 . S
C589 H563 0.950 . S
C589 C588 1.414 . S
C589 C590 1.374 . S
C590 H564 0.950 . S
C590 C586 1.385 . S
C590 C589 1.374 . S
C591 C588 1.499 . S
C591 C592 1.373 . S
C591 C593 1.389 . S
C592 H565 0.950 . S
C592 C578 1.377 . S
C592 C591 1.373 . S
C593 C577 1.377 . S
C593 C591 1.389 . S
C593 C594 1.524 . S
C594 C593 1.524 . S
C594 C595 1.397 . S
C594 C599 1.363 . S
C595 H566 0.950 . S
C595 C594 1.397 . S
C595 C596 1.334 . S
C596 H567 0.950 . S
C596 C595 1.334 . S
C596 C597 1.287 . S
C597 C596 1.287 . S
C597 C598 1.524 . S
C597 H600 0.999 . S
C598 H568 0.950 . S
C598 C597 1.524 . S
C598 C599 1.415 . S
C599 H569 0.950 . S
C599 C594 1.363 . S
C599 C598 1.415 . S
H600 C597 0.999 . S
H601 C582 0.913 . S
H602 C620 0.951 . S
H603 C622 0.951 . S
H604 C624 0.950 . S
H605 C625 0.950 . S
H606 C627 0.950 . S
H607 C630 0.950 . S
H608 C631 0.950 . S
H609 C633 0.950 . S
H610 C634 0.950 . S
H611 C635 0.951 . S
H612 C637 0.951 . S
H613 C639 0.950 . S
H614 C640 0.950 . S
H615 C642 0.950 . S
H616 C645 0.950 . S
H617 C646 0.950 . S
H618 C648 0.950 . S
H619 C649 0.950 . S
C620 H602 0.951 . S
C620 C621 1.366 . S
C620 C622 1.388 . S
C621 C620 1.366 . S
C621 C625 1.385 . S
C622 H603 0.951 . S
C622 C620 1.388 . S
C622 C623 1.366 . S
C623 C622 1.366 . S
C623 C624 1.414 . S
C623 C626 1.499 . S
C624 H604 0.950 . S
C624 C623 1.414 . S
C624 C625 1.374 . S
C625 H605 0.950 . S
C625 C621 1.385 . S
C625 C624 1.374 . S
C626 C623 1.499 . S
C626 C627 1.373 . S
C626 C628 1.389 . S
C627 H606 0.950 . S
C627 C626 1.373 . S
C627 C643 1.377 . S
C628 C626 1.389 . S
C628 C629 1.524 . S
C628 C642 1.377 . S
C629 C628 1.524 . S
C629 C630 1.397 . S
C629 C634 1.363 . S
C630 H607 0.950 . S
C630 C629 1.397 . S
C630 C631 1.334 . S
C631 H608 0.950 . S
C631 C630 1.334 . S
C631 C632 1.287 . S
C632 C631 1.287 . S
C632 C633 1.524 . S
C632 H651 0.913 . S
C633 H609 0.950 . S
C633 C632 1.524 . S
C633 C634 1.415 . S
C634 H610 0.950 . S
C634 C629 1.363 . S
C634 C633 1.415 . S
C635 H611 0.951 . S
C635 C636 1.366 . S
C635 C637 1.388 . S
C636 C635 1.366 . S
C636 C640 1.385 . S
C637 H612 0.951 . S
C637 C635 1.388 . S
C637 C638 1.366 . S
C638 C637 1.366 . S
C638 C639 1.414 . S
C638 C641 1.499 . S
C639 H613 0.950 . S
C639 C638 1.414 . S
C639 C640 1.374 . S
C640 H614 0.950 . S
C640 C636 1.385 . S
C640 C639 1.374 . S
C641 C638 1.499 . S
C641 C642 1.373 . S
C641 C643 1.389 . S
C642 H615 0.950 . S
C642 C628 1.377 . S
C642 C641 1.373 . S
C643 C627 1.377 . S
C643 C641 1.389 . S
C643 C644 1.524 . S
C644 C643 1.524 . S
C644 C645 1.397 . S
C644 C649 1.363 . S
C645 H616 0.950 . S
C645 C644 1.397 . S
C645 C646 1.334 . S
C646 H617 0.950 . S
C646 C645 1.334 . S
C646 C647 1.287 . S
C647 C646 1.287 . S
C647 C648 1.524 . S
C647 H650 0.999 . S
C648 H618 0.950 . S
C648 C647 1.524 . S
C648 C649 1.415 . S
C649 H619 0.950 . S
C649 C644 1.363 . S
C649 C648 1.415 . S
H650 C647 0.999 . S
H651 C632 0.913 . S
H652 C670 0.951 . S
H653 C672 0.951 . S
H654 C674 0.950 . S
H655 C675 0.950 . S
H656 C677 0.950 . S
H657 C680 0.950 . S
H658 C681 0.950 . S
H659 C683 0.950 . S
H660 C684 0.950 . S
H661 C685 0.951 . S
H662 C687 0.951 . S
H663 C689 0.950 . S
H664 C690 0.950 . S
H665 C692 0.950 . S
H666 C695 0.950 . S
H667 C696 0.950 . S
H668 C698 0.950 . S
H669 C699 0.950 . S
C670 H652 0.951 . S
C670 C671 1.366 . S
C670 C672 1.388 . S
C671 C670 1.366 . S
C671 C675 1.385 . S
C672 H653 0.951 . S
C672 C670 1.388 . S
C672 C673 1.366 . S
C673 C672 1.366 . S
C673 C674 1.414 . S
C673 C676 1.499 . S
C674 H654 0.950 . S
C674 C673 1.414 . S
C674 C675 1.374 . S
C675 H655 0.950 . S
C675 C671 1.385 . S
C675 C674 1.374 . S
C676 C673 1.499 . S
C676 C677 1.373 . S
C676 C678 1.389 . S
C677 H656 0.950 . S
C677 C676 1.373 . S
C677 C693 1.377 . S
C678 C676 1.389 . S
C678 C679 1.524 . S
C678 C692 1.377 . S
C679 C678 1.524 . S
C679 C680 1.397 . S
C679 C684 1.363 . S
C680 H657 0.950 . S
C680 C679 1.397 . S
C680 C681 1.334 . S
C681 H658 0.950 . S
C681 C680 1.334 . S
C681 C682 1.287 . S
C682 C681 1.287 . S
C682 C683 1.524 . S
C682 H701 0.913 . S
C683 H659 0.950 . S
C683 C682 1.524 . S
C683 C684 1.415 . S
C684 H660 0.950 . S
C684 C679 1.363 . S
C684 C683 1.415 . S
C685 H661 0.951 . S
C685 C686 1.366 . S
C685 C687 1.388 . S
C686 C685 1.366 . S
C686 C690 1.385 . S
C687 H662 0.951 . S
C687 C685 1.388 . S
C687 C688 1.366 . S
C688 C687 1.366 . S
C688 C689 1.414 . S
C688 C691 1.499 . S
C689 H663 0.950 . S
C689 C688 1.414 . S
C689 C690 1.374 . S
C690 H664 0.950 . S
C690 C686 1.385 . S
C690 C689 1.374 . S
C691 C688 1.499 . S
C691 C692 1.373 . S
C691 C693 1.389 . S
C692 H665 0.950 . S
C692 C678 1.377 . S
C692 C691 1.373 . S
C693 C677 1.377 . S
C693 C691 1.389 . S
C693 C694 1.524 . S
C694 C693 1.524 . S
C694 C695 1.397 . S
C694 C699 1.363 . S
C695 H666 0.950 . S
C695 C694 1.397 . S
C695 C696 1.334 . S
C696 H667 0.950 . S
C696 C695 1.334 . S
C696 C697 1.287 . S
C697 C696 1.287 . S
C697 C698 1.524 . S
C697 H700 0.999 . S
C698 H668 0.950 . S
C698 C697 1.524 . S
C698 C699 1.415 . S
C699 H669 0.950 . S
C699 C694 1.363 . S
C699 C698 1.415 . S
H700 C697 0.999 . S
H701 C682 0.913 . S
H702 C720 0.951 . S
H703 C722 0.951 . S
H704 C724 0.950 . S
H705 C725 0.950 . S
H706 C727 0.950 . S
H707 C730 0.950 . S
H708 C731 0.950 . S
H709 C733 0.950 . S
H710 C734 0.950 . S
H711 C735 0.951 . S
H712 C737 0.953 . S
H713 C739 0.943 1_554 S
H714 C740 0.950 . S
H715 C742 0.950 . S
H716 C745 0.950 . S
H717 C746 0.941 1_556 S
H718 C748 0.950 . S
H719 C749 0.950 . S
C720 H702 0.951 . S
C720 C721 1.366 . S
C720 C722 1.388 . S
C721 C720 1.366 . S
C721 C725 1.385 . S
C722 H703 0.951 . S
C722 C720 1.388 . S
C722 C723 1.366 . S
C723 C722 1.366 . S
C723 C724 1.414 . S
C723 C726 1.499 . S
C724 H704 0.950 . S
C724 C723 1.414 . S
C724 C725 1.374 . S
C725 H705 0.950 . S
C725 C721 1.385 . S
C725 C724 1.374 . S
C726 C723 1.499 . S
C726 C727 1.373 . S
C726 C728 1.389 . S
C727 H706 0.950 . S
C727 C726 1.373 . S
C727 C743 1.377 . S
C728 C726 1.389 . S
C728 C729 1.524 . S
C728 C742 1.377 . S
C729 C728 1.524 . S
C729 C730 1.397 . S
C729 C734 1.363 . S
C730 H707 0.950 . S
C730 C729 1.397 . S
C730 C731 1.334 . S
C731 H708 0.950 . S
C731 C730 1.334 . S
C731 C732 1.287 . S
C732 C731 1.287 . S
C732 C733 1.524 . S
C732 H751 0.913 . S
C733 H709 0.950 . S
C733 C732 1.524 . S
C733 C734 1.415 . S
C734 H710 0.950 . S
C734 C729 1.363 . S
C734 C733 1.415 . S
C735 H711 0.951 . S
C735 C736 1.366 . S
C735 C737 1.388 . S
C736 C735 1.366 . S
C736 C740 1.385 . S
C737 H712 0.953 . S
C737 C735 1.388 . S
C737 C738 1.366 1_556 S
C738 C737 1.366 1_554 S
C738 C739 1.414 1_554 S
C738 C741 1.499 . S
C739 H713 0.943 1_556 S
C739 C738 1.414 1_556 S
C739 C740 1.374 . S
C740 H714 0.950 . S
C740 C736 1.385 . S
C740 C739 1.374 . S
C741 C738 1.499 . S
C741 C742 1.373 . S
C741 C743 1.389 . S
C742 H715 0.950 . S
C742 C728 1.377 . S
C742 C741 1.373 . S
C743 C727 1.377 . S
C743 C741 1.389 . S
C743 C744 1.524 . S
C744 C743 1.524 . S
C744 C745 1.397 . S
C744 C749 1.363 . S
C745 H716 0.950 . S
C745 C744 1.397 . S
C745 C746 1.334 . S
C746 H717 0.941 1_554 S
C746 C745 1.334 . S
C746 C747 1.287 . S
C747 C746 1.287 . S
C747 C748 1.524 . S
C747 H750 0.999 . S
C748 H718 0.950 . S
C748 C747 1.524 . S
C748 C749 1.415 . S
C749 H719 0.950 . S
C749 C744 1.363 . S
C749 C748 1.415 . S
H750 C747 0.999 . S
H751 C732 0.913 . S
H752 C770 0.951 . S
H753 C772 0.951 1_554 S
H754 C774 0.950 . S
H755 C775 0.950 . S
H756 C777 0.950 . S
H757 C780 0.950 . S
H758 C781 0.948 1_556 S
H759 C783 0.950 . S
H760 C784 0.950 . S
H761 C785 0.951 . S
H762 C787 0.951 . S
H763 C789 0.950 . S
H764 C790 0.950 . S
H765 C792 0.950 . S
H766 C795 0.950 . S
H767 C796 0.950 . S
H768 C798 0.950 . S
H769 C799 0.950 . S
C770 H752 0.951 . S
C770 C771 1.366 . S
C770 C772 1.388 . S
C771 C770 1.366 . S
C771 C775 1.385 . S
C772 H753 0.951 1_556 S
C772 C770 1.388 . S
C772 C773 1.366 1_556 S
C773 C772 1.366 1_554 S
C773 C774 1.414 1_554 S
C773 C776 1.499 . S
C774 H754 0.950 . S
C774 C773 1.414 1_556 S
C774 C775 1.374 . S
C775 H755 0.950 . S
C775 C771 1.385 . S
C775 C774 1.374 . S
C776 C773 1.499 . S
C776 C777 1.373 . S
C776 C778 1.389 . S
C777 H756 0.950 . S
C777 C776 1.373 . S
C777 C793 1.377 . S
C778 C776 1.389 . S
C778 C779 1.524 . S
C778 C792 1.377 . S
C779 C778 1.524 . S
C779 C780 1.397 . S
C779 C784 1.363 . S
C780 H757 0.950 . S
C780 C779 1.397 . S
C780 C781 1.334 . S
C781 H758 0.948 1_554 S
C781 C780 1.334 . S
C781 C782 1.287 . S
C782 C781 1.287 . S
C782 C783 1.524 . S
C782 H801 0.913 . S
C783 H759 0.950 . S
C783 C782 1.524 . S
C783 C784 1.415 . S
C784 H760 0.950 . S
C784 C779 1.363 . S
C784 C783 1.415 . S
C785 H761 0.951 . S
C785 C786 1.366 . S
C785 C787 1.388 . S
C786 C785 1.366 . S
C786 C790 1.385 . S
C787 H762 0.951 . S
C787 C785 1.388 . S
C787 C788 1.366 . S
C788 C787 1.366 . S
C788 C789 1.414 . S
C788 C791 1.499 . S
C789 H763 0.950 . S
C789 C788 1.414 . S
C789 C790 1.374 . S
C790 H764 0.950 . S
C790 C786 1.385 . S
C790 C789 1.374 . S
C791 C788 1.499 . S
C791 C792 1.373 . S
C791 C793 1.389 . S
C792 H765 0.950 . S
C792 C778 1.377 . S
C792 C791 1.373 . S
C793 C777 1.377 . S
C793 C791 1.389 . S
C793 C794 1.524 . S
C794 C793 1.524 . S
C794 C795 1.397 . S
C794 C799 1.363 . S
C795 H766 0.950 . S
C795 C794 1.397 . S
C795 C796 1.334 . S
C796 H767 0.950 . S
C796 C795 1.334 . S
C796 C797 1.287 . S
C797 C796 1.287 . S
C797 C798 1.524 . S
C797 H800 0.999 . S
C798 H768 0.950 . S
C798 C797 1.524 . S
C798 C799 1.415 . S
C799 H769 0.950 . S
C799 C794 1.363 . S
C799 C798 1.415 . S
H800 C797 0.999 . S
H801 C782 0.913 . S
H802 C820 0.951 . S
H803 C822 0.951 1_554 S
H804 C824 0.950 . S
H805 C825 0.950 . S
H806 C827 0.950 . S
H807 C830 0.950 . S
H808 C831 0.950 1_556 S
H809 C833 0.950 . S
H810 C834 0.950 . S
H811 C835 0.951 . S
H812 C837 0.951 . S
H813 C839 0.950 . S
H814 C840 0.950 . S
H815 C842 0.950 . S
H816 C845 0.950 . S
H817 C846 0.950 . S
H818 C848 0.950 . S
H819 C849 0.950 . S
C820 H802 0.951 . S
C820 C821 1.366 . S
C820 C822 1.388 . S
C821 C820 1.366 . S
C821 C825 1.385 . S
C822 H803 0.951 1_556 S
C822 C820 1.388 . S
C822 C823 1.366 1_556 S
C823 C822 1.366 1_554 S
C823 C824 1.414 1_554 S
C823 C826 1.499 . S
C824 H804 0.950 . S
C824 C823 1.414 1_556 S
C824 C825 1.374 . S
C825 H805 0.950 . S
C825 C821 1.385 . S
C825 C824 1.374 . S
C826 C823 1.499 . S
C826 C827 1.373 . S
C826 C828 1.389 . S
C827 H806 0.950 . S
C827 C826 1.373 . S
C827 C843 1.377 . S
C828 C826 1.389 . S
C828 C829 1.524 . S
C828 C842 1.377 . S
C829 C828 1.524 . S
C829 C830 1.397 . S
C829 C834 1.363 . S
C830 H807 0.950 . S
C830 C829 1.397 . S
C830 C831 1.334 . S
C831 H808 0.950 1_554 S
C831 C830 1.334 . S
C831 C832 1.287 . S
C832 C831 1.287 . S
C832 C833 1.524 . S
C832 H851 0.913 . S
C833 H809 0.950 . S
C833 C832 1.524 . S
C833 C834 1.415 . S
C834 H810 0.950 . S
C834 C829 1.363 . S
C834 C833 1.415 . S
C835 H811 0.951 . S
C835 C836 1.366 . S
C835 C837 1.388 . S
C836 C835 1.366 . S
C836 C840 1.385 . S
C837 H812 0.951 . S
C837 C835 1.388 . S
C837 C838 1.366 . S
C838 C837 1.366 . S
C838 C839 1.414 . S
C838 C841 1.499 . S
C839 H813 0.950 . S
C839 C838 1.414 . S
C839 C840 1.374 . S
C840 H814 0.950 . S
C840 C836 1.385 . S
C840 C839 1.374 . S
C841 C838 1.499 . S
C841 C842 1.373 . S
C841 C843 1.389 . S
C842 H815 0.950 . S
C842 C828 1.377 . S
C842 C841 1.373 . S
C843 C827 1.377 . S
C843 C841 1.389 . S
C843 C844 1.524 . S
C844 C843 1.524 . S
C844 C845 1.397 . S
C844 C849 1.363 . S
C845 H816 0.950 . S
C845 C844 1.397 . S
C845 C846 1.334 . S
C846 H817 0.950 . S
C846 C845 1.334 . S
C846 C847 1.287 . S
C847 C846 1.287 . S
C847 C848 1.524 . S
C847 H850 0.999 . S
C848 H818 0.950 . S
C848 C847 1.524 . S
C848 C849 1.415 . S
C849 H819 0.950 . S
C849 C844 1.363 . S
C849 C848 1.415 . S
H850 C847 0.999 . S
H851 C832 0.913 . S
H852 C870 0.951 . S
H853 C872 0.937 1_556 S
H854 C874 0.950 . S
H855 C875 0.950 . S
H856 C877 0.950 . S
H857 C880 0.950 . S
H858 C881 0.950 1_554 S
H859 C883 0.950 . S
H860 C884 0.950 . S
H861 C885 0.951 . S
H862 C887 0.951 . S
H863 C889 0.950 . S
H864 C890 0.950 . S
H865 C892 0.950 . S
H866 C895 0.950 . S
H867 C896 0.950 . S
H868 C898 0.950 . S
H869 C899 0.950 . S
C870 H852 0.951 . S
C870 C871 1.366 . S
C870 C872 1.388 . S
C871 C870 1.366 . S
C871 C875 1.385 . S
C872 H853 0.937 1_554 S
C872 C870 1.388 . S
C872 C873 1.366 1_554 S
C873 C872 1.366 1_556 S
C873 C874 1.414 1_556 S
C873 C876 1.499 . S
C874 H854 0.950 . S
C874 C873 1.414 1_554 S
C874 C875 1.374 . S
C875 H855 0.950 . S
C875 C871 1.385 . S
C875 C874 1.374 . S
C876 C873 1.499 . S
C876 C877 1.373 . S
C876 C878 1.389 . S
C877 H856 0.950 . S
C877 C876 1.373 . S
C877 C893 1.377 . S
C878 C876 1.389 . S
C878 C879 1.524 . S
C878 C892 1.377 . S
C879 C878 1.524 . S
C879 C880 1.397 . S
C879 C884 1.363 . S
C880 H857 0.950 . S
C880 C879 1.397 . S
C880 C881 1.334 . S
C881 H858 0.950 1_556 S
C881 C880 1.334 . S
C881 C882 1.287 . S
C882 C881 1.287 . S
C882 C883 1.524 . S
C882 H901 0.913 . S
C883 H859 0.950 . S
C883 C882 1.524 . S
C883 C884 1.415 . S
C884 H860 0.950 . S
C884 C879 1.363 . S
C884 C883 1.415 . S
C885 H861 0.951 . S
C885 C886 1.366 . S
C885 C887 1.388 . S
C886 C885 1.366 . S
C886 C890 1.385 . S
C887 H862 0.951 . S
C887 C885 1.388 . S
C887 C888 1.366 . S
C888 C887 1.366 . S
C888 C889 1.414 . S
C888 C891 1.499 . S
C889 H863 0.950 . S
C889 C888 1.414 . S
C889 C890 1.374 . S
C890 H864 0.950 . S
C890 C886 1.385 . S
C890 C889 1.374 . S
C891 C888 1.499 . S
C891 C892 1.373 . S
C891 C893 1.389 . S
C892 H865 0.950 . S
C892 C878 1.377 . S
C892 C891 1.373 . S
C893 C877 1.377 . S
C893 C891 1.389 . S
C893 C894 1.524 . S
C894 C893 1.524 . S
C894 C895 1.397 . S
C894 C899 1.363 . S
C895 H866 0.950 . S
C895 C894 1.397 . S
C895 C896 1.334 . S
C896 H867 0.950 . S
C896 C895 1.334 . S
C896 C897 1.287 . S
C897 C896 1.287 . S
C897 C898 1.524 . S
C897 H900 0.999 . S
C898 H868 0.950 . S
C898 C897 1.524 . S
C898 C899 1.415 . S
C899 H869 0.950 . S
C899 C894 1.363 . S
C899 C898 1.415 . S
H900 C897 0.999 . S
H901 C882 0.913 . S
H902 C920 0.951 . S
H903 C922 0.951 . S
H904 C924 0.950 . S
H905 C925 0.950 . S
H906 C927 0.950 . S
H907 C930 0.950 . S
H908 C931 0.950 . S
H909 C933 0.950 . S
H910 C934 0.950 . S
H911 C935 0.951 . S
H912 C937 0.951 . S
H913 C939 0.958 . S
H914 C940 0.950 . S
H915 C942 0.950 . S
H916 C945 0.950 . S
H917 C946 0.950 1_554 S
H918 C948 0.950 . S
H919 C949 0.950 . S
C920 H902 0.951 . S
C920 C921 1.366 . S
C920 C922 1.388 . S
C921 C920 1.366 . S
C921 C925 1.385 . S
C922 H903 0.951 . S
C922 C920 1.388 . S
C922 C923 1.366 . S
C923 C922 1.366 . S
C923 C924 1.414 . S
C923 C926 1.499 . S
C924 H904 0.950 . S
C924 C923 1.414 . S
C924 C925 1.374 . S
C925 H905 0.950 . S
C925 C921 1.385 . S
C925 C924 1.374 . S
C926 C923 1.499 . S
C926 C927 1.373 . S
C926 C928 1.389 . S
C927 H906 0.950 . S
C927 C926 1.373 . S
C927 C943 1.377 . S
C928 C926 1.389 . S
C928 C929 1.524 . S
C928 C942 1.377 . S
C929 C928 1.524 . S
C929 C930 1.397 . S
C929 C934 1.363 . S
C930 H907 0.950 . S
C930 C929 1.397 . S
C930 C931 1.334 . S
C931 H908 0.950 . S
C931 C930 1.334 . S
C931 C932 1.287 . S
C932 C931 1.287 . S
C932 C933 1.524 . S
C932 H951 0.913 . S
C933 H909 0.950 . S
C933 C932 1.524 . S
C933 C934 1.415 . S
C934 H910 0.950 . S
C934 C929 1.363 . S
C934 C933 1.415 . S
C935 H911 0.951 . S
C935 C936 1.366 . S
C935 C937 1.388 . S
C936 C935 1.366 . S
C936 C940 1.385 . S
C937 H912 0.951 . S
C937 C935 1.388 . S
C937 C938 1.366 1_554 S
C938 C937 1.366 1_556 S
C938 C939 1.414 1_556 S
C938 C941 1.499 . S
C939 H913 0.958 . S
C939 C938 1.414 1_554 S
C939 C940 1.374 . S
C940 H914 0.950 . S
C940 C936 1.385 . S
C940 C939 1.374 . S
C941 C938 1.499 . S
C941 C942 1.373 . S
C941 C943 1.389 . S
C942 H915 0.950 . S
C942 C928 1.377 . S
C942 C941 1.373 . S
C943 C927 1.377 . S
C943 C941 1.389 . S
C943 C944 1.524 . S
C944 C943 1.524 . S
C944 C945 1.397 . S
C944 C949 1.363 . S
C945 H916 0.950 . S
C945 C944 1.397 . S
C945 C946 1.334 . S
C946 H917 0.950 1_556 S
C946 C945 1.334 . S
C946 C947 1.287 . S
C947 C946 1.287 . S
C947 C948 1.524 . S
C947 H950 0.999 . S
C948 H918 0.950 . S
C948 C947 1.524 . S
C948 C949 1.415 . S
C949 H919 0.950 . S
C949 C944 1.363 . S
C949 C948 1.415 . S
H950 C947 0.999 . S
H951 C932 0.913 . S
H952 C970 0.951 . S
H953 C972 0.963 . S
H954 C974 0.950 . S
H955 C975 0.950 . S
H956 C977 0.950 . S
H957 C980 0.950 . S
H958 C981 0.934 1_554 S
H959 C983 0.950 . S
H960 C984 0.950 . S
H961 C985 0.951 . S
H962 C987 0.951 . S
H963 C989 0.950 . S
H964 C990 0.950 . S
H965 C992 0.950 . S
H966 C995 0.950 . S
H967 C996 0.950 . S
H968 C998 0.950 . S
H969 C999 0.950 . S
C970 H952 0.951 . S
C970 C971 1.366 . S
C970 C972 1.388 . S
C971 C970 1.366 . S
C971 C975 1.385 . S
C972 H953 0.963 . S
C972 C970 1.388 . S
C972 C973 1.366 1_554 S
C973 C972 1.366 1_556 S
C973 C974 1.414 1_556 S
C973 C976 1.499 . S
C974 H954 0.950 . S
C974 C973 1.414 1_554 S
C974 C975 1.374 . S
C975 H955 0.950 . S
C975 C971 1.385 . S
C975 C974 1.374 . S
C976 C973 1.499 . S
C976 C977 1.373 . S
C976 C978 1.389 . S
C977 H956 0.950 . S
C977 C976 1.373 . S
C977 C993 1.377 . S
C978 C976 1.389 . S
C978 C979 1.524 . S
C978 C992 1.377 . S
C979 C978 1.524 . S
C979 C980 1.397 . S
C979 C984 1.363 . S
C980 H957 0.950 . S
C980 C979 1.397 . S
C980 C981 1.334 . S
C981 H958 0.934 1_556 S
C981 C980 1.334 . S
C981 C982 1.287 . S
C982 C981 1.287 . S
C982 C983 1.524 . S
C982 H1001 0.913 . S
C983 H959 0.950 . S
C983 C982 1.524 . S
C983 C984 1.415 . S
C984 H960 0.950 . S
C984 C979 1.363 . S
C984 C983 1.415 . S
C985 H961 0.951 . S
C985 C986 1.366 . S
C985 C987 1.388 . S
C986 C985 1.366 . S
C986 C990 1.385 . S
C987 H962 0.951 . S
C987 C985 1.388 . S
C987 C988 1.366 . S
C988 C987 1.366 . S
C988 C989 1.414 . S
C988 C991 1.499 . S
C989 H963 0.950 . S
C989 C988 1.414 . S
C989 C990 1.374 . S
C990 H964 0.950 . S
C990 C986 1.385 . S
C990 C989 1.374 . S
C991 C988 1.499 . S
C991 C992 1.373 . S
C991 C993 1.389 . S
C992 H965 0.950 . S
C992 C978 1.377 . S
C992 C991 1.373 . S
C993 C977 1.377 . S
C993 C991 1.389 . S
C993 C994 1.524 . S
C994 C993 1.524 . S
C994 C995 1.397 . S
C994 C999 1.363 . S
C995 H966 0.950 . S
C995 C994 1.397 . S
C995 C996 1.334 . S
C996 H967 0.950 . S
C996 C995 1.334 . S
C996 C997 1.287 . S
C997 C996 1.287 . S
C997 C998 1.524 . S
C997 H1000 0.999 . S
C998 H968 0.950 . S
C998 C997 1.524 . S
C998 C999 1.415 . S
C999 H969 0.950 . S
C999 C994 1.363 . S
C999 C998 1.415 . S
H1000 C997 0.999 . S
H1001 C982 0.913 . S
H1002 C1020 0.951 . S
H1003 C1022 0.951 . S
H1004 C1024 0.950 . S
H1005 C1025 0.950 . S
H1006 C1027 0.950 . S
H1007 C1030 0.950 . S
H1008 C1031 0.950 . S
H1009 C1033 0.950 . S
H1010 C1034 0.950 . S
H1011 C1035 0.951 . S
H1012 C1037 0.951 . S
H1013 C1039 0.950 . S
H1014 C1040 0.950 . S
H1015 C1042 0.950 . S
H1016 C1045 0.950 . S
H1017 C1046 0.950 . S
H1018 C1048 0.950 . S
H1019 C1049 0.950 . S
C1020 H1002 0.951 . S
C1020 C1021 1.366 . S
C1020 C1022 1.388 . S
C1021 C1020 1.366 . S
C1021 C1025 1.385 . S
C1022 H1003 0.951 . S
C1022 C1020 1.388 . S
C1022 C1023 1.366 . S
C1023 C1022 1.366 . S
C1023 C1024 1.414 . S
C1023 C1026 1.499 . S
C1024 H1004 0.950 . S
C1024 C1023 1.414 . S
C1024 C1025 1.374 . S
C1025 H1005 0.950 . S
C1025 C1021 1.385 . S
C1025 C1024 1.374 . S
C1026 C1023 1.499 . S
C1026 C1027 1.373 . S
C1026 C1028 1.389 . S
C1027 H1006 0.950 . S
C1027 C1026 1.373 . S
C1027 C1043 1.377 . S
C1028 C1026 1.389 . S
C1028 C1029 1.524 . S
C1028 C1042 1.377 . S
C1029 C1028 1.524 . S
C1029 C1030 1.397 . S
C1029 C1034 1.363 . S
C1030 H1007 0.950 . S
C1030 C1029 1.397 . S
C1030 C1031 1.334 . S
C1031 H1008 0.950 . S
C1031 C1030 1.334 . S
C1031 C1032 1.287 . S
C1032 C1031 1.287 . S
C1032 C1033 1.524 . S
C1032 H1051 0.913 . S
C1033 H1009 0.950 . S
C1033 C1032 1.524 . S
C1033 C1034 1.415 . S
C1034 H1010 0.950 . S
C1034 C1029 1.363 . S
C1034 C1033 1.415 . S
C1035 H1011 0.951 . S
C1035 C1036 1.366 . S
C1035 C1037 1.388 . S
C1036 C1035 1.366 . S
C1036 C1040 1.385 . S
C1037 H1012 0.951 . S
C1037 C1035 1.388 . S
C1037 C1038 1.366 . S
C1038 C1037 1.366 . S
C1038 C1039 1.414 . S
C1038 C1041 1.499 . S
C1039 H1013 0.950 . S
C1039 C1038 1.414 . S
C1039 C1040 1.374 . S
C1040 H1014 0.950 . S
C1040 C1036 1.385 . S
C1040 C1039 1.374 . S
C1041 C1038 1.499 . S
C1041 C1042 1.373 . S
C1041 C1043 1.389 . S
C1042 H1015 0.950 . S
C1042 C1028 1.377 . S
C1042 C1041 1.373 . S
C1043 C1027 1.377 . S
C1043 C1041 1.389 . S
C1043 C1044 1.524 . S
C1044 C1043 1.524 . S
C1044 C1045 1.397 . S
C1044 C1049 1.363 . S
C1045 H1016 0.950 . S
C1045 C1044 1.397 . S
C1045 C1046 1.334 . S
C1046 H1017 0.950 . S
C1046 C1045 1.334 . S
C1046 C1047 1.287 . S
C1047 C1046 1.287 . S
C1047 C1048 1.524 . S
C1047 H1050 0.999 . S
C1048 H1018 0.950 . S
C1048 C1047 1.524 . S
C1048 C1049 1.415 . S
C1049 H1019 0.950 . S
C1049 C1044 1.363 . S
C1049 C1048 1.415 . S
H1050 C1047 0.999 . S
H1051 C1032 0.913 . S
H1052 C1070 0.951 . S
H1053 C1072 0.951 . S
H1054 C1074 0.950 . S
H1055 C1075 0.950 . S
H1056 C1077 0.950 . S
H1057 C1080 0.950 . S
H1058 C1081 0.950 . S
H1059 C1083 0.950 . S
H1060 C1084 0.950 . S
H1061 C1085 0.951 . S
H1062 C1087 0.951 . S
H1063 C1089 0.950 . S
H1064 C1090 0.950 . S
H1065 C1092 0.950 . S
H1066 C1095 0.950 . S
H1067 C1096 0.950 . S
H1068 C1098 0.950 . S
H1069 C1099 0.950 . S
C1070 H1052 0.951 . S
C1070 C1071 1.366 . S
C1070 C1072 1.388 . S
C1071 C1070 1.366 . S
C1071 C1075 1.385 . S
C1072 H1053 0.951 . S
C1072 C1070 1.388 . S
C1072 C1073 1.366 . S
C1073 C1072 1.366 . S
C1073 C1074 1.414 . S
C1073 C1076 1.499 . S
C1074 H1054 0.950 . S
C1074 C1073 1.414 . S
C1074 C1075 1.374 . S
C1075 H1055 0.950 . S
C1075 C1071 1.385 . S
C1075 C1074 1.374 . S
C1076 C1073 1.499 . S
C1076 C1077 1.373 . S
C1076 C1078 1.389 . S
C1077 H1056 0.950 . S
C1077 C1076 1.373 . S
C1077 C1093 1.377 . S
C1078 C1076 1.389 . S
C1078 C1079 1.524 . S
C1078 C1092 1.377 . S
C1079 C1078 1.524 . S
C1079 C1080 1.397 . S
C1079 C1084 1.363 . S
C1080 H1057 0.950 . S
C1080 C1079 1.397 . S
C1080 C1081 1.334 . S
C1081 H1058 0.950 . S
C1081 C1080 1.334 . S
C1081 C1082 1.287 . S
C1082 C1081 1.287 . S
C1082 C1083 1.524 . S
C1082 H1101 0.913 . S
C1083 H1059 0.950 . S
C1083 C1082 1.524 . S
C1083 C1084 1.415 . S
C1084 H1060 0.950 . S
C1084 C1079 1.363 . S
C1084 C1083 1.415 . S
C1085 H1061 0.951 . S
C1085 C1086 1.366 . S
C1085 C1087 1.388 . S
C1086 C1085 1.366 . S
C1086 C1090 1.385 . S
C1087 H1062 0.951 . S
C1087 C1085 1.388 . S
C1087 C1088 1.366 . S
C1088 C1087 1.366 . S
C1088 C1089 1.414 . S
C1088 C1091 1.499 . S
C1089 H1063 0.950 . S
C1089 C1088 1.414 . S
C1089 C1090 1.374 . S
C1090 H1064 0.950 . S
C1090 C1086 1.385 . S
C1090 C1089 1.374 . S
C1091 C1088 1.499 . S
C1091 C1092 1.373 . S
C1091 C1093 1.389 . S
C1092 H1065 0.950 . S
C1092 C1078 1.377 . S
C1092 C1091 1.373 . S
C1093 C1077 1.377 . S
C1093 C1091 1.389 . S
C1093 C1094 1.524 . S
C1094 C1093 1.524 . S
C1094 C1095 1.397 . S
C1094 C1099 1.363 . S
C1095 H1066 0.950 . S
C1095 C1094 1.397 . S
C1095 C1096 1.334 . S
C1096 H1067 0.950 . S
C1096 C1095 1.334 . S
C1096 C1097 1.287 . S
C1097 C1096 1.287 . S
C1097 C1098 1.524 . S
C1097 H1100 0.999 . S
C1098 H1068 0.950 . S
C1098 C1097 1.524 . S
C1098 C1099 1.415 . S
C1099 H1069 0.950 . S
C1099 C1094 1.363 . S
C1099 C1098 1.415 . S
H1100 C1097 0.999 . S
H1101 C1082 0.913 . S
H1102 C1120 0.951 . S
H1103 C1122 0.951 . S
H1104 C1124 0.950 . S
H1105 C1125 0.950 . S
H1106 C1127 0.950 . S
H1107 C1130 0.950 . S
H1108 C1131 0.950 . S
H1109 C1133 0.950 . S
H1110 C1134 0.950 . S
H1111 C1135 0.951 . S
H1112 C1137 0.951 . S
H1113 C1139 0.950 . S
H1114 C1140 0.950 . S
H1115 C1142 0.950 . S
H1116 C1145 0.950 . S
H1117 C1146 0.950 . S
H1118 C1148 0.950 . S
H1119 C1149 0.950 . S
C1120 H1102 0.951 . S
C1120 C1121 1.366 . S
C1120 C1122 1.388 . S
C1121 C1120 1.366 . S
C1121 C1125 1.385 . S
C1122 H1103 0.951 . S
C1122 C1120 1.388 . S
C1122 C1123 1.366 . S
C1123 C1122 1.366 . S
C1123 C1124 1.414 . S
C1123 C1126 1.499 . S
C1124 H1104 0.950 . S
C1124 C1123 1.414 . S
C1124 C1125 1.374 . S
C1125 H1105 0.950 . S
C1125 C1121 1.385 . S
C1125 C1124 1.374 . S
C1126 C1123 1.499 . S
C1126 C1127 1.373 . S
C1126 C1128 1.389 . S
C1127 H1106 0.950 . S
C1127 C1126 1.373 . S
C1127 C1143 1.377 . S
C1128 C1126 1.389 . S
C1128 C1129 1.524 . S
C1128 C1142 1.377 . S
C1129 C1128 1.524 . S
C1129 C1130 1.397 . S
C1129 C1134 1.363 . S
C1130 H1107 0.950 . S
C1130 C1129 1.397 . S
C1130 C1131 1.334 . S
C1131 H1108 0.950 . S
C1131 C1130 1.334 . S
C1131 C1132 1.287 . S
C1132 C1131 1.287 . S
C1132 C1133 1.524 . S
C1132 H1151 0.913 . S
C1133 H1109 0.950 . S
C1133 C1132 1.524 . S
C1133 C1134 1.415 . S
C1134 H1110 0.950 . S
C1134 C1129 1.363 . S
C1134 C1133 1.415 . S
C1135 H1111 0.951 . S
C1135 C1136 1.366 . S
C1135 C1137 1.388 . S
C1136 C1135 1.366 . S
C1136 C1140 1.385 . S
C1137 H1112 0.951 . S
C1137 C1135 1.388 . S
C1137 C1138 1.366 . S
C1138 C1137 1.366 . S
C1138 C1139 1.414 . S
C1138 C1141 1.499 . S
C1139 H1113 0.950 . S
C1139 C1138 1.414 . S
C1139 C1140 1.374 . S
C1140 H1114 0.950 . S
C1140 C1136 1.385 . S
C1140 C1139 1.374 . S
C1141 C1138 1.499 . S
C1141 C1142 1.373 . S
C1141 C1143 1.389 . S
C1142 H1115 0.950 . S
C1142 C1128 1.377 . S
C1142 C1141 1.373 . S
C1143 C1127 1.377 . S
C1143 C1141 1.389 . S
C1143 C1144 1.524 . S
C1144 C1143 1.524 . S
C1144 C1145 1.397 . S
C1144 C1149 1.363 . S
C1145 H1116 0.950 . S
C1145 C1144 1.397 . S
C1145 C1146 1.334 . S
C1146 H1117 0.950 . S
C1146 C1145 1.334 . S
C1146 C1147 1.287 . S
C1147 C1146 1.287 . S
C1147 C1148 1.524 . S
C1147 H1150 0.999 . S
C1148 H1118 0.950 . S
C1148 C1147 1.524 . S
C1148 C1149 1.415 . S
C1149 H1119 0.950 . S
C1149 C1144 1.363 . S
C1149 C1148 1.415 . S
H1150 C1147 0.999 . S
H1151 C1132 0.913 . S
H1152 C1170 0.951 . S
H1153 C1172 0.951 . S
H1154 C1174 0.950 . S
H1155 C1175 0.950 . S
H1156 C1177 0.950 . S
H1157 C1180 0.950 . S
H1158 C1181 0.950 . S
H1159 C1183 0.950 . S
H1160 C1184 0.950 . S
H1161 C1185 0.951 . S
H1162 C1187 0.951 . S
H1163 C1189 0.950 . S
H1164 C1190 0.950 . S
H1165 C1192 0.950 . S
H1166 C1195 0.950 . S
H1167 C1196 0.950 . S
H1168 C1198 0.950 . S
H1169 C1199 0.950 . S
C1170 H1152 0.951 . S
C1170 C1171 1.366 . S
C1170 C1172 1.388 . S
C1171 C1170 1.366 . S
C1171 C1175 1.385 . S
C1172 H1153 0.951 . S
C1172 C1170 1.388 . S
C1172 C1173 1.366 . S
C1173 C1172 1.366 . S
C1173 C1174 1.414 . S
C1173 C1176 1.499 . S
C1174 H1154 0.950 . S
C1174 C1173 1.414 . S
C1174 C1175 1.374 . S
C1175 H1155 0.950 . S
C1175 C1171 1.385 . S
C1175 C1174 1.374 . S
C1176 C1173 1.499 . S
C1176 C1177 1.373 . S
C1176 C1178 1.389 . S
C1177 H1156 0.950 . S
C1177 C1176 1.373 . S
C1177 C1193 1.377 . S
C1178 C1176 1.389 . S
C1178 C1179 1.524 . S
C1178 C1192 1.377 . S
C1179 C1178 1.524 . S
C1179 C1180 1.397 . S
C1179 C1184 1.363 . S
C1180 H1157 0.950 . S
C1180 C1179 1.397 . S
C1180 C1181 1.334 . S
C1181 H1158 0.950 . S
C1181 C1180 1.334 . S
C1181 C1182 1.287 . S
C1182 C1181 1.287 . S
C1182 C1183 1.524 . S
C1182 H1201 0.913 . S
C1183 H1159 0.950 . S
C1183 C1182 1.524 . S
C1183 C1184 1.415 . S
C1184 H1160 0.950 . S
C1184 C1179 1.363 . S
C1184 C1183 1.415 . S
C1185 H1161 0.951 . S
C1185 C1186 1.366 . S
C1185 C1187 1.388 . S
C1186 C1185 1.366 . S
C1186 C1190 1.385 . S
C1187 H1162 0.951 . S
C1187 C1185 1.388 . S
C1187 C1188 1.366 . S
C1188 C1187 1.366 . S
C1188 C1189 1.414 . S
C1188 C1191 1.499 . S
C1189 H1163 0.950 . S
C1189 C1188 1.414 . S
C1189 C1190 1.374 . S
C1190 H1164 0.950 . S
C1190 C1186 1.385 . S
C1190 C1189 1.374 . S
C1191 C1188 1.499 . S
C1191 C1192 1.373 . S
C1191 C1193 1.389 . S
C1192 H1165 0.950 . S
C1192 C1178 1.377 . S
C1192 C1191 1.373 . S
C1193 C1177 1.377 . S
C1193 C1191 1.389 . S
C1193 C1194 1.524 . S
C1194 C1193 1.524 . S
C1194 C1195 1.397 . S
C1194 C1199 1.363 . S
C1195 H1166 0.950 . S
C1195 C1194 1.397 . S
C1195 C1196 1.334 . S
C1196 H1167 0.950 . S
C1196 C1195 1.334 . S
C1196 C1197 1.287 . S
C1197 C1196 1.287 . S
C1197 C1198 1.524 . S
C1197 H1200 0.999 1_556 S
C1198 H1168 0.950 . S
C1198 C1197 1.524 . S
C1198 C1199 1.415 . S
C1199 H1169 0.950 . S
C1199 C1194 1.363 . S
C1199 C1198 1.415 . S
H1200 C1197 0.999 1_554 S
H1201 C1182 0.913 . S
H1202 C1220 0.951 . S
H1203 C1222 0.951 . S
H1204 C1224 0.950 . S
H1205 C1225 0.950 . S
H1206 C1227 0.950 . S
H1207 C1230 0.950 . S
H1208 C1231 0.950 . S
H1209 C1233 0.950 . S
H1210 C1234 0.950 . S
H1211 C1235 0.951 . S
H1212 C1237 0.951 . S
H1213 C1239 0.950 . S
H1214 C1240 0.950 1_554 S
H1215 C1242 0.950 . S
H1216 C1245 0.950 . S
H1217 C1246 0.950 . S
H1218 C1248 0.950 . S
H1219 C1249 0.950 . S
C1220 H1202 0.951 . S
C1220 C1221 1.366 . S
C1220 C1222 1.388 . S
C1221 C1220 1.366 . S
C1221 C1225 1.385 . S
C1222 H1203 0.951 . S
C1222 C1220 1.388 . S
C1222 C1223 1.366 . S
C1223 C1222 1.366 . S
C1223 C1224 1.414 . S
C1223 C1226 1.499 . S
C1224 H1204 0.950 . S
C1224 C1223 1.414 . S
C1224 C1225 1.374 . S
C1225 H1205 0.950 . S
C1225 C1221 1.385 . S
C1225 C1224 1.374 . S
C1226 C1223 1.499 . S
C1226 C1227 1.373 . S
C1226 C1228 1.389 . S
C1227 H1206 0.950 . S
C1227 C1226 1.373 . S
C1227 C1243 1.377 . S
C1228 C1226 1.389 . S
C1228 C1229 1.524 . S
C1228 C1242 1.377 . S
C1229 C1228 1.524 . S
C1229 C1230 1.397 . S
C1229 C1234 1.363 . S
C1230 H1207 0.950 . S
C1230 C1229 1.397 . S
C1230 C1231 1.334 . S
C1231 H1208 0.950 . S
C1231 C1230 1.334 . S
C1231 C1232 1.287 . S
C1232 C1231 1.287 . S
C1232 C1233 1.524 . S
C1232 H1251 0.913 . S
C1233 H1209 0.950 . S
C1233 C1232 1.524 . S
C1233 C1234 1.415 . S
C1234 H1210 0.950 . S
C1234 C1229 1.363 . S
C1234 C1233 1.415 . S
C1235 H1211 0.951 . S
C1235 C1236 1.366 . S
C1235 C1237 1.388 . S
C1236 C1235 1.366 . S
C1236 C1240 1.385 . S
C1237 H1212 0.951 . S
C1237 C1235 1.388 . S
C1237 C1238 1.366 . S
C1238 C1237 1.366 . S
C1238 C1239 1.414 . S
C1238 C1241 1.499 . S
C1239 H1213 0.950 . S
C1239 C1238 1.414 . S
C1239 C1240 1.374 . S
C1240 H1214 0.950 1_556 S
C1240 C1236 1.385 . S
C1240 C1239 1.374 . S
C1241 C1238 1.499 . S
C1241 C1242 1.373 . S
C1241 C1243 1.389 . S
C1242 H1215 0.950 . S
C1242 C1228 1.377 . S
C1242 C1241 1.373 . S
C1243 C1227 1.377 . S
C1243 C1241 1.389 . S
C1243 C1244 1.524 . S
C1244 C1243 1.524 . S
C1244 C1245 1.397 . S
C1244 C1249 1.363 . S
C1245 H1216 0.950 . S
C1245 C1244 1.397 . S
C1245 C1246 1.334 . S
C1246 H1217 0.950 . S
C1246 C1245 1.334 . S
C1246 C1247 1.287 . S
C1247 C1246 1.287 . S
C1247 C1248 1.524 . S
C1247 H1250 0.999 . S
C1248 H1218 0.950 . S
C1248 C1247 1.524 . S
C1248 C1249 1.415 . S
C1249 H1219 0.950 . S
C1249 C1244 1.363 . S
C1249 C1248 1.415 . S
H1250 C1247 0.999 . S
H1251 C1232 0.913 . S
H1252 C1270 0.951 . S
H1253 C1272 0.951 . S
H1254 C1274 0.950 . S
H1255 C1275 0.950 . S
H1256 C1277 0.950 . S
H1257 C1280 0.950 . S
H1258 C1281 0.950 . S
H1259 C1283 0.950 . S
H1260 C1284 0.950 . S
H1261 C1285 0.951 . S
H1262 C1287 0.951 . S
H1263 C1289 0.950 . S
H1264 C1290 0.950 . S
H1265 C1292 0.950 . S
H1266 C1295 0.950 . S
H1267 C1296 0.950 . S
H1268 C1298 0.950 . S
H1269 C1299 0.950 . S
C1270 H1252 0.951 . S
C1270 C1271 1.366 . S
C1270 C1272 1.388 . S
C1271 C1270 1.366 . S
C1271 C1275 1.385 . S
C1272 H1253 0.951 . S
C1272 C1270 1.388 . S
C1272 C1273 1.366 . S
C1273 C1272 1.366 . S
C1273 C1274 1.414 . S
C1273 C1276 1.499 . S
C1274 H1254 0.950 . S
C1274 C1273 1.414 . S
C1274 C1275 1.374 . S
C1275 H1255 0.950 . S
C1275 C1271 1.385 . S
C1275 C1274 1.374 . S
C1276 C1273 1.499 . S
C1276 C1277 1.373 . S
C1276 C1278 1.389 . S
C1277 H1256 0.950 . S
C1277 C1276 1.373 . S
C1277 C1293 1.377 . S
C1278 C1276 1.389 . S
C1278 C1279 1.524 . S
C1278 C1292 1.377 . S
C1279 C1278 1.524 . S
C1279 C1280 1.397 . S
C1279 C1284 1.363 . S
C1280 H1257 0.950 . S
C1280 C1279 1.397 . S
C1280 C1281 1.334 . S
C1281 H1258 0.950 . S
C1281 C1280 1.334 . S
C1281 C1282 1.287 . S
C1282 C1281 1.287 . S
C1282 C1283 1.524 . S
C1282 H1301 0.913 . S
C1283 H1259 0.950 . S
C1283 C1282 1.524 . S
C1283 C1284 1.415 . S
C1284 H1260 0.950 . S
C1284 C1279 1.363 . S
C1284 C1283 1.415 . S
C1285 H1261 0.951 . S
C1285 C1286 1.366 . S
C1285 C1287 1.388 . S
C1286 C1285 1.366 . S
C1286 C1290 1.385 . S
C1287 H1262 0.951 . S
C1287 C1285 1.388 . S
C1287 C1288 1.366 . S
C1288 C1287 1.366 . S
C1288 C1289 1.414 . S
C1288 C1291 1.499 . S
C1289 H1263 0.950 . S
C1289 C1288 1.414 . S
C1289 C1290 1.374 . S
C1290 H1264 0.950 . S
C1290 C1286 1.385 . S
C1290 C1289 1.374 . S
C1291 C1288 1.499 . S
C1291 C1292 1.373 . S
C1291 C1293 1.389 . S
C1292 H1265 0.950 . S
C1292 C1278 1.377 . S
C1292 C1291 1.373 . S
C1293 C1277 1.377 . S
C1293 C1291 1.389 . S
C1293 C1294 1.524 . S
C1294 C1293 1.524 . S
C1294 C1295 1.397 1_556 S
C1294 C1299 1.363 . S
C1295 H1266 0.950 . S
C1295 C1294 1.397 1_554 S
C1295 C1296 1.334 . S
C1296 H1267 0.950 . S
C1296 C1295 1.334 . S
C1296 C1297 1.287 . S
C1297 C1296 1.287 . S
C1297 C1298 1.524 . S
C1297 H1300 0.999 . S
C1298 H1268 0.950 . S
C1298 C1297 1.524 . S
C1298 C1299 1.415 1_554 S
C1299 H1269 0.950 . S
C1299 C1294 1.363 . S
C1299 C1298 1.415 1_556 S
H1300 C1297 0.999 . S
H1301 C1282 0.913 . S
H1302 C1320 0.951 . S
H1303 C1322 0.951 . S
H1304 C1324 0.950 . S
H1305 C1325 0.950 . S
H1306 C1327 0.950 . S
H1307 C1330 0.950 . S
H1308 C1331 0.950 . S
H1309 C1333 0.950 . S
H1310 C1334 0.950 . S
H1311 C1335 0.951 . S
H1312 C1337 0.951 . S
H1313 C1339 0.950 . S
H1314 C1340 0.950 . S
H1315 C1342 0.950 . S
H1316 C1345 0.950 . S
H1317 C1346 0.950 . S
H1318 C1348 0.950 . S
H1319 C1349 0.950 . S
C1320 H1302 0.951 . S
C1320 C1321 1.366 . S
C1320 C1322 1.388 . S
C1321 C1320 1.366 . S
C1321 C1325 1.385 . S
C1322 H1303 0.951 . S
C1322 C1320 1.388 . S
C1322 C1323 1.366 . S
C1323 C1322 1.366 . S
C1323 C1324 1.414 . S
C1323 C1326 1.499 . S
C1324 H1304 0.950 . S
C1324 C1323 1.414 . S
C1324 C1325 1.374 . S
C1325 H1305 0.950 . S
C1325 C1321 1.385 . S
C1325 C1324 1.374 . S
C1326 C1323 1.499 . S
C1326 C1327 1.373 . S
C1326 C1328 1.389 . S
C1327 H1306 0.950 . S
C1327 C1326 1.373 . S
C1327 C1343 1.377 . S
C1328 C1326 1.389 . S
C1328 C1329 1.524 . S
C1328 C1342 1.377 . S
C1329 C1328 1.524 . S
C1329 C1330 1.397 . S
C1329 C1334 1.363 . S
C1330 H1307 0.950 . S
C1330 C1329 1.397 . S
C1330 C1331 1.334 . S
C1331 H1308 0.950 . S
C1331 C1330 1.334 . S
C1331 C1332 1.287 . S
C1332 C1331 1.287 . S
C1332 C1333 1.524 . S
C1332 H1351 0.913 . S
C1333 H1309 0.950 . S
C1333 C1332 1.524 . S
C1333 C1334 1.415 . S
C1334 H1310 0.950 . S
C1334 C1329 1.363 . S
C1334 C1333 1.415 . S
C1335 H1311 0.951 . S
C1335 C1336 1.366 . S
C1335 C1337 1.388 . S
C1336 C1335 1.366 . S
C1336 C1340 1.385 . S
C1337 H1312 0.951 . S
C1337 C1335 1.388 . S
C1337 C1338 1.366 . S
C1338 C1337 1.366 . S
C1338 C1339 1.414 . S
C1338 C1341 1.499 . S
C1339 H1313 0.950 . S
C1339 C1338 1.414 . S
C1339 C1340 1.374 . S
C1340 H1314 0.950 . S
C1340 C1336 1.385 . S
C1340 C1339 1.374 . S
C1341 C1338 1.499 . S
C1341 C1342 1.373 . S
C1341 C1343 1.389 . S
C1342 H1315 0.950 . S
C1342 C1328 1.377 . S
C1342 C1341 1.373 . S
C1343 C1327 1.377 . S
C1343 C1341 1.389 . S
C1343 C1344 1.524 . S
C1344 C1343 1.524 . S
C1344 C1345 1.397 . S
C1344 C1349 1.363 . S
C1345 H1316 0.950 . S
C1345 C1344 1.397 . S
C1345 C1346 1.334 . S
C1346 H1317 0.950 . S
C1346 C1345 1.334 . S
C1346 C1347 1.287 . S
C1347 C1346 1.287 . S
C1347 C1348 1.524 . S
C1347 H1350 0.999 . S
C1348 H1318 0.950 . S
C1348 C1347 1.524 . S
C1348 C1349 1.415 . S
C1349 H1319 0.950 . S
C1349 C1344 1.363 . S
C1349 C1348 1.415 . S
H1350 C1347 0.999 . S
H1351 C1332 0.913 . S
H1352 C1370 0.951 . S
H1353 C1372 0.951 . S
H1354 C1374 0.950 . S
H1355 C1375 0.950 . S
H1356 C1377 0.950 . S
H1357 C1380 0.950 . S
H1358 C1381 0.950 . S
H1359 C1383 0.950 . S
H1360 C1384 0.950 . S
H1361 C1385 0.951 . S
H1362 C1387 0.951 . S
H1363 C1389 0.950 . S
H1364 C1390 0.950 . S
H1365 C1392 0.950 . S
H1366 C1395 0.950 . S
H1367 C1396 0.950 . S
H1368 C1398 0.950 . S
H1369 C1399 0.950 . S
C1370 H1352 0.951 . S
C1370 C1371 1.366 . S
C1370 C1372 1.388 . S
C1371 C1370 1.366 . S
C1371 C1375 1.385 . S
C1372 H1353 0.951 . S
C1372 C1370 1.388 . S
C1372 C1373 1.366 . S
C1373 C1372 1.366 . S
C1373 C1374 1.414 . S
C1373 C1376 1.499 . S
C1374 H1354 0.950 . S
C1374 C1373 1.414 . S
C1374 C1375 1.374 . S
C1375 H1355 0.950 . S
C1375 C1371 1.385 . S
C1375 C1374 1.374 . S
C1376 C1373 1.499 . S
C1376 C1377 1.373 . S
C1376 C1378 1.389 . S
C1377 H1356 0.950 . S
C1377 C1376 1.373 . S
C1377 C1393 1.377 . S
C1378 C1376 1.389 . S
C1378 C1379 1.524 . S
C1378 C1392 1.377 . S
C1379 C1378 1.524 . S
C1379 C1380 1.397 . S
C1379 C1384 1.363 . S
C1380 H1357 0.950 . S
C1380 C1379 1.397 . S
C1380 C1381 1.334 . S
C1381 H1358 0.950 . S
C1381 C1380 1.334 . S
C1381 C1382 1.287 . S
C1382 C1381 1.287 . S
C1382 C1383 1.524 . S
C1382 H1401 0.913 . S
C1383 H1359 0.950 . S
C1383 C1382 1.524 . S
C1383 C1384 1.415 . S
C1384 H1360 0.950 . S
C1384 C1379 1.363 . S
C1384 C1383 1.415 . S
C1385 H1361 0.951 . S
C1385 C1386 1.366 . S
C1385 C1387 1.388 . S
C1386 C1385 1.366 . S
C1386 C1390 1.385 . S
C1387 H1362 0.951 . S
C1387 C1385 1.388 . S
C1387 C1388 1.366 . S
C1388 C1387 1.366 . S
C1388 C1389 1.414 . S
C1388 C1391 1.499 . S
C1389 H1363 0.950 . S
C1389 C1388 1.414 . S
C1389 C1390 1.374 . S
C1390 H1364 0.950 . S
C1390 C1386 1.385 . S
C1390 C1389 1.374 . S
C1391 C1388 1.499 . S
C1391 C1392 1.373 . S
C1391 C1393 1.389 . S
C1392 H1365 0.950 . S
C1392 C1378 1.377 . S
C1392 C1391 1.373 . S
C1393 C1377 1.377 . S
C1393 C1391 1.389 . S
C1393 C1394 1.524 . S
C1394 C1393 1.524 . S
C1394 C1395 1.397 . S
C1394 C1399 1.363 . S
C1395 H1366 0.950 . S
C1395 C1394 1.397 . S
C1395 C1396 1.334 . S
C1396 H1367 0.950 . S
C1396 C1395 1.334 . S
C1396 C1397 1.287 . S
C1397 C1396 1.287 . S
C1397 C1398 1.524 . S
C1397 H1400 0.999 . S
C1398 H1368 0.950 . S
C1398 C1397 1.524 . S
C1398 C1399 1.415 . S
C1399 H1369 0.950 . S
C1399 C1394 1.363 . S
C1399 C1398 1.415 . S
H1400 C1397 0.999 . S
H1401 C1382 0.913 . S
H1402 C1420 0.951 . S
H1403 C1422 0.951 . S
H1404 C1424 0.950 . S
H1405 C1425 0.950 . S
H1406 C1427 0.950 . S
H1407 C1430 0.950 . S
H1408 C1431 0.950 . S
H1409 C1433 0.950 . S
H1410 C1434 0.950 . S
H1411 C1435 0.951 . S
H1412 C1437 0.951 . S
H1413 C1439 0.950 . S
H1414 C1440 0.950 . S
H1415 C1442 0.950 . S
H1416 C1445 0.950 . S
H1417 C1446 0.950 . S
H1418 C1448 0.950 . S
H1419 C1449 0.950 . S
C1420 H1402 0.951 . S
C1420 C1421 1.366 . S
C1420 C1422 1.388 . S
C1421 C1420 1.366 . S
C1421 C1425 1.385 . S
C1422 H1403 0.951 . S
C1422 C1420 1.388 . S
C1422 C1423 1.366 . S
C1423 C1422 1.366 . S
C1423 C1424 1.414 . S
C1423 C1426 1.499 . S
C1424 H1404 0.950 . S
C1424 C1423 1.414 . S
C1424 C1425 1.374 . S
C1425 H1405 0.950 . S
C1425 C1421 1.385 . S
C1425 C1424 1.374 . S
C1426 C1423 1.499 . S
C1426 C1427 1.373 . S
C1426 C1428 1.389 . S
C1427 H1406 0.950 . S
C1427 C1426 1.373 . S
C1427 C1443 1.377 . S
C1428 C1426 1.389 . S
C1428 C1429 1.524 . S
C1428 C1442 1.377 . S
C1429 C1428 1.524 . S
C1429 C1430 1.397 . S
C1429 C1434 1.363 . S
C1430 H1407 0.950 . S
C1430 C1429 1.397 . S
C1430 C1431 1.334 . S
C1431 H1408 0.950 . S
C1431 C1430 1.334 . S
C1431 C1432 1.287 . S
C1432 C1431 1.287 . S
C1432 C1433 1.524 . S
C1432 H1451 0.913 . S
C1433 H1409 0.950 . S
C1433 C1432 1.524 . S
C1433 C1434 1.415 . S
C1434 H1410 0.950 . S
C1434 C1429 1.363 . S
C1434 C1433 1.415 . S
C1435 H1411 0.951 . S
C1435 C1436 1.366 . S
C1435 C1437 1.388 . S
C1436 C1435 1.366 . S
C1436 C1440 1.385 . S
C1437 H1412 0.951 . S
C1437 C1435 1.388 . S
C1437 C1438 1.366 . S
C1438 C1437 1.366 . S
C1438 C1439 1.414 . S
C1438 C1441 1.499 . S
C1439 H1413 0.950 . S
C1439 C1438 1.414 . S
C1439 C1440 1.374 . S
C1440 H1414 0.950 . S
C1440 C1436 1.385 . S
C1440 C1439 1.374 . S
C1441 C1438 1.499 . S
C1441 C1442 1.373 . S
C1441 C1443 1.389 . S
C1442 H1415 0.950 . S
C1442 C1428 1.377 . S
C1442 C1441 1.373 . S
C1443 C1427 1.377 . S
C1443 C1441 1.389 . S
C1443 C1444 1.524 . S
C1444 C1443 1.524 . S
C1444 C1445 1.397 . S
C1444 C1449 1.363 . S
C1445 H1416 0.950 . S
C1445 C1444 1.397 . S
C1445 C1446 1.334 . S
C1446 H1417 0.950 . S
C1446 C1445 1.334 . S
C1446 C1447 1.287 . S
C1447 C1446 1.287 . S
C1447 C1448 1.524 . S
C1447 H1450 0.999 . S
C1448 H1418 0.950 . S
C1448 C1447 1.524 . S
C1448 C1449 1.415 . S
C1449 H1419 0.950 . S
C1449 C1444 1.363 . S
C1449 C1448 1.415 . S
H1450 C1447 0.999 . S
H1451 C1432 0.913 . S
H1452 C1470 0.951 . S
H1453 C1472 0.951 . S
H1454 C1474 0.950 . S
H1455 C1475 0.950 . S
H1456 C1477 0.950 . S
H1457 C1480 0.950 . S
H1458 C1481 0.950 . S
H1459 C1483 0.950 . S
H1460 C1484 0.950 . S
H1461 C1485 0.951 . S
H1462 C1487 0.951 . S
H1463 C1489 0.950 . S
H1464 C1490 0.950 . S
H1465 C1492 0.950 . S
H1466 C1495 0.950 . S
H1467 C1496 0.950 . S
H1468 C1498 0.950 . S
H1469 C1499 0.950 . S
C1470 H1452 0.951 . S
C1470 C1471 1.366 . S
C1470 C1472 1.388 . S
C1471 C1470 1.366 . S
C1471 C1475 1.385 . S
C1472 H1453 0.951 . S
C1472 C1470 1.388 . S
C1472 C1473 1.366 . S
C1473 C1472 1.366 . S
C1473 C1474 1.414 . S
C1473 C1476 1.499 . S
C1474 H1454 0.950 . S
C1474 C1473 1.414 . S
C1474 C1475 1.374 . S
C1475 H1455 0.950 . S
C1475 C1471 1.385 . S
C1475 C1474 1.374 . S
C1476 C1473 1.499 . S
C1476 C1477 1.373 . S
C1476 C1478 1.389 . S
C1477 H1456 0.950 . S
C1477 C1476 1.373 . S
C1477 C1493 1.377 . S
C1478 C1476 1.389 . S
C1478 C1479 1.524 . S
C1478 C1492 1.377 . S
C1479 C1478 1.524 . S
C1479 C1480 1.397 . S
C1479 C1484 1.363 . S
C1480 H1457 0.950 . S
C1480 C1479 1.397 . S
C1480 C1481 1.334 . S
C1481 H1458 0.950 . S
C1481 C1480 1.334 . S
C1481 C1482 1.287 . S
C1482 C1481 1.287 . S
C1482 C1483 1.524 . S
C1482 H1501 0.913 . S
C1483 H1459 0.950 . S
C1483 C1482 1.524 . S
C1483 C1484 1.415 . S
C1484 H1460 0.950 . S
C1484 C1479 1.363 . S
C1484 C1483 1.415 . S
C1485 H1461 0.951 . S
C1485 C1486 1.366 . S
C1485 C1487 1.388 . S
C1486 C1485 1.366 . S
C1486 C1490 1.385 . S
C1487 H1462 0.951 . S
C1487 C1485 1.388 . S
C1487 C1488 1.366 . S
C1488 C1487 1.366 . S
C1488 C1489 1.414 . S
C1488 C1491 1.499 . S
C1489 H1463 0.950 . S
C1489 C1488 1.414 . S
C1489 C1490 1.374 . S
C1490 H1464 0.950 . S
C1490 C1486 1.385 . S
C1490 C1489 1.374 . S
C1491 C1488 1.499 . S
C1491 C1492 1.373 . S
C1491 C1493 1.389 . S
C1492 H1465 0.950 . S
C1492 C1478 1.377 . S
C1492 C1491 1.373 . S
C1493 C1477 1.377 . S
C1493 C1491 1.389 . S
C1493 C1494 1.524 . S
C1494 C1493 1.524 . S
C1494 C1495 1.397 . S
C1494 C1499 1.363 . S
C1495 H1466 0.950 . S
C1495 C1494 1.397 . S
C1495 C1496 1.334 . S
C1496 H1467 0.950 . S
C1496 C1495 1.334 . S
C1496 C1497 1.287 . S
C1497 C1496 1.287 . S
C1497 C1498 1.524 . S
C1497 H1500 0.999 . S
C1498 H1468 0.950 . S
C1498 C1497 1.524 . S
C1498 C1499 1.415 . S
C1499 H1469 0.950 . S
C1499 C1494 1.363 . S
C1499 C1498 1.415 . S
H1500 C1497 0.999 . S
H1501 C1482 0.913 . S
H1502 C1520 0.951 . S
H1503 C1522 0.951 . S
H1504 C1524 0.950 . S
H1505 C1525 0.950 . S
H1506 C1527 0.950 . S
H1507 C1530 0.950 . S
H1508 C1531 0.950 . S
H1509 C1533 0.950 . S
H1510 C1534 0.950 . S
H1511 C1535 0.951 1_556 S
H1512 C1537 0.951 . S
H1513 C1539 0.950 . S
H1514 C1540 0.950 . S
H1515 C1542 0.950 . S
H1516 C1545 0.950 . S
H1517 C1546 0.950 . S
H1518 C1548 0.950 . S
H1519 C1549 0.950 . S
C1520 H1502 0.951 . S
C1520 C1521 1.366 . S
C1520 C1522 1.388 . S
C1521 C1520 1.366 . S
C1521 C1525 1.385 . S
C1522 H1503 0.951 . S
C1522 C1520 1.388 . S
C1522 C1523 1.366 . S
C1523 C1522 1.366 . S
C1523 C1524 1.414 . S
C1523 C1526 1.499 . S
C1524 H1504 0.950 . S
C1524 C1523 1.414 . S
C1524 C1525 1.374 . S
C1525 H1505 0.950 . S
C1525 C1521 1.385 . S
C1525 C1524 1.374 . S
C1526 C1523 1.499 . S
C1526 C1527 1.373 . S
C1526 C1528 1.389 . S
C1527 H1506 0.950 . S
C1527 C1526 1.373 . S
C1527 C1543 1.377 . S
C1528 C1526 1.389 . S
C1528 C1529 1.524 . S
C1528 C1542 1.377 . S
C1529 C1528 1.524 . S
C1529 C1530 1.397 . S
C1529 C1534 1.363 . S
C1530 H1507 0.950 . S
C1530 C1529 1.397 . S
C1530 C1531 1.334 . S
C1531 H1508 0.950 . S
C1531 C1530 1.334 . S
C1531 C1532 1.287 . S
C1532 C1531 1.287 . S
C1532 C1533 1.524 . S
C1532 H1551 0.913 . S
C1533 H1509 0.950 . S
C1533 C1532 1.524 . S
C1533 C1534 1.415 . S
C1534 H1510 0.950 . S
C1534 C1529 1.363 . S
C1534 C1533 1.415 . S
C1535 H1511 0.951 1_554 S
C1535 C1536 1.366 . S
C1535 C1537 1.388 . S
C1536 C1535 1.366 . S
C1536 C1540 1.385 . S
C1537 H1512 0.951 . S
C1537 C1535 1.388 . S
C1537 C1538 1.366 . S
C1538 C1537 1.366 . S
C1538 C1539 1.414 . S
C1538 C1541 1.499 . S
C1539 H1513 0.950 . S
C1539 C1538 1.414 . S
C1539 C1540 1.374 . S
C1540 H1514 0.950 . S
C1540 C1536 1.385 . S
C1540 C1539 1.374 . S
C1541 C1538 1.499 . S
C1541 C1542 1.373 . S
C1541 C1543 1.389 . S
C1542 H1515 0.950 . S
C1542 C1528 1.377 . S
C1542 C1541 1.373 . S
C1543 C1527 1.377 . S
C1543 C1541 1.389 . S
C1543 C1544 1.524 . S
C1544 C1543 1.524 . S
C1544 C1545 1.397 . S
C1544 C1549 1.363 . S
C1545 H1516 0.950 . S
C1545 C1544 1.397 . S
C1545 C1546 1.334 . S
C1546 H1517 0.950 . S
C1546 C1545 1.334 . S
C1546 C1547 1.287 . S
C1547 C1546 1.287 . S
C1547 C1548 1.524 1_554 S
C1547 H1550 0.999 1_554 S
C1548 H1518 0.950 . S
C1548 C1547 1.524 1_556 S
C1548 C1549 1.415 1_556 S
C1549 H1519 0.950 . S
C1549 C1544 1.363 . S
C1549 C1548 1.415 1_554 S
H1550 C1547 0.999 1_556 S
H1551 C1532 0.913 . S
H1552 C1570 0.951 . S
H1553 C1572 0.951 . S
H1554 C1574 0.950 . S
H1555 C1575 0.950 . S
H1556 C1577 0.950 . S
H1557 C1580 0.950 . S
H1558 C1581 0.950 . S
H1559 C1583 0.950 . S
H1560 C1584 0.950 1_556 S
H1561 C1585 0.951 . S
H1562 C1587 0.951 . S
H1563 C1589 0.950 . S
H1564 C1590 0.950 1_556 S
H1565 C1592 0.950 . S
H1566 C1595 0.950 . S
H1567 C1596 0.950 1_565 S
H1568 C1598 0.950 . S
H1569 C1599 0.950 . S
C1570 H1552 0.951 . S
C1570 C1571 1.366 . S
C1570 C1572 1.388 . S
C1571 C1570 1.366 . S
C1571 C1575 1.385 . S
C1572 H1553 0.951 . S
C1572 C1570 1.388 . S
C1572 C1573 1.366 . S
C1573 C1572 1.366 . S
C1573 C1574 1.414 . S
C1573 C1576 1.499 . S
C1574 H1554 0.950 . S
C1574 C1573 1.414 . S
C1574 C1575 1.374 . S
C1575 H1555 0.950 . S
C1575 C1571 1.385 . S
C1575 C1574 1.374 . S
C1576 C1573 1.499 . S
C1576 C1577 1.373 . S
C1576 C1578 1.389 . S
C1577 H1556 0.950 . S
C1577 C1576 1.373 . S
C1577 C1593 1.377 . S
C1578 C1576 1.389 . S
C1578 C1579 1.524 . S
C1578 C1592 1.377 . S
C1579 C1578 1.524 . S
C1579 C1580 1.397 . S
C1579 C1584 1.363 . S
C1580 H1557 0.950 . S
C1580 C1579 1.397 . S
C1580 C1581 1.334 . S
C1581 H1558 0.950 . S
C1581 C1580 1.334 . S
C1581 C1582 1.287 1_554 S
C1582 C1581 1.287 1_556 S
C1582 C1583 1.524 . S
C1582 H1601 0.913 . S
C1583 H1559 0.950 . S
C1583 C1582 1.524 . S
C1583 C1584 1.415 1_556 S
C1584 H1560 0.950 1_554 S
C1584 C1579 1.363 . S
C1584 C1583 1.415 1_554 S
C1585 H1561 0.951 . S
C1585 C1586 1.366 . S
C1585 C1587 1.388 . S
C1586 C1585 1.366 . S
C1586 C1590 1.385 . S
C1587 H1562 0.951 . S
C1587 C1585 1.388 . S
C1587 C1588 1.366 . S
C1588 C1587 1.366 . S
C1588 C1589 1.414 . S
C1588 C1591 1.499 . S
C1589 H1563 0.950 . S
C1589 C1588 1.414 . S
C1589 C1590 1.374 . S
C1590 H1564 0.950 1_554 S
C1590 C1586 1.385 . S
C1590 C1589 1.374 . S
C1591 C1588 1.499 . S
C1591 C1592 1.373 . S
C1591 C1593 1.389 . S
C1592 H1565 0.950 . S
C1592 C1578 1.377 . S
C1592 C1591 1.373 . S
C1593 C1577 1.377 . S
C1593 C1591 1.389 . S
C1593 C1594 1.524 . S
C1594 C1593 1.524 . S
C1594 C1595 1.397 . S
C1594 C1599 1.363 . S
C1595 H1566 0.950 . S
C1595 C1594 1.397 . S
C1595 C1596 1.334 . S
C1596 H1567 0.950 1_545 S
C1596 C1595 1.334 . S
C1596 C1597 1.287 . S
C1597 C1596 1.287 . S
C1597 C1598 1.524 . S
C1597 H1600 1.008 . S
C1598 H1568 0.950 . S
C1598 C1597 1.524 . S
C1598 C1599 1.415 . S
C1599 H1569 0.950 . S
C1599 C1594 1.363 . S
C1599 C1598 1.415 . S
H1600 C1597 1.008 . S
H1601 C1582 0.913 . S
H1602 C1620 0.951 . S
H1603 C1622 0.951 . S
H1604 C1624 0.950 . S
H1605 C1625 0.950 . S
H1606 C1627 0.950 . S
H1607 C1630 0.950 . S
H1608 C1631 0.950 . S
H1609 C1633 0.950 . S
H1610 C1634 0.950 . S
H1611 C1635 0.951 . S
H1612 C1637 0.951 . S
H1613 C1639 0.950 . S
H1614 C1640 0.950 . S
H1615 C1642 0.950 . S
H1616 C1645 0.950 . S
H1617 C1646 0.950 . S
H1618 C1648 0.950 . S
H1619 C1649 0.950 . S
C1620 H1602 0.951 . S
C1620 C1621 1.366 . S
C1620 C1622 1.388 . S
C1621 C1620 1.366 . S
C1621 C1625 1.385 . S
C1622 H1603 0.951 . S
C1622 C1620 1.388 . S
C1622 C1623 1.366 . S
C1623 C1622 1.366 . S
C1623 C1624 1.414 . S
C1623 C1626 1.499 . S
C1624 H1604 0.950 . S
C1624 C1623 1.414 . S
C1624 C1625 1.374 . S
C1625 H1605 0.950 . S
C1625 C1621 1.385 . S
C1625 C1624 1.374 . S
C1626 C1623 1.499 . S
C1626 C1627 1.373 . S
C1626 C1628 1.389 . S
C1627 H1606 0.950 . S
C1627 C1626 1.373 . S
C1627 C1643 1.377 . S
C1628 C1626 1.389 . S
C1628 C1629 1.524 . S
C1628 C1642 1.377 . S
C1629 C1628 1.524 . S
C1629 C1630 1.397 . S
C1629 C1634 1.363 . S
C1630 H1607 0.950 . S
C1630 C1629 1.397 . S
C1630 C1631 1.334 1_565 S
C1631 H1608 0.950 . S
C1631 C1630 1.334 1_545 S
C1631 C1632 1.287 . S
C1632 C1631 1.287 . S
C1632 C1633 1.524 1_545 S
C1632 H1651 0.913 . S
C1633 H1609 0.950 . S
C1633 C1632 1.524 1_565 S
C1633 C1634 1.415 . S
C1634 H1610 0.950 . S
C1634 C1629 1.363 . S
C1634 C1633 1.415 . S
C1635 H1611 0.951 . S
C1635 C1636 1.366 . S
C1635 C1637 1.388 . S
C1636 C1635 1.366 . S
C1636 C1640 1.385 . S
C1637 H1612 0.951 . S
C1637 C1635 1.388 . S
C1637 C1638 1.366 . S
C1638 C1637 1.366 . S
C1638 C1639 1.414 . S
C1638 C1641 1.499 . S
C1639 H1613 0.950 . S
C1639 C1638 1.414 . S
C1639 C1640 1.374 . S
C1640 H1614 0.950 . S
C1640 C1636 1.385 . S
C1640 C1639 1.374 . S
C1641 C1638 1.499 . S
C1641 C1642 1.373 . S
C1641 C1643 1.389 . S
C1642 H1615 0.950 . S
C1642 C1628 1.377 . S
C1642 C1641 1.373 . S
C1643 C1627 1.377 . S
C1643 C1641 1.389 . S
C1643 C1644 1.524 . S
C1644 C1643 1.524 . S
C1644 C1645 1.397 . S
C1644 C1649 1.363 . S
C1645 H1616 0.950 . S
C1645 C1644 1.397 . S
C1645 C1646 1.334 . S
C1646 H1617 0.950 . S
C1646 C1645 1.334 . S
C1646 C1647 1.287 . S
C1647 C1646 1.287 . S
C1647 C1648 1.524 . S
C1647 H1650 0.999 . S
C1648 H1618 0.950 . S
C1648 C1647 1.524 . S
C1648 C1649 1.415 . S
C1649 H1619 0.950 . S
C1649 C1644 1.363 . S
C1649 C1648 1.415 . S
H1650 C1647 0.999 . S
H1651 C1632 0.913 . S
H1652 C1670 0.951 . S
H1653 C1672 0.951 . S
H1654 C1674 0.950 . S
H1655 C1675 0.950 . S
H1656 C1677 0.950 . S
H1657 C1680 0.950 . S
H1658 C1681 0.950 . S
H1659 C1683 0.950 . S
H1660 C1684 0.950 . S
H1661 C1685 0.951 . S
H1662 C1687 0.951 . S
H1663 C1689 0.950 . S
H1664 C1690 0.950 . S
H1665 C1692 0.950 . S
H1666 C1695 0.950 . S
H1667 C1696 0.950 . S
H1668 C1698 0.950 . S
H1669 C1699 0.950 . S
C1670 H1652 0.951 . S
C1670 C1671 1.366 . S
C1670 C1672 1.388 . S
C1671 C1670 1.366 . S
C1671 C1675 1.385 . S
C1672 H1653 0.951 . S
C1672 C1670 1.388 . S
C1672 C1673 1.366 . S
C1673 C1672 1.366 . S
C1673 C1674 1.414 . S
C1673 C1676 1.499 . S
C1674 H1654 0.950 . S
C1674 C1673 1.414 . S
C1674 C1675 1.374 . S
C1675 H1655 0.950 . S
C1675 C1671 1.385 . S
C1675 C1674 1.374 . S
C1676 C1673 1.499 . S
C1676 C1677 1.373 . S
C1676 C1678 1.389 . S
C1677 H1656 0.950 . S
C1677 C1676 1.373 . S
C1677 C1693 1.377 . S
C1678 C1676 1.389 . S
C1678 C1679 1.524 . S
C1678 C1692 1.377 . S
C1679 C1678 1.524 . S
C1679 C1680 1.397 . S
C1679 C1684 1.363 . S
C1680 H1657 0.950 . S
C1680 C1679 1.397 . S
C1680 C1681 1.334 . S
C1681 H1658 0.950 . S
C1681 C1680 1.334 . S
C1681 C1682 1.287 . S
C1682 C1681 1.287 . S
C1682 C1683 1.524 . S
C1682 H1701 0.913 . S
C1683 H1659 0.950 . S
C1683 C1682 1.524 . S
C1683 C1684 1.415 . S
C1684 H1660 0.950 . S
C1684 C1679 1.363 . S
C1684 C1683 1.415 . S
C1685 H1661 0.951 . S
C1685 C1686 1.366 . S
C1685 C1687 1.388 . S
C1686 C1685 1.366 . S
C1686 C1690 1.385 . S
C1687 H1662 0.951 . S
C1687 C1685 1.388 . S
C1687 C1688 1.366 . S
C1688 C1687 1.366 . S
C1688 C1689 1.414 . S
C1688 C1691 1.499 . S
C1689 H1663 0.950 . S
C1689 C1688 1.414 . S
C1689 C1690 1.374 . S
C1690 H1664 0.950 . S
C1690 C1686 1.385 . S
C1690 C1689 1.374 . S
C1691 C1688 1.499 . S
C1691 C1692 1.373 . S
C1691 C1693 1.389 . S
C1692 H1665 0.950 . S
C1692 C1678 1.377 . S
C1692 C1691 1.373 . S
C1693 C1677 1.377 . S
C1693 C1691 1.389 . S
C1693 C1694 1.524 . S
C1694 C1693 1.524 . S
C1694 C1695 1.397 . S
C1694 C1699 1.363 . S
C1695 H1666 0.950 . S
C1695 C1694 1.397 . S
C1695 C1696 1.334 . S
C1696 H1667 0.950 . S
C1696 C1695 1.334 . S
C1696 C1697 1.287 . S
C1697 C1696 1.287 . S
C1697 C1698 1.524 . S
C1697 H1700 0.999 . S
C1698 H1668 0.950 . S
C1698 C1697 1.524 . S
C1698 C1699 1.415 . S
C1699 H1669 0.950 . S
C1699 C1694 1.363 . S
C1699 C1698 1.415 . S
H1700 C1697 0.999 . S
H1701 C1682 0.913 . S
H1702 C1720 0.951 . S
H1703 C1722 0.951 . S
H1704 C1724 0.950 . S
H1705 C1725 0.950 . S
H1706 C1727 0.950 . S
H1707 C1730 0.950 . S
H1708 C1731 0.950 . S
H1709 C1733 0.950 . S
H1710 C1734 0.950 . S
H1711 C1735 0.951 . S
H1712 C1737 0.951 . S
H1713 C1739 0.950 . S
H1714 C1740 0.950 . S
H1715 C1742 0.950 . S
H1716 C1745 0.950 . S
H1717 C1746 0.950 . S
H1718 C1748 0.950 . S
H1719 C1749 0.950 . S
C1720 H1702 0.951 . S
C1720 C1721 1.366 . S
C1720 C1722 1.388 . S
C1721 C1720 1.366 . S
C1721 C1725 1.385 . S
C1722 H1703 0.951 . S
C1722 C1720 1.388 . S
C1722 C1723 1.366 . S
C1723 C1722 1.366 . S
C1723 C1724 1.414 . S
C1723 C1726 1.499 . S
C1724 H1704 0.950 . S
C1724 C1723 1.414 . S
C1724 C1725 1.374 . S
C1725 H1705 0.950 . S
C1725 C1721 1.385 . S
C1725 C1724 1.374 . S
C1726 C1723 1.499 . S
C1726 C1727 1.373 . S
C1726 C1728 1.389 . S
C1727 H1706 0.950 . S
C1727 C1726 1.373 . S
C1727 C1743 1.377 . S
C1728 C1726 1.389 . S
C1728 C1729 1.524 . S
C1728 C1742 1.377 . S
C1729 C1728 1.524 . S
C1729 C1730 1.397 . S
C1729 C1734 1.363 . S
C1730 H1707 0.950 . S
C1730 C1729 1.397 . S
C1730 C1731 1.334 . S
C1731 H1708 0.950 . S
C1731 C1730 1.334 . S
C1731 C1732 1.287 . S
C1732 C1731 1.287 . S
C1732 C1733 1.524 . S
C1732 H1751 0.913 . S
C1733 H1709 0.950 . S
C1733 C1732 1.524 . S
C1733 C1734 1.415 . S
C1734 H1710 0.950 . S
C1734 C1729 1.363 . S
C1734 C1733 1.415 . S
C1735 H1711 0.951 . S
C1735 C1736 1.366 . S
C1735 C1737 1.388 . S
C1736 C1735 1.366 . S
C1736 C1740 1.385 . S
C1737 H1712 0.951 . S
C1737 C1735 1.388 . S
C1737 C1738 1.366 . S
C1738 C1737 1.366 . S
C1738 C1739 1.414 . S
C1738 C1741 1.499 . S
C1739 H1713 0.950 . S
C1739 C1738 1.414 . S
C1739 C1740 1.374 . S
C1740 H1714 0.950 . S
C1740 C1736 1.385 . S
C1740 C1739 1.374 . S
C1741 C1738 1.499 . S
C1741 C1742 1.373 . S
C1741 C1743 1.389 . S
C1742 H1715 0.950 . S
C1742 C1728 1.377 . S
C1742 C1741 1.373 . S
C1743 C1727 1.377 . S
C1743 C1741 1.389 . S
C1743 C1744 1.524 . S
C1744 C1743 1.524 . S
C1744 C1745 1.397 . S
C1744 C1749 1.363 . S
C1745 H1716 0.950 . S
C1745 C1744 1.397 . S
C1745 C1746 1.334 . S
C1746 H1717 0.950 . S
C1746 C1745 1.334 . S
C1746 C1747 1.287 . S
C1747 C1746 1.287 . S
C1747 C1748 1.524 . S
C1747 H1750 0.999 . S
C1748 H1718 0.950 . S
C1748 C1747 1.524 . S
C1748 C1749 1.415 . S
C1749 H1719 0.950 . S
C1749 C1744 1.363 . S
C1749 C1748 1.415 . S
H1750 C1747 0.999 . S
H1751 C1732 0.913 . S
H1752 C1770 0.951 . S
H1753 C1772 0.951 . S
H1754 C1774 0.950 . S
H1755 C1775 0.950 . S
H1756 C1777 0.950 . S
H1757 C1780 0.950 . S
H1758 C1781 0.950 . S
H1759 C1783 0.950 . S
H1760 C1784 0.950 . S
H1761 C1785 0.951 . S
H1762 C1787 0.951 . S
H1763 C1789 0.950 . S
H1764 C1790 0.950 . S
H1765 C1792 0.950 . S
H1766 C1795 0.950 . S
H1767 C1796 0.950 . S
H1768 C1798 0.950 . S
H1769 C1799 0.950 . S
C1770 H1752 0.951 . S
C1770 C1771 1.366 . S
C1770 C1772 1.388 . S
C1771 C1770 1.366 . S
C1771 C1775 1.385 . S
C1772 H1753 0.951 . S
C1772 C1770 1.388 . S
C1772 C1773 1.366 . S
C1773 C1772 1.366 . S
C1773 C1774 1.414 . S
C1773 C1776 1.499 . S
C1774 H1754 0.950 . S
C1774 C1773 1.414 . S
C1774 C1775 1.374 . S
C1775 H1755 0.950 . S
C1775 C1771 1.385 . S
C1775 C1774 1.374 . S
C1776 C1773 1.499 . S
C1776 C1777 1.373 . S
C1776 C1778 1.389 . S
C1777 H1756 0.950 . S
C1777 C1776 1.373 . S
C1777 C1793 1.377 . S
C1778 C1776 1.389 . S
C1778 C1779 1.524 . S
C1778 C1792 1.377 . S
C1779 C1778 1.524 . S
C1779 C1780 1.397 . S
C1779 C1784 1.363 . S
C1780 H1757 0.950 . S
C1780 C1779 1.397 . S
C1780 C1781 1.334 . S
C1781 H1758 0.950 . S
C1781 C1780 1.334 . S
C1781 C1782 1.287 . S
C1782 C1781 1.287 . S
C1782 C1783 1.524 . S
C1782 H1801 0.913 . S
C1783 H1759 0.950 . S
C1783 C1782 1.524 . S
C1783 C1784 1.415 . S
C1784 H1760 0.950 . S
C1784 C1779 1.363 . S
C1784 C1783 1.415 . S
C1785 H1761 0.951 . S
C1785 C1786 1.366 . S
C1785 C1787 1.388 . S
C1786 C1785 1.366 . S
C1786 C1790 1.385 . S
C1787 H1762 0.951 . S
C1787 C1785 1.388 . S
C1787 C1788 1.366 . S
C1788 C1787 1.366 . S
C1788 C1789 1.414 . S
C1788 C1791 1.499 . S
C1789 H1763 0.950 . S
C1789 C1788 1.414 . S
C1789 C1790 1.374 . S
C1790 H1764 0.950 . S
C1790 C1786 1.385 . S
C1790 C1789 1.374 . S
C1791 C1788 1.499 . S
C1791 C1792 1.373 . S
C1791 C1793 1.389 . S
C1792 H1765 0.950 . S
C1792 C1778 1.377 . S
C1792 C1791 1.373 . S
C1793 C1777 1.377 . S
C1793 C1791 1.389 . S
C1793 C1794 1.524 . S
C1794 C1793 1.524 . S
C1794 C1795 1.397 . S
C1794 C1799 1.363 . S
C1795 H1766 0.950 . S
C1795 C1794 1.397 . S
C1795 C1796 1.334 . S
C1796 H1767 0.950 . S
C1796 C1795 1.334 . S
C1796 C1797 1.287 . S
C1797 C1796 1.287 . S
C1797 C1798 1.524 . S
C1797 H1800 0.999 . S
C1798 H1768 0.950 . S
C1798 C1797 1.524 . S
C1798 C1799 1.415 . S
C1799 H1769 0.950 . S
C1799 C1794 1.363 . S
C1799 C1798 1.415 . S
H1800 C1797 0.999 . S
H1801 C1782 0.913 . S
H1802 C1820 0.951 . S
H1803 C1822 0.951 . S
H1804 C1824 0.950 . S
H1805 C1825 0.950 . S
H1806 C1827 0.950 . S
H1807 C1830 0.950 . S
H1808 C1831 0.950 . S
H1809 C1833 0.950 . S
H1810 C1834 0.950 . S
H1811 C1835 0.951 . S
H1812 C1837 0.951 . S
H1813 C1839 0.950 . S
H1814 C1840 0.950 . S
H1815 C1842 0.950 . S
H1816 C1845 0.950 . S
H1817 C1846 0.950 . S
H1818 C1848 0.950 . S
H1819 C1849 0.950 . S
C1820 H1802 0.951 . S
C1820 C1821 1.366 . S
C1820 C1822 1.388 . S
C1821 C1820 1.366 . S
C1821 C1825 1.385 . S
C1822 H1803 0.951 . S
C1822 C1820 1.388 . S
C1822 C1823 1.366 . S
C1823 C1822 1.366 . S
C1823 C1824 1.414 . S
C1823 C1826 1.499 . S
C1824 H1804 0.950 . S
C1824 C1823 1.414 . S
C1824 C1825 1.374 . S
C1825 H1805 0.950 . S
C1825 C1821 1.385 . S
C1825 C1824 1.374 . S
C1826 C1823 1.499 . S
C1826 C1827 1.373 . S
C1826 C1828 1.389 . S
C1827 H1806 0.950 . S
C1827 C1826 1.373 . S
C1827 C1843 1.377 1_545 S
C1828 C1826 1.389 . S
C1828 C1829 1.524 . S
C1828 C1842 1.377 1_545 S
C1829 C1828 1.524 . S
C1829 C1830 1.397 . S
C1829 C1834 1.363 . S
C1830 H1807 0.950 . S
C1830 C1829 1.397 . S
C1830 C1831 1.334 . S
C1831 H1808 0.950 . S
C1831 C1830 1.334 . S
C1831 C1832 1.287 . S
C1832 C1831 1.287 . S
C1832 C1833 1.524 . S
C1832 H1851 0.913 . S
C1833 H1809 0.950 . S
C1833 C1832 1.524 . S
C1833 C1834 1.415 . S
C1834 H1810 0.950 . S
C1834 C1829 1.363 . S
C1834 C1833 1.415 . S
C1835 H1811 0.951 . S
C1835 C1836 1.366 . S
C1835 C1837 1.388 . S
C1836 C1835 1.366 . S
C1836 C1840 1.385 . S
C1837 H1812 0.951 . S
C1837 C1835 1.388 . S
C1837 C1838 1.366 . S
C1838 C1837 1.366 . S
C1838 C1839 1.414 . S
C1838 C1841 1.499 . S
C1839 H1813 0.950 . S
C1839 C1838 1.414 . S
C1839 C1840 1.374 . S
C1840 H1814 0.950 . S
C1840 C1836 1.385 . S
C1840 C1839 1.374 . S
C1841 C1838 1.499 . S
C1841 C1842 1.373 . S
C1841 C1843 1.389 . S
C1842 H1815 0.950 . S
C1842 C1828 1.377 1_565 S
C1842 C1841 1.373 . S
C1843 C1827 1.377 1_565 S
C1843 C1841 1.389 . S
C1843 C1844 1.524 . S
C1844 C1843 1.524 . S
C1844 C1845 1.397 . S
C1844 C1849 1.363 . S
C1845 H1816 0.950 . S
C1845 C1844 1.397 . S
C1845 C1846 1.334 . S
C1846 H1817 0.950 . S
C1846 C1845 1.334 . S
C1846 C1847 1.287 . S
C1847 C1846 1.287 . S
C1847 C1848 1.524 . S
C1847 H1850 0.999 . S
C1848 H1818 0.950 . S
C1848 C1847 1.524 . S
C1848 C1849 1.415 . S
C1849 H1819 0.950 . S
C1849 C1844 1.363 . S
C1849 C1848 1.415 . S
H1850 C1847 0.999 . S
H1851 C1832 0.913 . S
H1852 C1870 0.951 . S
H1853 C1872 0.951 . S
H1854 C1874 0.950 . S
H1855 C1875 0.950 . S
H1856 C1877 0.950 . S
H1857 C1880 0.950 . S
H1858 C1881 0.950 . S
H1859 C1883 0.950 . S
H1860 C1884 0.950 . S
H1861 C1885 0.951 . S
H1862 C1887 0.951 . S
H1863 C1889 0.950 . S
H1864 C1890 0.950 . S
H1865 C1892 0.950 . S
H1866 C1895 0.950 . S
H1867 C1896 0.950 . S
H1868 C1898 0.950 . S
H1869 C1899 0.950 . S
C1870 H1852 0.951 . S
C1870 C1871 1.366 . S
C1870 C1872 1.388 . S
C1871 C1870 1.366 . S
C1871 C1875 1.385 . S
C1872 H1853 0.951 . S
C1872 C1870 1.388 . S
C1872 C1873 1.366 . S
C1873 C1872 1.366 . S
C1873 C1874 1.414 . S
C1873 C1876 1.499 . S
C1874 H1854 0.950 . S
C1874 C1873 1.414 . S
C1874 C1875 1.374 . S
C1875 H1855 0.950 . S
C1875 C1871 1.385 . S
C1875 C1874 1.374 . S
C1876 C1873 1.499 . S
C1876 C1877 1.373 . S
C1876 C1878 1.389 . S
C1877 H1856 0.950 . S
C1877 C1876 1.373 . S
C1877 C1893 1.377 1_455 S
C1878 C1876 1.389 . S
C1878 C1879 1.524 . S
C1878 C1892 1.377 1_455 S
C1879 C1878 1.524 . S
C1879 C1880 1.397 . S
C1879 C1884 1.363 1_455 S
C1880 H1857 0.950 . S
C1880 C1879 1.397 . S
C1880 C1881 1.334 . S
C1881 H1858 0.950 . S
C1881 C1880 1.334 . S
C1881 C1882 1.287 . S
C1882 C1881 1.287 . S
C1882 C1883 1.524 1_455 S
C1882 H1901 0.913 . S
C1883 H1859 0.950 . S
C1883 C1882 1.524 1_655 S
C1883 C1884 1.415 . S
C1884 H1860 0.950 . S
C1884 C1879 1.363 1_655 S
C1884 C1883 1.415 . S
C1885 H1861 0.951 . S
C1885 C1886 1.366 . S
C1885 C1887 1.388 . S
C1886 C1885 1.366 . S
C1886 C1890 1.385 . S
C1887 H1862 0.951 . S
C1887 C1885 1.388 . S
C1887 C1888 1.366 . S
C1888 C1887 1.366 . S
C1888 C1889 1.414 . S
C1888 C1891 1.499 . S
C1889 H1863 0.950 . S
C1889 C1888 1.414 . S
C1889 C1890 1.374 . S
C1890 H1864 0.950 . S
C1890 C1886 1.385 . S
C1890 C1889 1.374 . S
C1891 C1888 1.499 . S
C1891 C1892 1.373 . S
C1891 C1893 1.389 . S
C1892 H1865 0.950 . S
C1892 C1878 1.377 1_655 S
C1892 C1891 1.373 . S
C1893 C1877 1.377 1_655 S
C1893 C1891 1.389 . S
C1893 C1894 1.524 . S
C1894 C1893 1.524 . S
C1894 C1895 1.397 . S
C1894 C1899 1.363 1_655 S
C1895 H1866 0.950 . S
C1895 C1894 1.397 . S
C1895 C1896 1.334 . S
C1896 H1867 0.950 . S
C1896 C1895 1.334 . S
C1896 C1897 1.287 . S
C1897 C1896 1.287 . S
C1897 C1898 1.524 1_655 S
C1897 H1900 0.999 . S
C1898 H1868 0.950 . S
C1898 C1897 1.524 1_455 S
C1898 C1899 1.415 . S
C1899 H1869 0.950 . S
C1899 C1894 1.363 1_455 S
C1899 C1898 1.415 . S
H1900 C1897 0.999 . S
H1901 C1882 0.913 . S
H1902 C1920 0.951 . S
H1903 C1922 0.951 . S
H1904 C1924 0.950 . S
H1905 C1925 0.950 . S
H1906 C1927 0.950 . S
H1907 C1930 0.950 . S
H1908 C1931 0.950 . S
H1909 C1933 0.950 . S
H1910 C1934 0.950 . S
H1911 C1935 0.951 . S
H1912 C1937 0.951 . S
H1913 C1939 0.950 . S
H1914 C1940 0.950 . S
H1915 C1942 0.950 . S
H1916 C1945 0.950 . S
H1917 C1946 0.950 . S
H1918 C1948 0.950 . S
H1919 C1949 0.950 . S
C1920 H1902 0.951 . S
C1920 C1921 1.366 . S
C1920 C1922 1.388 . S
C1921 C1920 1.366 . S
C1921 C1925 1.385 . S
C1922 H1903 0.951 . S
C1922 C1920 1.388 . S
C1922 C1923 1.366 . S
C1923 C1922 1.366 . S
C1923 C1924 1.414 . S
C1923 C1926 1.499 . S
C1924 H1904 0.950 . S
C1924 C1923 1.414 . S
C1924 C1925 1.374 . S
C1925 H1905 0.950 . S
C1925 C1921 1.385 . S
C1925 C1924 1.374 . S
C1926 C1923 1.499 . S
C1926 C1927 1.373 . S
C1926 C1928 1.389 . S
C1927 H1906 0.950 . S
C1927 C1926 1.373 . S
C1927 C1943 1.377 . S
C1928 C1926 1.389 . S
C1928 C1929 1.524 . S
C1928 C1942 1.377 . S
C1929 C1928 1.524 . S
C1929 C1930 1.397 . S
C1929 C1934 1.363 . S
C1930 H1907 0.950 . S
C1930 C1929 1.397 . S
C1930 C1931 1.334 . S
C1931 H1908 0.950 . S
C1931 C1930 1.334 . S
C1931 C1932 1.287 . S
C1932 C1931 1.287 . S
C1932 C1933 1.524 . S
C1932 H1951 0.913 . S
C1933 H1909 0.950 . S
C1933 C1932 1.524 . S
C1933 C1934 1.415 . S
C1934 H1910 0.950 . S
C1934 C1929 1.363 . S
C1934 C1933 1.415 . S
C1935 H1911 0.951 . S
C1935 C1936 1.366 . S
C1935 C1937 1.388 . S
C1936 C1935 1.366 . S
C1936 C1940 1.385 . S
C1937 H1912 0.951 . S
C1937 C1935 1.388 . S
C1937 C1938 1.366 . S
C1938 C1937 1.366 . S
C1938 C1939 1.414 . S
C1938 C1941 1.499 . S
C1939 H1913 0.950 . S
C1939 C1938 1.414 . S
C1939 C1940 1.374 . S
C1940 H1914 0.950 . S
C1940 C1936 1.385 . S
C1940 C1939 1.374 . S
C1941 C1938 1.499 . S
C1941 C1942 1.373 . S
C1941 C1943 1.389 . S
C1942 H1915 0.950 . S
C1942 C1928 1.377 . S
C1942 C1941 1.373 . S
C1943 C1927 1.377 . S
C1943 C1941 1.389 . S
C1943 C1944 1.524 . S
C1944 C1943 1.524 . S
C1944 C1945 1.397 . S
C1944 C1949 1.363 . S
C1945 H1916 0.950 . S
C1945 C1944 1.397 . S
C1945 C1946 1.334 . S
C1946 H1917 0.950 . S
C1946 C1945 1.334 . S
C1946 C1947 1.287 . S
C1947 C1946 1.287 . S
C1947 C1948 1.524 . S
C1947 H1950 0.999 . S
C1948 H1918 0.950 . S
C1948 C1947 1.524 . S
C1948 C1949 1.415 . S
C1949 H1919 0.950 . S
C1949 C1944 1.363 . S
C1949 C1948 1.415 . S
H1950 C1947 0.999 . S
H1951 C1932 0.913 . S
H1952 C1970 0.951 . S
H1953 C1972 0.951 . S
H1954 C1974 0.950 . S
H1955 C1975 0.950 . S
H1956 C1977 0.950 . S
H1957 C1980 0.950 . S
H1958 C1981 0.950 . S
H1959 C1983 0.950 . S
H1960 C1984 0.950 . S
H1961 C1985 0.951 . S
H1962 C1987 0.951 . S
H1963 C1989 0.950 . S
H1964 C1990 0.950 . S
H1965 C1992 0.950 . S
H1966 C1995 0.950 . S
H1967 C1996 0.950 . S
H1968 C1998 0.950 . S
H1969 C1999 0.950 . S
C1970 H1952 0.951 . S
C1970 C1971 1.366 . S
C1970 C1972 1.388 . S
C1971 C1970 1.366 . S
C1971 C1975 1.385 . S
C1972 H1953 0.951 . S
C1972 C1970 1.388 . S
C1972 C1973 1.366 . S
C1973 C1972 1.366 . S
C1973 C1974 1.414 . S
C1973 C1976 1.499 . S
C1974 H1954 0.950 . S
C1974 C1973 1.414 . S
C1974 C1975 1.374 . S
C1975 H1955 0.950 . S
C1975 C1971 1.385 . S
C1975 C1974 1.374 . S
C1976 C1973 1.499 . S
C1976 C1977 1.373 . S
C1976 C1978 1.389 . S
C1977 H1956 0.950 . S
C1977 C1976 1.373 . S
C1977 C1993 1.377 1_545 S
C1978 C1976 1.389 . S
C1978 C1979 1.524 . S
C1978 C1992 1.377 1_545 S
C1979 C1978 1.524 . S
C1979 C1980 1.397 . S
C1979 C1984 1.363 1_545 S
C1980 H1957 0.950 . S
C1980 C1979 1.397 . S
C1980 C1981 1.334 . S
C1981 H1958 0.950 . S
C1981 C1980 1.334 . S
C1981 C1982 1.287 . S
C1982 C1981 1.287 . S
C1982 C1983 1.524 1_545 S
C1982 H2001 0.913 . S
C1983 H1959 0.950 . S
C1983 C1982 1.524 1_565 S
C1983 C1984 1.415 . S
C1984 H1960 0.950 . S
C1984 C1979 1.363 1_565 S
C1984 C1983 1.415 . S
C1985 H1961 0.951 . S
C1985 C1986 1.366 . S
C1985 C1987 1.388 . S
C1986 C1985 1.366 . S
C1986 C1990 1.385 . S
C1987 H1962 0.951 . S
C1987 C1985 1.388 . S
C1987 C1988 1.366 . S
C1988 C1987 1.366 . S
C1988 C1989 1.414 . S
C1988 C1991 1.499 . S
C1989 H1963 0.950 . S
C1989 C1988 1.414 . S
C1989 C1990 1.374 . S
C1990 H1964 0.950 . S
C1990 C1986 1.385 . S
C1990 C1989 1.374 . S
C1991 C1988 1.499 . S
C1991 C1992 1.373 . S
C1991 C1993 1.389 . S
C1992 H1965 0.950 . S
C1992 C1978 1.377 1_565 S
C1992 C1991 1.373 . S
C1993 C1977 1.377 1_565 S
C1993 C1991 1.389 . S
C1993 C1994 1.524 . S
C1994 C1993 1.524 . S
C1994 C1995 1.397 . S
C1994 C1999 1.363 1_565 S
C1995 H1966 0.950 . S
C1995 C1994 1.397 . S
C1995 C1996 1.334 . S
C1996 H1967 0.950 . S
C1996 C1995 1.334 . S
C1996 C1997 1.287 . S
C1997 C1996 1.287 . S
C1997 C1998 1.524 1_565 S
C1997 H2000 0.999 . S
C1998 H1968 0.950 . S
C1998 C1997 1.524 1_545 S
C1998 C1999 1.415 . S
C1999 H1969 0.950 . S
C1999 C1994 1.363 1_545 S
C1999 C1998 1.415 . S
H2000 C1997 0.999 . S
H2001 C1982 0.913 . S
H2002 C2020 0.951 . S
H2003 C2022 0.951 . S
H2004 C2024 0.950 . S
H2005 C2025 0.950 . S
H2006 C2027 0.950 . S
H2007 C2030 0.950 . S
H2008 C2031 0.950 . S
H2009 C2033 0.950 . S
H2010 C2034 0.950 . S
H2011 C2035 0.951 . S
H2012 C2037 0.951 . S
H2013 C2039 0.950 . S
H2014 C2040 0.950 . S
H2015 C2042 0.950 . S
H2016 C2045 0.950 . S
H2017 C2046 0.950 . S
H2018 C2048 0.950 . S
H2019 C2049 0.950 . S
C2020 H2002 0.951 . S
C2020 C2021 1.366 . S
C2020 C2022 1.388 . S
C2021 C2020 1.366 . S
C2021 C2025 1.385 . S
C2022 H2003 0.951 . S
C2022 C2020 1.388 . S
C2022 C2023 1.366 . S
C2023 C2022 1.366 . S
C2023 C2024 1.414 . S
C2023 C2026 1.499 . S
C2024 H2004 0.950 . S
C2024 C2023 1.414 . S
C2024 C2025 1.374 . S
C2025 H2005 0.950 . S
C2025 C2021 1.385 . S
C2025 C2024 1.374 . S
C2026 C2023 1.499 . S
C2026 C2027 1.373 . S
C2026 C2028 1.389 . S
C2027 H2006 0.950 . S
C2027 C2026 1.373 . S
C2027 C2043 1.377 1_455 S
C2028 C2026 1.389 . S
C2028 C2029 1.524 . S
C2028 C2042 1.377 1_455 S
C2029 C2028 1.524 . S
C2029 C2030 1.397 . S
C2029 C2034 1.363 . S
C2030 H2007 0.950 . S
C2030 C2029 1.397 . S
C2030 C2031 1.334 . S
C2031 H2008 0.950 . S
C2031 C2030 1.334 . S
C2031 C2032 1.287 . S
C2032 C2031 1.287 . S
C2032 C2033 1.524 . S
C2032 H2051 0.913 . S
C2033 H2009 0.950 . S
C2033 C2032 1.524 . S
C2033 C2034 1.415 . S
C2034 H2010 0.950 . S
C2034 C2029 1.363 . S
C2034 C2033 1.415 . S
C2035 H2011 0.951 . S
C2035 C2036 1.366 . S
C2035 C2037 1.388 . S
C2036 C2035 1.366 . S
C2036 C2040 1.385 . S
C2037 H2012 0.951 . S
C2037 C2035 1.388 . S
C2037 C2038 1.366 . S
C2038 C2037 1.366 . S
C2038 C2039 1.414 . S
C2038 C2041 1.499 . S
C2039 H2013 0.950 . S
C2039 C2038 1.414 . S
C2039 C2040 1.374 . S
C2040 H2014 0.950 . S
C2040 C2036 1.385 . S
C2040 C2039 1.374 . S
C2041 C2038 1.499 . S
C2041 C2042 1.373 . S
C2041 C2043 1.389 . S
C2042 H2015 0.950 . S
C2042 C2028 1.377 1_655 S
C2042 C2041 1.373 . S
C2043 C2027 1.377 1_655 S
C2043 C2041 1.389 . S
C2043 C2044 1.524 . S
C2044 C2043 1.524 . S
C2044 C2045 1.397 . S
C2044 C2049 1.363 . S
C2045 H2016 0.950 . S
C2045 C2044 1.397 . S
C2045 C2046 1.334 . S
C2046 H2017 0.950 . S
C2046 C2045 1.334 . S
C2046 C2047 1.287 . S
C2047 C2046 1.287 . S
C2047 C2048 1.524 . S
C2047 H2050 0.999 . S
C2048 H2018 0.950 . S
C2048 C2047 1.524 . S
C2048 C2049 1.415 . S
C2049 H2019 0.950 . S
C2049 C2044 1.363 . S
C2049 C2048 1.415 . S
H2050 C2047 0.999 . S
H2051 C2032 0.913 . S
C271 C57 1.132 . S
C286 C1 1.132 . S
C321 C70 1.132 . S
C336 C14 1.132 . S
C371 C28 1.133 . S
C386 C43 1.132 . S
C421 C56 1.132 . S
C436 C0 1.132 . S
C471 C71 1.132 . S
C486 C15 1.132 . S
C521 C29 1.132 . S
C536 C42 1.132 . S
C571 C153 1.132 . S
C586 C84 1.132 . S
C621 C155 1.132 . S
C636 C110 1.132 . S
C671 C112 1.132 . S
C686 C139 1.132 . S
C721 C85 1.132 . S
C736 C152 1.132 . S
C771 C154 1.132 . S
C786 C111 1.132 . S
C821 C138 1.132 . S
C836 C113 1.132 . S
C871 C237 1.132 . S
C886 C168 1.133 . S
C921 C182 1.132 . S
C936 C238 1.132 . S
C971 C211 1.132 . S
C986 C209 1.132 . S
C1021 C236 1.132 . S
C1036 C169 1.132 . S
C1071 C239 1.132 . S
C1086 C183 1.132 . S
C1121 C208 1.133 . S
C1136 C210 1.133 . S
C1171 C13 1.523 . S
C1186 C127 1.523 . S
C1221 C141 1.523 . S
C1236 C26 1.523 . S
C1271 C167 1.523 . S
C1286 C40 1.523 . S
C1321 C55 1.523 . S
C1336 C180 1.523 . S
C1371 C194 1.523 . S
C1386 C69 1.523 . S
C1421 C197 1.523 . S
C1436 C82 1.523 . S
C1471 C222 1.523 . S
C1486 C12 1.523 . S
C1521 C224 1.523 . S
C1536 C27 1.523 . S
C1571 C251 1.522 . S
C1586 C41 1.522 . S
C1621 C54 1.523 . S
C1636 C97 1.523 . S
C1671 C68 1.522 . S
C1686 C99 1.522 . S
C1721 C125 1.523 . S
C1736 C83 1.523 . S
C1771 C223 1.523 . S
C1786 C96 1.523 . S
C1821 C225 1.523 . S
C1836 C98 1.523 . S
C1871 C124 1.523 . S
C1886 C250 1.523 . S
C1921 C181 1.523 . S
C1936 C126 1.523 . S
C1971 C195 1.523 . S
C1986 C140 1.523 . S
C2021 C166 1.523 . S
C2036 C196 1.523 . S
