# Generated by pormake.
# Topology snk, (6)-cn, num edge types: 1
# Building blocks:
#     Node 0, Type 0, BuildingBlock: UKALOJ_clean_sbu_0, # of connection points: 6
#     Node 1, Type 0, BuildingBlock: UKALOJ_clean_sbu_0, # of connection points: 6
#     Node 2, Type 0, BuildingBlock: UKALOJ_clean_sbu_0, # of connection points: 6
#     Node 3, Type 0, BuildingBlock: UKALOJ_clean_sbu_0, # of connection points: 6
#     Node 4, Type 0, BuildingBlock: UKALOJ_clean_sbu_0, # of connection points: 6
#     Node 5, Type 0, BuildingBlock: UKALOJ_clean_sbu_0, # of connection points: 6
#     Node 6, Type 0, BuildingBlock: UKALOJ_clean_sbu_0, # of connection points: 6
#     Node 7, Type 0, BuildingBlock: UKALOJ_clean_sbu_0, # of connection points: 6
#     Edge 8, Type (0, 0), BuildingBlock: KIFKEQ_clean_linker_1, # of connection points: 2
#     Edge 9, Type (0, 0), BuildingBlock: KIFKEQ_clean_linker_1, # of connection points: 2
#     Edge 10, Type (0, 0), BuildingBlock: KIFKEQ_clean_linker_1, # of connection points: 2
#     Edge 11, Type (0, 0), BuildingBlock: KIFKEQ_clean_linker_1, # of connection points: 2
#     Edge 12, Type (0, 0), BuildingBlock: KIFKEQ_clean_linker_1, # of connection points: 2
#     Edge 13, Type (0, 0), BuildingBlock: KIFKEQ_clean_linker_1, # of connection points: 2
#     Edge 14, Type (0, 0), BuildingBlock: KIFKEQ_clean_linker_1, # of connection points: 2
#     Edge 15, Type (0, 0), BuildingBlock: KIFKEQ_clean_linker_1, # of connection points: 2
#     Edge 16, Type (0, 0), BuildingBlock: KIFKEQ_clean_linker_1, # of connection points: 2
#     Edge 17, Type (0, 0), BuildingBlock: KIFKEQ_clean_linker_1, # of connection points: 2
#     Edge 18, Type (0, 0), BuildingBlock: KIFKEQ_clean_linker_1, # of connection points: 2
#     Edge 19, Type (0, 0), BuildingBlock: KIFKEQ_clean_linker_1, # of connection points: 2
#     Edge 20, Type (0, 0), BuildingBlock: KIFKEQ_clean_linker_1, # of connection points: 2
#     Edge 21, Type (0, 0), BuildingBlock: KIFKEQ_clean_linker_1, # of connection points: 2
#     Edge 22, Type (0, 0), BuildingBlock: KIFKEQ_clean_linker_1, # of connection points: 2
#     Edge 23, Type (0, 0), BuildingBlock: KIFKEQ_clean_linker_1, # of connection points: 2
#     Edge 24, Type (0, 0), BuildingBlock: KIFKEQ_clean_linker_1, # of connection points: 2
#     Edge 25, Type (0, 0), BuildingBlock: KIFKEQ_clean_linker_1, # of connection points: 2
#     Edge 26, Type (0, 0), BuildingBlock: KIFKEQ_clean_linker_1, # of connection points: 2
#     Edge 27, Type (0, 0), BuildingBlock: KIFKEQ_clean_linker_1, # of connection points: 2
#     Edge 28, Type (0, 0), BuildingBlock: KIFKEQ_clean_linker_1, # of connection points: 2
#     Edge 29, Type (0, 0), BuildingBlock: KIFKEQ_clean_linker_1, # of connection points: 2
#     Edge 30, Type (0, 0), BuildingBlock: KIFKEQ_clean_linker_1, # of connection points: 2
#     Edge 31, Type (0, 0), BuildingBlock: KIFKEQ_clean_linker_1, # of connection points: 2
# Relax obj value: 0.132
# Max RMSD: 0.103
# Mean RMSD: 0.094
data_MOF--net-snk--node1-UKALOJ_clean_sbu_0--edge1-KIFKEQ_clean_linker_1
_symmetry_space_group_name_H-M    P1
_symmetry_Int_Tables_number       1
_symmetry_cell_setting            triclinic
loop_
_symmetry_equiv_pos_as_xyz
'x, y, z'
_cell_length_a     48.018334
_cell_length_b     47.989619
_cell_length_c     15.621466
_cell_angle_alpha  79.447128
_cell_angle_beta   79.185206
_cell_angle_gamma 93.467181
loop_
_atom_site_label
_atom_site_type_symbol
_atom_site_fract_x
_atom_site_fract_y
_atom_site_fract_z
_atom_type_partial_charge
Zn0 Zn 0.04975 1.01808 0.49821 0.0
O1 O 0.05003 1.01879 0.63253 0.0
C2 C 0.98969 0.98952 0.54487 0.0
Zn3 Zn 1.01784 0.05013 0.49674 0.0
C4 C 0.03357 0.03373 0.67439 0.0
O5 O 1.01725 0.04874 0.63403 0.0
C6 C 0.03413 0.03441 0.32032 0.0
O7 O 0.05192 0.08406 0.46249 0.0
O8 O 0.08332 0.05271 0.45982 0.0
N9 N 0.98796 0.07916 0.49986 0.0
C10 C 0.98321 0.10101 0.43811 0.0
C11 C 0.95172 0.09939 0.55528 0.0
N12 N 0.9684 0.0783 0.57268 0.0
N13 N 0.96052 0.1139 0.47109 0.0
C14 C 0.08624 0.9687 0.55679 0.0
C15 C 0.11529 0.96884 0.43546 0.0
N16 N 0.07976 0.98929 0.49431 0.0
N17 N 0.09783 0.98923 0.419 0.0
N18 N 0.10853 0.95569 0.52155 0.0
H19 H 0.04703 0.96388 0.65379 0.0
H20 H 0.07874 0.97329 0.69234 0.0
H21 H 0.07132 0.93748 0.67771 0.0
C22 C 0.06975 0.96024 0.6505 0.0
C23 C 1.00158 0.1107 0.3474 0.0
H24 H 1.0236 0.10493 0.34627 0.0
H25 H 1.00206 0.1341 0.32556 0.0
H26 H 0.99241 0.10033 0.29978 0.0
O27 O 1.01889 0.05068 0.36042 0.0
O28 O 0.04908 1.01815 0.36251 0.0
C29 C 0.07786 0.07864 0.45065 0.0
O30 O 1.0156 0.98405 0.53729 0.0
O31 O 0.9843 1.01548 0.53101 0.0
Zn32 Zn 0.27409 0.77005 0.75896 0.0
O33 O 0.23878 0.79457 0.75475 0.0
C34 C 0.29318 0.78587 0.56095 0.0
Zn35 Zn 0.30538 0.80776 0.71649 0.0
C36 C 0.2442 0.82134 0.72809 0.0
O37 O 0.26998 0.83207 0.70854 0.0
C38 C 0.3352 0.75636 0.74713 0.0
O39 O 0.30145 0.81056 0.85367 0.0
O40 O 0.27188 0.77172 0.89345 0.0
N41 N 0.33101 0.84445 0.67583 0.0
C42 C 0.35089 0.85576 0.71275 0.0
C43 C 0.34256 0.88836 0.61086 0.0
N44 N 0.32618 0.86452 0.61136 0.0
N45 N 0.35851 0.88326 0.67324 0.0
C46 C 0.22799 0.72392 0.75903 0.0
C47 C 0.24284 0.68723 0.82834 0.0
N48 N 0.24895 0.73302 0.79605 0.0
N49 N 0.25776 0.71025 0.84105 0.0
N50 N 0.22418 0.69527 0.77639 0.0
H51 H 0.19942 0.75616 0.74947 0.0
H52 H 0.19498 0.73057 0.68149 0.0
H53 H 0.22496 0.75752 0.64904 0.0
C54 C 0.21098 0.74298 0.70599 0.0
C55 C 0.36 0.84133 0.79538 0.0
H56 H 0.35432 0.81808 0.80996 0.0
H57 H 0.34975 0.85037 0.8526 0.0
H58 H 0.38339 0.84537 0.78794 0.0
O59 O 0.34082 0.78322 0.72468 0.0
O60 O 0.30946 0.74583 0.76246 0.0
C61 C 0.28614 0.79158 0.91475 0.0
O62 O 0.27666 0.76815 0.6226 0.0
O63 O 0.30879 0.80487 0.58141 0.0
Zn64 Zn 0.5558 0.05009 -0.0055 0.0
O65 O 0.53347 0.08712 -0.00283 0.0
C66 C 0.54038 0.03277 0.1909 0.0
Zn67 Zn 0.51739 1.0196 0.03627 0.0
C68 C 0.50653 0.08205 0.02002 0.0
O69 O 0.49535 0.05643 0.03845 0.0
C70 C 0.56672 0.98763 0.00979 0.0
O71 O 0.51374 1.02161 0.90093 0.0
O72 O 0.55246 0.0512 0.86135 0.0
N73 N 0.47962 0.99596 0.08207 0.0
C74 C 0.46705 0.97535 0.05075 0.0
C75 C 0.4358 0.98679 0.15115 0.0
N76 N 0.46036 1.00276 0.14555 0.0
N77 N 0.43962 0.96914 0.09315 0.0
C78 C 0.60945 0.08964 0.98475 0.0
C79 C 0.63767 0.0787 0.87618 0.0
N80 N 0.594 0.07294 0.94739 0.0
N81 N 0.61142 0.06659 0.87874 0.0
N82 N 0.63689 0.09335 0.94196 0.0
H83 H 0.57528 0.10224 0.07626 0.0
H84 H 0.60992 0.12129 0.06569 0.0
H85 H 0.60268 0.08523 0.12589 0.0
C86 C 0.59848 0.10028 0.06789 0.0
C87 C 0.48022 0.96407 0.97047 0.0
H88 H 0.50358 0.96904 0.95301 0.0
H89 H 0.4709 0.97346 0.91315 0.0
H90 H 0.47535 0.94063 0.9828 0.0
O91 O 0.53981 0.98286 0.03287 0.0
O92 O 0.57805 1.01315 -0.00737 0.0
C93 C 0.53273 0.03687 0.83991 0.0
O94 O 0.55884 0.04857 0.12954 0.0
O95 O 0.52092 1.01785 0.17009 0.0
Zn96 Zn 0.29963 0.26791 0.25356 0.0
O97 O 0.30002 0.26887 0.11739 0.0
C98 C 0.32847 0.32773 0.20552 0.0
Zn99 Zn 0.26769 0.29982 0.25459 0.0
C100 C 0.28367 0.28391 0.07741 0.0
O101 O 0.26731 0.2989 0.11958 0.0
C102 C 0.28363 0.28375 0.43073 0.0
O103 O 0.23351 0.26586 0.29475 0.0
O104 O 0.26485 0.23458 0.28756 0.0
N105 N 0.23866 0.32962 0.25319 0.0
C106 C 0.21736 0.33464 0.31668 0.0
C107 C 0.21703 0.36465 0.19814 0.0
N108 N 0.23834 0.34828 0.17962 0.0
N109 N 0.20357 0.35659 0.28383 0.0
C110 C 0.35186 0.23332 0.20168 0.0
C111 C 0.34194 0.19698 0.3072 0.0
N112 N 0.32782 0.23741 0.25675 0.0
N113 N 0.32193 0.21489 0.32249 0.0
N114 N 0.36111 0.20794 0.23184 0.0
H115 H 0.35159 0.27025 0.09861 0.0
H116 H 0.37091 0.2418 0.06232 0.0
H117 H 0.38543 0.2644 0.12637 0.0
C118 C 0.36547 0.25359 0.11711 0.0
C119 C 0.20902 0.31704 0.40893 0.0
H120 H 0.21397 0.29477 0.4099 0.0
H121 H 0.18594 0.31718 0.43571 0.0
H122 H 0.22114 0.32614 0.4529 0.0
O123 O 0.26891 0.30038 0.38892 0.0
O124 O 0.29837 0.26717 0.39038 0.0
C125 C 0.23891 0.23997 0.30183 0.0
O126 O 0.33381 0.30176 0.2196 0.0
O127 O 0.30255 0.33325 0.21353 0.0
Zn128 Zn 0.77291 0.268 0.25305 0.0
O129 O 0.73645 0.29108 0.25007 0.0
C130 C 0.79171 0.28246 0.05545 0.0
Zn131 Zn 0.80434 0.30558 0.20941 0.0
C132 C 0.74221 0.31769 0.21972 0.0
O133 O 0.7681 0.32816 0.19932 0.0
C134 C 0.83495 0.25565 0.24133 0.0
O135 O 0.80069 0.31015 0.34553 0.0
O136 O 0.77151 0.27119 0.386 0.0
N137 N 0.82867 0.34303 0.16444 0.0
C138 C 0.84834 0.35572 0.19906 0.0
C139 C 0.83799 0.38694 0.09709 0.0
N140 N 0.8226 0.36226 0.0999 0.0
N141 N 0.85456 0.38325 0.15804 0.0
C142 C 0.7328 0.21487 0.26105 0.0
C143 C 0.7427 0.18658 0.3707 0.0
N144 N 0.7493 0.23017 0.29942 0.0
N145 N 0.75499 0.21271 0.36875 0.0
N146 N 0.7286 0.18747 0.30379 0.0
H147 H 0.72099 0.24918 0.16892 0.0
H148 H 0.70178 0.21469 0.17832 0.0
H149 H 0.73809 0.22163 0.11969 0.0
C150 C 0.72277 0.22595 0.17719 0.0
C151 C 0.85848 0.34255 0.28123 0.0
H152 H 0.85351 0.31921 0.29811 0.0
H153 H 0.84834 0.3519 0.33789 0.0
H154 H 0.88185 0.34742 0.27152 0.0
O155 O 0.84042 0.28251 0.21906 0.0
O156 O 0.80928 0.24493 0.25567 0.0
C157 C 0.78554 0.29122 0.40701 0.0
O158 O 0.77471 0.26514 0.11719 0.0
O159 O 0.80772 0.30115 0.07579 0.0
Zn160 Zn 0.79957 0.76819 0.75018 0.0
O161 O 0.79986 0.76907 0.61412 0.0
C162 C 0.82806 0.82831 0.70323 0.0
Zn163 Zn 0.7675 0.80007 0.75256 0.0
C164 C 0.78366 0.7844 0.57438 0.0
O165 O 0.76748 0.79947 0.61686 0.0
C166 C 0.78337 0.78404 0.92812 0.0
O167 O 0.7336 0.76583 0.79145 0.0
O168 O 0.76502 0.73456 0.78543 0.0
N169 N 0.73834 0.82975 0.7513 0.0
C170 C 0.71731 0.835 0.81517 0.0
C171 C 0.71723 0.86534 0.69713 0.0
N172 N 0.73816 0.8486 0.678 0.0
N173 N 0.70388 0.85731 0.78291 0.0
C174 C 0.84989 0.73256 0.69154 0.0
C175 C 0.84861 0.70239 0.81102 0.0
N176 N 0.8285 0.73827 0.75338 0.0
N177 N 0.82785 0.71952 0.82759 0.0
N178 N 0.86271 0.71007 0.72597 0.0
H179 H 0.8478 0.74036 0.55439 0.0
H180 H 0.88242 0.74942 0.57522 0.0
H181 H 0.85426 0.77216 0.59678 0.0
C182 C 0.85921 0.74981 0.59926 0.0
C183 C 0.70885 0.81732 0.90726 0.0
H184 H 0.71336 0.79494 0.90771 0.0
H185 H 0.68585 0.81788 0.93429 0.0
H186 H 0.72121 0.82607 0.95124 0.0
O187 O 0.7683 0.80035 0.88682 0.0
O188 O 0.79845 0.76781 0.88723 0.0
C189 C 0.73906 0.73993 0.79926 0.0
O190 O 0.8335 0.80236 0.71451 0.0
O191 O 0.8021 0.83374 0.71379 0.0
Zn192 Zn 0.54965 0.51805 0.00107 0.0
O193 O 0.54794 0.51664 0.13832 0.0
C194 C 0.48963 0.48938 0.04711 0.0
Zn195 Zn 0.5177 0.54991 0.00093 0.0
C196 C 0.53317 0.53328 0.17834 0.0
O197 O 0.51866 0.55007 0.13599 0.0
C198 C 0.53415 0.53456 0.82384 0.0
O199 O 0.55184 0.58396 0.96104 0.0
O200 O 0.58311 0.55267 0.96978 0.0
N201 N 0.48796 0.57905 0.00331 0.0
C202 C 0.48276 0.60016 0.93994 0.0
C203 C 0.45275 0.60054 0.05888 0.0
N204 N 0.46931 0.57941 0.07715 0.0
N205 N 0.46069 0.61384 0.97308 0.0
C206 C 0.58455 0.46668 0.05546 0.0
C207 C 0.61791 0.4722 0.94094 0.0
N208 N 0.57996 0.48963 -0.00272 0.0
N209 N 0.60072 0.49293 0.92626 0.0
N210 N 0.6084 0.4554 0.02171 0.0
H211 H 0.54306 0.46067 0.14226 0.0
H212 H 0.57272 0.46355 0.19581 0.0
H213 H 0.56451 0.43118 0.15874 0.0
C214 C 0.56494 0.45473 0.14282 0.0
C215 C 0.50029 0.60844 0.84746 0.0
H216 H 0.52264 0.60373 0.84616 0.0
H217 H 0.49992 0.63146 0.82062 0.0
H218 H 0.49128 0.59612 0.80378 0.0
O219 O 0.51715 0.54885 0.8666 0.0
O220 O 0.55098 0.5201 0.86344 0.0
C221 C 0.57772 0.57859 0.95496 0.0
O222 O 0.5156 0.48411 0.03162 0.0
O223 O 0.48409 0.51524 0.04152 0.0
Zn224 Zn 1.0099 0.51358 0.53136 0.0
O225 O 1.00524 0.5155 0.39655 0.0
C226 C 0.06038 0.48249 0.50373 0.0
Zn227 Zn 0.04813 0.5441 0.4894 0.0
C228 C 1.02448 0.53042 0.33556 0.0
O229 O 0.04439 0.5444 0.35718 0.0
C230 C 0.03373 0.52733 0.68489 0.0
O231 O 1.02496 0.58034 0.49159 0.0
O232 O 0.9868 0.54989 0.5369 0.0
N233 N 0.08523 0.56826 0.43898 0.0
C234 C 0.09896 0.58868 0.46783 0.0
C235 C 0.12747 0.57869 0.35797 0.0
N236 N 0.10277 0.56232 0.36985 0.0
N237 N 0.12536 0.59569 0.41788 0.0
C238 C 0.95987 0.46885 0.54759 0.0
C239 C 0.92902 0.47972 0.65015 0.0
N240 N 0.97267 0.48909 0.57977 0.0
N241 N 0.95369 0.49549 0.64471 0.0
N242 N 0.93247 0.46259 0.59051 0.0
H243 H 0.99616 0.46266 0.4491 0.0
H244 H 0.96367 0.46841 0.40901 0.0
H245 H 0.96741 0.43483 0.47605 0.0
C246 C 0.97275 0.45816 0.46587 0.0
C247 C 0.0879 0.59951 0.55064 0.0
H248 H 0.06432 0.59785 0.56546 0.0
H249 H 0.09637 0.62202 0.54361 0.0
H250 H 0.09528 0.58667 0.60722 0.0
O251 O 0.05186 0.54358 0.62347 0.0
O252 O 1.01453 0.51204 0.66416 0.0
C253 C 0.9981 0.57548 0.51727 0.0
O254 O 0.03344 0.47736 0.52521 0.0
O255 O 0.07137 0.50809 0.48794 0.0
H256 H 0.13418 0.07515 0.45877 0.0
H257 H 0.07511 0.13577 0.39161 0.0
H258 H 0.17237 0.11361 0.42635 0.0
H259 H 0.11351 0.17423 0.35467 0.0
H260 H 0.18207 0.24211 0.36902 0.0
H261 H 0.14371 0.20359 0.40635 0.0
H262 H 0.20375 0.14596 0.31902 0.0
H263 H 0.24215 0.18419 0.2862 0.0
C264 C 0.12939 0.0967 0.43605 0.0
C265 C 0.10146 0.10225 0.42798 0.0
C266 C 0.15144 0.11891 0.41672 0.0
C267 C 0.14644 0.14743 0.38733 0.0
C268 C 0.11843 0.15284 0.37861 0.0
C269 C 0.09629 0.13065 0.39919 0.0
C270 C 0.18708 0.22117 0.3581 0.0
C271 C 0.21532 0.21635 0.32476 0.0
C272 C 0.16495 0.19897 0.3789 0.0
C273 C 0.17023 0.17127 0.36589 0.0
C274 C 0.19857 0.16662 0.33202 0.0
C275 C 0.22074 0.18872 0.31244 0.0
H276 H 0.1236 0.90811 0.46514 0.0
H277 H 0.12913 0.95571 0.67092 0.0
H278 H 0.15384 0.87382 0.52804 0.0
H279 H 0.15961 0.92163 0.73388 0.0
H280 H 0.18999 0.80554 0.71136 0.0
H281 H 0.15407 0.83677 0.67148 0.0
H282 H 0.21056 0.91019 0.67165 0.0
H283 H 0.2466 0.8791 0.71047 0.0
C284 C 0.13099 0.91089 0.52469 0.0
C285 C 0.12383 0.93421 0.56402 0.0
C286 C 0.14814 0.89129 0.56087 0.0
C287 C 0.15899 0.89504 0.63598 0.0
C288 C 0.15151 0.91823 0.676 0.0
C289 C 0.13392 0.93755 0.64063 0.0
C290 C 0.1946 0.82829 0.70419 0.0
C291 C 0.22119 0.83982 0.71388 0.0
C292 C 0.17409 0.84616 0.68089 0.0
C293 C 0.17956 0.87588 0.66838 0.0
C294 C 0.20567 0.88735 0.68161 0.0
C295 C 0.22634 0.86954 0.70343 0.0
H296 H 0.3293 0.92042 0.75229 0.0
H297 H 0.41231 0.89076 0.69358 0.0
H298 H 0.34372 0.94284 0.86819 0.0
H299 H 0.42696 0.91302 0.80928 0.0
H300 H 0.42952 0.91404 0.08991 0.0
H301 H 0.40724 0.89658 0.97861 0.0
H302 H 0.38085 0.98016 0.89712 0.0
H303 H 0.40319 0.99734 0.00886 0.0
C304 C 0.35104 0.91992 0.76184 0.0
C305 C 0.36986 0.90402 0.71517 0.0
C306 C 0.35911 0.9323 0.82857 0.0
C307 C 0.38602 0.9287 0.84897 0.0
C308 C 0.40578 0.91529 0.79598 0.0
C309 C 0.39772 0.90308 0.72913 0.0
C310 C 0.41775 0.92812 0.05084 0.0
C311 C 0.41797 0.95684 0.05671 0.0
C312 C 0.40552 0.91842 0.98648 0.0
C313 C 0.39328 0.93742 0.92797 0.0
C314 C 0.39044 0.96529 0.94117 0.0
C315 C 0.40281 0.97498 0.00551 0.0
H316 H 0.45246 0.08284 -0.00603 0.0
H317 H 0.51802 0.13267 0.07065 0.0
H318 H 0.41852 0.11637 0.03183 0.0
H319 H 0.48353 0.16584 0.11318 0.0
H320 H 0.41537 0.22856 0.14379 0.0
H321 H 0.45193 0.20139 0.07594 0.0
H322 H 0.39379 0.1248 0.1678 0.0
H323 H 0.35715 0.15219 0.22995 0.0
C324 C 0.45964 0.10117 0.01845 0.0
C325 C 0.48777 0.10503 0.03019 0.0
C326 C 0.44011 0.1203 0.04094 0.0
C327 C 0.44801 0.14348 0.07783 0.0
C328 C 0.47668 0.14829 0.0848 0.0
C329 C 0.49645 0.1293 0.06061 0.0
C330 C 0.41019 0.20613 0.14692 0.0
C331 C 0.38307 0.19266 0.19024 0.0
C332 C 0.43132 0.19041 0.10939 0.0
C333 C 0.42578 0.1609 0.11507 0.0
C334 C 0.39872 0.14757 0.1596 0.0
C335 C 0.37773 0.16321 0.19633 0.0
H336 H 0.9337 0.99263 0.53155 0.0
H337 H 0.99191 0.93274 0.61169 0.0
H338 H 0.89539 0.95423 0.56652 0.0
H339 H 0.95335 0.8944 0.65108 0.0
H340 H 0.88512 0.82549 0.64164 0.0
H341 H 0.92359 0.86391 0.602 0.0
H342 H 0.86325 0.92303 0.67524 0.0
H343 H 0.82475 0.88479 0.71044 0.0
C344 C 0.93829 0.97127 0.55758 0.0
C345 C 0.96603 0.96591 0.56856 0.0
C346 C 0.91614 0.94909 0.57842 0.0
C347 C 0.92084 0.92079 0.61222 0.0
C348 C 0.94866 0.91558 0.62376 0.0
C349 C 0.9709 0.93772 0.60173 0.0
C350 C 0.88006 0.84672 0.64905 0.0
C351 C 0.8517 0.85193 0.67915 0.0
C352 C 0.90227 0.86889 0.62688 0.0
C353 C 0.89695 0.89699 0.63522 0.0
C354 C 0.86849 0.90204 0.66587 0.0
C355 C 0.84625 0.87994 0.68683 0.0
H356 H 0.94498 0.11789 0.31219 0.0
H357 H 0.94382 0.16018 0.53334 0.0
H358 H 0.91814 0.15445 0.24341 0.0
H359 H 0.91682 0.19684 0.46506 0.0
H360 H 0.88673 0.26966 0.28009 0.0
H361 H 0.92066 0.23682 0.32737 0.0
H362 H 0.86738 0.16627 0.28903 0.0
H363 H 0.8335 0.19882 0.24286 0.0
C364 C 0.93953 0.13542 0.34491 0.0
C365 C 0.94677 0.13655 0.42729 0.0
C366 C 0.92396 0.15616 0.3061 0.0
C367 C 0.9155 0.17857 0.34869 0.0
C368 C 0.92338 0.18006 0.43012 0.0
C369 C 0.93862 0.15907 0.46944 0.0
C370 C 0.88258 0.2472 0.28028 0.0
C371 C 0.85745 0.2368 0.2579 0.0
C372 C 0.90186 0.22842 0.30793 0.0
C373 C 0.89662 0.19899 0.31205 0.0
C374 C 0.87213 0.18884 0.28581 0.0
C375 C 0.85267 0.20749 0.25969 0.0
H376 H 0.68193 0.15019 0.34797 0.0
H377 H 0.76295 0.17326 0.16724 0.0
H378 H 0.66795 0.11813 0.25432 0.0
H379 H 0.74899 0.14184 0.07201 0.0
H380 H 0.67383 0.14025 0.89676 0.0
H381 H 0.70539 0.15506 0.99041 0.0
H382 H 0.6822 0.07436 0.17383 0.0
H383 H 0.65129 0.05957 0.07855 0.0
C384 C 0.697 0.14743 0.28991 0.0
C385 C 0.72318 0.16399 0.26333 0.0
C386 C 0.6892 0.1292 0.23665 0.0
C387 C 0.7075 0.12782 0.15617 0.0
C388 C 0.73469 0.14263 0.13386 0.0
C389 C 0.74258 0.16047 0.1878 0.0
C390 C 0.67665 0.12542 0.95498 0.0
C391 C 0.66037 0.09909 0.98183 0.0
C392 C 0.69458 0.1337 0.00829 0.0
C393 C 0.69591 0.11574 0.08912 0.0
C394 C 0.68144 0.0884 0.11169 0.0
C395 C 0.66391 0.08002 0.05767 0.0
H396 H 0.6568 0.87353 0.72577 0.0
H397 H 0.70179 0.87416 0.93963 0.0
H398 H 0.62125 0.9016 0.79487 0.0
H399 H 0.66632 0.90213 0.00928 0.0
H400 H 0.62369 0.98813 0.00494 0.0
H401 H 0.65504 0.95287 0.96114 0.0
H402 H 0.5826 0.89976 0.93427 0.0
H403 H 0.551 0.93508 0.97908 0.0
C404 C 0.65873 0.87933 0.78837 0.0
C405 C 0.68172 0.87142 0.8281 0.0
C406 C 0.63837 0.89519 0.82818 0.0
C407 C 0.64096 0.90395 0.90768 0.0
C408 C 0.66377 0.89565 0.94808 0.0
C409 C 0.6839 0.87945 0.90881 0.0
C410 C 0.61436 0.96871 0.9912 0.0
C411 C 0.58489 0.9644 -0.00471 0.0
C412 C 0.63232 0.94846 0.96648 0.0
C413 C 0.62128 0.92361 0.944 0.0
C414 C 0.59169 0.91882 0.95076 0.0
C415 C 0.57361 0.93892 0.97698 0.0
H416 H 0.63371 0.5755 0.96814 0.0
H417 H 0.57536 0.63544 0.88943 0.0
H418 H 0.67197 0.61396 0.9337 0.0
H419 H 0.61385 0.67385 0.85083 0.0
H420 H 0.68207 0.74251 0.86297 0.0
H421 H 0.64363 0.70404 0.9019 0.0
H422 H 0.70386 0.64539 0.82391 0.0
H423 H 0.74233 0.68365 0.78913 0.0
C424 C 0.62908 0.59689 0.9426 0.0
C425 C 0.60132 0.60224 0.9318 0.0
C426 C 0.65118 0.61909 0.92208 0.0
C427 C 0.6464 0.64741 0.88891 0.0
C428 C 0.61857 0.65263 0.87762 0.0
C429 C 0.59638 0.63046 0.89921 0.0
C430 C 0.68712 0.72137 0.85437 0.0
C431 C 0.71543 0.7163 0.82301 0.0
C432 C 0.66494 0.69919 0.87613 0.0
C433 C 0.67024 0.67122 0.86625 0.0
C434 C 0.69866 0.6663 0.83441 0.0
C435 C 0.72087 0.6884 0.81371 0.0
H436 H 0.74967 0.37138 0.12093 0.0
H437 H 0.68389 0.30642 0.27515 0.0
H438 H 0.7134 0.40165 0.08043 0.0
H439 H 0.6474 0.33755 0.23529 0.0
H440 H 0.61438 0.43951 0.19407 0.0
H441 H 0.64318 0.40282 0.25128 0.0
H442 H 0.66606 0.3833 0.99017 0.0
H443 H 0.63622 0.41899 0.93345 0.0
C444 C 0.72748 0.36365 0.1472 0.0
C445 C 0.71969 0.33641 0.20135 0.0
C446 C 0.70678 0.38101 0.12368 0.0
C447 C 0.6778 0.37181 0.15479 0.0
C448 C 0.66973 0.345 0.21081 0.0
C449 C 0.69056 0.32727 0.23337 0.0
C450 C 0.6244 0.42656 0.1497 0.0
C451 C 0.62245 0.43177 0.05942 0.0
C452 C 0.6411 0.40575 0.18241 0.0
C453 C 0.65649 0.3902 0.12509 0.0
C454 C 0.6541 0.39489 0.03564 0.0
C455 C 0.63716 0.41535 0.00329 0.0
H456 H 0.89664 0.49304 0.50969 0.0
H457 H 0.92117 0.40831 0.57943 0.0
H458 H 0.8747 0.47875 0.39281 0.0
H459 H 0.89943 0.39384 0.46261 0.0
H460 H 0.90841 0.39429 0.17316 0.0
H461 H 0.92189 0.41578 0.29189 0.0
H462 H 0.8367 0.44039 0.35844 0.0
H463 H 0.82339 0.41867 0.23962 0.0
C464 C 0.89591 0.47097 0.5028 0.0
C465 C 0.91055 0.45164 0.5522 0.0
C466 C 0.88379 0.46296 0.43551 0.0
C467 C 0.88639 0.43559 0.41761 0.0
C468 C 0.8979 0.41531 0.47439 0.0
C469 C 0.90983 0.42331 0.54181 0.0
C470 C 0.89313 0.40551 0.21063 0.0
C471 C 0.86501 0.4049 0.1985 0.0
C472 C 0.90056 0.41727 0.27916 0.0
C473 C 0.87992 0.42873 0.33539 0.0
C474 C 0.85275 0.43131 0.3162 0.0
C475 C 0.84531 0.41935 0.2478 0.0
H476 H 0.90924 0.6939 0.78644 0.0
H477 H 0.86505 0.69178 0.57148 0.0
H478 H 0.94438 0.66448 0.72225 0.0
H479 H 0.90003 0.66233 0.50698 0.0
H480 H 0.94094 0.57487 0.52501 0.0
H481 H 0.91008 0.61111 0.56411 0.0
H482 H 0.98326 0.66485 0.58243 0.0
H483 H 1.01436 0.62863 0.54204 0.0
C484 C 0.90742 0.68748 0.72462 0.0
C485 C 0.88478 0.69535 0.68315 0.0
C486 C 0.92752 0.67083 0.68766 0.0
C487 C 0.92497 0.66121 0.60947 0.0
C488 C 0.90253 0.66948 0.56722 0.0
C489 C 0.88269 0.68652 0.60353 0.0
C490 C 0.95052 0.59459 0.53602 0.0
C491 C 0.98006 0.59888 0.53062 0.0
C492 C 0.93286 0.61539 0.55799 0.0
C493 C 0.94428 0.64075 0.57649 0.0
C494 C 0.97391 0.64542 0.56886 0.0
C495 C 0.99169 0.62478 0.54527 0.0
H496 H 0.32591 0.38467 0.14258 0.0
H497 H 0.3849 0.32439 0.21332 0.0
H498 H 0.36438 0.42306 0.10281 0.0
H499 H 0.4232 0.36286 0.17794 0.0
H500 H 0.49301 0.4333 0.03417 0.0
H501 H 0.45467 0.39489 0.0691 0.0
H502 H 0.39451 0.45289 0.15284 0.0
H503 H 0.43275 0.4915 0.11352 0.0
C504 C 0.34708 0.37961 0.15037 0.0
C505 C 0.35217 0.35131 0.18119 0.0
C506 C 0.36927 0.40177 0.12814 0.0
C507 C 0.39729 0.39648 0.13709 0.0
C508 C 0.40226 0.36806 0.16824 0.0
C509 C 0.38013 0.34586 0.18932 0.0
C510 C 0.47158 0.43788 0.05992 0.0
C511 C 0.46609 0.46565 0.07067 0.0
C512 C 0.44945 0.41568 0.08076 0.0
C513 C 0.42108 0.42037 0.11426 0.0
C514 C 0.41575 0.44821 0.12567 0.0
C515 C 0.43783 0.47048 0.1037 0.0
H516 H 0.44364 0.61696 0.81654 0.0
H517 H 0.44564 0.66105 0.03239 0.0
H518 H 0.41678 0.6536 0.74802 0.0
H519 H 0.41866 0.69775 0.96448 0.0
H520 H 0.38777 0.77004 0.7813 0.0
H521 H 0.42171 0.73695 0.82671 0.0
H522 H 0.36676 0.66658 0.79503 0.0
H523 H 0.3329 0.69939 0.75054 0.0
C524 C 0.43886 0.63487 0.84813 0.0
C525 C 0.44698 0.63648 0.929 0.0
C526 C 0.42329 0.65567 0.80948 0.0
C527 C 0.41573 0.67861 0.8507 0.0
C528 C 0.42451 0.68056 0.93052 0.0
C529 C 0.43975 0.65954 0.96968 0.0
C530 C 0.38324 0.74757 0.78252 0.0
C531 C 0.35765 0.73731 0.76255 0.0
C532 C 0.40254 0.72863 0.8091 0.0
C533 C 0.39684 0.69918 0.81462 0.0
C534 C 0.37188 0.68915 0.79068 0.0
C535 C 0.35243 0.70796 0.76556 0.0
H536 H 0.24122 0.70502 0.59958 0.0
H537 H 0.18835 0.6473 0.82316 0.0
H538 H 0.22397 0.67861 0.49726 0.0
H539 H 0.17113 0.62032 0.72061 0.0
H540 H 0.15875 0.56878 0.51649 0.0
H541 H 0.18934 0.59122 0.59922 0.0
H542 H 0.17266 0.67413 0.46808 0.0
H543 H 0.14191 0.65134 0.38663 0.0
C544 C 0.22584 0.68658 0.62635 0.0
C545 C 0.21516 0.67848 0.71835 0.0
C546 C 0.21624 0.67145 0.5682 0.0
C547 C 0.19625 0.64768 0.60146 0.0
C548 C 0.18678 0.63856 0.69386 0.0
C549 C 0.19629 0.65393 0.75221 0.0
C550 C 0.16272 0.59177 0.50341 0.0
C551 C 0.14858 0.60864 0.44559 0.0
C552 C 0.17981 0.60452 0.55093 0.0
C553 C 0.18301 0.63424 0.54006 0.0
C554 C 0.17061 0.65112 0.47674 0.0
C555 C 0.15324 0.6383 0.43009 0.0
H556 H 0.19918 0.37305 0.44196 0.0
H557 H 0.15672 0.37148 0.22289 0.0
H558 H 0.16198 0.39954 0.51014 0.0
H559 H 0.11952 0.39819 0.29028 0.0
H560 H 0.04651 0.43005 0.46835 0.0
H561 H 0.0795 0.39558 0.42535 0.0
H562 H 0.14955 0.44946 0.4639 0.0
H563 H 0.11687 0.48377 0.50606 0.0
C564 C 0.1815 0.37782 0.40958 0.0
C565 C 0.18053 0.36995 0.32786 0.0
C566 C 0.16037 0.39318 0.44805 0.0
C567 C 0.13777 0.40085 0.40571 0.0
C568 C 0.13642 0.39225 0.32513 0.0
C569 C 0.15775 0.37719 0.28623 0.0
C570 C 0.06888 0.4342 0.46922 0.0
C571 C 0.07913 0.45963 0.49029 0.0
C572 C 0.08776 0.4146 0.44404 0.0
C573 C 0.11711 0.41986 0.44106 0.0
C574 C 0.12705 0.44465 0.46632 0.0
C575 C 0.10832 0.46438 0.49007 0.0
H576 H 0.07333 1.01452 0.76891 0.0
H577 H 0.99393 0.05303 0.79365 0.0
H578 H 0.07374 1.01484 0.92421 0.0
H579 H 0.99377 0.05249 0.95 0.0
H580 H 1.01701 0.07491 0.19955 0.0
H581 H 1.01713 0.07482 0.04398 0.0
H582 H 0.05112 0.99297 0.07164 0.0
H583 H 0.05188 0.99366 0.22683 0.0
C584 C 0.05578 1.02277 0.80784 0.0
C585 C 0.03357 0.0337 0.76905 0.0
C586 C 0.05595 1.02284 0.89711 0.0
C587 C 0.03376 0.03364 0.94998 0.0
C588 C 1.01146 0.04444 0.91106 0.0
C589 C 1.01144 0.04461 0.8215 0.0
C590 C 1.0244 0.05687 0.17256 0.0
C591 C 0.03431 0.03427 0.22564 0.0
C592 C 1.02437 0.05673 0.08328 0.0
C593 C 0.034 0.03382 0.04505 0.0
C594 C 0.04394 1.01118 0.09834 0.0
C595 C 0.04425 1.01149 0.18748 0.0
H596 H 0.33193 0.81355 0.41402 0.0
H597 H 0.25357 0.75788 0.49423 0.0
H598 H 0.33027 0.81483 0.25848 0.0
H599 H 0.251 0.7603 0.33928 0.0
H600 H 0.26769 0.74754 0.05511 0.0
H601 H 0.27046 0.74547 0.20956 0.0
H602 H 0.30692 0.83325 0.14467 0.0
H603 H 0.30543 0.83472 0.98866 0.0
C604 C 0.31429 0.80165 0.39837 0.0
C605 C 0.29294 0.78555 0.4665 0.0
C606 C 0.31316 0.80261 0.30906 0.0
C607 C 0.29041 0.78782 0.28563 0.0
C608 C 0.26913 0.7716 0.35419 0.0
C609 C 0.27051 0.7703 0.44339 0.0
C610 C 0.27618 0.76647 0.07382 0.0
C611 C 0.28629 0.79133 0.00958 0.0
C612 C 0.27765 0.76534 0.16279 0.0
C613 C 0.28886 0.78919 0.19036 0.0
C614 C 0.29862 0.81425 0.12603 0.0
C615 C 0.29754 0.81522 0.03657 0.0
H616 H 0.4905 1.0159 0.76556 0.0
H617 H 0.57627 0.05745 0.69936 0.0
H618 H 0.4923 1.0152 0.6087 0.0
H619 H 0.57864 0.05559 0.54414 0.0
H620 H 0.56529 0.07364 0.26065 0.0
H621 H 0.56242 0.07529 0.41667 0.0
H622 H 0.51259 0.99328 0.49175 0.0
H623 H 0.51456 0.99235 0.33531 0.0
C624 C 0.50974 1.0248 0.71757 0.0
C625 C 0.53314 0.03689 0.74488 0.0
C626 C 0.51091 1.0242 0.62765 0.0
C627 C 0.53565 0.03534 0.56321 0.0
C628 C 0.55901 0.04734 0.5911 0.0
C629 C 0.5577 0.04827 0.68052 0.0
C630 C 0.554 0.05584 0.31045 0.0
C631 C 0.54034 0.03279 0.28561 0.0
C632 C 0.55233 0.05674 0.40019 0.0
C633 C 0.53726 0.0344 0.46743 0.0
C634 C 0.52393 1.01114 0.44221 0.0
C635 C 0.52528 1.01045 0.35242 0.0
H636 H 0.32319 0.2643 0.95878 0.0
H637 H 0.24418 0.30351 0.9822 0.0
H638 H 0.32354 0.26479 0.8025 0.0
H639 H 0.24378 0.30287 0.82699 0.0
H640 H 0.26562 0.3241 0.52528 0.0
H641 H 0.26614 0.32446 0.68053 0.0
H642 H 0.30116 0.24311 0.70626 0.0
H643 H 0.30173 0.24343 0.5499 0.0
C644 C 0.30575 0.27281 0.93067 0.0
C645 C 0.28368 0.28392 0.98277 0.0
C646 C 0.30584 0.27292 0.84111 0.0
C647 C 0.28366 0.28382 0.80176 0.0
C648 C 0.26149 0.29477 0.85434 0.0
C649 C 0.26161 0.29499 0.9436 0.0
C650 C 0.2734 0.30629 0.56418 0.0
C651 C 0.28364 0.28374 0.52536 0.0
C652 C 0.27357 0.3064 0.65346 0.0
C653 C 0.28364 0.28378 0.7064 0.0
C654 C 0.29372 0.26114 0.66738 0.0
C655 C 0.29389 0.26122 0.57778 0.0
H656 H 0.74968 0.25924 0.98654 0.0
H657 H 0.83271 0.30673 0.91008 0.0
H658 H 0.74748 0.26259 0.83088 0.0
H659 H 0.83111 0.30924 0.7538 0.0
H660 H 0.808 0.33295 0.48112 0.0
H661 H 0.80933 0.33085 0.63778 0.0
H662 H 0.76601 0.24575 0.70285 0.0
H663 H 0.76363 0.24839 0.54809 0.0
C664 C 0.76775 0.26987 0.93644 0.0
C665 C 0.79147 0.28247 0.96078 0.0
C666 C 0.76651 0.27184 0.84685 0.0
C667 C 0.78913 0.28619 0.77913 0.0
C668 C 0.81305 0.29847 0.80375 0.0
C669 C 0.81412 0.29678 0.89346 0.0
C670 C 0.79856 0.31394 0.52918 0.0
C671 C 0.78557 0.29094 0.50206 0.0
C672 C 0.79954 0.31259 0.61898 0.0
C673 C 0.78779 0.28809 0.68351 0.0
C674 C 0.77479 0.26519 0.65585 0.0
C675 C 0.77354 0.26666 0.56663 0.0
H676 H 0.82426 0.76738 0.4529 0.0
H677 H 0.74295 0.80216 0.48149 0.0
H678 H 0.82429 0.76757 0.29723 0.0
H679 H 0.7424 0.8015 0.32615 0.0
H680 H 0.76403 0.82374 0.02349 0.0
H681 H 0.76429 0.82414 0.17886 0.0
H682 H 0.80213 0.74428 0.20288 0.0
H683 H 0.80276 0.74449 0.04646 0.0
C684 C 0.80622 0.77475 0.42619 0.0
C685 C 0.78357 0.78461 0.47967 0.0
C686 C 0.80616 0.77477 0.33683 0.0
C687 C 0.78328 0.78441 0.29891 0.0
C688 C 0.76058 0.7943 0.35261 0.0
C689 C 0.76081 0.79456 0.44183 0.0
C690 C 0.77233 0.80623 0.06204 0.0
C691 C 0.78335 0.78406 0.02274 0.0
C692 C 0.77236 0.80638 0.15136 0.0
C693 C 0.78318 0.78422 0.20376 0.0
C694 C 0.79406 0.76196 0.16432 0.0
C695 C 0.7943 0.76197 0.07471 0.0
H696 H 0.57447 0.51652 0.70355 0.0
H697 H 0.49369 0.55247 0.73044 0.0
H698 H 0.5745 0.51675 0.54749 0.0
H699 H 0.4931 0.5517 0.57549 0.0
H700 H 0.51391 0.57313 0.27343 0.0
H701 H 0.51477 0.57391 0.42829 0.0
H702 H 0.55213 0.49379 0.4531 0.0
H703 H 0.55229 0.49369 0.29732 0.0
C704 C 0.55662 0.5243 0.67622 0.0
C705 C 0.53413 0.53457 0.72921 0.0
C706 C 0.55653 0.52426 0.58683 0.0
C707 C 0.53377 0.5342 0.54859 0.0
C708 C 0.51123 0.54437 0.60201 0.0
C709 C 0.51149 0.54469 0.6911 0.0
C710 C 0.5223 0.55568 0.31202 0.0
C711 C 0.5331 0.53338 0.27302 0.0
C712 C 0.52265 0.55603 0.40106 0.0
C713 C 0.53351 0.5339 0.45356 0.0
C714 C 0.54409 0.51147 0.41447 0.0
C715 C 0.54403 0.5113 0.32517 0.0
H716 H 1.0071 0.48719 0.82879 0.0
H717 H 0.05951 0.56754 0.75553 0.0
H718 H 1.00467 0.48796 0.98536 0.0
H719 H 0.05607 0.5691 0.91203 0.0
H720 H 0.06847 0.55051 0.19626 0.0
H721 H 0.07126 0.54901 0.04077 0.0
H722 H 0.98446 0.50992 0.10198 0.0
H723 H 0.98223 0.51022 0.25936 0.0
C724 C 1.01808 0.50507 0.84624 0.0
C725 C 0.03366 0.52722 0.77976 0.0
C726 C 1.01644 0.50568 0.93617 0.0
C727 C 1.03002 0.52866 0.962 0.0
C728 C 0.04571 0.55077 0.89512 0.0
C729 C 0.04768 0.54995 0.80513 0.0
C730 C 0.04989 0.54168 0.17669 0.0
C731 C 1.02507 0.53054 0.24032 0.0
C732 C 0.05144 0.54097 0.08704 0.0
C733 C 1.02808 0.52945 0.05805 0.0
C734 C 1.00308 0.51856 0.12175 0.0
C735 C 1.00166 0.51892 0.21198 0.0
loop_
_geom_bond_atom_site_label_1
_geom_bond_atom_site_label_2
_geom_bond_distance
_geom_bond_site_symmetry_2
_ccdc_geom_bond_type
Zn0 O1 2.055 . S
Zn0 O8 2.046 1_565 S
Zn0 N16 2.036 . S
Zn0 O28 2.053 . S
Zn0 O30 2.066 1_455 S
O1 Zn0 2.055 . S
O1 C4 1.259 1_565 S
C2 O30 1.256 . S
C2 O31 1.244 . S
Zn3 O5 2.046 . S
Zn3 O7 2.055 1_655 S
Zn3 N9 2.036 . S
Zn3 O27 2.066 . S
Zn3 O31 2.053 1_545 S
C4 O1 1.259 1_545 S
C4 O5 1.254 1_455 S
O5 Zn3 2.046 . S
O5 C4 1.254 1_655 S
C6 O27 1.256 1_455 S
C6 O28 1.244 1_545 S
O7 Zn3 2.055 1_455 S
O7 C29 1.259 . S
O8 Zn0 2.046 1_545 S
O8 C29 1.254 . S
N9 Zn3 2.036 . S
N9 C10 1.298 . S
N9 N12 1.398 . S
C10 N9 1.298 . S
C10 N13 1.367 . S
C10 C23 1.481 . S
C11 N12 1.299 . S
C11 N13 1.379 . S
N12 N9 1.398 . S
N12 C11 1.299 . S
N13 C10 1.367 . S
N13 C11 1.379 . S
C14 N16 1.298 . S
C14 N18 1.367 . S
C14 C22 1.481 . S
C15 N17 1.299 . S
C15 N18 1.379 . S
N16 Zn0 2.036 . S
N16 C14 1.298 . S
N16 N17 1.398 . S
N17 C15 1.299 . S
N17 N16 1.398 . S
N18 C14 1.367 . S
N18 C15 1.379 . S
H19 C22 0.980 . S
H20 C22 0.981 . S
H21 C22 0.981 . S
C22 C14 1.481 . S
C22 H19 0.980 . S
C22 H20 0.981 . S
C22 H21 0.981 . S
C23 C10 1.481 . S
C23 H24 0.980 . S
C23 H25 0.981 . S
C23 H26 0.981 . S
H24 C23 0.980 . S
H25 C23 0.981 . S
H26 C23 0.981 . S
O27 Zn3 2.066 . S
O27 C6 1.256 1_655 S
O28 Zn0 2.053 . S
O28 C6 1.244 1_565 S
C29 O7 1.259 . S
C29 O8 1.254 . S
O30 Zn0 2.066 1_655 S
O30 C2 1.256 . S
O31 C2 1.244 . S
O31 Zn3 2.053 1_565 S
Zn32 O33 2.055 . S
Zn32 O40 2.046 . S
Zn32 N48 2.036 . S
Zn32 O60 2.053 . S
Zn32 O62 2.066 . S
O33 Zn32 2.055 . S
O33 C36 1.259 . S
C34 O62 1.256 . S
C34 O63 1.244 . S
Zn35 O37 2.046 . S
Zn35 O39 2.055 . S
Zn35 N41 2.036 . S
Zn35 O59 2.066 . S
Zn35 O63 2.053 . S
C36 O33 1.259 . S
C36 O37 1.254 . S
O37 Zn35 2.046 . S
O37 C36 1.254 . S
C38 O59 1.256 . S
C38 O60 1.244 . S
O39 Zn35 2.055 . S
O39 C61 1.259 . S
O40 Zn32 2.046 . S
O40 C61 1.254 . S
N41 Zn35 2.036 . S
N41 C42 1.298 . S
N41 N44 1.398 . S
C42 N41 1.298 . S
C42 N45 1.367 . S
C42 C55 1.481 . S
C43 N44 1.299 . S
C43 N45 1.379 . S
N44 N41 1.398 . S
N44 C43 1.299 . S
N45 C42 1.367 . S
N45 C43 1.379 . S
C46 N48 1.298 . S
C46 N50 1.367 . S
C46 C54 1.481 . S
C47 N49 1.299 . S
C47 N50 1.379 . S
N48 Zn32 2.036 . S
N48 C46 1.298 . S
N48 N49 1.398 . S
N49 C47 1.299 . S
N49 N48 1.398 . S
N50 C46 1.367 . S
N50 C47 1.379 . S
H51 C54 0.980 . S
H52 C54 0.981 . S
H53 C54 0.981 . S
C54 C46 1.481 . S
C54 H51 0.980 . S
C54 H52 0.981 . S
C54 H53 0.981 . S
C55 C42 1.481 . S
C55 H56 0.980 . S
C55 H57 0.981 . S
C55 H58 0.981 . S
H56 C55 0.980 . S
H57 C55 0.981 . S
H58 C55 0.981 . S
O59 Zn35 2.066 . S
O59 C38 1.256 . S
O60 Zn32 2.053 . S
O60 C38 1.244 . S
C61 O39 1.259 . S
C61 O40 1.254 . S
O62 Zn32 2.066 . S
O62 C34 1.256 . S
O63 C34 1.244 . S
O63 Zn35 2.053 . S
Zn64 O65 2.055 1_556 S
Zn64 O72 2.046 . S
Zn64 N80 2.036 . S
Zn64 O92 2.053 1_545 S
Zn64 O94 2.066 1_556 S
O65 Zn64 2.055 1_554 S
O65 C68 1.259 . S
C66 O94 1.256 . S
C66 O95 1.244 1_545 S
Zn67 O69 2.046 1_566 S
Zn67 O71 2.055 . S
Zn67 N73 2.036 1_556 S
Zn67 O91 2.066 . S
Zn67 O95 2.053 1_556 S
C68 O65 1.259 . S
C68 O69 1.254 . S
O69 Zn67 2.046 1_544 S
O69 C68 1.254 . S
C70 O91 1.256 . S
C70 O92 1.244 . S
O71 Zn67 2.055 . S
O71 C93 1.259 1_565 S
O72 Zn64 2.046 . S
O72 C93 1.254 . S
N73 Zn67 2.036 1_554 S
N73 C74 1.298 1_554 S
N73 N76 1.398 . S
C74 N73 1.298 1_556 S
C74 N77 1.367 . S
C74 C87 1.481 . S
C75 N76 1.299 . S
C75 N77 1.379 1_554 S
N76 N73 1.398 . S
N76 C75 1.299 . S
N77 C74 1.367 . S
N77 C75 1.379 1_556 S
C78 N80 1.298 1_554 S
C78 N82 1.367 . S
C78 C86 1.481 . S
C79 N81 1.299 . S
C79 N82 1.379 1_556 S
N80 Zn64 2.036 . S
N80 C78 1.298 1_556 S
N80 N81 1.398 . S
N81 C79 1.299 . S
N81 N80 1.398 . S
N82 C78 1.367 . S
N82 C79 1.379 1_554 S
H83 C86 0.980 . S
H84 C86 0.981 . S
H85 C86 0.981 . S
C86 C78 1.481 . S
C86 H83 0.980 . S
C86 H84 0.981 . S
C86 H85 0.981 . S
C87 C74 1.481 . S
C87 H88 0.980 . S
C87 H89 0.981 . S
C87 H90 0.981 . S
H88 C87 0.980 . S
H89 C87 0.981 . S
H90 C87 0.981 . S
O91 Zn67 2.066 . S
O91 C70 1.256 . S
O92 Zn64 2.053 1_565 S
O92 C70 1.244 . S
C93 O71 1.259 1_545 S
C93 O72 1.254 . S
O94 Zn64 2.066 1_554 S
O94 C66 1.256 . S
O95 C66 1.244 1_565 S
O95 Zn67 2.053 1_554 S
Zn96 O97 2.055 . S
Zn96 O104 2.046 . S
Zn96 N112 2.036 . S
Zn96 O124 2.053 . S
Zn96 O126 2.066 . S
O97 Zn96 2.055 . S
O97 C100 1.259 . S
C98 O126 1.256 . S
C98 O127 1.244 . S
Zn99 O101 2.046 . S
Zn99 O103 2.055 . S
Zn99 N105 2.036 . S
Zn99 O123 2.066 . S
Zn99 O127 2.053 . S
C100 O97 1.259 . S
C100 O101 1.254 . S
O101 Zn99 2.046 . S
O101 C100 1.254 . S
C102 O123 1.256 . S
C102 O124 1.244 . S
O103 Zn99 2.055 . S
O103 C125 1.259 . S
O104 Zn96 2.046 . S
O104 C125 1.254 . S
N105 Zn99 2.036 . S
N105 C106 1.298 . S
N105 N108 1.398 . S
C106 N105 1.298 . S
C106 N109 1.367 . S
C106 C119 1.481 . S
C107 N108 1.299 . S
C107 N109 1.379 . S
N108 N105 1.398 . S
N108 C107 1.299 . S
N109 C106 1.367 . S
N109 C107 1.379 . S
C110 N112 1.298 . S
C110 N114 1.367 . S
C110 C118 1.481 . S
C111 N113 1.299 . S
C111 N114 1.379 . S
N112 Zn96 2.036 . S
N112 C110 1.298 . S
N112 N113 1.398 . S
N113 C111 1.299 . S
N113 N112 1.398 . S
N114 C110 1.367 . S
N114 C111 1.379 . S
H115 C118 0.980 . S
H116 C118 0.981 . S
H117 C118 0.981 . S
C118 C110 1.481 . S
C118 H115 0.980 . S
C118 H116 0.981 . S
C118 H117 0.981 . S
C119 C106 1.481 . S
C119 H120 0.980 . S
C119 H121 0.981 . S
C119 H122 0.981 . S
H120 C119 0.980 . S
H121 C119 0.981 . S
H122 C119 0.981 . S
O123 Zn99 2.066 . S
O123 C102 1.256 . S
O124 Zn96 2.053 . S
O124 C102 1.244 . S
C125 O103 1.259 . S
C125 O104 1.254 . S
O126 Zn96 2.066 . S
O126 C98 1.256 . S
O127 C98 1.244 . S
O127 Zn99 2.053 . S
Zn128 O129 2.055 . S
Zn128 O136 2.046 . S
Zn128 N144 2.036 . S
Zn128 O156 2.053 . S
Zn128 O158 2.066 . S
O129 Zn128 2.055 . S
O129 C132 1.259 . S
C130 O158 1.256 . S
C130 O159 1.244 . S
Zn131 O133 2.046 . S
Zn131 O135 2.055 . S
Zn131 N137 2.036 . S
Zn131 O155 2.066 . S
Zn131 O159 2.053 . S
C132 O129 1.259 . S
C132 O133 1.254 . S
O133 Zn131 2.046 . S
O133 C132 1.254 . S
C134 O155 1.256 . S
C134 O156 1.244 . S
O135 Zn131 2.055 . S
O135 C157 1.259 . S
O136 Zn128 2.046 . S
O136 C157 1.254 . S
N137 Zn131 2.036 . S
N137 C138 1.298 . S
N137 N140 1.398 . S
C138 N137 1.298 . S
C138 N141 1.367 . S
C138 C151 1.481 . S
C139 N140 1.299 . S
C139 N141 1.379 . S
N140 N137 1.398 . S
N140 C139 1.299 . S
N141 C138 1.367 . S
N141 C139 1.379 . S
C142 N144 1.298 . S
C142 N146 1.367 . S
C142 C150 1.481 . S
C143 N145 1.299 . S
C143 N146 1.379 . S
N144 Zn128 2.036 . S
N144 C142 1.298 . S
N144 N145 1.398 . S
N145 C143 1.299 . S
N145 N144 1.398 . S
N146 C142 1.367 . S
N146 C143 1.379 . S
H147 C150 0.980 . S
H148 C150 0.981 . S
H149 C150 0.981 . S
C150 C142 1.481 . S
C150 H147 0.980 . S
C150 H148 0.981 . S
C150 H149 0.981 . S
C151 C138 1.481 . S
C151 H152 0.980 . S
C151 H153 0.981 . S
C151 H154 0.981 . S
H152 C151 0.980 . S
H153 C151 0.981 . S
H154 C151 0.981 . S
O155 Zn131 2.066 . S
O155 C134 1.256 . S
O156 Zn128 2.053 . S
O156 C134 1.244 . S
C157 O135 1.259 . S
C157 O136 1.254 . S
O158 Zn128 2.066 . S
O158 C130 1.256 . S
O159 C130 1.244 . S
O159 Zn131 2.053 . S
Zn160 O161 2.055 . S
Zn160 O168 2.046 . S
Zn160 N176 2.036 . S
Zn160 O188 2.053 . S
Zn160 O190 2.066 . S
O161 Zn160 2.055 . S
O161 C164 1.259 . S
C162 O190 1.256 . S
C162 O191 1.244 . S
Zn163 O165 2.046 . S
Zn163 O167 2.055 . S
Zn163 N169 2.036 . S
Zn163 O187 2.066 . S
Zn163 O191 2.053 . S
C164 O161 1.259 . S
C164 O165 1.254 . S
O165 Zn163 2.046 . S
O165 C164 1.254 . S
C166 O187 1.256 . S
C166 O188 1.244 . S
O167 Zn163 2.055 . S
O167 C189 1.259 . S
O168 Zn160 2.046 . S
O168 C189 1.254 . S
N169 Zn163 2.036 . S
N169 C170 1.298 . S
N169 N172 1.398 . S
C170 N169 1.298 . S
C170 N173 1.367 . S
C170 C183 1.481 . S
C171 N172 1.299 . S
C171 N173 1.379 . S
N172 N169 1.398 . S
N172 C171 1.299 . S
N173 C170 1.367 . S
N173 C171 1.379 . S
C174 N176 1.298 . S
C174 N178 1.367 . S
C174 C182 1.481 . S
C175 N177 1.299 . S
C175 N178 1.379 . S
N176 Zn160 2.036 . S
N176 C174 1.298 . S
N176 N177 1.398 . S
N177 C175 1.299 . S
N177 N176 1.398 . S
N178 C174 1.367 . S
N178 C175 1.379 . S
H179 C182 0.980 . S
H180 C182 0.981 . S
H181 C182 0.981 . S
C182 C174 1.481 . S
C182 H179 0.980 . S
C182 H180 0.981 . S
C182 H181 0.981 . S
C183 C170 1.481 . S
C183 H184 0.980 . S
C183 H185 0.981 . S
C183 H186 0.981 . S
H184 C183 0.980 . S
H185 C183 0.981 . S
H186 C183 0.981 . S
O187 Zn163 2.066 . S
O187 C166 1.256 . S
O188 Zn160 2.053 . S
O188 C166 1.244 . S
C189 O167 1.259 . S
C189 O168 1.254 . S
O190 Zn160 2.066 . S
O190 C162 1.256 . S
O191 C162 1.244 . S
O191 Zn163 2.053 . S
Zn192 O193 2.055 . S
Zn192 O200 2.046 . S
Zn192 N208 2.036 . S
Zn192 O220 2.053 1_554 S
Zn192 O222 2.066 . S
O193 Zn192 2.055 . S
O193 C196 1.259 . S
C194 O222 1.256 . S
C194 O223 1.244 . S
Zn195 O197 2.046 . S
Zn195 O199 2.055 1_554 S
Zn195 N201 2.036 . S
Zn195 O219 2.066 1_554 S
Zn195 O223 2.053 . S
C196 O193 1.259 . S
C196 O197 1.254 . S
O197 Zn195 2.046 . S
O197 C196 1.254 . S
C198 O219 1.256 . S
C198 O220 1.244 . S
O199 Zn195 2.055 1_556 S
O199 C221 1.259 . S
O200 Zn192 2.046 . S
O200 C221 1.254 1_554 S
N201 Zn195 2.036 . S
N201 C202 1.298 1_554 S
N201 N204 1.398 . S
C202 N201 1.298 1_556 S
C202 N205 1.367 . S
C202 C215 1.481 . S
C203 N204 1.299 . S
C203 N205 1.379 1_554 S
N204 N201 1.398 . S
N204 C203 1.299 . S
N205 C202 1.367 . S
N205 C203 1.379 1_556 S
C206 N208 1.298 . S
C206 N210 1.367 . S
C206 C214 1.481 . S
C207 N209 1.299 . S
C207 N210 1.379 1_556 S
N208 Zn192 2.036 . S
N208 C206 1.298 . S
N208 N209 1.398 1_554 S
N209 C207 1.299 . S
N209 N208 1.398 1_556 S
N210 C206 1.367 . S
N210 C207 1.379 1_554 S
H211 C214 0.980 . S
H212 C214 0.981 . S
H213 C214 0.981 . S
C214 C206 1.481 . S
C214 H211 0.980 . S
C214 H212 0.981 . S
C214 H213 0.981 . S
C215 C202 1.481 . S
C215 H216 0.980 . S
C215 H217 0.981 . S
C215 H218 0.981 . S
H216 C215 0.980 . S
H217 C215 0.981 . S
H218 C215 0.981 . S
O219 Zn195 2.066 1_556 S
O219 C198 1.256 . S
O220 Zn192 2.053 1_556 S
O220 C198 1.244 . S
C221 O199 1.259 . S
C221 O200 1.254 1_556 S
O222 Zn192 2.066 . S
O222 C194 1.256 . S
O223 C194 1.244 . S
O223 Zn195 2.053 . S
Zn224 O225 2.055 . S
Zn224 O232 2.046 . S
Zn224 N240 2.036 . S
Zn224 O252 2.053 . S
Zn224 O254 2.066 1_655 S
O225 Zn224 2.055 . S
O225 C228 1.259 1_655 S
C226 O254 1.256 . S
C226 O255 1.244 . S
Zn227 O229 2.046 . S
Zn227 O231 2.055 1_455 S
Zn227 N233 2.036 . S
Zn227 O251 2.066 . S
Zn227 O255 2.053 . S
C228 O225 1.259 1_455 S
C228 O229 1.254 . S
O229 Zn227 2.046 . S
O229 C228 1.254 . S
C230 O251 1.256 . S
C230 O252 1.244 1_455 S
O231 Zn227 2.055 1_655 S
O231 C253 1.259 . S
O232 Zn224 2.046 . S
O232 C253 1.254 . S
N233 Zn227 2.036 . S
N233 C234 1.298 . S
N233 N236 1.398 . S
C234 N233 1.298 . S
C234 N237 1.367 . S
C234 C247 1.481 . S
C235 N236 1.299 . S
C235 N237 1.379 . S
N236 N233 1.398 . S
N236 C235 1.299 . S
N237 C234 1.367 . S
N237 C235 1.379 . S
C238 N240 1.298 . S
C238 N242 1.367 . S
C238 C246 1.481 . S
C239 N241 1.299 . S
C239 N242 1.379 . S
N240 Zn224 2.036 . S
N240 C238 1.298 . S
N240 N241 1.398 . S
N241 C239 1.299 . S
N241 N240 1.398 . S
N242 C238 1.367 . S
N242 C239 1.379 . S
H243 C246 0.980 . S
H244 C246 0.981 . S
H245 C246 0.981 . S
C246 C238 1.481 . S
C246 H243 0.980 . S
C246 H244 0.981 . S
C246 H245 0.981 . S
C247 C234 1.481 . S
C247 H248 0.980 . S
C247 H249 0.981 . S
C247 H250 0.981 . S
H248 C247 0.980 . S
H249 C247 0.981 . S
H250 C247 0.981 . S
O251 Zn227 2.066 . S
O251 C230 1.256 . S
O252 Zn224 2.053 . S
O252 C230 1.244 1_655 S
C253 O231 1.259 . S
C253 O232 1.254 . S
O254 Zn224 2.066 1_455 S
O254 C226 1.256 . S
O255 C226 1.244 . S
O255 Zn227 2.053 . S
H256 C264 0.950 . S
H257 C269 0.950 . S
H258 C266 0.950 . S
H259 C268 0.950 . S
H260 C270 0.950 . S
H261 C272 0.950 . S
H262 C274 0.950 . S
H263 C275 0.950 . S
C264 H256 0.950 . S
C264 C265 1.386 . S
C264 C266 1.391 . S
C265 C264 1.386 . S
C265 C269 1.393 . S
C266 H258 0.950 . S
C266 C264 1.391 . S
C266 C267 1.400 . S
C267 C266 1.400 . S
C267 C268 1.398 . S
C267 C273 1.491 . S
C268 H259 0.950 . S
C268 C267 1.398 . S
C268 C269 1.391 . S
C269 H257 0.950 . S
C269 C265 1.393 . S
C269 C268 1.391 . S
C270 H260 0.950 . S
C270 C271 1.386 . S
C270 C272 1.391 . S
C271 C270 1.386 . S
C271 C275 1.393 . S
C272 H261 0.950 . S
C272 C270 1.391 . S
C272 C273 1.400 . S
C273 C267 1.491 . S
C273 C272 1.400 . S
C273 C274 1.398 . S
C274 H262 0.950 . S
C274 C273 1.398 . S
C274 C275 1.391 . S
C275 H263 0.950 . S
C275 C271 1.393 . S
C275 C274 1.391 . S
H276 C284 0.950 . S
H277 C289 0.950 . S
H278 C286 0.950 . S
H279 C288 0.950 . S
H280 C290 0.950 . S
H281 C292 0.950 . S
H282 C294 0.950 . S
H283 C295 0.950 . S
C284 H276 0.950 . S
C284 C285 1.386 . S
C284 C286 1.391 . S
C285 C284 1.386 . S
C285 C289 1.393 . S
C286 H278 0.950 . S
C286 C284 1.391 . S
C286 C287 1.400 . S
C287 C286 1.400 . S
C287 C288 1.398 . S
C287 C293 1.491 . S
C288 H279 0.950 . S
C288 C287 1.398 . S
C288 C289 1.391 . S
C289 H277 0.950 . S
C289 C285 1.393 . S
C289 C288 1.391 . S
C290 H280 0.950 . S
C290 C291 1.386 . S
C290 C292 1.391 . S
C291 C290 1.386 . S
C291 C295 1.393 . S
C292 H281 0.950 . S
C292 C290 1.391 . S
C292 C293 1.400 . S
C293 C287 1.491 . S
C293 C292 1.400 . S
C293 C294 1.398 . S
C294 H282 0.950 . S
C294 C293 1.398 . S
C294 C295 1.391 . S
C295 H283 0.950 . S
C295 C291 1.393 . S
C295 C294 1.391 . S
H296 C304 0.950 . S
H297 C309 0.950 . S
H298 C306 0.950 . S
H299 C308 0.950 . S
H300 C310 0.950 . S
H301 C312 0.950 . S
H302 C314 0.950 . S
H303 C315 0.950 1_554 S
C304 H296 0.950 . S
C304 C305 1.386 . S
C304 C306 1.391 . S
C305 C304 1.386 . S
C305 C309 1.393 . S
C306 H298 0.950 . S
C306 C304 1.391 . S
C306 C307 1.400 . S
C307 C306 1.400 . S
C307 C308 1.398 . S
C307 C313 1.491 . S
C308 H299 0.950 . S
C308 C307 1.398 . S
C308 C309 1.391 . S
C309 H297 0.950 . S
C309 C305 1.393 . S
C309 C308 1.391 . S
C310 H300 0.950 . S
C310 C311 1.386 . S
C310 C312 1.391 . S
C311 C310 1.386 . S
C311 C315 1.393 . S
C312 H301 0.950 . S
C312 C310 1.391 . S
C312 C313 1.400 . S
C313 C307 1.491 . S
C313 C312 1.400 . S
C313 C314 1.398 . S
C314 H302 0.950 . S
C314 C313 1.398 . S
C314 C315 1.391 . S
C315 H303 0.950 1_556 S
C315 C311 1.393 . S
C315 C314 1.391 . S
H316 C324 0.950 . S
H317 C329 0.950 1_556 S
H318 C326 0.950 . S
H319 C328 0.950 1_556 S
H320 C330 0.950 . S
H321 C332 0.950 . S
H322 C334 0.950 . S
H323 C335 0.950 . S
C324 H316 0.950 . S
C324 C325 1.386 . S
C324 C326 1.391 . S
C325 C324 1.386 . S
C325 C329 1.393 . S
C326 H318 0.950 . S
C326 C324 1.391 . S
C326 C327 1.400 . S
C327 C326 1.400 . S
C327 C328 1.398 . S
C327 C333 1.491 . S
C328 H319 0.950 1_554 S
C328 C327 1.398 . S
C328 C329 1.391 . S
C329 H317 0.950 1_554 S
C329 C325 1.393 . S
C329 C328 1.391 . S
C330 H320 0.950 . S
C330 C331 1.386 . S
C330 C332 1.391 . S
C331 C330 1.386 . S
C331 C335 1.393 . S
C332 H321 0.950 . S
C332 C330 1.391 . S
C332 C333 1.400 . S
C333 C327 1.491 . S
C333 C332 1.400 . S
C333 C334 1.398 . S
C334 H322 0.950 . S
C334 C333 1.398 . S
C334 C335 1.391 . S
C335 H323 0.950 . S
C335 C331 1.393 . S
C335 C334 1.391 . S
H336 C344 0.950 . S
H337 C349 0.950 . S
H338 C346 0.950 . S
H339 C348 0.950 . S
H340 C350 0.950 . S
H341 C352 0.950 . S
H342 C354 0.950 . S
H343 C355 0.950 . S
C344 H336 0.950 . S
C344 C345 1.386 . S
C344 C346 1.391 . S
C345 C344 1.386 . S
C345 C349 1.393 . S
C346 H338 0.950 . S
C346 C344 1.391 . S
C346 C347 1.400 . S
C347 C346 1.400 . S
C347 C348 1.398 . S
C347 C353 1.491 . S
C348 H339 0.950 . S
C348 C347 1.398 . S
C348 C349 1.391 . S
C349 H337 0.950 . S
C349 C345 1.393 . S
C349 C348 1.391 . S
C350 H340 0.950 . S
C350 C351 1.386 . S
C350 C352 1.391 . S
C351 C350 1.386 . S
C351 C355 1.393 . S
C352 H341 0.950 . S
C352 C350 1.391 . S
C352 C353 1.400 . S
C353 C347 1.491 . S
C353 C352 1.400 . S
C353 C354 1.398 . S
C354 H342 0.950 . S
C354 C353 1.398 . S
C354 C355 1.391 . S
C355 H343 0.950 . S
C355 C351 1.393 . S
C355 C354 1.391 . S
H356 C364 0.950 . S
H357 C369 0.950 . S
H358 C366 0.950 . S
H359 C368 0.950 . S
H360 C370 0.950 . S
H361 C372 0.950 . S
H362 C374 0.950 . S
H363 C375 0.950 . S
C364 H356 0.950 . S
C364 C365 1.386 . S
C364 C366 1.391 . S
C365 C364 1.386 . S
C365 C369 1.393 . S
C366 H358 0.950 . S
C366 C364 1.391 . S
C366 C367 1.400 . S
C367 C366 1.400 . S
C367 C368 1.398 . S
C367 C373 1.491 . S
C368 H359 0.950 . S
C368 C367 1.398 . S
C368 C369 1.391 . S
C369 H357 0.950 . S
C369 C365 1.393 . S
C369 C368 1.391 . S
C370 H360 0.950 . S
C370 C371 1.386 . S
C370 C372 1.391 . S
C371 C370 1.386 . S
C371 C375 1.393 . S
C372 H361 0.950 . S
C372 C370 1.391 . S
C372 C373 1.400 . S
C373 C367 1.491 . S
C373 C372 1.400 . S
C373 C374 1.398 . S
C374 H362 0.950 . S
C374 C373 1.398 . S
C374 C375 1.391 . S
C375 H363 0.950 . S
C375 C371 1.393 . S
C375 C374 1.391 . S
H376 C384 0.950 . S
H377 C389 0.950 . S
H378 C386 0.950 . S
H379 C388 0.950 . S
H380 C390 0.950 1_556 S
H381 C392 0.950 . S
H382 C394 0.950 . S
H383 C395 0.950 . S
C384 H376 0.950 . S
C384 C385 1.386 . S
C384 C386 1.391 . S
C385 C384 1.386 . S
C385 C389 1.393 . S
C386 H378 0.950 . S
C386 C384 1.391 . S
C386 C387 1.400 . S
C387 C386 1.400 . S
C387 C388 1.398 . S
C387 C393 1.491 . S
C388 H379 0.950 . S
C388 C387 1.398 . S
C388 C389 1.391 . S
C389 H377 0.950 . S
C389 C385 1.393 . S
C389 C388 1.391 . S
C390 H380 0.950 1_554 S
C390 C391 1.386 . S
C390 C392 1.391 . S
C391 C390 1.386 . S
C391 C395 1.393 . S
C392 H381 0.950 . S
C392 C390 1.391 . S
C392 C393 1.400 . S
C393 C387 1.491 . S
C393 C392 1.400 . S
C393 C394 1.398 . S
C394 H382 0.950 . S
C394 C393 1.398 . S
C394 C395 1.391 . S
C395 H383 0.950 . S
C395 C391 1.393 . S
C395 C394 1.391 . S
H396 C404 0.950 . S
H397 C409 0.950 . S
H398 C406 0.950 . S
H399 C408 0.950 1_554 S
H400 C410 0.950 . S
H401 C412 0.950 1_554 S
H402 C414 0.950 . S
H403 C415 0.950 . S
C404 H396 0.950 . S
C404 C405 1.386 . S
C404 C406 1.391 . S
C405 C404 1.386 . S
C405 C409 1.393 . S
C406 H398 0.950 . S
C406 C404 1.391 . S
C406 C407 1.400 . S
C407 C406 1.400 . S
C407 C408 1.398 . S
C407 C413 1.491 . S
C408 H399 0.950 1_556 S
C408 C407 1.398 . S
C408 C409 1.391 . S
C409 H397 0.950 . S
C409 C405 1.393 . S
C409 C408 1.391 . S
C410 H400 0.950 . S
C410 C411 1.386 1_554 S
C410 C412 1.391 1_554 S
C411 C410 1.386 1_556 S
C411 C415 1.393 . S
C412 H401 0.950 1_556 S
C412 C410 1.391 1_556 S
C412 C413 1.400 . S
C413 C407 1.491 . S
C413 C412 1.400 . S
C413 C414 1.398 . S
C414 H402 0.950 . S
C414 C413 1.398 . S
C414 C415 1.391 . S
C415 H403 0.950 . S
C415 C411 1.393 . S
C415 C414 1.391 . S
H416 C424 0.950 . S
H417 C429 0.950 1_554 S
H418 C426 0.950 . S
H419 C428 0.950 1_554 S
H420 C430 0.950 . S
H421 C432 0.950 . S
H422 C434 0.950 . S
H423 C435 0.950 . S
C424 H416 0.950 . S
C424 C425 1.386 . S
C424 C426 1.391 . S
C425 C424 1.386 . S
C425 C429 1.393 . S
C426 H418 0.950 . S
C426 C424 1.391 . S
C426 C427 1.400 . S
C427 C426 1.400 . S
C427 C428 1.398 . S
C427 C433 1.491 . S
C428 H419 0.950 1_556 S
C428 C427 1.398 . S
C428 C429 1.391 . S
C429 H417 0.950 1_556 S
C429 C425 1.393 . S
C429 C428 1.391 . S
C430 H420 0.950 . S
C430 C431 1.386 . S
C430 C432 1.391 . S
C431 C430 1.386 . S
C431 C435 1.393 . S
C432 H421 0.950 . S
C432 C430 1.391 . S
C432 C433 1.400 . S
C433 C427 1.491 . S
C433 C432 1.400 . S
C433 C434 1.398 . S
C434 H422 0.950 . S
C434 C433 1.398 . S
C434 C435 1.391 . S
C435 H423 0.950 . S
C435 C431 1.393 . S
C435 C434 1.391 . S
H436 C444 0.950 . S
H437 C449 0.950 . S
H438 C446 0.950 . S
H439 C448 0.950 . S
H440 C450 0.950 . S
H441 C452 0.950 . S
H442 C454 0.950 1_556 S
H443 C455 0.950 1_556 S
C444 H436 0.950 . S
C444 C445 1.386 . S
C444 C446 1.391 . S
C445 C444 1.386 . S
C445 C449 1.393 . S
C446 H438 0.950 . S
C446 C444 1.391 . S
C446 C447 1.400 . S
C447 C446 1.400 . S
C447 C448 1.398 . S
C447 C453 1.491 . S
C448 H439 0.950 . S
C448 C447 1.398 . S
C448 C449 1.391 . S
C449 H437 0.950 . S
C449 C445 1.393 . S
C449 C448 1.391 . S
C450 H440 0.950 . S
C450 C451 1.386 . S
C450 C452 1.391 . S
C451 C450 1.386 . S
C451 C455 1.393 . S
C452 H441 0.950 . S
C452 C450 1.391 . S
C452 C453 1.400 . S
C453 C447 1.491 . S
C453 C452 1.400 . S
C453 C454 1.398 . S
C454 H442 0.950 1_554 S
C454 C453 1.398 . S
C454 C455 1.391 . S
C455 H443 0.950 1_554 S
C455 C451 1.393 . S
C455 C454 1.391 . S
H456 C464 0.950 . S
H457 C469 0.950 . S
H458 C466 0.950 . S
H459 C468 0.950 . S
H460 C470 0.950 . S
H461 C472 0.950 . S
H462 C474 0.950 . S
H463 C475 0.950 . S
C464 H456 0.950 . S
C464 C465 1.386 . S
C464 C466 1.391 . S
C465 C464 1.386 . S
C465 C469 1.393 . S
C466 H458 0.950 . S
C466 C464 1.391 . S
C466 C467 1.400 . S
C467 C466 1.400 . S
C467 C468 1.398 . S
C467 C473 1.491 . S
C468 H459 0.950 . S
C468 C467 1.398 . S
C468 C469 1.391 . S
C469 H457 0.950 . S
C469 C465 1.393 . S
C469 C468 1.391 . S
C470 H460 0.950 . S
C470 C471 1.386 . S
C470 C472 1.391 . S
C471 C470 1.386 . S
C471 C475 1.393 . S
C472 H461 0.950 . S
C472 C470 1.391 . S
C472 C473 1.400 . S
C473 C467 1.491 . S
C473 C472 1.400 . S
C473 C474 1.398 . S
C474 H462 0.950 . S
C474 C473 1.398 . S
C474 C475 1.391 . S
C475 H463 0.950 . S
C475 C471 1.393 . S
C475 C474 1.391 . S
H476 C484 0.950 . S
H477 C489 0.950 . S
H478 C486 0.950 . S
H479 C488 0.950 . S
H480 C490 0.950 . S
H481 C492 0.950 . S
H482 C494 0.950 . S
H483 C495 0.950 . S
C484 H476 0.950 . S
C484 C485 1.386 . S
C484 C486 1.391 . S
C485 C484 1.386 . S
C485 C489 1.393 . S
C486 H478 0.950 . S
C486 C484 1.391 . S
C486 C487 1.400 . S
C487 C486 1.400 . S
C487 C488 1.398 . S
C487 C493 1.491 . S
C488 H479 0.950 . S
C488 C487 1.398 . S
C488 C489 1.391 . S
C489 H477 0.950 . S
C489 C485 1.393 . S
C489 C488 1.391 . S
C490 H480 0.950 . S
C490 C491 1.386 . S
C490 C492 1.391 . S
C491 C490 1.386 . S
C491 C495 1.393 . S
C492 H481 0.950 . S
C492 C490 1.391 . S
C492 C493 1.400 . S
C493 C487 1.491 . S
C493 C492 1.400 . S
C493 C494 1.398 . S
C494 H482 0.950 . S
C494 C493 1.398 . S
C494 C495 1.391 . S
C495 H483 0.950 . S
C495 C491 1.393 . S
C495 C494 1.391 . S
H496 C504 0.950 . S
H497 C509 0.950 . S
H498 C506 0.950 . S
H499 C508 0.950 . S
H500 C510 0.950 . S
H501 C512 0.950 . S
H502 C514 0.950 . S
H503 C515 0.950 . S
C504 H496 0.950 . S
C504 C505 1.386 . S
C504 C506 1.391 . S
C505 C504 1.386 . S
C505 C509 1.393 . S
C506 H498 0.950 . S
C506 C504 1.391 . S
C506 C507 1.400 . S
C507 C506 1.400 . S
C507 C508 1.398 . S
C507 C513 1.491 . S
C508 H499 0.950 . S
C508 C507 1.398 . S
C508 C509 1.391 . S
C509 H497 0.950 . S
C509 C505 1.393 . S
C509 C508 1.391 . S
C510 H500 0.950 . S
C510 C511 1.386 . S
C510 C512 1.391 . S
C511 C510 1.386 . S
C511 C515 1.393 . S
C512 H501 0.950 . S
C512 C510 1.391 . S
C512 C513 1.400 . S
C513 C507 1.491 . S
C513 C512 1.400 . S
C513 C514 1.398 . S
C514 H502 0.950 . S
C514 C513 1.398 . S
C514 C515 1.391 . S
C515 H503 0.950 . S
C515 C511 1.393 . S
C515 C514 1.391 . S
H516 C524 0.950 . S
H517 C529 0.950 . S
H518 C526 0.950 . S
H519 C528 0.950 . S
H520 C530 0.950 . S
H521 C532 0.950 . S
H522 C534 0.950 . S
H523 C535 0.950 . S
C524 H516 0.950 . S
C524 C525 1.386 . S
C524 C526 1.391 . S
C525 C524 1.386 . S
C525 C529 1.393 . S
C526 H518 0.950 . S
C526 C524 1.391 . S
C526 C527 1.400 . S
C527 C526 1.400 . S
C527 C528 1.398 . S
C527 C533 1.491 . S
C528 H519 0.950 . S
C528 C527 1.398 . S
C528 C529 1.391 . S
C529 H517 0.950 . S
C529 C525 1.393 . S
C529 C528 1.391 . S
C530 H520 0.950 . S
C530 C531 1.386 . S
C530 C532 1.391 . S
C531 C530 1.386 . S
C531 C535 1.393 . S
C532 H521 0.950 . S
C532 C530 1.391 . S
C532 C533 1.400 . S
C533 C527 1.491 . S
C533 C532 1.400 . S
C533 C534 1.398 . S
C534 H522 0.950 . S
C534 C533 1.398 . S
C534 C535 1.391 . S
C535 H523 0.950 . S
C535 C531 1.393 . S
C535 C534 1.391 . S
H536 C544 0.950 . S
H537 C549 0.950 . S
H538 C546 0.950 . S
H539 C548 0.950 . S
H540 C550 0.950 . S
H541 C552 0.950 . S
H542 C554 0.950 . S
H543 C555 0.950 . S
C544 H536 0.950 . S
C544 C545 1.386 . S
C544 C546 1.391 . S
C545 C544 1.386 . S
C545 C549 1.393 . S
C546 H538 0.950 . S
C546 C544 1.391 . S
C546 C547 1.400 . S
C547 C546 1.400 . S
C547 C548 1.398 . S
C547 C553 1.491 . S
C548 H539 0.950 . S
C548 C547 1.398 . S
C548 C549 1.391 . S
C549 H537 0.950 . S
C549 C545 1.393 . S
C549 C548 1.391 . S
C550 H540 0.950 . S
C550 C551 1.386 . S
C550 C552 1.391 . S
C551 C550 1.386 . S
C551 C555 1.393 . S
C552 H541 0.950 . S
C552 C550 1.391 . S
C552 C553 1.400 . S
C553 C547 1.491 . S
C553 C552 1.400 . S
C553 C554 1.398 . S
C554 H542 0.950 . S
C554 C553 1.398 . S
C554 C555 1.391 . S
C555 H543 0.950 . S
C555 C551 1.393 . S
C555 C554 1.391 . S
H556 C564 0.950 . S
H557 C569 0.950 . S
H558 C566 0.950 . S
H559 C568 0.950 . S
H560 C570 0.950 . S
H561 C572 0.950 . S
H562 C574 0.950 . S
H563 C575 0.950 . S
C564 H556 0.950 . S
C564 C565 1.386 . S
C564 C566 1.391 . S
C565 C564 1.386 . S
C565 C569 1.393 . S
C566 H558 0.950 . S
C566 C564 1.391 . S
C566 C567 1.400 . S
C567 C566 1.400 . S
C567 C568 1.398 . S
C567 C573 1.491 . S
C568 H559 0.950 . S
C568 C567 1.398 . S
C568 C569 1.391 . S
C569 H557 0.950 . S
C569 C565 1.393 . S
C569 C568 1.391 . S
C570 H560 0.950 . S
C570 C571 1.386 . S
C570 C572 1.391 . S
C571 C570 1.386 . S
C571 C575 1.393 . S
C572 H561 0.950 . S
C572 C570 1.391 . S
C572 C573 1.400 . S
C573 C567 1.491 . S
C573 C572 1.400 . S
C573 C574 1.398 . S
C574 H562 0.950 . S
C574 C573 1.398 . S
C574 C575 1.391 . S
C575 H563 0.950 . S
C575 C571 1.393 . S
C575 C574 1.391 . S
H576 C584 0.950 . S
H577 C589 0.950 . S
H578 C586 0.950 . S
H579 C588 0.950 . S
H580 C590 0.950 . S
H581 C592 0.950 . S
H582 C594 0.950 . S
H583 C595 0.950 . S
C584 H576 0.950 . S
C584 C585 1.392 1_565 S
C584 C586 1.391 . S
C585 C584 1.392 1_545 S
C585 C589 1.388 1_455 S
C586 H578 0.950 . S
C586 C584 1.391 . S
C586 C587 1.400 1_565 S
C587 C586 1.400 1_545 S
C587 C588 1.398 1_455 S
C587 C593 1.491 1_556 S
C588 H579 0.950 . S
C588 C587 1.398 1_655 S
C588 C589 1.391 . S
C589 H577 0.950 . S
C589 C585 1.388 1_655 S
C589 C588 1.391 . S
C590 H580 0.950 . S
C590 C591 1.386 1_655 S
C590 C592 1.391 . S
C591 C590 1.386 1_455 S
C591 C595 1.393 1_545 S
C592 H581 0.950 . S
C592 C590 1.391 . S
C592 C593 1.400 1_655 S
C593 C587 1.491 1_554 S
C593 C592 1.400 1_455 S
C593 C594 1.398 1_545 S
C594 H582 0.950 . S
C594 C593 1.398 1_565 S
C594 C595 1.391 . S
C595 H583 0.950 . S
C595 C591 1.393 1_565 S
C595 C594 1.391 . S
H596 C604 0.950 . S
H597 C609 0.950 . S
H598 C606 0.950 . S
H599 C608 0.950 . S
H600 C610 0.950 . S
H601 C612 0.950 . S
H602 C614 0.950 . S
H603 C615 0.950 . S
C604 H596 0.950 . S
C604 C605 1.386 . S
C604 C606 1.391 . S
C605 C604 1.386 . S
C605 C609 1.393 . S
C606 H598 0.950 . S
C606 C604 1.391 . S
C606 C607 1.400 . S
C607 C606 1.400 . S
C607 C608 1.398 . S
C607 C613 1.491 . S
C608 H599 0.950 . S
C608 C607 1.398 . S
C608 C609 1.391 . S
C609 H597 0.950 . S
C609 C605 1.393 . S
C609 C608 1.391 . S
C610 H600 0.950 . S
C610 C611 1.386 . S
C610 C612 1.391 . S
C611 C610 1.386 . S
C611 C615 1.393 . S
C612 H601 0.950 . S
C612 C610 1.391 . S
C612 C613 1.400 . S
C613 C607 1.491 . S
C613 C612 1.400 . S
C613 C614 1.398 . S
C614 H602 0.950 . S
C614 C613 1.398 . S
C614 C615 1.391 . S
C615 H603 0.950 . S
C615 C611 1.393 . S
C615 C614 1.391 . S
H616 C624 0.950 . S
H617 C629 0.950 . S
H618 C626 0.950 1_565 S
H619 C628 0.950 . S
H620 C630 0.950 . S
H621 C632 0.950 . S
H622 C634 0.950 . S
H623 C635 0.950 . S
C624 H616 0.950 . S
C624 C625 1.386 . S
C624 C626 1.391 . S
C625 C624 1.386 . S
C625 C629 1.393 . S
C626 H618 0.950 1_545 S
C626 C624 1.391 . S
C626 C627 1.400 . S
C627 C626 1.400 . S
C627 C628 1.398 . S
C627 C633 1.491 . S
C628 H619 0.950 . S
C628 C627 1.398 . S
C628 C629 1.391 . S
C629 H617 0.950 . S
C629 C625 1.393 . S
C629 C628 1.391 . S
C630 H620 0.950 . S
C630 C631 1.386 . S
C630 C632 1.391 . S
C631 C630 1.386 . S
C631 C635 1.393 1_545 S
C632 H621 0.950 . S
C632 C630 1.391 . S
C632 C633 1.400 . S
C633 C627 1.491 . S
C633 C632 1.400 . S
C633 C634 1.398 1_545 S
C634 H622 0.950 . S
C634 C633 1.398 1_565 S
C634 C635 1.391 . S
C635 H623 0.950 . S
C635 C631 1.393 1_565 S
C635 C634 1.391 . S
H636 C644 0.950 . S
H637 C649 0.950 . S
H638 C646 0.950 . S
H639 C648 0.950 . S
H640 C650 0.950 . S
H641 C652 0.950 . S
H642 C654 0.950 . S
H643 C655 0.950 . S
C644 H636 0.950 . S
C644 C645 1.386 . S
C644 C646 1.391 . S
C645 C644 1.386 . S
C645 C649 1.393 . S
C646 H638 0.950 . S
C646 C644 1.391 . S
C646 C647 1.400 . S
C647 C646 1.400 . S
C647 C648 1.398 . S
C647 C653 1.491 . S
C648 H639 0.950 . S
C648 C647 1.398 . S
C648 C649 1.391 . S
C649 H637 0.950 . S
C649 C645 1.393 . S
C649 C648 1.391 . S
C650 H640 0.950 . S
C650 C651 1.386 . S
C650 C652 1.391 . S
C651 C650 1.386 . S
C651 C655 1.393 . S
C652 H641 0.950 . S
C652 C650 1.391 . S
C652 C653 1.400 . S
C653 C647 1.491 . S
C653 C652 1.400 . S
C653 C654 1.398 . S
C654 H642 0.950 . S
C654 C653 1.398 . S
C654 C655 1.391 . S
C655 H643 0.950 . S
C655 C651 1.393 . S
C655 C654 1.391 . S
H656 C664 0.950 1_554 S
H657 C669 0.950 . S
H658 C666 0.950 . S
H659 C668 0.950 . S
H660 C670 0.950 . S
H661 C672 0.950 . S
H662 C674 0.950 . S
H663 C675 0.950 . S
C664 H656 0.950 1_556 S
C664 C665 1.386 1_556 S
C664 C666 1.391 . S
C665 C664 1.386 1_554 S
C665 C669 1.393 1_554 S
C666 H658 0.950 . S
C666 C664 1.391 . S
C666 C667 1.400 . S
C667 C666 1.400 . S
C667 C668 1.398 . S
C667 C673 1.491 . S
C668 H659 0.950 . S
C668 C667 1.398 . S
C668 C669 1.391 . S
C669 H657 0.950 . S
C669 C665 1.393 1_556 S
C669 C668 1.391 . S
C670 H660 0.950 . S
C670 C671 1.386 . S
C670 C672 1.391 . S
C671 C670 1.386 . S
C671 C675 1.393 . S
C672 H661 0.950 . S
C672 C670 1.391 . S
C672 C673 1.400 . S
C673 C667 1.491 . S
C673 C672 1.400 . S
C673 C674 1.398 . S
C674 H662 0.950 . S
C674 C673 1.398 . S
C674 C675 1.391 . S
C675 H663 0.950 . S
C675 C671 1.393 . S
C675 C674 1.391 . S
H676 C684 0.950 . S
H677 C689 0.950 . S
H678 C686 0.950 . S
H679 C688 0.950 . S
H680 C690 0.950 1_556 S
H681 C692 0.950 . S
H682 C694 0.950 . S
H683 C695 0.950 . S
C684 H676 0.950 . S
C684 C685 1.386 . S
C684 C686 1.391 . S
C685 C684 1.386 . S
C685 C689 1.393 . S
C686 H678 0.950 . S
C686 C684 1.391 . S
C686 C687 1.400 . S
C687 C686 1.400 . S
C687 C688 1.398 . S
C687 C693 1.491 . S
C688 H679 0.950 . S
C688 C687 1.398 . S
C688 C689 1.391 . S
C689 H677 0.950 . S
C689 C685 1.393 . S
C689 C688 1.391 . S
C690 H680 0.950 1_554 S
C690 C691 1.386 . S
C690 C692 1.391 . S
C691 C690 1.386 . S
C691 C695 1.393 . S
C692 H681 0.950 . S
C692 C690 1.391 . S
C692 C693 1.400 . S
C693 C687 1.491 . S
C693 C692 1.400 . S
C693 C694 1.398 . S
C694 H682 0.950 . S
C694 C693 1.398 . S
C694 C695 1.391 . S
C695 H683 0.950 . S
C695 C691 1.393 . S
C695 C694 1.391 . S
H696 C704 0.950 . S
H697 C709 0.950 . S
H698 C706 0.950 . S
H699 C708 0.950 . S
H700 C710 0.950 . S
H701 C712 0.950 . S
H702 C714 0.950 . S
H703 C715 0.950 . S
C704 H696 0.950 . S
C704 C705 1.386 . S
C704 C706 1.391 . S
C705 C704 1.386 . S
C705 C709 1.393 . S
C706 H698 0.950 . S
C706 C704 1.391 . S
C706 C707 1.400 . S
C707 C706 1.400 . S
C707 C708 1.398 . S
C707 C713 1.491 . S
C708 H699 0.950 . S
C708 C707 1.398 . S
C708 C709 1.391 . S
C709 H697 0.950 . S
C709 C705 1.393 . S
C709 C708 1.391 . S
C710 H700 0.950 . S
C710 C711 1.386 . S
C710 C712 1.391 . S
C711 C710 1.386 . S
C711 C715 1.393 . S
C712 H701 0.950 . S
C712 C710 1.391 . S
C712 C713 1.400 . S
C713 C707 1.491 . S
C713 C712 1.400 . S
C713 C714 1.398 . S
C714 H702 0.950 . S
C714 C713 1.398 . S
C714 C715 1.391 . S
C715 H703 0.950 . S
C715 C711 1.393 . S
C715 C714 1.391 . S
H716 C724 0.950 . S
H717 C729 0.950 . S
H718 C726 0.950 . S
H719 C728 0.950 . S
H720 C730 0.950 . S
H721 C732 0.950 . S
H722 C734 0.950 . S
H723 C735 0.950 . S
C724 H716 0.950 . S
C724 C725 1.386 . S
C724 C726 1.391 . S
C725 C724 1.386 . S
C725 C729 1.393 1_455 S
C726 H718 0.950 . S
C726 C724 1.391 . S
C726 C727 1.400 . S
C727 C726 1.400 . S
C727 C728 1.398 1_455 S
C727 C733 1.491 1_556 S
C728 H719 0.950 . S
C728 C727 1.398 1_655 S
C728 C729 1.391 . S
C729 H717 0.950 . S
C729 C725 1.393 1_655 S
C729 C728 1.391 . S
C730 H720 0.950 . S
C730 C731 1.386 1_655 S
C730 C732 1.391 . S
C731 C730 1.386 1_455 S
C731 C735 1.393 . S
C732 H721 0.950 . S
C732 C730 1.391 . S
C732 C733 1.400 1_655 S
C733 C727 1.491 1_554 S
C733 C732 1.400 1_455 S
C733 C734 1.398 . S
C734 H722 0.950 . S
C734 C733 1.398 . S
C734 C735 1.391 . S
C735 H723 0.950 . S
C735 C731 1.393 . S
C735 C734 1.391 . S
C265 C29 2.706 . S
C271 C125 2.706 . S
C285 N18 1.478 . S
C291 C36 1.535 . S
C305 N45 0.666 . S
C311 N77 0.647 . S
C325 C68 1.536 . S
C331 N114 1.482 . S
C345 C2 3.054 . S
C351 C162 3.054 . S
C365 N13 1.443 . S
C371 C134 1.492 . S
C385 N146 0.345 . S
C391 N82 0.308 . S
C405 N173 1.463 . S
C411 C70 1.493 . S
C425 C221 2.705 . S
C431 C189 2.704 . S
C445 C132 1.535 . S
C451 N210 1.477 . S
C465 N242 0.664 . S
C471 N141 0.650 . S
C485 N178 1.480 . S
C491 C253 1.534 . S
C505 C98 3.054 . S
C511 C194 3.053 . S
C525 N205 1.445 . S
C531 C38 1.492 . S
C545 N50 0.303 . S
C551 N237 0.345 . S
C565 N109 1.444 . S
C571 C226 1.492 . S
C585 C4 1.345 . S
C591 C6 1.352 . S
C605 C34 1.382 . S
C611 C61 1.380 1_554 S
C625 C93 1.379 . S
C631 C66 1.381 . S
C645 C100 1.352 1_556 S
C651 C102 1.358 . S
C665 C130 1.372 . S
C671 C157 1.375 . S
C685 C164 1.351 . S
C691 C166 1.357 1_554 S
C705 C198 1.354 . S
C711 C196 1.347 . S
C725 C230 1.372 . S
C731 C228 1.374 . S
