# Generated by pormake.
# Topology unw, (4)-cn, num edge types: 1
# Building blocks:
#     Node 0, Type 0, BuildingBlock: QUQFOY_clean_sbu_1, # of connection points: 4
#     Node 1, Type 0, BuildingBlock: QUQFOY_clean_sbu_1, # of connection points: 4
#     Node 2, Type 0, BuildingBlock: QUQFOY_clean_sbu_1, # of connection points: 4
#     Node 3, Type 0, BuildingBlock: QUQFOY_clean_sbu_1, # of connection points: 4
#     Node 4, Type 0, BuildingBlock: QUQFOY_clean_sbu_1, # of connection points: 4
#     Node 5, Type 0, BuildingBlock: QUQFOY_clean_sbu_1, # of connection points: 4
#     Node 6, Type 0, BuildingBlock: QUQFOY_clean_sbu_1, # of connection points: 4
#     Node 7, Type 0, BuildingBlock: QUQFOY_clean_sbu_1, # of connection points: 4
#     Node 8, Type 0, BuildingBlock: QUQFOY_clean_sbu_1, # of connection points: 4
#     Node 9, Type 0, BuildingBlock: QUQFOY_clean_sbu_1, # of connection points: 4
#     Node 10, Type 0, BuildingBlock: QUQFOY_clean_sbu_1, # of connection points: 4
#     Node 11, Type 0, BuildingBlock: QUQFOY_clean_sbu_1, # of connection points: 4
#     Node 12, Type 0, BuildingBlock: QUQFOY_clean_sbu_1, # of connection points: 4
#     Node 13, Type 0, BuildingBlock: QUQFOY_clean_sbu_1, # of connection points: 4
#     Node 14, Type 0, BuildingBlock: QUQFOY_clean_sbu_1, # of connection points: 4
#     Node 15, Type 0, BuildingBlock: QUQFOY_clean_sbu_1, # of connection points: 4
#     Node 16, Type 0, BuildingBlock: QUQFOY_clean_sbu_1, # of connection points: 4
#     Node 17, Type 0, BuildingBlock: QUQFOY_clean_sbu_1, # of connection points: 4
#     Node 18, Type 0, BuildingBlock: QUQFOY_clean_sbu_1, # of connection points: 4
#     Node 19, Type 0, BuildingBlock: QUQFOY_clean_sbu_1, # of connection points: 4
#     Node 20, Type 0, BuildingBlock: QUQFOY_clean_sbu_1, # of connection points: 4
#     Node 21, Type 0, BuildingBlock: QUQFOY_clean_sbu_1, # of connection points: 4
#     Node 22, Type 0, BuildingBlock: QUQFOY_clean_sbu_1, # of connection points: 4
#     Node 23, Type 0, BuildingBlock: QUQFOY_clean_sbu_1, # of connection points: 4
#     Edge 24, Type (0, 0), BuildingBlock: AJUNOK_clean_linker_0, # of connection points: 2
#     Edge 25, Type (0, 0), BuildingBlock: AJUNOK_clean_linker_0, # of connection points: 2
#     Edge 26, Type (0, 0), BuildingBlock: AJUNOK_clean_linker_0, # of connection points: 2
#     Edge 27, Type (0, 0), BuildingBlock: AJUNOK_clean_linker_0, # of connection points: 2
#     Edge 28, Type (0, 0), BuildingBlock: AJUNOK_clean_linker_0, # of connection points: 2
#     Edge 29, Type (0, 0), BuildingBlock: AJUNOK_clean_linker_0, # of connection points: 2
#     Edge 30, Type (0, 0), BuildingBlock: AJUNOK_clean_linker_0, # of connection points: 2
#     Edge 31, Type (0, 0), BuildingBlock: AJUNOK_clean_linker_0, # of connection points: 2
#     Edge 32, Type (0, 0), BuildingBlock: AJUNOK_clean_linker_0, # of connection points: 2
#     Edge 33, Type (0, 0), BuildingBlock: AJUNOK_clean_linker_0, # of connection points: 2
#     Edge 34, Type (0, 0), BuildingBlock: AJUNOK_clean_linker_0, # of connection points: 2
#     Edge 35, Type (0, 0), BuildingBlock: AJUNOK_clean_linker_0, # of connection points: 2
#     Edge 36, Type (0, 0), BuildingBlock: AJUNOK_clean_linker_0, # of connection points: 2
#     Edge 37, Type (0, 0), BuildingBlock: AJUNOK_clean_linker_0, # of connection points: 2
#     Edge 38, Type (0, 0), BuildingBlock: AJUNOK_clean_linker_0, # of connection points: 2
#     Edge 39, Type (0, 0), BuildingBlock: AJUNOK_clean_linker_0, # of connection points: 2
#     Edge 40, Type (0, 0), BuildingBlock: AJUNOK_clean_linker_0, # of connection points: 2
#     Edge 41, Type (0, 0), BuildingBlock: AJUNOK_clean_linker_0, # of connection points: 2
#     Edge 42, Type (0, 0), BuildingBlock: AJUNOK_clean_linker_0, # of connection points: 2
#     Edge 43, Type (0, 0), BuildingBlock: AJUNOK_clean_linker_0, # of connection points: 2
#     Edge 44, Type (0, 0), BuildingBlock: AJUNOK_clean_linker_0, # of connection points: 2
#     Edge 45, Type (0, 0), BuildingBlock: AJUNOK_clean_linker_0, # of connection points: 2
#     Edge 46, Type (0, 0), BuildingBlock: AJUNOK_clean_linker_0, # of connection points: 2
#     Edge 47, Type (0, 0), BuildingBlock: AJUNOK_clean_linker_0, # of connection points: 2
#     Edge 48, Type (0, 0), BuildingBlock: AJUNOK_clean_linker_0, # of connection points: 2
#     Edge 49, Type (0, 0), BuildingBlock: AJUNOK_clean_linker_0, # of connection points: 2
#     Edge 50, Type (0, 0), BuildingBlock: AJUNOK_clean_linker_0, # of connection points: 2
#     Edge 51, Type (0, 0), BuildingBlock: AJUNOK_clean_linker_0, # of connection points: 2
#     Edge 52, Type (0, 0), BuildingBlock: AJUNOK_clean_linker_0, # of connection points: 2
#     Edge 53, Type (0, 0), BuildingBlock: AJUNOK_clean_linker_0, # of connection points: 2
#     Edge 54, Type (0, 0), BuildingBlock: AJUNOK_clean_linker_0, # of connection points: 2
#     Edge 55, Type (0, 0), BuildingBlock: AJUNOK_clean_linker_0, # of connection points: 2
#     Edge 56, Type (0, 0), BuildingBlock: AJUNOK_clean_linker_0, # of connection points: 2
#     Edge 57, Type (0, 0), BuildingBlock: AJUNOK_clean_linker_0, # of connection points: 2
#     Edge 58, Type (0, 0), BuildingBlock: AJUNOK_clean_linker_0, # of connection points: 2
#     Edge 59, Type (0, 0), BuildingBlock: AJUNOK_clean_linker_0, # of connection points: 2
#     Edge 60, Type (0, 0), BuildingBlock: AJUNOK_clean_linker_0, # of connection points: 2
#     Edge 61, Type (0, 0), BuildingBlock: AJUNOK_clean_linker_0, # of connection points: 2
#     Edge 62, Type (0, 0), BuildingBlock: AJUNOK_clean_linker_0, # of connection points: 2
#     Edge 63, Type (0, 0), BuildingBlock: AJUNOK_clean_linker_0, # of connection points: 2
#     Edge 64, Type (0, 0), BuildingBlock: AJUNOK_clean_linker_0, # of connection points: 2
#     Edge 65, Type (0, 0), BuildingBlock: AJUNOK_clean_linker_0, # of connection points: 2
#     Edge 66, Type (0, 0), BuildingBlock: AJUNOK_clean_linker_0, # of connection points: 2
#     Edge 67, Type (0, 0), BuildingBlock: AJUNOK_clean_linker_0, # of connection points: 2
#     Edge 68, Type (0, 0), BuildingBlock: AJUNOK_clean_linker_0, # of connection points: 2
#     Edge 69, Type (0, 0), BuildingBlock: AJUNOK_clean_linker_0, # of connection points: 2
#     Edge 70, Type (0, 0), BuildingBlock: AJUNOK_clean_linker_0, # of connection points: 2
#     Edge 71, Type (0, 0), BuildingBlock: AJUNOK_clean_linker_0, # of connection points: 2
# Relax obj value: 0.124
# Max RMSD: 0.164
# Mean RMSD: 0.164
data_MOF--net-unw--node1-QUQFOY_clean_sbu_1--edge1-AJUNOK_clean_linker_0
_symmetry_space_group_name_H-M    P1
_symmetry_Int_Tables_number       1
_symmetry_cell_setting            triclinic
loop_
_symmetry_equiv_pos_as_xyz
'x, y, z'
_cell_length_a     37.278689
_cell_length_b     36.902454
_cell_length_c     37.53891
_cell_angle_alpha  89.793079
_cell_angle_beta   89.102913
_cell_angle_gamma 89.756126
loop_
_atom_site_label
_atom_site_type_symbol
_atom_site_fract_x
_atom_site_fract_y
_atom_site_fract_z
_atom_type_partial_charge
O0 O 0.16915 0.32126 0.28037 0.0
Cd1 Cd 0.14961 0.35594 0.24433 0.0
Cd2 Cd 0.18161 0.39642 0.2874 0.0
O3 O 0.15982 0.35926 0.32456 0.0
O4 O 0.10726 0.3275 0.22825 0.0
O5 O 0.10334 0.37402 0.26551 0.0
C6 C 0.08898 0.3451 0.25233 0.0
C7 C 0.19349 0.45732 0.27589 0.0
C8 C 0.16256 0.32668 0.31311 0.0
C9 C 0.22179 0.37342 0.22654 0.0
O10 O 0.22119 0.37174 0.26013 0.0
O11 O 0.19187 0.37392 0.21018 0.0
O12 O 0.20769 0.44087 0.30282 0.0
O13 O 0.16728 0.44118 0.26016 0.0
O14 O 0.67386 0.22162 0.26064 0.0
Cd15 Cd 0.64861 0.18378 0.28931 0.0
Cd16 Cd 0.68935 0.15001 0.24576 0.0
O17 O 0.6722 0.1914 0.21065 0.0
O18 O 0.60681 0.21443 0.30448 0.0
O19 O 0.60269 0.16977 0.26527 0.0
C20 C 0.58892 0.19859 0.27973 0.0
C21 C 0.69958 0.08944 0.25505 0.0
C22 C 0.6734 0.22169 0.22705 0.0
C23 C 0.71751 0.16545 0.31475 0.0
O24 O 0.72325 0.17024 0.28171 0.0
O25 O 0.6852 0.16411 0.32686 0.0
O26 O 0.71748 0.10649 0.2303 0.0
O27 O 0.67066 0.10464 0.26783 0.0
O28 O 0.87377 0.72176 0.28172 0.0
Cd29 Cd 0.89454 0.68632 0.24607 0.0
Cd30 Cd 0.84988 0.64914 0.28838 0.0
O31 O 0.86671 0.68512 0.32743 0.0
O32 O 0.93167 0.71979 0.22617 0.0
O33 O 0.94497 0.67128 0.2583 0.0
C34 C 0.95496 0.70167 0.24409 0.0
C35 C 0.8347 0.58896 0.28401 0.0
C36 C 0.8713 0.71704 0.31505 0.0
C37 C 0.82552 0.66998 0.21832 0.0
O38 O 0.81824 0.67205 0.2513 0.0
O39 O 0.85821 0.66981 0.20766 0.0
O40 O 0.81639 0.61046 0.30454 0.0
O41 O 0.86557 0.60006 0.27201 0.0
O42 O 0.32231 0.87388 0.28208 0.0
Cd43 Cd 0.35667 0.89871 0.24808 0.0
Cd44 Cd 0.3978 0.85342 0.28454 0.0
O45 O 0.36039 0.86365 0.32562 0.0
O46 O 0.32791 0.94265 0.23444 0.0
O47 O 0.37311 0.94409 0.27216 0.0
C48 C 0.34526 0.95981 0.2587 0.0
C49 C 0.45782 0.83793 0.27349 0.0
C50 C 0.32824 0.8674 0.31462 0.0
C51 C 0.37395 0.8303 0.21628 0.0
O52 O 0.37348 0.82259 0.24906 0.0
O53 O 0.37302 0.86355 0.20651 0.0
O54 O 0.43828 0.81948 0.29576 0.0
O55 O 0.44531 0.86896 0.26306 0.0
O56 O 0.1615 0.71537 0.7432 0.0
Cd57 Cd 0.13575 0.68744 0.78128 0.0
Cd58 Cd 0.18417 0.63921 0.74773 0.0
O59 O 0.17307 0.6731 0.70338 0.0
O60 O 0.10014 0.72696 0.79161 0.0
O61 O 0.0854 0.67589 0.7654 0.0
C62 C 0.07743 0.70914 0.77302 0.0
C63 C 0.20278 0.57952 0.76003 0.0
C64 C 0.16776 0.70649 0.71128 0.0
C65 C 0.20291 0.67616 0.81496 0.0
O66 O 0.21179 0.66731 0.78354 0.0
O67 O 0.17002 0.68057 0.82408 0.0
O68 O 0.22045 0.59964 0.73768 0.0
O69 O 0.17154 0.59101 0.77057 0.0
O70 O 0.32142 0.17024 0.76106 0.0
Cd71 Cd 0.35892 0.14012 0.78396 0.0
Cd72 Cd 0.39396 0.18942 0.74672 0.0
O73 O 0.35152 0.18001 0.71134 0.0
O74 O 0.32996 0.09505 0.79388 0.0
O75 O 0.3706 0.09905 0.75041 0.0
C76 C 0.34358 0.08202 0.76465 0.0
C77 C 0.45401 0.20369 0.75155 0.0
C78 C 0.32152 0.17776 0.72827 0.0
C79 C 0.37736 0.20486 0.82064 0.0
O80 O 0.37453 0.21619 0.78897 0.0
O81 O 0.3778 0.17072 0.82709 0.0
O82 O 0.4332 0.2237 0.73229 0.0
O83 O 0.44244 0.17203 0.76137 0.0
O84 O 0.82007 0.38806 0.77911 0.0
Cd85 Cd 0.85556 0.41247 0.74721 0.0
Cd86 Cd 0.89133 0.36856 0.78997 0.0
O87 O 0.85052 0.37776 0.82789 0.0
O88 O 0.82468 0.45526 0.73429 0.0
O89 O 0.86978 0.45807 0.77196 0.0
C90 C 0.84061 0.47236 0.75961 0.0
C91 C 0.95072 0.35188 0.78038 0.0
C92 C 0.82058 0.37969 0.81173 0.0
C93 C 0.87 0.34169 0.72064 0.0
O94 O 0.86837 0.3372 0.75397 0.0
O95 O 0.87139 0.37397 0.70791 0.0
O96 O 0.93103 0.33427 0.8032 0.0
O97 O 0.93901 0.383 0.76929 0.0
O98 O 0.66019 0.83797 0.78422 0.0
Cd99 Cd 0.63702 0.86438 0.74374 0.0
Cd100 Cd 0.67943 0.91497 0.78141 0.0
O101 O 0.66804 0.88045 0.82463 0.0
O102 O 0.60329 0.82462 0.7304 0.0
O103 O 0.58573 0.87488 0.75754 0.0
C104 C 0.57883 0.84207 0.74793 0.0
C105 C 0.69941 0.97411 0.77245 0.0
C106 C 0.66468 0.84705 0.81629 0.0
C107 C 0.70542 0.8777 0.71417 0.0
O108 O 0.7098 0.88899 0.74549 0.0
O109 O 0.67411 0.87162 0.70248 0.0
O110 O 0.71665 0.95207 0.79283 0.0
O111 O 0.66746 0.96479 0.76316 0.0
O112 O 0.24331 0.21246 0.37795 0.0
Cd113 Cd 0.28879 0.19195 0.39754 0.0
Cd114 Cd 0.25634 0.13742 0.35192 0.0
O115 O 0.20893 0.16629 0.36357 0.0
O116 O 0.29673 0.23301 0.43134 0.0
O117 O 0.28026 0.17841 0.44898 0.0
C118 C 0.28347 0.21251 0.45606 0.0
C119 C 0.26971 0.07919 0.33029 0.0
C120 C 0.21276 0.19984 0.37099 0.0
C121 C 0.31937 0.18387 0.32746 0.0
O122 O 0.28998 0.16795 0.32246 0.0
O123 O 0.32946 0.19211 0.35874 0.0
O124 O 0.24843 0.10069 0.31352 0.0
O125 O 0.27809 0.08809 0.36239 0.0
O126 O 0.88175 0.293 0.32423 0.0
Cd127 Cd 0.91199 0.25323 0.34465 0.0
Cd128 Cd 0.85477 0.28984 0.40114 0.0
O129 O 0.85085 0.32886 0.36106 0.0
O130 O 0.948 0.24944 0.3041 0.0
O131 O 0.96122 0.27211 0.35652 0.0
C132 C 0.96996 0.26758 0.32333 0.0
C133 C 0.82681 0.28384 0.45714 0.0
C134 C 0.86207 0.32039 0.32983 0.0
C135 C 0.84991 0.21157 0.36567 0.0
O136 O 0.844 0.24113 0.38133 0.0
O137 O 0.88029 0.2062 0.35025 0.0
O138 O 0.80884 0.29265 0.42941 0.0
O139 O 0.86137 0.2853 0.4544 0.0
O140 O 0.78835 0.83712 0.37454 0.0
Cd141 Cd 0.75036 0.86349 0.40225 0.0
Cd142 Cd 0.78362 0.91419 0.35211 0.0
O143 O 0.82764 0.88058 0.36388 0.0
O144 O 0.74002 0.82493 0.43931 0.0
O145 O 0.77009 0.87487 0.45079 0.0
C146 C 0.76045 0.84263 0.46048 0.0
C147 C 0.77501 0.97316 0.33085 0.0
C148 C 0.82041 0.84718 0.36958 0.0
C149 C 0.71343 0.87879 0.3367 0.0
O150 O 0.74466 0.88788 0.32674 0.0
O151 O 0.70622 0.87225 0.36953 0.0
O152 O 0.79399 0.95004 0.3129 0.0
O153 O 0.76692 0.96485 0.36353 0.0
O154 O 0.15387 0.74736 0.36532 0.0
Cd155 Cd 0.13118 0.78676 0.33358 0.0
Cd156 Cd 0.20884 0.76757 0.40739 0.0
O157 O 0.20549 0.7217 0.37447 0.0
O158 O 0.11425 0.76525 0.28823 0.0
O159 O 0.07767 0.78745 0.33031 0.0
C160 C 0.08198 0.77031 0.30047 0.0
C161 C 0.23713 0.78083 0.46046 0.0
C162 C 0.17794 0.72521 0.35487 0.0
C163 C 0.18647 0.82968 0.35942 0.0
O164 O 0.17814 0.80739 0.38397 0.0
O165 O 0.16428 0.8331 0.33398 0.0
O166 O 0.25424 0.78374 0.43033 0.0
O167 O 0.2051 0.76725 0.46036 0.0
O168 O 0.27943 0.87906 0.71737 0.0
Cd169 Cd 0.25365 0.90495 0.67872 0.0
Cd170 Cd 0.2972 0.86054 0.64674 0.0
O171 O 0.33099 0.87403 0.68912 0.0
O172 O 0.2399 0.94922 0.70696 0.0
O173 O 0.28137 0.94976 0.66407 0.0
C174 C 0.26658 0.96556 0.69142 0.0
C175 C 0.29621 0.85012 0.58619 0.0
C176 C 0.313 0.87505 0.7184 0.0
C177 C 0.22454 0.83576 0.66045 0.0
O178 O 0.25743 0.82818 0.66421 0.0
O179 O 0.21431 0.869 0.6598 0.0
O180 O 0.31674 0.83077 0.60632 0.0
O181 O 0.28219 0.87948 0.59937 0.0
O182 O 0.19969 0.25133 0.65327 0.0
Cd183 Cd 0.17774 0.29292 0.6266 0.0
Cd184 Cd 0.12256 0.26339 0.68094 0.0
O185 O 0.15627 0.21841 0.67796 0.0
O186 O 0.21951 0.30163 0.5933 0.0
O187 O 0.16849 0.27747 0.57622 0.0
C188 C 0.20191 0.28435 0.56957 0.0
C189 C 0.06469 0.27181 0.7049 0.0
C190 C 0.18904 0.22258 0.66837 0.0
C191 C 0.16139 0.33563 0.69015 0.0
O192 O 0.1473 0.30651 0.70103 0.0
O193 O 0.17206 0.33926 0.65785 0.0
O194 O 0.08952 0.25681 0.72339 0.0
O195 O 0.07091 0.27568 0.67112 0.0
O196 O 0.75649 0.17148 0.70909 0.0
Cd197 Cd 0.79121 0.14477 0.67766 0.0
Cd198 Cd 0.75469 0.18837 0.63349 0.0
O199 O 0.71396 0.17169 0.66925 0.0
O200 O 0.80273 0.10361 0.71034 0.0
O201 O 0.76786 0.09867 0.66318 0.0
C202 C 0.77875 0.08566 0.69329 0.0
C203 C 0.75971 0.20279 0.57385 0.0
C204 C 0.72357 0.17026 0.70174 0.0
C205 C 0.82514 0.21131 0.65866 0.0
O206 O 0.79255 0.2203 0.65506 0.0
O207 O 0.83373 0.17801 0.6627 0.0
O208 O 0.73767 0.22046 0.59432 0.0
O209 O 0.77354 0.17295 0.58578 0.0
O210 O 0.83216 0.79567 0.65492 0.0
Cd211 Cd 0.85854 0.75572 0.63021 0.0
Cd212 Cd 0.90513 0.79261 0.67536 0.0
O213 O 0.87286 0.83732 0.66553 0.0
O214 O 0.81903 0.74396 0.59641 0.0
O215 O 0.86878 0.77199 0.57972 0.0
C216 C 0.83591 0.76346 0.57295 0.0
C217 C 0.96353 0.78107 0.69372 0.0
C218 C 0.84017 0.82798 0.66224 0.0
C219 C 0.87451 0.725 0.69941 0.0
O220 O 0.87666 0.75848 0.70573 0.0
O221 O 0.8712 0.71407 0.66723 0.0
O222 O 0.94368 0.80456 0.71017 0.0
O223 O 0.95246 0.76873 0.66364 0.0
O224 O 0.34702 0.30559 0.14784 0.0
Cd225 Cd 0.34365 0.25771 0.1215 0.0
Cd226 Cd 0.41706 0.28657 0.18045 0.0
O227 O 0.38743 0.3347 0.1789 0.0
O228 O 0.29756 0.26425 0.09552 0.0
O229 O 0.35046 0.26182 0.06834 0.0
C230 C 0.3164 0.26835 0.06668 0.0
C231 C 0.47115 0.2716 0.20781 0.0
C232 C 0.35626 0.33333 0.1651 0.0
C233 C 0.36003 0.21942 0.1844 0.0
O234 O 0.38199 0.24525 0.18297 0.0
O235 O 0.34001 0.21452 0.15763 0.0
O236 O 0.44317 0.28094 0.22624 0.0
O237 O 0.46967 0.27398 0.17348 0.0
O238 O 0.38703 0.80353 0.83737 0.0
Cd239 Cd 0.40855 0.75439 0.8461 0.0
Cd240 Cd 0.35773 0.78544 0.91184 0.0
O241 O 0.36139 0.83301 0.88235 0.0
O242 O 0.43635 0.75277 0.79992 0.0
O243 O 0.46203 0.75733 0.85213 0.0
C244 C 0.46465 0.75975 0.81783 0.0
C245 C 0.33129 0.77544 0.96838 0.0
C246 C 0.37233 0.83168 0.84996 0.0
C247 C 0.33985 0.7204 0.86047 0.0
O248 O 0.33672 0.74596 0.88248 0.0
O249 O 0.36943 0.71425 0.84399 0.0
O250 O 0.31395 0.79128 0.94335 0.0
O251 O 0.36524 0.77029 0.96306 0.0
O252 O 0.28424 0.32442 0.86495 0.0
Cd253 Cd 0.24714 0.35778 0.8868 0.0
Cd254 Cd 0.28849 0.39974 0.84872 0.0
O255 O 0.32803 0.36404 0.86796 0.0
O256 O 0.22933 0.32753 0.92771 0.0
O257 O 0.26677 0.37386 0.93329 0.0
C258 C 0.25231 0.34484 0.94668 0.0
C259 C 0.27713 0.45989 0.83277 0.0
C260 C 0.31734 0.33109 0.86809 0.0
C261 C 0.22431 0.37631 0.81768 0.0
O262 O 0.25793 0.37327 0.81417 0.0
O263 O 0.21047 0.37707 0.84905 0.0
O264 O 0.30261 0.44149 0.81737 0.0
O265 O 0.26326 0.44655 0.86186 0.0
O266 O 0.65719 0.2517 0.8239 0.0
Cd267 Cd 0.62657 0.28535 0.8528 0.0
Cd268 Cd 0.67968 0.25043 0.89861 0.0
O269 O 0.67053 0.20846 0.86205 0.0
O270 O 0.59226 0.29643 0.81322 0.0
O271 O 0.57663 0.26496 0.86081 0.0
C272 C 0.56942 0.27529 0.82875 0.0
C273 C 0.70223 0.25457 0.95584 0.0
C274 C 0.66473 0.21895 0.83014 0.0
C275 C 0.68934 0.32615 0.86942 0.0
O276 O 0.70139 0.29477 0.8759 0.0
O277 O 0.65591 0.33142 0.8643 0.0
O278 O 0.72063 0.23886 0.93086 0.0
O279 O 0.66876 0.26149 0.94992 0.0
O280 O 0.75508 0.7253 0.8682 0.0
Cd281 Cd 0.78902 0.69454 0.89595 0.0
Cd282 Cd 0.75184 0.64929 0.85116 0.0
O283 O 0.7111 0.68569 0.86731 0.0
O284 O 0.80105 0.72892 0.93578 0.0
O285 O 0.76376 0.6827 0.94237 0.0
C286 C 0.77631 0.71288 0.95447 0.0
C287 C 0.76226 0.58921 0.83456 0.0
C288 C 0.72185 0.71857 0.8689 0.0
C289 C 0.82157 0.67456 0.82912 0.0
O290 O 0.78869 0.67496 0.82145 0.0
O291 O 0.83094 0.67661 0.86176 0.0
O292 O 0.74034 0.60942 0.81679 0.0
O293 O 0.77222 0.60097 0.86537 0.0
O294 O 0.71071 0.75229 0.15488 0.0
Cd295 Cd 0.68562 0.79479 0.13327 0.0
Cd296 Cd 0.63593 0.75612 0.17393 0.0
O297 O 0.66764 0.71158 0.15853 0.0
O298 O 0.72441 0.80634 0.09684 0.0
O299 O 0.67256 0.78219 0.08254 0.0
C300 C 0.70542 0.78964 0.07354 0.0
C301 C 0.57686 0.76805 0.19437 0.0
C302 C 0.70099 0.71954 0.15617 0.0
C303 C 0.6717 0.81901 0.2048 0.0
O304 O 0.66503 0.78559 0.20715 0.0
O305 O 0.67555 0.83368 0.17393 0.0
O306 O 0.59632 0.74318 0.20886 0.0
O307 O 0.58864 0.78171 0.16464 0.0
O308 O 0.23989 0.67117 0.21891 0.0
Cd309 Cd 0.27382 0.64199 0.18765 0.0
Cd310 Cd 0.24105 0.69149 0.14362 0.0
O311 O 0.19877 0.68819 0.18035 0.0
O312 O 0.28561 0.60157 0.22169 0.0
O313 O 0.25109 0.59415 0.17505 0.0
C314 C 0.26306 0.58166 0.20489 0.0
C315 C 0.25107 0.70472 0.08389 0.0
C316 C 0.20875 0.68302 0.21238 0.0
C317 C 0.31307 0.70636 0.16608 0.0
O318 O 0.2813 0.71837 0.16571 0.0
O319 O 0.3188 0.6724 0.17023 0.0
O320 O 0.23133 0.72582 0.10342 0.0
O321 O 0.25901 0.67299 0.0964 0.0
O322 O 0.79202 0.38977 0.20091 0.0
Cd323 Cd 0.75259 0.41921 0.17965 0.0
Cd324 Cd 0.78003 0.35724 0.12554 0.0
O325 O 0.8212 0.3544 0.1625 0.0
O326 O 0.74492 0.45127 0.22235 0.0
O327 O 0.76967 0.47049 0.17201 0.0
C328 C 0.76254 0.47586 0.20534 0.0
C329 C 0.77593 0.33026 0.06925 0.0
C330 C 0.81755 0.36852 0.19337 0.0
C331 C 0.70583 0.35699 0.16501 0.0
O332 O 0.7328 0.34418 0.14853 0.0
O333 O 0.70561 0.38936 0.17689 0.0
O334 O 0.78566 0.31173 0.09653 0.0
O335 O 0.77388 0.36501 0.07266 0.0
C336 C 0.2138 0.5352 0.21086 0.0
C337 C 0.24713 0.54857 0.22213 0.0
C338 C 0.19605 0.50686 0.22915 0.0
C339 C 0.21068 0.49046 0.2597 0.0
H340 H 0.20085 0.54716 0.188 0.0
H341 H 0.17072 0.49752 0.21895 0.0
S342 S 0.29827 0.51418 0.29938 0.0
N343 N 0.29452 0.54235 0.2654 0.0
N344 N 0.26157 0.48932 0.29953 0.0
C345 C 0.24419 0.50342 0.27108 0.0
C346 C 0.26225 0.53228 0.25242 0.0
C347 C 0.5255 0.20034 0.25692 0.0
C348 C 0.55835 0.21773 0.26272 0.0
C349 C 0.49742 0.21827 0.23923 0.0
C350 C 0.50166 0.25363 0.22555 0.0
H351 H 0.52137 0.17291 0.26641 0.0
H352 H 0.47223 0.20422 0.23588 0.0
S353 S 0.58354 0.30953 0.23043 0.0
N354 N 0.59395 0.2718 0.2518 0.0
N355 N 0.54177 0.30453 0.21724 0.0
C356 C 0.53465 0.27084 0.2301 0.0
C357 C 0.56284 0.25309 0.249 0.0
C358 C 0.76146 0.52932 0.24646 0.0
C359 C 0.78089 0.50455 0.22541 0.0
C360 C 0.77921 0.55529 0.26704 0.0
C361 C 0.81706 0.55694 0.26789 0.0
H362 H 0.73241 0.52906 0.24649 0.0
H363 H 0.76303 0.575 0.28141 0.0
S364 S 0.87973 0.49336 0.22237 0.0
N365 N 0.83959 0.48019 0.20983 0.0
N366 N 0.87296 0.52858 0.24869 0.0
C367 C 0.83659 0.53088 0.24838 0.0
C368 C 0.81851 0.50478 0.22716 0.0
C369 C 0.53107 0.81808 0.20342 0.0
C370 C 0.54531 0.78433 0.21407 0.0
C371 C 0.50416 0.83598 0.22362 0.0
C372 C 0.49002 0.82101 0.25547 0.0
H373 H 0.54112 0.83118 0.17943 0.0
H374 H 0.49388 0.8615 0.21367 0.0
S375 S 0.51794 0.73335 0.29551 0.0
N376 N 0.54308 0.73687 0.25909 0.0
N377 N 0.49268 0.77017 0.29663 0.0
C378 C 0.50408 0.78734 0.26648 0.0
C379 C 0.53155 0.76916 0.24597 0.0
C380 C 0.23369 0.51296 0.83192 0.0
C381 C 0.26008 0.49176 0.81436 0.0
C382 C 0.21439 0.54025 0.81387 0.0
C383 C 0.2205 0.54764 0.77737 0.0
H384 H 0.22766 0.50831 0.85988 0.0
H385 H 0.19502 0.55624 0.82889 0.0
S386 S 0.28441 0.49866 0.7181 0.0
N387 N 0.28963 0.4793 0.7574 0.0
N388 N 0.2539 0.53068 0.72413 0.0
C389 C 0.24653 0.52664 0.75946 0.0
C390 C 0.26608 0.49876 0.77771 0.0
C391 C 0.51626 0.2335 0.82531 0.0
C392 C 0.53912 0.25889 0.80856 0.0
C393 C 0.49016 0.21457 0.80615 0.0
C394 C 0.48547 0.22025 0.76936 0.0
H395 H 0.51866 0.22786 0.85351 0.0
H396 H 0.47277 0.19602 0.8206 0.0
S397 S 0.53895 0.28232 0.71211 0.0
N398 N 0.55589 0.28746 0.75215 0.0
N399 N 0.5062 0.25261 0.71677 0.0
C400 C 0.50797 0.24547 0.75221 0.0
C401 C 0.5349 0.26452 0.77159 0.0
C402 C 0.77278 0.54794 0.78158 0.0
C403 C 0.78054 0.5573 0.81708 0.0
C404 C 0.79286 0.52143 0.76283 0.0
C405 C 0.82217 0.50338 0.77839 0.0
H406 H 0.75122 0.56156 0.76782 0.0
H407 H 0.7853 0.51505 0.73584 0.0
S408 S 0.85273 0.51616 0.87127 0.0
N409 N 0.81898 0.54489 0.86739 0.0
N410 N 0.8567 0.49584 0.83233 0.0
C411 C 0.82997 0.5122 0.81398 0.0
C412 C 0.80923 0.53881 0.83321 0.0
C413 C 0.52277 0.80443 0.74566 0.0
C414 C 0.54938 0.82158 0.76542 0.0
C415 C 0.49636 0.78299 0.76263 0.0
C416 C 0.49629 0.77698 0.79986 0.0
H417 H 0.52205 0.80805 0.71703 0.0
H418 H 0.47544 0.77162 0.74645 0.0
S419 S 0.56362 0.81241 0.86258 0.0
N420 N 0.57582 0.82936 0.82351 0.0
N421 N 0.52753 0.78796 0.85519 0.0
C422 C 0.52404 0.79267 0.81949 0.0
C423 C 0.5502 0.81524 0.80233 0.0
C424 C 0.2493 0.28434 0.52122 0.0
C425 C 0.2216 0.26639 0.53983 0.0
C426 C 0.27034 0.2663 0.49529 0.0
C427 C 0.26536 0.22921 0.4878 0.0
H428 H 0.25449 0.31267 0.52645 0.0
H429 H 0.29037 0.28173 0.48065 0.0
S430 S 0.19879 0.16903 0.53254 0.0
N431 N 0.19177 0.20905 0.55091 0.0
N432 N 0.23168 0.17486 0.50316 0.0
C433 C 0.2386 0.21069 0.50744 0.0
C434 C 0.21664 0.22932 0.53313 0.0
C435 C 0.81313 0.22515 0.53988 0.0
C436 C 0.77563 0.22123 0.54228 0.0
C437 C 0.82931 0.24708 0.51354 0.0
C438 C 0.80869 0.26563 0.4881 0.0
H439 H 0.83013 0.21196 0.55921 0.0
H440 H 0.8583 0.24886 0.51277 0.0
S441 S 0.70928 0.26286 0.48223 0.0
N442 N 0.71831 0.23729 0.51717 0.0
N443 N 0.74836 0.27742 0.46676 0.0
C444 C 0.77105 0.26156 0.49015 0.0
C445 C 0.75464 0.23969 0.51742 0.0
C446 C 0.81532 0.82757 0.49549 0.0
C447 C 0.77813 0.82365 0.49073 0.0
C448 C 0.83396 0.80673 0.52077 0.0
C449 C 0.81626 0.78123 0.54283 0.0
H450 H 0.83042 0.84628 0.47885 0.0
H451 H 0.8625 0.81116 0.52335 0.0
S452 S 0.71834 0.76227 0.54216 0.0
N453 N 0.7241 0.79292 0.51047 0.0
N454 N 0.75846 0.75464 0.55873 0.0
C455 C 0.77886 0.7774 0.53848 0.0
C456 C 0.76003 0.79831 0.51231 0.0
C457 C 0.28959 0.80221 0.49642 0.0
C458 C 0.25235 0.79649 0.49345 0.0
C459 C 0.30398 0.81989 0.52623 0.0
C460 C 0.28151 0.834 0.55326 0.0
H461 H 0.3078 0.79282 0.47564 0.0
H462 H 0.33278 0.82293 0.52791 0.0
S463 S 0.18247 0.82485 0.55921 0.0
N464 N 0.19368 0.80467 0.52148 0.0
N465 N 0.22037 0.83967 0.57587 0.0
C466 C 0.24434 0.82835 0.5506 0.0
C467 C 0.22986 0.80917 0.52115 0.0
C468 C 0.75617 1.00808 0.75716 0.0
C469 C 0.71854 1.00494 0.75456 0.0
C470 C 0.77573 0.03337 0.73654 0.0
C471 C 0.75867 0.05607 0.71181 0.0
H472 H 0.77089 0.99039 0.77483 0.0
H473 H 0.80448 0.03505 0.73988 0.0
S474 S 0.66049 0.06189 0.69747 0.0
N475 N 0.6649 0.02915 0.72715 0.0
N476 N 0.70154 0.07601 0.6882 0.0
C477 C 0.72106 0.05383 0.70949 0.0
C478 C 0.70108 0.02852 0.73087 0.0
C479 C 0.9935 0.72571 0.71802 0.0
C480 C 0.99376 0.76348 0.71248 0.0
C481 C 0.01964 0.70843 0.73888 0.0
C482 C 0.0471 0.72824 0.75514 0.0
H483 H 0.97245 0.70943 0.70668 0.0
H484 H 1.01847 0.67927 0.74203 0.0
S485 S 0.06094 0.82765 0.74637 0.0
N486 N 0.02412 0.81996 0.72376 0.0
N487 N 0.07367 0.78794 0.76226 0.0
C488 C 0.04763 0.76612 0.74947 0.0
C489 C 0.02087 0.78361 0.7284 0.0
C490 C 0.3025 0.02761 0.7641 0.0
C491 C 0.32516 0.05182 0.74545 0.0
C492 C 0.2826 1.00097 0.74624 0.0
C493 C 0.28414 0.99736 0.7088 0.0
H494 H 0.30021 0.0291 0.79285 0.0
H495 H 0.26655 0.98239 0.76212 0.0
S496 S 0.33525 0.05703 0.64691 0.0
N497 N 0.34506 0.07243 0.68682 0.0
N498 N 0.30812 1.02232 0.65362 0.0
C499 C 0.30585 1.022 0.68976 0.0
C500 C 0.32614 0.04917 0.70792 0.0
C501 C 0.02812 0.28625 0.76029 0.0
C502 C 0.03357 0.29008 0.72315 0.0
C503 C 1.00205 0.30688 0.77894 0.0
C504 C 0.98106 0.33307 0.76149 0.0
H505 H 0.04434 0.26734 0.77526 0.0
H506 H 0.99845 0.30241 0.8073 0.0
S507 S 0.98303 0.35246 0.6643 0.0
N508 N 1.01418 0.32109 0.66953 0.0
N509 N 0.96621 0.36021 0.70449 0.0
C510 C 0.98602 0.33696 0.72437 0.0
C511 C 1.01192 0.31542 0.70528 0.0
C512 C 0.76036 1.00829 0.27498 0.0
C513 C 0.75763 1.00465 0.31241 0.0
C514 C 0.74069 0.03482 0.25635 0.0
C515 C 0.71669 0.05835 0.27415 0.0
H516 H 0.77753 0.99018 0.25972 0.0
H517 H 0.74428 0.03687 0.22773 0.0
S518 S 0.70171 0.06242 0.37216 0.0
N519 N 0.73051 0.02877 0.36662 0.0
N520 N 0.69319 0.07772 0.33181 0.0
C521 C 0.71401 0.05529 0.31157 0.0
C522 C 0.73452 0.02877 0.33059 0.0
C523 C 0.98901 0.75625 0.26294 0.0
C524 C 0.98912 0.71906 0.25431 0.0
C525 C 0.01922 0.77296 0.27753 0.0
C526 C 0.05107 0.7534 0.28283 0.0
H527 H 0.96482 0.77227 0.25992 0.0
H528 H 1.01758 0.80128 0.2849 0.0
S529 S 0.0655 0.65569 0.26506 0.0
N530 N 0.02363 0.6632 0.25314 0.0
N531 N 0.08104 0.69506 0.27861 0.0
C532 C 0.05186 0.71652 0.27361 0.0
C533 C 0.02072 0.69921 0.2599 0.0
C534 C 0.3257 0.99368 0.31343 0.0
C535 C 0.32889 0.99233 0.27599 0.0
C536 C 0.30576 1.02114 0.33077 0.0
C537 C 0.2882 0.04852 0.31142 0.0
H538 H 0.33774 0.9726 0.32951 0.0
H539 H 0.30399 1.02076 0.3596 0.0
S540 S 0.29237 0.0599 0.21295 0.0
N541 N 0.31506 1.02214 0.22028 0.0
N542 N 0.27856 0.07427 0.25247 0.0
C543 C 0.29223 0.04807 0.27392 0.0
C544 C 0.31226 1.01989 0.25634 0.0
C545 C 0.03971 0.29819 0.25351 0.0
C546 C 0.05641 0.32811 0.26949 0.0
C547 C 1.01253 0.27835 0.27132 0.0
C548 C 1.00122 0.28691 0.30633 0.0
H549 H 0.04795 0.28966 0.22704 0.0
H550 H 1.00037 0.25595 0.25747 0.0
S551 S 0.03596 0.36272 0.36051 0.0
N552 N 0.05902 0.36538 0.32271 0.0
N553 N 1.00868 0.328 0.35607 0.0
C554 C 1.01762 0.31677 0.32265 0.0
C555 C 0.04488 0.33735 0.30431 0.0
C556 C 0.77793 0.75071 1.01062 0.0
C557 C 0.75816 0.73212 0.98489 0.0
C558 C 0.76069 0.77062 0.03811 0.0
C559 C 0.72288 0.77339 0.04081 0.0
H560 H 0.80696 0.74944 1.00984 0.0
H561 H 0.77726 0.78323 0.05794 0.0
S562 S 0.65918 0.73515 0.97598 0.0
N563 N 0.6989 0.72129 0.96138 0.0
N564 N 0.66668 0.75875 1.0124 0.0
C565 C 0.70298 0.75635 1.01406 0.0
C566 C 0.72052 0.73577 0.98637 0.0
C567 C 0.25404 0.74269 0.02816 0.0
C568 C 0.27117 0.72015 0.05292 0.0
C569 C 0.27377 0.76119 1.00153 0.0
C570 C 0.31157 0.75885 0.99927 0.0
H571 H 0.22517 0.74604 0.02938 0.0
H572 H 0.25912 0.77735 0.98246 0.0
S573 S 0.36945 0.70675 0.06078 0.0
N574 N 0.3282 0.6982 0.07496 0.0
N575 N 0.36527 0.73387 0.02602 0.0
C576 C 0.32901 0.73722 0.02468 0.0
C577 C 0.30885 0.71765 0.05114 0.0
C578 C 0.24737 0.3127 1.00599 0.0
C579 C 0.26857 0.3266 0.97792 0.0
C580 C 0.26289 0.29292 0.03406 0.0
C581 C 0.30001 0.28506 0.03445 0.0
H582 H 0.2187 0.31756 1.00651 0.0
H583 H 0.24559 0.284 0.05578 0.0
S584 S 0.36627 0.31129 0.96423 0.0
N585 N 0.3281 0.32928 0.95099 0.0
N586 N 0.35683 0.29043 1.00216 0.0
C587 C 0.32111 0.29739 1.00549 0.0
C588 C 0.30551 0.31856 0.9777 0.0
C589 C 0.72665 0.32414 0.02566 0.0
C590 C 0.75971 0.31162 0.03852 0.0
C591 C 0.70744 0.30433 1.00047 0.0
C592 C 0.72079 0.27149 0.98645 0.0
H593 H 0.71492 0.34897 0.03594 0.0
H594 H 0.6823 0.31546 0.99122 0.0
S595 S 0.80675 0.22755 1.01074 0.0
N596 N 0.80497 0.26433 0.03567 0.0
N597 N 0.76986 0.22792 0.98691 0.0
C598 C 0.75415 0.25897 0.99873 0.0
C599 C 0.77328 0.27876 0.02513 0.0
C600 C 0.15343 0.26057 0.31988 0.0
C601 C 0.16127 0.29411 0.33609 0.0
C602 C 0.16516 0.22771 0.3345 0.0
C603 C 0.18454 0.22748 0.36608 0.0
H604 H 0.14158 0.25992 0.29371 0.0
H605 H 0.16302 0.20328 0.31877 0.0
S606 S 0.20171 0.30637 0.42446 0.0
N607 N 0.1823 0.32411 0.38914 0.0
N608 N 0.20301 0.26219 0.41766 0.0
C609 C 0.18669 0.26009 0.3856 0.0
C610 C 0.17542 0.29362 0.37032 0.0
C611 C 0.78518 0.19891 0.37874 0.0
C612 C 0.81769 0.18828 0.36133 0.0
C613 C 0.75165 0.18769 0.36661 0.0
C614 C 0.74951 0.16468 0.3373 0.0
H615 H 0.78524 0.21892 0.3998 0.0
H616 H 0.72759 0.20001 0.37783 0.0
S617 S 0.82553 0.1194 0.29035 0.0
N618 N 0.84496 0.14704 0.31861 0.0
N619 N 0.78191 0.12442 0.29697 0.0
C620 C 0.78152 0.14924 0.32362 0.0
C621 C 0.81568 0.16134 0.33536 0.0
C622 C 0.88046 0.78332 0.32131 0.0
C623 C 0.86973 0.75012 0.33713 0.0
C624 C 0.86884 0.81662 0.33506 0.0
C625 C 0.8467 0.81764 0.36538 0.0
H626 H 0.89511 0.78359 0.29615 0.0
H627 H 0.87375 0.84102 0.31963 0.0
S628 S 0.82095 0.73982 0.42313 0.0
N629 N 0.84267 0.72118 0.3891 0.0
N630 N 0.82198 0.78395 0.41585 0.0
C631 C 0.84108 0.78522 0.38473 0.0
C632 C 0.85228 0.75126 0.37036 0.0
C633 C 0.2881 0.82628 0.34857 0.0
C634 C 0.29621 0.86152 0.33714 0.0
C635 C 0.25257 0.81634 0.35662 0.0
C636 C 0.2241 0.84146 0.35425 0.0
H637 H 0.30865 0.80542 0.34793 0.0
H638 H 0.2472 0.78811 0.36193 0.0
S639 S 0.23187 0.93765 0.32739 0.0
N640 N 0.27338 0.92192 0.32498 0.0
N641 N 0.20681 0.90338 0.34115 0.0
C642 C 0.23222 0.87715 0.34448 0.0
C643 C 0.26825 0.8872 0.336 0.0
C644 C 0.15621 0.77093 0.69578 0.0
C645 C 0.17229 0.73737 0.68621 0.0
C646 C 0.17003 0.80402 0.68338 0.0
C647 C 0.1999 0.8045 0.66043 0.0
H648 H 0.1352 0.77187 0.71602 0.0
H649 H 0.15988 0.82897 0.69492 0.0
S650 S 0.24395 0.72468 0.61831 0.0
N651 N 0.21415 0.70697 0.64628 0.0
N652 N 0.23934 0.76905 0.62167 0.0
C653 C 0.21211 0.77123 0.64606 0.0
C654 C 0.19844 0.73757 0.6592 0.0
C655 C 0.28185 0.18506 0.67495 0.0
C656 C 0.28605 0.18407 0.71201 0.0
C657 C 0.24827 0.19294 0.66027 0.0
C658 C 0.21782 0.19961 0.68217 0.0
H659 H 0.30475 0.18105 0.65728 0.0
H660 H 0.24658 0.1964 0.63166 0.0
S661 S 0.21403 0.19926 0.78053 0.0
N662 N 0.25609 0.18951 0.77025 0.0
N663 N 0.19361 0.20349 0.74212 0.0
C664 C 0.22116 0.19641 0.71896 0.0
C665 C 0.25517 0.18906 0.73402 0.0
C666 C 0.86133 0.24173 0.703 0.0
C667 C 0.84963 0.24058 0.66796 0.0
C668 C 0.87067 0.27456 0.71837 0.0
C669 C 0.86833 0.30781 0.69947 0.0
H670 H 0.85983 0.2178 0.7198 0.0
H671 H 0.87747 0.27383 0.74631 0.0
S672 S 0.84869 0.31688 0.60354 0.0
N673 N 0.8428 0.27336 0.61228 0.0
N674 N 0.86074 0.33578 0.64138 0.0
C675 C 0.8609 0.30627 0.66304 0.0
C676 C 0.85132 0.27246 0.64729 0.0
C677 C 0.78951 0.87148 0.65722 0.0
C678 C 0.81048 0.8482 0.67826 0.0
C679 C 0.75384 0.8798 0.66725 0.0
C680 C 0.73801 0.86331 0.69737 0.0
H681 H 0.80031 0.88224 0.63243 0.0
H682 H 0.7388 0.89926 0.65174 0.0
S683 S 0.78086 0.79844 0.75935 0.0
N684 N 0.81272 0.80886 0.73013 0.0
N685 N 0.74531 0.82185 0.74713 0.0
C686 C 0.7586 0.83942 0.71786 0.0
C687 C 0.79497 0.8327 0.70892 0.0
C688 C 0.36205 0.17685 0.27642 0.0
C689 C 0.3364 0.19795 0.29492 0.0
C690 C 0.36891 0.18251 0.23979 0.0
C691 C 0.34884 0.20797 0.22039 0.0
H692 H 0.37584 0.15504 0.29 0.0
H693 H 0.38972 0.16676 0.22653 0.0
S694 S 0.27896 0.26989 0.25673 0.0
N695 N 0.29176 0.24571 0.2914 0.0
N696 N 0.3034 0.25521 0.22261 0.0
C697 C 0.32338 0.22919 0.23876 0.0
C698 C 0.31744 0.22442 0.27597 0.0
C699 C 0.86125 0.36799 0.28258 0.0
C700 C 0.84722 0.336 0.29739 0.0
C701 C 0.85453 0.3772 0.2469 0.0
C702 C 0.8353 0.35375 0.22466 0.0
H703 H 0.87787 0.38554 0.29839 0.0
H704 H 0.86367 0.40316 0.2368 0.0
S705 S 0.79284 0.26715 0.25133 0.0
N706 N 0.81275 0.28136 0.28765 0.0
N707 N 0.8014 0.29808 0.22049 0.0
C708 C 0.8217 0.3216 0.23925 0.0
C709 C 0.82734 0.31291 0.27561 0.0
C710 C 0.67511 0.81671 0.27099 0.0
C711 C 0.67571 0.83799 0.23941 0.0
C712 C 0.68196 0.83149 0.30434 0.0
C713 C 0.68983 0.86819 0.30769 0.0
H714 H 0.67114 0.78768 0.27009 0.0
H715 H 0.68464 0.81337 0.32694 0.0
S716 S 0.68795 0.93737 0.23577 0.0
N717 N 0.67939 0.89894 0.21513 0.0
N718 N 0.69311 0.92682 0.27821 0.0
C719 C 0.68733 0.89053 0.27723 0.0
C720 C 0.68022 0.87544 0.24301 0.0
C721 C 0.17547 0.67179 0.26865 0.0
C722 C 0.18872 0.69683 0.24336 0.0
C723 C 0.17102 0.68137 0.3047 0.0
C724 C 0.18061 0.71596 0.31663 0.0
H725 H 0.17097 0.64392 0.26098 0.0
H726 H 0.16151 0.66116 0.32355 0.0
S727 S 0.21637 0.79106 0.26094 0.0
N728 N 0.21019 0.75773 0.23252 0.0
N729 N 0.20323 0.77527 0.30019 0.0
C730 C 0.19271 0.74143 0.29137 0.0
C731 C 0.19629 0.73201 0.2547 0.0
C732 C 0.38057 0.86437 0.7928 0.0
C733 C 0.35836 0.85616 0.82256 0.0
C734 C 0.36607 0.87156 0.75915 0.0
C735 C 0.32888 0.87047 0.75415 0.0
H736 H 0.40945 0.8621 0.79492 0.0
H737 H 0.38411 0.87639 0.73675 0.0
S738 S 0.25937 0.85072 0.82403 0.0
N739 N 0.29775 0.84866 0.84514 0.0
N740 N 0.27007 0.86158 0.78262 0.0
C741 C 0.3064 0.86422 0.78435 0.0
C742 C 0.32124 0.85751 0.81843 0.0
C743 C 0.22221 0.38188 0.75179 0.0
C744 C 0.20341 0.37725 0.78454 0.0
C745 C 0.20645 0.37367 0.7193 0.0
C746 C 0.17125 0.36095 0.71848 0.0
H747 H 0.25034 0.38916 0.75127 0.0
H748 H 0.22318 0.37337 0.69544 0.0
S749 S 0.10728 0.35467 0.79506 0.0
N750 N 0.14553 0.36671 0.81312 0.0
N751 N 0.11538 0.35206 0.75176 0.0
C752 C 0.15052 0.3617 0.75031 0.0
C753 C 0.16676 0.36956 0.78352 0.0
C754 C 0.67084 0.19705 0.73279 0.0
C755 C 0.69821 0.17116 0.73205 0.0
C756 C 0.65682 0.20912 0.76541 0.0
C757 C 0.67025 0.19613 0.79821 0.0
H758 H 0.663 0.21082 0.70856 0.0
H759 H 0.63769 0.2313 0.76483 0.0
S760 S 0.73327 0.1195 0.8091 0.0
N761 N 0.73153 0.12606 0.76561 0.0
N762 N 0.70588 0.14981 0.82719 0.0
C763 C 0.6935 0.16637 0.79743 0.0
C764 C 0.70739 0.15367 0.76414 0.0
C765 C 0.84813 0.67263 0.73297 0.0
C766 C 0.87251 0.70128 0.73122 0.0
C767 C 0.83563 0.65992 0.76615 0.0
C768 C 0.84668 0.67591 0.79839 0.0
H769 H 0.8358 0.66272 0.70898 0.0
H770 H 0.81416 0.6402 0.76643 0.0
S771 S 0.91751 0.74464 0.80776 0.0
N772 N 0.91366 0.73923 0.76436 0.0
N773 N 0.88852 0.71639 0.82642 0.0
C774 C 0.8748 0.70065 0.79697 0.0
C775 C 0.88806 0.71315 0.76332 0.0
C776 C 0.2614 0.36737 0.17168 0.0
C777 C 0.25765 0.37286 0.20851 0.0
C778 C 0.29521 0.35956 0.15632 0.0
C779 C 0.32635 0.357 0.17726 0.0
H780 H 0.23793 0.36657 0.15505 0.0
H781 H 0.29645 0.35223 0.1284 0.0
S782 S 0.33197 0.37572 0.27376 0.0
N783 N 0.2892 0.38106 0.26453 0.0
N784 N 0.35181 0.36543 0.23556 0.0
C785 C 0.32348 0.36648 0.21321 0.0
C786 C 0.28931 0.37447 0.22889 0.0
C787 C 0.2813 0.73195 0.83447 0.0
C788 C 0.3055 0.70639 0.84839 0.0
C789 C 0.24553 0.72318 0.82873 0.0
C790 C 0.2326 0.68842 0.83647 0.0
H791 H 0.29017 0.7592 0.82808 0.0
H792 H 0.22851 0.74296 0.81574 0.0
S793 S 0.28408 0.6126 0.87586 0.0
N794 N 0.31341 0.646 0.87273 0.0
N795 N 0.24611 0.62853 0.85971 0.0
C796 C 0.25615 0.66287 0.85133 0.0
C797 C 0.29266 0.67206 0.85779 0.0
C798 C 0.37451 0.29953 0.85076 0.0
C799 C 0.34173 0.29941 0.86944 0.0
C800 C 0.39068 0.26669 0.84049 0.0
C801 C 0.37419 0.23304 0.84814 0.0
H802 H 0.38552 0.32469 0.84057 0.0
H803 H 0.41351 0.26779 0.82226 0.0
S804 S 0.29432 0.2187 0.90576 0.0
N805 N 0.29836 0.26315 0.90302 0.0
N806 N 0.32816 0.20174 0.88221 0.0
C807 C 0.34486 0.2327 0.87168 0.0
C808 C 0.3286 0.26597 0.8825 0.0
C809 C 0.74442 0.36187 0.87835 0.0
C810 C 0.71647 0.35117 0.85578 0.0
C811 C 0.77836 0.37158 0.86448 0.0
C812 C 0.78546 0.36974 0.82771 0.0
H813 H 0.74063 0.36051 0.907 0.0
H814 H 0.79925 0.37951 0.88256 0.0
S815 S 0.72207 0.33888 0.75824 0.0
N816 N 0.69844 0.33797 0.79569 0.0
N817 N 0.76196 0.35367 0.76938 0.0
C818 C 0.75744 0.3589 0.80507 0.0
C819 C 0.72295 0.35046 0.81912 0.0
C820 C 0.66821 0.75011 0.84504 0.0
C821 C 0.69775 0.75026 0.86744 0.0
C822 C 0.65416 0.78282 0.83235 0.0
C823 C 0.66944 0.81658 0.8414 0.0
H824 H 0.65846 0.7249 0.83422 0.0
H825 H 0.63363 0.78139 0.8123 0.0
S826 S 0.7405 0.83095 0.90734 0.0
N827 N 0.73634 0.78651 0.90495 0.0
N828 N 0.71069 0.84797 0.87974 0.0
C829 C 0.69542 0.81706 0.86778 0.0
C830 C 0.70942 0.78376 0.88112 0.0
C831 C 0.72935 0.66951 0.18998 0.0
C832 C 0.73043 0.6933 0.16089 0.0
C833 C 0.76126 0.65847 0.20616 0.0
C834 C 0.795 0.67106 0.1938 0.0
H835 H 0.704 0.66299 0.20291 0.0
H836 H 0.75927 0.6427 0.23052 0.0
S837 S 0.81197 0.72702 0.11356 0.0
N838 N 0.76789 0.72326 0.11608 0.0
N839 N 0.82762 0.70325 0.14729 0.0
C840 C 0.79652 0.6906 0.1619 0.0
C841 C 0.76416 0.70144 0.14516 0.0
C842 C 0.38272 0.7649 0.20494 0.0
C843 C 0.37152 0.79913 0.19193 0.0
C844 C 0.36756 0.73275 0.19259 0.0
C845 C 0.34145 0.73402 0.16633 0.0
H846 H 0.40007 0.76316 0.22779 0.0
H847 H 0.373 0.7077 0.20667 0.0
S848 S 0.31335 0.81499 0.11464 0.0
N849 N 0.34011 0.83125 0.14533 0.0
N850 N 0.31268 0.77067 0.12082 0.0
C851 C 0.33544 0.76726 0.14855 0.0
C852 C 0.35031 0.80005 0.16164 0.0
C853 C 0.69014 0.3219 0.2172 0.0
C854 C 0.6833 0.32903 0.18137 0.0
C855 C 0.68683 0.28703 0.23095 0.0
C856 C 0.67548 0.25774 0.20981 0.0
H857 H 0.70212 0.34244 0.23379 0.0
H858 H 0.69482 0.28296 0.2583 0.0
S859 S 0.64718 0.26425 0.11594 0.0
N860 N 0.66079 0.30556 0.12573 0.0
N861 N 0.65214 0.2397 0.15249 0.0
C862 C 0.66533 0.26514 0.17472 0.0
C863 C 0.66954 0.30089 0.16041 0.0
loop_
_geom_bond_atom_site_label_1
_geom_bond_atom_site_label_2
_geom_bond_distance
_geom_bond_site_symmetry_2
_ccdc_geom_bond_type
O0 Cd1 2.223 . S
O0 C8 1.315 . S
Cd1 O0 2.223 . S
Cd1 O4 2.297 . S
Cd1 O5 2.439 . S
Cd1 O11 2.240 . S
Cd2 O3 2.240 . S
Cd2 O10 2.223 . S
Cd2 O12 2.297 . S
Cd2 O13 2.439 . S
O3 Cd2 2.240 . S
O3 C8 1.279 . S
O4 Cd1 2.297 . S
O4 C6 1.247 . S
O5 Cd1 2.439 . S
O5 C6 1.208 . S
C6 O4 1.247 . S
C6 O5 1.208 . S
C7 O12 1.247 . S
C7 O13 1.208 . S
C8 O0 1.315 . S
C8 O3 1.279 . S
C9 O10 1.315 . S
C9 O11 1.279 . S
O10 Cd2 2.223 . S
O10 C9 1.315 . S
O11 Cd1 2.240 . S
O11 C9 1.279 . S
O12 Cd2 2.297 . S
O12 C7 1.247 . S
O13 Cd2 2.439 . S
O13 C7 1.208 . S
O14 Cd15 2.223 . S
O14 C22 1.315 . S
Cd15 O14 2.223 . S
Cd15 O18 2.297 . S
Cd15 O19 2.439 . S
Cd15 O25 2.240 . S
Cd16 O17 2.240 . S
Cd16 O24 2.223 . S
Cd16 O26 2.297 . S
Cd16 O27 2.439 . S
O17 Cd16 2.240 . S
O17 C22 1.279 . S
O18 Cd15 2.297 . S
O18 C20 1.247 . S
O19 Cd15 2.439 . S
O19 C20 1.208 . S
C20 O18 1.247 . S
C20 O19 1.208 . S
C21 O26 1.247 . S
C21 O27 1.208 . S
C22 O14 1.315 . S
C22 O17 1.279 . S
C23 O24 1.315 . S
C23 O25 1.279 . S
O24 Cd16 2.223 . S
O24 C23 1.315 . S
O25 Cd15 2.240 . S
O25 C23 1.279 . S
O26 Cd16 2.297 . S
O26 C21 1.247 . S
O27 Cd16 2.439 . S
O27 C21 1.208 . S
O28 Cd29 2.223 . S
O28 C36 1.315 . S
Cd29 O28 2.223 . S
Cd29 O32 2.297 . S
Cd29 O33 2.439 . S
Cd29 O39 2.240 . S
Cd30 O31 2.240 . S
Cd30 O38 2.223 . S
Cd30 O40 2.297 . S
Cd30 O41 2.439 . S
O31 Cd30 2.240 . S
O31 C36 1.279 . S
O32 Cd29 2.297 . S
O32 C34 1.247 . S
O33 Cd29 2.439 . S
O33 C34 1.208 . S
C34 O32 1.247 . S
C34 O33 1.208 . S
C35 O40 1.247 . S
C35 O41 1.208 . S
C36 O28 1.315 . S
C36 O31 1.279 . S
C37 O38 1.315 . S
C37 O39 1.279 . S
O38 Cd30 2.223 . S
O38 C37 1.315 . S
O39 Cd29 2.240 . S
O39 C37 1.279 . S
O40 Cd30 2.297 . S
O40 C35 1.247 . S
O41 Cd30 2.439 . S
O41 C35 1.208 . S
O42 Cd43 2.223 . S
O42 C50 1.315 . S
Cd43 O42 2.223 . S
Cd43 O46 2.297 . S
Cd43 O47 2.439 . S
Cd43 O53 2.240 . S
Cd44 O45 2.240 . S
Cd44 O52 2.223 . S
Cd44 O54 2.297 . S
Cd44 O55 2.439 . S
O45 Cd44 2.240 . S
O45 C50 1.279 . S
O46 Cd43 2.297 . S
O46 C48 1.247 . S
O47 Cd43 2.439 . S
O47 C48 1.208 . S
C48 O46 1.247 . S
C48 O47 1.208 . S
C49 O54 1.247 . S
C49 O55 1.208 . S
C50 O42 1.315 . S
C50 O45 1.279 . S
C51 O52 1.315 . S
C51 O53 1.279 . S
O52 Cd44 2.223 . S
O52 C51 1.315 . S
O53 Cd43 2.240 . S
O53 C51 1.279 . S
O54 Cd44 2.297 . S
O54 C49 1.247 . S
O55 Cd44 2.439 . S
O55 C49 1.208 . S
O56 Cd57 2.223 . S
O56 C64 1.315 . S
Cd57 O56 2.223 . S
Cd57 O60 2.297 . S
Cd57 O61 2.439 . S
Cd57 O67 2.240 . S
Cd58 O59 2.240 . S
Cd58 O66 2.223 . S
Cd58 O68 2.297 . S
Cd58 O69 2.439 . S
O59 Cd58 2.240 . S
O59 C64 1.279 . S
O60 Cd57 2.297 . S
O60 C62 1.247 . S
O61 Cd57 2.439 . S
O61 C62 1.208 . S
C62 O60 1.247 . S
C62 O61 1.208 . S
C63 O68 1.247 . S
C63 O69 1.208 . S
C64 O56 1.315 . S
C64 O59 1.279 . S
C65 O66 1.315 . S
C65 O67 1.279 . S
O66 Cd58 2.223 . S
O66 C65 1.315 . S
O67 Cd57 2.240 . S
O67 C65 1.279 . S
O68 Cd58 2.297 . S
O68 C63 1.247 . S
O69 Cd58 2.439 . S
O69 C63 1.208 . S
O70 Cd71 2.223 . S
O70 C78 1.315 . S
Cd71 O70 2.223 . S
Cd71 O74 2.297 . S
Cd71 O75 2.439 . S
Cd71 O81 2.240 . S
Cd72 O73 2.240 . S
Cd72 O80 2.223 . S
Cd72 O82 2.297 . S
Cd72 O83 2.439 . S
O73 Cd72 2.240 . S
O73 C78 1.279 . S
O74 Cd71 2.297 . S
O74 C76 1.247 . S
O75 Cd71 2.439 . S
O75 C76 1.208 . S
C76 O74 1.247 . S
C76 O75 1.208 . S
C77 O82 1.247 . S
C77 O83 1.208 . S
C78 O70 1.315 . S
C78 O73 1.279 . S
C79 O80 1.315 . S
C79 O81 1.279 . S
O80 Cd72 2.223 . S
O80 C79 1.315 . S
O81 Cd71 2.240 . S
O81 C79 1.279 . S
O82 Cd72 2.297 . S
O82 C77 1.247 . S
O83 Cd72 2.439 . S
O83 C77 1.208 . S
O84 Cd85 2.223 . S
O84 C92 1.315 . S
Cd85 O84 2.223 . S
Cd85 O88 2.297 . S
Cd85 O89 2.439 . S
Cd85 O95 2.240 . S
Cd86 O87 2.240 . S
Cd86 O94 2.223 . S
Cd86 O96 2.297 . S
Cd86 O97 2.439 . S
O87 Cd86 2.240 . S
O87 C92 1.279 . S
O88 Cd85 2.297 . S
O88 C90 1.247 . S
O89 Cd85 2.439 . S
O89 C90 1.208 . S
C90 O88 1.247 . S
C90 O89 1.208 . S
C91 O96 1.247 . S
C91 O97 1.208 . S
C92 O84 1.315 . S
C92 O87 1.279 . S
C93 O94 1.315 . S
C93 O95 1.279 . S
O94 Cd86 2.223 . S
O94 C93 1.315 . S
O95 Cd85 2.240 . S
O95 C93 1.279 . S
O96 Cd86 2.297 . S
O96 C91 1.247 . S
O97 Cd86 2.439 . S
O97 C91 1.208 . S
O98 Cd99 2.223 . S
O98 C106 1.315 . S
Cd99 O98 2.223 . S
Cd99 O102 2.297 . S
Cd99 O103 2.439 . S
Cd99 O109 2.240 . S
Cd100 O101 2.240 . S
Cd100 O108 2.223 . S
Cd100 O110 2.297 . S
Cd100 O111 2.439 . S
O101 Cd100 2.240 . S
O101 C106 1.279 . S
O102 Cd99 2.297 . S
O102 C104 1.247 . S
O103 Cd99 2.439 . S
O103 C104 1.208 . S
C104 O102 1.247 . S
C104 O103 1.208 . S
C105 O110 1.247 . S
C105 O111 1.208 . S
C106 O98 1.315 . S
C106 O101 1.279 . S
C107 O108 1.315 . S
C107 O109 1.279 . S
O108 Cd100 2.223 . S
O108 C107 1.315 . S
O109 Cd99 2.240 . S
O109 C107 1.279 . S
O110 Cd100 2.297 . S
O110 C105 1.247 . S
O111 Cd100 2.439 . S
O111 C105 1.208 . S
O112 Cd113 2.223 . S
O112 C120 1.315 . S
Cd113 O112 2.223 . S
Cd113 O116 2.297 . S
Cd113 O117 2.439 . S
Cd113 O123 2.240 . S
Cd114 O115 2.240 . S
Cd114 O122 2.223 . S
Cd114 O124 2.297 . S
Cd114 O125 2.439 . S
O115 Cd114 2.240 . S
O115 C120 1.279 . S
O116 Cd113 2.297 . S
O116 C118 1.247 . S
O117 Cd113 2.439 . S
O117 C118 1.208 . S
C118 O116 1.247 . S
C118 O117 1.208 . S
C119 O124 1.247 . S
C119 O125 1.208 . S
C120 O112 1.315 . S
C120 O115 1.279 . S
C121 O122 1.315 . S
C121 O123 1.279 . S
O122 Cd114 2.223 . S
O122 C121 1.315 . S
O123 Cd113 2.240 . S
O123 C121 1.279 . S
O124 Cd114 2.297 . S
O124 C119 1.247 . S
O125 Cd114 2.439 . S
O125 C119 1.208 . S
O126 Cd127 2.223 . S
O126 C134 1.315 . S
Cd127 O126 2.223 . S
Cd127 O130 2.297 . S
Cd127 O131 2.439 . S
Cd127 O137 2.240 . S
Cd128 O129 2.240 . S
Cd128 O136 2.223 . S
Cd128 O138 2.297 . S
Cd128 O139 2.439 . S
O129 Cd128 2.240 . S
O129 C134 1.279 . S
O130 Cd127 2.297 . S
O130 C132 1.247 . S
O131 Cd127 2.439 . S
O131 C132 1.208 . S
C132 O130 1.247 . S
C132 O131 1.208 . S
C133 O138 1.247 . S
C133 O139 1.208 . S
C134 O126 1.315 . S
C134 O129 1.279 . S
C135 O136 1.315 . S
C135 O137 1.279 . S
O136 Cd128 2.223 . S
O136 C135 1.315 . S
O137 Cd127 2.240 . S
O137 C135 1.279 . S
O138 Cd128 2.297 . S
O138 C133 1.247 . S
O139 Cd128 2.439 . S
O139 C133 1.208 . S
O140 Cd141 2.223 . S
O140 C148 1.315 . S
Cd141 O140 2.223 . S
Cd141 O144 2.297 . S
Cd141 O145 2.439 . S
Cd141 O151 2.240 . S
Cd142 O143 2.240 . S
Cd142 O150 2.223 . S
Cd142 O152 2.297 . S
Cd142 O153 2.439 . S
O143 Cd142 2.240 . S
O143 C148 1.279 . S
O144 Cd141 2.297 . S
O144 C146 1.247 . S
O145 Cd141 2.439 . S
O145 C146 1.208 . S
C146 O144 1.247 . S
C146 O145 1.208 . S
C147 O152 1.247 . S
C147 O153 1.208 . S
C148 O140 1.315 . S
C148 O143 1.279 . S
C149 O150 1.315 . S
C149 O151 1.279 . S
O150 Cd142 2.223 . S
O150 C149 1.315 . S
O151 Cd141 2.240 . S
O151 C149 1.279 . S
O152 Cd142 2.297 . S
O152 C147 1.247 . S
O153 Cd142 2.439 . S
O153 C147 1.208 . S
O154 Cd155 2.223 . S
O154 C162 1.315 . S
Cd155 O154 2.223 . S
Cd155 O158 2.297 . S
Cd155 O159 2.439 . S
Cd155 O165 2.240 . S
Cd156 O157 2.240 . S
Cd156 O164 2.223 . S
Cd156 O166 2.297 . S
Cd156 O167 2.439 . S
O157 Cd156 2.240 . S
O157 C162 1.279 . S
O158 Cd155 2.297 . S
O158 C160 1.247 . S
O159 Cd155 2.439 . S
O159 C160 1.208 . S
C160 O158 1.247 . S
C160 O159 1.208 . S
C161 O166 1.247 . S
C161 O167 1.208 . S
C162 O154 1.315 . S
C162 O157 1.279 . S
C163 O164 1.315 . S
C163 O165 1.279 . S
O164 Cd156 2.223 . S
O164 C163 1.315 . S
O165 Cd155 2.240 . S
O165 C163 1.279 . S
O166 Cd156 2.297 . S
O166 C161 1.247 . S
O167 Cd156 2.439 . S
O167 C161 1.208 . S
O168 Cd169 2.223 . S
O168 C176 1.315 . S
Cd169 O168 2.223 . S
Cd169 O172 2.297 . S
Cd169 O173 2.439 . S
Cd169 O179 2.240 . S
Cd170 O171 2.240 . S
Cd170 O178 2.223 . S
Cd170 O180 2.297 . S
Cd170 O181 2.439 . S
O171 Cd170 2.240 . S
O171 C176 1.279 . S
O172 Cd169 2.297 . S
O172 C174 1.247 . S
O173 Cd169 2.439 . S
O173 C174 1.208 . S
C174 O172 1.247 . S
C174 O173 1.208 . S
C175 O180 1.247 . S
C175 O181 1.208 . S
C176 O168 1.315 . S
C176 O171 1.279 . S
C177 O178 1.315 . S
C177 O179 1.279 . S
O178 Cd170 2.223 . S
O178 C177 1.315 . S
O179 Cd169 2.240 . S
O179 C177 1.279 . S
O180 Cd170 2.297 . S
O180 C175 1.247 . S
O181 Cd170 2.439 . S
O181 C175 1.208 . S
O182 Cd183 2.223 . S
O182 C190 1.315 . S
Cd183 O182 2.223 . S
Cd183 O186 2.297 . S
Cd183 O187 2.439 . S
Cd183 O193 2.240 . S
Cd184 O185 2.240 . S
Cd184 O192 2.223 . S
Cd184 O194 2.297 . S
Cd184 O195 2.439 . S
O185 Cd184 2.240 . S
O185 C190 1.279 . S
O186 Cd183 2.297 . S
O186 C188 1.247 . S
O187 Cd183 2.439 . S
O187 C188 1.208 . S
C188 O186 1.247 . S
C188 O187 1.208 . S
C189 O194 1.247 . S
C189 O195 1.208 . S
C190 O182 1.315 . S
C190 O185 1.279 . S
C191 O192 1.315 . S
C191 O193 1.279 . S
O192 Cd184 2.223 . S
O192 C191 1.315 . S
O193 Cd183 2.240 . S
O193 C191 1.279 . S
O194 Cd184 2.297 . S
O194 C189 1.247 . S
O195 Cd184 2.439 . S
O195 C189 1.208 . S
O196 Cd197 2.223 . S
O196 C204 1.315 . S
Cd197 O196 2.223 . S
Cd197 O200 2.297 . S
Cd197 O201 2.439 . S
Cd197 O207 2.240 . S
Cd198 O199 2.240 . S
Cd198 O206 2.223 . S
Cd198 O208 2.297 . S
Cd198 O209 2.439 . S
O199 Cd198 2.240 . S
O199 C204 1.279 . S
O200 Cd197 2.297 . S
O200 C202 1.247 . S
O201 Cd197 2.439 . S
O201 C202 1.208 . S
C202 O200 1.247 . S
C202 O201 1.208 . S
C203 O208 1.247 . S
C203 O209 1.208 . S
C204 O196 1.315 . S
C204 O199 1.279 . S
C205 O206 1.315 . S
C205 O207 1.279 . S
O206 Cd198 2.223 . S
O206 C205 1.315 . S
O207 Cd197 2.240 . S
O207 C205 1.279 . S
O208 Cd198 2.297 . S
O208 C203 1.247 . S
O209 Cd198 2.439 . S
O209 C203 1.208 . S
O210 Cd211 2.223 . S
O210 C218 1.315 . S
Cd211 O210 2.223 . S
Cd211 O214 2.297 . S
Cd211 O215 2.439 . S
Cd211 O221 2.240 . S
Cd212 O213 2.240 . S
Cd212 O220 2.223 . S
Cd212 O222 2.297 . S
Cd212 O223 2.439 . S
O213 Cd212 2.240 . S
O213 C218 1.279 . S
O214 Cd211 2.297 . S
O214 C216 1.247 . S
O215 Cd211 2.439 . S
O215 C216 1.208 . S
C216 O214 1.247 . S
C216 O215 1.208 . S
C217 O222 1.247 . S
C217 O223 1.208 . S
C218 O210 1.315 . S
C218 O213 1.279 . S
C219 O220 1.315 . S
C219 O221 1.279 . S
O220 Cd212 2.223 . S
O220 C219 1.315 . S
O221 Cd211 2.240 . S
O221 C219 1.279 . S
O222 Cd212 2.297 . S
O222 C217 1.247 . S
O223 Cd212 2.439 . S
O223 C217 1.208 . S
O224 Cd225 2.223 . S
O224 C232 1.315 . S
Cd225 O224 2.223 . S
Cd225 O228 2.297 . S
Cd225 O229 2.439 . S
Cd225 O235 2.240 . S
Cd226 O227 2.240 . S
Cd226 O234 2.223 . S
Cd226 O236 2.297 . S
Cd226 O237 2.439 . S
O227 Cd226 2.240 . S
O227 C232 1.279 . S
O228 Cd225 2.297 . S
O228 C230 1.247 . S
O229 Cd225 2.439 . S
O229 C230 1.208 . S
C230 O228 1.247 . S
C230 O229 1.208 . S
C231 O236 1.247 . S
C231 O237 1.208 . S
C232 O224 1.315 . S
C232 O227 1.279 . S
C233 O234 1.315 . S
C233 O235 1.279 . S
O234 Cd226 2.223 . S
O234 C233 1.315 . S
O235 Cd225 2.240 . S
O235 C233 1.279 . S
O236 Cd226 2.297 . S
O236 C231 1.247 . S
O237 Cd226 2.439 . S
O237 C231 1.208 . S
O238 Cd239 2.223 . S
O238 C246 1.315 . S
Cd239 O238 2.223 . S
Cd239 O242 2.297 . S
Cd239 O243 2.439 . S
Cd239 O249 2.240 . S
Cd240 O241 2.240 . S
Cd240 O248 2.223 . S
Cd240 O250 2.297 . S
Cd240 O251 2.439 . S
O241 Cd240 2.240 . S
O241 C246 1.279 . S
O242 Cd239 2.297 . S
O242 C244 1.247 . S
O243 Cd239 2.439 . S
O243 C244 1.208 . S
C244 O242 1.247 . S
C244 O243 1.208 . S
C245 O250 1.247 . S
C245 O251 1.208 . S
C246 O238 1.315 . S
C246 O241 1.279 . S
C247 O248 1.315 . S
C247 O249 1.279 . S
O248 Cd240 2.223 . S
O248 C247 1.315 . S
O249 Cd239 2.240 . S
O249 C247 1.279 . S
O250 Cd240 2.297 . S
O250 C245 1.247 . S
O251 Cd240 2.439 . S
O251 C245 1.208 . S
O252 Cd253 2.223 . S
O252 C260 1.315 . S
Cd253 O252 2.223 . S
Cd253 O256 2.297 . S
Cd253 O257 2.439 . S
Cd253 O263 2.240 . S
Cd254 O255 2.240 . S
Cd254 O262 2.223 . S
Cd254 O264 2.297 . S
Cd254 O265 2.439 . S
O255 Cd254 2.240 . S
O255 C260 1.279 . S
O256 Cd253 2.297 . S
O256 C258 1.247 . S
O257 Cd253 2.439 . S
O257 C258 1.208 . S
C258 O256 1.247 . S
C258 O257 1.208 . S
C259 O264 1.247 . S
C259 O265 1.208 . S
C260 O252 1.315 . S
C260 O255 1.279 . S
C261 O262 1.315 . S
C261 O263 1.279 . S
O262 Cd254 2.223 . S
O262 C261 1.315 . S
O263 Cd253 2.240 . S
O263 C261 1.279 . S
O264 Cd254 2.297 . S
O264 C259 1.247 . S
O265 Cd254 2.439 . S
O265 C259 1.208 . S
O266 Cd267 2.223 . S
O266 C274 1.315 . S
Cd267 O266 2.223 . S
Cd267 O270 2.297 . S
Cd267 O271 2.439 . S
Cd267 O277 2.240 . S
Cd268 O269 2.240 . S
Cd268 O276 2.223 . S
Cd268 O278 2.297 . S
Cd268 O279 2.439 . S
O269 Cd268 2.240 . S
O269 C274 1.279 . S
O270 Cd267 2.297 . S
O270 C272 1.247 . S
O271 Cd267 2.439 . S
O271 C272 1.208 . S
C272 O270 1.247 . S
C272 O271 1.208 . S
C273 O278 1.247 . S
C273 O279 1.208 . S
C274 O266 1.315 . S
C274 O269 1.279 . S
C275 O276 1.315 . S
C275 O277 1.279 . S
O276 Cd268 2.223 . S
O276 C275 1.315 . S
O277 Cd267 2.240 . S
O277 C275 1.279 . S
O278 Cd268 2.297 . S
O278 C273 1.247 . S
O279 Cd268 2.439 . S
O279 C273 1.208 . S
O280 Cd281 2.223 . S
O280 C288 1.315 . S
Cd281 O280 2.223 . S
Cd281 O284 2.297 . S
Cd281 O285 2.439 . S
Cd281 O291 2.240 . S
Cd282 O283 2.240 . S
Cd282 O290 2.223 . S
Cd282 O292 2.297 . S
Cd282 O293 2.439 . S
O283 Cd282 2.240 . S
O283 C288 1.279 . S
O284 Cd281 2.297 . S
O284 C286 1.247 . S
O285 Cd281 2.439 . S
O285 C286 1.208 . S
C286 O284 1.247 . S
C286 O285 1.208 . S
C287 O292 1.247 . S
C287 O293 1.208 . S
C288 O280 1.315 . S
C288 O283 1.279 . S
C289 O290 1.315 . S
C289 O291 1.279 . S
O290 Cd282 2.223 . S
O290 C289 1.315 . S
O291 Cd281 2.240 . S
O291 C289 1.279 . S
O292 Cd282 2.297 . S
O292 C287 1.247 . S
O293 Cd282 2.439 . S
O293 C287 1.208 . S
O294 Cd295 2.223 . S
O294 C302 1.315 . S
Cd295 O294 2.223 . S
Cd295 O298 2.297 . S
Cd295 O299 2.439 . S
Cd295 O305 2.240 . S
Cd296 O297 2.240 . S
Cd296 O304 2.223 . S
Cd296 O306 2.297 . S
Cd296 O307 2.439 . S
O297 Cd296 2.240 . S
O297 C302 1.279 . S
O298 Cd295 2.297 . S
O298 C300 1.247 . S
O299 Cd295 2.439 . S
O299 C300 1.208 . S
C300 O298 1.247 . S
C300 O299 1.208 . S
C301 O306 1.247 . S
C301 O307 1.208 . S
C302 O294 1.315 . S
C302 O297 1.279 . S
C303 O304 1.315 . S
C303 O305 1.279 . S
O304 Cd296 2.223 . S
O304 C303 1.315 . S
O305 Cd295 2.240 . S
O305 C303 1.279 . S
O306 Cd296 2.297 . S
O306 C301 1.247 . S
O307 Cd296 2.439 . S
O307 C301 1.208 . S
O308 Cd309 2.223 . S
O308 C316 1.315 . S
Cd309 O308 2.223 . S
Cd309 O312 2.297 . S
Cd309 O313 2.439 . S
Cd309 O319 2.240 . S
Cd310 O311 2.240 . S
Cd310 O318 2.223 . S
Cd310 O320 2.297 . S
Cd310 O321 2.439 . S
O311 Cd310 2.240 . S
O311 C316 1.279 . S
O312 Cd309 2.297 . S
O312 C314 1.247 . S
O313 Cd309 2.439 . S
O313 C314 1.208 . S
C314 O312 1.247 . S
C314 O313 1.208 . S
C315 O320 1.247 . S
C315 O321 1.208 . S
C316 O308 1.315 . S
C316 O311 1.279 . S
C317 O318 1.315 . S
C317 O319 1.279 . S
O318 Cd310 2.223 . S
O318 C317 1.315 . S
O319 Cd309 2.240 . S
O319 C317 1.279 . S
O320 Cd310 2.297 . S
O320 C315 1.247 . S
O321 Cd310 2.439 . S
O321 C315 1.208 . S
O322 Cd323 2.223 . S
O322 C330 1.315 . S
Cd323 O322 2.223 . S
Cd323 O326 2.297 . S
Cd323 O327 2.439 . S
Cd323 O333 2.240 . S
Cd324 O325 2.240 . S
Cd324 O332 2.223 . S
Cd324 O334 2.297 . S
Cd324 O335 2.439 . S
O325 Cd324 2.240 . S
O325 C330 1.279 . S
O326 Cd323 2.297 . S
O326 C328 1.247 . S
O327 Cd323 2.439 . S
O327 C328 1.208 . S
C328 O326 1.247 . S
C328 O327 1.208 . S
C329 O334 1.247 . S
C329 O335 1.208 . S
C330 O322 1.315 . S
C330 O325 1.279 . S
C331 O332 1.315 . S
C331 O333 1.279 . S
O332 Cd324 2.223 . S
O332 C331 1.315 . S
O333 Cd323 2.240 . S
O333 C331 1.279 . S
O334 Cd324 2.297 . S
O334 C329 1.247 . S
O335 Cd324 2.439 . S
O335 C329 1.208 . S
C336 C337 1.369 . S
C336 C338 1.419 . S
C336 H340 0.930 . S
C337 C336 1.369 . S
C337 C346 1.429 . S
C338 C336 1.419 . S
C338 C339 1.363 . S
C338 H341 0.929 . S
C339 C338 1.363 . S
C339 C345 1.428 . S
H340 C336 0.930 . S
H341 C338 0.929 . S
S342 N343 1.613 . S
S342 N344 1.610 . S
N343 S342 1.613 . S
N343 C346 1.350 . S
N344 S342 1.610 . S
N344 C345 1.351 . S
C345 C339 1.428 . S
C345 N344 1.351 . S
C345 C346 1.434 . S
C346 C337 1.429 . S
C346 N343 1.350 . S
C346 C345 1.434 . S
C347 C348 1.369 . S
C347 C349 1.419 . S
C347 H351 0.930 . S
C348 C347 1.369 . S
C348 C357 1.429 . S
C349 C347 1.419 . S
C349 C350 1.363 . S
C349 H352 0.929 . S
C350 C349 1.363 . S
C350 C356 1.428 . S
H351 C347 0.930 . S
H352 C349 0.929 . S
S353 N354 1.613 . S
S353 N355 1.610 . S
N354 S353 1.613 . S
N354 C357 1.350 . S
N355 S353 1.610 . S
N355 C356 1.351 . S
C356 C350 1.428 . S
C356 N355 1.351 . S
C356 C357 1.434 . S
C357 C348 1.429 . S
C357 N354 1.350 . S
C357 C356 1.434 . S
C358 C359 1.369 . S
C358 C360 1.419 . S
C358 H362 0.930 . S
C359 C358 1.369 . S
C359 C368 1.429 . S
C360 C358 1.419 . S
C360 C361 1.363 . S
C360 H363 0.929 . S
C361 C360 1.363 . S
C361 C367 1.428 . S
H362 C358 0.930 . S
H363 C360 0.929 . S
S364 N365 1.613 . S
S364 N366 1.610 . S
N365 S364 1.613 . S
N365 C368 1.350 . S
N366 S364 1.610 . S
N366 C367 1.351 . S
C367 C361 1.428 . S
C367 N366 1.351 . S
C367 C368 1.434 . S
C368 C359 1.429 . S
C368 N365 1.350 . S
C368 C367 1.434 . S
C369 C370 1.369 . S
C369 C371 1.419 . S
C369 H373 0.930 . S
C370 C369 1.369 . S
C370 C379 1.429 . S
C371 C369 1.419 . S
C371 C372 1.363 . S
C371 H374 0.929 . S
C372 C371 1.363 . S
C372 C378 1.428 . S
H373 C369 0.930 . S
H374 C371 0.929 . S
S375 N376 1.613 . S
S375 N377 1.610 . S
N376 S375 1.613 . S
N376 C379 1.350 . S
N377 S375 1.610 . S
N377 C378 1.351 . S
C378 C372 1.428 . S
C378 N377 1.351 . S
C378 C379 1.434 . S
C379 C370 1.429 . S
C379 N376 1.350 . S
C379 C378 1.434 . S
C380 C381 1.369 . S
C380 C382 1.419 . S
C380 H384 0.930 . S
C381 C380 1.369 . S
C381 C390 1.429 . S
C382 C380 1.419 . S
C382 C383 1.363 . S
C382 H385 0.929 . S
C383 C382 1.363 . S
C383 C389 1.428 . S
H384 C380 0.930 . S
H385 C382 0.929 . S
S386 N387 1.613 . S
S386 N388 1.610 . S
N387 S386 1.613 . S
N387 C390 1.350 . S
N388 S386 1.610 . S
N388 C389 1.351 . S
C389 C383 1.428 . S
C389 N388 1.351 . S
C389 C390 1.434 . S
C390 C381 1.429 . S
C390 N387 1.350 . S
C390 C389 1.434 . S
C391 C392 1.369 . S
C391 C393 1.419 . S
C391 H395 0.930 . S
C392 C391 1.369 . S
C392 C401 1.429 . S
C393 C391 1.419 . S
C393 C394 1.363 . S
C393 H396 0.929 . S
C394 C393 1.363 . S
C394 C400 1.428 . S
H395 C391 0.930 . S
H396 C393 0.929 . S
S397 N398 1.613 . S
S397 N399 1.610 . S
N398 S397 1.613 . S
N398 C401 1.350 . S
N399 S397 1.610 . S
N399 C400 1.351 . S
C400 C394 1.428 . S
C400 N399 1.351 . S
C400 C401 1.434 . S
C401 C392 1.429 . S
C401 N398 1.350 . S
C401 C400 1.434 . S
C402 C403 1.369 . S
C402 C404 1.419 . S
C402 H406 0.930 . S
C403 C402 1.369 . S
C403 C412 1.429 . S
C404 C402 1.419 . S
C404 C405 1.363 . S
C404 H407 0.929 . S
C405 C404 1.363 . S
C405 C411 1.428 . S
H406 C402 0.930 . S
H407 C404 0.929 . S
S408 N409 1.613 . S
S408 N410 1.610 . S
N409 S408 1.613 . S
N409 C412 1.350 . S
N410 S408 1.610 . S
N410 C411 1.351 . S
C411 C405 1.428 . S
C411 N410 1.351 . S
C411 C412 1.434 . S
C412 C403 1.429 . S
C412 N409 1.350 . S
C412 C411 1.434 . S
C413 C414 1.369 . S
C413 C415 1.419 . S
C413 H417 0.930 . S
C414 C413 1.369 . S
C414 C423 1.429 . S
C415 C413 1.419 . S
C415 C416 1.363 . S
C415 H418 0.929 . S
C416 C415 1.363 . S
C416 C422 1.428 . S
H417 C413 0.930 . S
H418 C415 0.929 . S
S419 N420 1.613 . S
S419 N421 1.610 . S
N420 S419 1.613 . S
N420 C423 1.350 . S
N421 S419 1.610 . S
N421 C422 1.351 . S
C422 C416 1.428 . S
C422 N421 1.351 . S
C422 C423 1.434 . S
C423 C414 1.429 . S
C423 N420 1.350 . S
C423 C422 1.434 . S
C424 C425 1.369 . S
C424 C426 1.419 . S
C424 H428 0.930 . S
C425 C424 1.369 . S
C425 C434 1.429 . S
C426 C424 1.419 . S
C426 C427 1.363 . S
C426 H429 0.929 . S
C427 C426 1.363 . S
C427 C433 1.428 . S
H428 C424 0.930 . S
H429 C426 0.929 . S
S430 N431 1.613 . S
S430 N432 1.610 . S
N431 S430 1.613 . S
N431 C434 1.350 . S
N432 S430 1.610 . S
N432 C433 1.351 . S
C433 C427 1.428 . S
C433 N432 1.351 . S
C433 C434 1.434 . S
C434 C425 1.429 . S
C434 N431 1.350 . S
C434 C433 1.434 . S
C435 C436 1.369 . S
C435 C437 1.419 . S
C435 H439 0.930 . S
C436 C435 1.369 . S
C436 C445 1.429 . S
C437 C435 1.419 . S
C437 C438 1.363 . S
C437 H440 0.929 . S
C438 C437 1.363 . S
C438 C444 1.428 . S
H439 C435 0.930 . S
H440 C437 0.929 . S
S441 N442 1.613 . S
S441 N443 1.610 . S
N442 S441 1.613 . S
N442 C445 1.350 . S
N443 S441 1.610 . S
N443 C444 1.351 . S
C444 C438 1.428 . S
C444 N443 1.351 . S
C444 C445 1.434 . S
C445 C436 1.429 . S
C445 N442 1.350 . S
C445 C444 1.434 . S
C446 C447 1.369 . S
C446 C448 1.419 . S
C446 H450 0.930 . S
C447 C446 1.369 . S
C447 C456 1.429 . S
C448 C446 1.419 . S
C448 C449 1.363 . S
C448 H451 0.929 . S
C449 C448 1.363 . S
C449 C455 1.428 . S
H450 C446 0.930 . S
H451 C448 0.929 . S
S452 N453 1.613 . S
S452 N454 1.610 . S
N453 S452 1.613 . S
N453 C456 1.350 . S
N454 S452 1.610 . S
N454 C455 1.351 . S
C455 C449 1.428 . S
C455 N454 1.351 . S
C455 C456 1.434 . S
C456 C447 1.429 . S
C456 N453 1.350 . S
C456 C455 1.434 . S
C457 C458 1.369 . S
C457 C459 1.419 . S
C457 H461 0.930 . S
C458 C457 1.369 . S
C458 C467 1.429 . S
C459 C457 1.419 . S
C459 C460 1.363 . S
C459 H462 0.929 . S
C460 C459 1.363 . S
C460 C466 1.428 . S
H461 C457 0.930 . S
H462 C459 0.929 . S
S463 N464 1.613 . S
S463 N465 1.610 . S
N464 S463 1.613 . S
N464 C467 1.350 . S
N465 S463 1.610 . S
N465 C466 1.351 . S
C466 C460 1.428 . S
C466 N465 1.351 . S
C466 C467 1.434 . S
C467 C458 1.429 . S
C467 N464 1.350 . S
C467 C466 1.434 . S
C468 C469 1.369 . S
C468 C470 1.419 . S
C468 H472 0.930 . S
C469 C468 1.369 . S
C469 C478 1.429 1_565 S
C470 C468 1.419 . S
C470 C471 1.363 1_565 S
C470 H473 0.929 . S
C471 C470 1.363 1_545 S
C471 C477 1.428 . S
H472 C468 0.930 . S
H473 C470 0.929 . S
S474 N475 1.613 . S
S474 N476 1.610 . S
N475 S474 1.613 . S
N475 C478 1.350 . S
N476 S474 1.610 . S
N476 C477 1.351 . S
C477 C471 1.428 . S
C477 N476 1.351 . S
C477 C478 1.434 . S
C478 C469 1.429 1_545 S
C478 N475 1.350 . S
C478 C477 1.434 . S
C479 C480 1.369 . S
C479 C481 1.419 . S
C479 H483 0.930 . S
C480 C479 1.369 . S
C480 C489 1.429 1_655 S
C481 C479 1.419 . S
C481 C482 1.363 1_655 S
C481 H484 0.929 . S
C482 C481 1.363 1_455 S
C482 C488 1.428 . S
H483 C479 0.930 . S
H484 C481 0.929 . S
S485 N486 1.613 . S
S485 N487 1.610 . S
N486 S485 1.613 . S
N486 C489 1.350 . S
N487 S485 1.610 . S
N487 C488 1.351 . S
C488 C482 1.428 . S
C488 N487 1.351 . S
C488 C489 1.434 . S
C489 C480 1.429 1_455 S
C489 N486 1.350 . S
C489 C488 1.434 . S
C490 C491 1.369 1_565 S
C490 C492 1.419 . S
C490 H494 0.930 . S
C491 C490 1.369 1_545 S
C491 C500 1.429 . S
C492 C490 1.419 . S
C492 C493 1.363 . S
C492 H495 0.929 . S
C493 C492 1.363 . S
C493 C499 1.428 1_565 S
H494 C490 0.930 . S
H495 C492 0.929 . S
S496 N497 1.613 . S
S496 N498 1.610 . S
N497 S496 1.613 . S
N497 C500 1.350 . S
N498 S496 1.610 . S
N498 C499 1.351 . S
C499 C493 1.428 1_545 S
C499 N498 1.351 . S
C499 C500 1.434 . S
C500 C491 1.429 . S
C500 N497 1.350 . S
C500 C499 1.434 . S
C501 C502 1.369 . S
C501 C503 1.419 . S
C501 H505 0.930 . S
C502 C501 1.369 . S
C502 C511 1.429 1_455 S
C503 C501 1.419 . S
C503 C504 1.363 1_455 S
C503 H506 0.929 . S
C504 C503 1.363 1_655 S
C504 C510 1.428 . S
H505 C501 0.930 . S
H506 C503 0.929 . S
S507 N508 1.613 . S
S507 N509 1.610 . S
N508 S507 1.613 . S
N508 C511 1.350 . S
N509 S507 1.610 . S
N509 C510 1.351 . S
C510 C504 1.428 . S
C510 N509 1.351 . S
C510 C511 1.434 . S
C511 C502 1.429 1_655 S
C511 N508 1.350 . S
C511 C510 1.434 . S
C512 C513 1.369 . S
C512 C514 1.419 . S
C512 H516 0.930 . S
C513 C512 1.369 . S
C513 C522 1.429 1_565 S
C514 C512 1.419 . S
C514 C515 1.363 1_565 S
C514 H517 0.929 . S
C515 C514 1.363 1_545 S
C515 C521 1.428 . S
H516 C512 0.930 . S
H517 C514 0.929 . S
S518 N519 1.613 . S
S518 N520 1.610 . S
N519 S518 1.613 . S
N519 C522 1.350 . S
N520 S518 1.610 . S
N520 C521 1.351 . S
C521 C515 1.428 . S
C521 N520 1.351 . S
C521 C522 1.434 . S
C522 C513 1.429 1_545 S
C522 N519 1.350 . S
C522 C521 1.434 . S
C523 C524 1.369 . S
C523 C525 1.419 . S
C523 H527 0.930 . S
C524 C523 1.369 . S
C524 C533 1.429 1_655 S
C525 C523 1.419 . S
C525 C526 1.363 1_655 S
C525 H528 0.929 . S
C526 C525 1.363 1_455 S
C526 C532 1.428 . S
H527 C523 0.930 . S
H528 C525 0.929 . S
S529 N530 1.613 . S
S529 N531 1.610 . S
N530 S529 1.613 . S
N530 C533 1.350 . S
N531 S529 1.610 . S
N531 C532 1.351 . S
C532 C526 1.428 . S
C532 N531 1.351 . S
C532 C533 1.434 . S
C533 C524 1.429 1_455 S
C533 N530 1.350 . S
C533 C532 1.434 . S
C534 C535 1.369 . S
C534 C536 1.419 . S
C534 H538 0.930 . S
C535 C534 1.369 . S
C535 C544 1.429 1_565 S
C536 C534 1.419 . S
C536 C537 1.363 1_565 S
C536 H539 0.929 . S
C537 C536 1.363 1_545 S
C537 C543 1.428 . S
H538 C534 0.930 . S
H539 C536 0.929 . S
S540 N541 1.613 . S
S540 N542 1.610 . S
N541 S540 1.613 . S
N541 C544 1.350 . S
N542 S540 1.610 . S
N542 C543 1.351 . S
C543 C537 1.428 . S
C543 N542 1.351 . S
C543 C544 1.434 . S
C544 C535 1.429 1_545 S
C544 N541 1.350 . S
C544 C543 1.434 . S
C545 C546 1.369 . S
C545 C547 1.419 1_455 S
C545 H549 0.930 . S
C546 C545 1.369 . S
C546 C555 1.429 . S
C547 C545 1.419 1_655 S
C547 C548 1.363 . S
C547 H550 0.929 . S
C548 C547 1.363 . S
C548 C554 1.428 . S
H549 C545 0.930 . S
H550 C547 0.929 . S
S551 N552 1.613 . S
S551 N553 1.610 1_455 S
N552 S551 1.613 . S
N552 C555 1.350 . S
N553 S551 1.610 1_655 S
N553 C554 1.351 . S
C554 C548 1.428 . S
C554 N553 1.351 . S
C554 C555 1.434 1_655 S
C555 C546 1.429 . S
C555 N552 1.350 . S
C555 C554 1.434 1_455 S
C556 C557 1.369 1_554 S
C556 C558 1.419 . S
C556 H560 0.930 . S
C557 C556 1.369 1_556 S
C557 C566 1.429 . S
C558 C556 1.419 . S
C558 C559 1.363 . S
C558 H561 0.929 . S
C559 C558 1.363 . S
C559 C565 1.428 1_554 S
H560 C556 0.930 . S
H561 C558 0.929 . S
S562 N563 1.613 . S
S562 N564 1.610 . S
N563 S562 1.613 . S
N563 C566 1.350 . S
N564 S562 1.610 . S
N564 C565 1.351 . S
C565 C559 1.428 1_556 S
C565 N564 1.351 . S
C565 C566 1.434 . S
C566 C557 1.429 . S
C566 N563 1.350 . S
C566 C565 1.434 . S
C567 C568 1.369 1_556 S
C567 C569 1.419 . S
C567 H571 0.930 . S
C568 C567 1.369 1_554 S
C568 C577 1.429 . S
C569 C567 1.419 . S
C569 C570 1.363 . S
C569 H572 0.929 . S
C570 C569 1.363 . S
C570 C576 1.428 1_556 S
H571 C567 0.930 . S
H572 C569 0.929 . S
S573 N574 1.613 . S
S573 N575 1.610 . S
N574 S573 1.613 . S
N574 C577 1.350 . S
N575 S573 1.610 . S
N575 C576 1.351 . S
C576 C570 1.428 1_554 S
C576 N575 1.351 . S
C576 C577 1.434 . S
C577 C568 1.429 . S
C577 N574 1.350 . S
C577 C576 1.434 . S
C578 C579 1.369 1_554 S
C578 C580 1.419 . S
C578 H582 0.930 . S
C579 C578 1.369 1_556 S
C579 C588 1.429 . S
C580 C578 1.419 . S
C580 C581 1.363 . S
C580 H583 0.929 . S
C581 C580 1.363 . S
C581 C587 1.428 1_554 S
H582 C578 0.930 . S
H583 C580 0.929 . S
S584 N585 1.613 . S
S584 N586 1.610 . S
N585 S584 1.613 . S
N585 C588 1.350 . S
N586 S584 1.610 . S
N586 C587 1.351 . S
C587 C581 1.428 1_556 S
C587 N586 1.351 . S
C587 C588 1.434 . S
C588 C579 1.429 . S
C588 N585 1.350 . S
C588 C587 1.434 . S
C589 C590 1.369 . S
C589 C591 1.419 1_554 S
C589 H593 0.930 . S
C590 C589 1.369 . S
C590 C599 1.429 . S
C591 C589 1.419 1_556 S
C591 C592 1.363 . S
C591 H594 0.929 . S
C592 C591 1.363 . S
C592 C598 1.428 . S
H593 C589 0.930 . S
H594 C591 0.929 . S
S595 N596 1.613 1_556 S
S595 N597 1.610 . S
N596 S595 1.613 1_554 S
N596 C599 1.350 . S
N597 S595 1.610 . S
N597 C598 1.351 . S
C598 C592 1.428 . S
C598 N597 1.351 . S
C598 C599 1.434 1_556 S
C599 C590 1.429 . S
C599 N596 1.350 . S
C599 C598 1.434 1_554 S
C600 C601 1.369 . S
C600 C602 1.419 . S
C600 H604 0.930 . S
C601 C600 1.369 . S
C601 C610 1.429 . S
C602 C600 1.419 . S
C602 C603 1.363 . S
C602 H605 0.929 . S
C603 C602 1.363 . S
C603 C609 1.428 . S
H604 C600 0.930 . S
H605 C602 0.929 . S
S606 N607 1.613 . S
S606 N608 1.610 . S
N607 S606 1.613 . S
N607 C610 1.350 . S
N608 S606 1.610 . S
N608 C609 1.351 . S
C609 C603 1.428 . S
C609 N608 1.351 . S
C609 C610 1.434 . S
C610 C601 1.429 . S
C610 N607 1.350 . S
C610 C609 1.434 . S
C611 C612 1.369 . S
C611 C613 1.419 . S
C611 H615 0.930 . S
C612 C611 1.369 . S
C612 C621 1.429 . S
C613 C611 1.419 . S
C613 C614 1.363 . S
C613 H616 0.929 . S
C614 C613 1.363 . S
C614 C620 1.428 . S
H615 C611 0.930 . S
H616 C613 0.929 . S
S617 N618 1.613 . S
S617 N619 1.610 . S
N618 S617 1.613 . S
N618 C621 1.350 . S
N619 S617 1.610 . S
N619 C620 1.351 . S
C620 C614 1.428 . S
C620 N619 1.351 . S
C620 C621 1.434 . S
C621 C612 1.429 . S
C621 N618 1.350 . S
C621 C620 1.434 . S
C622 C623 1.369 . S
C622 C624 1.419 . S
C622 H626 0.930 . S
C623 C622 1.369 . S
C623 C632 1.429 . S
C624 C622 1.419 . S
C624 C625 1.363 . S
C624 H627 0.929 . S
C625 C624 1.363 . S
C625 C631 1.428 . S
H626 C622 0.930 . S
H627 C624 0.929 . S
S628 N629 1.613 . S
S628 N630 1.610 . S
N629 S628 1.613 . S
N629 C632 1.350 . S
N630 S628 1.610 . S
N630 C631 1.351 . S
C631 C625 1.428 . S
C631 N630 1.351 . S
C631 C632 1.434 . S
C632 C623 1.429 . S
C632 N629 1.350 . S
C632 C631 1.434 . S
C633 C634 1.369 . S
C633 C635 1.419 . S
C633 H637 0.930 . S
C634 C633 1.369 . S
C634 C643 1.429 . S
C635 C633 1.419 . S
C635 C636 1.363 . S
C635 H638 0.929 . S
C636 C635 1.363 . S
C636 C642 1.428 . S
H637 C633 0.930 . S
H638 C635 0.929 . S
S639 N640 1.613 . S
S639 N641 1.610 . S
N640 S639 1.613 . S
N640 C643 1.350 . S
N641 S639 1.610 . S
N641 C642 1.351 . S
C642 C636 1.428 . S
C642 N641 1.351 . S
C642 C643 1.434 . S
C643 C634 1.429 . S
C643 N640 1.350 . S
C643 C642 1.434 . S
C644 C645 1.369 . S
C644 C646 1.419 . S
C644 H648 0.930 . S
C645 C644 1.369 . S
C645 C654 1.429 . S
C646 C644 1.419 . S
C646 C647 1.363 . S
C646 H649 0.929 . S
C647 C646 1.363 . S
C647 C653 1.428 . S
H648 C644 0.930 . S
H649 C646 0.929 . S
S650 N651 1.613 . S
S650 N652 1.610 . S
N651 S650 1.613 . S
N651 C654 1.350 . S
N652 S650 1.610 . S
N652 C653 1.351 . S
C653 C647 1.428 . S
C653 N652 1.351 . S
C653 C654 1.434 . S
C654 C645 1.429 . S
C654 N651 1.350 . S
C654 C653 1.434 . S
C655 C656 1.369 . S
C655 C657 1.419 . S
C655 H659 0.930 . S
C656 C655 1.369 . S
C656 C665 1.429 . S
C657 C655 1.419 . S
C657 C658 1.363 . S
C657 H660 0.929 . S
C658 C657 1.363 . S
C658 C664 1.428 . S
H659 C655 0.930 . S
H660 C657 0.929 . S
S661 N662 1.613 . S
S661 N663 1.610 . S
N662 S661 1.613 . S
N662 C665 1.350 . S
N663 S661 1.610 . S
N663 C664 1.351 . S
C664 C658 1.428 . S
C664 N663 1.351 . S
C664 C665 1.434 . S
C665 C656 1.429 . S
C665 N662 1.350 . S
C665 C664 1.434 . S
C666 C667 1.369 . S
C666 C668 1.419 . S
C666 H670 0.930 . S
C667 C666 1.369 . S
C667 C676 1.429 . S
C668 C666 1.419 . S
C668 C669 1.363 . S
C668 H671 0.929 . S
C669 C668 1.363 . S
C669 C675 1.428 . S
H670 C666 0.930 . S
H671 C668 0.929 . S
S672 N673 1.613 . S
S672 N674 1.610 . S
N673 S672 1.613 . S
N673 C676 1.350 . S
N674 S672 1.610 . S
N674 C675 1.351 . S
C675 C669 1.428 . S
C675 N674 1.351 . S
C675 C676 1.434 . S
C676 C667 1.429 . S
C676 N673 1.350 . S
C676 C675 1.434 . S
C677 C678 1.369 . S
C677 C679 1.419 . S
C677 H681 0.930 . S
C678 C677 1.369 . S
C678 C687 1.429 . S
C679 C677 1.419 . S
C679 C680 1.363 . S
C679 H682 0.929 . S
C680 C679 1.363 . S
C680 C686 1.428 . S
H681 C677 0.930 . S
H682 C679 0.929 . S
S683 N684 1.613 . S
S683 N685 1.610 . S
N684 S683 1.613 . S
N684 C687 1.350 . S
N685 S683 1.610 . S
N685 C686 1.351 . S
C686 C680 1.428 . S
C686 N685 1.351 . S
C686 C687 1.434 . S
C687 C678 1.429 . S
C687 N684 1.350 . S
C687 C686 1.434 . S
C688 C689 1.369 . S
C688 C690 1.419 . S
C688 H692 0.930 . S
C689 C688 1.369 . S
C689 C698 1.429 . S
C690 C688 1.419 . S
C690 C691 1.363 . S
C690 H693 0.929 . S
C691 C690 1.363 . S
C691 C697 1.428 . S
H692 C688 0.930 . S
H693 C690 0.929 . S
S694 N695 1.613 . S
S694 N696 1.610 . S
N695 S694 1.613 . S
N695 C698 1.350 . S
N696 S694 1.610 . S
N696 C697 1.351 . S
C697 C691 1.428 . S
C697 N696 1.351 . S
C697 C698 1.434 . S
C698 C689 1.429 . S
C698 N695 1.350 . S
C698 C697 1.434 . S
C699 C700 1.369 . S
C699 C701 1.419 . S
C699 H703 0.930 . S
C700 C699 1.369 . S
C700 C709 1.429 . S
C701 C699 1.419 . S
C701 C702 1.363 . S
C701 H704 0.929 . S
C702 C701 1.363 . S
C702 C708 1.428 . S
H703 C699 0.930 . S
H704 C701 0.929 . S
S705 N706 1.613 . S
S705 N707 1.610 . S
N706 S705 1.613 . S
N706 C709 1.350 . S
N707 S705 1.610 . S
N707 C708 1.351 . S
C708 C702 1.428 . S
C708 N707 1.351 . S
C708 C709 1.434 . S
C709 C700 1.429 . S
C709 N706 1.350 . S
C709 C708 1.434 . S
C710 C711 1.369 . S
C710 C712 1.419 . S
C710 H714 0.930 . S
C711 C710 1.369 . S
C711 C720 1.429 . S
C712 C710 1.419 . S
C712 C713 1.363 . S
C712 H715 0.929 . S
C713 C712 1.363 . S
C713 C719 1.428 . S
H714 C710 0.930 . S
H715 C712 0.929 . S
S716 N717 1.613 . S
S716 N718 1.610 . S
N717 S716 1.613 . S
N717 C720 1.350 . S
N718 S716 1.610 . S
N718 C719 1.351 . S
C719 C713 1.428 . S
C719 N718 1.351 . S
C719 C720 1.434 . S
C720 C711 1.429 . S
C720 N717 1.350 . S
C720 C719 1.434 . S
C721 C722 1.369 . S
C721 C723 1.419 . S
C721 H725 0.930 . S
C722 C721 1.369 . S
C722 C731 1.429 . S
C723 C721 1.419 . S
C723 C724 1.363 . S
C723 H726 0.929 . S
C724 C723 1.363 . S
C724 C730 1.428 . S
H725 C721 0.930 . S
H726 C723 0.929 . S
S727 N728 1.613 . S
S727 N729 1.610 . S
N728 S727 1.613 . S
N728 C731 1.350 . S
N729 S727 1.610 . S
N729 C730 1.351 . S
C730 C724 1.428 . S
C730 N729 1.351 . S
C730 C731 1.434 . S
C731 C722 1.429 . S
C731 N728 1.350 . S
C731 C730 1.434 . S
C732 C733 1.369 . S
C732 C734 1.419 . S
C732 H736 0.930 . S
C733 C732 1.369 . S
C733 C742 1.429 . S
C734 C732 1.419 . S
C734 C735 1.363 . S
C734 H737 0.929 . S
C735 C734 1.363 . S
C735 C741 1.428 . S
H736 C732 0.930 . S
H737 C734 0.929 . S
S738 N739 1.613 . S
S738 N740 1.610 . S
N739 S738 1.613 . S
N739 C742 1.350 . S
N740 S738 1.610 . S
N740 C741 1.351 . S
C741 C735 1.428 . S
C741 N740 1.351 . S
C741 C742 1.434 . S
C742 C733 1.429 . S
C742 N739 1.350 . S
C742 C741 1.434 . S
C743 C744 1.369 . S
C743 C745 1.419 . S
C743 H747 0.930 . S
C744 C743 1.369 . S
C744 C753 1.429 . S
C745 C743 1.419 . S
C745 C746 1.363 . S
C745 H748 0.929 . S
C746 C745 1.363 . S
C746 C752 1.428 . S
H747 C743 0.930 . S
H748 C745 0.929 . S
S749 N750 1.613 . S
S749 N751 1.610 . S
N750 S749 1.613 . S
N750 C753 1.350 . S
N751 S749 1.610 . S
N751 C752 1.351 . S
C752 C746 1.428 . S
C752 N751 1.351 . S
C752 C753 1.434 . S
C753 C744 1.429 . S
C753 N750 1.350 . S
C753 C752 1.434 . S
C754 C755 1.369 . S
C754 C756 1.419 . S
C754 H758 0.930 . S
C755 C754 1.369 . S
C755 C764 1.429 . S
C756 C754 1.419 . S
C756 C757 1.363 . S
C756 H759 0.929 . S
C757 C756 1.363 . S
C757 C763 1.428 . S
H758 C754 0.930 . S
H759 C756 0.929 . S
S760 N761 1.613 . S
S760 N762 1.610 . S
N761 S760 1.613 . S
N761 C764 1.350 . S
N762 S760 1.610 . S
N762 C763 1.351 . S
C763 C757 1.428 . S
C763 N762 1.351 . S
C763 C764 1.434 . S
C764 C755 1.429 . S
C764 N761 1.350 . S
C764 C763 1.434 . S
C765 C766 1.369 . S
C765 C767 1.419 . S
C765 H769 0.930 . S
C766 C765 1.369 . S
C766 C775 1.429 . S
C767 C765 1.419 . S
C767 C768 1.363 . S
C767 H770 0.929 . S
C768 C767 1.363 . S
C768 C774 1.428 . S
H769 C765 0.930 . S
H770 C767 0.929 . S
S771 N772 1.613 . S
S771 N773 1.610 . S
N772 S771 1.613 . S
N772 C775 1.350 . S
N773 S771 1.610 . S
N773 C774 1.351 . S
C774 C768 1.428 . S
C774 N773 1.351 . S
C774 C775 1.434 . S
C775 C766 1.429 . S
C775 N772 1.350 . S
C775 C774 1.434 . S
C776 C777 1.369 . S
C776 C778 1.419 . S
C776 H780 0.930 . S
C777 C776 1.369 . S
C777 C786 1.429 . S
C778 C776 1.419 . S
C778 C779 1.363 . S
C778 H781 0.929 . S
C779 C778 1.363 . S
C779 C785 1.428 . S
H780 C776 0.930 . S
H781 C778 0.929 . S
S782 N783 1.613 . S
S782 N784 1.610 . S
N783 S782 1.613 . S
N783 C786 1.350 . S
N784 S782 1.610 . S
N784 C785 1.351 . S
C785 C779 1.428 . S
C785 N784 1.351 . S
C785 C786 1.434 . S
C786 C777 1.429 . S
C786 N783 1.350 . S
C786 C785 1.434 . S
C787 C788 1.369 . S
C787 C789 1.419 . S
C787 H791 0.930 . S
C788 C787 1.369 . S
C788 C797 1.429 . S
C789 C787 1.419 . S
C789 C790 1.363 . S
C789 H792 0.929 . S
C790 C789 1.363 . S
C790 C796 1.428 . S
H791 C787 0.930 . S
H792 C789 0.929 . S
S793 N794 1.613 . S
S793 N795 1.610 . S
N794 S793 1.613 . S
N794 C797 1.350 . S
N795 S793 1.610 . S
N795 C796 1.351 . S
C796 C790 1.428 . S
C796 N795 1.351 . S
C796 C797 1.434 . S
C797 C788 1.429 . S
C797 N794 1.350 . S
C797 C796 1.434 . S
C798 C799 1.369 . S
C798 C800 1.419 . S
C798 H802 0.930 . S
C799 C798 1.369 . S
C799 C808 1.429 . S
C800 C798 1.419 . S
C800 C801 1.363 . S
C800 H803 0.929 . S
C801 C800 1.363 . S
C801 C807 1.428 . S
H802 C798 0.930 . S
H803 C800 0.929 . S
S804 N805 1.613 . S
S804 N806 1.610 . S
N805 S804 1.613 . S
N805 C808 1.350 . S
N806 S804 1.610 . S
N806 C807 1.351 . S
C807 C801 1.428 . S
C807 N806 1.351 . S
C807 C808 1.434 . S
C808 C799 1.429 . S
C808 N805 1.350 . S
C808 C807 1.434 . S
C809 C810 1.369 . S
C809 C811 1.419 . S
C809 H813 0.930 . S
C810 C809 1.369 . S
C810 C819 1.429 . S
C811 C809 1.419 . S
C811 C812 1.363 . S
C811 H814 0.929 . S
C812 C811 1.363 . S
C812 C818 1.428 . S
H813 C809 0.930 . S
H814 C811 0.929 . S
S815 N816 1.613 . S
S815 N817 1.610 . S
N816 S815 1.613 . S
N816 C819 1.350 . S
N817 S815 1.610 . S
N817 C818 1.351 . S
C818 C812 1.428 . S
C818 N817 1.351 . S
C818 C819 1.434 . S
C819 C810 1.429 . S
C819 N816 1.350 . S
C819 C818 1.434 . S
C820 C821 1.369 . S
C820 C822 1.419 . S
C820 H824 0.930 . S
C821 C820 1.369 . S
C821 C830 1.429 . S
C822 C820 1.419 . S
C822 C823 1.363 . S
C822 H825 0.929 . S
C823 C822 1.363 . S
C823 C829 1.428 . S
H824 C820 0.930 . S
H825 C822 0.929 . S
S826 N827 1.613 . S
S826 N828 1.610 . S
N827 S826 1.613 . S
N827 C830 1.350 . S
N828 S826 1.610 . S
N828 C829 1.351 . S
C829 C823 1.428 . S
C829 N828 1.351 . S
C829 C830 1.434 . S
C830 C821 1.429 . S
C830 N827 1.350 . S
C830 C829 1.434 . S
C831 C832 1.369 . S
C831 C833 1.419 . S
C831 H835 0.930 . S
C832 C831 1.369 . S
C832 C841 1.429 . S
C833 C831 1.419 . S
C833 C834 1.363 . S
C833 H836 0.929 . S
C834 C833 1.363 . S
C834 C840 1.428 . S
H835 C831 0.930 . S
H836 C833 0.929 . S
S837 N838 1.613 . S
S837 N839 1.610 . S
N838 S837 1.613 . S
N838 C841 1.350 . S
N839 S837 1.610 . S
N839 C840 1.351 . S
C840 C834 1.428 . S
C840 N839 1.351 . S
C840 C841 1.434 . S
C841 C832 1.429 . S
C841 N838 1.350 . S
C841 C840 1.434 . S
C842 C843 1.369 . S
C842 C844 1.419 . S
C842 H846 0.930 . S
C843 C842 1.369 . S
C843 C852 1.429 . S
C844 C842 1.419 . S
C844 C845 1.363 . S
C844 H847 0.929 . S
C845 C844 1.363 . S
C845 C851 1.428 . S
H846 C842 0.930 . S
H847 C844 0.929 . S
S848 N849 1.613 . S
S848 N850 1.610 . S
N849 S848 1.613 . S
N849 C852 1.350 . S
N850 S848 1.610 . S
N850 C851 1.351 . S
C851 C845 1.428 . S
C851 N850 1.351 . S
C851 C852 1.434 . S
C852 C843 1.429 . S
C852 N849 1.350 . S
C852 C851 1.434 . S
C853 C854 1.369 . S
C853 C855 1.419 . S
C853 H857 0.930 . S
C854 C853 1.369 . S
C854 C863 1.429 . S
C855 C853 1.419 . S
C855 C856 1.363 . S
C855 H858 0.929 . S
C856 C855 1.363 . S
C856 C862 1.428 . S
H857 C853 0.930 . S
H858 C855 0.929 . S
S859 N860 1.613 . S
S859 N861 1.610 . S
N860 S859 1.613 . S
N860 C863 1.350 . S
N861 S859 1.610 . S
N861 C862 1.351 . S
C862 C856 1.428 . S
C862 N861 1.351 . S
C862 C863 1.434 . S
C863 C854 1.429 . S
C863 N860 1.350 . S
C863 C862 1.434 . S
C337 C314 1.577 . S
C339 C7 1.574 . S
C348 C20 1.572 . S
C350 C231 1.579 . S
C359 C328 1.573 . S
C361 C35 1.581 . S
C370 C301 1.577 . S
C372 C49 1.574 . S
C381 C259 1.574 . S
C383 C63 1.577 . S
C392 C272 1.574 . S
C394 C77 1.577 . S
C403 C287 1.581 . S
C405 C90 1.580 . S
C414 C104 1.572 . S
C416 C244 1.581 . S
C425 C188 1.575 . S
C427 C118 1.582 . S
C436 C203 1.582 . S
C438 C133 1.574 . S
C447 C146 1.580 . S
C449 C216 1.573 . S
C458 C161 1.583 . S
C460 C175 1.575 . S
C469 C105 1.583 . S
C471 C202 1.578 . S
C480 C217 1.583 . S
C482 C62 1.574 . S
C491 C76 1.573 . S
C493 C174 1.582 . S
C502 C189 1.582 . S
C504 C91 1.579 . S
C513 C147 1.583 . S
C515 C21 1.578 . S
C524 C34 1.583 . S
C526 C160 1.576 . S
C535 C48 1.582 . S
C537 C119 1.574 . S
C546 C6 1.577 . S
C548 C132 1.582 . S
C557 C286 1.572 . S
C559 C300 1.581 . S
C568 C315 1.572 . S
C570 C245 1.581 . S
C579 C258 1.572 . S
C581 C230 1.580 . S
C590 C329 1.577 . S
C592 C273 1.574 . S
C601 C8 1.073 . S
C603 C120 1.058 . S
C612 C135 1.072 . S
C614 C23 1.057 . S
C623 C36 1.072 . S
C625 C148 1.057 . S
C634 C50 1.060 . S
C636 C163 1.069 . S
C645 C64 1.072 . S
C647 C177 1.057 . S
C656 C78 1.055 . S
C658 C190 1.070 . S
C667 C205 1.063 . S
C669 C93 1.067 . S
C678 C218 1.060 . S
C680 C107 1.065 . S
C689 C121 1.059 . S
C691 C233 1.065 . S
C700 C134 1.058 . S
C702 C330 1.066 . S
C711 C303 1.072 . S
C713 C149 1.059 . S
C722 C316 1.065 . S
C724 C162 1.061 . S
C733 C246 1.068 . S
C735 C176 1.058 . S
C744 C261 1.072 . S
C746 C191 1.059 . S
C755 C204 1.058 . S
C757 C274 1.070 . S
C766 C219 1.056 . S
C768 C289 1.071 . S
C777 C9 1.055 . S
C779 C232 1.070 . S
C788 C247 1.071 . S
C790 C65 1.061 . S
C799 C260 1.057 . S
C801 C79 1.070 . S
C810 C275 1.067 . S
C812 C92 1.059 . S
C821 C288 1.056 . S
C823 C106 1.071 . S
C832 C302 1.057 . S
C834 C37 1.070 . S
C843 C51 1.073 . S
C845 C317 1.058 . S
C854 C331 1.069 . S
C856 C22 1.063 . S
