# Generated by pormake.
# Topology unb, (4)-cn, num edge types: 1
# Building blocks:
#     Node 0, Type 0, BuildingBlock: GALJAG_clean_sbu_0, # of connection points: 4
#     Node 1, Type 0, BuildingBlock: GALJAG_clean_sbu_0, # of connection points: 4
#     Node 2, Type 0, BuildingBlock: GALJAG_clean_sbu_0, # of connection points: 4
#     Node 3, Type 0, BuildingBlock: GALJAG_clean_sbu_0, # of connection points: 4
#     Node 4, Type 0, BuildingBlock: GALJAG_clean_sbu_0, # of connection points: 4
#     Node 5, Type 0, BuildingBlock: GALJAG_clean_sbu_0, # of connection points: 4
#     Node 6, Type 0, BuildingBlock: GALJAG_clean_sbu_0, # of connection points: 4
#     Node 7, Type 0, BuildingBlock: GALJAG_clean_sbu_0, # of connection points: 4
#     Node 8, Type 0, BuildingBlock: GALJAG_clean_sbu_0, # of connection points: 4
#     Node 9, Type 0, BuildingBlock: GALJAG_clean_sbu_0, # of connection points: 4
#     Node 10, Type 0, BuildingBlock: GALJAG_clean_sbu_0, # of connection points: 4
#     Node 11, Type 0, BuildingBlock: GALJAG_clean_sbu_0, # of connection points: 4
#     Node 12, Type 0, BuildingBlock: GALJAG_clean_sbu_0, # of connection points: 4
#     Node 13, Type 0, BuildingBlock: GALJAG_clean_sbu_0, # of connection points: 4
#     Node 14, Type 0, BuildingBlock: GALJAG_clean_sbu_0, # of connection points: 4
#     Node 15, Type 0, BuildingBlock: GALJAG_clean_sbu_0, # of connection points: 4
#     Node 16, Type 0, BuildingBlock: GALJAG_clean_sbu_0, # of connection points: 4
#     Node 17, Type 0, BuildingBlock: GALJAG_clean_sbu_0, # of connection points: 4
#     Edge 18, Type (0, 0), None
#     Edge 19, Type (0, 0), None
#     Edge 20, Type (0, 0), None
#     Edge 21, Type (0, 0), None
#     Edge 22, Type (0, 0), None
#     Edge 23, Type (0, 0), None
#     Edge 24, Type (0, 0), None
#     Edge 25, Type (0, 0), None
#     Edge 26, Type (0, 0), None
#     Edge 27, Type (0, 0), None
#     Edge 28, Type (0, 0), None
#     Edge 29, Type (0, 0), None
#     Edge 30, Type (0, 0), None
#     Edge 31, Type (0, 0), None
#     Edge 32, Type (0, 0), None
#     Edge 33, Type (0, 0), None
#     Edge 34, Type (0, 0), None
#     Edge 35, Type (0, 0), None
#     Edge 36, Type (0, 0), None
#     Edge 37, Type (0, 0), None
#     Edge 38, Type (0, 0), None
#     Edge 39, Type (0, 0), None
#     Edge 40, Type (0, 0), None
#     Edge 41, Type (0, 0), None
#     Edge 42, Type (0, 0), None
#     Edge 43, Type (0, 0), None
#     Edge 44, Type (0, 0), None
#     Edge 45, Type (0, 0), None
#     Edge 46, Type (0, 0), None
#     Edge 47, Type (0, 0), None
#     Edge 48, Type (0, 0), None
#     Edge 49, Type (0, 0), None
#     Edge 50, Type (0, 0), None
#     Edge 51, Type (0, 0), None
#     Edge 52, Type (0, 0), None
#     Edge 53, Type (0, 0), None
# Relax obj value: 0.184
# Max RMSD: 0.139
# Mean RMSD: 0.139
data_MOF--net-unb--node1-GALJAG_clean_sbu_0--edge1-none
_symmetry_space_group_name_H-M    P1
_symmetry_Int_Tables_number       1
_symmetry_cell_setting            triclinic
loop_
_symmetry_equiv_pos_as_xyz
'x, y, z'
_cell_length_a     28.632871
_cell_length_b     28.632189
_cell_length_c     11.938363
_cell_angle_alpha  89.996248
_cell_angle_beta   90.007882
_cell_angle_gamma 119.99845
loop_
_atom_site_label
_atom_site_type_symbol
_atom_site_fract_x
_atom_site_fract_y
_atom_site_fract_z
_atom_type_partial_charge
In0 In 0.10701 0.24836 0.08179 0.0
O1 O 0.14513 0.32467 0.19236 0.0
O2 O 0.10772 0.24972 0.27713 0.0
C3 C 0.13351 0.30139 0.89154 0.0
C4 C 0.16346 0.19893 0.03003 0.0
C5 C 0.00113 0.19892 0.03005 0.0
O6 O 0.14573 0.32575 0.98432 0.0
O7 O 0.10821 0.25085 0.89491 0.0
O8 O 0.02391 0.17338 0.06286 0.0
O9 O 0.02939 0.24947 0.03818 0.0
C10 C 0.13317 0.30069 0.28511 0.0
O11 O 0.11514 0.17339 0.06285 0.0
O12 O 0.18573 0.24948 0.03817 0.0
In13 In 0.70765 0.84901 0.08181 0.0
O14 O 0.78262 0.93211 0.06291 0.0
O15 O 0.70654 0.92662 0.03817 0.0
C16 C 0.75709 0.79257 0.03005 0.0
C17 C 0.65532 0.82284 0.28511 0.0
C18 C 0.65462 0.82248 0.89154 0.0
O19 O 0.78262 0.84088 0.06287 0.0
O20 O 0.70654 0.77028 0.03819 0.0
O21 O 0.63026 0.81028 0.98431 0.0
O22 O 0.70516 0.84779 0.89492 0.0
C23 C 0.75708 0.95488 0.03007 0.0
O24 O 0.63134 0.81088 0.19236 0.0
O25 O 0.70629 0.8483 0.27715 0.0
In26 In 0.10701 0.84901 0.08178 0.0
O27 O 0.02391 0.84088 0.06285 0.0
O28 O 0.0294 0.77029 0.03816 0.0
C29 C 0.16344 0.95488 0.03 0.0
C30 C 0.13317 0.82284 0.28511 0.0
C31 C 0.13353 0.8225 0.89154 0.0
O32 O 0.11513 0.93211 0.0628 0.0
O33 O 0.18572 0.92662 0.03818 0.0
O34 O 0.14574 0.81035 0.98432 0.0
O35 O 0.10822 0.84773 0.8949 0.0
C36 C 0.00113 0.79256 0.03003 0.0
O37 O 0.14513 0.81082 0.19237 0.0
O38 O 0.10771 0.84836 0.27712 0.0
In39 In 0.24012 0.11524 0.93013 0.0
O40 O 0.31643 0.15338 0.81958 0.0
O41 O 0.24148 0.11594 0.73479 0.0
C42 C 0.29316 0.14175 0.1204 0.0
C43 C 0.1907 0.17169 0.98191 0.0
C44 C 0.19069 0.00937 0.98189 0.0
O45 O 0.31751 0.15396 0.02762 0.0
O46 O 0.24262 0.11646 0.11701 0.0
O47 O 0.16515 0.03215 0.94905 0.0
O48 O 0.24123 0.03763 0.97375 0.0
C49 C 0.29246 0.14141 0.72682 0.0
O50 O 0.16516 0.12338 0.94906 0.0
O51 O 0.24124 0.19397 0.97378 0.0
In52 In 0.84077 0.11524 0.93016 0.0
O53 O 0.80265 0.15342 0.81957 0.0
O54 O 0.84007 0.11589 0.73482 0.0
C55 C 0.81426 0.14177 0.12041 0.0
C56 C 0.78433 0.00937 0.98196 0.0
C57 C 0.94664 0.17168 0.98194 0.0
O58 O 0.80205 0.15392 0.02762 0.0
O59 O 0.83956 0.11652 0.11704 0.0
O60 O 0.92387 0.12336 0.94912 0.0
O61 O 0.91838 0.19396 0.97377 0.0
C62 C 0.8146 0.14141 0.72683 0.0
O63 O 0.83264 0.03214 0.94913 0.0
O64 O 0.76205 0.03764 0.97379 0.0
In65 In 0.84077 0.71589 0.93015 0.0
O66 O 0.92387 0.79086 0.94907 0.0
O67 O 0.91838 0.71477 0.97379 0.0
C68 C 0.78433 0.76533 0.98194 0.0
C69 C 0.81461 0.66356 0.72683 0.0
C70 C 0.81424 0.66285 0.12041 0.0
O71 O 0.83264 0.79086 0.94912 0.0
O72 O 0.76205 0.71478 0.97376 0.0
O73 O 0.80203 0.6385 0.02763 0.0
O74 O 0.83956 0.7134 0.11703 0.0
C75 C 0.94664 0.76532 0.98192 0.0
O76 O 0.80265 0.63958 0.81958 0.0
O77 O 0.84006 0.71453 0.73481 0.0
In78 In 0.77368 0.58169 0.41513 0.0
O79 O 0.8118 0.658 0.5257 0.0
O80 O 0.77438 0.58305 0.61047 0.0
C81 C 0.80018 0.63473 0.22487 0.0
C82 C 0.83012 0.53226 0.36336 0.0
C83 C 0.6678 0.53225 0.36338 0.0
O84 O 0.8124 0.65908 0.31765 0.0
O85 O 0.77488 0.58418 0.22825 0.0
O86 O 0.69058 0.50672 0.3962 0.0
O87 O 0.69606 0.5828 0.37152 0.0
C88 C 0.79984 0.63403 0.61845 0.0
O89 O 0.78181 0.50673 0.39619 0.0
O90 O 0.8524 0.58281 0.3715 0.0
In91 In 0.37432 0.18234 0.41514 0.0
O92 O 0.29801 0.14422 0.52569 0.0
O93 O 0.37296 0.18164 0.61048 0.0
C94 C 0.32129 0.15582 0.22487 0.0
C95 C 0.42375 0.28822 0.36341 0.0
C96 C 0.42376 0.1259 0.36339 0.0
O97 O 0.29693 0.14361 0.31765 0.0
O98 O 0.37183 0.18112 0.22826 0.0
O99 O 0.44929 0.17422 0.39621 0.0
O100 O 0.37321 0.10362 0.37153 0.0
C101 C 0.32198 0.15618 0.61845 0.0
O102 O 0.44929 0.26544 0.39625 0.0
O103 O 0.3732 0.25995 0.37151 0.0
In104 In 0.77367 0.18234 0.41511 0.0
O105 O 0.81179 0.14415 0.5257 0.0
O106 O 0.77438 0.18169 0.61045 0.0
C107 C 0.8002 0.15583 0.22486 0.0
C108 C 0.66779 0.1259 0.36336 0.0
C109 C 0.83011 0.28822 0.36333 0.0
O110 O 0.81241 0.14369 0.31765 0.0
O111 O 0.77488 0.18107 0.22823 0.0
O112 O 0.78179 0.26544 0.39613 0.0
O113 O 0.85239 0.25995 0.3715 0.0
C114 C 0.79984 0.15617 0.61844 0.0
O115 O 0.69057 0.17421 0.39618 0.0
O116 O 0.69606 0.10362 0.37149 0.0
In117 In 0.90679 0.44858 0.26347 0.0
O118 O -0.0169 0.48671 0.15291 0.0
O119 O 0.90815 0.44928 0.06813 0.0
C120 C 0.95983 0.47508 0.45373 0.0
C121 C 0.85736 0.50502 0.31525 0.0
C122 C 0.85735 0.3427 0.31522 0.0
O123 O -0.01582 0.48729 0.36096 0.0
O124 O 0.90928 0.44979 0.45035 0.0
O125 O 0.83182 0.36548 0.28238 0.0
O126 O 0.9079 0.37096 0.30708 0.0
C127 C 0.95912 0.47474 0.06016 0.0
O128 O 0.83182 0.45671 0.2824 0.0
O129 O 0.90791 0.5273 0.30711 0.0
In130 In 0.50744 0.44857 0.2635 0.0
O131 O 0.4993 0.36547 0.28247 0.0
O132 O 0.42872 0.37097 0.30713 0.0
C133 C 0.61331 0.50501 0.31527 0.0
C134 C 0.48127 0.47474 0.06016 0.0
C135 C 0.48093 0.4751 0.45374 0.0
O136 O 0.59053 0.45669 0.28246 0.0
O137 O 0.58505 0.5273 0.3071 0.0
O138 O 0.46872 0.48725 0.36095 0.0
O139 O 0.50623 0.44986 0.45038 0.0
C140 C 0.45099 0.3427 0.3153 0.0
O141 O 0.46931 0.48676 0.15291 0.0
O142 O 0.50673 0.44923 0.06816 0.0
In143 In 0.50743 0.04922 0.26349 0.0
O144 O 0.46932 0.97292 0.15291 0.0
O145 O 0.50672 0.04786 0.06815 0.0
C146 C 0.48091 -0.00381 0.45374 0.0
C147 C 0.61331 0.09865 0.31525 0.0
C148 C 0.451 0.09866 0.31527 0.0
O149 O 0.46869 0.97183 0.36096 0.0
O150 O 0.50623 0.04673 0.45037 0.0
O151 O 0.49931 0.1242 0.28246 0.0
O152 O 0.42871 0.04812 0.30709 0.0
C153 C 0.48127 -0.00311 0.06016 0.0
O154 O 0.59053 0.12419 0.2824 0.0
O155 O 0.58504 0.04811 0.30712 0.0
In156 In 0.44034 0.91502 0.74846 0.0
O157 O 0.47846 -0.00867 0.85903 0.0
O158 O 0.44105 0.91639 0.9438 0.0
C159 C 0.46685 0.96806 0.5582 0.0
C160 C 0.49679 0.8656 0.69669 0.0
C161 C 0.33446 0.86559 0.69672 0.0
O162 O 0.47907 -0.00758 0.65099 0.0
O163 O 0.44154 0.91752 0.56158 0.0
O164 O 0.35725 0.84005 0.72953 0.0
O165 O 0.36273 0.91613 0.70485 0.0
C166 C 0.46651 0.96736 0.95178 0.0
O167 O 0.44848 0.84006 0.72951 0.0
O168 O 0.51906 0.91614 0.70483 0.0
In169 In 0.04099 0.51567 0.74847 0.0
O170 O 0.11595 0.59877 0.72958 0.0
O171 O 0.03987 0.59328 0.70484 0.0
C172 C 0.09042 0.45923 0.69672 0.0
C173 C -0.01135 0.48951 0.95178 0.0
C174 C -0.01205 0.48915 0.5582 0.0
O175 O 0.11596 0.50755 0.72954 0.0
O176 O 0.03988 0.43695 0.70486 0.0
O177 O 0.9636 0.47694 0.65098 0.0
O178 O 0.0385 0.51446 0.56159 0.0
C179 C 0.09041 0.62155 0.69674 0.0
O180 O 0.96468 0.47755 0.85903 0.0
O181 O 0.03962 0.51497 0.94381 0.0
In182 In 0.44034 0.51568 0.74844 0.0
O183 O 0.35724 0.50755 0.72951 0.0
O184 O 0.36273 0.43695 0.70482 0.0
C185 C 0.49678 0.62155 0.69667 0.0
C186 C 0.4665 0.48951 0.95178 0.0
C187 C 0.46686 0.48917 0.5582 0.0
O188 O 0.44846 0.59877 0.72946 0.0
O189 O 0.51906 0.59329 0.70484 0.0
O190 O 0.47908 0.47702 0.65099 0.0
O191 O 0.44155 0.5144 0.56156 0.0
C192 C 0.33446 0.45923 0.69669 0.0
O193 O 0.47846 0.47749 0.85903 0.0
O194 O 0.44105 0.51503 0.94378 0.0
In195 In 0.57346 0.78191 0.5968 0.0
O196 O 0.64976 0.82005 0.48624 0.0
O197 O 0.57482 0.78261 0.40146 0.0
C198 C 0.62649 0.80842 0.78707 0.0
C199 C 0.52403 0.83836 0.64858 0.0
C200 C 0.52402 0.67604 0.64855 0.0
O201 O 0.65085 0.82062 0.69429 0.0
O202 O 0.57595 0.78313 0.78368 0.0
O203 O 0.49848 0.69882 0.61572 0.0
O204 O 0.57456 0.7043 0.64041 0.0
C205 C 0.62579 0.80808 0.39349 0.0
O206 O 0.49849 0.79005 0.61572 0.0
O207 O 0.57457 0.86064 0.64044 0.0
In208 In 0.1741 0.78191 0.59684 0.0
O209 O 0.13597 0.82009 0.48625 0.0
O210 O 0.1734 0.78256 0.4015 0.0
C211 C 0.14759 0.80843 0.78708 0.0
C212 C 0.11766 0.67604 0.64863 0.0
C213 C 0.27998 0.83834 0.64861 0.0
O214 O 0.13539 0.82058 0.69429 0.0
O215 O 0.17289 0.78319 0.78372 0.0
O216 O 0.2572 0.79003 0.6158 0.0
O217 O 0.25172 0.86063 0.64044 0.0
C218 C 0.14794 0.80807 0.3935 0.0
O219 O 0.16597 0.69881 0.6158 0.0
O220 O 0.09538 0.7043 0.64047 0.0
In221 In 0.1741 0.38256 0.59682 0.0
O222 O 0.13599 0.30625 0.48624 0.0
O223 O 0.17339 0.3812 0.40148 0.0
C224 C 0.14758 0.32952 0.78707 0.0
C225 C 0.27998 0.43199 0.64858 0.0
C226 C 0.11767 0.43199 0.6486 0.0
O227 O 0.13536 0.30517 0.69429 0.0
O228 O 0.1729 0.38007 0.7837 0.0
O229 O 0.16598 0.45753 0.61579 0.0
O230 O 0.09538 0.38145 0.64042 0.0
C231 C 0.14794 0.33022 0.39349 0.0
O232 O 0.2572 0.45753 0.61574 0.0
O233 O 0.25171 0.38144 0.64045 0.0
loop_
_geom_bond_atom_site_label_1
_geom_bond_atom_site_label_2
_geom_bond_distance
_geom_bond_site_symmetry_2
_ccdc_geom_bond_type
In0 O1 2.294 . S
In0 O2 2.326 . S
In0 O6 2.266 1_554 S
In0 O7 2.326 1_554 S
In0 O8 2.266 . S
In0 O9 2.326 . S
In0 O11 2.294 . S
In0 O12 2.326 . S
O1 In0 2.294 . S
O1 C10 1.240 . S
O2 In0 2.326 . S
O2 C10 1.252 . S
C3 O6 1.252 . S
C3 O7 1.260 . S
C4 O11 1.240 . S
C4 O12 1.252 . S
C5 O8 1.252 . S
C5 O9 1.260 . S
O6 In0 2.266 1_556 S
O6 C3 1.252 . S
O7 In0 2.326 1_556 S
O7 C3 1.260 . S
O8 In0 2.266 . S
O8 C5 1.252 . S
O9 In0 2.326 . S
O9 C5 1.260 . S
C10 O1 1.240 . S
C10 O2 1.252 . S
O11 In0 2.294 . S
O11 C4 1.240 . S
O12 In0 2.326 . S
O12 C4 1.252 . S
In13 O14 2.294 . S
In13 O15 2.326 . S
In13 O19 2.266 . S
In13 O20 2.326 . S
In13 O21 2.266 1_554 S
In13 O22 2.326 1_554 S
In13 O24 2.294 . S
In13 O25 2.326 . S
O14 In13 2.294 . S
O14 C23 1.240 . S
O15 In13 2.326 . S
O15 C23 1.252 . S
C16 O19 1.252 . S
C16 O20 1.260 . S
C17 O24 1.240 . S
C17 O25 1.252 . S
C18 O21 1.252 . S
C18 O22 1.260 . S
O19 In13 2.266 . S
O19 C16 1.252 . S
O20 In13 2.326 . S
O20 C16 1.260 . S
O21 In13 2.266 1_556 S
O21 C18 1.252 . S
O22 In13 2.326 1_556 S
O22 C18 1.260 . S
C23 O14 1.240 . S
C23 O15 1.252 . S
O24 In13 2.294 . S
O24 C17 1.240 . S
O25 In13 2.326 . S
O25 C17 1.252 . S
In26 O27 2.294 . S
In26 O28 2.326 . S
In26 O32 2.266 . S
In26 O33 2.326 . S
In26 O34 2.266 1_554 S
In26 O35 2.326 1_554 S
In26 O37 2.294 . S
In26 O38 2.326 . S
O27 In26 2.294 . S
O27 C36 1.240 . S
O28 In26 2.326 . S
O28 C36 1.252 . S
C29 O32 1.252 . S
C29 O33 1.260 . S
C30 O37 1.240 . S
C30 O38 1.252 . S
C31 O34 1.252 . S
C31 O35 1.260 . S
O32 In26 2.266 . S
O32 C29 1.252 . S
O33 In26 2.326 . S
O33 C29 1.260 . S
O34 In26 2.266 1_556 S
O34 C31 1.252 . S
O35 In26 2.326 1_556 S
O35 C31 1.260 . S
C36 O27 1.240 . S
C36 O28 1.252 . S
O37 In26 2.294 . S
O37 C30 1.240 . S
O38 In26 2.326 . S
O38 C30 1.252 . S
In39 O40 2.294 . S
In39 O41 2.326 . S
In39 O45 2.266 1_556 S
In39 O46 2.326 1_556 S
In39 O47 2.266 . S
In39 O48 2.326 . S
In39 O50 2.294 . S
In39 O51 2.326 . S
O40 In39 2.294 . S
O40 C49 1.240 . S
O41 In39 2.326 . S
O41 C49 1.252 . S
C42 O45 1.252 . S
C42 O46 1.260 . S
C43 O50 1.240 . S
C43 O51 1.252 . S
C44 O47 1.252 . S
C44 O48 1.260 . S
O45 In39 2.266 1_554 S
O45 C42 1.252 . S
O46 In39 2.326 1_554 S
O46 C42 1.260 . S
O47 In39 2.266 . S
O47 C44 1.252 . S
O48 In39 2.326 . S
O48 C44 1.260 . S
C49 O40 1.240 . S
C49 O41 1.252 . S
O50 In39 2.294 . S
O50 C43 1.240 . S
O51 In39 2.326 . S
O51 C43 1.252 . S
In52 O53 2.294 . S
In52 O54 2.326 . S
In52 O58 2.266 1_556 S
In52 O59 2.326 1_556 S
In52 O60 2.266 . S
In52 O61 2.326 . S
In52 O63 2.294 . S
In52 O64 2.326 . S
O53 In52 2.294 . S
O53 C62 1.240 . S
O54 In52 2.326 . S
O54 C62 1.252 . S
C55 O58 1.252 . S
C55 O59 1.260 . S
C56 O63 1.240 . S
C56 O64 1.252 . S
C57 O60 1.252 . S
C57 O61 1.260 . S
O58 In52 2.266 1_554 S
O58 C55 1.252 . S
O59 In52 2.326 1_554 S
O59 C55 1.260 . S
O60 In52 2.266 . S
O60 C57 1.252 . S
O61 In52 2.326 . S
O61 C57 1.260 . S
C62 O53 1.240 . S
C62 O54 1.252 . S
O63 In52 2.294 . S
O63 C56 1.240 . S
O64 In52 2.326 . S
O64 C56 1.252 . S
In65 O66 2.294 . S
In65 O67 2.326 . S
In65 O71 2.266 . S
In65 O72 2.326 . S
In65 O73 2.266 1_556 S
In65 O74 2.326 1_556 S
In65 O76 2.294 . S
In65 O77 2.326 . S
O66 In65 2.294 . S
O66 C75 1.240 . S
O67 In65 2.326 . S
O67 C75 1.252 . S
C68 O71 1.252 . S
C68 O72 1.260 . S
C69 O76 1.240 . S
C69 O77 1.252 . S
C70 O73 1.252 . S
C70 O74 1.260 . S
O71 In65 2.266 . S
O71 C68 1.252 . S
O72 In65 2.326 . S
O72 C68 1.260 . S
O73 In65 2.266 1_554 S
O73 C70 1.252 . S
O74 In65 2.326 1_554 S
O74 C70 1.260 . S
C75 O66 1.240 . S
C75 O67 1.252 . S
O76 In65 2.294 . S
O76 C69 1.240 . S
O77 In65 2.326 . S
O77 C69 1.252 . S
In78 O79 2.294 . S
In78 O80 2.326 . S
In78 O84 2.266 . S
In78 O85 2.326 . S
In78 O86 2.266 . S
In78 O87 2.326 . S
In78 O89 2.294 . S
In78 O90 2.326 . S
O79 In78 2.294 . S
O79 C88 1.240 . S
O80 In78 2.326 . S
O80 C88 1.252 . S
C81 O84 1.252 . S
C81 O85 1.260 . S
C82 O89 1.240 . S
C82 O90 1.252 . S
C83 O86 1.252 . S
C83 O87 1.260 . S
O84 In78 2.266 . S
O84 C81 1.252 . S
O85 In78 2.326 . S
O85 C81 1.260 . S
O86 In78 2.266 . S
O86 C83 1.252 . S
O87 In78 2.326 . S
O87 C83 1.260 . S
C88 O79 1.240 . S
C88 O80 1.252 . S
O89 In78 2.294 . S
O89 C82 1.240 . S
O90 In78 2.326 . S
O90 C82 1.252 . S
In91 O92 2.294 . S
In91 O93 2.326 . S
In91 O97 2.266 . S
In91 O98 2.326 . S
In91 O99 2.266 . S
In91 O100 2.326 . S
In91 O102 2.294 . S
In91 O103 2.326 . S
O92 In91 2.294 . S
O92 C101 1.240 . S
O93 In91 2.326 . S
O93 C101 1.252 . S
C94 O97 1.252 . S
C94 O98 1.260 . S
C95 O102 1.240 . S
C95 O103 1.252 . S
C96 O99 1.252 . S
C96 O100 1.260 . S
O97 In91 2.266 . S
O97 C94 1.252 . S
O98 In91 2.326 . S
O98 C94 1.260 . S
O99 In91 2.266 . S
O99 C96 1.252 . S
O100 In91 2.326 . S
O100 C96 1.260 . S
C101 O92 1.240 . S
C101 O93 1.252 . S
O102 In91 2.294 . S
O102 C95 1.240 . S
O103 In91 2.326 . S
O103 C95 1.252 . S
In104 O105 2.294 . S
In104 O106 2.326 . S
In104 O110 2.266 . S
In104 O111 2.326 . S
In104 O112 2.266 . S
In104 O113 2.326 . S
In104 O115 2.294 . S
In104 O116 2.326 . S
O105 In104 2.294 . S
O105 C114 1.240 . S
O106 In104 2.326 . S
O106 C114 1.252 . S
C107 O110 1.252 . S
C107 O111 1.260 . S
C108 O115 1.240 . S
C108 O116 1.252 . S
C109 O112 1.252 . S
C109 O113 1.260 . S
O110 In104 2.266 . S
O110 C107 1.252 . S
O111 In104 2.326 . S
O111 C107 1.260 . S
O112 In104 2.266 . S
O112 C109 1.252 . S
O113 In104 2.326 . S
O113 C109 1.260 . S
C114 O105 1.240 . S
C114 O106 1.252 . S
O115 In104 2.294 . S
O115 C108 1.240 . S
O116 In104 2.326 . S
O116 C108 1.252 . S
In117 O118 2.294 1_655 S
In117 O119 2.326 . S
In117 O123 2.266 1_655 S
In117 O124 2.326 . S
In117 O125 2.266 . S
In117 O126 2.326 . S
In117 O128 2.294 . S
In117 O129 2.326 . S
O118 In117 2.294 1_455 S
O118 C127 1.240 1_455 S
O119 In117 2.326 . S
O119 C127 1.252 . S
C120 O123 1.252 . S
C120 O124 1.260 1_455 S
C121 O128 1.240 . S
C121 O129 1.252 . S
C122 O125 1.252 . S
C122 O126 1.260 . S
O123 In117 2.266 1_455 S
O123 C120 1.252 . S
O124 In117 2.326 . S
O124 C120 1.260 1_655 S
O125 In117 2.266 . S
O125 C122 1.252 . S
O126 In117 2.326 . S
O126 C122 1.260 . S
C127 O118 1.240 1_655 S
C127 O119 1.252 . S
O128 In117 2.294 . S
O128 C121 1.240 . S
O129 In117 2.326 . S
O129 C121 1.252 . S
In130 O131 2.294 . S
In130 O132 2.326 . S
In130 O136 2.266 . S
In130 O137 2.326 . S
In130 O138 2.266 . S
In130 O139 2.326 . S
In130 O141 2.294 . S
In130 O142 2.326 . S
O131 In130 2.294 . S
O131 C140 1.240 . S
O132 In130 2.326 . S
O132 C140 1.252 . S
C133 O136 1.252 . S
C133 O137 1.260 . S
C134 O141 1.240 . S
C134 O142 1.252 . S
C135 O138 1.252 . S
C135 O139 1.260 . S
O136 In130 2.266 . S
O136 C133 1.252 . S
O137 In130 2.326 . S
O137 C133 1.260 . S
O138 In130 2.266 . S
O138 C135 1.252 . S
O139 In130 2.326 . S
O139 C135 1.260 . S
C140 O131 1.240 . S
C140 O132 1.252 . S
O141 In130 2.294 . S
O141 C134 1.240 . S
O142 In130 2.326 . S
O142 C134 1.252 . S
In143 O144 2.294 1_545 S
In143 O145 2.326 . S
In143 O149 2.266 1_545 S
In143 O150 2.326 . S
In143 O151 2.266 . S
In143 O152 2.326 . S
In143 O154 2.294 . S
In143 O155 2.326 . S
O144 In143 2.294 1_565 S
O144 C153 1.240 1_565 S
O145 In143 2.326 . S
O145 C153 1.252 . S
C146 O149 1.252 . S
C146 O150 1.260 1_565 S
C147 O154 1.240 . S
C147 O155 1.252 . S
C148 O151 1.252 . S
C148 O152 1.260 . S
O149 In143 2.266 1_565 S
O149 C146 1.252 . S
O150 In143 2.326 . S
O150 C146 1.260 1_545 S
O151 In143 2.266 . S
O151 C148 1.252 . S
O152 In143 2.326 . S
O152 C148 1.260 . S
C153 O144 1.240 1_545 S
C153 O145 1.252 . S
O154 In143 2.294 . S
O154 C147 1.240 . S
O155 In143 2.326 . S
O155 C147 1.252 . S
In156 O157 2.294 1_565 S
In156 O158 2.326 . S
In156 O162 2.266 1_565 S
In156 O163 2.326 . S
In156 O164 2.266 . S
In156 O165 2.326 . S
In156 O167 2.294 . S
In156 O168 2.326 . S
O157 In156 2.294 1_545 S
O157 C166 1.240 1_545 S
O158 In156 2.326 . S
O158 C166 1.252 . S
C159 O162 1.252 . S
C159 O163 1.260 1_545 S
C160 O167 1.240 . S
C160 O168 1.252 . S
C161 O164 1.252 . S
C161 O165 1.260 . S
O162 In156 2.266 1_545 S
O162 C159 1.252 . S
O163 In156 2.326 . S
O163 C159 1.260 1_565 S
O164 In156 2.266 . S
O164 C161 1.252 . S
O165 In156 2.326 . S
O165 C161 1.260 . S
C166 O157 1.240 1_565 S
C166 O158 1.252 . S
O167 In156 2.294 . S
O167 C160 1.240 . S
O168 In156 2.326 . S
O168 C160 1.252 . S
In169 O170 2.294 . S
In169 O171 2.326 . S
In169 O175 2.266 . S
In169 O176 2.326 . S
In169 O177 2.266 1_455 S
In169 O178 2.326 . S
In169 O180 2.294 1_455 S
In169 O181 2.326 . S
O170 In169 2.294 . S
O170 C179 1.240 . S
O171 In169 2.326 . S
O171 C179 1.252 . S
C172 O175 1.252 . S
C172 O176 1.260 . S
C173 O180 1.240 1_455 S
C173 O181 1.252 . S
C174 O177 1.252 . S
C174 O178 1.260 1_655 S
O175 In169 2.266 . S
O175 C172 1.252 . S
O176 In169 2.326 . S
O176 C172 1.260 . S
O177 In169 2.266 1_655 S
O177 C174 1.252 . S
O178 In169 2.326 . S
O178 C174 1.260 1_455 S
C179 O170 1.240 . S
C179 O171 1.252 . S
O180 In169 2.294 1_655 S
O180 C173 1.240 1_655 S
O181 In169 2.326 . S
O181 C173 1.252 . S
In182 O183 2.294 . S
In182 O184 2.326 . S
In182 O188 2.266 . S
In182 O189 2.326 . S
In182 O190 2.266 . S
In182 O191 2.326 . S
In182 O193 2.294 . S
In182 O194 2.326 . S
O183 In182 2.294 . S
O183 C192 1.240 . S
O184 In182 2.326 . S
O184 C192 1.252 . S
C185 O188 1.252 . S
C185 O189 1.260 . S
C186 O193 1.240 . S
C186 O194 1.252 . S
C187 O190 1.252 . S
C187 O191 1.260 . S
O188 In182 2.266 . S
O188 C185 1.252 . S
O189 In182 2.326 . S
O189 C185 1.260 . S
O190 In182 2.266 . S
O190 C187 1.252 . S
O191 In182 2.326 . S
O191 C187 1.260 . S
C192 O183 1.240 . S
C192 O184 1.252 . S
O193 In182 2.294 . S
O193 C186 1.240 . S
O194 In182 2.326 . S
O194 C186 1.252 . S
In195 O196 2.294 . S
In195 O197 2.326 . S
In195 O201 2.266 . S
In195 O202 2.326 . S
In195 O203 2.266 . S
In195 O204 2.326 . S
In195 O206 2.294 . S
In195 O207 2.326 . S
O196 In195 2.294 . S
O196 C205 1.240 . S
O197 In195 2.326 . S
O197 C205 1.252 . S
C198 O201 1.252 . S
C198 O202 1.260 . S
C199 O206 1.240 . S
C199 O207 1.252 . S
C200 O203 1.252 . S
C200 O204 1.260 . S
O201 In195 2.266 . S
O201 C198 1.252 . S
O202 In195 2.326 . S
O202 C198 1.260 . S
O203 In195 2.266 . S
O203 C200 1.252 . S
O204 In195 2.326 . S
O204 C200 1.260 . S
C205 O196 1.240 . S
C205 O197 1.252 . S
O206 In195 2.294 . S
O206 C199 1.240 . S
O207 In195 2.326 . S
O207 C199 1.252 . S
In208 O209 2.294 . S
In208 O210 2.326 . S
In208 O214 2.266 . S
In208 O215 2.326 . S
In208 O216 2.266 . S
In208 O217 2.326 . S
In208 O219 2.294 . S
In208 O220 2.326 . S
O209 In208 2.294 . S
O209 C218 1.240 . S
O210 In208 2.326 . S
O210 C218 1.252 . S
C211 O214 1.252 . S
C211 O215 1.260 . S
C212 O219 1.240 . S
C212 O220 1.252 . S
C213 O216 1.252 . S
C213 O217 1.260 . S
O214 In208 2.266 . S
O214 C211 1.252 . S
O215 In208 2.326 . S
O215 C211 1.260 . S
O216 In208 2.266 . S
O216 C213 1.252 . S
O217 In208 2.326 . S
O217 C213 1.260 . S
C218 O209 1.240 . S
C218 O210 1.252 . S
O219 In208 2.294 . S
O219 C212 1.240 . S
O220 In208 2.326 . S
O220 C212 1.252 . S
In221 O222 2.294 . S
In221 O223 2.326 . S
In221 O227 2.266 . S
In221 O228 2.326 . S
In221 O229 2.266 . S
In221 O230 2.326 . S
In221 O232 2.294 . S
In221 O233 2.326 . S
O222 In221 2.294 . S
O222 C231 1.240 . S
O223 In221 2.326 . S
O223 C231 1.252 . S
C224 O227 1.252 . S
C224 O228 1.260 . S
C225 O232 1.240 . S
C225 O233 1.252 . S
C226 O229 1.252 . S
C226 O230 1.260 . S
O227 In221 2.266 . S
O227 C224 1.252 . S
O228 In221 2.326 . S
O228 C224 1.260 . S
O229 In221 2.266 . S
O229 C226 1.252 . S
O230 In221 2.326 . S
O230 C226 1.260 . S
C231 O222 1.240 . S
C231 O223 1.252 . S
O232 In221 2.294 . S
O232 C225 1.240 . S
O233 In221 2.326 . S
O233 C225 1.252 . S
C231 C10 1.877 . S
C205 C17 1.877 . S
C218 C30 1.877 . S
C101 C49 1.877 . S
C114 C62 1.877 . S
C69 C88 1.877 . S
C127 C173 1.877 1_654 S
C134 C186 1.877 1_554 S
C153 C166 1.877 1_544 S
C3 C224 0.611 . S
C198 C18 0.611 . S
C31 C211 0.611 . S
C94 C42 0.611 . S
C55 C107 0.611 . S
C70 C81 0.611 . S
C120 C174 0.611 1_455 S
C187 C135 0.611 . S
C159 C146 0.611 1_545 S
C4 C43 2.285 1_554 S
C56 C23 2.285 1_546 S
C75 C36 2.285 1_656 S
C68 C16 1.757 1_556 S
C29 C44 1.757 1_564 S
C57 C5 1.757 1_656 S
C82 C121 2.285 . S
C140 C95 2.285 . S
C147 C108 2.285 . S
C148 C96 1.757 . S
C109 C122 1.757 . S
C133 C83 1.757 . S
C199 C160 2.285 . S
C212 C179 2.285 . S
C192 C225 2.285 . S
C226 C172 1.757 . S
C185 C200 1.757 . S
C213 C161 1.757 . S
