# Generated by pormake.
# Topology upd, (4)-cn, num edge types: 1
# Building blocks:
#     Node 0, Type 0, BuildingBlock: NAWXER_clean_sbu_0, # of connection points: 4
#     Node 1, Type 0, BuildingBlock: NAWXER_clean_sbu_0, # of connection points: 4
#     Node 2, Type 0, BuildingBlock: NAWXER_clean_sbu_0, # of connection points: 4
#     Node 3, Type 0, BuildingBlock: NAWXER_clean_sbu_0, # of connection points: 4
#     Node 4, Type 0, BuildingBlock: NAWXER_clean_sbu_0, # of connection points: 4
#     Node 5, Type 0, BuildingBlock: NAWXER_clean_sbu_0, # of connection points: 4
#     Node 6, Type 0, BuildingBlock: NAWXER_clean_sbu_0, # of connection points: 4
#     Node 7, Type 0, BuildingBlock: NAWXER_clean_sbu_0, # of connection points: 4
#     Node 8, Type 0, BuildingBlock: NAWXER_clean_sbu_0, # of connection points: 4
#     Node 9, Type 0, BuildingBlock: NAWXER_clean_sbu_0, # of connection points: 4
#     Node 10, Type 0, BuildingBlock: NAWXER_clean_sbu_0, # of connection points: 4
#     Node 11, Type 0, BuildingBlock: NAWXER_clean_sbu_0, # of connection points: 4
#     Node 12, Type 0, BuildingBlock: NAWXER_clean_sbu_0, # of connection points: 4
#     Node 13, Type 0, BuildingBlock: NAWXER_clean_sbu_0, # of connection points: 4
#     Node 14, Type 0, BuildingBlock: NAWXER_clean_sbu_0, # of connection points: 4
#     Node 15, Type 0, BuildingBlock: NAWXER_clean_sbu_0, # of connection points: 4
#     Node 16, Type 0, BuildingBlock: NAWXER_clean_sbu_0, # of connection points: 4
#     Node 17, Type 0, BuildingBlock: NAWXER_clean_sbu_0, # of connection points: 4
#     Node 18, Type 0, BuildingBlock: NAWXER_clean_sbu_0, # of connection points: 4
#     Node 19, Type 0, BuildingBlock: NAWXER_clean_sbu_0, # of connection points: 4
#     Node 20, Type 0, BuildingBlock: NAWXER_clean_sbu_0, # of connection points: 4
#     Node 21, Type 0, BuildingBlock: NAWXER_clean_sbu_0, # of connection points: 4
#     Node 22, Type 0, BuildingBlock: NAWXER_clean_sbu_0, # of connection points: 4
#     Node 23, Type 0, BuildingBlock: NAWXER_clean_sbu_0, # of connection points: 4
#     Node 24, Type 0, BuildingBlock: NAWXER_clean_sbu_0, # of connection points: 4
#     Node 25, Type 0, BuildingBlock: NAWXER_clean_sbu_0, # of connection points: 4
#     Node 26, Type 0, BuildingBlock: NAWXER_clean_sbu_0, # of connection points: 4
#     Node 27, Type 0, BuildingBlock: NAWXER_clean_sbu_0, # of connection points: 4
#     Node 28, Type 0, BuildingBlock: NAWXER_clean_sbu_0, # of connection points: 4
#     Node 29, Type 0, BuildingBlock: NAWXER_clean_sbu_0, # of connection points: 4
#     Node 30, Type 0, BuildingBlock: NAWXER_clean_sbu_0, # of connection points: 4
#     Node 31, Type 0, BuildingBlock: NAWXER_clean_sbu_0, # of connection points: 4
#     Edge 32, Type (0, 0), BuildingBlock: AJUNOK_clean_linker_0, # of connection points: 2
#     Edge 33, Type (0, 0), BuildingBlock: AJUNOK_clean_linker_0, # of connection points: 2
#     Edge 34, Type (0, 0), BuildingBlock: AJUNOK_clean_linker_0, # of connection points: 2
#     Edge 35, Type (0, 0), BuildingBlock: AJUNOK_clean_linker_0, # of connection points: 2
#     Edge 36, Type (0, 0), BuildingBlock: AJUNOK_clean_linker_0, # of connection points: 2
#     Edge 37, Type (0, 0), BuildingBlock: AJUNOK_clean_linker_0, # of connection points: 2
#     Edge 38, Type (0, 0), BuildingBlock: AJUNOK_clean_linker_0, # of connection points: 2
#     Edge 39, Type (0, 0), BuildingBlock: AJUNOK_clean_linker_0, # of connection points: 2
#     Edge 40, Type (0, 0), BuildingBlock: AJUNOK_clean_linker_0, # of connection points: 2
#     Edge 41, Type (0, 0), BuildingBlock: AJUNOK_clean_linker_0, # of connection points: 2
#     Edge 42, Type (0, 0), BuildingBlock: AJUNOK_clean_linker_0, # of connection points: 2
#     Edge 43, Type (0, 0), BuildingBlock: AJUNOK_clean_linker_0, # of connection points: 2
#     Edge 44, Type (0, 0), BuildingBlock: AJUNOK_clean_linker_0, # of connection points: 2
#     Edge 45, Type (0, 0), BuildingBlock: AJUNOK_clean_linker_0, # of connection points: 2
#     Edge 46, Type (0, 0), BuildingBlock: AJUNOK_clean_linker_0, # of connection points: 2
#     Edge 47, Type (0, 0), BuildingBlock: AJUNOK_clean_linker_0, # of connection points: 2
#     Edge 48, Type (0, 0), BuildingBlock: AJUNOK_clean_linker_0, # of connection points: 2
#     Edge 49, Type (0, 0), BuildingBlock: AJUNOK_clean_linker_0, # of connection points: 2
#     Edge 50, Type (0, 0), BuildingBlock: AJUNOK_clean_linker_0, # of connection points: 2
#     Edge 51, Type (0, 0), BuildingBlock: AJUNOK_clean_linker_0, # of connection points: 2
#     Edge 52, Type (0, 0), BuildingBlock: AJUNOK_clean_linker_0, # of connection points: 2
#     Edge 53, Type (0, 0), BuildingBlock: AJUNOK_clean_linker_0, # of connection points: 2
#     Edge 54, Type (0, 0), BuildingBlock: AJUNOK_clean_linker_0, # of connection points: 2
#     Edge 55, Type (0, 0), BuildingBlock: AJUNOK_clean_linker_0, # of connection points: 2
#     Edge 56, Type (0, 0), BuildingBlock: AJUNOK_clean_linker_0, # of connection points: 2
#     Edge 57, Type (0, 0), BuildingBlock: AJUNOK_clean_linker_0, # of connection points: 2
#     Edge 58, Type (0, 0), BuildingBlock: AJUNOK_clean_linker_0, # of connection points: 2
#     Edge 59, Type (0, 0), BuildingBlock: AJUNOK_clean_linker_0, # of connection points: 2
#     Edge 60, Type (0, 0), BuildingBlock: AJUNOK_clean_linker_0, # of connection points: 2
#     Edge 61, Type (0, 0), BuildingBlock: AJUNOK_clean_linker_0, # of connection points: 2
#     Edge 62, Type (0, 0), BuildingBlock: AJUNOK_clean_linker_0, # of connection points: 2
#     Edge 63, Type (0, 0), BuildingBlock: AJUNOK_clean_linker_0, # of connection points: 2
#     Edge 64, Type (0, 0), BuildingBlock: AJUNOK_clean_linker_0, # of connection points: 2
#     Edge 65, Type (0, 0), BuildingBlock: AJUNOK_clean_linker_0, # of connection points: 2
#     Edge 66, Type (0, 0), BuildingBlock: AJUNOK_clean_linker_0, # of connection points: 2
#     Edge 67, Type (0, 0), BuildingBlock: AJUNOK_clean_linker_0, # of connection points: 2
#     Edge 68, Type (0, 0), BuildingBlock: AJUNOK_clean_linker_0, # of connection points: 2
#     Edge 69, Type (0, 0), BuildingBlock: AJUNOK_clean_linker_0, # of connection points: 2
#     Edge 70, Type (0, 0), BuildingBlock: AJUNOK_clean_linker_0, # of connection points: 2
#     Edge 71, Type (0, 0), BuildingBlock: AJUNOK_clean_linker_0, # of connection points: 2
#     Edge 72, Type (0, 0), BuildingBlock: AJUNOK_clean_linker_0, # of connection points: 2
#     Edge 73, Type (0, 0), BuildingBlock: AJUNOK_clean_linker_0, # of connection points: 2
#     Edge 74, Type (0, 0), BuildingBlock: AJUNOK_clean_linker_0, # of connection points: 2
#     Edge 75, Type (0, 0), BuildingBlock: AJUNOK_clean_linker_0, # of connection points: 2
#     Edge 76, Type (0, 0), BuildingBlock: AJUNOK_clean_linker_0, # of connection points: 2
#     Edge 77, Type (0, 0), BuildingBlock: AJUNOK_clean_linker_0, # of connection points: 2
#     Edge 78, Type (0, 0), BuildingBlock: AJUNOK_clean_linker_0, # of connection points: 2
#     Edge 79, Type (0, 0), BuildingBlock: AJUNOK_clean_linker_0, # of connection points: 2
#     Edge 80, Type (0, 0), BuildingBlock: AJUNOK_clean_linker_0, # of connection points: 2
#     Edge 81, Type (0, 0), BuildingBlock: AJUNOK_clean_linker_0, # of connection points: 2
#     Edge 82, Type (0, 0), BuildingBlock: AJUNOK_clean_linker_0, # of connection points: 2
#     Edge 83, Type (0, 0), BuildingBlock: AJUNOK_clean_linker_0, # of connection points: 2
#     Edge 84, Type (0, 0), BuildingBlock: AJUNOK_clean_linker_0, # of connection points: 2
#     Edge 85, Type (0, 0), BuildingBlock: AJUNOK_clean_linker_0, # of connection points: 2
#     Edge 86, Type (0, 0), BuildingBlock: AJUNOK_clean_linker_0, # of connection points: 2
#     Edge 87, Type (0, 0), BuildingBlock: AJUNOK_clean_linker_0, # of connection points: 2
#     Edge 88, Type (0, 0), BuildingBlock: AJUNOK_clean_linker_0, # of connection points: 2
#     Edge 89, Type (0, 0), BuildingBlock: AJUNOK_clean_linker_0, # of connection points: 2
#     Edge 90, Type (0, 0), BuildingBlock: AJUNOK_clean_linker_0, # of connection points: 2
#     Edge 91, Type (0, 0), BuildingBlock: AJUNOK_clean_linker_0, # of connection points: 2
#     Edge 92, Type (0, 0), BuildingBlock: AJUNOK_clean_linker_0, # of connection points: 2
#     Edge 93, Type (0, 0), BuildingBlock: AJUNOK_clean_linker_0, # of connection points: 2
#     Edge 94, Type (0, 0), BuildingBlock: AJUNOK_clean_linker_0, # of connection points: 2
#     Edge 95, Type (0, 0), BuildingBlock: AJUNOK_clean_linker_0, # of connection points: 2
# Relax obj value: 0.044
# Max RMSD: 0.097
# Mean RMSD: 0.097
data_MOF--net-upd--node1-NAWXER_clean_sbu_0--edge1-AJUNOK_clean_linker_0
_symmetry_space_group_name_H-M    P1
_symmetry_Int_Tables_number       1
_symmetry_cell_setting            triclinic
loop_
_symmetry_equiv_pos_as_xyz
'x, y, z'
_cell_length_a     29.475394
_cell_length_b     29.512343
_cell_length_c     54.629445
_cell_angle_alpha  90.162531
_cell_angle_beta   90.081396
_cell_angle_gamma 90.004935
loop_
_atom_site_label
_atom_site_type_symbol
_atom_site_fract_x
_atom_site_fract_y
_atom_site_fract_z
_atom_type_partial_charge
C0 C 0.17727 0.07288 0.30965 0.0
C1 C 0.17808 0.18545 0.37541 0.0
O2 O 0.14966 0.10573 0.30619 0.0
Zn3 Zn 0.1311 0.16805 0.32325 0.0
O4 O 0.20257 0.07235 0.32854 0.0
Zn5 Zn 0.18085 0.12891 0.34253 0.0
O6 O 0.11115 0.11405 0.35108 0.0
O7 O 0.06712 0.1588 0.32903 0.0
O8 O 0.20326 0.15055 0.37411 0.0
O9 O 0.15101 0.19508 0.35786 0.0
O10 O 0.15166 0.21283 0.29972 0.0
O11 O 0.20805 0.17609 0.31708 0.0
C12 C 0.07138 0.12764 0.34495 0.0
C13 C 0.19404 0.20558 0.3017 0.0
C14 C 0.05532 0.93747 0.55098 0.0
C15 C 0.12782 0.80815 0.59112 0.0
O16 O 0.08572 0.94923 0.56661 0.0
Zn17 Zn 0.1327 0.91685 0.59144 0.0
O18 O 0.04689 0.89559 0.54779 0.0
Zn19 Zn 0.0911 0.8721 0.57049 0.0
O20 O 0.06375 0.89217 0.6051 0.0
O21 O 0.11294 0.93733 0.62364 0.0
O22 O 0.09712 0.8071 0.57476 0.0
O23 O 0.1436 0.8464 0.59829 0.0
O24 O 0.19084 0.93608 0.57875 0.0
O25 O 0.15309 0.89181 0.5532 0.0
C26 C 0.07534 0.91625 0.62361 0.0
C27 C 0.18792 0.91619 0.55813 0.0
C28 C 0.33985 0.82285 0.87117 0.0
C29 C 0.34008 0.93227 0.80461 0.0
O30 O 0.36716 0.81262 0.85383 0.0
Zn31 Zn 0.38648 0.83784 0.81877 0.0
O32 O 0.31341 0.85666 0.86909 0.0
Zn33 Zn 0.33639 0.87663 0.83747 0.0
O34 O 0.3094 0.82792 0.81227 0.0
O35 O 0.36695 0.79172 0.79576 0.0
O36 O 0.31471 0.93269 0.82341 0.0
O37 O 0.36806 0.89965 0.80125 0.0
O38 O 0.45025 0.84655 0.82484 0.0
O39 O 0.40635 0.89147 0.84695 0.0
C40 C 0.32442 0.79791 0.79734 0.0
C41 C 0.44604 0.87698 0.84124 0.0
C42 C 0.42846 0.0889 0.12694 0.0
C43 C 0.32075 0.08199 0.05917 0.0
O44 O 0.43974 0.11376 0.10878 0.0
Zn45 Zn 0.41565 0.12912 0.07284 0.0
O46 O 0.39389 0.06329 0.12547 0.0
Zn47 Zn 0.37483 0.08275 0.09297 0.0
O48 O 0.42328 0.05181 0.06884 0.0
O49 O 0.46238 0.10632 0.0513 0.0
O50 O 0.31785 0.06171 0.07961 0.0
O51 O 0.35492 0.1075 0.05472 0.0
O52 O 0.40703 0.19376 0.07629 0.0
O53 O 0.36095 0.1533 0.09941 0.0
C54 C 0.45433 0.06429 0.05389 0.0
C55 C 0.37561 0.19191 0.09221 0.0
C56 C 0.16819 0.82513 0.16731 0.0
C57 C 0.17274 0.93448 0.23453 0.0
O58 O 0.14257 0.81474 0.18533 0.0
Zn59 Zn 0.12593 0.83972 0.22085 0.0
O60 O 0.19438 0.85929 0.16876 0.0
Zn61 Zn 0.174 0.87947 0.20102 0.0
O62 O 0.20349 0.83129 0.22535 0.0
O63 O 0.14832 0.79383 0.24325 0.0
O64 O 0.19634 0.93571 0.21506 0.0
O65 O 0.14545 0.90145 0.23824 0.0
O66 O 0.06155 0.84811 0.21634 0.0
O67 O 0.10332 0.89361 0.1935 0.0
C68 C 0.19054 0.80106 0.24059 0.0
C69 C 0.06423 0.87883 0.20008 0.0
C70 C 0.32614 0.91912 0.4829 0.0
C71 C 0.43258 0.91952 0.41454 0.0
O72 O 0.36141 0.89483 0.48682 0.0
Zn73 Zn 0.4221 0.8759 0.46799 0.0
O74 O 0.32129 0.93919 0.4625 0.0
Zn75 Zn 0.37871 0.9209 0.44845 0.0
O76 O 0.36783 0.85023 0.44129 0.0
O77 O 0.41606 0.81098 0.46375 0.0
O78 O 0.39599 0.94213 0.41603 0.0
O79 O 0.44552 0.89478 0.43244 0.0
O80 O 0.46817 0.89972 0.48958 0.0
O81 O 0.42696 0.95327 0.47245 0.0
C82 C 0.38438 0.81202 0.44793 0.0
C83 C 0.4588 0.94154 0.48717 0.0
C84 C 0.31619 0.20478 0.74042 0.0
C85 C 0.44195 0.13503 0.69573 0.0
O86 O 0.30308 0.17521 0.72469 0.0
Zn87 Zn 0.33295 0.12915 0.69877 0.0
O88 O 0.35835 0.21295 0.74267 0.0
Zn89 Zn 0.38003 0.17013 0.71856 0.0
O90 O 0.35619 0.19818 0.68495 0.0
O91 O 0.3094 0.14932 0.66733 0.0
O92 O 0.44426 0.16568 0.7121 0.0
O93 O 0.4032 0.11858 0.68972 0.0
O94 O 0.31379 0.07154 0.71192 0.0
O95 O 0.36458 0.10649 0.73508 0.0
C96 C 0.33028 0.18699 0.6671 0.0
C97 C 0.33847 0.07261 0.73101 0.0
C98 C 0.13208 0.19367 0.94824 0.0
C99 C 0.05004 0.07252 0.99042 0.0
O100 O 0.14488 0.15393 0.9418 0.0
Zn101 Zn 0.12904 0.08492 0.94998 0.0
O102 O 0.10117 0.19794 0.9643 0.0
Zn103 Zn 0.09009 0.13389 0.9696 0.0
O104 O 0.1499 0.11095 0.98785 0.0
O105 O 0.18567 0.06289 0.9635 0.0
O106 O 0.04399 0.11504 0.99238 0.0
O107 O 0.07986 0.05755 0.9753 0.0
O108 O 0.10834 0.06345 0.91813 0.0
O109 O 0.06228 0.11357 0.93517 0.0
C110 C 0.18304 0.08391 0.9838 0.0
C111 C 0.07251 0.08736 0.9173 0.0
C112 C 0.93483 0.88518 0.69426 0.0
C113 C 0.81297 0.80451 0.73764 0.0
O114 O 0.93986 0.85557 0.71096 0.0
Zn115 Zn 0.87545 0.84405 0.71697 0.0
O116 O 0.89468 0.89735 0.68825 0.0
Zn117 Zn 0.82595 0.88267 0.69709 0.0
O118 O 0.80437 0.93948 0.71063 0.0
O119 O 0.85271 0.90411 0.7349 0.0
O120 O 0.7988 0.83416 0.72232 0.0
O121 O 0.85549 0.79816 0.74001 0.0
O122 O 0.85496 0.81601 0.6826 0.0
O123 O 0.8041 0.86123 0.6655 0.0
C124 C 0.82578 0.9373 0.73082 0.0
C125 C 0.82846 0.82569 0.66478 0.0
C126 C 0.8822 0.19452 0.44869 0.0
C127 C 0.9615 0.07112 0.4904 0.0
O128 O 0.91225 0.19771 0.46533 0.0
Zn129 Zn 0.92168 0.13349 0.47012 0.0
O130 O 0.8681 0.15526 0.44203 0.0
Zn131 Zn 0.88236 0.08537 0.45031 0.0
O132 O 0.82546 0.06405 0.46346 0.0
O133 O 0.86144 0.11131 0.48822 0.0
O134 O 0.93122 0.05676 0.47534 0.0
O135 O 0.96812 0.1135 0.49248 0.0
O136 O 0.94781 0.11494 0.43501 0.0
O137 O 0.90251 0.06338 0.41855 0.0
C138 C 0.82804 0.08471 0.48386 0.0
C139 C 0.93741 0.08854 0.41724 0.0
C140 C 0.66175 0.18259 0.16747 0.0
C141 C 0.67175 0.0723 0.23356 0.0
O142 O 0.68738 0.14796 0.16798 0.0
Zn143 Zn 0.66854 0.12689 0.20018 0.0
O144 O 0.63719 0.19261 0.18601 0.0
Zn145 Zn 0.62236 0.16646 0.22146 0.0
O146 O 0.6455 0.21242 0.24352 0.0
O147 O 0.69967 0.17458 0.22471 0.0
O148 O 0.64576 0.10583 0.2386 0.0
O149 O 0.69061 0.06968 0.21268 0.0
O150 O 0.59799 0.11315 0.19377 0.0
O151 O 0.55755 0.15724 0.2181 0.0
C152 C 0.68754 0.20478 0.2403 0.0
C153 C 0.55934 0.12726 0.20134 0.0
C154 C 0.54935 0.93336 0.99193 0.0
C155 C 0.62866 0.81073 0.94972 0.0
O156 O 0.543 0.89093 0.99364 0.0
Zn157 Zn 0.58926 0.87139 0.97118 0.0
O158 O 0.57939 0.94818 0.97697 0.0
Zn159 Zn 0.62777 0.91999 0.95159 0.0
O160 O 0.60696 0.94157 0.91983 0.0
O161 O 0.56303 0.88877 0.93591 0.0
O162 O 0.64253 0.85003 0.94313 0.0
O163 O 0.59875 0.80735 0.96637 0.0
O164 O 0.65022 0.89311 0.98902 0.0
O165 O 0.68497 0.94136 0.96454 0.0
C166 C 0.57291 0.91531 0.91821 0.0
C167 C 0.68358 0.9197 0.98461 0.0
C168 C 0.82905 0.18116 0.87485 0.0
C169 C 0.82524 0.07169 0.8078 0.0
O170 O 0.80372 0.14635 0.87355 0.0
Zn171 Zn 0.82567 0.12524 0.84192 0.0
O172 O 0.85607 0.19079 0.85729 0.0
Zn173 Zn 0.87622 0.16372 0.82269 0.0
O174 O 0.85733 0.21042 0.79978 0.0
O175 O 0.7999 0.17424 0.81661 0.0
O176 O 0.8528 0.10451 0.80417 0.0
O177 O 0.80371 0.0689 0.8279 0.0
O178 O 0.89393 0.10933 0.85109 0.0
O179 O 0.9403 0.15082 0.82899 0.0
C180 C 0.81473 0.20392 0.80152 0.0
C181 C 0.93439 0.12098 0.84548 0.0
C182 C 0.57489 0.09508 0.6223 0.0
C183 C 0.68699 0.08411 0.55701 0.0
O184 O 0.60777 0.06726 0.62135 0.0
Zn185 Zn 0.63058 0.08659 0.58955 0.0
O186 O 0.56661 0.12116 0.60417 0.0
Zn187 Zn 0.59416 0.13616 0.56903 0.0
O188 O 0.54784 0.11677 0.54623 0.0
O189 O 0.58216 0.05935 0.56403 0.0
O190 O 0.65463 0.11162 0.55214 0.0
O191 O 0.68739 0.06291 0.57724 0.0
O192 O 0.64802 0.15595 0.59717 0.0
O193 O 0.60663 0.20007 0.57339 0.0
C194 C 0.55303 0.07425 0.54854 0.0
C195 C 0.63647 0.19569 0.59009 0.0
C196 C 0.676 0.93207 0.30695 0.0
C197 C 0.66712 0.82048 0.37254 0.0
O198 O 0.69772 0.93284 0.32709 0.0
Zn199 Zn 0.6744 0.87624 0.33982 0.0
O200 O 0.64835 0.89965 0.30238 0.0
Zn201 Zn 0.62421 0.83955 0.31959 0.0
O202 O 0.5602 0.85225 0.32442 0.0
O203 O 0.60517 0.89359 0.34783 0.0
O204 O 0.6405 0.81216 0.35456 0.0
O205 O 0.69461 0.85363 0.37155 0.0
O206 O 0.70118 0.82761 0.31437 0.0
O207 O 0.64338 0.79305 0.29685 0.0
C208 C 0.56511 0.88217 0.34105 0.0
C209 C 0.68601 0.79826 0.29905 0.0
C210 C 0.95696 0.94095 0.05254 0.0
C211 C 0.8825 0.81199 0.09196 0.0
O212 O 0.96592 0.89905 0.05002 0.0
Zn213 Zn 0.9202 0.87555 0.07188 0.0
O214 O 0.92591 0.95299 0.06765 0.0
Zn215 Zn 0.87858 0.92111 0.09217 0.0
O216 O 0.89777 0.94176 0.12448 0.0
O217 O 0.94486 0.8926 0.1075 0.0
O218 O 0.86681 0.85035 0.09905 0.0
O219 O 0.91326 0.81069 0.07566 0.0
O220 O 0.85892 0.89577 0.05394 0.0
O221 O 0.82076 0.94045 0.07911 0.0
C222 C 0.93332 0.9175 0.12566 0.0
C223 C 0.82428 0.92058 0.05852 0.0
C224 C 0.67648 0.57367 0.80679 0.0
C225 C 0.66789 0.68223 0.87405 0.0
O226 O 0.64864 0.60609 0.80274 0.0
Zn227 Zn 0.62436 0.66525 0.82099 0.0
O228 O 0.69789 0.5718 0.82699 0.0
Zn229 Zn 0.67474 0.62805 0.84042 0.0
O230 O 0.60547 0.61058 0.84869 0.0
O231 O 0.56053 0.65254 0.82572 0.0
O232 O 0.69565 0.64941 0.87232 0.0
O233 O 0.64095 0.69127 0.85634 0.0
O234 O 0.64261 0.71252 0.79882 0.0
O235 O 0.70112 0.67759 0.81529 0.0
C236 C 0.5654 0.62243 0.84215 0.0
C237 C 0.6853 0.70731 0.80045 0.0
C238 C 0.55187 0.44321 0.05181 0.0
C239 C 0.62282 0.31619 0.09452 0.0
O240 O 0.58272 0.45578 0.06693 0.0
Zn241 Zn 0.62966 0.42531 0.09189 0.0
O242 O 0.54273 0.40129 0.04977 0.0
Zn243 Zn 0.58708 0.37865 0.0728 0.0
O244 O 0.56242 0.40039 0.10761 0.0
O245 O 0.61148 0.44877 0.12372 0.0
O246 O 0.5915 0.3144 0.07849 0.0
O247 O 0.63994 0.35464 0.10052 0.0
O248 O 0.68701 0.44361 0.07787 0.0
O249 O 0.65004 0.39335 0.05533 0.0
C250 C 0.57473 0.42642 0.12518 0.0
C251 C 0.6847 0.41871 0.05888 0.0
C252 C 0.84228 0.32465 0.37414 0.0
C253 C 0.83358 0.43302 0.30691 0.0
O254 O 0.86811 0.31464 0.35611 0.0
Zn255 Zn 0.88391 0.34011 0.32054 0.0
O256 O 0.81574 0.3585 0.37279 0.0
Zn257 Zn 0.83579 0.37882 0.34062 0.0
O258 O 0.80691 0.32951 0.316 0.0
O259 O 0.8636 0.29305 0.29865 0.0
O260 O 0.81306 0.43518 0.32734 0.0
O261 O 0.86045 0.39988 0.3025 0.0
O262 O 0.94817 0.35059 0.32444 0.0
O263 O 0.906 0.39446 0.34801 0.0
C264 C 0.82117 0.29921 0.30097 0.0
C265 C 0.94522 0.38087 0.34097 0.0
C266 C 0.92998 0.58455 0.62512 0.0
C267 C 0.81946 0.57973 0.55851 0.0
O268 O 0.93868 0.61187 0.60759 0.0
Zn269 Zn 0.91247 0.62964 0.57255 0.0
O270 O 0.89711 0.55679 0.62335 0.0
Zn271 Zn 0.87509 0.578 0.59165 0.0
O272 O 0.92379 0.55275 0.56661 0.0
O273 O 0.95893 0.60998 0.54931 0.0
O274 O 0.81955 0.55428 0.57727 0.0
O275 O 0.85131 0.60855 0.55529 0.0
O276 O 0.89963 0.69331 0.57844 0.0
O277 O 0.85741 0.64687 0.60034 0.0
C278 C 0.9532 0.56743 0.55138 0.0
C279 C 0.8689 0.68734 0.59453 0.0
C280 C 0.68869 0.30142 0.73784 0.0
C281 C 0.56682 0.38269 0.69612 0.0
O282 O 0.70418 0.33175 0.72327 0.0
Zn283 Zn 0.67635 0.38106 0.69816 0.0
O284 O 0.6461 0.29557 0.73929 0.0
Zn285 Zn 0.62743 0.34248 0.71725 0.0
O286 O 0.64569 0.31668 0.68194 0.0
O287 O 0.69875 0.36109 0.66645 0.0
O288 O 0.56343 0.35253 0.71257 0.0
O289 O 0.6063 0.39641 0.68957 0.0
O290 O 0.69817 0.4376 0.71159 0.0
O291 O 0.64974 0.40246 0.73582 0.0
C292 C 0.67278 0.32691 0.66452 0.0
C293 C 0.67666 0.43566 0.7317 0.0
C294 C 0.82482 0.41821 0.9849 0.0
C295 C 0.93438 0.42084 0.91825 0.0
O296 O 0.85737 0.38997 0.9877 0.0
Zn297 Zn 0.91875 0.3713 0.9698 0.0
O298 O 0.82452 0.44487 0.96666 0.0
Zn299 Zn 0.88021 0.42298 0.95196 0.0
O300 O 0.86355 0.35396 0.94202 0.0
O301 O 0.90768 0.30782 0.96307 0.0
O302 O 0.90055 0.44715 0.92071 0.0
O303 O 0.94424 0.39232 0.93505 0.0
O304 O 0.96525 0.38951 0.99316 0.0
O305 O 0.92941 0.44785 0.97732 0.0
C306 C 0.87643 0.31355 0.94726 0.0
C307 C 0.95938 0.43212 0.99202 0.0
C308 C 0.81736 0.70246 0.23762 0.0
C309 C 0.94349 0.62091 0.19867 0.0
O310 O 0.80454 0.67217 0.22225 0.0
Zn311 Zn 0.83422 0.62373 0.19779 0.0
O312 O 0.85959 0.70974 0.24052 0.0
Zn313 Zn 0.88199 0.66299 0.21858 0.0
O314 O 0.86731 0.6884 0.18299 0.0
O315 O 0.81557 0.6448 0.16543 0.0
O316 O 0.94666 0.65161 0.21502 0.0
O317 O 0.90416 0.60819 0.19136 0.0
O318 O 0.81174 0.56693 0.2109 0.0
O319 O 0.85808 0.60316 0.23611 0.0
C320 C 0.84226 0.67861 0.16457 0.0
C321 C 0.83156 0.56982 0.23156 0.0
C322 C 0.68417 0.58121 0.48178 0.0
C323 C 0.57602 0.57756 0.41411 0.0
O324 O 0.65028 0.60777 0.48489 0.0
Zn325 Zn 0.58882 0.62504 0.46652 0.0
O326 O 0.68688 0.55724 0.46246 0.0
Zn327 Zn 0.63055 0.57743 0.44772 0.0
O328 O 0.64287 0.64783 0.43919 0.0
O329 O 0.59524 0.68915 0.46102 0.0
O330 O 0.61233 0.55452 0.41571 0.0
O331 O 0.56405 0.6038 0.43162 0.0
O332 O 0.54326 0.60378 0.48899 0.0
O333 O 0.58199 0.54801 0.47222 0.0
C334 C 0.62663 0.6867 0.44513 0.0
C335 C 0.55116 0.56158 0.48705 0.0
C336 C 0.44178 0.38643 0.1977 0.0
C337 C 0.32164 0.30065 0.23822 0.0
O338 O 0.44612 0.35649 0.21422 0.0
Zn339 Zn 0.38242 0.34324 0.21822 0.0
O340 O 0.40187 0.39823 0.19079 0.0
Zn341 Zn 0.33244 0.38039 0.19856 0.0
O342 O 0.30824 0.4361 0.21209 0.0
O343 O 0.35687 0.4017 0.23665 0.0
O344 O 0.30595 0.33048 0.22341 0.0
O345 O 0.36432 0.29558 0.24009 0.0
O346 O 0.36635 0.31714 0.18276 0.0
O347 O 0.31171 0.35897 0.1667 0.0
C348 C 0.32874 0.43386 0.23254 0.0
C349 C 0.33939 0.32608 0.16504 0.0
C350 C 0.43275 0.58791 0.91601 0.0
C351 C 0.32503 0.58757 0.98376 0.0
O352 O 0.39758 0.56322 0.91785 0.0
Zn353 Zn 0.37824 0.58647 0.94957 0.0
O354 O 0.44377 0.61493 0.93339 0.0
Zn355 Zn 0.41854 0.63504 0.96845 0.0
O356 O 0.46547 0.61592 0.99057 0.0
O357 O 0.42763 0.55863 0.97456 0.0
O358 O 0.35887 0.61395 0.98744 0.0
O359 O 0.32147 0.56618 0.96361 0.0
O360 O 0.3642 0.65603 0.94071 0.0
O361 O 0.40924 0.69897 0.96323 0.0
C362 C 0.45849 0.57351 0.98913 0.0
C363 C 0.37866 0.69541 0.94691 0.0
C364 C 0.17456 0.56939 0.73184 0.0
C365 C 0.16745 0.67483 0.66342 0.0
O366 O 0.19375 0.56494 0.71114 0.0
Zn367 Zn 0.17296 0.62166 0.69739 0.0
O368 O 0.14916 0.60373 0.73606 0.0
Zn369 Zn 0.12712 0.66338 0.71755 0.0
O370 O 0.06224 0.65488 0.71421 0.0
O371 O 0.10217 0.60855 0.69091 0.0
O372 O 0.14287 0.68665 0.68164 0.0
O373 O 0.19253 0.63988 0.66478 0.0
O374 O 0.20466 0.67063 0.72118 0.0
O375 O 0.15052 0.71047 0.73875 0.0
C376 C 0.06365 0.62377 0.69805 0.0
C377 C 0.19254 0.70208 0.73605 0.0
C378 C 0.1846 0.43498 0.48221 0.0
C379 C 0.0768 0.42274 0.41467 0.0
O380 O 0.18665 0.45562 0.46184 0.0
Zn381 Zn 0.1311 0.43086 0.4482 0.0
O382 O 0.15273 0.40649 0.4862 0.0
Zn383 Zn 0.09452 0.38035 0.46778 0.0
O384 O 0.10867 0.31677 0.46338 0.0
O385 O 0.15004 0.36181 0.44025 0.0
O386 O 0.06821 0.39596 0.43244 0.0
O387 O 0.10939 0.45083 0.41624 0.0
O388 O 0.0808 0.45684 0.47315 0.0
O389 O 0.04669 0.39815 0.48978 0.0
C390 C 0.13891 0.32173 0.447 0.0
C391 C 0.05123 0.44084 0.48802 0.0
C392 C 0.34248 0.67903 0.37509 0.0
C393 C 0.32857 0.5703 0.30811 0.0
O394 O 0.31402 0.64673 0.37379 0.0
Zn395 Zn 0.33285 0.6249 0.34163 0.0
O396 O 0.36856 0.68759 0.35698 0.0
Zn397 Zn 0.38277 0.66123 0.32139 0.0
O398 O 0.36391 0.70874 0.29941 0.0
O399 O 0.30597 0.6747 0.31689 0.0
O400 O 0.35667 0.60231 0.30365 0.0
O401 O 0.30792 0.56911 0.32852 0.0
O402 O 0.40226 0.60637 0.34887 0.0
O403 O 0.44662 0.64733 0.32515 0.0
C404 C 0.32127 0.70415 0.30177 0.0
C405 C 0.4422 0.61756 0.34178 0.0
C406 C 0.0795 0.58492 0.12695 0.0
C407 C 0.18833 0.58497 0.0597 0.0
O408 O 0.1158 0.56179 0.12571 0.0
Zn409 Zn 0.13419 0.58301 0.09347 0.0
O410 O 0.06731 0.6098 0.10895 0.0
Zn411 Zn 0.0919 0.62833 0.07358 0.0
O412 O 0.04632 0.60476 0.05162 0.0
O413 O 0.0865 0.55078 0.06902 0.0
O414 O 0.15325 0.60932 0.05537 0.0
O415 O 0.19196 0.56442 0.08004 0.0
O416 O 0.14527 0.65375 0.10084 0.0
O417 O 0.09805 0.69322 0.07788 0.0
C418 C 0.05518 0.56284 0.05406 0.0
C419 C 0.12912 0.69205 0.09406 0.0
C420 C 0.17133 0.32732 0.87593 0.0
C421 C 0.17612 0.43478 0.80834 0.0
O422 O 0.19761 0.36129 0.87414 0.0
Zn423 Zn 0.17562 0.38129 0.84231 0.0
O424 O 0.14419 0.31726 0.85843 0.0
Zn425 Zn 0.12575 0.34267 0.82322 0.0
O426 O 0.14417 0.29507 0.80113 0.0
O427 O 0.20225 0.33115 0.81747 0.0
O428 O 0.14875 0.40178 0.80454 0.0
O429 O 0.19801 0.43718 0.82838 0.0
O430 O 0.10632 0.39799 0.85073 0.0
O431 O 0.0619 0.35445 0.82821 0.0
C432 C 0.1868 0.30073 0.80283 0.0
C433 C 0.06641 0.38532 0.84433 0.0
C434 C 0.43165 0.42439 0.62412 0.0
C435 C 0.32003 0.43535 0.55826 0.0
O436 O 0.39982 0.45338 0.62273 0.0
Zn437 Zn 0.37536 0.43209 0.59157 0.0
O438 O 0.4381 0.39606 0.60669 0.0
Zn439 Zn 0.40898 0.37848 0.57212 0.0
O440 O 0.45636 0.39341 0.54892 0.0
O441 O 0.42515 0.45378 0.56573 0.0
O442 O 0.35075 0.40558 0.55431 0.0
O443 O 0.32004 0.45779 0.57817 0.0
O444 O 0.35485 0.36497 0.60111 0.0
O445 O 0.39183 0.31578 0.57825 0.0
C446 C 0.45336 0.43632 0.55056 0.0
C447 C 0.36337 0.3238 0.59524 0.0
C448 C 0.12929 0.24285 0.43092 0.0
C449 C 0.15605 0.28223 0.43288 0.0
C450 C 0.13899 0.20945 0.41336 0.0
C451 C 0.17627 0.21378 0.39755 0.0
H452 H 0.09875 0.23926 0.44176 0.0
H453 H 0.11564 0.18135 0.41116 0.0
S454 S 0.25998 0.30713 0.39695 0.0
N455 N 0.22395 0.3213 0.41881 0.0
N456 N 0.24194 0.25811 0.38598 0.0
C457 C 0.20505 0.25115 0.40037 0.0
C458 C 0.19507 0.28544 0.41806 0.0
C459 C 0.0518 0.88963 0.66491 0.0
C460 C 0.04437 0.91792 0.64465 0.0
C461 C 0.01713 0.88151 0.68202 0.0
C462 C 0.97389 0.90134 0.67934 0.0
H463 H 0.08354 0.87139 0.66665 0.0
H464 H 0.02351 0.85749 0.69658 0.0
S465 S 0.94 0.98228 0.63045 0.0
N466 N 0.99275 0.96836 0.62365 0.0
N467 N 0.92784 0.95457 0.65581 0.0
C468 C 0.9675 0.93232 0.65993 0.0
C469 C 1.00265 0.9401 0.64253 0.0
C470 C 0.32252 0.73433 0.91981 0.0
C471 C 0.36465 0.73494 0.9321 0.0
C472 C 0.31255 0.76574 0.90129 0.0
C473 C 0.34463 0.79832 0.89438 0.0
H474 H 0.29803 0.70792 0.92365 0.0
H475 H 0.28098 0.76254 0.89126 0.0
S476 S 0.45856 0.81636 0.92152 0.0
N477 N 0.43736 0.77313 0.93687 0.0
N478 N 0.41879 0.83137 0.90182 0.0
C479 C 0.38572 0.80096 0.90734 0.0
C480 C 0.39567 0.76952 0.92636 0.0
C481 C 0.48483 0.06138 0.15752 0.0
C482 C 0.45371 0.09444 0.14997 0.0
C483 C 0.51695 0.07108 0.17582 0.0
C484 C 0.51845 0.1139 0.18733 0.0
H485 H 0.48641 0.02906 0.1481 0.0
H486 H 0.54237 0.04576 0.18004 0.0
S487 S 0.44152 0.21069 0.17491 0.0
N488 N 0.42435 0.17048 0.15596 0.0
N489 N 0.48387 0.18852 0.1907 0.0
C490 C 0.48528 0.14606 0.18101 0.0
C491 C 0.45318 0.1364 0.16214 0.0
C492 C 0.19559 0.76821 0.13693 0.0
C493 C 0.16254 0.79944 0.14441 0.0
C494 C 0.18555 0.73535 0.11906 0.0
C495 C 0.14236 0.73316 0.10794 0.0
H496 H 0.22817 0.76711 0.14612 0.0
H497 H 0.21098 0.71 0.11486 0.0
S498 S 0.04555 0.81034 0.12015 0.0
N499 N 0.08618 0.8283 0.13863 0.0
N500 N 0.06751 0.76745 0.1047 0.0
C501 C 0.11021 0.76645 0.11413 0.0
C502 C 0.12023 0.79931 0.13255 0.0
C503 C 0.45464 0.88047 0.37619 0.0
C504 C 0.45929 0.91798 0.39188 0.0
C505 C 0.48712 0.87123 0.35807 0.0
C506 C 0.5258 0.89878 0.35545 0.0
H507 H 0.42721 0.85656 0.37893 0.0
H508 H 0.48359 0.84046 0.34739 0.0
S509 S 0.55073 0.00374 0.39068 0.0
N510 N 0.50288 0.98474 0.40256 0.0
N511 N 0.56423 0.96776 0.36864 0.0
C512 C 0.52907 0.93809 0.37009 0.0
C513 C 0.49579 0.94753 0.38836 0.0
C514 C 0.34993 0.20761 0.62428 0.0
C515 C 0.32733 0.21802 0.6462 0.0
C516 C 0.3588 0.24144 0.60685 0.0
C517 C 0.34519 0.28667 0.61082 0.0
H518 H 0.36371 0.17398 0.6214 0.0
H519 H 0.37874 0.23255 0.59091 0.0
S520 S 0.27962 0.32896 0.66441 0.0
N521 N 0.28824 0.27481 0.67023 0.0
N522 N 0.30315 0.33825 0.63749 0.0
C523 C 0.31929 0.2963 0.63196 0.0
C524 C 0.31095 0.26201 0.6497 0.0
C525 C 0.05045 0.11439 0.87586 0.0
C526 C 0.04198 0.08628 0.89605 0.0
C527 C 0.01641 0.12309 0.85842 0.0
C528 C 0.97274 0.1041 0.86075 0.0
H529 H 0.08259 0.13198 0.87437 0.0
H530 H 0.02364 0.14689 0.84389 0.0
S531 S 0.93587 0.02447 0.90959 0.0
N532 N 0.98877 0.03722 0.91676 0.0
N533 N 0.92495 0.05214 0.88404 0.0
C534 C 0.96521 0.07342 0.88017 0.0
C535 C 0.99976 0.06502 0.89788 0.0
C536 C 0.87076 0.76908 0.60752 0.0
C537 C 0.85041 0.72595 0.60898 0.0
C538 C 0.86028 0.80327 0.62453 0.0
C539 C 0.82882 0.79562 0.64336 0.0
H540 H 0.89704 0.77564 0.59415 0.0
H541 H 0.87906 0.83483 0.62393 0.0
S542 S 0.76228 0.69131 0.65392 0.0
N543 N 0.7937 0.67959 0.62971 0.0
N544 N 0.77517 0.74385 0.66171 0.0
C545 C 0.80616 0.75406 0.64416 0.0
C546 C 0.81652 0.71926 0.62689 0.0
C547 C 0.99427 0.14014 0.36259 0.0
C548 C 0.03178 0.11136 0.35908 0.0
C549 C 0.96151 0.13049 0.3804 0.0
C550 C 0.96459 0.09128 0.39484 0.0
H551 H 0.99194 0.172 0.35286 0.0
H552 H 0.93501 0.15514 0.38389 0.0
S553 S 0.05236 1.00209 0.39079 0.0
N554 N 0.06741 0.03969 0.36998 0.0
N555 N 0.00526 0.02173 0.40328 0.0
C556 C 0.99975 0.06058 0.39033 0.0
C557 C 0.03347 0.07054 0.37241 0.0
C558 C 0.67878 0.27328 0.11991 0.0
C559 C 0.63554 0.2757 0.1089 0.0
C560 C 0.68875 0.24033 0.13763 0.0
C561 C 0.65556 0.20927 0.14507 0.0
H562 H 0.70444 0.29829 0.1156 0.0
H563 H 0.72152 0.24101 0.14663 0.0
S564 S 0.53809 0.19953 0.12135 0.0
N565 N 0.56023 0.24223 0.10595 0.0
N566 N 0.57881 0.1812 0.13961 0.0
C567 C 0.61303 0.20992 0.13348 0.0
C568 C 0.60306 0.24285 0.11522 0.0
C569 C 0.51523 0.94218 0.88807 0.0
C570 C 0.54769 0.91005 0.89515 0.0
C571 C 0.48417 0.93246 0.86923 0.0
C572 C 0.48506 0.89056 0.85674 0.0
H573 H 0.51203 0.97374 0.8981 0.0
H574 H 0.45794 0.95706 0.8652 0.0
S575 S 0.56585 0.79634 0.86797 0.0
N576 N 0.58055 0.83587 0.88791 0.0
N577 N 0.52308 0.81777 0.85224 0.0
C578 C 0.51934 0.85936 0.86281 0.0
C579 C 0.55037 0.86904 0.88218 0.0
C580 C 0.82254 0.28308 0.91584 0.0
C581 C 0.85799 0.27501 0.93269 0.0
C582 C 0.81017 0.25059 0.89828 0.0
C583 C 0.83216 0.20858 0.89723 0.0
H584 H 0.80582 0.31574 0.91522 0.0
H585 H 0.78516 0.25943 0.88455 0.0
S586 S 0.92395 0.16817 0.93806 0.0
N587 N 0.91251 0.21982 0.94806 0.0
N588 N 0.88876 0.15895 0.91502 0.0
C589 C 0.86541 0.19867 0.91482 0.0
C590 C 0.87832 0.23177 0.93266 0.0
C591 C 0.48415 0.07886 0.67008 0.0
C592 C 0.48224 0.12202 0.68119 0.0
C593 C 0.51692 0.06863 0.65225 0.0
C594 C 0.54823 0.10153 0.64475 0.0
H595 H 0.45888 0.05347 0.67441 0.0
H596 H 0.51586 0.03593 0.6432 0.0
S597 S 0.55974 0.21845 0.66896 0.0
N598 N 0.51676 0.19675 0.68437 0.0
N599 N 0.57742 0.17775 0.65048 0.0
C600 C 0.54821 0.14392 0.6565 0.0
C601 C 0.51549 0.1541 0.67491 0.0
C602 C 0.69333 0.76063 0.4014 0.0
C603 C 0.66135 0.79367 0.39493 0.0
C604 C 0.6829 0.72762 0.419 0.0
C605 C 0.6404 0.72702 0.43084 0.0
H606 H 0.72531 0.7585 0.39171 0.0
H607 H 0.70751 0.70116 0.42253 0.0
S608 S 0.54649 0.80897 0.42117 0.0
N609 N 0.58678 0.82568 0.40226 0.0
N610 N 0.56735 0.76455 0.43569 0.0
C611 C 0.60935 0.76186 0.42552 0.0
C612 C 0.61976 0.79491 0.40739 0.0
C613 C 0.02401 0.9347 0.17344 0.0
C614 C 0.02394 0.89267 0.18569 0.0
C615 C 0.99185 0.94457 0.15523 0.0
C616 C 0.95889 0.91256 0.14859 0.0
H617 H 0.05056 0.95922 0.17707 0.0
H618 H 0.99463 0.97609 0.14522 0.0
S619 S 0.9424 0.7986 0.1754 0.0
N620 N 0.98614 0.81988 0.19049 0.0
N621 N 0.92643 0.83834 0.156 0.0
C622 C 0.95691 0.8715 0.16142 0.0
C623 C 0.98917 0.8616 0.18014 0.0
C624 C 0.69498 0.73843 0.905 0.0
C625 C 0.662 0.70745 0.89705 0.0
C626 C 0.685 0.77004 0.92351 0.0
C627 C 0.64208 0.77099 0.93487 0.0
H628 H 0.72745 0.74024 0.89579 0.0
H629 H 0.71028 0.79532 0.92814 0.0
S630 S 0.54533 0.69441 0.92127 0.0
N631 N 0.58584 0.67784 0.9024 0.0
N632 N 0.56733 0.73631 0.93751 0.0
C633 C 0.60994 0.73808 0.92805 0.0
C634 C 0.61984 0.70658 0.90898 0.0
C635 C 0.509 0.45096 0.15019 0.0
C636 C 0.54839 0.42473 0.14791 0.0
C637 C 0.47624 0.44056 0.16791 0.0
C638 C 0.48154 0.40316 0.18371 0.0
H639 H 0.5021 0.47778 0.13721 0.0
H640 H 0.44529 0.46033 0.1682 0.0
S641 S 0.58064 0.32545 0.1854 0.0
N642 N 0.5925 0.36158 0.16329 0.0
N643 N 0.5312 0.34167 0.19663 0.0
C644 C 0.52239 0.37848 0.1825 0.0
C645 C 0.55567 0.38924 0.16447 0.0
C646 C 0.82588 0.23464 0.42218 0.0
C647 C 0.86836 0.23447 0.43412 0.0
C648 C 0.8157 0.26666 0.40399 0.0
C649 C 0.84795 0.29904 0.39698 0.0
H650 H 0.80117 0.20847 0.42609 0.0
H651 H 0.78371 0.26417 0.39429 0.0
S652 S 0.96301 0.31483 0.42306 0.0
N653 N 0.94174 0.27157 0.43837 0.0
N654 N 0.92284 0.3308 0.40383 0.0
C655 C 0.88954 0.30072 0.40949 0.0
C656 C 0.89967 0.26873 0.42824 0.0
C657 C 0.02138 0.56737 0.6725 0.0
C658 C 0.02249 0.60993 0.68433 0.0
C659 C 0.98848 0.55731 0.65465 0.0
C660 C 0.95607 0.58974 0.64791 0.0
H661 H 0.04761 0.54255 0.67611 0.0
H662 H 0.9904 0.52534 0.64491 0.0
S663 S 0.94198 0.70477 0.67417 0.0
N664 N 0.98592 0.6834 0.68898 0.0
N665 N 0.9249 0.66466 0.65515 0.0
C666 C 0.95512 0.63128 0.66048 0.0
C667 C 0.98806 0.64132 0.67886 0.0
C668 C 0.62213 0.27142 0.60884 0.0
C669 C 0.65213 0.2352 0.60453 0.0
C670 C 0.6308 0.30314 0.62741 0.0
C671 C 0.67024 0.30037 0.6418 0.0
H672 H 0.59006 0.27327 0.59919 0.0
H673 H 0.60533 0.32858 0.63143 0.0
S674 S 0.76211 0.21572 0.63598 0.0
N675 N 0.72479 0.20092 0.61482 0.0
N676 N 0.74119 0.26138 0.64941 0.0
C677 C 0.70208 0.26658 0.63654 0.0
C678 C 0.69302 0.2338 0.6179 0.0
C679 C 0.98972 0.37207 0.86222 0.0
C680 C 0.02693 0.40123 0.85876 0.0
C681 C 0.95756 0.38072 0.88052 0.0
C682 C 0.96086 0.41933 0.89552 0.0
H683 H 0.98727 0.34057 0.85208 0.0
H684 H 0.93138 0.35572 0.8839 0.0
S685 S 0.04773 0.50945 0.89177 0.0
N686 N 0.0624 0.47272 0.87031 0.0
N687 N 1.00121 0.48897 0.90445 0.0
C688 C 0.99556 0.45056 0.89103 0.0
C689 C 0.02876 0.44155 0.87264 0.0
C690 C 0.82579 0.76817 0.11627 0.0
C691 C 0.86937 0.77096 0.10576 0.0
C692 C 0.81552 0.7353 0.13399 0.0
C693 C 0.84881 0.70478 0.14199 0.0
H694 H 0.8001 0.79299 0.11165 0.0
H695 H 0.78247 0.7358 0.14263 0.0
S696 S 0.9672 0.69616 0.11969 0.0
N697 N 0.94511 0.73836 0.10383 0.0
N698 N 0.92605 0.67755 0.13751 0.0
C699 C 0.8917 0.70572 0.13085 0.0
C700 C 0.90194 0.73852 0.11255 0.0
C701 C 0.5085 0.55418 0.39018 0.0
C702 C 0.54909 0.57875 0.39151 0.0
C703 C 0.47563 0.56452 0.37249 0.0
C704 C 0.48189 0.60035 0.35576 0.0
H705 H 0.50089 0.52877 0.40386 0.0
H706 H 0.44387 0.54606 0.37296 0.0
S707 S 0.58435 0.67313 0.35128 0.0
N708 N 0.5954 0.63846 0.37421 0.0
N709 N 0.53379 0.65833 0.3409 0.0
C710 C 0.52383 0.62326 0.35604 0.0
C711 C 0.55731 0.61249 0.37404 0.0
C712 C 0.39451 0.26514 0.11237 0.0
C713 C 0.36158 0.23279 0.10589 0.0
C714 C 0.3858 0.29739 0.13064 0.0
C715 C 0.34355 0.29916 0.1425 0.0
H716 H 0.4284 0.26327 0.10477 0.0
H717 H 0.41308 0.31966 0.1364 0.0
S718 S 0.24436 0.22571 0.13025 0.0
N719 N 0.28393 0.20683 0.1114 0.0
N720 N 0.26736 0.26865 0.14526 0.0
C721 C 0.30924 0.26944 0.13493 0.0
C722 C 0.31833 0.23592 0.11669 0.0
C723 C 0.45574 0.62661 0.87786 0.0
C724 C 0.45977 0.58906 0.89346 0.0
C725 C 0.48809 0.635 0.85962 0.0
C726 C 0.52612 0.60663 0.85677 0.0
H727 H 0.42881 0.65106 0.88071 0.0
H728 H 0.485 0.66578 0.84898 0.0
S729 S 0.54953 0.50158 0.89188 0.0
N730 N 0.50216 0.52151 0.90391 0.0
N731 N 0.56347 0.53713 0.86982 0.0
C732 C 0.52887 0.56742 0.8714 0.0
C733 C 0.49561 0.55874 0.88977 0.0
C734 C 0.19466 0.73235 0.63365 0.0
C735 C 0.16213 0.70017 0.64051 0.0
C736 C 0.18443 0.76533 0.61602 0.0
C737 C 0.14151 0.76687 0.60458 0.0
H738 H 0.22687 0.73406 0.64319 0.0
H739 H 0.20941 0.79135 0.61231 0.0
S740 S 0.04619 0.68714 0.61513 0.0
N741 N 0.08668 0.66965 0.63378 0.0
N742 N 0.06759 0.73091 0.60029 0.0
C743 C 0.10998 0.73264 0.61009 0.0
C744 C 0.12024 0.69953 0.62825 0.0
C745 C 0.01824 0.44866 0.38484 0.0
C746 C 0.05091 0.4167 0.39189 0.0
C747 C 0.98581 0.43798 0.36685 0.0
C748 C 0.98557 0.39532 0.35514 0.0
H749 H 0.0158 0.48076 0.39442 0.0
H750 H 0.95937 0.46243 0.36295 0.0
S751 S 0.06665 0.30135 0.36632 0.0
N752 N 0.08292 0.34194 0.38526 0.0
N753 N 0.0229 0.32211 0.3511 0.0
C754 C 0.02014 0.36433 0.36101 0.0
C755 C 0.05253 0.37495 0.37955 0.0
C756 C 0.31639 0.73593 0.40581 0.0
C757 C 0.34929 0.705 0.39779 0.0
C758 C 0.32706 0.76865 0.42362 0.0
C759 C 0.3707 0.77091 0.43421 0.0
H760 H 0.28339 0.73692 0.39707 0.0
H761 H 0.30172 0.79386 0.42821 0.0
S762 S 0.46711 0.69388 0.42082 0.0
N763 N 0.42585 0.6761 0.4027 0.0
N764 N 0.4457 0.73668 0.43658 0.0
C765 C 0.4027 0.73777 0.42757 0.0
C766 C 0.39205 0.70509 0.40917 0.0
C767 C 0.05512 0.62455 0.16473 0.0
C768 C 0.05202 0.58646 0.14933 0.0
C769 C 0.02185 0.63339 0.18248 0.0
C770 C 0.98388 0.60485 0.18499 0.0
H771 H 0.08196 0.64913 0.16203 0.0
H772 H 0.02414 0.66459 0.1929 0.0
S773 S 0.96281 0.49839 0.15031 0.0
N774 N 0.01056 0.5183 0.13877 0.0
N775 N 0.94771 0.53453 0.17197 0.0
C776 C 0.98216 0.56504 0.17065 0.0
C777 C 0.01626 0.55601 0.15277 0.0
C778 C 0.12988 0.30377 0.91312 0.0
C779 C 0.16882 0.30035 0.89842 0.0
C780 C 0.12021 0.27108 0.93096 0.0
C781 C 0.14867 0.23328 0.93422 0.0
H782 H 0.1054 0.33048 0.90982 0.0
H783 H 0.08852 0.27371 0.94088 0.0
S784 S 0.25729 0.21175 0.90181 0.0
N785 N 0.2379 0.25905 0.88954 0.0
N786 N 0.21985 0.19702 0.92282 0.0
C787 C 0.18929 0.23126 0.92065 0.0
C788 C 0.1993 0.26492 0.90273 0.0
C789 C 0.49458 0.44955 0.65148 0.0
C790 C 0.45912 0.41927 0.6464 0.0
C791 C 0.52793 0.43877 0.66892 0.0
C792 C 0.52656 0.39759 0.68196 0.0
H793 H 0.49821 0.48024 0.64083 0.0
H794 H 0.55614 0.46189 0.67137 0.0
S795 S 0.43799 0.30863 0.67618 0.0
N796 N 0.42273 0.34796 0.65636 0.0
N797 N 0.48461 0.32786 0.68944 0.0
C798 C 0.48939 0.36848 0.67804 0.0
C799 C 0.45593 0.37924 0.6601 0.0
C800 C 0.24335 0.28585 0.25423 0.0
C801 C 0.28988 0.27473 0.25402 0.0
C802 C 0.21273 0.26361 0.26973 0.0
C803 C 0.22727 0.22929 0.28573 0.0
H804 H 0.23032 0.31235 0.24248 0.0
H805 H 0.17739 0.2736 0.26917 0.0
S806 S 0.34537 0.18612 0.29177 0.0
N807 N 0.34878 0.22622 0.27087 0.0
N808 N 0.29155 0.18444 0.29995 0.0
C809 C 0.2737 0.21751 0.28557 0.0
C810 C 0.30487 0.24016 0.26975 0.0
C811 C 1.00036 0.95927 0.51793 0.0
C812 C 0.0316 0.97247 0.5361 0.0
C813 C 0.97843 0.99134 0.50317 0.0
C814 C 0.9867 0.03812 0.50588 0.0
H815 H 0.99276 0.92379 0.51493 0.0
H816 H 0.95463 0.97914 0.48953 0.0
S817 S 0.06525 0.09087 0.55093 0.0
N818 N 0.06953 0.03597 0.55607 0.0
N819 N 0.02837 0.09604 0.52836 0.0
C820 C 0.01786 0.0519 0.524 0.0
C821 C 0.04021 0.01919 0.53908 0.0
C822 C 0.21371 0.76053 0.76751 0.0
C823 C 0.22722 0.72658 0.75092 0.0
C824 C 0.24531 0.78292 0.78246 0.0
C825 C 0.29194 0.77244 0.78154 0.0
H826 H 0.17831 0.76989 0.76911 0.0
H827 H 0.23286 0.80884 0.79482 0.0
S828 S 0.34535 0.68595 0.74135 0.0
N829 N 0.29085 0.68342 0.73454 0.0
N830 N 0.35004 0.72552 0.76261 0.0
C831 C 0.30605 0.73858 0.76503 0.0
C832 C 0.27381 0.71572 0.74975 0.0
C833 C 0.51179 0.04381 0.02184 0.0
C834 C 0.4787 0.02997 0.0388 0.0
C835 C 0.53396 0.01242 1.00669 0.0
C836 C 0.52408 0.96576 1.00779 0.0
H837 H 0.52063 0.07927 1.02011 0.0
H838 H 0.55924 0.02505 0.99405 0.0
S839 S 0.44002 0.91157 0.04902 0.0
N840 N 0.4371 0.96601 0.05576 0.0
N841 N 0.47869 0.90727 0.02733 0.0
C842 C 0.49106 0.95135 0.02468 0.0
C843 C 0.46848 0.98334 0.04015 0.0
C844 C 0.242 0.7216 0.2879 0.0
C845 C 0.28894 0.73034 0.28632 0.0
C846 C 0.21062 0.74417 0.27295 0.0
C847 C 0.22471 0.77656 0.25571 0.0
H848 H 0.22916 0.6968 0.30073 0.0
H849 H 0.17498 0.73613 0.27501 0.0
S850 S 0.34381 0.81256 0.24437 0.0
N851 N 0.34789 0.77414 0.26615 0.0
N852 N 0.2892 0.81654 0.23809 0.0
C853 C 0.27159 0.78581 0.25396 0.0
C854 C 0.30357 0.76279 0.26922 0.0
C855 C 0.51418 0.96292 0.52012 0.0
C856 C 0.48277 0.97638 0.50214 0.0
C857 C 0.53609 0.99476 0.53512 0.0
C858 C 0.5277 0.04157 0.53282 0.0
H859 H 0.52184 0.9274 0.52282 0.0
H860 H 0.56001 0.98233 0.54859 0.0
S861 S 0.44867 0.09494 0.48842 0.0
N862 N 0.44451 0.04013 0.4828 0.0
N863 N 0.48571 0.0998 0.51095 0.0
C864 C 0.4964 0.05562 0.51488 0.0
C865 C 0.47401 0.02312 0.49958 0.0
C866 C 0.2655 0.28494 0.78773 0.0
C867 C 0.21885 0.27448 0.78724 0.0
C868 C 0.29654 0.26239 0.77255 0.0
C869 C 0.28236 0.22833 0.75618 0.0
H870 H 0.27836 0.31117 0.79979 0.0
H871 H 0.33195 0.272 0.77365 0.0
S872 S 0.16408 0.18684 0.74822 0.0
N873 N 0.16015 0.22684 0.76928 0.0
N874 N 0.21828 0.18444 0.74081 0.0
C875 C 0.23583 0.21713 0.75564 0.0
C876 C 0.20418 0.24014 0.77113 0.0
C877 C 0.03567 0.99351 1.00528 0.0
C878 C 0.02493 0.04002 1.00623 0.0
C879 C 0.01397 0.96201 0.02045 0.0
C880 C 0.98047 0.97551 0.03729 0.0
H881 H 0.06136 0.9811 0.99278 0.0
H882 H 0.02358 0.92671 1.01886 0.0
S883 S 0.93916 0.09329 0.0469 0.0
N884 N 0.97806 0.09796 0.02536 0.0
N885 N 0.93727 0.03895 0.05383 0.0
C886 C 0.96924 0.02195 0.03842 0.0
C887 C 0.99139 0.05409 0.02293 0.0
C888 C 0.79476 0.74835 0.77074 0.0
C889 C 0.77968 0.77968 0.75315 0.0
C890 C 0.76408 0.72567 0.78607 0.0
C891 C 0.71694 0.73332 0.78452 0.0
H892 H 0.83061 0.74127 0.77281 0.0
H893 H 0.77764 0.70176 0.79919 0.0
S894 S 0.65955 0.81201 0.7415 0.0
N895 N 0.71398 0.81708 0.73508 0.0
N896 N 0.65671 0.77463 0.76384 0.0
C897 C 0.70134 0.76459 0.76702 0.0
C898 C 0.73255 0.78763 0.75137 0.0
C899 C 0.70931 0.2616 0.27252 0.0
C900 C 0.72245 0.22868 0.25525 0.0
C901 C 0.74137 0.28362 0.28736 0.0
C902 C 0.78804 0.27371 0.28563 0.0
H903 H 0.6739 0.27052 0.27468 0.0
H904 H 0.72928 0.30887 0.30021 0.0
S905 S 0.84048 0.18963 0.24359 0.0
N906 N 0.78572 0.18689 0.23747 0.0
N907 N 0.84571 0.22822 0.26532 0.0
C908 C 0.80172 0.24069 0.26851 0.0
C909 C 0.76905 0.21827 0.25336 0.0
C910 C 0.7969 0.26391 0.7703 0.0
C911 C 0.78208 0.22842 0.78546 0.0
C912 C 0.76666 0.28683 0.75476 0.0
C913 C 0.7203 0.27518 0.75368 0.0
H914 H 0.83214 0.27431 0.77047 0.0
H915 H 0.7798 0.31422 0.74368 0.0
S916 S 0.6644 0.18313 0.78872 0.0
N917 N 0.71782 0.18171 0.79772 0.0
N918 N 0.6614 0.22463 0.76863 0.0
C919 C 0.70512 0.23934 0.7685 0.0
C920 C 0.73584 0.21605 0.78433 0.0
C921 C 0.76515 0.7831 0.28429 0.0
C922 C 0.71849 0.77262 0.2834 0.0
C923 C 0.79667 0.76071 0.26931 0.0
C924 C 0.783 0.7268 0.25272 0.0
H925 H 0.77766 0.80911 0.2966 0.0
H926 H 0.83208 0.77013 0.27082 0.0
S927 S 0.66483 0.68564 0.24355 0.0
N928 N 0.66032 0.72536 0.26471 0.0
N929 N 0.71924 0.68329 0.2366 0.0
C930 C 0.7364 0.71579 0.25168 0.0
C931 C 0.70429 0.73862 0.26698 0.0
C932 C 0.49469 0.4635 1.0196 0.0
C933 C 0.52849 0.47731 0.03624 0.0
C934 C 0.47283 0.49474 1.00431 0.0
C935 C 0.48377 0.54121 1.00494 0.0
H936 H 0.48491 0.4282 1.01831 0.0
H937 H 0.44687 0.48217 0.99198 0.0
S938 S 0.57038 0.59515 0.04498 0.0
N939 N 0.5722 0.54096 0.05224 0.0
N940 N 0.53115 0.59944 0.02354 0.0
C941 C 0.51767 0.55555 0.02141 0.0
C942 C 0.53994 0.52372 0.03703 0.0
C943 C 0.0328 0.51939 0.50284 0.0
C944 C 0.02487 0.4723 0.50395 0.0
C945 C 0.00997 0.54983 0.51832 0.0
C946 C 0.97821 0.53453 0.53563 0.0
H947 H 0.05712 0.53307 0.48998 0.0
H948 H 0.01729 0.58565 0.51663 0.0
S949 S 0.94465 0.41447 0.54591 0.0
N950 N 0.9826 0.41194 0.52379 0.0
N951 N 0.93985 0.46869 0.55282 0.0
C952 C 0.96988 0.48745 0.53691 0.0
C953 C 0.99308 0.45651 0.52111 0.0
C954 C 0.99862 0.54229 0.02157 0.0
C955 C 0.03098 0.52833 0.03893 0.0
C956 C 0.97627 0.51095 1.00648 0.0
C957 C 0.9851 0.4641 1.00801 0.0
H958 H 0.99049 0.57784 1.01945 0.0
H959 H 0.95166 0.52385 0.9935 0.0
S960 S 0.06671 0.40945 0.05053 0.0
N961 N 0.07071 0.46403 0.05684 0.0
N962 N 0.02859 0.40526 0.02848 0.0
C963 C 0.01735 0.44951 0.02532 0.0
C964 C 0.04022 0.48153 0.04075 0.0
C965 C 0.49426 0.54393 0.51961 0.0
C966 C 0.52652 0.52843 0.50261 0.0
C967 C 0.4715 0.51388 0.53511 0.0
C968 C 0.47982 0.46686 0.53433 0.0
H969 H 0.48647 0.57969 0.52109 0.0
H970 H 0.44687 0.52791 0.54772 0.0
S971 S 0.56142 0.40851 0.49325 0.0
N972 N 0.56595 0.46258 0.48601 0.0
N973 N 0.52297 0.4062 0.51514 0.0
C974 C 0.51205 0.45074 0.51745 0.0
C975 C 0.53538 0.48145 0.50161 0.0
C976 C 0.13681 0.01792 0.28322 0.0
C977 C 0.17816 0.03602 0.2915 0.0
C978 C 0.13564 0.98522 0.26467 0.0
C979 C 0.17565 0.97054 0.25316 0.0
H980 H 0.10508 0.02905 0.29124 0.0
H981 H 0.10303 0.97169 0.25907 0.0
S982 S 0.29256 0.00819 0.26785 0.0
N983 N 0.26012 0.03709 0.28699 0.0
N984 N 0.25785 0.9764 0.25134 0.0
C985 C 0.21727 0.98869 0.26106 0.0
C986 C 0.21855 0.02122 0.28049 0.0
C987 C 0.21192 0.91971 0.51443 0.0
C988 C 0.22374 0.92099 0.53943 0.0
C989 C 0.24516 0.9212 0.49612 0.0
C990 C 0.2914 0.9228 0.50221 0.0
H991 H 0.17665 0.91721 0.50896 0.0
H992 H 0.23467 0.91931 0.47713 0.0
S993 S 0.34018 0.92903 0.56478 0.0
N994 N 0.28481 0.92641 0.56922 0.0
N995 N 0.34745 0.92778 0.53481 0.0
C996 C 0.30368 0.92512 0.52708 0.0
C997 C 0.26979 0.92464 0.54571 0.0
C998 C 0.37843 0.01863 0.75821 0.0
C999 C 0.33737 0.03564 0.74897 0.0
C1000 C 0.3788 0.98518 0.7763 0.0
C1001 C 0.33815 0.9688 0.78636 0.0
H1002 H 0.41052 0.03104 0.75125 0.0
H1003 H 0.41119 0.97242 0.78268 0.0
S1004 S 0.22171 0.00337 0.76884 0.0
N1005 N 0.25507 0.03397 0.75108 0.0
N1006 N 0.25576 0.97206 0.7859 0.0
C1007 C 0.29683 0.98599 0.77754 0.0
C1008 C 0.29644 0.01917 0.75858 0.0
C1009 C 0.29711 0.07837 1.01538 0.0
C1010 C 0.28513 0.0772 0.04033 0.0
C1011 C 0.26389 0.0781 0.99699 0.0
C1012 C 0.21763 0.07792 1.003 0.0
H1013 H 0.33246 0.08013 1.01004 0.0
H1014 H 0.27443 0.08011 0.97803 0.0
S1015 S 0.16847 0.07241 0.0654 0.0
N1016 N 0.22388 0.07323 0.06997 0.0
N1017 N 0.16134 0.07418 0.03542 0.0
C1018 C 0.20521 0.07549 0.02781 0.0
C1019 C 0.23902 0.07469 0.0465 0.0
C1020 C 0.82124 0.99141 0.79368 0.0
C1021 C 0.8192 0.03778 0.78826 0.0
C1022 C 0.82221 0.95906 0.77485 0.0
C1023 C 0.81999 0.972 0.75006 0.0
H1024 H 0.82428 0.98021 0.81248 0.0
H1025 H 0.82547 0.92364 0.77973 0.0
S1026 S 0.80986 0.08922 0.72659 0.0
N1027 N 0.81232 0.09517 0.75664 0.0
N1028 N 0.81265 0.03415 0.72126 0.0
C1029 C 0.81543 0.01814 0.74451 0.0
C1030 C 0.8155 0.05112 0.76364 0.0
C1031 C 0.71269 0.07902 0.51376 0.0
C1032 C 0.72347 0.07831 0.53887 0.0
C1033 C 0.74677 0.07872 0.49591 0.0
C1034 C 0.79272 0.07904 0.50264 0.0
H1035 H 0.6776 0.08059 0.50787 0.0
H1036 H 0.7371 0.08034 0.47679 0.0
S1037 S 0.83881 0.07474 0.56582 0.0
N1038 N 0.78319 0.07519 0.56951 0.0
N1039 N 0.84745 0.07615 0.53596 0.0
C1040 C 0.80397 0.07701 0.52765 0.0
C1041 C 0.76925 0.07618 0.5458 0.0
C1042 C 0.67795 0.99111 0.24559 0.0
C1043 C 0.67885 0.03706 0.25221 0.0
C1044 C 0.6785 0.95725 0.26353 0.0
C1045 C 0.68123 0.96824 0.2886 0.0
H1046 H 0.67462 0.98131 0.22654 0.0
H1047 H 0.67589 0.92219 0.25775 0.0
S1048 S 0.6889 0.08365 0.31514 0.0
N1049 N 0.68534 0.09198 0.28531 0.0
N1050 N 0.68777 0.02815 0.31898 0.0
C1051 C 0.68472 0.01399 0.29535 0.0
C1052 C 0.6831 0.04849 0.27713 0.0
C1053 C 0.70894 0.9211 0.02814 0.0
C1054 C 0.71982 0.92449 1.00311 0.0
C1055 C 0.74282 0.92207 0.04617 0.0
C1056 C 0.78876 0.9252 0.0397 0.0
H1057 H 0.67396 0.91722 0.03384 0.0
H1058 H 0.73313 0.91846 0.06519 0.0
S1059 S 0.83507 0.93721 0.97695 0.0
N1060 N 0.77962 0.93361 0.97294 0.0
N1061 N 0.84348 0.93392 1.00679 0.0
C1062 C 0.80006 0.92969 1.01482 0.0
C1063 C 0.76552 0.92979 0.99651 0.0
C1064 C 0.67936 0.45944 0.77549 0.0
C1065 C 0.68193 0.47118 0.75055 0.0
C1066 C 0.6803 0.49273 0.79385 0.0
C1067 C 0.68259 0.53882 0.78778 0.0
H1068 H 0.67596 0.42428 0.78084 0.0
H1069 H 0.67705 0.48247 0.8128 0.0
S1070 S 0.69233 0.58725 0.72545 0.0
N1071 N 0.68954 0.53194 0.7209 0.0
N1072 N 0.68969 0.59465 0.75539 0.0
C1073 C 0.68643 0.55096 0.76301 0.0
C1074 C 0.68658 0.51706 0.74437 0.0
C1075 C 0.77272 0.45941 1.0134 0.0
C1076 C 0.78795 0.41853 1.00301 0.0
C1077 C 0.7402 0.45936 0.0322 0.0
C1078 C 0.72126 0.41851 0.04058 0.0
H1079 H 0.78674 0.49142 1.00738 0.0
H1080 H 0.72915 0.49141 0.03984 0.0
S1081 S 0.74934 0.30275 1.01888 0.0
N1082 N 0.78194 0.33643 1.00242 0.0
N1083 N 0.71978 0.33643 0.03702 0.0
C1084 C 0.73587 0.3776 0.03006 0.0
C1085 C 0.76955 0.37759 1.01144 0.0
C1086 C 0.83054 0.45603 0.26305 0.0
C1087 C 0.82724 0.46809 0.28797 0.0
C1088 C 0.82906 0.48896 0.2446 0.0
C1089 C 0.82536 0.53507 0.25054 0.0
H1090 H 0.8351 0.42091 0.25777 0.0
H1091 H 0.83312 0.47847 0.2257 0.0
S1092 S 0.8126 0.58422 0.31272 0.0
N1093 N 0.81703 0.52912 0.31741 0.0
N1094 N 0.81568 0.59117 0.28278 0.0
C1095 C 0.82047 0.54747 0.27528 0.0
C1096 C 0.82097 0.51391 0.29401 0.0
C1097 C 0.73032 0.61888 0.51393 0.0
C1098 C 0.71917 0.5791 0.50105 0.0
C1099 C 0.76218 0.61832 0.5329 0.0
C1100 C 0.78294 0.57774 0.54022 0.0
H1101 H 0.71481 0.65091 0.50905 0.0
H1102 H 0.77072 0.64995 0.54193 0.0
S1103 S 0.76481 0.46415 0.51294 0.0
N1104 N 0.7312 0.49789 0.49701 0.0
N1105 N 0.79035 0.49675 0.53339 0.0
C1106 C 0.77163 0.53753 0.52788 0.0
C1107 C 0.73995 0.53825 0.50806 0.0
C1108 C 0.32297 0.54735 0.26436 0.0
C1109 C 0.3215 0.53516 0.28927 0.0
C1110 C 0.32235 0.51437 0.24586 0.0
C1111 C 0.32147 0.46815 0.25173 0.0
H1112 H 0.32572 0.58264 0.25915 0.0
H1113 H 0.32505 0.52502 0.22695 0.0
S1114 S 0.31393 0.4186 0.31392 0.0
N1115 N 0.31569 0.47388 0.3187 0.0
N1116 N 0.31604 0.41169 0.28392 0.0
C1117 C 0.31818 0.45555 0.27648 0.0
C1118 C 0.31773 0.48915 0.29528 0.0
C1119 C 0.2444 0.58227 0.99734 0.0
C1120 C 0.29077 0.58249 1.00319 0.0
C1121 C 0.21147 0.58234 1.01585 0.0
C1122 C 0.22383 0.58134 0.04076 0.0
H1123 H 0.23351 0.58384 0.97841 0.0
H1124 H 0.17602 0.58355 1.0106 0.0
S1125 S 0.34095 0.57796 0.06545 0.0
N1126 N 0.3476 0.57964 0.03545 0.0
N1127 N 0.28561 0.57826 0.0702 0.0
C1128 C 0.27009 0.5795 0.04678 0.0
C1129 C 0.30361 0.58053 0.02798 0.0
C1130 C 0.17814 0.45662 0.76437 0.0
C1131 C 0.18128 0.46946 0.78917 0.0
C1132 C 0.17845 0.48906 0.74568 0.0
C1133 C 0.18065 0.53543 0.75126 0.0
H1134 H 0.17474 0.42122 0.75938 0.0
H1135 H 0.17484 0.4779 0.72686 0.0
S1136 S 0.19201 0.58659 0.81308 0.0
N1137 N 0.18944 0.5315 0.81817 0.0
N1138 N 0.18857 0.59268 0.78309 0.0
C1139 C 0.18516 0.54867 0.7759 0.0
C1140 C 0.18592 0.5156 0.79488 0.0
C1141 C 0.26508 0.44117 0.49578 0.0
C1142 C 0.21873 0.44252 0.50148 0.0
C1143 C 0.2978 0.44056 0.51443 0.0
C1144 C 0.28522 0.44256 0.53928 0.0
H1145 H 0.276 0.43803 0.47693 0.0
H1146 H 0.33321 0.43738 0.50938 0.0
S1147 S 0.16824 0.45113 0.56348 0.0
N1148 N 0.16175 0.44869 0.53346 0.0
N1149 N 0.22351 0.44915 0.56847 0.0
C1150 C 0.23912 0.44675 0.54511 0.0
C1151 C 0.20576 0.44624 0.52618 0.0
loop_
_geom_bond_atom_site_label_1
_geom_bond_atom_site_label_2
_geom_bond_distance
_geom_bond_site_symmetry_2
_ccdc_geom_bond_type
C0 O2 1.247 . S
C0 O4 1.258 . S
C1 O8 1.247 . S
C1 O9 1.258 . S
O2 C0 1.247 . S
O2 Zn3 2.028 . S
Zn3 O2 2.028 . S
Zn3 O7 2.035 . S
Zn3 O9 2.035 . S
Zn3 O10 2.028 . S
O4 C0 1.258 . S
O4 Zn5 2.035 . S
Zn5 O4 2.035 . S
Zn5 O6 2.028 . S
Zn5 O8 2.028 . S
Zn5 O11 2.035 . S
O6 Zn5 2.028 . S
O6 C12 1.247 . S
O7 Zn3 2.035 . S
O7 C12 1.258 . S
O8 C1 1.247 . S
O8 Zn5 2.028 . S
O9 C1 1.258 . S
O9 Zn3 2.035 . S
O10 Zn3 2.028 . S
O10 C13 1.247 . S
O11 Zn5 2.035 . S
O11 C13 1.258 . S
C12 O6 1.247 . S
C12 O7 1.258 . S
C13 O10 1.247 . S
C13 O11 1.258 . S
C14 O16 1.247 1_565 S
C14 O18 1.258 . S
C15 O22 1.247 . S
C15 O23 1.258 . S
O16 C14 1.247 1_545 S
O16 Zn17 2.028 1_545 S
Zn17 O16 2.028 1_565 S
Zn17 O21 2.035 . S
Zn17 O23 2.035 . S
Zn17 O24 2.028 . S
O18 C14 1.258 . S
O18 Zn19 2.035 . S
Zn19 O18 2.035 . S
Zn19 O20 2.028 . S
Zn19 O22 2.028 . S
Zn19 O25 2.035 . S
O20 Zn19 2.028 . S
O20 C26 1.247 . S
O21 Zn17 2.035 . S
O21 C26 1.258 . S
O22 C15 1.247 . S
O22 Zn19 2.028 . S
O23 C15 1.258 . S
O23 Zn17 2.035 . S
O24 Zn17 2.028 . S
O24 C27 1.247 . S
O25 Zn19 2.035 . S
O25 C27 1.258 . S
C26 O20 1.247 . S
C26 O21 1.258 . S
C27 O24 1.247 . S
C27 O25 1.258 . S
C28 O30 1.247 . S
C28 O32 1.258 . S
C29 O36 1.247 . S
C29 O37 1.258 . S
O30 C28 1.247 . S
O30 Zn31 2.028 . S
Zn31 O30 2.028 . S
Zn31 O35 2.035 . S
Zn31 O37 2.035 . S
Zn31 O38 2.028 . S
O32 C28 1.258 . S
O32 Zn33 2.035 . S
Zn33 O32 2.035 . S
Zn33 O34 2.028 . S
Zn33 O36 2.028 . S
Zn33 O39 2.035 . S
O34 Zn33 2.028 . S
O34 C40 1.247 . S
O35 Zn31 2.035 . S
O35 C40 1.258 . S
O36 C29 1.247 . S
O36 Zn33 2.028 . S
O37 C29 1.258 . S
O37 Zn31 2.035 . S
O38 Zn31 2.028 . S
O38 C41 1.247 . S
O39 Zn33 2.035 . S
O39 C41 1.258 . S
C40 O34 1.247 . S
C40 O35 1.258 . S
C41 O38 1.247 . S
C41 O39 1.258 . S
C42 O44 1.247 . S
C42 O46 1.258 . S
C43 O50 1.247 . S
C43 O51 1.258 . S
O44 C42 1.247 . S
O44 Zn45 2.028 . S
Zn45 O44 2.028 . S
Zn45 O49 2.035 . S
Zn45 O51 2.035 . S
Zn45 O52 2.028 . S
O46 C42 1.258 . S
O46 Zn47 2.035 . S
Zn47 O46 2.035 . S
Zn47 O48 2.028 1_545 S
Zn47 O50 2.028 . S
Zn47 O53 2.035 . S
O48 Zn47 2.028 1_565 S
O48 C54 1.247 1_565 S
O49 Zn45 2.035 . S
O49 C54 1.258 . S
O50 C43 1.247 . S
O50 Zn47 2.028 . S
O51 C43 1.258 . S
O51 Zn45 2.035 . S
O52 Zn45 2.028 . S
O52 C55 1.247 . S
O53 Zn47 2.035 . S
O53 C55 1.258 . S
C54 O48 1.247 1_545 S
C54 O49 1.258 . S
C55 O52 1.247 . S
C55 O53 1.258 . S
C56 O58 1.247 . S
C56 O60 1.258 . S
C57 O64 1.247 . S
C57 O65 1.258 . S
O58 C56 1.247 . S
O58 Zn59 2.028 . S
Zn59 O58 2.028 . S
Zn59 O63 2.035 . S
Zn59 O65 2.035 . S
Zn59 O66 2.028 . S
O60 C56 1.258 . S
O60 Zn61 2.035 . S
Zn61 O60 2.035 . S
Zn61 O62 2.028 . S
Zn61 O64 2.028 . S
Zn61 O67 2.035 . S
O62 Zn61 2.028 . S
O62 C68 1.247 . S
O63 Zn59 2.035 . S
O63 C68 1.258 . S
O64 C57 1.247 . S
O64 Zn61 2.028 . S
O65 C57 1.258 . S
O65 Zn59 2.035 . S
O66 Zn59 2.028 . S
O66 C69 1.247 . S
O67 Zn61 2.035 . S
O67 C69 1.258 . S
C68 O62 1.247 . S
C68 O63 1.258 . S
C69 O66 1.247 . S
C69 O67 1.258 . S
C70 O72 1.247 . S
C70 O74 1.258 . S
C71 O78 1.247 . S
C71 O79 1.258 . S
O72 C70 1.247 . S
O72 Zn73 2.028 . S
Zn73 O72 2.028 . S
Zn73 O77 2.035 . S
Zn73 O79 2.035 . S
Zn73 O80 2.028 . S
O74 C70 1.258 . S
O74 Zn75 2.035 . S
Zn75 O74 2.035 . S
Zn75 O76 2.028 . S
Zn75 O78 2.028 . S
Zn75 O81 2.035 1_565 S
O76 Zn75 2.028 . S
O76 C82 1.247 . S
O77 Zn73 2.035 . S
O77 C82 1.258 . S
O78 C71 1.247 . S
O78 Zn75 2.028 . S
O79 C71 1.258 . S
O79 Zn73 2.035 . S
O80 Zn73 2.028 . S
O80 C83 1.247 . S
O81 Zn75 2.035 1_545 S
O81 C83 1.258 1_545 S
C82 O76 1.247 . S
C82 O77 1.258 . S
C83 O80 1.247 . S
C83 O81 1.258 1_565 S
C84 O86 1.247 . S
C84 O88 1.258 . S
C85 O92 1.247 . S
C85 O93 1.258 . S
O86 C84 1.247 . S
O86 Zn87 2.028 . S
Zn87 O86 2.028 . S
Zn87 O91 2.035 . S
Zn87 O93 2.035 . S
Zn87 O94 2.028 . S
O88 C84 1.258 . S
O88 Zn89 2.035 . S
Zn89 O88 2.035 . S
Zn89 O90 2.028 . S
Zn89 O92 2.028 . S
Zn89 O95 2.035 . S
O90 Zn89 2.028 . S
O90 C96 1.247 . S
O91 Zn87 2.035 . S
O91 C96 1.258 . S
O92 C85 1.247 . S
O92 Zn89 2.028 . S
O93 C85 1.258 . S
O93 Zn87 2.035 . S
O94 Zn87 2.028 . S
O94 C97 1.247 . S
O95 Zn89 2.035 . S
O95 C97 1.258 . S
C96 O90 1.247 . S
C96 O91 1.258 . S
C97 O94 1.247 . S
C97 O95 1.258 . S
C98 O100 1.247 . S
C98 O102 1.258 . S
C99 O106 1.247 . S
C99 O107 1.258 1_545 S
O100 C98 1.247 . S
O100 Zn101 2.028 . S
Zn101 O100 2.028 . S
Zn101 O105 2.035 . S
Zn101 O107 2.035 1_545 S
Zn101 O108 2.028 . S
O102 C98 1.258 . S
O102 Zn103 2.035 . S
Zn103 O102 2.035 . S
Zn103 O104 2.028 . S
Zn103 O106 2.028 . S
Zn103 O109 2.035 . S
O104 Zn103 2.028 . S
O104 C110 1.247 . S
O105 Zn101 2.035 . S
O105 C110 1.258 . S
O106 C99 1.247 . S
O106 Zn103 2.028 . S
O107 C99 1.258 1_565 S
O107 Zn101 2.035 1_565 S
O108 Zn101 2.028 . S
O108 C111 1.247 . S
O109 Zn103 2.035 . S
O109 C111 1.258 . S
C110 O104 1.247 . S
C110 O105 1.258 . S
C111 O108 1.247 . S
C111 O109 1.258 . S
C112 O114 1.247 . S
C112 O116 1.258 . S
C113 O120 1.247 . S
C113 O121 1.258 . S
O114 C112 1.247 . S
O114 Zn115 2.028 . S
Zn115 O114 2.028 . S
Zn115 O119 2.035 . S
Zn115 O121 2.035 . S
Zn115 O122 2.028 . S
O116 C112 1.258 . S
O116 Zn117 2.035 . S
Zn117 O116 2.035 . S
Zn117 O118 2.028 . S
Zn117 O120 2.028 . S
Zn117 O123 2.035 . S
O118 Zn117 2.028 . S
O118 C124 1.247 . S
O119 Zn115 2.035 . S
O119 C124 1.258 . S
O120 C113 1.247 . S
O120 Zn117 2.028 . S
O121 C113 1.258 . S
O121 Zn115 2.035 . S
O122 Zn115 2.028 . S
O122 C125 1.247 . S
O123 Zn117 2.035 . S
O123 C125 1.258 . S
C124 O118 1.247 . S
C124 O119 1.258 . S
C125 O122 1.247 . S
C125 O123 1.258 . S
C126 O128 1.247 . S
C126 O130 1.258 . S
C127 O134 1.247 1_545 S
C127 O135 1.258 . S
O128 C126 1.247 . S
O128 Zn129 2.028 . S
Zn129 O128 2.028 . S
Zn129 O133 2.035 . S
Zn129 O135 2.035 . S
Zn129 O136 2.028 . S
O130 C126 1.258 . S
O130 Zn131 2.035 . S
Zn131 O130 2.035 . S
Zn131 O132 2.028 . S
Zn131 O134 2.028 1_545 S
Zn131 O137 2.035 . S
O132 Zn131 2.028 . S
O132 C138 1.247 . S
O133 Zn129 2.035 . S
O133 C138 1.258 . S
O134 C127 1.247 1_565 S
O134 Zn131 2.028 1_565 S
O135 C127 1.258 . S
O135 Zn129 2.035 . S
O136 Zn129 2.028 . S
O136 C139 1.247 . S
O137 Zn131 2.035 . S
O137 C139 1.258 . S
C138 O132 1.247 . S
C138 O133 1.258 . S
C139 O136 1.247 . S
C139 O137 1.258 . S
C140 O142 1.247 . S
C140 O144 1.258 . S
C141 O148 1.247 . S
C141 O149 1.258 . S
O142 C140 1.247 . S
O142 Zn143 2.028 . S
Zn143 O142 2.028 . S
Zn143 O147 2.035 . S
Zn143 O149 2.035 . S
Zn143 O150 2.028 . S
O144 C140 1.258 . S
O144 Zn145 2.035 . S
Zn145 O144 2.035 . S
Zn145 O146 2.028 . S
Zn145 O148 2.028 . S
Zn145 O151 2.035 . S
O146 Zn145 2.028 . S
O146 C152 1.247 . S
O147 Zn143 2.035 . S
O147 C152 1.258 . S
O148 C141 1.247 . S
O148 Zn145 2.028 . S
O149 C141 1.258 . S
O149 Zn143 2.035 . S
O150 Zn143 2.028 . S
O150 C153 1.247 . S
O151 Zn145 2.035 . S
O151 C153 1.258 . S
C152 O146 1.247 . S
C152 O147 1.258 . S
C153 O150 1.247 . S
C153 O151 1.258 . S
C154 O156 1.247 . S
C154 O158 1.258 1_565 S
C155 O162 1.247 . S
C155 O163 1.258 . S
O156 C154 1.247 . S
O156 Zn157 2.028 . S
Zn157 O156 2.028 . S
Zn157 O161 2.035 . S
Zn157 O163 2.035 . S
Zn157 O164 2.028 . S
O158 C154 1.258 1_545 S
O158 Zn159 2.035 1_545 S
Zn159 O158 2.035 1_565 S
Zn159 O160 2.028 . S
Zn159 O162 2.028 . S
Zn159 O165 2.035 . S
O160 Zn159 2.028 . S
O160 C166 1.247 . S
O161 Zn157 2.035 . S
O161 C166 1.258 . S
O162 C155 1.247 . S
O162 Zn159 2.028 . S
O163 C155 1.258 . S
O163 Zn157 2.035 . S
O164 Zn157 2.028 . S
O164 C167 1.247 . S
O165 Zn159 2.035 . S
O165 C167 1.258 . S
C166 O160 1.247 . S
C166 O161 1.258 . S
C167 O164 1.247 . S
C167 O165 1.258 . S
C168 O170 1.247 . S
C168 O172 1.258 . S
C169 O176 1.247 . S
C169 O177 1.258 . S
O170 C168 1.247 . S
O170 Zn171 2.028 . S
Zn171 O170 2.028 . S
Zn171 O175 2.035 . S
Zn171 O177 2.035 . S
Zn171 O178 2.028 . S
O172 C168 1.258 . S
O172 Zn173 2.035 . S
Zn173 O172 2.035 . S
Zn173 O174 2.028 . S
Zn173 O176 2.028 . S
Zn173 O179 2.035 . S
O174 Zn173 2.028 . S
O174 C180 1.247 . S
O175 Zn171 2.035 . S
O175 C180 1.258 . S
O176 C169 1.247 . S
O176 Zn173 2.028 . S
O177 C169 1.258 . S
O177 Zn171 2.035 . S
O178 Zn171 2.028 . S
O178 C181 1.247 . S
O179 Zn173 2.035 . S
O179 C181 1.258 . S
C180 O174 1.247 . S
C180 O175 1.258 . S
C181 O178 1.247 . S
C181 O179 1.258 . S
C182 O184 1.247 . S
C182 O186 1.258 . S
C183 O190 1.247 . S
C183 O191 1.258 . S
O184 C182 1.247 . S
O184 Zn185 2.028 . S
Zn185 O184 2.028 . S
Zn185 O189 2.035 1_545 S
Zn185 O191 2.035 . S
Zn185 O192 2.028 . S
O186 C182 1.258 . S
O186 Zn187 2.035 . S
Zn187 O186 2.035 . S
Zn187 O188 2.028 . S
Zn187 O190 2.028 . S
Zn187 O193 2.035 . S
O188 Zn187 2.028 . S
O188 C194 1.247 . S
O189 Zn185 2.035 1_565 S
O189 C194 1.258 1_565 S
O190 C183 1.247 . S
O190 Zn187 2.028 . S
O191 C183 1.258 . S
O191 Zn185 2.035 . S
O192 Zn185 2.028 . S
O192 C195 1.247 . S
O193 Zn187 2.035 . S
O193 C195 1.258 . S
C194 O188 1.247 . S
C194 O189 1.258 1_545 S
C195 O192 1.247 . S
C195 O193 1.258 . S
C196 O198 1.247 . S
C196 O200 1.258 . S
C197 O204 1.247 . S
C197 O205 1.258 . S
O198 C196 1.247 . S
O198 Zn199 2.028 . S
Zn199 O198 2.028 . S
Zn199 O203 2.035 . S
Zn199 O205 2.035 . S
Zn199 O206 2.028 . S
O200 C196 1.258 . S
O200 Zn201 2.035 . S
Zn201 O200 2.035 . S
Zn201 O202 2.028 . S
Zn201 O204 2.028 . S
Zn201 O207 2.035 . S
O202 Zn201 2.028 . S
O202 C208 1.247 . S
O203 Zn199 2.035 . S
O203 C208 1.258 . S
O204 C197 1.247 . S
O204 Zn201 2.028 . S
O205 C197 1.258 . S
O205 Zn199 2.035 . S
O206 Zn199 2.028 . S
O206 C209 1.247 . S
O207 Zn201 2.035 . S
O207 C209 1.258 . S
C208 O202 1.247 . S
C208 O203 1.258 . S
C209 O206 1.247 . S
C209 O207 1.258 . S
C210 O212 1.247 . S
C210 O214 1.258 1_565 S
C211 O218 1.247 . S
C211 O219 1.258 . S
O212 C210 1.247 . S
O212 Zn213 2.028 . S
Zn213 O212 2.028 . S
Zn213 O217 2.035 . S
Zn213 O219 2.035 . S
Zn213 O220 2.028 . S
O214 C210 1.258 1_545 S
O214 Zn215 2.035 1_545 S
Zn215 O214 2.035 1_565 S
Zn215 O216 2.028 . S
Zn215 O218 2.028 . S
Zn215 O221 2.035 . S
O216 Zn215 2.028 . S
O216 C222 1.247 . S
O217 Zn213 2.035 . S
O217 C222 1.258 . S
O218 C211 1.247 . S
O218 Zn215 2.028 . S
O219 C211 1.258 . S
O219 Zn213 2.035 . S
O220 Zn213 2.028 . S
O220 C223 1.247 . S
O221 Zn215 2.035 . S
O221 C223 1.258 . S
C222 O216 1.247 . S
C222 O217 1.258 . S
C223 O220 1.247 . S
C223 O221 1.258 . S
C224 O226 1.247 . S
C224 O228 1.258 . S
C225 O232 1.247 . S
C225 O233 1.258 . S
O226 C224 1.247 . S
O226 Zn227 2.028 . S
Zn227 O226 2.028 . S
Zn227 O231 2.035 . S
Zn227 O233 2.035 . S
Zn227 O234 2.028 . S
O228 C224 1.258 . S
O228 Zn229 2.035 . S
Zn229 O228 2.035 . S
Zn229 O230 2.028 . S
Zn229 O232 2.028 . S
Zn229 O235 2.035 . S
O230 Zn229 2.028 . S
O230 C236 1.247 . S
O231 Zn227 2.035 . S
O231 C236 1.258 . S
O232 C225 1.247 . S
O232 Zn229 2.028 . S
O233 C225 1.258 . S
O233 Zn227 2.035 . S
O234 Zn227 2.028 . S
O234 C237 1.247 . S
O235 Zn229 2.035 . S
O235 C237 1.258 . S
C236 O230 1.247 . S
C236 O231 1.258 . S
C237 O234 1.247 . S
C237 O235 1.258 . S
C238 O240 1.247 . S
C238 O242 1.258 . S
C239 O246 1.247 . S
C239 O247 1.258 . S
O240 C238 1.247 . S
O240 Zn241 2.028 . S
Zn241 O240 2.028 . S
Zn241 O245 2.035 . S
Zn241 O247 2.035 . S
Zn241 O248 2.028 . S
O242 C238 1.258 . S
O242 Zn243 2.035 . S
Zn243 O242 2.035 . S
Zn243 O244 2.028 . S
Zn243 O246 2.028 . S
Zn243 O249 2.035 . S
O244 Zn243 2.028 . S
O244 C250 1.247 . S
O245 Zn241 2.035 . S
O245 C250 1.258 . S
O246 C239 1.247 . S
O246 Zn243 2.028 . S
O247 C239 1.258 . S
O247 Zn241 2.035 . S
O248 Zn241 2.028 . S
O248 C251 1.247 . S
O249 Zn243 2.035 . S
O249 C251 1.258 . S
C250 O244 1.247 . S
C250 O245 1.258 . S
C251 O248 1.247 . S
C251 O249 1.258 . S
C252 O254 1.247 . S
C252 O256 1.258 . S
C253 O260 1.247 . S
C253 O261 1.258 . S
O254 C252 1.247 . S
O254 Zn255 2.028 . S
Zn255 O254 2.028 . S
Zn255 O259 2.035 . S
Zn255 O261 2.035 . S
Zn255 O262 2.028 . S
O256 C252 1.258 . S
O256 Zn257 2.035 . S
Zn257 O256 2.035 . S
Zn257 O258 2.028 . S
Zn257 O260 2.028 . S
Zn257 O263 2.035 . S
O258 Zn257 2.028 . S
O258 C264 1.247 . S
O259 Zn255 2.035 . S
O259 C264 1.258 . S
O260 C253 1.247 . S
O260 Zn257 2.028 . S
O261 C253 1.258 . S
O261 Zn255 2.035 . S
O262 Zn255 2.028 . S
O262 C265 1.247 . S
O263 Zn257 2.035 . S
O263 C265 1.258 . S
C264 O258 1.247 . S
C264 O259 1.258 . S
C265 O262 1.247 . S
C265 O263 1.258 . S
C266 O268 1.247 . S
C266 O270 1.258 . S
C267 O274 1.247 . S
C267 O275 1.258 . S
O268 C266 1.247 . S
O268 Zn269 2.028 . S
Zn269 O268 2.028 . S
Zn269 O273 2.035 . S
Zn269 O275 2.035 . S
Zn269 O276 2.028 . S
O270 C266 1.258 . S
O270 Zn271 2.035 . S
Zn271 O270 2.035 . S
Zn271 O272 2.028 . S
Zn271 O274 2.028 . S
Zn271 O277 2.035 . S
O272 Zn271 2.028 . S
O272 C278 1.247 . S
O273 Zn269 2.035 . S
O273 C278 1.258 . S
O274 C267 1.247 . S
O274 Zn271 2.028 . S
O275 C267 1.258 . S
O275 Zn269 2.035 . S
O276 Zn269 2.028 . S
O276 C279 1.247 . S
O277 Zn271 2.035 . S
O277 C279 1.258 . S
C278 O272 1.247 . S
C278 O273 1.258 . S
C279 O276 1.247 . S
C279 O277 1.258 . S
C280 O282 1.247 . S
C280 O284 1.258 . S
C281 O288 1.247 . S
C281 O289 1.258 . S
O282 C280 1.247 . S
O282 Zn283 2.028 . S
Zn283 O282 2.028 . S
Zn283 O287 2.035 . S
Zn283 O289 2.035 . S
Zn283 O290 2.028 . S
O284 C280 1.258 . S
O284 Zn285 2.035 . S
Zn285 O284 2.035 . S
Zn285 O286 2.028 . S
Zn285 O288 2.028 . S
Zn285 O291 2.035 . S
O286 Zn285 2.028 . S
O286 C292 1.247 . S
O287 Zn283 2.035 . S
O287 C292 1.258 . S
O288 C281 1.247 . S
O288 Zn285 2.028 . S
O289 C281 1.258 . S
O289 Zn283 2.035 . S
O290 Zn283 2.028 . S
O290 C293 1.247 . S
O291 Zn285 2.035 . S
O291 C293 1.258 . S
C292 O286 1.247 . S
C292 O287 1.258 . S
C293 O290 1.247 . S
C293 O291 1.258 . S
C294 O296 1.247 . S
C294 O298 1.258 . S
C295 O302 1.247 . S
C295 O303 1.258 . S
O296 C294 1.247 . S
O296 Zn297 2.028 . S
Zn297 O296 2.028 . S
Zn297 O301 2.035 . S
Zn297 O303 2.035 . S
Zn297 O304 2.028 . S
O298 C294 1.258 . S
O298 Zn299 2.035 . S
Zn299 O298 2.035 . S
Zn299 O300 2.028 . S
Zn299 O302 2.028 . S
Zn299 O305 2.035 . S
O300 Zn299 2.028 . S
O300 C306 1.247 . S
O301 Zn297 2.035 . S
O301 C306 1.258 . S
O302 C295 1.247 . S
O302 Zn299 2.028 . S
O303 C295 1.258 . S
O303 Zn297 2.035 . S
O304 Zn297 2.028 . S
O304 C307 1.247 . S
O305 Zn299 2.035 . S
O305 C307 1.258 . S
C306 O300 1.247 . S
C306 O301 1.258 . S
C307 O304 1.247 . S
C307 O305 1.258 . S
C308 O310 1.247 . S
C308 O312 1.258 . S
C309 O316 1.247 . S
C309 O317 1.258 . S
O310 C308 1.247 . S
O310 Zn311 2.028 . S
Zn311 O310 2.028 . S
Zn311 O315 2.035 . S
Zn311 O317 2.035 . S
Zn311 O318 2.028 . S
O312 C308 1.258 . S
O312 Zn313 2.035 . S
Zn313 O312 2.035 . S
Zn313 O314 2.028 . S
Zn313 O316 2.028 . S
Zn313 O319 2.035 . S
O314 Zn313 2.028 . S
O314 C320 1.247 . S
O315 Zn311 2.035 . S
O315 C320 1.258 . S
O316 C309 1.247 . S
O316 Zn313 2.028 . S
O317 C309 1.258 . S
O317 Zn311 2.035 . S
O318 Zn311 2.028 . S
O318 C321 1.247 . S
O319 Zn313 2.035 . S
O319 C321 1.258 . S
C320 O314 1.247 . S
C320 O315 1.258 . S
C321 O318 1.247 . S
C321 O319 1.258 . S
C322 O324 1.247 . S
C322 O326 1.258 . S
C323 O330 1.247 . S
C323 O331 1.258 . S
O324 C322 1.247 . S
O324 Zn325 2.028 . S
Zn325 O324 2.028 . S
Zn325 O329 2.035 . S
Zn325 O331 2.035 . S
Zn325 O332 2.028 . S
O326 C322 1.258 . S
O326 Zn327 2.035 . S
Zn327 O326 2.035 . S
Zn327 O328 2.028 . S
Zn327 O330 2.028 . S
Zn327 O333 2.035 . S
O328 Zn327 2.028 . S
O328 C334 1.247 . S
O329 Zn325 2.035 . S
O329 C334 1.258 . S
O330 C323 1.247 . S
O330 Zn327 2.028 . S
O331 C323 1.258 . S
O331 Zn325 2.035 . S
O332 Zn325 2.028 . S
O332 C335 1.247 . S
O333 Zn327 2.035 . S
O333 C335 1.258 . S
C334 O328 1.247 . S
C334 O329 1.258 . S
C335 O332 1.247 . S
C335 O333 1.258 . S
C336 O338 1.247 . S
C336 O340 1.258 . S
C337 O344 1.247 . S
C337 O345 1.258 . S
O338 C336 1.247 . S
O338 Zn339 2.028 . S
Zn339 O338 2.028 . S
Zn339 O343 2.035 . S
Zn339 O345 2.035 . S
Zn339 O346 2.028 . S
O340 C336 1.258 . S
O340 Zn341 2.035 . S
Zn341 O340 2.035 . S
Zn341 O342 2.028 . S
Zn341 O344 2.028 . S
Zn341 O347 2.035 . S
O342 Zn341 2.028 . S
O342 C348 1.247 . S
O343 Zn339 2.035 . S
O343 C348 1.258 . S
O344 C337 1.247 . S
O344 Zn341 2.028 . S
O345 C337 1.258 . S
O345 Zn339 2.035 . S
O346 Zn339 2.028 . S
O346 C349 1.247 . S
O347 Zn341 2.035 . S
O347 C349 1.258 . S
C348 O342 1.247 . S
C348 O343 1.258 . S
C349 O346 1.247 . S
C349 O347 1.258 . S
C350 O352 1.247 . S
C350 O354 1.258 . S
C351 O358 1.247 . S
C351 O359 1.258 . S
O352 C350 1.247 . S
O352 Zn353 2.028 . S
Zn353 O352 2.028 . S
Zn353 O357 2.035 . S
Zn353 O359 2.035 . S
Zn353 O360 2.028 . S
O354 C350 1.258 . S
O354 Zn355 2.035 . S
Zn355 O354 2.035 . S
Zn355 O356 2.028 . S
Zn355 O358 2.028 . S
Zn355 O361 2.035 . S
O356 Zn355 2.028 . S
O356 C362 1.247 . S
O357 Zn353 2.035 . S
O357 C362 1.258 . S
O358 C351 1.247 . S
O358 Zn355 2.028 . S
O359 C351 1.258 . S
O359 Zn353 2.035 . S
O360 Zn353 2.028 . S
O360 C363 1.247 . S
O361 Zn355 2.035 . S
O361 C363 1.258 . S
C362 O356 1.247 . S
C362 O357 1.258 . S
C363 O360 1.247 . S
C363 O361 1.258 . S
C364 O366 1.247 . S
C364 O368 1.258 . S
C365 O372 1.247 . S
C365 O373 1.258 . S
O366 C364 1.247 . S
O366 Zn367 2.028 . S
Zn367 O366 2.028 . S
Zn367 O371 2.035 . S
Zn367 O373 2.035 . S
Zn367 O374 2.028 . S
O368 C364 1.258 . S
O368 Zn369 2.035 . S
Zn369 O368 2.035 . S
Zn369 O370 2.028 . S
Zn369 O372 2.028 . S
Zn369 O375 2.035 . S
O370 Zn369 2.028 . S
O370 C376 1.247 . S
O371 Zn367 2.035 . S
O371 C376 1.258 . S
O372 C365 1.247 . S
O372 Zn369 2.028 . S
O373 C365 1.258 . S
O373 Zn367 2.035 . S
O374 Zn367 2.028 . S
O374 C377 1.247 . S
O375 Zn369 2.035 . S
O375 C377 1.258 . S
C376 O370 1.247 . S
C376 O371 1.258 . S
C377 O374 1.247 . S
C377 O375 1.258 . S
C378 O380 1.247 . S
C378 O382 1.258 . S
C379 O386 1.247 . S
C379 O387 1.258 . S
O380 C378 1.247 . S
O380 Zn381 2.028 . S
Zn381 O380 2.028 . S
Zn381 O385 2.035 . S
Zn381 O387 2.035 . S
Zn381 O388 2.028 . S
O382 C378 1.258 . S
O382 Zn383 2.035 . S
Zn383 O382 2.035 . S
Zn383 O384 2.028 . S
Zn383 O386 2.028 . S
Zn383 O389 2.035 . S
O384 Zn383 2.028 . S
O384 C390 1.247 . S
O385 Zn381 2.035 . S
O385 C390 1.258 . S
O386 C379 1.247 . S
O386 Zn383 2.028 . S
O387 C379 1.258 . S
O387 Zn381 2.035 . S
O388 Zn381 2.028 . S
O388 C391 1.247 . S
O389 Zn383 2.035 . S
O389 C391 1.258 . S
C390 O384 1.247 . S
C390 O385 1.258 . S
C391 O388 1.247 . S
C391 O389 1.258 . S
C392 O394 1.247 . S
C392 O396 1.258 . S
C393 O400 1.247 . S
C393 O401 1.258 . S
O394 C392 1.247 . S
O394 Zn395 2.028 . S
Zn395 O394 2.028 . S
Zn395 O399 2.035 . S
Zn395 O401 2.035 . S
Zn395 O402 2.028 . S
O396 C392 1.258 . S
O396 Zn397 2.035 . S
Zn397 O396 2.035 . S
Zn397 O398 2.028 . S
Zn397 O400 2.028 . S
Zn397 O403 2.035 . S
O398 Zn397 2.028 . S
O398 C404 1.247 . S
O399 Zn395 2.035 . S
O399 C404 1.258 . S
O400 C393 1.247 . S
O400 Zn397 2.028 . S
O401 C393 1.258 . S
O401 Zn395 2.035 . S
O402 Zn395 2.028 . S
O402 C405 1.247 . S
O403 Zn397 2.035 . S
O403 C405 1.258 . S
C404 O398 1.247 . S
C404 O399 1.258 . S
C405 O402 1.247 . S
C405 O403 1.258 . S
C406 O408 1.247 . S
C406 O410 1.258 . S
C407 O414 1.247 . S
C407 O415 1.258 . S
O408 C406 1.247 . S
O408 Zn409 2.028 . S
Zn409 O408 2.028 . S
Zn409 O413 2.035 . S
Zn409 O415 2.035 . S
Zn409 O416 2.028 . S
O410 C406 1.258 . S
O410 Zn411 2.035 . S
Zn411 O410 2.035 . S
Zn411 O412 2.028 . S
Zn411 O414 2.028 . S
Zn411 O417 2.035 . S
O412 Zn411 2.028 . S
O412 C418 1.247 . S
O413 Zn409 2.035 . S
O413 C418 1.258 . S
O414 C407 1.247 . S
O414 Zn411 2.028 . S
O415 C407 1.258 . S
O415 Zn409 2.035 . S
O416 Zn409 2.028 . S
O416 C419 1.247 . S
O417 Zn411 2.035 . S
O417 C419 1.258 . S
C418 O412 1.247 . S
C418 O413 1.258 . S
C419 O416 1.247 . S
C419 O417 1.258 . S
C420 O422 1.247 . S
C420 O424 1.258 . S
C421 O428 1.247 . S
C421 O429 1.258 . S
O422 C420 1.247 . S
O422 Zn423 2.028 . S
Zn423 O422 2.028 . S
Zn423 O427 2.035 . S
Zn423 O429 2.035 . S
Zn423 O430 2.028 . S
O424 C420 1.258 . S
O424 Zn425 2.035 . S
Zn425 O424 2.035 . S
Zn425 O426 2.028 . S
Zn425 O428 2.028 . S
Zn425 O431 2.035 . S
O426 Zn425 2.028 . S
O426 C432 1.247 . S
O427 Zn423 2.035 . S
O427 C432 1.258 . S
O428 C421 1.247 . S
O428 Zn425 2.028 . S
O429 C421 1.258 . S
O429 Zn423 2.035 . S
O430 Zn423 2.028 . S
O430 C433 1.247 . S
O431 Zn425 2.035 . S
O431 C433 1.258 . S
C432 O426 1.247 . S
C432 O427 1.258 . S
C433 O430 1.247 . S
C433 O431 1.258 . S
C434 O436 1.247 . S
C434 O438 1.258 . S
C435 O442 1.247 . S
C435 O443 1.258 . S
O436 C434 1.247 . S
O436 Zn437 2.028 . S
Zn437 O436 2.028 . S
Zn437 O441 2.035 . S
Zn437 O443 2.035 . S
Zn437 O444 2.028 . S
O438 C434 1.258 . S
O438 Zn439 2.035 . S
Zn439 O438 2.035 . S
Zn439 O440 2.028 . S
Zn439 O442 2.028 . S
Zn439 O445 2.035 . S
O440 Zn439 2.028 . S
O440 C446 1.247 . S
O441 Zn437 2.035 . S
O441 C446 1.258 . S
O442 C435 1.247 . S
O442 Zn439 2.028 . S
O443 C435 1.258 . S
O443 Zn437 2.035 . S
O444 Zn437 2.028 . S
O444 C447 1.247 . S
O445 Zn439 2.035 . S
O445 C447 1.258 . S
C446 O440 1.247 . S
C446 O441 1.258 . S
C447 O444 1.247 . S
C447 O445 1.258 . S
C448 C449 1.369 . S
C448 C450 1.419 . S
C448 H452 0.930 . S
C449 C448 1.369 . S
C449 C458 1.429 . S
C450 C448 1.419 . S
C450 C451 1.363 . S
C450 H453 0.929 . S
C451 C450 1.363 . S
C451 C457 1.428 . S
H452 C448 0.930 . S
H453 C450 0.929 . S
S454 N455 1.613 . S
S454 N456 1.610 . S
N455 S454 1.613 . S
N455 C458 1.350 . S
N456 S454 1.610 . S
N456 C457 1.351 . S
C457 C451 1.428 . S
C457 N456 1.351 . S
C457 C458 1.434 . S
C458 C449 1.429 . S
C458 N455 1.350 . S
C458 C457 1.434 . S
C459 C460 1.369 . S
C459 C461 1.419 . S
C459 H463 0.931 . S
C460 C459 1.369 . S
C460 C469 1.429 . S
C461 C459 1.419 . S
C461 C462 1.363 . S
C461 H464 0.929 . S
C462 C461 1.363 . S
C462 C468 1.428 . S
H463 C459 0.931 . S
H464 C461 0.929 . S
S465 N466 1.613 . S
S465 N467 1.610 . S
N466 S465 1.613 . S
N466 C469 1.350 . S
N467 S465 1.610 . S
N467 C468 1.351 . S
C468 C462 1.428 . S
C468 N467 1.351 . S
C468 C469 1.434 . S
C469 C460 1.429 . S
C469 N466 1.350 . S
C469 C468 1.434 . S
C470 C471 1.369 . S
C470 C472 1.419 . S
C470 H474 0.930 . S
C471 C470 1.369 . S
C471 C480 1.429 . S
C472 C470 1.419 . S
C472 C473 1.363 . S
C472 H475 0.929 . S
C473 C472 1.363 . S
C473 C479 1.428 . S
H474 C470 0.930 . S
H475 C472 0.929 . S
S476 N477 1.613 . S
S476 N478 1.610 . S
N477 S476 1.613 . S
N477 C480 1.350 . S
N478 S476 1.610 . S
N478 C479 1.351 . S
C479 C473 1.428 . S
C479 N478 1.351 . S
C479 C480 1.434 . S
C480 C471 1.429 . S
C480 N477 1.350 . S
C480 C479 1.434 . S
C481 C482 1.369 . S
C481 C483 1.419 . S
C481 H485 0.930 . S
C482 C481 1.369 . S
C482 C491 1.429 . S
C483 C481 1.419 . S
C483 C484 1.363 . S
C483 H486 0.929 . S
C484 C483 1.363 . S
C484 C490 1.428 . S
H485 C481 0.930 . S
H486 C483 0.929 . S
S487 N488 1.613 . S
S487 N489 1.610 . S
N488 S487 1.613 . S
N488 C491 1.350 . S
N489 S487 1.610 . S
N489 C490 1.351 . S
C490 C484 1.428 . S
C490 N489 1.351 . S
C490 C491 1.434 . S
C491 C482 1.429 . S
C491 N488 1.350 . S
C491 C490 1.434 . S
C492 C493 1.369 . S
C492 C494 1.419 . S
C492 H496 0.930 . S
C493 C492 1.369 . S
C493 C502 1.429 . S
C494 C492 1.419 . S
C494 C495 1.363 . S
C494 H497 0.929 . S
C495 C494 1.363 . S
C495 C501 1.428 . S
H496 C492 0.930 . S
H497 C494 0.929 . S
S498 N499 1.613 . S
S498 N500 1.610 . S
N499 S498 1.613 . S
N499 C502 1.350 . S
N500 S498 1.610 . S
N500 C501 1.351 . S
C501 C495 1.428 . S
C501 N500 1.351 . S
C501 C502 1.434 . S
C502 C493 1.429 . S
C502 N499 1.350 . S
C502 C501 1.434 . S
C503 C504 1.369 . S
C503 C505 1.419 . S
C503 H507 0.930 . S
C504 C503 1.369 . S
C504 C513 1.429 . S
C505 C503 1.419 . S
C505 C506 1.363 . S
C505 H508 0.929 . S
C506 C505 1.363 . S
C506 C512 1.428 . S
H507 C503 0.930 . S
H508 C505 0.929 . S
S509 N510 1.613 . S
S509 N511 1.610 1_545 S
N510 S509 1.613 . S
N510 C513 1.350 1_545 S
N511 S509 1.610 1_565 S
N511 C512 1.351 . S
C512 C506 1.428 . S
C512 N511 1.351 . S
C512 C513 1.434 . S
C513 C504 1.429 . S
C513 N510 1.350 1_565 S
C513 C512 1.434 . S
C514 C515 1.369 . S
C514 C516 1.419 . S
C514 H518 0.930 . S
C515 C514 1.369 . S
C515 C524 1.429 . S
C516 C514 1.419 . S
C516 C517 1.363 . S
C516 H519 0.929 . S
C517 C516 1.363 . S
C517 C523 1.428 . S
H518 C514 0.930 . S
H519 C516 0.929 . S
S520 N521 1.613 . S
S520 N522 1.610 . S
N521 S520 1.613 . S
N521 C524 1.350 . S
N522 S520 1.610 . S
N522 C523 1.351 . S
C523 C517 1.428 . S
C523 N522 1.351 . S
C523 C524 1.434 . S
C524 C515 1.429 . S
C524 N521 1.350 . S
C524 C523 1.434 . S
C525 C526 1.369 . S
C525 C527 1.419 . S
C525 H529 0.930 1_655 S
C526 C525 1.369 . S
C526 C535 1.429 . S
C527 C525 1.419 . S
C527 C528 1.363 . S
C527 H530 0.929 . S
C528 C527 1.363 . S
C528 C534 1.428 . S
H529 C525 0.930 1_455 S
H530 C527 0.929 . S
S531 N532 1.613 . S
S531 N533 1.610 . S
N532 S531 1.613 . S
N532 C535 1.350 . S
N533 S531 1.610 . S
N533 C534 1.351 . S
C534 C528 1.428 . S
C534 N533 1.351 . S
C534 C535 1.434 . S
C535 C526 1.429 . S
C535 N532 1.350 . S
C535 C534 1.434 . S
C536 C537 1.369 . S
C536 C538 1.419 . S
C536 H540 0.930 . S
C537 C536 1.369 . S
C537 C546 1.429 . S
C538 C536 1.419 . S
C538 C539 1.363 . S
C538 H541 0.929 . S
C539 C538 1.363 . S
C539 C545 1.428 . S
H540 C536 0.930 . S
H541 C538 0.929 . S
S542 N543 1.613 . S
S542 N544 1.610 . S
N543 S542 1.613 . S
N543 C546 1.350 . S
N544 S542 1.610 . S
N544 C545 1.351 . S
C545 C539 1.428 . S
C545 N544 1.351 . S
C545 C546 1.434 . S
C546 C537 1.429 . S
C546 N543 1.350 . S
C546 C545 1.434 . S
C547 C548 1.369 . S
C547 C549 1.419 . S
C547 H551 0.930 . S
C548 C547 1.369 . S
C548 C557 1.429 . S
C549 C547 1.419 . S
C549 C550 1.363 . S
C549 H552 0.929 1_455 S
C550 C549 1.363 . S
C550 C556 1.428 . S
H551 C547 0.930 . S
H552 C549 0.929 1_655 S
S553 N554 1.613 1_565 S
S553 N555 1.610 1_565 S
N554 S553 1.613 1_545 S
N554 C557 1.350 . S
N555 S553 1.610 1_545 S
N555 C556 1.351 . S
C556 C550 1.428 . S
C556 N555 1.351 . S
C556 C557 1.434 . S
C557 C548 1.429 . S
C557 N554 1.350 . S
C557 C556 1.434 . S
C558 C559 1.369 . S
C558 C560 1.419 . S
C558 H562 0.930 . S
C559 C558 1.369 . S
C559 C568 1.429 . S
C560 C558 1.419 . S
C560 C561 1.363 . S
C560 H563 0.929 . S
C561 C560 1.363 . S
C561 C567 1.428 . S
H562 C558 0.930 . S
H563 C560 0.929 . S
S564 N565 1.613 . S
S564 N566 1.610 . S
N565 S564 1.613 . S
N565 C568 1.350 . S
N566 S564 1.610 . S
N566 C567 1.351 . S
C567 C561 1.428 . S
C567 N566 1.351 . S
C567 C568 1.434 . S
C568 C559 1.429 . S
C568 N565 1.350 . S
C568 C567 1.434 . S
C569 C570 1.369 . S
C569 C571 1.419 . S
C569 H573 0.930 . S
C570 C569 1.369 . S
C570 C579 1.429 . S
C571 C569 1.419 . S
C571 C572 1.363 . S
C571 H574 0.929 . S
C572 C571 1.363 . S
C572 C578 1.428 . S
H573 C569 0.930 . S
H574 C571 0.929 . S
S575 N576 1.613 . S
S575 N577 1.610 . S
N576 S575 1.613 . S
N576 C579 1.350 . S
N577 S575 1.610 . S
N577 C578 1.351 . S
C578 C572 1.428 . S
C578 N577 1.351 . S
C578 C579 1.434 . S
C579 C570 1.429 . S
C579 N576 1.350 . S
C579 C578 1.434 . S
C580 C581 1.369 . S
C580 C582 1.419 . S
C580 H584 0.930 . S
C581 C580 1.369 . S
C581 C590 1.429 . S
C582 C580 1.419 . S
C582 C583 1.363 . S
C582 H585 0.929 . S
C583 C582 1.363 . S
C583 C589 1.428 . S
H584 C580 0.930 . S
H585 C582 0.929 . S
S586 N587 1.613 . S
S586 N588 1.610 . S
N587 S586 1.613 . S
N587 C590 1.350 . S
N588 S586 1.610 . S
N588 C589 1.351 . S
C589 C583 1.428 . S
C589 N588 1.351 . S
C589 C590 1.434 . S
C590 C581 1.429 . S
C590 N587 1.350 . S
C590 C589 1.434 . S
C591 C592 1.369 . S
C591 C593 1.419 . S
C591 H595 0.930 . S
C592 C591 1.369 . S
C592 C601 1.429 . S
C593 C591 1.419 . S
C593 C594 1.363 . S
C593 H596 0.929 . S
C594 C593 1.363 . S
C594 C600 1.428 . S
H595 C591 0.930 . S
H596 C593 0.929 . S
S597 N598 1.613 . S
S597 N599 1.610 . S
N598 S597 1.613 . S
N598 C601 1.350 . S
N599 S597 1.610 . S
N599 C600 1.351 . S
C600 C594 1.428 . S
C600 N599 1.351 . S
C600 C601 1.434 . S
C601 C592 1.429 . S
C601 N598 1.350 . S
C601 C600 1.434 . S
C602 C603 1.369 . S
C602 C604 1.419 . S
C602 H606 0.930 . S
C603 C602 1.369 . S
C603 C612 1.429 . S
C604 C602 1.419 . S
C604 C605 1.363 . S
C604 H607 0.929 . S
C605 C604 1.363 . S
C605 C611 1.428 . S
H606 C602 0.930 . S
H607 C604 0.929 . S
S608 N609 1.613 . S
S608 N610 1.610 . S
N609 S608 1.613 . S
N609 C612 1.350 . S
N610 S608 1.610 . S
N610 C611 1.351 . S
C611 C605 1.428 . S
C611 N610 1.351 . S
C611 C612 1.434 . S
C612 C603 1.429 . S
C612 N609 1.350 . S
C612 C611 1.434 . S
C613 C614 1.369 . S
C613 C615 1.419 . S
C613 H617 0.930 . S
C614 C613 1.369 . S
C614 C623 1.429 . S
C615 C613 1.419 . S
C615 C616 1.363 . S
C615 H618 0.929 . S
C616 C615 1.363 . S
C616 C622 1.428 . S
H617 C613 0.930 . S
H618 C615 0.929 . S
S619 N620 1.615 . S
S619 N621 1.609 1_455 S
N620 S619 1.615 . S
N620 C623 1.350 . S
N621 S619 1.609 1_655 S
N621 C622 1.351 1_655 S
C622 C616 1.428 . S
C622 N621 1.351 1_455 S
C622 C623 1.434 . S
C623 C614 1.429 . S
C623 N620 1.350 . S
C623 C622 1.434 . S
C624 C625 1.369 . S
C624 C626 1.419 . S
C624 H628 0.930 . S
C625 C624 1.369 . S
C625 C634 1.429 . S
C626 C624 1.419 . S
C626 C627 1.363 . S
C626 H629 0.929 . S
C627 C626 1.363 . S
C627 C633 1.428 . S
H628 C624 0.930 . S
H629 C626 0.929 . S
S630 N631 1.613 . S
S630 N632 1.610 . S
N631 S630 1.613 . S
N631 C634 1.350 . S
N632 S630 1.610 . S
N632 C633 1.351 . S
C633 C627 1.428 . S
C633 N632 1.351 . S
C633 C634 1.434 . S
C634 C625 1.429 . S
C634 N631 1.350 . S
C634 C633 1.434 . S
C635 C636 1.369 . S
C635 C637 1.419 . S
C635 H639 0.930 . S
C636 C635 1.369 . S
C636 C645 1.429 . S
C637 C635 1.419 . S
C637 C638 1.363 . S
C637 H640 0.929 . S
C638 C637 1.363 . S
C638 C644 1.428 . S
H639 C635 0.930 . S
H640 C637 0.929 . S
S641 N642 1.613 . S
S641 N643 1.610 . S
N642 S641 1.613 . S
N642 C645 1.350 . S
N643 S641 1.610 . S
N643 C644 1.351 . S
C644 C638 1.428 . S
C644 N643 1.351 . S
C644 C645 1.434 . S
C645 C636 1.429 . S
C645 N642 1.350 . S
C645 C644 1.434 . S
C646 C647 1.369 . S
C646 C648 1.419 . S
C646 H650 0.930 . S
C647 C646 1.369 . S
C647 C656 1.429 . S
C648 C646 1.419 . S
C648 C649 1.363 . S
C648 H651 0.929 . S
C649 C648 1.363 . S
C649 C655 1.428 . S
H650 C646 0.930 . S
H651 C648 0.929 . S
S652 N653 1.613 . S
S652 N654 1.610 . S
N653 S652 1.613 . S
N653 C656 1.350 . S
N654 S652 1.610 . S
N654 C655 1.351 . S
C655 C649 1.428 . S
C655 N654 1.351 . S
C655 C656 1.434 . S
C656 C647 1.429 . S
C656 N653 1.350 . S
C656 C655 1.434 . S
C657 C658 1.369 . S
C657 C659 1.419 . S
C657 H661 0.930 . S
C658 C657 1.369 . S
C658 C667 1.429 . S
C659 C657 1.419 . S
C659 C660 1.363 . S
C659 H662 0.929 . S
C660 C659 1.363 . S
C660 C666 1.428 . S
H661 C657 0.930 . S
H662 C659 0.929 . S
S663 N664 1.613 . S
S663 N665 1.610 1_455 S
N664 S663 1.613 . S
N664 C667 1.350 . S
N665 S663 1.610 1_655 S
N665 C666 1.351 1_655 S
C666 C660 1.428 . S
C666 N665 1.351 1_455 S
C666 C667 1.434 . S
C667 C658 1.429 . S
C667 N664 1.350 . S
C667 C666 1.434 . S
C668 C669 1.369 . S
C668 C670 1.419 . S
C668 H672 0.930 . S
C669 C668 1.369 . S
C669 C678 1.429 . S
C670 C668 1.419 . S
C670 C671 1.363 . S
C670 H673 0.929 . S
C671 C670 1.363 . S
C671 C677 1.428 . S
H672 C668 0.930 . S
H673 C670 0.929 . S
S674 N675 1.613 . S
S674 N676 1.610 . S
N675 S674 1.613 . S
N675 C678 1.350 . S
N676 S674 1.610 . S
N676 C677 1.351 . S
C677 C671 1.428 . S
C677 N676 1.351 . S
C677 C678 1.434 . S
C678 C669 1.429 . S
C678 N675 1.350 . S
C678 C677 1.434 . S
C679 C680 1.369 . S
C679 C681 1.419 . S
C679 H683 0.930 . S
C680 C679 1.369 . S
C680 C689 1.429 . S
C681 C679 1.419 . S
C681 C682 1.363 . S
C681 H684 0.929 . S
C682 C681 1.363 . S
C682 C688 1.428 . S
H683 C679 0.930 . S
H684 C681 0.929 . S
S685 N686 1.613 . S
S685 N687 1.610 . S
N686 S685 1.613 . S
N686 C689 1.350 . S
N687 S685 1.610 . S
N687 C688 1.351 . S
C688 C682 1.428 . S
C688 N687 1.351 . S
C688 C689 1.434 . S
C689 C680 1.429 . S
C689 N686 1.350 . S
C689 C688 1.434 . S
C690 C691 1.369 . S
C690 C692 1.419 . S
C690 H694 0.930 . S
C691 C690 1.369 . S
C691 C700 1.429 . S
C692 C690 1.419 . S
C692 C693 1.363 . S
C692 H695 0.929 . S
C693 C692 1.363 . S
C693 C699 1.428 . S
H694 C690 0.930 . S
H695 C692 0.929 . S
S696 N697 1.613 . S
S696 N698 1.610 . S
N697 S696 1.613 . S
N697 C700 1.350 . S
N698 S696 1.610 . S
N698 C699 1.351 . S
C699 C693 1.428 . S
C699 N698 1.351 . S
C699 C700 1.434 . S
C700 C691 1.429 . S
C700 N697 1.350 . S
C700 C699 1.434 . S
C701 C702 1.369 . S
C701 C703 1.419 . S
C701 H705 0.930 . S
C702 C701 1.369 . S
C702 C711 1.429 . S
C703 C701 1.419 . S
C703 C704 1.363 . S
C703 H706 0.929 . S
C704 C703 1.363 . S
C704 C710 1.428 . S
H705 C701 0.930 . S
H706 C703 0.929 . S
S707 N708 1.613 . S
S707 N709 1.610 . S
N708 S707 1.613 . S
N708 C711 1.350 . S
N709 S707 1.610 . S
N709 C710 1.351 . S
C710 C704 1.428 . S
C710 N709 1.351 . S
C710 C711 1.434 . S
C711 C702 1.429 . S
C711 N708 1.350 . S
C711 C710 1.434 . S
C712 C713 1.369 . S
C712 C714 1.419 . S
C712 H716 0.930 . S
C713 C712 1.369 . S
C713 C722 1.429 . S
C714 C712 1.419 . S
C714 C715 1.363 . S
C714 H717 0.929 . S
C715 C714 1.363 . S
C715 C721 1.428 . S
H716 C712 0.930 . S
H717 C714 0.929 . S
S718 N719 1.613 . S
S718 N720 1.610 . S
N719 S718 1.613 . S
N719 C722 1.350 . S
N720 S718 1.610 . S
N720 C721 1.351 . S
C721 C715 1.428 . S
C721 N720 1.351 . S
C721 C722 1.434 . S
C722 C713 1.429 . S
C722 N719 1.350 . S
C722 C721 1.434 . S
C723 C724 1.369 . S
C723 C725 1.419 . S
C723 H727 0.930 . S
C724 C723 1.369 . S
C724 C733 1.429 . S
C725 C723 1.419 . S
C725 C726 1.363 . S
C725 H728 0.929 . S
C726 C725 1.363 . S
C726 C732 1.428 . S
H727 C723 0.930 . S
H728 C725 0.929 . S
S729 N730 1.613 . S
S729 N731 1.610 . S
N730 S729 1.613 . S
N730 C733 1.350 . S
N731 S729 1.610 . S
N731 C732 1.351 . S
C732 C726 1.428 . S
C732 N731 1.351 . S
C732 C733 1.434 . S
C733 C724 1.429 . S
C733 N730 1.350 . S
C733 C732 1.434 . S
C734 C735 1.369 . S
C734 C736 1.419 . S
C734 H738 0.930 . S
C735 C734 1.369 . S
C735 C744 1.429 . S
C736 C734 1.419 . S
C736 C737 1.363 . S
C736 H739 0.929 . S
C737 C736 1.363 . S
C737 C743 1.428 . S
H738 C734 0.930 . S
H739 C736 0.929 . S
S740 N741 1.613 . S
S740 N742 1.610 . S
N741 S740 1.613 . S
N741 C744 1.350 . S
N742 S740 1.610 . S
N742 C743 1.351 . S
C743 C737 1.428 . S
C743 N742 1.351 . S
C743 C744 1.434 . S
C744 C735 1.429 . S
C744 N741 1.350 . S
C744 C743 1.434 . S
C745 C746 1.369 . S
C745 C747 1.419 . S
C745 H749 0.930 . S
C746 C745 1.369 . S
C746 C755 1.429 . S
C747 C745 1.419 . S
C747 C748 1.363 . S
C747 H750 0.929 . S
C748 C747 1.363 . S
C748 C754 1.428 . S
H749 C745 0.930 . S
H750 C747 0.929 . S
S751 N752 1.613 1_655 S
S751 N753 1.610 . S
N752 S751 1.613 1_455 S
N752 C755 1.350 1_455 S
N753 S751 1.610 . S
N753 C754 1.351 . S
C754 C748 1.428 . S
C754 N753 1.351 . S
C754 C755 1.434 . S
C755 C746 1.429 . S
C755 N752 1.350 1_655 S
C755 C754 1.434 . S
C756 C757 1.369 . S
C756 C758 1.419 . S
C756 H760 0.930 . S
C757 C756 1.369 . S
C757 C766 1.429 . S
C758 C756 1.419 . S
C758 C759 1.363 . S
C758 H761 0.929 . S
C759 C758 1.363 . S
C759 C765 1.428 . S
H760 C756 0.930 . S
H761 C758 0.929 . S
S762 N763 1.613 . S
S762 N764 1.610 . S
N763 S762 1.613 . S
N763 C766 1.350 . S
N764 S762 1.610 . S
N764 C765 1.351 . S
C765 C759 1.428 . S
C765 N764 1.351 . S
C765 C766 1.434 . S
C766 C757 1.429 . S
C766 N763 1.350 . S
C766 C765 1.434 . S
C767 C768 1.369 . S
C767 C769 1.419 . S
C767 H771 0.930 1_655 S
C768 C767 1.369 . S
C768 C777 1.429 . S
C769 C767 1.419 . S
C769 C770 1.363 . S
C769 H772 0.929 . S
C770 C769 1.363 . S
C770 C776 1.428 . S
H771 C767 0.930 1_455 S
H772 C769 0.929 . S
S773 N774 1.613 . S
S773 N775 1.610 . S
N774 S773 1.613 . S
N774 C777 1.350 . S
N775 S773 1.610 . S
N775 C776 1.351 . S
C776 C770 1.428 . S
C776 N775 1.351 . S
C776 C777 1.434 . S
C777 C768 1.429 . S
C777 N774 1.350 . S
C777 C776 1.434 . S
C778 C779 1.369 . S
C778 C780 1.419 . S
C778 H782 0.930 . S
C779 C778 1.369 . S
C779 C788 1.429 . S
C780 C778 1.419 . S
C780 C781 1.363 . S
C780 H783 0.929 . S
C781 C780 1.363 . S
C781 C787 1.428 . S
H782 C778 0.930 . S
H783 C780 0.929 . S
S784 N785 1.613 . S
S784 N786 1.610 . S
N785 S784 1.613 . S
N785 C788 1.350 . S
N786 S784 1.610 . S
N786 C787 1.351 . S
C787 C781 1.428 . S
C787 N786 1.351 . S
C787 C788 1.434 . S
C788 C779 1.429 . S
C788 N785 1.350 . S
C788 C787 1.434 . S
C789 C790 1.369 . S
C789 C791 1.419 . S
C789 H793 0.930 . S
C790 C789 1.369 . S
C790 C799 1.429 . S
C791 C789 1.419 . S
C791 C792 1.363 . S
C791 H794 0.929 . S
C792 C791 1.363 . S
C792 C798 1.428 . S
H793 C789 0.930 . S
H794 C791 0.929 . S
S795 N796 1.613 . S
S795 N797 1.610 . S
N796 S795 1.613 . S
N796 C799 1.350 . S
N797 S795 1.610 . S
N797 C798 1.351 . S
C798 C792 1.428 . S
C798 N797 1.351 . S
C798 C799 1.434 . S
C799 C790 1.429 . S
C799 N796 1.350 . S
C799 C798 1.434 . S
C800 C801 1.369 . S
C800 C802 1.419 . S
C800 H804 0.930 . S
C801 C800 1.369 . S
C801 C810 1.429 . S
C802 C800 1.419 . S
C802 C803 1.363 . S
C802 H805 0.929 . S
C803 C802 1.363 . S
C803 C809 1.428 . S
H804 C800 0.930 . S
H805 C802 0.929 . S
S806 N807 1.613 . S
S806 N808 1.610 . S
N807 S806 1.613 . S
N807 C810 1.350 . S
N808 S806 1.610 . S
N808 C809 1.351 . S
C809 C803 1.428 . S
C809 N808 1.351 . S
C809 C810 1.434 . S
C810 C801 1.429 . S
C810 N807 1.350 . S
C810 C809 1.434 . S
C811 C812 1.369 1_565 S
C811 C813 1.419 1_455 S
C811 H815 0.930 . S
C812 C811 1.369 1_545 S
C812 C821 1.435 . S
C813 C811 1.419 1_655 S
C813 C814 1.374 . S
C813 H816 0.929 . S
C814 C813 1.374 . S
C814 C820 1.417 1_565 S
H815 C811 0.930 . S
H816 C813 0.929 . S
S817 N818 1.613 . S
S817 N819 1.610 . S
N818 S817 1.613 . S
N818 C821 1.349 1_655 S
N819 S817 1.610 . S
N819 C820 1.351 . S
C820 C814 1.417 1_545 S
C820 N819 1.351 . S
C820 C821 1.428 1_655 S
C821 C812 1.435 . S
C821 N818 1.349 1_455 S
C821 C820 1.428 1_455 S
C822 C823 1.369 . S
C822 C824 1.419 . S
C822 H826 0.930 . S
C823 C822 1.369 . S
C823 C832 1.429 . S
C824 C822 1.419 . S
C824 C825 1.363 . S
C824 H827 0.929 . S
C825 C824 1.363 . S
C825 C831 1.428 . S
H826 C822 0.930 . S
H827 C824 0.929 . S
S828 N829 1.613 . S
S828 N830 1.610 . S
N829 S828 1.613 . S
N829 C832 1.350 . S
N830 S828 1.610 . S
N830 C831 1.351 . S
C831 C825 1.428 . S
C831 N830 1.351 . S
C831 C832 1.434 . S
C832 C823 1.429 . S
C832 N829 1.350 . S
C832 C831 1.434 . S
C833 C834 1.369 1_545 S
C833 C835 1.419 1_554 S
C833 H837 0.930 . S
C834 C833 1.369 1_565 S
C834 C843 1.429 . S
C835 C833 1.419 1_556 S
C835 C836 1.371 . S
C835 H838 0.929 . S
C836 C835 1.371 . S
C836 C842 1.420 1_545 S
H837 C833 0.930 . S
H838 C835 0.929 . S
S839 N840 1.578 1_556 S
S839 N841 1.610 . S
N840 S839 1.578 1_554 S
N840 C843 1.351 . S
N841 S839 1.610 . S
N841 C842 1.351 . S
C842 C836 1.420 1_565 S
C842 N841 1.351 . S
C842 C843 1.434 1_556 S
C843 C834 1.429 . S
C843 N840 1.351 . S
C843 C842 1.434 1_554 S
C844 C845 1.369 . S
C844 C846 1.419 . S
C844 H848 0.930 . S
C845 C844 1.369 . S
C845 C854 1.429 . S
C846 C844 1.419 . S
C846 C847 1.363 . S
C846 H849 0.929 . S
C847 C846 1.363 . S
C847 C853 1.428 . S
H848 C844 0.930 . S
H849 C846 0.929 . S
S850 N851 1.613 . S
S850 N852 1.610 . S
N851 S850 1.613 . S
N851 C854 1.350 . S
N852 S850 1.610 . S
N852 C853 1.351 . S
C853 C847 1.428 . S
C853 N852 1.351 . S
C853 C854 1.434 . S
C854 C845 1.429 . S
C854 N851 1.350 . S
C854 C853 1.434 . S
C855 C856 1.369 1_565 S
C855 C857 1.419 . S
C855 H859 0.930 . S
C856 C855 1.369 1_545 S
C856 C865 1.429 . S
C857 C855 1.419 . S
C857 C858 1.374 . S
C857 H860 0.929 . S
C858 C857 1.374 . S
C858 C864 1.417 1_565 S
H859 C855 0.930 . S
H860 C857 0.929 . S
S861 N862 1.613 . S
S861 N863 1.610 . S
N862 S861 1.613 . S
N862 C865 1.350 . S
N863 S861 1.610 . S
N863 C864 1.351 . S
C864 C858 1.417 1_545 S
C864 N863 1.351 . S
C864 C865 1.434 . S
C865 C856 1.429 . S
C865 N862 1.350 . S
C865 C864 1.434 . S
C866 C867 1.369 . S
C866 C868 1.419 . S
C866 H870 0.930 . S
C867 C866 1.369 . S
C867 C876 1.429 . S
C868 C866 1.419 . S
C868 C869 1.363 . S
C868 H871 0.929 . S
C869 C868 1.363 . S
C869 C875 1.428 . S
H870 C866 0.930 . S
H871 C868 0.929 . S
S872 N873 1.613 . S
S872 N874 1.610 . S
N873 S872 1.613 . S
N873 C876 1.350 . S
N874 S872 1.610 . S
N874 C875 1.351 . S
C875 C869 1.428 . S
C875 N874 1.351 . S
C875 C876 1.434 . S
C876 C867 1.429 . S
C876 N873 1.350 . S
C876 C875 1.434 . S
C877 C878 1.378 1_655 S
C877 C879 1.419 . S
C877 H881 0.930 . S
C878 C877 1.378 1_455 S
C878 C887 1.419 1_566 S
C879 C877 1.419 . S
C879 C880 1.363 1_566 S
C879 H882 0.929 . S
C880 C879 1.363 1_544 S
C880 C886 1.428 1_655 S
H881 C877 0.930 . S
H882 C879 0.929 . S
S883 N884 1.613 . S
S883 N885 1.610 . S
N884 S883 1.613 . S
N884 C887 1.350 . S
N885 S883 1.610 . S
N885 C886 1.351 . S
C886 C880 1.428 1_455 S
C886 N885 1.351 . S
C886 C887 1.434 . S
C887 C878 1.419 1_544 S
C887 N884 1.350 . S
C887 C886 1.434 . S
C888 C889 1.369 . S
C888 C890 1.419 . S
C888 H892 0.930 . S
C889 C888 1.369 . S
C889 C898 1.429 . S
C890 C888 1.419 . S
C890 C891 1.363 . S
C890 H893 0.929 . S
C891 C890 1.363 . S
C891 C897 1.428 . S
H892 C888 0.930 . S
H893 C890 0.929 . S
S894 N895 1.613 . S
S894 N896 1.610 . S
N895 S894 1.613 . S
N895 C898 1.350 . S
N896 S894 1.610 . S
N896 C897 1.351 . S
C897 C891 1.428 . S
C897 N896 1.351 . S
C897 C898 1.434 . S
C898 C889 1.429 . S
C898 N895 1.350 . S
C898 C897 1.434 . S
C899 C900 1.369 . S
C899 C901 1.419 . S
C899 H903 0.930 . S
C900 C899 1.369 . S
C900 C909 1.429 . S
C901 C899 1.419 . S
C901 C902 1.363 . S
C901 H904 0.929 . S
C902 C901 1.363 . S
C902 C908 1.428 . S
H903 C899 0.930 . S
H904 C901 0.929 . S
S905 N906 1.613 . S
S905 N907 1.610 . S
N906 S905 1.613 . S
N906 C909 1.350 . S
N907 S905 1.610 . S
N907 C908 1.351 . S
C908 C902 1.428 . S
C908 N907 1.351 . S
C908 C909 1.434 . S
C909 C900 1.429 . S
C909 N906 1.350 . S
C909 C908 1.434 . S
C910 C911 1.369 . S
C910 C912 1.419 . S
C910 H914 0.930 . S
C911 C910 1.369 . S
C911 C920 1.429 . S
C912 C910 1.419 . S
C912 C913 1.363 . S
C912 H915 0.929 . S
C913 C912 1.363 . S
C913 C919 1.428 . S
H914 C910 0.930 . S
H915 C912 0.929 . S
S916 N917 1.613 . S
S916 N918 1.610 . S
N917 S916 1.613 . S
N917 C920 1.350 . S
N918 S916 1.610 . S
N918 C919 1.351 . S
C919 C913 1.428 . S
C919 N918 1.351 . S
C919 C920 1.434 . S
C920 C911 1.429 . S
C920 N917 1.350 . S
C920 C919 1.434 . S
C921 C922 1.369 . S
C921 C923 1.419 . S
C921 H925 0.930 . S
C922 C921 1.369 . S
C922 C931 1.429 . S
C923 C921 1.419 . S
C923 C924 1.363 . S
C923 H926 0.929 . S
C924 C923 1.363 . S
C924 C930 1.428 . S
H925 C921 0.930 . S
H926 C923 0.929 . S
S927 N928 1.613 . S
S927 N929 1.610 . S
N928 S927 1.613 . S
N928 C931 1.350 . S
N929 S927 1.610 . S
N929 C930 1.351 . S
C930 C924 1.428 . S
C930 N929 1.351 . S
C930 C931 1.434 . S
C931 C922 1.429 . S
C931 N928 1.350 . S
C931 C930 1.434 . S
C932 C933 1.369 . S
C932 C934 1.419 . S
C932 H936 0.930 . S
C933 C932 1.369 . S
C933 C942 1.429 1_554 S
C934 C932 1.419 . S
C934 C935 1.363 1_554 S
C934 H937 0.929 . S
C935 C934 1.363 1_556 S
C935 C941 1.428 . S
H936 C932 0.930 . S
H937 C934 0.929 . S
S938 N939 1.613 . S
S938 N940 1.610 . S
N939 S938 1.613 . S
N939 C942 1.350 . S
N940 S938 1.610 . S
N940 C941 1.351 . S
C941 C935 1.428 . S
C941 N940 1.351 . S
C941 C942 1.434 . S
C942 C933 1.429 1_556 S
C942 N939 1.350 . S
C942 C941 1.434 . S
C943 C944 1.369 1_655 S
C943 C945 1.419 . S
C943 H947 0.930 . S
C944 C943 1.369 1_455 S
C944 C953 1.429 . S
C945 C943 1.419 . S
C945 C946 1.363 . S
C945 H948 0.929 . S
C946 C945 1.363 . S
C946 C952 1.428 1_655 S
H947 C943 0.930 . S
H948 C945 0.929 . S
S949 N950 1.613 . S
S949 N951 1.610 . S
N950 S949 1.613 . S
N950 C953 1.350 . S
N951 S949 1.610 . S
N951 C952 1.351 . S
C952 C946 1.428 1_455 S
C952 N951 1.351 . S
C952 C953 1.434 . S
C953 C944 1.429 . S
C953 N950 1.350 . S
C953 C952 1.434 . S
C954 C955 1.369 1_655 S
C954 C956 1.419 . S
C954 H958 0.930 . S
C955 C954 1.369 1_455 S
C955 C964 1.429 1_554 S
C956 C954 1.419 . S
C956 C957 1.363 1_554 S
C956 H959 0.929 . S
C957 C956 1.363 1_556 S
C957 C963 1.428 1_655 S
H958 C954 0.930 . S
H959 C956 0.929 . S
S960 N961 1.613 . S
S960 N962 1.610 . S
N961 S960 1.613 . S
N961 C964 1.350 . S
N962 S960 1.610 . S
N962 C963 1.351 . S
C963 C957 1.428 1_455 S
C963 N962 1.351 . S
C963 C964 1.434 . S
C964 C955 1.429 1_556 S
C964 N961 1.350 . S
C964 C963 1.434 . S
C965 C966 1.369 . S
C965 C967 1.419 . S
C965 H969 0.930 . S
C966 C965 1.369 . S
C966 C975 1.429 . S
C967 C965 1.419 . S
C967 C968 1.363 . S
C967 H970 0.929 . S
C968 C967 1.363 . S
C968 C974 1.428 . S
H969 C965 0.930 . S
H970 C967 0.929 . S
S971 N972 1.613 . S
S971 N973 1.610 . S
N972 S971 1.613 . S
N972 C975 1.350 . S
N973 S971 1.610 . S
N973 C974 1.351 . S
C974 C968 1.428 . S
C974 N973 1.351 . S
C974 C975 1.434 . S
C975 C966 1.429 . S
C975 N972 1.350 . S
C975 C974 1.434 . S
C976 C977 1.369 1_565 S
C976 C978 1.419 . S
C976 H980 0.930 . S
C977 C976 1.369 1_545 S
C977 C986 1.429 . S
C978 C976 1.419 . S
C978 C979 1.363 . S
C978 H981 0.929 . S
C979 C978 1.363 . S
C979 C985 1.428 1_565 S
H980 C976 0.930 . S
H981 C978 0.929 . S
S982 N983 1.613 . S
S982 N984 1.610 . S
N983 S982 1.613 . S
N983 C986 1.350 . S
N984 S982 1.610 . S
N984 C985 1.351 . S
C985 C979 1.428 1_545 S
C985 N984 1.351 . S
C985 C986 1.434 . S
C986 C977 1.429 . S
C986 N983 1.350 . S
C986 C985 1.434 . S
C987 C988 1.369 . S
C987 C989 1.419 . S
C987 H991 0.930 . S
C988 C987 1.369 . S
C988 C997 1.429 . S
C989 C987 1.419 . S
C989 C990 1.363 . S
C989 H992 0.929 . S
C990 C989 1.363 . S
C990 C996 1.428 . S
H991 C987 0.930 . S
H992 C989 0.929 . S
S993 N994 1.613 . S
S993 N995 1.610 . S
N994 S993 1.613 . S
N994 C997 1.350 . S
N995 S993 1.610 . S
N995 C996 1.351 . S
C996 C990 1.428 . S
C996 N995 1.351 . S
C996 C997 1.434 . S
C997 C988 1.429 . S
C997 N994 1.350 . S
C997 C996 1.434 . S
C998 C999 1.383 . S
C998 C1000 1.405 1_545 S
C998 H1002 0.929 1_545 S
C999 C998 1.383 . S
C999 C1008 1.429 . S
C1000 C998 1.405 1_565 S
C1000 C1001 1.363 . S
C1000 H1003 0.929 . S
C1001 C1000 1.363 . S
C1001 C1007 1.414 1_565 S
H1002 C998 0.929 1_565 S
H1003 C1000 0.929 . S
S1004 N1005 1.613 . S
S1004 N1006 1.610 . S
N1005 S1004 1.613 . S
N1005 C1008 1.350 . S
N1006 S1004 1.610 . S
N1006 C1007 1.354 . S
C1007 C1001 1.414 1_545 S
C1007 N1006 1.354 . S
C1007 C1008 1.448 . S
C1008 C999 1.429 . S
C1008 N1005 1.350 . S
C1008 C1007 1.448 . S
C1009 C1010 1.365 . S
C1009 C1011 1.423 1_554 S
C1009 H1013 0.929 1_554 S
C1010 C1009 1.365 . S
C1010 C1019 1.429 . S
C1011 C1009 1.423 1_556 S
C1011 C1012 1.363 . S
C1011 H1014 0.929 . S
C1012 C1011 1.363 . S
C1012 C1018 1.407 1_556 S
H1013 C1009 0.929 1_556 S
H1014 C1011 0.929 . S
S1015 N1016 1.613 . S
S1015 N1017 1.610 . S
N1016 S1015 1.613 . S
N1016 C1019 1.350 1_565 S
N1017 S1015 1.610 . S
N1017 C1018 1.354 1_565 S
C1018 C1012 1.407 1_554 S
C1018 N1017 1.354 1_545 S
C1018 C1019 1.455 . S
C1019 C1010 1.429 . S
C1019 N1016 1.350 1_545 S
C1019 C1018 1.455 . S
C1020 C1021 1.369 1_565 S
C1020 C1022 1.419 . S
C1020 H1024 0.930 . S
C1021 C1020 1.369 1_545 S
C1021 C1030 1.429 . S
C1022 C1020 1.419 . S
C1022 C1023 1.363 . S
C1022 H1025 0.929 . S
C1023 C1022 1.363 . S
C1023 C1029 1.428 1_565 S
H1024 C1020 0.930 . S
H1025 C1022 0.929 . S
S1026 N1027 1.613 . S
S1026 N1028 1.610 . S
N1027 S1026 1.613 . S
N1027 C1030 1.350 . S
N1028 S1026 1.610 . S
N1028 C1029 1.351 . S
C1029 C1023 1.428 1_545 S
C1029 N1028 1.351 . S
C1029 C1030 1.434 . S
C1030 C1021 1.429 . S
C1030 N1027 1.350 . S
C1030 C1029 1.434 . S
C1031 C1032 1.369 . S
C1031 C1033 1.419 . S
C1031 H1035 0.930 . S
C1032 C1031 1.369 . S
C1032 C1041 1.429 . S
C1033 C1031 1.419 . S
C1033 C1034 1.363 . S
C1033 H1036 0.929 . S
C1034 C1033 1.363 . S
C1034 C1040 1.428 . S
H1035 C1031 0.930 . S
H1036 C1033 0.929 . S
S1037 N1038 1.613 . S
S1037 N1039 1.610 . S
N1038 S1037 1.613 . S
N1038 C1041 1.350 . S
N1039 S1037 1.610 . S
N1039 C1040 1.351 . S
C1040 C1034 1.428 . S
C1040 N1039 1.351 . S
C1040 C1041 1.434 . S
C1041 C1032 1.429 . S
C1041 N1038 1.350 . S
C1041 C1040 1.434 . S
C1042 C1043 1.369 1_565 S
C1042 C1044 1.419 . S
C1042 H1046 0.930 . S
C1043 C1042 1.369 1_545 S
C1043 C1052 1.429 . S
C1044 C1042 1.419 . S
C1044 C1045 1.363 . S
C1044 H1047 0.929 . S
C1045 C1044 1.363 . S
C1045 C1051 1.428 1_565 S
H1046 C1042 0.930 . S
H1047 C1044 0.929 . S
S1048 N1049 1.613 . S
S1048 N1050 1.610 . S
N1049 S1048 1.613 . S
N1049 C1052 1.350 . S
N1050 S1048 1.610 . S
N1050 C1051 1.351 . S
C1051 C1045 1.428 1_545 S
C1051 N1050 1.351 . S
C1051 C1052 1.434 . S
C1052 C1043 1.429 . S
C1052 N1049 1.350 . S
C1052 C1051 1.434 . S
C1053 C1054 1.365 . S
C1053 C1055 1.422 1_556 S
C1053 H1057 0.928 1_556 S
C1054 C1053 1.365 . S
C1054 C1063 1.429 . S
C1055 C1053 1.422 1_554 S
C1055 C1056 1.363 . S
C1055 H1058 0.929 . S
C1056 C1055 1.363 . S
C1056 C1062 1.391 1_554 S
H1057 C1053 0.928 1_554 S
H1058 C1055 0.929 . S
S1059 N1060 1.613 1_545 S
S1059 N1061 1.610 1_545 S
N1060 S1059 1.613 1_565 S
N1060 C1063 1.350 . S
N1061 S1059 1.610 1_565 S
N1061 C1062 1.359 . S
C1062 C1056 1.391 1_556 S
C1062 N1061 1.359 . S
C1062 C1063 1.470 . S
C1063 C1054 1.429 . S
C1063 N1060 1.350 . S
C1063 C1062 1.470 . S
C1064 C1065 1.369 . S
C1064 C1066 1.419 . S
C1064 H1068 0.930 . S
C1065 C1064 1.369 . S
C1065 C1074 1.429 . S
C1066 C1064 1.419 . S
C1066 C1067 1.363 . S
C1066 H1069 0.929 . S
C1067 C1066 1.363 . S
C1067 C1073 1.428 . S
H1068 C1064 0.930 . S
H1069 C1066 0.929 . S
S1070 N1071 1.613 . S
S1070 N1072 1.610 . S
N1071 S1070 1.613 . S
N1071 C1074 1.350 . S
N1072 S1070 1.610 . S
N1072 C1073 1.351 . S
C1073 C1067 1.428 . S
C1073 N1072 1.351 . S
C1073 C1074 1.434 . S
C1074 C1065 1.429 . S
C1074 N1071 1.350 . S
C1074 C1073 1.434 . S
C1075 C1076 1.369 . S
C1075 C1077 1.419 1_556 S
C1075 H1079 0.930 . S
C1076 C1075 1.369 . S
C1076 C1085 1.429 . S
C1077 C1075 1.419 1_554 S
C1077 C1078 1.363 . S
C1077 H1080 0.929 . S
C1078 C1077 1.363 . S
C1078 C1084 1.428 . S
H1079 C1075 0.930 . S
H1080 C1077 0.929 . S
S1081 N1082 1.613 1_554 S
S1081 N1083 1.610 . S
N1082 S1081 1.613 1_556 S
N1082 C1085 1.350 . S
N1083 S1081 1.610 . S
N1083 C1084 1.351 . S
C1084 C1078 1.428 . S
C1084 N1083 1.351 . S
C1084 C1085 1.434 1_554 S
C1085 C1076 1.429 . S
C1085 N1082 1.350 . S
C1085 C1084 1.434 1_556 S
C1086 C1087 1.369 . S
C1086 C1088 1.419 . S
C1086 H1090 0.930 . S
C1087 C1086 1.369 . S
C1087 C1096 1.429 . S
C1088 C1086 1.419 . S
C1088 C1089 1.363 . S
C1088 H1091 0.929 . S
C1089 C1088 1.363 . S
C1089 C1095 1.428 . S
H1090 C1086 0.930 . S
H1091 C1088 0.929 . S
S1092 N1093 1.613 . S
S1092 N1094 1.610 . S
N1093 S1092 1.613 . S
N1093 C1096 1.350 . S
N1094 S1092 1.610 . S
N1094 C1095 1.351 . S
C1095 C1089 1.428 . S
C1095 N1094 1.351 . S
C1095 C1096 1.434 . S
C1096 C1087 1.429 . S
C1096 N1093 1.350 . S
C1096 C1095 1.434 . S
C1097 C1098 1.369 . S
C1097 C1099 1.419 . S
C1097 H1101 0.930 . S
C1098 C1097 1.369 . S
C1098 C1107 1.429 . S
C1099 C1097 1.419 . S
C1099 C1100 1.363 . S
C1099 H1102 0.929 . S
C1100 C1099 1.363 . S
C1100 C1106 1.428 . S
H1101 C1097 0.930 . S
H1102 C1099 0.929 . S
S1103 N1104 1.613 . S
S1103 N1105 1.610 . S
N1104 S1103 1.613 . S
N1104 C1107 1.350 . S
N1105 S1103 1.610 . S
N1105 C1106 1.351 . S
C1106 C1100 1.428 . S
C1106 N1105 1.351 . S
C1106 C1107 1.434 . S
C1107 C1098 1.429 . S
C1107 N1104 1.350 . S
C1107 C1106 1.434 . S
C1108 C1109 1.369 . S
C1108 C1110 1.419 . S
C1108 H1112 0.930 . S
C1109 C1108 1.369 . S
C1109 C1118 1.429 . S
C1110 C1108 1.419 . S
C1110 C1111 1.363 . S
C1110 H1113 0.929 . S
C1111 C1110 1.363 . S
C1111 C1117 1.428 . S
H1112 C1108 0.930 . S
H1113 C1110 0.929 . S
S1114 N1115 1.613 . S
S1114 N1116 1.610 . S
N1115 S1114 1.613 . S
N1115 C1118 1.350 . S
N1116 S1114 1.610 . S
N1116 C1117 1.351 . S
C1117 C1111 1.428 . S
C1117 N1116 1.351 . S
C1117 C1118 1.434 . S
C1118 C1109 1.429 . S
C1118 N1115 1.350 . S
C1118 C1117 1.434 . S
C1119 C1120 1.369 . S
C1119 C1121 1.419 . S
C1119 H1123 0.930 . S
C1120 C1119 1.369 . S
C1120 C1129 1.429 1_556 S
C1121 C1119 1.419 . S
C1121 C1122 1.363 1_556 S
C1121 H1124 0.929 . S
C1122 C1121 1.363 1_554 S
C1122 C1128 1.428 . S
H1123 C1119 0.930 . S
H1124 C1121 0.929 . S
S1125 N1126 1.613 . S
S1125 N1127 1.610 . S
N1126 S1125 1.613 . S
N1126 C1129 1.350 . S
N1127 S1125 1.610 . S
N1127 C1128 1.351 . S
C1128 C1122 1.428 . S
C1128 N1127 1.351 . S
C1128 C1129 1.434 . S
C1129 C1120 1.429 1_554 S
C1129 N1126 1.350 . S
C1129 C1128 1.434 . S
C1130 C1131 1.369 . S
C1130 C1132 1.419 . S
C1130 H1134 0.930 . S
C1131 C1130 1.369 . S
C1131 C1140 1.429 . S
C1132 C1130 1.419 . S
C1132 C1133 1.363 . S
C1132 H1135 0.929 . S
C1133 C1132 1.363 . S
C1133 C1139 1.428 . S
H1134 C1130 0.930 . S
H1135 C1132 0.929 . S
S1136 N1137 1.613 . S
S1136 N1138 1.610 . S
N1137 S1136 1.613 . S
N1137 C1140 1.350 . S
N1138 S1136 1.610 . S
N1138 C1139 1.351 . S
C1139 C1133 1.428 . S
C1139 N1138 1.351 . S
C1139 C1140 1.434 . S
C1140 C1131 1.429 . S
C1140 N1137 1.350 . S
C1140 C1139 1.434 . S
C1141 C1142 1.369 . S
C1141 C1143 1.419 . S
C1141 H1145 0.930 . S
C1142 C1141 1.369 . S
C1142 C1151 1.429 . S
C1143 C1141 1.419 . S
C1143 C1144 1.363 . S
C1143 H1146 0.929 . S
C1144 C1143 1.363 . S
C1144 C1150 1.428 . S
H1145 C1141 0.930 . S
H1146 C1143 0.929 . S
S1147 N1148 1.613 . S
S1147 N1149 1.610 . S
N1148 S1147 1.613 . S
N1148 C1151 1.350 . S
N1149 S1147 1.610 . S
N1149 C1150 1.351 . S
C1150 C1144 1.428 . S
C1150 N1149 1.351 . S
C1150 C1151 1.434 . S
C1151 C1142 1.429 . S
C1151 N1148 1.350 . S
C1151 C1150 1.434 . S
C449 C390 1.527 . S
C451 C1 1.552 . S
C460 C26 1.549 1_655 S
C462 C112 1.525 . S
C471 C363 1.522 . S
C473 C28 1.554 . S
C482 C42 1.553 . S
C484 C153 1.523 . S
C493 C56 1.553 . S
C495 C419 1.524 . S
C504 C71 1.554 . S
C506 C208 1.524 . S
C515 C96 1.549 . S
C517 C447 1.528 . S
C526 C111 1.550 1_655 S
C528 C181 1.529 . S
C537 C279 1.526 . S
C539 C125 1.550 . S
C548 C12 1.529 . S
C550 C139 1.551 1_455 S
C559 C239 1.523 . S
C561 C140 1.552 . S
C570 C166 1.555 . S
C572 C41 1.520 . S
C581 C306 1.522 . S
C583 C168 1.554 . S
C592 C85 1.525 . S
C594 C182 1.551 . S
C603 C197 1.553 . S
C605 C334 1.523 . S
C614 C69 1.519 . S
C616 C222 1.555 1_455 S
C625 C225 1.551 . S
C627 C155 1.526 . S
C636 C250 1.554 . S
C638 C336 1.520 . S
C647 C126 1.519 . S
C649 C252 1.554 . S
C658 C376 1.519 . S
C660 C266 1.554 1_455 S
C669 C195 1.530 . S
C671 C292 1.551 . S
C680 C433 1.529 . S
C682 C295 1.552 1_455 S
C691 C211 1.522 . S
C693 C320 1.554 . S
C702 C323 1.555 . S
C704 C405 1.523 . S
C713 C55 1.525 . S
C715 C349 1.552 . S
C724 C350 1.550 . S
C726 C236 1.529 . S
C735 C365 1.554 . S
C737 C15 1.520 . S
C746 C379 1.554 1_655 S
C748 C265 1.520 . S
C757 C392 1.556 . S
C759 C82 1.524 . S
C768 C406 1.550 1_655 S
C770 C309 1.527 . S
C779 C420 1.550 . S
C781 C98 1.529 . S
C790 C434 1.555 . S
C792 C281 1.520 . S
C801 C337 1.729 . S
C803 C13 1.728 . S
C812 C14 1.732 1_545 S
C814 C127 1.726 1_565 S
C823 C377 1.732 . S
C825 C40 1.729 . S
C834 C54 1.735 1_565 S
C836 C154 1.720 1_545 S
C845 C404 1.722 . S
C847 C68 1.734 . S
C856 C83 1.729 1_545 S
C858 C194 1.722 1_565 S
C867 C432 1.725 . S
C869 C84 1.732 . S
C878 C99 1.723 1_565 S
C880 C210 1.726 1_545 S
C889 C113 1.735 . S
C891 C237 1.724 . S
C900 C152 1.727 . S
C902 C264 1.731 . S
C911 C180 1.728 . S
C913 C280 1.730 . S
C922 C209 1.725 . S
C924 C308 1.734 . S
C933 C238 1.735 . S
C935 C362 1.724 . S
C944 C391 1.731 . S
C946 C278 1.730 . S
C955 C418 1.729 . S
C957 C307 1.725 . S
C966 C335 1.731 . S
C968 C446 1.723 . S
C977 C0 1.832 . S
C979 C57 1.835 . S
C988 C27 1.835 . S
C990 C70 1.832 . S
C999 C97 1.834 . S
C1001 C29 1.835 . S
C1010 C43 1.835 . S
C1012 C110 1.833 . S
C1021 C169 1.832 . S
C1023 C124 1.835 . S
C1032 C183 1.832 . S
C1034 C138 1.833 . S
C1043 C141 1.832 . S
C1045 C196 1.834 . S
C1054 C167 1.834 . S
C1056 C223 1.832 . S
C1065 C293 1.835 . S
C1067 C224 1.832 . S
C1076 C294 1.832 . S
C1078 C251 1.833 . S
C1087 C253 1.835 . S
C1089 C321 1.833 . S
C1098 C322 1.834 . S
C1100 C267 1.834 . S
C1109 C393 1.833 . S
C1111 C348 1.833 . S
C1120 C351 1.833 . S
C1122 C407 1.834 . S
C1131 C421 1.833 . S
C1133 C364 1.833 . S
C1142 C378 1.834 . S
C1144 C435 1.834 . S
