# Generated by pormake.
# Topology ung, (4)-cn, num edge types: 1
# Building blocks:
#     Node 0, Type 0, BuildingBlock: KUFVIS_clean_sbu_0, # of connection points: 4
#     Node 1, Type 0, BuildingBlock: KUFVIS_clean_sbu_0, # of connection points: 4
#     Node 2, Type 0, BuildingBlock: KUFVIS_clean_sbu_0, # of connection points: 4
#     Node 3, Type 0, BuildingBlock: KUFVIS_clean_sbu_0, # of connection points: 4
#     Node 4, Type 0, BuildingBlock: KUFVIS_clean_sbu_0, # of connection points: 4
#     Node 5, Type 0, BuildingBlock: KUFVIS_clean_sbu_0, # of connection points: 4
#     Node 6, Type 0, BuildingBlock: KUFVIS_clean_sbu_0, # of connection points: 4
#     Node 7, Type 0, BuildingBlock: KUFVIS_clean_sbu_0, # of connection points: 4
#     Node 8, Type 0, BuildingBlock: KUFVIS_clean_sbu_0, # of connection points: 4
#     Node 9, Type 0, BuildingBlock: KUFVIS_clean_sbu_0, # of connection points: 4
#     Node 10, Type 0, BuildingBlock: KUFVIS_clean_sbu_0, # of connection points: 4
#     Node 11, Type 0, BuildingBlock: KUFVIS_clean_sbu_0, # of connection points: 4
#     Node 12, Type 0, BuildingBlock: KUFVIS_clean_sbu_0, # of connection points: 4
#     Node 13, Type 0, BuildingBlock: KUFVIS_clean_sbu_0, # of connection points: 4
#     Node 14, Type 0, BuildingBlock: KUFVIS_clean_sbu_0, # of connection points: 4
#     Node 15, Type 0, BuildingBlock: KUFVIS_clean_sbu_0, # of connection points: 4
#     Node 16, Type 0, BuildingBlock: KUFVIS_clean_sbu_0, # of connection points: 4
#     Node 17, Type 0, BuildingBlock: KUFVIS_clean_sbu_0, # of connection points: 4
#     Edge 18, Type (0, 0), BuildingBlock: AJUNOK_clean_linker_0, # of connection points: 2
#     Edge 19, Type (0, 0), BuildingBlock: AJUNOK_clean_linker_0, # of connection points: 2
#     Edge 20, Type (0, 0), BuildingBlock: AJUNOK_clean_linker_0, # of connection points: 2
#     Edge 21, Type (0, 0), BuildingBlock: AJUNOK_clean_linker_0, # of connection points: 2
#     Edge 22, Type (0, 0), BuildingBlock: AJUNOK_clean_linker_0, # of connection points: 2
#     Edge 23, Type (0, 0), BuildingBlock: AJUNOK_clean_linker_0, # of connection points: 2
#     Edge 24, Type (0, 0), BuildingBlock: AJUNOK_clean_linker_0, # of connection points: 2
#     Edge 25, Type (0, 0), BuildingBlock: AJUNOK_clean_linker_0, # of connection points: 2
#     Edge 26, Type (0, 0), BuildingBlock: AJUNOK_clean_linker_0, # of connection points: 2
#     Edge 27, Type (0, 0), BuildingBlock: AJUNOK_clean_linker_0, # of connection points: 2
#     Edge 28, Type (0, 0), BuildingBlock: AJUNOK_clean_linker_0, # of connection points: 2
#     Edge 29, Type (0, 0), BuildingBlock: AJUNOK_clean_linker_0, # of connection points: 2
#     Edge 30, Type (0, 0), BuildingBlock: AJUNOK_clean_linker_0, # of connection points: 2
#     Edge 31, Type (0, 0), BuildingBlock: AJUNOK_clean_linker_0, # of connection points: 2
#     Edge 32, Type (0, 0), BuildingBlock: AJUNOK_clean_linker_0, # of connection points: 2
#     Edge 33, Type (0, 0), BuildingBlock: AJUNOK_clean_linker_0, # of connection points: 2
#     Edge 34, Type (0, 0), BuildingBlock: AJUNOK_clean_linker_0, # of connection points: 2
#     Edge 35, Type (0, 0), BuildingBlock: AJUNOK_clean_linker_0, # of connection points: 2
#     Edge 36, Type (0, 0), BuildingBlock: AJUNOK_clean_linker_0, # of connection points: 2
#     Edge 37, Type (0, 0), BuildingBlock: AJUNOK_clean_linker_0, # of connection points: 2
#     Edge 38, Type (0, 0), BuildingBlock: AJUNOK_clean_linker_0, # of connection points: 2
#     Edge 39, Type (0, 0), BuildingBlock: AJUNOK_clean_linker_0, # of connection points: 2
#     Edge 40, Type (0, 0), BuildingBlock: AJUNOK_clean_linker_0, # of connection points: 2
#     Edge 41, Type (0, 0), BuildingBlock: AJUNOK_clean_linker_0, # of connection points: 2
#     Edge 42, Type (0, 0), BuildingBlock: AJUNOK_clean_linker_0, # of connection points: 2
#     Edge 43, Type (0, 0), BuildingBlock: AJUNOK_clean_linker_0, # of connection points: 2
#     Edge 44, Type (0, 0), BuildingBlock: AJUNOK_clean_linker_0, # of connection points: 2
#     Edge 45, Type (0, 0), BuildingBlock: AJUNOK_clean_linker_0, # of connection points: 2
#     Edge 46, Type (0, 0), BuildingBlock: AJUNOK_clean_linker_0, # of connection points: 2
#     Edge 47, Type (0, 0), BuildingBlock: AJUNOK_clean_linker_0, # of connection points: 2
#     Edge 48, Type (0, 0), BuildingBlock: AJUNOK_clean_linker_0, # of connection points: 2
#     Edge 49, Type (0, 0), BuildingBlock: AJUNOK_clean_linker_0, # of connection points: 2
#     Edge 50, Type (0, 0), BuildingBlock: AJUNOK_clean_linker_0, # of connection points: 2
#     Edge 51, Type (0, 0), BuildingBlock: AJUNOK_clean_linker_0, # of connection points: 2
#     Edge 52, Type (0, 0), BuildingBlock: AJUNOK_clean_linker_0, # of connection points: 2
#     Edge 53, Type (0, 0), BuildingBlock: AJUNOK_clean_linker_0, # of connection points: 2
# Relax obj value: 0.111
# Max RMSD: 0.237
# Mean RMSD: 0.223
data_MOF--net-ung--node1-KUFVIS_clean_sbu_0--edge1-AJUNOK_clean_linker_0
_symmetry_space_group_name_H-M    P1
_symmetry_Int_Tables_number       1
_symmetry_cell_setting            triclinic
loop_
_symmetry_equiv_pos_as_xyz
'x, y, z'
_cell_length_a     52.868675
_cell_length_b     53.755789
_cell_length_c     16.310645
_cell_angle_alpha  89.959832
_cell_angle_beta   89.156023
_cell_angle_gamma 120.52114
loop_
_atom_site_label
_atom_site_type_symbol
_atom_site_fract_x
_atom_site_fract_y
_atom_site_fract_z
_atom_type_partial_charge
Mn0 Mn 0.08633 0.64535 0.25403 0.0
Mn1 Mn 0.01843 0.5888 0.22528 0.0
C2 C 0.05588 0.64989 0.16329 0.0
C3 C 0.11452 0.68546 0.33688 0.0
C4 C 0.07261 0.59433 0.14146 0.0
O5 O 0.08134 0.61834 0.3474 0.0
O6 O 0.03531 0.58206 0.32631 0.0
C7 C 0.99056 0.59911 0.36968 0.0
N8 N 0.99195 0.59614 0.28709 0.0
C9 C 0.95285 0.60586 0.2655 0.0
C10 C 0.95082 0.60878 0.35041 0.0
C11 C 0.96978 0.60541 0.40269 0.0
C12 C 0.9739 0.59945 0.23621 0.0
H13 H 0.00532 0.59685 0.40997 0.0
C14 C 0.05924 0.59398 0.36656 0.0
O15 O 0.12708 0.67425 0.29348 0.0
O16 O 0.08639 0.67323 0.3322 0.0
N17 N 0.99924 0.5919 0.13059 0.0
C18 C 0.00383 0.58805 0.05034 0.0
C19 C 0.98668 0.59072 0.98993 0.0
C20 C 0.96484 0.59705 0.01273 0.0
C21 C 0.95999 0.60013 0.09591 0.0
C22 C 0.97755 0.59691 0.15341 0.0
H23 H 0.02069 0.58332 0.03249 0.0
O24 O 0.08388 0.6681 0.1615 0.0
O25 O 0.04644 0.63024 0.22101 0.0
O26 O 0.09172 0.61889 0.1711 0.0
O27 O 0.04511 0.58128 0.15886 0.0
C28 C 0.93857 0.60647 0.124 0.0
C29 C 0.93504 0.60939 0.20873 0.0
H30 H 0.93492 0.61378 0.37608 0.0
H31 H 0.96847 0.6078 0.46823 0.0
H32 H 0.99045 0.58816 0.92591 0.0
H33 H 0.95187 0.59942 0.9659 0.0
H34 H 0.92478 0.60926 0.08096 0.0
H35 H 0.91862 0.61444 0.22955 0.0
Mn36 Mn 0.50996 0.49673 0.22825 0.0
Mn37 Mn 0.4886 0.54561 0.24667 0.0
C38 C 0.47455 0.48936 0.32538 0.0
C39 C 0.50054 0.45535 0.15451 0.0
C40 C 0.54476 0.55353 0.32106 0.0
O41 O 0.52812 0.52215 0.12753 0.0
O42 O 0.50893 0.55095 0.13787 0.0
C43 C 0.44343 0.52219 0.11848 0.0
N44 N 0.45097 0.53006 0.19774 0.0
C45 C 0.40095 0.51466 0.23592 0.0
C46 C 0.39276 0.5069 0.15434 0.0
C47 C 0.41408 0.51059 0.09545 0.0
C48 C 0.43057 0.52631 0.2551 0.0
H49 H 0.45964 0.52448 0.0734 0.0
C50 C 0.5244 0.54219 0.10006 0.0
O51 O 0.52556 0.47075 0.19092 0.0
O52 O 0.48224 0.46436 0.15999 0.0
N53 N 0.46869 0.54321 0.34795 0.0
C54 C 0.48015 0.55146 0.42414 0.0
C55 C 0.46158 0.54859 0.49047 0.0
C56 C 0.4315 0.53745 0.4777 0.0
C57 C 0.42034 0.52969 0.39845 0.0
C58 C 0.43998 0.53341 0.33455 0.0
H59 H 0.50323 0.55997 0.4344 0.0
O60 O 0.48788 0.47478 0.32874 0.0
O61 O 0.48147 0.50675 0.26271 0.0
O62 O 0.54184 0.52904 0.3007 0.0
O63 O 0.52671 0.56164 0.3008 0.0
C64 C 0.39047 0.51821 0.38046 0.0
C65 C 0.38077 0.51066 0.29928 0.0
H66 H 0.37009 0.4977 0.13649 0.0
H67 H 0.40787 0.50431 0.03258 0.0
H68 H 0.4704 0.55476 0.55137 0.0
H69 H 0.41719 0.53496 0.52917 0.0
H70 H 0.37473 0.5149 0.42871 0.0
H71 H 0.35769 0.50155 0.28636 0.0
Mn72 Mn 0.66618 0.0677 0.25125 0.0
Mn73 Mn 0.66692 0.13048 0.26278 0.0
C74 C 0.70616 0.10944 0.19578 0.0
C75 C 0.67452 0.03451 0.32082 0.0
C76 C 0.63297 0.08534 0.13377 0.0
O77 O 0.63261 0.0582 0.33162 0.0
O78 O 0.63783 0.10202 0.34241 0.0
C79 C 0.69115 0.14597 0.42945 0.0
N80 N 0.69247 0.15284 0.34851 0.0
C81 C 0.73116 0.20154 0.37133 0.0
C82 C 0.73032 0.19509 0.45503 0.0
C83 C 0.71046 0.16705 0.48404 0.0
C84 C 0.71241 0.17925 0.31933 0.0
H85 H 0.67532 0.12465 0.45216 0.0
C86 C 0.62539 0.07538 0.36301 0.0
O87 O 0.6569 0.02649 0.25898 0.0
O88 O 0.68769 0.06152 0.34006 0.0
N89 N 0.69341 0.16096 0.19092 0.0
C90 C 0.6902 0.16397 0.10943 0.0
C91 C 0.70715 0.19104 0.07137 0.0
C92 C 0.72638 0.21497 0.11814 0.0
C93 C 0.72947 0.21142 0.2019 0.0
C94 C 0.71245 0.18377 0.23608 0.0
H95 H 0.67423 0.14602 0.07406 0.0
O96 O 0.70148 0.08403 0.17719 0.0
O97 O 0.6883 0.10981 0.25111 0.0
O98 O 0.64085 0.06728 0.15492 0.0
O99 O 0.64082 0.10882 0.17208 0.0
C100 C 0.74743 0.23449 0.25384 0.0
C101 C 0.74895 0.22943 0.33797 0.0
H102 H 0.74458 0.21156 0.49765 0.0
H103 H 0.7096 0.1619 0.54855 0.0
H104 H 0.70453 0.1937 0.00685 0.0
H105 H 0.73784 0.23608 0.08945 0.0
H106 H 0.75992 0.25633 0.2302 0.0
H107 H 0.76317 0.24732 0.37689 0.0
Mn108 Mn 0.08047 0.49242 0.7456 0.0
Mn109 Mn 0.01452 0.48727 0.76432 0.0
C110 C 0.03965 0.45403 0.68369 0.0
C111 C 0.1149 0.4833 0.8059 0.0
C112 C 0.06158 0.52751 0.64227 0.0
O113 O 0.08714 0.52131 0.83557 0.0
O114 O 0.04126 0.51325 0.85021 0.0
C115 C 0.99688 0.45633 0.92392 0.0
N116 N 0.99122 0.45809 0.84362 0.0
C117 C 0.94238 0.41723 0.858 0.0
C118 C 0.94757 0.41493 0.94097 0.0
C119 C 0.97509 0.43436 0.97382 0.0
C120 C 0.96538 0.43872 0.81053 0.0
H121 H 0.01775 0.47169 0.94969 0.0
C122 C 0.06818 0.52571 0.87081 0.0
O123 O 0.12306 0.50375 0.75139 0.0
O124 O 0.08719 0.46828 0.82415 0.0
N125 N 0.98565 0.46307 0.68724 0.0
C126 C 0.98416 0.46844 0.60637 0.0
C127 C 0.9579 0.45156 0.56456 0.0
C128 C 0.93316 0.42998 0.60703 0.0
C129 C 0.93524 0.42465 0.69013 0.0
C130 C 0.96222 0.4417 0.728 0.0
H131 H 1.00254 0.48603 0.57464 0.0
O132 O 0.0662 0.46105 0.66229 0.0
O133 O 0.03774 0.46882 0.7443 0.0
O134 O 0.08072 0.52038 0.65815 0.0
O135 O 0.03685 0.51716 0.67984 0.0
C136 C 0.91127 0.40406 0.73792 0.0
C137 C 0.91502 0.39975 0.82115 0.0
H138 H 0.93054 0.39849 0.98012 0.0
H139 H 0.97929 0.43277 0.03779 0.0
H140 H 0.95641 0.45589 0.50054 0.0
H141 H 0.91258 0.41819 0.57549 0.0
H142 H 0.88976 0.39157 0.71155 0.0
H143 H 0.89653 0.38344 0.85673 0.0
Mn144 Mn 0.65462 0.64217 0.72985 0.0
Mn145 Mn 0.60512 0.66363 0.71895 0.0
C146 C 0.66076 0.68058 0.80958 0.0
C147 C 0.69647 0.64584 0.66699 0.0
C148 C 0.59507 0.61141 0.81952 0.0
O149 O 0.63025 0.62042 0.63136 0.0
O150 O 0.60289 0.64126 0.6183 0.0
C151 C 0.63361 0.70507 0.58122 0.0
N152 N 0.62217 0.69923 0.65888 0.0
C153 C 0.63421 0.74845 0.67712 0.0
C154 C 0.64516 0.75473 0.59626 0.0
C155 C 0.6451 0.73299 0.54837 0.0
C156 C 0.62295 0.72019 0.70635 0.0
H157 H 0.6344 0.68867 0.54527 0.0
C158 C 0.61178 0.62434 0.59294 0.0
O159 O 0.67954 0.62382 0.71408 0.0
O160 O 0.68924 0.66524 0.65748 0.0
N161 N 0.60446 0.68554 0.81064 0.0
C162 C 0.59425 0.67629 0.88852 0.0
C163 C 0.59419 0.69579 0.94563 0.0
C164 C 0.60431 0.7245 0.92192 0.0
C165 C 0.61412 0.73336 0.84102 0.0
C166 C 0.61347 0.71292 0.78663 0.0
H167 H 0.58647 0.65429 0.90731 0.0
O168 O 0.67547 0.66785 0.82446 0.0
O169 O 0.64431 0.67155 0.74516 0.0
O170 O 0.62051 0.61427 0.80733 0.0
O171 O 0.58698 0.62758 0.78489 0.0
C172 C 0.62466 0.76173 0.81237 0.0
C173 C 0.63478 0.7693 0.73052 0.0
H174 H 0.65425 0.77631 0.57096 0.0
H175 H 0.65413 0.73782 0.48655 0.0
H176 H 0.58647 0.68874 0.00787 0.0
H177 H 0.60444 0.73954 0.96631 0.0
H178 H 0.62527 0.77793 0.85303 0.0
H179 H 0.64323 0.79128 0.70945 0.0
Mn180 Mn 0.5142 0.06854 0.74678 0.0
Mn181 Mn 0.50547 0.00268 0.77683 0.0
C182 C 0.48031 0.0383 0.84226 0.0
C183 C 0.50085 0.09576 0.6647 0.0
C184 C 0.55362 0.05642 0.85745 0.0
O185 O 0.53638 0.06446 0.65211 0.0
O186 O 0.52926 0.02017 0.6733 0.0
C187 C 0.46698 0.97517 0.63507 0.0
N188 N 0.4714 0.97631 0.71737 0.0
C189 C 0.42206 0.93715 0.74248 0.0
C190 C 0.41706 0.93542 0.65793 0.0
C191 C 0.43962 0.95452 0.60402 0.0
C192 C 0.44981 0.9581 0.76979 0.0
H193 H 0.48414 0.99002 0.59347 0.0
C194 C 0.54019 0.0438 0.63189 0.0
O195 O 0.52519 0.10845 0.70548 0.0
O196 O 0.48514 0.06805 0.67173 0.0
N197 N 0.4831 0.9828 0.87302 0.0
C198 C 0.49181 0.98672 0.95251 0.0
C199 C 0.47185 0.96924 0.0143 0.0
C200 C 0.4433 0.94769 0.99359 0.0
C201 C 0.43518 0.94342 0.91107 0.0
C202 C 0.4561 0.96134 0.85212 0.0
H203 H 0.5137 0.00332 0.96879 0.0
O204 O 0.48918 0.06563 0.84188 0.0
O205 O 0.4904 0.02921 0.78305 0.0
O206 O 0.54728 0.07447 0.82554 0.0
O207 O 0.53982 0.02936 0.84159 0.0
C208 C 0.40711 0.92218 0.88499 0.0
C209 C 0.40054 0.91909 0.80076 0.0
H210 H 0.39595 0.91961 0.63376 0.0
H211 H 0.43587 0.95342 0.53872 0.0
H212 H 0.47837 0.97251 0.07778 0.0
H213 H 0.42787 0.93444 0.04149 0.0
H214 H 0.3904 0.90813 0.9292 0.0
H215 H 0.37885 0.90274 0.78148 0.0
Mn216 Mn 0.75581 0.97816 0.60005 0.0
Mn217 Mn 0.6874 0.92117 0.58646 0.0
C218 C 0.72314 0.98129 0.51486 0.0
C219 C 0.78579 0.01924 0.67855 0.0
C220 C 0.7389 0.92557 0.48946 0.0
O221 O 0.7537 0.95249 0.69328 0.0
O222 O 0.7076 0.91567 0.68235 0.0
C223 C 0.6643 0.93302 0.73858 0.0
N224 N 0.663 0.92917 0.6559 0.0
C225 C 0.62279 0.93791 0.64646 0.0
C226 C 0.62355 0.94177 0.73158 0.0
C227 C 0.64443 0.93935 0.77781 0.0
C228 C 0.64312 0.93161 0.61079 0.0
H229 H 0.68045 0.93139 0.77426 0.0
C230 C 0.73268 0.92813 0.71702 0.0
O231 O 0.79747 0.00776 0.63257 0.0
O232 O 0.75761 0.00694 0.6782 0.0
N233 N 0.66499 0.923 0.49808 0.0
C234 C 0.66682 0.91811 0.41683 0.0
C235 C 0.64758 0.91991 0.36194 0.0
C236 C 0.62645 0.92635 0.39128 0.0
C237 C 0.62442 0.93044 0.47549 0.0
C238 C 0.64406 0.92818 0.5273 0.0
H239 H 0.68306 0.9132 0.39399 0.0
O240 O 0.75103 0.99966 0.50829 0.0
O241 O 0.71509 0.96255 0.57491 0.0
O242 O 0.75884 0.95033 0.5165 0.0
O243 O 0.71187 0.91302 0.51225 0.0
C244 C 0.60369 0.93666 0.51006 0.0
C245 C 0.60287 0.94038 0.5955 0.0
H246 H 0.60834 0.94677 0.76202 0.0
H247 H 0.64526 0.94245 0.84348 0.0
H248 H 0.64913 0.91649 0.29712 0.0
H249 H 0.61179 0.92794 0.34868 0.0
H250 H 0.58828 0.93863 0.4715 0.0
H251 H 0.58687 0.94519 0.62141 0.0
Mn252 Mn 0.18255 0.82491 0.63854 0.0
Mn253 Mn 0.19327 0.89185 0.66087 0.0
C254 C 0.1487 0.83132 0.71585 0.0
C255 C 0.16528 0.78409 0.55547 0.0
C256 C 0.22523 0.869 0.75955 0.0
O257 O 0.21398 0.84806 0.55195 0.0
O258 O 0.21761 0.89109 0.5692 0.0
C259 C 0.16715 0.89467 0.50477 0.0
N260 N 0.16852 0.89706 0.58791 0.0
C261 C 0.13916 0.91944 0.58943 0.0
C262 C 0.13722 0.91714 0.50379 0.0
C263 C 0.15093 0.90429 0.46137 0.0
C264 C 0.15412 0.90788 0.62967 0.0
H265 H 0.17874 0.88592 0.4719 0.0
C266 C 0.22493 0.87457 0.53353 0.0
O267 O 0.18533 0.78999 0.6096 0.0
O268 O 0.15505 0.80144 0.5517 0.0
N269 N 0.17211 0.89779 0.74684 0.0
C270 C 0.17761 0.89983 0.82864 0.0
C271 C 0.16646 0.91309 0.87989 0.0
C272 C 0.15108 0.92543 0.84589 0.0
C273 C 0.14594 0.92339 0.76133 0.0
C274 C 0.15652 0.90883 0.71387 0.0
H275 H 0.19117 0.89218 0.85424 0.0
O276 O 0.15016 0.80803 0.7223 0.0
O277 O 0.16627 0.84987 0.66061 0.0
O278 O 0.21297 0.84353 0.73008 0.0
O279 O 0.21934 0.88828 0.73798 0.0
C280 C 0.13231 0.93669 0.72147 0.0
C281 C 0.12818 0.93402 0.636 0.0
H282 H 0.12566 0.92555 0.46992 0.0
H283 H 0.14973 0.90261 0.39526 0.0
H284 H 0.17081 0.9149 0.9449 0.0
H285 H 0.14401 0.93706 0.88514 0.0
H286 H 0.12511 0.94929 0.75557 0.0
H287 H 0.11728 0.94399 0.60644 0.0
Mn288 Mn 0.32966 0.40104 0.60786 0.0
Mn289 Mn 0.26387 0.34012 0.60153 0.0
C290 C 0.32406 0.35896 0.66699 0.0
C291 C 0.37272 0.43201 0.53581 0.0
C292 C 0.2787 0.38706 0.72606 0.0
O293 O 0.30761 0.41124 0.52597 0.0
O294 O 0.2655 0.36875 0.52067 0.0
C295 C 0.2711 0.32245 0.4352 0.0
N296 N 0.26515 0.31638 0.51668 0.0
C297 C 0.25223 0.26707 0.49696 0.0
C298 C 0.25819 0.27268 0.41273 0.0
C299 C 0.268 0.3006 0.38186 0.0
C300 C 0.25703 0.29003 0.54751 0.0
H301 H 0.27793 0.34371 0.41116 0.0
C302 C 0.28215 0.395 0.49785 0.0
O303 O 0.36399 0.44143 0.59705 0.0
O304 O 0.35728 0.4048 0.51926 0.0
N305 N 0.25768 0.30981 0.6749 0.0
C306 C 0.25201 0.30788 0.75712 0.0
C307 C 0.24046 0.28111 0.79718 0.0
C308 C 0.23404 0.25649 0.75185 0.0
C309 C 0.24048 0.25902 0.66747 0.0
C310 C 0.25242 0.28636 0.63114 0.0
H311 H 0.25535 0.3264 0.79144 0.0
O312 O 0.34627 0.38413 0.68375 0.0
O313 O 0.30657 0.35899 0.61127 0.0
O314 O 0.30542 0.40408 0.70358 0.0
O315 O 0.26134 0.3632 0.6913 0.0
C316 C 0.2341 0.2353 0.61715 0.0
C317 C 0.24074 0.23943 0.53238 0.0
H318 H 0.25504 0.25567 0.37113 0.0
H319 H 0.2726 0.30511 0.31694 0.0
H320 H 0.23543 0.27926 0.86224 0.0
H321 H 0.22333 0.23568 0.7823 0.0
H322 H 0.22388 0.2137 0.64269 0.0
H323 H 0.23613 0.22107 0.49468 0.0
Mn324 Mn 0.7418 0.82018 0.09057 0.0
Mn325 Mn 0.81 0.87826 0.09338 0.0
C326 C 0.7777 0.81683 0.15883 0.0
C327 C 0.70895 0.78075 0.01182 0.0
C328 C 0.76126 0.87087 0.20999 0.0
O329 O 0.7402 0.84715 0.00776 0.0
O330 O 0.78682 0.8836 0.00535 0.0
C331 C 0.82923 0.86778 0.93226 0.0
N332 N 0.83289 0.87136 0.01476 0.0
C333 C 0.87315 0.86248 0.00971 0.0
C334 C 0.86998 0.85896 0.9246 0.0
C335 C 0.84792 0.86161 0.88574 0.0
C336 C 0.85396 0.86871 0.0528 0.0
H337 H 0.81206 0.86942 0.90226 0.0
C338 C 0.76038 0.87118 0.97929 0.0
O339 O 0.69926 0.79073 0.06934 0.0
O340 O 0.73704 0.79318 1.0018 0.0
N341 N 0.83518 0.87658 0.17355 0.0
C342 C 0.83587 0.88146 0.2557 0.0
C343 C 0.85681 0.87977 0.30366 0.0
C344 C 0.87698 0.87338 0.26656 0.0
C345 C 0.87647 0.86941 0.18152 0.0
C346 C 0.85535 0.87175 0.13676 0.0
H347 H 0.82035 0.88625 0.28458 0.0
O348 O 0.75028 0.79752 0.17004 0.0
O349 O 0.78337 0.83655 0.10314 0.0
O350 O 0.7413 0.84587 0.18482 0.0
O351 O 0.78709 0.88518 0.17772 0.0
C352 C 0.89602 0.86315 0.13944 0.0
C353 C 0.89432 0.85963 0.05361 0.0
H354 H 0.88424 0.85403 0.88856 0.0
H355 H 0.84521 0.85874 0.82015 0.0
H356 H 0.85725 0.88314 0.36914 0.0
H357 H 0.89288 0.87177 0.30388 0.0
H358 H 0.9124 0.86094 0.1725 0.0
H359 H 0.90936 0.85465 0.02201 0.0
Mn360 Mn 0.3371 0.97685 0.12999 0.0
Mn361 Mn 0.26979 0.96917 0.13318 0.0
C362 C 0.33067 0.01302 0.18809 0.0
C363 C 0.37973 0.98928 0.05521 0.0
C364 C 0.28862 0.93876 0.25241 0.0
O365 O 0.31427 0.94341 0.05209 0.0
O366 O 0.27153 0.94285 0.05173 0.0
C367 C 0.27192 0.99234 0.96725 0.0
N368 N 0.26801 0.99303 0.04974 0.0
C369 C 0.25146 0.02687 0.03417 0.0
C370 C 0.25538 0.02667 0.94897 0.0
C371 C 0.26597 0.00955 0.91543 0.0
C372 C 0.25906 0.0103 0.0829 0.0
H373 H 0.27919 0.9785 0.94125 0.0
C374 C 0.28816 0.93341 0.02779 0.0
O375 O 0.37186 0.97174 0.11762 0.0
O376 O 0.36343 1.00013 0.03781 0.0
N377 N 0.26352 0.9926 0.2089 0.0
C378 C 0.25925 0.98889 0.29161 0.0
C379 C 0.24769 0.00356 0.33463 0.0
C380 C 0.23941 0.02087 0.29169 0.0
C381 C 0.24367 0.02413 0.20638 0.0
C382 C 0.25617 0.0097 0.16717 0.0
H383 H 0.26402 0.9743 0.3243 0.0
O384 O 0.35381 0.01133 0.20251 0.0
O385 O 0.31258 0.99438 0.1356 0.0
O386 O 0.31538 0.95027 0.22854 0.0
O387 O 0.26995 0.94413 0.22079 0.0
C388 C 0.23453 0.03978 0.15809 0.0
C389 C 0.23914 0.04182 0.07238 0.0
H390 H 0.24997 0.03927 0.9087 0.0
H391 H 0.2689 0.00914 0.84974 0.0
H392 H 0.24415 1.00069 0.40032 0.0
H393 H 0.22901 0.0308 0.32474 0.0
H394 H 0.22346 0.04998 0.18579 0.0
H395 H 0.23229 0.05421 0.03624 0.0
Mn396 Mn 0.1849 0.41627 0.10728 0.0
Mn397 Mn 0.17616 0.35104 0.15147 0.0
C398 C 0.14822 0.38612 0.198 0.0
C399 C 0.17315 0.44116 0.01026 0.0
C400 C 0.22235 0.40647 0.23063 0.0
O401 O 0.21056 0.41204 0.0222 0.0
O402 O 0.20074 0.36699 0.04952 0.0
C403 C 0.13931 0.3205 0.00932 0.0
N404 N 0.14301 0.32303 0.09196 0.0
C405 C 0.09426 0.28279 0.11688 0.0
C406 C 0.09003 0.27959 0.03201 0.0
C407 C 0.11264 0.29857 0.97802 0.0
C408 C 0.12131 0.30505 0.14445 0.0
H409 H 0.15653 0.33522 0.96764 0.0
C410 C 0.21339 0.39041 0.00706 0.0
O411 O 0.19549 0.45522 0.0582 0.0
O412 O 0.15802 0.41356 0.02059 0.0
N413 N 0.15301 0.33259 0.24787 0.0
C414 C 0.16101 0.33794 0.32785 0.0
C415 C 0.14088 0.32087 0.38985 0.0
C416 C 0.11292 0.29818 0.3689 0.0
C417 C 0.10561 0.29236 0.28605 0.0
C418 C 0.12669 0.30995 0.22699 0.0
H419 H 0.18255 0.35513 0.34422 0.0
O420 O 0.1563 0.41321 0.1931 0.0
O421 O 0.16081 0.3772 0.1461 0.0
O422 O 0.21573 0.42407 0.19689 0.0
O423 O 0.20957 0.37939 0.21584 0.0
C424 C 0.07825 0.2698 0.25973 0.0
C425 C 0.07255 0.26505 0.17521 0.0
H426 H 0.06944 0.26278 0.00764 0.0
H427 H 0.10947 0.29637 0.91245 0.0
H428 H 0.14687 0.32526 0.4536 0.0
H429 H 0.09736 0.28521 0.41687 0.0
H430 H 0.06141 0.25598 0.30398 0.0
H431 H 0.05137 0.24775 0.15572 0.0
Mn432 Mn 0.422 0.31182 0.87108 0.0
Mn433 Mn 0.3618 0.24579 0.85529 0.0
C434 C 0.38133 0.30665 0.80032 0.0
C435 C 0.44881 0.35272 0.9533 0.0
C436 C 0.41647 0.26628 0.74942 0.0
O437 O 0.42926 0.2877 0.95389 0.0
O438 O 0.38645 0.24584 0.94569 0.0
C439 C 0.33295 0.24497 0.0127 0.0
N440 N 0.33208 0.24248 0.92959 0.0
C441 C 0.28031 0.225 0.92946 0.0
C442 C 0.28055 0.22745 0.01511 0.0
C443 C 0.30709 0.23784 0.05682 0.0
C444 C 0.30703 0.23382 0.88856 0.0
H445 H 0.35316 0.25201 0.04495 0.0
C446 C 0.41187 0.26162 0.97587 0.0
O447 O 0.46171 0.34621 0.8958 0.0
O448 O 0.42065 0.33589 0.9611 0.0
N449 N 0.33531 0.24107 0.77048 0.0
C450 C 0.33871 0.23883 0.68835 0.0
C451 C 0.31421 0.22805 0.63768 0.0
C452 C 0.28629 0.21844 0.67247 0.0
C453 C 0.28325 0.22065 0.75732 0.0
C454 C 0.30862 0.23258 0.80431 0.0
H455 H 0.35984 0.24459 0.66188 0.0
O456 O 0.40705 0.32963 0.79185 0.0
O457 O 0.37974 0.2879 0.85409 0.0
O458 O 0.43114 0.29222 0.77546 0.0
O459 O 0.39102 0.2475 0.77645 0.0
C460 C 0.25592 0.21007 0.79774 0.0
C461 C 0.25449 0.21299 0.88338 0.0
H462 H 0.26046 0.2211 0.04951 0.0
H463 H 0.30745 0.23966 0.12293 0.0
H464 H 0.31668 0.22614 0.57239 0.0
H465 H 0.26732 0.2087 0.63358 0.0
H466 H 0.23576 0.19936 0.76378 0.0
H467 H 0.23333 0.20517 0.9134 0.0
Mn468 Mn 0.85318 0.15649 0.98946 0.0
Mn469 Mn 0.86291 0.22308 0.01101 0.0
C470 C 0.81877 0.16255 0.06486 0.0
C471 C 0.83649 0.11622 0.90332 0.0
C472 C 0.8955 0.20102 0.11041 0.0
O473 O 0.88522 0.18022 0.90523 0.0
O474 O 0.88725 0.22277 0.91849 0.0
C475 C 0.83592 0.22567 0.85624 0.0
N476 N 0.83739 0.22766 0.93944 0.0
C477 C 0.80549 0.24723 0.94414 0.0
C478 C 0.80342 0.24531 0.85847 0.0
C479 C 0.81843 0.23412 0.8144 0.0
C480 C 0.822 0.23708 0.98268 0.0
H481 H 0.84833 0.21808 0.82218 0.0
C482 C 0.89551 0.20652 0.8854 0.0
O483 O 0.85602 0.12156 0.95876 0.0
O484 O 0.82639 0.13365 0.90042 0.0
N485 N 0.84139 0.22786 0.09822 0.0
C486 C 0.84626 0.22879 0.18024 0.0
C487 C 0.8336 0.24018 0.23314 0.0
C488 C 0.81702 0.25148 0.20076 0.0
C489 C 0.81223 0.25022 0.11608 0.0
C490 C 0.82454 0.23769 0.06679 0.0
H491 H 0.86039 0.22166 0.2048 0.0
O492 O 0.81999 0.13912 0.07129 0.0
O493 O 0.83677 0.1812 0.01073 0.0
O494 O 0.88301 0.17519 0.08305 0.0
O495 O 0.88964 0.22013 0.08678 0.0
C496 C 0.79706 0.26222 0.07804 0.0
C497 C 0.79294 0.25999 0.9925 0.0
H498 H 0.79072 0.2527 0.82584 0.0
H499 H 0.81712 0.23273 0.74826 0.0
H500 H 0.83755 0.24126 0.29831 0.0
H501 H 0.80869 0.26165 0.24142 0.0
H502 H 0.78858 0.27341 0.11371 0.0
H503 H 0.78076 0.26886 0.96434 0.0
Mn504 Mn 0.99565 0.73586 0.90936 0.0
Mn505 Mn 0.99708 0.79905 0.90737 0.0
C506 C 0.03511 0.7764 0.84656 0.0
C507 C 0.00508 0.70348 0.9785 0.0
C508 C 0.96127 0.75093 0.78834 0.0
O509 O 0.96364 0.72865 0.99398 0.0
O510 O 0.96807 0.77224 0.98956 0.0
C511 C 0.02137 0.81738 0.07317 0.0
N512 N 0.02283 0.82273 0.99107 0.0
C513 C 0.06286 0.87122 0.0076 0.0
C514 C 0.06186 0.86634 0.09238 0.0
C515 C 0.04122 0.83916 0.12519 0.0
C516 C 0.04339 0.84829 0.95849 0.0
H517 H 0.00505 0.79674 0.09877 0.0
C518 C 0.95619 0.74657 0.01834 0.0
O519 O 0.98596 0.69477 0.92041 0.0
O520 O 0.01868 0.73071 0.99592 0.0
N521 N 0.02397 0.82788 0.83217 0.0
C522 C 0.02157 0.82915 0.74943 0.0
C523 C 0.04001 0.85508 0.70716 0.0
C524 C 0.05993 0.87964 0.7508 0.0
C525 C 0.062 0.87782 0.83599 0.0
C526 C 0.04363 0.85121 0.87445 0.0
H527 H 0.0053 0.81069 0.71619 0.0
O528 O 0.02971 0.75056 0.83055 0.0
O529 O 0.01808 0.77792 0.90234 0.0
O530 O 0.96869 0.73327 0.81576 0.0
O531 O 0.97053 0.77598 0.81865 0.0
C532 C 0.0805 0.90163 0.88489 0.0
C533 C 0.0816 0.89818 0.9702 0.0
H534 H 0.07663 0.88336 0.13287 0.0
H535 H 0.04025 0.8352 0.19055 0.0
H536 H 0.0382 0.8564 0.64149 0.0
H537 H 0.07295 0.89988 0.71835 0.0
H538 H 0.0936 0.92285 0.85803 0.0
H539 H 0.09632 0.91662 0.00671 0.0
Mn540 Mn 0.42285 0.1601 0.37312 0.0
Mn541 Mn 0.3623 0.16526 0.36105 0.0
C542 C 0.38199 0.12453 0.30441 0.0
C543 C 0.44929 0.14499 0.45293 0.0
C544 C 0.41537 0.19886 0.24979 0.0
O545 O 0.43045 0.19085 0.45736 0.0
O546 O 0.38885 0.19201 0.44536 0.0
C547 C 0.33775 0.14045 0.52497 0.0
N548 N 0.33472 0.14024 0.44216 0.0
C549 C 0.28359 0.10413 0.45294 0.0
C550 C 0.28605 0.10386 0.5384 0.0
C551 C 0.31336 0.12188 0.5745 0.0
C552 C 0.30894 0.12214 0.40658 0.0
H553 H 0.35854 0.15485 0.55294 0.0
C554 C 0.41398 0.20084 0.47663 0.0
O555 O 0.46253 0.1649 0.39673 0.0
O556 O 0.42125 0.13408 0.46097 0.0
N557 N 0.33395 0.14121 0.28276 0.0
C558 C 0.33528 0.14457 0.19974 0.0
C559 C 0.30968 0.12883 0.15419 0.0
C560 C 0.28285 0.11058 0.19476 0.0
C561 C 0.28203 0.10736 0.2803 0.0
C562 C 0.30839 0.12303 0.32217 0.0
H563 H 0.35557 0.15971 0.16876 0.0
O564 O 0.40786 0.12788 0.2929 0.0
O565 O 0.38056 0.14147 0.35918 0.0
O566 O 0.43128 0.18929 0.27862 0.0
O567 O 0.38947 0.19108 0.27566 0.0
C568 C 0.25594 0.09031 0.32617 0.0
C569 C 0.25681 0.08807 0.41212 0.0
H570 H 0.26709 0.09013 0.5769 0.0
H571 H 0.31546 0.12188 0.64041 0.0
H572 H 0.31043 0.13152 0.08827 0.0
H573 H 0.26298 0.09971 0.15961 0.0
H574 H 0.23497 0.079 0.29635 0.0
H575 H 0.23664 0.0745 0.44638 0.0
Mn576 Mn 1.00287 0.31242 0.4843 0.0
Mn577 Mn 0.93341 0.29869 0.49505 0.0
C578 C 0.99324 0.34522 0.55104 0.0
C579 C 0.04553 0.32934 0.40578 0.0
C580 C 0.95693 0.26961 0.60372 0.0
O581 O 0.98131 0.27928 0.40412 0.0
O582 O 0.93736 0.27628 0.40467 0.0
C583 C 0.93221 0.32548 0.33798 0.0
N584 N 0.92853 0.3233 0.42098 0.0
C585 C 0.90723 0.35351 0.42104 0.0
C586 C 0.91089 0.35628 0.3355 0.0
C587 C 0.92376 0.34246 0.29389 0.0
C588 C 0.9174 0.33749 0.46197 0.0
H589 H 0.94121 0.31407 0.30579 0.0
C590 C 0.95517 0.26846 0.37895 0.0
O591 O 0.03959 0.31113 0.4656 0.0
O592 O 0.02717 0.33809 0.3927 0.0
N593 N 0.92498 0.3179 0.57994 0.0
C594 C 0.92147 0.31156 0.6617 0.0
C595 C 0.9075 0.32229 0.71189 0.0
C596 C 0.89629 0.33848 0.677 0.0
C597 C 0.90018 0.34483 0.59271 0.0
C598 C 0.91494 0.33414 0.54609 0.0
H599 H 0.92852 0.29771 0.68814 0.0
O600 O 0.01779 0.34572 0.56076 0.0
O601 O 0.97566 0.32663 0.49756 0.0
O602 O 0.98385 0.28426 0.58112 0.0
O603 O 0.93657 0.27272 0.57358 0.0
C604 C 0.88854 0.35989 0.55228 0.0
C605 C 0.89277 0.36494 0.46692 0.0
H606 H 0.90356 0.36863 0.30109 0.0
H607 H 0.92649 0.34432 0.22786 0.0
H608 H 0.90435 0.31713 0.77676 0.0
H609 H 0.88392 0.34509 0.71531 0.0
H610 H 0.87601 0.36744 0.58598 0.0
H611 H 0.88401 0.37686 0.43686 0.0
Mn612 Mn 0.8419 0.73547 0.41108 0.0
Mn613 Mn 0.83299 0.66885 0.41914 0.0
C614 C 0.80379 0.70027 0.48912 0.0
C615 C 0.83387 0.768 0.33701 0.0
C616 C 0.87807 0.71899 0.52006 0.0
O617 O 0.86855 0.73602 0.32062 0.0
O618 O 0.85863 0.69021 0.32155 0.0
C619 C 0.79791 0.64599 0.26915 0.0
N620 N 0.80064 0.64422 0.35154 0.0
C621 C 0.75178 0.60302 0.36376 0.0
C622 C 0.74855 0.60424 0.27892 0.0
C623 C 0.77171 0.62585 0.23145 0.0
C624 C 0.77845 0.6236 0.39784 0.0
H625 H 0.81555 0.66274 0.23256 0.0
C626 C 0.87167 0.71586 0.29103 0.0
O627 O 0.85519 0.7772 0.38876 0.0
O628 O 0.81734 0.74036 0.32918 0.0
N629 N 0.80883 0.64551 0.50888 0.0
C630 C 0.81552 0.64725 0.58983 0.0
C631 C 0.79458 0.62731 0.64583 0.0
C632 C 0.76715 0.60561 0.61792 0.0
C633 C 0.76108 0.60378 0.53403 0.0
C634 C 0.7829 0.6241 0.48102 0.0
H635 H 0.83653 0.66392 0.61172 0.0
O636 O 0.8122 0.72731 0.49885 0.0
O637 O 0.81693 0.69452 0.43001 0.0
O638 O 0.87113 0.73755 0.49701 0.0
O639 O 0.86583 0.69322 0.4924 0.0
C640 C 0.73413 0.58276 0.50102 0.0
C641 C 0.72946 0.58241 0.41597 0.0
H642 H 0.72832 0.58883 0.24967 0.0
H643 H 0.76932 0.62704 0.16602 0.0
H644 H 0.79951 0.62878 0.71042 0.0
H645 H 0.75096 0.59045 0.66141 0.0
H646 H 0.71678 0.56685 0.54055 0.0
H647 H 0.70858 0.56625 0.39138 0.0
C648 C 0.06949 0.53351 0.021 0.0
C649 C 0.07695 0.54528 0.94147 0.0
C650 C 0.07144 0.55065 0.08814 0.0
C651 C 0.08105 0.58017 0.07811 0.0
H652 H 0.0604 0.51055 0.03069 0.0
H653 H 0.06338 0.54028 0.14749 0.0
S654 S 0.10444 0.62145 0.88244 0.0
N655 N 0.09561 0.58831 0.85641 0.0
N656 N 0.09935 0.62064 0.98287 0.0
C657 C 0.09035 0.59256 0.99957 0.0
C658 C 0.0882 0.57503 0.93102 0.0
C659 C 0.58386 0.57514 0.93302 0.0
C660 C 0.57474 0.5905 0.88339 0.0
C661 C 0.5669 0.5587 1.00094 0.0
C662 C 0.54025 0.55719 0.02291 0.0
H663 H 0.60476 0.57654 0.92121 0.0
H664 H 0.5754 0.54805 0.03847 0.0
S665 S 0.50439 0.59021 0.90828 0.0
N666 N 0.53529 0.60038 0.85694 0.0
N667 N 0.50428 0.57037 0.98561 0.0
C668 C 0.53018 0.5713 0.97198 0.0
C669 C 0.54713 0.58764 0.90202 0.0
C670 C 0.60502 0.05416 0.01463 0.0
C671 C 0.61403 0.07934 0.06059 0.0
C672 C 0.58662 0.0477 0.94711 0.0
C673 C 0.57636 0.06613 0.92199 0.0
H674 H 0.61187 0.03899 0.03139 0.0
H675 H 0.57995 0.02768 0.91529 0.0
S676 S 0.59435 0.13557 0.01871 0.0
N677 N 0.61188 0.1235 0.07372 0.0
N678 N 0.57745 0.1112 0.94716 0.0
C679 C 0.58587 0.09183 0.96568 0.0
C680 C 0.60455 0.09842 0.03479 0.0
C681 C 0.58881 0.08131 0.4458 0.0
C682 C 0.60172 0.06466 0.42708 0.0
C683 C 0.56816 0.07353 0.5095 0.0
C684 C 0.55943 0.04877 0.55854 0.0
H685 H 0.59495 0.10093 0.41162 0.0
H686 H 0.55949 0.08765 0.52128 0.0
S687 S 0.58492 0.99636 0.53144 0.0
N688 N 0.60288 0.02103 0.45941 0.0
N689 N 0.56419 0.00655 0.58055 0.0
C690 C 0.57121 0.03113 0.53859 0.0
C691 C 0.59228 0.03903 0.47272 0.0
C692 C 0.05152 0.5483 0.42997 0.0
C693 C 0.06193 0.57803 0.43672 0.0
C694 C 0.05376 0.53259 0.49531 0.0
C695 C 0.06586 0.54588 0.57029 0.0
H696 H 0.04159 0.5371 0.37371 0.0
H697 H 0.04504 0.50963 0.48803 0.0
S698 S 0.09653 0.62308 0.61947 0.0
N699 N 0.08582 0.62037 0.52354 0.0
N700 N 0.0886 0.59032 0.64774 0.0
C701 C 0.07676 0.57559 0.57765 0.0
C702 C 0.07516 0.59181 0.51042 0.0
C703 C 0.59223 0.57877 0.51049 0.0
C704 C 0.59909 0.60772 0.51663 0.0
C705 C 0.57666 0.56158 0.44324 0.0
C706 C 0.56783 0.57293 0.37924 0.0
H707 H 0.59742 0.56882 0.5602 0.0
H708 H 0.56992 0.53889 0.44411 0.0
S709 S 0.58566 0.64904 0.35834 0.0
N710 N 0.59909 0.64777 0.44787 0.0
N711 N 0.57115 0.61619 0.32076 0.0
C712 C 0.57695 0.60255 0.38152 0.0
C713 C 0.59215 0.61974 0.45041 0.0
C714 C 0.77345 0.91391 0.29777 0.0
C715 C 0.7552 0.88409 0.28252 0.0
C716 C 0.769 0.92703 0.36663 0.0
C717 C 0.74611 0.91091 0.4234 0.0
H718 H 0.79121 0.92747 0.2555 0.0
H719 H 0.78303 0.95013 0.37389 0.0
S720 S 0.69404 0.83159 0.4175 0.0
N721 N 0.71463 0.83855 0.33395 0.0
N722 N 0.7063 0.86296 0.46313 0.0
C723 C 0.72829 0.88089 0.41046 0.0
C724 C 0.73277 0.86758 0.34019 0.0
C725 C 0.27031 0.91517 0.47146 0.0
C726 C 0.24579 0.88718 0.46414 0.0
C727 C 0.28647 0.93093 0.40214 0.0
C728 C 0.27823 0.91927 0.32359 0.0
H729 H 0.27592 0.92559 0.53067 0.0
H730 H 0.30387 0.95316 0.40945 0.0
S731 S 0.21744 0.84624 0.27203 0.0
N732 N 0.21566 0.84763 0.37303 0.0
N733 N 0.2456 0.87767 0.24222 0.0
C734 C 0.25502 0.89071 0.31586 0.0
C735 C 0.23891 0.87446 0.38649 0.0
C736 C 0.28375 0.41156 0.3538 0.0
C737 C 0.27135 0.40636 0.43327 0.0
C738 C 0.2696 0.41573 0.28733 0.0
C739 C 0.24313 0.4157 0.29878 0.0
H740 H 0.30309 0.40996 0.34185 0.0
H741 H 0.27804 0.41651 0.22585 0.0
S742 S 0.204 0.40672 0.49671 0.0
N743 N 0.23263 0.40381 0.52096 0.0
N744 N 0.20683 0.41297 0.39682 0.0
C745 C 0.23219 0.41329 0.37918 0.0
C746 C 0.24606 0.40819 0.44631 0.0
C747 C 0.24981 0.37975 0.94169 0.0
C748 C 0.23232 0.39251 0.93667 0.0
C749 C 0.26698 0.38036 0.87453 0.0
C750 C 0.26694 0.39342 0.79996 0.0
H751 H 0.24995 0.36891 0.99755 0.0
H752 H 0.27937 0.36943 0.87981 0.0
S753 S 0.22495 0.42962 0.75449 0.0
N754 N 0.21652 0.4191 0.85124 0.0
N755 N 0.24818 0.41931 0.72433 0.0
C756 C 0.2501 0.40673 0.79441 0.0
C757 C 0.23295 0.40655 0.86308 0.0
C758 C 0.77325 0.91314 0.88426 0.0
C759 C 0.75256 0.88528 0.91302 0.0
C760 C 0.76638 0.92683 0.82242 0.0
C761 C 0.73846 0.91335 0.78592 0.0
H762 H 0.79507 0.9246 0.9096 0.0
H763 H 0.78338 0.94821 0.80274 0.0
S764 S 0.67605 0.84043 0.83916 0.0
N765 N 0.70257 0.84467 0.89994 0.0
N766 N 0.68985 0.87044 0.78431 0.0
C767 C 0.71744 0.88557 0.81444 0.0
C768 C 0.72442 0.87156 0.87754 0.0
C769 C 0.28968 0.9163 0.88731 0.0
C770 C 0.27624 0.91075 0.96534 0.0
C771 C 0.27402 0.89969 0.81985 0.0
C772 C 0.24491 0.87671 0.82928 0.0
H773 H 0.31113 0.93526 0.87681 0.0
H774 H 0.28371 0.90653 0.75904 0.0
S775 S 0.20195 0.85091 0.02333 0.0
N776 N 0.23366 0.87895 0.05005 0.0
N777 N 0.2047 0.84719 0.92361 0.0
C778 C 0.2326 0.86907 0.90841 0.0
C779 C 0.24819 0.88631 0.97656 0.0
C780 C 0.43124 0.2335 0.68731 0.0
C781 C 0.42696 0.25714 0.67826 0.0
C782 C 0.42982 0.21673 0.61966 0.0
C783 C 0.42315 0.22263 0.54159 0.0
H784 H 0.43337 0.22659 0.74797 0.0
H785 H 0.43137 0.19763 0.62982 0.0
S786 S 0.41318 0.28379 0.48448 0.0
N787 N 0.41891 0.28731 0.58421 0.0
N788 N 0.41511 0.25518 0.45742 0.0
C789 C 0.4209 0.24736 0.53087 0.0
C790 C 0.42314 0.26483 0.59925 0.0
C791 C 0.90895 0.20638 0.73929 0.0
C792 C 0.91668 0.219 0.81699 0.0
C793 C 0.9244 0.22205 0.66904 0.0
C794 C 0.94841 0.25036 0.67512 0.0
H795 H 0.88932 0.18545 0.73208 0.0
H796 H 0.91619 0.21287 0.60937 0.0
S797 S 0.97968 0.29112 0.8658 0.0
N798 N 0.95141 0.26001 0.89712 0.0
N799 N 0.98106 0.28909 0.76491 0.0
C800 C 0.95807 0.26198 0.75301 0.0
C801 C 0.94197 0.24635 0.82424 0.0
C802 C 0.93082 0.76086 0.69147 0.0
C803 C 0.9408 0.74236 0.71796 0.0
C804 C 0.91114 0.75342 0.62678 0.0
C805 C 0.90045 0.72711 0.58518 0.0
H806 H 0.93799 0.7813 0.72143 0.0
H807 H 0.90396 0.76834 0.61027 0.0
S808 S 0.92086 0.67149 0.62689 0.0
N809 N 0.9392 0.69687 0.69484 0.0
N810 N 0.90241 0.68289 0.57334 0.0
C811 C 0.91069 0.70859 0.6098 0.0
C812 C 0.93075 0.71619 0.67595 0.0
C813 C 0.90196 0.7044 0.19355 0.0
C814 C 0.89182 0.72299 0.21836 0.0
C815 C 0.92233 0.71181 0.12816 0.0
C816 C 0.93332 0.73807 0.08456 0.0
H817 H 0.89463 0.68421 0.22593 0.0
H818 H 0.92986 0.69702 0.11273 0.0
S819 S 0.91206 0.79349 0.12076 0.0
N820 N 0.89337 0.76831 0.19068 0.0
N821 N 0.93098 0.78197 0.06858 0.0
C822 C 0.92262 0.75643 0.10728 0.0
C823 C 0.90209 0.74898 0.17379 0.0
C824 C 0.43168 0.24648 0.18453 0.0
C825 C 0.42503 0.2177 0.17682 0.0
C826 C 0.43 0.26181 0.11692 0.0
C827 C 0.4207 0.24841 0.04045 0.0
H828 H 0.436 0.25641 0.24441 0.0
H829 H 0.43358 0.28331 0.12625 0.0
S830 S 0.40325 0.17433 0.98742 0.0
N831 N 0.41137 0.17739 0.08568 0.0
N832 N 0.40731 0.20571 0.95924 0.0
C833 C 0.41585 0.22032 0.031 0.0
C834 C 0.41825 0.20507 0.09915 0.0
C835 C 0.95821 0.25121 0.23911 0.0
C836 C 0.94416 0.24576 0.31625 0.0
C837 C 0.94362 0.23353 0.1721 0.0
C838 C 0.91498 0.20956 0.18102 0.0
H839 H 0.97925 0.27069 0.22865 0.0
H840 H 0.9536 0.24024 0.11155 0.0
S841 S 0.87096 0.1838 0.37341 0.0
N842 N 0.90169 0.21306 0.40012 0.0
N843 N 0.87476 0.17949 0.27462 0.0
C844 C 0.90225 0.20218 0.25975 0.0
C845 C 0.91671 0.22047 0.32736 0.0
C846 C 0.11771 0.72894 0.39839 0.0
C847 C 0.13033 0.71156 0.38804 0.0
C848 C 0.12943 0.75221 0.45208 0.0
C849 C 0.15424 0.75915 0.49893 0.0
H850 H 0.09824 0.72438 0.36506 0.0
H851 H 0.11851 0.7646 0.45754 0.0
S852 S 0.19615 0.72081 0.49335 0.0
N853 N 0.16947 0.7031 0.42747 0.0
N854 N 0.19168 0.74705 0.5298 0.0
C855 C 0.16752 0.74226 0.48847 0.0
C856 C 0.1556 0.71849 0.43253 0.0
C857 C 0.45107 0.48187 0.46381 0.0
C858 C 0.44844 0.48018 0.37798 0.0
C859 C 0.42613 0.46808 0.51562 0.0
C860 C 0.39804 0.45118 0.48278 0.0
H861 H 0.47261 0.49325 0.4909 0.0
H862 H 0.429 0.46914 0.5814 0.0
S863 S 0.37959 0.43929 0.26253 0.0
N864 N 0.41567 0.46042 0.26284 0.0
N865 N 0.36889 0.43395 0.35981 0.0
C866 C 0.39515 0.44976 0.39718 0.0
C867 C 0.42037 0.46427 0.34475 0.0
C868 C 0.70547 0.98746 0.38009 0.0
C869 C 0.70315 0.9868 0.4663 0.0
C870 C 0.69343 1.00049 0.332 0.0
C871 C 0.67981 0.01436 0.36897 0.0
H872 H 0.71794 0.97905 0.3499 0.0
H873 H 0.69687 1.00171 0.26613 0.0
S874 S 0.6678 0.01846 0.59184 0.0
N875 N 0.68529 1.00032 0.58608 0.0
N876 N 0.66361 0.0257 0.49623 0.0
C877 C 0.67644 0.01295 0.45479 0.0
C878 C 0.688 0.99906 0.50344 0.0
C879 C 0.75853 0.14582 0.21806 0.0
C880 C 0.73405 0.13488 0.16675 0.0
C881 C 0.78728 0.15881 0.18494 0.0
C882 C 0.7926 0.16235 0.09966 0.0
H883 H 0.7553 0.14105 0.28322 0.0
H884 H 0.80515 0.16357 0.22573 0.0
S885 S 0.73647 0.14171 0.9402 0.0
N886 N 0.71734 0.13084 0.02709 0.0
N887 N 0.77134 0.15751 0.96587 0.0
C888 C 0.76863 0.15493 0.04887 0.0
C889 C 0.73933 0.14058 0.08215 0.0
C890 C 0.00813 0.68039 0.10738 0.0
C891 C 0.01229 0.6839 0.02189 0.0
C892 C 0.02007 0.66666 0.15259 0.0
C893 C 0.03694 0.65649 0.11371 0.0
H894 H 0.99663 0.68939 0.13986 0.0
H895 H 0.01768 0.66564 0.2188 0.0
S896 S 0.0538 0.66013 0.89126 0.0
N897 N 0.03324 0.67509 0.89978 0.0
N898 N 0.05698 0.65064 0.98521 0.0
C899 C 0.04064 0.65932 0.02813 0.0
C900 C 0.02782 0.67254 0.98195 0.0
C901 C 0.44865 0.38153 0.07252 0.0
C902 C 0.46469 0.37789 0.00882 0.0
C903 C 0.46144 0.40584 0.12249 0.0
C904 C 0.49097 0.42769 0.11197 0.0
H905 H 0.42561 0.36586 0.08279 0.0
H906 H 0.44764 0.40804 0.16829 0.0
S907 S 0.54362 0.42799 0.95911 0.0
N908 N 0.5126 0.3976 0.94145 0.0
N909 N 0.53661 0.44359 0.03641 0.0
C910 C 0.50792 0.42386 0.05173 0.0
C911 C 0.49477 0.39892 0.99989 0.0
C912 C 0.99864 0.39366 0.53571 0.0
C913 C 0.99067 0.36939 0.58594 0.0
C914 C 0.01113 0.42156 0.56921 0.0
C915 C 0.01512 0.42607 0.65429 0.0
H916 H 0.99877 0.39163 0.46963 0.0
H917 H 0.02033 0.43996 0.52769 0.0
S918 S 0.99298 0.36917 0.81303 0.0
N919 N 0.98476 0.35147 0.72557 0.0
N920 N 0.00608 0.40343 0.7884 0.0
C921 C 0.00363 0.4016 0.70553 0.0
C922 C 0.99196 0.37336 0.67137 0.0
C923 C 0.72439 0.64766 0.54123 0.0
C924 C 0.72365 0.65031 0.62695 0.0
C925 C 0.7511 0.66151 0.49665 0.0
C926 C 0.77786 0.67861 0.5365 0.0
H927 H 0.70405 0.63675 0.50781 0.0
H928 H 0.75059 0.66075 0.43029 0.0
S929 S 0.78781 0.691 0.76011 0.0
N930 N 0.75199 0.66971 0.75015 0.0
N931 N 0.80209 0.6963 0.66651 0.0
C932 C 0.77746 0.68012 0.62244 0.0
C933 C 0.75037 0.66568 0.66774 0.0
C934 C 0.44681 0.10902 0.553 0.0
C935 C 0.46435 0.13433 0.50667 0.0
C936 C 0.45916 0.09761 0.60497 0.0
C937 C 0.4897 0.11098 0.61411 0.0
H938 H 0.4231 0.09747 0.54864 0.0
H939 H 0.44441 0.07784 0.63813 0.0
S940 S 0.54576 0.17816 0.50889 0.0
N941 N 0.51417 0.17291 0.47443 0.0
N942 N 0.53749 0.15129 0.57359 0.0
C943 C 0.50774 0.13665 0.56976 0.0
C944 C 0.49505 0.14829 0.51551 0.0
C945 C 0.40291 0.99148 0.91969 0.0
C946 C 0.40585 0.9966 0.00451 0.0
C947 C 0.42768 1.00262 0.86748 0.0
C948 C 0.45605 0.01958 0.89858 0.0
H949 H 0.38128 0.97977 0.8932 0.0
H950 H 0.42454 0.99961 0.80195 0.0
S951 S 0.47537 0.0385 0.11611 0.0
N952 N 0.43916 0.01827 0.11775 0.0
N953 N 0.48572 0.04062 0.01904 0.0
C954 C 0.45923 0.02413 0.98349 0.0
C955 C 0.4341 0.01211 0.03681 0.0
C956 C 0.15441 0.49331 0.90662 0.0
C957 C 0.13537 0.47597 0.84459 0.0
C958 C 0.16854 0.48292 0.95732 0.0
C959 C 0.16384 0.45485 0.94748 0.0
H960 H 0.15692 0.51422 0.91933 0.0
H961 H 0.18164 0.49617 0.00748 0.0
S962 S 0.1192 0.40292 0.78567 0.0
N963 N 0.11481 0.43088 0.77106 0.0
N964 N 0.14155 0.41152 0.86381 0.0
C965 C 0.14651 0.43834 0.88145 0.0
C966 C 0.13214 0.44883 0.83078 0.0
C967 C 0.66206 0.70368 0.94341 0.0
C968 C 0.66672 0.70619 0.85782 0.0
C969 C 0.67302 0.72828 0.99321 0.0
C970 C 0.68988 0.75612 0.95909 0.0
H971 H 0.65079 0.68252 0.97232 0.0
H972 H 0.67026 0.72543 0.05913 0.0
S973 S 0.7089 0.77433 0.73905 0.0
N974 N 0.68921 0.73869 0.74154 0.0
N975 N 0.71019 0.78484 0.83482 0.0
C976 C 0.69395 0.75888 0.87347 0.0
C977 C 0.68243 0.73393 0.82287 0.0
C978 C 0.79096 0.06391 0.73731 0.0
C979 C 0.80244 0.0455 0.72883 0.0
C980 C 0.80247 0.08662 0.79302 0.0
C981 C 0.82593 0.09197 0.84402 0.0
H982 H 0.77234 0.06039 0.70142 0.0
H983 H 0.79233 0.09975 0.79698 0.0
S984 S 0.8647 0.05054 0.84425 0.0
N985 N 0.83921 0.03444 0.77417 0.0
N986 N 0.86106 0.07733 0.88014 0.0
C987 C 0.83824 0.07415 0.83502 0.0
C988 C 0.82652 0.05095 0.77703 0.0
C989 C 0.09761 0.82035 0.69867 0.0
C990 C 0.12202 0.83031 0.74991 0.0
C991 C 0.06875 0.80551 0.73121 0.0
C992 C 0.06327 0.80129 0.81629 0.0
H993 H 0.10066 0.82077 0.63273 0.0
H994 H 0.05065 0.79514 0.68921 0.0
S995 S 0.1195 0.8271 0.97714 0.0
N996 N 0.13868 0.8369 0.89022 0.0
N997 N 0.08466 0.81148 0.95125 0.0
C998 C 0.08748 0.81423 0.86831 0.0
C999 C 0.11681 0.82816 0.83516 0.0
C1000 C 0.32446 0.32818 0.78064 0.0
C1001 C 0.32508 0.33322 0.69558 0.0
C1002 C 0.33906 0.31476 0.81424 0.0
C1003 C 0.35575 0.30689 0.76423 0.0
H1004 H 0.3152 0.33731 0.82219 0.0
H1005 H 0.34025 0.31385 0.88035 0.0
S1006 S 0.36133 0.31214 0.5373 0.0
N1007 N 0.34017 0.32549 0.56174 0.0
N1008 N 0.36948 0.30256 0.62477 0.0
C1009 C 0.35431 0.3095 0.67881 0.0
C1010 C 0.33844 0.32202 0.64454 0.0
C1011 C 0.09982 0.35736 0.38726 0.0
C1012 C 0.07197 0.33983 0.3538 0.0
C1013 C 0.12488 0.37138 0.33628 0.0
C1014 C 0.12296 0.36716 0.25104 0.0
H1015 H 0.10202 0.36149 0.45253 0.0
H1016 H 0.14582 0.38609 0.36343 0.0
S1017 S 0.05502 0.32312 0.13423 0.0
N1018 N 0.04372 0.31901 0.23093 0.0
N1019 N 0.09106 0.3446 0.13542 0.0
C1020 C 0.09532 0.34906 0.2173 0.0
C1021 C 0.06974 0.33543 0.26881 0.0
C1022 C 0.81393 0.80104 0.33169 0.0
C1023 C 0.82716 0.78748 0.29083 0.0
C1024 C 0.79984 0.81289 0.28761 0.0
C1025 C 0.79968 0.81268 0.20133 0.0
H1026 H 0.81236 0.80042 0.39805 0.0
H1027 H 0.78776 0.82102 0.32127 0.0
S1028 S 0.83229 0.78076 0.06594 0.0
N1029 N 0.83967 0.77489 0.15966 0.0
N1030 N 0.81444 0.79841 0.07693 0.0
C1031 C 0.81424 0.80061 0.15988 0.0
C1032 C 0.82781 0.7878 0.20469 0.0
C1033 C 0.33985 0.06259 0.16268 0.0
C1034 C 0.33025 0.03901 0.21701 0.0
C1035 C 0.35326 0.09114 0.19193 0.0
C1036 C 0.35648 0.09703 0.27654 0.0
H1037 H 0.3404 0.05933 0.09728 0.0
H1038 H 0.36377 0.10878 0.148 0.0
S1039 S 0.33057 0.04262 0.44399 0.0
N1040 N 0.32247 0.02339 0.35933 0.0
N1041 N 0.34521 0.0766 0.41386 0.0
C1042 C 0.34348 0.0734 0.33114 0.0
C1043 C 0.33103 0.0445 0.30151 0.0
loop_
_geom_bond_atom_site_label_1
_geom_bond_atom_site_label_2
_geom_bond_distance
_geom_bond_site_symmetry_2
_ccdc_geom_bond_type
Mn0 O5 2.095 . S
Mn0 O15 2.162 . S
Mn0 O16 2.297 . S
Mn0 O24 2.385 . S
Mn0 O25 2.209 . S
Mn0 O26 2.094 . S
Mn1 O6 2.121 . S
Mn1 N8 2.257 1_455 S
Mn1 N17 2.267 1_455 S
Mn1 O25 2.215 . S
Mn1 O27 2.117 . S
C2 O24 1.234 . S
C2 O25 1.283 . S
C3 O15 1.281 . S
C3 O16 1.236 . S
C4 O26 1.240 . S
C4 O27 1.264 . S
O5 Mn0 2.095 . S
O5 C14 1.250 . S
O6 Mn1 2.121 . S
O6 C14 1.258 . S
C7 N8 1.326 . S
C7 C11 1.460 . S
C7 H13 0.929 . S
N8 Mn1 2.257 1_655 S
N8 C7 1.326 . S
N8 C12 1.362 . S
C9 C10 1.258 . S
C9 C12 1.431 . S
C9 C29 1.449 . S
C10 C9 1.258 . S
C10 C11 1.477 . S
C10 H30 0.931 . S
C11 C7 1.460 . S
C11 C10 1.477 . S
C11 H31 0.930 . S
C12 N8 1.362 . S
C12 C9 1.431 . S
C12 C22 1.476 . S
H13 C7 0.929 . S
C14 O5 1.250 . S
C14 O6 1.258 . S
O15 Mn0 2.162 . S
O15 C3 1.281 . S
O16 Mn0 2.297 . S
O16 C3 1.236 . S
N17 Mn1 2.267 1_655 S
N17 C18 1.319 1_655 S
N17 C22 1.343 . S
C18 N17 1.319 1_455 S
C18 C19 1.457 1_454 S
C18 H23 0.929 . S
C19 C18 1.457 1_656 S
C19 C20 1.291 . S
C19 H32 0.931 1_655 S
C20 C19 1.291 . S
C20 C21 1.373 1_556 S
C20 H33 0.929 . S
C21 C20 1.373 1_554 S
C21 C22 1.396 . S
C21 C28 1.403 . S
C22 C12 1.476 . S
C22 N17 1.343 . S
C22 C21 1.396 . S
H23 C18 0.929 . S
O24 Mn0 2.385 . S
O24 C2 1.234 . S
O25 Mn0 2.209 . S
O25 Mn1 2.215 . S
O25 C2 1.283 . S
O26 Mn0 2.094 . S
O26 C4 1.240 . S
O27 Mn1 2.117 . S
O27 C4 1.264 . S
C28 C21 1.403 . S
C28 C29 1.399 . S
C28 H34 0.918 1_554 S
C29 C9 1.449 . S
C29 C28 1.399 . S
C29 H35 0.930 . S
H30 C10 0.931 . S
H31 C11 0.930 . S
H32 C19 0.931 1_455 S
H33 C20 0.929 . S
H34 C28 0.918 1_556 S
H35 C29 0.930 . S
Mn36 O41 2.095 . S
Mn36 O51 2.162 . S
Mn36 O52 2.297 . S
Mn36 O60 2.385 . S
Mn36 O61 2.209 . S
Mn36 O62 2.094 . S
Mn37 O42 2.121 . S
Mn37 N44 2.257 . S
Mn37 N53 2.282 . S
Mn37 O61 2.215 . S
Mn37 O63 2.117 . S
C38 O60 1.234 . S
C38 O61 1.283 . S
C39 O51 1.281 . S
C39 O52 1.236 . S
C40 O62 1.240 . S
C40 O63 1.264 . S
O41 Mn36 2.095 . S
O41 C50 1.250 . S
O42 Mn37 2.121 . S
O42 C50 1.258 . S
C43 N44 1.326 . S
C43 C47 1.460 . S
C43 H49 0.929 . S
N44 Mn37 2.257 . S
N44 C43 1.326 . S
N44 C48 1.362 . S
C45 C46 1.258 . S
C45 C48 1.431 . S
C45 C65 1.449 . S
C46 C45 1.258 . S
C46 C47 1.477 . S
C46 H66 0.931 . S
C47 C43 1.460 . S
C47 C46 1.477 . S
C47 H67 0.930 . S
C48 N44 1.362 . S
C48 C45 1.431 . S
C48 C58 1.476 . S
H49 C43 0.929 . S
C50 O41 1.250 . S
C50 O42 1.258 . S
O51 Mn36 2.162 . S
O51 C39 1.281 . S
O52 Mn36 2.297 . S
O52 C39 1.236 . S
N53 Mn37 2.282 . S
N53 C54 1.328 . S
N53 C58 1.318 . S
C54 N53 1.328 . S
C54 C55 1.457 . S
C54 H59 0.929 . S
C55 C54 1.457 . S
C55 C56 1.291 . S
C55 H68 0.931 . S
C56 C55 1.291 . S
C56 C57 1.373 . S
C56 H69 0.929 . S
C57 C56 1.373 . S
C57 C58 1.396 . S
C57 C64 1.403 . S
C58 C48 1.476 . S
C58 N53 1.318 . S
C58 C57 1.396 . S
H59 C54 0.929 . S
O60 Mn36 2.385 . S
O60 C38 1.234 . S
O61 Mn36 2.209 . S
O61 Mn37 2.215 . S
O61 C38 1.283 . S
O62 Mn36 2.094 . S
O62 C40 1.240 . S
O63 Mn37 2.117 . S
O63 C40 1.264 . S
C64 C57 1.403 . S
C64 C65 1.399 . S
C64 H70 0.929 . S
C65 C45 1.449 . S
C65 C64 1.399 . S
C65 H71 0.930 . S
H66 C46 0.931 . S
H67 C47 0.930 . S
H68 C55 0.931 . S
H69 C56 0.929 . S
H70 C64 0.929 . S
H71 C65 0.930 . S
Mn72 O77 2.095 . S
Mn72 O87 2.162 . S
Mn72 O88 2.297 . S
Mn72 O96 2.385 . S
Mn72 O97 2.209 . S
Mn72 O98 2.094 . S
Mn73 O78 2.121 . S
Mn73 N80 2.257 . S
Mn73 N89 2.282 . S
Mn73 O97 2.215 . S
Mn73 O99 2.117 . S
C74 O96 1.234 . S
C74 O97 1.283 . S
C75 O87 1.281 . S
C75 O88 1.236 . S
C76 O98 1.240 . S
C76 O99 1.264 . S
O77 Mn72 2.095 . S
O77 C86 1.250 . S
O78 Mn73 2.121 . S
O78 C86 1.258 . S
C79 N80 1.326 . S
C79 C83 1.460 . S
C79 H85 0.929 . S
N80 Mn73 2.257 . S
N80 C79 1.326 . S
N80 C84 1.362 . S
C81 C82 1.258 . S
C81 C84 1.431 . S
C81 C101 1.449 . S
C82 C81 1.258 . S
C82 C83 1.477 . S
C82 H102 0.931 . S
C83 C79 1.460 . S
C83 C82 1.477 . S
C83 H103 0.930 . S
C84 N80 1.362 . S
C84 C81 1.431 . S
C84 C94 1.476 . S
H85 C79 0.929 . S
C86 O77 1.250 . S
C86 O78 1.258 . S
O87 Mn72 2.162 . S
O87 C75 1.281 . S
O88 Mn72 2.297 . S
O88 C75 1.236 . S
N89 Mn73 2.282 . S
N89 C90 1.328 . S
N89 C94 1.318 . S
C90 N89 1.328 . S
C90 C91 1.457 1_554 S
C90 H95 0.929 . S
C91 C90 1.457 1_556 S
C91 C92 1.291 . S
C91 H104 0.931 . S
C92 C91 1.291 . S
C92 C93 1.373 1_556 S
C92 H105 0.929 . S
C93 C92 1.373 1_554 S
C93 C94 1.396 . S
C93 C100 1.403 . S
C94 C84 1.476 . S
C94 N89 1.318 . S
C94 C93 1.396 . S
H95 C90 0.929 . S
O96 Mn72 2.385 . S
O96 C74 1.234 . S
O97 Mn72 2.209 . S
O97 Mn73 2.215 . S
O97 C74 1.283 . S
O98 Mn72 2.094 . S
O98 C76 1.240 . S
O99 Mn73 2.117 . S
O99 C76 1.264 . S
C100 C93 1.403 . S
C100 C101 1.399 . S
C100 H106 0.929 . S
C101 C81 1.449 . S
C101 C100 1.399 . S
C101 H107 0.930 . S
H102 C82 0.931 . S
H103 C83 0.930 . S
H104 C91 0.931 . S
H105 C92 0.929 . S
H106 C100 0.929 . S
H107 C101 0.930 . S
Mn108 O113 2.095 . S
Mn108 O123 2.162 . S
Mn108 O124 2.297 . S
Mn108 O132 2.385 . S
Mn108 O133 2.209 . S
Mn108 O134 2.094 . S
Mn109 O114 2.121 . S
Mn109 N116 2.257 1_455 S
Mn109 N125 2.282 1_455 S
Mn109 O133 2.215 . S
Mn109 O135 2.117 . S
C110 O132 1.234 . S
C110 O133 1.283 . S
C111 O123 1.281 . S
C111 O124 1.236 . S
C112 O134 1.240 . S
C112 O135 1.264 . S
O113 Mn108 2.095 . S
O113 C122 1.250 . S
O114 Mn109 2.121 . S
O114 C122 1.258 . S
C115 N116 1.326 . S
C115 C119 1.460 . S
C115 H121 0.929 . S
N116 Mn109 2.257 1_655 S
N116 C115 1.326 . S
N116 C120 1.362 . S
C117 C118 1.258 . S
C117 C120 1.431 . S
C117 C137 1.449 . S
C118 C117 1.258 . S
C118 C119 1.477 . S
C118 H138 0.931 . S
C119 C115 1.460 . S
C119 C118 1.477 . S
C119 H139 0.930 . S
C120 N116 1.362 . S
C120 C117 1.431 . S
C120 C130 1.476 . S
H121 C115 0.929 . S
C122 O113 1.250 . S
C122 O114 1.258 . S
O123 Mn108 2.162 . S
O123 C111 1.281 . S
O124 Mn108 2.297 . S
O124 C111 1.236 . S
N125 Mn109 2.282 1_655 S
N125 C126 1.328 1_655 S
N125 C130 1.318 . S
C126 N125 1.328 1_455 S
C126 C127 1.457 1_455 S
C126 H131 0.929 . S
C127 C126 1.457 1_655 S
C127 C128 1.291 . S
C127 H140 0.931 1_655 S
C128 C127 1.291 . S
C128 C129 1.373 . S
C128 H141 0.929 . S
C129 C128 1.373 . S
C129 C130 1.396 . S
C129 C136 1.403 . S
C130 C120 1.476 . S
C130 N125 1.318 . S
C130 C129 1.396 . S
H131 C126 0.929 . S
O132 Mn108 2.385 . S
O132 C110 1.234 . S
O133 Mn108 2.209 . S
O133 Mn109 2.215 . S
O133 C110 1.283 . S
O134 Mn108 2.094 . S
O134 C112 1.240 . S
O135 Mn109 2.117 . S
O135 C112 1.264 . S
C136 C129 1.403 . S
C136 C137 1.399 . S
C136 H142 0.929 . S
C137 C117 1.449 . S
C137 C136 1.399 . S
C137 H143 0.930 . S
H138 C118 0.931 . S
H139 C119 0.930 . S
H140 C127 0.931 1_455 S
H141 C128 0.929 . S
H142 C136 0.929 . S
H143 C137 0.930 . S
Mn144 O149 2.095 . S
Mn144 O159 2.162 . S
Mn144 O160 2.297 . S
Mn144 O168 2.385 . S
Mn144 O169 2.209 . S
Mn144 O170 2.094 . S
Mn145 O150 2.121 . S
Mn145 N152 2.257 . S
Mn145 N161 2.282 . S
Mn145 O169 2.215 . S
Mn145 O171 2.117 . S
C146 O168 1.234 . S
C146 O169 1.283 . S
C147 O159 1.281 . S
C147 O160 1.236 . S
C148 O170 1.240 . S
C148 O171 1.264 . S
O149 Mn144 2.095 . S
O149 C158 1.250 . S
O150 Mn145 2.121 . S
O150 C158 1.258 . S
C151 N152 1.326 . S
C151 C155 1.460 . S
C151 H157 0.929 . S
N152 Mn145 2.257 . S
N152 C151 1.326 . S
N152 C156 1.362 . S
C153 C154 1.258 . S
C153 C156 1.431 . S
C153 C173 1.449 . S
C154 C153 1.258 . S
C154 C155 1.477 . S
C154 H174 0.931 . S
C155 C151 1.460 . S
C155 C154 1.477 . S
C155 H175 0.930 . S
C156 N152 1.362 . S
C156 C153 1.431 . S
C156 C166 1.476 . S
H157 C151 0.929 . S
C158 O149 1.250 . S
C158 O150 1.258 . S
O159 Mn144 2.162 . S
O159 C147 1.281 . S
O160 Mn144 2.297 . S
O160 C147 1.236 . S
N161 Mn145 2.282 . S
N161 C162 1.328 . S
N161 C166 1.318 . S
C162 N161 1.328 . S
C162 C163 1.457 1_556 S
C162 H167 0.929 . S
C163 C162 1.457 1_554 S
C163 C164 1.291 . S
C163 H176 0.931 . S
C164 C163 1.291 . S
C164 C165 1.373 1_554 S
C164 H177 0.929 . S
C165 C164 1.373 1_556 S
C165 C166 1.396 . S
C165 C172 1.403 . S
C166 C156 1.476 . S
C166 N161 1.318 . S
C166 C165 1.396 . S
H167 C162 0.929 . S
O168 Mn144 2.385 . S
O168 C146 1.234 . S
O169 Mn144 2.209 . S
O169 Mn145 2.215 . S
O169 C146 1.283 . S
O170 Mn144 2.094 . S
O170 C148 1.240 . S
O171 Mn145 2.117 . S
O171 C148 1.264 . S
C172 C165 1.403 . S
C172 C173 1.399 . S
C172 H178 0.929 . S
C173 C153 1.449 . S
C173 C172 1.399 . S
C173 H179 0.930 . S
H174 C154 0.931 . S
H175 C155 0.930 . S
H176 C163 0.931 . S
H177 C164 0.929 . S
H178 C172 0.929 . S
H179 C173 0.930 . S
Mn180 O185 2.095 . S
Mn180 O195 2.162 . S
Mn180 O196 2.297 . S
Mn180 O204 2.385 . S
Mn180 O205 2.209 . S
Mn180 O206 2.094 . S
Mn181 O186 2.121 . S
Mn181 N188 2.257 1_545 S
Mn181 N197 2.282 1_545 S
Mn181 O205 2.215 . S
Mn181 O207 2.117 . S
C182 O204 1.234 . S
C182 O205 1.283 . S
C183 O195 1.281 . S
C183 O196 1.236 . S
C184 O206 1.240 . S
C184 O207 1.264 . S
O185 Mn180 2.095 . S
O185 C194 1.250 . S
O186 Mn181 2.121 . S
O186 C194 1.258 . S
C187 N188 1.326 . S
C187 C191 1.460 . S
C187 H193 0.929 . S
N188 Mn181 2.257 1_565 S
N188 C187 1.326 . S
N188 C192 1.362 . S
C189 C190 1.258 . S
C189 C192 1.431 . S
C189 C209 1.449 . S
C190 C189 1.258 . S
C190 C191 1.477 . S
C190 H210 0.931 . S
C191 C187 1.460 . S
C191 C190 1.477 . S
C191 H211 0.930 . S
C192 N188 1.362 . S
C192 C189 1.431 . S
C192 C202 1.476 . S
H193 C187 0.929 . S
C194 O185 1.250 . S
C194 O186 1.258 . S
O195 Mn180 2.162 . S
O195 C183 1.281 . S
O196 Mn180 2.297 . S
O196 C183 1.236 . S
N197 Mn181 2.282 1_565 S
N197 C198 1.328 1_565 S
N197 C202 1.318 . S
C198 N197 1.328 1_545 S
C198 C199 1.457 1_546 S
C198 H203 0.929 . S
C199 C198 1.457 1_564 S
C199 C200 1.291 . S
C199 H212 0.931 1_565 S
C200 C199 1.291 . S
C200 C201 1.373 1_554 S
C200 H213 0.929 . S
C201 C200 1.373 1_556 S
C201 C202 1.396 . S
C201 C208 1.403 . S
C202 C192 1.476 . S
C202 N197 1.318 . S
C202 C201 1.396 . S
H203 C198 0.929 . S
O204 Mn180 2.385 . S
O204 C182 1.234 . S
O205 Mn180 2.209 . S
O205 Mn181 2.215 . S
O205 C182 1.283 . S
O206 Mn180 2.094 . S
O206 C184 1.240 . S
O207 Mn181 2.117 . S
O207 C184 1.264 . S
C208 C201 1.403 . S
C208 C209 1.399 . S
C208 H214 0.929 1_556 S
C209 C189 1.449 . S
C209 C208 1.399 . S
C209 H215 0.930 . S
H210 C190 0.931 . S
H211 C191 0.930 . S
H212 C199 0.931 1_545 S
H213 C200 0.929 . S
H214 C208 0.929 1_554 S
H215 C209 0.930 . S
Mn216 O221 2.095 . S
Mn216 O231 2.162 1_565 S
Mn216 O232 2.297 1_565 S
Mn216 O240 2.385 . S
Mn216 O241 2.209 . S
Mn216 O242 2.094 . S
Mn217 O222 2.121 . S
Mn217 N224 2.257 . S
Mn217 N233 2.282 . S
Mn217 O241 2.215 . S
Mn217 O243 2.117 . S
C218 O240 1.234 . S
C218 O241 1.283 . S
C219 O231 1.281 . S
C219 O232 1.236 . S
C220 O242 1.240 . S
C220 O243 1.264 . S
O221 Mn216 2.095 . S
O221 C230 1.250 . S
O222 Mn217 2.121 . S
O222 C230 1.258 . S
C223 N224 1.326 . S
C223 C227 1.460 . S
C223 H229 0.929 . S
N224 Mn217 2.257 . S
N224 C223 1.326 . S
N224 C228 1.362 . S
C225 C226 1.258 . S
C225 C228 1.431 . S
C225 C245 1.449 . S
C226 C225 1.258 . S
C226 C227 1.477 . S
C226 H246 0.931 . S
C227 C223 1.460 . S
C227 C226 1.477 . S
C227 H247 0.930 . S
C228 N224 1.362 . S
C228 C225 1.431 . S
C228 C238 1.476 . S
H229 C223 0.929 . S
C230 O221 1.250 . S
C230 O222 1.258 . S
O231 Mn216 2.162 1_545 S
O231 C219 1.281 . S
O232 Mn216 2.297 1_545 S
O232 C219 1.236 . S
N233 Mn217 2.282 . S
N233 C234 1.328 . S
N233 C238 1.318 . S
C234 N233 1.328 . S
C234 C235 1.457 . S
C234 H239 0.929 . S
C235 C234 1.457 . S
C235 C236 1.291 . S
C235 H248 0.931 . S
C236 C235 1.291 . S
C236 C237 1.373 . S
C236 H249 0.929 . S
C237 C236 1.373 . S
C237 C238 1.396 . S
C237 C244 1.403 . S
C238 C228 1.476 . S
C238 N233 1.318 . S
C238 C237 1.396 . S
H239 C234 0.929 . S
O240 Mn216 2.385 . S
O240 C218 1.234 . S
O241 Mn216 2.209 . S
O241 Mn217 2.215 . S
O241 C218 1.283 . S
O242 Mn216 2.094 . S
O242 C220 1.240 . S
O243 Mn217 2.117 . S
O243 C220 1.264 . S
C244 C237 1.403 . S
C244 C245 1.399 . S
C244 H250 0.929 . S
C245 C225 1.449 . S
C245 C244 1.399 . S
C245 H251 0.930 . S
H246 C226 0.931 . S
H247 C227 0.930 . S
H248 C235 0.931 . S
H249 C236 0.929 . S
H250 C244 0.929 . S
H251 C245 0.930 . S
Mn252 O257 2.095 . S
Mn252 O267 2.162 . S
Mn252 O268 2.297 . S
Mn252 O276 2.385 . S
Mn252 O277 2.209 . S
Mn252 O278 2.094 . S
Mn253 O258 2.121 . S
Mn253 N260 2.257 . S
Mn253 N269 2.282 . S
Mn253 O277 2.215 . S
Mn253 O279 2.117 . S
C254 O276 1.234 . S
C254 O277 1.283 . S
C255 O267 1.281 . S
C255 O268 1.236 . S
C256 O278 1.240 . S
C256 O279 1.264 . S
O257 Mn252 2.095 . S
O257 C266 1.250 . S
O258 Mn253 2.121 . S
O258 C266 1.258 . S
C259 N260 1.326 . S
C259 C263 1.460 . S
C259 H265 0.929 . S
N260 Mn253 2.257 . S
N260 C259 1.326 . S
N260 C264 1.362 . S
C261 C262 1.258 . S
C261 C264 1.431 . S
C261 C281 1.449 . S
C262 C261 1.258 . S
C262 C263 1.477 . S
C262 H282 0.931 . S
C263 C259 1.460 . S
C263 C262 1.477 . S
C263 H283 0.930 . S
C264 N260 1.362 . S
C264 C261 1.431 . S
C264 C274 1.476 . S
H265 C259 0.929 . S
C266 O257 1.250 . S
C266 O258 1.258 . S
O267 Mn252 2.162 . S
O267 C255 1.281 . S
O268 Mn252 2.297 . S
O268 C255 1.236 . S
N269 Mn253 2.282 . S
N269 C270 1.328 . S
N269 C274 1.318 . S
C270 N269 1.328 . S
C270 C271 1.457 . S
C270 H275 0.929 . S
C271 C270 1.457 . S
C271 C272 1.291 . S
C271 H284 0.931 . S
C272 C271 1.291 . S
C272 C273 1.373 . S
C272 H285 0.929 . S
C273 C272 1.373 . S
C273 C274 1.396 . S
C273 C280 1.403 . S
C274 C264 1.476 . S
C274 N269 1.318 . S
C274 C273 1.396 . S
H275 C270 0.929 . S
O276 Mn252 2.385 . S
O276 C254 1.234 . S
O277 Mn252 2.209 . S
O277 Mn253 2.215 . S
O277 C254 1.283 . S
O278 Mn252 2.094 . S
O278 C256 1.240 . S
O279 Mn253 2.117 . S
O279 C256 1.264 . S
C280 C273 1.403 . S
C280 C281 1.399 . S
C280 H286 0.929 . S
C281 C261 1.449 . S
C281 C280 1.399 . S
C281 H287 0.930 . S
H282 C262 0.931 . S
H283 C263 0.930 . S
H284 C271 0.931 . S
H285 C272 0.929 . S
H286 C280 0.929 . S
H287 C281 0.930 . S
Mn288 O293 2.095 . S
Mn288 O303 2.162 . S
Mn288 O304 2.297 . S
Mn288 O312 2.385 . S
Mn288 O313 2.209 . S
Mn288 O314 2.094 . S
Mn289 O294 2.121 . S
Mn289 N296 2.257 . S
Mn289 N305 2.282 . S
Mn289 O313 2.215 . S
Mn289 O315 2.117 . S
C290 O312 1.234 . S
C290 O313 1.283 . S
C291 O303 1.281 . S
C291 O304 1.236 . S
C292 O314 1.240 . S
C292 O315 1.264 . S
O293 Mn288 2.095 . S
O293 C302 1.250 . S
O294 Mn289 2.121 . S
O294 C302 1.258 . S
C295 N296 1.326 . S
C295 C299 1.460 . S
C295 H301 0.929 . S
N296 Mn289 2.257 . S
N296 C295 1.326 . S
N296 C300 1.362 . S
C297 C298 1.258 . S
C297 C300 1.431 . S
C297 C317 1.449 . S
C298 C297 1.258 . S
C298 C299 1.477 . S
C298 H318 0.931 . S
C299 C295 1.460 . S
C299 C298 1.477 . S
C299 H319 0.930 . S
C300 N296 1.362 . S
C300 C297 1.431 . S
C300 C310 1.476 . S
H301 C295 0.929 . S
C302 O293 1.250 . S
C302 O294 1.258 . S
O303 Mn288 2.162 . S
O303 C291 1.281 . S
O304 Mn288 2.297 . S
O304 C291 1.236 . S
N305 Mn289 2.282 . S
N305 C306 1.328 . S
N305 C310 1.318 . S
C306 N305 1.328 . S
C306 C307 1.457 . S
C306 H311 0.929 . S
C307 C306 1.457 . S
C307 C308 1.291 . S
C307 H320 0.931 . S
C308 C307 1.291 . S
C308 C309 1.373 . S
C308 H321 0.929 . S
C309 C308 1.373 . S
C309 C310 1.396 . S
C309 C316 1.403 . S
C310 C300 1.476 . S
C310 N305 1.318 . S
C310 C309 1.396 . S
H311 C306 0.929 . S
O312 Mn288 2.385 . S
O312 C290 1.234 . S
O313 Mn288 2.209 . S
O313 Mn289 2.215 . S
O313 C290 1.283 . S
O314 Mn288 2.094 . S
O314 C292 1.240 . S
O315 Mn289 2.117 . S
O315 C292 1.264 . S
C316 C309 1.403 . S
C316 C317 1.399 . S
C316 H322 0.929 . S
C317 C297 1.449 . S
C317 C316 1.399 . S
C317 H323 0.930 . S
H318 C298 0.931 . S
H319 C299 0.930 . S
H320 C307 0.931 . S
H321 C308 0.929 . S
H322 C316 0.929 . S
H323 C317 0.930 . S
Mn324 O329 2.095 1_554 S
Mn324 O339 2.162 . S
Mn324 O340 2.297 1_554 S
Mn324 O348 2.385 . S
Mn324 O349 2.209 . S
Mn324 O350 2.094 . S
Mn325 O330 2.121 1_554 S
Mn325 N332 2.257 . S
Mn325 N341 2.282 . S
Mn325 O349 2.215 . S
Mn325 O351 2.117 . S
C326 O348 1.234 . S
C326 O349 1.283 . S
C327 O339 1.281 1_556 S
C327 O340 1.236 . S
C328 O350 1.240 . S
C328 O351 1.264 . S
O329 Mn324 2.095 1_556 S
O329 C338 1.250 . S
O330 Mn325 2.121 1_556 S
O330 C338 1.258 . S
C331 N332 1.326 1_556 S
C331 C335 1.460 . S
C331 H337 0.929 . S
N332 Mn325 2.257 . S
N332 C331 1.326 1_554 S
N332 C336 1.362 . S
C333 C334 1.258 . S
C333 C336 1.431 . S
C333 C353 1.449 . S
C334 C333 1.258 . S
C334 C335 1.477 1_554 S
C334 H354 0.931 . S
C335 C331 1.460 . S
C335 C334 1.477 1_556 S
C335 H355 0.930 . S
C336 N332 1.362 . S
C336 C333 1.431 . S
C336 C346 1.476 . S
H337 C331 0.929 . S
C338 O329 1.250 . S
C338 O330 1.258 . S
O339 Mn324 2.162 . S
O339 C327 1.281 1_554 S
O340 Mn324 2.297 1_556 S
O340 C327 1.236 . S
N341 Mn325 2.282 . S
N341 C342 1.328 . S
N341 C346 1.318 . S
C342 N341 1.328 . S
C342 C343 1.457 . S
C342 H347 0.929 . S
C343 C342 1.457 . S
C343 C344 1.291 . S
C343 H356 0.931 . S
C344 C343 1.291 . S
C344 C345 1.373 . S
C344 H357 0.929 . S
C345 C344 1.373 . S
C345 C346 1.396 . S
C345 C352 1.403 . S
C346 C336 1.476 . S
C346 N341 1.318 . S
C346 C345 1.396 . S
H347 C342 0.929 . S
O348 Mn324 2.385 . S
O348 C326 1.234 . S
O349 Mn324 2.209 . S
O349 Mn325 2.215 . S
O349 C326 1.283 . S
O350 Mn324 2.094 . S
O350 C328 1.240 . S
O351 Mn325 2.117 . S
O351 C328 1.264 . S
C352 C345 1.403 . S
C352 C353 1.399 . S
C352 H358 0.929 . S
C353 C333 1.449 . S
C353 C352 1.399 . S
C353 H359 0.930 . S
H354 C334 0.931 . S
H355 C335 0.930 . S
H356 C343 0.931 . S
H357 C344 0.929 . S
H358 C352 0.929 . S
H359 C353 0.930 . S
Mn360 O365 2.095 . S
Mn360 O375 2.162 . S
Mn360 O376 2.297 1_554 S
Mn360 O384 2.385 1_565 S
Mn360 O385 2.209 . S
Mn360 O386 2.094 . S
Mn361 O366 2.121 . S
Mn361 N368 2.257 1_565 S
Mn361 N377 2.282 . S
Mn361 O385 2.215 . S
Mn361 O387 2.117 . S
C362 O384 1.234 . S
C362 O385 1.283 1_545 S
C363 O375 1.281 . S
C363 O376 1.236 1_554 S
C364 O386 1.240 . S
C364 O387 1.264 . S
O365 Mn360 2.095 . S
O365 C374 1.250 1_554 S
O366 Mn361 2.121 . S
O366 C374 1.258 1_554 S
C367 N368 1.326 . S
C367 C371 1.460 . S
C367 H373 0.929 1_544 S
N368 Mn361 2.257 1_545 S
N368 C367 1.326 . S
N368 C372 1.362 . S
C369 C370 1.258 . S
C369 C372 1.431 . S
C369 C389 1.449 . S
C370 C369 1.258 . S
C370 C371 1.477 . S
C370 H390 0.931 . S
C371 C367 1.460 . S
C371 C370 1.477 . S
C371 H391 0.930 1_554 S
C372 N368 1.362 . S
C372 C369 1.431 . S
C372 C382 1.476 . S
H373 C367 0.929 1_566 S
C374 O365 1.250 1_556 S
C374 O366 1.258 1_556 S
O375 Mn360 2.162 . S
O375 C363 1.281 . S
O376 Mn360 2.297 1_556 S
O376 C363 1.236 1_556 S
N377 Mn361 2.282 . S
N377 C378 1.328 . S
N377 C382 1.318 1_565 S
C378 N377 1.328 . S
C378 C379 1.457 1_565 S
C378 H383 0.929 . S
C379 C378 1.457 1_545 S
C379 C380 1.291 . S
C379 H392 0.931 . S
C380 C379 1.291 . S
C380 C381 1.373 . S
C380 H393 0.929 . S
C381 C380 1.373 . S
C381 C382 1.396 . S
C381 C388 1.403 . S
C382 C372 1.476 . S
C382 N377 1.318 1_545 S
C382 C381 1.396 . S
H383 C378 0.929 . S
O384 Mn360 2.385 1_545 S
O384 C362 1.234 . S
O385 Mn360 2.209 . S
O385 Mn361 2.215 . S
O385 C362 1.283 1_565 S
O386 Mn360 2.094 . S
O386 C364 1.240 . S
O387 Mn361 2.117 . S
O387 C364 1.264 . S
C388 C381 1.403 . S
C388 C389 1.399 . S
C388 H394 0.929 . S
C389 C369 1.449 . S
C389 C388 1.399 . S
C389 H395 0.930 . S
H390 C370 0.931 . S
H391 C371 0.930 1_556 S
H392 C379 0.931 . S
H393 C380 0.929 . S
H394 C388 0.929 . S
H395 C389 0.930 . S
Mn396 O401 2.095 . S
Mn396 O411 2.162 . S
Mn396 O412 2.297 . S
Mn396 O420 2.385 . S
Mn396 O421 2.209 . S
Mn396 O422 2.094 . S
Mn397 O402 2.121 . S
Mn397 N404 2.257 . S
Mn397 N413 2.282 . S
Mn397 O421 2.215 . S
Mn397 O423 2.117 . S
C398 O420 1.234 . S
C398 O421 1.283 . S
C399 O411 1.281 . S
C399 O412 1.236 . S
C400 O422 1.240 . S
C400 O423 1.264 . S
O401 Mn396 2.095 . S
O401 C410 1.250 1_554 S
O402 Mn397 2.121 . S
O402 C410 1.258 1_554 S
C403 N404 1.326 . S
C403 C407 1.460 . S
C403 H409 0.929 1_554 S
N404 Mn397 2.257 . S
N404 C403 1.326 . S
N404 C408 1.362 . S
C405 C406 1.258 . S
C405 C408 1.431 . S
C405 C425 1.449 . S
C406 C405 1.258 . S
C406 C407 1.477 . S
C406 H426 0.931 . S
C407 C403 1.460 . S
C407 C406 1.477 . S
C407 H427 0.930 1_554 S
C408 N404 1.362 . S
C408 C405 1.431 . S
C408 C418 1.476 . S
H409 C403 0.929 1_556 S
C410 O401 1.250 1_556 S
C410 O402 1.258 1_556 S
O411 Mn396 2.162 . S
O411 C399 1.281 . S
O412 Mn396 2.297 . S
O412 C399 1.236 . S
N413 Mn397 2.282 . S
N413 C414 1.328 . S
N413 C418 1.318 . S
C414 N413 1.328 . S
C414 C415 1.457 . S
C414 H419 0.929 . S
C415 C414 1.457 . S
C415 C416 1.291 . S
C415 H428 0.931 . S
C416 C415 1.291 . S
C416 C417 1.373 . S
C416 H429 0.929 . S
C417 C416 1.373 . S
C417 C418 1.396 . S
C417 C424 1.403 . S
C418 C408 1.476 . S
C418 N413 1.318 . S
C418 C417 1.396 . S
H419 C414 0.929 . S
O420 Mn396 2.385 . S
O420 C398 1.234 . S
O421 Mn396 2.209 . S
O421 Mn397 2.215 . S
O421 C398 1.283 . S
O422 Mn396 2.094 . S
O422 C400 1.240 . S
O423 Mn397 2.117 . S
O423 C400 1.264 . S
C424 C417 1.403 . S
C424 C425 1.399 . S
C424 H430 0.929 . S
C425 C405 1.449 . S
C425 C424 1.399 . S
C425 H431 0.930 . S
H426 C406 0.931 . S
H427 C407 0.930 1_556 S
H428 C415 0.931 . S
H429 C416 0.929 . S
H430 C424 0.929 . S
H431 C425 0.930 . S
Mn432 O437 2.095 . S
Mn432 O447 2.162 . S
Mn432 O448 2.297 . S
Mn432 O456 2.385 . S
Mn432 O457 2.209 . S
Mn432 O458 2.094 . S
Mn433 O438 2.121 . S
Mn433 N440 2.257 . S
Mn433 N449 2.282 . S
Mn433 O457 2.215 . S
Mn433 O459 2.117 . S
C434 O456 1.234 . S
C434 O457 1.283 . S
C435 O447 1.281 . S
C435 O448 1.236 . S
C436 O458 1.240 . S
C436 O459 1.264 . S
O437 Mn432 2.095 . S
O437 C446 1.250 . S
O438 Mn433 2.121 . S
O438 C446 1.258 . S
C439 N440 1.326 . S
C439 C443 1.460 . S
C439 H445 0.929 1_556 S
N440 Mn433 2.257 . S
N440 C439 1.326 . S
N440 C444 1.362 . S
C441 C442 1.258 . S
C441 C444 1.431 . S
C441 C461 1.449 . S
C442 C441 1.258 . S
C442 C443 1.477 . S
C442 H462 0.931 . S
C443 C439 1.460 . S
C443 C442 1.477 . S
C443 H463 0.930 1_556 S
C444 N440 1.362 . S
C444 C441 1.431 . S
C444 C454 1.476 . S
H445 C439 0.929 1_554 S
C446 O437 1.250 . S
C446 O438 1.258 . S
O447 Mn432 2.162 . S
O447 C435 1.281 . S
O448 Mn432 2.297 . S
O448 C435 1.236 . S
N449 Mn433 2.282 . S
N449 C450 1.328 . S
N449 C454 1.318 . S
C450 N449 1.328 . S
C450 C451 1.457 . S
C450 H455 0.929 . S
C451 C450 1.457 . S
C451 C452 1.291 . S
C451 H464 0.931 . S
C452 C451 1.291 . S
C452 C453 1.373 . S
C452 H465 0.929 . S
C453 C452 1.373 . S
C453 C454 1.396 . S
C453 C460 1.403 . S
C454 C444 1.476 . S
C454 N449 1.318 . S
C454 C453 1.396 . S
H455 C450 0.929 . S
O456 Mn432 2.385 . S
O456 C434 1.234 . S
O457 Mn432 2.209 . S
O457 Mn433 2.215 . S
O457 C434 1.283 . S
O458 Mn432 2.094 . S
O458 C436 1.240 . S
O459 Mn433 2.117 . S
O459 C436 1.264 . S
C460 C453 1.403 . S
C460 C461 1.399 . S
C460 H466 0.929 . S
C461 C441 1.449 . S
C461 C460 1.399 . S
C461 H467 0.930 . S
H462 C442 0.931 . S
H463 C443 0.930 1_554 S
H464 C451 0.931 . S
H465 C452 0.929 . S
H466 C460 0.929 . S
H467 C461 0.930 . S
Mn468 O473 2.095 . S
Mn468 O483 2.162 . S
Mn468 O484 2.297 . S
Mn468 O492 2.385 1_556 S
Mn468 O493 2.209 . S
Mn468 O494 2.094 1_556 S
Mn469 O474 2.121 1_554 S
Mn469 N476 2.257 1_554 S
Mn469 N485 2.282 . S
Mn469 O493 2.215 1_554 S
Mn469 O495 2.117 . S
C470 O492 1.234 . S
C470 O493 1.283 1_554 S
C471 O483 1.281 . S
C471 O484 1.236 . S
C472 O494 1.240 . S
C472 O495 1.264 . S
O473 Mn468 2.095 . S
O473 C482 1.250 . S
O474 Mn469 2.121 1_556 S
O474 C482 1.258 . S
C475 N476 1.326 . S
C475 C479 1.460 . S
C475 H481 0.929 . S
N476 Mn469 2.257 1_556 S
N476 C475 1.326 . S
N476 C480 1.362 1_556 S
C477 C478 1.258 1_554 S
C477 C480 1.431 . S
C477 C497 1.449 . S
C478 C477 1.258 1_556 S
C478 C479 1.477 . S
C478 H498 0.931 . S
C479 C475 1.460 . S
C479 C478 1.477 . S
C479 H499 0.930 . S
C480 N476 1.362 1_554 S
C480 C477 1.431 . S
C480 C490 1.476 . S
H481 C475 0.929 . S
C482 O473 1.250 . S
C482 O474 1.258 . S
O483 Mn468 2.162 . S
O483 C471 1.281 . S
O484 Mn468 2.297 . S
O484 C471 1.236 . S
N485 Mn469 2.282 . S
N485 C486 1.328 . S
N485 C490 1.318 . S
C486 N485 1.328 . S
C486 C487 1.457 . S
C486 H491 0.929 . S
C487 C486 1.457 . S
C487 C488 1.291 . S
C487 H500 0.931 . S
C488 C487 1.291 . S
C488 C489 1.373 . S
C488 H501 0.929 . S
C489 C488 1.373 . S
C489 C490 1.396 . S
C489 C496 1.403 . S
C490 C480 1.476 . S
C490 N485 1.318 . S
C490 C489 1.396 . S
H491 C486 0.929 . S
O492 Mn468 2.385 1_554 S
O492 C470 1.234 . S
O493 Mn468 2.209 . S
O493 Mn469 2.215 1_556 S
O493 C470 1.283 1_556 S
O494 Mn468 2.094 1_554 S
O494 C472 1.240 . S
O495 Mn469 2.117 . S
O495 C472 1.264 . S
C496 C489 1.403 . S
C496 C497 1.399 . S
C496 H502 0.929 . S
C497 C477 1.449 . S
C497 C496 1.399 . S
C497 H503 0.930 . S
H498 C478 0.931 . S
H499 C479 0.930 . S
H500 C487 0.931 . S
H501 C488 0.929 . S
H502 C496 0.929 . S
H503 C497 0.930 . S
Mn504 O509 2.095 . S
Mn504 O519 2.162 . S
Mn504 O520 2.297 1_656 S
Mn504 O528 2.385 1_655 S
Mn504 O529 2.209 1_655 S
Mn504 O530 2.094 . S
Mn505 O510 2.121 . S
Mn505 N512 2.257 1_655 S
Mn505 N521 2.282 1_655 S
Mn505 O529 2.215 1_655 S
Mn505 O531 2.117 . S
C506 O528 1.234 . S
C506 O529 1.283 . S
C507 O519 1.281 . S
C507 O520 1.236 1_656 S
C508 O530 1.240 . S
C508 O531 1.264 . S
O509 Mn504 2.095 . S
O509 C518 1.250 1_556 S
O510 Mn505 2.121 . S
O510 C518 1.258 1_556 S
C511 N512 1.326 . S
C511 C515 1.460 . S
C511 H517 0.929 1_556 S
N512 Mn505 2.257 1_455 S
N512 C511 1.326 . S
N512 C516 1.362 . S
C513 C514 1.258 . S
C513 C516 1.431 . S
C513 C533 1.449 . S
C514 C513 1.258 . S
C514 C515 1.477 . S
C514 H534 0.931 . S
C515 C511 1.460 . S
C515 C514 1.477 . S
C515 H535 0.930 1_556 S
C516 N512 1.362 . S
C516 C513 1.431 . S
C516 C526 1.476 . S
H517 C511 0.929 1_554 S
C518 O509 1.250 1_554 S
C518 O510 1.258 1_554 S
O519 Mn504 2.162 . S
O519 C507 1.281 . S
O520 Mn504 2.297 1_454 S
O520 C507 1.236 1_454 S
N521 Mn505 2.282 1_455 S
N521 C522 1.328 . S
N521 C526 1.318 . S
C522 N521 1.328 . S
C522 C523 1.457 . S
C522 H527 0.917 1_455 S
C523 C522 1.457 . S
C523 C524 1.291 . S
C523 H536 0.931 . S
C524 C523 1.291 . S
C524 C525 1.373 . S
C524 H537 0.929 . S
C525 C524 1.373 . S
C525 C526 1.396 . S
C525 C532 1.403 . S
C526 C516 1.476 . S
C526 N521 1.318 . S
C526 C525 1.396 . S
H527 C522 0.917 1_655 S
O528 Mn504 2.385 1_455 S
O528 C506 1.234 . S
O529 Mn504 2.209 1_455 S
O529 Mn505 2.215 1_455 S
O529 C506 1.283 . S
O530 Mn504 2.094 . S
O530 C508 1.240 . S
O531 Mn505 2.117 . S
O531 C508 1.264 . S
C532 C525 1.403 . S
C532 C533 1.399 . S
C532 H538 0.929 . S
C533 C513 1.449 . S
C533 C532 1.399 . S
C533 H539 0.930 . S
H534 C514 0.931 . S
H535 C515 0.930 1_554 S
H536 C523 0.931 . S
H537 C524 0.929 . S
H538 C532 0.929 . S
H539 C533 0.930 . S
Mn540 O545 2.095 . S
Mn540 O555 2.162 . S
Mn540 O556 2.297 . S
Mn540 O564 2.385 . S
Mn540 O565 2.209 . S
Mn540 O566 2.094 . S
Mn541 O546 2.121 . S
Mn541 N548 2.257 . S
Mn541 N557 2.282 . S
Mn541 O565 2.215 . S
Mn541 O567 2.117 . S
C542 O564 1.234 . S
C542 O565 1.283 . S
C543 O555 1.281 . S
C543 O556 1.236 . S
C544 O566 1.240 . S
C544 O567 1.264 . S
O545 Mn540 2.095 . S
O545 C554 1.250 . S
O546 Mn541 2.121 . S
O546 C554 1.258 . S
C547 N548 1.326 . S
C547 C551 1.460 . S
C547 H553 0.929 . S
N548 Mn541 2.257 . S
N548 C547 1.326 . S
N548 C552 1.362 . S
C549 C550 1.258 . S
C549 C552 1.431 . S
C549 C569 1.449 . S
C550 C549 1.258 . S
C550 C551 1.477 . S
C550 H570 0.931 . S
C551 C547 1.460 . S
C551 C550 1.477 . S
C551 H571 0.930 . S
C552 N548 1.362 . S
C552 C549 1.431 . S
C552 C562 1.476 . S
H553 C547 0.929 . S
C554 O545 1.250 . S
C554 O546 1.258 . S
O555 Mn540 2.162 . S
O555 C543 1.281 . S
O556 Mn540 2.297 . S
O556 C543 1.236 . S
N557 Mn541 2.282 . S
N557 C558 1.328 . S
N557 C562 1.318 . S
C558 N557 1.328 . S
C558 C559 1.457 . S
C558 H563 0.929 . S
C559 C558 1.457 . S
C559 C560 1.291 . S
C559 H572 0.931 . S
C560 C559 1.291 . S
C560 C561 1.373 . S
C560 H573 0.929 . S
C561 C560 1.373 . S
C561 C562 1.396 . S
C561 C568 1.403 . S
C562 C552 1.476 . S
C562 N557 1.318 . S
C562 C561 1.396 . S
H563 C558 0.929 . S
O564 Mn540 2.385 . S
O564 C542 1.234 . S
O565 Mn540 2.209 . S
O565 Mn541 2.215 . S
O565 C542 1.283 . S
O566 Mn540 2.094 . S
O566 C544 1.240 . S
O567 Mn541 2.117 . S
O567 C544 1.264 . S
C568 C561 1.403 . S
C568 C569 1.399 . S
C568 H574 0.929 . S
C569 C549 1.449 . S
C569 C568 1.399 . S
C569 H575 0.930 . S
H570 C550 0.931 . S
H571 C551 0.930 . S
H572 C559 0.931 . S
H573 C560 0.929 . S
H574 C568 0.929 . S
H575 C569 0.930 . S
Mn576 O581 2.095 . S
Mn576 O591 2.162 1_655 S
Mn576 O592 2.297 1_655 S
Mn576 O600 2.385 1_655 S
Mn576 O601 2.209 . S
Mn576 O602 2.094 . S
Mn577 O582 2.121 . S
Mn577 N584 2.257 . S
Mn577 N593 2.282 . S
Mn577 O601 2.215 . S
Mn577 O603 2.117 . S
C578 O600 1.234 1_655 S
C578 O601 1.283 . S
C579 O591 1.281 . S
C579 O592 1.236 . S
C580 O602 1.240 . S
C580 O603 1.264 . S
O581 Mn576 2.095 . S
O581 C590 1.250 . S
O582 Mn577 2.121 . S
O582 C590 1.258 . S
C583 N584 1.326 . S
C583 C587 1.460 . S
C583 H589 0.929 . S
N584 Mn577 2.257 . S
N584 C583 1.326 . S
N584 C588 1.362 . S
C585 C586 1.258 . S
C585 C588 1.431 . S
C585 C605 1.449 . S
C586 C585 1.258 . S
C586 C587 1.477 . S
C586 H606 0.931 . S
C587 C583 1.460 . S
C587 C586 1.477 . S
C587 H607 0.930 . S
C588 N584 1.362 . S
C588 C585 1.431 . S
C588 C598 1.476 . S
H589 C583 0.929 . S
C590 O581 1.250 . S
C590 O582 1.258 . S
O591 Mn576 2.162 1_455 S
O591 C579 1.281 . S
O592 Mn576 2.297 1_455 S
O592 C579 1.236 . S
N593 Mn577 2.282 . S
N593 C594 1.328 . S
N593 C598 1.318 . S
C594 N593 1.328 . S
C594 C595 1.457 . S
C594 H599 0.929 . S
C595 C594 1.457 . S
C595 C596 1.291 . S
C595 H608 0.931 . S
C596 C595 1.291 . S
C596 C597 1.373 . S
C596 H609 0.929 . S
C597 C596 1.373 . S
C597 C598 1.396 . S
C597 C604 1.403 . S
C598 C588 1.476 . S
C598 N593 1.318 . S
C598 C597 1.396 . S
H599 C594 0.929 . S
O600 Mn576 2.385 1_455 S
O600 C578 1.234 1_455 S
O601 Mn576 2.209 . S
O601 Mn577 2.215 . S
O601 C578 1.283 . S
O602 Mn576 2.094 . S
O602 C580 1.240 . S
O603 Mn577 2.117 . S
O603 C580 1.264 . S
C604 C597 1.403 . S
C604 C605 1.399 . S
C604 H610 0.929 . S
C605 C585 1.449 . S
C605 C604 1.399 . S
C605 H611 0.930 . S
H606 C586 0.931 . S
H607 C587 0.930 . S
H608 C595 0.931 . S
H609 C596 0.929 . S
H610 C604 0.929 . S
H611 C605 0.930 . S
Mn612 O617 2.095 . S
Mn612 O627 2.162 . S
Mn612 O628 2.297 . S
Mn612 O636 2.385 . S
Mn612 O637 2.209 . S
Mn612 O638 2.094 . S
Mn613 O618 2.121 . S
Mn613 N620 2.257 . S
Mn613 N629 2.282 . S
Mn613 O637 2.215 . S
Mn613 O639 2.117 . S
C614 O636 1.234 . S
C614 O637 1.283 . S
C615 O627 1.281 . S
C615 O628 1.236 . S
C616 O638 1.240 . S
C616 O639 1.264 . S
O617 Mn612 2.095 . S
O617 C626 1.250 . S
O618 Mn613 2.121 . S
O618 C626 1.258 . S
C619 N620 1.326 . S
C619 C623 1.460 . S
C619 H625 0.929 . S
N620 Mn613 2.257 . S
N620 C619 1.326 . S
N620 C624 1.362 . S
C621 C622 1.258 . S
C621 C624 1.431 . S
C621 C641 1.449 . S
C622 C621 1.258 . S
C622 C623 1.477 . S
C622 H642 0.931 . S
C623 C619 1.460 . S
C623 C622 1.477 . S
C623 H643 0.930 . S
C624 N620 1.362 . S
C624 C621 1.431 . S
C624 C634 1.476 . S
H625 C619 0.929 . S
C626 O617 1.250 . S
C626 O618 1.258 . S
O627 Mn612 2.162 . S
O627 C615 1.281 . S
O628 Mn612 2.297 . S
O628 C615 1.236 . S
N629 Mn613 2.282 . S
N629 C630 1.328 . S
N629 C634 1.318 . S
C630 N629 1.328 . S
C630 C631 1.457 . S
C630 H635 0.929 . S
C631 C630 1.457 . S
C631 C632 1.291 . S
C631 H644 0.931 . S
C632 C631 1.291 . S
C632 C633 1.373 . S
C632 H645 0.929 . S
C633 C632 1.373 . S
C633 C634 1.396 . S
C633 C640 1.403 . S
C634 C624 1.476 . S
C634 N629 1.318 . S
C634 C633 1.396 . S
H635 C630 0.929 . S
O636 Mn612 2.385 . S
O636 C614 1.234 . S
O637 Mn612 2.209 . S
O637 Mn613 2.215 . S
O637 C614 1.283 . S
O638 Mn612 2.094 . S
O638 C616 1.240 . S
O639 Mn613 2.117 . S
O639 C616 1.264 . S
C640 C633 1.403 . S
C640 C641 1.399 . S
C640 H646 0.929 . S
C641 C621 1.449 . S
C641 C640 1.399 . S
C641 H647 0.930 . S
H642 C622 0.931 . S
H643 C623 0.930 . S
H644 C631 0.931 . S
H645 C632 0.929 . S
H646 C640 0.929 . S
H647 C641 0.930 . S
C648 C649 1.369 1_554 S
C648 C650 1.419 . S
C648 H652 0.930 . S
C649 C648 1.369 1_556 S
C649 C658 1.429 . S
C650 C648 1.419 . S
C650 C651 1.363 . S
C650 H653 0.929 . S
C651 C650 1.363 . S
C651 C657 1.428 1_554 S
H652 C648 0.930 . S
H653 C650 0.929 . S
S654 N655 1.613 . S
S654 N656 1.610 . S
N655 S654 1.613 . S
N655 C658 1.350 . S
N656 S654 1.610 . S
N656 C657 1.351 . S
C657 C651 1.428 1_556 S
C657 N656 1.351 . S
C657 C658 1.434 . S
C658 C649 1.429 . S
C658 N655 1.350 . S
C658 C657 1.434 . S
C659 C660 1.369 . S
C659 C661 1.419 1_556 S
C659 H663 0.930 . S
C660 C659 1.369 . S
C660 C669 1.429 . S
C661 C659 1.419 1_554 S
C661 C662 1.363 . S
C661 H664 0.929 . S
C662 C661 1.363 . S
C662 C668 1.428 . S
H663 C659 0.930 . S
H664 C661 0.929 . S
S665 N666 1.613 . S
S665 N667 1.610 1_556 S
N666 S665 1.613 . S
N666 C669 1.350 . S
N667 S665 1.610 1_554 S
N667 C668 1.351 . S
C668 C662 1.428 . S
C668 N667 1.351 . S
C668 C669 1.434 1_554 S
C669 C660 1.429 . S
C669 N666 1.350 . S
C669 C668 1.434 1_556 S
C670 C671 1.369 1_556 S
C670 C672 1.419 . S
C670 H674 0.930 . S
C671 C670 1.369 1_554 S
C671 C680 1.429 . S
C672 C670 1.419 . S
C672 C673 1.363 . S
C672 H675 0.929 . S
C673 C672 1.363 . S
C673 C679 1.428 1_556 S
H674 C670 0.930 . S
H675 C672 0.929 . S
S676 N677 1.613 . S
S676 N678 1.610 . S
N677 S676 1.613 . S
N677 C680 1.350 . S
N678 S676 1.610 . S
N678 C679 1.351 . S
C679 C673 1.428 1_554 S
C679 N678 1.351 . S
C679 C680 1.434 . S
C680 C671 1.429 . S
C680 N677 1.350 . S
C680 C679 1.434 . S
C681 C682 1.369 . S
C681 C683 1.419 . S
C681 H685 0.930 . S
C682 C681 1.369 . S
C682 C691 1.429 . S
C683 C681 1.419 . S
C683 C684 1.363 . S
C683 H686 0.929 . S
C684 C683 1.363 . S
C684 C690 1.428 . S
H685 C681 0.930 . S
H686 C683 0.929 . S
S687 N688 1.613 . S
S687 N689 1.610 . S
N688 S687 1.613 . S
N688 C691 1.350 . S
N689 S687 1.610 . S
N689 C690 1.351 . S
C690 C684 1.428 . S
C690 N689 1.351 . S
C690 C691 1.434 . S
C691 C682 1.429 . S
C691 N688 1.350 . S
C691 C690 1.434 . S
C692 C693 1.369 . S
C692 C694 1.419 . S
C692 H696 0.930 . S
C693 C692 1.369 . S
C693 C702 1.429 . S
C694 C692 1.419 . S
C694 C695 1.363 . S
C694 H697 0.929 . S
C695 C694 1.363 . S
C695 C701 1.428 . S
H696 C692 0.930 . S
H697 C694 0.929 . S
S698 N699 1.613 . S
S698 N700 1.610 . S
N699 S698 1.613 . S
N699 C702 1.350 . S
N700 S698 1.610 . S
N700 C701 1.351 . S
C701 C695 1.428 . S
C701 N700 1.351 . S
C701 C702 1.434 . S
C702 C693 1.429 . S
C702 N699 1.350 . S
C702 C701 1.434 . S
C703 C704 1.369 . S
C703 C705 1.419 . S
C703 H707 0.930 . S
C704 C703 1.369 . S
C704 C713 1.429 . S
C705 C703 1.419 . S
C705 C706 1.363 . S
C705 H708 0.929 . S
C706 C705 1.363 . S
C706 C712 1.428 . S
H707 C703 0.930 . S
H708 C705 0.929 . S
S709 N710 1.613 . S
S709 N711 1.610 . S
N710 S709 1.613 . S
N710 C713 1.350 . S
N711 S709 1.610 . S
N711 C712 1.351 . S
C712 C706 1.428 . S
C712 N711 1.351 . S
C712 C713 1.434 . S
C713 C704 1.429 . S
C713 N710 1.350 . S
C713 C712 1.434 . S
C714 C715 1.369 . S
C714 C716 1.419 . S
C714 H718 0.930 . S
C715 C714 1.369 . S
C715 C724 1.429 . S
C716 C714 1.419 . S
C716 C717 1.363 . S
C716 H719 0.929 . S
C717 C716 1.363 . S
C717 C723 1.428 . S
H718 C714 0.930 . S
H719 C716 0.929 . S
S720 N721 1.613 . S
S720 N722 1.610 . S
N721 S720 1.613 . S
N721 C724 1.350 . S
N722 S720 1.610 . S
N722 C723 1.351 . S
C723 C717 1.428 . S
C723 N722 1.351 . S
C723 C724 1.434 . S
C724 C715 1.429 . S
C724 N721 1.350 . S
C724 C723 1.434 . S
C725 C726 1.369 . S
C725 C727 1.419 . S
C725 H729 0.930 . S
C726 C725 1.369 . S
C726 C735 1.429 . S
C727 C725 1.419 . S
C727 C728 1.363 . S
C727 H730 0.929 . S
C728 C727 1.363 . S
C728 C734 1.428 . S
H729 C725 0.930 . S
H730 C727 0.929 . S
S731 N732 1.613 . S
S731 N733 1.610 . S
N732 S731 1.613 . S
N732 C735 1.350 . S
N733 S731 1.610 . S
N733 C734 1.351 . S
C734 C728 1.428 . S
C734 N733 1.351 . S
C734 C735 1.434 . S
C735 C726 1.429 . S
C735 N732 1.350 . S
C735 C734 1.434 . S
C736 C737 1.369 . S
C736 C738 1.419 . S
C736 H740 0.930 . S
C737 C736 1.369 . S
C737 C746 1.429 . S
C738 C736 1.419 . S
C738 C739 1.363 . S
C738 H741 0.929 . S
C739 C738 1.363 . S
C739 C745 1.428 . S
H740 C736 0.930 . S
H741 C738 0.929 . S
S742 N743 1.613 . S
S742 N744 1.610 . S
N743 S742 1.613 . S
N743 C746 1.350 . S
N744 S742 1.610 . S
N744 C745 1.351 . S
C745 C739 1.428 . S
C745 N744 1.351 . S
C745 C746 1.434 . S
C746 C737 1.429 . S
C746 N743 1.350 . S
C746 C745 1.434 . S
C747 C748 1.369 . S
C747 C749 1.419 . S
C747 H751 0.930 . S
C748 C747 1.369 . S
C748 C757 1.429 . S
C749 C747 1.419 . S
C749 C750 1.363 . S
C749 H752 0.929 . S
C750 C749 1.363 . S
C750 C756 1.428 . S
H751 C747 0.930 . S
H752 C749 0.929 . S
S753 N754 1.613 . S
S753 N755 1.610 . S
N754 S753 1.613 . S
N754 C757 1.350 . S
N755 S753 1.610 . S
N755 C756 1.351 . S
C756 C750 1.428 . S
C756 N755 1.351 . S
C756 C757 1.434 . S
C757 C748 1.429 . S
C757 N754 1.350 . S
C757 C756 1.434 . S
C758 C759 1.369 . S
C758 C760 1.419 . S
C758 H762 0.930 . S
C759 C758 1.369 . S
C759 C768 1.429 . S
C760 C758 1.419 . S
C760 C761 1.363 . S
C760 H763 0.929 . S
C761 C760 1.363 . S
C761 C767 1.428 . S
H762 C758 0.930 . S
H763 C760 0.929 . S
S764 N765 1.613 . S
S764 N766 1.610 . S
N765 S764 1.613 . S
N765 C768 1.350 . S
N766 S764 1.610 . S
N766 C767 1.351 . S
C767 C761 1.428 . S
C767 N766 1.351 . S
C767 C768 1.434 . S
C768 C759 1.429 . S
C768 N765 1.350 . S
C768 C767 1.434 . S
C769 C770 1.369 . S
C769 C771 1.419 . S
C769 H773 0.930 . S
C770 C769 1.369 . S
C770 C779 1.429 . S
C771 C769 1.419 . S
C771 C772 1.363 . S
C771 H774 0.929 . S
C772 C771 1.363 . S
C772 C778 1.428 . S
H773 C769 0.930 . S
H774 C771 0.929 . S
S775 N776 1.613 1_556 S
S775 N777 1.610 . S
N776 S775 1.613 1_554 S
N776 C779 1.350 1_554 S
N777 S775 1.610 . S
N777 C778 1.351 . S
C778 C772 1.428 . S
C778 N777 1.351 . S
C778 C779 1.434 . S
C779 C770 1.429 . S
C779 N776 1.350 1_556 S
C779 C778 1.434 . S
C780 C781 1.369 . S
C780 C782 1.419 . S
C780 H784 0.930 . S
C781 C780 1.369 . S
C781 C790 1.429 . S
C782 C780 1.419 . S
C782 C783 1.363 . S
C782 H785 0.929 . S
C783 C782 1.363 . S
C783 C789 1.428 . S
H784 C780 0.930 . S
H785 C782 0.929 . S
S786 N787 1.613 . S
S786 N788 1.610 . S
N787 S786 1.613 . S
N787 C790 1.350 . S
N788 S786 1.610 . S
N788 C789 1.351 . S
C789 C783 1.428 . S
C789 N788 1.351 . S
C789 C790 1.434 . S
C790 C781 1.429 . S
C790 N787 1.350 . S
C790 C789 1.434 . S
C791 C792 1.369 . S
C791 C793 1.419 . S
C791 H795 0.930 . S
C792 C791 1.369 . S
C792 C801 1.429 . S
C793 C791 1.419 . S
C793 C794 1.363 . S
C793 H796 0.929 . S
C794 C793 1.363 . S
C794 C800 1.428 . S
H795 C791 0.930 . S
H796 C793 0.929 . S
S797 N798 1.613 . S
S797 N799 1.610 . S
N798 S797 1.613 . S
N798 C801 1.350 . S
N799 S797 1.610 . S
N799 C800 1.351 . S
C800 C794 1.428 . S
C800 N799 1.351 . S
C800 C801 1.434 . S
C801 C792 1.429 . S
C801 N798 1.350 . S
C801 C800 1.434 . S
C802 C803 1.369 . S
C802 C804 1.419 . S
C802 H806 0.930 . S
C803 C802 1.369 . S
C803 C812 1.429 . S
C804 C802 1.419 . S
C804 C805 1.363 . S
C804 H807 0.929 . S
C805 C804 1.363 . S
C805 C811 1.428 . S
H806 C802 0.930 . S
H807 C804 0.929 . S
S808 N809 1.613 . S
S808 N810 1.610 . S
N809 S808 1.613 . S
N809 C812 1.350 . S
N810 S808 1.610 . S
N810 C811 1.351 . S
C811 C805 1.428 . S
C811 N810 1.351 . S
C811 C812 1.434 . S
C812 C803 1.429 . S
C812 N809 1.350 . S
C812 C811 1.434 . S
C813 C814 1.369 . S
C813 C815 1.419 . S
C813 H817 0.930 . S
C814 C813 1.369 . S
C814 C823 1.429 . S
C815 C813 1.419 . S
C815 C816 1.363 . S
C815 H818 0.929 . S
C816 C815 1.363 . S
C816 C822 1.428 . S
H817 C813 0.930 . S
H818 C815 0.929 . S
S819 N820 1.613 . S
S819 N821 1.610 . S
N820 S819 1.613 . S
N820 C823 1.350 . S
N821 S819 1.610 . S
N821 C822 1.351 . S
C822 C816 1.428 . S
C822 N821 1.351 . S
C822 C823 1.434 . S
C823 C814 1.429 . S
C823 N820 1.350 . S
C823 C822 1.434 . S
C824 C825 1.369 . S
C824 C826 1.419 . S
C824 H828 0.930 . S
C825 C824 1.369 . S
C825 C834 1.429 . S
C826 C824 1.419 . S
C826 C827 1.363 . S
C826 H829 0.929 . S
C827 C826 1.363 . S
C827 C833 1.428 . S
H828 C824 0.930 . S
H829 C826 0.929 . S
S830 N831 1.613 1_556 S
S830 N832 1.610 . S
N831 S830 1.613 1_554 S
N831 C834 1.350 . S
N832 S830 1.610 . S
N832 C833 1.351 1_556 S
C833 C827 1.428 . S
C833 N832 1.351 1_554 S
C833 C834 1.434 . S
C834 C825 1.429 . S
C834 N831 1.350 . S
C834 C833 1.434 . S
C835 C836 1.369 . S
C835 C837 1.419 . S
C835 H839 0.930 . S
C836 C835 1.369 . S
C836 C845 1.429 . S
C837 C835 1.419 . S
C837 C838 1.363 . S
C837 H840 0.929 . S
C838 C837 1.363 . S
C838 C844 1.428 . S
H839 C835 0.930 . S
H840 C837 0.929 . S
S841 N842 1.613 . S
S841 N843 1.610 . S
N842 S841 1.613 . S
N842 C845 1.350 . S
N843 S841 1.610 . S
N843 C844 1.351 . S
C844 C838 1.428 . S
C844 N843 1.351 . S
C844 C845 1.434 . S
C845 C836 1.429 . S
C845 N842 1.350 . S
C845 C844 1.434 . S
C846 C847 1.369 . S
C846 C848 1.419 . S
C846 H850 0.930 . S
C847 C846 1.369 . S
C847 C856 1.429 . S
C848 C846 1.419 . S
C848 C849 1.363 . S
C848 H851 0.929 . S
C849 C848 1.363 . S
C849 C855 1.428 . S
H850 C846 0.930 . S
H851 C848 0.929 . S
S852 N853 1.613 . S
S852 N854 1.610 . S
N853 S852 1.613 . S
N853 C856 1.350 . S
N854 S852 1.610 . S
N854 C855 1.351 . S
C855 C849 1.428 . S
C855 N854 1.351 . S
C855 C856 1.434 . S
C856 C847 1.429 . S
C856 N853 1.350 . S
C856 C855 1.434 . S
C857 C858 1.369 . S
C857 C859 1.419 . S
C857 H861 0.930 . S
C858 C857 1.369 . S
C858 C867 1.429 . S
C859 C857 1.419 . S
C859 C860 1.363 . S
C859 H862 0.929 . S
C860 C859 1.363 . S
C860 C866 1.428 . S
H861 C857 0.930 . S
H862 C859 0.929 . S
S863 N864 1.613 . S
S863 N865 1.610 . S
N864 S863 1.613 . S
N864 C867 1.350 . S
N865 S863 1.610 . S
N865 C866 1.351 . S
C866 C860 1.428 . S
C866 N865 1.351 . S
C866 C867 1.434 . S
C867 C858 1.429 . S
C867 N864 1.350 . S
C867 C866 1.434 . S
C868 C869 1.369 . S
C868 C870 1.419 . S
C868 H872 0.930 . S
C869 C868 1.369 . S
C869 C878 1.429 1_565 S
C870 C868 1.419 . S
C870 C871 1.363 1_565 S
C870 H873 0.929 . S
C871 C870 1.363 1_545 S
C871 C877 1.428 . S
H872 C868 0.930 . S
H873 C870 0.929 . S
S874 N875 1.613 . S
S874 N876 1.610 . S
N875 S874 1.613 . S
N875 C878 1.350 . S
N876 S874 1.610 . S
N876 C877 1.351 . S
C877 C871 1.428 . S
C877 N876 1.351 . S
C877 C878 1.434 . S
C878 C869 1.429 1_545 S
C878 N875 1.350 . S
C878 C877 1.434 . S
C879 C880 1.369 . S
C879 C881 1.419 . S
C879 H883 0.930 . S
C880 C879 1.369 . S
C880 C889 1.429 . S
C881 C879 1.419 . S
C881 C882 1.363 . S
C881 H884 0.929 . S
C882 C881 1.363 . S
C882 C888 1.428 . S
H883 C879 0.930 . S
H884 C881 0.929 . S
S885 N886 1.613 . S
S885 N887 1.610 . S
N886 S885 1.613 . S
N886 C889 1.350 . S
N887 S885 1.610 . S
N887 C888 1.351 . S
C888 C882 1.428 . S
C888 N887 1.351 . S
C888 C889 1.434 . S
C889 C880 1.429 . S
C889 N886 1.350 . S
C889 C888 1.434 . S
C890 C891 1.369 1_655 S
C890 C892 1.419 1_655 S
C890 H894 0.930 . S
C891 C890 1.369 1_455 S
C891 C900 1.429 . S
C892 C890 1.419 1_455 S
C892 C893 1.363 . S
C892 H895 0.929 1_455 S
C893 C892 1.363 . S
C893 C899 1.428 . S
H894 C890 0.930 . S
H895 C892 0.929 1_655 S
S896 N897 1.613 . S
S896 N898 1.610 1_556 S
N897 S896 1.613 . S
N897 C900 1.350 1_556 S
N898 S896 1.610 1_554 S
N898 C899 1.351 . S
C899 C893 1.428 . S
C899 N898 1.351 . S
C899 C900 1.434 . S
C900 C891 1.429 . S
C900 N897 1.350 1_554 S
C900 C899 1.434 . S
C901 C902 1.369 . S
C901 C903 1.420 . S
C901 H905 0.928 1_554 S
C902 C901 1.369 . S
C902 C911 1.429 . S
C903 C901 1.420 . S
C903 C904 1.363 . S
C903 H906 0.929 . S
C904 C903 1.363 . S
C904 C910 1.428 . S
H905 C901 0.928 1_556 S
H906 C903 0.929 . S
S907 N908 1.613 . S
S907 N909 1.610 . S
N908 S907 1.613 . S
N908 C911 1.350 . S
N909 S907 1.610 . S
N909 C910 1.351 . S
C910 C904 1.428 . S
C910 N909 1.351 . S
C910 C911 1.434 . S
C911 C902 1.429 . S
C911 N908 1.350 . S
C911 C910 1.434 . S
C912 C913 1.391 . S
C912 C914 1.416 . S
C912 H916 0.911 1_455 S
C913 C912 1.391 . S
C913 C922 1.429 . S
C914 C912 1.416 . S
C914 C915 1.363 . S
C914 H917 0.929 . S
C915 C914 1.363 . S
C915 C921 1.428 . S
H916 C912 0.911 1_655 S
H917 C914 0.929 . S
S918 N919 1.613 . S
S918 N920 1.610 . S
N919 S918 1.613 . S
N919 C922 1.350 . S
N920 S918 1.610 . S
N920 C921 1.351 . S
C921 C915 1.428 . S
C921 N920 1.351 . S
C921 C922 1.434 . S
C922 C913 1.429 . S
C922 N919 1.350 . S
C922 C921 1.434 . S
C923 C924 1.369 . S
C923 C925 1.419 . S
C923 H927 0.930 . S
C924 C923 1.369 . S
C924 C933 1.429 . S
C925 C923 1.419 . S
C925 C926 1.363 . S
C925 H928 0.929 . S
C926 C925 1.363 . S
C926 C932 1.428 . S
H927 C923 0.930 . S
H928 C925 0.929 . S
S929 N930 1.613 . S
S929 N931 1.610 . S
N930 S929 1.613 . S
N930 C933 1.350 . S
N931 S929 1.610 . S
N931 C932 1.351 . S
C932 C926 1.428 . S
C932 N931 1.351 . S
C932 C933 1.434 . S
C933 C924 1.429 . S
C933 N930 1.350 . S
C933 C932 1.434 . S
C934 C935 1.369 . S
C934 C936 1.419 . S
C934 H938 0.930 . S
C935 C934 1.369 . S
C935 C944 1.429 . S
C936 C934 1.419 . S
C936 C937 1.363 . S
C936 H939 0.929 . S
C937 C936 1.363 . S
C937 C943 1.428 . S
H938 C934 0.930 . S
H939 C936 0.929 . S
S940 N941 1.613 . S
S940 N942 1.610 . S
N941 S940 1.613 . S
N941 C944 1.350 . S
N942 S940 1.610 . S
N942 C943 1.351 . S
C943 C937 1.428 . S
C943 N942 1.351 . S
C943 C944 1.434 . S
C944 C935 1.429 . S
C944 N941 1.350 . S
C944 C943 1.434 . S
C945 C946 1.392 . S
C945 C947 1.419 . S
C945 H949 0.930 . S
C946 C945 1.392 . S
C946 C955 1.406 1_565 S
C947 C945 1.419 . S
C947 C948 1.363 1_565 S
C947 H950 0.929 . S
C948 C947 1.363 1_545 S
C948 C954 1.428 . S
H949 C945 0.930 . S
H950 C947 0.929 . S
S951 N952 1.613 . S
S951 N953 1.610 . S
N952 S951 1.613 . S
N952 C955 1.350 . S
N953 S951 1.610 . S
N953 C954 1.351 . S
C954 C948 1.428 . S
C954 N953 1.351 . S
C954 C955 1.434 . S
C955 C946 1.406 1_545 S
C955 N952 1.350 . S
C955 C954 1.434 . S
C956 C957 1.369 . S
C956 C958 1.419 . S
C956 H960 0.930 . S
C957 C956 1.369 . S
C957 C966 1.429 . S
C958 C956 1.419 . S
C958 C959 1.363 . S
C958 H961 0.929 . S
C959 C958 1.363 . S
C959 C965 1.428 . S
H960 C956 0.930 . S
H961 C958 0.929 . S
S962 N963 1.613 . S
S962 N964 1.610 1_556 S
N963 S962 1.613 . S
N963 C966 1.350 . S
N964 S962 1.610 1_554 S
N964 C965 1.351 1_554 S
C965 C959 1.428 . S
C965 N964 1.351 1_556 S
C965 C966 1.434 . S
C966 C957 1.429 . S
C966 N963 1.350 . S
C966 C965 1.434 . S
C967 C968 1.369 . S
C967 C969 1.419 . S
C967 H971 0.930 . S
C968 C967 1.369 . S
C968 C977 1.429 . S
C969 C967 1.419 . S
C969 C970 1.363 . S
C969 H972 0.929 1_556 S
C970 C969 1.363 . S
C970 C976 1.428 . S
H971 C967 0.930 . S
H972 C969 0.929 1_554 S
S973 N974 1.613 . S
S973 N975 1.610 . S
N974 S973 1.613 . S
N974 C977 1.350 . S
N975 S973 1.610 . S
N975 C976 1.351 . S
C976 C970 1.428 . S
C976 N975 1.351 . S
C976 C977 1.434 . S
C977 C968 1.429 . S
C977 N974 1.350 . S
C977 C976 1.434 . S
C978 C979 1.369 . S
C978 C980 1.419 . S
C978 H982 0.930 . S
C979 C978 1.369 . S
C979 C988 1.429 . S
C980 C978 1.419 . S
C980 C981 1.363 . S
C980 H983 0.929 . S
C981 C980 1.363 . S
C981 C987 1.428 . S
H982 C978 0.930 . S
H983 C980 0.929 . S
S984 N985 1.613 . S
S984 N986 1.610 . S
N985 S984 1.613 . S
N985 C988 1.350 . S
N986 S984 1.610 . S
N986 C987 1.351 . S
C987 C981 1.428 . S
C987 N986 1.351 . S
C987 C988 1.434 . S
C988 C979 1.429 . S
C988 N985 1.350 . S
C988 C987 1.434 . S
C989 C990 1.369 . S
C989 C991 1.419 . S
C989 H993 0.930 . S
C990 C989 1.369 . S
C990 C999 1.429 . S
C991 C989 1.419 . S
C991 C992 1.363 . S
C991 H994 0.929 . S
C992 C991 1.363 . S
C992 C998 1.428 . S
H993 C989 0.930 . S
H994 C991 0.929 . S
S995 N996 1.613 . S
S995 N997 1.610 . S
N996 S995 1.613 . S
N996 C999 1.350 . S
N997 S995 1.610 . S
N997 C998 1.351 . S
C998 C992 1.428 . S
C998 N997 1.351 . S
C998 C999 1.434 . S
C999 C990 1.429 . S
C999 N996 1.350 . S
C999 C998 1.434 . S
C1000 C1001 1.369 . S
C1000 C1002 1.419 . S
C1000 H1004 0.930 . S
C1001 C1000 1.369 . S
C1001 C1010 1.429 . S
C1002 C1000 1.419 . S
C1002 C1003 1.363 . S
C1002 H1005 0.929 . S
C1003 C1002 1.363 . S
C1003 C1009 1.428 . S
H1004 C1000 0.930 . S
H1005 C1002 0.929 . S
S1006 N1007 1.613 . S
S1006 N1008 1.610 . S
N1007 S1006 1.613 . S
N1007 C1010 1.350 . S
N1008 S1006 1.610 . S
N1008 C1009 1.351 . S
C1009 C1003 1.428 . S
C1009 N1008 1.351 . S
C1009 C1010 1.434 . S
C1010 C1001 1.429 . S
C1010 N1007 1.350 . S
C1010 C1009 1.434 . S
C1011 C1012 1.369 . S
C1011 C1013 1.419 . S
C1011 H1015 0.930 . S
C1012 C1011 1.369 . S
C1012 C1021 1.429 . S
C1013 C1011 1.419 . S
C1013 C1014 1.363 . S
C1013 H1016 0.929 . S
C1014 C1013 1.363 . S
C1014 C1020 1.428 . S
H1015 C1011 0.930 . S
H1016 C1013 0.929 . S
S1017 N1018 1.613 . S
S1017 N1019 1.610 . S
N1018 S1017 1.613 . S
N1018 C1021 1.350 . S
N1019 S1017 1.610 . S
N1019 C1020 1.351 . S
C1020 C1014 1.428 . S
C1020 N1019 1.351 . S
C1020 C1021 1.434 . S
C1021 C1012 1.429 . S
C1021 N1018 1.350 . S
C1021 C1020 1.434 . S
C1022 C1023 1.369 . S
C1022 C1024 1.419 . S
C1022 H1026 0.930 . S
C1023 C1022 1.369 . S
C1023 C1032 1.429 . S
C1024 C1022 1.419 . S
C1024 C1025 1.363 . S
C1024 H1027 0.929 . S
C1025 C1024 1.363 . S
C1025 C1031 1.428 . S
H1026 C1022 0.930 . S
H1027 C1024 0.929 . S
S1028 N1029 1.613 . S
S1028 N1030 1.610 . S
N1029 S1028 1.613 . S
N1029 C1032 1.350 . S
N1030 S1028 1.610 . S
N1030 C1031 1.351 . S
C1031 C1025 1.428 . S
C1031 N1030 1.351 . S
C1031 C1032 1.434 . S
C1032 C1023 1.429 . S
C1032 N1029 1.350 . S
C1032 C1031 1.434 . S
C1033 C1034 1.369 . S
C1033 C1035 1.419 . S
C1033 H1037 0.930 . S
C1034 C1033 1.369 . S
C1034 C1043 1.429 . S
C1035 C1033 1.419 . S
C1035 C1036 1.363 . S
C1035 H1038 0.929 . S
C1036 C1035 1.363 . S
C1036 C1042 1.428 . S
H1037 C1033 0.930 . S
H1038 C1035 0.929 . S
S1039 N1040 1.613 . S
S1039 N1041 1.610 . S
N1040 S1039 1.613 . S
N1040 C1043 1.350 . S
N1041 S1039 1.610 . S
N1041 C1042 1.351 . S
C1042 C1036 1.428 . S
C1042 N1041 1.351 . S
C1042 C1043 1.434 . S
C1043 C1034 1.429 . S
C1043 N1040 1.350 . S
C1043 C1042 1.434 . S
C649 C122 1.431 . S
C651 C4 1.382 . S
C660 C148 1.349 . S
C662 C50 1.409 . S
C671 C76 1.388 . S
C673 C184 1.370 . S
C682 C86 1.393 . S
C684 C194 1.384 . S
C693 C14 1.425 . S
C695 C112 1.378 . S
C704 C158 1.432 . S
C706 C40 1.363 . S
C715 C328 1.386 . S
C717 C220 1.382 . S
C726 C266 1.405 . S
C728 C364 1.358 . S
C737 C302 1.423 . S
C739 C400 1.361 . S
C748 C410 1.409 . S
C750 C292 1.359 . S
C759 C338 1.399 . S
C761 C230 1.403 . S
C770 C374 1.412 . S
C772 C256 1.366 . S
C781 C436 1.381 . S
C783 C554 1.414 . S
C792 C482 1.404 . S
C794 C580 1.364 . S
C803 C508 1.388 . S
C805 C616 1.366 . S
C814 C626 1.373 . S
C816 C518 1.383 . S
C825 C544 1.383 . S
C827 C446 1.423 1_554 S
C836 C590 1.416 . S
C838 C472 1.374 . S
C847 C3 1.355 . S
C849 C255 1.353 . S
C858 C38 1.299 . S
C860 C291 1.336 . S
C869 C218 1.307 . S
C871 C75 1.346 . S
C880 C74 1.305 . S
C882 C470 1.299 . S
C891 C507 1.354 1_454 S
C893 C2 1.299 . S
C902 C435 1.351 1_554 S
C904 C39 1.347 . S
C913 C578 1.312 1_455 S
C915 C110 1.306 . S
C924 C147 1.332 . S
C926 C614 1.303 . S
C935 C543 1.363 . S
C937 C183 1.350 . S
C946 C363 1.344 1_556 S
C948 C182 1.303 . S
C957 C111 1.351 . S
C959 C399 1.346 1_556 S
C968 C146 1.311 . S
C970 C327 1.341 . S
C979 C219 1.345 . S
C981 C471 1.351 . S
C990 C254 1.292 . S
C992 C506 1.308 . S
C1001 C290 1.317 . S
C1003 C434 1.300 . S
C1012 C579 1.341 . S
C1014 C398 1.299 . S
C1023 C615 1.360 . S
C1025 C326 1.337 . S
C1034 C362 1.299 . S
C1036 C542 1.295 . S
