# Generated by pormake.
# Topology pcl, (4)-cn, num edge types: 1
# Building blocks:
#     Node 0, Type 0, BuildingBlock: AZAVOO_clean_sbu_0, # of connection points: 4
#     Node 1, Type 0, BuildingBlock: AZAVOO_clean_sbu_0, # of connection points: 4
#     Node 2, Type 0, BuildingBlock: AZAVOO_clean_sbu_0, # of connection points: 4
#     Node 3, Type 0, BuildingBlock: AZAVOO_clean_sbu_0, # of connection points: 4
#     Node 4, Type 0, BuildingBlock: AZAVOO_clean_sbu_0, # of connection points: 4
#     Node 5, Type 0, BuildingBlock: AZAVOO_clean_sbu_0, # of connection points: 4
#     Node 6, Type 0, BuildingBlock: AZAVOO_clean_sbu_0, # of connection points: 4
#     Node 7, Type 0, BuildingBlock: AZAVOO_clean_sbu_0, # of connection points: 4
#     Node 8, Type 0, BuildingBlock: AZAVOO_clean_sbu_0, # of connection points: 4
#     Node 9, Type 0, BuildingBlock: AZAVOO_clean_sbu_0, # of connection points: 4
#     Node 10, Type 0, BuildingBlock: AZAVOO_clean_sbu_0, # of connection points: 4
#     Node 11, Type 0, BuildingBlock: AZAVOO_clean_sbu_0, # of connection points: 4
#     Node 12, Type 0, BuildingBlock: AZAVOO_clean_sbu_0, # of connection points: 4
#     Node 13, Type 0, BuildingBlock: AZAVOO_clean_sbu_0, # of connection points: 4
#     Node 14, Type 0, BuildingBlock: AZAVOO_clean_sbu_0, # of connection points: 4
#     Node 15, Type 0, BuildingBlock: AZAVOO_clean_sbu_0, # of connection points: 4
#     Edge 16, Type (0, 0), BuildingBlock: XUDNAN_clean_linker_2, # of connection points: 2
#     Edge 17, Type (0, 0), BuildingBlock: XUDNAN_clean_linker_2, # of connection points: 2
#     Edge 18, Type (0, 0), BuildingBlock: XUDNAN_clean_linker_2, # of connection points: 2
#     Edge 19, Type (0, 0), BuildingBlock: XUDNAN_clean_linker_2, # of connection points: 2
#     Edge 20, Type (0, 0), BuildingBlock: XUDNAN_clean_linker_2, # of connection points: 2
#     Edge 21, Type (0, 0), BuildingBlock: XUDNAN_clean_linker_2, # of connection points: 2
#     Edge 22, Type (0, 0), BuildingBlock: XUDNAN_clean_linker_2, # of connection points: 2
#     Edge 23, Type (0, 0), BuildingBlock: XUDNAN_clean_linker_2, # of connection points: 2
#     Edge 24, Type (0, 0), BuildingBlock: XUDNAN_clean_linker_2, # of connection points: 2
#     Edge 25, Type (0, 0), BuildingBlock: XUDNAN_clean_linker_2, # of connection points: 2
#     Edge 26, Type (0, 0), BuildingBlock: XUDNAN_clean_linker_2, # of connection points: 2
#     Edge 27, Type (0, 0), BuildingBlock: XUDNAN_clean_linker_2, # of connection points: 2
#     Edge 28, Type (0, 0), BuildingBlock: XUDNAN_clean_linker_2, # of connection points: 2
#     Edge 29, Type (0, 0), BuildingBlock: XUDNAN_clean_linker_2, # of connection points: 2
#     Edge 30, Type (0, 0), BuildingBlock: XUDNAN_clean_linker_2, # of connection points: 2
#     Edge 31, Type (0, 0), BuildingBlock: XUDNAN_clean_linker_2, # of connection points: 2
#     Edge 32, Type (0, 0), BuildingBlock: XUDNAN_clean_linker_2, # of connection points: 2
#     Edge 33, Type (0, 0), BuildingBlock: XUDNAN_clean_linker_2, # of connection points: 2
#     Edge 34, Type (0, 0), BuildingBlock: XUDNAN_clean_linker_2, # of connection points: 2
#     Edge 35, Type (0, 0), BuildingBlock: XUDNAN_clean_linker_2, # of connection points: 2
#     Edge 36, Type (0, 0), BuildingBlock: XUDNAN_clean_linker_2, # of connection points: 2
#     Edge 37, Type (0, 0), BuildingBlock: XUDNAN_clean_linker_2, # of connection points: 2
#     Edge 38, Type (0, 0), BuildingBlock: XUDNAN_clean_linker_2, # of connection points: 2
#     Edge 39, Type (0, 0), BuildingBlock: XUDNAN_clean_linker_2, # of connection points: 2
#     Edge 40, Type (0, 0), BuildingBlock: XUDNAN_clean_linker_2, # of connection points: 2
#     Edge 41, Type (0, 0), BuildingBlock: XUDNAN_clean_linker_2, # of connection points: 2
#     Edge 42, Type (0, 0), BuildingBlock: XUDNAN_clean_linker_2, # of connection points: 2
#     Edge 43, Type (0, 0), BuildingBlock: XUDNAN_clean_linker_2, # of connection points: 2
#     Edge 44, Type (0, 0), BuildingBlock: XUDNAN_clean_linker_2, # of connection points: 2
#     Edge 45, Type (0, 0), BuildingBlock: XUDNAN_clean_linker_2, # of connection points: 2
#     Edge 46, Type (0, 0), BuildingBlock: XUDNAN_clean_linker_2, # of connection points: 2
#     Edge 47, Type (0, 0), BuildingBlock: XUDNAN_clean_linker_2, # of connection points: 2
# Relax obj value: 0.076
# Max RMSD: 0.072
# Mean RMSD: 0.071
data_MOF--net-pcl--node1-AZAVOO_clean_sbu_0--edge1-XUDNAN_clean_linker_2
_symmetry_space_group_name_H-M    P1
_symmetry_Int_Tables_number       1
_symmetry_cell_setting            triclinic
loop_
_symmetry_equiv_pos_as_xyz
'x, y, z'
_cell_length_a     39.386687
_cell_length_b     52.739059
_cell_length_c     46.265994
_cell_angle_alpha  89.97631
_cell_angle_beta   90.110456
_cell_angle_gamma 89.847438
loop_
_atom_site_label
_atom_site_type_symbol
_atom_site_fract_x
_atom_site_fract_y
_atom_site_fract_z
_atom_type_partial_charge
Mg0 Mg 0.18149 0.36013 0.06505 0.0
O1 O 0.12477 0.35078 0.06968 0.0
O2 O 0.1019 0.35018 0.02539 0.0
Mg3 Mg 0.1437 0.35805 -0.00767 0.0
C4 C 0.09931 0.34815 0.05279 0.0
C5 C 0.20727 0.37034 0.12456 0.0
O6 O 0.21996 0.38751 0.10708 0.0
O7 O 0.19312 0.31903 0.05007 0.0
O8 O 0.17268 0.32209 0.00506 0.0
O9 O 0.17009 0.40207 0.06507 0.0
O10 O 0.1717 0.3789 0.02558 0.0
C11 C 0.18843 0.30979 0.02477 0.0
C12 C 0.16627 0.40061 0.03739 0.0
O13 O 0.19009 0.35236 0.11353 0.0
Mg14 Mg 0.81024 0.61406 0.57182 0.0
O15 O 0.86757 0.62087 0.57604 0.0
O16 O 0.89054 0.61521 0.53235 0.0
Mg17 Mg 0.84778 0.60636 0.50026 0.0
C18 C 0.8933 0.62015 0.55928 0.0
C19 C 0.7767 0.61393 0.62782 0.0
O20 O 0.76019 0.59932 0.60961 0.0
O21 O 0.80329 0.65327 0.55182 0.0
O22 O 0.82376 0.64605 0.50751 0.0
O23 O 0.81856 0.57324 0.57947 0.0
O24 O 0.81806 0.59021 0.53584 0.0
C25 C 0.80956 0.66061 0.52607 0.0
C26 C 0.82271 0.57052 0.55196 0.0
O27 O 0.80093 0.62731 0.61806 0.0
Mg28 Mg 0.18239 0.60401 0.91244 0.0
O29 O 0.1255 0.61274 0.90872 0.0
O30 O 0.1027 0.60867 0.9527 0.0
Mg31 Mg 0.14541 0.59878 0.98459 0.0
C32 C 0.09995 0.61328 0.92568 0.0
C33 C 0.21485 0.60267 0.85541 0.0
O34 O 0.23045 0.58679 0.8729 0.0
O35 O 0.19154 0.64326 0.93162 0.0
O36 O 0.17137 0.63747 0.97632 0.0
O37 O 0.17177 0.56318 0.90615 0.0
O38 O 0.17398 0.58123 0.94915 0.0
C39 C 0.18603 0.65122 0.95727 0.0
C40 C 0.16812 0.5613 0.93382 0.0
O41 O 0.19161 0.61669 0.86587 0.0
Mg42 Mg 0.80912 0.36665 0.42541 0.0
O43 O 0.86612 0.3594 0.42139 0.0
O44 O 0.89047 0.35894 0.46496 0.0
Mg45 Mg 0.84766 0.36504 0.49778 0.0
C46 C 0.89228 0.35729 0.4375 0.0
C47 C 0.79239 0.34525 0.35792 0.0
O48 O 0.77376 0.32594 0.36617 0.0
O49 O 0.80031 0.32497 0.43959 0.0
O50 O 0.82132 0.32821 0.48437 0.0
O51 O 0.81769 0.40869 0.42595 0.0
O52 O 0.81688 0.38523 0.46533 0.0
C53 C 0.80611 0.31557 0.46469 0.0
C54 C 0.82122 0.40715 0.45366 0.0
O55 O 0.80548 0.35991 0.37666 0.0
Mg56 Mg 0.7835 0.61065 0.89433 0.0
O57 O 0.8406 0.61958 0.8903 0.0
O58 O 0.84538 0.65221 0.85967 0.0
Mg59 Mg 0.79259 0.66492 0.84495 0.0
C60 C 0.8586 0.63552 0.87627 0.0
C61 C 0.77967 0.56079 0.92452 0.0
O62 O 0.76019 0.55969 0.90149 0.0
O63 O 0.77602 0.64493 0.92442 0.0
O64 O 0.77884 0.67597 0.89156 0.0
O65 O 0.78558 0.58567 0.85542 0.0
O66 O 0.77446 0.62658 0.85319 0.0
C67 C 0.77398 0.66839 0.91749 0.0
C68 C 0.77934 0.60548 0.8399 0.0
O69 O 0.79364 0.58184 0.9308 0.0
Mg70 Mg 0.20635 0.36677 0.39211 0.0
O71 O 0.14911 0.35807 0.38994 0.0
O72 O 0.14296 0.32592 0.3588 0.0
Mg73 Mg 0.19503 0.31378 0.34184 0.0
C74 C 0.13052 0.34226 0.37622 0.0
C75 C 0.18793 0.41499 0.42891 0.0
O76 O 0.17779 0.42285 0.40336 0.0
O77 O 0.21469 0.33173 0.42056 0.0
O78 O 0.21082 0.30079 0.38777 0.0
O79 O 0.20243 0.3933 0.35483 0.0
O80 O 0.21287 0.35248 0.34985 0.0
C81 C 0.21639 0.30832 0.41364 0.0
C82 C 0.20724 0.37415 0.33785 0.0
O83 O 0.19923 0.39245 0.43158 0.0
Mg84 Mg 0.78647 0.36712 0.09215 0.0
O85 O 0.84189 0.35311 0.09303 0.0
O86 O 0.84377 0.31919 0.12209 0.0
Mg87 Mg 0.79004 0.31045 0.13804 0.0
C88 C 0.85831 0.33532 0.10567 0.0
C89 C 0.80059 0.41792 0.05907 0.0
O90 O 0.79859 0.42649 0.08566 0.0
O91 O 0.77249 0.33494 0.06098 0.0
O92 O 0.77217 0.30201 0.09146 0.0
O93 O 0.7964 0.39004 0.13182 0.0
O94 O 0.77777 0.35069 0.13298 0.0
C95 C 0.76745 0.31148 0.0663 0.0
C96 C 0.78861 0.37021 0.14685 0.0
O97 O 0.79777 0.39419 0.05459 0.0
Mg98 Mg 0.21029 0.60953 0.58887 0.0
O99 O 0.1532 0.61858 0.59378 0.0
O100 O 0.14949 0.65126 0.6245 0.0
Mg101 Mg 0.20262 0.6636 0.63844 0.0
C102 C 0.13571 0.63469 0.60815 0.0
C103 C 0.21888 0.56132 0.55762 0.0
O104 O 0.24109 0.56263 0.57879 0.0
O105 O 0.21675 0.64381 0.55876 0.0
O106 O 0.21502 0.675 0.59146 0.0
O107 O 0.20923 0.58411 0.62725 0.0
O108 O 0.22008 0.62502 0.63005 0.0
C109 C 0.21898 0.66729 0.56546 0.0
C110 C 0.21561 0.60371 0.64304 0.0
O111 O 0.20036 0.58067 0.55261 0.0
Mg112 Mg 0.67874 0.86292 0.06882 0.0
O113 O 0.62289 0.86224 0.05488 0.0
O114 O 0.6197 0.87211 0.00801 0.0
Mg115 Mg 0.67399 0.87844 -0.00822 0.0
C116 C 0.60566 0.86615 0.03192 0.0
C117 C 0.68491 0.84029 0.13138 0.0
O118 O 0.71724 0.83974 0.12447 0.0
O119 O 0.68781 0.82451 0.04712 0.0
O120 O 0.68781 0.83659 0.00081 0.0
O121 O 0.67524 0.90393 0.07845 0.0
O122 O 0.68998 0.8891 0.03567 0.0
C123 C 0.69159 0.81956 0.02027 0.0
C124 C 0.68305 0.90836 0.0518 0.0
O125 O 0.6632 0.84619 0.11216 0.0
Mg126 Mg 0.30526 0.10802 0.55783 0.0
O127 O 0.36249 0.11462 0.56097 0.0
O128 O 0.38554 0.11551 0.51698 0.0
Mg129 Mg 0.34196 0.10994 0.48474 0.0
C130 C 0.38816 0.11682 0.54441 0.0
C131 C 0.29954 0.13094 0.62603 0.0
O132 O 0.29503 0.15465 0.6182 0.0
O133 O 0.29656 0.15005 0.54442 0.0
O134 O 0.31617 0.14656 0.49925 0.0
O135 O 0.31253 0.06567 0.55578 0.0
O136 O 0.3113 0.09014 0.51729 0.0
C137 C 0.30164 0.15934 0.51917 0.0
C138 C 0.31485 0.06781 0.52804 0.0
O139 O 0.30268 0.11372 0.60696 0.0
Mg140 Mg 0.68968 0.11275 0.91934 0.0
O141 O 0.63132 0.11285 0.92569 0.0
O142 O 0.6218 0.10927 0.97317 0.0
Mg143 Mg 0.67199 0.10996 -0.00244 0.0
C144 C 0.61112 0.11082 0.94717 0.0
C145 C 0.6926 0.10277 0.85476 0.0
O146 O 0.70695 0.08309 0.86716 0.0
O147 O 0.69301 0.15516 0.93309 0.0
O148 O 0.68333 0.14935 0.98017 0.0
O149 O 0.69001 0.06971 0.92163 0.0
O150 O 0.69681 0.09431 0.95942 0.0
C151 C 0.69006 0.16384 0.95886 0.0
C152 C 0.69394 0.0718 0.94922 0.0
O153 O 0.68254 0.12107 0.87056 0.0
Mg154 Mg 0.30983 0.85979 0.40772 0.0
O155 O 0.36557 0.85686 0.42208 0.0
O156 O 0.36854 0.86753 0.46876 0.0
Mg157 Mg 0.31473 0.8758 0.48469 0.0
C158 C 0.38262 0.86066 0.44518 0.0
C159 C 0.30175 0.83865 0.34496 0.0
O160 O 0.26955 0.8396 0.35224 0.0
O161 O 0.29809 0.8218 0.4298 0.0
O162 O 0.29921 0.83438 0.47592 0.0
O163 O 0.31723 0.90041 0.39785 0.0
O164 O 0.30048 0.88672 0.44055 0.0
C165 C 0.29441 0.81726 0.45678 0.0
C166 C 0.31017 0.90536 0.42453 0.0
O167 O 0.32419 0.84266 0.36419 0.0
Mg168 Mg 0.28839 0.10784 0.89149 0.0
O169 O 0.34564 0.11064 0.89915 0.0
O170 O 0.36614 0.14401 0.87523 0.0
Mg171 Mg 0.32081 0.16317 0.85251 0.0
C172 C 0.37033 0.12481 0.89169 0.0
C173 C 0.2653 0.05864 0.91907 0.0
O174 O 0.24814 0.06056 0.89477 0.0
O175 O 0.2795 0.1404 0.92361 0.0
O176 O 0.29653 0.17318 0.89659 0.0
O177 O 0.29703 0.08548 0.85135 0.0
O178 O 0.29277 0.12716 0.8516 0.0
C179 C 0.28355 0.16423 0.91979 0.0
C180 C 0.29803 0.10663 0.8372 0.0
O181 O 0.2849 0.07676 0.92614 0.0
Mg182 Mg 0.70291 0.86312 0.39362 0.0
O183 O 0.64756 0.85553 0.40504 0.0
O184 O 0.62965 0.82075 0.38214 0.0
Mg185 Mg 0.67557 0.80447 0.35767 0.0
C186 C 0.62436 0.83959 0.39888 0.0
C187 C 0.71352 0.91654 0.41601 0.0
O188 O 0.72352 0.91679 0.38894 0.0
O189 O 0.71969 0.83209 0.42588 0.0
O190 O 0.70423 0.79795 0.40027 0.0
O191 O 0.68603 0.88283 0.35299 0.0
O192 O 0.69866 0.84209 0.35519 0.0
C193 C 0.71819 0.80801 0.42244 0.0
C194 C 0.68812 0.86107 0.34027 0.0
O195 O 0.70397 0.89555 0.42687 0.0
Mg196 Mg 0.28311 0.85893 0.08193 0.0
O197 O 0.33959 0.85526 0.07141 0.0
O198 O 0.36109 0.82239 0.09585 0.0
Mg199 Mg 0.31734 0.80399 0.1211 0.0
C200 C 0.3645 0.84103 0.07847 0.0
C201 C 0.29129 0.90966 0.04616 0.0
O202 O 0.31202 0.91489 0.06761 0.0
O203 O 0.2713 0.82542 0.05173 0.0
O204 O 0.29019 0.79314 0.07888 0.0
O205 O 0.29587 0.88162 0.12173 0.0
O206 O 0.28961 0.84004 0.12128 0.0
C207 C 0.2755 0.80166 0.05617 0.0
C208 C 0.29671 0.86024 0.13547 0.0
O209 O 0.27662 0.88817 0.04557 0.0
Mg210 Mg 0.70304 0.10863 0.58889 0.0
O211 O 0.64612 0.11935 0.58819 0.0
O212 O 0.64002 0.1513 0.61963 0.0
Mg213 Mg 0.69157 0.16218 0.63853 0.0
C214 C 0.62763 0.13549 0.60157 0.0
C215 C 0.69255 0.05929 0.55218 0.0
O216 O 0.68896 0.05018 0.57841 0.0
O217 O 0.71541 0.1433 0.56087 0.0
O218 O 0.71053 0.17443 0.59334 0.0
O219 O 0.69346 0.08276 0.626 0.0
O220 O 0.70744 0.12286 0.63152 0.0
C221 C 0.71753 0.16669 0.56783 0.0
C222 C 0.69786 0.10185 0.6431 0.0
O223 O 0.69724 0.08302 0.54893 0.0
H224 H 0.0373 0.36051 0.0299 0.0
H225 H 0.08497 0.32494 0.10427 0.0
H226 H 0.02832 0.31673 0.12524 0.0
H227 H 0.97184 0.39211 0.07002 0.0
H228 H 0.94003 0.38818 0.04233 0.0
H229 H 0.98419 0.39013 0.03259 0.0
H230 H 0.97967 0.34712 0.00581 0.0
H231 H 0.93549 0.34502 0.01549 0.0
H232 H 0.96425 0.31969 0.02494 0.0
H233 H 0.96646 0.31161 0.13747 0.0
H234 H 0.90406 0.31298 0.14219 0.0
H235 H 0.89694 0.35434 0.06124 0.0
C236 C 0.0358 0.35079 0.05049 0.0
C237 C 0.06549 0.34311 0.06536 0.0
C238 C 0.06253 0.33093 0.09251 0.0
C239 C 0.03049 0.32613 0.10453 0.0
C240 C 0.00173 0.33396 0.0893 0.0
C241 C 0.00409 0.34628 0.06303 0.0
C242 C 0.96936 0.35379 0.05171 0.0
C243 C 0.96618 0.38277 0.04902 0.0
C244 C 0.96175 0.34061 0.02278 0.0
C245 C 0.94703 0.34364 0.07566 0.0
C246 C 0.96619 0.33202 0.09697 0.0
C247 C 0.95121 0.32076 0.12099 0.0
C248 C 0.91574 0.32156 0.12341 0.0
C249 C 0.89563 0.33384 0.10214 0.0
C250 C 0.91163 0.34499 0.07797 0.0
H251 H 0.95496 0.60725 0.53577 0.0
H252 H 0.90905 0.64311 0.61065 0.0
H253 H 0.96606 0.6505 0.63125 0.0
H254 H 0.02152 0.57517 0.57489 0.0
H255 H 0.05269 0.57943 0.54684 0.0
H256 H 0.00832 0.57741 0.53764 0.0
H257 H 0.01193 0.62065 0.51122 0.0
H258 H 0.05632 0.62278 0.52029 0.0
H259 H 0.02769 0.64797 0.53038 0.0
H260 H 0.02788 0.65497 0.64309 0.0
H261 H 0.09036 0.65466 0.64652 0.0
H262 H 0.09616 0.61419 0.56494 0.0
C263 C 0.95687 0.61678 0.55644 0.0
C264 C 0.92751 0.62474 0.57153 0.0
C265 C 0.93115 0.63683 0.5987 0.0
C266 C 0.96342 0.64115 0.61055 0.0
C267 C 0.99178 0.63302 0.59513 0.0
C268 C 0.98885 0.62095 0.56876 0.0
C269 C 0.02338 0.61364 0.55691 0.0
C270 C 0.02666 0.5847 0.5539 0.0
C271 C 0.03022 0.62707 0.52799 0.0
C272 C 0.04621 0.62366 0.58065 0.0
C273 C 0.02745 0.63489 0.6024 0.0
C274 C 0.04284 0.64611 0.62628 0.0
C275 C 0.07836 0.64589 0.62797 0.0
C276 C 0.09818 0.63432 0.60606 0.0
C277 C 0.08174 0.62295 0.58218 0.0
H278 H 0.89696 0.61389 0.91963 0.0
H279 H 0.90504 0.65515 0.8387 0.0
H280 H 0.96747 0.65378 0.84249 0.0
H281 H 0.96668 0.64535 0.95503 0.0
H282 H 0.98089 0.61734 0.97388 0.0
H283 H 0.93673 0.62095 0.96453 0.0
H284 H 0.93828 0.57799 0.9374 0.0
H285 H 0.98244 0.57424 0.94669 0.0
H286 H 0.96932 0.573 0.90937 0.0
H287 H 0.02895 0.64705 0.85428 0.0
H288 H 0.08548 0.63736 0.87471 0.0
H289 H 0.03765 0.60225 0.94909 0.0
C290 C 0.91187 0.62254 0.90266 0.0
C291 C 0.89608 0.63456 0.87882 0.0
C292 C 0.91652 0.6459 0.85722 0.0
C293 C 0.95203 0.64517 0.85912 0.0
C294 C 0.96677 0.63324 0.8829 0.0
C295 C 0.94739 0.62229 0.9044 0.0
C296 C 0.96966 0.61123 0.92803 0.0
C297 C 0.9631 0.62452 0.95708 0.0
C298 C 0.96462 0.5824 0.9305 0.0
C299 C 0.00454 0.61758 0.91634 0.0
C300 C 0.00228 0.63011 0.89018 0.0
C301 C 0.03107 0.63738 0.87485 0.0
C302 C 0.06306 0.63174 0.88659 0.0
C303 C 0.06602 0.61919 0.91356 0.0
C304 C 0.03626 0.61212 0.92858 0.0
H305 H 0.09473 0.36061 0.42283 0.0
H306 H 0.08214 0.3249 0.33896 0.0
H307 H 0.02002 0.32519 0.34552 0.0
H308 H 0.02835 0.32564 0.45819 0.0
H309 H 0.01467 0.35193 0.4802 0.0
H310 H 0.05821 0.34984 0.4686 0.0
H311 H 0.05365 0.39455 0.44567 0.0
H312 H 0.01011 0.39681 0.45725 0.0
H313 H 0.02059 0.40096 0.41964 0.0
H314 H 0.95946 0.33012 0.36046 0.0
H315 H 0.90416 0.33727 0.38407 0.0
H316 H 0.95573 0.36762 0.45948 0.0
C317 C 0.07886 0.35301 0.40579 0.0
C318 C 0.09327 0.34284 0.38032 0.0
C319 C 0.07169 0.33274 0.35868 0.0
C320 C 0.03636 0.33287 0.36216 0.0
C321 C 0.02299 0.34291 0.38754 0.0
C322 C 0.04351 0.35262 0.4091 0.0
C323 C 0.02258 0.36152 0.43465 0.0
C324 C 0.03149 0.34632 0.46203 0.0
C325 C 0.027 0.39016 0.43958 0.0
C326 C 0.98712 0.35538 0.42399 0.0
C327 C 0.98797 0.34486 0.39666 0.0
C328 C 0.95845 0.3382 0.38193 0.0
C329 C 0.92716 0.34239 0.39551 0.0
C330 C 0.92563 0.35285 0.42368 0.0
C331 C 0.9561 0.35932 0.43808 0.0
H332 H 0.42689 0.82694 0.09993 0.0
H333 H 0.37874 0.86794 0.02946 0.0
H334 H 0.43511 0.87774 0.00913 0.0
H335 H 0.49575 0.87036 0.10923 0.0
H336 H 0.52651 0.8461 0.11774 0.0
H337 H 0.48236 0.8412 0.12599 0.0
H338 H 0.48285 0.79961 0.09617 0.0
H339 H 0.52703 0.80439 0.08783 0.0
H340 H 0.49663 0.80034 0.05904 0.0
H341 H 0.4967 0.88283 -0.00376 0.0
H342 H 0.55921 0.88512 -0.00666 0.0
H343 H 0.56725 0.84258 0.07346 0.0
C344 C 0.42819 0.83779 0.08008 0.0
C345 C 0.39839 0.84652 0.06617 0.0
C346 C 0.40121 0.86103 0.0405 0.0
C347 C 0.43311 0.86664 0.02873 0.0
C348 C 0.46197 0.85782 0.04303 0.0
C349 C 0.45985 0.84388 0.06826 0.0
C350 C 0.49481 0.83761 0.08002 0.0
C351 C 0.50016 0.84953 0.11002 0.0
C352 C 0.50067 0.80877 0.0808 0.0
C353 C 0.51691 0.85019 0.05744 0.0
C354 C 0.49748 0.86152 0.03614 0.0
C355 C 0.51219 0.87408 0.01283 0.0
C356 C 0.54773 0.87522 0.01134 0.0
C357 C 0.56817 0.86412 0.03321 0.0
C358 C 0.55238 0.85141 0.05649 0.0
H359 H 0.59126 0.11666 0.55527 0.0
H360 H 0.57963 0.1537 0.6385 0.0
H361 H 0.51748 0.1526 0.63288 0.0
H362 H 0.52209 0.15012 0.52015 0.0
H363 H 0.50889 0.12314 0.49907 0.0
H364 H 0.55268 0.12636 0.50971 0.0
H365 H 0.5508 0.082 0.53373 0.0
H366 H 0.50698 0.07867 0.52322 0.0
H367 H 0.51898 0.07546 0.56066 0.0
H368 H 0.45685 0.14607 0.61952 0.0
H369 H 0.40108 0.13743 0.59734 0.0
H370 H 0.45124 0.10683 0.52142 0.0
C371 C 0.5756 0.12452 0.57229 0.0
C372 C 0.59034 0.13523 0.59736 0.0
C373 C 0.56898 0.14552 0.61904 0.0
C374 C 0.53361 0.1449 0.61612 0.0
C375 C 0.5199 0.1342 0.59123 0.0
C376 C 0.54013 0.12443 0.56952 0.0
C377 C 0.51872 0.11461 0.54466 0.0
C378 C 0.52603 0.12945 0.51675 0.0
C379 C 0.5242 0.08598 0.54033 0.0
C380 C 0.48336 0.12025 0.55594 0.0
C381 C 0.4847 0.13132 0.58297 0.0
C382 C 0.45543 0.13758 0.59826 0.0
C383 C 0.42388 0.13252 0.58552 0.0
C384 C 0.4218 0.1216 0.5576 0.0
C385 C 0.45202 0.11545 0.54266 0.0
H386 H 0.57356 0.13185 0.9027 0.0
H387 H 0.56493 0.08651 0.98066 0.0
H388 H 0.50298 0.08411 0.9738 0.0
H389 H 0.49815 0.16854 0.9151 0.0
H390 H 0.48609 0.17016 0.87754 0.0
H391 H 0.53019 0.16714 0.88736 0.0
H392 H 0.53528 0.12687 0.8556 0.0
H393 H 0.49119 0.12978 0.84565 0.0
H394 H 0.50668 0.10076 0.86156 0.0
H395 H 0.44244 0.08633 0.95887 0.0
H396 H 0.38593 0.09531 0.93835 0.0
H397 H 0.43237 0.14128 0.87134 0.0
C398 C 0.5586 0.12124 0.91812 0.0
C399 C 0.57406 0.10927 0.94215 0.0
C400 C 0.55361 0.09589 0.96215 0.0
C401 C 0.51842 0.09433 0.95839 0.0
C402 C 0.5039 0.10647 0.93467 0.0
C403 C 0.52319 0.11985 0.91497 0.0
C404 C 0.50078 0.13218 0.8922 0.0
C405 C 0.504 0.16122 0.89312 0.0
C406 C 0.50898 0.12177 0.86196 0.0
C407 C 0.46598 0.12362 0.90227 0.0
C408 C 0.46852 0.10858 0.92662 0.0
C409 C 0.44007 0.09814 0.93983 0.0
C410 C 0.40806 0.10332 0.92795 0.0
C411 C 0.40463 0.11906 0.90328 0.0
C412 C 0.4341 0.1293 0.89031 0.0
H413 H 0.42163 0.83758 0.4034 0.0
H414 H 0.42845 0.87797 0.48501 0.0
H415 H 0.4909 0.8756 0.48271 0.0
H416 H 0.4932 0.79502 0.41686 0.0
H417 H 0.50708 0.79553 0.37976 0.0
H418 H 0.46277 0.79972 0.38817 0.0
H419 H 0.46228 0.84218 0.35998 0.0
H420 H 0.50657 0.83816 0.35153 0.0
H421 H 0.49229 0.86657 0.36948 0.0
H422 H 0.55231 0.87163 0.47001 0.0
H423 H 0.60903 0.86393 0.44917 0.0
H424 H 0.5628 0.82426 0.377 0.0
C425 C 0.43623 0.84579 0.42089 0.0
C426 C 0.42007 0.858 0.44438 0.0
C427 C 0.44017 0.86842 0.46685 0.0
C428 C 0.47569 0.86722 0.46572 0.0
C429 C 0.49077 0.85527 0.44217 0.0
C430 C 0.47174 0.8445 0.4203 0.0
C431 C 0.49435 0.83291 0.39732 0.0
C432 C 0.48903 0.80408 0.39543 0.0
C433 C 0.48852 0.84573 0.36784 0.0
C434 C 0.52906 0.83922 0.40949 0.0
C435 C 0.52636 0.85221 0.43532 0.0
C436 C 0.55479 0.8612 0.44998 0.0
C437 C 0.58687 0.85682 0.43792 0.0
C438 C 0.59031 0.84333 0.41161 0.0
C439 C 0.56097 0.83427 0.39738 0.0
H440 H 0.19699 0.33585 0.16935 0.0
H441 H 0.22179 0.41454 0.15152 0.0
H442 H 0.22303 0.42354 0.20351 0.0
H443 H 0.14363 0.34722 0.23144 0.0
H444 H 0.15892 0.32033 0.25175 0.0
H445 H 0.15922 0.31953 0.21281 0.0
H446 H 0.22366 0.30964 0.21333 0.0
H447 H 0.2235 0.31028 0.25227 0.0
H448 H 0.25211 0.33046 0.23249 0.0
H449 H 0.21925 0.42517 0.25654 0.0
H450 H 0.21648 0.41827 0.30905 0.0
H451 H 0.19803 0.3381 0.29471 0.0
C452 C 0.20273 0.35492 0.17647 0.0
C453 C 0.20923 0.37449 0.15625 0.0
C454 C 0.21688 0.39917 0.16645 0.0
C455 C 0.21749 0.40456 0.19601 0.0
C456 C 0.21086 0.38503 0.21534 0.0
C457 C 0.2041 0.36061 0.20619 0.0
C458 C 0.19904 0.34312 0.23198 0.0
C459 C 0.16306 0.33189 0.23199 0.0
C460 C 0.2262 0.32213 0.23254 0.0
C461 C 0.20385 0.36165 0.25684 0.0
C462 C 0.2102 0.38575 0.24654 0.0
C463 C 0.21457 0.40635 0.26494 0.0
C464 C 0.2128 0.40224 0.29476 0.0
C465 C 0.2072 0.37765 0.30606 0.0
C466 C 0.20262 0.35707 0.28677 0.0
H467 H 0.79943 0.6441 0.67302 0.0
H468 H 0.74145 0.57617 0.6537 0.0
H469 H 0.73611 0.56727 0.70551 0.0
H470 H 0.84518 0.61978 0.73316 0.0
H471 H 0.8428 0.64827 0.75458 0.0
H472 H 0.84166 0.65026 0.71572 0.0
H473 H 0.78473 0.67485 0.71811 0.0
H474 H 0.78585 0.67314 0.75701 0.0
H475 H 0.74947 0.66139 0.73754 0.0
H476 H 0.74168 0.5629 0.75829 0.0
H477 H 0.75067 0.56678 0.81087 0.0
H478 H 0.80042 0.63919 0.79794 0.0
C479 C 0.78528 0.62756 0.67977 0.0
C480 C 0.77097 0.61081 0.65923 0.0
C481 C 0.75257 0.58936 0.66892 0.0
C482 C 0.74949 0.58403 0.69836 0.0
C483 C 0.76438 0.60055 0.718 0.0
C484 C 0.78129 0.62217 0.70932 0.0
C485 C 0.79439 0.63681 0.7353 0.0
C486 C 0.83332 0.63889 0.73464 0.0
C487 C 0.7776 0.66311 0.73709 0.0
C488 C 0.78266 0.61972 0.75973 0.0
C489 C 0.7658 0.59877 0.74908 0.0
C490 C 0.75432 0.57942 0.76701 0.0
C491 C 0.75972 0.5817 0.79677 0.0
C492 C 0.77584 0.60337 0.80833 0.0
C493 C 0.78747 0.62265 0.7896 0.0
H494 H 0.19237 0.63484 0.81175 0.0
H495 H 0.25152 0.56655 0.82772 0.0
H496 H 0.25874 0.56057 0.77554 0.0
H497 H 0.14898 0.61309 0.74927 0.0
H498 H 0.15098 0.64265 0.72978 0.0
H499 H 0.15112 0.64267 0.76871 0.0
H500 H 0.20729 0.66809 0.7689 0.0
H501 H 0.20719 0.6683 0.72994 0.0
H502 H 0.24345 0.65607 0.74933 0.0
H503 H 0.25497 0.55896 0.72261 0.0
H504 H 0.24634 0.56487 0.67027 0.0
H505 H 0.19394 0.6359 0.68653 0.0
C506 C 0.20717 0.61884 0.80421 0.0
C507 C 0.22128 0.60113 0.82392 0.0
C508 C 0.24049 0.58043 0.81319 0.0
C509 C 0.24471 0.57678 0.78352 0.0
C510 C 0.23006 0.59421 0.7647 0.0
C511 C 0.2122 0.6151 0.77444 0.0
C512 C 0.19927 0.63085 0.74916 0.0
C513 C 0.16027 0.63239 0.74925 0.0
C514 C 0.21526 0.6574 0.74935 0.0
C515 C 0.21213 0.61518 0.72387 0.0
C516 C 0.22952 0.59401 0.73353 0.0
C517 C 0.24195 0.57567 0.71469 0.0
C518 C 0.23676 0.57911 0.68506 0.0
C519 C 0.21986 0.60092 0.6745 0.0
C520 C 0.2075 0.61929 0.69412 0.0
H521 H 0.76516 0.33504 0.1861 0.0
H522 H 0.82452 0.40404 0.1792 0.0
H523 H 0.8336 0.40372 0.23192 0.0
H524 H 0.72319 0.35164 0.25188 0.0
H525 H 0.72366 0.31996 0.26652 0.0
H526 H 0.72316 0.32466 0.22796 0.0
H527 H 0.77762 0.29736 0.2231 0.0
H528 H 0.77828 0.29256 0.26167 0.0
H529 H 0.81486 0.30563 0.24372 0.0
H530 H 0.83568 0.39666 0.28482 0.0
H531 H 0.82896 0.38442 0.33564 0.0
H532 H 0.76691 0.32027 0.30967 0.0
C533 C 0.78032 0.34994 0.19568 0.0
C534 C 0.79429 0.36953 0.17849 0.0
C535 C 0.81357 0.38887 0.19189 0.0
C536 C 0.81897 0.38881 0.22182 0.0
C537 C 0.80478 0.36934 0.23813 0.0
C538 C 0.78574 0.3503 0.22566 0.0
C539 C 0.77231 0.3322 0.24848 0.0
C540 C 0.73326 0.33213 0.24872 0.0
C541 C 0.78663 0.30535 0.24397 0.0
C542 C 0.78657 0.34422 0.27572 0.0
C543 C 0.80544 0.36549 0.26907 0.0
C544 C 0.82099 0.38004 0.29032 0.0
C545 C 0.81696 0.37286 0.31921 0.0
C546 C 0.7973 0.35136 0.32684 0.0
C547 C 0.78211 0.33676 0.30464 0.0
H548 H 0.72071 0.83251 0.30024 0.0
H549 H 0.63478 0.88297 0.3116 0.0
H550 H 0.62006 0.87802 0.25975 0.0
H551 H 0.74577 0.85873 0.23395 0.0
H552 H 0.7604 0.82924 0.21865 0.0
H553 H 0.76082 0.83364 0.25719 0.0
H554 H 0.72438 0.79316 0.26347 0.0
H555 H 0.72368 0.78873 0.22484 0.0
H556 H 0.6844 0.79061 0.24466 0.0
H557 H 0.61607 0.86854 0.20652 0.0
H558 H 0.62777 0.86125 0.15487 0.0
H559 H 0.71984 0.82038 0.17753 0.0
C560 C 0.6984 0.84208 0.29185 0.0
C561 C 0.67845 0.85777 0.30978 0.0
C562 C 0.65014 0.87073 0.29808 0.0
C563 C 0.64151 0.86787 0.26879 0.0
C564 C 0.66187 0.85235 0.25154 0.0
C565 C 0.69008 0.84002 0.26255 0.0
C566 C 0.71019 0.82707 0.23887 0.0
C567 C 0.74643 0.83782 0.23706 0.0
C568 C 0.71068 0.79818 0.24322 0.0
C569 C 0.68922 0.83437 0.21269 0.0
C570 C 0.66094 0.84833 0.22057 0.0
C571 C 0.63809 0.8576 0.20012 0.0
C572 C 0.6449 0.85324 0.1708 0.0
C573 C 0.67477 0.84025 0.16217 0.0
C574 C 0.69677 0.83027 0.18349 0.0
H575 H 0.2897 0.14635 0.79886 0.0
H576 H 0.31959 0.06716 0.80397 0.0
H577 H 0.32517 0.06574 0.75099 0.0
H578 H 0.23905 0.14049 0.73597 0.0
H579 H 0.25099 0.17052 0.72043 0.0
H580 H 0.2519 0.16629 0.75905 0.0
H581 H 0.31507 0.17974 0.76032 0.0
H582 H 0.31429 0.1842 0.7217 0.0
H583 H 0.34536 0.16338 0.73783 0.0
H584 H 0.32398 0.07163 0.69797 0.0
H585 H 0.318 0.08475 0.64733 0.0
H586 H 0.28881 0.16046 0.675 0.0
C587 C 0.29801 0.12886 0.78884 0.0
C588 C 0.30436 0.10687 0.80562 0.0
C589 C 0.31465 0.08425 0.79164 0.0
C590 C 0.31791 0.08324 0.76152 0.0
C591 C 0.31082 0.10503 0.74558 0.0
C592 C 0.30128 0.12749 0.75864 0.0
C593 C 0.29384 0.14779 0.73613 0.0
C594 C 0.25674 0.1568 0.73802 0.0
C595 C 0.31863 0.1701 0.73918 0.0
C596 C 0.30024 0.13307 0.70844 0.0
C597 C 0.31011 0.10848 0.71456 0.0
C598 C 0.31653 0.09089 0.69287 0.0
C599 C 0.3129 0.09857 0.66408 0.0
C600 C 0.30292 0.1237 0.65699 0.0
C601 C 0.29662 0.14118 0.67961 0.0
H602 H 0.70444 0.13825 0.81175 0.0
H603 H 0.66436 0.06305 0.82769 0.0
H604 H 0.65677 0.05655 0.77536 0.0
H605 H 0.6512 0.15302 0.74664 0.0
H606 H 0.68556 0.16872 0.72827 0.0
H607 H 0.68345 0.16924 0.76719 0.0
H608 H 0.74409 0.1503 0.76997 0.0
H609 H 0.7463 0.14957 0.73112 0.0
H610 H 0.75322 0.12092 0.75159 0.0
H611 H 0.65827 0.05612 0.72225 0.0
H612 H 0.66898 0.06164 0.67031 0.0
H613 H 0.70989 0.13667 0.68681 0.0
C614 C 0.69314 0.12079 0.8041 0.0
C615 C 0.68447 0.10124 0.82365 0.0
C616 C 0.67087 0.07828 0.81299 0.0
C617 C 0.6664 0.07444 0.78333 0.0
C618 C 0.67594 0.09369 0.76448 0.0
C619 C 0.68899 0.11645 0.77427 0.0
C620 C 0.69994 0.13294 0.74898 0.0
C621 C 0.67877 0.15743 0.7477 0.0
C622 C 0.73816 0.13877 0.75052 0.0
C623 C 0.69172 0.11559 0.72369 0.0
C624 C 0.67751 0.09321 0.73327 0.0
C625 C 0.66904 0.07367 0.7144 0.0
C626 C 0.67536 0.07697 0.68489 0.0
C627 C 0.69019 0.0996 0.67438 0.0
C628 C 0.6982 0.11926 0.69411 0.0
H629 H 0.26498 0.83193 0.17597 0.0
H630 H 0.34744 0.88515 0.1644 0.0
H631 H 0.36195 0.88124 0.2165 0.0
H632 H 0.23789 0.85761 0.24296 0.0
H633 H 0.22528 0.8275 0.25789 0.0
H634 H 0.22432 0.83235 0.2194 0.0
H635 H 0.26321 0.7931 0.21245 0.0
H636 H 0.26456 0.78829 0.251 0.0
H637 H 0.30349 0.79166 0.23096 0.0
H638 H 0.36713 0.87112 0.26987 0.0
H639 H 0.35695 0.86205 0.32147 0.0
H640 H 0.26712 0.81897 0.29868 0.0
C641 C 0.28635 0.84251 0.18442 0.0
C642 C 0.30549 0.85857 0.16635 0.0
C643 C 0.33266 0.8727 0.17807 0.0
C644 C 0.34117 0.87042 0.20749 0.0
C645 C 0.32177 0.85432 0.22482 0.0
C646 C 0.29447 0.84104 0.21379 0.0
C647 C 0.27543 0.82718 0.2374 0.0
C648 C 0.23856 0.83674 0.23954 0.0
C649 C 0.27677 0.79834 0.23266 0.0
C650 C 0.29609 0.83487 0.26357 0.0
C651 C 0.32325 0.84995 0.25575 0.0
C652 C 0.34592 0.85938 0.27621 0.0
C653 C 0.34004 0.85396 0.30547 0.0
C654 C 0.31123 0.83978 0.31406 0.0
C655 C 0.28938 0.82978 0.29272 0.0
H656 H 0.26425 0.21307 0.9107 0.0
H657 H 0.27357 0.15655 0.97835 0.0
H658 H 0.25174 0.18779 0.01404 0.0
H659 H 0.28776 0.26766 0.95228 0.0
H660 H 0.25708 0.2879 0.93472 0.0
H661 H 0.27497 0.26136 0.91555 0.0
H662 H 0.21445 0.24424 0.90534 0.0
H663 H 0.19638 0.2707 0.9245 0.0
H664 H 0.18593 0.23879 0.93512 0.0
H665 H 0.2292 0.22711 0.04251 0.0
H666 H 0.2046 0.26815 0.05909 0.0
H667 H 0.20785 0.29606 0.97096 0.0
C668 C 0.26212 0.20724 0.93307 0.0
C669 C 0.27104 0.18246 0.9418 0.0
C670 C 0.26702 0.1755 0.9712 0.0
C671 C 0.25473 0.19314 -0.00839 0.0
C672 C 0.24612 0.2175 0.98214 0.0
C673 C 0.2494 0.22432 0.95342 0.0
C674 C 0.23699 0.25101 0.94802 0.0
C675 C 0.26593 0.26798 0.937 0.0
C676 C 0.20664 0.25118 0.92702 0.0
C677 C 0.22628 0.25837 0.97819 0.0
C678 C 0.23196 0.23907 -0.00217 0.0
C679 C 0.22446 0.24221 0.02718 0.0
C680 C 0.21058 0.26556 0.03644 0.0
C681 C 0.20386 0.28518 0.01629 0.0
C682 C 0.21208 0.28133 0.98691 0.0
H683 H 0.79856 0.67671 0.47084 0.0
H684 H 0.7943 0.70216 0.55991 0.0
H685 H 0.77338 0.74414 0.54338 0.0
H686 H 0.82427 0.73612 0.43825 0.0
H687 H 0.79787 0.73146 0.40685 0.0
H688 H 0.81498 0.70448 0.42585 0.0
H689 H 0.75422 0.68649 0.43218 0.0
H690 H 0.73695 0.7134 0.41325 0.0
H691 H 0.72205 0.70582 0.44903 0.0
H692 H 0.7518 0.78373 0.51599 0.0
H693 H 0.72811 0.81507 0.48113 0.0
H694 H 0.74442 0.76149 0.41142 0.0
C695 C 0.79377 0.69119 0.48693 0.0
C696 C 0.79845 0.68623 0.51666 0.0
C697 C 0.79105 0.70557 0.53699 0.0
C698 C 0.77925 0.72949 0.52779 0.0
C699 C 0.77469 0.73364 0.49824 0.0
C700 C 0.78155 0.71487 0.4782 0.0
C701 C 0.7726 0.72322 0.4479 0.0
C702 C 0.80432 0.72386 0.42858 0.0
C703 C 0.7448 0.70623 0.43484 0.0
C704 C 0.75942 0.74962 0.45389 0.0
C705 C 0.76116 0.75559 0.48292 0.0
C706 C 0.75031 0.77917 0.49322 0.0
C707 C 0.73699 0.79688 0.47332 0.0
C708 C 0.73415 0.79063 0.44366 0.0
C709 C 0.74587 0.76676 0.43402 0.0
H710 H 0.25536 0.75363 0.06831 0.0
H711 H 0.26353 0.80734 -0.00233 0.0
H712 H 0.24109 0.7748 0.96389 0.0
H713 H 0.27942 0.6981 0.02982 0.0
H714 H 0.24945 0.67804 0.04823 0.0
H715 H 0.26635 0.70554 0.06617 0.0
H716 H 0.20526 0.7221 0.0753 0.0
H717 H 0.18815 0.69465 0.05737 0.0
H718 H 0.17659 0.72597 0.04519 0.0
H719 H 0.22017 0.73466 0.93769 0.0
H720 H 0.19887 0.6925 0.92245 0.0
H721 H 0.20166 0.66723 0.01166 0.0
C722 C 0.25261 0.7586 0.0457 0.0
C723 C 0.26154 0.78292 0.03551 0.0
C724 C 0.2569 0.78878 0.00589 0.0
C725 C 0.24426 0.77041 0.98659 0.0
C726 C 0.23589 0.7465 -0.00256 0.0
C727 C 0.23955 0.74077 0.02642 0.0
C728 C 0.22806 0.71408 0.03308 0.0
C729 C 0.25758 0.698 0.04502 0.0
C730 C 0.19771 0.71423 0.05396 0.0
C731 C 0.21764 0.70542 0.00326 0.0
C732 C 0.22254 0.72421 0.98284 0.0
C733 C 0.21591 0.71996 0.95359 0.0
C734 C 0.20391 0.69596 0.94512 0.0
C735 C 0.19824 0.67668 0.9659 0.0
C736 C 0.20516 0.68167 -0.00471 0.0
H737 H 0.74261 0.21388 0.57864 0.0
H738 H 0.71987 0.16227 0.50828 0.0
H739 H 0.73987 0.19449 0.47312 0.0
H740 H 0.71765 0.2713 0.54344 0.0
H741 H 0.75152 0.28952 0.55935 0.0
H742 H 0.73471 0.26248 0.57822 0.0
H743 H 0.79513 0.24298 0.58135 0.0
H744 H 0.81211 0.26993 0.56243 0.0
H745 H 0.81929 0.23839 0.5487 0.0
H746 H 0.76151 0.23438 0.44552 0.0
H747 H 0.78504 0.27581 0.42948 0.0
H748 H 0.79527 0.2985 0.5192 0.0
C749 C 0.74159 0.20928 0.55584 0.0
C750 C 0.7294 0.18558 0.54625 0.0
C751 C 0.72907 0.18032 0.51618 0.0
C752 C 0.74032 0.19853 0.49605 0.0
C753 C 0.75219 0.22178 0.50636 0.0
C754 C 0.75308 0.22697 0.53565 0.0
C755 C 0.76765 0.25289 0.54165 0.0
C756 C 0.74131 0.27005 0.55653 0.0
C757 C 0.80049 0.25091 0.55958 0.0
C758 C 0.7748 0.26166 0.51119 0.0
C759 C 0.76556 0.24372 0.49093 0.0
C760 C 0.76908 0.24841 0.46131 0.0
C761 C 0.78243 0.27198 0.45236 0.0
C762 C 0.79248 0.29033 0.47301 0.0
C763 C 0.78849 0.28483 0.50273 0.0
H764 H 0.71137 0.80488 0.96629 0.0
H765 H 0.69747 0.77603 0.05334 0.0
H766 H 0.71819 0.73388 0.03734 0.0
H767 H 0.68523 0.74918 0.92841 0.0
H768 H 0.71637 0.75311 0.90028 0.0
H769 H 0.69995 0.78043 0.91894 0.0
H770 H 0.76129 0.79375 0.9325 0.0
H771 H 0.77789 0.76635 0.91407 0.0
H772 H 0.78834 0.7717 0.95151 0.0
H773 H 0.74055 0.69425 0.01053 0.0
H774 H 0.76162 0.66187 0.97599 0.0
H775 H 0.76172 0.71865 0.908 0.0
C776 C 0.71238 0.78975 0.98209 0.0
C777 C 0.70257 0.79382 0.01108 0.0
C778 C 0.70474 0.7734 0.03097 0.0
C779 C 0.71653 0.7494 0.02209 0.0
C780 C 0.72625 0.74619 -0.00669 0.0
C781 C 0.72427 0.76593 0.97371 0.0
C782 C 0.73647 0.75802 0.94412 0.0
C783 C 0.7078 0.76031 0.92162 0.0
C784 C 0.76786 0.77336 0.93504 0.0
C785 C 0.7455 0.73064 0.94994 0.0
C786 C 0.73949 0.72399 0.97835 0.0
C787 C 0.74545 0.69935 0.98827 0.0
C788 C 0.75747 0.68108 0.96852 0.0
C789 C 0.76352 0.68763 0.93924 0.0
C790 C 0.75767 0.71287 0.93019 0.0
H791 H 0.28721 0.17496 0.46482 0.0
H792 H 0.28338 0.20032 0.55395 0.0
H793 H 0.2601 0.24183 0.53731 0.0
H794 H 0.31227 0.23284 0.43267 0.0
H795 H 0.28642 0.22818 0.40094 0.0
H796 H 0.30264 0.20121 0.42044 0.0
H797 H 0.24143 0.18391 0.42616 0.0
H798 H 0.22499 0.21087 0.40673 0.0
H799 H 0.20929 0.20369 0.44237 0.0
H800 H 0.23889 0.28167 0.50889 0.0
H801 H 0.22006 0.31384 0.47308 0.0
H802 H 0.23652 0.25953 0.40407 0.0
C803 C 0.2818 0.1892 0.48105 0.0
C804 C 0.28762 0.18448 0.51073 0.0
C805 C 0.27933 0.20356 0.53109 0.0
C806 C 0.26613 0.22715 0.52179 0.0
C807 C 0.26094 0.23109 0.49217 0.0
C808 C 0.26834 0.21238 0.47226 0.0
C809 C 0.26016 0.22056 0.44175 0.0
C810 C 0.29228 0.22071 0.42285 0.0
C811 C 0.23231 0.20376 0.42849 0.0
C812 C 0.24732 0.24708 0.44725 0.0
C813 C 0.24796 0.25304 0.47636 0.0
C814 C 0.2381 0.27701 0.48612 0.0
C815 C 0.22748 0.29518 0.46561 0.0
C816 C 0.22654 0.28921 0.4357 0.0
C817 C 0.23648 0.26473 0.42671 0.0
H818 H 0.72647 0.27077 0.07312 0.0
H819 H 0.77973 0.31372 0.00756 0.0
H820 H 0.76107 0.2827 0.97034 0.0
H821 H 0.74611 0.21051 0.0482 0.0
H822 H 0.70539 0.19706 0.057 0.0
H823 H 0.72108 0.22371 0.07713 0.0
H824 H 0.66628 0.24894 0.06484 0.0
H825 H 0.65046 0.22233 0.04452 0.0
H826 H 0.6539 0.25299 0.02758 0.0
H827 H 0.74087 0.24306 0.94147 0.0
H828 H 0.72055 0.20091 0.92482 0.0
H829 H 0.6778 0.18749 0.00982 0.0
C830 C 0.734 0.27383 0.05088 0.0
C831 C 0.75473 0.2945 0.04322 0.0
C832 C 0.76375 0.29798 0.01385 0.0
C833 C 0.75326 0.28047 -0.00739 0.0
C834 C 0.73313 0.25999 0.00106 0.0
C835 C 0.72325 0.25696 0.02954 0.0
C836 C 0.7025 0.23325 0.03369 0.0
C837 C 0.71982 0.21507 0.05526 0.0
C838 C 0.66613 0.23978 0.04321 0.0
C839 C 0.70307 0.22279 0.00334 0.0
C840 C 0.72067 0.23831 0.98459 0.0
C841 C 0.72653 0.23104 0.95593 0.0
C842 C 0.71479 0.2071 0.94658 0.0
C843 C 0.69747 0.1908 0.96591 0.0
C844 C 0.6908 0.19937 -0.0057 0.0
H845 H 0.23138 0.71772 0.57372 0.0
H846 H 0.22811 0.66019 0.50669 0.0
H847 H 0.24643 0.6922 0.47073 0.0
H848 H 0.20094 0.76994 0.53056 0.0
H849 H 0.22861 0.79245 0.54794 0.0
H850 H 0.21392 0.76512 0.56755 0.0
H851 H 0.27623 0.75245 0.57873 0.0
H852 H 0.29113 0.77964 0.55902 0.0
H853 H 0.30575 0.74837 0.54935 0.0
H854 H 0.26656 0.7315 0.44224 0.0
H855 H 0.28617 0.7734 0.42464 0.0
H856 H 0.27679 0.80344 0.51162 0.0
C857 C 0.23415 0.71172 0.55146 0.0
C858 C 0.22813 0.68635 0.54309 0.0
C859 C 0.23244 0.6795 0.51368 0.0
C860 C 0.24288 0.69757 0.4931 0.0
C861 C 0.24896 0.72237 0.50229 0.0
C862 C 0.24466 0.72935 0.53084 0.0
C863 C 0.25355 0.75687 0.53569 0.0
C864 C 0.2224 0.77198 0.54603 0.0
C865 C 0.28344 0.75947 0.55695 0.0
C866 C 0.26371 0.76442 0.50543 0.0
C867 C 0.26082 0.74442 0.48632 0.0
C868 C 0.26887 0.74725 0.4571 0.0
C869 C 0.28002 0.77112 0.44729 0.0
C870 C 0.28321 0.79179 0.4667 0.0
C871 C 0.2749 0.78814 0.49612 0.0
H872 H 0.17664 0.54563 0.99011 0.0
H873 H 0.13765 0.52166 0.90672 0.0
H874 H 0.12659 0.47907 0.92638 0.0
H875 H 0.22126 0.49035 0.00469 0.0
H876 H 0.21291 0.48958 0.04297 0.0
H877 H 0.21291 0.51937 0.02403 0.0
H878 H 0.15196 0.5287 0.04217 0.0
H879 H 0.15183 0.49893 0.06134 0.0
H880 H 0.11873 0.50597 0.03558 0.0
H881 H 0.12635 0.43819 0.95252 0.0
H882 H 0.13647 0.40134 0.98381 0.0
H883 H 0.17562 0.45075 0.05092 0.0
C884 C 0.16487 0.53159 0.97628 0.0
C885 C 0.15776 0.53697 0.94695 0.0
C886 C 0.14321 0.51796 0.92927 0.0
C887 C 0.1367 0.49373 0.94027 0.0
C888 C 0.14484 0.48878 0.96902 0.0
C889 C 0.15845 0.50715 0.9869 0.0
C890 C 0.16776 0.49608 0.01617 0.0
C891 C 0.20597 0.49902 0.02231 0.0
C892 C 0.14628 0.50814 0.04024 0.0
C893 C 0.15827 0.46851 0.01154 0.0
C894 C 0.14474 0.46486 0.98429 0.0
C895 C 0.1364 0.44084 0.97409 0.0
C896 C 0.14246 0.41992 -0.00797 0.0
C897 C 0.1567 0.42306 0.01991 0.0
C898 C 0.16409 0.44778 0.02993 0.0
H899 H 0.81716 0.55379 0.49569 0.0
H900 H 0.84837 0.53043 0.58173 0.0
H901 H 0.85721 0.48689 0.56423 0.0
H902 H 0.76957 0.50034 0.48025 0.0
H903 H 0.78093 0.49799 0.44262 0.0
H904 H 0.78181 0.5283 0.46043 0.0
H905 H 0.84473 0.53418 0.44575 0.0
H906 H 0.84399 0.50391 0.42766 0.0
H907 H 0.87543 0.51011 0.4551 0.0
H908 H 0.85501 0.44535 0.53997 0.0
H909 H 0.84445 0.40815 0.50953 0.0
H910 H 0.81612 0.45731 0.43815 0.0
C911 C 0.82678 0.53964 0.51058 0.0
C912 C 0.83221 0.54551 0.54004 0.0
C913 C 0.84406 0.52638 0.55907 0.0
C914 C 0.84928 0.50158 0.54933 0.0
C915 C 0.84272 0.49618 0.52043 0.0
C916 C 0.83204 0.51463 0.50118 0.0
C917 C 0.82424 0.50316 0.47183 0.0
C918 C 0.78693 0.50772 0.4633 0.0
C919 C 0.84855 0.51346 0.44872 0.0
C920 C 0.83109 0.47534 0.47798 0.0
C921 C 0.84199 0.47186 0.50609 0.0
C922 C 0.84726 0.44783 0.51769 0.0
C923 C 0.84109 0.42671 0.50017 0.0
C924 C 0.82998 0.42968 0.47124 0.0
C925 C 0.82533 0.4544 0.45997 0.0
H926 H 0.80565 0.46993 0.06132 0.0
H927 H 0.79993 0.40679 0.00127 0.0
H928 H 0.79829 0.43687 0.96049 0.0
H929 H 0.74849 0.50984 0.02522 0.0
H930 H 0.77111 0.53886 0.03225 0.0
H931 H 0.77514 0.51254 0.05679 0.0
H932 H 0.84049 0.51323 0.05071 0.0
H933 H 0.83669 0.53969 0.02623 0.0
H934 H 0.85855 0.5113 0.015 0.0
H935 H 0.79107 0.47313 0.92693 0.0
H936 H 0.78171 0.51367 0.9018 0.0
H937 H 0.79418 0.55421 0.98273 0.0
C938 C 0.80463 0.46239 0.03957 0.0
C939 C 0.80292 0.43593 0.03452 0.0
C940 C 0.80135 0.42691 0.00573 0.0
C941 C 0.80043 0.44387 0.9824 0.0
C942 C 0.80145 0.46979 0.98817 0.0
C943 C 0.80389 0.47908 0.01598 0.0
C944 C 0.80309 0.50789 0.01618 0.0
C945 C 0.77264 0.51786 0.03364 0.0
C946 C 0.83671 0.51866 0.02772 0.0
C947 C 0.79886 0.51331 0.98417 0.0
C948 C 0.79808 0.49098 0.9685 0.0
C949 C 0.79215 0.49074 0.93887 0.0
C950 C 0.78668 0.51389 0.92484 0.0
C951 C 0.7874 0.53707 0.9403 0.0
C952 C 0.79405 0.5368 0.97033 0.0
H953 H 0.17032 0.4656 0.42944 0.0
H954 H 0.21116 0.40548 0.48362 0.0
H955 H 0.22053 0.43632 0.5228 0.0
H956 H 0.22793 0.51284 0.45034 0.0
H957 H 0.19767 0.53854 0.45028 0.0
H958 H 0.19117 0.51157 0.42711 0.0
H959 H 0.13182 0.50434 0.44961 0.0
H960 H 0.138 0.53145 0.47272 0.0
H961 H 0.12789 0.50105 0.48825 0.0
H962 H 0.23069 0.47362 0.55403 0.0
H963 H 0.23771 0.51506 0.57742 0.0
H964 H 0.18883 0.55185 0.50431 0.0
C965 C 0.18068 0.45882 0.44972 0.0
C966 C 0.19001 0.43304 0.45342 0.0
C967 C 0.20375 0.42505 0.48024 0.0
C968 C 0.20919 0.44245 0.50264 0.0
C969 C 0.20049 0.46775 0.49803 0.0
C970 C 0.18616 0.47595 0.47242 0.0
C971 C 0.18031 0.50445 0.47285 0.0
C972 C 0.20048 0.51762 0.44871 0.0
C973 C 0.14224 0.51068 0.47074 0.0
C974 C 0.19435 0.51103 0.50248 0.0
C975 C 0.20579 0.48948 0.51652 0.0
C976 C 0.22145 0.49059 0.54343 0.0
C977 C 0.22549 0.51431 0.55645 0.0
C978 C 0.21377 0.53675 0.54274 0.0
C979 C 0.19773 0.53502 0.51543 0.0
H980 H 0.68517 0.02122 0.93514 0.0
H981 H 0.70233 0.07179 0.00777 0.0
H982 H 0.69903 0.03581 0.04115 0.0
H983 H 0.62761 0.97805 0.97066 0.0
H984 H 0.64531 0.94998 0.95428 0.0
H985 H 0.64727 0.97991 0.93556 0.0
H986 H 0.71259 0.97548 0.93133 0.0
H987 H 0.71081 0.94551 0.94996 0.0
H988 H 0.7376 0.9705 0.96353 0.0
H989 H 0.69251 -0.00479 0.06706 0.0
H990 H 0.68854 0.95107 0.08397 0.0
H991 H 0.68031 0.92529 -0.0049 0.0
C992 C 0.68806 0.02471 0.95807 0.0
C993 C 0.69294 0.04957 0.96883 0.0
C994 C 0.69735 0.0532 -0.00105 0.0
C995 C 0.69578 0.03279 0.01817 0.0
C996 C 0.69046 0.00868 0.00699 0.0
C997 C 0.68716 0.00437 0.97767 0.0
C998 C 0.68325 0.97624 0.97151 0.0
C999 C 0.64881 0.97073 0.95715 0.0
C1000 C 0.71283 0.96636 0.95299 0.0
C1001 C 0.68476 0.96558 0.00198 0.0
C1002 C 0.68853 0.98476 0.02204 0.0
C1003 C 0.68977 0.97996 0.05159 0.0
C1004 C 0.68737 0.95482 0.06097 0.0
C1005 C 0.68423 0.9347 0.04089 0.0
C1006 C 0.68292 0.94021 0.01097 0.0
H1007 H 0.30008 0.92255 0.48037 0.0
H1008 H 0.33166 0.94685 0.39483 0.0
H1009 H 0.3396 -0.00976 0.41301 0.0
H1010 H 0.25351 0.97798 0.49832 0.0
H1011 H 0.26629 0.97847 0.53574 0.0
H1012 H 0.26448 0.94884 0.51652 0.0
H1013 H 0.32734 0.93991 0.52972 0.0
H1014 H 0.32935 0.96957 0.54898 0.0
H1015 H 0.35934 0.96292 0.52058 0.0
H1016 H 0.34057 0.03119 0.43894 0.0
H1017 H 0.33539 0.06761 0.47152 0.0
H1018 H 0.30579 0.01746 0.54144 0.0
C1019 C 0.30903 0.93691 0.46555 0.0
C1020 C 0.31537 0.9312 0.43617 0.0
C1021 C 0.32668 0.95068 0.41743 0.0
C1022 C 0.33136 0.97541 0.42755 0.0
C1023 C 0.32489 0.98041 0.45654 0.0
C1024 C 0.31411 0.96177 0.47536 0.0
C1025 C 0.30815 0.97257 0.50534 0.0
C1026 C 0.27089 0.96927 0.51451 0.0
C1027 C 0.3325 0.96053 0.52746 0.0
C1028 C 0.31666 0.00025 0.50018 0.0
C1029 C 0.32631 0.00423 0.47186 0.0
C1030 C 0.33355 0.0283 0.4613 0.0
C1031 C 0.33053 0.04896 0.48008 0.0
C1032 C 0.32068 0.0455 0.50923 0.0
C1033 C 0.31405 0.0207 0.51943 0.0
H1034 H 0.31868 0.95746 0.04064 0.0
H1035 H 0.24589 0.9061 0.00146 0.0
H1036 H 0.23081 0.93899 0.96574 0.0
H1037 H 0.26934 0.01435 0.03233 0.0
H1038 H 0.30523 0.03415 0.02391 0.0
H1039 H 0.31079 0.00656 0.04642 0.0
H1040 H 0.35708 -0.01044 0.01171 0.0
H1041 H 0.35183 0.01718 0.98921 0.0
H1042 H 0.3474 -0.01405 0.97384 0.0
H1043 H 0.22279 0.97735 0.93486 0.0
H1044 H 0.22416 0.01811 0.90903 0.0
H1045 H 0.30247 0.04506 0.9676 0.0
C1046 C 0.29964 0.95308 0.0245 0.0
C1047 C 0.28343 0.92914 0.02393 0.0
C1048 C 0.2587 0.92423 0.00238 0.0
C1049 C 0.24988 0.94283 0.98202 0.0
C1050 C 0.26607 0.96626 0.98338 0.0
C1051 C 0.29058 0.97143 0.00391 0.0
C1052 C 0.30425 -0.00185 0.00037 0.0
C1053 C 0.29696 0.01425 0.02737 0.0
C1054 C 0.3424 -0.00233 -0.00664 0.0
C1055 C 0.28351 0.00719 0.97467 0.0
C1056 C 0.26159 -0.01154 0.96533 0.0
C1057 C 0.23988 -0.00786 0.94193 0.0
C1058 C 0.24084 0.01544 0.92742 0.0
C1059 C 0.26341 0.03488 0.93623 0.0
C1060 C 0.28483 0.03068 0.96038 0.0
H1061 H 0.68371 0.00762 0.55235 0.0
H1062 H 0.70574 0.07101 0.49551 0.0
H1063 H 0.71277 0.04128 0.45471 0.0
H1064 H 0.74359 0.96465 0.52254 0.0
H1065 H 0.71693 0.9371 0.52609 0.0
H1066 H 0.71199 0.96333 0.55064 0.0
H1067 H 0.64833 0.96686 0.53703 0.0
H1068 H 0.65299 0.94051 0.51258 0.0
H1069 H 0.63635 0.97029 0.4996 0.0
H1070 H 0.72041 0.00474 0.42085 0.0
H1071 H 0.72509 0.96406 0.39517 0.0
H1072 H 0.69723 0.92398 0.47364 0.0
C1073 C 0.68968 0.01532 0.53127 0.0
C1074 C 0.69418 0.04172 0.52716 0.0
C1075 C 0.70209 0.05093 0.49922 0.0
C1076 C 0.7062 0.03417 0.47592 0.0
C1077 C 0.70215 0.00827 0.48085 0.0
C1078 C 0.69377 -0.00112 0.50776 0.0
C1079 C 0.69131 0.97015 0.5073 0.0
C1080 C 0.71752 0.95811 0.52786 0.0
C1081 C 0.65509 0.96144 0.51456 0.0
C1082 C 0.69998 0.96483 0.47597 0.0
C1083 C 0.70617 -0.01288 0.46117 0.0
C1084 C 0.71539 -0.01282 0.43217 0.0
C1085 C 0.71809 0.96389 0.4178 0.0
C1086 C 0.7115 0.94073 0.43233 0.0
C1087 C 0.70235 0.94131 0.46188 0.0
loop_
_geom_bond_atom_site_label_1
_geom_bond_atom_site_label_2
_geom_bond_distance
_geom_bond_site_symmetry_2
_ccdc_geom_bond_type
Mg0 O1 2.028 . S
Mg0 O7 1.986 . S
Mg0 O9 2.114 . S
Mg0 O10 2.251 . S
Mg0 O13 2.010 . S
O1 Mg0 2.028 . S
O1 C4 1.250 . S
O2 Mg3 2.028 . S
O2 C4 1.248 . S
Mg3 O2 2.028 . S
Mg3 O8 2.032 . S
Mg3 O10 2.079 . S
C4 O1 1.250 . S
C4 O2 1.248 . S
C5 O6 1.264 . S
C5 O13 1.249 . S
O6 C5 1.264 . S
O7 Mg0 1.986 . S
O7 C11 1.246 . S
O8 Mg3 2.032 . S
O8 C11 1.259 . S
O9 Mg0 2.114 . S
O9 C12 1.252 . S
O10 Mg0 2.251 . S
O10 Mg3 2.079 . S
O10 C12 1.273 . S
C11 O7 1.246 . S
C11 O8 1.259 . S
C12 O9 1.252 . S
C12 O10 1.273 . S
O13 Mg0 2.010 . S
O13 C5 1.249 . S
Mg14 O15 2.028 . S
Mg14 O21 1.986 . S
Mg14 O23 2.114 . S
Mg14 O24 2.251 . S
Mg14 O27 2.010 . S
O15 Mg14 2.028 . S
O15 C18 1.250 . S
O16 Mg17 2.028 . S
O16 C18 1.248 . S
Mg17 O16 2.028 . S
Mg17 O22 2.032 . S
Mg17 O24 2.079 . S
C18 O15 1.250 . S
C18 O16 1.248 . S
C19 O20 1.264 . S
C19 O27 1.249 . S
O20 C19 1.264 . S
O21 Mg14 1.986 . S
O21 C25 1.246 . S
O22 Mg17 2.032 . S
O22 C25 1.259 . S
O23 Mg14 2.114 . S
O23 C26 1.252 . S
O24 Mg14 2.251 . S
O24 Mg17 2.079 . S
O24 C26 1.273 . S
C25 O21 1.246 . S
C25 O22 1.259 . S
C26 O23 1.252 . S
C26 O24 1.273 . S
O27 Mg14 2.010 . S
O27 C19 1.249 . S
Mg28 O29 2.028 . S
Mg28 O35 1.986 . S
Mg28 O37 2.114 . S
Mg28 O38 2.251 . S
Mg28 O41 2.010 . S
O29 Mg28 2.028 . S
O29 C32 1.250 . S
O30 Mg31 2.028 . S
O30 C32 1.248 . S
Mg31 O30 2.028 . S
Mg31 O36 2.032 . S
Mg31 O38 2.079 . S
C32 O29 1.250 . S
C32 O30 1.248 . S
C33 O34 1.264 . S
C33 O41 1.249 . S
O34 C33 1.264 . S
O35 Mg28 1.986 . S
O35 C39 1.246 . S
O36 Mg31 2.032 . S
O36 C39 1.259 . S
O37 Mg28 2.114 . S
O37 C40 1.252 . S
O38 Mg28 2.251 . S
O38 Mg31 2.079 . S
O38 C40 1.273 . S
C39 O35 1.246 . S
C39 O36 1.259 . S
C40 O37 1.252 . S
C40 O38 1.273 . S
O41 Mg28 2.010 . S
O41 C33 1.249 . S
Mg42 O43 2.028 . S
Mg42 O49 1.986 . S
Mg42 O51 2.114 . S
Mg42 O52 2.251 . S
Mg42 O55 2.010 . S
O43 Mg42 2.028 . S
O43 C46 1.250 . S
O44 Mg45 2.028 . S
O44 C46 1.248 . S
Mg45 O44 2.028 . S
Mg45 O50 2.032 . S
Mg45 O52 2.079 . S
C46 O43 1.250 . S
C46 O44 1.248 . S
C47 O48 1.264 . S
C47 O55 1.249 . S
O48 C47 1.264 . S
O49 Mg42 1.986 . S
O49 C53 1.246 . S
O50 Mg45 2.032 . S
O50 C53 1.259 . S
O51 Mg42 2.114 . S
O51 C54 1.252 . S
O52 Mg42 2.251 . S
O52 Mg45 2.079 . S
O52 C54 1.273 . S
C53 O49 1.246 . S
C53 O50 1.259 . S
C54 O51 1.252 . S
C54 O52 1.273 . S
O55 Mg42 2.010 . S
O55 C47 1.249 . S
Mg56 O57 2.028 . S
Mg56 O63 1.986 . S
Mg56 O65 2.114 . S
Mg56 O66 2.251 . S
Mg56 O69 2.010 . S
O57 Mg56 2.028 . S
O57 C60 1.250 . S
O58 Mg59 2.028 . S
O58 C60 1.248 . S
Mg59 O58 2.028 . S
Mg59 O64 2.032 . S
Mg59 O66 2.079 . S
C60 O57 1.250 . S
C60 O58 1.248 . S
C61 O62 1.264 . S
C61 O69 1.249 . S
O62 C61 1.264 . S
O63 Mg56 1.986 . S
O63 C67 1.246 . S
O64 Mg59 2.032 . S
O64 C67 1.259 . S
O65 Mg56 2.114 . S
O65 C68 1.252 . S
O66 Mg56 2.251 . S
O66 Mg59 2.079 . S
O66 C68 1.273 . S
C67 O63 1.246 . S
C67 O64 1.259 . S
C68 O65 1.252 . S
C68 O66 1.273 . S
O69 Mg56 2.010 . S
O69 C61 1.249 . S
Mg70 O71 2.028 . S
Mg70 O77 1.986 . S
Mg70 O79 2.114 . S
Mg70 O80 2.251 . S
Mg70 O83 2.010 . S
O71 Mg70 2.028 . S
O71 C74 1.250 . S
O72 Mg73 2.028 . S
O72 C74 1.248 . S
Mg73 O72 2.028 . S
Mg73 O78 2.032 . S
Mg73 O80 2.079 . S
C74 O71 1.250 . S
C74 O72 1.248 . S
C75 O76 1.264 . S
C75 O83 1.249 . S
O76 C75 1.264 . S
O77 Mg70 1.986 . S
O77 C81 1.246 . S
O78 Mg73 2.032 . S
O78 C81 1.259 . S
O79 Mg70 2.114 . S
O79 C82 1.252 . S
O80 Mg70 2.251 . S
O80 Mg73 2.079 . S
O80 C82 1.273 . S
C81 O77 1.246 . S
C81 O78 1.259 . S
C82 O79 1.252 . S
C82 O80 1.273 . S
O83 Mg70 2.010 . S
O83 C75 1.249 . S
Mg84 O85 2.028 . S
Mg84 O91 1.986 . S
Mg84 O93 2.114 . S
Mg84 O94 2.251 . S
Mg84 O97 2.010 . S
O85 Mg84 2.028 . S
O85 C88 1.250 . S
O86 Mg87 2.028 . S
O86 C88 1.248 . S
Mg87 O86 2.028 . S
Mg87 O92 2.032 . S
Mg87 O94 2.079 . S
C88 O85 1.250 . S
C88 O86 1.248 . S
C89 O90 1.264 . S
C89 O97 1.249 . S
O90 C89 1.264 . S
O91 Mg84 1.986 . S
O91 C95 1.246 . S
O92 Mg87 2.032 . S
O92 C95 1.259 . S
O93 Mg84 2.114 . S
O93 C96 1.252 . S
O94 Mg84 2.251 . S
O94 Mg87 2.079 . S
O94 C96 1.273 . S
C95 O91 1.246 . S
C95 O92 1.259 . S
C96 O93 1.252 . S
C96 O94 1.273 . S
O97 Mg84 2.010 . S
O97 C89 1.249 . S
Mg98 O99 2.028 . S
Mg98 O105 1.986 . S
Mg98 O107 2.114 . S
Mg98 O108 2.251 . S
Mg98 O111 2.010 . S
O99 Mg98 2.028 . S
O99 C102 1.250 . S
O100 Mg101 2.028 . S
O100 C102 1.248 . S
Mg101 O100 2.028 . S
Mg101 O106 2.032 . S
Mg101 O108 2.079 . S
C102 O99 1.250 . S
C102 O100 1.248 . S
C103 O104 1.264 . S
C103 O111 1.249 . S
O104 C103 1.264 . S
O105 Mg98 1.986 . S
O105 C109 1.246 . S
O106 Mg101 2.032 . S
O106 C109 1.259 . S
O107 Mg98 2.114 . S
O107 C110 1.252 . S
O108 Mg98 2.251 . S
O108 Mg101 2.079 . S
O108 C110 1.273 . S
C109 O105 1.246 . S
C109 O106 1.259 . S
C110 O107 1.252 . S
C110 O108 1.273 . S
O111 Mg98 2.010 . S
O111 C103 1.249 . S
Mg112 O113 2.028 . S
Mg112 O119 1.986 . S
Mg112 O121 2.114 . S
Mg112 O122 2.251 . S
Mg112 O125 2.010 . S
O113 Mg112 2.028 . S
O113 C116 1.250 . S
O114 Mg115 2.028 . S
O114 C116 1.248 . S
Mg115 O114 2.028 . S
Mg115 O120 2.032 . S
Mg115 O122 2.079 . S
C116 O113 1.250 . S
C116 O114 1.248 . S
C117 O118 1.264 . S
C117 O125 1.249 . S
O118 C117 1.264 . S
O119 Mg112 1.986 . S
O119 C123 1.246 . S
O120 Mg115 2.032 . S
O120 C123 1.259 . S
O121 Mg112 2.114 . S
O121 C124 1.252 . S
O122 Mg112 2.251 . S
O122 Mg115 2.079 . S
O122 C124 1.273 . S
C123 O119 1.246 . S
C123 O120 1.259 . S
C124 O121 1.252 . S
C124 O122 1.273 . S
O125 Mg112 2.010 . S
O125 C117 1.249 . S
Mg126 O127 2.028 . S
Mg126 O133 1.986 . S
Mg126 O135 2.114 . S
Mg126 O136 2.251 . S
Mg126 O139 2.010 . S
O127 Mg126 2.028 . S
O127 C130 1.250 . S
O128 Mg129 2.028 . S
O128 C130 1.248 . S
Mg129 O128 2.028 . S
Mg129 O134 2.032 . S
Mg129 O136 2.079 . S
C130 O127 1.250 . S
C130 O128 1.248 . S
C131 O132 1.264 . S
C131 O139 1.249 . S
O132 C131 1.264 . S
O133 Mg126 1.986 . S
O133 C137 1.246 . S
O134 Mg129 2.032 . S
O134 C137 1.259 . S
O135 Mg126 2.114 . S
O135 C138 1.252 . S
O136 Mg126 2.251 . S
O136 Mg129 2.079 . S
O136 C138 1.273 . S
C137 O133 1.246 . S
C137 O134 1.259 . S
C138 O135 1.252 . S
C138 O136 1.273 . S
O139 Mg126 2.010 . S
O139 C131 1.249 . S
Mg140 O141 2.028 . S
Mg140 O147 1.986 . S
Mg140 O149 2.114 . S
Mg140 O150 2.251 . S
Mg140 O153 2.010 . S
O141 Mg140 2.028 . S
O141 C144 1.250 . S
O142 Mg143 2.028 . S
O142 C144 1.248 . S
Mg143 O142 2.028 . S
Mg143 O148 2.032 . S
Mg143 O150 2.079 . S
C144 O141 1.250 . S
C144 O142 1.248 . S
C145 O146 1.264 . S
C145 O153 1.249 . S
O146 C145 1.264 . S
O147 Mg140 1.986 . S
O147 C151 1.246 . S
O148 Mg143 2.032 . S
O148 C151 1.259 . S
O149 Mg140 2.114 . S
O149 C152 1.252 . S
O150 Mg140 2.251 . S
O150 Mg143 2.079 . S
O150 C152 1.273 . S
C151 O147 1.246 . S
C151 O148 1.259 . S
C152 O149 1.252 . S
C152 O150 1.273 . S
O153 Mg140 2.010 . S
O153 C145 1.249 . S
Mg154 O155 2.028 . S
Mg154 O161 1.986 . S
Mg154 O163 2.114 . S
Mg154 O164 2.251 . S
Mg154 O167 2.010 . S
O155 Mg154 2.028 . S
O155 C158 1.250 . S
O156 Mg157 2.028 . S
O156 C158 1.248 . S
Mg157 O156 2.028 . S
Mg157 O162 2.032 . S
Mg157 O164 2.079 . S
C158 O155 1.250 . S
C158 O156 1.248 . S
C159 O160 1.264 . S
C159 O167 1.249 . S
O160 C159 1.264 . S
O161 Mg154 1.986 . S
O161 C165 1.246 . S
O162 Mg157 2.032 . S
O162 C165 1.259 . S
O163 Mg154 2.114 . S
O163 C166 1.252 . S
O164 Mg154 2.251 . S
O164 Mg157 2.079 . S
O164 C166 1.273 . S
C165 O161 1.246 . S
C165 O162 1.259 . S
C166 O163 1.252 . S
C166 O164 1.273 . S
O167 Mg154 2.010 . S
O167 C159 1.249 . S
Mg168 O169 2.028 . S
Mg168 O175 1.986 . S
Mg168 O177 2.114 . S
Mg168 O178 2.251 . S
Mg168 O181 2.010 . S
O169 Mg168 2.028 . S
O169 C172 1.250 . S
O170 Mg171 2.028 . S
O170 C172 1.248 . S
Mg171 O170 2.028 . S
Mg171 O176 2.032 . S
Mg171 O178 2.079 . S
C172 O169 1.250 . S
C172 O170 1.248 . S
C173 O174 1.264 . S
C173 O181 1.249 . S
O174 C173 1.264 . S
O175 Mg168 1.986 . S
O175 C179 1.246 . S
O176 Mg171 2.032 . S
O176 C179 1.259 . S
O177 Mg168 2.114 . S
O177 C180 1.252 . S
O178 Mg168 2.251 . S
O178 Mg171 2.079 . S
O178 C180 1.273 . S
C179 O175 1.246 . S
C179 O176 1.259 . S
C180 O177 1.252 . S
C180 O178 1.273 . S
O181 Mg168 2.010 . S
O181 C173 1.249 . S
Mg182 O183 2.028 . S
Mg182 O189 1.986 . S
Mg182 O191 2.114 . S
Mg182 O192 2.251 . S
Mg182 O195 2.010 . S
O183 Mg182 2.028 . S
O183 C186 1.250 . S
O184 Mg185 2.028 . S
O184 C186 1.248 . S
Mg185 O184 2.028 . S
Mg185 O190 2.032 . S
Mg185 O192 2.079 . S
C186 O183 1.250 . S
C186 O184 1.248 . S
C187 O188 1.264 . S
C187 O195 1.249 . S
O188 C187 1.264 . S
O189 Mg182 1.986 . S
O189 C193 1.246 . S
O190 Mg185 2.032 . S
O190 C193 1.259 . S
O191 Mg182 2.114 . S
O191 C194 1.252 . S
O192 Mg182 2.251 . S
O192 Mg185 2.079 . S
O192 C194 1.273 . S
C193 O189 1.246 . S
C193 O190 1.259 . S
C194 O191 1.252 . S
C194 O192 1.273 . S
O195 Mg182 2.010 . S
O195 C187 1.249 . S
Mg196 O197 2.028 . S
Mg196 O203 1.986 . S
Mg196 O205 2.114 . S
Mg196 O206 2.251 . S
Mg196 O209 2.010 . S
O197 Mg196 2.028 . S
O197 C200 1.250 . S
O198 Mg199 2.028 . S
O198 C200 1.248 . S
Mg199 O198 2.028 . S
Mg199 O204 2.032 . S
Mg199 O206 2.079 . S
C200 O197 1.250 . S
C200 O198 1.248 . S
C201 O202 1.264 . S
C201 O209 1.249 . S
O202 C201 1.264 . S
O203 Mg196 1.986 . S
O203 C207 1.246 . S
O204 Mg199 2.032 . S
O204 C207 1.259 . S
O205 Mg196 2.114 . S
O205 C208 1.252 . S
O206 Mg196 2.251 . S
O206 Mg199 2.079 . S
O206 C208 1.273 . S
C207 O203 1.246 . S
C207 O204 1.259 . S
C208 O205 1.252 . S
C208 O206 1.273 . S
O209 Mg196 2.010 . S
O209 C201 1.249 . S
Mg210 O211 2.028 . S
Mg210 O217 1.986 . S
Mg210 O219 2.114 . S
Mg210 O220 2.251 . S
Mg210 O223 2.010 . S
O211 Mg210 2.028 . S
O211 C214 1.250 . S
O212 Mg213 2.028 . S
O212 C214 1.248 . S
Mg213 O212 2.028 . S
Mg213 O218 2.032 . S
Mg213 O220 2.079 . S
C214 O211 1.250 . S
C214 O212 1.248 . S
C215 O216 1.264 . S
C215 O223 1.249 . S
O216 C215 1.264 . S
O217 Mg210 1.986 . S
O217 C221 1.246 . S
O218 Mg213 2.032 . S
O218 C221 1.259 . S
O219 Mg210 2.114 . S
O219 C222 1.252 . S
O220 Mg210 2.251 . S
O220 Mg213 2.079 . S
O220 C222 1.273 . S
C221 O217 1.246 . S
C221 O218 1.259 . S
C222 O219 1.252 . S
C222 O220 1.273 . S
O223 Mg210 2.010 . S
O223 C215 1.249 . S
H224 C236 0.930 . S
H225 C238 0.930 . S
H226 C239 0.930 . S
H227 C243 0.960 . S
H228 C243 0.959 1_655 S
H229 C243 0.961 . S
H230 C244 0.960 . S
H231 C244 0.961 1_655 S
H232 C244 0.959 . S
H233 C247 0.929 . S
H234 C248 0.931 . S
H235 C250 0.930 . S
C236 H224 0.930 . S
C236 C237 1.399 . S
C236 C241 1.399 . S
C237 C236 1.399 . S
C237 C238 1.376 . S
C238 H225 0.930 . S
C238 C237 1.376 . S
C238 C239 1.388 . S
C239 H226 0.930 . S
C239 C238 1.388 . S
C239 C240 1.390 . S
C240 C239 1.390 . S
C240 C241 1.394 . S
C240 C246 1.465 1_455 S
C241 C236 1.399 . S
C241 C240 1.394 . S
C241 C242 1.516 . S
C242 C241 1.516 . S
C242 C243 1.502 . S
C242 C244 1.561 . S
C242 C245 1.526 1_455 S
C243 H227 0.960 . S
C243 H228 0.959 1_455 S
C243 H229 0.961 . S
C243 C242 1.502 . S
C244 H230 0.960 . S
C244 H231 0.961 1_455 S
C244 H232 0.959 . S
C244 C242 1.561 . S
C245 C242 1.526 1_655 S
C245 C246 1.396 . S
C245 C250 1.390 . S
C246 C240 1.465 1_655 S
C246 C245 1.396 . S
C246 C247 1.399 . S
C247 H233 0.929 . S
C247 C246 1.399 . S
C247 C248 1.385 . S
C248 H234 0.931 . S
C248 C247 1.385 . S
C248 C249 1.389 . S
C249 C248 1.389 . S
C249 C250 1.387 . S
C250 H235 0.930 . S
C250 C245 1.390 . S
C250 C249 1.387 . S
H251 C263 0.930 . S
H252 C265 0.930 . S
H253 C266 0.930 . S
H254 C270 0.960 . S
H255 C270 0.959 1_455 S
H256 C270 0.961 . S
H257 C271 0.960 . S
H258 C271 0.961 1_455 S
H259 C271 0.959 . S
H260 C274 0.929 . S
H261 C275 0.931 . S
H262 C277 0.930 . S
C263 H251 0.930 . S
C263 C264 1.399 . S
C263 C268 1.399 . S
C264 C263 1.399 . S
C264 C265 1.376 . S
C265 H252 0.930 . S
C265 C264 1.376 . S
C265 C266 1.388 . S
C266 H253 0.930 . S
C266 C265 1.388 . S
C266 C267 1.390 . S
C267 C266 1.390 . S
C267 C268 1.394 . S
C267 C273 1.465 1_655 S
C268 C263 1.399 . S
C268 C267 1.394 . S
C268 C269 1.516 . S
C269 C268 1.516 . S
C269 C270 1.502 . S
C269 C271 1.561 . S
C269 C272 1.526 1_655 S
C270 H254 0.960 . S
C270 H255 0.959 1_655 S
C270 H256 0.961 . S
C270 C269 1.502 . S
C271 H257 0.960 . S
C271 H258 0.961 1_655 S
C271 H259 0.959 . S
C271 C269 1.561 . S
C272 C269 1.526 1_455 S
C272 C273 1.396 . S
C272 C277 1.390 . S
C273 C267 1.465 1_455 S
C273 C272 1.396 . S
C273 C274 1.399 . S
C274 H260 0.929 . S
C274 C273 1.399 . S
C274 C275 1.385 . S
C275 H261 0.931 . S
C275 C274 1.385 . S
C275 C276 1.389 . S
C276 C275 1.389 . S
C276 C277 1.387 . S
C277 H262 0.930 . S
C277 C272 1.390 . S
C277 C276 1.387 . S
H278 C290 0.930 . S
H279 C292 0.930 . S
H280 C293 0.930 . S
H281 C297 0.959 . S
H282 C297 0.959 . S
H283 C297 0.961 1_655 S
H284 C298 0.960 1_655 S
H285 C298 0.961 . S
H286 C298 0.959 . S
H287 C301 0.929 . S
H288 C302 0.931 . S
H289 C304 0.930 . S
C290 H278 0.930 . S
C290 C291 1.399 . S
C290 C295 1.399 . S
C291 C290 1.399 . S
C291 C292 1.376 . S
C292 H279 0.930 . S
C292 C291 1.376 . S
C292 C293 1.388 . S
C293 H280 0.930 . S
C293 C292 1.388 . S
C293 C294 1.390 . S
C294 C293 1.390 . S
C294 C295 1.394 . S
C294 C300 1.465 1_655 S
C295 C290 1.399 . S
C295 C294 1.394 . S
C295 C296 1.516 1_655 S
C296 C295 1.516 1_455 S
C296 C297 1.502 . S
C296 C298 1.561 . S
C296 C299 1.526 . S
C297 H281 0.959 . S
C297 H282 0.959 . S
C297 H283 0.961 1_455 S
C297 C296 1.502 . S
C298 H284 0.960 1_455 S
C298 H285 0.961 . S
C298 H286 0.959 . S
C298 C296 1.561 . S
C299 C296 1.526 . S
C299 C300 1.396 . S
C299 C304 1.390 . S
C300 C294 1.465 1_455 S
C300 C299 1.396 . S
C300 C301 1.399 . S
C301 H287 0.929 . S
C301 C300 1.399 . S
C301 C302 1.385 . S
C302 H288 0.931 . S
C302 C301 1.385 . S
C302 C303 1.389 . S
C303 C302 1.389 . S
C303 C304 1.387 . S
C304 H289 0.930 . S
C304 C299 1.390 . S
C304 C303 1.387 . S
H305 C317 0.930 . S
H306 C319 0.930 . S
H307 C320 0.930 . S
H308 C324 0.959 . S
H309 C324 0.959 . S
H310 C324 0.961 1_455 S
H311 C325 0.960 1_455 S
H312 C325 0.961 . S
H313 C325 0.959 . S
H314 C328 0.929 . S
H315 C329 0.931 . S
H316 C331 0.930 . S
C317 H305 0.930 . S
C317 C318 1.399 . S
C317 C322 1.399 . S
C318 C317 1.399 . S
C318 C319 1.376 . S
C319 H306 0.930 . S
C319 C318 1.376 . S
C319 C320 1.388 . S
C320 H307 0.930 . S
C320 C319 1.388 . S
C320 C321 1.390 . S
C321 C320 1.390 . S
C321 C322 1.394 . S
C321 C327 1.465 1_455 S
C322 C317 1.399 . S
C322 C321 1.394 . S
C322 C323 1.516 1_455 S
C323 C322 1.516 1_655 S
C323 C324 1.502 . S
C323 C325 1.561 . S
C323 C326 1.526 . S
C324 H308 0.959 . S
C324 H309 0.959 . S
C324 H310 0.961 1_655 S
C324 C323 1.502 . S
C325 H311 0.960 1_655 S
C325 H312 0.961 . S
C325 H313 0.959 . S
C325 C323 1.561 . S
C326 C323 1.526 . S
C326 C327 1.396 . S
C326 C331 1.390 . S
C327 C321 1.465 1_655 S
C327 C326 1.396 . S
C327 C328 1.399 . S
C328 H314 0.929 . S
C328 C327 1.399 . S
C328 C329 1.385 . S
C329 H315 0.931 . S
C329 C328 1.385 . S
C329 C330 1.389 . S
C330 C329 1.389 . S
C330 C331 1.387 . S
C331 H316 0.930 . S
C331 C326 1.390 . S
C331 C330 1.387 . S
H332 C344 0.930 . S
H333 C346 0.930 . S
H334 C347 0.930 . S
H335 C351 0.959 . S
H336 C351 0.959 . S
H337 C351 0.961 . S
H338 C352 0.960 . S
H339 C352 0.961 . S
H340 C352 0.959 . S
H341 C355 0.929 . S
H342 C356 0.931 . S
H343 C358 0.930 . S
C344 H332 0.930 . S
C344 C345 1.399 . S
C344 C349 1.399 . S
C345 C344 1.399 . S
C345 C346 1.376 . S
C346 H333 0.930 . S
C346 C345 1.376 . S
C346 C347 1.388 . S
C347 H334 0.930 . S
C347 C346 1.388 . S
C347 C348 1.390 . S
C348 C347 1.390 . S
C348 C349 1.394 . S
C348 C354 1.465 . S
C349 C344 1.399 . S
C349 C348 1.394 . S
C349 C350 1.516 . S
C350 C349 1.516 . S
C350 C351 1.502 . S
C350 C352 1.561 . S
C350 C353 1.526 . S
C351 H335 0.959 . S
C351 H336 0.959 . S
C351 H337 0.961 . S
C351 C350 1.502 . S
C352 H338 0.960 . S
C352 H339 0.961 . S
C352 H340 0.959 . S
C352 C350 1.561 . S
C353 C350 1.526 . S
C353 C354 1.396 . S
C353 C358 1.390 . S
C354 C348 1.465 . S
C354 C353 1.396 . S
C354 C355 1.399 . S
C355 H341 0.929 . S
C355 C354 1.399 . S
C355 C356 1.385 . S
C356 H342 0.931 . S
C356 C355 1.385 . S
C356 C357 1.389 . S
C357 C356 1.389 . S
C357 C358 1.387 . S
C358 H343 0.930 . S
C358 C353 1.390 . S
C358 C357 1.387 . S
H359 C371 0.930 . S
H360 C373 0.930 . S
H361 C374 0.930 . S
H362 C378 0.959 . S
H363 C378 0.959 . S
H364 C378 0.961 . S
H365 C379 0.960 . S
H366 C379 0.961 . S
H367 C379 0.959 . S
H368 C382 0.929 . S
H369 C383 0.931 . S
H370 C385 0.930 . S
C371 H359 0.930 . S
C371 C372 1.399 . S
C371 C376 1.399 . S
C372 C371 1.399 . S
C372 C373 1.376 . S
C373 H360 0.930 . S
C373 C372 1.376 . S
C373 C374 1.388 . S
C374 H361 0.930 . S
C374 C373 1.388 . S
C374 C375 1.390 . S
C375 C374 1.390 . S
C375 C376 1.394 . S
C375 C381 1.465 . S
C376 C371 1.399 . S
C376 C375 1.394 . S
C376 C377 1.516 . S
C377 C376 1.516 . S
C377 C378 1.502 . S
C377 C379 1.561 . S
C377 C380 1.526 . S
C378 H362 0.959 . S
C378 H363 0.959 . S
C378 H364 0.961 . S
C378 C377 1.502 . S
C379 H365 0.960 . S
C379 H366 0.961 . S
C379 H367 0.959 . S
C379 C377 1.561 . S
C380 C377 1.526 . S
C380 C381 1.396 . S
C380 C385 1.390 . S
C381 C375 1.465 . S
C381 C380 1.396 . S
C381 C382 1.399 . S
C382 H368 0.929 . S
C382 C381 1.399 . S
C382 C383 1.385 . S
C383 H369 0.931 . S
C383 C382 1.385 . S
C383 C384 1.389 . S
C384 C383 1.389 . S
C384 C385 1.387 . S
C385 H370 0.930 . S
C385 C380 1.390 . S
C385 C384 1.387 . S
H386 C398 0.930 . S
H387 C400 0.930 . S
H388 C401 0.930 . S
H389 C405 0.959 . S
H390 C405 0.959 . S
H391 C405 0.961 . S
H392 C406 0.960 . S
H393 C406 0.961 . S
H394 C406 0.959 . S
H395 C409 0.929 . S
H396 C410 0.931 . S
H397 C412 0.930 . S
C398 H386 0.930 . S
C398 C399 1.399 . S
C398 C403 1.399 . S
C399 C398 1.399 . S
C399 C400 1.376 . S
C400 H387 0.930 . S
C400 C399 1.376 . S
C400 C401 1.388 . S
C401 H388 0.930 . S
C401 C400 1.388 . S
C401 C402 1.390 . S
C402 C401 1.390 . S
C402 C403 1.394 . S
C402 C408 1.465 . S
C403 C398 1.399 . S
C403 C402 1.394 . S
C403 C404 1.516 . S
C404 C403 1.516 . S
C404 C405 1.502 . S
C404 C406 1.561 . S
C404 C407 1.526 . S
C405 H389 0.959 . S
C405 H390 0.959 . S
C405 H391 0.961 . S
C405 C404 1.502 . S
C406 H392 0.960 . S
C406 H393 0.961 . S
C406 H394 0.959 . S
C406 C404 1.561 . S
C407 C404 1.526 . S
C407 C408 1.396 . S
C407 C412 1.390 . S
C408 C402 1.465 . S
C408 C407 1.396 . S
C408 C409 1.399 . S
C409 H395 0.929 . S
C409 C408 1.399 . S
C409 C410 1.385 . S
C410 H396 0.931 . S
C410 C409 1.385 . S
C410 C411 1.389 . S
C411 C410 1.389 . S
C411 C412 1.387 . S
C412 H397 0.930 . S
C412 C407 1.390 . S
C412 C411 1.387 . S
H413 C425 0.930 . S
H414 C427 0.930 . S
H415 C428 0.930 . S
H416 C432 0.959 . S
H417 C432 0.959 . S
H418 C432 0.961 . S
H419 C433 0.960 . S
H420 C433 0.961 . S
H421 C433 0.959 . S
H422 C436 0.929 . S
H423 C437 0.931 . S
H424 C439 0.930 . S
C425 H413 0.930 . S
C425 C426 1.399 . S
C425 C430 1.399 . S
C426 C425 1.399 . S
C426 C427 1.376 . S
C427 H414 0.930 . S
C427 C426 1.376 . S
C427 C428 1.388 . S
C428 H415 0.930 . S
C428 C427 1.388 . S
C428 C429 1.390 . S
C429 C428 1.390 . S
C429 C430 1.394 . S
C429 C435 1.465 . S
C430 C425 1.399 . S
C430 C429 1.394 . S
C430 C431 1.516 . S
C431 C430 1.516 . S
C431 C432 1.502 . S
C431 C433 1.561 . S
C431 C434 1.526 . S
C432 H416 0.959 . S
C432 H417 0.959 . S
C432 H418 0.961 . S
C432 C431 1.502 . S
C433 H419 0.960 . S
C433 H420 0.961 . S
C433 H421 0.959 . S
C433 C431 1.561 . S
C434 C431 1.526 . S
C434 C435 1.396 . S
C434 C439 1.390 . S
C435 C429 1.465 . S
C435 C434 1.396 . S
C435 C436 1.399 . S
C436 H422 0.929 . S
C436 C435 1.399 . S
C436 C437 1.385 . S
C437 H423 0.931 . S
C437 C436 1.385 . S
C437 C438 1.389 . S
C438 C437 1.389 . S
C438 C439 1.387 . S
C439 H424 0.930 . S
C439 C434 1.390 . S
C439 C438 1.387 . S
H440 C452 0.930 . S
H441 C454 0.930 . S
H442 C455 0.930 . S
H443 C459 0.959 . S
H444 C459 0.959 . S
H445 C459 0.961 . S
H446 C460 0.960 . S
H447 C460 0.961 . S
H448 C460 0.959 . S
H449 C463 0.929 . S
H450 C464 0.931 . S
H451 C466 0.930 . S
C452 H440 0.930 . S
C452 C453 1.399 . S
C452 C457 1.399 . S
C453 C452 1.399 . S
C453 C454 1.376 . S
C454 H441 0.930 . S
C454 C453 1.376 . S
C454 C455 1.388 . S
C455 H442 0.930 . S
C455 C454 1.388 . S
C455 C456 1.390 . S
C456 C455 1.390 . S
C456 C457 1.394 . S
C456 C462 1.465 . S
C457 C452 1.399 . S
C457 C456 1.394 . S
C457 C458 1.516 . S
C458 C457 1.516 . S
C458 C459 1.502 . S
C458 C460 1.561 . S
C458 C461 1.526 . S
C459 H443 0.959 . S
C459 H444 0.959 . S
C459 H445 0.961 . S
C459 C458 1.502 . S
C460 H446 0.960 . S
C460 H447 0.961 . S
C460 H448 0.959 . S
C460 C458 1.561 . S
C461 C458 1.526 . S
C461 C462 1.396 . S
C461 C466 1.390 . S
C462 C456 1.465 . S
C462 C461 1.396 . S
C462 C463 1.399 . S
C463 H449 0.929 . S
C463 C462 1.399 . S
C463 C464 1.385 . S
C464 H450 0.931 . S
C464 C463 1.385 . S
C464 C465 1.389 . S
C465 C464 1.389 . S
C465 C466 1.387 . S
C466 H451 0.930 . S
C466 C461 1.390 . S
C466 C465 1.387 . S
H467 C479 0.930 . S
H468 C481 0.930 . S
H469 C482 0.930 . S
H470 C486 0.959 . S
H471 C486 0.959 . S
H472 C486 0.961 . S
H473 C487 0.960 . S
H474 C487 0.961 . S
H475 C487 0.959 . S
H476 C490 0.929 . S
H477 C491 0.931 . S
H478 C493 0.930 . S
C479 H467 0.930 . S
C479 C480 1.399 . S
C479 C484 1.399 . S
C480 C479 1.399 . S
C480 C481 1.376 . S
C481 H468 0.930 . S
C481 C480 1.376 . S
C481 C482 1.388 . S
C482 H469 0.930 . S
C482 C481 1.388 . S
C482 C483 1.390 . S
C483 C482 1.390 . S
C483 C484 1.394 . S
C483 C489 1.465 . S
C484 C479 1.399 . S
C484 C483 1.394 . S
C484 C485 1.516 . S
C485 C484 1.516 . S
C485 C486 1.502 . S
C485 C487 1.561 . S
C485 C488 1.526 . S
C486 H470 0.959 . S
C486 H471 0.959 . S
C486 H472 0.961 . S
C486 C485 1.502 . S
C487 H473 0.960 . S
C487 H474 0.961 . S
C487 H475 0.959 . S
C487 C485 1.561 . S
C488 C485 1.526 . S
C488 C489 1.396 . S
C488 C493 1.390 . S
C489 C483 1.465 . S
C489 C488 1.396 . S
C489 C490 1.399 . S
C490 H476 0.929 . S
C490 C489 1.399 . S
C490 C491 1.385 . S
C491 H477 0.931 . S
C491 C490 1.385 . S
C491 C492 1.389 . S
C492 C491 1.389 . S
C492 C493 1.387 . S
C493 H478 0.930 . S
C493 C488 1.390 . S
C493 C492 1.387 . S
H494 C506 0.930 . S
H495 C508 0.930 . S
H496 C509 0.930 . S
H497 C513 0.959 . S
H498 C513 0.959 . S
H499 C513 0.961 . S
H500 C514 0.960 . S
H501 C514 0.961 . S
H502 C514 0.959 . S
H503 C517 0.929 . S
H504 C518 0.931 . S
H505 C520 0.930 . S
C506 H494 0.930 . S
C506 C507 1.399 . S
C506 C511 1.399 . S
C507 C506 1.399 . S
C507 C508 1.376 . S
C508 H495 0.930 . S
C508 C507 1.376 . S
C508 C509 1.388 . S
C509 H496 0.930 . S
C509 C508 1.388 . S
C509 C510 1.390 . S
C510 C509 1.390 . S
C510 C511 1.394 . S
C510 C516 1.465 . S
C511 C506 1.399 . S
C511 C510 1.394 . S
C511 C512 1.516 . S
C512 C511 1.516 . S
C512 C513 1.502 . S
C512 C514 1.561 . S
C512 C515 1.526 . S
C513 H497 0.959 . S
C513 H498 0.959 . S
C513 H499 0.961 . S
C513 C512 1.502 . S
C514 H500 0.960 . S
C514 H501 0.961 . S
C514 H502 0.959 . S
C514 C512 1.561 . S
C515 C512 1.526 . S
C515 C516 1.396 . S
C515 C520 1.390 . S
C516 C510 1.465 . S
C516 C515 1.396 . S
C516 C517 1.399 . S
C517 H503 0.929 . S
C517 C516 1.399 . S
C517 C518 1.385 . S
C518 H504 0.931 . S
C518 C517 1.385 . S
C518 C519 1.389 . S
C519 C518 1.389 . S
C519 C520 1.387 . S
C520 H505 0.930 . S
C520 C515 1.390 . S
C520 C519 1.387 . S
H521 C533 0.930 . S
H522 C535 0.930 . S
H523 C536 0.930 . S
H524 C540 0.959 . S
H525 C540 0.959 . S
H526 C540 0.961 . S
H527 C541 0.960 . S
H528 C541 0.961 . S
H529 C541 0.959 . S
H530 C544 0.929 . S
H531 C545 0.931 . S
H532 C547 0.930 . S
C533 H521 0.930 . S
C533 C534 1.399 . S
C533 C538 1.399 . S
C534 C533 1.399 . S
C534 C535 1.376 . S
C535 H522 0.930 . S
C535 C534 1.376 . S
C535 C536 1.388 . S
C536 H523 0.930 . S
C536 C535 1.388 . S
C536 C537 1.390 . S
C537 C536 1.390 . S
C537 C538 1.394 . S
C537 C543 1.465 . S
C538 C533 1.399 . S
C538 C537 1.394 . S
C538 C539 1.516 . S
C539 C538 1.516 . S
C539 C540 1.502 . S
C539 C541 1.561 . S
C539 C542 1.526 . S
C540 H524 0.959 . S
C540 H525 0.959 . S
C540 H526 0.961 . S
C540 C539 1.502 . S
C541 H527 0.960 . S
C541 H528 0.961 . S
C541 H529 0.959 . S
C541 C539 1.561 . S
C542 C539 1.526 . S
C542 C543 1.396 . S
C542 C547 1.390 . S
C543 C537 1.465 . S
C543 C542 1.396 . S
C543 C544 1.399 . S
C544 H530 0.929 . S
C544 C543 1.399 . S
C544 C545 1.385 . S
C545 H531 0.931 . S
C545 C544 1.385 . S
C545 C546 1.389 . S
C546 C545 1.389 . S
C546 C547 1.387 . S
C547 H532 0.930 . S
C547 C542 1.390 . S
C547 C546 1.387 . S
H548 C560 0.930 . S
H549 C562 0.930 . S
H550 C563 0.930 . S
H551 C567 0.959 . S
H552 C567 0.959 . S
H553 C567 0.961 . S
H554 C568 0.960 . S
H555 C568 0.961 . S
H556 C568 0.959 . S
H557 C571 0.929 . S
H558 C572 0.931 . S
H559 C574 0.930 . S
C560 H548 0.930 . S
C560 C561 1.399 . S
C560 C565 1.399 . S
C561 C560 1.399 . S
C561 C562 1.376 . S
C562 H549 0.930 . S
C562 C561 1.376 . S
C562 C563 1.388 . S
C563 H550 0.930 . S
C563 C562 1.388 . S
C563 C564 1.390 . S
C564 C563 1.390 . S
C564 C565 1.394 . S
C564 C570 1.465 . S
C565 C560 1.399 . S
C565 C564 1.394 . S
C565 C566 1.516 . S
C566 C565 1.516 . S
C566 C567 1.502 . S
C566 C568 1.561 . S
C566 C569 1.526 . S
C567 H551 0.959 . S
C567 H552 0.959 . S
C567 H553 0.961 . S
C567 C566 1.502 . S
C568 H554 0.960 . S
C568 H555 0.961 . S
C568 H556 0.959 . S
C568 C566 1.561 . S
C569 C566 1.526 . S
C569 C570 1.396 . S
C569 C574 1.390 . S
C570 C564 1.465 . S
C570 C569 1.396 . S
C570 C571 1.399 . S
C571 H557 0.929 . S
C571 C570 1.399 . S
C571 C572 1.385 . S
C572 H558 0.931 . S
C572 C571 1.385 . S
C572 C573 1.389 . S
C573 C572 1.389 . S
C573 C574 1.387 . S
C574 H559 0.930 . S
C574 C569 1.390 . S
C574 C573 1.387 . S
H575 C587 0.930 . S
H576 C589 0.930 . S
H577 C590 0.930 . S
H578 C594 0.959 . S
H579 C594 0.959 . S
H580 C594 0.961 . S
H581 C595 0.960 . S
H582 C595 0.961 . S
H583 C595 0.959 . S
H584 C598 0.929 . S
H585 C599 0.931 . S
H586 C601 0.930 . S
C587 H575 0.930 . S
C587 C588 1.399 . S
C587 C592 1.399 . S
C588 C587 1.399 . S
C588 C589 1.376 . S
C589 H576 0.930 . S
C589 C588 1.376 . S
C589 C590 1.388 . S
C590 H577 0.930 . S
C590 C589 1.388 . S
C590 C591 1.390 . S
C591 C590 1.390 . S
C591 C592 1.394 . S
C591 C597 1.465 . S
C592 C587 1.399 . S
C592 C591 1.394 . S
C592 C593 1.516 . S
C593 C592 1.516 . S
C593 C594 1.502 . S
C593 C595 1.561 . S
C593 C596 1.526 . S
C594 H578 0.959 . S
C594 H579 0.959 . S
C594 H580 0.961 . S
C594 C593 1.502 . S
C595 H581 0.960 . S
C595 H582 0.961 . S
C595 H583 0.959 . S
C595 C593 1.561 . S
C596 C593 1.526 . S
C596 C597 1.396 . S
C596 C601 1.390 . S
C597 C591 1.465 . S
C597 C596 1.396 . S
C597 C598 1.399 . S
C598 H584 0.929 . S
C598 C597 1.399 . S
C598 C599 1.385 . S
C599 H585 0.931 . S
C599 C598 1.385 . S
C599 C600 1.389 . S
C600 C599 1.389 . S
C600 C601 1.387 . S
C601 H586 0.930 . S
C601 C596 1.390 . S
C601 C600 1.387 . S
H602 C614 0.930 . S
H603 C616 0.930 . S
H604 C617 0.930 . S
H605 C621 0.959 . S
H606 C621 0.959 . S
H607 C621 0.961 . S
H608 C622 0.960 . S
H609 C622 0.961 . S
H610 C622 0.959 . S
H611 C625 0.929 . S
H612 C626 0.931 . S
H613 C628 0.930 . S
C614 H602 0.930 . S
C614 C615 1.399 . S
C614 C619 1.399 . S
C615 C614 1.399 . S
C615 C616 1.376 . S
C616 H603 0.930 . S
C616 C615 1.376 . S
C616 C617 1.388 . S
C617 H604 0.930 . S
C617 C616 1.388 . S
C617 C618 1.390 . S
C618 C617 1.390 . S
C618 C619 1.394 . S
C618 C624 1.465 . S
C619 C614 1.399 . S
C619 C618 1.394 . S
C619 C620 1.516 . S
C620 C619 1.516 . S
C620 C621 1.502 . S
C620 C622 1.561 . S
C620 C623 1.526 . S
C621 H605 0.959 . S
C621 H606 0.959 . S
C621 H607 0.961 . S
C621 C620 1.502 . S
C622 H608 0.960 . S
C622 H609 0.961 . S
C622 H610 0.959 . S
C622 C620 1.561 . S
C623 C620 1.526 . S
C623 C624 1.396 . S
C623 C628 1.390 . S
C624 C618 1.465 . S
C624 C623 1.396 . S
C624 C625 1.399 . S
C625 H611 0.929 . S
C625 C624 1.399 . S
C625 C626 1.385 . S
C626 H612 0.931 . S
C626 C625 1.385 . S
C626 C627 1.389 . S
C627 C626 1.389 . S
C627 C628 1.387 . S
C628 H613 0.930 . S
C628 C623 1.390 . S
C628 C627 1.387 . S
H629 C641 0.930 . S
H630 C643 0.930 . S
H631 C644 0.930 . S
H632 C648 0.959 . S
H633 C648 0.959 . S
H634 C648 0.961 . S
H635 C649 0.960 . S
H636 C649 0.961 . S
H637 C649 0.959 . S
H638 C652 0.929 . S
H639 C653 0.931 . S
H640 C655 0.930 . S
C641 H629 0.930 . S
C641 C642 1.399 . S
C641 C646 1.399 . S
C642 C641 1.399 . S
C642 C643 1.376 . S
C643 H630 0.930 . S
C643 C642 1.376 . S
C643 C644 1.388 . S
C644 H631 0.930 . S
C644 C643 1.388 . S
C644 C645 1.390 . S
C645 C644 1.390 . S
C645 C646 1.394 . S
C645 C651 1.465 . S
C646 C641 1.399 . S
C646 C645 1.394 . S
C646 C647 1.516 . S
C647 C646 1.516 . S
C647 C648 1.502 . S
C647 C649 1.561 . S
C647 C650 1.526 . S
C648 H632 0.959 . S
C648 H633 0.959 . S
C648 H634 0.961 . S
C648 C647 1.502 . S
C649 H635 0.960 . S
C649 H636 0.961 . S
C649 H637 0.959 . S
C649 C647 1.561 . S
C650 C647 1.526 . S
C650 C651 1.396 . S
C650 C655 1.390 . S
C651 C645 1.465 . S
C651 C650 1.396 . S
C651 C652 1.399 . S
C652 H638 0.929 . S
C652 C651 1.399 . S
C652 C653 1.385 . S
C653 H639 0.931 . S
C653 C652 1.385 . S
C653 C654 1.389 . S
C654 C653 1.389 . S
C654 C655 1.387 . S
C655 H640 0.930 . S
C655 C650 1.390 . S
C655 C654 1.387 . S
H656 C668 0.930 . S
H657 C670 0.930 . S
H658 C671 0.930 . S
H659 C675 0.959 . S
H660 C675 0.959 . S
H661 C675 0.961 . S
H662 C676 0.960 . S
H663 C676 0.961 . S
H664 C676 0.959 . S
H665 C679 0.929 . S
H666 C680 0.931 . S
H667 C682 0.930 . S
C668 H656 0.930 . S
C668 C669 1.399 . S
C668 C673 1.399 . S
C669 C668 1.399 . S
C669 C670 1.376 . S
C670 H657 0.930 . S
C670 C669 1.376 . S
C670 C671 1.388 . S
C671 H658 0.930 . S
C671 C670 1.388 . S
C671 C672 1.390 . S
C672 C671 1.390 . S
C672 C673 1.394 . S
C672 C678 1.465 . S
C673 C668 1.399 . S
C673 C672 1.394 . S
C673 C674 1.516 1_556 S
C674 C673 1.516 1_554 S
C674 C675 1.502 . S
C674 C676 1.561 . S
C674 C677 1.526 . S
C675 H659 0.959 . S
C675 H660 0.959 . S
C675 H661 0.961 . S
C675 C674 1.502 . S
C676 H662 0.960 . S
C676 H663 0.961 . S
C676 H664 0.959 . S
C676 C674 1.561 . S
C677 C674 1.526 . S
C677 C678 1.396 1_554 S
C677 C682 1.390 . S
C678 C672 1.465 . S
C678 C677 1.396 1_556 S
C678 C679 1.399 . S
C679 H665 0.929 . S
C679 C678 1.399 . S
C679 C680 1.385 1_556 S
C680 H666 0.931 . S
C680 C679 1.385 1_554 S
C680 C681 1.389 . S
C681 C680 1.389 . S
C681 C682 1.387 . S
C682 H667 0.930 . S
C682 C677 1.390 . S
C682 C681 1.387 . S
H683 C695 0.930 . S
H684 C697 0.930 . S
H685 C698 0.930 . S
H686 C702 0.959 . S
H687 C702 0.959 . S
H688 C702 0.961 . S
H689 C703 0.960 . S
H690 C703 0.961 . S
H691 C703 0.959 . S
H692 C706 0.929 . S
H693 C707 0.931 . S
H694 C709 0.930 . S
C695 H683 0.930 . S
C695 C696 1.399 . S
C695 C700 1.399 . S
C696 C695 1.399 . S
C696 C697 1.376 . S
C697 H684 0.930 . S
C697 C696 1.376 . S
C697 C698 1.388 . S
C698 H685 0.930 . S
C698 C697 1.388 . S
C698 C699 1.390 . S
C699 C698 1.390 . S
C699 C700 1.394 . S
C699 C705 1.465 . S
C700 C695 1.399 . S
C700 C699 1.394 . S
C700 C701 1.516 . S
C701 C700 1.516 . S
C701 C702 1.502 . S
C701 C703 1.561 . S
C701 C704 1.526 . S
C702 H686 0.959 . S
C702 H687 0.959 . S
C702 H688 0.961 . S
C702 C701 1.502 . S
C703 H689 0.960 . S
C703 H690 0.961 . S
C703 H691 0.959 . S
C703 C701 1.561 . S
C704 C701 1.526 . S
C704 C705 1.396 . S
C704 C709 1.390 . S
C705 C699 1.465 . S
C705 C704 1.396 . S
C705 C706 1.399 . S
C706 H692 0.929 . S
C706 C705 1.399 . S
C706 C707 1.385 . S
C707 H693 0.931 . S
C707 C706 1.385 . S
C707 C708 1.389 . S
C708 C707 1.389 . S
C708 C709 1.387 . S
C709 H694 0.930 . S
C709 C704 1.390 . S
C709 C708 1.387 . S
H710 C722 0.930 . S
H711 C724 0.930 . S
H712 C725 0.930 . S
H713 C729 0.959 . S
H714 C729 0.959 . S
H715 C729 0.961 . S
H716 C730 0.960 . S
H717 C730 0.961 . S
H718 C730 0.959 . S
H719 C733 0.929 . S
H720 C734 0.931 . S
H721 C736 0.930 . S
C722 H710 0.930 . S
C722 C723 1.399 . S
C722 C727 1.399 . S
C723 C722 1.399 . S
C723 C724 1.376 . S
C724 H711 0.930 . S
C724 C723 1.376 . S
C724 C725 1.388 . S
C725 H712 0.930 . S
C725 C724 1.388 . S
C725 C726 1.390 . S
C726 C725 1.390 . S
C726 C727 1.394 . S
C726 C732 1.465 . S
C727 C722 1.399 . S
C727 C726 1.394 . S
C727 C728 1.516 1_554 S
C728 C727 1.516 1_556 S
C728 C729 1.502 . S
C728 C730 1.561 . S
C728 C731 1.526 . S
C729 H713 0.959 . S
C729 H714 0.959 . S
C729 H715 0.961 . S
C729 C728 1.502 . S
C730 H716 0.960 . S
C730 H717 0.961 . S
C730 H718 0.959 . S
C730 C728 1.561 . S
C731 C728 1.526 . S
C731 C732 1.396 1_556 S
C731 C736 1.390 . S
C732 C726 1.465 . S
C732 C731 1.396 1_554 S
C732 C733 1.399 . S
C733 H719 0.929 . S
C733 C732 1.399 . S
C733 C734 1.385 1_554 S
C734 H720 0.931 . S
C734 C733 1.385 1_556 S
C734 C735 1.389 . S
C735 C734 1.389 . S
C735 C736 1.387 . S
C736 H721 0.930 . S
C736 C731 1.390 . S
C736 C735 1.387 . S
H737 C749 0.930 . S
H738 C751 0.930 . S
H739 C752 0.930 . S
H740 C756 0.959 . S
H741 C756 0.959 . S
H742 C756 0.961 . S
H743 C757 0.960 . S
H744 C757 0.961 . S
H745 C757 0.959 . S
H746 C760 0.929 . S
H747 C761 0.931 . S
H748 C763 0.930 . S
C749 H737 0.930 . S
C749 C750 1.399 . S
C749 C754 1.399 . S
C750 C749 1.399 . S
C750 C751 1.376 . S
C751 H738 0.930 . S
C751 C750 1.376 . S
C751 C752 1.388 . S
C752 H739 0.930 . S
C752 C751 1.388 . S
C752 C753 1.390 . S
C753 C752 1.390 . S
C753 C754 1.394 . S
C753 C759 1.465 . S
C754 C749 1.399 . S
C754 C753 1.394 . S
C754 C755 1.516 . S
C755 C754 1.516 . S
C755 C756 1.502 . S
C755 C757 1.561 . S
C755 C758 1.526 . S
C756 H740 0.959 . S
C756 H741 0.959 . S
C756 H742 0.961 . S
C756 C755 1.502 . S
C757 H743 0.960 . S
C757 H744 0.961 . S
C757 H745 0.959 . S
C757 C755 1.561 . S
C758 C755 1.526 . S
C758 C759 1.396 . S
C758 C763 1.390 . S
C759 C753 1.465 . S
C759 C758 1.396 . S
C759 C760 1.399 . S
C760 H746 0.929 . S
C760 C759 1.399 . S
C760 C761 1.385 . S
C761 H747 0.931 . S
C761 C760 1.385 . S
C761 C762 1.389 . S
C762 C761 1.389 . S
C762 C763 1.387 . S
C763 H748 0.930 . S
C763 C758 1.390 . S
C763 C762 1.387 . S
H764 C776 0.927 1_556 S
H765 C778 0.930 . S
H766 C779 0.930 . S
H767 C783 0.959 . S
H768 C783 0.959 . S
H769 C783 0.961 . S
H770 C784 0.960 . S
H771 C784 0.961 . S
H772 C784 0.959 . S
H773 C787 0.929 . S
H774 C788 0.931 . S
H775 C790 0.930 . S
C776 H764 0.927 1_554 S
C776 C777 1.399 . S
C776 C781 1.392 1_554 S
C777 C776 1.399 . S
C777 C778 1.376 . S
C778 H765 0.930 . S
C778 C777 1.376 . S
C778 C779 1.388 . S
C779 H766 0.930 . S
C779 C778 1.388 . S
C779 C780 1.390 . S
C780 C779 1.390 . S
C780 C781 1.383 1_554 S
C780 C786 1.469 . S
C781 C776 1.392 1_556 S
C781 C780 1.383 1_556 S
C781 C782 1.533 . S
C782 C781 1.533 . S
C782 C783 1.502 . S
C782 C784 1.561 . S
C782 C785 1.526 . S
C783 H767 0.959 . S
C783 H768 0.959 . S
C783 H769 0.961 . S
C783 C782 1.502 . S
C784 H770 0.960 . S
C784 H771 0.961 . S
C784 H772 0.959 . S
C784 C782 1.561 . S
C785 C782 1.526 . S
C785 C786 1.389 1_556 S
C785 C790 1.390 . S
C786 C780 1.469 . S
C786 C785 1.389 1_554 S
C786 C787 1.401 . S
C787 H773 0.929 . S
C787 C786 1.401 . S
C787 C788 1.385 1_554 S
C788 H774 0.931 . S
C788 C787 1.385 1_556 S
C788 C789 1.389 . S
C789 C788 1.389 . S
C789 C790 1.387 . S
C790 H775 0.930 . S
C790 C785 1.390 . S
C790 C789 1.387 . S
H791 C803 0.930 . S
H792 C805 0.930 . S
H793 C806 0.930 . S
H794 C810 0.959 . S
H795 C810 0.959 . S
H796 C810 0.961 . S
H797 C811 0.960 . S
H798 C811 0.961 . S
H799 C811 0.959 . S
H800 C814 0.929 . S
H801 C815 0.931 . S
H802 C817 0.930 . S
C803 H791 0.930 . S
C803 C804 1.399 . S
C803 C808 1.399 . S
C804 C803 1.399 . S
C804 C805 1.376 . S
C805 H792 0.930 . S
C805 C804 1.376 . S
C805 C806 1.388 . S
C806 H793 0.930 . S
C806 C805 1.388 . S
C806 C807 1.390 . S
C807 C806 1.390 . S
C807 C808 1.394 . S
C807 C813 1.465 . S
C808 C803 1.399 . S
C808 C807 1.394 . S
C808 C809 1.516 . S
C809 C808 1.516 . S
C809 C810 1.502 . S
C809 C811 1.561 . S
C809 C812 1.526 . S
C810 H794 0.959 . S
C810 H795 0.959 . S
C810 H796 0.961 . S
C810 C809 1.502 . S
C811 H797 0.960 . S
C811 H798 0.961 . S
C811 H799 0.959 . S
C811 C809 1.561 . S
C812 C809 1.526 . S
C812 C813 1.396 . S
C812 C817 1.390 . S
C813 C807 1.465 . S
C813 C812 1.396 . S
C813 C814 1.399 . S
C814 H800 0.929 . S
C814 C813 1.399 . S
C814 C815 1.385 . S
C815 H801 0.931 . S
C815 C814 1.385 . S
C815 C816 1.389 . S
C816 C815 1.389 . S
C816 C817 1.387 . S
C817 H802 0.930 . S
C817 C812 1.390 . S
C817 C816 1.387 . S
H818 C830 0.930 . S
H819 C832 0.930 . S
H820 C833 0.930 . S
H821 C837 0.954 1_554 S
H822 C837 0.964 . S
H823 C837 0.959 1_554 S
H824 C838 0.960 . S
H825 C838 0.961 . S
H826 C838 0.959 . S
H827 C841 0.929 1_554 S
H828 C842 0.931 . S
H829 C844 0.930 . S
C830 H818 0.930 . S
C830 C831 1.399 . S
C830 C835 1.399 . S
C831 C830 1.399 . S
C831 C832 1.376 . S
C832 H819 0.930 . S
C832 C831 1.376 . S
C832 C833 1.388 . S
C833 H820 0.930 . S
C833 C832 1.388 . S
C833 C834 1.390 . S
C834 C833 1.390 . S
C834 C835 1.394 . S
C834 C840 1.465 1_554 S
C835 C830 1.399 . S
C835 C834 1.394 . S
C835 C836 1.516 1_554 S
C836 C835 1.516 1_556 S
C836 C837 1.504 . S
C836 C838 1.561 . S
C836 C839 1.526 . S
C837 H821 0.954 1_556 S
C837 H822 0.964 . S
C837 H823 0.959 1_556 S
C837 C836 1.504 . S
C838 H824 0.960 . S
C838 H825 0.961 . S
C838 H826 0.959 . S
C838 C836 1.561 . S
C839 C836 1.526 . S
C839 C840 1.396 . S
C839 C844 1.390 . S
C840 C834 1.465 1_556 S
C840 C839 1.396 . S
C840 C841 1.399 . S
C841 H827 0.929 1_556 S
C841 C840 1.399 . S
C841 C842 1.385 . S
C842 H828 0.931 . S
C842 C841 1.385 . S
C842 C843 1.389 . S
C843 C842 1.389 . S
C843 C844 1.387 . S
C844 H829 0.930 . S
C844 C839 1.390 . S
C844 C843 1.387 . S
H845 C857 0.930 . S
H846 C859 0.930 . S
H847 C860 0.930 . S
H848 C864 0.959 . S
H849 C864 0.959 . S
H850 C864 0.961 . S
H851 C865 0.960 . S
H852 C865 0.961 . S
H853 C865 0.959 . S
H854 C868 0.929 . S
H855 C869 0.931 . S
H856 C871 0.930 . S
C857 H845 0.930 . S
C857 C858 1.399 . S
C857 C862 1.399 . S
C858 C857 1.399 . S
C858 C859 1.376 . S
C859 H846 0.930 . S
C859 C858 1.376 . S
C859 C860 1.388 . S
C860 H847 0.930 . S
C860 C859 1.388 . S
C860 C861 1.390 . S
C861 C860 1.390 . S
C861 C862 1.394 . S
C861 C867 1.465 . S
C862 C857 1.399 . S
C862 C861 1.394 . S
C862 C863 1.516 . S
C863 C862 1.516 . S
C863 C864 1.502 . S
C863 C865 1.561 . S
C863 C866 1.526 . S
C864 H848 0.959 . S
C864 H849 0.959 . S
C864 H850 0.961 . S
C864 C863 1.502 . S
C865 H851 0.960 . S
C865 H852 0.961 . S
C865 H853 0.959 . S
C865 C863 1.561 . S
C866 C863 1.526 . S
C866 C867 1.396 . S
C866 C871 1.390 . S
C867 C861 1.465 . S
C867 C866 1.396 . S
C867 C868 1.399 . S
C868 H854 0.929 . S
C868 C867 1.399 . S
C868 C869 1.385 . S
C869 H855 0.931 . S
C869 C868 1.385 . S
C869 C870 1.389 . S
C870 C869 1.389 . S
C870 C871 1.387 . S
C871 H856 0.930 . S
C871 C866 1.390 . S
C871 C870 1.387 . S
H872 C884 0.930 . S
H873 C886 0.930 . S
H874 C887 0.930 . S
H875 C891 0.959 . S
H876 C891 0.959 . S
H877 C891 0.961 . S
H878 C892 0.960 . S
H879 C892 0.961 . S
H880 C892 0.959 . S
H881 C895 0.929 . S
H882 C896 0.931 . S
H883 C898 0.930 . S
C884 H872 0.930 . S
C884 C885 1.399 . S
C884 C889 1.399 . S
C885 C884 1.399 . S
C885 C886 1.376 . S
C886 H873 0.930 . S
C886 C885 1.376 . S
C886 C887 1.388 . S
C887 H874 0.930 . S
C887 C886 1.388 . S
C887 C888 1.390 . S
C888 C887 1.390 . S
C888 C889 1.394 . S
C888 C894 1.465 . S
C889 C884 1.399 . S
C889 C888 1.394 . S
C889 C890 1.516 1_556 S
C890 C889 1.516 1_554 S
C890 C891 1.502 . S
C890 C892 1.561 . S
C890 C893 1.526 . S
C891 H875 0.959 . S
C891 H876 0.959 . S
C891 H877 0.961 . S
C891 C890 1.502 . S
C892 H878 0.960 . S
C892 H879 0.961 . S
C892 H880 0.959 . S
C892 C890 1.561 . S
C893 C890 1.526 . S
C893 C894 1.396 1_554 S
C893 C898 1.390 . S
C894 C888 1.465 . S
C894 C893 1.396 1_556 S
C894 C895 1.399 . S
C895 H881 0.929 . S
C895 C894 1.399 . S
C895 C896 1.385 1_556 S
C896 H882 0.931 . S
C896 C895 1.385 1_554 S
C896 C897 1.389 . S
C897 C896 1.389 . S
C897 C898 1.387 . S
C898 H883 0.930 . S
C898 C893 1.390 . S
C898 C897 1.387 . S
H899 C911 0.930 . S
H900 C913 0.930 . S
H901 C914 0.930 . S
H902 C918 0.959 . S
H903 C918 0.959 . S
H904 C918 0.961 . S
H905 C919 0.960 . S
H906 C919 0.961 . S
H907 C919 0.959 . S
H908 C922 0.929 . S
H909 C923 0.931 . S
H910 C925 0.930 . S
C911 H899 0.930 . S
C911 C912 1.399 . S
C911 C916 1.399 . S
C912 C911 1.399 . S
C912 C913 1.376 . S
C913 H900 0.930 . S
C913 C912 1.376 . S
C913 C914 1.388 . S
C914 H901 0.930 . S
C914 C913 1.388 . S
C914 C915 1.390 . S
C915 C914 1.390 . S
C915 C916 1.394 . S
C915 C921 1.465 . S
C916 C911 1.399 . S
C916 C915 1.394 . S
C916 C917 1.516 . S
C917 C916 1.516 . S
C917 C918 1.502 . S
C917 C919 1.561 . S
C917 C920 1.526 . S
C918 H902 0.959 . S
C918 H903 0.959 . S
C918 H904 0.961 . S
C918 C917 1.502 . S
C919 H905 0.960 . S
C919 H906 0.961 . S
C919 H907 0.959 . S
C919 C917 1.561 . S
C920 C917 1.526 . S
C920 C921 1.396 . S
C920 C925 1.390 . S
C921 C915 1.465 . S
C921 C920 1.396 . S
C921 C922 1.399 . S
C922 H908 0.929 . S
C922 C921 1.399 . S
C922 C923 1.385 . S
C923 H909 0.931 . S
C923 C922 1.385 . S
C923 C924 1.389 . S
C924 C923 1.389 . S
C924 C925 1.387 . S
C925 H910 0.930 . S
C925 C920 1.390 . S
C925 C924 1.387 . S
H926 C938 0.930 . S
H927 C940 0.929 1_556 S
H928 C941 0.930 . S
H929 C945 0.959 . S
H930 C945 0.959 . S
H931 C945 0.961 . S
H932 C946 0.960 . S
H933 C946 0.961 . S
H934 C946 0.959 . S
H935 C949 0.929 . S
H936 C950 0.931 . S
H937 C952 0.930 1_554 S
C938 H926 0.930 . S
C938 C939 1.399 . S
C938 C943 1.399 . S
C939 C938 1.399 . S
C939 C940 1.376 . S
C940 H927 0.929 1_554 S
C940 C939 1.376 . S
C940 C941 1.388 1_554 S
C941 H928 0.930 . S
C941 C940 1.388 1_556 S
C941 C942 1.390 . S
C942 C941 1.390 . S
C942 C943 1.394 1_556 S
C942 C948 1.465 . S
C943 C938 1.399 . S
C943 C942 1.394 1_554 S
C943 C944 1.516 . S
C944 C943 1.516 . S
C944 C945 1.502 . S
C944 C946 1.561 . S
C944 C947 1.512 1_554 S
C945 H929 0.959 . S
C945 H930 0.959 . S
C945 H931 0.961 . S
C945 C944 1.502 . S
C946 H932 0.960 . S
C946 H933 0.961 . S
C946 H934 0.959 . S
C946 C944 1.561 . S
C947 C944 1.512 1_556 S
C947 C948 1.406 . S
C947 C952 1.394 . S
C948 C942 1.465 . S
C948 C947 1.406 . S
C948 C949 1.399 . S
C949 H935 0.929 . S
C949 C948 1.399 . S
C949 C950 1.385 . S
C950 H936 0.931 . S
C950 C949 1.385 . S
C950 C951 1.389 . S
C951 C950 1.389 . S
C951 C952 1.387 . S
C952 H937 0.930 1_556 S
C952 C947 1.394 . S
C952 C951 1.387 . S
H953 C965 0.930 . S
H954 C967 0.930 . S
H955 C968 0.930 . S
H956 C972 0.959 . S
H957 C972 0.959 . S
H958 C972 0.961 . S
H959 C973 0.960 . S
H960 C973 0.961 . S
H961 C973 0.959 . S
H962 C976 0.929 . S
H963 C977 0.931 . S
H964 C979 0.930 . S
C965 H953 0.930 . S
C965 C966 1.399 . S
C965 C970 1.399 . S
C966 C965 1.399 . S
C966 C967 1.376 . S
C967 H954 0.930 . S
C967 C966 1.376 . S
C967 C968 1.388 . S
C968 H955 0.930 . S
C968 C967 1.388 . S
C968 C969 1.390 . S
C969 C968 1.390 . S
C969 C970 1.394 . S
C969 C975 1.465 . S
C970 C965 1.399 . S
C970 C969 1.394 . S
C970 C971 1.516 . S
C971 C970 1.516 . S
C971 C972 1.502 . S
C971 C973 1.561 . S
C971 C974 1.526 . S
C972 H956 0.959 . S
C972 H957 0.959 . S
C972 H958 0.961 . S
C972 C971 1.502 . S
C973 H959 0.960 . S
C973 H960 0.961 . S
C973 H961 0.959 . S
C973 C971 1.561 . S
C974 C971 1.526 . S
C974 C975 1.396 . S
C974 C979 1.390 . S
C975 C969 1.465 . S
C975 C974 1.396 . S
C975 C976 1.399 . S
C976 H962 0.929 . S
C976 C975 1.399 . S
C976 C977 1.385 . S
C977 H963 0.931 . S
C977 C976 1.385 . S
C977 C978 1.389 . S
C978 C977 1.389 . S
C978 C979 1.387 . S
C979 H964 0.930 . S
C979 C974 1.390 . S
C979 C978 1.387 . S
H980 C992 0.930 . S
H981 C994 0.930 . S
H982 C995 0.930 . S
H983 C999 0.959 . S
H984 C999 0.959 . S
H985 C999 0.961 . S
H986 C1000 0.960 . S
H987 C1000 0.961 . S
H988 C1000 0.959 . S
H989 C1003 0.929 . S
H990 C1004 0.931 . S
H991 C1006 0.943 . S
C992 H980 0.930 . S
C992 C993 1.399 . S
C992 C997 1.399 . S
C993 C992 1.399 . S
C993 C994 1.376 . S
C994 H981 0.930 . S
C994 C993 1.376 . S
C994 C995 1.388 1_556 S
C995 H982 0.930 . S
C995 C994 1.388 1_554 S
C995 C996 1.390 . S
C996 C995 1.390 . S
C996 C997 1.394 1_554 S
C996 C1002 1.465 1_545 S
C997 C992 1.399 . S
C997 C996 1.394 1_556 S
C997 C998 1.516 1_545 S
C998 C997 1.516 1_565 S
C998 C999 1.502 . S
C998 C1000 1.561 . S
C998 C1001 1.526 1_556 S
C999 H983 0.959 . S
C999 H984 0.959 . S
C999 H985 0.961 . S
C999 C998 1.502 . S
C1000 H986 0.960 . S
C1000 H987 0.961 . S
C1000 H988 0.959 . S
C1000 C998 1.561 . S
C1001 C998 1.526 1_554 S
C1001 C1002 1.396 . S
C1001 C1006 1.390 . S
C1002 C996 1.465 1_565 S
C1002 C1001 1.396 . S
C1002 C1003 1.399 . S
C1003 H989 0.929 . S
C1003 C1002 1.399 . S
C1003 C1004 1.385 . S
C1004 H990 0.931 . S
C1004 C1003 1.385 . S
C1004 C1005 1.389 . S
C1005 C1004 1.389 . S
C1005 C1006 1.387 . S
C1006 H991 0.943 . S
C1006 C1001 1.390 . S
C1006 C1005 1.387 . S
H1007 C1019 0.930 . S
H1008 C1021 0.930 . S
H1009 C1022 0.942 . S
H1010 C1026 0.959 . S
H1011 C1026 0.959 . S
H1012 C1026 0.961 . S
H1013 C1027 0.960 . S
H1014 C1027 0.961 . S
H1015 C1027 0.959 . S
H1016 C1030 0.929 . S
H1017 C1031 0.931 . S
H1018 C1033 0.930 . S
C1019 H1007 0.930 . S
C1019 C1020 1.399 . S
C1019 C1024 1.399 . S
C1020 C1019 1.399 . S
C1020 C1021 1.376 . S
C1021 H1008 0.930 . S
C1021 C1020 1.376 . S
C1021 C1022 1.388 . S
C1022 H1009 0.942 . S
C1022 C1021 1.388 . S
C1022 C1023 1.390 . S
C1023 C1022 1.390 . S
C1023 C1024 1.394 . S
C1023 C1029 1.465 1_565 S
C1024 C1019 1.399 . S
C1024 C1023 1.394 . S
C1024 C1025 1.516 . S
C1025 C1024 1.516 . S
C1025 C1026 1.502 . S
C1025 C1027 1.561 . S
C1025 C1028 1.526 1_565 S
C1026 H1010 0.959 . S
C1026 H1011 0.959 . S
C1026 H1012 0.961 . S
C1026 C1025 1.502 . S
C1027 H1013 0.960 . S
C1027 H1014 0.961 . S
C1027 H1015 0.959 . S
C1027 C1025 1.561 . S
C1028 C1025 1.526 1_545 S
C1028 C1029 1.396 . S
C1028 C1033 1.390 . S
C1029 C1023 1.465 1_545 S
C1029 C1028 1.396 . S
C1029 C1030 1.399 . S
C1030 H1016 0.929 . S
C1030 C1029 1.399 . S
C1030 C1031 1.385 . S
C1031 H1017 0.931 . S
C1031 C1030 1.385 . S
C1031 C1032 1.389 . S
C1032 C1031 1.389 . S
C1032 C1033 1.387 . S
C1033 H1018 0.930 . S
C1033 C1028 1.390 . S
C1033 C1032 1.387 . S
H1034 C1046 0.930 . S
H1035 C1048 0.930 . S
H1036 C1049 0.930 1_556 S
H1037 C1053 0.959 . S
H1038 C1053 0.959 . S
H1039 C1053 0.961 . S
H1040 C1054 0.960 . S
H1041 C1054 0.961 1_545 S
H1042 C1054 0.959 . S
H1043 C1057 0.929 . S
H1044 C1058 0.931 . S
H1045 C1060 0.930 . S
C1046 H1034 0.930 . S
C1046 C1047 1.399 . S
C1046 C1051 1.399 . S
C1047 C1046 1.399 . S
C1047 C1048 1.376 . S
C1048 H1035 0.930 . S
C1048 C1047 1.376 . S
C1048 C1049 1.388 . S
C1049 H1036 0.930 1_554 S
C1049 C1048 1.388 . S
C1049 C1050 1.390 . S
C1050 C1049 1.390 . S
C1050 C1051 1.394 . S
C1050 C1056 1.465 1_564 S
C1051 C1046 1.399 . S
C1051 C1050 1.394 . S
C1051 C1052 1.516 1_565 S
C1052 C1051 1.516 1_545 S
C1052 C1053 1.502 . S
C1052 C1054 1.561 1_544 S
C1052 C1055 1.526 1_554 S
C1053 H1037 0.959 . S
C1053 H1038 0.959 . S
C1053 H1039 0.961 . S
C1053 C1052 1.502 . S
C1054 H1040 0.960 . S
C1054 H1041 0.961 1_565 S
C1054 H1042 0.959 . S
C1054 C1052 1.561 1_566 S
C1055 C1052 1.526 1_556 S
C1055 C1056 1.396 . S
C1055 C1060 1.390 . S
C1056 C1050 1.465 1_546 S
C1056 C1055 1.396 . S
C1056 C1057 1.399 . S
C1057 H1043 0.929 . S
C1057 C1056 1.399 . S
C1057 C1058 1.385 . S
C1058 H1044 0.931 . S
C1058 C1057 1.385 . S
C1058 C1059 1.389 . S
C1059 C1058 1.389 . S
C1059 C1060 1.387 . S
C1060 H1045 0.930 . S
C1060 C1055 1.390 . S
C1060 C1059 1.387 . S
H1061 C1073 0.930 . S
H1062 C1075 0.930 . S
H1063 C1076 0.930 . S
H1064 C1080 0.959 . S
H1065 C1080 0.959 . S
H1066 C1080 0.961 . S
H1067 C1081 0.960 . S
H1068 C1081 0.961 . S
H1069 C1081 0.959 . S
H1070 C1084 0.929 . S
H1071 C1085 0.931 . S
H1072 C1087 0.930 . S
C1073 H1061 0.930 . S
C1073 C1074 1.399 . S
C1073 C1078 1.399 . S
C1074 C1073 1.399 . S
C1074 C1075 1.376 . S
C1075 H1062 0.930 . S
C1075 C1074 1.376 . S
C1075 C1076 1.388 . S
C1076 H1063 0.930 . S
C1076 C1075 1.388 . S
C1076 C1077 1.390 . S
C1077 C1076 1.390 . S
C1077 C1078 1.394 . S
C1077 C1083 1.465 1_545 S
C1078 C1073 1.399 . S
C1078 C1077 1.394 . S
C1078 C1079 1.516 1_545 S
C1079 C1078 1.516 1_565 S
C1079 C1080 1.502 . S
C1079 C1081 1.561 . S
C1079 C1082 1.526 . S
C1080 H1064 0.959 . S
C1080 H1065 0.959 . S
C1080 H1066 0.961 . S
C1080 C1079 1.502 . S
C1081 H1067 0.960 . S
C1081 H1068 0.961 . S
C1081 H1069 0.959 . S
C1081 C1079 1.561 . S
C1082 C1079 1.526 . S
C1082 C1083 1.396 . S
C1082 C1087 1.390 . S
C1083 C1077 1.465 1_565 S
C1083 C1082 1.396 . S
C1083 C1084 1.399 . S
C1084 H1070 0.929 . S
C1084 C1083 1.399 . S
C1084 C1085 1.385 . S
C1085 H1071 0.931 . S
C1085 C1084 1.385 . S
C1085 C1086 1.389 . S
C1086 C1085 1.389 . S
C1086 C1087 1.387 . S
C1087 H1072 0.930 . S
C1087 C1082 1.390 . S
C1087 C1086 1.387 . S
C237 C4 1.451 . S
C249 C88 1.451 . S
C264 C18 1.489 . S
C276 C102 1.449 . S
C291 C60 1.479 . S
C303 C32 1.467 . S
C318 C74 1.457 . S
C330 C46 1.486 . S
C345 C200 1.459 . S
C357 C116 1.443 . S
C372 C214 1.466 . S
C384 C130 1.480 . S
C399 C144 1.433 . S
C411 C172 1.484 . S
C426 C158 1.481 . S
C438 C186 1.465 . S
C453 C5 1.235 . S
C465 C82 1.426 . S
C480 C19 1.223 . S
C492 C68 1.430 . S
C507 C33 1.229 . S
C519 C110 1.428 . S
C534 C96 1.412 . S
C546 C47 1.312 . S
C561 C194 1.413 . S
C573 C117 1.309 . S
C588 C180 1.413 . S
C600 C131 1.308 . S
C615 C145 1.228 . S
C627 C222 1.428 . S
C642 C208 1.412 . S
C654 C159 1.344 . S
C669 C179 1.293 . S
C681 C11 1.314 . S
C696 C25 1.357 . S
C708 C193 1.333 . S
C723 C207 1.293 . S
C735 C39 1.322 . S
C750 C221 1.358 . S
C762 C53 1.320 . S
C777 C123 1.356 . S
C789 C67 1.323 . S
C804 C137 1.325 . S
C816 C81 1.359 . S
C831 C95 1.299 . S
C843 C151 1.337 . S
C858 C109 1.316 . S
C870 C165 1.353 . S
C885 C40 1.525 . S
C897 C12 1.530 . S
C912 C26 1.528 . S
C924 C54 1.534 . S
C939 C89 1.233 . S
C951 C61 1.194 . S
C966 C75 1.231 . S
C978 C103 1.192 . S
C993 C152 1.549 . S
C1005 C124 1.545 . S
C1020 C166 1.537 . S
C1032 C138 1.544 . S
C1047 C201 1.129 . S
C1059 C173 1.106 . S
C1074 C215 1.241 . S
C1086 C187 1.206 . S
