# Generated by pormake.
# Topology fnu, (5)-cn, num edge types: 1
# Building blocks:
#     Node 0, Type 0, BuildingBlock: BEQFEK_clean_sbu_0, # of connection points: 5
#     Node 1, Type 0, BuildingBlock: BEQFEK_clean_sbu_0, # of connection points: 5
#     Node 2, Type 0, BuildingBlock: BEQFEK_clean_sbu_0, # of connection points: 5
#     Node 3, Type 0, BuildingBlock: BEQFEK_clean_sbu_0, # of connection points: 5
#     Node 4, Type 0, BuildingBlock: BEQFEK_clean_sbu_0, # of connection points: 5
#     Node 5, Type 0, BuildingBlock: BEQFEK_clean_sbu_0, # of connection points: 5
#     Edge 6, Type (0, 0), BuildingBlock: EZIPEK_clean_linker_0, # of connection points: 2
#     Edge 7, Type (0, 0), BuildingBlock: EZIPEK_clean_linker_0, # of connection points: 2
#     Edge 8, Type (0, 0), BuildingBlock: EZIPEK_clean_linker_0, # of connection points: 2
#     Edge 9, Type (0, 0), BuildingBlock: EZIPEK_clean_linker_0, # of connection points: 2
#     Edge 10, Type (0, 0), BuildingBlock: EZIPEK_clean_linker_0, # of connection points: 2
#     Edge 11, Type (0, 0), BuildingBlock: EZIPEK_clean_linker_0, # of connection points: 2
#     Edge 12, Type (0, 0), BuildingBlock: EZIPEK_clean_linker_0, # of connection points: 2
#     Edge 13, Type (0, 0), BuildingBlock: EZIPEK_clean_linker_0, # of connection points: 2
#     Edge 14, Type (0, 0), BuildingBlock: EZIPEK_clean_linker_0, # of connection points: 2
#     Edge 15, Type (0, 0), BuildingBlock: EZIPEK_clean_linker_0, # of connection points: 2
#     Edge 16, Type (0, 0), BuildingBlock: EZIPEK_clean_linker_0, # of connection points: 2
#     Edge 17, Type (0, 0), BuildingBlock: EZIPEK_clean_linker_0, # of connection points: 2
#     Edge 18, Type (0, 0), BuildingBlock: EZIPEK_clean_linker_0, # of connection points: 2
#     Edge 19, Type (0, 0), BuildingBlock: EZIPEK_clean_linker_0, # of connection points: 2
#     Edge 20, Type (0, 0), BuildingBlock: EZIPEK_clean_linker_0, # of connection points: 2
# Relax obj value: 0.177
# Max RMSD: 0.168
# Mean RMSD: 0.168
data_MOF--net-fnu--node1-BEQFEK_clean_sbu_0--edge1-EZIPEK_clean_linker_0
_symmetry_space_group_name_H-M    P1
_symmetry_Int_Tables_number       1
_symmetry_cell_setting            triclinic
loop_
_symmetry_equiv_pos_as_xyz
'x, y, z'
_cell_length_a     18.212313
_cell_length_b     21.621427
_cell_length_c     28.240536
_cell_angle_alpha  90.184067
_cell_angle_beta   97.363059
_cell_angle_gamma 126.21867
loop_
_atom_site_label
_atom_site_type_symbol
_atom_site_fract_x
_atom_site_fract_y
_atom_site_fract_z
_atom_type_partial_charge
Co0 Co 0.98896 0.9793 0.16783 0.0
Co1 Co 1.00064 0.02096 0.277 0.0
C2 C 0.92031 0.85818 0.23238 0.0
O3 O 0.931 0.88077 0.19094 0.0
O4 O 0.94552 0.90446 0.26986 0.0
C5 C 0.06047 0.95577 0.1016 0.0
O6 O 0.07521 0.92672 0.13921 0.0
C7 C 0.97197 0.02286 0.38115 0.0
C8 C 0.0672 0.14845 0.40119 0.0
C9 C 1.01082 0.07911 0.42019 0.0
N10 N 1.00506 0.05795 0.34145 0.0
N11 N 0.0613 0.13302 0.35409 0.0
C12 C 0.90648 0.93747 0.38169 0.0
H13 H 0.85206 0.91265 0.34954 0.0
H14 H 0.87481 0.92224 0.41483 0.0
H15 H 0.9443 0.91218 0.37976 0.0
C16 C 0.89049 0.04653 0.15166 0.0
N17 N 0.93187 0.02374 0.18149 0.0
N18 N 0.93627 0.04373 0.22656 0.0
C19 C 0.89718 0.08109 0.22617 0.0
C20 C 0.86751 0.08436 0.17861 0.0
C21 C 0.87939 0.03676 0.09817 0.0
H22 H 0.85553 0.97781 0.08627 0.0
H23 H 0.82987 0.04715 0.08074 0.0
H24 H 0.94744 0.07828 0.08687 0.0
O25 O 0.1164 0.04679 0.19577 0.0
O26 O 0.13688 0.08591 0.27126 0.0
H27 H 0.8371 0.12418 0.26261 0.0
H28 H 0.87771 0.07849 0.29962 0.0
C29 C 0.89182 0.11593 0.2701 0.0
H30 H 0.95891 0.1728 0.28164 0.0
H31 H 0.09838 0.17398 0.33067 0.0
O32 O 1.00461 0.97311 0.10123 0.0
C33 C 0.16928 0.08707 0.23371 0.0
Co34 Co 0.11463 0.0722 0.8823 0.0
Co35 Co 0.05189 0.06561 0.773 0.0
C36 C 0.12913 0.98223 0.81037 0.0
O37 O 0.1317 1.00503 0.85185 0.0
O38 O 0.1038 1.00282 0.7732 0.0
C39 C 0.24048 0.0803 0.95594 0.0
O40 O 0.2827 0.08064 0.92149 0.0
C41 C 0.05386 0.08273 0.6668 0.0
C42 C 0.91665 0.05587 0.64394 0.0
C43 C 0.99324 0.07214 0.62621 0.0
N44 N 1.01415 0.07233 0.70624 0.0
N45 N 0.93231 0.05675 0.69197 0.0
C46 C 0.14723 0.10125 0.6681 0.0
H47 H 0.19417 0.14094 0.70052 0.0
H48 H 0.17599 0.12723 0.63522 0.0
H49 H 0.14163 0.04743 0.6706 0.0
C50 C 0.21458 0.23432 0.8802 0.0
N51 N 0.1669 0.16459 0.8558 0.0
N52 N 0.1371 0.16628 0.81112 0.0
C53 C 0.16384 0.23907 0.80647 0.0
C54 C 0.21387 0.28419 0.85036 0.0
C55 C 0.24699 0.24942 0.93333 0.0
H56 H 0.29595 0.23491 0.9422 0.0
H57 H 0.28189 0.31039 0.94671 0.0
H58 H 0.18715 0.21202 0.95207 0.0
O59 O 0.98338 1.01989 0.88156 0.0
O60 O 0.93466 1.00475 0.80295 0.0
H61 H 0.1244 0.30718 0.77359 0.0
H62 H 0.18712 0.28791 0.7397 0.0
C63 C 0.13342 0.26281 0.76316 0.0
H64 H 0.068 0.21233 0.74265 0.0
H65 H 0.88586 0.04483 0.71499 0.0
O66 O 0.17346 0.08458 0.94687 0.0
C67 C 0.91879 0.99393 0.84616 0.0
Co68 Co 0.72804 0.30419 0.51193 0.0
Co69 Co 0.73475 0.34885 0.61922 0.0
C70 C 0.66335 0.18709 0.57992 0.0
O71 O 0.67611 0.20808 0.53826 0.0
O72 O 0.6839 0.23413 0.61577 0.0
C73 C 0.79206 0.26915 0.44458 0.0
O74 O 0.82033 0.25117 0.48361 0.0
C75 C 0.67409 0.34164 0.71558 0.0
C76 C 0.78077 0.46121 0.74743 0.0
C77 C 0.70554 0.39071 0.75762 0.0
N78 N 0.72904 0.38143 0.68266 0.0
N79 N 0.79216 0.45296 0.70221 0.0
C80 C 0.59377 0.25838 0.70694 0.0
H81 H 0.55655 0.24562 0.66976 0.0
H82 H 0.54626 0.24277 0.73318 0.0
H83 H 0.61939 0.22283 0.71051 0.0
C84 C 0.62657 0.36935 0.49168 0.0
N85 N 0.66582 0.34588 0.52265 0.0
N86 N 0.66848 0.3667 0.5672 0.0
C87 C 0.63036 0.40485 0.56543 0.0
C88 C 0.60269 0.40774 0.51746 0.0
C89 C 0.62086 0.36175 0.43845 0.0
H90 H 0.59704 0.30294 0.42622 0.0
H91 H 0.57357 0.37358 0.41967 0.0
H92 H 0.69073 0.40334 0.42915 0.0
O93 O 0.85556 0.37803 0.53742 0.0
O94 O 0.87209 0.41715 0.61288 0.0
H95 H 0.58727 0.46608 0.59895 0.0
H96 H 0.59687 0.40161 0.63566 0.0
C97 C 0.6276 0.44329 0.60852 0.0
H98 H 0.69912 0.49139 0.62476 0.0
H99 H 0.84448 0.49612 0.68491 0.0
O100 O 0.73926 0.28936 0.44617 0.0
C101 C 0.90631 0.4197 0.57555 0.0
Co102 Co 0.72261 0.34578 0.20472 0.0
Co103 Co 0.64995 0.34076 0.09736 0.0
C104 C 0.72949 0.25607 0.12835 0.0
O105 O 0.73839 0.27915 0.17098 0.0
O106 O 0.69924 0.27677 0.09351 0.0
C107 C 0.86062 0.36189 0.27101 0.0
O108 O 0.89882 0.3689 0.23306 0.0
C109 C 0.66252 0.36138 0.99373 0.0
C110 C 0.53519 0.34867 0.96556 0.0
C111 C 0.61152 0.35868 0.95135 0.0
N112 N 0.61818 0.35266 0.03086 0.0
N113 N 0.54239 0.34575 1.01359 0.0
C114 C 0.7521 0.3719 0.99888 0.0
H115 H 0.79397 0.40289 0.03441 0.0
H116 H 0.79095 0.40386 0.9697 0.0
H117 H 0.73814 0.3145 0.99682 0.0
C118 C 0.81229 0.50771 0.20483 0.0
N119 N 0.7691 0.43899 0.17966 0.0
N120 N 0.73698 0.44038 0.13549 0.0
C121 C 0.75898 0.51181 0.13157 0.0
C122 C 0.80723 0.55657 0.17569 0.0
C123 C 0.84352 0.5217 0.25802 0.0
H124 H 0.89924 0.51466 0.26643 0.0
H125 H 0.8695 0.58014 0.27256 0.0
H126 H 0.78516 0.47834 0.27601 0.0
O127 O 0.59251 0.29208 0.20712 0.0
O128 O 0.53479 0.28078 0.1301 0.0
H129 H 0.75499 0.5957 0.09239 0.0
H130 H 0.74104 0.51887 0.05599 0.0
C131 C 0.72435 0.5334 0.08878 0.0
H132 H 0.64814 0.49903 0.08481 0.0
H133 H 0.49463 0.33779 0.03446 0.0
O134 O 0.7882 0.35873 0.26752 0.0
C135 C 0.52468 0.26856 0.17411 0.0
Co136 Co 0.35717 0.6948 0.84637 0.0
Co137 Co 0.40173 0.74078 0.95655 0.0
C138 C 0.33079 0.58348 0.91524 0.0
O139 O 0.335 0.60715 0.87446 0.0
O140 O 0.35016 0.62637 0.95299 0.0
C141 C 0.23764 0.58416 0.76965 0.0
O142 O 0.1869 0.54427 0.8022 0.0
C143 C 0.38451 0.73835 0.06113 0.0
C144 C 0.50867 0.85366 0.09069 0.0
C145 C 0.43496 0.78525 0.10412 0.0
N146 N 0.42684 0.77712 1.02428 0.0
N147 N 0.50083 0.84619 0.0425 0.0
C148 C 0.29889 0.65729 0.0553 0.0
H149 H 0.25443 0.64613 1.02071 0.0
H150 H 0.2606 0.64596 0.08564 0.0
H151 H 0.31814 0.6173 0.05461 0.0
C152 C 0.25369 0.75498 0.84484 0.0
N153 N 0.29923 0.73197 0.8705 0.0
N154 N 0.32072 0.75875 0.91599 0.0
C155 C 0.29002 0.80224 0.91998 0.0
C156 C 0.24644 0.80072 0.87481 0.0
C157 C 0.23063 0.74334 0.79116 0.0
H158 H 0.29424 0.76679 0.77558 0.0
H159 H 0.18154 0.6808 0.77956 0.0
H160 H 0.19894 0.7717 0.77695 0.0
O161 O 0.4892 0.77426 0.85309 0.0
O162 O 0.52566 0.80145 0.93258 0.0
H163 H 0.36205 0.85429 0.99166 0.0
H164 H 0.3358 0.90997 0.95541 0.0
C165 C 0.31035 0.85112 0.9643 0.0
H166 H 0.2457 0.82589 0.97922 0.0
H167 H 0.54757 0.88778 1.02211 0.0
O168 O 0.3081 0.65368 0.78037 0.0
C169 C 0.54854 0.81044 0.89072 0.0
Co170 Co 0.45585 0.66563 0.55086 0.0
Co171 Co 0.39051 0.67307 0.44399 0.0
C172 C 0.48225 0.59301 0.47571 0.0
O173 O 0.4975 0.61647 0.51936 0.0
O174 O 0.44033 0.60791 0.44302 0.0
C175 C 0.41672 0.59475 0.62733 0.0
O176 O 0.388 0.5398 0.59353 0.0
C177 C 0.41793 0.71477 0.34237 0.0
C178 C 0.28974 0.7019 0.31591 0.0
C179 C 0.36953 0.71941 0.30164 0.0
N180 N 0.36846 0.6949 0.37867 0.0
N181 N 0.29206 0.6876 0.36229 0.0
C182 C 0.50951 0.72898 0.34675 0.0
H183 H 0.54809 0.7543 0.38365 0.0
H184 H 0.55008 0.76752 0.31995 0.0
H185 H 0.49847 0.6732 0.34026 0.0
C186 C 0.54646 0.8303 0.55814 0.0
N187 N 0.5018 0.76264 0.53132 0.0
N188 N 0.47217 0.76787 0.48749 0.0
C189 C 0.49626 0.84016 0.48569 0.0
C190 C 0.54379 0.88182 0.5306 0.0
C191 C 0.5814 0.84243 0.61077 0.0
H192 H 0.52332 0.82056 0.63089 0.0
H193 H 0.61052 0.81016 0.61908 0.0
H194 H 0.63483 0.90442 0.62287 0.0
O195 O 0.32141 0.60312 0.53929 0.0
O196 O 0.26621 0.61053 0.46719 0.0
H197 H 0.49463 0.92772 0.44988 0.0
H198 H 0.49101 0.85832 0.41141 0.0
C199 C 0.46681 0.86633 0.44339 0.0
H200 H 0.39036 0.82994 0.43574 0.0
H201 H 0.24076 0.67212 0.38276 0.0
O202 O 0.47822 0.66391 0.62025 0.0
C203 C 0.25408 0.5867 0.50875 0.0
C204 C 0.30718 0.10128 0.21463 0.0
C205 C 0.26899 0.1376 0.23016 0.0
C206 C 0.40041 0.26162 0.20937 0.0
C207 C 0.4321 0.22313 0.18865 0.0
N208 N 0.41121 0.10536 0.16669 0.0
N209 N 0.27385 0.25104 0.2383 0.0
C210 C 0.38415 0.14258 0.18995 0.0
C211 C 0.31472 0.21773 0.227 0.0
N212 N 0.26959 0.02702 0.2241 0.0
N213 N 0.4528 0.34026 0.21261 0.0
H214 H 0.21309 0.22161 0.25292 0.0
H215 H 0.29742 0.30654 0.2309 0.0
H216 H 0.51329 0.3739 0.19785 0.0
H217 H 0.43932 0.37237 0.23228 0.0
H218 H 0.29818 0.99863 0.21757 0.0
H219 H 0.21415 0.99621 0.24291 0.0
H220 H 0.37368 0.04567 0.16197 0.0
H221 H 0.46757 0.13402 0.14845 0.0
C222 C 0.88993 0.20033 0.14324 0.0
C223 C 0.82996 0.12639 0.15937 0.0
C224 C 0.69749 0.1281 0.13194 0.0
C225 C 0.75872 0.20581 0.12242 0.0
N226 N 0.91169 0.31648 0.11693 0.0
N227 N 0.67689 1.01875 0.16935 0.0
C228 C 0.85444 0.24144 0.1265 0.0
C229 C 0.73348 0.08953 0.1533 0.0
N230 N 0.98088 0.23128 0.14416 0.0
N231 N 0.60473 0.09205 0.12077 0.0
H232 H 0.70068 0.98829 0.18414 0.0
H233 H 0.60742 0.99173 0.17067 0.0
H234 H 0.5782 0.11989 0.10471 0.0
H235 H 0.55471 0.03383 0.12338 0.0
H236 H 1.02617 0.28072 0.12821 0.0
H237 H 1.01072 0.20533 0.15889 0.0
H238 H 0.98328 0.35027 0.12485 0.0
H239 H 0.88639 0.34588 0.10207 0.0
C240 C 0.92915 0.69509 0.20685 0.0
C241 C 0.83406 0.63382 0.19298 0.0
C242 C 0.79375 0.71693 0.22031 0.0
C243 C 0.88869 0.77758 0.23447 0.0
N244 N 0.0449 0.81957 0.25229 0.0
N245 N 0.67552 0.58039 0.19714 0.0
C246 C 0.95557 0.76445 0.2317 0.0
C247 C 0.76606 0.64285 0.20294 0.0
N248 N 0.99424 0.68786 0.19469 0.0
N249 N 0.73047 0.7314 0.22175 0.0
H250 H 0.6525 0.52546 0.18436 0.0
H251 H 0.62416 0.58169 0.20841 0.0
H252 H 0.74884 0.78381 0.23687 0.0
H253 H 0.66134 0.69314 0.20637 0.0
H254 H 0.06439 0.7329 0.19948 0.0
H255 H 0.97745 0.6383 0.17598 0.0
H256 H 0.09658 0.81194 0.25516 0.0
H257 H 0.06504 0.87056 0.27071 0.0
C258 C 0.3378 0.42301 0.8788 0.0
C259 C 0.24222 0.36165 0.86785 0.0
C260 C 0.20607 0.44257 0.9039 0.0
C261 C 0.30158 0.50345 0.91505 0.0
N262 N 0.45827 0.54697 0.92369 0.0
N263 N 0.08625 0.30689 0.87913 0.0
C264 C 0.36731 0.49159 0.90612 0.0
C265 C 0.17648 0.36955 0.8832 0.0
N266 N 0.40006 0.41631 0.86182 0.0
N267 N 0.14372 0.45605 0.91112 0.0
H268 H 0.06125 0.25305 0.863 0.0
H269 H 0.03722 0.30684 0.8945 0.0
H270 H 0.16369 0.50751 0.92877 0.0
H271 H 0.07344 0.41804 0.89802 0.0
H272 H 0.46981 0.46146 0.86439 0.0
H273 H 0.38059 0.36706 0.84141 0.0
H274 H 0.51016 0.54048 0.92195 0.0
H275 H 0.48014 0.59693 0.94426 0.0
C276 C 0.68646 0.93616 0.87185 0.0
C277 C 0.64677 0.86026 0.88457 0.0
C278 C 0.78549 0.87222 0.87209 0.0
C279 C 0.82283 0.94632 0.85632 0.0
N280 N 0.80817 0.04746 0.83729 0.0
N281 N 0.65217 0.75209 0.89271 0.0
C282 C 0.77296 0.9779 0.85502 0.0
C283 C 0.69486 0.82737 0.88388 0.0
N284 N 0.64181 0.96851 0.87682 0.0
N285 N 0.83717 0.84498 0.87605 0.0
H286 H 0.58753 0.71857 0.90346 0.0
H287 H 0.67799 0.7212 0.88703 0.0
H288 H 0.90081 0.8732 0.86435 0.0
H289 H 0.81947 0.79626 0.89296 0.0
H290 H 0.66973 0.0258 0.87238 0.0
H291 H 0.57848 0.93916 0.88901 0.0
H292 H 0.77199 0.07071 0.83077 0.0
H293 H 0.87249 0.08053 0.82616 0.0
C294 C 0.25295 0.96503 0.82009 0.0
C295 C 0.15737 0.93071 0.80929 0.0
C296 C 0.12172 0.81503 0.84618 0.0
C297 C 0.2174 0.84937 0.85731 0.0
N298 N 0.37366 0.9506 0.84709 0.0
N299 N 1.0006 0.81893 0.80218 0.0
C300 C 0.28298 0.92251 0.84184 0.0
C301 C 0.09181 0.85382 0.81885 0.0
N302 N 0.31489 0.04003 0.8117 0.0
N303 N 0.05983 0.74626 0.86305 0.0
H304 H 0.97844 0.84705 0.78198 0.0
H305 H 0.94837 0.76114 0.80453 0.0
H306 H 0.07985 0.71704 0.88359 0.0
H307 H 0.98972 0.72087 0.86001 0.0
H308 H 0.38537 0.07266 0.82438 0.0
H309 H 0.29429 0.07052 0.79327 0.0
H310 H 0.42304 0.99906 0.83175 0.0
H311 H 0.39904 0.92294 0.86467 0.0
C312 C 0.05611 0.44296 0.57334 0.0
C313 C 1.00588 0.47382 0.57237 0.0
C314 C 0.12146 0.58241 0.53162 0.0
C315 C 0.16335 0.54497 0.52591 0.0
N316 N 0.16508 0.43534 0.53764 0.0
N317 N 0.98651 0.57066 0.54855 0.0
C318 C 0.12959 0.47432 0.54623 0.0
C319 C 0.03797 0.5434 0.5513 0.0
N320 N 1.0322 0.38278 0.5999 0.0
N321 N 0.16318 0.65636 0.52019 0.0
H322 H 0.92819 0.54597 0.5651 0.0
H323 H 0.99911 0.61512 0.52817 0.0
H324 H 0.22408 0.68708 0.50569 0.0
H325 H 0.14147 0.68949 0.52866 0.0
H326 H 0.07064 0.36144 0.60593 0.0
H327 H 0.97839 0.35935 0.61984 0.0
H328 H 0.13801 0.38026 0.54756 0.0
H329 H 0.21655 0.45512 0.51651 0.0
C330 C 0.63419 0.53069 0.48901 0.0
C331 C 0.56951 0.45248 0.49734 0.0
C332 C 0.4419 0.46108 0.47182 0.0
C333 C 0.50682 0.54034 0.46634 0.0
N334 N 0.66003 0.64563 0.45714 0.0
N335 N 0.41249 0.33786 0.4856 0.0
C336 C 0.60163 0.57315 0.47048 0.0
C337 C 0.47341 0.41584 0.48489 0.0
N338 N 0.72656 0.56494 0.50048 0.0
N339 N 0.35058 0.43065 0.46748 0.0
H340 H 0.4332 0.30349 0.49625 0.0
H341 H 0.34229 0.30634 0.47251 0.0
H342 H 0.32552 0.46153 0.45557 0.0
H343 H 0.30041 0.37645 0.47714 0.0
H344 H 0.77754 0.62356 0.49996 0.0
H345 H 0.75279 0.53521 0.51303 0.0
H346 H 0.72942 0.67232 0.45578 0.0
H347 H 0.63606 0.6765 0.44325 0.0
C348 C 0.66883 0.02051 0.56081 0.0
C349 C 0.5733 0.95944 0.54892 0.0
C350 C 0.53601 0.04606 0.57317 0.0
C351 C 0.63146 0.10688 0.58461 0.0
N352 N 0.78738 0.14818 0.60162 0.0
N353 N 0.41621 0.90856 0.55472 0.0
C354 C 0.69725 0.0923 0.58279 0.0
C355 C 0.50679 0.97044 0.55858 0.0
N356 N 0.73233 1.01105 0.54902 0.0
N357 N 0.47371 0.06169 0.57428 0.0
H358 H 0.39234 0.85258 0.54399 0.0
H359 H 0.36588 0.9116 0.56567 0.0
H360 H 0.4935 0.11559 0.58734 0.0
H361 H 0.40377 0.02272 0.56067 0.0
H362 H 0.80215 0.05595 0.55177 0.0
H363 H 0.71438 0.95948 0.53276 0.0
H364 H 0.83801 0.13932 0.60567 0.0
H365 H 0.80919 0.20121 0.6177 0.0
C366 C 0.99194 0.12533 0.54682 0.0
C367 C 1.00253 0.07508 0.57391 0.0
C368 C 1.02484 0.02986 0.50058 0.0
C369 C 1.00133 0.07212 0.4725 0.0
N370 N 0.94148 0.14653 0.4691 0.0
N371 N 1.0085 0.96642 0.57323 0.0
C372 C 0.97874 0.11592 0.49575 0.0
C373 C 1.01316 0.02354 0.54987 0.0
N374 N 0.99755 0.18401 0.56982 0.0
N375 N 0.06286 0.99899 0.48125 0.0
H376 H 0.99692 0.958 0.60862 0.0
H377 H 1.00683 0.92286 0.55591 0.0
H378 H 0.07698 1.00544 0.44627 0.0
H379 H 0.08932 0.97417 0.50158 0.0
H380 H 0.99851 0.22648 0.55189 0.0
H381 H 1.01089 0.19482 0.60711 0.0
H382 H 0.91571 0.1727 0.48424 0.0
H383 H 0.92673 0.13808 0.43172 0.0
C384 C 0.63812 0.42159 0.87334 0.0
C385 C 0.63126 0.36378 0.90074 0.0
C386 C 0.6725 0.322 0.83401 0.0
C387 C 0.67145 0.37536 0.80514 0.0
N388 N 0.6299 0.46216 0.79413 0.0
N389 N 0.61717 0.24556 0.90109 0.0
C390 C 0.64707 0.42091 0.8239 0.0
C391 C 0.64107 0.30994 0.87926 0.0
N392 N 0.64064 0.47962 0.89493 0.0
N393 N 0.70792 0.28558 0.81969 0.0
H394 H 0.59071 0.23314 0.9332 0.0
H395 H 0.61434 0.20074 0.88476 0.0
H396 H 0.73463 0.29458 0.78783 0.0
H397 H 0.719 0.25232 0.84168 0.0
H398 H 0.65512 0.5275 0.87789 0.0
H399 H 0.63752 0.48409 0.93127 0.0
H400 H 0.60299 0.49027 0.80464 0.0
H401 H 0.63293 0.46126 0.75751 0.0
C402 C 0.39856 0.68904 0.22196 0.0
C403 C 0.3938 0.73884 0.25225 0.0
C404 C 0.40621 0.81363 0.18401 0.0
C405 C 0.41882 0.76783 0.15487 0.0
N406 N 0.44933 0.67363 0.15047 0.0
N407 N 0.41386 0.85867 0.26456 0.0
C408 C 0.42135 0.7088 0.17508 0.0
C409 C 0.40377 0.80415 0.23392 0.0
N410 N 0.37742 0.62104 0.23696 0.0
N411 N 0.39285 0.86426 0.16371 0.0
H412 H 0.41477 0.85476 0.30141 0.0
H413 H 0.43084 0.91134 0.25431 0.0
H414 H 0.39182 0.87166 0.12722 0.0
H415 H 0.37389 0.89339 0.18205 0.0
H416 H 0.36993 0.57873 0.21448 0.0
H417 H 0.35911 0.60376 0.27055 0.0
H418 H 0.46186 0.63613 0.16549 0.0
H419 H 0.469 0.68775 0.11678 0.0
C420 C 0.19714 0.06952 0.07165 0.0
C421 C 0.12802 0.98821 0.06849 0.0
C422 C 0.18845 0.97025 1.00167 0.0
C423 C 0.24731 0.05112 1.0015 0.0
N424 N 0.34046 0.17359 0.04661 0.0
N425 N 0.07639 0.86046 0.04075 0.0
C426 C 0.26441 0.09876 0.04134 0.0
C427 C 0.13066 0.93807 0.03729 0.0
N428 N 0.19564 0.11899 0.10097 0.0
N429 N 0.18169 0.92525 0.96484 0.0
H430 H 1.0296 0.83465 0.0648 0.0
H431 H 0.08151 0.82213 1.02178 0.0
H432 H 0.22655 0.94892 0.93974 0.0
H433 H 0.13163 0.86591 0.95862 0.0
H434 H 0.24106 0.17868 0.10184 0.0
H435 H 0.14383 0.10125 0.12118 0.0
H436 H 0.36097 0.2119 0.07643 0.0
H437 H 0.38696 0.19395 1.02231 0.0
C438 C 0.81703 0.253 0.31782 0.0
C439 C 0.88038 0.33271 0.31338 0.0
C440 C 0.91623 0.36235 0.39965 0.0
C441 C 0.83952 0.28559 0.40317 0.0
N442 N 0.73983 0.15282 0.37136 0.0
N443 N 1.01033 0.45872 0.34695 0.0
C444 C 0.7982 0.22877 0.36403 0.0
C445 C 0.93817 0.38578 0.35363 0.0
N446 N 0.76982 0.20252 0.27739 0.0
N447 N 0.96409 0.41271 0.44002 0.0
H448 H 1.0256 0.47488 0.31269 0.0
H449 H 0.05759 0.50129 0.37451 0.0
H450 H 0.95225 0.39458 0.47411 0.0
H451 H 1.01575 0.47127 0.44012 0.0
H452 H 0.71483 0.14478 0.27712 0.0
H453 H 0.78664 0.21954 0.24349 0.0
H454 H 0.71059 0.10757 0.34475 0.0
H455 H 0.72637 0.13521 0.40556 0.0
C456 C 0.30232 0.60972 0.65666 0.0
C457 C 0.35326 0.5783 0.66119 0.0
C458 C 0.27588 0.50953 0.72803 0.0
C459 C 0.23252 0.54644 0.72508 0.0
N460 N 0.16881 0.59821 0.67613 0.0
N461 N 0.36995 0.48252 0.69295 0.0
C462 C 0.23201 0.58317 0.68465 0.0
C463 C 0.33287 0.52201 0.69376 0.0
N464 N 0.32351 0.66769 0.62845 0.0
N465 N 0.26864 0.4683 0.76595 0.0
H466 H 0.41791 0.49429 0.67105 0.0
H467 H 0.34959 0.43529 0.71222 0.0
H468 H 0.22283 0.45491 0.78965 0.0
H469 H 0.30852 0.44871 0.77435 0.0
H470 H 0.29299 0.69601 0.62814 0.0
H471 H 0.37689 0.69355 0.60858 0.0
H472 H 0.16019 0.62095 0.64526 0.0
H473 H 0.11924 0.5802 0.69838 0.0
loop_
_geom_bond_atom_site_label_1
_geom_bond_atom_site_label_2
_geom_bond_distance
_geom_bond_site_symmetry_2
_ccdc_geom_bond_type
Co0 O3 1.970 1_455 S
Co0 N17 1.989 1_465 S
Co0 O25 1.967 1_565 S
Co0 O32 1.920 1_565 S
Co1 O4 1.966 1_445 S
Co1 N10 2.022 . S
Co1 N18 1.993 1_455 S
Co1 O26 1.941 . S
C2 O3 1.258 . S
C2 O4 1.263 . S
O3 Co0 1.970 1_655 S
O3 C2 1.258 . S
O4 Co1 1.966 1_665 S
O4 C2 1.263 . S
C5 O6 1.235 . S
C5 O32 1.289 1_665 S
O6 C5 1.235 . S
C7 C9 1.400 1_565 S
C7 N10 1.351 1_665 S
C7 C12 1.501 . S
C8 C9 1.387 1_455 S
C8 N11 1.341 . S
C9 C7 1.400 1_545 S
C9 C8 1.387 1_655 S
N10 Co1 2.022 . S
N10 C7 1.351 1_445 S
N10 N11 1.365 . S
N11 C8 1.341 . S
N11 N10 1.365 . S
N11 H31 0.862 . S
C12 C7 1.501 . S
C12 H13 0.961 . S
C12 H14 0.961 . S
C12 H15 0.960 . S
H13 C12 0.961 . S
H14 C12 0.961 . S
H15 C12 0.960 . S
C16 N17 1.342 . S
C16 C20 1.401 . S
C16 C21 1.499 . S
N17 Co0 1.989 1_645 S
N17 C16 1.342 . S
N17 N18 1.388 . S
N18 Co1 1.993 1_655 S
N18 N17 1.388 . S
N18 C19 1.346 . S
C19 N18 1.346 . S
C19 C20 1.396 . S
C19 C29 1.510 . S
C20 C16 1.401 . S
C20 C19 1.396 . S
C21 C16 1.499 . S
C21 H22 0.959 . S
C21 H23 0.960 . S
C21 H24 0.961 . S
H22 C21 0.959 . S
H23 C21 0.960 . S
H24 C21 0.961 . S
O25 Co0 1.967 1_545 S
O25 C33 1.258 . S
O26 Co1 1.941 . S
O26 C33 1.266 . S
H27 C29 0.959 . S
H28 C29 0.961 . S
C29 C19 1.510 . S
C29 H27 0.959 . S
C29 H28 0.961 . S
C29 H30 0.960 . S
H30 C29 0.960 . S
H31 N11 0.862 . S
O32 Co0 1.920 1_545 S
O32 C5 1.289 1_445 S
C33 O25 1.258 . S
C33 O26 1.266 . S
Co34 O37 1.970 1_545 S
Co34 N51 1.989 . S
Co34 O59 1.967 1_445 S
Co34 O66 1.920 . S
Co35 O38 1.966 1_655 S
Co35 N44 2.022 . S
Co35 N52 1.993 1_665 S
Co35 O60 1.941 . S
C36 O37 1.258 . S
C36 O38 1.263 . S
O37 Co34 1.970 1_565 S
O37 C36 1.258 . S
O38 Co35 1.966 1_455 S
O38 C36 1.263 . S
C39 O40 1.235 . S
C39 O66 1.289 . S
O40 C39 1.235 . S
C41 C43 1.400 1_565 S
C41 N44 1.351 1_455 S
C41 C46 1.501 . S
C42 C43 1.387 1_655 S
C42 N45 1.341 . S
C43 C41 1.400 1_545 S
C43 C42 1.387 1_455 S
N44 Co35 2.022 . S
N44 C41 1.351 1_655 S
N44 N45 1.365 1_565 S
N45 C42 1.341 . S
N45 N44 1.365 1_545 S
N45 H65 0.862 . S
C46 C41 1.501 . S
C46 H47 0.961 . S
C46 H48 0.961 1_565 S
C46 H49 0.960 . S
H47 C46 0.961 . S
H48 C46 0.961 1_545 S
H49 C46 0.960 . S
C50 N51 1.342 . S
C50 C54 1.401 . S
C50 C55 1.499 . S
N51 Co34 1.989 . S
N51 C50 1.342 . S
N51 N52 1.388 . S
N52 Co35 1.993 1_445 S
N52 N51 1.388 . S
N52 C53 1.346 . S
C53 N52 1.346 . S
C53 C54 1.396 . S
C53 C63 1.510 . S
C54 C50 1.401 . S
C54 C53 1.396 . S
C55 C50 1.499 . S
C55 H56 0.959 . S
C55 H57 0.960 . S
C55 H58 0.961 . S
H56 C55 0.959 . S
H57 C55 0.960 . S
H58 C55 0.961 . S
O59 Co34 1.967 1_665 S
O59 C67 1.258 . S
O60 Co35 1.941 . S
O60 C67 1.266 . S
H61 C63 0.959 . S
H62 C63 0.961 . S
C63 C53 1.510 . S
C63 H61 0.959 . S
C63 H62 0.961 . S
C63 H64 0.960 . S
H64 C63 0.960 . S
H65 N45 0.862 . S
O66 Co34 1.920 . S
O66 C39 1.289 . S
C67 O59 1.258 . S
C67 O60 1.266 . S
Co68 O71 1.970 . S
Co68 N85 1.989 . S
Co68 O93 1.967 . S
Co68 O100 1.920 . S
Co69 O72 1.966 . S
Co69 N78 2.022 . S
Co69 N86 1.993 . S
Co69 O94 1.941 . S
C70 O71 1.258 . S
C70 O72 1.263 . S
O71 Co68 1.970 . S
O71 C70 1.258 . S
O72 Co69 1.966 . S
O72 C70 1.263 . S
C73 O74 1.235 . S
C73 O100 1.289 . S
O74 C73 1.235 . S
C75 C77 1.400 . S
C75 N78 1.351 . S
C75 C80 1.501 . S
C76 C77 1.387 . S
C76 N79 1.341 . S
C77 C75 1.400 . S
C77 C76 1.387 . S
N78 Co69 2.022 . S
N78 C75 1.351 . S
N78 N79 1.365 . S
N79 C76 1.341 . S
N79 N78 1.365 . S
N79 H99 0.862 . S
C80 C75 1.501 . S
C80 H81 0.961 . S
C80 H82 0.961 . S
C80 H83 0.960 . S
H81 C80 0.961 . S
H82 C80 0.961 . S
H83 C80 0.960 . S
C84 N85 1.342 . S
C84 C88 1.401 . S
C84 C89 1.499 . S
N85 Co68 1.989 . S
N85 C84 1.342 . S
N85 N86 1.388 . S
N86 Co69 1.993 . S
N86 N85 1.388 . S
N86 C87 1.346 . S
C87 N86 1.346 . S
C87 C88 1.396 . S
C87 C97 1.510 . S
C88 C84 1.401 . S
C88 C87 1.396 . S
C89 C84 1.499 . S
C89 H90 0.959 . S
C89 H91 0.960 . S
C89 H92 0.961 . S
H90 C89 0.959 . S
H91 C89 0.960 . S
H92 C89 0.961 . S
O93 Co68 1.967 . S
O93 C101 1.258 . S
O94 Co69 1.941 . S
O94 C101 1.266 . S
H95 C97 0.959 . S
H96 C97 0.961 . S
C97 C87 1.510 . S
C97 H95 0.959 . S
C97 H96 0.961 . S
C97 H98 0.960 . S
H98 C97 0.960 . S
H99 N79 0.862 . S
O100 Co68 1.920 . S
O100 C73 1.289 . S
C101 O93 1.258 . S
C101 O94 1.266 . S
Co102 O105 1.970 . S
Co102 N119 1.989 . S
Co102 O127 1.967 . S
Co102 O134 1.920 . S
Co103 O106 1.966 . S
Co103 N112 2.022 . S
Co103 N120 1.993 . S
Co103 O128 1.941 . S
C104 O105 1.258 . S
C104 O106 1.263 . S
O105 Co102 1.970 . S
O105 C104 1.258 . S
O106 Co103 1.966 . S
O106 C104 1.263 . S
C107 O108 1.235 . S
C107 O134 1.289 . S
O108 C107 1.235 . S
C109 C111 1.400 . S
C109 N112 1.351 1_556 S
C109 C114 1.501 . S
C110 C111 1.387 . S
C110 N113 1.341 . S
C111 C109 1.400 . S
C111 C110 1.387 . S
N112 Co103 2.022 . S
N112 C109 1.351 1_554 S
N112 N113 1.365 1_554 S
N113 C110 1.341 . S
N113 N112 1.365 1_556 S
N113 H133 0.862 . S
C114 C109 1.501 . S
C114 H115 0.961 1_556 S
C114 H116 0.961 . S
C114 H117 0.960 . S
H115 C114 0.961 1_554 S
H116 C114 0.961 . S
H117 C114 0.960 . S
C118 N119 1.342 . S
C118 C122 1.401 . S
C118 C123 1.499 . S
N119 Co102 1.989 . S
N119 C118 1.342 . S
N119 N120 1.388 . S
N120 Co103 1.993 . S
N120 N119 1.388 . S
N120 C121 1.346 . S
C121 N120 1.346 . S
C121 C122 1.396 . S
C121 C131 1.510 . S
C122 C118 1.401 . S
C122 C121 1.396 . S
C123 C118 1.499 . S
C123 H124 0.959 . S
C123 H125 0.960 . S
C123 H126 0.961 . S
H124 C123 0.959 . S
H125 C123 0.960 . S
H126 C123 0.961 . S
O127 Co102 1.967 . S
O127 C135 1.258 . S
O128 Co103 1.941 . S
O128 C135 1.266 . S
H129 C131 0.959 . S
H130 C131 0.961 . S
C131 C121 1.510 . S
C131 H129 0.959 . S
C131 H130 0.961 . S
C131 H132 0.960 . S
H132 C131 0.960 . S
H133 N113 0.862 . S
O134 Co102 1.920 . S
O134 C107 1.289 . S
C135 O127 1.258 . S
C135 O128 1.266 . S
Co136 O139 1.970 . S
Co136 N153 1.989 . S
Co136 O161 1.967 . S
Co136 O168 1.920 . S
Co137 O140 1.966 . S
Co137 N146 2.022 . S
Co137 N154 1.993 . S
Co137 O162 1.941 . S
C138 O139 1.258 . S
C138 O140 1.263 . S
O139 Co136 1.970 . S
O139 C138 1.258 . S
O140 Co137 1.966 . S
O140 C138 1.263 . S
C141 O142 1.235 . S
C141 O168 1.289 . S
O142 C141 1.235 . S
C143 C145 1.400 . S
C143 N146 1.351 1_554 S
C143 C148 1.501 . S
C144 C145 1.387 . S
C144 N147 1.341 . S
C145 C143 1.400 . S
C145 C144 1.387 . S
N146 Co137 2.022 . S
N146 C143 1.351 1_556 S
N146 N147 1.365 1_556 S
N147 C144 1.341 . S
N147 N146 1.365 1_554 S
N147 H167 0.862 . S
C148 C143 1.501 . S
C148 H149 0.961 1_554 S
C148 H150 0.961 . S
C148 H151 0.960 . S
H149 C148 0.961 1_556 S
H150 C148 0.961 . S
H151 C148 0.960 . S
C152 N153 1.342 . S
C152 C156 1.401 . S
C152 C157 1.499 . S
N153 Co136 1.989 . S
N153 C152 1.342 . S
N153 N154 1.388 . S
N154 Co137 1.993 . S
N154 N153 1.388 . S
N154 C155 1.346 . S
C155 N154 1.346 . S
C155 C156 1.396 . S
C155 C165 1.510 . S
C156 C152 1.401 . S
C156 C155 1.396 . S
C157 C152 1.499 . S
C157 H158 0.959 . S
C157 H159 0.960 . S
C157 H160 0.961 . S
H158 C157 0.959 . S
H159 C157 0.960 . S
H160 C157 0.961 . S
O161 Co136 1.967 . S
O161 C169 1.258 . S
O162 Co137 1.941 . S
O162 C169 1.266 . S
H163 C165 0.959 . S
H164 C165 0.961 . S
C165 C155 1.510 . S
C165 H163 0.959 . S
C165 H164 0.961 . S
C165 H166 0.960 . S
H166 C165 0.960 . S
H167 N147 0.862 . S
O168 Co136 1.920 . S
O168 C141 1.289 . S
C169 O161 1.258 . S
C169 O162 1.266 . S
Co170 O173 1.970 . S
Co170 N187 1.989 . S
Co170 O195 1.967 . S
Co170 O202 1.920 . S
Co171 O174 1.966 . S
Co171 N180 2.022 . S
Co171 N188 1.993 . S
Co171 O196 1.941 . S
C172 O173 1.258 . S
C172 O174 1.263 . S
O173 Co170 1.970 . S
O173 C172 1.258 . S
O174 Co171 1.966 . S
O174 C172 1.263 . S
C175 O176 1.235 . S
C175 O202 1.289 . S
O176 C175 1.235 . S
C177 C179 1.400 . S
C177 N180 1.351 . S
C177 C182 1.501 . S
C178 C179 1.387 . S
C178 N181 1.341 . S
C179 C177 1.400 . S
C179 C178 1.387 . S
N180 Co171 2.022 . S
N180 C177 1.351 . S
N180 N181 1.365 . S
N181 C178 1.341 . S
N181 N180 1.365 . S
N181 H201 0.862 . S
C182 C177 1.501 . S
C182 H183 0.961 . S
C182 H184 0.961 . S
C182 H185 0.960 . S
H183 C182 0.961 . S
H184 C182 0.961 . S
H185 C182 0.960 . S
C186 N187 1.342 . S
C186 C190 1.401 . S
C186 C191 1.499 . S
N187 Co170 1.989 . S
N187 C186 1.342 . S
N187 N188 1.388 . S
N188 Co171 1.993 . S
N188 N187 1.388 . S
N188 C189 1.346 . S
C189 N188 1.346 . S
C189 C190 1.396 . S
C189 C199 1.510 . S
C190 C186 1.401 . S
C190 C189 1.396 . S
C191 C186 1.499 . S
C191 H192 0.959 . S
C191 H193 0.960 . S
C191 H194 0.961 . S
H192 C191 0.959 . S
H193 C191 0.960 . S
H194 C191 0.961 . S
O195 Co170 1.967 . S
O195 C203 1.258 . S
O196 Co171 1.941 . S
O196 C203 1.266 . S
H197 C199 0.959 . S
H198 C199 0.961 . S
C199 C189 1.510 . S
C199 H197 0.959 . S
C199 H198 0.961 . S
C199 H200 0.960 . S
H200 C199 0.960 . S
H201 N181 0.862 . S
O202 Co170 1.920 . S
O202 C175 1.289 . S
C203 O195 1.258 . S
C203 O196 1.266 . S
C204 C205 1.363 . S
C204 C210 1.379 . S
C204 N212 1.356 . S
C205 C204 1.363 . S
C205 C211 1.363 . S
C206 C207 1.363 . S
C206 C211 1.379 . S
C206 N213 1.356 . S
C207 C206 1.363 . S
C207 C210 1.363 . S
N208 C210 1.356 . S
N208 H220 0.984 . S
N208 H221 0.985 . S
N209 C211 1.356 . S
N209 H214 0.984 . S
N209 H215 0.985 . S
C210 C204 1.379 . S
C210 C207 1.363 . S
C210 N208 1.356 . S
C211 C205 1.363 . S
C211 C206 1.379 . S
C211 N209 1.356 . S
N212 C204 1.356 . S
N212 H218 0.984 1_545 S
N212 H219 0.984 1_545 S
N213 C206 1.356 . S
N213 H216 0.984 . S
N213 H217 0.985 . S
H214 N209 0.984 . S
H215 N209 0.985 . S
H216 N213 0.984 . S
H217 N213 0.985 . S
H218 N212 0.984 1_565 S
H219 N212 0.984 1_565 S
H220 N208 0.984 . S
H221 N208 0.985 . S
C222 C223 1.363 . S
C222 C228 1.379 . S
C222 N230 1.356 . S
C223 C222 1.363 . S
C223 C229 1.363 . S
C224 C225 1.363 . S
C224 C229 1.379 . S
C224 N231 1.356 . S
C225 C224 1.363 . S
C225 C228 1.363 . S
N226 C228 1.356 . S
N226 H238 0.984 . S
N226 H239 0.985 . S
N227 C229 1.356 . S
N227 H232 0.984 . S
N227 H233 0.985 . S
C228 C222 1.379 . S
C228 C225 1.363 . S
C228 N226 1.356 . S
C229 C223 1.363 . S
C229 C224 1.379 . S
C229 N227 1.356 . S
N230 C222 1.356 . S
N230 H236 0.984 . S
N230 H237 0.984 . S
N231 C224 1.356 . S
N231 H234 0.984 . S
N231 H235 0.985 . S
H232 N227 0.984 . S
H233 N227 0.985 . S
H234 N231 0.984 . S
H235 N231 0.985 . S
H236 N230 0.984 . S
H237 N230 0.984 . S
H238 N226 0.984 . S
H239 N226 0.985 . S
C240 C241 1.363 . S
C240 C246 1.379 . S
C240 N248 1.356 . S
C241 C240 1.363 . S
C241 C247 1.363 . S
C242 C243 1.363 . S
C242 C247 1.379 . S
C242 N249 1.356 . S
C243 C242 1.363 . S
C243 C246 1.363 . S
N244 C246 1.356 1_455 S
N244 H256 0.984 . S
N244 H257 0.985 . S
N245 C247 1.356 . S
N245 H250 0.984 . S
N245 H251 0.985 . S
C246 C240 1.379 . S
C246 C243 1.363 . S
C246 N244 1.356 1_655 S
C247 C241 1.363 . S
C247 C242 1.379 . S
C247 N245 1.356 . S
N248 C240 1.356 . S
N248 H254 0.984 . S
N248 H255 0.984 . S
N249 C242 1.356 . S
N249 H252 0.984 . S
N249 H253 0.985 . S
H250 N245 0.984 . S
H251 N245 0.985 . S
H252 N249 0.984 . S
H253 N249 0.985 . S
H254 N248 0.984 . S
H255 N248 0.984 . S
H256 N244 0.984 . S
H257 N244 0.985 . S
C258 C259 1.363 . S
C258 C264 1.379 . S
C258 N266 1.356 . S
C259 C258 1.363 . S
C259 C265 1.363 . S
C260 C261 1.363 . S
C260 C265 1.379 . S
C260 N267 1.356 . S
C261 C260 1.363 . S
C261 C264 1.363 . S
N262 C264 1.356 . S
N262 H274 0.984 . S
N262 H275 0.985 . S
N263 C265 1.356 . S
N263 H268 0.984 . S
N263 H269 0.985 . S
C264 C258 1.379 . S
C264 C261 1.363 . S
C264 N262 1.356 . S
C265 C259 1.363 . S
C265 C260 1.379 . S
C265 N263 1.356 . S
N266 C258 1.356 . S
N266 H272 0.984 . S
N266 H273 0.984 . S
N267 C260 1.356 . S
N267 H270 0.984 . S
N267 H271 0.985 . S
H268 N263 0.984 . S
H269 N263 0.985 . S
H270 N267 0.984 . S
H271 N267 0.985 . S
H272 N266 0.984 . S
H273 N266 0.984 . S
H274 N262 0.984 . S
H275 N262 0.985 . S
C276 C277 1.363 . S
C276 C282 1.379 . S
C276 N284 1.356 . S
C277 C276 1.363 . S
C277 C283 1.363 . S
C278 C279 1.363 . S
C278 C283 1.379 . S
C278 N285 1.356 . S
C279 C278 1.363 . S
C279 C282 1.363 . S
N280 C282 1.356 . S
N280 H292 0.984 . S
N280 H293 0.985 . S
N281 C283 1.356 . S
N281 H286 0.984 . S
N281 H287 0.985 . S
C282 C276 1.379 . S
C282 C279 1.363 . S
C282 N280 1.356 . S
C283 C277 1.363 . S
C283 C278 1.379 . S
C283 N281 1.356 . S
N284 C276 1.356 . S
N284 H290 0.984 . S
N284 H291 0.984 . S
N285 C278 1.356 . S
N285 H288 0.984 . S
N285 H289 0.985 . S
H286 N281 0.984 . S
H287 N281 0.985 . S
H288 N285 0.984 . S
H289 N285 0.985 . S
H290 N284 0.984 . S
H291 N284 0.984 . S
H292 N280 0.984 . S
H293 N280 0.985 . S
C294 C295 1.363 . S
C294 C300 1.379 . S
C294 N302 1.356 . S
C295 C294 1.363 . S
C295 C301 1.363 . S
C296 C297 1.363 . S
C296 C301 1.379 . S
C296 N303 1.356 . S
C297 C296 1.363 . S
C297 C300 1.363 . S
N298 C300 1.356 . S
N298 H310 0.984 . S
N298 H311 0.985 . S
N299 C301 1.356 1_655 S
N299 H304 0.984 . S
N299 H305 0.985 . S
C300 C294 1.379 . S
C300 C297 1.363 . S
C300 N298 1.356 . S
C301 C295 1.363 . S
C301 C296 1.379 . S
C301 N299 1.356 1_455 S
N302 C294 1.356 . S
N302 H308 0.984 1_565 S
N302 H309 0.984 . S
N303 C296 1.356 . S
N303 H306 0.984 . S
N303 H307 0.985 . S
H304 N299 0.984 . S
H305 N299 0.985 . S
H306 N303 0.984 . S
H307 N303 0.985 . S
H308 N302 0.984 1_545 S
H309 N302 0.984 . S
H310 N298 0.984 . S
H311 N298 0.985 . S
C312 C313 1.363 . S
C312 C318 1.379 1_655 S
C312 N320 1.356 . S
C313 C312 1.363 . S
C313 C319 1.363 1_655 S
C314 C315 1.363 . S
C314 C319 1.379 . S
C314 N321 1.356 . S
C315 C314 1.363 . S
C315 C318 1.363 . S
N316 C318 1.356 . S
N316 H328 0.984 1_455 S
N316 H329 0.985 . S
N317 C319 1.356 . S
N317 H322 0.984 1_455 S
N317 H323 0.985 . S
C318 C312 1.379 1_455 S
C318 C315 1.363 . S
C318 N316 1.356 . S
C319 C313 1.363 1_455 S
C319 C314 1.379 . S
C319 N317 1.356 . S
N320 C312 1.356 . S
N320 H326 0.984 . S
N320 H327 0.984 . S
N321 C314 1.356 . S
N321 H324 0.984 . S
N321 H325 0.985 . S
H322 N317 0.984 1_655 S
H323 N317 0.985 . S
H324 N321 0.984 . S
H325 N321 0.985 . S
H326 N320 0.984 . S
H327 N320 0.984 . S
H328 N316 0.984 1_655 S
H329 N316 0.985 . S
C330 C331 1.363 . S
C330 C336 1.379 . S
C330 N338 1.356 . S
C331 C330 1.363 . S
C331 C337 1.363 . S
C332 C333 1.363 . S
C332 C337 1.379 . S
C332 N339 1.356 . S
C333 C332 1.363 . S
C333 C336 1.363 . S
N334 C336 1.356 . S
N334 H346 0.984 . S
N334 H347 0.985 . S
N335 C337 1.356 . S
N335 H340 0.984 . S
N335 H341 0.985 . S
C336 C330 1.379 . S
C336 C333 1.363 . S
C336 N334 1.356 . S
C337 C331 1.363 . S
C337 C332 1.379 . S
C337 N335 1.356 . S
N338 C330 1.356 . S
N338 H344 0.984 . S
N338 H345 0.984 . S
N339 C332 1.356 . S
N339 H342 0.984 . S
N339 H343 0.985 . S
H340 N335 0.984 . S
H341 N335 0.985 . S
H342 N339 0.984 . S
H343 N339 0.985 . S
H344 N338 0.984 . S
H345 N338 0.984 . S
H346 N334 0.984 . S
H347 N334 0.985 . S
C348 C349 1.363 1_545 S
C348 C354 1.379 . S
C348 N356 1.356 1_545 S
C349 C348 1.363 1_565 S
C349 C355 1.363 . S
C350 C351 1.363 . S
C350 C355 1.379 1_545 S
C350 N357 1.356 . S
C351 C350 1.363 . S
C351 C354 1.363 . S
N352 C354 1.356 . S
N352 H364 0.984 . S
N352 H365 0.985 . S
N353 C355 1.356 . S
N353 H358 0.984 . S
N353 H359 0.985 . S
C354 C348 1.379 . S
C354 C351 1.363 . S
C354 N352 1.356 . S
C355 C349 1.363 . S
C355 C350 1.379 1_565 S
C355 N353 1.356 . S
N356 C348 1.356 1_565 S
N356 H362 0.984 1_565 S
N356 H363 0.984 . S
N357 C350 1.356 . S
N357 H360 0.984 . S
N357 H361 0.985 . S
H358 N353 0.984 . S
H359 N353 0.985 . S
H360 N357 0.984 . S
H361 N357 0.985 . S
H362 N356 0.984 1_545 S
H363 N356 0.984 . S
H364 N352 0.984 . S
H365 N352 0.985 . S
C366 C367 1.363 . S
C366 C372 1.379 1_455 S
C366 N374 1.356 . S
C367 C366 1.363 . S
C367 C373 1.363 1_545 S
C368 C369 1.363 1_455 S
C368 C373 1.379 . S
C368 N375 1.356 1_455 S
C369 C368 1.363 1_655 S
C369 C372 1.363 1_565 S
N370 C372 1.356 . S
N370 H382 0.984 . S
N370 H383 0.985 . S
N371 C373 1.356 . S
N371 H376 0.984 . S
N371 H377 0.985 . S
C372 C366 1.379 1_655 S
C372 C369 1.363 1_545 S
C372 N370 1.356 . S
C373 C367 1.363 1_565 S
C373 C368 1.379 . S
C373 N371 1.356 . S
N374 C366 1.356 . S
N374 H380 0.984 . S
N374 H381 0.984 . S
N375 C368 1.356 1_655 S
N375 H378 0.984 . S
N375 H379 0.985 1_655 S
H376 N371 0.984 . S
H377 N371 0.985 . S
H378 N375 0.984 . S
H379 N375 0.985 1_455 S
H380 N374 0.984 . S
H381 N374 0.984 . S
H382 N370 0.984 . S
H383 N370 0.985 . S
C384 C385 1.363 . S
C384 C390 1.379 . S
C384 N392 1.356 . S
C385 C384 1.363 . S
C385 C391 1.363 . S
C386 C387 1.363 . S
C386 C391 1.379 . S
C386 N393 1.356 . S
C387 C386 1.363 . S
C387 C390 1.363 . S
N388 C390 1.356 . S
N388 H400 0.984 . S
N388 H401 0.985 . S
N389 C391 1.356 . S
N389 H394 0.984 . S
N389 H395 0.985 . S
C390 C384 1.379 . S
C390 C387 1.363 . S
C390 N388 1.356 . S
C391 C385 1.363 . S
C391 C386 1.379 . S
C391 N389 1.356 . S
N392 C384 1.356 . S
N392 H398 0.984 . S
N392 H399 0.984 . S
N393 C386 1.356 . S
N393 H396 0.984 . S
N393 H397 0.985 . S
H394 N389 0.984 . S
H395 N389 0.985 . S
H396 N393 0.984 . S
H397 N393 0.985 . S
H398 N392 0.984 . S
H399 N392 0.984 . S
H400 N388 0.984 . S
H401 N388 0.985 . S
C402 C403 1.363 . S
C402 C408 1.379 . S
C402 N410 1.356 . S
C403 C402 1.363 . S
C403 C409 1.363 . S
C404 C405 1.363 . S
C404 C409 1.379 . S
C404 N411 1.356 . S
C405 C404 1.363 . S
C405 C408 1.363 . S
N406 C408 1.356 . S
N406 H418 0.984 . S
N406 H419 0.985 . S
N407 C409 1.356 . S
N407 H412 0.984 . S
N407 H413 0.985 . S
C408 C402 1.379 . S
C408 C405 1.363 . S
C408 N406 1.356 . S
C409 C403 1.363 . S
C409 C404 1.379 . S
C409 N407 1.356 . S
N410 C402 1.356 . S
N410 H416 0.984 . S
N410 H417 0.984 . S
N411 C404 1.356 . S
N411 H414 0.984 . S
N411 H415 0.985 . S
H412 N407 0.984 . S
H413 N407 0.985 . S
H414 N411 0.984 . S
H415 N411 0.985 . S
H416 N410 0.984 . S
H417 N410 0.984 . S
H418 N406 0.984 . S
H419 N406 0.985 . S
C420 C421 1.363 1_545 S
C420 C426 1.379 1_654 S
C420 N428 1.356 . S
C421 C420 1.363 1_565 S
C421 C427 1.363 . S
C422 C423 1.363 1_565 S
C422 C427 1.379 1_456 S
C422 N429 1.356 . S
C423 C422 1.363 1_545 S
C423 C426 1.363 . S
N424 C426 1.356 . S
N424 H436 0.984 . S
N424 H437 0.985 . S
N425 C427 1.356 . S
N425 H430 0.984 . S
N425 H431 0.985 . S
C426 C420 1.379 1_456 S
C426 C423 1.363 . S
C426 N424 1.356 . S
C427 C421 1.363 . S
C427 C422 1.379 1_654 S
C427 N425 1.356 . S
N428 C420 1.356 . S
N428 H434 0.984 . S
N428 H435 0.984 . S
N429 C422 1.356 . S
N429 H432 0.984 . S
N429 H433 0.985 . S
H430 N425 0.984 . S
H431 N425 0.985 . S
H432 N429 0.984 . S
H433 N429 0.985 . S
H434 N428 0.984 . S
H435 N428 0.984 . S
H436 N424 0.984 . S
H437 N424 0.985 . S
C438 C439 1.363 . S
C438 C444 1.379 . S
C438 N446 1.356 . S
C439 C438 1.363 . S
C439 C445 1.363 . S
C440 C441 1.363 . S
C440 C445 1.379 . S
C440 N447 1.356 . S
C441 C440 1.363 . S
C441 C444 1.363 . S
N442 C444 1.356 . S
N442 H454 0.984 . S
N442 H455 0.985 . S
N443 C445 1.356 . S
N443 H448 0.984 . S
N443 H449 0.985 . S
C444 C438 1.379 . S
C444 C441 1.363 . S
C444 N442 1.356 . S
C445 C439 1.363 . S
C445 C440 1.379 . S
C445 N443 1.356 . S
N446 C438 1.356 . S
N446 H452 0.984 . S
N446 H453 0.984 . S
N447 C440 1.356 . S
N447 H450 0.984 . S
N447 H451 0.985 . S
H448 N443 0.984 . S
H449 N443 0.985 . S
H450 N447 0.984 . S
H451 N447 0.985 . S
H452 N446 0.984 . S
H453 N446 0.984 . S
H454 N442 0.984 . S
H455 N442 0.985 . S
C456 C457 1.363 . S
C456 C462 1.379 . S
C456 N464 1.356 . S
C457 C456 1.363 . S
C457 C463 1.363 . S
C458 C459 1.363 . S
C458 C463 1.379 . S
C458 N465 1.356 . S
C459 C458 1.363 . S
C459 C462 1.363 . S
N460 C462 1.356 . S
N460 H472 0.984 . S
N460 H473 0.985 . S
N461 C463 1.356 . S
N461 H466 0.984 . S
N461 H467 0.985 . S
C462 C456 1.379 . S
C462 C459 1.363 . S
C462 N460 1.356 . S
C463 C457 1.363 . S
C463 C458 1.379 . S
C463 N461 1.356 . S
N464 C456 1.356 . S
N464 H470 0.984 . S
N464 H471 0.984 . S
N465 C458 1.356 . S
N465 H468 0.984 . S
N465 H469 0.985 . S
H466 N461 0.984 . S
H467 N461 0.985 . S
H468 N465 0.984 . S
H469 N465 0.985 . S
H470 N464 0.984 . S
H471 N464 0.984 . S
H472 N460 0.984 . S
H473 N460 0.985 . S
C205 C33 1.411 . S
C207 C135 1.411 . S
C223 C20 1.780 . S
C225 C104 1.778 . S
C241 C122 1.780 . S
C243 C2 1.778 . S
C259 C54 1.780 . S
C261 C138 1.778 . S
C277 C169 1.411 . S
C279 C67 1.411 . S
C295 C36 1.778 . S
C297 C156 1.780 . S
C313 C101 1.411 . S
C315 C203 1.411 . S
C331 C88 1.780 . S
C333 C172 1.778 . S
C349 C190 1.781 . S
C351 C70 1.778 . S
C367 C43 1.805 . S
C369 C9 1.805 1_565 S
C385 C111 1.805 . S
C387 C77 1.805 . S
C403 C179 1.805 . S
C405 C145 1.805 . S
C421 C5 0.897 . S
C423 C39 0.897 . S
C439 C107 0.897 . S
C441 C73 0.897 . S
C457 C175 0.897 . S
C459 C141 0.897 . S
