# Generated by pormake.
# Topology wjr, (5)-cn, num edge types: 1
# Building blocks:
#     Node 0, Type 0, BuildingBlock: BEQFEK_clean_sbu_0, # of connection points: 5
#     Node 1, Type 0, BuildingBlock: BEQFEK_clean_sbu_0, # of connection points: 5
#     Node 2, Type 0, BuildingBlock: BEQFEK_clean_sbu_0, # of connection points: 5
#     Node 3, Type 0, BuildingBlock: BEQFEK_clean_sbu_0, # of connection points: 5
#     Node 4, Type 0, BuildingBlock: BEQFEK_clean_sbu_0, # of connection points: 5
#     Node 5, Type 0, BuildingBlock: BEQFEK_clean_sbu_0, # of connection points: 5
#     Node 6, Type 0, BuildingBlock: BEQFEK_clean_sbu_0, # of connection points: 5
#     Node 7, Type 0, BuildingBlock: BEQFEK_clean_sbu_0, # of connection points: 5
#     Node 8, Type 0, BuildingBlock: BEQFEK_clean_sbu_0, # of connection points: 5
#     Node 9, Type 0, BuildingBlock: BEQFEK_clean_sbu_0, # of connection points: 5
#     Node 10, Type 0, BuildingBlock: BEQFEK_clean_sbu_0, # of connection points: 5
#     Node 11, Type 0, BuildingBlock: BEQFEK_clean_sbu_0, # of connection points: 5
#     Node 12, Type 0, BuildingBlock: BEQFEK_clean_sbu_0, # of connection points: 5
#     Node 13, Type 0, BuildingBlock: BEQFEK_clean_sbu_0, # of connection points: 5
#     Node 14, Type 0, BuildingBlock: BEQFEK_clean_sbu_0, # of connection points: 5
#     Node 15, Type 0, BuildingBlock: BEQFEK_clean_sbu_0, # of connection points: 5
#     Node 16, Type 0, BuildingBlock: BEQFEK_clean_sbu_0, # of connection points: 5
#     Node 17, Type 0, BuildingBlock: BEQFEK_clean_sbu_0, # of connection points: 5
#     Node 18, Type 0, BuildingBlock: BEQFEK_clean_sbu_0, # of connection points: 5
#     Node 19, Type 0, BuildingBlock: BEQFEK_clean_sbu_0, # of connection points: 5
#     Node 20, Type 0, BuildingBlock: BEQFEK_clean_sbu_0, # of connection points: 5
#     Node 21, Type 0, BuildingBlock: BEQFEK_clean_sbu_0, # of connection points: 5
#     Node 22, Type 0, BuildingBlock: BEQFEK_clean_sbu_0, # of connection points: 5
#     Node 23, Type 0, BuildingBlock: BEQFEK_clean_sbu_0, # of connection points: 5
#     Edge 24, Type (0, 0), BuildingBlock: ZUJKAS_clean_linker_0, # of connection points: 2
#     Edge 25, Type (0, 0), BuildingBlock: ZUJKAS_clean_linker_0, # of connection points: 2
#     Edge 26, Type (0, 0), BuildingBlock: ZUJKAS_clean_linker_0, # of connection points: 2
#     Edge 27, Type (0, 0), BuildingBlock: ZUJKAS_clean_linker_0, # of connection points: 2
#     Edge 28, Type (0, 0), BuildingBlock: ZUJKAS_clean_linker_0, # of connection points: 2
#     Edge 29, Type (0, 0), BuildingBlock: ZUJKAS_clean_linker_0, # of connection points: 2
#     Edge 30, Type (0, 0), BuildingBlock: ZUJKAS_clean_linker_0, # of connection points: 2
#     Edge 31, Type (0, 0), BuildingBlock: ZUJKAS_clean_linker_0, # of connection points: 2
#     Edge 32, Type (0, 0), BuildingBlock: ZUJKAS_clean_linker_0, # of connection points: 2
#     Edge 33, Type (0, 0), BuildingBlock: ZUJKAS_clean_linker_0, # of connection points: 2
#     Edge 34, Type (0, 0), BuildingBlock: ZUJKAS_clean_linker_0, # of connection points: 2
#     Edge 35, Type (0, 0), BuildingBlock: ZUJKAS_clean_linker_0, # of connection points: 2
#     Edge 36, Type (0, 0), BuildingBlock: ZUJKAS_clean_linker_0, # of connection points: 2
#     Edge 37, Type (0, 0), BuildingBlock: ZUJKAS_clean_linker_0, # of connection points: 2
#     Edge 38, Type (0, 0), BuildingBlock: ZUJKAS_clean_linker_0, # of connection points: 2
#     Edge 39, Type (0, 0), BuildingBlock: ZUJKAS_clean_linker_0, # of connection points: 2
#     Edge 40, Type (0, 0), BuildingBlock: ZUJKAS_clean_linker_0, # of connection points: 2
#     Edge 41, Type (0, 0), BuildingBlock: ZUJKAS_clean_linker_0, # of connection points: 2
#     Edge 42, Type (0, 0), BuildingBlock: ZUJKAS_clean_linker_0, # of connection points: 2
#     Edge 43, Type (0, 0), BuildingBlock: ZUJKAS_clean_linker_0, # of connection points: 2
#     Edge 44, Type (0, 0), BuildingBlock: ZUJKAS_clean_linker_0, # of connection points: 2
#     Edge 45, Type (0, 0), BuildingBlock: ZUJKAS_clean_linker_0, # of connection points: 2
#     Edge 46, Type (0, 0), BuildingBlock: ZUJKAS_clean_linker_0, # of connection points: 2
#     Edge 47, Type (0, 0), BuildingBlock: ZUJKAS_clean_linker_0, # of connection points: 2
#     Edge 48, Type (0, 0), BuildingBlock: ZUJKAS_clean_linker_0, # of connection points: 2
#     Edge 49, Type (0, 0), BuildingBlock: ZUJKAS_clean_linker_0, # of connection points: 2
#     Edge 50, Type (0, 0), BuildingBlock: ZUJKAS_clean_linker_0, # of connection points: 2
#     Edge 51, Type (0, 0), BuildingBlock: ZUJKAS_clean_linker_0, # of connection points: 2
#     Edge 52, Type (0, 0), BuildingBlock: ZUJKAS_clean_linker_0, # of connection points: 2
#     Edge 53, Type (0, 0), BuildingBlock: ZUJKAS_clean_linker_0, # of connection points: 2
#     Edge 54, Type (0, 0), BuildingBlock: ZUJKAS_clean_linker_0, # of connection points: 2
#     Edge 55, Type (0, 0), BuildingBlock: ZUJKAS_clean_linker_0, # of connection points: 2
#     Edge 56, Type (0, 0), BuildingBlock: ZUJKAS_clean_linker_0, # of connection points: 2
#     Edge 57, Type (0, 0), BuildingBlock: ZUJKAS_clean_linker_0, # of connection points: 2
#     Edge 58, Type (0, 0), BuildingBlock: ZUJKAS_clean_linker_0, # of connection points: 2
#     Edge 59, Type (0, 0), BuildingBlock: ZUJKAS_clean_linker_0, # of connection points: 2
#     Edge 60, Type (0, 0), BuildingBlock: ZUJKAS_clean_linker_0, # of connection points: 2
#     Edge 61, Type (0, 0), BuildingBlock: ZUJKAS_clean_linker_0, # of connection points: 2
#     Edge 62, Type (0, 0), BuildingBlock: ZUJKAS_clean_linker_0, # of connection points: 2
#     Edge 63, Type (0, 0), BuildingBlock: ZUJKAS_clean_linker_0, # of connection points: 2
#     Edge 64, Type (0, 0), BuildingBlock: ZUJKAS_clean_linker_0, # of connection points: 2
#     Edge 65, Type (0, 0), BuildingBlock: ZUJKAS_clean_linker_0, # of connection points: 2
#     Edge 66, Type (0, 0), BuildingBlock: ZUJKAS_clean_linker_0, # of connection points: 2
#     Edge 67, Type (0, 0), BuildingBlock: ZUJKAS_clean_linker_0, # of connection points: 2
#     Edge 68, Type (0, 0), BuildingBlock: ZUJKAS_clean_linker_0, # of connection points: 2
#     Edge 69, Type (0, 0), BuildingBlock: ZUJKAS_clean_linker_0, # of connection points: 2
#     Edge 70, Type (0, 0), BuildingBlock: ZUJKAS_clean_linker_0, # of connection points: 2
#     Edge 71, Type (0, 0), BuildingBlock: ZUJKAS_clean_linker_0, # of connection points: 2
#     Edge 72, Type (0, 0), BuildingBlock: ZUJKAS_clean_linker_0, # of connection points: 2
#     Edge 73, Type (0, 0), BuildingBlock: ZUJKAS_clean_linker_0, # of connection points: 2
#     Edge 74, Type (0, 0), BuildingBlock: ZUJKAS_clean_linker_0, # of connection points: 2
#     Edge 75, Type (0, 0), BuildingBlock: ZUJKAS_clean_linker_0, # of connection points: 2
#     Edge 76, Type (0, 0), BuildingBlock: ZUJKAS_clean_linker_0, # of connection points: 2
#     Edge 77, Type (0, 0), BuildingBlock: ZUJKAS_clean_linker_0, # of connection points: 2
#     Edge 78, Type (0, 0), BuildingBlock: ZUJKAS_clean_linker_0, # of connection points: 2
#     Edge 79, Type (0, 0), BuildingBlock: ZUJKAS_clean_linker_0, # of connection points: 2
#     Edge 80, Type (0, 0), BuildingBlock: ZUJKAS_clean_linker_0, # of connection points: 2
#     Edge 81, Type (0, 0), BuildingBlock: ZUJKAS_clean_linker_0, # of connection points: 2
#     Edge 82, Type (0, 0), BuildingBlock: ZUJKAS_clean_linker_0, # of connection points: 2
#     Edge 83, Type (0, 0), BuildingBlock: ZUJKAS_clean_linker_0, # of connection points: 2
# Relax obj value: 0.374
# Max RMSD: 0.173
# Mean RMSD: 0.173
data_MOF--net-wjr--node1-BEQFEK_clean_sbu_0--edge1-ZUJKAS_clean_linker_0
_symmetry_space_group_name_H-M    P1
_symmetry_Int_Tables_number       1
_symmetry_cell_setting            triclinic
loop_
_symmetry_equiv_pos_as_xyz
'x, y, z'
_cell_length_a     86.64919
_cell_length_b     86.642971
_cell_length_c     62.467709
_cell_angle_alpha  89.998789
_cell_angle_beta   90.012288
_cell_angle_gamma 119.99736
loop_
_atom_site_label
_atom_site_type_symbol
_atom_site_fract_x
_atom_site_fract_y
_atom_site_fract_z
_atom_type_partial_charge
Co0 Co 0.46155 0.08152 0.15223 0.0
Co1 Co 0.45529 0.10992 0.17579 0.0
C2 C 0.48716 0.10701 0.18549 0.0
O3 O 0.4817 0.09398 0.17249 0.0
O4 O 0.47848 0.11515 0.18836 0.0
C5 C 0.48206 0.0701 0.12778 0.0
O6 O 0.49498 0.08655 0.13082 0.0
C7 C 0.45781 0.14218 0.1957 0.0
C8 C 0.43016 0.13658 0.19119 0.0
C9 C 0.44653 0.14896 0.1996 0.0
N10 N 0.44847 0.12658 0.18528 0.0
N11 N 0.43199 0.12334 0.18267 0.0
C12 C 0.47657 0.14941 0.20323 0.0
H13 H 0.47745 0.13903 0.21266 0.0
H14 H 0.48548 0.15263 0.18916 0.0
H15 H 0.48117 0.16139 0.21341 0.0
C16 C 0.45953 0.10075 0.11429 0.0
N17 N 0.45893 0.09816 0.13555 0.0
N18 N 0.45672 0.11038 0.1453 0.0
C19 C 0.4562 0.12143 0.13044 0.0
C20 C 0.45797 0.11567 0.11031 0.0
C21 C 0.46077 0.08866 0.09813 0.0
H22 H 0.45323 0.07466 0.10376 0.0
H23 H 0.47494 0.09241 0.09614 0.0
H24 H 0.45542 0.08968 0.08238 0.0
O25 O 0.43955 0.06634 0.16808 0.0
O26 O 0.43616 0.0863 0.18658 0.0
H27 H 0.44145 0.13398 0.13987 0.0
H28 H 0.45948 0.14706 0.12162 0.0
C29 C 0.45533 0.13785 0.1355 0.0
H30 H 0.46409 0.14486 0.14932 0.0
H31 H 0.42193 0.11199 0.17517 0.0
O32 O 0.46656 0.06543 0.13481 0.0
C33 C 0.43117 0.07018 0.18178 0.0
Co34 Co 0.37944 0.4649 0.14835 0.0
Co35 Co 0.34515 0.45864 0.17314 0.0
C36 C 0.38041 0.49124 0.18061 0.0
O37 O 0.38782 0.48591 0.16724 0.0
O38 O 0.36376 0.48213 0.18444 0.0
C39 C 0.41238 0.48412 0.12523 0.0
O40 O 0.41131 0.49811 0.1311 0.0
C41 C 0.31531 0.46301 0.18949 0.0
C42 C 0.29666 0.43538 0.19973 0.0
C43 C 0.29893 0.45238 0.19935 0.0
N44 N 0.32234 0.4527 0.1844 0.0
N45 N 0.311 0.43619 0.19038 0.0
C46 C 0.32457 0.48275 0.18612 0.0
H47 H 0.33876 0.48814 0.18203 0.0
H48 H 0.31816 0.48574 0.17262 0.0
H49 H 0.32338 0.48945 0.20066 0.0
C50 C 0.35639 0.46016 0.11129 0.0
N51 N 0.35932 0.46111 0.13249 0.0
N52 N 0.3449 0.45853 0.14265 0.0
C53 C 0.3323 0.45591 0.12811 0.0
C54 C 0.33916 0.45678 0.10778 0.0
C55 C 0.37018 0.46313 0.09486 0.0
H56 H 0.37389 0.45264 0.09648 0.0
H57 H 0.38232 0.47617 0.09786 0.0
H58 H 0.36548 0.46305 0.07833 0.0
O59 O 0.37362 0.4439 0.166 0.0
O60 O 0.35007 0.44004 0.18441 0.0
H61 H 0.30772 0.44041 0.14485 0.0
H62 H 0.30532 0.44864 0.1192 0.0
C63 C 0.31385 0.45186 0.13364 0.0
H64 H 0.31455 0.46355 0.14182 0.0
H65 H 0.31328 0.42552 0.18858 0.0
O66 O 0.39969 0.46865 0.12989 0.0
C67 C 0.36163 0.43554 0.18001 0.0
Co68 Co 0.91491 0.37763 0.14738 0.0
Co69 Co 0.8865 0.3429 0.17087 0.0
C70 C 0.889 0.37763 0.18 0.0
O71 O 0.90202 0.38524 0.167 0.0
O72 O 0.88109 0.36085 0.18311 0.0
C73 C 0.92848 0.41125 0.12594 0.0
O74 O 0.9134 0.40989 0.1323 0.0
C75 C 0.85344 0.31323 0.18898 0.0
C76 C 0.85959 0.29137 0.18745 0.0
C77 C 0.84657 0.29529 0.19356 0.0
N78 N 0.86979 0.31957 0.18053 0.0
N79 N 0.87339 0.30646 0.17977 0.0
C80 C 0.84436 0.32396 0.19138 0.0
H81 H 0.84822 0.33365 0.17804 0.0
H82 H 0.82966 0.31524 0.19165 0.0
H83 H 0.84871 0.33154 0.20661 0.0
C84 C 0.89664 0.35586 0.1094 0.0
N85 N 0.89867 0.35813 0.1307 0.0
N86 N 0.88649 0.34363 0.14038 0.0
C87 C 0.87611 0.33169 0.12543 0.0
C88 C 0.8823 0.33902 0.10534 0.0
C89 C 0.90782 0.36995 0.09344 0.0
H90 H 0.92199 0.3737 0.09554 0.0
H91 H 0.90678 0.382 0.09655 0.0
H92 H 0.9036 0.36552 0.07674 0.0
O93 O 0.92999 0.37126 0.16439 0.0
O94 O 0.90991 0.34757 0.18225 0.0
H95 H 0.86641 0.3054 0.13753 0.0
H96 H 0.85343 0.30647 0.11573 0.0
C97 C 0.86102 0.31342 0.13031 0.0
H98 H 0.85193 0.31435 0.14205 0.0
H99 H 0.88528 0.30781 0.17389 0.0
O100 O 0.93139 0.39851 0.12971 0.0
C101 C 0.92606 0.35901 0.17812 0.0
Co102 Co 0.53498 0.91508 0.14653 0.0
Co103 Co 0.5419 0.88759 0.17139 0.0
C104 C 0.50942 0.89015 0.17982 0.0
O105 O 0.51439 0.90258 0.16605 0.0
O106 O 0.51874 0.88283 0.18375 0.0
C107 C 0.51497 0.92761 0.12275 0.0
O108 O 0.50127 0.91209 0.12791 0.0
C109 C 0.53835 0.85523 0.19201 0.0
C110 C 0.56618 0.86084 0.19037 0.0
C111 C 0.54933 0.84842 0.19751 0.0
N112 N 0.54831 0.87088 0.18194 0.0
N113 N 0.5649 0.87411 0.18099 0.0
C114 C 0.51922 0.84806 0.19789 0.0
H115 H 0.51816 0.85792 0.20817 0.0
H116 H 0.51133 0.84629 0.18317 0.0
H117 H 0.51356 0.83531 0.20676 0.0
C118 C 0.53801 0.89579 0.10947 0.0
N119 N 0.53817 0.89847 0.13066 0.0
N120 N 0.54076 0.88665 0.14085 0.0
C121 C 0.54211 0.87586 0.12631 0.0
C122 C 0.54037 0.88129 0.10596 0.0
C123 C 0.53656 0.90756 0.093 0.0
H124 H 0.5444 0.92167 0.09812 0.0
H125 H 0.5224 0.90401 0.0915 0.0
H126 H 0.54147 0.90611 0.07715 0.0
O127 O 0.5566 0.93056 0.16304 0.0
O128 O 0.56103 0.91132 0.18164 0.0
H129 H 0.55793 0.8649 0.13732 0.0
H130 H 0.54124 0.8512 0.11786 0.0
C131 C 0.5441 0.86014 0.13183 0.0
H132 H 0.53489 0.85253 0.14507 0.0
H133 H 0.5754 0.88553 0.17416 0.0
O134 O 0.53053 0.93113 0.12822 0.0
C135 C 0.56543 0.92726 0.1767 0.0
Co136 Co 0.6199 0.53516 0.14789 0.0
Co137 Co 0.65542 0.54386 0.17131 0.0
C138 C 0.62174 0.50974 0.17934 0.0
O139 O 0.61346 0.51422 0.16615 0.0
O140 O 0.63827 0.51993 0.18318 0.0
C141 C 0.58729 0.5143 0.12455 0.0
O142 O 0.59037 0.50117 0.12838 0.0
C143 C 0.68619 0.54137 0.18707 0.0
C144 C 0.70602 0.56985 0.19167 0.0
C145 C 0.70355 0.55284 0.19381 0.0
N146 N 0.67882 0.55122 0.18133 0.0
N147 N 0.69074 0.56821 0.18416 0.0
C148 C 0.67696 0.52154 0.18482 0.0
H149 H 0.66699 0.51709 0.17172 0.0
H150 H 0.6867 0.51707 0.1815 0.0
H151 H 0.66985 0.51531 0.19994 0.0
C152 C 0.64241 0.54122 0.10987 0.0
N153 N 0.64001 0.5404 0.13118 0.0
N154 N 0.65491 0.54379 0.1408 0.0
C155 C 0.6673 0.5468 0.12578 0.0
C156 C 0.65979 0.54535 0.10572 0.0
C157 C 0.6279 0.53707 0.09399 0.0
H158 H 0.62257 0.54621 0.09657 0.0
H159 H 0.61686 0.52328 0.0967 0.0
H160 H 0.63253 0.53818 0.07723 0.0
O161 O 0.62469 0.55564 0.16609 0.0
O162 O 0.64952 0.56158 0.18305 0.0
H163 H 0.69244 0.56377 0.14061 0.0
H164 H 0.69406 0.55403 0.11581 0.0
C165 C 0.68608 0.55158 0.13061 0.0
H166 H 0.68606 0.54064 0.13984 0.0
H167 H 0.68842 0.5787 0.18094 0.0
O168 O 0.59869 0.52999 0.13045 0.0
C169 C 0.63695 0.56482 0.17949 0.0
Co170 Co 0.08372 0.6197 0.14799 0.0
Co171 Co 0.11173 0.65532 0.17033 0.0
C172 C 0.11033 0.621 0.18015 0.0
O173 O 0.09749 0.61287 0.16705 0.0
O174 O 0.11743 0.63773 0.18329 0.0
C175 C 0.07182 0.58717 0.12463 0.0
O176 O 0.08827 0.59065 0.12765 0.0
C177 C 0.14481 0.6852 0.18807 0.0
C178 C 0.13911 0.7073 0.18519 0.0
C179 C 0.15188 0.70327 0.19208 0.0
N180 N 0.12858 0.67889 0.17927 0.0
N181 N 0.12526 0.69216 0.17765 0.0
C182 C 0.15365 0.67432 0.19124 0.0
H183 H 0.15003 0.6646 0.17796 0.0
H184 H 0.16836 0.68289 0.19196 0.0
H185 H 0.14886 0.66676 0.20644 0.0
C186 C 0.101 0.64084 0.10926 0.0
N187 N 0.09926 0.63904 0.13064 0.0
N188 N 0.11125 0.65394 0.13982 0.0
C189 C 0.12112 0.6657 0.12444 0.0
C190 C 0.11494 0.65775 0.10462 0.0
C191 C 0.08904 0.62682 0.09366 0.0
H192 H 0.07507 0.62027 0.09941 0.0
H193 H 0.09309 0.61656 0.09246 0.0
H194 H 0.0898 0.63253 0.07753 0.0
O195 O 0.06867 0.62588 0.16545 0.0
O196 O 0.0884 0.65068 0.18185 0.0
H197 H 0.13178 0.69276 0.13416 0.0
H198 H 0.14483 0.68961 0.11396 0.0
C199 C 0.1367 0.68384 0.1286 0.0
H200 H 0.14519 0.68305 0.14134 0.0
H201 H 0.11351 0.69086 0.17135 0.0
O202 O 0.06733 0.59825 0.13118 0.0
C203 C 0.07235 0.63855 0.17846 0.0
Co204 Co 0.91566 0.5354 0.34566 0.0
Co205 Co 0.88803 0.54266 0.32176 0.0
C206 C 0.8904 0.51043 0.31193 0.0
O207 O 0.90322 0.51548 0.32516 0.0
O208 O 0.8826 0.51944 0.30902 0.0
C209 C 0.92802 0.5146 0.36814 0.0
O210 O 0.91267 0.50103 0.3622 0.0
C211 C 0.85629 0.5408 0.30122 0.0
C212 C 0.86243 0.56866 0.30541 0.0
C213 C 0.84994 0.55237 0.29691 0.0
N214 N 0.87176 0.54989 0.31196 0.0
N215 N 0.87532 0.5665 0.31439 0.0
C216 C 0.84888 0.52201 0.29369 0.0
H217 H 0.85916 0.52104 0.28417 0.0
H218 H 0.84566 0.51309 0.30775 0.0
H219 H 0.83686 0.5175 0.28358 0.0
C220 C 0.89632 0.53755 0.38328 0.0
N221 N 0.89904 0.53822 0.36205 0.0
N222 N 0.88726 0.54109 0.35223 0.0
C223 C 0.87647 0.54212 0.36703 0.0
C224 C 0.88186 0.53989 0.38716 0.0
C225 C 0.90793 0.53551 0.39945 0.0
H226 H 0.9221 0.54357 0.3946 0.0
H227 H 0.90442 0.52133 0.40009 0.0
H228 H 0.90628 0.53978 0.41563 0.0
O229 O 0.93125 0.5574 0.33 0.0
O230 O 0.91184 0.56158 0.31141 0.0
H231 H 0.86544 0.55821 0.35734 0.0
H232 H 0.85165 0.54071 0.37588 0.0
C233 C 0.86072 0.54418 0.36193 0.0
H234 H 0.85328 0.53549 0.34824 0.0
H235 H 0.88668 0.57642 0.32202 0.0
O236 O 0.93153 0.53032 0.36352 0.0
C237 C 0.92782 0.56616 0.31637 0.0
Co238 Co 0.3782 0.91503 0.34834 0.0
Co239 Co 0.34286 0.88615 0.32635 0.0
C240 C 0.37757 0.88876 0.31599 0.0
O241 O 0.38543 0.90173 0.329 0.0
O242 O 0.36078 0.88109 0.31301 0.0
C243 C 0.41164 0.92835 0.37011 0.0
O244 O 0.4095 0.91262 0.36541 0.0
C245 C 0.31318 0.85282 0.30862 0.0
C246 C 0.29053 0.85735 0.31399 0.0
C247 C 0.2949 0.84515 0.3059 0.0
N248 N 0.3193 0.86885 0.31791 0.0
N249 N 0.3057 0.87148 0.32096 0.0
C250 C 0.3245 0.84469 0.30387 0.0
H251 H 0.33442 0.848 0.31683 0.0
H252 H 0.3163 0.83 0.30224 0.0
H253 H 0.33184 0.85037 0.2887 0.0
C254 C 0.35794 0.89718 0.38724 0.0
N255 N 0.35934 0.89904 0.36586 0.0
N256 N 0.3446 0.88658 0.35687 0.0
C257 C 0.33337 0.87621 0.37241 0.0
C258 C 0.34147 0.8826 0.39212 0.0
C259 C 0.37191 0.90958 0.40261 0.0
H260 H 0.37768 0.92351 0.39695 0.0
H261 H 0.38275 0.90631 0.40332 0.0
H262 H 0.36638 0.90848 0.41892 0.0
O263 O 0.3712 0.92959 0.33127 0.0
O264 O 0.34669 0.90927 0.31492 0.0
H265 H 0.30586 0.86395 0.36398 0.0
H266 H 0.31083 0.85133 0.38292 0.0
C267 C 0.3157 0.8599 0.36846 0.0
H268 H 0.31682 0.85211 0.35508 0.0
H269 H 0.30678 0.88291 0.32798 0.0
O270 O 0.39949 0.93184 0.36508 0.0
C271 C 0.35838 0.92548 0.31835 0.0
Co272 Co 0.46623 0.38069 0.34755 0.0
Co273 Co 0.45806 0.34554 0.32355 0.0
C274 C 0.49148 0.37964 0.315 0.0
O275 O 0.48684 0.38765 0.3284 0.0
O276 O 0.48164 0.36303 0.31123 0.0
C277 C 0.4867 0.41412 0.36981 0.0
O278 O 0.50046 0.4126 0.36408 0.0
C279 C 0.46061 0.31509 0.30641 0.0
C280 C 0.43211 0.2945 0.30484 0.0
C281 C 0.44909 0.29745 0.30067 0.0
N282 N 0.45081 0.32213 0.31354 0.0
N283 N 0.43381 0.30976 0.31252 0.0
C284 C 0.48054 0.32483 0.30663 0.0
H285 H 0.48567 0.33504 0.31949 0.0
H286 H 0.48562 0.31547 0.30911 0.0
H287 H 0.48556 0.33173 0.29107 0.0
C288 C 0.46237 0.35865 0.3852 0.0
N289 N 0.46213 0.36084 0.36395 0.0
N290 N 0.45883 0.34605 0.35413 0.0
C291 C 0.45693 0.33391 0.369 0.0
C292 C 0.4592 0.34155 0.38914 0.0
C293 C 0.46504 0.37256 0.40131 0.0
H294 H 0.45725 0.37899 0.39656 0.0
H295 H 0.47934 0.38297 0.40164 0.0
H296 H 0.46087 0.36682 0.41757 0.0
O297 O 0.44497 0.37516 0.33059 0.0
O298 O 0.43983 0.35106 0.3124 0.0
H299 H 0.44069 0.30765 0.35653 0.0
H300 H 0.45491 0.30889 0.37845 0.0
C301 C 0.45402 0.31578 0.36393 0.0
H302 H 0.46417 0.31697 0.35221 0.0
H303 H 0.42335 0.31174 0.31714 0.0
O304 O 0.47108 0.40164 0.36531 0.0
C305 C 0.436 0.36307 0.31693 0.0
Co306 Co 0.08412 0.46341 0.34757 0.0
Co307 Co 0.1115 0.45663 0.32237 0.0
C308 C 0.10991 0.48983 0.31563 0.0
O309 O 0.09731 0.48466 0.32919 0.0
O310 O 0.11693 0.48033 0.31121 0.0
C311 C 0.07184 0.48308 0.37224 0.0
O312 O 0.08793 0.49648 0.36854 0.0
C313 C 0.14529 0.46163 0.30515 0.0
C314 C 0.13859 0.43374 0.29978 0.0
C315 C 0.15222 0.45124 0.29769 0.0
N316 N 0.12834 0.45074 0.31125 0.0
N317 N 0.12441 0.4341 0.30794 0.0
C318 C 0.15477 0.48144 0.3078 0.0
H319 H 0.14917 0.48507 0.32161 0.0
H320 H 0.16927 0.48686 0.31024 0.0
H321 H 0.1528 0.48751 0.29317 0.0
C322 C 0.10206 0.45798 0.38449 0.0
N323 N 0.10008 0.4591 0.36332 0.0
N324 N 0.11173 0.45637 0.35297 0.0
C325 C 0.12165 0.45352 0.36738 0.0
C326 C 0.11576 0.45434 0.3878 0.0
C327 C 0.09147 0.46116 0.40105 0.0
H328 H 0.07709 0.45148 0.39875 0.0
H329 H 0.09343 0.47472 0.39885 0.0
H330 H 0.09548 0.46007 0.41758 0.0
O331 O 0.06868 0.44248 0.32985 0.0
O332 O 0.08795 0.43829 0.31094 0.0
H333 H 0.13013 0.4372 0.3515 0.0
H334 H 0.14196 0.44699 0.37605 0.0
C335 C 0.13591 0.44932 0.36165 0.0
H336 H 0.14642 0.4605 0.35226 0.0
H337 H 0.11204 0.42298 0.31132 0.0
O338 O 0.06784 0.46759 0.36585 0.0
C339 C 0.07203 0.43402 0.31569 0.0
Co340 Co 0.62071 0.08133 0.34676 0.0
Co341 Co 0.65565 0.11045 0.32444 0.0
C342 C 0.62098 0.10788 0.31487 0.0
O343 O 0.61333 0.09461 0.32751 0.0
O344 O 0.63779 0.11595 0.31202 0.0
C345 C 0.58861 0.06957 0.37057 0.0
O346 O 0.59242 0.08615 0.36785 0.0
C347 C 0.68534 0.14382 0.30697 0.0
C348 C 0.70791 0.13906 0.31177 0.0
C349 C 0.7036 0.15146 0.30421 0.0
N350 N 0.67916 0.12762 0.3158 0.0
N351 N 0.6927 0.12484 0.3185 0.0
C352 C 0.67413 0.15217 0.30283 0.0
H353 H 0.66432 0.14876 0.31595 0.0
H354 H 0.68242 0.16688 0.30149 0.0
H355 H 0.66666 0.14676 0.28768 0.0
C356 C 0.64165 0.099 0.38553 0.0
N357 N 0.63983 0.09723 0.36415 0.0
N358 N 0.65433 0.10984 0.35494 0.0
C359 C 0.66575 0.12031 0.37027 0.0
C360 C 0.65809 0.11375 0.39014 0.0
C361 C 0.62813 0.08639 0.40115 0.0
H362 H 0.62173 0.07259 0.39484 0.0
H363 H 0.61767 0.09007 0.40342 0.0
H364 H 0.6343 0.08689 0.41689 0.0
O365 O 0.62739 0.06672 0.32942 0.0
O366 O 0.65137 0.08728 0.31242 0.0
H367 H 0.6932 0.13345 0.36134 0.0
H368 H 0.68782 0.14571 0.38035 0.0
C369 C 0.68302 0.137 0.366 0.0
H370 H 0.68136 0.14448 0.35266 0.0
H371 H 0.69157 0.11329 0.3252 0.0
O372 O 0.59939 0.06482 0.36361 0.0
C373 C 0.63989 0.07101 0.31595 0.0
Co374 Co 0.53661 0.62209 0.34788 0.0
Co375 Co 0.54436 0.65705 0.32377 0.0
C376 C 0.51187 0.62242 0.31408 0.0
O377 O 0.51664 0.61459 0.32757 0.0
O378 O 0.52116 0.63917 0.31099 0.0
C379 C 0.51576 0.58901 0.37011 0.0
O380 O 0.50242 0.59133 0.36459 0.0
C381 C 0.54009 0.68659 0.30765 0.0
C382 C 0.56816 0.70765 0.30318 0.0
C383 C 0.55077 0.70412 0.30098 0.0
N384 N 0.55072 0.68013 0.31342 0.0
N385 N 0.56747 0.69277 0.31065 0.0
C386 C 0.52025 0.67643 0.30992 0.0
H387 H 0.51628 0.66644 0.32295 0.0
H388 H 0.51505 0.68557 0.31334 0.0
H389 H 0.51426 0.66925 0.29476 0.0
C390 C 0.53974 0.6441 0.38543 0.0
N391 N 0.53979 0.64174 0.36418 0.0
N392 N 0.54311 0.65651 0.35428 0.0
C393 C 0.54523 0.66878 0.36906 0.0
C394 C 0.54323 0.66133 0.38926 0.0
C395 C 0.53573 0.62978 0.40153 0.0
H396 H 0.52264 0.61797 0.39773 0.0
H397 H 0.53527 0.63411 0.4181 0.0
H398 H 0.54597 0.62569 0.40042 0.0
O399 O 0.55845 0.62832 0.33185 0.0
O400 O 0.56327 0.65219 0.31337 0.0
H401 H 0.56223 0.69383 0.35402 0.0
H402 H 0.55233 0.69561 0.37861 0.0
C403 C 0.54999 0.68752 0.36394 0.0
H404 H 0.53906 0.68738 0.35455 0.0
H405 H 0.57843 0.69123 0.31396 0.0
O406 O 0.53158 0.60107 0.36564 0.0
C407 C 0.56747 0.64051 0.3183 0.0
Co408 Co 0.53804 0.91655 0.84549 0.0
Co409 Co 0.54417 0.88769 0.8229 0.0
C410 C 0.51158 0.8898 0.81416 0.0
O411 O 0.51708 0.90309 0.82673 0.0
O412 O 0.52061 0.88206 0.81109 0.0
C413 C 0.51816 0.92896 0.86943 0.0
O414 O 0.50513 0.91247 0.86694 0.0
C415 C 0.53949 0.85367 0.80657 0.0
C416 C 0.56741 0.85957 0.80546 0.0
C417 C 0.55006 0.84638 0.8012 0.0
N418 N 0.55016 0.87041 0.81356 0.0
N419 N 0.56682 0.87385 0.81281 0.0
C420 C 0.51958 0.84462 0.80657 0.0
H421 H 0.51494 0.84994 0.81968 0.0
H422 H 0.51358 0.82999 0.80852 0.0
H423 H 0.51505 0.84731 0.79113 0.0
C424 C 0.5417 0.89885 0.88409 0.0
N425 N 0.5416 0.90073 0.86274 0.0
N426 N 0.54403 0.88849 0.85338 0.0
C427 C 0.54566 0.87834 0.86859 0.0
C428 C 0.5442 0.88456 0.88852 0.0
C429 C 0.53993 0.91086 0.89989 0.0
H430 H 0.54735 0.92483 0.89415 0.0
H431 H 0.52566 0.9069 0.90138 0.0
H432 H 0.54504 0.91002 0.91588 0.0
O433 O 0.55922 0.93118 0.82779 0.0
O434 O 0.56281 0.91076 0.81069 0.0
H435 H 0.56067 0.86668 0.85686 0.0
H436 H 0.54599 0.85459 0.87882 0.0
C437 C 0.54742 0.86233 0.86408 0.0
H438 H 0.53707 0.85359 0.85242 0.0
H439 H 0.5778 0.88596 0.81737 0.0
O440 O 0.53357 0.93331 0.8624 0.0
C441 C 0.56747 0.92698 0.81427 0.0
Co442 Co 0.62146 0.53773 0.84509 0.0
Co443 Co 0.65621 0.54375 0.82174 0.0
C444 C 0.62156 0.51093 0.814 0.0
O445 O 0.61392 0.51665 0.82649 0.0
O446 O 0.63832 0.51983 0.81073 0.0
C447 C 0.58806 0.51806 0.86717 0.0
O448 O 0.58951 0.50424 0.8615 0.0
C449 C 0.68586 0.54089 0.80224 0.0
C450 C 0.70752 0.56898 0.8041 0.0
C451 C 0.70368 0.55225 0.79716 0.0
N452 N 0.6796 0.55052 0.81194 0.0
N453 N 0.69261 0.56728 0.81296 0.0
C454 C 0.67436 0.52174 0.79608 0.0
H455 H 0.66296 0.5203 0.78647 0.0
H456 H 0.6689 0.51356 0.81075 0.0
H457 H 0.68165 0.51671 0.78646 0.0
C458 C 0.64363 0.54272 0.88311 0.0
N459 N 0.64123 0.54183 0.8618 0.0
N460 N 0.65573 0.54403 0.85225 0.0
C461 C 0.66778 0.54609 0.86732 0.0
C462 C 0.66055 0.54549 0.88733 0.0
C463 C 0.62952 0.53999 0.89895 0.0
H464 H 0.62543 0.5501 0.89621 0.0
H465 H 0.61765 0.52667 0.89636 0.0
H466 H 0.63409 0.54085 0.91572 0.0
O467 O 0.62742 0.55855 0.82708 0.0
O468 O 0.65104 0.56186 0.80932 0.0
H469 H 0.69425 0.56254 0.85571 0.0
H470 H 0.69269 0.54804 0.87722 0.0
C471 C 0.68599 0.54904 0.8626 0.0
H472 H 0.68505 0.53915 0.85063 0.0
H473 H 0.69123 0.57761 0.81948 0.0
O474 O 0.60066 0.53364 0.86274 0.0
C475 C 0.63951 0.56653 0.81308 0.0
Co476 Co 0.08336 0.61724 0.84358 0.0
Co477 Co 0.10946 0.65309 0.82041 0.0
C478 C 0.1088 0.61907 0.80973 0.0
O479 O 0.09675 0.61063 0.82367 0.0
O480 O 0.115 0.63567 0.80651 0.0
C481 C 0.07246 0.58495 0.86751 0.0
O482 O 0.08869 0.58816 0.86353 0.0
C483 C 0.14273 0.68312 0.8039 0.0
C484 C 0.13544 0.70412 0.80132 0.0
C485 C 0.14929 0.70076 0.79783 0.0
N486 N 0.12581 0.67646 0.81054 0.0
N487 N 0.12153 0.68906 0.80891 0.0
C488 C 0.15256 0.67304 0.80498 0.0
H489 H 0.14692 0.66282 0.8178 0.0
H490 H 0.16696 0.68218 0.80805 0.0
H491 H 0.15105 0.66613 0.7895 0.0
C492 C 0.10133 0.63903 0.88168 0.0
N493 N 0.09911 0.63696 0.86038 0.0
N494 N 0.11034 0.652 0.85083 0.0
C495 C 0.12019 0.66416 0.86587 0.0
C496 C 0.11484 0.65629 0.8859 0.0
C497 C 0.0899 0.62505 0.89763 0.0
H498 H 0.07582 0.61816 0.89226 0.0
H499 H 0.0943 0.61505 0.89874 0.0
H500 H 0.09075 0.63085 0.91372 0.0
O501 O 0.06728 0.62269 0.82716 0.0
O502 O 0.08551 0.64821 0.81097 0.0
H503 H 0.12892 0.6903 0.85375 0.0
H504 H 0.14226 0.68972 0.87569 0.0
C505 C 0.13475 0.68271 0.86108 0.0
H506 H 0.14413 0.68223 0.8494 0.0
H507 H 0.10911 0.68737 0.81304 0.0
O508 O 0.06783 0.59598 0.86112 0.0
C509 C 0.06986 0.63547 0.81488 0.0
Co510 Co 0.46365 0.08463 0.85118 0.0
Co511 Co 0.4567 0.11256 0.82739 0.0
C512 C 0.48828 0.10924 0.81677 0.0
O513 O 0.48342 0.09677 0.83046 0.0
O514 O 0.47927 0.11701 0.81366 0.0
C515 C 0.48429 0.07183 0.87298 0.0
O516 O 0.49782 0.08734 0.86741 0.0
C517 C 0.45995 0.14524 0.80807 0.0
C518 C 0.43255 0.14033 0.81254 0.0
C519 C 0.4491 0.15254 0.8044 0.0
N520 N 0.45018 0.12943 0.81788 0.0
N521 N 0.43382 0.12658 0.82043 0.0
C522 C 0.47948 0.15356 0.80372 0.0
H523 H 0.48142 0.14821 0.78845 0.0
H524 H 0.48597 0.15011 0.81669 0.0
H525 H 0.48587 0.16827 0.80245 0.0
C526 C 0.4626 0.10449 0.88888 0.0
N527 N 0.46154 0.1016 0.86766 0.0
N528 N 0.45891 0.11355 0.85789 0.0
C529 C 0.45841 0.12462 0.87273 0.0
C530 C 0.46074 0.11924 0.89282 0.0
C531 C 0.46452 0.09277 0.905 0.0
H532 H 0.45632 0.07862 0.90014 0.0
H533 H 0.47866 0.09613 0.90557 0.0
H534 H 0.46035 0.0945 0.9212 0.0
O535 O 0.4413 0.06937 0.83584 0.0
O536 O 0.43717 0.08893 0.81746 0.0
H537 H 0.44274 0.13614 0.86311 0.0
H538 H 0.46034 0.14968 0.88166 0.0
C539 C 0.4567 0.14059 0.8677 0.0
H540 H 0.46548 0.14796 0.85405 0.0
H541 H 0.42353 0.11524 0.82768 0.0
O542 O 0.46856 0.06842 0.86861 0.0
C543 C 0.43245 0.07293 0.82249 0.0
Co544 Co 0.3793 0.46435 0.84886 0.0
Co545 Co 0.34426 0.45678 0.82495 0.0
C546 C 0.37898 0.48945 0.81569 0.0
O547 O 0.3868 0.48477 0.82928 0.0
O548 O 0.3623 0.47992 0.81223 0.0
C549 C 0.41197 0.48523 0.87169 0.0
O550 O 0.40898 0.4983 0.86704 0.0
C551 C 0.31525 0.46117 0.80691 0.0
C552 C 0.2941 0.43307 0.80284 0.0
C553 C 0.29801 0.45044 0.79933 0.0
N554 N 0.32116 0.45055 0.81458 0.0
N555 N 0.30841 0.4338 0.81223 0.0
C556 C 0.32677 0.48095 0.80481 0.0
H557 H 0.33663 0.48387 0.79188 0.0
H558 H 0.33426 0.48654 0.81992 0.0
H559 H 0.31904 0.48756 0.80077 0.0
C560 C 0.35712 0.46048 0.88656 0.0
N561 N 0.35955 0.4608 0.86529 0.0
N562 N 0.34486 0.45779 0.85544 0.0
C563 C 0.33259 0.45556 0.87026 0.0
C564 C 0.33993 0.45709 0.89045 0.0
C565 C 0.37136 0.46412 0.90264 0.0
H566 H 0.38299 0.4775 0.89956 0.0
H567 H 0.36682 0.46375 0.91931 0.0
H568 H 0.37581 0.45421 0.90067 0.0
O569 O 0.37328 0.44282 0.83197 0.0
O570 O 0.34899 0.4379 0.81439 0.0
H571 H 0.30724 0.43849 0.85597 0.0
H572 H 0.3061 0.44969 0.87972 0.0
C573 C 0.31396 0.45115 0.86509 0.0
H574 H 0.31435 0.46178 0.85482 0.0
H575 H 0.30966 0.42284 0.81657 0.0
O576 O 0.40039 0.46938 0.86653 0.0
C577 C 0.36088 0.43382 0.81864 0.0
Co578 Co 0.91337 0.37911 0.8499 0.0
Co579 Co 0.88787 0.34459 0.82376 0.0
C580 C 0.88804 0.37891 0.81703 0.0
O581 O 0.89996 0.38669 0.83131 0.0
O582 O 0.88212 0.3626 0.81227 0.0
C583 C 0.92665 0.41217 0.87295 0.0
O584 O 0.9121 0.41161 0.86589 0.0
C585 C 0.85493 0.31536 0.80521 0.0
C586 C 0.86287 0.29509 0.79948 0.0
C587 C 0.84885 0.29834 0.79711 0.0
N588 N 0.87173 0.32175 0.81216 0.0
N589 N 0.87637 0.30957 0.80874 0.0
C590 C 0.84587 0.32621 0.80456 0.0
H591 H 0.84651 0.33196 0.82064 0.0
H592 H 0.83185 0.31842 0.79915 0.0
H593 H 0.85315 0.33747 0.79329 0.0
C594 C 0.89491 0.35519 0.88606 0.0
N595 N 0.89758 0.35839 0.86497 0.0
N596 N 0.88673 0.34384 0.85428 0.0
C597 C 0.8767 0.33084 0.86839 0.0
C598 C 0.88167 0.33761 0.88897 0.0
C599 C 0.90437 0.36909 0.90291 0.0
H600 H 0.91867 0.373 0.90302 0.0
H601 H 0.90349 0.3811 0.89893 0.0
H602 H 0.89861 0.36433 0.91904 0.0
O603 O 0.92965 0.37473 0.83239 0.0
O604 O 0.91198 0.35056 0.81352 0.0
H605 H 0.86965 0.30638 0.85244 0.0
H606 H 0.857 0.30365 0.8765 0.0
C607 C 0.86317 0.3122 0.86226 0.0
H608 H 0.85264 0.31243 0.85239 0.0
H609 H 0.88885 0.31124 0.81249 0.0
O610 O 0.92913 0.39918 0.86904 0.0
C611 C 0.92748 0.36305 0.81856 0.0
Co612 Co 0.0857 0.46304 0.64504 0.0
Co613 Co 0.11338 0.45663 0.67011 0.0
C614 C 0.1129 0.49071 0.67454 0.0
O615 O 0.10011 0.48533 0.6612 0.0
O616 O 0.11945 0.48095 0.67982 0.0
C617 C 0.07157 0.47995 0.6169 0.0
O618 O 0.08805 0.49314 0.61507 0.0
C619 C 0.14725 0.4615 0.68734 0.0
C620 C 0.14026 0.43352 0.69263 0.0
C621 C 0.15402 0.45095 0.69478 0.0
N622 N 0.13027 0.45075 0.68119 0.0
N623 N 0.12619 0.43406 0.68445 0.0
C624 C 0.1569 0.48132 0.68481 0.0
H625 H 0.15154 0.48507 0.67087 0.0
H626 H 0.17141 0.48665 0.68265 0.0
H627 H 0.15479 0.48738 0.69937 0.0
C628 C 0.1019 0.45505 0.60811 0.0
N629 N 0.10052 0.45713 0.62922 0.0
N630 N 0.11256 0.45496 0.63955 0.0
C631 C 0.12224 0.45174 0.62518 0.0
C632 C 0.11572 0.45158 0.60484 0.0
C633 C 0.09091 0.45753 0.59145 0.0
H634 H 0.07669 0.45031 0.59629 0.0
H635 H 0.09526 0.47191 0.59029 0.0
H636 H 0.09233 0.45286 0.57546 0.0
O637 O 0.0709 0.44369 0.66496 0.0
O638 O 0.09016 0.43902 0.68307 0.0
H639 H 0.13208 0.43656 0.64103 0.0
H640 H 0.14355 0.44672 0.61643 0.0
C641 C 0.13723 0.44862 0.63086 0.0
H642 H 0.14737 0.46012 0.64021 0.0
H643 H 0.11376 0.42302 0.68104 0.0
O644 O 0.06838 0.46617 0.62755 0.0
C645 C 0.07426 0.43537 0.67928 0.0
Co646 Co 0.621 0.08486 0.648 0.0
Co647 Co 0.65523 0.11264 0.67285 0.0
C648 C 0.62017 0.10983 0.68119 0.0
O649 O 0.61287 0.09733 0.66747 0.0
O650 O 0.6368 0.11733 0.68521 0.0
C651 C 0.58835 0.07218 0.62456 0.0
O652 O 0.59037 0.08783 0.62947 0.0
C653 C 0.68414 0.14601 0.6912 0.0
C654 C 0.7063 0.14029 0.69142 0.0
C655 C 0.70199 0.15323 0.69658 0.0
N656 N 0.67822 0.12956 0.6833 0.0
N657 N 0.69151 0.12621 0.68356 0.0
C658 C 0.67318 0.15495 0.69196 0.0
H659 H 0.66341 0.15013 0.67862 0.0
H660 H 0.68174 0.16965 0.69091 0.0
H661 H 0.66569 0.15152 0.70727 0.0
C662 C 0.64307 0.10438 0.61089 0.0
N663 N 0.64064 0.10157 0.63207 0.0
N664 N 0.65503 0.11343 0.64226 0.0
C665 C 0.66712 0.12429 0.62772 0.0
C666 C 0.65989 0.11892 0.6074 0.0
C667 C 0.62974 0.09282 0.5944 0.0
H668 H 0.62357 0.07863 0.5992 0.0
H669 H 0.61906 0.09631 0.59339 0.0
H670 H 0.63596 0.09457 0.5784 0.0
O671 O 0.62742 0.06957 0.66449 0.0
O672 O 0.65076 0.08907 0.68342 0.0
H673 H 0.69353 0.13528 0.64006 0.0
H674 H 0.69142 0.14838 0.61897 0.0
C675 C 0.68482 0.14001 0.63322 0.0
H676 H 0.68302 0.14823 0.64546 0.0
H677 H 0.69051 0.11433 0.67819 0.0
O678 O 0.60039 0.06863 0.6299 0.0
C679 C 0.63947 0.07309 0.67836 0.0
Co680 Co 0.53442 0.62058 0.64474 0.0
Co681 Co 0.5418 0.6547 0.67071 0.0
C682 C 0.5088 0.61987 0.67799 0.0
O683 O 0.51364 0.61247 0.66398 0.0
O684 O 0.51837 0.63638 0.68239 0.0
C685 C 0.51443 0.58779 0.62148 0.0
O686 O 0.50067 0.58918 0.62759 0.0
C687 C 0.53806 0.68361 0.69049 0.0
C688 C 0.56633 0.70458 0.69365 0.0
C689 C 0.54912 0.70085 0.6979 0.0
N690 N 0.54834 0.67756 0.68214 0.0
N691 N 0.5652 0.69017 0.68404 0.0
C692 C 0.5183 0.6723 0.69308 0.0
H693 H 0.5154 0.66099 0.70385 0.0
H694 H 0.51215 0.66664 0.67732 0.0
H695 H 0.5122 0.67974 0.70006 0.0
C696 C 0.53895 0.64414 0.60841 0.0
N697 N 0.53835 0.64093 0.62952 0.0
N698 N 0.54122 0.65524 0.64018 0.0
C699 C 0.54357 0.66802 0.62605 0.0
C700 C 0.54233 0.66142 0.60549 0.0
C701 C 0.53572 0.63057 0.59155 0.0
H702 H 0.52263 0.61847 0.59446 0.0
H703 H 0.53578 0.6356 0.57521 0.0
H704 H 0.54609 0.62667 0.59275 0.0
O705 O 0.55569 0.62594 0.66163 0.0
O706 O 0.56033 0.64934 0.681 0.0
H707 H 0.56054 0.6932 0.64076 0.0
H708 H 0.54843 0.69443 0.61795 0.0
C709 C 0.54762 0.68637 0.63216 0.0
H710 H 0.53715 0.68545 0.64316 0.0
H711 H 0.57596 0.68883 0.67903 0.0
O712 O 0.53005 0.60031 0.62589 0.0
C713 C 0.56447 0.63768 0.67573 0.0
Co714 Co 0.91683 0.53482 0.64887 0.0
Co715 Co 0.8886 0.54244 0.67063 0.0
C716 C 0.88946 0.50913 0.68 0.0
O717 O 0.90244 0.51383 0.66711 0.0
O718 O 0.88259 0.51896 0.68324 0.0
C719 C 0.93037 0.51661 0.62183 0.0
O720 O 0.91367 0.50454 0.61819 0.0
C721 C 0.85657 0.54047 0.69036 0.0
C722 C 0.86134 0.56754 0.68343 0.0
C723 C 0.84948 0.5516 0.69321 0.0
N724 N 0.87181 0.54942 0.67916 0.0
N725 N 0.87458 0.56558 0.67514 0.0
C726 C 0.85019 0.52244 0.69991 0.0
H727 H 0.86125 0.52258 0.709 0.0
H728 H 0.84633 0.51247 0.68689 0.0
H729 H 0.83882 0.51846 0.71096 0.0
C730 C 0.90046 0.53975 0.60965 0.0
N731 N 0.90186 0.53928 0.63106 0.0
N732 N 0.88941 0.54155 0.64011 0.0
C733 C 0.87933 0.543 0.62463 0.0
C734 C 0.88605 0.54196 0.60486 0.0
C735 C 0.91327 0.53912 0.59411 0.0
H736 H 0.92671 0.54498 0.60136 0.0
H737 H 0.90861 0.52505 0.58979 0.0
H738 H 0.91406 0.54649 0.57923 0.0
O739 O 0.93145 0.55554 0.66705 0.0
O740 O 0.91182 0.56125 0.68246 0.0
H741 H 0.86656 0.55795 0.63213 0.0
H742 H 0.85388 0.5394 0.61447 0.0
C743 C 0.8628 0.54395 0.62864 0.0
H744 H 0.8555 0.53556 0.64258 0.0
H745 H 0.88563 0.57535 0.66689 0.0
O746 O 0.93398 0.53016 0.63323 0.0
C747 C 0.92782 0.5648 0.67965 0.0
Co748 Co 0.37972 0.91773 0.65584 0.0
Co749 Co 0.34459 0.88811 0.6774 0.0
C750 C 0.37923 0.89044 0.68663 0.0
O751 O 0.38705 0.90409 0.67459 0.0
O752 O 0.36239 0.8823 0.6892 0.0
C753 C 0.41196 0.93005 0.63201 0.0
O754 O 0.40819 0.91344 0.63413 0.0
C755 C 0.31504 0.85489 0.69546 0.0
C756 C 0.2928 0.86042 0.69293 0.0
C757 C 0.29706 0.84786 0.69999 0.0
N758 N 0.32105 0.87084 0.68602 0.0
N759 N 0.30767 0.87401 0.68449 0.0
C760 C 0.32682 0.84763 0.70186 0.0
H761 H 0.337 0.85701 0.71328 0.0
H762 H 0.33392 0.84676 0.68753 0.0
H763 H 0.31933 0.83441 0.70962 0.0
C764 C 0.35911 0.90063 0.61667 0.0
N765 N 0.3607 0.9021 0.63808 0.0
N766 N 0.34607 0.88937 0.64696 0.0
C767 C 0.33479 0.87917 0.63138 0.0
C768 C 0.3427 0.88598 0.61168 0.0
C769 C 0.37283 0.91342 0.60134 0.0
H770 H 0.37917 0.92714 0.60789 0.0
H771 H 0.38328 0.90973 0.59913 0.0
H772 H 0.36684 0.91313 0.58554 0.0
O773 O 0.37278 0.93202 0.67351 0.0
O774 O 0.34882 0.91103 0.6901 0.0
H775 H 0.30738 0.86615 0.64044 0.0
H776 H 0.31249 0.85413 0.62073 0.0
C777 C 0.31741 0.86251 0.63533 0.0
H778 H 0.31897 0.8547 0.64835 0.0
H779 H 0.3088 0.88563 0.67801 0.0
O780 O 0.40115 0.93462 0.63936 0.0
C781 C 0.36017 0.92738 0.6869 0.0
Co782 Co 0.4628 0.37969 0.65159 0.0
Co783 Co 0.45666 0.34439 0.67339 0.0
C784 C 0.4886 0.3789 0.68386 0.0
O785 O 0.48314 0.3868 0.67138 0.0
O786 O 0.47987 0.36203 0.68621 0.0
C787 C 0.48309 0.41236 0.6283 0.0
O788 O 0.4961 0.40887 0.63079 0.0
C789 C 0.46012 0.31433 0.69029 0.0
C790 C 0.43269 0.29197 0.68547 0.0
C791 C 0.44936 0.29606 0.69293 0.0
N792 N 0.45021 0.32072 0.68165 0.0
N793 N 0.43382 0.30729 0.67893 0.0
C794 C 0.4797 0.32538 0.69439 0.0
H795 H 0.4861 0.33548 0.68156 0.0
H796 H 0.48605 0.317 0.69516 0.0
H797 H 0.48185 0.3325 0.70983 0.0
C798 C 0.46002 0.35933 0.6125 0.0
N799 N 0.45992 0.36088 0.63391 0.0
N800 N 0.45772 0.34616 0.64287 0.0
C801 C 0.4567 0.33487 0.62732 0.0
C802 C 0.45809 0.34285 0.60759 0.0
C803 C 0.46108 0.37309 0.59713 0.0
H804 H 0.45362 0.37938 0.60352 0.0
H805 H 0.47524 0.38358 0.59514 0.0
H806 H 0.45557 0.36716 0.58125 0.0
O807 O 0.44103 0.37245 0.66814 0.0
O808 O 0.43769 0.34859 0.68544 0.0
H809 H 0.44178 0.30736 0.63591 0.0
H810 H 0.45928 0.31246 0.61678 0.0
C811 C 0.45561 0.31731 0.63127 0.0
H812 H 0.46467 0.3186 0.64453 0.0
H813 H 0.42344 0.30858 0.67238 0.0
O814 O 0.46764 0.40127 0.6352 0.0
C815 C 0.43277 0.35991 0.68151 0.0
H816 H 0.45904 0.03434 0.12325 0.0
H817 H 0.46646 0.01145 0.11394 0.0
H818 H 0.52101 0.05204 0.10262 0.0
H819 H 0.51381 0.07509 0.11233 0.0
H820 H 0.48215 0.00429 0.07825 0.0
H821 H 0.52454 0.02212 0.15123 0.0
H822 H 0.50941 0.03034 0.14646 0.0
H823 H 0.53037 0.03998 0.1326 0.0
C824 C 0.47258 0.03846 0.1185 0.0
C825 C 0.48592 0.05654 0.1189 0.0
C826 C 0.47677 0.02534 0.11311 0.0
C827 C 0.49434 0.03004 0.108 0.0
C828 C 0.50744 0.04813 0.10693 0.0
H829 H 0.54037 0.96081 0.1095 0.0
H830 H 0.53613 0.98598 0.101 0.0
C831 C 0.50328 0.06128 0.11242 0.0
C832 C 0.49914 0.01593 0.1057 0.0
H833 H 0.52216 0.99855 0.13041 0.0
C834 C 0.49103 0.0031 0.08951 0.0
C835 C 0.51067 0.01439 0.12048 0.0
C836 C 0.51916 0.02732 0.1388 0.0
C837 C 0.49404 0.98863 0.08783 0.0
C838 C 0.50522 0.98687 0.10295 0.0
C839 C 0.51368 -2e-05 0.11875 0.0
C840 C 0.50741 0.97097 0.10391 0.0
C841 C 0.4852 0.97536 0.06996 0.0
C842 C 0.49263 0.95406 0.10784 0.0
C843 C 0.495 0.93962 0.11265 0.0
C844 C 0.51222 0.9419 0.1139 0.0
C845 C 0.52693 0.95863 0.1088 0.0
C846 C 0.52454 0.97303 0.10391 0.0
H847 H 0.482 0.9814 0.0562 0.0
H848 H 0.49379 0.97007 0.06425 0.0
H849 H 0.47251 0.96403 0.07591 0.0
H850 H 0.47932 0.95223 0.10839 0.0
H851 H 0.48339 0.92694 0.11654 0.0
H852 H 0.57511 0.53776 0.11961 0.0
H853 H 0.54464 0.53065 0.11174 0.0
H854 H 0.52918 0.47543 0.10279 0.0
H855 H 0.55958 0.48233 0.11107 0.0
H856 H 0.52035 0.51413 0.0776 0.0
H857 H 0.49784 0.47424 0.15261 0.0
H858 H 0.52107 0.48881 0.1465 0.0
H859 H 0.5089 0.46741 0.13375 0.0
C860 C 0.56531 0.52413 0.11567 0.0
C861 C 0.56971 0.51055 0.11633 0.0
C862 C 0.5479 0.52011 0.11112 0.0
C863 C 0.53459 0.50246 0.10712 0.0
C864 C 0.5392 0.48908 0.10627 0.0
H865 H 0.41951 0.45803 0.1128 0.0
H866 H 0.44859 0.4616 0.10385 0.0
C867 C 0.55659 0.49306 0.11093 0.0
C868 C 0.51572 0.49796 0.10568 0.0
H869 H 0.4761 0.47618 0.13235 0.0
C870 C 0.51061 0.50571 0.08944 0.0
C871 C 0.50307 0.48703 0.12122 0.0
C872 C 0.50795 0.47899 0.13963 0.0
C873 C 0.49318 0.5029 0.08843 0.0
C874 C 0.48067 0.4923 0.10426 0.0
C875 C 0.48568 0.48421 0.12014 0.0
C876 C 0.46272 0.49038 0.10581 0.0
C877 C 0.48833 0.51133 0.07048 0.0
C878 C 0.46094 0.5054 0.10944 0.0
C879 C 0.44433 0.50342 0.11454 0.0
C880 C 0.42922 0.48635 0.11634 0.0
C881 C 0.43088 0.47137 0.11163 0.0
C882 C 0.44749 0.47337 0.10649 0.0
H883 H 0.49715 0.51409 0.05638 0.0
H884 H 0.47428 0.50267 0.06539 0.0
H885 H 0.48994 0.52422 0.07607 0.0
H886 H 0.47254 0.51864 0.10946 0.0
H887 H 0.44354 0.51524 0.1181 0.0
H888 H 0.07622 0.55932 0.11213 0.0
H889 H 0.05284 0.52894 0.10361 0.0
H890 H 0.01304 0.54457 0.11078 0.0
H891 H 0.03627 0.57497 0.11895 0.0
H892 H 0.02702 0.50844 0.13227 0.0
H893 H 0.99547 0.51357 0.05763 0.0
H894 H 0.01713 0.53094 0.06639 0.0
H895 H 0.99721 0.52922 0.07764 0.0
C896 C 0.06253 0.5564 0.11141 0.0
C897 C 0.0581 0.56955 0.11637 0.0
C898 C 0.04919 0.53903 0.10653 0.0
C899 C 0.03121 0.53451 0.10635 0.0
C900 C 0.02683 0.54781 0.11035 0.0
H901 H 0.92871 0.44281 0.12215 0.0
H902 H 0.95426 0.47205 0.11399 0.0
C903 C 0.04015 0.56518 0.1152 0.0
C904 C 0.01694 0.51559 0.10479 0.0
H905 H 0.97817 0.48724 0.07893 0.0
C906 C 0.01651 0.50371 0.12036 0.0
C907 C 0.00318 0.5095 0.08934 0.0
C908 C 0.00333 0.52144 0.07168 0.0
C909 C 0.00231 0.48613 0.12153 0.0
C910 C 0.98831 0.48014 0.10642 0.0
C911 C 0.98894 0.49186 0.09046 0.0
C912 C 0.97236 0.46215 0.10801 0.0
C913 C 0.00201 0.47439 0.13959 0.0
C914 C 0.9739 0.44682 0.10649 0.0
C915 C 0.95935 0.43008 0.11129 0.0
C916 C 0.94297 0.42839 0.11752 0.0
C917 C 0.94116 0.44364 0.11754 0.0
C918 C 0.95574 0.46038 0.11284 0.0
H919 H 0.01176 0.48217 0.15236 0.0
H920 H 0.98853 0.46696 0.14687 0.0
H921 H 0.00546 0.46454 0.13323 0.0
H922 H 0.98653 0.44788 0.10237 0.0
H923 H 0.96113 0.41857 0.11087 0.0
H924 H 0.03619 0.45923 0.37601 0.0
H925 H 0.01247 0.46592 0.38342 0.0
H926 H 0.05167 0.52095 0.39489 0.0
H927 H 0.07553 0.51449 0.38704 0.0
H928 H 0.00334 0.48151 0.41739 0.0
H929 H 0.02323 0.52316 0.34372 0.0
H930 H 0.03175 0.50851 0.35008 0.0
H931 H 0.0405 0.52964 0.36339 0.0
C932 C 0.03981 0.47271 0.38044 0.0
C933 C 0.05775 0.48641 0.38054 0.0
C934 C 0.02622 0.4765 0.38473 0.0
C935 C 0.03031 0.494 0.38925 0.0
C936 C 0.04823 0.50742 0.39099 0.0
H937 H 0.96102 0.53971 0.38234 0.0
H938 H 0.98583 0.5352 0.39189 0.0
C939 C 0.06185 0.50369 0.38657 0.0
C940 C 0.01585 0.4984 0.39009 0.0
H941 H 0.99906 0.521 0.36311 0.0
C942 C 0.00245 0.49025 0.40564 0.0
C943 C 0.01468 0.50972 0.37464 0.0
C944 C 0.0282 0.51817 0.35688 0.0
C945 C 0.98784 0.49312 0.40612 0.0
C946 C 0.98655 0.50421 0.39045 0.0
C947 C 0.00015 0.51261 0.3752 0.0
C948 C 0.97078 0.50652 0.38849 0.0
C949 C 0.97395 0.48427 0.42335 0.0
C950 C 0.95396 0.49185 0.38386 0.0
C951 C 0.93972 0.49437 0.3784 0.0
C952 C 0.94212 0.51165 0.37725 0.0
C953 C 0.95874 0.52624 0.38295 0.0
C954 C 0.97294 0.52369 0.38845 0.0
H955 H 0.97941 0.48085 0.43752 0.0
H956 H 0.96865 0.49298 0.42858 0.0
H957 H 0.96271 0.47172 0.41696 0.0
H958 H 0.95207 0.47851 0.38335 0.0
H959 H 0.92711 0.48286 0.37406 0.0
H960 H 0.4198 0.96154 0.38398 0.0
H961 H 0.44938 0.98657 0.39227 0.0
H962 H 0.47225 0.95289 0.38247 0.0
H963 H 0.44269 0.92769 0.37458 0.0
H964 H 0.48789 0.9772 0.41679 0.0
H965 H 0.48397 0.01041 0.34242 0.0
H966 H 0.4664 0.00493 0.36137 0.0
H967 H 0.46823 0.98741 0.34836 0.0
C968 C 0.43108 0.95938 0.3839 0.0
C969 C 0.42894 0.94269 0.37829 0.0
C970 C 0.44797 0.97371 0.38859 0.0
C971 C 0.46303 0.97166 0.38751 0.0
C972 C 0.46079 0.95476 0.38327 0.0
H973 H 0.57597 0.03394 0.37635 0.0
H974 H 0.54546 0.01105 0.38467 0.0
C975 C 0.44389 0.94038 0.37873 0.0
C976 C 0.4812 0.98734 0.38897 0.0
H977 H 0.51011 0.02562 0.36279 0.0
C978 C 0.49274 0.98787 0.40511 0.0
C979 C 0.48748 0.00121 0.37364 0.0
C980 C 0.47597 0.00098 0.35535 0.0
C981 C 0.51048 0.00188 0.40622 0.0
C982 C 0.51684 0.01552 0.39061 0.0
C983 C 0.50516 0.0152 0.37483 0.0
C984 C 0.53584 0.02957 0.38912 0.0
C985 C 0.52226 0.00194 0.42403 0.0
C986 C 0.54062 0.04762 0.38896 0.0
C987 C 0.55805 0.06076 0.38402 0.0
C988 C 0.57098 0.05606 0.37897 0.0
C989 C 0.56635 0.03803 0.38015 0.0
C990 C 0.54892 0.02491 0.38509 0.0
H991 H 0.51428 0.99411 0.43803 0.0
H992 H 0.53002 0.99576 0.41819 0.0
H993 H 0.53179 0.01573 0.42934 0.0
H994 H 0.53069 0.05148 0.39189 0.0
H995 H 0.56118 0.07452 0.38329 0.0
H996 H 0.4612 0.42152 0.38388 0.0
H997 H 0.46499 0.45085 0.39184 0.0
H998 H 0.52165 0.47492 0.3821 0.0
H999 H 0.51805 0.44561 0.37438 0.0
H1000 H 0.51146 0.49009 0.41686 0.0
H1001 H 0.47595 0.48505 0.34066 0.0
H1002 H 0.464 0.46718 0.35933 0.0
H1003 H 0.48408 0.47009 0.34719 0.0
C1004 C 0.47451 0.433 0.38378 0.0
C1005 C 0.4893 0.43126 0.37816 0.0
C1006 C 0.47664 0.44975 0.38829 0.0
C1007 C 0.49354 0.46506 0.38713 0.0
C1008 C 0.50847 0.46325 0.38297 0.0
H1009 H 0.54004 0.57833 0.37829 0.0
H1010 H 0.53385 0.5482 0.38628 0.0
C1011 C 0.50638 0.44649 0.37853 0.0
C1012 C 0.49549 0.48302 0.38825 0.0
H1013 H 0.48544 0.511 0.36102 0.0
C1014 C 0.5057 0.49467 0.40476 0.0
C1015 C 0.48798 0.48894 0.37239 0.0
C1016 C 0.47751 0.47726 0.35377 0.0
C1017 C 0.50859 0.51213 0.4058 0.0
C1018 C 0.50134 0.51813 0.3897 0.0
C1019 C 0.49088 0.50635 0.37345 0.0
C1020 C 0.50526 0.53685 0.38837 0.0
C1021 C 0.51931 0.52395 0.42416 0.0
C1022 C 0.49126 0.54056 0.38697 0.0
C1023 C 0.49475 0.55777 0.38215 0.0
C1024 C 0.5123 0.57158 0.37853 0.0
C1025 C 0.52637 0.56802 0.38102 0.0
C1026 C 0.52286 0.55079 0.38576 0.0
H1027 H 0.51895 0.51598 0.43828 0.0
H1028 H 0.53342 0.53221 0.41912 0.0
H1029 H 0.51433 0.53301 0.42902 0.0
H1030 H 0.47757 0.52998 0.38883 0.0
H1031 H 0.48361 0.56006 0.38042 0.0
H1032 H 0.45928 0.03822 0.88559 0.0
H1033 H 0.46401 0.01324 0.8933 0.0
H1034 H 0.52068 0.0477 0.88555 0.0
H1035 H 0.51612 0.07281 0.87814 0.0
H1036 H 0.47833 0.00097 0.8637 0.0
H1037 H 0.51861 0.01888 0.93792 0.0
H1038 H 0.50642 0.02981 0.92986 0.0
H1039 H 0.52774 0.03619 0.91811 0.0
C1040 C 0.4728 0.0406 0.88601 0.0
C1041 C 0.48732 0.0575 0.88109 0.0
C1042 C 0.47547 0.0263 0.89044 0.0
C1043 C 0.4927 0.02862 0.89018 0.0
C1044 C 0.5073 0.04566 0.88629 0.0
H1045 H 0.54136 0.96481 0.87275 0.0
H1046 H 0.53414 0.98806 0.88088 0.0
C1047 C 0.50465 0.05999 0.88191 0.0
C1048 C 0.49521 0.0129 0.89115 0.0
H1049 H 0.51848 0.99588 0.91627 0.0
C1050 C 0.48687 0.9997 0.87542 0.0
C1051 C 0.50646 0.01135 0.90635 0.0
C1052 C 0.51519 0.02473 0.92414 0.0
C1053 C 0.49 0.98535 0.87393 0.0
C1054 C 0.50154 0.98397 0.88885 0.0
C1055 C 0.5096 0.99696 0.9049 0.0
C1056 C 0.50622 0.96975 0.88703 0.0
C1057 C 0.48156 0.97224 0.85576 0.0
C1058 C 0.49305 0.95172 0.88859 0.0
C1059 C 0.4971 0.93837 0.88382 0.0
C1060 C 0.51444 0.94284 0.87755 0.0
C1061 C 0.52785 0.96089 0.87738 0.0
C1062 C 0.52376 0.97422 0.88207 0.0
H1063 H 0.47624 0.97735 0.84313 0.0
H1064 H 0.49133 0.96913 0.84833 0.0
H1065 H 0.47032 0.95965 0.86206 0.0
H1066 H 0.4795 0.94799 0.89279 0.0
H1067 H 0.4865 0.92459 0.88433 0.0
H1068 H 0.42387 0.46175 0.87874 0.0
H1069 H 0.4544 0.46893 0.88618 0.0
H1070 H 0.4707 0.52471 0.89032 0.0
H1071 H 0.44022 0.5177 0.88252 0.0
H1072 H 0.49007 0.51799 0.86148 0.0
H1073 H 0.48715 0.48431 0.93791 0.0
H1074 H 0.47088 0.46972 0.91886 0.0
H1075 H 0.4696 0.4884 0.92935 0.0
C1076 C 0.43385 0.47551 0.88171 0.0
C1077 C 0.42963 0.48917 0.87985 0.0
C1078 C 0.4513 0.47958 0.88614 0.0
C1079 C 0.46482 0.49734 0.88902 0.0
C1080 C 0.46045 0.51091 0.88825 0.0
H1081 H 0.58058 0.54363 0.88089 0.0
H1082 H 0.5513 0.53964 0.88972 0.0
C1083 C 0.44301 0.50686 0.88377 0.0
C1084 C 0.48375 0.50192 0.88992 0.0
H1085 H 0.51292 0.49268 0.91586 0.0
C1086 C 0.49516 0.51272 0.87359 0.0
C1087 C 0.4903 0.4949 0.90563 0.0
C1088 C 0.47889 0.48382 0.92405 0.0
C1089 C 0.51272 0.51612 0.87201 0.0
C1090 C 0.51919 0.5088 0.88745 0.0
C1091 C 0.50793 0.49831 0.90409 0.0
C1092 C 0.53724 0.51102 0.88561 0.0
C1093 C 0.52393 0.52685 0.85323 0.0
C1094 C 0.53916 0.49614 0.88151 0.0
C1095 C 0.55588 0.49835 0.87662 0.0
C1096 C 0.57099 0.5155 0.87571 0.0
C1097 C 0.56919 0.53027 0.88119 0.0
C1098 C 0.55246 0.52803 0.88618 0.0
H1099 H 0.51576 0.52817 0.84043 0.0
H1100 H 0.53383 0.54044 0.85874 0.0
H1101 H 0.5313 0.52062 0.84623 0.0
H1102 H 0.52758 0.48289 0.88109 0.0
H1103 H 0.55681 0.48668 0.8726 0.0
H1104 H 0.92827 0.44439 0.87684 0.0
H1105 H 0.95464 0.47309 0.88489 0.0
H1106 H 0.98474 0.44671 0.8973 0.0
H1107 H 0.95852 0.41794 0.88897 0.0
H1108 H 0.97952 0.48796 0.91991 0.0
H1109 H 0.00996 0.4794 0.84561 0.0
H1110 H 0.98665 0.46536 0.85179 0.0
H1111 H 0.00307 0.46201 0.86521 0.0
C1112 C 0.94039 0.44462 0.88168 0.0
C1113 C 0.94139 0.42891 0.88187 0.0
C1114 C 0.95544 0.46104 0.88632 0.0
C1115 C 0.9717 0.46202 0.89126 0.0
C1116 C 0.97238 0.44624 0.89313 0.0
H1117 H 0.07686 0.55708 0.87999 0.0
H1118 H 0.05356 0.52722 0.89062 0.0
C1119 C 0.95736 0.42981 0.88841 0.0
C1120 C 0.98821 0.47962 0.89218 0.0
H1121 H 0.02637 0.50615 0.86436 0.0
C1122 C 0.98988 0.49191 0.90793 0.0
C1123 C 0.00168 0.48472 0.87649 0.0
C1124 C 0.00029 0.47228 0.85869 0.0
C1125 C 0.00459 0.50931 0.90821 0.0
C1126 C 0.01774 0.51458 0.89207 0.0
C1127 C 0.01633 0.50207 0.87679 0.0
C1128 C 0.03221 0.53331 0.88936 0.0
C1129 C 0.00585 0.5219 0.92569 0.0
C1130 C 0.02799 0.54673 0.88546 0.0
C1131 C 0.04126 0.56379 0.87942 0.0
C1132 C 0.05899 0.56772 0.8769 0.0
C1133 C 0.06333 0.55449 0.88173 0.0
C1134 C 0.05003 0.53742 0.88783 0.0
H1135 H 0.99862 0.51452 0.9403 0.0
H1136 H 0.01993 0.53137 0.92997 0.0
H1137 H 0.99962 0.52967 0.92006 0.0
H1138 H 0.01429 0.54379 0.88602 0.0
H1139 H 0.03744 0.57366 0.87583 0.0
H1140 H 0.93139 0.498 0.58685 0.0
H1141 H 0.95548 0.49231 0.57674 0.0
H1142 H 0.98557 0.52178 0.63217 0.0
H1143 H 0.96226 0.52847 0.64134 0.0
H1144 H 0.00705 0.52925 0.60107 0.0
H1145 H 0.96385 0.45559 0.60227 0.0
H1146 H 0.95756 0.46647 0.58259 0.0
H1147 H 0.9559 0.47026 0.61063 0.0
C1148 C 0.94324 0.50334 0.59672 0.0
C1149 C 0.94495 0.51361 0.61491 0.0
C1150 C 0.95693 0.49995 0.59106 0.0
C1151 C 0.97222 0.50623 0.60396 0.0
C1152 C 0.97397 0.51677 0.6219 0.0
H1153 H 0.03826 0.46402 0.6337 0.0
H1154 H 0.01461 0.47053 0.62603 0.0
C1155 C 0.96059 0.52057 0.62717 0.0
C1156 C 0.9864 0.50172 0.59946 0.0
H1157 H 0.99414 0.46689 0.59492 0.0
C1158 C 0.00422 0.5156 0.59965 0.0
C1159 C 0.98273 0.4839 0.59756 0.0
C1160 C 0.964 0.46818 0.59843 0.0
C1161 C 0.01844 0.51218 0.5995 0.0
C1162 C 0.01478 0.49434 0.59784 0.0
C1163 C 0.99697 0.48055 0.59618 0.0
C1164 C 0.02887 0.48945 0.60067 0.0
C1165 C 0.03709 0.52767 0.60265 0.0
C1166 C 0.04472 0.49752 0.58864 0.0
C1167 C 0.05859 0.4942 0.59351 0.0
C1168 C 0.05654 0.48223 0.60992 0.0
C1169 C 0.04025 0.47328 0.62091 0.0
C1170 C 0.02666 0.47699 0.61649 0.0
H1171 H 0.03704 0.53963 0.60898 0.0
H1172 H 0.04476 0.52416 0.61392 0.0
H1173 H 0.04412 0.53135 0.58703 0.0
H1174 H 0.04655 0.50668 0.57582 0.0
H1175 H 0.07095 0.5011 0.58461 0.0
H1176 H 0.57986 0.0385 0.61243 0.0
H1177 H 0.55016 0.01342 0.60494 0.0
H1178 H 0.52794 0.04797 0.61147 0.0
H1179 H 0.55759 0.07318 0.61859 0.0
H1180 H 0.52398 0.00167 0.63465 0.0
H1181 H 0.50057 0.01808 0.56022 0.0
H1182 H 0.52377 0.02931 0.56794 0.0
H1183 H 0.50884 0.03579 0.57951 0.0
C1184 C 0.56872 0.04087 0.61175 0.0
C1185 C 0.57107 0.05782 0.61629 0.0
C1186 C 0.55176 0.02651 0.60745 0.0
C1187 C 0.53684 0.02883 0.60749 0.0
C1188 C 0.53928 0.04592 0.61089 0.0
H1189 H 0.42489 0.96592 0.62837 0.0
H1190 H 0.45527 0.98886 0.61925 0.0
C1191 C 0.55626 0.06032 0.61512 0.0
C1192 C 0.51862 0.01308 0.607 0.0
H1193 H 0.47792 0.99571 0.58282 0.0
C1194 C 0.51399 0.00019 0.62308 0.0
C1195 C 0.50559 0.01127 0.59199 0.0
C1196 C 0.50997 0.02427 0.57381 0.0
C1197 C 0.49652 0.98593 0.62513 0.0
C1198 C 0.48337 0.98433 0.61045 0.0
C1199 C 0.48806 0.99697 0.59402 0.0
C1200 C 0.46448 0.97026 0.61291 0.0
C1201 C 0.49212 0.97317 0.64363 0.0
C1202 C 0.45945 0.95218 0.61163 0.0
C1203 C 0.44211 0.93901 0.61695 0.0
C1204 C 0.4295 0.94373 0.62354 0.0
C1205 C 0.43431 0.96183 0.62352 0.0
C1206 C 0.45165 0.97497 0.61825 0.0
H1207 H 0.50282 0.9784 0.65591 0.0
H1208 H 0.47946 0.97038 0.65141 0.0
H1209 H 0.49044 0.96037 0.63758 0.0
H1210 H 0.4691 0.94827 0.60719 0.0
H1211 H 0.4388 0.92519 0.6166 0.0
H1212 H 0.51471 0.43957 0.61318 0.0
H1213 H 0.52154 0.46977 0.60383 0.0
H1214 H 0.46687 0.45516 0.61562 0.0
H1215 H 0.45982 0.42488 0.62462 0.0
H1216 H 0.48212 0.47778 0.57961 0.0
H1217 H 0.52499 0.50351 0.65207 0.0
H1218 H 0.53088 0.49142 0.63359 0.0
H1219 H 0.51002 0.48006 0.64766 0.0
C1220 C 0.50408 0.4427 0.6135 0.0
C1221 C 0.48678 0.42988 0.61995 0.0
C1222 C 0.50803 0.45999 0.60822 0.0
C1223 C 0.49479 0.46478 0.60945 0.0
C1224 C 0.4773 0.45175 0.61467 0.0
H1225 H 0.48299 0.5566 0.61604 0.0
H1226 H 0.47913 0.52721 0.60876 0.0
C1227 C 0.47332 0.43446 0.61987 0.0
C1228 C 0.49933 0.4836 0.60693 0.0
H1229 H 0.52232 0.52437 0.63084 0.0
C1230 C 0.49102 0.48803 0.59068 0.0
C1231 C 0.51091 0.49691 0.62145 0.0
C1232 C 0.51963 0.49279 0.6398 0.0
C1233 C 0.49391 0.50544 0.58866 0.0
C1234 C 0.50515 0.51863 0.6035 0.0
C1235 C 0.51379 0.51427 0.61939 0.0
C1236 C 0.50722 0.53669 0.60408 0.0
C1237 C 0.48487 0.50954 0.57071 0.0
C1238 C 0.52428 0.55185 0.60368 0.0
C1239 C 0.52656 0.56869 0.60805 0.0
C1240 C 0.5118 0.57065 0.61304 0.0
C1241 C 0.49464 0.55558 0.61223 0.0
C1242 C 0.49239 0.53874 0.60791 0.0
H1243 H 0.48163 0.50011 0.55714 0.0
H1244 H 0.47219 0.50817 0.57668 0.0
H1245 H 0.49335 0.52335 0.56472 0.0
H1246 H 0.53592 0.55056 0.60085 0.0
H1247 H 0.53996 0.58003 0.60846 0.0
H1248 H 0.43067 0.26184 0.30747 0.0
H1249 H 0.43462 0.23889 0.28977 0.0
H1250 H 0.47974 0.27939 0.25511 0.0
H1251 H 0.47565 0.3025 0.27237 0.0
H1252 H 0.43511 0.23754 0.24095 0.0
H1253 H 0.49467 0.2426 0.28189 0.0
H1254 H 0.48026 0.24913 0.29509 0.0
H1255 H 0.49471 0.26266 0.27401 0.0
C1256 C 0.44159 0.2659 0.29629 0.0
C1257 C 0.45302 0.28401 0.29159 0.0
C1258 C 0.44384 0.25279 0.28626 0.0
C1259 C 0.45757 0.25751 0.27136 0.0
C1260 C 0.46927 0.27556 0.26689 0.0
H1261 H 0.47545 0.18254 0.19505 0.0
H1262 H 0.47982 0.21013 0.21176 0.0
C1263 C 0.467 0.28874 0.2769 0.0
C1264 C 0.45846 0.24336 0.25923 0.0
H1265 H 0.4803 0.21979 0.25624 0.0
C1266 C 0.44507 0.23374 0.24413 0.0
C1267 C 0.4716 0.23864 0.26332 0.0
C1268 C 0.48617 0.2487 0.27948 0.0
C1269 C 0.44417 0.21914 0.23336 0.0
C1270 C 0.45676 0.2138 0.23821 0.0
C1271 C 0.47061 0.22387 0.25269 0.0
C1272 C 0.45498 0.19717 0.22932 0.0
C1273 C 0.42964 0.20945 0.21698 0.0
C1274 C 0.43981 0.18078 0.23411 0.0
C1275 C 0.43735 0.16511 0.22474 0.0
C1276 C 0.45017 0.16548 0.21069 0.0
C1277 C 0.4656 0.18183 0.20629 0.0
C1278 C 0.46804 0.19758 0.21566 0.0
H1279 H 0.42454 0.21806 0.21068 0.0
H1280 H 0.43447 0.20479 0.20334 0.0
H1281 H 0.41833 0.19764 0.22459 0.0
H1282 H 0.42971 0.18017 0.24488 0.0
H1283 H 0.42535 0.15268 0.22838 0.0
H1284 H 0.28961 0.47695 0.18575 0.0
H1285 H 0.26861 0.4842 0.20293 0.0
H1286 H 0.25877 0.44561 0.25238 0.0
H1287 H 0.28009 0.43875 0.23577 0.0
H1288 H 0.23297 0.46097 0.20986 0.0
H1289 H 0.26647 0.4885 0.28718 0.0
H1290 H 0.27802 0.48631 0.26435 0.0
H1291 H 0.26494 0.46749 0.28151 0.0
C1292 C 0.28342 0.47043 0.20063 0.0
C1293 C 0.28681 0.45756 0.20966 0.0
C1294 C 0.27129 0.47447 0.21032 0.0
C1295 C 0.26247 0.46576 0.22921 0.0
C1296 C 0.26581 0.45287 0.23816 0.0
H1297 H 0.1716 0.43492 0.30343 0.0
H1298 H 0.19985 0.44211 0.28643 0.0
C1299 C 0.27786 0.44883 0.22851 0.0
C1300 C 0.24859 0.46882 0.23877 0.0
H1301 H 0.23446 0.47622 0.28668 0.0
C1302 C 0.23345 0.46473 0.2265 0.0
C1303 C 0.2493 0.47381 0.26047 0.0
C1304 C 0.26566 0.47946 0.27406 0.0
C1305 C 0.21846 0.46424 0.23579 0.0
C1306 C 0.21877 0.46809 0.25783 0.0
C1307 C 0.23427 0.47318 0.2698 0.0
C1308 C 0.20249 0.46496 0.26919 0.0
C1309 C 0.202 0.45854 0.22235 0.0
C1310 C 0.19483 0.47563 0.26533 0.0
C1311 C 0.17868 0.47156 0.27507 0.0
C1312 C 0.17005 0.4568 0.28883 0.0
C1313 C 0.17799 0.44639 0.29294 0.0
C1314 C 0.19412 0.45051 0.28332 0.0
H1315 H 0.20329 0.45407 0.20611 0.0
H1316 H 0.19017 0.44752 0.23034 0.0
H1317 H 0.19957 0.46989 0.22058 0.0
H1318 H 0.20114 0.48685 0.25446 0.0
H1319 H 0.17267 0.47955 0.27117 0.0
H1320 H 0.83043 0.30087 0.22802 0.0
H1321 H 0.80432 0.2783 0.24759 0.0
H1322 H 0.79849 0.23845 0.20181 0.0
H1323 H 0.82473 0.26085 0.18248 0.0
H1324 H 0.7688 0.25452 0.23745 0.0
H1325 H 0.80502 0.21891 0.25811 0.0
H1326 H 0.81597 0.2409 0.24646 0.0
H1327 H 0.80378 0.22154 0.22979 0.0
C1328 C 0.82332 0.28738 0.22188 0.0
C1329 C 0.82952 0.28256 0.20374 0.0
C1330 C 0.80848 0.2745 0.23312 0.0
C1331 C 0.7997 0.25666 0.22635 0.0
C1332 C 0.80532 0.25207 0.20755 0.0
H1333 H 0.69991 0.16662 0.26766 0.0
H1334 H 0.72279 0.19376 0.25015 0.0
C1335 C 0.82024 0.26486 0.19649 0.0
C1336 C 0.78541 0.24261 0.23958 0.0
H1337 H 0.77398 0.20374 0.26551 0.0
C1338 C 0.76993 0.24345 0.24374 0.0
C1339 C 0.78711 0.22842 0.24814 0.0
C1340 C 0.80394 0.22745 0.24561 0.0
C1341 C 0.75583 0.23013 0.25574 0.0
C1342 C 0.75718 0.21546 0.26333 0.0
C1343 C 0.77287 0.21491 0.25957 0.0
C1344 C 0.74255 0.20031 0.27502 0.0
C1345 C 0.7398 0.23206 0.26039 0.0
C1346 C 0.74607 0.19484 0.29469 0.0
C1347 C 0.73315 0.1792 0.30446 0.0
C1348 C 0.71638 0.16889 0.29492 0.0
C1349 C 0.71261 0.1746 0.27559 0.0
C1350 C 0.72565 0.19014 0.26562 0.0
H1351 H 0.74318 0.24622 0.25963 0.0
H1352 H 0.72938 0.22457 0.24819 0.0
H1353 H 0.73415 0.22667 0.27643 0.0
H1354 H 0.75903 0.20242 0.30219 0.0
H1355 H 0.73636 0.175 0.31933 0.0
H1356 H 0.56833 0.84506 0.22967 0.0
H1357 H 0.56259 0.81776 0.24809 0.0
H1358 H 0.51514 0.78743 0.21019 0.0
H1359 H 0.52111 0.81473 0.19127 0.0
H1360 H 0.53177 0.79258 0.27187 0.0
H1361 H 0.545 0.76286 0.19999 0.0
H1362 H 0.5515 0.78615 0.20137 0.0
H1363 H 0.52857 0.76963 0.19722 0.0
C1364 C 0.55662 0.83257 0.22536 0.0
C1365 C 0.54499 0.832 0.20934 0.0
C1366 C 0.55333 0.81703 0.23593 0.0
C1367 C 0.53848 0.80061 0.23044 0.0
C1368 C 0.52671 0.79999 0.21457 0.0
H1369 H 0.5227 0.69748 0.27463 0.0
H1370 H 0.51607 0.71942 0.2589 0.0
C1371 C 0.53001 0.81559 0.20399 0.0
C1372 C 0.53588 0.78419 0.24098 0.0
H1373 H 0.53922 0.74709 0.23227 0.0
C1374 C 0.53318 0.7825 0.2632 0.0
C1375 C 0.53763 0.77105 0.22957 0.0
C1376 C 0.54095 0.77246 0.20574 0.0
C1377 C 0.53273 0.76827 0.27445 0.0
C1378 C 0.53536 0.75561 0.26319 0.0
C1379 C 0.53721 0.75683 0.24084 0.0
C1380 C 0.53803 0.74209 0.27442 0.0
C1381 C 0.52972 0.76705 0.29832 0.0
C1382 C 0.55258 0.74758 0.28831 0.0
C1383 C 0.55633 0.7351 0.29738 0.0
C1384 C 0.54558 0.71688 0.29277 0.0
C1385 C 0.53088 0.71135 0.27903 0.0
C1386 C 0.52718 0.72388 0.26988 0.0
H1387 H 0.52239 0.77394 0.30329 0.0
H1388 H 0.52213 0.75296 0.30369 0.0
H1389 H 0.5428 0.77362 0.3066 0.0
H1390 H 0.5614 0.76159 0.2916 0.0
H1391 H 0.56783 0.73975 0.30775 0.0
H1392 H 0.73928 0.57243 0.18852 0.0
H1393 H 0.76222 0.56822 0.20579 0.0
H1394 H 0.72158 0.5205 0.23636 0.0
H1395 H 0.69849 0.52478 0.21944 0.0
H1396 H 0.7637 0.56629 0.25252 0.0
H1397 H 0.75856 0.507 0.21088 0.0
H1398 H 0.75088 0.52089 0.19873 0.0
H1399 H 0.73831 0.50594 0.21996 0.0
C1400 C 0.73521 0.56088 0.19866 0.0
C1401 C 0.71707 0.54879 0.20234 0.0
C1402 C 0.74831 0.55848 0.20846 0.0
C1403 C 0.74355 0.54395 0.22212 0.0
C1404 C 0.72548 0.53159 0.22549 0.0
H1405 H 0.81594 0.52407 0.30083 0.0
H1406 H 0.78898 0.5204 0.28309 0.0
C1407 C 0.71231 0.534 0.21569 0.0
C1408 C 0.75761 0.54285 0.23426 0.0
H1409 H 0.78033 0.52017 0.23798 0.0
C1410 C 0.76728 0.55615 0.24944 0.0
C1411 C 0.76204 0.52947 0.23034 0.0
C1412 C 0.75202 0.51501 0.21404 0.0
C1413 C 0.7816 0.5567 0.26052 0.0
C1414 C 0.78658 0.54381 0.25593 0.0
C1415 C 0.7765 0.53008 0.24132 0.0
C1416 C 0.80284 0.5451 0.26535 0.0
C1417 C 0.79133 0.57115 0.27697 0.0
C1418 C 0.81952 0.55996 0.26081 0.0
C1419 C 0.83483 0.56202 0.27078 0.0
C1420 C 0.83379 0.54911 0.28519 0.0
C1421 C 0.81715 0.53398 0.28933 0.0
C1422 C 0.80176 0.53193 0.27936 0.0
H1423 H 0.78296 0.57665 0.28288 0.0
H1424 H 0.79548 0.56607 0.29085 0.0
H1425 H 0.80347 0.58222 0.26958 0.0
H1426 H 0.82064 0.57014 0.24981 0.0
H1427 H 0.84751 0.57381 0.26733 0.0
H1428 H 0.26185 0.82145 0.32007 0.0
H1429 H 0.23922 0.79464 0.30186 0.0
H1430 H 0.2761 0.80413 0.25033 0.0
H1431 H 0.29892 0.8307 0.26885 0.0
H1432 H 0.22502 0.79457 0.26469 0.0
H1433 H 0.25493 0.75126 0.25838 0.0
H1434 H 0.2638 0.7704 0.27587 0.0
H1435 H 0.26909 0.77317 0.24777 0.0
C1436 C 0.26521 0.81756 0.30507 0.0
C1437 C 0.28216 0.82796 0.29598 0.0
C1438 C 0.2523 0.80227 0.29469 0.0
C1439 C 0.25601 0.79721 0.27485 0.0
C1440 C 0.27308 0.80744 0.2659 0.0
H1441 H 0.17406 0.73768 0.18098 0.0
H1442 H 0.20033 0.75997 0.20041 0.0
C1443 C 0.2861 0.82264 0.27646 0.0
C1444 C 0.24144 0.78243 0.26262 0.0
H1445 H 0.22942 0.74344 0.23633 0.0
C1446 C 0.22596 0.78334 0.25865 0.0
C1447 C 0.24259 0.76769 0.25486 0.0
C1448 C 0.25842 0.76544 0.25961 0.0
C1449 C 0.21171 0.77007 0.24696 0.0
C1450 C 0.21317 0.75574 0.23838 0.0
C1451 C 0.22848 0.7546 0.24265 0.0
C1452 C 0.19874 0.74177 0.22519 0.0
C1453 C 0.1951 0.77141 0.24421 0.0
C1454 C 0.18969 0.72398 0.23212 0.0
C1455 C 0.17482 0.71117 0.22086 0.0
C1456 C 0.16885 0.71599 0.20249 0.0
C1457 C 0.17837 0.73365 0.19514 0.0
C1458 C 0.19331 0.74639 0.20626 0.0
H1459 H 0.19418 0.78014 0.25657 0.0
H1460 H 0.19542 0.77726 0.2283 0.0
H1461 H 0.18292 0.75808 0.24512 0.0
H1462 H 0.19368 0.72017 0.24671 0.0
H1463 H 0.16751 0.69774 0.22714 0.0
H1464 H 0.52423 0.8273 0.77125 0.0
H1465 H 0.51756 0.79901 0.75465 0.0
H1466 H 0.55837 0.79794 0.79309 0.0
H1467 H 0.56481 0.82595 0.81006 0.0
H1468 H 0.54223 0.79408 0.73128 0.0
H1469 H 0.51631 0.74707 0.79948 0.0
H1470 H 0.51729 0.76839 0.79977 0.0
H1471 H 0.53689 0.76697 0.80553 0.0
C1472 C 0.53137 0.82074 0.77666 0.0
C1473 C 0.5448 0.82863 0.79228 0.0
C1474 C 0.52765 0.80467 0.76703 0.0
C1475 C 0.53723 0.79622 0.77295 0.0
C1476 C 0.55051 0.804 0.78868 0.0
H1477 H 0.56506 0.7205 0.73315 0.0
H1478 H 0.55919 0.74229 0.75068 0.0
C1479 C 0.55428 0.82007 0.79822 0.0
C1480 C 0.53466 0.78019 0.76141 0.0
H1481 H 0.52745 0.73814 0.76946 0.0
C1482 C 0.53864 0.78169 0.73948 0.0
C1483 C 0.52996 0.76409 0.7722 0.0
C1484 C 0.5247 0.76143 0.7955 0.0
C1485 C 0.53916 0.7679 0.72832 0.0
C1486 C 0.53528 0.75211 0.73937 0.0
C1487 C 0.53047 0.75029 0.76106 0.0
C1488 C 0.53781 0.7381 0.72926 0.0
C1489 C 0.54484 0.77074 0.70514 0.0
C1490 C 0.52758 0.7284 0.71154 0.0
C1491 C 0.53098 0.71599 0.70144 0.0
C1492 C 0.54448 0.71296 0.70912 0.0
C1493 C 0.55451 0.72252 0.72701 0.0
C1494 C 0.55112 0.7349 0.73707 0.0
H1495 H 0.55045 0.78485 0.70013 0.0
H1496 H 0.55497 0.76671 0.7022 0.0
H1497 H 0.53312 0.76237 0.69488 0.0
H1498 H 0.51718 0.73062 0.70535 0.0
H1499 H 0.52342 0.70916 0.68729 0.0
H1500 H 0.81639 0.52162 0.69205 0.0
H1501 H 0.78936 0.5169 0.71049 0.0
H1502 H 0.81864 0.56975 0.73735 0.0
H1503 H 0.84574 0.57432 0.71953 0.0
H1504 H 0.79643 0.54314 0.76707 0.0
H1505 H 0.76075 0.54102 0.69202 0.0
H1506 H 0.76883 0.52556 0.69377 0.0
H1507 H 0.7844 0.54906 0.69266 0.0
C1508 C 0.81712 0.53205 0.70229 0.0
C1509 C 0.83321 0.54821 0.70474 0.0
C1510 C 0.80164 0.52943 0.71255 0.0
C1511 C 0.80201 0.54302 0.72517 0.0
C1512 C 0.8181 0.55909 0.72772 0.0
H1513 H 0.72721 0.57231 0.76648 0.0
H1514 H 0.74976 0.56747 0.74919 0.0
C1515 C 0.83353 0.56171 0.71749 0.0
C1516 C 0.78566 0.54086 0.73543 0.0
H1517 H 0.74593 0.53847 0.72449 0.0
C1518 C 0.78527 0.5419 0.75782 0.0
C1519 C 0.77124 0.5394 0.72323 0.0
C1520 C 0.77127 0.53882 0.69908 0.0
C1521 C 0.77102 0.54202 0.76835 0.0
C1522 C 0.75672 0.5408 0.75613 0.0
C1523 C 0.75688 0.53926 0.73378 0.0
C1524 C 0.74236 0.54291 0.76602 0.0
C1525 C 0.7718 0.54429 0.79235 0.0
C1526 C 0.73063 0.53058 0.78106 0.0
C1527 C 0.71777 0.53337 0.79103 0.0
C1528 C 0.71634 0.5484 0.78588 0.0
C1529 C 0.72797 0.56057 0.77065 0.0
C1530 C 0.74079 0.55779 0.76071 0.0
H1531 H 0.78522 0.54832 0.79887 0.0
H1532 H 0.7682 0.55446 0.79702 0.0
H1533 H 0.76207 0.53147 0.79991 0.0
H1534 H 0.73158 0.51896 0.78527 0.0
H1535 H 0.7093 0.52406 0.80317 0.0
H1536 H 0.27452 0.84401 0.73213 0.0
H1537 H 0.25266 0.8164 0.7497 0.0
H1538 H 0.26933 0.78652 0.71024 0.0
H1539 H 0.29117 0.81422 0.69237 0.0
H1540 H 0.23182 0.77332 0.71141 0.0
H1541 H 0.26057 0.78487 0.79301 0.0
H1542 H 0.25905 0.80339 0.7826 0.0
H1543 H 0.27349 0.79683 0.76982 0.0
C1544 C 0.27366 0.83157 0.7274 0.0
C1545 C 0.28473 0.83123 0.71125 0.0
C1546 C 0.26128 0.81585 0.73753 0.0
C1547 C 0.25967 0.7995 0.73158 0.0
C1548 C 0.27061 0.79907 0.71529 0.0
H1549 H 0.17092 0.69479 0.77083 0.0
H1550 H 0.19933 0.71712 0.75528 0.0
C1551 C 0.28312 0.81486 0.70523 0.0
C1552 C 0.2456 0.78284 0.74139 0.0
H1553 H 0.22962 0.76283 0.78971 0.0
C1554 C 0.23145 0.77078 0.72846 0.0
C1555 C 0.24524 0.77965 0.76362 0.0
C1556 C 0.26048 0.79178 0.77807 0.0
C1557 C 0.21636 0.75615 0.73739 0.0
C1558 C 0.21565 0.7534 0.75979 0.0
C1559 C 0.2302 0.76501 0.77256 0.0
C1560 C 0.19931 0.73955 0.77047 0.0
C1561 C 0.20091 0.74438 0.72297 0.0
C1562 C 0.19021 0.74472 0.78469 0.0
C1563 C 0.17417 0.732 0.79389 0.0
C1564 C 0.16699 0.71382 0.78921 0.0
C1565 C 0.17631 0.70861 0.77527 0.0
C1566 C 0.19242 0.72138 0.76608 0.0
H1567 H 0.20222 0.75036 0.70686 0.0
H1568 H 0.20033 0.73139 0.7209 0.0
H1569 H 0.18811 0.7418 0.73016 0.0
H1570 H 0.19531 0.75869 0.78827 0.0
H1571 H 0.16728 0.73642 0.80453 0.0
H1572 H 0.43786 0.17545 0.81577 0.0
H1573 H 0.44165 0.20147 0.79595 0.0
H1574 H 0.47268 0.19305 0.74824 0.0
H1575 H 0.46909 0.16708 0.76818 0.0
H1576 H 0.48616 0.22926 0.75817 0.0
H1577 H 0.41374 0.19479 0.7408 0.0
H1578 H 0.4186 0.19621 0.7689 0.0
H1579 H 0.42457 0.18335 0.7517 0.0
C1580 C 0.44568 0.17929 0.80119 0.0
C1581 C 0.45327 0.16934 0.79357 0.0
C1582 C 0.44778 0.1941 0.78986 0.0
C1583 C 0.45718 0.19898 0.77045 0.0
C1584 C 0.46537 0.18949 0.7632 0.0
H1585 H 0.43908 0.26295 0.67809 0.0
H1586 H 0.44338 0.23996 0.69514 0.0
C1587 C 0.4634 0.17473 0.77466 0.0
C1588 C 0.45754 0.21334 0.75723 0.0
H1589 H 0.43026 0.22564 0.73253 0.0
C1590 C 0.47398 0.22847 0.75242 0.0
C1591 C 0.44164 0.21209 0.74939 0.0
C1592 C 0.42365 0.19566 0.75276 0.0
C1593 C 0.47488 0.24265 0.74046 0.0
C1594 C 0.45889 0.24175 0.73354 0.0
C1595 C 0.44252 0.22641 0.73795 0.0
C1596 C 0.45857 0.25651 0.72187 0.0
C1597 C 0.49293 0.25831 0.73513 0.0
C1598 C 0.4659 0.27355 0.73105 0.0
C1599 C 0.46364 0.28677 0.72115 0.0
C1600 C 0.45381 0.28306 0.70209 0.0
C1601 C 0.44676 0.26614 0.69275 0.0
C1602 C 0.44922 0.25302 0.70247 0.0
H1603 H 0.50346 0.25457 0.73558 0.0
H1604 H 0.49295 0.26378 0.71905 0.0
H1605 H 0.49641 0.26898 0.74716 0.0
H1606 H 0.47269 0.27641 0.74633 0.0
H1607 H 0.4688 0.29958 0.72897 0.0
H1608 H 0.17301 0.43418 0.68936 0.0
H1609 H 0.20084 0.44072 0.70696 0.0
H1610 H 0.20271 0.48582 0.73872 0.0
H1611 H 0.17462 0.47914 0.72144 0.0
H1612 H 0.23573 0.47367 0.70751 0.0
H1613 H 0.20319 0.4529 0.78751 0.0
H1614 H 0.19046 0.44693 0.76299 0.0
H1615 H 0.20055 0.46933 0.77288 0.0
C1616 C 0.17944 0.4456 0.69992 0.0
C1617 C 0.17175 0.45626 0.70383 0.0
C1618 C 0.19535 0.44935 0.7099 0.0
C1619 C 0.20374 0.46369 0.72418 0.0
C1620 C 0.19637 0.47466 0.72777 0.0
H1621 H 0.28897 0.47542 0.81092 0.0
H1622 H 0.26834 0.48253 0.79225 0.0
C1623 C 0.18045 0.47095 0.71769 0.0
C1624 C 0.21966 0.46636 0.73604 0.0
H1625 H 0.23283 0.45945 0.78487 0.0
C1626 C 0.23523 0.47083 0.72449 0.0
C1627 C 0.21895 0.46274 0.7582 0.0
C1628 C 0.2024 0.45761 0.77122 0.0
C1629 C 0.24993 0.47118 0.73441 0.0
C1630 C 0.24883 0.46653 0.75629 0.0
C1631 C 0.23361 0.46297 0.76808 0.0
C1632 C 0.26246 0.46351 0.76669 0.0
C1633 C 0.26639 0.47623 0.72126 0.0
C1634 C 0.26582 0.45035 0.75864 0.0
C1635 C 0.27764 0.44641 0.76914 0.0
C1636 C 0.28635 0.45556 0.78788 0.0
C1637 C 0.28291 0.46864 0.79607 0.0
C1638 C 0.27103 0.47259 0.78554 0.0
H1639 H 0.26753 0.48502 0.70767 0.0
H1640 H 0.27865 0.48314 0.73116 0.0
H1641 H 0.26553 0.46399 0.71449 0.0
H1642 H 0.25895 0.44279 0.74451 0.0
H1643 H 0.27988 0.43608 0.76269 0.0
H1644 H 0.69545 0.17142 0.72794 0.0
H1645 H 0.71717 0.19949 0.74504 0.0
H1646 H 0.75854 0.20201 0.70428 0.0
H1647 H 0.73692 0.1742 0.68698 0.0
H1648 H 0.74803 0.20436 0.76674 0.0
H1649 H 0.7658 0.25272 0.70039 0.0
H1650 H 0.74557 0.23129 0.70047 0.0
H1651 H 0.7664 0.23304 0.69283 0.0
C1652 C 0.70906 0.17825 0.72221 0.0
C1653 C 0.71446 0.17083 0.70587 0.0
C1654 C 0.72146 0.19418 0.7321 0.0
C1655 C 0.73937 0.20297 0.72563 0.0
C1656 C 0.7447 0.19566 0.70916 0.0
H1657 H 0.84382 0.27952 0.76073 0.0
H1658 H 0.81555 0.2576 0.7445 0.0
C1659 C 0.73238 0.17972 0.69941 0.0
C1660 C 0.75294 0.21889 0.73722 0.0
H1661 H 0.78694 0.26137 0.72921 0.0
C1662 C 0.75633 0.21698 0.75873 0.0
C1663 C 0.76369 0.23528 0.72666 0.0
C1664 C 0.7601 0.2383 0.70386 0.0
C1665 C 0.77097 0.23067 0.76958 0.0
C1666 C 0.78225 0.24677 0.75867 0.0
C1667 C 0.7783 0.24899 0.73749 0.0
C1668 C 0.79913 0.26075 0.76822 0.0
C1669 C 0.77484 0.22741 0.79217 0.0
C1670 C 0.79924 0.26988 0.78683 0.0
C1671 C 0.81541 0.28235 0.7962 0.0
C1672 C 0.83165 0.28603 0.78687 0.0
C1673 C 0.83147 0.277 0.76814 0.0
C1674 C 0.81536 0.26455 0.75882 0.0
H1675 H 0.76678 0.21315 0.7968 0.0
H1676 H 0.78917 0.23168 0.79405 0.0
H1677 H 0.77167 0.23533 0.80344 0.0
H1678 H 0.78684 0.2672 0.79425 0.0
H1679 H 0.81519 0.28873 0.81101 0.0
H1680 H 0.40894 0.03649 0.16755 0.0
H1681 H 0.38785 0.01088 0.18877 0.0
H1682 H 0.39982 0.04486 0.2441 0.0
H1683 H 0.42024 0.07063 0.22263 0.0
H1684 H 0.39841 0.99893 0.21965 0.0
H1685 H 0.34787 0.01303 0.25341 0.0
H1686 H 0.36223 0.02584 0.23157 0.0
H1687 H 0.36989 0.03099 0.25886 0.0
C1688 C 0.40666 0.03855 0.18409 0.0
C1689 C 0.41629 0.0555 0.1935 0.0
C1690 C 0.39459 0.02393 0.1962 0.0
C1691 C 0.39211 0.02589 0.21804 0.0
C1692 C 0.40107 0.04301 0.22718 0.0
H1693 H 0.37788 0.96138 0.32517 0.0
H1694 H 0.38202 0.98497 0.3004 0.0
C1695 C 0.41288 0.05774 0.21493 0.0
C1696 C 0.38259 0.00986 0.23182 0.0
H1697 H 0.35284 0.9916 0.27302 0.0
C1698 C 0.38814 0.99716 0.23093 0.0
C1699 C 0.36923 0.00752 0.24667 0.0
C1700 C 0.36184 0.02 0.24752 0.0
C1701 C 0.38131 0.98268 0.24503 0.0
C1702 C 0.36866 0.98087 0.26052 0.0
C1703 C 0.3626 0.99314 0.26109 0.0
C1704 C 0.36296 0.96705 0.27722 0.0
C1705 C 0.38819 0.96976 0.24393 0.0
C1706 C 0.35041 0.94927 0.2726 0.0
C1707 C 0.34798 0.9357 0.28672 0.0
C1708 C 0.35824 0.93978 0.30553 0.0
C1709 C 0.3699 0.95777 0.31073 0.0
C1710 C 0.37221 0.97128 0.29669 0.0
H1711 H 0.39848 0.97339 0.23131 0.0
H1712 H 0.39402 0.96932 0.25959 0.0
H1713 H 0.37699 0.95616 0.24055 0.0
H1714 H 0.34326 0.94581 0.25753 0.0
H1715 H 0.33888 0.922 0.28227 0.0
H1716 H 0.38046 0.41875 0.17125 0.0
H1717 H 0.38601 0.39987 0.19541 0.0
H1718 H 0.3506 0.40216 0.24208 0.0
H1719 H 0.34476 0.42095 0.21795 0.0
H1720 H 0.39496 0.41795 0.2473 0.0
H1721 H 0.34857 0.34632 0.22894 0.0
H1722 H 0.35706 0.36254 0.20758 0.0
H1723 H 0.34169 0.36281 0.22651 0.0
C1724 C 0.3735 0.4149 0.18642 0.0
C1725 C 0.36234 0.42154 0.1928 0.0
C1726 C 0.37661 0.40402 0.20013 0.0
C1727 C 0.36863 0.39962 0.22038 0.0
C1728 C 0.35668 0.4053 0.22635 0.0
H1729 H 0.41574 0.37712 0.33043 0.0
H1730 H 0.39605 0.38336 0.30862 0.0
C1731 C 0.35342 0.41607 0.21257 0.0
C1732 C 0.37526 0.39189 0.23644 0.0
H1733 H 0.37134 0.35288 0.25432 0.0
C1734 C 0.3897 0.40372 0.24909 0.0
C1735 C 0.36846 0.37338 0.2383 0.0
C1736 C 0.35305 0.36039 0.22469 0.0
C1737 C 0.39792 0.39757 0.2633 0.0
C1738 C 0.39107 0.37897 0.26541 0.0
C1739 C 0.37643 0.36709 0.25286 0.0
C1740 C 0.39976 0.37189 0.27965 0.0
C1741 C 0.41436 0.41113 0.27513 0.0
C1742 C 0.40724 0.36216 0.27099 0.0
C1743 C 0.41815 0.35818 0.28358 0.0
C1744 C 0.42188 0.36409 0.3049 0.0
C1745 C 0.41332 0.37268 0.31392 0.0
C1746 C 0.40214 0.37631 0.30147 0.0
H1747 H 0.42046 0.42449 0.26749 0.0
H1748 H 0.41067 0.41249 0.29175 0.0
H1749 H 0.42456 0.40696 0.27585 0.0
H1750 H 0.40547 0.35851 0.25421 0.0
H1751 H 0.42455 0.35149 0.27624 0.0
H1752 H 0.07221 0.42419 0.27426 0.0
H1753 H 0.04622 0.40481 0.25227 0.0
H1754 H 0.01228 0.3921 0.3077 0.0
H1755 H 0.03807 0.4122 0.32948 0.0
H1756 H 0.01966 0.37056 0.25099 0.0
H1757 H 0.99202 0.41469 0.26958 0.0
H1758 H 0.0142 0.42015 0.27733 0.0
H1759 H 0.99526 0.40458 0.29288 0.0
C1760 C 0.05923 0.41705 0.2818 0.0
C1761 C 0.05706 0.41994 0.30344 0.0
C1762 C 0.0444 0.40596 0.26924 0.0
C1763 C 0.02725 0.39742 0.27823 0.0
C1764 C 0.02531 0.39903 0.30029 0.0
H1765 H 0.92317 0.34258 0.2165 0.0
H1766 H 0.9475 0.34814 0.24097 0.0
C1767 C 0.04005 0.41043 0.31273 0.0
C1768 C 0.01138 0.38827 0.2642 0.0
H1769 H 0.97432 0.38953 0.24828 0.0
C1770 C 0.00969 0.37463 0.25048 0.0
C1771 C 0.99848 0.39376 0.26334 0.0
C1772 C 0.00013 0.40921 0.27639 0.0
C1773 C 0.99548 0.36644 0.23589 0.0
C1774 C 0.98266 0.37192 0.23524 0.0
C1775 C 0.98413 0.38525 0.24916 0.0
C1776 C 0.96839 0.36529 0.21904 0.0
C1777 C 0.99427 0.35218 0.22103 0.0
C1778 C 0.97221 0.37283 0.19853 0.0
C1779 C 0.95839 0.36992 0.18464 0.0
C1780 C 0.94052 0.35935 0.19106 0.0
C1781 C 0.93678 0.35077 0.21108 0.0
C1782 C 0.95064 0.35389 0.22506 0.0
H1783 H 0.00404 0.34791 0.22521 0.0
H1784 H 0.98062 0.3404 0.22148 0.0
H1785 H 0.99686 0.35733 0.20438 0.0
H1786 H 0.98586 0.38185 0.19377 0.0
H1787 H 0.9617 0.37662 0.16928 0.0
H1788 H 0.58479 0.96175 0.16345 0.0
H1789 H 0.60565 0.98748 0.18464 0.0
H1790 H 0.5994 0.95274 0.2375 0.0
H1791 H 0.57905 0.92689 0.21606 0.0
H1792 H 0.59515 0.99678 0.21888 0.0
H1793 H 0.65164 0.98768 0.24214 0.0
H1794 H 0.63642 0.97496 0.22089 0.0
H1795 H 0.63067 0.96837 0.24841 0.0
C1796 C 0.58822 0.95956 0.1794 0.0
C1797 C 0.58018 0.94233 0.18818 0.0
C1798 C 0.60018 0.97427 0.19148 0.0
C1799 C 0.60421 0.97208 0.21264 0.0
C1800 C 0.59688 0.95478 0.22106 0.0
H1801 H 0.62064 0.03506 0.32241 0.0
H1802 H 0.61573 0.01173 0.29682 0.0
C1803 C 0.58512 0.94 0.20883 0.0
C1804 C 0.61365 0.98786 0.22679 0.0
H1805 H 0.64647 0.00754 0.26452 0.0
C1806 C 0.60661 0.99931 0.22849 0.0
C1807 C 0.62856 0.99115 0.23944 0.0
C1808 C 0.63737 0.97998 0.23747 0.0
C1809 C 0.6136 0.01349 0.24301 0.0
C1810 C 0.62792 0.01626 0.25631 0.0
C1811 C 0.63541 0.00525 0.25429 0.0
C1812 C 0.63418 0.02986 0.27332 0.0
C1813 C 0.60525 0.02513 0.24465 0.0
C1814 C 0.64665 0.04767 0.26874 0.0
C1815 C 0.64951 0.0611 0.28334 0.0
C1816 C 0.63976 0.05684 0.30257 0.0
C1817 C 0.62823 0.03881 0.30767 0.0
C1818 C 0.62548 0.02544 0.29315 0.0
H1819 H 0.5946 0.02162 0.23255 0.0
H1820 H 0.59942 0.02377 0.26084 0.0
H1821 H 0.6156 0.03933 0.24249 0.0
H1822 H 0.65335 0.05127 0.25339 0.0
H1823 H 0.6585 0.07484 0.27894 0.0
H1824 H 0.58651 0.62502 0.33145 0.0
H1825 H 0.60612 0.61874 0.30968 0.0
H1826 H 0.59985 0.6471 0.2567 0.0
H1827 H 0.58073 0.65397 0.27867 0.0
H1828 H 0.59303 0.59812 0.27587 0.0
H1829 H 0.65152 0.66145 0.24995 0.0
H1830 H 0.63747 0.66029 0.27198 0.0
H1831 H 0.63096 0.66105 0.24479 0.0
C1832 C 0.58973 0.63036 0.31536 0.0
C1833 C 0.58195 0.63982 0.30667 0.0
C1834 C 0.60097 0.6268 0.30295 0.0
C1835 C 0.60452 0.63249 0.28156 0.0
C1836 C 0.59766 0.64291 0.27328 0.0
H1837 H 0.61271 0.57603 0.17533 0.0
H1838 H 0.60766 0.59492 0.19998 0.0
C1839 C 0.58661 0.64672 0.28582 0.0
C1840 C 0.61268 0.62498 0.26712 0.0
H1841 H 0.64434 0.63544 0.22847 0.0
C1842 C 0.60445 0.60634 0.26582 0.0
C1843 C 0.62756 0.63567 0.25393 0.0
C1844 C 0.63749 0.65573 0.25537 0.0
C1845 C 0.61028 0.5981 0.25124 0.0
C1846 C 0.62455 0.60875 0.23738 0.0
C1847 C 0.63326 0.62738 0.23905 0.0
C1848 C 0.62987 0.60039 0.22058 0.0
C1849 C 0.6009 0.57801 0.25041 0.0
C1850 C 0.64439 0.59774 0.22376 0.0
C1851 C 0.64731 0.58687 0.20973 0.0
C1852 C 0.63568 0.57848 0.1924 0.0
C1853 C 0.62182 0.58213 0.1886 0.0
C1854 C 0.61895 0.59299 0.20259 0.0
H1855 H 0.59208 0.57178 0.26447 0.0
H1856 H 0.59262 0.57328 0.2357 0.0
H1857 H 0.61074 0.57338 0.24971 0.0
H1858 H 0.65288 0.60332 0.23767 0.0
H1859 H 0.65816 0.58441 0.21306 0.0
H1860 H 0.96203 0.58656 0.33016 0.0
H1861 H 0.9878 0.60725 0.30891 0.0
H1862 H 0.95339 0.59884 0.25489 0.0
H1863 H 0.9275 0.57874 0.27639 0.0
H1864 H 0.99777 0.59605 0.27615 0.0
H1865 H 0.98777 0.65085 0.2479 0.0
H1866 H 0.9749 0.63627 0.26956 0.0
H1867 H 0.96871 0.62957 0.24214 0.0
C1868 C 0.95992 0.58952 0.31393 0.0
C1869 C 0.94279 0.58093 0.30485 0.0
C1870 C 0.97465 0.60138 0.30182 0.0
C1871 C 0.97257 0.60471 0.28031 0.0
C1872 C 0.95534 0.59688 0.27158 0.0
H1873 H 0.03651 0.61687 0.17292 0.0
H1874 H 0.0129 0.61225 0.19789 0.0
C1875 C 0.94054 0.58525 0.28384 0.0
C1876 C 0.98845 0.61383 0.26625 0.0
H1877 H 0.00782 0.64502 0.22668 0.0
C1878 C 0.00013 0.60702 0.2657 0.0
C1879 C 0.99156 0.62812 0.25251 0.0
C1880 C 0.98015 0.63674 0.25322 0.0
C1881 C 0.01436 0.61357 0.25127 0.0
C1882 C 0.01689 0.62716 0.23683 0.0
C1883 C 0.00569 0.63449 0.23774 0.0
C1884 C 0.03048 0.63281 0.2199 0.0
C1885 C 0.0263 0.60552 0.25095 0.0
C1886 C 0.04804 0.6463 0.22381 0.0
C1887 C 0.06163 0.64899 0.20958 0.0
C1888 C 0.0578 0.63809 0.19137 0.0
C1889 C 0.03996 0.62539 0.18687 0.0
C1890 C 0.02642 0.62279 0.20104 0.0
H1891 H 0.02331 0.59591 0.26425 0.0
H1892 H 0.02461 0.59846 0.23554 0.0
H1893 H 0.04047 0.61619 0.25214 0.0
H1894 H 0.05137 0.65404 0.23843 0.0
H1895 H 0.07522 0.65891 0.2135 0.0
H1896 H 0.58057 0.92346 0.77587 0.0
H1897 H 0.59975 0.94746 0.75123 0.0
H1898 H 0.60534 0.9865 0.79801 0.0
H1899 H 0.586 0.96268 0.82263 0.0
H1900 H 0.58666 0.97407 0.74192 0.0
H1901 H 0.65712 0.00454 0.76883 0.0
H1902 H 0.64094 0.98131 0.7733 0.0
H1903 H 0.64017 0.9982 0.78906 0.0
C1904 C 0.58626 0.93714 0.78115 0.0
C1905 C 0.58161 0.94119 0.8011 0.0
C1906 C 0.59723 0.95081 0.76707 0.0
C1907 C 0.60402 0.96867 0.77294 0.0
C1908 C 0.6004 0.97276 0.79336 0.0
H1909 H 0.64861 0.07267 0.72 0.0
H1910 H 0.64216 0.04638 0.74125 0.0
C1911 C 0.58924 0.95913 0.80732 0.0
C1912 C 0.61212 0.98287 0.75668 0.0
H1913 H 0.65061 0.02055 0.74292 0.0
C1914 C 0.60069 0.9841 0.74182 0.0
C1915 C 0.63033 0.99598 0.75702 0.0
C1916 C 0.64297 0.99502 0.77281 0.0
C1917 C 0.60682 0.99859 0.72778 0.0
C1918 C 0.62511 0.01185 0.72804 0.0
C1919 C 0.63666 0.01032 0.74259 0.0
C1920 C 0.63201 0.02803 0.71451 0.0
C1921 C 0.59335 -0.0 0.71378 0.0
C1922 C 0.62931 0.0266 0.69227 0.0
C1923 C 0.63253 0.0415 0.68024 0.0
C1924 C 0.63912 0.05818 0.69014 0.0
C1925 C 0.64349 0.05994 0.712 0.0
C1926 C 0.63983 0.04493 0.72413 0.0
H1927 H 0.57951 0.99142 0.71967 0.0
H1928 H 0.59607 0.01394 0.71299 0.0
H1929 H 0.59404 0.99557 0.69732 0.0
H1930 H 0.62387 0.0138 0.68439 0.0
H1931 H 0.62932 0.03987 0.66333 0.0
H1932 H 0.65555 0.57916 0.77427 0.0
H1933 H 0.64998 0.59762 0.74927 0.0
H1934 H 0.61671 0.6033 0.79619 0.0
H1935 H 0.62195 0.5847 0.8212 0.0
H1936 H 0.60745 0.58337 0.74329 0.0
H1937 H 0.65267 0.65506 0.76241 0.0
H1938 H 0.65942 0.63855 0.76596 0.0
H1939 H 0.64362 0.63909 0.78397 0.0
C1940 C 0.64743 0.58472 0.77949 0.0
C1941 C 0.63901 0.58029 0.79961 0.0
C1942 C 0.64431 0.59529 0.76521 0.0
C1943 C 0.63305 0.60185 0.77103 0.0
C1944 C 0.6256 0.59848 0.79158 0.0
H1945 H 0.57601 0.64876 0.7165 0.0
H1946 H 0.59548 0.64188 0.73788 0.0
C1947 C 0.62852 0.58776 0.80577 0.0
C1948 C 0.62653 0.60948 0.7547 0.0
H1949 H 0.62955 0.64823 0.73741 0.0
C1950 C 0.61241 0.59756 0.74171 0.0
C1951 C 0.63292 0.62793 0.75313 0.0
C1952 C 0.64804 0.64103 0.76702 0.0
C1953 C 0.60401 0.60356 0.72756 0.0
C1954 C 0.61038 0.6221 0.72583 0.0
C1955 C 0.62481 0.63407 0.7386 0.0
C1956 C 0.60132 0.62901 0.71196 0.0
C1957 C 0.58778 0.58985 0.7155 0.0
C1958 C 0.59885 0.62482 0.69007 0.0
C1959 C 0.58742 0.62836 0.67797 0.0
C1960 C 0.57872 0.63664 0.68743 0.0
C1961 C 0.5825 0.64231 0.70883 0.0
C1962 C 0.59364 0.63841 0.72104 0.0
H1963 H 0.582 0.57641 0.72286 0.0
H1964 H 0.57729 0.59363 0.71496 0.0
H1965 H 0.59164 0.58888 0.69883 0.0
H1966 H 0.60509 0.61806 0.68258 0.0
H1967 H 0.58497 0.62413 0.6614 0.0
H1968 H 0.06862 0.66206 0.79233 0.0
H1969 H 0.04345 0.65965 0.77167 0.0
H1970 H 0.01156 0.60469 0.7911 0.0
H1971 H 0.03615 0.6072 0.81231 0.0
H1972 H 0.02912 0.64064 0.73849 0.0
H1973 H 0.97512 0.61897 0.797 0.0
H1974 H 0.99802 0.62807 0.80526 0.0
H1975 H 0.98422 0.60454 0.79978 0.0
C1976 C 0.05609 0.64959 0.79254 0.0
C1977 C 0.05439 0.63482 0.80396 0.0
C1978 C 0.04172 0.64824 0.78076 0.0
C1979 C 0.02543 0.6321 0.78015 0.0
C1980 C 0.02369 0.6175 0.79191 0.0
H1981 H 0.96226 0.57237 0.68204 0.0
H1982 H 0.98566 0.59377 0.70513 0.0
C1983 C 0.0379 0.61889 0.80387 0.0
C1984 C 0.01102 0.62951 0.76518 0.0
H1985 H 0.96577 0.60595 0.76063 0.0
C1986 C 0.01528 0.63353 0.74344 0.0
C1987 C 0.99291 0.62083 0.77151 0.0
C1988 C 0.98738 0.61809 0.79473 0.0
C1989 C 0.00193 0.62729 0.72775 0.0
C1990 C 0.98394 0.6162 0.73391 0.0
C1991 C 0.97958 0.61399 0.75577 0.0
C1992 C 0.97001 0.60472 0.71825 0.0
C1993 C 0.00735 0.63209 0.70468 0.0
C1994 C 0.95314 0.60331 0.71824 0.0
C1995 C 0.93946 0.59067 0.70527 0.0
C1996 C 0.94245 0.57923 0.69212 0.0
C1997 C 0.95949 0.58103 0.69181 0.0
C1998 C 0.97302 0.59347 0.70487 0.0
H1999 H 0.01899 0.64578 0.70346 0.0
H2000 H 0.01147 0.62284 0.69796 0.0
H2001 H 0.9963 0.6313 0.69484 0.0
H2002 H 0.95045 0.61171 0.7286 0.0
H2003 H 0.92647 0.58963 0.70587 0.0
H2004 H 0.40925 0.03996 0.83808 0.0
H2005 H 0.38846 0.01372 0.81739 0.0
H2006 H 0.40245 0.04581 0.76013 0.0
H2007 H 0.42242 0.07227 0.78103 0.0
H2008 H 0.36829 0.0198 0.75856 0.0
H2009 H 0.41066 0.99131 0.78262 0.0
H2010 H 0.40015 0.99551 0.80479 0.0
H2011 H 0.41646 0.01383 0.78901 0.0
C2012 C 0.40754 0.04145 0.82117 0.0
C2013 C 0.4176 0.05804 0.81105 0.0
C2014 C 0.39576 0.02646 0.80935 0.0
C2015 C 0.3944 0.02768 0.78709 0.0
C2016 C 0.4034 0.04451 0.77726 0.0
H2017 H 0.37634 0.96307 0.67888 0.0
H2018 H 0.38005 0.98647 0.70375 0.0
C2019 C 0.41482 0.05962 0.78921 0.0
C2020 C 0.38522 0.01138 0.77372 0.0
H2021 H 0.38642 0.97381 0.76017 0.0
C2022 C 0.37214 0.00966 0.75904 0.0
C2023 C 0.39041 0.99824 0.77417 0.0
C2024 C 0.4053 0.99985 0.78832 0.0
C2025 C 0.36434 0.99529 0.74462 0.0
C2026 C 0.36965 0.98234 0.7451 0.0
C2027 C 0.38225 0.98372 0.76015 0.0
C2028 C 0.36394 0.96825 0.72874 0.0
C2029 C 0.35076 0.99416 0.72868 0.0
C2030 C 0.35335 0.95028 0.73448 0.0
C2031 C 0.3511 0.93685 0.72025 0.0
C2032 C 0.35977 0.94125 0.70028 0.0
C2033 C 0.36959 0.95927 0.6942 0.0
C2034 C 0.37162 0.97265 0.7083 0.0
H2035 H 0.34573 0.00334 0.73279 0.0
H2036 H 0.35695 0.99776 0.71256 0.0
H2037 H 0.33933 0.98032 0.72781 0.0
H2038 H 0.34753 0.94669 0.75032 0.0
H2039 H 0.34348 0.92309 0.72542 0.0
H2040 H 0.34301 0.41788 0.7817 0.0
H2041 H 0.34818 0.39826 0.75827 0.0
H2042 H 0.38503 0.39774 0.80418 0.0
H2043 H 0.38019 0.41752 0.82763 0.0
H2044 H 0.38976 0.41344 0.74864 0.0
H2045 H 0.35002 0.34339 0.77735 0.0
H2046 H 0.3422 0.35913 0.78011 0.0
H2047 H 0.36002 0.36123 0.79668 0.0
C2048 C 0.35187 0.41323 0.78709 0.0
C2049 C 0.36137 0.41944 0.80641 0.0
C2050 C 0.35474 0.40199 0.7737 0.0
C2051 C 0.36686 0.39651 0.77964 0.0
C2052 C 0.37546 0.40169 0.79951 0.0
H2053 H 0.42459 0.35054 0.72339 0.0
H2054 H 0.40561 0.35714 0.7462 0.0
C2055 C 0.37276 0.41309 0.8128 0.0
C2056 C 0.37297 0.38817 0.76372 0.0
H2057 H 0.37114 0.34918 0.74993 0.0
C2058 C 0.38556 0.39935 0.74867 0.0
C2059 C 0.36761 0.36989 0.76425 0.0
C2060 C 0.35416 0.35758 0.78039 0.0
C2061 C 0.39341 0.39287 0.73438 0.0
C2062 C 0.38796 0.37447 0.73462 0.0
C2063 C 0.37513 0.36321 0.74958 0.0
C2064 C 0.3964 0.36714 0.72034 0.0
C2065 C 0.40811 0.40602 0.71994 0.0
C2066 C 0.39673 0.36964 0.6981 0.0
C2067 C 0.40789 0.36632 0.68518 0.0
C2068 C 0.41839 0.35983 0.69419 0.0
C2069 C 0.41662 0.35555 0.71607 0.0
C2070 C 0.40579 0.35931 0.7291 0.0
H2071 H 0.41387 0.41993 0.72584 0.0
H2072 H 0.41904 0.4029 0.71859 0.0
H2073 H 0.40264 0.40543 0.70372 0.0
H2074 H 0.38915 0.37513 0.69091 0.0
H2075 H 0.40884 0.36948 0.66828 0.0
H2076 H 0.03864 0.421 0.67214 0.0
H2077 H 0.01439 0.40356 0.69707 0.0
H2078 H 0.05175 0.40289 0.74209 0.0
H2079 H 0.07627 0.42035 0.71713 0.0
H2080 H 0.01437 0.36867 0.73677 0.0
H2081 H 0.01567 0.43242 0.75334 0.0
H2082 H 0.0148 0.42655 0.72557 0.0
H2083 H 0.03418 0.43165 0.74117 0.0
C2084 C 0.04173 0.4169 0.68716 0.0
C2085 C 0.05944 0.42232 0.69281 0.0
C2086 C 0.02783 0.40687 0.70133 0.0
C2087 C 0.03137 0.40214 0.72141 0.0
C2088 C 0.04882 0.40644 0.72659 0.0
H2089 H 0.96238 0.38433 0.82942 0.0
H2090 H 0.98847 0.39133 0.80773 0.0
C2091 C 0.06279 0.41644 0.71235 0.0
C2092 C 0.01723 0.3948 0.73781 0.0
H2093 H 0.99203 0.40634 0.76841 0.0
C2094 C 0.00951 0.37686 0.74386 0.0
C2095 C 0.01115 0.40565 0.74712 0.0
C2096 C 0.01943 0.42518 0.74166 0.0
C2097 C 0.99542 0.36934 0.7587 0.0
C2098 C 0.98893 0.38008 0.76742 0.0
C2099 C 0.99701 0.39812 0.76168 0.0
C2100 C 0.97352 0.37307 0.78217 0.0
C2101 C 0.98765 0.35007 0.76499 0.0
C2102 C 0.95648 0.3601 0.77525 0.0
C2103 C 0.94147 0.356 0.78767 0.0
C2104 C 0.94329 0.36502 0.80707 0.0
C2105 C 0.96049 0.37727 0.81446 0.0
C2106 C 0.97543 0.38125 0.80213 0.0
H2107 H 0.99701 0.34513 0.76153 0.0
H2108 H 0.9842 0.34813 0.78227 0.0
H2109 H 0.97526 0.34184 0.7557 0.0
H2110 H 0.95467 0.35387 0.75971 0.0
H2111 H 0.92842 0.34652 0.78152 0.0
H2112 H 0.50499 0.08869 0.18913 0.0
H2113 H 0.53101 0.09606 0.21096 0.0
H2114 H 0.53324 0.14471 0.23132 0.0
H2115 H 0.50665 0.13711 0.2099 0.0
H2116 H 0.56458 0.12352 0.21051 0.0
H2117 H 0.5322 0.12199 0.28803 0.0
H2118 H 0.5198 0.11433 0.2634 0.0
H2119 H 0.53317 0.1378 0.26872 0.0
C2120 C 0.51098 0.101 0.19819 0.0
C2121 C 0.50359 0.11222 0.19794 0.0
C2122 C 0.52592 0.10522 0.21065 0.0
C2123 C 0.53394 0.12081 0.22303 0.0
C2124 C 0.52702 0.1324 0.22228 0.0
H2125 H 0.63175 0.1371 0.28871 0.0
H2126 H 0.61272 0.14453 0.26708 0.0
C2127 C 0.51187 0.12808 0.20997 0.0
C2128 C 0.54918 0.12432 0.23707 0.0
H2129 H 0.56105 0.12616 0.28952 0.0
C2130 C 0.56396 0.12434 0.22779 0.0
C2131 C 0.54828 0.12535 0.2596 0.0
C2132 C 0.53248 0.12474 0.27062 0.0
C2133 C 0.57733 0.12428 0.24043 0.0
C2134 C 0.57615 0.12477 0.26299 0.0
C2135 C 0.56193 0.12584 0.27222 0.0
C2136 C 0.58797 0.12163 0.2773 0.0
C2137 C 0.5919 0.12249 0.22953 0.0
C2138 C 0.58037 0.10674 0.29086 0.0
C2139 C 0.59112 0.10263 0.30341 0.0
C2140 C 0.60979 0.11327 0.30261 0.0
C2141 C 0.61743 0.12853 0.28952 0.0
C2142 C 0.60658 0.13274 0.27707 0.0
H2143 H 0.58888 0.11878 0.21238 0.0
H2144 H 0.60456 0.1354 0.23037 0.0
H2145 H 0.59398 0.11225 0.23761 0.0
H2146 H 0.56606 0.09796 0.29133 0.0
H2147 H 0.58474 0.0908 0.31333 0.0
H2148 H 0.49304 0.58625 0.311 0.0
H2149 H 0.46773 0.56808 0.28797 0.0
H2150 H 0.46803 0.61525 0.26524 0.0
H2151 H 0.494 0.63377 0.28784 0.0
H2152 H 0.43474 0.56281 0.28584 0.0
H2153 H 0.47051 0.59305 0.20973 0.0
H2154 H 0.48187 0.59767 0.23511 0.0
H2155 H 0.46915 0.60818 0.22823 0.0
C2156 C 0.48775 0.59284 0.30118 0.0
C2157 C 0.49568 0.61151 0.30111 0.0
C2158 C 0.47321 0.58239 0.28803 0.0
C2159 C 0.46613 0.59029 0.27462 0.0
C2160 C 0.47354 0.60889 0.27507 0.0
H2161 H 0.36974 0.51021 0.20582 0.0
H2162 H 0.38871 0.53657 0.22757 0.0
C2163 C 0.48831 0.61944 0.28808 0.0
C2164 C 0.45136 0.5788 0.25988 0.0
H2165 H 0.4414 0.56893 0.20698 0.0
C2166 C 0.43606 0.56424 0.26858 0.0
C2167 C 0.45319 0.5807 0.23737 0.0
C2168 C 0.4696 0.59564 0.22697 0.0
C2169 C 0.42305 0.55096 0.25547 0.0
C2170 C 0.42508 0.55262 0.23296 0.0
C2171 C 0.43986 0.56772 0.22424 0.0
C2172 C 0.41341 0.53785 0.21831 0.0
C2173 C 0.40791 0.53473 0.26593 0.0
C2174 C 0.42103 0.53035 0.20512 0.0
C2175 C 0.41031 0.51557 0.19241 0.0
C2176 C 0.39166 0.50784 0.19274 0.0
C2177 C 0.38404 0.51572 0.20542 0.0
C2178 C 0.39485 0.53072 0.21794 0.0
H2179 H 0.41044 0.53383 0.2832 0.0
H2180 H 0.39551 0.53545 0.26462 0.0
H2181 H 0.40563 0.52233 0.2579 0.0
H2182 H 0.43531 0.53562 0.2051 0.0
H2183 H 0.41665 0.50989 0.18282 0.0
H2184 H 0.90821 0.49209 0.30832 0.0
H2185 H 0.9008 0.46637 0.28591 0.0
H2186 H 0.85292 0.46541 0.26477 0.0
H2187 H 0.86059 0.49172 0.28678 0.0
H2188 H 0.87306 0.43304 0.28528 0.0
H2189 H 0.8764 0.4671 0.20845 0.0
H2190 H 0.88377 0.47901 0.23343 0.0
H2191 H 0.86037 0.46602 0.22749 0.0
C2192 C 0.89606 0.48644 0.29897 0.0
C2193 C 0.88509 0.49411 0.29918 0.0
C2194 C 0.89181 0.47167 0.28618 0.0
C2195 C 0.87644 0.4641 0.27341 0.0
C2196 C 0.86507 0.47129 0.27411 0.0
H2197 H 0.85964 0.3669 0.20585 0.0
H2198 H 0.85236 0.38589 0.22775 0.0
C2199 C 0.86943 0.48627 0.28677 0.0
C2200 C 0.87294 0.44906 0.25903 0.0
H2201 H 0.87177 0.4381 0.20633 0.0
C2202 C 0.87254 0.434 0.26801 0.0
C2203 C 0.87231 0.45041 0.2365 0.0
C2204 C 0.87337 0.46654 0.2258 0.0
C2205 C 0.8726 0.42077 0.25511 0.0
C2206 C 0.87248 0.42237 0.23257 0.0
C2207 C 0.8718 0.43689 0.22361 0.0
C2208 C 0.87556 0.41061 0.21806 0.0
C2209 C 0.874 0.40587 0.26576 0.0
C2210 C 0.89056 0.41822 0.20468 0.0
C2211 C 0.89458 0.40749 0.19196 0.0
C2212 C 0.88373 0.38884 0.1924 0.0
C2213 C 0.86837 0.38121 0.20532 0.0
C2214 C 0.86424 0.39203 0.21793 0.0
H2215 H 0.87756 0.40861 0.28297 0.0
H2216 H 0.86097 0.39336 0.26465 0.0
H2217 H 0.88417 0.40368 0.25769 0.0
H2218 H 0.89949 0.43252 0.2045 0.0
H2219 H 0.90649 0.41387 0.18219 0.0
H2220 H 0.36879 0.86934 0.27871 0.0
H2221 H 0.38893 0.86469 0.25549 0.0
H2222 H 0.43125 0.89143 0.30158 0.0
H2223 H 0.41146 0.89644 0.32453 0.0
H2224 H 0.44039 0.90603 0.26196 0.0
H2225 H 0.41116 0.83264 0.25704 0.0
H2226 H 0.3959 0.84043 0.25115 0.0
H2227 H 0.40503 0.84323 0.27763 0.0
C2228 C 0.38228 0.87389 0.28407 0.0
C2229 C 0.38859 0.88343 0.30335 0.0
C2230 C 0.39375 0.87114 0.27084 0.0
C2231 C 0.41157 0.87764 0.27686 0.0
C2232 C 0.41756 0.88631 0.29662 0.0
H2233 H 0.49829 0.8707 0.21702 0.0
H2234 H 0.47318 0.86589 0.23969 0.0
C2235 C 0.40622 0.8892 0.3097 0.0
C2236 C 0.42462 0.87738 0.26175 0.0
H2237 H 0.43501 0.8502 0.23309 0.0
C2238 C 0.43922 0.89381 0.2557 0.0
C2239 C 0.42311 0.86142 0.25371 0.0
C2240 C 0.40805 0.8434 0.26032 0.0
C2241 C 0.45235 0.89476 0.24183 0.0
C2242 C 0.45065 0.87885 0.23335 0.0
C2243 C 0.43614 0.86236 0.23948 0.0
C2244 C 0.46408 0.87933 0.21831 0.0
C2245 C 0.46813 0.91282 0.23669 0.0
C2246 C 0.46684 0.88791 0.19849 0.0
C2247 C 0.48121 0.8908 0.18563 0.0
C2248 C 0.49299 0.885 0.19224 0.0
C2249 C 0.4895 0.87538 0.21149 0.0
C2250 C 0.47515 0.87259 0.22444 0.0
H2251 H 0.46963 0.9231 0.24845 0.0
H2252 H 0.48067 0.91229 0.2364 0.0
H2253 H 0.46621 0.91709 0.22063 0.0
H2254 H 0.45825 0.89294 0.19332 0.0
H2255 H 0.48334 0.89803 0.17076 0.0
H2256 H 0.58839 0.48241 0.17044 0.0
H2257 H 0.56921 0.45741 0.19358 0.0
H2258 H 0.61193 0.47414 0.23926 0.0
H2259 H 0.63145 0.49925 0.21602 0.0
H2260 H 0.58817 0.43444 0.23266 0.0
H2261 H 0.55294 0.4719 0.24988 0.0
H2262 H 0.55524 0.46845 0.22197 0.0
H2263 H 0.57474 0.48219 0.23771 0.0
C2264 C 0.59387 0.48064 0.18522 0.0
C2265 C 0.61136 0.49301 0.19158 0.0
C2266 C 0.58288 0.46631 0.19838 0.0
C2267 C 0.5891 0.46413 0.21821 0.0
C2268 C 0.60692 0.47566 0.22399 0.0
H2269 H 0.51881 0.41272 0.32476 0.0
H2270 H 0.54439 0.43207 0.30256 0.0
C2271 C 0.61801 0.49001 0.21072 0.0
C2272 C 0.57639 0.45119 0.2338 0.0
H2273 H 0.53998 0.44264 0.26351 0.0
C2274 C 0.57766 0.4362 0.23953 0.0
C2275 C 0.56288 0.45372 0.24289 0.0
C2276 C 0.56138 0.47 0.23799 0.0
C2277 C 0.56542 0.42342 0.25388 0.0
C2278 C 0.55157 0.4257 0.26244 0.0
C2279 C 0.55057 0.44087 0.2569 0.0
C2280 C 0.53785 0.41273 0.27724 0.0
C2281 C 0.56752 0.40772 0.25996 0.0
C2282 C 0.5259 0.39522 0.27063 0.0
C2283 C 0.51124 0.38401 0.28342 0.0
C2284 C 0.50819 0.39028 0.30283 0.0
C2285 C 0.52066 0.40753 0.3098 0.0
C2286 C 0.53533 0.41861 0.29715 0.0
H2287 H 0.58122 0.41032 0.25666 0.0
H2288 H 0.56448 0.40439 0.27717 0.0
H2289 H 0.55807 0.39595 0.25042 0.0
H2290 H 0.52739 0.39051 0.25514 0.0
H2291 H 0.50185 0.3708 0.2776 0.0
H2292 H 0.10275 0.58695 0.17262 0.0
H2293 H 0.10792 0.56769 0.19643 0.0
H2294 H 0.13551 0.61121 0.24076 0.0
H2295 H 0.13059 0.6308 0.21681 0.0
H2296 H 0.15063 0.58735 0.23522 0.0
H2297 H 0.07808 0.5521 0.25277 0.0
H2298 H 0.08346 0.55374 0.2248 0.0
H2299 H 0.08941 0.57361 0.23989 0.0
C2300 C 0.11016 0.59255 0.18727 0.0
C2301 C 0.116 0.61034 0.193 0.0
C2302 C 0.11311 0.58151 0.20084 0.0
C2303 C 0.12181 0.58797 0.22047 0.0
C2304 C 0.12871 0.606 0.22567 0.0
H2305 H 0.10292 0.51626 0.32613 0.0
H2306 H 0.10869 0.54211 0.30468 0.0
C2307 C 0.12586 0.61715 0.21199 0.0
C2308 C 0.12208 0.5754 0.23629 0.0
H2309 H 0.09436 0.53885 0.2659 0.0
C2310 C 0.13838 0.57679 0.24209 0.0
C2311 C 0.10608 0.56185 0.24542 0.0
C2312 C 0.08827 0.56027 0.2406 0.0
C2313 C 0.13901 0.56458 0.25641 0.0
C2314 C 0.12291 0.55059 0.26485 0.0
C2315 C 0.1067 0.54953 0.25937 0.0
C2316 C 0.12224 0.53665 0.27923 0.0
C2317 C 0.15687 0.56686 0.26252 0.0
C2318 C 0.12831 0.52519 0.2723 0.0
C2319 C 0.12514 0.51041 0.28465 0.0
C2320 C 0.11557 0.50669 0.30396 0.0
C2321 C 0.11018 0.51863 0.31125 0.0
C2322 C 0.11351 0.53345 0.29903 0.0
H2323 H 0.16781 0.58075 0.25981 0.0
H2324 H 0.15704 0.56334 0.27957 0.0
H2325 H 0.15958 0.55791 0.2525 0.0
H2326 H 0.13474 0.52718 0.25688 0.0
H2327 H 0.12941 0.50144 0.27857 0.0
H2328 H 0.49095 0.90538 0.81395 0.0
H2329 H 0.46447 0.89717 0.79273 0.0
H2330 H 0.46699 0.85242 0.76652 0.0
H2331 H 0.49403 0.86089 0.78741 0.0
H2332 H 0.46247 0.87063 0.73576 0.0
H2333 H 0.41355 0.85914 0.79885 0.0
H2334 H 0.43301 0.88049 0.80278 0.0
H2335 H 0.43465 0.86057 0.80465 0.0
C2336 C 0.48581 0.89364 0.80391 0.0
C2337 C 0.49467 0.88381 0.80238 0.0
C2338 C 0.4705 0.88885 0.79192 0.0
C2339 C 0.46346 0.87393 0.77839 0.0
C2340 C 0.47208 0.86388 0.77703 0.0
H2341 H 0.36797 0.86048 0.71154 0.0
H2342 H 0.38658 0.85191 0.73218 0.0
C2343 C 0.48754 0.86875 0.78896 0.0
C2344 C 0.44818 0.8701 0.76426 0.0
H2345 H 0.40834 0.86912 0.76436 0.0
C2346 C 0.45044 0.86987 0.74203 0.0
C2347 C 0.43223 0.8686 0.77235 0.0
C2348 C 0.42815 0.867 0.79599 0.0
C2349 C 0.4379 0.86975 0.72773 0.0
C2350 C 0.42299 0.87039 0.73589 0.0
C2351 C 0.41995 0.86902 0.75806 0.0
C2352 C 0.41159 0.87447 0.72201 0.0
C2353 C 0.44102 0.86939 0.70402 0.0
C2354 C 0.41943 0.89003 0.70955 0.0
C2355 C 0.4089 0.89489 0.69771 0.0
C2356 C 0.39021 0.88448 0.69833 0.0
C2357 C 0.38232 0.86882 0.71073 0.0
C2358 C 0.39293 0.86388 0.7225 0.0
H2359 H 0.44821 0.86205 0.70062 0.0
H2360 H 0.42831 0.86306 0.69492 0.0
H2361 H 0.44947 0.88324 0.69817 0.0
H2362 H 0.43375 0.89874 0.70944 0.0
H2363 H 0.41547 0.90711 0.68849 0.0
H2364 H 0.50731 0.36757 0.70864 0.0
H2365 H 0.53377 0.38605 0.73053 0.0
H2366 H 0.53308 0.43319 0.70974 0.0
H2367 H 0.50722 0.41505 0.68746 0.0
H2368 H 0.5664 0.43844 0.7101 0.0
H2369 H 0.53233 0.40794 0.78702 0.0
H2370 H 0.53321 0.39296 0.76784 0.0
H2371 H 0.52037 0.40355 0.7621 0.0
C2372 C 0.51287 0.38188 0.70868 0.0
C2373 C 0.50505 0.38981 0.69643 0.0
C2374 C 0.52794 0.39241 0.72127 0.0
C2375 C 0.53523 0.41098 0.72205 0.0
C2376 C 0.52769 0.41889 0.70941 0.0
H2377 H 0.58532 0.49186 0.81211 0.0
H2378 H 0.56675 0.46579 0.79037 0.0
C2379 C 0.51284 0.40846 0.6967 0.0
C2380 C 0.55033 0.42244 0.7364 0.0
H2381 H 0.56126 0.43241 0.78908 0.0
C2382 C 0.56543 0.43701 0.72738 0.0
C2383 C 0.54897 0.42052 0.75893 0.0
C2384 C 0.53282 0.4055 0.76964 0.0
C2385 C 0.57867 0.45033 0.74024 0.0
C2386 C 0.57703 0.44872 0.76279 0.0
C2387 C 0.56249 0.43357 0.77179 0.0
C2388 C 0.58872 0.46366 0.77721 0.0
C2389 C 0.59361 0.46657 0.72954 0.0
C2390 C 0.6073 0.47097 0.77744 0.0
C2391 C 0.61808 0.48615 0.78973 0.0
C2392 C 0.6104 0.49409 0.80221 0.0
C2393 C 0.59174 0.48618 0.80266 0.0
C2394 C 0.58105 0.4712 0.79026 0.0
H2395 H 0.59096 0.46727 0.71227 0.0
H2396 H 0.59572 0.47896 0.73743 0.0
H2397 H 0.60613 0.46609 0.73089 0.0
H2398 H 0.61348 0.46511 0.76789 0.0
H2399 H 0.63239 0.49177 0.78924 0.0
H2400 H 0.10749 0.51772 0.66179 0.0
H2401 H 0.11298 0.5439 0.68239 0.0
H2402 H 0.13676 0.5287 0.73281 0.0
H2403 H 0.13173 0.50266 0.712 0.0
H2404 H 0.09687 0.54047 0.71984 0.0
H2405 H 0.16982 0.58222 0.73129 0.0
H2406 H 0.16009 0.56497 0.71117 0.0
H2407 H 0.16138 0.55935 0.73859 0.0
C2408 C 0.11427 0.52015 0.67704 0.0
C2409 C 0.11901 0.50802 0.68537 0.0
C2410 C 0.11743 0.53516 0.68878 0.0
C2411 C 0.12534 0.53833 0.70911 0.0
C2412 C 0.13097 0.52675 0.71698 0.0
H2413 H 0.10125 0.58477 0.81525 0.0
H2414 H 0.10743 0.56669 0.79063 0.0
C2415 C 0.12797 0.51179 0.70512 0.0
C2416 C 0.12531 0.55214 0.72311 0.0
H2417 H 0.15137 0.58802 0.75492 0.0
C2418 C 0.10885 0.55099 0.72728 0.0
C2419 C 0.14093 0.56591 0.73276 0.0
C2420 C 0.15908 0.56833 0.72807 0.0
C2421 C 0.10748 0.56289 0.74122 0.0
C2422 C 0.12294 0.57612 0.75164 0.0
C2423 C 0.13953 0.57771 0.74705 0.0
C2424 C 0.12174 0.58793 0.76782 0.0
C2425 C 0.08944 0.56112 0.74483 0.0
C2426 C 0.12841 0.60607 0.7635 0.0
C2427 C 0.12493 0.61653 0.77761 0.0
C2428 C 0.1147 0.60894 0.79618 0.0
C2429 C 0.10897 0.591 0.80097 0.0
C2430 C 0.11249 0.58063 0.78694 0.0
H2431 H 0.07986 0.55325 0.73196 0.0
H2432 H 0.08392 0.5542 0.76027 0.0
H2433 H 0.09051 0.57443 0.74567 0.0
H2434 H 0.13562 0.61192 0.7488 0.0
H2435 H 0.12961 0.63032 0.77351 0.0
H2436 H 0.49954 0.12988 0.78043 0.0
H2437 H 0.52392 0.13432 0.75655 0.0
H2438 H 0.5375 0.10401 0.79955 0.0
H2439 H 0.5132 0.0993 0.82327 0.0
H2440 H 0.56209 0.14827 0.76279 0.0
H2441 H 0.52471 0.07632 0.74215 0.0
H2442 H 0.51447 0.08738 0.75556 0.0
H2443 H 0.52797 0.08072 0.77038 0.0
C2444 C 0.50786 0.12435 0.78492 0.0
C2445 C 0.50424 0.11398 0.80357 0.0
C2446 C 0.52179 0.12694 0.77129 0.0
C2447 C 0.53227 0.11923 0.77616 0.0
C2448 C 0.52935 0.10981 0.79537 0.0
H2449 H 0.62749 0.12814 0.71914 0.0
H2450 H 0.60671 0.13277 0.74107 0.0
C2451 C 0.51544 0.10713 0.80889 0.0
C2452 C 0.54537 0.11978 0.76056 0.0
H2453 H 0.55464 0.09269 0.7303 0.0
C2454 C 0.56047 0.13618 0.75553 0.0
C2455 C 0.54303 0.10399 0.75091 0.0
C2456 C 0.52659 0.08612 0.75483 0.0
C2457 C 0.57358 0.1371 0.74145 0.0
C2458 C 0.57156 0.12118 0.73252 0.0
C2459 C 0.55624 0.10489 0.73724 0.0
C2460 C 0.58504 0.12083 0.71821 0.0
C2461 C 0.58934 0.15508 0.73613 0.0
C2462 C 0.5798 0.11263 0.6981 0.0
C2463 C 0.59148 0.10969 0.68576 0.0
C2464 C 0.60873 0.11496 0.69324 0.0
C2465 C 0.61431 0.12398 0.71292 0.0
C2466 C 0.60248 0.12675 0.7254 0.0
H2467 H 0.58641 0.16599 0.73915 0.0
H2468 H 0.60078 0.15745 0.74639 0.0
H2469 H 0.59336 0.15568 0.71914 0.0
H2470 H 0.5664 0.10795 0.69223 0.0
H2471 H 0.58682 0.10286 0.67058 0.0
H2472 H 0.36938 0.50014 0.77909 0.0
H2473 H 0.38906 0.52454 0.75514 0.0
H2474 H 0.43279 0.53967 0.79892 0.0
H2475 H 0.41341 0.51534 0.8228 0.0
H2476 H 0.41293 0.56316 0.76089 0.0
H2477 H 0.44804 0.52591 0.74212 0.0
H2478 H 0.42664 0.5157 0.75528 0.0
H2479 H 0.44664 0.5296 0.77017 0.0
C2480 C 0.38311 0.50885 0.7838 0.0
C2481 C 0.38989 0.50562 0.8027 0.0
C2482 C 0.39431 0.52278 0.77011 0.0
C2483 C 0.4124 0.53367 0.77515 0.0
C2484 C 0.41891 0.53121 0.79463 0.0
H2485 H 0.49817 0.62772 0.71583 0.0
H2486 H 0.47294 0.60735 0.73819 0.0
C2487 C 0.40779 0.51729 0.80824 0.0
C2488 C 0.42489 0.54658 0.75935 0.0
H2489 H 0.46102 0.55538 0.7289 0.0
C2490 C 0.42341 0.56148 0.75377 0.0
C2491 C 0.43833 0.54413 0.74988 0.0
C2492 C 0.43997 0.5279 0.75447 0.0
C2493 C 0.43541 0.5743 0.73928 0.0
C2494 C 0.44927 0.57216 0.73045 0.0
C2495 C 0.45043 0.55704 0.73575 0.0
C2496 C 0.46292 0.58537 0.71578 0.0
C2497 C 0.43305 0.58987 0.7334 0.0
C2498 C 0.46564 0.57982 0.69574 0.0
C2499 C 0.48015 0.59131 0.6831 0.0
C2500 C 0.49226 0.60864 0.69022 0.0
C2501 C 0.48904 0.61449 0.70984 0.0
C2502 C 0.47456 0.6029 0.72259 0.0
H2503 H 0.41924 0.58699 0.7366 0.0
H2504 H 0.44226 0.6016 0.74318 0.0
H2505 H 0.43618 0.59343 0.71625 0.0
H2506 H 0.45684 0.56634 0.69019 0.0
H2507 H 0.48215 0.58641 0.668 0.0
H2508 H 0.86774 0.49793 0.71543 0.0
H2509 H 0.86198 0.47308 0.73918 0.0
H2510 H 0.89166 0.4582 0.69688 0.0
H2511 H 0.89758 0.48292 0.67316 0.0
H2512 H 0.8477 0.43352 0.73207 0.0
H2513 H 0.91892 0.47296 0.75602 0.0
H2514 H 0.90749 0.48277 0.74248 0.0
H2515 H 0.91499 0.46997 0.72767 0.0
C2516 C 0.87274 0.48916 0.71095 0.0
C2517 C 0.88337 0.4926 0.69258 0.0
C2518 C 0.8694 0.47496 0.72452 0.0
C2519 C 0.87661 0.46402 0.71986 0.0
C2520 C 0.88615 0.46665 0.70081 0.0
H2521 H 0.87077 0.37102 0.77834 0.0
H2522 H 0.86518 0.39094 0.75604 0.0
C2523 C 0.88954 0.48082 0.68732 0.0
C2524 C 0.87592 0.45112 0.73583 0.0
H2525 H 0.90277 0.44328 0.76849 0.0
C2526 C 0.85967 0.43563 0.74018 0.0
C2527 C 0.89155 0.45411 0.74655 0.0
C2528 C 0.90922 0.47091 0.74314 0.0
C2529 C 0.85875 0.42276 0.75467 0.0
C2530 C 0.87454 0.42548 0.76476 0.0
C2531 C 0.89067 0.44119 0.76071 0.0
C2532 C 0.875 0.41224 0.77939 0.0
C2533 C 0.84093 0.40649 0.75915 0.0
C2534 C 0.88225 0.41754 0.79996 0.0
C2535 C 0.88571 0.40633 0.81257 0.0
C2536 C 0.88195 0.38955 0.80488 0.0
C2537 C 0.87376 0.38384 0.78475 0.0
C2538 C 0.87044 0.39516 0.77203 0.0
H2539 H 0.82975 0.40879 0.75514 0.0
H2540 H 0.83953 0.39526 0.74918 0.0
H2541 H 0.83979 0.4025 0.77623 0.0
H2542 H 0.88589 0.43066 0.80594 0.0
H2543 H 0.89188 0.41108 0.82808 0.0
H2544 H 0.43433 0.12481 0.09422 0.0
H2545 H 0.43331 0.13441 0.05746 0.0
H2546 H 0.48134 0.13331 0.0424 0.0
H2547 H 0.48265 0.12427 0.07911 0.0
H2548 H 0.47955 0.16231 0.02345 0.0
H2549 H 0.41803 0.0967 0.0099 0.0
H2550 H 0.41759 0.11053 0.03106 0.0
H2551 H 0.43173 0.10097 0.03334 0.0
C2552 C 0.44484 0.12703 0.08312 0.0
C2553 C 0.45843 0.12359 0.08925 0.0
C2554 C 0.4442 0.13239 0.06217 0.0
C2555 C 0.4571 0.13429 0.04717 0.0
C2556 C 0.47124 0.13188 0.05372 0.0
H2557 H 0.48604 0.12958 0.92356 0.0
H2558 H 0.48426 0.13803 0.9604 0.0
C2559 C 0.4719 0.12658 0.0746 0.0
C2560 C 0.4552 0.13697 0.02416 0.0
H2561 H 0.43212 0.11403 0.97989 0.0
C2562 C 0.46897 0.15196 0.01392 0.0
C2563 C 0.44131 0.12349 0.01181 0.0
C2564 C 0.42634 0.10694 0.02196 0.0
C2565 C 0.4698 0.15328 0.99151 0.0
C2566 C 0.45668 0.13912 0.97916 0.0
C2567 C 0.44217 0.12485 0.98943 0.0
C2568 C 0.4591 0.13731 0.95603 0.0
C2569 C 0.48506 0.1695 0.98129 0.0
C2570 C 0.44556 0.13409 0.94131 0.0
C2571 C 0.44651 0.12907 0.92028 0.0
C2572 C 0.4609 0.12703 0.91385 0.0
C2573 C 0.4748 0.13103 0.92827 0.0
C2574 C 0.47388 0.13607 0.94921 0.0
H2575 H 0.48969 0.18141 0.99172 0.0
H2576 H 0.49643 0.16715 0.97903 0.0
H2577 H 0.48125 0.17238 0.96544 0.0
H2578 H 0.43394 0.13475 0.94634 0.0
H2579 H 0.43559 0.12593 0.90939 0.0
H2580 H 0.3252 0.47626 0.09131 0.0
H2581 H 0.3147 0.47512 0.05443 0.0
H2582 H 0.32349 0.43129 0.04071 0.0
H2583 H 0.33375 0.43235 0.07742 0.0
H2584 H 0.33697 0.48135 0.0205 0.0
H2585 H 0.27657 0.41566 0.01011 0.0
H2586 H 0.28467 0.4255 0.03615 0.0
H2587 H 0.29397 0.41355 0.02285 0.0
C2588 C 0.32436 0.4661 0.08049 0.0
C2589 C 0.33029 0.45443 0.08695 0.0
C2590 C 0.31838 0.46544 0.05952 0.0
C2591 C 0.31806 0.45295 0.04493 0.0
C2592 C 0.32318 0.44073 0.05182 0.0
H2593 H 0.33603 0.43382 0.92169 0.0
H2594 H 0.32614 0.43322 0.95852 0.0
C2595 C 0.32921 0.44145 0.07268 0.0
C2596 C 0.31523 0.45431 0.0218 0.0
H2597 H 0.29468 0.42859 0.97805 0.0
C2598 C 0.32736 0.47003 0.01119 0.0
C2599 C 0.30266 0.43952 0.00976 0.0
C2600 C 0.28862 0.42268 0.02036 0.0
C2601 C 0.32842 0.47079 0.98878 0.0
C2602 C 0.31675 0.4555 0.97674 0.0
C2603 C 0.30366 0.44026 0.98733 0.0
C2604 C 0.31983 0.45421 0.95368 0.0
C2605 C 0.34298 0.48743 0.9783 0.0
C2606 C 0.31899 0.46579 0.93861 0.0
C2607 C 0.32483 0.46625 0.91761 0.0
C2608 C 0.33144 0.45505 0.9115 0.0
C2609 C 0.33116 0.44269 0.9262 0.0
C2610 C 0.32541 0.44228 0.94714 0.0
H2611 H 0.35249 0.49705 0.99015 0.0
H2612 H 0.35055 0.48402 0.96674 0.0
H2613 H 0.33694 0.49416 0.96935 0.0
H2614 H 0.31447 0.47491 0.94328 0.0
H2615 H 0.32491 0.47585 0.90642 0.0
H2616 H 0.84914 0.3269 0.08873 0.0
H2617 H 0.83916 0.31591 0.05216 0.0
H2618 H 0.89084 0.32236 0.03816 0.0
H2619 H 0.90062 0.33298 0.07465 0.0
H2620 H 0.85456 0.3363 0.01714 0.0
H2621 H 0.85816 0.27477 0.01011 0.0
H2622 H 0.85735 0.28408 0.0357 0.0
H2623 H 0.87821 0.2923 0.02173 0.0
C2624 C 0.85813 0.3255 0.0779 0.0
C2625 C 0.87559 0.33072 0.08428 0.0
C2626 C 0.85245 0.31924 0.05711 0.0
C2627 C 0.86414 0.31798 0.04257 0.0
C2628 C 0.88142 0.32271 0.04927 0.0
H2629 H 0.90077 0.33383 0.92056 0.0
H2630 H 0.89098 0.32378 0.9572 0.0
C2631 C 0.88708 0.32898 0.06998 0.0
C2632 C 0.85946 0.31434 0.01963 0.0
H2633 H 0.86348 0.29194 0.97708 0.0
C2634 C 0.85591 0.32623 0.00837 0.0
C2635 C 0.86114 0.30113 0.00831 0.0
C2636 C 0.86373 0.28723 0.01966 0.0
C2637 C 0.85581 0.32645 0.98594 0.0
C2638 C 0.85906 0.31423 0.97457 0.0
C2639 C 0.86108 0.30134 0.98585 0.0
C2640 C 0.86359 0.31679 0.95156 0.0
C2641 C 0.8538 0.34075 0.97463 0.0
C2642 C 0.85124 0.31552 0.93608 0.0
C2643 C 0.85688 0.32137 0.91514 0.0
C2644 C 0.87486 0.32846 0.90957 0.0
C2645 C 0.88686 0.3285 0.92465 0.0
C2646 C 0.88126 0.32269 0.94549 0.0
H2647 H 0.85347 0.35046 0.98597 0.0
H2648 H 0.86495 0.34813 0.96322 0.0
H2649 H 0.84119 0.33449 0.96536 0.0
H2650 H 0.8375 0.31082 0.94045 0.0
H2651 H 0.84745 0.32125 0.90367 0.0
H2652 H 0.56615 0.87475 0.09093 0.0
H2653 H 0.5693 0.86679 0.05404 0.0
H2654 H 0.51953 0.86372 0.0372 0.0
H2655 H 0.51614 0.8711 0.07401 0.0
H2656 H 0.52478 0.83759 0.01692 0.0
H2657 H 0.58366 0.90595 0.00889 0.0
H2658 H 0.58458 0.89173 0.02918 0.0
H2659 H 0.56899 0.89956 0.0317 0.0
C2660 C 0.55571 0.8719 0.07941 0.0
C2661 C 0.54103 0.87375 0.08505 0.0
C2662 C 0.55757 0.86749 0.05838 0.0
C2663 C 0.54481 0.865 0.04284 0.0
C2664 C 0.52956 0.86564 0.04894 0.0
H2665 H 0.51892 0.87387 0.91925 0.0
H2666 H 0.52057 0.86494 0.95593 0.0
C2667 C 0.52768 0.86997 0.06988 0.0
C2668 C 0.54794 0.86371 0.0198 0.0
H2669 H 0.57155 0.88978 0.97754 0.0
C2670 C 0.53525 0.84882 0.00831 0.0
C2671 C 0.56168 0.87836 0.00863 0.0
C2672 C 0.57548 0.89488 0.02011 0.0
C2673 C 0.53525 0.84868 0.98586 0.0
C2674 C 0.54812 0.8639 0.97473 0.0
C2675 C 0.56168 0.87815 0.98619 0.0
C2676 C 0.54619 0.86663 0.95174 0.0
C2677 C 0.52102 0.83257 0.97425 0.0
C2678 C 0.5601 0.87066 0.93727 0.0
C2679 C 0.55918 0.87585 0.91632 0.0
C2680 C 0.54447 0.87732 0.90976 0.0
C2681 C 0.53038 0.87284 0.92405 0.0
C2682 C 0.53124 0.86754 0.94488 0.0
H2683 H 0.51643 0.82028 0.98393 0.0
H2684 H 0.50936 0.83435 0.97141 0.0
H2685 H 0.52589 0.83076 0.95853 0.0
H2686 H 0.57185 0.87028 0.94237 0.0
H2687 H 0.57023 0.87938 0.90551 0.0
H2688 H 0.66315 0.5685 0.07456 0.0
H2689 H 0.67265 0.56902 0.03753 0.0
H2690 H 0.68475 0.52757 0.05235 0.0
H2691 H 0.67486 0.5268 0.08945 0.0
H2692 H 0.70446 0.57326 0.01743 0.0
H2693 H 0.64525 0.50552 0.00638 0.0
H2694 H 0.64771 0.51896 0.02956 0.0
H2695 H 0.66081 0.50827 0.02713 0.0
C2696 C 0.66809 0.5597 0.06992 0.0
C2697 C 0.6681 0.54746 0.08457 0.0
C2698 C 0.67359 0.56006 0.04888 0.0
C2699 C 0.67918 0.54817 0.04219 0.0
C2700 C 0.68029 0.5367 0.05719 0.0
H2701 H 0.67218 0.52443 0.90505 0.0
H2702 H 0.68217 0.52546 0.94214 0.0
C2703 C 0.67474 0.53632 0.0783 0.0
C2704 C 0.68186 0.54668 0.01909 0.0
H2705 H 0.66067 0.52078 0.97574 0.0
C2706 C 0.69514 0.56166 0.0083 0.0
C2707 C 0.66973 0.53147 0.00728 0.0
C2708 C 0.65498 0.51514 0.01805 0.0
C2709 C 0.69599 0.56218 0.98586 0.0
C2710 C 0.68302 0.54748 0.97403 0.0
C2711 C 0.67058 0.53204 0.98487 0.0
C2712 C 0.68031 0.54867 0.95083 0.0
C2713 C 0.71039 0.57867 0.97504 0.0
C2714 C 0.67614 0.56145 0.94343 0.0
C2715 C 0.67048 0.56086 0.92241 0.0
C2716 C 0.66878 0.54741 0.9085 0.0
C2717 C 0.67358 0.53501 0.91555 0.0
C2718 C 0.67925 0.53559 0.93665 0.0
H2719 H 0.72254 0.58537 0.98518 0.0
H2720 H 0.71402 0.57551 0.95925 0.0
H2721 H 0.70556 0.58823 0.97254 0.0
H2722 H 0.67635 0.57134 0.95422 0.0
H2723 H 0.66675 0.57049 0.91722 0.0
H2724 H 0.12661 0.64344 0.9175 0.0
H2725 H 0.13331 0.6539 0.95453 0.0
H2726 H 0.12486 0.69768 0.93914 0.0
H2727 H 0.11763 0.68687 0.90206 0.0
H2728 H 0.15794 0.68639 0.9744 0.0
H2729 H 0.08744 0.66999 0.9854 0.0
H2730 H 0.09451 0.66282 0.96214 0.0
H2731 H 0.10011 0.68568 0.96472 0.0
C2732 C 0.1264 0.65541 0.92201 0.0
C2733 C 0.12146 0.66428 0.90715 0.0
C2734 C 0.13032 0.66144 0.94307 0.0
C2735 C 0.12934 0.67642 0.9496 0.0
C2736 C 0.12545 0.68595 0.93444 0.0
H2737 H 0.11787 0.68806 0.08764 0.0
H2738 H 0.12525 0.69836 0.05036 0.0
C2739 C 0.12147 0.67987 0.91331 0.0
C2740 C 0.13077 0.68074 0.97268 0.0
H2741 H 0.10495 0.67628 0.01606 0.0
C2742 C 0.14649 0.68457 0.98351 0.0
C2743 C 0.11582 0.67844 0.98448 0.0
C2744 C 0.09845 0.67391 0.97372 0.0
C2745 C 0.14729 0.68508 0.00594 0.0
C2746 C 0.13193 0.68147 0.01772 0.0
C2747 C 0.11669 0.67903 0.00691 0.0
C2748 C 0.13032 0.67728 0.04082 0.0
C2749 C 0.1643 0.68872 0.01687 0.0
C2750 C 0.13082 0.66212 0.04771 0.0
C2751 C 0.12646 0.65619 0.06876 0.0
C2752 C 0.12157 0.66534 0.08324 0.0
C2753 C 0.12175 0.68091 0.07667 0.0
C2754 C 0.12595 0.68678 0.05549 0.0
H2755 H 0.17608 0.69682 0.00653 0.0
H2756 H 0.16611 0.69579 0.0323 0.0
H2757 H 0.16377 0.67588 0.02019 0.0
H2758 H 0.13376 0.65438 0.03653 0.0
H2759 H 0.12639 0.64414 0.07358 0.0
H2760 H 0.87098 0.5147 0.41804 0.0
H2761 H 0.86306 0.51704 0.45492 0.0
H2762 H 0.86785 0.568 0.44058 0.0
H2763 H 0.87615 0.56575 0.40355 0.0
H2764 H 0.88854 0.56948 0.4739 0.0
H2765 H 0.82068 0.51315 0.48687 0.0
H2766 H 0.83426 0.50568 0.47398 0.0
H2767 H 0.82951 0.52121 0.46043 0.0
C2768 C 0.86996 0.5262 0.42269 0.0
C2769 C 0.87425 0.5401 0.40817 0.0
C2770 C 0.86522 0.52745 0.44367 0.0
C2771 C 0.86458 0.54257 0.45043 0.0
C2772 C 0.86806 0.55613 0.43561 0.0
H2773 H 0.87777 0.56634 0.58911 0.0
H2774 H 0.86875 0.56821 0.55229 0.0
C2775 C 0.87277 0.55484 0.41453 0.0
C2776 C 0.86312 0.54524 0.47357 0.0
H2777 H 0.84036 0.52272 0.51822 0.0
C2778 C 0.87774 0.5596 0.48362 0.0
C2779 C 0.84899 0.53237 0.48617 0.0
C2780 C 0.8324 0.51735 0.47624 0.0
C2781 C 0.87943 0.56045 0.50597 0.0
C2782 C 0.86601 0.5467 0.5185 0.0
C2783 C 0.85069 0.53317 0.50853 0.0
C2784 C 0.86902 0.54465 0.54134 0.0
C2785 C 0.89624 0.57522 0.5159 0.0
C2786 C 0.87154 0.53048 0.54741 0.0
C2787 C 0.87659 0.52938 0.56828 0.0
C2788 C 0.87916 0.5424 0.58341 0.0
C2789 C 0.87586 0.55615 0.57764 0.0
C2790 C 0.8708 0.55727 0.55668 0.0
H2791 H 0.90623 0.58368 0.50369 0.0
H2792 H 0.89293 0.58387 0.52568 0.0
H2793 H 0.90239 0.56959 0.52667 0.0
H2794 H 0.87022 0.52061 0.53579 0.0
H2795 H 0.87877 0.51849 0.57249 0.0
H2796 H 0.35725 0.87336 0.42301 0.0
H2797 H 0.34783 0.86586 0.46026 0.0
H2798 H 0.3005 0.86882 0.44694 0.0
H2799 H 0.31011 0.87659 0.40953 0.0
H2800 H 0.32053 0.8903 0.48026 0.0
H2801 H 0.30973 0.82247 0.49211 0.0
H2802 H 0.33046 0.83653 0.47877 0.0
H2803 H 0.30981 0.83135 0.4659 0.0
C2804 C 0.34468 0.87207 0.42799 0.0
C2805 C 0.33442 0.87561 0.41361 0.0
C2806 C 0.3392 0.86759 0.44917 0.0
C2807 C 0.32332 0.8665 0.45628 0.0
C2808 C 0.31269 0.86938 0.44168 0.0
H2809 H 0.31044 0.87784 0.59477 0.0
H2810 H 0.30056 0.86937 0.55753 0.0
C2811 C 0.31815 0.87379 0.4204 0.0
C2812 C 0.31941 0.86492 0.47948 0.0
H2813 H 0.31871 0.8415 0.52372 0.0
C2814 C 0.31958 0.87939 0.48979 0.0
C2815 C 0.31815 0.85065 0.49181 0.0
C2816 C 0.31683 0.83429 0.48153 0.0
C2817 C 0.32015 0.88074 0.51217 0.0
C2818 C 0.32023 0.86708 0.52448 0.0
C2819 C 0.31872 0.85198 0.51421 0.0
C2820 C 0.32457 0.86954 0.54756 0.0
C2821 C 0.32207 0.89741 0.5224 0.0
C2822 C 0.34097 0.87171 0.55436 0.0
C2823 C 0.34653 0.87642 0.57547 0.0
C2824 C 0.33577 0.879 0.59013 0.0
C2825 C 0.31894 0.87592 0.58366 0.0
C2826 C 0.31335 0.87119 0.56246 0.0
H2827 H 0.32419 0.90774 0.51038 0.0
H2828 H 0.30981 0.89402 0.53155 0.0
H2829 H 0.33345 0.90317 0.53377 0.0
H2830 H 0.3498 0.87047 0.5431 0.0
H2831 H 0.35945 0.87849 0.58023 0.0
H2832 H 0.48489 0.35498 0.41946 0.0
H2833 H 0.48256 0.3449 0.45643 0.0
H2834 H 0.43017 0.30043 0.4433 0.0
H2835 H 0.4324 0.31083 0.4062 0.0
H2836 H 0.43034 0.32024 0.47666 0.0
H2837 H 0.48471 0.30551 0.48823 0.0
H2838 H 0.49294 0.32671 0.47545 0.0
H2839 H 0.47663 0.30676 0.46197 0.0
C2840 C 0.47305 0.34285 0.4244 0.0
C2841 C 0.45879 0.33369 0.41019 0.0
C2842 C 0.4718 0.33696 0.44542 0.0
C2843 C 0.45631 0.32173 0.45255 0.0
C2844 C 0.44232 0.31209 0.43805 0.0
H2845 H 0.43329 0.31063 0.59132 0.0
H2846 H 0.4312 0.3002 0.55424 0.0
C2847 C 0.4436 0.318 0.41693 0.0
C2848 C 0.45386 0.31778 0.47576 0.0
H2849 H 0.47622 0.31624 0.51992 0.0
C2850 C 0.44003 0.31878 0.48613 0.0
C2851 C 0.46648 0.31583 0.48805 0.0
C2852 C 0.4809 0.31345 0.47778 0.0
C2853 C 0.43945 0.31958 0.50851 0.0
C2854 C 0.45294 0.31911 0.52075 0.0
C2855 C 0.46597 0.31671 0.51045 0.0
C2856 C 0.4552 0.32378 0.54372 0.0
C2857 C 0.42524 0.32234 0.51881 0.0
C2858 C 0.4697 0.34014 0.55012 0.0
C2859 C 0.47092 0.34604 0.57114 0.0
C2860 C 0.4577 0.33563 0.58609 0.0
C2861 C 0.44364 0.31885 0.57999 0.0
C2862 C 0.4424 0.31294 0.55889 0.0
H2863 H 0.41706 0.32452 0.50682 0.0
H2864 H 0.41625 0.31042 0.52843 0.0
H2865 H 0.4314 0.33398 0.52978 0.0
H2866 H 0.4797 0.34869 0.53862 0.0
H2867 H 0.48199 0.35893 0.5756 0.0
H2868 H 0.09655 0.43005 0.41822 0.0
H2869 H 0.10575 0.42889 0.45496 0.0
H2870 H 0.15883 0.47162 0.44075 0.0
H2871 H 0.14944 0.47305 0.40397 0.0
H2872 H 0.13347 0.42505 0.47467 0.0
H2873 H 0.14082 0.49213 0.48765 0.0
H2874 H 0.13017 0.47906 0.46411 0.0
H2875 H 0.15397 0.4901 0.46678 0.0
C2876 C 0.11024 0.43898 0.42291 0.0
C2877 C 0.12225 0.45179 0.40856 0.0
C2878 C 0.11551 0.43826 0.44379 0.0
C2879 C 0.13289 0.45034 0.45062 0.0
C2880 C 0.14529 0.46235 0.43583 0.0
H2881 H 0.14866 0.47266 0.5879 0.0
H2882 H 0.15814 0.47185 0.55103 0.0
C2883 C 0.13998 0.4631 0.41489 0.0
C2884 C 0.13707 0.45151 0.47372 0.0
H2885 H 0.14132 0.47657 0.51778 0.0
C2886 C 0.13557 0.43646 0.48411 0.0
C2887 C 0.1399 0.46645 0.48596 0.0
C2888 C 0.14122 0.48285 0.47569 0.0
C2889 C 0.13586 0.43557 0.50653 0.0
C2890 C 0.13736 0.44998 0.51878 0.0
C2891 C 0.14017 0.46552 0.50835 0.0
C2892 C 0.13339 0.4484 0.542 0.0
C2893 C 0.13399 0.419 0.51688 0.0
C2894 C 0.11649 0.43531 0.54923 0.0
C2895 C 0.11114 0.43578 0.57016 0.0
C2896 C 0.12251 0.44942 0.5841 0.0
C2897 C 0.13974 0.46198 0.57733 0.0
C2898 C 0.14513 0.46152 0.55635 0.0
H2899 H 0.13971 0.41268 0.50655 0.0
H2900 H 0.14065 0.42196 0.53275 0.0
H2901 H 0.11963 0.4092 0.51912 0.0
H2902 H 0.10702 0.42535 0.53833 0.0
H2903 H 0.09779 0.42599 0.57515 0.0
H2904 H 0.69079 0.12237 0.40598 0.0
H2905 H 0.7017 0.13177 0.4427 0.0
H2906 H 0.65257 0.13032 0.45883 0.0
H2907 H 0.64187 0.12135 0.42217 0.0
H2908 H 0.68459 0.16032 0.47635 0.0
H2909 H 0.67955 0.09446 0.49149 0.0
H2910 H 0.69308 0.10765 0.46946 0.0
H2911 H 0.66936 0.09824 0.4684 0.0
C2912 C 0.68252 0.12438 0.41734 0.0
C2913 C 0.66544 0.12096 0.41148 0.0
C2914 C 0.6887 0.12966 0.43825 0.0
C2915 C 0.67784 0.13154 0.45346 0.0
C2916 C 0.66114 0.12893 0.44729 0.0
H2917 H 0.64599 0.13026 0.57657 0.0
H2918 H 0.65642 0.13823 0.53976 0.0
C2919 C 0.65498 0.12367 0.42646 0.0
C2920 C 0.68287 0.13465 0.47631 0.0
H2921 H 0.68316 0.11234 0.5211 0.0
C2922 C 0.6847 0.15004 0.48614 0.0
C2923 C 0.6832 0.12128 0.48896 0.0
C2924 C 0.68112 0.10441 0.47918 0.0
C2925 C 0.68566 0.15187 0.50848 0.0
C2926 C 0.68439 0.13779 0.52121 0.0
C2927 C 0.68408 0.1231 0.51129 0.0
C2928 C 0.68027 0.13644 0.54436 0.0
C2929 C 0.68731 0.16854 0.51826 0.0
C2930 C 0.6902 0.1328 0.55923 0.0
C2931 C 0.6841 0.12806 0.58027 0.0
C2932 C 0.66793 0.12672 0.58654 0.0
C2933 C 0.65849 0.13121 0.57199 0.0
C2934 C 0.66457 0.13596 0.55106 0.0
H2935 H 0.69492 0.1802 0.50757 0.0
H2936 H 0.67381 0.16679 0.52037 0.0
H2937 H 0.69399 0.17145 0.53411 0.0
H2938 H 0.70222 0.13287 0.55431 0.0
H2939 H 0.6915 0.12451 0.59127 0.0
H2940 H 0.56706 0.6678 0.57524 0.0
H2941 H 0.56811 0.67852 0.5388 0.0
H2942 H 0.52357 0.68609 0.55288 0.0
H2943 H 0.52242 0.67509 0.5895 0.0
H2944 H 0.51775 0.66459 0.51864 0.0
H2945 H 0.58311 0.72537 0.50881 0.0
H2946 H 0.58561 0.70809 0.52122 0.0
H2947 H 0.57337 0.71695 0.53481 0.0
C2948 C 0.55781 0.6722 0.57066 0.0
C2949 C 0.54465 0.67064 0.58494 0.0
C2950 C 0.55852 0.67849 0.54995 0.0
C2951 C 0.54611 0.6834 0.54322 0.0
C2952 C 0.53341 0.6826 0.55785 0.0
H2953 H 0.52464 0.67681 0.40431 0.0
H2954 H 0.52514 0.6874 0.441 0.0
C2955 C 0.53275 0.67633 0.57867 0.0
C2956 C 0.54475 0.68642 0.52015 0.0
H2957 H 0.57067 0.70708 0.4766 0.0
C2958 C 0.5291 0.67426 0.50943 0.0
C2959 C 0.55955 0.69909 0.50822 0.0
C2960 C 0.57628 0.71322 0.51893 0.0
C2961 C 0.52847 0.67323 0.48702 0.0
C2962 C 0.54383 0.68491 0.47511 0.0
C2963 C 0.55896 0.69808 0.4858 0.0
C2964 C 0.54537 0.68164 0.45219 0.0
C2965 C 0.51192 0.65866 0.47638 0.0
C2966 C 0.55713 0.6757 0.4462 0.0
C2967 C 0.55693 0.66981 0.4254 0.0
C2968 C 0.54497 0.66978 0.41027 0.0
C2969 C 0.53393 0.6767 0.41583 0.0
C2970 C 0.53415 0.68265 0.43672 0.0
H2971 H 0.50207 0.64933 0.48817 0.0
H2972 H 0.50546 0.6647 0.46691 0.0
H2973 H 0.51543 0.65089 0.46525 0.0
H2974 H 0.56589 0.67482 0.45791 0.0
H2975 H 0.56568 0.66469 0.4213 0.0
loop_
_geom_bond_atom_site_label_1
_geom_bond_atom_site_label_2
_geom_bond_distance
_geom_bond_site_symmetry_2
_ccdc_geom_bond_type
Co0 O3 1.970 . S
Co0 N17 1.989 . S
Co0 O25 1.967 . S
Co0 O32 1.920 . S
Co1 O4 1.966 . S
Co1 N10 2.022 . S
Co1 N18 1.993 . S
Co1 O26 1.941 . S
C2 O3 1.258 . S
C2 O4 1.263 . S
O3 Co0 1.970 . S
O3 C2 1.258 . S
O4 Co1 1.966 . S
O4 C2 1.263 . S
C5 O6 1.235 . S
C5 O32 1.289 . S
O6 C5 1.235 . S
C7 C9 1.400 . S
C7 N10 1.351 . S
C7 C12 1.501 . S
C8 C9 1.387 . S
C8 N11 1.341 . S
C9 C7 1.400 . S
C9 C8 1.387 . S
N10 Co1 2.022 . S
N10 C7 1.351 . S
N10 N11 1.365 . S
N11 C8 1.341 . S
N11 N10 1.365 . S
N11 H31 0.862 . S
C12 C7 1.501 . S
C12 H13 0.961 . S
C12 H14 0.961 . S
C12 H15 0.960 . S
H13 C12 0.961 . S
H14 C12 0.961 . S
H15 C12 0.960 . S
C16 N17 1.342 . S
C16 C20 1.401 . S
C16 C21 1.499 . S
N17 Co0 1.989 . S
N17 C16 1.342 . S
N17 N18 1.388 . S
N18 Co1 1.993 . S
N18 N17 1.388 . S
N18 C19 1.346 . S
C19 N18 1.346 . S
C19 C20 1.396 . S
C19 C29 1.510 . S
C20 C16 1.401 . S
C20 C19 1.396 . S
C21 C16 1.499 . S
C21 H22 0.959 . S
C21 H23 0.960 . S
C21 H24 0.961 . S
H22 C21 0.959 . S
H23 C21 0.960 . S
H24 C21 0.961 . S
O25 Co0 1.967 . S
O25 C33 1.258 . S
O26 Co1 1.941 . S
O26 C33 1.266 . S
H27 C29 0.959 . S
H28 C29 0.961 . S
C29 C19 1.510 . S
C29 H27 0.959 . S
C29 H28 0.961 . S
C29 H30 0.960 . S
H30 C29 0.960 . S
H31 N11 0.862 . S
O32 Co0 1.920 . S
O32 C5 1.289 . S
C33 O25 1.258 . S
C33 O26 1.266 . S
Co34 O37 1.970 . S
Co34 N51 1.989 . S
Co34 O59 1.967 . S
Co34 O66 1.920 . S
Co35 O38 1.966 . S
Co35 N44 2.022 . S
Co35 N52 1.993 . S
Co35 O60 1.941 . S
C36 O37 1.258 . S
C36 O38 1.263 . S
O37 Co34 1.970 . S
O37 C36 1.258 . S
O38 Co35 1.966 . S
O38 C36 1.263 . S
C39 O40 1.235 . S
C39 O66 1.289 . S
O40 C39 1.235 . S
C41 C43 1.400 . S
C41 N44 1.351 . S
C41 C46 1.501 . S
C42 C43 1.387 . S
C42 N45 1.341 . S
C43 C41 1.400 . S
C43 C42 1.387 . S
N44 Co35 2.022 . S
N44 C41 1.351 . S
N44 N45 1.365 . S
N45 C42 1.341 . S
N45 N44 1.365 . S
N45 H65 0.862 . S
C46 C41 1.501 . S
C46 H47 0.961 . S
C46 H48 0.961 . S
C46 H49 0.960 . S
H47 C46 0.961 . S
H48 C46 0.961 . S
H49 C46 0.960 . S
C50 N51 1.342 . S
C50 C54 1.401 . S
C50 C55 1.499 . S
N51 Co34 1.989 . S
N51 C50 1.342 . S
N51 N52 1.388 . S
N52 Co35 1.993 . S
N52 N51 1.388 . S
N52 C53 1.346 . S
C53 N52 1.346 . S
C53 C54 1.396 . S
C53 C63 1.510 . S
C54 C50 1.401 . S
C54 C53 1.396 . S
C55 C50 1.499 . S
C55 H56 0.959 . S
C55 H57 0.960 . S
C55 H58 0.961 . S
H56 C55 0.959 . S
H57 C55 0.960 . S
H58 C55 0.961 . S
O59 Co34 1.967 . S
O59 C67 1.258 . S
O60 Co35 1.941 . S
O60 C67 1.266 . S
H61 C63 0.959 . S
H62 C63 0.961 . S
C63 C53 1.510 . S
C63 H61 0.959 . S
C63 H62 0.961 . S
C63 H64 0.960 . S
H64 C63 0.960 . S
H65 N45 0.862 . S
O66 Co34 1.920 . S
O66 C39 1.289 . S
C67 O59 1.258 . S
C67 O60 1.266 . S
Co68 O71 1.970 . S
Co68 N85 1.989 . S
Co68 O93 1.967 . S
Co68 O100 1.920 . S
Co69 O72 1.966 . S
Co69 N78 2.022 . S
Co69 N86 1.993 . S
Co69 O94 1.941 . S
C70 O71 1.258 . S
C70 O72 1.263 . S
O71 Co68 1.970 . S
O71 C70 1.258 . S
O72 Co69 1.966 . S
O72 C70 1.263 . S
C73 O74 1.235 . S
C73 O100 1.289 . S
O74 C73 1.235 . S
C75 C77 1.400 . S
C75 N78 1.351 . S
C75 C80 1.501 . S
C76 C77 1.387 . S
C76 N79 1.341 . S
C77 C75 1.400 . S
C77 C76 1.387 . S
N78 Co69 2.022 . S
N78 C75 1.351 . S
N78 N79 1.365 . S
N79 C76 1.341 . S
N79 N78 1.365 . S
N79 H99 0.862 . S
C80 C75 1.501 . S
C80 H81 0.961 . S
C80 H82 0.961 . S
C80 H83 0.960 . S
H81 C80 0.961 . S
H82 C80 0.961 . S
H83 C80 0.960 . S
C84 N85 1.342 . S
C84 C88 1.401 . S
C84 C89 1.499 . S
N85 Co68 1.989 . S
N85 C84 1.342 . S
N85 N86 1.388 . S
N86 Co69 1.993 . S
N86 N85 1.388 . S
N86 C87 1.346 . S
C87 N86 1.346 . S
C87 C88 1.396 . S
C87 C97 1.510 . S
C88 C84 1.401 . S
C88 C87 1.396 . S
C89 C84 1.499 . S
C89 H90 0.959 . S
C89 H91 0.960 . S
C89 H92 0.961 . S
H90 C89 0.959 . S
H91 C89 0.960 . S
H92 C89 0.961 . S
O93 Co68 1.967 . S
O93 C101 1.258 . S
O94 Co69 1.941 . S
O94 C101 1.266 . S
H95 C97 0.959 . S
H96 C97 0.961 . S
C97 C87 1.510 . S
C97 H95 0.959 . S
C97 H96 0.961 . S
C97 H98 0.960 . S
H98 C97 0.960 . S
H99 N79 0.862 . S
O100 Co68 1.920 . S
O100 C73 1.289 . S
C101 O93 1.258 . S
C101 O94 1.266 . S
Co102 O105 1.970 . S
Co102 N119 1.989 . S
Co102 O127 1.967 . S
Co102 O134 1.920 . S
Co103 O106 1.966 . S
Co103 N112 2.022 . S
Co103 N120 1.993 . S
Co103 O128 1.941 . S
C104 O105 1.258 . S
C104 O106 1.263 . S
O105 Co102 1.970 . S
O105 C104 1.258 . S
O106 Co103 1.966 . S
O106 C104 1.263 . S
C107 O108 1.235 . S
C107 O134 1.289 . S
O108 C107 1.235 . S
C109 C111 1.400 . S
C109 N112 1.351 . S
C109 C114 1.501 . S
C110 C111 1.387 . S
C110 N113 1.341 . S
C111 C109 1.400 . S
C111 C110 1.387 . S
N112 Co103 2.022 . S
N112 C109 1.351 . S
N112 N113 1.365 . S
N113 C110 1.341 . S
N113 N112 1.365 . S
N113 H133 0.862 . S
C114 C109 1.501 . S
C114 H115 0.961 . S
C114 H116 0.961 . S
C114 H117 0.960 . S
H115 C114 0.961 . S
H116 C114 0.961 . S
H117 C114 0.960 . S
C118 N119 1.342 . S
C118 C122 1.401 . S
C118 C123 1.499 . S
N119 Co102 1.989 . S
N119 C118 1.342 . S
N119 N120 1.388 . S
N120 Co103 1.993 . S
N120 N119 1.388 . S
N120 C121 1.346 . S
C121 N120 1.346 . S
C121 C122 1.396 . S
C121 C131 1.510 . S
C122 C118 1.401 . S
C122 C121 1.396 . S
C123 C118 1.499 . S
C123 H124 0.959 . S
C123 H125 0.960 . S
C123 H126 0.961 . S
H124 C123 0.959 . S
H125 C123 0.960 . S
H126 C123 0.961 . S
O127 Co102 1.967 . S
O127 C135 1.258 . S
O128 Co103 1.941 . S
O128 C135 1.266 . S
H129 C131 0.959 . S
H130 C131 0.961 . S
C131 C121 1.510 . S
C131 H129 0.959 . S
C131 H130 0.961 . S
C131 H132 0.960 . S
H132 C131 0.960 . S
H133 N113 0.862 . S
O134 Co102 1.920 . S
O134 C107 1.289 . S
C135 O127 1.258 . S
C135 O128 1.266 . S
Co136 O139 1.970 . S
Co136 N153 1.989 . S
Co136 O161 1.967 . S
Co136 O168 1.920 . S
Co137 O140 1.966 . S
Co137 N146 2.022 . S
Co137 N154 1.993 . S
Co137 O162 1.941 . S
C138 O139 1.258 . S
C138 O140 1.263 . S
O139 Co136 1.970 . S
O139 C138 1.258 . S
O140 Co137 1.966 . S
O140 C138 1.263 . S
C141 O142 1.235 . S
C141 O168 1.289 . S
O142 C141 1.235 . S
C143 C145 1.400 . S
C143 N146 1.351 . S
C143 C148 1.501 . S
C144 C145 1.387 . S
C144 N147 1.341 . S
C145 C143 1.400 . S
C145 C144 1.387 . S
N146 Co137 2.022 . S
N146 C143 1.351 . S
N146 N147 1.365 . S
N147 C144 1.341 . S
N147 N146 1.365 . S
N147 H167 0.862 . S
C148 C143 1.501 . S
C148 H149 0.961 . S
C148 H150 0.961 . S
C148 H151 0.960 . S
H149 C148 0.961 . S
H150 C148 0.961 . S
H151 C148 0.960 . S
C152 N153 1.342 . S
C152 C156 1.401 . S
C152 C157 1.499 . S
N153 Co136 1.989 . S
N153 C152 1.342 . S
N153 N154 1.388 . S
N154 Co137 1.993 . S
N154 N153 1.388 . S
N154 C155 1.346 . S
C155 N154 1.346 . S
C155 C156 1.396 . S
C155 C165 1.510 . S
C156 C152 1.401 . S
C156 C155 1.396 . S
C157 C152 1.499 . S
C157 H158 0.959 . S
C157 H159 0.960 . S
C157 H160 0.961 . S
H158 C157 0.959 . S
H159 C157 0.960 . S
H160 C157 0.961 . S
O161 Co136 1.967 . S
O161 C169 1.258 . S
O162 Co137 1.941 . S
O162 C169 1.266 . S
H163 C165 0.959 . S
H164 C165 0.961 . S
C165 C155 1.510 . S
C165 H163 0.959 . S
C165 H164 0.961 . S
C165 H166 0.960 . S
H166 C165 0.960 . S
H167 N147 0.862 . S
O168 Co136 1.920 . S
O168 C141 1.289 . S
C169 O161 1.258 . S
C169 O162 1.266 . S
Co170 O173 1.970 . S
Co170 N187 1.989 . S
Co170 O195 1.967 . S
Co170 O202 1.920 . S
Co171 O174 1.966 . S
Co171 N180 2.022 . S
Co171 N188 1.993 . S
Co171 O196 1.941 . S
C172 O173 1.258 . S
C172 O174 1.263 . S
O173 Co170 1.970 . S
O173 C172 1.258 . S
O174 Co171 1.966 . S
O174 C172 1.263 . S
C175 O176 1.235 . S
C175 O202 1.289 . S
O176 C175 1.235 . S
C177 C179 1.400 . S
C177 N180 1.351 . S
C177 C182 1.501 . S
C178 C179 1.387 . S
C178 N181 1.341 . S
C179 C177 1.400 . S
C179 C178 1.387 . S
N180 Co171 2.022 . S
N180 C177 1.351 . S
N180 N181 1.365 . S
N181 C178 1.341 . S
N181 N180 1.365 . S
N181 H201 0.862 . S
C182 C177 1.501 . S
C182 H183 0.961 . S
C182 H184 0.961 . S
C182 H185 0.960 . S
H183 C182 0.961 . S
H184 C182 0.961 . S
H185 C182 0.960 . S
C186 N187 1.342 . S
C186 C190 1.401 . S
C186 C191 1.499 . S
N187 Co170 1.989 . S
N187 C186 1.342 . S
N187 N188 1.388 . S
N188 Co171 1.993 . S
N188 N187 1.388 . S
N188 C189 1.346 . S
C189 N188 1.346 . S
C189 C190 1.396 . S
C189 C199 1.510 . S
C190 C186 1.401 . S
C190 C189 1.396 . S
C191 C186 1.499 . S
C191 H192 0.959 . S
C191 H193 0.960 . S
C191 H194 0.961 . S
H192 C191 0.959 . S
H193 C191 0.960 . S
H194 C191 0.961 . S
O195 Co170 1.967 . S
O195 C203 1.258 . S
O196 Co171 1.941 . S
O196 C203 1.266 . S
H197 C199 0.959 . S
H198 C199 0.961 . S
C199 C189 1.510 . S
C199 H197 0.959 . S
C199 H198 0.961 . S
C199 H200 0.960 . S
H200 C199 0.960 . S
H201 N181 0.862 . S
O202 Co170 1.920 . S
O202 C175 1.289 . S
C203 O195 1.258 . S
C203 O196 1.266 . S
Co204 O207 1.970 . S
Co204 N221 1.989 . S
Co204 O229 1.967 . S
Co204 O236 1.920 . S
Co205 O208 1.966 . S
Co205 N214 2.022 . S
Co205 N222 1.993 . S
Co205 O230 1.941 . S
C206 O207 1.258 . S
C206 O208 1.263 . S
O207 Co204 1.970 . S
O207 C206 1.258 . S
O208 Co205 1.966 . S
O208 C206 1.263 . S
C209 O210 1.235 . S
C209 O236 1.289 . S
O210 C209 1.235 . S
C211 C213 1.400 . S
C211 N214 1.351 . S
C211 C216 1.501 . S
C212 C213 1.387 . S
C212 N215 1.341 . S
C213 C211 1.400 . S
C213 C212 1.387 . S
N214 Co205 2.022 . S
N214 C211 1.351 . S
N214 N215 1.365 . S
N215 C212 1.341 . S
N215 N214 1.365 . S
N215 H235 0.862 . S
C216 C211 1.501 . S
C216 H217 0.961 . S
C216 H218 0.961 . S
C216 H219 0.960 . S
H217 C216 0.961 . S
H218 C216 0.961 . S
H219 C216 0.960 . S
C220 N221 1.342 . S
C220 C224 1.401 . S
C220 C225 1.499 . S
N221 Co204 1.989 . S
N221 C220 1.342 . S
N221 N222 1.388 . S
N222 Co205 1.993 . S
N222 N221 1.388 . S
N222 C223 1.346 . S
C223 N222 1.346 . S
C223 C224 1.396 . S
C223 C233 1.510 . S
C224 C220 1.401 . S
C224 C223 1.396 . S
C225 C220 1.499 . S
C225 H226 0.959 . S
C225 H227 0.960 . S
C225 H228 0.961 . S
H226 C225 0.959 . S
H227 C225 0.960 . S
H228 C225 0.961 . S
O229 Co204 1.967 . S
O229 C237 1.258 . S
O230 Co205 1.941 . S
O230 C237 1.266 . S
H231 C233 0.959 . S
H232 C233 0.961 . S
C233 C223 1.510 . S
C233 H231 0.959 . S
C233 H232 0.961 . S
C233 H234 0.960 . S
H234 C233 0.960 . S
H235 N215 0.862 . S
O236 Co204 1.920 . S
O236 C209 1.289 . S
C237 O229 1.258 . S
C237 O230 1.266 . S
Co238 O241 1.970 . S
Co238 N255 1.989 . S
Co238 O263 1.967 . S
Co238 O270 1.920 . S
Co239 O242 1.966 . S
Co239 N248 2.022 . S
Co239 N256 1.993 . S
Co239 O264 1.941 . S
C240 O241 1.258 . S
C240 O242 1.263 . S
O241 Co238 1.970 . S
O241 C240 1.258 . S
O242 Co239 1.966 . S
O242 C240 1.263 . S
C243 O244 1.235 . S
C243 O270 1.289 . S
O244 C243 1.235 . S
C245 C247 1.400 . S
C245 N248 1.351 . S
C245 C250 1.501 . S
C246 C247 1.387 . S
C246 N249 1.341 . S
C247 C245 1.400 . S
C247 C246 1.387 . S
N248 Co239 2.022 . S
N248 C245 1.351 . S
N248 N249 1.365 . S
N249 C246 1.341 . S
N249 N248 1.365 . S
N249 H269 0.862 . S
C250 C245 1.501 . S
C250 H251 0.961 . S
C250 H252 0.961 . S
C250 H253 0.960 . S
H251 C250 0.961 . S
H252 C250 0.961 . S
H253 C250 0.960 . S
C254 N255 1.342 . S
C254 C258 1.401 . S
C254 C259 1.499 . S
N255 Co238 1.989 . S
N255 C254 1.342 . S
N255 N256 1.388 . S
N256 Co239 1.993 . S
N256 N255 1.388 . S
N256 C257 1.346 . S
C257 N256 1.346 . S
C257 C258 1.396 . S
C257 C267 1.510 . S
C258 C254 1.401 . S
C258 C257 1.396 . S
C259 C254 1.499 . S
C259 H260 0.959 . S
C259 H261 0.960 . S
C259 H262 0.961 . S
H260 C259 0.959 . S
H261 C259 0.960 . S
H262 C259 0.961 . S
O263 Co238 1.967 . S
O263 C271 1.258 . S
O264 Co239 1.941 . S
O264 C271 1.266 . S
H265 C267 0.959 . S
H266 C267 0.961 . S
C267 C257 1.510 . S
C267 H265 0.959 . S
C267 H266 0.961 . S
C267 H268 0.960 . S
H268 C267 0.960 . S
H269 N249 0.862 . S
O270 Co238 1.920 . S
O270 C243 1.289 . S
C271 O263 1.258 . S
C271 O264 1.266 . S
Co272 O275 1.970 . S
Co272 N289 1.989 . S
Co272 O297 1.967 . S
Co272 O304 1.920 . S
Co273 O276 1.966 . S
Co273 N282 2.022 . S
Co273 N290 1.993 . S
Co273 O298 1.941 . S
C274 O275 1.258 . S
C274 O276 1.263 . S
O275 Co272 1.970 . S
O275 C274 1.258 . S
O276 Co273 1.966 . S
O276 C274 1.263 . S
C277 O278 1.235 . S
C277 O304 1.289 . S
O278 C277 1.235 . S
C279 C281 1.400 . S
C279 N282 1.351 . S
C279 C284 1.501 . S
C280 C281 1.387 . S
C280 N283 1.341 . S
C281 C279 1.400 . S
C281 C280 1.387 . S
N282 Co273 2.022 . S
N282 C279 1.351 . S
N282 N283 1.365 . S
N283 C280 1.341 . S
N283 N282 1.365 . S
N283 H303 0.862 . S
C284 C279 1.501 . S
C284 H285 0.961 . S
C284 H286 0.961 . S
C284 H287 0.960 . S
H285 C284 0.961 . S
H286 C284 0.961 . S
H287 C284 0.960 . S
C288 N289 1.342 . S
C288 C292 1.401 . S
C288 C293 1.499 . S
N289 Co272 1.989 . S
N289 C288 1.342 . S
N289 N290 1.388 . S
N290 Co273 1.993 . S
N290 N289 1.388 . S
N290 C291 1.346 . S
C291 N290 1.346 . S
C291 C292 1.396 . S
C291 C301 1.510 . S
C292 C288 1.401 . S
C292 C291 1.396 . S
C293 C288 1.499 . S
C293 H294 0.959 . S
C293 H295 0.960 . S
C293 H296 0.961 . S
H294 C293 0.959 . S
H295 C293 0.960 . S
H296 C293 0.961 . S
O297 Co272 1.967 . S
O297 C305 1.258 . S
O298 Co273 1.941 . S
O298 C305 1.266 . S
H299 C301 0.959 . S
H300 C301 0.961 . S
C301 C291 1.510 . S
C301 H299 0.959 . S
C301 H300 0.961 . S
C301 H302 0.960 . S
H302 C301 0.960 . S
H303 N283 0.862 . S
O304 Co272 1.920 . S
O304 C277 1.289 . S
C305 O297 1.258 . S
C305 O298 1.266 . S
Co306 O309 1.970 . S
Co306 N323 1.989 . S
Co306 O331 1.967 . S
Co306 O338 1.920 . S
Co307 O310 1.966 . S
Co307 N316 2.022 . S
Co307 N324 1.993 . S
Co307 O332 1.941 . S
C308 O309 1.258 . S
C308 O310 1.263 . S
O309 Co306 1.970 . S
O309 C308 1.258 . S
O310 Co307 1.966 . S
O310 C308 1.263 . S
C311 O312 1.235 . S
C311 O338 1.289 . S
O312 C311 1.235 . S
C313 C315 1.400 . S
C313 N316 1.351 . S
C313 C318 1.501 . S
C314 C315 1.387 . S
C314 N317 1.341 . S
C315 C313 1.400 . S
C315 C314 1.387 . S
N316 Co307 2.022 . S
N316 C313 1.351 . S
N316 N317 1.365 . S
N317 C314 1.341 . S
N317 N316 1.365 . S
N317 H337 0.862 . S
C318 C313 1.501 . S
C318 H319 0.961 . S
C318 H320 0.961 . S
C318 H321 0.960 . S
H319 C318 0.961 . S
H320 C318 0.961 . S
H321 C318 0.960 . S
C322 N323 1.342 . S
C322 C326 1.401 . S
C322 C327 1.499 . S
N323 Co306 1.989 . S
N323 C322 1.342 . S
N323 N324 1.388 . S
N324 Co307 1.993 . S
N324 N323 1.388 . S
N324 C325 1.346 . S
C325 N324 1.346 . S
C325 C326 1.396 . S
C325 C335 1.510 . S
C326 C322 1.401 . S
C326 C325 1.396 . S
C327 C322 1.499 . S
C327 H328 0.959 . S
C327 H329 0.960 . S
C327 H330 0.961 . S
H328 C327 0.959 . S
H329 C327 0.960 . S
H330 C327 0.961 . S
O331 Co306 1.967 . S
O331 C339 1.258 . S
O332 Co307 1.941 . S
O332 C339 1.266 . S
H333 C335 0.959 . S
H334 C335 0.961 . S
C335 C325 1.510 . S
C335 H333 0.959 . S
C335 H334 0.961 . S
C335 H336 0.960 . S
H336 C335 0.960 . S
H337 N317 0.862 . S
O338 Co306 1.920 . S
O338 C311 1.289 . S
C339 O331 1.258 . S
C339 O332 1.266 . S
Co340 O343 1.970 . S
Co340 N357 1.989 . S
Co340 O365 1.967 . S
Co340 O372 1.920 . S
Co341 O344 1.966 . S
Co341 N350 2.022 . S
Co341 N358 1.993 . S
Co341 O366 1.941 . S
C342 O343 1.258 . S
C342 O344 1.263 . S
O343 Co340 1.970 . S
O343 C342 1.258 . S
O344 Co341 1.966 . S
O344 C342 1.263 . S
C345 O346 1.235 . S
C345 O372 1.289 . S
O346 C345 1.235 . S
C347 C349 1.400 . S
C347 N350 1.351 . S
C347 C352 1.501 . S
C348 C349 1.387 . S
C348 N351 1.341 . S
C349 C347 1.400 . S
C349 C348 1.387 . S
N350 Co341 2.022 . S
N350 C347 1.351 . S
N350 N351 1.365 . S
N351 C348 1.341 . S
N351 N350 1.365 . S
N351 H371 0.862 . S
C352 C347 1.501 . S
C352 H353 0.961 . S
C352 H354 0.961 . S
C352 H355 0.960 . S
H353 C352 0.961 . S
H354 C352 0.961 . S
H355 C352 0.960 . S
C356 N357 1.342 . S
C356 C360 1.401 . S
C356 C361 1.499 . S
N357 Co340 1.989 . S
N357 C356 1.342 . S
N357 N358 1.388 . S
N358 Co341 1.993 . S
N358 N357 1.388 . S
N358 C359 1.346 . S
C359 N358 1.346 . S
C359 C360 1.396 . S
C359 C369 1.510 . S
C360 C356 1.401 . S
C360 C359 1.396 . S
C361 C356 1.499 . S
C361 H362 0.959 . S
C361 H363 0.960 . S
C361 H364 0.961 . S
H362 C361 0.959 . S
H363 C361 0.960 . S
H364 C361 0.961 . S
O365 Co340 1.967 . S
O365 C373 1.258 . S
O366 Co341 1.941 . S
O366 C373 1.266 . S
H367 C369 0.959 . S
H368 C369 0.961 . S
C369 C359 1.510 . S
C369 H367 0.959 . S
C369 H368 0.961 . S
C369 H370 0.960 . S
H370 C369 0.960 . S
H371 N351 0.862 . S
O372 Co340 1.920 . S
O372 C345 1.289 . S
C373 O365 1.258 . S
C373 O366 1.266 . S
Co374 O377 1.970 . S
Co374 N391 1.989 . S
Co374 O399 1.967 . S
Co374 O406 1.920 . S
Co375 O378 1.966 . S
Co375 N384 2.022 . S
Co375 N392 1.993 . S
Co375 O400 1.941 . S
C376 O377 1.258 . S
C376 O378 1.263 . S
O377 Co374 1.970 . S
O377 C376 1.258 . S
O378 Co375 1.966 . S
O378 C376 1.263 . S
C379 O380 1.235 . S
C379 O406 1.289 . S
O380 C379 1.235 . S
C381 C383 1.400 . S
C381 N384 1.351 . S
C381 C386 1.501 . S
C382 C383 1.387 . S
C382 N385 1.341 . S
C383 C381 1.400 . S
C383 C382 1.387 . S
N384 Co375 2.022 . S
N384 C381 1.351 . S
N384 N385 1.365 . S
N385 C382 1.341 . S
N385 N384 1.365 . S
N385 H405 0.862 . S
C386 C381 1.501 . S
C386 H387 0.961 . S
C386 H388 0.961 . S
C386 H389 0.960 . S
H387 C386 0.961 . S
H388 C386 0.961 . S
H389 C386 0.960 . S
C390 N391 1.342 . S
C390 C394 1.401 . S
C390 C395 1.499 . S
N391 Co374 1.989 . S
N391 C390 1.342 . S
N391 N392 1.388 . S
N392 Co375 1.993 . S
N392 N391 1.388 . S
N392 C393 1.346 . S
C393 N392 1.346 . S
C393 C394 1.396 . S
C393 C403 1.510 . S
C394 C390 1.401 . S
C394 C393 1.396 . S
C395 C390 1.499 . S
C395 H396 0.959 . S
C395 H397 0.960 . S
C395 H398 0.961 . S
H396 C395 0.959 . S
H397 C395 0.960 . S
H398 C395 0.961 . S
O399 Co374 1.967 . S
O399 C407 1.258 . S
O400 Co375 1.941 . S
O400 C407 1.266 . S
H401 C403 0.959 . S
H402 C403 0.961 . S
C403 C393 1.510 . S
C403 H401 0.959 . S
C403 H402 0.961 . S
C403 H404 0.960 . S
H404 C403 0.960 . S
H405 N385 0.862 . S
O406 Co374 1.920 . S
O406 C379 1.289 . S
C407 O399 1.258 . S
C407 O400 1.266 . S
Co408 O411 1.970 . S
Co408 N425 1.989 . S
Co408 O433 1.967 . S
Co408 O440 1.920 . S
Co409 O412 1.966 . S
Co409 N418 2.022 . S
Co409 N426 1.993 . S
Co409 O434 1.941 . S
C410 O411 1.258 . S
C410 O412 1.263 . S
O411 Co408 1.970 . S
O411 C410 1.258 . S
O412 Co409 1.966 . S
O412 C410 1.263 . S
C413 O414 1.235 . S
C413 O440 1.289 . S
O414 C413 1.235 . S
C415 C417 1.400 . S
C415 N418 1.351 . S
C415 C420 1.501 . S
C416 C417 1.387 . S
C416 N419 1.341 . S
C417 C415 1.400 . S
C417 C416 1.387 . S
N418 Co409 2.022 . S
N418 C415 1.351 . S
N418 N419 1.365 . S
N419 C416 1.341 . S
N419 N418 1.365 . S
N419 H439 0.862 . S
C420 C415 1.501 . S
C420 H421 0.961 . S
C420 H422 0.961 . S
C420 H423 0.960 . S
H421 C420 0.961 . S
H422 C420 0.961 . S
H423 C420 0.960 . S
C424 N425 1.342 . S
C424 C428 1.401 . S
C424 C429 1.499 . S
N425 Co408 1.989 . S
N425 C424 1.342 . S
N425 N426 1.388 . S
N426 Co409 1.993 . S
N426 N425 1.388 . S
N426 C427 1.346 . S
C427 N426 1.346 . S
C427 C428 1.396 . S
C427 C437 1.510 . S
C428 C424 1.401 . S
C428 C427 1.396 . S
C429 C424 1.499 . S
C429 H430 0.959 . S
C429 H431 0.960 . S
C429 H432 0.961 . S
H430 C429 0.959 . S
H431 C429 0.960 . S
H432 C429 0.961 . S
O433 Co408 1.967 . S
O433 C441 1.258 . S
O434 Co409 1.941 . S
O434 C441 1.266 . S
H435 C437 0.959 . S
H436 C437 0.961 . S
C437 C427 1.510 . S
C437 H435 0.959 . S
C437 H436 0.961 . S
C437 H438 0.960 . S
H438 C437 0.960 . S
H439 N419 0.862 . S
O440 Co408 1.920 . S
O440 C413 1.289 . S
C441 O433 1.258 . S
C441 O434 1.266 . S
Co442 O445 1.970 . S
Co442 N459 1.989 . S
Co442 O467 1.967 . S
Co442 O474 1.920 . S
Co443 O446 1.966 . S
Co443 N452 2.022 . S
Co443 N460 1.993 . S
Co443 O468 1.941 . S
C444 O445 1.258 . S
C444 O446 1.263 . S
O445 Co442 1.970 . S
O445 C444 1.258 . S
O446 Co443 1.966 . S
O446 C444 1.263 . S
C447 O448 1.235 . S
C447 O474 1.289 . S
O448 C447 1.235 . S
C449 C451 1.400 . S
C449 N452 1.351 . S
C449 C454 1.501 . S
C450 C451 1.387 . S
C450 N453 1.341 . S
C451 C449 1.400 . S
C451 C450 1.387 . S
N452 Co443 2.022 . S
N452 C449 1.351 . S
N452 N453 1.365 . S
N453 C450 1.341 . S
N453 N452 1.365 . S
N453 H473 0.862 . S
C454 C449 1.501 . S
C454 H455 0.961 . S
C454 H456 0.961 . S
C454 H457 0.960 . S
H455 C454 0.961 . S
H456 C454 0.961 . S
H457 C454 0.960 . S
C458 N459 1.342 . S
C458 C462 1.401 . S
C458 C463 1.499 . S
N459 Co442 1.989 . S
N459 C458 1.342 . S
N459 N460 1.388 . S
N460 Co443 1.993 . S
N460 N459 1.388 . S
N460 C461 1.346 . S
C461 N460 1.346 . S
C461 C462 1.396 . S
C461 C471 1.510 . S
C462 C458 1.401 . S
C462 C461 1.396 . S
C463 C458 1.499 . S
C463 H464 0.959 . S
C463 H465 0.960 . S
C463 H466 0.961 . S
H464 C463 0.959 . S
H465 C463 0.960 . S
H466 C463 0.961 . S
O467 Co442 1.967 . S
O467 C475 1.258 . S
O468 Co443 1.941 . S
O468 C475 1.266 . S
H469 C471 0.959 . S
H470 C471 0.961 . S
C471 C461 1.510 . S
C471 H469 0.959 . S
C471 H470 0.961 . S
C471 H472 0.960 . S
H472 C471 0.960 . S
H473 N453 0.862 . S
O474 Co442 1.920 . S
O474 C447 1.289 . S
C475 O467 1.258 . S
C475 O468 1.266 . S
Co476 O479 1.970 . S
Co476 N493 1.989 . S
Co476 O501 1.967 . S
Co476 O508 1.920 . S
Co477 O480 1.966 . S
Co477 N486 2.022 . S
Co477 N494 1.993 . S
Co477 O502 1.941 . S
C478 O479 1.258 . S
C478 O480 1.263 . S
O479 Co476 1.970 . S
O479 C478 1.258 . S
O480 Co477 1.966 . S
O480 C478 1.263 . S
C481 O482 1.235 . S
C481 O508 1.289 . S
O482 C481 1.235 . S
C483 C485 1.400 . S
C483 N486 1.351 . S
C483 C488 1.501 . S
C484 C485 1.387 . S
C484 N487 1.341 . S
C485 C483 1.400 . S
C485 C484 1.387 . S
N486 Co477 2.022 . S
N486 C483 1.351 . S
N486 N487 1.365 . S
N487 C484 1.341 . S
N487 N486 1.365 . S
N487 H507 0.862 . S
C488 C483 1.501 . S
C488 H489 0.961 . S
C488 H490 0.961 . S
C488 H491 0.960 . S
H489 C488 0.961 . S
H490 C488 0.961 . S
H491 C488 0.960 . S
C492 N493 1.342 . S
C492 C496 1.401 . S
C492 C497 1.499 . S
N493 Co476 1.989 . S
N493 C492 1.342 . S
N493 N494 1.388 . S
N494 Co477 1.993 . S
N494 N493 1.388 . S
N494 C495 1.346 . S
C495 N494 1.346 . S
C495 C496 1.396 . S
C495 C505 1.510 . S
C496 C492 1.401 . S
C496 C495 1.396 . S
C497 C492 1.499 . S
C497 H498 0.959 . S
C497 H499 0.960 . S
C497 H500 0.961 . S
H498 C497 0.959 . S
H499 C497 0.960 . S
H500 C497 0.961 . S
O501 Co476 1.967 . S
O501 C509 1.258 . S
O502 Co477 1.941 . S
O502 C509 1.266 . S
H503 C505 0.959 . S
H504 C505 0.961 . S
C505 C495 1.510 . S
C505 H503 0.959 . S
C505 H504 0.961 . S
C505 H506 0.960 . S
H506 C505 0.960 . S
H507 N487 0.862 . S
O508 Co476 1.920 . S
O508 C481 1.289 . S
C509 O501 1.258 . S
C509 O502 1.266 . S
Co510 O513 1.970 . S
Co510 N527 1.989 . S
Co510 O535 1.967 . S
Co510 O542 1.920 . S
Co511 O514 1.966 . S
Co511 N520 2.022 . S
Co511 N528 1.993 . S
Co511 O536 1.941 . S
C512 O513 1.258 . S
C512 O514 1.263 . S
O513 Co510 1.970 . S
O513 C512 1.258 . S
O514 Co511 1.966 . S
O514 C512 1.263 . S
C515 O516 1.235 . S
C515 O542 1.289 . S
O516 C515 1.235 . S
C517 C519 1.400 . S
C517 N520 1.351 . S
C517 C522 1.501 . S
C518 C519 1.387 . S
C518 N521 1.341 . S
C519 C517 1.400 . S
C519 C518 1.387 . S
N520 Co511 2.022 . S
N520 C517 1.351 . S
N520 N521 1.365 . S
N521 C518 1.341 . S
N521 N520 1.365 . S
N521 H541 0.862 . S
C522 C517 1.501 . S
C522 H523 0.961 . S
C522 H524 0.961 . S
C522 H525 0.960 . S
H523 C522 0.961 . S
H524 C522 0.961 . S
H525 C522 0.960 . S
C526 N527 1.342 . S
C526 C530 1.401 . S
C526 C531 1.499 . S
N527 Co510 1.989 . S
N527 C526 1.342 . S
N527 N528 1.388 . S
N528 Co511 1.993 . S
N528 N527 1.388 . S
N528 C529 1.346 . S
C529 N528 1.346 . S
C529 C530 1.396 . S
C529 C539 1.510 . S
C530 C526 1.401 . S
C530 C529 1.396 . S
C531 C526 1.499 . S
C531 H532 0.959 . S
C531 H533 0.960 . S
C531 H534 0.961 . S
H532 C531 0.959 . S
H533 C531 0.960 . S
H534 C531 0.961 . S
O535 Co510 1.967 . S
O535 C543 1.258 . S
O536 Co511 1.941 . S
O536 C543 1.266 . S
H537 C539 0.959 . S
H538 C539 0.961 . S
C539 C529 1.510 . S
C539 H537 0.959 . S
C539 H538 0.961 . S
C539 H540 0.960 . S
H540 C539 0.960 . S
H541 N521 0.862 . S
O542 Co510 1.920 . S
O542 C515 1.289 . S
C543 O535 1.258 . S
C543 O536 1.266 . S
Co544 O547 1.970 . S
Co544 N561 1.989 . S
Co544 O569 1.967 . S
Co544 O576 1.920 . S
Co545 O548 1.966 . S
Co545 N554 2.022 . S
Co545 N562 1.993 . S
Co545 O570 1.941 . S
C546 O547 1.258 . S
C546 O548 1.263 . S
O547 Co544 1.970 . S
O547 C546 1.258 . S
O548 Co545 1.966 . S
O548 C546 1.263 . S
C549 O550 1.235 . S
C549 O576 1.289 . S
O550 C549 1.235 . S
C551 C553 1.400 . S
C551 N554 1.351 . S
C551 C556 1.501 . S
C552 C553 1.387 . S
C552 N555 1.341 . S
C553 C551 1.400 . S
C553 C552 1.387 . S
N554 Co545 2.022 . S
N554 C551 1.351 . S
N554 N555 1.365 . S
N555 C552 1.341 . S
N555 N554 1.365 . S
N555 H575 0.862 . S
C556 C551 1.501 . S
C556 H557 0.961 . S
C556 H558 0.961 . S
C556 H559 0.960 . S
H557 C556 0.961 . S
H558 C556 0.961 . S
H559 C556 0.960 . S
C560 N561 1.342 . S
C560 C564 1.401 . S
C560 C565 1.499 . S
N561 Co544 1.989 . S
N561 C560 1.342 . S
N561 N562 1.388 . S
N562 Co545 1.993 . S
N562 N561 1.388 . S
N562 C563 1.346 . S
C563 N562 1.346 . S
C563 C564 1.396 . S
C563 C573 1.510 . S
C564 C560 1.401 . S
C564 C563 1.396 . S
C565 C560 1.499 . S
C565 H566 0.959 . S
C565 H567 0.960 . S
C565 H568 0.961 . S
H566 C565 0.959 . S
H567 C565 0.960 . S
H568 C565 0.961 . S
O569 Co544 1.967 . S
O569 C577 1.258 . S
O570 Co545 1.941 . S
O570 C577 1.266 . S
H571 C573 0.959 . S
H572 C573 0.961 . S
C573 C563 1.510 . S
C573 H571 0.959 . S
C573 H572 0.961 . S
C573 H574 0.960 . S
H574 C573 0.960 . S
H575 N555 0.862 . S
O576 Co544 1.920 . S
O576 C549 1.289 . S
C577 O569 1.258 . S
C577 O570 1.266 . S
Co578 O581 1.970 . S
Co578 N595 1.989 . S
Co578 O603 1.967 . S
Co578 O610 1.920 . S
Co579 O582 1.966 . S
Co579 N588 2.022 . S
Co579 N596 1.993 . S
Co579 O604 1.941 . S
C580 O581 1.258 . S
C580 O582 1.263 . S
O581 Co578 1.970 . S
O581 C580 1.258 . S
O582 Co579 1.966 . S
O582 C580 1.263 . S
C583 O584 1.235 . S
C583 O610 1.289 . S
O584 C583 1.235 . S
C585 C587 1.400 . S
C585 N588 1.351 . S
C585 C590 1.501 . S
C586 C587 1.387 . S
C586 N589 1.341 . S
C587 C585 1.400 . S
C587 C586 1.387 . S
N588 Co579 2.022 . S
N588 C585 1.351 . S
N588 N589 1.365 . S
N589 C586 1.341 . S
N589 N588 1.365 . S
N589 H609 0.862 . S
C590 C585 1.501 . S
C590 H591 0.961 . S
C590 H592 0.961 . S
C590 H593 0.960 . S
H591 C590 0.961 . S
H592 C590 0.961 . S
H593 C590 0.960 . S
C594 N595 1.342 . S
C594 C598 1.401 . S
C594 C599 1.499 . S
N595 Co578 1.989 . S
N595 C594 1.342 . S
N595 N596 1.388 . S
N596 Co579 1.993 . S
N596 N595 1.388 . S
N596 C597 1.346 . S
C597 N596 1.346 . S
C597 C598 1.396 . S
C597 C607 1.510 . S
C598 C594 1.401 . S
C598 C597 1.396 . S
C599 C594 1.499 . S
C599 H600 0.959 . S
C599 H601 0.960 . S
C599 H602 0.961 . S
H600 C599 0.959 . S
H601 C599 0.960 . S
H602 C599 0.961 . S
O603 Co578 1.967 . S
O603 C611 1.258 . S
O604 Co579 1.941 . S
O604 C611 1.266 . S
H605 C607 0.959 . S
H606 C607 0.961 . S
C607 C597 1.510 . S
C607 H605 0.959 . S
C607 H606 0.961 . S
C607 H608 0.960 . S
H608 C607 0.960 . S
H609 N589 0.862 . S
O610 Co578 1.920 . S
O610 C583 1.289 . S
C611 O603 1.258 . S
C611 O604 1.266 . S
Co612 O615 1.970 . S
Co612 N629 1.989 . S
Co612 O637 1.967 . S
Co612 O644 1.920 . S
Co613 O616 1.966 . S
Co613 N622 2.022 . S
Co613 N630 1.993 . S
Co613 O638 1.941 . S
C614 O615 1.258 . S
C614 O616 1.263 . S
O615 Co612 1.970 . S
O615 C614 1.258 . S
O616 Co613 1.966 . S
O616 C614 1.263 . S
C617 O618 1.235 . S
C617 O644 1.289 . S
O618 C617 1.235 . S
C619 C621 1.400 . S
C619 N622 1.351 . S
C619 C624 1.501 . S
C620 C621 1.387 . S
C620 N623 1.341 . S
C621 C619 1.400 . S
C621 C620 1.387 . S
N622 Co613 2.022 . S
N622 C619 1.351 . S
N622 N623 1.365 . S
N623 C620 1.341 . S
N623 N622 1.365 . S
N623 H643 0.862 . S
C624 C619 1.501 . S
C624 H625 0.961 . S
C624 H626 0.961 . S
C624 H627 0.960 . S
H625 C624 0.961 . S
H626 C624 0.961 . S
H627 C624 0.960 . S
C628 N629 1.342 . S
C628 C632 1.401 . S
C628 C633 1.499 . S
N629 Co612 1.989 . S
N629 C628 1.342 . S
N629 N630 1.388 . S
N630 Co613 1.993 . S
N630 N629 1.388 . S
N630 C631 1.346 . S
C631 N630 1.346 . S
C631 C632 1.396 . S
C631 C641 1.510 . S
C632 C628 1.401 . S
C632 C631 1.396 . S
C633 C628 1.499 . S
C633 H634 0.959 . S
C633 H635 0.960 . S
C633 H636 0.961 . S
H634 C633 0.959 . S
H635 C633 0.960 . S
H636 C633 0.961 . S
O637 Co612 1.967 . S
O637 C645 1.258 . S
O638 Co613 1.941 . S
O638 C645 1.266 . S
H639 C641 0.959 . S
H640 C641 0.961 . S
C641 C631 1.510 . S
C641 H639 0.959 . S
C641 H640 0.961 . S
C641 H642 0.960 . S
H642 C641 0.960 . S
H643 N623 0.862 . S
O644 Co612 1.920 . S
O644 C617 1.289 . S
C645 O637 1.258 . S
C645 O638 1.266 . S
Co646 O649 1.970 . S
Co646 N663 1.989 . S
Co646 O671 1.967 . S
Co646 O678 1.920 . S
Co647 O650 1.966 . S
Co647 N656 2.022 . S
Co647 N664 1.993 . S
Co647 O672 1.941 . S
C648 O649 1.258 . S
C648 O650 1.263 . S
O649 Co646 1.970 . S
O649 C648 1.258 . S
O650 Co647 1.966 . S
O650 C648 1.263 . S
C651 O652 1.235 . S
C651 O678 1.289 . S
O652 C651 1.235 . S
C653 C655 1.400 . S
C653 N656 1.351 . S
C653 C658 1.501 . S
C654 C655 1.387 . S
C654 N657 1.341 . S
C655 C653 1.400 . S
C655 C654 1.387 . S
N656 Co647 2.022 . S
N656 C653 1.351 . S
N656 N657 1.365 . S
N657 C654 1.341 . S
N657 N656 1.365 . S
N657 H677 0.862 . S
C658 C653 1.501 . S
C658 H659 0.961 . S
C658 H660 0.961 . S
C658 H661 0.960 . S
H659 C658 0.961 . S
H660 C658 0.961 . S
H661 C658 0.960 . S
C662 N663 1.342 . S
C662 C666 1.401 . S
C662 C667 1.499 . S
N663 Co646 1.989 . S
N663 C662 1.342 . S
N663 N664 1.388 . S
N664 Co647 1.993 . S
N664 N663 1.388 . S
N664 C665 1.346 . S
C665 N664 1.346 . S
C665 C666 1.396 . S
C665 C675 1.510 . S
C666 C662 1.401 . S
C666 C665 1.396 . S
C667 C662 1.499 . S
C667 H668 0.959 . S
C667 H669 0.960 . S
C667 H670 0.961 . S
H668 C667 0.959 . S
H669 C667 0.960 . S
H670 C667 0.961 . S
O671 Co646 1.967 . S
O671 C679 1.258 . S
O672 Co647 1.941 . S
O672 C679 1.266 . S
H673 C675 0.959 . S
H674 C675 0.961 . S
C675 C665 1.510 . S
C675 H673 0.959 . S
C675 H674 0.961 . S
C675 H676 0.960 . S
H676 C675 0.960 . S
H677 N657 0.862 . S
O678 Co646 1.920 . S
O678 C651 1.289 . S
C679 O671 1.258 . S
C679 O672 1.266 . S
Co680 O683 1.970 . S
Co680 N697 1.989 . S
Co680 O705 1.967 . S
Co680 O712 1.920 . S
Co681 O684 1.966 . S
Co681 N690 2.022 . S
Co681 N698 1.993 . S
Co681 O706 1.941 . S
C682 O683 1.258 . S
C682 O684 1.263 . S
O683 Co680 1.970 . S
O683 C682 1.258 . S
O684 Co681 1.966 . S
O684 C682 1.263 . S
C685 O686 1.235 . S
C685 O712 1.289 . S
O686 C685 1.235 . S
C687 C689 1.400 . S
C687 N690 1.351 . S
C687 C692 1.501 . S
C688 C689 1.387 . S
C688 N691 1.341 . S
C689 C687 1.400 . S
C689 C688 1.387 . S
N690 Co681 2.022 . S
N690 C687 1.351 . S
N690 N691 1.365 . S
N691 C688 1.341 . S
N691 N690 1.365 . S
N691 H711 0.862 . S
C692 C687 1.501 . S
C692 H693 0.961 . S
C692 H694 0.961 . S
C692 H695 0.960 . S
H693 C692 0.961 . S
H694 C692 0.961 . S
H695 C692 0.960 . S
C696 N697 1.342 . S
C696 C700 1.401 . S
C696 C701 1.499 . S
N697 Co680 1.989 . S
N697 C696 1.342 . S
N697 N698 1.388 . S
N698 Co681 1.993 . S
N698 N697 1.388 . S
N698 C699 1.346 . S
C699 N698 1.346 . S
C699 C700 1.396 . S
C699 C709 1.510 . S
C700 C696 1.401 . S
C700 C699 1.396 . S
C701 C696 1.499 . S
C701 H702 0.959 . S
C701 H703 0.960 . S
C701 H704 0.961 . S
H702 C701 0.959 . S
H703 C701 0.960 . S
H704 C701 0.961 . S
O705 Co680 1.967 . S
O705 C713 1.258 . S
O706 Co681 1.941 . S
O706 C713 1.266 . S
H707 C709 0.959 . S
H708 C709 0.961 . S
C709 C699 1.510 . S
C709 H707 0.959 . S
C709 H708 0.961 . S
C709 H710 0.960 . S
H710 C709 0.960 . S
H711 N691 0.862 . S
O712 Co680 1.920 . S
O712 C685 1.289 . S
C713 O705 1.258 . S
C713 O706 1.266 . S
Co714 O717 1.970 . S
Co714 N731 1.989 . S
Co714 O739 1.967 . S
Co714 O746 1.920 . S
Co715 O718 1.966 . S
Co715 N724 2.022 . S
Co715 N732 1.993 . S
Co715 O740 1.941 . S
C716 O717 1.258 . S
C716 O718 1.263 . S
O717 Co714 1.970 . S
O717 C716 1.258 . S
O718 Co715 1.966 . S
O718 C716 1.263 . S
C719 O720 1.235 . S
C719 O746 1.289 . S
O720 C719 1.235 . S
C721 C723 1.400 . S
C721 N724 1.351 . S
C721 C726 1.501 . S
C722 C723 1.387 . S
C722 N725 1.341 . S
C723 C721 1.400 . S
C723 C722 1.387 . S
N724 Co715 2.022 . S
N724 C721 1.351 . S
N724 N725 1.365 . S
N725 C722 1.341 . S
N725 N724 1.365 . S
N725 H745 0.862 . S
C726 C721 1.501 . S
C726 H727 0.961 . S
C726 H728 0.961 . S
C726 H729 0.960 . S
H727 C726 0.961 . S
H728 C726 0.961 . S
H729 C726 0.960 . S
C730 N731 1.342 . S
C730 C734 1.401 . S
C730 C735 1.499 . S
N731 Co714 1.989 . S
N731 C730 1.342 . S
N731 N732 1.388 . S
N732 Co715 1.993 . S
N732 N731 1.388 . S
N732 C733 1.346 . S
C733 N732 1.346 . S
C733 C734 1.396 . S
C733 C743 1.510 . S
C734 C730 1.401 . S
C734 C733 1.396 . S
C735 C730 1.499 . S
C735 H736 0.959 . S
C735 H737 0.960 . S
C735 H738 0.961 . S
H736 C735 0.959 . S
H737 C735 0.960 . S
H738 C735 0.961 . S
O739 Co714 1.967 . S
O739 C747 1.258 . S
O740 Co715 1.941 . S
O740 C747 1.266 . S
H741 C743 0.959 . S
H742 C743 0.961 . S
C743 C733 1.510 . S
C743 H741 0.959 . S
C743 H742 0.961 . S
C743 H744 0.960 . S
H744 C743 0.960 . S
H745 N725 0.862 . S
O746 Co714 1.920 . S
O746 C719 1.289 . S
C747 O739 1.258 . S
C747 O740 1.266 . S
Co748 O751 1.970 . S
Co748 N765 1.989 . S
Co748 O773 1.967 . S
Co748 O780 1.920 . S
Co749 O752 1.966 . S
Co749 N758 2.022 . S
Co749 N766 1.993 . S
Co749 O774 1.941 . S
C750 O751 1.258 . S
C750 O752 1.263 . S
O751 Co748 1.970 . S
O751 C750 1.258 . S
O752 Co749 1.966 . S
O752 C750 1.263 . S
C753 O754 1.235 . S
C753 O780 1.289 . S
O754 C753 1.235 . S
C755 C757 1.400 . S
C755 N758 1.351 . S
C755 C760 1.501 . S
C756 C757 1.387 . S
C756 N759 1.341 . S
C757 C755 1.400 . S
C757 C756 1.387 . S
N758 Co749 2.022 . S
N758 C755 1.351 . S
N758 N759 1.365 . S
N759 C756 1.341 . S
N759 N758 1.365 . S
N759 H779 0.862 . S
C760 C755 1.501 . S
C760 H761 0.961 . S
C760 H762 0.961 . S
C760 H763 0.960 . S
H761 C760 0.961 . S
H762 C760 0.961 . S
H763 C760 0.960 . S
C764 N765 1.342 . S
C764 C768 1.401 . S
C764 C769 1.499 . S
N765 Co748 1.989 . S
N765 C764 1.342 . S
N765 N766 1.388 . S
N766 Co749 1.993 . S
N766 N765 1.388 . S
N766 C767 1.346 . S
C767 N766 1.346 . S
C767 C768 1.396 . S
C767 C777 1.510 . S
C768 C764 1.401 . S
C768 C767 1.396 . S
C769 C764 1.499 . S
C769 H770 0.959 . S
C769 H771 0.960 . S
C769 H772 0.961 . S
H770 C769 0.959 . S
H771 C769 0.960 . S
H772 C769 0.961 . S
O773 Co748 1.967 . S
O773 C781 1.258 . S
O774 Co749 1.941 . S
O774 C781 1.266 . S
H775 C777 0.959 . S
H776 C777 0.961 . S
C777 C767 1.510 . S
C777 H775 0.959 . S
C777 H776 0.961 . S
C777 H778 0.960 . S
H778 C777 0.960 . S
H779 N759 0.862 . S
O780 Co748 1.920 . S
O780 C753 1.289 . S
C781 O773 1.258 . S
C781 O774 1.266 . S
Co782 O785 1.970 . S
Co782 N799 1.989 . S
Co782 O807 1.967 . S
Co782 O814 1.920 . S
Co783 O786 1.966 . S
Co783 N792 2.022 . S
Co783 N800 1.993 . S
Co783 O808 1.941 . S
C784 O785 1.258 . S
C784 O786 1.263 . S
O785 Co782 1.970 . S
O785 C784 1.258 . S
O786 Co783 1.966 . S
O786 C784 1.263 . S
C787 O788 1.235 . S
C787 O814 1.289 . S
O788 C787 1.235 . S
C789 C791 1.400 . S
C789 N792 1.351 . S
C789 C794 1.501 . S
C790 C791 1.387 . S
C790 N793 1.341 . S
C791 C789 1.400 . S
C791 C790 1.387 . S
N792 Co783 2.022 . S
N792 C789 1.351 . S
N792 N793 1.365 . S
N793 C790 1.341 . S
N793 N792 1.365 . S
N793 H813 0.862 . S
C794 C789 1.501 . S
C794 H795 0.961 . S
C794 H796 0.961 . S
C794 H797 0.960 . S
H795 C794 0.961 . S
H796 C794 0.961 . S
H797 C794 0.960 . S
C798 N799 1.342 . S
C798 C802 1.401 . S
C798 C803 1.499 . S
N799 Co782 1.989 . S
N799 C798 1.342 . S
N799 N800 1.388 . S
N800 Co783 1.993 . S
N800 N799 1.388 . S
N800 C801 1.346 . S
C801 N800 1.346 . S
C801 C802 1.396 . S
C801 C811 1.510 . S
C802 C798 1.401 . S
C802 C801 1.396 . S
C803 C798 1.499 . S
C803 H804 0.959 . S
C803 H805 0.960 . S
C803 H806 0.961 . S
H804 C803 0.959 . S
H805 C803 0.960 . S
H806 C803 0.961 . S
O807 Co782 1.967 . S
O807 C815 1.258 . S
O808 Co783 1.941 . S
O808 C815 1.266 . S
H809 C811 0.959 . S
H810 C811 0.961 . S
C811 C801 1.510 . S
C811 H809 0.959 . S
C811 H810 0.961 . S
C811 H812 0.960 . S
H812 C811 0.960 . S
H813 N793 0.862 . S
O814 Co782 1.920 . S
O814 C787 1.289 . S
C815 O807 1.258 . S
C815 O808 1.266 . S
H816 C824 0.929 . S
H817 C826 0.930 . S
H818 C828 0.930 . S
H819 C831 0.929 . S
H820 C834 0.930 . S
H821 C836 0.960 . S
H822 C836 0.960 . S
H823 C836 0.960 . S
C824 H816 0.929 . S
C824 C825 1.377 . S
C824 C826 1.384 . S
C825 C824 1.377 . S
C825 C831 1.390 . S
C826 H817 0.930 . S
C826 C824 1.384 . S
C826 C827 1.372 . S
C827 C826 1.372 . S
C827 C828 1.400 . S
C827 C832 1.490 . S
C828 H818 0.930 . S
C828 C827 1.400 . S
C828 C831 1.386 . S
H829 C845 0.930 . S
H830 C846 0.931 . S
C831 H819 0.929 . S
C831 C825 1.390 . S
C831 C828 1.386 . S
C832 C827 1.490 . S
C832 C834 1.395 1_545 S
C832 C835 1.403 . S
H833 C839 0.930 . S
C834 H820 0.930 . S
C834 C832 1.395 1_565 S
C834 C837 1.403 . S
C835 C832 1.403 . S
C835 C836 1.524 . S
C835 C839 1.400 . S
C836 H821 0.960 . S
C836 H822 0.960 . S
C836 H823 0.960 . S
C836 C835 1.524 . S
C837 C834 1.403 . S
C837 C838 1.392 . S
C837 C841 1.495 . S
C838 C837 1.392 . S
C838 C839 1.385 1_565 S
C838 C840 1.478 . S
C839 H833 0.930 . S
C839 C835 1.400 . S
C839 C838 1.385 1_545 S
C840 C838 1.478 . S
C840 C842 1.381 . S
C840 C846 1.383 . S
C841 C837 1.495 . S
C841 H847 0.959 . S
C841 H848 0.961 . S
C841 H849 0.960 . S
C842 C840 1.381 . S
C842 C843 1.394 . S
C842 H850 0.930 . S
C843 C842 1.394 . S
C843 C844 1.383 . S
C843 H851 0.929 . S
C844 C843 1.383 . S
C844 C845 1.377 . S
C845 H829 0.930 . S
C845 C844 1.377 . S
C845 C846 1.379 . S
C846 H830 0.931 . S
C846 C840 1.383 . S
C846 C845 1.379 . S
H847 C841 0.959 . S
H848 C841 0.961 . S
H849 C841 0.960 . S
H850 C842 0.930 . S
H851 C843 0.929 . S
H852 C860 0.929 . S
H853 C862 0.930 . S
H854 C864 0.930 . S
H855 C867 0.929 . S
H856 C870 0.930 . S
H857 C872 0.960 . S
H858 C872 0.960 . S
H859 C872 0.960 . S
C860 H852 0.929 . S
C860 C861 1.377 . S
C860 C862 1.384 . S
C861 C860 1.377 . S
C861 C867 1.390 . S
C862 H853 0.930 . S
C862 C860 1.384 . S
C862 C863 1.372 . S
C863 C862 1.372 . S
C863 C864 1.400 . S
C863 C868 1.490 . S
C864 H854 0.930 . S
C864 C863 1.400 . S
C864 C867 1.386 . S
H865 C881 0.930 . S
H866 C882 0.931 . S
C867 H855 0.929 . S
C867 C861 1.390 . S
C867 C864 1.386 . S
C868 C863 1.490 . S
C868 C870 1.395 . S
C868 C871 1.403 . S
H869 C875 0.930 . S
C870 H856 0.930 . S
C870 C868 1.395 . S
C870 C873 1.403 . S
C871 C868 1.403 . S
C871 C872 1.524 . S
C871 C875 1.400 . S
C872 H857 0.960 . S
C872 H858 0.960 . S
C872 H859 0.960 . S
C872 C871 1.524 . S
C873 C870 1.403 . S
C873 C874 1.392 . S
C873 C877 1.495 . S
C874 C873 1.392 . S
C874 C875 1.385 . S
C874 C876 1.478 . S
C875 H869 0.930 . S
C875 C871 1.400 . S
C875 C874 1.385 . S
C876 C874 1.478 . S
C876 C878 1.381 . S
C876 C882 1.383 . S
C877 C873 1.495 . S
C877 H883 0.959 . S
C877 H884 0.961 . S
C877 H885 0.960 . S
C878 C876 1.381 . S
C878 C879 1.394 . S
C878 H886 0.930 . S
C879 C878 1.394 . S
C879 C880 1.383 . S
C879 H887 0.929 . S
C880 C879 1.383 . S
C880 C881 1.377 . S
C881 H865 0.930 . S
C881 C880 1.377 . S
C881 C882 1.379 . S
C882 H866 0.931 . S
C882 C876 1.383 . S
C882 C881 1.379 . S
H883 C877 0.959 . S
H884 C877 0.961 . S
H885 C877 0.960 . S
H886 C878 0.930 . S
H887 C879 0.929 . S
H888 C896 0.929 . S
H889 C898 0.930 . S
H890 C900 0.930 . S
H891 C903 0.929 . S
H892 C906 0.930 . S
H893 C908 0.960 . S
H894 C908 0.960 . S
H895 C908 0.960 . S
C896 H888 0.929 . S
C896 C897 1.377 . S
C896 C898 1.384 . S
C897 C896 1.377 . S
C897 C903 1.390 . S
C898 H889 0.930 . S
C898 C896 1.384 . S
C898 C899 1.372 . S
C899 C898 1.372 . S
C899 C900 1.400 . S
C899 C904 1.490 . S
C900 H890 0.930 . S
C900 C899 1.400 . S
C900 C903 1.386 . S
H901 C917 0.930 . S
H902 C918 0.931 . S
C903 H891 0.929 . S
C903 C897 1.390 . S
C903 C900 1.386 . S
C904 C899 1.490 . S
C904 C906 1.395 . S
C904 C907 1.403 1_455 S
H905 C911 0.930 . S
C906 H892 0.930 . S
C906 C904 1.395 . S
C906 C909 1.403 . S
C907 C904 1.403 1_655 S
C907 C908 1.524 . S
C907 C911 1.400 . S
C908 H893 0.960 . S
C908 H894 0.960 . S
C908 H895 0.960 . S
C908 C907 1.524 . S
C909 C906 1.403 . S
C909 C910 1.392 1_455 S
C909 C913 1.495 . S
C910 C909 1.392 1_655 S
C910 C911 1.385 . S
C910 C912 1.478 . S
C911 H905 0.930 . S
C911 C907 1.400 . S
C911 C910 1.385 . S
C912 C910 1.478 . S
C912 C914 1.381 . S
C912 C918 1.383 . S
C913 C909 1.495 . S
C913 H919 0.959 . S
C913 H920 0.961 . S
C913 H921 0.960 . S
C914 C912 1.381 . S
C914 C915 1.394 . S
C914 H922 0.930 . S
C915 C914 1.394 . S
C915 C916 1.383 . S
C915 H923 0.929 . S
C916 C915 1.383 . S
C916 C917 1.377 . S
C917 H901 0.930 . S
C917 C916 1.377 . S
C917 C918 1.379 . S
C918 H902 0.931 . S
C918 C912 1.383 . S
C918 C917 1.379 . S
H919 C913 0.959 . S
H920 C913 0.961 . S
H921 C913 0.960 . S
H922 C914 0.930 . S
H923 C915 0.929 . S
H924 C932 0.929 . S
H925 C934 0.930 . S
H926 C936 0.930 . S
H927 C939 0.929 . S
H928 C942 0.930 . S
H929 C944 0.960 . S
H930 C944 0.960 . S
H931 C944 0.960 . S
C932 H924 0.929 . S
C932 C933 1.377 . S
C932 C934 1.384 . S
C933 C932 1.377 . S
C933 C939 1.390 . S
C934 H925 0.930 . S
C934 C932 1.384 . S
C934 C935 1.372 . S
C935 C934 1.372 . S
C935 C936 1.400 . S
C935 C940 1.490 . S
C936 H926 0.930 . S
C936 C935 1.400 . S
C936 C939 1.386 . S
H937 C953 0.930 . S
H938 C954 0.931 . S
C939 H927 0.929 . S
C939 C933 1.390 . S
C939 C936 1.386 . S
C940 C935 1.490 . S
C940 C942 1.395 1_455 S
C940 C943 1.403 . S
H941 C947 0.930 . S
C942 H928 0.930 . S
C942 C940 1.395 1_655 S
C942 C945 1.403 . S
C943 C940 1.403 . S
C943 C944 1.524 . S
C943 C947 1.400 . S
C944 H929 0.960 . S
C944 H930 0.960 . S
C944 H931 0.960 . S
C944 C943 1.524 . S
C945 C942 1.403 . S
C945 C946 1.392 . S
C945 C949 1.495 . S
C946 C945 1.392 . S
C946 C947 1.385 1_655 S
C946 C948 1.478 . S
C947 H941 0.930 . S
C947 C943 1.400 . S
C947 C946 1.385 1_455 S
C948 C946 1.478 . S
C948 C950 1.381 . S
C948 C954 1.383 . S
C949 C945 1.495 . S
C949 H955 0.959 . S
C949 H956 0.961 . S
C949 H957 0.960 . S
C950 C948 1.381 . S
C950 C951 1.394 . S
C950 H958 0.930 . S
C951 C950 1.394 . S
C951 C952 1.383 . S
C951 H959 0.929 . S
C952 C951 1.383 . S
C952 C953 1.377 . S
C953 H937 0.930 . S
C953 C952 1.377 . S
C953 C954 1.379 . S
C954 H938 0.931 . S
C954 C948 1.383 . S
C954 C953 1.379 . S
H955 C949 0.959 . S
H956 C949 0.961 . S
H957 C949 0.960 . S
H958 C950 0.930 . S
H959 C951 0.929 . S
H960 C968 0.929 . S
H961 C970 0.930 . S
H962 C972 0.930 . S
H963 C975 0.929 . S
H964 C978 0.930 . S
H965 C980 0.960 . S
H966 C980 0.960 . S
H967 C980 0.960 1_565 S
C968 H960 0.929 . S
C968 C969 1.377 . S
C968 C970 1.384 . S
C969 C968 1.377 . S
C969 C975 1.390 . S
C970 H961 0.930 . S
C970 C968 1.384 . S
C970 C971 1.372 . S
C971 C970 1.372 . S
C971 C972 1.400 . S
C971 C976 1.490 . S
C972 H962 0.930 . S
C972 C971 1.400 . S
C972 C975 1.386 . S
H973 C989 0.930 . S
H974 C990 0.931 . S
C975 H963 0.929 . S
C975 C969 1.390 . S
C975 C972 1.386 . S
C976 C971 1.490 . S
C976 C978 1.395 . S
C976 C979 1.403 1_565 S
H977 C983 0.930 . S
C978 H964 0.930 . S
C978 C976 1.395 . S
C978 C981 1.403 . S
C979 C976 1.403 1_545 S
C979 C980 1.524 . S
C979 C983 1.400 . S
C980 H965 0.960 . S
C980 H966 0.960 . S
C980 H967 0.960 1_545 S
C980 C979 1.524 . S
C981 C978 1.403 . S
C981 C982 1.392 1_565 S
C981 C985 1.495 . S
C982 C981 1.392 1_545 S
C982 C983 1.385 . S
C982 C984 1.478 . S
C983 H977 0.930 . S
C983 C979 1.400 . S
C983 C982 1.385 . S
C984 C982 1.478 . S
C984 C986 1.381 . S
C984 C990 1.383 . S
C985 C981 1.495 . S
C985 H991 0.959 . S
C985 H992 0.961 . S
C985 H993 0.922 1_565 S
C986 C984 1.381 . S
C986 C987 1.394 . S
C986 H994 0.930 . S
C987 C986 1.394 . S
C987 C988 1.383 . S
C987 H995 0.929 . S
C988 C987 1.383 . S
C988 C989 1.377 . S
C989 H973 0.930 . S
C989 C988 1.377 . S
C989 C990 1.379 . S
C990 H974 0.931 . S
C990 C984 1.383 . S
C990 C989 1.379 . S
H991 C985 0.959 . S
H992 C985 0.961 . S
H993 C985 0.922 1_545 S
H994 C986 0.930 . S
H995 C987 0.929 . S
H996 C1004 0.929 . S
H997 C1006 0.930 . S
H998 C1008 0.930 . S
H999 C1011 0.929 . S
H1000 C1014 0.930 . S
H1001 C1016 0.960 . S
H1002 C1016 0.960 . S
H1003 C1016 0.960 . S
C1004 H996 0.929 . S
C1004 C1005 1.377 . S
C1004 C1006 1.384 . S
C1005 C1004 1.377 . S
C1005 C1011 1.390 . S
C1006 H997 0.930 . S
C1006 C1004 1.384 . S
C1006 C1007 1.372 . S
C1007 C1006 1.372 . S
C1007 C1008 1.400 . S
C1007 C1012 1.490 . S
C1008 H998 0.930 . S
C1008 C1007 1.400 . S
C1008 C1011 1.386 . S
H1009 C1025 0.930 . S
H1010 C1026 0.931 . S
C1011 H999 0.929 . S
C1011 C1005 1.390 . S
C1011 C1008 1.386 . S
C1012 C1007 1.490 . S
C1012 C1014 1.395 . S
C1012 C1015 1.403 . S
H1013 C1019 0.930 . S
C1014 H1000 0.930 . S
C1014 C1012 1.395 . S
C1014 C1017 1.403 . S
C1015 C1012 1.403 . S
C1015 C1016 1.524 . S
C1015 C1019 1.400 . S
C1016 H1001 0.960 . S
C1016 H1002 0.960 . S
C1016 H1003 0.960 . S
C1016 C1015 1.524 . S
C1017 C1014 1.403 . S
C1017 C1018 1.392 . S
C1017 C1021 1.495 . S
C1018 C1017 1.392 . S
C1018 C1019 1.385 . S
C1018 C1020 1.478 . S
C1019 H1013 0.930 . S
C1019 C1015 1.400 . S
C1019 C1018 1.385 . S
C1020 C1018 1.478 . S
C1020 C1022 1.381 . S
C1020 C1026 1.383 . S
C1021 C1017 1.495 . S
C1021 H1027 0.959 . S
C1021 H1028 0.961 . S
C1021 H1029 0.960 . S
C1022 C1020 1.381 . S
C1022 C1023 1.394 . S
C1022 H1030 0.930 . S
C1023 C1022 1.394 . S
C1023 C1024 1.383 . S
C1023 H1031 0.929 . S
C1024 C1023 1.383 . S
C1024 C1025 1.377 . S
C1025 H1009 0.930 . S
C1025 C1024 1.377 . S
C1025 C1026 1.379 . S
C1026 H1010 0.931 . S
C1026 C1020 1.383 . S
C1026 C1025 1.379 . S
H1027 C1021 0.959 . S
H1028 C1021 0.961 . S
H1029 C1021 0.960 . S
H1030 C1022 0.930 . S
H1031 C1023 0.929 . S
H1032 C1040 0.929 . S
H1033 C1042 0.930 . S
H1034 C1044 0.930 . S
H1035 C1047 0.929 . S
H1036 C1050 0.930 . S
H1037 C1052 0.960 . S
H1038 C1052 0.960 . S
H1039 C1052 0.960 . S
C1040 H1032 0.929 . S
C1040 C1041 1.377 . S
C1040 C1042 1.384 . S
C1041 C1040 1.377 . S
C1041 C1047 1.390 . S
C1042 H1033 0.930 . S
C1042 C1040 1.384 . S
C1042 C1043 1.372 . S
C1043 C1042 1.372 . S
C1043 C1044 1.400 . S
C1043 C1048 1.490 . S
C1044 H1034 0.930 . S
C1044 C1043 1.400 . S
C1044 C1047 1.386 . S
H1045 C1061 0.930 . S
H1046 C1062 0.931 . S
C1047 H1035 0.929 . S
C1047 C1041 1.390 . S
C1047 C1044 1.386 . S
C1048 C1043 1.490 . S
C1048 C1050 1.395 1_545 S
C1048 C1051 1.403 . S
H1049 C1055 0.930 . S
C1050 H1036 0.930 . S
C1050 C1048 1.395 1_565 S
C1050 C1053 1.403 . S
C1051 C1048 1.403 . S
C1051 C1052 1.524 . S
C1051 C1055 1.400 . S
C1052 H1037 0.960 . S
C1052 H1038 0.960 . S
C1052 H1039 0.960 . S
C1052 C1051 1.524 . S
C1053 C1050 1.403 . S
C1053 C1054 1.392 . S
C1053 C1057 1.495 . S
C1054 C1053 1.392 . S
C1054 C1055 1.385 1_565 S
C1054 C1056 1.478 . S
C1055 H1049 0.930 . S
C1055 C1051 1.400 . S
C1055 C1054 1.385 1_545 S
C1056 C1054 1.478 . S
C1056 C1058 1.381 . S
C1056 C1062 1.383 . S
C1057 C1053 1.495 . S
C1057 H1063 0.959 . S
C1057 H1064 0.961 . S
C1057 H1065 0.960 . S
C1058 C1056 1.381 . S
C1058 C1059 1.394 . S
C1058 H1066 0.930 . S
C1059 C1058 1.394 . S
C1059 C1060 1.383 . S
C1059 H1067 0.929 . S
C1060 C1059 1.383 . S
C1060 C1061 1.377 . S
C1061 H1045 0.930 . S
C1061 C1060 1.377 . S
C1061 C1062 1.379 . S
C1062 H1046 0.931 . S
C1062 C1056 1.383 . S
C1062 C1061 1.379 . S
H1063 C1057 0.959 . S
H1064 C1057 0.961 . S
H1065 C1057 0.960 . S
H1066 C1058 0.930 . S
H1067 C1059 0.929 . S
H1068 C1076 0.929 . S
H1069 C1078 0.930 . S
H1070 C1080 0.930 . S
H1071 C1083 0.929 . S
H1072 C1086 0.930 . S
H1073 C1088 0.960 . S
H1074 C1088 0.960 . S
H1075 C1088 0.960 . S
C1076 H1068 0.929 . S
C1076 C1077 1.377 . S
C1076 C1078 1.384 . S
C1077 C1076 1.377 . S
C1077 C1083 1.390 . S
C1078 H1069 0.930 . S
C1078 C1076 1.384 . S
C1078 C1079 1.372 . S
C1079 C1078 1.372 . S
C1079 C1080 1.400 . S
C1079 C1084 1.490 . S
C1080 H1070 0.930 . S
C1080 C1079 1.400 . S
C1080 C1083 1.386 . S
H1081 C1097 0.930 . S
H1082 C1098 0.931 . S
C1083 H1071 0.929 . S
C1083 C1077 1.390 . S
C1083 C1080 1.386 . S
C1084 C1079 1.490 . S
C1084 C1086 1.395 . S
C1084 C1087 1.403 . S
H1085 C1091 0.930 . S
C1086 H1072 0.930 . S
C1086 C1084 1.395 . S
C1086 C1089 1.403 . S
C1087 C1084 1.403 . S
C1087 C1088 1.524 . S
C1087 C1091 1.400 . S
C1088 H1073 0.960 . S
C1088 H1074 0.960 . S
C1088 H1075 0.960 . S
C1088 C1087 1.524 . S
C1089 C1086 1.403 . S
C1089 C1090 1.392 . S
C1089 C1093 1.495 . S
C1090 C1089 1.392 . S
C1090 C1091 1.385 . S
C1090 C1092 1.478 . S
C1091 H1085 0.930 . S
C1091 C1087 1.400 . S
C1091 C1090 1.385 . S
C1092 C1090 1.478 . S
C1092 C1094 1.381 . S
C1092 C1098 1.383 . S
C1093 C1089 1.495 . S
C1093 H1099 0.959 . S
C1093 H1100 0.961 . S
C1093 H1101 0.960 . S
C1094 C1092 1.381 . S
C1094 C1095 1.394 . S
C1094 H1102 0.930 . S
C1095 C1094 1.394 . S
C1095 C1096 1.383 . S
C1095 H1103 0.929 . S
C1096 C1095 1.383 . S
C1096 C1097 1.377 . S
C1097 H1081 0.930 . S
C1097 C1096 1.377 . S
C1097 C1098 1.379 . S
C1098 H1082 0.931 . S
C1098 C1092 1.383 . S
C1098 C1097 1.379 . S
H1099 C1093 0.959 . S
H1100 C1093 0.961 . S
H1101 C1093 0.960 . S
H1102 C1094 0.930 . S
H1103 C1095 0.929 . S
H1104 C1112 0.929 . S
H1105 C1114 0.930 . S
H1106 C1116 0.930 . S
H1107 C1119 0.929 . S
H1108 C1122 0.930 . S
H1109 C1124 0.960 . S
H1110 C1124 0.960 . S
H1111 C1124 0.960 . S
C1112 H1104 0.929 . S
C1112 C1113 1.377 . S
C1112 C1114 1.384 . S
C1113 C1112 1.377 . S
C1113 C1119 1.390 . S
C1114 H1105 0.930 . S
C1114 C1112 1.384 . S
C1114 C1115 1.372 . S
C1115 C1114 1.372 . S
C1115 C1116 1.400 . S
C1115 C1120 1.490 . S
C1116 H1106 0.930 . S
C1116 C1115 1.400 . S
C1116 C1119 1.386 . S
H1117 C1133 0.930 . S
H1118 C1134 0.931 . S
C1119 H1107 0.929 . S
C1119 C1113 1.390 . S
C1119 C1116 1.386 . S
C1120 C1115 1.490 . S
C1120 C1122 1.395 . S
C1120 C1123 1.403 1_655 S
H1121 C1127 0.930 . S
C1122 H1108 0.930 . S
C1122 C1120 1.395 . S
C1122 C1125 1.403 . S
C1123 C1120 1.403 1_455 S
C1123 C1124 1.524 . S
C1123 C1127 1.400 . S
C1124 H1109 0.960 . S
C1124 H1110 0.960 . S
C1124 H1111 0.960 . S
C1124 C1123 1.524 . S
C1125 C1122 1.403 . S
C1125 C1126 1.392 1_655 S
C1125 C1129 1.495 . S
C1126 C1125 1.392 1_455 S
C1126 C1127 1.385 . S
C1126 C1128 1.478 . S
C1127 H1121 0.930 . S
C1127 C1123 1.400 . S
C1127 C1126 1.385 . S
C1128 C1126 1.478 . S
C1128 C1130 1.381 . S
C1128 C1134 1.383 . S
C1129 C1125 1.495 . S
C1129 H1135 0.959 . S
C1129 H1136 0.961 . S
C1129 H1137 0.960 . S
C1130 C1128 1.381 . S
C1130 C1131 1.394 . S
C1130 H1138 0.930 . S
C1131 C1130 1.394 . S
C1131 C1132 1.383 . S
C1131 H1139 0.929 . S
C1132 C1131 1.383 . S
C1132 C1133 1.377 . S
C1133 H1117 0.930 . S
C1133 C1132 1.377 . S
C1133 C1134 1.379 . S
C1134 H1118 0.931 . S
C1134 C1128 1.383 . S
C1134 C1133 1.379 . S
H1135 C1129 0.959 . S
H1136 C1129 0.961 . S
H1137 C1129 0.960 . S
H1138 C1130 0.930 . S
H1139 C1131 0.929 . S
H1140 C1148 0.929 . S
H1141 C1150 0.930 . S
H1142 C1152 0.930 . S
H1143 C1155 0.929 . S
H1144 C1158 0.930 . S
H1145 C1160 0.960 . S
H1146 C1160 0.960 . S
H1147 C1160 0.960 . S
C1148 H1140 0.929 . S
C1148 C1149 1.377 . S
C1148 C1150 1.384 . S
C1149 C1148 1.377 . S
C1149 C1155 1.390 . S
C1150 H1141 0.930 . S
C1150 C1148 1.384 . S
C1150 C1151 1.372 . S
C1151 C1150 1.372 . S
C1151 C1152 1.400 . S
C1151 C1156 1.490 . S
C1152 H1142 0.930 . S
C1152 C1151 1.400 . S
C1152 C1155 1.386 . S
H1153 C1169 0.930 . S
H1154 C1170 0.931 . S
C1155 H1143 0.929 . S
C1155 C1149 1.390 . S
C1155 C1152 1.386 . S
C1156 C1151 1.490 . S
C1156 C1158 1.395 1_655 S
C1156 C1159 1.403 . S
H1157 C1163 0.906 . S
C1158 H1144 0.930 . S
C1158 C1156 1.395 1_455 S
C1158 C1161 1.403 . S
C1159 C1156 1.403 . S
C1159 C1160 1.524 . S
C1159 C1163 1.473 . S
C1160 H1145 0.960 . S
C1160 H1146 0.960 . S
C1160 H1147 0.960 . S
C1160 C1159 1.524 . S
C1161 C1158 1.403 . S
C1161 C1162 1.392 . S
C1161 C1165 1.495 . S
C1162 C1161 1.392 . S
C1162 C1163 1.339 1_455 S
C1162 C1164 1.478 . S
C1163 H1157 0.906 . S
C1163 C1159 1.473 . S
C1163 C1162 1.339 1_655 S
C1164 C1162 1.478 . S
C1164 C1166 1.381 . S
C1164 C1170 1.383 . S
C1165 C1161 1.495 . S
C1165 H1171 0.959 . S
C1165 H1172 0.961 . S
C1165 H1173 0.960 . S
C1166 C1164 1.381 . S
C1166 C1167 1.394 . S
C1166 H1174 0.930 . S
C1167 C1166 1.394 . S
C1167 C1168 1.383 . S
C1167 H1175 0.929 . S
C1168 C1167 1.383 . S
C1168 C1169 1.377 . S
C1169 H1153 0.930 . S
C1169 C1168 1.377 . S
C1169 C1170 1.379 . S
C1170 H1154 0.931 . S
C1170 C1164 1.383 . S
C1170 C1169 1.379 . S
H1171 C1165 0.959 . S
H1172 C1165 0.961 . S
H1173 C1165 0.960 . S
H1174 C1166 0.930 . S
H1175 C1167 0.929 . S
H1176 C1184 0.929 . S
H1177 C1186 0.930 . S
H1178 C1188 0.930 . S
H1179 C1191 0.929 . S
H1180 C1194 0.914 . S
H1181 C1196 0.960 . S
H1182 C1196 0.960 . S
H1183 C1196 0.960 . S
C1184 H1176 0.929 . S
C1184 C1185 1.377 . S
C1184 C1186 1.384 . S
C1185 C1184 1.377 . S
C1185 C1191 1.390 . S
C1186 H1177 0.930 . S
C1186 C1184 1.384 . S
C1186 C1187 1.372 . S
C1187 C1186 1.372 . S
C1187 C1188 1.400 . S
C1187 C1192 1.490 . S
C1188 H1178 0.930 . S
C1188 C1187 1.400 . S
C1188 C1191 1.386 . S
H1189 C1205 0.930 . S
H1190 C1206 0.931 . S
C1191 H1179 0.929 . S
C1191 C1185 1.390 . S
C1191 C1188 1.386 . S
C1192 C1187 1.490 . S
C1192 C1194 1.395 1_545 S
C1192 C1195 1.403 . S
H1193 C1199 0.930 . S
C1194 H1180 0.914 . S
C1194 C1192 1.395 1_565 S
C1194 C1197 1.403 . S
C1195 C1192 1.403 . S
C1195 C1196 1.524 . S
C1195 C1199 1.400 1_545 S
C1196 H1181 0.960 . S
C1196 H1182 0.960 . S
C1196 H1183 0.960 . S
C1196 C1195 1.524 . S
C1197 C1194 1.403 . S
C1197 C1198 1.392 . S
C1197 C1201 1.495 . S
C1198 C1197 1.392 . S
C1198 C1199 1.385 . S
C1198 C1200 1.478 . S
C1199 H1193 0.930 . S
C1199 C1195 1.400 1_565 S
C1199 C1198 1.385 . S
C1200 C1198 1.478 . S
C1200 C1202 1.381 . S
C1200 C1206 1.383 . S
C1201 C1197 1.495 . S
C1201 H1207 0.959 . S
C1201 H1208 0.961 . S
C1201 H1209 0.960 . S
C1202 C1200 1.381 . S
C1202 C1203 1.394 . S
C1202 H1210 0.930 . S
C1203 C1202 1.394 . S
C1203 C1204 1.383 . S
C1203 H1211 0.929 . S
C1204 C1203 1.383 . S
C1204 C1205 1.377 . S
C1205 H1189 0.930 . S
C1205 C1204 1.377 . S
C1205 C1206 1.379 . S
C1206 H1190 0.931 . S
C1206 C1200 1.383 . S
C1206 C1205 1.379 . S
H1207 C1201 0.959 . S
H1208 C1201 0.961 . S
H1209 C1201 0.960 . S
H1210 C1202 0.930 . S
H1211 C1203 0.929 . S
H1212 C1220 0.929 . S
H1213 C1222 0.930 . S
H1214 C1224 0.930 . S
H1215 C1227 0.929 . S
H1216 C1230 0.930 . S
H1217 C1232 0.960 . S
H1218 C1232 0.960 . S
H1219 C1232 0.960 . S
C1220 H1212 0.929 . S
C1220 C1221 1.377 . S
C1220 C1222 1.384 . S
C1221 C1220 1.377 . S
C1221 C1227 1.390 . S
C1222 H1213 0.930 . S
C1222 C1220 1.384 . S
C1222 C1223 1.372 . S
C1223 C1222 1.372 . S
C1223 C1224 1.400 . S
C1223 C1228 1.490 . S
C1224 H1214 0.930 . S
C1224 C1223 1.400 . S
C1224 C1227 1.386 . S
H1225 C1241 0.930 . S
H1226 C1242 0.931 . S
C1227 H1215 0.929 . S
C1227 C1221 1.390 . S
C1227 C1224 1.386 . S
C1228 C1223 1.490 . S
C1228 C1230 1.395 . S
C1228 C1231 1.403 . S
H1229 C1235 0.930 . S
C1230 H1216 0.930 . S
C1230 C1228 1.395 . S
C1230 C1233 1.403 . S
C1231 C1228 1.403 . S
C1231 C1232 1.524 . S
C1231 C1235 1.400 . S
C1232 H1217 0.960 . S
C1232 H1218 0.960 . S
C1232 H1219 0.960 . S
C1232 C1231 1.524 . S
C1233 C1230 1.403 . S
C1233 C1234 1.392 . S
C1233 C1237 1.495 . S
C1234 C1233 1.392 . S
C1234 C1235 1.385 . S
C1234 C1236 1.478 . S
C1235 H1229 0.930 . S
C1235 C1231 1.400 . S
C1235 C1234 1.385 . S
C1236 C1234 1.478 . S
C1236 C1238 1.381 . S
C1236 C1242 1.383 . S
C1237 C1233 1.495 . S
C1237 H1243 0.959 . S
C1237 H1244 0.961 . S
C1237 H1245 0.960 . S
C1238 C1236 1.381 . S
C1238 C1239 1.394 . S
C1238 H1246 0.930 . S
C1239 C1238 1.394 . S
C1239 C1240 1.383 . S
C1239 H1247 0.929 . S
C1240 C1239 1.383 . S
C1240 C1241 1.377 . S
C1241 H1225 0.930 . S
C1241 C1240 1.377 . S
C1241 C1242 1.379 . S
C1242 H1226 0.931 . S
C1242 C1236 1.383 . S
C1242 C1241 1.379 . S
H1243 C1237 0.959 . S
H1244 C1237 0.961 . S
H1245 C1237 0.960 . S
H1246 C1238 0.930 . S
H1247 C1239 0.929 . S
H1248 C1256 0.929 . S
H1249 C1258 0.930 . S
H1250 C1260 0.930 . S
H1251 C1263 0.929 . S
H1252 C1266 0.930 . S
H1253 C1268 0.960 . S
H1254 C1268 0.960 . S
H1255 C1268 0.960 . S
C1256 H1248 0.929 . S
C1256 C1257 1.377 . S
C1256 C1258 1.384 . S
C1257 C1256 1.377 . S
C1257 C1263 1.390 . S
C1258 H1249 0.930 . S
C1258 C1256 1.384 . S
C1258 C1259 1.372 . S
C1259 C1258 1.372 . S
C1259 C1260 1.400 . S
C1259 C1264 1.490 . S
C1260 H1250 0.930 . S
C1260 C1259 1.400 . S
C1260 C1263 1.386 . S
H1261 C1277 0.930 . S
H1262 C1278 0.931 . S
C1263 H1251 0.929 . S
C1263 C1257 1.390 . S
C1263 C1260 1.386 . S
C1264 C1259 1.490 . S
C1264 C1266 1.395 . S
C1264 C1267 1.403 . S
H1265 C1271 0.930 . S
C1266 H1252 0.930 . S
C1266 C1264 1.395 . S
C1266 C1269 1.403 . S
C1267 C1264 1.403 . S
C1267 C1268 1.524 . S
C1267 C1271 1.400 . S
C1268 H1253 0.960 . S
C1268 H1254 0.960 . S
C1268 H1255 0.960 . S
C1268 C1267 1.524 . S
C1269 C1266 1.403 . S
C1269 C1270 1.392 . S
C1269 C1273 1.495 . S
C1270 C1269 1.392 . S
C1270 C1271 1.385 . S
C1270 C1272 1.478 . S
C1271 H1265 0.930 . S
C1271 C1267 1.400 . S
C1271 C1270 1.385 . S
C1272 C1270 1.478 . S
C1272 C1274 1.381 . S
C1272 C1278 1.383 . S
C1273 C1269 1.495 . S
C1273 H1279 0.959 . S
C1273 H1280 0.961 . S
C1273 H1281 0.960 . S
C1274 C1272 1.381 . S
C1274 C1275 1.394 . S
C1274 H1282 0.930 . S
C1275 C1274 1.394 . S
C1275 C1276 1.383 . S
C1275 H1283 0.929 . S
C1276 C1275 1.383 . S
C1276 C1277 1.377 . S
C1277 H1261 0.930 . S
C1277 C1276 1.377 . S
C1277 C1278 1.379 . S
C1278 H1262 0.931 . S
C1278 C1272 1.383 . S
C1278 C1277 1.379 . S
H1279 C1273 0.959 . S
H1280 C1273 0.961 . S
H1281 C1273 0.960 . S
H1282 C1274 0.930 . S
H1283 C1275 0.929 . S
H1284 C1292 0.929 . S
H1285 C1294 0.930 . S
H1286 C1296 0.930 . S
H1287 C1299 0.929 . S
H1288 C1302 0.930 . S
H1289 C1304 0.960 . S
H1290 C1304 0.960 . S
H1291 C1304 0.960 . S
C1292 H1284 0.929 . S
C1292 C1293 1.377 . S
C1292 C1294 1.384 . S
C1293 C1292 1.377 . S
C1293 C1299 1.390 . S
C1294 H1285 0.930 . S
C1294 C1292 1.384 . S
C1294 C1295 1.372 . S
C1295 C1294 1.372 . S
C1295 C1296 1.400 . S
C1295 C1300 1.490 . S
C1296 H1286 0.930 . S
C1296 C1295 1.400 . S
C1296 C1299 1.386 . S
H1297 C1313 0.930 . S
H1298 C1314 0.931 . S
C1299 H1287 0.929 . S
C1299 C1293 1.390 . S
C1299 C1296 1.386 . S
C1300 C1295 1.490 . S
C1300 C1302 1.395 . S
C1300 C1303 1.403 . S
H1301 C1307 0.930 . S
C1302 H1288 0.930 . S
C1302 C1300 1.395 . S
C1302 C1305 1.403 . S
C1303 C1300 1.403 . S
C1303 C1304 1.524 . S
C1303 C1307 1.400 . S
C1304 H1289 0.960 . S
C1304 H1290 0.960 . S
C1304 H1291 0.960 . S
C1304 C1303 1.524 . S
C1305 C1302 1.403 . S
C1305 C1306 1.392 . S
C1305 C1309 1.495 . S
C1306 C1305 1.392 . S
C1306 C1307 1.385 . S
C1306 C1308 1.478 . S
C1307 H1301 0.930 . S
C1307 C1303 1.400 . S
C1307 C1306 1.385 . S
C1308 C1306 1.478 . S
C1308 C1310 1.381 . S
C1308 C1314 1.383 . S
C1309 C1305 1.495 . S
C1309 H1315 0.959 . S
C1309 H1316 0.961 . S
C1309 H1317 0.960 . S
C1310 C1308 1.381 . S
C1310 C1311 1.394 . S
C1310 H1318 0.930 . S
C1311 C1310 1.394 . S
C1311 C1312 1.383 . S
C1311 H1319 0.929 . S
C1312 C1311 1.383 . S
C1312 C1313 1.377 . S
C1313 H1297 0.930 . S
C1313 C1312 1.377 . S
C1313 C1314 1.379 . S
C1314 H1298 0.931 . S
C1314 C1308 1.383 . S
C1314 C1313 1.379 . S
H1315 C1309 0.959 . S
H1316 C1309 0.961 . S
H1317 C1309 0.960 . S
H1318 C1310 0.930 . S
H1319 C1311 0.929 . S
H1320 C1328 0.929 . S
H1321 C1330 0.930 . S
H1322 C1332 0.930 . S
H1323 C1335 0.929 . S
H1324 C1338 0.930 . S
H1325 C1340 0.960 . S
H1326 C1340 0.960 . S
H1327 C1340 0.960 . S
C1328 H1320 0.929 . S
C1328 C1329 1.377 . S
C1328 C1330 1.384 . S
C1329 C1328 1.377 . S
C1329 C1335 1.390 . S
C1330 H1321 0.930 . S
C1330 C1328 1.384 . S
C1330 C1331 1.372 . S
C1331 C1330 1.372 . S
C1331 C1332 1.400 . S
C1331 C1336 1.490 . S
C1332 H1322 0.930 . S
C1332 C1331 1.400 . S
C1332 C1335 1.386 . S
H1333 C1349 0.930 . S
H1334 C1350 0.931 . S
C1335 H1323 0.929 . S
C1335 C1329 1.390 . S
C1335 C1332 1.386 . S
C1336 C1331 1.490 . S
C1336 C1338 1.395 . S
C1336 C1339 1.403 . S
H1337 C1343 0.930 . S
C1338 H1324 0.930 . S
C1338 C1336 1.395 . S
C1338 C1341 1.403 . S
C1339 C1336 1.403 . S
C1339 C1340 1.524 . S
C1339 C1343 1.400 . S
C1340 H1325 0.960 . S
C1340 H1326 0.960 . S
C1340 H1327 0.960 . S
C1340 C1339 1.524 . S
C1341 C1338 1.403 . S
C1341 C1342 1.392 . S
C1341 C1345 1.495 . S
C1342 C1341 1.392 . S
C1342 C1343 1.385 . S
C1342 C1344 1.478 . S
C1343 H1337 0.930 . S
C1343 C1339 1.400 . S
C1343 C1342 1.385 . S
C1344 C1342 1.478 . S
C1344 C1346 1.381 . S
C1344 C1350 1.383 . S
C1345 C1341 1.495 . S
C1345 H1351 0.959 . S
C1345 H1352 0.961 . S
C1345 H1353 0.960 . S
C1346 C1344 1.381 . S
C1346 C1347 1.394 . S
C1346 H1354 0.930 . S
C1347 C1346 1.394 . S
C1347 C1348 1.383 . S
C1347 H1355 0.929 . S
C1348 C1347 1.383 . S
C1348 C1349 1.377 . S
C1349 H1333 0.930 . S
C1349 C1348 1.377 . S
C1349 C1350 1.379 . S
C1350 H1334 0.931 . S
C1350 C1344 1.383 . S
C1350 C1349 1.379 . S
H1351 C1345 0.959 . S
H1352 C1345 0.961 . S
H1353 C1345 0.960 . S
H1354 C1346 0.930 . S
H1355 C1347 0.929 . S
H1356 C1364 0.929 . S
H1357 C1366 0.930 . S
H1358 C1368 0.930 . S
H1359 C1371 0.929 . S
H1360 C1374 0.930 . S
H1361 C1376 0.960 . S
H1362 C1376 0.960 . S
H1363 C1376 0.960 . S
C1364 H1356 0.929 . S
C1364 C1365 1.377 . S
C1364 C1366 1.384 . S
C1365 C1364 1.377 . S
C1365 C1371 1.390 . S
C1366 H1357 0.930 . S
C1366 C1364 1.384 . S
C1366 C1367 1.372 . S
C1367 C1366 1.372 . S
C1367 C1368 1.400 . S
C1367 C1372 1.490 . S
C1368 H1358 0.930 . S
C1368 C1367 1.400 . S
C1368 C1371 1.386 . S
H1369 C1385 0.930 . S
H1370 C1386 0.931 . S
C1371 H1359 0.929 . S
C1371 C1365 1.390 . S
C1371 C1368 1.386 . S
C1372 C1367 1.490 . S
C1372 C1374 1.395 . S
C1372 C1375 1.403 . S
H1373 C1379 0.930 . S
C1374 H1360 0.930 . S
C1374 C1372 1.395 . S
C1374 C1377 1.403 . S
C1375 C1372 1.403 . S
C1375 C1376 1.524 . S
C1375 C1379 1.400 . S
C1376 H1361 0.960 . S
C1376 H1362 0.960 . S
C1376 H1363 0.960 . S
C1376 C1375 1.524 . S
C1377 C1374 1.403 . S
C1377 C1378 1.392 . S
C1377 C1381 1.495 . S
C1378 C1377 1.392 . S
C1378 C1379 1.385 . S
C1378 C1380 1.478 . S
C1379 H1373 0.930 . S
C1379 C1375 1.400 . S
C1379 C1378 1.385 . S
C1380 C1378 1.478 . S
C1380 C1382 1.381 . S
C1380 C1386 1.383 . S
C1381 C1377 1.495 . S
C1381 H1387 0.959 . S
C1381 H1388 0.961 . S
C1381 H1389 0.960 . S
C1382 C1380 1.381 . S
C1382 C1383 1.394 . S
C1382 H1390 0.930 . S
C1383 C1382 1.394 . S
C1383 C1384 1.383 . S
C1383 H1391 0.929 . S
C1384 C1383 1.383 . S
C1384 C1385 1.377 . S
C1385 H1369 0.930 . S
C1385 C1384 1.377 . S
C1385 C1386 1.379 . S
C1386 H1370 0.931 . S
C1386 C1380 1.383 . S
C1386 C1385 1.379 . S
H1387 C1381 0.959 . S
H1388 C1381 0.961 . S
H1389 C1381 0.960 . S
H1390 C1382 0.930 . S
H1391 C1383 0.929 . S
H1392 C1400 0.929 . S
H1393 C1402 0.930 . S
H1394 C1404 0.930 . S
H1395 C1407 0.929 . S
H1396 C1410 0.930 . S
H1397 C1412 0.960 . S
H1398 C1412 0.960 . S
H1399 C1412 0.960 . S
C1400 H1392 0.929 . S
C1400 C1401 1.377 . S
C1400 C1402 1.384 . S
C1401 C1400 1.377 . S
C1401 C1407 1.390 . S
C1402 H1393 0.930 . S
C1402 C1400 1.384 . S
C1402 C1403 1.372 . S
C1403 C1402 1.372 . S
C1403 C1404 1.400 . S
C1403 C1408 1.490 . S
C1404 H1394 0.930 . S
C1404 C1403 1.400 . S
C1404 C1407 1.386 . S
H1405 C1421 0.930 . S
H1406 C1422 0.931 . S
C1407 H1395 0.929 . S
C1407 C1401 1.390 . S
C1407 C1404 1.386 . S
C1408 C1403 1.490 . S
C1408 C1410 1.395 . S
C1408 C1411 1.403 . S
H1409 C1415 0.930 . S
C1410 H1396 0.930 . S
C1410 C1408 1.395 . S
C1410 C1413 1.403 . S
C1411 C1408 1.403 . S
C1411 C1412 1.524 . S
C1411 C1415 1.400 . S
C1412 H1397 0.960 . S
C1412 H1398 0.960 . S
C1412 H1399 0.960 . S
C1412 C1411 1.524 . S
C1413 C1410 1.403 . S
C1413 C1414 1.392 . S
C1413 C1417 1.495 . S
C1414 C1413 1.392 . S
C1414 C1415 1.385 . S
C1414 C1416 1.478 . S
C1415 H1409 0.930 . S
C1415 C1411 1.400 . S
C1415 C1414 1.385 . S
C1416 C1414 1.478 . S
C1416 C1418 1.381 . S
C1416 C1422 1.383 . S
C1417 C1413 1.495 . S
C1417 H1423 0.959 . S
C1417 H1424 0.961 . S
C1417 H1425 0.960 . S
C1418 C1416 1.381 . S
C1418 C1419 1.394 . S
C1418 H1426 0.930 . S
C1419 C1418 1.394 . S
C1419 C1420 1.383 . S
C1419 H1427 0.929 . S
C1420 C1419 1.383 . S
C1420 C1421 1.377 . S
C1421 H1405 0.930 . S
C1421 C1420 1.377 . S
C1421 C1422 1.379 . S
C1422 H1406 0.931 . S
C1422 C1416 1.383 . S
C1422 C1421 1.379 . S
H1423 C1417 0.959 . S
H1424 C1417 0.961 . S
H1425 C1417 0.960 . S
H1426 C1418 0.930 . S
H1427 C1419 0.929 . S
H1428 C1436 0.929 . S
H1429 C1438 0.930 . S
H1430 C1440 0.930 . S
H1431 C1443 0.929 . S
H1432 C1446 0.930 . S
H1433 C1448 0.960 . S
H1434 C1448 0.960 . S
H1435 C1448 0.960 . S
C1436 H1428 0.929 . S
C1436 C1437 1.377 . S
C1436 C1438 1.384 . S
C1437 C1436 1.377 . S
C1437 C1443 1.390 . S
C1438 H1429 0.930 . S
C1438 C1436 1.384 . S
C1438 C1439 1.372 . S
C1439 C1438 1.372 . S
C1439 C1440 1.400 . S
C1439 C1444 1.490 . S
C1440 H1430 0.930 . S
C1440 C1439 1.400 . S
C1440 C1443 1.386 . S
H1441 C1457 0.930 . S
H1442 C1458 0.931 . S
C1443 H1431 0.929 . S
C1443 C1437 1.390 . S
C1443 C1440 1.386 . S
C1444 C1439 1.490 . S
C1444 C1446 1.395 . S
C1444 C1447 1.403 . S
H1445 C1451 0.930 . S
C1446 H1432 0.930 . S
C1446 C1444 1.395 . S
C1446 C1449 1.403 . S
C1447 C1444 1.403 . S
C1447 C1448 1.524 . S
C1447 C1451 1.400 . S
C1448 H1433 0.960 . S
C1448 H1434 0.960 . S
C1448 H1435 0.960 . S
C1448 C1447 1.524 . S
C1449 C1446 1.403 . S
C1449 C1450 1.392 . S
C1449 C1453 1.495 . S
C1450 C1449 1.392 . S
C1450 C1451 1.385 . S
C1450 C1452 1.478 . S
C1451 H1445 0.930 . S
C1451 C1447 1.400 . S
C1451 C1450 1.385 . S
C1452 C1450 1.478 . S
C1452 C1454 1.381 . S
C1452 C1458 1.383 . S
C1453 C1449 1.495 . S
C1453 H1459 0.959 . S
C1453 H1460 0.961 . S
C1453 H1461 0.960 . S
C1454 C1452 1.381 . S
C1454 C1455 1.394 . S
C1454 H1462 0.930 . S
C1455 C1454 1.394 . S
C1455 C1456 1.383 . S
C1455 H1463 0.929 . S
C1456 C1455 1.383 . S
C1456 C1457 1.377 . S
C1457 H1441 0.930 . S
C1457 C1456 1.377 . S
C1457 C1458 1.379 . S
C1458 H1442 0.931 . S
C1458 C1452 1.383 . S
C1458 C1457 1.379 . S
H1459 C1453 0.959 . S
H1460 C1453 0.961 . S
H1461 C1453 0.960 . S
H1462 C1454 0.930 . S
H1463 C1455 0.929 . S
H1464 C1472 0.929 . S
H1465 C1474 0.930 . S
H1466 C1476 0.930 . S
H1467 C1479 0.929 . S
H1468 C1482 0.930 . S
H1469 C1484 0.960 . S
H1470 C1484 0.960 . S
H1471 C1484 0.960 . S
C1472 H1464 0.929 . S
C1472 C1473 1.377 . S
C1472 C1474 1.384 . S
C1473 C1472 1.377 . S
C1473 C1479 1.390 . S
C1474 H1465 0.930 . S
C1474 C1472 1.384 . S
C1474 C1475 1.372 . S
C1475 C1474 1.372 . S
C1475 C1476 1.400 . S
C1475 C1480 1.490 . S
C1476 H1466 0.930 . S
C1476 C1475 1.400 . S
C1476 C1479 1.386 . S
H1477 C1493 0.930 . S
H1478 C1494 0.931 . S
C1479 H1467 0.929 . S
C1479 C1473 1.390 . S
C1479 C1476 1.386 . S
C1480 C1475 1.490 . S
C1480 C1482 1.395 . S
C1480 C1483 1.403 . S
H1481 C1487 0.930 . S
C1482 H1468 0.930 . S
C1482 C1480 1.395 . S
C1482 C1485 1.403 . S
C1483 C1480 1.403 . S
C1483 C1484 1.524 . S
C1483 C1487 1.400 . S
C1484 H1469 0.960 . S
C1484 H1470 0.960 . S
C1484 H1471 0.960 . S
C1484 C1483 1.524 . S
C1485 C1482 1.403 . S
C1485 C1486 1.392 . S
C1485 C1489 1.495 . S
C1486 C1485 1.392 . S
C1486 C1487 1.385 . S
C1486 C1488 1.478 . S
C1487 H1481 0.930 . S
C1487 C1483 1.400 . S
C1487 C1486 1.385 . S
C1488 C1486 1.478 . S
C1488 C1490 1.381 . S
C1488 C1494 1.383 . S
C1489 C1485 1.495 . S
C1489 H1495 0.959 . S
C1489 H1496 0.961 . S
C1489 H1497 0.960 . S
C1490 C1488 1.381 . S
C1490 C1491 1.394 . S
C1490 H1498 0.930 . S
C1491 C1490 1.394 . S
C1491 C1492 1.383 . S
C1491 H1499 0.929 . S
C1492 C1491 1.383 . S
C1492 C1493 1.377 . S
C1493 H1477 0.930 . S
C1493 C1492 1.377 . S
C1493 C1494 1.379 . S
C1494 H1478 0.931 . S
C1494 C1488 1.383 . S
C1494 C1493 1.379 . S
H1495 C1489 0.959 . S
H1496 C1489 0.961 . S
H1497 C1489 0.960 . S
H1498 C1490 0.930 . S
H1499 C1491 0.929 . S
H1500 C1508 0.929 . S
H1501 C1510 0.930 . S
H1502 C1512 0.930 . S
H1503 C1515 0.929 . S
H1504 C1518 0.930 . S
H1505 C1520 0.960 . S
H1506 C1520 0.960 . S
H1507 C1520 0.960 . S
C1508 H1500 0.929 . S
C1508 C1509 1.377 . S
C1508 C1510 1.384 . S
C1509 C1508 1.377 . S
C1509 C1515 1.390 . S
C1510 H1501 0.930 . S
C1510 C1508 1.384 . S
C1510 C1511 1.372 . S
C1511 C1510 1.372 . S
C1511 C1512 1.400 . S
C1511 C1516 1.490 . S
C1512 H1502 0.930 . S
C1512 C1511 1.400 . S
C1512 C1515 1.386 . S
H1513 C1529 0.930 . S
H1514 C1530 0.931 . S
C1515 H1503 0.929 . S
C1515 C1509 1.390 . S
C1515 C1512 1.386 . S
C1516 C1511 1.490 . S
C1516 C1518 1.395 . S
C1516 C1519 1.403 . S
H1517 C1523 0.930 . S
C1518 H1504 0.930 . S
C1518 C1516 1.395 . S
C1518 C1521 1.403 . S
C1519 C1516 1.403 . S
C1519 C1520 1.524 . S
C1519 C1523 1.400 . S
C1520 H1505 0.960 . S
C1520 H1506 0.960 . S
C1520 H1507 0.960 . S
C1520 C1519 1.524 . S
C1521 C1518 1.403 . S
C1521 C1522 1.392 . S
C1521 C1525 1.495 . S
C1522 C1521 1.392 . S
C1522 C1523 1.385 . S
C1522 C1524 1.478 . S
C1523 H1517 0.930 . S
C1523 C1519 1.400 . S
C1523 C1522 1.385 . S
C1524 C1522 1.478 . S
C1524 C1526 1.381 . S
C1524 C1530 1.383 . S
C1525 C1521 1.495 . S
C1525 H1531 0.959 . S
C1525 H1532 0.961 . S
C1525 H1533 0.960 . S
C1526 C1524 1.381 . S
C1526 C1527 1.394 . S
C1526 H1534 0.930 . S
C1527 C1526 1.394 . S
C1527 C1528 1.383 . S
C1527 H1535 0.929 . S
C1528 C1527 1.383 . S
C1528 C1529 1.377 . S
C1529 H1513 0.930 . S
C1529 C1528 1.377 . S
C1529 C1530 1.379 . S
C1530 H1514 0.931 . S
C1530 C1524 1.383 . S
C1530 C1529 1.379 . S
H1531 C1525 0.959 . S
H1532 C1525 0.961 . S
H1533 C1525 0.960 . S
H1534 C1526 0.930 . S
H1535 C1527 0.929 . S
H1536 C1544 0.929 . S
H1537 C1546 0.930 . S
H1538 C1548 0.930 . S
H1539 C1551 0.929 . S
H1540 C1554 0.930 . S
H1541 C1556 0.960 . S
H1542 C1556 0.960 . S
H1543 C1556 0.960 . S
C1544 H1536 0.929 . S
C1544 C1545 1.377 . S
C1544 C1546 1.384 . S
C1545 C1544 1.377 . S
C1545 C1551 1.390 . S
C1546 H1537 0.930 . S
C1546 C1544 1.384 . S
C1546 C1547 1.372 . S
C1547 C1546 1.372 . S
C1547 C1548 1.400 . S
C1547 C1552 1.490 . S
C1548 H1538 0.930 . S
C1548 C1547 1.400 . S
C1548 C1551 1.386 . S
H1549 C1565 0.930 . S
H1550 C1566 0.931 . S
C1551 H1539 0.929 . S
C1551 C1545 1.390 . S
C1551 C1548 1.386 . S
C1552 C1547 1.490 . S
C1552 C1554 1.395 . S
C1552 C1555 1.403 . S
H1553 C1559 0.930 . S
C1554 H1540 0.930 . S
C1554 C1552 1.395 . S
C1554 C1557 1.403 . S
C1555 C1552 1.403 . S
C1555 C1556 1.524 . S
C1555 C1559 1.400 . S
C1556 H1541 0.960 . S
C1556 H1542 0.960 . S
C1556 H1543 0.960 . S
C1556 C1555 1.524 . S
C1557 C1554 1.403 . S
C1557 C1558 1.392 . S
C1557 C1561 1.495 . S
C1558 C1557 1.392 . S
C1558 C1559 1.385 . S
C1558 C1560 1.478 . S
C1559 H1553 0.930 . S
C1559 C1555 1.400 . S
C1559 C1558 1.385 . S
C1560 C1558 1.478 . S
C1560 C1562 1.381 . S
C1560 C1566 1.383 . S
C1561 C1557 1.495 . S
C1561 H1567 0.959 . S
C1561 H1568 0.961 . S
C1561 H1569 0.960 . S
C1562 C1560 1.381 . S
C1562 C1563 1.394 . S
C1562 H1570 0.930 . S
C1563 C1562 1.394 . S
C1563 C1564 1.383 . S
C1563 H1571 0.929 . S
C1564 C1563 1.383 . S
C1564 C1565 1.377 . S
C1565 H1549 0.930 . S
C1565 C1564 1.377 . S
C1565 C1566 1.379 . S
C1566 H1550 0.931 . S
C1566 C1560 1.383 . S
C1566 C1565 1.379 . S
H1567 C1561 0.959 . S
H1568 C1561 0.961 . S
H1569 C1561 0.960 . S
H1570 C1562 0.930 . S
H1571 C1563 0.929 . S
H1572 C1580 0.929 . S
H1573 C1582 0.930 . S
H1574 C1584 0.930 . S
H1575 C1587 0.929 . S
H1576 C1590 0.930 . S
H1577 C1592 0.960 . S
H1578 C1592 0.960 . S
H1579 C1592 0.960 . S
C1580 H1572 0.929 . S
C1580 C1581 1.377 . S
C1580 C1582 1.384 . S
C1581 C1580 1.377 . S
C1581 C1587 1.390 . S
C1582 H1573 0.930 . S
C1582 C1580 1.384 . S
C1582 C1583 1.372 . S
C1583 C1582 1.372 . S
C1583 C1584 1.400 . S
C1583 C1588 1.490 . S
C1584 H1574 0.930 . S
C1584 C1583 1.400 . S
C1584 C1587 1.386 . S
H1585 C1601 0.930 . S
H1586 C1602 0.931 . S
C1587 H1575 0.929 . S
C1587 C1581 1.390 . S
C1587 C1584 1.386 . S
C1588 C1583 1.490 . S
C1588 C1590 1.395 . S
C1588 C1591 1.403 . S
H1589 C1595 0.930 . S
C1590 H1576 0.930 . S
C1590 C1588 1.395 . S
C1590 C1593 1.403 . S
C1591 C1588 1.403 . S
C1591 C1592 1.524 . S
C1591 C1595 1.400 . S
C1592 H1577 0.960 . S
C1592 H1578 0.960 . S
C1592 H1579 0.960 . S
C1592 C1591 1.524 . S
C1593 C1590 1.403 . S
C1593 C1594 1.392 . S
C1593 C1597 1.495 . S
C1594 C1593 1.392 . S
C1594 C1595 1.385 . S
C1594 C1596 1.478 . S
C1595 H1589 0.930 . S
C1595 C1591 1.400 . S
C1595 C1594 1.385 . S
C1596 C1594 1.478 . S
C1596 C1598 1.381 . S
C1596 C1602 1.383 . S
C1597 C1593 1.495 . S
C1597 H1603 0.959 . S
C1597 H1604 0.961 . S
C1597 H1605 0.960 . S
C1598 C1596 1.381 . S
C1598 C1599 1.394 . S
C1598 H1606 0.930 . S
C1599 C1598 1.394 . S
C1599 C1600 1.383 . S
C1599 H1607 0.929 . S
C1600 C1599 1.383 . S
C1600 C1601 1.377 . S
C1601 H1585 0.930 . S
C1601 C1600 1.377 . S
C1601 C1602 1.379 . S
C1602 H1586 0.931 . S
C1602 C1596 1.383 . S
C1602 C1601 1.379 . S
H1603 C1597 0.959 . S
H1604 C1597 0.961 . S
H1605 C1597 0.960 . S
H1606 C1598 0.930 . S
H1607 C1599 0.929 . S
H1608 C1616 0.929 . S
H1609 C1618 0.930 . S
H1610 C1620 0.930 . S
H1611 C1623 0.929 . S
H1612 C1626 0.930 . S
H1613 C1628 0.960 . S
H1614 C1628 0.960 . S
H1615 C1628 0.960 . S
C1616 H1608 0.929 . S
C1616 C1617 1.377 . S
C1616 C1618 1.384 . S
C1617 C1616 1.377 . S
C1617 C1623 1.390 . S
C1618 H1609 0.930 . S
C1618 C1616 1.384 . S
C1618 C1619 1.372 . S
C1619 C1618 1.372 . S
C1619 C1620 1.400 . S
C1619 C1624 1.490 . S
C1620 H1610 0.930 . S
C1620 C1619 1.400 . S
C1620 C1623 1.386 . S
H1621 C1637 0.930 . S
H1622 C1638 0.931 . S
C1623 H1611 0.929 . S
C1623 C1617 1.390 . S
C1623 C1620 1.386 . S
C1624 C1619 1.490 . S
C1624 C1626 1.395 . S
C1624 C1627 1.403 . S
H1625 C1631 0.930 . S
C1626 H1612 0.930 . S
C1626 C1624 1.395 . S
C1626 C1629 1.403 . S
C1627 C1624 1.403 . S
C1627 C1628 1.524 . S
C1627 C1631 1.400 . S
C1628 H1613 0.960 . S
C1628 H1614 0.960 . S
C1628 H1615 0.960 . S
C1628 C1627 1.524 . S
C1629 C1626 1.403 . S
C1629 C1630 1.392 . S
C1629 C1633 1.495 . S
C1630 C1629 1.392 . S
C1630 C1631 1.385 . S
C1630 C1632 1.478 . S
C1631 H1625 0.930 . S
C1631 C1627 1.400 . S
C1631 C1630 1.385 . S
C1632 C1630 1.478 . S
C1632 C1634 1.381 . S
C1632 C1638 1.383 . S
C1633 C1629 1.495 . S
C1633 H1639 0.959 . S
C1633 H1640 0.961 . S
C1633 H1641 0.960 . S
C1634 C1632 1.381 . S
C1634 C1635 1.394 . S
C1634 H1642 0.930 . S
C1635 C1634 1.394 . S
C1635 C1636 1.383 . S
C1635 H1643 0.929 . S
C1636 C1635 1.383 . S
C1636 C1637 1.377 . S
C1637 H1621 0.930 . S
C1637 C1636 1.377 . S
C1637 C1638 1.379 . S
C1638 H1622 0.931 . S
C1638 C1632 1.383 . S
C1638 C1637 1.379 . S
H1639 C1633 0.959 . S
H1640 C1633 0.961 . S
H1641 C1633 0.960 . S
H1642 C1634 0.930 . S
H1643 C1635 0.929 . S
H1644 C1652 0.929 . S
H1645 C1654 0.930 . S
H1646 C1656 0.930 . S
H1647 C1659 0.929 . S
H1648 C1662 0.930 . S
H1649 C1664 0.960 . S
H1650 C1664 0.960 . S
H1651 C1664 0.960 . S
C1652 H1644 0.929 . S
C1652 C1653 1.377 . S
C1652 C1654 1.384 . S
C1653 C1652 1.377 . S
C1653 C1659 1.390 . S
C1654 H1645 0.930 . S
C1654 C1652 1.384 . S
C1654 C1655 1.372 . S
C1655 C1654 1.372 . S
C1655 C1656 1.400 . S
C1655 C1660 1.490 . S
C1656 H1646 0.930 . S
C1656 C1655 1.400 . S
C1656 C1659 1.386 . S
H1657 C1673 0.930 . S
H1658 C1674 0.931 . S
C1659 H1647 0.929 . S
C1659 C1653 1.390 . S
C1659 C1656 1.386 . S
C1660 C1655 1.490 . S
C1660 C1662 1.395 . S
C1660 C1663 1.403 . S
H1661 C1667 0.930 . S
C1662 H1648 0.930 . S
C1662 C1660 1.395 . S
C1662 C1665 1.403 . S
C1663 C1660 1.403 . S
C1663 C1664 1.524 . S
C1663 C1667 1.400 . S
C1664 H1649 0.960 . S
C1664 H1650 0.960 . S
C1664 H1651 0.960 . S
C1664 C1663 1.524 . S
C1665 C1662 1.403 . S
C1665 C1666 1.392 . S
C1665 C1669 1.495 . S
C1666 C1665 1.392 . S
C1666 C1667 1.385 . S
C1666 C1668 1.478 . S
C1667 H1661 0.930 . S
C1667 C1663 1.400 . S
C1667 C1666 1.385 . S
C1668 C1666 1.478 . S
C1668 C1670 1.381 . S
C1668 C1674 1.383 . S
C1669 C1665 1.495 . S
C1669 H1675 0.959 . S
C1669 H1676 0.961 . S
C1669 H1677 0.960 . S
C1670 C1668 1.381 . S
C1670 C1671 1.394 . S
C1670 H1678 0.930 . S
C1671 C1670 1.394 . S
C1671 C1672 1.383 . S
C1671 H1679 0.929 . S
C1672 C1671 1.383 . S
C1672 C1673 1.377 . S
C1673 H1657 0.930 . S
C1673 C1672 1.377 . S
C1673 C1674 1.379 . S
C1674 H1658 0.931 . S
C1674 C1668 1.383 . S
C1674 C1673 1.379 . S
H1675 C1669 0.959 . S
H1676 C1669 0.961 . S
H1677 C1669 0.960 . S
H1678 C1670 0.930 . S
H1679 C1671 0.929 . S
H1680 C1688 0.929 . S
H1681 C1690 0.930 . S
H1682 C1692 0.930 . S
H1683 C1695 0.929 . S
H1684 C1698 0.930 . S
H1685 C1700 0.960 . S
H1686 C1700 0.960 . S
H1687 C1700 0.960 . S
C1688 H1680 0.929 . S
C1688 C1689 1.377 . S
C1688 C1690 1.384 . S
C1689 C1688 1.377 . S
C1689 C1695 1.390 . S
C1690 H1681 0.930 . S
C1690 C1688 1.384 . S
C1690 C1691 1.372 . S
C1691 C1690 1.372 . S
C1691 C1692 1.400 . S
C1691 C1696 1.490 . S
C1692 H1682 0.930 . S
C1692 C1691 1.400 . S
C1692 C1695 1.386 . S
H1693 C1709 0.930 . S
H1694 C1710 0.931 . S
C1695 H1683 0.929 . S
C1695 C1689 1.390 . S
C1695 C1692 1.386 . S
C1696 C1691 1.490 . S
C1696 C1698 1.395 . S
C1696 C1699 1.403 . S
H1697 C1703 0.930 . S
C1698 H1684 0.930 . S
C1698 C1696 1.395 . S
C1698 C1701 1.403 1_545 S
C1699 C1696 1.403 . S
C1699 C1700 1.524 . S
C1699 C1703 1.400 1_545 S
C1700 H1685 0.960 . S
C1700 H1686 0.960 . S
C1700 H1687 0.960 . S
C1700 C1699 1.524 . S
C1701 C1698 1.403 1_565 S
C1701 C1702 1.392 . S
C1701 C1705 1.495 . S
C1702 C1701 1.392 . S
C1702 C1703 1.385 . S
C1702 C1704 1.478 . S
C1703 H1697 0.930 . S
C1703 C1699 1.400 1_565 S
C1703 C1702 1.385 . S
C1704 C1702 1.478 . S
C1704 C1706 1.381 . S
C1704 C1710 1.383 . S
C1705 C1701 1.495 . S
C1705 H1711 0.959 . S
C1705 H1712 0.961 . S
C1705 H1713 0.960 . S
C1706 C1704 1.381 . S
C1706 C1707 1.394 . S
C1706 H1714 0.930 . S
C1707 C1706 1.394 . S
C1707 C1708 1.383 . S
C1707 H1715 0.929 . S
C1708 C1707 1.383 . S
C1708 C1709 1.377 . S
C1709 H1693 0.930 . S
C1709 C1708 1.377 . S
C1709 C1710 1.379 . S
C1710 H1694 0.931 . S
C1710 C1704 1.383 . S
C1710 C1709 1.379 . S
H1711 C1705 0.959 . S
H1712 C1705 0.961 . S
H1713 C1705 0.960 . S
H1714 C1706 0.930 . S
H1715 C1707 0.929 . S
H1716 C1724 0.929 . S
H1717 C1726 0.930 . S
H1718 C1728 0.930 . S
H1719 C1731 0.929 . S
H1720 C1734 0.930 . S
H1721 C1736 0.960 . S
H1722 C1736 0.960 . S
H1723 C1736 0.960 . S
C1724 H1716 0.929 . S
C1724 C1725 1.377 . S
C1724 C1726 1.384 . S
C1725 C1724 1.377 . S
C1725 C1731 1.390 . S
C1726 H1717 0.930 . S
C1726 C1724 1.384 . S
C1726 C1727 1.372 . S
C1727 C1726 1.372 . S
C1727 C1728 1.400 . S
C1727 C1732 1.490 . S
C1728 H1718 0.930 . S
C1728 C1727 1.400 . S
C1728 C1731 1.386 . S
H1729 C1745 0.930 . S
H1730 C1746 0.931 . S
C1731 H1719 0.929 . S
C1731 C1725 1.390 . S
C1731 C1728 1.386 . S
C1732 C1727 1.490 . S
C1732 C1734 1.395 . S
C1732 C1735 1.403 . S
H1733 C1739 0.930 . S
C1734 H1720 0.930 . S
C1734 C1732 1.395 . S
C1734 C1737 1.403 . S
C1735 C1732 1.403 . S
C1735 C1736 1.524 . S
C1735 C1739 1.400 . S
C1736 H1721 0.960 . S
C1736 H1722 0.960 . S
C1736 H1723 0.960 . S
C1736 C1735 1.524 . S
C1737 C1734 1.403 . S
C1737 C1738 1.392 . S
C1737 C1741 1.495 . S
C1738 C1737 1.392 . S
C1738 C1739 1.385 . S
C1738 C1740 1.478 . S
C1739 H1733 0.930 . S
C1739 C1735 1.400 . S
C1739 C1738 1.385 . S
C1740 C1738 1.478 . S
C1740 C1742 1.381 . S
C1740 C1746 1.383 . S
C1741 C1737 1.495 . S
C1741 H1747 0.959 . S
C1741 H1748 0.961 . S
C1741 H1749 0.960 . S
C1742 C1740 1.381 . S
C1742 C1743 1.394 . S
C1742 H1750 0.930 . S
C1743 C1742 1.394 . S
C1743 C1744 1.383 . S
C1743 H1751 0.929 . S
C1744 C1743 1.383 . S
C1744 C1745 1.377 . S
C1745 H1729 0.930 . S
C1745 C1744 1.377 . S
C1745 C1746 1.379 . S
C1746 H1730 0.931 . S
C1746 C1740 1.383 . S
C1746 C1745 1.379 . S
H1747 C1741 0.959 . S
H1748 C1741 0.961 . S
H1749 C1741 0.960 . S
H1750 C1742 0.930 . S
H1751 C1743 0.929 . S
H1752 C1760 0.929 . S
H1753 C1762 0.930 . S
H1754 C1764 0.930 . S
H1755 C1767 0.929 . S
H1756 C1770 0.930 . S
H1757 C1772 0.960 . S
H1758 C1772 0.960 1_455 S
H1759 C1772 0.949 1_455 S
C1760 H1752 0.929 . S
C1760 C1761 1.377 . S
C1760 C1762 1.384 . S
C1761 C1760 1.377 . S
C1761 C1767 1.390 . S
C1762 H1753 0.930 . S
C1762 C1760 1.384 . S
C1762 C1763 1.372 . S
C1763 C1762 1.372 . S
C1763 C1764 1.400 . S
C1763 C1768 1.490 . S
C1764 H1754 0.930 . S
C1764 C1763 1.400 . S
C1764 C1767 1.386 . S
H1765 C1781 0.930 . S
H1766 C1782 0.931 . S
C1767 H1755 0.929 . S
C1767 C1761 1.390 . S
C1767 C1764 1.386 . S
C1768 C1763 1.490 . S
C1768 C1770 1.395 . S
C1768 C1771 1.403 1_455 S
H1769 C1775 0.930 . S
C1770 H1756 0.930 . S
C1770 C1768 1.395 . S
C1770 C1773 1.403 . S
C1771 C1768 1.403 1_655 S
C1771 C1772 1.524 . S
C1771 C1775 1.400 . S
C1772 H1757 0.960 . S
C1772 H1758 0.960 1_655 S
C1772 H1759 0.949 1_655 S
C1772 C1771 1.524 . S
C1773 C1770 1.403 . S
C1773 C1774 1.392 1_455 S
C1773 C1777 1.495 . S
C1774 C1773 1.392 1_655 S
C1774 C1775 1.385 . S
C1774 C1776 1.478 . S
C1775 H1769 0.930 . S
C1775 C1771 1.400 . S
C1775 C1774 1.385 . S
C1776 C1774 1.478 . S
C1776 C1778 1.381 . S
C1776 C1782 1.383 . S
C1777 C1773 1.495 . S
C1777 H1783 0.959 . S
C1777 H1784 0.961 1_455 S
C1777 H1785 0.960 . S
C1778 C1776 1.381 . S
C1778 C1779 1.394 . S
C1778 H1786 0.930 . S
C1779 C1778 1.394 . S
C1779 C1780 1.383 . S
C1779 H1787 0.929 . S
C1780 C1779 1.383 . S
C1780 C1781 1.377 . S
C1781 H1765 0.930 . S
C1781 C1780 1.377 . S
C1781 C1782 1.379 . S
C1782 H1766 0.931 . S
C1782 C1776 1.383 . S
C1782 C1781 1.379 . S
H1783 C1777 0.959 . S
H1784 C1777 0.961 1_655 S
H1785 C1777 0.960 . S
H1786 C1778 0.930 . S
H1787 C1779 0.929 . S
H1788 C1796 0.929 . S
H1789 C1798 0.930 . S
H1790 C1800 0.930 . S
H1791 C1803 0.929 . S
H1792 C1806 0.930 . S
H1793 C1808 0.960 . S
H1794 C1808 0.960 . S
H1795 C1808 0.960 . S
C1796 H1788 0.929 . S
C1796 C1797 1.377 . S
C1796 C1798 1.384 . S
C1797 C1796 1.377 . S
C1797 C1803 1.390 . S
C1798 H1789 0.930 . S
C1798 C1796 1.384 . S
C1798 C1799 1.372 . S
C1799 C1798 1.372 . S
C1799 C1800 1.400 . S
C1799 C1804 1.490 . S
C1800 H1790 0.930 . S
C1800 C1799 1.400 . S
C1800 C1803 1.386 . S
H1801 C1817 0.930 . S
H1802 C1818 0.931 . S
C1803 H1791 0.929 . S
C1803 C1797 1.390 . S
C1803 C1800 1.386 . S
C1804 C1799 1.490 . S
C1804 C1806 1.395 . S
C1804 C1807 1.403 . S
H1805 C1811 0.930 . S
C1806 H1792 0.930 . S
C1806 C1804 1.395 . S
C1806 C1809 1.403 1_565 S
C1807 C1804 1.403 . S
C1807 C1808 1.524 . S
C1807 C1811 1.400 1_565 S
C1808 H1793 0.960 . S
C1808 H1794 0.960 . S
C1808 H1795 0.960 . S
C1808 C1807 1.524 . S
C1809 C1806 1.403 1_545 S
C1809 C1810 1.392 . S
C1809 C1813 1.495 . S
C1810 C1809 1.392 . S
C1810 C1811 1.385 . S
C1810 C1812 1.478 . S
C1811 H1805 0.930 . S
C1811 C1807 1.400 1_545 S
C1811 C1810 1.385 . S
C1812 C1810 1.478 . S
C1812 C1814 1.381 . S
C1812 C1818 1.383 . S
C1813 C1809 1.495 . S
C1813 H1819 0.959 . S
C1813 H1820 0.961 . S
C1813 H1821 0.960 . S
C1814 C1812 1.381 . S
C1814 C1815 1.394 . S
C1814 H1822 0.930 . S
C1815 C1814 1.394 . S
C1815 C1816 1.383 . S
C1815 H1823 0.929 . S
C1816 C1815 1.383 . S
C1816 C1817 1.377 . S
C1817 H1801 0.930 . S
C1817 C1816 1.377 . S
C1817 C1818 1.379 . S
C1818 H1802 0.931 . S
C1818 C1812 1.383 . S
C1818 C1817 1.379 . S
H1819 C1813 0.959 . S
H1820 C1813 0.961 . S
H1821 C1813 0.960 . S
H1822 C1814 0.930 . S
H1823 C1815 0.929 . S
H1824 C1832 0.929 . S
H1825 C1834 0.930 . S
H1826 C1836 0.930 . S
H1827 C1839 0.929 . S
H1828 C1842 0.930 . S
H1829 C1844 0.960 . S
H1830 C1844 0.960 . S
H1831 C1844 0.960 . S
C1832 H1824 0.929 . S
C1832 C1833 1.377 . S
C1832 C1834 1.384 . S
C1833 C1832 1.377 . S
C1833 C1839 1.390 . S
C1834 H1825 0.930 . S
C1834 C1832 1.384 . S
C1834 C1835 1.372 . S
C1835 C1834 1.372 . S
C1835 C1836 1.400 . S
C1835 C1840 1.490 . S
C1836 H1826 0.930 . S
C1836 C1835 1.400 . S
C1836 C1839 1.386 . S
H1837 C1853 0.930 . S
H1838 C1854 0.931 . S
C1839 H1827 0.929 . S
C1839 C1833 1.390 . S
C1839 C1836 1.386 . S
C1840 C1835 1.490 . S
C1840 C1842 1.395 . S
C1840 C1843 1.403 . S
H1841 C1847 0.930 . S
C1842 H1828 0.930 . S
C1842 C1840 1.395 . S
C1842 C1845 1.403 . S
C1843 C1840 1.403 . S
C1843 C1844 1.524 . S
C1843 C1847 1.400 . S
C1844 H1829 0.960 . S
C1844 H1830 0.960 . S
C1844 H1831 0.960 . S
C1844 C1843 1.524 . S
C1845 C1842 1.403 . S
C1845 C1846 1.392 . S
C1845 C1849 1.495 . S
C1846 C1845 1.392 . S
C1846 C1847 1.385 . S
C1846 C1848 1.478 . S
C1847 H1841 0.930 . S
C1847 C1843 1.400 . S
C1847 C1846 1.385 . S
C1848 C1846 1.478 . S
C1848 C1850 1.381 . S
C1848 C1854 1.383 . S
C1849 C1845 1.495 . S
C1849 H1855 0.959 . S
C1849 H1856 0.961 . S
C1849 H1857 0.960 . S
C1850 C1848 1.381 . S
C1850 C1851 1.394 . S
C1850 H1858 0.930 . S
C1851 C1850 1.394 . S
C1851 C1852 1.383 . S
C1851 H1859 0.929 . S
C1852 C1851 1.383 . S
C1852 C1853 1.377 . S
C1853 H1837 0.930 . S
C1853 C1852 1.377 . S
C1853 C1854 1.379 . S
C1854 H1838 0.931 . S
C1854 C1848 1.383 . S
C1854 C1853 1.379 . S
H1855 C1849 0.959 . S
H1856 C1849 0.961 . S
H1857 C1849 0.960 . S
H1858 C1850 0.930 . S
H1859 C1851 0.929 . S
H1860 C1868 0.929 . S
H1861 C1870 0.930 . S
H1862 C1872 0.930 . S
H1863 C1875 0.929 . S
H1864 C1878 0.939 1_655 S
H1865 C1880 0.960 . S
H1866 C1880 0.960 . S
H1867 C1880 0.960 . S
C1868 H1860 0.929 . S
C1868 C1869 1.377 . S
C1868 C1870 1.384 . S
C1869 C1868 1.377 . S
C1869 C1875 1.390 . S
C1870 H1861 0.930 . S
C1870 C1868 1.384 . S
C1870 C1871 1.372 . S
C1871 C1870 1.372 . S
C1871 C1872 1.400 . S
C1871 C1876 1.490 . S
C1872 H1862 0.930 . S
C1872 C1871 1.400 . S
C1872 C1875 1.386 . S
H1873 C1889 0.930 . S
H1874 C1890 0.931 . S
C1875 H1863 0.929 . S
C1875 C1869 1.390 . S
C1875 C1872 1.386 . S
C1876 C1871 1.490 . S
C1876 C1878 1.377 1_655 S
C1876 C1879 1.403 . S
H1877 C1883 0.930 . S
C1878 H1864 0.939 1_455 S
C1878 C1876 1.377 1_455 S
C1878 C1881 1.419 . S
C1879 C1876 1.403 . S
C1879 C1880 1.524 . S
C1879 C1883 1.400 1_655 S
C1880 H1865 0.960 . S
C1880 H1866 0.960 . S
C1880 H1867 0.960 . S
C1880 C1879 1.524 . S
C1881 C1878 1.419 . S
C1881 C1882 1.392 . S
C1881 C1885 1.495 . S
C1882 C1881 1.392 . S
C1882 C1883 1.385 . S
C1882 C1884 1.478 . S
C1883 H1877 0.930 . S
C1883 C1879 1.400 1_455 S
C1883 C1882 1.385 . S
C1884 C1882 1.478 . S
C1884 C1886 1.381 . S
C1884 C1890 1.383 . S
C1885 C1881 1.495 . S
C1885 H1891 0.959 . S
C1885 H1892 0.961 . S
C1885 H1893 0.960 . S
C1886 C1884 1.381 . S
C1886 C1887 1.394 . S
C1886 H1894 0.930 . S
C1887 C1886 1.394 . S
C1887 C1888 1.383 . S
C1887 H1895 0.929 . S
C1888 C1887 1.383 . S
C1888 C1889 1.377 . S
C1889 H1873 0.930 . S
C1889 C1888 1.377 . S
C1889 C1890 1.379 . S
C1890 H1874 0.931 . S
C1890 C1884 1.383 . S
C1890 C1889 1.379 . S
H1891 C1885 0.959 . S
H1892 C1885 0.961 . S
H1893 C1885 0.960 . S
H1894 C1886 0.930 . S
H1895 C1887 0.929 . S
H1896 C1904 0.929 . S
H1897 C1906 0.930 . S
H1898 C1908 0.930 . S
H1899 C1911 0.929 . S
H1900 C1914 0.930 . S
H1901 C1916 0.960 . S
H1902 C1916 0.919 1_565 S
H1903 C1916 0.962 1_565 S
C1904 H1896 0.929 . S
C1904 C1905 1.377 . S
C1904 C1906 1.384 . S
C1905 C1904 1.377 . S
C1905 C1911 1.390 . S
C1906 H1897 0.930 . S
C1906 C1904 1.384 . S
C1906 C1907 1.372 . S
C1907 C1906 1.372 . S
C1907 C1908 1.400 . S
C1907 C1912 1.490 . S
C1908 H1898 0.930 . S
C1908 C1907 1.400 . S
C1908 C1911 1.386 . S
H1909 C1925 0.930 . S
H1910 C1926 0.931 . S
C1911 H1899 0.929 . S
C1911 C1905 1.390 . S
C1911 C1908 1.386 . S
C1912 C1907 1.490 . S
C1912 C1914 1.395 . S
C1912 C1915 1.403 1_565 S
H1913 C1919 0.930 . S
C1914 H1900 0.930 . S
C1914 C1912 1.395 . S
C1914 C1917 1.403 . S
C1915 C1912 1.403 1_545 S
C1915 C1916 1.524 . S
C1915 C1919 1.400 . S
C1916 H1901 0.960 . S
C1916 H1902 0.919 1_545 S
C1916 H1903 0.962 1_545 S
C1916 C1915 1.524 . S
C1917 C1914 1.403 . S
C1917 C1918 1.392 1_565 S
C1917 C1921 1.495 . S
C1918 C1917 1.392 1_545 S
C1918 C1919 1.385 . S
C1918 C1920 1.478 . S
C1919 H1913 0.930 . S
C1919 C1915 1.400 . S
C1919 C1918 1.385 . S
C1920 C1918 1.478 . S
C1920 C1922 1.381 . S
C1920 C1926 1.383 . S
C1921 C1917 1.495 . S
C1921 H1927 0.959 . S
C1921 H1928 1.016 . S
C1921 H1929 0.960 . S
C1922 C1920 1.381 . S
C1922 C1923 1.394 . S
C1922 H1930 0.930 . S
C1923 C1922 1.394 . S
C1923 C1924 1.383 . S
C1923 H1931 0.929 . S
C1924 C1923 1.383 . S
C1924 C1925 1.377 . S
C1925 H1909 0.930 . S
C1925 C1924 1.377 . S
C1925 C1926 1.379 . S
C1926 H1910 0.931 . S
C1926 C1920 1.383 . S
C1926 C1925 1.379 . S
H1927 C1921 0.959 . S
H1928 C1921 1.016 . S
H1929 C1921 0.960 . S
H1930 C1922 0.930 . S
H1931 C1923 0.929 . S
H1932 C1940 0.929 . S
H1933 C1942 0.930 . S
H1934 C1944 0.930 . S
H1935 C1947 0.929 . S
H1936 C1950 0.930 . S
H1937 C1952 0.960 . S
H1938 C1952 0.960 . S
H1939 C1952 0.960 . S
C1940 H1932 0.929 . S
C1940 C1941 1.377 . S
C1940 C1942 1.384 . S
C1941 C1940 1.377 . S
C1941 C1947 1.390 . S
C1942 H1933 0.930 . S
C1942 C1940 1.384 . S
C1942 C1943 1.372 . S
C1943 C1942 1.372 . S
C1943 C1944 1.400 . S
C1943 C1948 1.490 . S
C1944 H1934 0.930 . S
C1944 C1943 1.400 . S
C1944 C1947 1.386 . S
H1945 C1961 0.930 . S
H1946 C1962 0.931 . S
C1947 H1935 0.929 . S
C1947 C1941 1.390 . S
C1947 C1944 1.386 . S
C1948 C1943 1.490 . S
C1948 C1950 1.395 . S
C1948 C1951 1.403 . S
H1949 C1955 0.930 . S
C1950 H1936 0.930 . S
C1950 C1948 1.395 . S
C1950 C1953 1.403 . S
C1951 C1948 1.403 . S
C1951 C1952 1.524 . S
C1951 C1955 1.400 . S
C1952 H1937 0.960 . S
C1952 H1938 0.960 . S
C1952 H1939 0.960 . S
C1952 C1951 1.524 . S
C1953 C1950 1.403 . S
C1953 C1954 1.392 . S
C1953 C1957 1.495 . S
C1954 C1953 1.392 . S
C1954 C1955 1.385 . S
C1954 C1956 1.478 . S
C1955 H1949 0.930 . S
C1955 C1951 1.400 . S
C1955 C1954 1.385 . S
C1956 C1954 1.478 . S
C1956 C1958 1.381 . S
C1956 C1962 1.383 . S
C1957 C1953 1.495 . S
C1957 H1963 0.959 . S
C1957 H1964 0.961 . S
C1957 H1965 0.960 . S
C1958 C1956 1.381 . S
C1958 C1959 1.394 . S
C1958 H1966 0.930 . S
C1959 C1958 1.394 . S
C1959 C1960 1.383 . S
C1959 H1967 0.929 . S
C1960 C1959 1.383 . S
C1960 C1961 1.377 . S
C1961 H1945 0.930 . S
C1961 C1960 1.377 . S
C1961 C1962 1.379 . S
C1962 H1946 0.931 . S
C1962 C1956 1.383 . S
C1962 C1961 1.379 . S
H1963 C1957 0.959 . S
H1964 C1957 0.961 . S
H1965 C1957 0.960 . S
H1966 C1958 0.930 . S
H1967 C1959 0.929 . S
H1968 C1976 0.929 . S
H1969 C1978 0.930 . S
H1970 C1980 0.930 . S
H1971 C1983 0.929 . S
H1972 C1986 0.930 . S
H1973 C1988 0.960 . S
H1974 C1988 0.960 . S
H1975 C1988 0.960 1_455 S
C1976 H1968 0.929 . S
C1976 C1977 1.377 . S
C1976 C1978 1.384 . S
C1977 C1976 1.377 . S
C1977 C1983 1.390 . S
C1978 H1969 0.930 . S
C1978 C1976 1.384 . S
C1978 C1979 1.372 . S
C1979 C1978 1.372 . S
C1979 C1980 1.400 . S
C1979 C1984 1.490 . S
C1980 H1970 0.930 . S
C1980 C1979 1.400 . S
C1980 C1983 1.386 . S
H1981 C1997 0.930 . S
H1982 C1998 0.931 . S
C1983 H1971 0.929 . S
C1983 C1977 1.390 . S
C1983 C1980 1.386 . S
C1984 C1979 1.490 . S
C1984 C1986 1.395 . S
C1984 C1987 1.361 1_455 S
H1985 C1991 0.930 . S
C1986 H1972 0.930 . S
C1986 C1984 1.395 . S
C1986 C1989 1.403 . S
C1987 C1984 1.361 1_655 S
C1987 C1988 1.524 . S
C1987 C1991 1.448 . S
C1988 H1973 0.960 . S
C1988 H1974 0.960 . S
C1988 H1975 0.960 1_655 S
C1988 C1987 1.524 . S
C1989 C1986 1.403 . S
C1989 C1990 1.392 1_455 S
C1989 C1993 1.495 . S
C1990 C1989 1.392 1_655 S
C1990 C1991 1.385 . S
C1990 C1992 1.478 . S
C1991 H1985 0.930 . S
C1991 C1987 1.448 . S
C1991 C1990 1.385 . S
C1992 C1990 1.478 . S
C1992 C1994 1.381 . S
C1992 C1998 1.383 . S
C1993 C1989 1.495 . S
C1993 H1999 0.959 . S
C1993 H2000 0.961 . S
C1993 H2001 0.960 1_455 S
C1994 C1992 1.381 . S
C1994 C1995 1.394 . S
C1994 H2002 0.930 . S
C1995 C1994 1.394 . S
C1995 C1996 1.383 . S
C1995 H2003 0.929 . S
C1996 C1995 1.383 . S
C1996 C1997 1.377 . S
C1997 H1981 0.930 . S
C1997 C1996 1.377 . S
C1997 C1998 1.379 . S
C1998 H1982 0.931 . S
C1998 C1992 1.383 . S
C1998 C1997 1.379 . S
H1999 C1993 0.959 . S
H2000 C1993 0.961 . S
H2001 C1993 0.960 1_655 S
H2002 C1994 0.930 . S
H2003 C1995 0.929 . S
H2004 C2012 0.929 . S
H2005 C2014 0.930 . S
H2006 C2016 0.930 . S
H2007 C2019 0.929 . S
H2008 C2022 0.930 . S
H2009 C2024 0.960 . S
H2010 C2024 0.984 . S
H2011 C2024 0.960 1_545 S
C2012 H2004 0.929 . S
C2012 C2013 1.377 . S
C2012 C2014 1.384 . S
C2013 C2012 1.377 . S
C2013 C2019 1.390 . S
C2014 H2005 0.930 . S
C2014 C2012 1.384 . S
C2014 C2015 1.372 . S
C2015 C2014 1.372 . S
C2015 C2016 1.400 . S
C2015 C2020 1.490 . S
C2016 H2006 0.930 . S
C2016 C2015 1.400 . S
C2016 C2019 1.386 . S
H2017 C2033 0.930 . S
H2018 C2034 0.931 . S
C2019 H2007 0.929 . S
C2019 C2013 1.390 . S
C2019 C2016 1.386 . S
C2020 C2015 1.490 . S
C2020 C2022 1.395 . S
C2020 C2023 1.380 1_545 S
H2021 C2027 0.930 . S
C2022 H2008 0.930 . S
C2022 C2020 1.395 . S
C2022 C2025 1.403 . S
C2023 C2020 1.380 1_565 S
C2023 C2024 1.531 . S
C2023 C2027 1.416 . S
C2024 H2009 0.960 . S
C2024 H2010 0.984 . S
C2024 H2011 0.960 1_565 S
C2024 C2023 1.531 . S
C2025 C2022 1.403 . S
C2025 C2026 1.392 1_545 S
C2025 C2029 1.495 . S
C2026 C2025 1.392 1_565 S
C2026 C2027 1.385 . S
C2026 C2028 1.478 . S
C2027 H2021 0.930 . S
C2027 C2023 1.416 . S
C2027 C2026 1.385 . S
C2028 C2026 1.478 . S
C2028 C2030 1.381 . S
C2028 C2034 1.383 . S
C2029 C2025 1.495 . S
C2029 H2035 0.959 . S
C2029 H2036 0.961 . S
C2029 H2037 0.960 1_545 S
C2030 C2028 1.381 . S
C2030 C2031 1.394 . S
C2030 H2038 0.930 . S
C2031 C2030 1.394 . S
C2031 C2032 1.383 . S
C2031 H2039 0.929 . S
C2032 C2031 1.383 . S
C2032 C2033 1.377 . S
C2033 H2017 0.930 . S
C2033 C2032 1.377 . S
C2033 C2034 1.379 . S
C2034 H2018 0.931 . S
C2034 C2028 1.383 . S
C2034 C2033 1.379 . S
H2035 C2029 0.959 . S
H2036 C2029 0.961 . S
H2037 C2029 0.960 1_565 S
H2038 C2030 0.930 . S
H2039 C2031 0.929 . S
H2040 C2048 0.929 . S
H2041 C2050 0.930 . S
H2042 C2052 0.930 . S
H2043 C2055 0.929 . S
H2044 C2058 0.930 . S
H2045 C2060 0.960 . S
H2046 C2060 0.960 . S
H2047 C2060 0.960 . S
C2048 H2040 0.929 . S
C2048 C2049 1.377 . S
C2048 C2050 1.384 . S
C2049 C2048 1.377 . S
C2049 C2055 1.390 . S
C2050 H2041 0.930 . S
C2050 C2048 1.384 . S
C2050 C2051 1.372 . S
C2051 C2050 1.372 . S
C2051 C2052 1.400 . S
C2051 C2056 1.490 . S
C2052 H2042 0.930 . S
C2052 C2051 1.400 . S
C2052 C2055 1.386 . S
H2053 C2069 0.930 . S
H2054 C2070 0.931 . S
C2055 H2043 0.929 . S
C2055 C2049 1.390 . S
C2055 C2052 1.386 . S
C2056 C2051 1.490 . S
C2056 C2058 1.395 . S
C2056 C2059 1.403 . S
H2057 C2063 0.930 . S
C2058 H2044 0.930 . S
C2058 C2056 1.395 . S
C2058 C2061 1.403 . S
C2059 C2056 1.403 . S
C2059 C2060 1.524 . S
C2059 C2063 1.400 . S
C2060 H2045 0.960 . S
C2060 H2046 0.960 . S
C2060 H2047 0.960 . S
C2060 C2059 1.524 . S
C2061 C2058 1.403 . S
C2061 C2062 1.392 . S
C2061 C2065 1.495 . S
C2062 C2061 1.392 . S
C2062 C2063 1.385 . S
C2062 C2064 1.478 . S
C2063 H2057 0.930 . S
C2063 C2059 1.400 . S
C2063 C2062 1.385 . S
C2064 C2062 1.478 . S
C2064 C2066 1.381 . S
C2064 C2070 1.383 . S
C2065 C2061 1.495 . S
C2065 H2071 0.959 . S
C2065 H2072 0.961 . S
C2065 H2073 0.960 . S
C2066 C2064 1.381 . S
C2066 C2067 1.394 . S
C2066 H2074 0.930 . S
C2067 C2066 1.394 . S
C2067 C2068 1.383 . S
C2067 H2075 0.929 . S
C2068 C2067 1.383 . S
C2068 C2069 1.377 . S
C2069 H2053 0.930 . S
C2069 C2068 1.377 . S
C2069 C2070 1.379 . S
C2070 H2054 0.931 . S
C2070 C2064 1.383 . S
C2070 C2069 1.379 . S
H2071 C2065 0.959 . S
H2072 C2065 0.961 . S
H2073 C2065 0.960 . S
H2074 C2066 0.930 . S
H2075 C2067 0.929 . S
H2076 C2084 0.929 . S
H2077 C2086 0.930 . S
H2078 C2088 0.930 . S
H2079 C2091 0.929 . S
H2080 C2094 0.930 . S
H2081 C2096 0.960 1_655 S
H2082 C2096 0.960 . S
H2083 C2096 0.960 . S
C2084 H2076 0.929 . S
C2084 C2085 1.377 . S
C2084 C2086 1.384 . S
C2085 C2084 1.377 . S
C2085 C2091 1.390 . S
C2086 H2077 0.930 . S
C2086 C2084 1.384 . S
C2086 C2087 1.372 . S
C2087 C2086 1.372 . S
C2087 C2088 1.400 . S
C2087 C2092 1.490 . S
C2088 H2078 0.930 . S
C2088 C2087 1.400 . S
C2088 C2091 1.386 . S
H2089 C2105 0.930 . S
H2090 C2106 0.931 . S
C2091 H2079 0.929 . S
C2091 C2085 1.390 . S
C2091 C2088 1.386 . S
C2092 C2087 1.490 . S
C2092 C2094 1.395 . S
C2092 C2095 1.403 . S
H2093 C2099 0.930 . S
C2094 H2080 0.930 . S
C2094 C2092 1.395 . S
C2094 C2097 1.403 1_455 S
C2095 C2092 1.403 . S
C2095 C2096 1.524 . S
C2095 C2099 1.400 1_455 S
C2096 H2081 0.960 1_455 S
C2096 H2082 0.960 . S
C2096 H2083 0.960 . S
C2096 C2095 1.524 . S
C2097 C2094 1.403 1_655 S
C2097 C2098 1.392 . S
C2097 C2101 1.495 . S
C2098 C2097 1.392 . S
C2098 C2099 1.385 . S
C2098 C2100 1.478 . S
C2099 H2093 0.930 . S
C2099 C2095 1.400 1_655 S
C2099 C2098 1.385 . S
C2100 C2098 1.478 . S
C2100 C2102 1.381 . S
C2100 C2106 1.383 . S
C2101 C2097 1.495 . S
C2101 H2107 0.959 1_655 S
C2101 H2108 0.961 . S
C2101 H2109 0.960 . S
C2102 C2100 1.381 . S
C2102 C2103 1.394 . S
C2102 H2110 0.930 . S
C2103 C2102 1.394 . S
C2103 C2104 1.383 . S
C2103 H2111 0.929 . S
C2104 C2103 1.383 . S
C2104 C2105 1.377 . S
C2105 H2089 0.930 . S
C2105 C2104 1.377 . S
C2105 C2106 1.379 . S
C2106 H2090 0.931 . S
C2106 C2100 1.383 . S
C2106 C2105 1.379 . S
H2107 C2101 0.959 1_455 S
H2108 C2101 0.961 . S
H2109 C2101 0.960 . S
H2110 C2102 0.930 . S
H2111 C2103 0.929 . S
H2112 C2120 0.929 . S
H2113 C2122 0.930 . S
H2114 C2124 0.930 . S
H2115 C2127 0.929 . S
H2116 C2130 0.930 . S
H2117 C2132 0.960 . S
H2118 C2132 0.960 . S
H2119 C2132 0.960 . S
C2120 H2112 0.929 . S
C2120 C2121 1.377 . S
C2120 C2122 1.384 . S
C2121 C2120 1.377 . S
C2121 C2127 1.390 . S
C2122 H2113 0.930 . S
C2122 C2120 1.384 . S
C2122 C2123 1.372 . S
C2123 C2122 1.372 . S
C2123 C2124 1.400 . S
C2123 C2128 1.490 . S
C2124 H2114 0.930 . S
C2124 C2123 1.400 . S
C2124 C2127 1.386 . S
H2125 C2141 0.930 . S
H2126 C2142 0.931 . S
C2127 H2115 0.929 . S
C2127 C2121 1.390 . S
C2127 C2124 1.386 . S
C2128 C2123 1.490 . S
C2128 C2130 1.395 . S
C2128 C2131 1.403 . S
H2129 C2135 0.930 . S
C2130 H2116 0.930 . S
C2130 C2128 1.395 . S
C2130 C2133 1.403 . S
C2131 C2128 1.403 . S
C2131 C2132 1.524 . S
C2131 C2135 1.400 . S
C2132 H2117 0.960 . S
C2132 H2118 0.960 . S
C2132 H2119 0.960 . S
C2132 C2131 1.524 . S
C2133 C2130 1.403 . S
C2133 C2134 1.392 . S
C2133 C2137 1.495 . S
C2134 C2133 1.392 . S
C2134 C2135 1.385 . S
C2134 C2136 1.478 . S
C2135 H2129 0.930 . S
C2135 C2131 1.400 . S
C2135 C2134 1.385 . S
C2136 C2134 1.478 . S
C2136 C2138 1.381 . S
C2136 C2142 1.383 . S
C2137 C2133 1.495 . S
C2137 H2143 0.959 . S
C2137 H2144 0.961 . S
C2137 H2145 0.960 . S
C2138 C2136 1.381 . S
C2138 C2139 1.394 . S
C2138 H2146 0.930 . S
C2139 C2138 1.394 . S
C2139 C2140 1.383 . S
C2139 H2147 0.929 . S
C2140 C2139 1.383 . S
C2140 C2141 1.377 . S
C2141 H2125 0.930 . S
C2141 C2140 1.377 . S
C2141 C2142 1.379 . S
C2142 H2126 0.931 . S
C2142 C2136 1.383 . S
C2142 C2141 1.379 . S
H2143 C2137 0.959 . S
H2144 C2137 0.961 . S
H2145 C2137 0.960 . S
H2146 C2138 0.930 . S
H2147 C2139 0.929 . S
H2148 C2156 0.929 . S
H2149 C2158 0.930 . S
H2150 C2160 0.930 . S
H2151 C2163 0.929 . S
H2152 C2166 0.930 . S
H2153 C2168 0.960 . S
H2154 C2168 0.960 . S
H2155 C2168 0.960 . S
C2156 H2148 0.929 . S
C2156 C2157 1.377 . S
C2156 C2158 1.384 . S
C2157 C2156 1.377 . S
C2157 C2163 1.390 . S
C2158 H2149 0.930 . S
C2158 C2156 1.384 . S
C2158 C2159 1.372 . S
C2159 C2158 1.372 . S
C2159 C2160 1.400 . S
C2159 C2164 1.490 . S
C2160 H2150 0.930 . S
C2160 C2159 1.400 . S
C2160 C2163 1.386 . S
H2161 C2177 0.930 . S
H2162 C2178 0.931 . S
C2163 H2151 0.929 . S
C2163 C2157 1.390 . S
C2163 C2160 1.386 . S
C2164 C2159 1.490 . S
C2164 C2166 1.395 . S
C2164 C2167 1.403 . S
H2165 C2171 0.930 . S
C2166 H2152 0.930 . S
C2166 C2164 1.395 . S
C2166 C2169 1.403 . S
C2167 C2164 1.403 . S
C2167 C2168 1.524 . S
C2167 C2171 1.400 . S
C2168 H2153 0.960 . S
C2168 H2154 0.960 . S
C2168 H2155 0.960 . S
C2168 C2167 1.524 . S
C2169 C2166 1.403 . S
C2169 C2170 1.392 . S
C2169 C2173 1.495 . S
C2170 C2169 1.392 . S
C2170 C2171 1.385 . S
C2170 C2172 1.478 . S
C2171 H2165 0.930 . S
C2171 C2167 1.400 . S
C2171 C2170 1.385 . S
C2172 C2170 1.478 . S
C2172 C2174 1.381 . S
C2172 C2178 1.383 . S
C2173 C2169 1.495 . S
C2173 H2179 0.959 . S
C2173 H2180 0.961 . S
C2173 H2181 0.960 . S
C2174 C2172 1.381 . S
C2174 C2175 1.394 . S
C2174 H2182 0.930 . S
C2175 C2174 1.394 . S
C2175 C2176 1.383 . S
C2175 H2183 0.929 . S
C2176 C2175 1.383 . S
C2176 C2177 1.377 . S
C2177 H2161 0.930 . S
C2177 C2176 1.377 . S
C2177 C2178 1.379 . S
C2178 H2162 0.931 . S
C2178 C2172 1.383 . S
C2178 C2177 1.379 . S
H2179 C2173 0.959 . S
H2180 C2173 0.961 . S
H2181 C2173 0.960 . S
H2182 C2174 0.930 . S
H2183 C2175 0.929 . S
H2184 C2192 0.929 . S
H2185 C2194 0.930 . S
H2186 C2196 0.930 . S
H2187 C2199 0.929 . S
H2188 C2202 0.930 . S
H2189 C2204 0.960 . S
H2190 C2204 0.960 . S
H2191 C2204 0.960 . S
C2192 H2184 0.929 . S
C2192 C2193 1.377 . S
C2192 C2194 1.384 . S
C2193 C2192 1.377 . S
C2193 C2199 1.390 . S
C2194 H2185 0.930 . S
C2194 C2192 1.384 . S
C2194 C2195 1.372 . S
C2195 C2194 1.372 . S
C2195 C2196 1.400 . S
C2195 C2200 1.490 . S
C2196 H2186 0.930 . S
C2196 C2195 1.400 . S
C2196 C2199 1.386 . S
H2197 C2213 0.930 . S
H2198 C2214 0.931 . S
C2199 H2187 0.929 . S
C2199 C2193 1.390 . S
C2199 C2196 1.386 . S
C2200 C2195 1.490 . S
C2200 C2202 1.395 . S
C2200 C2203 1.403 . S
H2201 C2207 0.930 . S
C2202 H2188 0.930 . S
C2202 C2200 1.395 . S
C2202 C2205 1.403 . S
C2203 C2200 1.403 . S
C2203 C2204 1.524 . S
C2203 C2207 1.400 . S
C2204 H2189 0.960 . S
C2204 H2190 0.960 . S
C2204 H2191 0.960 . S
C2204 C2203 1.524 . S
C2205 C2202 1.403 . S
C2205 C2206 1.392 . S
C2205 C2209 1.495 . S
C2206 C2205 1.392 . S
C2206 C2207 1.385 . S
C2206 C2208 1.478 . S
C2207 H2201 0.930 . S
C2207 C2203 1.400 . S
C2207 C2206 1.385 . S
C2208 C2206 1.478 . S
C2208 C2210 1.381 . S
C2208 C2214 1.383 . S
C2209 C2205 1.495 . S
C2209 H2215 0.959 . S
C2209 H2216 0.961 . S
C2209 H2217 0.960 . S
C2210 C2208 1.381 . S
C2210 C2211 1.394 . S
C2210 H2218 0.930 . S
C2211 C2210 1.394 . S
C2211 C2212 1.383 . S
C2211 H2219 0.929 . S
C2212 C2211 1.383 . S
C2212 C2213 1.377 . S
C2213 H2197 0.930 . S
C2213 C2212 1.377 . S
C2213 C2214 1.379 . S
C2214 H2198 0.931 . S
C2214 C2208 1.383 . S
C2214 C2213 1.379 . S
H2215 C2209 0.959 . S
H2216 C2209 0.961 . S
H2217 C2209 0.960 . S
H2218 C2210 0.930 . S
H2219 C2211 0.929 . S
H2220 C2228 0.929 . S
H2221 C2230 0.930 . S
H2222 C2232 0.930 . S
H2223 C2235 0.929 . S
H2224 C2238 0.930 . S
H2225 C2240 0.960 . S
H2226 C2240 0.960 . S
H2227 C2240 0.960 . S
C2228 H2220 0.929 . S
C2228 C2229 1.377 . S
C2228 C2230 1.384 . S
C2229 C2228 1.377 . S
C2229 C2235 1.390 . S
C2230 H2221 0.930 . S
C2230 C2228 1.384 . S
C2230 C2231 1.372 . S
C2231 C2230 1.372 . S
C2231 C2232 1.400 . S
C2231 C2236 1.490 . S
C2232 H2222 0.930 . S
C2232 C2231 1.400 . S
C2232 C2235 1.386 . S
H2233 C2249 0.930 . S
H2234 C2250 0.931 . S
C2235 H2223 0.929 . S
C2235 C2229 1.390 . S
C2235 C2232 1.386 . S
C2236 C2231 1.490 . S
C2236 C2238 1.395 . S
C2236 C2239 1.403 . S
H2237 C2243 0.930 . S
C2238 H2224 0.930 . S
C2238 C2236 1.395 . S
C2238 C2241 1.403 . S
C2239 C2236 1.403 . S
C2239 C2240 1.524 . S
C2239 C2243 1.400 . S
C2240 H2225 0.960 . S
C2240 H2226 0.960 . S
C2240 H2227 0.960 . S
C2240 C2239 1.524 . S
C2241 C2238 1.403 . S
C2241 C2242 1.392 . S
C2241 C2245 1.495 . S
C2242 C2241 1.392 . S
C2242 C2243 1.385 . S
C2242 C2244 1.478 . S
C2243 H2237 0.930 . S
C2243 C2239 1.400 . S
C2243 C2242 1.385 . S
C2244 C2242 1.478 . S
C2244 C2246 1.381 . S
C2244 C2250 1.383 . S
C2245 C2241 1.495 . S
C2245 H2251 0.959 . S
C2245 H2252 0.961 . S
C2245 H2253 0.960 . S
C2246 C2244 1.381 . S
C2246 C2247 1.394 . S
C2246 H2254 0.930 . S
C2247 C2246 1.394 . S
C2247 C2248 1.383 . S
C2247 H2255 0.929 . S
C2248 C2247 1.383 . S
C2248 C2249 1.377 . S
C2249 H2233 0.930 . S
C2249 C2248 1.377 . S
C2249 C2250 1.379 . S
C2250 H2234 0.931 . S
C2250 C2244 1.383 . S
C2250 C2249 1.379 . S
H2251 C2245 0.959 . S
H2252 C2245 0.961 . S
H2253 C2245 0.960 . S
H2254 C2246 0.930 . S
H2255 C2247 0.929 . S
H2256 C2264 0.929 . S
H2257 C2266 0.930 . S
H2258 C2268 0.930 . S
H2259 C2271 0.929 . S
H2260 C2274 0.930 . S
H2261 C2276 0.960 . S
H2262 C2276 0.960 . S
H2263 C2276 0.960 . S
C2264 H2256 0.929 . S
C2264 C2265 1.377 . S
C2264 C2266 1.384 . S
C2265 C2264 1.377 . S
C2265 C2271 1.390 . S
C2266 H2257 0.930 . S
C2266 C2264 1.384 . S
C2266 C2267 1.372 . S
C2267 C2266 1.372 . S
C2267 C2268 1.400 . S
C2267 C2272 1.490 . S
C2268 H2258 0.930 . S
C2268 C2267 1.400 . S
C2268 C2271 1.386 . S
H2269 C2285 0.930 . S
H2270 C2286 0.931 . S
C2271 H2259 0.929 . S
C2271 C2265 1.390 . S
C2271 C2268 1.386 . S
C2272 C2267 1.490 . S
C2272 C2274 1.395 . S
C2272 C2275 1.403 . S
H2273 C2279 0.930 . S
C2274 H2260 0.930 . S
C2274 C2272 1.395 . S
C2274 C2277 1.403 . S
C2275 C2272 1.403 . S
C2275 C2276 1.524 . S
C2275 C2279 1.400 . S
C2276 H2261 0.960 . S
C2276 H2262 0.960 . S
C2276 H2263 0.960 . S
C2276 C2275 1.524 . S
C2277 C2274 1.403 . S
C2277 C2278 1.392 . S
C2277 C2281 1.495 . S
C2278 C2277 1.392 . S
C2278 C2279 1.385 . S
C2278 C2280 1.478 . S
C2279 H2273 0.930 . S
C2279 C2275 1.400 . S
C2279 C2278 1.385 . S
C2280 C2278 1.478 . S
C2280 C2282 1.381 . S
C2280 C2286 1.383 . S
C2281 C2277 1.495 . S
C2281 H2287 0.959 . S
C2281 H2288 0.961 . S
C2281 H2289 0.960 . S
C2282 C2280 1.381 . S
C2282 C2283 1.394 . S
C2282 H2290 0.930 . S
C2283 C2282 1.394 . S
C2283 C2284 1.383 . S
C2283 H2291 0.929 . S
C2284 C2283 1.383 . S
C2284 C2285 1.377 . S
C2285 H2269 0.930 . S
C2285 C2284 1.377 . S
C2285 C2286 1.379 . S
C2286 H2270 0.931 . S
C2286 C2280 1.383 . S
C2286 C2285 1.379 . S
H2287 C2281 0.959 . S
H2288 C2281 0.961 . S
H2289 C2281 0.960 . S
H2290 C2282 0.930 . S
H2291 C2283 0.929 . S
H2292 C2300 0.929 . S
H2293 C2302 0.930 . S
H2294 C2304 0.930 . S
H2295 C2307 0.929 . S
H2296 C2310 0.930 . S
H2297 C2312 0.960 . S
H2298 C2312 0.960 . S
H2299 C2312 0.960 . S
C2300 H2292 0.929 . S
C2300 C2301 1.377 . S
C2300 C2302 1.384 . S
C2301 C2300 1.377 . S
C2301 C2307 1.390 . S
C2302 H2293 0.930 . S
C2302 C2300 1.384 . S
C2302 C2303 1.372 . S
C2303 C2302 1.372 . S
C2303 C2304 1.400 . S
C2303 C2308 1.490 . S
C2304 H2294 0.930 . S
C2304 C2303 1.400 . S
C2304 C2307 1.386 . S
H2305 C2321 0.930 . S
H2306 C2322 0.931 . S
C2307 H2295 0.929 . S
C2307 C2301 1.390 . S
C2307 C2304 1.386 . S
C2308 C2303 1.490 . S
C2308 C2310 1.395 . S
C2308 C2311 1.403 . S
H2309 C2315 0.930 . S
C2310 H2296 0.930 . S
C2310 C2308 1.395 . S
C2310 C2313 1.403 . S
C2311 C2308 1.403 . S
C2311 C2312 1.524 . S
C2311 C2315 1.400 . S
C2312 H2297 0.960 . S
C2312 H2298 0.960 . S
C2312 H2299 0.960 . S
C2312 C2311 1.524 . S
C2313 C2310 1.403 . S
C2313 C2314 1.392 . S
C2313 C2317 1.495 . S
C2314 C2313 1.392 . S
C2314 C2315 1.385 . S
C2314 C2316 1.478 . S
C2315 H2309 0.930 . S
C2315 C2311 1.400 . S
C2315 C2314 1.385 . S
C2316 C2314 1.478 . S
C2316 C2318 1.381 . S
C2316 C2322 1.383 . S
C2317 C2313 1.495 . S
C2317 H2323 0.959 . S
C2317 H2324 0.961 . S
C2317 H2325 0.960 . S
C2318 C2316 1.381 . S
C2318 C2319 1.394 . S
C2318 H2326 0.930 . S
C2319 C2318 1.394 . S
C2319 C2320 1.383 . S
C2319 H2327 0.929 . S
C2320 C2319 1.383 . S
C2320 C2321 1.377 . S
C2321 H2305 0.930 . S
C2321 C2320 1.377 . S
C2321 C2322 1.379 . S
C2322 H2306 0.931 . S
C2322 C2316 1.383 . S
C2322 C2321 1.379 . S
H2323 C2317 0.959 . S
H2324 C2317 0.961 . S
H2325 C2317 0.960 . S
H2326 C2318 0.930 . S
H2327 C2319 0.929 . S
H2328 C2336 0.929 . S
H2329 C2338 0.930 . S
H2330 C2340 0.930 . S
H2331 C2343 0.929 . S
H2332 C2346 0.930 . S
H2333 C2348 0.960 . S
H2334 C2348 0.960 . S
H2335 C2348 0.960 . S
C2336 H2328 0.929 . S
C2336 C2337 1.377 . S
C2336 C2338 1.384 . S
C2337 C2336 1.377 . S
C2337 C2343 1.390 . S
C2338 H2329 0.930 . S
C2338 C2336 1.384 . S
C2338 C2339 1.372 . S
C2339 C2338 1.372 . S
C2339 C2340 1.400 . S
C2339 C2344 1.490 . S
C2340 H2330 0.930 . S
C2340 C2339 1.400 . S
C2340 C2343 1.386 . S
H2341 C2357 0.930 . S
H2342 C2358 0.931 . S
C2343 H2331 0.929 . S
C2343 C2337 1.390 . S
C2343 C2340 1.386 . S
C2344 C2339 1.490 . S
C2344 C2346 1.395 . S
C2344 C2347 1.403 . S
H2345 C2351 0.930 . S
C2346 H2332 0.930 . S
C2346 C2344 1.395 . S
C2346 C2349 1.403 . S
C2347 C2344 1.403 . S
C2347 C2348 1.524 . S
C2347 C2351 1.400 . S
C2348 H2333 0.960 . S
C2348 H2334 0.960 . S
C2348 H2335 0.960 . S
C2348 C2347 1.524 . S
C2349 C2346 1.403 . S
C2349 C2350 1.392 . S
C2349 C2353 1.495 . S
C2350 C2349 1.392 . S
C2350 C2351 1.385 . S
C2350 C2352 1.478 . S
C2351 H2345 0.930 . S
C2351 C2347 1.400 . S
C2351 C2350 1.385 . S
C2352 C2350 1.478 . S
C2352 C2354 1.381 . S
C2352 C2358 1.383 . S
C2353 C2349 1.495 . S
C2353 H2359 0.959 . S
C2353 H2360 0.961 . S
C2353 H2361 0.960 . S
C2354 C2352 1.381 . S
C2354 C2355 1.394 . S
C2354 H2362 0.930 . S
C2355 C2354 1.394 . S
C2355 C2356 1.383 . S
C2355 H2363 0.929 . S
C2356 C2355 1.383 . S
C2356 C2357 1.377 . S
C2357 H2341 0.930 . S
C2357 C2356 1.377 . S
C2357 C2358 1.379 . S
C2358 H2342 0.931 . S
C2358 C2352 1.383 . S
C2358 C2357 1.379 . S
H2359 C2353 0.959 . S
H2360 C2353 0.961 . S
H2361 C2353 0.960 . S
H2362 C2354 0.930 . S
H2363 C2355 0.929 . S
H2364 C2372 0.929 . S
H2365 C2374 0.930 . S
H2366 C2376 0.930 . S
H2367 C2379 0.929 . S
H2368 C2382 0.930 . S
H2369 C2384 0.960 . S
H2370 C2384 0.960 . S
H2371 C2384 0.960 . S
C2372 H2364 0.929 . S
C2372 C2373 1.377 . S
C2372 C2374 1.384 . S
C2373 C2372 1.377 . S
C2373 C2379 1.390 . S
C2374 H2365 0.930 . S
C2374 C2372 1.384 . S
C2374 C2375 1.372 . S
C2375 C2374 1.372 . S
C2375 C2376 1.400 . S
C2375 C2380 1.490 . S
C2376 H2366 0.930 . S
C2376 C2375 1.400 . S
C2376 C2379 1.386 . S
H2377 C2393 0.930 . S
H2378 C2394 0.931 . S
C2379 H2367 0.929 . S
C2379 C2373 1.390 . S
C2379 C2376 1.386 . S
C2380 C2375 1.490 . S
C2380 C2382 1.395 . S
C2380 C2383 1.403 . S
H2381 C2387 0.930 . S
C2382 H2368 0.930 . S
C2382 C2380 1.395 . S
C2382 C2385 1.403 . S
C2383 C2380 1.403 . S
C2383 C2384 1.524 . S
C2383 C2387 1.400 . S
C2384 H2369 0.960 . S
C2384 H2370 0.960 . S
C2384 H2371 0.960 . S
C2384 C2383 1.524 . S
C2385 C2382 1.403 . S
C2385 C2386 1.392 . S
C2385 C2389 1.495 . S
C2386 C2385 1.392 . S
C2386 C2387 1.385 . S
C2386 C2388 1.478 . S
C2387 H2381 0.930 . S
C2387 C2383 1.400 . S
C2387 C2386 1.385 . S
C2388 C2386 1.478 . S
C2388 C2390 1.381 . S
C2388 C2394 1.383 . S
C2389 C2385 1.495 . S
C2389 H2395 0.959 . S
C2389 H2396 0.961 . S
C2389 H2397 0.960 . S
C2390 C2388 1.381 . S
C2390 C2391 1.394 . S
C2390 H2398 0.930 . S
C2391 C2390 1.394 . S
C2391 C2392 1.383 . S
C2391 H2399 0.929 . S
C2392 C2391 1.383 . S
C2392 C2393 1.377 . S
C2393 H2377 0.930 . S
C2393 C2392 1.377 . S
C2393 C2394 1.379 . S
C2394 H2378 0.931 . S
C2394 C2388 1.383 . S
C2394 C2393 1.379 . S
H2395 C2389 0.959 . S
H2396 C2389 0.961 . S
H2397 C2389 0.960 . S
H2398 C2390 0.930 . S
H2399 C2391 0.929 . S
H2400 C2408 0.929 . S
H2401 C2410 0.930 . S
H2402 C2412 0.930 . S
H2403 C2415 0.929 . S
H2404 C2418 0.930 . S
H2405 C2420 0.960 . S
H2406 C2420 0.960 . S
H2407 C2420 0.960 . S
C2408 H2400 0.929 . S
C2408 C2409 1.377 . S
C2408 C2410 1.384 . S
C2409 C2408 1.377 . S
C2409 C2415 1.390 . S
C2410 H2401 0.930 . S
C2410 C2408 1.384 . S
C2410 C2411 1.372 . S
C2411 C2410 1.372 . S
C2411 C2412 1.400 . S
C2411 C2416 1.490 . S
C2412 H2402 0.930 . S
C2412 C2411 1.400 . S
C2412 C2415 1.386 . S
H2413 C2429 0.930 . S
H2414 C2430 0.931 . S
C2415 H2403 0.929 . S
C2415 C2409 1.390 . S
C2415 C2412 1.386 . S
C2416 C2411 1.490 . S
C2416 C2418 1.395 . S
C2416 C2419 1.403 . S
H2417 C2423 0.930 . S
C2418 H2404 0.930 . S
C2418 C2416 1.395 . S
C2418 C2421 1.403 . S
C2419 C2416 1.403 . S
C2419 C2420 1.524 . S
C2419 C2423 1.400 . S
C2420 H2405 0.960 . S
C2420 H2406 0.960 . S
C2420 H2407 0.960 . S
C2420 C2419 1.524 . S
C2421 C2418 1.403 . S
C2421 C2422 1.392 . S
C2421 C2425 1.495 . S
C2422 C2421 1.392 . S
C2422 C2423 1.385 . S
C2422 C2424 1.478 . S
C2423 H2417 0.930 . S
C2423 C2419 1.400 . S
C2423 C2422 1.385 . S
C2424 C2422 1.478 . S
C2424 C2426 1.381 . S
C2424 C2430 1.383 . S
C2425 C2421 1.495 . S
C2425 H2431 0.959 . S
C2425 H2432 0.961 . S
C2425 H2433 0.960 . S
C2426 C2424 1.381 . S
C2426 C2427 1.394 . S
C2426 H2434 0.930 . S
C2427 C2426 1.394 . S
C2427 C2428 1.383 . S
C2427 H2435 0.929 . S
C2428 C2427 1.383 . S
C2428 C2429 1.377 . S
C2429 H2413 0.930 . S
C2429 C2428 1.377 . S
C2429 C2430 1.379 . S
C2430 H2414 0.931 . S
C2430 C2424 1.383 . S
C2430 C2429 1.379 . S
H2431 C2425 0.959 . S
H2432 C2425 0.961 . S
H2433 C2425 0.960 . S
H2434 C2426 0.930 . S
H2435 C2427 0.929 . S
H2436 C2444 0.929 . S
H2437 C2446 0.930 . S
H2438 C2448 0.930 . S
H2439 C2451 0.929 . S
H2440 C2454 0.930 . S
H2441 C2456 0.960 . S
H2442 C2456 0.960 . S
H2443 C2456 0.960 . S
C2444 H2436 0.929 . S
C2444 C2445 1.377 . S
C2444 C2446 1.384 . S
C2445 C2444 1.377 . S
C2445 C2451 1.390 . S
C2446 H2437 0.930 . S
C2446 C2444 1.384 . S
C2446 C2447 1.372 . S
C2447 C2446 1.372 . S
C2447 C2448 1.400 . S
C2447 C2452 1.490 . S
C2448 H2438 0.930 . S
C2448 C2447 1.400 . S
C2448 C2451 1.386 . S
H2449 C2465 0.930 . S
H2450 C2466 0.931 . S
C2451 H2439 0.929 . S
C2451 C2445 1.390 . S
C2451 C2448 1.386 . S
C2452 C2447 1.490 . S
C2452 C2454 1.395 . S
C2452 C2455 1.403 . S
H2453 C2459 0.930 . S
C2454 H2440 0.930 . S
C2454 C2452 1.395 . S
C2454 C2457 1.403 . S
C2455 C2452 1.403 . S
C2455 C2456 1.524 . S
C2455 C2459 1.400 . S
C2456 H2441 0.960 . S
C2456 H2442 0.960 . S
C2456 H2443 0.960 . S
C2456 C2455 1.524 . S
C2457 C2454 1.403 . S
C2457 C2458 1.392 . S
C2457 C2461 1.495 . S
C2458 C2457 1.392 . S
C2458 C2459 1.385 . S
C2458 C2460 1.478 . S
C2459 H2453 0.930 . S
C2459 C2455 1.400 . S
C2459 C2458 1.385 . S
C2460 C2458 1.478 . S
C2460 C2462 1.381 . S
C2460 C2466 1.383 . S
C2461 C2457 1.495 . S
C2461 H2467 0.959 . S
C2461 H2468 0.961 . S
C2461 H2469 0.960 . S
C2462 C2460 1.381 . S
C2462 C2463 1.394 . S
C2462 H2470 0.930 . S
C2463 C2462 1.394 . S
C2463 C2464 1.383 . S
C2463 H2471 0.929 . S
C2464 C2463 1.383 . S
C2464 C2465 1.377 . S
C2465 H2449 0.930 . S
C2465 C2464 1.377 . S
C2465 C2466 1.379 . S
C2466 H2450 0.931 . S
C2466 C2460 1.383 . S
C2466 C2465 1.379 . S
H2467 C2461 0.959 . S
H2468 C2461 0.961 . S
H2469 C2461 0.960 . S
H2470 C2462 0.930 . S
H2471 C2463 0.929 . S
H2472 C2480 0.929 . S
H2473 C2482 0.930 . S
H2474 C2484 0.930 . S
H2475 C2487 0.929 . S
H2476 C2490 0.930 . S
H2477 C2492 0.960 . S
H2478 C2492 0.960 . S
H2479 C2492 0.960 . S
C2480 H2472 0.929 . S
C2480 C2481 1.377 . S
C2480 C2482 1.384 . S
C2481 C2480 1.377 . S
C2481 C2487 1.390 . S
C2482 H2473 0.930 . S
C2482 C2480 1.384 . S
C2482 C2483 1.372 . S
C2483 C2482 1.372 . S
C2483 C2484 1.400 . S
C2483 C2488 1.490 . S
C2484 H2474 0.930 . S
C2484 C2483 1.400 . S
C2484 C2487 1.386 . S
H2485 C2501 0.930 . S
H2486 C2502 0.931 . S
C2487 H2475 0.929 . S
C2487 C2481 1.390 . S
C2487 C2484 1.386 . S
C2488 C2483 1.490 . S
C2488 C2490 1.395 . S
C2488 C2491 1.403 . S
H2489 C2495 0.930 . S
C2490 H2476 0.930 . S
C2490 C2488 1.395 . S
C2490 C2493 1.403 . S
C2491 C2488 1.403 . S
C2491 C2492 1.524 . S
C2491 C2495 1.400 . S
C2492 H2477 0.960 . S
C2492 H2478 0.960 . S
C2492 H2479 0.960 . S
C2492 C2491 1.524 . S
C2493 C2490 1.403 . S
C2493 C2494 1.392 . S
C2493 C2497 1.495 . S
C2494 C2493 1.392 . S
C2494 C2495 1.385 . S
C2494 C2496 1.478 . S
C2495 H2489 0.930 . S
C2495 C2491 1.400 . S
C2495 C2494 1.385 . S
C2496 C2494 1.478 . S
C2496 C2498 1.381 . S
C2496 C2502 1.383 . S
C2497 C2493 1.495 . S
C2497 H2503 0.959 . S
C2497 H2504 0.961 . S
C2497 H2505 0.960 . S
C2498 C2496 1.381 . S
C2498 C2499 1.394 . S
C2498 H2506 0.930 . S
C2499 C2498 1.394 . S
C2499 C2500 1.383 . S
C2499 H2507 0.929 . S
C2500 C2499 1.383 . S
C2500 C2501 1.377 . S
C2501 H2485 0.930 . S
C2501 C2500 1.377 . S
C2501 C2502 1.379 . S
C2502 H2486 0.931 . S
C2502 C2496 1.383 . S
C2502 C2501 1.379 . S
H2503 C2497 0.959 . S
H2504 C2497 0.961 . S
H2505 C2497 0.960 . S
H2506 C2498 0.930 . S
H2507 C2499 0.929 . S
H2508 C2516 0.929 . S
H2509 C2518 0.930 . S
H2510 C2520 0.930 . S
H2511 C2523 0.929 . S
H2512 C2526 0.930 . S
H2513 C2528 0.960 . S
H2514 C2528 0.960 . S
H2515 C2528 0.960 . S
C2516 H2508 0.929 . S
C2516 C2517 1.377 . S
C2516 C2518 1.384 . S
C2517 C2516 1.377 . S
C2517 C2523 1.390 . S
C2518 H2509 0.930 . S
C2518 C2516 1.384 . S
C2518 C2519 1.372 . S
C2519 C2518 1.372 . S
C2519 C2520 1.400 . S
C2519 C2524 1.490 . S
C2520 H2510 0.930 . S
C2520 C2519 1.400 . S
C2520 C2523 1.386 . S
H2521 C2537 0.930 . S
H2522 C2538 0.931 . S
C2523 H2511 0.929 . S
C2523 C2517 1.390 . S
C2523 C2520 1.386 . S
C2524 C2519 1.490 . S
C2524 C2526 1.395 . S
C2524 C2527 1.403 . S
H2525 C2531 0.930 . S
C2526 H2512 0.930 . S
C2526 C2524 1.395 . S
C2526 C2529 1.403 . S
C2527 C2524 1.403 . S
C2527 C2528 1.524 . S
C2527 C2531 1.400 . S
C2528 H2513 0.960 . S
C2528 H2514 0.960 . S
C2528 H2515 0.960 . S
C2528 C2527 1.524 . S
C2529 C2526 1.403 . S
C2529 C2530 1.392 . S
C2529 C2533 1.495 . S
C2530 C2529 1.392 . S
C2530 C2531 1.385 . S
C2530 C2532 1.478 . S
C2531 H2525 0.930 . S
C2531 C2527 1.400 . S
C2531 C2530 1.385 . S
C2532 C2530 1.478 . S
C2532 C2534 1.381 . S
C2532 C2538 1.383 . S
C2533 C2529 1.495 . S
C2533 H2539 0.959 . S
C2533 H2540 0.961 . S
C2533 H2541 0.960 . S
C2534 C2532 1.381 . S
C2534 C2535 1.394 . S
C2534 H2542 0.930 . S
C2535 C2534 1.394 . S
C2535 C2536 1.383 . S
C2535 H2543 0.929 . S
C2536 C2535 1.383 . S
C2536 C2537 1.377 . S
C2537 H2521 0.930 . S
C2537 C2536 1.377 . S
C2537 C2538 1.379 . S
C2538 H2522 0.931 . S
C2538 C2532 1.383 . S
C2538 C2537 1.379 . S
H2539 C2533 0.959 . S
H2540 C2533 0.961 . S
H2541 C2533 0.960 . S
H2542 C2534 0.930 . S
H2543 C2535 0.929 . S
H2544 C2552 0.929 . S
H2545 C2554 0.930 . S
H2546 C2556 0.930 . S
H2547 C2559 0.929 . S
H2548 C2562 0.930 . S
H2549 C2564 0.960 . S
H2550 C2564 0.960 . S
H2551 C2564 0.960 . S
C2552 H2544 0.929 . S
C2552 C2553 1.377 . S
C2552 C2554 1.384 . S
C2553 C2552 1.377 . S
C2553 C2559 1.390 . S
C2554 H2545 0.930 . S
C2554 C2552 1.384 . S
C2554 C2555 1.372 . S
C2555 C2554 1.372 . S
C2555 C2556 1.400 . S
C2555 C2560 1.490 . S
C2556 H2546 0.930 . S
C2556 C2555 1.400 . S
C2556 C2559 1.386 . S
H2557 C2573 0.930 . S
H2558 C2574 0.931 . S
C2559 H2547 0.929 . S
C2559 C2553 1.390 . S
C2559 C2556 1.386 . S
C2560 C2555 1.490 . S
C2560 C2562 1.395 . S
C2560 C2563 1.403 . S
H2561 C2567 0.930 . S
C2562 H2548 0.930 . S
C2562 C2560 1.395 . S
C2562 C2565 1.403 1_554 S
C2563 C2560 1.403 . S
C2563 C2564 1.524 . S
C2563 C2567 1.400 1_554 S
C2564 H2549 0.960 . S
C2564 H2550 0.960 . S
C2564 H2551 0.960 . S
C2564 C2563 1.524 . S
C2565 C2562 1.403 1_556 S
C2565 C2566 1.392 . S
C2565 C2569 1.495 . S
C2566 C2565 1.392 . S
C2566 C2567 1.385 . S
C2566 C2568 1.478 . S
C2567 H2561 0.930 . S
C2567 C2563 1.400 1_556 S
C2567 C2566 1.385 . S
C2568 C2566 1.478 . S
C2568 C2570 1.381 . S
C2568 C2574 1.383 . S
C2569 C2565 1.495 . S
C2569 H2575 0.959 . S
C2569 H2576 0.961 . S
C2569 H2577 0.960 . S
C2570 C2568 1.381 . S
C2570 C2571 1.394 . S
C2570 H2578 0.930 . S
C2571 C2570 1.394 . S
C2571 C2572 1.383 . S
C2571 H2579 0.929 . S
C2572 C2571 1.383 . S
C2572 C2573 1.377 . S
C2573 H2557 0.930 . S
C2573 C2572 1.377 . S
C2573 C2574 1.379 . S
C2574 H2558 0.931 . S
C2574 C2568 1.383 . S
C2574 C2573 1.379 . S
H2575 C2569 0.959 . S
H2576 C2569 0.961 . S
H2577 C2569 0.960 . S
H2578 C2570 0.930 . S
H2579 C2571 0.929 . S
H2580 C2588 0.929 . S
H2581 C2590 0.930 . S
H2582 C2592 0.930 . S
H2583 C2595 0.929 . S
H2584 C2598 0.930 . S
H2585 C2600 0.960 . S
H2586 C2600 0.960 . S
H2587 C2600 0.960 . S
C2588 H2580 0.929 . S
C2588 C2589 1.377 . S
C2588 C2590 1.384 . S
C2589 C2588 1.377 . S
C2589 C2595 1.390 . S
C2590 H2581 0.930 . S
C2590 C2588 1.384 . S
C2590 C2591 1.372 . S
C2591 C2590 1.372 . S
C2591 C2592 1.400 . S
C2591 C2596 1.490 . S
C2592 H2582 0.930 . S
C2592 C2591 1.400 . S
C2592 C2595 1.386 . S
H2593 C2609 0.930 . S
H2594 C2610 0.931 . S
C2595 H2583 0.929 . S
C2595 C2589 1.390 . S
C2595 C2592 1.386 . S
C2596 C2591 1.490 . S
C2596 C2598 1.395 . S
C2596 C2599 1.403 . S
H2597 C2603 0.930 . S
C2598 H2584 0.930 . S
C2598 C2596 1.395 . S
C2598 C2601 1.403 1_554 S
C2599 C2596 1.403 . S
C2599 C2600 1.524 . S
C2599 C2603 1.400 1_554 S
C2600 H2585 0.960 . S
C2600 H2586 0.960 . S
C2600 H2587 0.960 . S
C2600 C2599 1.524 . S
C2601 C2598 1.403 1_556 S
C2601 C2602 1.392 . S
C2601 C2605 1.495 . S
C2602 C2601 1.392 . S
C2602 C2603 1.385 . S
C2602 C2604 1.478 . S
C2603 H2597 0.930 . S
C2603 C2599 1.400 1_556 S
C2603 C2602 1.385 . S
C2604 C2602 1.478 . S
C2604 C2606 1.381 . S
C2604 C2610 1.383 . S
C2605 C2601 1.495 . S
C2605 H2611 0.959 . S
C2605 H2612 0.961 . S
C2605 H2613 0.960 . S
C2606 C2604 1.381 . S
C2606 C2607 1.394 . S
C2606 H2614 0.930 . S
C2607 C2606 1.394 . S
C2607 C2608 1.383 . S
C2607 H2615 0.929 . S
C2608 C2607 1.383 . S
C2608 C2609 1.377 . S
C2609 H2593 0.930 . S
C2609 C2608 1.377 . S
C2609 C2610 1.379 . S
C2610 H2594 0.931 . S
C2610 C2604 1.383 . S
C2610 C2609 1.379 . S
H2611 C2605 0.959 . S
H2612 C2605 0.961 . S
H2613 C2605 0.960 . S
H2614 C2606 0.930 . S
H2615 C2607 0.929 . S
H2616 C2624 0.929 . S
H2617 C2626 0.930 . S
H2618 C2628 0.930 . S
H2619 C2631 0.929 . S
H2620 C2634 0.930 . S
H2621 C2636 0.960 . S
H2622 C2636 0.960 . S
H2623 C2636 0.960 . S
C2624 H2616 0.929 . S
C2624 C2625 1.377 . S
C2624 C2626 1.384 . S
C2625 C2624 1.377 . S
C2625 C2631 1.390 . S
C2626 H2617 0.930 . S
C2626 C2624 1.384 . S
C2626 C2627 1.372 . S
C2627 C2626 1.372 . S
C2627 C2628 1.400 . S
C2627 C2632 1.490 . S
C2628 H2618 0.930 . S
C2628 C2627 1.400 . S
C2628 C2631 1.386 . S
H2629 C2645 0.930 . S
H2630 C2646 0.931 . S
C2631 H2619 0.929 . S
C2631 C2625 1.390 . S
C2631 C2628 1.386 . S
C2632 C2627 1.490 . S
C2632 C2634 1.395 . S
C2632 C2635 1.403 . S
H2633 C2639 0.930 . S
C2634 H2620 0.930 . S
C2634 C2632 1.395 . S
C2634 C2637 1.403 1_554 S
C2635 C2632 1.403 . S
C2635 C2636 1.524 . S
C2635 C2639 1.400 1_554 S
C2636 H2621 0.960 . S
C2636 H2622 0.960 . S
C2636 H2623 0.960 . S
C2636 C2635 1.524 . S
C2637 C2634 1.403 1_556 S
C2637 C2638 1.392 . S
C2637 C2641 1.495 . S
C2638 C2637 1.392 . S
C2638 C2639 1.385 . S
C2638 C2640 1.478 . S
C2639 H2633 0.930 . S
C2639 C2635 1.400 1_556 S
C2639 C2638 1.385 . S
C2640 C2638 1.478 . S
C2640 C2642 1.381 . S
C2640 C2646 1.383 . S
C2641 C2637 1.495 . S
C2641 H2647 0.959 . S
C2641 H2648 0.961 . S
C2641 H2649 0.960 . S
C2642 C2640 1.381 . S
C2642 C2643 1.394 . S
C2642 H2650 0.930 . S
C2643 C2642 1.394 . S
C2643 C2644 1.383 . S
C2643 H2651 0.929 . S
C2644 C2643 1.383 . S
C2644 C2645 1.377 . S
C2645 H2629 0.930 . S
C2645 C2644 1.377 . S
C2645 C2646 1.379 . S
C2646 H2630 0.931 . S
C2646 C2640 1.383 . S
C2646 C2645 1.379 . S
H2647 C2641 0.959 . S
H2648 C2641 0.961 . S
H2649 C2641 0.960 . S
H2650 C2642 0.930 . S
H2651 C2643 0.929 . S
H2652 C2660 0.929 . S
H2653 C2662 0.930 . S
H2654 C2664 0.930 . S
H2655 C2667 0.929 . S
H2656 C2670 0.930 . S
H2657 C2672 0.960 . S
H2658 C2672 0.960 . S
H2659 C2672 0.960 . S
C2660 H2652 0.929 . S
C2660 C2661 1.377 . S
C2660 C2662 1.384 . S
C2661 C2660 1.377 . S
C2661 C2667 1.390 . S
C2662 H2653 0.930 . S
C2662 C2660 1.384 . S
C2662 C2663 1.372 . S
C2663 C2662 1.372 . S
C2663 C2664 1.400 . S
C2663 C2668 1.490 . S
C2664 H2654 0.930 . S
C2664 C2663 1.400 . S
C2664 C2667 1.386 . S
H2665 C2681 0.930 . S
H2666 C2682 0.931 . S
C2667 H2655 0.929 . S
C2667 C2661 1.390 . S
C2667 C2664 1.386 . S
C2668 C2663 1.490 . S
C2668 C2670 1.395 . S
C2668 C2671 1.403 . S
H2669 C2675 0.930 . S
C2670 H2656 0.930 . S
C2670 C2668 1.395 . S
C2670 C2673 1.403 1_554 S
C2671 C2668 1.403 . S
C2671 C2672 1.524 . S
C2671 C2675 1.400 1_554 S
C2672 H2657 0.960 . S
C2672 H2658 0.960 . S
C2672 H2659 0.960 . S
C2672 C2671 1.524 . S
C2673 C2670 1.403 1_556 S
C2673 C2674 1.392 . S
C2673 C2677 1.495 . S
C2674 C2673 1.392 . S
C2674 C2675 1.385 . S
C2674 C2676 1.478 . S
C2675 H2669 0.930 . S
C2675 C2671 1.400 1_556 S
C2675 C2674 1.385 . S
C2676 C2674 1.478 . S
C2676 C2678 1.381 . S
C2676 C2682 1.383 . S
C2677 C2673 1.495 . S
C2677 H2683 0.959 . S
C2677 H2684 0.961 . S
C2677 H2685 0.960 . S
C2678 C2676 1.381 . S
C2678 C2679 1.394 . S
C2678 H2686 0.930 . S
C2679 C2678 1.394 . S
C2679 C2680 1.383 . S
C2679 H2687 0.929 . S
C2680 C2679 1.383 . S
C2680 C2681 1.377 . S
C2681 H2665 0.930 . S
C2681 C2680 1.377 . S
C2681 C2682 1.379 . S
C2682 H2666 0.931 . S
C2682 C2676 1.383 . S
C2682 C2681 1.379 . S
H2683 C2677 0.959 . S
H2684 C2677 0.961 . S
H2685 C2677 0.960 . S
H2686 C2678 0.930 . S
H2687 C2679 0.929 . S
H2688 C2696 0.929 . S
H2689 C2698 0.930 . S
H2690 C2700 0.930 . S
H2691 C2703 0.929 . S
H2692 C2706 0.930 . S
H2693 C2708 0.960 . S
H2694 C2708 0.960 . S
H2695 C2708 0.960 . S
C2696 H2688 0.929 . S
C2696 C2697 1.377 . S
C2696 C2698 1.384 . S
C2697 C2696 1.377 . S
C2697 C2703 1.390 . S
C2698 H2689 0.930 . S
C2698 C2696 1.384 . S
C2698 C2699 1.372 . S
C2699 C2698 1.372 . S
C2699 C2700 1.400 . S
C2699 C2704 1.490 . S
C2700 H2690 0.930 . S
C2700 C2699 1.400 . S
C2700 C2703 1.386 . S
H2701 C2717 0.930 . S
H2702 C2718 0.931 . S
C2703 H2691 0.929 . S
C2703 C2697 1.390 . S
C2703 C2700 1.386 . S
C2704 C2699 1.490 . S
C2704 C2706 1.395 . S
C2704 C2707 1.403 . S
H2705 C2711 0.930 . S
C2706 H2692 0.930 . S
C2706 C2704 1.395 . S
C2706 C2709 1.403 1_554 S
C2707 C2704 1.403 . S
C2707 C2708 1.524 . S
C2707 C2711 1.400 1_554 S
C2708 H2693 0.960 . S
C2708 H2694 0.960 . S
C2708 H2695 0.960 . S
C2708 C2707 1.524 . S
C2709 C2706 1.403 1_556 S
C2709 C2710 1.392 . S
C2709 C2713 1.495 . S
C2710 C2709 1.392 . S
C2710 C2711 1.385 . S
C2710 C2712 1.478 . S
C2711 H2705 0.930 . S
C2711 C2707 1.400 1_556 S
C2711 C2710 1.385 . S
C2712 C2710 1.478 . S
C2712 C2714 1.381 . S
C2712 C2718 1.383 . S
C2713 C2709 1.495 . S
C2713 H2719 0.959 . S
C2713 H2720 0.961 . S
C2713 H2721 0.960 . S
C2714 C2712 1.381 . S
C2714 C2715 1.394 . S
C2714 H2722 0.930 . S
C2715 C2714 1.394 . S
C2715 C2716 1.383 . S
C2715 H2723 0.929 . S
C2716 C2715 1.383 . S
C2716 C2717 1.377 . S
C2717 H2701 0.930 . S
C2717 C2716 1.377 . S
C2717 C2718 1.379 . S
C2718 H2702 0.931 . S
C2718 C2712 1.383 . S
C2718 C2717 1.379 . S
H2719 C2713 0.959 . S
H2720 C2713 0.961 . S
H2721 C2713 0.960 . S
H2722 C2714 0.930 . S
H2723 C2715 0.929 . S
H2724 C2732 0.929 . S
H2725 C2734 0.930 . S
H2726 C2736 0.930 . S
H2727 C2739 0.929 . S
H2728 C2742 0.930 . S
H2729 C2744 0.960 . S
H2730 C2744 0.960 . S
H2731 C2744 0.960 . S
C2732 H2724 0.929 . S
C2732 C2733 1.377 . S
C2732 C2734 1.384 . S
C2733 C2732 1.377 . S
C2733 C2739 1.390 . S
C2734 H2725 0.930 . S
C2734 C2732 1.384 . S
C2734 C2735 1.372 . S
C2735 C2734 1.372 . S
C2735 C2736 1.400 . S
C2735 C2740 1.490 . S
C2736 H2726 0.930 . S
C2736 C2735 1.400 . S
C2736 C2739 1.386 . S
H2737 C2753 0.930 . S
H2738 C2754 0.931 . S
C2739 H2727 0.929 . S
C2739 C2733 1.390 . S
C2739 C2736 1.386 . S
C2740 C2735 1.490 . S
C2740 C2742 1.395 . S
C2740 C2743 1.403 . S
H2741 C2747 0.930 . S
C2742 H2728 0.930 . S
C2742 C2740 1.395 . S
C2742 C2745 1.403 1_556 S
C2743 C2740 1.403 . S
C2743 C2744 1.524 . S
C2743 C2747 1.400 1_556 S
C2744 H2729 0.960 . S
C2744 H2730 0.960 . S
C2744 H2731 0.960 . S
C2744 C2743 1.524 . S
C2745 C2742 1.403 1_554 S
C2745 C2746 1.392 . S
C2745 C2749 1.495 . S
C2746 C2745 1.392 . S
C2746 C2747 1.385 . S
C2746 C2748 1.478 . S
C2747 H2741 0.930 . S
C2747 C2743 1.400 1_554 S
C2747 C2746 1.385 . S
C2748 C2746 1.478 . S
C2748 C2750 1.381 . S
C2748 C2754 1.383 . S
C2749 C2745 1.495 . S
C2749 H2755 0.959 . S
C2749 H2756 0.961 . S
C2749 H2757 0.960 . S
C2750 C2748 1.381 . S
C2750 C2751 1.394 . S
C2750 H2758 0.930 . S
C2751 C2750 1.394 . S
C2751 C2752 1.383 . S
C2751 H2759 0.929 . S
C2752 C2751 1.383 . S
C2752 C2753 1.377 . S
C2753 H2737 0.930 . S
C2753 C2752 1.377 . S
C2753 C2754 1.379 . S
C2754 H2738 0.931 . S
C2754 C2748 1.383 . S
C2754 C2753 1.379 . S
H2755 C2749 0.959 . S
H2756 C2749 0.961 . S
H2757 C2749 0.960 . S
H2758 C2750 0.930 . S
H2759 C2751 0.929 . S
H2760 C2768 0.929 . S
H2761 C2770 0.930 . S
H2762 C2772 0.930 . S
H2763 C2775 0.929 . S
H2764 C2778 0.930 . S
H2765 C2780 0.960 . S
H2766 C2780 0.960 . S
H2767 C2780 0.960 . S
C2768 H2760 0.929 . S
C2768 C2769 1.377 . S
C2768 C2770 1.384 . S
C2769 C2768 1.377 . S
C2769 C2775 1.390 . S
C2770 H2761 0.930 . S
C2770 C2768 1.384 . S
C2770 C2771 1.372 . S
C2771 C2770 1.372 . S
C2771 C2772 1.400 . S
C2771 C2776 1.490 . S
C2772 H2762 0.930 . S
C2772 C2771 1.400 . S
C2772 C2775 1.386 . S
H2773 C2789 0.930 . S
H2774 C2790 0.931 . S
C2775 H2763 0.929 . S
C2775 C2769 1.390 . S
C2775 C2772 1.386 . S
C2776 C2771 1.490 . S
C2776 C2778 1.395 . S
C2776 C2779 1.403 . S
H2777 C2783 0.930 . S
C2778 H2764 0.930 . S
C2778 C2776 1.395 . S
C2778 C2781 1.403 . S
C2779 C2776 1.403 . S
C2779 C2780 1.524 . S
C2779 C2783 1.400 . S
C2780 H2765 0.960 . S
C2780 H2766 0.960 . S
C2780 H2767 0.960 . S
C2780 C2779 1.524 . S
C2781 C2778 1.403 . S
C2781 C2782 1.392 . S
C2781 C2785 1.495 . S
C2782 C2781 1.392 . S
C2782 C2783 1.385 . S
C2782 C2784 1.478 . S
C2783 H2777 0.930 . S
C2783 C2779 1.400 . S
C2783 C2782 1.385 . S
C2784 C2782 1.478 . S
C2784 C2786 1.381 . S
C2784 C2790 1.383 . S
C2785 C2781 1.495 . S
C2785 H2791 0.959 . S
C2785 H2792 0.961 . S
C2785 H2793 0.960 . S
C2786 C2784 1.381 . S
C2786 C2787 1.394 . S
C2786 H2794 0.930 . S
C2787 C2786 1.394 . S
C2787 C2788 1.383 . S
C2787 H2795 0.929 . S
C2788 C2787 1.383 . S
C2788 C2789 1.377 . S
C2789 H2773 0.930 . S
C2789 C2788 1.377 . S
C2789 C2790 1.379 . S
C2790 H2774 0.931 . S
C2790 C2784 1.383 . S
C2790 C2789 1.379 . S
H2791 C2785 0.959 . S
H2792 C2785 0.961 . S
H2793 C2785 0.960 . S
H2794 C2786 0.930 . S
H2795 C2787 0.929 . S
H2796 C2804 0.929 . S
H2797 C2806 0.930 . S
H2798 C2808 0.930 . S
H2799 C2811 0.929 . S
H2800 C2814 0.930 . S
H2801 C2816 0.960 . S
H2802 C2816 0.960 . S
H2803 C2816 0.960 . S
C2804 H2796 0.929 . S
C2804 C2805 1.377 . S
C2804 C2806 1.384 . S
C2805 C2804 1.377 . S
C2805 C2811 1.390 . S
C2806 H2797 0.930 . S
C2806 C2804 1.384 . S
C2806 C2807 1.372 . S
C2807 C2806 1.372 . S
C2807 C2808 1.400 . S
C2807 C2812 1.490 . S
C2808 H2798 0.930 . S
C2808 C2807 1.400 . S
C2808 C2811 1.386 . S
H2809 C2825 0.930 . S
H2810 C2826 0.931 . S
C2811 H2799 0.929 . S
C2811 C2805 1.390 . S
C2811 C2808 1.386 . S
C2812 C2807 1.490 . S
C2812 C2814 1.395 . S
C2812 C2815 1.403 . S
H2813 C2819 0.930 . S
C2814 H2800 0.930 . S
C2814 C2812 1.395 . S
C2814 C2817 1.403 . S
C2815 C2812 1.403 . S
C2815 C2816 1.524 . S
C2815 C2819 1.400 . S
C2816 H2801 0.960 . S
C2816 H2802 0.960 . S
C2816 H2803 0.960 . S
C2816 C2815 1.524 . S
C2817 C2814 1.403 . S
C2817 C2818 1.392 . S
C2817 C2821 1.495 . S
C2818 C2817 1.392 . S
C2818 C2819 1.385 . S
C2818 C2820 1.478 . S
C2819 H2813 0.930 . S
C2819 C2815 1.400 . S
C2819 C2818 1.385 . S
C2820 C2818 1.478 . S
C2820 C2822 1.381 . S
C2820 C2826 1.383 . S
C2821 C2817 1.495 . S
C2821 H2827 0.959 . S
C2821 H2828 0.961 . S
C2821 H2829 0.960 . S
C2822 C2820 1.381 . S
C2822 C2823 1.394 . S
C2822 H2830 0.930 . S
C2823 C2822 1.394 . S
C2823 C2824 1.383 . S
C2823 H2831 0.929 . S
C2824 C2823 1.383 . S
C2824 C2825 1.377 . S
C2825 H2809 0.930 . S
C2825 C2824 1.377 . S
C2825 C2826 1.379 . S
C2826 H2810 0.931 . S
C2826 C2820 1.383 . S
C2826 C2825 1.379 . S
H2827 C2821 0.959 . S
H2828 C2821 0.961 . S
H2829 C2821 0.960 . S
H2830 C2822 0.930 . S
H2831 C2823 0.929 . S
H2832 C2840 0.929 . S
H2833 C2842 0.930 . S
H2834 C2844 0.930 . S
H2835 C2847 0.929 . S
H2836 C2850 0.930 . S
H2837 C2852 0.960 . S
H2838 C2852 0.960 . S
H2839 C2852 0.960 . S
C2840 H2832 0.929 . S
C2840 C2841 1.377 . S
C2840 C2842 1.384 . S
C2841 C2840 1.377 . S
C2841 C2847 1.390 . S
C2842 H2833 0.930 . S
C2842 C2840 1.384 . S
C2842 C2843 1.372 . S
C2843 C2842 1.372 . S
C2843 C2844 1.400 . S
C2843 C2848 1.490 . S
C2844 H2834 0.930 . S
C2844 C2843 1.400 . S
C2844 C2847 1.386 . S
H2845 C2861 0.930 . S
H2846 C2862 0.931 . S
C2847 H2835 0.929 . S
C2847 C2841 1.390 . S
C2847 C2844 1.386 . S
C2848 C2843 1.490 . S
C2848 C2850 1.395 . S
C2848 C2851 1.403 . S
H2849 C2855 0.930 . S
C2850 H2836 0.930 . S
C2850 C2848 1.395 . S
C2850 C2853 1.403 . S
C2851 C2848 1.403 . S
C2851 C2852 1.524 . S
C2851 C2855 1.400 . S
C2852 H2837 0.960 . S
C2852 H2838 0.960 . S
C2852 H2839 0.960 . S
C2852 C2851 1.524 . S
C2853 C2850 1.403 . S
C2853 C2854 1.392 . S
C2853 C2857 1.495 . S
C2854 C2853 1.392 . S
C2854 C2855 1.385 . S
C2854 C2856 1.478 . S
C2855 H2849 0.930 . S
C2855 C2851 1.400 . S
C2855 C2854 1.385 . S
C2856 C2854 1.478 . S
C2856 C2858 1.381 . S
C2856 C2862 1.383 . S
C2857 C2853 1.495 . S
C2857 H2863 0.959 . S
C2857 H2864 0.961 . S
C2857 H2865 0.960 . S
C2858 C2856 1.381 . S
C2858 C2859 1.394 . S
C2858 H2866 0.930 . S
C2859 C2858 1.394 . S
C2859 C2860 1.383 . S
C2859 H2867 0.929 . S
C2860 C2859 1.383 . S
C2860 C2861 1.377 . S
C2861 H2845 0.930 . S
C2861 C2860 1.377 . S
C2861 C2862 1.379 . S
C2862 H2846 0.931 . S
C2862 C2856 1.383 . S
C2862 C2861 1.379 . S
H2863 C2857 0.959 . S
H2864 C2857 0.961 . S
H2865 C2857 0.960 . S
H2866 C2858 0.930 . S
H2867 C2859 0.929 . S
H2868 C2876 0.929 . S
H2869 C2878 0.930 . S
H2870 C2880 0.930 . S
H2871 C2883 0.929 . S
H2872 C2886 0.930 . S
H2873 C2888 0.960 . S
H2874 C2888 0.960 . S
H2875 C2888 0.960 . S
C2876 H2868 0.929 . S
C2876 C2877 1.377 . S
C2876 C2878 1.384 . S
C2877 C2876 1.377 . S
C2877 C2883 1.390 . S
C2878 H2869 0.930 . S
C2878 C2876 1.384 . S
C2878 C2879 1.372 . S
C2879 C2878 1.372 . S
C2879 C2880 1.400 . S
C2879 C2884 1.490 . S
C2880 H2870 0.930 . S
C2880 C2879 1.400 . S
C2880 C2883 1.386 . S
H2881 C2897 0.930 . S
H2882 C2898 0.931 . S
C2883 H2871 0.929 . S
C2883 C2877 1.390 . S
C2883 C2880 1.386 . S
C2884 C2879 1.490 . S
C2884 C2886 1.395 . S
C2884 C2887 1.403 . S
H2885 C2891 0.930 . S
C2886 H2872 0.930 . S
C2886 C2884 1.395 . S
C2886 C2889 1.403 . S
C2887 C2884 1.403 . S
C2887 C2888 1.524 . S
C2887 C2891 1.400 . S
C2888 H2873 0.960 . S
C2888 H2874 0.960 . S
C2888 H2875 0.960 . S
C2888 C2887 1.524 . S
C2889 C2886 1.403 . S
C2889 C2890 1.392 . S
C2889 C2893 1.495 . S
C2890 C2889 1.392 . S
C2890 C2891 1.385 . S
C2890 C2892 1.478 . S
C2891 H2885 0.930 . S
C2891 C2887 1.400 . S
C2891 C2890 1.385 . S
C2892 C2890 1.478 . S
C2892 C2894 1.381 . S
C2892 C2898 1.383 . S
C2893 C2889 1.495 . S
C2893 H2899 0.959 . S
C2893 H2900 0.961 . S
C2893 H2901 0.960 . S
C2894 C2892 1.381 . S
C2894 C2895 1.394 . S
C2894 H2902 0.930 . S
C2895 C2894 1.394 . S
C2895 C2896 1.383 . S
C2895 H2903 0.929 . S
C2896 C2895 1.383 . S
C2896 C2897 1.377 . S
C2897 H2881 0.930 . S
C2897 C2896 1.377 . S
C2897 C2898 1.379 . S
C2898 H2882 0.931 . S
C2898 C2892 1.383 . S
C2898 C2897 1.379 . S
H2899 C2893 0.959 . S
H2900 C2893 0.961 . S
H2901 C2893 0.960 . S
H2902 C2894 0.930 . S
H2903 C2895 0.929 . S
H2904 C2912 0.929 . S
H2905 C2914 0.930 . S
H2906 C2916 0.930 . S
H2907 C2919 0.929 . S
H2908 C2922 0.930 . S
H2909 C2924 0.960 . S
H2910 C2924 0.960 . S
H2911 C2924 0.960 . S
C2912 H2904 0.929 . S
C2912 C2913 1.377 . S
C2912 C2914 1.384 . S
C2913 C2912 1.377 . S
C2913 C2919 1.390 . S
C2914 H2905 0.930 . S
C2914 C2912 1.384 . S
C2914 C2915 1.372 . S
C2915 C2914 1.372 . S
C2915 C2916 1.400 . S
C2915 C2920 1.490 . S
C2916 H2906 0.930 . S
C2916 C2915 1.400 . S
C2916 C2919 1.386 . S
H2917 C2933 0.930 . S
H2918 C2934 0.931 . S
C2919 H2907 0.929 . S
C2919 C2913 1.390 . S
C2919 C2916 1.386 . S
C2920 C2915 1.490 . S
C2920 C2922 1.395 . S
C2920 C2923 1.403 . S
H2921 C2927 0.930 . S
C2922 H2908 0.930 . S
C2922 C2920 1.395 . S
C2922 C2925 1.403 . S
C2923 C2920 1.403 . S
C2923 C2924 1.524 . S
C2923 C2927 1.400 . S
C2924 H2909 0.960 . S
C2924 H2910 0.960 . S
C2924 H2911 0.960 . S
C2924 C2923 1.524 . S
C2925 C2922 1.403 . S
C2925 C2926 1.392 . S
C2925 C2929 1.495 . S
C2926 C2925 1.392 . S
C2926 C2927 1.385 . S
C2926 C2928 1.478 . S
C2927 H2921 0.930 . S
C2927 C2923 1.400 . S
C2927 C2926 1.385 . S
C2928 C2926 1.478 . S
C2928 C2930 1.381 . S
C2928 C2934 1.383 . S
C2929 C2925 1.495 . S
C2929 H2935 0.959 . S
C2929 H2936 0.961 . S
C2929 H2937 0.960 . S
C2930 C2928 1.381 . S
C2930 C2931 1.394 . S
C2930 H2938 0.930 . S
C2931 C2930 1.394 . S
C2931 C2932 1.383 . S
C2931 H2939 0.929 . S
C2932 C2931 1.383 . S
C2932 C2933 1.377 . S
C2933 H2917 0.930 . S
C2933 C2932 1.377 . S
C2933 C2934 1.379 . S
C2934 H2918 0.931 . S
C2934 C2928 1.383 . S
C2934 C2933 1.379 . S
H2935 C2929 0.959 . S
H2936 C2929 0.961 . S
H2937 C2929 0.960 . S
H2938 C2930 0.930 . S
H2939 C2931 0.929 . S
H2940 C2948 0.929 . S
H2941 C2950 0.930 . S
H2942 C2952 0.930 . S
H2943 C2955 0.929 . S
H2944 C2958 0.930 . S
H2945 C2960 0.960 . S
H2946 C2960 0.960 . S
H2947 C2960 0.960 . S
C2948 H2940 0.929 . S
C2948 C2949 1.377 . S
C2948 C2950 1.384 . S
C2949 C2948 1.377 . S
C2949 C2955 1.390 . S
C2950 H2941 0.930 . S
C2950 C2948 1.384 . S
C2950 C2951 1.372 . S
C2951 C2950 1.372 . S
C2951 C2952 1.400 . S
C2951 C2956 1.490 . S
C2952 H2942 0.930 . S
C2952 C2951 1.400 . S
C2952 C2955 1.386 . S
H2953 C2969 0.930 . S
H2954 C2970 0.931 . S
C2955 H2943 0.929 . S
C2955 C2949 1.390 . S
C2955 C2952 1.386 . S
C2956 C2951 1.490 . S
C2956 C2958 1.395 . S
C2956 C2959 1.403 . S
H2957 C2963 0.930 . S
C2958 H2944 0.930 . S
C2958 C2956 1.395 . S
C2958 C2961 1.403 . S
C2959 C2956 1.403 . S
C2959 C2960 1.524 . S
C2959 C2963 1.400 . S
C2960 H2945 0.960 . S
C2960 H2946 0.960 . S
C2960 H2947 0.960 . S
C2960 C2959 1.524 . S
C2961 C2958 1.403 . S
C2961 C2962 1.392 . S
C2961 C2965 1.495 . S
C2962 C2961 1.392 . S
C2962 C2963 1.385 . S
C2962 C2964 1.478 . S
C2963 H2957 0.930 . S
C2963 C2959 1.400 . S
C2963 C2962 1.385 . S
C2964 C2962 1.478 . S
C2964 C2966 1.381 . S
C2964 C2970 1.383 . S
C2965 C2961 1.495 . S
C2965 H2971 0.959 . S
C2965 H2972 0.961 . S
C2965 H2973 0.960 . S
C2966 C2964 1.381 . S
C2966 C2967 1.394 . S
C2966 H2974 0.930 . S
C2967 C2966 1.394 . S
C2967 C2968 1.383 . S
C2967 H2975 0.929 . S
C2968 C2967 1.383 . S
C2968 C2969 1.377 . S
C2969 H2953 0.930 . S
C2969 C2968 1.377 . S
C2969 C2970 1.379 . S
C2970 H2954 0.931 . S
C2970 C2964 1.383 . S
C2970 C2969 1.379 . S
H2971 C2965 0.959 . S
H2972 C2965 0.961 . S
H2973 C2965 0.960 . S
H2974 C2966 0.930 . S
H2975 C2967 0.929 . S
C825 C5 0.606 . S
C844 C107 0.599 . S
C861 C141 0.606 . S
C880 C39 0.593 . S
C897 C175 0.622 . S
C916 C73 0.631 . S
C933 C311 0.606 . S
C952 C209 0.597 . S
C969 C243 0.622 . S
C988 C345 0.653 . S
C1005 C277 0.618 . S
C1024 C379 0.653 . S
C1041 C515 0.619 . S
C1060 C413 0.587 . S
C1077 C549 0.617 . S
C1096 C447 0.613 . S
C1113 C583 0.610 . S
C1132 C481 0.642 . S
C1149 C719 0.616 . S
C1168 C617 0.598 . S
C1185 C651 0.622 . S
C1204 C753 0.574 . S
C1221 C787 0.614 . S
C1240 C685 0.609 . S
C1257 C281 1.812 . S
C1276 C9 1.787 . S
C1293 C43 1.811 . S
C1312 C315 1.780 . S
C1329 C77 1.801 . S
C1348 C349 1.828 . S
C1365 C111 1.805 . S
C1384 C383 1.820 . S
C1401 C145 1.811 . S
C1420 C213 1.790 . S
C1437 C247 1.812 . S
C1456 C179 1.780 . S
C1473 C417 1.812 . S
C1492 C689 1.814 . S
C1509 C723 1.812 . S
C1528 C451 1.827 . S
C1545 C757 1.802 . S
C1564 C485 1.778 . S
C1581 C519 1.806 . S
C1600 C791 1.817 . S
C1617 C621 1.802 . S
C1636 C553 1.792 . S
C1653 C655 1.810 . S
C1672 C587 1.803 . S
C1689 C33 0.771 . S
C1708 C271 0.727 . S
C1725 C67 0.758 . S
C1744 C305 0.747 . S
C1761 C339 0.755 . S
C1780 C101 0.775 . S
C1797 C135 0.767 . S
C1816 C373 0.721 . S
C1833 C407 0.772 . S
C1852 C169 0.750 . S
C1869 C237 0.772 . S
C1888 C203 0.739 . S
C1905 C441 0.771 . S
C1924 C679 0.758 . S
C1941 C475 0.770 . S
C1960 C713 0.725 . S
C1977 C509 0.769 . S
C1996 C747 0.776 . S
C2013 C543 0.768 . S
C2032 C781 0.782 . S
C2049 C577 0.771 . S
C2068 C815 0.759 . S
C2085 C645 0.764 . S
C2104 C611 0.798 . S
C2121 C2 0.949 . S
C2140 C342 0.928 . S
C2157 C376 0.946 . S
C2176 C36 0.948 . S
C2193 C206 0.946 . S
C2212 C70 0.944 . S
C2229 C240 0.951 . S
C2248 C104 0.909 . S
C2265 C138 0.937 . S
C2284 C274 0.966 . S
C2301 C172 0.938 . S
C2320 C308 0.961 . S
C2337 C410 0.936 . S
C2356 C750 0.910 . S
C2373 C784 0.951 . S
C2392 C444 0.962 . S
C2409 C614 0.943 . S
C2428 C478 0.919 . S
C2445 C512 0.947 . S
C2464 C648 0.974 . S
C2481 C546 0.943 . S
C2500 C682 0.961 . S
C2517 C716 0.948 . S
C2536 C580 0.976 . S
C2553 C20 1.387 . S
C2572 C530 1.399 . S
C2589 C54 1.390 . S
C2608 C564 1.366 . S
C2625 C88 1.388 . S
C2644 C598 1.361 . S
C2661 C122 1.385 . S
C2680 C428 1.404 . S
C2697 C156 1.383 . S
C2716 C462 1.404 . S
C2733 C496 1.381 . S
C2752 C190 1.399 . S
C2769 C224 1.385 . S
C2788 C734 1.367 . S
C2805 C258 1.386 . S
C2824 C768 1.362 . S
C2841 C292 1.386 . S
C2860 C802 1.363 . S
C2877 C326 1.383 . S
C2896 C632 1.405 . S
C2913 C360 1.388 . S
C2932 C666 1.394 . S
C2949 C700 1.388 . S
C2968 C394 1.361 . S
