# Generated by pormake.
# Topology som, (6)-cn, num edge types: 1
# Building blocks:
#     Node 0, Type 0, BuildingBlock: MIFKUJ_clean_sbu_0, # of connection points: 6
#     Node 1, Type 0, BuildingBlock: MIFKUJ_clean_sbu_0, # of connection points: 6
#     Node 2, Type 0, BuildingBlock: MIFKUJ_clean_sbu_0, # of connection points: 6
#     Node 3, Type 0, BuildingBlock: MIFKUJ_clean_sbu_0, # of connection points: 6
#     Node 4, Type 0, BuildingBlock: MIFKUJ_clean_sbu_0, # of connection points: 6
#     Node 5, Type 0, BuildingBlock: MIFKUJ_clean_sbu_0, # of connection points: 6
#     Node 6, Type 0, BuildingBlock: MIFKUJ_clean_sbu_0, # of connection points: 6
#     Node 7, Type 0, BuildingBlock: MIFKUJ_clean_sbu_0, # of connection points: 6
#     Node 8, Type 0, BuildingBlock: MIFKUJ_clean_sbu_0, # of connection points: 6
#     Node 9, Type 0, BuildingBlock: MIFKUJ_clean_sbu_0, # of connection points: 6
#     Node 10, Type 0, BuildingBlock: MIFKUJ_clean_sbu_0, # of connection points: 6
#     Node 11, Type 0, BuildingBlock: MIFKUJ_clean_sbu_0, # of connection points: 6
#     Node 12, Type 0, BuildingBlock: MIFKUJ_clean_sbu_0, # of connection points: 6
#     Node 13, Type 0, BuildingBlock: MIFKUJ_clean_sbu_0, # of connection points: 6
#     Node 14, Type 0, BuildingBlock: MIFKUJ_clean_sbu_0, # of connection points: 6
#     Node 15, Type 0, BuildingBlock: MIFKUJ_clean_sbu_0, # of connection points: 6
#     Node 16, Type 0, BuildingBlock: MIFKUJ_clean_sbu_0, # of connection points: 6
#     Node 17, Type 0, BuildingBlock: MIFKUJ_clean_sbu_0, # of connection points: 6
#     Node 18, Type 0, BuildingBlock: MIFKUJ_clean_sbu_0, # of connection points: 6
#     Node 19, Type 0, BuildingBlock: MIFKUJ_clean_sbu_0, # of connection points: 6
#     Node 20, Type 0, BuildingBlock: MIFKUJ_clean_sbu_0, # of connection points: 6
#     Node 21, Type 0, BuildingBlock: MIFKUJ_clean_sbu_0, # of connection points: 6
#     Node 22, Type 0, BuildingBlock: MIFKUJ_clean_sbu_0, # of connection points: 6
#     Node 23, Type 0, BuildingBlock: MIFKUJ_clean_sbu_0, # of connection points: 6
#     Node 24, Type 0, BuildingBlock: MIFKUJ_clean_sbu_0, # of connection points: 6
#     Node 25, Type 0, BuildingBlock: MIFKUJ_clean_sbu_0, # of connection points: 6
#     Node 26, Type 0, BuildingBlock: MIFKUJ_clean_sbu_0, # of connection points: 6
#     Node 27, Type 0, BuildingBlock: MIFKUJ_clean_sbu_0, # of connection points: 6
#     Node 28, Type 0, BuildingBlock: MIFKUJ_clean_sbu_0, # of connection points: 6
#     Node 29, Type 0, BuildingBlock: MIFKUJ_clean_sbu_0, # of connection points: 6
#     Node 30, Type 0, BuildingBlock: MIFKUJ_clean_sbu_0, # of connection points: 6
#     Node 31, Type 0, BuildingBlock: MIFKUJ_clean_sbu_0, # of connection points: 6
#     Edge 32, Type (0, 0), None
#     Edge 33, Type (0, 0), None
#     Edge 34, Type (0, 0), None
#     Edge 35, Type (0, 0), None
#     Edge 36, Type (0, 0), None
#     Edge 37, Type (0, 0), None
#     Edge 38, Type (0, 0), None
#     Edge 39, Type (0, 0), None
#     Edge 40, Type (0, 0), None
#     Edge 41, Type (0, 0), None
#     Edge 42, Type (0, 0), None
#     Edge 43, Type (0, 0), None
#     Edge 44, Type (0, 0), None
#     Edge 45, Type (0, 0), None
#     Edge 46, Type (0, 0), None
#     Edge 47, Type (0, 0), None
#     Edge 48, Type (0, 0), None
#     Edge 49, Type (0, 0), None
#     Edge 50, Type (0, 0), None
#     Edge 51, Type (0, 0), None
#     Edge 52, Type (0, 0), None
#     Edge 53, Type (0, 0), None
#     Edge 54, Type (0, 0), None
#     Edge 55, Type (0, 0), None
#     Edge 56, Type (0, 0), None
#     Edge 57, Type (0, 0), None
#     Edge 58, Type (0, 0), None
#     Edge 59, Type (0, 0), None
#     Edge 60, Type (0, 0), None
#     Edge 61, Type (0, 0), None
#     Edge 62, Type (0, 0), None
#     Edge 63, Type (0, 0), None
#     Edge 64, Type (0, 0), None
#     Edge 65, Type (0, 0), None
#     Edge 66, Type (0, 0), None
#     Edge 67, Type (0, 0), None
#     Edge 68, Type (0, 0), None
#     Edge 69, Type (0, 0), None
#     Edge 70, Type (0, 0), None
#     Edge 71, Type (0, 0), None
#     Edge 72, Type (0, 0), None
#     Edge 73, Type (0, 0), None
#     Edge 74, Type (0, 0), None
#     Edge 75, Type (0, 0), None
#     Edge 76, Type (0, 0), None
#     Edge 77, Type (0, 0), None
#     Edge 78, Type (0, 0), None
#     Edge 79, Type (0, 0), None
#     Edge 80, Type (0, 0), None
#     Edge 81, Type (0, 0), None
#     Edge 82, Type (0, 0), None
#     Edge 83, Type (0, 0), None
#     Edge 84, Type (0, 0), None
#     Edge 85, Type (0, 0), None
#     Edge 86, Type (0, 0), None
#     Edge 87, Type (0, 0), None
#     Edge 88, Type (0, 0), None
#     Edge 89, Type (0, 0), None
#     Edge 90, Type (0, 0), None
#     Edge 91, Type (0, 0), None
#     Edge 92, Type (0, 0), None
#     Edge 93, Type (0, 0), None
#     Edge 94, Type (0, 0), None
#     Edge 95, Type (0, 0), None
#     Edge 96, Type (0, 0), None
#     Edge 97, Type (0, 0), None
#     Edge 98, Type (0, 0), None
#     Edge 99, Type (0, 0), None
#     Edge 100, Type (0, 0), None
#     Edge 101, Type (0, 0), None
#     Edge 102, Type (0, 0), None
#     Edge 103, Type (0, 0), None
#     Edge 104, Type (0, 0), None
#     Edge 105, Type (0, 0), None
#     Edge 106, Type (0, 0), None
#     Edge 107, Type (0, 0), None
#     Edge 108, Type (0, 0), None
#     Edge 109, Type (0, 0), None
#     Edge 110, Type (0, 0), None
#     Edge 111, Type (0, 0), None
#     Edge 112, Type (0, 0), None
#     Edge 113, Type (0, 0), None
#     Edge 114, Type (0, 0), None
#     Edge 115, Type (0, 0), None
#     Edge 116, Type (0, 0), None
#     Edge 117, Type (0, 0), None
#     Edge 118, Type (0, 0), None
#     Edge 119, Type (0, 0), None
#     Edge 120, Type (0, 0), None
#     Edge 121, Type (0, 0), None
#     Edge 122, Type (0, 0), None
#     Edge 123, Type (0, 0), None
#     Edge 124, Type (0, 0), None
#     Edge 125, Type (0, 0), None
#     Edge 126, Type (0, 0), None
#     Edge 127, Type (0, 0), None
# Relax obj value: 0.051
# Max RMSD: 0.105
# Mean RMSD: 0.105
data_MOF--net-som--node1-MIFKUJ_clean_sbu_0--edge1-none
_symmetry_space_group_name_H-M    P1
_symmetry_Int_Tables_number       1
_symmetry_cell_setting            triclinic
loop_
_symmetry_equiv_pos_as_xyz
'x, y, z'
_cell_length_a     10.202265
_cell_length_b     35.656913
_cell_length_c     44.67576
_cell_angle_alpha  89.933221
_cell_angle_beta   90.004284
_cell_angle_gamma 90.002458
loop_
_atom_site_label
_atom_site_type_symbol
_atom_site_fract_x
_atom_site_fract_y
_atom_site_fract_z
_atom_type_partial_charge
Zn0 Zn 0.22344 0.52687 0.0368 0.0
Zn1 Zn 0.88821 0.4639 0.0538 0.0
C2 C 0.16371 0.60015 0.02293 0.0
O3 O 0.20982 0.58653 -0.00224 0.0
C4 C 0.88374 0.38916 0.0777 0.0
O5 O 0.86877 0.4075 0.10294 0.0
O6 O 0.42112 0.52718 0.03295 0.0
O7 O 0.16015 0.48738 0.0662 0.0
O8 O 0.97604 0.48394 0.09083 0.0
C9 C 0.48865 0.50128 0.04486 0.0
O10 O 0.42946 0.47445 0.05975 0.0
O11 O 0.16097 0.57941 0.04609 0.0
C12 C 0.63159 0.50045 0.04165 0.0
O13 O 0.6926 0.52469 0.02443 0.0
O14 O 0.69551 0.47501 0.0551 0.0
O15 O 0.97987 0.48431 0.01732 0.0
O16 O 0.14604 0.514 -0.00328 0.0
O17 O 0.89896 0.40729 0.05344 0.0
C18 C 0.09635 0.4931 0.09018 0.0
C19 C 0.03712 0.4971 -0.00577 0.0
Zn20 Zn 0.04311 0.711 0.03638 0.0
Zn21 Zn 0.37809 0.77326 0.05387 0.0
C22 C 0.10746 0.63781 0.02267 0.0
O23 O 0.06458 0.65134 -0.00285 0.0
C24 C 0.38283 0.84802 0.07775 0.0
O25 O 0.39589 0.82969 0.10307 0.0
O26 O 0.84544 0.71042 0.0323 0.0
O27 O 0.10409 0.75041 0.06617 0.0
O28 O 0.28869 0.75329 0.09075 0.0
C29 C 0.77734 0.73582 0.04468 0.0
O30 O 0.83592 0.7622 0.06015 0.0
O31 O 0.10631 0.65852 0.04582 0.0
C32 C 0.63451 0.73672 0.0413 0.0
O33 O 0.57403 0.71329 0.02334 0.0
O34 O 0.57029 0.76162 0.05527 0.0
O35 O 0.28597 0.75338 0.01746 0.0
O36 O 0.12042 0.72422 -0.00367 0.0
O37 O 0.36885 0.8299 0.05347 0.0
C38 C 0.16782 0.74469 0.09019 0.0
C39 C 0.22952 0.74107 -0.00585 0.0
Zn40 Zn 0.22365 0.71153 0.17217 0.0
Zn41 Zn 0.88839 0.77449 0.15511 0.0
C42 C 0.16366 0.63826 0.18604 0.0
O43 O 0.2097 0.65187 0.21122 0.0
C44 C 0.88363 0.84923 0.13123 0.0
O45 O 0.86856 0.83089 0.106 0.0
O46 O 0.42133 0.71121 0.17604 0.0
O47 O 0.16047 0.751 0.14273 0.0
O48 O 0.97627 0.75447 0.11809 0.0
C49 C 0.48889 0.73706 0.16407 0.0
O50 O 0.42972 0.76385 0.14912 0.0
O51 O 0.16111 0.659 0.16288 0.0
C52 C 0.63181 0.73791 0.16731 0.0
O53 O 0.6928 0.71374 0.18459 0.0
O54 O 0.69574 0.76332 0.15381 0.0
O55 O 0.98032 0.75405 0.19154 0.0
O56 O 0.14625 0.72441 0.21226 0.0
O57 O 0.89902 0.83111 0.15549 0.0
C58 C 0.09657 0.74529 0.11875 0.0
C59 C 0.03731 0.7413 0.21468 0.0
Zn60 Zn 0.04297 0.52743 0.17256 0.0
Zn61 Zn 0.37796 0.46517 0.15503 0.0
C62 C 0.10733 0.60061 0.18629 0.0
O63 O 0.0644 0.58707 0.2118 0.0
C64 C 0.38263 0.39039 0.13118 0.0
O65 O 0.3955 0.40872 0.10585 0.0
O66 O 0.8453 0.528 0.17666 0.0
O67 O 0.10383 0.48803 0.14275 0.0
O68 O 0.28848 0.48514 0.11816 0.0
C69 C 0.77718 0.50264 0.16424 0.0
O70 O 0.83572 0.4763 0.14873 0.0
O71 O 0.10618 0.57991 0.16314 0.0
C72 C 0.63436 0.50171 0.16764 0.0
O73 O 0.5739 0.52509 0.18565 0.0
O74 O 0.57012 0.47685 0.15363 0.0
O75 O 0.28583 0.48506 0.19143 0.0
O76 O 0.12039 0.5142 0.2126 0.0
O77 O 0.36879 0.40852 0.15545 0.0
C78 C 0.16762 0.49374 0.11873 0.0
C79 C 0.22952 0.49737 0.21475 0.0
Zn80 Zn 0.12886 0.52454 0.90509 0.0
Zn81 Zn 0.79364 0.46156 0.92208 0.0
C82 C 0.13322 0.59928 0.88118 0.0
O83 O 0.14814 0.58094 0.85595 0.0
C84 C 0.85351 0.38828 0.93596 0.0
O85 O 0.80745 0.4019 0.96113 0.0
O86 O 0.32157 0.51344 0.90381 0.0
O87 O 0.03718 0.50413 0.94157 0.0
O88 O 0.871 0.47443 0.96217 0.0
C89 C 0.38549 0.48797 0.91723 0.0
O90 O 0.32445 0.46369 0.9344 0.0
O91 O 0.11808 0.58115 0.90546 0.0
C92 C 0.52843 0.48715 0.91403 0.0
O93 O 0.58765 0.51402 0.89918 0.0
O94 O 0.59595 0.46123 0.92592 0.0
O95 O 0.85696 0.50105 0.89269 0.0
O96 O 0.04107 0.50449 0.86806 0.0
O97 O 0.85616 0.40902 0.9128 0.0
C98 C 0.97992 0.49134 0.96466 0.0
C99 C 0.92077 0.49532 0.86871 0.0
Zn100 Zn 0.63899 0.21518 0.90501 0.0
Zn101 Zn 0.97397 0.27742 0.9225 0.0
C102 C 0.63413 0.14041 0.88114 0.0
O103 O 0.62101 0.15875 0.85582 0.0
C104 C 0.90977 0.35062 0.93622 0.0
O105 O 0.9527 0.33709 0.96173 0.0
O106 O 0.4468 0.22683 0.9036 0.0
O107 O 0.73107 0.23506 0.94143 0.0
O108 O 0.89662 0.26421 0.96256 0.0
C109 C 0.38257 0.2517 0.91759 0.0
O110 O 0.44303 0.27509 0.93559 0.0
O111 O 0.64819 0.15853 0.90541 0.0
C112 C 0.23974 0.25262 0.9142 0.0
O113 O 0.18118 0.22626 0.89869 0.0
O114 O 0.17164 0.27799 0.9266 0.0
O115 O 0.91302 0.23801 0.89272 0.0
O116 O 0.72842 0.23514 0.86813 0.0
O117 O 0.91082 0.32991 0.91307 0.0
C118 C 0.78751 0.24737 0.96474 0.0
C119 C 0.8493 0.24373 0.86869 0.0
Zn120 Zn 0.12874 0.21393 0.80378 0.0
Zn121 Zn 0.79348 0.27689 0.78672 0.0
C122 C 0.13362 0.13919 0.82766 0.0
O123 O 0.14879 0.15753 0.85288 0.0
C124 C 0.85338 0.35016 0.77284 0.0
O125 O 0.80731 0.33654 0.74767 0.0
O126 O 0.32138 0.22511 0.80509 0.0
O127 O 0.03683 0.23437 0.76734 0.0
O128 O 0.87091 0.26402 0.74662 0.0
C129 C 0.38532 0.2505 0.79157 0.0
O130 O 0.32434 0.27464 0.77427 0.0
O131 O 0.11814 0.15731 0.8034 0.0
C132 C 0.52824 0.25136 0.79482 0.0
O133 O 0.5874 0.22459 0.80979 0.0
O134 O 0.5958 0.2772 0.78283 0.0
O135 O 0.85666 0.23741 0.81616 0.0
O136 O 0.04084 0.23394 0.8408 0.0
O137 O 0.85598 0.32942 0.79601 0.0
C138 C 0.97985 0.24712 0.7442 0.0
C139 C 0.92055 0.24313 0.84014 0.0
Zn140 Zn 0.63917 0.52324 0.80385 0.0
Zn141 Zn 0.97416 0.46099 0.78633 0.0
C142 C 0.63462 0.59802 0.82771 0.0
O143 O 0.62186 0.5797 0.85304 0.0
C144 C 0.90971 0.38781 0.77259 0.0
O145 O 0.95261 0.40135 0.74708 0.0
O146 O 0.447 0.51157 0.80525 0.0
O147 O 0.73133 0.50335 0.76746 0.0
O148 O 0.89677 0.47422 0.74629 0.0
C149 C 0.38278 0.48669 0.79125 0.0
O150 O 0.44324 0.46329 0.77326 0.0
O151 O 0.64836 0.57989 0.80344 0.0
C152 C 0.23995 0.48578 0.79464 0.0
O153 O 0.1814 0.51214 0.81014 0.0
O154 O 0.17183 0.4604 0.78223 0.0
O155 O 0.91331 0.50038 0.81614 0.0
O156 O 0.72864 0.50327 0.84073 0.0
O157 O 0.91091 0.40851 0.79575 0.0
C158 C 0.78764 0.49106 0.74414 0.0
C159 C 0.84951 0.49467 0.84015 0.0
Zn160 Zn 0.22348 0.02687 0.53677 0.0
Zn161 Zn 0.88827 0.96392 0.55379 0.0
C162 C 0.16372 0.10015 0.52291 0.0
O163 O 0.20982 0.08654 0.49774 0.0
C164 C 0.88372 0.88918 0.57769 0.0
O165 O 0.86874 0.90751 0.60293 0.0
O166 O 0.42116 0.02719 0.53293 0.0
O167 O 0.1602 0.98739 0.56619 0.0
O168 O 0.97609 0.98394 0.59082 0.0
C169 C 0.4887 0.0013 0.54486 0.0
O170 O 0.42952 0.97448 0.55977 0.0
O171 O 0.16101 0.07941 0.54608 0.0
C172 C 0.63163 0.00047 0.54163 0.0
O173 O 0.69262 0.02469 0.5244 0.0
O174 O 0.69558 0.97504 0.55509 0.0
O175 O 0.98015 0.98436 0.51734 0.0
O176 O 0.14613 0.01403 0.49666 0.0
O177 O 0.89897 0.9073 0.55343 0.0
C178 C 0.0964 0.9931 0.59017 0.0
C179 C 0.0372 -0.00288 0.49421 0.0
Zn180 Zn 0.04312 0.211 0.53638 0.0
Zn181 Zn 0.37809 0.27324 0.55388 0.0
C182 C 0.10746 0.13782 0.52266 0.0
O183 O 0.06457 0.15135 0.49714 0.0
C184 C 0.38286 0.34801 0.57775 0.0
O185 O 0.39593 0.32968 0.60307 0.0
O186 O 0.84545 0.21042 0.53229 0.0
O187 O 0.10407 0.25041 0.56617 0.0
O188 O 0.28868 0.25327 0.59075 0.0
C189 C 0.77735 0.23581 0.54468 0.0
O190 O 0.83592 0.26218 0.56017 0.0
O191 O 0.10632 0.15852 0.54581 0.0
C192 C 0.63452 0.23672 0.5413 0.0
O193 O 0.57405 0.2133 0.52332 0.0
O194 O 0.57029 0.2616 0.55528 0.0
O195 O 0.286 0.25337 0.51745 0.0
O196 O 0.12044 0.22423 0.49632 0.0
O197 O 0.36887 0.32989 0.55348 0.0
C198 C 0.16779 0.24469 0.59019 0.0
C199 C 0.22955 0.24107 0.49414 0.0
Zn200 Zn 0.22365 0.21153 0.67216 0.0
Zn201 Zn 0.88839 0.2745 0.65511 0.0
C202 C 0.16364 0.13826 0.68604 0.0
O203 O 0.20965 0.15187 0.71122 0.0
C204 C 0.88358 0.34924 0.63123 0.0
O205 O 0.86846 0.3309 0.60601 0.0
O206 O 0.42133 0.21121 0.67603 0.0
O207 O 0.16045 0.25101 0.64273 0.0
O208 O 0.97626 0.25449 0.61809 0.0
C209 C 0.48889 0.23707 0.66407 0.0
O210 O 0.42971 0.26386 0.64913 0.0
O211 O 0.16111 0.159 0.66287 0.0
C212 C 0.63181 0.23792 0.66731 0.0
O213 O 0.69281 0.21374 0.68458 0.0
O214 O 0.69574 0.26333 0.65382 0.0
O215 O 0.98039 0.25405 0.69153 0.0
O216 O 0.14628 0.2244 0.71226 0.0
O217 O 0.89902 0.33112 0.6555 0.0
C218 C 0.09655 0.2453 0.61875 0.0
C219 C 0.03735 0.24131 0.71468 0.0
Zn220 Zn 0.043 0.02742 0.67255 0.0
Zn221 Zn 0.378 0.96516 0.65503 0.0
C222 C 0.10732 0.10061 0.68628 0.0
O223 O 0.06435 0.08707 0.71179 0.0
C224 C 0.3827 0.89039 0.63117 0.0
O225 O 0.39563 0.90872 0.60585 0.0
O226 O 0.84533 0.028 0.67665 0.0
O227 O 0.10389 0.98803 0.64274 0.0
O228 O 0.28853 0.98513 0.61815 0.0
C229 C 0.77722 0.00262 0.66424 0.0
O230 O 0.83577 0.97628 0.64873 0.0
O231 O 0.10621 0.07991 0.66313 0.0
C232 C 0.6344 0.0017 0.66763 0.0
O233 O 0.57394 0.02509 0.68563 0.0
O234 O 0.57017 0.97683 0.65363 0.0
O235 O 0.28588 0.98505 0.69143 0.0
O236 O 0.12042 0.0142 0.71259 0.0
O237 O 0.3688 0.90851 0.65545 0.0
C238 C 0.16767 0.99374 0.61873 0.0
C239 C 0.22954 -0.00264 0.71475 0.0
Zn240 Zn 0.12881 0.02452 0.4051 0.0
Zn241 Zn 0.79359 0.96155 0.42211 0.0
C242 C 0.13324 0.09926 0.38119 0.0
O243 O 0.14816 0.08092 0.35596 0.0
C244 C 0.8535 0.88828 0.43598 0.0
O245 O 0.80746 0.90189 0.46115 0.0
O246 O 0.32151 0.01341 0.40382 0.0
O247 O 0.03682 0.00407 0.44154 0.0
O248 O 0.87087 0.97441 0.46223 0.0
C249 C 0.38545 0.98796 0.41725 0.0
O250 O 0.32443 0.96369 0.43444 0.0
O251 O 0.11807 0.08114 0.40547 0.0
C252 C 0.52838 0.98713 0.41404 0.0
O253 O 0.58759 0.01398 0.39917 0.0
O254 O 0.59591 0.96123 0.42594 0.0
O255 O 0.85692 0.00104 0.3927 0.0
O256 O 0.04102 0.0045 0.36807 0.0
O257 O 0.85612 0.90902 0.41281 0.0
C258 C 0.97979 0.99131 0.46467 0.0
C259 C 0.92072 -0.00468 0.36872 0.0
Zn260 Zn 0.63899 0.7152 0.40501 0.0
Zn261 Zn 0.97397 0.77742 0.42251 0.0
C262 C 0.6341 0.64043 0.38114 0.0
O263 O 0.62098 0.65876 0.35582 0.0
C264 C 0.90977 0.85062 0.43623 0.0
O265 O 0.95272 0.83708 0.46174 0.0
O266 O 0.44681 0.72685 0.40359 0.0
O267 O 0.73103 0.73506 0.44144 0.0
O268 O 0.8966 0.76421 0.46256 0.0
C269 C 0.38257 0.75171 0.4176 0.0
O270 O 0.44302 0.77508 0.43562 0.0
O271 O 0.64817 0.65855 0.40541 0.0
C272 C 0.23975 0.75263 0.4142 0.0
O273 O 0.1812 0.72629 0.39868 0.0
O274 O 0.17163 0.77799 0.42662 0.0
O275 O 0.91305 0.73802 0.39272 0.0
O276 O 0.72845 0.73516 0.36813 0.0
O277 O 0.91081 0.82991 0.41308 0.0
C278 C 0.78749 0.74737 0.46474 0.0
C279 C 0.84933 0.74374 0.36869 0.0
Zn280 Zn 0.12875 0.71392 0.30378 0.0
Zn281 Zn 0.79348 0.77689 0.28672 0.0
C282 C 0.13368 0.63918 0.32766 0.0
O283 O 0.1489 0.65752 0.35288 0.0
C284 C 0.8534 0.85016 0.27285 0.0
O285 O 0.80736 0.83654 0.24767 0.0
O286 O 0.3214 0.72509 0.30508 0.0
O287 O 0.03681 0.73436 0.26735 0.0
O288 O 0.87091 0.76402 0.24663 0.0
C289 C 0.38533 0.75049 0.29157 0.0
O290 O 0.32434 0.77465 0.27428 0.0
O291 O 0.11814 0.6573 0.30339 0.0
C292 C 0.52825 0.75135 0.29482 0.0
O293 O 0.58742 0.72457 0.30979 0.0
O294 O 0.5958 0.7772 0.28284 0.0
O295 O 0.85669 0.73741 0.31616 0.0
O296 O 0.04087 0.73393 0.3408 0.0
O297 O 0.85598 0.82942 0.29602 0.0
C298 C 0.97983 0.74711 0.24421 0.0
C299 C 0.92058 0.74312 0.34014 0.0
Zn300 Zn 0.63914 0.02326 0.30386 0.0
Zn301 Zn 0.97412 0.96099 0.28634 0.0
C302 C 0.63456 0.09803 0.32772 0.0
O303 O 0.62173 0.07971 0.35304 0.0
C304 C 0.90972 0.88781 0.2726 0.0
O305 O 0.95265 0.90135 0.24709 0.0
O306 O 0.44696 0.01159 0.30525 0.0
O307 O 0.73127 0.00337 0.26746 0.0
O308 O 0.89674 0.97423 0.2463 0.0
C309 C 0.38274 0.9867 0.29126 0.0
O310 O 0.44321 0.96329 0.27329 0.0
O311 O 0.64835 0.07991 0.30344 0.0
C312 C 0.23991 0.98579 0.29465 0.0
O313 O 0.18135 0.01216 0.31013 0.0
O314 O 0.1718 0.96041 0.28225 0.0
O315 O 0.91325 0.00039 0.31615 0.0
O316 O 0.72859 0.00328 0.34073 0.0
O317 O 0.91088 0.90851 0.29576 0.0
C318 C 0.78762 0.99106 0.24414 0.0
C319 C 0.84946 -0.00532 0.34016 0.0
Zn320 Zn 0.72339 0.52687 0.53679 0.0
Zn321 Zn 0.38821 0.4639 0.55379 0.0
C322 C 0.66371 0.60014 0.52294 0.0
O323 O 0.70989 0.58653 0.49778 0.0
C324 C 0.3839 0.38915 0.57771 0.0
O325 O 0.36902 0.40749 0.60295 0.0
O326 O 0.92108 0.52718 0.53298 0.0
O327 O 0.66005 0.48738 0.5662 0.0
O328 O 0.47595 0.48393 0.59083 0.0
C329 C 0.9886 0.50127 0.54487 0.0
O330 O 0.92938 0.4744 0.55972 0.0
O331 O 0.6609 0.5794 0.5461 0.0
C332 C 0.13154 0.50045 0.54166 0.0
O333 O 0.19256 0.52473 0.52449 0.0
O334 O 0.19548 0.47498 0.55508 0.0
O335 O 0.48016 0.48435 0.51734 0.0
O336 O 0.64612 0.51403 0.49666 0.0
O337 O 0.39901 0.40728 0.55344 0.0
C338 C 0.59626 0.49309 0.59018 0.0
C339 C 0.5372 0.49711 0.49421 0.0
Zn340 Zn 0.54302 0.711 0.53639 0.0
Zn341 Zn 0.87799 0.77327 0.55386 0.0
C342 C 0.60743 0.63781 0.52267 0.0
O343 O 0.5646 0.65133 0.49715 0.0
C344 C 0.88265 0.84803 0.57774 0.0
O345 O 0.8956 0.8297 0.60306 0.0
O346 O 0.34534 0.71041 0.53231 0.0
O347 O 0.604 0.75041 0.56616 0.0
O348 O 0.78861 0.75329 0.59075 0.0
C349 C 0.27725 0.73582 0.54468 0.0
O350 O 0.33584 0.76222 0.56013 0.0
O351 O 0.60624 0.65851 0.54582 0.0
C352 C 0.13441 0.73672 0.5413 0.0
O353 O 0.07392 0.71326 0.52336 0.0
O354 O 0.0702 0.76163 0.55526 0.0
O355 O 0.78586 0.75338 0.51745 0.0
O356 O 0.62031 0.72422 0.49633 0.0
O357 O 0.86876 0.82991 0.55346 0.0
C358 C 0.66773 0.7447 0.59019 0.0
C359 C 0.72941 0.74107 0.49414 0.0
Zn360 Zn 0.7236 0.71153 0.67216 0.0
Zn361 Zn 0.38836 0.7745 0.65511 0.0
C362 C 0.66365 0.63827 0.68603 0.0
O363 O 0.70974 0.65188 0.7112 0.0
C364 C 0.38379 0.84924 0.63122 0.0
O365 O 0.36881 0.8309 0.60598 0.0
O366 O 0.92128 0.71121 0.67601 0.0
O367 O 0.66038 0.75101 0.64272 0.0
O368 O 0.47619 0.75447 0.61808 0.0
C369 C 0.98883 0.73708 0.66407 0.0
O370 O 0.92964 0.7639 0.64915 0.0
O371 O 0.66103 0.659 0.66286 0.0
C372 C 0.13176 0.73792 0.66729 0.0
O373 O 0.19277 0.71371 0.68453 0.0
O374 O 0.19568 0.76335 0.65382 0.0
O375 O 0.48034 0.75405 0.69154 0.0
O376 O 0.64626 0.7244 0.71226 0.0
O377 O 0.39904 0.83112 0.65548 0.0
C378 C 0.59649 0.7453 0.61874 0.0
C379 C 0.53732 0.74131 0.71468 0.0
Zn380 Zn 0.54287 0.52743 0.67256 0.0
Zn381 Zn 0.87786 0.46516 0.65504 0.0
C382 C 0.60731 0.60061 0.68629 0.0
O383 O 0.56441 0.58708 0.7118 0.0
C384 C 0.88245 0.39039 0.63119 0.0
O385 O 0.89522 0.40871 0.60586 0.0
O386 O 0.3452 0.52801 0.67666 0.0
O387 O 0.60375 0.48803 0.64275 0.0
O388 O 0.78839 0.48513 0.61816 0.0
C389 C 0.27708 0.50264 0.66425 0.0
O390 O 0.33564 0.47628 0.64875 0.0
O391 O 0.60611 0.57992 0.66313 0.0
C392 C 0.13426 0.50172 0.66764 0.0
O393 O 0.0738 0.52512 0.68563 0.0
O394 O 0.07003 0.47684 0.65365 0.0
O395 O 0.7857 0.48506 0.69143 0.0
O396 O 0.62028 0.5142 0.7126 0.0
O397 O 0.8687 0.40851 0.65546 0.0
C398 C 0.66753 0.49374 0.61874 0.0
C399 C 0.72939 0.49737 0.71475 0.0
Zn400 Zn 0.62887 0.52455 0.4051 0.0
Zn401 Zn 0.29367 0.46156 0.42209 0.0
C402 C 0.63306 0.59929 0.38118 0.0
O403 O 0.64789 0.58095 0.35594 0.0
C404 C 0.35351 0.38829 0.43595 0.0
O405 O 0.30738 0.40189 0.46112 0.0
O406 O 0.82162 0.51347 0.40383 0.0
O407 O 0.53675 0.50406 0.44152 0.0
O408 O 0.37085 0.4744 0.46223 0.0
C409 C 0.88554 0.48798 0.41722 0.0
O410 O 0.8245 0.46365 0.43435 0.0
O411 O 0.61804 0.58116 0.40546 0.0
C412 C 0.02849 0.48717 0.41403 0.0
O413 O 0.08772 0.51407 0.39921 0.0
O414 O 0.09599 0.46123 0.42589 0.0
O415 O 0.35708 0.50105 0.39269 0.0
O416 O 0.54118 0.50452 0.36805 0.0
O417 O 0.35623 0.40903 0.41279 0.0
C418 C 0.47977 0.49131 0.46466 0.0
C419 C 0.42088 0.49534 0.3687 0.0
Zn420 Zn 0.13908 0.21517 0.40502 0.0
Zn421 Zn 0.47407 0.27743 0.4225 0.0
C422 C 0.13431 0.1404 0.38115 0.0
O423 O 0.12129 0.15873 0.35583 0.0
C424 C 0.40979 0.35062 0.43621 0.0
O425 O 0.45268 0.33709 0.46173 0.0
O426 O 0.94689 0.22682 0.40361 0.0
O427 O 0.2312 0.23506 0.44143 0.0
O428 O 0.39673 0.26422 0.46256 0.0
C429 C 0.88267 0.2517 0.41759 0.0
O430 O 0.94314 0.27512 0.43557 0.0
O431 O 0.14829 0.15853 0.40542 0.0
C432 C 0.73984 0.25261 0.4142 0.0
O433 O 0.68126 0.22624 0.39872 0.0
O434 O 0.67174 0.278 0.42659 0.0
O435 O 0.4131 0.23802 0.39272 0.0
O436 O 0.2285 0.23514 0.36814 0.0
O437 O 0.41089 0.32992 0.41306 0.0
C438 C 0.28764 0.24737 0.46474 0.0
C439 C 0.34938 0.24373 0.3687 0.0
Zn440 Zn 0.62878 0.21392 0.30378 0.0
Zn441 Zn 0.29353 0.27688 0.28673 0.0
C442 C 0.63347 0.13918 0.32767 0.0
O443 O 0.64854 0.15752 0.3529 0.0
C444 C 0.35339 0.35015 0.27286 0.0
O445 O 0.30727 0.33654 0.24769 0.0
O446 O 0.82145 0.22508 0.30508 0.0
O447 O 0.53682 0.23437 0.26735 0.0
O448 O 0.3709 0.26402 0.24663 0.0
C449 C 0.88538 0.25049 0.29159 0.0
O450 O 0.82438 0.27468 0.27432 0.0
O451 O 0.61811 0.1573 0.30341 0.0
C452 C 0.0283 0.25134 0.29482 0.0
O453 O 0.08748 0.22454 0.30976 0.0
O454 O 0.09585 0.2772 0.28286 0.0
O455 O 0.35675 0.23741 0.31617 0.0
O456 O 0.54093 0.23394 0.34081 0.0
O457 O 0.35606 0.32942 0.29602 0.0
C458 C 0.47984 0.24712 0.24421 0.0
C459 C 0.42063 0.24312 0.34014 0.0
Zn460 Zn 0.13928 0.52325 0.30384 0.0
Zn461 Zn 0.47425 0.46098 0.28633 0.0
C462 C 0.13481 0.59803 0.3277 0.0
O463 O 0.12214 0.57971 0.35304 0.0
C464 C 0.40973 0.38781 0.2726 0.0
O465 O 0.45259 0.40134 0.24708 0.0
O466 O 0.9471 0.51158 0.30523 0.0
O467 O 0.23146 0.50335 0.26746 0.0
O468 O 0.39689 0.47422 0.24628 0.0
C469 C 0.88288 0.48669 0.29125 0.0
O470 O 0.94335 0.46327 0.27328 0.0
O471 O 0.14846 0.5799 0.30343 0.0
C472 C 0.74005 0.48578 0.29463 0.0
O473 O 0.68149 0.51215 0.31011 0.0
O474 O 0.67193 0.46039 0.28224 0.0
O475 O 0.4134 0.50038 0.31614 0.0
O476 O 0.22874 0.50328 0.34072 0.0
O477 O 0.41098 0.4085 0.29575 0.0
C478 C 0.28777 0.49105 0.24413 0.0
C479 C 0.34961 0.49468 0.34015 0.0
Zn480 Zn 0.72342 0.02687 0.0368 0.0
Zn481 Zn 0.3882 0.96391 0.0538 0.0
C482 C 0.6637 0.10015 0.02293 0.0
O483 O 0.70985 0.08653 -0.00224 0.0
C484 C 0.38387 0.88917 0.07771 0.0
O485 O 0.36898 0.9075 0.10295 0.0
O486 O 0.92111 0.02719 0.03296 0.0
O487 O 0.66013 0.98738 0.0662 0.0
O488 O 0.47602 0.98394 0.09083 0.0
C489 C 0.98864 0.00128 0.04486 0.0
O490 O 0.92943 0.97443 0.05974 0.0
O491 O 0.66093 0.07941 0.04609 0.0
C492 C 0.13157 0.00046 0.04165 0.0
O493 O 0.19259 0.02471 0.02445 0.0
O494 O 0.1955 0.97501 0.0551 0.0
O495 O 0.47992 0.98432 0.01733 0.0
O496 O 0.64606 0.01401 -0.00329 0.0
O497 O 0.39898 0.90729 0.05344 0.0
C498 C 0.59633 0.9931 0.09018 0.0
C499 C 0.53713 -0.00289 -0.00577 0.0
Zn500 Zn 0.54303 0.211 0.03638 0.0
Zn501 Zn 0.878 0.27325 0.05387 0.0
C502 C 0.60743 0.13781 0.02266 0.0
O503 O 0.56458 0.15134 -0.00286 0.0
C504 C 0.88268 0.34802 0.07774 0.0
O505 O 0.89564 0.32968 0.10306 0.0
O506 O 0.34535 0.21041 0.0323 0.0
O507 O 0.60399 0.25041 0.06616 0.0
O508 O 0.7886 0.25328 0.09075 0.0
C509 C 0.27725 0.23581 0.04468 0.0
O510 O 0.33583 0.2622 0.06014 0.0
O511 O 0.60625 0.15851 0.04581 0.0
C512 C 0.13442 0.23671 0.0413 0.0
O513 O 0.07394 0.21327 0.02334 0.0
O514 O 0.0702 0.26161 0.05526 0.0
O515 O 0.78587 0.25338 0.01745 0.0
O516 O 0.62032 0.22422 -0.00368 0.0
O517 O 0.86878 0.3299 0.05347 0.0
C518 C 0.66772 0.24469 0.09019 0.0
C519 C 0.72942 0.24106 -0.00586 0.0
Zn520 Zn 0.72359 0.21153 0.17215 0.0
Zn521 Zn 0.38836 0.27451 0.15511 0.0
C522 C 0.66363 0.13827 0.18603 0.0
O523 O 0.70969 0.15188 0.2112 0.0
C524 C 0.38373 0.34925 0.13122 0.0
O525 O 0.3687 0.33091 0.10599 0.0
O526 O 0.92128 0.21121 0.176 0.0
O527 O 0.66037 0.25101 0.14272 0.0
O528 O 0.47618 0.25448 0.11808 0.0
C529 C 0.98882 0.23709 0.16407 0.0
O530 O 0.92963 0.26391 0.14915 0.0
O531 O 0.66104 0.159 0.16286 0.0
C532 C 0.13176 0.23793 0.16729 0.0
O533 O 0.19277 0.21371 0.18452 0.0
O534 O 0.19568 0.26336 0.15382 0.0
O535 O 0.48031 0.25406 0.19154 0.0
O536 O 0.64624 0.22441 0.21225 0.0
O537 O 0.39904 0.33113 0.15549 0.0
C538 C 0.59647 0.2453 0.11874 0.0
C539 C 0.53731 0.24131 0.21468 0.0
Zn540 Zn 0.54291 0.02743 0.17255 0.0
Zn541 Zn 0.8779 0.96515 0.15504 0.0
C542 C 0.60729 0.10061 0.18628 0.0
O543 O 0.56437 0.08708 0.21179 0.0
C544 C 0.88251 0.89038 0.13118 0.0
O545 O 0.89534 0.9087 0.10586 0.0
O546 O 0.34523 0.02801 0.17664 0.0
O547 O 0.60381 0.98803 0.14275 0.0
O548 O 0.78845 0.98512 0.11816 0.0
C549 C 0.27713 0.00262 0.16424 0.0
O550 O 0.33569 0.97625 0.14876 0.0
O551 O 0.60614 0.07991 0.16312 0.0
C552 C 0.1343 0.00171 0.16763 0.0
O553 O 0.07383 0.02512 0.18561 0.0
O554 O 0.07008 0.97682 0.15365 0.0
O555 O 0.78576 0.98505 0.19143 0.0
O556 O 0.6203 0.0142 0.21259 0.0
O557 O 0.86871 0.9085 0.15546 0.0
C558 C 0.6676 0.99374 0.11874 0.0
C559 C 0.72941 -0.00264 0.21475 0.0
Zn560 Zn 0.62887 0.02453 0.90509 0.0
Zn561 Zn 0.29366 0.96156 0.92208 0.0
C562 C 0.63309 0.09927 0.88118 0.0
O563 O 0.64791 0.08094 0.85594 0.0
C564 C 0.35352 0.88828 0.93596 0.0
O565 O 0.30742 0.9019 0.96113 0.0
O566 O 0.82159 0.01344 0.90381 0.0
O567 O 0.53715 0.00412 0.94157 0.0
O568 O 0.37099 0.97443 0.96218 0.0
C569 C 0.88551 0.98797 0.91723 0.0
O570 O 0.82446 0.96367 0.93439 0.0
O571 O 0.61806 0.08114 0.90545 0.0
C572 C 0.02845 0.98715 0.91403 0.0
O573 O 0.08767 0.01403 0.89919 0.0
O574 O 0.09597 0.96123 0.92591 0.0
O575 O 0.35697 0.00105 0.89269 0.0
O576 O 0.54109 0.00448 0.86806 0.0
O577 O 0.3562 0.90902 0.9128 0.0
C578 C 0.47991 0.99134 0.96467 0.0
C579 C 0.42078 -0.00468 0.86871 0.0
Zn580 Zn 0.13909 0.71519 0.90502 0.0
Zn581 Zn 0.47406 0.77743 0.92251 0.0
C582 C 0.13429 0.64042 0.88115 0.0
O583 O 0.12126 0.65875 0.85582 0.0
C584 C 0.40979 0.85062 0.93622 0.0
O585 O 0.4527 0.83709 0.96174 0.0
O586 O 0.9469 0.72684 0.90361 0.0
O587 O 0.23117 0.73506 0.94144 0.0
O588 O 0.39672 0.76421 0.96257 0.0
C589 C 0.88267 0.75171 0.9176 0.0
O590 O 0.94313 0.77511 0.9356 0.0
O591 O 0.14827 0.65854 0.90542 0.0
C592 C 0.73984 0.75263 0.9142 0.0
O593 O 0.68128 0.72627 0.89871 0.0
O594 O 0.67173 0.778 0.92661 0.0
O595 O 0.41313 0.73802 0.89272 0.0
O596 O 0.22853 0.73515 0.86814 0.0
O597 O 0.41089 0.82991 0.91307 0.0
C598 C 0.28762 0.74737 0.96475 0.0
C599 C 0.34941 0.74373 0.8687 0.0
Zn600 Zn 0.62878 0.71391 0.80378 0.0
Zn601 Zn 0.29354 0.77688 0.78673 0.0
C602 C 0.63353 0.63917 0.82767 0.0
O603 O 0.64866 0.65751 0.85289 0.0
C604 C 0.35341 0.85015 0.77286 0.0
O605 O 0.30732 0.83654 0.74769 0.0
O606 O 0.82145 0.72506 0.80507 0.0
O607 O 0.53681 0.73436 0.76735 0.0
O608 O 0.37091 0.76402 0.74663 0.0
C609 C 0.88538 0.75048 0.79159 0.0
O610 O 0.82438 0.77468 0.77434 0.0
O611 O 0.61811 0.65729 0.8034 0.0
C612 C 0.02831 0.75133 0.79482 0.0
O613 O 0.0875 0.72453 0.80976 0.0
O614 O 0.09585 0.7772 0.78287 0.0
O615 O 0.35677 0.7374 0.81617 0.0
O616 O 0.54095 0.73393 0.84081 0.0
O617 O 0.35606 0.82942 0.79603 0.0
C618 C 0.47984 0.74711 0.74421 0.0
C619 C 0.42066 0.74312 0.84014 0.0
Zn620 Zn 0.13924 0.02327 0.80384 0.0
Zn621 Zn 0.47422 0.96099 0.78634 0.0
C622 C 0.13474 0.09804 0.8277 0.0
O623 O 0.12202 0.07972 0.85304 0.0
C624 C 0.40974 0.88781 0.77261 0.0
O625 O 0.45264 0.90134 0.7471 0.0
O626 O 0.94705 0.0116 0.80523 0.0
O627 O 0.2314 0.00337 0.76745 0.0
O628 O 0.39686 0.97422 0.7463 0.0
C629 C 0.88284 0.9867 0.79126 0.0
O630 O 0.94332 0.96326 0.7733 0.0
O631 O 0.14845 0.07991 0.80343 0.0
C632 C 0.74 0.9858 0.79464 0.0
O633 O 0.68143 0.01218 0.81011 0.0
O634 O 0.6719 0.9604 0.78226 0.0
O635 O 0.41333 0.00039 0.81614 0.0
O636 O 0.22867 0.00329 0.84072 0.0
O637 O 0.41095 0.9085 0.79576 0.0
C638 C 0.28775 0.99106 0.74414 0.0
C639 C 0.34953 -0.00532 0.84015 0.0
loop_
_geom_bond_atom_site_label_1
_geom_bond_atom_site_label_2
_geom_bond_distance
_geom_bond_site_symmetry_2
_ccdc_geom_bond_type
Zn0 O6 1.969 . S
Zn0 O7 1.965 . S
Zn0 O11 2.024 . S
Zn0 O16 1.969 . S
Zn1 O8 1.969 . S
Zn1 O14 1.969 . S
Zn1 O15 1.965 . S
Zn1 O17 2.024 . S
C2 O3 1.229 . S
C2 O11 1.058 . S
O3 C2 1.229 . S
C4 O5 1.229 . S
C4 O17 1.058 . S
O5 C4 1.229 . S
O6 Zn0 1.969 . S
O6 C9 1.267 . S
O7 Zn0 1.965 . S
O7 C18 1.260 . S
O8 Zn1 1.969 . S
O8 C18 1.258 1_655 S
C9 O6 1.267 . S
C9 O10 1.228 . S
O10 C9 1.228 . S
O11 Zn0 2.024 . S
O11 C2 1.058 . S
C12 O13 1.228 . S
C12 O14 1.267 . S
O13 C12 1.228 . S
O14 Zn1 1.969 . S
O14 C12 1.267 . S
O15 Zn1 1.965 . S
O15 C19 1.263 . S
O16 Zn0 1.969 . S
O16 C19 1.253 1_455 S
O17 Zn1 2.024 . S
O17 C4 1.058 . S
C18 O7 1.260 . S
C18 O8 1.258 1_455 S
C19 O15 1.263 . S
C19 O16 1.253 1_655 S
Zn20 O26 1.969 1_455 S
Zn20 O27 1.965 . S
Zn20 O31 2.024 . S
Zn20 O36 1.969 . S
Zn21 O28 1.969 . S
Zn21 O34 1.969 . S
Zn21 O35 1.965 . S
Zn21 O37 2.024 . S
C22 O23 1.229 1_455 S
C22 O31 1.058 . S
O23 C22 1.229 1_655 S
C24 O25 1.229 . S
C24 O37 1.058 . S
O25 C24 1.229 . S
O26 Zn20 1.969 1_655 S
O26 C29 1.267 . S
O27 Zn20 1.965 . S
O27 C38 1.260 . S
O28 Zn21 1.969 . S
O28 C38 1.258 . S
C29 O26 1.267 . S
C29 O30 1.228 . S
O30 C29 1.228 . S
O31 Zn20 2.024 . S
O31 C22 1.058 . S
C32 O33 1.228 . S
C32 O34 1.267 . S
O33 C32 1.228 . S
O34 Zn21 1.969 . S
O34 C32 1.267 . S
O35 Zn21 1.965 . S
O35 C39 1.260 . S
O36 Zn20 1.969 . S
O36 C39 1.258 . S
O37 Zn21 2.024 . S
O37 C24 1.058 . S
C38 O27 1.260 . S
C38 O28 1.258 . S
C39 O35 1.260 . S
C39 O36 1.258 . S
Zn40 O46 1.969 . S
Zn40 O47 1.965 . S
Zn40 O51 2.024 . S
Zn40 O56 1.969 . S
Zn41 O48 1.969 . S
Zn41 O54 1.969 . S
Zn41 O55 1.965 . S
Zn41 O57 2.024 . S
C42 O43 1.229 . S
C42 O51 1.058 . S
O43 C42 1.229 . S
C44 O45 1.229 . S
C44 O57 1.058 . S
O45 C44 1.229 . S
O46 Zn40 1.969 . S
O46 C49 1.267 . S
O47 Zn40 1.965 . S
O47 C58 1.260 . S
O48 Zn41 1.969 . S
O48 C58 1.258 1_655 S
C49 O46 1.267 . S
C49 O50 1.228 . S
O50 C49 1.228 . S
O51 Zn40 2.024 . S
O51 C42 1.058 . S
C52 O53 1.228 . S
C52 O54 1.267 . S
O53 C52 1.228 . S
O54 Zn41 1.969 . S
O54 C52 1.267 . S
O55 Zn41 1.965 . S
O55 C59 1.263 . S
O56 Zn40 1.969 . S
O56 C59 1.253 1_455 S
O57 Zn41 2.024 . S
O57 C44 1.058 . S
C58 O47 1.260 . S
C58 O48 1.258 1_455 S
C59 O55 1.263 . S
C59 O56 1.253 1_655 S
Zn60 O66 1.969 1_455 S
Zn60 O67 1.965 . S
Zn60 O71 2.024 . S
Zn60 O76 1.969 . S
Zn61 O68 1.969 . S
Zn61 O74 1.969 . S
Zn61 O75 1.965 . S
Zn61 O77 2.024 . S
C62 O63 1.229 1_455 S
C62 O71 1.058 . S
O63 C62 1.229 1_655 S
C64 O65 1.229 . S
C64 O77 1.058 . S
O65 C64 1.229 . S
O66 Zn60 1.969 1_655 S
O66 C69 1.267 . S
O67 Zn60 1.965 . S
O67 C78 1.260 . S
O68 Zn61 1.969 . S
O68 C78 1.258 . S
C69 O66 1.267 . S
C69 O70 1.228 . S
O70 C69 1.228 . S
O71 Zn60 2.024 . S
O71 C62 1.058 . S
C72 O73 1.228 . S
C72 O74 1.267 . S
O73 C72 1.228 . S
O74 Zn61 1.969 . S
O74 C72 1.267 . S
O75 Zn61 1.965 . S
O75 C79 1.260 . S
O76 Zn60 1.969 . S
O76 C79 1.258 . S
O77 Zn61 2.024 . S
O77 C64 1.058 . S
C78 O67 1.260 . S
C78 O68 1.258 . S
C79 O75 1.260 . S
C79 O76 1.258 . S
Zn80 O86 1.969 . S
Zn80 O87 1.965 . S
Zn80 O91 2.024 . S
Zn80 O96 1.969 . S
Zn81 O88 1.969 . S
Zn81 O94 1.969 . S
Zn81 O95 1.965 . S
Zn81 O97 2.024 . S
C82 O83 1.229 . S
C82 O91 1.058 . S
O83 C82 1.229 . S
C84 O85 1.229 . S
C84 O97 1.058 . S
O85 C84 1.229 . S
O86 Zn80 1.969 . S
O86 C89 1.267 . S
O87 Zn80 1.965 . S
O87 C98 1.263 . S
O88 Zn81 1.969 . S
O88 C98 1.253 1_655 S
C89 O86 1.267 . S
C89 O90 1.228 . S
O90 C89 1.228 . S
O91 Zn80 2.024 . S
O91 C82 1.058 . S
C92 O93 1.228 . S
C92 O94 1.267 . S
O93 C92 1.228 . S
O94 Zn81 1.969 . S
O94 C92 1.267 . S
O95 Zn81 1.965 . S
O95 C99 1.260 . S
O96 Zn80 1.969 . S
O96 C99 1.258 1_455 S
O97 Zn81 2.024 . S
O97 C84 1.058 . S
C98 O87 1.263 . S
C98 O88 1.253 1_455 S
C99 O95 1.260 . S
C99 O96 1.258 1_655 S
Zn100 O106 1.969 . S
Zn100 O107 1.965 . S
Zn100 O111 2.024 . S
Zn100 O116 1.969 . S
Zn101 O108 1.969 . S
Zn101 O114 1.969 1_655 S
Zn101 O115 1.965 . S
Zn101 O117 2.024 . S
C102 O103 1.229 . S
C102 O111 1.058 . S
O103 C102 1.229 . S
C104 O105 1.229 1_655 S
C104 O117 1.058 . S
O105 C104 1.229 1_455 S
O106 Zn100 1.969 . S
O106 C109 1.267 . S
O107 Zn100 1.965 . S
O107 C118 1.260 . S
O108 Zn101 1.969 . S
O108 C118 1.258 . S
C109 O106 1.267 . S
C109 O110 1.228 . S
O110 C109 1.228 . S
O111 Zn100 2.024 . S
O111 C102 1.058 . S
C112 O113 1.228 . S
C112 O114 1.267 . S
O113 C112 1.228 . S
O114 Zn101 1.969 1_455 S
O114 C112 1.267 . S
O115 Zn101 1.965 . S
O115 C119 1.260 . S
O116 Zn100 1.969 . S
O116 C119 1.258 . S
O117 Zn101 2.024 . S
O117 C104 1.058 . S
C118 O107 1.260 . S
C118 O108 1.258 . S
C119 O115 1.260 . S
C119 O116 1.258 . S
Zn120 O126 1.969 . S
Zn120 O127 1.965 . S
Zn120 O131 2.024 . S
Zn120 O136 1.969 . S
Zn121 O128 1.969 . S
Zn121 O134 1.969 . S
Zn121 O135 1.965 . S
Zn121 O137 2.024 . S
C122 O123 1.229 . S
C122 O131 1.058 . S
O123 C122 1.229 . S
C124 O125 1.229 . S
C124 O137 1.058 . S
O125 C124 1.229 . S
O126 Zn120 1.969 . S
O126 C129 1.267 . S
O127 Zn120 1.965 . S
O127 C138 1.263 . S
O128 Zn121 1.969 . S
O128 C138 1.253 1_655 S
C129 O126 1.267 . S
C129 O130 1.228 . S
O130 C129 1.228 . S
O131 Zn120 2.024 . S
O131 C122 1.058 . S
C132 O133 1.228 . S
C132 O134 1.267 . S
O133 C132 1.228 . S
O134 Zn121 1.969 . S
O134 C132 1.267 . S
O135 Zn121 1.965 . S
O135 C139 1.260 . S
O136 Zn120 1.969 . S
O136 C139 1.258 1_455 S
O137 Zn121 2.024 . S
O137 C124 1.058 . S
C138 O127 1.263 . S
C138 O128 1.253 1_455 S
C139 O135 1.260 . S
C139 O136 1.258 1_655 S
Zn140 O146 1.969 . S
Zn140 O147 1.965 . S
Zn140 O151 2.024 . S
Zn140 O156 1.969 . S
Zn141 O148 1.969 . S
Zn141 O154 1.969 1_655 S
Zn141 O155 1.965 . S
Zn141 O157 2.024 . S
C142 O143 1.229 . S
C142 O151 1.058 . S
O143 C142 1.229 . S
C144 O145 1.229 1_655 S
C144 O157 1.058 . S
O145 C144 1.229 1_455 S
O146 Zn140 1.969 . S
O146 C149 1.267 . S
O147 Zn140 1.965 . S
O147 C158 1.260 . S
O148 Zn141 1.969 . S
O148 C158 1.258 . S
C149 O146 1.267 . S
C149 O150 1.228 . S
O150 C149 1.228 . S
O151 Zn140 2.024 . S
O151 C142 1.058 . S
C152 O153 1.228 . S
C152 O154 1.267 . S
O153 C152 1.228 . S
O154 Zn141 1.969 1_455 S
O154 C152 1.267 . S
O155 Zn141 1.965 . S
O155 C159 1.260 . S
O156 Zn140 1.969 . S
O156 C159 1.258 . S
O157 Zn141 2.024 . S
O157 C144 1.058 . S
C158 O147 1.260 . S
C158 O148 1.258 . S
C159 O155 1.260 . S
C159 O156 1.258 . S
Zn160 O166 1.969 . S
Zn160 O167 1.965 1_545 S
Zn160 O171 2.024 . S
Zn160 O176 1.969 . S
Zn161 O168 1.969 . S
Zn161 O174 1.969 . S
Zn161 O175 1.965 1_565 S
Zn161 O177 2.024 . S
C162 O163 1.229 . S
C162 O171 1.058 . S
O163 C162 1.229 . S
C164 O165 1.229 . S
C164 O177 1.058 . S
O165 C164 1.229 . S
O166 Zn160 1.969 . S
O166 C169 1.267 . S
O167 Zn160 1.965 1_565 S
O167 C178 1.260 . S
O168 Zn161 1.969 . S
O168 C178 1.258 1_655 S
C169 O166 1.267 . S
C169 O170 1.228 . S
O170 C169 1.228 . S
O171 Zn160 2.024 . S
O171 C162 1.058 . S
C172 O173 1.228 . S
C172 O174 1.267 . S
O173 C172 1.228 . S
O174 Zn161 1.969 . S
O174 C172 1.267 . S
O175 Zn161 1.965 1_545 S
O175 C179 1.263 . S
O176 Zn160 1.969 . S
O176 C179 1.253 1_455 S
O177 Zn161 2.024 . S
O177 C164 1.058 . S
C178 O167 1.260 . S
C178 O168 1.258 1_455 S
C179 O175 1.263 . S
C179 O176 1.253 1_655 S
Zn180 O186 1.969 1_455 S
Zn180 O187 1.965 . S
Zn180 O191 2.024 . S
Zn180 O196 1.969 . S
Zn181 O188 1.969 . S
Zn181 O194 1.969 . S
Zn181 O195 1.965 . S
Zn181 O197 2.024 . S
C182 O183 1.229 1_455 S
C182 O191 1.058 . S
O183 C182 1.229 1_655 S
C184 O185 1.229 . S
C184 O197 1.058 . S
O185 C184 1.229 . S
O186 Zn180 1.969 1_655 S
O186 C189 1.267 . S
O187 Zn180 1.965 . S
O187 C198 1.260 . S
O188 Zn181 1.969 . S
O188 C198 1.258 . S
C189 O186 1.267 . S
C189 O190 1.228 . S
O190 C189 1.228 . S
O191 Zn180 2.024 . S
O191 C182 1.058 . S
C192 O193 1.228 . S
C192 O194 1.267 . S
O193 C192 1.228 . S
O194 Zn181 1.969 . S
O194 C192 1.267 . S
O195 Zn181 1.965 . S
O195 C199 1.260 . S
O196 Zn180 1.969 . S
O196 C199 1.258 . S
O197 Zn181 2.024 . S
O197 C184 1.058 . S
C198 O187 1.260 . S
C198 O188 1.258 . S
C199 O195 1.260 . S
C199 O196 1.258 . S
Zn200 O206 1.969 . S
Zn200 O207 1.965 . S
Zn200 O211 2.024 . S
Zn200 O216 1.969 . S
Zn201 O208 1.969 . S
Zn201 O214 1.969 . S
Zn201 O215 1.965 . S
Zn201 O217 2.024 . S
C202 O203 1.229 . S
C202 O211 1.058 . S
O203 C202 1.229 . S
C204 O205 1.229 . S
C204 O217 1.058 . S
O205 C204 1.229 . S
O206 Zn200 1.969 . S
O206 C209 1.267 . S
O207 Zn200 1.965 . S
O207 C218 1.260 . S
O208 Zn201 1.969 . S
O208 C218 1.258 1_655 S
C209 O206 1.267 . S
C209 O210 1.228 . S
O210 C209 1.228 . S
O211 Zn200 2.024 . S
O211 C202 1.058 . S
C212 O213 1.228 . S
C212 O214 1.267 . S
O213 C212 1.228 . S
O214 Zn201 1.969 . S
O214 C212 1.267 . S
O215 Zn201 1.965 . S
O215 C219 1.263 . S
O216 Zn200 1.969 . S
O216 C219 1.253 1_455 S
O217 Zn201 2.024 . S
O217 C204 1.058 . S
C218 O207 1.260 . S
C218 O208 1.258 1_455 S
C219 O215 1.263 . S
C219 O216 1.253 1_655 S
Zn220 O226 1.969 1_455 S
Zn220 O227 1.965 1_545 S
Zn220 O231 2.024 . S
Zn220 O236 1.969 . S
Zn221 O228 1.969 . S
Zn221 O234 1.969 . S
Zn221 O235 1.965 1_565 S
Zn221 O237 2.024 . S
C222 O223 1.229 1_455 S
C222 O231 1.058 . S
O223 C222 1.229 1_655 S
C224 O225 1.229 . S
C224 O237 1.058 . S
O225 C224 1.229 . S
O226 Zn220 1.969 1_655 S
O226 C229 1.267 . S
O227 Zn220 1.965 1_565 S
O227 C238 1.260 . S
O228 Zn221 1.969 . S
O228 C238 1.258 . S
C229 O226 1.267 . S
C229 O230 1.228 . S
O230 C229 1.228 . S
O231 Zn220 2.024 . S
O231 C222 1.058 . S
C232 O233 1.228 . S
C232 O234 1.267 . S
O233 C232 1.228 . S
O234 Zn221 1.969 . S
O234 C232 1.267 . S
O235 Zn221 1.965 1_545 S
O235 C239 1.260 . S
O236 Zn220 1.969 . S
O236 C239 1.258 . S
O237 Zn221 2.024 . S
O237 C224 1.058 . S
C238 O227 1.260 . S
C238 O228 1.258 . S
C239 O235 1.260 . S
C239 O236 1.258 . S
Zn240 O246 1.969 . S
Zn240 O247 1.965 1_545 S
Zn240 O251 2.024 . S
Zn240 O256 1.969 . S
Zn241 O248 1.969 . S
Zn241 O254 1.969 . S
Zn241 O255 1.965 1_565 S
Zn241 O257 2.024 . S
C242 O243 1.229 . S
C242 O251 1.058 . S
O243 C242 1.229 . S
C244 O245 1.229 . S
C244 O257 1.058 . S
O245 C244 1.229 . S
O246 Zn240 1.969 . S
O246 C249 1.267 . S
O247 Zn240 1.965 1_565 S
O247 C258 1.263 . S
O248 Zn241 1.969 . S
O248 C258 1.253 1_655 S
C249 O246 1.267 . S
C249 O250 1.228 . S
O250 C249 1.228 . S
O251 Zn240 2.024 . S
O251 C242 1.058 . S
C252 O253 1.228 . S
C252 O254 1.267 . S
O253 C252 1.228 . S
O254 Zn241 1.969 . S
O254 C252 1.267 . S
O255 Zn241 1.965 1_545 S
O255 C259 1.260 . S
O256 Zn240 1.969 . S
O256 C259 1.258 1_455 S
O257 Zn241 2.024 . S
O257 C244 1.058 . S
C258 O247 1.263 . S
C258 O248 1.253 1_455 S
C259 O255 1.260 . S
C259 O256 1.258 1_655 S
Zn260 O266 1.969 . S
Zn260 O267 1.965 . S
Zn260 O271 2.024 . S
Zn260 O276 1.969 . S
Zn261 O268 1.969 . S
Zn261 O274 1.969 1_655 S
Zn261 O275 1.965 . S
Zn261 O277 2.024 . S
C262 O263 1.229 . S
C262 O271 1.058 . S
O263 C262 1.229 . S
C264 O265 1.229 1_655 S
C264 O277 1.058 . S
O265 C264 1.229 1_455 S
O266 Zn260 1.969 . S
O266 C269 1.267 . S
O267 Zn260 1.965 . S
O267 C278 1.260 . S
O268 Zn261 1.969 . S
O268 C278 1.258 . S
C269 O266 1.267 . S
C269 O270 1.228 . S
O270 C269 1.228 . S
O271 Zn260 2.024 . S
O271 C262 1.058 . S
C272 O273 1.228 . S
C272 O274 1.267 . S
O273 C272 1.228 . S
O274 Zn261 1.969 1_455 S
O274 C272 1.267 . S
O275 Zn261 1.965 . S
O275 C279 1.260 . S
O276 Zn260 1.969 . S
O276 C279 1.258 . S
O277 Zn261 2.024 . S
O277 C264 1.058 . S
C278 O267 1.260 . S
C278 O268 1.258 . S
C279 O275 1.260 . S
C279 O276 1.258 . S
Zn280 O286 1.969 . S
Zn280 O287 1.965 . S
Zn280 O291 2.024 . S
Zn280 O296 1.969 . S
Zn281 O288 1.969 . S
Zn281 O294 1.969 . S
Zn281 O295 1.965 . S
Zn281 O297 2.024 . S
C282 O283 1.229 . S
C282 O291 1.058 . S
O283 C282 1.229 . S
C284 O285 1.229 . S
C284 O297 1.058 . S
O285 C284 1.229 . S
O286 Zn280 1.969 . S
O286 C289 1.267 . S
O287 Zn280 1.965 . S
O287 C298 1.263 . S
O288 Zn281 1.969 . S
O288 C298 1.253 1_655 S
C289 O286 1.267 . S
C289 O290 1.228 . S
O290 C289 1.228 . S
O291 Zn280 2.024 . S
O291 C282 1.058 . S
C292 O293 1.228 . S
C292 O294 1.267 . S
O293 C292 1.228 . S
O294 Zn281 1.969 . S
O294 C292 1.267 . S
O295 Zn281 1.965 . S
O295 C299 1.260 . S
O296 Zn280 1.969 . S
O296 C299 1.258 1_455 S
O297 Zn281 2.024 . S
O297 C284 1.058 . S
C298 O287 1.263 . S
C298 O288 1.253 1_455 S
C299 O295 1.260 . S
C299 O296 1.258 1_655 S
Zn300 O306 1.969 . S
Zn300 O307 1.965 1_545 S
Zn300 O311 2.024 . S
Zn300 O316 1.969 . S
Zn301 O308 1.969 . S
Zn301 O314 1.969 1_655 S
Zn301 O315 1.965 1_565 S
Zn301 O317 2.024 . S
C302 O303 1.229 . S
C302 O311 1.058 . S
O303 C302 1.229 . S
C304 O305 1.229 1_655 S
C304 O317 1.058 . S
O305 C304 1.229 1_455 S
O306 Zn300 1.969 . S
O306 C309 1.267 . S
O307 Zn300 1.965 1_565 S
O307 C318 1.260 . S
O308 Zn301 1.969 . S
O308 C318 1.258 . S
C309 O306 1.267 . S
C309 O310 1.228 . S
O310 C309 1.228 . S
O311 Zn300 2.024 . S
O311 C302 1.058 . S
C312 O313 1.228 . S
C312 O314 1.267 . S
O313 C312 1.228 . S
O314 Zn301 1.969 1_455 S
O314 C312 1.267 . S
O315 Zn301 1.965 1_545 S
O315 C319 1.260 . S
O316 Zn300 1.969 . S
O316 C319 1.258 . S
O317 Zn301 2.024 . S
O317 C304 1.058 . S
C318 O307 1.260 . S
C318 O308 1.258 . S
C319 O315 1.260 . S
C319 O316 1.258 . S
Zn320 O326 1.969 . S
Zn320 O327 1.965 . S
Zn320 O331 2.024 . S
Zn320 O336 1.969 . S
Zn321 O328 1.969 . S
Zn321 O334 1.969 . S
Zn321 O335 1.965 . S
Zn321 O337 2.024 . S
C322 O323 1.229 . S
C322 O331 1.058 . S
O323 C322 1.229 . S
C324 O325 1.229 . S
C324 O337 1.058 . S
O325 C324 1.229 . S
O326 Zn320 1.969 . S
O326 C329 1.267 . S
O327 Zn320 1.965 . S
O327 C338 1.260 . S
O328 Zn321 1.969 . S
O328 C338 1.258 . S
C329 O326 1.267 . S
C329 O330 1.228 . S
O330 C329 1.228 . S
O331 Zn320 2.024 . S
O331 C322 1.058 . S
C332 O333 1.228 . S
C332 O334 1.267 . S
O333 C332 1.228 . S
O334 Zn321 1.969 . S
O334 C332 1.267 . S
O335 Zn321 1.965 . S
O335 C339 1.260 . S
O336 Zn320 1.969 . S
O336 C339 1.258 . S
O337 Zn321 2.024 . S
O337 C324 1.058 . S
C338 O327 1.260 . S
C338 O328 1.258 . S
C339 O335 1.260 . S
C339 O336 1.258 . S
Zn340 O346 1.969 . S
Zn340 O347 1.965 . S
Zn340 O351 2.024 . S
Zn340 O356 1.969 . S
Zn341 O348 1.969 . S
Zn341 O354 1.969 1_655 S
Zn341 O355 1.965 . S
Zn341 O357 2.024 . S
C342 O343 1.229 . S
C342 O351 1.058 . S
O343 C342 1.229 . S
C344 O345 1.229 . S
C344 O357 1.058 . S
O345 C344 1.229 . S
O346 Zn340 1.969 . S
O346 C349 1.267 . S
O347 Zn340 1.965 . S
O347 C358 1.260 . S
O348 Zn341 1.969 . S
O348 C358 1.258 . S
C349 O346 1.267 . S
C349 O350 1.228 . S
O350 C349 1.228 . S
O351 Zn340 2.024 . S
O351 C342 1.058 . S
C352 O353 1.228 . S
C352 O354 1.267 . S
O353 C352 1.228 . S
O354 Zn341 1.969 1_455 S
O354 C352 1.267 . S
O355 Zn341 1.965 . S
O355 C359 1.260 . S
O356 Zn340 1.969 . S
O356 C359 1.258 . S
O357 Zn341 2.024 . S
O357 C344 1.058 . S
C358 O347 1.260 . S
C358 O348 1.258 . S
C359 O355 1.260 . S
C359 O356 1.258 . S
Zn360 O366 1.969 . S
Zn360 O367 1.965 . S
Zn360 O371 2.024 . S
Zn360 O376 1.969 . S
Zn361 O368 1.969 . S
Zn361 O374 1.969 . S
Zn361 O375 1.965 . S
Zn361 O377 2.024 . S
C362 O363 1.229 . S
C362 O371 1.058 . S
O363 C362 1.229 . S
C364 O365 1.229 . S
C364 O377 1.058 . S
O365 C364 1.229 . S
O366 Zn360 1.969 . S
O366 C369 1.267 . S
O367 Zn360 1.965 . S
O367 C378 1.260 . S
O368 Zn361 1.969 . S
O368 C378 1.258 . S
C369 O366 1.267 . S
C369 O370 1.228 . S
O370 C369 1.228 . S
O371 Zn360 2.024 . S
O371 C362 1.058 . S
C372 O373 1.228 . S
C372 O374 1.267 . S
O373 C372 1.228 . S
O374 Zn361 1.969 . S
O374 C372 1.267 . S
O375 Zn361 1.965 . S
O375 C379 1.260 . S
O376 Zn360 1.969 . S
O376 C379 1.258 . S
O377 Zn361 2.024 . S
O377 C364 1.058 . S
C378 O367 1.260 . S
C378 O368 1.258 . S
C379 O375 1.260 . S
C379 O376 1.258 . S
Zn380 O386 1.969 . S
Zn380 O387 1.965 . S
Zn380 O391 2.024 . S
Zn380 O396 1.969 . S
Zn381 O388 1.969 . S
Zn381 O394 1.969 1_655 S
Zn381 O395 1.965 . S
Zn381 O397 2.024 . S
C382 O383 1.229 . S
C382 O391 1.058 . S
O383 C382 1.229 . S
C384 O385 1.229 . S
C384 O397 1.058 . S
O385 C384 1.229 . S
O386 Zn380 1.969 . S
O386 C389 1.267 . S
O387 Zn380 1.965 . S
O387 C398 1.260 . S
O388 Zn381 1.969 . S
O388 C398 1.258 . S
C389 O386 1.267 . S
C389 O390 1.228 . S
O390 C389 1.228 . S
O391 Zn380 2.024 . S
O391 C382 1.058 . S
C392 O393 1.228 . S
C392 O394 1.267 . S
O393 C392 1.228 . S
O394 Zn381 1.969 1_455 S
O394 C392 1.267 . S
O395 Zn381 1.965 . S
O395 C399 1.260 . S
O396 Zn380 1.969 . S
O396 C399 1.258 . S
O397 Zn381 2.024 . S
O397 C384 1.058 . S
C398 O387 1.260 . S
C398 O388 1.258 . S
C399 O395 1.260 . S
C399 O396 1.258 . S
Zn400 O406 1.969 . S
Zn400 O407 1.965 . S
Zn400 O411 2.024 . S
Zn400 O416 1.969 . S
Zn401 O408 1.969 . S
Zn401 O414 1.969 . S
Zn401 O415 1.965 . S
Zn401 O417 2.024 . S
C402 O403 1.229 . S
C402 O411 1.058 . S
O403 C402 1.229 . S
C404 O405 1.229 . S
C404 O417 1.058 . S
O405 C404 1.229 . S
O406 Zn400 1.969 . S
O406 C409 1.267 . S
O407 Zn400 1.965 . S
O407 C418 1.260 . S
O408 Zn401 1.969 . S
O408 C418 1.258 . S
C409 O406 1.267 . S
C409 O410 1.228 . S
O410 C409 1.228 . S
O411 Zn400 2.024 . S
O411 C402 1.058 . S
C412 O413 1.228 . S
C412 O414 1.267 . S
O413 C412 1.228 . S
O414 Zn401 1.969 . S
O414 C412 1.267 . S
O415 Zn401 1.965 . S
O415 C419 1.260 . S
O416 Zn400 1.969 . S
O416 C419 1.258 . S
O417 Zn401 2.024 . S
O417 C404 1.058 . S
C418 O407 1.260 . S
C418 O408 1.258 . S
C419 O415 1.260 . S
C419 O416 1.258 . S
Zn420 O426 1.969 1_455 S
Zn420 O427 1.965 . S
Zn420 O431 2.024 . S
Zn420 O436 1.969 . S
Zn421 O428 1.969 . S
Zn421 O434 1.969 . S
Zn421 O435 1.965 . S
Zn421 O437 2.024 . S
C422 O423 1.229 . S
C422 O431 1.058 . S
O423 C422 1.229 . S
C424 O425 1.229 . S
C424 O437 1.058 . S
O425 C424 1.229 . S
O426 Zn420 1.969 1_655 S
O426 C429 1.267 . S
O427 Zn420 1.965 . S
O427 C438 1.260 . S
O428 Zn421 1.969 . S
O428 C438 1.258 . S
C429 O426 1.267 . S
C429 O430 1.228 . S
O430 C429 1.228 . S
O431 Zn420 2.024 . S
O431 C422 1.058 . S
C432 O433 1.228 . S
C432 O434 1.267 . S
O433 C432 1.228 . S
O434 Zn421 1.969 . S
O434 C432 1.267 . S
O435 Zn421 1.965 . S
O435 C439 1.260 . S
O436 Zn420 1.969 . S
O436 C439 1.258 . S
O437 Zn421 2.024 . S
O437 C424 1.058 . S
C438 O427 1.260 . S
C438 O428 1.258 . S
C439 O435 1.260 . S
C439 O436 1.258 . S
Zn440 O446 1.969 . S
Zn440 O447 1.965 . S
Zn440 O451 2.024 . S
Zn440 O456 1.969 . S
Zn441 O448 1.969 . S
Zn441 O454 1.969 . S
Zn441 O455 1.965 . S
Zn441 O457 2.024 . S
C442 O443 1.229 . S
C442 O451 1.058 . S
O443 C442 1.229 . S
C444 O445 1.229 . S
C444 O457 1.058 . S
O445 C444 1.229 . S
O446 Zn440 1.969 . S
O446 C449 1.267 . S
O447 Zn440 1.965 . S
O447 C458 1.260 . S
O448 Zn441 1.969 . S
O448 C458 1.258 . S
C449 O446 1.267 . S
C449 O450 1.228 . S
O450 C449 1.228 . S
O451 Zn440 2.024 . S
O451 C442 1.058 . S
C452 O453 1.228 . S
C452 O454 1.267 . S
O453 C452 1.228 . S
O454 Zn441 1.969 . S
O454 C452 1.267 . S
O455 Zn441 1.965 . S
O455 C459 1.260 . S
O456 Zn440 1.969 . S
O456 C459 1.258 . S
O457 Zn441 2.024 . S
O457 C444 1.058 . S
C458 O447 1.260 . S
C458 O448 1.258 . S
C459 O455 1.260 . S
C459 O456 1.258 . S
Zn460 O466 1.969 1_455 S
Zn460 O467 1.965 . S
Zn460 O471 2.024 . S
Zn460 O476 1.969 . S
Zn461 O468 1.969 . S
Zn461 O474 1.969 . S
Zn461 O475 1.965 . S
Zn461 O477 2.024 . S
C462 O463 1.229 . S
C462 O471 1.058 . S
O463 C462 1.229 . S
C464 O465 1.229 . S
C464 O477 1.058 . S
O465 C464 1.229 . S
O466 Zn460 1.969 1_655 S
O466 C469 1.267 . S
O467 Zn460 1.965 . S
O467 C478 1.260 . S
O468 Zn461 1.969 . S
O468 C478 1.258 . S
C469 O466 1.267 . S
C469 O470 1.228 . S
O470 C469 1.228 . S
O471 Zn460 2.024 . S
O471 C462 1.058 . S
C472 O473 1.228 . S
C472 O474 1.267 . S
O473 C472 1.228 . S
O474 Zn461 1.969 . S
O474 C472 1.267 . S
O475 Zn461 1.965 . S
O475 C479 1.260 . S
O476 Zn460 1.969 . S
O476 C479 1.258 . S
O477 Zn461 2.024 . S
O477 C464 1.058 . S
C478 O467 1.260 . S
C478 O468 1.258 . S
C479 O475 1.260 . S
C479 O476 1.258 . S
Zn480 O486 1.969 . S
Zn480 O487 1.965 1_545 S
Zn480 O491 2.024 . S
Zn480 O496 1.969 . S
Zn481 O488 1.969 . S
Zn481 O494 1.969 . S
Zn481 O495 1.965 1_565 S
Zn481 O497 2.024 . S
C482 O483 1.229 . S
C482 O491 1.058 . S
O483 C482 1.229 . S
C484 O485 1.229 . S
C484 O497 1.058 . S
O485 C484 1.229 . S
O486 Zn480 1.969 . S
O486 C489 1.267 . S
O487 Zn480 1.965 1_565 S
O487 C498 1.260 . S
O488 Zn481 1.969 . S
O488 C498 1.258 . S
C489 O486 1.267 . S
C489 O490 1.228 . S
O490 C489 1.228 . S
O491 Zn480 2.024 . S
O491 C482 1.058 . S
C492 O493 1.228 . S
C492 O494 1.267 . S
O493 C492 1.228 . S
O494 Zn481 1.969 . S
O494 C492 1.267 . S
O495 Zn481 1.965 1_545 S
O495 C499 1.260 . S
O496 Zn480 1.969 . S
O496 C499 1.258 . S
O497 Zn481 2.024 . S
O497 C484 1.058 . S
C498 O487 1.260 . S
C498 O488 1.258 . S
C499 O495 1.260 . S
C499 O496 1.258 . S
Zn500 O506 1.969 . S
Zn500 O507 1.965 . S
Zn500 O511 2.024 . S
Zn500 O516 1.969 . S
Zn501 O508 1.969 . S
Zn501 O514 1.969 1_655 S
Zn501 O515 1.965 . S
Zn501 O517 2.024 . S
C502 O503 1.229 . S
C502 O511 1.058 . S
O503 C502 1.229 . S
C504 O505 1.229 . S
C504 O517 1.058 . S
O505 C504 1.229 . S
O506 Zn500 1.969 . S
O506 C509 1.267 . S
O507 Zn500 1.965 . S
O507 C518 1.260 . S
O508 Zn501 1.969 . S
O508 C518 1.258 . S
C509 O506 1.267 . S
C509 O510 1.228 . S
O510 C509 1.228 . S
O511 Zn500 2.024 . S
O511 C502 1.058 . S
C512 O513 1.228 . S
C512 O514 1.267 . S
O513 C512 1.228 . S
O514 Zn501 1.969 1_455 S
O514 C512 1.267 . S
O515 Zn501 1.965 . S
O515 C519 1.260 . S
O516 Zn500 1.969 . S
O516 C519 1.258 . S
O517 Zn501 2.024 . S
O517 C504 1.058 . S
C518 O507 1.260 . S
C518 O508 1.258 . S
C519 O515 1.260 . S
C519 O516 1.258 . S
Zn520 O526 1.969 . S
Zn520 O527 1.965 . S
Zn520 O531 2.024 . S
Zn520 O536 1.969 . S
Zn521 O528 1.969 . S
Zn521 O534 1.969 . S
Zn521 O535 1.965 . S
Zn521 O537 2.024 . S
C522 O523 1.229 . S
C522 O531 1.058 . S
O523 C522 1.229 . S
C524 O525 1.229 . S
C524 O537 1.058 . S
O525 C524 1.229 . S
O526 Zn520 1.969 . S
O526 C529 1.267 . S
O527 Zn520 1.965 . S
O527 C538 1.260 . S
O528 Zn521 1.969 . S
O528 C538 1.258 . S
C529 O526 1.267 . S
C529 O530 1.228 . S
O530 C529 1.228 . S
O531 Zn520 2.024 . S
O531 C522 1.058 . S
C532 O533 1.228 . S
C532 O534 1.267 . S
O533 C532 1.228 . S
O534 Zn521 1.969 . S
O534 C532 1.267 . S
O535 Zn521 1.965 . S
O535 C539 1.260 . S
O536 Zn520 1.969 . S
O536 C539 1.258 . S
O537 Zn521 2.024 . S
O537 C524 1.058 . S
C538 O527 1.260 . S
C538 O528 1.258 . S
C539 O535 1.260 . S
C539 O536 1.258 . S
Zn540 O546 1.969 . S
Zn540 O547 1.965 1_545 S
Zn540 O551 2.024 . S
Zn540 O556 1.969 . S
Zn541 O548 1.969 . S
Zn541 O554 1.969 1_655 S
Zn541 O555 1.965 1_565 S
Zn541 O557 2.024 . S
C542 O543 1.229 . S
C542 O551 1.058 . S
O543 C542 1.229 . S
C544 O545 1.229 . S
C544 O557 1.058 . S
O545 C544 1.229 . S
O546 Zn540 1.969 . S
O546 C549 1.267 . S
O547 Zn540 1.965 1_565 S
O547 C558 1.260 . S
O548 Zn541 1.969 . S
O548 C558 1.258 . S
C549 O546 1.267 . S
C549 O550 1.228 . S
O550 C549 1.228 . S
O551 Zn540 2.024 . S
O551 C542 1.058 . S
C552 O553 1.228 . S
C552 O554 1.267 . S
O553 C552 1.228 . S
O554 Zn541 1.969 1_455 S
O554 C552 1.267 . S
O555 Zn541 1.965 1_545 S
O555 C559 1.260 . S
O556 Zn540 1.969 . S
O556 C559 1.258 . S
O557 Zn541 2.024 . S
O557 C544 1.058 . S
C558 O547 1.260 . S
C558 O548 1.258 . S
C559 O555 1.260 . S
C559 O556 1.258 . S
Zn560 O566 1.969 . S
Zn560 O567 1.965 1_545 S
Zn560 O571 2.024 . S
Zn560 O576 1.969 . S
Zn561 O568 1.969 . S
Zn561 O574 1.969 . S
Zn561 O575 1.965 1_565 S
Zn561 O577 2.024 . S
C562 O563 1.229 . S
C562 O571 1.058 . S
O563 C562 1.229 . S
C564 O565 1.229 . S
C564 O577 1.058 . S
O565 C564 1.229 . S
O566 Zn560 1.969 . S
O566 C569 1.267 . S
O567 Zn560 1.965 1_565 S
O567 C578 1.260 . S
O568 Zn561 1.969 . S
O568 C578 1.258 . S
C569 O566 1.267 . S
C569 O570 1.228 . S
O570 C569 1.228 . S
O571 Zn560 2.024 . S
O571 C562 1.058 . S
C572 O573 1.228 . S
C572 O574 1.267 . S
O573 C572 1.228 . S
O574 Zn561 1.969 . S
O574 C572 1.267 . S
O575 Zn561 1.965 1_545 S
O575 C579 1.260 . S
O576 Zn560 1.969 . S
O576 C579 1.258 . S
O577 Zn561 2.024 . S
O577 C564 1.058 . S
C578 O567 1.260 . S
C578 O568 1.258 . S
C579 O575 1.260 . S
C579 O576 1.258 . S
Zn580 O586 1.969 1_455 S
Zn580 O587 1.965 . S
Zn580 O591 2.024 . S
Zn580 O596 1.969 . S
Zn581 O588 1.969 . S
Zn581 O594 1.969 . S
Zn581 O595 1.965 . S
Zn581 O597 2.024 . S
C582 O583 1.229 . S
C582 O591 1.058 . S
O583 C582 1.229 . S
C584 O585 1.229 . S
C584 O597 1.058 . S
O585 C584 1.229 . S
O586 Zn580 1.969 1_655 S
O586 C589 1.267 . S
O587 Zn580 1.965 . S
O587 C598 1.260 . S
O588 Zn581 1.969 . S
O588 C598 1.258 . S
C589 O586 1.267 . S
C589 O590 1.228 . S
O590 C589 1.228 . S
O591 Zn580 2.024 . S
O591 C582 1.058 . S
C592 O593 1.228 . S
C592 O594 1.267 . S
O593 C592 1.228 . S
O594 Zn581 1.969 . S
O594 C592 1.267 . S
O595 Zn581 1.965 . S
O595 C599 1.260 . S
O596 Zn580 1.969 . S
O596 C599 1.258 . S
O597 Zn581 2.024 . S
O597 C584 1.058 . S
C598 O587 1.260 . S
C598 O588 1.258 . S
C599 O595 1.260 . S
C599 O596 1.258 . S
Zn600 O606 1.969 . S
Zn600 O607 1.965 . S
Zn600 O611 2.024 . S
Zn600 O616 1.969 . S
Zn601 O608 1.969 . S
Zn601 O614 1.969 . S
Zn601 O615 1.965 . S
Zn601 O617 2.024 . S
C602 O603 1.229 . S
C602 O611 1.058 . S
O603 C602 1.229 . S
C604 O605 1.229 . S
C604 O617 1.058 . S
O605 C604 1.229 . S
O606 Zn600 1.969 . S
O606 C609 1.267 . S
O607 Zn600 1.965 . S
O607 C618 1.260 . S
O608 Zn601 1.969 . S
O608 C618 1.258 . S
C609 O606 1.267 . S
C609 O610 1.228 . S
O610 C609 1.228 . S
O611 Zn600 2.024 . S
O611 C602 1.058 . S
C612 O613 1.228 . S
C612 O614 1.267 . S
O613 C612 1.228 . S
O614 Zn601 1.969 . S
O614 C612 1.267 . S
O615 Zn601 1.965 . S
O615 C619 1.260 . S
O616 Zn600 1.969 . S
O616 C619 1.258 . S
O617 Zn601 2.024 . S
O617 C604 1.058 . S
C618 O607 1.260 . S
C618 O608 1.258 . S
C619 O615 1.260 . S
C619 O616 1.258 . S
Zn620 O626 1.969 1_455 S
Zn620 O627 1.965 1_545 S
Zn620 O631 2.024 . S
Zn620 O636 1.969 . S
Zn621 O628 1.969 . S
Zn621 O634 1.969 . S
Zn621 O635 1.965 1_565 S
Zn621 O637 2.024 . S
C622 O623 1.229 . S
C622 O631 1.058 . S
O623 C622 1.229 . S
C624 O625 1.229 . S
C624 O637 1.058 . S
O625 C624 1.229 . S
O626 Zn620 1.969 1_655 S
O626 C629 1.267 . S
O627 Zn620 1.965 1_565 S
O627 C638 1.260 . S
O628 Zn621 1.969 . S
O628 C638 1.258 . S
C629 O626 1.267 . S
C629 O630 1.228 . S
O630 C629 1.228 . S
O631 Zn620 2.024 . S
O631 C622 1.058 . S
C632 O633 1.228 . S
C632 O634 1.267 . S
O633 C632 1.228 . S
O634 Zn621 1.969 . S
O634 C632 1.267 . S
O635 Zn621 1.965 1_545 S
O635 C639 1.260 . S
O636 Zn620 1.969 . S
O636 C639 1.258 . S
O637 Zn621 2.024 . S
O637 C624 1.058 . S
C638 O627 1.260 . S
C638 O628 1.258 . S
C639 O635 1.260 . S
C639 O636 1.258 . S
C4 C504 1.466 . S
C484 C24 1.466 . S
C544 C44 1.466 . S
C64 C524 1.466 . S
C82 C582 1.466 . S
C102 C562 1.466 . S
C122 C622 1.466 . S
C602 C142 1.466 . S
C164 C344 1.466 . S
C184 C324 1.466 . S
C204 C384 1.466 . S
C364 C224 1.466 . S
C242 C422 1.466 . S
C262 C402 1.466 . S
C462 C282 1.466 . S
C302 C442 1.466 . S
C18 C78 1.711 . S
C38 C58 1.711 . S
C159 C99 1.711 . S
C139 C119 1.711 . S
C178 C238 1.711 . S
C198 C218 1.712 . S
C259 C319 1.711 . S
C299 C279 1.712 . S
C338 C398 1.711 . S
C358 C378 1.711 . S
C479 C419 1.711 . S
C439 C459 1.711 . S
C558 C498 1.711 . S
C518 C538 1.712 . S
C639 C579 1.711 . S
C619 C599 1.712 . S
C22 C2 2.501 . S
C42 C62 2.501 . S
C104 C84 2.501 . S
C144 C124 2.501 . S
C162 C182 2.501 . S
C202 C222 2.501 . S
C264 C244 2.501 . S
C284 C304 2.501 . S
C322 C342 2.501 . S
C382 C362 2.501 . S
C404 C424 2.501 . S
C444 C464 2.501 . S
C482 C502 2.501 . S
C522 C542 2.501 . S
C584 C564 2.501 . S
C604 C624 2.501 . S
C12 C9 2.025 . S
C32 C29 2.025 . S
C52 C49 2.025 . S
C69 C72 2.025 . S
C92 C89 2.025 . S
C109 C112 2.025 . S
C132 C129 2.025 . S
C152 C149 2.025 . S
C169 C172 2.025 1_545 S
C192 C189 2.025 . S
C212 C209 2.025 . S
C229 C232 2.025 1_545 S
C252 C249 2.025 1_565 S
C269 C272 2.025 . S
C289 C292 2.025 . S
C312 C309 2.025 1_565 S
C332 C329 2.025 1_455 S
C349 C352 2.025 . S
C369 C372 2.025 1_655 S
C392 C389 2.025 . S
C409 C412 2.025 1_655 S
C429 C432 2.025 . S
C452 C449 2.025 1_455 S
C469 C472 2.025 . S
C489 C492 2.025 1_645 S
C512 C509 2.025 . S
C529 C532 2.025 1_655 S
C549 C552 2.025 1_545 S
C569 C572 2.025 1_645 S
C589 C592 2.025 . S
C612 C609 2.025 1_455 S
C632 C629 2.025 1_565 S
C19 C98 1.549 1_654 S
C598 C39 1.549 1_556 S
C298 C59 1.549 1_455 S
C79 C478 1.549 . S
C118 C519 1.549 1_556 S
C138 C219 1.549 1_455 S
C158 C399 1.549 . S
C179 C258 1.549 1_645 S
C438 C199 1.549 . S
C638 C239 1.549 1_565 S
C278 C359 1.549 . S
C559 C318 1.549 1_545 S
C339 C418 1.549 . S
C618 C379 1.549 . S
C458 C539 1.549 . S
C499 C578 1.549 1_544 S
