# Generated by pormake.
# Topology crs, (6)-cn, num edge types: 1
# Building blocks:
#     Node 0, Type 0, BuildingBlock: BETGAK_clean_sbu_0, # of connection points: 6
#     Node 1, Type 0, BuildingBlock: BETGAK_clean_sbu_0, # of connection points: 6
#     Node 2, Type 0, BuildingBlock: BETGAK_clean_sbu_0, # of connection points: 6
#     Node 3, Type 0, BuildingBlock: BETGAK_clean_sbu_0, # of connection points: 6
#     Node 4, Type 0, BuildingBlock: BETGAK_clean_sbu_0, # of connection points: 6
#     Node 5, Type 0, BuildingBlock: BETGAK_clean_sbu_0, # of connection points: 6
#     Node 6, Type 0, BuildingBlock: BETGAK_clean_sbu_0, # of connection points: 6
#     Node 7, Type 0, BuildingBlock: BETGAK_clean_sbu_0, # of connection points: 6
#     Node 8, Type 0, BuildingBlock: BETGAK_clean_sbu_0, # of connection points: 6
#     Node 9, Type 0, BuildingBlock: BETGAK_clean_sbu_0, # of connection points: 6
#     Node 10, Type 0, BuildingBlock: BETGAK_clean_sbu_0, # of connection points: 6
#     Node 11, Type 0, BuildingBlock: BETGAK_clean_sbu_0, # of connection points: 6
#     Node 12, Type 0, BuildingBlock: BETGAK_clean_sbu_0, # of connection points: 6
#     Node 13, Type 0, BuildingBlock: BETGAK_clean_sbu_0, # of connection points: 6
#     Node 14, Type 0, BuildingBlock: BETGAK_clean_sbu_0, # of connection points: 6
#     Node 15, Type 0, BuildingBlock: BETGAK_clean_sbu_0, # of connection points: 6
#     Edge 16, Type (0, 0), BuildingBlock: ZUJKAS_clean_linker_0, # of connection points: 2
#     Edge 17, Type (0, 0), BuildingBlock: ZUJKAS_clean_linker_0, # of connection points: 2
#     Edge 18, Type (0, 0), BuildingBlock: ZUJKAS_clean_linker_0, # of connection points: 2
#     Edge 19, Type (0, 0), BuildingBlock: ZUJKAS_clean_linker_0, # of connection points: 2
#     Edge 20, Type (0, 0), BuildingBlock: ZUJKAS_clean_linker_0, # of connection points: 2
#     Edge 21, Type (0, 0), BuildingBlock: ZUJKAS_clean_linker_0, # of connection points: 2
#     Edge 22, Type (0, 0), BuildingBlock: ZUJKAS_clean_linker_0, # of connection points: 2
#     Edge 23, Type (0, 0), BuildingBlock: ZUJKAS_clean_linker_0, # of connection points: 2
#     Edge 24, Type (0, 0), BuildingBlock: ZUJKAS_clean_linker_0, # of connection points: 2
#     Edge 25, Type (0, 0), BuildingBlock: ZUJKAS_clean_linker_0, # of connection points: 2
#     Edge 26, Type (0, 0), BuildingBlock: ZUJKAS_clean_linker_0, # of connection points: 2
#     Edge 27, Type (0, 0), BuildingBlock: ZUJKAS_clean_linker_0, # of connection points: 2
#     Edge 28, Type (0, 0), BuildingBlock: ZUJKAS_clean_linker_0, # of connection points: 2
#     Edge 29, Type (0, 0), BuildingBlock: ZUJKAS_clean_linker_0, # of connection points: 2
#     Edge 30, Type (0, 0), BuildingBlock: ZUJKAS_clean_linker_0, # of connection points: 2
#     Edge 31, Type (0, 0), BuildingBlock: ZUJKAS_clean_linker_0, # of connection points: 2
#     Edge 32, Type (0, 0), BuildingBlock: ZUJKAS_clean_linker_0, # of connection points: 2
#     Edge 33, Type (0, 0), BuildingBlock: ZUJKAS_clean_linker_0, # of connection points: 2
#     Edge 34, Type (0, 0), BuildingBlock: ZUJKAS_clean_linker_0, # of connection points: 2
#     Edge 35, Type (0, 0), BuildingBlock: ZUJKAS_clean_linker_0, # of connection points: 2
#     Edge 36, Type (0, 0), BuildingBlock: ZUJKAS_clean_linker_0, # of connection points: 2
#     Edge 37, Type (0, 0), BuildingBlock: ZUJKAS_clean_linker_0, # of connection points: 2
#     Edge 38, Type (0, 0), BuildingBlock: ZUJKAS_clean_linker_0, # of connection points: 2
#     Edge 39, Type (0, 0), BuildingBlock: ZUJKAS_clean_linker_0, # of connection points: 2
#     Edge 40, Type (0, 0), BuildingBlock: ZUJKAS_clean_linker_0, # of connection points: 2
#     Edge 41, Type (0, 0), BuildingBlock: ZUJKAS_clean_linker_0, # of connection points: 2
#     Edge 42, Type (0, 0), BuildingBlock: ZUJKAS_clean_linker_0, # of connection points: 2
#     Edge 43, Type (0, 0), BuildingBlock: ZUJKAS_clean_linker_0, # of connection points: 2
#     Edge 44, Type (0, 0), BuildingBlock: ZUJKAS_clean_linker_0, # of connection points: 2
#     Edge 45, Type (0, 0), BuildingBlock: ZUJKAS_clean_linker_0, # of connection points: 2
#     Edge 46, Type (0, 0), BuildingBlock: ZUJKAS_clean_linker_0, # of connection points: 2
#     Edge 47, Type (0, 0), BuildingBlock: ZUJKAS_clean_linker_0, # of connection points: 2
#     Edge 48, Type (0, 0), BuildingBlock: ZUJKAS_clean_linker_0, # of connection points: 2
#     Edge 49, Type (0, 0), BuildingBlock: ZUJKAS_clean_linker_0, # of connection points: 2
#     Edge 50, Type (0, 0), BuildingBlock: ZUJKAS_clean_linker_0, # of connection points: 2
#     Edge 51, Type (0, 0), BuildingBlock: ZUJKAS_clean_linker_0, # of connection points: 2
#     Edge 52, Type (0, 0), BuildingBlock: ZUJKAS_clean_linker_0, # of connection points: 2
#     Edge 53, Type (0, 0), BuildingBlock: ZUJKAS_clean_linker_0, # of connection points: 2
#     Edge 54, Type (0, 0), BuildingBlock: ZUJKAS_clean_linker_0, # of connection points: 2
#     Edge 55, Type (0, 0), BuildingBlock: ZUJKAS_clean_linker_0, # of connection points: 2
#     Edge 56, Type (0, 0), BuildingBlock: ZUJKAS_clean_linker_0, # of connection points: 2
#     Edge 57, Type (0, 0), BuildingBlock: ZUJKAS_clean_linker_0, # of connection points: 2
#     Edge 58, Type (0, 0), BuildingBlock: ZUJKAS_clean_linker_0, # of connection points: 2
#     Edge 59, Type (0, 0), BuildingBlock: ZUJKAS_clean_linker_0, # of connection points: 2
#     Edge 60, Type (0, 0), BuildingBlock: ZUJKAS_clean_linker_0, # of connection points: 2
#     Edge 61, Type (0, 0), BuildingBlock: ZUJKAS_clean_linker_0, # of connection points: 2
#     Edge 62, Type (0, 0), BuildingBlock: ZUJKAS_clean_linker_0, # of connection points: 2
#     Edge 63, Type (0, 0), BuildingBlock: ZUJKAS_clean_linker_0, # of connection points: 2
# Relax obj value: 0.419
# Max RMSD: 0.344
# Mean RMSD: 0.285
data_MOF--net-crs--node1-BETGAK_clean_sbu_0--edge1-ZUJKAS_clean_linker_0
_symmetry_space_group_name_H-M    P1
_symmetry_Int_Tables_number       1
_symmetry_cell_setting            triclinic
loop_
_symmetry_equiv_pos_as_xyz
'x, y, z'
_cell_length_a     65.932121
_cell_length_b     67.044774
_cell_length_c     58.27324
_cell_angle_alpha  77.760192
_cell_angle_beta   79.096859
_cell_angle_gamma 69.165772
loop_
_atom_site_label
_atom_site_type_symbol
_atom_site_fract_x
_atom_site_fract_y
_atom_site_fract_z
_atom_type_partial_charge
La0 La 0.98169 0.00801 0.01748 0.0
La1 La 0.02268 0.00869 0.98343 0.0
C2 C 0.94677 1.00136 0.03642 0.0
C3 C 0.93852 0.98481 0.03261 0.0
C4 C 0.93033 0.97229 0.05204 0.0
C5 C 0.92671 0.95373 0.04901 0.0
C6 C 0.9312 0.94759 0.02649 0.0
C7 C 0.93876 0.96047 1.00707 0.0
C8 C 0.94246 0.97885 1.01008 0.0
C9 C 0.01665 0.99969 0.03789 0.0
C10 C 0.0099 0.96761 0.99064 0.0
C11 C 0.05772 0.01522 0.96508 0.0
C12 C 0.06798 0.029 0.97202 0.0
C13 C 0.05933 0.05164 0.96651 0.0
C14 C 0.06559 0.06478 0.97736 0.0
C15 C 0.08064 0.05559 0.9939 0.0
C16 C 0.09041 0.03301 0.99822 0.0
C17 C 0.08427 0.01986 0.98719 0.0
C18 C 0.98801 0.01637 0.96281 0.0
C19 C -0.00469 0.048 0.01224 0.0
O20 O 0.96478 0.99346 0.04636 0.0
O21 O 0.94768 0.01665 0.01842 0.0
O22 O -0.00314 0.00918 0.04699 0.0
O23 O 0.01616 0.99385 0.01882 0.0
O24 O 0.9912 0.97867 1.00184 0.0
O25 O 0.02644 0.97517 0.98349 0.0
O26 O 0.03913 0.02541 0.9564 0.0
O27 O 0.05696 0.99805 0.9805 0.0
O28 O 0.00792 0.00735 0.95379 0.0
O29 O 0.9882 0.02252 0.98183 0.0
O30 O 0.01428 0.0365 1.00179 0.0
O31 O 0.97804 0.04147 0.01692 0.0
H32 H 0.92762 0.97636 0.06965 0.0
H33 H 0.92072 0.94403 0.06426 0.0
H34 H 0.94287 0.95566 0.98979 0.0
H35 H 0.94957 0.98764 0.99495 0.0
H36 H 0.04694 0.05929 0.95465 0.0
H37 H 0.05822 0.08215 0.97321 0.0
H38 H 0.10203 0.02544 0.01094 0.0
H39 H 0.09139 1.00248 0.99153 0.0
La40 La -0.00059 0.27091 0.27229 0.0
La41 La 0.98721 0.24143 0.25052 0.0
C42 C -0.00071 0.30064 0.29274 0.0
C43 C -0.00313 0.30565 0.31688 0.0
C44 C 0.01392 0.29587 0.3311 0.0
C45 C 0.01266 0.30285 0.35245 0.0
C46 C 0.99435 0.31975 0.36007 0.0
C47 C 0.97688 0.32886 0.34638 0.0
C48 C 0.97818 0.32196 0.32494 0.0
C49 C 0.02781 0.23122 0.27485 0.0
C50 C 0.96685 0.24617 0.30257 0.0
C51 C 0.98632 0.21195 0.23038 0.0
C52 C 0.99227 0.20419 0.20733 0.0
C53 C 0.98398 0.21741 0.18674 0.0
C54 C 0.987 0.20865 0.16609 0.0
C55 C -0.00157 0.18655 0.16561 0.0
C56 C 0.00771 0.17367 0.18586 0.0
C57 C 0.00458 0.1824 0.20651 0.0
C58 C 0.95894 0.28126 0.24864 0.0
C59 C 0.0199 0.26574 0.22044 0.0
O60 O 0.01693 0.28529 0.28613 0.0
O61 O 0.98193 0.30007 0.28546 0.0
O62 O 0.03279 0.24854 0.27289 0.0
O63 O 0.00722 0.23621 0.27745 0.0
O64 O 0.97486 0.26216 0.3001 0.0
O65 O 0.97227 0.23347 0.28632 0.0
O66 O 0.97034 0.23019 0.23191 0.0
O67 O 0.00225 0.21 0.24196 0.0
O68 O 0.95371 0.26396 0.2515 0.0
O69 O 0.97953 0.27609 0.24542 0.0
O70 O 0.01277 0.24909 0.22352 0.0
O71 O 0.01336 0.27922 0.23602 0.0
H72 H 0.02858 0.28328 0.32544 0.0
H73 H 0.02627 0.29535 0.36275 0.0
H74 H 0.96265 0.34207 0.35164 0.0
H75 H 0.96489 0.32993 0.31425 0.0
H76 H 0.97449 0.23432 0.18679 0.0
H77 H 0.9799 0.21905 0.15068 0.0
H78 H 0.0164 0.15655 0.18617 0.0
H79 H 0.01103 0.17187 0.2222 0.0
La80 La 0.737 0.2446 0.49813 0.0
La81 La 0.75287 0.26993 0.52774 0.0
C82 C 0.72538 0.2164 0.48752 0.0
C83 C 0.71146 0.20399 0.5008 0.0
C84 C 0.70388 0.19259 0.48881 0.0
C85 C 0.68819 0.18323 0.5005 0.0
C86 C 0.68003 0.18514 0.52428 0.0
C87 C 0.68807 0.19595 0.53656 0.0
C88 C 0.70362 0.20551 0.52477 0.0
C89 C 0.73473 0.28462 0.47492 0.0
C90 C 0.70491 0.26772 0.54099 0.0
C91 C 0.76393 0.29884 0.53781 0.0
C92 C 0.77796 0.31126 0.52463 0.0
C93 C 0.78232 0.32578 0.53543 0.0
C94 C 0.79809 0.33528 0.52429 0.0
C95 C 0.80991 0.33019 0.50228 0.0
C96 C 0.80469 0.31642 0.49102 0.0
C97 C 0.78884 0.30705 0.50213 0.0
C98 C 0.75504 0.22991 0.55099 0.0
C99 C 0.78522 0.24584 0.48551 0.0
O100 O 0.715 0.23719 0.48271 0.0
O101 O 0.74427 0.21208 0.4951 0.0
O102 O 0.72956 0.27052 0.46718 0.0
O103 O 0.74039 0.27547 0.49515 0.0
O104 O 0.70963 0.2538 0.52603 0.0
O105 O 0.71849 0.27779 0.54287 0.0
O106 O 0.77429 0.27809 0.54328 0.0
O107 O 0.74537 0.30276 0.52969 0.0
O108 O 0.76005 0.24407 0.55887 0.0
O109 O 0.74953 0.23906 0.53068 0.0
O110 O 0.78067 0.25981 0.50041 0.0
O111 O 0.77139 0.23616 0.48344 0.0
H112 H 0.70954 0.19153 0.47026 0.0
H113 H 0.68207 0.17483 0.49087 0.0
H114 H 0.68186 0.19756 0.5549 0.0
H115 H 0.70899 0.21463 0.53416 0.0
H116 H 0.77405 0.32922 0.55278 0.0
H117 H 0.80141 0.34623 0.53318 0.0
H118 H 0.81352 0.31208 0.47416 0.0
H119 H 0.78563 0.29597 0.49345 0.0
La120 La 0.73253 0.99824 0.74979 0.0
La121 La 0.75649 0.01387 0.77483 0.0
C122 C 0.70765 0.99157 0.72655 0.0
C123 C 0.69594 0.99974 0.70556 0.0
C124 C 0.70054 0.98604 0.68877 0.0
C125 C 0.68769 0.99148 0.67052 0.0
C126 C 0.66986 0.01079 0.66866 0.0
C127 C 0.66592 0.02508 0.68481 0.0
C128 C 0.67884 0.01959 0.70317 0.0
C129 C 0.77294 0.97193 0.75417 0.0
C130 C 0.7513 0.03637 0.72244 0.0
C131 C 0.78126 0.02026 0.79844 0.0
C132 C 0.79357 0.01114 0.81895 0.0
C133 C 0.78892 0.02358 0.837 0.0
C134 C 0.80228 0.01735 0.8549 0.0
C135 C 0.82069 0.99853 0.85509 0.0
C136 C 0.82467 0.98541 0.8377 0.0
C137 C 0.81122 0.99167 0.81973 0.0
C138 C 0.71599 0.04001 0.77052 0.0
C139 C 0.73758 0.97599 0.80225 0.0
O140 O 0.72898 0.98408 0.72268 0.0
O141 O 0.70059 1.00221 0.74451 0.0
O142 O 0.75617 0.96594 0.75539 0.0
O143 O 0.76716 0.99236 0.74944 0.0
O144 O 0.73708 0.02618 0.72351 0.0
O145 O 0.7633 0.03183 0.73988 0.0
O146 O 0.75994 0.02688 0.80297 0.0
O147 O 0.78829 0.01088 0.77953 0.0
O148 O 0.73265 0.04614 0.76941 0.0
O149 O 0.72194 0.0196 0.77527 0.0
O150 O 0.75229 0.98567 0.80077 0.0
O151 O 0.72524 0.9809 0.78504 0.0
H152 H 0.7135 0.97056 0.6904 0.0
H153 H 0.691 0.9799 0.65871 0.0
H154 H 0.65244 0.04018 0.68369 0.0
H155 H 0.67496 0.03048 0.71589 0.0
H156 H 0.7755 0.03874 0.83664 0.0
H157 H 0.7989 0.02803 0.86774 0.0
H158 H 0.8386 0.9707 0.83754 0.0
H159 H 0.81514 0.98172 0.80604 0.0
La160 La 0.50119 0.77027 0.27173 0.0
La161 La 0.48451 0.74563 0.24858 0.0
C162 C 0.507 0.79553 0.29448 0.0
C163 C 0.49888 0.80485 0.31669 0.0
C164 C 0.508 0.79383 0.33765 0.0
C165 C 0.50301 0.80399 0.35759 0.0
C166 C 0.48889 0.82545 0.357 0.0
C167 C 0.47895 0.83609 0.33641 0.0
C168 C 0.48396 0.82593 0.31644 0.0
C169 C 0.5282 0.73066 0.26795 0.0
C170 C 0.46638 0.74831 0.30133 0.0
C171 C 0.47764 0.72056 0.22644 0.0
C172 C 0.48407 0.71112 0.20437 0.0
C173 C 0.46847 0.71671 0.18868 0.0
C174 C 0.47264 0.70601 0.16936 0.0
C175 C 0.4925 0.68933 0.16528 0.0
C176 C 0.50849 0.68425 0.18049 0.0
C177 C 0.50431 0.69503 0.1999 0.0
C178 C 0.45743 0.78527 0.25258 0.0
C179 C 0.51966 0.76731 0.21907 0.0
O180 O 0.51783 0.77483 0.29638 0.0
O181 O 0.49407 0.80201 0.27794 0.0
O182 O 0.53411 0.74748 0.26572 0.0
O183 O 0.50765 0.73604 0.27325 0.0
O184 O 0.47525 0.76363 0.29901 0.0
O185 O 0.47048 0.7365 0.28446 0.0
O186 O 0.46708 0.7413 0.22452 0.0
O187 O 0.49146 0.71402 0.2421 0.0
O188 O 0.45165 0.76837 0.25496 0.0
O189 O 0.47797 0.77991 0.24705 0.0
O190 O 0.51053 0.75217 0.22127 0.0
O191 O 0.51567 0.77908 0.23597 0.0
H192 H 0.51976 0.77766 0.3384 0.0
H193 H 0.51118 0.79539 0.37301 0.0
H194 H 0.46777 0.85253 0.33547 0.0
H195 H 0.47677 0.83492 0.30053 0.0
H196 H 0.45262 0.72884 0.19191 0.0
H197 H 0.45979 0.71012 0.15831 0.0
H198 H 0.52405 0.67163 0.1777 0.0
H199 H 0.51664 0.6903 0.21174 0.0
La200 La 0.23485 0.74625 0.4957 0.0
La201 La 0.24973 0.76777 0.52668 0.0
C202 C 0.22352 0.71871 0.48301 0.0
C203 C 0.21195 0.70377 0.49585 0.0
C204 C 0.1939 0.70328 0.48688 0.0
C205 C 0.18145 0.69067 0.49974 0.0
C206 C 0.18694 0.67827 0.52172 0.0
C207 C 0.20512 0.67858 0.53063 0.0
C208 C 0.21748 0.69137 0.51784 0.0
C209 C 0.23102 0.78684 0.47385 0.0
C210 C 0.20122 0.77035 0.53625 0.0
C211 C 0.26788 0.78745 0.54372 0.0
C212 C 0.28743 0.79387 0.53561 0.0
C213 C 0.30112 0.792 0.55216 0.0
C214 C 0.32098 0.79579 0.54469 0.0
C215 C 0.32743 0.80159 0.52051 0.0
C216 C 0.31359 0.80366 0.50393 0.0
C217 C 0.29379 0.79965 0.51142 0.0
C218 C 0.2451 0.72991 0.54741 0.0
C219 C 0.28228 0.74807 0.48193 0.0
O220 O 0.21169 0.73916 0.48165 0.0
O221 O 0.24326 0.7149 0.48804 0.0
O222 O 0.22621 0.77279 0.4657 0.0
O223 O 0.23744 0.77755 0.49371 0.0
O224 O 0.20733 0.75432 0.5238 0.0
O225 O 0.21452 0.78111 0.53665 0.0
O226 O 0.27198 0.76653 0.54858 0.0
O227 O 0.25107 0.79734 0.53178 0.0
O228 O 0.24067 0.74647 0.55776 0.0
O229 O 0.2528 0.7346 0.52601 0.0
O230 O 0.27818 0.75943 0.49935 0.0
O231 O 0.26799 0.73993 0.47787 0.0
H232 H 0.18927 0.71288 0.47006 0.0
H233 H 0.16765 0.69042 0.49237 0.0
H234 H 0.20953 0.66922 0.54759 0.0
H235 H 0.23115 0.69173 0.52525 0.0
H236 H 0.29659 0.78729 0.57086 0.0
H237 H 0.33116 0.7945 0.55787 0.0
H238 H 0.31822 0.8081 0.4852 0.0
H239 H 0.2837 0.80067 0.4983 0.0
La240 La 0.23008 0.49964 0.75036 0.0
La241 La 0.25805 0.51328 0.77284 0.0
C242 C 0.20209 0.49533 0.72943 0.0
C243 C 0.19037 0.50381 0.70837 0.0
C244 C 0.19476 0.49036 0.69132 0.0
C245 C 0.18176 0.49607 0.67316 0.0
C246 C 0.16392 0.51539 0.67162 0.0
C247 C 0.1602 0.52945 0.68797 0.0
C248 C 0.17328 0.52369 0.70625 0.0
C249 C 0.27045 0.47227 0.75137 0.0
C250 C 0.25018 0.53622 0.72107 0.0
C251 C 0.28636 0.51755 0.79328 0.0
C252 C 0.30047 0.5078 0.81231 0.0
C253 C 0.29168 0.50544 0.83628 0.0
C254 C 0.30512 0.50041 0.85405 0.0
C255 C 0.32755 0.49765 0.84815 0.0
C256 C 0.33646 0.49869 0.82419 0.0
C257 C 0.32304 0.50376 0.80648 0.0
C258 C 0.21766 0.54066 0.77171 0.0
C259 C 0.23807 0.47656 0.80193 0.0
O260 O 0.2231 0.48525 0.72564 0.0
O261 O 0.19701 0.50709 0.7463 0.0
O262 O 0.25312 0.46687 0.75394 0.0
O263 O 0.26512 0.49267 0.7471 0.0
O264 O 0.23484 0.5271 0.7236 0.0
O265 O 0.2636 0.53087 0.7373 0.0
O266 O 0.26526 0.52541 0.79942 0.0
O267 O 0.29119 0.50799 0.77462 0.0
O268 O 0.23498 0.54609 0.76922 0.0
O269 O 0.22304 0.52027 0.77609 0.0
O270 O 0.25375 0.48532 0.79911 0.0
O271 O 0.22424 0.48242 0.78603 0.0
H272 H 0.20767 0.47483 0.6927 0.0
H273 H 0.18492 0.48463 0.66123 0.0
H274 H 0.14672 0.54455 0.68713 0.0
H275 H 0.16948 0.53439 0.71916 0.0
H276 H 0.2743 0.50842 0.84133 0.0
H277 H 0.29784 0.49942 0.87237 0.0
H278 H 0.3536 0.49692 0.81898 0.0
H279 H 0.33016 0.50568 0.78813 0.0
La280 La 0.96842 0.49616 0.54023 0.0
La281 La 0.01219 0.49509 0.51053 0.0
C282 C 0.93201 0.4911 0.5539 0.0
C283 C 0.92344 0.47631 0.54622 0.0
C284 C 0.92847 0.45461 0.55728 0.0
C285 C 0.9258 0.43924 0.54635 0.0
C286 C 0.91813 0.44531 0.52417 0.0
C287 C 0.91112 0.46727 0.51428 0.0
C288 C 0.91357 0.48265 0.5253 0.0
C289 C 0.00075 0.48829 0.56474 0.0
C290 C -0.00205 0.45533 0.51424 0.0
C291 C 0.04991 0.49778 0.49779 0.0
C292 C 0.06113 0.50935 0.50678 0.0
C293 C 0.08113 0.51135 0.49522 0.0
C294 C 0.09091 0.5234 0.5036 0.0
C295 C 0.08057 0.53378 0.5234 0.0
C296 C 0.06071 0.53143 0.53492 0.0
C297 C 0.0513 0.51915 0.52687 0.0
C298 C 0.97965 0.50366 0.48613 0.0
C299 C 0.98158 0.53662 0.53515 0.0
O300 O 0.94883 0.48166 0.56583 0.0
O301 O 0.93478 0.50714 0.53771 0.0
O302 O 0.98037 0.49792 0.57185 0.0
O303 O 0.0021 0.4818 0.54549 0.0
O304 O 0.97858 0.46694 0.52382 0.0
O305 O 0.01505 0.46207 0.50983 0.0
O306 O 0.03283 0.51014 0.48721 0.0
O307 O 0.04584 0.48175 0.51284 0.0
O308 O -4e-05 0.49397 0.47864 0.0
O309 O 0.9786 0.50977 0.50546 0.0
O310 O 0.00099 0.52501 0.52571 0.0
O311 O 0.96463 0.52961 0.54008 0.0
H312 H 0.93582 0.44923 0.57359 0.0
H313 H 0.93104 0.42244 0.55453 0.0
H314 H 0.90421 0.47251 0.49773 0.0
H315 H 0.90885 0.49933 0.51675 0.0
H316 H 0.08897 0.50388 0.47964 0.0
H317 H 0.10614 0.52518 0.49416 0.0
H318 H 0.05227 0.53923 0.5501 0.0
H319 H 0.03623 0.51746 0.53643 0.0
La320 La 0.23662 0.24363 0.99633 0.0
La321 La 0.2498 0.27048 0.02424 0.0
C322 C 0.22376 0.21607 0.9859 0.0
C323 C 0.21058 0.20299 0.99966 0.0
C324 C 0.2067 0.18788 0.98935 0.0
C325 C 0.19411 0.17544 1.00244 0.0
C326 C 0.18515 0.1781 0.02596 0.0
C327 C 0.18926 0.1931 0.0363 0.0
C328 C 0.20204 0.20533 0.02328 0.0
C329 C 0.23804 0.28176 0.97229 0.0
C330 C 0.20329 0.26597 0.03938 0.0
C331 C 0.25759 0.30173 0.03336 0.0
C332 C 0.26743 0.3172 0.01845 0.0
C333 C 0.26974 0.33349 0.02819 0.0
C334 C 0.28114 0.34686 0.01468 0.0
C335 C 0.29047 0.34399 0.9913 0.0
C336 C 0.2873 0.32821 0.98128 0.0
C337 C 0.27577 0.31495 0.99477 0.0
C338 C 0.25525 0.23015 0.04839 0.0
C339 C 0.284 0.24574 0.98435 0.0
O340 O 0.21344 0.23696 0.98175 0.0
O341 O 0.24296 0.21148 0.99276 0.0
O342 O 0.24113 0.26484 0.96295 0.0
O343 O 0.23211 0.27748 0.99432 0.0
O344 O 0.20811 0.25303 0.02332 0.0
O345 O 0.21675 0.27572 0.04211 0.0
O346 O 0.2709 0.28175 0.03655 0.0
O347 O 0.23852 0.30309 0.02841 0.0
O348 O 0.259 0.24532 0.05578 0.0
O349 O 0.24928 0.23853 0.02824 0.0
O350 O 0.27731 0.26222 0.99622 0.0
O351 O 0.27178 0.23359 0.98508 0.0
H352 H 0.21326 0.1858 0.97118 0.0
H353 H 0.19091 0.16413 0.99399 0.0
H354 H 0.18265 0.19532 0.05443 0.0
H355 H 0.20528 0.21651 0.03175 0.0
H356 H 0.26339 0.33538 0.04644 0.0
H357 H 0.28361 0.35871 0.02294 0.0
H358 H 0.29423 0.32577 0.96328 0.0
H359 H 0.27392 0.30256 0.98692 0.0
La360 La 0.2279 1.00351 0.25131 0.0
La361 La 0.25841 0.01427 0.27281 0.0
C362 C 0.19638 1.00403 0.23216 0.0
C363 C 0.19063 0.00468 0.20862 0.0
C364 C 0.19428 0.98529 0.20041 0.0
C365 C 0.18603 0.98548 0.18002 0.0
C366 C 0.17381 0.00504 0.16742 0.0
C367 C 0.17106 0.02455 0.17488 0.0
C368 C 0.17929 0.02437 0.1954 0.0
C369 C 0.26823 0.97582 0.247 0.0
C370 C 0.25016 0.03855 0.22144 0.0
C371 C 0.2887 0.01528 0.29271 0.0
C372 C 0.30006 0.00529 0.31383 0.0
C373 C 0.28881 0.00678 0.33678 0.0
C374 C 0.3004 1.00128 0.35621 0.0
C375 C 0.32337 0.99407 0.353 0.0
C376 C 0.33452 0.99103 0.33026 0.0
C377 C 0.32294 0.99667 0.31084 0.0
C378 C 0.2181 0.04207 0.27557 0.0
C379 C 0.23677 0.97929 0.30222 0.0
O380 O 0.21116 0.98644 0.24068 0.0
O381 O 0.19861 0.0214 0.23667 0.0
O382 O 0.25066 0.97101 0.24871 0.0
O383 O 0.26305 0.9961 0.24524 0.0
O384 O 0.23509 0.02918 0.22329 0.0
O385 O 0.26333 0.03311 0.23794 0.0
O386 O 0.26835 0.0277 0.29611 0.0
O387 O 0.29199 1.00334 0.27641 0.0
O388 O 0.23572 0.04716 0.27196 0.0
O389 O 0.22324 0.0217 0.27874 0.0
O390 O 0.25372 0.9863 0.29853 0.0
O391 O 0.22167 0.98741 0.28757 0.0
H392 H 0.2028 0.96982 0.21023 0.0
H393 H 0.18858 0.97022 0.17451 0.0
H394 H 0.16154 0.03984 0.1656 0.0
H395 H 0.17602 0.03956 0.2014 0.0
H396 H 0.27112 0.01323 0.33963 0.0
H397 H 0.29142 1.00354 0.37359 0.0
H398 H 0.35222 0.98571 0.32719 0.0
H399 H 0.33194 0.99544 0.29331 0.0
La400 La 0.50113 0.26763 0.77297 0.0
La401 La 0.48527 0.24304 0.74816 0.0
C402 C 0.50658 0.2928 0.79609 0.0
C403 C 0.4981 0.30309 0.81762 0.0
C404 C 0.5088 0.29412 0.83794 0.0
C405 C 0.50366 0.30544 0.85694 0.0
C406 C 0.48777 0.32609 0.85604 0.0
C407 C 0.4763 0.33464 0.83619 0.0
C408 C 0.48145 0.32329 0.81714 0.0
C409 C 0.52813 0.22807 0.76909 0.0
C410 C 0.46551 0.2459 0.80064 0.0
C411 C 0.47985 0.21793 0.72491 0.0
C412 C 0.48844 0.20756 0.70343 0.0
C413 C 0.47781 0.21643 0.68304 0.0
C414 C 0.48303 0.20501 0.6641 0.0
C415 C 0.4989 0.18434 0.66516 0.0
C416 C 0.51033 0.17593 0.68506 0.0
C417 C 0.50511 0.18738 0.70403 0.0
C418 C 0.45822 0.2826 0.75205 0.0
C419 C 0.5209 0.26489 0.7206 0.0
O420 O 0.51644 0.27189 0.79908 0.0
O421 O 0.4946 0.29939 0.77866 0.0
O422 O 0.53414 0.24469 0.76778 0.0
O423 O 0.50754 0.23359 0.77366 0.0
O424 O 0.4744 0.26111 0.79902 0.0
O425 O 0.46998 0.23421 0.78355 0.0
O426 O 0.47015 0.23887 0.72181 0.0
O427 O 0.49164 0.2113 0.74251 0.0
O428 O 0.45228 0.26595 0.7533 0.0
O429 O 0.4788 0.2771 0.74743 0.0
O430 O 0.51213 0.24958 0.72217 0.0
O431 O 0.51622 0.27663 0.73765 0.0
H432 H 0.52194 0.27876 0.83874 0.0
H433 H 0.51307 0.29848 0.87174 0.0
H434 H 0.4638 0.35042 0.83506 0.0
H435 H 0.47299 0.33074 0.80167 0.0
H436 H 0.46466 0.23179 0.68214 0.0
H437 H 0.47368 0.21187 0.64924 0.0
H438 H 0.52284 0.16016 0.68629 0.0
H439 H 0.51353 0.18001 0.71953 0.0
La440 La 0.00244 0.77016 0.77412 0.0
La441 La 0.98805 0.74288 0.7514 0.0
C442 C 0.006 0.79724 0.79599 0.0
C443 C -0.00163 0.80564 0.81874 0.0
C444 C 0.01212 0.798 0.83664 0.0
C445 C 0.00677 0.80775 0.85686 0.0
C446 C 0.9876 0.8255 0.85965 0.0
C447 C 0.97336 0.83262 0.84219 0.0
C448 C 0.97871 0.82282 0.8219 0.0
C449 C 0.02993 0.7304 0.77311 0.0
C450 C 0.96868 0.74699 0.80363 0.0
C451 C 0.98517 0.71438 0.73111 0.0
C452 C 0.98776 0.70754 0.70788 0.0
C453 C 0.97046 0.71587 0.69394 0.0
C454 C 0.97109 0.70646 0.67448 0.0
C455 C 0.98898 0.68848 0.66857 0.0
C456 C 0.00684 0.68092 0.68167 0.0
C457 C 0.00617 0.69028 0.70121 0.0
C458 C 0.96058 0.78283 0.75179 0.0
C459 C 0.02149 0.76681 0.72138 0.0
O460 O 0.01914 0.77727 0.79682 0.0
O461 O 0.99189 0.80213 0.78091 0.0
O462 O 0.03564 0.74742 0.77029 0.0
O463 O 0.00934 0.73574 0.77744 0.0
O464 O 0.97613 0.7634 0.80072 0.0
O465 O 0.97472 0.73391 0.7877 0.0
O466 O 0.969 0.73183 0.73547 0.0
O467 O 0.00279 0.71272 0.73966 0.0
O468 O 0.95483 0.76596 0.75371 0.0
O469 O 0.98119 0.77727 0.74801 0.0
O470 O 0.01251 0.75158 0.72325 0.0
O471 O 0.01733 0.77852 0.73841 0.0
H472 H 0.02753 0.78502 0.83461 0.0
H473 H 0.01833 0.80207 0.86969 0.0
H474 H 0.95837 0.84616 0.8439 0.0
H475 H 0.96781 0.82919 0.80837 0.0
H476 H 0.95594 0.72903 0.69864 0.0
H477 H 0.95722 0.71281 0.66453 0.0
H478 H 0.02077 0.66697 0.67767 0.0
H479 H 0.01962 0.68331 0.71179 0.0
La480 La 0.7305 0.4994 0.25014 0.0
La481 La 0.75738 0.51385 0.27234 0.0
C482 C 0.70334 0.49446 0.2285 0.0
C483 C 0.69269 0.50271 0.2067 0.0
C484 C 0.69806 0.48911 0.18963 0.0
C485 C 0.68645 0.49497 0.17025 0.0
C486 C 0.66907 0.51456 0.16752 0.0
C487 C 0.66422 0.52863 0.18412 0.0
C488 C 0.67592 0.52275 0.20358 0.0
C489 C 0.7709 0.47224 0.2518 0.0
C490 C 0.75096 0.53535 0.22015 0.0
C491 C 0.78483 0.51963 0.29287 0.0
C492 C 0.79448 0.51434 0.3151 0.0
C493 C 0.79326 0.5315 0.32606 0.0
C494 C 0.80422 0.52773 0.34557 0.0
C495 C 0.81674 0.50666 0.35459 0.0
C496 C 0.81736 0.48931 0.34411 0.0
C497 C 0.80631 0.49312 0.32448 0.0
C498 C 0.7168 0.54086 0.2706 0.0
C499 C 0.73712 0.4776 0.30246 0.0
O500 O 0.72435 0.48412 0.22573 0.0
O501 O 0.69772 0.50667 0.245 0.0
O502 O 0.75354 0.46681 0.2549 0.0
O503 O 0.76559 0.49266 0.24686 0.0
O504 O 0.73522 0.52672 0.22308 0.0
O505 O 0.76454 0.52963 0.23626 0.0
O506 O 0.76428 0.53162 0.29358 0.0
O507 O 0.78986 0.50467 0.27956 0.0
O508 O 0.73405 0.54647 0.26744 0.0
O509 O 0.72234 0.52047 0.27562 0.0
O510 O 0.75191 0.48735 0.30027 0.0
O511 O 0.72431 0.48225 0.28574 0.0
H512 H 0.71072 0.47346 0.19175 0.0
H513 H 0.69038 0.48353 0.15813 0.0
H514 H 0.65101 0.54391 0.1824 0.0
H515 H 0.67138 0.53356 0.2165 0.0
H516 H 0.78441 0.54802 0.31897 0.0
H517 H 0.8037 0.54152 0.35285 0.0
H518 H 0.82672 0.47287 0.35079 0.0
H519 H 0.80749 0.47958 0.31634 0.0
La520 La 0.73738 0.74342 0.99613 0.0
La521 La 0.75316 0.76765 0.02754 0.0
C522 C 0.7274 0.7158 0.98182 0.0
C523 C 0.70663 0.71492 0.97691 0.0
C524 C 0.70335 0.71597 0.95352 0.0
C525 C 0.68386 0.71489 0.94866 0.0
C526 C 0.66735 0.71251 0.96714 0.0
C527 C 0.67049 0.71191 0.99051 0.0
C528 C 0.68989 0.71315 0.99535 0.0
C529 C 0.73131 0.78504 0.97675 0.0
C530 C 0.70438 0.76581 0.03855 0.0
C531 C 0.76366 0.79513 0.04153 0.0
C532 C 0.78176 0.80379 0.03384 0.0
C533 C 0.79014 0.80959 0.05081 0.0
C534 C 0.80969 0.81416 0.04502 0.0
C535 C 0.82108 0.81309 0.02211 0.0
C536 C 0.81227 0.80807 1.00484 0.0
C537 C 0.79283 0.80319 1.01076 0.0
C538 C 0.758 0.72617 0.04709 0.0
C539 C 0.78587 0.74531 0.98543 0.0
O540 O 0.7351 0.7301 0.96756 0.0
O541 O 0.72921 0.7151 1.004 0.0
O542 O 0.72489 0.77181 0.96893 0.0
O543 O 0.73923 0.77449 0.99558 0.0
O544 O 0.70828 0.75366 0.0218 0.0
O545 O 0.71873 0.77421 0.04245 0.0
O546 O 0.76991 0.77455 0.05022 0.0
O547 O 0.74881 0.80036 0.02715 0.0
O548 O 0.76294 0.73962 0.05618 0.0
O549 O 0.75165 0.73662 0.02755 0.0
O550 O 0.78077 0.75981 0.99978 0.0
O551 O 0.77263 0.73462 0.98417 0.0
H552 H 0.71595 0.71745 0.93899 0.0
H553 H 0.68185 0.71561 0.93045 0.0
H554 H 0.65832 0.70966 1.00522 0.0
H555 H 0.69184 0.71236 0.0136 0.0
H556 H 0.78198 0.8098 0.06879 0.0
H557 H 0.81605 0.81832 0.05852 0.0
H558 H 0.82082 0.80715 0.98708 0.0
H559 H 0.78695 0.79819 0.99758 0.0
La560 La 0.47303 0.99998 0.53224 0.0
La561 La 0.51587 0.99841 0.50069 0.0
C562 C 0.43686 0.99493 0.54761 0.0
C563 C 0.42893 0.97871 0.54223 0.0
C564 C 0.42285 0.96392 0.56067 0.0
C565 C 0.42046 0.94541 0.55574 0.0
C566 C 0.42401 0.94155 0.53228 0.0
C567 C 0.429 0.95689 0.51381 0.0
C568 C 0.43152 0.97521 0.51877 0.0
C569 C 0.50634 0.99245 0.55494 0.0
C570 C 0.50222 0.9579 0.50834 0.0
C571 C 0.55227 1.00249 0.48356 0.0
C572 C 0.56167 0.01852 0.48655 0.0
C573 C 0.55054 0.0407 0.48059 0.0
C574 C 0.55731 0.05591 0.48707 0.0
C575 C 0.57553 0.04936 0.49942 0.0
C576 C 0.58731 0.02715 0.50439 0.0
C577 C 0.58037 0.01187 0.49809 0.0
C578 C 0.4823 0.00606 0.47832 0.0
C579 C 0.48686 0.04036 0.5252 0.0
O580 O 0.4537 0.98667 0.55955 0.0
O581 O 0.43935 0.01008 0.52998 0.0
O582 O 0.48618 1.00234 0.56266 0.0
O583 O 0.50697 0.98549 0.53619 0.0
O584 O 0.48295 0.96986 0.51767 0.0
O585 O 0.51927 0.96477 0.50282 0.0
O586 O 0.53524 0.00996 0.47192 0.0
O587 O 0.54952 0.98894 0.5027 0.0
O588 O 0.50226 0.99546 0.47084 0.0
O589 O 0.48195 0.01312 0.49684 0.0
O590 O 0.506 0.02871 0.51508 0.0
O591 O 0.46987 0.03339 0.53111 0.0
H592 H 0.4211 0.9661 0.57893 0.0
H593 H 0.41637 0.93387 0.57028 0.0
H594 H 0.43206 0.95421 0.4956 0.0
H595 H 0.43667 0.98598 0.50424 0.0
H596 H 0.53593 0.04641 0.47187 0.0
H597 H 0.54759 0.07278 0.48324 0.0
H598 H 0.60175 0.02152 0.51338 0.0
H599 H 0.58918 0.99484 0.50291 0.0
La600 La 0.4794 0.50334 0.02317 0.0
La601 La 0.52284 0.50216 0.99262 0.0
C602 C 0.44215 0.4997 0.0361 0.0
C603 C 0.4321 0.48683 0.02746 0.0
C604 C 0.41454 0.48101 0.04099 0.0
C605 C 0.40614 0.4676 0.03299 0.0
C606 C 0.41547 0.45963 0.01152 0.0
C607 C 0.43307 0.46552 0.99816 0.0
C608 C 0.44109 0.47913 1.00594 0.0
C609 C 0.51213 0.49495 0.04705 0.0
C610 C 0.50966 0.46166 0.99897 0.0
C611 C 0.55895 0.50688 0.9747 0.0
C612 C 0.56774 0.52422 0.97446 0.0
C613 C 0.57489 0.53473 0.95264 0.0
C614 C 0.57837 0.55433 0.95125 0.0
C615 C 0.57468 0.5637 0.9717 0.0
C616 C 0.56894 0.55244 0.99372 0.0
C617 C 0.56553 0.53281 0.99513 0.0
C618 C 0.48946 0.51055 0.96939 0.0
C619 C 0.49389 0.54314 0.01868 0.0
O620 O 0.45913 0.48837 0.04728 0.0
O621 O 0.44574 0.51576 0.02064 0.0
O622 O 0.4918 0.50429 0.05477 0.0
O623 O 0.51318 0.48872 0.02771 0.0
O624 O 0.49024 0.47357 1.00794 0.0
O625 O 0.52676 0.46845 0.99418 0.0
O626 O 0.54199 0.51304 0.96318 0.0
O627 O 0.55623 0.49472 0.99506 0.0
O628 O 0.50946 0.49991 0.96217 0.0
O629 O 0.48897 0.51709 0.9883 0.0
O630 O 0.51301 0.53176 1.00829 0.0
O631 O 0.47674 0.53638 0.02366 0.0
H632 H 0.4075 0.48664 0.05777 0.0
H633 H 0.39265 0.46313 0.04376 0.0
H634 H 0.4406 0.45975 0.98157 0.0
H635 H 0.45449 0.48347 0.99512 0.0
H636 H 0.57654 0.52843 0.93648 0.0
H637 H 0.58281 0.56268 0.93403 0.0
H638 H 0.56644 0.55919 1.00973 0.0
H639 H 0.56007 0.525 0.01221 0.0
H640 H 0.02999 0.05391 0.02518 0.0
H641 H 0.02929 0.08043 0.04839 0.0
H642 H 0.95976 0.11015 0.04657 0.0
H643 H 0.96003 0.08252 0.02465 0.0
H644 H 0.01791 0.12404 0.03948 0.0
H645 H 0.96401 0.09836 0.1166 0.0
H646 H 0.97609 0.08297 0.09266 0.0
H647 H 0.95217 0.10657 0.08939 0.0
C648 C 0.01453 0.06623 0.02942 0.0
C649 C -0.005 0.06614 0.02308 0.0
C650 C 0.01422 0.08142 0.04266 0.0
C651 C 0.99451 0.0972 0.04931 0.0
C652 C 0.9751 0.09783 0.04203 0.0
H653 H 0.96484 0.1936 0.14055 0.0
H654 H 0.96431 0.17404 0.10985 0.0
C655 C 0.97529 0.0822 0.02934 0.0
C656 C 0.99441 0.11248 0.06445 0.0
H657 H 0.97353 0.12876 0.11822 0.0
C658 C 0.00818 0.12512 0.05668 0.0
C659 C 0.98186 0.1137 0.08699 0.0
C660 C 0.96786 0.09954 0.09705 0.0
C661 C 0.00963 0.13904 0.07079 0.0
C662 C -0.00303 0.14032 0.09323 0.0
C663 C 0.98306 0.12787 0.10089 0.0
C664 C -0.00174 0.15393 0.10954 0.0
C665 C 0.02462 0.15228 0.06154 0.0
C666 C 0.01763 0.14928 0.11933 0.0
C667 C 0.018 0.16045 0.13691 0.0
C668 C -0.00101 0.17648 0.14498 0.0
C669 C 0.97984 0.18159 0.13451 0.0
C670 C 0.97946 0.17034 0.11706 0.0
H671 H 0.02828 0.15411 0.04194 0.0
H672 H 0.01737 0.16858 0.0668 0.0
H673 H 0.04032 0.14399 0.06907 0.0
H674 H 0.03224 0.13646 0.11401 0.0
H675 H 0.03302 0.15623 0.14455 0.0
H676 H 0.80045 0.22056 0.45021 0.0
H677 H 0.83308 0.21766 0.42118 0.0
H678 H 0.84934 0.26131 0.45346 0.0
H679 H 0.81728 0.2638 0.48287 0.0
H680 H 0.8427 0.24899 0.3884 0.0
H681 H 0.90769 0.21458 0.44727 0.0
H682 H 0.87986 0.21531 0.45739 0.0
H683 H 0.88745 0.23895 0.45544 0.0
C684 C 0.81114 0.22927 0.45143 0.0
C685 C 0.8061 0.24239 0.46905 0.0
C686 C 0.8298 0.22765 0.4347 0.0
C687 C 0.84396 0.23902 0.43521 0.0
C688 C 0.83909 0.25193 0.45293 0.0
H689 H 0.95238 0.26814 0.34055 0.0
H690 H 0.92319 0.2654 0.37277 0.0
C691 C 0.82053 0.25347 0.46971 0.0
C692 C 0.86304 0.23839 0.41645 0.0
H693 H 0.9183 0.22906 0.40751 0.0
C694 C 0.85925 0.24441 0.39261 0.0
C695 C 0.88472 0.2325 0.42181 0.0
C696 C 0.89025 0.22476 0.44685 0.0
C697 C 0.8763 0.2452 0.37416 0.0
C698 C 0.8979 0.23957 0.37956 0.0
C699 C 0.90176 0.23343 0.40335 0.0
C700 C 0.91657 0.24022 0.36072 0.0
C701 C 0.87096 0.25264 0.34904 0.0
C702 C 0.92303 0.22659 0.34349 0.0
C703 C 0.93981 0.22803 0.32508 0.0
C704 C 0.95057 0.24315 0.32344 0.0
C705 C 0.94451 0.25632 0.34116 0.0
C706 C 0.92778 0.25479 0.35963 0.0
H707 H 0.85315 0.26098 0.34831 0.0
H708 H 0.87988 0.26377 0.33923 0.0
H709 H 0.87611 0.23841 0.33983 0.0
H710 H 0.9149 0.21497 0.34414 0.0
H711 H 0.94398 0.21759 0.31184 0.0
H712 H 0.73284 0.04861 0.68042 0.0
H713 H 0.73391 0.07913 0.64883 0.0
H714 H 0.77189 0.09734 0.68823 0.0
H715 H 0.77166 0.06651 0.71913 0.0
H716 H 0.71908 0.12087 0.64503 0.0
H717 H 0.80863 0.10056 0.62706 0.0
H718 H 0.79602 0.08207 0.6459 0.0
H719 H 0.79965 0.10331 0.65755 0.0
C720 C 0.74173 0.05891 0.68222 0.0
C721 C 0.75249 0.05462 0.70239 0.0
C722 C 0.74225 0.07656 0.66407 0.0
C723 C 0.75347 0.09064 0.66544 0.0
C724 C 0.7638 0.08656 0.68587 0.0
H725 H 0.76267 0.21543 0.59664 0.0
H726 H 0.76188 0.1816 0.62189 0.0
C727 C 0.76353 0.06881 0.70381 0.0
C728 C 0.75389 0.10981 0.64609 0.0
H729 H 0.78764 0.13708 0.61268 0.0
C730 C 0.73419 0.12413 0.63778 0.0
C731 C 0.77348 0.11441 0.63604 0.0
C732 C 0.79564 0.09913 0.64191 0.0
C733 C 0.73348 0.143 0.62087 0.0
C734 C 0.75292 0.14803 0.6118 0.0
C735 C 0.77263 0.13351 0.61961 0.0
C736 C 0.75301 0.16891 0.59558 0.0
C737 C 0.71178 0.1579 0.61335 0.0
C738 C 0.74855 0.17339 0.57188 0.0
C739 C 0.74933 0.19291 0.55704 0.0
C740 C 0.75419 0.20864 0.56559 0.0
C741 C 0.7587 0.20394 0.58925 0.0
C742 C 0.75825 0.18447 0.60387 0.0
H743 H 0.69784 0.15315 0.62386 0.0
H744 H 0.7094 0.17477 0.6152 0.0
H745 H 0.7116 0.15765 0.5944 0.0
H746 H 0.7448 0.16165 0.56472 0.0
H747 H 0.74641 0.19552 0.53888 0.0
H748 H 0.94406 0.03563 0.97644 0.0
H749 H 0.91366 0.02849 0.9648 0.0
H750 H 0.95918 0.98909 0.91525 0.0
H751 H 0.9894 0.99428 0.92859 0.0
H752 H 0.89719 0.03715 0.9268 0.0
H753 H 0.9282 0.94881 0.94706 0.0
H754 H 0.94443 0.96436 0.95046 0.0
H755 H 0.94627 0.9562 0.92245 0.0
C756 C 0.9475 0.02494 0.96363 0.0
C757 C 0.96909 0.01472 0.95427 0.0
C758 C 0.93016 0.02105 0.95675 0.0
C759 C 0.93419 0.00739 0.93987 0.0
C760 C 0.95567 0.9987 0.92918 0.0
H761 H 0.86517 0.98518 0.84521 0.0
H762 H 0.8914 0.98501 0.86976 0.0
C763 C 0.97294 1.00199 0.93659 0.0
C764 C 0.91596 1.00323 0.93227 0.0
H765 H 0.90122 0.9638 0.91793 0.0
C766 C 0.89789 0.02105 0.92538 0.0
C767 C 0.91681 0.98217 0.93024 0.0
C768 C 0.93495 0.9619 0.9382 0.0
C769 C 0.88131 0.01857 0.91544 0.0
C770 C 0.88272 0.9977 0.91256 0.0
C771 C 0.90026 0.97978 0.92019 0.0
C772 C 0.86718 0.9945 0.89962 0.0
C773 C 0.86295 0.03842 0.907 0.0
C774 C 0.84507 0.99894 0.90878 0.0
C775 C 0.83002 0.99884 0.89487 0.0
C776 C 0.8369 0.99435 0.87157 0.0
C777 C 0.85933 0.98849 0.86313 0.0
C778 C 0.87434 0.98853 0.87707 0.0
H779 H 0.86601 0.05361 0.90733 0.0
H780 H 0.86059 0.03821 0.88869 0.0
H781 H 0.8475 0.03853 0.91861 0.0
H782 H 0.83935 1.00323 0.92634 0.0
H783 H 0.8129 1.00306 0.90202 0.0
H784 H 0.01713 0.01961 0.0734 0.0
H785 H 0.04861 0.02162 0.08749 0.0
H786 H 0.09161 0.98418 0.03492 0.0
H787 H 0.05993 0.98027 0.02241 0.0
H788 H 0.10892 0.97121 0.07161 0.0
H789 H 0.08308 0.05964 0.06406 0.0
H790 H 0.06215 0.05058 0.08235 0.0
H791 H 0.06873 0.04672 0.05175 0.0
C792 C 0.0333 0.0118 0.0648 0.0
C793 C 0.0361 1.00032 0.04627 0.0
C794 C 0.05132 0.01336 0.07256 0.0
C795 C 0.07254 1.00407 0.06147 0.0
C796 C 0.07539 0.99205 0.04334 0.0
H797 H 0.17096 0.03039 0.12356 0.0
H798 H 0.15026 0.03013 0.09272 0.0
C799 C 0.05731 0.99002 0.03596 0.0
C800 C 0.09166 0.00541 0.07034 0.0
H801 H 0.1081 0.03922 0.09317 0.0
C802 C 0.10893 0.98623 0.07577 0.0
C803 C 0.09225 0.02502 0.07524 0.0
C804 C 0.07565 0.04664 0.06772 0.0
C805 C 0.12568 0.98582 0.08769 0.0
C806 C 0.12469 0.00491 0.0952 0.0
C807 C 0.10857 0.02444 0.08796 0.0
C808 C 0.13848 1.00444 0.11281 0.0
C809 C 0.14397 0.96476 0.09259 0.0
C810 C 0.1384 0.99041 0.13441 0.0
C811 C 0.15025 0.99043 0.15179 0.0
C812 C 0.16216 0.00476 0.14818 0.0
C813 C 0.162 0.01911 0.12672 0.0
C814 C 0.15026 0.01892 0.10912 0.0
H815 H 0.14737 0.95498 0.07826 0.0
H816 H 0.15927 0.96743 0.09429 0.0
H817 H 0.139 0.95518 0.1093 0.0
H818 H 0.12872 0.97975 0.13812 0.0
H819 H 0.14956 0.97962 0.16841 0.0
H820 H 0.96787 0.43451 0.52352 0.0
H821 H 0.96704 0.40612 0.5038 0.0
H822 H 0.02981 0.40388 0.4642 0.0
H823 H 0.03089 0.43214 0.48405 0.0
H824 H 0.9689 0.41319 0.45287 0.0
H825 H 0.03411 0.33917 0.48632 0.0
H826 H 0.02147 0.36182 0.50225 0.0
H827 H 0.04188 0.36308 0.47726 0.0
C828 C 0.98167 0.42772 0.51094 0.0
C829 C -0.00064 0.43571 0.50528 0.0
C830 C 0.98114 0.41154 0.49966 0.0
C831 C -0.00169 0.40296 0.48254 0.0
C832 C 0.01651 0.41011 0.47761 0.0
H833 H 0.02771 0.32924 0.37151 0.0
H834 H 0.02702 0.34755 0.40376 0.0
C835 C 0.01708 0.42629 0.48896 0.0
C836 C -0.00387 0.38836 0.468 0.0
H837 H 0.02021 0.33838 0.45174 0.0
C838 C 0.97983 0.39669 0.45287 0.0
C839 C 0.01056 0.36696 0.46799 0.0
C840 C 0.02791 0.35709 0.48446 0.0
C841 C 0.97817 0.38451 0.43689 0.0
C842 C 0.99298 0.36322 0.43642 0.0
C843 C 0.00885 0.35467 0.45214 0.0
C844 C 0.99356 0.35037 0.41831 0.0
C845 C 0.96131 0.39499 0.41986 0.0
C846 C 0.97513 0.34537 0.41606 0.0
C847 C 0.97544 0.33499 0.39745 0.0
C848 C 0.99431 0.3291 0.38104 0.0
C849 C 0.013 0.33333 0.38399 0.0
C850 C 0.01261 0.34385 0.4024 0.0
H851 H 0.95507 0.41287 0.41859 0.0
H852 H 0.96818 0.39094 0.40186 0.0
H853 H 0.94723 0.389 0.42614 0.0
H854 H 0.9604 0.34982 0.42844 0.0
H855 H 0.96088 0.3317 0.3958 0.0
H856 H 0.67383 0.24866 0.54355 0.0
H857 H 0.64169 0.25049 0.57264 0.0
H858 H 0.65629 0.29477 0.60559 0.0
H859 H 0.68901 0.29265 0.57671 0.0
H860 H 0.64673 0.26268 0.6381 0.0
H861 H 0.58285 0.29695 0.57786 0.0
H862 H 0.60361 0.27287 0.56964 0.0
H863 H 0.61062 0.29672 0.56847 0.0
C864 C 0.67019 0.25903 0.55676 0.0
C865 C 0.68414 0.27059 0.55758 0.0
C866 C 0.6516 0.26015 0.57338 0.0
C867 C 0.64621 0.27307 0.59117 0.0
C868 C 0.65996 0.2848 0.59197 0.0
H869 H 0.54444 0.29272 0.71301 0.0
H870 H 0.5742 0.29532 0.68164 0.0
C871 C 0.67866 0.28363 0.57535 0.0
C872 C 0.62692 0.27338 0.60958 0.0
H873 H 0.5718 0.28203 0.61724 0.0
C874 C 0.63032 0.26714 0.63352 0.0
C875 C 0.60543 0.27907 0.60372 0.0
C876 C 0.60033 0.28698 0.57855 0.0
C877 C 0.61307 0.26593 0.65159 0.0
C878 C 0.59165 0.2714 0.6457 0.0
C879 C 0.58819 0.27776 0.62179 0.0
C880 C 0.5727 0.27057 0.66413 0.0
C881 C 0.61803 0.2582 0.67683 0.0
C882 C 0.56134 0.25629 0.66439 0.0
C883 C 0.54418 0.25479 0.68234 0.0
C884 C 0.53784 0.26769 0.70035 0.0
C885 C 0.54882 0.28246 0.69955 0.0
C886 C 0.56601 0.28389 0.68167 0.0
H887 H 0.63579 0.24973 0.6778 0.0
H888 H 0.61283 0.27231 0.68624 0.0
H889 H 0.60896 0.24709 0.68627 0.0
H890 H 0.5661 0.24593 0.65099 0.0
H891 H 0.53615 0.24324 0.68231 0.0
H892 H 0.76151 0.95952 0.84036 0.0
H893 H 0.76092 0.92859 0.87152 0.0
H894 H 0.71012 0.92028 0.8415 0.0
H895 H 0.71077 0.95094 0.81025 0.0
H896 H 0.72934 0.91917 0.90668 0.0
H897 H 0.75442 0.86007 0.84479 0.0
H898 H 0.75596 0.887 0.8357 0.0
H899 H 0.73033 0.88239 0.83792 0.0
C900 C 0.75011 0.95121 0.84037 0.0
C901 C 0.73624 0.95793 0.82247 0.0
C902 C 0.74979 0.9334 0.85833 0.0
C903 C 0.73577 0.92154 0.85891 0.0
C904 C 0.72152 0.9286 0.8414 0.0
H905 H 0.70739 0.80796 0.94114 0.0
H906 H 0.70898 0.84095 0.91468 0.0
C907 C 0.72179 0.9464 0.8235 0.0
C908 C 0.7361 0.9018 0.87752 0.0
H909 H 0.74183 0.848 0.88443 0.0
C910 C 0.73222 0.90359 0.90177 0.0
C911 C 0.73999 0.8812 0.87148 0.0
C912 C 0.74563 0.87742 0.84608 0.0
C913 C 0.73127 0.88585 0.91979 0.0
C914 C 0.73469 0.86535 0.9137 0.0
C915 C 0.73902 0.86353 0.88945 0.0
C916 C 0.73287 0.84584 0.93175 0.0
C917 C 0.72577 0.8895 0.94521 0.0
C918 C 0.74549 0.83719 0.95088 0.0
C919 C 0.74439 0.8181 0.96645 0.0
C920 C 0.73081 0.80703 0.96324 0.0
C921 C 0.71798 0.81597 0.94441 0.0
C922 C 0.71897 0.83493 0.92904 0.0
H923 H 0.71804 0.90693 0.94663 0.0
H924 H 0.71455 0.88075 0.95525 0.0
H925 H 0.74103 0.88334 0.95366 0.0
H926 H 0.75679 0.84473 0.95336 0.0
H927 H 0.7548 0.81158 0.98034 0.0
H928 H 0.17206 0.24697 0.04152 0.0
H929 H 0.13982 0.2488 0.07067 0.0
H930 H 0.15468 0.2928 0.10384 0.0
H931 H 0.18741 0.2905 0.0752 0.0
H932 H 0.145 0.2616 0.13628 0.0
H933 H 0.08106 0.29497 0.07604 0.0
H934 H 0.10166 0.27057 0.06843 0.0
H935 H 0.1089 0.29443 0.0664 0.0
C936 C 0.16848 0.25717 0.05489 0.0
C937 C 0.18252 0.26856 0.0559 0.0
C938 C 0.14982 0.25835 0.0715 0.0
C939 C 0.14447 0.27122 0.08935 0.0
C940 C 0.15831 0.28281 0.09023 0.0
H941 H 0.0426 0.29451 0.21092 0.0
H942 H 0.07212 0.29667 0.17892 0.0
C943 C 0.17705 0.28153 0.07373 0.0
C944 C 0.12517 0.27176 0.1078 0.0
H945 H 0.06988 0.28129 0.11585 0.0
C946 C 0.12856 0.2661 0.13177 0.0
C947 C 0.10362 0.27757 0.10206 0.0
C948 C 0.09851 0.28494 0.07685 0.0
C949 C 0.11124 0.26565 0.14998 0.0
C950 C 0.08978 0.27126 0.14422 0.0
C951 C 0.08632 0.27697 0.1203 0.0
C952 C 0.07083 0.27096 0.16282 0.0
C953 C 0.11615 0.25864 0.17528 0.0
C954 C 0.05973 0.25627 0.16405 0.0
C955 C 0.0428 0.255 0.18234 0.0
C956 C 0.03639 0.26856 0.19972 0.0
C957 C 0.04703 0.2838 0.19792 0.0
C958 C 0.06405 0.28497 0.17969 0.0
H959 H 0.1339 0.25034 0.17639 0.0
H960 H 0.11079 0.27306 0.1842 0.0
H961 H 0.10713 0.2476 0.1851 0.0
H962 H 0.06457 0.24537 0.1512 0.0
H963 H 0.03501 0.24309 0.18308 0.0
H964 H 0.71474 0.44872 0.30841 0.0
H965 H 0.71552 0.41773 0.33971 0.0
H966 H 0.75849 0.43386 0.37434 0.0
H967 H 0.75803 0.46486 0.34284 0.0
H968 H 0.75502 0.38179 0.35321 0.0
H969 H 0.70903 0.4245 0.42878 0.0
H970 H 0.70674 0.43733 0.39836 0.0
H971 H 0.73079 0.43331 0.41127 0.0
C972 C 0.72419 0.44594 0.32278 0.0
C973 C 0.7362 0.45964 0.32293 0.0
C974 C 0.72467 0.42804 0.34074 0.0
C975 C 0.73689 0.42332 0.35974 0.0
C976 C 0.74865 0.43713 0.36019 0.0
H977 H 0.74905 0.3167 0.48414 0.0
H978 H 0.75138 0.34987 0.4572 0.0
C979 C 0.7484 0.45493 0.34203 0.0
C980 C 0.73803 0.40345 0.37826 0.0
H981 H 0.72242 0.38642 0.43671 0.0
C982 C 0.74789 0.38288 0.37146 0.0
C983 C 0.72913 0.40454 0.40231 0.0
C984 C 0.71819 0.42605 0.41078 0.0
C985 C 0.749 0.36366 0.38772 0.0
C986 C 0.73923 0.3647 0.4116 0.0
C987 C 0.72984 0.3853 0.41856 0.0
C988 C 0.73757 0.34473 0.42891 0.0
C989 C 0.76115 0.34234 0.37905 0.0
C990 C 0.72853 0.33079 0.42274 0.0
C991 C 0.72759 0.31176 0.43795 0.0
C992 C 0.73525 0.30594 0.46025 0.0
C993 C 0.74344 0.32029 0.46705 0.0
C994 C 0.74462 0.33942 0.45158 0.0
H995 H 0.77399 0.34392 0.36408 0.0
H996 H 0.76899 0.32969 0.39335 0.0
H997 H 0.74951 0.33695 0.37252 0.0
H998 H 0.72214 0.33458 0.40596 0.0
H999 H 0.72083 0.30146 0.43203 0.0
H1000 H 0.55006 0.97059 0.54473 0.0
H1001 H 0.58065 0.97676 0.55701 0.0
H1002 H 0.53481 0.02324 0.59929 0.0
H1003 H 0.50454 0.01882 0.58504 0.0
H1004 H 0.56567 0.03777 0.57905 0.0
H1005 H 0.60409 0.95217 0.61788 0.0
H1006 H 0.60293 0.95571 0.58675 0.0
H1007 H 0.57798 0.9616 0.60693 0.0
C1008 C 0.54664 0.98251 0.55613 0.0
C1009 C 0.52502 0.99452 0.56353 0.0
C1010 C 0.56409 0.98568 0.56358 0.0
C1011 C 0.56009 1.00018 0.57947 0.0
C1012 C 0.5384 0.01197 0.58704 0.0
H1013 H 0.62523 0.02654 0.67625 0.0
H1014 H 0.59957 0.02642 0.65112 0.0
C1015 C 0.52107 0.00926 0.57906 0.0
C1016 C 0.57821 1.00314 0.58864 0.0
H1017 H 0.62245 0.97642 0.6187 0.0
C1018 C 0.57804 0.02433 0.58775 0.0
C1019 C 0.59445 0.98559 0.59999 0.0
C1020 C 0.59479 0.96252 0.60318 0.0
C1021 C 0.59314 0.02847 0.59849 0.0
C1022 C 0.6093 0.01096 0.60964 0.0
C1023 C 0.61011 0.98976 0.6098 0.0
C1024 C 0.62455 0.01423 0.62288 0.0
C1025 C 0.59144 0.0515 0.59846 0.0
C1026 C 0.647 0.00787 0.61499 0.0
C1027 C 0.66173 0.00817 0.62918 0.0
C1028 C 0.65422 0.01451 0.65166 0.0
C1029 C 0.63157 0.02188 0.65893 0.0
C1030 C 0.61687 0.02172 0.64465 0.0
H1031 H 0.58052 0.06303 0.58574 0.0
H1032 H 0.58466 0.05576 0.61638 0.0
H1033 H 0.60786 0.05341 0.59408 0.0
H1034 H 0.65317 1.00205 0.5982 0.0
H1035 H 0.67905 1.00268 0.62292 0.0
H1036 H 0.98704 0.94102 0.0134 0.0
H1037 H 0.98192 0.9121 0.99825 0.0
H1038 H 0.02804 0.92035 0.93677 0.0
H1039 H 0.03335 0.94926 0.952 0.0
H1040 H 0.965 0.91723 0.95841 0.0
H1041 H 0.04714 0.85539 0.95359 0.0
H1042 H 0.03982 0.87721 0.97039 0.0
H1043 H 0.04808 0.88148 0.93896 0.0
C1044 C -0.00352 0.93632 0.9969 0.0
C1045 C 0.01063 0.94737 0.98385 0.0
C1046 C 0.99351 0.91981 0.98827 0.0
C1047 C 0.00472 0.91392 0.96649 0.0
C1048 C 0.0196 0.92428 0.9539 0.0
H1049 H 0.97308 0.86934 0.85778 0.0
H1050 H 0.97343 0.88938 0.88798 0.0
C1051 C 0.02266 0.94078 0.96261 0.0
C1052 C -0.00067 0.89849 0.95585 0.0
H1053 H 0.02248 0.85381 0.92883 0.0
C1054 C 0.97752 0.9032 0.9522 0.0
C1055 C 0.01554 0.87989 0.94829 0.0
C1056 C 0.0389 0.87305 0.95325 0.0
C1057 C 0.97176 0.89055 0.93988 0.0
C1058 C 0.98829 0.87294 0.93073 0.0
C1059 C 0.00984 0.86747 0.93563 0.0
C1060 C 0.98417 0.86105 0.91434 0.0
C1061 C 0.94811 0.89636 0.93648 0.0
C1062 C 0.98976 0.83848 0.91923 0.0
C1063 C 0.98951 0.82694 0.90197 0.0
C1064 C 0.9839 0.83777 0.8794 0.0
C1065 C 0.97717 0.86049 0.87505 0.0
C1066 C 0.97737 0.872 0.89233 0.0
H1067 H 0.93699 0.90503 0.95071 0.0
H1068 H 0.94509 0.90725 0.91936 0.0
H1069 H 0.94395 0.88175 0.93622 0.0
H1070 H -0.00491 0.82973 0.9361 0.0
H1071 H 0.99449 0.80948 0.906 0.0
H1072 H 0.05184 0.09049 0.01298 0.0
H1073 H 0.05973 0.11315 0.03553 0.0
H1074 H 0.12823 0.07531 0.02665 0.0
H1075 H 0.12031 0.05202 1.0051 0.0
H1076 H 0.11467 0.08614 0.07116 0.0
H1077 H 0.08612 0.15859 1.00263 0.0
H1078 H 0.06652 0.14575 0.01757 0.0
H1079 H 0.08926 0.13189 0.99796 0.0
C1080 C 0.06856 0.08696 0.01595 0.0
C1081 C 0.08548 0.0695 1.00723 0.0
C1082 C 0.07302 0.09994 0.0288 0.0
C1083 C 0.09457 0.09609 0.03247 0.0
C1084 C 0.11143 0.07848 0.02412 0.0
H1085 H 0.19282 0.13492 0.03109 0.0
H1086 H 0.16593 0.11638 0.04468 0.0
C1087 C 0.10692 0.06524 0.01171 0.0
C1088 C 0.10029 0.11113 0.04324 0.0
H1089 H 0.10712 0.16046 0.02926 0.0
C1090 C 0.11257 0.10261 0.06241 0.0
C1091 C 0.09709 0.13277 0.03215 0.0
C1092 C 0.08414 0.14285 0.01138 0.0
C1093 C 0.12378 0.11434 0.06902 0.0
C1094 C 0.12261 0.13497 0.05608 0.0
C1095 C 0.10808 0.14453 0.03904 0.0
C1096 C 0.13977 0.14454 0.05531 0.0
C1097 C 0.13796 0.10398 0.08865 0.0
C1098 C 0.13417 0.1664 0.0573 0.0
C1099 C 0.14956 0.17706 0.04934 0.0
C1100 C 0.17058 0.16601 0.03901 0.0
C1101 C 0.17664 0.14378 0.03879 0.0
C1102 C 0.16136 0.13311 0.04691 0.0
H1103 H 0.13071 0.09334 0.1024 0.0
H1104 H 0.15423 0.09375 0.08131 0.0
H1105 H 0.14026 0.1163 0.09705 0.0
H1106 H 0.11752 0.17554 0.06341 0.0
H1107 H 0.14452 0.19426 0.04962 0.0
H1108 H 0.7064 0.58373 0.25519 0.0
H1109 H 0.67046 0.61129 0.25438 0.0
H1110 H 0.63997 0.56249 0.28252 0.0
H1111 H 0.67644 0.53446 0.28351 0.0
H1112 H 0.63571 0.61545 0.23038 0.0
H1113 H 0.61126 0.60776 0.32786 0.0
H1114 H 0.63925 0.59636 0.3151 0.0
H1115 H 0.61957 0.58365 0.31469 0.0
C1116 C 0.6921 0.57874 0.26127 0.0
C1117 C 0.69435 0.55686 0.2696 0.0
C1118 C 0.67148 0.59459 0.26072 0.0
C1119 C 0.65238 0.58915 0.26864 0.0
C1120 C 0.65444 0.56721 0.27666 0.0
H1121 H 0.5211 0.69116 0.28103 0.0
H1122 H 0.54885 0.65489 0.28057 0.0
C1123 C 0.67527 0.55117 0.27709 0.0
C1124 C 0.63066 0.6068 0.26825 0.0
H1125 H 0.58797 0.63624 0.30408 0.0
C1126 C 0.62513 0.61976 0.2465 0.0
C1127 C 0.61667 0.61252 0.28921 0.0
C1128 C 0.62191 0.5995 0.31312 0.0
C1129 C 0.60661 0.63856 0.24522 0.0
C1130 C 0.59332 0.64496 0.26627 0.0
C1131 C 0.59813 0.63142 0.28793 0.0
C1132 C 0.57599 0.6667 0.26628 0.0
C1133 C 0.6017 0.65168 0.22126 0.0
C1134 C 0.58192 0.6854 0.25861 0.0
C1135 C 0.56623 0.70594 0.25896 0.0
C1136 C 0.54409 0.70845 0.26703 0.0
C1137 C 0.53799 0.68977 0.27462 0.0
C1138 C 0.55386 0.66905 0.27443 0.0
H1139 H 0.60871 0.64157 0.207 0.0
H1140 H 0.58381 0.65931 0.22068 0.0
H1141 H 0.60915 0.66468 0.21753 0.0
H1142 H 0.59886 0.68413 0.25263 0.0
H1143 H 0.57154 0.71993 0.253 0.0
H1144 H 0.36791 0.77826 0.53373 0.0
H1145 H 0.39894 0.79141 0.5291 0.0
H1146 H 0.36359 0.85023 0.48667 0.0
H1147 H 0.33277 0.83708 0.49091 0.0
H1148 H 0.41114 0.83648 0.47456 0.0
H1149 H 0.38255 0.83883 0.57084 0.0
H1150 H 0.39168 0.81306 0.56101 0.0
H1151 H 0.36703 0.83344 0.55196 0.0
C1152 C 0.36707 0.79373 0.52287 0.0
C1153 C 0.34783 0.80691 0.5131 0.0
C1154 C 0.38481 0.80114 0.52014 0.0
C1155 C 0.38331 0.82193 0.50795 0.0
C1156 C 0.36503 0.83412 0.49614 0.0
H1157 H 0.40361 0.93661 0.49843 0.0
H1158 H 0.40186 0.90299 0.4905 0.0
C1159 C 0.3474 0.82663 0.49864 0.0
C1160 C 0.39806 0.8329 0.51142 0.0
H1161 H 0.40506 0.85878 0.55218 0.0
C1162 C 0.41031 0.84097 0.49162 0.0
C1163 C 0.39705 0.83856 0.53378 0.0
C1164 C 0.38382 0.83067 0.55564 0.0
C1165 C 0.42044 0.85571 0.49335 0.0
C1166 C 0.41767 0.86284 0.51525 0.0
C1167 C 0.40705 0.85334 0.53539 0.0
C1168 C 0.42227 0.88239 0.5172 0.0
C1169 C 0.43339 0.86405 0.47162 0.0
C1170 C 0.43401 0.88203 0.53509 0.0
C1171 C 0.43461 0.90129 0.53999 0.0
C1172 C 0.42353 0.92117 0.527 0.0
C1173 C 0.41234 0.92146 0.50864 0.0
C1174 C 0.41163 0.90224 0.50385 0.0
H1175 H 0.44098 0.85171 0.45969 0.0
H1176 H 0.42228 0.87848 0.46161 0.0
H1177 H 0.44644 0.86869 0.47641 0.0
H1178 H 0.44212 0.8669 0.54576 0.0
H1179 H 0.4437 0.90065 0.55395 0.0
H1180 H 0.07341 0.71973 0.75884 0.0
H1181 H 0.10055 0.68391 0.75756 0.0
H1182 H 0.05019 0.65482 0.78364 0.0
H1183 H 0.02262 0.69107 0.78499 0.0
H1184 H 0.0894 0.63531 0.80724 0.0
H1185 H 0.10965 0.64307 0.70992 0.0
H1186 H 0.11014 0.66571 0.72137 0.0
H1187 H 0.08479 0.66042 0.72414 0.0
C1188 C 0.068 0.70576 0.76422 0.0
C1189 C 0.04583 0.70827 0.77198 0.0
C1190 C 0.08357 0.68524 0.76335 0.0
C1191 C 0.07746 0.6666 0.77019 0.0
C1192 C 0.0553 0.66896 0.77812 0.0
H1193 H 0.17737 0.53422 0.78379 0.0
H1194 H 0.14093 0.5623 0.78324 0.0
C1195 C 0.03957 0.68965 0.77884 0.0
C1196 C 0.0946 0.64488 0.76955 0.0
H1197 H 0.13662 0.61616 0.73272 0.0
C1198 C 0.09945 0.63084 0.7909 0.0
C1199 C 0.10771 0.63898 0.74824 0.0
C1200 C 0.1027 0.65273 0.72458 0.0
C1201 C 0.11791 0.61188 0.79167 0.0
C1202 C 0.13173 0.60666 0.77048 0.0
C1203 C 0.12614 0.62012 0.749 0.0
C1204 C 0.15341 0.58903 0.77044 0.0
C1205 C 0.12325 0.59828 0.8153 0.0
C1206 C 0.1725 0.59454 0.76295 0.0
C1207 C 0.1931 0.57867 0.76323 0.0
C1208 C 0.19529 0.55673 0.77087 0.0
C1209 C 0.17621 0.55099 0.77789 0.0
C1210 C 0.15541 0.56704 0.77772 0.0
H1211 H 0.11266 0.60613 0.83032 0.0
H1212 H 0.12092 0.5825 0.81632 0.0
H1213 H 0.14061 0.59503 0.8173 0.0
H1214 H 0.17148 0.6113 0.75718 0.0
H1215 H 0.20742 0.58367 0.75752 0.0
H1216 H 0.84065 0.33265 0.52568 0.0
H1217 H 0.87007 0.34739 0.50983 0.0
H1218 H 0.85229 0.35868 0.43948 0.0
H1219 H 0.82181 0.3448 0.45555 0.0
H1220 H 0.90652 0.33716 0.47511 0.0
H1221 H 0.84669 0.4189 0.4492 0.0
H1222 H 0.83726 0.39776 0.46726 0.0
H1223 H 0.84747 0.3963 0.43662 0.0
C1224 C 0.84279 0.33845 0.50687 0.0
C1225 C 0.82854 0.33808 0.49198 0.0
C1226 C 0.85989 0.34651 0.49774 0.0
C1227 C 0.86329 0.35425 0.47349 0.0
C1228 C 0.84979 0.35299 0.45828 0.0
H1229 H 0.93252 0.44222 0.47763 0.0
H1230 H 0.9263 0.41875 0.45445 0.0
C1231 C 0.83246 0.345 0.46749 0.0
C1232 C 0.87946 0.3657 0.4655 0.0
H1233 H 0.87954 0.41723 0.46003 0.0
C1234 C 0.90098 0.35465 0.47078 0.0
C1235 C 0.87241 0.38848 0.45928 0.0
C1236 C 0.84973 0.40119 0.45274 0.0
C1237 C 0.91425 0.366 0.47379 0.0
C1238 C 0.90567 0.3887 0.47143 0.0
C1239 C 0.88581 0.39973 0.46216 0.0
C1240 C 0.91308 0.40048 0.4849 0.0
C1241 C 0.93631 0.35373 0.48203 0.0
C1242 C 0.9075 0.39797 0.50956 0.0
C1243 C 0.90974 0.41213 0.52253 0.0
C1244 C 0.91783 0.42886 0.51101 0.0
C1245 C 0.925 0.43026 0.48658 0.0
C1246 C 0.92214 0.41648 0.47348 0.0
H1247 H 0.9434 0.33767 0.47613 0.0
H1248 H 0.94783 0.36299 0.47529 0.0
H1249 H 0.93447 0.35114 0.50166 0.0
H1250 H 0.90013 0.38586 0.51859 0.0
H1251 H 0.90421 0.4106 0.54134 0.0
H1252 H 0.27808 0.93247 0.254 0.0
H1253 H 0.31382 0.90448 0.25317 0.0
H1254 H 0.34509 0.95322 0.23793 0.0
H1255 H 0.30888 0.98166 0.2387 0.0
H1256 H 0.34724 0.89841 0.21519 0.0
H1257 H 0.37581 0.91059 0.29356 0.0
H1258 H 0.34743 0.92164 0.28857 0.0
H1259 H 0.36679 0.9338 0.27127 0.0
C1260 C 0.29251 0.93736 0.25049 0.0
C1261 C 0.29055 0.95938 0.24647 0.0
C1262 C 0.31301 0.92125 0.25005 0.0
C1263 C 0.33229 0.92658 0.2457 0.0
C1264 C 0.33051 0.9486 0.24172 0.0
H1265 H 0.46454 0.8249 0.24079 0.0
H1266 H 0.43638 0.86116 0.23786 0.0
C1267 C 0.3098 0.96487 0.2421 0.0
C1268 C 0.3539 0.90878 0.24465 0.0
H1269 H 0.39838 0.88114 0.27454 0.0
C1270 C 0.35854 0.89487 0.22798 0.0
C1271 C 0.36881 0.90406 0.26125 0.0
C1272 C 0.36455 0.91816 0.27982 0.0
C1273 C 0.37708 0.87612 0.22797 0.0
C1274 C 0.39141 0.8708 0.24527 0.0
C1275 C 0.38743 0.88519 0.26126 0.0
C1276 C 0.40896 0.84924 0.24843 0.0
C1277 C 0.38092 0.86179 0.20972 0.0
C1278 C 0.40301 0.83055 0.25586 0.0
C1279 C 0.41891 0.81005 0.25759 0.0
C1280 C 0.44131 0.80755 0.25193 0.0
C1281 C 0.44744 0.82627 0.24518 0.0
C1282 C 0.43136 0.84697 0.24352 0.0
H1283 H 0.3722 0.8707 0.19414 0.0
H1284 H 0.39864 0.85495 0.2036 0.0
H1285 H 0.37473 0.84816 0.21775 0.0
H1286 H 0.38591 0.83181 0.26005 0.0
H1287 H 0.41355 0.79605 0.26308 0.0
H1288 H 0.3107 0.47894 0.74091 0.0
H1289 H 0.34721 0.45084 0.73935 0.0
H1290 H 0.31684 0.40138 0.76012 0.0
H1291 H 0.28084 0.42895 0.76183 0.0
H1292 H 0.36649 0.41188 0.7776 0.0
H1293 H 0.3566 0.38969 0.69495 0.0
H1294 H 0.34114 0.41564 0.70398 0.0
H1295 H 0.33334 0.39226 0.7173 0.0
C1296 C 0.3119 0.46206 0.74529 0.0
C1297 C 0.29286 0.45618 0.75128 0.0
C1298 C 0.33274 0.44604 0.74441 0.0
C1299 C 0.33475 0.42397 0.74936 0.0
C1300 C 0.31573 0.41825 0.75596 0.0
H1301 H 0.41421 0.29402 0.76099 0.0
H1302 H 0.38722 0.33013 0.75942 0.0
C1303 C 0.29512 0.43409 0.75691 0.0
C1304 C 0.35637 0.40652 0.74708 0.0
H1305 H 0.38366 0.36355 0.71779 0.0
C1306 C 0.37058 0.40158 0.7642 0.0
C1307 C 0.36169 0.39305 0.72961 0.0
C1308 C 0.34751 0.39798 0.71026 0.0
C1309 C 0.38922 0.38277 0.76513 0.0
C1310 C 0.39379 0.36867 0.74845 0.0
C1311 C 0.38017 0.37429 0.73063 0.0
C1312 C 0.41094 0.34688 0.75061 0.0
C1313 C 0.40321 0.37737 0.78474 0.0
C1314 C 0.43344 0.34414 0.74633 0.0
C1315 C 0.4491 0.32328 0.74711 0.0
C1316 C 0.44244 0.30489 0.7522 0.0
C1317 C 0.41993 0.3078 0.75691 0.0
C1318 C 0.40443 0.32848 0.75603 0.0
H1319 H 0.39637 0.38895 0.79757 0.0
H1320 H 0.40485 0.36081 0.79438 0.0
H1321 H 0.41986 0.37766 0.77705 0.0
H1322 H 0.43888 0.35811 0.74187 0.0
H1323 H 0.46631 0.32157 0.74333 0.0
H1324 H 0.17089 0.75001 0.5411 0.0
H1325 H 0.13905 0.75226 0.5708 0.0
H1326 H 0.15217 0.80017 0.59918 0.0
H1327 H 0.1845 0.79775 0.56961 0.0
H1328 H 0.14441 0.76833 0.63393 0.0
H1329 H 0.07908 0.79726 0.5757 0.0
H1330 H 0.10048 0.77332 0.56811 0.0
H1331 H 0.10639 0.79804 0.56513 0.0
C1332 C 0.1669 0.76133 0.55336 0.0
C1333 C 0.18034 0.77381 0.55273 0.0
C1334 C 0.14851 0.76266 0.57036 0.0
C1335 C 0.14285 0.77664 0.58712 0.0
C1336 C 0.15604 0.78935 0.58638 0.0
H1337 H 0.04385 0.79585 0.71185 0.0
H1338 H 0.0725 0.79907 0.67931 0.0
C1339 C 0.17451 0.78803 0.56935 0.0
C1340 C 0.12401 0.77695 0.60618 0.0
H1341 H 0.06932 0.78329 0.61592 0.0
C1342 C 0.12796 0.77184 0.62996 0.0
C1343 C 0.10247 0.78139 0.60115 0.0
C1344 C 0.09676 0.78802 0.57615 0.0
C1345 C 0.11123 0.77049 0.64867 0.0
C1346 C 0.08975 0.77471 0.64363 0.0
C1347 C 0.08574 0.77999 0.61987 0.0
C1348 C 0.07132 0.77358 0.66277 0.0
C1349 C 0.11689 0.76387 0.6737 0.0
C1350 C 0.06039 0.75872 0.66398 0.0
C1351 C 0.04381 0.7569 0.68258 0.0
C1352 C 0.03763 0.77003 0.70036 0.0
C1353 C 0.04814 0.78539 0.69862 0.0
C1354 C 0.06471 0.78716 0.68005 0.0
H1355 H 0.13477 0.75595 0.67422 0.0
H1356 H 0.1116 0.77845 0.68236 0.0
H1357 H 0.10836 0.75262 0.68417 0.0
H1358 H 0.06506 0.74813 0.65081 0.0
H1359 H 0.03617 0.74488 0.68327 0.0
H1360 H 0.26193 0.96152 0.33912 0.0
H1361 H 0.26133 0.93041 0.37005 0.0
H1362 H 0.20847 0.92424 0.34172 0.0
H1363 H 0.20881 0.9554 0.31091 0.0
H1364 H 0.2252 0.92216 0.4059 0.0
H1365 H 0.25712 0.86342 0.3428 0.0
H1366 H 0.25964 0.89007 0.33565 0.0
H1367 H 0.234 0.88663 0.33486 0.0
C1368 C 0.25001 0.9537 0.33952 0.0
C1369 C 0.2354 0.9612 0.32229 0.0
C1370 C 0.2497 0.93583 0.35732 0.0
C1371 C 0.23501 0.92463 0.35829 0.0
C1372 C 0.22016 0.93231 0.34139 0.0
H1373 H 0.21215 0.80673 0.43404 0.0
H1374 H 0.21351 0.84004 0.40825 0.0
C1375 C 0.22029 0.95031 0.32375 0.0
C1376 C 0.2355 0.90469 0.37647 0.0
H1377 H 0.24529 0.85023 0.38199 0.0
C1378 C 0.22969 0.90641 0.40069 0.0
C1379 C 0.2414 0.88398 0.36992 0.0
C1380 C 0.24858 0.88072 0.34444 0.0
C1381 C 0.22882 0.88833 0.41822 0.0
C1382 C 0.23452 0.86757 0.41164 0.0
C1383 C 0.24079 0.86591 0.3874 0.0
C1384 C 0.23298 0.84759 0.42903 0.0
C1385 C 0.22089 0.89193 0.44351 0.0
C1386 C 0.24322 0.84025 0.44996 0.0
C1387 C 0.24212 0.82103 0.46522 0.0
C1388 C 0.2311 0.80842 0.45973 0.0
C1389 C 0.22081 0.8159 0.43897 0.0
C1390 C 0.22167 0.83506 0.42401 0.0
H1391 H 0.21143 0.90918 0.44465 0.0
H1392 H 0.21043 0.88202 0.45243 0.0
H1393 H 0.2352 0.88725 0.45329 0.0
H1394 H 0.25256 0.84905 0.45428 0.0
H1395 H 0.25033 0.81577 0.48091 0.0
H1396 H 0.02138 0.67183 0.63374 0.0
H1397 H 0.02011 0.64982 0.60567 0.0
H1398 H 0.95365 0.65498 0.63528 0.0
H1399 H 0.9547 0.67713 0.66292 0.0
H1400 H 0.01448 0.61126 0.61518 0.0
H1401 H 0.94749 0.66878 0.56611 0.0
H1402 H 0.96055 0.67719 0.58513 0.0
H1403 H 0.93911 0.66579 0.5974 0.0
C1404 C 0.00644 0.66846 0.63402 0.0
C1405 C 0.98806 0.67642 0.65035 0.0
C1406 C 0.00571 0.65593 0.61798 0.0
C1407 C 0.98662 0.65111 0.61801 0.0
C1408 C 0.9683 0.65906 0.63433 0.0
H1409 H 0.94965 0.55985 0.56614 0.0
H1410 H 0.95123 0.58913 0.58407 0.0
C1411 C 0.96895 0.6717 0.65019 0.0
C1412 C 0.98624 0.63649 0.60231 0.0
H1413 H 0.95613 0.63119 0.56363 0.0
C1414 C 0.00191 0.61574 0.60365 0.0
C1415 C 0.96986 0.64234 0.58719 0.0
C1416 C 0.95346 0.66482 0.58367 0.0
C1417 C 0.00111 0.60039 0.59109 0.0
C1418 C 0.98424 0.60602 0.5767 0.0
C1419 C 0.9689 0.6269 0.57486 0.0
C1420 C 0.98206 0.59017 0.5639 0.0
C1421 C 0.01791 0.57805 0.59388 0.0
C1422 C -0.00157 0.58175 0.54601 0.0
C1423 C -0.00248 0.56517 0.53567 0.0
C1424 C 0.9802 0.55669 0.54304 0.0
C1425 C 0.96316 0.56604 0.56001 0.0
C1426 C 0.96408 0.5827 0.57034 0.0
H1427 H 0.02689 0.57494 0.60929 0.0
H1428 H 0.01011 0.56545 0.59602 0.0
H1429 H 0.03002 0.5764 0.57774 0.0
H1430 H 0.01223 0.58758 0.54049 0.0
H1431 H 0.01079 0.55855 0.52242 0.0
H1432 H 0.31417 0.76588 0.48115 0.0
H1433 H 0.3463 0.76469 0.45182 0.0
H1434 H 0.33008 0.72332 0.41607 0.0
H1435 H 0.29759 0.72493 0.4449 0.0
H1436 H 0.38261 0.73247 0.43821 0.0
H1437 H 0.33526 0.77066 0.36217 0.0
H1438 H 0.32244 0.76986 0.39242 0.0
H1439 H 0.32988 0.74664 0.37788 0.0
C1440 C 0.31739 0.7565 0.46708 0.0
C1441 C 0.30301 0.74572 0.46535 0.0
C1442 C 0.33586 0.75581 0.45028 0.0
C1443 C 0.34046 0.74433 0.43129 0.0
C1444 C 0.32663 0.73283 0.43008 0.0
H1445 H 0.44081 0.7223 0.30953 0.0
H1446 H 0.41142 0.72071 0.3418 0.0
C1447 C 0.30809 0.73362 0.44677 0.0
C1448 C 0.35957 0.74449 0.41274 0.0
H1449 H 0.3738 0.75587 0.353 0.0
C1450 C 0.38064 0.73769 0.4196 0.0
C1451 C 0.35714 0.75141 0.38836 0.0
C1452 C 0.33495 0.76026 0.37975 0.0
C1453 C 0.39925 0.73713 0.40282 0.0
C1454 C 0.3968 0.74374 0.37847 0.0
C1455 C 0.37576 0.75064 0.37162 0.0
C1456 C 0.41576 0.74376 0.35974 0.0
C1457 C 0.42146 0.72903 0.41126 0.0
C1458 C 0.42817 0.7572 0.359 0.0
C1459 C 0.44503 0.75819 0.34047 0.0
C1460 C 0.4499 0.74576 0.32221 0.0
C1461 C 0.43769 0.73202 0.32328 0.0
C1462 C 0.42078 0.73114 0.34172 0.0
H1463 H 0.42124 0.71981 0.4295 0.0
H1464 H 0.43382 0.71854 0.39925 0.0
H1465 H 0.42669 0.74303 0.41132 0.0
H1466 H 0.42443 0.76739 0.37241 0.0
H1467 H 0.45393 0.76907 0.34023 0.0
H1468 H 0.22968 0.052 0.18072 0.0
H1469 H 0.23111 0.08219 0.14882 0.0
H1470 H 0.27386 0.09712 0.18509 0.0
H1471 H 0.27323 0.06661 0.21628 0.0
H1472 H 0.2185 0.12389 0.14576 0.0
H1473 H 0.30793 0.09907 0.12205 0.0
H1474 H 0.29484 0.0814 0.1418 0.0
H1475 H 0.30099 0.10157 0.15276 0.0
C1476 C 0.23969 0.06148 0.18173 0.0
C1477 C 0.25164 0.05641 0.2011 0.0
C1478 C 0.24042 0.07893 0.16343 0.0
C1479 C 0.25304 0.09198 0.16387 0.0
C1480 C 0.26462 0.08709 0.18347 0.0
H1481 H 0.26712 0.21452 0.0926 0.0
H1482 H 0.26615 0.18088 0.1184 0.0
C1483 C 0.26413 0.06954 0.20156 0.0
C1484 C 0.25357 0.111 0.14448 0.0
H1485 H 0.28806 0.13626 0.10877 0.0
C1486 C 0.23378 0.12633 0.1375 0.0
C1487 C 0.2734 0.11451 0.13316 0.0
C1488 C 0.29547 0.09813 0.13764 0.0
C1489 C 0.23328 0.14514 0.12063 0.0
C1490 C 0.25305 0.14905 0.11026 0.0
C1491 C 0.27282 0.13354 0.11675 0.0
C1492 C 0.25357 0.16963 0.09378 0.0
C1493 C 0.21151 0.16115 0.11454 0.0
C1494 C 0.24716 0.17473 0.07087 0.0
C1495 C 0.24804 0.19404 0.05577 0.0
C1496 C 0.25502 0.20891 0.06329 0.0
C1497 C 0.26156 0.20361 0.08611 0.0
C1498 C 0.26099 0.18428 0.101 0.0
H1499 H 0.19757 0.15738 0.12636 0.0
H1500 H 0.21061 0.17776 0.11572 0.0
H1501 H 0.20973 0.16093 0.09604 0.0
H1502 H 0.24167 0.16368 0.06456 0.0
H1503 H 0.24328 0.19732 0.03828 0.0
H1504 H 0.81631 0.76563 0.98096 0.0
H1505 H 0.84821 0.76351 0.9513 0.0
H1506 H 0.83522 0.71565 0.92267 0.0
H1507 H 0.80281 0.71809 0.95196 0.0
H1508 H 0.88566 0.7315 0.94077 0.0
H1509 H 0.83854 0.75931 0.864 0.0
H1510 H 0.82549 0.76069 0.89402 0.0
H1511 H 0.83483 0.73556 0.88264 0.0
C1512 C 0.82017 0.75457 0.96845 0.0
C1513 C 0.80669 0.74218 0.96886 0.0
C1514 C 0.83854 0.75337 0.95143 0.0
C1515 C 0.84398 0.73978 0.93428 0.0
C1516 C 0.83111 0.72672 0.93522 0.0
H1517 H 0.94629 0.71795 0.81318 0.0
H1518 H 0.91716 0.71521 0.84544 0.0
C1519 C 0.81263 0.72799 0.95219 0.0
C1520 C 0.86297 0.73953 0.91542 0.0
H1521 H 0.87713 0.7478 0.85537 0.0
C1522 C 0.88375 0.7351 0.92211 0.0
C1523 C 0.86061 0.7443 0.89097 0.0
C1524 C 0.83864 0.75044 0.88241 0.0
C1525 C 0.90213 0.73504 0.90516 0.0
C1526 C 0.89974 0.73978 0.88075 0.0
C1527 C 0.87903 0.74407 0.87404 0.0
C1528 C 0.91838 0.74075 0.86187 0.0
C1529 C 0.92405 0.72956 0.91353 0.0
C1530 C 0.92889 0.75603 0.86023 0.0
C1531 C 0.94558 0.75767 0.84173 0.0
C1532 C 0.95219 0.74408 0.82437 0.0
C1533 C 0.94181 0.72861 0.82625 0.0
C1534 C 0.92505 0.72705 0.84468 0.0
H1535 H 0.92434 0.72096 0.93206 0.0
H1536 H 0.93732 0.71936 0.90199 0.0
H1537 H 0.92752 0.74472 0.91285 0.0
H1538 H 0.92383 0.76707 0.87295 0.0
H1539 H 0.95302 0.7699 0.84083 0.0
H1540 H 0.28055 0.55753 0.70847 0.0
H1541 H 0.28085 0.58812 0.67703 0.0
H1542 H 0.22211 0.587 0.65596 0.0
H1543 H 0.22199 0.55601 0.6871 0.0
H1544 H 0.24956 0.59524 0.61712 0.0
H1545 H 0.24314 0.64967 0.67943 0.0
H1546 H 0.26671 0.62578 0.68171 0.0
H1547 H 0.23974 0.62356 0.68938 0.0
C1548 C 0.26771 0.56365 0.69712 0.0
C1549 C 0.2512 0.55412 0.70063 0.0
C1550 C 0.2678 0.5814 0.67913 0.0
C1551 C 0.25122 0.5905 0.66417 0.0
C1552 C 0.23508 0.58059 0.66717 0.0
H1553 H 0.21832 0.72226 0.58695 0.0
H1554 H 0.21986 0.68825 0.6131 0.0
C1555 C 0.23503 0.56275 0.6851 0.0
C1556 C 0.25052 0.61041 0.64577 0.0
H1557 H 0.24977 0.66279 0.63867 0.0
C1558 C 0.24959 0.61 0.6219 0.0
C1559 C 0.25025 0.63 0.65168 0.0
C1560 C 0.24979 0.63243 0.67696 0.0
C1561 C 0.2486 0.62828 0.60405 0.0
C1562 C 0.24887 0.64771 0.6099 0.0
C1563 C 0.24972 0.64807 0.6338 0.0
C1564 C 0.24717 0.66823 0.59211 0.0
C1565 C 0.24665 0.62667 0.5792 0.0
C1566 C 0.2617 0.66883 0.57093 0.0
C1567 C 0.26063 0.68855 0.55557 0.0
C1568 C 0.24513 0.70822 0.56112 0.0
C1569 C 0.23045 0.70748 0.58201 0.0
C1570 C 0.23139 0.68791 0.59713 0.0
H1571 H 0.24016 0.61354 0.57892 0.0
H1572 H 0.23581 0.64207 0.57043 0.0
H1573 H 0.26309 0.62299 0.56873 0.0
H1574 H 0.2744 0.65417 0.56659 0.0
H1575 H 0.2724 0.6885 0.53985 0.0
H1576 H 0.31408 0.02285 0.38332 0.0
H1577 H 0.3382 0.02443 0.4095 0.0
H1578 H 0.38495 0.96401 0.39222 0.0
H1579 H 0.36092 0.96235 0.36585 0.0
H1580 H 0.35975 0.99672 0.4484 0.0
H1581 H 0.41718 0.00862 0.36791 0.0
H1582 H 0.38949 0.0103 0.36661 0.0
H1583 H 0.41041 0.98438 0.37136 0.0
C1584 C 0.3292 0.00957 0.38563 0.0
C1585 C 0.33576 0.99257 0.37236 0.0
C1586 C 0.34298 0.01055 0.40051 0.0
C1587 C 0.36348 0.99458 0.40235 0.0
C1588 C 0.36932 0.97671 0.39062 0.0
H1589 H 0.48166 0.97563 0.45513 0.0
H1590 H 0.45097 0.974 0.43883 0.0
C1591 C 0.35561 0.97576 0.37563 0.0
C1592 C 0.37959 0.99764 0.41457 0.0
H1593 H 0.42964 1.00413 0.40475 0.0
C1594 C 0.37504 0.99838 0.43895 0.0
C1595 C 0.39924 1.0003 0.40198 0.0
C1596 C 0.40434 1.00109 0.37548 0.0
C1597 C 0.3902 1.00073 0.45131 0.0
C1598 C 0.41023 1.00255 0.43882 0.0
C1599 C 0.41437 1.0025 0.41432 0.0
C1600 C 0.4279 1.00318 0.45069 0.0
C1601 C 0.38487 1.0007 0.47763 0.0
C1602 C 0.42507 0.02022 0.46279 0.0
C1603 C 0.44269 0.02117 0.47223 0.0
C1604 C 0.46328 0.00524 0.46938 0.0
C1605 C 0.46597 0.98821 0.4574 0.0
C1606 C 0.44844 0.98717 0.44823 0.0
H1607 H 0.37133 0.99415 0.48533 0.0
H1608 H 0.39939 0.99101 0.48674 0.0
H1609 H 0.3798 0.01751 0.48121 0.0
H1610 H 0.40945 0.03298 0.46445 0.0
H1611 H 0.44036 0.03449 0.48132 0.0
H1612 H 0.83258 0.84179 0.9861 0.0
H1613 H 0.86386 0.85425 0.98236 0.0
H1614 H 0.88808 0.80626 0.04185 0.0
H1615 H 0.85648 0.79417 0.04597 0.0
H1616 H 0.87856 0.84626 0.04985 0.0
H1617 H 0.9292 0.8388 0.96303 0.0
H1618 H 0.90063 0.85031 0.95988 0.0
H1619 H 0.91123 0.82304 0.97496 0.0
C1620 C 0.845 0.83346 0.99783 0.0
C1621 C 0.84206 0.81733 0.01656 0.0
C1622 C 0.86299 0.84042 0.99554 0.0
C1623 C 0.8784 0.83107 0.01174 0.0
C1624 C 0.87643 0.81361 0.02912 0.0
H1625 H 0.94661 0.90723 0.05163 0.0
H1626 H 0.94033 0.87444 0.04699 0.0
C1627 C 0.85834 0.80685 0.03158 0.0
C1628 C 0.89311 0.84262 0.01398 0.0
H1629 H 0.92836 0.86816 0.98211 0.0
C1630 C 0.88995 0.85055 0.03526 0.0
C1631 C 0.90778 0.84831 0.99486 0.0
C1632 C 0.91257 0.83946 0.97198 0.0
C1633 C 0.8997 0.86535 0.03742 0.0
C1634 C 0.9135 0.87196 0.01789 0.0
C1635 C 0.91776 0.86304 0.99703 0.0
C1636 C 0.92112 0.89014 0.01793 0.0
C1637 C 0.89374 0.87501 0.05998 0.0
C1638 C 0.91335 0.90942 1.00233 0.0
C1639 C 0.91705 0.928 1.00482 0.0
C1640 C 0.92844 0.92759 0.02307 0.0
C1641 C 0.93725 0.90801 0.03786 0.0
C1642 C 0.93381 0.88932 0.03512 0.0
H1643 H 0.87962 0.87122 0.07138 0.0
H1644 H 0.90789 0.86837 0.07027 0.0
H1645 H 0.88959 0.89285 0.05599 0.0
H1646 H 0.90352 0.91035 0.98893 0.0
H1647 H 0.91028 0.9429 0.99307 0.0
H1648 H 0.68399 0.14756 0.55441 0.0
H1649 H 0.65824 0.12738 0.56113 0.0
H1650 H 0.61173 0.18238 0.52477 0.0
H1651 H 0.63749 0.20245 0.51787 0.0
H1652 H 0.60062 0.14108 0.57072 0.0
H1653 H 0.65132 0.12723 0.48347 0.0
H1654 H 0.66268 0.13113 0.50733 0.0
H1655 H 0.64267 0.15342 0.49241 0.0
C1656 C 0.66781 0.15562 0.54901 0.0
C1657 C 0.66256 0.17631 0.53551 0.0
C1658 C 0.65311 0.14419 0.55295 0.0
C1659 C 0.63322 0.15348 0.54337 0.0
C1660 C 0.62693 0.17513 0.53249 0.0
H1661 H 0.57283 0.09027 0.47662 0.0
H1662 H 0.58284 0.11718 0.48984 0.0
C1663 C 0.64165 0.18649 0.52843 0.0
C1664 C 0.62266 0.13925 0.53828 0.0
H1665 H 0.62493 0.11028 0.49589 0.0
C1666 C 0.60581 0.13431 0.55441 0.0
C1667 C 0.62952 0.13071 0.51686 0.0
C1668 C 0.64754 0.13578 0.49893 0.0
C1669 C 0.59558 0.12077 0.54955 0.0
C1670 C 0.60277 0.11196 0.52825 0.0
C1671 C 0.61948 0.11715 0.51215 0.0
C1672 C 0.59381 0.09677 0.52224 0.0
C1673 C 0.57715 0.11615 0.56704 0.0
C1674 C 0.59678 0.07639 0.53607 0.0
C1675 C 0.59053 0.06107 0.52892 0.0
C1676 C 0.58181 0.06571 0.50739 0.0
C1677 C 0.579 0.08622 0.49354 0.0
C1678 C 0.5848 0.10163 0.501 0.0
H1679 H 0.5693 0.12893 0.5784 0.0
H1680 H 0.56447 0.11478 0.55792 0.0
H1681 H 0.58379 0.1006 0.57873 0.0
H1682 H 0.6046 0.07215 0.55196 0.0
H1683 H 0.59273 0.04557 0.54018 0.0
H1684 H 0.81155 0.47825 0.23948 0.0
H1685 H 0.84776 0.44966 0.23668 0.0
H1686 H 0.81649 0.40101 0.25963 0.0
H1687 H 0.78087 0.42899 0.26253 0.0
H1688 H 0.86777 0.41049 0.27443 0.0
H1689 H 0.85393 0.38843 0.19361 0.0
H1690 H 0.83933 0.41453 0.20266 0.0
H1691 H 0.83132 0.39144 0.21681 0.0
C1692 C 0.8125 0.46145 0.24403 0.0
C1693 C 0.79328 0.45594 0.25098 0.0
C1694 C 0.83316 0.44513 0.24246 0.0
C1695 C 0.83483 0.42313 0.24766 0.0
C1696 C 0.81567 0.41779 0.25522 0.0
H1697 H 0.9148 0.29218 0.25527 0.0
H1698 H 0.88735 0.32809 0.25389 0.0
C1699 C 0.79525 0.43391 0.25687 0.0
C1700 C 0.8562 0.40533 0.24479 0.0
H1701 H 0.88169 0.36215 0.21537 0.0
C1702 C 0.87113 0.40016 0.2612 0.0
C1703 C 0.86056 0.39178 0.22759 0.0
C1704 C 0.84556 0.39686 0.209 0.0
C1705 C 0.88957 0.38114 0.26168 0.0
C1706 C 0.8933 0.36704 0.24517 0.0
C1707 C 0.87888 0.37283 0.2281 0.0
C1708 C 0.91067 0.34528 0.24655 0.0
C1709 C 0.90425 0.37562 0.28066 0.0
C1710 C 0.93313 0.34277 0.24283 0.0
C1711 C 0.94902 0.32204 0.24352 0.0
C1712 C 0.94272 0.30346 0.24797 0.0
C1713 C 0.92027 0.3061 0.25176 0.0
C1714 C 0.9045 0.32668 0.25098 0.0
H1715 H 0.89726 0.3864 0.2943 0.0
H1716 H 0.90717 0.35861 0.28947 0.0
H1717 H 0.92031 0.37727 0.27248 0.0
H1718 H 0.93838 0.35684 0.23903 0.0
H1719 H 0.96618 0.32056 0.24042 0.0
H1720 H 0.05844 0.57328 0.53657 0.0
H1721 H 0.07361 0.59778 0.54744 0.0
H1722 H 0.13837 0.55122 0.53885 0.0
H1723 H 0.12322 0.5262 0.52855 0.0
H1724 H 0.12815 0.57513 0.5793 0.0
H1725 H 0.1091 0.62693 0.49259 0.0
H1726 H 0.08656 0.62053 0.51133 0.0
H1727 H 0.10903 0.59943 0.49929 0.0
C1728 C 0.07587 0.56804 0.53743 0.0
C1729 C 0.08973 0.54792 0.53143 0.0
C1730 C 0.08448 0.58209 0.54356 0.0
C1731 C 0.10707 0.57632 0.54367 0.0
C1732 C 0.12087 0.55588 0.53882 0.0
H1733 H 0.20235 0.6352 0.53801 0.0
H1734 H 0.1808 0.61081 0.55031 0.0
C1735 C 0.11225 0.54176 0.53267 0.0
C1736 C 0.11651 0.5925 0.54619 0.0
H1737 H 0.1253 0.63889 0.51696 0.0
C1738 C 0.12743 0.5892 0.56584 0.0
C1739 C 0.11547 0.61075 0.52853 0.0
C1740 C 0.10458 0.61464 0.50663 0.0
C1741 C 0.13753 0.60379 0.56818 0.0
C1742 C 0.1369 0.62179 0.5502 0.0
C1743 C 0.12554 0.62521 0.53087 0.0
C1744 C 0.14945 0.63636 0.54945 0.0
C1745 C 0.14876 0.5998 0.58978 0.0
C1746 C 0.13898 0.65882 0.54545 0.0
C1747 C 0.15127 0.67268 0.53791 0.0
C1748 C 0.17419 0.66428 0.53451 0.0
C1749 C 0.18467 0.642 0.54062 0.0
C1750 C 0.17236 0.62808 0.54784 0.0
H1751 H 0.14155 0.59033 0.60504 0.0
H1752 H 0.16629 0.5903 0.58587 0.0
H1753 H 0.14769 0.61521 0.5949 0.0
H1754 H 0.12132 0.66551 0.54655 0.0
H1755 H 0.14289 0.68987 0.53351 0.0
H1756 H 0.70494 0.08291 0.75556 0.0
H1757 H 0.66868 0.10982 0.7541 0.0
H1758 H 0.6394 0.05979 0.7795 0.0
H1759 H 0.67619 0.03241 0.78113 0.0
H1760 H 0.6346 0.11345 0.72879 0.0
H1761 H 0.60937 0.10398 0.82621 0.0
H1762 H 0.63757 0.09342 0.81369 0.0
H1763 H 0.61858 0.0802 0.8123 0.0
C1764 C 0.69083 0.07752 0.76085 0.0
C1765 C 0.69347 0.05551 0.76868 0.0
C1766 C 0.67005 0.09298 0.75993 0.0
C1767 C 0.65121 0.08698 0.76695 0.0
C1768 C 0.65367 0.0649 0.77432 0.0
H1769 H 0.52032 0.18899 0.78022 0.0
H1770 H 0.5476 0.15263 0.77869 0.0
C1771 C 0.67467 0.04925 0.77513 0.0
C1772 C 0.62934 0.10427 0.76657 0.0
H1773 H 0.58653 0.13308 0.8027 0.0
C1774 C 0.6239 0.11749 0.74493 0.0
C1775 C 0.61525 0.10959 0.78757 0.0
C1776 C 0.62039 0.0962 0.81135 0.0
C1777 C 0.60541 0.13629 0.74385 0.0
C1778 C 0.5921 0.14236 0.76499 0.0
C1779 C 0.59674 0.12849 0.78649 0.0
C1780 C 0.57506 0.16415 0.76537 0.0
C1781 C 0.60062 0.14984 0.72005 0.0
C1782 C 0.58136 0.18268 0.75858 0.0
C1783 C 0.56595 0.20326 0.75957 0.0
C1784 C 0.54376 0.20593 0.76739 0.0
C1785 C 0.53728 0.18744 0.77403 0.0
C1786 C 0.55286 0.16668 0.77321 0.0
H1787 H 0.60767 0.14003 0.70553 0.0
H1788 H 0.58273 0.15755 0.71943 0.0
H1789 H 0.60809 0.1628 0.71678 0.0
H1790 H 0.59838 0.18122 0.75285 0.0
H1791 H 0.5715 0.21715 0.75433 0.0
H1792 H 0.78076 0.55739 0.20839 0.0
H1793 H 0.78113 0.58799 0.17687 0.0
H1794 H 0.72431 0.58477 0.15354 0.0
H1795 H 0.72367 0.55433 0.18523 0.0
H1796 H 0.78555 0.59297 0.12875 0.0
H1797 H 0.70404 0.64804 0.15919 0.0
H1798 H 0.71764 0.62303 0.17718 0.0
H1799 H 0.7036 0.62288 0.15361 0.0
C1800 C 0.76834 0.56308 0.19655 0.0
C1801 C 0.75216 0.55316 0.19963 0.0
C1802 C 0.76856 0.58072 0.17842 0.0
C1803 C 0.7525 0.58927 0.16281 0.0
C1804 C 0.73662 0.57907 0.16551 0.0
H1805 H 0.72875 0.7041 0.0484 0.0
H1806 H 0.72754 0.67016 0.07423 0.0
C1807 C 0.73641 0.56139 0.18362 0.0
C1808 C 0.75262 0.60859 0.14376 0.0
H1809 H 0.72197 0.66053 0.1228 0.0
C1810 C 0.77159 0.6077 0.12755 0.0
C1811 C 0.73447 0.62802 0.14174 0.0
C1812 C 0.71384 0.63073 0.15896 0.0
C1813 C 0.7729 0.62533 0.10965 0.0
C1814 C 0.75493 0.64491 0.1079 0.0
C1815 C 0.73581 0.64569 0.12384 0.0
C1816 C 0.75617 0.66504 0.09073 0.0
C1817 C 0.79358 0.62258 0.09249 0.0
C1818 C 0.77252 0.67386 0.09108 0.0
C1819 C 0.77335 0.69306 0.0761 0.0
C1820 C 0.75796 0.70423 0.06006 0.0
C1821 C 0.74152 0.69552 0.05957 0.0
C1822 C 0.74061 0.67621 0.07476 0.0
H1823 H 0.80235 0.60529 0.09089 0.0
H1824 H 0.79008 0.63175 0.07463 0.0
H1825 H 0.80469 0.62864 0.09905 0.0
H1826 H 0.7844 0.66623 0.10351 0.0
H1827 H 0.78594 0.69948 0.07746 0.0
H1828 H 0.98026 0.47937 0.4542 0.0
H1829 H 0.94957 0.48016 0.43577 0.0
H1830 H 0.90608 0.52988 0.47538 0.0
H1831 H 0.937 0.52947 0.49349 0.0
H1832 H 0.91259 0.47168 0.45558 0.0
H1833 H 0.8917 0.55622 0.4088 0.0
H1834 H 0.91676 0.54259 0.42191 0.0
H1835 H 0.89149 0.55347 0.44016 0.0
C1836 C 0.96418 0.49062 0.45881 0.0
C1837 C 0.96094 0.50441 0.4752 0.0
C1838 C 0.94665 0.49099 0.44835 0.0
C1839 C 0.92558 0.50532 0.4539 0.0
C1840 C 0.92228 0.51904 0.47042 0.0
H1841 H 0.80608 0.52656 0.39384 0.0
H1842 H 0.83082 0.52545 0.42089 0.0
C1843 C 0.93986 0.51862 0.48097 0.0
C1844 C 0.90716 0.50539 0.44262 0.0
H1845 H 0.86889 0.53669 0.40616 0.0
C1846 C 0.90289 0.48594 0.44508 0.0
C1847 C 0.89457 0.52404 0.42864 0.0
C1848 C 0.89892 0.54523 0.42449 0.0
C1849 C 0.88647 0.48449 0.43403 0.0
C1850 C 0.87436 0.50292 0.4195 0.0
C1851 C 0.8782 0.52258 0.4174 0.0
C1852 C 0.85881 0.50183 0.40492 0.0
C1853 C 0.88232 0.46321 0.43803 0.0
C1854 C 0.8663 0.48862 0.38727 0.0
C1855 C 0.85228 0.48933 0.37168 0.0
C1856 C 0.83052 0.50333 0.37341 0.0
C1857 C 0.82283 0.51582 0.39182 0.0
C1858 C 0.8369 0.51518 0.40733 0.0
H1859 H 0.88628 0.45396 0.45574 0.0
H1860 H 0.86505 0.46548 0.43669 0.0
H1861 H 0.89303 0.45335 0.42454 0.0
H1862 H 0.88325 0.47843 0.38492 0.0
H1863 H 0.85884 0.47976 0.35751 0.0
H1864 H 0.17219 0.50734 0.62583 0.0
H1865 H 0.14581 0.50571 0.60239 0.0
H1866 H 0.09318 0.53014 0.65619 0.0
H1867 H 0.11931 0.53124 0.68003 0.0
H1868 H 0.11718 0.4788 0.62597 0.0
H1869 H 0.0703 0.56363 0.59133 0.0
H1870 H 0.0986 0.55549 0.59627 0.0
H1871 H 0.07739 0.55803 0.62087 0.0
C1872 C 0.15496 0.51271 0.6325 0.0
C1873 C 0.14791 0.51918 0.65496 0.0
C1874 C 0.13994 0.51186 0.61902 0.0
C1875 C 0.11762 0.51784 0.62759 0.0
C1876 C 0.11034 0.52575 0.64916 0.0
H1877 H -0.00249 0.51511 0.59498 0.0
H1878 H 0.02694 0.52083 0.60953 0.0
C1879 C 0.12534 0.52644 0.66273 0.0
C1880 C 0.10227 0.51303 0.61586 0.0
H1881 H 0.05597 0.53661 0.5892 0.0
C1882 C 0.10397 0.49135 0.61747 0.0
C1883 C 0.08495 0.52951 0.6053 0.0
C1884 C 0.08263 0.55301 0.60313 0.0
C1885 C 0.08823 0.48565 0.60959 0.0
C1886 C 0.07075 0.50215 0.59893 0.0
C1887 C 0.06944 0.52388 0.59694 0.0
C1888 C 0.05303 0.49748 0.59081 0.0
C1889 C 0.08988 0.46213 0.61421 0.0
C1890 C 0.05769 0.48215 0.5757 0.0
C1891 C 0.04073 0.47832 0.56798 0.0
C1892 C 0.01888 0.4904 0.57443 0.0
C1893 C 0.01422 0.50555 0.58967 0.0
C1894 C 0.03108 0.50899 0.59783 0.0
H1895 H 0.09959 0.45295 0.629 0.0
H1896 H 0.07348 0.4602 0.61862 0.0
H1897 H 0.09831 0.45475 0.59818 0.0
H1898 H 0.07442 0.47346 0.56942 0.0
H1899 H 0.04469 0.46624 0.55666 0.0
H1900 H 0.54473 0.79384 0.2105 0.0
H1901 H 0.57421 0.79544 0.17835 0.0
H1902 H 0.56262 0.74736 0.14871 0.0
H1903 H 0.53302 0.7457 0.18075 0.0
H1904 H 0.61236 0.76138 0.16763 0.0
H1905 H 0.56516 0.79389 0.0908 0.0
H1906 H 0.55233 0.79527 0.12095 0.0
H1907 H 0.56048 0.77044 0.10927 0.0
C1908 C 0.54818 0.7838 0.19699 0.0
C1909 C 0.53629 0.76972 0.19827 0.0
C1910 C 0.56516 0.78469 0.17861 0.0
C1911 C 0.57058 0.77171 0.16086 0.0
C1912 C 0.55855 0.75786 0.16187 0.0
H1913 H 0.67292 0.74706 0.04087 0.0
H1914 H 0.64067 0.74909 0.07017 0.0
C1915 C 0.54162 0.75688 0.18032 0.0
C1916 C 0.58952 0.77188 0.14209 0.0
H1917 H 0.60385 0.78164 0.08219 0.0
C1918 C 0.61046 0.76595 0.14896 0.0
C1919 C 0.58717 0.77767 0.11767 0.0
C1920 C 0.56507 0.78487 0.10915 0.0
C1921 C 0.62907 0.76525 0.13218 0.0
C1922 C 0.62672 0.77121 0.10772 0.0
C1923 C 0.60576 0.77714 0.10086 0.0
C1924 C 0.64585 0.77104 0.08906 0.0
C1925 C 0.65117 0.75744 0.14087 0.0
C1926 C 0.65936 0.78317 0.08931 0.0
C1927 C 0.67795 0.78199 0.07257 0.0
C1928 C 0.68342 0.76884 0.0549 0.0
C1929 C 0.66935 0.7574 0.05412 0.0
C1930 C 0.65083 0.75851 0.07094 0.0
H1931 H 0.65097 0.74776 0.15888 0.0
H1932 H 0.66392 0.74743 0.12872 0.0
H1933 H 0.65582 0.77159 0.14175 0.0
H1934 H 0.65563 0.79345 0.10263 0.0
H1935 H 0.68822 0.79117 0.07374 0.0
H1936 H 0.62444 0.53102 0.17171 0.0
H1937 H 0.60081 0.53121 0.144 0.0
H1938 H 0.65734 0.50692 0.09417 0.0
H1939 H 0.68122 0.50717 0.12154 0.0
H1940 H 0.59881 0.54904 0.09048 0.0
H1941 H 0.62485 0.45946 0.11671 0.0
H1942 H 0.6279 0.4768 0.13475 0.0
H1943 H 0.64562 0.47216 0.10762 0.0
C1944 C 0.63187 0.52642 0.15455 0.0
C1945 C 0.65475 0.51883 0.14895 0.0
C1946 C 0.61832 0.52644 0.1388 0.0
C1947 C 0.62742 0.51882 0.11727 0.0
C1948 C 0.6501 0.51267 0.11085 0.0
H1949 H 0.55609 0.47391 0.03753 0.0
H1950 H 0.58594 0.48108 0.05032 0.0
C1951 C 0.66368 0.51274 0.12654 0.0
C1952 C 0.61327 0.51512 0.10292 0.0
H1953 H 0.59701 0.47533 0.09236 0.0
C1954 C 0.59855 0.53294 0.09058 0.0
C1955 C 0.61316 0.49406 0.10303 0.0
C1956 C 0.62862 0.47444 0.11628 0.0
C1957 C 0.58326 0.53028 0.07873 0.0
C1958 C 0.58231 0.50927 0.07991 0.0
C1959 C 0.5977 0.4914 0.09147 0.0
C1960 C 0.56449 0.50557 0.07103 0.0
C1961 C 0.56823 0.55007 0.06527 0.0
C1962 C 0.54261 0.51655 0.07881 0.0
C1963 C 0.52572 0.51279 0.07115 0.0
C1964 C 0.53033 0.49772 0.05583 0.0
C1965 C 0.55217 0.48608 0.04873 0.0
C1966 C 0.56917 0.49007 0.05617 0.0
H1967 H 0.57661 0.56215 0.05748 0.0
H1968 H 0.56226 0.54604 0.05087 0.0
H1969 H 0.55392 0.55779 0.07766 0.0
H1970 H 0.53854 0.52798 0.09097 0.0
H1971 H 0.509 0.5219 0.07707 0.0
H1972 H 0.37275 0.46443 0.01108 0.0
H1973 H 0.35833 0.44173 0.99562 0.0
H1974 H 0.42403 0.40094 0.97562 0.0
H1975 H 0.4386 0.42332 0.99156 0.0
H1976 H 0.36625 0.43203 0.94874 0.0
H1977 H 0.39436 0.35838 0.01576 0.0
H1978 H 0.39375 0.3845 0.01993 0.0
H1979 H 0.41452 0.36994 0.99913 0.0
C1980 C 0.38412 0.45047 1.00369 0.0
C1981 C 0.40677 0.44554 1.00272 0.0
C1982 C 0.37588 0.43766 0.99465 0.0
C1983 C 0.39014 0.41966 0.98458 0.0
C1984 C 0.41279 0.41466 0.98351 0.0
H1985 H 0.33124 0.32723 0.96831 0.0
H1986 H 0.35919 0.34484 0.95643 0.0
C1987 C 0.42105 0.42753 0.9925 0.0
C1988 C 0.3809 0.40613 0.9757 0.0
H1989 H 0.3703 0.3586 0.99099 0.0
C1990 C 0.36754 0.41577 0.95755 0.0
C1991 C 0.38289 0.38481 0.98701 0.0
C1992 C 0.39705 0.37372 1.00662 0.0
C1993 C 0.35477 0.40526 0.95164 0.0
C1994 C 0.35513 0.38482 0.96457 0.0
C1995 C 0.37002 0.37435 0.98115 0.0
C1996 C 0.33753 0.37594 0.96487 0.0
C1997 C 0.34026 0.41656 0.93243 0.0
C1998 C 0.31594 0.38785 0.97268 0.0
C1999 C 0.30001 0.37786 0.97948 0.0
C2000 C 0.30546 0.35578 0.97868 0.0
C2001 C 0.32659 0.34433 0.96894 0.0
C2002 C 0.34257 0.35434 0.9622 0.0
H2003 H 0.34782 0.42688 0.91858 0.0
H2004 H 0.33693 0.40483 0.92401 0.0
H2005 H 0.32446 0.42725 0.94019 0.0
H2006 H 0.31178 0.40441 0.97537 0.0
H2007 H 0.28379 0.38704 0.98678 0.0
H2008 H 0.02141 0.1914 0.2836 0.0
H2009 H 0.04989 0.1554 0.28604 0.0
H2010 H 0.09979 0.18554 0.27135 0.0
H2011 H 0.07178 0.22111 0.26878 0.0
H2012 H 0.08794 0.13745 0.25096 0.0
H2013 H 0.11294 0.14318 0.3342 0.0
H2014 H 0.08696 0.16007 0.32434 0.0
H2015 H 0.11141 0.16656 0.31194 0.0
C2016 C 0.03847 0.19027 0.2808 0.0
C2017 C 0.04431 0.20914 0.27612 0.0
C2018 C 0.05472 0.16971 0.2822 0.0
C2019 C 0.07703 0.16771 0.2792 0.0
C2020 C 0.08275 0.18658 0.27412 0.0
H2021 H 0.20794 0.08539 0.2702 0.0
H2022 H 0.17203 0.11309 0.27222 0.0
C2023 C 0.06665 0.20697 0.27262 0.0
C2024 C 0.09467 0.14617 0.28149 0.0
H2025 H 0.13863 0.11703 0.31141 0.0
C2026 C 0.09878 0.13271 0.26446 0.0
C2027 C 0.10882 0.13991 0.29913 0.0
C2028 C 0.10474 0.15307 0.31859 0.0
C2029 C 0.11743 0.11393 0.26376 0.0
C2030 C 0.1322 0.10836 0.28067 0.0
C2031 C 0.12741 0.12127 0.29837 0.0
C2032 C 0.15387 0.09077 0.27891 0.0
C2033 C 0.12188 0.10086 0.24416 0.0
C2034 C 0.15583 0.06876 0.28202 0.0
C2035 C 0.17661 0.05266 0.28096 0.0
C2036 C 0.19574 0.05835 0.27676 0.0
C2037 C 0.1936 0.08037 0.27354 0.0
C2038 C 0.17302 0.0963 0.27469 0.0
H2039 H 0.11042 0.10886 0.23067 0.0
H2040 H 0.13889 0.09812 0.23529 0.0
H2041 H 0.12015 0.08482 0.25176 0.0
H2042 H 0.14132 0.06402 0.28559 0.0
H2043 H 0.17772 0.03585 0.28352 0.0
H2044 H 0.22419 0.32274 0.98558 0.0
H2045 H 0.22452 0.35707 0.96009 0.0
H2046 H 0.25275 0.32336 0.90037 0.0
H2047 H 0.25301 0.28931 0.92572 0.0
H2048 H 0.27223 0.35188 0.89904 0.0
H2049 H 0.18279 0.39394 0.91346 0.0
H2050 H 0.19573 0.38496 0.94002 0.0
H2051 H 0.19499 0.36543 0.92354 0.0
C2052 C 0.23055 0.32266 0.96706 0.0
C2053 C 0.23848 0.30311 0.95781 0.0
C2054 C 0.23054 0.34242 0.95233 0.0
C2055 C 0.23826 0.3432 0.9279 0.0
C2056 C 0.24658 0.32355 0.91895 0.0
H2057 H 0.21098 0.4517 0.81115 0.0
H2058 H 0.21142 0.42057 0.84212 0.0
C2059 C 0.24664 0.30394 0.93358 0.0
C2060 C 0.2379 0.36412 0.9114 0.0
H2061 H 0.20406 0.41412 0.88927 0.0
C2062 C 0.25729 0.3655 0.89706 0.0
C2063 C 0.21845 0.38203 0.90826 0.0
C2064 C 0.19675 0.38156 0.92194 0.0
C2065 C 0.25779 0.38383 0.87988 0.0
C2066 C 0.23841 0.40189 0.87697 0.0
C2067 C 0.21903 0.40057 0.89138 0.0
C2068 C 0.23772 0.42178 0.85849 0.0
C2069 C 0.27903 0.38319 0.86435 0.0
C2070 C 0.25197 0.43357 0.85724 0.0
C2071 C 0.25181 0.45148 0.83933 0.0
C2072 C 0.23721 0.45843 0.82217 0.0
C2073 C 0.2225 0.44703 0.8239 0.0
C2074 C 0.22273 0.42908 0.84175 0.0
H2075 H 0.29034 0.36637 0.86404 0.0
H2076 H 0.27617 0.39096 0.84589 0.0
H2077 H 0.28727 0.39203 0.87138 0.0
H2078 H 0.26334 0.42892 0.87014 0.0
H2079 H 0.26335 0.45976 0.83883 0.0
H2080 H 0.30175 0.21695 0.95262 0.0
H2081 H 0.33409 0.21426 0.92308 0.0
H2082 H 0.3451 0.26519 0.94806 0.0
H2083 H 0.31308 0.26786 0.97769 0.0
H2084 H 0.34119 0.24624 0.88667 0.0
H2085 H 0.40573 0.2198 0.94576 0.0
H2086 H 0.37857 0.21849 0.95608 0.0
H2087 H 0.38367 0.24368 0.9524 0.0
C2088 C 0.31124 0.22735 0.95212 0.0
C2089 C 0.30478 0.24251 0.96777 0.0
C2090 C 0.32971 0.22585 0.93511 0.0
C2091 C 0.3423 0.23931 0.93347 0.0
C2092 C 0.33603 0.25427 0.94923 0.0
H2093 H 0.45042 0.26821 0.83831 0.0
H2094 H 0.42101 0.26565 0.87024 0.0
C2095 C 0.31757 0.25583 0.96617 0.0
C2096 C 0.36127 0.23854 0.91454 0.0
H2097 H 0.41599 0.23189 0.90516 0.0
C2098 C 0.35759 0.24288 0.89073 0.0
C2099 C 0.38271 0.23429 0.91974 0.0
C2100 C 0.38802 0.2286 0.94488 0.0
C2101 C 0.37451 0.24368 0.87208 0.0
C2102 C 0.39592 0.23958 0.87727 0.0
C2103 C 0.39964 0.23505 0.90109 0.0
C2104 C 0.41452 0.24035 0.85826 0.0
C2105 C 0.3691 0.24964 0.84696 0.0
C2106 C 0.42116 0.22663 0.8411 0.0
C2107 C 0.43803 0.22804 0.82275 0.0
C2108 C 0.4488 0.24314 0.82119 0.0
C2109 C 0.44255 0.2564 0.83884 0.0
C2110 C 0.42568 0.25497 0.85717 0.0
H2111 H 0.35126 0.25772 0.84619 0.0
H2112 H 0.37787 0.26053 0.83613 0.0
H2113 H 0.37424 0.23475 0.83889 0.0
H2114 H 0.4132 0.21485 0.84179 0.0
H2115 H 0.44239 0.21748 0.80961 0.0
H2116 H 0.48977 0.48434 0.93988 0.0
H2117 H 0.45877 0.48255 0.9243 0.0
H2118 H 0.41521 0.53364 0.96206 0.0
H2119 H 0.4466 0.53621 0.97683 0.0
H2120 H 0.42353 0.47271 0.94675 0.0
H2121 H 0.3977 0.55608 0.89651 0.0
H2122 H 0.42329 0.54437 0.90879 0.0
H2123 H 0.39818 0.55471 0.92751 0.0
C2124 C 0.47362 0.49543 0.9446 0.0
C2125 C 0.47051 0.5104 0.9596 0.0
C2126 C 0.4559 0.49426 0.93584 0.0
C2127 C 0.43468 0.50809 0.9418 0.0
C2128 C 0.43149 0.52309 0.95685 0.0
H2129 H 0.31632 0.52045 0.88497 0.0
H2130 H 0.34039 0.5217 0.91142 0.0
C2131 C 0.44934 0.5244 0.96548 0.0
C2132 C 0.41616 0.50648 0.93213 0.0
H2133 H 0.37664 0.5343 0.89599 0.0
C2134 C 0.41314 0.48627 0.9359 0.0
C2135 C 0.40265 0.52412 0.9178 0.0
C2136 C 0.40567 0.546 0.91219 0.0
C2137 C 0.39727 0.48311 0.92545 0.0
C2138 C 0.38419 0.50056 0.91062 0.0
C2139 C 0.38666 0.52096 0.90747 0.0
C2140 C 0.36898 0.49772 0.89683 0.0
C2141 C 0.39471 0.4611 0.93031 0.0
C2142 C 0.37697 0.48351 0.88016 0.0
C2143 C 0.36321 0.48256 0.86521 0.0
C2144 C 0.34123 0.496 0.86645 0.0
C2145 C 0.33307 0.50964 0.88378 0.0
C2146 C 0.34685 0.51053 0.89877 0.0
H2147 H 0.40094 0.45172 0.94709 0.0
H2148 H 0.37732 0.46246 0.93125 0.0
H2149 H 0.40431 0.45191 0.91585 0.0
H2150 H 0.39409 0.47376 0.87804 0.0
H2151 H 0.36996 0.47179 0.85217 0.0
H2152 H 0.6662 0.68753 0.93648 0.0
H2153 H 0.63657 0.67485 0.93437 0.0
H2154 H 0.59508 0.71423 0.98596 0.0
H2155 H 0.62482 0.72742 0.98793 0.0
H2156 H 0.60022 0.67206 0.99996 0.0
H2157 H 0.57857 0.69435 0.90923 0.0
H2158 H 0.60774 0.68439 0.90824 0.0
H2159 H 0.59215 0.70869 0.92059 0.0
C2160 C 0.65054 0.69426 0.94666 0.0
C2161 C 0.64795 0.70836 0.96252 0.0
C2162 C 0.6335 0.68703 0.94536 0.0
C2163 C 0.6135 0.6938 0.95979 0.0
C2164 C 0.61034 0.70895 0.97455 0.0
H2165 H 0.54554 0.59713 0.99294 0.0
H2166 H 0.5478 0.63333 0.99022 0.0
C2167 C 0.62741 0.71629 0.9758 0.0
C2168 C 0.59808 0.68172 0.96256 0.0
H2169 H 0.5782 0.6581 0.9297 0.0
C2170 C 0.59462 0.66954 0.9848 0.0
C2171 C 0.59062 0.67863 0.94283 0.0
C2172 C 0.59227 0.69244 0.91896 0.0
C2173 C 0.58638 0.65251 0.98723 0.0
C2174 C 0.58128 0.64786 0.96688 0.0
C2175 C 0.58248 0.66153 0.94518 0.0
C2176 C 0.57834 0.62703 0.96699 0.0
C2177 C 0.58513 0.63841 0.01104 0.0
C2178 C 0.59451 0.61183 0.95432 0.0
C2179 C 0.59327 0.59128 0.95575 0.0
C2180 C 0.57586 0.58558 0.96995 0.0
C2181 C 0.55939 0.601 0.98223 0.0
C2182 C 0.56057 0.62165 0.98064 0.0
H2183 H 0.59199 0.64291 0.02442 0.0
H2184 H 0.56779 0.63998 0.01765 0.0
H2185 H 0.59414 0.62118 1.00943 0.0
H2186 H 0.60843 0.61571 0.94379 0.0
H2187 H 0.60619 0.5797 0.94618 0.0
H2188 H 0.96818 0.82203 0.74044 0.0
H2189 H 0.94084 0.85833 0.74222 0.0
H2190 H 0.89015 0.82958 0.76769 0.0
H2191 H 0.91709 0.79369 0.76596 0.0
H2192 H 0.90129 0.87827 0.7186 0.0
H2193 H 0.88181 0.86986 0.81605 0.0
H2194 H 0.90662 0.85272 0.80152 0.0
H2195 H 0.88133 0.84734 0.80436 0.0
C2196 C 0.95121 0.82353 0.74656 0.0
C2197 C 0.94481 0.80498 0.75312 0.0
C2198 C 0.9356 0.84425 0.74752 0.0
C2199 C 0.91342 0.84672 0.75539 0.0
C2200 C 0.90715 0.82816 0.76193 0.0
H2201 H 0.78371 0.92904 0.76907 0.0
H2202 H 0.81982 0.90176 0.76952 0.0
C2203 C 0.9226 0.80761 0.76081 0.0
C2204 C 0.8964 0.86848 0.75628 0.0
H2205 H 0.85477 0.89706 0.79358 0.0
C2206 C 0.8914 0.88266 0.73504 0.0
C2207 C 0.88351 0.87429 0.77772 0.0
C2208 C 0.88869 0.86036 0.80125 0.0
C2209 C 0.87298 0.90166 0.73452 0.0
C2210 C 0.85934 0.90678 0.75584 0.0
C2211 C 0.86512 0.89319 0.7772 0.0
C2212 C 0.83757 0.9243 0.7561 0.0
C2213 C 0.86745 0.91539 0.711 0.0
C2214 C 0.8353 0.94635 0.74878 0.0
C2215 C 0.81438 0.96222 0.74856 0.0
C2216 C 0.79545 0.95623 0.75554 0.0
C2217 C 0.79791 0.93425 0.76337 0.0
C2218 C 0.81861 0.91856 0.76371 0.0
H2219 H 0.87797 0.90767 0.69586 0.0
H2220 H 0.85007 0.91857 0.70912 0.0
H2221 H 0.8697 0.93118 0.71006 0.0
H2222 H 0.84967 0.95127 0.74318 0.0
H2223 H 0.81301 0.97903 0.74255 0.0
H2224 H 0.50014 0.19678 0.61694 0.0
H2225 H 0.49986 0.17547 0.58768 0.0
H2226 H 0.50338 0.12037 0.64256 0.0
H2227 H 0.50352 0.14146 0.67184 0.0
H2228 H 0.5304 0.10999 0.60047 0.0
H2229 H 0.44525 0.16038 0.58433 0.0
H2230 H 0.46461 0.17457 0.57969 0.0
H2231 H 0.45734 0.1619 0.60895 0.0
C2232 C 0.50097 0.18009 0.62274 0.0
C2233 C 0.50172 0.17087 0.64677 0.0
C2234 C 0.50077 0.16796 0.60601 0.0
C2235 C 0.5012 0.14648 0.61305 0.0
C2236 C 0.50299 0.13695 0.63678 0.0
H2237 H 0.45821 0.06071 0.56029 0.0
H2238 H 0.46168 0.08873 0.57873 0.0
C2239 C 0.50321 0.14902 0.65348 0.0
C2240 C 0.49884 0.134 0.59612 0.0
H2241 H 0.46232 0.13095 0.56357 0.0
C2242 C 0.51561 0.11465 0.59221 0.0
C2243 C 0.4794 0.14004 0.5856 0.0
C2244 C 0.46051 0.16025 0.58993 0.0
C2245 C 0.51328 0.10088 0.57854 0.0
C2246 C 0.49384 0.10691 0.56801 0.0
C2247 C 0.47725 0.12648 0.57151 0.0
C2248 C 0.48994 0.09236 0.55466 0.0
C2249 C 0.53127 0.07957 0.57645 0.0
C2250 C 0.50405 0.08584 0.5344 0.0
C2251 C 0.50204 0.0699 0.52383 0.0
C2252 C 0.48589 0.06022 0.53325 0.0
C2253 C 0.47079 0.06789 0.55253 0.0
C2254 C 0.47282 0.08384 0.56315 0.0
H2255 H 0.54143 0.07466 0.59116 0.0
H2256 H 0.5246 0.06649 0.57664 0.0
H2257 H 0.54204 0.08117 0.55953 0.0
H2258 H 0.51711 0.09251 0.52727 0.0
H2259 H 0.51361 0.06459 0.50877 0.0
H2260 H 0.48705 0.3131 0.9041 0.0
H2261 H 0.48826 0.33377 0.93349 0.0
H2262 H 0.48393 0.38953 0.87937 0.0
H2263 H 0.48299 0.36902 0.84989 0.0
H2264 H 0.52154 0.35149 0.93026 0.0
H2265 H 0.44013 0.41561 0.93397 0.0
H2266 H 0.44506 0.39043 0.9238 0.0
H2267 H 0.45345 0.41166 0.90465 0.0
C2268 C 0.48607 0.32985 0.89851 0.0
C2269 C 0.48497 0.33938 0.87461 0.0
C2270 C 0.48667 0.34165 0.91534 0.0
C2271 C 0.48596 0.36324 0.90865 0.0
C2272 C 0.48399 0.37305 0.88503 0.0
H2273 H 0.53762 0.44204 0.96303 0.0
H2274 H 0.53275 0.41535 0.94355 0.0
C2275 C 0.48343 0.36127 0.86818 0.0
C2276 C 0.48961 0.37482 0.92567 0.0
H2277 H 0.46785 0.42093 0.95038 0.0
C2278 C 0.5097 0.36654 0.93491 0.0
C2279 C 0.47409 0.39436 0.93181 0.0
C2280 C 0.45188 0.4035 0.92325 0.0
C2281 C 0.51502 0.37769 0.94948 0.0
C2282 C 0.49993 0.39773 0.95469 0.0
C2283 C 0.47949 0.40562 0.94618 0.0
C2284 C 0.5051 0.41118 0.96839 0.0
C2285 C 0.53674 0.36795 0.9591 0.0
C2286 C 0.49148 0.41733 0.98904 0.0
C2287 C 0.49419 0.43256 1.00011 0.0
C2288 C 0.51058 0.44197 0.99072 0.0
C2289 C 0.52509 0.43482 0.97088 0.0
C2290 C 0.52227 0.41962 0.9597 0.0
H2291 H 0.54356 0.35022 0.9591 0.0
H2292 H 0.54857 0.37535 0.94779 0.0
H2293 H 0.5352 0.37109 0.97742 0.0
H2294 H 0.47821 0.41095 0.99608 0.0
H2295 H 0.48275 0.43773 0.0154 0.0
H2296 H 0.48827 0.86683 0.35401 0.0
H2297 H 0.48821 0.88507 0.38604 0.0
H2298 H 0.48442 0.82917 0.43697 0.0
H2299 H 0.48428 0.81072 0.40489 0.0
H2300 H 0.45841 0.8948 0.42738 0.0
H2301 H 0.54058 0.83842 0.44779 0.0
H2302 H 0.52993 0.83978 0.42095 0.0
H2303 H 0.51992 0.82649 0.44852 0.0
C2304 C 0.48694 0.85852 0.37203 0.0
C2305 C 0.48635 0.83726 0.37685 0.0
C2306 C 0.48705 0.86895 0.39032 0.0
C2307 C 0.48666 0.85834 0.4138 0.0
C2308 C 0.48515 0.83747 0.41889 0.0
H2309 H 0.47486 0.93413 0.52427 0.0
H2310 H 0.47113 0.90682 0.5049 0.0
C2311 C 0.48506 0.82698 0.40055 0.0
C2312 C 0.48877 0.86906 0.43258 0.0
H2313 H 0.52447 0.86762 0.46893 0.0
C2314 C 0.4727 0.88875 0.4367 0.0
C2315 C 0.50754 0.86115 0.44455 0.0
C2316 C 0.52561 0.84038 0.44021 0.0
C2317 C 0.47517 0.90108 0.45201 0.0
C2318 C 0.49413 0.89336 0.46369 0.0
C2319 C 0.50992 0.87339 0.46006 0.0
C2320 C 0.49862 0.90678 0.478 0.0
C2321 C 0.45799 0.92276 0.45465 0.0
C2322 C 0.51616 0.91479 0.47012 0.0
C2323 C 0.51846 0.93028 0.48123 0.0
C2324 C 0.50319 0.93804 0.50035 0.0
C2325 C 0.48668 0.92871 0.50933 0.0
C2326 C 0.48446 0.91317 0.49828 0.0
H2327 H 0.44676 0.92826 0.44086 0.0
H2328 H 0.44808 0.92153 0.47218 0.0
H2329 H 0.46571 0.9352 0.45375 0.0
H2330 H 0.52734 0.90997 0.45454 0.0
H2331 H 0.5313 0.93719 0.47383 0.0
H2332 H 0.45751 0.57499 0.03493 0.0
H2333 H 0.45676 0.60398 0.05495 0.0
H2334 H 0.52729 0.58265 0.04508 0.0
H2335 H 0.52808 0.5542 0.02493 0.0
H2336 H 0.47188 0.59879 0.09512 0.0
H2337 H 0.51531 0.64593 0.02772 0.0
H2338 H 0.506 0.62605 0.0204 0.0
H2339 H 0.53149 0.61792 0.03248 0.0
C2340 C 0.47282 0.57683 0.03655 0.0
C2341 C 0.49287 0.56243 0.02799 0.0
C2342 C 0.47239 0.59337 0.04802 0.0
C2343 C 0.49198 0.59576 0.05121 0.0
C2344 C 0.51195 0.58164 0.04225 0.0
H2345 H 0.51085 0.64545 0.16766 0.0
H2346 H 0.51148 0.62357 0.13878 0.0
C2347 C 0.51237 0.5653 0.03066 0.0
C2348 C 0.49174 0.61138 0.06601 0.0
H2349 H 0.51327 0.65028 0.06826 0.0
C2350 C 0.48069 0.61025 0.08909 0.0
C2351 C 0.50318 0.62641 0.05818 0.0
C2352 C 0.51446 0.6293 0.03325 0.0
C2353 C 0.48124 0.62325 0.10475 0.0
C2354 C 0.49361 0.63745 0.09733 0.0
C2355 C 0.5041 0.63912 0.07403 0.0
C2356 C 0.49556 0.65081 0.11353 0.0
C2357 C 0.46846 0.62173 0.12908 0.0
C2358 C 0.4875 0.67343 0.10834 0.0
C2359 C 0.48744 0.68603 0.12466 0.0
C2360 C 0.49549 0.67622 0.14647 0.0
C2361 C 0.50465 0.65357 0.15102 0.0
C2362 C 0.50475 0.641 0.13465 0.0
H2363 H 0.45536 0.61474 0.12971 0.0
H2364 H 0.47968 0.61106 0.142 0.0
H2365 H 0.46088 0.63787 0.13474 0.0
H2366 H 0.48056 0.68132 0.09201 0.0
H2367 H 0.48062 0.70344 0.12042 0.0
loop_
_geom_bond_atom_site_label_1
_geom_bond_atom_site_label_2
_geom_bond_distance
_geom_bond_site_symmetry_2
_ccdc_geom_bond_type
La0 C2 2.928 . S
La0 O20 2.521 . S
La0 O21 2.628 . S
La0 O22 2.554 1_655 S
La0 O23 2.757 1_655 S
La0 O24 2.470 1_654 S
La0 O29 2.482 1_564 S
La0 O31 2.503 1_565 S
La1 C11 2.928 . S
La1 O23 2.482 1_546 S
La1 O25 2.503 1_545 S
La1 O26 2.521 . S
La1 O27 2.628 . S
La1 O28 2.554 1_455 S
La1 O29 2.757 1_455 S
La1 O30 2.470 1_456 S
C2 La0 2.928 . S
C2 C3 1.503 . S
C2 O20 1.261 . S
C2 O21 1.243 . S
C3 C2 1.503 . S
C3 C4 1.394 . S
C3 C8 1.373 . S
C4 C3 1.394 . S
C4 C5 1.380 . S
C4 H32 0.930 . S
C5 C4 1.380 . S
C5 C6 1.376 . S
C5 H33 0.930 . S
C6 C5 1.376 . S
C6 C7 1.370 . S
C7 C6 1.370 . S
C7 C8 1.396 . S
C7 H34 0.961 . S
C8 C3 1.373 . S
C8 C7 1.396 . S
C8 H35 0.929 1_554 S
C9 O22 1.240 . S
C9 O23 1.289 . S
C10 O24 1.258 . S
C10 O25 1.256 . S
C11 La1 2.928 . S
C11 C12 1.503 . S
C11 O26 1.261 . S
C11 O27 1.243 . S
C12 C11 1.503 . S
C12 C13 1.394 . S
C12 C17 1.373 . S
C13 C12 1.394 . S
C13 C14 1.380 . S
C13 H36 0.930 . S
C14 C13 1.380 . S
C14 C15 1.376 . S
C14 H37 0.930 . S
C15 C14 1.376 . S
C15 C16 1.370 . S
C16 C15 1.370 . S
C16 C17 1.396 . S
C16 H38 0.945 . S
C17 C12 1.373 . S
C17 C16 1.396 . S
C17 H39 0.929 1_556 S
C18 O28 1.240 . S
C18 O29 1.289 . S
C19 O30 1.258 . S
C19 O31 1.256 . S
O20 La0 2.521 . S
O20 C2 1.261 . S
O21 La0 2.628 . S
O21 C2 1.243 . S
O22 La0 2.554 1_455 S
O22 C9 1.240 . S
O23 La0 2.757 1_455 S
O23 La1 2.482 1_564 S
O23 C9 1.289 . S
O24 La0 2.470 1_456 S
O24 C10 1.258 . S
O25 La1 2.503 1_565 S
O25 C10 1.256 . S
O26 La1 2.521 . S
O26 C11 1.261 . S
O27 La1 2.628 . S
O27 C11 1.243 . S
O28 La1 2.554 1_655 S
O28 C18 1.240 . S
O29 La0 2.482 1_546 S
O29 La1 2.757 1_655 S
O29 C18 1.289 . S
O30 La1 2.470 1_654 S
O30 C19 1.258 . S
O31 La0 2.503 1_545 S
O31 C19 1.256 . S
H32 C4 0.930 . S
H33 C5 0.930 . S
H34 C7 0.961 . S
H35 C8 0.929 1_556 S
H36 C13 0.930 . S
H37 C14 0.930 . S
H38 C16 0.945 . S
H39 C17 0.929 1_554 S
La40 C42 2.928 . S
La40 O60 2.521 . S
La40 O61 2.628 1_455 S
La40 O62 2.554 . S
La40 O63 2.757 . S
La40 O64 2.470 1_455 S
La40 O69 2.482 1_455 S
La40 O71 2.503 . S
La41 C51 2.928 . S
La41 O63 2.482 1_655 S
La41 O65 2.503 . S
La41 O66 2.521 . S
La41 O67 2.628 1_655 S
La41 O68 2.554 . S
La41 O69 2.757 . S
La41 O70 2.470 1_655 S
C42 La40 2.928 . S
C42 C43 1.503 . S
C42 O60 1.261 . S
C42 O61 1.243 1_455 S
C43 C42 1.503 . S
C43 C44 1.394 . S
C43 C48 1.373 1_455 S
C44 C43 1.394 . S
C44 C45 1.380 . S
C44 H72 0.930 . S
C45 C44 1.380 . S
C45 C46 1.376 1_455 S
C45 H73 0.930 . S
C46 C45 1.376 1_655 S
C46 C47 1.370 . S
C47 C46 1.370 . S
C47 C48 1.396 . S
C47 H74 0.929 . S
C48 C43 1.373 1_655 S
C48 C47 1.396 . S
C48 H75 0.929 . S
C49 O62 1.240 . S
C49 O63 1.289 . S
C50 O64 1.258 . S
C50 O65 1.256 . S
C51 La41 2.928 . S
C51 C52 1.503 . S
C51 O66 1.261 . S
C51 O67 1.243 1_655 S
C52 C51 1.503 . S
C52 C53 1.394 . S
C52 C57 1.373 1_655 S
C53 C52 1.394 . S
C53 C54 1.380 . S
C53 H76 0.930 . S
C54 C53 1.380 . S
C54 C55 1.376 1_655 S
C54 H77 0.930 . S
C55 C54 1.376 1_455 S
C55 C56 1.370 . S
C56 C55 1.370 . S
C56 C57 1.396 . S
C56 H78 0.929 . S
C57 C52 1.373 1_455 S
C57 C56 1.396 . S
C57 H79 0.929 . S
C58 O68 1.240 . S
C58 O69 1.289 . S
C59 O70 1.258 . S
C59 O71 1.256 . S
O60 La40 2.521 . S
O60 C42 1.261 . S
O61 La40 2.628 1_655 S
O61 C42 1.243 1_655 S
O62 La40 2.554 . S
O62 C49 1.240 . S
O63 La40 2.757 . S
O63 La41 2.482 1_455 S
O63 C49 1.289 . S
O64 La40 2.470 1_655 S
O64 C50 1.258 . S
O65 La41 2.503 . S
O65 C50 1.256 . S
O66 La41 2.521 . S
O66 C51 1.261 . S
O67 La41 2.628 1_455 S
O67 C51 1.243 1_455 S
O68 La41 2.554 . S
O68 C58 1.240 . S
O69 La40 2.482 1_655 S
O69 La41 2.757 . S
O69 C58 1.289 . S
O70 La41 2.470 1_455 S
O70 C59 1.258 . S
O71 La40 2.503 . S
O71 C59 1.256 . S
H72 C44 0.930 . S
H73 C45 0.930 . S
H74 C47 0.929 . S
H75 C48 0.929 . S
H76 C53 0.930 . S
H77 C54 0.930 . S
H78 C56 0.929 . S
H79 C57 0.929 . S
La80 C82 2.928 . S
La80 O100 2.521 . S
La80 O101 2.628 . S
La80 O102 2.554 . S
La80 O103 2.757 . S
La80 O104 2.470 . S
La80 O109 2.482 . S
La80 O111 2.503 . S
La81 C91 2.928 . S
La81 O103 2.482 . S
La81 O105 2.503 . S
La81 O106 2.521 . S
La81 O107 2.628 . S
La81 O108 2.554 . S
La81 O109 2.757 . S
La81 O110 2.470 . S
C82 La80 2.928 . S
C82 C83 1.503 . S
C82 O100 1.261 . S
C82 O101 1.243 . S
C83 C82 1.503 . S
C83 C84 1.394 . S
C83 C88 1.373 . S
C84 C83 1.394 . S
C84 C85 1.380 . S
C84 H112 0.930 . S
C85 C84 1.380 . S
C85 C86 1.376 . S
C85 H113 0.930 . S
C86 C85 1.376 . S
C86 C87 1.370 . S
C87 C86 1.370 . S
C87 C88 1.396 . S
C87 H114 0.929 . S
C88 C83 1.373 . S
C88 C87 1.396 . S
C88 H115 0.929 . S
C89 O102 1.240 . S
C89 O103 1.289 . S
C90 O104 1.258 . S
C90 O105 1.256 . S
C91 La81 2.928 . S
C91 C92 1.503 . S
C91 O106 1.261 . S
C91 O107 1.243 . S
C92 C91 1.503 . S
C92 C93 1.394 . S
C92 C97 1.373 . S
C93 C92 1.394 . S
C93 C94 1.380 . S
C93 H116 0.930 . S
C94 C93 1.380 . S
C94 C95 1.376 . S
C94 H117 0.930 . S
C95 C94 1.376 . S
C95 C96 1.370 . S
C96 C95 1.370 . S
C96 C97 1.396 . S
C96 H118 0.929 . S
C97 C92 1.373 . S
C97 C96 1.396 . S
C97 H119 0.929 . S
C98 O108 1.240 . S
C98 O109 1.289 . S
C99 O110 1.258 . S
C99 O111 1.256 . S
O100 La80 2.521 . S
O100 C82 1.261 . S
O101 La80 2.628 . S
O101 C82 1.243 . S
O102 La80 2.554 . S
O102 C89 1.240 . S
O103 La80 2.757 . S
O103 La81 2.482 . S
O103 C89 1.289 . S
O104 La80 2.470 . S
O104 C90 1.258 . S
O105 La81 2.503 . S
O105 C90 1.256 . S
O106 La81 2.521 . S
O106 C91 1.261 . S
O107 La81 2.628 . S
O107 C91 1.243 . S
O108 La81 2.554 . S
O108 C98 1.240 . S
O109 La80 2.482 . S
O109 La81 2.757 . S
O109 C98 1.289 . S
O110 La81 2.470 . S
O110 C99 1.258 . S
O111 La80 2.503 . S
O111 C99 1.256 . S
H112 C84 0.930 . S
H113 C85 0.930 . S
H114 C87 0.929 . S
H115 C88 0.929 . S
H116 C93 0.930 . S
H117 C94 0.930 . S
H118 C96 0.929 . S
H119 C97 0.929 . S
La120 C122 2.928 . S
La120 O140 2.521 . S
La120 O141 2.628 1_565 S
La120 O142 2.554 . S
La120 O143 2.757 . S
La120 O144 2.470 1_565 S
La120 O149 2.482 1_565 S
La120 O151 2.503 . S
La121 C131 2.928 . S
La121 O143 2.482 1_545 S
La121 O145 2.503 . S
La121 O146 2.521 . S
La121 O147 2.628 1_545 S
La121 O148 2.554 . S
La121 O149 2.757 . S
La121 O150 2.470 1_545 S
C122 La120 2.928 . S
C122 C123 1.501 . S
C122 O140 1.261 . S
C122 O141 1.243 1_565 S
C123 C122 1.501 . S
C123 C124 1.408 . S
C123 C128 1.362 1_565 S
C124 C123 1.408 . S
C124 C125 1.380 . S
C124 H152 0.930 . S
C125 C124 1.380 . S
C125 C126 1.376 1_565 S
C125 H153 0.930 . S
C126 C125 1.376 1_545 S
C126 C127 1.370 . S
C127 C126 1.370 . S
C127 C128 1.396 . S
C127 H154 0.929 . S
C128 C123 1.362 1_545 S
C128 C127 1.396 . S
C128 H155 0.929 . S
C129 O142 1.240 . S
C129 O143 1.289 . S
C130 O144 1.258 . S
C130 O145 1.256 . S
C131 La121 2.928 . S
C131 C132 1.499 . S
C131 O146 1.261 . S
C131 O147 1.243 1_545 S
C132 C131 1.499 . S
C132 C133 1.420 . S
C132 C137 1.352 1_545 S
C133 C132 1.420 . S
C133 C134 1.380 . S
C133 H156 0.930 . S
C134 C133 1.380 . S
C134 C135 1.376 1_545 S
C134 H157 0.930 . S
C135 C134 1.376 1_565 S
C135 C136 1.370 . S
C136 C135 1.370 . S
C136 C137 1.396 . S
C136 H158 0.929 . S
C137 C132 1.352 1_565 S
C137 C136 1.396 . S
C137 H159 0.929 . S
C138 O148 1.240 . S
C138 O149 1.289 . S
C139 O150 1.258 . S
C139 O151 1.256 . S
O140 La120 2.521 . S
O140 C122 1.261 . S
O141 La120 2.628 1_545 S
O141 C122 1.243 1_545 S
O142 La120 2.554 . S
O142 C129 1.240 . S
O143 La120 2.757 . S
O143 La121 2.482 1_565 S
O143 C129 1.289 . S
O144 La120 2.470 1_545 S
O144 C130 1.258 . S
O145 La121 2.503 . S
O145 C130 1.256 . S
O146 La121 2.521 . S
O146 C131 1.261 . S
O147 La121 2.628 1_565 S
O147 C131 1.243 1_565 S
O148 La121 2.554 . S
O148 C138 1.240 . S
O149 La120 2.482 1_545 S
O149 La121 2.757 . S
O149 C138 1.289 . S
O150 La121 2.470 1_565 S
O150 C139 1.258 . S
O151 La120 2.503 . S
O151 C139 1.256 . S
H152 C124 0.930 . S
H153 C125 0.930 . S
H154 C127 0.929 . S
H155 C128 0.929 . S
H156 C133 0.930 . S
H157 C134 0.930 . S
H158 C136 0.929 . S
H159 C137 0.929 . S
La160 C162 2.928 . S
La160 O180 2.521 . S
La160 O181 2.628 . S
La160 O182 2.554 . S
La160 O183 2.757 . S
La160 O184 2.470 . S
La160 O189 2.482 . S
La160 O191 2.503 . S
La161 C171 2.928 . S
La161 O183 2.482 . S
La161 O185 2.503 . S
La161 O186 2.521 . S
La161 O187 2.628 . S
La161 O188 2.554 . S
La161 O189 2.757 . S
La161 O190 2.470 . S
C162 La160 2.928 . S
C162 C163 1.503 . S
C162 O180 1.261 . S
C162 O181 1.243 . S
C163 C162 1.503 . S
C163 C164 1.394 . S
C163 C168 1.373 . S
C164 C163 1.394 . S
C164 C165 1.380 . S
C164 H192 0.930 . S
C165 C164 1.380 . S
C165 C166 1.376 . S
C165 H193 0.930 . S
C166 C165 1.376 . S
C166 C167 1.370 . S
C167 C166 1.370 . S
C167 C168 1.396 . S
C167 H194 0.929 . S
C168 C163 1.373 . S
C168 C167 1.396 . S
C168 H195 0.929 . S
C169 O182 1.240 . S
C169 O183 1.289 . S
C170 O184 1.258 . S
C170 O185 1.256 . S
C171 La161 2.928 . S
C171 C172 1.503 . S
C171 O186 1.261 . S
C171 O187 1.243 . S
C172 C171 1.503 . S
C172 C173 1.394 . S
C172 C177 1.373 . S
C173 C172 1.394 . S
C173 C174 1.380 . S
C173 H196 0.930 . S
C174 C173 1.380 . S
C174 C175 1.376 . S
C174 H197 0.930 . S
C175 C174 1.376 . S
C175 C176 1.370 . S
C176 C175 1.370 . S
C176 C177 1.396 . S
C176 H198 0.929 . S
C177 C172 1.373 . S
C177 C176 1.396 . S
C177 H199 0.929 . S
C178 O188 1.240 . S
C178 O189 1.289 . S
C179 O190 1.258 . S
C179 O191 1.256 . S
O180 La160 2.521 . S
O180 C162 1.261 . S
O181 La160 2.628 . S
O181 C162 1.243 . S
O182 La160 2.554 . S
O182 C169 1.240 . S
O183 La160 2.757 . S
O183 La161 2.482 . S
O183 C169 1.289 . S
O184 La160 2.470 . S
O184 C170 1.258 . S
O185 La161 2.503 . S
O185 C170 1.256 . S
O186 La161 2.521 . S
O186 C171 1.261 . S
O187 La161 2.628 . S
O187 C171 1.243 . S
O188 La161 2.554 . S
O188 C178 1.240 . S
O189 La160 2.482 . S
O189 La161 2.757 . S
O189 C178 1.289 . S
O190 La161 2.470 . S
O190 C179 1.258 . S
O191 La160 2.503 . S
O191 C179 1.256 . S
H192 C164 0.930 . S
H193 C165 0.930 . S
H194 C167 0.929 . S
H195 C168 0.929 . S
H196 C173 0.930 . S
H197 C174 0.930 . S
H198 C176 0.929 . S
H199 C177 0.929 . S
La200 C202 2.928 . S
La200 O220 2.521 . S
La200 O221 2.628 . S
La200 O222 2.554 . S
La200 O223 2.757 . S
La200 O224 2.470 . S
La200 O229 2.482 . S
La200 O231 2.503 . S
La201 C211 2.928 . S
La201 O223 2.482 . S
La201 O225 2.503 . S
La201 O226 2.521 . S
La201 O227 2.628 . S
La201 O228 2.554 . S
La201 O229 2.757 . S
La201 O230 2.470 . S
C202 La200 2.928 . S
C202 C203 1.503 . S
C202 O220 1.261 . S
C202 O221 1.243 . S
C203 C202 1.503 . S
C203 C204 1.394 . S
C203 C208 1.373 . S
C204 C203 1.394 . S
C204 C205 1.380 . S
C204 H232 0.930 . S
C205 C204 1.380 . S
C205 C206 1.376 . S
C205 H233 0.930 . S
C206 C205 1.376 . S
C206 C207 1.370 . S
C207 C206 1.370 . S
C207 C208 1.396 . S
C207 H234 0.929 . S
C208 C203 1.373 . S
C208 C207 1.396 . S
C208 H235 0.929 . S
C209 O222 1.240 . S
C209 O223 1.289 . S
C210 O224 1.258 . S
C210 O225 1.256 . S
C211 La201 2.928 . S
C211 C212 1.503 . S
C211 O226 1.261 . S
C211 O227 1.243 . S
C212 C211 1.503 . S
C212 C213 1.394 . S
C212 C217 1.373 . S
C213 C212 1.394 . S
C213 C214 1.380 . S
C213 H236 0.930 . S
C214 C213 1.380 . S
C214 C215 1.376 . S
C214 H237 0.930 . S
C215 C214 1.376 . S
C215 C216 1.370 . S
C216 C215 1.370 . S
C216 C217 1.396 . S
C216 H238 0.929 . S
C217 C212 1.373 . S
C217 C216 1.396 . S
C217 H239 0.929 . S
C218 O228 1.240 . S
C218 O229 1.289 . S
C219 O230 1.258 . S
C219 O231 1.256 . S
O220 La200 2.521 . S
O220 C202 1.261 . S
O221 La200 2.628 . S
O221 C202 1.243 . S
O222 La200 2.554 . S
O222 C209 1.240 . S
O223 La200 2.757 . S
O223 La201 2.482 . S
O223 C209 1.289 . S
O224 La200 2.470 . S
O224 C210 1.258 . S
O225 La201 2.503 . S
O225 C210 1.256 . S
O226 La201 2.521 . S
O226 C211 1.261 . S
O227 La201 2.628 . S
O227 C211 1.243 . S
O228 La201 2.554 . S
O228 C218 1.240 . S
O229 La200 2.482 . S
O229 La201 2.757 . S
O229 C218 1.289 . S
O230 La201 2.470 . S
O230 C219 1.258 . S
O231 La200 2.503 . S
O231 C219 1.256 . S
H232 C204 0.930 . S
H233 C205 0.930 . S
H234 C207 0.929 . S
H235 C208 0.929 . S
H236 C213 0.930 . S
H237 C214 0.930 . S
H238 C216 0.929 . S
H239 C217 0.929 . S
La240 C242 2.928 . S
La240 O260 2.521 . S
La240 O261 2.628 . S
La240 O262 2.554 . S
La240 O263 2.757 . S
La240 O264 2.470 . S
La240 O269 2.482 . S
La240 O271 2.503 . S
La241 C251 2.928 . S
La241 O263 2.482 . S
La241 O265 2.503 . S
La241 O266 2.521 . S
La241 O267 2.628 . S
La241 O268 2.554 . S
La241 O269 2.757 . S
La241 O270 2.470 . S
C242 La240 2.928 . S
C242 C243 1.503 . S
C242 O260 1.261 . S
C242 O261 1.243 . S
C243 C242 1.503 . S
C243 C244 1.394 . S
C243 C248 1.373 . S
C244 C243 1.394 . S
C244 C245 1.380 . S
C244 H272 0.930 . S
C245 C244 1.380 . S
C245 C246 1.376 . S
C245 H273 0.930 . S
C246 C245 1.376 . S
C246 C247 1.370 . S
C247 C246 1.370 . S
C247 C248 1.396 . S
C247 H274 0.929 . S
C248 C243 1.373 . S
C248 C247 1.396 . S
C248 H275 0.929 . S
C249 O262 1.240 . S
C249 O263 1.289 . S
C250 O264 1.258 . S
C250 O265 1.256 . S
C251 La241 2.928 . S
C251 C252 1.503 . S
C251 O266 1.261 . S
C251 O267 1.243 . S
C252 C251 1.503 . S
C252 C253 1.394 . S
C252 C257 1.373 . S
C253 C252 1.394 . S
C253 C254 1.380 . S
C253 H276 0.930 . S
C254 C253 1.380 . S
C254 C255 1.376 . S
C254 H277 0.930 . S
C255 C254 1.376 . S
C255 C256 1.370 . S
C256 C255 1.370 . S
C256 C257 1.396 . S
C256 H278 0.929 . S
C257 C252 1.373 . S
C257 C256 1.396 . S
C257 H279 0.929 . S
C258 O268 1.240 . S
C258 O269 1.289 . S
C259 O270 1.258 . S
C259 O271 1.256 . S
O260 La240 2.521 . S
O260 C242 1.261 . S
O261 La240 2.628 . S
O261 C242 1.243 . S
O262 La240 2.554 . S
O262 C249 1.240 . S
O263 La240 2.757 . S
O263 La241 2.482 . S
O263 C249 1.289 . S
O264 La240 2.470 . S
O264 C250 1.258 . S
O265 La241 2.503 . S
O265 C250 1.256 . S
O266 La241 2.521 . S
O266 C251 1.261 . S
O267 La241 2.628 . S
O267 C251 1.243 . S
O268 La241 2.554 . S
O268 C258 1.240 . S
O269 La240 2.482 . S
O269 La241 2.757 . S
O269 C258 1.289 . S
O270 La241 2.470 . S
O270 C259 1.258 . S
O271 La240 2.503 . S
O271 C259 1.256 . S
H272 C244 0.930 . S
H273 C245 0.930 . S
H274 C247 0.929 . S
H275 C248 0.929 . S
H276 C253 0.930 . S
H277 C254 0.930 . S
H278 C256 0.929 . S
H279 C257 0.929 . S
La280 C282 2.928 . S
La280 O300 2.521 . S
La280 O301 2.628 . S
La280 O302 2.554 1_655 S
La280 O303 2.757 1_655 S
La280 O304 2.470 1_655 S
La280 O309 2.482 . S
La280 O311 2.503 . S
La281 C291 2.928 . S
La281 O303 2.482 . S
La281 O305 2.503 . S
La281 O306 2.521 . S
La281 O307 2.628 . S
La281 O308 2.554 1_455 S
La281 O309 2.757 1_455 S
La281 O310 2.470 1_455 S
C282 La280 2.928 . S
C282 C283 1.503 . S
C282 O300 1.261 . S
C282 O301 1.243 . S
C283 C282 1.503 . S
C283 C284 1.394 . S
C283 C288 1.373 . S
C284 C283 1.394 . S
C284 C285 1.380 . S
C284 H312 0.930 . S
C285 C284 1.380 . S
C285 C286 1.376 . S
C285 H313 0.930 . S
C286 C285 1.376 . S
C286 C287 1.370 . S
C287 C286 1.370 . S
C287 C288 1.396 . S
C287 H314 0.929 . S
C288 C283 1.373 . S
C288 C287 1.396 . S
C288 H315 0.929 . S
C289 O302 1.240 . S
C289 O303 1.289 . S
C290 O304 1.258 . S
C290 O305 1.256 . S
C291 La281 2.928 . S
C291 C292 1.503 . S
C291 O306 1.261 . S
C291 O307 1.243 . S
C292 C291 1.503 . S
C292 C293 1.394 . S
C292 C297 1.373 . S
C293 C292 1.394 . S
C293 C294 1.380 . S
C293 H316 0.930 . S
C294 C293 1.380 . S
C294 C295 1.376 . S
C294 H317 0.930 . S
C295 C294 1.376 . S
C295 C296 1.370 . S
C296 C295 1.370 . S
C296 C297 1.396 . S
C296 H318 0.929 . S
C297 C292 1.373 . S
C297 C296 1.396 . S
C297 H319 0.929 . S
C298 O308 1.240 . S
C298 O309 1.289 . S
C299 O310 1.258 . S
C299 O311 1.256 . S
O300 La280 2.521 . S
O300 C282 1.261 . S
O301 La280 2.628 . S
O301 C282 1.243 . S
O302 La280 2.554 1_455 S
O302 C289 1.240 . S
O303 La280 2.757 1_455 S
O303 La281 2.482 . S
O303 C289 1.289 . S
O304 La280 2.470 1_455 S
O304 C290 1.258 . S
O305 La281 2.503 . S
O305 C290 1.256 . S
O306 La281 2.521 . S
O306 C291 1.261 . S
O307 La281 2.628 . S
O307 C291 1.243 . S
O308 La281 2.554 1_655 S
O308 C298 1.240 . S
O309 La280 2.482 . S
O309 La281 2.757 1_655 S
O309 C298 1.289 . S
O310 La281 2.470 1_655 S
O310 C299 1.258 . S
O311 La280 2.503 . S
O311 C299 1.256 . S
H312 C284 0.930 . S
H313 C285 0.930 . S
H314 C287 0.929 . S
H315 C288 0.929 . S
H316 C293 0.930 . S
H317 C294 0.930 . S
H318 C296 0.929 . S
H319 C297 0.929 . S
La320 C322 2.928 . S
La320 O340 2.521 . S
La320 O341 2.616 1_556 S
La320 O342 2.554 . S
La320 O343 2.757 . S
La320 O344 2.470 1_556 S
La320 O349 2.482 1_556 S
La320 O351 2.503 . S
La321 C331 2.928 . S
La321 O343 2.482 1_554 S
La321 O345 2.503 . S
La321 O346 2.521 . S
La321 O347 2.622 1_554 S
La321 O348 2.554 . S
La321 O349 2.757 . S
La321 O350 2.470 1_554 S
C322 La320 2.928 . S
C322 C323 1.503 . S
C322 O340 1.261 . S
C322 O341 1.207 1_556 S
C323 C322 1.503 . S
C323 C324 1.394 . S
C323 C328 1.373 1_556 S
C324 C323 1.394 . S
C324 C325 1.380 . S
C324 H352 0.930 . S
C325 C324 1.380 . S
C325 C326 1.376 . S
C325 H353 0.930 . S
C326 C325 1.376 . S
C326 C327 1.370 1_556 S
C327 C326 1.370 1_554 S
C327 C328 1.396 . S
C327 H354 0.929 . S
C328 C323 1.373 1_554 S
C328 C327 1.396 . S
C328 H355 0.929 . S
C329 O342 1.240 . S
C329 O343 1.289 . S
C330 O344 1.258 . S
C330 O345 1.256 . S
C331 La321 2.928 . S
C331 C332 1.503 . S
C331 O346 1.261 . S
C331 O347 1.225 1_554 S
C332 C331 1.503 . S
C332 C333 1.394 . S
C332 C337 1.373 1_554 S
C333 C332 1.394 . S
C333 C334 1.380 . S
C333 H356 0.930 . S
C334 C333 1.380 . S
C334 C335 1.376 . S
C334 H357 0.930 . S
C335 C334 1.376 . S
C335 C336 1.370 1_554 S
C336 C335 1.370 1_556 S
C336 C337 1.396 . S
C336 H358 0.929 . S
C337 C332 1.373 1_556 S
C337 C336 1.396 . S
C337 H359 0.929 . S
C338 O348 1.240 . S
C338 O349 1.289 . S
C339 O350 1.258 . S
C339 O351 1.256 . S
O340 La320 2.521 . S
O340 C322 1.261 . S
O341 La320 2.616 1_554 S
O341 C322 1.207 1_554 S
O342 La320 2.554 . S
O342 C329 1.240 . S
O343 La320 2.757 . S
O343 La321 2.482 1_556 S
O343 C329 1.289 . S
O344 La320 2.470 1_554 S
O344 C330 1.258 . S
O345 La321 2.503 . S
O345 C330 1.256 . S
O346 La321 2.521 . S
O346 C331 1.261 . S
O347 La321 2.622 1_556 S
O347 C331 1.225 1_556 S
O348 La321 2.554 . S
O348 C338 1.240 . S
O349 La320 2.482 1_554 S
O349 La321 2.757 . S
O349 C338 1.289 . S
O350 La321 2.470 1_556 S
O350 C339 1.258 . S
O351 La320 2.503 . S
O351 C339 1.256 . S
H352 C324 0.930 . S
H353 C325 0.930 . S
H354 C327 0.929 . S
H355 C328 0.929 . S
H356 C333 0.930 . S
H357 C334 0.930 . S
H358 C336 0.929 . S
H359 C337 0.929 . S
La360 C362 2.928 . S
La360 O380 2.521 . S
La360 O381 2.628 1_565 S
La360 O382 2.554 . S
La360 O383 2.757 . S
La360 O384 2.470 1_565 S
La360 O389 2.482 1_565 S
La360 O391 2.503 . S
La361 C371 2.928 . S
La361 O383 2.482 1_545 S
La361 O385 2.503 . S
La361 O386 2.521 . S
La361 O387 2.628 1_545 S
La361 O388 2.554 . S
La361 O389 2.757 . S
La361 O390 2.470 1_545 S
C362 La360 2.928 . S
C362 C363 1.501 . S
C362 O380 1.261 . S
C362 O381 1.243 1_565 S
C363 C362 1.501 . S
C363 C364 1.407 . S
C363 C368 1.362 1_565 S
C364 C363 1.407 . S
C364 C365 1.380 . S
C364 H392 0.930 . S
C365 C364 1.380 . S
C365 C366 1.376 1_565 S
C365 H393 0.930 . S
C366 C365 1.376 1_545 S
C366 C367 1.370 . S
C367 C366 1.370 . S
C367 C368 1.396 . S
C367 H394 0.929 . S
C368 C363 1.362 1_545 S
C368 C367 1.396 . S
C368 H395 0.929 . S
C369 O382 1.240 . S
C369 O383 1.289 . S
C370 O384 1.258 . S
C370 O385 1.256 . S
C371 La361 2.928 . S
C371 C372 1.499 . S
C371 O386 1.261 . S
C371 O387 1.243 1_545 S
C372 C371 1.499 . S
C372 C373 1.420 . S
C372 C377 1.352 1_545 S
C373 C372 1.420 . S
C373 C374 1.380 . S
C373 H396 0.930 . S
C374 C373 1.380 . S
C374 C375 1.376 1_545 S
C374 H397 0.930 . S
C375 C374 1.376 1_565 S
C375 C376 1.370 . S
C376 C375 1.370 . S
C376 C377 1.396 . S
C376 H398 0.929 . S
C377 C372 1.352 1_565 S
C377 C376 1.396 . S
C377 H399 0.929 . S
C378 O388 1.240 . S
C378 O389 1.289 . S
C379 O390 1.258 . S
C379 O391 1.256 . S
O380 La360 2.521 . S
O380 C362 1.261 . S
O381 La360 2.628 1_545 S
O381 C362 1.243 1_545 S
O382 La360 2.554 . S
O382 C369 1.240 . S
O383 La360 2.757 . S
O383 La361 2.482 1_565 S
O383 C369 1.289 . S
O384 La360 2.470 1_545 S
O384 C370 1.258 . S
O385 La361 2.503 . S
O385 C370 1.256 . S
O386 La361 2.521 . S
O386 C371 1.261 . S
O387 La361 2.628 1_565 S
O387 C371 1.243 1_565 S
O388 La361 2.554 . S
O388 C378 1.240 . S
O389 La360 2.482 1_545 S
O389 La361 2.757 . S
O389 C378 1.289 . S
O390 La361 2.470 1_565 S
O390 C379 1.258 . S
O391 La360 2.503 . S
O391 C379 1.256 . S
H392 C364 0.930 . S
H393 C365 0.930 . S
H394 C367 0.929 . S
H395 C368 0.929 . S
H396 C373 0.930 . S
H397 C374 0.930 . S
H398 C376 0.929 . S
H399 C377 0.929 . S
La400 C402 2.928 . S
La400 O420 2.521 . S
La400 O421 2.628 . S
La400 O422 2.554 . S
La400 O423 2.757 . S
La400 O424 2.470 . S
La400 O429 2.482 . S
La400 O431 2.503 . S
La401 C411 2.928 . S
La401 O423 2.482 . S
La401 O425 2.503 . S
La401 O426 2.521 . S
La401 O427 2.628 . S
La401 O428 2.554 . S
La401 O429 2.757 . S
La401 O430 2.470 . S
C402 La400 2.928 . S
C402 C403 1.503 . S
C402 O420 1.261 . S
C402 O421 1.243 . S
C403 C402 1.503 . S
C403 C404 1.394 . S
C403 C408 1.373 . S
C404 C403 1.394 . S
C404 C405 1.380 . S
C404 H432 0.930 . S
C405 C404 1.380 . S
C405 C406 1.376 . S
C405 H433 0.930 . S
C406 C405 1.376 . S
C406 C407 1.370 . S
C407 C406 1.370 . S
C407 C408 1.396 . S
C407 H434 0.929 . S
C408 C403 1.373 . S
C408 C407 1.396 . S
C408 H435 0.929 . S
C409 O422 1.240 . S
C409 O423 1.289 . S
C410 O424 1.258 . S
C410 O425 1.256 . S
C411 La401 2.928 . S
C411 C412 1.503 . S
C411 O426 1.261 . S
C411 O427 1.243 . S
C412 C411 1.503 . S
C412 C413 1.394 . S
C412 C417 1.373 . S
C413 C412 1.394 . S
C413 C414 1.380 . S
C413 H436 0.930 . S
C414 C413 1.380 . S
C414 C415 1.376 . S
C414 H437 0.930 . S
C415 C414 1.376 . S
C415 C416 1.370 . S
C416 C415 1.370 . S
C416 C417 1.396 . S
C416 H438 0.929 . S
C417 C412 1.373 . S
C417 C416 1.396 . S
C417 H439 0.929 . S
C418 O428 1.240 . S
C418 O429 1.289 . S
C419 O430 1.258 . S
C419 O431 1.256 . S
O420 La400 2.521 . S
O420 C402 1.261 . S
O421 La400 2.628 . S
O421 C402 1.243 . S
O422 La400 2.554 . S
O422 C409 1.240 . S
O423 La400 2.757 . S
O423 La401 2.482 . S
O423 C409 1.289 . S
O424 La400 2.470 . S
O424 C410 1.258 . S
O425 La401 2.503 . S
O425 C410 1.256 . S
O426 La401 2.521 . S
O426 C411 1.261 . S
O427 La401 2.628 . S
O427 C411 1.243 . S
O428 La401 2.554 . S
O428 C418 1.240 . S
O429 La400 2.482 . S
O429 La401 2.757 . S
O429 C418 1.289 . S
O430 La401 2.470 . S
O430 C419 1.258 . S
O431 La400 2.503 . S
O431 C419 1.256 . S
H432 C404 0.930 . S
H433 C405 0.930 . S
H434 C407 0.929 . S
H435 C408 0.929 . S
H436 C413 0.930 . S
H437 C414 0.930 . S
H438 C416 0.929 . S
H439 C417 0.929 . S
La440 C442 2.928 . S
La440 O460 2.521 . S
La440 O461 2.628 1_455 S
La440 O462 2.554 . S
La440 O463 2.757 . S
La440 O464 2.470 1_455 S
La440 O469 2.482 1_455 S
La440 O471 2.503 . S
La441 C451 2.928 . S
La441 O463 2.482 1_655 S
La441 O465 2.503 . S
La441 O466 2.521 . S
La441 O467 2.628 1_655 S
La441 O468 2.554 . S
La441 O469 2.757 . S
La441 O470 2.470 1_655 S
C442 La440 2.928 . S
C442 C443 1.503 . S
C442 O460 1.261 . S
C442 O461 1.243 1_455 S
C443 C442 1.503 . S
C443 C444 1.394 . S
C443 C448 1.373 1_455 S
C444 C443 1.394 . S
C444 C445 1.380 . S
C444 H472 0.930 . S
C445 C444 1.380 . S
C445 C446 1.376 1_455 S
C445 H473 0.930 . S
C446 C445 1.376 1_655 S
C446 C447 1.370 . S
C447 C446 1.370 . S
C447 C448 1.396 . S
C447 H474 0.929 . S
C448 C443 1.373 1_655 S
C448 C447 1.396 . S
C448 H475 0.929 . S
C449 O462 1.240 . S
C449 O463 1.289 . S
C450 O464 1.258 . S
C450 O465 1.256 . S
C451 La441 2.928 . S
C451 C452 1.503 . S
C451 O466 1.261 . S
C451 O467 1.243 1_655 S
C452 C451 1.503 . S
C452 C453 1.394 . S
C452 C457 1.373 1_655 S
C453 C452 1.394 . S
C453 C454 1.380 . S
C453 H476 0.930 . S
C454 C453 1.380 . S
C454 C455 1.376 1_655 S
C454 H477 0.930 . S
C455 C454 1.376 1_455 S
C455 C456 1.370 . S
C456 C455 1.370 . S
C456 C457 1.396 . S
C456 H478 0.929 . S
C457 C452 1.373 1_455 S
C457 C456 1.396 . S
C457 H479 0.929 . S
C458 O468 1.240 . S
C458 O469 1.289 . S
C459 O470 1.258 . S
C459 O471 1.256 . S
O460 La440 2.521 . S
O460 C442 1.261 . S
O461 La440 2.628 1_655 S
O461 C442 1.243 1_655 S
O462 La440 2.554 . S
O462 C449 1.240 . S
O463 La440 2.757 . S
O463 La441 2.482 1_455 S
O463 C449 1.289 . S
O464 La440 2.470 1_655 S
O464 C450 1.258 . S
O465 La441 2.503 . S
O465 C450 1.256 . S
O466 La441 2.521 . S
O466 C451 1.261 . S
O467 La441 2.628 1_455 S
O467 C451 1.243 1_455 S
O468 La441 2.554 . S
O468 C458 1.240 . S
O469 La440 2.482 1_655 S
O469 La441 2.757 . S
O469 C458 1.289 . S
O470 La441 2.470 1_455 S
O470 C459 1.258 . S
O471 La440 2.503 . S
O471 C459 1.256 . S
H472 C444 0.930 . S
H473 C445 0.930 . S
H474 C447 0.929 . S
H475 C448 0.929 . S
H476 C453 0.930 . S
H477 C454 0.930 . S
H478 C456 0.929 . S
H479 C457 0.929 . S
La480 C482 2.928 . S
La480 O500 2.521 . S
La480 O501 2.628 . S
La480 O502 2.554 . S
La480 O503 2.757 . S
La480 O504 2.470 . S
La480 O509 2.482 . S
La480 O511 2.503 . S
La481 C491 2.928 . S
La481 O503 2.482 . S
La481 O505 2.503 . S
La481 O506 2.521 . S
La481 O507 2.628 . S
La481 O508 2.554 . S
La481 O509 2.757 . S
La481 O510 2.470 . S
C482 La480 2.928 . S
C482 C483 1.503 . S
C482 O500 1.261 . S
C482 O501 1.243 . S
C483 C482 1.503 . S
C483 C484 1.394 . S
C483 C488 1.373 . S
C484 C483 1.394 . S
C484 C485 1.380 . S
C484 H512 0.930 . S
C485 C484 1.380 . S
C485 C486 1.376 . S
C485 H513 0.930 . S
C486 C485 1.376 . S
C486 C487 1.370 . S
C487 C486 1.370 . S
C487 C488 1.396 . S
C487 H514 0.929 . S
C488 C483 1.373 . S
C488 C487 1.396 . S
C488 H515 0.929 . S
C489 O502 1.240 . S
C489 O503 1.289 . S
C490 O504 1.258 . S
C490 O505 1.256 . S
C491 La481 2.928 . S
C491 C492 1.503 . S
C491 O506 1.261 . S
C491 O507 1.243 . S
C492 C491 1.503 . S
C492 C493 1.394 . S
C492 C497 1.373 . S
C493 C492 1.394 . S
C493 C494 1.380 . S
C493 H516 0.930 . S
C494 C493 1.380 . S
C494 C495 1.376 . S
C494 H517 0.930 . S
C495 C494 1.376 . S
C495 C496 1.370 . S
C496 C495 1.370 . S
C496 C497 1.396 . S
C496 H518 0.929 . S
C497 C492 1.373 . S
C497 C496 1.396 . S
C497 H519 0.929 . S
C498 O508 1.240 . S
C498 O509 1.289 . S
C499 O510 1.258 . S
C499 O511 1.256 . S
O500 La480 2.521 . S
O500 C482 1.261 . S
O501 La480 2.628 . S
O501 C482 1.243 . S
O502 La480 2.554 . S
O502 C489 1.240 . S
O503 La480 2.757 . S
O503 La481 2.482 . S
O503 C489 1.289 . S
O504 La480 2.470 . S
O504 C490 1.258 . S
O505 La481 2.503 . S
O505 C490 1.256 . S
O506 La481 2.521 . S
O506 C491 1.261 . S
O507 La481 2.628 . S
O507 C491 1.243 . S
O508 La481 2.554 . S
O508 C498 1.240 . S
O509 La480 2.482 . S
O509 La481 2.757 . S
O509 C498 1.289 . S
O510 La481 2.470 . S
O510 C499 1.258 . S
O511 La480 2.503 . S
O511 C499 1.256 . S
H512 C484 0.930 . S
H513 C485 0.930 . S
H514 C487 0.929 . S
H515 C488 0.929 . S
H516 C493 0.930 . S
H517 C494 0.930 . S
H518 C496 0.929 . S
H519 C497 0.929 . S
La520 C522 2.928 . S
La520 O540 2.521 . S
La520 O541 2.616 1_556 S
La520 O542 2.554 . S
La520 O543 2.757 . S
La520 O544 2.470 1_556 S
La520 O549 2.482 1_556 S
La520 O551 2.503 . S
La521 C531 2.928 . S
La521 O543 2.482 1_554 S
La521 O545 2.503 . S
La521 O546 2.521 . S
La521 O547 2.622 1_554 S
La521 O548 2.554 . S
La521 O549 2.757 . S
La521 O550 2.470 1_554 S
C522 La520 2.928 . S
C522 C523 1.503 . S
C522 O540 1.261 . S
C522 O541 1.207 1_556 S
C523 C522 1.503 . S
C523 C524 1.394 . S
C523 C528 1.373 1_556 S
C524 C523 1.394 . S
C524 C525 1.380 . S
C524 H552 0.930 . S
C525 C524 1.380 . S
C525 C526 1.376 . S
C525 H553 0.930 . S
C526 C525 1.376 . S
C526 C527 1.370 1_556 S
C527 C526 1.370 1_554 S
C527 C528 1.396 . S
C527 H554 0.929 . S
C528 C523 1.373 1_554 S
C528 C527 1.396 . S
C528 H555 0.929 . S
C529 O542 1.240 . S
C529 O543 1.289 . S
C530 O544 1.258 . S
C530 O545 1.256 . S
C531 La521 2.928 . S
C531 C532 1.503 . S
C531 O546 1.261 . S
C531 O547 1.224 1_554 S
C532 C531 1.503 . S
C532 C533 1.394 . S
C532 C537 1.373 1_554 S
C533 C532 1.394 . S
C533 C534 1.380 . S
C533 H556 0.930 . S
C534 C533 1.380 . S
C534 C535 1.376 . S
C534 H557 0.930 . S
C535 C534 1.376 . S
C535 C536 1.370 1_554 S
C536 C535 1.370 1_556 S
C536 C537 1.396 . S
C536 H558 0.929 . S
C537 C532 1.373 1_556 S
C537 C536 1.396 . S
C537 H559 0.929 . S
C538 O548 1.240 . S
C538 O549 1.289 . S
C539 O550 1.258 . S
C539 O551 1.256 . S
O540 La520 2.521 . S
O540 C522 1.261 . S
O541 La520 2.616 1_554 S
O541 C522 1.207 1_554 S
O542 La520 2.554 . S
O542 C529 1.240 . S
O543 La520 2.757 . S
O543 La521 2.482 1_556 S
O543 C529 1.289 . S
O544 La520 2.470 1_554 S
O544 C530 1.258 . S
O545 La521 2.503 . S
O545 C530 1.256 . S
O546 La521 2.521 . S
O546 C531 1.261 . S
O547 La521 2.622 1_556 S
O547 C531 1.224 1_556 S
O548 La521 2.554 . S
O548 C538 1.240 . S
O549 La520 2.482 1_554 S
O549 La521 2.757 . S
O549 C538 1.289 . S
O550 La521 2.470 1_556 S
O550 C539 1.258 . S
O551 La520 2.503 . S
O551 C539 1.256 . S
H552 C524 0.930 . S
H553 C525 0.930 . S
H554 C527 0.929 . S
H555 C528 0.929 . S
H556 C533 0.930 . S
H557 C534 0.930 . S
H558 C536 0.929 . S
H559 C537 0.929 . S
La560 C562 2.928 . S
La560 O580 2.521 . S
La560 O581 2.628 . S
La560 O582 2.554 . S
La560 O583 2.757 . S
La560 O584 2.470 . S
La560 O589 2.482 1_565 S
La560 O591 2.503 1_565 S
La561 C571 2.928 . S
La561 O583 2.482 1_545 S
La561 O585 2.503 1_545 S
La561 O586 2.521 . S
La561 O587 2.628 . S
La561 O588 2.554 . S
La561 O589 2.757 . S
La561 O590 2.470 . S
C562 La560 2.928 . S
C562 C563 1.503 . S
C562 O580 1.261 . S
C562 O581 1.243 . S
C563 C562 1.503 . S
C563 C564 1.394 . S
C563 C568 1.373 . S
C564 C563 1.394 . S
C564 C565 1.380 . S
C564 H592 0.930 . S
C565 C564 1.380 . S
C565 C566 1.376 . S
C565 H593 0.930 . S
C566 C565 1.376 . S
C566 C567 1.370 . S
C567 C566 1.370 . S
C567 C568 1.396 . S
C567 H594 0.929 . S
C568 C563 1.373 . S
C568 C567 1.396 . S
C568 H595 0.929 . S
C569 O582 1.240 . S
C569 O583 1.289 . S
C570 O584 1.258 . S
C570 O585 1.256 . S
C571 La561 2.928 . S
C571 C572 1.503 . S
C571 O586 1.261 . S
C571 O587 1.243 . S
C572 C571 1.503 . S
C572 C573 1.394 . S
C572 C577 1.373 . S
C573 C572 1.394 . S
C573 C574 1.380 . S
C573 H596 0.930 . S
C574 C573 1.380 . S
C574 C575 1.376 . S
C574 H597 0.930 . S
C575 C574 1.376 . S
C575 C576 1.370 . S
C576 C575 1.370 . S
C576 C577 1.396 . S
C576 H598 0.929 . S
C577 C572 1.373 . S
C577 C576 1.396 . S
C577 H599 0.929 . S
C578 O588 1.240 . S
C578 O589 1.289 . S
C579 O590 1.258 . S
C579 O591 1.256 . S
O580 La560 2.521 . S
O580 C562 1.261 . S
O581 La560 2.628 . S
O581 C562 1.243 . S
O582 La560 2.554 . S
O582 C569 1.240 . S
O583 La560 2.757 . S
O583 La561 2.482 1_565 S
O583 C569 1.289 . S
O584 La560 2.470 . S
O584 C570 1.258 . S
O585 La561 2.503 1_565 S
O585 C570 1.256 . S
O586 La561 2.521 . S
O586 C571 1.261 . S
O587 La561 2.628 . S
O587 C571 1.243 . S
O588 La561 2.554 . S
O588 C578 1.240 . S
O589 La560 2.482 1_545 S
O589 La561 2.757 . S
O589 C578 1.289 . S
O590 La561 2.470 . S
O590 C579 1.258 . S
O591 La560 2.503 1_545 S
O591 C579 1.256 . S
H592 C564 0.930 . S
H593 C565 0.930 . S
H594 C567 0.929 . S
H595 C568 0.929 . S
H596 C573 0.930 . S
H597 C574 0.930 . S
H598 C576 0.929 . S
H599 C577 0.929 . S
La600 C602 2.928 . S
La600 O620 2.521 . S
La600 O621 2.628 . S
La600 O622 2.554 . S
La600 O623 2.757 . S
La600 O624 2.470 1_554 S
La600 O629 2.482 1_554 S
La600 O631 2.503 . S
La601 C611 2.928 . S
La601 O623 2.482 1_556 S
La601 O625 2.503 . S
La601 O626 2.521 . S
La601 O627 2.628 . S
La601 O628 2.554 . S
La601 O629 2.757 . S
La601 O630 2.470 1_556 S
C602 La600 2.928 . S
C602 C603 1.503 . S
C602 O620 1.261 . S
C602 O621 1.243 . S
C603 C602 1.503 . S
C603 C604 1.394 . S
C603 C608 1.373 . S
C604 C603 1.394 . S
C604 C605 1.380 . S
C604 H632 0.930 . S
C605 C604 1.380 . S
C605 C606 1.376 . S
C605 H633 0.930 . S
C606 C605 1.376 . S
C606 C607 1.370 . S
C607 C606 1.370 . S
C607 C608 1.396 . S
C607 H634 0.963 . S
C608 C603 1.373 . S
C608 C607 1.396 . S
C608 H635 0.929 1_554 S
C609 O622 1.240 . S
C609 O623 1.289 . S
C610 O624 1.258 . S
C610 O625 1.256 . S
C611 La601 2.928 . S
C611 C612 1.503 . S
C611 O626 1.261 . S
C611 O627 1.243 . S
C612 C611 1.503 . S
C612 C613 1.394 . S
C612 C617 1.373 . S
C613 C612 1.394 . S
C613 C614 1.380 . S
C613 H636 0.930 . S
C614 C613 1.380 . S
C614 C615 1.376 . S
C614 H637 0.930 . S
C615 C614 1.376 . S
C615 C616 1.370 . S
C616 C615 1.370 . S
C616 C617 1.396 . S
C616 H638 0.943 . S
C617 C612 1.373 . S
C617 C616 1.396 . S
C617 H639 0.929 1_556 S
C618 O628 1.240 . S
C618 O629 1.289 . S
C619 O630 1.258 . S
C619 O631 1.256 . S
O620 La600 2.521 . S
O620 C602 1.261 . S
O621 La600 2.628 . S
O621 C602 1.243 . S
O622 La600 2.554 . S
O622 C609 1.240 . S
O623 La600 2.757 . S
O623 La601 2.482 1_554 S
O623 C609 1.289 . S
O624 La600 2.470 1_556 S
O624 C610 1.258 . S
O625 La601 2.503 . S
O625 C610 1.256 . S
O626 La601 2.521 . S
O626 C611 1.261 . S
O627 La601 2.628 . S
O627 C611 1.243 . S
O628 La601 2.554 . S
O628 C618 1.240 . S
O629 La600 2.482 1_556 S
O629 La601 2.757 . S
O629 C618 1.289 . S
O630 La601 2.470 1_554 S
O630 C619 1.258 . S
O631 La600 2.503 . S
O631 C619 1.256 . S
H632 C604 0.930 . S
H633 C605 0.930 . S
H634 C607 0.963 . S
H635 C608 0.929 1_556 S
H636 C613 0.930 . S
H637 C614 0.930 . S
H638 C616 0.943 . S
H639 C617 0.929 1_554 S
H640 C648 0.929 . S
H641 C650 0.930 . S
H642 C652 0.930 . S
H643 C655 0.929 . S
H644 C658 0.930 . S
H645 C660 0.960 . S
H646 C660 0.960 . S
H647 C660 0.960 . S
C648 H640 0.929 . S
C648 C649 1.377 1_455 S
C648 C650 1.384 . S
C649 C648 1.377 1_655 S
C649 C655 1.390 . S
C650 H641 0.930 . S
C650 C648 1.384 . S
C650 C651 1.372 1_455 S
C651 C650 1.372 1_655 S
C651 C652 1.400 . S
C651 C656 1.490 . S
C652 H642 0.930 . S
C652 C651 1.400 . S
C652 C655 1.386 . S
H653 C669 0.930 . S
H654 C670 0.931 . S
C655 H643 0.929 . S
C655 C649 1.390 . S
C655 C652 1.386 . S
C656 C651 1.490 . S
C656 C658 1.395 1_655 S
C656 C659 1.403 . S
H657 C663 0.930 . S
C658 H644 0.930 . S
C658 C656 1.395 1_455 S
C658 C661 1.403 . S
C659 C656 1.403 . S
C659 C660 1.524 . S
C659 C663 1.400 . S
C660 H645 0.960 . S
C660 H646 0.960 . S
C660 H647 0.960 . S
C660 C659 1.524 . S
C661 C658 1.403 . S
C661 C662 1.392 1_455 S
C661 C665 1.495 . S
C662 C661 1.392 1_655 S
C662 C663 1.383 . S
C662 C664 1.479 1_655 S
C663 H657 0.930 . S
C663 C659 1.400 . S
C663 C662 1.383 . S
C664 C662 1.479 1_455 S
C664 C666 1.381 . S
C664 C670 1.383 1_455 S
C665 C661 1.495 . S
C665 H671 0.959 . S
C665 H672 0.961 1_455 S
C665 H673 0.960 . S
C666 C664 1.381 . S
C666 C667 1.394 . S
C666 H674 0.930 . S
C667 C666 1.394 . S
C667 C668 1.383 . S
C667 H675 0.929 . S
C668 C667 1.383 . S
C668 C669 1.377 1_455 S
C669 H653 0.930 . S
C669 C668 1.377 1_655 S
C669 C670 1.379 . S
C670 H654 0.931 . S
C670 C664 1.383 1_655 S
C670 C669 1.379 . S
H671 C665 0.959 . S
H672 C665 0.961 1_655 S
H673 C665 0.960 . S
H674 C666 0.930 . S
H675 C667 0.929 . S
H676 C684 0.929 . S
H677 C686 0.930 . S
H678 C688 0.930 . S
H679 C691 0.929 . S
H680 C694 0.930 . S
H681 C696 0.960 . S
H682 C696 0.960 . S
H683 C696 0.960 . S
C684 H676 0.929 . S
C684 C685 1.377 . S
C684 C686 1.384 . S
C685 C684 1.377 . S
C685 C691 1.390 . S
C686 H677 0.930 . S
C686 C684 1.384 . S
C686 C687 1.372 . S
C687 C686 1.372 . S
C687 C688 1.400 . S
C687 C692 1.490 . S
C688 H678 0.930 . S
C688 C687 1.400 . S
C688 C691 1.386 . S
H689 C705 0.930 . S
H690 C706 0.931 . S
C691 H679 0.929 . S
C691 C685 1.390 . S
C691 C688 1.386 . S
C692 C687 1.490 . S
C692 C694 1.395 . S
C692 C695 1.403 . S
H693 C699 0.930 . S
C694 H680 0.930 . S
C694 C692 1.395 . S
C694 C697 1.403 . S
C695 C692 1.403 . S
C695 C696 1.524 . S
C695 C699 1.400 . S
C696 H681 0.960 . S
C696 H682 0.960 . S
C696 H683 0.960 . S
C696 C695 1.524 . S
C697 C694 1.403 . S
C697 C698 1.392 . S
C697 C701 1.495 . S
C698 C697 1.392 . S
C698 C699 1.385 . S
C698 C700 1.478 . S
C699 H693 0.930 . S
C699 C695 1.400 . S
C699 C698 1.385 . S
C700 C698 1.478 . S
C700 C702 1.381 . S
C700 C706 1.383 . S
C701 C697 1.495 . S
C701 H707 0.959 . S
C701 H708 0.961 . S
C701 H709 0.960 . S
C702 C700 1.381 . S
C702 C703 1.394 . S
C702 H710 0.930 . S
C703 C702 1.394 . S
C703 C704 1.383 . S
C703 H711 0.929 . S
C704 C703 1.383 . S
C704 C705 1.377 . S
C705 H689 0.930 . S
C705 C704 1.377 . S
C705 C706 1.379 . S
C706 H690 0.931 . S
C706 C700 1.383 . S
C706 C705 1.379 . S
H707 C701 0.959 . S
H708 C701 0.961 . S
H709 C701 0.960 . S
H710 C702 0.930 . S
H711 C703 0.929 . S
H712 C720 0.929 . S
H713 C722 0.930 . S
H714 C724 0.930 . S
H715 C727 0.929 . S
H716 C730 0.930 . S
H717 C732 0.960 . S
H718 C732 0.960 . S
H719 C732 0.960 . S
C720 H712 0.929 . S
C720 C721 1.377 . S
C720 C722 1.384 . S
C721 C720 1.377 . S
C721 C727 1.390 . S
C722 H713 0.930 . S
C722 C720 1.384 . S
C722 C723 1.372 . S
C723 C722 1.372 . S
C723 C724 1.400 . S
C723 C728 1.490 . S
C724 H714 0.930 . S
C724 C723 1.400 . S
C724 C727 1.386 . S
H725 C741 0.930 . S
H726 C742 0.931 . S
C727 H715 0.929 . S
C727 C721 1.390 . S
C727 C724 1.386 . S
C728 C723 1.490 . S
C728 C730 1.395 . S
C728 C731 1.403 . S
H729 C735 0.930 . S
C730 H716 0.930 . S
C730 C728 1.395 . S
C730 C733 1.403 . S
C731 C728 1.403 . S
C731 C732 1.524 . S
C731 C735 1.400 . S
C732 H717 0.960 . S
C732 H718 0.960 . S
C732 H719 0.960 . S
C732 C731 1.524 . S
C733 C730 1.403 . S
C733 C734 1.392 . S
C733 C737 1.495 . S
C734 C733 1.392 . S
C734 C735 1.385 . S
C734 C736 1.478 . S
C735 H729 0.930 . S
C735 C731 1.400 . S
C735 C734 1.385 . S
C736 C734 1.478 . S
C736 C738 1.381 . S
C736 C742 1.383 . S
C737 C733 1.495 . S
C737 H743 0.959 . S
C737 H744 0.961 . S
C737 H745 0.960 . S
C738 C736 1.381 . S
C738 C739 1.394 . S
C738 H746 0.930 . S
C739 C738 1.394 . S
C739 C740 1.383 . S
C739 H747 0.929 . S
C740 C739 1.383 . S
C740 C741 1.377 . S
C741 H725 0.930 . S
C741 C740 1.377 . S
C741 C742 1.379 . S
C742 H726 0.931 . S
C742 C736 1.383 . S
C742 C741 1.379 . S
H743 C737 0.959 . S
H744 C737 0.961 . S
H745 C737 0.960 . S
H746 C738 0.930 . S
H747 C739 0.929 . S
H748 C756 0.929 . S
H749 C758 0.930 . S
H750 C760 0.930 . S
H751 C763 0.929 . S
H752 C766 0.930 . S
H753 C768 0.960 . S
H754 C768 0.960 . S
H755 C768 0.960 . S
C756 H748 0.929 . S
C756 C757 1.377 . S
C756 C758 1.384 . S
C757 C756 1.377 . S
C757 C763 1.390 . S
C758 H749 0.930 . S
C758 C756 1.384 . S
C758 C759 1.372 . S
C759 C758 1.372 . S
C759 C760 1.400 . S
C759 C764 1.490 . S
C760 H750 0.930 . S
C760 C759 1.400 . S
C760 C763 1.386 . S
H761 C777 0.928 . S
H762 C778 0.931 . S
C763 H751 0.929 . S
C763 C757 1.390 . S
C763 C760 1.386 . S
C764 C759 1.490 . S
C764 C766 1.395 . S
C764 C767 1.403 1_545 S
H765 C771 0.930 . S
C766 H752 0.930 . S
C766 C764 1.395 . S
C766 C769 1.403 . S
C767 C764 1.403 1_565 S
C767 C768 1.524 . S
C767 C771 1.400 . S
C768 H753 0.960 . S
C768 H754 0.960 . S
C768 H755 0.960 . S
C768 C767 1.524 . S
C769 C766 1.403 . S
C769 C770 1.392 . S
C769 C773 1.495 . S
C770 C769 1.392 . S
C770 C771 1.385 1_545 S
C770 C772 1.478 . S
C771 H765 0.930 . S
C771 C767 1.400 . S
C771 C770 1.385 1_565 S
C772 C770 1.478 . S
C772 C774 1.378 1_545 S
C772 C778 1.383 . S
C773 C769 1.495 . S
C773 H779 0.959 . S
C773 H780 0.961 . S
C773 H781 0.960 . S
C774 C772 1.378 1_565 S
C774 C775 1.398 . S
C774 H782 0.930 1_565 S
C775 C774 1.398 . S
C775 C776 1.383 . S
C775 H783 0.929 . S
C776 C775 1.383 . S
C776 C777 1.394 . S
C777 H761 0.928 . S
C777 C776 1.394 . S
C777 C778 1.358 1_565 S
C778 H762 0.931 . S
C778 C772 1.383 . S
C778 C777 1.358 1_545 S
H779 C773 0.959 . S
H780 C773 0.961 . S
H781 C773 0.960 . S
H782 C774 0.930 1_545 S
H783 C775 0.929 . S
H784 C792 0.929 . S
H785 C794 0.930 . S
H786 C796 0.930 1_545 S
H787 C799 0.929 1_545 S
H788 C802 0.930 . S
H789 C804 0.960 . S
H790 C804 0.960 . S
H791 C804 0.960 . S
C792 H784 0.929 . S
C792 C793 1.377 . S
C792 C794 1.384 . S
C793 C792 1.377 . S
C793 C799 1.390 . S
C794 H785 0.930 . S
C794 C792 1.384 . S
C794 C795 1.372 . S
C795 C794 1.372 . S
C795 C796 1.400 . S
C795 C800 1.490 . S
C796 H786 0.930 1_565 S
C796 C795 1.400 . S
C796 C799 1.386 . S
H797 C813 0.930 . S
H798 C814 0.931 . S
C799 H787 0.929 1_565 S
C799 C793 1.390 . S
C799 C796 1.386 . S
C800 C795 1.490 . S
C800 C802 1.395 . S
C800 C803 1.403 1_565 S
H801 C807 0.930 . S
C802 H788 0.930 . S
C802 C800 1.395 . S
C802 C805 1.403 . S
C803 C800 1.403 1_545 S
C803 C804 1.524 . S
C803 C807 1.400 . S
C804 H789 0.960 . S
C804 H790 0.960 . S
C804 H791 0.960 . S
C804 C803 1.524 . S
C805 C802 1.403 . S
C805 C806 1.392 . S
C805 C809 1.495 . S
C806 C805 1.392 . S
C806 C807 1.385 1_565 S
C806 C808 1.478 . S
C807 H801 0.930 . S
C807 C803 1.400 . S
C807 C806 1.385 1_545 S
C808 C806 1.478 . S
C808 C810 1.381 . S
C808 C814 1.383 1_565 S
C809 C805 1.495 . S
C809 H815 0.959 . S
C809 H816 0.961 . S
C809 H817 0.960 . S
C810 C808 1.381 . S
C810 C811 1.394 . S
C810 H818 0.930 . S
C811 C810 1.394 . S
C811 C812 1.383 1_565 S
C811 H819 0.929 . S
C812 C811 1.383 1_545 S
C812 C813 1.377 . S
C813 H797 0.930 . S
C813 C812 1.377 . S
C813 C814 1.379 . S
C814 H798 0.931 . S
C814 C808 1.383 1_545 S
C814 C813 1.379 . S
H815 C809 0.959 . S
H816 C809 0.961 . S
H817 C809 0.960 . S
H818 C810 0.930 . S
H819 C811 0.929 . S
H820 C828 0.929 . S
H821 C830 0.930 . S
H822 C832 0.930 . S
H823 C835 0.929 . S
H824 C838 0.930 . S
H825 C840 0.960 . S
H826 C840 0.960 . S
H827 C840 0.960 . S
C828 H820 0.929 . S
C828 C829 1.377 1_655 S
C828 C830 1.384 . S
C829 C828 1.377 1_455 S
C829 C835 1.390 . S
C830 H821 0.930 . S
C830 C828 1.384 . S
C830 C831 1.372 1_655 S
C831 C830 1.372 1_455 S
C831 C832 1.400 . S
C831 C836 1.490 . S
C832 H822 0.930 . S
C832 C831 1.400 . S
C832 C835 1.386 . S
H833 C849 0.930 . S
H834 C850 0.931 . S
C835 H823 0.929 . S
C835 C829 1.390 . S
C835 C832 1.386 . S
C836 C831 1.490 . S
C836 C838 1.395 1_455 S
C836 C839 1.403 . S
H837 C843 0.930 . S
C838 H824 0.930 . S
C838 C836 1.395 1_655 S
C838 C841 1.403 . S
C839 C836 1.403 . S
C839 C840 1.524 . S
C839 C843 1.400 . S
C840 H825 0.960 . S
C840 H826 0.960 . S
C840 H827 0.960 . S
C840 C839 1.524 . S
C841 C838 1.403 . S
C841 C842 1.392 . S
C841 C845 1.495 . S
C842 C841 1.392 . S
C842 C843 1.385 1_655 S
C842 C844 1.478 . S
C843 H837 0.930 . S
C843 C839 1.400 . S
C843 C842 1.385 1_455 S
C844 C842 1.478 . S
C844 C846 1.381 . S
C844 C850 1.383 1_655 S
C845 C841 1.495 . S
C845 H851 0.959 . S
C845 H852 0.961 . S
C845 H853 0.960 . S
C846 C844 1.381 . S
C846 C847 1.394 . S
C846 H854 0.930 . S
C847 C846 1.394 . S
C847 C848 1.383 . S
C847 H855 0.929 . S
C848 C847 1.383 . S
C848 C849 1.377 1_655 S
C849 H833 0.930 . S
C849 C848 1.377 1_455 S
C849 C850 1.379 . S
C850 H834 0.931 . S
C850 C844 1.383 1_455 S
C850 C849 1.379 . S
H851 C845 0.959 . S
H852 C845 0.961 . S
H853 C845 0.960 . S
H854 C846 0.930 . S
H855 C847 0.929 . S
H856 C864 0.929 . S
H857 C866 0.930 . S
H858 C868 0.930 . S
H859 C871 0.929 . S
H860 C874 0.930 . S
H861 C876 0.960 . S
H862 C876 0.960 . S
H863 C876 0.960 . S
C864 H856 0.929 . S
C864 C865 1.377 . S
C864 C866 1.384 . S
C865 C864 1.377 . S
C865 C871 1.390 . S
C866 H857 0.930 . S
C866 C864 1.384 . S
C866 C867 1.372 . S
C867 C866 1.372 . S
C867 C868 1.400 . S
C867 C872 1.490 . S
C868 H858 0.930 . S
C868 C867 1.400 . S
C868 C871 1.386 . S
H869 C885 0.930 . S
H870 C886 0.931 . S
C871 H859 0.929 . S
C871 C865 1.390 . S
C871 C868 1.386 . S
C872 C867 1.490 . S
C872 C874 1.395 . S
C872 C875 1.403 . S
H873 C879 0.930 . S
C874 H860 0.930 . S
C874 C872 1.395 . S
C874 C877 1.403 . S
C875 C872 1.403 . S
C875 C876 1.524 . S
C875 C879 1.400 . S
C876 H861 0.960 . S
C876 H862 0.960 . S
C876 H863 0.960 . S
C876 C875 1.524 . S
C877 C874 1.403 . S
C877 C878 1.392 . S
C877 C881 1.495 . S
C878 C877 1.392 . S
C878 C879 1.385 . S
C878 C880 1.478 . S
C879 H873 0.930 . S
C879 C875 1.400 . S
C879 C878 1.385 . S
C880 C878 1.478 . S
C880 C882 1.381 . S
C880 C886 1.383 . S
C881 C877 1.495 . S
C881 H887 0.959 . S
C881 H888 0.961 . S
C881 H889 0.960 . S
C882 C880 1.381 . S
C882 C883 1.394 . S
C882 H890 0.930 . S
C883 C882 1.394 . S
C883 C884 1.383 . S
C883 H891 0.929 . S
C884 C883 1.383 . S
C884 C885 1.377 . S
C885 H869 0.930 . S
C885 C884 1.377 . S
C885 C886 1.379 . S
C886 H870 0.931 . S
C886 C880 1.383 . S
C886 C885 1.379 . S
H887 C881 0.959 . S
H888 C881 0.961 . S
H889 C881 0.960 . S
H890 C882 0.930 . S
H891 C883 0.929 . S
H892 C900 0.929 . S
H893 C902 0.930 . S
H894 C904 0.930 . S
H895 C907 0.929 . S
H896 C910 0.930 . S
H897 C912 0.960 . S
H898 C912 0.960 . S
H899 C912 0.960 . S
C900 H892 0.929 . S
C900 C901 1.377 . S
C900 C902 1.384 . S
C901 C900 1.377 . S
C901 C907 1.390 . S
C902 H893 0.930 . S
C902 C900 1.384 . S
C902 C903 1.372 . S
C903 C902 1.372 . S
C903 C904 1.400 . S
C903 C908 1.490 . S
C904 H894 0.930 . S
C904 C903 1.400 . S
C904 C907 1.386 . S
H905 C921 0.930 . S
H906 C922 0.931 . S
C907 H895 0.929 . S
C907 C901 1.390 . S
C907 C904 1.386 . S
C908 C903 1.490 . S
C908 C910 1.395 . S
C908 C911 1.403 . S
H909 C915 0.930 . S
C910 H896 0.930 . S
C910 C908 1.395 . S
C910 C913 1.403 . S
C911 C908 1.403 . S
C911 C912 1.524 . S
C911 C915 1.400 . S
C912 H897 0.960 . S
C912 H898 0.960 . S
C912 H899 0.960 . S
C912 C911 1.524 . S
C913 C910 1.403 . S
C913 C914 1.392 . S
C913 C917 1.495 . S
C914 C913 1.392 . S
C914 C915 1.385 . S
C914 C916 1.478 . S
C915 H909 0.930 . S
C915 C911 1.400 . S
C915 C914 1.385 . S
C916 C914 1.478 . S
C916 C918 1.381 . S
C916 C922 1.383 . S
C917 C913 1.495 . S
C917 H923 0.959 . S
C917 H924 0.961 . S
C917 H925 0.960 . S
C918 C916 1.381 . S
C918 C919 1.394 . S
C918 H926 0.930 . S
C919 C918 1.394 . S
C919 C920 1.383 . S
C919 H927 0.929 . S
C920 C919 1.383 . S
C920 C921 1.377 . S
C921 H905 0.930 . S
C921 C920 1.377 . S
C921 C922 1.379 . S
C922 H906 0.931 . S
C922 C916 1.383 . S
C922 C921 1.379 . S
H923 C917 0.959 . S
H924 C917 0.961 . S
H925 C917 0.960 . S
H926 C918 0.930 . S
H927 C919 0.929 . S
H928 C936 0.929 . S
H929 C938 0.930 . S
H930 C940 0.930 . S
H931 C943 0.929 . S
H932 C946 0.930 . S
H933 C948 0.960 . S
H934 C948 0.960 . S
H935 C948 0.960 . S
C936 H928 0.929 . S
C936 C937 1.377 . S
C936 C938 1.384 . S
C937 C936 1.377 . S
C937 C943 1.390 . S
C938 H929 0.930 . S
C938 C936 1.384 . S
C938 C939 1.372 . S
C939 C938 1.372 . S
C939 C940 1.400 . S
C939 C944 1.490 . S
C940 H930 0.930 . S
C940 C939 1.400 . S
C940 C943 1.386 . S
H941 C957 0.930 . S
H942 C958 0.931 . S
C943 H931 0.929 . S
C943 C937 1.390 . S
C943 C940 1.386 . S
C944 C939 1.490 . S
C944 C946 1.395 . S
C944 C947 1.403 . S
H945 C951 0.930 . S
C946 H932 0.930 . S
C946 C944 1.395 . S
C946 C949 1.403 . S
C947 C944 1.403 . S
C947 C948 1.524 . S
C947 C951 1.400 . S
C948 H933 0.960 . S
C948 H934 0.960 . S
C948 H935 0.960 . S
C948 C947 1.524 . S
C949 C946 1.403 . S
C949 C950 1.392 . S
C949 C953 1.495 . S
C950 C949 1.392 . S
C950 C951 1.385 . S
C950 C952 1.478 . S
C951 H945 0.930 . S
C951 C947 1.400 . S
C951 C950 1.385 . S
C952 C950 1.478 . S
C952 C954 1.381 . S
C952 C958 1.383 . S
C953 C949 1.495 . S
C953 H959 0.959 . S
C953 H960 0.961 . S
C953 H961 0.960 . S
C954 C952 1.381 . S
C954 C955 1.394 . S
C954 H962 0.930 . S
C955 C954 1.394 . S
C955 C956 1.383 . S
C955 H963 0.929 . S
C956 C955 1.383 . S
C956 C957 1.377 . S
C957 H941 0.930 . S
C957 C956 1.377 . S
C957 C958 1.379 . S
C958 H942 0.931 . S
C958 C952 1.383 . S
C958 C957 1.379 . S
H959 C953 0.959 . S
H960 C953 0.961 . S
H961 C953 0.960 . S
H962 C954 0.930 . S
H963 C955 0.929 . S
H964 C972 0.929 . S
H965 C974 0.930 . S
H966 C976 0.930 . S
H967 C979 0.929 . S
H968 C982 0.930 . S
H969 C984 0.960 . S
H970 C984 0.960 . S
H971 C984 0.960 . S
C972 H964 0.929 . S
C972 C973 1.377 . S
C972 C974 1.384 . S
C973 C972 1.377 . S
C973 C979 1.390 . S
C974 H965 0.930 . S
C974 C972 1.384 . S
C974 C975 1.372 . S
C975 C974 1.372 . S
C975 C976 1.400 . S
C975 C980 1.490 . S
C976 H966 0.930 . S
C976 C975 1.400 . S
C976 C979 1.386 . S
H977 C993 0.930 . S
H978 C994 0.931 . S
C979 H967 0.929 . S
C979 C973 1.390 . S
C979 C976 1.386 . S
C980 C975 1.490 . S
C980 C982 1.395 . S
C980 C983 1.403 . S
H981 C987 0.930 . S
C982 H968 0.930 . S
C982 C980 1.395 . S
C982 C985 1.403 . S
C983 C980 1.403 . S
C983 C984 1.524 . S
C983 C987 1.400 . S
C984 H969 0.960 . S
C984 H970 0.960 . S
C984 H971 0.960 . S
C984 C983 1.524 . S
C985 C982 1.403 . S
C985 C986 1.392 . S
C985 C989 1.495 . S
C986 C985 1.392 . S
C986 C987 1.385 . S
C986 C988 1.478 . S
C987 H981 0.930 . S
C987 C983 1.400 . S
C987 C986 1.385 . S
C988 C986 1.478 . S
C988 C990 1.381 . S
C988 C994 1.383 . S
C989 C985 1.495 . S
C989 H995 0.959 . S
C989 H996 0.961 . S
C989 H997 0.960 . S
C990 C988 1.381 . S
C990 C991 1.394 . S
C990 H998 0.930 . S
C991 C990 1.394 . S
C991 C992 1.383 . S
C991 H999 0.929 . S
C992 C991 1.383 . S
C992 C993 1.377 . S
C993 H977 0.930 . S
C993 C992 1.377 . S
C993 C994 1.379 . S
C994 H978 0.931 . S
C994 C988 1.383 . S
C994 C993 1.379 . S
H995 C989 0.959 . S
H996 C989 0.961 . S
H997 C989 0.960 . S
H998 C990 0.930 . S
H999 C991 0.929 . S
H1000 C1008 0.929 . S
H1001 C1010 0.930 . S
H1002 C1012 0.930 1_545 S
H1003 C1015 0.929 1_545 S
H1004 C1018 0.930 . S
H1005 C1020 0.960 . S
H1006 C1020 0.960 . S
H1007 C1020 0.960 . S
C1008 H1000 0.929 . S
C1008 C1009 1.377 . S
C1008 C1010 1.384 . S
C1009 C1008 1.377 . S
C1009 C1015 1.390 . S
C1010 H1001 0.930 . S
C1010 C1008 1.384 . S
C1010 C1011 1.372 . S
C1011 C1010 1.372 . S
C1011 C1012 1.400 . S
C1011 C1016 1.490 . S
C1012 H1002 0.930 1_565 S
C1012 C1011 1.400 . S
C1012 C1015 1.386 . S
H1013 C1029 0.930 . S
H1014 C1030 0.931 . S
C1015 H1003 0.929 1_565 S
C1015 C1009 1.390 . S
C1015 C1012 1.386 . S
C1016 C1011 1.490 . S
C1016 C1018 1.395 . S
C1016 C1019 1.403 . S
H1017 C1023 0.930 . S
C1018 H1004 0.930 . S
C1018 C1016 1.395 . S
C1018 C1021 1.403 . S
C1019 C1016 1.403 . S
C1019 C1020 1.524 . S
C1019 C1023 1.400 . S
C1020 H1005 0.960 . S
C1020 H1006 0.960 . S
C1020 H1007 0.960 . S
C1020 C1019 1.524 . S
C1021 C1018 1.403 . S
C1021 C1022 1.392 . S
C1021 C1025 1.480 1_565 S
C1022 C1021 1.392 . S
C1022 C1023 1.385 . S
C1022 C1024 1.475 1_565 S
C1023 H1017 0.930 . S
C1023 C1019 1.400 . S
C1023 C1022 1.385 . S
C1024 C1022 1.475 1_545 S
C1024 C1026 1.380 1_545 S
C1024 C1030 1.387 . S
C1025 C1021 1.480 1_545 S
C1025 H1031 0.948 . S
C1025 H1032 1.005 . S
C1025 H1033 0.945 1_545 S
C1026 C1024 1.380 1_565 S
C1026 C1027 1.394 . S
C1026 H1034 0.930 . S
C1027 C1026 1.394 . S
C1027 C1028 1.383 1_565 S
C1027 H1035 0.929 . S
C1028 C1027 1.383 1_545 S
C1028 C1029 1.377 . S
C1029 H1013 0.930 . S
C1029 C1028 1.377 . S
C1029 C1030 1.379 . S
C1030 H1014 0.931 . S
C1030 C1024 1.387 . S
C1030 C1029 1.379 . S
H1031 C1025 0.948 . S
H1032 C1025 1.005 . S
H1033 C1025 0.945 1_565 S
H1034 C1026 0.930 . S
H1035 C1027 0.929 . S
H1036 C1044 0.929 1_655 S
H1037 C1046 0.964 . S
H1038 C1048 0.930 . S
H1039 C1051 0.929 . S
H1040 C1054 0.930 . S
H1041 C1056 0.960 . S
H1042 C1056 0.960 . S
H1043 C1056 0.960 . S
C1044 H1036 0.929 1_455 S
C1044 C1045 1.377 . S
C1044 C1046 1.363 1_455 S
C1045 C1044 1.377 . S
C1045 C1051 1.390 . S
C1046 H1037 0.964 . S
C1046 C1044 1.363 1_655 S
C1046 C1047 1.362 1_655 S
C1047 C1046 1.362 1_455 S
C1047 C1048 1.400 . S
C1047 C1052 1.490 . S
C1048 H1038 0.930 . S
C1048 C1047 1.400 . S
C1048 C1051 1.386 . S
H1049 C1065 0.930 . S
H1050 C1066 0.931 . S
C1051 H1039 0.929 . S
C1051 C1045 1.390 . S
C1051 C1048 1.386 . S
C1052 C1047 1.490 . S
C1052 C1054 1.395 1_455 S
C1052 C1055 1.403 . S
H1053 C1059 0.930 . S
C1054 H1040 0.930 . S
C1054 C1052 1.395 1_655 S
C1054 C1057 1.403 . S
C1055 C1052 1.403 . S
C1055 C1056 1.524 . S
C1055 C1059 1.400 . S
C1056 H1041 0.960 . S
C1056 H1042 0.960 . S
C1056 H1043 0.960 . S
C1056 C1055 1.524 . S
C1057 C1054 1.403 . S
C1057 C1058 1.392 . S
C1057 C1061 1.495 . S
C1058 C1057 1.392 . S
C1058 C1059 1.385 1_655 S
C1058 C1060 1.478 . S
C1059 H1053 0.930 . S
C1059 C1055 1.400 . S
C1059 C1058 1.385 1_455 S
C1060 C1058 1.478 . S
C1060 C1062 1.381 . S
C1060 C1066 1.383 1_655 S
C1061 C1057 1.495 . S
C1061 H1067 0.959 . S
C1061 H1068 0.961 . S
C1061 H1069 0.960 . S
C1062 C1060 1.381 . S
C1062 C1063 1.394 . S
C1062 H1070 0.930 . S
C1063 C1062 1.394 . S
C1063 C1064 1.383 . S
C1063 H1071 0.929 . S
C1064 C1063 1.383 . S
C1064 C1065 1.377 1_655 S
C1065 H1049 0.930 . S
C1065 C1064 1.377 1_455 S
C1065 C1066 1.379 . S
C1066 H1050 0.931 . S
C1066 C1060 1.383 1_455 S
C1066 C1065 1.379 . S
H1067 C1061 0.959 . S
H1068 C1061 0.961 . S
H1069 C1061 0.960 . S
H1070 C1062 0.930 . S
H1071 C1063 0.929 . S
H1072 C1080 0.929 . S
H1073 C1082 0.930 . S
H1074 C1084 0.930 . S
H1075 C1087 0.929 . S
H1076 C1090 0.930 . S
H1077 C1092 0.960 . S
H1078 C1092 0.960 . S
H1079 C1092 0.960 . S
C1080 H1072 0.929 . S
C1080 C1081 1.377 . S
C1080 C1082 1.384 . S
C1081 C1080 1.377 . S
C1081 C1087 1.390 . S
C1082 H1073 0.930 . S
C1082 C1080 1.384 . S
C1082 C1083 1.372 . S
C1083 C1082 1.372 . S
C1083 C1084 1.400 . S
C1083 C1088 1.490 . S
C1084 H1074 0.930 . S
C1084 C1083 1.400 . S
C1084 C1087 1.386 . S
H1085 C1101 0.930 . S
H1086 C1102 0.931 . S
C1087 H1075 0.929 . S
C1087 C1081 1.390 . S
C1087 C1084 1.386 . S
C1088 C1083 1.490 . S
C1088 C1090 1.395 . S
C1088 C1091 1.403 . S
H1089 C1095 0.930 . S
C1090 H1076 0.930 . S
C1090 C1088 1.395 . S
C1090 C1093 1.403 . S
C1091 C1088 1.403 . S
C1091 C1092 1.524 . S
C1091 C1095 1.400 . S
C1092 H1077 0.960 . S
C1092 H1078 0.960 . S
C1092 H1079 0.960 . S
C1092 C1091 1.524 . S
C1093 C1090 1.403 . S
C1093 C1094 1.392 . S
C1093 C1097 1.495 . S
C1094 C1093 1.392 . S
C1094 C1095 1.385 . S
C1094 C1096 1.478 . S
C1095 H1089 0.930 . S
C1095 C1091 1.400 . S
C1095 C1094 1.385 . S
C1096 C1094 1.478 . S
C1096 C1098 1.381 . S
C1096 C1102 1.383 1_556 S
C1097 C1093 1.495 . S
C1097 H1103 0.959 . S
C1097 H1104 0.961 1_556 S
C1097 H1105 0.960 . S
C1098 C1096 1.381 . S
C1098 C1099 1.394 . S
C1098 H1106 0.930 . S
C1099 C1098 1.394 . S
C1099 C1100 1.383 . S
C1099 H1107 0.929 . S
C1100 C1099 1.383 . S
C1100 C1101 1.377 1_556 S
C1101 H1085 0.930 . S
C1101 C1100 1.377 1_554 S
C1101 C1102 1.379 . S
C1102 H1086 0.931 . S
C1102 C1096 1.383 1_554 S
C1102 C1101 1.379 . S
H1103 C1097 0.959 . S
H1104 C1097 0.961 1_554 S
H1105 C1097 0.960 . S
H1106 C1098 0.930 . S
H1107 C1099 0.929 . S
H1108 C1116 0.929 . S
H1109 C1118 0.930 . S
H1110 C1120 0.930 . S
H1111 C1123 0.929 . S
H1112 C1126 0.930 . S
H1113 C1128 0.960 . S
H1114 C1128 0.960 . S
H1115 C1128 0.960 . S
C1116 H1108 0.929 . S
C1116 C1117 1.377 . S
C1116 C1118 1.384 . S
C1117 C1116 1.377 . S
C1117 C1123 1.390 . S
C1118 H1109 0.930 . S
C1118 C1116 1.384 . S
C1118 C1119 1.372 . S
C1119 C1118 1.372 . S
C1119 C1120 1.400 . S
C1119 C1124 1.490 . S
C1120 H1110 0.930 . S
C1120 C1119 1.400 . S
C1120 C1123 1.386 . S
H1121 C1137 0.930 . S
H1122 C1138 0.931 . S
C1123 H1111 0.929 . S
C1123 C1117 1.390 . S
C1123 C1120 1.386 . S
C1124 C1119 1.490 . S
C1124 C1126 1.395 . S
C1124 C1127 1.403 . S
H1125 C1131 0.930 . S
C1126 H1112 0.930 . S
C1126 C1124 1.395 . S
C1126 C1129 1.403 . S
C1127 C1124 1.403 . S
C1127 C1128 1.524 . S
C1127 C1131 1.400 . S
C1128 H1113 0.960 . S
C1128 H1114 0.960 . S
C1128 H1115 0.960 . S
C1128 C1127 1.524 . S
C1129 C1126 1.403 . S
C1129 C1130 1.392 . S
C1129 C1133 1.495 . S
C1130 C1129 1.392 . S
C1130 C1131 1.385 . S
C1130 C1132 1.478 . S
C1131 H1125 0.930 . S
C1131 C1127 1.400 . S
C1131 C1130 1.385 . S
C1132 C1130 1.478 . S
C1132 C1134 1.381 . S
C1132 C1138 1.383 . S
C1133 C1129 1.495 . S
C1133 H1139 0.959 . S
C1133 H1140 0.961 . S
C1133 H1141 0.960 . S
C1134 C1132 1.381 . S
C1134 C1135 1.394 . S
C1134 H1142 0.930 . S
C1135 C1134 1.394 . S
C1135 C1136 1.383 . S
C1135 H1143 0.929 . S
C1136 C1135 1.383 . S
C1136 C1137 1.377 . S
C1137 H1121 0.930 . S
C1137 C1136 1.377 . S
C1137 C1138 1.379 . S
C1138 H1122 0.931 . S
C1138 C1132 1.383 . S
C1138 C1137 1.379 . S
H1139 C1133 0.959 . S
H1140 C1133 0.961 . S
H1141 C1133 0.960 . S
H1142 C1134 0.930 . S
H1143 C1135 0.929 . S
H1144 C1152 0.929 . S
H1145 C1154 0.930 . S
H1146 C1156 0.930 . S
H1147 C1159 0.929 . S
H1148 C1162 0.930 . S
H1149 C1164 0.960 . S
H1150 C1164 0.960 . S
H1151 C1164 0.960 . S
C1152 H1144 0.929 . S
C1152 C1153 1.377 . S
C1152 C1154 1.384 . S
C1153 C1152 1.377 . S
C1153 C1159 1.390 . S
C1154 H1145 0.930 . S
C1154 C1152 1.384 . S
C1154 C1155 1.372 . S
C1155 C1154 1.372 . S
C1155 C1156 1.400 . S
C1155 C1160 1.490 . S
C1156 H1146 0.930 . S
C1156 C1155 1.400 . S
C1156 C1159 1.386 . S
H1157 C1173 0.930 . S
H1158 C1174 0.931 . S
C1159 H1147 0.929 . S
C1159 C1153 1.390 . S
C1159 C1156 1.386 . S
C1160 C1155 1.490 . S
C1160 C1162 1.395 . S
C1160 C1163 1.403 . S
H1161 C1167 0.930 . S
C1162 H1148 0.930 . S
C1162 C1160 1.395 . S
C1162 C1165 1.403 . S
C1163 C1160 1.403 . S
C1163 C1164 1.524 . S
C1163 C1167 1.400 . S
C1164 H1149 0.960 . S
C1164 H1150 0.960 . S
C1164 H1151 0.960 . S
C1164 C1163 1.524 . S
C1165 C1162 1.403 . S
C1165 C1166 1.392 . S
C1165 C1169 1.495 . S
C1166 C1165 1.392 . S
C1166 C1167 1.385 . S
C1166 C1168 1.478 . S
C1167 H1161 0.930 . S
C1167 C1163 1.400 . S
C1167 C1166 1.385 . S
C1168 C1166 1.478 . S
C1168 C1170 1.381 . S
C1168 C1174 1.383 . S
C1169 C1165 1.495 . S
C1169 H1175 0.959 . S
C1169 H1176 0.961 . S
C1169 H1177 0.960 . S
C1170 C1168 1.381 . S
C1170 C1171 1.394 . S
C1170 H1178 0.930 . S
C1171 C1170 1.394 . S
C1171 C1172 1.383 . S
C1171 H1179 0.929 . S
C1172 C1171 1.383 . S
C1172 C1173 1.377 . S
C1173 H1157 0.930 . S
C1173 C1172 1.377 . S
C1173 C1174 1.379 . S
C1174 H1158 0.931 . S
C1174 C1168 1.383 . S
C1174 C1173 1.379 . S
H1175 C1169 0.959 . S
H1176 C1169 0.961 . S
H1177 C1169 0.960 . S
H1178 C1170 0.930 . S
H1179 C1171 0.929 . S
H1180 C1188 0.929 . S
H1181 C1190 0.930 . S
H1182 C1192 0.930 . S
H1183 C1195 0.929 . S
H1184 C1198 0.930 . S
H1185 C1200 0.960 . S
H1186 C1200 0.960 . S
H1187 C1200 0.960 . S
C1188 H1180 0.929 . S
C1188 C1189 1.377 . S
C1188 C1190 1.384 . S
C1189 C1188 1.377 . S
C1189 C1195 1.390 . S
C1190 H1181 0.930 . S
C1190 C1188 1.384 . S
C1190 C1191 1.372 . S
C1191 C1190 1.372 . S
C1191 C1192 1.400 . S
C1191 C1196 1.490 . S
C1192 H1182 0.930 . S
C1192 C1191 1.400 . S
C1192 C1195 1.386 . S
H1193 C1209 0.930 . S
H1194 C1210 0.931 . S
C1195 H1183 0.929 . S
C1195 C1189 1.390 . S
C1195 C1192 1.386 . S
C1196 C1191 1.490 . S
C1196 C1198 1.395 . S
C1196 C1199 1.403 . S
H1197 C1203 0.930 . S
C1198 H1184 0.930 . S
C1198 C1196 1.395 . S
C1198 C1201 1.403 . S
C1199 C1196 1.403 . S
C1199 C1200 1.524 . S
C1199 C1203 1.400 . S
C1200 H1185 0.960 . S
C1200 H1186 0.960 . S
C1200 H1187 0.960 . S
C1200 C1199 1.524 . S
C1201 C1198 1.403 . S
C1201 C1202 1.392 . S
C1201 C1205 1.495 . S
C1202 C1201 1.392 . S
C1202 C1203 1.385 . S
C1202 C1204 1.478 . S
C1203 H1197 0.930 . S
C1203 C1199 1.400 . S
C1203 C1202 1.385 . S
C1204 C1202 1.478 . S
C1204 C1206 1.381 . S
C1204 C1210 1.383 . S
C1205 C1201 1.495 . S
C1205 H1211 0.959 . S
C1205 H1212 0.961 . S
C1205 H1213 0.960 . S
C1206 C1204 1.381 . S
C1206 C1207 1.394 . S
C1206 H1214 0.930 . S
C1207 C1206 1.394 . S
C1207 C1208 1.383 . S
C1207 H1215 0.929 . S
C1208 C1207 1.383 . S
C1208 C1209 1.377 . S
C1209 H1193 0.930 . S
C1209 C1208 1.377 . S
C1209 C1210 1.379 . S
C1210 H1194 0.931 . S
C1210 C1204 1.383 . S
C1210 C1209 1.379 . S
H1211 C1205 0.959 . S
H1212 C1205 0.961 . S
H1213 C1205 0.960 . S
H1214 C1206 0.930 . S
H1215 C1207 0.929 . S
H1216 C1224 0.929 . S
H1217 C1226 0.930 . S
H1218 C1228 0.930 . S
H1219 C1231 0.929 . S
H1220 C1234 0.930 . S
H1221 C1236 0.960 . S
H1222 C1236 0.960 . S
H1223 C1236 0.960 . S
C1224 H1216 0.929 . S
C1224 C1225 1.377 . S
C1224 C1226 1.384 . S
C1225 C1224 1.377 . S
C1225 C1231 1.390 . S
C1226 H1217 0.930 . S
C1226 C1224 1.384 . S
C1226 C1227 1.372 . S
C1227 C1226 1.372 . S
C1227 C1228 1.400 . S
C1227 C1232 1.490 . S
C1228 H1218 0.930 . S
C1228 C1227 1.400 . S
C1228 C1231 1.386 . S
H1229 C1245 0.930 . S
H1230 C1246 0.931 . S
C1231 H1219 0.929 . S
C1231 C1225 1.390 . S
C1231 C1228 1.386 . S
C1232 C1227 1.490 . S
C1232 C1234 1.395 . S
C1232 C1235 1.403 . S
H1233 C1239 0.930 . S
C1234 H1220 0.930 . S
C1234 C1232 1.395 . S
C1234 C1237 1.403 . S
C1235 C1232 1.403 . S
C1235 C1236 1.524 . S
C1235 C1239 1.400 . S
C1236 H1221 0.960 . S
C1236 H1222 0.960 . S
C1236 H1223 0.960 . S
C1236 C1235 1.524 . S
C1237 C1234 1.403 . S
C1237 C1238 1.392 . S
C1237 C1241 1.495 . S
C1238 C1237 1.392 . S
C1238 C1239 1.385 . S
C1238 C1240 1.478 . S
C1239 H1233 0.930 . S
C1239 C1235 1.400 . S
C1239 C1238 1.385 . S
C1240 C1238 1.478 . S
C1240 C1242 1.381 . S
C1240 C1246 1.383 . S
C1241 C1237 1.495 . S
C1241 H1247 0.959 . S
C1241 H1248 0.961 . S
C1241 H1249 0.960 . S
C1242 C1240 1.381 . S
C1242 C1243 1.394 . S
C1242 H1250 0.930 . S
C1243 C1242 1.394 . S
C1243 C1244 1.383 . S
C1243 H1251 0.929 . S
C1244 C1243 1.383 . S
C1244 C1245 1.377 . S
C1245 H1229 0.930 . S
C1245 C1244 1.377 . S
C1245 C1246 1.379 . S
C1246 H1230 0.931 . S
C1246 C1240 1.383 . S
C1246 C1245 1.379 . S
H1247 C1241 0.959 . S
H1248 C1241 0.961 . S
H1249 C1241 0.960 . S
H1250 C1242 0.930 . S
H1251 C1243 0.929 . S
H1252 C1260 0.929 . S
H1253 C1262 0.930 . S
H1254 C1264 0.930 . S
H1255 C1267 0.929 . S
H1256 C1270 0.930 . S
H1257 C1272 0.960 . S
H1258 C1272 0.960 . S
H1259 C1272 0.960 . S
C1260 H1252 0.929 . S
C1260 C1261 1.377 . S
C1260 C1262 1.384 . S
C1261 C1260 1.377 . S
C1261 C1267 1.390 . S
C1262 H1253 0.930 . S
C1262 C1260 1.384 . S
C1262 C1263 1.372 . S
C1263 C1262 1.372 . S
C1263 C1264 1.400 . S
C1263 C1268 1.490 . S
C1264 H1254 0.930 . S
C1264 C1263 1.400 . S
C1264 C1267 1.386 . S
H1265 C1281 0.930 . S
H1266 C1282 0.931 . S
C1267 H1255 0.929 . S
C1267 C1261 1.390 . S
C1267 C1264 1.386 . S
C1268 C1263 1.490 . S
C1268 C1270 1.395 . S
C1268 C1271 1.403 . S
H1269 C1275 0.930 . S
C1270 H1256 0.930 . S
C1270 C1268 1.395 . S
C1270 C1273 1.403 . S
C1271 C1268 1.403 . S
C1271 C1272 1.524 . S
C1271 C1275 1.400 . S
C1272 H1257 0.960 . S
C1272 H1258 0.960 . S
C1272 H1259 0.960 . S
C1272 C1271 1.524 . S
C1273 C1270 1.403 . S
C1273 C1274 1.392 . S
C1273 C1277 1.495 . S
C1274 C1273 1.392 . S
C1274 C1275 1.385 . S
C1274 C1276 1.478 . S
C1275 H1269 0.930 . S
C1275 C1271 1.400 . S
C1275 C1274 1.385 . S
C1276 C1274 1.478 . S
C1276 C1278 1.381 . S
C1276 C1282 1.383 . S
C1277 C1273 1.495 . S
C1277 H1283 0.959 . S
C1277 H1284 0.961 . S
C1277 H1285 0.960 . S
C1278 C1276 1.381 . S
C1278 C1279 1.394 . S
C1278 H1286 0.930 . S
C1279 C1278 1.394 . S
C1279 C1280 1.383 . S
C1279 H1287 0.929 . S
C1280 C1279 1.383 . S
C1280 C1281 1.377 . S
C1281 H1265 0.930 . S
C1281 C1280 1.377 . S
C1281 C1282 1.379 . S
C1282 H1266 0.931 . S
C1282 C1276 1.383 . S
C1282 C1281 1.379 . S
H1283 C1277 0.959 . S
H1284 C1277 0.961 . S
H1285 C1277 0.960 . S
H1286 C1278 0.930 . S
H1287 C1279 0.929 . S
H1288 C1296 0.929 . S
H1289 C1298 0.930 . S
H1290 C1300 0.930 . S
H1291 C1303 0.929 . S
H1292 C1306 0.930 . S
H1293 C1308 0.960 . S
H1294 C1308 0.960 . S
H1295 C1308 0.960 . S
C1296 H1288 0.929 . S
C1296 C1297 1.377 . S
C1296 C1298 1.384 . S
C1297 C1296 1.377 . S
C1297 C1303 1.390 . S
C1298 H1289 0.930 . S
C1298 C1296 1.384 . S
C1298 C1299 1.372 . S
C1299 C1298 1.372 . S
C1299 C1300 1.400 . S
C1299 C1304 1.490 . S
C1300 H1290 0.930 . S
C1300 C1299 1.400 . S
C1300 C1303 1.386 . S
H1301 C1317 0.930 . S
H1302 C1318 0.931 . S
C1303 H1291 0.929 . S
C1303 C1297 1.390 . S
C1303 C1300 1.386 . S
C1304 C1299 1.490 . S
C1304 C1306 1.395 . S
C1304 C1307 1.403 . S
H1305 C1311 0.930 . S
C1306 H1292 0.930 . S
C1306 C1304 1.395 . S
C1306 C1309 1.403 . S
C1307 C1304 1.403 . S
C1307 C1308 1.524 . S
C1307 C1311 1.400 . S
C1308 H1293 0.960 . S
C1308 H1294 0.960 . S
C1308 H1295 0.960 . S
C1308 C1307 1.524 . S
C1309 C1306 1.403 . S
C1309 C1310 1.392 . S
C1309 C1313 1.495 . S
C1310 C1309 1.392 . S
C1310 C1311 1.385 . S
C1310 C1312 1.478 . S
C1311 H1305 0.930 . S
C1311 C1307 1.400 . S
C1311 C1310 1.385 . S
C1312 C1310 1.478 . S
C1312 C1314 1.381 . S
C1312 C1318 1.383 . S
C1313 C1309 1.495 . S
C1313 H1319 0.959 . S
C1313 H1320 0.961 . S
C1313 H1321 0.960 . S
C1314 C1312 1.381 . S
C1314 C1315 1.394 . S
C1314 H1322 0.930 . S
C1315 C1314 1.394 . S
C1315 C1316 1.383 . S
C1315 H1323 0.929 . S
C1316 C1315 1.383 . S
C1316 C1317 1.377 . S
C1317 H1301 0.930 . S
C1317 C1316 1.377 . S
C1317 C1318 1.379 . S
C1318 H1302 0.931 . S
C1318 C1312 1.383 . S
C1318 C1317 1.379 . S
H1319 C1313 0.959 . S
H1320 C1313 0.961 . S
H1321 C1313 0.960 . S
H1322 C1314 0.930 . S
H1323 C1315 0.929 . S
H1324 C1332 0.929 . S
H1325 C1334 0.930 . S
H1326 C1336 0.930 . S
H1327 C1339 0.929 . S
H1328 C1342 0.930 . S
H1329 C1344 0.960 . S
H1330 C1344 0.960 . S
H1331 C1344 0.960 . S
C1332 H1324 0.929 . S
C1332 C1333 1.377 . S
C1332 C1334 1.384 . S
C1333 C1332 1.377 . S
C1333 C1339 1.390 . S
C1334 H1325 0.930 . S
C1334 C1332 1.384 . S
C1334 C1335 1.372 . S
C1335 C1334 1.372 . S
C1335 C1336 1.400 . S
C1335 C1340 1.490 . S
C1336 H1326 0.930 . S
C1336 C1335 1.400 . S
C1336 C1339 1.386 . S
H1337 C1353 0.930 . S
H1338 C1354 0.931 . S
C1339 H1327 0.929 . S
C1339 C1333 1.390 . S
C1339 C1336 1.386 . S
C1340 C1335 1.490 . S
C1340 C1342 1.395 . S
C1340 C1343 1.403 . S
H1341 C1347 0.930 . S
C1342 H1328 0.930 . S
C1342 C1340 1.395 . S
C1342 C1345 1.403 . S
C1343 C1340 1.403 . S
C1343 C1344 1.524 . S
C1343 C1347 1.400 . S
C1344 H1329 0.960 . S
C1344 H1330 0.960 . S
C1344 H1331 0.960 . S
C1344 C1343 1.524 . S
C1345 C1342 1.403 . S
C1345 C1346 1.392 . S
C1345 C1349 1.495 . S
C1346 C1345 1.392 . S
C1346 C1347 1.385 . S
C1346 C1348 1.478 . S
C1347 H1341 0.930 . S
C1347 C1343 1.400 . S
C1347 C1346 1.385 . S
C1348 C1346 1.478 . S
C1348 C1350 1.381 . S
C1348 C1354 1.383 . S
C1349 C1345 1.495 . S
C1349 H1355 0.959 . S
C1349 H1356 0.961 . S
C1349 H1357 0.960 . S
C1350 C1348 1.381 . S
C1350 C1351 1.394 . S
C1350 H1358 0.930 . S
C1351 C1350 1.394 . S
C1351 C1352 1.383 . S
C1351 H1359 0.929 . S
C1352 C1351 1.383 . S
C1352 C1353 1.377 . S
C1353 H1337 0.930 . S
C1353 C1352 1.377 . S
C1353 C1354 1.379 . S
C1354 H1338 0.931 . S
C1354 C1348 1.383 . S
C1354 C1353 1.379 . S
H1355 C1349 0.959 . S
H1356 C1349 0.961 . S
H1357 C1349 0.960 . S
H1358 C1350 0.930 . S
H1359 C1351 0.929 . S
H1360 C1368 0.929 . S
H1361 C1370 0.930 . S
H1362 C1372 0.930 . S
H1363 C1375 0.929 . S
H1364 C1378 0.930 . S
H1365 C1380 0.960 . S
H1366 C1380 0.960 . S
H1367 C1380 0.960 . S
C1368 H1360 0.929 . S
C1368 C1369 1.377 . S
C1368 C1370 1.384 . S
C1369 C1368 1.377 . S
C1369 C1375 1.390 . S
C1370 H1361 0.930 . S
C1370 C1368 1.384 . S
C1370 C1371 1.372 . S
C1371 C1370 1.372 . S
C1371 C1372 1.400 . S
C1371 C1376 1.490 . S
C1372 H1362 0.930 . S
C1372 C1371 1.400 . S
C1372 C1375 1.386 . S
H1373 C1389 0.930 . S
H1374 C1390 0.931 . S
C1375 H1363 0.929 . S
C1375 C1369 1.390 . S
C1375 C1372 1.386 . S
C1376 C1371 1.490 . S
C1376 C1378 1.395 . S
C1376 C1379 1.403 . S
H1377 C1383 0.930 . S
C1378 H1364 0.930 . S
C1378 C1376 1.395 . S
C1378 C1381 1.403 . S
C1379 C1376 1.403 . S
C1379 C1380 1.524 . S
C1379 C1383 1.400 . S
C1380 H1365 0.960 . S
C1380 H1366 0.960 . S
C1380 H1367 0.960 . S
C1380 C1379 1.524 . S
C1381 C1378 1.403 . S
C1381 C1382 1.392 . S
C1381 C1385 1.495 . S
C1382 C1381 1.392 . S
C1382 C1383 1.385 . S
C1382 C1384 1.478 . S
C1383 H1377 0.930 . S
C1383 C1379 1.400 . S
C1383 C1382 1.385 . S
C1384 C1382 1.478 . S
C1384 C1386 1.381 . S
C1384 C1390 1.383 . S
C1385 C1381 1.495 . S
C1385 H1391 0.959 . S
C1385 H1392 0.961 . S
C1385 H1393 0.960 . S
C1386 C1384 1.381 . S
C1386 C1387 1.394 . S
C1386 H1394 0.930 . S
C1387 C1386 1.394 . S
C1387 C1388 1.383 . S
C1387 H1395 0.929 . S
C1388 C1387 1.383 . S
C1388 C1389 1.377 . S
C1389 H1373 0.930 . S
C1389 C1388 1.377 . S
C1389 C1390 1.379 . S
C1390 H1374 0.931 . S
C1390 C1384 1.383 . S
C1390 C1389 1.379 . S
H1391 C1385 0.959 . S
H1392 C1385 0.961 . S
H1393 C1385 0.960 . S
H1394 C1386 0.930 . S
H1395 C1387 0.929 . S
H1396 C1404 0.929 . S
H1397 C1406 0.930 . S
H1398 C1408 0.930 . S
H1399 C1411 0.929 . S
H1400 C1414 0.930 . S
H1401 C1416 0.960 . S
H1402 C1416 0.960 . S
H1403 C1416 0.960 . S
C1404 H1396 0.929 . S
C1404 C1405 1.377 . S
C1404 C1406 1.384 . S
C1405 C1404 1.377 . S
C1405 C1411 1.390 1_455 S
C1406 H1397 0.930 . S
C1406 C1404 1.384 . S
C1406 C1407 1.372 . S
C1407 C1406 1.372 . S
C1407 C1408 1.400 1_455 S
C1407 C1412 1.486 1_455 S
C1408 H1398 0.930 . S
C1408 C1407 1.400 1_655 S
C1408 C1411 1.386 . S
H1409 C1425 0.930 . S
H1410 C1426 0.931 . S
C1411 H1399 0.929 . S
C1411 C1405 1.390 1_655 S
C1411 C1408 1.386 . S
C1412 C1407 1.486 1_655 S
C1412 C1414 1.389 1_655 S
C1412 C1415 1.412 . S
H1413 C1419 0.930 . S
C1414 H1400 0.930 . S
C1414 C1412 1.389 1_455 S
C1414 C1417 1.403 . S
C1415 C1412 1.412 . S
C1415 C1416 1.524 . S
C1415 C1419 1.400 . S
C1416 H1401 0.960 . S
C1416 H1402 0.960 . S
C1416 H1403 0.960 . S
C1416 C1415 1.524 . S
C1417 C1414 1.403 . S
C1417 C1418 1.392 1_455 S
C1417 C1421 1.495 . S
C1418 C1417 1.392 1_655 S
C1418 C1419 1.385 . S
C1418 C1420 1.478 . S
C1419 H1413 0.930 . S
C1419 C1415 1.400 . S
C1419 C1418 1.385 . S
C1420 C1418 1.478 . S
C1420 C1422 1.381 1_655 S
C1420 C1426 1.383 . S
C1421 C1417 1.495 . S
C1421 H1427 0.959 . S
C1421 H1428 0.961 . S
C1421 H1429 0.960 . S
C1422 C1420 1.381 1_455 S
C1422 C1423 1.394 . S
C1422 H1430 0.930 . S
C1423 C1422 1.394 . S
C1423 C1424 1.383 1_455 S
C1423 H1431 0.929 . S
C1424 C1423 1.383 1_655 S
C1424 C1425 1.377 . S
C1425 H1409 0.930 . S
C1425 C1424 1.377 . S
C1425 C1426 1.379 . S
C1426 H1410 0.931 . S
C1426 C1420 1.383 . S
C1426 C1425 1.379 . S
H1427 C1421 0.959 . S
H1428 C1421 0.961 . S
H1429 C1421 0.960 . S
H1430 C1422 0.930 . S
H1431 C1423 0.929 . S
H1432 C1440 0.929 . S
H1433 C1442 0.930 . S
H1434 C1444 0.930 . S
H1435 C1447 0.929 . S
H1436 C1450 0.930 . S
H1437 C1452 0.960 . S
H1438 C1452 0.960 . S
H1439 C1452 0.960 . S
C1440 H1432 0.929 . S
C1440 C1441 1.377 . S
C1440 C1442 1.384 . S
C1441 C1440 1.377 . S
C1441 C1447 1.390 . S
C1442 H1433 0.930 . S
C1442 C1440 1.384 . S
C1442 C1443 1.372 . S
C1443 C1442 1.372 . S
C1443 C1444 1.400 . S
C1443 C1448 1.490 . S
C1444 H1434 0.930 . S
C1444 C1443 1.400 . S
C1444 C1447 1.386 . S
H1445 C1461 0.930 . S
H1446 C1462 0.931 . S
C1447 H1435 0.929 . S
C1447 C1441 1.390 . S
C1447 C1444 1.386 . S
C1448 C1443 1.490 . S
C1448 C1450 1.395 . S
C1448 C1451 1.403 . S
H1449 C1455 0.930 . S
C1450 H1436 0.930 . S
C1450 C1448 1.395 . S
C1450 C1453 1.403 . S
C1451 C1448 1.403 . S
C1451 C1452 1.524 . S
C1451 C1455 1.400 . S
C1452 H1437 0.960 . S
C1452 H1438 0.960 . S
C1452 H1439 0.960 . S
C1452 C1451 1.524 . S
C1453 C1450 1.403 . S
C1453 C1454 1.392 . S
C1453 C1457 1.495 . S
C1454 C1453 1.392 . S
C1454 C1455 1.385 . S
C1454 C1456 1.478 . S
C1455 H1449 0.930 . S
C1455 C1451 1.400 . S
C1455 C1454 1.385 . S
C1456 C1454 1.478 . S
C1456 C1458 1.381 . S
C1456 C1462 1.383 . S
C1457 C1453 1.495 . S
C1457 H1463 0.959 . S
C1457 H1464 0.961 . S
C1457 H1465 0.960 . S
C1458 C1456 1.381 . S
C1458 C1459 1.394 . S
C1458 H1466 0.930 . S
C1459 C1458 1.394 . S
C1459 C1460 1.383 . S
C1459 H1467 0.929 . S
C1460 C1459 1.383 . S
C1460 C1461 1.377 . S
C1461 H1445 0.930 . S
C1461 C1460 1.377 . S
C1461 C1462 1.379 . S
C1462 H1446 0.931 . S
C1462 C1456 1.383 . S
C1462 C1461 1.379 . S
H1463 C1457 0.959 . S
H1464 C1457 0.961 . S
H1465 C1457 0.960 . S
H1466 C1458 0.930 . S
H1467 C1459 0.929 . S
H1468 C1476 0.929 . S
H1469 C1478 0.930 . S
H1470 C1480 0.930 . S
H1471 C1483 0.929 . S
H1472 C1486 0.930 . S
H1473 C1488 0.960 . S
H1474 C1488 0.960 . S
H1475 C1488 0.960 . S
C1476 H1468 0.929 . S
C1476 C1477 1.377 . S
C1476 C1478 1.384 . S
C1477 C1476 1.377 . S
C1477 C1483 1.390 . S
C1478 H1469 0.930 . S
C1478 C1476 1.384 . S
C1478 C1479 1.372 . S
C1479 C1478 1.372 . S
C1479 C1480 1.400 . S
C1479 C1484 1.490 . S
C1480 H1470 0.930 . S
C1480 C1479 1.400 . S
C1480 C1483 1.386 . S
H1481 C1497 0.930 . S
H1482 C1498 0.931 . S
C1483 H1471 0.929 . S
C1483 C1477 1.390 . S
C1483 C1480 1.386 . S
C1484 C1479 1.490 . S
C1484 C1486 1.395 . S
C1484 C1487 1.403 . S
H1485 C1491 0.930 . S
C1486 H1472 0.930 . S
C1486 C1484 1.395 . S
C1486 C1489 1.403 . S
C1487 C1484 1.403 . S
C1487 C1488 1.524 . S
C1487 C1491 1.400 . S
C1488 H1473 0.960 . S
C1488 H1474 0.960 . S
C1488 H1475 0.960 . S
C1488 C1487 1.524 . S
C1489 C1486 1.403 . S
C1489 C1490 1.392 . S
C1489 C1493 1.495 . S
C1490 C1489 1.392 . S
C1490 C1491 1.385 . S
C1490 C1492 1.478 . S
C1491 H1485 0.930 . S
C1491 C1487 1.400 . S
C1491 C1490 1.385 . S
C1492 C1490 1.478 . S
C1492 C1494 1.381 . S
C1492 C1498 1.383 . S
C1493 C1489 1.495 . S
C1493 H1499 0.959 . S
C1493 H1500 0.961 . S
C1493 H1501 0.960 . S
C1494 C1492 1.381 . S
C1494 C1495 1.394 . S
C1494 H1502 0.930 . S
C1495 C1494 1.394 . S
C1495 C1496 1.383 . S
C1495 H1503 0.929 . S
C1496 C1495 1.383 . S
C1496 C1497 1.377 . S
C1497 H1481 0.930 . S
C1497 C1496 1.377 . S
C1497 C1498 1.379 . S
C1498 H1482 0.931 . S
C1498 C1492 1.383 . S
C1498 C1497 1.379 . S
H1499 C1493 0.959 . S
H1500 C1493 0.961 . S
H1501 C1493 0.960 . S
H1502 C1494 0.930 . S
H1503 C1495 0.929 . S
H1504 C1512 0.929 . S
H1505 C1514 0.930 . S
H1506 C1516 0.930 . S
H1507 C1519 0.929 . S
H1508 C1522 0.930 . S
H1509 C1524 0.960 . S
H1510 C1524 0.960 . S
H1511 C1524 0.960 . S
C1512 H1504 0.929 . S
C1512 C1513 1.377 . S
C1512 C1514 1.384 . S
C1513 C1512 1.377 . S
C1513 C1519 1.390 . S
C1514 H1505 0.930 . S
C1514 C1512 1.384 . S
C1514 C1515 1.372 . S
C1515 C1514 1.372 . S
C1515 C1516 1.400 . S
C1515 C1520 1.490 . S
C1516 H1506 0.930 . S
C1516 C1515 1.400 . S
C1516 C1519 1.386 . S
H1517 C1533 0.930 . S
H1518 C1534 0.931 . S
C1519 H1507 0.929 . S
C1519 C1513 1.390 . S
C1519 C1516 1.386 . S
C1520 C1515 1.490 . S
C1520 C1522 1.395 . S
C1520 C1523 1.403 . S
H1521 C1527 0.930 . S
C1522 H1508 0.930 . S
C1522 C1520 1.395 . S
C1522 C1525 1.403 . S
C1523 C1520 1.403 . S
C1523 C1524 1.524 . S
C1523 C1527 1.400 . S
C1524 H1509 0.960 . S
C1524 H1510 0.960 . S
C1524 H1511 0.960 . S
C1524 C1523 1.524 . S
C1525 C1522 1.403 . S
C1525 C1526 1.392 . S
C1525 C1529 1.495 . S
C1526 C1525 1.392 . S
C1526 C1527 1.385 . S
C1526 C1528 1.478 . S
C1527 H1521 0.930 . S
C1527 C1523 1.400 . S
C1527 C1526 1.385 . S
C1528 C1526 1.478 . S
C1528 C1530 1.381 . S
C1528 C1534 1.383 . S
C1529 C1525 1.495 . S
C1529 H1535 0.959 . S
C1529 H1536 0.961 . S
C1529 H1537 0.960 . S
C1530 C1528 1.381 . S
C1530 C1531 1.394 . S
C1530 H1538 0.930 . S
C1531 C1530 1.394 . S
C1531 C1532 1.383 . S
C1531 H1539 0.929 . S
C1532 C1531 1.383 . S
C1532 C1533 1.377 . S
C1533 H1517 0.930 . S
C1533 C1532 1.377 . S
C1533 C1534 1.379 . S
C1534 H1518 0.931 . S
C1534 C1528 1.383 . S
C1534 C1533 1.379 . S
H1535 C1529 0.959 . S
H1536 C1529 0.961 . S
H1537 C1529 0.960 . S
H1538 C1530 0.930 . S
H1539 C1531 0.929 . S
H1540 C1548 0.929 . S
H1541 C1550 0.930 . S
H1542 C1552 0.930 . S
H1543 C1555 0.929 . S
H1544 C1558 0.930 . S
H1545 C1560 0.960 . S
H1546 C1560 0.960 . S
H1547 C1560 0.960 . S
C1548 H1540 0.929 . S
C1548 C1549 1.377 . S
C1548 C1550 1.384 . S
C1549 C1548 1.377 . S
C1549 C1555 1.390 . S
C1550 H1541 0.930 . S
C1550 C1548 1.384 . S
C1550 C1551 1.372 . S
C1551 C1550 1.372 . S
C1551 C1552 1.400 . S
C1551 C1556 1.490 . S
C1552 H1542 0.930 . S
C1552 C1551 1.400 . S
C1552 C1555 1.386 . S
H1553 C1569 0.930 . S
H1554 C1570 0.931 . S
C1555 H1543 0.929 . S
C1555 C1549 1.390 . S
C1555 C1552 1.386 . S
C1556 C1551 1.490 . S
C1556 C1558 1.395 . S
C1556 C1559 1.403 . S
H1557 C1563 0.930 . S
C1558 H1544 0.930 . S
C1558 C1556 1.395 . S
C1558 C1561 1.403 . S
C1559 C1556 1.403 . S
C1559 C1560 1.524 . S
C1559 C1563 1.400 . S
C1560 H1545 0.960 . S
C1560 H1546 0.960 . S
C1560 H1547 0.960 . S
C1560 C1559 1.524 . S
C1561 C1558 1.403 . S
C1561 C1562 1.392 . S
C1561 C1565 1.495 . S
C1562 C1561 1.392 . S
C1562 C1563 1.385 . S
C1562 C1564 1.478 . S
C1563 H1557 0.930 . S
C1563 C1559 1.400 . S
C1563 C1562 1.385 . S
C1564 C1562 1.478 . S
C1564 C1566 1.381 . S
C1564 C1570 1.383 . S
C1565 C1561 1.495 . S
C1565 H1571 0.959 . S
C1565 H1572 0.961 . S
C1565 H1573 0.960 . S
C1566 C1564 1.381 . S
C1566 C1567 1.394 . S
C1566 H1574 0.930 . S
C1567 C1566 1.394 . S
C1567 C1568 1.383 . S
C1567 H1575 0.929 . S
C1568 C1567 1.383 . S
C1568 C1569 1.377 . S
C1569 H1553 0.930 . S
C1569 C1568 1.377 . S
C1569 C1570 1.379 . S
C1570 H1554 0.931 . S
C1570 C1564 1.383 . S
C1570 C1569 1.379 . S
H1571 C1565 0.959 . S
H1572 C1565 0.961 . S
H1573 C1565 0.960 . S
H1574 C1566 0.930 . S
H1575 C1567 0.929 . S
H1576 C1584 0.929 . S
H1577 C1586 0.930 . S
H1578 C1588 0.930 . S
H1579 C1591 0.929 . S
H1580 C1594 0.930 . S
H1581 C1596 0.960 . S
H1582 C1596 0.960 1_545 S
H1583 C1596 0.960 . S
C1584 H1576 0.929 . S
C1584 C1585 1.377 1_545 S
C1584 C1586 1.384 . S
C1585 C1584 1.377 1_565 S
C1585 C1591 1.390 . S
C1586 H1577 0.930 . S
C1586 C1584 1.384 . S
C1586 C1587 1.372 . S
C1587 C1586 1.372 . S
C1587 C1588 1.400 1_545 S
C1587 C1592 1.490 . S
C1588 H1578 0.930 . S
C1588 C1587 1.400 1_565 S
C1588 C1591 1.386 . S
H1589 C1605 0.930 1_565 S
H1590 C1606 0.928 1_565 S
C1591 H1579 0.929 . S
C1591 C1585 1.390 . S
C1591 C1588 1.386 . S
C1592 C1587 1.490 . S
C1592 C1594 1.395 . S
C1592 C1595 1.403 . S
H1593 C1599 0.930 . S
C1594 H1580 0.930 . S
C1594 C1592 1.395 . S
C1594 C1597 1.403 . S
C1595 C1592 1.403 . S
C1595 C1596 1.524 1_545 S
C1595 C1599 1.400 . S
C1596 H1581 0.960 . S
C1596 H1582 0.960 1_565 S
C1596 H1583 0.960 . S
C1596 C1595 1.524 1_565 S
C1597 C1594 1.403 . S
C1597 C1598 1.392 . S
C1597 C1601 1.495 . S
C1598 C1597 1.392 . S
C1598 C1599 1.385 . S
C1598 C1600 1.478 . S
C1599 H1593 0.930 . S
C1599 C1595 1.400 . S
C1599 C1598 1.385 . S
C1600 C1598 1.478 . S
C1600 C1602 1.381 . S
C1600 C1606 1.384 . S
C1601 C1597 1.495 . S
C1601 H1607 0.959 . S
C1601 H1608 0.961 . S
C1601 H1609 0.960 . S
C1602 C1600 1.381 . S
C1602 C1603 1.394 . S
C1602 H1610 0.930 . S
C1603 C1602 1.394 . S
C1603 C1604 1.383 . S
C1603 H1611 0.929 . S
C1604 C1603 1.383 . S
C1604 C1605 1.377 . S
C1605 H1589 0.930 1_545 S
C1605 C1604 1.377 . S
C1605 C1606 1.381 . S
C1606 H1590 0.928 1_545 S
C1606 C1600 1.384 . S
C1606 C1605 1.381 . S
H1607 C1601 0.959 . S
H1608 C1601 0.961 . S
H1609 C1601 0.960 . S
H1610 C1602 0.930 . S
H1611 C1603 0.929 . S
H1612 C1620 0.929 . S
H1613 C1622 0.952 . S
H1614 C1624 0.930 . S
H1615 C1627 0.929 . S
H1616 C1630 0.930 . S
H1617 C1632 0.960 . S
H1618 C1632 0.960 1_556 S
H1619 C1632 0.960 . S
C1620 H1612 0.929 . S
C1620 C1621 1.377 1_556 S
C1620 C1622 1.400 . S
C1621 C1620 1.377 1_554 S
C1621 C1627 1.390 . S
C1622 H1613 0.952 . S
C1622 C1620 1.400 . S
C1622 C1623 1.336 1_556 S
C1623 C1622 1.336 1_554 S
C1623 C1624 1.400 . S
C1623 C1628 1.490 . S
C1624 H1614 0.930 . S
C1624 C1623 1.400 . S
C1624 C1627 1.386 . S
H1625 C1641 0.930 . S
H1626 C1642 0.931 . S
C1627 H1615 0.929 . S
C1627 C1621 1.390 . S
C1627 C1624 1.386 . S
C1628 C1623 1.490 . S
C1628 C1630 1.395 . S
C1628 C1631 1.403 . S
H1629 C1635 0.930 . S
C1630 H1616 0.930 . S
C1630 C1628 1.395 . S
C1630 C1633 1.403 . S
C1631 C1628 1.403 . S
C1631 C1632 1.524 . S
C1631 C1635 1.400 . S
C1632 H1617 0.960 . S
C1632 H1618 0.960 1_554 S
C1632 H1619 0.960 . S
C1632 C1631 1.524 . S
C1633 C1630 1.403 . S
C1633 C1634 1.392 . S
C1633 C1637 1.495 . S
C1634 C1633 1.392 . S
C1634 C1635 1.385 . S
C1634 C1636 1.478 . S
C1635 H1629 0.930 . S
C1635 C1631 1.400 . S
C1635 C1634 1.385 . S
C1636 C1634 1.478 . S
C1636 C1638 1.381 . S
C1636 C1642 1.383 . S
C1637 C1633 1.495 . S
C1637 H1643 0.959 . S
C1637 H1644 0.961 . S
C1637 H1645 0.960 . S
C1638 C1636 1.381 . S
C1638 C1639 1.394 . S
C1638 H1646 0.930 . S
C1639 C1638 1.394 . S
C1639 C1640 1.383 . S
C1639 H1647 0.929 . S
C1640 C1639 1.383 . S
C1640 C1641 1.377 . S
C1641 H1625 0.930 . S
C1641 C1640 1.377 . S
C1641 C1642 1.379 . S
C1642 H1626 0.931 . S
C1642 C1636 1.383 . S
C1642 C1641 1.379 . S
H1643 C1637 0.959 . S
H1644 C1637 0.961 . S
H1645 C1637 0.960 . S
H1646 C1638 0.930 . S
H1647 C1639 0.929 . S
H1648 C1656 0.929 . S
H1649 C1658 0.930 . S
H1650 C1660 0.930 . S
H1651 C1663 0.929 . S
H1652 C1666 0.930 . S
H1653 C1668 0.960 . S
H1654 C1668 0.960 . S
H1655 C1668 0.960 . S
C1656 H1648 0.929 . S
C1656 C1657 1.377 . S
C1656 C1658 1.384 . S
C1657 C1656 1.377 . S
C1657 C1663 1.390 . S
C1658 H1649 0.930 . S
C1658 C1656 1.384 . S
C1658 C1659 1.372 . S
C1659 C1658 1.372 . S
C1659 C1660 1.400 . S
C1659 C1664 1.490 . S
C1660 H1650 0.930 . S
C1660 C1659 1.400 . S
C1660 C1663 1.386 . S
H1661 C1677 0.930 . S
H1662 C1678 0.931 . S
C1663 H1651 0.929 . S
C1663 C1657 1.390 . S
C1663 C1660 1.386 . S
C1664 C1659 1.490 . S
C1664 C1666 1.395 . S
C1664 C1667 1.403 . S
H1665 C1671 0.930 . S
C1666 H1652 0.930 . S
C1666 C1664 1.395 . S
C1666 C1669 1.403 . S
C1667 C1664 1.403 . S
C1667 C1668 1.524 . S
C1667 C1671 1.400 . S
C1668 H1653 0.960 . S
C1668 H1654 0.960 . S
C1668 H1655 0.960 . S
C1668 C1667 1.524 . S
C1669 C1666 1.403 . S
C1669 C1670 1.392 . S
C1669 C1673 1.495 . S
C1670 C1669 1.392 . S
C1670 C1671 1.385 . S
C1670 C1672 1.478 . S
C1671 H1665 0.930 . S
C1671 C1667 1.400 . S
C1671 C1670 1.385 . S
C1672 C1670 1.478 . S
C1672 C1674 1.381 . S
C1672 C1678 1.383 . S
C1673 C1669 1.495 . S
C1673 H1679 0.959 . S
C1673 H1680 0.961 . S
C1673 H1681 0.960 . S
C1674 C1672 1.381 . S
C1674 C1675 1.394 . S
C1674 H1682 0.930 . S
C1675 C1674 1.394 . S
C1675 C1676 1.383 . S
C1675 H1683 0.929 . S
C1676 C1675 1.383 . S
C1676 C1677 1.377 . S
C1677 H1661 0.930 . S
C1677 C1676 1.377 . S
C1677 C1678 1.379 . S
C1678 H1662 0.931 . S
C1678 C1672 1.383 . S
C1678 C1677 1.379 . S
H1679 C1673 0.959 . S
H1680 C1673 0.961 . S
H1681 C1673 0.960 . S
H1682 C1674 0.930 . S
H1683 C1675 0.929 . S
H1684 C1692 0.929 . S
H1685 C1694 0.930 . S
H1686 C1696 0.930 . S
H1687 C1699 0.929 . S
H1688 C1702 0.930 . S
H1689 C1704 0.960 . S
H1690 C1704 0.960 . S
H1691 C1704 0.960 . S
C1692 H1684 0.929 . S
C1692 C1693 1.377 . S
C1692 C1694 1.384 . S
C1693 C1692 1.377 . S
C1693 C1699 1.390 . S
C1694 H1685 0.930 . S
C1694 C1692 1.384 . S
C1694 C1695 1.372 . S
C1695 C1694 1.372 . S
C1695 C1696 1.400 . S
C1695 C1700 1.490 . S
C1696 H1686 0.930 . S
C1696 C1695 1.400 . S
C1696 C1699 1.386 . S
H1697 C1713 0.930 . S
H1698 C1714 0.931 . S
C1699 H1687 0.929 . S
C1699 C1693 1.390 . S
C1699 C1696 1.386 . S
C1700 C1695 1.490 . S
C1700 C1702 1.395 . S
C1700 C1703 1.403 . S
H1701 C1707 0.930 . S
C1702 H1688 0.930 . S
C1702 C1700 1.395 . S
C1702 C1705 1.403 . S
C1703 C1700 1.403 . S
C1703 C1704 1.524 . S
C1703 C1707 1.400 . S
C1704 H1689 0.960 . S
C1704 H1690 0.960 . S
C1704 H1691 0.960 . S
C1704 C1703 1.524 . S
C1705 C1702 1.403 . S
C1705 C1706 1.392 . S
C1705 C1709 1.495 . S
C1706 C1705 1.392 . S
C1706 C1707 1.385 . S
C1706 C1708 1.478 . S
C1707 H1701 0.930 . S
C1707 C1703 1.400 . S
C1707 C1706 1.385 . S
C1708 C1706 1.478 . S
C1708 C1710 1.381 . S
C1708 C1714 1.383 . S
C1709 C1705 1.495 . S
C1709 H1715 0.959 . S
C1709 H1716 0.961 . S
C1709 H1717 0.960 . S
C1710 C1708 1.381 . S
C1710 C1711 1.394 . S
C1710 H1718 0.930 . S
C1711 C1710 1.394 . S
C1711 C1712 1.383 . S
C1711 H1719 0.929 . S
C1712 C1711 1.383 . S
C1712 C1713 1.377 . S
C1713 H1697 0.930 . S
C1713 C1712 1.377 . S
C1713 C1714 1.379 . S
C1714 H1698 0.931 . S
C1714 C1708 1.383 . S
C1714 C1713 1.379 . S
H1715 C1709 0.959 . S
H1716 C1709 0.961 . S
H1717 C1709 0.960 . S
H1718 C1710 0.930 . S
H1719 C1711 0.929 . S
H1720 C1728 0.929 . S
H1721 C1730 0.930 . S
H1722 C1732 0.930 . S
H1723 C1735 0.929 . S
H1724 C1738 0.930 . S
H1725 C1740 0.960 . S
H1726 C1740 0.960 . S
H1727 C1740 0.960 . S
C1728 H1720 0.929 . S
C1728 C1729 1.377 . S
C1728 C1730 1.384 . S
C1729 C1728 1.377 . S
C1729 C1735 1.390 . S
C1730 H1721 0.930 . S
C1730 C1728 1.384 . S
C1730 C1731 1.372 . S
C1731 C1730 1.372 . S
C1731 C1732 1.400 . S
C1731 C1736 1.490 . S
C1732 H1722 0.930 . S
C1732 C1731 1.400 . S
C1732 C1735 1.386 . S
H1733 C1749 0.930 . S
H1734 C1750 0.931 . S
C1735 H1723 0.929 . S
C1735 C1729 1.390 . S
C1735 C1732 1.386 . S
C1736 C1731 1.490 . S
C1736 C1738 1.395 . S
C1736 C1739 1.403 . S
H1737 C1743 0.930 . S
C1738 H1724 0.930 . S
C1738 C1736 1.395 . S
C1738 C1741 1.403 . S
C1739 C1736 1.403 . S
C1739 C1740 1.524 . S
C1739 C1743 1.400 . S
C1740 H1725 0.960 . S
C1740 H1726 0.960 . S
C1740 H1727 0.960 . S
C1740 C1739 1.524 . S
C1741 C1738 1.403 . S
C1741 C1742 1.392 . S
C1741 C1745 1.495 . S
C1742 C1741 1.392 . S
C1742 C1743 1.385 . S
C1742 C1744 1.478 . S
C1743 H1737 0.930 . S
C1743 C1739 1.400 . S
C1743 C1742 1.385 . S
C1744 C1742 1.478 . S
C1744 C1746 1.381 . S
C1744 C1750 1.383 . S
C1745 C1741 1.495 . S
C1745 H1751 0.959 . S
C1745 H1752 0.961 . S
C1745 H1753 0.960 . S
C1746 C1744 1.381 . S
C1746 C1747 1.394 . S
C1746 H1754 0.930 . S
C1747 C1746 1.394 . S
C1747 C1748 1.383 . S
C1747 H1755 0.929 . S
C1748 C1747 1.383 . S
C1748 C1749 1.377 . S
C1749 H1733 0.930 . S
C1749 C1748 1.377 . S
C1749 C1750 1.379 . S
C1750 H1734 0.931 . S
C1750 C1744 1.383 . S
C1750 C1749 1.379 . S
H1751 C1745 0.959 . S
H1752 C1745 0.961 . S
H1753 C1745 0.960 . S
H1754 C1746 0.930 . S
H1755 C1747 0.929 . S
H1756 C1764 0.929 . S
H1757 C1766 0.930 . S
H1758 C1768 0.930 . S
H1759 C1771 0.929 . S
H1760 C1774 0.930 . S
H1761 C1776 0.960 . S
H1762 C1776 0.960 . S
H1763 C1776 0.960 . S
C1764 H1756 0.929 . S
C1764 C1765 1.377 . S
C1764 C1766 1.384 . S
C1765 C1764 1.377 . S
C1765 C1771 1.390 . S
C1766 H1757 0.930 . S
C1766 C1764 1.384 . S
C1766 C1767 1.372 . S
C1767 C1766 1.372 . S
C1767 C1768 1.400 . S
C1767 C1772 1.490 . S
C1768 H1758 0.930 . S
C1768 C1767 1.400 . S
C1768 C1771 1.386 . S
H1769 C1785 0.930 . S
H1770 C1786 0.931 . S
C1771 H1759 0.929 . S
C1771 C1765 1.390 . S
C1771 C1768 1.386 . S
C1772 C1767 1.490 . S
C1772 C1774 1.395 . S
C1772 C1775 1.403 . S
H1773 C1779 0.930 . S
C1774 H1760 0.930 . S
C1774 C1772 1.395 . S
C1774 C1777 1.403 . S
C1775 C1772 1.403 . S
C1775 C1776 1.524 . S
C1775 C1779 1.400 . S
C1776 H1761 0.960 . S
C1776 H1762 0.960 . S
C1776 H1763 0.960 . S
C1776 C1775 1.524 . S
C1777 C1774 1.403 . S
C1777 C1778 1.392 . S
C1777 C1781 1.495 . S
C1778 C1777 1.392 . S
C1778 C1779 1.385 . S
C1778 C1780 1.478 . S
C1779 H1773 0.930 . S
C1779 C1775 1.400 . S
C1779 C1778 1.385 . S
C1780 C1778 1.478 . S
C1780 C1782 1.381 . S
C1780 C1786 1.383 . S
C1781 C1777 1.495 . S
C1781 H1787 0.959 . S
C1781 H1788 0.961 . S
C1781 H1789 0.960 . S
C1782 C1780 1.381 . S
C1782 C1783 1.394 . S
C1782 H1790 0.930 . S
C1783 C1782 1.394 . S
C1783 C1784 1.383 . S
C1783 H1791 0.929 . S
C1784 C1783 1.383 . S
C1784 C1785 1.377 . S
C1785 H1769 0.930 . S
C1785 C1784 1.377 . S
C1785 C1786 1.379 . S
C1786 H1770 0.931 . S
C1786 C1780 1.383 . S
C1786 C1785 1.379 . S
H1787 C1781 0.959 . S
H1788 C1781 0.961 . S
H1789 C1781 0.960 . S
H1790 C1782 0.930 . S
H1791 C1783 0.929 . S
H1792 C1800 0.929 . S
H1793 C1802 0.930 . S
H1794 C1804 0.930 . S
H1795 C1807 0.929 . S
H1796 C1810 0.930 . S
H1797 C1812 0.960 . S
H1798 C1812 0.960 . S
H1799 C1812 0.960 . S
C1800 H1792 0.929 . S
C1800 C1801 1.377 . S
C1800 C1802 1.384 . S
C1801 C1800 1.377 . S
C1801 C1807 1.390 . S
C1802 H1793 0.930 . S
C1802 C1800 1.384 . S
C1802 C1803 1.372 . S
C1803 C1802 1.372 . S
C1803 C1804 1.400 . S
C1803 C1808 1.490 . S
C1804 H1794 0.930 . S
C1804 C1803 1.400 . S
C1804 C1807 1.386 . S
H1805 C1821 0.930 . S
H1806 C1822 0.931 . S
C1807 H1795 0.929 . S
C1807 C1801 1.390 . S
C1807 C1804 1.386 . S
C1808 C1803 1.490 . S
C1808 C1810 1.395 . S
C1808 C1811 1.403 . S
H1809 C1815 0.930 . S
C1810 H1796 0.930 . S
C1810 C1808 1.395 . S
C1810 C1813 1.403 . S
C1811 C1808 1.403 . S
C1811 C1812 1.524 . S
C1811 C1815 1.400 . S
C1812 H1797 0.960 . S
C1812 H1798 0.960 . S
C1812 H1799 0.960 . S
C1812 C1811 1.524 . S
C1813 C1810 1.403 . S
C1813 C1814 1.392 . S
C1813 C1817 1.495 . S
C1814 C1813 1.392 . S
C1814 C1815 1.385 . S
C1814 C1816 1.478 . S
C1815 H1809 0.930 . S
C1815 C1811 1.400 . S
C1815 C1814 1.385 . S
C1816 C1814 1.478 . S
C1816 C1818 1.381 . S
C1816 C1822 1.383 . S
C1817 C1813 1.495 . S
C1817 H1823 0.959 . S
C1817 H1824 0.961 . S
C1817 H1825 0.960 . S
C1818 C1816 1.381 . S
C1818 C1819 1.394 . S
C1818 H1826 0.930 . S
C1819 C1818 1.394 . S
C1819 C1820 1.383 . S
C1819 H1827 0.929 . S
C1820 C1819 1.383 . S
C1820 C1821 1.377 . S
C1821 H1805 0.930 . S
C1821 C1820 1.377 . S
C1821 C1822 1.379 . S
C1822 H1806 0.931 . S
C1822 C1816 1.383 . S
C1822 C1821 1.379 . S
H1823 C1817 0.959 . S
H1824 C1817 0.961 . S
H1825 C1817 0.960 . S
H1826 C1818 0.930 . S
H1827 C1819 0.929 . S
H1828 C1836 0.929 . S
H1829 C1838 0.930 . S
H1830 C1840 0.930 . S
H1831 C1843 0.929 . S
H1832 C1846 0.930 . S
H1833 C1848 0.960 . S
H1834 C1848 0.960 . S
H1835 C1848 0.960 . S
C1836 H1828 0.929 . S
C1836 C1837 1.377 . S
C1836 C1838 1.384 . S
C1837 C1836 1.377 . S
C1837 C1843 1.390 . S
C1838 H1829 0.930 . S
C1838 C1836 1.384 . S
C1838 C1839 1.372 . S
C1839 C1838 1.372 . S
C1839 C1840 1.400 . S
C1839 C1844 1.490 . S
C1840 H1830 0.930 . S
C1840 C1839 1.400 . S
C1840 C1843 1.386 . S
H1841 C1857 0.930 . S
H1842 C1858 0.931 . S
C1843 H1831 0.929 . S
C1843 C1837 1.390 . S
C1843 C1840 1.386 . S
C1844 C1839 1.490 . S
C1844 C1846 1.395 . S
C1844 C1847 1.403 . S
H1845 C1851 0.930 . S
C1846 H1832 0.930 . S
C1846 C1844 1.395 . S
C1846 C1849 1.403 . S
C1847 C1844 1.403 . S
C1847 C1848 1.524 . S
C1847 C1851 1.400 . S
C1848 H1833 0.960 . S
C1848 H1834 0.960 . S
C1848 H1835 0.960 . S
C1848 C1847 1.524 . S
C1849 C1846 1.403 . S
C1849 C1850 1.392 . S
C1849 C1853 1.495 . S
C1850 C1849 1.392 . S
C1850 C1851 1.385 . S
C1850 C1852 1.478 . S
C1851 H1845 0.930 . S
C1851 C1847 1.400 . S
C1851 C1850 1.385 . S
C1852 C1850 1.478 . S
C1852 C1854 1.381 . S
C1852 C1858 1.383 . S
C1853 C1849 1.495 . S
C1853 H1859 0.959 . S
C1853 H1860 0.961 . S
C1853 H1861 0.960 . S
C1854 C1852 1.381 . S
C1854 C1855 1.394 . S
C1854 H1862 0.930 . S
C1855 C1854 1.394 . S
C1855 C1856 1.383 . S
C1855 H1863 0.929 . S
C1856 C1855 1.383 . S
C1856 C1857 1.377 . S
C1857 H1841 0.930 . S
C1857 C1856 1.377 . S
C1857 C1858 1.379 . S
C1858 H1842 0.931 . S
C1858 C1852 1.383 . S
C1858 C1857 1.379 . S
H1859 C1853 0.959 . S
H1860 C1853 0.961 . S
H1861 C1853 0.960 . S
H1862 C1854 0.930 . S
H1863 C1855 0.929 . S
H1864 C1872 0.929 . S
H1865 C1874 0.930 . S
H1866 C1876 0.930 . S
H1867 C1879 0.929 . S
H1868 C1882 0.930 . S
H1869 C1884 0.960 . S
H1870 C1884 0.960 . S
H1871 C1884 0.960 . S
C1872 H1864 0.929 . S
C1872 C1873 1.377 . S
C1872 C1874 1.384 . S
C1873 C1872 1.377 . S
C1873 C1879 1.390 . S
C1874 H1865 0.930 . S
C1874 C1872 1.384 . S
C1874 C1875 1.372 . S
C1875 C1874 1.372 . S
C1875 C1876 1.400 . S
C1875 C1880 1.490 . S
C1876 H1866 0.930 . S
C1876 C1875 1.400 . S
C1876 C1879 1.386 . S
H1877 C1893 0.930 . S
H1878 C1894 0.931 . S
C1879 H1867 0.929 . S
C1879 C1873 1.390 . S
C1879 C1876 1.386 . S
C1880 C1875 1.490 . S
C1880 C1882 1.395 . S
C1880 C1883 1.403 . S
H1881 C1887 0.930 . S
C1882 H1868 0.930 . S
C1882 C1880 1.395 . S
C1882 C1885 1.403 . S
C1883 C1880 1.403 . S
C1883 C1884 1.524 . S
C1883 C1887 1.400 . S
C1884 H1869 0.960 . S
C1884 H1870 0.960 . S
C1884 H1871 0.960 . S
C1884 C1883 1.524 . S
C1885 C1882 1.403 . S
C1885 C1886 1.392 . S
C1885 C1889 1.495 . S
C1886 C1885 1.392 . S
C1886 C1887 1.385 . S
C1886 C1888 1.478 . S
C1887 H1881 0.930 . S
C1887 C1883 1.400 . S
C1887 C1886 1.385 . S
C1888 C1886 1.478 . S
C1888 C1890 1.381 . S
C1888 C1894 1.383 . S
C1889 C1885 1.495 . S
C1889 H1895 0.959 . S
C1889 H1896 0.961 . S
C1889 H1897 0.960 . S
C1890 C1888 1.381 . S
C1890 C1891 1.394 . S
C1890 H1898 0.930 . S
C1891 C1890 1.394 . S
C1891 C1892 1.383 . S
C1891 H1899 0.929 . S
C1892 C1891 1.383 . S
C1892 C1893 1.377 . S
C1893 H1877 0.930 . S
C1893 C1892 1.377 . S
C1893 C1894 1.379 . S
C1894 H1878 0.931 . S
C1894 C1888 1.383 . S
C1894 C1893 1.379 . S
H1895 C1889 0.959 . S
H1896 C1889 0.961 . S
H1897 C1889 0.960 . S
H1898 C1890 0.930 . S
H1899 C1891 0.929 . S
H1900 C1908 0.929 . S
H1901 C1910 0.930 . S
H1902 C1912 0.930 . S
H1903 C1915 0.929 . S
H1904 C1918 0.930 . S
H1905 C1920 0.960 . S
H1906 C1920 0.960 . S
H1907 C1920 0.960 . S
C1908 H1900 0.929 . S
C1908 C1909 1.377 . S
C1908 C1910 1.384 . S
C1909 C1908 1.377 . S
C1909 C1915 1.390 . S
C1910 H1901 0.930 . S
C1910 C1908 1.384 . S
C1910 C1911 1.372 . S
C1911 C1910 1.372 . S
C1911 C1912 1.400 . S
C1911 C1916 1.490 . S
C1912 H1902 0.930 . S
C1912 C1911 1.400 . S
C1912 C1915 1.386 . S
H1913 C1929 0.930 . S
H1914 C1930 0.931 . S
C1915 H1903 0.929 . S
C1915 C1909 1.390 . S
C1915 C1912 1.386 . S
C1916 C1911 1.490 . S
C1916 C1918 1.395 . S
C1916 C1919 1.403 . S
H1917 C1923 0.930 . S
C1918 H1904 0.930 . S
C1918 C1916 1.395 . S
C1918 C1921 1.403 . S
C1919 C1916 1.403 . S
C1919 C1920 1.524 . S
C1919 C1923 1.400 . S
C1920 H1905 0.960 . S
C1920 H1906 0.960 . S
C1920 H1907 0.960 . S
C1920 C1919 1.524 . S
C1921 C1918 1.403 . S
C1921 C1922 1.392 . S
C1921 C1925 1.495 . S
C1922 C1921 1.392 . S
C1922 C1923 1.385 . S
C1922 C1924 1.478 . S
C1923 H1917 0.930 . S
C1923 C1919 1.400 . S
C1923 C1922 1.385 . S
C1924 C1922 1.478 . S
C1924 C1926 1.381 . S
C1924 C1930 1.383 . S
C1925 C1921 1.495 . S
C1925 H1931 0.959 . S
C1925 H1932 0.961 . S
C1925 H1933 0.960 . S
C1926 C1924 1.381 . S
C1926 C1927 1.394 . S
C1926 H1934 0.930 . S
C1927 C1926 1.394 . S
C1927 C1928 1.383 . S
C1927 H1935 0.929 . S
C1928 C1927 1.383 . S
C1928 C1929 1.377 . S
C1929 H1913 0.930 . S
C1929 C1928 1.377 . S
C1929 C1930 1.379 . S
C1930 H1914 0.931 . S
C1930 C1924 1.383 . S
C1930 C1929 1.379 . S
H1931 C1925 0.959 . S
H1932 C1925 0.961 . S
H1933 C1925 0.960 . S
H1934 C1926 0.930 . S
H1935 C1927 0.929 . S
H1936 C1944 0.929 . S
H1937 C1946 0.930 . S
H1938 C1948 0.930 . S
H1939 C1951 0.929 . S
H1940 C1954 0.930 . S
H1941 C1956 0.960 . S
H1942 C1956 0.960 . S
H1943 C1956 0.960 . S
C1944 H1936 0.929 . S
C1944 C1945 1.377 . S
C1944 C1946 1.384 . S
C1945 C1944 1.377 . S
C1945 C1951 1.390 . S
C1946 H1937 0.930 . S
C1946 C1944 1.384 . S
C1946 C1947 1.372 . S
C1947 C1946 1.372 . S
C1947 C1948 1.400 . S
C1947 C1952 1.490 . S
C1948 H1938 0.930 . S
C1948 C1947 1.400 . S
C1948 C1951 1.386 . S
H1949 C1965 0.930 . S
H1950 C1966 0.931 . S
C1951 H1939 0.929 . S
C1951 C1945 1.390 . S
C1951 C1948 1.386 . S
C1952 C1947 1.490 . S
C1952 C1954 1.395 . S
C1952 C1955 1.403 . S
H1953 C1959 0.930 . S
C1954 H1940 0.930 . S
C1954 C1952 1.395 . S
C1954 C1957 1.403 . S
C1955 C1952 1.403 . S
C1955 C1956 1.524 . S
C1955 C1959 1.400 . S
C1956 H1941 0.960 . S
C1956 H1942 0.960 . S
C1956 H1943 0.960 . S
C1956 C1955 1.524 . S
C1957 C1954 1.403 . S
C1957 C1958 1.392 . S
C1957 C1961 1.495 . S
C1958 C1957 1.392 . S
C1958 C1959 1.385 . S
C1958 C1960 1.478 . S
C1959 H1953 0.930 . S
C1959 C1955 1.400 . S
C1959 C1958 1.385 . S
C1960 C1958 1.478 . S
C1960 C1962 1.381 . S
C1960 C1966 1.383 . S
C1961 C1957 1.495 . S
C1961 H1967 0.959 . S
C1961 H1968 0.961 . S
C1961 H1969 0.960 . S
C1962 C1960 1.381 . S
C1962 C1963 1.394 . S
C1962 H1970 0.930 . S
C1963 C1962 1.394 . S
C1963 C1964 1.383 . S
C1963 H1971 0.929 . S
C1964 C1963 1.383 . S
C1964 C1965 1.377 . S
C1965 H1949 0.930 . S
C1965 C1964 1.377 . S
C1965 C1966 1.379 . S
C1966 H1950 0.931 . S
C1966 C1960 1.383 . S
C1966 C1965 1.379 . S
H1967 C1961 0.959 . S
H1968 C1961 0.961 . S
H1969 C1961 0.960 . S
H1970 C1962 0.930 . S
H1971 C1963 0.929 . S
H1972 C1980 0.929 . S
H1973 C1982 0.930 . S
H1974 C1984 0.930 . S
H1975 C1987 0.929 . S
H1976 C1990 0.930 1_556 S
H1977 C1992 0.960 . S
H1978 C1992 0.960 . S
H1979 C1992 0.960 . S
C1980 H1972 0.929 . S
C1980 C1981 1.377 . S
C1980 C1982 1.384 . S
C1981 C1980 1.377 . S
C1981 C1987 1.390 . S
C1982 H1973 0.930 . S
C1982 C1980 1.384 . S
C1982 C1983 1.372 . S
C1983 C1982 1.372 . S
C1983 C1984 1.400 . S
C1983 C1988 1.490 . S
C1984 H1974 0.930 . S
C1984 C1983 1.400 . S
C1984 C1987 1.386 . S
H1985 C2001 0.930 . S
H1986 C2002 0.931 . S
C1987 H1975 0.929 . S
C1987 C1981 1.390 . S
C1987 C1984 1.386 . S
C1988 C1983 1.490 . S
C1988 C1990 1.395 . S
C1988 C1991 1.403 . S
H1989 C1995 0.930 . S
C1990 H1976 0.930 1_554 S
C1990 C1988 1.395 . S
C1990 C1993 1.403 1_554 S
C1991 C1988 1.403 . S
C1991 C1992 1.524 . S
C1991 C1995 1.400 . S
C1992 H1977 0.960 . S
C1992 H1978 0.960 . S
C1992 H1979 0.960 . S
C1992 C1991 1.524 . S
C1993 C1990 1.403 1_556 S
C1993 C1994 1.392 1_556 S
C1993 C1997 1.495 . S
C1994 C1993 1.392 1_554 S
C1994 C1995 1.385 . S
C1994 C1996 1.478 . S
C1995 H1989 0.930 . S
C1995 C1991 1.400 . S
C1995 C1994 1.385 . S
C1996 C1994 1.478 . S
C1996 C1998 1.381 1_554 S
C1996 C2002 1.383 . S
C1997 C1993 1.495 . S
C1997 H2003 0.959 . S
C1997 H2004 0.961 . S
C1997 H2005 0.960 . S
C1998 C1996 1.381 1_556 S
C1998 C1999 1.394 . S
C1998 H2006 0.930 . S
C1999 C1998 1.394 . S
C1999 C2000 1.383 1_556 S
C1999 H2007 0.929 . S
C2000 C1999 1.383 1_554 S
C2000 C2001 1.377 . S
C2001 H1985 0.930 . S
C2001 C2000 1.377 . S
C2001 C2002 1.379 . S
C2002 H1986 0.931 . S
C2002 C1996 1.383 . S
C2002 C2001 1.379 . S
H2003 C1997 0.959 . S
H2004 C1997 0.961 . S
H2005 C1997 0.960 . S
H2006 C1998 0.930 . S
H2007 C1999 0.929 . S
H2008 C2016 0.929 . S
H2009 C2018 0.930 . S
H2010 C2020 0.930 . S
H2011 C2023 0.929 . S
H2012 C2026 0.930 . S
H2013 C2028 0.960 . S
H2014 C2028 0.960 . S
H2015 C2028 0.960 . S
C2016 H2008 0.929 . S
C2016 C2017 1.377 . S
C2016 C2018 1.384 . S
C2017 C2016 1.377 . S
C2017 C2023 1.390 . S
C2018 H2009 0.930 . S
C2018 C2016 1.384 . S
C2018 C2019 1.372 . S
C2019 C2018 1.372 . S
C2019 C2020 1.400 . S
C2019 C2024 1.490 . S
C2020 H2010 0.930 . S
C2020 C2019 1.400 . S
C2020 C2023 1.386 . S
H2021 C2037 0.930 . S
H2022 C2038 0.931 . S
C2023 H2011 0.929 . S
C2023 C2017 1.390 . S
C2023 C2020 1.386 . S
C2024 C2019 1.490 . S
C2024 C2026 1.395 . S
C2024 C2027 1.403 . S
H2025 C2031 0.930 . S
C2026 H2012 0.930 . S
C2026 C2024 1.395 . S
C2026 C2029 1.403 . S
C2027 C2024 1.403 . S
C2027 C2028 1.524 . S
C2027 C2031 1.400 . S
C2028 H2013 0.960 . S
C2028 H2014 0.960 . S
C2028 H2015 0.960 . S
C2028 C2027 1.524 . S
C2029 C2026 1.403 . S
C2029 C2030 1.392 . S
C2029 C2033 1.495 . S
C2030 C2029 1.392 . S
C2030 C2031 1.385 . S
C2030 C2032 1.478 . S
C2031 H2025 0.930 . S
C2031 C2027 1.400 . S
C2031 C2030 1.385 . S
C2032 C2030 1.478 . S
C2032 C2034 1.381 . S
C2032 C2038 1.383 . S
C2033 C2029 1.495 . S
C2033 H2039 0.959 . S
C2033 H2040 0.961 . S
C2033 H2041 0.960 . S
C2034 C2032 1.381 . S
C2034 C2035 1.394 . S
C2034 H2042 0.930 . S
C2035 C2034 1.394 . S
C2035 C2036 1.383 . S
C2035 H2043 0.929 . S
C2036 C2035 1.383 . S
C2036 C2037 1.377 . S
C2037 H2021 0.930 . S
C2037 C2036 1.377 . S
C2037 C2038 1.379 . S
C2038 H2022 0.931 . S
C2038 C2032 1.383 . S
C2038 C2037 1.379 . S
H2039 C2033 0.959 . S
H2040 C2033 0.961 . S
H2041 C2033 0.960 . S
H2042 C2034 0.930 . S
H2043 C2035 0.929 . S
H2044 C2052 0.929 . S
H2045 C2054 0.930 . S
H2046 C2056 0.930 . S
H2047 C2059 0.929 . S
H2048 C2062 0.930 . S
H2049 C2064 0.960 . S
H2050 C2064 0.960 . S
H2051 C2064 0.960 . S
C2052 H2044 0.929 . S
C2052 C2053 1.377 . S
C2052 C2054 1.384 . S
C2053 C2052 1.377 . S
C2053 C2059 1.390 . S
C2054 H2045 0.930 . S
C2054 C2052 1.384 . S
C2054 C2055 1.372 . S
C2055 C2054 1.372 . S
C2055 C2056 1.400 . S
C2055 C2060 1.490 . S
C2056 H2046 0.930 . S
C2056 C2055 1.400 . S
C2056 C2059 1.386 . S
H2057 C2073 0.930 . S
H2058 C2074 0.931 . S
C2059 H2047 0.929 . S
C2059 C2053 1.390 . S
C2059 C2056 1.386 . S
C2060 C2055 1.490 . S
C2060 C2062 1.395 . S
C2060 C2063 1.403 . S
H2061 C2067 0.930 . S
C2062 H2048 0.930 . S
C2062 C2060 1.395 . S
C2062 C2065 1.403 . S
C2063 C2060 1.403 . S
C2063 C2064 1.524 . S
C2063 C2067 1.400 . S
C2064 H2049 0.960 . S
C2064 H2050 0.960 . S
C2064 H2051 0.960 . S
C2064 C2063 1.524 . S
C2065 C2062 1.403 . S
C2065 C2066 1.392 . S
C2065 C2069 1.495 . S
C2066 C2065 1.392 . S
C2066 C2067 1.385 . S
C2066 C2068 1.478 . S
C2067 H2061 0.930 . S
C2067 C2063 1.400 . S
C2067 C2066 1.385 . S
C2068 C2066 1.478 . S
C2068 C2070 1.381 . S
C2068 C2074 1.383 . S
C2069 C2065 1.495 . S
C2069 H2075 0.959 . S
C2069 H2076 0.961 . S
C2069 H2077 0.960 . S
C2070 C2068 1.381 . S
C2070 C2071 1.394 . S
C2070 H2078 0.930 . S
C2071 C2070 1.394 . S
C2071 C2072 1.383 . S
C2071 H2079 0.929 . S
C2072 C2071 1.383 . S
C2072 C2073 1.377 . S
C2073 H2057 0.930 . S
C2073 C2072 1.377 . S
C2073 C2074 1.379 . S
C2074 H2058 0.931 . S
C2074 C2068 1.383 . S
C2074 C2073 1.379 . S
H2075 C2069 0.959 . S
H2076 C2069 0.961 . S
H2077 C2069 0.960 . S
H2078 C2070 0.930 . S
H2079 C2071 0.929 . S
H2080 C2088 0.929 . S
H2081 C2090 0.930 . S
H2082 C2092 0.930 . S
H2083 C2095 0.929 . S
H2084 C2098 0.930 . S
H2085 C2100 0.960 . S
H2086 C2100 0.960 . S
H2087 C2100 0.960 . S
C2088 H2080 0.929 . S
C2088 C2089 1.377 . S
C2088 C2090 1.384 . S
C2089 C2088 1.377 . S
C2089 C2095 1.390 . S
C2090 H2081 0.930 . S
C2090 C2088 1.384 . S
C2090 C2091 1.372 . S
C2091 C2090 1.372 . S
C2091 C2092 1.400 . S
C2091 C2096 1.490 . S
C2092 H2082 0.930 . S
C2092 C2091 1.400 . S
C2092 C2095 1.386 . S
H2093 C2109 0.930 . S
H2094 C2110 0.931 . S
C2095 H2083 0.929 . S
C2095 C2089 1.390 . S
C2095 C2092 1.386 . S
C2096 C2091 1.490 . S
C2096 C2098 1.395 . S
C2096 C2099 1.403 . S
H2097 C2103 0.930 . S
C2098 H2084 0.930 . S
C2098 C2096 1.395 . S
C2098 C2101 1.403 . S
C2099 C2096 1.403 . S
C2099 C2100 1.524 . S
C2099 C2103 1.400 . S
C2100 H2085 0.960 . S
C2100 H2086 0.960 . S
C2100 H2087 0.960 . S
C2100 C2099 1.524 . S
C2101 C2098 1.403 . S
C2101 C2102 1.392 . S
C2101 C2105 1.495 . S
C2102 C2101 1.392 . S
C2102 C2103 1.385 . S
C2102 C2104 1.478 . S
C2103 H2097 0.930 . S
C2103 C2099 1.400 . S
C2103 C2102 1.385 . S
C2104 C2102 1.478 . S
C2104 C2106 1.381 . S
C2104 C2110 1.383 . S
C2105 C2101 1.495 . S
C2105 H2111 0.959 . S
C2105 H2112 0.961 . S
C2105 H2113 0.960 . S
C2106 C2104 1.381 . S
C2106 C2107 1.394 . S
C2106 H2114 0.930 . S
C2107 C2106 1.394 . S
C2107 C2108 1.383 . S
C2107 H2115 0.929 . S
C2108 C2107 1.383 . S
C2108 C2109 1.377 . S
C2109 H2093 0.930 . S
C2109 C2108 1.377 . S
C2109 C2110 1.379 . S
C2110 H2094 0.931 . S
C2110 C2104 1.383 . S
C2110 C2109 1.379 . S
H2111 C2105 0.959 . S
H2112 C2105 0.961 . S
H2113 C2105 0.960 . S
H2114 C2106 0.930 . S
H2115 C2107 0.929 . S
H2116 C2124 0.929 . S
H2117 C2126 0.930 . S
H2118 C2128 0.930 . S
H2119 C2131 0.929 . S
H2120 C2134 0.930 . S
H2121 C2136 0.960 . S
H2122 C2136 0.960 . S
H2123 C2136 0.960 . S
C2124 H2116 0.929 . S
C2124 C2125 1.377 . S
C2124 C2126 1.384 . S
C2125 C2124 1.377 . S
C2125 C2131 1.390 . S
C2126 H2117 0.930 . S
C2126 C2124 1.384 . S
C2126 C2127 1.372 . S
C2127 C2126 1.372 . S
C2127 C2128 1.400 . S
C2127 C2132 1.490 . S
C2128 H2118 0.930 . S
C2128 C2127 1.400 . S
C2128 C2131 1.386 . S
H2129 C2145 0.930 . S
H2130 C2146 0.931 . S
C2131 H2119 0.929 . S
C2131 C2125 1.390 . S
C2131 C2128 1.386 . S
C2132 C2127 1.490 . S
C2132 C2134 1.395 . S
C2132 C2135 1.403 . S
H2133 C2139 0.930 . S
C2134 H2120 0.930 . S
C2134 C2132 1.395 . S
C2134 C2137 1.403 . S
C2135 C2132 1.403 . S
C2135 C2136 1.524 . S
C2135 C2139 1.400 . S
C2136 H2121 0.960 . S
C2136 H2122 0.960 . S
C2136 H2123 0.960 . S
C2136 C2135 1.524 . S
C2137 C2134 1.403 . S
C2137 C2138 1.392 . S
C2137 C2141 1.495 . S
C2138 C2137 1.392 . S
C2138 C2139 1.385 . S
C2138 C2140 1.478 . S
C2139 H2133 0.930 . S
C2139 C2135 1.400 . S
C2139 C2138 1.385 . S
C2140 C2138 1.478 . S
C2140 C2142 1.381 . S
C2140 C2146 1.383 . S
C2141 C2137 1.495 . S
C2141 H2147 0.959 . S
C2141 H2148 0.961 . S
C2141 H2149 0.960 . S
C2142 C2140 1.381 . S
C2142 C2143 1.394 . S
C2142 H2150 0.930 . S
C2143 C2142 1.394 . S
C2143 C2144 1.383 . S
C2143 H2151 0.929 . S
C2144 C2143 1.383 . S
C2144 C2145 1.377 . S
C2145 H2129 0.930 . S
C2145 C2144 1.377 . S
C2145 C2146 1.379 . S
C2146 H2130 0.931 . S
C2146 C2140 1.383 . S
C2146 C2145 1.379 . S
H2147 C2141 0.959 . S
H2148 C2141 0.961 . S
H2149 C2141 0.960 . S
H2150 C2142 0.930 . S
H2151 C2143 0.929 . S
H2152 C2160 0.929 . S
H2153 C2162 0.930 . S
H2154 C2164 0.930 . S
H2155 C2167 0.929 . S
H2156 C2170 0.930 . S
H2157 C2172 0.960 . S
H2158 C2172 0.960 . S
H2159 C2172 0.960 . S
C2160 H2152 0.929 . S
C2160 C2161 1.377 . S
C2160 C2162 1.384 . S
C2161 C2160 1.377 . S
C2161 C2167 1.390 1_556 S
C2162 H2153 0.930 . S
C2162 C2160 1.384 . S
C2162 C2163 1.372 . S
C2163 C2162 1.372 . S
C2163 C2164 1.400 1_556 S
C2163 C2168 1.490 . S
C2164 H2154 0.930 . S
C2164 C2163 1.400 1_554 S
C2164 C2167 1.386 . S
H2165 C2181 0.930 . S
H2166 C2182 0.931 1_554 S
C2167 H2155 0.929 . S
C2167 C2161 1.390 1_554 S
C2167 C2164 1.386 . S
C2168 C2163 1.490 . S
C2168 C2170 1.395 . S
C2168 C2171 1.403 . S
H2169 C2175 0.930 . S
C2170 H2156 0.930 . S
C2170 C2168 1.395 . S
C2170 C2173 1.403 . S
C2171 C2168 1.403 . S
C2171 C2172 1.524 . S
C2171 C2175 1.400 . S
C2172 H2157 0.960 . S
C2172 H2158 0.960 . S
C2172 H2159 0.960 . S
C2172 C2171 1.524 . S
C2173 C2170 1.403 . S
C2173 C2174 1.392 . S
C2173 C2177 1.495 . S
C2174 C2173 1.392 . S
C2174 C2175 1.385 . S
C2174 C2176 1.478 . S
C2175 H2169 0.930 . S
C2175 C2171 1.400 . S
C2175 C2174 1.385 . S
C2176 C2174 1.478 . S
C2176 C2178 1.381 . S
C2176 C2182 1.383 . S
C2177 C2173 1.495 . S
C2177 H2183 0.959 . S
C2177 H2184 0.961 . S
C2177 H2185 0.960 . S
C2178 C2176 1.381 . S
C2178 C2179 1.394 . S
C2178 H2186 0.930 . S
C2179 C2178 1.394 . S
C2179 C2180 1.383 . S
C2179 H2187 0.929 . S
C2180 C2179 1.383 . S
C2180 C2181 1.377 . S
C2181 H2165 0.930 . S
C2181 C2180 1.377 . S
C2181 C2182 1.379 . S
C2182 H2166 0.931 1_556 S
C2182 C2176 1.383 . S
C2182 C2181 1.379 . S
H2183 C2177 0.959 . S
H2184 C2177 0.961 . S
H2185 C2177 0.960 . S
H2186 C2178 0.930 . S
H2187 C2179 0.929 . S
H2188 C2196 0.929 . S
H2189 C2198 0.930 . S
H2190 C2200 0.930 . S
H2191 C2203 0.929 . S
H2192 C2206 0.930 . S
H2193 C2208 0.960 . S
H2194 C2208 0.960 . S
H2195 C2208 0.960 . S
C2196 H2188 0.929 . S
C2196 C2197 1.377 . S
C2196 C2198 1.384 . S
C2197 C2196 1.377 . S
C2197 C2203 1.390 . S
C2198 H2189 0.930 . S
C2198 C2196 1.384 . S
C2198 C2199 1.372 . S
C2199 C2198 1.372 . S
C2199 C2200 1.400 . S
C2199 C2204 1.490 . S
C2200 H2190 0.930 . S
C2200 C2199 1.400 . S
C2200 C2203 1.386 . S
H2201 C2217 0.930 . S
H2202 C2218 0.931 . S
C2203 H2191 0.929 . S
C2203 C2197 1.390 . S
C2203 C2200 1.386 . S
C2204 C2199 1.490 . S
C2204 C2206 1.395 . S
C2204 C2207 1.403 . S
H2205 C2211 0.930 . S
C2206 H2192 0.930 . S
C2206 C2204 1.395 . S
C2206 C2209 1.403 . S
C2207 C2204 1.403 . S
C2207 C2208 1.524 . S
C2207 C2211 1.400 . S
C2208 H2193 0.960 . S
C2208 H2194 0.960 . S
C2208 H2195 0.960 . S
C2208 C2207 1.524 . S
C2209 C2206 1.403 . S
C2209 C2210 1.392 . S
C2209 C2213 1.495 . S
C2210 C2209 1.392 . S
C2210 C2211 1.385 . S
C2210 C2212 1.478 . S
C2211 H2205 0.930 . S
C2211 C2207 1.400 . S
C2211 C2210 1.385 . S
C2212 C2210 1.478 . S
C2212 C2214 1.381 . S
C2212 C2218 1.383 . S
C2213 C2209 1.495 . S
C2213 H2219 0.959 . S
C2213 H2220 0.961 . S
C2213 H2221 0.960 . S
C2214 C2212 1.381 . S
C2214 C2215 1.394 . S
C2214 H2222 0.930 . S
C2215 C2214 1.394 . S
C2215 C2216 1.383 . S
C2215 H2223 0.929 . S
C2216 C2215 1.383 . S
C2216 C2217 1.377 . S
C2217 H2201 0.930 . S
C2217 C2216 1.377 . S
C2217 C2218 1.379 . S
C2218 H2202 0.931 . S
C2218 C2212 1.383 . S
C2218 C2217 1.379 . S
H2219 C2213 0.959 . S
H2220 C2213 0.961 . S
H2221 C2213 0.960 . S
H2222 C2214 0.930 . S
H2223 C2215 0.929 . S
H2224 C2232 0.929 . S
H2225 C2234 0.930 . S
H2226 C2236 0.930 . S
H2227 C2239 0.929 . S
H2228 C2242 0.930 . S
H2229 C2244 0.960 . S
H2230 C2244 0.960 . S
H2231 C2244 0.960 . S
C2232 H2224 0.929 . S
C2232 C2233 1.377 . S
C2232 C2234 1.384 . S
C2233 C2232 1.377 . S
C2233 C2239 1.390 . S
C2234 H2225 0.930 . S
C2234 C2232 1.384 . S
C2234 C2235 1.372 . S
C2235 C2234 1.372 . S
C2235 C2236 1.400 . S
C2235 C2240 1.490 . S
C2236 H2226 0.930 . S
C2236 C2235 1.400 . S
C2236 C2239 1.386 . S
H2237 C2253 0.930 . S
H2238 C2254 0.931 . S
C2239 H2227 0.929 . S
C2239 C2233 1.390 . S
C2239 C2236 1.386 . S
C2240 C2235 1.490 . S
C2240 C2242 1.395 . S
C2240 C2243 1.403 . S
H2241 C2247 0.930 . S
C2242 H2228 0.930 . S
C2242 C2240 1.395 . S
C2242 C2245 1.403 . S
C2243 C2240 1.403 . S
C2243 C2244 1.524 . S
C2243 C2247 1.400 . S
C2244 H2229 0.960 . S
C2244 H2230 0.960 . S
C2244 H2231 0.960 . S
C2244 C2243 1.524 . S
C2245 C2242 1.403 . S
C2245 C2246 1.392 . S
C2245 C2249 1.495 . S
C2246 C2245 1.392 . S
C2246 C2247 1.385 . S
C2246 C2248 1.478 . S
C2247 H2241 0.930 . S
C2247 C2243 1.400 . S
C2247 C2246 1.385 . S
C2248 C2246 1.478 . S
C2248 C2250 1.381 . S
C2248 C2254 1.383 . S
C2249 C2245 1.495 . S
C2249 H2255 0.959 . S
C2249 H2256 0.961 . S
C2249 H2257 0.960 . S
C2250 C2248 1.381 . S
C2250 C2251 1.394 . S
C2250 H2258 0.930 . S
C2251 C2250 1.394 . S
C2251 C2252 1.383 . S
C2251 H2259 0.929 . S
C2252 C2251 1.383 . S
C2252 C2253 1.377 . S
C2253 H2237 0.930 . S
C2253 C2252 1.377 . S
C2253 C2254 1.379 . S
C2254 H2238 0.931 . S
C2254 C2248 1.383 . S
C2254 C2253 1.379 . S
H2255 C2249 0.959 . S
H2256 C2249 0.961 . S
H2257 C2249 0.960 . S
H2258 C2250 0.930 . S
H2259 C2251 0.929 . S
H2260 C2268 0.929 . S
H2261 C2270 0.930 . S
H2262 C2272 0.930 . S
H2263 C2275 0.929 . S
H2264 C2278 0.930 . S
H2265 C2280 0.960 . S
H2266 C2280 0.960 . S
H2267 C2280 0.960 . S
C2268 H2260 0.929 . S
C2268 C2269 1.377 . S
C2268 C2270 1.384 . S
C2269 C2268 1.377 . S
C2269 C2275 1.390 . S
C2270 H2261 0.930 . S
C2270 C2268 1.384 . S
C2270 C2271 1.372 . S
C2271 C2270 1.372 . S
C2271 C2272 1.400 . S
C2271 C2276 1.490 . S
C2272 H2262 0.930 . S
C2272 C2271 1.400 . S
C2272 C2275 1.386 . S
H2273 C2289 0.930 . S
H2274 C2290 0.931 . S
C2275 H2263 0.929 . S
C2275 C2269 1.390 . S
C2275 C2272 1.386 . S
C2276 C2271 1.490 . S
C2276 C2278 1.395 . S
C2276 C2279 1.403 . S
H2277 C2283 0.930 . S
C2278 H2264 0.930 . S
C2278 C2276 1.395 . S
C2278 C2281 1.403 . S
C2279 C2276 1.403 . S
C2279 C2280 1.524 . S
C2279 C2283 1.400 . S
C2280 H2265 0.960 . S
C2280 H2266 0.960 . S
C2280 H2267 0.960 . S
C2280 C2279 1.524 . S
C2281 C2278 1.403 . S
C2281 C2282 1.392 . S
C2281 C2285 1.495 . S
C2282 C2281 1.392 . S
C2282 C2283 1.385 . S
C2282 C2284 1.478 . S
C2283 H2277 0.930 . S
C2283 C2279 1.400 . S
C2283 C2282 1.385 . S
C2284 C2282 1.478 . S
C2284 C2286 1.381 . S
C2284 C2290 1.383 . S
C2285 C2281 1.495 . S
C2285 H2291 0.959 . S
C2285 H2292 0.961 . S
C2285 H2293 0.960 . S
C2286 C2284 1.381 . S
C2286 C2287 1.394 . S
C2286 H2294 0.930 . S
C2287 C2286 1.394 . S
C2287 C2288 1.383 . S
C2287 H2295 0.929 . S
C2288 C2287 1.383 . S
C2288 C2289 1.377 . S
C2289 H2273 0.930 . S
C2289 C2288 1.377 . S
C2289 C2290 1.379 . S
C2290 H2274 0.931 . S
C2290 C2284 1.383 . S
C2290 C2289 1.379 . S
H2291 C2285 0.959 . S
H2292 C2285 0.961 . S
H2293 C2285 0.960 . S
H2294 C2286 0.930 . S
H2295 C2287 0.929 . S
H2296 C2304 0.929 . S
H2297 C2306 0.930 . S
H2298 C2308 0.930 . S
H2299 C2311 0.929 . S
H2300 C2314 0.930 . S
H2301 C2316 0.960 . S
H2302 C2316 0.960 . S
H2303 C2316 0.960 . S
C2304 H2296 0.929 . S
C2304 C2305 1.377 . S
C2304 C2306 1.384 . S
C2305 C2304 1.377 . S
C2305 C2311 1.390 . S
C2306 H2297 0.930 . S
C2306 C2304 1.384 . S
C2306 C2307 1.372 . S
C2307 C2306 1.372 . S
C2307 C2308 1.400 . S
C2307 C2312 1.490 . S
C2308 H2298 0.930 . S
C2308 C2307 1.400 . S
C2308 C2311 1.386 . S
H2309 C2325 0.930 . S
H2310 C2326 0.931 . S
C2311 H2299 0.929 . S
C2311 C2305 1.390 . S
C2311 C2308 1.386 . S
C2312 C2307 1.490 . S
C2312 C2314 1.395 . S
C2312 C2315 1.403 . S
H2313 C2319 0.930 . S
C2314 H2300 0.930 . S
C2314 C2312 1.395 . S
C2314 C2317 1.403 . S
C2315 C2312 1.403 . S
C2315 C2316 1.524 . S
C2315 C2319 1.400 . S
C2316 H2301 0.960 . S
C2316 H2302 0.960 . S
C2316 H2303 0.960 . S
C2316 C2315 1.524 . S
C2317 C2314 1.403 . S
C2317 C2318 1.392 . S
C2317 C2321 1.495 . S
C2318 C2317 1.392 . S
C2318 C2319 1.385 . S
C2318 C2320 1.478 . S
C2319 H2313 0.930 . S
C2319 C2315 1.400 . S
C2319 C2318 1.385 . S
C2320 C2318 1.478 . S
C2320 C2322 1.381 . S
C2320 C2326 1.383 . S
C2321 C2317 1.495 . S
C2321 H2327 0.959 . S
C2321 H2328 0.961 . S
C2321 H2329 0.960 . S
C2322 C2320 1.381 . S
C2322 C2323 1.394 . S
C2322 H2330 0.930 . S
C2323 C2322 1.394 . S
C2323 C2324 1.383 . S
C2323 H2331 0.929 . S
C2324 C2323 1.383 . S
C2324 C2325 1.377 . S
C2325 H2309 0.930 . S
C2325 C2324 1.377 . S
C2325 C2326 1.379 . S
C2326 H2310 0.931 . S
C2326 C2320 1.383 . S
C2326 C2325 1.379 . S
H2327 C2321 0.959 . S
H2328 C2321 0.961 . S
H2329 C2321 0.960 . S
H2330 C2322 0.930 . S
H2331 C2323 0.929 . S
H2332 C2340 0.929 . S
H2333 C2342 0.930 . S
H2334 C2344 0.930 . S
H2335 C2347 0.929 . S
H2336 C2350 0.930 . S
H2337 C2352 0.960 . S
H2338 C2352 0.960 . S
H2339 C2352 0.960 . S
C2340 H2332 0.929 . S
C2340 C2341 1.377 . S
C2340 C2342 1.384 . S
C2341 C2340 1.377 . S
C2341 C2347 1.390 . S
C2342 H2333 0.930 . S
C2342 C2340 1.384 . S
C2342 C2343 1.372 . S
C2343 C2342 1.372 . S
C2343 C2344 1.400 . S
C2343 C2348 1.490 . S
C2344 H2334 0.930 . S
C2344 C2343 1.400 . S
C2344 C2347 1.386 . S
H2345 C2361 0.930 . S
H2346 C2362 0.931 . S
C2347 H2335 0.929 . S
C2347 C2341 1.390 . S
C2347 C2344 1.386 . S
C2348 C2343 1.490 . S
C2348 C2350 1.395 . S
C2348 C2351 1.403 . S
H2349 C2355 0.930 . S
C2350 H2336 0.930 . S
C2350 C2348 1.395 . S
C2350 C2353 1.403 . S
C2351 C2348 1.403 . S
C2351 C2352 1.524 . S
C2351 C2355 1.400 . S
C2352 H2337 0.960 . S
C2352 H2338 0.960 . S
C2352 H2339 0.960 . S
C2352 C2351 1.524 . S
C2353 C2350 1.403 . S
C2353 C2354 1.392 . S
C2353 C2357 1.495 . S
C2354 C2353 1.392 . S
C2354 C2355 1.385 . S
C2354 C2356 1.478 . S
C2355 H2349 0.930 . S
C2355 C2351 1.400 . S
C2355 C2354 1.385 . S
C2356 C2354 1.478 . S
C2356 C2358 1.381 . S
C2356 C2362 1.383 . S
C2357 C2353 1.495 . S
C2357 H2363 0.959 . S
C2357 H2364 0.961 . S
C2357 H2365 0.960 . S
C2358 C2356 1.381 . S
C2358 C2359 1.394 . S
C2358 H2366 0.930 . S
C2359 C2358 1.394 . S
C2359 C2360 1.383 . S
C2359 H2367 0.929 . S
C2360 C2359 1.383 . S
C2360 C2361 1.377 . S
C2361 H2345 0.930 . S
C2361 C2360 1.377 . S
C2361 C2362 1.379 . S
C2362 H2346 0.931 . S
C2362 C2356 1.383 . S
C2362 C2361 1.379 . S
H2363 C2357 0.959 . S
H2364 C2357 0.961 . S
H2365 C2357 0.960 . S
H2366 C2358 0.930 . S
H2367 C2359 0.929 . S
C649 C19 0.915 . S
C668 C55 0.936 . S
C685 C99 1.767 . S
C704 C50 1.741 . S
C721 C130 2.037 . S
C740 C98 2.035 . S
C757 C18 0.992 . S
C776 C135 0.986 . S
C793 C9 0.992 . S
C812 C366 0.995 . S
C829 C290 0.912 . S
C848 C46 0.890 . S
C865 C90 1.770 . S
C884 C419 1.732 . S
C901 C139 2.039 . S
C920 C529 2.039 . S
C937 C330 1.770 . S
C956 C59 1.733 . S
C973 C499 2.037 . S
C992 C89 2.015 . S
C1009 C569 0.999 . S
C1028 C126 1.025 . S
C1045 C10 0.913 . S
C1064 C446 0.910 . S
C1081 C15 0.680 . S
C1100 C326 0.675 . S
C1117 C498 1.439 . S
C1136 C169 1.415 . S
C1153 C215 0.633 . S
C1172 C566 0.681 . S
C1189 C449 1.437 . S
C1208 C258 1.449 . S
C1225 C95 0.631 . S
C1244 C286 0.697 . S
C1261 C369 1.432 . S
C1280 C178 1.450 . S
C1297 C249 1.436 . S
C1316 C418 1.462 . S
C1333 C210 1.770 . S
C1352 C459 1.736 . S
C1369 C379 2.037 . S
C1388 C209 2.031 . S
C1405 C455 0.909 . S
C1424 C299 0.914 . S
C1441 C219 1.769 . S
C1460 C170 1.749 . S
C1477 C370 2.042 . S
C1496 C338 2.016 . S
C1513 C539 1.769 . S
C1532 C450 1.743 . S
C1549 C250 2.036 . S
C1568 C218 2.042 . S
C1585 C375 0.984 . S
C1604 C578 1.016 . S
C1621 C535 0.638 . S
C1640 C6 0.682 . S
C1657 C86 0.630 . S
C1676 C575 0.676 . S
C1693 C489 1.441 . S
C1712 C58 1.448 . S
C1729 C295 0.680 . S
C1748 C206 0.654 . S
C1765 C138 1.440 . S
C1784 C409 1.415 . S
C1801 C490 2.038 . S
C1820 C538 2.043 . S
C1837 C298 0.995 . S
C1856 C495 1.001 . S
C1873 C246 0.998 . S
C1892 C289 1.010 . S
C1909 C179 1.743 . S
C1928 C530 1.764 . S
C1945 C486 0.985 . S
C1964 C609 0.985 . S
C1981 C606 0.672 . S
C2000 C335 0.668 . S
C2017 C49 1.441 . S
C2036 C378 1.459 . S
C2053 C329 2.037 . S
C2072 C259 2.050 . S
C2089 C339 1.767 . S
C2108 C410 1.745 . S
C2125 C618 0.987 . S
C2144 C255 1.025 . S
C2161 C526 0.635 . S
C2180 C615 0.668 . S
C2197 C458 1.447 . S
C2216 C129 1.426 . S
C2233 C415 0.901 . S
C2252 C579 0.904 . S
C2269 C406 0.910 . S
C2288 C610 0.918 . S
C2305 C166 0.895 . S
C2324 C570 0.907 . S
C2341 C619 0.913 . S
C2360 C175 0.868 . S
