# Generated by pormake.
# Topology crs, (6)-cn, num edge types: 1
# Building blocks:
#     Node 0, Type 0, BuildingBlock: NUHQIS_clean_sbu_0, # of connection points: 6
#     Node 1, Type 0, BuildingBlock: NUHQIS_clean_sbu_0, # of connection points: 6
#     Node 2, Type 0, BuildingBlock: NUHQIS_clean_sbu_0, # of connection points: 6
#     Node 3, Type 0, BuildingBlock: NUHQIS_clean_sbu_0, # of connection points: 6
#     Node 4, Type 0, BuildingBlock: NUHQIS_clean_sbu_0, # of connection points: 6
#     Node 5, Type 0, BuildingBlock: NUHQIS_clean_sbu_0, # of connection points: 6
#     Node 6, Type 0, BuildingBlock: NUHQIS_clean_sbu_0, # of connection points: 6
#     Node 7, Type 0, BuildingBlock: NUHQIS_clean_sbu_0, # of connection points: 6
#     Node 8, Type 0, BuildingBlock: NUHQIS_clean_sbu_0, # of connection points: 6
#     Node 9, Type 0, BuildingBlock: NUHQIS_clean_sbu_0, # of connection points: 6
#     Node 10, Type 0, BuildingBlock: NUHQIS_clean_sbu_0, # of connection points: 6
#     Node 11, Type 0, BuildingBlock: NUHQIS_clean_sbu_0, # of connection points: 6
#     Node 12, Type 0, BuildingBlock: NUHQIS_clean_sbu_0, # of connection points: 6
#     Node 13, Type 0, BuildingBlock: NUHQIS_clean_sbu_0, # of connection points: 6
#     Node 14, Type 0, BuildingBlock: NUHQIS_clean_sbu_0, # of connection points: 6
#     Node 15, Type 0, BuildingBlock: NUHQIS_clean_sbu_0, # of connection points: 6
#     Edge 16, Type (0, 0), BuildingBlock: OJICUG_clean_linker_0, # of connection points: 2
#     Edge 17, Type (0, 0), BuildingBlock: OJICUG_clean_linker_0, # of connection points: 2
#     Edge 18, Type (0, 0), BuildingBlock: OJICUG_clean_linker_0, # of connection points: 2
#     Edge 19, Type (0, 0), BuildingBlock: OJICUG_clean_linker_0, # of connection points: 2
#     Edge 20, Type (0, 0), BuildingBlock: OJICUG_clean_linker_0, # of connection points: 2
#     Edge 21, Type (0, 0), BuildingBlock: OJICUG_clean_linker_0, # of connection points: 2
#     Edge 22, Type (0, 0), BuildingBlock: OJICUG_clean_linker_0, # of connection points: 2
#     Edge 23, Type (0, 0), BuildingBlock: OJICUG_clean_linker_0, # of connection points: 2
#     Edge 24, Type (0, 0), BuildingBlock: OJICUG_clean_linker_0, # of connection points: 2
#     Edge 25, Type (0, 0), BuildingBlock: OJICUG_clean_linker_0, # of connection points: 2
#     Edge 26, Type (0, 0), BuildingBlock: OJICUG_clean_linker_0, # of connection points: 2
#     Edge 27, Type (0, 0), BuildingBlock: OJICUG_clean_linker_0, # of connection points: 2
#     Edge 28, Type (0, 0), BuildingBlock: OJICUG_clean_linker_0, # of connection points: 2
#     Edge 29, Type (0, 0), BuildingBlock: OJICUG_clean_linker_0, # of connection points: 2
#     Edge 30, Type (0, 0), BuildingBlock: OJICUG_clean_linker_0, # of connection points: 2
#     Edge 31, Type (0, 0), BuildingBlock: OJICUG_clean_linker_0, # of connection points: 2
#     Edge 32, Type (0, 0), BuildingBlock: OJICUG_clean_linker_0, # of connection points: 2
#     Edge 33, Type (0, 0), BuildingBlock: OJICUG_clean_linker_0, # of connection points: 2
#     Edge 34, Type (0, 0), BuildingBlock: OJICUG_clean_linker_0, # of connection points: 2
#     Edge 35, Type (0, 0), BuildingBlock: OJICUG_clean_linker_0, # of connection points: 2
#     Edge 36, Type (0, 0), BuildingBlock: OJICUG_clean_linker_0, # of connection points: 2
#     Edge 37, Type (0, 0), BuildingBlock: OJICUG_clean_linker_0, # of connection points: 2
#     Edge 38, Type (0, 0), BuildingBlock: OJICUG_clean_linker_0, # of connection points: 2
#     Edge 39, Type (0, 0), BuildingBlock: OJICUG_clean_linker_0, # of connection points: 2
#     Edge 40, Type (0, 0), BuildingBlock: OJICUG_clean_linker_0, # of connection points: 2
#     Edge 41, Type (0, 0), BuildingBlock: OJICUG_clean_linker_0, # of connection points: 2
#     Edge 42, Type (0, 0), BuildingBlock: OJICUG_clean_linker_0, # of connection points: 2
#     Edge 43, Type (0, 0), BuildingBlock: OJICUG_clean_linker_0, # of connection points: 2
#     Edge 44, Type (0, 0), BuildingBlock: OJICUG_clean_linker_0, # of connection points: 2
#     Edge 45, Type (0, 0), BuildingBlock: OJICUG_clean_linker_0, # of connection points: 2
#     Edge 46, Type (0, 0), BuildingBlock: OJICUG_clean_linker_0, # of connection points: 2
#     Edge 47, Type (0, 0), BuildingBlock: OJICUG_clean_linker_0, # of connection points: 2
#     Edge 48, Type (0, 0), BuildingBlock: OJICUG_clean_linker_0, # of connection points: 2
#     Edge 49, Type (0, 0), BuildingBlock: OJICUG_clean_linker_0, # of connection points: 2
#     Edge 50, Type (0, 0), BuildingBlock: OJICUG_clean_linker_0, # of connection points: 2
#     Edge 51, Type (0, 0), BuildingBlock: OJICUG_clean_linker_0, # of connection points: 2
#     Edge 52, Type (0, 0), BuildingBlock: OJICUG_clean_linker_0, # of connection points: 2
#     Edge 53, Type (0, 0), BuildingBlock: OJICUG_clean_linker_0, # of connection points: 2
#     Edge 54, Type (0, 0), BuildingBlock: OJICUG_clean_linker_0, # of connection points: 2
#     Edge 55, Type (0, 0), BuildingBlock: OJICUG_clean_linker_0, # of connection points: 2
#     Edge 56, Type (0, 0), BuildingBlock: OJICUG_clean_linker_0, # of connection points: 2
#     Edge 57, Type (0, 0), BuildingBlock: OJICUG_clean_linker_0, # of connection points: 2
#     Edge 58, Type (0, 0), BuildingBlock: OJICUG_clean_linker_0, # of connection points: 2
#     Edge 59, Type (0, 0), BuildingBlock: OJICUG_clean_linker_0, # of connection points: 2
#     Edge 60, Type (0, 0), BuildingBlock: OJICUG_clean_linker_0, # of connection points: 2
#     Edge 61, Type (0, 0), BuildingBlock: OJICUG_clean_linker_0, # of connection points: 2
#     Edge 62, Type (0, 0), BuildingBlock: OJICUG_clean_linker_0, # of connection points: 2
#     Edge 63, Type (0, 0), BuildingBlock: OJICUG_clean_linker_0, # of connection points: 2
# Relax obj value: 0.563
# Max RMSD: 0.396
# Mean RMSD: 0.339
data_MOF--net-crs--node1-NUHQIS_clean_sbu_0--edge1-OJICUG_clean_linker_0
_symmetry_space_group_name_H-M    P1
_symmetry_Int_Tables_number       1
_symmetry_cell_setting            triclinic
loop_
_symmetry_equiv_pos_as_xyz
'x, y, z'
_cell_length_a     42.488902
_cell_length_b     45.271008
_cell_length_c     33.058622
_cell_angle_alpha  68.750906
_cell_angle_beta   69.943619
_cell_angle_gamma 60.08517
loop_
_atom_site_label
_atom_site_type_symbol
_atom_site_fract_x
_atom_site_fract_y
_atom_site_fract_z
_atom_type_partial_charge
Tb0 Tb -0.04614 1.00647 0.07734 0.0
Eu1 Eu -0.03497 0.06087 0.9806 0.0
C2 C 0.02249 1.02327 0.04461 0.0
C3 C 0.93583 0.08508 0.07223 0.0
C4 C 0.93296 0.93459 0.15053 0.0
C5 C 0.8938 0.90429 0.19203 0.0
C6 C 0.9114 0.92396 0.19042 0.0
C7 C 0.93803 0.92411 0.1128 0.0
C8 C 0.9206 0.90449 0.11437 0.0
C9 C 0.89746 0.89517 0.15367 0.0
C10 C 0.94493 0.96115 0.14588 0.0
O11 O 0.90862 1.02116 0.04764 0.0
O12 O 0.90413 0.07459 1.00223 0.0
O13 O -0.03716 1.0176 0.96579 0.0
O14 O -0.01485 0.9761 1.02613 0.0
C15 C 0.88975 0.0521 1.02457 0.0
O16 O 0.9467 0.11224 0.9349 0.0
O17 O -0.00085 0.07023 0.91507 0.0
O18 O 0.01955 1.0303 1.0036 0.0
O19 O -0.00274 1.01744 0.0783 0.0
O20 O 0.92872 0.05748 0.09415 0.0
O21 O -0.04586 0.08851 0.03112 0.0
C22 C -0.02289 0.98473 0.98709 0.0
O23 O -0.0227 0.95752 0.12039 0.0
O24 O 0.91974 0.99328 0.137 0.0
C25 C -0.00244 0.12524 0.90173 0.0
C26 C 0.02953 0.16803 0.89688 0.0
C27 C 0.01688 0.17196 0.86026 0.0
C28 C 0.00062 0.15077 0.86283 0.0
C29 C 0.01114 0.1208 0.93766 0.0
C30 C 0.02684 0.14203 0.93534 0.0
C31 C -0.02139 0.10404 0.90736 0.0
H32 H 0.87639 0.89718 0.22289 0.0
H33 H 0.9068 0.93222 0.21968 0.0
H34 H -0.04611 0.93268 0.08141 0.0
H35 H 0.92355 0.89844 0.08405 0.0
H36 H 0.01886 0.19184 0.83022 0.0
H37 H -0.0099 0.15455 0.8349 0.0
H38 H 0.00915 0.1011 0.96791 0.0
H39 H 0.03703 0.13801 0.96368 0.0
Tb40 Tb -0.03027 0.29694 0.30376 0.0
Eu41 Eu 0.93408 0.28685 0.23661 0.0
C42 C 0.00034 0.22239 0.28397 0.0
C43 C 0.00172 0.30652 0.20182 0.0
C44 C -0.00726 0.33326 0.37091 0.0
C45 C 0.00329 0.3471 0.42831 0.0
C46 C 0.00545 0.32249 0.41008 0.0
C47 C -0.02298 0.36925 0.3507 0.0
C48 C -0.02487 0.39388 0.36873 0.0
C49 C -0.01139 0.38305 0.40751 0.0
C50 C -0.00045 0.30645 0.34955 0.0
O51 O 0.93065 0.35037 0.27893 0.0
O52 O 0.8962 0.34119 0.24749 0.0
O53 O 0.91304 0.26352 0.30737 0.0
O54 O 0.91619 0.298 0.34088 0.0
C55 C 0.90159 0.36145 0.26208 0.0
O56 O 0.93899 0.27722 0.17428 0.0
O57 O 0.8883 0.28443 0.22373 0.0
O58 O -0.01475 0.23683 0.2489 0.0
O59 O -0.00773 0.24011 0.31309 0.0
O60 O 0.00889 0.28994 0.24157 0.0
O61 O -0.03014 0.31498 0.19348 0.0
C62 C 0.90239 0.27771 0.34089 0.0
O63 O -0.02149 0.2898 0.36656 0.0
O64 O 0.00567 0.3148 0.30642 0.0
C65 C 0.90561 0.24753 0.1767 0.0
C66 C 0.90752 0.19339 0.15123 0.0
C67 C 0.88299 0.22856 0.13699 0.0
C68 C 0.88209 0.25532 0.1496 0.0
C69 C 0.92907 0.21239 0.19265 0.0
C70 C 0.92995 0.18548 0.18009 0.0
C71 C 0.90673 0.27657 0.18558 0.0
H72 H 0.01413 0.33785 0.45804 0.0
H73 H 0.01798 0.29488 0.426 0.0
H74 H -0.03307 0.37829 0.32044 0.0
H75 H -0.03688 0.4214 0.35231 0.0
H76 H 0.86504 0.23547 0.1152 0.0
H77 H 0.86369 0.28227 0.13714 0.0
H78 H 0.94746 0.2059 0.21366 0.0
H79 H 0.94934 0.15871 0.19132 0.0
Tb80 Tb 0.7174 0.29548 0.56303 0.0
Eu81 Eu 0.69343 0.2817 0.48878 0.0
C82 C 0.63446 0.30739 0.57476 0.0
C83 C 0.71125 0.22442 0.57948 0.0
C84 C 0.75707 0.32008 0.62468 0.0
C85 C 0.7911 0.32458 0.66628 0.0
C86 C 0.77181 0.30852 0.66245 0.0
C87 C 0.76183 0.34786 0.59055 0.0
C88 C 0.78101 0.36406 0.59441 0.0
C89 C 0.79593 0.35256 0.63232 0.0
C90 C 0.73726 0.30247 0.62152 0.0
O91 O 0.76207 0.29318 0.50551 0.0
O92 O 0.75589 0.25889 0.47493 0.0
O93 O 0.70051 0.3318 0.45712 0.0
O94 O 0.69774 0.34763 0.51743 0.0
C95 C 0.77518 0.27312 0.47786 0.0
O96 O 0.70271 0.24691 0.45021 0.0
O97 O 0.66227 0.30123 0.43705 0.0
O98 O 0.63916 0.30791 0.53313 0.0
O99 O 0.66218 0.29832 0.59266 0.0
O100 O 0.73053 0.23931 0.58123 0.0
O101 O 0.69024 0.23898 0.55001 0.0
C102 C 0.69727 0.35502 0.47507 0.0
O103 O 0.70504 0.32258 0.61026 0.0
O104 O 0.75707 0.27706 0.60102 0.0
C105 C 0.65248 0.26011 0.42117 0.0
C106 C 0.60611 0.2383 0.40776 0.0
C107 C 0.63274 0.24634 0.37237 0.0
C108 C 0.65572 0.25716 0.37908 0.0
C109 C 0.62573 0.25257 0.4566 0.0
C110 C 0.60265 0.24176 0.44993 0.0
C111 C 0.67747 0.27089 0.42728 0.0
H112 H 0.80269 0.31474 0.69555 0.0
H113 H 0.76853 0.28692 0.68895 0.0
H114 H 0.75066 0.35703 0.56108 0.0
H115 H 0.78382 0.38583 0.5679 0.0
H116 H 0.63578 0.24433 0.33945 0.0
H117 H 0.67618 0.26307 0.35138 0.0
H118 H 0.62298 0.25474 0.48935 0.0
H119 H 0.58271 0.23533 0.47795 0.0
Tb120 Tb 0.69761 1.02917 0.74743 0.0
Eu121 Eu 0.71073 0.05611 0.81689 0.0
C122 C 0.77477 0.9943 0.77364 0.0
C123 C 0.69618 0.98676 0.85105 0.0
C124 C 0.67752 1.00625 0.66217 0.0
C125 C 0.66878 0.98052 0.61661 0.0
C126 C 0.6893 0.97829 0.64347 0.0
C127 C 0.64609 1.03726 0.6522 0.0
C128 C 0.6256 1.0396 0.62506 0.0
C129 C 0.63629 1.01085 0.60808 0.0
C130 C 0.6965 1.00078 0.69526 0.0
O131 O 0.64096 0.06789 0.7665 0.0
O132 O 0.65229 0.09111 0.80873 0.0
O133 O 0.72612 0.08606 0.74695 0.0
O134 O 0.69139 0.08214 0.71104 0.0
C135 C 0.62998 0.09079 0.78989 0.0
O136 O 0.68958 0.07838 0.87439 0.0
O137 O 0.74281 0.07476 0.8316 0.0
O138 O 0.7603 1.00468 0.81072 0.0
O139 O 0.75692 1.01078 0.74088 0.0
O140 O 0.69899 0.98863 0.80933 0.0
O141 O 0.69673 1.0113 0.8628 0.0
C142 C 0.70976 0.09758 0.71339 0.0
O143 O 0.7163 1.01804 0.68467 0.0
O144 O 0.67726 1.00011 0.73564 0.0
C145 C 0.73298 0.07654 0.90539 0.0
C146 C 0.76876 0.06847 0.96815 0.0
C147 C 0.73727 0.09949 0.95795 0.0
C148 C 0.7195 0.10349 0.92664 0.0
C149 C 0.76239 0.04441 0.91816 0.0
C150 C 0.78021 0.04037 0.94948 0.0
C151 C 0.7185 0.08406 0.86701 0.0
H152 H 0.67766 0.95817 0.6036 0.0
H153 H 0.71359 0.95418 0.65107 0.0
H154 H 0.63668 0.05895 0.66675 0.0
H155 H 0.6004 0.06315 0.61928 0.0
H156 H 0.72775 0.12134 0.97224 0.0
H157 H 0.69654 0.12835 0.9172 0.0
H158 H 0.77288 1.02331 0.90208 0.0
H159 H 0.80465 1.01627 0.95645 0.0
Tb160 Tb 0.46939 0.79667 0.30749 0.0
Eu161 Eu 0.43511 0.78795 0.23776 0.0
C162 C 0.50019 0.72256 0.28638 0.0
C163 C 0.50228 0.80765 0.20641 0.0
C164 C 0.49155 0.83225 0.3763 0.0
C165 C 0.5025 0.8461 0.43335 0.0
C166 C 0.50492 0.82145 0.41497 0.0
C167 C 0.47495 0.86828 0.35669 0.0
C168 C 0.47277 0.89297 0.37488 0.0
C169 C 0.48686 0.88213 0.4132 0.0
C170 C 0.49857 0.80551 0.35473 0.0
O171 O 0.43086 0.85036 0.2822 0.0
O172 O 0.39665 0.84163 0.24987 0.0
O173 O 0.41101 0.76566 0.30768 0.0
O174 O 0.41554 0.79798 0.34346 0.0
C175 C 0.40201 0.86168 0.26481 0.0
O176 O 0.44157 0.78246 0.17211 0.0
O177 O 0.39168 0.78442 0.22123 0.0
O178 O 0.48577 0.73746 0.25073 0.0
O179 O 0.49161 0.73993 0.31613 0.0
O180 O 0.50932 0.78972 0.2459 0.0
O181 O 0.47024 0.81722 0.19775 0.0
C182 C 0.40084 0.77891 0.34202 0.0
O183 O 0.47712 0.78929 0.37096 0.0
O184 O 0.50541 0.81381 0.31158 0.0
C185 C 0.41221 0.75153 0.16742 0.0
C186 C 0.41597 0.69871 0.13706 0.0
C187 C 0.40667 0.69736 0.18272 0.0
C188 C 0.40488 0.72347 0.19778 0.0
C189 C 0.42139 0.75298 0.12198 0.0
C190 C 0.42338 0.72686 0.10694 0.0
C191 C 0.41063 0.7796 0.18183 0.0
H192 H 0.51383 0.83684 0.46269 0.0
H193 H 0.51815 0.79381 0.43039 0.0
H194 H 0.46438 0.87731 0.3268 0.0
H195 H 0.46003 0.92054 0.35897 0.0
H196 H 0.40043 0.67628 0.20685 0.0
H197 H 0.39779 0.72169 0.23307 0.0
H198 H 0.42729 0.77432 0.09799 0.0
H199 H 0.43134 0.72847 0.07165 0.0
Tb200 Tb 0.21528 0.79673 0.56432 0.0
Eu201 Eu 0.1918 0.78243 0.49012 0.0
C202 C 0.13247 0.8072 0.57727 0.0
C203 C 0.20942 0.72533 0.58082 0.0
C204 C 0.25615 0.81899 0.62745 0.0
C205 C 0.29037 0.8214 0.67077 0.0
C206 C 0.2702 0.80668 0.66592 0.0
C207 C 0.26248 0.84615 0.5936 0.0
C208 C 0.28254 0.86102 0.59846 0.0
C209 C 0.29675 0.84876 0.63712 0.0
C210 C 0.23547 0.80271 0.62328 0.0
O211 O 0.26011 0.79438 0.50678 0.0
O212 O 0.25422 0.75975 0.47651 0.0
O213 O 0.19738 0.83327 0.45866 0.0
O214 O 0.1971 0.84874 0.51792 0.0
C215 C 0.27331 0.77432 0.47908 0.0
O216 O 0.20189 0.74786 0.45072 0.0
O217 O 0.16076 0.80199 0.43833 0.0
O218 O 0.13755 0.80587 0.53628 0.0
O219 O 0.15949 0.80101 0.59434 0.0
O220 O 0.2283 0.74055 0.58272 0.0
O221 O 0.18889 0.73941 0.55094 0.0
C222 C 0.1955 0.85623 0.4759 0.0
O223 O 0.20369 0.82382 0.6112 0.0
O224 O 0.25476 0.77722 0.60292 0.0
C225 C 0.1526 0.76097 0.41992 0.0
C226 C 0.10764 0.73947 0.40289 0.0
C227 C 0.13553 0.74667 0.36902 0.0
C228 C 0.1578 0.75734 0.37752 0.0
C229 C 0.12464 0.75421 0.45385 0.0
C230 C 0.10224 0.74355 0.44537 0.0
C231 C 0.17671 0.77189 0.42771 0.0
H232 H 0.30136 0.81105 0.7006 0.0
H233 H 0.2657 0.78551 0.6922 0.0
H234 H 0.25186 0.85585 0.56359 0.0
H235 H 0.28656 0.88238 0.57219 0.0
H236 H 0.14007 0.74413 0.3359 0.0
H237 H 0.17922 0.76267 0.35095 0.0
H238 H 0.12037 0.75691 0.48681 0.0
H239 H 0.08128 0.73776 0.47226 0.0
Tb240 Tb 0.19787 0.52899 0.74701 0.0
Eu241 Eu 0.20969 0.55574 0.81797 0.0
C242 C 0.27493 0.49538 0.77312 0.0
C243 C 0.19565 0.4864 0.84988 0.0
C244 C 0.17877 0.50638 0.66049 0.0
C245 C 0.17084 0.48072 0.61407 0.0
C246 C 0.1909 0.47846 0.64153 0.0
C247 C 0.14736 0.53734 0.65029 0.0
C248 C 0.12733 0.53972 0.62254 0.0
C249 C 0.13844 0.51104 0.60516 0.0
C250 C 0.19757 0.50097 0.69376 0.0
O251 O 0.14065 0.5659 0.76805 0.0
O252 O 0.15229 0.59169 0.80653 0.0
O253 O 0.2246 0.58698 0.74871 0.0
O254 O 0.19126 0.58222 0.71152 0.0
C255 C 0.12972 0.58994 0.78962 0.0
O256 O 0.18724 0.57649 0.87687 0.0
O257 O 0.24055 0.57398 0.83587 0.0
O258 O 0.26024 0.50499 0.81073 0.0
O259 O 0.25688 0.512 0.74054 0.0
O260 O 0.20153 0.48724 0.80778 0.0
O261 O 0.1934 0.51199 0.86227 0.0
C262 C 0.20889 0.59811 0.71461 0.0
O263 O 0.21668 0.51882 0.68368 0.0
O264 O 0.17852 0.49954 0.73425 0.0
C265 C 0.23072 0.57044 0.91138 0.0
C266 C 0.27145 0.55185 0.97447 0.0
C267 C 0.24599 0.58678 0.96161 0.0
C268 C 0.22581 0.59601 0.93005 0.0
C269 C 0.25286 0.53504 0.92763 0.0
C270 C 0.27305 0.52574 0.9593 0.0
C271 C 0.21604 0.58166 0.87183 0.0
H272 H 0.18006 0.45843 0.60077 0.0
H273 H 0.21518 0.45438 0.64927 0.0
H274 H 0.13767 0.55901 0.66502 0.0
H275 H 0.10218 0.56326 0.61648 0.0
H276 H 0.24439 0.60749 0.97241 0.0
H277 H 0.20847 0.62344 0.9179 0.0
H278 H 0.25645 0.515 0.91369 0.0
H279 H 0.29225 0.49858 0.96908 0.0
Tb280 Tb 0.9526 0.51529 0.5678 0.0
Eu281 Eu -0.03047 0.56398 0.4677 0.0
C282 C 0.02815 0.52171 0.53179 0.0
C283 C 0.94246 0.59062 0.55706 0.0
C284 C 0.91006 0.46044 0.64427 0.0
C285 C 0.89088 0.41308 0.67933 0.0
C286 C 0.90994 0.43119 0.67881 0.0
C287 C 0.89045 0.47174 0.61091 0.0
C288 C 0.87169 0.45378 0.61127 0.0
C289 C 0.87225 0.42388 0.64497 0.0
C290 C 0.93356 0.47732 0.63907 0.0
O291 O 0.90071 0.55081 0.5449 0.0
O292 O 0.92171 0.55523 0.47062 0.0
O293 O -0.00729 0.50942 0.45764 0.0
O294 O -0.04083 0.48766 0.52157 0.0
C295 C 0.89603 0.55407 0.50613 0.0
O296 O 0.9489 0.61184 0.41702 0.0
O297 O 0.00707 0.57533 0.40646 0.0
O298 O 0.01367 0.55017 0.50202 0.0
O299 O 0.01169 0.50082 0.55434 0.0
O300 O -0.04528 0.55805 0.58045 0.0
O301 O 0.93709 0.59844 0.51684 0.0
C302 C -0.02007 0.48582 0.48178 0.0
O303 O -0.03446 0.4659 0.61239 0.0
O304 O 0.9173 0.51152 0.63029 0.0
C305 C -0.00697 0.63484 0.38808 0.0
C306 C 0.02372 0.67893 0.38314 0.0
C307 C 0.03018 0.6671 0.3458 0.0
C308 C 0.01496 0.64511 0.34831 0.0
C309 C -0.01463 0.64777 0.42472 0.0
C310 C 0.0004 0.66968 0.42226 0.0
C311 C -0.01774 0.60713 0.39403 0.0
H312 H 0.89181 0.39 0.70562 0.0
H313 H 0.92535 0.42182 0.7045 0.0
H314 H 0.89052 0.49396 0.58367 0.0
H315 H 0.85712 0.46306 0.58474 0.0
H316 H 0.04785 0.67401 0.31511 0.0
H317 H 0.02148 0.63505 0.31988 0.0
H318 H -0.03084 0.63957 0.45602 0.0
H319 H -0.00461 0.67769 0.45188 0.0
Tb320 Tb 0.2164 0.2959 0.06296 0.0
Eu321 Eu 0.19404 0.28149 0.98815 0.0
C322 C 0.13375 0.30691 0.07355 0.0
C323 C 0.21137 0.22452 0.07911 0.0
C324 C 0.2547 0.31935 0.12769 0.0
C325 C 0.28655 0.32349 0.17239 0.0
C326 C 0.26678 0.30848 0.16728 0.0
C327 C 0.26244 0.34545 0.09311 0.0
C328 C 0.28211 0.36059 0.09823 0.0
C329 C 0.29452 0.34966 0.13789 0.0
C330 C 0.23487 0.30248 0.12298 0.0
O331 O 0.26162 0.29388 1.00597 0.0
O332 O 0.2564 0.25911 0.97522 0.0
O333 O 0.20005 0.33213 0.95687 0.0
O334 O 0.1976 0.34797 1.01701 0.0
C335 C 0.27519 0.27381 0.97819 0.0
O336 O 0.20481 0.24669 0.94885 0.0
O337 O 0.16359 0.3007 0.93575 0.0
O338 O 0.13906 0.30684 0.03203 0.0
O339 O 0.161 0.2988 0.09168 0.0
O340 O 0.23054 0.2396 0.08054 0.0
O341 O 0.19061 0.23876 0.04943 0.0
C342 C 0.19693 0.35535 0.97472 0.0
O343 O 0.20325 0.32315 0.11035 0.0
O344 O 0.25496 0.27704 0.10256 0.0
C345 C 0.15448 0.2589 0.92076 0.0
C346 C 0.1081 0.23644 0.90877 0.0
C347 C 0.12397 0.25654 0.87278 0.0
C348 C 0.14701 0.26767 0.87879 0.0
C349 C 0.13836 0.23931 0.95694 0.0
C350 C 0.11545 0.22805 0.95096 0.0
C351 C 0.17927 0.27027 0.92609 0.0
H352 H 0.29612 0.31418 0.20306 0.0
H353 H 0.26117 0.28813 0.19414 0.0
H354 H 0.25332 0.35402 0.06226 0.0
H355 H 0.28736 0.38104 0.07126 0.0
H356 H 0.11851 0.26375 0.84003 0.0
H357 H 0.15914 0.283 0.8506 0.0
H358 H 0.14382 0.23241 0.98964 0.0
H359 H 0.10416 0.21212 0.97924 0.0
Tb360 Tb 0.19802 1.02985 0.24661 0.0
Eu361 Eu 0.21032 0.05588 0.31815 0.0
C362 C 0.275 0.99504 0.27376 0.0
C363 C 0.19555 0.9866 0.34941 0.0
C364 C 0.17759 1.01543 0.15495 0.0
C365 C 0.16453 0.99754 0.10413 0.0
C366 C 0.1865 0.99043 0.13259 0.0
C367 C 0.1483 0.04867 0.14616 0.0
C368 C 0.12631 0.05586 0.11761 0.0
C369 C 0.13327 1.02977 0.09791 0.0
C370 C 0.19698 1.00506 0.19014 0.0
O371 O 0.14114 0.06735 0.26757 0.0
O372 O 0.15256 0.09182 0.30811 0.0
O373 O 0.22551 0.08714 0.24892 0.0
O374 O 0.19123 0.08321 0.21231 0.0
C375 C 0.13016 0.09074 0.29022 0.0
O376 O 0.18802 0.07639 0.37722 0.0
O377 O 0.24156 0.07346 0.3365 0.0
O378 O 0.26041 1.00485 0.31122 0.0
O379 O 0.25714 1.01174 0.24099 0.0
O380 O 0.20003 0.98804 0.30733 0.0
O381 O 0.1947 1.01155 0.3618 0.0
C382 C 0.20945 0.09863 0.21503 0.0
O383 O 0.21845 1.01995 0.1831 0.0
O384 O 0.17713 1.00332 0.23027 0.0
C385 C 0.23145 0.07002 0.41209 0.0
C386 C 0.27169 0.05149 0.47571 0.0
C387 C 0.24627 0.08641 0.4627 0.0
C388 C 0.22634 0.09561 0.43089 0.0
C389 C 0.25349 1.03462 0.42849 0.0
C390 C 0.27342 1.02535 0.46045 0.0
C391 C 0.21698 0.08127 0.37237 0.0
H392 H 0.17034 0.97682 0.08985 0.0
H393 H 0.2092 0.96467 0.13906 0.0
H394 H 0.14135 0.06831 0.16306 0.0
H395 H 0.10255 0.08105 0.113 0.0
H396 H 0.24454 0.10716 0.47356 0.0
H397 H 0.20904 0.12304 0.41866 0.0
H398 H 0.25721 1.01457 0.41449 0.0
H399 H 0.29256 0.99819 0.47036 0.0
Tb400 Tb 0.47032 0.29752 0.80513 0.0
Eu401 Eu 0.43507 0.28852 0.73663 0.0
C402 C 0.50095 0.22336 0.78391 0.0
C403 C 0.50261 0.30795 0.70359 0.0
C404 C 0.49294 0.33297 0.87372 0.0
C405 C 0.50414 0.34636 0.931 0.0
C406 C 0.50664 0.3219 0.91222 0.0
C407 C 0.47593 0.36908 0.85471 0.0
C408 C 0.47368 0.39358 0.87329 0.0
C409 C 0.48809 0.38249 0.91143 0.0
C410 C 0.49997 0.30646 0.85172 0.0
O411 O 0.43141 0.35115 0.78028 0.0
O412 O 0.39685 0.34224 0.74871 0.0
O413 O 0.41259 0.26559 0.80704 0.0
O414 O 0.41665 0.29876 0.84187 0.0
C415 C 0.40237 0.36237 0.76333 0.0
O416 O 0.43962 0.28309 0.67184 0.0
O417 O 0.39084 0.28433 0.72263 0.0
O418 O 0.48607 0.23823 0.74862 0.0
O419 O 0.49277 0.24073 0.81351 0.0
O420 O 0.50979 0.29068 0.74318 0.0
O421 O 0.47057 0.31717 0.69521 0.0
C422 C 0.4023 0.27919 0.84107 0.0
O423 O 0.47906 0.28968 0.86822 0.0
O424 O 0.50605 0.31528 0.80859 0.0
C425 C 0.41035 0.25104 0.67033 0.0
C426 C 0.41521 0.19765 0.64029 0.0
C427 C 0.3861 0.23151 0.63331 0.0
C428 C 0.38375 0.25793 0.64816 0.0
C429 C 0.43898 0.21716 0.67837 0.0
C430 C 0.44143 0.1907 0.66344 0.0
C431 C 0.40877 0.27984 0.68289 0.0
H432 H 0.51573 0.3369 0.96019 0.0
H433 H 0.52016 0.2942 0.92719 0.0
H434 H 0.4651 0.37833 0.82497 0.0
H435 H 0.46063 0.42122 0.85783 0.0
H436 H 0.36513 0.23764 0.61627 0.0
H437 H 0.36141 0.28394 0.64178 0.0
H438 H 0.45984 0.21136 0.69541 0.0
H439 H 0.46443 0.16507 0.66898 0.0
Tb440 Tb -0.0325 0.79443 0.81051 0.0
Eu441 Eu 0.93241 0.78644 0.74006 0.0
C442 C -0.00024 0.72075 0.78583 0.0
C443 C 0.0019 0.80432 0.70804 0.0
C444 C -0.00889 0.82895 0.88028 0.0
C445 C -0.01602 0.85002 0.94249 0.0
C446 C -0.01533 0.8252 0.92605 0.0
C447 C -0.00309 0.8581 0.85104 0.0
C448 C -0.00363 0.88295 0.86749 0.0
C449 C -0.01011 0.87925 0.91351 0.0
C450 C -0.00783 0.80162 0.86462 0.0
O451 O 0.91763 0.84295 0.80112 0.0
O452 O 0.90806 0.84454 0.73559 0.0
O453 O 0.89214 0.79021 0.80483 0.0
O454 O 0.93352 0.76623 0.84999 0.0
C455 C 0.9012 0.85968 0.76696 0.0
O456 O 0.92419 0.79566 0.67386 0.0
O457 O 0.89663 0.76867 0.73137 0.0
O458 O -0.02766 0.73122 0.76648 0.0
O459 O 0.00414 0.74179 0.80033 0.0
O460 O -0.00975 0.81717 0.74317 0.0
O461 O -0.01199 0.78549 0.70432 0.0
C462 C 0.90086 0.77461 0.84389 0.0
O463 O -0.0388 0.79896 0.87423 0.0
O464 O 0.01019 0.79783 0.82466 0.0
C465 C 0.91224 0.75275 0.66461 0.0
C466 C 0.92382 0.70056 0.62652 0.0
C467 C 0.89262 0.73316 0.62209 0.0
C468 C 0.88691 0.75895 0.64101 0.0
C469 C 0.94388 0.72067 0.66833 0.0
C470 C 0.94965 0.69481 0.6494 0.0
C471 C 0.90355 0.77869 0.68828 0.0
H472 H -0.02179 0.84651 0.97805 0.0
H473 H -0.01992 0.80296 0.94927 0.0
H474 H 0.00199 0.86164 0.81555 0.0
H475 H 0.00143 0.90487 0.84407 0.0
H476 H 0.87193 0.73838 0.60523 0.0
H477 H 0.86213 0.78344 0.63822 0.0
H478 H -0.03633 0.71538 0.68665 0.0
H479 H -0.02577 0.67023 0.65292 0.0
Tb480 Tb 0.69746 0.52963 0.24868 0.0
Eu481 Eu 0.71035 0.55538 0.31963 0.0
C482 C 0.77494 0.49514 0.27365 0.0
C483 C 0.69583 0.48641 0.35117 0.0
C484 C 0.67659 0.50758 0.16312 0.0
C485 C 0.66757 0.48192 0.11772 0.0
C486 C 0.68837 0.47975 0.14416 0.0
C487 C 0.6448 0.5384 0.15387 0.0
C488 C 0.62402 0.54069 0.12712 0.0
C489 C 0.63477 0.51206 0.10984 0.0
C490 C 0.69604 0.50208 0.19572 0.0
O491 O 0.64057 0.56687 0.27032 0.0
O492 O 0.65273 0.59194 0.30927 0.0
O493 O 0.72462 0.58724 0.25048 0.0
O494 O 0.69099 0.58281 0.21336 0.0
C495 C 0.62997 0.59067 0.29218 0.0
O496 O 0.68858 0.57552 0.37894 0.0
O497 O 0.74183 0.57294 0.33755 0.0
O498 O 0.76072 0.50452 0.31143 0.0
O499 O 0.75662 0.51228 0.24132 0.0
O500 O 0.70166 0.48748 0.30902 0.0
O501 O 0.69363 0.51186 0.36378 0.0
C502 C 0.7087 0.59858 0.21649 0.0
O503 O 0.71517 0.51999 0.18516 0.0
O504 O 0.67754 0.50041 0.23648 0.0
C505 C 0.7324 0.56931 0.41304 0.0
C506 C 0.77427 0.55141 0.47446 0.0
C507 C 0.74776 0.58603 0.46275 0.0
C508 C 0.72702 0.59492 0.432 0.0
C509 C 0.75539 0.53405 0.42856 0.0
C510 C 0.77613 0.52508 0.45947 0.0
C511 C 0.71752 0.58054 0.37367 0.0
H512 H 0.67651 0.45968 0.10446 0.0
H513 H 0.71293 0.45578 0.15122 0.0
H514 H 0.63537 0.55998 0.16864 0.0
H515 H 0.59859 0.56409 0.12182 0.0
H516 H 0.74585 0.6069 0.47352 0.0
H517 H 0.70896 0.62223 0.42047 0.0
H518 H 0.75932 0.51397 0.41444 0.0
H519 H 0.79611 0.49813 0.46845 0.0
Tb520 Tb 0.71702 0.79631 0.06527 0.0
Eu521 Eu 0.69169 0.78305 0.9919 0.0
C522 C 0.63354 0.80919 0.07771 0.0
C523 C 0.70948 0.72576 0.08267 0.0
C524 C 0.75917 0.81781 0.12769 0.0
C525 C 0.77848 0.83398 0.17432 0.0
C526 C 0.75595 0.82195 0.16909 0.0
C527 C 0.78481 0.82624 0.09123 0.0
C528 C 0.80748 0.8382 0.09645 0.0
C529 C 0.80468 0.84197 0.13815 0.0
C530 C 0.73691 0.80291 0.12401 0.0
O531 O 0.76298 0.79141 1.00886 0.0
O532 O 0.7541 0.7586 0.97861 0.0
O533 O 0.70064 0.83218 0.95906 0.0
O534 O 0.69876 0.84818 1.0187 0.0
C535 C 0.7748 0.77133 0.9816 0.0
O536 O 0.70003 0.74849 0.95362 0.0
O537 O 0.65997 0.80296 0.94062 0.0
O538 O 0.63787 0.81005 0.03608 0.0
O539 O 0.66155 0.79977 0.09531 0.0
O540 O 0.72917 0.74037 0.08404 0.0
O541 O 0.68825 0.7405 0.05339 0.0
C542 C 0.69821 0.85535 0.97641 0.0
O543 O 0.70607 0.82501 0.11014 0.0
O544 O 0.75513 0.77623 0.10573 0.0
C545 C 0.64941 0.76223 0.92493 0.0
C546 C 0.60284 0.74049 0.91179 0.0
C547 C 0.6282 0.75013 0.87591 0.0
C548 C 0.65128 0.7609 0.88248 0.0
C549 C 0.62383 0.7532 0.96085 0.0
C550 C 0.60064 0.74243 0.95432 0.0
C551 C 0.67475 0.77267 0.93086 0.0
H552 H 0.77593 0.83632 0.20688 0.0
H553 H 0.73639 0.81532 0.19757 0.0
H554 H 0.78757 0.82317 0.05899 0.0
H555 H 0.82707 0.84463 0.06787 0.0
H556 H 0.63023 0.74932 0.84273 0.0
H557 H 0.67083 0.76797 0.85441 0.0
H558 H 0.62213 0.75411 0.99388 0.0
H559 H 0.58168 0.73478 0.98269 0.0
Tb560 Tb 0.44912 1.01309 0.57596 0.0
Eu561 Eu 0.46406 0.06359 0.47669 0.0
C562 C 0.52359 1.02139 0.53925 0.0
C563 C 0.43598 0.08893 0.56719 0.0
C564 C 0.40937 0.95619 0.65238 0.0
C565 C 0.39165 0.90791 0.68718 0.0
C566 C 0.40994 0.92667 0.68678 0.0
C567 C 0.38984 0.96711 0.61907 0.0
C568 C 0.37191 0.94848 0.61929 0.0
C569 C 0.3732 0.91833 0.65279 0.0
C570 C 0.4321 0.97381 0.64709 0.0
O571 O 0.39655 0.04719 0.55396 0.0
O572 O 0.41697 0.05398 0.47915 0.0
O573 O 0.48798 1.00931 0.46517 0.0
O574 O 0.45599 0.98584 0.5292 0.0
C575 C 0.39179 0.05142 0.51478 0.0
O576 O 0.44299 0.11239 0.42741 0.0
O577 O 0.50094 0.0756 0.41513 0.0
O578 O 0.50804 0.05035 0.51077 0.0
O579 O 0.50804 0.99971 0.56122 0.0
O580 O 0.44972 0.05618 0.58951 0.0
O581 O 0.43063 0.09708 0.52688 0.0
C582 C 0.47619 0.98497 0.48903 0.0
O583 O 0.46382 0.9633 0.61968 0.0
O584 O 0.41493 1.00796 0.63902 0.0
C585 C 0.48767 0.13479 0.39833 0.0
C586 C 0.51974 0.17781 0.39326 0.0
C587 C 0.52421 0.16757 0.35542 0.0
C588 C 0.5083 0.14613 0.35798 0.0
C589 C 0.48205 0.14604 0.43563 0.0
C590 C 0.49776 0.16743 0.43312 0.0
C591 C 0.4762 0.10767 0.40379 0.0
H592 H 0.39301 0.88465 0.71334 0.0
H593 H 0.4253 0.91763 0.71242 0.0
H594 H 0.38937 0.98953 0.59196 0.0
H595 H 0.35743 0.95743 0.59277 0.0
H596 H 0.54079 0.17538 0.32417 0.0
H597 H 0.51326 0.13735 0.32901 0.0
H598 H 0.46689 0.13696 0.46735 0.0
H599 H 0.4943 0.17423 0.46308 0.0
Tb600 Tb 0.44867 0.51291 0.07614 0.0
Eu601 Eu 0.46357 0.56372 0.97723 0.0
C602 C 0.52282 0.52174 0.04034 0.0
C603 C 0.43483 0.58883 0.06776 0.0
C604 C 0.40863 0.45611 0.15205 0.0
C605 C 0.38868 0.40935 0.18843 0.0
C606 C 0.40728 0.4279 0.18782 0.0
C607 C 0.39073 0.46596 0.11754 0.0
C608 C 0.37249 0.44754 0.11798 0.0
C609 C 0.37182 0.41868 0.15294 0.0
C610 C 0.43126 0.47372 0.14713 0.0
O611 O 0.39626 0.54669 0.05368 0.0
O612 O 0.41708 0.55359 0.97891 0.0
O613 O 0.48793 0.50963 0.96502 0.0
O614 O 0.4566 0.48538 0.02906 0.0
C615 C 0.3918 0.55087 1.01435 0.0
O616 O 0.44223 0.61276 0.92841 0.0
O617 O 0.50035 0.57643 0.91601 0.0
O618 O 0.50729 0.55059 1.0117 0.0
O619 O 0.50743 0.49991 0.06218 0.0
O620 O 0.44899 0.55608 0.0899 0.0
O621 O 0.42913 0.59687 0.02768 0.0
C622 C 0.47663 0.48492 0.98875 0.0
O623 O 0.46315 0.46318 0.12 0.0
O624 O 0.41405 0.50788 0.13891 0.0
C625 C 0.48641 0.63569 0.90047 0.0
C626 C 0.51753 0.67911 0.89672 0.0
C627 C 0.52147 0.66995 0.85822 0.0
C628 C 0.50607 0.64828 0.86014 0.0
C629 C 0.48124 0.64589 0.93848 0.0
C630 C 0.49651 0.66745 0.93662 0.0
C631 C 0.4754 0.60846 0.90502 0.0
H632 H 0.38852 0.3871 0.21574 0.0
H633 H 0.4213 0.41974 0.21449 0.0
H634 H 0.39168 0.48741 0.08944 0.0
H635 H 0.35923 0.45567 0.09057 0.0
H636 H 0.53726 0.67879 0.82691 0.0
H637 H 0.51063 0.64036 0.83061 0.0
H638 H 0.46674 0.6359 0.97016 0.0
H639 H 0.49347 0.6734 0.96704 0.0
C640 C 0.92131 0.10636 0.1402 0.0
C641 C 0.92496 0.11303 0.09424 0.0
H642 H 0.91319 0.12654 0.19453 0.0
C643 C 0.92114 0.14653 0.06799 0.0
H644 H 0.92447 0.0807 0.16119 0.0
C645 C 0.91463 0.17253 0.08687 0.0
C646 C 0.912 0.1658 0.13256 0.0
H647 H 0.92381 0.15258 0.03245 0.0
H648 H 0.91285 0.19769 0.06529 0.0
C649 C 0.9152 0.13246 0.15917 0.0
C650 C 0.82258 0.25398 0.41059 0.0
C651 C 0.81049 0.27007 0.44578 0.0
H652 H 0.86112 0.24363 0.34984 0.0
C653 C 0.83077 0.28612 0.44786 0.0
H654 H 0.80762 0.24137 0.40793 0.0
C655 C 0.86131 0.28749 0.41457 0.0
C656 C 0.87242 0.27283 0.3783 0.0
H657 H 0.82243 0.29866 0.47454 0.0
H658 H 0.87558 0.30093 0.41677 0.0
C659 C 0.85324 0.25533 0.3772 0.0
C660 C 0.69211 0.14371 0.64326 0.0
C661 C 0.71159 0.12907 0.67785 0.0
H662 H 0.67672 0.18475 0.58543 0.0
C663 C 0.732 0.14552 0.67876 0.0
H664 H 0.676 0.13196 0.64131 0.0
C665 C 0.73252 0.17587 0.64649 0.0
C666 C 0.71256 0.19084 0.6123 0.0
H667 H 0.74738 0.13517 0.70476 0.0
H668 H 0.74818 0.1879 0.64883 0.0
C669 C 0.69253 0.17412 0.61106 0.0
C670 C 0.83374 0.09113 0.99098 0.0
C671 C 0.8538 0.05931 1.01805 0.0
H672 H 0.79058 0.119 0.95416 0.0
C673 C 0.84124 1.03285 0.03505 0.0
H674 H 0.84246 0.11216 0.97783 0.0
C675 C 0.81136 1.03684 1.02165 0.0
C676 C 0.79344 0.06744 0.99139 0.0
H677 H 0.85578 1.00816 0.05659 0.0
H678 H 0.80357 1.01529 0.03298 0.0
C679 C 0.80377 0.09517 0.97777 0.0
C680 C 0.08696 1.0184 0.02837 0.0
C681 C 0.05088 1.02796 0.05394 0.0
H682 H 0.14206 1.01159 1.02227 0.0
C683 C 0.04134 0.04212 0.09011 0.0
H684 H 0.09469 1.00785 0.99999 0.0
C685 C 0.06778 0.04488 0.10222 0.0
C686 C 0.10455 1.03326 0.07867 0.0
H687 H 0.0134 0.05051 0.10976 0.0
H688 H 0.05977 0.05428 0.13167 0.0
C689 C 0.11385 1.02064 0.04102 0.0
C690 C -0.02522 0.43111 0.48992 0.0
C691 C -0.01524 0.45848 0.46247 0.0
H692 H -0.03217 0.38632 0.4942 0.0
C693 C -0.00338 0.46056 0.41666 0.0
H694 H -0.03467 0.42871 0.52535 0.0
C695 C -0.0022 0.43618 0.39873 0.0
C696 C -0.01248 0.40902 0.42627 0.0
H697 H 0.00422 0.48142 0.39453 0.0
H698 H 0.00696 0.43849 0.36331 0.0
C699 C -0.02373 0.40668 0.47209 0.0
C700 C 0.5928 0.31506 0.64824 0.0
C701 C 0.59777 0.31327 0.60476 0.0
H702 H 0.55882 0.31508 0.71302 0.0
C703 C 0.56878 0.31391 0.59242 0.0
H704 H 0.61417 0.31516 0.65891 0.0
C705 C 0.53649 0.31421 0.62383 0.0
C706 C 0.53298 0.31357 0.66798 0.0
H707 H 0.57171 0.3126 0.55917 0.0
H708 H 0.51527 0.31306 0.61419 0.0
C709 C 0.56098 0.31502 0.67941 0.0
C710 C 0.69719 0.94706 0.92923 0.0
C711 C 0.69469 0.95434 0.88485 0.0
H712 H 0.70029 0.91041 0.99303 0.0
C713 C 0.6922 0.92926 0.872 0.0
H714 H 0.69928 0.96558 0.94049 0.0
C715 C 0.69282 0.89785 0.90189 0.0
C716 C 0.69595 0.89009 0.94602 0.0
H717 H 0.69009 0.93361 0.83838 0.0
H718 H 0.69112 0.87944 0.88996 0.0
C719 C 0.69781 0.91534 0.95943 0.0
C720 C 0.09118 0.31522 0.14647 0.0
C721 C 0.09693 0.31247 0.10325 0.0
H722 H 0.05659 0.31583 0.21088 0.0
C723 C 0.06863 0.31188 0.09095 0.0
H724 H 0.11197 0.31627 0.15711 0.0
C725 C 0.03629 0.31195 0.12219 0.0
C726 C 0.03203 0.31232 0.16614 0.0
H727 H 0.07215 0.3098 0.05791 0.0
H728 H 0.01566 0.30985 0.11261 0.0
C729 C 0.05932 0.31498 0.17745 0.0
C730 C 0.69231 0.42889 0.37099 0.0
C731 C 0.69404 0.45404 0.38457 0.0
H732 H 0.69159 0.37902 0.38817 0.0
C733 C 0.69542 0.44695 0.42933 0.0
H734 H 0.691 0.43321 0.33705 0.0
C735 C 0.69586 0.41522 0.45923 0.0
C736 C 0.69481 0.38987 0.44511 0.0
H737 H 0.6969 0.46557 0.44108 0.0
H738 H 0.69763 0.41034 0.49314 0.0
C739 C 0.69264 0.39752 0.40061 0.0
C740 C 0.57424 0.9857 0.58239 0.0
C741 C 0.55663 1.01598 0.55149 0.0
H742 H 0.61354 0.96041 0.62451 0.0
C743 C 0.5684 0.04296 0.53574 0.0
H744 H 0.56588 0.96446 0.59502 0.0
C745 C 0.5955 0.0407 0.55278 0.0
C746 C 0.61162 1.01127 0.5854 0.0
H747 H 0.55551 0.06663 0.51176 0.0
H748 H 0.60309 0.06238 0.54142 0.0
C749 C 0.60162 0.98333 0.59912 0.0
C750 C -0.00068 0.92148 0.98747 0.0
C751 C -0.01736 0.95734 0.96723 0.0
H752 H 0.01543 0.86878 0.98611 0.0
C753 C -0.03054 0.96714 0.92848 0.0
H754 H 0.0099 0.91293 1.01722 0.0
C755 C -0.02773 0.9419 0.91088 0.0
C756 C -0.01155 0.90603 0.93137 0.0
H757 H -0.04383 0.99451 0.91207 0.0
H758 H -0.03923 0.95068 0.88179 0.0
C759 C 0.00225 0.89616 0.96973 0.0
C760 C 0.03439 0.20572 0.9315 0.0
C761 C 0.04602 0.19034 0.89584 0.0
H762 H 0.04437 0.2331 0.96299 0.0
C763 C 0.07591 0.19328 0.86204 0.0
H764 H 0.01106 0.20415 0.95769 0.0
C765 C 0.09535 0.20946 0.86534 0.0
C766 C 0.08499 0.22313 0.90235 0.0
H767 H 0.08548 0.18138 0.8344 0.0
H768 H 0.11956 0.20969 0.84001 0.0
C769 C 0.05359 0.22206 0.93466 0.0
C770 C 0.57781 0.63714 0.32944 0.0
C771 C 0.59225 0.62 0.29473 0.0
H772 H 0.53756 0.68244 0.35436 0.0
C773 C 0.57329 0.63481 0.2598 0.0
H774 H 0.59163 0.62629 0.35705 0.0
C775 C 0.54214 0.66741 0.25811 0.0
C776 C 0.52931 0.68572 0.2914 0.0
H777 H 0.58388 0.62241 0.23242 0.0
H778 H 0.52923 0.67897 0.22961 0.0
C779 C 0.54677 0.66948 0.32786 0.0
C780 C 0.31279 0.87113 0.68313 0.0
C781 C 0.31808 0.86452 0.64226 0.0
H782 H 0.32632 0.89332 0.71858 0.0
C783 C 0.34348 0.87364 0.606 0.0
H784 H 0.29317 0.86464 0.71162 0.0
C785 C 0.36218 0.89012 0.61001 0.0
C786 C 0.35599 0.89774 0.6504 0.0
H787 H 0.34886 0.86816 0.57439 0.0
H788 H 0.38129 0.89724 0.5813 0.0
C789 C 0.33171 0.8875 0.6872 0.0
C790 C 0.03969 0.66511 0.75821 0.0
C791 C 0.02835 0.68395 0.7904 0.0
H792 H 0.08115 0.61993 0.73247 0.0
C793 C 0.04717 0.66856 0.82548 0.0
H794 H 0.02561 0.67638 0.73078 0.0
C795 C 0.07818 0.63638 0.82681 0.0
C796 C 0.0917 0.61879 0.79277 0.0
H797 H 0.03874 0.68207 0.85119 0.0
H798 H 0.09282 0.62616 0.85352 0.0
C799 C 0.07133 0.63274 0.75927 0.0
C800 C 0.84079 0.37976 0.59924 0.0
C801 C 0.81656 0.36957 0.63632 0.0
H802 H 0.87779 0.40431 0.57324 0.0
C803 C 0.81207 0.37597 0.67703 0.0
H804 H 0.84555 0.37452 0.56767 0.0
C805 C 0.83086 0.39282 0.6803 0.0
C806 C 0.85425 0.40379 0.64287 0.0
H807 H 0.79334 0.36875 0.70614 0.0
H808 H 0.82623 0.3982 0.71173 0.0
C809 C 0.85936 0.3967 0.60247 0.0
C810 C 0.32025 0.94749 0.234 0.0
C811 C 0.31059 0.96336 0.26869 0.0
H812 H 0.35653 0.90304 0.20574 0.0
C813 C 0.3335 0.94691 0.29996 0.0
H814 H 0.30326 0.95927 0.20936 0.0
C815 C 0.36466 0.9147 0.29734 0.0
C816 C 0.37294 0.89804 0.26399 0.0
H817 H 0.32684 0.95842 0.32708 0.0
H818 H 0.38114 0.90204 0.32267 0.0
C819 C 0.35078 0.91512 0.23195 0.0
C820 C 0.32031 0.44805 0.73303 0.0
C821 C 0.31064 0.46383 0.76782 0.0
H822 H 0.35669 0.40375 0.70451 0.0
C823 C 0.33365 0.44737 0.79899 0.0
H824 H 0.30324 0.45983 0.70848 0.0
C825 C 0.36492 0.41525 0.79615 0.0
C826 C 0.37321 0.39868 0.7627 0.0
H827 H 0.32698 0.4588 0.82619 0.0
H828 H 0.38147 0.40258 0.8214 0.0
C829 C 0.35094 0.41577 0.73077 0.0
C830 C 0.07153 0.80363 0.59903 0.0
C831 C 0.09614 0.81175 0.60763 0.0
H832 H 0.02256 0.79481 0.62404 0.0
C833 C 0.08755 0.82061 0.64801 0.0
H834 H 0.07736 0.79652 0.56842 0.0
C835 C 0.05597 0.81986 0.67985 0.0
C836 C 0.03253 0.80976 0.6723 0.0
H837 H 0.10585 0.82715 0.65561 0.0
H838 H 0.05087 0.82572 0.71112 0.0
C839 C 0.04022 0.80243 0.63112 0.0
C840 C 0.19554 0.94747 0.42782 0.0
C841 C 0.19345 0.95445 0.38333 0.0
H842 H 0.19792 0.91132 0.49199 0.0
C843 C 0.19064 0.92946 0.37072 0.0
H844 H 0.19786 0.96595 0.43889 0.0
C845 C 0.19056 0.89839 0.40102 0.0
C846 C 0.1934 0.89087 0.44526 0.0
H847 H 0.1888 0.93366 0.33704 0.0
H848 H 0.18867 0.87999 0.38929 0.0
C849 C 0.19558 0.91607 0.45837 0.0
C850 C 0.9414 0.6373 0.63294 0.0
C851 C 0.92865 0.67239 0.60857 0.0
H852 H -0.0446 0.58418 0.63617 0.0
C853 C 0.91979 0.6804 0.56744 0.0
H854 H 0.94792 0.63023 0.66504 0.0
C855 C 0.92366 0.65401 0.55107 0.0
C856 C 0.93656 0.61891 0.57537 0.0
H857 H 0.91026 0.70706 0.54756 0.0
H858 H 0.91675 0.66118 0.51918 0.0
C859 C 0.9453 0.61091 0.61655 0.0
C860 C 0.3202 0.75597 0.411 0.0
C861 C 0.30851 0.77146 0.44672 0.0
H862 H 0.35847 0.7461 0.34988 0.0
C863 C 0.32913 0.78704 0.44912 0.0
H864 H 0.30495 0.74379 0.40804 0.0
C865 C 0.35969 0.7884 0.41583 0.0
C866 C 0.3705 0.77426 0.37913 0.0
H867 H 0.3211 0.79912 0.47616 0.0
H868 H 0.37426 0.80138 0.41846 0.0
C869 C 0.35086 0.75738 0.37755 0.0
C870 C 0.19223 0.14405 0.14438 0.0
C871 C 0.21127 0.13004 0.17931 0.0
H872 H 0.17735 0.18427 0.08576 0.0
C873 C 0.23138 0.14686 0.17998 0.0
H874 H 0.17638 0.13199 0.14254 0.0
C875 C 0.23206 0.17692 0.1471 0.0
C876 C 0.21256 0.19121 0.11255 0.0
H877 H 0.24643 0.13698 0.20618 0.0
H878 H 0.24749 0.18927 0.14922 0.0
C879 C 0.1928 0.17415 0.11161 0.0
C880 C 0.81564 0.75983 0.90871 0.0
C881 C 0.8102 0.76673 0.94935 0.0
H882 H 0.84858 0.75723 0.8434 0.0
C883 C 0.83711 0.77267 0.95663 0.0
H884 H 0.79538 0.75532 0.90192 0.0
C885 C 0.86812 0.77303 0.92324 0.0
C886 C 0.87213 0.76833 0.88172 0.0
H887 H 0.83366 0.77804 0.98765 0.0
H888 H 0.88778 0.7789 0.92903 0.0
C889 C 0.84603 0.76106 0.8751 0.0
C890 C 0.23001 0.64685 0.68066 0.0
C891 C 0.21044 0.62978 0.67925 0.0
H892 H 0.24534 0.68979 0.65109 0.0
C893 C 0.19154 0.64391 0.64418 0.0
H894 H 0.24492 0.63692 0.70702 0.0
C895 C 0.19174 0.67439 0.612 0.0
C896 C 0.21095 0.69171 0.6137 0.0
H897 H 0.17608 0.63168 0.64181 0.0
H898 H 0.17641 0.68459 0.586 0.0
C899 C 0.23031 0.67728 0.64839 0.0
C900 C 0.29572 0.06101 0.52738 0.0
C901 C 0.30219 0.04449 0.49466 0.0
H902 H 0.31968 0.07604 0.5599 0.0
C903 C 0.33871 1.02694 0.47308 0.0
H904 H 0.26777 0.07464 0.54452 0.0
C905 C 0.36776 1.02854 0.481 0.0
C906 C 0.36099 0.04727 0.51107 0.0
H907 H 0.34467 1.01431 0.44738 0.0
H908 H 0.39546 1.01606 0.46239 0.0
C909 C 0.32517 0.06204 0.53593 0.0
C910 C 0.86686 0.84119 0.12437 0.0
C911 C 0.82898 0.85418 0.14401 0.0
H912 H 0.91853 0.84317 0.11312 0.0
C913 C 0.81437 0.8791 0.16911 0.0
H914 H 0.87901 0.8215 0.10549 0.0
C915 C 0.83696 0.89145 0.17355 0.0
C916 C 0.87467 0.87908 0.15307 0.0
H917 H 0.78519 0.88987 0.18423 0.0
H918 H 0.82452 0.91168 0.19164 0.0
C919 C 0.88949 0.85347 0.12891 0.0
C920 C 0.59904 0.20001 0.37578 0.0
C921 C 0.58301 0.2251 0.40103 0.0
H922 H 0.59167 0.16537 0.35368 0.0
C923 C 0.5452 0.23652 0.42089 0.0
H924 H 0.62822 0.19035 0.36052 0.0
C925 C 0.52416 0.22233 0.41674 0.0
C926 C 0.54052 0.19633 0.39277 0.0
H927 H 0.53194 0.25625 0.43992 0.0
H928 H 0.49518 0.23132 0.43289 0.0
C929 C 0.57804 0.18578 0.3717 0.0
C930 C 0.83411 0.44668 0.29809 0.0
C931 C 0.81021 0.4632 0.26795 0.0
H932 H 0.88241 0.40185 0.31921 0.0
C933 C 0.81862 0.44721 0.23382 0.0
H934 H 0.82842 0.45823 0.32478 0.0
C935 C 0.84897 0.41477 0.23115 0.0
C936 C 0.87227 0.39773 0.26193 0.0
H937 H 0.8008 0.459 0.21011 0.0
H938 H 0.85377 0.40267 0.2054 0.0
C939 C 0.8651 0.41444 0.29479 0.0
C940 C 0.082 0.68637 0.36459 0.0
C941 C 0.04397 0.69772 0.38329 0.0
H942 H 0.13196 0.69029 0.35673 0.0
C943 C 0.02651 0.72462 0.40604 0.0
H944 H 0.09643 0.66529 0.34756 0.0
C945 C 0.04697 0.73877 0.4116 0.0
C946 C 0.08526 0.72645 0.39433 0.0
H947 H -0.00287 0.73424 0.42034 0.0
H948 H 0.0329 0.75911 0.4298 0.0
C949 C 0.10241 0.7006 0.37003 0.0
C950 C 0.57373 0.13563 0.75695 0.0
C951 C 0.59238 0.12037 0.79225 0.0
H952 H 0.53012 0.18026 0.72649 0.0
C953 C 0.5778 0.13728 0.82723 0.0
H954 H 0.5844 0.12344 0.72936 0.0
C955 C 0.54703 0.16982 0.82556 0.0
C956 C 0.52991 0.18646 0.78879 0.0
H957 H 0.59133 0.12609 0.85517 0.0
H958 H 0.53772 0.18256 0.8523 0.0
C959 C 0.54279 0.16839 0.75522 0.0
C960 C 0.73032 0.647 0.18218 0.0
C961 C 0.71017 0.63033 0.18121 0.0
H962 H 0.74621 0.68957 0.15222 0.0
C963 C 0.69068 0.64487 0.14661 0.0
H964 H 0.7457 0.63673 0.20816 0.0
C965 C 0.69091 0.67536 0.11443 0.0
C966 C 0.71076 0.69224 0.11565 0.0
H967 H 0.67476 0.63297 0.14461 0.0
H968 H 0.67515 0.68587 0.08878 0.0
C969 C 0.73067 0.67741 0.14989 0.0
C970 C 0.82976 0.56339 0.53015 0.0
C971 C 0.86493 0.5499 0.50331 0.0
H972 H 0.7725 0.57406 0.54246 0.0
C973 C 0.87088 0.53167 0.47305 0.0
H974 H 0.82492 0.5769 0.55436 0.0
C975 C 0.8416 0.52918 0.46716 0.0
C976 C 0.80561 0.54531 0.49102 0.0
H977 H 0.89811 0.52006 0.45296 0.0
H978 H 0.84681 0.51691 0.4414 0.0
C979 C 0.80004 0.56147 0.52366 0.0
C980 C 0.09876 0.54104 0.54855 0.0
C981 C 0.11439 0.51157 0.58143 0.0
H982 H 0.05976 0.56701 0.50619 0.0
C983 C 0.10458 0.48359 0.59421 0.0
H984 H 0.10621 0.56276 0.53789 0.0
C985 C 0.07786 0.48596 0.5763 0.0
C986 C 0.06074 0.51626 0.54509 0.0
H987 H 0.11613 0.46063 0.61976 0.0
H988 H 0.0696 0.46468 0.58824 0.0
C989 C 0.07234 0.54329 0.5303 0.0
C990 C 0.56104 0.814 0.18328 0.0
C991 C 0.53264 0.81367 0.17121 0.0
H992 H 0.61438 0.8138 0.16324 0.0
C993 C 0.53558 0.81605 0.12658 0.0
H994 H 0.55932 0.81272 0.21731 0.0
C995 C 0.56767 0.81635 0.09519 0.0
C996 C 0.59704 0.81461 0.10803 0.0
H997 H 0.51404 0.81583 0.11641 0.0
H998 H 0.57012 0.81639 0.06147 0.0
C999 C 0.59268 0.81465 0.15213 0.0
C1000 C 0.60043 0.48428 0.10071 0.0
C1001 C 0.61005 0.51244 0.08729 0.0
H1002 H 0.56525 0.46497 0.09615 0.0
C1003 C 0.59369 0.54192 0.05487 0.0
H1004 H 0.61254 0.46132 0.12595 0.0
C1005 C 0.56683 0.54395 0.03763 0.0
C1006 C 0.55553 0.51668 0.05297 0.0
H1007 H 0.60098 0.56378 0.04373 0.0
H1008 H 0.5538 0.56764 1.01375 0.0
C1009 C 0.57328 0.48642 0.08379 0.0
C1010 C 0.32836 0.38993 0.18716 0.0
C1011 C 0.35424 0.39825 0.15097 0.0
H1012 H 0.28844 0.36868 0.21112 0.0
C1013 C 0.36175 0.38889 0.1114 0.0
H1014 H 0.32194 0.39711 0.2179 0.0
C1015 C 0.34282 0.37259 0.1075 0.0
C1016 C 0.31588 0.36537 0.14306 0.0
H1017 H 0.38208 0.39452 0.08322 0.0
H1018 H 0.34925 0.36573 0.07653 0.0
C1019 C 0.30922 0.37371 0.1832 0.0
C1020 C 0.04678 0.16946 0.32565 0.0
C1021 C 0.02947 0.1856 0.28909 0.0
H1022 H 0.0915 0.12634 0.35509 0.0
C1023 C 0.04238 0.16723 0.25584 0.0
H1024 H 0.03743 0.18246 0.35214 0.0
C1025 C 0.07357 0.13467 0.25764 0.0
C1026 C 0.09242 0.11998 0.29265 0.0
H1027 H 0.02954 0.17872 0.2273 0.0
H1028 H 0.08428 0.12224 0.23027 0.0
C1029 C 0.0778 0.13713 0.32738 0.0
C1030 C 0.19632 0.41531 0.9582 0.0
C1031 C 0.19438 0.3902 0.94462 0.0
H1032 H 0.19817 0.46537 0.93937 0.0
C1033 C 0.19131 0.39803 0.90044 0.0
H1034 H 0.19881 0.41029 0.99183 0.0
C1035 C 0.19105 0.42931 0.87057 0.0
C1036 C 0.19373 0.45418 0.88358 0.0
H1037 H 0.1895 0.37973 0.88842 0.0
H1038 H 0.18903 0.43378 0.83688 0.0
C1039 C 0.19594 0.44695 0.92805 0.0
C1040 C 0.32275 0.25495 0.91085 0.0
C1041 C 0.31041 0.27116 0.94602 0.0
H1042 H 0.36141 0.24467 0.85012 0.0
C1043 C 0.33032 0.28763 0.94793 0.0
H1044 H 0.30809 0.24204 0.90828 0.0
C1045 C 0.3608 0.28918 0.9146 0.0
C1046 C 0.3722 0.27433 0.87839 0.0
H1047 H 0.32175 0.3003 0.97455 0.0
H1048 H 0.3748 0.30289 0.91674 0.0
C1049 C 0.35331 0.25653 0.87739 0.0
C1050 C 0.36762 0.52879 0.9796 0.0
C1051 C 0.36095 0.54704 1.01019 0.0
H1052 H 0.34438 0.51514 0.94542 0.0
C1053 C 0.32515 0.56168 0.03518 0.0
H1054 H 0.3953 0.51644 0.96084 0.0
C1055 C 0.29565 0.56093 1.02637 0.0
C1056 C 0.30204 0.54479 0.99328 0.0
H1057 H 0.31972 0.57534 0.0595 0.0
H1058 H 0.26772 0.57442 0.04368 0.0
C1059 C 0.33852 0.52745 0.97143 0.0
C1060 C 0.5425 0.73718 0.92655 0.0
C1061 C 0.57989 0.72711 0.90512 0.0
H1062 H 0.49305 0.73076 0.93961 0.0
C1063 C 0.5957 0.70316 0.87828 0.0
H1064 H 0.52939 0.75602 0.94687 0.0
C1065 C 0.57496 0.6887 0.87412 0.0
C1066 C 0.5379 0.6979 0.89666 0.0
H1067 H 0.62459 0.69453 0.86179 0.0
H1068 H 0.58851 0.66915 0.85479 0.0
C1069 C 0.52169 0.72279 0.92228 0.0
C1070 C 0.85294 0.91541 0.7306 0.0
C1071 C 0.87165 0.89605 0.76607 0.0
H1072 H 0.80816 0.96169 0.70483 0.0
C1073 C 0.86019 0.91097 0.80232 0.0
H1074 H 0.86103 0.90491 0.70207 0.0
C1075 C 0.82972 0.94356 0.80401 0.0
C1076 C 0.81008 0.96222 0.76936 0.0
H1077 H 0.87394 0.89696 0.83026 0.0
H1078 H 0.8209 0.95359 0.83313 0.0
C1079 C 0.82261 0.9481 0.73217 0.0
C1080 C 0.43019 0.13501 0.647 0.0
C1081 C 0.41882 0.17001 0.62244 0.0
H1082 H 0.4442 0.08213 0.64914 0.0
C1083 C 0.41173 0.1783 0.58016 0.0
H1084 H 0.43539 0.12776 0.6799 0.0
C1085 C 0.41643 0.15217 0.56264 0.0
C1086 C 0.42846 0.11707 0.58689 0.0
H1087 H 0.40341 0.20489 0.56005 0.0
H1088 H 0.41124 0.15947 0.52973 0.0
C1089 C 0.43497 0.10886 0.62945 0.0
C1090 C 0.49501 0.43665 0.90384 0.0
C1091 C 0.48643 0.40836 0.9309 0.0
H1092 H 0.4994 0.48272 0.90071 0.0
C1093 C 0.47627 0.40483 0.97696 0.0
H1094 H 0.5033 0.43989 0.86823 0.0
C1095 C 0.47415 0.42918 0.9955 0.0
C1096 C 0.48236 0.45769 0.96854 0.0
H1097 H 0.46914 0.3836 0.99875 0.0
H1098 H 0.46555 0.42582 0.03112 0.0
C1099 C 0.49317 0.46097 0.92247 0.0
C1100 C 0.47472 0.90513 0.47822 0.0
C1101 C 0.48528 0.90817 0.43226 0.0
H1102 H 0.4639 0.92658 0.53196 0.0
C1103 C 0.4944 0.93609 0.40492 0.0
H1104 H 0.46717 0.88419 0.50019 0.0
C1105 C 0.49275 0.96051 0.4232 0.0
C1106 C 0.48159 0.95769 0.46918 0.0
H1107 H 0.50301 0.93895 0.36938 0.0
H1108 H 0.49943 0.98196 0.40125 0.0
C1109 C 0.47279 0.92958 0.4964 0.0
C1110 C 0.43838 0.60886 0.12693 0.0
C1111 C 0.42752 0.61709 0.08707 0.0
H1112 H 0.44387 0.62788 0.17353 0.0
C1113 C 0.41145 0.65248 0.06472 0.0
H1114 H 0.45108 0.58187 0.1449 0.0
C1115 C 0.40699 0.67893 0.08142 0.0
C1116 C 0.41869 0.67068 0.12073 0.0
H1117 H 0.40266 0.6598 0.034 0.0
H1118 H 0.39442 0.70591 0.06336 0.0
C1119 C 0.43408 0.6353 0.14351 0.0
loop_
_geom_bond_atom_site_label_1
_geom_bond_atom_site_label_2
_geom_bond_distance
_geom_bond_site_symmetry_2
_ccdc_geom_bond_type
Tb0 C10 2.825 . S
Tb0 O11 2.347 1_564 S
Tb0 O14 2.369 1_655 S
Tb0 O19 2.418 1_655 S
Tb0 O20 2.384 1_565 S
Tb0 O23 2.479 . S
Tb0 O24 2.471 . S
Eu1 O12 2.418 1_455 S
Eu1 O13 2.384 1_545 S
Eu1 O16 2.479 . S
Eu1 O17 2.471 . S
Eu1 O18 2.347 1_546 S
Eu1 O21 2.368 1_456 S
Eu1 C31 2.825 . S
C2 O18 1.259 . S
C2 O19 1.265 . S
C3 O20 1.255 . S
C3 O21 1.263 . S
C4 C6 1.380 . S
C4 C7 1.374 . S
C4 C10 1.507 . S
C5 C6 1.384 . S
C5 C9 1.387 . S
C5 H32 0.930 . S
C6 C4 1.380 . S
C6 C5 1.384 . S
C6 H33 0.931 . S
C7 C4 1.374 . S
C7 C8 1.390 . S
C7 H34 0.930 . S
C8 C7 1.390 . S
C8 C9 1.391 . S
C8 H35 0.930 . S
C9 C5 1.387 . S
C9 C8 1.391 . S
C10 Tb0 2.825 . S
C10 C4 1.507 . S
C10 O23 1.238 . S
C10 O24 1.247 . S
O11 Tb0 2.347 1_546 S
O11 C15 1.259 . S
O12 Eu1 2.418 1_655 S
O12 C15 1.265 . S
O13 Eu1 2.384 1_565 S
O13 C22 1.255 . S
O14 Tb0 2.369 1_455 S
O14 C22 1.262 1_554 S
C15 O11 1.259 . S
C15 O12 1.265 . S
O16 Eu1 2.479 . S
O16 C31 1.238 . S
O17 Eu1 2.471 . S
O17 C31 1.247 . S
O18 Eu1 2.347 1_564 S
O18 C2 1.259 . S
O19 Tb0 2.418 1_455 S
O19 C2 1.265 . S
O20 Tb0 2.384 1_545 S
O20 C3 1.255 . S
O21 Eu1 2.368 1_654 S
O21 C3 1.263 . S
C22 O13 1.255 . S
C22 O14 1.262 1_556 S
O23 Tb0 2.479 . S
O23 C10 1.238 . S
O24 Tb0 2.471 . S
O24 C10 1.247 . S
C25 C28 1.380 . S
C25 C29 1.374 . S
C25 C31 1.507 . S
C26 C27 1.387 . S
C26 C30 1.391 . S
C27 C26 1.387 . S
C27 C28 1.384 . S
C27 H36 0.930 . S
C28 C25 1.380 . S
C28 C27 1.384 . S
C28 H37 0.931 . S
C29 C25 1.374 . S
C29 C30 1.390 . S
C29 H38 0.930 . S
C30 C26 1.391 . S
C30 C29 1.390 . S
C30 H39 0.930 . S
C31 Eu1 2.825 . S
C31 O16 1.238 . S
C31 O17 1.247 . S
C31 C25 1.507 . S
H32 C5 0.930 . S
H33 C6 0.931 . S
H34 C7 0.930 . S
H35 C8 0.930 . S
H36 C27 0.930 . S
H37 C28 0.931 . S
H38 C29 0.930 . S
H39 C30 0.930 . S
Tb40 C50 2.825 . S
Tb40 O51 2.347 1_455 S
Tb40 O54 2.366 1_455 S
Tb40 O59 2.418 . S
Tb40 O60 2.384 . S
Tb40 O63 2.479 . S
Tb40 O64 2.471 1_455 S
Eu41 O52 2.418 . S
Eu41 O53 2.384 . S
Eu41 O56 2.479 . S
Eu41 O57 2.471 1_655 S
Eu41 O58 2.347 1_655 S
Eu41 O61 2.366 1_655 S
Eu41 C71 2.825 . S
C42 O58 1.259 . S
C42 O59 1.265 . S
C43 O60 1.255 . S
C43 O61 1.265 . S
C44 C46 1.380 1_655 S
C44 C47 1.374 . S
C44 C50 1.507 1_655 S
C45 C46 1.384 . S
C45 C49 1.387 1_455 S
C45 H72 0.930 . S
C46 C44 1.380 1_455 S
C46 C45 1.384 . S
C46 H73 0.931 . S
C47 C44 1.374 . S
C47 C48 1.390 . S
C47 H74 0.930 . S
C48 C47 1.390 . S
C48 C49 1.391 . S
C48 H75 0.930 . S
C49 C45 1.387 1_655 S
C49 C48 1.391 . S
C50 Tb40 2.825 . S
C50 C44 1.507 1_455 S
C50 O63 1.238 . S
C50 O64 1.247 1_455 S
O51 Tb40 2.347 1_655 S
O51 C55 1.259 . S
O52 Eu41 2.418 . S
O52 C55 1.265 . S
O53 Eu41 2.384 . S
O53 C62 1.255 . S
O54 Tb40 2.366 1_655 S
O54 C62 1.265 . S
C55 O51 1.259 . S
C55 O52 1.265 . S
O56 Eu41 2.479 . S
O56 C71 1.238 . S
O57 Eu41 2.471 1_455 S
O57 C71 1.247 1_455 S
O58 Eu41 2.347 1_455 S
O58 C42 1.259 . S
O59 Tb40 2.418 . S
O59 C42 1.265 . S
O60 Tb40 2.384 . S
O60 C43 1.255 . S
O61 Eu41 2.366 1_455 S
O61 C43 1.265 . S
C62 O53 1.255 . S
C62 O54 1.265 . S
O63 Tb40 2.479 . S
O63 C50 1.238 . S
O64 Tb40 2.471 1_655 S
O64 C50 1.247 1_655 S
C65 C68 1.380 1_455 S
C65 C69 1.374 . S
C65 C71 1.507 1_455 S
C66 C67 1.387 1_455 S
C66 C70 1.391 . S
C67 C66 1.387 1_655 S
C67 C68 1.384 . S
C67 H76 0.930 . S
C68 C65 1.380 1_655 S
C68 C67 1.384 . S
C68 H77 0.931 . S
C69 C65 1.374 . S
C69 C70 1.390 . S
C69 H78 0.930 . S
C70 C66 1.391 . S
C70 C69 1.390 . S
C70 H79 0.930 . S
C71 Eu41 2.825 . S
C71 O56 1.238 . S
C71 O57 1.247 1_655 S
C71 C65 1.507 1_655 S
H72 C45 0.930 . S
H73 C46 0.931 . S
H74 C47 0.930 . S
H75 C48 0.930 . S
H76 C67 0.930 . S
H77 C68 0.931 . S
H78 C69 0.930 . S
H79 C70 0.930 . S
Tb80 C90 2.825 . S
Tb80 O91 2.347 . S
Tb80 O94 2.366 . S
Tb80 O99 2.418 . S
Tb80 O100 2.384 . S
Tb80 O103 2.479 . S
Tb80 O104 2.471 . S
Eu81 O92 2.418 . S
Eu81 O93 2.384 . S
Eu81 O96 2.479 . S
Eu81 O97 2.471 . S
Eu81 O98 2.347 . S
Eu81 O101 2.366 . S
Eu81 C111 2.825 . S
C82 O98 1.259 . S
C82 O99 1.265 . S
C83 O100 1.255 . S
C83 O101 1.265 . S
C84 C86 1.380 . S
C84 C87 1.374 . S
C84 C90 1.507 . S
C85 C86 1.384 . S
C85 C89 1.387 . S
C85 H112 0.930 . S
C86 C84 1.380 . S
C86 C85 1.384 . S
C86 H113 0.931 . S
C87 C84 1.374 . S
C87 C88 1.390 . S
C87 H114 0.930 . S
C88 C87 1.390 . S
C88 C89 1.391 . S
C88 H115 0.930 . S
C89 C85 1.387 . S
C89 C88 1.391 . S
C90 Tb80 2.825 . S
C90 C84 1.507 . S
C90 O103 1.238 . S
C90 O104 1.247 . S
O91 Tb80 2.347 . S
O91 C95 1.259 . S
O92 Eu81 2.418 . S
O92 C95 1.265 . S
O93 Eu81 2.384 . S
O93 C102 1.255 . S
O94 Tb80 2.366 . S
O94 C102 1.265 . S
C95 O91 1.259 . S
C95 O92 1.265 . S
O96 Eu81 2.479 . S
O96 C111 1.238 . S
O97 Eu81 2.471 . S
O97 C111 1.247 . S
O98 Eu81 2.347 . S
O98 C82 1.259 . S
O99 Tb80 2.418 . S
O99 C82 1.265 . S
O100 Tb80 2.384 . S
O100 C83 1.255 . S
O101 Eu81 2.366 . S
O101 C83 1.265 . S
C102 O93 1.255 . S
C102 O94 1.265 . S
O103 Tb80 2.479 . S
O103 C90 1.238 . S
O104 Tb80 2.471 . S
O104 C90 1.247 . S
C105 C108 1.380 . S
C105 C109 1.374 . S
C105 C111 1.507 . S
C106 C107 1.387 . S
C106 C110 1.391 . S
C107 C106 1.387 . S
C107 C108 1.384 . S
C107 H116 0.930 . S
C108 C105 1.380 . S
C108 C107 1.384 . S
C108 H117 0.931 . S
C109 C105 1.374 . S
C109 C110 1.390 . S
C109 H118 0.930 . S
C110 C106 1.391 . S
C110 C109 1.390 . S
C110 H119 0.930 . S
C111 Eu81 2.825 . S
C111 O96 1.238 . S
C111 O97 1.247 . S
C111 C105 1.507 . S
H112 C85 0.930 . S
H113 C86 0.931 . S
H114 C87 0.930 . S
H115 C88 0.930 . S
H116 C107 0.930 . S
H117 C108 0.931 . S
H118 C109 0.930 . S
H119 C110 0.930 . S
Tb120 C130 2.825 1_565 S
Tb120 O131 2.347 1_565 S
Tb120 O134 2.366 1_565 S
Tb120 O139 2.418 . S
Tb120 O140 2.384 . S
Tb120 O143 2.479 . S
Tb120 O144 2.471 1_565 S
Eu121 O132 2.418 . S
Eu121 O133 2.384 . S
Eu121 O136 2.479 . S
Eu121 O137 2.471 1_545 S
Eu121 O138 2.347 1_545 S
Eu121 O141 2.366 1_545 S
Eu121 C151 2.829 1_545 S
C122 O138 1.259 . S
C122 O139 1.265 . S
C123 O140 1.255 . S
C123 O141 1.265 . S
C124 C126 1.380 1_545 S
C124 C127 1.374 . S
C124 C130 1.507 . S
C125 C126 1.384 1_545 S
C125 C129 1.387 . S
C125 H152 0.930 1_545 S
C126 C124 1.380 1_565 S
C126 C125 1.384 1_565 S
C126 H153 0.931 . S
C127 C124 1.374 . S
C127 C128 1.390 . S
C127 H154 0.930 . S
C128 C127 1.390 . S
C128 C129 1.391 . S
C128 H155 0.930 . S
C129 C125 1.387 . S
C129 C128 1.391 . S
C130 Tb120 2.825 1_545 S
C130 C124 1.507 . S
C130 O143 1.238 1_545 S
C130 O144 1.247 . S
O131 Tb120 2.347 1_545 S
O131 C135 1.259 . S
O132 Eu121 2.418 . S
O132 C135 1.265 . S
O133 Eu121 2.384 . S
O133 C142 1.255 . S
O134 Tb120 2.366 1_545 S
O134 C142 1.265 . S
C135 O131 1.259 . S
C135 O132 1.265 . S
O136 Eu121 2.479 . S
O136 C151 1.224 1_545 S
O137 Eu121 2.471 1_565 S
O137 C151 1.263 . S
O138 Eu121 2.347 1_565 S
O138 C122 1.259 . S
O139 Tb120 2.418 . S
O139 C122 1.265 . S
O140 Tb120 2.384 . S
O140 C123 1.255 . S
O141 Eu121 2.366 1_565 S
O141 C123 1.265 . S
C142 O133 1.255 . S
C142 O134 1.265 . S
O143 Tb120 2.479 . S
O143 C130 1.238 1_565 S
O144 Tb120 2.471 1_545 S
O144 C130 1.247 . S
C145 C148 1.380 1_565 S
C145 C149 1.374 . S
C145 C151 1.505 . S
C146 C147 1.387 . S
C146 C150 1.391 . S
C147 C146 1.387 . S
C147 C148 1.384 1_565 S
C147 H156 0.930 1_565 S
C148 C145 1.380 1_545 S
C148 C147 1.384 1_545 S
C148 H157 0.931 . S
C149 C145 1.374 . S
C149 C150 1.390 . S
C149 H158 0.930 . S
C150 C146 1.391 . S
C150 C149 1.390 . S
C150 H159 0.930 . S
C151 Eu121 2.829 1_565 S
C151 O136 1.224 1_565 S
C151 O137 1.263 . S
C151 C145 1.505 . S
H152 C125 0.930 1_565 S
H153 C126 0.931 . S
H154 C127 0.930 . S
H155 C128 0.930 . S
H156 C147 0.930 1_545 S
H157 C148 0.931 . S
H158 C149 0.930 . S
H159 C150 0.930 . S
Tb160 C170 2.825 . S
Tb160 O171 2.347 . S
Tb160 O174 2.366 . S
Tb160 O179 2.418 . S
Tb160 O180 2.384 . S
Tb160 O183 2.479 . S
Tb160 O184 2.471 . S
Eu161 O172 2.418 . S
Eu161 O173 2.384 . S
Eu161 O176 2.479 . S
Eu161 O177 2.471 . S
Eu161 O178 2.347 . S
Eu161 O181 2.366 . S
Eu161 C191 2.825 . S
C162 O178 1.259 . S
C162 O179 1.265 . S
C163 O180 1.255 . S
C163 O181 1.265 . S
C164 C166 1.380 . S
C164 C167 1.374 . S
C164 C170 1.507 . S
C165 C166 1.384 . S
C165 C169 1.387 . S
C165 H192 0.930 . S
C166 C164 1.380 . S
C166 C165 1.384 . S
C166 H193 0.931 . S
C167 C164 1.374 . S
C167 C168 1.390 . S
C167 H194 0.930 . S
C168 C167 1.390 . S
C168 C169 1.391 . S
C168 H195 0.930 . S
C169 C165 1.387 . S
C169 C168 1.391 . S
C170 Tb160 2.825 . S
C170 C164 1.507 . S
C170 O183 1.238 . S
C170 O184 1.247 . S
O171 Tb160 2.347 . S
O171 C175 1.259 . S
O172 Eu161 2.418 . S
O172 C175 1.265 . S
O173 Eu161 2.384 . S
O173 C182 1.255 . S
O174 Tb160 2.366 . S
O174 C182 1.265 . S
C175 O171 1.259 . S
C175 O172 1.265 . S
O176 Eu161 2.479 . S
O176 C191 1.238 . S
O177 Eu161 2.471 . S
O177 C191 1.247 . S
O178 Eu161 2.347 . S
O178 C162 1.259 . S
O179 Tb160 2.418 . S
O179 C162 1.265 . S
O180 Tb160 2.384 . S
O180 C163 1.255 . S
O181 Eu161 2.366 . S
O181 C163 1.265 . S
C182 O173 1.255 . S
C182 O174 1.265 . S
O183 Tb160 2.479 . S
O183 C170 1.238 . S
O184 Tb160 2.471 . S
O184 C170 1.247 . S
C185 C188 1.380 . S
C185 C189 1.374 . S
C185 C191 1.507 . S
C186 C187 1.387 . S
C186 C190 1.391 . S
C187 C186 1.387 . S
C187 C188 1.384 . S
C187 H196 0.930 . S
C188 C185 1.380 . S
C188 C187 1.384 . S
C188 H197 0.931 . S
C189 C185 1.374 . S
C189 C190 1.390 . S
C189 H198 0.930 . S
C190 C186 1.391 . S
C190 C189 1.390 . S
C190 H199 0.930 . S
C191 Eu161 2.825 . S
C191 O176 1.238 . S
C191 O177 1.247 . S
C191 C185 1.507 . S
H192 C165 0.930 . S
H193 C166 0.931 . S
H194 C167 0.930 . S
H195 C168 0.930 . S
H196 C187 0.930 . S
H197 C188 0.931 . S
H198 C189 0.930 . S
H199 C190 0.930 . S
Tb200 C210 2.825 . S
Tb200 O211 2.347 . S
Tb200 O214 2.366 . S
Tb200 O219 2.418 . S
Tb200 O220 2.384 . S
Tb200 O223 2.479 . S
Tb200 O224 2.471 . S
Eu201 O212 2.418 . S
Eu201 O213 2.384 . S
Eu201 O216 2.479 . S
Eu201 O217 2.471 . S
Eu201 O218 2.347 . S
Eu201 O221 2.366 . S
Eu201 C231 2.825 . S
C202 O218 1.259 . S
C202 O219 1.265 . S
C203 O220 1.255 . S
C203 O221 1.265 . S
C204 C206 1.380 . S
C204 C207 1.374 . S
C204 C210 1.507 . S
C205 C206 1.384 . S
C205 C209 1.387 . S
C205 H232 0.930 . S
C206 C204 1.380 . S
C206 C205 1.384 . S
C206 H233 0.931 . S
C207 C204 1.374 . S
C207 C208 1.390 . S
C207 H234 0.930 . S
C208 C207 1.390 . S
C208 C209 1.391 . S
C208 H235 0.930 . S
C209 C205 1.387 . S
C209 C208 1.391 . S
C210 Tb200 2.825 . S
C210 C204 1.507 . S
C210 O223 1.238 . S
C210 O224 1.247 . S
O211 Tb200 2.347 . S
O211 C215 1.259 . S
O212 Eu201 2.418 . S
O212 C215 1.265 . S
O213 Eu201 2.384 . S
O213 C222 1.255 . S
O214 Tb200 2.366 . S
O214 C222 1.265 . S
C215 O211 1.259 . S
C215 O212 1.265 . S
O216 Eu201 2.479 . S
O216 C231 1.238 . S
O217 Eu201 2.471 . S
O217 C231 1.247 . S
O218 Eu201 2.347 . S
O218 C202 1.259 . S
O219 Tb200 2.418 . S
O219 C202 1.265 . S
O220 Tb200 2.384 . S
O220 C203 1.255 . S
O221 Eu201 2.366 . S
O221 C203 1.265 . S
C222 O213 1.255 . S
C222 O214 1.265 . S
O223 Tb200 2.479 . S
O223 C210 1.238 . S
O224 Tb200 2.471 . S
O224 C210 1.247 . S
C225 C228 1.380 . S
C225 C229 1.374 . S
C225 C231 1.507 . S
C226 C227 1.387 . S
C226 C230 1.391 . S
C227 C226 1.387 . S
C227 C228 1.384 . S
C227 H236 0.930 . S
C228 C225 1.380 . S
C228 C227 1.384 . S
C228 H237 0.931 . S
C229 C225 1.374 . S
C229 C230 1.390 . S
C229 H238 0.930 . S
C230 C226 1.391 . S
C230 C229 1.390 . S
C230 H239 0.930 . S
C231 Eu201 2.825 . S
C231 O216 1.238 . S
C231 O217 1.247 . S
C231 C225 1.507 . S
H232 C205 0.930 . S
H233 C206 0.931 . S
H234 C207 0.930 . S
H235 C208 0.930 . S
H236 C227 0.930 . S
H237 C228 0.931 . S
H238 C229 0.930 . S
H239 C230 0.930 . S
Tb240 C250 2.825 . S
Tb240 O251 2.347 . S
Tb240 O254 2.366 . S
Tb240 O259 2.418 . S
Tb240 O260 2.384 . S
Tb240 O263 2.479 . S
Tb240 O264 2.471 . S
Eu241 O252 2.418 . S
Eu241 O253 2.384 . S
Eu241 O256 2.479 . S
Eu241 O257 2.471 . S
Eu241 O258 2.347 . S
Eu241 O261 2.366 . S
Eu241 C271 2.825 . S
C242 O258 1.259 . S
C242 O259 1.265 . S
C243 O260 1.255 . S
C243 O261 1.265 . S
C244 C246 1.380 . S
C244 C247 1.374 . S
C244 C250 1.507 . S
C245 C246 1.384 . S
C245 C249 1.387 . S
C245 H272 0.930 . S
C246 C244 1.380 . S
C246 C245 1.384 . S
C246 H273 0.931 . S
C247 C244 1.374 . S
C247 C248 1.390 . S
C247 H274 0.930 . S
C248 C247 1.390 . S
C248 C249 1.391 . S
C248 H275 0.930 . S
C249 C245 1.387 . S
C249 C248 1.391 . S
C250 Tb240 2.825 . S
C250 C244 1.507 . S
C250 O263 1.238 . S
C250 O264 1.247 . S
O251 Tb240 2.347 . S
O251 C255 1.259 . S
O252 Eu241 2.418 . S
O252 C255 1.265 . S
O253 Eu241 2.384 . S
O253 C262 1.255 . S
O254 Tb240 2.366 . S
O254 C262 1.265 . S
C255 O251 1.259 . S
C255 O252 1.265 . S
O256 Eu241 2.479 . S
O256 C271 1.238 . S
O257 Eu241 2.471 . S
O257 C271 1.247 . S
O258 Eu241 2.347 . S
O258 C242 1.259 . S
O259 Tb240 2.418 . S
O259 C242 1.265 . S
O260 Tb240 2.384 . S
O260 C243 1.255 . S
O261 Eu241 2.366 . S
O261 C243 1.265 . S
C262 O253 1.255 . S
C262 O254 1.265 . S
O263 Tb240 2.479 . S
O263 C250 1.238 . S
O264 Tb240 2.471 . S
O264 C250 1.247 . S
C265 C268 1.380 . S
C265 C269 1.374 . S
C265 C271 1.507 . S
C266 C267 1.387 . S
C266 C270 1.391 . S
C267 C266 1.387 . S
C267 C268 1.384 . S
C267 H276 0.930 . S
C268 C265 1.380 . S
C268 C267 1.384 . S
C268 H277 0.931 . S
C269 C265 1.374 . S
C269 C270 1.390 . S
C269 H278 0.930 . S
C270 C266 1.391 . S
C270 C269 1.390 . S
C270 H279 0.930 . S
C271 Eu241 2.825 . S
C271 O256 1.238 . S
C271 O257 1.247 . S
C271 C265 1.507 . S
H272 C245 0.930 . S
H273 C246 0.931 . S
H274 C247 0.930 . S
H275 C248 0.930 . S
H276 C267 0.930 . S
H277 C268 0.931 . S
H278 C269 0.930 . S
H279 C270 0.930 . S
Tb280 C290 2.825 . S
Tb280 O291 2.347 . S
Tb280 O294 2.366 1_655 S
Tb280 O299 2.418 1_655 S
Tb280 O300 2.384 . S
Tb280 O303 2.479 . S
Tb280 O304 2.471 . S
Eu281 O292 2.418 1_455 S
Eu281 O293 2.384 . S
Eu281 O296 2.479 . S
Eu281 O297 2.471 . S
Eu281 O298 2.347 . S
Eu281 O301 2.366 1_455 S
Eu281 C311 2.825 . S
C282 O298 1.259 . S
C282 O299 1.265 . S
C283 O300 1.255 . S
C283 O301 1.265 . S
C284 C286 1.380 . S
C284 C287 1.374 . S
C284 C290 1.507 . S
C285 C286 1.384 . S
C285 C289 1.387 . S
C285 H312 0.930 . S
C286 C284 1.380 . S
C286 C285 1.384 . S
C286 H313 0.931 . S
C287 C284 1.374 . S
C287 C288 1.390 . S
C287 H314 0.930 . S
C288 C287 1.390 . S
C288 C289 1.391 . S
C288 H315 0.930 . S
C289 C285 1.387 . S
C289 C288 1.391 . S
C290 Tb280 2.825 . S
C290 C284 1.507 . S
C290 O303 1.238 . S
C290 O304 1.247 . S
O291 Tb280 2.347 . S
O291 C295 1.259 . S
O292 Eu281 2.418 1_655 S
O292 C295 1.265 . S
O293 Eu281 2.384 . S
O293 C302 1.255 . S
O294 Tb280 2.366 1_455 S
O294 C302 1.265 . S
C295 O291 1.259 . S
C295 O292 1.265 . S
O296 Eu281 2.479 . S
O296 C311 1.238 . S
O297 Eu281 2.471 . S
O297 C311 1.247 . S
O298 Eu281 2.347 . S
O298 C282 1.259 . S
O299 Tb280 2.418 1_455 S
O299 C282 1.265 . S
O300 Tb280 2.384 . S
O300 C283 1.255 . S
O301 Eu281 2.366 1_655 S
O301 C283 1.265 . S
C302 O293 1.255 . S
C302 O294 1.265 . S
O303 Tb280 2.479 . S
O303 C290 1.238 . S
O304 Tb280 2.471 . S
O304 C290 1.247 . S
C305 C308 1.380 . S
C305 C309 1.374 . S
C305 C311 1.507 . S
C306 C307 1.387 . S
C306 C310 1.391 . S
C307 C306 1.387 . S
C307 C308 1.384 . S
C307 H316 0.930 . S
C308 C305 1.380 . S
C308 C307 1.384 . S
C308 H317 0.931 . S
C309 C305 1.374 . S
C309 C310 1.390 . S
C309 H318 0.930 . S
C310 C306 1.391 . S
C310 C309 1.390 . S
C310 H319 0.930 . S
C311 Eu281 2.825 . S
C311 O296 1.238 . S
C311 O297 1.247 . S
C311 C305 1.507 . S
H312 C285 0.930 . S
H313 C286 0.931 . S
H314 C287 0.930 . S
H315 C288 0.930 . S
H316 C307 0.930 . S
H317 C308 0.931 . S
H318 C309 0.930 . S
H319 C310 0.930 . S
Tb320 C330 2.825 . S
Tb320 O331 2.347 1_554 S
Tb320 O334 2.366 1_554 S
Tb320 O339 2.418 . S
Tb320 O340 2.384 . S
Tb320 O343 2.479 . S
Tb320 O344 2.471 . S
Eu321 O332 2.418 . S
Eu321 O333 2.384 . S
Eu321 O336 2.479 . S
Eu321 O337 2.471 . S
Eu321 O338 2.347 1_556 S
Eu321 O341 2.366 1_556 S
Eu321 C351 2.825 . S
C322 O338 1.259 . S
C322 O339 1.265 . S
C323 O340 1.255 . S
C323 O341 1.265 . S
C324 C326 1.380 . S
C324 C327 1.387 . S
C324 C330 1.507 . S
C325 C326 1.384 . S
C325 C329 1.387 . S
C325 H352 0.930 . S
C326 C324 1.380 . S
C326 C325 1.384 . S
C326 H353 0.931 . S
C327 C324 1.387 . S
C327 C328 1.395 1_554 S
C327 H354 0.913 1_554 S
C328 C327 1.395 1_556 S
C328 C329 1.391 1_556 S
C328 H355 0.930 . S
C329 C325 1.387 . S
C329 C328 1.391 1_554 S
C330 Tb320 2.825 . S
C330 C324 1.507 . S
C330 O343 1.238 . S
C330 O344 1.247 . S
O331 Tb320 2.347 1_556 S
O331 C335 1.259 . S
O332 Eu321 2.418 . S
O332 C335 1.265 . S
O333 Eu321 2.384 . S
O333 C342 1.255 . S
O334 Tb320 2.366 1_556 S
O334 C342 1.265 . S
C335 O331 1.259 . S
C335 O332 1.265 . S
O336 Eu321 2.479 . S
O336 C351 1.238 . S
O337 Eu321 2.471 . S
O337 C351 1.247 . S
O338 Eu321 2.347 1_554 S
O338 C322 1.259 . S
O339 Tb320 2.418 . S
O339 C322 1.265 . S
O340 Tb320 2.384 . S
O340 C323 1.255 . S
O341 Eu321 2.366 1_554 S
O341 C323 1.265 . S
C342 O333 1.255 . S
C342 O334 1.265 . S
O343 Tb320 2.479 . S
O343 C330 1.238 . S
O344 Tb320 2.471 . S
O344 C330 1.247 . S
C345 C348 1.380 . S
C345 C349 1.380 . S
C345 C351 1.507 . S
C346 C347 1.387 . S
C346 C350 1.391 1_556 S
C347 C346 1.387 . S
C347 C348 1.384 . S
C347 H356 0.930 . S
C348 C345 1.380 . S
C348 C347 1.384 . S
C348 H357 0.931 . S
C349 C345 1.380 . S
C349 C350 1.393 1_556 S
C349 H358 0.922 1_556 S
C350 C346 1.391 1_554 S
C350 C349 1.393 1_554 S
C350 H359 0.930 . S
C351 Eu321 2.825 . S
C351 O336 1.238 . S
C351 O337 1.247 . S
C351 C345 1.507 . S
H352 C325 0.930 . S
H353 C326 0.931 . S
H354 C327 0.913 1_556 S
H355 C328 0.930 . S
H356 C347 0.930 . S
H357 C348 0.931 . S
H358 C349 0.922 1_554 S
H359 C350 0.930 . S
Tb360 C370 2.825 1_565 S
Tb360 O371 2.347 1_565 S
Tb360 O374 2.366 1_565 S
Tb360 O379 2.418 . S
Tb360 O380 2.384 . S
Tb360 O383 2.479 . S
Tb360 O384 2.471 1_565 S
Eu361 O372 2.418 . S
Eu361 O373 2.384 . S
Eu361 O376 2.479 . S
Eu361 O377 2.471 1_545 S
Eu361 O378 2.347 1_545 S
Eu361 O381 2.366 1_545 S
Eu361 C391 2.829 1_545 S
C362 O378 1.259 . S
C362 O379 1.265 . S
C363 O380 1.255 . S
C363 O381 1.265 . S
C364 C366 1.380 1_545 S
C364 C367 1.374 . S
C364 C370 1.507 . S
C365 C366 1.384 1_545 S
C365 C369 1.387 . S
C365 H392 0.930 1_545 S
C366 C364 1.380 1_565 S
C366 C365 1.384 1_565 S
C366 H393 0.931 . S
C367 C364 1.374 . S
C367 C368 1.390 . S
C367 H394 0.930 . S
C368 C367 1.390 . S
C368 C369 1.391 . S
C368 H395 0.930 . S
C369 C365 1.387 . S
C369 C368 1.391 . S
C370 Tb360 2.825 1_545 S
C370 C364 1.507 . S
C370 O383 1.238 1_545 S
C370 O384 1.247 . S
O371 Tb360 2.347 1_545 S
O371 C375 1.259 . S
O372 Eu361 2.418 . S
O372 C375 1.265 . S
O373 Eu361 2.384 . S
O373 C382 1.255 . S
O374 Tb360 2.366 1_545 S
O374 C382 1.265 . S
C375 O371 1.259 . S
C375 O372 1.265 . S
O376 Eu361 2.479 . S
O376 C391 1.224 1_545 S
O377 Eu361 2.471 1_565 S
O377 C391 1.263 . S
O378 Eu361 2.347 1_565 S
O378 C362 1.259 . S
O379 Tb360 2.418 . S
O379 C362 1.265 . S
O380 Tb360 2.384 . S
O380 C363 1.255 . S
O381 Eu361 2.366 1_565 S
O381 C363 1.265 . S
C382 O373 1.255 . S
C382 O374 1.265 . S
O383 Tb360 2.479 . S
O383 C370 1.238 1_565 S
O384 Tb360 2.471 1_545 S
O384 C370 1.247 . S
C385 C388 1.380 1_565 S
C385 C389 1.374 . S
C385 C391 1.505 . S
C386 C387 1.387 . S
C386 C390 1.391 . S
C387 C386 1.387 . S
C387 C388 1.384 1_565 S
C387 H396 0.930 1_565 S
C388 C385 1.380 1_545 S
C388 C387 1.384 1_545 S
C388 H397 0.931 . S
C389 C385 1.374 . S
C389 C390 1.390 . S
C389 H398 0.930 . S
C390 C386 1.391 . S
C390 C389 1.390 . S
C390 H399 0.930 . S
C391 Eu361 2.829 1_565 S
C391 O376 1.224 1_565 S
C391 O377 1.263 . S
C391 C385 1.505 . S
H392 C365 0.930 1_565 S
H393 C366 0.931 . S
H394 C367 0.930 . S
H395 C368 0.930 . S
H396 C387 0.930 1_545 S
H397 C388 0.931 . S
H398 C389 0.930 . S
H399 C390 0.930 . S
Tb400 C410 2.825 . S
Tb400 O411 2.347 . S
Tb400 O414 2.366 . S
Tb400 O419 2.418 . S
Tb400 O420 2.384 . S
Tb400 O423 2.479 . S
Tb400 O424 2.471 . S
Eu401 O412 2.418 . S
Eu401 O413 2.384 . S
Eu401 O416 2.479 . S
Eu401 O417 2.471 . S
Eu401 O418 2.347 . S
Eu401 O421 2.366 . S
Eu401 C431 2.825 . S
C402 O418 1.259 . S
C402 O419 1.265 . S
C403 O420 1.255 . S
C403 O421 1.265 . S
C404 C406 1.380 . S
C404 C407 1.374 . S
C404 C410 1.507 . S
C405 C406 1.384 . S
C405 C409 1.387 . S
C405 H432 0.930 . S
C406 C404 1.380 . S
C406 C405 1.384 . S
C406 H433 0.931 . S
C407 C404 1.374 . S
C407 C408 1.390 . S
C407 H434 0.930 . S
C408 C407 1.390 . S
C408 C409 1.391 . S
C408 H435 0.930 . S
C409 C405 1.387 . S
C409 C408 1.391 . S
C410 Tb400 2.825 . S
C410 C404 1.507 . S
C410 O423 1.238 . S
C410 O424 1.247 . S
O411 Tb400 2.347 . S
O411 C415 1.259 . S
O412 Eu401 2.418 . S
O412 C415 1.265 . S
O413 Eu401 2.384 . S
O413 C422 1.255 . S
O414 Tb400 2.366 . S
O414 C422 1.265 . S
C415 O411 1.259 . S
C415 O412 1.265 . S
O416 Eu401 2.479 . S
O416 C431 1.238 . S
O417 Eu401 2.471 . S
O417 C431 1.247 . S
O418 Eu401 2.347 . S
O418 C402 1.259 . S
O419 Tb400 2.418 . S
O419 C402 1.265 . S
O420 Tb400 2.384 . S
O420 C403 1.255 . S
O421 Eu401 2.366 . S
O421 C403 1.265 . S
C422 O413 1.255 . S
C422 O414 1.265 . S
O423 Tb400 2.479 . S
O423 C410 1.238 . S
O424 Tb400 2.471 . S
O424 C410 1.247 . S
C425 C428 1.380 . S
C425 C429 1.374 . S
C425 C431 1.507 . S
C426 C427 1.387 . S
C426 C430 1.391 . S
C427 C426 1.387 . S
C427 C428 1.384 . S
C427 H436 0.930 . S
C428 C425 1.380 . S
C428 C427 1.384 . S
C428 H437 0.931 . S
C429 C425 1.374 . S
C429 C430 1.390 . S
C429 H438 0.930 . S
C430 C426 1.391 . S
C430 C429 1.390 . S
C430 H439 0.930 . S
C431 Eu401 2.825 . S
C431 O416 1.238 . S
C431 O417 1.247 . S
C431 C425 1.507 . S
H432 C405 0.930 . S
H433 C406 0.931 . S
H434 C407 0.930 . S
H435 C408 0.930 . S
H436 C427 0.930 . S
H437 C428 0.931 . S
H438 C429 0.930 . S
H439 C430 0.930 . S
Tb440 C450 2.825 . S
Tb440 O451 2.347 1_455 S
Tb440 O454 2.366 1_455 S
Tb440 O459 2.418 . S
Tb440 O460 2.384 . S
Tb440 O463 2.479 . S
Tb440 O464 2.471 1_455 S
Eu441 O452 2.418 . S
Eu441 O453 2.384 . S
Eu441 O456 2.479 . S
Eu441 O457 2.471 1_655 S
Eu441 O458 2.347 1_655 S
Eu441 O461 2.366 1_655 S
Eu441 C471 2.825 . S
C442 O458 1.259 . S
C442 O459 1.265 . S
C443 O460 1.255 . S
C443 O461 1.265 . S
C444 C446 1.380 1_655 S
C444 C447 1.374 . S
C444 C450 1.507 1_655 S
C445 C446 1.384 . S
C445 C449 1.387 1_455 S
C445 H472 0.930 . S
C446 C444 1.380 1_455 S
C446 C445 1.384 . S
C446 H473 0.931 . S
C447 C444 1.374 . S
C447 C448 1.390 . S
C447 H474 0.930 . S
C448 C447 1.390 . S
C448 C449 1.391 . S
C448 H475 0.930 . S
C449 C445 1.387 1_655 S
C449 C448 1.391 . S
C450 Tb440 2.825 . S
C450 C444 1.507 1_455 S
C450 O463 1.238 . S
C450 O464 1.247 1_455 S
O451 Tb440 2.347 1_655 S
O451 C455 1.259 . S
O452 Eu441 2.418 . S
O452 C455 1.265 . S
O453 Eu441 2.384 . S
O453 C462 1.255 . S
O454 Tb440 2.366 1_655 S
O454 C462 1.265 . S
C455 O451 1.259 . S
C455 O452 1.265 . S
O456 Eu441 2.479 . S
O456 C471 1.238 . S
O457 Eu441 2.471 1_455 S
O457 C471 1.247 1_455 S
O458 Eu441 2.347 1_455 S
O458 C442 1.259 . S
O459 Tb440 2.418 . S
O459 C442 1.265 . S
O460 Tb440 2.384 . S
O460 C443 1.255 . S
O461 Eu441 2.366 1_455 S
O461 C443 1.265 . S
C462 O453 1.255 . S
C462 O454 1.265 . S
O463 Tb440 2.479 . S
O463 C450 1.238 . S
O464 Tb440 2.471 1_655 S
O464 C450 1.247 1_655 S
C465 C468 1.380 1_455 S
C465 C469 1.374 . S
C465 C471 1.507 1_455 S
C466 C467 1.387 1_455 S
C466 C470 1.391 . S
C467 C466 1.387 1_655 S
C467 C468 1.384 . S
C467 H476 0.930 . S
C468 C465 1.380 1_655 S
C468 C467 1.384 . S
C468 H477 0.931 . S
C469 C465 1.374 . S
C469 C470 1.390 . S
C469 H478 0.930 . S
C470 C466 1.391 . S
C470 C469 1.390 . S
C470 H479 0.930 . S
C471 Eu441 2.825 . S
C471 O456 1.238 . S
C471 O457 1.247 1_655 S
C471 C465 1.507 1_655 S
H472 C445 0.930 . S
H473 C446 0.931 . S
H474 C447 0.930 . S
H475 C448 0.930 . S
H476 C467 0.930 . S
H477 C468 0.931 . S
H478 C469 0.930 . S
H479 C470 0.930 . S
Tb480 C490 2.825 . S
Tb480 O491 2.347 . S
Tb480 O494 2.366 . S
Tb480 O499 2.418 . S
Tb480 O500 2.384 . S
Tb480 O503 2.479 . S
Tb480 O504 2.471 . S
Eu481 O492 2.418 . S
Eu481 O493 2.384 . S
Eu481 O496 2.479 . S
Eu481 O497 2.471 . S
Eu481 O498 2.347 . S
Eu481 O501 2.366 . S
Eu481 C511 2.825 . S
C482 O498 1.259 . S
C482 O499 1.265 . S
C483 O500 1.255 . S
C483 O501 1.265 . S
C484 C486 1.380 . S
C484 C487 1.374 . S
C484 C490 1.507 . S
C485 C486 1.384 . S
C485 C489 1.387 . S
C485 H512 0.930 . S
C486 C484 1.380 . S
C486 C485 1.384 . S
C486 H513 0.931 . S
C487 C484 1.374 . S
C487 C488 1.390 . S
C487 H514 0.930 . S
C488 C487 1.390 . S
C488 C489 1.391 . S
C488 H515 0.930 . S
C489 C485 1.387 . S
C489 C488 1.391 . S
C490 Tb480 2.825 . S
C490 C484 1.507 . S
C490 O503 1.238 . S
C490 O504 1.247 . S
O491 Tb480 2.347 . S
O491 C495 1.259 . S
O492 Eu481 2.418 . S
O492 C495 1.265 . S
O493 Eu481 2.384 . S
O493 C502 1.255 . S
O494 Tb480 2.366 . S
O494 C502 1.265 . S
C495 O491 1.259 . S
C495 O492 1.265 . S
O496 Eu481 2.479 . S
O496 C511 1.238 . S
O497 Eu481 2.471 . S
O497 C511 1.247 . S
O498 Eu481 2.347 . S
O498 C482 1.259 . S
O499 Tb480 2.418 . S
O499 C482 1.265 . S
O500 Tb480 2.384 . S
O500 C483 1.255 . S
O501 Eu481 2.366 . S
O501 C483 1.265 . S
C502 O493 1.255 . S
C502 O494 1.265 . S
O503 Tb480 2.479 . S
O503 C490 1.238 . S
O504 Tb480 2.471 . S
O504 C490 1.247 . S
C505 C508 1.380 . S
C505 C509 1.374 . S
C505 C511 1.507 . S
C506 C507 1.387 . S
C506 C510 1.391 . S
C507 C506 1.387 . S
C507 C508 1.384 . S
C507 H516 0.930 . S
C508 C505 1.380 . S
C508 C507 1.384 . S
C508 H517 0.931 . S
C509 C505 1.374 . S
C509 C510 1.390 . S
C509 H518 0.930 . S
C510 C506 1.391 . S
C510 C509 1.390 . S
C510 H519 0.930 . S
C511 Eu481 2.825 . S
C511 O496 1.238 . S
C511 O497 1.247 . S
C511 C505 1.507 . S
H512 C485 0.930 . S
H513 C486 0.931 . S
H514 C487 0.930 . S
H515 C488 0.930 . S
H516 C507 0.930 . S
H517 C508 0.931 . S
H518 C509 0.930 . S
H519 C510 0.930 . S
Tb520 C530 2.825 . S
Tb520 O531 2.347 1_554 S
Tb520 O534 2.366 1_554 S
Tb520 O539 2.418 . S
Tb520 O540 2.384 . S
Tb520 O543 2.479 . S
Tb520 O544 2.471 . S
Eu521 O532 2.418 . S
Eu521 O533 2.384 . S
Eu521 O536 2.479 . S
Eu521 O537 2.471 . S
Eu521 O538 2.347 1_556 S
Eu521 O541 2.366 1_556 S
Eu521 C551 2.825 . S
C522 O538 1.259 . S
C522 O539 1.265 . S
C523 O540 1.255 . S
C523 O541 1.265 . S
C524 C526 1.380 . S
C524 C527 1.386 . S
C524 C530 1.507 . S
C525 C526 1.384 . S
C525 C529 1.387 . S
C525 H552 0.930 . S
C526 C524 1.380 . S
C526 C525 1.384 . S
C526 H553 0.931 . S
C527 C524 1.386 . S
C527 C528 1.395 1_554 S
C527 H554 0.913 1_554 S
C528 C527 1.395 1_556 S
C528 C529 1.391 1_556 S
C528 H555 0.930 . S
C529 C525 1.387 . S
C529 C528 1.391 1_554 S
C530 Tb520 2.825 . S
C530 C524 1.507 . S
C530 O543 1.238 . S
C530 O544 1.247 . S
O531 Tb520 2.347 1_556 S
O531 C535 1.259 . S
O532 Eu521 2.418 . S
O532 C535 1.265 . S
O533 Eu521 2.384 . S
O533 C542 1.255 . S
O534 Tb520 2.366 1_556 S
O534 C542 1.265 . S
C535 O531 1.259 . S
C535 O532 1.265 . S
O536 Eu521 2.479 . S
O536 C551 1.238 . S
O537 Eu521 2.471 . S
O537 C551 1.247 . S
O538 Eu521 2.347 1_554 S
O538 C522 1.259 . S
O539 Tb520 2.418 . S
O539 C522 1.265 . S
O540 Tb520 2.384 . S
O540 C523 1.255 . S
O541 Eu521 2.366 1_554 S
O541 C523 1.265 . S
C542 O533 1.255 . S
C542 O534 1.265 . S
O543 Tb520 2.479 . S
O543 C530 1.238 . S
O544 Tb520 2.471 . S
O544 C530 1.247 . S
C545 C548 1.380 . S
C545 C549 1.379 . S
C545 C551 1.507 . S
C546 C547 1.387 . S
C546 C550 1.391 1_556 S
C547 C546 1.387 . S
C547 C548 1.384 . S
C547 H556 0.930 . S
C548 C545 1.380 . S
C548 C547 1.384 . S
C548 H557 0.931 . S
C549 C545 1.379 . S
C549 C550 1.393 1_556 S
C549 H558 0.923 1_556 S
C550 C546 1.391 1_554 S
C550 C549 1.393 1_554 S
C550 H559 0.930 . S
C551 Eu521 2.825 . S
C551 O536 1.238 . S
C551 O537 1.247 . S
C551 C545 1.507 . S
H552 C525 0.930 . S
H553 C526 0.931 . S
H554 C527 0.913 1_556 S
H555 C528 0.930 . S
H556 C547 0.930 . S
H557 C548 0.931 . S
H558 C549 0.923 1_554 S
H559 C550 0.930 . S
Tb560 C570 2.825 . S
Tb560 O571 2.347 1_565 S
Tb560 O574 2.366 . S
Tb560 O579 2.418 . S
Tb560 O580 2.384 1_565 S
Tb560 O583 2.479 . S
Tb560 O584 2.471 . S
Eu561 O572 2.418 . S
Eu561 O573 2.384 1_545 S
Eu561 O576 2.479 . S
Eu561 O577 2.471 . S
Eu561 O578 2.347 1_545 S
Eu561 O581 2.366 . S
Eu561 C591 2.825 . S
C562 O578 1.259 . S
C562 O579 1.265 . S
C563 O580 1.255 . S
C563 O581 1.265 . S
C564 C566 1.380 . S
C564 C567 1.374 . S
C564 C570 1.507 . S
C565 C566 1.384 . S
C565 C569 1.387 . S
C565 H592 0.930 . S
C566 C564 1.380 . S
C566 C565 1.384 . S
C566 H593 0.931 . S
C567 C564 1.374 . S
C567 C568 1.390 . S
C567 H594 0.930 . S
C568 C567 1.390 . S
C568 C569 1.391 . S
C568 H595 0.930 . S
C569 C565 1.387 . S
C569 C568 1.391 . S
C570 Tb560 2.825 . S
C570 C564 1.507 . S
C570 O583 1.238 . S
C570 O584 1.247 . S
O571 Tb560 2.347 1_545 S
O571 C575 1.259 . S
O572 Eu561 2.418 . S
O572 C575 1.265 . S
O573 Eu561 2.384 1_565 S
O573 C582 1.255 . S
O574 Tb560 2.366 . S
O574 C582 1.265 . S
C575 O571 1.259 . S
C575 O572 1.265 . S
O576 Eu561 2.479 . S
O576 C591 1.238 . S
O577 Eu561 2.471 . S
O577 C591 1.247 . S
O578 Eu561 2.347 1_565 S
O578 C562 1.259 . S
O579 Tb560 2.418 . S
O579 C562 1.265 . S
O580 Tb560 2.384 1_545 S
O580 C563 1.255 . S
O581 Eu561 2.366 . S
O581 C563 1.265 . S
C582 O573 1.255 . S
C582 O574 1.265 . S
O583 Tb560 2.479 . S
O583 C570 1.238 . S
O584 Tb560 2.471 . S
O584 C570 1.247 . S
C585 C588 1.380 . S
C585 C589 1.374 . S
C585 C591 1.507 . S
C586 C587 1.387 . S
C586 C590 1.391 . S
C587 C586 1.387 . S
C587 C588 1.384 . S
C587 H596 0.930 . S
C588 C585 1.380 . S
C588 C587 1.384 . S
C588 H597 0.931 . S
C589 C585 1.374 . S
C589 C590 1.390 . S
C589 H598 0.930 . S
C590 C586 1.391 . S
C590 C589 1.390 . S
C590 H599 0.930 . S
C591 Eu561 2.825 . S
C591 O576 1.238 . S
C591 O577 1.247 . S
C591 C585 1.507 . S
H592 C565 0.930 . S
H593 C566 0.931 . S
H594 C567 0.930 . S
H595 C568 0.930 . S
H596 C587 0.930 . S
H597 C588 0.931 . S
H598 C589 0.930 . S
H599 C590 0.930 . S
Tb600 C610 2.825 . S
Tb600 O611 2.347 1_554 S
Tb600 O614 2.370 . S
Tb600 O619 2.418 . S
Tb600 O620 2.384 . S
Tb600 O623 2.479 . S
Tb600 O624 2.471 . S
Eu601 O612 2.418 . S
Eu601 O613 2.384 . S
Eu601 O616 2.479 . S
Eu601 O617 2.471 . S
Eu601 O618 2.347 1_556 S
Eu601 O621 2.366 1_556 S
Eu601 C631 2.825 . S
C602 O618 1.259 . S
C602 O619 1.265 . S
C603 O620 1.255 . S
C603 O621 1.265 . S
C604 C606 1.380 . S
C604 C607 1.374 . S
C604 C610 1.507 . S
C605 C606 1.384 . S
C605 C609 1.387 . S
C605 H632 0.930 . S
C606 C604 1.380 . S
C606 C605 1.384 . S
C606 H633 0.931 . S
C607 C604 1.374 . S
C607 C608 1.390 . S
C607 H634 0.930 . S
C608 C607 1.390 . S
C608 C609 1.391 . S
C608 H635 0.930 . S
C609 C605 1.387 . S
C609 C608 1.391 . S
C610 Tb600 2.825 . S
C610 C604 1.507 . S
C610 O623 1.238 . S
C610 O624 1.247 . S
O611 Tb600 2.347 1_556 S
O611 C615 1.259 . S
O612 Eu601 2.418 . S
O612 C615 1.265 . S
O613 Eu601 2.384 . S
O613 C622 1.255 . S
O614 Tb600 2.370 . S
O614 C622 1.260 1_554 S
C615 O611 1.259 . S
C615 O612 1.265 . S
O616 Eu601 2.479 . S
O616 C631 1.238 . S
O617 Eu601 2.471 . S
O617 C631 1.247 . S
O618 Eu601 2.347 1_554 S
O618 C602 1.259 . S
O619 Tb600 2.418 . S
O619 C602 1.265 . S
O620 Tb600 2.384 . S
O620 C603 1.255 . S
O621 Eu601 2.366 1_554 S
O621 C603 1.265 . S
C622 O613 1.255 . S
C622 O614 1.260 1_556 S
O623 Tb600 2.479 . S
O623 C610 1.238 . S
O624 Tb600 2.471 . S
O624 C610 1.247 . S
C625 C628 1.380 . S
C625 C629 1.374 . S
C625 C631 1.507 . S
C626 C627 1.387 . S
C626 C630 1.391 . S
C627 C626 1.387 . S
C627 C628 1.384 . S
C627 H636 0.930 . S
C628 C625 1.380 . S
C628 C627 1.384 . S
C628 H637 0.931 . S
C629 C625 1.374 . S
C629 C630 1.390 . S
C629 H638 0.930 . S
C630 C626 1.391 . S
C630 C629 1.390 . S
C630 H639 0.930 . S
C631 Eu601 2.825 . S
C631 O616 1.238 . S
C631 O617 1.247 . S
C631 C625 1.507 . S
H632 C605 0.930 . S
H633 C606 0.931 . S
H634 C607 0.930 . S
H635 C608 0.930 . S
H636 C627 0.930 . S
H637 C628 0.931 . S
H638 C629 0.930 . S
H639 C630 0.930 . S
C640 C641 1.387 . S
C640 H644 0.950 . S
C640 C649 1.390 1_655 S
C641 C640 1.387 . S
C641 C643 1.387 . S
H642 C649 0.950 . S
C643 C641 1.387 . S
C643 C645 1.390 1_654 S
C643 H647 0.950 1_554 S
H644 C640 0.950 . S
C645 C643 1.390 1_456 S
C645 C646 1.387 1_556 S
C645 H648 0.950 . S
C646 C645 1.387 1_554 S
C646 C649 1.387 . S
H647 C643 0.950 1_556 S
H648 C645 0.950 . S
C649 C640 1.390 1_455 S
C649 H642 0.950 . S
C649 C646 1.387 . S
C650 C651 1.387 . S
C650 H654 0.950 . S
C650 C659 1.390 . S
C651 C650 1.387 . S
C651 C653 1.387 . S
H652 C659 0.950 . S
C653 C651 1.387 . S
C653 C655 1.390 . S
C653 H657 0.950 . S
H654 C650 0.950 . S
C655 C653 1.390 . S
C655 C656 1.387 . S
C655 H658 0.950 . S
C656 C655 1.387 . S
C656 C659 1.387 . S
H657 C653 0.950 . S
H658 C655 0.950 . S
C659 C650 1.390 . S
C659 H652 0.950 . S
C659 C656 1.387 . S
C660 C661 1.387 . S
C660 H664 0.950 . S
C660 C669 1.390 . S
C661 C660 1.387 . S
C661 C663 1.387 . S
H662 C669 0.950 . S
C663 C661 1.387 . S
C663 C665 1.390 . S
C663 H667 0.950 . S
H664 C660 0.950 . S
C665 C663 1.390 . S
C665 C666 1.387 . S
C665 H668 0.950 . S
C666 C665 1.387 . S
C666 C669 1.387 . S
H667 C663 0.950 . S
H668 C665 0.950 . S
C669 C660 1.390 . S
C669 H662 0.950 . S
C669 C666 1.387 . S
C670 C671 1.387 . S
C670 H674 0.950 . S
C670 C679 1.390 1_545 S
C671 C670 1.387 . S
C671 C673 1.387 . S
H672 C679 0.950 . S
C673 C671 1.387 . S
C673 C675 1.390 1_545 S
C673 H677 0.950 1_556 S
H674 C670 0.950 . S
C675 C673 1.390 1_565 S
C675 C676 1.387 . S
C675 H678 0.950 1_556 S
C676 C675 1.387 . S
C676 C679 1.387 . S
H677 C673 0.950 1_554 S
H678 C675 0.950 1_554 S
C679 C670 1.390 1_565 S
C679 H672 0.950 . S
C679 C676 1.387 . S
C680 C681 1.387 . S
C680 H684 0.950 1_554 S
C680 C689 1.390 1_565 S
C681 C680 1.387 . S
C681 C683 1.387 . S
H682 C689 0.950 1_556 S
C683 C681 1.387 . S
C683 C685 1.390 1_565 S
C683 H687 0.950 . S
H684 C680 0.950 1_556 S
C685 C683 1.390 1_545 S
C685 C686 1.387 . S
C685 H688 0.950 . S
C686 C685 1.387 . S
C686 C689 1.387 . S
H687 C683 0.950 . S
H688 C685 0.950 . S
C689 C680 1.390 1_545 S
C689 H682 0.950 1_554 S
C689 C686 1.387 . S
C690 C691 1.387 . S
C690 H694 0.950 . S
C690 C699 1.390 1_455 S
C691 C690 1.387 . S
C691 C693 1.387 . S
H692 C699 0.950 . S
C693 C691 1.387 . S
C693 C695 1.390 1_455 S
C693 H697 0.950 . S
H694 C690 0.950 . S
C695 C693 1.390 1_655 S
C695 C696 1.387 . S
C695 H698 0.950 . S
C696 C695 1.387 . S
C696 C699 1.387 . S
H697 C693 0.950 . S
H698 C695 0.950 . S
C699 C690 1.390 1_655 S
C699 H692 0.950 . S
C699 C696 1.387 . S
C700 C701 1.387 . S
C700 H704 0.950 . S
C700 C709 1.390 . S
C701 C700 1.387 . S
C701 C703 1.387 . S
H702 C709 0.950 . S
C703 C701 1.387 . S
C703 C705 1.390 . S
C703 H707 0.950 . S
H704 C700 0.950 . S
C705 C703 1.390 . S
C705 C706 1.387 . S
C705 H708 0.950 . S
C706 C705 1.387 . S
C706 C709 1.387 . S
H707 C703 0.950 . S
H708 C705 0.950 . S
C709 C700 1.390 . S
C709 H702 0.950 . S
C709 C706 1.387 . S
C710 C711 1.387 . S
C710 H714 0.950 . S
C710 C719 1.390 . S
C711 C710 1.387 . S
C711 C713 1.387 . S
H712 C719 0.950 . S
C713 C711 1.387 . S
C713 C715 1.390 . S
C713 H717 0.950 . S
H714 C710 0.950 . S
C715 C713 1.390 . S
C715 C716 1.387 . S
C715 H718 0.950 . S
C716 C715 1.387 . S
C716 C719 1.387 . S
H717 C713 0.950 . S
H718 C715 0.950 . S
C719 C710 1.390 . S
C719 H712 0.950 . S
C719 C716 1.387 . S
C720 C721 1.387 . S
C720 H724 0.950 . S
C720 C729 1.390 . S
C721 C720 1.387 . S
C721 C723 1.387 . S
H722 C729 0.950 . S
C723 C721 1.387 . S
C723 C725 1.390 . S
C723 H727 0.950 . S
H724 C720 0.950 . S
C725 C723 1.390 . S
C725 C726 1.387 . S
C725 H728 0.950 . S
C726 C725 1.387 . S
C726 C729 1.387 . S
H727 C723 0.950 . S
H728 C725 0.950 . S
C729 C720 1.390 . S
C729 H722 0.950 . S
C729 C726 1.387 . S
C730 C731 1.387 . S
C730 H734 0.950 . S
C730 C739 1.390 . S
C731 C730 1.387 . S
C731 C733 1.387 . S
H732 C739 0.950 . S
C733 C731 1.387 . S
C733 C735 1.390 . S
C733 H737 0.950 . S
H734 C730 0.950 . S
C735 C733 1.390 . S
C735 C736 1.387 . S
C735 H738 0.950 . S
C736 C735 1.387 . S
C736 C739 1.387 . S
H737 C733 0.950 . S
H738 C735 0.950 . S
C739 C730 1.390 . S
C739 H732 0.950 . S
C739 C736 1.387 . S
C740 C741 1.387 . S
C740 H744 0.950 . S
C740 C749 1.390 1_565 S
C741 C740 1.387 . S
C741 C743 1.387 . S
H742 C749 0.950 . S
C743 C741 1.387 . S
C743 C745 1.390 1_565 S
C743 H747 0.950 . S
H744 C740 0.950 . S
C745 C743 1.390 1_545 S
C745 C746 1.387 . S
C745 H748 0.950 . S
C746 C745 1.387 . S
C746 C749 1.387 . S
H747 C743 0.950 . S
H748 C745 0.950 . S
C749 C740 1.390 1_545 S
C749 H742 0.950 . S
C749 C746 1.387 . S
C750 C751 1.387 . S
C750 H754 0.950 . S
C750 C759 1.390 . S
C751 C750 1.387 . S
C751 C753 1.387 1_455 S
H752 C759 0.950 . S
C753 C751 1.387 1_655 S
C753 C755 1.390 . S
C753 H757 0.950 . S
H754 C750 0.950 . S
C755 C753 1.390 . S
C755 C756 1.387 . S
C755 H758 0.950 . S
C756 C755 1.387 . S
C756 C759 1.387 1_655 S
H757 C753 0.950 . S
H758 C755 0.950 . S
C759 C750 1.390 . S
C759 H752 0.950 . S
C759 C756 1.387 1_455 S
C760 C761 1.387 . S
C760 H764 0.950 . S
C760 C769 1.390 . S
C761 C760 1.387 . S
C761 C763 1.387 . S
H762 C769 0.950 1_554 S
C763 C761 1.387 . S
C763 C765 1.390 . S
C763 H767 0.950 . S
H764 C760 0.950 . S
C765 C763 1.390 . S
C765 C766 1.387 . S
C765 H768 0.950 . S
C766 C765 1.387 . S
C766 C769 1.387 . S
H767 C763 0.950 . S
H768 C765 0.950 . S
C769 C760 1.390 . S
C769 H762 0.950 1_556 S
C769 C766 1.387 . S
C770 C771 1.387 . S
C770 H774 0.950 . S
C770 C779 1.390 . S
C771 C770 1.387 . S
C771 C773 1.387 . S
H772 C779 0.950 . S
C773 C771 1.387 . S
C773 C775 1.390 . S
C773 H777 0.950 . S
H774 C770 0.950 . S
C775 C773 1.390 . S
C775 C776 1.387 . S
C775 H778 0.950 . S
C776 C775 1.387 . S
C776 C779 1.387 . S
H777 C773 0.950 . S
H778 C775 0.950 . S
C779 C770 1.390 . S
C779 H772 0.950 . S
C779 C776 1.387 . S
C780 C781 1.387 . S
C780 H784 0.950 . S
C780 C789 1.390 . S
C781 C780 1.387 . S
C781 C783 1.387 . S
H782 C789 0.950 . S
C783 C781 1.387 . S
C783 C785 1.390 . S
C783 H787 0.950 . S
H784 C780 0.950 . S
C785 C783 1.390 . S
C785 C786 1.387 . S
C785 H788 0.950 . S
C786 C785 1.387 . S
C786 C789 1.387 . S
H787 C783 0.950 . S
H788 C785 0.950 . S
C789 C780 1.390 . S
C789 H782 0.950 . S
C789 C786 1.387 . S
C790 C791 1.387 . S
C790 H794 0.950 . S
C790 C799 1.390 . S
C791 C790 1.387 . S
C791 C793 1.387 . S
H792 C799 0.950 . S
C793 C791 1.387 . S
C793 C795 1.390 . S
C793 H797 0.950 . S
H794 C790 0.950 . S
C795 C793 1.390 . S
C795 C796 1.387 . S
C795 H798 0.950 . S
C796 C795 1.387 . S
C796 C799 1.387 . S
H797 C793 0.950 . S
H798 C795 0.950 . S
C799 C790 1.390 . S
C799 H792 0.950 . S
C799 C796 1.387 . S
C800 C801 1.387 . S
C800 H804 0.950 . S
C800 C809 1.390 . S
C801 C800 1.387 . S
C801 C803 1.387 . S
H802 C809 0.950 . S
C803 C801 1.387 . S
C803 C805 1.390 . S
C803 H807 0.950 . S
H804 C800 0.950 . S
C805 C803 1.390 . S
C805 C806 1.387 . S
C805 H808 0.950 . S
C806 C805 1.387 . S
C806 C809 1.387 . S
H807 C803 0.950 . S
H808 C805 0.950 . S
C809 C800 1.390 . S
C809 H802 0.950 . S
C809 C806 1.387 . S
C810 C811 1.387 . S
C810 H814 0.950 . S
C810 C819 1.390 . S
C811 C810 1.387 . S
C811 C813 1.387 . S
H812 C819 0.950 . S
C813 C811 1.387 . S
C813 C815 1.390 . S
C813 H817 0.950 . S
H814 C810 0.950 . S
C815 C813 1.390 . S
C815 C816 1.387 . S
C815 H818 0.950 . S
C816 C815 1.387 . S
C816 C819 1.387 . S
H817 C813 0.950 . S
H818 C815 0.950 . S
C819 C810 1.390 . S
C819 H812 0.950 . S
C819 C816 1.387 . S
C820 C821 1.387 . S
C820 H824 0.950 . S
C820 C829 1.390 . S
C821 C820 1.387 . S
C821 C823 1.387 . S
H822 C829 0.950 . S
C823 C821 1.387 . S
C823 C825 1.390 . S
C823 H827 0.950 . S
H824 C820 0.950 . S
C825 C823 1.390 . S
C825 C826 1.387 . S
C825 H828 0.950 . S
C826 C825 1.387 . S
C826 C829 1.387 . S
H827 C823 0.950 . S
H828 C825 0.950 . S
C829 C820 1.390 . S
C829 H822 0.950 . S
C829 C826 1.387 . S
C830 C831 1.387 . S
C830 H834 0.950 . S
C830 C839 1.390 . S
C831 C830 1.387 . S
C831 C833 1.387 . S
H832 C839 0.950 . S
C833 C831 1.387 . S
C833 C835 1.390 . S
C833 H837 0.950 . S
H834 C830 0.950 . S
C835 C833 1.390 . S
C835 C836 1.387 . S
C835 H838 0.950 . S
C836 C835 1.387 . S
C836 C839 1.387 . S
H837 C833 0.950 . S
H838 C835 0.950 . S
C839 C830 1.390 . S
C839 H832 0.950 . S
C839 C836 1.387 . S
C840 C841 1.387 . S
C840 H844 0.950 . S
C840 C849 1.390 . S
C841 C840 1.387 . S
C841 C843 1.387 . S
H842 C849 0.950 . S
C843 C841 1.387 . S
C843 C845 1.390 . S
C843 H847 0.950 . S
H844 C840 0.950 . S
C845 C843 1.390 . S
C845 C846 1.387 . S
C845 H848 0.950 . S
C846 C845 1.387 . S
C846 C849 1.387 . S
H847 C843 0.950 . S
H848 C845 0.950 . S
C849 C840 1.390 . S
C849 H842 0.950 . S
C849 C846 1.387 . S
C850 C851 1.387 . S
C850 H854 0.950 . S
C850 C859 1.390 1_455 S
C851 C850 1.387 . S
C851 C853 1.387 . S
H852 C859 0.950 . S
C853 C851 1.387 . S
C853 C855 1.390 1_455 S
C853 H857 0.950 . S
H854 C850 0.950 . S
C855 C853 1.390 1_655 S
C855 C856 1.387 . S
C855 H858 0.950 . S
C856 C855 1.387 . S
C856 C859 1.387 . S
H857 C853 0.950 . S
H858 C855 0.950 . S
C859 C850 1.390 1_655 S
C859 H852 0.950 . S
C859 C856 1.387 . S
C860 C861 1.387 . S
C860 H864 0.950 . S
C860 C869 1.390 . S
C861 C860 1.387 . S
C861 C863 1.387 . S
H862 C869 0.950 . S
C863 C861 1.387 . S
C863 C865 1.390 . S
C863 H867 0.950 . S
H864 C860 0.950 . S
C865 C863 1.390 . S
C865 C866 1.387 . S
C865 H868 0.950 . S
C866 C865 1.387 . S
C866 C869 1.387 . S
H867 C863 0.950 . S
H868 C865 0.950 . S
C869 C860 1.390 . S
C869 H862 0.950 . S
C869 C866 1.387 . S
C870 C871 1.387 . S
C870 H874 0.950 . S
C870 C879 1.390 . S
C871 C870 1.387 . S
C871 C873 1.387 . S
H872 C879 0.950 . S
C873 C871 1.387 . S
C873 C875 1.390 . S
C873 H877 0.950 . S
H874 C870 0.950 . S
C875 C873 1.390 . S
C875 C876 1.387 . S
C875 H878 0.950 . S
C876 C875 1.387 . S
C876 C879 1.387 . S
H877 C873 0.950 . S
H878 C875 0.950 . S
C879 C870 1.390 . S
C879 H872 0.950 . S
C879 C876 1.387 . S
C880 C881 1.387 . S
C880 H884 0.950 . S
C880 C889 1.390 . S
C881 C880 1.387 . S
C881 C883 1.387 . S
H882 C889 0.950 . S
C883 C881 1.387 . S
C883 C885 1.390 . S
C883 H887 0.950 . S
H884 C880 0.950 . S
C885 C883 1.390 . S
C885 C886 1.387 . S
C885 H888 0.950 . S
C886 C885 1.387 . S
C886 C889 1.387 . S
H887 C883 0.950 . S
H888 C885 0.950 . S
C889 C880 1.390 . S
C889 H882 0.950 . S
C889 C886 1.387 . S
C890 C891 1.387 . S
C890 H894 0.950 . S
C890 C899 1.390 . S
C891 C890 1.387 . S
C891 C893 1.387 . S
H892 C899 0.950 . S
C893 C891 1.387 . S
C893 C895 1.390 . S
C893 H897 0.950 . S
H894 C890 0.950 . S
C895 C893 1.390 . S
C895 C896 1.387 . S
C895 H898 0.950 . S
C896 C895 1.387 . S
C896 C899 1.387 . S
H897 C893 0.950 . S
H898 C895 0.950 . S
C899 C890 1.390 . S
C899 H892 0.950 . S
C899 C896 1.387 . S
C900 C901 1.387 . S
C900 H904 0.950 . S
C900 C909 1.390 1_565 S
C901 C900 1.387 . S
C901 C903 1.387 . S
H902 C909 0.950 . S
C903 C901 1.387 . S
C903 C905 1.390 1_565 S
C903 H907 0.950 . S
H904 C900 0.950 . S
C905 C903 1.390 1_545 S
C905 C906 1.387 . S
C905 H908 0.950 . S
C906 C905 1.387 . S
C906 C909 1.387 . S
H907 C903 0.950 . S
H908 C905 0.950 . S
C909 C900 1.390 1_545 S
C909 H902 0.950 . S
C909 C906 1.387 . S
C910 C911 1.387 . S
C910 H914 0.950 . S
C910 C919 1.390 . S
C911 C910 1.387 . S
C911 C913 1.387 . S
H912 C919 0.950 . S
C913 C911 1.387 . S
C913 C915 1.390 . S
C913 H917 0.950 . S
H914 C910 0.950 . S
C915 C913 1.390 . S
C915 C916 1.387 . S
C915 H918 0.950 . S
C916 C915 1.387 . S
C916 C919 1.387 . S
H917 C913 0.950 . S
H918 C915 0.950 . S
C919 C910 1.390 . S
C919 H912 0.950 . S
C919 C916 1.387 . S
C920 C921 1.387 . S
C920 H924 0.950 . S
C920 C929 1.390 . S
C921 C920 1.387 . S
C921 C923 1.387 . S
H922 C929 0.950 . S
C923 C921 1.387 . S
C923 C925 1.390 . S
C923 H927 0.950 . S
H924 C920 0.950 . S
C925 C923 1.390 . S
C925 C926 1.387 . S
C925 H928 0.950 . S
C926 C925 1.387 . S
C926 C929 1.387 . S
H927 C923 0.950 . S
H928 C925 0.950 . S
C929 C920 1.390 . S
C929 H922 0.950 . S
C929 C926 1.387 . S
C930 C931 1.387 . S
C930 H934 0.950 . S
C930 C939 1.390 . S
C931 C930 1.387 . S
C931 C933 1.387 . S
H932 C939 0.950 . S
C933 C931 1.387 . S
C933 C935 1.390 . S
C933 H937 0.950 . S
H934 C930 0.950 . S
C935 C933 1.390 . S
C935 C936 1.387 . S
C935 H938 0.950 . S
C936 C935 1.387 . S
C936 C939 1.387 . S
H937 C933 0.950 . S
H938 C935 0.950 . S
C939 C930 1.390 . S
C939 H932 0.950 . S
C939 C936 1.387 . S
C940 C941 1.387 . S
C940 H944 0.950 . S
C940 C949 1.390 . S
C941 C940 1.387 . S
C941 C943 1.387 . S
H942 C949 0.950 . S
C943 C941 1.387 . S
C943 C945 1.390 . S
C943 H947 0.950 . S
H944 C940 0.950 . S
C945 C943 1.390 . S
C945 C946 1.387 . S
C945 H948 0.950 . S
C946 C945 1.387 . S
C946 C949 1.387 . S
H947 C943 0.950 . S
H948 C945 0.950 . S
C949 C940 1.390 . S
C949 H942 0.950 . S
C949 C946 1.387 . S
C950 C951 1.387 . S
C950 H954 0.950 . S
C950 C959 1.390 . S
C951 C950 1.387 . S
C951 C953 1.387 . S
H952 C959 0.950 . S
C953 C951 1.387 . S
C953 C955 1.390 . S
C953 H957 0.950 . S
H954 C950 0.950 . S
C955 C953 1.390 . S
C955 C956 1.387 . S
C955 H958 0.950 . S
C956 C955 1.387 . S
C956 C959 1.387 . S
H957 C953 0.950 . S
H958 C955 0.950 . S
C959 C950 1.390 . S
C959 H952 0.950 . S
C959 C956 1.387 . S
C960 C961 1.387 . S
C960 H964 0.950 . S
C960 C969 1.390 . S
C961 C960 1.387 . S
C961 C963 1.387 . S
H962 C969 0.950 . S
C963 C961 1.387 . S
C963 C965 1.390 . S
C963 H967 0.950 . S
H964 C960 0.950 . S
C965 C963 1.390 . S
C965 C966 1.387 . S
C965 H968 0.950 . S
C966 C965 1.387 . S
C966 C969 1.387 . S
H967 C963 0.950 . S
H968 C965 0.950 . S
C969 C960 1.390 . S
C969 H962 0.950 . S
C969 C966 1.387 . S
C970 C971 1.387 . S
C970 H974 0.950 . S
C970 C979 1.390 . S
C971 C970 1.387 . S
C971 C973 1.387 . S
H972 C979 0.950 . S
C973 C971 1.387 . S
C973 C975 1.390 . S
C973 H977 0.950 . S
H974 C970 0.950 . S
C975 C973 1.390 . S
C975 C976 1.387 . S
C975 H978 0.950 . S
C976 C975 1.387 . S
C976 C979 1.387 . S
H977 C973 0.950 . S
H978 C975 0.950 . S
C979 C970 1.390 . S
C979 H972 0.950 . S
C979 C976 1.387 . S
C980 C981 1.387 . S
C980 H984 0.950 . S
C980 C989 1.390 . S
C981 C980 1.387 . S
C981 C983 1.387 . S
H982 C989 0.950 . S
C983 C981 1.387 . S
C983 C985 1.390 . S
C983 H987 0.950 . S
H984 C980 0.950 . S
C985 C983 1.390 . S
C985 C986 1.387 . S
C985 H988 0.950 . S
C986 C985 1.387 . S
C986 C989 1.387 . S
H987 C983 0.950 . S
H988 C985 0.950 . S
C989 C980 1.390 . S
C989 H982 0.950 . S
C989 C986 1.387 . S
C990 C991 1.387 . S
C990 H994 0.950 . S
C990 C999 1.390 . S
C991 C990 1.387 . S
C991 C993 1.387 . S
H992 C999 0.950 . S
C993 C991 1.387 . S
C993 C995 1.390 . S
C993 H997 0.950 . S
H994 C990 0.950 . S
C995 C993 1.390 . S
C995 C996 1.387 . S
C995 H998 0.950 . S
C996 C995 1.387 . S
C996 C999 1.387 . S
H997 C993 0.950 . S
H998 C995 0.950 . S
C999 C990 1.390 . S
C999 H992 0.950 . S
C999 C996 1.387 . S
C1000 C1001 1.387 . S
C1000 H1004 0.950 . S
C1000 C1009 1.390 . S
C1001 C1000 1.387 . S
C1001 C1003 1.387 . S
H1002 C1009 0.950 . S
C1003 C1001 1.387 . S
C1003 C1005 1.390 . S
C1003 H1007 0.950 . S
H1004 C1000 0.950 . S
C1005 C1003 1.390 . S
C1005 C1006 1.387 . S
C1005 H1008 0.950 . S
C1006 C1005 1.387 . S
C1006 C1009 1.387 . S
H1007 C1003 0.950 . S
H1008 C1005 0.950 . S
C1009 C1000 1.390 . S
C1009 H1002 0.950 . S
C1009 C1006 1.387 . S
C1010 C1011 1.387 . S
C1010 H1014 0.950 . S
C1010 C1019 1.390 . S
C1011 C1010 1.387 . S
C1011 C1013 1.387 . S
H1012 C1019 0.950 . S
C1013 C1011 1.387 . S
C1013 C1015 1.390 . S
C1013 H1017 0.950 . S
H1014 C1010 0.950 . S
C1015 C1013 1.390 . S
C1015 C1016 1.387 . S
C1015 H1018 0.950 1_554 S
C1016 C1015 1.387 . S
C1016 C1019 1.387 . S
H1017 C1013 0.950 . S
H1018 C1015 0.950 1_556 S
C1019 C1010 1.390 . S
C1019 H1012 0.950 . S
C1019 C1016 1.387 . S
C1020 C1021 1.387 . S
C1020 H1024 0.950 . S
C1020 C1029 1.390 . S
C1021 C1020 1.387 . S
C1021 C1023 1.387 . S
H1022 C1029 0.950 . S
C1023 C1021 1.387 . S
C1023 C1025 1.390 . S
C1023 H1027 0.950 . S
H1024 C1020 0.950 . S
C1025 C1023 1.390 . S
C1025 C1026 1.387 . S
C1025 H1028 0.950 . S
C1026 C1025 1.387 . S
C1026 C1029 1.387 . S
H1027 C1023 0.950 . S
H1028 C1025 0.950 . S
C1029 C1020 1.390 . S
C1029 H1022 0.950 . S
C1029 C1026 1.387 . S
C1030 C1031 1.387 . S
C1030 H1034 0.950 . S
C1030 C1039 1.390 . S
C1031 C1030 1.387 . S
C1031 C1033 1.387 . S
H1032 C1039 0.950 . S
C1033 C1031 1.387 . S
C1033 C1035 1.390 . S
C1033 H1037 0.950 . S
H1034 C1030 0.950 . S
C1035 C1033 1.390 . S
C1035 C1036 1.387 . S
C1035 H1038 0.950 . S
C1036 C1035 1.387 . S
C1036 C1039 1.387 . S
H1037 C1033 0.950 . S
H1038 C1035 0.950 . S
C1039 C1030 1.390 . S
C1039 H1032 0.950 . S
C1039 C1036 1.387 . S
C1040 C1041 1.387 . S
C1040 H1044 0.950 . S
C1040 C1049 1.390 . S
C1041 C1040 1.387 . S
C1041 C1043 1.387 . S
H1042 C1049 0.950 . S
C1043 C1041 1.387 . S
C1043 C1045 1.390 . S
C1043 H1047 0.950 . S
H1044 C1040 0.950 . S
C1045 C1043 1.390 . S
C1045 C1046 1.387 . S
C1045 H1048 0.950 . S
C1046 C1045 1.387 . S
C1046 C1049 1.387 . S
H1047 C1043 0.950 . S
H1048 C1045 0.950 . S
C1049 C1040 1.390 . S
C1049 H1042 0.950 . S
C1049 C1046 1.387 . S
C1050 C1051 1.387 . S
C1050 H1054 0.950 . S
C1050 C1059 1.390 . S
C1051 C1050 1.387 . S
C1051 C1053 1.387 . S
H1052 C1059 0.950 . S
C1053 C1051 1.387 . S
C1053 C1055 1.390 . S
C1053 H1057 0.950 1_556 S
H1054 C1050 0.950 . S
C1055 C1053 1.390 . S
C1055 C1056 1.387 . S
C1055 H1058 0.950 1_556 S
C1056 C1055 1.387 . S
C1056 C1059 1.387 . S
H1057 C1053 0.950 1_554 S
H1058 C1055 0.950 1_554 S
C1059 C1050 1.390 . S
C1059 H1052 0.950 . S
C1059 C1056 1.387 . S
C1060 C1061 1.387 . S
C1060 H1064 0.950 . S
C1060 C1069 1.390 . S
C1061 C1060 1.387 . S
C1061 C1063 1.387 . S
H1062 C1069 0.950 . S
C1063 C1061 1.387 . S
C1063 C1065 1.390 . S
C1063 H1067 0.950 . S
H1064 C1060 0.950 . S
C1065 C1063 1.390 . S
C1065 C1066 1.387 . S
C1065 H1068 0.950 . S
C1066 C1065 1.387 . S
C1066 C1069 1.387 . S
H1067 C1063 0.950 . S
H1068 C1065 0.950 . S
C1069 C1060 1.390 . S
C1069 H1062 0.950 . S
C1069 C1066 1.387 . S
C1070 C1071 1.387 . S
C1070 H1074 0.950 . S
C1070 C1079 1.390 . S
C1071 C1070 1.387 . S
C1071 C1073 1.387 . S
H1072 C1079 0.950 . S
C1073 C1071 1.387 . S
C1073 C1075 1.390 . S
C1073 H1077 0.950 . S
H1074 C1070 0.950 . S
C1075 C1073 1.390 . S
C1075 C1076 1.387 . S
C1075 H1078 0.950 . S
C1076 C1075 1.387 . S
C1076 C1079 1.387 . S
H1077 C1073 0.950 . S
H1078 C1075 0.950 . S
C1079 C1070 1.390 . S
C1079 H1072 0.950 . S
C1079 C1076 1.387 . S
C1080 C1081 1.387 . S
C1080 H1084 0.950 . S
C1080 C1089 1.390 . S
C1081 C1080 1.387 . S
C1081 C1083 1.387 . S
H1082 C1089 0.950 . S
C1083 C1081 1.387 . S
C1083 C1085 1.390 . S
C1083 H1087 0.950 . S
H1084 C1080 0.950 . S
C1085 C1083 1.390 . S
C1085 C1086 1.387 . S
C1085 H1088 0.950 . S
C1086 C1085 1.387 . S
C1086 C1089 1.387 . S
H1087 C1083 0.950 . S
H1088 C1085 0.950 . S
C1089 C1080 1.390 . S
C1089 H1082 0.950 . S
C1089 C1086 1.387 . S
C1090 C1091 1.387 . S
C1090 H1094 0.950 . S
C1090 C1099 1.390 . S
C1091 C1090 1.387 . S
C1091 C1093 1.387 1_556 S
H1092 C1099 0.950 . S
C1093 C1091 1.387 1_554 S
C1093 C1095 1.390 1_554 S
C1093 H1097 0.950 . S
H1094 C1090 0.950 . S
C1095 C1093 1.390 1_556 S
C1095 C1096 1.387 . S
C1095 H1098 0.950 1_556 S
C1096 C1095 1.387 . S
C1096 C1099 1.387 . S
H1097 C1093 0.950 . S
H1098 C1095 0.950 1_554 S
C1099 C1090 1.390 . S
C1099 H1092 0.950 . S
C1099 C1096 1.387 . S
C1100 C1101 1.387 . S
C1100 H1104 0.950 . S
C1100 C1109 1.390 . S
C1101 C1100 1.387 . S
C1101 C1103 1.387 . S
H1102 C1109 0.950 . S
C1103 C1101 1.387 . S
C1103 C1105 1.390 . S
C1103 H1107 0.950 . S
H1104 C1100 0.950 . S
C1105 C1103 1.390 . S
C1105 C1106 1.387 . S
C1105 H1108 0.950 . S
C1106 C1105 1.387 . S
C1106 C1109 1.387 . S
H1107 C1103 0.950 . S
H1108 C1105 0.950 . S
C1109 C1100 1.390 . S
C1109 H1102 0.950 . S
C1109 C1106 1.387 . S
C1110 C1111 1.387 . S
C1110 H1114 0.950 . S
C1110 C1119 1.390 . S
C1111 C1110 1.387 . S
C1111 C1113 1.387 . S
H1112 C1119 0.950 . S
C1113 C1111 1.387 . S
C1113 C1115 1.390 . S
C1113 H1117 0.950 . S
H1114 C1110 0.950 . S
C1115 C1113 1.390 . S
C1115 C1116 1.387 . S
C1115 H1118 0.950 . S
C1116 C1115 1.387 . S
C1116 C1119 1.387 . S
H1117 C1113 0.950 . S
H1118 C1115 0.950 . S
C1119 C1110 1.390 . S
C1119 H1112 0.950 . S
C1119 C1116 1.387 . S
C641 C3 1.942 . S
C646 C66 1.792 . S
C651 C95 1.870 . S
C656 C62 1.818 . S
C661 C142 2.533 . S
C666 C83 2.611 . S
C671 C15 1.686 . S
C676 C146 1.511 . S
C681 C2 1.687 . S
C686 C369 1.511 . S
C691 C302 1.942 . S
C696 C49 1.793 . S
C701 C82 1.868 . S
C706 C403 1.819 . S
C711 C123 2.534 . S
C716 C542 2.612 . S
C721 C322 1.868 . S
C726 C43 1.817 . S
C731 C483 2.534 . S
C736 C102 2.611 . S
C741 C562 1.683 . S
C746 C129 1.508 . S
C751 C22 1.942 . S
C756 C449 1.794 . S
C761 C26 0.735 . S
C766 C346 0.735 . S
C771 C495 1.959 . S
C776 C162 2.019 . S
C781 C209 0.735 . S
C786 C569 0.735 . S
C791 C442 2.020 . S
C796 C255 1.956 . S
C801 C89 0.727 . S
C806 C289 0.727 . S
C811 C362 1.956 . S
C816 C175 2.021 . S
C821 C242 1.958 . S
C826 C415 2.020 . S
C831 C202 1.870 . S
C836 C443 1.817 . S
C841 C363 2.534 . S
C846 C222 2.612 . S
C851 C466 1.792 . S
C856 C283 1.941 . S
C861 C215 1.869 . S
C866 C182 1.818 . S
C871 C382 2.533 . S
C876 C323 2.611 . S
C881 C535 1.870 . S
C886 C462 1.818 . S
C891 C262 2.533 . S
C896 C203 2.612 . S
C901 C386 1.508 . S
C906 C575 1.682 . S
C911 C529 0.729 . S
C916 C9 0.729 . S
C921 C106 0.727 . S
C926 C586 0.727 . S
C931 C482 1.958 . S
C936 C55 2.020 . S
C941 C306 0.725 . S
C946 C226 0.725 . S
C951 C135 1.957 . S
C956 C402 2.021 . S
C961 C502 2.534 . S
C966 C523 2.612 . S
C971 C295 1.682 . S
C976 C506 1.508 . S
C981 C249 1.512 . S
C986 C282 1.685 . S
C991 C163 1.817 . S
C996 C522 1.868 . S
C1001 C489 1.507 . S
C1006 C602 1.683 . S
C1011 C609 0.735 . S
C1016 C329 0.735 . S
C1021 C42 2.019 . S
C1026 C375 1.959 . S
C1031 C342 2.612 . S
C1036 C243 2.534 . S
C1041 C335 1.869 . S
C1046 C422 1.817 . S
C1051 C615 1.687 . S
C1056 C266 1.511 . S
C1061 C546 0.732 . S
C1066 C626 0.733 . S
C1071 C455 2.021 . S
C1076 C122 1.956 . S
C1081 C426 1.793 . S
C1086 C563 1.942 . S
C1091 C409 1.791 . S
C1096 C622 1.939 . S
C1101 C169 1.792 . S
C1106 C582 1.942 . S
C1111 C603 1.940 . S
C1116 C186 1.790 . S
