# Generated by pormake.
# Topology pcb, (4)-cn, num edge types: 1
# Building blocks:
#     Node 0, Type 0, BuildingBlock: QUQFOY_clean_sbu_1, # of connection points: 4
#     Node 1, Type 0, BuildingBlock: QUQFOY_clean_sbu_1, # of connection points: 4
#     Node 2, Type 0, BuildingBlock: QUQFOY_clean_sbu_1, # of connection points: 4
#     Node 3, Type 0, BuildingBlock: QUQFOY_clean_sbu_1, # of connection points: 4
#     Node 4, Type 0, BuildingBlock: QUQFOY_clean_sbu_1, # of connection points: 4
#     Node 5, Type 0, BuildingBlock: QUQFOY_clean_sbu_1, # of connection points: 4
#     Node 6, Type 0, BuildingBlock: QUQFOY_clean_sbu_1, # of connection points: 4
#     Node 7, Type 0, BuildingBlock: QUQFOY_clean_sbu_1, # of connection points: 4
#     Node 8, Type 0, BuildingBlock: QUQFOY_clean_sbu_1, # of connection points: 4
#     Node 9, Type 0, BuildingBlock: QUQFOY_clean_sbu_1, # of connection points: 4
#     Node 10, Type 0, BuildingBlock: QUQFOY_clean_sbu_1, # of connection points: 4
#     Node 11, Type 0, BuildingBlock: QUQFOY_clean_sbu_1, # of connection points: 4
#     Node 12, Type 0, BuildingBlock: QUQFOY_clean_sbu_1, # of connection points: 4
#     Node 13, Type 0, BuildingBlock: QUQFOY_clean_sbu_1, # of connection points: 4
#     Node 14, Type 0, BuildingBlock: QUQFOY_clean_sbu_1, # of connection points: 4
#     Node 15, Type 0, BuildingBlock: QUQFOY_clean_sbu_1, # of connection points: 4
#     Edge 16, Type (0, 0), BuildingBlock: TEMPAE_clean_linker_10, # of connection points: 2
#     Edge 17, Type (0, 0), BuildingBlock: TEMPAE_clean_linker_10, # of connection points: 2
#     Edge 18, Type (0, 0), BuildingBlock: TEMPAE_clean_linker_10, # of connection points: 2
#     Edge 19, Type (0, 0), BuildingBlock: TEMPAE_clean_linker_10, # of connection points: 2
#     Edge 20, Type (0, 0), BuildingBlock: TEMPAE_clean_linker_10, # of connection points: 2
#     Edge 21, Type (0, 0), BuildingBlock: TEMPAE_clean_linker_10, # of connection points: 2
#     Edge 22, Type (0, 0), BuildingBlock: TEMPAE_clean_linker_10, # of connection points: 2
#     Edge 23, Type (0, 0), BuildingBlock: TEMPAE_clean_linker_10, # of connection points: 2
#     Edge 24, Type (0, 0), BuildingBlock: TEMPAE_clean_linker_10, # of connection points: 2
#     Edge 25, Type (0, 0), BuildingBlock: TEMPAE_clean_linker_10, # of connection points: 2
#     Edge 26, Type (0, 0), BuildingBlock: TEMPAE_clean_linker_10, # of connection points: 2
#     Edge 27, Type (0, 0), BuildingBlock: TEMPAE_clean_linker_10, # of connection points: 2
#     Edge 28, Type (0, 0), BuildingBlock: TEMPAE_clean_linker_10, # of connection points: 2
#     Edge 29, Type (0, 0), BuildingBlock: TEMPAE_clean_linker_10, # of connection points: 2
#     Edge 30, Type (0, 0), BuildingBlock: TEMPAE_clean_linker_10, # of connection points: 2
#     Edge 31, Type (0, 0), BuildingBlock: TEMPAE_clean_linker_10, # of connection points: 2
#     Edge 32, Type (0, 0), BuildingBlock: TEMPAE_clean_linker_10, # of connection points: 2
#     Edge 33, Type (0, 0), BuildingBlock: TEMPAE_clean_linker_10, # of connection points: 2
#     Edge 34, Type (0, 0), BuildingBlock: TEMPAE_clean_linker_10, # of connection points: 2
#     Edge 35, Type (0, 0), BuildingBlock: TEMPAE_clean_linker_10, # of connection points: 2
#     Edge 36, Type (0, 0), BuildingBlock: TEMPAE_clean_linker_10, # of connection points: 2
#     Edge 37, Type (0, 0), BuildingBlock: TEMPAE_clean_linker_10, # of connection points: 2
#     Edge 38, Type (0, 0), BuildingBlock: TEMPAE_clean_linker_10, # of connection points: 2
#     Edge 39, Type (0, 0), BuildingBlock: TEMPAE_clean_linker_10, # of connection points: 2
#     Edge 40, Type (0, 0), BuildingBlock: TEMPAE_clean_linker_10, # of connection points: 2
#     Edge 41, Type (0, 0), BuildingBlock: TEMPAE_clean_linker_10, # of connection points: 2
#     Edge 42, Type (0, 0), BuildingBlock: TEMPAE_clean_linker_10, # of connection points: 2
#     Edge 43, Type (0, 0), BuildingBlock: TEMPAE_clean_linker_10, # of connection points: 2
#     Edge 44, Type (0, 0), BuildingBlock: TEMPAE_clean_linker_10, # of connection points: 2
#     Edge 45, Type (0, 0), BuildingBlock: TEMPAE_clean_linker_10, # of connection points: 2
#     Edge 46, Type (0, 0), BuildingBlock: TEMPAE_clean_linker_10, # of connection points: 2
#     Edge 47, Type (0, 0), BuildingBlock: TEMPAE_clean_linker_10, # of connection points: 2
# Relax obj value: 0.297
# Max RMSD: 0.246
# Mean RMSD: 0.192
data_MOF--net-pcb--node1-QUQFOY_clean_sbu_1--edge1-TEMPAE_clean_linker_10
_symmetry_space_group_name_H-M    P1
_symmetry_Int_Tables_number       1
_symmetry_cell_setting            triclinic
loop_
_symmetry_equiv_pos_as_xyz
'x, y, z'
_cell_length_a     46.035704
_cell_length_b     49.380873
_cell_length_c     49.697561
_cell_angle_alpha  94.5243883
_cell_angle_beta   93.641746
_cell_angle_gamma 97.609932
loop_
_atom_site_label
_atom_site_type_symbol
_atom_site_fract_x
_atom_site_fract_y
_atom_site_fract_z
_atom_type_partial_charge
O0 O 0.10935 0.16795 0.13257 0.0
Cd1 Cd 0.15177 0.15841 0.1371 0.0
Cd2 Cd 0.12743 0.12188 0.09423 0.0
O3 O 0.08852 0.13533 0.10199 0.0
O4 O 0.164 0.18296 0.17017 0.0
O5 O 0.18601 0.18753 0.13223 0.0
C6 C 0.18379 0.19599 0.15715 0.0
C7 C 0.14489 0.12795 0.05238 0.0
C8 C 0.08679 0.15598 0.11829 0.0
C9 C 0.15562 0.09706 0.13912 0.0
O10 O 0.14103 0.09225 0.11634 0.0
O11 O 0.16193 0.12144 0.15012 0.0
O12 O 0.12387 0.10867 0.05553 0.0
O13 O 0.15652 0.14375 0.07336 0.0
O14 O 0.82559 0.15323 0.18388 0.0
Cd15 Cd 0.83474 0.19414 0.17862 0.0
Cd16 Cd 0.82245 0.17275 0.1236 0.0
O17 O 0.80684 0.13843 0.14259 0.0
O18 O 0.83621 0.21147 0.21617 0.0
O19 O 0.80353 0.21867 0.18392 0.0
C20 C 0.81368 0.22282 0.20896 0.0
C21 C 0.80248 0.17559 0.0794 0.0
C22 C 0.81301 0.13397 0.16701 0.0
C23 C 0.88494 0.19809 0.14444 0.0
O24 O 0.86744 0.18409 0.12615 0.0
O25 O 0.87587 0.20626 0.16684 0.0
O26 O 0.81657 0.15594 0.08562 0.0
O27 O 0.79846 0.19359 0.09856 0.0
O28 O 0.89259 0.89098 0.22667 0.0
Cd29 Cd 0.84801 0.89156 0.22137 0.0
Cd30 Cd 0.85607 0.88739 0.16848 0.0
O31 O 0.89234 0.87226 0.18499 0.0
O32 O 0.82904 0.87234 0.25041 0.0
O33 O 0.82354 0.85643 0.20701 0.0
C34 C 0.8182 0.85318 0.23188 0.0
C35 C 0.8418 0.86943 0.12399 0.0
C36 C 0.90513 0.87846 0.20846 0.0
C37 C 0.83842 0.94013 0.19463 0.0
O38 O 0.85028 0.9283 0.17537 0.0
O39 O 0.83255 0.92784 0.2155 0.0
O40 O 0.86574 0.88592 0.13016 0.0
O41 O 0.82546 0.8628 0.14326 0.0
O42 O 0.19787 0.90901 0.21475 0.0
Cd43 Cd 0.17992 0.8689 0.21753 0.0
Cd44 Cd 0.16783 0.86691 0.16329 0.0
O45 O 0.18934 0.90634 0.17035 0.0
O46 O 0.2025 0.8492 0.24328 0.0
O47 O 0.19581 0.83776 0.19886 0.0
C48 C 0.2062 0.83287 0.22249 0.0
C49 C 0.17511 0.84529 0.12082 0.0
C50 C 0.19912 0.92004 0.19253 0.0
C51 C 0.11715 0.85982 0.20034 0.0
O52 O 0.12591 0.86032 0.17657 0.0
O53 O 0.13549 0.86255 0.22089 0.0
O54 O 0.15871 0.86434 0.12335 0.0
O55 O 0.18727 0.83786 0.14262 0.0
O56 O 0.18286 0.78929 0.91139 0.0
Cd57 Cd 0.16736 0.79029 0.87152 0.0
Cd58 Cd 0.17493 0.84383 0.88361 0.0
O59 O 0.19737 0.83382 0.91783 0.0
O60 O 0.17792 0.75946 0.84754 0.0
O61 O 0.19491 0.80321 0.8445 0.0
C62 C 0.19371 0.77779 0.83551 0.0
C63 C 0.19216 0.88251 0.86183 0.0
C64 C 0.1954 0.81012 0.92645 0.0
C65 C 0.11287 0.81514 0.87248 0.0
O66 O 0.12965 0.83657 0.88243 0.0
O67 O 0.12358 0.79378 0.86446 0.0
O68 O 0.18288 0.88461 0.8857 0.0
O69 O 0.19315 0.85822 0.85065 0.0
O70 O 0.12038 0.15382 0.79792 0.0
Cd71 Cd 0.16441 0.152 0.80469 0.0
Cd72 Cd 0.14655 0.09799 0.80757 0.0
O73 O 0.10663 0.10917 0.79422 0.0
O74 O 0.18369 0.18667 0.79299 0.0
O75 O 0.1884 0.14582 0.77287 0.0
C76 C 0.19426 0.17222 0.77426 0.0
C77 C 0.15699 0.05399 0.79456 0.0
C78 C 0.10035 0.13341 0.79331 0.0
C79 C 0.17505 0.13199 0.85822 0.0
O80 O 0.16138 0.10934 0.84741 0.0
O81 O 0.18001 0.15233 0.84432 0.0
O82 O 0.13548 0.05798 0.80897 0.0
O83 O 0.172 0.07513 0.78598 0.0
O84 O 0.86933 0.14687 0.78712 0.0
Cd85 Cd 0.82493 0.13775 0.78973 0.0
Cd86 Cd 0.83806 0.14043 0.84356 0.0
O87 O 0.87986 0.15138 0.83123 0.0
O88 O 0.80384 0.15631 0.76201 0.0
O89 O 0.8028 0.16587 0.80645 0.0
C90 C 0.79512 0.17074 0.78201 0.0
C91 C 0.82793 0.16046 0.88579 0.0
C92 C 0.88812 0.15186 0.80731 0.0
C93 C 0.8099 0.08578 0.81365 0.0
O94 O 0.81995 0.09975 0.83567 0.0
O95 O 0.80931 0.09697 0.79149 0.0
O96 O 0.84669 0.14346 0.88355 0.0
O97 O 0.81486 0.16668 0.86386 0.0
O98 O 0.87744 0.8042 0.87256 0.0
Cd99 Cd 0.83343 0.80615 0.87349 0.0
Cd100 Cd 0.84785 0.86015 0.876 0.0
O101 O 0.8881 0.84824 0.86751 0.0
O102 O 0.81153 0.77339 0.85228 0.0
O103 O 0.81193 0.81582 0.84031 0.0
C104 C 0.80344 0.7898 0.83513 0.0
C105 C 0.83536 0.89839 0.8553 0.0
C106 C 0.89597 0.82461 0.86858 0.0
C107 C 0.82123 0.83499 0.92445 0.0
O108 O 0.83332 0.8562 0.91439 0.0
O109 O 0.81765 0.81182 0.9108 0.0
O110 O 0.85592 0.90053 0.87445 0.0
O111 O 0.82159 0.87427 0.84761 0.0
O112 O 0.60336 0.65956 0.64452 0.0
Cd113 Cd 0.64509 0.65262 0.65778 0.0
Cd114 Cd 0.63463 0.6188 0.60995 0.0
O115 O 0.59218 0.62669 0.61135 0.0
O116 O 0.65083 0.677 0.69178 0.0
O117 O 0.67977 0.68244 0.65827 0.0
C118 C 0.67328 0.69028 0.68228 0.0
C119 C 0.65672 0.62769 0.57047 0.0
C120 C 0.58499 0.64619 0.62653 0.0
C121 C 0.65391 0.59274 0.65865 0.0
O122 O 0.64785 0.58979 0.63326 0.0
O123 O 0.6533 0.61566 0.67199 0.0
O124 O 0.63945 0.60521 0.57221 0.0
O125 O 0.66218 0.64511 0.59158 0.0
O126 O 0.30623 0.63559 0.65459 0.0
Cd127 Cd 0.32017 0.67622 0.65107 0.0
Cd128 Cd 0.31352 0.65638 0.595 0.0
O129 O 0.29416 0.62191 0.61155 0.0
O130 O 0.32109 0.69185 0.68921 0.0
O131 O 0.29208 0.704 0.65654 0.0
C132 C 0.30095 0.70604 0.68189 0.0
C133 C 0.29673 0.66207 0.55048 0.0
C134 C 0.29561 0.61692 0.63626 0.0
C135 C 0.37466 0.6775 0.62156 0.0
O136 O 0.35872 0.66539 0.60119 0.0
O137 O 0.36328 0.6852 0.64296 0.0
O138 O 0.30956 0.64153 0.5564 0.0
O139 O 0.29252 0.67956 0.57003 0.0
O140 O 0.36189 0.3743 0.70746 0.0
Cd141 Cd 0.31869 0.37333 0.69314 0.0
Cd142 Cd 0.3385 0.37206 0.64544 0.0
O143 O 0.37149 0.35696 0.66737 0.0
O144 O 0.29218 0.35227 0.71615 0.0
O145 O 0.30068 0.33734 0.67438 0.0
C146 C 0.28817 0.33307 0.6965 0.0
C147 C 0.32658 0.35308 0.60106 0.0
C148 C 0.3788 0.36279 0.69244 0.0
C149 C 0.31525 0.42306 0.66619 0.0
O150 O 0.33295 0.41301 0.65087 0.0
O151 O 0.30351 0.40899 0.68391 0.0
O152 O 0.35114 0.36844 0.60809 0.0
O153 O 0.30866 0.3478 0.6195 0.0
O154 O 0.6703 0.40176 0.74159 0.0
Cd155 Cd 0.65295 0.36112 0.74226 0.0
Cd156 Cd 0.64856 0.3605 0.68743 0.0
O157 O 0.6707 0.39942 0.6971 0.0
O158 O 0.67367 0.34205 0.7699 0.0
O159 O 0.67271 0.33139 0.72544 0.0
C160 C 0.68097 0.32674 0.7498 0.0
C161 C 0.65892 0.34051 0.64519 0.0
C162 C 0.67626 0.41293 0.72008 0.0
C163 C 0.59263 0.35199 0.71837 0.0
O164 O 0.60491 0.35416 0.69626 0.0
O165 O 0.60798 0.35322 0.7407 0.0
O166 O 0.64313 0.36005 0.64733 0.0
O167 O 0.66889 0.33173 0.66723 0.0
O168 O 0.6814 0.29289 0.43594 0.0
Cd169 Cd 0.6691 0.29465 0.39542 0.0
Cd170 Cd 0.67264 0.34805 0.40896 0.0
O171 O 0.69205 0.33772 0.44456 0.0
O172 O 0.68315 0.2653 0.37203 0.0
O173 O 0.69823 0.30971 0.37066 0.0
C174 C 0.69889 0.28467 0.36127 0.0
C175 C 0.69059 0.38826 0.38991 0.0
C176 C 0.69111 0.3137 0.45231 0.0
C177 C 0.61283 0.31665 0.39154 0.0
O178 O 0.62755 0.33859 0.40293 0.0
O179 O 0.62551 0.29608 0.3849 0.0
O180 O 0.67831 0.38891 0.41248 0.0
O181 O 0.69415 0.3646 0.37865 0.0
O182 O 0.6214 0.65688 0.30468 0.0
Cd183 Cd 0.66494 0.66017 0.3191 0.0
Cd184 Cd 0.64569 0.60378 0.32096 0.0
O185 O 0.61099 0.61206 0.29647 0.0
O186 O 0.67686 0.69958 0.31512 0.0
O187 O 0.69713 0.66685 0.2936 0.0
C188 C 0.69519 0.69261 0.29827 0.0
C189 C 0.6607 0.56032 0.31548 0.0
C190 C 0.60383 0.63587 0.29498 0.0
C191 C 0.66246 0.63917 0.37321 0.0
O192 O 0.6472 0.61783 0.36123 0.0
O193 O 0.67488 0.65765 0.35982 0.0
O194 O 0.6352 0.56375 0.32316 0.0
O195 O 0.67766 0.58164 0.30952 0.0
O196 O 0.37229 0.63855 0.26078 0.0
Cd197 Cd 0.32758 0.62974 0.26064 0.0
Cd198 Cd 0.33611 0.63373 0.31539 0.0
O199 O 0.37866 0.64518 0.30522 0.0
O200 O 0.30869 0.64897 0.23216 0.0
O201 O 0.30568 0.65847 0.27637 0.0
C202 C 0.29972 0.66382 0.25174 0.0
C203 C 0.3249 0.65304 0.35757 0.0
C204 C 0.38917 0.64483 0.28216 0.0
C205 C 0.30988 0.57857 0.28488 0.0
O206 O 0.31836 0.59299 0.30702 0.0
O207 O 0.31111 0.5892 0.26244 0.0
O208 O 0.34357 0.63596 0.35542 0.0
O209 O 0.31234 0.65965 0.33557 0.0
O210 O 0.37745 0.3014 0.35796 0.0
Cd211 Cd 0.33339 0.30284 0.35294 0.0
Cd212 Cd 0.34727 0.35669 0.35838 0.0
O213 O 0.3889 0.3457 0.35451 0.0
O214 O 0.31463 0.27107 0.32831 0.0
O215 O 0.3178 0.31427 0.31803 0.0
C216 C 0.30975 0.28848 0.31102 0.0
C217 C 0.33568 0.39446 0.33633 0.0
C218 C 0.3966 0.32209 0.35654 0.0
C219 C 0.31422 0.32928 0.40226 0.0
O220 O 0.3281 0.351 0.39454 0.0
O221 O 0.31186 0.30681 0.3875 0.0
O222 O 0.35414 0.39726 0.35726 0.0
O223 O 0.32365 0.37 0.32762 0.0
C224 C 0.28467 0.2512 0.27768 0.0
C225 C 0.29516 0.27904 0.28399 0.0
C226 C 0.26932 0.24189 0.25279 0.0
C227 C 0.2645 0.2609 0.23363 0.0
C228 C 0.27629 0.28885 0.23928 0.0
C229 C 0.29137 0.29767 0.26455 0.0
C230 C 0.25704 0.21185 0.24758 0.0
C231 C 0.27194 0.30962 0.2192 0.0
C232 C 0.23396 0.22226 0.16723 0.0
C233 C 0.20401 0.21874 0.17159 0.0
C234 C 0.25429 0.23862 0.18608 0.0
C235 C 0.24409 0.25157 0.20943 0.0
C236 C 0.21356 0.25065 0.21198 0.0
C237 C 0.19388 0.23409 0.19305 0.0
C238 C 0.28668 0.23969 0.1824 0.0
C239 C 0.2017 0.26454 0.23631 0.0
H240 H 0.28774 0.23666 0.29251 0.0
H241 H 0.29974 0.31921 0.26921 0.0
H242 H 0.23266 0.2095 0.2461 0.0
H243 H 0.26388 0.20324 0.22807 0.0
H244 H 0.26434 0.19954 0.26386 0.0
H245 H 0.28741 0.3289 0.22411 0.0
H246 H 0.2749 0.3012 0.19834 0.0
H247 H 0.2492 0.31471 0.21947 0.0
H248 H 0.24173 0.21046 0.15049 0.0
H249 H 0.17058 0.2317 0.19606 0.0
H250 H 0.29591 0.22498 0.19517 0.0
H251 H 0.29863 0.26043 0.1889 0.0
H252 H 0.29077 0.2341 0.16102 0.0
H253 H 0.2056 0.25305 0.25421 0.0
H254 H 0.17772 0.26531 0.23318 0.0
H255 H 0.21316 0.28574 0.241 0.0
C256 C 0.71706 0.25103 0.32849 0.0
C257 C 0.7165 0.27833 0.3383 0.0
C258 C 0.73313 0.24462 0.30639 0.0
C259 C 0.74901 0.26604 0.29378 0.0
C260 C 0.74842 0.29367 0.30346 0.0
C261 C 0.73217 0.29951 0.32566 0.0
C262 C 0.73329 0.21486 0.29668 0.0
C263 C 0.76509 0.31702 0.29049 0.0
C264 C 0.81173 0.2436 0.25602 0.0
C265 C 0.79875 0.23804 0.22951 0.0
C266 C 0.79628 0.25414 0.27691 0.0
C267 C 0.7671 0.2592 0.27115 0.0
C268 C 0.75446 0.25518 0.24415 0.0
C269 C 0.77049 0.24465 0.22358 0.0
C270 C 0.81061 0.25834 0.3054 0.0
C271 C 0.72342 0.2605 0.23725 0.0
H272 H 0.70493 0.23456 0.33808 0.0
H273 H 0.73171 0.32068 0.33305 0.0
H274 H 0.72545 0.21116 0.27496 0.0
H275 H 0.75605 0.20978 0.29858 0.0
H276 H 0.7192 0.20069 0.3083 0.0
H277 H 0.76153 0.33739 0.29984 0.0
H278 H 0.78896 0.31556 0.29237 0.0
H279 H 0.75826 0.31566 0.26856 0.0
H280 H 0.83369 0.23877 0.26071 0.0
H281 H 0.76035 0.24045 0.20313 0.0
H282 H 0.79944 0.24308 0.31792 0.0
H283 H 0.80833 0.279 0.31481 0.0
H284 H 0.83433 0.25605 0.30605 0.0
H285 H 0.70775 0.24501 0.24583 0.0
H286 H 0.71806 0.25943 0.21505 0.0
H287 H 0.72001 0.28096 0.24637 0.0
C288 C 0.80225 0.82139 0.2662 0.0
C289 C 0.80088 0.82788 0.23925 0.0
C290 C 0.78604 0.79753 0.27379 0.0
C291 C 0.76761 0.77998 0.25401 0.0
C292 C 0.76641 0.78619 0.22667 0.0
C293 C 0.78329 0.81002 0.21955 0.0
C294 C 0.78816 0.79144 0.30312 0.0
C295 C 0.74664 0.76814 0.20513 0.0
C296 C 0.7396 0.70919 0.27438 0.0
C297 C 0.71296 0.71387 0.28479 0.0
C298 C 0.7574 0.73034 0.26346 0.0
C299 C 0.74793 0.75643 0.26257 0.0
C300 C 0.7204 0.76077 0.27192 0.0
C301 C 0.70339 0.73951 0.28313 0.0
C302 C 0.78682 0.72513 0.25396 0.0
C303 C 0.7093 0.78816 0.27092 0.0
H304 H 0.81611 0.83494 0.28145 0.0
H305 H 0.78223 0.81495 0.19867 0.0
H306 H 0.76669 0.79262 0.31178 0.0
H307 H 0.79337 0.77031 0.30477 0.0
H308 H 0.80521 0.80602 0.31554 0.0
H309 H 0.74963 0.77487 0.18456 0.0
H310 H 0.75093 0.74657 0.20527 0.0
H311 H 0.72334 0.76848 0.20949 0.0
H312 H 0.747 0.68935 0.27565 0.0
H313 H 0.68257 0.74308 0.29082 0.0
H314 H 0.80465 0.73762 0.2674 0.0
H315 H 0.7892 0.73151 0.23322 0.0
H316 H 0.78992 0.7032 0.254 0.0
H317 H 0.72353 0.80381 0.28487 0.0
H318 H 0.68633 0.78741 0.27679 0.0
H319 H 0.7103 0.79508 0.25025 0.0
C320 C 0.26296 0.69501 0.26263 0.0
C321 C 0.28468 0.68748 0.2462 0.0
C322 C 0.24946 0.7183 0.2582 0.0
C323 C 0.25887 0.73496 0.2376 0.0
C324 C 0.28102 0.7275 0.22112 0.0
C325 C 0.29327 0.7035 0.2253 0.0
C326 C 0.22517 0.72508 0.27553 0.0
C327 C 0.29234 0.74524 0.19959 0.0
C328 C 0.20985 0.78385 0.20994 0.0
C329 C 0.22047 0.80829 0.22579 0.0
C330 C 0.22183 0.75967 0.21389 0.0
C331 C 0.24573 0.76033 0.23342 0.0
C332 C 0.25706 0.78521 0.24896 0.0
C333 C 0.24384 0.80883 0.24534 0.0
C334 C 0.20851 0.73334 0.19761 0.0
C335 C 0.2832 0.78692 0.26928 0.0
H336 H 0.25633 0.68251 0.27876 0.0
H337 H 0.3104 0.69782 0.21287 0.0
H338 H 0.23205 0.74493 0.28774 0.0
H339 H 0.2053 0.72735 0.2625 0.0
H340 H 0.2192 0.70908 0.28949 0.0
H341 H 0.31016 0.73684 0.18896 0.0
H342 H 0.27421 0.74722 0.1844 0.0
H343 H 0.30088 0.76619 0.20888 0.0
H344 H 0.1915 0.78343 0.19505 0.0
H345 H 0.25206 0.82783 0.25748 0.0
H346 H 0.20126 0.71762 0.21144 0.0
H347 H 0.22517 0.72517 0.18529 0.0
H348 H 0.18937 0.73619 0.18386 0.0
H349 H 0.27777 0.77345 0.28559 0.0
H350 H 0.29029 0.80815 0.27861 0.0
H351 H 0.30195 0.77953 0.25932 0.0
C352 C 0.3 0.72659 0.72914 0.0
C353 C 0.2872 0.72233 0.70251 0.0
C354 C 0.28546 0.73842 0.75001 0.0
C355 C 0.25736 0.74607 0.74413 0.0
C356 C 0.245 0.74322 0.71704 0.0
C357 C 0.26015 0.73142 0.69647 0.0
C358 C 0.29952 0.74135 0.77858 0.0
C359 C 0.2151 0.75124 0.71002 0.0
C360 C 0.20725 0.74231 0.80173 0.0
C361 C 0.20962 0.76989 0.81182 0.0
C362 C 0.22217 0.73443 0.77931 0.0
C363 C 0.23997 0.75462 0.7667 0.0
C364 C 0.2422 0.78255 0.77655 0.0
C365 C 0.22697 0.78987 0.79902 0.0
C366 C 0.21924 0.70441 0.76938 0.0
C367 C 0.26102 0.8046 0.76365 0.0
H368 H 0.32106 0.71985 0.7339 0.0
H369 H 0.25017 0.72818 0.67592 0.0
H370 H 0.29936 0.76243 0.78806 0.0
H371 H 0.2867 0.72703 0.79096 0.0
H372 H 0.32256 0.73685 0.77937 0.0
H373 H 0.21002 0.75056 0.6878 0.0
H374 H 0.19801 0.73701 0.71848 0.0
H375 H 0.21367 0.77219 0.71919 0.0
H376 H 0.19378 0.72678 0.81141 0.0
H377 H 0.22881 0.81126 0.80664 0.0
H378 H 0.241 0.69713 0.77145 0.0
H379 H 0.21159 0.70143 0.74759 0.0
H380 H 0.20361 0.69143 0.78075 0.0
H381 H 0.28438 0.80123 0.76583 0.0
H382 H 0.25923 0.8255 0.77286 0.0
H383 H 0.25461 0.80357 0.74165 0.0
C384 C 0.23952 0.19976 0.76256 0.0
C385 C 0.21134 0.18632 0.75448 0.0
C386 C 0.25287 0.22017 0.74758 0.0
C387 C 0.23714 0.22766 0.72451 0.0
C388 C 0.2097 0.21237 0.715 0.0
C389 C 0.19707 0.19172 0.7302 0.0
C390 C 0.28246 0.2356 0.75806 0.0
C391 C 0.19225 0.21969 0.69054 0.0
C392 C 0.25134 0.30414 0.72005 0.0
C393 C 0.27163 0.30618 0.70028 0.0
C394 C 0.23857 0.27852 0.72685 0.0
C395 C 0.24678 0.25437 0.7139 0.0
C396 C 0.26613 0.25628 0.69291 0.0
C397 C 0.2782 0.28228 0.68617 0.0
C398 C 0.21745 0.27737 0.74894 0.0
C399 C 0.27554 0.23103 0.67882 0.0
H400 H 0.25025 0.19562 0.78158 0.0
H401 H 0.175 0.18145 0.72433 0.0
H402 H 0.29683 0.23908 0.74122 0.0
H403 H 0.27949 0.25598 0.76775 0.0
H404 H 0.29377 0.22449 0.77327 0.0
H405 H 0.17466 0.20278 0.68271 0.0
H406 H 0.18181 0.23813 0.69619 0.0
H407 H 0.2067 0.22471 0.67408 0.0
H408 H 0.24604 0.32264 0.73076 0.0
H409 H 0.29403 0.28385 0.67092 0.0
H410 H 0.2277 0.26946 0.767 0.0
H411 H 0.19716 0.26312 0.74214 0.0
H412 H 0.21124 0.29783 0.75507 0.0
H413 H 0.29119 0.22256 0.69268 0.0
H414 H 0.28652 0.23564 0.66011 0.0
H415 H 0.25645 0.21487 0.67352 0.0
C416 C 0.78461 0.21 0.75643 0.0
C417 C 0.77776 0.19303 0.77706 0.0
C418 C 0.76933 0.23224 0.75224 0.0
C419 C 0.74587 0.23682 0.76836 0.0
C420 C 0.73843 0.21926 0.78882 0.0
C421 C 0.75495 0.19789 0.79332 0.0
C422 C 0.77864 0.25112 0.73093 0.0
C423 C 0.71287 0.22287 0.80573 0.0
C424 C 0.72068 0.30709 0.77481 0.0
C425 C 0.69769 0.30396 0.75452 0.0
C426 C 0.73695 0.28553 0.77923 0.0
C427 C 0.7291 0.25996 0.76374 0.0
C428 C 0.7054 0.25659 0.74362 0.0
C429 C 0.69036 0.27886 0.73885 0.0
C430 C 0.7628 0.29024 0.80013 0.0
C431 C 0.69568 0.22938 0.72738 0.0
H432 H 0.80256 0.20637 0.74411 0.0
H433 H 0.74966 0.18461 0.80921 0.0
H434 H 0.7604 0.25065 0.71515 0.0
H435 H 0.78383 0.27256 0.7402 0.0
H436 H 0.7982 0.24542 0.72101 0.0
H437 H 0.70911 0.20665 0.81988 0.0
H438 H 0.71684 0.24311 0.81768 0.0
H439 H 0.69253 0.22246 0.79236 0.0
H440 H 0.72638 0.32664 0.78676 0.0
H441 H 0.67233 0.27646 0.72334 0.0
H442 H 0.78297 0.28565 0.7906 0.0
H443 H 0.75907 0.27615 0.81625 0.0
H444 H 0.76672 0.31165 0.80965 0.0
H445 H 0.71361 0.22366 0.71513 0.0
H446 H 0.67584 0.22979 0.71355 0.0
H447 H 0.69079 0.21305 0.74121 0.0
C448 C 0.7777 0.75047 0.80444 0.0
C449 C 0.78532 0.77887 0.81006 0.0
C450 C 0.76039 0.73952 0.78097 0.0
C451 C 0.75037 0.75741 0.76263 0.0
C452 C 0.75842 0.78609 0.76786 0.0
C453 C 0.77584 0.79653 0.79158 0.0
C454 C 0.75227 0.70876 0.77612 0.0
C455 C 0.74811 0.80572 0.74872 0.0
C456 C 0.72157 0.71951 0.69507 0.0
C457 C 0.69196 0.71225 0.69968 0.0
C458 C 0.74074 0.73616 0.71465 0.0
C459 C 0.72981 0.74574 0.73913 0.0
C460 C 0.69941 0.74045 0.7427 0.0
C461 C 0.68087 0.72368 0.72294 0.0
C462 C 0.773 0.74158 0.71007 0.0
C463 C 0.68682 0.75052 0.76837 0.0
H464 H 0.7851 0.73669 0.81851 0.0
H465 H 0.78181 0.81851 0.79575 0.0
H466 H 0.72811 0.70328 0.77619 0.0
H467 H 0.75868 0.70141 0.75596 0.0
H468 H 0.76299 0.69769 0.79173 0.0
H469 H 0.75817 0.82725 0.75461 0.0
H470 H 0.75347 0.79981 0.7278 0.0
H471 H 0.72387 0.80467 0.74842 0.0
H472 H 0.73019 0.71079 0.67704 0.0
H473 H 0.65785 0.71845 0.72636 0.0
H474 H 0.78522 0.72853 0.72256 0.0
H475 H 0.78201 0.76327 0.71641 0.0
H476 H 0.77713 0.73691 0.68853 0.0
H477 H 0.69389 0.73883 0.78522 0.0
H478 H 0.66241 0.74792 0.7664 0.0
H479 H 0.69512 0.77249 0.774 0.0
C480 C 0.17977 0.16028 0.90241 0.0
C481 C 0.18191 0.13529 0.88774 0.0
C482 C 0.17916 0.16193 0.93067 0.0
C483 C 0.18144 0.13817 0.94442 0.0
C484 C 0.18689 0.11374 0.9299 0.0
C485 C 0.18661 0.11247 0.90163 0.0
C486 C 0.17297 0.18827 0.94534 0.0
C487 C 0.19036 0.0882 0.94392 0.0
C488 C 0.1838 0.14207 0.02132 0.0
C489 C 0.15458 0.13197 0.02516 0.0
C490 C 0.1931 0.1444 0.99509 0.0
C491 C 0.17243 0.13715 0.97249 0.0
C492 C 0.1427 0.12784 0.97648 0.0
C493 C 0.13427 0.125 0.00274 0.0
C494 C 0.22508 0.15372 0.99153 0.0
C495 C 0.11977 0.12052 0.95296 0.0
H496 H 0.17613 0.17796 0.89167 0.0
H497 H 0.1887 0.09323 0.89029 0.0
H498 H 0.14962 0.18593 0.9502 0.0
H499 H 0.1867 0.19298 0.96471 0.0
H500 H 0.17696 0.20592 0.93287 0.0
H501 H 0.19992 0.0729 0.93084 0.0
H502 H 0.20457 0.09331 0.96301 0.0
H503 H 0.16852 0.07861 0.94922 0.0
H504 H 0.19951 0.14731 0.03874 0.0
H505 H 0.1116 0.11748 0.00576 0.0
H506 H 0.22735 0.1707 0.97815 0.0
H507 H 0.23488 0.13654 0.98157 0.0
H508 H 0.23785 0.16065 0.01114 0.0
H509 H 0.1198 0.13783 0.94002 0.0
H510 H 0.09729 0.11544 0.9597 0.0
H511 H 0.12501 0.10257 0.94024 0.0
C512 C 0.84162 0.17159 0.9349 0.0
C513 C 0.82089 0.17098 0.91292 0.0
C514 C 0.83428 0.17722 0.96147 0.0
C515 C 0.80527 0.18188 0.96627 0.0
C516 C 0.78473 0.18305 0.94406 0.0
C517 C 0.79287 0.17773 0.91752 0.0
C518 C 0.85713 0.17633 0.98449 0.0
C519 C 0.75363 0.18797 0.9483 0.0
C520 C 0.78762 0.1547 0.03282 0.0
C521 C 0.79454 0.17841 0.05065 0.0
C522 C 0.78791 0.156 0.0048 0.0
C523 C 0.79599 0.18161 0.99442 0.0
C524 C 0.80028 0.20593 0.01219 0.0
C525 C 0.7993 0.20405 0.04024 0.0
C526 C 0.78248 0.12959 0.98658 0.0
C527 C 0.8088 0.23362 0.00197 0.0
H528 H 0.86344 0.16676 0.93137 0.0
H529 H 0.77678 0.17727 0.90053 0.0
H530 H 0.85807 0.19459 -0.0008 0.0
H531 H 0.85106 0.1579 0.99543 0.0
H532 H 0.8794 0.17554 0.97732 0.0
H533 H 0.74235 0.19367 0.92957 0.0
H534 H 0.74104 0.16896 0.95437 0.0
H535 H 0.75319 0.20438 0.96478 0.0
H536 H 0.7837 0.13488 0.0409 0.0
H537 H 0.80481 0.2224 0.05405 0.0
H538 H 0.8037 0.12442 0.9797 0.0
H539 H 0.76815 0.13187 0.96833 0.0
H540 H 0.77209 0.1122 0.99712 0.0
H541 H 0.83251 0.23613 0.99834 0.0
H542 H 0.80502 0.25056 0.01685 0.0
H543 H 0.79634 0.23543 0.98249 0.0
C544 C 0.81176 0.81359 0.96758 0.0
C545 C 0.81429 0.83699 0.95314 0.0
C546 C 0.81093 0.81591 0.99585 0.0
C547 C 0.8123 0.8422 0.00985 0.0
C548 C 0.81207 0.86556 0.99509 0.0
C549 C 0.8133 0.8627 0.96691 0.0
C550 C 0.81122 0.79051 0.01084 0.0
C551 C 0.81293 0.8939 0.00922 0.0
C552 C 0.80418 0.85227 0.08562 0.0
C553 C 0.83365 0.85922 0.09547 0.0
C554 C 0.79665 0.84584 0.05774 0.0
C555 C 0.81922 0.84599 0.03963 0.0
C556 C 0.84902 0.85159 0.04979 0.0
C557 C 0.85583 0.85835 0.07753 0.0
C558 C 0.76466 0.8402 0.04759 0.0
C559 C 0.87382 0.85146 0.03126 0.0
H560 H 0.81237 0.79362 0.95707 0.0
H561 H 0.81476 0.88082 0.95581 0.0
H562 H 0.83366 0.79021 0.02029 0.0
H563 H 0.79606 0.79053 0.02731 0.0
H564 H 0.80496 0.77145 0.99714 0.0
H565 H 0.80804 0.90912 0.99485 0.0
H566 H 0.79693 0.89372 0.02499 0.0
H567 H 0.83513 0.90073 0.01943 0.0
H568 H 0.78701 0.85305 0.0995 0.0
H569 H 0.87866 0.86341 0.08516 0.0
H570 H 0.76049 0.82162 0.03308 0.0
H571 H 0.75878 0.85766 0.03661 0.0
H572 H 0.75 0.83741 0.06436 0.0
H573 H 0.87123 0.83185 0.01826 0.0
H574 H 0.89573 0.85427 0.04264 0.0
H575 H 0.87323 0.86823 0.01772 0.0
C576 C 0.16268 0.83856 0.07113 0.0
C577 C 0.18053 0.83355 0.09358 0.0
C578 C 0.16886 0.83027 0.04477 0.0
C579 C 0.1937 0.81673 0.04063 0.0
C580 C 0.21117 0.81056 0.06324 0.0
C581 C 0.20433 0.819 0.08954 0.0
C582 C 0.14934 0.83697 0.02128 0.0
C583 C 0.23778 0.79615 0.05966 0.0
C584 C 0.1894 0.7856 0.96836 0.0
C585 C 0.20266 0.80794 0.95562 0.0
C586 C 0.1888 0.78693 0.99666 0.0
C587 C 0.20196 0.81106 0.01247 0.0
C588 C 0.21839 0.8322 -8e-05 0.0
C589 C 0.21846 0.83043 0.97162 0.0
C590 C 0.17142 0.76376 0.00927 0.0
C591 C 0.2333 0.85804 0.01606 0.0
H592 H 0.14407 0.84952 0.0741 0.0
H593 H 0.21822 0.81509 0.10684 0.0
H594 H 0.16209 0.85166 0.0092 0.0
H595 H 0.14142 0.81816 0.00771 0.0
H596 H 0.12997 0.84614 0.02801 0.0
H597 H 0.24606 0.78886 0.07891 0.0
H598 H 0.23268 0.7784 0.04419 0.0
H599 H 0.25561 0.81052 0.05241 0.0
H600 H 0.17733 0.76801 0.9562 0.0
H601 H 0.22921 0.84758 0.96196 0.0
H602 H 0.14961 0.76952 0.01371 0.0
H603 H 0.18265 0.75974 0.02867 0.0
H604 H 0.16789 0.74455 0.99554 0.0
H605 H 0.21645 0.87095 0.02219 0.0
H606 H 0.2491 0.87023 0.00418 0.0
H607 H 0.24517 0.8531 0.03478 0.0
C608 C 0.05712 0.19397 0.12756 0.0
C609 C 0.05832 0.166 0.12112 0.0
C610 C 0.03011 0.20366 0.1307 0.0
C611 C 0.00397 0.18475 0.12824 0.0
C612 C 0.00515 0.15646 0.1218 0.0
C613 C 0.03232 0.14749 0.11788 0.0
C614 C 0.02954 0.23403 0.13664 0.0
C615 C 0.97781 0.13555 0.11966 0.0
C616 C 0.93634 0.19894 0.16324 0.0
C617 C 0.9167 0.20099 0.14103 0.0
C618 C 0.96548 0.19506 0.15955 0.0
C619 C 0.97529 0.1941 0.1331 0.0
C620 C 0.95625 0.19875 0.11095 0.0
C621 C 0.92694 0.20165 0.11511 0.0
C622 C 0.9849 0.18959 0.18362 0.0
C623 C 0.96626 0.19888 0.08261 0.0
H624 H 0.07728 0.20831 0.12981 0.0
H625 H 0.03331 0.12585 0.11308 0.0
H626 H 0.01424 0.24135 0.12156 0.0
H627 H 0.02127 0.23813 0.15683 0.0
H628 H 0.05162 0.24615 0.1363 0.0
H629 H 0.98266 0.11428 0.11521 0.0
H630 H 0.96683 0.13663 0.13889 0.0
H631 H 0.962 0.14012 0.10341 0.0
H632 H 0.92836 0.19819 0.18327 0.0
H633 H 0.91176 0.20345 0.09795 0.0
H634 H 0.00672 0.20227 0.18428 0.0
H635 H 0.98855 0.16777 0.18172 0.0
H636 H 0.97501 0.19379 0.20307 0.0
H637 H 0.98831 0.21109 0.08264 0.0
H638 H 0.95066 0.20738 0.06867 0.0
H639 H 0.96805 0.17761 0.07459 0.0
C640 C 0.80905 0.97799 0.20662 0.0
C641 C 0.83151 0.96828 0.19241 0.0
C642 C 0.80194 0.0045 0.20393 0.0
C643 C 0.81819 0.02182 0.1872 0.0
C644 C 0.84105 0.01215 0.17304 0.0
C645 C 0.84718 0.98539 0.17557 0.0
C646 C 0.77699 0.01393 0.21882 0.0
C647 C 0.85934 0.03019 0.15545 0.0
C648 C 0.79303 0.08411 0.15792 0.0
C649 C 0.80952 0.10549 0.17488 0.0
C650 C 0.79389 0.05661 0.16286 0.0
C651 C 0.81216 0.05042 0.18491 0.0
C652 C 0.82746 0.07192 0.20299 0.0
C653 C 0.82569 0.09919 0.19791 0.0
C654 C 0.77663 0.0342 0.14356 0.0
C655 C 0.84752 0.06622 0.22651 0.0
H656 H 0.79669 0.96468 0.21945 0.0
H657 H 0.86465 0.978 0.16467 0.0
H658 H 0.78534 0.032 0.23324 0.0
H659 H 0.76056 0.02046 0.20427 0.0
H660 H 0.76583 -0.00238 0.23023 0.0
H661 H 0.87663 0.01967 0.14617 0.0
H662 H 0.84506 0.03665 0.13901 0.0
H663 H 0.87008 0.04906 0.16766 0.0
H664 H 0.78026 0.08883 0.14023 0.0
H665 H 0.83853 0.11555 0.21115 0.0
H666 H 0.76514 0.01802 0.15488 0.0
H667 H 0.79188 0.02443 0.13073 0.0
H668 H 0.76016 0.04221 0.13012 0.0
H669 H 0.83612 0.0506 0.23849 0.0
H670 H 0.85549 0.08499 0.24018 0.0
H671 H 0.86686 0.05781 0.2187 0.0
C672 C 0.94306 0.84779 0.2015 0.0
C673 C 0.93517 0.87205 0.21365 0.0
C674 C 0.9724 0.84297 0.20285 0.0
C675 C 0.99441 0.86339 0.21582 0.0
C676 C 0.98633 0.88734 0.22931 0.0
C677 C 0.95662 0.8912 0.2284 0.0
C678 C 0.98001 0.81679 0.18897 0.0
C679 C 0.0092 0.90987 0.24282 0.0
C680 C 0.07339 0.84947 0.22725 0.0
C681 C 0.08548 0.85894 0.20397 0.0
C682 C 0.04353 0.85021 0.23125 0.0
C683 C 0.0258 0.86147 0.21191 0.0
C684 C 0.03799 0.87107 0.18841 0.0
C685 C 0.06755 0.86932 0.18456 0.0
C686 C 0.03099 0.83901 0.2561 0.0
C687 C 0.01998 0.88373 0.16753 0.0
H688 H 0.92632 0.83285 0.19035 0.0
H689 H 0.95045 0.91002 0.23766 0.0
H690 H 0.99035 0.8213 0.16996 0.0
H691 H 0.99609 0.80787 0.20198 0.0
H692 H 0.96027 0.80126 0.18385 0.0
H693 H -0.00077 0.92568 0.25487 0.0
H694 H 0.02515 0.90133 0.25629 0.0
H695 H 0.02171 0.91999 0.22713 0.0
H696 H 0.08723 0.84138 0.24225 0.0
H697 H 0.0769 0.87698 0.16669 0.0
H698 H 0.01177 0.82315 0.25007 0.0
H699 H 0.02306 0.85562 0.26878 0.0
H700 H 0.04738 0.82984 0.26857 0.0
H701 H 0.00132 0.86849 0.15856 0.0
H702 H 0.03313 0.89112 0.15091 0.0
H703 H 0.0106 0.90128 0.17727 0.0
C704 C 0.19257 0.07794 0.16866 0.0
C705 C 0.16605 0.07407 0.1524 0.0
C706 C 0.20383 0.05558 0.17931 0.0
C707 C 0.1878 0.02898 0.17399 0.0
C708 C 0.16039 0.02527 0.15854 0.0
C709 C 0.15006 0.0478 0.14766 0.0
C710 C 0.23338 0.06025 0.19518 0.0
C711 C 0.14221 0.99734 0.1529 0.0
C712 C 0.21664 0.9612 0.16932 0.0
C713 C 0.20598 0.95004 0.19241 0.0
C714 C 0.21411 0.98842 0.16461 0.0
C715 C 0.19984 0.00448 0.1831 0.0
C716 C 0.19203 0.99425 0.20787 0.0
C717 C 0.19552 0.96712 0.21238 0.0
C718 C 0.22371 -0.00111 0.1384 0.0
C719 C 0.1767 0.01064 0.2281 0.0
H720 H 0.20507 0.09826 0.17217 0.0
H721 H 0.12943 0.04484 0.1353 0.0
H722 H 0.23248 0.04966 0.21404 0.0
H723 H 0.24976 0.05147 0.18292 0.0
H724 H 0.2412 0.0824 0.20053 0.0
H725 H 0.12043 -0.00166 0.14232 0.0
H726 H 0.15409 0.9837 0.14012 0.0
H727 H 0.13867 0.98777 0.17211 0.0
H728 H 0.225 0.94804 0.15397 0.0
H729 H 0.18716 0.95851 0.23024 0.0
H730 H 0.23425 0.02055 0.14172 0.0
H731 H 0.20419 -0.00191 0.12391 0.0
H732 H 0.23934 0.98634 0.129 0.0
H733 H 0.18665 0.03248 0.23049 0.0
H734 H 0.17742 0.00234 0.24824 0.0
H735 H 0.15331 0.00986 0.22069 0.0
C736 C 0.94541 0.83931 0.85251 0.0
C737 C 0.9271 0.82116 0.86642 0.0
C738 C 0.9754 0.8371 0.85157 0.0
C739 C 0.98742 0.81675 0.86552 0.0
C740 C 0.96893 0.79812 0.87926 0.0
C741 C 0.93887 0.80033 0.87924 0.0
C742 C 0.99433 0.85689 0.83614 0.0
C743 C 0.98107 0.77658 0.8949 0.0
C744 C 0.06267 0.79839 0.85052 0.0
C745 C 0.08079 0.81519 0.87065 0.0
C746 C 0.0322 0.79892 0.84832 0.0
C747 C 0.01962 0.81608 0.86718 0.0
C748 C 0.03781 0.8327 0.88782 0.0
C749 C 0.06824 0.83233 0.88907 0.0
C750 C 0.01353 0.78144 0.82566 0.0
C751 C 0.02513 0.85076 0.90871 0.0
H752 H 0.93628 0.85528 0.84238 0.0
H753 H 0.92478 0.78638 0.89016 0.0
H754 H 0.01036 0.87055 0.85044 0.0
H755 H 0.0071 0.84553 0.82201 0.0
H756 H 0.98115 0.86983 0.82438 0.0
H757 H 0.96357 0.76304 0.90368 0.0
H758 H 0.99321 0.76368 0.8816 0.0
H759 H -0.00307 0.78668 0.9116 0.0
H760 H 0.07241 0.78527 0.83615 0.0
H761 H 0.08221 0.84516 0.90479 0.0
H762 H 0.0015 0.7946 0.81314 0.0
H763 H -0.00317 0.76682 0.8341 0.0
H764 H 0.02679 0.76964 0.81237 0.0
H765 H 0.01393 0.86622 0.89867 0.0
H766 H 0.04222 0.86168 0.92401 0.0
H767 H 0.0084 0.83822 0.91932 0.0
C768 C 0.19794 0.90477 0.81849 0.0
C769 C 0.19789 0.90713 0.84682 0.0
C770 C 0.19648 0.9278 0.80377 0.0
C771 C 0.19486 0.95358 0.8178 0.0
C772 C 0.19776 0.95644 0.84647 0.0
C773 C 0.19923 0.93317 0.86061 0.0
C774 C 0.1942 0.924 0.77326 0.0
C775 C 0.19659 0.98362 0.86233 0.0
C776 C 0.19587 0.02327 0.79094 0.0
C777 C 0.1661 0.02642 0.79174 0.0
C778 C 0.20562 -0.00162 0.79671 0.0
C779 C 0.18504 0.97642 0.80335 0.0
C780 C 0.15464 0.97861 0.80095 0.0
C781 C 0.14557 0.00362 0.79524 0.0
C782 C 0.23813 0.9966 0.79831 0.0
C783 C 0.13181 0.95556 0.80733 0.0
H784 H 0.19715 0.8847 0.8077 0.0
H785 H 0.1997 0.9352 0.88252 0.0
H786 H 0.17074 0.92177 0.76568 0.0
H787 H 0.20588 0.94204 0.76459 0.0
H788 H 0.20331 0.90532 0.76577 0.0
H789 H 0.20231 0.98299 0.88431 0.0
H790 H 0.21188 7e-05 0.85471 0.0
H791 H 0.17408 0.98923 0.85971 0.0
H792 H 0.21183 0.04084 0.78813 0.0
H793 H 0.12247 0.00591 0.79544 0.0
H794 H 0.24246 0.97579 0.79104 0.0
H795 H 0.24711 0.00078 0.8197 0.0
H796 H 0.2501 0.01189 0.78627 0.0
H797 H 0.13572 0.93579 0.79698 0.0
H798 H 0.10912 0.95922 0.80119 0.0
H799 H 0.13337 0.95353 0.82945 0.0
C800 C 0.04654 0.11602 0.78891 0.0
C801 C 0.06925 0.13807 0.78965 0.0
C802 C 0.01712 0.12049 0.78941 0.0
C803 C 0.01021 0.14765 0.79054 0.0
C804 C 0.03283 0.16988 0.78976 0.0
C805 C 0.0621 0.16484 0.78938 0.0
C806 C 0.99356 0.09621 0.79011 0.0
C807 C 0.02629 0.19909 0.79064 0.0
C808 C 0.92939 0.15356 0.77665 0.0
C809 C 0.91992 0.15511 0.80297 0.0
C810 C 0.95904 0.1524 0.77224 0.0
C811 C 0.97963 0.1527 0.79467 0.0
C812 C 0.97051 0.15579 0.82128 0.0
C813 C 0.94079 0.15703 0.82511 0.0
C814 C 0.96804 0.14948 0.74358 0.0
C815 C 0.99187 0.15634 0.84576 0.0
H816 H 0.0518 0.09527 0.78902 0.0
H817 H 0.07947 0.18201 0.78978 0.0
H818 H 0.98364 0.09729 0.80988 0.0
H819 H 0.97572 0.09665 0.77412 0.0
H820 H 0.00229 0.07634 0.78723 0.0
H821 H 0.04577 0.21369 0.78675 0.0
H822 H 0.00804 0.20091 0.77549 0.0
H823 H 0.01913 0.20522 0.81086 0.0
H824 H 0.91348 0.15223 0.75939 0.0
H825 H 0.93376 0.15838 0.84552 0.0
H826 H 0.97384 0.1286 0.73897 0.0
H827 H 0.98782 0.1643 0.74116 0.0
H828 H 0.95022 0.15278 0.72854 0.0
H829 H -0.0 0.13619 0.84621 0.0
H830 H 0.98171 0.16078 0.86502 0.0
H831 H 0.01122 0.17206 0.84458 0.0
C832 C 0.84826 0.94702 0.84604 0.0
C833 C 0.82774 0.92318 0.84327 0.0
C834 C 0.841 0.97162 0.8371 0.0
C835 C 0.8123 0.97255 0.82547 0.0
C836 C 0.79176 0.9483 0.82167 0.0
C837 C 0.79981 0.92375 0.83048 0.0
C838 C 0.8638 0.99688 0.84112 0.0
C839 C 0.76092 0.94856 0.80953 0.0
C840 C 0.79476 0.04463 0.83788 0.0
C841 C 0.80276 0.05576 0.8139 0.0
C842 C 0.79483 0.01667 0.8409 0.0
C843 C 0.80366 -0.00042 0.81959 0.0
C844 C 0.80916 0.01019 0.79447 0.0
C845 C 0.80843 0.03823 0.79184 0.0
C846 C 0.78815 0.00607 0.86783 0.0
C847 C 0.81865 0.99267 0.77126 0.0
H848 H 0.87 0.94658 0.85561 0.0
H849 H 0.78388 0.90532 0.82834 0.0
H850 H 0.86601 0.00664 0.82186 0.0
H851 H 0.85677 0.01209 0.85612 0.0
H852 H 0.88573 0.99217 0.84846 0.0
H853 H 0.74901 0.92751 0.8045 0.0
H854 H 0.74848 0.95966 0.82417 0.0
H855 H 0.76121 0.9596 0.79094 0.0
H856 H 0.78999 0.05809 0.85486 0.0
H857 H 0.81465 0.04676 0.77326 0.0
H858 H 0.80896 0.00305 0.87902 0.0
H859 H 0.77395 0.98593 0.86489 0.0
H860 H 0.7771 0.02054 0.88054 0.0
H861 H 0.842 0.98995 0.77547 0.0
H862 H 0.81658 0.00221 0.75184 0.0
H863 H 0.80551 0.97199 0.76896 0.0
C864 C 0.69239 0.65303 0.41704 0.0
C865 C 0.66548 0.64224 0.40298 0.0
C866 C 0.69588 0.65363 0.4454 0.0
C867 C 0.6716 0.64399 0.45983 0.0
C868 C 0.64404 0.63431 0.44567 0.0
C869 C 0.64147 0.63312 0.41738 0.0
C870 C 0.72577 0.66333 0.45973 0.0
C871 C 0.61736 0.62454 0.46033 0.0
C872 C 0.67495 0.61283 0.52658 0.0
C873 C 0.66748 0.63395 0.54413 0.0
C874 C 0.67932 0.61679 0.49945 0.0
C875 C 0.67495 0.64216 0.48953 0.0
C876 C 0.66929 0.66414 0.50765 0.0
C877 C 0.66603 0.65986 0.53496 0.0
C878 C 0.68634 0.59312 0.481 0.0
C879 C 0.6639 0.69131 0.49778 0.0
H880 H 0.711 0.65989 0.40578 0.0
H881 H 0.62059 0.62503 0.40645 0.0
H882 H 0.72415 0.67872 0.47688 0.0
H883 H 0.73458 0.64573 0.46831 0.0
H884 H 0.74165 0.67247 0.44593 0.0
H885 H 0.59702 0.62017 0.44655 0.0
H886 H 0.62076 0.60554 0.46989 0.0
H887 H 0.61405 0.6402 0.47672 0.0
H888 H 0.67625 0.59284 0.53383 0.0
H889 H 0.65999 0.6761 0.54857 0.0
H890 H 0.70353 0.60025 0.4675 0.0
H891 H 0.66637 0.58416 0.46798 0.0
H892 H 0.69397 0.5767 0.49256 0.0
H893 H 0.68045 0.69836 0.48367 0.0
H894 H 0.66437 0.70743 0.51476 0.0
H895 H 0.64199 0.68881 0.48648 0.0
C896 C 0.28323 0.64297 0.50311 0.0
C897 C 0.28982 0.66605 0.5218 0.0
C898 C 0.28383 0.64541 0.47527 0.0
C899 C 0.29181 0.67154 0.46595 0.0
C900 C 0.29577 0.69522 0.48459 0.0
C901 C 0.29455 0.69219 0.51245 0.0
C902 C 0.27878 0.61964 0.45612 0.0
C903 C 0.30407 0.72344 0.47548 0.0
C904 C 0.33819 0.66376 0.40673 0.0
C905 C 0.31757 0.66328 0.38468 0.0
C906 C 0.33058 0.66877 0.43329 0.0
C907 C 0.30142 0.67299 0.438 0.0
C908 C 0.28103 0.67448 0.41575 0.0
C909 C 0.28943 0.66973 0.38921 0.0
C910 C 0.35327 0.66753 0.45636 0.0
C911 C 0.24982 0.67905 0.4199 0.0
H912 H 0.27923 0.62276 0.51036 0.0
H913 H 0.2997 0.71007 0.52692 0.0
H914 H 0.26444 0.62246 0.43805 0.0
H915 H 0.30012 0.61503 0.44903 0.0
H916 H 0.26856 0.60166 0.46594 0.0
H917 H 0.2999 0.73975 0.49089 0.0
H918 H 0.32784 0.72644 0.47212 0.0
H919 H 0.29178 0.72585 0.45608 0.0
H920 H 0.36011 0.65919 0.40324 0.0
H921 H 0.27344 0.66941 0.37216 0.0
H922 H 0.34732 0.64869 0.46672 0.0
H923 H 0.35383 0.68536 0.47151 0.0
H924 H 0.37566 0.66725 0.44932 0.0
H925 H 0.23716 0.65966 0.42503 0.0
H926 H 0.23882 0.68551 0.40139 0.0
H927 H 0.24904 0.69478 0.43696 0.0
C928 C 0.30378 0.35461 0.44523 0.0
C929 C 0.30448 0.32957 0.43006 0.0
C930 C 0.30112 0.35565 0.47321 0.0
C931 C 0.29947 0.33111 0.48631 0.0
C932 C 0.29731 0.30558 0.47073 0.0
C933 C 0.29969 0.3051 0.44269 0.0
C934 C 0.3028 0.38328 0.48904 0.0
C935 C 0.29534 0.27895 0.48391 0.0
C936 C 0.34152 0.342 0.55488 0.0
C937 C 0.31899 0.34337 0.57235 0.0
C938 C 0.33522 0.33653 0.52694 0.0
C939 C 0.30561 0.33275 0.51613 0.0
C940 C 0.28263 0.33279 0.53377 0.0
C941 C 0.28962 0.33796 0.56182 0.0
C942 C 0.36041 0.33613 0.50889 0.0
C943 C 0.25083 0.32895 0.52299 0.0
H944 H 0.30693 0.37357 0.43551 0.0
H945 H 0.29996 0.28562 0.43107 0.0
H946 H 0.28622 0.38269 0.5043 0.0
H947 H 0.32481 0.38863 0.50005 0.0
H948 H 0.2993 0.39975 0.47569 0.0
H949 H 0.28816 0.26096 0.469 0.0
H950 H 0.31728 0.27672 0.49339 0.0
H951 H 0.27986 0.27876 0.50013 0.0
H952 H 0.36425 0.34588 0.56303 0.0
H953 H 0.27215 0.33912 0.57534 0.0
H954 H 0.36131 0.35382 0.49637 0.0
H955 H 0.35704 0.31717 0.49488 0.0
H956 H 0.38195 0.33724 0.52063 0.0
H957 H 0.24596 0.3478 0.51387 0.0
H958 H 0.23568 0.32493 0.53919 0.0
H959 H 0.2463 0.31178 0.50685 0.0
C960 C 0.71041 0.33298 0.4989 0.0
C961 C 0.69643 0.31064 0.48156 0.0
C962 C 0.70867 0.33344 0.527 0.0
C963 C 0.6923 0.31113 0.53796 0.0
C964 C 0.68089 0.28731 0.52085 0.0
C965 C 0.6832 0.28729 0.49279 0.0
C966 C 0.72174 0.35903 0.54457 0.0
C967 C 0.66357 0.26296 0.53173 0.0
C968 C 0.69047 0.31597 0.61476 0.0
C969 C 0.66593 0.32965 0.61814 0.0
C970 C 0.69891 0.30872 0.58869 0.0
C971 C 0.68224 0.31517 0.56569 0.0
C972 C 0.65658 0.32764 0.56912 0.0
C973 C 0.64887 0.33482 0.59524 0.0
C974 C 0.72636 0.29542 0.58586 0.0
C975 C 0.63785 0.33451 0.54517 0.0
H976 H 0.72111 0.35093 0.49041 0.0
H977 H 0.67249 0.26983 0.47956 0.0
H978 H 0.70391 0.37091 0.55036 0.0
H979 H 0.73292 0.35371 0.56347 0.0
H980 H 0.73776 0.37239 0.53393 0.0
H981 H 0.66158 0.2443 0.51733 0.0
H982 H 0.6739 0.25852 0.55138 0.0
H983 H 0.64112 0.26764 0.53523 0.0
H984 H 0.70374 0.31195 0.63242 0.0
H985 H 0.62967 0.34508 0.59773 0.0
H986 H 0.74418 0.31067 0.57988 0.0
H987 H 0.72264 0.27819 0.56976 0.0
H988 H 0.73395 0.28765 0.6051 0.0
H989 H 0.65065 0.35023 0.53425 0.0
H990 H 0.61758 0.34251 0.5513 0.0
H991 H 0.6314 0.31605 0.53075 0.0
C992 C 0.5311 0.63285 0.6164 0.0
C993 C 0.55497 0.65335 0.62358 0.0
C994 C 0.50226 0.63915 0.61524 0.0
C995 C 0.49737 0.66675 0.62049 0.0
C996 C 0.52154 0.68768 0.62661 0.0
C997 C 0.55009 0.68065 0.62856 0.0
C998 C 0.477 0.61616 0.60936 0.0
C999 C 0.51722 0.71741 0.63144 0.0
C1000 C 0.42075 0.67978 0.59735 0.0
C1001 C 0.40688 0.67912 0.62163 0.0
C1002 C 0.45076 0.6774 0.59689 0.0
C1003 C 0.46686 0.67331 0.62112 0.0
C1004 C 0.45314 0.67353 0.64582 0.0
C1005 C 0.4234 0.67688 0.64583 0.0
C1006 C 0.46495 0.67825 0.57035 0.0
C1007 C 0.46936 0.66857 0.67198 0.0
H1008 H 0.53492 0.61173 0.61268 0.0
H1009 H 0.56864 0.69654 0.63381 0.0
H1010 H 0.46296 0.61543 0.62671 0.0
H1011 H 0.46304 0.61988 0.59137 0.0
H1012 H 0.48458 0.59584 0.60562 0.0
H1013 H 0.53838 0.73139 0.63345 0.0
H1014 H 0.50308 0.72325 0.61452 0.0
H1015 H 0.50581 0.72051 0.6502 0.0
H1016 H 0.408 0.68165 0.57865 0.0
H1017 H 0.41265 0.67607 0.6646 0.0
H1018 H 0.46991 0.65752 0.56361 0.0
H1019 H 0.48608 0.69223 0.57285 0.0
H1020 H 0.45056 0.68514 0.5542 0.0
H1021 H 0.47586 0.64768 0.67027 0.0
H1022 H 0.45582 0.67041 0.68959 0.0
H1023 H 0.4898 0.68334 0.676 0.0
C1024 C 0.27668 0.56729 0.6238 0.0
C1025 C 0.28932 0.58827 0.64337 0.0
C1026 C 0.27626 0.53961 0.62862 0.0
C1027 C 0.28924 0.53287 0.65337 0.0
C1028 C 0.30001 0.55392 0.67392 0.0
C1029 C 0.29966 0.58136 0.66876 0.0
C1030 C 0.26385 0.51768 0.60647 0.0
C1031 C 0.31426 0.54762 0.70052 0.0
C1032 C 0.28241 0.4593 0.67229 0.0
C1033 C 0.30836 0.45107 0.66311 0.0
C1034 C 0.27546 0.48572 0.66878 0.0
C1035 C 0.29527 0.50442 0.65637 0.0
C1036 C 0.32159 0.49623 0.64728 0.0
C1037 C 0.32765 0.46958 0.6505 0.0
C1038 C 0.24694 0.4936 0.67821 0.0
C1039 C 0.34356 0.51574 0.63437 0.0
H1040 H 0.26832 0.57244 0.60424 0.0
H1041 H 0.30937 0.59741 0.68409 0.0
H1042 H 0.28213 0.50902 0.59691 0.0
H1043 H 0.25016 0.50062 0.61491 0.0
H1044 H 0.25033 0.52587 0.59052 0.0
H1045 H 0.31826 0.56588 0.71551 0.0
H1046 H 0.30042 0.53095 0.70933 0.0
H1047 H 0.33566 0.54043 0.697 0.0
H1048 H 0.2673 0.44494 0.68181 0.0
H1049 H 0.34779 0.46335 0.64349 0.0
H1050 H 0.23385 0.5003 0.66106 0.0
H1051 H 0.25147 0.51119 0.69389 0.0
H1052 H 0.23352 0.47639 0.68674 0.0
H1053 H 0.3331 0.52263 0.61587 0.0
H1054 H 0.36316 0.50625 0.62877 0.0
H1055 H 0.35098 0.53425 0.64851 0.0
C1056 C 0.5454 0.36173 0.69689 0.0
C1057 C 0.56035 0.35068 0.71794 0.0
C1058 C 0.51509 0.36236 0.69646 0.0
C1059 C 0.49909 0.35098 0.71725 0.0
C1060 C 0.51391 0.33936 0.73839 0.0
C1061 C 0.54455 0.3397 0.7387 0.0
C1062 C 0.50024 0.37541 0.67379 0.0
C1063 C 0.49739 0.3264 0.76044 0.0
C1064 C 0.42532 0.37642 0.72168 0.0
C1065 C 0.40773 0.35723 0.70325 0.0
C1066 C 0.45493 0.37376 0.72798 0.0
C1067 C 0.46676 0.35098 0.71607 0.0
C1068 C 0.44822 0.33031 0.69941 0.0
C1069 C 0.41903 0.33392 0.69282 0.0
C1070 C 0.4741 0.39651 0.74542 0.0
C1071 C 0.45972 0.30533 0.68693 0.0
H1072 H 0.55755 0.37059 0.68098 0.0
H1073 H 0.55607 0.33112 0.75498 0.0
H1074 H 0.48397 0.35985 0.6617 0.0
H1075 H 0.48814 0.39173 0.68225 0.0
H1076 H 0.51613 0.38456 0.65999 0.0
H1077 H 0.51214 0.31811 0.77534 0.0
H1078 H 0.4857 0.34166 0.77131 0.0
H1079 H 0.48048 0.30946 0.75139 0.0
H1080 H 0.41655 0.39449 0.72966 0.0
H1081 H 0.40524 0.3189 0.67881 0.0
H1082 H 0.48883 0.4085 0.7325 0.0
H1083 H 0.48823 0.38804 0.76063 0.0
H1084 H 0.46093 0.41069 0.7561 0.0
H1085 H 0.47349 0.31126 0.67025 0.0
H1086 H 0.44163 0.28913 0.67855 0.0
H1087 H 0.47376 0.29666 0.70209 0.0
C1088 C 0.64655 0.5428 0.6636 0.0
C1089 C 0.66099 0.56897 0.67265 0.0
C1090 C 0.65311 0.51966 0.67603 0.0
C1091 C 0.6754 0.52265 0.6975 0.0
C1092 C 0.69013 0.54908 0.70675 0.0
C1093 C 0.6824 0.57207 0.69444 0.0
C1094 C 0.63625 0.49195 0.66598 0.0
C1095 C 0.71461 0.55294 0.72896 0.0
C1096 C 0.66871 0.45999 0.73662 0.0
C1097 C 0.68406 0.44288 0.72071 0.0
C1098 C 0.66779 0.48728 0.73096 0.0
C1099 C 0.68329 0.49769 0.70942 0.0
C1100 C 0.70189 0.48147 0.69575 0.0
C1101 C 0.70162 0.45402 0.70122 0.0
C1102 C 0.64736 0.50367 0.74579 0.0
C1103 C 0.71967 0.49213 0.67337 0.0
H1104 H 0.62981 0.54047 0.6469 0.0
H1105 H 0.69372 0.59236 0.70126 0.0
H1106 H 0.65135 0.47864 0.65695 0.0
H1107 H 0.62668 0.48168 0.6831 0.0
H1108 H 0.6182 0.49348 0.65048 0.0
H1109 H 0.72238 0.57495 0.73517 0.0
H1110 H 0.70734 0.54274 0.74696 0.0
H1111 H 0.73343 0.54315 0.72186 0.0
H1112 H 0.65493 0.45131 0.75157 0.0
H1113 H 0.71364 0.44079 0.68903 0.0
H1114 H 0.62688 0.50351 0.73268 0.0
H1115 H 0.65735 0.52535 0.75045 0.0
H1116 H 0.64138 0.49496 0.76495 0.0
H1117 H 0.70503 0.4916 0.65466 0.0
H1118 H 0.73734 0.47952 0.6689 0.0
H1119 H 0.72972 0.51372 0.67876 0.0
C1120 C 0.44877 0.33766 0.34805 0.0
C1121 C 0.42804 0.31899 0.35889 0.0
C1122 C 0.47888 0.33581 0.35164 0.0
C1123 C 0.4884 0.31529 0.36708 0.0
C1124 C 0.4675 0.29611 0.37769 0.0
C1125 C 0.43751 0.29798 0.37315 0.0
C1126 C 0.50053 0.35618 0.33944 0.0
C1127 C 0.47685 0.27435 0.39479 0.0
C1128 C 0.56631 0.29864 0.36355 0.0
C1129 C 0.58087 0.31543 0.38571 0.0
C1130 C 0.53618 0.2985 0.35705 0.0
C1131 C 0.52024 0.31498 0.37357 0.0
C1132 C 0.53474 0.33142 0.39637 0.0
C1133 C 0.56499 0.33173 0.40194 0.0
C1134 C 0.52153 0.2812 0.33224 0.0
C1135 C 0.51831 0.34872 0.41487 0.0
H1136 H 0.44144 0.35377 0.33682 0.0
H1137 H 0.42151 0.28363 0.38172 0.0
H1138 H 0.51398 0.3697 0.35579 0.0
H1139 H 0.51581 0.34529 0.32763 0.0
H1140 H 0.48945 0.36921 0.32597 0.0
H1141 H 0.45781 0.26033 0.4006 0.0
H1142 H 0.49147 0.26199 0.38374 0.0
H1143 H 0.48958 0.28426 0.41351 0.0
H1144 H 0.57866 0.2862 0.35085 0.0
H1145 H 0.57621 0.34456 0.4192 0.0
H1146 H 0.51197 0.29449 0.31805 0.0
H1147 H 0.50317 0.2664 0.33798 0.0
H1148 H 0.53707 0.26963 0.32147 0.0
H1149 H 0.50897 0.36438 0.40346 0.0
H1150 H 0.53261 0.35936 0.43243 0.0
H1151 H 0.49966 0.33569 0.42256 0.0
C1152 C 0.69497 0.43903 0.39006 0.0
C1153 C 0.69701 0.41363 0.37614 0.0
C1154 C 0.69464 0.46268 0.37631 0.0
C1155 C 0.69638 0.46091 0.34789 0.0
C1156 C 0.7011 0.43586 0.33407 0.0
C1157 C 0.70134 0.41242 0.34839 0.0
C1158 C 0.68991 0.48904 0.39196 0.0
C1159 C 0.70358 0.43323 0.30388 0.0
C1160 C 0.64998 0.51003 0.31802 0.0
C1161 C 0.6708 0.53323 0.31678 0.0
C1162 C 0.65844 0.48543 0.32585 0.0
C1163 C 0.68849 0.48402 0.3327 0.0
C1164 C 0.7099 0.50652 0.32895 0.0
C1165 C 0.70077 0.53098 0.32098 0.0
C1166 C 0.63486 0.46181 0.32914 0.0
C1167 C 0.74218 0.50563 0.33551 0.0
H1168 H 0.69204 0.44019 0.41158 0.0
H1169 H 0.70312 0.39287 0.33751 0.0
H1170 H 0.70584 0.50638 0.38677 0.0
H1171 H 0.66751 0.49377 0.38639 0.0
H1172 H 0.6922 0.48777 0.41419 0.0
H1173 H 0.71365 0.41479 0.29731 0.0
H1174 H 0.68133 0.43138 0.29337 0.0
H1175 H 0.71682 0.45166 0.29734 0.0
H1176 H 0.6268 0.51155 0.31438 0.0
H1177 H 0.71698 0.54885 0.31995 0.0
H1178 H 0.63295 0.45942 0.35101 0.0
H1179 H 0.6407 0.44235 0.31968 0.0
H1180 H 0.61305 0.46502 0.32001 0.0
H1181 H 0.74711 0.50883 0.35777 0.0
H1182 H 0.7561 0.52186 0.32608 0.0
H1183 H 0.74827 0.48535 0.32862 0.0
C1184 C 0.5518 0.61608 0.28096 0.0
C1185 C 0.57353 0.63905 0.28518 0.0
C1186 C 0.52205 0.61912 0.27681 0.0
C1187 C 0.5139 0.64577 0.27657 0.0
C1188 C 0.53587 0.66889 0.27858 0.0
C1189 C 0.56546 0.66528 0.283 0.0
C1190 C 0.49925 0.59392 0.2747 0.0
C1191 C 0.52805 0.69758 0.27786 0.0
C1192 C 0.43365 0.64799 0.25531 0.0
C1193 C 0.42144 0.64905 0.2805 0.0
C1194 C 0.46402 0.64828 0.25363 0.0
C1195 C 0.48247 0.64939 0.27768 0.0
C1196 C 0.47047 0.65185 0.30314 0.0
C1197 C 0.44014 0.65179 0.30424 0.0
C1198 C 0.47614 0.64614 0.22614 0.0
C1199 C 0.48944 0.65311 0.32929 0.0
H1200 H 0.55781 0.59572 0.28244 0.0
H1201 H 0.58215 0.68314 0.2859 0.0
H1202 H 0.48687 0.59387 0.29315 0.0
H1203 H 0.48319 0.5941 0.25713 0.0
H1204 H 0.50922 0.57464 0.27256 0.0
H1205 H 0.54751 0.71275 0.2752 0.0
H1206 H 0.51104 0.69844 0.26122 0.0
H1207 H 0.51878 0.7037 0.29713 0.0
H1208 H 0.41939 0.64607 0.23685 0.0
H1209 H 0.43098 0.65277 0.32379 0.0
H1210 H 0.48287 0.62554 0.22206 0.0
H1211 H 0.49598 0.66146 0.22555 0.0
H1212 H 0.45973 0.64925 0.20969 0.0
H1213 H 0.49881 0.63362 0.33052 0.0
H1214 H 0.47696 0.65649 0.34739 0.0
H1215 H 0.50812 0.66988 0.32989 0.0
C1216 C 0.34766 0.44338 0.3276 0.0
C1217 C 0.32834 0.41879 0.32329 0.0
C1218 C 0.34051 0.46735 0.31714 0.0
C1219 C 0.31306 0.46688 0.30239 0.0
C1220 C 0.29374 0.44193 0.29728 0.0
C1221 C 0.30174 0.41804 0.30764 0.0
C1222 C 0.36203 0.49341 0.32265 0.0
C1223 C 0.26417 0.44072 0.28194 0.0
C1224 C 0.29199 0.53808 0.30897 0.0
C1225 C 0.30277 0.54862 0.28563 0.0
C1226 C 0.29231 0.51044 0.31337 0.0
C1227 C 0.30429 0.49314 0.29421 0.0
C1228 C 0.31263 0.50306 0.26945 0.0
C1229 C 0.31153 0.53074 0.26534 0.0
C1230 C 0.28245 0.50052 0.33973 0.0
C1231 C 0.32557 0.48531 0.24853 0.0
H1232 H 0.36839 0.44397 0.33943 0.0
H1233 H 0.28672 0.39904 0.30434 0.0
H1234 H 0.36641 0.50274 0.30347 0.0
H1235 H 0.35249 0.50852 0.33593 0.0
H1236 H 0.38328 0.48981 0.33266 0.0
H1237 H 0.25336 0.4193 0.27679 0.0
H1238 H 0.24963 0.4518 0.29446 0.0
H1239 H 0.26639 0.45105 0.26301 0.0
H1240 H 0.28488 0.55184 0.32456 0.0
H1241 H 0.31995 0.53885 0.24728 0.0
H1242 H 0.30203 0.49881 0.3534 0.0
H1243 H 0.26929 0.47989 0.33628 0.0
H1244 H 0.26917 0.51479 0.35014 0.0
H1245 H 0.34857 0.48354 0.25551 0.0
H1246 H 0.32571 0.49411 0.22863 0.0
H1247 H 0.31321 0.46431 0.2458 0.0
loop_
_geom_bond_atom_site_label_1
_geom_bond_atom_site_label_2
_geom_bond_distance
_geom_bond_site_symmetry_2
_ccdc_geom_bond_type
O0 Cd1 2.223 . S
O0 C8 1.315 . S
Cd1 O0 2.223 . S
Cd1 O4 2.297 . S
Cd1 O5 2.439 . S
Cd1 O11 2.240 . S
Cd2 O3 2.240 . S
Cd2 O10 2.223 . S
Cd2 O12 2.297 . S
Cd2 O13 2.439 . S
O3 Cd2 2.240 . S
O3 C8 1.279 . S
O4 Cd1 2.297 . S
O4 C6 1.247 . S
O5 Cd1 2.439 . S
O5 C6 1.208 . S
C6 O4 1.247 . S
C6 O5 1.208 . S
C7 O12 1.247 . S
C7 O13 1.208 . S
C8 O0 1.315 . S
C8 O3 1.279 . S
C9 O10 1.315 . S
C9 O11 1.279 . S
O10 Cd2 2.223 . S
O10 C9 1.315 . S
O11 Cd1 2.240 . S
O11 C9 1.279 . S
O12 Cd2 2.297 . S
O12 C7 1.247 . S
O13 Cd2 2.439 . S
O13 C7 1.208 . S
O14 Cd15 2.223 . S
O14 C22 1.315 . S
Cd15 O14 2.223 . S
Cd15 O18 2.297 . S
Cd15 O19 2.439 . S
Cd15 O25 2.240 . S
Cd16 O17 2.240 . S
Cd16 O24 2.223 . S
Cd16 O26 2.297 . S
Cd16 O27 2.439 . S
O17 Cd16 2.240 . S
O17 C22 1.279 . S
O18 Cd15 2.297 . S
O18 C20 1.247 . S
O19 Cd15 2.439 . S
O19 C20 1.208 . S
C20 O18 1.247 . S
C20 O19 1.208 . S
C21 O26 1.247 . S
C21 O27 1.208 . S
C22 O14 1.315 . S
C22 O17 1.279 . S
C23 O24 1.315 . S
C23 O25 1.279 . S
O24 Cd16 2.223 . S
O24 C23 1.315 . S
O25 Cd15 2.240 . S
O25 C23 1.279 . S
O26 Cd16 2.297 . S
O26 C21 1.247 . S
O27 Cd16 2.439 . S
O27 C21 1.208 . S
O28 Cd29 2.223 . S
O28 C36 1.315 . S
Cd29 O28 2.223 . S
Cd29 O32 2.297 . S
Cd29 O33 2.439 . S
Cd29 O39 2.240 . S
Cd30 O31 2.240 . S
Cd30 O38 2.223 . S
Cd30 O40 2.297 . S
Cd30 O41 2.439 . S
O31 Cd30 2.240 . S
O31 C36 1.279 . S
O32 Cd29 2.297 . S
O32 C34 1.247 . S
O33 Cd29 2.439 . S
O33 C34 1.208 . S
C34 O32 1.247 . S
C34 O33 1.208 . S
C35 O40 1.247 . S
C35 O41 1.208 . S
C36 O28 1.315 . S
C36 O31 1.279 . S
C37 O38 1.315 . S
C37 O39 1.279 . S
O38 Cd30 2.223 . S
O38 C37 1.315 . S
O39 Cd29 2.240 . S
O39 C37 1.279 . S
O40 Cd30 2.297 . S
O40 C35 1.247 . S
O41 Cd30 2.439 . S
O41 C35 1.208 . S
O42 Cd43 2.223 . S
O42 C50 1.315 . S
Cd43 O42 2.223 . S
Cd43 O46 2.297 . S
Cd43 O47 2.439 . S
Cd43 O53 2.240 . S
Cd44 O45 2.240 . S
Cd44 O52 2.223 . S
Cd44 O54 2.297 . S
Cd44 O55 2.439 . S
O45 Cd44 2.240 . S
O45 C50 1.279 . S
O46 Cd43 2.297 . S
O46 C48 1.247 . S
O47 Cd43 2.439 . S
O47 C48 1.208 . S
C48 O46 1.247 . S
C48 O47 1.208 . S
C49 O54 1.247 . S
C49 O55 1.208 . S
C50 O42 1.315 . S
C50 O45 1.279 . S
C51 O52 1.315 . S
C51 O53 1.279 . S
O52 Cd44 2.223 . S
O52 C51 1.315 . S
O53 Cd43 2.240 . S
O53 C51 1.279 . S
O54 Cd44 2.297 . S
O54 C49 1.247 . S
O55 Cd44 2.439 . S
O55 C49 1.208 . S
O56 Cd57 2.223 . S
O56 C64 1.315 . S
Cd57 O56 2.223 . S
Cd57 O60 2.297 . S
Cd57 O61 2.439 . S
Cd57 O67 2.240 . S
Cd58 O59 2.240 . S
Cd58 O66 2.223 . S
Cd58 O68 2.297 . S
Cd58 O69 2.439 . S
O59 Cd58 2.240 . S
O59 C64 1.279 . S
O60 Cd57 2.297 . S
O60 C62 1.247 . S
O61 Cd57 2.439 . S
O61 C62 1.208 . S
C62 O60 1.247 . S
C62 O61 1.208 . S
C63 O68 1.247 . S
C63 O69 1.208 . S
C64 O56 1.315 . S
C64 O59 1.279 . S
C65 O66 1.315 . S
C65 O67 1.279 . S
O66 Cd58 2.223 . S
O66 C65 1.315 . S
O67 Cd57 2.240 . S
O67 C65 1.279 . S
O68 Cd58 2.297 . S
O68 C63 1.247 . S
O69 Cd58 2.439 . S
O69 C63 1.208 . S
O70 Cd71 2.223 . S
O70 C78 1.315 . S
Cd71 O70 2.223 . S
Cd71 O74 2.297 . S
Cd71 O75 2.439 . S
Cd71 O81 2.240 . S
Cd72 O73 2.240 . S
Cd72 O80 2.223 . S
Cd72 O82 2.297 . S
Cd72 O83 2.439 . S
O73 Cd72 2.240 . S
O73 C78 1.279 . S
O74 Cd71 2.297 . S
O74 C76 1.247 . S
O75 Cd71 2.439 . S
O75 C76 1.208 . S
C76 O74 1.247 . S
C76 O75 1.208 . S
C77 O82 1.247 . S
C77 O83 1.208 . S
C78 O70 1.315 . S
C78 O73 1.279 . S
C79 O80 1.315 . S
C79 O81 1.279 . S
O80 Cd72 2.223 . S
O80 C79 1.315 . S
O81 Cd71 2.240 . S
O81 C79 1.279 . S
O82 Cd72 2.297 . S
O82 C77 1.247 . S
O83 Cd72 2.439 . S
O83 C77 1.208 . S
O84 Cd85 2.223 . S
O84 C92 1.315 . S
Cd85 O84 2.223 . S
Cd85 O88 2.297 . S
Cd85 O89 2.439 . S
Cd85 O95 2.240 . S
Cd86 O87 2.240 . S
Cd86 O94 2.223 . S
Cd86 O96 2.297 . S
Cd86 O97 2.439 . S
O87 Cd86 2.240 . S
O87 C92 1.279 . S
O88 Cd85 2.297 . S
O88 C90 1.247 . S
O89 Cd85 2.439 . S
O89 C90 1.208 . S
C90 O88 1.247 . S
C90 O89 1.208 . S
C91 O96 1.247 . S
C91 O97 1.208 . S
C92 O84 1.315 . S
C92 O87 1.279 . S
C93 O94 1.315 . S
C93 O95 1.279 . S
O94 Cd86 2.223 . S
O94 C93 1.315 . S
O95 Cd85 2.240 . S
O95 C93 1.279 . S
O96 Cd86 2.297 . S
O96 C91 1.247 . S
O97 Cd86 2.439 . S
O97 C91 1.208 . S
O98 Cd99 2.223 . S
O98 C106 1.315 . S
Cd99 O98 2.223 . S
Cd99 O102 2.297 . S
Cd99 O103 2.439 . S
Cd99 O109 2.240 . S
Cd100 O101 2.240 . S
Cd100 O108 2.223 . S
Cd100 O110 2.297 . S
Cd100 O111 2.439 . S
O101 Cd100 2.240 . S
O101 C106 1.279 . S
O102 Cd99 2.297 . S
O102 C104 1.247 . S
O103 Cd99 2.439 . S
O103 C104 1.208 . S
C104 O102 1.247 . S
C104 O103 1.208 . S
C105 O110 1.247 . S
C105 O111 1.208 . S
C106 O98 1.315 . S
C106 O101 1.279 . S
C107 O108 1.315 . S
C107 O109 1.279 . S
O108 Cd100 2.223 . S
O108 C107 1.315 . S
O109 Cd99 2.240 . S
O109 C107 1.279 . S
O110 Cd100 2.297 . S
O110 C105 1.247 . S
O111 Cd100 2.439 . S
O111 C105 1.208 . S
O112 Cd113 2.223 . S
O112 C120 1.315 . S
Cd113 O112 2.223 . S
Cd113 O116 2.297 . S
Cd113 O117 2.439 . S
Cd113 O123 2.240 . S
Cd114 O115 2.240 . S
Cd114 O122 2.223 . S
Cd114 O124 2.297 . S
Cd114 O125 2.439 . S
O115 Cd114 2.240 . S
O115 C120 1.279 . S
O116 Cd113 2.297 . S
O116 C118 1.247 . S
O117 Cd113 2.439 . S
O117 C118 1.208 . S
C118 O116 1.247 . S
C118 O117 1.208 . S
C119 O124 1.247 . S
C119 O125 1.208 . S
C120 O112 1.315 . S
C120 O115 1.279 . S
C121 O122 1.315 . S
C121 O123 1.279 . S
O122 Cd114 2.223 . S
O122 C121 1.315 . S
O123 Cd113 2.240 . S
O123 C121 1.279 . S
O124 Cd114 2.297 . S
O124 C119 1.247 . S
O125 Cd114 2.439 . S
O125 C119 1.208 . S
O126 Cd127 2.223 . S
O126 C134 1.315 . S
Cd127 O126 2.223 . S
Cd127 O130 2.297 . S
Cd127 O131 2.439 . S
Cd127 O137 2.240 . S
Cd128 O129 2.240 . S
Cd128 O136 2.223 . S
Cd128 O138 2.297 . S
Cd128 O139 2.439 . S
O129 Cd128 2.240 . S
O129 C134 1.279 . S
O130 Cd127 2.297 . S
O130 C132 1.247 . S
O131 Cd127 2.439 . S
O131 C132 1.208 . S
C132 O130 1.247 . S
C132 O131 1.208 . S
C133 O138 1.247 . S
C133 O139 1.208 . S
C134 O126 1.315 . S
C134 O129 1.279 . S
C135 O136 1.315 . S
C135 O137 1.279 . S
O136 Cd128 2.223 . S
O136 C135 1.315 . S
O137 Cd127 2.240 . S
O137 C135 1.279 . S
O138 Cd128 2.297 . S
O138 C133 1.247 . S
O139 Cd128 2.439 . S
O139 C133 1.208 . S
O140 Cd141 2.223 . S
O140 C148 1.315 . S
Cd141 O140 2.223 . S
Cd141 O144 2.297 . S
Cd141 O145 2.439 . S
Cd141 O151 2.240 . S
Cd142 O143 2.240 . S
Cd142 O150 2.223 . S
Cd142 O152 2.297 . S
Cd142 O153 2.439 . S
O143 Cd142 2.240 . S
O143 C148 1.279 . S
O144 Cd141 2.297 . S
O144 C146 1.247 . S
O145 Cd141 2.439 . S
O145 C146 1.208 . S
C146 O144 1.247 . S
C146 O145 1.208 . S
C147 O152 1.247 . S
C147 O153 1.208 . S
C148 O140 1.315 . S
C148 O143 1.279 . S
C149 O150 1.315 . S
C149 O151 1.279 . S
O150 Cd142 2.223 . S
O150 C149 1.315 . S
O151 Cd141 2.240 . S
O151 C149 1.279 . S
O152 Cd142 2.297 . S
O152 C147 1.247 . S
O153 Cd142 2.439 . S
O153 C147 1.208 . S
O154 Cd155 2.223 . S
O154 C162 1.315 . S
Cd155 O154 2.223 . S
Cd155 O158 2.297 . S
Cd155 O159 2.439 . S
Cd155 O165 2.240 . S
Cd156 O157 2.240 . S
Cd156 O164 2.223 . S
Cd156 O166 2.297 . S
Cd156 O167 2.439 . S
O157 Cd156 2.240 . S
O157 C162 1.279 . S
O158 Cd155 2.297 . S
O158 C160 1.247 . S
O159 Cd155 2.439 . S
O159 C160 1.208 . S
C160 O158 1.247 . S
C160 O159 1.208 . S
C161 O166 1.247 . S
C161 O167 1.208 . S
C162 O154 1.315 . S
C162 O157 1.279 . S
C163 O164 1.315 . S
C163 O165 1.279 . S
O164 Cd156 2.223 . S
O164 C163 1.315 . S
O165 Cd155 2.240 . S
O165 C163 1.279 . S
O166 Cd156 2.297 . S
O166 C161 1.247 . S
O167 Cd156 2.439 . S
O167 C161 1.208 . S
O168 Cd169 2.223 . S
O168 C176 1.315 . S
Cd169 O168 2.223 . S
Cd169 O172 2.297 . S
Cd169 O173 2.439 . S
Cd169 O179 2.240 . S
Cd170 O171 2.240 . S
Cd170 O178 2.223 . S
Cd170 O180 2.297 . S
Cd170 O181 2.439 . S
O171 Cd170 2.240 . S
O171 C176 1.279 . S
O172 Cd169 2.297 . S
O172 C174 1.247 . S
O173 Cd169 2.439 . S
O173 C174 1.208 . S
C174 O172 1.247 . S
C174 O173 1.208 . S
C175 O180 1.247 . S
C175 O181 1.208 . S
C176 O168 1.315 . S
C176 O171 1.279 . S
C177 O178 1.315 . S
C177 O179 1.279 . S
O178 Cd170 2.223 . S
O178 C177 1.315 . S
O179 Cd169 2.240 . S
O179 C177 1.279 . S
O180 Cd170 2.297 . S
O180 C175 1.247 . S
O181 Cd170 2.439 . S
O181 C175 1.208 . S
O182 Cd183 2.223 . S
O182 C190 1.315 . S
Cd183 O182 2.223 . S
Cd183 O186 2.297 . S
Cd183 O187 2.439 . S
Cd183 O193 2.240 . S
Cd184 O185 2.240 . S
Cd184 O192 2.223 . S
Cd184 O194 2.297 . S
Cd184 O195 2.439 . S
O185 Cd184 2.240 . S
O185 C190 1.279 . S
O186 Cd183 2.297 . S
O186 C188 1.247 . S
O187 Cd183 2.439 . S
O187 C188 1.208 . S
C188 O186 1.247 . S
C188 O187 1.208 . S
C189 O194 1.247 . S
C189 O195 1.208 . S
C190 O182 1.315 . S
C190 O185 1.279 . S
C191 O192 1.315 . S
C191 O193 1.279 . S
O192 Cd184 2.223 . S
O192 C191 1.315 . S
O193 Cd183 2.240 . S
O193 C191 1.279 . S
O194 Cd184 2.297 . S
O194 C189 1.247 . S
O195 Cd184 2.439 . S
O195 C189 1.208 . S
O196 Cd197 2.223 . S
O196 C204 1.315 . S
Cd197 O196 2.223 . S
Cd197 O200 2.297 . S
Cd197 O201 2.439 . S
Cd197 O207 2.240 . S
Cd198 O199 2.240 . S
Cd198 O206 2.223 . S
Cd198 O208 2.297 . S
Cd198 O209 2.439 . S
O199 Cd198 2.240 . S
O199 C204 1.279 . S
O200 Cd197 2.297 . S
O200 C202 1.247 . S
O201 Cd197 2.439 . S
O201 C202 1.208 . S
C202 O200 1.247 . S
C202 O201 1.208 . S
C203 O208 1.247 . S
C203 O209 1.208 . S
C204 O196 1.315 . S
C204 O199 1.279 . S
C205 O206 1.315 . S
C205 O207 1.279 . S
O206 Cd198 2.223 . S
O206 C205 1.315 . S
O207 Cd197 2.240 . S
O207 C205 1.279 . S
O208 Cd198 2.297 . S
O208 C203 1.247 . S
O209 Cd198 2.439 . S
O209 C203 1.208 . S
O210 Cd211 2.223 . S
O210 C218 1.315 . S
Cd211 O210 2.223 . S
Cd211 O214 2.297 . S
Cd211 O215 2.439 . S
Cd211 O221 2.240 . S
Cd212 O213 2.240 . S
Cd212 O220 2.223 . S
Cd212 O222 2.297 . S
Cd212 O223 2.439 . S
O213 Cd212 2.240 . S
O213 C218 1.279 . S
O214 Cd211 2.297 . S
O214 C216 1.247 . S
O215 Cd211 2.439 . S
O215 C216 1.208 . S
C216 O214 1.247 . S
C216 O215 1.208 . S
C217 O222 1.247 . S
C217 O223 1.208 . S
C218 O210 1.315 . S
C218 O213 1.279 . S
C219 O220 1.315 . S
C219 O221 1.279 . S
O220 Cd212 2.223 . S
O220 C219 1.315 . S
O221 Cd211 2.240 . S
O221 C219 1.279 . S
O222 Cd212 2.297 . S
O222 C217 1.247 . S
O223 Cd212 2.439 . S
O223 C217 1.208 . S
C224 C225 1.391 . S
C224 C226 1.394 . S
C224 H240 0.931 . S
C225 C224 1.391 . S
C225 C229 1.376 . S
C226 C224 1.394 . S
C226 C227 1.369 . S
C226 C230 1.531 . S
C227 C226 1.369 . S
C227 C228 1.410 . S
C227 C235 1.503 . S
C228 C227 1.410 . S
C228 C229 1.392 . S
C228 C231 1.511 . S
C229 C225 1.376 . S
C229 C228 1.392 . S
C229 H241 0.929 . S
C230 C226 1.531 . S
C230 H242 0.960 . S
C230 H243 0.962 . S
C230 H244 0.960 . S
C231 C228 1.511 . S
C231 H245 0.961 . S
C231 H246 0.961 . S
C231 H247 0.961 . S
C232 C233 1.370 . S
C232 C234 1.363 . S
C232 H248 0.931 . S
C233 C232 1.370 . S
C233 C237 1.408 . S
C234 C232 1.363 . S
C234 C235 1.370 . S
C234 C238 1.524 . S
C235 C227 1.503 . S
C235 C234 1.370 . S
C235 C236 1.403 . S
C236 C235 1.403 . S
C236 C237 1.404 . S
C236 C239 1.539 . S
C237 C233 1.408 . S
C237 C236 1.404 . S
C237 H249 0.930 . S
C238 C234 1.524 . S
C238 H250 0.956 . S
C238 H251 0.961 . S
C238 H252 0.961 . S
C239 C236 1.539 . S
C239 H253 0.958 . S
C239 H254 0.961 . S
C239 H255 0.960 . S
H240 C224 0.931 . S
H241 C229 0.929 . S
H242 C230 0.960 . S
H243 C230 0.962 . S
H244 C230 0.960 . S
H245 C231 0.961 . S
H246 C231 0.961 . S
H247 C231 0.961 . S
H248 C232 0.931 . S
H249 C237 0.930 . S
H250 C238 0.956 . S
H251 C238 0.961 . S
H252 C238 0.961 . S
H253 C239 0.958 . S
H254 C239 0.961 . S
H255 C239 0.960 . S
C256 C257 1.391 . S
C256 C258 1.394 . S
C256 H272 0.931 . S
C257 C256 1.391 . S
C257 C261 1.376 . S
C258 C256 1.394 . S
C258 C259 1.369 . S
C258 C262 1.531 . S
C259 C258 1.369 . S
C259 C260 1.410 . S
C259 C267 1.503 . S
C260 C259 1.410 . S
C260 C261 1.392 . S
C260 C263 1.511 . S
C261 C257 1.376 . S
C261 C260 1.392 . S
C261 H273 0.929 . S
C262 C258 1.531 . S
C262 H274 0.960 . S
C262 H275 0.962 . S
C262 H276 0.960 . S
C263 C260 1.511 . S
C263 H277 0.961 . S
C263 H278 0.961 . S
C263 H279 0.961 . S
C264 C265 1.370 . S
C264 C266 1.363 . S
C264 H280 0.931 . S
C265 C264 1.370 . S
C265 C269 1.408 . S
C266 C264 1.363 . S
C266 C267 1.370 . S
C266 C270 1.524 . S
C267 C259 1.503 . S
C267 C266 1.370 . S
C267 C268 1.403 . S
C268 C267 1.403 . S
C268 C269 1.404 . S
C268 C271 1.539 . S
C269 C265 1.408 . S
C269 C268 1.404 . S
C269 H281 0.930 . S
C270 C266 1.524 . S
C270 H282 0.956 . S
C270 H283 0.961 . S
C270 H284 0.961 . S
C271 C268 1.539 . S
C271 H285 0.958 . S
C271 H286 0.961 . S
C271 H287 0.960 . S
H272 C256 0.931 . S
H273 C261 0.929 . S
H274 C262 0.960 . S
H275 C262 0.962 . S
H276 C262 0.960 . S
H277 C263 0.961 . S
H278 C263 0.961 . S
H279 C263 0.961 . S
H280 C264 0.931 . S
H281 C269 0.930 . S
H282 C270 0.956 . S
H283 C270 0.961 . S
H284 C270 0.961 . S
H285 C271 0.958 . S
H286 C271 0.961 . S
H287 C271 0.960 . S
C288 C289 1.391 . S
C288 C290 1.394 . S
C288 H304 0.931 . S
C289 C288 1.391 . S
C289 C293 1.376 . S
C290 C288 1.394 . S
C290 C291 1.369 . S
C290 C294 1.531 . S
C291 C290 1.369 . S
C291 C292 1.410 . S
C291 C299 1.503 . S
C292 C291 1.410 . S
C292 C293 1.392 . S
C292 C295 1.511 . S
C293 C289 1.376 . S
C293 C292 1.392 . S
C293 H305 0.929 . S
C294 C290 1.531 . S
C294 H306 0.960 . S
C294 H307 0.962 . S
C294 H308 0.960 . S
C295 C292 1.511 . S
C295 H309 0.961 . S
C295 H310 0.961 . S
C295 H311 0.961 . S
C296 C297 1.370 . S
C296 C298 1.363 . S
C296 H312 0.931 . S
C297 C296 1.370 . S
C297 C301 1.408 . S
C298 C296 1.363 . S
C298 C299 1.370 . S
C298 C302 1.524 . S
C299 C291 1.503 . S
C299 C298 1.370 . S
C299 C300 1.403 . S
C300 C299 1.403 . S
C300 C301 1.404 . S
C300 C303 1.539 . S
C301 C297 1.408 . S
C301 C300 1.404 . S
C301 H313 0.930 . S
C302 C298 1.524 . S
C302 H314 0.956 . S
C302 H315 0.961 . S
C302 H316 0.961 . S
C303 C300 1.539 . S
C303 H317 0.958 . S
C303 H318 0.961 . S
C303 H319 0.960 . S
H304 C288 0.931 . S
H305 C293 0.929 . S
H306 C294 0.960 . S
H307 C294 0.962 . S
H308 C294 0.960 . S
H309 C295 0.961 . S
H310 C295 0.961 . S
H311 C295 0.961 . S
H312 C296 0.931 . S
H313 C301 0.930 . S
H314 C302 0.956 . S
H315 C302 0.961 . S
H316 C302 0.961 . S
H317 C303 0.958 . S
H318 C303 0.961 . S
H319 C303 0.960 . S
C320 C321 1.391 . S
C320 C322 1.394 . S
C320 H336 0.931 . S
C321 C320 1.391 . S
C321 C325 1.376 . S
C322 C320 1.394 . S
C322 C323 1.369 . S
C322 C326 1.531 . S
C323 C322 1.369 . S
C323 C324 1.410 . S
C323 C331 1.503 . S
C324 C323 1.410 . S
C324 C325 1.392 . S
C324 C327 1.511 . S
C325 C321 1.376 . S
C325 C324 1.392 . S
C325 H337 0.929 . S
C326 C322 1.531 . S
C326 H338 0.960 . S
C326 H339 0.962 . S
C326 H340 0.960 . S
C327 C324 1.511 . S
C327 H341 0.961 . S
C327 H342 0.961 . S
C327 H343 0.961 . S
C328 C329 1.370 . S
C328 C330 1.363 . S
C328 H344 0.931 . S
C329 C328 1.370 . S
C329 C333 1.408 . S
C330 C328 1.363 . S
C330 C331 1.370 . S
C330 C334 1.524 . S
C331 C323 1.503 . S
C331 C330 1.370 . S
C331 C332 1.403 . S
C332 C331 1.403 . S
C332 C333 1.404 . S
C332 C335 1.539 . S
C333 C329 1.408 . S
C333 C332 1.404 . S
C333 H345 0.930 . S
C334 C330 1.524 . S
C334 H346 0.956 . S
C334 H347 0.961 . S
C334 H348 0.961 . S
C335 C332 1.539 . S
C335 H349 0.958 . S
C335 H350 0.961 . S
C335 H351 0.960 . S
H336 C320 0.931 . S
H337 C325 0.929 . S
H338 C326 0.960 . S
H339 C326 0.962 . S
H340 C326 0.960 . S
H341 C327 0.961 . S
H342 C327 0.961 . S
H343 C327 0.961 . S
H344 C328 0.931 . S
H345 C333 0.930 . S
H346 C334 0.956 . S
H347 C334 0.961 . S
H348 C334 0.961 . S
H349 C335 0.958 . S
H350 C335 0.961 . S
H351 C335 0.960 . S
C352 C353 1.391 . S
C352 C354 1.394 . S
C352 H368 0.931 . S
C353 C352 1.391 . S
C353 C357 1.376 . S
C354 C352 1.394 . S
C354 C355 1.369 . S
C354 C358 1.531 . S
C355 C354 1.369 . S
C355 C356 1.410 . S
C355 C363 1.503 . S
C356 C355 1.410 . S
C356 C357 1.392 . S
C356 C359 1.511 . S
C357 C353 1.376 . S
C357 C356 1.392 . S
C357 H369 0.929 . S
C358 C354 1.531 . S
C358 H370 0.960 . S
C358 H371 0.962 . S
C358 H372 0.960 . S
C359 C356 1.511 . S
C359 H373 0.961 . S
C359 H374 0.961 . S
C359 H375 0.961 . S
C360 C361 1.370 . S
C360 C362 1.363 . S
C360 H376 0.931 . S
C361 C360 1.370 . S
C361 C365 1.408 . S
C362 C360 1.363 . S
C362 C363 1.370 . S
C362 C366 1.524 . S
C363 C355 1.503 . S
C363 C362 1.370 . S
C363 C364 1.403 . S
C364 C363 1.403 . S
C364 C365 1.404 . S
C364 C367 1.539 . S
C365 C361 1.408 . S
C365 C364 1.404 . S
C365 H377 0.930 . S
C366 C362 1.524 . S
C366 H378 0.956 . S
C366 H379 0.961 . S
C366 H380 0.961 . S
C367 C364 1.539 . S
C367 H381 0.958 . S
C367 H382 0.961 . S
C367 H383 0.960 . S
H368 C352 0.931 . S
H369 C357 0.929 . S
H370 C358 0.960 . S
H371 C358 0.962 . S
H372 C358 0.960 . S
H373 C359 0.961 . S
H374 C359 0.961 . S
H375 C359 0.961 . S
H376 C360 0.931 . S
H377 C365 0.930 . S
H378 C366 0.956 . S
H379 C366 0.961 . S
H380 C366 0.961 . S
H381 C367 0.958 . S
H382 C367 0.961 . S
H383 C367 0.960 . S
C384 C385 1.391 . S
C384 C386 1.394 . S
C384 H400 0.931 . S
C385 C384 1.391 . S
C385 C389 1.376 . S
C386 C384 1.394 . S
C386 C387 1.369 . S
C386 C390 1.531 . S
C387 C386 1.369 . S
C387 C388 1.410 . S
C387 C395 1.503 . S
C388 C387 1.410 . S
C388 C389 1.392 . S
C388 C391 1.511 . S
C389 C385 1.376 . S
C389 C388 1.392 . S
C389 H401 0.929 . S
C390 C386 1.531 . S
C390 H402 0.960 . S
C390 H403 0.962 . S
C390 H404 0.960 . S
C391 C388 1.511 . S
C391 H405 0.961 . S
C391 H406 0.961 . S
C391 H407 0.961 . S
C392 C393 1.370 . S
C392 C394 1.363 . S
C392 H408 0.931 . S
C393 C392 1.370 . S
C393 C397 1.408 . S
C394 C392 1.363 . S
C394 C395 1.370 . S
C394 C398 1.524 . S
C395 C387 1.503 . S
C395 C394 1.370 . S
C395 C396 1.403 . S
C396 C395 1.403 . S
C396 C397 1.404 . S
C396 C399 1.539 . S
C397 C393 1.408 . S
C397 C396 1.404 . S
C397 H409 0.930 . S
C398 C394 1.524 . S
C398 H410 0.956 . S
C398 H411 0.961 . S
C398 H412 0.961 . S
C399 C396 1.539 . S
C399 H413 0.958 . S
C399 H414 0.961 . S
C399 H415 0.960 . S
H400 C384 0.931 . S
H401 C389 0.929 . S
H402 C390 0.960 . S
H403 C390 0.962 . S
H404 C390 0.960 . S
H405 C391 0.961 . S
H406 C391 0.961 . S
H407 C391 0.961 . S
H408 C392 0.931 . S
H409 C397 0.930 . S
H410 C398 0.956 . S
H411 C398 0.961 . S
H412 C398 0.961 . S
H413 C399 0.958 . S
H414 C399 0.961 . S
H415 C399 0.960 . S
C416 C417 1.391 . S
C416 C418 1.394 . S
C416 H432 0.931 . S
C417 C416 1.391 . S
C417 C421 1.376 . S
C418 C416 1.394 . S
C418 C419 1.369 . S
C418 C422 1.531 . S
C419 C418 1.369 . S
C419 C420 1.410 . S
C419 C427 1.503 . S
C420 C419 1.410 . S
C420 C421 1.392 . S
C420 C423 1.511 . S
C421 C417 1.376 . S
C421 C420 1.392 . S
C421 H433 0.929 . S
C422 C418 1.531 . S
C422 H434 0.960 . S
C422 H435 0.962 . S
C422 H436 0.960 . S
C423 C420 1.511 . S
C423 H437 0.961 . S
C423 H438 0.961 . S
C423 H439 0.961 . S
C424 C425 1.370 . S
C424 C426 1.363 . S
C424 H440 0.931 . S
C425 C424 1.370 . S
C425 C429 1.408 . S
C426 C424 1.363 . S
C426 C427 1.370 . S
C426 C430 1.524 . S
C427 C419 1.503 . S
C427 C426 1.370 . S
C427 C428 1.403 . S
C428 C427 1.403 . S
C428 C429 1.404 . S
C428 C431 1.539 . S
C429 C425 1.408 . S
C429 C428 1.404 . S
C429 H441 0.930 . S
C430 C426 1.524 . S
C430 H442 0.956 . S
C430 H443 0.961 . S
C430 H444 0.961 . S
C431 C428 1.539 . S
C431 H445 0.958 . S
C431 H446 0.961 . S
C431 H447 0.960 . S
H432 C416 0.931 . S
H433 C421 0.929 . S
H434 C422 0.960 . S
H435 C422 0.962 . S
H436 C422 0.960 . S
H437 C423 0.961 . S
H438 C423 0.961 . S
H439 C423 0.961 . S
H440 C424 0.931 . S
H441 C429 0.930 . S
H442 C430 0.956 . S
H443 C430 0.961 . S
H444 C430 0.961 . S
H445 C431 0.958 . S
H446 C431 0.961 . S
H447 C431 0.960 . S
C448 C449 1.391 . S
C448 C450 1.394 . S
C448 H464 0.931 . S
C449 C448 1.391 . S
C449 C453 1.376 . S
C450 C448 1.394 . S
C450 C451 1.369 . S
C450 C454 1.531 . S
C451 C450 1.369 . S
C451 C452 1.410 . S
C451 C459 1.503 . S
C452 C451 1.410 . S
C452 C453 1.392 . S
C452 C455 1.511 . S
C453 C449 1.376 . S
C453 C452 1.392 . S
C453 H465 0.929 . S
C454 C450 1.531 . S
C454 H466 0.960 . S
C454 H467 0.962 . S
C454 H468 0.960 . S
C455 C452 1.511 . S
C455 H469 0.961 . S
C455 H470 0.961 . S
C455 H471 0.961 . S
C456 C457 1.370 . S
C456 C458 1.363 . S
C456 H472 0.931 . S
C457 C456 1.370 . S
C457 C461 1.408 . S
C458 C456 1.363 . S
C458 C459 1.370 . S
C458 C462 1.524 . S
C459 C451 1.503 . S
C459 C458 1.370 . S
C459 C460 1.403 . S
C460 C459 1.403 . S
C460 C461 1.404 . S
C460 C463 1.539 . S
C461 C457 1.408 . S
C461 C460 1.404 . S
C461 H473 0.930 . S
C462 C458 1.524 . S
C462 H474 0.956 . S
C462 H475 0.961 . S
C462 H476 0.961 . S
C463 C460 1.539 . S
C463 H477 0.958 . S
C463 H478 0.961 . S
C463 H479 0.960 . S
H464 C448 0.931 . S
H465 C453 0.929 . S
H466 C454 0.960 . S
H467 C454 0.962 . S
H468 C454 0.960 . S
H469 C455 0.961 . S
H470 C455 0.961 . S
H471 C455 0.961 . S
H472 C456 0.931 . S
H473 C461 0.930 . S
H474 C462 0.956 . S
H475 C462 0.961 . S
H476 C462 0.961 . S
H477 C463 0.958 . S
H478 C463 0.961 . S
H479 C463 0.960 . S
C480 C481 1.391 . S
C480 C482 1.394 . S
C480 H496 0.931 . S
C481 C480 1.391 . S
C481 C485 1.376 . S
C482 C480 1.394 . S
C482 C483 1.369 . S
C482 C486 1.531 . S
C483 C482 1.369 . S
C483 C484 1.410 . S
C483 C491 1.503 . S
C484 C483 1.410 . S
C484 C485 1.392 . S
C484 C487 1.511 . S
C485 C481 1.376 . S
C485 C484 1.392 . S
C485 H497 0.929 . S
C486 C482 1.531 . S
C486 H498 0.960 . S
C486 H499 0.962 . S
C486 H500 0.960 . S
C487 C484 1.511 . S
C487 H501 0.961 . S
C487 H502 0.961 . S
C487 H503 0.961 . S
C488 C489 1.370 . S
C488 C490 1.363 1_554 S
C488 H504 0.931 . S
C489 C488 1.370 . S
C489 C493 1.408 . S
C490 C488 1.363 1_556 S
C490 C491 1.370 . S
C490 C494 1.524 . S
C491 C483 1.503 . S
C491 C490 1.370 . S
C491 C492 1.403 . S
C492 C491 1.403 . S
C492 C493 1.404 1_556 S
C492 C495 1.539 . S
C493 C489 1.408 . S
C493 C492 1.404 1_554 S
C493 H505 0.930 . S
C494 C490 1.524 . S
C494 H506 0.956 . S
C494 H507 0.961 . S
C494 H508 0.961 . S
C495 C492 1.539 . S
C495 H509 0.958 . S
C495 H510 0.961 1_556 S
C495 H511 0.960 . S
H496 C480 0.931 . S
H497 C485 0.929 . S
H498 C486 0.960 . S
H499 C486 0.962 . S
H500 C486 0.960 . S
H501 C487 0.961 . S
H502 C487 0.961 . S
H503 C487 0.961 . S
H504 C488 0.931 . S
H505 C493 0.930 . S
H506 C494 0.956 . S
H507 C494 0.961 . S
H508 C494 0.961 . S
H509 C495 0.958 . S
H510 C495 0.961 1_554 S
H511 C495 0.960 . S
C512 C513 1.391 . S
C512 C514 1.394 1_556 S
C512 H528 0.931 . S
C513 C512 1.391 . S
C513 C517 1.376 . S
C514 C512 1.394 1_554 S
C514 C515 1.369 . S
C514 C518 1.531 . S
C515 C514 1.369 . S
C515 C516 1.400 1_554 S
C515 C523 1.503 . S
C516 C515 1.400 1_556 S
C516 C517 1.412 . S
C516 C519 1.502 1_556 S
C517 C513 1.376 . S
C517 C516 1.412 . S
C517 H529 0.929 . S
C518 C514 1.531 . S
C518 H530 0.960 . S
C518 H531 0.962 . S
C518 H532 0.960 . S
C519 C516 1.502 1_554 S
C519 H533 0.961 1_554 S
C519 H534 0.961 . S
C519 H535 0.961 . S
C520 C521 1.370 . S
C520 C522 1.363 . S
C520 H536 0.931 . S
C521 C520 1.370 . S
C521 C525 1.408 . S
C522 C520 1.363 . S
C522 C523 1.370 . S
C522 C526 1.524 . S
C523 C515 1.503 . S
C523 C522 1.370 . S
C523 C524 1.403 . S
C524 C523 1.403 . S
C524 C525 1.404 . S
C524 C527 1.539 . S
C525 C521 1.408 . S
C525 C524 1.404 . S
C525 H537 0.930 . S
C526 C522 1.524 . S
C526 H538 0.956 . S
C526 H539 0.961 . S
C526 H540 0.961 . S
C527 C524 1.539 . S
C527 H541 0.958 . S
C527 H542 0.961 . S
C527 H543 0.960 . S
H528 C512 0.931 . S
H529 C517 0.929 . S
H530 C518 0.960 . S
H531 C518 0.962 . S
H532 C518 0.960 . S
H533 C519 0.961 1_556 S
H534 C519 0.961 . S
H535 C519 0.961 . S
H536 C520 0.931 . S
H537 C525 0.930 . S
H538 C526 0.956 . S
H539 C526 0.961 . S
H540 C526 0.961 . S
H541 C527 0.958 . S
H542 C527 0.961 . S
H543 C527 0.960 . S
C544 C545 1.391 . S
C544 C546 1.394 . S
C544 H560 0.931 . S
C545 C544 1.391 . S
C545 C549 1.376 . S
C546 C544 1.394 . S
C546 C547 1.369 . S
C546 C550 1.531 . S
C547 C546 1.369 . S
C547 C548 1.410 . S
C547 C555 1.503 1_556 S
C548 C547 1.410 . S
C548 C549 1.392 . S
C548 C551 1.511 . S
C549 C545 1.376 . S
C549 C548 1.392 . S
C549 H561 0.929 . S
C550 C546 1.531 . S
C550 H562 0.960 . S
C550 H563 0.962 . S
C550 H564 0.960 . S
C551 C548 1.511 . S
C551 H565 0.961 . S
C551 H566 0.961 1_556 S
C551 H567 0.961 1_556 S
C552 C553 1.370 . S
C552 C554 1.363 . S
C552 H568 0.931 . S
C553 C552 1.370 . S
C553 C557 1.408 . S
C554 C552 1.363 . S
C554 C555 1.370 . S
C554 C558 1.524 . S
C555 C547 1.503 1_554 S
C555 C554 1.370 . S
C555 C556 1.403 . S
C556 C555 1.403 . S
C556 C557 1.404 . S
C556 C559 1.539 . S
C557 C553 1.408 . S
C557 C556 1.404 . S
C557 H569 0.930 . S
C558 C554 1.524 . S
C558 H570 0.956 1_554 S
C558 H571 0.961 1_554 S
C558 H572 0.961 . S
C559 C556 1.539 . S
C559 H573 0.958 . S
C559 H574 0.961 . S
C559 H575 0.960 . S
H560 C544 0.931 . S
H561 C549 0.929 . S
H562 C550 0.960 . S
H563 C550 0.962 . S
H564 C550 0.960 . S
H565 C551 0.961 . S
H566 C551 0.961 1_554 S
H567 C551 0.961 1_554 S
H568 C552 0.931 . S
H569 C557 0.930 . S
H570 C558 0.956 1_556 S
H571 C558 0.961 1_556 S
H572 C558 0.961 . S
H573 C559 0.958 . S
H574 C559 0.961 . S
H575 C559 0.960 . S
C576 C577 1.391 . S
C576 C578 1.394 . S
C576 H592 0.931 . S
C577 C576 1.391 . S
C577 C581 1.376 . S
C578 C576 1.394 . S
C578 C579 1.369 . S
C578 C582 1.531 . S
C579 C578 1.369 . S
C579 C580 1.410 . S
C579 C587 1.503 1_554 S
C580 C579 1.410 . S
C580 C581 1.392 . S
C580 C583 1.511 . S
C581 C577 1.376 . S
C581 C580 1.392 . S
C581 H593 0.929 . S
C582 C578 1.531 . S
C582 H594 0.960 1_554 S
C582 H595 0.962 1_554 S
C582 H596 0.960 . S
C583 C580 1.511 . S
C583 H597 0.961 . S
C583 H598 0.961 1_554 S
C583 H599 0.970 . S
C584 C585 1.370 . S
C584 C586 1.363 . S
C584 H600 0.931 . S
C585 C584 1.370 . S
C585 C589 1.408 . S
C586 C584 1.363 . S
C586 C587 1.370 . S
C586 C590 1.524 . S
C587 C579 1.503 1_556 S
C587 C586 1.370 . S
C587 C588 1.403 . S
C588 C587 1.403 . S
C588 C589 1.404 . S
C588 C591 1.539 . S
C589 C585 1.408 . S
C589 C588 1.404 . S
C589 H601 0.930 . S
C590 C586 1.524 . S
C590 H602 0.956 . S
C590 H603 0.961 . S
C590 H604 0.961 . S
C591 C588 1.539 . S
C591 H605 0.958 . S
C591 H606 0.961 . S
C591 H607 0.960 . S
H592 C576 0.931 . S
H593 C581 0.929 . S
H594 C582 0.960 1_556 S
H595 C582 0.962 1_556 S
H596 C582 0.960 . S
H597 C583 0.961 . S
H598 C583 0.961 1_556 S
H599 C583 0.970 . S
H600 C584 0.931 . S
H601 C589 0.930 . S
H602 C590 0.956 . S
H603 C590 0.961 . S
H604 C590 0.961 . S
H605 C591 0.958 . S
H606 C591 0.961 . S
H607 C591 0.960 . S
C608 C609 1.391 . S
C608 C610 1.394 . S
C608 H624 0.931 . S
C609 C608 1.391 . S
C609 C613 1.376 . S
C610 C608 1.394 . S
C610 C611 1.369 . S
C610 C614 1.531 . S
C611 C610 1.369 . S
C611 C612 1.410 . S
C611 C619 1.503 . S
C612 C611 1.410 . S
C612 C613 1.392 . S
C612 C615 1.511 . S
C613 C609 1.376 . S
C613 C612 1.392 . S
C613 H625 0.929 . S
C614 C610 1.531 . S
C614 H626 0.960 . S
C614 H627 0.962 . S
C614 H628 0.960 . S
C615 C612 1.511 . S
C615 H629 0.961 . S
C615 H630 0.961 . S
C615 H631 0.961 . S
C616 C617 1.370 . S
C616 C618 1.363 1_655 S
C616 H632 0.931 . S
C617 C616 1.370 . S
C617 C621 1.408 . S
C618 C616 1.363 1_455 S
C618 C619 1.370 . S
C618 C622 1.524 . S
C619 C611 1.503 . S
C619 C618 1.370 . S
C619 C620 1.403 1_455 S
C620 C619 1.403 1_655 S
C620 C621 1.404 . S
C620 C623 1.539 1_655 S
C621 C617 1.408 . S
C621 C620 1.404 . S
C621 H633 0.930 . S
C622 C618 1.524 . S
C622 H634 0.956 . S
C622 H635 0.961 . S
C622 H636 0.961 . S
C623 C620 1.539 1_455 S
C623 H637 0.958 . S
C623 H638 0.961 1_455 S
C623 H639 0.960 . S
H624 C608 0.931 . S
H625 C613 0.929 . S
H626 C614 0.960 . S
H627 C614 0.962 . S
H628 C614 0.960 . S
H629 C615 0.961 . S
H630 C615 0.961 . S
H631 C615 0.961 . S
H632 C616 0.931 . S
H633 C621 0.930 . S
H634 C622 0.956 . S
H635 C622 0.961 . S
H636 C622 0.961 . S
H637 C623 0.958 . S
H638 C623 0.961 1_655 S
H639 C623 0.960 . S
C640 C641 1.391 . S
C640 C642 1.394 . S
C640 H656 0.931 . S
C641 C640 1.391 . S
C641 C645 1.376 . S
C642 C640 1.394 . S
C642 C643 1.369 1_565 S
C642 C646 1.531 1_565 S
C643 C642 1.369 1_545 S
C643 C644 1.410 1_545 S
C643 C651 1.503 . S
C644 C643 1.410 1_565 S
C644 C645 1.392 . S
C644 C647 1.511 1_565 S
C645 C641 1.376 . S
C645 C644 1.392 . S
C645 H657 0.929 . S
C646 C642 1.531 1_545 S
C646 H658 0.960 . S
C646 H659 0.962 . S
C646 H660 0.960 1_545 S
C647 C644 1.511 1_545 S
C647 H661 0.961 1_545 S
C647 H662 0.961 . S
C647 H663 0.961 . S
C648 C649 1.370 . S
C648 C650 1.363 . S
C648 H664 0.931 . S
C649 C648 1.370 . S
C649 C653 1.408 . S
C650 C648 1.363 . S
C650 C651 1.370 . S
C650 C654 1.524 . S
C651 C643 1.503 . S
C651 C650 1.370 . S
C651 C652 1.403 . S
C652 C651 1.403 . S
C652 C653 1.404 . S
C652 C655 1.539 . S
C653 C649 1.408 . S
C653 C652 1.404 . S
C653 H665 0.930 . S
C654 C650 1.524 . S
C654 H666 0.956 . S
C654 H667 0.961 . S
C654 H668 0.961 . S
C655 C652 1.539 . S
C655 H669 0.958 . S
C655 H670 0.961 . S
C655 H671 0.960 . S
H656 C640 0.931 . S
H657 C645 0.929 . S
H658 C646 0.960 . S
H659 C646 0.962 . S
H660 C646 0.960 1_565 S
H661 C647 0.961 1_565 S
H662 C647 0.961 . S
H663 C647 0.961 . S
H664 C648 0.931 . S
H665 C653 0.930 . S
H666 C654 0.956 . S
H667 C654 0.961 . S
H668 C654 0.961 . S
H669 C655 0.958 . S
H670 C655 0.961 . S
H671 C655 0.960 . S
C672 C673 1.391 . S
C672 C674 1.394 . S
C672 H688 0.931 . S
C673 C672 1.391 . S
C673 C677 1.376 . S
C674 C672 1.394 . S
C674 C675 1.369 . S
C674 C678 1.531 . S
C675 C674 1.369 . S
C675 C676 1.410 . S
C675 C683 1.503 1_655 S
C676 C675 1.410 . S
C676 C677 1.392 . S
C676 C679 1.511 . S
C677 C673 1.376 . S
C677 C676 1.392 . S
C677 H689 0.929 . S
C678 C674 1.531 . S
C678 H690 0.960 . S
C678 H691 0.962 . S
C678 H692 0.960 . S
C679 C676 1.511 . S
C679 H693 0.961 . S
C679 H694 0.961 1_655 S
C679 H695 0.961 1_655 S
C680 C681 1.370 . S
C680 C682 1.363 . S
C680 H696 0.931 . S
C681 C680 1.370 . S
C681 C685 1.408 . S
C682 C680 1.363 . S
C682 C683 1.370 . S
C682 C686 1.524 1_455 S
C683 C675 1.503 1_455 S
C683 C682 1.370 . S
C683 C684 1.403 . S
C684 C683 1.403 . S
C684 C685 1.404 . S
C684 C687 1.539 . S
C685 C681 1.408 . S
C685 C684 1.404 . S
C685 H697 0.930 . S
C686 C682 1.524 1_655 S
C686 H698 0.956 . S
C686 H699 0.961 . S
C686 H700 0.961 . S
C687 C684 1.539 . S
C687 H701 0.958 . S
C687 H702 0.961 . S
C687 H703 0.973 . S
H688 C672 0.931 . S
H689 C677 0.929 . S
H690 C678 0.960 . S
H691 C678 0.962 . S
H692 C678 0.960 . S
H693 C679 0.961 . S
H694 C679 0.961 1_455 S
H695 C679 0.961 1_455 S
H696 C680 0.931 . S
H697 C685 0.930 . S
H698 C686 0.956 . S
H699 C686 0.961 . S
H700 C686 0.961 . S
H701 C687 0.958 . S
H702 C687 0.961 . S
H703 C687 0.973 . S
C704 C705 1.391 . S
C704 C706 1.394 . S
C704 H720 0.931 . S
C705 C704 1.391 . S
C705 C709 1.376 . S
C706 C704 1.394 . S
C706 C707 1.369 1_545 S
C706 C710 1.531 . S
C707 C706 1.369 1_565 S
C707 C708 1.419 . S
C707 C715 1.503 . S
C708 C707 1.419 . S
C708 C709 1.368 1_565 S
C708 C711 1.525 . S
C709 C705 1.376 . S
C709 C708 1.368 1_545 S
C709 H721 0.929 . S
C710 C706 1.531 . S
C710 H722 0.960 1_545 S
C710 H723 0.965 . S
C710 H724 0.960 . S
C711 C708 1.525 . S
C711 H725 0.961 . S
C711 H726 0.961 . S
C711 H727 0.961 . S
C712 C713 1.370 . S
C712 C714 1.363 . S
C712 H728 0.931 . S
C713 C712 1.370 . S
C713 C717 1.408 . S
C714 C712 1.363 . S
C714 C715 1.370 . S
C714 C718 1.524 . S
C715 C707 1.503 . S
C715 C714 1.370 . S
C715 C716 1.403 . S
C716 C715 1.403 . S
C716 C717 1.404 . S
C716 C719 1.539 . S
C717 C713 1.408 . S
C717 C716 1.404 . S
C717 H729 0.930 . S
C718 C714 1.524 . S
C718 H730 0.956 . S
C718 H731 0.961 . S
C718 H732 0.961 . S
C719 C716 1.539 . S
C719 H733 0.958 . S
C719 H734 0.961 . S
C719 H735 0.960 . S
H720 C704 0.931 . S
H721 C709 0.929 . S
H722 C710 0.960 1_565 S
H723 C710 0.965 . S
H724 C710 0.960 . S
H725 C711 0.961 . S
H726 C711 0.961 . S
H727 C711 0.961 . S
H728 C712 0.931 . S
H729 C717 0.930 . S
H730 C718 0.956 . S
H731 C718 0.961 . S
H732 C718 0.961 . S
H733 C719 0.958 . S
H734 C719 0.961 . S
H735 C719 0.960 . S
C736 C737 1.391 . S
C736 C738 1.394 . S
C736 H752 0.931 . S
C737 C736 1.391 . S
C737 C741 1.376 . S
C738 C736 1.394 . S
C738 C739 1.369 . S
C738 C742 1.531 . S
C739 C738 1.369 . S
C739 C740 1.410 . S
C739 C747 1.503 . S
C740 C739 1.410 . S
C740 C741 1.392 . S
C740 C743 1.511 . S
C741 C737 1.376 . S
C741 C740 1.392 . S
C741 H753 0.929 . S
C742 C738 1.531 . S
C742 H754 0.960 . S
C742 H755 0.962 . S
C742 H756 0.960 . S
C743 C740 1.511 . S
C743 H757 0.961 . S
C743 H758 0.961 . S
C743 H759 0.961 . S
C744 C745 1.370 . S
C744 C746 1.363 1_455 S
C744 H760 0.931 . S
C745 C744 1.370 . S
C745 C749 1.408 . S
C746 C744 1.363 1_655 S
C746 C747 1.370 . S
C746 C750 1.524 . S
C747 C739 1.503 . S
C747 C746 1.370 . S
C747 C748 1.424 . S
C748 C747 1.424 . S
C748 C749 1.371 1_655 S
C748 C751 1.551 . S
C749 C745 1.408 . S
C749 C748 1.371 1_455 S
C749 H761 0.930 . S
C750 C746 1.524 . S
C750 H762 0.956 . S
C750 H763 0.961 . S
C750 H764 0.961 . S
C751 C748 1.551 . S
C751 H765 0.958 . S
C751 H766 0.969 . S
C751 H767 0.960 . S
H752 C736 0.931 . S
H753 C741 0.929 . S
H754 C742 0.960 . S
H755 C742 0.962 . S
H756 C742 0.960 . S
H757 C743 0.961 . S
H758 C743 0.961 . S
H759 C743 0.961 . S
H760 C744 0.931 . S
H761 C749 0.930 . S
H762 C750 0.956 . S
H763 C750 0.961 . S
H764 C750 0.961 . S
H765 C751 0.958 . S
H766 C751 0.969 . S
H767 C751 0.960 . S
C768 C769 1.391 . S
C768 C770 1.394 . S
C768 H784 0.931 . S
C769 C768 1.391 . S
C769 C773 1.376 . S
C770 C768 1.394 . S
C770 C771 1.369 . S
C770 C774 1.531 . S
C771 C770 1.369 . S
C771 C772 1.410 . S
C771 C779 1.503 . S
C772 C771 1.410 . S
C772 C773 1.392 . S
C772 C775 1.511 . S
C773 C769 1.376 . S
C773 C772 1.392 . S
C773 H785 0.929 . S
C774 C770 1.531 . S
C774 H786 0.960 . S
C774 H787 0.962 . S
C774 H788 0.960 . S
C775 C772 1.511 . S
C775 H789 0.961 . S
C775 H790 0.961 . S
C775 H791 0.961 . S
C776 C777 1.370 . S
C776 C778 1.363 1_545 S
C776 H792 0.931 . S
C777 C776 1.370 . S
C777 C781 1.408 . S
C778 C776 1.363 1_565 S
C778 C779 1.370 . S
C778 C782 1.524 . S
C779 C771 1.503 . S
C779 C778 1.370 . S
C779 C780 1.403 . S
C780 C779 1.403 . S
C780 C781 1.404 1_565 S
C780 C783 1.539 . S
C781 C777 1.408 . S
C781 C780 1.404 1_545 S
C781 H793 0.930 . S
C782 C778 1.524 . S
C782 H794 0.956 . S
C782 H795 0.961 . S
C782 H796 0.961 . S
C783 C780 1.539 . S
C783 H797 0.958 . S
C783 H798 0.961 . S
C783 H799 0.960 . S
H784 C768 0.931 . S
H785 C773 0.929 . S
H786 C774 0.960 . S
H787 C774 0.962 . S
H788 C774 0.960 . S
H789 C775 0.961 . S
H790 C775 0.961 . S
H791 C775 0.961 . S
H792 C776 0.931 . S
H793 C781 0.930 . S
H794 C782 0.956 . S
H795 C782 0.961 . S
H796 C782 0.961 . S
H797 C783 0.958 . S
H798 C783 0.961 . S
H799 C783 0.960 . S
C800 C801 1.391 . S
C800 C802 1.394 . S
C800 H816 0.931 . S
C801 C800 1.391 . S
C801 C805 1.376 . S
C802 C800 1.394 . S
C802 C803 1.369 . S
C802 C806 1.531 . S
C803 C802 1.369 . S
C803 C804 1.410 . S
C803 C811 1.503 . S
C804 C803 1.410 . S
C804 C805 1.392 . S
C804 C807 1.511 . S
C805 C801 1.376 . S
C805 C804 1.392 . S
C805 H817 0.929 . S
C806 C802 1.531 . S
C806 H818 0.960 1_455 S
C806 H819 0.962 1_455 S
C806 H820 0.960 . S
C807 C804 1.511 . S
C807 H821 0.961 . S
C807 H822 0.961 . S
C807 H823 0.961 . S
C808 C809 1.370 . S
C808 C810 1.363 . S
C808 H824 0.931 . S
C809 C808 1.370 . S
C809 C813 1.408 . S
C810 C808 1.363 . S
C810 C811 1.370 1_655 S
C810 C814 1.524 . S
C811 C803 1.503 . S
C811 C810 1.370 1_455 S
C811 C812 1.403 1_455 S
C812 C811 1.403 1_655 S
C812 C813 1.404 . S
C812 C815 1.539 1_655 S
C813 C809 1.408 . S
C813 C812 1.404 . S
C813 H825 0.930 . S
C814 C810 1.524 . S
C814 H826 0.960 . S
C814 H827 0.961 1_655 S
C814 H828 0.961 . S
C815 C812 1.539 1_455 S
C815 H829 0.958 . S
C815 H830 0.961 . S
C815 H831 0.960 . S
H816 C800 0.931 . S
H817 C805 0.929 . S
H818 C806 0.960 1_655 S
H819 C806 0.962 1_655 S
H820 C806 0.960 . S
H821 C807 0.961 . S
H822 C807 0.961 . S
H823 C807 0.961 . S
H824 C808 0.931 . S
H825 C813 0.930 . S
H826 C814 0.960 . S
H827 C814 0.961 1_455 S
H828 C814 0.961 . S
H829 C815 0.958 . S
H830 C815 0.961 . S
H831 C815 0.960 . S
C832 C833 1.391 . S
C832 C834 1.394 1_565 S
C832 H848 0.931 . S
C833 C832 1.391 . S
C833 C837 1.376 1_565 S
C834 C832 1.394 1_545 S
C834 C835 1.369 . S
C834 C838 1.531 . S
C835 C834 1.369 . S
C835 C836 1.410 . S
C835 C843 1.503 . S
C836 C835 1.410 . S
C836 C837 1.392 . S
C836 C839 1.511 . S
C837 C833 1.376 1_545 S
C837 C836 1.392 . S
C837 H849 0.929 1_545 S
C838 C834 1.531 . S
C838 H850 0.960 . S
C838 H851 0.962 . S
C838 H852 0.960 . S
C839 C836 1.511 . S
C839 H853 0.961 . S
C839 H854 0.961 . S
C839 H855 0.961 . S
C840 C841 1.370 . S
C840 C842 1.363 . S
C840 H856 0.931 . S
C841 C840 1.370 . S
C841 C845 1.408 . S
C842 C840 1.363 . S
C842 C843 1.370 . S
C842 C846 1.524 . S
C843 C835 1.503 . S
C843 C842 1.370 . S
C843 C844 1.403 . S
C844 C843 1.403 . S
C844 C845 1.404 . S
C844 C847 1.539 . S
C845 C841 1.408 . S
C845 C844 1.404 . S
C845 H857 0.930 . S
C846 C842 1.524 . S
C846 H858 0.956 . S
C846 H859 0.961 . S
C846 H860 0.961 . S
C847 C844 1.539 . S
C847 H861 0.958 . S
C847 H862 0.961 . S
C847 H863 0.960 . S
H848 C832 0.931 . S
H849 C837 0.929 1_565 S
H850 C838 0.960 . S
H851 C838 0.962 . S
H852 C838 0.960 . S
H853 C839 0.961 . S
H854 C839 0.961 . S
H855 C839 0.961 . S
H856 C840 0.931 . S
H857 C845 0.930 . S
H858 C846 0.956 . S
H859 C846 0.961 . S
H860 C846 0.961 . S
H861 C847 0.958 . S
H862 C847 0.961 . S
H863 C847 0.960 . S
C864 C865 1.391 . S
C864 C866 1.394 . S
C864 H880 0.931 . S
C865 C864 1.391 . S
C865 C869 1.376 . S
C866 C864 1.394 . S
C866 C867 1.369 . S
C866 C870 1.531 . S
C867 C866 1.369 . S
C867 C868 1.410 . S
C867 C875 1.503 . S
C868 C867 1.410 . S
C868 C869 1.392 . S
C868 C871 1.511 . S
C869 C865 1.376 . S
C869 C868 1.392 . S
C869 H881 0.929 . S
C870 C866 1.531 . S
C870 H882 0.960 . S
C870 H883 0.962 . S
C870 H884 0.960 . S
C871 C868 1.511 . S
C871 H885 0.961 . S
C871 H886 0.961 . S
C871 H887 0.961 . S
C872 C873 1.370 . S
C872 C874 1.363 . S
C872 H888 0.931 . S
C873 C872 1.370 . S
C873 C877 1.408 . S
C874 C872 1.363 . S
C874 C875 1.370 . S
C874 C878 1.524 . S
C875 C867 1.503 . S
C875 C874 1.370 . S
C875 C876 1.403 . S
C876 C875 1.403 . S
C876 C877 1.404 . S
C876 C879 1.539 . S
C877 C873 1.408 . S
C877 C876 1.404 . S
C877 H889 0.930 . S
C878 C874 1.524 . S
C878 H890 0.956 . S
C878 H891 0.961 . S
C878 H892 0.961 . S
C879 C876 1.539 . S
C879 H893 0.958 . S
C879 H894 0.961 . S
C879 H895 0.960 . S
H880 C864 0.931 . S
H881 C869 0.929 . S
H882 C870 0.960 . S
H883 C870 0.962 . S
H884 C870 0.960 . S
H885 C871 0.961 . S
H886 C871 0.961 . S
H887 C871 0.961 . S
H888 C872 0.931 . S
H889 C877 0.930 . S
H890 C878 0.956 . S
H891 C878 0.961 . S
H892 C878 0.961 . S
H893 C879 0.958 . S
H894 C879 0.961 . S
H895 C879 0.960 . S
C896 C897 1.391 . S
C896 C898 1.394 . S
C896 H912 0.931 . S
C897 C896 1.391 . S
C897 C901 1.376 . S
C898 C896 1.394 . S
C898 C899 1.369 . S
C898 C902 1.531 . S
C899 C898 1.369 . S
C899 C900 1.410 . S
C899 C907 1.503 . S
C900 C899 1.410 . S
C900 C901 1.392 . S
C900 C903 1.511 . S
C901 C897 1.376 . S
C901 C900 1.392 . S
C901 H913 0.929 . S
C902 C898 1.531 . S
C902 H914 0.960 . S
C902 H915 0.962 . S
C902 H916 0.960 . S
C903 C900 1.511 . S
C903 H917 0.961 . S
C903 H918 0.961 . S
C903 H919 0.961 . S
C904 C905 1.370 . S
C904 C906 1.363 . S
C904 H920 0.931 . S
C905 C904 1.370 . S
C905 C909 1.408 . S
C906 C904 1.363 . S
C906 C907 1.370 . S
C906 C910 1.524 . S
C907 C899 1.503 . S
C907 C906 1.370 . S
C907 C908 1.403 . S
C908 C907 1.403 . S
C908 C909 1.404 . S
C908 C911 1.539 . S
C909 C905 1.408 . S
C909 C908 1.404 . S
C909 H921 0.930 . S
C910 C906 1.524 . S
C910 H922 0.956 . S
C910 H923 0.961 . S
C910 H924 0.961 . S
C911 C908 1.539 . S
C911 H925 0.958 . S
C911 H926 0.961 . S
C911 H927 0.960 . S
H912 C896 0.931 . S
H913 C901 0.929 . S
H914 C902 0.960 . S
H915 C902 0.962 . S
H916 C902 0.960 . S
H917 C903 0.961 . S
H918 C903 0.961 . S
H919 C903 0.961 . S
H920 C904 0.931 . S
H921 C909 0.930 . S
H922 C910 0.956 . S
H923 C910 0.961 . S
H924 C910 0.961 . S
H925 C911 0.958 . S
H926 C911 0.961 . S
H927 C911 0.960 . S
C928 C929 1.391 . S
C928 C930 1.394 . S
C928 H944 0.931 . S
C929 C928 1.391 . S
C929 C933 1.376 . S
C930 C928 1.394 . S
C930 C931 1.369 . S
C930 C934 1.531 . S
C931 C930 1.369 . S
C931 C932 1.410 . S
C931 C939 1.503 . S
C932 C931 1.410 . S
C932 C933 1.392 . S
C932 C935 1.511 . S
C933 C929 1.376 . S
C933 C932 1.392 . S
C933 H945 0.929 . S
C934 C930 1.531 . S
C934 H946 0.960 . S
C934 H947 0.962 . S
C934 H948 0.960 . S
C935 C932 1.511 . S
C935 H949 0.961 . S
C935 H950 0.961 . S
C935 H951 0.961 . S
C936 C937 1.370 . S
C936 C938 1.363 . S
C936 H952 0.931 . S
C937 C936 1.370 . S
C937 C941 1.408 . S
C938 C936 1.363 . S
C938 C939 1.370 . S
C938 C942 1.524 . S
C939 C931 1.503 . S
C939 C938 1.370 . S
C939 C940 1.403 . S
C940 C939 1.403 . S
C940 C941 1.404 . S
C940 C943 1.539 . S
C941 C937 1.408 . S
C941 C940 1.404 . S
C941 H953 0.930 . S
C942 C938 1.524 . S
C942 H954 0.956 . S
C942 H955 0.961 . S
C942 H956 0.961 . S
C943 C940 1.539 . S
C943 H957 0.958 . S
C943 H958 0.961 . S
C943 H959 0.960 . S
H944 C928 0.931 . S
H945 C933 0.929 . S
H946 C934 0.960 . S
H947 C934 0.962 . S
H948 C934 0.960 . S
H949 C935 0.961 . S
H950 C935 0.961 . S
H951 C935 0.961 . S
H952 C936 0.931 . S
H953 C941 0.930 . S
H954 C942 0.956 . S
H955 C942 0.961 . S
H956 C942 0.961 . S
H957 C943 0.958 . S
H958 C943 0.961 . S
H959 C943 0.960 . S
C960 C961 1.391 . S
C960 C962 1.394 . S
C960 H976 0.931 . S
C961 C960 1.391 . S
C961 C965 1.376 . S
C962 C960 1.394 . S
C962 C963 1.369 . S
C962 C966 1.531 . S
C963 C962 1.369 . S
C963 C964 1.410 . S
C963 C971 1.503 . S
C964 C963 1.410 . S
C964 C965 1.392 . S
C964 C967 1.511 . S
C965 C961 1.376 . S
C965 C964 1.392 . S
C965 H977 0.929 . S
C966 C962 1.531 . S
C966 H978 0.960 . S
C966 H979 0.962 . S
C966 H980 0.960 . S
C967 C964 1.511 . S
C967 H981 0.961 . S
C967 H982 0.961 . S
C967 H983 0.961 . S
C968 C969 1.370 . S
C968 C970 1.363 . S
C968 H984 0.931 . S
C969 C968 1.370 . S
C969 C973 1.408 . S
C970 C968 1.363 . S
C970 C971 1.370 . S
C970 C974 1.524 . S
C971 C963 1.503 . S
C971 C970 1.370 . S
C971 C972 1.403 . S
C972 C971 1.403 . S
C972 C973 1.404 . S
C972 C975 1.539 . S
C973 C969 1.408 . S
C973 C972 1.404 . S
C973 H985 0.930 . S
C974 C970 1.524 . S
C974 H986 0.956 . S
C974 H987 0.961 . S
C974 H988 0.961 . S
C975 C972 1.539 . S
C975 H989 0.958 . S
C975 H990 0.961 . S
C975 H991 0.960 . S
H976 C960 0.931 . S
H977 C965 0.929 . S
H978 C966 0.960 . S
H979 C966 0.962 . S
H980 C966 0.960 . S
H981 C967 0.961 . S
H982 C967 0.961 . S
H983 C967 0.961 . S
H984 C968 0.931 . S
H985 C973 0.930 . S
H986 C974 0.956 . S
H987 C974 0.961 . S
H988 C974 0.961 . S
H989 C975 0.958 . S
H990 C975 0.961 . S
H991 C975 0.960 . S
C992 C993 1.391 . S
C992 C994 1.394 . S
C992 H1008 0.931 . S
C993 C992 1.391 . S
C993 C997 1.376 . S
C994 C992 1.394 . S
C994 C995 1.369 . S
C994 C998 1.531 . S
C995 C994 1.369 . S
C995 C996 1.410 . S
C995 C1003 1.503 . S
C996 C995 1.410 . S
C996 C997 1.392 . S
C996 C999 1.511 . S
C997 C993 1.376 . S
C997 C996 1.392 . S
C997 H1009 0.929 . S
C998 C994 1.531 . S
C998 H1010 0.960 . S
C998 H1011 0.962 . S
C998 H1012 0.960 . S
C999 C996 1.511 . S
C999 H1013 0.961 . S
C999 H1014 0.961 . S
C999 H1015 0.961 . S
C1000 C1001 1.370 . S
C1000 C1002 1.363 . S
C1000 H1016 0.931 . S
C1001 C1000 1.370 . S
C1001 C1005 1.408 . S
C1002 C1000 1.363 . S
C1002 C1003 1.370 . S
C1002 C1006 1.524 . S
C1003 C995 1.503 . S
C1003 C1002 1.370 . S
C1003 C1004 1.403 . S
C1004 C1003 1.403 . S
C1004 C1005 1.404 . S
C1004 C1007 1.539 . S
C1005 C1001 1.408 . S
C1005 C1004 1.404 . S
C1005 H1017 0.930 . S
C1006 C1002 1.524 . S
C1006 H1018 0.956 . S
C1006 H1019 0.961 . S
C1006 H1020 0.961 . S
C1007 C1004 1.539 . S
C1007 H1021 0.958 . S
C1007 H1022 0.961 . S
C1007 H1023 0.960 . S
H1008 C992 0.931 . S
H1009 C997 0.929 . S
H1010 C998 0.960 . S
H1011 C998 0.962 . S
H1012 C998 0.960 . S
H1013 C999 0.961 . S
H1014 C999 0.961 . S
H1015 C999 0.961 . S
H1016 C1000 0.931 . S
H1017 C1005 0.930 . S
H1018 C1006 0.956 . S
H1019 C1006 0.961 . S
H1020 C1006 0.961 . S
H1021 C1007 0.958 . S
H1022 C1007 0.961 . S
H1023 C1007 0.960 . S
C1024 C1025 1.391 . S
C1024 C1026 1.394 . S
C1024 H1040 0.931 . S
C1025 C1024 1.391 . S
C1025 C1029 1.376 . S
C1026 C1024 1.394 . S
C1026 C1027 1.369 . S
C1026 C1030 1.531 . S
C1027 C1026 1.369 . S
C1027 C1028 1.410 . S
C1027 C1035 1.503 . S
C1028 C1027 1.410 . S
C1028 C1029 1.392 . S
C1028 C1031 1.511 . S
C1029 C1025 1.376 . S
C1029 C1028 1.392 . S
C1029 H1041 0.929 . S
C1030 C1026 1.531 . S
C1030 H1042 0.960 . S
C1030 H1043 0.962 . S
C1030 H1044 0.960 . S
C1031 C1028 1.511 . S
C1031 H1045 0.961 . S
C1031 H1046 0.961 . S
C1031 H1047 0.961 . S
C1032 C1033 1.370 . S
C1032 C1034 1.363 . S
C1032 H1048 0.931 . S
C1033 C1032 1.370 . S
C1033 C1037 1.408 . S
C1034 C1032 1.363 . S
C1034 C1035 1.370 . S
C1034 C1038 1.524 . S
C1035 C1027 1.503 . S
C1035 C1034 1.370 . S
C1035 C1036 1.403 . S
C1036 C1035 1.403 . S
C1036 C1037 1.404 . S
C1036 C1039 1.539 . S
C1037 C1033 1.408 . S
C1037 C1036 1.404 . S
C1037 H1049 0.930 . S
C1038 C1034 1.524 . S
C1038 H1050 0.956 . S
C1038 H1051 0.961 . S
C1038 H1052 0.961 . S
C1039 C1036 1.539 . S
C1039 H1053 0.958 . S
C1039 H1054 0.961 . S
C1039 H1055 0.960 . S
H1040 C1024 0.931 . S
H1041 C1029 0.929 . S
H1042 C1030 0.960 . S
H1043 C1030 0.962 . S
H1044 C1030 0.960 . S
H1045 C1031 0.961 . S
H1046 C1031 0.961 . S
H1047 C1031 0.961 . S
H1048 C1032 0.931 . S
H1049 C1037 0.930 . S
H1050 C1038 0.956 . S
H1051 C1038 0.961 . S
H1052 C1038 0.961 . S
H1053 C1039 0.958 . S
H1054 C1039 0.961 . S
H1055 C1039 0.960 . S
C1056 C1057 1.391 . S
C1056 C1058 1.394 . S
C1056 H1072 0.931 . S
C1057 C1056 1.391 . S
C1057 C1061 1.376 . S
C1058 C1056 1.394 . S
C1058 C1059 1.369 . S
C1058 C1062 1.531 . S
C1059 C1058 1.369 . S
C1059 C1060 1.410 . S
C1059 C1067 1.503 . S
C1060 C1059 1.410 . S
C1060 C1061 1.392 . S
C1060 C1063 1.511 . S
C1061 C1057 1.376 . S
C1061 C1060 1.392 . S
C1061 H1073 0.929 . S
C1062 C1058 1.531 . S
C1062 H1074 0.960 . S
C1062 H1075 0.962 . S
C1062 H1076 0.960 . S
C1063 C1060 1.511 . S
C1063 H1077 0.961 . S
C1063 H1078 0.961 . S
C1063 H1079 0.961 . S
C1064 C1065 1.370 . S
C1064 C1066 1.363 . S
C1064 H1080 0.931 . S
C1065 C1064 1.370 . S
C1065 C1069 1.408 . S
C1066 C1064 1.363 . S
C1066 C1067 1.370 . S
C1066 C1070 1.524 . S
C1067 C1059 1.503 . S
C1067 C1066 1.370 . S
C1067 C1068 1.403 . S
C1068 C1067 1.403 . S
C1068 C1069 1.404 . S
C1068 C1071 1.539 . S
C1069 C1065 1.408 . S
C1069 C1068 1.404 . S
C1069 H1081 0.930 . S
C1070 C1066 1.524 . S
C1070 H1082 0.956 . S
C1070 H1083 0.961 . S
C1070 H1084 0.961 . S
C1071 C1068 1.539 . S
C1071 H1085 0.958 . S
C1071 H1086 0.961 . S
C1071 H1087 0.960 . S
H1072 C1056 0.931 . S
H1073 C1061 0.929 . S
H1074 C1062 0.960 . S
H1075 C1062 0.962 . S
H1076 C1062 0.960 . S
H1077 C1063 0.961 . S
H1078 C1063 0.961 . S
H1079 C1063 0.961 . S
H1080 C1064 0.931 . S
H1081 C1069 0.930 . S
H1082 C1070 0.956 . S
H1083 C1070 0.961 . S
H1084 C1070 0.961 . S
H1085 C1071 0.958 . S
H1086 C1071 0.961 . S
H1087 C1071 0.960 . S
C1088 C1089 1.391 . S
C1088 C1090 1.394 . S
C1088 H1104 0.931 . S
C1089 C1088 1.391 . S
C1089 C1093 1.376 . S
C1090 C1088 1.394 . S
C1090 C1091 1.369 . S
C1090 C1094 1.531 . S
C1091 C1090 1.369 . S
C1091 C1092 1.410 . S
C1091 C1099 1.503 . S
C1092 C1091 1.410 . S
C1092 C1093 1.392 . S
C1092 C1095 1.511 . S
C1093 C1089 1.376 . S
C1093 C1092 1.392 . S
C1093 H1105 0.929 . S
C1094 C1090 1.531 . S
C1094 H1106 0.960 . S
C1094 H1107 0.962 . S
C1094 H1108 0.960 . S
C1095 C1092 1.511 . S
C1095 H1109 0.961 . S
C1095 H1110 0.961 . S
C1095 H1111 0.961 . S
C1096 C1097 1.370 . S
C1096 C1098 1.363 . S
C1096 H1112 0.931 . S
C1097 C1096 1.370 . S
C1097 C1101 1.408 . S
C1098 C1096 1.363 . S
C1098 C1099 1.370 . S
C1098 C1102 1.524 . S
C1099 C1091 1.503 . S
C1099 C1098 1.370 . S
C1099 C1100 1.403 . S
C1100 C1099 1.403 . S
C1100 C1101 1.404 . S
C1100 C1103 1.539 . S
C1101 C1097 1.408 . S
C1101 C1100 1.404 . S
C1101 H1113 0.930 . S
C1102 C1098 1.524 . S
C1102 H1114 0.956 . S
C1102 H1115 0.961 . S
C1102 H1116 0.961 . S
C1103 C1100 1.539 . S
C1103 H1117 0.958 . S
C1103 H1118 0.961 . S
C1103 H1119 0.960 . S
H1104 C1088 0.931 . S
H1105 C1093 0.929 . S
H1106 C1094 0.960 . S
H1107 C1094 0.962 . S
H1108 C1094 0.960 . S
H1109 C1095 0.961 . S
H1110 C1095 0.961 . S
H1111 C1095 0.961 . S
H1112 C1096 0.931 . S
H1113 C1101 0.930 . S
H1114 C1102 0.956 . S
H1115 C1102 0.961 . S
H1116 C1102 0.961 . S
H1117 C1103 0.958 . S
H1118 C1103 0.961 . S
H1119 C1103 0.960 . S
C1120 C1121 1.391 . S
C1120 C1122 1.394 . S
C1120 H1136 0.931 . S
C1121 C1120 1.391 . S
C1121 C1125 1.376 . S
C1122 C1120 1.394 . S
C1122 C1123 1.369 . S
C1122 C1126 1.531 . S
C1123 C1122 1.369 . S
C1123 C1124 1.410 . S
C1123 C1131 1.503 . S
C1124 C1123 1.410 . S
C1124 C1125 1.392 . S
C1124 C1127 1.511 . S
C1125 C1121 1.376 . S
C1125 C1124 1.392 . S
C1125 H1137 0.929 . S
C1126 C1122 1.531 . S
C1126 H1138 0.960 . S
C1126 H1139 0.962 . S
C1126 H1140 0.960 . S
C1127 C1124 1.511 . S
C1127 H1141 0.961 . S
C1127 H1142 0.961 . S
C1127 H1143 0.961 . S
C1128 C1129 1.370 . S
C1128 C1130 1.363 . S
C1128 H1144 0.931 . S
C1129 C1128 1.370 . S
C1129 C1133 1.408 . S
C1130 C1128 1.363 . S
C1130 C1131 1.370 . S
C1130 C1134 1.524 . S
C1131 C1123 1.503 . S
C1131 C1130 1.370 . S
C1131 C1132 1.403 . S
C1132 C1131 1.403 . S
C1132 C1133 1.404 . S
C1132 C1135 1.539 . S
C1133 C1129 1.408 . S
C1133 C1132 1.404 . S
C1133 H1145 0.930 . S
C1134 C1130 1.524 . S
C1134 H1146 0.956 . S
C1134 H1147 0.961 . S
C1134 H1148 0.961 . S
C1135 C1132 1.539 . S
C1135 H1149 0.958 . S
C1135 H1150 0.961 . S
C1135 H1151 0.960 . S
H1136 C1120 0.931 . S
H1137 C1125 0.929 . S
H1138 C1126 0.960 . S
H1139 C1126 0.962 . S
H1140 C1126 0.960 . S
H1141 C1127 0.961 . S
H1142 C1127 0.961 . S
H1143 C1127 0.961 . S
H1144 C1128 0.931 . S
H1145 C1133 0.930 . S
H1146 C1134 0.956 . S
H1147 C1134 0.961 . S
H1148 C1134 0.961 . S
H1149 C1135 0.958 . S
H1150 C1135 0.961 . S
H1151 C1135 0.960 . S
C1152 C1153 1.391 . S
C1152 C1154 1.394 . S
C1152 H1168 0.931 . S
C1153 C1152 1.391 . S
C1153 C1157 1.376 . S
C1154 C1152 1.394 . S
C1154 C1155 1.369 . S
C1154 C1158 1.531 . S
C1155 C1154 1.369 . S
C1155 C1156 1.410 . S
C1155 C1163 1.503 . S
C1156 C1155 1.410 . S
C1156 C1157 1.392 . S
C1156 C1159 1.511 . S
C1157 C1153 1.376 . S
C1157 C1156 1.392 . S
C1157 H1169 0.929 . S
C1158 C1154 1.531 . S
C1158 H1170 0.960 . S
C1158 H1171 0.962 . S
C1158 H1172 0.960 . S
C1159 C1156 1.511 . S
C1159 H1173 0.961 . S
C1159 H1174 0.961 . S
C1159 H1175 0.961 . S
C1160 C1161 1.370 . S
C1160 C1162 1.363 . S
C1160 H1176 0.931 . S
C1161 C1160 1.370 . S
C1161 C1165 1.408 . S
C1162 C1160 1.363 . S
C1162 C1163 1.370 . S
C1162 C1166 1.524 . S
C1163 C1155 1.503 . S
C1163 C1162 1.370 . S
C1163 C1164 1.403 . S
C1164 C1163 1.403 . S
C1164 C1165 1.404 . S
C1164 C1167 1.539 . S
C1165 C1161 1.408 . S
C1165 C1164 1.404 . S
C1165 H1177 0.930 . S
C1166 C1162 1.524 . S
C1166 H1178 0.956 . S
C1166 H1179 0.961 . S
C1166 H1180 0.961 . S
C1167 C1164 1.539 . S
C1167 H1181 0.958 . S
C1167 H1182 0.961 . S
C1167 H1183 0.960 . S
H1168 C1152 0.931 . S
H1169 C1157 0.929 . S
H1170 C1158 0.960 . S
H1171 C1158 0.962 . S
H1172 C1158 0.960 . S
H1173 C1159 0.961 . S
H1174 C1159 0.961 . S
H1175 C1159 0.961 . S
H1176 C1160 0.931 . S
H1177 C1165 0.930 . S
H1178 C1166 0.956 . S
H1179 C1166 0.961 . S
H1180 C1166 0.961 . S
H1181 C1167 0.958 . S
H1182 C1167 0.961 . S
H1183 C1167 0.960 . S
C1184 C1185 1.391 . S
C1184 C1186 1.394 . S
C1184 H1200 0.931 . S
C1185 C1184 1.391 . S
C1185 C1189 1.376 . S
C1186 C1184 1.394 . S
C1186 C1187 1.369 . S
C1186 C1190 1.531 . S
C1187 C1186 1.369 . S
C1187 C1188 1.410 . S
C1187 C1195 1.503 . S
C1188 C1187 1.410 . S
C1188 C1189 1.392 . S
C1188 C1191 1.511 . S
C1189 C1185 1.376 . S
C1189 C1188 1.392 . S
C1189 H1201 0.929 . S
C1190 C1186 1.531 . S
C1190 H1202 0.960 . S
C1190 H1203 0.962 . S
C1190 H1204 0.960 . S
C1191 C1188 1.511 . S
C1191 H1205 0.961 . S
C1191 H1206 0.961 . S
C1191 H1207 0.961 . S
C1192 C1193 1.370 . S
C1192 C1194 1.363 . S
C1192 H1208 0.931 . S
C1193 C1192 1.370 . S
C1193 C1197 1.408 . S
C1194 C1192 1.363 . S
C1194 C1195 1.370 . S
C1194 C1198 1.524 . S
C1195 C1187 1.503 . S
C1195 C1194 1.370 . S
C1195 C1196 1.403 . S
C1196 C1195 1.403 . S
C1196 C1197 1.404 . S
C1196 C1199 1.539 . S
C1197 C1193 1.408 . S
C1197 C1196 1.404 . S
C1197 H1209 0.930 . S
C1198 C1194 1.524 . S
C1198 H1210 0.956 . S
C1198 H1211 0.961 . S
C1198 H1212 0.961 . S
C1199 C1196 1.539 . S
C1199 H1213 0.958 . S
C1199 H1214 0.961 . S
C1199 H1215 0.960 . S
H1200 C1184 0.931 . S
H1201 C1189 0.929 . S
H1202 C1190 0.960 . S
H1203 C1190 0.962 . S
H1204 C1190 0.960 . S
H1205 C1191 0.961 . S
H1206 C1191 0.961 . S
H1207 C1191 0.961 . S
H1208 C1192 0.931 . S
H1209 C1197 0.930 . S
H1210 C1198 0.956 . S
H1211 C1198 0.961 . S
H1212 C1198 0.961 . S
H1213 C1199 0.958 . S
H1214 C1199 0.961 . S
H1215 C1199 0.960 . S
C1216 C1217 1.391 . S
C1216 C1218 1.394 . S
C1216 H1232 0.931 . S
C1217 C1216 1.391 . S
C1217 C1221 1.376 . S
C1218 C1216 1.394 . S
C1218 C1219 1.369 . S
C1218 C1222 1.531 . S
C1219 C1218 1.369 . S
C1219 C1220 1.410 . S
C1219 C1227 1.503 . S
C1220 C1219 1.410 . S
C1220 C1221 1.392 . S
C1220 C1223 1.511 . S
C1221 C1217 1.376 . S
C1221 C1220 1.392 . S
C1221 H1233 0.929 . S
C1222 C1218 1.531 . S
C1222 H1234 0.960 . S
C1222 H1235 0.962 . S
C1222 H1236 0.960 . S
C1223 C1220 1.511 . S
C1223 H1237 0.961 . S
C1223 H1238 0.961 . S
C1223 H1239 0.961 . S
C1224 C1225 1.370 . S
C1224 C1226 1.363 . S
C1224 H1240 0.931 . S
C1225 C1224 1.370 . S
C1225 C1229 1.408 . S
C1226 C1224 1.363 . S
C1226 C1227 1.370 . S
C1226 C1230 1.524 . S
C1227 C1219 1.503 . S
C1227 C1226 1.370 . S
C1227 C1228 1.403 . S
C1228 C1227 1.403 . S
C1228 C1229 1.404 . S
C1228 C1231 1.539 . S
C1229 C1225 1.408 . S
C1229 C1228 1.404 . S
C1229 H1241 0.930 . S
C1230 C1226 1.524 . S
C1230 H1242 0.956 . S
C1230 H1243 0.961 . S
C1230 H1244 0.961 . S
C1231 C1228 1.539 . S
C1231 H1245 0.958 . S
C1231 H1246 0.961 . S
C1231 H1247 0.960 . S
H1232 C1216 0.931 . S
H1233 C1221 0.929 . S
H1234 C1222 0.960 . S
H1235 C1222 0.962 . S
H1236 C1222 0.960 . S
H1237 C1223 0.961 . S
H1238 C1223 0.961 . S
H1239 C1223 0.961 . S
H1240 C1224 0.931 . S
H1241 C1229 0.930 . S
H1242 C1230 0.956 . S
H1243 C1230 0.961 . S
H1244 C1230 0.961 . S
H1245 C1231 0.958 . S
H1246 C1231 0.961 . S
H1247 C1231 0.960 . S
C225 C216 1.149 . S
C233 C6 1.162 . S
C257 C174 1.203 . S
C265 C20 1.209 . S
C289 C34 1.242 . S
C297 C188 1.153 . S
C321 C202 1.358 . S
C329 C48 1.406 . S
C353 C132 1.211 . S
C361 C62 1.209 . S
C385 C76 1.209 . S
C393 C146 1.268 . S
C417 C90 1.256 . S
C425 C160 1.414 . S
C449 C104 1.091 . S
C457 C118 1.137 . S
C481 C79 2.049 . S
C489 C7 1.883 . S
C513 C91 1.397 . S
C521 C21 1.398 . S
C545 C107 1.436 . S
C553 C35 1.259 . S
C577 C49 1.449 . S
C585 C64 1.623 . S
C609 C8 1.298 . S
C617 C23 1.237 . S
C641 C37 1.417 . S
C649 C22 1.418 . S
C673 C36 1.447 . S
C681 C51 1.447 . S
C705 C9 1.713 . S
C713 C50 1.712 . S
C737 C106 1.588 . S
C745 C65 1.488 . S
C769 C63 1.389 . S
C777 C77 1.296 . S
C801 C78 1.584 . S
C809 C92 1.579 . S
C833 C105 1.645 . S
C841 C93 1.787 . S
C865 C191 2.052 . S
C873 C119 1.887 . S
C897 C133 1.403 . S
C905 C203 1.375 . S
C929 C219 1.415 . S
C937 C147 1.302 . S
C961 C176 1.617 . S
C969 C161 1.473 . S
C993 C120 1.299 . S
C1001 C135 1.268 . S
C1025 C134 1.416 . S
C1033 C149 1.407 . S
C1057 C163 1.440 . S
C1065 C148 1.441 . S
C1089 C121 1.709 . S
C1097 C162 1.711 . S
C1121 C218 1.582 . S
C1129 C177 1.495 . S
C1153 C175 1.348 . S
C1161 C189 1.318 . S
C1185 C190 1.585 . S
C1193 C204 1.579 . S
C1217 C217 1.633 . S
C1225 C205 1.788 . S
