# Generated by pormake.
# Topology umy, (4)-cn, num edge types: 1
# Building blocks:
#     Node 0, Type 0, BuildingBlock: TATPOV_clean_sbu_0, # of connection points: 4
#     Node 1, Type 0, BuildingBlock: TATPOV_clean_sbu_0, # of connection points: 4
#     Node 2, Type 0, BuildingBlock: TATPOV_clean_sbu_0, # of connection points: 4
#     Node 3, Type 0, BuildingBlock: TATPOV_clean_sbu_0, # of connection points: 4
#     Node 4, Type 0, BuildingBlock: TATPOV_clean_sbu_0, # of connection points: 4
#     Node 5, Type 0, BuildingBlock: TATPOV_clean_sbu_0, # of connection points: 4
#     Node 6, Type 0, BuildingBlock: TATPOV_clean_sbu_0, # of connection points: 4
#     Node 7, Type 0, BuildingBlock: TATPOV_clean_sbu_0, # of connection points: 4
#     Node 8, Type 0, BuildingBlock: TATPOV_clean_sbu_0, # of connection points: 4
#     Node 9, Type 0, BuildingBlock: TATPOV_clean_sbu_0, # of connection points: 4
#     Node 10, Type 0, BuildingBlock: TATPOV_clean_sbu_0, # of connection points: 4
#     Node 11, Type 0, BuildingBlock: TATPOV_clean_sbu_0, # of connection points: 4
#     Edge 12, Type (0, 0), BuildingBlock: MIFKUJ_clean_linker_0, # of connection points: 2
#     Edge 13, Type (0, 0), BuildingBlock: MIFKUJ_clean_linker_0, # of connection points: 2
#     Edge 14, Type (0, 0), BuildingBlock: MIFKUJ_clean_linker_0, # of connection points: 2
#     Edge 15, Type (0, 0), BuildingBlock: MIFKUJ_clean_linker_0, # of connection points: 2
#     Edge 16, Type (0, 0), BuildingBlock: MIFKUJ_clean_linker_0, # of connection points: 2
#     Edge 17, Type (0, 0), BuildingBlock: MIFKUJ_clean_linker_0, # of connection points: 2
#     Edge 18, Type (0, 0), BuildingBlock: MIFKUJ_clean_linker_0, # of connection points: 2
#     Edge 19, Type (0, 0), BuildingBlock: MIFKUJ_clean_linker_0, # of connection points: 2
#     Edge 20, Type (0, 0), BuildingBlock: MIFKUJ_clean_linker_0, # of connection points: 2
#     Edge 21, Type (0, 0), BuildingBlock: MIFKUJ_clean_linker_0, # of connection points: 2
#     Edge 22, Type (0, 0), BuildingBlock: MIFKUJ_clean_linker_0, # of connection points: 2
#     Edge 23, Type (0, 0), BuildingBlock: MIFKUJ_clean_linker_0, # of connection points: 2
#     Edge 24, Type (0, 0), BuildingBlock: MIFKUJ_clean_linker_0, # of connection points: 2
#     Edge 25, Type (0, 0), BuildingBlock: MIFKUJ_clean_linker_0, # of connection points: 2
#     Edge 26, Type (0, 0), BuildingBlock: MIFKUJ_clean_linker_0, # of connection points: 2
#     Edge 27, Type (0, 0), BuildingBlock: MIFKUJ_clean_linker_0, # of connection points: 2
#     Edge 28, Type (0, 0), BuildingBlock: MIFKUJ_clean_linker_0, # of connection points: 2
#     Edge 29, Type (0, 0), BuildingBlock: MIFKUJ_clean_linker_0, # of connection points: 2
#     Edge 30, Type (0, 0), BuildingBlock: MIFKUJ_clean_linker_0, # of connection points: 2
#     Edge 31, Type (0, 0), BuildingBlock: MIFKUJ_clean_linker_0, # of connection points: 2
#     Edge 32, Type (0, 0), BuildingBlock: MIFKUJ_clean_linker_0, # of connection points: 2
#     Edge 33, Type (0, 0), BuildingBlock: MIFKUJ_clean_linker_0, # of connection points: 2
#     Edge 34, Type (0, 0), BuildingBlock: MIFKUJ_clean_linker_0, # of connection points: 2
#     Edge 35, Type (0, 0), BuildingBlock: MIFKUJ_clean_linker_0, # of connection points: 2
# Relax obj value: 0.093
# Max RMSD: 0.113
# Mean RMSD: 0.113
data_MOF--net-umy--node1-TATPOV_clean_sbu_0--edge1-MIFKUJ_clean_linker_0
_symmetry_space_group_name_H-M    P1
_symmetry_Int_Tables_number       1
_symmetry_cell_setting            triclinic
loop_
_symmetry_equiv_pos_as_xyz
'x, y, z'
_cell_length_a     50.6626
_cell_length_b     50.64942
_cell_length_c     63.065877
_cell_angle_alpha  89.997944
_cell_angle_beta   90.015792
_cell_angle_gamma 119.99728
loop_
_atom_site_label
_atom_site_type_symbol
_atom_site_fract_x
_atom_site_fract_y
_atom_site_fract_z
_atom_type_partial_charge
Zn0 Zn 0.07398 0.2945 0.1065 0.0
Zn1 Zn 0.08746 0.35234 0.1057 0.0
O2 O 0.04032 0.32677 0.10791 0.0
O3 O 0.02905 0.27889 0.10607 0.0
O4 O 0.09434 0.39497 0.10266 0.0
O5 O 0.09601 0.29935 0.0792 0.0
O6 O 0.10943 0.34795 0.07921 0.0
C7 C 0.02055 0.29843 0.10757 0.0
C8 C 0.10877 0.33038 0.14316 0.0
O9 O 0.10778 0.35218 0.1338 0.0
O10 O 0.09634 0.30413 0.13474 0.0
C11 C 0.08002 0.39928 0.08774 0.0
O12 O 0.06248 0.3763 0.07528 0.0
C13 C 0.11021 0.32547 0.07076 0.0
Zn14 Zn 0.78772 0.08345 0.28158 0.0
Zn15 Zn 0.74026 0.09084 0.27728 0.0
O16 O 0.72177 0.04384 0.27968 0.0
O17 O 0.76204 0.0381 0.28018 0.0
O18 O 0.70324 0.09464 0.27112 0.0
O19 O 0.80758 0.10704 0.25538 0.0
O20 O 0.76819 0.11372 0.25153 0.0
C21 C 0.7334 0.02656 0.28023 0.0
C22 C 0.77975 0.11587 0.31668 0.0
O23 O 0.75718 0.11288 0.30582 0.0
O24 O 0.79587 0.10501 0.3098 0.0
C25 C 0.68464 0.09343 0.28513 0.0
O26 O 0.68956 0.09005 0.30514 0.0
C27 C 0.79397 0.11814 0.24512 0.0
Zn28 Zn 0.69469 0.78578 0.44623 0.0
Zn29 Zn 0.64079 0.73518 0.44436 0.0
O30 O 0.67178 0.7201 0.44851 0.0
O31 O 0.71631 0.76215 0.45025 0.0
O32 O 0.60145 0.69568 0.44041 0.0
O33 O 0.68956 0.79795 0.41695 0.0
O34 O 0.64291 0.7585 0.41677 0.0
C35 C 0.70065 0.73336 0.45075 0.0
C36 C 0.65296 0.78026 0.47997 0.0
O37 O 0.6351 0.75464 0.47133 0.0
O38 O 0.67898 0.79768 0.47197 0.0
C39 C 0.57518 0.69218 0.44386 0.0
O40 O 0.57281 0.71523 0.45109 0.0
C41 C 0.66402 0.78237 0.40794 0.0
Zn42 Zn 0.91782 0.70823 0.61368 0.0
Zn43 Zn 0.91 0.65219 0.6116 0.0
O44 O 0.95698 0.6806 0.6115 0.0
O45 O 0.96318 0.72678 0.61204 0.0
O46 O 0.9053 0.61046 0.60844 0.0
O47 O 0.89365 0.70122 0.58694 0.0
O48 O 0.88573 0.65436 0.58586 0.0
C49 C 0.97449 0.70946 0.61167 0.0
C50 C 0.88801 0.67118 0.65069 0.0
O51 O 0.89074 0.65086 0.64061 0.0
O52 O 0.89752 0.69727 0.64253 0.0
C53 C 0.92054 0.60227 0.61995 0.0
O54 O 0.93899 0.62115 0.63442 0.0
C55 C 0.88178 0.67537 0.57808 0.0
Zn56 Zn 0.21019 0.90975 0.77108 0.0
Zn57 Zn 0.26227 0.9091 0.76798 0.0
O58 O 0.27662 0.95474 0.77251 0.0
O59 O 0.23364 0.95507 0.77639 0.0
O60 O 0.30157 0.90917 0.76335 0.0
O61 O 0.19814 0.89379 0.74142 0.0
O62 O 0.23852 0.88824 0.74052 0.0
C63 C 0.2625 0.96924 0.77601 0.0
C64 C 0.21786 0.87344 0.80345 0.0
O65 O 0.24398 0.88365 0.79494 0.0
O66 O 0.19886 0.88018 0.79574 0.0
C67 C 0.31913 0.91046 0.77821 0.0
O68 O 0.31165 0.91175 0.79797 0.0
C69 C 0.21419 0.88476 0.73194 0.0
Zn70 Zn 0.29978 0.21113 0.94198 0.0
Zn71 Zn 0.35509 0.2596 0.93964 0.0
O72 O 0.32659 0.27777 0.94377 0.0
O73 O 0.28067 0.23736 0.94404 0.0
O74 O 0.39639 0.29715 0.93607 0.0
O75 O 0.30403 0.19622 0.91355 0.0
O76 O 0.35084 0.23517 0.91206 0.0
C77 C 0.29773 0.26599 0.94497 0.0
C78 C 0.33986 0.21488 0.97619 0.0
O79 O 0.35909 0.23931 0.96679 0.0
O80 O 0.31326 0.19884 0.96865 0.0
C81 C 0.39966 0.316 0.92157 0.0
O82 O 0.37613 0.31025 0.90961 0.0
C83 C 0.3292 0.2109 0.90393 0.0
Zn84 Zn 0.70427 0.91599 0.7209 0.0
Zn85 Zn 0.65011 0.90926 0.7284 0.0
O86 O 0.67872 0.956 0.72662 0.0
O87 O 0.72447 0.9613 0.72506 0.0
O88 O 0.60986 0.90584 0.73564 0.0
O89 O 0.69988 0.88855 0.74521 0.0
O90 O 0.65648 0.88611 0.7532 0.0
C91 C 0.7076 0.97309 0.72598 0.0
C92 C 0.66205 0.88758 0.68631 0.0
O93 O 0.64309 0.88837 0.69921 0.0
O94 O 0.68974 0.89877 0.69157 0.0
C95 C 0.59498 0.91171 0.72206 0.0
O96 O 0.60584 0.91952 0.70274 0.0
C97 C 0.67693 0.87917 0.75724 0.0
Zn98 Zn 0.78581 0.70542 0.89719 0.0
Zn99 Zn 0.73982 0.64805 0.89772 0.0
O100 O 0.71963 0.67487 0.89494 0.0
O101 O 0.75737 0.72219 0.89767 0.0
O102 O 0.70351 0.6056 0.90005 0.0
O103 O 0.80205 0.69942 0.92459 0.0
O104 O 0.76476 0.65168 0.92485 0.0
C105 C 0.72922 0.70342 0.89564 0.0
C106 C 0.7842 0.66883 0.86085 0.0
O107 O 0.76108 0.64748 0.87021 0.0
O108 O 0.79827 0.69524 0.86902 0.0
C109 C 0.6806 0.59711 0.88793 0.0
O110 O 0.68127 0.61605 0.87342 0.0
C111 C 0.78861 0.67346 0.9333 0.0
Zn112 Zn 0.09737 0.79469 0.04829 0.0
Zn113 Zn 0.10056 0.7447 0.05495 0.0
O114 O 0.05419 0.72831 0.05239 0.0
O115 O 0.05152 0.76991 0.04745 0.0
O116 O 0.10277 0.70672 0.06082 0.0
O117 O 0.11921 0.8131 0.07537 0.0
O118 O 0.12255 0.77204 0.08114 0.0
C119 C 0.03839 0.74121 0.04937 0.0
C120 C 0.12958 0.78359 0.01523 0.0
O121 O 0.12292 0.75994 0.02625 0.0
O122 O 0.12162 0.80236 0.02146 0.0
C123 C 0.08741 0.68292 0.04966 0.0
O124 O 0.07048 0.68364 0.03413 0.0
C125 C 0.12809 0.79852 0.08681 0.0
Zn126 Zn 0.2977 0.07786 0.2181 0.0
Zn127 Zn 0.35328 0.0888 0.22492 0.0
O128 O 0.32664 0.04171 0.22325 0.0
O129 O 0.27953 0.03301 0.22384 0.0
O130 O 0.39451 0.09465 0.23254 0.0
O131 O 0.30087 0.10627 0.24123 0.0
O132 O 0.34556 0.11176 0.24933 0.0
C133 C 0.29803 0.02311 0.22388 0.0
C134 C 0.3386 0.10726 0.18274 0.0
O135 O 0.35881 0.10884 0.19556 0.0
O136 O 0.31085 0.094 0.18831 0.0
C137 C 0.41118 0.09074 0.21932 0.0
O138 O 0.40175 0.08338 0.19965 0.0
C139 C 0.32419 0.11751 0.25303 0.0
Zn140 Zn 0.21302 0.29198 0.38932 0.0
Zn141 Zn 0.25727 0.35012 0.39099 0.0
O142 O 0.27943 0.32504 0.38928 0.0
O143 O 0.24294 0.27713 0.3918 0.0
O144 O 0.29161 0.39336 0.39476 0.0
O145 O 0.19345 0.29669 0.41554 0.0
O146 O 0.22993 0.3447 0.41697 0.0
C147 C 0.27094 0.29675 0.39032 0.0
C148 C 0.21623 0.32831 0.35235 0.0
O149 O 0.23764 0.35022 0.36262 0.0
O150 O 0.20271 0.30164 0.36015 0.0
C151 C 0.3176 0.4031 0.38625 0.0
O152 O 0.32215 0.38481 0.37396 0.0
C153 C 0.20564 0.32245 0.42454 0.0
Zn154 Zn 0.91859 0.22023 0.55901 0.0
Zn155 Zn 0.90854 0.26647 0.56247 0.0
O156 O 0.95558 0.28628 0.55947 0.0
O157 O 0.96373 0.24752 0.55954 0.0
O158 O 0.90365 0.30319 0.56702 0.0
O159 O 0.89675 0.202 0.58614 0.0
O160 O 0.88723 0.23978 0.589 0.0
C161 C 0.97395 0.27596 0.55892 0.0
C162 C 0.88466 0.22557 0.52369 0.0
O163 O 0.88652 0.24786 0.53431 0.0
O164 O 0.89646 0.21043 0.53082 0.0
C165 C 0.91853 0.32101 0.58218 0.0
O166 O 0.93571 0.31438 0.59411 0.0
C167 C 0.88494 0.21516 0.59614 0.0
H168 H 0.0541 0.62728 0.03071 0.0
H169 H 0.05428 0.58025 0.03889 0.0
H170 H 0.1219 0.62703 0.08744 0.0
H171 H 0.12204 0.67435 0.07926 0.0
H172 H 0.13528 0.59061 0.06312 0.0
H173 H 0.04946 0.58066 0.10145 0.0
H174 H 0.00134 0.58094 0.10651 0.0
H175 H 0.957 0.50851 0.06117 0.0
H176 H 0.00499 0.5081 0.0556 0.0
H177 H 0.11623 0.45267 0.10913 0.0
H178 H 0.11892 0.50192 0.10401 0.0
H179 H 0.0516 0.46298 0.05433 0.0
H180 H 0.04864 0.41381 0.05938 0.0
H181 H 0.03908 0.49656 0.08179 0.0
H182 H 0.12573 0.50838 0.04234 0.0
H183 H 0.17393 0.50825 0.03731 0.0
H184 H 0.21671 0.5772 0.08519 0.0
H185 H 0.1686 0.57743 0.09071 0.0
C186 C 0.06906 0.62763 0.04311 0.0
C187 C 0.08798 0.65456 0.05438 0.0
C188 C 0.06904 0.60068 0.04783 0.0
C189 C 0.08785 0.60006 0.06394 0.0
C190 C 0.10716 0.627 0.07498 0.0
C191 C 0.10713 0.65399 0.07032 0.0
C192 C 0.08727 0.57121 0.06919 0.0
C193 C 0.11435 0.57016 0.06754 0.0
C194 C 0.05986 0.54443 0.07463 0.0
C195 C 0.03091 0.54455 0.07796 0.0
C196 C 0.02952 0.56496 0.09242 0.0
C197 C 0.00225 0.56511 0.09541 0.0
C198 C 0.97615 0.54481 0.08413 0.0
C199 C 0.97725 0.52425 0.06988 0.0
C200 C 0.00447 0.52403 0.06681 0.0
C201 C 0.10205 0.45462 0.09709 0.0
C202 C 0.08226 0.42932 0.08463 0.0
C203 C 0.10368 0.48279 0.09415 0.0
C204 C 0.08559 0.48614 0.0787 0.0
C205 C 0.06574 0.46089 0.06635 0.0
C206 C 0.06418 0.43281 0.06922 0.0
C207 C 0.087 0.51583 0.07543 0.0
C208 C 0.06005 0.51705 0.0775 0.0
C209 C 0.11453 0.54275 0.07041 0.0
C210 C 0.14347 0.54267 0.0671 0.0
C211 C 0.14534 0.52332 0.05193 0.0
C212 C 0.17266 0.52327 0.04896 0.0
C213 C 0.19834 0.54264 0.06097 0.0
C214 C 0.19678 0.56217 0.07593 0.0
C215 C 0.1695 0.56228 0.07897 0.0
H216 H 0.21948 0.54257 0.05865 0.0
H217 H 0.95506 0.54495 0.08647 0.0
H218 H 0.64222 0.09561 0.31088 0.0
H219 H 0.59654 0.09701 0.30016 0.0
H220 H 0.619 0.09526 0.23438 0.0
H221 H 0.66503 0.0946 0.24494 0.0
H222 H 0.60037 0.13488 0.23977 0.0
H223 H 0.56353 0.03094 0.26002 0.0
H224 H 0.55651 0.98906 0.28359 0.0
H225 H 0.51246 0.01642 0.32966 0.0
H226 H 0.51959 0.05874 0.30647 0.0
H227 H 0.45444 0.08829 0.19475 0.0
H228 H 0.50167 0.09081 0.20651 0.0
H229 H 0.48093 0.10107 0.27127 0.0
H230 H 0.43365 0.09853 0.25968 0.0
H231 H 0.49861 0.05804 0.267 0.0
H232 H 0.5345 0.16143 0.24531 0.0
H233 H 0.54089 0.20208 0.22074 0.0
H234 H 0.58606 0.17404 0.17609 0.0
H235 H 0.57956 0.13292 0.20028 0.0
C236 C 0.63748 0.09559 0.29413 0.0
C237 C 0.65722 0.09487 0.27877 0.0
C238 C 0.61127 0.09625 0.28802 0.0
C239 C 0.60409 0.09582 0.26645 0.0
C240 C 0.62403 0.09559 0.25111 0.0
C241 C 0.65032 0.09513 0.25719 0.0
C242 C 0.57578 0.0955 0.25982 0.0
C243 C 0.57809 0.11785 0.24554 0.0
C244 C 0.54673 0.07364 0.26764 0.0
C245 C 0.54239 0.0482 0.28161 0.0
C246 C 0.55257 0.02818 0.27525 0.0
C247 C 0.54853 0.00433 0.28853 0.0
C248 C 0.53413 0.00014 0.30814 0.0
C249 C 0.52366 0.01973 0.31449 0.0
C250 C 0.52767 0.04364 0.30128 0.0
C251 C 0.45997 0.09121 0.21148 0.0
C252 C 0.44028 0.09324 0.22627 0.0
C253 C 0.48702 0.09275 0.21817 0.0
C254 C 0.49488 0.09632 0.23975 0.0
C255 C 0.47528 0.09832 0.25454 0.0
C256 C 0.44833 0.09697 0.24787 0.0
C257 C 0.52325 0.09734 0.24695 0.0
C258 C 0.52092 0.0751 0.26131 0.0
C259 C 0.55224 0.11913 0.23907 0.0
C260 C 0.55628 0.14391 0.22453 0.0
C261 C 0.54557 0.16377 0.23018 0.0
C262 C 0.54926 0.18692 0.21634 0.0
C263 C 0.5638 0.19059 0.19684 0.0
C264 C 0.57476 0.17115 0.19118 0.0
C265 C 0.57111 0.14793 0.20497 0.0
H266 H 0.56663 0.20853 0.18614 0.0
H267 H 0.53101 0.98166 0.31839 0.0
H268 H 0.57252 0.64273 0.42442 0.0
H269 H 0.52716 0.59499 0.41459 0.0
H270 H 0.47005 0.62702 0.44159 0.0
H271 H 0.51546 0.67506 0.45155 0.0
H272 H 0.45181 0.56682 0.45251 0.0
H273 H 0.47714 0.62813 0.38969 0.0
H274 H 0.51098 0.66108 0.36126 0.0
H275 H 0.52637 0.58908 0.34067 0.0
H276 H 0.49297 0.55583 0.3692 0.0
H277 H 0.31488 0.44841 0.40806 0.0
H278 H 0.35718 0.49866 0.41751 0.0
H279 H 0.41995 0.47784 0.38567 0.0
H280 H 0.3777 0.42788 0.37567 0.0
H281 H 0.43386 0.53418 0.37717 0.0
H282 H 0.4115 0.47381 0.44048 0.0
H283 H 0.37896 0.44046 0.46925 0.0
H284 H 0.35932 0.50985 0.4893 0.0
H285 H 0.39145 0.54348 0.46045 0.0
C286 C 0.55035 0.63966 0.42836 0.0
C287 C 0.54761 0.66279 0.43869 0.0
C288 C 0.52444 0.61238 0.42264 0.0
C289 C 0.49527 0.60764 0.42714 0.0
C290 C 0.49239 0.63032 0.43791 0.0
C291 C 0.51835 0.65776 0.44354 0.0
C292 C 0.46786 0.57901 0.42044 0.0
C293 C 0.44756 0.55986 0.43601 0.0
C294 C 0.46279 0.5697 0.39896 0.0
C295 C 0.48275 0.58958 0.3817 0.0
C296 C 0.48793 0.6194 0.37921 0.0
C297 C 0.507 0.63812 0.36306 0.0
C298 C 0.52087 0.6272 0.3492 0.0
C299 C 0.51564 0.59751 0.35143 0.0
C300 C 0.49661 0.57871 0.36758 0.0
C301 C 0.33768 0.45457 0.40298 0.0
C302 C 0.34294 0.43407 0.3912 0.0
C303 C 0.36186 0.48326 0.40849 0.0
C304 C 0.39183 0.49185 0.40261 0.0
C305 C 0.39704 0.4717 0.39043 0.0
C306 C 0.37284 0.4431 0.38476 0.0
C307 C 0.41785 0.52171 0.40927 0.0
C308 C 0.43793 0.54114 0.39367 0.0
C309 C 0.42284 0.53116 0.43076 0.0
C310 C 0.40361 0.51103 0.44817 0.0
C311 C 0.40005 0.48186 0.45092 0.0
C312 C 0.38172 0.46293 0.46726 0.0
C313 C 0.36701 0.47299 0.48106 0.0
C314 C 0.37068 0.50206 0.47858 0.0
C315 C 0.38897 0.52108 0.46225 0.0
H316 H 0.35282 0.4583 0.4937 0.0
H317 H 0.53563 0.64173 0.3367 0.0
H318 H 0.95197 0.57902 0.64052 0.0
H319 H 0.95011 0.53062 0.6338 0.0
H320 H 0.88321 0.50964 0.58468 0.0
H321 H 0.88466 0.5579 0.59144 0.0
H322 H 0.86846 0.46037 0.60937 0.0
H323 H 0.95646 0.53478 0.57173 0.0
H324 H 0.0055 0.5824 0.56722 0.0
H325 H 0.04669 0.55244 0.61377 0.0
H326 H 0.99775 0.50479 0.61878 0.0
H327 H 0.88389 0.34078 0.5616 0.0
H328 H 0.88281 0.38791 0.56797 0.0
H329 H 0.94907 0.41196 0.61798 0.0
H330 H 0.95047 0.36512 0.61165 0.0
H331 H 0.96355 0.45965 0.59176 0.0
H332 H 0.87497 0.38537 0.62963 0.0
H333 H 0.82585 0.33775 0.63384 0.0
H334 H 0.78571 0.36742 0.58629 0.0
H335 H 0.83475 0.41507 0.58158 0.0
C336 C 0.93676 0.56409 0.62833 0.0
C337 C 0.91857 0.57241 0.61645 0.0
C338 C 0.93582 0.53647 0.62446 0.0
C339 C 0.91681 0.5167 0.60855 0.0
C340 C 0.8981 0.52459 0.597 0.0
C341 C 0.89902 0.55223 0.60085 0.0
C342 C 0.91674 0.48796 0.60385 0.0
C343 C 0.88917 0.46022 0.60523 0.0
C344 C 0.94386 0.48775 0.5988 0.0
C345 C 0.97335 0.51635 0.59578 0.0
C346 C 0.97591 0.53845 0.58113 0.0
C347 C 0.0037 0.56543 0.57846 0.0
C348 C 0.02917 0.57048 0.59024 0.0
C349 C 0.02693 0.54852 0.60468 0.0
C350 C 0.99917 0.52151 0.60743 0.0
C351 C 0.89817 0.35606 0.57399 0.0
C352 C 0.91724 0.34916 0.58614 0.0
C353 C 0.89744 0.38293 0.57766 0.0
C354 C 0.9157 0.40333 0.59356 0.0
C355 C 0.9348 0.39654 0.60564 0.0
C356 C 0.93549 0.36968 0.60203 0.0
C357 C 0.91532 0.43203 0.59745 0.0
C358 C 0.94283 0.45979 0.59587 0.0
C359 C 0.88813 0.43224 0.60226 0.0
C360 C 0.85862 0.40364 0.6051 0.0
C361 C 0.85574 0.38163 0.61994 0.0
C362 C 0.8279 0.35465 0.62244 0.0
C363 C 0.8027 0.34952 0.6103 0.0
C364 C 0.80527 0.37141 0.59566 0.0
C365 C 0.83307 0.39841 0.59308 0.0
H366 H 0.78116 0.32863 0.61226 0.0
H367 H 0.05067 0.59138 0.58814 0.0
H368 H 0.57046 0.90414 0.76173 0.0
H369 H 0.52381 0.90387 0.77186 0.0
H370 H 0.50758 0.91609 0.70638 0.0
H371 H 0.55468 0.9172 0.69618 0.0
H372 H 0.49796 0.95261 0.73076 0.0
H373 H 0.46692 0.84623 0.73202 0.0
H374 H 0.46985 0.8008 0.74235 0.0
H375 H 0.4594 0.81698 0.80783 0.0
H376 H 0.45681 0.86276 0.79791 0.0
H377 H 0.34304 0.91256 0.73902 0.0
H378 H 0.39024 0.91297 0.73054 0.0
H379 H 0.40733 0.90921 0.79716 0.0
H380 H 0.35992 0.90865 0.80585 0.0
H381 H 0.41684 0.869 0.77329 0.0
H382 H 0.44656 0.97498 0.7714 0.0
H383 H 0.44282 0.01975 0.76051 0.0
H384 H 0.4549 0.00342 0.69538 0.0
H385 H 0.45827 0.95827 0.70585 0.0
C386 C 0.55691 0.90665 0.74946 0.0
C387 C 0.56624 0.91062 0.72813 0.0
C388 C 0.53016 0.90636 0.75527 0.0
C389 C 0.51196 0.90957 0.73985 0.0
C390 C 0.52125 0.91356 0.71855 0.0
C391 C 0.54814 0.9141 0.71274 0.0
C392 C 0.48357 0.9094 0.74595 0.0
C393 C 0.48005 0.93411 0.73981 0.0
C394 C 0.46052 0.88565 0.75824 0.0
C395 C 0.46198 0.85809 0.76424 0.0
C396 C 0.46549 0.84023 0.74864 0.0
C397 C 0.46704 0.81439 0.75442 0.0
C398 C 0.4649 0.80605 0.77574 0.0
C399 C 0.4611 0.82349 0.79132 0.0
C400 C 0.45956 0.84936 0.78563 0.0
C401 C 0.3568 0.91183 0.75191 0.0
C402 C 0.34775 0.91066 0.77314 0.0
C403 C 0.38384 0.91218 0.74702 0.0
C404 C 0.40241 0.91143 0.76323 0.0
C405 C 0.39332 0.90987 0.78442 0.0
C406 C 0.36629 0.90965 0.78936 0.0
C407 C 0.43122 0.91206 0.75795 0.0
C408 C 0.43481 0.88749 0.76427 0.0
C409 C 0.45427 0.93584 0.74573 0.0
C410 C 0.45239 0.96307 0.7394 0.0
C411 C 0.44817 0.98079 0.75474 0.0
C412 C 0.44616 0.00626 0.74864 0.0
C413 C 0.44854 0.01438 0.72726 0.0
C414 C 0.45302 0.99709 0.71193 0.0
C415 C 0.45501 0.97157 0.71794 0.0
H416 H 0.44698 0.03412 0.72258 0.0
H417 H 0.46611 0.78604 0.78018 0.0
H418 H 0.4538 0.33351 0.94189 0.0
H419 H 0.50273 0.37997 0.93606 0.0
H420 H 0.46163 0.40856 0.88804 0.0
H421 H 0.41286 0.36199 0.89348 0.0
H422 H 0.51552 0.41774 0.87504 0.0
H423 H 0.4766 0.43949 0.93829 0.0
H424 H 0.4562 0.43028 0.97471 0.0
H425 H 0.53768 0.43395 0.99786 0.0
H426 H 0.55842 0.44278 0.96151 0.0
H427 H 0.62612 0.57433 0.86723 0.0
H428 H 0.5799 0.52535 0.87289 0.0
H429 H 0.62613 0.50223 0.9205 0.0
H430 H 0.67236 0.55154 0.91524 0.0
H431 H 0.57115 0.48895 0.934 0.0
H432 H 0.61103 0.46949 0.87077 0.0
H433 H 0.63137 0.47905 0.83432 0.0
H434 H 0.5481 0.47126 0.81106 0.0
H435 H 0.52741 0.46205 0.84741 0.0
C436 C 0.45517 0.34969 0.93009 0.0
C437 C 0.42939 0.34407 0.91819 0.0
C438 C 0.48314 0.3763 0.92683 0.0
C439 C 0.48579 0.39793 0.91177 0.0
C440 C 0.46014 0.39221 0.89974 0.0
C441 C 0.43223 0.36559 0.90293 0.0
C442 C 0.51523 0.42652 0.90843 0.0
C443 C 0.52752 0.43347 0.88789 0.0
C444 C 0.53131 0.44668 0.92529 0.0
C445 C 0.51892 0.44147 0.94715 0.0
C446 C 0.49007 0.43809 0.95112 0.0
C447 C 0.47846 0.43299 0.97176 0.0
C448 C 0.4956 0.43144 0.98858 0.0
C449 C 0.52442 0.4351 0.98481 0.0
C450 C 0.53612 0.44018 0.9642 0.0
C451 C 0.62656 0.55878 0.87882 0.0
C452 C 0.65298 0.56684 0.89075 0.0
C453 C 0.60012 0.5307 0.88198 0.0
C454 C 0.59963 0.50992 0.89694 0.0
C455 C 0.62599 0.51788 0.90885 0.0
C456 C 0.65242 0.54604 0.90577 0.0
C457 C 0.57134 0.48029 0.90057 0.0
C458 C 0.55926 0.47314 0.92116 0.0
C459 C 0.55544 0.45995 0.88375 0.0
C460 C 0.56777 0.46533 0.86185 0.0
C461 C 0.59714 0.47003 0.8579 0.0
C462 C 0.60872 0.47535 0.83725 0.0
C463 C 0.59107 0.47583 0.82039 0.0
C464 C 0.56176 0.47091 0.82414 0.0
C465 C 0.55008 0.4656 0.84476 0.0
H466 H 0.60008 0.47996 0.80442 0.0
H467 H 0.48657 0.42749 0.00455 0.0
H468 H 0.16541 0.37488 0.06031 0.0
H469 H 0.20143 0.37587 0.03378 0.0
H470 H 0.1337 0.28608 0.01263 0.0
H471 H 0.09836 0.28464 0.03943 0.0
H472 H 0.18357 0.28661 0.0239 0.0
H473 H 0.15999 0.35149 0.98134 0.0
H474 H 0.15557 0.39698 0.97412 0.0
H475 H 0.25143 0.45467 0.9854 0.0
H476 H 0.25634 0.40951 0.99296 0.0
H477 H 0.23944 0.25186 0.93726 0.0
H478 H 0.21239 0.27509 0.95358 0.0
H479 H 0.29638 0.34513 0.98097 0.0
H480 H 0.32391 0.32198 0.96447 0.0
H481 H 0.24508 0.36099 0.96791 0.0
H482 H 0.26749 0.29541 0.01168 0.0
H483 H 0.27141 0.24933 0.01751 0.0
H484 H 0.17616 0.19286 0.00352 0.0
H485 H 0.17184 0.23866 0.99725 0.0
C486 C 0.15804 0.35577 0.04956 0.0
C487 C 0.12929 0.32953 0.05202 0.0
C488 C 0.1786 0.35635 0.03441 0.0
C489 C 0.17036 0.33092 0.02132 0.0
C490 C 0.14071 0.30583 0.0227 0.0
C491 C 0.12049 0.30503 0.03798 0.0
C492 C 0.19324 0.32831 0.00812 0.0
C493 C 0.19677 0.30287 0.01159 0.0
C494 C 0.2114 0.35002 0.99255 0.0
C495 C 0.20846 0.37714 0.98795 0.0
C496 C 0.18007 0.37389 0.98246 0.0
C497 C 0.17749 0.39961 0.97827 0.0
C498 C 0.20319 0.4287 0.97936 0.0
C499 C 0.23154 0.43212 0.98459 0.0
C500 C 0.23424 0.40647 0.98881 0.0
C501 C 0.2524 0.27278 0.94617 0.0
C502 C 0.28369 0.28478 0.94993 0.0
C503 C 0.23692 0.28614 0.95537 0.0
C504 C 0.25237 0.3116 0.96862 0.0
C505 C 0.28414 0.32557 0.97068 0.0
C506 C 0.29979 0.31224 0.96132 0.0
C507 C 0.23433 0.31894 0.98344 0.0
C508 C 0.23193 0.34511 0.98041 0.0
C509 C 0.21706 0.29799 0.99955 0.0
C510 C 0.21942 0.27043 0.00382 0.0
C511 C 0.24745 0.27316 0.0097 0.0
C512 C 0.24973 0.2471 0.0131 0.0
C513 C 0.22406 0.21818 0.01084 0.0
C514 C 0.19603 0.21527 0.00525 0.0
C515 C 0.19365 0.24127 0.00179 0.0
H516 H 0.22587 0.19802 0.01346 0.0
H517 H 0.20114 0.44859 0.97611 0.0
H518 H 0.78087 0.15829 0.22455 0.0
H519 H 0.81146 0.19494 0.19671 0.0
H520 H 0.8723 0.15846 0.19614 0.0
H521 H 0.84238 0.12236 0.22373 0.0
H522 H 0.90278 0.21957 0.20105 0.0
H523 H 0.82217 0.14377 0.15633 0.0
H524 H 0.76886 0.11255 0.14444 0.0
H525 H 0.76457 0.19369 0.13202 0.0
H526 H 0.81777 0.22537 0.1441 0.0
H527 H 0.97124 0.24343 0.09794 0.0
H528 H 0.92222 0.21987 0.11615 0.0
H529 H 0.94809 0.30493 0.14768 0.0
H530 H 0.99722 0.32881 0.12935 0.0
H531 H 0.87081 0.22764 0.12805 0.0
H532 H 0.94486 0.28736 0.19942 0.0
H533 H 0.99931 0.31528 0.20945 0.0
H534 H 0.01704 0.25971 0.16694 0.0
H535 H 0.96267 0.23123 0.15697 0.0
C536 C 0.80052 0.15785 0.21822 0.0
C537 C 0.8094 0.13765 0.22651 0.0
C538 C 0.81796 0.1788 0.20236 0.0
C539 C 0.84432 0.1796 0.19454 0.0
C540 C 0.85227 0.1585 0.20214 0.0
C541 C 0.83506 0.1378 0.21791 0.0
C542 C 0.86498 0.20317 0.17928 0.0
C543 C 0.89558 0.22165 0.18523 0.0
C544 C 0.85569 0.20596 0.15863 0.0
C545 C 0.82378 0.18691 0.15137 0.0
C546 C 0.80976 0.15493 0.15125 0.0
C547 C 0.77959 0.13716 0.14444 0.0
C548 C 0.7633 0.15112 0.13755 0.0
C549 C 0.77719 0.1829 0.13741 0.0
C550 C 0.80734 0.20077 0.14422 0.0
C551 C 0.966 0.25748 0.10806 0.0
C552 C 0.98828 0.28774 0.11261 0.0
C553 C 0.93783 0.24403 0.11833 0.0
C554 C 0.93177 0.26055 0.13349 0.0
C555 C 0.95243 0.29182 0.13604 0.0
C556 C 0.98053 0.30541 0.12558 0.0
C557 C 0.90843 0.24349 0.14986 0.0
C558 C 0.87758 0.22627 0.14415 0.0
C559 C 0.91743 0.24132 0.17073 0.0
C560 C 0.94986 0.25748 0.17729 0.0
C561 C 0.96039 0.28105 0.19233 0.0
C562 C 0.99122 0.29696 0.19799 0.0
C563 C 0.01164 0.28935 0.18878 0.0
C564 C 0.00123 0.26564 0.17403 0.0
C565 C 0.97043 0.24961 0.16838 0.0
H566 H 0.03552 0.30177 0.19308 0.0
H567 H 0.73996 0.13733 0.13228 0.0
H568 H 0.697 0.79487 0.37195 0.0
H569 H 0.69719 0.82625 0.34242 0.0
H570 H 0.62156 0.8301 0.37058 0.0
H571 H 0.62025 0.79704 0.39956 0.0
H572 H 0.62112 0.83593 0.32753 0.0
H573 H 0.69301 0.88247 0.38407 0.0
H574 H 0.73327 0.88849 0.40891 0.0
H575 H 0.79303 0.90213 0.3566 0.0
H576 H 0.75292 0.8957 0.33143 0.0
H577 H 0.67744 0.99551 0.29951 0.0
H578 H 0.65408 0.94363 0.31394 0.0
H579 H 0.72349 0.93126 0.28372 0.0
H580 H 0.74701 0.98288 0.26954 0.0
H581 H 0.72387 0.92822 0.32708 0.0
H582 H 0.65029 0.88635 0.27052 0.0
H583 H 0.60901 0.88246 0.24767 0.0
H584 H 0.55157 0.86406 0.30216 0.0
H585 H 0.59268 0.86827 0.32539 0.0
C586 C 0.67965 0.8014 0.37132 0.0
C587 C 0.65871 0.7938 0.38793 0.0
C588 C 0.67982 0.81941 0.35454 0.0
C589 C 0.65996 0.83125 0.35463 0.0
C590 C 0.63717 0.82134 0.37023 0.0
C591 C 0.63644 0.80251 0.38677 0.0
C592 C 0.6664 0.85747 0.34074 0.0
C593 C 0.64351 0.85621 0.32745 0.0
C594 C 0.69556 0.88405 0.34077 0.0
C595 C 0.71987 0.88831 0.35587 0.0
C596 C 0.71468 0.88657 0.37787 0.0
C597 C 0.73747 0.89006 0.392 0.0
C598 C 0.76566 0.89562 0.38433 0.0
C599 C 0.77116 0.89778 0.36251 0.0
C600 C 0.74841 0.89422 0.34831 0.0
C601 C 0.687 0.98129 0.2953 0.0
C602 C 0.71433 0.99337 0.28372 0.0
C603 C 0.67362 0.95164 0.30354 0.0
C604 C 0.68725 0.93373 0.30005 0.0
C605 C 0.71272 0.94477 0.28669 0.0
C606 C 0.72616 0.9743 0.27863 0.0
C607 C 0.67897 0.90646 0.31326 0.0
C608 C 0.70155 0.90782 0.32681 0.0
C609 C 0.64944 0.88049 0.31368 0.0
C610 C 0.6247 0.87793 0.29973 0.0
C611 C 0.62897 0.88176 0.27767 0.0
C612 C 0.60557 0.87943 0.26463 0.0
C613 C 0.57771 0.8731 0.27346 0.0
C614 C 0.57317 0.869 0.29534 0.0
C615 C 0.59651 0.87132 0.30845 0.0
H616 H 0.55962 0.8713 0.26334 0.0
H617 H 0.78328 0.89831 0.3953 0.0
H618 H 0.67458 0.6721 0.4597 0.0
H619 H 0.70047 0.64586 0.47379 0.0
H620 H 0.78698 0.72908 0.46834 0.0
H621 H 0.76164 0.75497 0.45383 0.0
H622 H 0.79451 0.68241 0.46009 0.0
H623 H 0.74251 0.70829 0.51485 0.0
H624 H 0.69702 0.70492 0.5318 0.0
H625 H 0.65684 0.6078 0.53714 0.0
H626 H 0.70201 0.61061 0.52 0.0
H627 H 0.88721 0.71701 0.54888 0.0
H628 H 0.85233 0.71008 0.52 0.0
H629 H 0.79734 0.61481 0.53584 0.0
H630 H 0.83283 0.62152 0.56477 0.0
H631 H 0.76546 0.64797 0.53441 0.0
H632 H 0.82896 0.62878 0.48973 0.0
H633 H 0.87728 0.63644 0.47484 0.0
H634 H 0.89872 0.72484 0.45203 0.0
H635 H 0.85077 0.71795 0.46705 0.0
C636 C 0.69918 0.68457 0.46107 0.0
C637 C 0.71598 0.71577 0.45596 0.0
C638 C 0.71393 0.66957 0.4692 0.0
C639 C 0.74563 0.68563 0.47249 0.0
C640 C 0.76252 0.71615 0.46599 0.0
C641 C 0.74791 0.73103 0.45781 0.0
C642 C 0.76132 0.67236 0.48469 0.0
C643 C 0.78805 0.67463 0.47629 0.0
C644 C 0.75243 0.66128 0.50562 0.0
C645 C 0.72537 0.6596 0.51591 0.0
C646 C 0.72386 0.68621 0.51952 0.0
C647 C 0.69817 0.68441 0.52918 0.0
C648 C 0.67401 0.65615 0.53547 0.0
C649 C 0.67553 0.62965 0.5322 0.0
C650 C 0.70116 0.63133 0.52251 0.0
C651 C 0.86801 0.69444 0.546 0.0
C652 C 0.86263 0.66983 0.55911 0.0
C653 C 0.8482 0.69046 0.5294 0.0
C654 C 0.82238 0.66189 0.5257 0.0
C655 C 0.8173 0.63697 0.53837 0.0
C656 C 0.83757 0.64083 0.55481 0.0
C657 C 0.79941 0.65959 0.51015 0.0
C658 C 0.77132 0.65447 0.51794 0.0
C659 C 0.80734 0.66855 0.48879 0.0
C660 C 0.83621 0.67283 0.47958 0.0
C661 C 0.84405 0.64994 0.48165 0.0
C662 C 0.87138 0.65414 0.47316 0.0
C663 C 0.89106 0.68111 0.4625 0.0
C664 C 0.88343 0.70394 0.46027 0.0
C665 C 0.85614 0.69986 0.46873 0.0
H666 H 0.91221 0.68432 0.45594 0.0
H667 H 0.65414 0.6548 0.54295 0.0
H668 H 0.01733 0.7695 0.60878 0.0
H669 H 0.07009 0.7936 0.61982 0.0
H670 H 0.06108 0.70531 0.63071 0.0
H671 H 0.00732 0.68079 0.62023 0.0
H672 H 0.08266 0.73758 0.66413 0.0
H673 H 0.11394 0.75745 0.59333 0.0
H674 H 0.11498 0.77176 0.55587 0.0
H675 H 0.13991 0.86285 0.57447 0.0
H676 H 0.13856 0.84903 0.61207 0.0
H677 H 0.22196 0.83846 0.71678 0.0
H678 H 0.19411 0.80409 0.68721 0.0
H679 H 0.15296 0.85864 0.6725 0.0
H680 H 0.18006 0.89249 0.70213 0.0
H681 H 0.16802 0.83384 0.63568 0.0
H682 H 0.11727 0.80362 0.7058 0.0
H683 H 0.11608 0.7887 0.74319 0.0
H684 H 0.12949 0.71494 0.72384 0.0
H685 H 0.13115 0.72973 0.68633 0.0
C686 C 0.02663 0.75506 0.61304 0.0
C687 C 0.00794 0.7232 0.6139 0.0
C688 C 0.0571 0.76895 0.61914 0.0
C689 C 0.06986 0.75136 0.62596 0.0
C690 C 0.05181 0.71939 0.62547 0.0
C691 C 0.02109 0.7054 0.61942 0.0
C692 C 0.1001 0.76676 0.63666 0.0
C693 C 0.10174 0.75798 0.65753 0.0
C694 C 0.12518 0.79349 0.62823 0.0
C695 C 0.12613 0.80214 0.60559 0.0
C696 C 0.11948 0.7805 0.58947 0.0
C697 C 0.12014 0.78854 0.56819 0.0
C698 C 0.12751 0.8182 0.56279 0.0
C699 C 0.13426 0.8399 0.57867 0.0
C700 C 0.13363 0.83198 0.59998 0.0
C701 C 0.20763 0.84355 0.70683 0.0
C702 C 0.20287 0.86791 0.71182 0.0
C703 C 0.19177 0.82393 0.68999 0.0
C704 C 0.17144 0.82882 0.67775 0.0
C705 C 0.16867 0.85458 0.68169 0.0
C706 C 0.18399 0.87377 0.6987 0.0
C707 C 0.14947 0.80521 0.66311 0.0
C708 C 0.14942 0.81259 0.6417 0.0
C709 C 0.126 0.77698 0.67088 0.0
C710 C 0.12472 0.76799 0.69335 0.0
C711 C 0.12018 0.78436 0.70956 0.0
C712 C 0.11939 0.77592 0.73075 0.0
C713 C 0.12281 0.75095 0.73589 0.0
C714 C 0.12692 0.73432 0.71984 0.0
C715 C 0.1278 0.74272 0.69862 0.0
H716 H 0.12218 0.74444 0.75231 0.0
H717 H 0.128 0.82437 0.54631 0.0
H718 H 0.32419 0.0064 0.78222 0.0
H719 H 0.35023 0.05877 0.79587 0.0
H720 H 0.26481 0.05826 0.79614 0.0
H721 H 0.23895 0.00663 0.78217 0.0
H722 H 0.30973 0.11312 0.78516 0.0
H723 H 0.2922 0.03828 0.84056 0.0
H724 H 0.29877 0.99762 0.85684 0.0
H725 H 0.39589 0.05675 0.85703 0.0
H726 H 0.38985 0.09764 0.84052 0.0
H727 H 0.28565 0.17684 0.87518 0.0
H728 H 0.28971 0.1484 0.84546 0.0
H729 H 0.38569 0.18654 0.85802 0.0
H730 H 0.38177 0.21561 0.88792 0.0
H731 H 0.35352 0.12325 0.85707 0.0
H732 H 0.36632 0.20298 0.81172 0.0
H733 H 0.35666 0.2426 0.79731 0.0
H734 H 0.26612 0.1741 0.77944 0.0
H735 H 0.27502 0.13407 0.79403 0.0
C736 C 0.3111 0.01769 0.78481 0.0
C737 C 0.2794 0.00216 0.78137 0.0
C738 C 0.326 0.04759 0.79266 0.0
C739 C 0.3094 0.0623 0.79733 0.0
C740 C 0.27815 0.04744 0.79267 0.0
C741 C 0.26332 0.01775 0.7848 0.0
C742 C 0.3233 0.09176 0.80895 0.0
C743 C 0.31951 0.11548 0.80083 0.0
C744 C 0.33701 0.09531 0.82911 0.0
C745 C 0.34061 0.07081 0.83907 0.0
C746 C 0.31495 0.0425 0.84395 0.0
C747 C 0.31857 0.01944 0.85323 0.0
C748 C 0.34773 0.02456 0.85789 0.0
C749 C 0.37332 0.05279 0.85335 0.0
C750 C 0.36982 0.07591 0.84403 0.0
C751 C 0.30779 0.17976 0.87133 0.0
C752 C 0.33336 0.19831 0.8839 0.0
C753 C 0.31014 0.16363 0.85424 0.0
C754 C 0.33805 0.16548 0.84942 0.0
C755 C 0.364 0.18498 0.86139 0.0
C756 C 0.36175 0.20162 0.87839 0.0
C757 C 0.33853 0.14393 0.83371 0.0
C758 C 0.34494 0.12159 0.84107 0.0
C759 C 0.32689 0.14153 0.81297 0.0
C760 C 0.32137 0.16549 0.80402 0.0
C761 C 0.34428 0.19635 0.80483 0.0
C762 C 0.33894 0.2189 0.79661 0.0
C763 C 0.31079 0.21087 0.78746 0.0
C764 C 0.28793 0.18028 0.7865 0.0
C765 C 0.29314 0.15764 0.7947 0.0
H766 H 0.3067 0.22836 0.78112 0.0
H767 H 0.3505 0.00669 0.86508 0.0
H768 H 0.72839 0.75152 0.91404 0.0
H769 H 0.70482 0.77957 0.89955 0.0
H770 H 0.66394 0.71247 0.84973 0.0
H771 H 0.68554 0.68339 0.86523 0.0
H772 H 0.72179 0.80749 0.86641 0.0
H773 H 0.6117 0.71698 0.82148 0.0
H774 H 0.56622 0.6672 0.82887 0.0
H775 H 0.57782 0.68582 0.89568 0.0
H776 H 0.62311 0.73591 0.88871 0.0
H777 H 0.71355 0.85598 0.76706 0.0
H778 H 0.71086 0.82578 0.79773 0.0
H779 H 0.6321 0.82865 0.82058 0.0
H780 H 0.63429 0.85883 0.78937 0.0
H781 H 0.62593 0.77195 0.82595 0.0
H782 H 0.698 0.87288 0.84461 0.0
H783 H 0.7416 0.92482 0.83988 0.0
H784 H 0.80153 0.88853 0.83188 0.0
H785 H 0.75823 0.83632 0.83623 0.0
C786 C 0.71321 0.74215 0.90056 0.0
C787 C 0.70876 0.7154 0.8907 0.0
C788 C 0.69988 0.75826 0.89218 0.0
C789 C 0.68269 0.74845 0.87337 0.0
C790 C 0.67644 0.72041 0.86447 0.0
C791 C 0.68897 0.70377 0.87328 0.0
C792 C 0.67632 0.76981 0.86107 0.0
C793 C 0.70053 0.79967 0.85794 0.0
C794 C 0.64841 0.76025 0.85027 0.0
C795 C 0.62094 0.73022 0.85455 0.0
C796 C 0.60445 0.71058 0.83775 0.0
C797 C 0.57872 0.68226 0.84187 0.0
C798 C 0.56917 0.67333 0.86273 0.0
C799 C 0.58529 0.69273 0.87953 0.0
C800 C 0.61103 0.72108 0.8755 0.0
C801 C 0.69559 0.85029 0.77854 0.0
C802 C 0.67431 0.86013 0.77584 0.0
C803 C 0.69413 0.83302 0.79613 0.0
C804 C 0.67164 0.82544 0.81164 0.0
C805 C 0.64976 0.83443 0.80883 0.0
C806 C 0.65111 0.85172 0.79105 0.0
C807 C 0.67187 0.8085 0.83076 0.0
C808 C 0.64668 0.77968 0.83504 0.0
C809 C 0.69852 0.81925 0.84319 0.0
C810 C 0.7248 0.85064 0.8407 0.0
C811 C 0.72045 0.87595 0.84173 0.0
C812 C 0.74512 0.90545 0.83912 0.0
C813 C 0.77431 0.90997 0.83557 0.0
C814 C 0.7789 0.88499 0.83465 0.0
C815 C 0.75431 0.85544 0.83723 0.0
H816 H 0.79338 0.93283 0.83355 0.0
H817 H 0.54926 0.65139 0.86588 0.0
H818 H 0.82312 0.71568 0.96274 0.0
H819 H 0.85374 0.71091 0.99064 0.0
H820 H 0.81693 0.61596 0.97497 0.0
H821 H 0.78577 0.62059 0.9469 0.0
H822 H 0.84448 0.67458 0.02645 0.0
H823 H 0.88054 0.60596 0.9756 0.0
H824 H 0.8805 0.59146 0.9382 0.0
H825 H 0.88893 0.67622 0.91775 0.0
H826 H 0.88938 0.69131 0.95501 0.0
H827 H 0.00335 0.67958 0.04214 0.0
H828 H 0.94965 0.65171 0.03125 0.0
H829 H 0.945 0.7341 0.03768 0.0
H830 H 0.99797 0.7617 0.04878 0.0
H831 H 0.9283 0.66262 0.99621 0.0
H832 H 0.87654 0.722 0.04776 0.0
H833 H 0.87808 0.73774 0.08493 0.0
H834 H 0.90295 0.67214 0.10513 0.0
H835 H 0.90111 0.65564 0.06813 0.0
C836 C 0.821 0.69359 0.96552 0.0
C837 C 0.80233 0.66859 0.95252 0.0
C838 C 0.83837 0.69084 0.98158 0.0
C839 C 0.8378 0.66317 0.98476 0.0
C840 C 0.81772 0.63755 0.97271 0.0
C841 C 0.79992 0.6402 0.95674 0.0
C842 C 0.86121 0.66291 0.99874 0.0
C843 C 0.86273 0.67171 0.02 0.0
C844 C 0.88442 0.65811 0.99045 0.0
C845 C 0.88455 0.64951 0.96803 0.0
C846 C 0.88241 0.62147 0.9631 0.0
C847 C 0.88234 0.61317 0.94194 0.0
C848 C 0.88458 0.63285 0.92561 0.0
C849 C 0.88706 0.66094 0.93041 0.0
C850 C 0.88721 0.66937 0.95153 0.0
C851 C 0.99059 0.69151 0.04176 0.0
C852 C 0.00499 0.72292 0.04618 0.0
C853 C 0.95994 0.67557 0.03548 0.0
C854 C 0.94313 0.69069 0.03381 0.0
C855 C 0.95716 0.72168 0.03926 0.0
C856 C 0.98765 0.73757 0.04543 0.0
C857 C 0.91246 0.67579 0.0238 0.0
C858 C 0.90957 0.66425 0.00316 0.0
C859 C 0.888 0.67803 0.03273 0.0
C860 C 0.88875 0.68762 0.0551 0.0
C861 C 0.8821 0.71073 0.06013 0.0
C862 C 0.88309 0.71985 0.08118 0.0
C863 C 0.89064 0.70598 0.09737 0.0
C864 C 0.89717 0.68292 0.09256 0.0
C865 C 0.8962 0.67371 0.07154 0.0
H866 H 0.89142 0.71308 0.11366 0.0
H867 H 0.88448 0.62637 0.90924 0.0
H868 H 0.24965 0.97613 0.24375 0.0
H869 H 0.22133 0.92326 0.23153 0.0
H870 H 0.28838 0.94468 0.18229 0.0
H871 H 0.31778 0.99646 0.19575 0.0
H872 H 0.19301 0.90891 0.19906 0.0
H873 H 0.28394 0.88724 0.15608 0.0
H874 H 0.33319 0.89102 0.16457 0.0
H875 H 0.3134 0.88679 0.23108 0.0
H876 H 0.2638 0.8825 0.22303 0.0
H877 H 0.14998 0.85714 0.09912 0.0
H878 H 0.17756 0.88196 0.13118 0.0
H879 H 0.17321 0.79861 0.15163 0.0
H880 H 0.14569 0.77329 0.11885 0.0
H881 H 0.22909 0.84812 0.15978 0.0
H882 H 0.12808 0.8194 0.17627 0.0
H883 H 0.07627 0.81101 0.17077 0.0
H884 H 0.11245 0.90743 0.16415 0.0
H885 H 0.16454 0.9164 0.16928 0.0
C886 C 0.25895 0.96898 0.23097 0.0
C887 C 0.28582 0.99022 0.22067 0.0
C888 C 0.24269 0.93882 0.22386 0.0
C889 C 0.25238 0.92967 0.20579 0.0
C890 C 0.28051 0.95051 0.19653 0.0
C891 C 0.29734 0.98035 0.20416 0.0
C892 C 0.23081 0.90113 0.19427 0.0
C893 C 0.20094 0.89534 0.1909 0.0
C894 C 0.24034 0.88237 0.18401 0.0
C895 C 0.27009 0.88463 0.18893 0.0
C896 C 0.28993 0.88685 0.17252 0.0
C897 C 0.31797 0.88916 0.17726 0.0
C898 C 0.32643 0.88918 0.19835 0.0
C899 C 0.30685 0.88685 0.21475 0.0
C900 C 0.27878 0.88453 0.2101 0.0
C901 C 0.15471 0.84385 0.11036 0.0
C902 C 0.14529 0.81306 0.10648 0.0
C903 C 0.17046 0.85814 0.12878 0.0
C904 C 0.17687 0.84199 0.14404 0.0
C905 C 0.16825 0.81141 0.14012 0.0
C906 C 0.1525 0.79699 0.12144 0.0
C907 C 0.19268 0.85788 0.16384 0.0
C908 C 0.22121 0.8612 0.16866 0.0
C909 C 0.18162 0.87366 0.1761 0.0
C910 C 0.15028 0.86855 0.17316 0.0
C911 C 0.12502 0.83881 0.17355 0.0
C912 C 0.09559 0.83396 0.17049 0.0
C913 C 0.09107 0.85868 0.16711 0.0
C914 C 0.11598 0.88831 0.1668 0.0
C915 C 0.14547 0.8933 0.16983 0.0
H916 H 0.06827 0.85487 0.16474 0.0
H917 H 0.34816 0.89099 0.20198 0.0
H918 H 0.29002 0.14448 0.25843 0.0
H919 H 0.29192 0.17712 0.28722 0.0
H920 H 0.36449 0.1692 0.3168 0.0
H921 H 0.36331 0.13683 0.28731 0.0
H922 H 0.27927 0.16418 0.3266 0.0
H923 H 0.40637 0.23511 0.34804 0.0
H924 H 0.45682 0.25434 0.3314 0.0
H925 H 0.41886 0.25437 0.27051 0.0
H926 H 0.36832 0.23551 0.28683 0.0
H927 H 0.27235 0.24856 0.40816 0.0
H928 H 0.29529 0.22072 0.39228 0.0
H929 H 0.33804 0.29076 0.34466 0.0
H930 H 0.31667 0.31951 0.36131 0.0
H931 H 0.36945 0.26158 0.34875 0.0
H932 H 0.26367 0.23329 0.33885 0.0
H933 H 0.21176 0.2182 0.35108 0.0
H934 H 0.20446 0.13845 0.38069 0.0
H935 H 0.25656 0.15335 0.36887 0.0
C936 C 0.30648 0.14963 0.271 0.0
C937 C 0.32637 0.13784 0.27064 0.0
C938 C 0.30752 0.16833 0.28751 0.0
C939 C 0.32824 0.17557 0.30426 0.0
C940 C 0.34846 0.16414 0.30396 0.0
C941 C 0.34769 0.14557 0.28716 0.0
C942 C 0.32745 0.19435 0.3221 0.0
C943 C 0.29914 0.18527 0.33159 0.0
C944 C 0.35325 0.22199 0.3286 0.0
C945 C 0.38353 0.23351 0.31862 0.0
C946 C 0.40883 0.23927 0.3311 0.0
C947 C 0.43743 0.25011 0.32173 0.0
C948 C 0.44102 0.25545 0.2999 0.0
C949 C 0.41603 0.25009 0.2874 0.0
C950 C 0.3874 0.23928 0.2967 0.0
C951 C 0.28787 0.25868 0.39494 0.0
C952 C 0.29243 0.28589 0.38574 0.0
C953 C 0.30087 0.24273 0.38581 0.0
C954 C 0.31746 0.25311 0.36683 0.0
C955 C 0.32513 0.28215 0.35919 0.0
C956 C 0.31286 0.29858 0.36872 0.0
C957 C 0.32115 0.23161 0.35278 0.0
C958 C 0.34985 0.24007 0.3441 0.0
C959 C 0.29549 0.20381 0.34632 0.0
C960 C 0.26407 0.1946 0.35321 0.0
C961 C 0.25102 0.21261 0.34806 0.0
C962 C 0.22159 0.2041 0.35492 0.0
C963 C 0.20485 0.17742 0.36671 0.0
C964 C 0.21749 0.15915 0.37161 0.0
C965 C 0.24696 0.16761 0.36484 0.0
H966 H 0.18207 0.17086 0.37201 0.0
H967 H 0.46317 0.26383 0.29267 0.0
H968 H 0.20895 0.37521 0.43894 0.0
H969 H 0.17687 0.37955 0.46633 0.0
H970 H 0.13608 0.28334 0.47941 0.0
H971 H 0.16717 0.27876 0.45182 0.0
H972 H 0.09374 0.29699 0.47227 0.0
H973 H 0.18595 0.34027 0.51431 0.0
H974 H 0.2398 0.37706 0.52225 0.0
H975 H 0.22077 0.45065 0.51991 0.0
H976 H 0.16685 0.4143 0.51168 0.0
H977 H 0.02016 0.26483 0.5669 0.0
H978 H 0.06938 0.28864 0.54905 0.0
H979 H 0.05097 0.35571 0.52165 0.0
H980 H 0.00133 0.33189 0.53952 0.0
H981 H 0.12381 0.36533 0.53495 0.0
H982 H 0.03134 0.31898 0.48739 0.0
H983 H 0.97731 0.27959 0.48269 0.0
H984 H 0.9987 0.20979 0.49809 0.0
H985 H 0.05279 0.24889 0.50313 0.0
C986 C 0.1935 0.35515 0.44796 0.0
C987 C 0.19028 0.32658 0.44311 0.0
C988 C 0.17523 0.35766 0.46362 0.0
C989 C 0.15392 0.33172 0.47485 0.0
C990 C 0.15209 0.3036 0.47079 0.0
C991 C 0.16992 0.30102 0.45504 0.0
C992 C 0.13154 0.33275 0.48953 0.0
C993 C 0.10054 0.31215 0.48586 0.0
C994 C 0.1401 0.35282 0.50712 0.0
C995 C 0.17246 0.37461 0.51214 0.0
C996 C 0.19331 0.36432 0.51531 0.0
C997 C 0.22383 0.38509 0.5199 0.0
C998 C 0.23372 0.41618 0.52151 0.0
C999 C 0.21309 0.42656 0.51861 0.0
C1000 C 0.18254 0.40589 0.514 0.0
C1001 C 0.02705 0.2854 0.55779 0.0
C1002 C 0.00664 0.29612 0.55422 0.0
C1003 C 0.05533 0.29914 0.54776 0.0
C1004 C 0.06362 0.32375 0.53398 0.0
C1005 C 0.04498 0.33685 0.5324 0.0
C1006 C 0.01658 0.32313 0.54255 0.0
C1007 C 0.0866 0.32955 0.51752 0.0
C1008 C 0.11739 0.35102 0.52093 0.0
C1009 C 0.0781 0.31032 0.4996 0.0
C1010 C 0.04594 0.28678 0.49571 0.0
C1011 C 0.02445 0.29522 0.48979 0.0
C1012 C 0.99384 0.27297 0.48709 0.0
C1013 C 0.98456 0.24221 0.49012 0.0
C1014 C 0.00591 0.23363 0.49576 0.0
C1015 C 0.03653 0.25581 0.49851 0.0
H1016 H 0.96085 0.22502 0.48809 0.0
H1017 H 0.25736 0.43222 0.52506 0.0
H1018 H 0.83253 0.21247 0.6106 0.0
H1019 H 0.7991 0.17899 0.63888 0.0
H1020 H 0.86553 0.15211 0.65369 0.0
H1021 H 0.89814 0.18441 0.62521 0.0
H1022 H 0.81272 0.1043 0.64531 0.0
H1023 H 0.84774 0.19522 0.68791 0.0
H1024 H 0.8563 0.24657 0.69594 0.0
H1025 H 0.76006 0.21305 0.69211 0.0
H1026 H 0.75095 0.16156 0.68377 0.0
H1027 H 0.76663 0.01637 0.733 0.0
H1028 H 0.79309 0.06722 0.71747 0.0
H1029 H 0.70757 0.056 0.69539 0.0
H1030 H 0.68067 0.00483 0.71103 0.0
H1031 H 0.76329 0.1232 0.70683 0.0
H1032 H 0.72945 0.03299 0.66199 0.0
H1033 H 0.72146 0.98141 0.65567 0.0
H1034 H 0.81718 0.01509 0.66418 0.0
H1035 H 0.8256 0.06676 0.67096 0.0
C1036 C 0.84019 0.19994 0.6203 0.0
C1037 C 0.86767 0.20065 0.61562 0.0
C1038 C 0.82114 0.18087 0.63644 0.0
C1039 C 0.82971 0.16284 0.6483 0.0
C1040 C 0.85827 0.16553 0.64461 0.0
C1041 C 0.87692 0.18402 0.62835 0.0
C1042 C 0.80796 0.1384 0.66269 0.0
C1043 C 0.80215 0.10868 0.65879 0.0
C1044 C 0.79323 0.14371 0.67991 0.0
C1045 C 0.7987 0.17462 0.68498 0.0
C1046 C 0.82842 0.19886 0.6886 0.0
C1047 C 0.83337 0.22798 0.69324 0.0
C1048 C 0.80875 0.2331 0.69447 0.0
C1049 C 0.77911 0.20907 0.69112 0.0
C1050 C 0.77405 0.17991 0.68645 0.0
C1051 C 0.75326 0.02511 0.72557 0.0
C1052 C 0.72166 0.00637 0.72281 0.0
C1053 C 0.76842 0.05429 0.71685 0.0
C1054 C 0.75228 0.06513 0.70512 0.0
C1055 C 0.72035 0.04802 0.70451 0.0
C1056 C 0.70505 0.01873 0.71337 0.0
C1057 C 0.76917 0.08982 0.6896 0.0
C1058 C 0.7738 0.11918 0.69317 0.0
C1059 C 0.78293 0.08442 0.67193 0.0
C1060 C 0.77809 0.05363 0.66715 0.0
C1061 C 0.74875 0.02933 0.66264 0.0
C1062 C 0.74414 0.0001 0.65898 0.0
C1063 C 0.76879 0.99497 0.65957 0.0
C1064 C 0.79811 0.01909 0.66374 0.0
C1065 C 0.80281 0.04835 0.66749 0.0
H1066 H 0.76517 0.97231 0.65675 0.0
H1067 H 0.81262 0.25566 0.69807 0.0
H1068 H 0.18273 0.28537 0.32271 0.0
H1069 H 0.16987 0.29334 0.28691 0.0
H1070 H 0.21697 0.39044 0.29744 0.0
H1071 H 0.23047 0.38273 0.33345 0.0
H1072 H 0.15573 0.36337 0.27779 0.0
H1073 H 0.2522 0.36899 0.26863 0.0
H1074 H 0.28984 0.35215 0.27331 0.0
H1075 H 0.23014 0.26796 0.24159 0.0
H1076 H 0.19191 0.28409 0.237 0.0
H1077 H 0.1369 0.38288 0.16699 0.0
H1078 H 0.15987 0.38942 0.20221 0.0
H1079 H 0.13644 0.29498 0.20215 0.0
H1080 H 0.11401 0.28837 0.16706 0.0
H1081 H 0.19274 0.32978 0.21633 0.0
H1082 H 0.09407 0.31939 0.23013 0.0
H1083 H 0.05368 0.33283 0.22696 0.0
H1084 H 0.11496 0.42278 0.25038 0.0
H1085 H 0.15578 0.40988 0.25366 0.0
C1086 C 0.19031 0.30845 0.31751 0.0
C1087 C 0.20768 0.33344 0.33093 0.0
C1088 C 0.183 0.31295 0.29702 0.0
C1089 C 0.19265 0.34246 0.28955 0.0
C1090 C 0.2094 0.36749 0.30297 0.0
C1091 C 0.21714 0.36304 0.32347 0.0
C1092 C 0.18526 0.3467 0.26755 0.0
C1093 C 0.16431 0.35672 0.26426 0.0
C1094 C 0.19605 0.3374 0.25004 0.0
C1095 C 0.21909 0.32768 0.25261 0.0
C1096 C 0.24698 0.34678 0.2628 0.0
C1097 C 0.26845 0.33738 0.26541 0.0
C1098 C 0.26236 0.30898 0.25779 0.0
C1099 C 0.23482 0.28995 0.24749 0.0
C1100 C 0.21326 0.29923 0.24486 0.0
C1101 C 0.13678 0.36356 0.17445 0.0
C1102 C 0.12358 0.33509 0.16418 0.0
C1103 C 0.14979 0.3673 0.19462 0.0
C1104 C 0.14967 0.34262 0.20489 0.0
C1105 C 0.13688 0.31437 0.19452 0.0
C1106 C 0.12397 0.31063 0.17444 0.0
C1107 C 0.16255 0.34575 0.22651 0.0
C1108 C 0.18456 0.33705 0.22975 0.0
C1109 C 0.15247 0.35596 0.24398 0.0
C1110 C 0.12806 0.36381 0.24188 0.0
C1111 C 0.099 0.34212 0.23443 0.0
C1112 C 0.07602 0.34961 0.23265 0.0
C1113 C 0.0818 0.37869 0.23833 0.0
C1114 C 0.11054 0.40029 0.24592 0.0
C1115 C 0.13359 0.39289 0.24778 0.0
H1116 H 0.06397 0.38444 0.23694 0.0
H1117 H 0.27901 0.30174 0.25983 0.0
H1118 H 0.84571 0.24265 0.506 0.0
H1119 H 0.82372 0.23076 0.47008 0.0
H1120 H 0.87024 0.1807 0.45752 0.0
H1121 H 0.89175 0.19191 0.4931 0.0
H1122 H 0.87785 0.22512 0.42581 0.0
H1123 H 0.799 0.1421 0.46821 0.0
H1124 H 0.76063 0.12184 0.49678 0.0
H1125 H 0.71434 0.16474 0.46875 0.0
H1126 H 0.75272 0.18561 0.44016 0.0
H1127 H 0.82395 0.12203 0.34403 0.0
H1128 H 0.8377 0.14792 0.37799 0.0
H1129 H 0.76771 0.17206 0.37083 0.0
H1130 H 0.7532 0.14538 0.33652 0.0
H1131 H 0.76874 0.15248 0.41097 0.0
H1132 H 0.84115 0.22676 0.36474 0.0
H1133 H 0.879 0.2474 0.3359 0.0
H1134 H 0.9375 0.22414 0.37054 0.0
H1135 H 0.89982 0.20292 0.39946 0.0
C1136 C 0.85109 0.229 0.49557 0.0
C1137 C 0.87037 0.21812 0.50242 0.0
C1138 C 0.83852 0.22224 0.47513 0.0
C1139 C 0.84546 0.20492 0.46121 0.0
C1140 C 0.8647 0.19416 0.46803 0.0
C1141 C 0.87683 0.20047 0.48844 0.0
C1142 C 0.83322 0.19791 0.43935 0.0
C1143 C 0.854 0.20932 0.4225 0.0
C1144 C 0.80192 0.17831 0.43507 0.0
C1145 C 0.77894 0.16576 0.45224 0.0
C1146 C 0.78082 0.14748 0.46827 0.0
C1147 C 0.75903 0.13582 0.48443 0.0
C1148 C 0.73513 0.1421 0.48463 0.0
C1149 C 0.73291 0.15997 0.46861 0.0
C1150 C 0.75466 0.17171 0.45243 0.0
C1151 C 0.81142 0.13287 0.34952 0.0
C1152 C 0.78759 0.1318 0.33742 0.0
C1153 C 0.81945 0.14784 0.36897 0.0
C1154 C 0.80419 0.1625 0.37676 0.0
C1155 C 0.77996 0.16111 0.365 0.0
C1156 C 0.77176 0.14592 0.34541 0.0
C1157 C 0.81367 0.17858 0.39745 0.0
C1158 C 0.79246 0.16899 0.4141 0.0
C1159 C 0.8446 0.20019 0.40156 0.0
C1160 C 0.86756 0.21315 0.38427 0.0
C1161 C 0.862 0.22588 0.36617 0.0
C1162 C 0.88345 0.2377 0.3498 0.0
C1163 C 0.91063 0.23706 0.35138 0.0
C1164 C 0.91645 0.22464 0.36935 0.0
C1165 C 0.89507 0.21276 0.38576 0.0
H1166 H 0.92719 0.24622 0.33868 0.0
H1167 H 0.71828 0.13304 0.49714 0.0
H1168 H 0.60492 0.84448 0.67266 0.0
H1169 H 0.59054 0.8225 0.6368 0.0
H1170 H 0.68306 0.88054 0.61579 0.0
H1171 H 0.69765 0.90193 0.65133 0.0
H1172 H 0.63521 0.87807 0.58818 0.0
H1173 H 0.66476 0.81288 0.62727 0.0
H1174 H 0.65877 0.778 0.65654 0.0
H1175 H 0.56612 0.71743 0.63779 0.0
H1176 H 0.57148 0.75222 0.60856 0.0
H1177 H 0.68638 0.8331 0.50188 0.0
H1178 H 0.67464 0.84754 0.53572 0.0
H1179 H 0.58834 0.7636 0.53745 0.0
H1180 H 0.60032 0.74847 0.5034 0.0
H1181 H 0.61635 0.77353 0.57458 0.0
H1182 H 0.59054 0.83209 0.53031 0.0
H1183 H 0.59541 0.8663 0.50089 0.0
H1184 H 0.67689 0.93853 0.52887 0.0
H1185 H 0.67281 0.90466 0.55829 0.0
C1186 C 0.62208 0.85255 0.66032 0.0
C1187 C 0.65244 0.87472 0.6648 0.0
C1188 C 0.61386 0.84001 0.63993 0.0
C1189 C 0.63577 0.84999 0.62372 0.0
C1190 C 0.66583 0.87264 0.62808 0.0
C1191 C 0.67415 0.88468 0.64844 0.0
C1192 C 0.62829 0.83641 0.60226 0.0
C1193 C 0.63093 0.85518 0.58511 0.0
C1194 C 0.62151 0.80617 0.59844 0.0
C1195 C 0.61837 0.78532 0.61595 0.0
C1196 C 0.64302 0.79227 0.62953 0.0
C1197 C 0.63977 0.7725 0.64608 0.0
C1198 C 0.61204 0.74557 0.64908 0.0
C1199 C 0.58755 0.73833 0.63548 0.0
C1200 C 0.59068 0.75806 0.61893 0.0
C1201 C 0.66472 0.81772 0.50926 0.0
C1202 C 0.6443 0.78958 0.49987 0.0
C1203 C 0.65792 0.82616 0.52861 0.0
C1204 C 0.63035 0.80693 0.539 0.0
C1205 C 0.60966 0.7789 0.52964 0.0
C1206 C 0.61652 0.77033 0.51018 0.0
C1207 C 0.62465 0.81569 0.56027 0.0
C1208 C 0.61958 0.79608 0.57746 0.0
C1209 C 0.62882 0.8451 0.56413 0.0
C1210 C 0.63139 0.86574 0.54651 0.0
C1211 C 0.6096 0.85522 0.53014 0.0
C1212 C 0.61221 0.87456 0.51346 0.0
C1213 C 0.63645 0.90456 0.51301 0.0
C1214 C 0.65811 0.9153 0.52925 0.0
C1215 C 0.65562 0.89604 0.54596 0.0
H1216 H 0.63843 0.9195 0.50008 0.0
H1217 H 0.60957 0.73028 0.66189 0.0
H1218 H 0.85445 0.61603 0.67094 0.0
H1219 H 0.83493 0.60743 0.7075 0.0
H1220 H 0.87416 0.70435 0.71607 0.0
H1221 H 0.89314 0.71313 0.67977 0.0
H1222 H 0.88784 0.67296 0.74901 0.0
H1223 H 0.80267 0.66597 0.70807 0.0
H1224 H 0.763 0.64346 0.68043 0.0
H1225 H 0.72518 0.55591 0.71053 0.0
H1226 H 0.76493 0.57787 0.7382 0.0
H1227 H 0.8283 0.71091 0.83504 0.0
H1228 H 0.84432 0.70286 0.80049 0.0
H1229 H 0.77982 0.60653 0.80482 0.0
H1230 H 0.76293 0.61456 0.83947 0.0
H1231 H 0.77801 0.62654 0.76647 0.0
H1232 H 0.85687 0.63365 0.81043 0.0
H1233 H 0.89627 0.65426 0.8383 0.0
H1234 H 0.94647 0.73758 0.80324 0.0
H1235 H 0.90715 0.71767 0.77529 0.0
C1236 C 0.85877 0.63545 0.68062 0.0
C1237 C 0.87527 0.66525 0.67244 0.0
C1238 C 0.84762 0.6305 0.70144 0.0
C1239 C 0.85322 0.65529 0.71442 0.0
C1240 C 0.86971 0.68495 0.7063 0.0
C1241 C 0.88039 0.68988 0.68549 0.0
C1242 C 0.8422 0.65088 0.73658 0.0
C1243 C 0.86385 0.66285 0.7529 0.0
C1244 C 0.81086 0.63658 0.74161 0.0
C1245 C 0.78699 0.62346 0.72502 0.0
C1246 C 0.78608 0.64186 0.70867 0.0
C1247 C 0.76354 0.62922 0.69303 0.0
C1248 C 0.74165 0.59825 0.69368 0.0
C1249 C 0.7422 0.57988 0.71001 0.0
C1250 C 0.76471 0.59241 0.72568 0.0
C1251 C 0.81757 0.68792 0.82879 0.0
C1252 C 0.79441 0.66335 0.84011 0.0
C1253 C 0.82691 0.68333 0.80902 0.0
C1254 C 0.81372 0.65399 0.8002 0.0
C1255 C 0.79046 0.62934 0.81138 0.0
C1256 C 0.78089 0.63397 0.83118 0.0
C1257 C 0.82378 0.64971 0.77897 0.0
C1258 C 0.802 0.63605 0.76279 0.0
C1259 C 0.85506 0.66209 0.77408 0.0
C1260 C 0.87894 0.67419 0.7908 0.0
C1261 C 0.87621 0.65644 0.80871 0.0
C1262 C 0.89855 0.668 0.82452 0.0
C1263 C 0.92384 0.69722 0.82255 0.0
C1264 C 0.92687 0.71494 0.80474 0.0
C1265 C 0.90458 0.70351 0.78889 0.0
H1266 H 0.9411 0.70613 0.83481 0.0
H1267 H 0.72421 0.58851 0.68157 0.0
H1268 H 0.25654 0.87532 0.83441 0.0
H1269 H 0.24251 0.85159 0.86947 0.0
H1270 H 0.1475 0.80627 0.85169 0.0
H1271 H 0.1614 0.83117 0.81711 0.0
H1272 H 0.15281 0.83249 0.88625 0.0
H1273 H 0.18867 0.76731 0.86191 0.0
H1274 H 0.2243 0.75343 0.8456 0.0
H1275 H 0.29004 0.80209 0.89443 0.0
H1276 H 0.25498 0.81664 0.91088 0.0
H1277 H 0.13077 0.74124 0.98862 0.0
H1278 H 0.14799 0.74934 0.95154 0.0
H1279 H 0.18 0.84545 0.95807 0.0
H1280 H 0.16236 0.8375 0.99469 0.0
H1281 H 0.20124 0.78526 0.92825 0.0
H1282 H 0.15453 0.86819 0.91744 0.0
H1283 H 0.11501 0.87721 0.93291 0.0
H1284 H 0.06331 0.78325 0.95161 0.0
H1285 H 0.10228 0.77357 0.93597 0.0
C1286 C 0.23272 0.85982 0.83788 0.0
C1287 C 0.21002 0.85531 0.82316 0.0
C1288 C 0.2247 0.8461 0.8579 0.0
C1289 C 0.19389 0.82701 0.8633 0.0
C1290 C 0.17139 0.82107 0.84802 0.0
C1291 C 0.17935 0.83528 0.82825 0.0
C1292 C 0.18482 0.81618 0.88548 0.0
C1293 C 0.16331 0.82193 0.89527 0.0
C1294 C 0.1981 0.80199 0.89735 0.0
C1295 C 0.21926 0.79326 0.88754 0.0
C1296 C 0.21081 0.77525 0.86909 0.0
C1297 C 0.23089 0.76723 0.85983 0.0
C1298 C 0.25943 0.77693 0.86895 0.0
C1299 C 0.26793 0.79461 0.88738 0.0
C1300 C 0.24794 0.80271 0.89669 0.0
C1301 C 0.14206 0.76416 0.98224 0.0
C1302 C 0.14475 0.78866 0.99441 0.0
C1303 C 0.15192 0.76876 0.96109 0.0
C1304 C 0.1647 0.7979 0.95197 0.0
C1305 C 0.16967 0.82269 0.96469 0.0
C1306 C 0.15955 0.81809 0.98562 0.0
C1307 C 0.16994 0.80231 0.92879 0.0
C1308 C 0.19065 0.79548 0.91896 0.0
C1309 C 0.15534 0.81475 0.91658 0.0
C1310 C 0.13147 0.82024 0.92568 0.0
C1311 C 0.13465 0.84943 0.92475 0.0
C1312 C 0.11236 0.85466 0.93357 0.0
C1313 C 0.08671 0.83084 0.94329 0.0
C1314 C 0.08324 0.8017 0.94414 0.0
C1315 C 0.10543 0.79634 0.93531 0.0
H1316 H 0.0695 0.83495 0.95013 0.0
H1317 H 0.27495 0.77069 0.86176 0.0
H1318 H 0.30065 0.09394 0.14905 0.0
H1319 H 0.3131 0.11525 0.11344 0.0
H1320 H 0.40729 0.17155 0.13149 0.0
H1321 H 0.39505 0.14981 0.16749 0.0
H1322 H 0.37868 0.20226 0.10895 0.0
H1323 H 0.39597 0.11855 0.10097 0.0
H1324 H 0.38451 0.06546 0.10513 0.0
H1325 H 0.30257 0.03392 0.06867 0.0
H1326 H 0.31328 0.08679 0.06456 0.0
H1327 H 0.39364 0.24424 0.99865 0.0
H1328 H 0.40498 0.22898 0.03285 0.0
H1329 H 0.31523 0.14929 0.03345 0.0
H1330 H 0.30398 0.16394 0.99941 0.0
H1331 H 0.35627 0.13493 0.04636 0.0
H1332 H 0.33237 0.21488 0.06114 0.0
H1333 H 0.33999 0.2668 0.05813 0.0
H1334 H 0.43093 0.30425 0.08249 0.0
H1335 H 0.42394 0.25251 0.0854 0.0
C1336 C 0.32407 0.11081 0.14553 0.0
C1337 C 0.34687 0.12022 0.16112 0.0
C1338 C 0.33115 0.12287 0.12512 0.0
C1339 C 0.36112 0.1448 0.11984 0.0
C1340 C 0.38404 0.15454 0.13531 0.0
C1341 C 0.37703 0.14207 0.15579 0.0
C1342 C 0.36764 0.15759 0.09812 0.0
C1343 C 0.37468 0.18787 0.09519 0.0
C1344 C 0.36183 0.13855 0.08028 0.0
C1345 C 0.35539 0.10668 0.08253 0.0
C1346 C 0.3754 0.10029 0.09395 0.0
C1347 C 0.36905 0.07022 0.09629 0.0
C1348 C 0.34281 0.04633 0.08719 0.0
C1349 C 0.3229 0.05245 0.0757 0.0
C1350 C 0.32913 0.08248 0.07333 0.0
C1351 C 0.37644 0.22335 0.00601 0.0
C1352 C 0.34785 0.20539 0.99631 0.0
C1353 C 0.38293 0.21471 0.02558 0.0
C1354 C 0.36087 0.18809 0.03579 0.0
C1355 C 0.33266 0.16986 0.02586 0.0
C1356 C 0.32621 0.17838 0.00639 0.0
C1357 C 0.3662 0.17932 0.05716 0.0
C1358 C 0.36128 0.14971 0.06003 0.0
C1359 C 0.3736 0.19887 0.07494 0.0
C1360 C 0.37779 0.22991 0.07321 0.0
C1361 C 0.35408 0.23422 0.06568 0.0
C1362 C 0.35826 0.26359 0.06403 0.0
C1363 C 0.38597 0.28881 0.07004 0.0
C1364 C 0.40952 0.28469 0.07778 0.0
C1365 C 0.40546 0.25536 0.07944 0.0
H1366 H 0.38917 0.31154 0.06875 0.0
H1367 H 0.33793 0.02306 0.08902 0.0
loop_
_geom_bond_atom_site_label_1
_geom_bond_atom_site_label_2
_geom_bond_distance
_geom_bond_site_symmetry_2
_ccdc_geom_bond_type
Zn0 O3 2.031 . S
Zn0 O5 2.049 . S
Zn0 O10 2.067 . S
Zn1 O2 1.962 . S
Zn1 O4 1.986 . S
Zn1 O6 1.996 . S
Zn1 O9 1.943 . S
O2 Zn1 1.962 . S
O2 C7 1.254 . S
O3 Zn0 2.031 . S
O3 C7 1.269 . S
O4 Zn1 1.986 . S
O4 C11 1.262 . S
O5 Zn0 2.049 . S
O5 C13 1.260 . S
O6 Zn1 1.996 . S
O6 C13 1.257 . S
C7 O2 1.254 . S
C7 O3 1.269 . S
C8 O9 1.249 . S
C8 O10 1.270 . S
O9 Zn1 1.943 . S
O9 C8 1.249 . S
O10 Zn0 2.067 . S
O10 C8 1.270 . S
C11 O4 1.262 . S
C11 O12 1.232 . S
O12 C11 1.232 . S
C13 O5 1.260 . S
C13 O6 1.257 . S
Zn14 O17 2.031 . S
Zn14 O19 2.049 . S
Zn14 O24 2.067 . S
Zn15 O16 1.962 . S
Zn15 O18 1.986 . S
Zn15 O20 1.996 . S
Zn15 O23 1.943 . S
O16 Zn15 1.962 . S
O16 C21 1.254 . S
O17 Zn14 2.031 . S
O17 C21 1.269 . S
O18 Zn15 1.986 . S
O18 C25 1.262 . S
O19 Zn14 2.049 . S
O19 C27 1.260 . S
O20 Zn15 1.996 . S
O20 C27 1.257 . S
C21 O16 1.254 . S
C21 O17 1.269 . S
C22 O23 1.249 . S
C22 O24 1.270 . S
O23 Zn15 1.943 . S
O23 C22 1.249 . S
O24 Zn14 2.067 . S
O24 C22 1.270 . S
C25 O18 1.262 . S
C25 O26 1.232 . S
O26 C25 1.232 . S
C27 O19 1.260 . S
C27 O20 1.257 . S
Zn28 O31 2.031 . S
Zn28 O33 2.049 . S
Zn28 O38 2.067 . S
Zn29 O30 1.962 . S
Zn29 O32 1.986 . S
Zn29 O34 1.996 . S
Zn29 O37 1.943 . S
O30 Zn29 1.962 . S
O30 C35 1.254 . S
O31 Zn28 2.031 . S
O31 C35 1.269 . S
O32 Zn29 1.986 . S
O32 C39 1.262 . S
O33 Zn28 2.049 . S
O33 C41 1.260 . S
O34 Zn29 1.996 . S
O34 C41 1.257 . S
C35 O30 1.254 . S
C35 O31 1.269 . S
C36 O37 1.249 . S
C36 O38 1.270 . S
O37 Zn29 1.943 . S
O37 C36 1.249 . S
O38 Zn28 2.067 . S
O38 C36 1.270 . S
C39 O32 1.262 . S
C39 O40 1.232 . S
O40 C39 1.232 . S
C41 O33 1.260 . S
C41 O34 1.257 . S
Zn42 O45 2.031 . S
Zn42 O47 2.049 . S
Zn42 O52 2.067 . S
Zn43 O44 1.962 . S
Zn43 O46 1.986 . S
Zn43 O48 1.996 . S
Zn43 O51 1.943 . S
O44 Zn43 1.962 . S
O44 C49 1.254 . S
O45 Zn42 2.031 . S
O45 C49 1.269 . S
O46 Zn43 1.986 . S
O46 C53 1.262 . S
O47 Zn42 2.049 . S
O47 C55 1.260 . S
O48 Zn43 1.996 . S
O48 C55 1.257 . S
C49 O44 1.254 . S
C49 O45 1.269 . S
C50 O51 1.249 . S
C50 O52 1.270 . S
O51 Zn43 1.943 . S
O51 C50 1.249 . S
O52 Zn42 2.067 . S
O52 C50 1.270 . S
C53 O46 1.262 . S
C53 O54 1.232 . S
O54 C53 1.232 . S
C55 O47 1.260 . S
C55 O48 1.257 . S
Zn56 O59 2.031 . S
Zn56 O61 2.049 . S
Zn56 O66 2.067 . S
Zn57 O58 1.962 . S
Zn57 O60 1.986 . S
Zn57 O62 1.996 . S
Zn57 O65 1.943 . S
O58 Zn57 1.962 . S
O58 C63 1.254 . S
O59 Zn56 2.031 . S
O59 C63 1.269 . S
O60 Zn57 1.986 . S
O60 C67 1.262 . S
O61 Zn56 2.049 . S
O61 C69 1.260 . S
O62 Zn57 1.996 . S
O62 C69 1.257 . S
C63 O58 1.254 . S
C63 O59 1.269 . S
C64 O65 1.249 . S
C64 O66 1.270 . S
O65 Zn57 1.943 . S
O65 C64 1.249 . S
O66 Zn56 2.067 . S
O66 C64 1.270 . S
C67 O60 1.262 . S
C67 O68 1.232 . S
O68 C67 1.232 . S
C69 O61 1.260 . S
C69 O62 1.257 . S
Zn70 O73 2.031 . S
Zn70 O75 2.049 . S
Zn70 O80 2.067 . S
Zn71 O72 1.962 . S
Zn71 O74 1.986 . S
Zn71 O76 1.996 . S
Zn71 O79 1.943 . S
O72 Zn71 1.962 . S
O72 C77 1.254 . S
O73 Zn70 2.031 . S
O73 C77 1.269 . S
O74 Zn71 1.986 . S
O74 C81 1.262 . S
O75 Zn70 2.049 . S
O75 C83 1.260 . S
O76 Zn71 1.996 . S
O76 C83 1.257 . S
C77 O72 1.254 . S
C77 O73 1.269 . S
C78 O79 1.249 . S
C78 O80 1.270 . S
O79 Zn71 1.943 . S
O79 C78 1.249 . S
O80 Zn70 2.067 . S
O80 C78 1.270 . S
C81 O74 1.262 . S
C81 O82 1.232 . S
O82 C81 1.232 . S
C83 O75 1.260 . S
C83 O76 1.257 . S
Zn84 O87 2.031 . S
Zn84 O89 2.049 . S
Zn84 O94 2.067 . S
Zn85 O86 1.962 . S
Zn85 O88 1.986 . S
Zn85 O90 1.996 . S
Zn85 O93 1.943 . S
O86 Zn85 1.962 . S
O86 C91 1.254 . S
O87 Zn84 2.031 . S
O87 C91 1.269 . S
O88 Zn85 1.986 . S
O88 C95 1.262 . S
O89 Zn84 2.049 . S
O89 C97 1.260 . S
O90 Zn85 1.996 . S
O90 C97 1.257 . S
C91 O86 1.254 . S
C91 O87 1.269 . S
C92 O93 1.249 . S
C92 O94 1.270 . S
O93 Zn85 1.943 . S
O93 C92 1.249 . S
O94 Zn84 2.067 . S
O94 C92 1.270 . S
C95 O88 1.262 . S
C95 O96 1.232 . S
O96 C95 1.232 . S
C97 O89 1.260 . S
C97 O90 1.257 . S
Zn98 O101 2.031 . S
Zn98 O103 2.049 . S
Zn98 O108 2.067 . S
Zn99 O100 1.962 . S
Zn99 O102 1.986 . S
Zn99 O104 1.996 . S
Zn99 O107 1.943 . S
O100 Zn99 1.962 . S
O100 C105 1.254 . S
O101 Zn98 2.031 . S
O101 C105 1.269 . S
O102 Zn99 1.986 . S
O102 C109 1.262 . S
O103 Zn98 2.049 . S
O103 C111 1.260 . S
O104 Zn99 1.996 . S
O104 C111 1.257 . S
C105 O100 1.254 . S
C105 O101 1.269 . S
C106 O107 1.249 . S
C106 O108 1.270 . S
O107 Zn99 1.943 . S
O107 C106 1.249 . S
O108 Zn98 2.067 . S
O108 C106 1.270 . S
C109 O102 1.262 . S
C109 O110 1.232 . S
O110 C109 1.232 . S
C111 O103 1.260 . S
C111 O104 1.257 . S
Zn112 O115 2.031 . S
Zn112 O117 2.049 . S
Zn112 O122 2.067 . S
Zn113 O114 1.962 . S
Zn113 O116 1.986 . S
Zn113 O118 1.996 . S
Zn113 O121 1.943 . S
O114 Zn113 1.962 . S
O114 C119 1.254 . S
O115 Zn112 2.031 . S
O115 C119 1.269 . S
O116 Zn113 1.986 . S
O116 C123 1.262 . S
O117 Zn112 2.049 . S
O117 C125 1.260 . S
O118 Zn113 1.996 . S
O118 C125 1.257 . S
C119 O114 1.254 . S
C119 O115 1.269 . S
C120 O121 1.249 . S
C120 O122 1.270 . S
O121 Zn113 1.943 . S
O121 C120 1.249 . S
O122 Zn112 2.067 . S
O122 C120 1.270 . S
C123 O116 1.262 . S
C123 O124 1.232 . S
O124 C123 1.232 . S
C125 O117 1.260 . S
C125 O118 1.257 . S
Zn126 O129 2.031 . S
Zn126 O131 2.049 . S
Zn126 O136 2.067 . S
Zn127 O128 1.962 . S
Zn127 O130 1.986 . S
Zn127 O132 1.996 . S
Zn127 O135 1.943 . S
O128 Zn127 1.962 . S
O128 C133 1.254 . S
O129 Zn126 2.031 . S
O129 C133 1.269 . S
O130 Zn127 1.986 . S
O130 C137 1.262 . S
O131 Zn126 2.049 . S
O131 C139 1.260 . S
O132 Zn127 1.996 . S
O132 C139 1.257 . S
C133 O128 1.254 . S
C133 O129 1.269 . S
C134 O135 1.249 . S
C134 O136 1.270 . S
O135 Zn127 1.943 . S
O135 C134 1.249 . S
O136 Zn126 2.067 . S
O136 C134 1.270 . S
C137 O130 1.262 . S
C137 O138 1.232 . S
O138 C137 1.232 . S
C139 O131 1.260 . S
C139 O132 1.257 . S
Zn140 O143 2.031 . S
Zn140 O145 2.049 . S
Zn140 O150 2.067 . S
Zn141 O142 1.962 . S
Zn141 O144 1.986 . S
Zn141 O146 1.996 . S
Zn141 O149 1.943 . S
O142 Zn141 1.962 . S
O142 C147 1.254 . S
O143 Zn140 2.031 . S
O143 C147 1.269 . S
O144 Zn141 1.986 . S
O144 C151 1.262 . S
O145 Zn140 2.049 . S
O145 C153 1.260 . S
O146 Zn141 1.996 . S
O146 C153 1.257 . S
C147 O142 1.254 . S
C147 O143 1.269 . S
C148 O149 1.249 . S
C148 O150 1.270 . S
O149 Zn141 1.943 . S
O149 C148 1.249 . S
O150 Zn140 2.067 . S
O150 C148 1.270 . S
C151 O144 1.262 . S
C151 O152 1.232 . S
O152 C151 1.232 . S
C153 O145 1.260 . S
C153 O146 1.257 . S
Zn154 O157 2.031 . S
Zn154 O159 2.049 . S
Zn154 O164 2.067 . S
Zn155 O156 1.962 . S
Zn155 O158 1.986 . S
Zn155 O160 1.996 . S
Zn155 O163 1.943 . S
O156 Zn155 1.962 . S
O156 C161 1.254 . S
O157 Zn154 2.031 . S
O157 C161 1.269 . S
O158 Zn155 1.986 . S
O158 C165 1.262 . S
O159 Zn154 2.049 . S
O159 C167 1.260 . S
O160 Zn155 1.996 . S
O160 C167 1.257 . S
C161 O156 1.254 . S
C161 O157 1.269 . S
C162 O163 1.249 . S
C162 O164 1.270 . S
O163 Zn155 1.943 . S
O163 C162 1.249 . S
O164 Zn154 2.067 . S
O164 C162 1.270 . S
C165 O158 1.262 . S
C165 O166 1.232 . S
O166 C165 1.232 . S
C167 O159 1.260 . S
C167 O160 1.257 . S
H168 C186 0.951 . S
H169 C188 0.951 . S
H170 C190 0.950 . S
H171 C191 0.950 . S
H172 C193 0.950 . S
H173 C196 0.950 . S
H174 C197 0.950 . S
H175 C199 0.950 . S
H176 C200 0.950 . S
H177 C201 0.951 . S
H178 C203 0.951 . S
H179 C205 0.950 . S
H180 C206 0.950 . S
H181 C208 0.950 . S
H182 C211 0.950 . S
H183 C212 0.950 . S
H184 C214 0.950 . S
H185 C215 0.950 . S
C186 H168 0.951 . S
C186 C187 1.366 . S
C186 C188 1.388 . S
C187 C186 1.366 . S
C187 C191 1.385 . S
C188 H169 0.951 . S
C188 C186 1.388 . S
C188 C189 1.366 . S
C189 C188 1.366 . S
C189 C190 1.414 . S
C189 C192 1.499 . S
C190 H170 0.950 . S
C190 C189 1.414 . S
C190 C191 1.374 . S
C191 H171 0.950 . S
C191 C187 1.385 . S
C191 C190 1.374 . S
C192 C189 1.499 . S
C192 C193 1.373 . S
C192 C194 1.389 . S
C193 H172 0.950 . S
C193 C192 1.373 . S
C193 C209 1.377 . S
C194 C192 1.389 . S
C194 C195 1.524 . S
C194 C208 1.377 . S
C195 C194 1.524 . S
C195 C196 1.397 . S
C195 C200 1.363 . S
C196 H173 0.950 . S
C196 C195 1.397 . S
C196 C197 1.334 . S
C197 H174 0.950 . S
C197 C196 1.334 . S
C197 C198 1.287 . S
C198 C197 1.287 . S
C198 C199 1.524 1_455 S
C198 H217 0.913 . S
C199 H175 0.950 . S
C199 C198 1.524 1_655 S
C199 C200 1.415 1_655 S
C200 H176 0.950 . S
C200 C195 1.363 . S
C200 C199 1.415 1_455 S
C201 H177 0.951 . S
C201 C202 1.366 . S
C201 C203 1.388 . S
C202 C201 1.366 . S
C202 C206 1.385 . S
C203 H178 0.951 . S
C203 C201 1.388 . S
C203 C204 1.366 . S
C204 C203 1.366 . S
C204 C205 1.414 . S
C204 C207 1.499 . S
C205 H179 0.950 . S
C205 C204 1.414 . S
C205 C206 1.374 . S
C206 H180 0.950 . S
C206 C202 1.385 . S
C206 C205 1.374 . S
C207 C204 1.499 . S
C207 C208 1.373 . S
C207 C209 1.389 . S
C208 H181 0.950 . S
C208 C194 1.377 . S
C208 C207 1.373 . S
C209 C193 1.377 . S
C209 C207 1.389 . S
C209 C210 1.524 . S
C210 C209 1.524 . S
C210 C211 1.397 . S
C210 C215 1.363 . S
C211 H182 0.950 . S
C211 C210 1.397 . S
C211 C212 1.334 . S
C212 H183 0.950 . S
C212 C211 1.334 . S
C212 C213 1.287 . S
C213 C212 1.287 . S
C213 C214 1.524 . S
C213 H216 0.999 . S
C214 H184 0.950 . S
C214 C213 1.524 . S
C214 C215 1.415 . S
C215 H185 0.950 . S
C215 C210 1.363 . S
C215 C214 1.415 . S
H216 C213 0.999 . S
H217 C198 0.913 . S
H218 C236 0.951 . S
H219 C238 0.951 . S
H220 C240 0.950 . S
H221 C241 0.950 . S
H222 C243 0.950 . S
H223 C246 0.950 . S
H224 C247 0.950 . S
H225 C249 0.950 . S
H226 C250 0.950 . S
H227 C251 0.951 . S
H228 C253 0.951 . S
H229 C255 0.950 . S
H230 C256 0.950 . S
H231 C258 0.950 . S
H232 C261 0.950 . S
H233 C262 0.950 . S
H234 C264 0.950 . S
H235 C265 0.950 . S
C236 H218 0.951 . S
C236 C237 1.366 . S
C236 C238 1.388 . S
C237 C236 1.366 . S
C237 C241 1.385 . S
C238 H219 0.951 . S
C238 C236 1.388 . S
C238 C239 1.366 . S
C239 C238 1.366 . S
C239 C240 1.414 . S
C239 C242 1.499 . S
C240 H220 0.950 . S
C240 C239 1.414 . S
C240 C241 1.374 . S
C241 H221 0.950 . S
C241 C237 1.385 . S
C241 C240 1.374 . S
C242 C239 1.499 . S
C242 C243 1.373 . S
C242 C244 1.389 . S
C243 H222 0.950 . S
C243 C242 1.373 . S
C243 C259 1.377 . S
C244 C242 1.389 . S
C244 C245 1.524 . S
C244 C258 1.377 . S
C245 C244 1.524 . S
C245 C246 1.397 . S
C245 C250 1.363 . S
C246 H223 0.950 . S
C246 C245 1.397 . S
C246 C247 1.334 1_545 S
C247 H224 0.950 . S
C247 C246 1.334 1_565 S
C247 C248 1.287 . S
C248 C247 1.287 . S
C248 C249 1.524 1_565 S
C248 H267 0.913 . S
C249 H225 0.950 . S
C249 C248 1.524 1_545 S
C249 C250 1.415 . S
C250 H226 0.950 . S
C250 C245 1.363 . S
C250 C249 1.415 . S
C251 H227 0.951 . S
C251 C252 1.366 . S
C251 C253 1.388 . S
C252 C251 1.366 . S
C252 C256 1.385 . S
C253 H228 0.951 . S
C253 C251 1.388 . S
C253 C254 1.366 . S
C254 C253 1.366 . S
C254 C255 1.414 . S
C254 C257 1.499 . S
C255 H229 0.950 . S
C255 C254 1.414 . S
C255 C256 1.374 . S
C256 H230 0.950 . S
C256 C252 1.385 . S
C256 C255 1.374 . S
C257 C254 1.499 . S
C257 C258 1.373 . S
C257 C259 1.389 . S
C258 H231 0.950 . S
C258 C244 1.377 . S
C258 C257 1.373 . S
C259 C243 1.377 . S
C259 C257 1.389 . S
C259 C260 1.524 . S
C260 C259 1.524 . S
C260 C261 1.397 . S
C260 C265 1.363 . S
C261 H232 0.950 . S
C261 C260 1.397 . S
C261 C262 1.334 . S
C262 H233 0.950 . S
C262 C261 1.334 . S
C262 C263 1.287 . S
C263 C262 1.287 . S
C263 C264 1.524 . S
C263 H266 0.999 . S
C264 H234 0.950 . S
C264 C263 1.524 . S
C264 C265 1.415 . S
C265 H235 0.950 . S
C265 C260 1.363 . S
C265 C264 1.415 . S
H266 C263 0.999 . S
H267 C248 0.913 . S
H268 C286 0.951 . S
H269 C288 0.951 . S
H270 C290 0.950 . S
H271 C291 0.950 . S
H272 C293 0.950 . S
H273 C296 0.950 . S
H274 C297 0.950 . S
H275 C299 0.950 . S
H276 C300 0.950 . S
H277 C301 0.951 . S
H278 C303 0.951 . S
H279 C305 0.950 . S
H280 C306 0.950 . S
H281 C308 0.950 . S
H282 C311 0.950 . S
H283 C312 0.950 . S
H284 C314 0.950 . S
H285 C315 0.950 . S
C286 H268 0.951 . S
C286 C287 1.366 . S
C286 C288 1.388 . S
C287 C286 1.366 . S
C287 C291 1.385 . S
C288 H269 0.951 . S
C288 C286 1.388 . S
C288 C289 1.366 . S
C289 C288 1.366 . S
C289 C290 1.414 . S
C289 C292 1.499 . S
C290 H270 0.950 . S
C290 C289 1.414 . S
C290 C291 1.374 . S
C291 H271 0.950 . S
C291 C287 1.385 . S
C291 C290 1.374 . S
C292 C289 1.499 . S
C292 C293 1.373 . S
C292 C294 1.389 . S
C293 H272 0.950 . S
C293 C292 1.373 . S
C293 C309 1.377 . S
C294 C292 1.389 . S
C294 C295 1.524 . S
C294 C308 1.377 . S
C295 C294 1.524 . S
C295 C296 1.397 . S
C295 C300 1.363 . S
C296 H273 0.950 . S
C296 C295 1.397 . S
C296 C297 1.334 . S
C297 H274 0.950 . S
C297 C296 1.334 . S
C297 C298 1.287 . S
C298 C297 1.287 . S
C298 C299 1.524 . S
C298 H317 0.913 . S
C299 H275 0.950 . S
C299 C298 1.524 . S
C299 C300 1.415 . S
C300 H276 0.950 . S
C300 C295 1.363 . S
C300 C299 1.415 . S
C301 H277 0.951 . S
C301 C302 1.366 . S
C301 C303 1.388 . S
C302 C301 1.366 . S
C302 C306 1.385 . S
C303 H278 0.951 . S
C303 C301 1.388 . S
C303 C304 1.366 . S
C304 C303 1.366 . S
C304 C305 1.414 . S
C304 C307 1.499 . S
C305 H279 0.950 . S
C305 C304 1.414 . S
C305 C306 1.374 . S
C306 H280 0.950 . S
C306 C302 1.385 . S
C306 C305 1.374 . S
C307 C304 1.499 . S
C307 C308 1.373 . S
C307 C309 1.389 . S
C308 H281 0.950 . S
C308 C294 1.377 . S
C308 C307 1.373 . S
C309 C293 1.377 . S
C309 C307 1.389 . S
C309 C310 1.524 . S
C310 C309 1.524 . S
C310 C311 1.397 . S
C310 C315 1.363 . S
C311 H282 0.950 . S
C311 C310 1.397 . S
C311 C312 1.334 . S
C312 H283 0.950 . S
C312 C311 1.334 . S
C312 C313 1.287 . S
C313 C312 1.287 . S
C313 C314 1.524 . S
C313 H316 0.999 . S
C314 H284 0.950 . S
C314 C313 1.524 . S
C314 C315 1.415 . S
C315 H285 0.950 . S
C315 C310 1.363 . S
C315 C314 1.415 . S
H316 C313 0.999 . S
H317 C298 0.913 . S
H318 C336 0.951 . S
H319 C338 0.951 . S
H320 C340 0.950 . S
H321 C341 0.950 . S
H322 C343 0.950 . S
H323 C346 0.950 . S
H324 C347 0.950 . S
H325 C349 0.950 . S
H326 C350 0.950 1_455 S
H327 C351 0.951 . S
H328 C353 0.951 . S
H329 C355 0.950 . S
H330 C356 0.950 . S
H331 C358 0.950 . S
H332 C361 0.950 . S
H333 C362 0.950 . S
H334 C364 0.950 . S
H335 C365 0.950 . S
C336 H318 0.951 . S
C336 C337 1.366 . S
C336 C338 1.388 . S
C337 C336 1.366 . S
C337 C341 1.385 . S
C338 H319 0.951 . S
C338 C336 1.388 . S
C338 C339 1.366 . S
C339 C338 1.366 . S
C339 C340 1.414 . S
C339 C342 1.499 . S
C340 H320 0.950 . S
C340 C339 1.414 . S
C340 C341 1.374 . S
C341 H321 0.950 . S
C341 C337 1.385 . S
C341 C340 1.374 . S
C342 C339 1.499 . S
C342 C343 1.373 . S
C342 C344 1.389 . S
C343 H322 0.950 . S
C343 C342 1.373 . S
C343 C359 1.377 . S
C344 C342 1.389 . S
C344 C345 1.524 . S
C344 C358 1.377 . S
C345 C344 1.524 . S
C345 C346 1.397 . S
C345 C350 1.363 . S
C346 H323 0.950 . S
C346 C345 1.397 . S
C346 C347 1.334 . S
C347 H324 0.950 . S
C347 C346 1.334 . S
C347 C348 1.287 1_655 S
C348 C347 1.287 1_455 S
C348 C349 1.524 . S
C348 H367 0.913 . S
C349 H325 0.950 . S
C349 C348 1.524 . S
C349 C350 1.415 1_455 S
C350 H326 0.950 1_655 S
C350 C345 1.363 . S
C350 C349 1.415 1_655 S
C351 H327 0.951 . S
C351 C352 1.366 . S
C351 C353 1.388 . S
C352 C351 1.366 . S
C352 C356 1.385 . S
C353 H328 0.951 . S
C353 C351 1.388 . S
C353 C354 1.366 . S
C354 C353 1.366 . S
C354 C355 1.414 . S
C354 C357 1.499 . S
C355 H329 0.950 . S
C355 C354 1.414 . S
C355 C356 1.374 . S
C356 H330 0.950 . S
C356 C352 1.385 . S
C356 C355 1.374 . S
C357 C354 1.499 . S
C357 C358 1.373 . S
C357 C359 1.389 . S
C358 H331 0.950 . S
C358 C344 1.377 . S
C358 C357 1.373 . S
C359 C343 1.377 . S
C359 C357 1.389 . S
C359 C360 1.524 . S
C360 C359 1.524 . S
C360 C361 1.397 . S
C360 C365 1.363 . S
C361 H332 0.950 . S
C361 C360 1.397 . S
C361 C362 1.334 . S
C362 H333 0.950 . S
C362 C361 1.334 . S
C362 C363 1.287 . S
C363 C362 1.287 . S
C363 C364 1.524 . S
C363 H366 0.999 . S
C364 H334 0.950 . S
C364 C363 1.524 . S
C364 C365 1.415 . S
C365 H335 0.950 . S
C365 C360 1.363 . S
C365 C364 1.415 . S
H366 C363 0.999 . S
H367 C348 0.913 . S
H368 C386 0.951 . S
H369 C388 0.951 . S
H370 C390 0.950 . S
H371 C391 0.950 . S
H372 C393 0.950 . S
H373 C396 0.950 . S
H374 C397 0.950 . S
H375 C399 0.950 . S
H376 C400 0.950 . S
H377 C401 0.951 . S
H378 C403 0.951 . S
H379 C405 0.950 . S
H380 C406 0.950 . S
H381 C408 0.950 . S
H382 C411 0.950 . S
H383 C412 0.950 . S
H384 C414 0.950 . S
H385 C415 0.950 . S
C386 H368 0.951 . S
C386 C387 1.366 . S
C386 C388 1.388 . S
C387 C386 1.366 . S
C387 C391 1.385 . S
C388 H369 0.951 . S
C388 C386 1.388 . S
C388 C389 1.366 . S
C389 C388 1.366 . S
C389 C390 1.414 . S
C389 C392 1.499 . S
C390 H370 0.950 . S
C390 C389 1.414 . S
C390 C391 1.374 . S
C391 H371 0.950 . S
C391 C387 1.385 . S
C391 C390 1.374 . S
C392 C389 1.499 . S
C392 C393 1.373 . S
C392 C394 1.389 . S
C393 H372 0.950 . S
C393 C392 1.373 . S
C393 C409 1.377 . S
C394 C392 1.389 . S
C394 C395 1.524 . S
C394 C408 1.377 . S
C395 C394 1.524 . S
C395 C396 1.397 . S
C395 C400 1.363 . S
C396 H373 0.950 . S
C396 C395 1.397 . S
C396 C397 1.334 . S
C397 H374 0.950 . S
C397 C396 1.334 . S
C397 C398 1.287 . S
C398 C397 1.287 . S
C398 C399 1.524 . S
C398 H417 0.913 . S
C399 H375 0.950 . S
C399 C398 1.524 . S
C399 C400 1.415 . S
C400 H376 0.950 . S
C400 C395 1.363 . S
C400 C399 1.415 . S
C401 H377 0.951 . S
C401 C402 1.366 . S
C401 C403 1.388 . S
C402 C401 1.366 . S
C402 C406 1.385 . S
C403 H378 0.951 . S
C403 C401 1.388 . S
C403 C404 1.366 . S
C404 C403 1.366 . S
C404 C405 1.414 . S
C404 C407 1.499 . S
C405 H379 0.950 . S
C405 C404 1.414 . S
C405 C406 1.374 . S
C406 H380 0.950 . S
C406 C402 1.385 . S
C406 C405 1.374 . S
C407 C404 1.499 . S
C407 C408 1.373 . S
C407 C409 1.389 . S
C408 H381 0.950 . S
C408 C394 1.377 . S
C408 C407 1.373 . S
C409 C393 1.377 . S
C409 C407 1.389 . S
C409 C410 1.524 . S
C410 C409 1.524 . S
C410 C411 1.397 . S
C410 C415 1.363 . S
C411 H382 0.950 . S
C411 C410 1.397 . S
C411 C412 1.334 1_565 S
C412 H383 0.950 . S
C412 C411 1.334 1_545 S
C412 C413 1.287 . S
C413 C412 1.287 . S
C413 C414 1.524 1_545 S
C413 H416 0.999 . S
C414 H384 0.950 . S
C414 C413 1.524 1_565 S
C414 C415 1.415 . S
C415 H385 0.950 . S
C415 C410 1.363 . S
C415 C414 1.415 . S
H416 C413 0.999 . S
H417 C398 0.913 . S
H418 C436 0.951 . S
H419 C438 0.951 . S
H420 C440 0.950 . S
H421 C441 0.950 . S
H422 C443 0.950 . S
H423 C446 0.950 . S
H424 C447 0.931 1_554 S
H425 C449 0.950 . S
H426 C450 0.950 . S
H427 C451 0.951 . S
H428 C453 0.951 . S
H429 C455 0.950 . S
H430 C456 0.950 . S
H431 C458 0.950 . S
H432 C461 0.950 . S
H433 C462 0.950 . S
H434 C464 0.950 . S
H435 C465 0.950 . S
C436 H418 0.951 . S
C436 C437 1.366 . S
C436 C438 1.388 . S
C437 C436 1.366 . S
C437 C441 1.385 . S
C438 H419 0.951 . S
C438 C436 1.388 . S
C438 C439 1.366 . S
C439 C438 1.366 . S
C439 C440 1.414 . S
C439 C442 1.499 . S
C440 H420 0.950 . S
C440 C439 1.414 . S
C440 C441 1.374 . S
C441 H421 0.950 . S
C441 C437 1.385 . S
C441 C440 1.374 . S
C442 C439 1.499 . S
C442 C443 1.373 . S
C442 C444 1.389 . S
C443 H422 0.950 . S
C443 C442 1.373 . S
C443 C459 1.377 . S
C444 C442 1.389 . S
C444 C445 1.524 . S
C444 C458 1.377 . S
C445 C444 1.524 . S
C445 C446 1.397 . S
C445 C450 1.363 . S
C446 H423 0.950 . S
C446 C445 1.397 . S
C446 C447 1.334 . S
C447 H424 0.931 1_556 S
C447 C446 1.334 . S
C447 C448 1.287 . S
C448 C447 1.287 . S
C448 C449 1.524 . S
C448 H467 0.913 1_556 S
C449 H425 0.950 . S
C449 C448 1.524 . S
C449 C450 1.415 . S
C450 H426 0.950 . S
C450 C445 1.363 . S
C450 C449 1.415 . S
C451 H427 0.951 . S
C451 C452 1.366 . S
C451 C453 1.388 . S
C452 C451 1.366 . S
C452 C456 1.385 . S
C453 H428 0.951 . S
C453 C451 1.388 . S
C453 C454 1.366 . S
C454 C453 1.366 . S
C454 C455 1.414 . S
C454 C457 1.499 . S
C455 H429 0.950 . S
C455 C454 1.414 . S
C455 C456 1.374 . S
C456 H430 0.950 . S
C456 C452 1.385 . S
C456 C455 1.374 . S
C457 C454 1.499 . S
C457 C458 1.373 . S
C457 C459 1.389 . S
C458 H431 0.950 . S
C458 C444 1.377 . S
C458 C457 1.373 . S
C459 C443 1.377 . S
C459 C457 1.389 . S
C459 C460 1.524 . S
C460 C459 1.524 . S
C460 C461 1.397 . S
C460 C465 1.363 . S
C461 H432 0.950 . S
C461 C460 1.397 . S
C461 C462 1.334 . S
C462 H433 0.950 . S
C462 C461 1.334 . S
C462 C463 1.287 . S
C463 C462 1.287 . S
C463 C464 1.524 . S
C463 H466 0.999 . S
C464 H434 0.950 . S
C464 C463 1.524 . S
C464 C465 1.415 . S
C465 H435 0.950 . S
C465 C460 1.363 . S
C465 C464 1.415 . S
H466 C463 0.999 . S
H467 C448 0.913 1_554 S
H468 C486 0.951 . S
H469 C488 0.951 . S
H470 C490 0.950 . S
H471 C491 0.950 . S
H472 C493 0.950 . S
H473 C496 0.950 . S
H474 C497 0.950 . S
H475 C499 0.950 . S
H476 C500 0.950 . S
H477 C501 0.951 . S
H478 C503 0.951 . S
H479 C505 0.950 . S
H480 C506 0.950 1_554 S
H481 C508 0.950 . S
H482 C511 0.950 . S
H483 C512 0.950 . S
H484 C514 0.950 . S
H485 C515 0.950 . S
C486 H468 0.951 . S
C486 C487 1.366 . S
C486 C488 1.388 . S
C487 C486 1.366 . S
C487 C491 1.385 . S
C488 H469 0.951 . S
C488 C486 1.388 . S
C488 C489 1.366 . S
C489 C488 1.366 . S
C489 C490 1.414 . S
C489 C492 1.499 . S
C490 H470 0.950 . S
C490 C489 1.414 . S
C490 C491 1.374 . S
C491 H471 0.950 . S
C491 C487 1.385 . S
C491 C490 1.374 . S
C492 C489 1.499 . S
C492 C493 1.373 . S
C492 C494 1.389 . S
C493 H472 0.950 . S
C493 C492 1.373 . S
C493 C509 1.377 . S
C494 C492 1.389 . S
C494 C495 1.524 . S
C494 C508 1.377 . S
C495 C494 1.524 . S
C495 C496 1.397 . S
C495 C500 1.363 . S
C496 H473 0.950 . S
C496 C495 1.397 . S
C496 C497 1.334 . S
C497 H474 0.950 . S
C497 C496 1.334 . S
C497 C498 1.287 . S
C498 C497 1.287 . S
C498 C499 1.524 . S
C498 H517 0.913 . S
C499 H475 0.950 . S
C499 C498 1.524 . S
C499 C500 1.415 . S
C500 H476 0.950 . S
C500 C495 1.363 . S
C500 C499 1.415 . S
C501 H477 0.951 . S
C501 C502 1.366 . S
C501 C503 1.388 . S
C502 C501 1.366 . S
C502 C506 1.385 . S
C503 H478 0.951 . S
C503 C501 1.388 . S
C503 C504 1.366 1_556 S
C504 C503 1.366 1_554 S
C504 C505 1.414 . S
C504 C507 1.499 . S
C505 H479 0.950 . S
C505 C504 1.414 . S
C505 C506 1.374 1_554 S
C506 H480 0.950 1_556 S
C506 C502 1.385 . S
C506 C505 1.374 1_556 S
C507 C504 1.499 . S
C507 C508 1.373 . S
C507 C509 1.389 . S
C508 H481 0.950 . S
C508 C494 1.377 . S
C508 C507 1.373 . S
C509 C493 1.377 . S
C509 C507 1.389 . S
C509 C510 1.524 . S
C510 C509 1.524 . S
C510 C511 1.397 . S
C510 C515 1.363 . S
C511 H482 0.950 . S
C511 C510 1.397 . S
C511 C512 1.334 . S
C512 H483 0.950 . S
C512 C511 1.334 . S
C512 C513 1.287 . S
C513 C512 1.287 . S
C513 C514 1.524 . S
C513 H516 0.999 . S
C514 H484 0.950 . S
C514 C513 1.524 . S
C514 C515 1.415 . S
C515 H485 0.950 . S
C515 C510 1.363 . S
C515 C514 1.415 . S
H516 C513 0.999 . S
H517 C498 0.913 . S
H518 C536 0.951 . S
H519 C538 0.951 . S
H520 C540 0.950 . S
H521 C541 0.950 . S
H522 C543 0.950 . S
H523 C546 0.950 . S
H524 C547 0.950 . S
H525 C549 0.950 . S
H526 C550 0.950 . S
H527 C551 0.951 . S
H528 C553 0.951 . S
H529 C555 0.950 . S
H530 C556 0.950 1_455 S
H531 C558 0.950 . S
H532 C561 0.950 . S
H533 C562 0.939 1_455 S
H534 C564 0.950 . S
H535 C565 0.950 . S
C536 H518 0.951 . S
C536 C537 1.366 . S
C536 C538 1.388 . S
C537 C536 1.366 . S
C537 C541 1.385 . S
C538 H519 0.951 . S
C538 C536 1.388 . S
C538 C539 1.366 . S
C539 C538 1.366 . S
C539 C540 1.414 . S
C539 C542 1.499 . S
C540 H520 0.950 . S
C540 C539 1.414 . S
C540 C541 1.374 . S
C541 H521 0.950 . S
C541 C537 1.385 . S
C541 C540 1.374 . S
C542 C539 1.499 . S
C542 C543 1.373 . S
C542 C544 1.389 . S
C543 H522 0.950 . S
C543 C542 1.373 . S
C543 C559 1.377 . S
C544 C542 1.389 . S
C544 C545 1.524 . S
C544 C558 1.377 . S
C545 C544 1.524 . S
C545 C546 1.397 . S
C545 C550 1.363 . S
C546 H523 0.950 . S
C546 C545 1.397 . S
C546 C547 1.334 . S
C547 H524 0.950 . S
C547 C546 1.334 . S
C547 C548 1.287 . S
C548 C547 1.287 . S
C548 C549 1.524 . S
C548 H567 0.913 . S
C549 H525 0.950 . S
C549 C548 1.524 . S
C549 C550 1.415 . S
C550 H526 0.950 . S
C550 C545 1.363 . S
C550 C549 1.415 . S
C551 H527 0.951 . S
C551 C552 1.366 1_655 S
C551 C553 1.388 . S
C552 C551 1.366 1_455 S
C552 C556 1.366 1_455 S
C553 H528 0.951 . S
C553 C551 1.388 . S
C553 C554 1.366 . S
C554 C553 1.366 . S
C554 C555 1.414 . S
C554 C557 1.499 . S
C555 H529 0.950 . S
C555 C554 1.414 . S
C555 C556 1.374 . S
C556 H530 0.950 1_655 S
C556 C552 1.366 1_655 S
C556 C555 1.374 . S
C557 C554 1.499 . S
C557 C558 1.373 . S
C557 C559 1.389 . S
C558 H531 0.950 . S
C558 C544 1.377 . S
C558 C557 1.373 . S
C559 C543 1.377 . S
C559 C557 1.389 . S
C559 C560 1.524 . S
C560 C559 1.524 . S
C560 C561 1.397 . S
C560 C565 1.363 . S
C561 H532 0.950 . S
C561 C560 1.397 . S
C561 C562 1.352 . S
C562 H533 0.939 1_655 S
C562 C561 1.352 . S
C562 C563 1.281 . S
C563 C562 1.281 . S
C563 C564 1.524 . S
C563 H566 0.999 1_655 S
C564 H534 0.950 . S
C564 C563 1.524 . S
C564 C565 1.415 . S
C565 H535 0.950 . S
C565 C560 1.363 . S
C565 C564 1.415 . S
H566 C563 0.999 1_455 S
H567 C548 0.913 . S
H568 C586 0.951 . S
H569 C588 0.951 . S
H570 C590 0.950 . S
H571 C591 0.950 . S
H572 C593 0.950 . S
H573 C596 0.950 . S
H574 C597 0.950 . S
H575 C599 0.950 . S
H576 C600 0.950 . S
H577 C601 0.951 1_545 S
H578 C603 0.951 . S
H579 C605 0.950 . S
H580 C606 0.950 . S
H581 C608 0.950 . S
H582 C611 0.950 . S
H583 C612 0.950 . S
H584 C614 0.950 . S
H585 C615 0.950 . S
C586 H568 0.951 . S
C586 C587 1.366 . S
C586 C588 1.388 . S
C587 C586 1.366 . S
C587 C591 1.385 . S
C588 H569 0.951 . S
C588 C586 1.388 . S
C588 C589 1.366 . S
C589 C588 1.366 . S
C589 C590 1.414 . S
C589 C592 1.499 . S
C590 H570 0.950 . S
C590 C589 1.414 . S
C590 C591 1.374 . S
C591 H571 0.950 . S
C591 C587 1.385 . S
C591 C590 1.374 . S
C592 C589 1.499 . S
C592 C593 1.373 . S
C592 C594 1.389 . S
C593 H572 0.950 . S
C593 C592 1.373 . S
C593 C609 1.377 . S
C594 C592 1.389 . S
C594 C595 1.524 . S
C594 C608 1.377 . S
C595 C594 1.524 . S
C595 C596 1.397 . S
C595 C600 1.363 . S
C596 H573 0.950 . S
C596 C595 1.397 . S
C596 C597 1.334 . S
C597 H574 0.950 . S
C597 C596 1.334 . S
C597 C598 1.287 . S
C598 C597 1.287 . S
C598 C599 1.524 . S
C598 H617 0.913 . S
C599 H575 0.950 . S
C599 C598 1.524 . S
C599 C600 1.415 . S
C600 H576 0.950 . S
C600 C595 1.363 . S
C600 C599 1.415 . S
C601 H577 0.951 1_565 S
C601 C602 1.369 1_565 S
C601 C603 1.388 . S
C602 C601 1.369 1_545 S
C602 C606 1.351 1_545 S
C603 H578 0.951 . S
C603 C601 1.388 . S
C603 C604 1.366 . S
C604 C603 1.366 . S
C604 C605 1.414 . S
C604 C607 1.499 . S
C605 H579 0.950 . S
C605 C604 1.414 . S
C605 C606 1.374 . S
C606 H580 0.950 . S
C606 C602 1.351 1_565 S
C606 C605 1.374 . S
C607 C604 1.499 . S
C607 C608 1.373 . S
C607 C609 1.389 . S
C608 H581 0.950 . S
C608 C594 1.377 . S
C608 C607 1.373 . S
C609 C593 1.377 . S
C609 C607 1.389 . S
C609 C610 1.524 . S
C610 C609 1.524 . S
C610 C611 1.397 . S
C610 C615 1.363 . S
C611 H582 0.950 . S
C611 C610 1.397 . S
C611 C612 1.334 . S
C612 H583 0.950 . S
C612 C611 1.334 . S
C612 C613 1.287 . S
C613 C612 1.287 . S
C613 C614 1.524 . S
C613 H616 0.999 . S
C614 H584 0.950 . S
C614 C613 1.524 . S
C614 C615 1.415 . S
C615 H585 0.950 . S
C615 C610 1.363 . S
C615 C614 1.415 . S
H616 C613 0.999 . S
H617 C598 0.913 . S
H618 C636 0.951 . S
H619 C638 0.951 . S
H620 C640 0.950 . S
H621 C641 0.950 . S
H622 C643 0.950 . S
H623 C646 0.950 . S
H624 C647 0.950 . S
H625 C649 0.950 . S
H626 C650 0.950 . S
H627 C651 0.951 . S
H628 C653 0.951 . S
H629 C655 0.950 . S
H630 C656 0.950 . S
H631 C658 0.950 . S
H632 C661 0.950 . S
H633 C662 0.950 . S
H634 C664 0.950 . S
H635 C665 0.950 . S
C636 H618 0.951 . S
C636 C637 1.366 . S
C636 C638 1.388 . S
C637 C636 1.366 . S
C637 C641 1.385 . S
C638 H619 0.951 . S
C638 C636 1.388 . S
C638 C639 1.366 . S
C639 C638 1.366 . S
C639 C640 1.414 . S
C639 C642 1.499 . S
C640 H620 0.950 . S
C640 C639 1.414 . S
C640 C641 1.374 . S
C641 H621 0.950 . S
C641 C637 1.385 . S
C641 C640 1.374 . S
C642 C639 1.499 . S
C642 C643 1.373 . S
C642 C644 1.389 . S
C643 H622 0.950 . S
C643 C642 1.373 . S
C643 C659 1.377 . S
C644 C642 1.389 . S
C644 C645 1.524 . S
C644 C658 1.377 . S
C645 C644 1.524 . S
C645 C646 1.397 . S
C645 C650 1.363 . S
C646 H623 0.950 . S
C646 C645 1.397 . S
C646 C647 1.334 . S
C647 H624 0.950 . S
C647 C646 1.334 . S
C647 C648 1.287 . S
C648 C647 1.287 . S
C648 C649 1.524 . S
C648 H667 0.913 . S
C649 H625 0.950 . S
C649 C648 1.524 . S
C649 C650 1.415 . S
C650 H626 0.950 . S
C650 C645 1.363 . S
C650 C649 1.415 . S
C651 H627 0.951 . S
C651 C652 1.366 . S
C651 C653 1.388 . S
C652 C651 1.366 . S
C652 C656 1.385 . S
C653 H628 0.951 . S
C653 C651 1.388 . S
C653 C654 1.366 . S
C654 C653 1.366 . S
C654 C655 1.414 . S
C654 C657 1.499 . S
C655 H629 0.950 . S
C655 C654 1.414 . S
C655 C656 1.374 . S
C656 H630 0.950 . S
C656 C652 1.385 . S
C656 C655 1.374 . S
C657 C654 1.499 . S
C657 C658 1.373 . S
C657 C659 1.389 . S
C658 H631 0.950 . S
C658 C644 1.377 . S
C658 C657 1.373 . S
C659 C643 1.377 . S
C659 C657 1.389 . S
C659 C660 1.524 . S
C660 C659 1.524 . S
C660 C661 1.397 . S
C660 C665 1.363 . S
C661 H632 0.950 . S
C661 C660 1.397 . S
C661 C662 1.334 . S
C662 H633 0.950 . S
C662 C661 1.334 . S
C662 C663 1.287 . S
C663 C662 1.287 . S
C663 C664 1.524 . S
C663 H666 0.999 . S
C664 H634 0.950 . S
C664 C663 1.524 . S
C664 C665 1.415 . S
C665 H635 0.950 . S
C665 C660 1.363 . S
C665 C664 1.415 . S
H666 C663 0.999 . S
H667 C648 0.913 . S
H668 C686 0.951 . S
H669 C688 0.951 . S
H670 C690 0.950 . S
H671 C691 0.950 1_655 S
H672 C693 0.950 . S
H673 C696 0.950 . S
H674 C697 0.950 . S
H675 C699 0.950 . S
H676 C700 0.950 . S
H677 C701 0.951 . S
H678 C703 0.951 . S
H679 C705 0.950 . S
H680 C706 0.950 . S
H681 C708 0.950 . S
H682 C711 0.950 . S
H683 C712 0.950 . S
H684 C714 0.950 . S
H685 C715 0.950 . S
C686 H668 0.951 . S
C686 C687 1.368 1_455 S
C686 C688 1.388 . S
C687 C686 1.368 1_655 S
C687 C691 1.362 1_655 S
C688 H669 0.951 . S
C688 C686 1.388 . S
C688 C689 1.366 . S
C689 C688 1.366 . S
C689 C690 1.414 . S
C689 C692 1.499 . S
C690 H670 0.950 . S
C690 C689 1.414 . S
C690 C691 1.374 . S
C691 H671 0.950 1_455 S
C691 C687 1.362 1_455 S
C691 C690 1.374 . S
C692 C689 1.499 . S
C692 C693 1.373 . S
C692 C694 1.389 . S
C693 H672 0.950 . S
C693 C692 1.373 . S
C693 C709 1.377 . S
C694 C692 1.389 . S
C694 C695 1.524 . S
C694 C708 1.377 . S
C695 C694 1.524 . S
C695 C696 1.397 . S
C695 C700 1.363 . S
C696 H673 0.950 . S
C696 C695 1.397 . S
C696 C697 1.334 . S
C697 H674 0.950 . S
C697 C696 1.334 . S
C697 C698 1.287 . S
C698 C697 1.287 . S
C698 C699 1.524 . S
C698 H717 0.913 . S
C699 H675 0.950 . S
C699 C698 1.524 . S
C699 C700 1.415 . S
C700 H676 0.950 . S
C700 C695 1.363 . S
C700 C699 1.415 . S
C701 H677 0.951 . S
C701 C702 1.366 . S
C701 C703 1.388 . S
C702 C701 1.366 . S
C702 C706 1.385 . S
C703 H678 0.951 . S
C703 C701 1.388 . S
C703 C704 1.366 . S
C704 C703 1.366 . S
C704 C705 1.414 . S
C704 C707 1.499 . S
C705 H679 0.950 . S
C705 C704 1.414 . S
C705 C706 1.374 . S
C706 H680 0.950 . S
C706 C702 1.385 . S
C706 C705 1.374 . S
C707 C704 1.499 . S
C707 C708 1.373 . S
C707 C709 1.389 . S
C708 H681 0.950 . S
C708 C694 1.377 . S
C708 C707 1.373 . S
C709 C693 1.377 . S
C709 C707 1.389 . S
C709 C710 1.524 . S
C710 C709 1.524 . S
C710 C711 1.397 . S
C710 C715 1.363 . S
C711 H682 0.950 . S
C711 C710 1.397 . S
C711 C712 1.334 . S
C712 H683 0.950 . S
C712 C711 1.334 . S
C712 C713 1.287 . S
C713 C712 1.287 . S
C713 C714 1.524 . S
C713 H716 0.999 . S
C714 H684 0.950 . S
C714 C713 1.524 . S
C714 C715 1.415 . S
C715 H685 0.950 . S
C715 C710 1.363 . S
C715 C714 1.415 . S
H716 C713 0.999 . S
H717 C698 0.913 . S
H718 C736 0.951 . S
H719 C738 0.951 . S
H720 C740 0.950 . S
H721 C741 0.950 . S
H722 C743 0.950 . S
H723 C746 0.950 . S
H724 C747 0.950 . S
H725 C749 0.950 . S
H726 C750 0.950 . S
H727 C751 0.951 . S
H728 C753 0.951 . S
H729 C755 0.950 . S
H730 C756 0.950 . S
H731 C758 0.950 . S
H732 C761 0.950 . S
H733 C762 0.950 . S
H734 C764 0.950 . S
H735 C765 0.950 . S
C736 H718 0.951 . S
C736 C737 1.346 1_545 S
C736 C738 1.388 . S
C737 C736 1.346 1_565 S
C737 C741 1.376 . S
C738 H719 0.951 . S
C738 C736 1.388 . S
C738 C739 1.366 . S
C739 C738 1.366 . S
C739 C740 1.414 . S
C739 C742 1.499 . S
C740 H720 0.950 . S
C740 C739 1.414 . S
C740 C741 1.374 1_545 S
C741 H721 0.950 . S
C741 C737 1.376 . S
C741 C740 1.374 1_565 S
C742 C739 1.499 . S
C742 C743 1.373 . S
C742 C744 1.389 . S
C743 H722 0.950 . S
C743 C742 1.373 . S
C743 C759 1.377 . S
C744 C742 1.389 . S
C744 C745 1.524 . S
C744 C758 1.377 . S
C745 C744 1.524 . S
C745 C746 1.397 . S
C745 C750 1.363 . S
C746 H723 0.950 . S
C746 C745 1.397 . S
C746 C747 1.334 . S
C747 H724 0.950 . S
C747 C746 1.334 . S
C747 C748 1.287 . S
C748 C747 1.287 . S
C748 C749 1.524 . S
C748 H767 0.913 . S
C749 H725 0.950 . S
C749 C748 1.524 . S
C749 C750 1.415 . S
C750 H726 0.950 . S
C750 C745 1.363 . S
C750 C749 1.415 . S
C751 H727 0.951 . S
C751 C752 1.366 . S
C751 C753 1.388 . S
C752 C751 1.366 . S
C752 C756 1.385 . S
C753 H728 0.951 . S
C753 C751 1.388 . S
C753 C754 1.366 . S
C754 C753 1.366 . S
C754 C755 1.414 . S
C754 C757 1.499 . S
C755 H729 0.950 . S
C755 C754 1.414 . S
C755 C756 1.374 . S
C756 H730 0.950 . S
C756 C752 1.385 . S
C756 C755 1.374 . S
C757 C754 1.499 . S
C757 C758 1.373 . S
C757 C759 1.389 . S
C758 H731 0.950 . S
C758 C744 1.377 . S
C758 C757 1.373 . S
C759 C743 1.377 . S
C759 C757 1.389 . S
C759 C760 1.524 . S
C760 C759 1.524 . S
C760 C761 1.397 . S
C760 C765 1.363 . S
C761 H732 0.950 . S
C761 C760 1.397 . S
C761 C762 1.334 . S
C762 H733 0.950 . S
C762 C761 1.334 . S
C762 C763 1.287 . S
C763 C762 1.287 . S
C763 C764 1.524 . S
C763 H766 0.999 . S
C764 H734 0.950 . S
C764 C763 1.524 . S
C764 C765 1.415 . S
C765 H735 0.950 . S
C765 C760 1.363 . S
C765 C764 1.415 . S
H766 C763 0.999 . S
H767 C748 0.913 . S
H768 C786 0.951 . S
H769 C788 0.951 . S
H770 C790 0.950 . S
H771 C791 0.950 . S
H772 C793 0.950 . S
H773 C796 0.950 . S
H774 C797 0.950 . S
H775 C799 0.950 . S
H776 C800 0.950 . S
H777 C801 0.951 . S
H778 C803 0.951 . S
H779 C805 0.950 . S
H780 C806 0.950 . S
H781 C808 0.950 . S
H782 C811 0.950 . S
H783 C812 0.950 . S
H784 C814 0.950 . S
H785 C815 0.950 . S
C786 H768 0.951 . S
C786 C787 1.366 . S
C786 C788 1.388 . S
C787 C786 1.366 . S
C787 C791 1.385 . S
C788 H769 0.951 . S
C788 C786 1.388 . S
C788 C789 1.366 . S
C789 C788 1.366 . S
C789 C790 1.414 . S
C789 C792 1.499 . S
C790 H770 0.950 . S
C790 C789 1.414 . S
C790 C791 1.374 . S
C791 H771 0.950 . S
C791 C787 1.385 . S
C791 C790 1.374 . S
C792 C789 1.499 . S
C792 C793 1.373 . S
C792 C794 1.389 . S
C793 H772 0.950 . S
C793 C792 1.373 . S
C793 C809 1.377 . S
C794 C792 1.389 . S
C794 C795 1.524 . S
C794 C808 1.377 . S
C795 C794 1.524 . S
C795 C796 1.397 . S
C795 C800 1.363 . S
C796 H773 0.950 . S
C796 C795 1.397 . S
C796 C797 1.334 . S
C797 H774 0.950 . S
C797 C796 1.334 . S
C797 C798 1.287 . S
C798 C797 1.287 . S
C798 C799 1.524 . S
C798 H817 0.913 . S
C799 H775 0.950 . S
C799 C798 1.524 . S
C799 C800 1.415 . S
C800 H776 0.950 . S
C800 C795 1.363 . S
C800 C799 1.415 . S
C801 H777 0.951 . S
C801 C802 1.366 . S
C801 C803 1.388 . S
C802 C801 1.366 . S
C802 C806 1.385 . S
C803 H778 0.951 . S
C803 C801 1.388 . S
C803 C804 1.366 . S
C804 C803 1.366 . S
C804 C805 1.414 . S
C804 C807 1.499 . S
C805 H779 0.950 . S
C805 C804 1.414 . S
C805 C806 1.374 . S
C806 H780 0.950 . S
C806 C802 1.385 . S
C806 C805 1.374 . S
C807 C804 1.499 . S
C807 C808 1.373 . S
C807 C809 1.389 . S
C808 H781 0.950 . S
C808 C794 1.377 . S
C808 C807 1.373 . S
C809 C793 1.377 . S
C809 C807 1.389 . S
C809 C810 1.524 . S
C810 C809 1.524 . S
C810 C811 1.397 . S
C810 C815 1.363 . S
C811 H782 0.950 . S
C811 C810 1.397 . S
C811 C812 1.334 . S
C812 H783 0.950 . S
C812 C811 1.334 . S
C812 C813 1.287 . S
C813 C812 1.287 . S
C813 C814 1.524 . S
C813 H816 0.999 . S
C814 H784 0.950 . S
C814 C813 1.524 . S
C814 C815 1.415 . S
C815 H785 0.950 . S
C815 C810 1.363 . S
C815 C814 1.415 . S
H816 C813 0.999 . S
H817 C798 0.913 . S
H818 C836 0.951 . S
H819 C838 0.951 . S
H820 C840 0.950 . S
H821 C841 0.950 . S
H822 C843 0.950 . S
H823 C846 0.950 . S
H824 C847 0.950 . S
H825 C849 0.950 . S
H826 C850 0.950 . S
H827 C851 0.951 . S
H828 C853 0.951 . S
H829 C855 0.950 . S
H830 C856 0.950 . S
H831 C858 0.950 . S
H832 C861 0.921 1_556 S
H833 C862 0.950 . S
H834 C864 0.950 . S
H835 C865 0.950 . S
C836 H818 0.951 . S
C836 C837 1.366 . S
C836 C838 1.388 . S
C837 C836 1.366 . S
C837 C841 1.385 . S
C838 H819 0.951 . S
C838 C836 1.388 . S
C838 C839 1.366 . S
C839 C838 1.366 . S
C839 C840 1.414 . S
C839 C842 1.499 . S
C840 H820 0.950 . S
C840 C839 1.414 . S
C840 C841 1.374 . S
C841 H821 0.950 . S
C841 C837 1.385 . S
C841 C840 1.374 . S
C842 C839 1.499 . S
C842 C843 1.373 . S
C842 C844 1.389 . S
C843 H822 0.950 . S
C843 C842 1.373 . S
C843 C859 1.377 . S
C844 C842 1.389 . S
C844 C845 1.524 . S
C844 C858 1.377 . S
C845 C844 1.524 . S
C845 C846 1.397 . S
C845 C850 1.363 . S
C846 H823 0.950 . S
C846 C845 1.397 . S
C846 C847 1.334 . S
C847 H824 0.950 . S
C847 C846 1.334 . S
C847 C848 1.287 . S
C848 C847 1.287 . S
C848 C849 1.524 . S
C848 H867 0.913 . S
C849 H825 0.950 . S
C849 C848 1.524 . S
C849 C850 1.415 . S
C850 H826 0.950 . S
C850 C845 1.363 . S
C850 C849 1.415 . S
C851 H827 0.951 . S
C851 C852 1.334 1_655 S
C851 C853 1.388 . S
C852 C851 1.334 1_455 S
C852 C856 1.387 1_554 S
C853 H828 0.951 . S
C853 C851 1.388 . S
C853 C854 1.366 1_554 S
C854 C853 1.366 1_556 S
C854 C855 1.414 . S
C854 C857 1.499 . S
C855 H829 0.950 . S
C855 C854 1.414 . S
C855 C856 1.374 1_655 S
C856 H830 0.950 . S
C856 C852 1.387 1_556 S
C856 C855 1.374 1_455 S
C857 C854 1.499 . S
C857 C858 1.373 . S
C857 C859 1.389 . S
C858 H831 0.950 . S
C858 C844 1.377 . S
C858 C857 1.373 . S
C859 C843 1.377 . S
C859 C857 1.389 . S
C859 C860 1.524 1_556 S
C860 C859 1.524 1_554 S
C860 C861 1.400 . S
C860 C865 1.363 . S
C861 H832 0.921 1_554 S
C861 C860 1.400 . S
C861 C862 1.361 . S
C862 H833 0.950 . S
C862 C861 1.361 . S
C862 C863 1.287 . S
C863 C862 1.287 . S
C863 C864 1.524 . S
C863 H866 0.999 . S
C864 H834 0.950 . S
C864 C863 1.524 . S
C864 C865 1.415 . S
C865 H835 0.950 . S
C865 C860 1.363 . S
C865 C864 1.415 . S
H866 C863 0.999 . S
H867 C848 0.913 . S
H868 C886 0.951 . S
H869 C888 0.951 . S
H870 C890 0.950 . S
H871 C891 0.950 . S
H872 C893 0.950 . S
H873 C896 0.950 . S
H874 C897 0.950 . S
H875 C899 0.950 . S
H876 C900 0.950 . S
H877 C901 0.951 . S
H878 C903 0.951 . S
H879 C905 0.950 . S
H880 C906 0.950 . S
H881 C908 0.950 . S
H882 C911 0.950 . S
H883 C912 0.950 . S
H884 C914 0.950 . S
H885 C915 0.950 . S
C886 H868 0.951 . S
C886 C887 1.333 1_565 S
C886 C888 1.388 . S
C887 C886 1.333 1_545 S
C887 C891 1.398 . S
C888 H869 0.951 . S
C888 C886 1.388 . S
C888 C889 1.366 . S
C889 C888 1.366 . S
C889 C890 1.414 . S
C889 C892 1.499 . S
C890 H870 0.950 . S
C890 C889 1.414 . S
C890 C891 1.374 1_565 S
C891 H871 0.950 . S
C891 C887 1.398 . S
C891 C890 1.374 1_545 S
C892 C889 1.499 . S
C892 C893 1.373 . S
C892 C894 1.389 . S
C893 H872 0.950 . S
C893 C892 1.373 . S
C893 C909 1.377 . S
C894 C892 1.389 . S
C894 C895 1.524 . S
C894 C908 1.377 . S
C895 C894 1.524 . S
C895 C896 1.397 . S
C895 C900 1.363 . S
C896 H873 0.950 . S
C896 C895 1.397 . S
C896 C897 1.334 . S
C897 H874 0.950 . S
C897 C896 1.334 . S
C897 C898 1.287 . S
C898 C897 1.287 . S
C898 C899 1.524 . S
C898 H917 0.913 . S
C899 H875 0.950 . S
C899 C898 1.524 . S
C899 C900 1.415 . S
C900 H876 0.950 . S
C900 C895 1.363 . S
C900 C899 1.415 . S
C901 H877 0.951 . S
C901 C902 1.366 . S
C901 C903 1.388 . S
C902 C901 1.366 . S
C902 C906 1.385 . S
C903 H878 0.951 . S
C903 C901 1.388 . S
C903 C904 1.366 . S
C904 C903 1.366 . S
C904 C905 1.414 . S
C904 C907 1.499 . S
C905 H879 0.950 . S
C905 C904 1.414 . S
C905 C906 1.374 . S
C906 H880 0.950 . S
C906 C902 1.385 . S
C906 C905 1.374 . S
C907 C904 1.499 . S
C907 C908 1.373 . S
C907 C909 1.389 . S
C908 H881 0.950 . S
C908 C894 1.377 . S
C908 C907 1.373 . S
C909 C893 1.377 . S
C909 C907 1.389 . S
C909 C910 1.524 . S
C910 C909 1.524 . S
C910 C911 1.397 . S
C910 C915 1.363 . S
C911 H882 0.950 . S
C911 C910 1.397 . S
C911 C912 1.334 . S
C912 H883 0.950 . S
C912 C911 1.334 . S
C912 C913 1.287 . S
C913 C912 1.287 . S
C913 C914 1.524 . S
C913 H916 0.999 . S
C914 H884 0.950 . S
C914 C913 1.524 . S
C914 C915 1.415 . S
C915 H885 0.950 . S
C915 C910 1.363 . S
C915 C914 1.415 . S
H916 C913 0.999 . S
H917 C898 0.913 . S
H918 C936 0.951 . S
H919 C938 0.951 . S
H920 C940 0.950 . S
H921 C941 0.950 . S
H922 C943 0.950 . S
H923 C946 0.950 . S
H924 C947 0.950 . S
H925 C949 0.950 . S
H926 C950 0.950 . S
H927 C951 0.951 . S
H928 C953 0.951 . S
H929 C955 0.950 . S
H930 C956 0.950 . S
H931 C958 0.950 . S
H932 C961 0.950 . S
H933 C962 0.950 . S
H934 C964 0.950 . S
H935 C965 0.950 . S
C936 H918 0.951 . S
C936 C937 1.366 . S
C936 C938 1.388 . S
C937 C936 1.366 . S
C937 C941 1.385 . S
C938 H919 0.951 . S
C938 C936 1.388 . S
C938 C939 1.366 . S
C939 C938 1.366 . S
C939 C940 1.414 . S
C939 C942 1.499 . S
C940 H920 0.950 . S
C940 C939 1.414 . S
C940 C941 1.374 . S
C941 H921 0.950 . S
C941 C937 1.385 . S
C941 C940 1.374 . S
C942 C939 1.499 . S
C942 C943 1.373 . S
C942 C944 1.389 . S
C943 H922 0.950 . S
C943 C942 1.373 . S
C943 C959 1.377 . S
C944 C942 1.389 . S
C944 C945 1.524 . S
C944 C958 1.377 . S
C945 C944 1.524 . S
C945 C946 1.397 . S
C945 C950 1.363 . S
C946 H923 0.950 . S
C946 C945 1.397 . S
C946 C947 1.334 . S
C947 H924 0.950 . S
C947 C946 1.334 . S
C947 C948 1.287 . S
C948 C947 1.287 . S
C948 C949 1.524 . S
C948 H967 0.913 . S
C949 H925 0.950 . S
C949 C948 1.524 . S
C949 C950 1.415 . S
C950 H926 0.950 . S
C950 C945 1.363 . S
C950 C949 1.415 . S
C951 H927 0.951 . S
C951 C952 1.366 . S
C951 C953 1.388 . S
C952 C951 1.366 . S
C952 C956 1.385 . S
C953 H928 0.951 . S
C953 C951 1.388 . S
C953 C954 1.366 . S
C954 C953 1.366 . S
C954 C955 1.414 . S
C954 C957 1.499 . S
C955 H929 0.950 . S
C955 C954 1.414 . S
C955 C956 1.374 . S
C956 H930 0.950 . S
C956 C952 1.385 . S
C956 C955 1.374 . S
C957 C954 1.499 . S
C957 C958 1.373 . S
C957 C959 1.389 . S
C958 H931 0.950 . S
C958 C944 1.377 . S
C958 C957 1.373 . S
C959 C943 1.377 . S
C959 C957 1.389 . S
C959 C960 1.524 . S
C960 C959 1.524 . S
C960 C961 1.397 . S
C960 C965 1.363 . S
C961 H932 0.950 . S
C961 C960 1.397 . S
C961 C962 1.334 . S
C962 H933 0.950 . S
C962 C961 1.334 . S
C962 C963 1.287 . S
C963 C962 1.287 . S
C963 C964 1.524 . S
C963 H966 0.999 . S
C964 H934 0.950 . S
C964 C963 1.524 . S
C964 C965 1.415 . S
C965 H935 0.950 . S
C965 C960 1.363 . S
C965 C964 1.415 . S
H966 C963 0.999 . S
H967 C948 0.913 . S
H968 C986 0.951 . S
H969 C988 0.951 . S
H970 C990 0.950 . S
H971 C991 0.950 . S
H972 C993 0.950 . S
H973 C996 0.950 . S
H974 C997 0.950 . S
H975 C999 0.950 . S
H976 C1000 0.950 . S
H977 C1001 0.951 . S
H978 C1003 0.951 . S
H979 C1005 0.950 . S
H980 C1006 0.950 1_655 S
H981 C1008 0.950 . S
H982 C1011 0.950 . S
H983 C1012 0.950 1_655 S
H984 C1014 0.950 . S
H985 C1015 0.950 . S
C986 H968 0.951 . S
C986 C987 1.366 . S
C986 C988 1.388 . S
C987 C986 1.366 . S
C987 C991 1.385 . S
C988 H969 0.951 . S
C988 C986 1.388 . S
C988 C989 1.366 . S
C989 C988 1.366 . S
C989 C990 1.414 . S
C989 C992 1.499 . S
C990 H970 0.950 . S
C990 C989 1.414 . S
C990 C991 1.374 . S
C991 H971 0.950 . S
C991 C987 1.385 . S
C991 C990 1.374 . S
C992 C989 1.499 . S
C992 C993 1.373 . S
C992 C994 1.389 . S
C993 H972 0.950 . S
C993 C992 1.373 . S
C993 C1009 1.377 . S
C994 C992 1.389 . S
C994 C995 1.524 . S
C994 C1008 1.377 . S
C995 C994 1.524 . S
C995 C996 1.397 . S
C995 C1000 1.363 . S
C996 H973 0.950 . S
C996 C995 1.397 . S
C996 C997 1.334 . S
C997 H974 0.950 . S
C997 C996 1.334 . S
C997 C998 1.287 . S
C998 C997 1.287 . S
C998 C999 1.524 . S
C998 H1017 0.913 . S
C999 H975 0.950 . S
C999 C998 1.524 . S
C999 C1000 1.415 . S
C1000 H976 0.950 . S
C1000 C995 1.363 . S
C1000 C999 1.415 . S
C1001 H977 0.951 . S
C1001 C1002 1.334 1_455 S
C1001 C1003 1.388 . S
C1002 C1001 1.334 1_655 S
C1002 C1006 1.388 1_655 S
C1003 H978 0.951 . S
C1003 C1001 1.388 . S
C1003 C1004 1.366 . S
C1004 C1003 1.366 . S
C1004 C1005 1.414 . S
C1004 C1007 1.499 . S
C1005 H979 0.950 . S
C1005 C1004 1.414 . S
C1005 C1006 1.374 . S
C1006 H980 0.950 1_455 S
C1006 C1002 1.388 1_455 S
C1006 C1005 1.374 . S
C1007 C1004 1.499 . S
C1007 C1008 1.373 . S
C1007 C1009 1.389 . S
C1008 H981 0.950 . S
C1008 C994 1.377 . S
C1008 C1007 1.373 . S
C1009 C993 1.377 . S
C1009 C1007 1.389 . S
C1009 C1010 1.524 . S
C1010 C1009 1.524 . S
C1010 C1011 1.397 . S
C1010 C1015 1.363 . S
C1011 H982 0.950 . S
C1011 C1010 1.397 . S
C1011 C1012 1.334 . S
C1012 H983 0.950 1_455 S
C1012 C1011 1.334 . S
C1012 C1013 1.287 . S
C1013 C1012 1.287 . S
C1013 C1014 1.524 . S
C1013 H1016 0.999 . S
C1014 H984 0.950 . S
C1014 C1013 1.524 . S
C1014 C1015 1.415 . S
C1015 H985 0.950 . S
C1015 C1010 1.363 . S
C1015 C1014 1.415 . S
H1016 C1013 0.999 . S
H1017 C998 0.913 . S
H1018 C1036 0.951 . S
H1019 C1038 0.951 . S
H1020 C1040 0.950 . S
H1021 C1041 0.950 . S
H1022 C1043 0.950 . S
H1023 C1046 0.950 . S
H1024 C1047 0.950 . S
H1025 C1049 0.950 . S
H1026 C1050 0.950 . S
H1027 C1051 0.951 . S
H1028 C1053 0.951 . S
H1029 C1055 0.950 . S
H1030 C1056 0.950 1_565 S
H1031 C1058 0.950 . S
H1032 C1061 0.950 . S
H1033 C1062 0.950 1_565 S
H1034 C1064 0.950 . S
H1035 C1065 0.950 . S
C1036 H1018 0.951 . S
C1036 C1037 1.366 . S
C1036 C1038 1.388 . S
C1037 C1036 1.366 . S
C1037 C1041 1.385 . S
C1038 H1019 0.951 . S
C1038 C1036 1.388 . S
C1038 C1039 1.366 . S
C1039 C1038 1.366 . S
C1039 C1040 1.414 . S
C1039 C1042 1.499 . S
C1040 H1020 0.950 . S
C1040 C1039 1.414 . S
C1040 C1041 1.374 . S
C1041 H1021 0.950 . S
C1041 C1037 1.385 . S
C1041 C1040 1.374 . S
C1042 C1039 1.499 . S
C1042 C1043 1.373 . S
C1042 C1044 1.389 . S
C1043 H1022 0.950 . S
C1043 C1042 1.373 . S
C1043 C1059 1.377 . S
C1044 C1042 1.389 . S
C1044 C1045 1.524 . S
C1044 C1058 1.377 . S
C1045 C1044 1.524 . S
C1045 C1046 1.397 . S
C1045 C1050 1.363 . S
C1046 H1023 0.950 . S
C1046 C1045 1.397 . S
C1046 C1047 1.334 . S
C1047 H1024 0.950 . S
C1047 C1046 1.334 . S
C1047 C1048 1.287 . S
C1048 C1047 1.287 . S
C1048 C1049 1.524 . S
C1048 H1067 0.913 . S
C1049 H1025 0.950 . S
C1049 C1048 1.524 . S
C1049 C1050 1.415 . S
C1050 H1026 0.950 . S
C1050 C1045 1.363 . S
C1050 C1049 1.415 . S
C1051 H1027 0.951 . S
C1051 C1052 1.362 1_545 S
C1051 C1053 1.388 . S
C1052 C1051 1.362 1_565 S
C1052 C1056 1.371 1_565 S
C1053 H1028 0.951 . S
C1053 C1051 1.388 . S
C1053 C1054 1.366 . S
C1054 C1053 1.366 . S
C1054 C1055 1.414 . S
C1054 C1057 1.499 . S
C1055 H1029 0.950 . S
C1055 C1054 1.414 . S
C1055 C1056 1.374 . S
C1056 H1030 0.950 1_545 S
C1056 C1052 1.371 1_545 S
C1056 C1055 1.374 . S
C1057 C1054 1.499 . S
C1057 C1058 1.373 . S
C1057 C1059 1.389 . S
C1058 H1031 0.950 . S
C1058 C1044 1.377 . S
C1058 C1057 1.373 . S
C1059 C1043 1.377 . S
C1059 C1057 1.389 . S
C1059 C1060 1.524 . S
C1060 C1059 1.524 . S
C1060 C1061 1.397 . S
C1060 C1065 1.363 . S
C1061 H1032 0.950 . S
C1061 C1060 1.397 . S
C1061 C1062 1.334 . S
C1062 H1033 0.950 1_545 S
C1062 C1061 1.334 . S
C1062 C1063 1.287 . S
C1063 C1062 1.287 . S
C1063 C1064 1.524 . S
C1063 H1066 1.005 . S
C1064 H1034 0.950 . S
C1064 C1063 1.524 . S
C1064 C1065 1.415 . S
C1065 H1035 0.950 . S
C1065 C1060 1.363 . S
C1065 C1064 1.415 . S
H1066 C1063 1.005 . S
H1067 C1048 0.913 . S
H1068 C1086 0.951 . S
H1069 C1088 0.951 . S
H1070 C1090 0.950 . S
H1071 C1091 0.950 . S
H1072 C1093 0.950 . S
H1073 C1096 0.950 . S
H1074 C1097 0.950 . S
H1075 C1099 0.950 . S
H1076 C1100 0.950 . S
H1077 C1101 0.951 . S
H1078 C1103 0.951 . S
H1079 C1105 0.950 . S
H1080 C1106 0.950 . S
H1081 C1108 0.950 . S
H1082 C1111 0.950 . S
H1083 C1112 0.950 . S
H1084 C1114 0.950 . S
H1085 C1115 0.950 . S
C1086 H1068 0.951 . S
C1086 C1087 1.366 . S
C1086 C1088 1.388 . S
C1087 C1086 1.366 . S
C1087 C1091 1.385 . S
C1088 H1069 0.951 . S
C1088 C1086 1.388 . S
C1088 C1089 1.366 . S
C1089 C1088 1.366 . S
C1089 C1090 1.414 . S
C1089 C1092 1.499 . S
C1090 H1070 0.950 . S
C1090 C1089 1.414 . S
C1090 C1091 1.374 . S
C1091 H1071 0.950 . S
C1091 C1087 1.385 . S
C1091 C1090 1.374 . S
C1092 C1089 1.499 . S
C1092 C1093 1.373 . S
C1092 C1094 1.389 . S
C1093 H1072 0.950 . S
C1093 C1092 1.373 . S
C1093 C1109 1.377 . S
C1094 C1092 1.389 . S
C1094 C1095 1.524 . S
C1094 C1108 1.377 . S
C1095 C1094 1.524 . S
C1095 C1096 1.397 . S
C1095 C1100 1.363 . S
C1096 H1073 0.950 . S
C1096 C1095 1.397 . S
C1096 C1097 1.334 . S
C1097 H1074 0.950 . S
C1097 C1096 1.334 . S
C1097 C1098 1.287 . S
C1098 C1097 1.287 . S
C1098 C1099 1.524 . S
C1098 H1117 0.913 . S
C1099 H1075 0.950 . S
C1099 C1098 1.524 . S
C1099 C1100 1.415 . S
C1100 H1076 0.950 . S
C1100 C1095 1.363 . S
C1100 C1099 1.415 . S
C1101 H1077 0.951 . S
C1101 C1102 1.366 . S
C1101 C1103 1.388 . S
C1102 C1101 1.366 . S
C1102 C1106 1.385 . S
C1103 H1078 0.951 . S
C1103 C1101 1.388 . S
C1103 C1104 1.366 . S
C1104 C1103 1.366 . S
C1104 C1105 1.414 . S
C1104 C1107 1.499 . S
C1105 H1079 0.950 . S
C1105 C1104 1.414 . S
C1105 C1106 1.374 . S
C1106 H1080 0.950 . S
C1106 C1102 1.385 . S
C1106 C1105 1.374 . S
C1107 C1104 1.499 . S
C1107 C1108 1.373 . S
C1107 C1109 1.389 . S
C1108 H1081 0.950 . S
C1108 C1094 1.377 . S
C1108 C1107 1.373 . S
C1109 C1093 1.377 . S
C1109 C1107 1.389 . S
C1109 C1110 1.524 . S
C1110 C1109 1.524 . S
C1110 C1111 1.397 . S
C1110 C1115 1.363 . S
C1111 H1082 0.950 . S
C1111 C1110 1.397 . S
C1111 C1112 1.334 . S
C1112 H1083 0.950 . S
C1112 C1111 1.334 . S
C1112 C1113 1.287 . S
C1113 C1112 1.287 . S
C1113 C1114 1.524 . S
C1113 H1116 0.999 . S
C1114 H1084 0.950 . S
C1114 C1113 1.524 . S
C1114 C1115 1.415 . S
C1115 H1085 0.950 . S
C1115 C1110 1.363 . S
C1115 C1114 1.415 . S
H1116 C1113 0.999 . S
H1117 C1098 0.913 . S
H1118 C1136 0.951 . S
H1119 C1138 0.951 . S
H1120 C1140 0.950 . S
H1121 C1141 0.950 . S
H1122 C1143 0.950 . S
H1123 C1146 0.950 . S
H1124 C1147 0.950 . S
H1125 C1149 0.950 . S
H1126 C1150 0.950 . S
H1127 C1151 0.951 . S
H1128 C1153 0.951 . S
H1129 C1155 0.950 . S
H1130 C1156 0.950 . S
H1131 C1158 0.950 . S
H1132 C1161 0.950 . S
H1133 C1162 0.950 . S
H1134 C1164 0.950 . S
H1135 C1165 0.950 . S
C1136 H1118 0.951 . S
C1136 C1137 1.366 . S
C1136 C1138 1.388 . S
C1137 C1136 1.366 . S
C1137 C1141 1.385 . S
C1138 H1119 0.951 . S
C1138 C1136 1.388 . S
C1138 C1139 1.366 . S
C1139 C1138 1.366 . S
C1139 C1140 1.414 . S
C1139 C1142 1.499 . S
C1140 H1120 0.950 . S
C1140 C1139 1.414 . S
C1140 C1141 1.374 . S
C1141 H1121 0.950 . S
C1141 C1137 1.385 . S
C1141 C1140 1.374 . S
C1142 C1139 1.499 . S
C1142 C1143 1.373 . S
C1142 C1144 1.389 . S
C1143 H1122 0.950 . S
C1143 C1142 1.373 . S
C1143 C1159 1.377 . S
C1144 C1142 1.389 . S
C1144 C1145 1.524 . S
C1144 C1158 1.377 . S
C1145 C1144 1.524 . S
C1145 C1146 1.397 . S
C1145 C1150 1.363 . S
C1146 H1123 0.950 . S
C1146 C1145 1.397 . S
C1146 C1147 1.334 . S
C1147 H1124 0.950 . S
C1147 C1146 1.334 . S
C1147 C1148 1.287 . S
C1148 C1147 1.287 . S
C1148 C1149 1.524 . S
C1148 H1167 0.913 . S
C1149 H1125 0.950 . S
C1149 C1148 1.524 . S
C1149 C1150 1.415 . S
C1150 H1126 0.950 . S
C1150 C1145 1.363 . S
C1150 C1149 1.415 . S
C1151 H1127 0.951 . S
C1151 C1152 1.366 . S
C1151 C1153 1.388 . S
C1152 C1151 1.366 . S
C1152 C1156 1.385 . S
C1153 H1128 0.951 . S
C1153 C1151 1.388 . S
C1153 C1154 1.366 . S
C1154 C1153 1.366 . S
C1154 C1155 1.414 . S
C1154 C1157 1.499 . S
C1155 H1129 0.950 . S
C1155 C1154 1.414 . S
C1155 C1156 1.374 . S
C1156 H1130 0.950 . S
C1156 C1152 1.385 . S
C1156 C1155 1.374 . S
C1157 C1154 1.499 . S
C1157 C1158 1.373 . S
C1157 C1159 1.389 . S
C1158 H1131 0.950 . S
C1158 C1144 1.377 . S
C1158 C1157 1.373 . S
C1159 C1143 1.377 . S
C1159 C1157 1.389 . S
C1159 C1160 1.524 . S
C1160 C1159 1.524 . S
C1160 C1161 1.397 . S
C1160 C1165 1.363 . S
C1161 H1132 0.950 . S
C1161 C1160 1.397 . S
C1161 C1162 1.334 . S
C1162 H1133 0.950 . S
C1162 C1161 1.334 . S
C1162 C1163 1.287 . S
C1163 C1162 1.287 . S
C1163 C1164 1.524 . S
C1163 H1166 0.999 . S
C1164 H1134 0.950 . S
C1164 C1163 1.524 . S
C1164 C1165 1.415 . S
C1165 H1135 0.950 . S
C1165 C1160 1.363 . S
C1165 C1164 1.415 . S
H1166 C1163 0.999 . S
H1167 C1148 0.913 . S
H1168 C1186 0.951 . S
H1169 C1188 0.951 . S
H1170 C1190 0.950 . S
H1171 C1191 0.950 . S
H1172 C1193 0.950 . S
H1173 C1196 0.950 . S
H1174 C1197 0.950 . S
H1175 C1199 0.950 . S
H1176 C1200 0.950 . S
H1177 C1201 0.951 . S
H1178 C1203 0.951 . S
H1179 C1205 0.950 . S
H1180 C1206 0.950 . S
H1181 C1208 0.950 . S
H1182 C1211 0.950 . S
H1183 C1212 0.950 . S
H1184 C1214 0.950 . S
H1185 C1215 0.950 . S
C1186 H1168 0.951 . S
C1186 C1187 1.366 . S
C1186 C1188 1.388 . S
C1187 C1186 1.366 . S
C1187 C1191 1.385 . S
C1188 H1169 0.951 . S
C1188 C1186 1.388 . S
C1188 C1189 1.366 . S
C1189 C1188 1.366 . S
C1189 C1190 1.414 . S
C1189 C1192 1.499 . S
C1190 H1170 0.950 . S
C1190 C1189 1.414 . S
C1190 C1191 1.374 . S
C1191 H1171 0.950 . S
C1191 C1187 1.385 . S
C1191 C1190 1.374 . S
C1192 C1189 1.499 . S
C1192 C1193 1.373 . S
C1192 C1194 1.389 . S
C1193 H1172 0.950 . S
C1193 C1192 1.373 . S
C1193 C1209 1.377 . S
C1194 C1192 1.389 . S
C1194 C1195 1.524 . S
C1194 C1208 1.377 . S
C1195 C1194 1.524 . S
C1195 C1196 1.397 . S
C1195 C1200 1.363 . S
C1196 H1173 0.950 . S
C1196 C1195 1.397 . S
C1196 C1197 1.334 . S
C1197 H1174 0.950 . S
C1197 C1196 1.334 . S
C1197 C1198 1.287 . S
C1198 C1197 1.287 . S
C1198 C1199 1.524 . S
C1198 H1217 0.913 . S
C1199 H1175 0.950 . S
C1199 C1198 1.524 . S
C1199 C1200 1.415 . S
C1200 H1176 0.950 . S
C1200 C1195 1.363 . S
C1200 C1199 1.415 . S
C1201 H1177 0.951 . S
C1201 C1202 1.366 . S
C1201 C1203 1.388 . S
C1202 C1201 1.366 . S
C1202 C1206 1.385 . S
C1203 H1178 0.951 . S
C1203 C1201 1.388 . S
C1203 C1204 1.366 . S
C1204 C1203 1.366 . S
C1204 C1205 1.414 . S
C1204 C1207 1.499 . S
C1205 H1179 0.950 . S
C1205 C1204 1.414 . S
C1205 C1206 1.374 . S
C1206 H1180 0.950 . S
C1206 C1202 1.385 . S
C1206 C1205 1.374 . S
C1207 C1204 1.499 . S
C1207 C1208 1.373 . S
C1207 C1209 1.389 . S
C1208 H1181 0.950 . S
C1208 C1194 1.377 . S
C1208 C1207 1.373 . S
C1209 C1193 1.377 . S
C1209 C1207 1.389 . S
C1209 C1210 1.524 . S
C1210 C1209 1.524 . S
C1210 C1211 1.397 . S
C1210 C1215 1.363 . S
C1211 H1182 0.950 . S
C1211 C1210 1.397 . S
C1211 C1212 1.334 . S
C1212 H1183 0.950 . S
C1212 C1211 1.334 . S
C1212 C1213 1.287 . S
C1213 C1212 1.287 . S
C1213 C1214 1.524 . S
C1213 H1216 0.999 . S
C1214 H1184 0.950 . S
C1214 C1213 1.524 . S
C1214 C1215 1.415 . S
C1215 H1185 0.950 . S
C1215 C1210 1.363 . S
C1215 C1214 1.415 . S
H1216 C1213 0.999 . S
H1217 C1198 0.913 . S
H1218 C1236 0.951 . S
H1219 C1238 0.951 . S
H1220 C1240 0.950 . S
H1221 C1241 0.950 . S
H1222 C1243 0.950 . S
H1223 C1246 0.950 . S
H1224 C1247 0.950 . S
H1225 C1249 0.950 . S
H1226 C1250 0.950 . S
H1227 C1251 0.951 . S
H1228 C1253 0.951 . S
H1229 C1255 0.950 . S
H1230 C1256 0.950 . S
H1231 C1258 0.950 . S
H1232 C1261 0.950 . S
H1233 C1262 0.950 . S
H1234 C1264 0.950 . S
H1235 C1265 0.950 . S
C1236 H1218 0.951 . S
C1236 C1237 1.366 . S
C1236 C1238 1.388 . S
C1237 C1236 1.366 . S
C1237 C1241 1.385 . S
C1238 H1219 0.951 . S
C1238 C1236 1.388 . S
C1238 C1239 1.366 . S
C1239 C1238 1.366 . S
C1239 C1240 1.414 . S
C1239 C1242 1.499 . S
C1240 H1220 0.950 . S
C1240 C1239 1.414 . S
C1240 C1241 1.374 . S
C1241 H1221 0.950 . S
C1241 C1237 1.385 . S
C1241 C1240 1.374 . S
C1242 C1239 1.499 . S
C1242 C1243 1.373 . S
C1242 C1244 1.389 . S
C1243 H1222 0.950 . S
C1243 C1242 1.373 . S
C1243 C1259 1.377 . S
C1244 C1242 1.389 . S
C1244 C1245 1.524 . S
C1244 C1258 1.377 . S
C1245 C1244 1.524 . S
C1245 C1246 1.397 . S
C1245 C1250 1.363 . S
C1246 H1223 0.950 . S
C1246 C1245 1.397 . S
C1246 C1247 1.334 . S
C1247 H1224 0.950 . S
C1247 C1246 1.334 . S
C1247 C1248 1.287 . S
C1248 C1247 1.287 . S
C1248 C1249 1.524 . S
C1248 H1267 0.913 . S
C1249 H1225 0.950 . S
C1249 C1248 1.524 . S
C1249 C1250 1.415 . S
C1250 H1226 0.950 . S
C1250 C1245 1.363 . S
C1250 C1249 1.415 . S
C1251 H1227 0.951 . S
C1251 C1252 1.366 . S
C1251 C1253 1.388 . S
C1252 C1251 1.366 . S
C1252 C1256 1.385 . S
C1253 H1228 0.951 . S
C1253 C1251 1.388 . S
C1253 C1254 1.366 . S
C1254 C1253 1.366 . S
C1254 C1255 1.414 . S
C1254 C1257 1.499 . S
C1255 H1229 0.950 . S
C1255 C1254 1.414 . S
C1255 C1256 1.374 . S
C1256 H1230 0.950 . S
C1256 C1252 1.385 . S
C1256 C1255 1.374 . S
C1257 C1254 1.499 . S
C1257 C1258 1.373 . S
C1257 C1259 1.389 . S
C1258 H1231 0.950 . S
C1258 C1244 1.377 . S
C1258 C1257 1.373 . S
C1259 C1243 1.377 . S
C1259 C1257 1.389 . S
C1259 C1260 1.524 . S
C1260 C1259 1.524 . S
C1260 C1261 1.397 . S
C1260 C1265 1.363 . S
C1261 H1232 0.950 . S
C1261 C1260 1.397 . S
C1261 C1262 1.334 . S
C1262 H1233 0.950 . S
C1262 C1261 1.334 . S
C1262 C1263 1.287 . S
C1263 C1262 1.287 . S
C1263 C1264 1.524 . S
C1263 H1266 0.999 . S
C1264 H1234 0.950 . S
C1264 C1263 1.524 . S
C1264 C1265 1.415 . S
C1265 H1235 0.950 . S
C1265 C1260 1.363 . S
C1265 C1264 1.415 . S
H1266 C1263 0.999 . S
H1267 C1248 0.913 . S
H1268 C1286 0.951 . S
H1269 C1288 0.951 . S
H1270 C1290 0.950 . S
H1271 C1291 0.950 . S
H1272 C1293 0.950 . S
H1273 C1296 0.950 . S
H1274 C1297 0.950 . S
H1275 C1299 0.950 . S
H1276 C1300 0.950 . S
H1277 C1301 0.951 . S
H1278 C1303 0.951 . S
H1279 C1305 0.950 . S
H1280 C1306 0.950 1_554 S
H1281 C1308 0.950 . S
H1282 C1311 0.950 . S
H1283 C1312 0.950 . S
H1284 C1314 0.950 . S
H1285 C1315 0.950 . S
C1286 H1268 0.951 . S
C1286 C1287 1.366 . S
C1286 C1288 1.388 . S
C1287 C1286 1.366 . S
C1287 C1291 1.385 . S
C1288 H1269 0.951 . S
C1288 C1286 1.388 . S
C1288 C1289 1.366 . S
C1289 C1288 1.366 . S
C1289 C1290 1.414 . S
C1289 C1292 1.499 . S
C1290 H1270 0.950 . S
C1290 C1289 1.414 . S
C1290 C1291 1.374 . S
C1291 H1271 0.950 . S
C1291 C1287 1.385 . S
C1291 C1290 1.374 . S
C1292 C1289 1.499 . S
C1292 C1293 1.373 . S
C1292 C1294 1.389 . S
C1293 H1272 0.950 . S
C1293 C1292 1.373 . S
C1293 C1309 1.377 . S
C1294 C1292 1.389 . S
C1294 C1295 1.524 . S
C1294 C1308 1.377 . S
C1295 C1294 1.524 . S
C1295 C1296 1.397 . S
C1295 C1300 1.363 . S
C1296 H1273 0.950 . S
C1296 C1295 1.397 . S
C1296 C1297 1.334 . S
C1297 H1274 0.950 . S
C1297 C1296 1.334 . S
C1297 C1298 1.287 . S
C1298 C1297 1.287 . S
C1298 C1299 1.524 . S
C1298 H1317 0.913 . S
C1299 H1275 0.950 . S
C1299 C1298 1.524 . S
C1299 C1300 1.415 . S
C1300 H1276 0.950 . S
C1300 C1295 1.363 . S
C1300 C1299 1.415 . S
C1301 H1277 0.951 . S
C1301 C1302 1.366 . S
C1301 C1303 1.388 . S
C1302 C1301 1.366 . S
C1302 C1306 1.385 . S
C1303 H1278 0.951 . S
C1303 C1301 1.388 . S
C1303 C1304 1.366 . S
C1304 C1303 1.366 . S
C1304 C1305 1.414 . S
C1304 C1307 1.499 . S
C1305 H1279 0.950 . S
C1305 C1304 1.414 . S
C1305 C1306 1.374 . S
C1306 H1280 0.950 1_556 S
C1306 C1302 1.385 . S
C1306 C1305 1.374 . S
C1307 C1304 1.499 . S
C1307 C1308 1.373 . S
C1307 C1309 1.389 . S
C1308 H1281 0.950 . S
C1308 C1294 1.377 . S
C1308 C1307 1.373 . S
C1309 C1293 1.377 . S
C1309 C1307 1.389 . S
C1309 C1310 1.524 . S
C1310 C1309 1.524 . S
C1310 C1311 1.397 . S
C1310 C1315 1.363 . S
C1311 H1282 0.950 . S
C1311 C1310 1.397 . S
C1311 C1312 1.334 . S
C1312 H1283 0.950 . S
C1312 C1311 1.334 . S
C1312 C1313 1.287 . S
C1313 C1312 1.287 . S
C1313 C1314 1.524 . S
C1313 H1316 0.999 . S
C1314 H1284 0.950 . S
C1314 C1313 1.524 . S
C1314 C1315 1.415 . S
C1315 H1285 0.950 . S
C1315 C1310 1.363 . S
C1315 C1314 1.415 . S
H1316 C1313 0.999 . S
H1317 C1298 0.913 . S
H1318 C1336 0.951 . S
H1319 C1338 0.951 . S
H1320 C1340 0.950 . S
H1321 C1341 0.950 . S
H1322 C1343 0.950 . S
H1323 C1346 0.950 . S
H1324 C1347 0.950 . S
H1325 C1349 0.950 . S
H1326 C1350 0.950 . S
H1327 C1351 0.951 . S
H1328 C1353 0.951 . S
H1329 C1355 0.950 . S
H1330 C1356 0.968 . S
H1331 C1358 0.950 . S
H1332 C1361 0.950 . S
H1333 C1362 0.950 . S
H1334 C1364 0.950 . S
H1335 C1365 0.950 . S
C1336 H1318 0.951 . S
C1336 C1337 1.366 . S
C1336 C1338 1.388 . S
C1337 C1336 1.366 . S
C1337 C1341 1.385 . S
C1338 H1319 0.951 . S
C1338 C1336 1.388 . S
C1338 C1339 1.366 . S
C1339 C1338 1.366 . S
C1339 C1340 1.414 . S
C1339 C1342 1.499 . S
C1340 H1320 0.950 . S
C1340 C1339 1.414 . S
C1340 C1341 1.374 . S
C1341 H1321 0.950 . S
C1341 C1337 1.385 . S
C1341 C1340 1.374 . S
C1342 C1339 1.499 . S
C1342 C1343 1.373 . S
C1342 C1344 1.389 . S
C1343 H1322 0.950 . S
C1343 C1342 1.373 . S
C1343 C1359 1.377 . S
C1344 C1342 1.389 . S
C1344 C1345 1.524 . S
C1344 C1358 1.377 . S
C1345 C1344 1.524 . S
C1345 C1346 1.397 . S
C1345 C1350 1.363 . S
C1346 H1323 0.950 . S
C1346 C1345 1.397 . S
C1346 C1347 1.334 . S
C1347 H1324 0.950 . S
C1347 C1346 1.334 . S
C1347 C1348 1.287 . S
C1348 C1347 1.287 . S
C1348 C1349 1.524 . S
C1348 H1367 0.913 . S
C1349 H1325 0.950 . S
C1349 C1348 1.524 . S
C1349 C1350 1.415 . S
C1350 H1326 0.950 . S
C1350 C1345 1.363 . S
C1350 C1349 1.415 . S
C1351 H1327 0.951 . S
C1351 C1352 1.366 . S
C1351 C1353 1.388 . S
C1352 C1351 1.366 . S
C1352 C1356 1.385 . S
C1353 H1328 0.951 . S
C1353 C1351 1.388 . S
C1353 C1354 1.366 . S
C1354 C1353 1.366 . S
C1354 C1355 1.414 . S
C1354 C1357 1.499 . S
C1355 H1329 0.950 . S
C1355 C1354 1.414 . S
C1355 C1356 1.374 . S
C1356 H1330 0.968 . S
C1356 C1352 1.385 . S
C1356 C1355 1.374 . S
C1357 C1354 1.499 . S
C1357 C1358 1.373 . S
C1357 C1359 1.389 . S
C1358 H1331 0.950 . S
C1358 C1344 1.377 . S
C1358 C1357 1.373 . S
C1359 C1343 1.377 . S
C1359 C1357 1.389 . S
C1359 C1360 1.524 . S
C1360 C1359 1.524 . S
C1360 C1361 1.397 . S
C1360 C1365 1.363 . S
C1361 H1332 0.950 . S
C1361 C1360 1.397 . S
C1361 C1362 1.334 . S
C1362 H1333 0.950 . S
C1362 C1361 1.334 . S
C1362 C1363 1.287 . S
C1363 C1362 1.287 . S
C1363 C1364 1.524 . S
C1363 H1366 0.999 . S
C1364 H1334 0.950 . S
C1364 C1363 1.524 . S
C1364 C1365 1.415 . S
C1365 H1335 0.950 . S
C1365 C1360 1.363 . S
C1365 C1364 1.415 . S
H1366 C1363 0.999 . S
H1367 C1348 0.913 . S
C187 C123 1.393 . S
C202 C11 1.393 . S
C237 C25 1.394 . S
C252 C137 1.393 . S
C287 C39 1.393 . S
C302 C151 1.393 . S
C337 C53 1.394 . S
C352 C165 1.393 . S
C387 C95 1.393 . S
C402 C67 1.394 . S
C437 C81 1.394 . S
C452 C109 1.394 . S
C487 C13 1.240 . S
C502 C77 1.311 . S
C537 C27 1.240 . S
C552 C7 1.335 . S
C587 C41 1.241 . S
C602 C21 1.342 . S
C637 C35 1.311 . S
C652 C55 1.240 . S
C687 C49 1.336 . S
C702 C69 1.241 . S
C737 C63 1.342 . S
C752 C83 1.241 . S
C787 C105 1.311 . S
C802 C97 1.241 . S
C837 C111 1.240 . S
C852 C119 1.342 . S
C887 C133 1.336 . S
C902 C125 1.241 . S
C937 C139 1.240 . S
C952 C147 1.311 . S
C987 C153 1.240 . S
C1002 C161 1.341 . S
C1037 C167 1.240 . S
C1052 C91 1.335 . S
C1087 C148 1.187 . S
C1102 C8 1.188 . S
C1137 C162 1.188 . S
C1152 C22 1.188 . S
C1187 C92 1.189 . S
C1202 C36 1.188 . S
C1237 C50 1.188 . S
C1252 C106 1.189 . S
C1287 C64 1.188 . S
C1302 C120 1.189 1_556 S
C1337 C134 1.187 . S
C1352 C78 1.188 1_554 S
