# Generated by pormake.
# Topology upc, (4)-cn, num edge types: 1
# Building blocks:
#     Node 0, Type 0, BuildingBlock: CEKHIL_clean_sbu_0, # of connection points: 4
#     Node 1, Type 0, BuildingBlock: CEKHIL_clean_sbu_0, # of connection points: 4
#     Node 2, Type 0, BuildingBlock: CEKHIL_clean_sbu_0, # of connection points: 4
#     Node 3, Type 0, BuildingBlock: CEKHIL_clean_sbu_0, # of connection points: 4
#     Node 4, Type 0, BuildingBlock: CEKHIL_clean_sbu_0, # of connection points: 4
#     Node 5, Type 0, BuildingBlock: CEKHIL_clean_sbu_0, # of connection points: 4
#     Node 6, Type 0, BuildingBlock: CEKHIL_clean_sbu_0, # of connection points: 4
#     Node 7, Type 0, BuildingBlock: CEKHIL_clean_sbu_0, # of connection points: 4
#     Node 8, Type 0, BuildingBlock: CEKHIL_clean_sbu_0, # of connection points: 4
#     Node 9, Type 0, BuildingBlock: CEKHIL_clean_sbu_0, # of connection points: 4
#     Node 10, Type 0, BuildingBlock: CEKHIL_clean_sbu_0, # of connection points: 4
#     Node 11, Type 0, BuildingBlock: CEKHIL_clean_sbu_0, # of connection points: 4
#     Node 12, Type 0, BuildingBlock: CEKHIL_clean_sbu_0, # of connection points: 4
#     Node 13, Type 0, BuildingBlock: CEKHIL_clean_sbu_0, # of connection points: 4
#     Node 14, Type 0, BuildingBlock: CEKHIL_clean_sbu_0, # of connection points: 4
#     Node 15, Type 0, BuildingBlock: CEKHIL_clean_sbu_0, # of connection points: 4
#     Edge 16, Type (0, 0), BuildingBlock: EYOCIG_clean_linker_4, # of connection points: 2
#     Edge 17, Type (0, 0), BuildingBlock: EYOCIG_clean_linker_4, # of connection points: 2
#     Edge 18, Type (0, 0), BuildingBlock: EYOCIG_clean_linker_4, # of connection points: 2
#     Edge 19, Type (0, 0), BuildingBlock: EYOCIG_clean_linker_4, # of connection points: 2
#     Edge 20, Type (0, 0), BuildingBlock: EYOCIG_clean_linker_4, # of connection points: 2
#     Edge 21, Type (0, 0), BuildingBlock: EYOCIG_clean_linker_4, # of connection points: 2
#     Edge 22, Type (0, 0), BuildingBlock: EYOCIG_clean_linker_4, # of connection points: 2
#     Edge 23, Type (0, 0), BuildingBlock: EYOCIG_clean_linker_4, # of connection points: 2
#     Edge 24, Type (0, 0), BuildingBlock: EYOCIG_clean_linker_4, # of connection points: 2
#     Edge 25, Type (0, 0), BuildingBlock: EYOCIG_clean_linker_4, # of connection points: 2
#     Edge 26, Type (0, 0), BuildingBlock: EYOCIG_clean_linker_4, # of connection points: 2
#     Edge 27, Type (0, 0), BuildingBlock: EYOCIG_clean_linker_4, # of connection points: 2
#     Edge 28, Type (0, 0), BuildingBlock: EYOCIG_clean_linker_4, # of connection points: 2
#     Edge 29, Type (0, 0), BuildingBlock: EYOCIG_clean_linker_4, # of connection points: 2
#     Edge 30, Type (0, 0), BuildingBlock: EYOCIG_clean_linker_4, # of connection points: 2
#     Edge 31, Type (0, 0), BuildingBlock: EYOCIG_clean_linker_4, # of connection points: 2
#     Edge 32, Type (0, 0), BuildingBlock: EYOCIG_clean_linker_4, # of connection points: 2
#     Edge 33, Type (0, 0), BuildingBlock: EYOCIG_clean_linker_4, # of connection points: 2
#     Edge 34, Type (0, 0), BuildingBlock: EYOCIG_clean_linker_4, # of connection points: 2
#     Edge 35, Type (0, 0), BuildingBlock: EYOCIG_clean_linker_4, # of connection points: 2
#     Edge 36, Type (0, 0), BuildingBlock: EYOCIG_clean_linker_4, # of connection points: 2
#     Edge 37, Type (0, 0), BuildingBlock: EYOCIG_clean_linker_4, # of connection points: 2
#     Edge 38, Type (0, 0), BuildingBlock: EYOCIG_clean_linker_4, # of connection points: 2
#     Edge 39, Type (0, 0), BuildingBlock: EYOCIG_clean_linker_4, # of connection points: 2
#     Edge 40, Type (0, 0), BuildingBlock: EYOCIG_clean_linker_4, # of connection points: 2
#     Edge 41, Type (0, 0), BuildingBlock: EYOCIG_clean_linker_4, # of connection points: 2
#     Edge 42, Type (0, 0), BuildingBlock: EYOCIG_clean_linker_4, # of connection points: 2
#     Edge 43, Type (0, 0), BuildingBlock: EYOCIG_clean_linker_4, # of connection points: 2
#     Edge 44, Type (0, 0), BuildingBlock: EYOCIG_clean_linker_4, # of connection points: 2
#     Edge 45, Type (0, 0), BuildingBlock: EYOCIG_clean_linker_4, # of connection points: 2
#     Edge 46, Type (0, 0), BuildingBlock: EYOCIG_clean_linker_4, # of connection points: 2
#     Edge 47, Type (0, 0), BuildingBlock: EYOCIG_clean_linker_4, # of connection points: 2
# Relax obj value: 0.268
# Max RMSD: 0.291
# Mean RMSD: 0.291
data_MOF--net-upc--node1-CEKHIL_clean_sbu_0--edge1-EYOCIG_clean_linker_4
_symmetry_space_group_name_H-M    P1
_symmetry_Int_Tables_number       1
_symmetry_cell_setting            triclinic
loop_
_symmetry_equiv_pos_as_xyz
'x, y, z'
_cell_length_a     25.951404
_cell_length_b     25.96505
_cell_length_c     34.300981
_cell_angle_alpha  90.010467
_cell_angle_beta   89.976804
_cell_angle_gamma 90.000523
loop_
_atom_site_label
_atom_site_type_symbol
_atom_site_fract_x
_atom_site_fract_y
_atom_site_fract_z
_atom_type_partial_charge
Co0 Co 0.06126 0.6529 0.10811 0.0
O1 O 0.07826 0.59517 0.07542 0.0
O2 O 0.00669 0.64068 0.06966 0.0
C3 C 0.14043 0.69076 0.10654 0.0
O4 O 0.03125 0.71298 0.13905 0.0
Co5 Co 0.12505 0.66095 0.18693 0.0
O6 O 0.08102 0.72256 0.19284 0.0
C7 C 0.03319 0.59373 0.18089 0.0
C8 C 0.0343 0.60138 0.05844 0.0
C9 C 0.04108 0.73287 0.17269 0.0
O10 O 0.02371 0.60692 0.1456 0.0
O11 O 0.07295 0.6072 0.20024 0.0
O12 O 0.10781 0.69898 0.0785 0.0
O13 O 0.12644 0.65683 0.13146 0.0
Co14 Co 0.8545 0.06143 0.10805 0.0
O15 O 0.91254 0.07778 0.07545 0.0
O16 O 0.86666 0.00647 0.06986 0.0
C17 C 0.81728 0.14087 0.10581 0.0
O18 O 0.79403 0.03207 0.13898 0.0
Co19 Co 0.84599 0.12636 0.18639 0.0
O20 O 0.78445 0.08229 0.19255 0.0
C21 C 0.91301 0.0342 0.18125 0.0
C22 C 0.90612 0.03381 0.05857 0.0
C23 C 0.77424 0.04212 0.17264 0.0
O24 O 0.90002 0.02414 0.14599 0.0
O25 O 0.89958 0.07434 0.20016 0.0
O26 O 0.80891 0.10797 0.07797 0.0
O27 O 0.85084 0.12685 0.13098 0.0
Co28 Co 0.44632 0.85314 0.1079 0.0
O29 O 0.43039 0.91108 0.07512 0.0
O30 O 0.5012 0.86438 0.06947 0.0
C31 C 0.36653 0.81657 0.10622 0.0
O32 O 0.47514 0.79245 0.13884 0.0
Co33 Co 0.38176 0.84655 0.18659 0.0
O34 O 0.42698 0.78611 0.19382 0.0
C35 C 0.47443 0.91261 0.18052 0.0
C36 C 0.47422 0.90403 0.05811 0.0
C37 C 0.46563 0.77364 0.1729 0.0
O38 O 0.48433 0.89863 0.14546 0.0
O39 O 0.43414 0.90011 0.19963 0.0
O40 O 0.39912 0.80779 0.07823 0.0
O41 O 0.38098 0.85031 0.13111 0.0
Co42 Co 0.65333 0.44592 0.10746 0.0
O43 O 0.59577 0.42962 0.07439 0.0
O44 O 0.64165 0.50099 0.06929 0.0
C45 C 0.69108 0.36675 0.10541 0.0
O46 O 0.71339 0.47495 0.13885 0.0
Co47 Co 0.65997 0.38069 0.18573 0.0
O48 O 0.72187 0.42422 0.19225 0.0
C49 C 0.59406 0.47354 0.18051 0.0
C50 C 0.60241 0.47362 0.05762 0.0
C51 C 0.73291 0.46429 0.17246 0.0
O52 O 0.60728 0.48322 0.14522 0.0
O53 O 0.60706 0.43339 0.19956 0.0
O54 O 0.69952 0.39968 0.07762 0.0
O55 O 0.65686 0.38041 0.13023 0.0
Co56 Co 0.06031 0.85294 0.38979 0.0
O57 O 0.07673 0.91046 0.42285 0.0
O58 O 0.00521 0.86469 0.42791 0.0
C59 C 0.13953 0.81512 0.39177 0.0
O60 O 0.03087 0.79283 0.35855 0.0
Co61 Co 0.12503 0.84586 0.31135 0.0
O62 O 0.07963 0.78558 0.30397 0.0
C63 C 0.03313 0.91301 0.3172 0.0
C64 C 0.03258 0.90395 0.43951 0.0
C65 C 0.04053 0.77375 0.32461 0.0
O66 O 0.02319 0.89923 0.35229 0.0
O67 O 0.07311 0.89976 0.29799 0.0
O68 O 0.10653 0.80676 0.41955 0.0
O69 O 0.12588 0.84926 0.36689 0.0
Co70 Co 0.65331 0.06096 0.38942 0.0
O71 O 0.59495 0.07709 0.42172 0.0
O72 O 0.64132 0.00614 0.42775 0.0
C73 C 0.69006 0.14061 0.39155 0.0
O74 O 0.71437 0.03208 0.35882 0.0
Co75 Co 0.6605 0.1256 0.31088 0.0
O76 O 0.72077 0.08007 0.30377 0.0
C77 C 0.59437 0.033 0.31654 0.0
C78 C 0.60155 0.03326 0.43875 0.0
C79 C 0.73323 0.04151 0.32475 0.0
O80 O 0.60823 0.02303 0.35159 0.0
O81 O 0.60691 0.07335 0.29755 0.0
O82 O 0.69838 0.10791 0.41951 0.0
O83 O 0.65661 0.12632 0.36636 0.0
Co84 Co 0.44579 0.6528 0.38988 0.0
O85 O 0.42957 0.59523 0.42293 0.0
O86 O 0.50069 0.64151 0.42826 0.0
C87 C 0.36612 0.68973 0.39175 0.0
O88 O 0.47508 0.71292 0.35859 0.0
Co89 Co 0.38135 0.66017 0.31136 0.0
O90 O 0.42485 0.72205 0.30503 0.0
C91 C 0.47409 0.59392 0.31696 0.0
C92 C 0.47346 0.60215 0.43985 0.0
C93 C 0.46497 0.73254 0.32492 0.0
O94 O 0.48351 0.60688 0.35234 0.0
O95 O 0.43419 0.60727 0.29773 0.0
O96 O 0.39897 0.69861 0.41952 0.0
O97 O 0.38032 0.65588 0.36683 0.0
Co98 Co 0.85341 0.44585 0.38987 0.0
O99 O 0.91133 0.42941 0.4225 0.0
O100 O 0.86544 0.50072 0.42816 0.0
C101 C 0.81576 0.36667 0.39194 0.0
O102 O 0.79286 0.47481 0.35894 0.0
Co103 Co 0.84686 0.38068 0.31148 0.0
O104 O 0.78624 0.4258 0.30441 0.0
C105 C 0.91284 0.47336 0.31691 0.0
C106 C 0.90481 0.47328 0.4395 0.0
C107 C 0.77388 0.46475 0.32504 0.0
O108 O 0.89906 0.48334 0.35202 0.0
O109 O 0.90029 0.43298 0.29796 0.0
O110 O 0.80759 0.39947 0.41988 0.0
O111 O 0.84974 0.38047 0.36699 0.0
Co112 Co 0.94653 0.35338 0.89007 0.0
O113 O 0.93053 0.41086 0.92327 0.0
O114 O 1.00195 0.36487 0.92797 0.0
C115 C 0.86728 0.31575 0.89217 0.0
O116 O 0.97532 0.29329 0.85855 0.0
Co117 Co 0.88117 0.34731 0.81189 0.0
O118 O 0.92517 0.28592 0.80472 0.0
C119 C 0.97347 0.41382 0.81749 0.0
C120 C 0.97477 0.4042 0.93973 0.0
C121 C 0.96466 0.27396 0.82488 0.0
O122 O 0.98361 0.39969 0.85247 0.0
O123 O 0.9333 0.40092 0.79841 0.0
O124 O 0.90029 0.30718 0.91991 0.0
O125 O 0.88095 0.35004 0.86743 0.0
Co126 Co 0.15364 0.94602 0.88923 0.0
O127 O 0.09563 0.93017 0.92204 0.0
O128 O 0.14202 1.00119 0.92736 0.0
C129 C 0.19075 0.86652 0.89158 0.0
O130 O 0.21441 0.97502 0.85846 0.0
Co131 Co 0.16168 0.88095 0.81088 0.0
O132 O 0.22153 0.92696 0.80353 0.0
C133 C 0.09413 0.9726 0.81638 0.0
C134 C 0.10247 0.97415 0.93885 0.0
C135 C 0.23348 0.96572 0.82446 0.0
O136 O 0.10811 0.9833 0.85131 0.0
O137 O 0.10705 0.93212 0.79769 0.0
O138 O 0.19902 0.89954 0.91931 0.0
O139 O 0.1571 0.88036 0.86636 0.0
Co140 Co 0.56177 0.15215 0.88959 0.0
O141 O 0.57825 0.09449 0.92245 0.0
O142 O 0.50676 0.14023 0.92779 0.0
C143 C 0.64113 0.18964 0.89155 0.0
O144 O 0.53229 0.21228 0.85843 0.0
Co145 Co 0.62613 0.16 0.81105 0.0
O146 O 0.58309 0.22227 0.80524 0.0
C147 C 0.53448 0.09243 0.81692 0.0
C148 C 0.53413 0.10086 0.93918 0.0
C149 C 0.54281 0.23253 0.82505 0.0
O150 O 0.52453 0.10602 0.85205 0.0
O151 O 0.57429 0.10605 0.79767 0.0
O152 O 0.6082 0.19812 0.91937 0.0
O153 O 0.62722 0.15576 0.86655 0.0
Co154 Co 0.35353 0.5609 0.88934 0.0
O155 O 0.41188 0.57696 0.92169 0.0
O156 O 0.36559 0.50594 0.92753 0.0
C157 C 0.31642 0.64042 0.89136 0.0
O158 O 0.29257 0.53214 0.85873 0.0
Co159 Co 0.3468 0.62571 0.8108 0.0
O160 O 0.28635 0.58034 0.80377 0.0
C161 C 0.41286 0.53318 0.81647 0.0
C162 C 0.40537 0.533 0.93857 0.0
C163 C 0.27372 0.54179 0.82471 0.0
O164 O 0.39867 0.52309 0.85144 0.0
O165 O 0.40064 0.57369 0.79756 0.0
O166 O 0.30821 0.60779 0.91941 0.0
O167 O 0.3501 0.62623 0.86631 0.0
Co168 Co 0.94551 0.15242 0.60762 0.0
O169 O 0.92923 0.09457 0.57496 0.0
O170 O 1.00045 0.14071 0.56935 0.0
C171 C 0.86601 0.18946 0.60578 0.0
O172 O 0.97449 0.21285 0.63867 0.0
Co173 Co 0.88099 0.15914 0.6862 0.0
O174 O 0.92442 0.2211 0.69248 0.0
C175 C 0.97357 0.09295 0.68032 0.0
C176 C 0.9732 0.10117 0.55809 0.0
C177 C 0.96407 0.23248 0.67229 0.0
O178 O 0.98324 0.1067 0.64518 0.0
O179 O 0.93355 0.1059 0.69959 0.0
O180 O 0.89872 0.19807 0.57782 0.0
O181 O 0.88021 0.15564 0.63069 0.0
Co182 Co 0.35378 0.94615 0.60787 0.0
O183 O 0.4111 0.92963 0.57455 0.0
O184 O 0.36594 1.00156 0.5701 0.0
C185 C 0.31531 0.86728 0.60522 0.0
O186 O 0.29405 0.97604 0.63926 0.0
Co187 Co 0.3446 0.88071 0.68584 0.0
O188 O 0.28394 0.92578 0.6927 0.0
C189 C 0.41362 0.97142 0.68087 0.0
C190 C 0.40486 0.97397 0.55815 0.0
C191 C 0.27404 0.96604 0.67282 0.0
O192 O 0.40046 0.98214 0.64576 0.0
O193 O 0.39934 0.93149 0.69966 0.0
O194 O 0.3072 0.90079 0.5778 0.0
O195 O 0.34941 0.88031 0.63036 0.0
Co196 Co 0.56082 0.35324 0.60769 0.0
O197 O 0.57691 0.4114 0.57524 0.0
O198 O 0.50554 0.36549 0.56981 0.0
C199 C 0.64007 0.31567 0.60528 0.0
O200 O 0.53214 0.29251 0.63857 0.0
Co201 Co 0.62636 0.34675 0.68586 0.0
O202 O 0.58108 0.28629 0.69316 0.0
C203 C 0.53359 0.41256 0.68072 0.0
C204 C 0.53274 0.4051 0.55862 0.0
C205 C 0.5422 0.27371 0.67253 0.0
O206 O 0.52346 0.3986 0.64571 0.0
O207 O 0.5741 0.40016 0.69958 0.0
O208 O 0.60717 0.30767 0.57739 0.0
O209 O 0.62636 0.34954 0.63033 0.0
Co210 Co 0.15275 0.56121 0.6081 0.0
O211 O 0.09481 0.57689 0.57524 0.0
O212 O 0.14097 0.50563 0.57037 0.0
C213 C 0.18992 0.64071 0.60531 0.0
O214 O 0.2132 0.53227 0.63914 0.0
Co215 Co 0.16126 0.6268 0.68607 0.0
O216 O 0.22271 0.5827 0.69256 0.0
C217 C 0.09374 0.53498 0.6813 0.0
C218 C 0.10142 0.53262 0.55881 0.0
C219 C 0.23302 0.5425 0.67272 0.0
O220 O 0.10709 0.52437 0.6462 0.0
O221 O 0.1072 0.57529 0.69997 0.0
O222 O 0.19831 0.60738 0.5778 0.0
O223 O 0.15629 0.62707 0.63062 0.0
C224 C 0.2292 0.74103 0.11249 0.0
C225 C 0.18885 0.71779 0.11017 0.0
C226 C 0.27732 0.76714 0.11241 0.0
C227 C 0.31787 0.79002 0.11001 0.0
C228 C 0.76787 0.23014 0.11132 0.0
C229 C 0.79066 0.18953 0.10912 0.0
C230 C 0.7418 0.27827 0.11131 0.0
C231 C 0.71837 0.31849 0.10899 0.0
C232 C 0.22847 0.76497 0.38607 0.0
C233 C 0.18799 0.78803 0.38844 0.0
C234 C 0.27666 0.73893 0.38611 0.0
C235 C 0.31733 0.71619 0.38829 0.0
C236 C 0.76509 0.27819 0.38608 0.0
C237 C 0.78848 0.31842 0.3884 0.0
C238 C 0.73903 0.23009 0.386 0.0
C239 C 0.71652 0.18935 0.38831 0.0
C240 C 0.77868 0.26509 0.88634 0.0
C241 C 0.81892 0.28856 0.88856 0.0
C242 C 0.73052 0.23899 0.88616 0.0
C243 C 0.68986 0.21625 0.88832 0.0
C244 C 0.26613 0.72915 0.8852 0.0
C245 C 0.28932 0.6888 0.88768 0.0
C246 C 0.24002 0.77726 0.88521 0.0
C247 C 0.21779 0.81806 0.88841 0.0
C248 C 0.72866 0.26506 0.61096 0.0
C249 C 0.68836 0.28838 0.60867 0.0
C250 C 0.77678 0.23898 0.6111 0.0
C251 C 0.81726 0.2159 0.6093 0.0
C252 C 0.2391 0.73019 0.61101 0.0
C253 C 0.21688 0.68929 0.60823 0.0
C254 C 0.26509 0.7784 0.61096 0.0
C255 C 0.2878 0.81901 0.60813 0.0
C256 C 0.95398 0.53414 0.26658 0.0
C257 C 0.93683 0.51224 0.29435 0.0
C258 C 0.97208 0.55199 0.2307 0.0
C259 C 0.99424 0.56924 0.20309 0.0
C260 C 0.95453 0.97396 0.23175 0.0
C261 C 0.93732 0.99569 0.20394 0.0
C262 C 0.97257 0.95585 0.26755 0.0
C263 C 0.99452 0.93802 0.29503 0.0
C264 C 0.5531 0.97205 0.26645 0.0
C265 C 0.57031 0.99408 0.29411 0.0
C266 C 0.53525 0.95406 0.23057 0.0
C267 C 0.51335 0.93679 0.20287 0.0
C268 C 0.55306 0.5345 0.2309 0.0
C269 C 0.57007 0.51248 0.20309 0.0
C270 C 0.5351 0.55249 0.26683 0.0
C271 C 0.51304 0.56963 0.29456 0.0
C272 C 0.05156 0.47542 0.73198 0.0
C273 C 0.06906 0.49687 0.70414 0.0
C274 C 0.03362 0.45721 0.7678 0.0
C275 C 0.01193 0.43908 0.79529 0.0
C276 C 0.05222 0.03227 0.76572 0.0
C277 C 0.06965 0.01086 0.79359 0.0
C278 C 0.03427 0.05024 0.72986 0.0
C279 C 0.01234 0.06804 0.70237 0.0
C280 C 0.47484 0.04835 0.76733 0.0
C281 C 0.49629 0.06665 0.79485 0.0
C282 C 0.45697 0.03021 0.73147 0.0
C283 C 0.43911 0.00909 0.70363 0.0
C284 C 0.47236 0.45383 0.73074 0.0
C285 C 0.49465 0.43652 0.70322 0.0
C286 C 0.45407 0.47203 0.76643 0.0
C287 C 0.43677 0.49421 0.794 0.0
C288 C 0.98082 0.75365 0.22848 0.0
C289 C 0.99878 0.74989 0.19617 0.0
C290 C 0.98084 0.74923 0.26958 0.0
C291 C 0.9987 0.75424 0.3018 0.0
C292 C 0.75442 0.98213 0.22885 0.0
C293 C 0.75781 0.99993 0.19646 0.0
C294 C 0.75893 0.98211 0.26996 0.0
C295 C 0.75364 0.99983 0.30223 0.0
C296 C 0.52504 0.75258 0.26876 0.0
C297 C 0.50714 0.74912 0.30111 0.0
C298 C 0.52511 0.74809 0.22766 0.0
C299 C 0.50733 0.75334 0.19543 0.0
C300 C 0.75387 0.52353 0.22877 0.0
C301 C 0.75031 0.50597 0.19634 0.0
C302 C 0.74891 0.52363 0.26982 0.0
C303 C 0.75378 0.50617 0.30217 0.0
C304 C 0.02332 0.25487 0.7281 0.0
C305 C 0.00576 0.25088 0.69571 0.0
C306 C 0.02335 0.24992 0.76914 0.0
C307 C 0.00596 0.2545 0.80154 0.0
C308 C 0.25381 0.02616 0.72882 0.0
C309 C 0.25742 0.00827 0.6965 0.0
C310 C 0.2583 0.02593 0.7699 0.0
C311 C 0.25323 0.00775 0.80201 0.0
C312 C 0.48332 0.25314 0.7688 0.0
C313 C 0.50091 0.24956 0.80122 0.0
C314 C 0.48333 0.24837 0.72773 0.0
C315 C 0.50083 0.25341 0.6954 0.0
C316 C 0.24794 0.48251 0.76996 0.0
C317 C 0.25313 0.50023 0.80221 0.0
C318 C 0.25276 0.48254 0.7289 0.0
C319 C 0.24951 0.50038 0.69654 0.0
C320 C 0.00835 0.5252 0.01068 0.0
C321 C 0.01607 0.56214 0.03167 0.0
C322 C 1.00166 0.4798 0.98767 0.0
C323 C 0.99367 0.44301 0.96658 0.0
C324 C 0.0272 1.0009 0.98724 0.0
C325 C 0.06382 0.99287 0.96596 0.0
C326 C 0.98197 0.00766 0.0105 0.0
C327 C 0.94515 0.01544 0.03164 0.0
C328 C 0.50086 0.97936 0.00983 0.0
C329 C 0.49293 0.94266 0.03102 0.0
C330 C 0.50763 0.02474 0.9868 0.0
C331 C 0.51554 0.0617 0.96587 0.0
C332 C 0.48168 0.50635 0.98603 0.0
C333 C 0.44462 0.51433 0.96519 0.0
C334 C 0.52706 0.49969 0.00913 0.0
C335 C 0.56371 0.49202 0.03045 0.0
C336 C 0.00605 0.97967 0.48745 0.0
C337 C 0.01392 0.94286 0.46637 0.0
C338 C 0.99947 0.02513 0.5104 0.0
C339 C 0.99175 0.06211 0.53132 0.0
C340 C 0.52547 0.00702 0.48653 0.0
C341 C 0.56244 0.01482 0.46556 0.0
C342 C 0.48019 1.00037 0.50973 0.0
C343 C 0.44362 0.9925 0.53108 0.0
C344 C 0.50617 0.48156 0.51138 0.0
C345 C 0.51404 0.44443 0.53213 0.0
C346 C 0.49963 0.52699 0.48838 0.0
C347 C 0.49195 0.56361 0.46707 0.0
C348 C 0.98033 0.49885 0.48795 0.0
C349 C 0.94362 0.49139 0.46667 0.0
C350 C 0.02563 0.50543 0.51112 0.0
C351 C 0.06249 0.51358 0.53211 0.0
loop_
_geom_bond_atom_site_label_1
_geom_bond_atom_site_label_2
_geom_bond_distance
_geom_bond_site_symmetry_2
_ccdc_geom_bond_type
Co0 O1 2.216 . S
Co0 O2 2.091 1_455 S
Co0 O4 2.004 . S
Co0 O10 2.021 . S
Co0 O12 2.137 . S
Co0 O13 2.244 . S
O1 Co0 2.216 . S
O1 C8 1.247 . S
O2 Co0 2.091 1_655 S
O2 C8 1.261 1_655 S
C3 O12 1.247 . S
C3 O13 1.272 . S
O4 Co0 2.004 . S
O4 C9 1.259 . S
Co5 O6 2.061 . S
Co5 O11 2.052 . S
Co5 O13 2.135 . S
O6 Co5 2.061 . S
O6 C9 1.235 . S
C7 O10 1.238 . S
C7 O11 1.241 . S
C8 O1 1.247 . S
C8 O2 1.261 1_455 S
C9 O4 1.259 . S
C9 O6 1.235 . S
O10 Co0 2.021 . S
O10 C7 1.238 . S
O11 Co5 2.052 . S
O11 C7 1.241 . S
O12 Co0 2.137 . S
O12 C3 1.247 . S
O13 Co0 2.244 . S
O13 C3 1.272 . S
O13 Co5 2.135 . S
Co14 O15 2.216 . S
Co14 O16 2.091 1_545 S
Co14 O18 2.004 . S
Co14 O24 2.021 . S
Co14 O26 2.137 . S
Co14 O27 2.244 . S
O15 Co14 2.216 . S
O15 C22 1.247 . S
O16 Co14 2.091 1_565 S
O16 C22 1.261 1_565 S
C17 O26 1.247 . S
C17 O27 1.272 . S
O18 Co14 2.004 . S
O18 C23 1.259 . S
Co19 O20 2.061 . S
Co19 O25 2.052 . S
Co19 O27 2.135 . S
O20 Co19 2.061 . S
O20 C23 1.235 . S
C21 O24 1.238 . S
C21 O25 1.241 . S
C22 O15 1.247 . S
C22 O16 1.261 1_545 S
C23 O18 1.259 . S
C23 O20 1.235 . S
O24 Co14 2.021 . S
O24 C21 1.238 . S
O25 Co19 2.052 . S
O25 C21 1.241 . S
O26 Co14 2.137 . S
O26 C17 1.247 . S
O27 Co14 2.244 . S
O27 C17 1.272 . S
O27 Co19 2.135 . S
Co28 O29 2.216 . S
Co28 O30 2.091 . S
Co28 O32 2.004 . S
Co28 O38 2.021 . S
Co28 O40 2.137 . S
Co28 O41 2.244 . S
O29 Co28 2.216 . S
O29 C36 1.247 . S
O30 Co28 2.091 . S
O30 C36 1.261 . S
C31 O40 1.247 . S
C31 O41 1.272 . S
O32 Co28 2.004 . S
O32 C37 1.259 . S
Co33 O34 2.061 . S
Co33 O39 2.052 . S
Co33 O41 2.135 . S
O34 Co33 2.061 . S
O34 C37 1.235 . S
C35 O38 1.238 . S
C35 O39 1.241 . S
C36 O29 1.247 . S
C36 O30 1.261 . S
C37 O32 1.259 . S
C37 O34 1.235 . S
O38 Co28 2.021 . S
O38 C35 1.238 . S
O39 Co33 2.052 . S
O39 C35 1.241 . S
O40 Co28 2.137 . S
O40 C31 1.247 . S
O41 Co28 2.244 . S
O41 C31 1.272 . S
O41 Co33 2.135 . S
Co42 O43 2.216 . S
Co42 O44 2.091 . S
Co42 O46 2.004 . S
Co42 O52 2.021 . S
Co42 O54 2.137 . S
Co42 O55 2.244 . S
O43 Co42 2.216 . S
O43 C50 1.247 . S
O44 Co42 2.091 . S
O44 C50 1.261 . S
C45 O54 1.247 . S
C45 O55 1.272 . S
O46 Co42 2.004 . S
O46 C51 1.259 . S
Co47 O48 2.061 . S
Co47 O53 2.052 . S
Co47 O55 2.135 . S
O48 Co47 2.061 . S
O48 C51 1.235 . S
C49 O52 1.238 . S
C49 O53 1.241 . S
C50 O43 1.247 . S
C50 O44 1.261 . S
C51 O46 1.259 . S
C51 O48 1.235 . S
O52 Co42 2.021 . S
O52 C49 1.238 . S
O53 Co47 2.052 . S
O53 C49 1.241 . S
O54 Co42 2.137 . S
O54 C45 1.247 . S
O55 Co42 2.244 . S
O55 C45 1.272 . S
O55 Co47 2.135 . S
Co56 O57 2.216 . S
Co56 O58 2.091 1_455 S
Co56 O60 2.004 . S
Co56 O66 2.021 . S
Co56 O68 2.137 . S
Co56 O69 2.244 . S
O57 Co56 2.216 . S
O57 C64 1.247 . S
O58 Co56 2.091 1_655 S
O58 C64 1.261 1_655 S
C59 O68 1.247 . S
C59 O69 1.272 . S
O60 Co56 2.004 . S
O60 C65 1.259 . S
Co61 O62 2.061 . S
Co61 O67 2.052 . S
Co61 O69 2.135 . S
O62 Co61 2.061 . S
O62 C65 1.235 . S
C63 O66 1.238 . S
C63 O67 1.241 . S
C64 O57 1.247 . S
C64 O58 1.261 1_455 S
C65 O60 1.259 . S
C65 O62 1.235 . S
O66 Co56 2.021 . S
O66 C63 1.238 . S
O67 Co61 2.052 . S
O67 C63 1.241 . S
O68 Co56 2.137 . S
O68 C59 1.247 . S
O69 Co56 2.244 . S
O69 C59 1.272 . S
O69 Co61 2.135 . S
Co70 O71 2.216 . S
Co70 O72 2.091 1_545 S
Co70 O74 2.004 . S
Co70 O80 2.021 . S
Co70 O82 2.137 . S
Co70 O83 2.244 . S
O71 Co70 2.216 . S
O71 C78 1.247 . S
O72 Co70 2.091 1_565 S
O72 C78 1.261 1_565 S
C73 O82 1.247 . S
C73 O83 1.272 . S
O74 Co70 2.004 . S
O74 C79 1.259 . S
Co75 O76 2.061 . S
Co75 O81 2.052 . S
Co75 O83 2.135 . S
O76 Co75 2.061 . S
O76 C79 1.235 . S
C77 O80 1.238 . S
C77 O81 1.241 . S
C78 O71 1.247 . S
C78 O72 1.261 1_545 S
C79 O74 1.259 . S
C79 O76 1.235 . S
O80 Co70 2.021 . S
O80 C77 1.238 . S
O81 Co75 2.052 . S
O81 C77 1.241 . S
O82 Co70 2.137 . S
O82 C73 1.247 . S
O83 Co70 2.244 . S
O83 C73 1.272 . S
O83 Co75 2.135 . S
Co84 O85 2.216 . S
Co84 O86 2.091 . S
Co84 O88 2.004 . S
Co84 O94 2.021 . S
Co84 O96 2.137 . S
Co84 O97 2.244 . S
O85 Co84 2.216 . S
O85 C92 1.247 . S
O86 Co84 2.091 . S
O86 C92 1.261 . S
C87 O96 1.247 . S
C87 O97 1.272 . S
O88 Co84 2.004 . S
O88 C93 1.259 . S
Co89 O90 2.061 . S
Co89 O95 2.052 . S
Co89 O97 2.135 . S
O90 Co89 2.061 . S
O90 C93 1.235 . S
C91 O94 1.238 . S
C91 O95 1.241 . S
C92 O85 1.247 . S
C92 O86 1.261 . S
C93 O88 1.259 . S
C93 O90 1.235 . S
O94 Co84 2.021 . S
O94 C91 1.238 . S
O95 Co89 2.052 . S
O95 C91 1.241 . S
O96 Co84 2.137 . S
O96 C87 1.247 . S
O97 Co84 2.244 . S
O97 C87 1.272 . S
O97 Co89 2.135 . S
Co98 O99 2.216 . S
Co98 O100 2.091 . S
Co98 O102 2.004 . S
Co98 O108 2.021 . S
Co98 O110 2.137 . S
Co98 O111 2.244 . S
O99 Co98 2.216 . S
O99 C106 1.247 . S
O100 Co98 2.091 . S
O100 C106 1.261 . S
C101 O110 1.247 . S
C101 O111 1.272 . S
O102 Co98 2.004 . S
O102 C107 1.259 . S
Co103 O104 2.061 . S
Co103 O109 2.052 . S
Co103 O111 2.135 . S
O104 Co103 2.061 . S
O104 C107 1.235 . S
C105 O108 1.238 . S
C105 O109 1.241 . S
C106 O99 1.247 . S
C106 O100 1.261 . S
C107 O102 1.259 . S
C107 O104 1.235 . S
O108 Co98 2.021 . S
O108 C105 1.238 . S
O109 Co103 2.052 . S
O109 C105 1.241 . S
O110 Co98 2.137 . S
O110 C101 1.247 . S
O111 Co98 2.244 . S
O111 C101 1.272 . S
O111 Co103 2.135 . S
Co112 O113 2.216 . S
Co112 O114 2.091 1_655 S
Co112 O116 2.004 . S
Co112 O122 2.021 . S
Co112 O124 2.137 . S
Co112 O125 2.244 . S
O113 Co112 2.216 . S
O113 C120 1.247 . S
O114 Co112 2.091 1_455 S
O114 C120 1.261 1_455 S
C115 O124 1.247 . S
C115 O125 1.272 . S
O116 Co112 2.004 . S
O116 C121 1.259 . S
Co117 O118 2.061 . S
Co117 O123 2.052 . S
Co117 O125 2.135 . S
O118 Co117 2.061 . S
O118 C121 1.235 . S
C119 O122 1.238 . S
C119 O123 1.241 . S
C120 O113 1.247 . S
C120 O114 1.261 1_655 S
C121 O116 1.259 . S
C121 O118 1.235 . S
O122 Co112 2.021 . S
O122 C119 1.238 . S
O123 Co117 2.052 . S
O123 C119 1.241 . S
O124 Co112 2.137 . S
O124 C115 1.247 . S
O125 Co112 2.244 . S
O125 C115 1.272 . S
O125 Co117 2.135 . S
Co126 O127 2.216 . S
Co126 O128 2.091 1_565 S
Co126 O130 2.004 . S
Co126 O136 2.021 . S
Co126 O138 2.137 . S
Co126 O139 2.244 . S
O127 Co126 2.216 . S
O127 C134 1.247 . S
O128 Co126 2.091 1_545 S
O128 C134 1.261 1_545 S
C129 O138 1.247 . S
C129 O139 1.272 . S
O130 Co126 2.004 . S
O130 C135 1.259 . S
Co131 O132 2.061 . S
Co131 O137 2.052 . S
Co131 O139 2.135 . S
O132 Co131 2.061 . S
O132 C135 1.235 . S
C133 O136 1.238 . S
C133 O137 1.241 . S
C134 O127 1.247 . S
C134 O128 1.261 1_565 S
C135 O130 1.259 . S
C135 O132 1.235 . S
O136 Co126 2.021 . S
O136 C133 1.238 . S
O137 Co131 2.052 . S
O137 C133 1.241 . S
O138 Co126 2.137 . S
O138 C129 1.247 . S
O139 Co126 2.244 . S
O139 C129 1.272 . S
O139 Co131 2.135 . S
Co140 O141 2.216 . S
Co140 O142 2.091 . S
Co140 O144 2.004 . S
Co140 O150 2.021 . S
Co140 O152 2.137 . S
Co140 O153 2.244 . S
O141 Co140 2.216 . S
O141 C148 1.247 . S
O142 Co140 2.091 . S
O142 C148 1.261 . S
C143 O152 1.247 . S
C143 O153 1.272 . S
O144 Co140 2.004 . S
O144 C149 1.259 . S
Co145 O146 2.061 . S
Co145 O151 2.052 . S
Co145 O153 2.135 . S
O146 Co145 2.061 . S
O146 C149 1.235 . S
C147 O150 1.238 . S
C147 O151 1.241 . S
C148 O141 1.247 . S
C148 O142 1.261 . S
C149 O144 1.259 . S
C149 O146 1.235 . S
O150 Co140 2.021 . S
O150 C147 1.238 . S
O151 Co145 2.052 . S
O151 C147 1.241 . S
O152 Co140 2.137 . S
O152 C143 1.247 . S
O153 Co140 2.244 . S
O153 C143 1.272 . S
O153 Co145 2.135 . S
Co154 O155 2.216 . S
Co154 O156 2.091 . S
Co154 O158 2.004 . S
Co154 O164 2.021 . S
Co154 O166 2.137 . S
Co154 O167 2.244 . S
O155 Co154 2.216 . S
O155 C162 1.247 . S
O156 Co154 2.091 . S
O156 C162 1.261 . S
C157 O166 1.247 . S
C157 O167 1.272 . S
O158 Co154 2.004 . S
O158 C163 1.259 . S
Co159 O160 2.061 . S
Co159 O165 2.052 . S
Co159 O167 2.135 . S
O160 Co159 2.061 . S
O160 C163 1.235 . S
C161 O164 1.238 . S
C161 O165 1.241 . S
C162 O155 1.247 . S
C162 O156 1.261 . S
C163 O158 1.259 . S
C163 O160 1.235 . S
O164 Co154 2.021 . S
O164 C161 1.238 . S
O165 Co159 2.052 . S
O165 C161 1.241 . S
O166 Co154 2.137 . S
O166 C157 1.247 . S
O167 Co154 2.244 . S
O167 C157 1.272 . S
O167 Co159 2.135 . S
Co168 O169 2.216 . S
Co168 O170 2.091 1_655 S
Co168 O172 2.004 . S
Co168 O178 2.021 . S
Co168 O180 2.137 . S
Co168 O181 2.244 . S
O169 Co168 2.216 . S
O169 C176 1.247 . S
O170 Co168 2.091 1_455 S
O170 C176 1.261 1_455 S
C171 O180 1.247 . S
C171 O181 1.272 . S
O172 Co168 2.004 . S
O172 C177 1.259 . S
Co173 O174 2.061 . S
Co173 O179 2.052 . S
Co173 O181 2.135 . S
O174 Co173 2.061 . S
O174 C177 1.235 . S
C175 O178 1.238 . S
C175 O179 1.241 . S
C176 O169 1.247 . S
C176 O170 1.261 1_655 S
C177 O172 1.259 . S
C177 O174 1.235 . S
O178 Co168 2.021 . S
O178 C175 1.238 . S
O179 Co173 2.052 . S
O179 C175 1.241 . S
O180 Co168 2.137 . S
O180 C171 1.247 . S
O181 Co168 2.244 . S
O181 C171 1.272 . S
O181 Co173 2.135 . S
Co182 O183 2.216 . S
Co182 O184 2.091 1_565 S
Co182 O186 2.004 . S
Co182 O192 2.021 . S
Co182 O194 2.137 . S
Co182 O195 2.244 . S
O183 Co182 2.216 . S
O183 C190 1.247 . S
O184 Co182 2.091 1_545 S
O184 C190 1.261 1_545 S
C185 O194 1.247 . S
C185 O195 1.272 . S
O186 Co182 2.004 . S
O186 C191 1.259 . S
Co187 O188 2.061 . S
Co187 O193 2.052 . S
Co187 O195 2.135 . S
O188 Co187 2.061 . S
O188 C191 1.235 . S
C189 O192 1.238 . S
C189 O193 1.241 . S
C190 O183 1.247 . S
C190 O184 1.261 1_565 S
C191 O186 1.259 . S
C191 O188 1.235 . S
O192 Co182 2.021 . S
O192 C189 1.238 . S
O193 Co187 2.052 . S
O193 C189 1.241 . S
O194 Co182 2.137 . S
O194 C185 1.247 . S
O195 Co182 2.244 . S
O195 C185 1.272 . S
O195 Co187 2.135 . S
Co196 O197 2.216 . S
Co196 O198 2.091 . S
Co196 O200 2.004 . S
Co196 O206 2.021 . S
Co196 O208 2.137 . S
Co196 O209 2.244 . S
O197 Co196 2.216 . S
O197 C204 1.247 . S
O198 Co196 2.091 . S
O198 C204 1.261 . S
C199 O208 1.247 . S
C199 O209 1.272 . S
O200 Co196 2.004 . S
O200 C205 1.259 . S
Co201 O202 2.061 . S
Co201 O207 2.052 . S
Co201 O209 2.135 . S
O202 Co201 2.061 . S
O202 C205 1.235 . S
C203 O206 1.238 . S
C203 O207 1.241 . S
C204 O197 1.247 . S
C204 O198 1.261 . S
C205 O200 1.259 . S
C205 O202 1.235 . S
O206 Co196 2.021 . S
O206 C203 1.238 . S
O207 Co201 2.052 . S
O207 C203 1.241 . S
O208 Co196 2.137 . S
O208 C199 1.247 . S
O209 Co196 2.244 . S
O209 C199 1.272 . S
O209 Co201 2.135 . S
Co210 O211 2.216 . S
Co210 O212 2.091 . S
Co210 O214 2.004 . S
Co210 O220 2.021 . S
Co210 O222 2.137 . S
Co210 O223 2.244 . S
O211 Co210 2.216 . S
O211 C218 1.247 . S
O212 Co210 2.091 . S
O212 C218 1.261 . S
C213 O222 1.247 . S
C213 O223 1.272 . S
O214 Co210 2.004 . S
O214 C219 1.259 . S
Co215 O216 2.061 . S
Co215 O221 2.052 . S
Co215 O223 2.135 . S
O216 Co215 2.061 . S
O216 C219 1.235 . S
C217 O220 1.238 . S
C217 O221 1.241 . S
C218 O211 1.247 . S
C218 O212 1.261 . S
C219 O214 1.259 . S
C219 O216 1.235 . S
O220 Co210 2.021 . S
O220 C217 1.238 . S
O221 Co215 2.052 . S
O221 C217 1.241 . S
O222 Co210 2.137 . S
O222 C213 1.247 . S
O223 Co210 2.244 . S
O223 C213 1.272 . S
O223 Co215 2.135 . S
C224 C225 1.170 . S
C224 C226 1.380 . S
C225 C224 1.170 . S
C226 C224 1.380 . S
C226 C227 1.170 . S
C227 C226 1.170 . S
C228 C229 1.170 . S
C228 C230 1.380 . S
C229 C228 1.170 . S
C230 C228 1.380 . S
C230 C231 1.170 . S
C231 C230 1.170 . S
C232 C233 1.170 . S
C232 C234 1.380 . S
C233 C232 1.170 . S
C234 C232 1.380 . S
C234 C235 1.170 . S
C235 C234 1.170 . S
C236 C237 1.170 . S
C236 C238 1.380 . S
C237 C236 1.170 . S
C238 C236 1.380 . S
C238 C239 1.170 . S
C239 C238 1.170 . S
C240 C241 1.170 . S
C240 C242 1.380 . S
C241 C240 1.170 . S
C242 C240 1.380 . S
C242 C243 1.170 . S
C243 C242 1.170 . S
C244 C245 1.170 . S
C244 C246 1.380 . S
C245 C244 1.170 . S
C246 C244 1.380 . S
C246 C247 1.170 . S
C247 C246 1.170 . S
C248 C249 1.170 . S
C248 C250 1.380 . S
C249 C248 1.170 . S
C250 C248 1.380 . S
C250 C251 1.170 . S
C251 C250 1.170 . S
C252 C253 1.170 . S
C252 C254 1.380 . S
C253 C252 1.170 . S
C254 C252 1.380 . S
C254 C255 1.170 . S
C255 C254 1.170 . S
C256 C257 1.170 . S
C256 C258 1.380 . S
C257 C256 1.170 . S
C258 C256 1.380 . S
C258 C259 1.170 . S
C259 C258 1.170 . S
C260 C261 1.170 . S
C260 C262 1.380 . S
C261 C260 1.170 . S
C262 C260 1.380 . S
C262 C263 1.170 . S
C263 C262 1.170 . S
C264 C265 1.170 . S
C264 C266 1.380 . S
C265 C264 1.170 . S
C266 C264 1.380 . S
C266 C267 1.170 . S
C267 C266 1.170 . S
C268 C269 1.170 . S
C268 C270 1.380 . S
C269 C268 1.170 . S
C270 C268 1.380 . S
C270 C271 1.170 . S
C271 C270 1.170 . S
C272 C273 1.170 . S
C272 C274 1.380 . S
C273 C272 1.170 . S
C274 C272 1.380 . S
C274 C275 1.170 . S
C275 C274 1.170 . S
C276 C277 1.170 . S
C276 C278 1.380 . S
C277 C276 1.170 . S
C278 C276 1.380 . S
C278 C279 1.170 . S
C279 C278 1.170 . S
C280 C281 1.170 . S
C280 C282 1.380 . S
C281 C280 1.170 . S
C282 C280 1.380 . S
C282 C283 1.170 . S
C283 C282 1.170 . S
C284 C285 1.170 . S
C284 C286 1.380 . S
C285 C284 1.170 . S
C286 C284 1.380 . S
C286 C287 1.170 . S
C287 C286 1.170 . S
C288 C289 1.170 . S
C288 C290 1.380 . S
C289 C288 1.170 . S
C290 C288 1.380 . S
C290 C291 1.170 . S
C291 C290 1.170 . S
C292 C293 1.170 . S
C292 C294 1.380 . S
C293 C292 1.170 . S
C294 C292 1.380 . S
C294 C295 1.170 . S
C295 C294 1.170 . S
C296 C297 1.170 . S
C296 C298 1.380 . S
C297 C296 1.170 . S
C298 C296 1.380 . S
C298 C299 1.170 . S
C299 C298 1.170 . S
C300 C301 1.170 . S
C300 C302 1.380 . S
C301 C300 1.170 . S
C302 C300 1.380 . S
C302 C303 1.170 . S
C303 C302 1.170 . S
C304 C305 1.170 . S
C304 C306 1.380 . S
C305 C304 1.170 . S
C306 C304 1.380 . S
C306 C307 1.170 . S
C307 C306 1.170 . S
C308 C309 1.170 . S
C308 C310 1.380 . S
C309 C308 1.170 . S
C310 C308 1.380 . S
C310 C311 1.170 . S
C311 C310 1.170 . S
C312 C313 1.170 . S
C312 C314 1.380 . S
C313 C312 1.170 . S
C314 C312 1.380 . S
C314 C315 1.170 . S
C315 C314 1.170 . S
C316 C317 1.170 . S
C316 C318 1.380 . S
C317 C316 1.170 . S
C318 C316 1.380 . S
C318 C319 1.170 . S
C319 C318 1.170 . S
C320 C321 1.170 . S
C320 C322 1.380 1_554 S
C321 C320 1.170 . S
C322 C320 1.380 1_556 S
C322 C323 1.170 1_455 S
C323 C322 1.170 1_655 S
C324 C325 1.170 1_545 S
C324 C326 1.380 1_456 S
C325 C324 1.170 1_565 S
C326 C324 1.380 1_654 S
C326 C327 1.170 . S
C327 C326 1.170 . S
C328 C329 1.170 . S
C328 C330 1.380 1_564 S
C329 C328 1.170 . S
C330 C328 1.380 1_546 S
C330 C331 1.170 . S
C331 C330 1.170 . S
C332 C333 1.170 . S
C332 C334 1.380 1_556 S
C333 C332 1.170 . S
C334 C332 1.380 1_554 S
C334 C335 1.170 . S
C335 C334 1.170 . S
C336 C337 1.170 1_655 S
C336 C338 1.380 1_565 S
C337 C336 1.170 1_455 S
C338 C336 1.380 1_545 S
C338 C339 1.170 . S
C339 C338 1.170 . S
C340 C341 1.170 . S
C340 C342 1.381 . S
C341 C340 1.170 . S
C342 C340 1.381 . S
C342 C343 1.170 1_545 S
C343 C342 1.170 1_565 S
C344 C345 1.170 . S
C344 C346 1.380 . S
C345 C344 1.170 . S
C346 C344 1.380 . S
C346 C347 1.170 . S
C347 C346 1.170 . S
C348 C349 1.170 . S
C348 C350 1.380 1_655 S
C349 C348 1.170 . S
C350 C348 1.380 1_455 S
C350 C351 1.170 . S
C351 C350 1.170 . S
C225 C3 1.654 . S
C227 C31 1.666 . S
C229 C17 1.674 . S
C231 C45 1.642 . S
C233 C59 1.641 . S
C235 C87 1.674 . S
C237 C101 1.641 . S
C239 C73 1.674 . S
C241 C115 1.643 . S
C243 C143 1.673 . S
C245 C157 1.647 . S
C247 C129 1.655 . S
C249 C199 1.646 . S
C251 C171 1.674 . S
C253 C213 1.671 . S
C255 C185 1.642 . S
C257 C105 1.261 . S
C259 C7 1.279 1_655 S
C261 C21 1.244 1_565 S
C263 C63 1.294 1_655 S
C265 C77 1.271 1_565 S
C267 C35 1.270 . S
C269 C49 1.265 . S
C271 C91 1.275 . S
C273 C217 1.245 . S
C275 C119 1.296 1_455 S
C277 C133 1.239 1_545 S
C279 C175 1.291 1_455 S
C281 C147 1.297 . S
C283 C189 1.258 1_545 S
C285 C203 1.259 . S
C287 C161 1.248 . S
C289 C9 0.977 . S
C291 C65 1.046 . S
C293 C23 0.949 . S
C295 C79 1.058 . S
C297 C93 0.954 . S
C299 C37 1.058 . S
C301 C51 0.957 . S
C303 C107 1.038 . S
C305 C177 0.955 . S
C307 C121 0.979 . S
C309 C191 1.002 . S
C311 C135 1.058 . S
C313 C149 0.948 . S
C315 C205 1.010 . S
C317 C163 1.029 . S
C319 C219 0.953 . S
C321 C8 1.739 . S
C323 C120 1.771 . S
C325 C134 1.770 . S
C327 C22 1.739 . S
C329 C36 1.776 . S
C331 C148 1.741 . S
C333 C162 1.739 . S
C335 C50 1.769 . S
C337 C64 1.776 . S
C339 C176 1.744 . S
C341 C78 1.739 . S
C343 C190 1.775 . S
C345 C204 1.740 . S
C347 C92 1.769 . S
C349 C106 1.757 . S
C351 C218 1.747 . S
