# Generated by pormake.
# Topology zfi, (5)-cn, num edge types: 1
# Building blocks:
#     Node 0, Type 0, BuildingBlock: XOMCOT_clean_sbu_1, # of connection points: 5
#     Node 1, Type 0, BuildingBlock: XOMCOT_clean_sbu_1, # of connection points: 5
#     Node 2, Type 0, BuildingBlock: XOMCOT_clean_sbu_1, # of connection points: 5
#     Node 3, Type 0, BuildingBlock: XOMCOT_clean_sbu_1, # of connection points: 5
#     Node 4, Type 0, BuildingBlock: XOMCOT_clean_sbu_1, # of connection points: 5
#     Node 5, Type 0, BuildingBlock: XOMCOT_clean_sbu_1, # of connection points: 5
#     Node 6, Type 0, BuildingBlock: XOMCOT_clean_sbu_1, # of connection points: 5
#     Node 7, Type 0, BuildingBlock: XOMCOT_clean_sbu_1, # of connection points: 5
#     Node 8, Type 0, BuildingBlock: XOMCOT_clean_sbu_1, # of connection points: 5
#     Node 9, Type 0, BuildingBlock: XOMCOT_clean_sbu_1, # of connection points: 5
#     Node 10, Type 0, BuildingBlock: XOMCOT_clean_sbu_1, # of connection points: 5
#     Node 11, Type 0, BuildingBlock: XOMCOT_clean_sbu_1, # of connection points: 5
#     Node 12, Type 0, BuildingBlock: XOMCOT_clean_sbu_1, # of connection points: 5
#     Node 13, Type 0, BuildingBlock: XOMCOT_clean_sbu_1, # of connection points: 5
#     Node 14, Type 0, BuildingBlock: XOMCOT_clean_sbu_1, # of connection points: 5
#     Node 15, Type 0, BuildingBlock: XOMCOT_clean_sbu_1, # of connection points: 5
#     Edge 16, Type (0, 0), BuildingBlock: MIFKUJ_clean_linker_0, # of connection points: 2
#     Edge 17, Type (0, 0), BuildingBlock: MIFKUJ_clean_linker_0, # of connection points: 2
#     Edge 18, Type (0, 0), BuildingBlock: MIFKUJ_clean_linker_0, # of connection points: 2
#     Edge 19, Type (0, 0), BuildingBlock: MIFKUJ_clean_linker_0, # of connection points: 2
#     Edge 20, Type (0, 0), BuildingBlock: MIFKUJ_clean_linker_0, # of connection points: 2
#     Edge 21, Type (0, 0), BuildingBlock: MIFKUJ_clean_linker_0, # of connection points: 2
#     Edge 22, Type (0, 0), BuildingBlock: MIFKUJ_clean_linker_0, # of connection points: 2
#     Edge 23, Type (0, 0), BuildingBlock: MIFKUJ_clean_linker_0, # of connection points: 2
#     Edge 24, Type (0, 0), BuildingBlock: MIFKUJ_clean_linker_0, # of connection points: 2
#     Edge 25, Type (0, 0), BuildingBlock: MIFKUJ_clean_linker_0, # of connection points: 2
#     Edge 26, Type (0, 0), BuildingBlock: MIFKUJ_clean_linker_0, # of connection points: 2
#     Edge 27, Type (0, 0), BuildingBlock: MIFKUJ_clean_linker_0, # of connection points: 2
#     Edge 28, Type (0, 0), BuildingBlock: MIFKUJ_clean_linker_0, # of connection points: 2
#     Edge 29, Type (0, 0), BuildingBlock: MIFKUJ_clean_linker_0, # of connection points: 2
#     Edge 30, Type (0, 0), BuildingBlock: MIFKUJ_clean_linker_0, # of connection points: 2
#     Edge 31, Type (0, 0), BuildingBlock: MIFKUJ_clean_linker_0, # of connection points: 2
#     Edge 32, Type (0, 0), BuildingBlock: MIFKUJ_clean_linker_0, # of connection points: 2
#     Edge 33, Type (0, 0), BuildingBlock: MIFKUJ_clean_linker_0, # of connection points: 2
#     Edge 34, Type (0, 0), BuildingBlock: MIFKUJ_clean_linker_0, # of connection points: 2
#     Edge 35, Type (0, 0), BuildingBlock: MIFKUJ_clean_linker_0, # of connection points: 2
#     Edge 36, Type (0, 0), BuildingBlock: MIFKUJ_clean_linker_0, # of connection points: 2
#     Edge 37, Type (0, 0), BuildingBlock: MIFKUJ_clean_linker_0, # of connection points: 2
#     Edge 38, Type (0, 0), BuildingBlock: MIFKUJ_clean_linker_0, # of connection points: 2
#     Edge 39, Type (0, 0), BuildingBlock: MIFKUJ_clean_linker_0, # of connection points: 2
#     Edge 40, Type (0, 0), BuildingBlock: MIFKUJ_clean_linker_0, # of connection points: 2
#     Edge 41, Type (0, 0), BuildingBlock: MIFKUJ_clean_linker_0, # of connection points: 2
#     Edge 42, Type (0, 0), BuildingBlock: MIFKUJ_clean_linker_0, # of connection points: 2
#     Edge 43, Type (0, 0), BuildingBlock: MIFKUJ_clean_linker_0, # of connection points: 2
#     Edge 44, Type (0, 0), BuildingBlock: MIFKUJ_clean_linker_0, # of connection points: 2
#     Edge 45, Type (0, 0), BuildingBlock: MIFKUJ_clean_linker_0, # of connection points: 2
#     Edge 46, Type (0, 0), BuildingBlock: MIFKUJ_clean_linker_0, # of connection points: 2
#     Edge 47, Type (0, 0), BuildingBlock: MIFKUJ_clean_linker_0, # of connection points: 2
#     Edge 48, Type (0, 0), BuildingBlock: MIFKUJ_clean_linker_0, # of connection points: 2
#     Edge 49, Type (0, 0), BuildingBlock: MIFKUJ_clean_linker_0, # of connection points: 2
#     Edge 50, Type (0, 0), BuildingBlock: MIFKUJ_clean_linker_0, # of connection points: 2
#     Edge 51, Type (0, 0), BuildingBlock: MIFKUJ_clean_linker_0, # of connection points: 2
#     Edge 52, Type (0, 0), BuildingBlock: MIFKUJ_clean_linker_0, # of connection points: 2
#     Edge 53, Type (0, 0), BuildingBlock: MIFKUJ_clean_linker_0, # of connection points: 2
#     Edge 54, Type (0, 0), BuildingBlock: MIFKUJ_clean_linker_0, # of connection points: 2
#     Edge 55, Type (0, 0), BuildingBlock: MIFKUJ_clean_linker_0, # of connection points: 2
# Relax obj value: 0.102
# Max RMSD: 0.122
# Mean RMSD: 0.122
data_MOF--net-zfi--node1-XOMCOT_clean_sbu_1--edge1-MIFKUJ_clean_linker_0
_symmetry_space_group_name_H-M    P1
_symmetry_Int_Tables_number       1
_symmetry_cell_setting            triclinic
loop_
_symmetry_equiv_pos_as_xyz
'x, y, z'
_cell_length_a     48.770116
_cell_length_b     48.710037
_cell_length_c     63.783287
_cell_angle_alpha  89.897792
_cell_angle_beta   89.972959
_cell_angle_gamma 89.849238
loop_
_atom_site_label
_atom_site_type_symbol
_atom_site_fract_x
_atom_site_fract_y
_atom_site_fract_z
_atom_type_partial_charge
C0 C 0.6412 0.11407 0.09445 0.0
C1 C 0.65174 0.14019 0.09407 0.0
N2 N 0.66567 0.14439 0.11198 0.0
N3 N 0.64841 0.10159 0.11254 0.0
C4 C 0.66297 0.12086 0.12308 0.0
H5 H 0.63053 0.10438 0.08164 0.0
Co6 Co 0.64504 0.06378 0.1183 0.0
C7 C 0.60692 0.07852 0.15332 0.0
O8 O 0.58609 0.08112 0.14043 0.0
N9 N 0.64172 0.02626 0.12384 0.0
C10 C 0.64968 0.98139 0.12619 0.0
C11 C 0.6609 1.00648 0.1213 0.0
C12 C 0.61889 0.01266 0.12982 0.0
N13 N 0.62326 0.98541 0.1314 0.0
O14 O 0.60907 0.06284 0.1052 0.0
H15 H 0.68157 0.00993 0.11577 0.0
H16 H 0.59925 0.02244 0.13252 0.0
O17 O 0.63053 0.07212 0.14616 0.0
C18 C 0.61108 0.05301 0.08667 0.0
O19 O 0.63575 0.04759 0.07943 0.0
N20 N 0.68094 0.06311 0.12883 0.0
C21 C 0.73565 0.05057 0.1373 0.0
C22 C 0.71556 0.048 0.15298 0.0
C23 C 0.68819 0.05445 0.14844 0.0
C24 C 0.70037 0.06707 0.11378 0.0
C25 C 0.72788 0.06121 0.11774 0.0
H26 H 0.67269 0.05036 0.16012 0.0
H27 H 0.6942 0.07319 0.09816 0.0
H28 H 0.67341 0.11691 0.13775 0.0
H29 H 0.65047 0.15451 0.08109 0.0
H30 H 0.65973 0.9616 0.12509 0.0
H31 H 0.72072 0.03979 0.16827 0.0
H32 H 0.74255 0.06306 0.10507 0.0
C33 C 0.39851 0.6338 0.11766 0.0
C34 C 0.37217 0.64395 0.1162 0.0
N35 N 0.37342 0.67011 0.10936 0.0
N36 N 0.41637 0.65341 0.11173 0.0
C37 C 0.40042 0.67518 0.10656 0.0
H38 H 0.40432 0.61362 0.12325 0.0
Co39 Co 0.45472 0.65093 0.11243 0.0
C40 C 0.46696 0.64058 0.1577 0.0
O41 O 0.48794 0.65736 0.15622 0.0
N42 N 0.49339 0.64773 0.11261 0.0
C43 C 0.5373 0.64963 0.10294 0.0
C44 C 0.51186 0.66155 0.10082 0.0
C45 C 0.50818 0.62698 0.12124 0.0
N46 N 0.53488 0.62806 0.11593 0.0
O47 O 0.4537 0.61474 0.09994 0.0
H48 H 0.50726 0.67818 0.09022 0.0
H49 H 0.49933 0.61049 0.13038 0.0
O50 O 0.45232 0.63574 0.1414 0.0
C51 C 0.45771 0.61793 0.08027 0.0
O52 O 0.45731 0.64311 0.07283 0.0
N53 N 0.45633 0.68756 0.12216 0.0
C54 C 0.46411 0.74313 0.13068 0.0
C55 C 0.45342 0.72553 0.14607 0.0
C56 C 0.44874 0.69788 0.14124 0.0
C57 C 0.46375 0.70509 0.10651 0.0
C58 C 0.4682 0.73281 0.11045 0.0
H59 H 0.43914 0.68501 0.15288 0.0
H60 H 0.46625 0.69741 0.09075 0.0
H61 H 0.40843 0.6946 0.10111 0.0
H62 H 0.35364 0.63324 0.12066 0.0
H63 H 0.55599 0.65584 0.09511 0.0
H64 H 0.44879 0.73306 0.16165 0.0
H65 H 0.47572 0.74577 0.0979 0.0
C66 C 0.85574 0.41345 0.09526 0.0
C67 C 0.84452 0.38777 0.09347 0.0
N68 N 0.83847 0.37834 0.1128 0.0
N69 N 0.85714 0.42051 0.11567 0.0
C70 C 0.8464 0.39863 0.12598 0.0
H71 H 0.86118 0.42642 0.08222 0.0
Co72 Co 0.86681 0.45518 0.12645 0.0
C73 C 0.90157 0.44157 0.16239 0.0
O74 O 0.92078 0.45656 0.15361 0.0
N75 N 0.87593 0.48996 0.13757 0.0
C76 C 0.88154 0.52379 0.16058 0.0
C77 C 0.86978 0.49865 0.15713 0.0
C78 C 0.8912 0.51055 0.12939 0.0
N79 N 0.89516 0.53128 0.14313 0.0
O80 O 0.9029 0.45237 0.11366 0.0
H81 H 0.85853 0.48691 0.16864 0.0
H82 H 0.89966 0.51035 0.11378 0.0
O83 O 0.87888 0.43804 0.15275 0.0
C84 C 0.90173 0.46257 0.09518 0.0
O85 O 0.87819 0.47268 0.08871 0.0
N86 N 0.83113 0.45948 0.13614 0.0
C87 C 0.77617 0.472 0.14306 0.0
C88 C 0.79144 0.45787 0.15837 0.0
C89 C 0.81908 0.45147 0.1545 0.0
C90 C 0.81656 0.47307 0.12122 0.0
C91 C 0.78914 0.47955 0.12433 0.0
H92 H 0.83074 0.44052 0.16626 0.0
H93 H 0.82655 0.47917 0.10682 0.0
H94 H 0.84369 0.39797 0.1428 0.0
H95 H 0.83985 0.37754 0.07887 0.0
H96 H 0.8811 0.53498 0.17521 0.0
H97 H 0.78209 0.45176 0.17305 0.0
H98 H 0.77833 0.49096 0.11228 0.0
C99 C 0.11615 0.88759 0.12523 0.0
C100 C 0.14277 0.87825 0.1241 0.0
N101 N 0.14298 0.85393 0.11398 0.0
N102 N 0.09942 0.86926 0.11601 0.0
C103 C 0.11639 0.84919 0.10906 0.0
H104 H 0.10935 0.90623 0.13283 0.0
Co105 Co 0.06103 0.87091 0.11518 0.0
C106 C 0.04447 0.8824 0.15961 0.0
O107 O 0.02249 0.86715 0.15725 0.0
N108 N 0.02222 0.87318 0.11401 0.0
C109 C 0.97762 0.86575 0.10908 0.0
C110 C 1.00343 0.8546 0.1076 0.0
C111 C 0.0071 0.89578 0.11866 0.0
N112 N 0.97996 0.89164 0.11607 0.0
O113 O 0.0624 0.90732 0.10344 0.0
H114 H 0.00765 0.83427 0.10185 0.0
H115 H 0.01583 0.91479 0.12432 0.0
O116 O 0.06101 0.88553 0.14417 0.0
C117 C 0.06128 0.90529 0.08351 0.0
O118 O 0.06321 0.88061 0.07532 0.0
N119 N 0.05964 0.83408 0.12433 0.0
C120 C 0.05132 0.77811 0.13099 0.0
C121 C 0.05831 0.79545 0.14774 0.0
C122 C 0.06313 0.82338 0.14398 0.0
C123 C 0.05599 0.81696 0.10772 0.0
C124 C 0.05134 0.78904 0.11067 0.0
H125 H 0.06941 0.83611 0.1569 0.0
H126 H 0.05515 0.82544 0.09204 0.0
H127 H 0.10929 0.83125 0.10078 0.0
H128 H 0.16039 0.88823 0.13095 0.0
H129 H 0.95859 0.85571 0.10497 0.0
H130 H 0.05972 0.78756 0.16359 0.0
H131 H 0.04635 0.77652 0.09719 0.0
C132 C 0.14182 0.89756 0.43305 0.0
C133 C 0.15249 0.87148 0.43325 0.0
N134 N 0.16909 0.86862 0.41657 0.0
N135 N 0.15156 0.91151 0.4163 0.0
C136 C 0.16787 0.89295 0.40634 0.0
H137 H 0.12912 0.90603 0.44527 0.0
Co138 Co 0.14826 0.95005 0.41243 0.0
C139 C 0.13422 0.95948 0.36734 0.0
O140 O 0.14712 0.98308 0.36817 0.0
N141 N 0.14499 0.98883 0.40941 0.0
C142 C 0.15295 0.03387 0.40778 0.0
C143 C 0.16472 0.00833 0.40986 0.0
C144 C 0.12135 1.00334 0.40733 0.0
N145 N 0.12566 0.03065 0.40631 0.0
O146 O 0.1117 0.94967 0.42452 0.0
H147 H 0.1864 1.00463 0.41164 0.0
H148 H 0.10125 0.99408 0.40627 0.0
O149 O 0.13338 0.94405 0.38368 0.0
C150 C 0.11368 0.95753 0.44359 0.0
O151 O 0.13836 0.96196 0.45112 0.0
N152 N 0.18504 0.95112 0.40338 0.0
C153 C 0.24135 0.95955 0.3985 0.0
C154 C 0.22461 0.95408 0.38106 0.0
C155 C 0.19646 0.94964 0.38384 0.0
C156 C 0.20135 0.9541 0.42055 0.0
C157 C 0.22939 0.95869 0.41849 0.0
H158 H 0.1843 0.94491 0.37027 0.0
H159 H 0.19212 0.9545 0.43597 0.0
H160 H 0.18028 0.89767 0.39277 0.0
H161 H 0.14941 0.8562 0.44537 0.0
H162 H 0.16357 0.05336 0.40781 0.0
H163 H 0.2331 0.95354 0.36538 0.0
H164 H 0.2412 0.96294 0.43247 0.0
C165 C 0.62106 0.12058 0.41387 0.0
C166 C 0.64772 0.12995 0.41399 0.0
N167 N 0.64709 0.15749 0.41523 0.0
N168 N 0.60361 0.14209 0.41536 0.0
C169 C 0.62028 0.16433 0.41608 0.0
H170 H 0.61486 0.09935 0.41268 0.0
Co171 Co 0.56487 0.14002 0.41618 0.0
C172 C 0.54871 0.12425 0.37219 0.0
O173 O 0.52509 0.13701 0.37419 0.0
N174 N 0.52629 0.13742 0.41755 0.0
C175 C 0.48208 0.14416 0.42461 0.0
C176 C 0.50771 0.15573 0.42481 0.0
C177 C 0.51131 0.11461 0.41359 0.0
N178 N 0.48435 0.11827 0.41751 0.0
O179 O 0.5664 0.10387 0.42888 0.0
H180 H 0.5121 0.17605 0.43049 0.0
H181 H 0.52016 0.09552 0.40812 0.0
O182 O 0.56575 0.12416 0.38751 0.0
C183 C 0.56805 0.10481 0.44885 0.0
O184 O 0.57307 0.12864 0.45766 0.0
N185 N 0.56247 0.17644 0.40604 0.0
C186 C 0.55187 0.23183 0.39823 0.0
C187 C 0.55713 0.21368 0.38163 0.0
C188 C 0.56309 0.18607 0.3859 0.0
C189 C 0.55986 0.19436 0.42231 0.0
C190 C 0.55437 0.22207 0.4188 0.0
H191 H 0.56791 0.1728 0.37295 0.0
H192 H 0.56074 0.18669 0.43823 0.0
H193 H 0.6132 0.18527 0.41742 0.0
H194 H 0.66611 0.11754 0.41285 0.0
H195 H 0.46322 0.15413 0.42936 0.0
H196 H 0.55631 0.22071 0.36552 0.0
H197 H 0.55066 0.23537 0.4321 0.0
C198 C 0.38316 0.61074 0.4271 0.0
C199 C 0.37349 0.63726 0.42723 0.0
N200 N 0.35281 0.63925 0.41334 0.0
N201 N 0.36877 0.59569 0.41316 0.0
C202 C 0.35069 0.61395 0.40478 0.0
H203 H 0.39903 0.60297 0.43731 0.0
Co204 Co 0.37093 0.557 0.40954 0.0
C205 C 0.38551 0.54773 0.36425 0.0
O206 O 0.37441 0.52322 0.36496 0.0
N207 N 0.37306 0.51819 0.40655 0.0
C208 C 0.36342 0.47351 0.4049 0.0
C209 C 0.35266 0.49942 0.40735 0.0
C210 C 0.3961 0.50288 0.40403 0.0
N211 N 0.39074 0.47576 0.40289 0.0
O212 O 0.40769 0.55645 0.42122 0.0
H213 H 0.3312 0.50389 0.40966 0.0
H214 H 0.41647 0.51145 0.40261 0.0
O215 O 0.38521 0.56298 0.38065 0.0
C216 C 0.40556 0.54786 0.44013 0.0
O217 O 0.38079 0.54364 0.44759 0.0
N218 N 0.33401 0.55661 0.401 0.0
C219 C 0.27803 0.54611 0.39731 0.0
C220 C 0.29441 0.54958 0.37937 0.0
C221 C 0.32243 0.55513 0.38153 0.0
C222 C 0.31793 0.55577 0.41846 0.0
C223 C 0.28996 0.55042 0.41701 0.0
H224 H 0.33446 0.55763 0.36756 0.0
H225 H 0.32733 0.55744 0.43376 0.0
H226 H 0.33512 0.60854 0.39348 0.0
H227 H 0.38064 0.6536 0.4373 0.0
H228 H 0.35208 0.45443 0.40504 0.0
H229 H 0.28582 0.54725 0.36383 0.0
H230 H 0.27827 0.54786 0.43132 0.0
C231 C 0.9107 0.35917 0.45139 0.0
C232 C 0.8854 0.34717 0.4536 0.0
N233 N 0.8772 0.33812 0.43471 0.0
N234 N 0.91868 0.3578 0.43114 0.0
C235 C 0.89754 0.3451 0.42132 0.0
H236 H 0.92289 0.36684 0.46417 0.0
Co237 Co 0.95393 0.36496 0.4202 0.0
C238 C 0.94236 0.39962 0.3837 0.0
O239 O 0.95834 0.41824 0.39215 0.0
N240 N 0.98922 0.37159 0.40892 0.0
C241 C 0.02329 0.37485 0.3858 0.0
C242 C 0.99747 0.36485 0.38935 0.0
C243 C 0.01076 0.38558 0.41697 0.0
N244 N 0.03165 0.38804 0.40315 0.0
O245 O 0.95346 0.40171 0.43228 0.0
H246 H 0.98502 0.35464 0.37778 0.0
H247 H 0.01112 0.3943 0.43249 0.0
O248 O 0.93754 0.37741 0.39373 0.0
C249 C 0.96339 0.40125 0.45085 0.0
O250 O 0.9717 0.37758 0.45851 0.0
N251 N 0.95588 0.32856 0.41104 0.0
C252 C 0.96506 0.27288 0.40401 0.0
C253 C 0.95442 0.28964 0.38802 0.0
C254 C 0.94949 0.31755 0.39196 0.0
C255 C 0.96569 0.31242 0.42677 0.0
C256 C 0.97024 0.28451 0.42367 0.0
H257 H 0.9413 0.33028 0.37956 0.0
H258 H 0.97042 0.32152 0.44179 0.0
H259 H 0.89792 0.33924 0.40497 0.0
H260 H 0.87439 0.34426 0.46818 0.0
H261 H 0.03438 0.37376 0.37112 0.0
H262 H 0.95014 0.28128 0.37264 0.0
H263 H 0.97873 0.27233 0.43634 0.0
C264 C 0.37887 0.89522 0.9114 0.0
C265 C 0.36877 0.86883 0.91242 0.0
N266 N 0.34329 0.86982 0.92059 0.0
N267 N 0.35986 0.91282 0.91887 0.0
C268 C 0.3386 0.89666 0.92458 0.0
H269 H 0.39857 0.90125 0.90512 0.0
Co270 Co 0.36214 0.95117 0.91959 0.0
C271 C 0.37668 0.96686 0.87523 0.0
O272 O 0.36155 0.98915 0.87667 0.0
N273 N 0.36488 0.98971 0.92089 0.0
C274 C 0.35859 0.03376 0.92869 0.0
C275 C 0.3474 0.008 0.9296 0.0
C276 C 0.38697 1.00495 0.91544 0.0
N277 N 0.38352 0.03187 0.91978 0.0
O278 O 0.39804 0.94917 0.93238 0.0
H279 H 0.32802 1.0033 0.93683 0.0
H280 H 0.40546 0.99631 0.90875 0.0
O281 O 0.37848 0.95058 0.891 0.0
C282 C 0.39601 0.95057 0.95232 0.0
O283 O 0.37134 0.9493 0.96057 0.0
N284 N 0.32571 0.95358 0.90931 0.0
C285 C 0.27063 0.96492 0.90101 0.0
C286 C 0.28866 0.95797 0.88468 0.0
C287 C 0.31606 0.95146 0.88925 0.0
C288 C 0.30772 0.95739 0.92541 0.0
C289 C 0.2802 0.96333 0.92165 0.0
H290 H 0.32923 0.94512 0.8766 0.0
H291 H 0.3152 0.95705 0.94138 0.0
H292 H 0.31984 0.90439 0.9314 0.0
H293 H 0.37901 0.85052 0.90683 0.0
H294 H 0.34897 0.05246 0.93419 0.0
H295 H 0.28172 0.95789 0.86855 0.0
H296 H 0.26694 0.96812 0.93478 0.0
C297 C 0.57919 0.33756 0.93712 0.0
C298 C 0.60268 0.32282 0.94087 0.0
N299 N 0.62186 0.33064 0.92692 0.0
N300 N 0.58328 0.35473 0.92081 0.0
C301 C 0.60982 0.35047 0.91517 0.0
H302 H 0.55965 0.33427 0.94471 0.0
Co303 Co 0.55394 0.37338 0.90774 0.0
C304 C 0.58245 0.37411 0.86518 0.0
O305 O 0.57106 0.35108 0.85931 0.0
N306 N 0.52461 0.39274 0.89493 0.0
C307 C 0.49652 0.41151 0.87135 0.0
C308 C 0.51863 0.39443 0.87426 0.0
C309 C 0.50518 0.40849 0.90427 0.0
N310 N 0.48811 0.4203 0.89024 0.0
O311 O 0.56356 0.40663 0.92269 0.0
H312 H 0.52912 0.38355 0.86195 0.0
H313 H 0.50346 0.4114 0.92101 0.0
O314 O 0.57739 0.38425 0.88336 0.0
C315 C 0.55196 0.4047 0.94064 0.0
O316 O 0.53821 0.38215 0.94472 0.0
N317 N 0.54178 0.33924 0.89593 0.0
C318 C 0.52027 0.28617 0.89097 0.0
C319 C 0.54835 0.29108 0.88833 0.0
C320 C 0.5587 0.31759 0.89112 0.0
C321 C 0.51431 0.33455 0.89828 0.0
C322 C 0.50314 0.30857 0.89533 0.0
H323 H 0.58057 0.32029 0.89001 0.0
H324 H 0.50079 0.35046 0.90391 0.0
H325 H 0.61922 0.35956 0.90146 0.0
H326 H 0.60497 0.30637 0.95218 0.0
H327 H 0.48687 0.41651 0.85654 0.0
H328 H 0.5625 0.27438 0.88534 0.0
H329 H 0.48128 0.3059 0.89746 0.0
C330 C 0.11949 0.61894 0.90845 0.0
C331 C 0.1296 0.64528 0.90943 0.0
N332 N 0.15431 0.64455 0.91892 0.0
N333 N 0.13773 0.60153 0.91717 0.0
C334 C 0.15849 0.61779 0.92368 0.0
H335 H 0.1004 0.61279 0.90124 0.0
Co336 Co 0.13551 0.56317 0.91785 0.0
C337 C 0.12322 0.54771 0.87323 0.0
O338 O 0.13841 0.52553 0.87521 0.0
N339 N 0.13275 0.52444 0.91893 0.0
C340 C 0.1395 0.47978 0.92449 0.0
C341 C 0.15055 0.5055 0.92648 0.0
C342 C 0.11053 0.50954 0.91326 0.0
N343 N 0.11436 0.48234 0.91611 0.0
O344 O 0.09945 0.56502 0.9301 0.0
H345 H 0.17016 0.50954 0.93352 0.0
H346 H 0.09206 0.51847 0.90672 0.0
O347 O 0.12037 0.56391 0.88892 0.0
C348 C 0.10209 0.56554 0.95002 0.0
O349 O 0.12687 0.56879 0.95771 0.0
N350 N 0.17205 0.56108 0.90835 0.0
C351 C 0.22722 0.54977 0.90163 0.0
C352 C 0.21056 0.55843 0.88494 0.0
C353 C 0.18285 0.56451 0.88873 0.0
C354 C 0.189 0.55646 0.92495 0.0
C355 C 0.21649 0.55008 0.92194 0.0
H356 H 0.1703 0.57146 0.87586 0.0
H357 H 0.18059 0.55609 0.94065 0.0
H358 H 0.17658 0.61006 0.93149 0.0
H359 H 0.11991 0.66334 0.90284 0.0
H360 H 0.14902 0.46066 0.92927 0.0
H361 H 0.21856 0.55941 0.86912 0.0
H362 H 0.22904 0.54449 0.9353 0.0
C363 C 0.89347 0.1357 0.93122 0.0
C364 C 0.86688 0.14513 0.93112 0.0
N365 N 0.86507 0.16614 0.91747 0.0
N366 N 0.90872 0.15058 0.91765 0.0
C367 C 0.89053 0.16875 0.90931 0.0
H368 H 0.90109 0.1195 0.94122 0.0
Co369 Co 0.94732 0.14798 0.91343 0.0
C370 C 0.93801 0.10919 0.87768 0.0
O371 O 0.93935 0.0874 0.8898 0.0
N372 N 0.98536 0.14533 0.90942 0.0
C373 C 0.03003 0.15439 0.90969 0.0
C374 C 1.00424 0.165 0.91302 0.0
C375 C 1.00023 0.1228 0.90435 0.0
N376 N 0.02744 0.12781 0.90438 0.0
O377 O 0.94844 0.1123 0.92679 0.0
H378 H 0.99969 0.18558 0.91831 0.0
H379 H 0.99136 0.10292 0.90116 0.0
O380 O 0.94079 0.13306 0.88557 0.0
C381 C 0.9564 0.11555 0.9457 0.0
O382 O 0.95943 0.1408 0.95256 0.0
N383 N 0.94798 0.18368 0.90255 0.0
C384 C 0.95888 0.23842 0.89302 0.0
C385 C 0.96172 0.21796 0.87767 0.0
C386 C 0.95621 0.19059 0.88276 0.0
C387 C 0.94408 0.20339 0.91739 0.0
C388 C 0.94913 0.23092 0.9129 0.0
H389 H 0.96043 0.17492 0.87124 0.0
H390 H 0.93836 0.19745 0.93314 0.0
H391 H 0.89583 0.18407 0.89772 0.0
H392 H 0.85047 0.13792 0.94113 0.0
H393 H 0.04926 0.16505 0.91191 0.0
H394 H 0.96935 0.2229 0.86217 0.0
H395 H 0.94723 0.2459 0.92535 0.0
C396 C 0.88488 0.11756 0.60023 0.0
C397 C 0.87544 0.14414 0.60004 0.0
N398 N 0.85387 0.14591 0.6131 0.0
N399 N 0.86933 0.10216 0.61327 0.0
C400 C 0.85087 0.12042 0.62121 0.0
H401 H 0.90151 0.11009 0.59063 0.0
Co402 Co 0.87078 0.06311 0.61605 0.0
C403 C 0.89265 0.05171 0.65972 0.0
O404 O 0.88511 0.02591 0.65876 0.0
N405 N 0.8721 0.02418 0.61795 0.0
C406 C 0.86114 0.97982 0.6197 0.0
C407 C 0.85104 1.00613 0.6183 0.0
C408 C 0.8948 0.00802 0.61835 0.0
N409 N 0.88867 0.9811 0.61975 0.0
O410 O 0.90639 0.06194 0.60251 0.0
H411 H 0.82956 0.01142 0.61768 0.0
H412 H 0.91554 0.01587 0.61871 0.0
O413 O 0.88774 0.0679 0.64425 0.0
C414 C 0.903 0.05576 0.5832 0.0
O415 O 0.87773 0.05421 0.57613 0.0
N416 N 0.83492 0.06318 0.62692 0.0
C417 C 0.77949 0.05393 0.63488 0.0
C418 C 0.79862 0.05392 0.65132 0.0
C419 C 0.82632 0.05885 0.64705 0.0
C420 C 0.81633 0.06508 0.61103 0.0
C421 C 0.7885 0.06064 0.61465 0.0
H422 H 0.84058 0.05799 0.65986 0.0
H423 H 0.82346 0.06851 0.59518 0.0
H424 H 0.83446 0.11499 0.63181 0.0
H425 H 0.88333 0.16074 0.59049 0.0
H426 H 0.84917 0.96117 0.62058 0.0
H427 H 0.79236 0.04915 0.66721 0.0
H428 H 0.77451 0.06059 0.60147 0.0
C429 C 0.4013 0.88756 0.63498 0.0
C430 C 0.37487 0.87774 0.63407 0.0
N431 N 0.37523 0.85307 0.6245 0.0
N432 N 0.41844 0.86916 0.62614 0.0
C433 C 0.40189 0.84858 0.61965 0.0
H434 H 0.40768 0.90662 0.64211 0.0
Co435 Co 0.45682 0.87133 0.62509 0.0
C436 C 0.47313 0.88666 0.66927 0.0
O437 O 0.49639 0.87317 0.66761 0.0
N438 N 0.49535 0.87398 0.62354 0.0
C439 C 0.53966 0.86702 0.61696 0.0
C440 C 0.514 0.85549 0.61666 0.0
C441 C 0.51028 0.89686 0.62733 0.0
N442 N 0.53728 0.89305 0.62369 0.0
O443 O 0.45484 0.9075 0.61275 0.0
H444 H 0.50966 0.83509 0.61113 0.0
H445 H 0.50149 0.91591 0.63293 0.0
O446 O 0.4565 0.88719 0.65371 0.0
C447 C 0.45339 0.90685 0.59278 0.0
O448 O 0.44878 0.88309 0.58372 0.0
N449 N 0.45919 0.83477 0.63513 0.0
C450 C 0.47012 0.77946 0.64305 0.0
C451 C 0.46478 0.79762 0.65961 0.0
C452 C 0.45851 0.82516 0.65528 0.0
C453 C 0.46182 0.81677 0.6189 0.0
C454 C 0.46742 0.78908 0.62247 0.0
H455 H 0.4535 0.83841 0.66819 0.0
H456 H 0.46102 0.82438 0.60296 0.0
H457 H 0.40927 0.83049 0.61167 0.0
H458 H 0.35698 0.88766 0.64067 0.0
H459 H 0.55852 0.8572 0.61203 0.0
H460 H 0.46575 0.79065 0.67573 0.0
H461 H 0.4711 0.77568 0.60922 0.0
C462 C 0.65053 0.41069 0.59006 0.0
C463 C 0.66063 0.38438 0.5889 0.0
N464 N 0.67512 0.37909 0.60642 0.0
N465 N 0.65843 0.42221 0.60829 0.0
C466 C 0.67305 0.4022 0.61809 0.0
H467 H 0.63931 0.42104 0.57777 0.0
Co468 Co 0.65445 0.4596 0.61556 0.0
C469 C 0.61588 0.44637 0.65097 0.0
O470 O 0.59362 0.45127 0.63999 0.0
N471 N 0.65056 0.49687 0.62264 0.0
C472 C 0.65841 0.54165 0.6254 0.0
C473 C 0.66957 0.51666 0.62007 0.0
C474 C 0.62787 0.51043 0.62919 0.0
N475 N 0.6321 0.53772 0.63105 0.0
O476 O 0.61907 0.46117 0.60176 0.0
H477 H 0.69005 0.51331 0.61408 0.0
H478 H 0.60837 0.50063 0.63197 0.0
O479 O 0.63943 0.44877 0.64251 0.0
C480 C 0.62265 0.47326 0.58415 0.0
O481 O 0.6478 0.48018 0.57896 0.0
N482 N 0.68981 0.45958 0.62692 0.0
C483 C 0.74429 0.46869 0.63788 0.0
C484 C 0.72338 0.47095 0.65294 0.0
C485 C 0.69613 0.46624 0.64714 0.0
C486 C 0.70993 0.45646 0.61229 0.0
C487 C 0.73734 0.46061 0.61749 0.0
H488 H 0.68011 0.46967 0.65854 0.0
H489 H 0.70448 0.45197 0.59622 0.0
H490 H 0.68366 0.4052 0.63281 0.0
H491 H 0.65832 0.37058 0.57574 0.0
H492 H 0.66854 0.56135 0.62426 0.0
H493 H 0.72794 0.47731 0.66882 0.0
H494 H 0.75273 0.45923 0.60528 0.0
C495 C 0.12181 0.63084 0.62672 0.0
C496 C 0.14818 0.64093 0.62617 0.0
N497 N 0.14737 0.66679 0.61863 0.0
N498 N 0.10433 0.65018 0.61955 0.0
C499 C 0.1206 0.67172 0.61453 0.0
H500 H 0.11567 0.61093 0.63259 0.0
Co501 Co 0.06589 0.64768 0.61909 0.0
C502 C 0.05036 0.63572 0.66365 0.0
O503 O 0.02835 0.65108 0.66148 0.0
N504 N 0.02724 0.64456 0.61843 0.0
C505 C 0.98212 0.65067 0.61536 0.0
C506 C 0.00738 0.66278 0.61319 0.0
C507 C 0.01332 0.62132 0.62315 0.0
N508 N 0.98595 0.6246 0.62163 0.0
O509 O 0.06792 0.6112 0.60729 0.0
H510 H 0.01047 0.68359 0.60801 0.0
H511 H 0.02311 0.60249 0.62827 0.0
O512 O 0.06682 0.63279 0.64812 0.0
C513 C 0.06811 0.61224 0.58728 0.0
O514 O 0.07124 0.63635 0.57832 0.0
N515 N 0.06355 0.68447 0.62818 0.0
C516 C 0.05394 0.74038 0.63424 0.0
C517 C 0.06132 0.72341 0.65117 0.0
C518 C 0.06684 0.69551 0.6477 0.0
C519 C 0.05912 0.70124 0.6114 0.0
C520 C 0.05395 0.72912 0.61405 0.0
H521 H 0.07346 0.68305 0.66074 0.0
H522 H 0.05821 0.69248 0.59584 0.0
H523 H 0.113 0.69088 0.60825 0.0
H524 H 0.16635 0.6304 0.63173 0.0
H525 H 0.96245 0.66023 0.61231 0.0
H526 H 0.06253 0.73158 0.66693 0.0
H527 H 0.04856 0.74138 0.60048 0.0
H528 H 0.62809 0.94315 0.15821 0.0
H529 H 0.59599 0.90498 0.16267 0.0
H530 H 0.54236 0.94134 0.11636 0.0
H531 H 0.57377 0.98041 0.11309 0.0
H532 H 0.51215 0.91814 0.14348 0.0
H533 H 0.59028 0.88797 0.10491 0.0
H534 H 0.6393 0.88032 0.09738 0.0
H535 H 0.64637 0.82946 0.15217 0.0
H536 H 0.59744 0.83711 0.1602 0.0
H537 H 0.45425 0.79011 0.10824 0.0
H538 H 0.47648 0.83471 0.11285 0.0
H539 H 0.51667 0.80463 0.16858 0.0
H540 H 0.49463 0.75993 0.16399 0.0
H541 H 0.55234 0.82477 0.13795 0.0
H542 H 0.46921 0.85406 0.17286 0.0
H543 H 0.41924 0.86102 0.17559 0.0
H544 H 0.42068 0.91242 0.12083 0.0
H545 H 0.47062 0.90549 0.11761 0.0
C546 C 0.60922 0.94303 0.14928 0.0
C547 C 0.60332 0.96442 0.13527 0.0
C548 C 0.59098 0.9212 0.15167 0.0
C549 C 0.56706 0.91979 0.1394 0.0
C550 C 0.56067 0.94182 0.12597 0.0
C551 C 0.57857 0.96409 0.12405 0.0
C552 C 0.54951 0.89482 0.13986 0.0
C553 C 0.52096 0.89775 0.14209 0.0
C554 C 0.56085 0.86809 0.13808 0.0
C555 C 0.59027 0.86335 0.13328 0.0
C556 C 0.60233 0.87531 0.11543 0.0
C557 C 0.6301 0.87095 0.11107 0.0
C558 C 0.64596 0.85448 0.12432 0.0
C559 C 0.63407 0.84225 0.14194 0.0
C560 C 0.60632 0.84658 0.1464 0.0
C561 C 0.46739 0.79322 0.12172 0.0
C562 C 0.47285 0.77152 0.1357 0.0
C563 C 0.47995 0.81874 0.12439 0.0
C564 C 0.49823 0.82295 0.14105 0.0
C565 C 0.50257 0.80178 0.15565 0.0
C566 C 0.48983 0.77633 0.15309 0.0
C567 C 0.51518 0.84814 0.14183 0.0
C568 C 0.54363 0.84519 0.1396 0.0
C569 C 0.50363 0.87475 0.1429 0.0
C570 C 0.47363 0.8791 0.14493 0.0
C571 C 0.45885 0.86669 0.16132 0.0
C572 C 0.43053 0.87067 0.16297 0.0
C573 C 0.41678 0.88712 0.14837 0.0
C574 C 0.43134 0.89968 0.13212 0.0
C575 C 0.45966 0.89578 0.1304 0.0
H576 H 0.39486 0.89015 0.14967 0.0
H577 H 0.66745 0.85113 0.12091 0.0
H578 H 0.73376 0.46638 0.11579 0.0
H579 H 0.68957 0.48996 0.11717 0.0
H580 H 0.70861 0.52021 0.17892 0.0
H581 H 0.75342 0.49699 0.17748 0.0
H582 H 0.64736 0.5025 0.16739 0.0
H583 H 0.72327 0.56249 0.14899 0.0
H584 H 0.76587 0.57267 0.12967 0.0
H585 H 0.72367 0.56191 0.07119 0.0
H586 H 0.68092 0.55115 0.09021 0.0
H587 H 0.54774 0.61116 0.15495 0.0
H588 H 0.5868 0.58207 0.16505 0.0
H589 H 0.60771 0.57213 0.09964 0.0
H590 H 0.56998 0.60273 0.08993 0.0
H591 H 0.6509 0.58153 0.11829 0.0
H592 H 0.57545 0.52128 0.13502 0.0
H593 H 0.53334 0.50544 0.15289 0.0
H594 H 0.57327 0.51279 0.21254 0.0
H595 H 0.61536 0.5291 0.19509 0.0
C596 C 0.72831 0.47754 0.12987 0.0
C597 C 0.7472 0.48026 0.14638 0.0
C598 C 0.70302 0.49086 0.13068 0.0
C599 C 0.69605 0.50699 0.14805 0.0
C600 C 0.71369 0.50774 0.16542 0.0
C601 C 0.73921 0.49447 0.16458 0.0
C602 C 0.67249 0.52604 0.14639 0.0
C603 C 0.64805 0.52012 0.15697 0.0
C604 C 0.67351 0.54859 0.13248 0.0
C605 C 0.69898 0.55579 0.12102 0.0
C606 C 0.72313 0.5621 0.13202 0.0
C607 C 0.7473 0.56799 0.12112 0.0
C608 C 0.74749 0.56788 0.09922 0.0
C609 C 0.72349 0.56197 0.08816 0.0
C610 C 0.69929 0.55599 0.09899 0.0
C611 C 0.56072 0.6025 0.14286 0.0
C612 C 0.55616 0.60913 0.12173 0.0
C613 C 0.58291 0.58575 0.14857 0.0
C614 C 0.60026 0.57455 0.13314 0.0
C615 C 0.59495 0.58065 0.11194 0.0
C616 C 0.57337 0.59802 0.10633 0.0
C617 C 0.62481 0.55773 0.13875 0.0
C618 C 0.64981 0.56416 0.12893 0.0
C619 C 0.62405 0.53551 0.15322 0.0
C620 C 0.59843 0.52663 0.16374 0.0
C621 C 0.5751 0.51977 0.15195 0.0
C622 C 0.55129 0.51067 0.16199 0.0
C623 C 0.5507 0.50804 0.1838 0.0
C624 C 0.57379 0.51479 0.19564 0.0
C625 C 0.5976 0.52399 0.18569 0.0
H626 H 0.53241 0.50066 0.19152 0.0
H627 H 0.76622 0.57243 0.09081 0.0
H628 H 0.06364 0.73208 0.10805 0.0
H629 H 0.04131 0.68724 0.11019 0.0
H630 H 0.99475 0.71473 0.16373 0.0
H631 H 0.01688 0.75959 0.16164 0.0
H632 H 0.01005 0.66205 0.1684 0.0
H633 H 0.96848 0.71748 0.11501 0.0
H634 H 0.9667 0.74569 0.08293 0.0
H635 H 0.99463 0.67713 0.04647 0.0
H636 H 0.99736 0.64862 0.07847 0.0
H637 H 0.89209 0.57902 0.16487 0.0
H638 H 0.92326 0.61793 0.16269 0.0
H639 H 0.96829 0.57761 0.11334 0.0
H640 H 0.93764 0.53808 0.11577 0.0
H641 H 0.95739 0.6337 0.1055 0.0
H642 H 0.99537 0.57746 0.15995 0.0
H643 H 0.99417 0.55009 0.19248 0.0
H644 H 0.96941 0.62136 0.22727 0.0
H645 H 0.97004 0.64909 0.19487 0.0
C646 C 0.04886 0.72846 0.12043 0.0
C647 C 0.04181 0.74951 0.13454 0.0
C648 C 0.03612 0.70283 0.12162 0.0
C649 C 0.01597 0.69782 0.13686 0.0
C650 C 0.01019 0.71817 0.1518 0.0
C651 C 0.02296 0.74379 0.15065 0.0
C652 C 0.99963 0.67214 0.13649 0.0
C653 C 0.99843 0.65595 0.15468 0.0
C654 C 0.9848 0.6639 0.11845 0.0
C655 C 0.98354 0.68104 0.0992 0.0
C656 C 0.97462 0.7085 0.10021 0.0
C657 C 0.97342 0.72454 0.08203 0.0
C658 C 0.98073 0.71324 0.0627 0.0
C659 C 0.9892 0.68586 0.0615 0.0
C660 C 0.99061 0.66977 0.07965 0.0
C661 C 0.90869 0.5782 0.15364 0.0
C662 C 0.91239 0.55516 0.14065 0.0
C663 C 0.92646 0.60056 0.15238 0.0
C664 C 0.94829 0.60046 0.13807 0.0
C665 C 0.95159 0.57801 0.12455 0.0
C666 C 0.93391 0.55548 0.1259 0.0
C667 C 0.96766 0.62385 0.13745 0.0
C668 C 0.96936 0.63962 0.11909 0.0
C669 C 0.98271 0.63186 0.15538 0.0
C670 C 0.98255 0.61531 0.17494 0.0
C671 C 0.98947 0.58726 0.1745 0.0
C672 C 0.98892 0.57169 0.19293 0.0
C673 C 0.98167 0.58397 0.21192 0.0
C674 C 0.97501 0.61187 0.21254 0.0
C675 C 0.97548 0.62754 0.19415 0.0
H676 H 0.98125 0.57187 0.22617 0.0
H677 H 0.9797 0.72566 0.04864 0.0
H678 H 0.93032 0.87887 0.13165 0.0
H679 H 0.89157 0.90979 0.13712 0.0
H680 H 0.94016 0.97792 0.11509 0.0
H681 H 0.97946 0.94683 0.11011 0.0
H682 H 0.90892 0.99371 0.14735 0.0
H683 H 0.89223 0.94791 0.08273 0.0
H684 H 0.88794 0.9089 0.05839 0.0
H685 H 0.82394 0.87466 0.09645 0.0
H686 H 0.82782 0.91347 0.12107 0.0
H687 H 0.78509 0.07262 0.12543 0.0
H688 H 0.82965 0.04915 0.12437 0.0
H689 H 0.79357 0.97797 0.15356 0.0
H690 H 0.74911 1.00112 0.15454 0.0
H691 H 0.82004 0.96697 0.11566 0.0
H692 H 0.83803 0.01536 0.18027 0.0
H693 H 0.8422 0.05653 0.20246 0.0
H694 H 0.90425 0.08856 0.16145 0.0
H695 H 0.90017 0.04773 0.13884 0.0
C696 C 0.93273 0.90043 0.12797 0.0
C697 C 0.95776 0.91041 0.12024 0.0
C698 C 0.91058 0.91811 0.13107 0.0
C699 C 0.9127 0.94611 0.12608 0.0
C700 C 0.93799 0.95638 0.11899 0.0
C701 C 0.9604 0.93866 0.11617 0.0
C702 C 0.88817 0.96421 0.12788 0.0
C703 C 0.88958 0.9881 0.14015 0.0
C704 C 0.86286 0.9569 0.11858 0.0
C705 C 0.86046 0.9335 0.10383 0.0
C706 C 0.87736 0.93198 0.08599 0.0
C707 C 0.87499 0.90991 0.07213 0.0
C708 C 0.8558 0.88925 0.07593 0.0
C709 C 0.83882 0.89067 0.09355 0.0
C710 C 0.84104 0.91273 0.10743 0.0
C711 C 0.78681 0.05216 0.13197 0.0
C712 C 0.76356 0.03873 0.14006 0.0
C713 C 0.81228 0.03882 0.13143 0.0
C714 C 0.81488 0.0118 0.13886 0.0
C715 C 0.792 0.99884 0.14777 0.0
C716 C 0.76664 0.0122 0.14848 0.0
C717 C 0.84059 0.996 0.13557 0.0
C718 C 0.8394 0.97261 0.12283 0.0
C719 C 0.86608 1.00412 0.14412 0.0
C720 C 0.86858 0.02862 0.15773 0.0
C721 C 0.85238 0.03129 0.17587 0.0
C722 C 0.85477 0.05454 0.18855 0.0
C723 C 0.87342 0.07519 0.18334 0.0
C724 C 0.88978 0.07258 0.16546 0.0
C725 C 0.88746 0.04938 0.15271 0.0
H726 H 0.87524 0.09317 0.19318 0.0
H727 H 0.85402 0.87217 0.06518 0.0
H728 H 0.9982 0.25286 0.37323 0.0
H729 H 0.01874 0.20706 0.37148 0.0
H730 H 0.97026 0.18176 0.42474 0.0
H731 H 0.95045 0.22791 0.42689 0.0
H732 H 0.02037 0.16992 0.43188 0.0
H733 H 0.96175 0.15407 0.37379 0.0
H734 H 0.9392 0.16336 0.33993 0.0
H735 H 0.01734 0.16229 0.3089 0.0
H736 H 0.04044 0.1534 0.34263 0.0
H737 H 0.07614 0.03275 0.4254 0.0
H738 H 0.04276 0.07062 0.42377 0.0
H739 H 0.09605 0.11459 0.38154 0.0
H740 H 0.12964 0.07712 0.38353 0.0
H741 H 0.03876 0.11286 0.36912 0.0
H742 H 0.09649 0.13525 0.4284 0.0
H743 H 0.11855 0.13011 0.46298 0.0
H744 H 0.03981 0.11881 0.49181 0.0
H745 H 0.01729 0.12368 0.45735 0.0
C746 C 0.99139 0.23726 0.38416 0.0
C747 C 0.97284 0.24388 0.40022 0.0
C748 C 1.00309 0.21102 0.38315 0.0
C749 C 0.99604 0.19078 0.39795 0.0
C750 C 0.97618 0.19699 0.41321 0.0
C751 C 0.96479 0.22331 0.4144 0.0
C752 C 0.01159 0.16442 0.39903 0.0
C753 C 0.02372 0.1571 0.41822 0.0
C754 C 0.01664 0.14793 0.38115 0.0
C755 C 1.00285 0.15326 0.3608 0.0
C756 C 0.97416 0.15603 0.35978 0.0
C757 C 0.96127 0.16119 0.3406 0.0
C758 C 0.97683 0.16347 0.32228 0.0
C759 C 1.00532 0.16054 0.3231 0.0
C760 C 0.01832 0.1554 0.34225 0.0
C761 C 0.08054 0.05042 0.41565 0.0
C762 C 0.10543 0.05211 0.4046 0.0
C763 C 0.06157 0.07204 0.4148 0.0
C764 C 0.06697 0.09538 0.40252 0.0
C765 C 0.0915 0.09674 0.39107 0.0
C766 C 0.11069 0.07545 0.39229 0.0
C767 C 0.04743 0.11874 0.40187 0.0
C768 C 0.03474 0.12547 0.38278 0.0
C769 C 0.04161 0.1346 0.41986 0.0
C770 C 0.05524 0.12955 0.44028 0.0
C771 C 0.08392 0.13125 0.44206 0.0
C772 C 0.09648 0.12862 0.46166 0.0
C773 C 0.08056 0.12442 0.47959 0.0
C774 C 0.05208 0.1223 0.47793 0.0
C775 C 0.03942 0.12497 0.45837 0.0
H776 H 0.0903 0.12265 0.49478 0.0
H777 H 0.96681 0.16746 0.30744 0.0
H778 H 0.28544 0.9474 0.4238 0.0
H779 H 0.32996 0.97014 0.42398 0.0
H780 H 0.30845 0.0135 0.3673 0.0
H781 H 0.26327 0.99219 0.36769 0.0
H782 H 0.37451 0.97696 0.40076 0.0
H783 H 0.32824 0.07931 0.37126 0.0
H784 H 0.28334 0.10274 0.36977 0.0
H785 H 0.25642 0.05769 0.42389 0.0
H786 H 0.30128 0.03432 0.42588 0.0
H787 H 0.48196 0.07644 0.38945 0.0
H788 H 0.44352 0.04504 0.38385 0.0
H789 H 0.39891 0.08439 0.43398 0.0
H790 H 0.43684 0.11608 0.43921 0.0
H791 H 0.36668 0.07851 0.40262 0.0
H792 H 0.42935 0.01984 0.43894 0.0
H793 H 0.47343 0.99653 0.44557 0.0
H794 H 0.46662 0.95419 0.3868 0.0
H795 H 0.42264 0.97762 0.37974 0.0
C796 C 0.29018 0.96168 0.41129 0.0
C797 C 0.27041 0.96844 0.39603 0.0
C798 C 0.31583 0.97442 0.41128 0.0
C799 C 0.32233 0.99401 0.39593 0.0
C800 C 0.30368 0.99883 0.37955 0.0
C801 C 0.27788 0.98638 0.37968 0.0
C802 C 0.34703 0.01153 0.39845 0.0
C803 C 0.37288 0.99917 0.401 0.0
C804 C 0.34484 0.04051 0.39935 0.0
C805 C 0.31799 0.05486 0.39855 0.0
C806 C 0.31277 0.0745 0.38288 0.0
C807 C 0.28733 0.08776 0.38195 0.0
C808 C 0.26701 0.08163 0.39668 0.0
C809 C 0.27214 0.06235 0.41245 0.0
C810 C 0.29756 0.04909 0.41348 0.0
C811 C 0.46407 0.07816 0.39942 0.0
C812 C 0.46244 0.09877 0.4148 0.0
C813 C 0.44211 0.06019 0.39621 0.0
C814 C 0.4183 0.06223 0.40855 0.0
C815 C 0.41692 0.08251 0.42412 0.0
C816 C 0.43865 0.10064 0.42713 0.0
C817 C 0.39433 0.04404 0.4049 0.0
C818 C 0.36851 0.05632 0.40213 0.0
C819 C 0.39652 0.01502 0.40451 0.0
C820 C 0.42284 1.00072 0.40874 0.0
C821 C 0.43736 1.00571 0.42739 0.0
C822 C 0.46231 0.99246 0.43123 0.0
C823 C 0.47286 0.97393 0.41659 0.0
C824 C 0.45843 0.96858 0.39812 0.0
C825 C 0.43348 0.98184 0.3942 0.0
H826 H 0.49219 0.96367 0.41957 0.0
H827 H 0.24732 0.09188 0.3959 0.0
H828 H 0.56876 0.27961 0.41667 0.0
H829 H 0.54623 0.32453 0.41477 0.0
H830 H 0.48817 0.29232 0.37017 0.0
H831 H 0.51105 0.24762 0.37165 0.0
H832 H 0.4996 0.34393 0.36068 0.0
H833 H 0.47423 0.29499 0.42343 0.0
H834 H 0.48287 0.27043 0.45663 0.0
H835 H 0.5217 0.34209 0.48197 0.0
H836 H 0.51364 0.36696 0.44878 0.0
H837 H 0.38379 0.4295 0.38035 0.0
H838 H 0.41593 0.39096 0.37719 0.0
H839 H 0.47315 0.43287 0.41732 0.0
H840 H 0.4412 0.47183 0.42024 0.0
H841 H 0.46532 0.37914 0.42882 0.0
H842 H 0.48635 0.42924 0.3663 0.0
H843 H 0.47597 0.4532 0.33314 0.0
H844 H 0.4432 0.37878 0.30744 0.0
H845 H 0.453 0.35445 0.34057 0.0
C846 C 0.55147 0.28229 0.4062 0.0
C847 C 0.5415 0.26008 0.39443 0.0
C848 C 0.53855 0.30791 0.40518 0.0
C849 C 0.51507 0.31164 0.39271 0.0
C850 C 0.50617 0.28995 0.37996 0.0
C851 C 0.5193 0.26441 0.38077 0.0
C852 C 0.4986 0.33734 0.39407 0.0
C853 C 0.49195 0.35151 0.37556 0.0
C854 C 0.48895 0.34756 0.41353 0.0
C855 C 0.4936 0.33272 0.43355 0.0
C856 C 0.48478 0.30544 0.43604 0.0
C857 C 0.48956 0.29147 0.45485 0.0
C858 C 0.5029 0.30467 0.47138 0.0
C859 C 0.51142 0.33189 0.46914 0.0
C860 C 0.50674 0.34593 0.45033 0.0
C861 C 0.40331 0.43053 0.38838 0.0
C862 C 0.4101 0.45364 0.40046 0.0
C863 C 0.4217 0.40863 0.38647 0.0
C864 C 0.44711 0.4093 0.39679 0.0
C865 C 0.45383 0.43224 0.40901 0.0
C866 C 0.43565 0.45442 0.41061 0.0
C867 C 0.46619 0.38557 0.39543 0.0
C868 C 0.47323 0.37173 0.41396 0.0
C869 C 0.47597 0.37556 0.37599 0.0
C870 C 0.4702 0.39008 0.35599 0.0
C871 C 0.47673 0.41803 0.35364 0.0
C872 C 0.47099 0.43167 0.33484 0.0
C873 C 0.45888 0.41754 0.31821 0.0
C874 C 0.45256 0.38971 0.32034 0.0
C875 C 0.45823 0.37598 0.33912 0.0
H876 H 0.45445 0.42814 0.30367 0.0
H877 H 0.50658 0.29382 0.48594 0.0
H878 H 0.04002 0.43247 0.42821 0.0
H879 H 0.0809 0.46144 0.42922 0.0
H880 H 0.11975 0.40959 0.38312 0.0
H881 H 0.07959 0.37997 0.38272 0.0
H882 H 0.15544 0.42363 0.41212 0.0
H883 H 0.0879 0.47165 0.36998 0.0
H884 H 0.04274 0.49298 0.36361 0.0
H885 H 0.05625 0.54903 0.41444 0.0
H886 H 0.1014 0.5278 0.42125 0.0
H887 H 0.25954 0.5055 0.37154 0.0
H888 H 0.21566 0.48168 0.37338 0.0
H889 H 0.18894 0.53644 0.4224 0.0
H890 H 0.23262 0.561 0.42023 0.0
H891 H 0.14668 0.52277 0.3952 0.0
H892 H 0.21541 0.47677 0.43584 0.0
H893 H 0.26068 0.45567 0.44213 0.0
H894 H 0.24474 0.39564 0.39448 0.0
H895 H 0.19953 0.41667 0.38766 0.0
C896 C 0.05744 0.42693 0.41858 0.0
C897 C 0.0564 0.40397 0.40523 0.0
C898 C 0.0807 0.44372 0.419 0.0
C899 C 0.10322 0.438 0.40595 0.0
C900 C 0.10258 0.41454 0.39323 0.0
C901 C 0.07948 0.39773 0.39288 0.0
C902 C 0.12734 0.45655 0.40504 0.0
C903 C 0.1535 0.44524 0.40823 0.0
C904 C 0.12482 0.48495 0.40054 0.0
C905 C 0.09789 0.49797 0.39625 0.0
C906 C 0.08117 0.48842 0.37987 0.0
C907 C 0.05559 0.50051 0.37616 0.0
C908 C 0.0466 0.5223 0.38864 0.0
C909 C 0.06322 0.53212 0.4048 0.0
C910 C 0.08882 0.5201 0.40857 0.0
C911 C 0.24407 0.51306 0.38228 0.0
C912 C 0.24971 0.53503 0.39587 0.0
C913 C 0.21908 0.49922 0.38346 0.0
C914 C 0.19929 0.50694 0.39833 0.0
C915 C 0.20403 0.53002 0.41093 0.0
C916 C 0.22906 0.54391 0.40976 0.0
C917 C 0.1747 0.48962 0.40175 0.0
C918 C 0.14854 0.50118 0.39916 0.0
C919 C 0.17717 0.46142 0.40683 0.0
C920 C 0.20418 0.44845 0.41112 0.0
C921 C 0.22163 0.45918 0.42661 0.0
C922 C 0.24728 0.44723 0.43028 0.0
C923 C 0.25561 0.42436 0.41868 0.0
C924 C 0.23827 0.41336 0.40344 0.0
C925 C 0.21262 0.42528 0.39967 0.0
H926 H 0.27548 0.41514 0.42154 0.0
H927 H 0.02678 0.53161 0.38577 0.0
H928 H 0.38677 0.07999 0.94071 0.0
H929 H 0.4143 0.11979 0.93134 0.0
H930 H 0.45069 0.07462 0.88031 0.0
H931 H 0.42254 0.03456 0.88932 0.0
H932 H 0.48853 0.1092 0.90491 0.0
H933 H 0.4047 0.11516 0.86635 0.0
H934 H 0.35459 0.113 0.86158 0.0
H935 H 0.3439 0.17865 0.90569 0.0
H936 H 0.39394 0.18091 0.91099 0.0
H937 H 0.53438 0.24235 0.86575 0.0
H938 H 0.51556 0.19563 0.8669 0.0
H939 H 0.46235 0.21926 0.91781 0.0
H940 H 0.4814 0.26529 0.91726 0.0
H941 H 0.43505 0.19241 0.88585 0.0
H942 H 0.51742 0.18233 0.92777 0.0
H943 H 0.56726 0.18392 0.93414 0.0
H944 H 0.58063 0.12624 0.88431 0.0
H945 H 0.53084 0.12459 0.87748 0.0
C946 C 0.40053 0.07842 0.92746 0.0
C947 C 0.40206 0.05422 0.91554 0.0
C948 C 0.41641 0.10115 0.92222 0.0
C949 C 0.43422 0.1002 0.90498 0.0
C950 C 0.43699 0.07569 0.89366 0.0
C951 C 0.42094 0.05285 0.89886 0.0
C952 C 0.44839 0.12558 0.89832 0.0
C953 C 0.47699 0.12727 0.90026 0.0
C954 C 0.4332 0.14913 0.89246 0.0
C955 C 0.40308 0.14808 0.88916 0.0
C956 C 0.39166 0.12901 0.87515 0.0
C957 C 0.36326 0.12778 0.87233 0.0
C958 C 0.34607 0.14565 0.88334 0.0
C959 C 0.35724 0.16482 0.89717 0.0
C960 C 0.38563 0.16611 0.90006 0.0
C961 C 0.51882 0.23751 0.87728 0.0
C962 C 0.50912 0.25775 0.8912 0.0
C963 C 0.50808 0.21085 0.87788 0.0
C964 C 0.48749 0.20409 0.89238 0.0
C965 C 0.47801 0.22415 0.90634 0.0
C966 C 0.4888 0.25058 0.90587 0.0
C967 C 0.47514 0.17636 0.89308 0.0
C968 C 0.44676 0.17423 0.89 0.0
C969 C 0.49057 0.15252 0.89789 0.0
C970 C 0.52047 0.15364 0.90191 0.0
C971 C 0.53101 0.17022 0.91802 0.0
C972 C 0.55924 0.17107 0.92176 0.0
C973 C 0.57711 0.15528 0.90958 0.0
C974 C 0.56677 0.13852 0.89369 0.0
C975 C 0.53855 0.13761 0.88989 0.0
H976 H 0.59896 0.15595 0.9125 0.0
H977 H 0.32409 0.14467 0.88115 0.0
H978 H 0.4738 0.46565 0.86872 0.0
H979 H 0.43142 0.49241 0.87271 0.0
H980 H 0.40712 0.44056 0.92426 0.0
H981 H 0.44991 0.41407 0.92058 0.0
H982 H 0.37407 0.4511 0.87667 0.0
H983 H 0.3994 0.48454 0.94679 0.0
H984 H 0.4274 0.50765 0.97369 0.0
H985 H 0.43597 0.57795 0.93354 0.0
H986 H 0.40773 0.5553 0.9065 0.0
H987 H 0.24501 0.49931 0.91258 0.0
H988 H 0.29143 0.48062 0.90971 0.0
H989 H 0.3186 0.55586 0.88072 0.0
H990 H 0.27167 0.57462 0.88333 0.0
H991 H 0.35154 0.53601 0.91599 0.0
H992 H 0.31452 0.50416 0.85064 0.0
H993 H 0.28029 0.48167 0.82806 0.0
H994 H 0.29174 0.40592 0.86149 0.0
H995 H 0.32576 0.42807 0.88448 0.0
C996 C 0.45961 0.46035 0.88113 0.0
C997 C 0.46492 0.43779 0.89428 0.0
C998 C 0.4356 0.47572 0.8835 0.0
C999 C 0.41638 0.4686 0.89891 0.0
C1000 C 0.42199 0.44662 0.91252 0.0
C1001 C 0.44629 0.43149 0.91038 0.0
C1002 C 0.38889 0.48135 0.89843 0.0
C1003 C 0.36902 0.46953 0.8854 0.0
C1004 C 0.38262 0.50566 0.90946 0.0
C1005 C 0.40192 0.51808 0.92453 0.0
C1006 C 0.40766 0.50473 0.94358 0.0
C1007 C 0.42324 0.51789 0.95895 0.0
C1008 C 0.43337 0.54429 0.95535 0.0
C1009 C 0.42805 0.55754 0.93632 0.0
C1010 C 0.41224 0.54457 0.92099 0.0
C1011 C 0.26086 0.51175 0.90542 0.0
C1012 C 0.25494 0.53836 0.89818 0.0
C1013 C 0.28729 0.50106 0.90376 0.0
C1014 C 0.30836 0.51685 0.89497 0.0
C1015 C 0.30252 0.5434 0.88752 0.0
C1016 C 0.27582 0.554 0.8889 0.0
C1017 C 0.33658 0.50562 0.89438 0.0
C1018 C 0.35664 0.51774 0.90708 0.0
C1019 C 0.34286 0.48128 0.8833 0.0
C1020 C 0.32255 0.46785 0.86939 0.0
C1021 C 0.30959 0.48277 0.85329 0.0
C1022 C 0.29025 0.47007 0.84039 0.0
C1023 C 0.2838 0.4424 0.84336 0.0
C1024 C 0.29674 0.42736 0.85921 0.0
C1025 C 0.31608 0.43996 0.87216 0.0
H1026 H 0.26882 0.43261 0.83336 0.0
H1027 H 0.44543 0.55443 0.96727 0.0
H1028 H 0.00707 0.25273 0.87444 0.0
H1029 H 0.0291 0.29765 0.8749 0.0
H1030 H 0.95799 0.33255 0.90504 0.0
H1031 H 0.93555 0.28752 0.90445 0.0
H1032 H 0.98594 0.36831 0.87384 0.0
H1033 H 1.00352 0.31381 0.93583 0.0
H1034 H 0.01695 0.27131 0.95425 0.0
H1035 H 0.09621 0.27403 0.92497 0.0
H1036 H 0.08304 0.31631 0.90608 0.0
H1037 H 0.05886 0.48247 0.91882 0.0
H1038 H 0.0282 0.44354 0.91212 0.0
H1039 H 0.09797 0.39378 0.89478 0.0
H1040 H 0.12843 0.43229 0.90187 0.0
H1041 H 0.06729 0.36658 0.92056 0.0
H1042 H 0.05121 0.42025 0.85854 0.0
H1043 H 0.03857 0.4618 0.8387 0.0
H1044 H 0.95808 0.46036 0.866 0.0
H1045 H 0.97047 0.41906 0.8864 0.0
C1046 C 0.99569 0.2701 0.88052 0.0
C1047 C 0.96962 0.26655 0.88953 0.0
C1048 C 0.00838 0.29573 0.88087 0.0
C1049 C 0.99525 0.31827 0.8902 0.0
C1050 C 0.96842 0.31535 0.89778 0.0
C1051 C 0.95574 0.28962 0.89755 0.0
C1052 C 0.01092 0.34365 0.89437 0.0
C1053 C 1.00354 0.36815 0.88424 0.0
C1054 C 0.03404 0.34318 0.90772 0.0
C1055 C 0.0422 0.31808 0.9194 0.0
C1056 C 0.02374 0.30524 0.93321 0.0
C1057 C 0.03131 0.2812 0.94375 0.0
C1058 C 0.05739 0.26994 0.94075 0.0
C1059 C 0.07599 0.28276 0.92726 0.0
C1060 C 0.06849 0.30676 0.91664 0.0
C1061 C 0.06749 0.46328 0.91336 0.0
C1062 C 0.096 0.46028 0.91099 0.0
C1063 C 0.05001 0.44107 0.90951 0.0
C1064 C 0.06076 0.41571 0.90287 0.0
C1065 C 0.08919 0.41303 0.90005 0.0
C1066 C 0.10659 0.43502 0.90413 0.0
C1067 C 0.04285 0.39144 0.89967 0.0
C1068 C 0.0497 0.367 0.91016 0.0
C1069 C 0.01943 0.39203 0.88651 0.0
C1070 C 0.01187 0.41674 0.87417 0.0
C1071 C 0.03089 0.42892 0.86045 0.0
C1072 C 0.02375 0.45242 0.84907 0.0
C1073 C 0.99753 0.46375 0.85109 0.0
C1074 C 0.97839 0.45158 0.86448 0.0
C1075 C 0.98547 0.42813 0.87596 0.0
H1076 H 0.99201 0.48193 0.84227 0.0
H1077 H 0.06322 0.25132 0.94891 0.0
H1078 H 0.2221 0.95037 0.91956 0.0
H1079 H 0.17803 0.97457 0.91697 0.0
H1080 H 0.21275 0.02986 0.87132 0.0
H1081 H 0.25672 1.00559 0.87368 0.0
H1082 H 0.18869 0.05537 0.90756 0.0
H1083 H 0.16687 0.9875 0.85511 0.0
H1084 H 0.16142 0.94035 0.84179 0.0
H1085 H 0.1017 0.92367 0.88961 0.0
H1086 H 0.10709 0.97063 0.90341 0.0
H1087 H 0.07493 0.13717 0.88415 0.0
H1088 H 0.11396 0.10585 0.88093 0.0
H1089 H 0.06935 0.04388 0.91523 0.0
H1090 H 0.02982 0.07504 0.91775 0.0
H1091 H 0.09787 0.02008 0.88543 0.0
H1092 H 0.11883 0.08432 0.93912 0.0
H1093 H 0.12406 0.12988 0.95542 0.0
H1094 H 0.18529 0.15123 0.9099 0.0
H1095 H 0.18015 0.10594 0.89311 0.0
C1096 C 0.22011 0.96732 0.90865 0.0
C1097 C 0.24281 0.9761 0.8968 0.0
C1098 C 0.19495 0.98108 0.90716 0.0
C1099 C 0.19217 1.00403 0.89398 0.0
C1100 C 0.21448 0.01216 0.88155 0.0
C1101 C 0.23951 0.99816 0.88279 0.0
C1102 C 0.16689 0.02104 0.89458 0.0
C1103 C 0.16889 0.04783 0.9024 0.0
C1104 C 0.14091 0.0107 0.88876 0.0
C1105 C 0.13759 0.9825 0.88043 0.0
C1106 C 0.15276 0.97371 0.86291 0.0
C1107 C 0.14964 0.94703 0.85524 0.0
C1108 C 0.13128 0.929 0.86488 0.0
C1109 C 0.11594 0.93765 0.88217 0.0
C1110 C 0.119 0.9643 0.88991 0.0
C1111 C 0.07345 0.11679 0.89086 0.0
C1112 C 0.04949 0.10854 0.90126 0.0
C1113 C 0.09577 0.09892 0.8891 0.0
C1114 C 0.0949 0.07265 0.89824 0.0
C1115 C 0.07058 0.06402 0.90807 0.0
C1116 C 0.048 0.08179 0.90949 0.0
C1117 C 0.11972 0.05473 0.89805 0.0
C1118 C 0.11765 0.02771 0.89052 0.0
C1119 C 0.14564 0.06461 0.90462 0.0
C1120 C 0.14891 0.09183 0.91473 0.0
C1121 C 0.13326 0.0988 0.93249 0.0
C1122 C 0.13623 0.12456 0.94183 0.0
C1123 C 0.15494 0.14345 0.93367 0.0
C1124 C 0.17078 0.13659 0.91618 0.0
C1125 C 0.16787 0.11087 0.90675 0.0
H1126 H 0.1572 0.16338 0.94093 0.0
H1127 H 0.12889 0.90835 0.85892 0.0
H1128 H 0.01761 0.75851 0.66369 0.0
H1129 H 0.99349 0.80262 0.66407 0.0
H1130 H 0.04213 0.83033 0.61172 0.0
H1131 H 0.06664 0.78638 0.61145 0.0
H1132 H 0.02992 0.87262 0.64078 0.0
H1133 H 0.98356 0.80174 0.6016 0.0
H1134 H 0.96346 0.75571 0.59717 0.0
H1135 H 0.90659 0.77189 0.64709 0.0
H1136 H 0.92669 0.81787 0.65205 0.0
H1137 H 0.93816 0.97472 0.60117 0.0
H1138 H 0.96975 0.93584 0.60536 0.0
H1139 H 0.91362 0.89842 0.64925 0.0
H1140 H 0.88169 0.9366 0.64431 0.0
H1141 H 0.93105 0.86127 0.62469 0.0
H1142 H 0.97604 0.93229 0.664 0.0
H1143 H 0.99639 0.97804 0.66941 0.0
H1144 H 0.05536 0.96208 0.6209 0.0
H1145 H 0.03514 0.91635 0.61502 0.0
C1146 C 0.0238 0.77431 0.65271 0.0
C1147 C 0.04381 0.76887 0.63739 0.0
C1148 C 0.00986 0.79944 0.65285 0.0
C1149 C 0.01571 0.81954 0.63769 0.0
C1150 C 0.03722 0.81505 0.62349 0.0
C1151 C 0.05108 0.78988 0.62328 0.0
C1152 C 0.99746 0.84374 0.6351 0.0
C1153 C 0.00833 0.87024 0.63713 0.0
C1154 C 0.96925 0.84056 0.63057 0.0
C1155 C 0.9568 0.81313 0.62733 0.0
C1156 C 0.96688 0.79541 0.61172 0.0
C1157 C 0.95549 0.76933 0.60911 0.0
C1158 C 0.9338 0.76085 0.62187 0.0
C1159 C 0.92341 0.77847 0.63723 0.0
C1160 C 0.93479 0.80454 0.63995 0.0
C1161 C 0.93274 0.95818 0.61175 0.0
C1162 C 0.9075 0.95856 0.62238 0.0
C1163 C 0.95082 0.93604 0.61424 0.0
C1164 C 0.94434 0.91427 0.6279 0.0
C1165 C 0.91914 0.91483 0.63858 0.0
C1166 C 0.90086 0.93664 0.63575 0.0
C1167 C 0.96326 0.89047 0.63073 0.0
C1168 C 0.95255 0.86388 0.62855 0.0
C1169 C 0.99154 0.89365 0.63527 0.0
C1170 C 1.00393 0.921 0.63895 0.0
C1171 C 0.99325 0.9386 0.6544 0.0
C1172 C 1.00477 0.96452 0.65757 0.0
C1173 C 0.02711 0.97298 0.64547 0.0
C1174 C 0.03804 0.95551 0.63024 0.0
C1175 C 0.02658 0.92958 0.627 0.0
H1176 H 0.03599 0.99306 0.64793 0.0
H1177 H 0.92501 0.74065 0.61984 0.0
H1178 H 0.76416 0.00787 0.6559 0.0
H1179 H 0.71919 0.98585 0.65557 0.0
H1180 H 0.68605 0.0536 0.62009 0.0
H1181 H 0.73123 0.07582 0.62022 0.0
H1182 H 0.65004 0.02767 0.65493 0.0
H1183 H 0.70171 0.00785 0.59177 0.0
H1184 H 0.74363 0.99409 0.57284 0.0
H1185 H 0.7437 0.91654 0.60496 0.0
H1186 H 0.70203 0.93007 0.62438 0.0
H1187 H 0.53489 0.94838 0.61862 0.0
H1188 H 0.57302 0.9808 0.62177 0.0
H1189 H 0.62723 0.91393 0.63817 0.0
H1190 H 0.58942 0.88167 0.63473 0.0
H1191 H 0.65086 0.94408 0.61055 0.0
H1192 H 0.60175 0.96255 0.67472 0.0
H1193 H 0.56141 0.97537 0.69592 0.0
H1194 H 0.55729 0.05337 0.66458 0.0
H1195 H 0.59742 0.04085 0.64299 0.0
C1196 C 0.74714 0.01852 0.64858 0.0
C1197 C 0.75121 0.04354 0.63804 0.0
C1198 C 0.7215 1.00585 0.64834 0.0
C1199 C 0.69943 0.01808 0.63773 0.0
C1200 C 0.70287 0.04393 0.6284 0.0
C1201 C 0.72866 0.05649 0.6284 0.0
C1202 C 0.67399 1.00221 0.63433 0.0
C1203 C 0.64996 0.00961 0.64501 0.0
C1204 C 0.67419 0.97847 0.62163 0.0
C1205 C 0.69891 0.97008 0.60966 0.0
C1206 C 0.71079 0.98796 0.59492 0.0
C1207 C 0.73449 0.98019 0.58409 0.0
C1208 C 0.74636 0.95448 0.58773 0.0
C1209 C 0.7345 0.93646 0.60217 0.0
C1210 C 0.71084 0.94416 0.61309 0.0
C1211 C 0.55488 0.94073 0.62315 0.0
C1212 C 0.55921 0.91247 0.62637 0.0
C1213 C 0.57666 0.95926 0.62499 0.0
C1214 C 0.60304 0.94987 0.63033 0.0
C1215 C 0.60717 0.9217 0.63385 0.0
C1216 C 0.58555 0.90324 0.63185 0.0
C1217 C 0.62676 0.96892 0.63165 0.0
C1218 C 0.65062 0.9622 0.62041 0.0
C1219 C 0.6264 0.99305 0.64406 0.0
C1220 C 0.60239 1.00065 0.6571 0.0
C1221 C 0.59212 0.98236 0.67225 0.0
C1222 C 0.56931 0.98958 0.68435 0.0
C1223 C 0.55675 0.01514 0.68156 0.0
C1224 C 0.56701 0.03356 0.6667 0.0
C1225 C 0.5898 0.02642 0.65454 0.0
H1226 H 0.53909 0.02069 0.69094 0.0
H1227 H 0.76472 0.94851 0.57933 0.0
H1228 H 0.57715 0.53673 0.62381 0.0
H1229 H 0.54438 0.57414 0.63003 0.0
H1230 H 0.60923 0.62399 0.65533 0.0
H1231 H 0.64195 0.58656 0.64967 0.0
H1232 H 0.5585 0.62712 0.67795 0.0
H1233 H 0.59315 0.63085 0.60681 0.0
H1234 H 0.60148 0.61331 0.57116 0.0
H1235 H 0.51479 0.60549 0.56126 0.0
H1236 H 0.50594 0.62208 0.59715 0.0
H1237 H 0.51354 0.7646 0.66726 0.0
H1238 H 0.53599 0.71978 0.66884 0.0
H1239 H 0.473 0.6859 0.62905 0.0
H1240 H 0.4513 0.73122 0.62667 0.0
H1241 H 0.51849 0.67079 0.61464 0.0
H1242 H 0.48184 0.66825 0.68359 0.0
H1243 H 0.4712 0.68478 0.71919 0.0
H1244 H 0.55714 0.68891 0.73338 0.0
H1245 H 0.56833 0.67277 0.69776 0.0
C1246 C 0.58436 0.55545 0.63103 0.0
C1247 C 0.61226 0.55876 0.63608 0.0
C1248 C 0.56565 0.57687 0.63439 0.0
C1249 C 0.57448 0.60193 0.64281 0.0
C1250 C 0.60202 0.60484 0.64872 0.0
C1251 C 0.62074 0.58353 0.6453 0.0
C1252 C 0.55553 0.62573 0.64433 0.0
C1253 C 0.54979 0.63682 0.66414 0.0
C1254 C 0.54348 0.63774 0.62632 0.0
C1255 C 0.5489 0.62731 0.60484 0.0
C1256 C 0.57586 0.62497 0.59719 0.0
C1257 C 0.58068 0.61525 0.5769 0.0
C1258 C 0.55868 0.60822 0.56397 0.0
C1259 C 0.53182 0.61094 0.57129 0.0
C1260 C 0.5269 0.62037 0.59164 0.0
C1261 C 0.50416 0.7474 0.65927 0.0
C1262 C 0.48066 0.75131 0.6469 0.0
C1263 C 0.51696 0.7217 0.66022 0.0
C1264 C 0.50612 0.69917 0.64925 0.0
C1265 C 0.48188 0.70287 0.63762 0.0
C1266 C 0.4694 0.72872 0.63633 0.0
C1267 C 0.52137 0.67258 0.64835 0.0
C1268 C 0.52662 0.66095 0.62859 0.0
C1269 C 0.53253 0.65981 0.66644 0.0
C1270 C 0.52592 0.66948 0.68792 0.0
C1271 C 0.49848 0.67287 0.69424 0.0
C1272 C 0.49235 0.68214 0.71444 0.0
C1273 C 0.51348 0.68794 0.72853 0.0
C1274 C 0.54079 0.68442 0.72245 0.0
C1275 C 0.54704 0.67517 0.70227 0.0
H1276 H 0.50869 0.69512 0.74416 0.0
H1277 H 0.56245 0.60071 0.54827 0.0
H1278 H 0.93649 0.63439 0.63901 0.0
H1279 H 0.90027 0.60094 0.64593 0.0
H1280 H 0.95171 0.53628 0.62155 0.0
H1281 H 0.98817 0.56984 0.61461 0.0
H1282 H 0.89812 0.5374 0.60475 0.0
H1283 H 0.94145 0.53687 0.6717 0.0
H1284 H 0.96168 0.55724 0.70346 0.0
H1285 H 0.88419 0.59397 0.71903 0.0
H1286 H 0.86358 0.57419 0.68717 0.0
H1287 H 0.79259 0.44344 0.62732 0.0
H1288 H 0.83868 0.4632 0.62902 0.0
H1289 H 0.80574 0.53519 0.65938 0.0
H1290 H 0.75986 0.51537 0.65804 0.0
H1291 H 0.85524 0.52387 0.67458 0.0
H1292 H 0.81432 0.53187 0.60584 0.0
H1293 H 0.79316 0.51427 0.57344 0.0
H1294 H 0.86533 0.46644 0.56067 0.0
H1295 H 0.88675 0.48344 0.5932 0.0
C1296 C 0.94006 0.61305 0.63515 0.0
C1297 C 0.96506 0.60468 0.62624 0.0
C1298 C 0.91949 0.59394 0.63927 0.0
C1299 C 0.92343 0.56612 0.63443 0.0
C1300 C 0.94838 0.55764 0.62552 0.0
C1301 C 0.96916 0.57675 0.62165 0.0
C1302 C 0.90079 0.54637 0.63772 0.0
C1303 C 0.88912 0.53387 0.62008 0.0
C1304 C 0.88875 0.54236 0.65767 0.0
C1305 C 0.90101 0.55418 0.67694 0.0
C1306 C 0.92876 0.54947 0.6818 0.0
C1307 C 0.9403 0.56088 0.69984 0.0
C1308 C 0.92425 0.57692 0.71324 0.0
C1309 C 0.89661 0.58154 0.70863 0.0
C1310 C 0.88498 0.5702 0.69059 0.0
C1311 C 0.79533 0.46325 0.63472 0.0
C1312 C 0.77262 0.47797 0.6424 0.0
C1313 C 0.82162 0.47453 0.63565 0.0
C1314 C 0.82557 0.50093 0.64393 0.0
C1315 C 0.8032 0.51482 0.65289 0.0
C1316 C 0.77697 0.50343 0.65216 0.0
C1317 C 0.85224 0.51527 0.64155 0.0
C1318 C 0.86459 0.52687 0.65932 0.0
C1319 C 0.86477 0.51876 0.62167 0.0
C1320 C 0.85198 0.50864 0.60207 0.0
C1321 C 0.82558 0.51743 0.5962 0.0
C1322 C 0.81355 0.50759 0.57781 0.0
C1323 C 0.82785 0.48918 0.56504 0.0
C1324 C 0.85425 0.48064 0.57061 0.0
C1325 C 0.86634 0.49037 0.58902 0.0
H1326 H 0.81852 0.48159 0.5508 0.0
H1327 H 0.93321 0.58574 0.7272 0.0
H1328 H 0.67517 0.1694 0.14929 0.0
H1329 H 0.70638 0.20831 0.15572 0.0
H1330 H 0.72951 0.20812 0.09047 0.0
H1331 H 0.6983 0.16993 0.084 0.0
H1332 H 0.77476 0.21053 0.12029 0.0
H1333 H 0.68644 0.25363 0.10459 0.0
H1334 H 0.63732 0.26208 0.11125 0.0
H1335 H 0.65602 0.29016 0.17339 0.0
H1336 H 0.70526 0.28151 0.16717 0.0
H1337 H 0.83576 0.33257 0.08874 0.0
H1338 H 0.8081 0.29203 0.0947 0.0
H1339 H 0.78151 0.32462 0.1542 0.0
H1340 H 0.80812 0.36638 0.1477 0.0
H1341 H 0.73935 0.30403 0.13531 0.0
H1342 H 0.82737 0.26855 0.15035 0.0
H1343 H 0.87676 0.25951 0.14568 0.0
H1344 H 0.86015 0.21566 0.08877 0.0
H1345 H 0.81069 0.22477 0.09291 0.0
C1346 C 0.68698 0.17775 0.13641 0.0
C1347 C 0.6841 0.16687 0.11612 0.0
C1348 C 0.70472 0.19993 0.14006 0.0
C1349 C 0.72023 0.21111 0.12354 0.0
C1350 C 0.71775 0.19983 0.10343 0.0
C1351 C 0.69974 0.17815 0.09972 0.0
C1352 C 0.7389 0.23482 0.12679 0.0
C1353 C 0.76709 0.23102 0.12355 0.0
C1354 C 0.72899 0.2613 0.13186 0.0
C1355 C 0.69945 0.26659 0.13552 0.0
C1356 C 0.68005 0.26136 0.11974 0.0
C1357 C 0.6522 0.26624 0.12342 0.0
C1358 C 0.64354 0.27656 0.14275 0.0
C1359 C 0.66274 0.28211 0.15843 0.0
C1360 C 0.69062 0.27723 0.15484 0.0
C1361 C 0.82401 0.33135 0.10309 0.0
C1362 C 0.82414 0.35307 0.11762 0.0
C1363 C 0.80842 0.3078 0.10665 0.0
C1364 C 0.79293 0.30486 0.12509 0.0
C1365 C 0.79335 0.32624 0.13988 0.0
C1366 C 0.80882 0.35007 0.13622 0.0
C1367 C 0.77538 0.28003 0.12811 0.0
C1368 C 0.74733 0.28355 0.13251 0.0
C1369 C 0.78553 0.25313 0.12448 0.0
C1370 C 0.81529 0.24749 0.1219 0.0
C1371 C 0.83425 0.25713 0.13676 0.0
C1372 C 0.86227 0.25197 0.13422 0.0
C1373 C 0.87159 0.23705 0.11693 0.0
C1374 C 0.8529 0.22721 0.10216 0.0
C1375 C 0.82486 0.23233 0.10462 0.0
H1376 H 0.89328 0.23308 0.11499 0.0
H1377 H 0.62198 0.28033 0.14557 0.0
H1378 H 0.32048 0.65838 0.09995 0.0
H1379 H 0.28184 0.69052 0.09847 0.0
H1380 H 0.33632 0.75748 0.11284 0.0
H1381 H 0.37493 0.7254 0.11463 0.0
H1382 H 0.29055 0.75942 0.13671 0.0
H1383 H 0.31194 0.74896 0.06454 0.0
H1384 H 0.32106 0.72437 0.03158 0.0
H1385 H 0.23904 0.69258 0.03182 0.0
H1386 H 0.22972 0.71613 0.06529 0.0
H1387 H 0.1971 0.86765 0.11512 0.0
H1388 H 0.23639 0.83682 0.11247 0.0
H1389 H 0.18215 0.76842 0.10242 0.0
H1390 H 0.14256 0.79891 0.10559 0.0
H1391 H 0.22813 0.768 0.07562 0.0
H1392 H 0.20847 0.77681 0.14926 0.0
H1393 H 0.20001 0.80214 0.18208 0.0
H1394 H 0.27976 0.83888 0.1778 0.0
H1395 H 0.28854 0.81407 0.14477 0.0
C1396 C 0.32424 0.67994 0.10278 0.0
C1397 C 0.35085 0.68927 0.10737 0.0
C1398 C 0.30215 0.69834 0.10179 0.0
C1399 C 0.30615 0.72649 0.10541 0.0
C1400 C 0.33271 0.73589 0.10993 0.0
C1401 C 0.35483 0.71753 0.11077 0.0
C1402 C 0.28253 0.74599 0.10515 0.0
C1403 C 0.27717 0.76155 0.12322 0.0
C1404 C 0.26468 0.74845 0.0877 0.0
C1405 C 0.27024 0.73408 0.06761 0.0
C1406 C 0.29594 0.73644 0.05774 0.0
C1407 C 0.30113 0.72272 0.03893 0.0
C1408 C 0.28063 0.70698 0.02957 0.0
C1409 C 0.25492 0.70479 0.03909 0.0
C1410 C 0.24969 0.71825 0.05803 0.0
C1411 C 0.19333 0.84608 0.11247 0.0
C1412 C 0.16637 0.83594 0.11081 0.0
C1413 C 0.21594 0.82845 0.11085 0.0
C1414 C 0.21224 0.80025 0.10745 0.0
C1415 C 0.18551 0.79012 0.10502 0.0
C1416 C 0.16283 0.80771 0.10679 0.0
C1417 C 0.23622 0.78124 0.10718 0.0
C1418 C 0.2416 0.76581 0.08906 0.0
C1419 C 0.25421 0.77897 0.12451 0.0
C1420 C 0.24904 0.7938 0.14443 0.0
C1421 C 0.22411 0.79047 0.15522 0.0
C1422 C 0.21928 0.8047 0.17388 0.0
C1423 C 0.23931 0.82217 0.18199 0.0
C1424 C 0.26425 0.82538 0.17148 0.0
C1425 C 0.26917 0.81122 0.1528 0.0
H1426 H 0.23553 0.83316 0.19644 0.0
H1427 H 0.28465 0.69651 1.01493 0.0
H1428 H 0.3238 0.65333 0.37843 0.0
H1429 H 0.29118 0.69165 0.37483 0.0
H1430 H 0.30723 0.71541 0.43873 0.0
H1431 H 0.3393 0.67732 0.44248 0.0
H1432 H 0.25194 0.71273 0.42977 0.0
H1433 H 0.3346 0.751 0.39832 0.0
H1434 H 0.37211 0.75065 0.37237 0.0
H1435 H 0.31343 0.75341 0.32224 0.0
H1436 H 0.27554 0.75344 0.34792 0.0
H1437 H 0.19939 0.84308 0.44593 0.0
H1438 H 0.22976 0.80378 0.44127 0.0
H1439 H 0.21192 0.80342 0.375 0.0
H1440 H 0.18213 0.84398 0.37967 0.0
H1441 H 0.2637 0.79058 0.38034 0.0
H1442 H 0.18124 0.75667 0.41007 0.0
H1443 H 0.14222 0.75432 0.4346 0.0
H1444 H 0.19751 0.73967 0.4858 0.0
H1445 H 0.23691 0.74234 0.46164 0.0
C1446 C 0.32034 0.66675 0.39168 0.0
C1447 C 0.33433 0.66229 0.4107 0.0
C1448 C 0.30182 0.68873 0.38957 0.0
C1449 C 0.29683 0.70651 0.4065 0.0
C1450 C 0.31076 0.70203 0.42544 0.0
C1451 C 0.32934 0.68033 0.4275 0.0
C1452 C 0.27671 0.72951 0.40499 0.0
C1453 C 0.25461 0.72985 0.41906 0.0
C1454 C 0.27947 0.75127 0.3904 0.0
C1455 C 0.30225 0.75194 0.37502 0.0
C1456 C 0.3297 0.75138 0.38176 0.0
C1457 C 0.35103 0.75126 0.3671 0.0
C1458 C 0.34516 0.75192 0.34567 0.0
C1459 C 0.31794 0.75285 0.33885 0.0
C1460 C 0.29654 0.75296 0.35344 0.0
C1461 C 0.20191 0.83461 0.43037 0.0
C1462 C 0.18803 0.84625 0.41322 0.0
C1463 C 0.21923 0.81204 0.42769 0.0
C1464 C 0.22256 0.79991 0.40788 0.0
C1465 C 0.20952 0.81215 0.3905 0.0
C1466 C 0.19249 0.83525 0.39314 0.0
C1467 C 0.23939 0.77434 0.40572 0.0
C1468 C 0.26077 0.77338 0.39092 0.0
C1469 C 0.23572 0.75166 0.41943 0.0
C1470 C 0.21205 0.74988 0.43404 0.0
C1471 C 0.18509 0.75312 0.42658 0.0
C1472 C 0.1629 0.75171 0.44042 0.0
C1473 C 0.16738 0.74689 0.46175 0.0
C1474 C 0.19407 0.74341 0.46928 0.0
C1475 C 0.21634 0.74484 0.45551 0.0
H1476 H 0.15017 0.74581 0.47244 0.0
H1477 H 0.36169 0.75175 0.33434 0.0
H1478 H 0.85736 0.29824 0.45988 0.0
H1479 H 0.81812 0.26833 0.45323 0.0
H1480 H 0.80478 0.30829 0.39374 0.0
H1481 H 0.84464 0.33816 0.40023 0.0
H1482 H 0.75546 0.29994 0.42318 0.0
H1483 H 0.82954 0.25201 0.38876 0.0
H1484 H 0.87621 0.23252 0.38724 0.0
H1485 H 0.85721 0.17861 0.43853 0.0
H1486 H 0.81056 0.19814 0.44061 0.0
H1487 H 0.65215 0.20502 0.39375 0.0
H1488 H 0.69156 0.23608 0.39364 0.0
H1489 H 0.73308 0.18317 0.43788 0.0
H1490 H 0.69432 0.15129 0.43678 0.0
H1491 H 0.76886 0.19984 0.41297 0.0
H1492 H 0.69833 0.24805 0.45071 0.0
H1493 H 0.65243 0.26828 0.45606 0.0
H1494 H 0.66487 0.32188 0.40341 0.0
H1495 H 0.71073 0.30172 0.39759 0.0
C1496 C 0.84598 0.30081 0.44544 0.0
C1497 C 0.85395 0.32066 0.43062 0.0
C1498 C 0.82365 0.28362 0.44162 0.0
C1499 C 0.80854 0.28612 0.42302 0.0
C1500 C 0.81618 0.30609 0.40822 0.0
C1501 C 0.83895 0.32301 0.41187 0.0
C1502 C 0.78497 0.26751 0.41921 0.0
C1503 C 0.75828 0.27811 0.42054 0.0
C1504 C 0.78877 0.23895 0.41648 0.0
C1505 C 0.81661 0.22671 0.41495 0.0
C1506 C 0.83537 0.23614 0.39982 0.0
C1507 C 0.86182 0.22507 0.39884 0.0
C1508 C 0.8697 0.20438 0.41281 0.0
C1509 C 0.85109 0.19465 0.42773 0.0
C1510 C 0.82463 0.2057 0.4288 0.0
C1511 C 0.66975 0.20014 0.40343 0.0
C1512 C 0.6702 0.17589 0.41537 0.0
C1513 C 0.69225 0.21797 0.40348 0.0
C1514 C 0.71529 0.21249 0.41614 0.0
C1515 C 0.71571 0.18804 0.42795 0.0
C1516 C 0.69354 0.16983 0.4274 0.0
C1517 C 0.7389 0.23207 0.41715 0.0
C1518 C 0.76576 0.22166 0.41539 0.0
C1519 C 0.73524 0.26078 0.41994 0.0
C1520 C 0.70783 0.27318 0.42358 0.0
C1521 C 0.69121 0.26405 0.44021 0.0
C1522 C 0.66521 0.27551 0.44333 0.0
C1523 C 0.65571 0.29629 0.43004 0.0
C1524 C 0.67224 0.30575 0.41366 0.0
C1525 C 0.69824 0.29433 0.41046 0.0
H1526 H 0.63556 0.3051 0.43246 0.0
H1527 H 0.8902 0.19586 0.41205 0.0
H1528 H 0.14221 0.69912 0.91947 0.0
H1529 H 0.17446 0.73725 0.92139 0.0
H1530 H 0.24173 0.68008 0.92658 0.0
H1531 H 0.20976 0.64176 0.92424 0.0
H1532 H 0.24712 0.72359 0.95389 0.0
H1533 H 0.22932 0.71005 0.88073 0.0
H1534 H 0.20064 0.70486 0.84917 0.0
H1535 H 0.16716 0.78552 0.85858 0.0
H1536 H 0.19536 0.79104 0.8904 0.0
H1537 H 0.35534 0.81595 0.92679 0.0
H1538 H 0.32297 0.77769 0.92858 0.0
H1539 H 0.2555 0.83427 0.92116 0.0
H1540 H 0.28772 0.87247 0.91892 0.0
H1541 H 0.25025 0.79085 0.89542 0.0
H1542 H 0.26834 0.80458 0.96852 0.0
H1543 H 0.29706 0.80972 1.00007 0.0
H1544 H 0.33027 0.72894 0.99068 0.0
H1545 H 0.30189 0.7234 0.95898 0.0
C1546 C 0.16384 0.69453 0.92092 0.0
C1547 C 0.17323 0.66717 0.92153 0.0
C1548 C 0.18228 0.71643 0.92209 0.0
C1549 C 0.21057 0.71155 0.9239 0.0
C1550 C 0.22 0.68436 0.92521 0.0
C1551 C 0.20158 0.66241 0.92394 0.0
C1552 C 0.23032 0.73479 0.92385 0.0
C1553 C 0.24804 0.73812 0.941 0.0
C1554 C 0.23119 0.75407 0.90722 0.0
C1555 C 0.21423 0.75084 0.88808 0.0
C1556 C 0.21566 0.72659 0.87618 0.0
C1557 C 0.19953 0.7236 0.85822 0.0
C1558 C 0.18203 0.74481 0.85191 0.0
C1559 C 0.18069 0.76909 0.86351 0.0
C1560 C 0.19675 0.77216 0.8815 0.0
C1561 C 0.33362 0.82025 0.92555 0.0
C1562 C 0.32418 0.84734 0.92276 0.0
C1563 C 0.3151 0.79837 0.92675 0.0
C1564 C 0.28674 0.80308 0.92518 0.0
C1565 C 0.27726 0.8301 0.92248 0.0
C1566 C 0.29574 0.85199 0.92139 0.0
C1567 C 0.26699 0.7798 0.92553 0.0
C1568 C 0.2493 0.7764 0.90837 0.0
C1569 C 0.26618 0.76048 0.94215 0.0
C1570 C 0.28322 0.76371 0.96124 0.0
C1571 C 0.28193 0.788 0.97309 0.0
C1572 C 0.2981 0.79096 0.99103 0.0
C1573 C 0.31556 0.76972 0.99733 0.0
C1574 C 0.31678 0.74541 0.98576 0.0
C1575 C 0.30062 0.74232 0.96783 0.0
H1576 H 0.32808 0.77207 1.01121 0.0
H1577 H 0.16956 0.74247 0.83799 0.0
H1578 H 0.62962 0.27595 0.92738 0.0
H1579 H 0.67269 0.2511 0.92314 0.0
H1580 H 0.71513 0.32764 0.91319 0.0
H1581 H 0.67132 0.35268 0.91688 0.0
H1582 H 0.73575 0.28834 0.88796 0.0
H1583 H 0.71721 0.29483 0.9613 0.0
H1584 H 0.68951 0.29111 0.99354 0.0
H1585 H 0.68145 0.20425 0.98408 0.0
H1586 H 0.70879 0.2075 0.95163 0.0
H1587 H 0.86534 0.22083 0.9088 0.0
H1588 H 0.82561 0.25171 0.90785 0.0
H1589 H 0.77196 0.18288 0.9188 0.0
H1590 H 0.81157 0.15212 0.92 0.0
H1591 H 0.7599 0.22283 0.9447 0.0
H1592 H 0.77713 0.21734 0.8701 0.0
H1593 H 0.80533 0.22171 0.83817 0.0
H1594 H 0.81715 0.30745 0.85069 0.0
H1595 H 0.78929 0.30351 0.88285 0.0
C1596 C 0.64812 0.28751 0.92431 0.0
C1597 C 0.64725 0.3163 0.92289 0.0
C1598 C 0.67278 0.27329 0.92189 0.0
C1599 C 0.6974 0.28748 0.91844 0.0
C1600 C 0.69647 0.31621 0.91604 0.0
C1601 C 0.67153 0.33052 0.91817 0.0
C1602 C 0.72392 0.27205 0.91803 0.0
C1603 C 0.74126 0.27433 0.90051 0.0
C1604 C 0.73113 0.25353 0.93431 0.0
C1605 C 0.71491 0.25145 0.95396 0.0
C1606 C 0.7094 0.27496 0.96604 0.0
C1607 C 0.69378 0.27293 0.98435 0.0
C1608 C 0.68369 0.24747 0.99084 0.0
C1609 C 0.68927 0.22397 0.97904 0.0
C1610 C 0.70486 0.22588 0.9607 0.0
C1611 C 0.84503 0.21222 0.91059 0.0
C1612 C 0.84163 0.18398 0.91454 0.0
C1613 C 0.82229 0.22993 0.91007 0.0
C1614 C 0.79565 0.2197 0.9132 0.0
C1615 C 0.79224 0.19137 0.91648 0.0
C1616 C 0.81492 0.17377 0.91716 0.0
C1617 C 0.77136 0.2384 0.91433 0.0
C1618 C 0.75449 0.23688 0.93214 0.0
C1619 C 0.76479 0.25766 0.89839 0.0
C1620 C 0.78136 0.26006 0.87899 0.0
C1621 C 0.78591 0.23708 0.86612 0.0
C1622 C 0.8018 0.23949 0.84797 0.0
C1623 C 0.81309 0.26483 0.84243 0.0
C1624 C 0.80843 0.28783 0.85501 0.0
C1625 C 0.79257 0.28553 0.87319 0.0
H1626 H 0.82539 0.26665 0.82838 0.0
H1627 H 0.67159 0.24595 1.00501 0.0
H1628 H 0.83871 0.18125 0.58264 0.0
H1629 H 0.80855 0.22093 0.58582 0.0
H1630 H 0.79733 0.2035 0.65162 0.0
H1631 H 0.82704 0.16277 0.64819 0.0
H1632 H 0.7506 0.21973 0.63604 0.0
H1633 H 0.84041 0.25694 0.6336 0.0
H1634 H 0.88751 0.26366 0.62053 0.0
H1635 H 0.85595 0.2935 0.56191 0.0
H1636 H 0.80865 0.28661 0.57451 0.0
H1637 H 0.68939 0.35633 0.64391 0.0
H1638 H 0.72012 0.3168 0.64957 0.0
H1639 H 0.73161 0.30958 0.58278 0.0
H1640 H 0.70137 0.34874 0.57709 0.0
H1641 H 0.78054 0.30818 0.60502 0.0
H1642 H 0.69021 0.26607 0.608 0.0
H1643 H 0.64376 0.26006 0.62257 0.0
H1644 H 0.67804 0.24137 0.68295 0.0
H1645 H 0.72472 0.24763 0.66878 0.0
C1646 C 0.83002 0.18596 0.59784 0.0
C1647 C 0.83563 0.16915 0.61525 0.0
C1648 C 0.81277 0.20875 0.59968 0.0
C1649 C 0.80118 0.21586 0.61911 0.0
C1650 C 0.80617 0.19868 0.63648 0.0
C1651 C 0.82315 0.17545 0.63454 0.0
C1652 C 0.78386 0.24113 0.62094 0.0
C1653 C 0.75741 0.23919 0.62962 0.0
C1654 C 0.79252 0.2667 0.61259 0.0
C1655 C 0.82096 0.2711 0.60498 0.0
C1656 C 0.84351 0.26479 0.61788 0.0
C1657 C 0.87024 0.26865 0.61056 0.0
C1658 C 0.87472 0.27896 0.59039 0.0
C1659 C 0.85245 0.28551 0.57752 0.0
C1660 C 0.82567 0.28167 0.58476 0.0
C1661 C 0.6985 0.34626 0.63048 0.0
C1662 C 0.6927 0.35559 0.61005 0.0
C1663 C 0.71593 0.32361 0.63372 0.0
C1664 C 0.7281 0.31013 0.61658 0.0
C1665 C 0.72245 0.31958 0.59624 0.0
C1666 C 0.7049 0.34188 0.59301 0.0
C1667 C 0.74715 0.28645 0.61945 0.0
C1668 C 0.77397 0.28879 0.61171 0.0
C1669 C 0.73895 0.26148 0.62894 0.0
C1670 C 0.71092 0.25765 0.6374 0.0
C1671 C 0.68783 0.26092 0.62443 0.0
C1672 C 0.66147 0.25742 0.6326 0.0
C1673 C 0.65795 0.25042 0.65369 0.0
C1674 C 0.6808 0.24684 0.66663 0.0
C1675 C 0.70721 0.25035 0.65854 0.0
H1676 H 0.63752 0.24771 0.65999 0.0
H1677 H 0.89543 0.28192 0.58475 0.0
H1678 H 0.32097 0.86623 0.62358 0.0
H1679 H 0.28227 0.83474 0.62111 0.0
H1680 H 0.33809 0.7663 0.61622 0.0
H1681 H 0.37698 0.79755 0.61904 0.0
H1682 H 0.29507 0.76195 0.58847 0.0
H1683 H 0.30738 0.77958 0.66185 0.0
H1684 H 0.31258 0.80888 0.69308 0.0
H1685 H 0.23267 0.84341 0.68248 0.0
H1686 H 0.22719 0.81464 0.65095 0.0
H1687 H 0.20126 0.65464 0.61309 0.0
H1688 H 0.23971 0.68677 0.61245 0.0
H1689 H 0.18353 0.75453 0.6201 0.0
H1690 H 0.14507 0.72247 0.62124 0.0
H1691 H 0.22663 0.75959 0.64603 0.0
H1692 H 0.21397 0.7421 0.57287 0.0
H1693 H 0.20903 0.71395 0.54101 0.0
H1694 H 0.28922 0.67971 0.55085 0.0
H1695 H 0.29452 0.70742 0.58294 0.0
C1696 C 0.32514 0.8445 0.62208 0.0
C1697 C 0.35229 0.83457 0.62168 0.0
C1698 C 0.30291 0.82649 0.6206 0.0
C1699 C 0.30723 0.79808 0.61871 0.0
C1700 C 0.33423 0.78813 0.61765 0.0
C1701 C 0.35651 0.80612 0.6192 0.0
C1702 C 0.28359 0.77875 0.61842 0.0
C1703 C 0.2803 0.76118 0.60118 0.0
C1704 C 0.26394 0.77814 0.63477 0.0
C1705 C 0.26699 0.79515 0.65391 0.0
C1706 C 0.29099 0.79356 0.66609 0.0
C1707 C 0.29399 0.81005 0.68385 0.0
C1708 C 0.273 0.82804 0.68973 0.0
C1709 C 0.24893 0.82949 0.67789 0.0
C1710 C 0.24586 0.81309 0.66007 0.0
C1711 C 0.19706 0.67636 0.61465 0.0
C1712 C 0.16999 0.68589 0.61716 0.0
C1713 C 0.21908 0.69476 0.61412 0.0
C1714 C 0.21457 0.72316 0.61605 0.0
C1715 C 0.18757 0.73275 0.61851 0.0
C1716 C 0.16553 0.71437 0.61897 0.0
C1717 C 0.23803 0.74275 0.61605 0.0
C1718 C 0.24135 0.76036 0.63328 0.0
C1719 C 0.25767 0.74341 0.59967 0.0
C1720 C 0.25452 0.72663 0.58043 0.0
C1721 C 0.23046 0.72839 0.56835 0.0
C1722 C 0.22761 0.71255 0.55023 0.0
C1723 C 0.24877 0.695 0.54395 0.0
C1724 C 0.27284 0.69329 0.55576 0.0
C1725 C 0.27579 0.70908 0.5739 0.0
H1726 H 0.24653 0.68276 0.5299 0.0
H1727 H 0.27536 0.84081 0.70348 0.0
H1728 H 0.61056 0.04577 0.04456 0.0
H1729 H 0.57331 0.02938 0.02258 0.0
H1730 H 0.51962 0.02747 0.0763 0.0
H1731 H 0.55737 0.04381 0.09868 0.0
H1732 H 0.51658 0.98023 0.05376 0.0
H1733 H 0.51176 0.07593 0.03767 0.0
H1734 H 0.52903 0.1214 0.02706 0.0
H1735 H 0.55419 0.08868 0.9676 0.0
H1736 H 0.53748 0.04288 0.97798 0.0
H1737 H 0.39613 0.95426 0.99489 0.0
H1738 H 0.43203 0.97157 0.01765 0.0
H1739 H 0.48563 0.98095 0.96432 0.0
H1740 H 0.44905 0.96434 0.94111 0.0
H1741 H 0.48807 0.02505 0.98735 0.0
H1742 H 0.49374 0.92922 1.00345 0.0
H1743 H 0.47748 0.88341 1.01418 0.0
H1744 H 0.45172 0.91578 0.07361 0.0
H1745 H 0.46737 0.9619 0.0631 0.0
C1746 C 0.59075 0.04222 0.05175 0.0
C1747 C 0.58695 0.04622 0.07341 0.0
C1748 C 0.56936 0.03293 0.03907 0.0
C1749 C 0.54347 0.02738 0.04764 0.0
C1750 C 0.53938 0.03171 0.06927 0.0
C1751 C 0.56088 0.04125 0.08203 0.0
C1752 C 0.52137 0.01577 0.03406 0.0
C1753 C 0.50995 0.99028 0.03944 0.0
C1754 C 0.51336 0.02836 1.01495 0.0
C1755 C 0.52358 0.05588 1.0087 0.0
C1756 C 0.52121 0.07835 0.02241 0.0
C1757 C 0.53086 0.10421 1.01642 0.0
C1758 C 0.54276 0.10791 0.99669 0.0
C1759 C 0.545 0.08577 0.98289 0.0
C1760 C 0.53542 0.05986 0.98882 0.0
C1761 C 0.41564 0.95964 0.98791 0.0
C1762 C 0.41964 0.95777 0.96608 0.0
C1763 C 0.43632 0.96945 1.00107 0.0
C1764 C 0.46185 0.97732 0.99289 0.0
C1765 C 0.46618 0.97497 0.97111 0.0
C1766 C 0.44532 0.96526 0.95784 0.0
C1767 C 0.48329 0.98935 1.00696 0.0
C1768 C 0.49461 0.01496 1.00168 0.0
C1769 C 0.49127 0.97679 0.02614 0.0
C1770 C 0.48147 0.94911 0.03238 0.0
C1771 C 0.48434 0.92665 0.01872 0.0
C1772 C 0.47527 0.9006 0.02478 0.0
C1773 C 0.4635 0.89671 0.04454 0.0
C1774 C 0.46079 0.91884 0.05829 0.0
C1775 C 0.46975 0.94494 0.05228 0.0
H1776 H 0.45654 0.87652 0.04921 0.0
H1777 H 0.5502 0.12795 0.99207 0.0
H1778 H 0.45408 0.5615 0.08582 0.0
H1779 H 0.47173 0.52565 0.06224 0.0
H1780 H 0.50264 0.58809 0.02043 0.0
H1781 H 0.48388 0.62342 0.04302 0.0
H1782 H 0.48361 0.55053 0.99764 0.0
H1783 H 0.54303 0.54826 0.05943 0.0
H1784 H 0.5523 0.54222 0.09722 0.0
H1785 H 0.51869 0.46095 0.09506 0.0
H1786 H 0.50878 0.46659 0.0574 0.0
H1787 H 0.5652 0.45985 0.93551 0.0
H1788 H 0.55401 0.49751 0.95982 0.0
H1789 H 0.52033 0.43891 1.00358 0.0
H1790 H 0.53264 0.40178 0.98028 0.0
H1791 H 0.54296 0.47589 0.02495 0.0
H1792 H 0.48202 0.47668 0.96537 0.0
H1793 H 0.47159 0.47984 0.92768 0.0
H1794 H 0.50527 0.56107 0.92555 0.0
H1795 H 0.51649 0.55823 0.96323 0.0
C1796 C 0.46448 0.56746 0.07152 0.0
C1797 C 0.46745 0.59536 0.06635 0.0
C1798 C 0.47481 0.54697 0.05808 0.0
C1799 C 0.4891 0.55399 0.03957 0.0
C1800 C 0.49174 0.58187 0.03445 0.0
C1801 C 0.48096 0.60218 0.04753 0.0
C1802 C 0.50164 0.53275 0.02544 0.0
C1803 C 0.49685 0.53444 1.00367 0.0
C1804 C 0.5186 0.51125 0.03306 0.0
C1805 C 0.52497 0.50793 0.05564 0.0
C1806 C 0.53752 0.52916 0.06704 0.0
C1807 C 0.54288 0.5258 0.08843 0.0
C1808 C 0.53605 0.50125 0.0985 0.0
C1809 C 0.52393 0.47996 0.08723 0.0
C1810 C 0.51844 0.48321 0.06588 0.0
C1811 C 0.55601 0.45507 0.95054 0.0
C1812 C 0.54956 0.4278 0.95579 0.0
C1813 C 0.54934 0.47661 0.96436 0.0
C1814 C 0.53566 0.47124 0.98345 0.0
C1815 C 0.53072 0.44385 0.98904 0.0
C1816 C 0.53767 0.42252 0.97551 0.0
C1817 C 0.52481 0.49361 0.99727 0.0
C1818 C 0.5299 0.49216 0.01894 0.0
C1819 C 0.50787 0.51506 0.98958 0.0
C1820 C 0.5004 0.51712 0.96708 0.0
C1821 C 0.48745 0.49513 0.95684 0.0
C1822 C 0.48146 0.49682 0.93545 0.0
C1823 C 0.48793 0.52053 0.92417 0.0
C1824 C 0.50039 0.54265 0.93428 0.0
C1825 C 0.50658 0.54102 0.95566 0.0
H1826 H 0.48308 0.52183 0.90764 0.0
H1827 H 0.54014 0.49864 0.11502 0.0
H1828 H 0.90271 0.45893 0.0531 0.0
H1829 H 0.93852 0.47448 0.02927 0.0
H1830 H 0.99082 0.49237 0.08201 0.0
H1831 H 0.95452 0.47673 0.10614 0.0
H1832 H 0.98724 0.53562 0.05519 0.0
H1833 H 1.00625 0.44003 0.04818 0.0
H1834 H 0.99611 0.3911 0.04228 0.0
H1835 H 0.96651 0.40974 0.98047 0.0
H1836 H 0.97607 0.45887 0.98611 0.0
H1837 H 0.10244 0.56904 0.99251 0.0
H1838 H 0.06939 0.55056 0.01723 0.0
H1839 H 0.01728 0.52608 0.96596 0.0
H1840 H 0.05114 0.54386 0.94084 0.0
H1841 H 0.02186 0.48552 0.9929 0.0
H1842 H 1.00212 0.58153 1.00031 0.0
H1843 H 0.01278 0.63035 1.0063 0.0
H1844 H 0.04356 0.61103 0.06764 0.0
H1845 H 0.03355 0.56201 0.0619 0.0
C1846 C 0.92212 0.46549 0.05963 0.0
C1847 C 0.92594 0.46636 0.08147 0.0
C1848 C 0.94263 0.47438 0.04596 0.0
C1849 C 0.96752 0.4845 0.05375 0.0
C1850 C 0.97183 0.48453 0.0756 0.0
C1851 C 0.95126 0.47531 0.08938 0.0
C1852 C 0.98783 0.49692 0.03899 0.0
C1853 C 0.99524 0.5245 0.04179 0.0
C1854 C 0.99756 0.48275 0.02107 0.0
C1855 C 0.99166 0.45321 0.01765 0.0
C1856 C 0.99734 0.43375 0.0334 0.0
C1857 C 0.99174 0.40596 0.03008 0.0
C1858 C 0.98061 0.39733 1.01103 0.0
C1859 C 0.9751 0.41646 0.99523 0.0
C1860 C 0.98063 0.44428 0.99847 0.0
C1861 C 0.08378 0.5601 0.98638 0.0
C1862 C 0.07946 0.55805 0.96461 0.0
C1863 C 0.06474 0.54961 1.00064 0.0
C1864 C 0.04053 0.53714 0.99361 0.0
C1865 C 0.03574 0.53567 0.97185 0.0
C1866 C 0.05498 0.54607 0.95747 0.0
C1867 C 0.0212 0.52434 1.009 0.0
C1868 C 0.01393 0.49667 1.00631 0.0
C1869 C 0.01157 0.53846 0.02702 0.0
C1870 C 0.01738 0.56801 0.03056 0.0
C1871 C 0.01137 0.58764 1.01501 0.0
C1872 C 0.01728 0.61536 0.01837 0.0
C1873 C 0.029 0.62374 0.03728 0.0
C1874 C 0.03461 0.60447 0.05296 0.0
C1875 C 0.0288 0.57672 0.04966 0.0
H1876 H 0.03373 0.64517 0.03981 0.0
H1877 H 0.97632 0.3758 1.00849 0.0
H1878 H 0.9703 0.11843 0.98681 0.0
H1879 H 0.98796 0.08227 1.00939 0.0
H1880 H 0.97884 0.02363 0.95936 0.0
H1881 H 0.96107 0.06022 0.93626 0.0
H1882 H 0.96229 1.00334 0.99976 0.0
H1883 H 0.03968 0.04567 0.96784 0.0
H1884 H 0.06858 0.08423 0.95616 0.0
H1885 H 0.07961 0.10948 0.02006 0.0
H1886 H 0.05039 0.07131 0.03213 0.0
H1887 H 0.05381 0.90411 0.04131 0.0
H1888 H 0.03575 0.94007 0.01866 0.0
H1889 H 0.03253 0.9957 0.07105 0.0
H1890 H 0.05022 0.95925 0.09429 0.0
H1891 H 0.05566 0.01682 0.02901 0.0
H1892 H 0.97614 0.97322 0.06008 0.0
H1893 H 0.94922 0.93251 0.0703 0.0
H1894 H 0.94464 0.90748 1.00591 0.0
H1895 H 0.97174 0.94791 0.9953 0.0
C1896 C 0.9718 0.09786 0.9805 0.0
C1897 C 0.96437 0.09231 0.95961 0.0
C1898 C 0.98198 0.07717 0.99351 0.0
C1899 C 0.98507 0.05031 0.98603 0.0
C1900 C 0.97667 0.04427 0.96544 0.0
C1901 C 0.96652 0.06516 0.95227 0.0
C1902 C 0.99807 0.02916 0.99973 0.0
C1903 C 0.98281 1.00614 1.00594 0.0
C1904 C 0.02476 0.03293 1.00805 0.0
C1905 C 0.04261 0.05576 1.00089 0.0
C1906 C 0.04808 0.05956 0.9794 0.0
C1907 C 0.06456 0.08133 0.97271 0.0
C1908 C 0.07586 0.09932 0.98736 0.0
C1909 C 0.0708 0.09553 1.00873 0.0
C1910 C 0.0543 0.07382 1.01552 0.0
C1911 C 0.04956 0.92401 0.04814 0.0
C1912 C 0.05345 0.92871 0.06973 0.0
C1913 C 0.03917 0.94456 0.03508 0.0
C1914 C 0.03263 0.97047 0.04316 0.0
C1915 C 0.03747 0.97578 0.06451 0.0
C1916 C 0.04761 0.95498 0.07775 0.0
C1917 C 0.01972 0.99132 0.02924 0.0
C1918 C 0.03508 0.01418 0.02291 0.0
C1919 C 0.99328 0.98724 0.02063 0.0
C1920 C 0.97618 0.96345 0.02691 0.0
C1921 C 0.96951 0.95897 0.04811 0.0
C1922 C 0.95421 0.93596 0.05398 0.0
C1923 C 0.94539 0.91735 0.03878 0.0
C1924 C 0.95156 0.92188 0.01766 0.0
C1925 C 0.96683 0.94487 1.0117 0.0
H1926 H 0.93379 0.89942 0.04336 0.0
H1927 H 0.08856 0.11619 0.98216 0.0
H1928 H 0.89996 0.04574 0.54142 0.0
H1929 H 0.93549 0.02849 0.51815 0.0
H1930 H 0.99385 0.03032 0.56885 0.0
H1931 H 0.95792 0.04767 0.59263 0.0
H1932 H 0.01543 0.04959 0.52977 0.0
H1933 H 0.96854 0.97111 0.55667 0.0
H1934 H 0.92846 0.94279 0.56586 0.0
H1935 H 0.90468 0.93989 0.50111 0.0
H1936 H 0.94447 0.96848 0.49152 0.0
H1937 H 0.11387 0.96241 0.48583 0.0
H1938 H 0.07703 0.97793 0.50863 0.0
H1939 H 0.02205 0.98166 0.45581 0.0
H1940 H 0.05935 0.96601 0.43252 0.0
H1941 H 0.9987 0.95957 0.49564 0.0
H1942 H 0.04804 0.038 0.46929 0.0
H1943 H 0.09145 0.06153 0.46113 0.0
H1944 H 0.1124 0.06242 0.52648 0.0
H1945 H 0.06943 0.03821 0.53502 0.0
C1946 C 0.92036 0.04273 0.54774 0.0
C1947 C 0.92599 0.04801 0.56901 0.0
C1948 C 0.94068 0.03276 0.53433 0.0
C1949 C 0.96727 0.02776 0.54176 0.0
C1950 C 0.97343 0.03399 0.56278 0.0
C1951 C 0.95291 0.04392 0.57635 0.0
C1952 C 0.98801 0.01513 0.52752 0.0
C1953 C 0.01188 0.0298 0.52251 0.0
C1954 C 0.98326 0.98946 0.51771 0.0
C1955 C 0.95935 0.97217 0.52339 0.0
C1956 C 0.95465 0.96463 0.5444 0.0
C1957 C 0.932 0.9485 0.54969 0.0
C1958 C 0.91399 0.93963 0.53409 0.0
C1959 C 0.91863 0.94681 0.51317 0.0
C1960 C 0.94125 0.96294 0.50779 0.0
C1961 C 0.0939 0.96619 0.47897 0.0
C1962 C 0.08964 0.96317 0.45727 0.0
C1963 C 0.07282 0.97506 0.4921 0.0
C1964 C 0.04689 0.98129 0.48393 0.0
C1965 C 0.04196 0.97697 0.46244 0.0
C1966 C 0.06324 0.96801 0.44916 0.0
C1967 C 0.02591 0.99411 0.49782 0.0
C1968 C 1.00207 0.97946 0.5028 0.0
C1969 C 0.03078 0.01969 0.5077 0.0
C1970 C 0.05563 0.03604 0.50278 0.0
C1971 C 0.06195 0.04309 0.48193 0.0
C1972 C 0.08655 0.05639 0.47721 0.0
C1973 C 0.10479 0.06319 0.49325 0.0
C1974 C 0.09831 0.05699 0.51407 0.0
C1975 C 0.07384 0.04347 0.51886 0.0
H1976 H 0.12381 0.07353 0.48957 0.0
H1977 H 0.89647 0.92715 0.53822 0.0
H1978 H 0.53401 0.06143 0.43939 0.0
H1979 H 0.51446 0.02804 0.46413 0.0
H1980 H 0.56282 0.06275 0.51403 0.0
H1981 H 0.5822 0.09604 0.48952 0.0
H1982 H 0.56173 0.00849 0.51801 0.0
H1983 H 0.49745 0.07983 0.50788 0.0
H1984 H 0.46503 0.11183 0.49106 0.0
H1985 H 0.41595 0.04412 0.47039 0.0
H1986 H 0.44876 0.0115 0.48627 0.0
H1987 H 0.48491 0.95155 0.60363 0.0
H1988 H 0.50494 0.9857 0.57973 0.0
H1989 H 0.46178 0.94909 0.52788 0.0
H1990 H 0.44193 0.91506 0.55154 0.0
H1991 H 0.46062 1.00506 0.52581 0.0
H1992 H 0.52816 0.93395 0.53837 0.0
H1993 H 0.55871 0.90561 0.56038 0.0
H1994 H 0.60073 0.97796 0.58113 0.0
H1995 H 0.56992 1.00684 0.55971 0.0
C1996 C 0.54092 0.06153 0.45553 0.0
C1997 C 0.55973 0.08139 0.46246 0.0
C1998 C 0.52951 0.0426 0.46973 0.0
C1999 C 0.53687 0.04302 0.49109 0.0
C2000 C 0.55672 0.06194 0.49772 0.0
C2001 C 0.56782 0.081 0.48364 0.0
C2002 C 0.52326 0.02462 0.50677 0.0
C2003 C 0.53961 0.00793 0.51979 0.0
C2004 C 0.49437 0.02379 0.50924 0.0
C2005 C 0.47583 0.04315 0.49807 0.0
C2006 C 0.48014 0.07166 0.49931 0.0
C2007 C 0.46166 0.08992 0.48997 0.0
C2008 C 0.4385 0.07997 0.47964 0.0
C2009 C 0.43403 0.05173 0.47828 0.0
C2010 C 0.45262 0.03334 0.48737 0.0
C2011 C 0.47929 0.95114 0.58722 0.0
C2012 C 0.46184 0.93053 0.5795 0.0
C2013 C 0.49095 0.97052 0.57352 0.0
C2014 C 0.48522 0.96977 0.55188 0.0
C2015 C 0.46666 0.95009 0.54443 0.0
C2016 C 0.45528 0.93063 0.55802 0.0
C2017 C 0.49903 0.98869 0.53674 0.0
C2018 C 0.48272 1.00552 0.52387 0.0
C2019 C 0.52795 0.99003 0.53471 0.0
C2020 C 0.54651 0.97261 0.54757 0.0
C2021 C 0.54372 0.94386 0.54778 0.0
C2022 C 0.5611 0.92769 0.56015 0.0
C2023 C 0.58165 0.93998 0.57213 0.0
C2024 C 0.58481 0.96847 0.57182 0.0
C2025 C 0.56734 0.98476 0.55962 0.0
H2026 H 0.5951 0.92743 0.58167 0.0
H2027 H 0.42387 0.09415 0.47286 0.0
H2028 H 0.45997 0.56357 0.43607 0.0
H2029 H 0.49799 0.55215 0.46001 0.0
H2030 H 0.44281 0.50377 0.49782 0.0
H2031 H 0.40517 0.5157 0.4747 0.0
H2032 H 0.47294 0.53344 0.52243 0.0
H2033 H 0.49109 0.47741 0.46052 0.0
H2034 H 0.5013 0.47112 0.42293 0.0
H2035 H 0.57493 0.51828 0.42941 0.0
H2036 H 0.56483 0.52566 0.46686 0.0
H2037 H 0.56784 0.45844 0.58607 0.0
H2038 H 0.53156 0.47063 0.56088 0.0
H2039 H 0.59015 0.51652 0.52431 0.0
H2040 H 0.62613 0.50401 0.54877 0.0
H2041 H 0.55942 0.48972 0.49875 0.0
H2042 H 0.5444 0.54656 0.55798 0.0
H2043 H 0.53687 0.55701 0.59521 0.0
H2044 H 0.4601 0.51411 0.59372 0.0
H2045 H 0.46763 0.50258 0.55649 0.0
C2046 C 0.45609 0.55047 0.44948 0.0
C2047 C 0.4295 0.5407 0.4535 0.0
C2048 C 0.47782 0.54387 0.46314 0.0
C2049 C 0.47339 0.52691 0.48078 0.0
C2050 C 0.44687 0.51702 0.48452 0.0
C2051 C 0.42529 0.52386 0.47116 0.0
C2052 C 0.49589 0.51927 0.49563 0.0
C2053 C 0.4917 0.52356 0.51722 0.0
C2054 C 0.52088 0.50724 0.48894 0.0
C2055 C 0.52706 0.50231 0.46647 0.0
C2056 C 0.50937 0.4866 0.45391 0.0
C2057 C 0.51513 0.48282 0.43263 0.0
C2058 C 0.53873 0.49422 0.42381 0.0
C2059 C 0.55664 0.50947 0.43625 0.0
C2060 C 0.55088 0.51351 0.45749 0.0
C2061 C 0.57291 0.47106 0.57262 0.0
C2062 C 0.59992 0.48018 0.56949 0.0
C2063 C 0.55217 0.47808 0.55823 0.0
C2064 C 0.55802 0.49467 0.54064 0.0
C2065 C 0.58502 0.50358 0.53757 0.0
C2066 C 0.60563 0.49645 0.55174 0.0
C2067 C 0.53621 0.5034 0.52554 0.0
C2068 C 0.54058 0.49945 0.50395 0.0
C2069 C 0.51162 0.51623 0.53218 0.0
C2070 C 0.50675 0.52343 0.55448 0.0
C2071 C 0.52603 0.53911 0.56562 0.0
C2072 C 0.52176 0.54522 0.58675 0.0
C2073 C 0.49802 0.53625 0.59688 0.0
C2074 C 0.47851 0.52105 0.58586 0.0
C2075 C 0.4828 0.51465 0.56474 0.0
H2076 H 0.49473 0.5411 0.61324 0.0
H2077 H 0.54313 0.49122 0.40734 0.0
H2078 H 0.04249 0.56407 0.59897 0.0
H2079 H 0.02378 0.52871 0.57563 0.0
H2080 H 0.05652 0.57177 0.52208 0.0
H2081 H 0.07485 0.60708 0.54516 0.0
H2082 H 1.00504 0.55817 0.51465 0.0
H2083 H 0.0849 0.51079 0.54023 0.0
H2084 H 0.11604 0.492 0.56716 0.0
H2085 H 0.05119 0.44129 0.59099 0.0
H2086 H 0.01956 0.46005 0.56436 0.0
H2087 H 0.98344 0.45141 0.43804 0.0
H2088 H 1.00069 0.48814 0.4609 0.0
H2089 H 0.9726 0.44331 0.51522 0.0
H2090 H 0.95644 0.40648 0.49254 0.0
H2091 H 0.022 0.45827 0.52205 0.0
H2092 H 0.94185 0.50573 0.49674 0.0
H2093 H 0.91059 0.5245 0.46988 0.0
H2094 H 0.97545 0.57488 0.44565 0.0
H2095 H 0.00719 0.55618 0.47223 0.0
C2096 C 0.04617 0.56567 0.58227 0.0
C2097 C 0.06028 0.5884 0.57398 0.0
C2098 C 0.03537 0.54549 0.56889 0.0
C2099 C 0.03868 0.54747 0.54698 0.0
C2100 C 0.05346 0.56976 0.53883 0.0
C2101 C 0.06411 0.58989 0.55212 0.0
C2102 C 0.02619 0.52695 0.53239 0.0
C2103 C 0.00901 0.53633 0.51614 0.0
C2104 C 0.03081 0.49837 0.53445 0.0
C2105 C 0.0498 0.48703 0.55044 0.0
C2106 C 0.07723 0.49579 0.55132 0.0
C2107 C 0.09497 0.48512 0.56651 0.0
C2108 C 0.08558 0.46552 0.58081 0.0
C2109 C 0.05843 0.4565 0.57992 0.0
C2110 C 0.04059 0.46713 0.56477 0.0
C2111 C 0.98029 0.44988 0.45481 0.0
C2112 C 0.96837 0.42623 0.46352 0.0
C2113 C 0.99026 0.47082 0.46793 0.0
C2114 C 0.988 0.46867 0.48994 0.0
C2115 C 0.97488 0.44553 0.4984 0.0
C2116 C 0.96539 0.42456 0.4854 0.0
C2117 C 1.00058 0.48941 0.50436 0.0
C2118 C 0.01789 0.48008 0.52056 0.0
C2119 C 0.99601 0.51802 0.50227 0.0
C2120 C 0.97695 0.52937 0.48635 0.0
C2121 C 0.94949 0.52068 0.48559 0.0
C2122 C 0.93168 0.53133 0.47044 0.0
C2123 C 0.94105 0.55082 0.45604 0.0
C2124 C 0.96823 0.55976 0.4568 0.0
C2125 C 0.98613 0.54917 0.47192 0.0
H2126 H 0.92723 0.55904 0.44432 0.0
H2127 H 0.09935 0.45728 0.59256 0.0
H2128 H 0.51543 0.11369 0.33892 0.0
H2129 H 0.52857 0.10268 0.303 0.0
H2130 H 0.61379 0.10239 0.32098 0.0
H2131 H 0.60069 0.11358 0.35721 0.0
H2132 H 0.60513 0.13233 0.28507 0.0
H2133 H 0.58262 0.04284 0.30951 0.0
H2134 H 0.55469 1.0073 0.32683 0.0
H2135 H 0.49028 0.02016 0.28199 0.0
H2136 H 0.51766 0.0561 0.26456 0.0
H2137 H 0.64604 0.08164 0.18424 0.0
H2138 H 0.63892 0.0865 0.22205 0.0
H2139 H 0.55143 0.08821 0.21244 0.0
H2140 H 0.55835 0.08316 0.17466 0.0
H2141 H 0.56519 0.05487 0.24509 0.0
H2142 H 0.58651 0.14666 0.22243 0.0
H2143 H 0.61441 0.18227 0.20514 0.0
H2144 H 0.68136 0.16474 0.24681 0.0
H2145 H 0.65397 0.12872 0.26416 0.0
C2146 C 0.53698 0.11099 0.33535 0.0
C2147 C 0.55699 0.11449 0.351 0.0
C2148 C 0.54447 0.1046 0.31476 0.0
C2149 C 0.57219 0.10153 0.30921 0.0
C2150 C 0.59227 0.10461 0.32485 0.0
C2151 C 0.58475 0.11081 0.34559 0.0
C2152 C 0.5799 0.09619 0.28691 0.0
C2153 C 0.59683 0.11507 0.27645 0.0
C2154 C 0.56867 0.074 0.27545 0.0
C2155 C 0.55212 0.05234 0.28583 0.0
C2156 C 0.56241 0.03826 0.30344 0.0
C2157 C 0.54669 0.01801 0.31326 0.0
C2158 C 0.5207 0.01152 0.30554 0.0
C2159 C 0.51041 0.02523 0.28796 0.0
C2160 C 0.52603 0.04552 0.27809 0.0
C2161 C 0.62527 0.08301 0.19014 0.0
C2162 C 0.60278 0.08201 0.17632 0.0
C2163 C 0.62123 0.08591 0.2118 0.0
C2164 C 0.59462 0.08789 0.22016 0.0
C2165 C 0.57216 0.0867 0.20642 0.0
C2166 C 0.57617 0.08396 0.18476 0.0
C2167 C 0.59008 0.09121 0.24319 0.0
C2168 C 0.57371 0.07196 0.25377 0.0
C2169 C 0.60186 0.11303 0.25475 0.0
C2170 C 0.6183 0.13478 0.24443 0.0
C2171 C 0.60726 0.15024 0.22779 0.0
C2172 C 0.62297 0.17052 0.218 0.0
C2173 C 0.64967 0.1757 0.22483 0.0
C2174 C 0.66069 0.16067 0.24151 0.0
C2175 C 0.64508 0.14032 0.25133 0.0
H2176 H 0.6618 0.19141 0.21722 0.0
H2177 H 0.50857 0.99584 0.31317 0.0
H2178 H 0.41653 0.59378 0.35549 0.0
H2179 H 0.43097 0.61043 0.32084 0.0
H2180 H 0.38805 0.54325 0.29161 0.0
H2181 H 0.37475 0.52605 0.32587 0.0
H2182 H 0.43314 0.54818 0.27281 0.0
H2183 H 0.36373 0.61289 0.2931 0.0
H2184 H 0.34138 0.64733 0.31573 0.0
H2185 H 0.41154 0.69988 0.31004 0.0
H2186 H 0.43449 0.66557 0.28761 0.0
H2187 H 0.42797 0.60182 0.16788 0.0
H2188 H 0.41396 0.58701 0.20316 0.0
H2189 H 0.47213 0.64297 0.2305 0.0
H2190 H 0.48642 0.65755 0.19559 0.0
H2191 H 0.42006 0.64473 0.25006 0.0
H2192 H 0.48808 0.57827 0.22855 0.0
H2193 H 0.50746 0.54404 0.2043 0.0
H2194 H 0.43545 0.49426 0.21123 0.0
H2195 H 0.41536 0.52857 0.23521 0.0
C2196 C 0.41026 0.58259 0.34165 0.0
C2197 C 0.39455 0.55854 0.34353 0.0
C2198 C 0.41837 0.59221 0.3218 0.0
C2199 C 0.41038 0.57832 0.30341 0.0
C2200 C 0.39467 0.55436 0.3054 0.0
C2201 C 0.387 0.54455 0.32513 0.0
C2202 C 0.41846 0.58821 0.28204 0.0
C2203 C 0.42988 0.56925 0.26785 0.0
C2204 C 0.41474 0.6158 0.27543 0.0
C2205 C 0.40096 0.63651 0.28886 0.0
C2206 C 0.37448 0.6317 0.2968 0.0
C2207 C 0.36169 0.65121 0.30958 0.0
C2208 C 0.37506 0.67574 0.31437 0.0
C2209 C 0.40123 0.68085 0.30634 0.0
C2210 C 0.41413 0.66138 0.29359 0.0
C2211 C 0.43782 0.61088 0.18141 0.0
C2212 C 0.45846 0.63073 0.17884 0.0
C2213 C 0.42977 0.60245 0.20156 0.0
C2214 C 0.44201 0.6139 0.2195 0.0
C2215 C 0.46232 0.63392 0.21694 0.0
C2216 C 0.4706 0.64207 0.19688 0.0
C2217 C 0.43428 0.60461 0.24099 0.0
C2218 C 0.42312 0.62369 0.25515 0.0
C2219 C 0.43778 0.57706 0.2475 0.0
C2220 C 0.4501 0.55612 0.2335 0.0
C2221 C 0.47629 0.56012 0.22479 0.0
C2222 C 0.48742 0.54068 0.2111 0.0
C2223 C 0.47267 0.51699 0.20619 0.0
C2224 C 0.44682 0.51264 0.21503 0.0
C2225 C 0.43556 0.53208 0.22867 0.0
H2226 H 0.48125 0.50198 0.19554 0.0
H2227 H 0.36512 0.69083 0.32426 0.0
H2228 H 0.94113 0.4573 0.18999 0.0
H2229 H 0.94509 0.44598 0.22698 0.0
H2230 H 0.87368 0.39421 0.22257 0.0
H2231 H 0.8689 0.40651 0.18539 0.0
H2232 H 0.87049 0.42154 0.25715 0.0
H2233 H 0.94138 0.36757 0.22725 0.0
H2234 H 0.98162 0.35691 0.20528 0.0
H2235 H 0.03002 0.41435 0.24025 0.0
H2236 H 0.98997 0.42565 0.26225 0.0
H2237 H 0.9061 0.36802 0.36103 0.0
H2238 H 0.89613 0.37113 0.32329 0.0
H2239 H 0.95108 0.43993 0.31793 0.0
H2240 H 0.96075 0.43736 0.35539 0.0
H2241 H 0.9605 0.39686 0.28819 0.0
H2242 H 0.88598 0.45216 0.31619 0.0
H2243 H 0.84514 0.45994 0.33823 0.0
H2244 H 0.80311 0.3946 0.30669 0.0
H2245 H 0.84387 0.38618 0.28465 0.0
C2246 C 0.92637 0.44325 0.19674 0.0
C2247 C 0.90482 0.43263 0.18458 0.0
C2248 C 0.92875 0.43667 0.218 0.0
C2249 C 0.91006 0.41872 0.22767 0.0
C2250 C 0.88849 0.40799 0.21556 0.0
C2251 C 0.88584 0.41492 0.19425 0.0
C2252 C 0.91284 0.41206 0.2505 0.0
C2253 C 0.89009 0.4156 0.26382 0.0
C2254 C 0.93837 0.40438 0.25946 0.0
C2255 C 0.96259 0.39759 0.24632 0.0
C2256 C 0.96055 0.37806 0.23018 0.0
C2257 C 0.98334 0.37189 0.21772 0.0
C2258 C 0.00834 0.38498 0.22134 0.0
C2259 C 0.01063 0.40423 0.23746 0.0
C2260 C 0.9879 0.4105 0.24995 0.0
C2261 C 0.91579 0.38401 0.35184 0.0
C2262 C 0.93419 0.40247 0.3613 0.0
C2263 C 0.91008 0.38574 0.33028 0.0
C2264 C 0.92293 0.40573 0.31777 0.0
C2265 C 0.94099 0.42431 0.32725 0.0
C2266 C 0.94638 0.42287 0.34875 0.0
C2267 C 0.91842 0.40705 0.29468 0.0
C2268 C 0.94087 0.40243 0.28138 0.0
C2269 C 0.89257 0.4132 0.28576 0.0
C2270 C 0.86808 0.41832 0.29896 0.0
C2271 C 0.86813 0.43927 0.3141 0.0
C2272 C 0.84497 0.44384 0.32655 0.0
C2273 C 0.82158 0.42772 0.32391 0.0
C2274 C 0.82126 0.40704 0.30875 0.0
C2275 C 0.84438 0.40237 0.29627 0.0
H2276 H 0.80367 0.43129 0.33357 0.0
H2277 H 0.02596 0.38018 0.21168 0.0
H2278 H 0.14788 0.97972 0.32905 0.0
H2279 H 0.13119 0.96592 0.29484 0.0
H2280 H 0.07999 0.90448 0.32376 0.0
H2281 H 0.09764 0.91771 0.35847 0.0
H2282 H 0.10145 0.88433 0.28928 0.0
H2283 H 0.05357 0.96713 0.30462 0.0
H2284 H 0.04785 0.01533 0.31555 0.0
H2285 H 0.09703 0.04189 0.26352 0.0
H2286 H 0.10339 0.9938 0.25243 0.0
H2287 H 0.02065 0.86801 0.19681 0.0
H2288 H 0.03476 0.88066 0.23221 0.0
H2289 H 0.09966 0.93054 0.20677 0.0
H2290 H 0.08587 0.91765 0.17108 0.0
H2291 H 0.06842 0.95603 0.23992 0.0
H2292 H 0.11631 0.87134 0.22566 0.0
H2293 H 0.11944 0.82284 0.21492 0.0
H2294 H 0.06624 0.79972 0.26559 0.0
H2295 H 0.06244 0.84818 0.27644 0.0
C2296 C 0.133 0.96329 0.32828 0.0
C2297 C 0.12386 0.95005 0.34662 0.0
C2298 C 0.12334 0.95548 0.30859 0.0
C2299 C 0.10371 0.93463 0.3066 0.0
C2300 C 0.09495 0.92082 0.32483 0.0
C2301 C 0.10499 0.9284 0.34468 0.0
C2302 C 0.09274 0.92743 0.2854 0.0
C2303 C 0.0938 0.89999 0.27867 0.0
C2304 C 0.08305 0.94782 0.27127 0.0
C2305 C 0.07913 0.97681 0.27779 0.0
C2306 C 0.06332 0.98323 0.29558 0.0
C2307 C 0.05994 0.01054 0.3018 0.0
C2308 C 0.07211 0.03165 0.29026 0.0
C2309 C 0.08763 0.02551 0.27245 0.0
C2310 C 0.09111 0.99822 0.26618 0.0
C2311 C 0.03784 0.88183 0.19864 0.0
C2312 C 0.05215 0.89179 0.18102 0.0
C2313 C 0.04594 0.88894 0.21895 0.0
C2314 C 0.06839 0.90636 0.22217 0.0
C2315 C 0.08229 0.91701 0.20465 0.0
C2316 C 0.07441 0.9096 0.18426 0.0
C2317 C 0.07749 0.91312 0.24386 0.0
C2318 C 0.07599 0.94044 0.25065 0.0
C2319 C 0.08637 0.8926 0.25811 0.0
C2320 C 0.08887 0.86343 0.25173 0.0
C2321 C 0.10509 0.85595 0.23441 0.0
C2322 C 0.10702 0.82846 0.22832 0.0
C2323 C 0.09299 0.80822 0.23953 0.0
C2324 C 0.07707 0.81542 0.2569 0.0
C2325 C 0.07504 0.8429 0.26304 0.0
H2326 H 0.0945 0.78695 0.23478 0.0
H2327 H 0.06948 0.05278 0.2951 0.0
H2328 H 0.41544 0.92733 0.86607 0.0
H2329 H 0.43264 0.91403 0.83127 0.0
H2330 H 0.37978 0.97426 0.80248 0.0
H2331 H 0.36298 0.988 0.83698 0.0
H2332 H 0.37803 0.9209 0.78321 0.0
H2333 H 0.44356 0.98912 0.80575 0.0
H2334 H 0.47744 0.00886 0.83009 0.0
H2335 H 0.52721 0.93637 0.82459 0.0
H2336 H 0.49339 0.91602 0.80045 0.0
H2337 H 0.42891 0.91952 0.67899 0.0
H2338 H 0.41337 0.93378 0.71383 0.0
H2339 H 0.48094 0.8898 0.74194 0.0
H2340 H 0.49712 0.87653 0.70724 0.0
H2341 H 0.47506 0.93414 0.76226 0.0
H2342 H 0.41206 0.86491 0.74052 0.0
H2343 H 0.37864 0.84226 0.71731 0.0
H2344 H 0.32458 0.91162 0.72262 0.0
H2345 H 0.35787 0.93486 0.74563 0.0
C2346 C 0.4076 0.93782 0.85233 0.0
C2347 C 0.38793 0.95884 0.85438 0.0
C2348 C 0.41743 0.93019 0.83245 0.0
C2349 C 0.40748 0.94315 0.81424 0.0
C2350 C 0.38771 0.96393 0.81627 0.0
C2351 C 0.37825 0.97187 0.83608 0.0
C2352 C 0.41766 0.93529 0.79301 0.0
C2353 C 0.39918 0.92403 0.77852 0.0
C2354 C 0.4454 0.93866 0.78707 0.0
C2355 C 0.4658 0.95093 0.80148 0.0
C2356 C 0.46161 0.97729 0.80988 0.0
C2357 C 0.48082 0.98861 0.82361 0.0
C2358 C 0.50443 0.97385 0.82893 0.0
C2359 C 0.5089 0.94776 0.82049 0.0
C2360 C 0.48972 0.93634 0.80677 0.0
C2361 C 0.44055 0.91305 0.69259 0.0
C2362 C 0.46424 0.8968 0.69024 0.0
C2363 C 0.43152 0.92104 0.71257 0.0
C2364 C 0.4456 0.91246 0.73074 0.0
C2365 C 0.46959 0.89674 0.72832 0.0
C2366 C 0.47884 0.8891 0.70837 0.0
C2367 C 0.43542 0.91966 0.75223 0.0
C2368 C 0.4539 0.93084 0.76684 0.0
C2369 C 0.40774 0.91571 0.7584 0.0
C2370 C 0.3876 0.90175 0.74464 0.0
C2371 C 0.39313 0.87542 0.73662 0.0
C2372 C 0.3742 0.86246 0.72351 0.0
C2373 C 0.34953 0.87552 0.71845 0.0
C2374 C 0.34372 0.90154 0.72653 0.0
C2375 C 0.3626 0.91461 0.73962 0.0
H2376 H 0.3349 0.86545 0.7083 0.0
H2377 H 0.51928 0.98265 0.83956 0.0
H2378 H 0.57351 0.4577 0.67789 0.0
H2379 H 0.57191 0.44965 0.71588 0.0
H2380 H 0.65233 0.41287 0.71348 0.0
H2381 H 0.65438 0.4214 0.67563 0.0
H2382 H 0.60978 0.38217 0.73658 0.0
H2383 H 0.65022 0.47251 0.7315 0.0
H2384 H 0.65137 0.52067 0.71959 0.0
H2385 H 0.57571 0.53675 0.75182 0.0
H2386 H 0.57388 0.48853 0.76365 0.0
H2387 H 0.62819 0.36222 0.84294 0.0
H2388 H 0.63908 0.37963 0.80791 0.0
H2389 H 0.5724 0.43771 0.81266 0.0
H2390 H 0.56283 0.4215 0.84829 0.0
H2391 H 0.60875 0.45863 0.78793 0.0
H2392 H 0.56453 0.37139 0.79129 0.0
H2393 H 0.55824 0.32324 0.80224 0.0
H2394 H 0.63384 0.30099 0.77211 0.0
H2395 H 0.64079 0.34913 0.76125 0.0
C2396 C 0.59079 0.44777 0.68543 0.0
C2397 C 0.61405 0.44015 0.67373 0.0
C2398 C 0.58991 0.44333 0.70715 0.0
C2399 C 0.61207 0.4308 0.71751 0.0
C2400 C 0.63504 0.42263 0.7058 0.0
C2401 C 0.63617 0.42754 0.68418 0.0
C2402 C 0.61122 0.42595 0.74053 0.0
C2403 C 0.61 0.39884 0.74784 0.0
C2404 C 0.6105 0.44777 0.75516 0.0
C2405 C 0.61178 0.47684 0.74829 0.0
C2406 C 0.63371 0.48625 0.7359 0.0
C2407 C 0.6345 0.51358 0.72919 0.0
C2408 C 0.61359 0.53175 0.7349 0.0
C2409 C 0.59188 0.52265 0.74739 0.0
C2410 C 0.59096 0.49533 0.75412 0.0
C2411 C 0.61681 0.37963 0.83688 0.0
C2412 C 0.59488 0.3907 0.84836 0.0
C2413 C 0.62268 0.38928 0.81669 0.0
C2414 C 0.6059 0.4093 0.80722 0.0
C2415 C 0.58554 0.42209 0.81945 0.0
C2416 C 0.58017 0.41295 0.83991 0.0
C2417 C 0.60762 0.41468 0.78414 0.0
C2418 C 0.60879 0.44187 0.77675 0.0
C2419 C 0.60756 0.39292 0.76933 0.0
C2420 C 0.60332 0.3639 0.77564 0.0
C2421 C 0.57989 0.35625 0.7871 0.0
C2422 C 0.57621 0.32897 0.79329 0.0
C2423 C 0.59566 0.30908 0.78792 0.0
C2424 C 0.61881 0.31643 0.77629 0.0
C2425 C 0.62264 0.34371 0.77011 0.0
H2426 H 0.59277 0.28796 0.79273 0.0
H2427 H 0.61423 0.55289 0.72967 0.0
H2428 H 0.0287 0.65156 0.70116 0.0
H2429 H 0.04105 0.63577 0.73625 0.0
H2430 H 0.10028 0.57991 0.70978 0.0
H2431 H 0.08842 0.59612 0.67433 0.0
H2432 H 0.06284 0.55733 0.74275 0.0
H2433 H 0.12524 0.63221 0.73012 0.0
H2434 H 0.13714 0.67955 0.71993 0.0
H2435 H 0.08725 0.71106 0.76993 0.0
H2436 H 0.07468 0.66389 0.78021 0.0
H2437 H 0.1317 0.52079 0.83624 0.0
H2438 H 0.11848 0.53497 0.80108 0.0
H2439 H 0.0784 0.60667 0.8264 0.0
H2440 H 0.09243 0.59295 0.86184 0.0
H2441 H 0.1058 0.62126 0.79347 0.0
H2442 H 0.04155 0.54993 0.80617 0.0
H2443 H 0.02484 0.50415 0.81636 0.0
H2444 H 0.07265 0.46739 0.76726 0.0
H2445 H 0.08979 0.51305 0.75684 0.0
C2446 C 0.04431 0.63584 0.70269 0.0
C2447 C 0.05757 0.6251 0.68486 0.0
C2448 C 0.05139 0.6269 0.72282 0.0
C2449 C 0.07164 0.60674 0.72567 0.0
C2450 C 0.08459 0.59551 0.70793 0.0
C2451 C 0.07784 0.60482 0.68771 0.0
C2452 C 0.07929 0.59779 0.74724 0.0
C2453 C 0.07268 0.57111 0.75376 0.0
C2454 C 0.09109 0.61614 0.76185 0.0
C2455 C 0.0988 0.64452 0.7558 0.0
C2456 C 0.11661 0.64924 0.73883 0.0
C2457 C 0.12351 0.67604 0.73306 0.0
C2458 C 0.1129 0.69831 0.74424 0.0
C2459 C 0.09542 0.6938 0.76126 0.0
C2460 C 0.08842 0.66703 0.76708 0.0
C2461 C 0.11987 0.53949 0.83446 0.0
C2462 C 0.11309 0.55566 0.852 0.0
C2463 C 0.11216 0.54753 0.81422 0.0
C2464 C 0.09704 0.57175 0.81092 0.0
C2465 C 0.09002 0.58787 0.82843 0.0
C2466 C 0.09794 0.57993 0.84874 0.0
C2467 C 0.08949 0.58057 0.78915 0.0
C2468 C 0.09605 0.60732 0.78254 0.0
C2469 C 0.07715 0.56242 0.77456 0.0
C2470 C 0.06716 0.53488 0.78087 0.0
C2471 C 0.04869 0.53206 0.79766 0.0
C2472 C 0.03909 0.50613 0.80345 0.0
C2473 C 0.04776 0.48283 0.79252 0.0
C2474 C 0.06599 0.48545 0.77573 0.0
C2475 C 0.07561 0.51136 0.76985 0.0
H2476 H 0.04028 0.46276 0.79702 0.0
H2477 H 0.11827 0.71905 0.73975 0.0
H2478 H 0.94208 0.06225 0.85426 0.0
H2479 H 0.9372 0.05745 0.81628 0.0
H2480 H 0.92061 0.14415 0.81079 0.0
H2481 H 0.92539 0.14914 0.84883 0.0
H2482 H 0.88522 0.11311 0.78675 0.0
H2483 H 0.98182 0.12075 0.79687 0.0
H2484 H 0.02665 0.10972 0.81267 0.0
H2485 H 0.02091 0.02705 0.78988 0.0
H2486 H 0.97581 0.03745 0.77422 0.0
H2487 H 0.89225 0.10489 0.6747 0.0
H2488 H 0.90321 0.11987 0.71054 0.0
H2489 H 0.9257 0.03684 0.72686 0.0
H2490 H 0.91519 0.02196 0.69134 0.0
H2491 H 0.96036 0.07215 0.74457 0.0
H2492 H 0.86203 0.06301 0.73799 0.0
H2493 H 0.81686 0.07329 0.72245 0.0
H2494 H 0.82574 0.15828 0.7388 0.0
H2495 H 0.8712 0.14856 0.75416 0.0
C2496 C 0.93732 0.08032 0.84502 0.0
C2497 C 0.9343 0.10611 0.85464 0.0
C2498 C 0.93466 0.07756 0.82326 0.0
C2499 C 0.92883 0.1005 0.8106 0.0
C2500 C 0.92521 0.12618 0.82019 0.0
C2501 C 0.92809 0.129 0.84195 0.0
C2502 C 0.92657 0.09753 0.78738 0.0
C2503 C 0.90183 0.10462 0.77746 0.0
C2504 C 0.94809 0.08615 0.77524 0.0
C2505 C 0.97531 0.07983 0.78452 0.0
C2506 C 0.99001 0.10015 0.79536 0.0
C2507 C 0.01549 0.09402 0.80427 0.0
C2508 C 0.02659 0.06768 0.80232 0.0
C2509 C 0.01226 0.04744 0.7914 0.0
C2510 C 0.98675 0.05345 0.78248 0.0
C2511 C 0.90003 0.08999 0.68584 0.0
C2512 C 0.90267 0.0622 0.68019 0.0
C2513 C 0.90609 0.09851 0.70637 0.0
C2514 C 0.91494 0.0794 0.72155 0.0
C2515 C 0.91887 0.05199 0.71553 0.0
C2516 C 0.91273 0.04349 0.69518 0.0
C2517 C 0.91881 0.08721 0.74398 0.0
C2518 C 0.94387 0.081 0.75379 0.0
C2519 C 0.89755 0.09931 0.75602 0.0
C2520 C 0.87014 0.10513 0.74699 0.0
C2521 C 0.85444 0.08393 0.73813 0.0
C2522 C 0.82877 0.08965 0.72937 0.0
C2523 C 0.81847 0.11644 0.72958 0.0
C2524 C 0.83378 0.13755 0.73861 0.0
C2525 C 0.85949 0.13195 0.74735 0.0
H2526 H 0.7986 0.12083 0.72279 0.0
H2527 H 0.04632 0.06298 0.80923 0.0
loop_
_geom_bond_atom_site_label_1
_geom_bond_atom_site_label_2
_geom_bond_distance
_geom_bond_site_symmetry_2
_ccdc_geom_bond_type
C0 C1 1.351 . S
C0 N3 1.368 . S
C0 H5 0.931 . S
C1 C0 1.351 . S
C1 N2 1.373 . S
C1 H29 0.930 . S
N2 C1 1.373 . S
N2 C4 1.340 . S
N3 C0 1.368 . S
N3 C4 1.321 . S
N3 Co6 2.135 . S
C4 N2 1.340 . S
C4 N3 1.321 . S
C4 H28 0.930 . S
H5 C0 0.931 . S
Co6 N3 2.135 . S
Co6 N9 2.158 . S
Co6 O14 2.055 . S
Co6 O17 2.039 . S
Co6 N20 2.140 . S
C7 O8 1.227 . S
C7 O17 1.265 . S
O8 C7 1.227 . S
N9 Co6 2.158 . S
N9 C11 1.357 1_545 S
N9 C12 1.285 1_545 S
C10 C11 1.338 . S
C10 N13 1.377 . S
C10 H30 0.930 . S
C11 N9 1.357 1_565 S
C11 C10 1.338 . S
C11 H15 0.931 . S
C12 N9 1.285 1_565 S
C12 N13 1.344 . S
C12 H16 0.930 . S
N13 C10 1.377 . S
N13 C12 1.344 . S
O14 Co6 2.055 . S
O14 C18 1.253 . S
H15 C11 0.931 . S
H16 C12 0.930 . S
O17 Co6 2.039 . S
O17 C7 1.265 . S
C18 O14 1.253 . S
C18 O19 1.227 . S
O19 C18 1.227 . S
N20 Co6 2.140 . S
N20 C23 1.346 . S
N20 C24 1.330 1_545 S
C21 C22 1.387 . S
C21 C25 1.391 1_545 S
C22 C21 1.387 . S
C22 C23 1.369 . S
C22 H31 0.929 . S
C23 N20 1.346 . S
C23 C22 1.369 . S
C23 H26 0.928 . S
C24 N20 1.330 1_565 S
C24 C25 1.378 . S
C24 H27 0.939 . S
C25 C21 1.391 1_565 S
C25 C24 1.378 . S
C25 H32 0.930 . S
H26 C23 0.928 . S
H27 C24 0.939 . S
H28 C4 0.930 . S
H29 C1 0.930 . S
H30 C10 0.930 . S
H31 C22 0.929 . S
H32 C25 0.930 . S
C33 C34 1.351 . S
C33 N36 1.368 . S
C33 H38 0.931 . S
C34 C33 1.351 . S
C34 N35 1.373 . S
C34 H62 0.930 . S
N35 C34 1.373 . S
N35 C37 1.340 . S
N36 C33 1.368 . S
N36 C37 1.321 . S
N36 Co39 2.135 . S
C37 N35 1.340 . S
C37 N36 1.321 . S
C37 H61 0.930 . S
H38 C33 0.931 . S
Co39 N36 2.135 . S
Co39 N42 2.121 . S
Co39 O47 2.055 . S
Co39 O50 2.039 . S
Co39 N53 2.140 . S
C40 O41 1.227 . S
C40 O50 1.265 . S
O41 C40 1.227 . S
N42 Co39 2.121 . S
N42 C44 1.375 . S
N42 C45 1.313 . S
C43 C44 1.338 . S
C43 N46 1.377 . S
C43 H63 0.930 . S
C44 N42 1.375 . S
C44 C43 1.338 . S
C44 H48 0.931 . S
C45 N42 1.313 . S
C45 N46 1.344 . S
C45 H49 0.930 . S
N46 C43 1.377 . S
N46 C45 1.344 . S
O47 Co39 2.055 . S
O47 C51 1.253 . S
H48 C44 0.931 . S
H49 C45 0.930 . S
O50 Co39 2.039 . S
O50 C40 1.265 . S
C51 O47 1.253 . S
C51 O52 1.227 . S
O52 C51 1.227 . S
N53 Co39 2.140 . S
N53 C56 1.346 . S
N53 C57 1.345 . S
C54 C55 1.387 . S
C54 C58 1.391 . S
C55 C54 1.387 . S
C55 C56 1.369 . S
C55 H64 0.929 . S
C56 N53 1.346 . S
C56 C55 1.369 . S
C56 H59 0.928 . S
C57 N53 1.345 . S
C57 C58 1.371 . S
C57 H60 0.931 . S
C58 C54 1.391 . S
C58 C57 1.371 . S
C58 H65 0.930 . S
H59 C56 0.928 . S
H60 C57 0.931 . S
H61 C37 0.930 . S
H62 C34 0.930 . S
H63 C43 0.930 . S
H64 C55 0.929 . S
H65 C58 0.930 . S
C66 C67 1.351 . S
C66 N69 1.368 . S
C66 H71 0.931 . S
C67 C66 1.351 . S
C67 N68 1.373 . S
C67 H95 0.930 . S
N68 C67 1.373 . S
N68 C70 1.340 . S
N69 C66 1.368 . S
N69 C70 1.321 . S
N69 Co72 2.135 . S
C70 N68 1.340 . S
C70 N69 1.321 . S
C70 H94 0.930 . S
H71 C66 0.931 . S
Co72 N69 2.135 . S
Co72 N75 2.121 . S
Co72 O80 2.055 . S
Co72 O83 2.039 . S
Co72 N86 2.140 . S
C73 O74 1.227 . S
C73 O83 1.265 . S
O74 C73 1.227 . S
N75 Co72 2.121 . S
N75 C77 1.375 . S
N75 C78 1.313 . S
C76 C77 1.338 . S
C76 N79 1.377 . S
C76 H96 0.930 . S
C77 N75 1.375 . S
C77 C76 1.338 . S
C77 H81 0.931 . S
C78 N75 1.313 . S
C78 N79 1.344 . S
C78 H82 0.930 . S
N79 C76 1.377 . S
N79 C78 1.344 . S
O80 Co72 2.055 . S
O80 C84 1.253 . S
H81 C77 0.931 . S
H82 C78 0.930 . S
O83 Co72 2.039 . S
O83 C73 1.265 . S
C84 O80 1.253 . S
C84 O85 1.227 . S
O85 C84 1.227 . S
N86 Co72 2.140 . S
N86 C89 1.346 . S
N86 C90 1.345 . S
C87 C88 1.387 . S
C87 C91 1.391 . S
C88 C87 1.387 . S
C88 C89 1.369 . S
C88 H97 0.929 . S
C89 N86 1.346 . S
C89 C88 1.369 . S
C89 H92 0.928 . S
C90 N86 1.345 . S
C90 C91 1.371 . S
C90 H93 0.931 . S
C91 C87 1.391 . S
C91 C90 1.371 . S
C91 H98 0.930 . S
H92 C89 0.928 . S
H93 C90 0.931 . S
H94 C70 0.930 . S
H95 C67 0.930 . S
H96 C76 0.930 . S
H97 C88 0.929 . S
H98 C91 0.930 . S
C99 C100 1.351 . S
C99 N102 1.368 . S
C99 H104 0.931 . S
C100 C99 1.351 . S
C100 N101 1.373 . S
C100 H128 0.930 . S
N101 C100 1.373 . S
N101 C103 1.340 . S
N102 C99 1.368 . S
N102 C103 1.321 . S
N102 Co105 2.135 . S
C103 N101 1.340 . S
C103 N102 1.321 . S
C103 H127 0.930 . S
H104 C99 0.931 . S
Co105 N102 2.135 . S
Co105 N108 2.158 . S
Co105 O113 2.055 . S
Co105 O116 2.039 . S
Co105 N119 2.140 . S
C106 O107 1.227 . S
C106 O116 1.265 . S
O107 C106 1.227 . S
N108 Co105 2.158 . S
N108 C110 1.357 1_455 S
N108 C111 1.285 1_455 S
C109 C110 1.338 . S
C109 N112 1.377 . S
C109 H129 0.930 . S
C110 N108 1.357 1_655 S
C110 C109 1.338 . S
C110 H114 0.931 . S
C111 N108 1.285 1_655 S
C111 N112 1.344 . S
C111 H115 0.930 . S
N112 C109 1.377 . S
N112 C111 1.344 . S
O113 Co105 2.055 . S
O113 C117 1.253 . S
H114 C110 0.931 . S
H115 C111 0.930 . S
O116 Co105 2.039 . S
O116 C106 1.265 . S
C117 O113 1.253 . S
C117 O118 1.227 . S
O118 C117 1.227 . S
N119 Co105 2.140 . S
N119 C122 1.346 . S
N119 C123 1.330 1_455 S
C120 C121 1.387 . S
C120 C124 1.391 1_455 S
C121 C120 1.387 . S
C121 C122 1.369 . S
C121 H130 0.929 . S
C122 N119 1.346 . S
C122 C121 1.369 . S
C122 H125 0.928 . S
C123 N119 1.330 1_655 S
C123 C124 1.378 . S
C123 H126 0.939 . S
C124 C120 1.391 1_655 S
C124 C123 1.378 . S
C124 H131 0.930 . S
H125 C122 0.928 . S
H126 C123 0.939 . S
H127 C103 0.930 . S
H128 C100 0.930 . S
H129 C109 0.930 . S
H130 C121 0.929 . S
H131 C124 0.930 . S
C132 C133 1.351 . S
C132 N135 1.368 . S
C132 H137 0.931 . S
C133 C132 1.351 . S
C133 N134 1.373 . S
C133 H161 0.930 . S
N134 C133 1.373 . S
N134 C136 1.340 . S
N135 C132 1.368 . S
N135 C136 1.321 . S
N135 Co138 2.135 . S
C136 N134 1.340 . S
C136 N135 1.321 . S
C136 H160 0.930 . S
H137 C132 0.931 . S
Co138 N135 2.135 . S
Co138 N141 2.158 . S
Co138 O146 2.055 . S
Co138 O149 2.039 . S
Co138 N152 2.140 . S
C139 O140 1.227 . S
C139 O149 1.265 . S
O140 C139 1.227 . S
N141 Co138 2.158 . S
N141 C143 1.357 1_565 S
N141 C144 1.285 1_565 S
C142 C143 1.338 . S
C142 N145 1.377 . S
C142 H162 0.930 . S
C143 N141 1.357 1_545 S
C143 C142 1.338 . S
C143 H147 0.931 . S
C144 N141 1.285 1_545 S
C144 N145 1.344 . S
C144 H148 0.930 . S
N145 C142 1.377 . S
N145 C144 1.344 . S
O146 Co138 2.055 . S
O146 C150 1.253 . S
H147 C143 0.931 . S
H148 C144 0.930 . S
O149 Co138 2.039 . S
O149 C139 1.265 . S
C150 O146 1.253 . S
C150 O151 1.227 . S
O151 C150 1.227 . S
N152 Co138 2.140 . S
N152 C155 1.346 . S
N152 C156 1.330 1_565 S
C153 C154 1.387 . S
C153 C157 1.391 1_565 S
C154 C153 1.387 . S
C154 C155 1.369 . S
C154 H163 0.929 . S
C155 N152 1.346 . S
C155 C154 1.369 . S
C155 H158 0.928 . S
C156 N152 1.330 1_545 S
C156 C157 1.378 . S
C156 H159 0.939 . S
C157 C153 1.391 1_545 S
C157 C156 1.378 . S
C157 H164 0.930 . S
H158 C155 0.928 . S
H159 C156 0.939 . S
H160 C136 0.930 . S
H161 C133 0.930 . S
H162 C142 0.930 . S
H163 C154 0.929 . S
H164 C157 0.930 . S
C165 C166 1.351 . S
C165 N168 1.368 . S
C165 H170 0.931 . S
C166 C165 1.351 . S
C166 N167 1.373 . S
C166 H194 0.930 . S
N167 C166 1.373 . S
N167 C169 1.340 . S
N168 C165 1.368 . S
N168 C169 1.321 . S
N168 Co171 2.135 . S
C169 N167 1.340 . S
C169 N168 1.321 . S
C169 H193 0.930 . S
H170 C165 0.931 . S
Co171 N168 2.135 . S
Co171 N174 2.121 . S
Co171 O179 2.055 . S
Co171 O182 2.039 . S
Co171 N185 2.140 . S
C172 O173 1.227 . S
C172 O182 1.265 . S
O173 C172 1.227 . S
N174 Co171 2.121 . S
N174 C176 1.375 . S
N174 C177 1.313 . S
C175 C176 1.338 . S
C175 N178 1.377 . S
C175 H195 0.930 . S
C176 N174 1.375 . S
C176 C175 1.338 . S
C176 H180 0.931 . S
C177 N174 1.313 . S
C177 N178 1.344 . S
C177 H181 0.930 . S
N178 C175 1.377 . S
N178 C177 1.344 . S
O179 Co171 2.055 . S
O179 C183 1.253 . S
H180 C176 0.931 . S
H181 C177 0.930 . S
O182 Co171 2.039 . S
O182 C172 1.265 . S
C183 O179 1.253 . S
C183 O184 1.227 . S
O184 C183 1.227 . S
N185 Co171 2.140 . S
N185 C188 1.346 . S
N185 C189 1.345 . S
C186 C187 1.387 . S
C186 C190 1.391 . S
C187 C186 1.387 . S
C187 C188 1.369 . S
C187 H196 0.929 . S
C188 N185 1.346 . S
C188 C187 1.369 . S
C188 H191 0.928 . S
C189 N185 1.345 . S
C189 C190 1.371 . S
C189 H192 0.931 . S
C190 C186 1.391 . S
C190 C189 1.371 . S
C190 H197 0.930 . S
H191 C188 0.928 . S
H192 C189 0.931 . S
H193 C169 0.930 . S
H194 C166 0.930 . S
H195 C175 0.930 . S
H196 C187 0.929 . S
H197 C190 0.930 . S
C198 C199 1.351 . S
C198 N201 1.368 . S
C198 H203 0.931 . S
C199 C198 1.351 . S
C199 N200 1.373 . S
C199 H227 0.930 . S
N200 C199 1.373 . S
N200 C202 1.340 . S
N201 C198 1.368 . S
N201 C202 1.321 . S
N201 Co204 2.135 . S
C202 N200 1.340 . S
C202 N201 1.321 . S
C202 H226 0.930 . S
H203 C198 0.931 . S
Co204 N201 2.135 . S
Co204 N207 2.121 . S
Co204 O212 2.055 . S
Co204 O215 2.039 . S
Co204 N218 2.140 . S
C205 O206 1.227 . S
C205 O215 1.265 . S
O206 C205 1.227 . S
N207 Co204 2.121 . S
N207 C209 1.375 . S
N207 C210 1.313 . S
C208 C209 1.338 . S
C208 N211 1.377 . S
C208 H228 0.930 . S
C209 N207 1.375 . S
C209 C208 1.338 . S
C209 H213 0.931 . S
C210 N207 1.313 . S
C210 N211 1.344 . S
C210 H214 0.930 . S
N211 C208 1.377 . S
N211 C210 1.344 . S
O212 Co204 2.055 . S
O212 C216 1.253 . S
H213 C209 0.931 . S
H214 C210 0.930 . S
O215 Co204 2.039 . S
O215 C205 1.265 . S
C216 O212 1.253 . S
C216 O217 1.227 . S
O217 C216 1.227 . S
N218 Co204 2.140 . S
N218 C221 1.346 . S
N218 C222 1.345 . S
C219 C220 1.387 . S
C219 C223 1.391 . S
C220 C219 1.387 . S
C220 C221 1.369 . S
C220 H229 0.929 . S
C221 N218 1.346 . S
C221 C220 1.369 . S
C221 H224 0.928 . S
C222 N218 1.345 . S
C222 C223 1.371 . S
C222 H225 0.931 . S
C223 C219 1.391 . S
C223 C222 1.371 . S
C223 H230 0.930 . S
H224 C221 0.928 . S
H225 C222 0.931 . S
H226 C202 0.930 . S
H227 C199 0.930 . S
H228 C208 0.930 . S
H229 C220 0.929 . S
H230 C223 0.930 . S
C231 C232 1.351 . S
C231 N234 1.368 . S
C231 H236 0.931 . S
C232 C231 1.351 . S
C232 N233 1.373 . S
C232 H260 0.930 . S
N233 C232 1.373 . S
N233 C235 1.340 . S
N234 C231 1.368 . S
N234 C235 1.321 . S
N234 Co237 2.135 . S
C235 N233 1.340 . S
C235 N234 1.321 . S
C235 H259 0.930 . S
H236 C231 0.931 . S
Co237 N234 2.135 . S
Co237 N240 2.158 . S
Co237 O245 2.055 . S
Co237 O248 2.039 . S
Co237 N251 2.140 . S
C238 O239 1.227 . S
C238 O248 1.265 . S
O239 C238 1.227 . S
N240 Co237 2.158 . S
N240 C242 1.357 1_655 S
N240 C243 1.285 1_655 S
C241 C242 1.338 . S
C241 N244 1.377 . S
C241 H261 0.930 . S
C242 N240 1.357 1_455 S
C242 C241 1.338 . S
C242 H246 0.931 . S
C243 N240 1.285 1_455 S
C243 N244 1.344 . S
C243 H247 0.930 . S
N244 C241 1.377 . S
N244 C243 1.344 . S
O245 Co237 2.055 . S
O245 C249 1.253 . S
H246 C242 0.931 . S
H247 C243 0.930 . S
O248 Co237 2.039 . S
O248 C238 1.265 . S
C249 O245 1.253 . S
C249 O250 1.227 . S
O250 C249 1.227 . S
N251 Co237 2.140 . S
N251 C254 1.346 . S
N251 C255 1.330 1_655 S
C252 C253 1.387 . S
C252 C256 1.391 1_655 S
C253 C252 1.387 . S
C253 C254 1.369 . S
C253 H262 0.929 . S
C254 N251 1.346 . S
C254 C253 1.369 . S
C254 H257 0.928 . S
C255 N251 1.330 1_455 S
C255 C256 1.378 . S
C255 H258 0.939 . S
C256 C252 1.391 1_455 S
C256 C255 1.378 . S
C256 H263 0.930 . S
H257 C254 0.928 . S
H258 C255 0.939 . S
H259 C235 0.930 . S
H260 C232 0.930 . S
H261 C241 0.930 . S
H262 C253 0.929 . S
H263 C256 0.930 . S
C264 C265 1.351 . S
C264 N267 1.368 . S
C264 H269 0.931 . S
C265 C264 1.351 . S
C265 N266 1.373 . S
C265 H293 0.930 . S
N266 C265 1.373 . S
N266 C268 1.340 . S
N267 C264 1.368 . S
N267 C268 1.321 . S
N267 Co270 2.135 . S
C268 N266 1.340 . S
C268 N267 1.321 . S
C268 H292 0.930 . S
H269 C264 0.931 . S
Co270 N267 2.135 . S
Co270 N273 2.158 . S
Co270 O278 2.055 . S
Co270 O281 2.039 . S
Co270 N284 2.140 . S
C271 O272 1.227 . S
C271 O281 1.265 . S
O272 C271 1.227 . S
N273 Co270 2.158 . S
N273 C275 1.357 1_565 S
N273 C276 1.285 1_565 S
C274 C275 1.338 . S
C274 N277 1.377 . S
C274 H294 0.930 . S
C275 N273 1.357 1_545 S
C275 C274 1.338 . S
C275 H279 0.931 . S
C276 N273 1.285 1_545 S
C276 N277 1.344 . S
C276 H280 0.930 . S
N277 C274 1.377 . S
N277 C276 1.344 . S
O278 Co270 2.055 . S
O278 C282 1.253 . S
H279 C275 0.931 . S
H280 C276 0.930 . S
O281 Co270 2.039 . S
O281 C271 1.265 . S
C282 O278 1.253 . S
C282 O283 1.227 . S
O283 C282 1.227 . S
N284 Co270 2.140 . S
N284 C287 1.346 . S
N284 C288 1.330 1_565 S
C285 C286 1.387 . S
C285 C289 1.391 1_565 S
C286 C285 1.387 . S
C286 C287 1.369 . S
C286 H295 0.929 . S
C287 N284 1.346 . S
C287 C286 1.369 . S
C287 H290 0.928 . S
C288 N284 1.330 1_545 S
C288 C289 1.378 . S
C288 H291 0.939 . S
C289 C285 1.391 1_545 S
C289 C288 1.378 . S
C289 H296 0.930 . S
H290 C287 0.928 . S
H291 C288 0.939 . S
H292 C268 0.930 . S
H293 C265 0.930 . S
H294 C274 0.930 . S
H295 C286 0.929 . S
H296 C289 0.930 . S
C297 C298 1.351 . S
C297 N300 1.368 . S
C297 H302 0.931 . S
C298 C297 1.351 . S
C298 N299 1.373 . S
C298 H326 0.930 . S
N299 C298 1.373 . S
N299 C301 1.340 . S
N300 C297 1.368 . S
N300 C301 1.321 . S
N300 Co303 2.135 . S
C301 N299 1.340 . S
C301 N300 1.321 . S
C301 H325 0.930 . S
H302 C297 0.931 . S
Co303 N300 2.135 . S
Co303 N306 2.121 . S
Co303 O311 2.055 . S
Co303 O314 2.039 . S
Co303 N317 2.140 . S
C304 O305 1.227 . S
C304 O314 1.265 . S
O305 C304 1.227 . S
N306 Co303 2.121 . S
N306 C308 1.375 . S
N306 C309 1.313 . S
C307 C308 1.338 . S
C307 N310 1.377 . S
C307 H327 0.930 . S
C308 N306 1.375 . S
C308 C307 1.338 . S
C308 H312 0.931 . S
C309 N306 1.313 . S
C309 N310 1.344 . S
C309 H313 0.930 . S
N310 C307 1.377 . S
N310 C309 1.344 . S
O311 Co303 2.055 . S
O311 C315 1.253 . S
H312 C308 0.931 . S
H313 C309 0.930 . S
O314 Co303 2.039 . S
O314 C304 1.265 . S
C315 O311 1.253 . S
C315 O316 1.227 . S
O316 C315 1.227 . S
N317 Co303 2.140 . S
N317 C320 1.346 . S
N317 C321 1.345 . S
C318 C319 1.387 . S
C318 C322 1.391 . S
C319 C318 1.387 . S
C319 C320 1.369 . S
C319 H328 0.929 . S
C320 N317 1.346 . S
C320 C319 1.369 . S
C320 H323 0.928 . S
C321 N317 1.345 . S
C321 C322 1.371 . S
C321 H324 0.931 . S
C322 C318 1.391 . S
C322 C321 1.371 . S
C322 H329 0.930 . S
H323 C320 0.928 . S
H324 C321 0.931 . S
H325 C301 0.930 . S
H326 C298 0.930 . S
H327 C307 0.930 . S
H328 C319 0.929 . S
H329 C322 0.930 . S
C330 C331 1.351 . S
C330 N333 1.368 . S
C330 H335 0.931 . S
C331 C330 1.351 . S
C331 N332 1.373 . S
C331 H359 0.930 . S
N332 C331 1.373 . S
N332 C334 1.340 . S
N333 C330 1.368 . S
N333 C334 1.321 . S
N333 Co336 2.135 . S
C334 N332 1.340 . S
C334 N333 1.321 . S
C334 H358 0.930 . S
H335 C330 0.931 . S
Co336 N333 2.135 . S
Co336 N339 2.121 . S
Co336 O344 2.055 . S
Co336 O347 2.039 . S
Co336 N350 2.140 . S
C337 O338 1.227 . S
C337 O347 1.265 . S
O338 C337 1.227 . S
N339 Co336 2.121 . S
N339 C341 1.375 . S
N339 C342 1.313 . S
C340 C341 1.338 . S
C340 N343 1.377 . S
C340 H360 0.930 . S
C341 N339 1.375 . S
C341 C340 1.338 . S
C341 H345 0.931 . S
C342 N339 1.313 . S
C342 N343 1.344 . S
C342 H346 0.930 . S
N343 C340 1.377 . S
N343 C342 1.344 . S
O344 Co336 2.055 . S
O344 C348 1.253 . S
H345 C341 0.931 . S
H346 C342 0.930 . S
O347 Co336 2.039 . S
O347 C337 1.265 . S
C348 O344 1.253 . S
C348 O349 1.227 . S
O349 C348 1.227 . S
N350 Co336 2.140 . S
N350 C353 1.346 . S
N350 C354 1.345 . S
C351 C352 1.387 . S
C351 C355 1.391 . S
C352 C351 1.387 . S
C352 C353 1.369 . S
C352 H361 0.929 . S
C353 N350 1.346 . S
C353 C352 1.369 . S
C353 H356 0.928 . S
C354 N350 1.345 . S
C354 C355 1.371 . S
C354 H357 0.931 . S
C355 C351 1.391 . S
C355 C354 1.371 . S
C355 H362 0.930 . S
H356 C353 0.928 . S
H357 C354 0.931 . S
H358 C334 0.930 . S
H359 C331 0.930 . S
H360 C340 0.930 . S
H361 C352 0.929 . S
H362 C355 0.930 . S
C363 C364 1.351 . S
C363 N366 1.368 . S
C363 H368 0.931 . S
C364 C363 1.351 . S
C364 N365 1.373 . S
C364 H392 0.930 . S
N365 C364 1.373 . S
N365 C367 1.340 . S
N366 C363 1.368 . S
N366 C367 1.321 . S
N366 Co369 2.135 . S
C367 N365 1.340 . S
C367 N366 1.321 . S
C367 H391 0.930 . S
H368 C363 0.931 . S
Co369 N366 2.135 . S
Co369 N372 2.158 . S
Co369 O377 2.055 . S
Co369 O380 2.039 . S
Co369 N383 2.140 . S
C370 O371 1.227 . S
C370 O380 1.265 . S
O371 C370 1.227 . S
N372 Co369 2.158 . S
N372 C374 1.357 1_655 S
N372 C375 1.285 1_655 S
C373 C374 1.338 . S
C373 N376 1.377 . S
C373 H393 0.930 . S
C374 N372 1.357 1_455 S
C374 C373 1.338 . S
C374 H378 0.931 . S
C375 N372 1.285 1_455 S
C375 N376 1.344 . S
C375 H379 0.930 . S
N376 C373 1.377 . S
N376 C375 1.344 . S
O377 Co369 2.055 . S
O377 C381 1.253 . S
H378 C374 0.931 . S
H379 C375 0.930 . S
O380 Co369 2.039 . S
O380 C370 1.265 . S
C381 O377 1.253 . S
C381 O382 1.227 . S
O382 C381 1.227 . S
N383 Co369 2.140 . S
N383 C386 1.346 . S
N383 C387 1.330 1_655 S
C384 C385 1.387 . S
C384 C388 1.391 1_655 S
C385 C384 1.387 . S
C385 C386 1.369 . S
C385 H394 0.929 . S
C386 N383 1.346 . S
C386 C385 1.369 . S
C386 H389 0.928 . S
C387 N383 1.330 1_455 S
C387 C388 1.378 . S
C387 H390 0.939 . S
C388 C384 1.391 1_455 S
C388 C387 1.378 . S
C388 H395 0.930 . S
H389 C386 0.928 . S
H390 C387 0.939 . S
H391 C367 0.930 . S
H392 C364 0.930 . S
H393 C373 0.930 . S
H394 C385 0.929 . S
H395 C388 0.930 . S
C396 C397 1.351 . S
C396 N399 1.368 . S
C396 H401 0.931 . S
C397 C396 1.351 . S
C397 N398 1.373 . S
C397 H425 0.930 . S
N398 C397 1.373 . S
N398 C400 1.340 . S
N399 C396 1.368 . S
N399 C400 1.321 . S
N399 Co402 2.135 . S
C400 N398 1.340 . S
C400 N399 1.321 . S
C400 H424 0.930 . S
H401 C396 0.931 . S
Co402 N399 2.135 . S
Co402 N405 2.158 . S
Co402 O410 2.055 . S
Co402 O413 2.039 . S
Co402 N416 2.140 . S
C403 O404 1.227 . S
C403 O413 1.265 . S
O404 C403 1.227 . S
N405 Co402 2.158 . S
N405 C407 1.357 1_545 S
N405 C408 1.285 1_545 S
C406 C407 1.338 . S
C406 N409 1.377 . S
C406 H426 0.930 . S
C407 N405 1.357 1_565 S
C407 C406 1.338 . S
C407 H411 0.931 . S
C408 N405 1.285 1_565 S
C408 N409 1.344 . S
C408 H412 0.930 . S
N409 C406 1.377 . S
N409 C408 1.344 . S
O410 Co402 2.055 . S
O410 C414 1.253 . S
H411 C407 0.931 . S
H412 C408 0.930 . S
O413 Co402 2.039 . S
O413 C403 1.265 . S
C414 O410 1.253 . S
C414 O415 1.227 . S
O415 C414 1.227 . S
N416 Co402 2.140 . S
N416 C419 1.346 . S
N416 C420 1.330 1_545 S
C417 C418 1.387 . S
C417 C421 1.391 1_545 S
C418 C417 1.387 . S
C418 C419 1.369 . S
C418 H427 0.929 . S
C419 N416 1.346 . S
C419 C418 1.369 . S
C419 H422 0.928 . S
C420 N416 1.330 1_565 S
C420 C421 1.378 . S
C420 H423 0.939 . S
C421 C417 1.391 1_565 S
C421 C420 1.378 . S
C421 H428 0.930 . S
H422 C419 0.928 . S
H423 C420 0.939 . S
H424 C400 0.930 . S
H425 C397 0.930 . S
H426 C406 0.930 . S
H427 C418 0.929 . S
H428 C421 0.930 . S
C429 C430 1.351 . S
C429 N432 1.368 . S
C429 H434 0.931 . S
C430 C429 1.351 . S
C430 N431 1.373 . S
C430 H458 0.930 . S
N431 C430 1.373 . S
N431 C433 1.340 . S
N432 C429 1.368 . S
N432 C433 1.321 . S
N432 Co435 2.135 . S
C433 N431 1.340 . S
C433 N432 1.321 . S
C433 H457 0.930 . S
H434 C429 0.931 . S
Co435 N432 2.135 . S
Co435 N438 2.121 . S
Co435 O443 2.055 . S
Co435 O446 2.039 . S
Co435 N449 2.140 . S
C436 O437 1.227 . S
C436 O446 1.265 . S
O437 C436 1.227 . S
N438 Co435 2.121 . S
N438 C440 1.375 . S
N438 C441 1.313 . S
C439 C440 1.338 . S
C439 N442 1.377 . S
C439 H459 0.930 . S
C440 N438 1.375 . S
C440 C439 1.338 . S
C440 H444 0.931 . S
C441 N438 1.313 . S
C441 N442 1.344 . S
C441 H445 0.930 . S
N442 C439 1.377 . S
N442 C441 1.344 . S
O443 Co435 2.055 . S
O443 C447 1.253 . S
H444 C440 0.931 . S
H445 C441 0.930 . S
O446 Co435 2.039 . S
O446 C436 1.265 . S
C447 O443 1.253 . S
C447 O448 1.227 . S
O448 C447 1.227 . S
N449 Co435 2.140 . S
N449 C452 1.346 . S
N449 C453 1.345 . S
C450 C451 1.387 . S
C450 C454 1.391 . S
C451 C450 1.387 . S
C451 C452 1.369 . S
C451 H460 0.929 . S
C452 N449 1.346 . S
C452 C451 1.369 . S
C452 H455 0.928 . S
C453 N449 1.345 . S
C453 C454 1.371 . S
C453 H456 0.931 . S
C454 C450 1.391 . S
C454 C453 1.371 . S
C454 H461 0.930 . S
H455 C452 0.928 . S
H456 C453 0.931 . S
H457 C433 0.930 . S
H458 C430 0.930 . S
H459 C439 0.930 . S
H460 C451 0.929 . S
H461 C454 0.930 . S
C462 C463 1.351 . S
C462 N465 1.368 . S
C462 H467 0.931 . S
C463 C462 1.351 . S
C463 N464 1.373 . S
C463 H491 0.930 . S
N464 C463 1.373 . S
N464 C466 1.340 . S
N465 C462 1.368 . S
N465 C466 1.321 . S
N465 Co468 2.135 . S
C466 N464 1.340 . S
C466 N465 1.321 . S
C466 H490 0.930 . S
H467 C462 0.931 . S
Co468 N465 2.135 . S
Co468 N471 2.121 . S
Co468 O476 2.055 . S
Co468 O479 2.039 . S
Co468 N482 2.140 . S
C469 O470 1.227 . S
C469 O479 1.265 . S
O470 C469 1.227 . S
N471 Co468 2.121 . S
N471 C473 1.375 . S
N471 C474 1.313 . S
C472 C473 1.338 . S
C472 N475 1.377 . S
C472 H492 0.930 . S
C473 N471 1.375 . S
C473 C472 1.338 . S
C473 H477 0.931 . S
C474 N471 1.313 . S
C474 N475 1.344 . S
C474 H478 0.930 . S
N475 C472 1.377 . S
N475 C474 1.344 . S
O476 Co468 2.055 . S
O476 C480 1.253 . S
H477 C473 0.931 . S
H478 C474 0.930 . S
O479 Co468 2.039 . S
O479 C469 1.265 . S
C480 O476 1.253 . S
C480 O481 1.227 . S
O481 C480 1.227 . S
N482 Co468 2.140 . S
N482 C485 1.346 . S
N482 C486 1.345 . S
C483 C484 1.387 . S
C483 C487 1.391 . S
C484 C483 1.387 . S
C484 C485 1.369 . S
C484 H493 0.929 . S
C485 N482 1.346 . S
C485 C484 1.369 . S
C485 H488 0.928 . S
C486 N482 1.345 . S
C486 C487 1.371 . S
C486 H489 0.931 . S
C487 C483 1.391 . S
C487 C486 1.371 . S
C487 H494 0.930 . S
H488 C485 0.928 . S
H489 C486 0.931 . S
H490 C466 0.930 . S
H491 C463 0.930 . S
H492 C472 0.930 . S
H493 C484 0.929 . S
H494 C487 0.930 . S
C495 C496 1.351 . S
C495 N498 1.368 . S
C495 H500 0.931 . S
C496 C495 1.351 . S
C496 N497 1.373 . S
C496 H524 0.930 . S
N497 C496 1.373 . S
N497 C499 1.340 . S
N498 C495 1.368 . S
N498 C499 1.321 . S
N498 Co501 2.135 . S
C499 N497 1.340 . S
C499 N498 1.321 . S
C499 H523 0.930 . S
H500 C495 0.931 . S
Co501 N498 2.135 . S
Co501 N504 2.158 . S
Co501 O509 2.055 . S
Co501 O512 2.039 . S
Co501 N515 2.140 . S
C502 O503 1.227 . S
C502 O512 1.265 . S
O503 C502 1.227 . S
N504 Co501 2.158 . S
N504 C506 1.357 1_455 S
N504 C507 1.285 1_455 S
C505 C506 1.338 . S
C505 N508 1.377 . S
C505 H525 0.930 . S
C506 N504 1.357 1_655 S
C506 C505 1.338 . S
C506 H510 0.931 . S
C507 N504 1.285 1_655 S
C507 N508 1.344 . S
C507 H511 0.930 . S
N508 C505 1.377 . S
N508 C507 1.344 . S
O509 Co501 2.055 . S
O509 C513 1.253 . S
H510 C506 0.931 . S
H511 C507 0.930 . S
O512 Co501 2.039 . S
O512 C502 1.265 . S
C513 O509 1.253 . S
C513 O514 1.227 . S
O514 C513 1.227 . S
N515 Co501 2.140 . S
N515 C518 1.346 . S
N515 C519 1.330 1_455 S
C516 C517 1.387 . S
C516 C520 1.391 1_455 S
C517 C516 1.387 . S
C517 C518 1.369 . S
C517 H526 0.929 . S
C518 N515 1.346 . S
C518 C517 1.369 . S
C518 H521 0.928 . S
C519 N515 1.330 1_655 S
C519 C520 1.378 . S
C519 H522 0.939 . S
C520 C516 1.391 1_655 S
C520 C519 1.378 . S
C520 H527 0.930 . S
H521 C518 0.928 . S
H522 C519 0.939 . S
H523 C499 0.930 . S
H524 C496 0.930 . S
H525 C505 0.930 . S
H526 C517 0.929 . S
H527 C520 0.930 . S
H528 C546 0.951 . S
H529 C548 0.951 . S
H530 C550 0.950 . S
H531 C551 0.950 . S
H532 C553 0.950 . S
H533 C556 0.950 . S
H534 C557 0.950 . S
H535 C559 0.950 . S
H536 C560 0.950 . S
H537 C561 0.951 . S
H538 C563 0.951 . S
H539 C565 0.950 . S
H540 C566 0.950 . S
H541 C568 0.950 . S
H542 C571 0.950 . S
H543 C572 0.950 . S
H544 C574 0.950 . S
H545 C575 0.950 . S
C546 H528 0.951 . S
C546 C547 1.366 . S
C546 C548 1.388 . S
C547 C546 1.366 . S
C547 C551 1.385 . S
C548 H529 0.951 . S
C548 C546 1.388 . S
C548 C549 1.366 . S
C549 C548 1.366 . S
C549 C550 1.414 . S
C549 C552 1.499 . S
C550 H530 0.950 . S
C550 C549 1.414 . S
C550 C551 1.374 . S
C551 H531 0.950 . S
C551 C547 1.385 . S
C551 C550 1.374 . S
C552 C549 1.499 . S
C552 C553 1.373 . S
C552 C554 1.389 . S
C553 H532 0.950 . S
C553 C552 1.373 . S
C553 C569 1.377 . S
C554 C552 1.389 . S
C554 C555 1.524 . S
C554 C568 1.377 . S
C555 C554 1.524 . S
C555 C556 1.397 . S
C555 C560 1.363 . S
C556 H533 0.950 . S
C556 C555 1.397 . S
C556 C557 1.334 . S
C557 H534 0.950 . S
C557 C556 1.334 . S
C557 C558 1.287 . S
C558 C557 1.287 . S
C558 C559 1.524 . S
C558 H577 0.913 . S
C559 H535 0.950 . S
C559 C558 1.524 . S
C559 C560 1.415 . S
C560 H536 0.950 . S
C560 C555 1.363 . S
C560 C559 1.415 . S
C561 H537 0.951 . S
C561 C562 1.366 . S
C561 C563 1.388 . S
C562 C561 1.366 . S
C562 C566 1.385 . S
C563 H538 0.951 . S
C563 C561 1.388 . S
C563 C564 1.366 . S
C564 C563 1.366 . S
C564 C565 1.414 . S
C564 C567 1.499 . S
C565 H539 0.950 . S
C565 C564 1.414 . S
C565 C566 1.374 . S
C566 H540 0.950 . S
C566 C562 1.385 . S
C566 C565 1.374 . S
C567 C564 1.499 . S
C567 C568 1.373 . S
C567 C569 1.389 . S
C568 H541 0.950 . S
C568 C554 1.377 . S
C568 C567 1.373 . S
C569 C553 1.377 . S
C569 C567 1.389 . S
C569 C570 1.524 . S
C570 C569 1.524 . S
C570 C571 1.397 . S
C570 C575 1.363 . S
C571 H542 0.950 . S
C571 C570 1.397 . S
C571 C572 1.334 . S
C572 H543 0.950 . S
C572 C571 1.334 . S
C572 C573 1.287 . S
C573 C572 1.287 . S
C573 C574 1.524 . S
C573 H576 0.999 . S
C574 H544 0.950 . S
C574 C573 1.524 . S
C574 C575 1.415 . S
C575 H545 0.950 . S
C575 C570 1.363 . S
C575 C574 1.415 . S
H576 C573 0.999 . S
H577 C558 0.913 . S
H578 C596 0.951 . S
H579 C598 0.951 . S
H580 C600 0.950 . S
H581 C601 0.950 . S
H582 C603 0.950 . S
H583 C606 0.950 . S
H584 C607 0.950 . S
H585 C609 0.950 . S
H586 C610 0.950 . S
H587 C611 0.951 . S
H588 C613 0.951 . S
H589 C615 0.950 . S
H590 C616 0.950 . S
H591 C618 0.950 . S
H592 C621 0.950 . S
H593 C622 0.950 . S
H594 C624 0.950 . S
H595 C625 0.950 . S
C596 H578 0.951 . S
C596 C597 1.366 . S
C596 C598 1.388 . S
C597 C596 1.366 . S
C597 C601 1.385 . S
C598 H579 0.951 . S
C598 C596 1.388 . S
C598 C599 1.366 . S
C599 C598 1.366 . S
C599 C600 1.414 . S
C599 C602 1.499 . S
C600 H580 0.950 . S
C600 C599 1.414 . S
C600 C601 1.374 . S
C601 H581 0.950 . S
C601 C597 1.385 . S
C601 C600 1.374 . S
C602 C599 1.499 . S
C602 C603 1.373 . S
C602 C604 1.389 . S
C603 H582 0.950 . S
C603 C602 1.373 . S
C603 C619 1.377 . S
C604 C602 1.389 . S
C604 C605 1.524 . S
C604 C618 1.377 . S
C605 C604 1.524 . S
C605 C606 1.397 . S
C605 C610 1.363 . S
C606 H583 0.950 . S
C606 C605 1.397 . S
C606 C607 1.334 . S
C607 H584 0.950 . S
C607 C606 1.334 . S
C607 C608 1.287 . S
C608 C607 1.287 . S
C608 C609 1.524 . S
C608 H627 0.913 . S
C609 H585 0.950 . S
C609 C608 1.524 . S
C609 C610 1.415 . S
C610 H586 0.950 . S
C610 C605 1.363 . S
C610 C609 1.415 . S
C611 H587 0.951 . S
C611 C612 1.366 . S
C611 C613 1.388 . S
C612 C611 1.366 . S
C612 C616 1.385 . S
C613 H588 0.951 . S
C613 C611 1.388 . S
C613 C614 1.366 . S
C614 C613 1.366 . S
C614 C615 1.414 . S
C614 C617 1.499 . S
C615 H589 0.950 . S
C615 C614 1.414 . S
C615 C616 1.374 . S
C616 H590 0.950 . S
C616 C612 1.385 . S
C616 C615 1.374 . S
C617 C614 1.499 . S
C617 C618 1.373 . S
C617 C619 1.389 . S
C618 H591 0.950 . S
C618 C604 1.377 . S
C618 C617 1.373 . S
C619 C603 1.377 . S
C619 C617 1.389 . S
C619 C620 1.524 . S
C620 C619 1.524 . S
C620 C621 1.397 . S
C620 C625 1.363 . S
C621 H592 0.950 . S
C621 C620 1.397 . S
C621 C622 1.334 . S
C622 H593 0.950 . S
C622 C621 1.334 . S
C622 C623 1.287 . S
C623 C622 1.287 . S
C623 C624 1.524 . S
C623 H626 0.999 . S
C624 H594 0.950 . S
C624 C623 1.524 . S
C624 C625 1.415 . S
C625 H595 0.950 . S
C625 C620 1.363 . S
C625 C624 1.415 . S
H626 C623 0.999 . S
H627 C608 0.913 . S
H628 C646 0.963 . S
H629 C648 0.951 . S
H630 C650 0.950 . S
H631 C651 0.950 . S
H632 C653 0.950 . S
H633 C656 0.950 . S
H634 C657 0.950 . S
H635 C659 0.950 . S
H636 C660 0.950 . S
H637 C661 0.951 . S
H638 C663 0.951 . S
H639 C665 0.950 . S
H640 C666 0.950 . S
H641 C668 0.950 . S
H642 C671 0.950 . S
H643 C672 0.950 1_455 S
H644 C674 0.950 . S
H645 C675 0.950 . S
C646 H628 0.963 . S
C646 C647 1.366 . S
C646 C648 1.388 . S
C647 C646 1.366 . S
C647 C651 1.385 . S
C648 H629 0.951 . S
C648 C646 1.388 . S
C648 C649 1.366 . S
C649 C648 1.366 . S
C649 C650 1.414 . S
C649 C652 1.499 . S
C650 H630 0.950 . S
C650 C649 1.414 . S
C650 C651 1.374 . S
C651 H631 0.950 . S
C651 C647 1.385 . S
C651 C650 1.374 . S
C652 C649 1.499 . S
C652 C653 1.373 . S
C652 C654 1.389 . S
C653 H632 0.950 . S
C653 C652 1.373 . S
C653 C669 1.377 . S
C654 C652 1.389 . S
C654 C655 1.524 . S
C654 C668 1.377 . S
C655 C654 1.524 . S
C655 C656 1.397 . S
C655 C660 1.363 . S
C656 H633 0.950 . S
C656 C655 1.397 . S
C656 C657 1.334 . S
C657 H634 0.950 . S
C657 C656 1.334 . S
C657 C658 1.287 . S
C658 C657 1.287 . S
C658 C659 1.524 . S
C658 H677 0.913 . S
C659 H635 0.950 . S
C659 C658 1.524 . S
C659 C660 1.415 . S
C660 H636 0.950 . S
C660 C655 1.363 . S
C660 C659 1.415 . S
C661 H637 0.951 . S
C661 C662 1.366 . S
C661 C663 1.388 . S
C662 C661 1.366 . S
C662 C666 1.385 . S
C663 H638 0.951 . S
C663 C661 1.388 . S
C663 C664 1.366 . S
C664 C663 1.366 . S
C664 C665 1.414 . S
C664 C667 1.499 . S
C665 H639 0.950 . S
C665 C664 1.414 . S
C665 C666 1.374 . S
C666 H640 0.950 . S
C666 C662 1.385 . S
C666 C665 1.374 . S
C667 C664 1.499 . S
C667 C668 1.373 . S
C667 C669 1.389 . S
C668 H641 0.950 . S
C668 C654 1.377 . S
C668 C667 1.373 . S
C669 C653 1.377 . S
C669 C667 1.389 . S
C669 C670 1.524 . S
C670 C669 1.524 . S
C670 C671 1.397 . S
C670 C675 1.363 . S
C671 H642 0.950 . S
C671 C670 1.397 . S
C671 C672 1.334 . S
C672 H643 0.950 1_655 S
C672 C671 1.334 . S
C672 C673 1.287 1_655 S
C673 C672 1.287 1_455 S
C673 C674 1.524 1_455 S
C673 H676 0.999 . S
C674 H644 0.950 . S
C674 C673 1.524 1_655 S
C674 C675 1.415 . S
C675 H645 0.950 . S
C675 C670 1.363 . S
C675 C674 1.415 . S
H676 C673 0.999 . S
H677 C658 0.913 . S
H678 C696 0.951 . S
H679 C698 0.951 . S
H680 C700 0.950 . S
H681 C701 0.950 . S
H682 C703 0.950 . S
H683 C706 0.950 . S
H684 C707 0.950 . S
H685 C709 0.950 . S
H686 C710 0.950 . S
H687 C711 0.951 . S
H688 C713 0.970 . S
H689 C715 0.950 . S
H690 C716 0.950 . S
H691 C718 0.950 . S
H692 C721 0.950 . S
H693 C722 0.950 . S
H694 C724 0.950 . S
H695 C725 0.950 . S
C696 H678 0.951 . S
C696 C697 1.366 . S
C696 C698 1.388 . S
C697 C696 1.366 . S
C697 C701 1.385 . S
C698 H679 0.951 . S
C698 C696 1.388 . S
C698 C699 1.366 . S
C699 C698 1.366 . S
C699 C700 1.414 . S
C699 C702 1.499 . S
C700 H680 0.950 . S
C700 C699 1.414 . S
C700 C701 1.374 . S
C701 H681 0.950 . S
C701 C697 1.385 . S
C701 C700 1.374 . S
C702 C699 1.499 . S
C702 C703 1.373 . S
C702 C704 1.389 . S
C703 H682 0.950 . S
C703 C702 1.373 . S
C703 C719 1.377 . S
C704 C702 1.389 . S
C704 C705 1.524 . S
C704 C718 1.377 . S
C705 C704 1.524 . S
C705 C706 1.397 . S
C705 C710 1.363 . S
C706 H683 0.950 . S
C706 C705 1.397 . S
C706 C707 1.334 . S
C707 H684 0.950 . S
C707 C706 1.334 . S
C707 C708 1.287 . S
C708 C707 1.287 . S
C708 C709 1.524 . S
C708 H727 0.913 . S
C709 H685 0.950 . S
C709 C708 1.524 . S
C709 C710 1.415 . S
C710 H686 0.950 . S
C710 C705 1.363 . S
C710 C709 1.415 . S
C711 H687 0.951 . S
C711 C712 1.366 1_545 S
C711 C713 1.402 . S
C712 C711 1.366 1_565 S
C712 C716 1.385 . S
C713 H688 0.970 . S
C713 C711 1.402 . S
C713 C714 1.333 1_545 S
C714 C713 1.333 1_565 S
C714 C715 1.414 . S
C714 C717 1.499 . S
C715 H689 0.950 . S
C715 C714 1.414 . S
C715 C716 1.374 . S
C716 H690 0.950 . S
C716 C712 1.385 . S
C716 C715 1.374 . S
C717 C714 1.499 . S
C717 C718 1.373 . S
C717 C719 1.389 . S
C718 H691 0.950 . S
C718 C704 1.377 . S
C718 C717 1.373 . S
C719 C703 1.377 . S
C719 C717 1.389 . S
C719 C720 1.524 . S
C720 C719 1.524 . S
C720 C721 1.397 . S
C720 C725 1.363 1_565 S
C721 H692 0.950 . S
C721 C720 1.397 . S
C721 C722 1.334 1_565 S
C722 H693 0.950 . S
C722 C721 1.334 1_545 S
C722 C723 1.287 . S
C723 C722 1.287 . S
C723 C724 1.524 . S
C723 H726 0.999 . S
C724 H694 0.950 . S
C724 C723 1.524 . S
C724 C725 1.415 . S
C725 H695 0.950 . S
C725 C720 1.363 1_545 S
C725 C724 1.415 . S
H726 C723 0.999 . S
H727 C708 0.913 . S
H728 C746 0.951 . S
H729 C748 0.951 . S
H730 C750 0.950 . S
H731 C751 0.945 1_655 S
H732 C753 0.950 . S
H733 C756 0.950 . S
H734 C757 0.950 . S
H735 C759 0.950 . S
H736 C760 0.950 . S
H737 C761 0.951 . S
H738 C763 0.951 . S
H739 C765 0.950 . S
H740 C766 0.950 . S
H741 C768 0.950 . S
H742 C771 0.950 . S
H743 C772 0.950 . S
H744 C774 0.950 . S
H745 C775 0.950 . S
C746 H728 0.951 . S
C746 C747 1.366 . S
C746 C748 1.388 . S
C747 C746 1.366 . S
C747 C751 1.385 . S
C748 H729 0.951 . S
C748 C746 1.388 . S
C748 C749 1.366 . S
C749 C748 1.366 . S
C749 C750 1.414 . S
C749 C752 1.499 . S
C750 H730 0.950 . S
C750 C749 1.414 . S
C750 C751 1.374 . S
C751 H731 0.945 1_455 S
C751 C747 1.385 . S
C751 C750 1.374 . S
C752 C749 1.499 . S
C752 C753 1.373 . S
C752 C754 1.389 . S
C753 H732 0.950 . S
C753 C752 1.373 . S
C753 C769 1.377 . S
C754 C752 1.389 . S
C754 C755 1.524 . S
C754 C768 1.377 . S
C755 C754 1.524 . S
C755 C756 1.397 1_455 S
C755 C760 1.363 . S
C756 H733 0.950 . S
C756 C755 1.397 1_655 S
C756 C757 1.334 . S
C757 H734 0.950 . S
C757 C756 1.334 . S
C757 C758 1.287 . S
C758 C757 1.287 . S
C758 C759 1.524 . S
C758 H777 0.913 . S
C759 H735 0.950 . S
C759 C758 1.524 . S
C759 C760 1.415 1_655 S
C760 H736 0.950 . S
C760 C755 1.363 . S
C760 C759 1.415 1_455 S
C761 H737 0.951 . S
C761 C762 1.366 . S
C761 C763 1.388 . S
C762 C761 1.366 . S
C762 C766 1.385 . S
C763 H738 0.951 . S
C763 C761 1.388 . S
C763 C764 1.366 . S
C764 C763 1.366 . S
C764 C765 1.414 . S
C764 C767 1.499 . S
C765 H739 0.950 . S
C765 C764 1.414 . S
C765 C766 1.374 . S
C766 H740 0.950 . S
C766 C762 1.385 . S
C766 C765 1.374 . S
C767 C764 1.499 . S
C767 C768 1.373 . S
C767 C769 1.389 . S
C768 H741 0.950 . S
C768 C754 1.377 . S
C768 C767 1.373 . S
C769 C753 1.377 . S
C769 C767 1.389 . S
C769 C770 1.524 . S
C770 C769 1.524 . S
C770 C771 1.397 . S
C770 C775 1.363 . S
C771 H742 0.950 . S
C771 C770 1.397 . S
C771 C772 1.334 . S
C772 H743 0.950 . S
C772 C771 1.334 . S
C772 C773 1.287 . S
C773 C772 1.287 . S
C773 C774 1.524 . S
C773 H776 0.999 . S
C774 H744 0.950 . S
C774 C773 1.524 . S
C774 C775 1.415 . S
C775 H745 0.950 . S
C775 C770 1.363 . S
C775 C774 1.415 . S
H776 C773 0.999 . S
H777 C758 0.913 . S
H778 C796 0.951 . S
H779 C798 0.951 . S
H780 C800 0.950 . S
H781 C801 0.930 1_565 S
H782 C803 0.950 . S
H783 C806 0.950 . S
H784 C807 0.950 . S
H785 C809 0.950 . S
H786 C810 0.950 . S
H787 C811 0.951 . S
H788 C813 0.951 . S
H789 C815 0.950 . S
H790 C816 0.950 . S
H791 C818 0.950 . S
H792 C821 0.950 . S
H793 C822 0.950 . S
H794 C824 0.950 . S
H795 C825 0.950 . S
C796 H778 0.951 . S
C796 C797 1.366 . S
C796 C798 1.388 . S
C797 C796 1.366 . S
C797 C801 1.387 . S
C798 H779 0.951 . S
C798 C796 1.388 . S
C798 C799 1.366 . S
C799 C798 1.366 . S
C799 C800 1.414 . S
C799 C802 1.499 . S
C800 H780 0.950 . S
C800 C799 1.414 . S
C800 C801 1.392 . S
C801 H781 0.930 1_545 S
C801 C797 1.387 . S
C801 C800 1.392 . S
C802 C799 1.499 . S
C802 C803 1.373 . S
C802 C804 1.389 . S
C803 H782 0.950 . S
C803 C802 1.373 . S
C803 C819 1.377 . S
C804 C802 1.389 . S
C804 C805 1.524 . S
C804 C818 1.377 . S
C805 C804 1.524 . S
C805 C806 1.397 . S
C805 C810 1.363 . S
C806 H783 0.950 . S
C806 C805 1.397 . S
C806 C807 1.334 . S
C807 H784 0.950 . S
C807 C806 1.334 . S
C807 C808 1.287 . S
C808 C807 1.287 . S
C808 C809 1.524 . S
C808 H827 0.913 . S
C809 H785 0.950 . S
C809 C808 1.524 . S
C809 C810 1.415 . S
C810 H786 0.950 . S
C810 C805 1.363 . S
C810 C809 1.415 . S
C811 H787 0.951 . S
C811 C812 1.366 . S
C811 C813 1.388 . S
C812 C811 1.366 . S
C812 C816 1.385 . S
C813 H788 0.951 . S
C813 C811 1.388 . S
C813 C814 1.366 . S
C814 C813 1.366 . S
C814 C815 1.414 . S
C814 C817 1.499 . S
C815 H789 0.950 . S
C815 C814 1.414 . S
C815 C816 1.374 . S
C816 H790 0.950 . S
C816 C812 1.385 . S
C816 C815 1.374 . S
C817 C814 1.499 . S
C817 C818 1.373 . S
C817 C819 1.389 . S
C818 H791 0.950 . S
C818 C804 1.377 . S
C818 C817 1.373 . S
C819 C803 1.377 . S
C819 C817 1.389 . S
C819 C820 1.524 . S
C820 C819 1.524 . S
C820 C821 1.397 . S
C820 C825 1.363 . S
C821 H792 0.950 . S
C821 C820 1.397 . S
C821 C822 1.334 1_545 S
C822 H793 0.950 . S
C822 C821 1.334 1_565 S
C822 C823 1.287 . S
C823 C822 1.287 . S
C823 C824 1.524 . S
C823 H826 0.999 . S
C824 H794 0.950 . S
C824 C823 1.524 . S
C824 C825 1.415 1_565 S
C825 H795 0.950 . S
C825 C820 1.363 . S
C825 C824 1.415 1_545 S
H826 C823 0.999 . S
H827 C808 0.913 . S
H828 C846 0.951 . S
H829 C848 0.951 . S
H830 C850 0.950 . S
H831 C851 0.950 . S
H832 C853 0.950 . S
H833 C856 0.950 . S
H834 C857 0.950 . S
H835 C859 0.950 . S
H836 C860 0.950 . S
H837 C861 0.951 . S
H838 C863 0.951 . S
H839 C865 0.950 . S
H840 C866 0.950 . S
H841 C868 0.950 . S
H842 C871 0.950 . S
H843 C872 0.950 . S
H844 C874 0.950 . S
H845 C875 0.950 . S
C846 H828 0.951 . S
C846 C847 1.366 . S
C846 C848 1.388 . S
C847 C846 1.366 . S
C847 C851 1.385 . S
C848 H829 0.951 . S
C848 C846 1.388 . S
C848 C849 1.366 . S
C849 C848 1.366 . S
C849 C850 1.414 . S
C849 C852 1.499 . S
C850 H830 0.950 . S
C850 C849 1.414 . S
C850 C851 1.374 . S
C851 H831 0.950 . S
C851 C847 1.385 . S
C851 C850 1.374 . S
C852 C849 1.499 . S
C852 C853 1.373 . S
C852 C854 1.389 . S
C853 H832 0.950 . S
C853 C852 1.373 . S
C853 C869 1.377 . S
C854 C852 1.389 . S
C854 C855 1.524 . S
C854 C868 1.377 . S
C855 C854 1.524 . S
C855 C856 1.397 . S
C855 C860 1.363 . S
C856 H833 0.950 . S
C856 C855 1.397 . S
C856 C857 1.334 . S
C857 H834 0.950 . S
C857 C856 1.334 . S
C857 C858 1.287 . S
C858 C857 1.287 . S
C858 C859 1.524 . S
C858 H877 0.913 . S
C859 H835 0.950 . S
C859 C858 1.524 . S
C859 C860 1.415 . S
C860 H836 0.950 . S
C860 C855 1.363 . S
C860 C859 1.415 . S
C861 H837 0.951 . S
C861 C862 1.366 . S
C861 C863 1.388 . S
C862 C861 1.366 . S
C862 C866 1.385 . S
C863 H838 0.951 . S
C863 C861 1.388 . S
C863 C864 1.366 . S
C864 C863 1.366 . S
C864 C865 1.414 . S
C864 C867 1.499 . S
C865 H839 0.950 . S
C865 C864 1.414 . S
C865 C866 1.374 . S
C866 H840 0.950 . S
C866 C862 1.385 . S
C866 C865 1.374 . S
C867 C864 1.499 . S
C867 C868 1.373 . S
C867 C869 1.389 . S
C868 H841 0.950 . S
C868 C854 1.377 . S
C868 C867 1.373 . S
C869 C853 1.377 . S
C869 C867 1.389 . S
C869 C870 1.524 . S
C870 C869 1.524 . S
C870 C871 1.397 . S
C870 C875 1.363 . S
C871 H842 0.950 . S
C871 C870 1.397 . S
C871 C872 1.334 . S
C872 H843 0.950 . S
C872 C871 1.334 . S
C872 C873 1.287 . S
C873 C872 1.287 . S
C873 C874 1.524 . S
C873 H876 0.999 . S
C874 H844 0.950 . S
C874 C873 1.524 . S
C874 C875 1.415 . S
C875 H845 0.950 . S
C875 C870 1.363 . S
C875 C874 1.415 . S
H876 C873 0.999 . S
H877 C858 0.913 . S
H878 C896 0.951 . S
H879 C898 0.951 . S
H880 C900 0.950 . S
H881 C901 0.950 . S
H882 C903 0.950 . S
H883 C906 0.950 . S
H884 C907 0.950 . S
H885 C909 0.950 . S
H886 C910 0.950 . S
H887 C911 0.951 . S
H888 C913 0.951 . S
H889 C915 0.950 . S
H890 C916 0.950 . S
H891 C918 0.950 . S
H892 C921 0.950 . S
H893 C922 0.950 . S
H894 C924 0.950 . S
H895 C925 0.950 . S
C896 H878 0.951 . S
C896 C897 1.366 . S
C896 C898 1.388 . S
C897 C896 1.366 . S
C897 C901 1.385 . S
C898 H879 0.951 . S
C898 C896 1.388 . S
C898 C899 1.366 . S
C899 C898 1.366 . S
C899 C900 1.414 . S
C899 C902 1.499 . S
C900 H880 0.950 . S
C900 C899 1.414 . S
C900 C901 1.374 . S
C901 H881 0.950 . S
C901 C897 1.385 . S
C901 C900 1.374 . S
C902 C899 1.499 . S
C902 C903 1.373 . S
C902 C904 1.389 . S
C903 H882 0.950 . S
C903 C902 1.373 . S
C903 C919 1.377 . S
C904 C902 1.389 . S
C904 C905 1.524 . S
C904 C918 1.377 . S
C905 C904 1.524 . S
C905 C906 1.397 . S
C905 C910 1.363 . S
C906 H883 0.950 . S
C906 C905 1.397 . S
C906 C907 1.334 . S
C907 H884 0.950 . S
C907 C906 1.334 . S
C907 C908 1.287 . S
C908 C907 1.287 . S
C908 C909 1.524 . S
C908 H927 0.913 . S
C909 H885 0.950 . S
C909 C908 1.524 . S
C909 C910 1.415 . S
C910 H886 0.950 . S
C910 C905 1.363 . S
C910 C909 1.415 . S
C911 H887 0.951 . S
C911 C912 1.366 . S
C911 C913 1.388 . S
C912 C911 1.366 . S
C912 C916 1.385 . S
C913 H888 0.951 . S
C913 C911 1.388 . S
C913 C914 1.366 . S
C914 C913 1.366 . S
C914 C915 1.414 . S
C914 C917 1.499 . S
C915 H889 0.950 . S
C915 C914 1.414 . S
C915 C916 1.374 . S
C916 H890 0.950 . S
C916 C912 1.385 . S
C916 C915 1.374 . S
C917 C914 1.499 . S
C917 C918 1.373 . S
C917 C919 1.389 . S
C918 H891 0.950 . S
C918 C904 1.377 . S
C918 C917 1.373 . S
C919 C903 1.377 . S
C919 C917 1.389 . S
C919 C920 1.524 . S
C920 C919 1.524 . S
C920 C921 1.397 . S
C920 C925 1.363 . S
C921 H892 0.950 . S
C921 C920 1.397 . S
C921 C922 1.334 . S
C922 H893 0.950 . S
C922 C921 1.334 . S
C922 C923 1.287 . S
C923 C922 1.287 . S
C923 C924 1.524 . S
C923 H926 0.999 . S
C924 H894 0.950 . S
C924 C923 1.524 . S
C924 C925 1.415 . S
C925 H895 0.950 . S
C925 C920 1.363 . S
C925 C924 1.415 . S
H926 C923 0.999 . S
H927 C908 0.913 . S
H928 C946 0.951 . S
H929 C948 0.951 . S
H930 C950 0.950 . S
H931 C951 0.950 . S
H932 C953 0.950 . S
H933 C956 0.950 . S
H934 C957 0.950 . S
H935 C959 0.950 . S
H936 C960 0.950 . S
H937 C961 0.951 . S
H938 C963 0.951 . S
H939 C965 0.950 . S
H940 C966 0.950 . S
H941 C968 0.950 . S
H942 C971 0.950 . S
H943 C972 0.950 . S
H944 C974 0.950 . S
H945 C975 0.950 . S
C946 H928 0.951 . S
C946 C947 1.366 . S
C946 C948 1.388 . S
C947 C946 1.366 . S
C947 C951 1.385 . S
C948 H929 0.951 . S
C948 C946 1.388 . S
C948 C949 1.366 . S
C949 C948 1.366 . S
C949 C950 1.414 . S
C949 C952 1.499 . S
C950 H930 0.950 . S
C950 C949 1.414 . S
C950 C951 1.374 . S
C951 H931 0.950 . S
C951 C947 1.385 . S
C951 C950 1.374 . S
C952 C949 1.499 . S
C952 C953 1.373 . S
C952 C954 1.389 . S
C953 H932 0.950 . S
C953 C952 1.373 . S
C953 C969 1.377 . S
C954 C952 1.389 . S
C954 C955 1.524 . S
C954 C968 1.377 . S
C955 C954 1.524 . S
C955 C956 1.397 . S
C955 C960 1.363 . S
C956 H933 0.950 . S
C956 C955 1.397 . S
C956 C957 1.334 . S
C957 H934 0.950 . S
C957 C956 1.334 . S
C957 C958 1.287 . S
C958 C957 1.287 . S
C958 C959 1.524 . S
C958 H977 0.913 . S
C959 H935 0.950 . S
C959 C958 1.524 . S
C959 C960 1.415 . S
C960 H936 0.950 . S
C960 C955 1.363 . S
C960 C959 1.415 . S
C961 H937 0.951 . S
C961 C962 1.366 . S
C961 C963 1.388 . S
C962 C961 1.366 . S
C962 C966 1.385 . S
C963 H938 0.951 . S
C963 C961 1.388 . S
C963 C964 1.366 . S
C964 C963 1.366 . S
C964 C965 1.414 . S
C964 C967 1.499 . S
C965 H939 0.950 . S
C965 C964 1.414 . S
C965 C966 1.374 . S
C966 H940 0.950 . S
C966 C962 1.385 . S
C966 C965 1.374 . S
C967 C964 1.499 . S
C967 C968 1.373 . S
C967 C969 1.389 . S
C968 H941 0.950 . S
C968 C954 1.377 . S
C968 C967 1.373 . S
C969 C953 1.377 . S
C969 C967 1.389 . S
C969 C970 1.524 . S
C970 C969 1.524 . S
C970 C971 1.397 . S
C970 C975 1.363 . S
C971 H942 0.950 . S
C971 C970 1.397 . S
C971 C972 1.334 . S
C972 H943 0.950 . S
C972 C971 1.334 . S
C972 C973 1.287 . S
C973 C972 1.287 . S
C973 C974 1.524 . S
C973 H976 0.999 . S
C974 H944 0.950 . S
C974 C973 1.524 . S
C974 C975 1.415 . S
C975 H945 0.950 . S
C975 C970 1.363 . S
C975 C974 1.415 . S
H976 C973 0.999 . S
H977 C958 0.913 . S
H978 C996 0.951 . S
H979 C998 0.951 . S
H980 C1000 0.950 . S
H981 C1001 0.950 . S
H982 C1003 0.950 . S
H983 C1006 0.950 . S
H984 C1007 0.950 . S
H985 C1009 0.950 . S
H986 C1010 0.950 . S
H987 C1011 0.951 . S
H988 C1013 0.951 . S
H989 C1015 0.950 . S
H990 C1016 0.950 . S
H991 C1018 0.950 . S
H992 C1021 0.950 . S
H993 C1022 0.950 . S
H994 C1024 0.950 . S
H995 C1025 0.950 . S
C996 H978 0.951 . S
C996 C997 1.366 . S
C996 C998 1.388 . S
C997 C996 1.366 . S
C997 C1001 1.385 . S
C998 H979 0.951 . S
C998 C996 1.388 . S
C998 C999 1.366 . S
C999 C998 1.366 . S
C999 C1000 1.414 . S
C999 C1002 1.499 . S
C1000 H980 0.950 . S
C1000 C999 1.414 . S
C1000 C1001 1.374 . S
C1001 H981 0.950 . S
C1001 C997 1.385 . S
C1001 C1000 1.374 . S
C1002 C999 1.499 . S
C1002 C1003 1.373 . S
C1002 C1004 1.389 . S
C1003 H982 0.950 . S
C1003 C1002 1.373 . S
C1003 C1019 1.377 . S
C1004 C1002 1.389 . S
C1004 C1005 1.524 . S
C1004 C1018 1.377 . S
C1005 C1004 1.524 . S
C1005 C1006 1.397 . S
C1005 C1010 1.363 . S
C1006 H983 0.950 . S
C1006 C1005 1.397 . S
C1006 C1007 1.334 . S
C1007 H984 0.950 . S
C1007 C1006 1.334 . S
C1007 C1008 1.287 . S
C1008 C1007 1.287 . S
C1008 C1009 1.524 . S
C1008 H1027 0.913 . S
C1009 H985 0.950 . S
C1009 C1008 1.524 . S
C1009 C1010 1.415 . S
C1010 H986 0.950 . S
C1010 C1005 1.363 . S
C1010 C1009 1.415 . S
C1011 H987 0.951 . S
C1011 C1012 1.366 . S
C1011 C1013 1.388 . S
C1012 C1011 1.366 . S
C1012 C1016 1.385 . S
C1013 H988 0.951 . S
C1013 C1011 1.388 . S
C1013 C1014 1.366 . S
C1014 C1013 1.366 . S
C1014 C1015 1.414 . S
C1014 C1017 1.499 . S
C1015 H989 0.950 . S
C1015 C1014 1.414 . S
C1015 C1016 1.374 . S
C1016 H990 0.950 . S
C1016 C1012 1.385 . S
C1016 C1015 1.374 . S
C1017 C1014 1.499 . S
C1017 C1018 1.373 . S
C1017 C1019 1.389 . S
C1018 H991 0.950 . S
C1018 C1004 1.377 . S
C1018 C1017 1.373 . S
C1019 C1003 1.377 . S
C1019 C1017 1.389 . S
C1019 C1020 1.524 . S
C1020 C1019 1.524 . S
C1020 C1021 1.397 . S
C1020 C1025 1.363 . S
C1021 H992 0.950 . S
C1021 C1020 1.397 . S
C1021 C1022 1.334 . S
C1022 H993 0.950 . S
C1022 C1021 1.334 . S
C1022 C1023 1.287 . S
C1023 C1022 1.287 . S
C1023 C1024 1.524 . S
C1023 H1026 0.999 . S
C1024 H994 0.950 . S
C1024 C1023 1.524 . S
C1024 C1025 1.415 . S
C1025 H995 0.950 . S
C1025 C1020 1.363 . S
C1025 C1024 1.415 . S
H1026 C1023 0.999 . S
H1027 C1008 0.913 . S
H1028 C1046 0.951 . S
H1029 C1048 0.951 . S
H1030 C1050 0.950 . S
H1031 C1051 0.950 . S
H1032 C1053 0.950 . S
H1033 C1056 0.950 . S
H1034 C1057 0.950 . S
H1035 C1059 0.950 . S
H1036 C1060 0.950 . S
H1037 C1061 0.951 . S
H1038 C1063 0.951 . S
H1039 C1065 0.950 . S
H1040 C1066 0.950 . S
H1041 C1068 0.950 . S
H1042 C1071 0.950 . S
H1043 C1072 0.950 . S
H1044 C1074 0.950 . S
H1045 C1075 0.950 1_655 S
C1046 H1028 0.951 . S
C1046 C1047 1.366 . S
C1046 C1048 1.388 . S
C1047 C1046 1.366 . S
C1047 C1051 1.385 1_455 S
C1048 H1029 0.951 . S
C1048 C1046 1.388 . S
C1048 C1049 1.366 . S
C1049 C1048 1.366 . S
C1049 C1050 1.414 1_455 S
C1049 C1052 1.499 . S
C1050 H1030 0.950 . S
C1050 C1049 1.414 1_655 S
C1050 C1051 1.374 . S
C1051 H1031 0.950 . S
C1051 C1047 1.385 1_655 S
C1051 C1050 1.374 . S
C1052 C1049 1.499 . S
C1052 C1053 1.373 . S
C1052 C1054 1.389 . S
C1053 H1032 0.950 . S
C1053 C1052 1.373 . S
C1053 C1069 1.377 . S
C1054 C1052 1.389 . S
C1054 C1055 1.524 . S
C1054 C1068 1.377 . S
C1055 C1054 1.524 . S
C1055 C1056 1.397 . S
C1055 C1060 1.363 . S
C1056 H1033 0.950 . S
C1056 C1055 1.397 . S
C1056 C1057 1.334 . S
C1057 H1034 0.950 . S
C1057 C1056 1.334 . S
C1057 C1058 1.287 . S
C1058 C1057 1.287 . S
C1058 C1059 1.524 . S
C1058 H1077 0.913 . S
C1059 H1035 0.950 . S
C1059 C1058 1.524 . S
C1059 C1060 1.415 . S
C1060 H1036 0.950 . S
C1060 C1055 1.363 . S
C1060 C1059 1.415 . S
C1061 H1037 0.951 . S
C1061 C1062 1.366 . S
C1061 C1063 1.388 . S
C1062 C1061 1.366 . S
C1062 C1066 1.385 . S
C1063 H1038 0.951 . S
C1063 C1061 1.388 . S
C1063 C1064 1.366 . S
C1064 C1063 1.366 . S
C1064 C1065 1.414 . S
C1064 C1067 1.499 . S
C1065 H1039 0.950 . S
C1065 C1064 1.414 . S
C1065 C1066 1.374 . S
C1066 H1040 0.950 . S
C1066 C1062 1.385 . S
C1066 C1065 1.374 . S
C1067 C1064 1.499 . S
C1067 C1068 1.373 . S
C1067 C1069 1.389 . S
C1068 H1041 0.950 . S
C1068 C1054 1.377 . S
C1068 C1067 1.373 . S
C1069 C1053 1.377 . S
C1069 C1067 1.389 . S
C1069 C1070 1.524 . S
C1070 C1069 1.524 . S
C1070 C1071 1.397 . S
C1070 C1075 1.363 . S
C1071 H1042 0.950 . S
C1071 C1070 1.397 . S
C1071 C1072 1.334 . S
C1072 H1043 0.950 . S
C1072 C1071 1.334 . S
C1072 C1073 1.287 . S
C1073 C1072 1.287 . S
C1073 C1074 1.524 1_455 S
C1073 H1076 0.999 . S
C1074 H1044 0.950 . S
C1074 C1073 1.524 1_655 S
C1074 C1075 1.415 1_655 S
C1075 H1045 0.950 1_455 S
C1075 C1070 1.363 . S
C1075 C1074 1.415 1_455 S
H1076 C1073 0.999 . S
H1077 C1058 0.913 . S
H1078 C1096 0.951 . S
H1079 C1098 0.951 . S
H1080 C1100 0.950 . S
H1081 C1101 0.950 . S
H1082 C1103 0.950 . S
H1083 C1106 0.950 . S
H1084 C1107 0.950 . S
H1085 C1109 0.950 . S
H1086 C1110 0.950 1_545 S
H1087 C1111 0.951 . S
H1088 C1113 0.951 . S
H1089 C1115 0.950 . S
H1090 C1116 0.950 . S
H1091 C1118 0.950 . S
H1092 C1121 0.950 . S
H1093 C1122 0.950 . S
H1094 C1124 0.950 . S
H1095 C1125 0.950 . S
C1096 H1078 0.951 . S
C1096 C1097 1.366 . S
C1096 C1098 1.388 . S
C1097 C1096 1.366 . S
C1097 C1101 1.385 . S
C1098 H1079 0.951 . S
C1098 C1096 1.388 . S
C1098 C1099 1.366 . S
C1099 C1098 1.366 . S
C1099 C1100 1.414 . S
C1099 C1102 1.499 . S
C1100 H1080 0.950 . S
C1100 C1099 1.414 . S
C1100 C1101 1.374 . S
C1101 H1081 0.950 . S
C1101 C1097 1.385 . S
C1101 C1100 1.374 . S
C1102 C1099 1.499 . S
C1102 C1103 1.373 . S
C1102 C1104 1.389 . S
C1103 H1082 0.950 . S
C1103 C1102 1.373 . S
C1103 C1119 1.377 . S
C1104 C1102 1.389 . S
C1104 C1105 1.515 1_545 S
C1104 C1118 1.377 . S
C1105 C1104 1.515 1_565 S
C1105 C1106 1.405 . S
C1105 C1110 1.364 . S
C1106 H1083 0.950 . S
C1106 C1105 1.405 . S
C1106 C1107 1.334 . S
C1107 H1084 0.950 . S
C1107 C1106 1.334 . S
C1107 C1108 1.287 . S
C1108 C1107 1.287 . S
C1108 C1109 1.524 . S
C1108 H1127 0.913 . S
C1109 H1085 0.950 . S
C1109 C1108 1.524 . S
C1109 C1110 1.415 . S
C1110 H1086 0.950 1_565 S
C1110 C1105 1.364 . S
C1110 C1109 1.415 . S
C1111 H1087 0.951 . S
C1111 C1112 1.366 . S
C1111 C1113 1.388 . S
C1112 C1111 1.366 . S
C1112 C1116 1.385 . S
C1113 H1088 0.951 . S
C1113 C1111 1.388 . S
C1113 C1114 1.366 . S
C1114 C1113 1.366 . S
C1114 C1115 1.414 . S
C1114 C1117 1.499 . S
C1115 H1089 0.950 . S
C1115 C1114 1.414 . S
C1115 C1116 1.374 . S
C1116 H1090 0.950 . S
C1116 C1112 1.385 . S
C1116 C1115 1.374 . S
C1117 C1114 1.499 . S
C1117 C1118 1.373 . S
C1117 C1119 1.389 . S
C1118 H1091 0.950 . S
C1118 C1104 1.377 . S
C1118 C1117 1.373 . S
C1119 C1103 1.377 . S
C1119 C1117 1.389 . S
C1119 C1120 1.524 . S
C1120 C1119 1.524 . S
C1120 C1121 1.397 . S
C1120 C1125 1.363 . S
C1121 H1092 0.950 . S
C1121 C1120 1.397 . S
C1121 C1122 1.334 . S
C1122 H1093 0.950 . S
C1122 C1121 1.334 . S
C1122 C1123 1.287 . S
C1123 C1122 1.287 . S
C1123 C1124 1.524 . S
C1123 H1126 0.999 . S
C1124 H1094 0.950 . S
C1124 C1123 1.524 . S
C1124 C1125 1.415 . S
C1125 H1095 0.950 . S
C1125 C1120 1.363 . S
C1125 C1124 1.415 . S
H1126 C1123 0.999 . S
H1127 C1108 0.913 . S
H1128 C1146 0.951 . S
H1129 C1148 0.951 1_455 S
H1130 C1150 0.950 . S
H1131 C1151 0.950 . S
H1132 C1153 0.950 . S
H1133 C1156 0.950 . S
H1134 C1157 0.950 . S
H1135 C1159 0.950 . S
H1136 C1160 0.950 . S
H1137 C1161 0.951 . S
H1138 C1163 0.951 . S
H1139 C1165 0.950 . S
H1140 C1166 0.950 . S
H1141 C1168 0.950 . S
H1142 C1171 0.950 . S
H1143 C1172 0.950 . S
H1144 C1174 0.950 . S
H1145 C1175 0.950 . S
C1146 H1128 0.951 . S
C1146 C1147 1.366 1_455 S
C1146 C1148 1.388 1_455 S
C1147 C1146 1.366 1_655 S
C1147 C1151 1.385 . S
C1148 H1129 0.951 1_655 S
C1148 C1146 1.388 1_655 S
C1148 C1149 1.366 . S
C1149 C1148 1.366 . S
C1149 C1150 1.414 . S
C1149 C1152 1.499 . S
C1150 H1130 0.950 . S
C1150 C1149 1.414 . S
C1150 C1151 1.374 . S
C1151 H1131 0.950 . S
C1151 C1147 1.385 . S
C1151 C1150 1.374 . S
C1152 C1149 1.499 . S
C1152 C1153 1.373 . S
C1152 C1154 1.389 . S
C1153 H1132 0.950 . S
C1153 C1152 1.373 . S
C1153 C1169 1.377 . S
C1154 C1152 1.389 . S
C1154 C1155 1.524 . S
C1154 C1168 1.377 . S
C1155 C1154 1.524 . S
C1155 C1156 1.397 . S
C1155 C1160 1.363 . S
C1156 H1133 0.950 . S
C1156 C1155 1.397 . S
C1156 C1157 1.334 . S
C1157 H1134 0.950 . S
C1157 C1156 1.334 . S
C1157 C1158 1.287 . S
C1158 C1157 1.287 . S
C1158 C1159 1.524 . S
C1158 H1177 0.913 . S
C1159 H1135 0.950 . S
C1159 C1158 1.524 . S
C1159 C1160 1.415 . S
C1160 H1136 0.950 . S
C1160 C1155 1.363 . S
C1160 C1159 1.415 . S
C1161 H1137 0.951 . S
C1161 C1162 1.366 . S
C1161 C1163 1.388 . S
C1162 C1161 1.366 . S
C1162 C1166 1.385 . S
C1163 H1138 0.951 . S
C1163 C1161 1.388 . S
C1163 C1164 1.366 . S
C1164 C1163 1.366 . S
C1164 C1165 1.414 . S
C1164 C1167 1.499 . S
C1165 H1139 0.950 . S
C1165 C1164 1.414 . S
C1165 C1166 1.374 . S
C1166 H1140 0.950 . S
C1166 C1162 1.385 . S
C1166 C1165 1.374 . S
C1167 C1164 1.499 . S
C1167 C1168 1.373 . S
C1167 C1169 1.389 . S
C1168 H1141 0.950 . S
C1168 C1154 1.377 . S
C1168 C1167 1.373 . S
C1169 C1153 1.377 . S
C1169 C1167 1.389 . S
C1169 C1170 1.524 . S
C1170 C1169 1.524 . S
C1170 C1171 1.397 . S
C1170 C1175 1.363 . S
C1171 H1142 0.950 . S
C1171 C1170 1.397 . S
C1171 C1172 1.334 . S
C1172 H1143 0.950 . S
C1172 C1171 1.334 . S
C1172 C1173 1.287 . S
C1173 C1172 1.287 . S
C1173 C1174 1.524 . S
C1173 H1176 0.999 . S
C1174 H1144 0.950 . S
C1174 C1173 1.524 . S
C1174 C1175 1.415 . S
C1175 H1145 0.950 . S
C1175 C1170 1.363 . S
C1175 C1174 1.415 . S
H1176 C1173 0.999 . S
H1177 C1158 0.913 . S
H1178 C1196 0.951 . S
H1179 C1198 0.951 . S
H1180 C1200 0.950 . S
H1181 C1201 0.950 . S
H1182 C1203 0.950 . S
H1183 C1206 0.950 . S
H1184 C1207 0.950 . S
H1185 C1209 0.950 . S
H1186 C1210 0.950 . S
H1187 C1211 0.951 . S
H1188 C1213 0.951 . S
H1189 C1215 0.950 . S
H1190 C1216 0.950 . S
H1191 C1218 0.950 . S
H1192 C1221 0.950 . S
H1193 C1222 0.950 . S
H1194 C1224 0.950 1_545 S
H1195 C1225 0.950 1_545 S
C1196 H1178 0.951 . S
C1196 C1197 1.366 . S
C1196 C1198 1.388 . S
C1197 C1196 1.366 . S
C1197 C1201 1.385 1_565 S
C1198 H1179 0.951 . S
C1198 C1196 1.388 . S
C1198 C1199 1.366 . S
C1199 C1198 1.366 . S
C1199 C1200 1.414 1_565 S
C1199 C1202 1.499 . S
C1200 H1180 0.950 . S
C1200 C1199 1.414 1_545 S
C1200 C1201 1.374 . S
C1201 H1181 0.950 . S
C1201 C1197 1.385 1_545 S
C1201 C1200 1.374 . S
C1202 C1199 1.499 . S
C1202 C1203 1.373 . S
C1202 C1204 1.389 . S
C1203 H1182 0.950 . S
C1203 C1202 1.373 . S
C1203 C1219 1.377 . S
C1204 C1202 1.389 . S
C1204 C1205 1.524 . S
C1204 C1218 1.377 . S
C1205 C1204 1.524 . S
C1205 C1206 1.397 . S
C1205 C1210 1.363 . S
C1206 H1183 0.950 . S
C1206 C1205 1.397 . S
C1206 C1207 1.334 . S
C1207 H1184 0.950 . S
C1207 C1206 1.334 . S
C1207 C1208 1.287 . S
C1208 C1207 1.287 . S
C1208 C1209 1.524 . S
C1208 H1227 0.913 . S
C1209 H1185 0.950 . S
C1209 C1208 1.524 . S
C1209 C1210 1.415 . S
C1210 H1186 0.950 . S
C1210 C1205 1.363 . S
C1210 C1209 1.415 . S
C1211 H1187 0.951 . S
C1211 C1212 1.366 . S
C1211 C1213 1.388 . S
C1212 C1211 1.366 . S
C1212 C1216 1.385 . S
C1213 H1188 0.951 . S
C1213 C1211 1.388 . S
C1213 C1214 1.366 . S
C1214 C1213 1.366 . S
C1214 C1215 1.414 . S
C1214 C1217 1.499 . S
C1215 H1189 0.950 . S
C1215 C1214 1.414 . S
C1215 C1216 1.374 . S
C1216 H1190 0.950 . S
C1216 C1212 1.385 . S
C1216 C1215 1.374 . S
C1217 C1214 1.499 . S
C1217 C1218 1.373 . S
C1217 C1219 1.389 . S
C1218 H1191 0.950 . S
C1218 C1204 1.377 . S
C1218 C1217 1.373 . S
C1219 C1203 1.377 . S
C1219 C1217 1.389 . S
C1219 C1220 1.524 . S
C1220 C1219 1.524 . S
C1220 C1221 1.397 . S
C1220 C1225 1.363 . S
C1221 H1192 0.950 . S
C1221 C1220 1.397 . S
C1221 C1222 1.334 . S
C1222 H1193 0.950 . S
C1222 C1221 1.334 . S
C1222 C1223 1.287 . S
C1223 C1222 1.287 . S
C1223 C1224 1.524 . S
C1223 H1226 0.999 . S
C1224 H1194 0.950 1_565 S
C1224 C1223 1.524 . S
C1224 C1225 1.415 . S
C1225 H1195 0.950 1_565 S
C1225 C1220 1.363 . S
C1225 C1224 1.415 . S
H1226 C1223 0.999 . S
H1227 C1208 0.913 . S
H1228 C1246 0.951 . S
H1229 C1248 0.951 . S
H1230 C1250 0.950 . S
H1231 C1251 0.950 . S
H1232 C1253 0.950 . S
H1233 C1256 0.950 . S
H1234 C1257 0.950 . S
H1235 C1259 0.950 . S
H1236 C1260 0.950 . S
H1237 C1261 0.951 . S
H1238 C1263 0.951 . S
H1239 C1265 0.950 . S
H1240 C1266 0.950 . S
H1241 C1268 0.950 . S
H1242 C1271 0.950 . S
H1243 C1272 0.950 . S
H1244 C1274 0.950 . S
H1245 C1275 0.950 . S
C1246 H1228 0.951 . S
C1246 C1247 1.366 . S
C1246 C1248 1.388 . S
C1247 C1246 1.366 . S
C1247 C1251 1.385 . S
C1248 H1229 0.951 . S
C1248 C1246 1.388 . S
C1248 C1249 1.366 . S
C1249 C1248 1.366 . S
C1249 C1250 1.414 . S
C1249 C1252 1.499 . S
C1250 H1230 0.950 . S
C1250 C1249 1.414 . S
C1250 C1251 1.374 . S
C1251 H1231 0.950 . S
C1251 C1247 1.385 . S
C1251 C1250 1.374 . S
C1252 C1249 1.499 . S
C1252 C1253 1.373 . S
C1252 C1254 1.389 . S
C1253 H1232 0.950 . S
C1253 C1252 1.373 . S
C1253 C1269 1.377 . S
C1254 C1252 1.389 . S
C1254 C1255 1.524 . S
C1254 C1268 1.377 . S
C1255 C1254 1.524 . S
C1255 C1256 1.397 . S
C1255 C1260 1.363 . S
C1256 H1233 0.950 . S
C1256 C1255 1.397 . S
C1256 C1257 1.334 . S
C1257 H1234 0.950 . S
C1257 C1256 1.334 . S
C1257 C1258 1.287 . S
C1258 C1257 1.287 . S
C1258 C1259 1.524 . S
C1258 H1277 0.913 . S
C1259 H1235 0.950 . S
C1259 C1258 1.524 . S
C1259 C1260 1.415 . S
C1260 H1236 0.950 . S
C1260 C1255 1.363 . S
C1260 C1259 1.415 . S
C1261 H1237 0.951 . S
C1261 C1262 1.366 . S
C1261 C1263 1.388 . S
C1262 C1261 1.366 . S
C1262 C1266 1.385 . S
C1263 H1238 0.951 . S
C1263 C1261 1.388 . S
C1263 C1264 1.366 . S
C1264 C1263 1.366 . S
C1264 C1265 1.414 . S
C1264 C1267 1.499 . S
C1265 H1239 0.950 . S
C1265 C1264 1.414 . S
C1265 C1266 1.374 . S
C1266 H1240 0.950 . S
C1266 C1262 1.385 . S
C1266 C1265 1.374 . S
C1267 C1264 1.499 . S
C1267 C1268 1.373 . S
C1267 C1269 1.389 . S
C1268 H1241 0.950 . S
C1268 C1254 1.377 . S
C1268 C1267 1.373 . S
C1269 C1253 1.377 . S
C1269 C1267 1.389 . S
C1269 C1270 1.524 . S
C1270 C1269 1.524 . S
C1270 C1271 1.397 . S
C1270 C1275 1.363 . S
C1271 H1242 0.950 . S
C1271 C1270 1.397 . S
C1271 C1272 1.334 . S
C1272 H1243 0.950 . S
C1272 C1271 1.334 . S
C1272 C1273 1.287 . S
C1273 C1272 1.287 . S
C1273 C1274 1.524 . S
C1273 H1276 0.999 . S
C1274 H1244 0.950 . S
C1274 C1273 1.524 . S
C1274 C1275 1.415 . S
C1275 H1245 0.950 . S
C1275 C1270 1.363 . S
C1275 C1274 1.415 . S
H1276 C1273 0.999 . S
H1277 C1258 0.913 . S
H1278 C1296 0.951 . S
H1279 C1298 0.951 . S
H1280 C1300 0.950 . S
H1281 C1301 0.950 . S
H1282 C1303 0.950 . S
H1283 C1306 0.950 . S
H1284 C1307 0.950 . S
H1285 C1309 0.950 . S
H1286 C1310 0.950 . S
H1287 C1311 0.951 . S
H1288 C1313 0.951 . S
H1289 C1315 0.950 . S
H1290 C1316 0.950 . S
H1291 C1318 0.950 . S
H1292 C1321 0.950 . S
H1293 C1322 0.950 . S
H1294 C1324 0.950 . S
H1295 C1325 0.950 . S
C1296 H1278 0.951 . S
C1296 C1297 1.366 . S
C1296 C1298 1.388 . S
C1297 C1296 1.366 . S
C1297 C1301 1.385 . S
C1298 H1279 0.951 . S
C1298 C1296 1.388 . S
C1298 C1299 1.366 . S
C1299 C1298 1.366 . S
C1299 C1300 1.414 . S
C1299 C1302 1.499 . S
C1300 H1280 0.950 . S
C1300 C1299 1.414 . S
C1300 C1301 1.374 . S
C1301 H1281 0.950 . S
C1301 C1297 1.385 . S
C1301 C1300 1.374 . S
C1302 C1299 1.499 . S
C1302 C1303 1.373 . S
C1302 C1304 1.389 . S
C1303 H1282 0.950 . S
C1303 C1302 1.373 . S
C1303 C1319 1.377 . S
C1304 C1302 1.389 . S
C1304 C1305 1.524 . S
C1304 C1318 1.377 . S
C1305 C1304 1.524 . S
C1305 C1306 1.397 . S
C1305 C1310 1.363 . S
C1306 H1283 0.950 . S
C1306 C1305 1.397 . S
C1306 C1307 1.334 . S
C1307 H1284 0.950 . S
C1307 C1306 1.334 . S
C1307 C1308 1.287 . S
C1308 C1307 1.287 . S
C1308 C1309 1.524 . S
C1308 H1327 0.913 . S
C1309 H1285 0.950 . S
C1309 C1308 1.524 . S
C1309 C1310 1.415 . S
C1310 H1286 0.950 . S
C1310 C1305 1.363 . S
C1310 C1309 1.415 . S
C1311 H1287 0.951 . S
C1311 C1312 1.366 . S
C1311 C1313 1.388 . S
C1312 C1311 1.366 . S
C1312 C1316 1.385 . S
C1313 H1288 0.951 . S
C1313 C1311 1.388 . S
C1313 C1314 1.366 . S
C1314 C1313 1.366 . S
C1314 C1315 1.414 . S
C1314 C1317 1.499 . S
C1315 H1289 0.950 . S
C1315 C1314 1.414 . S
C1315 C1316 1.374 . S
C1316 H1290 0.950 . S
C1316 C1312 1.385 . S
C1316 C1315 1.374 . S
C1317 C1314 1.499 . S
C1317 C1318 1.373 . S
C1317 C1319 1.389 . S
C1318 H1291 0.950 . S
C1318 C1304 1.377 . S
C1318 C1317 1.373 . S
C1319 C1303 1.377 . S
C1319 C1317 1.389 . S
C1319 C1320 1.524 . S
C1320 C1319 1.524 . S
C1320 C1321 1.397 . S
C1320 C1325 1.363 . S
C1321 H1292 0.950 . S
C1321 C1320 1.397 . S
C1321 C1322 1.334 . S
C1322 H1293 0.950 . S
C1322 C1321 1.334 . S
C1322 C1323 1.287 . S
C1323 C1322 1.287 . S
C1323 C1324 1.524 . S
C1323 H1326 0.999 . S
C1324 H1294 0.950 . S
C1324 C1323 1.524 . S
C1324 C1325 1.415 . S
C1325 H1295 0.950 . S
C1325 C1320 1.363 . S
C1325 C1324 1.415 . S
H1326 C1323 0.999 . S
H1327 C1308 0.913 . S
H1328 C1346 0.951 . S
H1329 C1348 0.951 . S
H1330 C1350 0.950 . S
H1331 C1351 0.950 . S
H1332 C1353 0.950 . S
H1333 C1356 0.950 . S
H1334 C1357 0.950 . S
H1335 C1359 0.950 . S
H1336 C1360 0.950 . S
H1337 C1361 0.951 . S
H1338 C1363 0.951 . S
H1339 C1365 0.950 . S
H1340 C1366 0.950 . S
H1341 C1368 0.950 . S
H1342 C1371 0.950 . S
H1343 C1372 0.950 . S
H1344 C1374 0.950 . S
H1345 C1375 0.950 . S
C1346 H1328 0.951 . S
C1346 C1347 1.366 . S
C1346 C1348 1.388 . S
C1347 C1346 1.366 . S
C1347 C1351 1.385 . S
C1348 H1329 0.951 . S
C1348 C1346 1.388 . S
C1348 C1349 1.366 . S
C1349 C1348 1.366 . S
C1349 C1350 1.414 . S
C1349 C1352 1.499 . S
C1350 H1330 0.950 . S
C1350 C1349 1.414 . S
C1350 C1351 1.374 . S
C1351 H1331 0.950 . S
C1351 C1347 1.385 . S
C1351 C1350 1.374 . S
C1352 C1349 1.499 . S
C1352 C1353 1.373 . S
C1352 C1354 1.389 . S
C1353 H1332 0.950 . S
C1353 C1352 1.373 . S
C1353 C1369 1.377 . S
C1354 C1352 1.389 . S
C1354 C1355 1.524 . S
C1354 C1368 1.377 . S
C1355 C1354 1.524 . S
C1355 C1356 1.397 . S
C1355 C1360 1.363 . S
C1356 H1333 0.950 . S
C1356 C1355 1.397 . S
C1356 C1357 1.334 . S
C1357 H1334 0.950 . S
C1357 C1356 1.334 . S
C1357 C1358 1.287 . S
C1358 C1357 1.287 . S
C1358 C1359 1.524 . S
C1358 H1377 0.913 . S
C1359 H1335 0.950 . S
C1359 C1358 1.524 . S
C1359 C1360 1.415 . S
C1360 H1336 0.950 . S
C1360 C1355 1.363 . S
C1360 C1359 1.415 . S
C1361 H1337 0.951 . S
C1361 C1362 1.366 . S
C1361 C1363 1.388 . S
C1362 C1361 1.366 . S
C1362 C1366 1.385 . S
C1363 H1338 0.951 . S
C1363 C1361 1.388 . S
C1363 C1364 1.366 . S
C1364 C1363 1.366 . S
C1364 C1365 1.414 . S
C1364 C1367 1.499 . S
C1365 H1339 0.950 . S
C1365 C1364 1.414 . S
C1365 C1366 1.374 . S
C1366 H1340 0.950 . S
C1366 C1362 1.385 . S
C1366 C1365 1.374 . S
C1367 C1364 1.499 . S
C1367 C1368 1.373 . S
C1367 C1369 1.389 . S
C1368 H1341 0.950 . S
C1368 C1354 1.377 . S
C1368 C1367 1.373 . S
C1369 C1353 1.377 . S
C1369 C1367 1.389 . S
C1369 C1370 1.524 . S
C1370 C1369 1.524 . S
C1370 C1371 1.397 . S
C1370 C1375 1.363 . S
C1371 H1342 0.950 . S
C1371 C1370 1.397 . S
C1371 C1372 1.334 . S
C1372 H1343 0.950 . S
C1372 C1371 1.334 . S
C1372 C1373 1.287 . S
C1373 C1372 1.287 . S
C1373 C1374 1.524 . S
C1373 H1376 0.999 . S
C1374 H1344 0.950 . S
C1374 C1373 1.524 . S
C1374 C1375 1.415 . S
C1375 H1345 0.950 . S
C1375 C1370 1.363 . S
C1375 C1374 1.415 . S
H1376 C1373 0.999 . S
H1377 C1358 0.913 . S
H1378 C1396 0.951 . S
H1379 C1398 0.951 . S
H1380 C1400 0.950 . S
H1381 C1401 0.950 . S
H1382 C1403 0.950 . S
H1383 C1406 0.950 . S
H1384 C1407 0.950 . S
H1385 C1409 0.950 . S
H1386 C1410 0.950 . S
H1387 C1411 0.951 . S
H1388 C1413 0.951 . S
H1389 C1415 0.950 . S
H1390 C1416 0.950 . S
H1391 C1418 0.950 . S
H1392 C1421 0.950 . S
H1393 C1422 0.950 . S
H1394 C1424 0.950 . S
H1395 C1425 0.950 . S
C1396 H1378 0.951 . S
C1396 C1397 1.366 . S
C1396 C1398 1.388 . S
C1397 C1396 1.366 . S
C1397 C1401 1.385 . S
C1398 H1379 0.951 . S
C1398 C1396 1.388 . S
C1398 C1399 1.366 . S
C1399 C1398 1.366 . S
C1399 C1400 1.414 . S
C1399 C1402 1.499 . S
C1400 H1380 0.950 . S
C1400 C1399 1.414 . S
C1400 C1401 1.374 . S
C1401 H1381 0.950 . S
C1401 C1397 1.385 . S
C1401 C1400 1.374 . S
C1402 C1399 1.499 . S
C1402 C1403 1.373 . S
C1402 C1404 1.389 . S
C1403 H1382 0.950 . S
C1403 C1402 1.373 . S
C1403 C1419 1.377 . S
C1404 C1402 1.389 . S
C1404 C1405 1.524 . S
C1404 C1418 1.377 . S
C1405 C1404 1.524 . S
C1405 C1406 1.397 . S
C1405 C1410 1.363 . S
C1406 H1383 0.950 . S
C1406 C1405 1.397 . S
C1406 C1407 1.334 . S
C1407 H1384 0.950 . S
C1407 C1406 1.334 . S
C1407 C1408 1.287 . S
C1408 C1407 1.287 . S
C1408 C1409 1.524 . S
C1408 H1427 0.913 . S
C1409 H1385 0.950 . S
C1409 C1408 1.524 . S
C1409 C1410 1.415 . S
C1410 H1386 0.950 . S
C1410 C1405 1.363 . S
C1410 C1409 1.415 . S
C1411 H1387 0.951 . S
C1411 C1412 1.366 . S
C1411 C1413 1.388 . S
C1412 C1411 1.366 . S
C1412 C1416 1.385 . S
C1413 H1388 0.951 . S
C1413 C1411 1.388 . S
C1413 C1414 1.366 . S
C1414 C1413 1.366 . S
C1414 C1415 1.414 . S
C1414 C1417 1.499 . S
C1415 H1389 0.950 . S
C1415 C1414 1.414 . S
C1415 C1416 1.374 . S
C1416 H1390 0.950 . S
C1416 C1412 1.385 . S
C1416 C1415 1.374 . S
C1417 C1414 1.499 . S
C1417 C1418 1.373 . S
C1417 C1419 1.389 . S
C1418 H1391 0.950 . S
C1418 C1404 1.377 . S
C1418 C1417 1.373 . S
C1419 C1403 1.377 . S
C1419 C1417 1.389 . S
C1419 C1420 1.524 . S
C1420 C1419 1.524 . S
C1420 C1421 1.397 . S
C1420 C1425 1.363 . S
C1421 H1392 0.950 . S
C1421 C1420 1.397 . S
C1421 C1422 1.334 . S
C1422 H1393 0.950 . S
C1422 C1421 1.334 . S
C1422 C1423 1.287 . S
C1423 C1422 1.287 . S
C1423 C1424 1.524 . S
C1423 H1426 0.999 . S
C1424 H1394 0.950 . S
C1424 C1423 1.524 . S
C1424 C1425 1.415 . S
C1425 H1395 0.950 . S
C1425 C1420 1.363 . S
C1425 C1424 1.415 . S
H1426 C1423 0.999 . S
H1427 C1408 0.913 . S
H1428 C1446 0.951 . S
H1429 C1448 0.951 . S
H1430 C1450 0.950 . S
H1431 C1451 0.950 . S
H1432 C1453 0.950 . S
H1433 C1456 0.950 . S
H1434 C1457 0.950 . S
H1435 C1459 0.950 . S
H1436 C1460 0.950 . S
H1437 C1461 0.951 . S
H1438 C1463 0.951 . S
H1439 C1465 0.950 . S
H1440 C1466 0.950 . S
H1441 C1468 0.950 . S
H1442 C1471 0.950 . S
H1443 C1472 0.950 . S
H1444 C1474 0.950 . S
H1445 C1475 0.950 . S
C1446 H1428 0.951 . S
C1446 C1447 1.366 . S
C1446 C1448 1.388 . S
C1447 C1446 1.366 . S
C1447 C1451 1.385 . S
C1448 H1429 0.951 . S
C1448 C1446 1.388 . S
C1448 C1449 1.366 . S
C1449 C1448 1.366 . S
C1449 C1450 1.414 . S
C1449 C1452 1.499 . S
C1450 H1430 0.950 . S
C1450 C1449 1.414 . S
C1450 C1451 1.374 . S
C1451 H1431 0.950 . S
C1451 C1447 1.385 . S
C1451 C1450 1.374 . S
C1452 C1449 1.499 . S
C1452 C1453 1.373 . S
C1452 C1454 1.389 . S
C1453 H1432 0.950 . S
C1453 C1452 1.373 . S
C1453 C1469 1.377 . S
C1454 C1452 1.389 . S
C1454 C1455 1.524 . S
C1454 C1468 1.377 . S
C1455 C1454 1.524 . S
C1455 C1456 1.397 . S
C1455 C1460 1.363 . S
C1456 H1433 0.950 . S
C1456 C1455 1.397 . S
C1456 C1457 1.334 . S
C1457 H1434 0.950 . S
C1457 C1456 1.334 . S
C1457 C1458 1.287 . S
C1458 C1457 1.287 . S
C1458 C1459 1.524 . S
C1458 H1477 0.913 . S
C1459 H1435 0.950 . S
C1459 C1458 1.524 . S
C1459 C1460 1.415 . S
C1460 H1436 0.950 . S
C1460 C1455 1.363 . S
C1460 C1459 1.415 . S
C1461 H1437 0.951 . S
C1461 C1462 1.366 . S
C1461 C1463 1.388 . S
C1462 C1461 1.366 . S
C1462 C1466 1.385 . S
C1463 H1438 0.951 . S
C1463 C1461 1.388 . S
C1463 C1464 1.366 . S
C1464 C1463 1.366 . S
C1464 C1465 1.414 . S
C1464 C1467 1.499 . S
C1465 H1439 0.950 . S
C1465 C1464 1.414 . S
C1465 C1466 1.374 . S
C1466 H1440 0.950 . S
C1466 C1462 1.385 . S
C1466 C1465 1.374 . S
C1467 C1464 1.499 . S
C1467 C1468 1.373 . S
C1467 C1469 1.389 . S
C1468 H1441 0.950 . S
C1468 C1454 1.377 . S
C1468 C1467 1.373 . S
C1469 C1453 1.377 . S
C1469 C1467 1.389 . S
C1469 C1470 1.524 . S
C1470 C1469 1.524 . S
C1470 C1471 1.397 . S
C1470 C1475 1.363 . S
C1471 H1442 0.950 . S
C1471 C1470 1.397 . S
C1471 C1472 1.334 . S
C1472 H1443 0.950 . S
C1472 C1471 1.334 . S
C1472 C1473 1.287 . S
C1473 C1472 1.287 . S
C1473 C1474 1.524 . S
C1473 H1476 0.999 . S
C1474 H1444 0.950 . S
C1474 C1473 1.524 . S
C1474 C1475 1.415 . S
C1475 H1445 0.950 . S
C1475 C1470 1.363 . S
C1475 C1474 1.415 . S
H1476 C1473 0.999 . S
H1477 C1458 0.913 . S
H1478 C1496 0.951 . S
H1479 C1498 0.951 . S
H1480 C1500 0.950 . S
H1481 C1501 0.950 . S
H1482 C1503 0.950 . S
H1483 C1506 0.950 . S
H1484 C1507 0.950 . S
H1485 C1509 0.950 . S
H1486 C1510 0.950 . S
H1487 C1511 0.951 . S
H1488 C1513 0.951 . S
H1489 C1515 0.950 . S
H1490 C1516 0.950 . S
H1491 C1518 0.950 . S
H1492 C1521 0.950 . S
H1493 C1522 0.950 . S
H1494 C1524 0.950 . S
H1495 C1525 0.950 . S
C1496 H1478 0.951 . S
C1496 C1497 1.366 . S
C1496 C1498 1.388 . S
C1497 C1496 1.366 . S
C1497 C1501 1.385 . S
C1498 H1479 0.951 . S
C1498 C1496 1.388 . S
C1498 C1499 1.366 . S
C1499 C1498 1.366 . S
C1499 C1500 1.414 . S
C1499 C1502 1.499 . S
C1500 H1480 0.950 . S
C1500 C1499 1.414 . S
C1500 C1501 1.374 . S
C1501 H1481 0.950 . S
C1501 C1497 1.385 . S
C1501 C1500 1.374 . S
C1502 C1499 1.499 . S
C1502 C1503 1.373 . S
C1502 C1504 1.389 . S
C1503 H1482 0.950 . S
C1503 C1502 1.373 . S
C1503 C1519 1.377 . S
C1504 C1502 1.389 . S
C1504 C1505 1.524 . S
C1504 C1518 1.377 . S
C1505 C1504 1.524 . S
C1505 C1506 1.397 . S
C1505 C1510 1.363 . S
C1506 H1483 0.950 . S
C1506 C1505 1.397 . S
C1506 C1507 1.334 . S
C1507 H1484 0.950 . S
C1507 C1506 1.334 . S
C1507 C1508 1.287 . S
C1508 C1507 1.287 . S
C1508 C1509 1.524 . S
C1508 H1527 0.913 . S
C1509 H1485 0.950 . S
C1509 C1508 1.524 . S
C1509 C1510 1.415 . S
C1510 H1486 0.950 . S
C1510 C1505 1.363 . S
C1510 C1509 1.415 . S
C1511 H1487 0.951 . S
C1511 C1512 1.366 . S
C1511 C1513 1.388 . S
C1512 C1511 1.366 . S
C1512 C1516 1.385 . S
C1513 H1488 0.951 . S
C1513 C1511 1.388 . S
C1513 C1514 1.366 . S
C1514 C1513 1.366 . S
C1514 C1515 1.414 . S
C1514 C1517 1.499 . S
C1515 H1489 0.950 . S
C1515 C1514 1.414 . S
C1515 C1516 1.374 . S
C1516 H1490 0.950 . S
C1516 C1512 1.385 . S
C1516 C1515 1.374 . S
C1517 C1514 1.499 . S
C1517 C1518 1.373 . S
C1517 C1519 1.389 . S
C1518 H1491 0.950 . S
C1518 C1504 1.377 . S
C1518 C1517 1.373 . S
C1519 C1503 1.377 . S
C1519 C1517 1.389 . S
C1519 C1520 1.524 . S
C1520 C1519 1.524 . S
C1520 C1521 1.397 . S
C1520 C1525 1.363 . S
C1521 H1492 0.950 . S
C1521 C1520 1.397 . S
C1521 C1522 1.334 . S
C1522 H1493 0.950 . S
C1522 C1521 1.334 . S
C1522 C1523 1.287 . S
C1523 C1522 1.287 . S
C1523 C1524 1.524 . S
C1523 H1526 0.999 . S
C1524 H1494 0.950 . S
C1524 C1523 1.524 . S
C1524 C1525 1.415 . S
C1525 H1495 0.950 . S
C1525 C1520 1.363 . S
C1525 C1524 1.415 . S
H1526 C1523 0.999 . S
H1527 C1508 0.913 . S
H1528 C1546 0.951 . S
H1529 C1548 0.951 . S
H1530 C1550 0.950 . S
H1531 C1551 0.950 . S
H1532 C1553 0.950 . S
H1533 C1556 0.950 . S
H1534 C1557 0.950 . S
H1535 C1559 0.950 . S
H1536 C1560 0.950 . S
H1537 C1561 0.951 . S
H1538 C1563 0.951 . S
H1539 C1565 0.950 . S
H1540 C1566 0.950 . S
H1541 C1568 0.950 . S
H1542 C1571 0.950 . S
H1543 C1572 0.950 . S
H1544 C1574 0.950 . S
H1545 C1575 0.950 . S
C1546 H1528 0.951 . S
C1546 C1547 1.366 . S
C1546 C1548 1.388 . S
C1547 C1546 1.366 . S
C1547 C1551 1.385 . S
C1548 H1529 0.951 . S
C1548 C1546 1.388 . S
C1548 C1549 1.366 . S
C1549 C1548 1.366 . S
C1549 C1550 1.414 . S
C1549 C1552 1.499 . S
C1550 H1530 0.950 . S
C1550 C1549 1.414 . S
C1550 C1551 1.374 . S
C1551 H1531 0.950 . S
C1551 C1547 1.385 . S
C1551 C1550 1.374 . S
C1552 C1549 1.499 . S
C1552 C1553 1.373 . S
C1552 C1554 1.389 . S
C1553 H1532 0.950 . S
C1553 C1552 1.373 . S
C1553 C1569 1.377 . S
C1554 C1552 1.389 . S
C1554 C1555 1.524 . S
C1554 C1568 1.377 . S
C1555 C1554 1.524 . S
C1555 C1556 1.397 . S
C1555 C1560 1.363 . S
C1556 H1533 0.950 . S
C1556 C1555 1.397 . S
C1556 C1557 1.334 . S
C1557 H1534 0.950 . S
C1557 C1556 1.334 . S
C1557 C1558 1.287 . S
C1558 C1557 1.287 . S
C1558 C1559 1.524 . S
C1558 H1577 0.913 . S
C1559 H1535 0.950 . S
C1559 C1558 1.524 . S
C1559 C1560 1.415 . S
C1560 H1536 0.950 . S
C1560 C1555 1.363 . S
C1560 C1559 1.415 . S
C1561 H1537 0.951 . S
C1561 C1562 1.366 . S
C1561 C1563 1.388 . S
C1562 C1561 1.366 . S
C1562 C1566 1.385 . S
C1563 H1538 0.951 . S
C1563 C1561 1.388 . S
C1563 C1564 1.366 . S
C1564 C1563 1.366 . S
C1564 C1565 1.414 . S
C1564 C1567 1.499 . S
C1565 H1539 0.950 . S
C1565 C1564 1.414 . S
C1565 C1566 1.374 . S
C1566 H1540 0.950 . S
C1566 C1562 1.385 . S
C1566 C1565 1.374 . S
C1567 C1564 1.499 . S
C1567 C1568 1.373 . S
C1567 C1569 1.389 . S
C1568 H1541 0.950 . S
C1568 C1554 1.377 . S
C1568 C1567 1.373 . S
C1569 C1553 1.377 . S
C1569 C1567 1.389 . S
C1569 C1570 1.524 . S
C1570 C1569 1.524 . S
C1570 C1571 1.397 . S
C1570 C1575 1.363 . S
C1571 H1542 0.950 . S
C1571 C1570 1.397 . S
C1571 C1572 1.334 . S
C1572 H1543 0.950 . S
C1572 C1571 1.334 . S
C1572 C1573 1.287 . S
C1573 C1572 1.287 . S
C1573 C1574 1.524 . S
C1573 H1576 0.999 . S
C1574 H1544 0.950 . S
C1574 C1573 1.524 . S
C1574 C1575 1.415 . S
C1575 H1545 0.950 . S
C1575 C1570 1.363 . S
C1575 C1574 1.415 . S
H1576 C1573 0.999 . S
H1577 C1558 0.913 . S
H1578 C1596 0.951 . S
H1579 C1598 0.951 . S
H1580 C1600 0.950 . S
H1581 C1601 0.950 . S
H1582 C1603 0.950 . S
H1583 C1606 0.950 . S
H1584 C1607 0.950 . S
H1585 C1609 0.950 . S
H1586 C1610 0.950 . S
H1587 C1611 0.951 . S
H1588 C1613 0.951 . S
H1589 C1615 0.950 . S
H1590 C1616 0.950 . S
H1591 C1618 0.950 . S
H1592 C1621 0.950 . S
H1593 C1622 0.950 . S
H1594 C1624 0.950 . S
H1595 C1625 0.950 . S
C1596 H1578 0.951 . S
C1596 C1597 1.366 . S
C1596 C1598 1.388 . S
C1597 C1596 1.366 . S
C1597 C1601 1.385 . S
C1598 H1579 0.951 . S
C1598 C1596 1.388 . S
C1598 C1599 1.366 . S
C1599 C1598 1.366 . S
C1599 C1600 1.414 . S
C1599 C1602 1.499 . S
C1600 H1580 0.950 . S
C1600 C1599 1.414 . S
C1600 C1601 1.374 . S
C1601 H1581 0.950 . S
C1601 C1597 1.385 . S
C1601 C1600 1.374 . S
C1602 C1599 1.499 . S
C1602 C1603 1.373 . S
C1602 C1604 1.389 . S
C1603 H1582 0.950 . S
C1603 C1602 1.373 . S
C1603 C1619 1.377 . S
C1604 C1602 1.389 . S
C1604 C1605 1.524 . S
C1604 C1618 1.377 . S
C1605 C1604 1.524 . S
C1605 C1606 1.397 . S
C1605 C1610 1.363 . S
C1606 H1583 0.950 . S
C1606 C1605 1.397 . S
C1606 C1607 1.334 . S
C1607 H1584 0.950 . S
C1607 C1606 1.334 . S
C1607 C1608 1.287 . S
C1608 C1607 1.287 . S
C1608 C1609 1.524 . S
C1608 H1627 0.913 . S
C1609 H1585 0.950 . S
C1609 C1608 1.524 . S
C1609 C1610 1.415 . S
C1610 H1586 0.950 . S
C1610 C1605 1.363 . S
C1610 C1609 1.415 . S
C1611 H1587 0.951 . S
C1611 C1612 1.366 . S
C1611 C1613 1.388 . S
C1612 C1611 1.366 . S
C1612 C1616 1.385 . S
C1613 H1588 0.951 . S
C1613 C1611 1.388 . S
C1613 C1614 1.366 . S
C1614 C1613 1.366 . S
C1614 C1615 1.414 . S
C1614 C1617 1.499 . S
C1615 H1589 0.950 . S
C1615 C1614 1.414 . S
C1615 C1616 1.374 . S
C1616 H1590 0.950 . S
C1616 C1612 1.385 . S
C1616 C1615 1.374 . S
C1617 C1614 1.499 . S
C1617 C1618 1.373 . S
C1617 C1619 1.389 . S
C1618 H1591 0.950 . S
C1618 C1604 1.377 . S
C1618 C1617 1.373 . S
C1619 C1603 1.377 . S
C1619 C1617 1.389 . S
C1619 C1620 1.524 . S
C1620 C1619 1.524 . S
C1620 C1621 1.397 . S
C1620 C1625 1.363 . S
C1621 H1592 0.950 . S
C1621 C1620 1.397 . S
C1621 C1622 1.334 . S
C1622 H1593 0.950 . S
C1622 C1621 1.334 . S
C1622 C1623 1.287 . S
C1623 C1622 1.287 . S
C1623 C1624 1.524 . S
C1623 H1626 0.999 . S
C1624 H1594 0.950 . S
C1624 C1623 1.524 . S
C1624 C1625 1.415 . S
C1625 H1595 0.950 . S
C1625 C1620 1.363 . S
C1625 C1624 1.415 . S
H1626 C1623 0.999 . S
H1627 C1608 0.913 . S
H1628 C1646 0.951 . S
H1629 C1648 0.951 . S
H1630 C1650 0.950 . S
H1631 C1651 0.950 . S
H1632 C1653 0.950 . S
H1633 C1656 0.950 . S
H1634 C1657 0.950 . S
H1635 C1659 0.950 . S
H1636 C1660 0.950 . S
H1637 C1661 0.951 . S
H1638 C1663 0.951 . S
H1639 C1665 0.950 . S
H1640 C1666 0.950 . S
H1641 C1668 0.950 . S
H1642 C1671 0.950 . S
H1643 C1672 0.950 . S
H1644 C1674 0.950 . S
H1645 C1675 0.950 . S
C1646 H1628 0.951 . S
C1646 C1647 1.366 . S
C1646 C1648 1.388 . S
C1647 C1646 1.366 . S
C1647 C1651 1.385 . S
C1648 H1629 0.951 . S
C1648 C1646 1.388 . S
C1648 C1649 1.366 . S
C1649 C1648 1.366 . S
C1649 C1650 1.414 . S
C1649 C1652 1.499 . S
C1650 H1630 0.950 . S
C1650 C1649 1.414 . S
C1650 C1651 1.374 . S
C1651 H1631 0.950 . S
C1651 C1647 1.385 . S
C1651 C1650 1.374 . S
C1652 C1649 1.499 . S
C1652 C1653 1.373 . S
C1652 C1654 1.389 . S
C1653 H1632 0.950 . S
C1653 C1652 1.373 . S
C1653 C1669 1.377 . S
C1654 C1652 1.389 . S
C1654 C1655 1.524 . S
C1654 C1668 1.377 . S
C1655 C1654 1.524 . S
C1655 C1656 1.397 . S
C1655 C1660 1.363 . S
C1656 H1633 0.950 . S
C1656 C1655 1.397 . S
C1656 C1657 1.334 . S
C1657 H1634 0.950 . S
C1657 C1656 1.334 . S
C1657 C1658 1.287 . S
C1658 C1657 1.287 . S
C1658 C1659 1.524 . S
C1658 H1677 0.913 . S
C1659 H1635 0.950 . S
C1659 C1658 1.524 . S
C1659 C1660 1.415 . S
C1660 H1636 0.950 . S
C1660 C1655 1.363 . S
C1660 C1659 1.415 . S
C1661 H1637 0.951 . S
C1661 C1662 1.366 . S
C1661 C1663 1.388 . S
C1662 C1661 1.366 . S
C1662 C1666 1.385 . S
C1663 H1638 0.951 . S
C1663 C1661 1.388 . S
C1663 C1664 1.366 . S
C1664 C1663 1.366 . S
C1664 C1665 1.414 . S
C1664 C1667 1.499 . S
C1665 H1639 0.950 . S
C1665 C1664 1.414 . S
C1665 C1666 1.374 . S
C1666 H1640 0.950 . S
C1666 C1662 1.385 . S
C1666 C1665 1.374 . S
C1667 C1664 1.499 . S
C1667 C1668 1.373 . S
C1667 C1669 1.389 . S
C1668 H1641 0.950 . S
C1668 C1654 1.377 . S
C1668 C1667 1.373 . S
C1669 C1653 1.377 . S
C1669 C1667 1.389 . S
C1669 C1670 1.524 . S
C1670 C1669 1.524 . S
C1670 C1671 1.397 . S
C1670 C1675 1.363 . S
C1671 H1642 0.950 . S
C1671 C1670 1.397 . S
C1671 C1672 1.334 . S
C1672 H1643 0.950 . S
C1672 C1671 1.334 . S
C1672 C1673 1.287 . S
C1673 C1672 1.287 . S
C1673 C1674 1.524 . S
C1673 H1676 0.999 . S
C1674 H1644 0.950 . S
C1674 C1673 1.524 . S
C1674 C1675 1.415 . S
C1675 H1645 0.950 . S
C1675 C1670 1.363 . S
C1675 C1674 1.415 . S
H1676 C1673 0.999 . S
H1677 C1658 0.913 . S
H1678 C1696 0.951 . S
H1679 C1698 0.951 . S
H1680 C1700 0.950 . S
H1681 C1701 0.950 . S
H1682 C1703 0.950 . S
H1683 C1706 0.950 . S
H1684 C1707 0.950 . S
H1685 C1709 0.950 . S
H1686 C1710 0.950 . S
H1687 C1711 0.951 . S
H1688 C1713 0.951 . S
H1689 C1715 0.950 . S
H1690 C1716 0.950 . S
H1691 C1718 0.950 . S
H1692 C1721 0.950 . S
H1693 C1722 0.950 . S
H1694 C1724 0.950 . S
H1695 C1725 0.950 . S
C1696 H1678 0.951 . S
C1696 C1697 1.366 . S
C1696 C1698 1.388 . S
C1697 C1696 1.366 . S
C1697 C1701 1.385 . S
C1698 H1679 0.951 . S
C1698 C1696 1.388 . S
C1698 C1699 1.366 . S
C1699 C1698 1.366 . S
C1699 C1700 1.414 . S
C1699 C1702 1.499 . S
C1700 H1680 0.950 . S
C1700 C1699 1.414 . S
C1700 C1701 1.374 . S
C1701 H1681 0.950 . S
C1701 C1697 1.385 . S
C1701 C1700 1.374 . S
C1702 C1699 1.499 . S
C1702 C1703 1.373 . S
C1702 C1704 1.389 . S
C1703 H1682 0.950 . S
C1703 C1702 1.373 . S
C1703 C1719 1.377 . S
C1704 C1702 1.389 . S
C1704 C1705 1.524 . S
C1704 C1718 1.377 . S
C1705 C1704 1.524 . S
C1705 C1706 1.397 . S
C1705 C1710 1.363 . S
C1706 H1683 0.950 . S
C1706 C1705 1.397 . S
C1706 C1707 1.334 . S
C1707 H1684 0.950 . S
C1707 C1706 1.334 . S
C1707 C1708 1.287 . S
C1708 C1707 1.287 . S
C1708 C1709 1.524 . S
C1708 H1727 0.913 . S
C1709 H1685 0.950 . S
C1709 C1708 1.524 . S
C1709 C1710 1.415 . S
C1710 H1686 0.950 . S
C1710 C1705 1.363 . S
C1710 C1709 1.415 . S
C1711 H1687 0.951 . S
C1711 C1712 1.366 . S
C1711 C1713 1.388 . S
C1712 C1711 1.366 . S
C1712 C1716 1.385 . S
C1713 H1688 0.951 . S
C1713 C1711 1.388 . S
C1713 C1714 1.366 . S
C1714 C1713 1.366 . S
C1714 C1715 1.414 . S
C1714 C1717 1.499 . S
C1715 H1689 0.950 . S
C1715 C1714 1.414 . S
C1715 C1716 1.374 . S
C1716 H1690 0.950 . S
C1716 C1712 1.385 . S
C1716 C1715 1.374 . S
C1717 C1714 1.499 . S
C1717 C1718 1.373 . S
C1717 C1719 1.389 . S
C1718 H1691 0.950 . S
C1718 C1704 1.377 . S
C1718 C1717 1.373 . S
C1719 C1703 1.377 . S
C1719 C1717 1.389 . S
C1719 C1720 1.524 . S
C1720 C1719 1.524 . S
C1720 C1721 1.397 . S
C1720 C1725 1.363 . S
C1721 H1692 0.950 . S
C1721 C1720 1.397 . S
C1721 C1722 1.334 . S
C1722 H1693 0.950 . S
C1722 C1721 1.334 . S
C1722 C1723 1.287 . S
C1723 C1722 1.287 . S
C1723 C1724 1.524 . S
C1723 H1726 0.999 . S
C1724 H1694 0.950 . S
C1724 C1723 1.524 . S
C1724 C1725 1.415 . S
C1725 H1695 0.950 . S
C1725 C1720 1.363 . S
C1725 C1724 1.415 . S
H1726 C1723 0.999 . S
H1727 C1708 0.913 . S
H1728 C1746 0.951 1_565 S
H1729 C1748 0.949 1_565 S
H1730 C1750 0.950 . S
H1731 C1751 0.950 . S
H1732 C1753 0.950 . S
H1733 C1756 0.950 . S
H1734 C1757 0.950 . S
H1735 C1759 0.950 . S
H1736 C1760 0.950 . S
H1737 C1761 0.951 1_545 S
H1738 C1763 0.949 1_545 S
H1739 C1765 0.950 . S
H1740 C1766 0.950 . S
H1741 C1768 0.950 . S
H1742 C1771 0.950 . S
H1743 C1772 0.950 . S
H1744 C1774 0.950 . S
H1745 C1775 0.950 . S
C1746 H1728 0.951 1_545 S
C1746 C1747 1.366 . S
C1746 C1748 1.388 . S
C1747 C1746 1.366 . S
C1747 C1751 1.385 . S
C1748 H1729 0.949 1_545 S
C1748 C1746 1.388 . S
C1748 C1749 1.367 . S
C1749 C1748 1.367 . S
C1749 C1750 1.414 . S
C1749 C1752 1.499 . S
C1750 H1730 0.950 . S
C1750 C1749 1.414 . S
C1750 C1751 1.374 . S
C1751 H1731 0.950 . S
C1751 C1747 1.385 . S
C1751 C1750 1.374 . S
C1752 C1749 1.499 . S
C1752 C1753 1.373 . S
C1752 C1754 1.389 1_554 S
C1753 H1732 0.950 . S
C1753 C1752 1.373 . S
C1753 C1769 1.377 1_545 S
C1754 C1752 1.389 1_556 S
C1754 C1755 1.524 . S
C1754 C1768 1.377 1_545 S
C1755 C1754 1.524 . S
C1755 C1756 1.397 . S
C1755 C1760 1.363 1_545 S
C1756 H1733 0.950 . S
C1756 C1755 1.397 . S
C1756 C1757 1.334 . S
C1757 H1734 0.950 . S
C1757 C1756 1.334 . S
C1757 C1758 1.287 . S
C1758 C1757 1.287 . S
C1758 C1759 1.524 1_545 S
C1758 H1777 0.913 . S
C1759 H1735 0.950 . S
C1759 C1758 1.524 1_565 S
C1759 C1760 1.415 . S
C1760 H1736 0.950 . S
C1760 C1755 1.363 1_565 S
C1760 C1759 1.415 . S
C1761 H1737 0.951 1_565 S
C1761 C1762 1.366 . S
C1761 C1763 1.388 . S
C1762 C1761 1.366 . S
C1762 C1766 1.385 . S
C1763 H1738 0.949 1_565 S
C1763 C1761 1.388 . S
C1763 C1764 1.367 . S
C1764 C1763 1.367 . S
C1764 C1765 1.414 . S
C1764 C1767 1.499 . S
C1765 H1739 0.950 . S
C1765 C1764 1.414 . S
C1765 C1766 1.374 . S
C1766 H1740 0.950 . S
C1766 C1762 1.385 . S
C1766 C1765 1.374 . S
C1767 C1764 1.499 . S
C1767 C1768 1.373 . S
C1767 C1769 1.389 1_556 S
C1768 H1741 0.950 . S
C1768 C1754 1.377 1_565 S
C1768 C1767 1.373 . S
C1769 C1753 1.377 1_565 S
C1769 C1767 1.389 1_554 S
C1769 C1770 1.524 . S
C1770 C1769 1.524 . S
C1770 C1771 1.397 . S
C1770 C1775 1.363 1_565 S
C1771 H1742 0.950 . S
C1771 C1770 1.397 . S
C1771 C1772 1.334 . S
C1772 H1743 0.950 . S
C1772 C1771 1.334 . S
C1772 C1773 1.287 . S
C1773 C1772 1.287 . S
C1773 C1774 1.524 1_565 S
C1773 H1776 0.999 . S
C1774 H1744 0.950 . S
C1774 C1773 1.524 1_545 S
C1774 C1775 1.415 . S
C1775 H1745 0.950 . S
C1775 C1770 1.363 1_545 S
C1775 C1774 1.415 . S
H1776 C1773 0.999 . S
H1777 C1758 0.913 . S
H1778 C1796 0.951 . S
H1779 C1798 0.951 . S
H1780 C1800 0.950 . S
H1781 C1801 0.950 . S
H1782 C1803 0.950 . S
H1783 C1806 0.950 . S
H1784 C1807 0.950 . S
H1785 C1809 0.950 . S
H1786 C1810 0.950 . S
H1787 C1811 0.951 . S
H1788 C1813 0.951 . S
H1789 C1815 0.950 . S
H1790 C1816 0.950 . S
H1791 C1818 0.950 . S
H1792 C1821 0.950 . S
H1793 C1822 0.950 . S
H1794 C1824 0.950 . S
H1795 C1825 0.950 . S
C1796 H1778 0.951 . S
C1796 C1797 1.366 . S
C1796 C1798 1.388 . S
C1797 C1796 1.366 . S
C1797 C1801 1.385 . S
C1798 H1779 0.951 . S
C1798 C1796 1.388 . S
C1798 C1799 1.366 . S
C1799 C1798 1.366 . S
C1799 C1800 1.414 . S
C1799 C1802 1.499 . S
C1800 H1780 0.950 . S
C1800 C1799 1.414 . S
C1800 C1801 1.374 . S
C1801 H1781 0.950 . S
C1801 C1797 1.385 . S
C1801 C1800 1.374 . S
C1802 C1799 1.499 . S
C1802 C1803 1.373 1_554 S
C1802 C1804 1.389 . S
C1803 H1782 0.950 . S
C1803 C1802 1.373 1_556 S
C1803 C1819 1.377 . S
C1804 C1802 1.389 . S
C1804 C1805 1.524 . S
C1804 C1818 1.377 . S
C1805 C1804 1.524 . S
C1805 C1806 1.397 . S
C1805 C1810 1.363 . S
C1806 H1783 0.950 . S
C1806 C1805 1.397 . S
C1806 C1807 1.334 . S
C1807 H1784 0.950 . S
C1807 C1806 1.334 . S
C1807 C1808 1.287 . S
C1808 C1807 1.287 . S
C1808 C1809 1.524 . S
C1808 H1827 0.913 . S
C1809 H1785 0.950 . S
C1809 C1808 1.524 . S
C1809 C1810 1.415 . S
C1810 H1786 0.950 . S
C1810 C1805 1.363 . S
C1810 C1809 1.415 . S
C1811 H1787 0.951 . S
C1811 C1812 1.366 . S
C1811 C1813 1.388 . S
C1812 C1811 1.366 . S
C1812 C1816 1.385 . S
C1813 H1788 0.951 . S
C1813 C1811 1.388 . S
C1813 C1814 1.366 . S
C1814 C1813 1.366 . S
C1814 C1815 1.414 . S
C1814 C1817 1.499 . S
C1815 H1789 0.950 . S
C1815 C1814 1.414 . S
C1815 C1816 1.374 . S
C1816 H1790 0.950 . S
C1816 C1812 1.385 . S
C1816 C1815 1.374 . S
C1817 C1814 1.499 . S
C1817 C1818 1.373 1_556 S
C1817 C1819 1.389 . S
C1818 H1791 0.950 . S
C1818 C1804 1.377 . S
C1818 C1817 1.373 1_554 S
C1819 C1803 1.377 . S
C1819 C1817 1.389 . S
C1819 C1820 1.524 . S
C1820 C1819 1.524 . S
C1820 C1821 1.397 . S
C1820 C1825 1.363 . S
C1821 H1792 0.950 . S
C1821 C1820 1.397 . S
C1821 C1822 1.334 . S
C1822 H1793 0.950 . S
C1822 C1821 1.334 . S
C1822 C1823 1.287 . S
C1823 C1822 1.287 . S
C1823 C1824 1.524 . S
C1823 H1826 0.999 . S
C1824 H1794 0.950 . S
C1824 C1823 1.524 . S
C1824 C1825 1.415 . S
C1825 H1795 0.950 . S
C1825 C1820 1.363 . S
C1825 C1824 1.415 . S
H1826 C1823 0.999 . S
H1827 C1808 0.913 . S
H1828 C1846 0.951 . S
H1829 C1848 0.951 . S
H1830 C1850 0.950 . S
H1831 C1851 0.950 . S
H1832 C1853 0.950 . S
H1833 C1856 0.950 . S
H1834 C1857 0.950 . S
H1835 C1859 0.950 . S
H1836 C1860 0.950 . S
H1837 C1861 0.951 . S
H1838 C1863 0.951 . S
H1839 C1865 0.950 . S
H1840 C1866 0.950 . S
H1841 C1868 0.950 . S
H1842 C1871 0.950 . S
H1843 C1872 0.950 . S
H1844 C1874 0.950 . S
H1845 C1875 0.950 . S
C1846 H1828 0.951 . S
C1846 C1847 1.366 . S
C1846 C1848 1.388 . S
C1847 C1846 1.366 . S
C1847 C1851 1.385 . S
C1848 H1829 0.951 . S
C1848 C1846 1.388 . S
C1848 C1849 1.366 . S
C1849 C1848 1.366 . S
C1849 C1850 1.414 . S
C1849 C1852 1.499 . S
C1850 H1830 0.950 . S
C1850 C1849 1.414 . S
C1850 C1851 1.374 . S
C1851 H1831 0.950 . S
C1851 C1847 1.385 . S
C1851 C1850 1.374 . S
C1852 C1849 1.499 . S
C1852 C1853 1.373 1_655 S
C1852 C1854 1.389 1_554 S
C1853 H1832 0.950 . S
C1853 C1852 1.373 1_455 S
C1853 C1869 1.377 . S
C1854 C1852 1.389 1_556 S
C1854 C1855 1.524 . S
C1854 C1868 1.377 . S
C1855 C1854 1.524 . S
C1855 C1856 1.397 . S
C1855 C1860 1.363 . S
C1856 H1833 0.950 . S
C1856 C1855 1.397 . S
C1856 C1857 1.334 . S
C1857 H1834 0.950 . S
C1857 C1856 1.334 . S
C1857 C1858 1.287 . S
C1858 C1857 1.287 . S
C1858 C1859 1.524 . S
C1858 H1877 0.913 . S
C1859 H1835 0.950 . S
C1859 C1858 1.524 . S
C1859 C1860 1.415 . S
C1860 H1836 0.950 . S
C1860 C1855 1.363 . S
C1860 C1859 1.415 . S
C1861 H1837 0.951 . S
C1861 C1862 1.366 . S
C1861 C1863 1.388 . S
C1862 C1861 1.366 . S
C1862 C1866 1.385 . S
C1863 H1838 0.951 . S
C1863 C1861 1.388 . S
C1863 C1864 1.366 . S
C1864 C1863 1.366 . S
C1864 C1865 1.414 . S
C1864 C1867 1.499 . S
C1865 H1839 0.950 . S
C1865 C1864 1.414 . S
C1865 C1866 1.374 . S
C1866 H1840 0.950 . S
C1866 C1862 1.385 . S
C1866 C1865 1.374 . S
C1867 C1864 1.499 . S
C1867 C1868 1.373 1_455 S
C1867 C1869 1.389 1_556 S
C1868 H1841 0.950 . S
C1868 C1854 1.377 . S
C1868 C1867 1.373 1_655 S
C1869 C1853 1.377 . S
C1869 C1867 1.389 1_554 S
C1869 C1870 1.524 . S
C1870 C1869 1.524 . S
C1870 C1871 1.397 . S
C1870 C1875 1.363 . S
C1871 H1842 0.950 . S
C1871 C1870 1.397 . S
C1871 C1872 1.334 . S
C1872 H1843 0.950 . S
C1872 C1871 1.334 . S
C1872 C1873 1.287 . S
C1873 C1872 1.287 . S
C1873 C1874 1.524 . S
C1873 H1876 0.999 . S
C1874 H1844 0.950 . S
C1874 C1873 1.524 . S
C1874 C1875 1.415 . S
C1875 H1845 0.950 . S
C1875 C1870 1.363 . S
C1875 C1874 1.415 . S
H1876 C1873 0.999 . S
H1877 C1858 0.913 . S
H1878 C1896 0.951 . S
H1879 C1898 0.951 . S
H1880 C1900 0.950 1_455 S
H1881 C1901 0.950 . S
H1882 C1903 0.950 . S
H1883 C1906 0.950 1_556 S
H1884 C1907 0.950 . S
H1885 C1909 0.950 . S
H1886 C1910 0.950 . S
H1887 C1911 0.951 . S
H1888 C1913 0.951 . S
H1889 C1915 0.950 1_655 S
H1890 C1916 0.950 . S
H1891 C1918 0.950 . S
H1892 C1921 0.950 1_554 S
H1893 C1922 0.950 . S
H1894 C1924 0.950 . S
H1895 C1925 0.950 . S
C1896 H1878 0.951 . S
C1896 C1897 1.366 . S
C1896 C1898 1.388 . S
C1897 C1896 1.366 . S
C1897 C1901 1.385 . S
C1898 H1879 0.951 . S
C1898 C1896 1.388 . S
C1898 C1899 1.366 . S
C1899 C1898 1.366 . S
C1899 C1900 1.414 . S
C1899 C1902 1.499 . S
C1900 H1880 0.950 1_655 S
C1900 C1899 1.414 . S
C1900 C1901 1.374 . S
C1901 H1881 0.950 . S
C1901 C1897 1.385 . S
C1901 C1900 1.374 . S
C1902 C1899 1.499 . S
C1902 C1903 1.373 1_545 S
C1902 C1904 1.391 1_556 S
C1903 H1882 0.950 . S
C1903 C1902 1.373 1_565 S
C1903 C1919 1.375 1_655 S
C1904 C1902 1.391 1_554 S
C1904 C1905 1.524 1_655 S
C1904 C1918 1.375 1_655 S
C1905 C1904 1.524 1_455 S
C1905 C1906 1.397 . S
C1905 C1910 1.363 1_455 S
C1906 H1883 0.950 1_554 S
C1906 C1905 1.397 . S
C1906 C1907 1.334 . S
C1907 H1884 0.950 . S
C1907 C1906 1.334 . S
C1907 C1908 1.287 . S
C1908 C1907 1.287 . S
C1908 C1909 1.524 1_455 S
C1908 H1927 0.913 . S
C1909 H1885 0.950 . S
C1909 C1908 1.524 1_655 S
C1909 C1910 1.415 . S
C1910 H1886 0.950 . S
C1910 C1905 1.363 1_655 S
C1910 C1909 1.415 . S
C1911 H1887 0.951 . S
C1911 C1912 1.366 . S
C1911 C1913 1.388 . S
C1912 C1911 1.366 . S
C1912 C1916 1.385 . S
C1913 H1888 0.951 . S
C1913 C1911 1.388 . S
C1913 C1914 1.366 . S
C1914 C1913 1.366 . S
C1914 C1915 1.414 . S
C1914 C1917 1.499 . S
C1915 H1889 0.950 1_455 S
C1915 C1914 1.414 . S
C1915 C1916 1.374 . S
C1916 H1890 0.950 . S
C1916 C1912 1.385 . S
C1916 C1915 1.374 . S
C1917 C1914 1.499 . S
C1917 C1918 1.373 1_565 S
C1917 C1919 1.391 1_554 S
C1918 H1891 0.950 . S
C1918 C1904 1.375 1_455 S
C1918 C1917 1.373 1_545 S
C1919 C1903 1.375 1_455 S
C1919 C1917 1.391 1_556 S
C1919 C1920 1.524 1_455 S
C1920 C1919 1.524 1_655 S
C1920 C1921 1.397 . S
C1920 C1925 1.363 1_655 S
C1921 H1892 0.950 1_556 S
C1921 C1920 1.397 . S
C1921 C1922 1.334 . S
C1922 H1893 0.950 . S
C1922 C1921 1.334 . S
C1922 C1923 1.287 . S
C1923 C1922 1.287 . S
C1923 C1924 1.524 1_655 S
C1923 H1926 0.999 . S
C1924 H1894 0.950 . S
C1924 C1923 1.524 1_455 S
C1924 C1925 1.415 . S
C1925 H1895 0.950 . S
C1925 C1920 1.363 1_455 S
C1925 C1924 1.415 . S
H1926 C1923 0.999 . S
H1927 C1908 0.913 . S
H1928 C1946 0.951 . S
H1929 C1948 0.951 . S
H1930 C1950 0.950 . S
H1931 C1951 0.950 . S
H1932 C1953 0.950 . S
H1933 C1956 0.950 . S
H1934 C1957 0.950 . S
H1935 C1959 0.950 . S
H1936 C1960 0.950 . S
H1937 C1961 0.951 . S
H1938 C1963 0.951 . S
H1939 C1965 0.950 . S
H1940 C1966 0.950 . S
H1941 C1968 0.950 . S
H1942 C1971 0.950 . S
H1943 C1972 0.950 . S
H1944 C1974 0.950 . S
H1945 C1975 0.950 . S
C1946 H1928 0.951 . S
C1946 C1947 1.366 . S
C1946 C1948 1.388 . S
C1947 C1946 1.366 . S
C1947 C1951 1.385 . S
C1948 H1929 0.951 . S
C1948 C1946 1.388 . S
C1948 C1949 1.366 . S
C1949 C1948 1.366 . S
C1949 C1950 1.414 . S
C1949 C1952 1.499 . S
C1950 H1930 0.950 . S
C1950 C1949 1.414 . S
C1950 C1951 1.374 . S
C1951 H1931 0.950 . S
C1951 C1947 1.385 . S
C1951 C1950 1.374 . S
C1952 C1949 1.499 . S
C1952 C1953 1.373 . S
C1952 C1954 1.389 1_545 S
C1953 H1932 0.950 . S
C1953 C1952 1.373 . S
C1953 C1969 1.377 1_655 S
C1954 C1952 1.389 1_565 S
C1954 C1955 1.524 . S
C1954 C1968 1.377 1_655 S
C1955 C1954 1.524 . S
C1955 C1956 1.397 . S
C1955 C1960 1.363 . S
C1956 H1933 0.950 . S
C1956 C1955 1.397 . S
C1956 C1957 1.334 . S
C1957 H1934 0.950 . S
C1957 C1956 1.334 . S
C1957 C1958 1.287 . S
C1958 C1957 1.287 . S
C1958 C1959 1.524 . S
C1958 H1977 0.913 . S
C1959 H1935 0.950 . S
C1959 C1958 1.524 . S
C1959 C1960 1.415 . S
C1960 H1936 0.950 . S
C1960 C1955 1.363 . S
C1960 C1959 1.415 . S
C1961 H1937 0.951 . S
C1961 C1962 1.366 . S
C1961 C1963 1.388 . S
C1962 C1961 1.366 . S
C1962 C1966 1.385 . S
C1963 H1938 0.951 . S
C1963 C1961 1.388 . S
C1963 C1964 1.366 . S
C1964 C1963 1.366 . S
C1964 C1965 1.414 . S
C1964 C1967 1.499 . S
C1965 H1939 0.950 . S
C1965 C1964 1.414 . S
C1965 C1966 1.374 . S
C1966 H1940 0.950 . S
C1966 C1962 1.385 . S
C1966 C1965 1.374 . S
C1967 C1964 1.499 . S
C1967 C1968 1.373 . S
C1967 C1969 1.389 1_565 S
C1968 H1941 0.950 . S
C1968 C1954 1.377 1_455 S
C1968 C1967 1.373 . S
C1969 C1953 1.377 1_455 S
C1969 C1967 1.389 1_545 S
C1969 C1970 1.524 . S
C1970 C1969 1.524 . S
C1970 C1971 1.397 . S
C1970 C1975 1.363 . S
C1971 H1942 0.950 . S
C1971 C1970 1.397 . S
C1971 C1972 1.334 . S
C1972 H1943 0.950 . S
C1972 C1971 1.334 . S
C1972 C1973 1.287 . S
C1973 C1972 1.287 . S
C1973 C1974 1.524 . S
C1973 H1976 0.999 . S
C1974 H1944 0.950 . S
C1974 C1973 1.524 . S
C1974 C1975 1.415 . S
C1975 H1945 0.950 . S
C1975 C1970 1.363 . S
C1975 C1974 1.415 . S
H1976 C1973 0.999 . S
H1977 C1958 0.913 . S
H1978 C1996 0.951 . S
H1979 C1998 0.951 . S
H1980 C2000 0.950 . S
H1981 C2001 0.950 . S
H1982 C2003 0.950 . S
H1983 C2006 0.950 . S
H1984 C2007 0.950 . S
H1985 C2009 0.950 . S
H1986 C2010 0.950 . S
H1987 C2011 0.951 . S
H1988 C2013 0.951 . S
H1989 C2015 0.950 . S
H1990 C2016 0.950 . S
H1991 C2018 0.950 . S
H1992 C2021 0.950 . S
H1993 C2022 0.950 . S
H1994 C2024 0.950 . S
H1995 C2025 0.950 . S
C1996 H1978 0.951 . S
C1996 C1997 1.366 . S
C1996 C1998 1.388 . S
C1997 C1996 1.366 . S
C1997 C2001 1.385 . S
C1998 H1979 0.951 . S
C1998 C1996 1.388 . S
C1998 C1999 1.366 . S
C1999 C1998 1.366 . S
C1999 C2000 1.414 . S
C1999 C2002 1.499 . S
C2000 H1980 0.950 . S
C2000 C1999 1.414 . S
C2000 C2001 1.374 . S
C2001 H1981 0.950 . S
C2001 C1997 1.385 . S
C2001 C2000 1.374 . S
C2002 C1999 1.499 . S
C2002 C2003 1.388 . S
C2002 C2004 1.389 . S
C2003 H1982 0.950 . S
C2003 C2002 1.388 . S
C2003 C2019 1.362 1_545 S
C2004 C2002 1.389 . S
C2004 C2005 1.524 . S
C2004 C2018 1.362 1_545 S
C2005 C2004 1.524 . S
C2005 C2006 1.397 . S
C2005 C2010 1.363 . S
C2006 H1983 0.950 . S
C2006 C2005 1.397 . S
C2006 C2007 1.334 . S
C2007 H1984 0.950 . S
C2007 C2006 1.334 . S
C2007 C2008 1.287 . S
C2008 C2007 1.287 . S
C2008 C2009 1.524 . S
C2008 H2027 0.913 . S
C2009 H1985 0.950 . S
C2009 C2008 1.524 . S
C2009 C2010 1.415 . S
C2010 H1986 0.950 . S
C2010 C2005 1.363 . S
C2010 C2009 1.415 . S
C2011 H1987 0.951 . S
C2011 C2012 1.366 . S
C2011 C2013 1.388 . S
C2012 C2011 1.366 . S
C2012 C2016 1.385 . S
C2013 H1988 0.951 . S
C2013 C2011 1.388 . S
C2013 C2014 1.366 . S
C2014 C2013 1.366 . S
C2014 C2015 1.414 . S
C2014 C2017 1.499 . S
C2015 H1989 0.950 . S
C2015 C2014 1.414 . S
C2015 C2016 1.374 . S
C2016 H1990 0.950 . S
C2016 C2012 1.385 . S
C2016 C2015 1.374 . S
C2017 C2014 1.499 . S
C2017 C2018 1.388 . S
C2017 C2019 1.389 . S
C2018 H1991 0.950 . S
C2018 C2004 1.362 1_565 S
C2018 C2017 1.388 . S
C2019 C2003 1.362 1_565 S
C2019 C2017 1.389 . S
C2019 C2020 1.524 . S
C2020 C2019 1.524 . S
C2020 C2021 1.397 . S
C2020 C2025 1.363 . S
C2021 H1992 0.950 . S
C2021 C2020 1.397 . S
C2021 C2022 1.334 . S
C2022 H1993 0.950 . S
C2022 C2021 1.334 . S
C2022 C2023 1.287 . S
C2023 C2022 1.287 . S
C2023 C2024 1.524 . S
C2023 H2026 0.999 . S
C2024 H1994 0.950 . S
C2024 C2023 1.524 . S
C2024 C2025 1.415 . S
C2025 H1995 0.950 . S
C2025 C2020 1.363 . S
C2025 C2024 1.415 . S
H2026 C2023 0.999 . S
H2027 C2008 0.913 . S
H2028 C2046 0.951 . S
H2029 C2048 0.951 . S
H2030 C2050 0.950 . S
H2031 C2051 0.950 . S
H2032 C2053 0.950 . S
H2033 C2056 0.950 . S
H2034 C2057 0.950 . S
H2035 C2059 0.950 . S
H2036 C2060 0.950 . S
H2037 C2061 0.951 . S
H2038 C2063 0.951 . S
H2039 C2065 0.950 . S
H2040 C2066 0.950 . S
H2041 C2068 0.950 . S
H2042 C2071 0.950 . S
H2043 C2072 0.950 . S
H2044 C2074 0.950 . S
H2045 C2075 0.950 . S
C2046 H2028 0.951 . S
C2046 C2047 1.366 . S
C2046 C2048 1.388 . S
C2047 C2046 1.366 . S
C2047 C2051 1.385 . S
C2048 H2029 0.951 . S
C2048 C2046 1.388 . S
C2048 C2049 1.366 . S
C2049 C2048 1.366 . S
C2049 C2050 1.414 . S
C2049 C2052 1.499 . S
C2050 H2030 0.950 . S
C2050 C2049 1.414 . S
C2050 C2051 1.374 . S
C2051 H2031 0.950 . S
C2051 C2047 1.385 . S
C2051 C2050 1.374 . S
C2052 C2049 1.499 . S
C2052 C2053 1.373 . S
C2052 C2054 1.389 . S
C2053 H2032 0.950 . S
C2053 C2052 1.373 . S
C2053 C2069 1.377 . S
C2054 C2052 1.389 . S
C2054 C2055 1.524 . S
C2054 C2068 1.377 . S
C2055 C2054 1.524 . S
C2055 C2056 1.397 . S
C2055 C2060 1.363 . S
C2056 H2033 0.950 . S
C2056 C2055 1.397 . S
C2056 C2057 1.334 . S
C2057 H2034 0.950 . S
C2057 C2056 1.334 . S
C2057 C2058 1.287 . S
C2058 C2057 1.287 . S
C2058 C2059 1.524 . S
C2058 H2077 0.913 . S
C2059 H2035 0.950 . S
C2059 C2058 1.524 . S
C2059 C2060 1.415 . S
C2060 H2036 0.950 . S
C2060 C2055 1.363 . S
C2060 C2059 1.415 . S
C2061 H2037 0.951 . S
C2061 C2062 1.366 . S
C2061 C2063 1.388 . S
C2062 C2061 1.366 . S
C2062 C2066 1.385 . S
C2063 H2038 0.951 . S
C2063 C2061 1.388 . S
C2063 C2064 1.366 . S
C2064 C2063 1.366 . S
C2064 C2065 1.414 . S
C2064 C2067 1.499 . S
C2065 H2039 0.950 . S
C2065 C2064 1.414 . S
C2065 C2066 1.374 . S
C2066 H2040 0.950 . S
C2066 C2062 1.385 . S
C2066 C2065 1.374 . S
C2067 C2064 1.499 . S
C2067 C2068 1.373 . S
C2067 C2069 1.389 . S
C2068 H2041 0.950 . S
C2068 C2054 1.377 . S
C2068 C2067 1.373 . S
C2069 C2053 1.377 . S
C2069 C2067 1.389 . S
C2069 C2070 1.524 . S
C2070 C2069 1.524 . S
C2070 C2071 1.397 . S
C2070 C2075 1.363 . S
C2071 H2042 0.950 . S
C2071 C2070 1.397 . S
C2071 C2072 1.334 . S
C2072 H2043 0.950 . S
C2072 C2071 1.334 . S
C2072 C2073 1.287 . S
C2073 C2072 1.287 . S
C2073 C2074 1.524 . S
C2073 H2076 0.999 . S
C2074 H2044 0.950 . S
C2074 C2073 1.524 . S
C2074 C2075 1.415 . S
C2075 H2045 0.950 . S
C2075 C2070 1.363 . S
C2075 C2074 1.415 . S
H2076 C2073 0.999 . S
H2077 C2058 0.913 . S
H2078 C2096 0.951 . S
H2079 C2098 0.951 . S
H2080 C2100 0.950 . S
H2081 C2101 0.950 . S
H2082 C2103 0.950 . S
H2083 C2106 0.950 . S
H2084 C2107 0.950 . S
H2085 C2109 0.950 . S
H2086 C2110 0.950 . S
H2087 C2111 0.951 . S
H2088 C2113 0.951 . S
H2089 C2115 0.950 . S
H2090 C2116 0.950 . S
H2091 C2118 0.950 . S
H2092 C2121 0.950 . S
H2093 C2122 0.950 . S
H2094 C2124 0.950 . S
H2095 C2125 0.950 . S
C2096 H2078 0.951 . S
C2096 C2097 1.366 . S
C2096 C2098 1.388 . S
C2097 C2096 1.366 . S
C2097 C2101 1.385 . S
C2098 H2079 0.951 . S
C2098 C2096 1.388 . S
C2098 C2099 1.366 . S
C2099 C2098 1.366 . S
C2099 C2100 1.414 . S
C2099 C2102 1.499 . S
C2100 H2080 0.950 . S
C2100 C2099 1.414 . S
C2100 C2101 1.374 . S
C2101 H2081 0.950 . S
C2101 C2097 1.385 . S
C2101 C2100 1.374 . S
C2102 C2099 1.499 . S
C2102 C2103 1.373 1_455 S
C2102 C2104 1.389 . S
C2103 H2082 0.950 . S
C2103 C2102 1.373 1_655 S
C2103 C2119 1.377 . S
C2104 C2102 1.389 . S
C2104 C2105 1.524 . S
C2104 C2118 1.377 . S
C2105 C2104 1.524 . S
C2105 C2106 1.397 . S
C2105 C2110 1.363 . S
C2106 H2083 0.950 . S
C2106 C2105 1.397 . S
C2106 C2107 1.334 . S
C2107 H2084 0.950 . S
C2107 C2106 1.334 . S
C2107 C2108 1.287 . S
C2108 C2107 1.287 . S
C2108 C2109 1.524 . S
C2108 H2127 0.913 . S
C2109 H2085 0.950 . S
C2109 C2108 1.524 . S
C2109 C2110 1.415 . S
C2110 H2086 0.950 . S
C2110 C2105 1.363 . S
C2110 C2109 1.415 . S
C2111 H2087 0.951 . S
C2111 C2112 1.366 . S
C2111 C2113 1.388 . S
C2112 C2111 1.366 . S
C2112 C2116 1.385 . S
C2113 H2088 0.951 . S
C2113 C2111 1.388 . S
C2113 C2114 1.366 . S
C2114 C2113 1.366 . S
C2114 C2115 1.414 . S
C2114 C2117 1.499 . S
C2115 H2089 0.950 . S
C2115 C2114 1.414 . S
C2115 C2116 1.374 . S
C2116 H2090 0.950 . S
C2116 C2112 1.385 . S
C2116 C2115 1.374 . S
C2117 C2114 1.499 . S
C2117 C2118 1.373 1_655 S
C2117 C2119 1.389 . S
C2118 H2091 0.950 . S
C2118 C2104 1.377 . S
C2118 C2117 1.373 1_455 S
C2119 C2103 1.377 . S
C2119 C2117 1.389 . S
C2119 C2120 1.524 . S
C2120 C2119 1.524 . S
C2120 C2121 1.397 . S
C2120 C2125 1.363 . S
C2121 H2092 0.950 . S
C2121 C2120 1.397 . S
C2121 C2122 1.334 . S
C2122 H2093 0.950 . S
C2122 C2121 1.334 . S
C2122 C2123 1.287 . S
C2123 C2122 1.287 . S
C2123 C2124 1.524 . S
C2123 H2126 0.999 . S
C2124 H2094 0.950 . S
C2124 C2123 1.524 . S
C2124 C2125 1.415 . S
C2125 H2095 0.950 . S
C2125 C2120 1.363 . S
C2125 C2124 1.415 . S
H2126 C2123 0.999 . S
H2127 C2108 0.913 . S
H2128 C2146 0.951 . S
H2129 C2148 0.951 . S
H2130 C2150 0.950 . S
H2131 C2151 0.950 . S
H2132 C2153 0.950 . S
H2133 C2156 0.950 . S
H2134 C2157 0.950 . S
H2135 C2159 0.950 1_565 S
H2136 C2160 0.950 . S
H2137 C2161 0.951 . S
H2138 C2163 0.951 . S
H2139 C2165 0.950 . S
H2140 C2166 0.950 . S
H2141 C2168 0.950 . S
H2142 C2171 0.950 . S
H2143 C2172 0.950 . S
H2144 C2174 0.950 . S
H2145 C2175 0.950 . S
C2146 H2128 0.951 . S
C2146 C2147 1.366 . S
C2146 C2148 1.388 . S
C2147 C2146 1.366 . S
C2147 C2151 1.385 . S
C2148 H2129 0.951 . S
C2148 C2146 1.388 . S
C2148 C2149 1.366 . S
C2149 C2148 1.366 . S
C2149 C2150 1.414 . S
C2149 C2152 1.499 . S
C2150 H2130 0.950 . S
C2150 C2149 1.414 . S
C2150 C2151 1.374 . S
C2151 H2131 0.950 . S
C2151 C2147 1.385 . S
C2151 C2150 1.374 . S
C2152 C2149 1.499 . S
C2152 C2153 1.373 . S
C2152 C2154 1.389 . S
C2153 H2132 0.950 . S
C2153 C2152 1.373 . S
C2153 C2169 1.377 . S
C2154 C2152 1.389 . S
C2154 C2155 1.524 . S
C2154 C2168 1.377 . S
C2155 C2154 1.524 . S
C2155 C2156 1.397 . S
C2155 C2160 1.363 . S
C2156 H2133 0.950 . S
C2156 C2155 1.397 . S
C2156 C2157 1.334 . S
C2157 H2134 0.950 . S
C2157 C2156 1.334 . S
C2157 C2158 1.287 . S
C2158 C2157 1.287 . S
C2158 C2159 1.524 . S
C2158 H2177 0.895 1_545 S
C2159 H2135 0.950 1_545 S
C2159 C2158 1.524 . S
C2159 C2160 1.415 . S
C2160 H2136 0.950 . S
C2160 C2155 1.363 . S
C2160 C2159 1.415 . S
C2161 H2137 0.951 . S
C2161 C2162 1.366 . S
C2161 C2163 1.388 . S
C2162 C2161 1.366 . S
C2162 C2166 1.385 . S
C2163 H2138 0.951 . S
C2163 C2161 1.388 . S
C2163 C2164 1.366 . S
C2164 C2163 1.366 . S
C2164 C2165 1.414 . S
C2164 C2167 1.499 . S
C2165 H2139 0.950 . S
C2165 C2164 1.414 . S
C2165 C2166 1.374 . S
C2166 H2140 0.950 . S
C2166 C2162 1.385 . S
C2166 C2165 1.374 . S
C2167 C2164 1.499 . S
C2167 C2168 1.373 . S
C2167 C2169 1.389 . S
C2168 H2141 0.950 . S
C2168 C2154 1.377 . S
C2168 C2167 1.373 . S
C2169 C2153 1.377 . S
C2169 C2167 1.389 . S
C2169 C2170 1.524 . S
C2170 C2169 1.524 . S
C2170 C2171 1.397 . S
C2170 C2175 1.363 . S
C2171 H2142 0.950 . S
C2171 C2170 1.397 . S
C2171 C2172 1.334 . S
C2172 H2143 0.950 . S
C2172 C2171 1.334 . S
C2172 C2173 1.287 . S
C2173 C2172 1.287 . S
C2173 C2174 1.524 . S
C2173 H2176 0.999 . S
C2174 H2144 0.950 . S
C2174 C2173 1.524 . S
C2174 C2175 1.415 . S
C2175 H2145 0.950 . S
C2175 C2170 1.363 . S
C2175 C2174 1.415 . S
H2176 C2173 0.999 . S
H2177 C2158 0.895 1_565 S
H2178 C2196 0.951 . S
H2179 C2198 0.951 . S
H2180 C2200 0.950 . S
H2181 C2201 0.950 . S
H2182 C2203 0.950 . S
H2183 C2206 0.950 . S
H2184 C2207 0.950 . S
H2185 C2209 0.950 . S
H2186 C2210 0.950 . S
H2187 C2211 0.951 . S
H2188 C2213 0.951 . S
H2189 C2215 0.950 . S
H2190 C2216 0.950 . S
H2191 C2218 0.950 . S
H2192 C2221 0.950 . S
H2193 C2222 0.950 . S
H2194 C2224 0.950 . S
H2195 C2225 0.950 . S
C2196 H2178 0.951 . S
C2196 C2197 1.366 . S
C2196 C2198 1.388 . S
C2197 C2196 1.366 . S
C2197 C2201 1.385 . S
C2198 H2179 0.951 . S
C2198 C2196 1.388 . S
C2198 C2199 1.366 . S
C2199 C2198 1.366 . S
C2199 C2200 1.414 . S
C2199 C2202 1.499 . S
C2200 H2180 0.950 . S
C2200 C2199 1.414 . S
C2200 C2201 1.374 . S
C2201 H2181 0.950 . S
C2201 C2197 1.385 . S
C2201 C2200 1.374 . S
C2202 C2199 1.499 . S
C2202 C2203 1.373 . S
C2202 C2204 1.389 . S
C2203 H2182 0.950 . S
C2203 C2202 1.373 . S
C2203 C2219 1.377 . S
C2204 C2202 1.389 . S
C2204 C2205 1.524 . S
C2204 C2218 1.377 . S
C2205 C2204 1.524 . S
C2205 C2206 1.397 . S
C2205 C2210 1.363 . S
C2206 H2183 0.950 . S
C2206 C2205 1.397 . S
C2206 C2207 1.334 . S
C2207 H2184 0.950 . S
C2207 C2206 1.334 . S
C2207 C2208 1.287 . S
C2208 C2207 1.287 . S
C2208 C2209 1.524 . S
C2208 H2227 0.913 . S
C2209 H2185 0.950 . S
C2209 C2208 1.524 . S
C2209 C2210 1.415 . S
C2210 H2186 0.950 . S
C2210 C2205 1.363 . S
C2210 C2209 1.415 . S
C2211 H2187 0.951 . S
C2211 C2212 1.366 . S
C2211 C2213 1.388 . S
C2212 C2211 1.366 . S
C2212 C2216 1.385 . S
C2213 H2188 0.951 . S
C2213 C2211 1.388 . S
C2213 C2214 1.366 . S
C2214 C2213 1.366 . S
C2214 C2215 1.414 . S
C2214 C2217 1.499 . S
C2215 H2189 0.950 . S
C2215 C2214 1.414 . S
C2215 C2216 1.374 . S
C2216 H2190 0.950 . S
C2216 C2212 1.385 . S
C2216 C2215 1.374 . S
C2217 C2214 1.499 . S
C2217 C2218 1.373 . S
C2217 C2219 1.389 . S
C2218 H2191 0.950 . S
C2218 C2204 1.377 . S
C2218 C2217 1.373 . S
C2219 C2203 1.377 . S
C2219 C2217 1.389 . S
C2219 C2220 1.524 . S
C2220 C2219 1.524 . S
C2220 C2221 1.397 . S
C2220 C2225 1.363 . S
C2221 H2192 0.950 . S
C2221 C2220 1.397 . S
C2221 C2222 1.334 . S
C2222 H2193 0.950 . S
C2222 C2221 1.334 . S
C2222 C2223 1.287 . S
C2223 C2222 1.287 . S
C2223 C2224 1.524 . S
C2223 H2226 0.999 . S
C2224 H2194 0.950 . S
C2224 C2223 1.524 . S
C2224 C2225 1.415 . S
C2225 H2195 0.950 . S
C2225 C2220 1.363 . S
C2225 C2224 1.415 . S
H2226 C2223 0.999 . S
H2227 C2208 0.913 . S
H2228 C2246 0.951 . S
H2229 C2248 0.951 . S
H2230 C2250 0.950 . S
H2231 C2251 0.950 . S
H2232 C2253 0.950 . S
H2233 C2256 0.950 . S
H2234 C2257 0.950 . S
H2235 C2259 0.950 1_455 S
H2236 C2260 0.950 . S
H2237 C2261 0.951 . S
H2238 C2263 0.951 . S
H2239 C2265 0.950 . S
H2240 C2266 0.950 . S
H2241 C2268 0.950 . S
H2242 C2271 0.950 . S
H2243 C2272 0.950 . S
H2244 C2274 0.950 . S
H2245 C2275 0.950 . S
C2246 H2228 0.951 . S
C2246 C2247 1.366 . S
C2246 C2248 1.388 . S
C2247 C2246 1.366 . S
C2247 C2251 1.385 . S
C2248 H2229 0.951 . S
C2248 C2246 1.388 . S
C2248 C2249 1.366 . S
C2249 C2248 1.366 . S
C2249 C2250 1.414 . S
C2249 C2252 1.499 . S
C2250 H2230 0.950 . S
C2250 C2249 1.414 . S
C2250 C2251 1.374 . S
C2251 H2231 0.950 . S
C2251 C2247 1.385 . S
C2251 C2250 1.374 . S
C2252 C2249 1.499 . S
C2252 C2253 1.373 . S
C2252 C2254 1.389 . S
C2253 H2232 0.950 . S
C2253 C2252 1.373 . S
C2253 C2269 1.377 . S
C2254 C2252 1.389 . S
C2254 C2255 1.524 . S
C2254 C2268 1.377 . S
C2255 C2254 1.524 . S
C2255 C2256 1.397 . S
C2255 C2260 1.363 . S
C2256 H2233 0.950 . S
C2256 C2255 1.397 . S
C2256 C2257 1.334 . S
C2257 H2234 0.950 . S
C2257 C2256 1.334 . S
C2257 C2258 1.287 . S
C2258 C2257 1.287 . S
C2258 C2259 1.524 . S
C2258 H2277 0.913 . S
C2259 H2235 0.950 1_655 S
C2259 C2258 1.524 . S
C2259 C2260 1.415 . S
C2260 H2236 0.950 . S
C2260 C2255 1.363 . S
C2260 C2259 1.415 . S
C2261 H2237 0.951 . S
C2261 C2262 1.366 . S
C2261 C2263 1.388 . S
C2262 C2261 1.366 . S
C2262 C2266 1.385 . S
C2263 H2238 0.951 . S
C2263 C2261 1.388 . S
C2263 C2264 1.366 . S
C2264 C2263 1.366 . S
C2264 C2265 1.414 . S
C2264 C2267 1.499 . S
C2265 H2239 0.950 . S
C2265 C2264 1.414 . S
C2265 C2266 1.374 . S
C2266 H2240 0.950 . S
C2266 C2262 1.385 . S
C2266 C2265 1.374 . S
C2267 C2264 1.499 . S
C2267 C2268 1.373 . S
C2267 C2269 1.389 . S
C2268 H2241 0.950 . S
C2268 C2254 1.377 . S
C2268 C2267 1.373 . S
C2269 C2253 1.377 . S
C2269 C2267 1.389 . S
C2269 C2270 1.524 . S
C2270 C2269 1.524 . S
C2270 C2271 1.397 . S
C2270 C2275 1.363 . S
C2271 H2242 0.950 . S
C2271 C2270 1.397 . S
C2271 C2272 1.334 . S
C2272 H2243 0.950 . S
C2272 C2271 1.334 . S
C2272 C2273 1.287 . S
C2273 C2272 1.287 . S
C2273 C2274 1.524 . S
C2273 H2276 0.999 . S
C2274 H2244 0.950 . S
C2274 C2273 1.524 . S
C2274 C2275 1.415 . S
C2275 H2245 0.950 . S
C2275 C2270 1.363 . S
C2275 C2274 1.415 . S
H2276 C2273 0.999 . S
H2277 C2258 0.913 . S
H2278 C2296 0.951 . S
H2279 C2298 0.951 . S
H2280 C2300 0.950 . S
H2281 C2301 0.950 . S
H2282 C2303 0.950 . S
H2283 C2306 0.950 . S
H2284 C2307 0.950 . S
H2285 C2309 0.950 . S
H2286 C2310 0.950 . S
H2287 C2311 0.951 . S
H2288 C2313 0.951 . S
H2289 C2315 0.950 . S
H2290 C2316 0.950 . S
H2291 C2318 0.950 . S
H2292 C2321 0.950 . S
H2293 C2322 0.950 . S
H2294 C2324 0.950 . S
H2295 C2325 0.950 . S
C2296 H2278 0.951 . S
C2296 C2297 1.366 . S
C2296 C2298 1.388 . S
C2297 C2296 1.366 . S
C2297 C2301 1.385 . S
C2298 H2279 0.951 . S
C2298 C2296 1.388 . S
C2298 C2299 1.366 . S
C2299 C2298 1.366 . S
C2299 C2300 1.414 . S
C2299 C2302 1.499 . S
C2300 H2280 0.950 . S
C2300 C2299 1.414 . S
C2300 C2301 1.374 . S
C2301 H2281 0.950 . S
C2301 C2297 1.385 . S
C2301 C2300 1.374 . S
C2302 C2299 1.499 . S
C2302 C2303 1.373 . S
C2302 C2304 1.389 . S
C2303 H2282 0.950 . S
C2303 C2302 1.373 . S
C2303 C2319 1.377 . S
C2304 C2302 1.389 . S
C2304 C2305 1.524 . S
C2304 C2318 1.377 . S
C2305 C2304 1.524 . S
C2305 C2306 1.397 . S
C2305 C2310 1.363 . S
C2306 H2283 0.950 . S
C2306 C2305 1.397 . S
C2306 C2307 1.334 1_565 S
C2307 H2284 0.950 . S
C2307 C2306 1.334 1_545 S
C2307 C2308 1.287 . S
C2308 C2307 1.287 . S
C2308 C2309 1.524 . S
C2308 H2327 0.913 . S
C2309 H2285 0.950 . S
C2309 C2308 1.524 . S
C2309 C2310 1.415 1_545 S
C2310 H2286 0.950 . S
C2310 C2305 1.363 . S
C2310 C2309 1.415 1_565 S
C2311 H2287 0.951 . S
C2311 C2312 1.366 . S
C2311 C2313 1.388 . S
C2312 C2311 1.366 . S
C2312 C2316 1.385 . S
C2313 H2288 0.951 . S
C2313 C2311 1.388 . S
C2313 C2314 1.366 . S
C2314 C2313 1.366 . S
C2314 C2315 1.414 . S
C2314 C2317 1.499 . S
C2315 H2289 0.950 . S
C2315 C2314 1.414 . S
C2315 C2316 1.374 . S
C2316 H2290 0.950 . S
C2316 C2312 1.385 . S
C2316 C2315 1.374 . S
C2317 C2314 1.499 . S
C2317 C2318 1.373 . S
C2317 C2319 1.389 . S
C2318 H2291 0.950 . S
C2318 C2304 1.377 . S
C2318 C2317 1.373 . S
C2319 C2303 1.377 . S
C2319 C2317 1.389 . S
C2319 C2320 1.524 . S
C2320 C2319 1.524 . S
C2320 C2321 1.397 . S
C2320 C2325 1.363 . S
C2321 H2292 0.950 . S
C2321 C2320 1.397 . S
C2321 C2322 1.334 . S
C2322 H2293 0.950 . S
C2322 C2321 1.334 . S
C2322 C2323 1.287 . S
C2323 C2322 1.287 . S
C2323 C2324 1.524 . S
C2323 H2326 0.999 . S
C2324 H2294 0.950 . S
C2324 C2323 1.524 . S
C2324 C2325 1.415 . S
C2325 H2295 0.950 . S
C2325 C2320 1.363 . S
C2325 C2324 1.415 . S
H2326 C2323 0.999 . S
H2327 C2308 0.913 . S
H2328 C2346 0.951 . S
H2329 C2348 0.951 . S
H2330 C2350 0.950 . S
H2331 C2351 0.950 . S
H2332 C2353 0.950 . S
H2333 C2356 0.950 . S
H2334 C2357 0.950 . S
H2335 C2359 0.950 . S
H2336 C2360 0.950 . S
H2337 C2361 0.951 . S
H2338 C2363 0.951 . S
H2339 C2365 0.950 . S
H2340 C2366 0.950 . S
H2341 C2368 0.950 . S
H2342 C2371 0.950 . S
H2343 C2372 0.950 . S
H2344 C2374 0.950 . S
H2345 C2375 0.950 . S
C2346 H2328 0.951 . S
C2346 C2347 1.366 . S
C2346 C2348 1.388 . S
C2347 C2346 1.366 . S
C2347 C2351 1.385 . S
C2348 H2329 0.951 . S
C2348 C2346 1.388 . S
C2348 C2349 1.366 . S
C2349 C2348 1.366 . S
C2349 C2350 1.414 . S
C2349 C2352 1.499 . S
C2350 H2330 0.950 . S
C2350 C2349 1.414 . S
C2350 C2351 1.374 . S
C2351 H2331 0.950 . S
C2351 C2347 1.385 . S
C2351 C2350 1.374 . S
C2352 C2349 1.499 . S
C2352 C2353 1.373 . S
C2352 C2354 1.389 . S
C2353 H2332 0.950 . S
C2353 C2352 1.373 . S
C2353 C2369 1.377 . S
C2354 C2352 1.389 . S
C2354 C2355 1.524 . S
C2354 C2368 1.377 . S
C2355 C2354 1.524 . S
C2355 C2356 1.397 . S
C2355 C2360 1.363 . S
C2356 H2333 0.950 . S
C2356 C2355 1.397 . S
C2356 C2357 1.334 . S
C2357 H2334 0.950 . S
C2357 C2356 1.334 . S
C2357 C2358 1.287 . S
C2358 C2357 1.287 . S
C2358 C2359 1.524 . S
C2358 H2377 0.913 . S
C2359 H2335 0.950 . S
C2359 C2358 1.524 . S
C2359 C2360 1.415 . S
C2360 H2336 0.950 . S
C2360 C2355 1.363 . S
C2360 C2359 1.415 . S
C2361 H2337 0.951 . S
C2361 C2362 1.366 . S
C2361 C2363 1.388 . S
C2362 C2361 1.366 . S
C2362 C2366 1.385 . S
C2363 H2338 0.951 . S
C2363 C2361 1.388 . S
C2363 C2364 1.366 . S
C2364 C2363 1.366 . S
C2364 C2365 1.414 . S
C2364 C2367 1.499 . S
C2365 H2339 0.950 . S
C2365 C2364 1.414 . S
C2365 C2366 1.374 . S
C2366 H2340 0.950 . S
C2366 C2362 1.385 . S
C2366 C2365 1.374 . S
C2367 C2364 1.499 . S
C2367 C2368 1.373 . S
C2367 C2369 1.389 . S
C2368 H2341 0.950 . S
C2368 C2354 1.377 . S
C2368 C2367 1.373 . S
C2369 C2353 1.377 . S
C2369 C2367 1.389 . S
C2369 C2370 1.524 . S
C2370 C2369 1.524 . S
C2370 C2371 1.397 . S
C2370 C2375 1.363 . S
C2371 H2342 0.950 . S
C2371 C2370 1.397 . S
C2371 C2372 1.334 . S
C2372 H2343 0.950 . S
C2372 C2371 1.334 . S
C2372 C2373 1.287 . S
C2373 C2372 1.287 . S
C2373 C2374 1.524 . S
C2373 H2376 0.999 . S
C2374 H2344 0.950 . S
C2374 C2373 1.524 . S
C2374 C2375 1.415 . S
C2375 H2345 0.950 . S
C2375 C2370 1.363 . S
C2375 C2374 1.415 . S
H2376 C2373 0.999 . S
H2377 C2358 0.913 . S
H2378 C2396 0.951 . S
H2379 C2398 0.951 . S
H2380 C2400 0.950 . S
H2381 C2401 0.950 . S
H2382 C2403 0.950 . S
H2383 C2406 0.950 . S
H2384 C2407 0.950 . S
H2385 C2409 0.950 . S
H2386 C2410 0.950 . S
H2387 C2411 0.951 . S
H2388 C2413 0.951 . S
H2389 C2415 0.950 . S
H2390 C2416 0.950 . S
H2391 C2418 0.950 . S
H2392 C2421 0.950 . S
H2393 C2422 0.950 . S
H2394 C2424 0.950 . S
H2395 C2425 0.950 . S
C2396 H2378 0.951 . S
C2396 C2397 1.366 . S
C2396 C2398 1.388 . S
C2397 C2396 1.366 . S
C2397 C2401 1.385 . S
C2398 H2379 0.951 . S
C2398 C2396 1.388 . S
C2398 C2399 1.366 . S
C2399 C2398 1.366 . S
C2399 C2400 1.414 . S
C2399 C2402 1.499 . S
C2400 H2380 0.950 . S
C2400 C2399 1.414 . S
C2400 C2401 1.374 . S
C2401 H2381 0.950 . S
C2401 C2397 1.385 . S
C2401 C2400 1.374 . S
C2402 C2399 1.499 . S
C2402 C2403 1.373 . S
C2402 C2404 1.389 . S
C2403 H2382 0.950 . S
C2403 C2402 1.373 . S
C2403 C2419 1.377 . S
C2404 C2402 1.389 . S
C2404 C2405 1.524 . S
C2404 C2418 1.377 . S
C2405 C2404 1.524 . S
C2405 C2406 1.397 . S
C2405 C2410 1.363 . S
C2406 H2383 0.950 . S
C2406 C2405 1.397 . S
C2406 C2407 1.334 . S
C2407 H2384 0.950 . S
C2407 C2406 1.334 . S
C2407 C2408 1.287 . S
C2408 C2407 1.287 . S
C2408 C2409 1.524 . S
C2408 H2427 0.913 . S
C2409 H2385 0.950 . S
C2409 C2408 1.524 . S
C2409 C2410 1.415 . S
C2410 H2386 0.950 . S
C2410 C2405 1.363 . S
C2410 C2409 1.415 . S
C2411 H2387 0.951 . S
C2411 C2412 1.366 . S
C2411 C2413 1.388 . S
C2412 C2411 1.366 . S
C2412 C2416 1.385 . S
C2413 H2388 0.951 . S
C2413 C2411 1.388 . S
C2413 C2414 1.366 . S
C2414 C2413 1.366 . S
C2414 C2415 1.414 . S
C2414 C2417 1.499 . S
C2415 H2389 0.950 . S
C2415 C2414 1.414 . S
C2415 C2416 1.374 . S
C2416 H2390 0.950 . S
C2416 C2412 1.385 . S
C2416 C2415 1.374 . S
C2417 C2414 1.499 . S
C2417 C2418 1.373 . S
C2417 C2419 1.389 . S
C2418 H2391 0.950 . S
C2418 C2404 1.377 . S
C2418 C2417 1.373 . S
C2419 C2403 1.377 . S
C2419 C2417 1.389 . S
C2419 C2420 1.524 . S
C2420 C2419 1.524 . S
C2420 C2421 1.397 . S
C2420 C2425 1.363 . S
C2421 H2392 0.950 . S
C2421 C2420 1.397 . S
C2421 C2422 1.334 . S
C2422 H2393 0.950 . S
C2422 C2421 1.334 . S
C2422 C2423 1.287 . S
C2423 C2422 1.287 . S
C2423 C2424 1.524 . S
C2423 H2426 0.999 . S
C2424 H2394 0.950 . S
C2424 C2423 1.524 . S
C2424 C2425 1.415 . S
C2425 H2395 0.950 . S
C2425 C2420 1.363 . S
C2425 C2424 1.415 . S
H2426 C2423 0.999 . S
H2427 C2408 0.913 . S
H2428 C2446 0.951 . S
H2429 C2448 0.951 . S
H2430 C2450 0.950 . S
H2431 C2451 0.950 . S
H2432 C2453 0.950 . S
H2433 C2456 0.950 . S
H2434 C2457 0.950 . S
H2435 C2459 0.950 . S
H2436 C2460 0.950 . S
H2437 C2461 0.951 . S
H2438 C2463 0.951 . S
H2439 C2465 0.950 . S
H2440 C2466 0.950 . S
H2441 C2468 0.950 . S
H2442 C2471 0.950 . S
H2443 C2472 0.950 . S
H2444 C2474 0.950 . S
H2445 C2475 0.950 . S
C2446 H2428 0.951 . S
C2446 C2447 1.366 . S
C2446 C2448 1.388 . S
C2447 C2446 1.366 . S
C2447 C2451 1.385 . S
C2448 H2429 0.951 . S
C2448 C2446 1.388 . S
C2448 C2449 1.366 . S
C2449 C2448 1.366 . S
C2449 C2450 1.414 . S
C2449 C2452 1.499 . S
C2450 H2430 0.950 . S
C2450 C2449 1.414 . S
C2450 C2451 1.374 . S
C2451 H2431 0.950 . S
C2451 C2447 1.385 . S
C2451 C2450 1.374 . S
C2452 C2449 1.499 . S
C2452 C2453 1.373 . S
C2452 C2454 1.389 . S
C2453 H2432 0.950 . S
C2453 C2452 1.373 . S
C2453 C2469 1.377 . S
C2454 C2452 1.389 . S
C2454 C2455 1.524 . S
C2454 C2468 1.377 . S
C2455 C2454 1.524 . S
C2455 C2456 1.397 . S
C2455 C2460 1.363 . S
C2456 H2433 0.950 . S
C2456 C2455 1.397 . S
C2456 C2457 1.334 . S
C2457 H2434 0.950 . S
C2457 C2456 1.334 . S
C2457 C2458 1.287 . S
C2458 C2457 1.287 . S
C2458 C2459 1.524 . S
C2458 H2477 0.913 . S
C2459 H2435 0.950 . S
C2459 C2458 1.524 . S
C2459 C2460 1.415 . S
C2460 H2436 0.950 . S
C2460 C2455 1.363 . S
C2460 C2459 1.415 . S
C2461 H2437 0.951 . S
C2461 C2462 1.366 . S
C2461 C2463 1.388 . S
C2462 C2461 1.366 . S
C2462 C2466 1.385 . S
C2463 H2438 0.951 . S
C2463 C2461 1.388 . S
C2463 C2464 1.366 . S
C2464 C2463 1.366 . S
C2464 C2465 1.414 . S
C2464 C2467 1.499 . S
C2465 H2439 0.950 . S
C2465 C2464 1.414 . S
C2465 C2466 1.374 . S
C2466 H2440 0.950 . S
C2466 C2462 1.385 . S
C2466 C2465 1.374 . S
C2467 C2464 1.499 . S
C2467 C2468 1.373 . S
C2467 C2469 1.389 . S
C2468 H2441 0.950 . S
C2468 C2454 1.377 . S
C2468 C2467 1.373 . S
C2469 C2453 1.377 . S
C2469 C2467 1.389 . S
C2469 C2470 1.524 . S
C2470 C2469 1.524 . S
C2470 C2471 1.397 . S
C2470 C2475 1.363 . S
C2471 H2442 0.950 . S
C2471 C2470 1.397 . S
C2471 C2472 1.334 . S
C2472 H2443 0.950 . S
C2472 C2471 1.334 . S
C2472 C2473 1.287 . S
C2473 C2472 1.287 . S
C2473 C2474 1.524 . S
C2473 H2476 0.999 . S
C2474 H2444 0.950 . S
C2474 C2473 1.524 . S
C2474 C2475 1.415 . S
C2475 H2445 0.950 . S
C2475 C2470 1.363 . S
C2475 C2474 1.415 . S
H2476 C2473 0.999 . S
H2477 C2458 0.913 . S
H2478 C2496 0.951 . S
H2479 C2498 0.951 . S
H2480 C2500 0.950 . S
H2481 C2501 0.950 . S
H2482 C2503 0.950 . S
H2483 C2506 0.950 . S
H2484 C2507 0.950 . S
H2485 C2509 0.950 . S
H2486 C2510 0.950 . S
H2487 C2511 0.951 . S
H2488 C2513 0.951 . S
H2489 C2515 0.950 . S
H2490 C2516 0.950 . S
H2491 C2518 0.950 . S
H2492 C2521 0.950 . S
H2493 C2522 0.950 . S
H2494 C2524 0.950 . S
H2495 C2525 0.950 . S
C2496 H2478 0.951 . S
C2496 C2497 1.366 . S
C2496 C2498 1.388 . S
C2497 C2496 1.366 . S
C2497 C2501 1.385 . S
C2498 H2479 0.951 . S
C2498 C2496 1.388 . S
C2498 C2499 1.366 . S
C2499 C2498 1.366 . S
C2499 C2500 1.414 . S
C2499 C2502 1.499 . S
C2500 H2480 0.950 . S
C2500 C2499 1.414 . S
C2500 C2501 1.374 . S
C2501 H2481 0.950 . S
C2501 C2497 1.385 . S
C2501 C2500 1.374 . S
C2502 C2499 1.499 . S
C2502 C2503 1.373 . S
C2502 C2504 1.389 . S
C2503 H2482 0.950 . S
C2503 C2502 1.373 . S
C2503 C2519 1.377 . S
C2504 C2502 1.389 . S
C2504 C2505 1.524 . S
C2504 C2518 1.377 . S
C2505 C2504 1.524 . S
C2505 C2506 1.397 . S
C2505 C2510 1.363 . S
C2506 H2483 0.950 . S
C2506 C2505 1.397 . S
C2506 C2507 1.334 . S
C2507 H2484 0.950 . S
C2507 C2506 1.334 . S
C2507 C2508 1.287 1_655 S
C2508 C2507 1.287 1_455 S
C2508 C2509 1.524 . S
C2508 H2527 0.913 . S
C2509 H2485 0.950 . S
C2509 C2508 1.524 . S
C2509 C2510 1.415 1_455 S
C2510 H2486 0.950 . S
C2510 C2505 1.363 . S
C2510 C2509 1.415 1_655 S
C2511 H2487 0.951 . S
C2511 C2512 1.366 . S
C2511 C2513 1.388 . S
C2512 C2511 1.366 . S
C2512 C2516 1.385 . S
C2513 H2488 0.951 . S
C2513 C2511 1.388 . S
C2513 C2514 1.366 . S
C2514 C2513 1.366 . S
C2514 C2515 1.414 . S
C2514 C2517 1.499 . S
C2515 H2489 0.950 . S
C2515 C2514 1.414 . S
C2515 C2516 1.374 . S
C2516 H2490 0.950 . S
C2516 C2512 1.385 . S
C2516 C2515 1.374 . S
C2517 C2514 1.499 . S
C2517 C2518 1.373 . S
C2517 C2519 1.389 . S
C2518 H2491 0.950 . S
C2518 C2504 1.377 . S
C2518 C2517 1.373 . S
C2519 C2503 1.377 . S
C2519 C2517 1.389 . S
C2519 C2520 1.524 . S
C2520 C2519 1.524 . S
C2520 C2521 1.397 . S
C2520 C2525 1.363 . S
C2521 H2492 0.950 . S
C2521 C2520 1.397 . S
C2521 C2522 1.334 . S
C2522 H2493 0.950 . S
C2522 C2521 1.334 . S
C2522 C2523 1.287 . S
C2523 C2522 1.287 . S
C2523 C2524 1.524 . S
C2523 H2526 0.999 . S
C2524 H2494 0.950 . S
C2524 C2523 1.524 . S
C2524 C2525 1.415 . S
C2525 H2495 0.950 . S
C2525 C2520 1.363 . S
C2525 C2524 1.415 . S
H2526 C2523 0.999 . S
H2527 C2508 0.913 . S
C547 N13 0.649 . S
C562 C54 0.644 . S
C597 C87 0.645 . S
C612 N46 0.648 . S
C647 C120 0.645 1_655 S
C662 N79 0.649 . S
C697 N112 0.648 . S
C712 C21 0.645 1_565 S
C747 C252 0.645 1_455 S
C762 N145 0.648 . S
C797 C153 0.645 1_545 S
C812 N178 0.648 . S
C847 C186 0.645 . S
C862 N211 0.649 . S
C897 N244 0.649 . S
C912 C219 0.644 . S
C947 N277 0.649 . S
C962 C318 0.644 . S
C997 N310 0.648 . S
C1012 C351 0.645 . S
C1047 C384 0.644 1_455 S
C1062 N343 0.649 . S
C1097 C285 0.644 1_545 S
C1112 N376 0.649 . S
C1147 C516 0.645 1_655 S
C1162 N409 0.648 . S
C1197 C417 0.644 1_565 S
C1212 N442 0.649 . S
C1247 N475 0.648 . S
C1262 C450 0.645 . S
C1297 N508 0.648 . S
C1312 C483 0.645 . S
C1347 N2 1.941 . S
C1362 N68 1.941 . S
C1397 N35 1.941 . S
C1412 N101 1.941 . S
C1447 N200 1.941 . S
C1462 N134 1.941 . S
C1497 N233 1.941 . S
C1512 N167 1.941 . S
C1547 N332 1.941 . S
C1562 N266 1.941 . S
C1597 N299 1.941 . S
C1612 N365 1.941 . S
C1647 N398 1.941 . S
C1662 N464 1.941 . S
C1697 N431 1.941 . S
C1712 N497 1.941 . S
C1747 C18 1.807 . S
C1762 C282 1.807 . S
C1797 C51 1.808 . S
C1812 C315 1.808 . S
C1847 C84 1.807 . S
C1862 C348 1.807 . S
C1897 C381 1.808 . S
C1912 C117 1.808 . S
C1947 C414 1.808 . S
C1962 C150 1.808 . S
C1997 C183 1.808 . S
C2012 C447 1.808 . S
C2047 C216 1.808 . S
C2062 C480 1.808 . S
C2097 C513 1.807 . S
C2112 C249 1.807 . S
C2147 C172 1.609 . S
C2162 C7 1.609 . S
C2197 C205 1.609 . S
C2212 C40 1.609 . S
C2247 C73 1.609 . S
C2262 C238 1.609 . S
C2297 C139 1.609 . S
C2312 C106 1.609 . S
C2347 C271 1.609 . S
C2362 C436 1.609 . S
C2397 C469 1.609 . S
C2412 C304 1.609 . S
C2447 C502 1.609 . S
C2462 C337 1.609 . S
C2497 C370 1.609 . S
C2512 C403 1.609 . S
