# Generated by pormake.
# Topology ato, (4)-cn, num edge types: 1
# Building blocks:
#     Node 0, Type 0, BuildingBlock: QUQFOY_clean_sbu_1, # of connection points: 4
#     Node 1, Type 0, BuildingBlock: QUQFOY_clean_sbu_1, # of connection points: 4
#     Node 2, Type 0, BuildingBlock: QUQFOY_clean_sbu_1, # of connection points: 4
#     Node 3, Type 0, BuildingBlock: QUQFOY_clean_sbu_1, # of connection points: 4
#     Node 4, Type 0, BuildingBlock: QUQFOY_clean_sbu_1, # of connection points: 4
#     Node 5, Type 0, BuildingBlock: QUQFOY_clean_sbu_1, # of connection points: 4
#     Node 6, Type 0, BuildingBlock: QUQFOY_clean_sbu_1, # of connection points: 4
#     Node 7, Type 0, BuildingBlock: QUQFOY_clean_sbu_1, # of connection points: 4
#     Node 8, Type 0, BuildingBlock: QUQFOY_clean_sbu_1, # of connection points: 4
#     Node 9, Type 0, BuildingBlock: QUQFOY_clean_sbu_1, # of connection points: 4
#     Node 10, Type 0, BuildingBlock: QUQFOY_clean_sbu_1, # of connection points: 4
#     Node 11, Type 0, BuildingBlock: QUQFOY_clean_sbu_1, # of connection points: 4
#     Node 12, Type 0, BuildingBlock: QUQFOY_clean_sbu_1, # of connection points: 4
#     Node 13, Type 0, BuildingBlock: QUQFOY_clean_sbu_1, # of connection points: 4
#     Node 14, Type 0, BuildingBlock: QUQFOY_clean_sbu_1, # of connection points: 4
#     Node 15, Type 0, BuildingBlock: QUQFOY_clean_sbu_1, # of connection points: 4
#     Node 16, Type 0, BuildingBlock: QUQFOY_clean_sbu_1, # of connection points: 4
#     Node 17, Type 0, BuildingBlock: QUQFOY_clean_sbu_1, # of connection points: 4
#     Node 18, Type 0, BuildingBlock: QUQFOY_clean_sbu_1, # of connection points: 4
#     Node 19, Type 0, BuildingBlock: QUQFOY_clean_sbu_1, # of connection points: 4
#     Node 20, Type 0, BuildingBlock: QUQFOY_clean_sbu_1, # of connection points: 4
#     Node 21, Type 0, BuildingBlock: QUQFOY_clean_sbu_1, # of connection points: 4
#     Node 22, Type 0, BuildingBlock: QUQFOY_clean_sbu_1, # of connection points: 4
#     Node 23, Type 0, BuildingBlock: QUQFOY_clean_sbu_1, # of connection points: 4
#     Node 24, Type 0, BuildingBlock: QUQFOY_clean_sbu_1, # of connection points: 4
#     Node 25, Type 0, BuildingBlock: QUQFOY_clean_sbu_1, # of connection points: 4
#     Node 26, Type 0, BuildingBlock: QUQFOY_clean_sbu_1, # of connection points: 4
#     Node 27, Type 0, BuildingBlock: QUQFOY_clean_sbu_1, # of connection points: 4
#     Node 28, Type 0, BuildingBlock: QUQFOY_clean_sbu_1, # of connection points: 4
#     Node 29, Type 0, BuildingBlock: QUQFOY_clean_sbu_1, # of connection points: 4
#     Node 30, Type 0, BuildingBlock: QUQFOY_clean_sbu_1, # of connection points: 4
#     Node 31, Type 0, BuildingBlock: QUQFOY_clean_sbu_1, # of connection points: 4
#     Node 32, Type 0, BuildingBlock: QUQFOY_clean_sbu_1, # of connection points: 4
#     Node 33, Type 0, BuildingBlock: QUQFOY_clean_sbu_1, # of connection points: 4
#     Node 34, Type 0, BuildingBlock: QUQFOY_clean_sbu_1, # of connection points: 4
#     Node 35, Type 0, BuildingBlock: QUQFOY_clean_sbu_1, # of connection points: 4
#     Edge 36, Type (0, 0), BuildingBlock: AJUNOK_clean_linker_0, # of connection points: 2
#     Edge 37, Type (0, 0), BuildingBlock: AJUNOK_clean_linker_0, # of connection points: 2
#     Edge 38, Type (0, 0), BuildingBlock: AJUNOK_clean_linker_0, # of connection points: 2
#     Edge 39, Type (0, 0), BuildingBlock: AJUNOK_clean_linker_0, # of connection points: 2
#     Edge 40, Type (0, 0), BuildingBlock: AJUNOK_clean_linker_0, # of connection points: 2
#     Edge 41, Type (0, 0), BuildingBlock: AJUNOK_clean_linker_0, # of connection points: 2
#     Edge 42, Type (0, 0), BuildingBlock: AJUNOK_clean_linker_0, # of connection points: 2
#     Edge 43, Type (0, 0), BuildingBlock: AJUNOK_clean_linker_0, # of connection points: 2
#     Edge 44, Type (0, 0), BuildingBlock: AJUNOK_clean_linker_0, # of connection points: 2
#     Edge 45, Type (0, 0), BuildingBlock: AJUNOK_clean_linker_0, # of connection points: 2
#     Edge 46, Type (0, 0), BuildingBlock: AJUNOK_clean_linker_0, # of connection points: 2
#     Edge 47, Type (0, 0), BuildingBlock: AJUNOK_clean_linker_0, # of connection points: 2
#     Edge 48, Type (0, 0), BuildingBlock: AJUNOK_clean_linker_0, # of connection points: 2
#     Edge 49, Type (0, 0), BuildingBlock: AJUNOK_clean_linker_0, # of connection points: 2
#     Edge 50, Type (0, 0), BuildingBlock: AJUNOK_clean_linker_0, # of connection points: 2
#     Edge 51, Type (0, 0), BuildingBlock: AJUNOK_clean_linker_0, # of connection points: 2
#     Edge 52, Type (0, 0), BuildingBlock: AJUNOK_clean_linker_0, # of connection points: 2
#     Edge 53, Type (0, 0), BuildingBlock: AJUNOK_clean_linker_0, # of connection points: 2
#     Edge 54, Type (0, 0), BuildingBlock: AJUNOK_clean_linker_0, # of connection points: 2
#     Edge 55, Type (0, 0), BuildingBlock: AJUNOK_clean_linker_0, # of connection points: 2
#     Edge 56, Type (0, 0), BuildingBlock: AJUNOK_clean_linker_0, # of connection points: 2
#     Edge 57, Type (0, 0), BuildingBlock: AJUNOK_clean_linker_0, # of connection points: 2
#     Edge 58, Type (0, 0), BuildingBlock: AJUNOK_clean_linker_0, # of connection points: 2
#     Edge 59, Type (0, 0), BuildingBlock: AJUNOK_clean_linker_0, # of connection points: 2
#     Edge 60, Type (0, 0), BuildingBlock: AJUNOK_clean_linker_0, # of connection points: 2
#     Edge 61, Type (0, 0), BuildingBlock: AJUNOK_clean_linker_0, # of connection points: 2
#     Edge 62, Type (0, 0), BuildingBlock: AJUNOK_clean_linker_0, # of connection points: 2
#     Edge 63, Type (0, 0), BuildingBlock: AJUNOK_clean_linker_0, # of connection points: 2
#     Edge 64, Type (0, 0), BuildingBlock: AJUNOK_clean_linker_0, # of connection points: 2
#     Edge 65, Type (0, 0), BuildingBlock: AJUNOK_clean_linker_0, # of connection points: 2
#     Edge 66, Type (0, 0), BuildingBlock: AJUNOK_clean_linker_0, # of connection points: 2
#     Edge 67, Type (0, 0), BuildingBlock: AJUNOK_clean_linker_0, # of connection points: 2
#     Edge 68, Type (0, 0), BuildingBlock: AJUNOK_clean_linker_0, # of connection points: 2
#     Edge 69, Type (0, 0), BuildingBlock: AJUNOK_clean_linker_0, # of connection points: 2
#     Edge 70, Type (0, 0), BuildingBlock: AJUNOK_clean_linker_0, # of connection points: 2
#     Edge 71, Type (0, 0), BuildingBlock: AJUNOK_clean_linker_0, # of connection points: 2
#     Edge 72, Type (0, 0), BuildingBlock: AJUNOK_clean_linker_0, # of connection points: 2
#     Edge 73, Type (0, 0), BuildingBlock: AJUNOK_clean_linker_0, # of connection points: 2
#     Edge 74, Type (0, 0), BuildingBlock: AJUNOK_clean_linker_0, # of connection points: 2
#     Edge 75, Type (0, 0), BuildingBlock: AJUNOK_clean_linker_0, # of connection points: 2
#     Edge 76, Type (0, 0), BuildingBlock: AJUNOK_clean_linker_0, # of connection points: 2
#     Edge 77, Type (0, 0), BuildingBlock: AJUNOK_clean_linker_0, # of connection points: 2
#     Edge 78, Type (0, 0), BuildingBlock: AJUNOK_clean_linker_0, # of connection points: 2
#     Edge 79, Type (0, 0), BuildingBlock: AJUNOK_clean_linker_0, # of connection points: 2
#     Edge 80, Type (0, 0), BuildingBlock: AJUNOK_clean_linker_0, # of connection points: 2
#     Edge 81, Type (0, 0), BuildingBlock: AJUNOK_clean_linker_0, # of connection points: 2
#     Edge 82, Type (0, 0), BuildingBlock: AJUNOK_clean_linker_0, # of connection points: 2
#     Edge 83, Type (0, 0), BuildingBlock: AJUNOK_clean_linker_0, # of connection points: 2
#     Edge 84, Type (0, 0), BuildingBlock: AJUNOK_clean_linker_0, # of connection points: 2
#     Edge 85, Type (0, 0), BuildingBlock: AJUNOK_clean_linker_0, # of connection points: 2
#     Edge 86, Type (0, 0), BuildingBlock: AJUNOK_clean_linker_0, # of connection points: 2
#     Edge 87, Type (0, 0), BuildingBlock: AJUNOK_clean_linker_0, # of connection points: 2
#     Edge 88, Type (0, 0), BuildingBlock: AJUNOK_clean_linker_0, # of connection points: 2
#     Edge 89, Type (0, 0), BuildingBlock: AJUNOK_clean_linker_0, # of connection points: 2
#     Edge 90, Type (0, 0), BuildingBlock: AJUNOK_clean_linker_0, # of connection points: 2
#     Edge 91, Type (0, 0), BuildingBlock: AJUNOK_clean_linker_0, # of connection points: 2
#     Edge 92, Type (0, 0), BuildingBlock: AJUNOK_clean_linker_0, # of connection points: 2
#     Edge 93, Type (0, 0), BuildingBlock: AJUNOK_clean_linker_0, # of connection points: 2
#     Edge 94, Type (0, 0), BuildingBlock: AJUNOK_clean_linker_0, # of connection points: 2
#     Edge 95, Type (0, 0), BuildingBlock: AJUNOK_clean_linker_0, # of connection points: 2
#     Edge 96, Type (0, 0), BuildingBlock: AJUNOK_clean_linker_0, # of connection points: 2
#     Edge 97, Type (0, 0), BuildingBlock: AJUNOK_clean_linker_0, # of connection points: 2
#     Edge 98, Type (0, 0), BuildingBlock: AJUNOK_clean_linker_0, # of connection points: 2
#     Edge 99, Type (0, 0), BuildingBlock: AJUNOK_clean_linker_0, # of connection points: 2
#     Edge 100, Type (0, 0), BuildingBlock: AJUNOK_clean_linker_0, # of connection points: 2
#     Edge 101, Type (0, 0), BuildingBlock: AJUNOK_clean_linker_0, # of connection points: 2
#     Edge 102, Type (0, 0), BuildingBlock: AJUNOK_clean_linker_0, # of connection points: 2
#     Edge 103, Type (0, 0), BuildingBlock: AJUNOK_clean_linker_0, # of connection points: 2
#     Edge 104, Type (0, 0), BuildingBlock: AJUNOK_clean_linker_0, # of connection points: 2
#     Edge 105, Type (0, 0), BuildingBlock: AJUNOK_clean_linker_0, # of connection points: 2
#     Edge 106, Type (0, 0), BuildingBlock: AJUNOK_clean_linker_0, # of connection points: 2
#     Edge 107, Type (0, 0), BuildingBlock: AJUNOK_clean_linker_0, # of connection points: 2
# Relax obj value: 0.083
# Max RMSD: 0.156
# Mean RMSD: 0.156
data_MOF--net-ato--node1-QUQFOY_clean_sbu_1--edge1-AJUNOK_clean_linker_0
_symmetry_space_group_name_H-M    P1
_symmetry_Int_Tables_number       1
_symmetry_cell_setting            triclinic
loop_
_symmetry_equiv_pos_as_xyz
'x, y, z'
_cell_length_a     83.362306
_cell_length_b     83.363324
_cell_length_c     18.291933
_cell_angle_alpha  89.997224
_cell_angle_beta   90.003277
_cell_angle_gamma 120.01416
loop_
_atom_site_label
_atom_site_type_symbol
_atom_site_fract_x
_atom_site_fract_y
_atom_site_fract_z
_atom_type_partial_charge
O0 O 0.24246 0.02294 0.17435 0.0
Cd1 Cd 0.25834 0.03861 0.26177 0.0
Cd2 Cd 0.25686 0.06642 0.16796 0.0
O3 O 0.23876 0.04334 0.11004 0.0
O4 O 0.25925 0.01944 0.32457 0.0
O5 O 0.24557 0.03492 0.36003 0.0
C6 C 0.25003 0.02246 0.37359 0.0
C7 C 0.25088 0.09111 0.17572 0.0
C8 C 0.23552 0.02692 0.12021 0.0
C9 C 0.29393 0.06935 0.19595 0.0
O10 O 0.28438 0.07422 0.15777 0.0
O11 O 0.28644 0.05683 0.2446 0.0
O12 O 0.2556 0.08667 0.11537 0.0
O13 O 0.24909 0.08116 0.23256 0.0
O14 O 0.98064 0.2175 0.16189 0.0
Cd15 Cd 0.96693 0.22206 0.24505 0.0
Cd16 Cd 0.93599 0.19027 0.17152 0.0
O17 O 0.95756 0.19397 0.10469 0.0
O18 O 0.9882 0.24063 0.30441 0.0
O19 O 0.9673 0.21319 0.34728 0.0
C20 C 0.98239 0.22879 0.35698 0.0
C21 C 0.91119 0.15967 0.18061 0.0
C22 C 0.97468 0.2058 0.11015 0.0
C23 C 0.93553 0.22666 0.18822 0.0
O24 O 0.92768 0.20981 0.16811 0.0
O25 O 0.95126 0.23425 0.21954 0.0
O26 O 0.91481 0.16914 0.12132 0.0
O27 O 0.92194 0.16749 0.23589 0.0
O28 O 0.78519 0.76115 0.1708 0.0
Cd29 Cd 0.78395 0.74454 0.25692 0.0
Cd30 Cd 0.81474 0.74724 0.17214 0.0
O31 O 0.80983 0.76495 0.11088 0.0
O32 O 0.76455 0.74534 0.3184 0.0
O33 O 0.7931 0.75533 0.35744 0.0
C34 C 0.77674 0.75283 0.36932 0.0
C35 C 0.84567 0.7544 0.18361 0.0
C36 C 0.79655 0.76814 0.11806 0.0
C37 C 0.78067 0.70943 0.19416 0.0
O38 O 0.79599 0.71938 0.16163 0.0
O39 O 0.77401 0.7166 0.23727 0.0
O40 O 0.83692 0.74936 0.12244 0.0
O41 O 0.83693 0.75577 0.23932 0.0
O42 O 0.02265 0.23604 0.82451 0.0
Cd43 Cd 0.03763 0.25474 0.74427 0.0
Cd44 Cd 0.06716 0.25317 0.82328 0.0
O45 O 0.04493 0.23566 0.88822 0.0
O46 O 0.01713 0.25325 0.68302 0.0
O47 O 0.03784 0.24639 0.64091 0.0
C48 C 0.02318 0.2476 0.62998 0.0
C49 C 0.09104 0.24615 0.81253 0.0
C50 C 0.02789 0.23029 0.87856 0.0
C51 C 0.06874 0.29028 0.80742 0.0
O52 O 0.07635 0.28117 0.82872 0.0
O53 O 0.05334 0.28234 0.77361 0.0
O54 O 0.08765 0.2518 0.87287 0.0
O55 O 0.08056 0.2441 0.75723 0.0
O56 O 0.76241 0.78256 0.83374 0.0
Cd57 Cd 0.74455 0.77881 0.74978 0.0
Cd58 Cd 0.74551 0.80999 0.8283 0.0
O59 O 0.76242 0.80521 0.89639 0.0
O60 O 0.74718 0.76022 0.69008 0.0
O61 O 0.75434 0.78791 0.64809 0.0
C62 C 0.75367 0.77224 0.6382 0.0
C63 C 0.75246 0.84092 0.81914 0.0
C64 C 0.7678 0.79352 0.88794 0.0
C65 C 0.70844 0.77434 0.80619 0.0
O66 O 0.71753 0.79096 0.82882 0.0
O67 O 0.71655 0.76685 0.77377 0.0
O68 O 0.74603 0.83143 0.87811 0.0
O69 O 0.75527 0.83291 0.76424 0.0
O70 O 0.21874 0.97616 0.83867 0.0
Cd71 Cd 0.21892 0.96106 0.74907 0.0
Cd72 Cd 0.18886 0.93279 0.83834 0.0
O73 O 0.19389 0.95553 0.89878 0.0
O74 O 0.23934 0.98045 0.68814 0.0
O75 O 0.21027 0.96555 0.65126 0.0
C76 C 0.22731 0.97789 0.63878 0.0
C77 C 0.15815 0.90826 0.82875 0.0
C78 C 0.20751 0.97185 0.89196 0.0
C79 C 0.22277 0.92943 0.8112 0.0
O80 O 0.20821 0.92452 0.8485 0.0
O81 O 0.22823 0.94233 0.76403 0.0
O82 O 0.16713 0.91243 0.88949 0.0
O83 O 0.16648 0.91842 0.77261 0.0
O84 O 0.7585 0.97852 0.83406 0.0
Cd85 Cd 0.74242 0.96335 0.74762 0.0
Cd86 Cd 0.7462 0.93469 0.82453 0.0
O87 O 0.76264 0.95732 0.88969 0.0
O88 O 0.74156 0.98224 0.6836 0.0
O89 O 0.75505 0.9663 0.65035 0.0
C90 C 0.75085 0.97892 0.63577 0.0
C91 C 0.75387 0.91117 0.81774 0.0
C92 C 0.76546 0.97374 0.88552 0.0
C93 C 0.70776 0.9299 0.80342 0.0
O94 O 0.71798 0.92399 0.82926 0.0
O95 O 0.71472 0.94504 0.76805 0.0
O96 O 0.74816 0.91489 0.87714 0.0
O97 O 0.75598 0.92137 0.76143 0.0
O98 O 0.02588 0.77268 0.83525 0.0
Cd99 Cd 0.04114 0.77729 0.74092 0.0
Cd100 Cd 0.06565 0.80661 0.83166 0.0
O101 O 0.04179 0.80006 0.88797 0.0
O102 O 0.02285 0.75753 0.67485 0.0
O103 O 0.03466 0.78727 0.65137 0.0
C104 C 0.02352 0.77027 0.63308 0.0
C105 C 0.08917 0.83782 0.82504 0.0
C106 C 0.02766 0.78396 0.88557 0.0
C107 C 0.07349 0.77574 0.79866 0.0
O108 O 0.07539 0.78828 0.8431 0.0
O109 O 0.06218 0.77106 0.74563 0.0
O110 O 0.08479 0.82868 0.88542 0.0
O111 O 0.07972 0.82937 0.76758 0.0
O112 O 0.22621 0.24988 0.81909 0.0
Cd113 Cd 0.22107 0.26193 0.7303 0.0
Cd114 Cd 0.19145 0.25374 0.82102 0.0
O115 O 0.19827 0.23549 0.86756 0.0
O116 O 0.24142 0.26603 0.66207 0.0
O117 O 0.21194 0.24713 0.63645 0.0
C118 C 0.22912 0.25441 0.61773 0.0
C119 C 0.16022 0.24548 0.81096 0.0
C120 C 0.21471 0.23839 0.86476 0.0
C121 C 0.22075 0.29353 0.80163 0.0
O122 O 0.2087 0.28153 0.84427 0.0
O123 O 0.22564 0.28849 0.74432 0.0
O124 O 0.16842 0.24845 0.87322 0.0
O125 O 0.16962 0.24644 0.75338 0.0
O126 O 0.97542 0.74776 0.17286 0.0
Cd127 Cd 0.9593 0.73753 0.26549 0.0
Cd128 Cd 0.93784 0.74581 0.17703 0.0
O129 O 0.96254 0.76293 0.12557 0.0
O130 O 0.97615 0.73456 0.3346 0.0
O131 O 0.96598 0.75403 0.35484 0.0
C132 C 0.97612 0.74715 0.37522 0.0
C133 C 0.91529 0.75468 0.18631 0.0
C134 C 0.97537 0.75895 0.12581 0.0
C135 C 0.92667 0.70588 0.20049 0.0
O136 O 0.92666 0.71781 0.15735 0.0
O137 O 0.93689 0.71102 0.25704 0.0
O138 O 0.92007 0.75099 0.12446 0.0
O139 O 0.924 0.75415 0.24381 0.0
O140 O 0.24974 0.22534 0.15417 0.0
Cd141 Cd 0.26254 0.22436 0.24811 0.0
Cd142 Cd 0.25927 0.1925 0.16884 0.0
O143 O 0.24281 0.19859 0.10278 0.0
O144 O 0.26307 0.24472 0.30728 0.0
O145 O 0.24813 0.21556 0.34306 0.0
C146 C 0.25291 0.23262 0.35534 0.0
C147 C 0.25181 0.16131 0.17574 0.0
C148 C 0.24208 0.21345 0.1037 0.0
C149 C 0.29754 0.22617 0.19739 0.0
O150 O 0.2876 0.21067 0.16593 0.0
O151 O 0.29026 0.23332 0.23698 0.0
O152 O 0.25779 0.17083 0.11662 0.0
O153 O 0.24942 0.16932 0.23166 0.0
O154 O 0.77975 0.02232 0.17059 0.0
Cd155 Cd 0.77831 0.03747 0.25602 0.0
Cd156 Cd 0.81021 0.06641 0.17634 0.0
O157 O 0.80432 0.0438 0.1117 0.0
O158 O 0.75896 0.01829 0.32046 0.0
O159 O 0.78831 0.03521 0.35359 0.0
C160 C 0.77169 0.02215 0.36839 0.0
C161 C 0.84132 0.09019 0.18258 0.0
C162 C 0.79127 0.02715 0.11834 0.0
C163 C 0.77608 0.07037 0.20012 0.0
O164 O 0.79218 0.07651 0.17354 0.0
O165 O 0.7682 0.05523 0.23554 0.0
O166 O 0.83174 0.08651 0.12355 0.0
O167 O 0.8334 0.07988 0.23883 0.0
O168 O 0.90982 0.35892 0.503 0.0
Cd169 Cd 0.92413 0.37476 0.59244 0.0
Cd170 Cd 0.92041 0.40146 0.50302 0.0
O171 O 0.90336 0.37813 0.44386 0.0
O172 O 0.92625 0.35634 0.65538 0.0
O173 O 0.91031 0.36976 0.68847 0.0
C174 C 0.91585 0.35815 0.70268 0.0
C175 C 0.91312 0.42523 0.51036 0.0
C176 C 0.90203 0.36235 0.45032 0.0
C177 C 0.95867 0.40752 0.53149 0.0
O178 O 0.94835 0.41126 0.49273 0.0
O179 O 0.95178 0.39468 0.57901 0.0
O180 O 0.91793 0.42093 0.44996 0.0
O181 O 0.9117 0.41547 0.56734 0.0
O182 O 0.64256 0.56114 0.48759 0.0
Cd183 Cd 0.62856 0.55857 0.58259 0.0
Cd184 Cd 0.60169 0.5262 0.50465 0.0
O185 O 0.62437 0.53372 0.43747 0.0
O186 O 0.64773 0.57856 0.64516 0.0
O187 O 0.63465 0.54893 0.67384 0.0
C188 C 0.64649 0.56596 0.68927 0.0
C189 C 0.57914 0.4946 0.51103 0.0
C190 C 0.63913 0.5494 0.4372 0.0
C191 C 0.59407 0.55789 0.53481 0.0
O192 O 0.58976 0.5428 0.50222 0.0
O193 O 0.60851 0.56592 0.57434 0.0
O194 O 0.58233 0.50408 0.45199 0.0
O195 O 0.58936 0.50288 0.56707 0.0
O196 O 0.44955 0.09288 0.50919 0.0
Cd197 Cd 0.44809 0.07585 0.59397 0.0
Cd198 Cd 0.47843 0.07836 0.50475 0.0
O199 O 0.47361 0.09636 0.44557 0.0
O200 O 0.42888 0.07692 0.65585 0.0
O201 O 0.45728 0.08626 0.69509 0.0
C202 C 0.44106 0.08415 0.70689 0.0
C203 C 0.50927 0.08496 0.51082 0.0
C204 C 0.46063 0.09988 0.45563 0.0
C205 C 0.44383 0.04087 0.52604 0.0
O206 O 0.45912 0.05077 0.49331 0.0
O207 O 0.4376 0.04789 0.57189 0.0
O208 O 0.49988 0.07994 0.45114 0.0
O209 O 0.50116 0.08641 0.56849 0.0
O210 O 0.69132 0.58678 0.14973 0.0
Cd211 Cd 0.70867 0.5983 0.06114 0.0
Cd212 Cd 0.73024 0.59102 0.15521 0.0
O213 O 0.70522 0.57336 0.20337 0.0
O214 O 0.69225 0.60128 0.98998 0.0
O215 O 0.70336 0.58257 0.97018 0.0
C216 C 0.69305 0.58918 0.94893 0.0
C217 C 0.7527 0.58198 0.1496 0.0
C218 C 0.69155 0.57602 0.19839 0.0
C219 C 0.74031 0.63064 0.13033 0.0
O220 O 0.74076 0.61901 0.17397 0.0
O221 O 0.73026 0.62516 0.07337 0.0
O222 O 0.74775 0.58594 0.21045 0.0
O223 O 0.74455 0.58276 0.09077 0.0
O224 O 0.42564 0.11399 0.17272 0.0
Cd225 Cd 0.40908 0.11171 0.08466 0.0
Cd226 Cd 0.41015 0.14218 0.16743 0.0
O227 O 0.42768 0.13797 0.23235 0.0
O228 O 0.41123 0.09274 0.02535 0.0
O229 O 0.42029 0.12097 0.98466 0.0
C230 C 0.41874 0.10493 0.97447 0.0
C231 C 0.41703 0.17301 0.15576 0.0
C232 C 0.43175 0.12528 0.22597 0.0
C233 C 0.37308 0.1073 0.14303 0.0
O234 O 0.38243 0.12283 0.17485 0.0
O235 O 0.38084 0.10088 0.10182 0.0
O236 O 0.4112 0.16397 0.21605 0.0
O237 O 0.41913 0.16453 0.10077 0.0
O238 O 0.89007 0.31336 0.16611 0.0
Cd239 Cd 0.89169 0.29853 0.0797 0.0
Cd240 Cd 0.86111 0.26896 0.16145 0.0
O241 O 0.86669 0.29118 0.22795 0.0
O242 O 0.91033 0.31811 0.01423 0.0
O243 O 0.88093 0.30047 0.98327 0.0
C244 C 0.89727 0.31392 0.96753 0.0
C245 C 0.83004 0.24519 0.15405 0.0
C246 C 0.87905 0.30807 0.22022 0.0
C247 C 0.89584 0.26647 0.13408 0.0
O248 O 0.87973 0.25954 0.16151 0.0
O249 O 0.90289 0.28161 0.09858 0.0
O250 O 0.83966 0.24841 0.21278 0.0
O251 O 0.83798 0.25583 0.0986 0.0
O252 O 0.4286 0.313 0.16274 0.0
Cd253 Cd 0.41184 0.29806 0.07735 0.0
Cd254 Cd 0.41412 0.2686 0.15638 0.0
O255 O 0.4312 0.29114 0.22077 0.0
O256 O 0.41106 0.31744 0.01619 0.0
O257 O 0.42345 0.30092 0.97764 0.0
C258 C 0.41944 0.31378 0.96553 0.0
C259 C 0.42065 0.24431 0.15072 0.0
C260 C 0.43499 0.30787 0.21516 0.0
C261 C 0.3765 0.26554 0.13571 0.0
O262 O 0.38606 0.25884 0.16125 0.0
O263 O 0.38408 0.28061 0.09979 0.0
O264 O 0.41526 0.24847 0.20991 0.0
O265 O 0.42309 0.25448 0.09397 0.0
O266 O 0.69036 0.11748 0.16537 0.0
Cd267 Cd 0.70505 0.11386 0.08356 0.0
Cd268 Cd 0.73469 0.14595 0.16109 0.0
O269 O 0.71242 0.14127 0.22554 0.0
O270 O 0.68456 0.09514 0.02161 0.0
O271 O 0.70513 0.12304 0.9816 0.0
C272 C 0.69051 0.10718 0.96974 0.0
C273 C 0.75928 0.17667 0.15394 0.0
C274 C 0.6955 0.12902 0.21757 0.0
C275 C 0.73685 0.11046 0.14293 0.0
O276 O 0.74376 0.12706 0.1651 0.0
O277 O 0.72135 0.10243 0.10988 0.0
O278 O 0.75531 0.16716 0.21325 0.0
O279 O 0.74885 0.16889 0.09782 0.0
O280 O 0.8842 0.57765 0.15411 0.0
Cd281 Cd 0.88297 0.59297 0.0678 0.0
Cd282 Cd 0.85268 0.58894 0.16017 0.0
O283 O 0.85916 0.57171 0.21685 0.0
O284 O 0.90379 0.59577 0.00488 0.0
O285 O 0.87461 0.58024 0.96933 0.0
C286 C 0.89184 0.58601 0.95573 0.0
C287 C 0.82143 0.58082 0.1526 0.0
C288 C 0.87319 0.5698 0.2073 0.0
C289 C 0.88488 0.62727 0.13413 0.0
O290 O 0.87069 0.61686 0.17222 0.0
O291 O 0.89083 0.62052 0.08598 0.0
O292 O 0.83041 0.58557 0.21332 0.0
O293 O 0.83012 0.58027 0.09508 0.0
O294 O 0.64813 0.09594 0.50189 0.0
Cd295 Cd 0.63412 0.07789 0.58529 0.0
Cd296 Cd 0.60338 0.07896 0.51009 0.0
O297 O 0.62522 0.09644 0.44355 0.0
O298 O 0.65524 0.08024 0.64458 0.0
O299 O 0.63469 0.08726 0.68745 0.0
C300 C 0.64962 0.08646 0.69712 0.0
C301 C 0.57888 0.08523 0.51397 0.0
C302 C 0.6423 0.1016 0.44944 0.0
C303 C 0.60242 0.04196 0.52917 0.0
O304 O 0.59473 0.05104 0.50838 0.0
O305 O 0.61816 0.05003 0.56039 0.0
O306 O 0.58274 0.07905 0.45623 0.0
O307 O 0.58904 0.088 0.57104 0.0
O308 O 0.90889 0.55704 0.49156 0.0
Cd309 Cd 0.92517 0.55899 0.5792 0.0
Cd310 Cd 0.92345 0.52726 0.50192 0.0
O311 O 0.90733 0.53303 0.43342 0.0
O312 O 0.92505 0.5787 0.64065 0.0
O313 O 0.91278 0.54968 0.67746 0.0
C314 C 0.91635 0.56638 0.69016 0.0
C315 C 0.91562 0.49602 0.51005 0.0
C316 C 0.90324 0.54576 0.43826 0.0
C317 C 0.96101 0.56182 0.52655 0.0
O318 O 0.95159 0.54548 0.50146 0.0
O319 O 0.95317 0.56942 0.56003 0.0
O320 O 0.9222 0.50555 0.45127 0.0
O321 O 0.91305 0.50413 0.56519 0.0
O322 O 0.45009 0.35647 0.50049 0.0
Cd323 Cd 0.44794 0.3717 0.58394 0.0
Cd324 Cd 0.47875 0.4011 0.5015 0.0
O325 O 0.47339 0.37847 0.43785 0.0
O326 O 0.42814 0.35233 0.64641 0.0
O327 O 0.45704 0.36962 0.68408 0.0
C328 C 0.44033 0.35651 0.6969 0.0
C329 C 0.5098 0.4249 0.51 0.0
C330 C 0.46118 0.36156 0.44669 0.0
C331 C 0.4438 0.40338 0.52321 0.0
O332 O 0.46008 0.4105 0.49715 0.0
O333 O 0.43685 0.38841 0.55977 0.0
O334 O 0.50049 0.42136 0.45026 0.0
O335 O 0.50157 0.41457 0.56588 0.0
O336 O 0.57646 0.68782 0.83296 0.0
Cd337 Cd 0.59314 0.70255 0.91886 0.0
Cd338 Cd 0.59165 0.73248 0.84187 0.0
O339 O 0.57455 0.71021 0.77635 0.0
O340 O 0.59249 0.68307 0.98404 0.0
O341 O 0.58079 0.70072 0.01586 0.0
C342 C 0.58378 0.68732 0.03127 0.0
C343 C 0.58412 0.75612 0.8477 0.0
C344 C 0.57035 0.69335 0.78099 0.0
C345 C 0.62904 0.73482 0.86347 0.0
O346 O 0.61975 0.74193 0.83873 0.0
O347 O 0.62112 0.71954 0.89803 0.0
O348 O 0.59039 0.75269 0.78919 0.0
O349 O 0.58199 0.74603 0.90439 0.0
O350 O 0.31219 0.8897 0.82736 0.0
Cd351 Cd 0.29677 0.88873 0.91763 0.0
Cd352 Cd 0.26909 0.85867 0.82963 0.0
O353 O 0.29187 0.86457 0.7681 0.0
O354 O 0.31572 0.90834 0.98251 0.0
O355 O 0.30109 0.87868 0.01194 0.0
C356 C 0.31333 0.89554 0.02793 0.0
C357 C 0.24585 0.82745 0.83619 0.0
C358 C 0.30802 0.87848 0.77417 0.0
C359 C 0.26408 0.89141 0.86032 0.0
O360 O 0.25957 0.87707 0.82205 0.0
O361 O 0.27735 0.89728 0.90597 0.0
O362 O 0.2495 0.83685 0.77669 0.0
O363 O 0.25556 0.83576 0.89332 0.0
O364 O 0.10566 0.41646 0.82624 0.0
Cd365 Cd 0.10727 0.40396 0.91999 0.0
Cd366 Cd 0.13928 0.40792 0.84 0.0
O367 O 0.13233 0.42364 0.77357 0.0
O368 O 0.0869 0.40307 0.98018 0.0
O369 O 0.11618 0.41867 0.01422 0.0
C370 C 0.09907 0.4136 0.02734 0.0
C371 C 0.17088 0.41683 0.84416 0.0
C372 C 0.11734 0.4241 0.7751 0.0
C373 C 0.10637 0.36926 0.87009 0.0
O374 O 0.12181 0.37943 0.83848 0.0
O375 O 0.09892 0.37634 0.90923 0.0
O376 O 0.16108 0.41023 0.78604 0.0
O377 O 0.16282 0.41871 0.90113 0.0
O378 O 0.35915 0.91147 0.49063 0.0
Cd379 Cd 0.37492 0.92654 0.40221 0.0
Cd380 Cd 0.40228 0.92484 0.49637 0.0
O381 O 0.3792 0.90735 0.5555 0.0
O382 O 0.3559 0.92734 0.33819 0.0
O383 O 0.37096 0.91299 0.30584 0.0
C384 C 0.35856 0.91746 0.2911 0.0
C385 C 0.42663 0.91838 0.4896 0.0
C386 C 0.36295 0.90457 0.54538 0.0
C387 C 0.406 0.96211 0.4657 0.0
O388 O 0.41055 0.95247 0.50497 0.0
O389 O 0.39345 0.9546 0.41719 0.0
O390 O 0.42236 0.92343 0.54951 0.0
O391 O 0.41668 0.91649 0.43266 0.0
O392 O 0.08163 0.44114 0.48821 0.0
Cd393 Cd 0.06983 0.44664 0.39963 0.0
Cd394 Cd 0.07708 0.47554 0.49703 0.0
O395 O 0.09478 0.46813 0.54455 0.0
O396 O 0.06567 0.4261 0.33228 0.0
O397 O 0.08465 0.45546 0.3055 0.0
C398 C 0.07732 0.43823 0.28758 0.0
C399 C 0.08495 0.50679 0.49486 0.0
C400 C 0.09218 0.45184 0.53801 0.0
C401 C 0.0376 0.44597 0.47052 0.0
O402 O 0.0492 0.45776 0.51498 0.0
O403 O 0.0431 0.44169 0.41287 0.0
O404 O 0.08129 0.49751 0.55472 0.0
O405 O 0.08491 0.49848 0.43522 0.0
O406 O 0.5506 0.64414 0.49511 0.0
Cd407 Cd 0.55115 0.62838 0.41034 0.0
Cd408 Cd 0.51937 0.60009 0.49506 0.0
O409 O 0.52645 0.6233 0.55796 0.0
O410 O 0.57144 0.64708 0.34737 0.0
O411 O 0.54225 0.63152 0.31139 0.0
C412 C 0.55921 0.64395 0.2981 0.0
C413 C 0.48801 0.57685 0.49308 0.0
C414 C 0.53966 0.6398 0.54918 0.0
C415 C 0.55281 0.59531 0.47029 0.0
O416 O 0.53688 0.58937 0.49809 0.0
O417 O 0.56055 0.61019 0.43312 0.0
O418 O 0.49796 0.58081 0.55115 0.0
O419 O 0.49573 0.58651 0.43516 0.0
O420 O 0.09504 0.64497 0.50504 0.0
Cd421 Cd 0.07726 0.63145 0.42002 0.0
Cd422 Cd 0.07692 0.60004 0.49711 0.0
O423 O 0.09372 0.6215 0.56624 0.0
O424 O 0.08039 0.65283 0.35979 0.0
O425 O 0.08683 0.63178 0.31825 0.0
C426 C 0.08636 0.64686 0.30757 0.0
C427 C 0.08327 0.57555 0.49414 0.0
C428 C 0.0996 0.63872 0.55961 0.0
C429 C 0.04057 0.60004 0.47351 0.0
O430 O 0.04913 0.59183 0.4947 0.0
O431 O 0.04921 0.61592 0.44346 0.0
O432 O 0.07636 0.57901 0.5507 0.0
O433 O 0.08662 0.58604 0.43767 0.0
O434 O 0.35335 0.44372 0.50663 0.0
Cd435 Cd 0.36808 0.44269 0.41846 0.0
Cd436 Cd 0.39767 0.47453 0.49861 0.0
O437 O 0.37542 0.46752 0.5671 0.0
O438 O 0.34857 0.42262 0.35702 0.0
O439 O 0.36437 0.45173 0.32057 0.0
C440 C 0.35165 0.43485 0.30778 0.0
C441 C 0.42019 0.50613 0.49459 0.0
C442 C 0.3587 0.45459 0.56123 0.0
C443 C 0.4019 0.44091 0.46945 0.0
O444 O 0.4085 0.45709 0.4959 0.0
O445 O 0.3864 0.43311 0.43638 0.0
O446 O 0.41748 0.49617 0.55191 0.0
O447 O 0.40991 0.49819 0.43828 0.0
O448 O 0.55632 0.90979 0.50238 0.0
Cd449 Cd 0.55822 0.92658 0.41698 0.0
Cd450 Cd 0.52734 0.92529 0.49905 0.0
O451 O 0.5327 0.90819 0.56378 0.0
O452 O 0.57753 0.92634 0.35347 0.0
O453 O 0.54835 0.91448 0.31893 0.0
C454 C 0.5649 0.91773 0.30496 0.0
C455 C 0.49642 0.91852 0.49133 0.0
C456 C 0.54514 0.90376 0.55589 0.0
C457 C 0.56228 0.96253 0.47417 0.0
O458 O 0.54614 0.95329 0.50131 0.0
O459 O 0.56929 0.95456 0.43778 0.0
O460 O 0.50589 0.92438 0.55066 0.0
O461 O 0.50437 0.91594 0.43561 0.0
O462 O 0.30721 0.42164 0.84489 0.0
Cd463 Cd 0.29076 0.40659 0.93198 0.0
Cd464 Cd 0.26439 0.41061 0.83869 0.0
O465 O 0.28817 0.42757 0.7816 0.0
O466 O 0.30888 0.40398 0.99507 0.0
O467 O 0.29534 0.41968 0.02973 0.0
C468 C 0.30683 0.41396 0.04364 0.0
C469 C 0.24112 0.41865 0.84329 0.0
C470 C 0.30408 0.42939 0.7913 0.0
C471 C 0.25811 0.37222 0.86738 0.0
O472 O 0.25442 0.38262 0.82886 0.0
O473 O 0.27089 0.379 0.91525 0.0
O474 O 0.24548 0.4136 0.78362 0.0
O475 O 0.25035 0.41961 0.90141 0.0
O476 O 0.57791 0.88751 0.83951 0.0
Cd477 Cd 0.59413 0.88834 0.92528 0.0
Cd478 Cd 0.59055 0.85609 0.84615 0.0
O479 O 0.57396 0.8624 0.78251 0.0
O480 O 0.59502 0.90806 0.98966 0.0
O481 O 0.58173 0.87866 0.02295 0.0
C482 C 0.58586 0.89545 0.03765 0.0
C483 C 0.58271 0.8248 0.84953 0.0
C484 C 0.57099 0.8759 0.78762 0.0
C485 C 0.62888 0.88993 0.86784 0.0
O486 O 0.61876 0.87382 0.84157 0.0
O487 O 0.62182 0.89791 0.90392 0.0
O488 O 0.58857 0.83461 0.79109 0.0
O489 O 0.58084 0.83263 0.9072 0.0
O490 O 0.1175 0.68913 0.84211 0.0
Cd491 Cd 0.11636 0.70501 0.92633 0.0
Cd492 Cd 0.14697 0.73239 0.83582 0.0
O493 O 0.14205 0.70913 0.77938 0.0
O494 O 0.09669 0.68488 0.98708 0.0
O495 O 0.12512 0.70325 0.02767 0.0
C496 C 0.10874 0.68931 0.03834 0.0
C497 C 0.17775 0.75678 0.83963 0.0
C498 C 0.12877 0.69278 0.78955 0.0
C499 C 0.11276 0.73601 0.85736 0.0
O500 O 0.12781 0.74087 0.82359 0.0
O501 O 0.1065 0.72298 0.90424 0.0
O502 O 0.16827 0.75189 0.78018 0.0
O503 O 0.16982 0.7476 0.89824 0.0
C504 C 0.22146 0.9946 0.53719 0.0
C505 C 0.23307 0.989 0.57067 0.0
C506 C 0.22723 0.00594 0.47461 0.0
C507 C 0.24458 0.01161 0.44231 0.0
H508 H 0.20797 0.99046 0.56024 0.0
H509 H 0.21789 0.00996 0.45046 0.0
S510 S 0.27998 1.00047 0.50825 0.0
N511 N 0.26274 0.99008 0.56704 0.0
N512 N 0.27327 0.01077 0.44845 0.0
C513 C 0.25621 0.00595 0.47493 0.0
C514 C 0.25053 0.99481 0.53938 0.0
C515 C 0.99368 0.23318 0.55917 0.0
C516 C 0.01317 0.24232 0.55965 0.0
C517 C 0.98373 0.22832 0.49329 0.0
C518 C 0.99298 0.23302 0.42578 0.0
H519 H 0.98605 0.22964 0.61017 0.0
H520 H 0.96874 0.2213 0.49521 0.0
S521 S 0.04383 0.25682 0.3973 0.0
N522 N 0.04131 0.25542 0.48706 0.0
N523 N 0.02267 0.24703 0.36309 0.0
C524 C 0.01246 0.24214 0.42549 0.0
C525 C 0.02255 0.2466 0.49252 0.0
C526 C 0.76048 0.76652 0.43704 0.0
C527 C 0.77191 0.75856 0.43844 0.0
C528 C 0.7551 0.77154 0.50191 0.0
C529 C 0.76047 0.76815 0.57027 0.0
H530 H 0.7557 0.76895 0.38537 0.0
H531 H 0.74625 0.77758 0.49862 0.0
S532 S 0.79051 0.74785 0.60372 0.0
N533 N 0.78887 0.74807 0.51374 0.0
N534 N 0.77808 0.7567 0.63583 0.0
C535 C 0.77194 0.76026 0.57244 0.0
C536 C 0.77786 0.75568 0.50641 0.0
C537 C 0.74427 0.9941 0.53224 0.0
C538 C 0.7565 0.98953 0.56687 0.0
C539 C 0.74937 0.00468 0.46807 0.0
C540 C 0.7671 0.01158 0.43748 0.0
H541 H 0.73056 0.98929 0.5545 0.0
H542 H 0.7394 0.00764 0.44264 0.0
S543 S 0.80443 0.00396 0.50857 0.0
N544 N 0.7871 0.9927 0.56642 0.0
N545 N 0.79698 0.01321 0.44696 0.0
C546 C 0.77958 0.00735 0.47219 0.0
C547 C 0.77419 0.99613 0.53656 0.0
C548 C 0.00486 0.74742 0.53632 0.0
C549 C 0.01167 0.76515 0.5669 0.0
C550 C 0.9933 0.74179 0.47487 0.0
C551 C 0.98774 0.75349 0.44208 0.0
H552 H 0.00862 0.73781 0.5596 0.0
H553 H 0.98862 0.72806 0.45313 0.0
S554 S 0.0014 0.80121 0.50155 0.0
N555 N 0.01194 0.79442 0.55991 0.0
N556 N 0.98987 0.78366 0.44493 0.0
C557 C 0.99425 0.7712 0.47245 0.0
C558 C 0.00633 0.77708 0.53456 0.0
C559 C 0.23032 0.2259 0.45771 0.0
C560 C 0.24692 0.23834 0.42193 0.0
C561 C 0.22427 0.23136 0.5197 0.0
C562 C 0.23482 0.24929 0.54897 0.0
H563 H 0.22186 0.21192 0.43725 0.0
H564 H 0.21148 0.22132 0.54588 0.0
S565 S 0.27927 0.28708 0.4757 0.0
N566 N 0.27366 0.26947 0.42001 0.0
N567 N 0.26252 0.27952 0.537 0.0
C568 C 0.25141 0.26183 0.51369 0.0
C569 C 0.2574 0.2564 0.45005 0.0
C570 C 0.92318 0.34245 0.80218 0.0
C571 C 0.91064 0.34709 0.77071 0.0
C572 C 0.91865 0.33165 0.86566 0.0
C573 C 0.90119 0.32459 0.89885 0.0
H574 H 0.93673 0.34741 0.77808 0.0
H575 H 0.92886 0.32867 0.8886 0.0
S576 S 0.86323 0.33235 0.83718 0.0
N577 N 0.88002 0.3438 0.77736 0.0
N578 N 0.87124 0.32291 0.89556 0.0
C579 C 0.88839 0.32887 0.86743 0.0
C580 C 0.8932 0.3403 0.80371 0.0
C581 C 0.66557 0.58918 0.78412 0.0
C582 C 0.65838 0.57124 0.75525 0.0
C583 C 0.67694 0.59484 0.84607 0.0
C584 C 0.68196 0.58295 0.88088 0.0
H585 H 0.66216 0.5989 0.75932 0.0
H586 H 0.68187 0.60871 0.86681 0.0
S587 S 0.66732 0.53471 0.82593 0.0
N588 N 0.65727 0.54161 0.76568 0.0
N589 N 0.67906 0.55244 0.88152 0.0
C590 C 0.67518 0.56507 0.85195 0.0
C591 C 0.66326 0.55915 0.78942 0.0
C592 C 0.42614 0.09935 0.77372 0.0
C593 C 0.43646 0.09018 0.77579 0.0
C594 C 0.421 0.10472 0.8383 0.0
C595 C 0.42545 0.1005 0.90701 0.0
H596 H 0.42207 0.10245 0.72173 0.0
H597 H 0.413 0.11169 0.83446 0.0
S598 S 0.45237 0.07686 0.94212 0.0
N599 N 0.4514 0.07763 0.85205 0.0
N600 N 0.44097 0.0869 0.97355 0.0
C601 C 0.43578 0.09139 0.90982 0.0
C602 C 0.44151 0.08645 0.84411 0.0
C603 C 0.44703 0.34084 0.79944 0.0
C604 C 0.43515 0.34616 0.76648 0.0
C605 C 0.44166 0.32986 0.86289 0.0
C606 C 0.42448 0.32434 0.89642 0.0
H607 H 0.46037 0.34485 0.77513 0.0
H608 H 0.45113 0.32597 0.88661 0.0
S609 S 0.38862 0.33498 0.8323 0.0
N610 N 0.40549 0.34504 0.77176 0.0
N611 N 0.39572 0.32508 0.89236 0.0
C612 C 0.41264 0.3298 0.86448 0.0
C613 C 0.41789 0.34053 0.79909 0.0
C614 C 0.66096 0.09252 0.89925 0.0
C615 C 0.68046 0.10285 0.89961 0.0
C616 C 0.65098 0.08775 0.83344 0.0
C617 C 0.66021 0.09263 0.7659 0.0
H618 H 0.65336 0.08818 0.95027 0.0
H619 H 0.63599 0.07975 0.8354 0.0
S620 S 0.71104 0.11981 0.73715 0.0
N621 N 0.70857 0.11825 0.82693 0.0
N622 N 0.68986 0.10859 0.70305 0.0
C623 C 0.67968 0.10298 0.76551 0.0
C624 C 0.68981 0.1083 0.83248 0.0
C625 C 0.89348 0.55883 0.79182 0.0
C626 C 0.9104 0.57139 0.75849 0.0
C627 C 0.88721 0.56382 0.85448 0.0
C628 C 0.89791 0.58135 0.88693 0.0
H629 H 0.88487 0.54518 0.76858 0.0
H630 H 0.87411 0.55377 0.87855 0.0
S631 S 0.94334 0.61912 0.82141 0.0
N632 N 0.93766 0.60212 0.76236 0.0
N633 N 0.92622 0.61124 0.88119 0.0
C634 C 0.91492 0.59394 0.85448 0.0
C635 C 0.92108 0.58903 0.78995 0.0
C636 C 0.58205 0.65962 0.19803 0.0
C637 C 0.56476 0.65461 0.22921 0.0
C638 C 0.58806 0.67024 0.13401 0.0
C639 C 0.57728 0.67676 0.1002 0.0
H640 H 0.59093 0.65511 0.22286 0.0
H641 H 0.60137 0.67353 0.11123 0.0
S642 S 0.53111 0.66787 0.16105 0.0
N643 N 0.53688 0.65694 0.22166 0.0
N644 N 0.54852 0.67754 0.10257 0.0
C645 C 0.56007 0.6721 0.13134 0.0
C646 C 0.5537 0.66082 0.19549 0.0
C647 C 0.34139 0.92299 0.19198 0.0
C648 C 0.34748 0.91152 0.22302 0.0
C649 C 0.33036 0.91764 0.12897 0.0
C650 C 0.32452 0.90038 0.09568 0.0
H651 H 0.34533 0.93632 0.2162 0.0
H652 H 0.3262 0.92704 0.10661 0.0
S653 S 0.33638 0.86509 0.15606 0.0
N654 N 0.34691 0.88213 0.21568 0.0
N655 N 0.32562 0.87179 0.09835 0.0
C656 C 0.33031 0.88866 0.12653 0.0
C657 C 0.34196 0.89432 0.18982 0.0
C658 C 0.1003 0.44285 0.18945 0.0
C659 C 0.08244 0.43227 0.21944 0.0
C660 C 0.10576 0.43659 0.12806 0.0
C661 C 0.09341 0.41974 0.09362 0.0
H662 H 0.11026 0.45583 0.21457 0.0
H663 H 0.11966 0.4451 0.10696 0.0
S664 S 0.04492 0.38718 0.14979 0.0
N665 N 0.05239 0.40425 0.20961 0.0
N666 N 0.06246 0.39272 0.09382 0.0
C667 C 0.07543 0.40921 0.12253 0.0
C668 C 0.07 0.41541 0.18553 0.0
C669 C 0.10251 0.67682 0.23963 0.0
C670 C 0.0927 0.65731 0.2383 0.0
C671 C 0.10827 0.68718 0.17469 0.0
C672 C 0.10382 0.67834 0.10633 0.0
H673 H 0.10584 0.68414 0.29132 0.0
H674 H 0.11574 0.70216 0.17795 0.0
S675 S 0.07859 0.62766 0.07296 0.0
N676 N 0.0793 0.62961 0.16295 0.0
N677 N 0.08936 0.64905 0.04082 0.0
C678 C 0.09407 0.65887 0.10422 0.0
C679 C 0.08871 0.64834 0.17028 0.0
C680 C 0.33575 0.44177 0.20644 0.0
C681 C 0.34055 0.42953 0.23976 0.0
C682 C 0.32433 0.43646 0.14416 0.0
C683 C 0.31776 0.41893 0.11204 0.0
H684 H 0.34056 0.45541 0.22943 0.0
H685 H 0.32094 0.44628 0.12013 0.0
S686 S 0.32662 0.38195 0.1776 0.0
N687 N 0.33779 0.3991 0.23614 0.0
N688 N 0.31692 0.38939 0.11809 0.0
C689 C 0.32263 0.40667 0.14446 0.0
C690 C 0.33387 0.4119 0.2086 0.0
C691 C 0.58694 0.92303 0.20371 0.0
C692 C 0.56953 0.91175 0.23605 0.0
C693 C 0.59207 0.91758 0.13955 0.0
C694 C 0.58022 0.90037 0.10674 0.0
H695 H 0.59661 0.9363 0.22773 0.0
H696 H 0.60551 0.92684 0.11586 0.0
S697 S 0.5333 0.86554 0.17088 0.0
N698 N 0.54041 0.88261 0.23072 0.0
N699 N 0.55035 0.87202 0.11134 0.0
C700 C 0.56288 0.88881 0.13906 0.0
C701 C 0.55743 0.89461 0.20338 0.0
C702 C 0.22122 0.00458 0.93399 0.0
C703 C 0.21166 0.98557 0.95059 0.0
C704 C 0.22781 0.01794 0.98954 0.0
C705 C 0.22547 0.01273 0.06365 0.0
H706 H 0.22412 0.00918 0.87766 0.0
H707 H 0.23571 0.03242 0.97422 0.0
S708 S 0.20016 0.96481 0.13621 0.0
N709 N 0.19897 0.96222 0.04652 0.0
N710 N 0.21183 0.98737 0.15087 0.0
C711 C 0.21523 0.99381 0.08103 0.0
C712 C 0.20817 0.9802 0.02448 0.0
C713 C 0.00688 0.21689 0.06647 0.0
C714 C 0.98775 0.20769 0.05156 0.0
C715 C 0.01992 0.22267 0.00991 0.0
C716 C 0.01428 0.21972 0.93636 0.0
H717 H 0.01187 0.22054 0.12211 0.0
H718 H 0.03447 0.23073 0.02389 0.0
S719 S 0.96591 0.19358 0.86845 0.0
N720 N 0.96383 0.19369 0.9582 0.0
N721 N 0.98839 0.20486 0.85179 0.0
C722 C 0.99523 0.20915 0.92093 0.0
C723 C 0.98194 0.20303 0.97859 0.0
C724 C 0.77488 0.79256 0.01968 0.0
C725 C 0.77855 0.79085 0.94596 0.0
C726 C 0.78171 0.78615 0.07572 0.0
C727 C 0.79273 0.77816 0.06004 0.0
H728 H 0.76566 0.7977 0.03402 0.0
H729 H 0.77766 0.78674 0.1315 0.0
S730 S 0.80856 0.77319 0.87599 0.0
N731 N 0.79542 0.78247 0.86037 0.0
N732 N 0.80862 0.77079 0.96557 0.0
C733 C 0.79776 0.77783 0.98681 0.0
C734 C 0.79054 0.78407 0.92976 0.0
C735 C 0.78433 0.00623 0.93013 0.0
C736 C 0.77527 0.98711 0.94495 0.0
C737 C 0.79081 0.01926 0.98685 0.0
C738 C 0.78804 0.01358 0.06032 0.0
H739 H 0.7858 0.01115 0.87433 0.0
H740 H 0.79692 0.0338 0.97304 0.0
S741 S 0.76701 0.96533 0.1283 0.0
N742 N 0.76552 0.96325 0.03841 0.0
N743 N 0.77728 0.98778 0.14507 0.0
C744 C 0.78001 0.9946 0.07587 0.0
C745 C 0.77375 0.98134 0.01811 0.0
C746 C 0.00897 0.7895 0.97891 0.0
C747 C 0.01415 0.77752 0.94596 0.0
C748 C 0.99631 0.78345 0.03722 0.0
C749 C 0.989 0.76547 0.06584 0.0
H750 H 0.01453 0.80352 0.95885 0.0
H751 H 0.99238 0.79294 0.06059 0.0
S752 S 0.99854 0.72898 -0.00026 0.0
N753 N 0.01106 0.74693 0.94623 0.0
N754 N 0.98779 0.73578 0.05686 0.0
C755 C 0.99429 0.75349 0.03389 0.0
C756 C 0.00674 0.75946 0.97362 0.0
C757 C 0.24601 0.23572 0.00692 0.0
C758 C 0.23471 0.2185 0.04037 0.0
C759 C 0.23958 0.24158 0.94804 0.0
C760 C 0.22141 0.23063 0.92166 0.0
H761 H 0.25997 0.24479 0.0266 0.0
H762 H 0.24872 0.25511 0.92477 0.0
S763 S 0.18649 0.18414 0.9897 0.0
N764 N 0.20485 0.19018 0.04179 0.0
N765 N 0.19232 0.20153 0.93236 0.0
C766 C 0.20999 0.21325 0.95419 0.0
C767 C 0.21677 0.20707 0.01319 0.0
C768 C 0.88585 0.32948 0.40777 0.0
C769 C 0.89316 0.34839 0.39182 0.0
C770 C 0.8801 0.31626 0.35182 0.0
C771 C 0.88189 0.32157 0.278 0.0
H772 H 0.88511 0.32493 0.46379 0.0
H773 H 0.87523 0.30195 0.36638 0.0
S774 S 0.89855 0.36899 0.20719 0.0
N775 N 0.90041 0.37151 0.29687 0.0
N776 N 0.89005 0.34667 0.19182 0.0
C777 C 0.88831 0.34026 0.26139 0.0
C778 C 0.89381 0.35367 0.31832 0.0
C779 C 0.67235 0.55166 0.2908 0.0
C780 C 0.67689 0.56834 0.25469 0.0
C781 C 0.65953 0.54506 0.34859 0.0
C782 C 0.65136 0.55527 0.37312 0.0
H783 H 0.67887 0.54375 0.2747 0.0
H784 H 0.65648 0.5323 0.37576 0.0
S785 S 0.65809 0.59937 0.29646 0.0
N786 N 0.67158 0.59448 0.24654 0.0
N787 N 0.648 0.58233 0.35619 0.0
C788 C 0.65552 0.57174 0.33691 0.0
C789 C 0.66817 0.57822 0.27733 0.0
C790 C 0.45223 0.11337 0.26887 0.0
C791 C 0.44208 0.12225 0.2848 0.0
C792 C 0.45954 0.10747 0.32486 0.0
C793 C 0.45656 0.10988 0.39875 0.0
H794 H 0.45397 0.11033 0.21278 0.0
H795 H 0.46649 0.0999 0.31007 0.0
S796 S 0.43263 0.13406 0.46954 0.0
N797 N 0.43094 0.13473 0.37977 0.0
N798 N 0.44428 0.12318 0.485 0.0
C799 C 0.44738 0.11968 0.4154 0.0
C800 C 0.44025 0.12601 0.35839 0.0
C801 C 0.45437 0.34037 0.25905 0.0
C802 C 0.44513 0.32126 0.27424 0.0
C803 C 0.46092 0.35348 0.31548 0.0
C804 C 0.45812 0.34791 0.38911 0.0
H805 H 0.45583 0.34524 0.20317 0.0
H806 H 0.46706 0.36799 0.30125 0.0
S807 S 0.43699 0.29972 0.45809 0.0
N808 N 0.43539 0.29752 0.36826 0.0
N809 N 0.44738 0.3222 0.47436 0.0
C810 C 0.45008 0.32893 0.40503 0.0
C811 C 0.44369 0.31559 0.34755 0.0
C812 C 0.68758 0.12922 0.34864 0.0
C813 C 0.68192 0.1262 0.27513 0.0
C814 C 0.67455 0.1223 0.40529 0.0
C815 C 0.65541 0.11243 0.39044 0.0
H816 H 0.70214 0.13571 0.36258 0.0
H817 H 0.67953 0.12387 0.46103 0.0
S818 S 0.63357 0.10387 0.20705 0.0
N819 N 0.65605 0.11487 0.19039 0.0
N820 N 0.6315 0.10216 0.2969 0.0
C821 C 0.6496 0.11093 0.31731 0.0
C822 C 0.66289 0.11773 0.2596 0.0
C823 C 0.8818 0.55633 0.39393 0.0
C824 C 0.8931 0.54868 0.37839 0.0
C825 C 0.87429 0.56192 0.33771 0.0
C826 C 0.8782 0.56048 0.26399 0.0
H827 H 0.87922 0.55855 0.45005 0.0
H828 H 0.86629 0.56843 0.35238 0.0
S829 S 0.90566 0.5399 0.19407 0.0
N830 N 0.9066 0.53853 0.28391 0.0
N831 N 0.89287 0.54955 0.17812 0.0
C832 C 0.88872 0.55203 0.24757 0.0
C833 C 0.89606 0.54597 0.30483 0.0
C834 C 0.54169 0.64804 0.68092 0.0
C835 C 0.54409 0.65365 0.60736 0.0
C836 C 0.54947 0.66109 0.73729 0.0
C837 C 0.55958 0.68019 0.72214 0.0
H838 H 0.53482 0.63347 0.6949 0.0
H839 H 0.54815 0.65614 0.79297 0.0
S840 S 0.56749 0.702 0.53889 0.0
N841 N 0.55568 0.67951 0.5225 0.0
N842 N 0.56995 0.7041 0.62856 0.0
C843 C 0.56081 0.686 0.64913 0.0
C844 C 0.55316 0.6727 0.59168 0.0
C845 C 0.34075 0.89228 0.73213 0.0
C846 C 0.32173 0.88259 0.71566 0.0
C847 C 0.35407 0.89828 0.67655 0.0
C848 C 0.34881 0.8952 0.60254 0.0
H849 H 0.34538 0.89564 0.78829 0.0
H850 H 0.36857 0.90627 0.69155 0.0
S851 S 0.30085 0.8694 0.5306 0.0
N852 N 0.29831 0.86907 0.62022 0.0
N853 N 0.32342 0.88087 0.51571 0.0
C854 C 0.32987 0.88491 0.58542 0.0
C855 C 0.31631 0.87845 0.64204 0.0
C856 C 0.12224 0.4496 0.68947 0.0
C857 C 0.1119 0.43101 0.71153 0.0
C858 C 0.116 0.4563 0.63207 0.0
C859 C 0.09955 0.44445 0.59399 0.0
H860 H 0.13484 0.45908 0.7182 0.0
H861 H 0.124 0.47084 0.61782 0.0
S862 S 0.06824 0.3943 0.6296 0.0
N863 N 0.08494 0.40078 0.69061 0.0
N864 N 0.07343 0.41307 0.58172 0.0
C865 C 0.08953 0.42567 0.61435 0.0
C866 C 0.09566 0.41902 0.67349 0.0
C867 C 0.12907 0.68368 0.66016 0.0
C868 C 0.12464 0.67842 0.73374 0.0
C869 C 0.12179 0.67052 0.60404 0.0
C870 C 0.11015 0.65161 0.61953 0.0
H871 H 0.13716 0.69817 0.6453 0.0
H872 H 0.12465 0.67531 0.54793 0.0
S873 S 0.09675 0.63043 0.804 0.0
N874 N 0.10958 0.65288 0.81975 0.0
N875 N 0.09619 0.62805 0.71425 0.0
C876 C 0.10692 0.64599 0.69317 0.0
C877 C 0.11408 0.65944 0.75031 0.0
C878 C 0.31324 0.43729 0.66093 0.0
C879 C 0.31849 0.43871 0.73479 0.0
C880 C 0.32646 0.44315 0.60503 0.0
C881 C 0.34543 0.45106 0.621 0.0
H882 H 0.29874 0.43066 0.64592 0.0
H883 H 0.32174 0.44101 0.54879 0.0
S884 S 0.36648 0.45973 0.80588 0.0
N885 N 0.34398 0.44976 0.82126 0.0
N886 N 0.36892 0.46128 0.71612 0.0
C887 C 0.35096 0.45365 0.69473 0.0
C888 C 0.33745 0.44731 0.75166 0.0
C889 C 0.55242 0.88994 0.7439 0.0
C890 C 0.56107 0.87951 0.72872 0.0
C891 C 0.54592 0.89656 0.68749 0.0
C892 C 0.54822 0.89329 0.61389 0.0
H893 H 0.55133 0.89366 0.79969 0.0
H894 H 0.54019 0.90529 0.70154 0.0
S895 S 0.56788 0.86491 0.54511 0.0
N896 N 0.56982 0.86462 0.63487 0.0
N897 N 0.55799 0.87746 0.52879 0.0
C898 C 0.55576 0.88192 0.59807 0.0
C899 C 0.56207 0.87489 0.65554 0.0
C900 C 0.34584 0.09488 0.22675 0.0
C901 C 0.35289 0.09664 0.15544 0.0
C902 C 0.32669 0.08549 0.23995 0.0
C903 C 0.314 0.07814 0.18194 0.0
H904 H 0.35521 0.10078 0.27269 0.0
H905 H 0.32178 0.08445 0.29555 0.0
S906 S 0.32536 0.07894 0.98548 0.0
N907 N 0.34573 0.08982 0.02659 0.0
N908 N 0.30971 0.07291 0.05091 0.0
C909 C 0.32086 0.07977 0.11048 0.0
C910 C 0.34033 0.08882 0.09733 0.0
C911 C 0.89697 0.23751 0.15647 0.0
C912 C 0.90649 0.2568 0.14551 0.0
C913 C 0.90652 0.22795 0.1699 0.0
C914 C 0.92597 0.23734 0.17452 0.0
H915 H 0.88198 0.22966 0.15424 0.0
H916 H 0.89853 0.21309 0.17766 0.0
S917 S 0.95749 0.28788 0.15043 0.0
N918 N 0.93653 0.28498 0.13979 0.0
N919 N 0.95448 0.26705 0.16657 0.0
C920 C 0.9357 0.25665 0.16403 0.0
C921 C 0.92597 0.26636 0.14898 0.0
C922 C 0.76 0.6637 0.09253 0.0
C923 C 0.75079 0.65059 0.148 0.0
C924 C 0.76987 0.68272 0.1083 0.0
C925 C 0.77034 0.68929 0.17961 0.0
H926 H 0.75976 0.65922 0.03675 0.0
H927 H 0.77691 0.69237 0.06407 0.0
S928 S 0.74804 0.66062 0.34374 0.0
N929 N 0.74273 0.64544 0.27696 0.0
N930 N 0.76066 0.68124 0.30595 0.0
C931 C 0.76097 0.67634 0.23532 0.0
C932 C 0.75137 0.65697 0.21969 0.0
C933 C 0.09739 0.32085 0.82827 0.0
C934 C 0.07794 0.31036 0.82354 0.0
C935 C 0.10649 0.33987 0.84376 0.0
C936 C 0.09646 0.34902 0.85707 0.0
H937 H 0.10568 0.31436 0.81881 0.0
H938 H 0.12149 0.34745 0.84571 0.0
S939 S 0.04529 0.32779 0.85284 0.0
N940 N 0.04894 0.31052 0.83382 0.0
N941 N 0.06599 0.34615 0.8647 0.0
C942 C 0.07699 0.33865 0.8536 0.0
C943 C 0.06775 0.31936 0.83627 0.0
C944 C 0.67824 0.77321 0.82579 0.0
C945 C 0.68817 0.76372 0.81923 0.0
C946 C 0.65917 0.76374 0.84007 0.0
C947 C 0.6493 0.74441 0.85001 0.0
H948 H 0.68522 0.78812 0.81923 0.0
H949 H 0.65214 0.77168 0.84407 0.0
S950 S 0.6688 0.71303 0.83909 0.0
N951 N 0.68668 0.73385 0.8236 0.0
N952 N 0.65088 0.71605 0.85196 0.0
C953 C 0.65906 0.73473 0.84414 0.0
C954 C 0.67846 0.74436 0.82821 0.0
C955 C 0.23983 0.91388 0.76582 0.0
C956 C 0.23371 0.92026 0.82463 0.0
C957 C 0.24955 0.90442 0.77805 0.0
C958 C 0.25401 0.90159 0.84937 0.0
H959 H 0.2367 0.91583 0.71014 0.0
H960 H 0.25377 0.89942 0.73132 0.0
S961 S 0.24183 0.91639 0.02155 0.0
N962 N 0.23294 0.92334 0.95653 0.0
N963 N 0.25195 0.90628 0.97928 0.0
C964 C 0.24839 0.90834 0.90847 0.0
C965 C 0.23802 0.91748 0.89613 0.0
C966 C 0.67768 0.9288 0.82725 0.0
C967 C 0.6876 0.91937 0.81801 0.0
C968 C 0.65878 0.91921 0.8452 0.0
C969 C 0.64903 0.89981 0.8529 0.0
H970 H 0.68464 0.94373 0.82192 0.0
H971 H 0.6517 0.92703 0.85182 0.0
S972 S 0.66856 0.86863 0.83308 0.0
N973 N 0.68628 0.88956 0.81785 0.0
N974 N 0.65069 0.87152 0.84969 0.0
C975 C 0.65875 0.89021 0.84306 0.0
C976 C 0.67805 0.9 0.82616 0.0
C977 C 0.08581 0.76113 0.88396 0.0
C978 C 0.08362 0.7657 0.81196 0.0
C979 C 0.09485 0.75108 0.89826 0.0
C980 C 0.10248 0.74576 0.84119 0.0
H981 H 0.08023 0.76509 0.92954 0.0
H982 H 0.0962 0.74778 0.95441 0.0
S983 S 0.10058 0.75441 0.64329 0.0
N984 N 0.08955 0.76391 0.68307 0.0
N985 N 0.10721 0.74569 0.71006 0.0
C986 C 0.10051 0.75037 0.76905 0.0
C987 C 0.09088 0.76015 0.75438 0.0
C988 C 0.23423 0.32663 0.76455 0.0
C989 C 0.22965 0.31342 0.82018 0.0
C990 C 0.24303 0.3456 0.78075 0.0
C991 C 0.24807 0.35207 0.8529 0.0
H992 H 0.23087 0.32227 0.70812 0.0
H993 H 0.24631 0.35531 0.73614 0.0
S994 S 0.2394 0.3231 0.01815 0.0
N995 N 0.23063 0.30805 0.95037 0.0
N996 N 0.2478 0.34377 0.9804 0.0
C997 C 0.24367 0.33901 0.90898 0.0
C998 C 0.23427 0.31966 0.89273 0.0
C999 C 0.9067 0.6728 0.23763 0.0
C1000 C 0.91559 0.686 0.1822 0.0
C1001 C 0.89639 0.65384 0.22119 0.0
C1002 C 0.8951 0.6474 0.14904 0.0
H1003 H 0.90759 0.67716 0.29401 0.0
H1004 H 0.88974 0.64412 0.26559 0.0
S1005 S 0.91619 0.67638 0.98443 0.0
N1006 N 0.92242 0.6914 0.0523 0.0
N1007 N 0.90359 0.65572 0.02185 0.0
C1008 C 0.90405 0.66046 0.09323 0.0
C1009 C 0.91414 0.67978 0.10969 0.0
C1010 C 0.34639 0.2364 0.15654 0.0
C1011 C 0.35636 0.25583 0.1504 0.0
C1012 C 0.32736 0.22689 0.17189 0.0
C1013 C 0.31773 0.2365 0.18376 0.0
H1014 H 0.3533 0.22846 0.14853 0.0
H1015 H 0.32017 0.2119 0.17513 0.0
S1016 S 0.33752 0.28745 0.17515 0.0
N1017 N 0.35521 0.28437 0.15743 0.0
N1018 N 0.31956 0.26654 0.18822 0.0
C1019 C 0.32758 0.25595 0.17865 0.0
C1020 C 0.34686 0.2656 0.16136 0.0
C1021 C 0.7374 0.08108 0.16612 0.0
C1022 C 0.74705 0.10044 0.1569 0.0
C1023 C 0.74684 0.07148 0.18193 0.0
C1024 C 0.76628 0.08084 0.18746 0.0
H1025 H 0.72243 0.07331 0.16212 0.0
H1026 H 0.73886 0.05657 0.18848 0.0
S1027 S 0.79803 0.13147 0.16724 0.0
N1028 N 0.77716 0.12862 0.1546 0.0
N1029 N 0.79485 0.11057 0.18281 0.0
C1030 C 0.77609 0.10017 0.17794 0.0
C1031 C 0.76648 0.10997 0.16309 0.0
C1032 C 0.00462 0.4323 0.43138 0.0
C1033 C 0.01762 0.43662 0.48764 0.0
C1034 C 0.98558 0.42323 0.44649 0.0
C1035 C 0.97887 0.41768 0.51807 0.0
H1036 H 0.00919 0.4361 0.37539 0.0
H1037 H 0.97604 0.42019 0.40148 0.0
S1038 S 0.00724 0.42539 0.68441 0.0
N1039 N 0.02253 0.43473 0.6177 0.0
N1040 N 0.9867 0.41711 0.64563 0.0
C1041 C 0.99172 0.42177 0.57469 0.0
C1042 C 0.01112 0.43141 0.5596 0.0
C1043 C 0.59208 0.58642 0.51477 0.0
C1044 C 0.58307 0.56701 0.52111 0.0
C1045 C 0.58223 0.59541 0.49641 0.0
C1046 C 0.56295 0.58535 0.48553 0.0
H1047 H 0.60693 0.59471 0.52241 0.0
H1048 H 0.58973 0.61038 0.49195 0.0
S1049 S 0.53281 0.53432 0.4971 0.0
N1050 N 0.55381 0.53801 0.51494 0.0
N1051 N 0.53517 0.55497 0.48294 0.0
C1052 C 0.55373 0.56597 0.49269 0.0
C1053 C 0.56383 0.55678 0.50975 0.0
C1054 C 0.42682 0.00788 0.56668 0.0
C1055 C 0.43327 0.0209 0.50966 0.0
C1056 C 0.41806 0.98884 0.55175 0.0
C1057 C 0.41497 0.98221 0.47936 0.0
H1058 H 0.42904 0.01246 0.62309 0.0
H1059 H 0.41359 0.97922 0.59721 0.0
S1060 S 0.42847 0.0107 0.31096 0.0
N1061 N 0.43577 0.02596 0.3783 0.0
N1062 N 0.41856 0.99011 0.35032 0.0
C1063 C 0.42086 0.99508 0.42195 0.0
C1064 C 0.43023 0.01446 0.43713 0.0
C1065 C 0.57326 0.01175 0.51154 0.0
C1066 C 0.59272 0.02171 0.51597 0.0
C1067 C 0.5636 0.99266 0.49796 0.0
C1068 C 0.57301 0.9828 0.48664 0.0
H1069 H 0.56537 0.01872 0.51939 0.0
H1070 H 0.54861 0.98559 0.49569 0.0
S1071 S 0.62397 0.0024 0.49147 0.0
N1072 N 0.62111 0.0203 0.50785 0.0
N1073 N 0.60295 0.98443 0.48078 0.0
C1074 C 0.59249 0.9926 0.49018 0.0
C1075 C 0.60234 0.01202 0.5054 0.0
C1076 C 0.99077 0.56223 0.50417 0.0
C1077 C 0.98134 0.57211 0.51461 0.0
C1078 C 0.00986 0.57142 0.49074 0.0
C1079 C 0.02029 0.59085 0.48568 0.0
H1080 H 0.98337 0.54724 0.50698 0.0
H1081 H 0.01648 0.56316 0.48366 0.0
S1082 S 0.00223 0.62322 0.50779 0.0
N1083 N 0.98388 0.60246 0.51886 0.0
N1084 N 0.01976 0.61973 0.49226 0.0
C1085 C 0.01104 0.60093 0.49535 0.0
C1086 C 0.99159 0.59157 0.51033 0.0
C1087 C 0.43165 0.44089 0.48672 0.0
C1088 C 0.41222 0.43089 0.48027 0.0
C1089 C 0.44174 0.43186 0.50003 0.0
C1090 C 0.43276 0.41253 0.50928 0.0
H1091 H 0.43916 0.45583 0.48109 0.0
H1092 H 0.45668 0.44014 0.50424 0.0
S1093 S 0.38211 0.37994 0.49774 0.0
N1094 N 0.38439 0.40054 0.48345 0.0
N1095 N 0.40331 0.38362 0.51019 0.0
C1096 C 0.41334 0.40235 0.50318 0.0
C1097 C 0.40309 0.41151 0.48811 0.0
C1098 C 0.24939 0.11688 0.11312 0.0
C1099 C 0.24866 0.10772 0.1787 0.0
C1100 C 0.24956 0.13373 0.11312 0.0
C1101 C 0.24899 0.14225 0.17868 0.0
H1102 H 0.25035 0.11128 0.06093 0.0
H1103 H 0.25066 0.14036 0.06095 0.0
S1104 S 0.24539 0.12331 0.36545 0.0
N1105 N 0.24612 0.10784 0.31122 0.0
N1106 N 0.24643 0.13964 0.31117 0.0
C1107 C 0.24732 0.13285 0.24471 0.0
C1108 C 0.24717 0.11557 0.24474 0.0
C1109 C 0.86859 0.11565 0.11922 0.0
C1110 C 0.86033 0.10649 0.18499 0.0
C1111 C 0.88536 0.13239 0.11879 0.0
C1112 C 0.8947 0.1408 0.18408 0.0
H1113 H 0.86182 0.11013 0.06727 0.0
H1114 H 0.89077 0.13901 0.0665 0.0
S1115 S 0.87984 0.12179 0.37105 0.0
N1116 N 0.86338 0.10646 0.31729 0.0
N1117 N 0.89507 0.13808 0.31643 0.0
C1118 C 0.88713 0.13139 0.25024 0.0
C1119 C 0.86992 0.11421 0.2507 0.0
C1120 C 0.89138 0.75938 0.12435 0.0
C1121 C 0.89924 0.75775 0.19002 0.0
C1122 C 0.87453 0.7592 0.12367 0.0
C1123 C 0.86476 0.75745 0.18864 0.0
H1124 H 0.89792 0.76012 0.07233 0.0
H1125 H 0.86885 0.75985 0.07121 0.0
S1126 S 0.88022 0.75477 0.37625 0.0
N1127 N 0.89669 0.75587 0.32268 0.0
N1128 N 0.86492 0.75561 0.32133 0.0
C1129 C 0.87297 0.75699 0.25529 0.0
C1130 C 0.89022 0.75713 0.256 0.0
C1131 C 0.11512 0.24152 0.87309 0.0
C1132 C 0.10708 0.24311 0.80791 0.0
C1133 C 0.13175 0.24126 0.87269 0.0
C1134 C 0.14118 0.24267 0.80709 0.0
H1135 H 0.10882 0.24103 0.92547 0.0
H1136 H 0.13755 0.24062 0.92486 0.0
S1137 S 0.12508 0.24526 0.62048 0.0
N1138 N 0.10901 0.24462 0.67519 0.0
N1139 N 0.14046 0.24424 0.67433 0.0
C1140 C 0.13279 0.24319 0.74095 0.0
C1141 C 0.1157 0.24338 0.74139 0.0
C1142 C 0.75559 0.8689 0.881 0.0
C1143 C 0.7556 0.86007 0.81554 0.0
C1144 C 0.75604 0.88588 0.88069 0.0
C1145 C 0.75649 0.89482 0.81488 0.0
H1146 H 0.75468 0.86242 0.93335 0.0
H1147 H 0.75542 0.89171 0.93282 0.0
S1148 S 0.75845 0.87842 0.62821 0.0
N1149 N 0.75749 0.86218 0.68286 0.0
N1150 N 0.75829 0.89422 0.68221 0.0
C1151 C 0.75755 0.8867 0.74888 0.0
C1152 C 0.75712 0.8693 0.74923 0.0
C1153 C 0.13045 0.88262 0.88966 0.0
C1154 C 0.13935 0.89165 0.8245 0.0
C1155 C 0.11385 0.86569 0.88877 0.0
C1156 C 0.10533 0.85694 0.82267 0.0
H1157 H 0.13659 0.88839 0.94227 0.0
H1158 H 0.10795 0.85917 0.94074 0.0
S1159 S 0.12205 0.87552 0.63643 0.0
N1160 N 0.13773 0.8912 0.69164 0.0
N1161 N 0.10641 0.85924 0.68994 0.0
C1162 C 0.11353 0.86623 0.75689 0.0
C1163 C 0.13055 0.88359 0.75781 0.0
C1164 C 0.91126 0.45077 0.44778 0.0
C1165 C 0.9108 0.44177 0.51347 0.0
C1166 C 0.91195 0.46786 0.44772 0.0
C1167 C 0.91214 0.47675 0.51333 0.0
H1168 H 0.91173 0.4449 0.39553 0.0
H1169 H 0.91288 0.47439 0.39547 0.0
S1170 S 0.90928 0.45828 0.70044 0.0
N1171 N 0.90917 0.44239 0.64621 0.0
N1172 N 0.91039 0.47462 0.64601 0.0
C1173 C 0.91059 0.46747 0.57953 0.0
C1174 C 0.90994 0.44996 0.57962 0.0
C1175 C 0.53774 0.44985 0.448 0.0
C1176 C 0.52889 0.44104 0.51353 0.0
C1177 C 0.55451 0.46661 0.44824 0.0
C1178 C 0.56323 0.47537 0.51401 0.0
H1179 H 0.53138 0.4441 0.39565 0.0
H1180 H 0.56032 0.47305 0.39606 0.0
S1181 S 0.54687 0.45716 0.70087 0.0
N1182 N 0.53088 0.44156 0.6463 0.0
N1183 N 0.56253 0.47322 0.64674 0.0
C1184 C 0.55518 0.4662 0.58009 0.0
C1185 C 0.53798 0.44901 0.57985 0.0
C1186 C 0.55313 0.08659 0.57976 0.0
C1187 C 0.56268 0.08803 0.51443 0.0
C1188 C 0.5362 0.08649 0.57893 0.0
C1189 C 0.52832 0.08785 0.51276 0.0
H1190 H 0.55829 0.08465 0.63141 0.0
H1191 H 0.52887 0.08449 0.63003 0.0
S1192 S 0.54955 0.09517 0.32841 0.0
N1193 N 0.56419 0.09317 0.38312 0.0
N1194 N 0.53259 0.09304 0.38152 0.0
C1195 C 0.53842 0.09056 0.44783 0.0
C1196 C 0.55554 0.09064 0.44868 0.0
C1197 C 0.77866 0.58115 0.08328 0.0
C1198 C 0.76833 0.57825 0.14778 0.0
C1199 C 0.79537 0.58084 0.08396 0.0
C1200 C 0.8023 0.57764 0.14918 0.0
H1201 H 0.77435 0.58466 0.03278 0.0
H1202 H 0.80338 0.58413 0.034 0.0
S1203 S 0.77876 0.56582 0.32959 0.0
N1204 N 0.76499 0.56955 0.27622 0.0
N1205 N 0.79628 0.56902 0.27746 0.0
C1206 C 0.79138 0.57333 0.21262 0.0
C1207 C 0.77442 0.57362 0.21193 0.0
C1208 C 0.42088 0.20144 0.2161 0.0
C1209 C 0.42047 0.19225 0.15109 0.0
C1210 C 0.42191 0.21868 0.21492 0.0
C1211 C 0.42256 0.22755 0.14866 0.0
H1212 H 0.4199 0.19508 0.26881 0.0
H1213 H 0.42162 0.22482 0.26676 0.0
S1214 S 0.42356 0.21018 0.96283 0.0
N1215 N 0.42215 0.19388 0.01829 0.0
N1216 N 0.42403 0.22643 0.01603 0.0
C1217 C 0.42316 0.21902 0.08307 0.0
C1218 C 0.42213 0.20134 0.08429 0.0
C1219 C 0.78537 0.20354 0.21666 0.0
C1220 C 0.77597 0.19541 0.15112 0.0
C1221 C 0.80241 0.22001 0.21668 0.0
C1222 C 0.81088 0.22917 0.15117 0.0
H1223 H 0.7798 0.19689 0.26875 0.0
H1224 H 0.8092 0.22531 0.26877 0.0
S1225 S 0.79136 0.21461 0.9647 0.0
N1226 N 0.77582 0.19845 0.01885 0.0
N1227 N 0.80798 0.22956 0.01891 0.0
C1228 C 0.80125 0.22176 0.08526 0.0
C1229 C 0.78377 0.20486 0.08523 0.0
C1230 C 0.58176 0.78109 0.91556 0.0
C1231 C 0.58059 0.77187 0.84956 0.0
C1232 C 0.58135 0.79776 0.91602 0.0
C1233 C 0.57974 0.80571 0.85051 0.0
H1234 H 0.58396 0.77592 0.96672 0.0
H1235 H 0.58328 0.80492 0.96752 0.0
S1236 S 0.57278 0.7852 0.66498 0.0
N1237 N 0.57528 0.77066 0.71842 0.0
N1238 N 0.57448 0.80179 0.71929 0.0
C1239 C 0.57719 0.79588 0.785 0.0
C1240 C 0.57762 0.77901 0.78453 0.0
C1241 C 0.2043 0.78315 0.90543 0.0
C1242 C 0.19663 0.77323 0.84032 0.0
C1243 C 0.22085 0.80033 0.90461 0.0
C1244 C 0.23023 0.80813 0.83864 0.0
H1245 H 0.19704 0.77808 0.95683 0.0
H1246 H 0.2258 0.80794 0.95538 0.0
S1247 S 0.21764 0.78613 0.65532 0.0
N1248 N 0.20098 0.77136 0.70969 0.0
N1249 N 0.2319 0.80349 0.70818 0.0
C1250 C 0.22336 0.79771 0.77411 0.0
C1251 C 0.20661 0.7803 0.77494 0.0
C1252 C 0.19836 0.41935 0.91112 0.0
C1253 C 0.19029 0.42076 0.84559 0.0
C1254 C 0.21545 0.41978 0.91086 0.0
C1255 C 0.22502 0.42166 0.84508 0.0
H1256 H 0.19097 0.41687 0.96237 0.0
H1257 H 0.22066 0.41763 0.96197 0.0
S1258 S 0.21143 0.42941 0.66083 0.0
N1259 N 0.19437 0.42664 0.71482 0.0
N1260 N 0.22635 0.42752 0.71429 0.0
C1261 C 0.21775 0.42452 0.78015 0.0
C1262 C 0.20041 0.42405 0.78042 0.0
C1263 C 0.45221 0.91671 0.55291 0.0
C1264 C 0.4431 0.91594 0.48713 0.0
C1265 C 0.46898 0.91673 0.55334 0.0
C1266 C 0.47747 0.91596 0.488 0.0
H1267 H 0.44663 0.91783 0.60492 0.0
H1268 H 0.47557 0.91786 0.60563 0.0
S1269 S 0.45863 0.91216 0.30091 0.0
N1270 N 0.44323 0.91313 0.35473 0.0
N1271 N 0.47488 0.91315 0.35556 0.0
C1272 C 0.46812 0.91424 0.4218 0.0
C1273 C 0.45092 0.91424 0.42135 0.0
C1274 C 0.08646 0.55081 0.42841 0.0
C1275 C 0.08638 0.55952 0.4942 0.0
C1276 C 0.08691 0.53417 0.42867 0.0
C1277 C 0.08742 0.52573 0.49471 0.0
H1278 H 0.08532 0.55642 0.37649 0.0
H1279 H 0.08609 0.52752 0.37684 0.0
S1280 S 0.09038 0.54464 0.68138 0.0
N1281 N 0.08892 0.55958 0.62665 0.0
N1282 N 0.08993 0.52858 0.6273 0.0
C1283 C 0.08857 0.535 0.56058 0.0
C1284 C 0.088 0.55182 0.56027 0.0
C1285 C 0.46083 0.55131 0.42675 0.0
C1286 C 0.46896 0.56066 0.49248 0.0
C1287 C 0.44434 0.53407 0.42711 0.0
C1288 C 0.43549 0.52563 0.49321 0.0
H1289 H 0.46775 0.55683 0.37505 0.0
H1290 H 0.43908 0.52688 0.37569 0.0
S1291 S 0.44929 0.54603 0.67876 0.0
N1292 N 0.4655 0.56135 0.62432 0.0
N1293 N 0.43471 0.52909 0.62495 0.0
C1294 C 0.44274 0.53551 0.5586 0.0
C1295 C 0.45943 0.553 0.55825 0.0
loop_
_geom_bond_atom_site_label_1
_geom_bond_atom_site_label_2
_geom_bond_distance
_geom_bond_site_symmetry_2
_ccdc_geom_bond_type
O0 Cd1 2.223 . S
O0 C8 1.315 . S
Cd1 O0 2.223 . S
Cd1 O4 2.297 . S
Cd1 O5 2.439 . S
Cd1 O11 2.240 . S
Cd2 O3 2.240 . S
Cd2 O10 2.223 . S
Cd2 O12 2.297 . S
Cd2 O13 2.439 . S
O3 Cd2 2.240 . S
O3 C8 1.279 . S
O4 Cd1 2.297 . S
O4 C6 1.247 . S
O5 Cd1 2.439 . S
O5 C6 1.208 . S
C6 O4 1.247 . S
C6 O5 1.208 . S
C7 O12 1.247 . S
C7 O13 1.208 . S
C8 O0 1.315 . S
C8 O3 1.279 . S
C9 O10 1.315 . S
C9 O11 1.279 . S
O10 Cd2 2.223 . S
O10 C9 1.315 . S
O11 Cd1 2.240 . S
O11 C9 1.279 . S
O12 Cd2 2.297 . S
O12 C7 1.247 . S
O13 Cd2 2.439 . S
O13 C7 1.208 . S
O14 Cd15 2.223 . S
O14 C22 1.315 . S
Cd15 O14 2.223 . S
Cd15 O18 2.297 . S
Cd15 O19 2.439 . S
Cd15 O25 2.240 . S
Cd16 O17 2.240 . S
Cd16 O24 2.223 . S
Cd16 O26 2.297 . S
Cd16 O27 2.439 . S
O17 Cd16 2.240 . S
O17 C22 1.279 . S
O18 Cd15 2.297 . S
O18 C20 1.247 . S
O19 Cd15 2.439 . S
O19 C20 1.208 . S
C20 O18 1.247 . S
C20 O19 1.208 . S
C21 O26 1.247 . S
C21 O27 1.208 . S
C22 O14 1.315 . S
C22 O17 1.279 . S
C23 O24 1.315 . S
C23 O25 1.279 . S
O24 Cd16 2.223 . S
O24 C23 1.315 . S
O25 Cd15 2.240 . S
O25 C23 1.279 . S
O26 Cd16 2.297 . S
O26 C21 1.247 . S
O27 Cd16 2.439 . S
O27 C21 1.208 . S
O28 Cd29 2.223 . S
O28 C36 1.315 . S
Cd29 O28 2.223 . S
Cd29 O32 2.297 . S
Cd29 O33 2.439 . S
Cd29 O39 2.240 . S
Cd30 O31 2.240 . S
Cd30 O38 2.223 . S
Cd30 O40 2.297 . S
Cd30 O41 2.439 . S
O31 Cd30 2.240 . S
O31 C36 1.279 . S
O32 Cd29 2.297 . S
O32 C34 1.247 . S
O33 Cd29 2.439 . S
O33 C34 1.208 . S
C34 O32 1.247 . S
C34 O33 1.208 . S
C35 O40 1.247 . S
C35 O41 1.208 . S
C36 O28 1.315 . S
C36 O31 1.279 . S
C37 O38 1.315 . S
C37 O39 1.279 . S
O38 Cd30 2.223 . S
O38 C37 1.315 . S
O39 Cd29 2.240 . S
O39 C37 1.279 . S
O40 Cd30 2.297 . S
O40 C35 1.247 . S
O41 Cd30 2.439 . S
O41 C35 1.208 . S
O42 Cd43 2.223 . S
O42 C50 1.315 . S
Cd43 O42 2.223 . S
Cd43 O46 2.297 . S
Cd43 O47 2.439 . S
Cd43 O53 2.240 . S
Cd44 O45 2.240 . S
Cd44 O52 2.223 . S
Cd44 O54 2.297 . S
Cd44 O55 2.439 . S
O45 Cd44 2.240 . S
O45 C50 1.279 . S
O46 Cd43 2.297 . S
O46 C48 1.247 . S
O47 Cd43 2.439 . S
O47 C48 1.208 . S
C48 O46 1.247 . S
C48 O47 1.208 . S
C49 O54 1.247 . S
C49 O55 1.208 . S
C50 O42 1.315 . S
C50 O45 1.279 . S
C51 O52 1.315 . S
C51 O53 1.279 . S
O52 Cd44 2.223 . S
O52 C51 1.315 . S
O53 Cd43 2.240 . S
O53 C51 1.279 . S
O54 Cd44 2.297 . S
O54 C49 1.247 . S
O55 Cd44 2.439 . S
O55 C49 1.208 . S
O56 Cd57 2.223 . S
O56 C64 1.315 . S
Cd57 O56 2.223 . S
Cd57 O60 2.297 . S
Cd57 O61 2.439 . S
Cd57 O67 2.240 . S
Cd58 O59 2.240 . S
Cd58 O66 2.223 . S
Cd58 O68 2.297 . S
Cd58 O69 2.439 . S
O59 Cd58 2.240 . S
O59 C64 1.279 . S
O60 Cd57 2.297 . S
O60 C62 1.247 . S
O61 Cd57 2.439 . S
O61 C62 1.208 . S
C62 O60 1.247 . S
C62 O61 1.208 . S
C63 O68 1.247 . S
C63 O69 1.208 . S
C64 O56 1.315 . S
C64 O59 1.279 . S
C65 O66 1.315 . S
C65 O67 1.279 . S
O66 Cd58 2.223 . S
O66 C65 1.315 . S
O67 Cd57 2.240 . S
O67 C65 1.279 . S
O68 Cd58 2.297 . S
O68 C63 1.247 . S
O69 Cd58 2.439 . S
O69 C63 1.208 . S
O70 Cd71 2.223 . S
O70 C78 1.315 . S
Cd71 O70 2.223 . S
Cd71 O74 2.297 . S
Cd71 O75 2.439 . S
Cd71 O81 2.240 . S
Cd72 O73 2.240 . S
Cd72 O80 2.223 . S
Cd72 O82 2.297 . S
Cd72 O83 2.439 . S
O73 Cd72 2.240 . S
O73 C78 1.279 . S
O74 Cd71 2.297 . S
O74 C76 1.247 . S
O75 Cd71 2.439 . S
O75 C76 1.208 . S
C76 O74 1.247 . S
C76 O75 1.208 . S
C77 O82 1.247 . S
C77 O83 1.208 . S
C78 O70 1.315 . S
C78 O73 1.279 . S
C79 O80 1.315 . S
C79 O81 1.279 . S
O80 Cd72 2.223 . S
O80 C79 1.315 . S
O81 Cd71 2.240 . S
O81 C79 1.279 . S
O82 Cd72 2.297 . S
O82 C77 1.247 . S
O83 Cd72 2.439 . S
O83 C77 1.208 . S
O84 Cd85 2.223 . S
O84 C92 1.315 . S
Cd85 O84 2.223 . S
Cd85 O88 2.297 . S
Cd85 O89 2.439 . S
Cd85 O95 2.240 . S
Cd86 O87 2.240 . S
Cd86 O94 2.223 . S
Cd86 O96 2.297 . S
Cd86 O97 2.439 . S
O87 Cd86 2.240 . S
O87 C92 1.279 . S
O88 Cd85 2.297 . S
O88 C90 1.247 . S
O89 Cd85 2.439 . S
O89 C90 1.208 . S
C90 O88 1.247 . S
C90 O89 1.208 . S
C91 O96 1.247 . S
C91 O97 1.208 . S
C92 O84 1.315 . S
C92 O87 1.279 . S
C93 O94 1.315 . S
C93 O95 1.279 . S
O94 Cd86 2.223 . S
O94 C93 1.315 . S
O95 Cd85 2.240 . S
O95 C93 1.279 . S
O96 Cd86 2.297 . S
O96 C91 1.247 . S
O97 Cd86 2.439 . S
O97 C91 1.208 . S
O98 Cd99 2.223 . S
O98 C106 1.315 . S
Cd99 O98 2.223 . S
Cd99 O102 2.297 . S
Cd99 O103 2.439 . S
Cd99 O109 2.240 . S
Cd100 O101 2.240 . S
Cd100 O108 2.223 . S
Cd100 O110 2.297 . S
Cd100 O111 2.439 . S
O101 Cd100 2.240 . S
O101 C106 1.279 . S
O102 Cd99 2.297 . S
O102 C104 1.247 . S
O103 Cd99 2.439 . S
O103 C104 1.208 . S
C104 O102 1.247 . S
C104 O103 1.208 . S
C105 O110 1.247 . S
C105 O111 1.208 . S
C106 O98 1.315 . S
C106 O101 1.279 . S
C107 O108 1.315 . S
C107 O109 1.279 . S
O108 Cd100 2.223 . S
O108 C107 1.315 . S
O109 Cd99 2.240 . S
O109 C107 1.279 . S
O110 Cd100 2.297 . S
O110 C105 1.247 . S
O111 Cd100 2.439 . S
O111 C105 1.208 . S
O112 Cd113 2.223 . S
O112 C120 1.315 . S
Cd113 O112 2.223 . S
Cd113 O116 2.297 . S
Cd113 O117 2.439 . S
Cd113 O123 2.240 . S
Cd114 O115 2.240 . S
Cd114 O122 2.223 . S
Cd114 O124 2.297 . S
Cd114 O125 2.439 . S
O115 Cd114 2.240 . S
O115 C120 1.279 . S
O116 Cd113 2.297 . S
O116 C118 1.247 . S
O117 Cd113 2.439 . S
O117 C118 1.208 . S
C118 O116 1.247 . S
C118 O117 1.208 . S
C119 O124 1.247 . S
C119 O125 1.208 . S
C120 O112 1.315 . S
C120 O115 1.279 . S
C121 O122 1.315 . S
C121 O123 1.279 . S
O122 Cd114 2.223 . S
O122 C121 1.315 . S
O123 Cd113 2.240 . S
O123 C121 1.279 . S
O124 Cd114 2.297 . S
O124 C119 1.247 . S
O125 Cd114 2.439 . S
O125 C119 1.208 . S
O126 Cd127 2.223 . S
O126 C134 1.315 . S
Cd127 O126 2.223 . S
Cd127 O130 2.297 . S
Cd127 O131 2.439 . S
Cd127 O137 2.240 . S
Cd128 O129 2.240 . S
Cd128 O136 2.223 . S
Cd128 O138 2.297 . S
Cd128 O139 2.439 . S
O129 Cd128 2.240 . S
O129 C134 1.279 . S
O130 Cd127 2.297 . S
O130 C132 1.247 . S
O131 Cd127 2.439 . S
O131 C132 1.208 . S
C132 O130 1.247 . S
C132 O131 1.208 . S
C133 O138 1.247 . S
C133 O139 1.208 . S
C134 O126 1.315 . S
C134 O129 1.279 . S
C135 O136 1.315 . S
C135 O137 1.279 . S
O136 Cd128 2.223 . S
O136 C135 1.315 . S
O137 Cd127 2.240 . S
O137 C135 1.279 . S
O138 Cd128 2.297 . S
O138 C133 1.247 . S
O139 Cd128 2.439 . S
O139 C133 1.208 . S
O140 Cd141 2.223 . S
O140 C148 1.315 . S
Cd141 O140 2.223 . S
Cd141 O144 2.297 . S
Cd141 O145 2.439 . S
Cd141 O151 2.240 . S
Cd142 O143 2.240 . S
Cd142 O150 2.223 . S
Cd142 O152 2.297 . S
Cd142 O153 2.439 . S
O143 Cd142 2.240 . S
O143 C148 1.279 . S
O144 Cd141 2.297 . S
O144 C146 1.247 . S
O145 Cd141 2.439 . S
O145 C146 1.208 . S
C146 O144 1.247 . S
C146 O145 1.208 . S
C147 O152 1.247 . S
C147 O153 1.208 . S
C148 O140 1.315 . S
C148 O143 1.279 . S
C149 O150 1.315 . S
C149 O151 1.279 . S
O150 Cd142 2.223 . S
O150 C149 1.315 . S
O151 Cd141 2.240 . S
O151 C149 1.279 . S
O152 Cd142 2.297 . S
O152 C147 1.247 . S
O153 Cd142 2.439 . S
O153 C147 1.208 . S
O154 Cd155 2.223 . S
O154 C162 1.315 . S
Cd155 O154 2.223 . S
Cd155 O158 2.297 . S
Cd155 O159 2.439 . S
Cd155 O165 2.240 . S
Cd156 O157 2.240 . S
Cd156 O164 2.223 . S
Cd156 O166 2.297 . S
Cd156 O167 2.439 . S
O157 Cd156 2.240 . S
O157 C162 1.279 . S
O158 Cd155 2.297 . S
O158 C160 1.247 . S
O159 Cd155 2.439 . S
O159 C160 1.208 . S
C160 O158 1.247 . S
C160 O159 1.208 . S
C161 O166 1.247 . S
C161 O167 1.208 . S
C162 O154 1.315 . S
C162 O157 1.279 . S
C163 O164 1.315 . S
C163 O165 1.279 . S
O164 Cd156 2.223 . S
O164 C163 1.315 . S
O165 Cd155 2.240 . S
O165 C163 1.279 . S
O166 Cd156 2.297 . S
O166 C161 1.247 . S
O167 Cd156 2.439 . S
O167 C161 1.208 . S
O168 Cd169 2.223 . S
O168 C176 1.315 . S
Cd169 O168 2.223 . S
Cd169 O172 2.297 . S
Cd169 O173 2.439 . S
Cd169 O179 2.240 . S
Cd170 O171 2.240 . S
Cd170 O178 2.223 . S
Cd170 O180 2.297 . S
Cd170 O181 2.439 . S
O171 Cd170 2.240 . S
O171 C176 1.279 . S
O172 Cd169 2.297 . S
O172 C174 1.247 . S
O173 Cd169 2.439 . S
O173 C174 1.208 . S
C174 O172 1.247 . S
C174 O173 1.208 . S
C175 O180 1.247 . S
C175 O181 1.208 . S
C176 O168 1.315 . S
C176 O171 1.279 . S
C177 O178 1.315 . S
C177 O179 1.279 . S
O178 Cd170 2.223 . S
O178 C177 1.315 . S
O179 Cd169 2.240 . S
O179 C177 1.279 . S
O180 Cd170 2.297 . S
O180 C175 1.247 . S
O181 Cd170 2.439 . S
O181 C175 1.208 . S
O182 Cd183 2.223 . S
O182 C190 1.315 . S
Cd183 O182 2.223 . S
Cd183 O186 2.297 . S
Cd183 O187 2.439 . S
Cd183 O193 2.240 . S
Cd184 O185 2.240 . S
Cd184 O192 2.223 . S
Cd184 O194 2.297 . S
Cd184 O195 2.439 . S
O185 Cd184 2.240 . S
O185 C190 1.279 . S
O186 Cd183 2.297 . S
O186 C188 1.247 . S
O187 Cd183 2.439 . S
O187 C188 1.208 . S
C188 O186 1.247 . S
C188 O187 1.208 . S
C189 O194 1.247 . S
C189 O195 1.208 . S
C190 O182 1.315 . S
C190 O185 1.279 . S
C191 O192 1.315 . S
C191 O193 1.279 . S
O192 Cd184 2.223 . S
O192 C191 1.315 . S
O193 Cd183 2.240 . S
O193 C191 1.279 . S
O194 Cd184 2.297 . S
O194 C189 1.247 . S
O195 Cd184 2.439 . S
O195 C189 1.208 . S
O196 Cd197 2.223 . S
O196 C204 1.315 . S
Cd197 O196 2.223 . S
Cd197 O200 2.297 . S
Cd197 O201 2.439 . S
Cd197 O207 2.240 . S
Cd198 O199 2.240 . S
Cd198 O206 2.223 . S
Cd198 O208 2.297 . S
Cd198 O209 2.439 . S
O199 Cd198 2.240 . S
O199 C204 1.279 . S
O200 Cd197 2.297 . S
O200 C202 1.247 . S
O201 Cd197 2.439 . S
O201 C202 1.208 . S
C202 O200 1.247 . S
C202 O201 1.208 . S
C203 O208 1.247 . S
C203 O209 1.208 . S
C204 O196 1.315 . S
C204 O199 1.279 . S
C205 O206 1.315 . S
C205 O207 1.279 . S
O206 Cd198 2.223 . S
O206 C205 1.315 . S
O207 Cd197 2.240 . S
O207 C205 1.279 . S
O208 Cd198 2.297 . S
O208 C203 1.247 . S
O209 Cd198 2.439 . S
O209 C203 1.208 . S
O210 Cd211 2.223 . S
O210 C218 1.315 . S
Cd211 O210 2.223 . S
Cd211 O214 2.297 1_554 S
Cd211 O215 2.439 1_554 S
Cd211 O221 2.240 . S
Cd212 O213 2.240 . S
Cd212 O220 2.223 . S
Cd212 O222 2.297 . S
Cd212 O223 2.439 . S
O213 Cd212 2.240 . S
O213 C218 1.279 . S
O214 Cd211 2.297 1_556 S
O214 C216 1.247 . S
O215 Cd211 2.439 1_556 S
O215 C216 1.208 . S
C216 O214 1.247 . S
C216 O215 1.208 . S
C217 O222 1.247 . S
C217 O223 1.208 . S
C218 O210 1.315 . S
C218 O213 1.279 . S
C219 O220 1.315 . S
C219 O221 1.279 . S
O220 Cd212 2.223 . S
O220 C219 1.315 . S
O221 Cd211 2.240 . S
O221 C219 1.279 . S
O222 Cd212 2.297 . S
O222 C217 1.247 . S
O223 Cd212 2.439 . S
O223 C217 1.208 . S
O224 Cd225 2.223 . S
O224 C232 1.315 . S
Cd225 O224 2.223 . S
Cd225 O228 2.297 1_554 S
Cd225 O229 2.439 1_554 S
Cd225 O235 2.240 . S
Cd226 O227 2.240 . S
Cd226 O234 2.223 . S
Cd226 O236 2.297 . S
Cd226 O237 2.439 . S
O227 Cd226 2.240 . S
O227 C232 1.279 . S
O228 Cd225 2.297 1_556 S
O228 C230 1.247 . S
O229 Cd225 2.439 1_556 S
O229 C230 1.208 . S
C230 O228 1.247 . S
C230 O229 1.208 . S
C231 O236 1.247 . S
C231 O237 1.208 . S
C232 O224 1.315 . S
C232 O227 1.279 . S
C233 O234 1.315 . S
C233 O235 1.279 . S
O234 Cd226 2.223 . S
O234 C233 1.315 . S
O235 Cd225 2.240 . S
O235 C233 1.279 . S
O236 Cd226 2.297 . S
O236 C231 1.247 . S
O237 Cd226 2.439 . S
O237 C231 1.208 . S
O238 Cd239 2.223 . S
O238 C246 1.315 . S
Cd239 O238 2.223 . S
Cd239 O242 2.297 1_554 S
Cd239 O243 2.439 1_554 S
Cd239 O249 2.240 . S
Cd240 O241 2.240 . S
Cd240 O248 2.223 . S
Cd240 O250 2.297 . S
Cd240 O251 2.439 . S
O241 Cd240 2.240 . S
O241 C246 1.279 . S
O242 Cd239 2.297 1_556 S
O242 C244 1.247 . S
O243 Cd239 2.439 1_556 S
O243 C244 1.208 . S
C244 O242 1.247 . S
C244 O243 1.208 . S
C245 O250 1.247 . S
C245 O251 1.208 . S
C246 O238 1.315 . S
C246 O241 1.279 . S
C247 O248 1.315 . S
C247 O249 1.279 . S
O248 Cd240 2.223 . S
O248 C247 1.315 . S
O249 Cd239 2.240 . S
O249 C247 1.279 . S
O250 Cd240 2.297 . S
O250 C245 1.247 . S
O251 Cd240 2.439 . S
O251 C245 1.208 . S
O252 Cd253 2.223 . S
O252 C260 1.315 . S
Cd253 O252 2.223 . S
Cd253 O256 2.297 1_554 S
Cd253 O257 2.439 1_554 S
Cd253 O263 2.240 . S
Cd254 O255 2.240 . S
Cd254 O262 2.223 . S
Cd254 O264 2.297 . S
Cd254 O265 2.439 . S
O255 Cd254 2.240 . S
O255 C260 1.279 . S
O256 Cd253 2.297 1_556 S
O256 C258 1.247 . S
O257 Cd253 2.439 1_556 S
O257 C258 1.208 . S
C258 O256 1.247 . S
C258 O257 1.208 . S
C259 O264 1.247 . S
C259 O265 1.208 . S
C260 O252 1.315 . S
C260 O255 1.279 . S
C261 O262 1.315 . S
C261 O263 1.279 . S
O262 Cd254 2.223 . S
O262 C261 1.315 . S
O263 Cd253 2.240 . S
O263 C261 1.279 . S
O264 Cd254 2.297 . S
O264 C259 1.247 . S
O265 Cd254 2.439 . S
O265 C259 1.208 . S
O266 Cd267 2.223 . S
O266 C274 1.315 . S
Cd267 O266 2.223 . S
Cd267 O270 2.297 1_554 S
Cd267 O271 2.439 1_554 S
Cd267 O277 2.240 . S
Cd268 O269 2.240 . S
Cd268 O276 2.223 . S
Cd268 O278 2.297 . S
Cd268 O279 2.439 . S
O269 Cd268 2.240 . S
O269 C274 1.279 . S
O270 Cd267 2.297 1_556 S
O270 C272 1.247 . S
O271 Cd267 2.439 1_556 S
O271 C272 1.208 . S
C272 O270 1.247 . S
C272 O271 1.208 . S
C273 O278 1.247 . S
C273 O279 1.208 . S
C274 O266 1.315 . S
C274 O269 1.279 . S
C275 O276 1.315 . S
C275 O277 1.279 . S
O276 Cd268 2.223 . S
O276 C275 1.315 . S
O277 Cd267 2.240 . S
O277 C275 1.279 . S
O278 Cd268 2.297 . S
O278 C273 1.247 . S
O279 Cd268 2.439 . S
O279 C273 1.208 . S
O280 Cd281 2.223 . S
O280 C288 1.315 . S
Cd281 O280 2.223 . S
Cd281 O284 2.297 1_554 S
Cd281 O285 2.439 1_554 S
Cd281 O291 2.240 . S
Cd282 O283 2.240 . S
Cd282 O290 2.223 . S
Cd282 O292 2.297 . S
Cd282 O293 2.439 . S
O283 Cd282 2.240 . S
O283 C288 1.279 . S
O284 Cd281 2.297 1_556 S
O284 C286 1.247 . S
O285 Cd281 2.439 1_556 S
O285 C286 1.208 . S
C286 O284 1.247 . S
C286 O285 1.208 . S
C287 O292 1.247 . S
C287 O293 1.208 . S
C288 O280 1.315 . S
C288 O283 1.279 . S
C289 O290 1.315 . S
C289 O291 1.279 . S
O290 Cd282 2.223 . S
O290 C289 1.315 . S
O291 Cd281 2.240 . S
O291 C289 1.279 . S
O292 Cd282 2.297 . S
O292 C287 1.247 . S
O293 Cd282 2.439 . S
O293 C287 1.208 . S
O294 Cd295 2.223 . S
O294 C302 1.315 . S
Cd295 O294 2.223 . S
Cd295 O298 2.297 . S
Cd295 O299 2.439 . S
Cd295 O305 2.240 . S
Cd296 O297 2.240 . S
Cd296 O304 2.223 . S
Cd296 O306 2.297 . S
Cd296 O307 2.439 . S
O297 Cd296 2.240 . S
O297 C302 1.279 . S
O298 Cd295 2.297 . S
O298 C300 1.247 . S
O299 Cd295 2.439 . S
O299 C300 1.208 . S
C300 O298 1.247 . S
C300 O299 1.208 . S
C301 O306 1.247 . S
C301 O307 1.208 . S
C302 O294 1.315 . S
C302 O297 1.279 . S
C303 O304 1.315 . S
C303 O305 1.279 . S
O304 Cd296 2.223 . S
O304 C303 1.315 . S
O305 Cd295 2.240 . S
O305 C303 1.279 . S
O306 Cd296 2.297 . S
O306 C301 1.247 . S
O307 Cd296 2.439 . S
O307 C301 1.208 . S
O308 Cd309 2.223 . S
O308 C316 1.315 . S
Cd309 O308 2.223 . S
Cd309 O312 2.297 . S
Cd309 O313 2.439 . S
Cd309 O319 2.240 . S
Cd310 O311 2.240 . S
Cd310 O318 2.223 . S
Cd310 O320 2.297 . S
Cd310 O321 2.439 . S
O311 Cd310 2.240 . S
O311 C316 1.279 . S
O312 Cd309 2.297 . S
O312 C314 1.247 . S
O313 Cd309 2.439 . S
O313 C314 1.208 . S
C314 O312 1.247 . S
C314 O313 1.208 . S
C315 O320 1.247 . S
C315 O321 1.208 . S
C316 O308 1.315 . S
C316 O311 1.279 . S
C317 O318 1.315 . S
C317 O319 1.279 . S
O318 Cd310 2.223 . S
O318 C317 1.315 . S
O319 Cd309 2.240 . S
O319 C317 1.279 . S
O320 Cd310 2.297 . S
O320 C315 1.247 . S
O321 Cd310 2.439 . S
O321 C315 1.208 . S
O322 Cd323 2.223 . S
O322 C330 1.315 . S
Cd323 O322 2.223 . S
Cd323 O326 2.297 . S
Cd323 O327 2.439 . S
Cd323 O333 2.240 . S
Cd324 O325 2.240 . S
Cd324 O332 2.223 . S
Cd324 O334 2.297 . S
Cd324 O335 2.439 . S
O325 Cd324 2.240 . S
O325 C330 1.279 . S
O326 Cd323 2.297 . S
O326 C328 1.247 . S
O327 Cd323 2.439 . S
O327 C328 1.208 . S
C328 O326 1.247 . S
C328 O327 1.208 . S
C329 O334 1.247 . S
C329 O335 1.208 . S
C330 O322 1.315 . S
C330 O325 1.279 . S
C331 O332 1.315 . S
C331 O333 1.279 . S
O332 Cd324 2.223 . S
O332 C331 1.315 . S
O333 Cd323 2.240 . S
O333 C331 1.279 . S
O334 Cd324 2.297 . S
O334 C329 1.247 . S
O335 Cd324 2.439 . S
O335 C329 1.208 . S
O336 Cd337 2.223 . S
O336 C344 1.315 . S
Cd337 O336 2.223 . S
Cd337 O340 2.297 1_556 S
Cd337 O341 2.439 1_556 S
Cd337 O347 2.240 . S
Cd338 O339 2.240 . S
Cd338 O346 2.223 . S
Cd338 O348 2.297 . S
Cd338 O349 2.439 . S
O339 Cd338 2.240 . S
O339 C344 1.279 . S
O340 Cd337 2.297 1_554 S
O340 C342 1.247 . S
O341 Cd337 2.439 1_554 S
O341 C342 1.208 . S
C342 O340 1.247 . S
C342 O341 1.208 . S
C343 O348 1.247 . S
C343 O349 1.208 . S
C344 O336 1.315 . S
C344 O339 1.279 . S
C345 O346 1.315 . S
C345 O347 1.279 . S
O346 Cd338 2.223 . S
O346 C345 1.315 . S
O347 Cd337 2.240 . S
O347 C345 1.279 . S
O348 Cd338 2.297 . S
O348 C343 1.247 . S
O349 Cd338 2.439 . S
O349 C343 1.208 . S
O350 Cd351 2.223 . S
O350 C358 1.315 . S
Cd351 O350 2.223 . S
Cd351 O354 2.297 1_556 S
Cd351 O355 2.439 1_556 S
Cd351 O361 2.240 . S
Cd352 O353 2.240 . S
Cd352 O360 2.223 . S
Cd352 O362 2.297 . S
Cd352 O363 2.439 . S
O353 Cd352 2.240 . S
O353 C358 1.279 . S
O354 Cd351 2.297 1_554 S
O354 C356 1.247 . S
O355 Cd351 2.439 1_554 S
O355 C356 1.208 . S
C356 O354 1.247 . S
C356 O355 1.208 . S
C357 O362 1.247 . S
C357 O363 1.208 . S
C358 O350 1.315 . S
C358 O353 1.279 . S
C359 O360 1.315 . S
C359 O361 1.279 . S
O360 Cd352 2.223 . S
O360 C359 1.315 . S
O361 Cd351 2.240 . S
O361 C359 1.279 . S
O362 Cd352 2.297 . S
O362 C357 1.247 . S
O363 Cd352 2.439 . S
O363 C357 1.208 . S
O364 Cd365 2.223 . S
O364 C372 1.315 . S
Cd365 O364 2.223 . S
Cd365 O368 2.297 1_556 S
Cd365 O369 2.439 1_556 S
Cd365 O375 2.240 . S
Cd366 O367 2.240 . S
Cd366 O374 2.223 . S
Cd366 O376 2.297 . S
Cd366 O377 2.439 . S
O367 Cd366 2.240 . S
O367 C372 1.279 . S
O368 Cd365 2.297 1_554 S
O368 C370 1.247 . S
O369 Cd365 2.439 1_554 S
O369 C370 1.208 . S
C370 O368 1.247 . S
C370 O369 1.208 . S
C371 O376 1.247 . S
C371 O377 1.208 . S
C372 O364 1.315 . S
C372 O367 1.279 . S
C373 O374 1.315 . S
C373 O375 1.279 . S
O374 Cd366 2.223 . S
O374 C373 1.315 . S
O375 Cd365 2.240 . S
O375 C373 1.279 . S
O376 Cd366 2.297 . S
O376 C371 1.247 . S
O377 Cd366 2.439 . S
O377 C371 1.208 . S
O378 Cd379 2.223 . S
O378 C386 1.315 . S
Cd379 O378 2.223 . S
Cd379 O382 2.297 . S
Cd379 O383 2.439 . S
Cd379 O389 2.240 . S
Cd380 O381 2.240 . S
Cd380 O388 2.223 . S
Cd380 O390 2.297 . S
Cd380 O391 2.439 . S
O381 Cd380 2.240 . S
O381 C386 1.279 . S
O382 Cd379 2.297 . S
O382 C384 1.247 . S
O383 Cd379 2.439 . S
O383 C384 1.208 . S
C384 O382 1.247 . S
C384 O383 1.208 . S
C385 O390 1.247 . S
C385 O391 1.208 . S
C386 O378 1.315 . S
C386 O381 1.279 . S
C387 O388 1.315 . S
C387 O389 1.279 . S
O388 Cd380 2.223 . S
O388 C387 1.315 . S
O389 Cd379 2.240 . S
O389 C387 1.279 . S
O390 Cd380 2.297 . S
O390 C385 1.247 . S
O391 Cd380 2.439 . S
O391 C385 1.208 . S
O392 Cd393 2.223 . S
O392 C400 1.315 . S
Cd393 O392 2.223 . S
Cd393 O396 2.297 . S
Cd393 O397 2.439 . S
Cd393 O403 2.240 . S
Cd394 O395 2.240 . S
Cd394 O402 2.223 . S
Cd394 O404 2.297 . S
Cd394 O405 2.439 . S
O395 Cd394 2.240 . S
O395 C400 1.279 . S
O396 Cd393 2.297 . S
O396 C398 1.247 . S
O397 Cd393 2.439 . S
O397 C398 1.208 . S
C398 O396 1.247 . S
C398 O397 1.208 . S
C399 O404 1.247 . S
C399 O405 1.208 . S
C400 O392 1.315 . S
C400 O395 1.279 . S
C401 O402 1.315 . S
C401 O403 1.279 . S
O402 Cd394 2.223 . S
O402 C401 1.315 . S
O403 Cd393 2.240 . S
O403 C401 1.279 . S
O404 Cd394 2.297 . S
O404 C399 1.247 . S
O405 Cd394 2.439 . S
O405 C399 1.208 . S
O406 Cd407 2.223 . S
O406 C414 1.315 . S
Cd407 O406 2.223 . S
Cd407 O410 2.297 . S
Cd407 O411 2.439 . S
Cd407 O417 2.240 . S
Cd408 O409 2.240 . S
Cd408 O416 2.223 . S
Cd408 O418 2.297 . S
Cd408 O419 2.439 . S
O409 Cd408 2.240 . S
O409 C414 1.279 . S
O410 Cd407 2.297 . S
O410 C412 1.247 . S
O411 Cd407 2.439 . S
O411 C412 1.208 . S
C412 O410 1.247 . S
C412 O411 1.208 . S
C413 O418 1.247 . S
C413 O419 1.208 . S
C414 O406 1.315 . S
C414 O409 1.279 . S
C415 O416 1.315 . S
C415 O417 1.279 . S
O416 Cd408 2.223 . S
O416 C415 1.315 . S
O417 Cd407 2.240 . S
O417 C415 1.279 . S
O418 Cd408 2.297 . S
O418 C413 1.247 . S
O419 Cd408 2.439 . S
O419 C413 1.208 . S
O420 Cd421 2.223 . S
O420 C428 1.315 . S
Cd421 O420 2.223 . S
Cd421 O424 2.297 . S
Cd421 O425 2.439 . S
Cd421 O431 2.240 . S
Cd422 O423 2.240 . S
Cd422 O430 2.223 . S
Cd422 O432 2.297 . S
Cd422 O433 2.439 . S
O423 Cd422 2.240 . S
O423 C428 1.279 . S
O424 Cd421 2.297 . S
O424 C426 1.247 . S
O425 Cd421 2.439 . S
O425 C426 1.208 . S
C426 O424 1.247 . S
C426 O425 1.208 . S
C427 O432 1.247 . S
C427 O433 1.208 . S
C428 O420 1.315 . S
C428 O423 1.279 . S
C429 O430 1.315 . S
C429 O431 1.279 . S
O430 Cd422 2.223 . S
O430 C429 1.315 . S
O431 Cd421 2.240 . S
O431 C429 1.279 . S
O432 Cd422 2.297 . S
O432 C427 1.247 . S
O433 Cd422 2.439 . S
O433 C427 1.208 . S
O434 Cd435 2.223 . S
O434 C442 1.315 . S
Cd435 O434 2.223 . S
Cd435 O438 2.297 . S
Cd435 O439 2.439 . S
Cd435 O445 2.240 . S
Cd436 O437 2.240 . S
Cd436 O444 2.223 . S
Cd436 O446 2.297 . S
Cd436 O447 2.439 . S
O437 Cd436 2.240 . S
O437 C442 1.279 . S
O438 Cd435 2.297 . S
O438 C440 1.247 . S
O439 Cd435 2.439 . S
O439 C440 1.208 . S
C440 O438 1.247 . S
C440 O439 1.208 . S
C441 O446 1.247 . S
C441 O447 1.208 . S
C442 O434 1.315 . S
C442 O437 1.279 . S
C443 O444 1.315 . S
C443 O445 1.279 . S
O444 Cd436 2.223 . S
O444 C443 1.315 . S
O445 Cd435 2.240 . S
O445 C443 1.279 . S
O446 Cd436 2.297 . S
O446 C441 1.247 . S
O447 Cd436 2.439 . S
O447 C441 1.208 . S
O448 Cd449 2.223 . S
O448 C456 1.315 . S
Cd449 O448 2.223 . S
Cd449 O452 2.297 . S
Cd449 O453 2.439 . S
Cd449 O459 2.240 . S
Cd450 O451 2.240 . S
Cd450 O458 2.223 . S
Cd450 O460 2.297 . S
Cd450 O461 2.439 . S
O451 Cd450 2.240 . S
O451 C456 1.279 . S
O452 Cd449 2.297 . S
O452 C454 1.247 . S
O453 Cd449 2.439 . S
O453 C454 1.208 . S
C454 O452 1.247 . S
C454 O453 1.208 . S
C455 O460 1.247 . S
C455 O461 1.208 . S
C456 O448 1.315 . S
C456 O451 1.279 . S
C457 O458 1.315 . S
C457 O459 1.279 . S
O458 Cd450 2.223 . S
O458 C457 1.315 . S
O459 Cd449 2.240 . S
O459 C457 1.279 . S
O460 Cd450 2.297 . S
O460 C455 1.247 . S
O461 Cd450 2.439 . S
O461 C455 1.208 . S
O462 Cd463 2.223 . S
O462 C470 1.315 . S
Cd463 O462 2.223 . S
Cd463 O466 2.297 1_556 S
Cd463 O467 2.439 1_556 S
Cd463 O473 2.240 . S
Cd464 O465 2.240 . S
Cd464 O472 2.223 . S
Cd464 O474 2.297 . S
Cd464 O475 2.439 . S
O465 Cd464 2.240 . S
O465 C470 1.279 . S
O466 Cd463 2.297 1_554 S
O466 C468 1.247 . S
O467 Cd463 2.439 1_554 S
O467 C468 1.208 . S
C468 O466 1.247 . S
C468 O467 1.208 . S
C469 O474 1.247 . S
C469 O475 1.208 . S
C470 O462 1.315 . S
C470 O465 1.279 . S
C471 O472 1.315 . S
C471 O473 1.279 . S
O472 Cd464 2.223 . S
O472 C471 1.315 . S
O473 Cd463 2.240 . S
O473 C471 1.279 . S
O474 Cd464 2.297 . S
O474 C469 1.247 . S
O475 Cd464 2.439 . S
O475 C469 1.208 . S
O476 Cd477 2.223 . S
O476 C484 1.315 . S
Cd477 O476 2.223 . S
Cd477 O480 2.297 1_556 S
Cd477 O481 2.439 1_556 S
Cd477 O487 2.240 . S
Cd478 O479 2.240 . S
Cd478 O486 2.223 . S
Cd478 O488 2.297 . S
Cd478 O489 2.439 . S
O479 Cd478 2.240 . S
O479 C484 1.279 . S
O480 Cd477 2.297 1_554 S
O480 C482 1.247 . S
O481 Cd477 2.439 1_554 S
O481 C482 1.208 . S
C482 O480 1.247 . S
C482 O481 1.208 . S
C483 O488 1.247 . S
C483 O489 1.208 . S
C484 O476 1.315 . S
C484 O479 1.279 . S
C485 O486 1.315 . S
C485 O487 1.279 . S
O486 Cd478 2.223 . S
O486 C485 1.315 . S
O487 Cd477 2.240 . S
O487 C485 1.279 . S
O488 Cd478 2.297 . S
O488 C483 1.247 . S
O489 Cd478 2.439 . S
O489 C483 1.208 . S
O490 Cd491 2.223 . S
O490 C498 1.315 . S
Cd491 O490 2.223 . S
Cd491 O494 2.297 1_556 S
Cd491 O495 2.439 1_556 S
Cd491 O501 2.240 . S
Cd492 O493 2.240 . S
Cd492 O500 2.223 . S
Cd492 O502 2.297 . S
Cd492 O503 2.439 . S
O493 Cd492 2.240 . S
O493 C498 1.279 . S
O494 Cd491 2.297 1_554 S
O494 C496 1.247 . S
O495 Cd491 2.439 1_554 S
O495 C496 1.208 . S
C496 O494 1.247 . S
C496 O495 1.208 . S
C497 O502 1.247 . S
C497 O503 1.208 . S
C498 O490 1.315 . S
C498 O493 1.279 . S
C499 O500 1.315 . S
C499 O501 1.279 . S
O500 Cd492 2.223 . S
O500 C499 1.315 . S
O501 Cd491 2.240 . S
O501 C499 1.279 . S
O502 Cd492 2.297 . S
O502 C497 1.247 . S
O503 Cd492 2.439 . S
O503 C497 1.208 . S
C504 C505 1.369 . S
C504 C506 1.419 . S
C504 H508 0.930 . S
C505 C504 1.369 . S
C505 C514 1.429 1_565 S
C506 C504 1.419 . S
C506 C507 1.363 1_565 S
C506 H509 0.929 . S
C507 C506 1.363 1_545 S
C507 C513 1.428 . S
H508 C504 0.930 . S
H509 C506 0.929 . S
S510 N511 1.613 . S
S510 N512 1.610 . S
N511 S510 1.613 . S
N511 C514 1.350 . S
N512 S510 1.610 . S
N512 C513 1.351 . S
C513 C507 1.428 . S
C513 N512 1.351 . S
C513 C514 1.434 . S
C514 C505 1.429 1_545 S
C514 N511 1.350 . S
C514 C513 1.434 . S
C515 C516 1.369 1_655 S
C515 C517 1.419 . S
C515 H519 0.930 . S
C516 C515 1.369 1_455 S
C516 C525 1.429 . S
C517 C515 1.419 . S
C517 C518 1.363 . S
C517 H520 0.929 . S
C518 C517 1.363 . S
C518 C524 1.428 1_655 S
H519 C515 0.930 . S
H520 C517 0.929 . S
S521 N522 1.613 . S
S521 N523 1.610 . S
N522 S521 1.613 . S
N522 C525 1.350 . S
N523 S521 1.610 . S
N523 C524 1.351 . S
C524 C518 1.428 1_455 S
C524 N523 1.351 . S
C524 C525 1.434 . S
C525 C516 1.429 . S
C525 N522 1.350 . S
C525 C524 1.434 . S
C526 C527 1.369 . S
C526 C528 1.419 . S
C526 H530 0.930 . S
C527 C526 1.369 . S
C527 C536 1.429 . S
C528 C526 1.419 . S
C528 C529 1.363 . S
C528 H531 0.929 . S
C529 C528 1.363 . S
C529 C535 1.428 . S
H530 C526 0.930 . S
H531 C528 0.929 . S
S532 N533 1.613 . S
S532 N534 1.610 . S
N533 S532 1.613 . S
N533 C536 1.350 . S
N534 S532 1.610 . S
N534 C535 1.351 . S
C535 C529 1.428 . S
C535 N534 1.351 . S
C535 C536 1.434 . S
C536 C527 1.429 . S
C536 N533 1.350 . S
C536 C535 1.434 . S
C537 C538 1.369 . S
C537 C539 1.419 . S
C537 H541 0.930 . S
C538 C537 1.369 . S
C538 C547 1.429 1_565 S
C539 C537 1.419 . S
C539 C540 1.363 1_565 S
C539 H542 0.929 . S
C540 C539 1.363 1_545 S
C540 C546 1.428 . S
H541 C537 0.930 . S
H542 C539 0.929 . S
S543 N544 1.613 . S
S543 N545 1.610 . S
N544 S543 1.613 . S
N544 C547 1.350 . S
N545 S543 1.610 . S
N545 C546 1.351 . S
C546 C540 1.428 . S
C546 N545 1.351 . S
C546 C547 1.434 . S
C547 C538 1.429 1_545 S
C547 N544 1.350 . S
C547 C546 1.434 . S
C548 C549 1.369 . S
C548 C550 1.419 1_455 S
C548 H552 0.930 . S
C549 C548 1.369 . S
C549 C558 1.429 . S
C550 C548 1.419 1_655 S
C550 C551 1.363 . S
C550 H553 0.929 . S
C551 C550 1.363 . S
C551 C557 1.428 . S
H552 C548 0.930 . S
H553 C550 0.929 . S
S554 N555 1.613 1_655 S
S554 N556 1.610 . S
N555 S554 1.613 1_455 S
N555 C558 1.350 . S
N556 S554 1.610 . S
N556 C557 1.351 . S
C557 C551 1.428 . S
C557 N556 1.351 . S
C557 C558 1.434 1_655 S
C558 C549 1.429 . S
C558 N555 1.350 . S
C558 C557 1.434 1_455 S
C559 C560 1.369 . S
C559 C561 1.419 . S
C559 H563 0.930 . S
C560 C559 1.369 . S
C560 C569 1.429 . S
C561 C559 1.419 . S
C561 C562 1.363 . S
C561 H564 0.929 . S
C562 C561 1.363 . S
C562 C568 1.428 . S
H563 C559 0.930 . S
H564 C561 0.929 . S
S565 N566 1.613 . S
S565 N567 1.610 . S
N566 S565 1.613 . S
N566 C569 1.350 . S
N567 S565 1.610 . S
N567 C568 1.351 . S
C568 C562 1.428 . S
C568 N567 1.351 . S
C568 C569 1.434 . S
C569 C560 1.429 . S
C569 N566 1.350 . S
C569 C568 1.434 . S
C570 C571 1.369 . S
C570 C572 1.419 . S
C570 H574 0.930 . S
C571 C570 1.369 . S
C571 C580 1.429 . S
C572 C570 1.419 . S
C572 C573 1.363 . S
C572 H575 0.929 . S
C573 C572 1.363 . S
C573 C579 1.428 . S
H574 C570 0.930 . S
H575 C572 0.929 . S
S576 N577 1.613 . S
S576 N578 1.610 . S
N577 S576 1.613 . S
N577 C580 1.350 . S
N578 S576 1.610 . S
N578 C579 1.351 . S
C579 C573 1.428 . S
C579 N578 1.351 . S
C579 C580 1.434 . S
C580 C571 1.429 . S
C580 N577 1.350 . S
C580 C579 1.434 . S
C581 C582 1.369 . S
C581 C583 1.419 . S
C581 H585 0.930 . S
C582 C581 1.369 . S
C582 C591 1.429 . S
C583 C581 1.419 . S
C583 C584 1.363 . S
C583 H586 0.929 . S
C584 C583 1.363 . S
C584 C590 1.428 . S
H585 C581 0.930 . S
H586 C583 0.929 . S
S587 N588 1.613 . S
S587 N589 1.610 . S
N588 S587 1.613 . S
N588 C591 1.350 . S
N589 S587 1.610 . S
N589 C590 1.351 . S
C590 C584 1.428 . S
C590 N589 1.351 . S
C590 C591 1.434 . S
C591 C582 1.429 . S
C591 N588 1.350 . S
C591 C590 1.434 . S
C592 C593 1.369 . S
C592 C594 1.419 . S
C592 H596 0.930 . S
C593 C592 1.369 . S
C593 C602 1.429 . S
C594 C592 1.419 . S
C594 C595 1.363 . S
C594 H597 0.929 . S
C595 C594 1.363 . S
C595 C601 1.428 . S
H596 C592 0.930 . S
H597 C594 0.929 . S
S598 N599 1.613 . S
S598 N600 1.610 . S
N599 S598 1.613 . S
N599 C602 1.350 . S
N600 S598 1.610 . S
N600 C601 1.351 . S
C601 C595 1.428 . S
C601 N600 1.351 . S
C601 C602 1.434 . S
C602 C593 1.429 . S
C602 N599 1.350 . S
C602 C601 1.434 . S
C603 C604 1.369 . S
C603 C605 1.419 . S
C603 H607 0.930 . S
C604 C603 1.369 . S
C604 C613 1.429 . S
C605 C603 1.419 . S
C605 C606 1.363 . S
C605 H608 0.929 . S
C606 C605 1.363 . S
C606 C612 1.428 . S
H607 C603 0.930 . S
H608 C605 0.929 . S
S609 N610 1.613 . S
S609 N611 1.610 . S
N610 S609 1.613 . S
N610 C613 1.350 . S
N611 S609 1.610 . S
N611 C612 1.351 . S
C612 C606 1.428 . S
C612 N611 1.351 . S
C612 C613 1.434 . S
C613 C604 1.429 . S
C613 N610 1.350 . S
C613 C612 1.434 . S
C614 C615 1.369 . S
C614 C616 1.419 . S
C614 H618 0.930 . S
C615 C614 1.369 . S
C615 C624 1.429 . S
C616 C614 1.419 . S
C616 C617 1.363 . S
C616 H619 0.929 . S
C617 C616 1.363 . S
C617 C623 1.428 . S
H618 C614 0.930 . S
H619 C616 0.929 . S
S620 N621 1.613 . S
S620 N622 1.610 . S
N621 S620 1.613 . S
N621 C624 1.350 . S
N622 S620 1.610 . S
N622 C623 1.351 . S
C623 C617 1.428 . S
C623 N622 1.351 . S
C623 C624 1.434 . S
C624 C615 1.429 . S
C624 N621 1.350 . S
C624 C623 1.434 . S
C625 C626 1.369 . S
C625 C627 1.419 . S
C625 H629 0.930 . S
C626 C625 1.369 . S
C626 C635 1.429 . S
C627 C625 1.419 . S
C627 C628 1.363 . S
C627 H630 0.929 . S
C628 C627 1.363 . S
C628 C634 1.428 . S
H629 C625 0.930 . S
H630 C627 0.929 . S
S631 N632 1.613 . S
S631 N633 1.610 . S
N632 S631 1.613 . S
N632 C635 1.350 . S
N633 S631 1.610 . S
N633 C634 1.351 . S
C634 C628 1.428 . S
C634 N633 1.351 . S
C634 C635 1.434 . S
C635 C626 1.429 . S
C635 N632 1.350 . S
C635 C634 1.434 . S
C636 C637 1.369 . S
C636 C638 1.419 . S
C636 H640 0.930 . S
C637 C636 1.369 . S
C637 C646 1.429 . S
C638 C636 1.419 . S
C638 C639 1.363 . S
C638 H641 0.929 . S
C639 C638 1.363 . S
C639 C645 1.428 . S
H640 C636 0.930 . S
H641 C638 0.929 . S
S642 N643 1.613 . S
S642 N644 1.610 . S
N643 S642 1.613 . S
N643 C646 1.350 . S
N644 S642 1.610 . S
N644 C645 1.351 . S
C645 C639 1.428 . S
C645 N644 1.351 . S
C645 C646 1.434 . S
C646 C637 1.429 . S
C646 N643 1.350 . S
C646 C645 1.434 . S
C647 C648 1.369 . S
C647 C649 1.419 . S
C647 H651 0.930 . S
C648 C647 1.369 . S
C648 C657 1.429 . S
C649 C647 1.419 . S
C649 C650 1.363 . S
C649 H652 0.929 . S
C650 C649 1.363 . S
C650 C656 1.428 . S
H651 C647 0.930 . S
H652 C649 0.929 . S
S653 N654 1.613 . S
S653 N655 1.610 . S
N654 S653 1.613 . S
N654 C657 1.350 . S
N655 S653 1.610 . S
N655 C656 1.351 . S
C656 C650 1.428 . S
C656 N655 1.351 . S
C656 C657 1.434 . S
C657 C648 1.429 . S
C657 N654 1.350 . S
C657 C656 1.434 . S
C658 C659 1.369 . S
C658 C660 1.419 . S
C658 H662 0.930 . S
C659 C658 1.369 . S
C659 C668 1.429 . S
C660 C658 1.419 . S
C660 C661 1.363 . S
C660 H663 0.929 . S
C661 C660 1.363 . S
C661 C667 1.428 . S
H662 C658 0.930 . S
H663 C660 0.929 . S
S664 N665 1.613 . S
S664 N666 1.610 . S
N665 S664 1.613 . S
N665 C668 1.350 . S
N666 S664 1.610 . S
N666 C667 1.351 . S
C667 C661 1.428 . S
C667 N666 1.351 . S
C667 C668 1.434 . S
C668 C659 1.429 . S
C668 N665 1.350 . S
C668 C667 1.434 . S
C669 C670 1.369 . S
C669 C671 1.419 . S
C669 H673 0.930 . S
C670 C669 1.369 . S
C670 C679 1.429 . S
C671 C669 1.419 . S
C671 C672 1.363 . S
C671 H674 0.929 . S
C672 C671 1.363 . S
C672 C678 1.428 . S
H673 C669 0.930 . S
H674 C671 0.929 . S
S675 N676 1.613 . S
S675 N677 1.610 . S
N676 S675 1.613 . S
N676 C679 1.350 . S
N677 S675 1.610 . S
N677 C678 1.351 . S
C678 C672 1.428 . S
C678 N677 1.351 . S
C678 C679 1.434 . S
C679 C670 1.429 . S
C679 N676 1.350 . S
C679 C678 1.434 . S
C680 C681 1.369 . S
C680 C682 1.419 . S
C680 H684 0.930 . S
C681 C680 1.369 . S
C681 C690 1.429 . S
C682 C680 1.419 . S
C682 C683 1.363 . S
C682 H685 0.929 . S
C683 C682 1.363 . S
C683 C689 1.428 . S
H684 C680 0.930 . S
H685 C682 0.929 . S
S686 N687 1.613 . S
S686 N688 1.610 . S
N687 S686 1.613 . S
N687 C690 1.350 . S
N688 S686 1.610 . S
N688 C689 1.351 . S
C689 C683 1.428 . S
C689 N688 1.351 . S
C689 C690 1.434 . S
C690 C681 1.429 . S
C690 N687 1.350 . S
C690 C689 1.434 . S
C691 C692 1.369 . S
C691 C693 1.419 . S
C691 H695 0.930 . S
C692 C691 1.369 . S
C692 C701 1.429 . S
C693 C691 1.419 . S
C693 C694 1.363 . S
C693 H696 0.929 . S
C694 C693 1.363 . S
C694 C700 1.428 . S
H695 C691 0.930 . S
H696 C693 0.929 . S
S697 N698 1.613 . S
S697 N699 1.610 . S
N698 S697 1.613 . S
N698 C701 1.350 . S
N699 S697 1.610 . S
N699 C700 1.351 . S
C700 C694 1.428 . S
C700 N699 1.351 . S
C700 C701 1.434 . S
C701 C692 1.429 . S
C701 N698 1.350 . S
C701 C700 1.434 . S
C702 C703 1.369 1_545 S
C702 C704 1.406 1_556 S
C702 H706 0.930 . S
C703 C702 1.369 1_565 S
C703 C712 1.429 1_556 S
C704 C702 1.406 1_554 S
C704 C705 1.377 . S
C704 H707 0.929 1_554 S
C705 C704 1.377 . S
C705 C711 1.428 1_545 S
H706 C702 0.930 . S
H707 C704 0.929 1_556 S
S708 N709 1.613 . S
S708 N710 1.610 . S
N709 S708 1.613 . S
N709 C712 1.350 . S
N710 S708 1.610 . S
N710 C711 1.351 . S
C711 C705 1.428 1_565 S
C711 N710 1.351 . S
C711 C712 1.434 . S
C712 C703 1.429 1_554 S
C712 N709 1.350 . S
C712 C711 1.434 . S
C713 C714 1.369 1_455 S
C713 C715 1.419 . S
C713 H717 0.930 . S
C714 C713 1.369 1_655 S
C714 C723 1.429 1_554 S
C715 C713 1.419 . S
C715 C716 1.363 1_554 S
C715 H718 0.929 . S
C716 C715 1.363 1_556 S
C716 C722 1.428 1_455 S
H717 C713 0.930 . S
H718 C715 0.929 . S
S719 N720 1.613 . S
S719 N721 1.610 . S
N720 S719 1.613 . S
N720 C723 1.350 . S
N721 S719 1.610 . S
N721 C722 1.351 . S
C722 C716 1.428 1_655 S
C722 N721 1.351 . S
C722 C723 1.434 . S
C723 C714 1.429 1_556 S
C723 N720 1.350 . S
C723 C722 1.434 . S
C724 C725 1.369 . S
C724 C726 1.419 1_556 S
C724 H728 0.930 . S
C725 C724 1.369 . S
C725 C734 1.429 . S
C726 C724 1.419 1_554 S
C726 C727 1.363 . S
C726 H729 0.929 . S
C727 C726 1.363 . S
C727 C733 1.428 . S
H728 C724 0.930 . S
H729 C726 0.929 . S
S730 N731 1.613 . S
S730 N732 1.610 1_556 S
N731 S730 1.613 . S
N731 C734 1.350 . S
N732 S730 1.610 1_554 S
N732 C733 1.351 . S
C733 C727 1.428 . S
C733 N732 1.351 . S
C733 C734 1.434 1_554 S
C734 C725 1.429 . S
C734 N731 1.350 . S
C734 C733 1.434 1_556 S
C735 C736 1.369 1_545 S
C735 C737 1.419 . S
C735 H739 0.930 . S
C736 C735 1.369 1_565 S
C736 C745 1.429 1_556 S
C737 C735 1.419 . S
C737 C738 1.363 1_556 S
C737 H740 0.929 . S
C738 C737 1.363 1_554 S
C738 C744 1.428 1_545 S
H739 C735 0.930 . S
H740 C737 0.929 . S
S741 N742 1.613 . S
S741 N743 1.610 . S
N742 S741 1.613 . S
N742 C745 1.350 . S
N743 S741 1.610 . S
N743 C744 1.351 . S
C744 C738 1.428 1_565 S
C744 N743 1.351 . S
C744 C745 1.434 . S
C745 C736 1.429 1_554 S
C745 N742 1.350 . S
C745 C744 1.434 . S
C746 C747 1.392 . S
C746 C748 1.406 1_456 S
C746 H750 0.923 . S
C747 C746 1.392 . S
C747 C756 1.429 . S
C748 C746 1.406 1_654 S
C748 C749 1.363 . S
C748 H751 0.929 . S
C749 C748 1.363 . S
C749 C755 1.433 . S
H750 C746 0.923 . S
H751 C748 0.929 . S
S752 N753 1.613 1_554 S
S752 N754 1.669 . S
N753 S752 1.613 1_556 S
N753 C756 1.350 . S
N754 S752 1.669 . S
N754 C755 1.319 1_455 S
C755 C749 1.433 . S
C755 N754 1.319 1_655 S
C755 C756 1.431 1_654 S
C756 C747 1.429 . S
C756 N753 1.350 . S
C756 C755 1.431 1_456 S
C757 C758 1.369 . S
C757 C759 1.419 1_554 S
C757 H761 0.930 . S
C758 C757 1.369 . S
C758 C767 1.429 . S
C759 C757 1.419 1_556 S
C759 C760 1.363 . S
C759 H762 0.929 . S
C760 C759 1.363 . S
C760 C766 1.428 . S
H761 C757 0.930 . S
H762 C759 0.929 . S
S763 N764 1.613 1_556 S
S763 N765 1.610 . S
N764 S763 1.613 1_554 S
N764 C767 1.350 . S
N765 S763 1.610 . S
N765 C766 1.351 . S
C766 C760 1.428 . S
C766 N765 1.351 . S
C766 C767 1.434 1_556 S
C767 C758 1.429 . S
C767 N764 1.350 . S
C767 C766 1.434 1_554 S
C768 C769 1.369 . S
C768 C770 1.419 . S
C768 H772 0.930 . S
C769 C768 1.369 . S
C769 C778 1.429 . S
C770 C768 1.419 . S
C770 C771 1.363 . S
C770 H773 0.929 . S
C771 C770 1.363 . S
C771 C777 1.428 . S
H772 C768 0.930 . S
H773 C770 0.929 . S
S774 N775 1.613 . S
S774 N776 1.610 . S
N775 S774 1.613 . S
N775 C778 1.350 . S
N776 S774 1.610 . S
N776 C777 1.351 . S
C777 C771 1.428 . S
C777 N776 1.351 . S
C777 C778 1.434 . S
C778 C769 1.429 . S
C778 N775 1.350 . S
C778 C777 1.434 . S
C779 C780 1.369 . S
C779 C781 1.419 . S
C779 H783 0.930 . S
C780 C779 1.369 . S
C780 C789 1.429 . S
C781 C779 1.419 . S
C781 C782 1.363 . S
C781 H784 0.929 . S
C782 C781 1.363 . S
C782 C788 1.428 . S
H783 C779 0.930 . S
H784 C781 0.929 . S
S785 N786 1.613 . S
S785 N787 1.610 . S
N786 S785 1.613 . S
N786 C789 1.350 . S
N787 S785 1.610 . S
N787 C788 1.351 . S
C788 C782 1.428 . S
C788 N787 1.351 . S
C788 C789 1.434 . S
C789 C780 1.429 . S
C789 N786 1.350 . S
C789 C788 1.434 . S
C790 C791 1.369 . S
C790 C792 1.419 . S
C790 H794 0.930 . S
C791 C790 1.369 . S
C791 C800 1.429 . S
C792 C790 1.419 . S
C792 C793 1.363 . S
C792 H795 0.929 . S
C793 C792 1.363 . S
C793 C799 1.428 . S
H794 C790 0.930 . S
H795 C792 0.929 . S
S796 N797 1.613 . S
S796 N798 1.610 . S
N797 S796 1.613 . S
N797 C800 1.350 . S
N798 S796 1.610 . S
N798 C799 1.351 . S
C799 C793 1.428 . S
C799 N798 1.351 . S
C799 C800 1.434 . S
C800 C791 1.429 . S
C800 N797 1.350 . S
C800 C799 1.434 . S
C801 C802 1.369 . S
C801 C803 1.419 . S
C801 H805 0.930 . S
C802 C801 1.369 . S
C802 C811 1.429 . S
C803 C801 1.419 . S
C803 C804 1.363 . S
C803 H806 0.929 . S
C804 C803 1.363 . S
C804 C810 1.428 . S
H805 C801 0.930 . S
H806 C803 0.929 . S
S807 N808 1.613 . S
S807 N809 1.610 . S
N808 S807 1.613 . S
N808 C811 1.350 . S
N809 S807 1.610 . S
N809 C810 1.351 . S
C810 C804 1.428 . S
C810 N809 1.351 . S
C810 C811 1.434 . S
C811 C802 1.429 . S
C811 N808 1.350 . S
C811 C810 1.434 . S
C812 C813 1.369 . S
C812 C814 1.419 . S
C812 H816 0.930 . S
C813 C812 1.369 . S
C813 C822 1.429 . S
C814 C812 1.419 . S
C814 C815 1.363 . S
C814 H817 0.929 . S
C815 C814 1.363 . S
C815 C821 1.428 . S
H816 C812 0.930 . S
H817 C814 0.929 . S
S818 N819 1.613 . S
S818 N820 1.610 . S
N819 S818 1.613 . S
N819 C822 1.350 . S
N820 S818 1.610 . S
N820 C821 1.351 . S
C821 C815 1.428 . S
C821 N820 1.351 . S
C821 C822 1.434 . S
C822 C813 1.429 . S
C822 N819 1.350 . S
C822 C821 1.434 . S
C823 C824 1.369 . S
C823 C825 1.419 . S
C823 H827 0.930 . S
C824 C823 1.369 . S
C824 C833 1.429 . S
C825 C823 1.419 . S
C825 C826 1.363 . S
C825 H828 0.929 . S
C826 C825 1.363 . S
C826 C832 1.428 . S
H827 C823 0.930 . S
H828 C825 0.929 . S
S829 N830 1.613 . S
S829 N831 1.610 . S
N830 S829 1.613 . S
N830 C833 1.350 . S
N831 S829 1.610 . S
N831 C832 1.351 . S
C832 C826 1.428 . S
C832 N831 1.351 . S
C832 C833 1.434 . S
C833 C824 1.429 . S
C833 N830 1.350 . S
C833 C832 1.434 . S
C834 C835 1.369 . S
C834 C836 1.419 . S
C834 H838 0.930 . S
C835 C834 1.369 . S
C835 C844 1.429 . S
C836 C834 1.419 . S
C836 C837 1.363 . S
C836 H839 0.929 . S
C837 C836 1.363 . S
C837 C843 1.428 . S
H838 C834 0.930 . S
H839 C836 0.929 . S
S840 N841 1.613 . S
S840 N842 1.610 . S
N841 S840 1.613 . S
N841 C844 1.350 . S
N842 S840 1.610 . S
N842 C843 1.351 . S
C843 C837 1.428 . S
C843 N842 1.351 . S
C843 C844 1.434 . S
C844 C835 1.429 . S
C844 N841 1.350 . S
C844 C843 1.434 . S
C845 C846 1.369 . S
C845 C847 1.419 . S
C845 H849 0.930 . S
C846 C845 1.369 . S
C846 C855 1.429 . S
C847 C845 1.419 . S
C847 C848 1.363 . S
C847 H850 0.929 . S
C848 C847 1.363 . S
C848 C854 1.428 . S
H849 C845 0.930 . S
H850 C847 0.929 . S
S851 N852 1.613 . S
S851 N853 1.610 . S
N852 S851 1.613 . S
N852 C855 1.350 . S
N853 S851 1.610 . S
N853 C854 1.351 . S
C854 C848 1.428 . S
C854 N853 1.351 . S
C854 C855 1.434 . S
C855 C846 1.429 . S
C855 N852 1.350 . S
C855 C854 1.434 . S
C856 C857 1.369 . S
C856 C858 1.419 . S
C856 H860 0.930 . S
C857 C856 1.369 . S
C857 C866 1.429 . S
C858 C856 1.419 . S
C858 C859 1.363 . S
C858 H861 0.929 . S
C859 C858 1.363 . S
C859 C865 1.428 . S
H860 C856 0.930 . S
H861 C858 0.929 . S
S862 N863 1.613 . S
S862 N864 1.610 . S
N863 S862 1.613 . S
N863 C866 1.350 . S
N864 S862 1.610 . S
N864 C865 1.351 . S
C865 C859 1.428 . S
C865 N864 1.351 . S
C865 C866 1.434 . S
C866 C857 1.429 . S
C866 N863 1.350 . S
C866 C865 1.434 . S
C867 C868 1.369 . S
C867 C869 1.419 . S
C867 H871 0.930 . S
C868 C867 1.369 . S
C868 C877 1.429 . S
C869 C867 1.419 . S
C869 C870 1.363 . S
C869 H872 0.929 . S
C870 C869 1.363 . S
C870 C876 1.428 . S
H871 C867 0.930 . S
H872 C869 0.929 . S
S873 N874 1.613 . S
S873 N875 1.610 . S
N874 S873 1.613 . S
N874 C877 1.350 . S
N875 S873 1.610 . S
N875 C876 1.351 . S
C876 C870 1.428 . S
C876 N875 1.351 . S
C876 C877 1.434 . S
C877 C868 1.429 . S
C877 N874 1.350 . S
C877 C876 1.434 . S
C878 C879 1.369 . S
C878 C880 1.419 . S
C878 H882 0.930 . S
C879 C878 1.369 . S
C879 C888 1.429 . S
C880 C878 1.419 . S
C880 C881 1.363 . S
C880 H883 0.929 . S
C881 C880 1.363 . S
C881 C887 1.428 . S
H882 C878 0.930 . S
H883 C880 0.929 . S
S884 N885 1.613 . S
S884 N886 1.610 . S
N885 S884 1.613 . S
N885 C888 1.350 . S
N886 S884 1.610 . S
N886 C887 1.351 . S
C887 C881 1.428 . S
C887 N886 1.351 . S
C887 C888 1.434 . S
C888 C879 1.429 . S
C888 N885 1.350 . S
C888 C887 1.434 . S
C889 C890 1.369 . S
C889 C891 1.419 . S
C889 H893 0.930 . S
C890 C889 1.369 . S
C890 C899 1.429 . S
C891 C889 1.419 . S
C891 C892 1.363 . S
C891 H894 0.929 . S
C892 C891 1.363 . S
C892 C898 1.428 . S
H893 C889 0.930 . S
H894 C891 0.929 . S
S895 N896 1.613 . S
S895 N897 1.610 . S
N896 S895 1.613 . S
N896 C899 1.350 . S
N897 S895 1.610 . S
N897 C898 1.351 . S
C898 C892 1.428 . S
C898 N897 1.351 . S
C898 C899 1.434 . S
C899 C890 1.429 . S
C899 N896 1.350 . S
C899 C898 1.434 . S
C900 C901 1.369 . S
C900 C902 1.419 . S
C900 H904 0.930 . S
C901 C900 1.369 . S
C901 C910 1.429 . S
C902 C900 1.419 . S
C902 C903 1.363 . S
C902 H905 0.929 . S
C903 C902 1.363 . S
C903 C909 1.428 . S
H904 C900 0.930 . S
H905 C902 0.929 . S
S906 N907 1.613 1_556 S
S906 N908 1.610 1_556 S
N907 S906 1.613 1_554 S
N907 C910 1.350 . S
N908 S906 1.610 1_554 S
N908 C909 1.351 . S
C909 C903 1.428 . S
C909 N908 1.351 . S
C909 C910 1.434 . S
C910 C901 1.429 . S
C910 N907 1.350 . S
C910 C909 1.434 . S
C911 C912 1.369 . S
C911 C913 1.419 . S
C911 H915 0.930 . S
C912 C911 1.369 . S
C912 C921 1.429 . S
C913 C911 1.419 . S
C913 C914 1.363 . S
C913 H916 0.929 . S
C914 C913 1.363 . S
C914 C920 1.428 . S
H915 C911 0.930 . S
H916 C913 0.929 . S
S917 N918 1.613 . S
S917 N919 1.610 . S
N918 S917 1.613 . S
N918 C921 1.350 . S
N919 S917 1.610 . S
N919 C920 1.351 . S
C920 C914 1.428 . S
C920 N919 1.351 . S
C920 C921 1.434 . S
C921 C912 1.429 . S
C921 N918 1.350 . S
C921 C920 1.434 . S
C922 C923 1.369 . S
C922 C924 1.419 . S
C922 H926 0.930 . S
C923 C922 1.369 . S
C923 C932 1.429 . S
C924 C922 1.419 . S
C924 C925 1.363 . S
C924 H927 0.929 . S
C925 C924 1.363 . S
C925 C931 1.428 . S
H926 C922 0.930 . S
H927 C924 0.929 . S
S928 N929 1.613 . S
S928 N930 1.610 . S
N929 S928 1.613 . S
N929 C932 1.350 . S
N930 S928 1.610 . S
N930 C931 1.351 . S
C931 C925 1.428 . S
C931 N930 1.351 . S
C931 C932 1.434 . S
C932 C923 1.429 . S
C932 N929 1.350 . S
C932 C931 1.434 . S
C933 C934 1.369 . S
C933 C935 1.419 . S
C933 H937 0.930 . S
C934 C933 1.369 . S
C934 C943 1.429 . S
C935 C933 1.419 . S
C935 C936 1.363 . S
C935 H938 0.929 . S
C936 C935 1.363 . S
C936 C942 1.428 . S
H937 C933 0.930 . S
H938 C935 0.929 . S
S939 N940 1.613 . S
S939 N941 1.610 . S
N940 S939 1.613 . S
N940 C943 1.350 . S
N941 S939 1.610 . S
N941 C942 1.351 . S
C942 C936 1.428 . S
C942 N941 1.351 . S
C942 C943 1.434 . S
C943 C934 1.429 . S
C943 N940 1.350 . S
C943 C942 1.434 . S
C944 C945 1.369 . S
C944 C946 1.419 . S
C944 H948 0.930 . S
C945 C944 1.369 . S
C945 C954 1.429 . S
C946 C944 1.419 . S
C946 C947 1.363 . S
C946 H949 0.929 . S
C947 C946 1.363 . S
C947 C953 1.428 . S
H948 C944 0.930 . S
H949 C946 0.929 . S
S950 N951 1.613 . S
S950 N952 1.610 . S
N951 S950 1.613 . S
N951 C954 1.350 . S
N952 S950 1.610 . S
N952 C953 1.351 . S
C953 C947 1.428 . S
C953 N952 1.351 . S
C953 C954 1.434 . S
C954 C945 1.429 . S
C954 N951 1.350 . S
C954 C953 1.434 . S
C955 C956 1.369 . S
C955 C957 1.419 . S
C955 H959 0.930 . S
C956 C955 1.369 . S
C956 C965 1.429 . S
C957 C955 1.419 . S
C957 C958 1.363 . S
C957 H960 0.929 . S
C958 C957 1.363 . S
C958 C964 1.428 . S
H959 C955 0.930 . S
H960 C957 0.929 . S
S961 N962 1.613 1_554 S
S961 N963 1.610 1_554 S
N962 S961 1.613 1_556 S
N962 C965 1.350 . S
N963 S961 1.610 1_556 S
N963 C964 1.351 . S
C964 C958 1.428 . S
C964 N963 1.351 . S
C964 C965 1.434 . S
C965 C956 1.429 . S
C965 N962 1.350 . S
C965 C964 1.434 . S
C966 C967 1.369 . S
C966 C968 1.419 . S
C966 H970 0.930 . S
C967 C966 1.369 . S
C967 C976 1.429 . S
C968 C966 1.419 . S
C968 C969 1.363 . S
C968 H971 0.929 . S
C969 C968 1.363 . S
C969 C975 1.428 . S
H970 C966 0.930 . S
H971 C968 0.929 . S
S972 N973 1.613 . S
S972 N974 1.610 . S
N973 S972 1.613 . S
N973 C976 1.350 . S
N974 S972 1.610 . S
N974 C975 1.351 . S
C975 C969 1.428 . S
C975 N974 1.351 . S
C975 C976 1.434 . S
C976 C967 1.429 . S
C976 N973 1.350 . S
C976 C975 1.434 . S
C977 C978 1.369 . S
C977 C979 1.419 . S
C977 H981 0.930 . S
C978 C977 1.369 . S
C978 C987 1.429 . S
C979 C977 1.419 . S
C979 C980 1.363 . S
C979 H982 0.929 . S
C980 C979 1.363 . S
C980 C986 1.428 . S
H981 C977 0.930 . S
H982 C979 0.929 . S
S983 N984 1.613 . S
S983 N985 1.610 . S
N984 S983 1.613 . S
N984 C987 1.350 . S
N985 S983 1.610 . S
N985 C986 1.351 . S
C986 C980 1.428 . S
C986 N985 1.351 . S
C986 C987 1.434 . S
C987 C978 1.429 . S
C987 N984 1.350 . S
C987 C986 1.434 . S
C988 C989 1.369 . S
C988 C990 1.419 . S
C988 H992 0.930 . S
C989 C988 1.369 . S
C989 C998 1.429 . S
C990 C988 1.419 . S
C990 C991 1.363 . S
C990 H993 0.929 . S
C991 C990 1.363 . S
C991 C997 1.428 . S
H992 C988 0.930 . S
H993 C990 0.929 . S
S994 N995 1.613 1_554 S
S994 N996 1.610 1_554 S
N995 S994 1.613 1_556 S
N995 C998 1.350 . S
N996 S994 1.610 1_556 S
N996 C997 1.351 . S
C997 C991 1.428 . S
C997 N996 1.351 . S
C997 C998 1.434 . S
C998 C989 1.429 . S
C998 N995 1.350 . S
C998 C997 1.434 . S
C999 C1000 1.369 . S
C999 C1001 1.419 . S
C999 H1003 0.930 . S
C1000 C999 1.369 . S
C1000 C1009 1.429 . S
C1001 C999 1.419 . S
C1001 C1002 1.363 . S
C1001 H1004 0.929 . S
C1002 C1001 1.363 . S
C1002 C1008 1.428 . S
H1003 C999 0.930 . S
H1004 C1001 0.929 . S
S1005 N1006 1.613 1_556 S
S1005 N1007 1.610 1_556 S
N1006 S1005 1.613 1_554 S
N1006 C1009 1.350 . S
N1007 S1005 1.610 1_554 S
N1007 C1008 1.351 . S
C1008 C1002 1.428 . S
C1008 N1007 1.351 . S
C1008 C1009 1.434 . S
C1009 C1000 1.429 . S
C1009 N1006 1.350 . S
C1009 C1008 1.434 . S
C1010 C1011 1.369 . S
C1010 C1012 1.419 . S
C1010 H1014 0.930 . S
C1011 C1010 1.369 . S
C1011 C1020 1.429 . S
C1012 C1010 1.419 . S
C1012 C1013 1.363 . S
C1012 H1015 0.929 . S
C1013 C1012 1.363 . S
C1013 C1019 1.428 . S
H1014 C1010 0.930 . S
H1015 C1012 0.929 . S
S1016 N1017 1.613 . S
S1016 N1018 1.610 . S
N1017 S1016 1.613 . S
N1017 C1020 1.350 . S
N1018 S1016 1.610 . S
N1018 C1019 1.351 . S
C1019 C1013 1.428 . S
C1019 N1018 1.351 . S
C1019 C1020 1.434 . S
C1020 C1011 1.429 . S
C1020 N1017 1.350 . S
C1020 C1019 1.434 . S
C1021 C1022 1.369 . S
C1021 C1023 1.419 . S
C1021 H1025 0.930 . S
C1022 C1021 1.369 . S
C1022 C1031 1.429 . S
C1023 C1021 1.419 . S
C1023 C1024 1.363 . S
C1023 H1026 0.929 . S
C1024 C1023 1.363 . S
C1024 C1030 1.428 . S
H1025 C1021 0.930 . S
H1026 C1023 0.929 . S
S1027 N1028 1.613 . S
S1027 N1029 1.610 . S
N1028 S1027 1.613 . S
N1028 C1031 1.350 . S
N1029 S1027 1.610 . S
N1029 C1030 1.351 . S
C1030 C1024 1.428 . S
C1030 N1029 1.351 . S
C1030 C1031 1.434 . S
C1031 C1022 1.429 . S
C1031 N1028 1.350 . S
C1031 C1030 1.434 . S
C1032 C1033 1.369 . S
C1032 C1034 1.419 1_455 S
C1032 H1036 0.930 . S
C1033 C1032 1.369 . S
C1033 C1042 1.429 . S
C1034 C1032 1.419 1_655 S
C1034 C1035 1.363 . S
C1034 H1037 0.929 . S
C1035 C1034 1.363 . S
C1035 C1041 1.428 . S
H1036 C1032 0.930 . S
H1037 C1034 0.929 . S
S1038 N1039 1.591 1_655 S
S1038 N1040 1.623 . S
N1039 S1038 1.591 1_455 S
N1039 C1042 1.350 . S
N1040 S1038 1.623 . S
N1040 C1041 1.351 . S
C1041 C1035 1.428 . S
C1041 N1040 1.351 . S
C1041 C1042 1.434 1_655 S
C1042 C1033 1.429 . S
C1042 N1039 1.350 . S
C1042 C1041 1.434 1_455 S
C1043 C1044 1.369 . S
C1043 C1045 1.419 . S
C1043 H1047 0.930 . S
C1044 C1043 1.369 . S
C1044 C1053 1.429 . S
C1045 C1043 1.419 . S
C1045 C1046 1.363 . S
C1045 H1048 0.929 . S
C1046 C1045 1.363 . S
C1046 C1052 1.428 . S
H1047 C1043 0.930 . S
H1048 C1045 0.929 . S
S1049 N1050 1.613 . S
S1049 N1051 1.610 . S
N1050 S1049 1.613 . S
N1050 C1053 1.350 . S
N1051 S1049 1.610 . S
N1051 C1052 1.351 . S
C1052 C1046 1.428 . S
C1052 N1051 1.351 . S
C1052 C1053 1.434 . S
C1053 C1044 1.429 . S
C1053 N1050 1.350 . S
C1053 C1052 1.434 . S
C1054 C1055 1.369 . S
C1054 C1056 1.419 1_545 S
C1054 H1058 0.930 . S
C1055 C1054 1.369 . S
C1055 C1064 1.429 . S
C1056 C1054 1.419 1_565 S
C1056 C1057 1.363 . S
C1056 H1059 0.929 . S
C1057 C1056 1.363 . S
C1057 C1063 1.428 . S
H1058 C1054 0.930 . S
H1059 C1056 0.929 . S
S1060 N1061 1.590 1_565 S
S1060 N1062 1.628 . S
N1061 S1060 1.590 1_545 S
N1061 C1064 1.350 . S
N1062 S1060 1.628 . S
N1062 C1063 1.351 . S
C1063 C1057 1.428 . S
C1063 N1062 1.351 . S
C1063 C1064 1.434 1_565 S
C1064 C1055 1.429 . S
C1064 N1061 1.350 . S
C1064 C1063 1.434 1_545 S
C1065 C1066 1.369 . S
C1065 C1067 1.419 1_545 S
C1065 H1069 0.930 . S
C1066 C1065 1.369 . S
C1066 C1075 1.429 . S
C1067 C1065 1.419 1_565 S
C1067 C1068 1.363 . S
C1067 H1070 0.929 . S
C1068 C1067 1.363 . S
C1068 C1074 1.428 . S
H1069 C1065 0.930 . S
H1070 C1067 0.929 . S
S1071 N1072 1.600 1_565 S
S1071 N1073 1.616 . S
N1072 S1071 1.600 1_545 S
N1072 C1075 1.350 . S
N1073 S1071 1.616 . S
N1073 C1074 1.351 . S
C1074 C1068 1.428 . S
C1074 N1073 1.351 . S
C1074 C1075 1.434 1_565 S
C1075 C1066 1.429 . S
C1075 N1072 1.350 . S
C1075 C1074 1.434 1_545 S
C1076 C1077 1.369 . S
C1076 C1078 1.419 1_655 S
C1076 H1080 0.930 . S
C1077 C1076 1.369 . S
C1077 C1086 1.429 . S
C1078 C1076 1.419 1_455 S
C1078 C1079 1.363 . S
C1078 H1081 0.929 . S
C1079 C1078 1.363 . S
C1079 C1085 1.428 . S
H1080 C1076 0.930 . S
H1081 C1078 0.929 . S
S1082 N1083 1.616 . S
S1082 N1084 1.603 1_655 S
N1083 S1082 1.616 . S
N1083 C1086 1.350 . S
N1084 S1082 1.603 1_455 S
N1084 C1085 1.351 . S
C1085 C1079 1.428 . S
C1085 N1084 1.351 . S
C1085 C1086 1.434 1_455 S
C1086 C1077 1.429 . S
C1086 N1083 1.350 . S
C1086 C1085 1.434 1_655 S
C1087 C1088 1.369 . S
C1087 C1089 1.419 . S
C1087 H1091 0.930 . S
C1088 C1087 1.369 . S
C1088 C1097 1.429 . S
C1089 C1087 1.419 . S
C1089 C1090 1.363 . S
C1089 H1092 0.929 . S
C1090 C1089 1.363 . S
C1090 C1096 1.428 . S
H1091 C1087 0.930 . S
H1092 C1089 0.929 . S
S1093 N1094 1.613 . S
S1093 N1095 1.610 . S
N1094 S1093 1.613 . S
N1094 C1097 1.350 . S
N1095 S1093 1.610 . S
N1095 C1096 1.351 . S
C1096 C1090 1.428 . S
C1096 N1095 1.351 . S
C1096 C1097 1.434 . S
C1097 C1088 1.429 . S
C1097 N1094 1.350 . S
C1097 C1096 1.434 . S
C1098 C1099 1.369 . S
C1098 C1100 1.419 . S
C1098 H1102 0.930 . S
C1099 C1098 1.369 . S
C1099 C1108 1.429 . S
C1100 C1098 1.419 . S
C1100 C1101 1.363 . S
C1100 H1103 0.929 . S
C1101 C1100 1.363 . S
C1101 C1107 1.428 . S
H1102 C1098 0.930 . S
H1103 C1100 0.929 . S
S1104 N1105 1.613 . S
S1104 N1106 1.610 . S
N1105 S1104 1.613 . S
N1105 C1108 1.350 . S
N1106 S1104 1.610 . S
N1106 C1107 1.351 . S
C1107 C1101 1.428 . S
C1107 N1106 1.351 . S
C1107 C1108 1.434 . S
C1108 C1099 1.429 . S
C1108 N1105 1.350 . S
C1108 C1107 1.434 . S
C1109 C1110 1.369 . S
C1109 C1111 1.419 . S
C1109 H1113 0.930 . S
C1110 C1109 1.369 . S
C1110 C1119 1.429 . S
C1111 C1109 1.419 . S
C1111 C1112 1.363 . S
C1111 H1114 0.929 . S
C1112 C1111 1.363 . S
C1112 C1118 1.428 . S
H1113 C1109 0.930 . S
H1114 C1111 0.929 . S
S1115 N1116 1.613 . S
S1115 N1117 1.610 . S
N1116 S1115 1.613 . S
N1116 C1119 1.350 . S
N1117 S1115 1.610 . S
N1117 C1118 1.351 . S
C1118 C1112 1.428 . S
C1118 N1117 1.351 . S
C1118 C1119 1.434 . S
C1119 C1110 1.429 . S
C1119 N1116 1.350 . S
C1119 C1118 1.434 . S
C1120 C1121 1.369 . S
C1120 C1122 1.419 . S
C1120 H1124 0.930 . S
C1121 C1120 1.369 . S
C1121 C1130 1.429 . S
C1122 C1120 1.419 . S
C1122 C1123 1.363 . S
C1122 H1125 0.929 . S
C1123 C1122 1.363 . S
C1123 C1129 1.428 . S
H1124 C1120 0.930 . S
H1125 C1122 0.929 . S
S1126 N1127 1.613 . S
S1126 N1128 1.610 . S
N1127 S1126 1.613 . S
N1127 C1130 1.350 . S
N1128 S1126 1.610 . S
N1128 C1129 1.351 . S
C1129 C1123 1.428 . S
C1129 N1128 1.351 . S
C1129 C1130 1.434 . S
C1130 C1121 1.429 . S
C1130 N1127 1.350 . S
C1130 C1129 1.434 . S
C1131 C1132 1.369 . S
C1131 C1133 1.419 . S
C1131 H1135 0.930 . S
C1132 C1131 1.369 . S
C1132 C1141 1.429 . S
C1133 C1131 1.419 . S
C1133 C1134 1.363 . S
C1133 H1136 0.929 . S
C1134 C1133 1.363 . S
C1134 C1140 1.428 . S
H1135 C1131 0.930 . S
H1136 C1133 0.929 . S
S1137 N1138 1.613 . S
S1137 N1139 1.610 . S
N1138 S1137 1.613 . S
N1138 C1141 1.350 . S
N1139 S1137 1.610 . S
N1139 C1140 1.351 . S
C1140 C1134 1.428 . S
C1140 N1139 1.351 . S
C1140 C1141 1.434 . S
C1141 C1132 1.429 . S
C1141 N1138 1.350 . S
C1141 C1140 1.434 . S
C1142 C1143 1.369 . S
C1142 C1144 1.419 . S
C1142 H1146 0.930 . S
C1143 C1142 1.369 . S
C1143 C1152 1.429 . S
C1144 C1142 1.419 . S
C1144 C1145 1.363 . S
C1144 H1147 0.929 . S
C1145 C1144 1.363 . S
C1145 C1151 1.428 . S
H1146 C1142 0.930 . S
H1147 C1144 0.929 . S
S1148 N1149 1.613 . S
S1148 N1150 1.610 . S
N1149 S1148 1.613 . S
N1149 C1152 1.350 . S
N1150 S1148 1.610 . S
N1150 C1151 1.351 . S
C1151 C1145 1.428 . S
C1151 N1150 1.351 . S
C1151 C1152 1.434 . S
C1152 C1143 1.429 . S
C1152 N1149 1.350 . S
C1152 C1151 1.434 . S
C1153 C1154 1.369 . S
C1153 C1155 1.419 . S
C1153 H1157 0.930 . S
C1154 C1153 1.369 . S
C1154 C1163 1.429 . S
C1155 C1153 1.419 . S
C1155 C1156 1.363 . S
C1155 H1158 0.929 . S
C1156 C1155 1.363 . S
C1156 C1162 1.428 . S
H1157 C1153 0.930 . S
H1158 C1155 0.929 . S
S1159 N1160 1.613 . S
S1159 N1161 1.610 . S
N1160 S1159 1.613 . S
N1160 C1163 1.350 . S
N1161 S1159 1.610 . S
N1161 C1162 1.351 . S
C1162 C1156 1.428 . S
C1162 N1161 1.351 . S
C1162 C1163 1.434 . S
C1163 C1154 1.429 . S
C1163 N1160 1.350 . S
C1163 C1162 1.434 . S
C1164 C1165 1.369 . S
C1164 C1166 1.419 . S
C1164 H1168 0.930 . S
C1165 C1164 1.369 . S
C1165 C1174 1.429 . S
C1166 C1164 1.419 . S
C1166 C1167 1.363 . S
C1166 H1169 0.929 . S
C1167 C1166 1.363 . S
C1167 C1173 1.428 . S
H1168 C1164 0.930 . S
H1169 C1166 0.929 . S
S1170 N1171 1.613 . S
S1170 N1172 1.610 . S
N1171 S1170 1.613 . S
N1171 C1174 1.350 . S
N1172 S1170 1.610 . S
N1172 C1173 1.351 . S
C1173 C1167 1.428 . S
C1173 N1172 1.351 . S
C1173 C1174 1.434 . S
C1174 C1165 1.429 . S
C1174 N1171 1.350 . S
C1174 C1173 1.434 . S
C1175 C1176 1.369 . S
C1175 C1177 1.419 . S
C1175 H1179 0.930 . S
C1176 C1175 1.369 . S
C1176 C1185 1.429 . S
C1177 C1175 1.419 . S
C1177 C1178 1.363 . S
C1177 H1180 0.929 . S
C1178 C1177 1.363 . S
C1178 C1184 1.428 . S
H1179 C1175 0.930 . S
H1180 C1177 0.929 . S
S1181 N1182 1.613 . S
S1181 N1183 1.610 . S
N1182 S1181 1.613 . S
N1182 C1185 1.350 . S
N1183 S1181 1.610 . S
N1183 C1184 1.351 . S
C1184 C1178 1.428 . S
C1184 N1183 1.351 . S
C1184 C1185 1.434 . S
C1185 C1176 1.429 . S
C1185 N1182 1.350 . S
C1185 C1184 1.434 . S
C1186 C1187 1.369 . S
C1186 C1188 1.419 . S
C1186 H1190 0.930 . S
C1187 C1186 1.369 . S
C1187 C1196 1.429 . S
C1188 C1186 1.419 . S
C1188 C1189 1.363 . S
C1188 H1191 0.929 . S
C1189 C1188 1.363 . S
C1189 C1195 1.428 . S
H1190 C1186 0.930 . S
H1191 C1188 0.929 . S
S1192 N1193 1.613 . S
S1192 N1194 1.610 . S
N1193 S1192 1.613 . S
N1193 C1196 1.350 . S
N1194 S1192 1.610 . S
N1194 C1195 1.351 . S
C1195 C1189 1.428 . S
C1195 N1194 1.351 . S
C1195 C1196 1.434 . S
C1196 C1187 1.429 . S
C1196 N1193 1.350 . S
C1196 C1195 1.434 . S
C1197 C1198 1.369 . S
C1197 C1199 1.419 . S
C1197 H1201 0.930 1_554 S
C1198 C1197 1.369 . S
C1198 C1207 1.429 . S
C1199 C1197 1.419 . S
C1199 C1200 1.363 . S
C1199 H1202 0.929 1_554 S
C1200 C1199 1.363 . S
C1200 C1206 1.428 . S
H1201 C1197 0.930 1_556 S
H1202 C1199 0.929 1_556 S
S1203 N1204 1.613 . S
S1203 N1205 1.610 . S
N1204 S1203 1.613 . S
N1204 C1207 1.350 . S
N1205 S1203 1.610 . S
N1205 C1206 1.351 . S
C1206 C1200 1.428 . S
C1206 N1205 1.351 . S
C1206 C1207 1.434 . S
C1207 C1198 1.429 . S
C1207 N1204 1.350 . S
C1207 C1206 1.434 . S
C1208 C1209 1.369 . S
C1208 C1210 1.419 . S
C1208 H1212 0.930 . S
C1209 C1208 1.369 . S
C1209 C1218 1.429 . S
C1210 C1208 1.419 . S
C1210 C1211 1.363 . S
C1210 H1213 0.929 . S
C1211 C1210 1.363 . S
C1211 C1217 1.428 . S
H1212 C1208 0.930 . S
H1213 C1210 0.929 . S
S1214 N1215 1.613 . S
S1214 N1216 1.610 . S
N1215 S1214 1.613 . S
N1215 C1218 1.350 . S
N1216 S1214 1.610 . S
N1216 C1217 1.351 . S
C1217 C1211 1.428 . S
C1217 N1216 1.351 . S
C1217 C1218 1.434 . S
C1218 C1209 1.429 . S
C1218 N1215 1.350 . S
C1218 C1217 1.434 . S
C1219 C1220 1.369 . S
C1219 C1221 1.419 . S
C1219 H1223 0.930 . S
C1220 C1219 1.369 . S
C1220 C1229 1.429 . S
C1221 C1219 1.419 . S
C1221 C1222 1.363 . S
C1221 H1224 0.929 . S
C1222 C1221 1.363 . S
C1222 C1228 1.428 . S
H1223 C1219 0.930 . S
H1224 C1221 0.929 . S
S1225 N1226 1.613 . S
S1225 N1227 1.610 . S
N1226 S1225 1.613 . S
N1226 C1229 1.350 . S
N1227 S1225 1.610 . S
N1227 C1228 1.351 . S
C1228 C1222 1.428 . S
C1228 N1227 1.351 . S
C1228 C1229 1.434 . S
C1229 C1220 1.429 . S
C1229 N1226 1.350 . S
C1229 C1228 1.434 . S
C1230 C1231 1.369 . S
C1230 C1232 1.419 . S
C1230 H1234 0.930 1_556 S
C1231 C1230 1.369 . S
C1231 C1240 1.429 . S
C1232 C1230 1.419 . S
C1232 C1233 1.363 . S
C1232 H1235 0.929 1_556 S
C1233 C1232 1.363 . S
C1233 C1239 1.428 . S
H1234 C1230 0.930 1_554 S
H1235 C1232 0.929 1_554 S
S1236 N1237 1.613 . S
S1236 N1238 1.610 . S
N1237 S1236 1.613 . S
N1237 C1240 1.350 . S
N1238 S1236 1.610 . S
N1238 C1239 1.351 . S
C1239 C1233 1.428 . S
C1239 N1238 1.351 . S
C1239 C1240 1.434 . S
C1240 C1231 1.429 . S
C1240 N1237 1.350 . S
C1240 C1239 1.434 . S
C1241 C1242 1.369 . S
C1241 C1243 1.419 . S
C1241 H1245 0.930 1_556 S
C1242 C1241 1.369 . S
C1242 C1251 1.429 . S
C1243 C1241 1.419 . S
C1243 C1244 1.363 . S
C1243 H1246 0.929 1_556 S
C1244 C1243 1.363 . S
C1244 C1250 1.428 . S
H1245 C1241 0.930 1_554 S
H1246 C1243 0.929 1_554 S
S1247 N1248 1.613 . S
S1247 N1249 1.610 . S
N1248 S1247 1.613 . S
N1248 C1251 1.350 . S
N1249 S1247 1.610 . S
N1249 C1250 1.351 . S
C1250 C1244 1.428 . S
C1250 N1249 1.351 . S
C1250 C1251 1.434 . S
C1251 C1242 1.429 . S
C1251 N1248 1.350 . S
C1251 C1250 1.434 . S
C1252 C1253 1.369 . S
C1252 C1254 1.419 . S
C1252 H1256 0.930 1_556 S
C1253 C1252 1.369 . S
C1253 C1262 1.429 . S
C1254 C1252 1.419 . S
C1254 C1255 1.363 . S
C1254 H1257 0.929 1_556 S
C1255 C1254 1.363 . S
C1255 C1261 1.428 . S
H1256 C1252 0.930 1_554 S
H1257 C1254 0.929 1_554 S
S1258 N1259 1.613 . S
S1258 N1260 1.610 . S
N1259 S1258 1.613 . S
N1259 C1262 1.350 . S
N1260 S1258 1.610 . S
N1260 C1261 1.351 . S
C1261 C1255 1.428 . S
C1261 N1260 1.351 . S
C1261 C1262 1.434 . S
C1262 C1253 1.429 . S
C1262 N1259 1.350 . S
C1262 C1261 1.434 . S
C1263 C1264 1.369 . S
C1263 C1265 1.419 . S
C1263 H1267 0.930 . S
C1264 C1263 1.369 . S
C1264 C1273 1.429 . S
C1265 C1263 1.419 . S
C1265 C1266 1.363 . S
C1265 H1268 0.929 . S
C1266 C1265 1.363 . S
C1266 C1272 1.428 . S
H1267 C1263 0.930 . S
H1268 C1265 0.929 . S
S1269 N1270 1.613 . S
S1269 N1271 1.610 . S
N1270 S1269 1.613 . S
N1270 C1273 1.350 . S
N1271 S1269 1.610 . S
N1271 C1272 1.351 . S
C1272 C1266 1.428 . S
C1272 N1271 1.351 . S
C1272 C1273 1.434 . S
C1273 C1264 1.429 . S
C1273 N1270 1.350 . S
C1273 C1272 1.434 . S
C1274 C1275 1.369 . S
C1274 C1276 1.419 . S
C1274 H1278 0.930 . S
C1275 C1274 1.369 . S
C1275 C1284 1.429 . S
C1276 C1274 1.419 . S
C1276 C1277 1.363 . S
C1276 H1279 0.929 . S
C1277 C1276 1.363 . S
C1277 C1283 1.428 . S
H1278 C1274 0.930 . S
H1279 C1276 0.929 . S
S1280 N1281 1.613 . S
S1280 N1282 1.610 . S
N1281 S1280 1.613 . S
N1281 C1284 1.350 . S
N1282 S1280 1.610 . S
N1282 C1283 1.351 . S
C1283 C1277 1.428 . S
C1283 N1282 1.351 . S
C1283 C1284 1.434 . S
C1284 C1275 1.429 . S
C1284 N1281 1.350 . S
C1284 C1283 1.434 . S
C1285 C1286 1.369 . S
C1285 C1287 1.419 . S
C1285 H1289 0.930 . S
C1286 C1285 1.369 . S
C1286 C1295 1.429 . S
C1287 C1285 1.419 . S
C1287 C1288 1.363 . S
C1287 H1290 0.929 . S
C1288 C1287 1.363 . S
C1288 C1294 1.428 . S
H1289 C1285 0.930 . S
H1290 C1287 0.929 . S
S1291 N1292 1.613 . S
S1291 N1293 1.610 . S
N1292 S1291 1.613 . S
N1292 C1295 1.350 . S
N1293 S1291 1.610 . S
N1293 C1294 1.351 . S
C1294 C1288 1.428 . S
C1294 N1293 1.351 . S
C1294 C1295 1.434 . S
C1295 C1286 1.429 . S
C1295 N1292 1.350 . S
C1295 C1294 1.434 . S
C505 C76 1.321 . S
C507 C6 1.321 . S
C516 C48 1.318 . S
C518 C20 1.320 . S
C527 C34 1.320 . S
C529 C62 1.322 . S
C538 C90 1.325 . S
C540 C160 1.324 . S
C549 C104 1.327 . S
C551 C132 1.326 . S
C560 C146 1.318 . S
C562 C118 1.320 . S
C571 C174 1.327 . S
C573 C244 1.327 . S
C582 C188 1.328 . S
C584 C216 1.326 . S
C593 C202 1.320 . S
C595 C230 1.321 . S
C604 C328 1.319 . S
C606 C258 1.320 . S
C615 C272 1.323 . S
C617 C300 1.323 . S
C626 C314 1.318 . S
C628 C286 1.319 . S
C637 C412 1.325 . S
C639 C342 1.325 . S
C648 C384 1.324 . S
C650 C356 1.324 . S
C659 C398 1.318 . S
C661 C370 1.320 . S
C670 C426 1.324 . S
C672 C496 1.324 . S
C681 C440 1.318 . S
C683 C468 1.319 . S
C692 C454 1.325 . S
C694 C482 1.325 . S
C703 C78 1.940 . S
C705 C8 1.938 . S
C714 C22 1.940 . S
C716 C50 1.938 . S
C725 C64 1.938 . S
C727 C36 1.940 . S
C736 C92 1.940 . S
C738 C162 1.938 . S
C747 C106 1.938 . S
C749 C134 1.938 . S
C758 C148 1.940 . S
C760 C120 1.939 . S
C769 C176 1.940 . S
C771 C246 1.938 . S
C780 C218 1.938 . S
C782 C190 1.938 . S
C791 C232 1.939 . S
C793 C204 1.938 . S
C802 C260 1.939 . S
C804 C330 1.938 . S
C813 C274 1.938 . S
C815 C302 1.940 . S
C824 C316 1.940 . S
C826 C288 1.938 . S
C835 C414 1.937 . S
C837 C344 1.940 . S
C846 C358 1.940 . S
C848 C386 1.939 . S
C857 C372 1.939 . S
C859 C400 1.938 . S
C868 C498 1.937 . S
C870 C428 1.940 . S
C879 C470 1.938 . S
C881 C442 1.940 . S
C890 C484 1.940 . S
C892 C456 1.939 . S
C901 C233 1.638 . S
C903 C9 1.641 . S
C912 C247 1.640 . S
C914 C23 1.641 . S
C923 C219 1.642 . S
C925 C37 1.639 . S
C934 C51 1.642 . S
C936 C373 1.641 . S
C945 C65 1.640 . S
C947 C345 1.641 . S
C956 C79 1.642 . S
C958 C359 1.639 . S
C967 C93 1.637 . S
C969 C485 1.639 . S
C978 C107 1.639 . S
C980 C499 1.641 . S
C989 C121 1.640 . S
C991 C471 1.638 . S
C1000 C135 1.640 . S
C1002 C289 1.638 . S
C1011 C261 1.641 . S
C1013 C149 1.641 . S
C1022 C275 1.637 . S
C1024 C163 1.637 . S
C1033 C401 1.640 . S
C1035 C177 1.638 . S
C1044 C191 1.637 . S
C1046 C415 1.638 . S
C1055 C205 1.641 . S
C1057 C387 1.638 . S
C1066 C303 1.642 . S
C1068 C457 1.640 . S
C1077 C317 1.641 . S
C1079 C429 1.641 . S
C1088 C443 1.642 . S
C1090 C331 1.640 . S
C1099 C7 1.444 . S
C1101 C147 1.443 . S
C1110 C161 1.444 . S
C1112 C21 1.443 . S
C1121 C133 1.444 . S
C1123 C35 1.444 . S
C1132 C49 1.445 . S
C1134 C119 1.444 . S
C1143 C63 1.444 . S
C1145 C91 1.443 . S
C1154 C77 1.445 . S
C1156 C105 1.444 . S
C1165 C175 1.442 . S
C1167 C315 1.442 . S
C1176 C329 1.444 . S
C1178 C189 1.443 . S
C1187 C301 1.437 . S
C1189 C203 1.438 . S
C1198 C217 1.437 . S
C1200 C287 1.438 . S
C1209 C231 1.440 . S
C1211 C259 1.440 . S
C1220 C273 1.443 . S
C1222 C245 1.443 . S
C1231 C343 1.437 . S
C1233 C483 1.438 . S
C1242 C497 1.437 . S
C1244 C357 1.438 . S
C1253 C371 1.437 . S
C1255 C469 1.438 . S
C1264 C385 1.444 . S
C1266 C455 1.443 . S
C1275 C427 1.440 . S
C1277 C399 1.440 . S
C1286 C413 1.441 . S
C1288 C441 1.441 . S
