# Generated by pormake.
# Topology unf, (4)-cn, num edge types: 1
# Building blocks:
#     Node 0, Type 0, BuildingBlock: GALJAG_clean_sbu_0, # of connection points: 4
#     Node 1, Type 0, BuildingBlock: GALJAG_clean_sbu_0, # of connection points: 4
#     Node 2, Type 0, BuildingBlock: GALJAG_clean_sbu_0, # of connection points: 4
#     Node 3, Type 0, BuildingBlock: GALJAG_clean_sbu_0, # of connection points: 4
#     Node 4, Type 0, BuildingBlock: GALJAG_clean_sbu_0, # of connection points: 4
#     Node 5, Type 0, BuildingBlock: GALJAG_clean_sbu_0, # of connection points: 4
#     Node 6, Type 0, BuildingBlock: GALJAG_clean_sbu_0, # of connection points: 4
#     Node 7, Type 0, BuildingBlock: GALJAG_clean_sbu_0, # of connection points: 4
#     Node 8, Type 0, BuildingBlock: GALJAG_clean_sbu_0, # of connection points: 4
#     Node 9, Type 0, BuildingBlock: GALJAG_clean_sbu_0, # of connection points: 4
#     Node 10, Type 0, BuildingBlock: GALJAG_clean_sbu_0, # of connection points: 4
#     Node 11, Type 0, BuildingBlock: GALJAG_clean_sbu_0, # of connection points: 4
#     Edge 12, Type (0, 0), BuildingBlock: ZUJKAS_clean_linker_0, # of connection points: 2
#     Edge 13, Type (0, 0), BuildingBlock: ZUJKAS_clean_linker_0, # of connection points: 2
#     Edge 14, Type (0, 0), BuildingBlock: ZUJKAS_clean_linker_0, # of connection points: 2
#     Edge 15, Type (0, 0), BuildingBlock: ZUJKAS_clean_linker_0, # of connection points: 2
#     Edge 16, Type (0, 0), BuildingBlock: ZUJKAS_clean_linker_0, # of connection points: 2
#     Edge 17, Type (0, 0), BuildingBlock: ZUJKAS_clean_linker_0, # of connection points: 2
#     Edge 18, Type (0, 0), BuildingBlock: ZUJKAS_clean_linker_0, # of connection points: 2
#     Edge 19, Type (0, 0), BuildingBlock: ZUJKAS_clean_linker_0, # of connection points: 2
#     Edge 20, Type (0, 0), BuildingBlock: ZUJKAS_clean_linker_0, # of connection points: 2
#     Edge 21, Type (0, 0), BuildingBlock: ZUJKAS_clean_linker_0, # of connection points: 2
#     Edge 22, Type (0, 0), BuildingBlock: ZUJKAS_clean_linker_0, # of connection points: 2
#     Edge 23, Type (0, 0), BuildingBlock: ZUJKAS_clean_linker_0, # of connection points: 2
#     Edge 24, Type (0, 0), BuildingBlock: ZUJKAS_clean_linker_0, # of connection points: 2
#     Edge 25, Type (0, 0), BuildingBlock: ZUJKAS_clean_linker_0, # of connection points: 2
#     Edge 26, Type (0, 0), BuildingBlock: ZUJKAS_clean_linker_0, # of connection points: 2
#     Edge 27, Type (0, 0), BuildingBlock: ZUJKAS_clean_linker_0, # of connection points: 2
#     Edge 28, Type (0, 0), BuildingBlock: ZUJKAS_clean_linker_0, # of connection points: 2
#     Edge 29, Type (0, 0), BuildingBlock: ZUJKAS_clean_linker_0, # of connection points: 2
#     Edge 30, Type (0, 0), BuildingBlock: ZUJKAS_clean_linker_0, # of connection points: 2
#     Edge 31, Type (0, 0), BuildingBlock: ZUJKAS_clean_linker_0, # of connection points: 2
#     Edge 32, Type (0, 0), BuildingBlock: ZUJKAS_clean_linker_0, # of connection points: 2
#     Edge 33, Type (0, 0), BuildingBlock: ZUJKAS_clean_linker_0, # of connection points: 2
#     Edge 34, Type (0, 0), BuildingBlock: ZUJKAS_clean_linker_0, # of connection points: 2
#     Edge 35, Type (0, 0), BuildingBlock: ZUJKAS_clean_linker_0, # of connection points: 2
# Relax obj value: 0.104
# Max RMSD: 0.121
# Mean RMSD: 0.121
data_MOF--net-unf--node1-GALJAG_clean_sbu_0--edge1-ZUJKAS_clean_linker_0
_symmetry_space_group_name_H-M    P1
_symmetry_Int_Tables_number       1
_symmetry_cell_setting            triclinic
loop_
_symmetry_equiv_pos_as_xyz
'x, y, z'
_cell_length_a     51.670034
_cell_length_b     51.572791
_cell_length_c     45.420406
_cell_angle_alpha  89.984012
_cell_angle_beta   89.971888
_cell_angle_gamma 120.03609
loop_
_atom_site_label
_atom_site_type_symbol
_atom_site_fract_x
_atom_site_fract_y
_atom_site_fract_z
_atom_type_partial_charge
In0 In 0.09717 0.39802 0.07028 0.0
O1 O 0.09862 0.39698 0.12019 0.0
O2 O 0.13845 0.42798 0.09783 0.0
C3 C 0.04304 0.34933 0.06158 0.0
C4 C 0.13271 0.38197 0.04206 0.0
C5 C 0.08377 0.44003 0.0536 0.0
O6 O 0.05494 0.35631 0.08673 0.0
O7 O 0.05869 0.36648 0.04107 0.0
O8 O 0.09906 0.43264 0.03773 0.0
O9 O 0.07666 0.42737 0.07838 0.0
C10 C 0.12574 0.41708 0.1221 0.0
O11 O 0.13211 0.40549 0.03562 0.0
O12 O 0.11562 0.3668 0.06288 0.0
In13 In 0.59899 0.70176 0.0637 0.0
O14 O 0.60765 0.7171 0.11125 0.0
O15 O 0.56695 0.70957 0.092 0.0
C16 C 0.64559 0.69252 0.05742 0.0
C17 C 0.61423 0.7516 0.03227 0.0
C18 C 0.5563 0.64588 0.04908 0.0
O19 O 0.63475 0.6926 0.08229 0.0
O20 O 0.63332 0.69769 0.03601 0.0
O21 O 0.56494 0.66778 0.03172 0.0
O22 O 0.56816 0.65248 0.07423 0.0
C23 C 0.58366 0.71761 0.11438 0.0
O24 O 0.59003 0.72744 0.02799 0.0
O25 O 0.63051 0.75053 0.05237 0.0
In26 In 0.29572 0.89718 0.06373 0.0
O27 O 0.26971 0.85991 0.03038 0.0
O28 O 0.24778 0.88105 0.05029 0.0
C29 C 0.35176 0.9106 0.05018 0.0
C30 C 0.27982 0.8671 0.11504 0.0
C31 C 0.30523 0.95294 0.05547 0.0
O32 O 0.33029 0.8975 0.03238 0.0
O33 O 0.34463 0.91558 0.07521 0.0
O34 O 0.30358 0.94224 0.08086 0.0
O35 O 0.30141 0.93531 0.03457 0.0
C36 C 0.24619 0.86153 0.03249 0.0
O37 O 0.27991 0.89138 0.11119 0.0
O38 O 0.28825 0.8582 0.09311 0.0
In39 In 0.5988 0.8982 0.42703 0.0
O40 O 0.58449 0.85654 0.45538 0.0
O41 O 0.63021 0.8825 0.44285 0.0
C42 C 0.55733 0.91222 0.44366 0.0
C43 C 0.5859 0.87109 0.3741 0.0
C44 C 0.64563 0.95325 0.43654 0.0
O45 O 0.56557 0.89804 0.4602 0.0
O46 O 0.56906 0.9181 0.41842 0.0
O47 O 0.6349 0.94444 0.41111 0.0
O48 O 0.63305 0.93415 0.45672 0.0
C49 C 0.61046 0.86 0.45656 0.0
O50 O 0.61127 0.89307 0.38019 0.0
O51 O 0.56692 0.8631 0.39456 0.0
In52 In 0.08404 0.70006 0.41855 0.0
O53 O 0.09184 0.71617 0.37099 0.0
O54 O 0.12238 0.70474 0.39002 0.0
C55 C 0.03079 0.69543 0.42944 0.0
C56 C 0.1201 0.74815 0.45143 0.0
C57 C 0.06628 0.64208 0.42815 0.0
O58 O 0.04053 0.69725 0.40354 0.0
O59 O 0.04816 0.69655 0.44954 0.0
O60 O 0.08644 0.6628 0.44345 0.0
O61 O 0.05603 0.65077 0.40765 0.0
C62 C 0.11506 0.71422 0.36776 0.0
O63 O 0.11721 0.72268 0.45619 0.0
O64 O 0.10498 0.74919 0.43013 0.0
In65 In 0.28373 0.39044 0.43467 0.0
O66 O 0.2732 0.38565 0.38575 0.0
O67 O 0.27322 0.42174 0.40838 0.0
C68 C 0.29308 0.34384 0.44007 0.0
C69 C 0.23342 0.37261 0.46601 0.0
C70 C 0.33931 0.43259 0.45045 0.0
O71 O 0.28897 0.35238 0.41533 0.0
O72 O 0.29182 0.35838 0.4618 0.0
O73 O 0.31716 0.4238 0.46744 0.0
O74 O 0.33308 0.42134 0.42503 0.0
C75 C 0.26938 0.40794 0.3844 0.0
O76 O 0.25597 0.39845 0.46864 0.0
O77 O 0.23623 0.35601 0.44743 0.0
In78 In 0.89712 0.60587 0.93034 0.0
O79 O 0.85958 0.59273 0.9638 0.0
O80 O 0.88107 0.63702 0.94652 0.0
C81 C 0.91099 0.56334 0.94296 0.0
C82 C 0.8668 0.59305 0.87925 0.0
C83 C 0.9531 0.65189 0.93765 0.0
O84 O 0.89758 0.57117 0.96097 0.0
O85 O 0.9161 0.57597 0.91817 0.0
O86 O 0.94215 0.64227 0.91247 0.0
O87 O 0.93557 0.63879 0.95884 0.0
C88 C 0.86133 0.61804 0.96347 0.0
O89 O 0.88943 0.61825 0.88447 0.0
O90 O 0.85967 0.57409 0.89969 0.0
In91 In 0.3836 0.28953 0.92475 0.0
O92 O 0.37301 0.2727 0.87767 0.0
O93 O 0.41654 0.28606 0.89375 0.0
C94 C 0.3344 0.29452 0.93079 0.0
C95 C 0.37446 0.24089 0.955 0.0
C96 C 0.42289 0.34534 0.94317 0.0
O97 O 0.34998 0.30244 0.90763 0.0
O98 O 0.34332 0.28362 0.95047 0.0
O99 O 0.41237 0.32298 0.96012 0.0
O100 O 0.41462 0.33931 0.91674 0.0
C101 C 0.39833 0.27561 0.8726 0.0
O102 O 0.39847 0.26571 0.95717 0.0
O103 O 0.35541 0.24075 0.93754 0.0
In104 In 0.70772 0.09662 0.92779 0.0
O105 O 0.72263 0.10613 0.88001 0.0
O106 O 0.71476 0.13778 0.90227 0.0
C107 C 0.7014 0.04144 0.92772 0.0
C108 C 0.75651 0.13204 0.95979 0.0
C109 C 0.65261 0.08062 0.94781 0.0
O110 O 0.69223 0.05081 0.9068 0.0
O111 O 0.71421 0.06006 0.94815 0.0
O112 O 0.67487 0.08968 0.96463 0.0
O113 O 0.65843 0.08087 0.92083 0.0
C114 C 0.72278 0.13064 0.87885 0.0
O115 O 0.7317 0.13066 0.96428 0.0
O116 O 0.75658 0.11568 0.93915 0.0
In117 In 0.38025 0.09108 0.56273 0.0
O118 O 0.39144 0.12718 0.528 0.0
O119 O 0.34925 0.10834 0.54946 0.0
C120 C 0.42234 0.07673 0.54984 0.0
C121 C 0.39568 0.12191 0.61364 0.0
C122 C 0.33347 0.03554 0.55479 0.0
O123 O 0.41527 0.09111 0.53227 0.0
O124 O 0.40912 0.0708 0.57436 0.0
O125 O 0.34205 0.04669 0.5801 0.0
O126 O 0.34802 0.05265 0.53378 0.0
C127 C 0.36689 0.1267 0.53067 0.0
O128 O 0.37099 0.09812 0.61008 0.0
O129 O 0.41285 0.12997 0.5916 0.0
In130 In 0.89723 0.29277 0.57142 0.0
O131 O 0.86635 0.26783 0.53285 0.0
O132 O 0.87183 0.24226 0.56651 0.0
C133 C 0.91416 0.34229 0.53865 0.0
C134 C 0.86887 0.28951 0.6224 0.0
C135 C 0.94977 0.29477 0.58017 0.0
O136 O 0.92115 0.32279 0.53249 0.0
O137 O 0.89749 0.33636 0.56091 0.0
O138 O 0.94515 0.31546 0.58844 0.0
O139 O 0.92752 0.27263 0.56857 0.0
C140 C 0.85963 0.24222 0.54244 0.0
O141 O 0.89633 0.29793 0.62122 0.0
O142 O 0.85588 0.28354 0.59781 0.0
In143 In 0.6905 0.59421 0.56811 0.0
O144 O 0.703 0.60399 0.61641 0.0
O145 O 0.70203 0.56573 0.59763 0.0
C146 C 0.67893 0.6385 0.55631 0.0
C147 C 0.74001 0.6103 0.5359 0.0
C148 C 0.63467 0.54923 0.55823 0.0
O149 O 0.68797 0.63569 0.5813 0.0
O150 O 0.67625 0.61936 0.53749 0.0
O151 O 0.6558 0.55586 0.54033 0.0
O152 O 0.64215 0.56429 0.58172 0.0
C153 C 0.70694 0.58195 0.62008 0.0
O154 O 0.71717 0.58455 0.53406 0.0
O155 O 0.73775 0.62765 0.5539 0.0
H156 H 0.143 0.33678 0.05678 0.0
H157 H 0.17494 0.32164 0.0312 0.0
H158 H 0.19631 0.39017 0.96581 0.0
H159 H 0.16503 0.40603 0.99182 0.0
H160 H 0.17166 0.30086 0.97522 0.0
H161 H 0.27846 0.40767 0.99163 0.0
H162 H 0.24461 0.39919 0.01094 0.0
H163 H 0.24983 0.41155 0.97328 0.0
C164 C 0.1546 0.3487 0.03701 0.0
C165 C 0.15177 0.37274 0.0264 0.0
C166 C 0.17275 0.33997 0.02239 0.0
C167 C 0.1883 0.35505 0.99685 0.0
C168 C 0.18503 0.37868 0.98585 0.0
H169 H 0.31791 0.3277 0.89704 0.0
H170 H 0.27958 0.34093 0.90869 0.0
C171 C 0.16708 0.38763 0.00065 0.0
C172 C 0.20795 0.34589 0.98199 0.0
H173 H 0.28069 0.37018 0.96398 0.0
C174 C 0.19548 0.31605 0.9726 0.0
C175 C 0.23899 0.36581 0.97855 0.0
C176 C 0.25389 0.39777 0.98934 0.0
C177 C 0.21335 0.30545 0.96038 0.0
C178 C 0.24442 0.32518 0.95762 0.0
C179 C 0.25676 0.35523 0.96603 0.0
C180 C 0.26498 0.31457 0.94862 0.0
C181 C 0.199 0.27316 0.95085 0.0
C182 C 0.26917 0.29526 0.96717 0.0
C183 C 0.29109 0.28788 0.96074 0.0
C184 C 0.30914 0.29967 0.93561 0.0
C185 C 0.30421 0.31819 0.91649 0.0
C186 C 0.28241 0.32579 0.9231 0.0
H187 H 0.17456 0.26316 0.94736 0.0
H188 H 0.20933 0.27103 0.93022 0.0
H189 H 0.20242 0.26004 0.96824 0.0
H190 H 0.25624 0.28679 0.98723 0.0
H191 H 0.29445 0.27359 0.97588 0.0
H192 H 0.6617 0.80707 0.04231 0.0
H193 H 0.67567 0.85314 0.01525 0.0
H194 H 0.60124 0.80444 0.95628 0.0
H195 H 0.58661 0.75823 0.98385 0.0
H196 H 0.69122 0.86787 0.95725 0.0
H197 H 0.5881 0.87162 0.98462 0.0
H198 H 0.59771 0.84651 0.00287 0.0
H199 H 0.58217 0.83819 0.96639 0.0
C200 C 0.64827 0.80615 0.0236 0.0
C201 C 0.62293 0.77914 0.01531 0.0
C202 C 0.65634 0.83247 0.00811 0.0
C203 C 0.63928 0.83227 0.984 0.0
C204 C 0.61435 0.80518 0.9752 0.0
H205 H 0.66393 0.99371 0.89341 0.0
H206 H 0.64956 0.94106 0.9011 0.0
C207 C 0.60609 0.77882 0.99087 0.0
C208 C 0.64763 0.86072 0.96866 0.0
H209 H 0.62444 0.91117 0.9562 0.0
C210 C 0.67651 0.87721 0.95673 0.0
C211 C 0.62833 0.87277 0.96793 0.0
C212 C 0.59743 0.85655 0.98132 0.0
C213 C 0.68697 0.90591 0.94497 0.0
C214 C 0.66809 0.91838 0.94533 0.0
C215 C 0.63875 0.90137 0.95591 0.0
C216 C 0.6793 0.95015 0.93805 0.0
C217 C 0.71834 0.92295 0.93287 0.0
C218 C 0.70088 0.97253 0.95617 0.0
C219 C 0.70892 0.00242 0.952 0.0
C220 C 0.69552 0.01043 0.92961 0.0
C221 C 0.67471 0.98814 0.91074 0.0
C222 C 0.66646 0.95812 0.91511 0.0
H223 H 0.72669 0.90764 0.92648 0.0
H224 H 0.71947 0.93654 0.91342 0.0
H225 H 0.73347 0.93838 0.95004 0.0
H226 H 0.71062 0.96673 0.97433 0.0
H227 H 0.72497 0.01913 0.96689 0.0
H228 H 0.23664 0.81706 0.9937 0.0
H229 H 0.18981 0.78276 0.96849 0.0
H230 H 0.14679 0.82666 0.00972 0.0
H231 H 0.19341 0.86115 0.03453 0.0
H232 H 0.1372 0.74356 0.99529 0.0
H233 H 0.12049 0.82126 0.92456 0.0
H234 H 0.15604 0.83154 0.94135 0.0
H235 H 0.1274 0.83351 0.96216 0.0
C236 C 0.21727 0.8196 0.99705 0.0
C237 C 0.21863 0.84175 0.01605 0.0
C238 C 0.1906 0.80005 0.98263 0.0
C239 C 0.16501 0.80254 0.98684 0.0
C240 C 0.16648 0.82486 0.00555 0.0
H241 H 0.98082 0.67454 0.98991 0.0
H242 H 0.03356 0.71066 -0.00181 0.0
C243 C 0.19307 0.84438 0.01993 0.0
C244 C 0.13602 0.78026 0.97392 0.0
H245 H 0.07637 0.77381 0.93539 0.0
C246 C 0.12411 0.75009 0.98176 0.0
C247 C 0.11915 0.78875 0.95593 0.0
C248 C 0.13157 0.8205 0.94525 0.0
C249 C 0.09506 0.72845 0.97353 0.0
C250 C 0.07739 0.73738 0.95748 0.0
C251 C 0.08988 0.76718 0.9481 0.0
C252 C 0.04535 0.71646 0.95197 0.0
C253 C 0.0833 0.69631 0.98259 0.0
C254 C 0.03439 0.70864 0.92317 0.0
C255 C 0.00415 0.68806 0.91834 0.0
C256 C 0.9845 0.67526 0.94228 0.0
C257 C -0.00455 0.68391 0.97104 0.0
C258 C 0.02559 0.70438 0.97582 0.0
H259 H 0.10178 0.6917 0.98694 0.0
H260 H 0.07012 0.69176 0.00317 0.0
H261 H 0.06848 0.68061 0.96538 0.0
H262 H 0.04934 0.71798 0.90451 0.0
H263 H -0.00372 0.6818 0.89595 0.0
H264 H 0.65126 0.64278 0.50732 0.0
H265 H 0.63997 0.68207 0.4949 0.0
H266 H 0.67925 0.72702 0.57673 0.0
H267 H 0.68998 0.68714 0.58974 0.0
H268 H 0.62628 0.72568 0.5641 0.0
H269 H 0.70196 0.76521 0.46755 0.0
H270 H 0.67505 0.72599 0.46564 0.0
H271 H 0.70265 0.73984 0.49447 0.0
C272 C 0.65754 0.66104 0.52268 0.0
C273 C 0.6718 0.66213 0.54935 0.0
C274 C 0.65117 0.68351 0.51549 0.0
C275 C 0.65937 0.70775 0.5346 0.0
C276 C 0.67296 0.70857 0.56161 0.0
H277 H 0.66536 0.86922 0.4712 0.0
H278 H 0.67748 0.83378 0.4941 0.0
C279 C 0.67912 0.68587 0.56896 0.0
C280 C 0.65386 0.73224 0.5261 0.0
H281 H 0.66712 0.78258 0.47132 0.0
C282 C 0.6354 0.73838 0.54397 0.0
C283 C 0.66621 0.74905 0.50009 0.0
C284 C 0.68782 0.74493 0.48099 0.0
C285 C 0.62822 0.76034 0.53601 0.0
C286 C 0.6393 0.776 0.50917 0.0
C287 C 0.6584 0.77037 0.49177 0.0
C288 C 0.63144 0.79828 0.49836 0.0
C289 C 0.60912 0.76671 0.55655 0.0
C290 C 0.60149 0.7902 0.49341 0.0
C291 C 0.59449 0.81059 0.48064 0.0
C292 C 0.61738 0.83913 0.4721 0.0
C293 C 0.64727 0.8473 0.47745 0.0
C294 C 0.65422 0.8271 0.49055 0.0
H295 H 0.61042 0.76003 0.57953 0.0
H296 H 0.61595 0.79083 0.55633 0.0
H297 H 0.58545 0.7536 0.54943 0.0
H298 H 0.58358 0.76783 0.49855 0.0
H299 H 0.57127 0.80369 0.47656 0.0
H300 H 0.15742 0.75289 0.49648 0.0
H301 H 0.19145 0.79825 0.52411 0.0
H302 H 0.16138 0.84887 0.47334 0.0
H303 H 0.12732 0.80385 0.44596 0.0
H304 H 0.23757 0.85012 0.50009 0.0
H305 H 0.15789 0.87476 0.55747 0.0
H306 H 0.14682 0.83853 0.54167 0.0
H307 H 0.15011 0.86857 0.51881 0.0
C308 C 0.15786 0.77364 0.49149 0.0
C309 C 0.13976 0.77488 0.46908 0.0
C310 C 0.17723 0.79946 0.5073 0.0
C311 C 0.17849 0.82675 0.50112 0.0
C312 C 0.16019 0.82788 0.47896 0.0
H313 H 0.31403 0.00708 0.50232 0.0
H314 H 0.27658 0.95473 0.49383 0.0
C315 C 0.14095 0.80219 0.46315 0.0
C316 C 0.20071 0.85473 0.51577 0.0
H317 H 0.208 0.91657 0.55084 0.0
C318 C 0.23112 0.86439 0.51171 0.0
C319 C 0.19226 0.87313 0.53126 0.0
C320 C 0.15997 0.86308 0.53784 0.0
C321 C 0.25328 0.89286 0.52101 0.0
C322 C 0.2447 0.91218 0.53435 0.0
C323 C 0.21443 0.90179 0.54022 0.0
C324 C 0.26666 0.94396 0.54 0.0
C325 C 0.28567 0.9024 0.51574 0.0
C326 C 0.27273 0.95538 0.56876 0.0
C327 C 0.29415 0.98541 0.57371 0.0
C328 C 0.3095 0.00438 0.5499 0.0
C329 C 0.30267 0.99299 0.52111 0.0
C330 C 0.28142 0.96306 0.51622 0.0
H331 H 0.28889 0.88276 0.51326 0.0
H332 H 0.29332 0.91569 0.49512 0.0
H333 H 0.29997 0.91658 0.53406 0.0
H334 H 0.26131 0.94095 0.58733 0.0
H335 H 0.29896 0.99365 0.59612 0.0
H336 H 0.9651 0.25406 0.56159 0.0
H337 H 0.01546 0.26372 0.55049 0.0
H338 H 0.05269 0.35324 0.58509 0.0
H339 H 0.00241 0.34366 0.59655 0.0
H340 H 0.04928 0.30958 0.5103 0.0
H341 H 0.11132 0.32686 0.615 0.0
H342 H 0.07095 0.30702 0.61323 0.0
H343 H 0.09161 0.34723 0.612 0.0
C344 C 0.98406 0.27549 0.56766 0.0
C345 C 0.97986 0.29822 0.57968 0.0
C346 C 0.01278 0.28095 0.56132 0.0
C347 C 0.03774 0.30913 0.56707 0.0
C348 C 0.03375 0.33118 0.58095 0.0
H349 H 0.21991 0.40562 0.50345 0.0
H350 H 0.17262 0.38912 0.52953 0.0
C351 C 0.00499 0.32571 0.58734 0.0
C352 C 0.06707 0.31696 0.55431 0.0
H353 H 0.1403 0.34216 0.57087 0.0
C354 C 0.06913 0.31636 0.52355 0.0
C355 C 0.09291 0.32625 0.57169 0.0
C356 C 0.09168 0.3267 0.60484 0.0
C357 C 0.09646 0.32528 0.50957 0.0
C358 C 0.12232 0.33441 0.5269 0.0
C359 C 0.12034 0.33501 0.55771 0.0
C360 C 0.1516 0.34366 0.51316 0.0
C361 C 0.09754 0.3257 0.47634 0.0
C362 C 0.15553 0.32335 0.49589 0.0
C363 C 0.18229 0.33274 0.48081 0.0
C364 C 0.2057 0.36253 0.48303 0.0
C365 C 0.20216 0.38257 0.50124 0.0
C366 C 0.17526 0.37317 0.51621 0.0
H367 H 0.07774 0.32552 0.46657 0.0
H368 H 0.11804 0.34577 0.46815 0.0
H369 H 0.09782 0.3055 0.4684 0.0
H370 H 0.13767 0.30034 0.49371 0.0
H371 H 0.18453 0.31673 0.4672 0.0
H372 H 0.67134 0.6908 0.00585 0.0
H373 H 0.70856 0.6755 -0.00175 0.0
H374 H 0.71101 0.66208 0.09171 0.0
H375 H 0.67373 0.67764 0.0996 0.0
H376 H 0.76838 0.69316 0.06371 0.0
H377 H 0.69025 0.58803 0.00589 0.0
H378 H 0.69061 0.62038 0.99078 0.0
H379 H 0.67764 0.60879 0.02783 0.0
C380 C 0.67987 0.68472 0.02483 0.0
C381 C 0.66953 0.68522 0.0533 0.0
C382 C 0.70098 0.67583 0.02043 0.0
C383 C 0.71201 0.66713 0.04437 0.0
C384 C 0.7025 0.66849 0.07296 0.0
H385 H 0.81607 0.58065 0.00037 0.0
H386 H 0.78076 0.59132 0.02621 0.0
C387 C 0.68129 0.67739 0.07741 0.0
C388 C 0.73351 0.65667 0.03917 0.0
H389 H 0.74253 0.60562 -0.00043 0.0
C390 C 0.76269 0.67376 0.05008 0.0
C391 C 0.72579 0.63101 0.02192 0.0
C392 C 0.69428 0.6108 0.01117 0.0
C393 C 0.78491 0.66686 0.04259 0.0
C394 C 0.77772 0.64258 0.0234 0.0
C395 C 0.74808 0.62442 0.01404 0.0
C396 C 0.80087 0.63705 0.01067 0.0
C397 C 0.81596 0.68592 0.0549 0.0
C398 C 0.8238 0.65922 0.99341 0.0
C399 C 0.84389 0.6532 0.97868 0.0
C400 C 0.84125 0.6248 0.98072 0.0
C401 C 0.81862 0.60275 -0.00157 0.0
C402 C 0.7985 0.60881 0.01321 0.0
H403 H 0.81544 0.69634 0.07614 0.0
H404 H 0.82719 0.6726 0.05837 0.0
H405 H 0.82952 0.70426 0.03917 0.0
H406 H 0.82556 0.68089 0.99051 0.0
H407 H 0.86105 0.6706 0.96511 0.0
H408 H 0.3246 0.18584 0.95312 0.0
H409 H 0.31563 0.14054 0.97881 0.0
H410 H 0.40238 0.18938 0.0198 0.0
H411 H 0.41175 0.23496 0.99371 0.0
H412 H 0.39193 0.13671 0.99464 0.0
H413 H 0.29601 0.11636 0.06473 0.0
H414 H 0.29 0.12174 0.02686 0.0
H415 H 0.31981 0.15196 0.04707 0.0
C416 C 0.34169 0.18704 0.96779 0.0
C417 C 0.36888 0.21391 0.97144 0.0
C418 C 0.33641 0.1612 0.98267 0.0
C419 C 0.35808 0.16178 0.00166 0.0
C420 C 0.38525 0.1886 0.00546 0.0
H421 H 0.31681 0.99636 0.09647 0.0
H422 H 0.33214 0.04902 0.08704 0.0
C423 C 0.39058 0.21454 0.99053 0.0
C424 C 0.35307 0.13369 0.01554 0.0
H425 H 0.30193 0.0735 0.05522 0.0
C426 C 0.37256 0.12313 0.00833 0.0
C427 C 0.32805 0.11622 0.03378 0.0
C428 C 0.30746 0.1273 0.04383 0.0
C429 C 0.36663 0.09469 0.01735 0.0
C430 C 0.34032 0.07627 0.03357 0.0
C431 C 0.32185 0.08755 0.0424 0.0
C432 C 0.33055 0.04454 0.03962 0.0
C433 C 0.38825 0.08433 0.0089 0.0
C434 C 0.3239 0.02461 0.01607 0.0
C435 C 0.31512 0.99471 0.02135 0.0
C436 C 0.31267 0.98415 0.0503 0.0
C437 C 0.31858 0.00394 0.07394 0.0
C438 C 0.32736 0.03396 0.06861 0.0
H439 H 0.41096 0.10359 0.00459 0.0
H440 H 0.3898 0.07014 0.02642 0.0
H441 H 0.38032 0.07084 0.98843 0.0
H442 H 0.3256 0.03224 0.99356 0.0
H443 H 0.31056 0.97995 0.0027 0.0
H444 H 0.01423 0.33108 0.00919 0.0
H445 H 0.96261 0.29202 0.00058 0.0
H446 H 0.95092 0.27192 0.09345 0.0
H447 H 0.00298 0.31109 0.10233 0.0
H448 H 0.92724 0.22056 0.05528 0.0
H449 H 0.88955 0.30015 0.02383 0.0
H450 H 0.92222 0.30622 0.00406 0.0
H451 H 0.9241 0.31163 0.0433 0.0
C452 C 0.00077 0.31829 0.02781 0.0
C453 C 0.01253 0.32424 0.05647 0.0
C454 C 0.97125 0.29612 0.02286 0.0
C455 C 0.95289 0.2796 0.04646 0.0
C456 C 0.96477 0.2847 0.07502 0.0
H457 H 0.76218 0.16903 0.00548 0.0
H458 H 0.80792 0.20281 0.03253 0.0
C459 C -0.00558 0.30699 0.08003 0.0
C460 C 0.92133 0.25704 0.04087 0.0
H461 H 0.85804 0.24905 0.00899 0.0
C462 C 0.91188 0.22672 0.04562 0.0
C463 C 0.90123 0.26526 0.02884 0.0
C464 C 0.90965 0.29762 0.02498 0.0
C465 C 0.88333 0.20422 0.03683 0.0
C466 C 0.86412 0.21241 0.02258 0.0
C467 C 0.87293 0.2428 0.01962 0.0
C468 C 0.83594 0.19006 0.00837 0.0
C469 C 0.87422 0.17193 0.04242 0.0
C470 C 0.83664 0.17188 0.98578 0.0
C471 C 0.81067 0.15267 0.97035 0.0
C472 C 0.78356 0.1515 0.97705 0.0
C473 C 0.78278 0.16949 -0.00013 0.0
C474 C 0.80882 0.18871 0.01536 0.0
H475 H 0.88635 0.16977 0.06161 0.0
H476 H 0.84981 0.15807 0.04647 0.0
H477 H 0.87991 0.16287 0.02286 0.0
H478 H 0.85747 0.17318 0.97947 0.0
H479 H 0.81197 0.13915 0.95279 0.0
H480 H 0.31651 0.13073 0.5349 0.0
H481 H 0.30555 0.16582 0.50953 0.0
H482 H 0.38936 0.20261 0.46285 0.0
H483 H 0.4008 0.1678 0.48868 0.0
H484 H 0.38171 0.24549 0.48841 0.0
H485 H 0.27964 0.16911 0.42626 0.0
H486 H 0.27612 0.15882 0.46439 0.0
H487 H 0.30393 0.15698 0.44198 0.0
C488 C 0.33246 0.14603 0.51896 0.0
C489 C 0.35953 0.14659 0.51378 0.0
C490 C 0.32602 0.16588 0.50426 0.0
C491 C 0.34637 0.18641 0.48387 0.0
C492 C 0.37324 0.18672 0.4783 0.0
H493 H 0.29979 0.31058 0.39687 0.0
H494 H 0.31482 0.27264 0.4033 0.0
C495 C 0.37975 0.16689 0.49308 0.0
C496 C 0.34072 0.2094 0.47078 0.0
H497 H 0.28698 0.21848 0.43657 0.0
C498 C 0.36127 0.23961 0.47656 0.0
C499 C 0.31429 0.20177 0.45492 0.0
C500 C 0.29241 0.1699 0.44625 0.0
C501 C 0.35515 0.26224 0.46861 0.0
C502 C 0.32756 0.25433 0.45502 0.0
C503 C 0.30791 0.22438 0.44744 0.0
C504 C 0.31781 0.27654 0.45077 0.0
C505 C 0.37796 0.29437 0.47547 0.0
C506 C 0.31382 0.29057 0.47537 0.0
C507 C 0.30524 0.31204 0.4718 0.0
C508 C 0.30031 0.31975 0.44354 0.0
C509 C 0.30352 0.30509 0.4189 0.0
C510 C 0.31211 0.28351 0.42252 0.0
H511 H 0.40081 0.29753 0.47732 0.0
H512 H 0.37811 0.30977 0.4583 0.0
H513 H 0.37232 0.30069 0.49688 0.0
H514 H 0.31748 0.28498 0.49739 0.0
H515 H 0.30279 0.32283 0.49122 0.0
H516 H 0.83941 0.18528 0.56143 0.0
H517 H 0.80381 0.13869 0.53691 0.0
H518 H 0.79722 0.18899 0.46437 0.0
H519 H 0.83287 0.23599 0.48887 0.0
H520 H 0.74114 0.12874 0.5144 0.0
H521 H 0.81647 0.11943 0.43238 0.0
H522 H 0.83072 0.13838 0.4671 0.0
H523 H 0.81919 0.15517 0.43939 0.0
C524 C 0.83053 0.18648 0.54019 0.0
C525 C 0.83884 0.21424 0.52706 0.0
C526 C 0.81026 0.15988 0.52625 0.0
C527 C 0.79817 0.16059 0.49887 0.0
C528 C 0.80659 0.18817 0.48545 0.0
H529 H 0.67157 0.00112 0.39884 0.0
H530 H 0.70856 0.05312 0.41131 0.0
C531 C 0.82682 0.21489 0.49948 0.0
C532 C 0.77562 0.13227 0.48529 0.0
H533 H 0.76722 0.07873 0.43596 0.0
C534 C 0.74666 0.1179 0.49702 0.0
C535 C 0.78304 0.11853 0.46251 0.0
C536 C 0.81402 0.13348 0.44945 0.0
C537 C 0.72498 0.08952 0.48708 0.0
C538 C 0.73279 0.07498 0.46536 0.0
C539 C 0.76143 0.08993 0.45273 0.0
C540 C 0.71204 0.04353 0.45705 0.0
C541 C 0.69398 0.07522 0.50015 0.0
C542 C 0.70259 0.02098 0.47843 0.0
C543 C 0.68156 0.9915 0.47145 0.0
C544 C 0.6698 0.98397 0.44285 0.0
C545 C 0.68023 0.00635 0.42107 0.0
C546 C 0.70128 0.03598 0.42815 0.0
H547 H 0.68916 0.09228 0.50948 0.0
H548 H 0.6767 0.06191 0.48342 0.0
H549 H 0.6922 0.05998 0.51827 0.0
H550 H 0.71118 0.02629 0.5007 0.0
H551 H 0.67416 0.97468 0.48862 0.0
H552 H 0.98567 0.68322 0.39052 0.0
H553 H 0.93394 0.66911 0.40249 0.0
H554 H 0.95625 0.68145 0.49486 0.0
H555 H 0.00762 0.69506 0.48318 0.0
H556 H 0.90669 0.62604 0.48121 0.0
H557 H 0.89797 0.72009 0.43172 0.0
H558 H 0.91145 0.70159 0.40787 0.0
H559 H 0.93346 0.72246 0.43895 0.0
C560 C 0.97959 0.68334 0.41333 0.0
C561 C 0.00059 0.69014 0.43595 0.0
C562 C 0.95011 0.67538 0.4201 0.0
C563 C 0.94139 0.67441 0.44954 0.0
C564 C 0.96258 0.68206 0.47202 0.0
H565 H 0.79181 0.66373 0.53843 0.0
H566 H 0.83891 0.67775 0.51352 0.0
C567 C 0.99191 0.68987 0.4653 0.0
C568 C 0.90987 0.66363 0.45741 0.0
H569 H 0.8544 0.6811 0.45373 0.0
C570 C 0.89513 0.63792 0.47505 0.0
C571 C 0.89505 0.67932 0.44935 0.0
C572 C 0.91026 0.70754 0.43111 0.0
C573 C 0.86615 0.62785 0.48556 0.0
C574 C 0.85133 0.64362 0.47768 0.0
C575 C 0.86581 0.66896 0.45947 0.0
C576 C 0.82193 0.63568 0.49035 0.0
C577 C 0.85217 0.60122 0.50607 0.0
C578 C 0.79664 0.60758 0.48506 0.0
C579 C 0.7697 0.59939 0.49946 0.0
C580 C 0.76769 0.61932 0.51916 0.0
C581 C 0.79275 0.64785 0.52349 0.0
C582 C 0.81963 0.65595 0.50919 0.0
H583 H 0.86886 0.59552 0.51463 0.0
H584 H 0.84133 0.60557 0.52505 0.0
H585 H 0.83476 0.58145 0.49402 0.0
H586 H 0.79791 0.59182 0.47021 0.0
H587 H 0.75065 0.57735 0.49554 0.0
H588 H 0.24932 0.44764 0.37852 0.0
H589 H 0.2266 0.45584 0.33475 0.0
H590 H 0.24414 0.39475 0.28554 0.0
H591 H 0.26616 0.38588 0.32929 0.0
H592 H 0.24597 0.47522 0.27719 0.0
H593 H 0.15359 0.35729 0.27978 0.0
H594 H 0.17943 0.37418 0.30992 0.0
H595 H 0.18982 0.36059 0.27813 0.0
C596 C 0.24859 0.43621 0.35827 0.0
C597 C 0.25909 0.4158 0.35735 0.0
C598 C 0.23565 0.44094 0.33332 0.0
C599 C 0.23316 0.42541 0.30716 0.0
C600 C 0.24526 0.40641 0.30576 0.0
H601 H 0.18602 0.44645 0.13082 0.0
H602 H 0.21214 0.45261 0.17742 0.0
C603 C 0.25791 0.40145 0.33071 0.0
C604 C 0.21647 0.42766 0.28179 0.0
H605 H 0.15753 0.38516 0.23668 0.0
C606 C 0.22648 0.45563 0.26839 0.0
C607 C 0.19067 0.40217 0.27085 0.0
C608 C 0.17752 0.37193 0.28559 0.0
C609 C 0.2119 0.45855 0.24358 0.0
C610 C 0.1871 0.4327 0.23166 0.0
C611 C 0.17664 0.40496 0.24569 0.0
C612 C 0.17201 0.43329 0.20415 0.0
C613 C 0.22305 0.48927 0.23061 0.0
C614 C 0.14078 0.42036 0.20361 0.0
C615 C 0.1258 0.4162 0.17695 0.0
C616 C 0.14181 0.42516 0.15039 0.0
C617 C 0.17317 0.43954 0.15104 0.0
C618 C 0.18813 0.44328 0.17769 0.0
H619 H 0.23487 0.50708 0.24736 0.0
H620 H 0.23917 0.49303 0.2127 0.0
H621 H 0.20443 0.49156 0.22128 0.0
H622 H 0.12788 0.41243 0.22374 0.0
H623 H 0.10161 0.40517 0.17706 0.0
H624 H 0.53601 0.72567 0.12503 0.0
H625 H 0.5274 0.74807 0.16894 0.0
H626 H 0.60742 0.75717 0.20847 0.0
H627 H 0.616 0.73465 0.165 0.0
H628 H 0.55748 0.73533 0.24714 0.0
H629 H 0.57953 0.83872 0.18726 0.0
H630 H 0.55104 0.80364 0.17234 0.0
H631 H 0.58931 0.81239 0.17216 0.0
C632 C 0.55157 0.7322 0.14323 0.0
C633 C 0.57679 0.72863 0.14156 0.0
C634 C 0.54671 0.74509 0.16817 0.0
C635 C 0.56701 0.75459 0.19169 0.0
C636 C 0.59155 0.75003 0.19047 0.0
H637 H 0.62388 0.88314 0.32788 0.0
H638 H 0.6147 0.85366 0.28298 0.0
C639 C 0.59644 0.73721 0.16561 0.0
C640 C 0.56368 0.77037 0.21727 0.0
H641 H 0.57088 0.83723 0.23819 0.0
C642 C 0.55998 0.75744 0.24524 0.0
C643 C 0.56726 0.79931 0.21455 0.0
C644 C 0.57222 0.81456 0.18504 0.0
C645 C 0.56066 0.77307 0.27075 0.0
C646 C 0.56477 0.80222 0.26807 0.0
C647 C 0.56757 0.8148 0.24005 0.0
C648 C 0.56902 0.82103 0.29419 0.0
C649 C 0.55847 0.75888 0.30041 0.0
C650 C 0.54611 0.81277 0.31497 0.0
C651 C 0.55133 0.82953 0.34069 0.0
C652 C 0.5795 0.85486 0.3459 0.0
C653 C 0.602 0.86369 0.3245 0.0
C654 C 0.59677 0.84691 0.29884 0.0
H655 H 0.56088 0.7387 0.29873 0.0
H656 H 0.57592 0.77512 0.31557 0.0
H657 H 0.53632 0.75204 0.3103 0.0
H658 H 0.5244 0.79311 0.3115 0.0
H659 H 0.53352 0.82232 0.35675 0.0
H660 H 0.26141 0.8824 0.16489 0.0
H661 H 0.23882 0.85152 0.20851 0.0
H662 H 0.25044 0.78126 0.17079 0.0
H663 H 0.27289 0.81201 0.12678 0.0
H664 H 0.19276 0.76177 0.19032 0.0
H665 H 0.27486 0.82842 0.27666 0.0
H666 H 0.26411 0.85056 0.25495 0.0
H667 H 0.28375 0.83392 0.23787 0.0
C668 C 0.25957 0.86056 0.16605 0.0
C669 C 0.26888 0.84959 0.14246 0.0
C670 C 0.24685 0.84303 0.19107 0.0
C671 C 0.24337 0.8143 0.19302 0.0
C672 C 0.25317 0.80348 0.16975 0.0
H673 H 0.1676 0.71531 0.35718 0.0
H674 H 0.19955 0.73511 0.31354 0.0
C675 C 0.26599 0.82106 0.14469 0.0
C676 C 0.22712 0.79482 0.21827 0.0
H677 H 0.22497 0.79344 0.29331 0.0
C678 C 0.20003 0.76838 0.21285 0.0
C679 C 0.23689 0.80326 0.24758 0.0
C680 C 0.26666 0.83044 0.25464 0.0
C681 C 0.18154 0.7511 0.23607 0.0
C682 C 0.19025 0.76083 0.26534 0.0
C683 C 0.21818 0.78624 0.2708 0.0
C684 C 0.16984 0.74635 0.2905 0.0
C685 C 0.15261 0.7229 0.22904 0.0
C686 C 0.1426 0.74613 0.29189 0.0
C687 C 0.12437 0.7349 0.31672 0.0
C688 C 0.13319 0.72387 0.34065 0.0
C689 C 0.16022 0.72361 0.33901 0.0
C690 C 0.17848 0.7349 0.31415 0.0
H691 H 0.15366 0.71368 0.20725 0.0
H692 H 0.14705 0.70546 0.2461 0.0
H693 H 0.13423 0.72813 0.22824 0.0
H694 H 0.13585 0.75548 0.27413 0.0
H695 H 0.10373 0.73551 0.31743 0.0
H696 H 0.87724 0.63116 0.83353 0.0
H697 H 0.8465 0.62206 0.78966 0.0
H698 H 0.78631 0.53187 0.8191 0.0
H699 H 0.81679 0.54094 0.86338 0.0
H700 H 0.83005 0.57868 0.74541 0.0
H701 H 0.7314 0.56741 0.80624 0.0
H702 H 0.76779 0.58258 0.82301 0.0
H703 H 0.74479 0.54288 0.81778 0.0
C704 C 0.85753 0.60934 0.83062 0.0
C705 C 0.84927 0.58681 0.85193 0.0
C706 C 0.84003 0.60418 0.80556 0.0
C707 C 0.81396 0.57645 0.8014 0.0
C708 C 0.80608 0.55359 0.82221 0.0
H709 H 0.71861 0.53701 0.63271 0.0
H710 H 0.742 0.53142 0.67734 0.0
C711 C 0.82358 0.55876 0.84737 0.0
C712 C 0.79497 0.57196 0.77541 0.0
H713 H 0.72728 0.56244 0.75464 0.0
C714 C 0.80747 0.57484 0.74735 0.0
C715 C 0.76565 0.56723 0.77819 0.0
C716 C 0.75158 0.56506 0.80788 0.0
C717 C 0.79164 0.57377 0.72188 0.0
C718 C 0.76238 0.5692 0.72465 0.0
C719 C 0.74964 0.56569 0.75269 0.0
C720 C 0.74568 0.57056 0.69885 0.0
C721 C 0.80685 0.57886 0.69234 0.0
C722 C 0.73902 0.59372 0.69676 0.0
C723 C 0.72552 0.59685 0.67146 0.0
C724 C 0.71842 0.57681 0.64787 0.0
C725 C 0.72402 0.55289 0.6505 0.0
C726 C 0.73748 0.54974 0.67587 0.0
H727 H 0.83132 0.58798 0.69456 0.0
H728 H 0.7973 0.55724 0.68038 0.0
H729 H 0.8031 0.59458 0.67876 0.0
H730 H 0.74511 0.60995 0.71434 0.0
H731 H 0.72139 0.61544 0.67009 0.0
H732 H 0.36252 0.25302 0.82455 0.0
H733 H 0.37191 0.23229 0.78016 0.0
H734 H 0.45909 0.2551 0.81303 0.0
H735 H 0.44971 0.27569 0.85784 0.0
H736 H 0.41854 0.25834 0.73758 0.0
H737 H 0.41665 0.1636 0.79847 0.0
H738 H 0.40328 0.18672 0.81456 0.0
H739 H 0.4427 0.20078 0.81109 0.0
C740 C 0.3838 0.25386 0.82226 0.0
C741 C 0.40529 0.26573 0.84474 0.0
C742 C 0.38915 0.24207 0.79687 0.0
C743 C 0.41602 0.24186 0.79355 0.0
C744 C 0.43804 0.2547 0.81543 0.0
H745 H 0.44608 0.17531 0.62552 0.0
H746 H 0.45628 0.20641 0.6696 0.0
C747 C 0.4327 0.26654 0.8409 0.0
C748 C 0.42002 0.22687 0.76766 0.0
H749 H 0.42092 0.1637 0.74701 0.0
C750 C 0.41952 0.23788 0.73955 0.0
C751 C 0.42105 0.20009 0.77049 0.0
C752 C 0.42076 0.18685 0.80021 0.0
C753 C 0.41896 0.22223 0.71409 0.0
C754 C 0.41928 0.19509 0.71693 0.0
C755 C 0.42085 0.18463 0.74501 0.0
C756 C 0.41474 0.17565 0.69128 0.0
C757 C 0.41645 0.23402 0.68444 0.0
C758 C 0.38848 0.14772 0.68939 0.0
C759 C 0.38267 0.12992 0.66441 0.0
C760 C 0.40308 0.13973 0.64092 0.0
C761 C 0.42988 0.16727 0.64326 0.0
C762 C 0.43569 0.1851 0.66831 0.0
H763 H 0.41141 0.25251 0.68643 0.0
H764 H 0.43791 0.24266 0.67241 0.0
H765 H 0.39867 0.21582 0.67103 0.0
H766 H 0.37208 0.14005 0.70695 0.0
H767 H 0.36188 0.10877 0.66327 0.0
H768 H 0.73483 0.11715 0.82452 0.0
H769 H 0.75813 0.15133 0.78309 0.0
H770 H 0.7598 0.22315 0.83326 0.0
H771 H 0.73574 0.1888 0.87468 0.0
H772 H 0.74498 0.22356 0.77428 0.0
H773 H 0.84671 0.21423 0.78523 0.0
H774 H 0.81359 0.17842 0.78075 0.0
H775 H 0.81786 0.20051 0.81299 0.0
C776 C 0.73986 0.14014 0.82662 0.0
C777 C 0.7338 0.15043 0.8529 0.0
C778 C 0.75329 0.15966 0.80301 0.0
C779 C 0.76132 0.1899 0.80543 0.0
C780 C 0.75397 0.19993 0.83109 0.0
H781 H 0.89235 0.30821 0.67719 0.0
H782 H 0.86613 0.29078 0.72422 0.0
C783 C 0.74026 0.18031 0.85469 0.0
C784 C 0.77853 0.21111 0.78156 0.0
H785 H 0.84164 0.2355 0.74042 0.0
C786 C 0.7663 0.22652 0.76702 0.0
C787 C 0.80671 0.21558 0.77271 0.0
C788 C 0.82216 0.20157 0.78894 0.0
C789 C 0.78085 0.2451 0.74276 0.0
C790 C 0.80794 0.24769 0.73251 0.0
C791 C 0.82078 0.2334 0.74806 0.0
C792 C 0.82248 0.26313 0.70466 0.0
C793 C 0.76703 0.26165 0.72841 0.0
C794 C 0.80655 0.25418 0.67805 0.0
C795 C 0.82143 0.26452 0.65121 0.0
C796 C 0.85259 0.28342 0.65051 0.0
C797 C 0.86832 0.29356 0.67712 0.0
C798 C 0.85336 0.28361 0.70398 0.0
H799 H 0.7538 0.26645 0.74455 0.0
H800 H 0.78426 0.2831 0.7185 0.0
H801 H 0.75153 0.24745 0.7108 0.0
H802 H 0.78292 0.2378 0.67787 0.0
H803 H 0.80879 0.25618 0.631 0.0
H804 H 0.08839 0.46226 -0.0019 0.0
H805 H 0.05934 0.48355 0.97746 0.0
H806 H 0.02065 0.47891 0.06283 0.0
H807 H 0.04932 0.45731 0.08357 0.0
H808 H 0.97865 0.45027 0.01749 0.0
H809 H 0.06534 0.56576 0.9857 0.0
H810 H 0.07176 0.53655 0.97269 0.0
H811 H 0.07254 0.54348 0.01153 0.0
C812 C 0.07427 0.46648 0.01262 0.0
C813 C 0.07104 0.45808 0.04242 0.0
C814 C 0.05772 0.47866 0.0008 0.0
C815 C 0.03796 0.48284 0.01868 0.0
C816 C 0.03581 0.47581 0.04872 0.0
H817 H 0.90765 0.53818 0.99664 0.0
H818 H 0.93645 0.51513 0.0133 0.0
C819 C 0.05228 0.46361 0.06054 0.0
C820 C 0.01763 0.49206 0.00567 0.0
H821 H 0.01586 0.54922 0.9698 0.0
C822 C 0.98673 0.47193 0.00711 0.0
C823 C 0.02835 0.52018 0.99193 0.0
C824 C 0.06129 0.5429 0.99051 0.0
C825 C 0.96617 0.4792 0.99513 0.0
C826 C 0.97687 0.5075 0.98179 0.0
C827 C 0.00779 0.52747 0.97998 0.0
C828 C 0.95646 0.51757 0.97076 0.0
C829 C 0.93325 0.45645 0.99658 0.0
C830 C 0.95795 0.52624 0.94127 0.0
C831 C 0.9416 0.53949 0.93171 0.0
C832 C 0.92369 0.54447 0.9516 0.0
C833 C 0.92114 0.53447 0.98079 0.0
C834 C 0.93751 0.52122 0.99033 0.0
H835 H 0.92932 0.43339 -0.0003 0.0
H836 H 0.92316 0.46172 0.01557 0.0
H837 H 0.92157 0.45699 0.97627 0.0
H838 H 0.97253 0.52364 0.92589 0.0
H839 H 0.94404 0.54704 0.90909 0.0
H840 H 0.53712 0.59526 0.08193 0.0
H841 H 0.51323 0.54367 0.06388 0.0
H842 H 0.50931 0.5742 0.97648 0.0
H843 H 0.53338 0.62592 0.99427 0.0
H844 H 0.45797 0.50704 0.03204 0.0
H845 H 0.55974 0.53191 0.96818 0.0
H846 H 0.55995 0.55643 0.99667 0.0
H847 H 0.54476 0.55612 0.96104 0.0
C848 C 0.53071 0.59094 0.05897 0.0
C849 C 0.53733 0.6146 0.03943 0.0
C850 C 0.51713 0.56149 0.04872 0.0
C851 C 0.51012 0.55534 0.0188 0.0
C852 C 0.51509 0.57868 -0.00043 0.0
H853 H 0.44351 0.39673 0.91133 0.0
H854 H 0.46569 0.4478 0.93039 0.0
C855 C 0.52863 0.60813 0.00981 0.0
C856 C 0.49899 0.52473 0.00749 0.0
H857 H 0.51774 0.48343 0.96288 0.0
C858 C 0.47099 0.50178 0.01697 0.0
C859 C 0.51621 0.51811 0.98793 0.0
C860 C 0.54695 0.54183 0.97798 0.0
C861 C 0.45941 0.47232 0.00689 0.0
C862 C 0.47665 0.46568 0.98735 0.0
C863 C 0.50468 0.48865 0.97792 0.0
C864 C 0.46558 0.43512 0.97582 0.0
C865 C 0.42854 0.44872 0.01667 0.0
C866 C 0.45926 0.41131 0.99497 0.0
C867 C 0.44658 0.38211 0.98416 0.0
C868 C 0.44026 0.37638 0.95401 0.0
C869 C 0.44809 0.40048 0.93469 0.0
C870 C 0.46069 0.42964 0.94553 0.0
H871 H 0.41558 0.45879 0.02569 0.0
H872 H 0.41581 0.43371 -0.00189 0.0
H873 H 0.43054 0.43486 0.03423 0.0
H874 H 0.46354 0.41524 0.01835 0.0
H875 H 0.44089 0.36397 -0.00047 0.0
H876 H 0.40146 0.94065 0.08436 0.0
H877 H 0.45336 0.96914 0.06749 0.0
H878 H 0.42496 0.93823 0.97879 0.0
H879 H 0.37295 0.9097 0.99542 0.0
H880 H 0.49055 0.951 0.03343 0.0
H881 H 0.46698 0.03228 0.976 0.0
H882 H 0.44249 0.00681 0.00386 0.0
H883 H 0.44247 0.99342 0.96738 0.0
C884 C 0.40632 0.93947 0.06136 0.0
C885 C 0.38318 0.92318 0.04114 0.0
C886 C 0.43594 0.95578 0.05179 0.0
C887 C 0.44274 0.95612 0.02187 0.0
C888 C 0.41994 0.93851 0.00191 0.0
H889 H 0.60109 0.05338 0.91595 0.0
H890 H 0.55013 0.02427 0.93499 0.0
C891 C 0.39033 0.92211 0.01148 0.0
C892 C 0.47345 0.97619 0.01132 0.0
H893 H 0.51537 0.03892 0.97009 0.0
C894 C 0.49609 0.97028 0.01965 0.0
C895 C 0.4804 0.0013 0.99345 0.0
C896 C 0.45692 0.00911 0.98476 0.0
C897 C 0.5256 0.98854 0.00995 0.0
C898 C 0.53258 0.01371 0.99206 0.0
C899 C 0.5099 0.01966 0.98388 0.0
C900 C 0.56313 0.03351 0.98077 0.0
C901 C 0.54882 0.98025 0.01825 0.0
C902 C 0.58712 0.04925 0.0002 0.0
C903 C 0.61627 0.06582 0.9894 0.0
C904 C 0.62177 0.06711 0.95898 0.0
C905 C 0.59752 0.05274 0.9395 0.0
C906 C 0.56842 0.03606 0.95033 0.0
H907 H 0.53845 0.9566 0.02569 0.0
H908 H 0.56388 0.98359 -0.00061 0.0
H909 H 0.56261 0.9948 0.0366 0.0
H910 H 0.58336 0.04814 0.02374 0.0
H911 H 0.63454 0.07684 0.00489 0.0
H912 H 0.53423 0.90765 0.49874 0.0
H913 H 0.50968 0.93436 0.51774 0.0
H914 H 0.51509 0.97221 0.43171 0.0
H915 H 0.53921 0.94536 0.4125 0.0
H916 H 0.5363 -0.00331 0.51756 0.0
H917 H 0.42903 0.94412 0.45635 0.0
H918 H 0.45198 0.92695 0.45927 0.0
H919 H 0.46125 0.95655 0.43316 0.0
C920 C 0.52956 0.92113 0.48375 0.0
C921 C 0.53859 0.92444 0.45415 0.0
C922 C 0.51567 0.93644 0.49465 0.0
C923 C 0.51041 0.95505 0.47606 0.0
C924 C 0.51846 0.95753 0.44628 0.0
H925 H 0.44815 0.08123 0.49629 0.0
H926 H 0.4724 0.05353 0.47941 0.0
C927 C 0.53233 0.94225 0.43537 0.0
C928 C 0.49876 0.97378 0.48822 0.0
H929 H 0.44269 0.98999 0.481 0.0
C930 C 0.5157 0.99508 0.50979 0.0
C931 C 0.472 0.97168 0.47786 0.0
C932 C 0.45234 0.94841 0.45558 0.0
C933 C 0.50687 0.01486 0.52085 0.0
C934 C 0.48027 0.01294 0.51026 0.0
C935 C 0.46323 0.9915 0.48886 0.0
C936 C 0.46919 0.03246 0.5215 0.0
C937 C 0.52636 0.03806 0.54326 0.0
C938 C 0.45996 0.03017 0.55088 0.0
C939 C 0.44618 0.04599 0.5606 0.0
C940 C 0.44128 0.06419 0.541 0.0
C941 C 0.45172 0.06744 0.5119 0.0
C942 C 0.46545 0.05157 0.5022 0.0
H943 H 0.54933 0.04138 0.54368 0.0
H944 H 0.52781 0.0599 0.53864 0.0
H945 H 0.51643 0.03056 0.56547 0.0
H946 H 0.46226 0.01518 0.56597 0.0
H947 H 0.43824 0.04295 0.58311 0.0
H948 H 0.95982 0.36414 0.49926 0.0
H949 H 0.98632 0.41436 0.47818 0.0
H950 H 0.92462 0.43571 0.52075 0.0
H951 H 0.8987 0.38571 0.54303 0.0
H952 H 0.97209 0.44529 0.44231 0.0
H953 H 0.00286 0.50193 0.55078 0.0
H954 H 0.98607 0.46191 0.547 0.0
H955 H 0.96319 0.47917 0.54615 0.0
C956 C 0.95173 0.37945 0.50397 0.0
C957 C 0.92739 0.37118 0.52302 0.0
C958 C 0.96693 0.40815 0.49191 0.0
C959 C 0.95791 0.42903 0.49847 0.0
C960 C 0.93252 0.42025 0.51615 0.0
H961 H 0.01492 0.59555 0.40685 0.0
H962 H 0.99032 0.54345 0.42271 0.0
C963 C 0.91757 0.39163 0.52862 0.0
C964 C 0.97558 0.46009 0.48724 0.0
H965 H 0.01297 0.53321 0.5089 0.0
C966 C 0.98115 0.46453 0.45687 0.0
C967 C 0.98805 0.48512 0.50634 0.0
C968 C 0.98504 0.48184 0.5394 0.0
C969 C -0.00165 0.49336 0.44501 0.0
C970 C 0.0094 0.51846 0.46394 0.0
C971 C 0.0043 0.51398 0.49436 0.0
C972 C 0.02551 0.54964 0.45274 0.0
C973 C 0.00491 0.49649 0.41241 0.0
C974 C 0.05326 0.57068 0.46477 0.0
C975 C 0.0671 0.60072 0.45619 0.0
C976 C 0.05348 0.6101 0.4353 0.0
C977 C 0.02613 0.58888 0.42274 0.0
C978 C 0.01211 0.55901 0.43164 0.0
H979 H 0.00418 0.47612 0.40334 0.0
H980 H 0.98765 0.49939 0.40078 0.0
H981 H 0.02719 0.51614 0.40754 0.0
H982 H 0.06393 0.56395 0.48121 0.0
H983 H 0.08814 0.61666 0.46627 0.0
H984 H 0.35828 0.45415 0.50583 0.0
H985 H 0.40884 0.47415 0.52538 0.0
H986 H 0.44079 0.46989 0.43878 0.0
H987 H 0.39027 0.44966 0.41907 0.0
H988 H 0.45332 0.43915 0.48357 0.0
H989 H 0.48655 0.55553 0.51649 0.0
H990 H 0.45047 0.52714 0.52942 0.0
H991 H 0.45676 0.53432 0.49062 0.0
C992 C 0.37622 0.45822 0.49081 0.0
C993 C 0.37036 0.45028 0.46096 0.0
C994 C 0.40507 0.46965 0.50201 0.0
C995 C 0.42845 0.47349 0.48347 0.0
C996 C 0.42296 0.46704 0.45338 0.0
H997 H 0.61254 0.52209 0.50539 0.0
H998 H 0.5608 0.49965 0.48872 0.0
C999 C 0.39415 0.45564 0.44216 0.0
C1000 C 0.45794 0.48161 0.49589 0.0
H1001 H 0.51795 0.53696 0.53205 0.0
C1002 C 0.46756 0.46057 0.4941 0.0
C1003 C 0.47617 0.50942 0.50979 0.0
C1004 C 0.46717 0.53306 0.51156 0.0
C1005 C 0.49501 0.46657 0.50607 0.0
C1006 C 0.5134 0.49451 0.51974 0.0
C1007 C 0.50365 0.51545 0.5217 0.0
C1008 C 0.5435 0.50327 0.531 0.0
C1009 C 0.50387 0.44282 0.50436 0.0
C1010 C 0.55079 0.51222 0.56042 0.0
C1011 C 0.58036 0.52521 0.56995 0.0
C1012 C 0.60309 0.52958 0.55013 0.0
C1013 C 0.59545 0.51886 0.52118 0.0
C1014 C 0.56588 0.50595 0.51164 0.0
H1015 H 0.4841 0.42015 0.50127 0.0
H1016 H 0.51897 0.44754 0.48524 0.0
H1017 H 0.51592 0.44269 0.52455 0.0
H1018 H 0.53379 0.51033 0.57566 0.0
H1019 H 0.58561 0.53328 0.5924 0.0
loop_
_geom_bond_atom_site_label_1
_geom_bond_atom_site_label_2
_geom_bond_distance
_geom_bond_site_symmetry_2
_ccdc_geom_bond_type
In0 O1 2.294 . S
In0 O2 2.326 . S
In0 O6 2.266 . S
In0 O7 2.326 . S
In0 O8 2.266 . S
In0 O9 2.326 . S
In0 O11 2.294 . S
In0 O12 2.326 . S
O1 In0 2.294 . S
O1 C10 1.240 . S
O2 In0 2.326 . S
O2 C10 1.252 . S
C3 O6 1.252 . S
C3 O7 1.260 . S
C4 O11 1.240 . S
C4 O12 1.252 . S
C5 O8 1.252 . S
C5 O9 1.260 . S
O6 In0 2.266 . S
O6 C3 1.252 . S
O7 In0 2.326 . S
O7 C3 1.260 . S
O8 In0 2.266 . S
O8 C5 1.252 . S
O9 In0 2.326 . S
O9 C5 1.260 . S
C10 O1 1.240 . S
C10 O2 1.252 . S
O11 In0 2.294 . S
O11 C4 1.240 . S
O12 In0 2.326 . S
O12 C4 1.252 . S
In13 O14 2.294 . S
In13 O15 2.326 . S
In13 O19 2.266 . S
In13 O20 2.326 . S
In13 O21 2.266 . S
In13 O22 2.326 . S
In13 O24 2.294 . S
In13 O25 2.326 . S
O14 In13 2.294 . S
O14 C23 1.240 . S
O15 In13 2.326 . S
O15 C23 1.252 . S
C16 O19 1.252 . S
C16 O20 1.260 . S
C17 O24 1.240 . S
C17 O25 1.252 . S
C18 O21 1.252 . S
C18 O22 1.260 . S
O19 In13 2.266 . S
O19 C16 1.252 . S
O20 In13 2.326 . S
O20 C16 1.260 . S
O21 In13 2.266 . S
O21 C18 1.252 . S
O22 In13 2.326 . S
O22 C18 1.260 . S
C23 O14 1.240 . S
C23 O15 1.252 . S
O24 In13 2.294 . S
O24 C17 1.240 . S
O25 In13 2.326 . S
O25 C17 1.252 . S
In26 O27 2.294 . S
In26 O28 2.326 . S
In26 O32 2.266 . S
In26 O33 2.326 . S
In26 O34 2.266 . S
In26 O35 2.326 . S
In26 O37 2.294 . S
In26 O38 2.326 . S
O27 In26 2.294 . S
O27 C36 1.240 . S
O28 In26 2.326 . S
O28 C36 1.252 . S
C29 O32 1.252 . S
C29 O33 1.260 . S
C30 O37 1.240 . S
C30 O38 1.252 . S
C31 O34 1.252 . S
C31 O35 1.260 . S
O32 In26 2.266 . S
O32 C29 1.252 . S
O33 In26 2.326 . S
O33 C29 1.260 . S
O34 In26 2.266 . S
O34 C31 1.252 . S
O35 In26 2.326 . S
O35 C31 1.260 . S
C36 O27 1.240 . S
C36 O28 1.252 . S
O37 In26 2.294 . S
O37 C30 1.240 . S
O38 In26 2.326 . S
O38 C30 1.252 . S
In39 O40 2.294 . S
In39 O41 2.326 . S
In39 O45 2.266 . S
In39 O46 2.326 . S
In39 O47 2.266 . S
In39 O48 2.326 . S
In39 O50 2.294 . S
In39 O51 2.326 . S
O40 In39 2.294 . S
O40 C49 1.240 . S
O41 In39 2.326 . S
O41 C49 1.252 . S
C42 O45 1.252 . S
C42 O46 1.260 . S
C43 O50 1.240 . S
C43 O51 1.252 . S
C44 O47 1.252 . S
C44 O48 1.260 . S
O45 In39 2.266 . S
O45 C42 1.252 . S
O46 In39 2.326 . S
O46 C42 1.260 . S
O47 In39 2.266 . S
O47 C44 1.252 . S
O48 In39 2.326 . S
O48 C44 1.260 . S
C49 O40 1.240 . S
C49 O41 1.252 . S
O50 In39 2.294 . S
O50 C43 1.240 . S
O51 In39 2.326 . S
O51 C43 1.252 . S
In52 O53 2.294 . S
In52 O54 2.326 . S
In52 O58 2.266 . S
In52 O59 2.326 . S
In52 O60 2.266 . S
In52 O61 2.326 . S
In52 O63 2.294 . S
In52 O64 2.326 . S
O53 In52 2.294 . S
O53 C62 1.240 . S
O54 In52 2.326 . S
O54 C62 1.252 . S
C55 O58 1.252 . S
C55 O59 1.260 . S
C56 O63 1.240 . S
C56 O64 1.252 . S
C57 O60 1.252 . S
C57 O61 1.260 . S
O58 In52 2.266 . S
O58 C55 1.252 . S
O59 In52 2.326 . S
O59 C55 1.260 . S
O60 In52 2.266 . S
O60 C57 1.252 . S
O61 In52 2.326 . S
O61 C57 1.260 . S
C62 O53 1.240 . S
C62 O54 1.252 . S
O63 In52 2.294 . S
O63 C56 1.240 . S
O64 In52 2.326 . S
O64 C56 1.252 . S
In65 O66 2.294 . S
In65 O67 2.326 . S
In65 O71 2.266 . S
In65 O72 2.326 . S
In65 O73 2.266 . S
In65 O74 2.326 . S
In65 O76 2.294 . S
In65 O77 2.326 . S
O66 In65 2.294 . S
O66 C75 1.240 . S
O67 In65 2.326 . S
O67 C75 1.252 . S
C68 O71 1.252 . S
C68 O72 1.260 . S
C69 O76 1.240 . S
C69 O77 1.252 . S
C70 O73 1.252 . S
C70 O74 1.260 . S
O71 In65 2.266 . S
O71 C68 1.252 . S
O72 In65 2.326 . S
O72 C68 1.260 . S
O73 In65 2.266 . S
O73 C70 1.252 . S
O74 In65 2.326 . S
O74 C70 1.260 . S
C75 O66 1.240 . S
C75 O67 1.252 . S
O76 In65 2.294 . S
O76 C69 1.240 . S
O77 In65 2.326 . S
O77 C69 1.252 . S
In78 O79 2.294 . S
In78 O80 2.326 . S
In78 O84 2.266 . S
In78 O85 2.326 . S
In78 O86 2.266 . S
In78 O87 2.326 . S
In78 O89 2.294 . S
In78 O90 2.326 . S
O79 In78 2.294 . S
O79 C88 1.240 . S
O80 In78 2.326 . S
O80 C88 1.252 . S
C81 O84 1.252 . S
C81 O85 1.260 . S
C82 O89 1.240 . S
C82 O90 1.252 . S
C83 O86 1.252 . S
C83 O87 1.260 . S
O84 In78 2.266 . S
O84 C81 1.252 . S
O85 In78 2.326 . S
O85 C81 1.260 . S
O86 In78 2.266 . S
O86 C83 1.252 . S
O87 In78 2.326 . S
O87 C83 1.260 . S
C88 O79 1.240 . S
C88 O80 1.252 . S
O89 In78 2.294 . S
O89 C82 1.240 . S
O90 In78 2.326 . S
O90 C82 1.252 . S
In91 O92 2.294 . S
In91 O93 2.326 . S
In91 O97 2.266 . S
In91 O98 2.326 . S
In91 O99 2.266 . S
In91 O100 2.326 . S
In91 O102 2.294 . S
In91 O103 2.326 . S
O92 In91 2.294 . S
O92 C101 1.240 . S
O93 In91 2.326 . S
O93 C101 1.252 . S
C94 O97 1.252 . S
C94 O98 1.260 . S
C95 O102 1.240 . S
C95 O103 1.252 . S
C96 O99 1.252 . S
C96 O100 1.260 . S
O97 In91 2.266 . S
O97 C94 1.252 . S
O98 In91 2.326 . S
O98 C94 1.260 . S
O99 In91 2.266 . S
O99 C96 1.252 . S
O100 In91 2.326 . S
O100 C96 1.260 . S
C101 O92 1.240 . S
C101 O93 1.252 . S
O102 In91 2.294 . S
O102 C95 1.240 . S
O103 In91 2.326 . S
O103 C95 1.252 . S
In104 O105 2.294 . S
In104 O106 2.326 . S
In104 O110 2.266 . S
In104 O111 2.326 . S
In104 O112 2.266 . S
In104 O113 2.326 . S
In104 O115 2.294 . S
In104 O116 2.326 . S
O105 In104 2.294 . S
O105 C114 1.240 . S
O106 In104 2.326 . S
O106 C114 1.252 . S
C107 O110 1.252 . S
C107 O111 1.260 . S
C108 O115 1.240 . S
C108 O116 1.252 . S
C109 O112 1.252 . S
C109 O113 1.260 . S
O110 In104 2.266 . S
O110 C107 1.252 . S
O111 In104 2.326 . S
O111 C107 1.260 . S
O112 In104 2.266 . S
O112 C109 1.252 . S
O113 In104 2.326 . S
O113 C109 1.260 . S
C114 O105 1.240 . S
C114 O106 1.252 . S
O115 In104 2.294 . S
O115 C108 1.240 . S
O116 In104 2.326 . S
O116 C108 1.252 . S
In117 O118 2.294 . S
In117 O119 2.326 . S
In117 O123 2.266 . S
In117 O124 2.326 . S
In117 O125 2.266 . S
In117 O126 2.326 . S
In117 O128 2.294 . S
In117 O129 2.326 . S
O118 In117 2.294 . S
O118 C127 1.240 . S
O119 In117 2.326 . S
O119 C127 1.252 . S
C120 O123 1.252 . S
C120 O124 1.260 . S
C121 O128 1.240 . S
C121 O129 1.252 . S
C122 O125 1.252 . S
C122 O126 1.260 . S
O123 In117 2.266 . S
O123 C120 1.252 . S
O124 In117 2.326 . S
O124 C120 1.260 . S
O125 In117 2.266 . S
O125 C122 1.252 . S
O126 In117 2.326 . S
O126 C122 1.260 . S
C127 O118 1.240 . S
C127 O119 1.252 . S
O128 In117 2.294 . S
O128 C121 1.240 . S
O129 In117 2.326 . S
O129 C121 1.252 . S
In130 O131 2.294 . S
In130 O132 2.326 . S
In130 O136 2.266 . S
In130 O137 2.326 . S
In130 O138 2.266 . S
In130 O139 2.326 . S
In130 O141 2.294 . S
In130 O142 2.326 . S
O131 In130 2.294 . S
O131 C140 1.240 . S
O132 In130 2.326 . S
O132 C140 1.252 . S
C133 O136 1.252 . S
C133 O137 1.260 . S
C134 O141 1.240 . S
C134 O142 1.252 . S
C135 O138 1.252 . S
C135 O139 1.260 . S
O136 In130 2.266 . S
O136 C133 1.252 . S
O137 In130 2.326 . S
O137 C133 1.260 . S
O138 In130 2.266 . S
O138 C135 1.252 . S
O139 In130 2.326 . S
O139 C135 1.260 . S
C140 O131 1.240 . S
C140 O132 1.252 . S
O141 In130 2.294 . S
O141 C134 1.240 . S
O142 In130 2.326 . S
O142 C134 1.252 . S
In143 O144 2.294 . S
In143 O145 2.326 . S
In143 O149 2.266 . S
In143 O150 2.326 . S
In143 O151 2.266 . S
In143 O152 2.326 . S
In143 O154 2.294 . S
In143 O155 2.326 . S
O144 In143 2.294 . S
O144 C153 1.240 . S
O145 In143 2.326 . S
O145 C153 1.252 . S
C146 O149 1.252 . S
C146 O150 1.260 . S
C147 O154 1.240 . S
C147 O155 1.252 . S
C148 O151 1.252 . S
C148 O152 1.260 . S
O149 In143 2.266 . S
O149 C146 1.252 . S
O150 In143 2.326 . S
O150 C146 1.260 . S
O151 In143 2.266 . S
O151 C148 1.252 . S
O152 In143 2.326 . S
O152 C148 1.260 . S
C153 O144 1.240 . S
C153 O145 1.252 . S
O154 In143 2.294 . S
O154 C147 1.240 . S
O155 In143 2.326 . S
O155 C147 1.252 . S
H156 C164 0.929 . S
H157 C166 0.930 . S
H158 C168 0.930 . S
H159 C171 0.929 1_556 S
H160 C174 0.930 . S
H161 C176 0.960 . S
H162 C176 0.958 . S
H163 C176 0.960 . S
C164 H156 0.929 . S
C164 C165 1.377 . S
C164 C166 1.384 . S
C165 C164 1.377 . S
C165 C171 1.390 . S
C166 H157 0.930 . S
C166 C164 1.384 . S
C166 C167 1.372 . S
C167 C166 1.372 . S
C167 C168 1.400 1_554 S
C167 C172 1.490 . S
C168 H158 0.930 . S
C168 C167 1.400 1_556 S
C168 C171 1.386 1_556 S
H169 C185 0.930 . S
H170 C186 0.931 . S
C171 H159 0.929 1_554 S
C171 C165 1.390 . S
C171 C168 1.386 1_554 S
C172 C167 1.490 . S
C172 C174 1.395 . S
C172 C175 1.403 1_554 S
H173 C179 0.930 . S
C174 H160 0.930 . S
C174 C172 1.395 . S
C174 C177 1.403 . S
C175 C172 1.403 1_556 S
C175 C176 1.524 . S
C175 C179 1.400 . S
C176 H161 0.960 . S
C176 H162 0.958 . S
C176 H163 0.960 . S
C176 C175 1.524 . S
C177 C174 1.403 . S
C177 C178 1.392 1_554 S
C177 C181 1.495 . S
C178 C177 1.392 1_556 S
C178 C179 1.385 . S
C178 C180 1.478 . S
C179 H173 0.930 . S
C179 C175 1.400 . S
C179 C178 1.385 . S
C180 C178 1.478 . S
C180 C182 1.381 1_556 S
C180 C186 1.383 . S
C181 C177 1.495 . S
C181 H187 0.959 . S
C181 H188 0.961 . S
C181 H189 0.960 . S
C182 C180 1.381 1_554 S
C182 C183 1.394 1_554 S
C182 H190 0.930 . S
C183 C182 1.394 1_556 S
C183 C184 1.383 . S
C183 H191 0.929 1_556 S
C184 C183 1.383 . S
C184 C185 1.377 . S
C185 H169 0.930 . S
C185 C184 1.377 . S
C185 C186 1.379 . S
C186 H170 0.931 . S
C186 C180 1.383 . S
C186 C185 1.379 . S
H187 C181 0.959 . S
H188 C181 0.961 . S
H189 C181 0.960 . S
H190 C182 0.930 . S
H191 C183 0.929 1_554 S
H192 C200 0.929 . S
H193 C202 0.930 . S
H194 C204 0.930 . S
H195 C207 0.929 1_556 S
H196 C210 0.930 . S
H197 C212 0.960 . S
H198 C212 0.960 1_554 S
H199 C212 0.960 . S
C200 H192 0.929 . S
C200 C201 1.377 . S
C200 C202 1.384 . S
C201 C200 1.377 . S
C201 C207 1.390 . S
C202 H193 0.930 . S
C202 C200 1.384 . S
C202 C203 1.372 . S
C203 C202 1.372 . S
C203 C204 1.400 1_554 S
C203 C208 1.490 . S
C204 H194 0.930 . S
C204 C203 1.400 1_556 S
C204 C207 1.386 1_556 S
H205 C221 0.930 . S
H206 C222 0.931 . S
C207 H195 0.929 1_554 S
C207 C201 1.390 . S
C207 C204 1.386 1_554 S
C208 C203 1.490 . S
C208 C210 1.395 . S
C208 C211 1.403 1_554 S
H209 C215 0.930 . S
C210 H196 0.930 . S
C210 C208 1.395 . S
C210 C213 1.403 . S
C211 C208 1.403 1_556 S
C211 C212 1.524 . S
C211 C215 1.400 . S
C212 H197 0.960 . S
C212 H198 0.960 1_556 S
C212 H199 0.960 . S
C212 C211 1.524 . S
C213 C210 1.403 . S
C213 C214 1.392 1_554 S
C213 C217 1.495 . S
C214 C213 1.392 1_556 S
C214 C215 1.385 . S
C214 C216 1.478 . S
C215 H209 0.930 . S
C215 C211 1.400 . S
C215 C214 1.385 . S
C216 C214 1.478 . S
C216 C218 1.381 1_556 S
C216 C222 1.383 . S
C217 C213 1.495 . S
C217 H223 0.959 . S
C217 H224 0.961 1_554 S
C217 H225 0.960 . S
C218 C216 1.381 1_554 S
C218 C219 1.394 1_564 S
C218 H226 0.930 . S
C219 C218 1.394 1_546 S
C219 C220 1.383 . S
C219 H227 0.929 1_556 S
C220 C219 1.383 . S
C220 C221 1.377 1_545 S
C221 H205 0.930 . S
C221 C220 1.377 1_565 S
C221 C222 1.379 . S
C222 H206 0.931 . S
C222 C216 1.383 . S
C222 C221 1.379 . S
H223 C217 0.959 . S
H224 C217 0.961 1_556 S
H225 C217 0.960 . S
H226 C218 0.930 . S
H227 C219 0.929 1_554 S
H228 C236 0.939 . S
H229 C238 0.930 1_556 S
H230 C240 0.930 . S
H231 C243 0.929 . S
H232 C246 0.930 . S
H233 C248 0.960 . S
H234 C248 0.960 . S
H235 C248 0.960 1_554 S
C236 H228 0.939 . S
C236 C237 1.377 . S
C236 C238 1.384 . S
C237 C236 1.377 . S
C237 C243 1.390 . S
C238 H229 0.930 1_554 S
C238 C236 1.384 . S
C238 C239 1.372 . S
C239 C238 1.372 . S
C239 C240 1.400 . S
C239 C244 1.490 . S
C240 H230 0.930 . S
C240 C239 1.400 . S
C240 C243 1.386 . S
H241 C257 0.930 1_554 S
H242 C258 0.908 1_554 S
C243 H231 0.929 . S
C243 C237 1.390 . S
C243 C240 1.386 . S
C244 C239 1.490 . S
C244 C246 1.395 . S
C244 C247 1.403 1_554 S
H245 C251 0.930 . S
C246 H232 0.930 . S
C246 C244 1.395 . S
C246 C249 1.400 1_554 S
C247 C244 1.403 1_556 S
C247 C248 1.524 . S
C247 C251 1.400 . S
C248 H233 0.960 . S
C248 H234 0.960 . S
C248 H235 0.960 1_556 S
C248 C247 1.524 . S
C249 C246 1.400 1_556 S
C249 C250 1.396 . S
C249 C253 1.495 1_556 S
C250 C249 1.396 . S
C250 C251 1.385 . S
C250 C252 1.478 . S
C251 H245 0.930 . S
C251 C247 1.400 . S
C251 C250 1.385 . S
C252 C250 1.478 . S
C252 C254 1.381 . S
C252 C258 1.398 . S
C253 C249 1.495 1_554 S
C253 H259 0.959 . S
C253 H260 0.961 . S
C253 H261 0.960 1_554 S
C254 C252 1.381 . S
C254 C255 1.394 . S
C254 H262 0.930 . S
C255 C254 1.394 . S
C255 C256 1.383 1_455 S
C255 H263 0.929 . S
C256 C255 1.383 1_655 S
C256 C257 1.377 . S
C257 H241 0.930 1_556 S
C257 C256 1.377 . S
C257 C258 1.388 1_655 S
C258 H242 0.908 1_556 S
C258 C252 1.398 . S
C258 C257 1.388 1_455 S
H259 C253 0.959 . S
H260 C253 0.961 . S
H261 C253 0.960 1_556 S
H262 C254 0.930 . S
H263 C255 0.929 . S
H264 C272 0.929 . S
H265 C274 0.930 . S
H266 C276 0.930 . S
H267 C279 0.929 . S
H268 C282 0.930 . S
H269 C284 0.960 . S
H270 C284 0.960 . S
H271 C284 0.960 . S
C272 H264 0.929 . S
C272 C273 1.377 . S
C272 C274 1.384 . S
C273 C272 1.377 . S
C273 C279 1.390 . S
C274 H265 0.930 . S
C274 C272 1.384 . S
C274 C275 1.372 . S
C275 C274 1.372 . S
C275 C276 1.400 . S
C275 C280 1.490 . S
C276 H266 0.930 . S
C276 C275 1.400 . S
C276 C279 1.386 . S
H277 C293 0.930 . S
H278 C294 0.931 . S
C279 H267 0.929 . S
C279 C273 1.390 . S
C279 C276 1.386 . S
C280 C275 1.490 . S
C280 C282 1.395 . S
C280 C283 1.403 . S
H281 C287 0.930 . S
C282 H268 0.930 . S
C282 C280 1.395 . S
C282 C285 1.403 . S
C283 C280 1.403 . S
C283 C284 1.524 . S
C283 C287 1.400 . S
C284 H269 0.960 . S
C284 H270 0.960 . S
C284 H271 0.960 . S
C284 C283 1.524 . S
C285 C282 1.403 . S
C285 C286 1.392 . S
C285 C289 1.495 . S
C286 C285 1.392 . S
C286 C287 1.385 . S
C286 C288 1.478 . S
C287 H281 0.930 . S
C287 C283 1.400 . S
C287 C286 1.385 . S
C288 C286 1.478 . S
C288 C290 1.381 . S
C288 C294 1.383 . S
C289 C285 1.495 . S
C289 H295 0.959 . S
C289 H296 0.961 . S
C289 H297 0.960 . S
C290 C288 1.381 . S
C290 C291 1.394 . S
C290 H298 0.930 . S
C291 C290 1.394 . S
C291 C292 1.383 . S
C291 H299 0.929 . S
C292 C291 1.383 . S
C292 C293 1.377 . S
C293 H277 0.930 . S
C293 C292 1.377 . S
C293 C294 1.379 . S
C294 H278 0.931 . S
C294 C288 1.383 . S
C294 C293 1.379 . S
H295 C289 0.959 . S
H296 C289 0.961 . S
H297 C289 0.960 . S
H298 C290 0.930 . S
H299 C291 0.929 . S
H300 C308 0.929 . S
H301 C310 0.930 . S
H302 C312 0.930 . S
H303 C315 0.929 . S
H304 C318 0.930 . S
H305 C320 0.960 . S
H306 C320 0.960 . S
H307 C320 0.960 . S
C308 H300 0.929 . S
C308 C309 1.377 . S
C308 C310 1.384 . S
C309 C308 1.377 . S
C309 C315 1.390 . S
C310 H301 0.930 . S
C310 C308 1.384 . S
C310 C311 1.372 . S
C311 C310 1.372 . S
C311 C312 1.400 . S
C311 C316 1.490 . S
C312 H302 0.930 . S
C312 C311 1.400 . S
C312 C315 1.386 . S
H313 C329 0.930 . S
H314 C330 0.931 . S
C315 H303 0.929 . S
C315 C309 1.390 . S
C315 C312 1.386 . S
C316 C311 1.490 . S
C316 C318 1.395 . S
C316 C319 1.403 . S
H317 C323 0.930 . S
C318 H304 0.930 . S
C318 C316 1.395 . S
C318 C321 1.403 . S
C319 C316 1.403 . S
C319 C320 1.524 . S
C319 C323 1.400 . S
C320 H305 0.960 . S
C320 H306 0.960 . S
C320 H307 0.960 . S
C320 C319 1.524 . S
C321 C318 1.403 . S
C321 C322 1.392 . S
C321 C325 1.495 . S
C322 C321 1.392 . S
C322 C323 1.385 . S
C322 C324 1.478 . S
C323 H317 0.930 . S
C323 C319 1.400 . S
C323 C322 1.385 . S
C324 C322 1.478 . S
C324 C326 1.381 . S
C324 C330 1.383 . S
C325 C321 1.495 . S
C325 H331 0.959 . S
C325 H332 0.961 . S
C325 H333 0.960 . S
C326 C324 1.381 . S
C326 C327 1.394 . S
C326 H334 0.930 . S
C327 C326 1.394 . S
C327 C328 1.383 1_565 S
C327 H335 0.929 . S
C328 C327 1.383 1_545 S
C328 C329 1.377 . S
C329 H313 0.930 . S
C329 C328 1.377 . S
C329 C330 1.379 1_545 S
C330 H314 0.931 . S
C330 C324 1.383 . S
C330 C329 1.379 1_565 S
H331 C325 0.959 . S
H332 C325 0.961 . S
H333 C325 0.960 . S
H334 C326 0.930 . S
H335 C327 0.929 . S
H336 C344 0.929 . S
H337 C346 0.930 . S
H338 C348 0.930 . S
H339 C351 0.929 . S
H340 C354 0.930 . S
H341 C356 0.960 . S
H342 C356 0.960 . S
H343 C356 0.960 . S
C344 H336 0.929 . S
C344 C345 1.377 . S
C344 C346 1.384 1_655 S
C345 C344 1.377 . S
C345 C351 1.390 1_655 S
C346 H337 0.930 . S
C346 C344 1.384 1_455 S
C346 C347 1.372 . S
C347 C346 1.372 . S
C347 C348 1.400 . S
C347 C352 1.490 . S
C348 H338 0.930 . S
C348 C347 1.400 . S
C348 C351 1.386 . S
H349 C365 0.930 . S
H350 C366 0.931 . S
C351 H339 0.929 . S
C351 C345 1.390 1_455 S
C351 C348 1.386 . S
C352 C347 1.490 . S
C352 C354 1.395 . S
C352 C355 1.403 . S
H353 C359 0.930 . S
C354 H340 0.930 . S
C354 C352 1.395 . S
C354 C357 1.403 . S
C355 C352 1.403 . S
C355 C356 1.524 . S
C355 C359 1.400 . S
C356 H341 0.960 . S
C356 H342 0.960 . S
C356 H343 0.960 . S
C356 C355 1.524 . S
C357 C354 1.403 . S
C357 C358 1.392 . S
C357 C361 1.495 . S
C358 C357 1.392 . S
C358 C359 1.385 . S
C358 C360 1.478 . S
C359 H353 0.930 . S
C359 C355 1.400 . S
C359 C358 1.385 . S
C360 C358 1.478 . S
C360 C362 1.381 . S
C360 C366 1.383 . S
C361 C357 1.495 . S
C361 H367 0.959 . S
C361 H368 0.961 . S
C361 H369 0.960 . S
C362 C360 1.381 . S
C362 C363 1.394 . S
C362 H370 0.930 . S
C363 C362 1.394 . S
C363 C364 1.383 . S
C363 H371 0.929 . S
C364 C363 1.383 . S
C364 C365 1.377 . S
C365 H349 0.930 . S
C365 C364 1.377 . S
C365 C366 1.379 . S
C366 H350 0.931 . S
C366 C360 1.383 . S
C366 C365 1.379 . S
H367 C361 0.959 . S
H368 C361 0.961 . S
H369 C361 0.960 . S
H370 C362 0.930 . S
H371 C363 0.929 . S
H372 C380 0.929 . S
H373 C382 0.930 1_556 S
H374 C384 0.930 . S
H375 C387 0.929 . S
H376 C390 0.930 . S
H377 C392 0.960 . S
H378 C392 0.960 . S
H379 C392 0.960 . S
C380 H372 0.929 . S
C380 C381 1.377 . S
C380 C382 1.384 . S
C381 C380 1.377 . S
C381 C387 1.390 . S
C382 H373 0.930 1_554 S
C382 C380 1.384 . S
C382 C383 1.372 . S
C383 C382 1.372 . S
C383 C384 1.400 . S
C383 C388 1.490 . S
C384 H374 0.930 . S
C384 C383 1.400 . S
C384 C387 1.386 . S
H385 C401 0.930 . S
H386 C402 0.931 1_554 S
C387 H375 0.929 . S
C387 C381 1.390 . S
C387 C384 1.386 . S
C388 C383 1.490 . S
C388 C390 1.395 . S
C388 C391 1.403 1_554 S
H389 C395 0.930 . S
C390 H376 0.930 . S
C390 C388 1.395 . S
C390 C393 1.403 . S
C391 C388 1.403 1_556 S
C391 C392 1.524 . S
C391 C395 1.400 . S
C392 H377 0.960 . S
C392 H378 0.960 . S
C392 H379 0.960 . S
C392 C391 1.524 . S
C393 C390 1.403 . S
C393 C394 1.392 1_554 S
C393 C397 1.495 . S
C394 C393 1.392 1_556 S
C394 C395 1.385 . S
C394 C396 1.478 . S
C395 H389 0.930 . S
C395 C391 1.400 . S
C395 C394 1.385 . S
C396 C394 1.478 . S
C396 C398 1.381 . S
C396 C402 1.383 . S
C397 C393 1.495 . S
C397 H403 0.959 . S
C397 H404 0.961 . S
C397 H405 0.960 . S
C398 C396 1.381 . S
C398 C399 1.394 . S
C398 H406 0.930 . S
C399 C398 1.394 . S
C399 C400 1.383 . S
C399 H407 0.929 . S
C400 C399 1.383 . S
C400 C401 1.377 . S
C401 H385 0.930 . S
C401 C400 1.377 . S
C401 C402 1.379 . S
C402 H386 0.931 1_556 S
C402 C396 1.383 . S
C402 C401 1.379 . S
H403 C397 0.959 . S
H404 C397 0.961 . S
H405 C397 0.960 . S
H406 C398 0.930 . S
H407 C399 0.929 . S
H408 C416 0.929 . S
H409 C418 0.930 . S
H410 C420 0.930 . S
H411 C423 0.929 1_554 S
H412 C426 0.930 . S
H413 C428 0.960 . S
H414 C428 0.960 1_556 S
H415 C428 0.960 . S
C416 H408 0.929 . S
C416 C417 1.377 . S
C416 C418 1.384 . S
C417 C416 1.377 . S
C417 C423 1.390 . S
C418 H409 0.930 . S
C418 C416 1.384 . S
C418 C419 1.372 . S
C419 C418 1.372 . S
C419 C420 1.400 1_556 S
C419 C424 1.490 . S
C420 H410 0.930 . S
C420 C419 1.400 1_554 S
C420 C423 1.386 1_554 S
H421 C437 0.930 . S
H422 C438 0.931 . S
C423 H411 0.929 1_556 S
C423 C417 1.390 . S
C423 C420 1.386 1_556 S
C424 C419 1.490 . S
C424 C426 1.395 . S
C424 C427 1.403 1_556 S
H425 C431 0.930 . S
C426 H412 0.930 . S
C426 C424 1.395 . S
C426 C429 1.403 . S
C427 C424 1.403 1_554 S
C427 C428 1.524 . S
C427 C431 1.400 . S
C428 H413 0.960 . S
C428 H414 0.960 1_554 S
C428 H415 0.960 . S
C428 C427 1.524 . S
C429 C426 1.403 . S
C429 C430 1.392 1_556 S
C429 C433 1.495 . S
C430 C429 1.392 1_554 S
C430 C431 1.385 . S
C430 C432 1.478 . S
C431 H425 0.930 . S
C431 C427 1.400 . S
C431 C430 1.385 . S
C432 C430 1.478 . S
C432 C434 1.381 1_554 S
C432 C438 1.383 . S
C433 C429 1.495 . S
C433 H439 0.959 . S
C433 H440 0.961 1_556 S
C433 H441 0.960 . S
C434 C432 1.381 1_556 S
C434 C435 1.394 1_546 S
C434 H442 0.930 . S
C435 C434 1.394 1_564 S
C435 C436 1.383 . S
C435 H443 0.929 1_554 S
C436 C435 1.383 . S
C436 C437 1.377 1_565 S
C437 H421 0.930 . S
C437 C436 1.377 1_545 S
C437 C438 1.379 . S
C438 H422 0.931 . S
C438 C432 1.383 . S
C438 C437 1.379 . S
H439 C433 0.959 . S
H440 C433 0.961 1_554 S
H441 C433 0.960 . S
H442 C434 0.930 . S
H443 C435 0.929 1_556 S
H444 C452 0.921 1_556 S
H445 C454 0.930 1_556 S
H446 C456 0.930 . S
H447 C459 0.929 . S
H448 C462 0.930 . S
H449 C464 0.960 . S
H450 C464 0.960 . S
H451 C464 0.960 1_554 S
C452 H444 0.921 1_554 S
C452 C453 1.377 . S
C452 C454 1.384 1_455 S
C453 C452 1.377 . S
C453 C459 1.390 1_455 S
C454 H445 0.930 1_554 S
C454 C452 1.384 1_655 S
C454 C455 1.372 . S
C455 C454 1.372 . S
C455 C456 1.400 . S
C455 C460 1.490 . S
C456 H446 0.930 . S
C456 C455 1.400 . S
C456 C459 1.386 . S
H457 C473 0.930 1_554 S
H458 C474 0.938 . S
C459 H447 0.929 . S
C459 C453 1.390 1_655 S
C459 C456 1.386 . S
C460 C455 1.490 . S
C460 C462 1.395 . S
C460 C463 1.403 1_554 S
H461 C467 0.930 . S
C462 H448 0.930 . S
C462 C460 1.395 . S
C462 C465 1.403 1_554 S
C463 C460 1.403 1_556 S
C463 C464 1.524 . S
C463 C467 1.400 . S
C464 H449 0.960 . S
C464 H450 0.960 . S
C464 H451 0.960 1_556 S
C464 C463 1.524 . S
C465 C462 1.403 1_556 S
C465 C466 1.392 . S
C465 C469 1.495 . S
C466 C465 1.392 . S
C466 C467 1.385 . S
C466 C468 1.478 . S
C467 H461 0.930 . S
C467 C463 1.400 . S
C467 C466 1.385 . S
C468 C466 1.478 . S
C468 C470 1.381 . S
C468 C474 1.378 1_556 S
C469 C465 1.495 . S
C469 H475 0.959 1_556 S
C469 H476 0.961 1_556 S
C469 H477 0.960 . S
C470 C468 1.381 . S
C470 C471 1.394 . S
C470 H478 0.930 . S
C471 C470 1.394 . S
C471 C472 1.383 . S
C471 H479 0.929 . S
C472 C471 1.383 . S
C472 C473 1.377 . S
C473 H457 0.930 1_556 S
C473 C472 1.377 . S
C473 C474 1.377 1_556 S
C474 H458 0.938 . S
C474 C468 1.378 1_554 S
C474 C473 1.377 1_554 S
H475 C469 0.959 1_554 S
H476 C469 0.961 1_554 S
H477 C469 0.960 . S
H478 C470 0.930 . S
H479 C471 0.929 . S
H480 C488 0.929 . S
H481 C490 0.930 . S
H482 C492 0.930 . S
H483 C495 0.929 . S
H484 C498 0.930 . S
H485 C500 0.960 . S
H486 C500 0.960 . S
H487 C500 0.960 . S
C488 H480 0.929 . S
C488 C489 1.377 . S
C488 C490 1.384 . S
C489 C488 1.377 . S
C489 C495 1.390 . S
C490 H481 0.930 . S
C490 C488 1.384 . S
C490 C491 1.372 . S
C491 C490 1.372 . S
C491 C492 1.400 . S
C491 C496 1.490 . S
C492 H482 0.930 . S
C492 C491 1.400 . S
C492 C495 1.386 . S
H493 C509 0.930 . S
H494 C510 0.931 . S
C495 H483 0.929 . S
C495 C489 1.390 . S
C495 C492 1.386 . S
C496 C491 1.490 . S
C496 C498 1.395 . S
C496 C499 1.403 . S
H497 C503 0.930 . S
C498 H484 0.930 . S
C498 C496 1.395 . S
C498 C501 1.403 . S
C499 C496 1.403 . S
C499 C500 1.524 . S
C499 C503 1.400 . S
C500 H485 0.960 . S
C500 H486 0.960 . S
C500 H487 0.960 . S
C500 C499 1.524 . S
C501 C498 1.403 . S
C501 C502 1.392 . S
C501 C505 1.495 . S
C502 C501 1.392 . S
C502 C503 1.385 . S
C502 C504 1.478 . S
C503 H497 0.930 . S
C503 C499 1.400 . S
C503 C502 1.385 . S
C504 C502 1.478 . S
C504 C506 1.381 . S
C504 C510 1.383 . S
C505 C501 1.495 . S
C505 H511 0.959 . S
C505 H512 0.961 . S
C505 H513 0.960 . S
C506 C504 1.381 . S
C506 C507 1.394 . S
C506 H514 0.930 . S
C507 C506 1.394 . S
C507 C508 1.383 . S
C507 H515 0.929 . S
C508 C507 1.383 . S
C508 C509 1.377 . S
C509 H493 0.930 . S
C509 C508 1.377 . S
C509 C510 1.379 . S
C510 H494 0.931 . S
C510 C504 1.383 . S
C510 C509 1.379 . S
H511 C505 0.959 . S
H512 C505 0.961 . S
H513 C505 0.960 . S
H514 C506 0.930 . S
H515 C507 0.929 . S
H516 C524 0.929 . S
H517 C526 0.930 . S
H518 C528 0.930 . S
H519 C531 0.929 . S
H520 C534 0.930 . S
H521 C536 0.960 . S
H522 C536 0.960 . S
H523 C536 0.960 . S
C524 H516 0.929 . S
C524 C525 1.377 . S
C524 C526 1.384 . S
C525 C524 1.377 . S
C525 C531 1.390 . S
C526 H517 0.930 . S
C526 C524 1.384 . S
C526 C527 1.372 . S
C527 C526 1.372 . S
C527 C528 1.400 . S
C527 C532 1.490 . S
C528 H518 0.930 . S
C528 C527 1.400 . S
C528 C531 1.386 . S
H529 C545 0.930 . S
H530 C546 0.931 . S
C531 H519 0.929 . S
C531 C525 1.390 . S
C531 C528 1.386 . S
C532 C527 1.490 . S
C532 C534 1.395 . S
C532 C535 1.403 . S
H533 C539 0.930 . S
C534 H520 0.930 . S
C534 C532 1.395 . S
C534 C537 1.403 . S
C535 C532 1.403 . S
C535 C536 1.524 . S
C535 C539 1.400 . S
C536 H521 0.960 . S
C536 H522 0.960 . S
C536 H523 0.960 . S
C536 C535 1.524 . S
C537 C534 1.403 . S
C537 C538 1.392 . S
C537 C541 1.495 . S
C538 C537 1.392 . S
C538 C539 1.385 . S
C538 C540 1.478 . S
C539 H533 0.930 . S
C539 C535 1.400 . S
C539 C538 1.385 . S
C540 C538 1.478 . S
C540 C542 1.381 . S
C540 C546 1.383 . S
C541 C537 1.495 . S
C541 H547 0.959 . S
C541 H548 0.961 . S
C541 H549 0.960 . S
C542 C540 1.381 . S
C542 C543 1.394 1_545 S
C542 H550 0.930 . S
C543 C542 1.394 1_565 S
C543 C544 1.383 . S
C543 H551 0.929 . S
C544 C543 1.383 . S
C544 C545 1.377 1_565 S
C545 H529 0.930 . S
C545 C544 1.377 1_545 S
C545 C546 1.379 . S
C546 H530 0.931 . S
C546 C540 1.383 . S
C546 C545 1.379 . S
H547 C541 0.959 . S
H548 C541 0.961 . S
H549 C541 0.960 . S
H550 C542 0.930 . S
H551 C543 0.929 . S
H552 C560 0.954 . S
H553 C562 0.930 . S
H554 C564 0.930 . S
H555 C567 0.929 . S
H556 C570 0.930 . S
H557 C572 0.960 . S
H558 C572 0.960 . S
H559 C572 0.960 . S
C560 H552 0.954 . S
C560 C561 1.377 1_655 S
C560 C562 1.384 . S
C561 C560 1.377 1_455 S
C561 C567 1.390 . S
C562 H553 0.930 . S
C562 C560 1.384 . S
C562 C563 1.372 . S
C563 C562 1.372 . S
C563 C564 1.400 . S
C563 C568 1.490 . S
C564 H554 0.930 . S
C564 C563 1.400 . S
C564 C567 1.386 1_655 S
H565 C581 0.930 . S
H566 C582 0.931 . S
C567 H555 0.929 . S
C567 C561 1.390 . S
C567 C564 1.386 1_455 S
C568 C563 1.490 . S
C568 C570 1.395 . S
C568 C571 1.403 . S
H569 C575 0.930 . S
C570 H556 0.930 . S
C570 C568 1.395 . S
C570 C573 1.403 . S
C571 C568 1.403 . S
C571 C572 1.524 . S
C571 C575 1.400 . S
C572 H557 0.960 . S
C572 H558 0.960 . S
C572 H559 0.960 . S
C572 C571 1.524 . S
C573 C570 1.403 . S
C573 C574 1.392 . S
C573 C577 1.495 . S
C574 C573 1.392 . S
C574 C575 1.385 . S
C574 C576 1.478 . S
C575 H569 0.930 . S
C575 C571 1.400 . S
C575 C574 1.385 . S
C576 C574 1.478 . S
C576 C578 1.381 . S
C576 C582 1.383 . S
C577 C573 1.495 . S
C577 H583 0.959 . S
C577 H584 0.961 . S
C577 H585 0.960 . S
C578 C576 1.381 . S
C578 C579 1.394 . S
C578 H586 0.930 . S
C579 C578 1.394 . S
C579 C580 1.383 . S
C579 H587 0.929 . S
C580 C579 1.383 . S
C580 C581 1.377 . S
C581 H565 0.930 . S
C581 C580 1.377 . S
C581 C582 1.379 . S
C582 H566 0.931 . S
C582 C576 1.383 . S
C582 C581 1.379 . S
H583 C577 0.959 . S
H584 C577 0.961 . S
H585 C577 0.960 . S
H586 C578 0.930 . S
H587 C579 0.929 . S
H588 C596 0.929 . S
H589 C598 0.930 . S
H590 C600 0.930 . S
H591 C603 0.929 . S
H592 C606 0.930 . S
H593 C608 0.960 . S
H594 C608 0.960 . S
H595 C608 0.960 . S
C596 H588 0.929 . S
C596 C597 1.377 . S
C596 C598 1.384 . S
C597 C596 1.377 . S
C597 C603 1.390 . S
C598 H589 0.930 . S
C598 C596 1.384 . S
C598 C599 1.372 . S
C599 C598 1.372 . S
C599 C600 1.400 . S
C599 C604 1.490 . S
C600 H590 0.930 . S
C600 C599 1.400 . S
C600 C603 1.386 . S
H601 C617 0.930 . S
H602 C618 0.931 . S
C603 H591 0.929 . S
C603 C597 1.390 . S
C603 C600 1.386 . S
C604 C599 1.490 . S
C604 C606 1.395 . S
C604 C607 1.403 . S
H605 C611 0.930 . S
C606 H592 0.930 . S
C606 C604 1.395 . S
C606 C609 1.403 . S
C607 C604 1.403 . S
C607 C608 1.524 . S
C607 C611 1.400 . S
C608 H593 0.960 . S
C608 H594 0.960 . S
C608 H595 0.960 . S
C608 C607 1.524 . S
C609 C606 1.403 . S
C609 C610 1.392 . S
C609 C613 1.495 . S
C610 C609 1.392 . S
C610 C611 1.385 . S
C610 C612 1.478 . S
C611 H605 0.930 . S
C611 C607 1.400 . S
C611 C610 1.385 . S
C612 C610 1.478 . S
C612 C614 1.381 . S
C612 C618 1.383 . S
C613 C609 1.495 . S
C613 H619 0.959 . S
C613 H620 0.961 . S
C613 H621 0.960 . S
C614 C612 1.381 . S
C614 C615 1.394 . S
C614 H622 0.930 . S
C615 C614 1.394 . S
C615 C616 1.383 . S
C615 H623 0.929 . S
C616 C615 1.383 . S
C616 C617 1.377 . S
C617 H601 0.930 . S
C617 C616 1.377 . S
C617 C618 1.379 . S
C618 H602 0.931 . S
C618 C612 1.383 . S
C618 C617 1.379 . S
H619 C613 0.959 . S
H620 C613 0.961 . S
H621 C613 0.960 . S
H622 C614 0.930 . S
H623 C615 0.929 . S
H624 C632 0.929 . S
H625 C634 0.930 . S
H626 C636 0.930 . S
H627 C639 0.929 . S
H628 C642 0.930 . S
H629 C644 0.960 . S
H630 C644 0.960 . S
H631 C644 0.960 . S
C632 H624 0.929 . S
C632 C633 1.377 . S
C632 C634 1.384 . S
C633 C632 1.377 . S
C633 C639 1.390 . S
C634 H625 0.930 . S
C634 C632 1.384 . S
C634 C635 1.372 . S
C635 C634 1.372 . S
C635 C636 1.400 . S
C635 C640 1.490 . S
C636 H626 0.930 . S
C636 C635 1.400 . S
C636 C639 1.386 . S
H637 C653 0.930 . S
H638 C654 0.931 . S
C639 H627 0.929 . S
C639 C633 1.390 . S
C639 C636 1.386 . S
C640 C635 1.490 . S
C640 C642 1.395 . S
C640 C643 1.403 . S
H641 C647 0.930 . S
C642 H628 0.930 . S
C642 C640 1.395 . S
C642 C645 1.403 . S
C643 C640 1.403 . S
C643 C644 1.524 . S
C643 C647 1.400 . S
C644 H629 0.960 . S
C644 H630 0.960 . S
C644 H631 0.960 . S
C644 C643 1.524 . S
C645 C642 1.403 . S
C645 C646 1.392 . S
C645 C649 1.495 . S
C646 C645 1.392 . S
C646 C647 1.385 . S
C646 C648 1.478 . S
C647 H641 0.930 . S
C647 C643 1.400 . S
C647 C646 1.385 . S
C648 C646 1.478 . S
C648 C650 1.381 . S
C648 C654 1.383 . S
C649 C645 1.495 . S
C649 H655 0.959 . S
C649 H656 0.961 . S
C649 H657 0.960 . S
C650 C648 1.381 . S
C650 C651 1.394 . S
C650 H658 0.930 . S
C651 C650 1.394 . S
C651 C652 1.383 . S
C651 H659 0.929 . S
C652 C651 1.383 . S
C652 C653 1.377 . S
C653 H637 0.930 . S
C653 C652 1.377 . S
C653 C654 1.379 . S
C654 H638 0.931 . S
C654 C648 1.383 . S
C654 C653 1.379 . S
H655 C649 0.959 . S
H656 C649 0.961 . S
H657 C649 0.960 . S
H658 C650 0.930 . S
H659 C651 0.929 . S
H660 C668 0.929 . S
H661 C670 0.930 . S
H662 C672 0.930 . S
H663 C675 0.929 . S
H664 C678 0.930 . S
H665 C680 0.960 . S
H666 C680 0.960 . S
H667 C680 0.960 . S
C668 H660 0.929 . S
C668 C669 1.377 . S
C668 C670 1.384 . S
C669 C668 1.377 . S
C669 C675 1.390 . S
C670 H661 0.930 . S
C670 C668 1.384 . S
C670 C671 1.372 . S
C671 C670 1.372 . S
C671 C672 1.400 . S
C671 C676 1.490 . S
C672 H662 0.930 . S
C672 C671 1.400 . S
C672 C675 1.386 . S
H673 C689 0.930 . S
H674 C690 0.931 . S
C675 H663 0.929 . S
C675 C669 1.390 . S
C675 C672 1.386 . S
C676 C671 1.490 . S
C676 C678 1.395 . S
C676 C679 1.403 . S
H677 C683 0.930 . S
C678 H664 0.930 . S
C678 C676 1.395 . S
C678 C681 1.403 . S
C679 C676 1.403 . S
C679 C680 1.524 . S
C679 C683 1.400 . S
C680 H665 0.960 . S
C680 H666 0.960 . S
C680 H667 0.960 . S
C680 C679 1.524 . S
C681 C678 1.403 . S
C681 C682 1.392 . S
C681 C685 1.495 . S
C682 C681 1.392 . S
C682 C683 1.385 . S
C682 C684 1.478 . S
C683 H677 0.930 . S
C683 C679 1.400 . S
C683 C682 1.385 . S
C684 C682 1.478 . S
C684 C686 1.381 . S
C684 C690 1.383 . S
C685 C681 1.495 . S
C685 H691 0.959 . S
C685 H692 0.961 . S
C685 H693 0.960 . S
C686 C684 1.381 . S
C686 C687 1.394 . S
C686 H694 0.930 . S
C687 C686 1.394 . S
C687 C688 1.383 . S
C687 H695 0.929 . S
C688 C687 1.383 . S
C688 C689 1.377 . S
C689 H673 0.930 . S
C689 C688 1.377 . S
C689 C690 1.379 . S
C690 H674 0.931 . S
C690 C684 1.383 . S
C690 C689 1.379 . S
H691 C685 0.959 . S
H692 C685 0.961 . S
H693 C685 0.960 . S
H694 C686 0.930 . S
H695 C687 0.929 . S
H696 C704 0.929 . S
H697 C706 0.930 . S
H698 C708 0.930 . S
H699 C711 0.929 . S
H700 C714 0.930 . S
H701 C716 0.960 . S
H702 C716 0.960 . S
H703 C716 0.960 . S
C704 H696 0.929 . S
C704 C705 1.377 . S
C704 C706 1.384 . S
C705 C704 1.377 . S
C705 C711 1.390 . S
C706 H697 0.930 . S
C706 C704 1.384 . S
C706 C707 1.372 . S
C707 C706 1.372 . S
C707 C708 1.400 . S
C707 C712 1.490 . S
C708 H698 0.930 . S
C708 C707 1.400 . S
C708 C711 1.386 . S
H709 C725 0.930 . S
H710 C726 0.931 . S
C711 H699 0.929 . S
C711 C705 1.390 . S
C711 C708 1.386 . S
C712 C707 1.490 . S
C712 C714 1.395 . S
C712 C715 1.403 . S
H713 C719 0.930 . S
C714 H700 0.930 . S
C714 C712 1.395 . S
C714 C717 1.403 . S
C715 C712 1.403 . S
C715 C716 1.524 . S
C715 C719 1.400 . S
C716 H701 0.960 . S
C716 H702 0.960 . S
C716 H703 0.960 . S
C716 C715 1.524 . S
C717 C714 1.403 . S
C717 C718 1.392 . S
C717 C721 1.495 . S
C718 C717 1.392 . S
C718 C719 1.385 . S
C718 C720 1.478 . S
C719 H713 0.930 . S
C719 C715 1.400 . S
C719 C718 1.385 . S
C720 C718 1.478 . S
C720 C722 1.381 . S
C720 C726 1.383 . S
C721 C717 1.495 . S
C721 H727 0.959 . S
C721 H728 0.961 . S
C721 H729 0.960 . S
C722 C720 1.381 . S
C722 C723 1.394 . S
C722 H730 0.930 . S
C723 C722 1.394 . S
C723 C724 1.383 . S
C723 H731 0.929 . S
C724 C723 1.383 . S
C724 C725 1.377 . S
C725 H709 0.930 . S
C725 C724 1.377 . S
C725 C726 1.379 . S
C726 H710 0.931 . S
C726 C720 1.383 . S
C726 C725 1.379 . S
H727 C721 0.959 . S
H728 C721 0.961 . S
H729 C721 0.960 . S
H730 C722 0.930 . S
H731 C723 0.929 . S
H732 C740 0.929 . S
H733 C742 0.930 . S
H734 C744 0.930 . S
H735 C747 0.929 . S
H736 C750 0.930 . S
H737 C752 0.960 . S
H738 C752 0.960 . S
H739 C752 0.960 . S
C740 H732 0.929 . S
C740 C741 1.377 . S
C740 C742 1.384 . S
C741 C740 1.377 . S
C741 C747 1.390 . S
C742 H733 0.930 . S
C742 C740 1.384 . S
C742 C743 1.372 . S
C743 C742 1.372 . S
C743 C744 1.400 . S
C743 C748 1.490 . S
C744 H734 0.930 . S
C744 C743 1.400 . S
C744 C747 1.386 . S
H745 C761 0.930 . S
H746 C762 0.931 . S
C747 H735 0.929 . S
C747 C741 1.390 . S
C747 C744 1.386 . S
C748 C743 1.490 . S
C748 C750 1.395 . S
C748 C751 1.403 . S
H749 C755 0.930 . S
C750 H736 0.930 . S
C750 C748 1.395 . S
C750 C753 1.403 . S
C751 C748 1.403 . S
C751 C752 1.524 . S
C751 C755 1.400 . S
C752 H737 0.960 . S
C752 H738 0.960 . S
C752 H739 0.960 . S
C752 C751 1.524 . S
C753 C750 1.403 . S
C753 C754 1.392 . S
C753 C757 1.495 . S
C754 C753 1.392 . S
C754 C755 1.385 . S
C754 C756 1.478 . S
C755 H749 0.930 . S
C755 C751 1.400 . S
C755 C754 1.385 . S
C756 C754 1.478 . S
C756 C758 1.381 . S
C756 C762 1.383 . S
C757 C753 1.495 . S
C757 H763 0.959 . S
C757 H764 0.961 . S
C757 H765 0.960 . S
C758 C756 1.381 . S
C758 C759 1.394 . S
C758 H766 0.930 . S
C759 C758 1.394 . S
C759 C760 1.383 . S
C759 H767 0.929 . S
C760 C759 1.383 . S
C760 C761 1.377 . S
C761 H745 0.930 . S
C761 C760 1.377 . S
C761 C762 1.379 . S
C762 H746 0.931 . S
C762 C756 1.383 . S
C762 C761 1.379 . S
H763 C757 0.959 . S
H764 C757 0.961 . S
H765 C757 0.960 . S
H766 C758 0.930 . S
H767 C759 0.929 . S
H768 C776 0.929 . S
H769 C778 0.930 . S
H770 C780 0.930 . S
H771 C783 0.929 . S
H772 C786 0.930 . S
H773 C788 0.960 . S
H774 C788 0.960 . S
H775 C788 0.960 . S
C776 H768 0.929 . S
C776 C777 1.377 . S
C776 C778 1.384 . S
C777 C776 1.377 . S
C777 C783 1.390 . S
C778 H769 0.930 . S
C778 C776 1.384 . S
C778 C779 1.372 . S
C779 C778 1.372 . S
C779 C780 1.400 . S
C779 C784 1.490 . S
C780 H770 0.930 . S
C780 C779 1.400 . S
C780 C783 1.386 . S
H781 C797 0.930 . S
H782 C798 0.931 . S
C783 H771 0.929 . S
C783 C777 1.390 . S
C783 C780 1.386 . S
C784 C779 1.490 . S
C784 C786 1.395 . S
C784 C787 1.403 . S
H785 C791 0.930 . S
C786 H772 0.930 . S
C786 C784 1.395 . S
C786 C789 1.403 . S
C787 C784 1.403 . S
C787 C788 1.524 . S
C787 C791 1.400 . S
C788 H773 0.960 . S
C788 H774 0.960 . S
C788 H775 0.960 . S
C788 C787 1.524 . S
C789 C786 1.403 . S
C789 C790 1.392 . S
C789 C793 1.495 . S
C790 C789 1.392 . S
C790 C791 1.385 . S
C790 C792 1.478 . S
C791 H785 0.930 . S
C791 C787 1.400 . S
C791 C790 1.385 . S
C792 C790 1.478 . S
C792 C794 1.381 . S
C792 C798 1.383 . S
C793 C789 1.495 . S
C793 H799 0.959 . S
C793 H800 0.961 . S
C793 H801 0.960 . S
C794 C792 1.381 . S
C794 C795 1.394 . S
C794 H802 0.930 . S
C795 C794 1.394 . S
C795 C796 1.383 . S
C795 H803 0.929 . S
C796 C795 1.383 . S
C796 C797 1.377 . S
C797 H781 0.930 . S
C797 C796 1.377 . S
C797 C798 1.379 . S
C798 H782 0.931 . S
C798 C792 1.383 . S
C798 C797 1.379 . S
H799 C793 0.959 . S
H800 C793 0.961 . S
H801 C793 0.960 . S
H802 C794 0.930 . S
H803 C795 0.929 . S
H804 C812 0.929 . S
H805 C814 0.930 1_556 S
H806 C816 0.930 . S
H807 C819 0.929 . S
H808 C822 0.930 . S
H809 C824 0.960 1_556 S
H810 C824 0.960 1_556 S
H811 C824 0.960 . S
C812 H804 0.929 . S
C812 C813 1.377 . S
C812 C814 1.384 . S
C813 C812 1.377 . S
C813 C819 1.390 . S
C814 H805 0.930 1_554 S
C814 C812 1.384 . S
C814 C815 1.372 . S
C815 C814 1.372 . S
C815 C816 1.400 . S
C815 C820 1.490 . S
C816 H806 0.930 . S
C816 C815 1.400 . S
C816 C819 1.386 . S
H817 C833 0.930 . S
H818 C834 0.931 1_554 S
C819 H807 0.929 . S
C819 C813 1.390 . S
C819 C816 1.386 . S
C820 C815 1.490 . S
C820 C822 1.395 1_455 S
C820 C823 1.403 . S
H821 C827 0.930 . S
C822 H808 0.930 . S
C822 C820 1.395 1_655 S
C822 C825 1.403 1_554 S
C823 C820 1.403 . S
C823 C824 1.524 . S
C823 C827 1.400 1_554 S
C824 H809 0.960 1_554 S
C824 H810 0.960 1_554 S
C824 H811 0.960 . S
C824 C823 1.524 . S
C825 C822 1.403 1_556 S
C825 C826 1.392 . S
C825 C829 1.495 . S
C826 C825 1.392 . S
C826 C827 1.385 1_655 S
C826 C828 1.478 . S
C827 H821 0.930 . S
C827 C823 1.400 1_556 S
C827 C826 1.385 1_455 S
C828 C826 1.478 . S
C828 C830 1.381 . S
C828 C834 1.383 . S
C829 C825 1.495 . S
C829 H835 0.959 . S
C829 H836 0.961 1_556 S
C829 H837 0.960 . S
C830 C828 1.381 . S
C830 C831 1.394 . S
C830 H838 0.930 . S
C831 C830 1.394 . S
C831 C832 1.383 . S
C831 H839 0.929 . S
C832 C831 1.383 . S
C832 C833 1.377 . S
C833 H817 0.930 . S
C833 C832 1.377 . S
C833 C834 1.379 . S
C834 H818 0.931 1_556 S
C834 C828 1.383 . S
C834 C833 1.379 . S
H835 C829 0.959 . S
H836 C829 0.961 1_554 S
H837 C829 0.960 . S
H838 C830 0.930 . S
H839 C831 0.929 . S
H840 C848 0.929 . S
H841 C850 0.930 . S
H842 C852 0.930 1_556 S
H843 C855 0.929 . S
H844 C858 0.930 . S
H845 C860 0.960 . S
H846 C860 0.960 . S
H847 C860 0.960 . S
C848 H840 0.929 . S
C848 C849 1.377 . S
C848 C850 1.384 . S
C849 C848 1.377 . S
C849 C855 1.390 . S
C850 H841 0.930 . S
C850 C848 1.384 . S
C850 C851 1.372 . S
C851 C850 1.372 . S
C851 C852 1.400 . S
C851 C856 1.490 . S
C852 H842 0.930 1_554 S
C852 C851 1.400 . S
C852 C855 1.386 . S
H853 C869 0.930 . S
H854 C870 0.931 . S
C855 H843 0.929 . S
C855 C849 1.390 . S
C855 C852 1.386 . S
C856 C851 1.490 . S
C856 C858 1.395 . S
C856 C859 1.403 1_554 S
H857 C863 0.930 . S
C858 H844 0.930 . S
C858 C856 1.395 . S
C858 C861 1.403 . S
C859 C856 1.403 1_556 S
C859 C860 1.524 . S
C859 C863 1.400 . S
C860 H845 0.960 . S
C860 H846 0.960 . S
C860 H847 0.960 . S
C860 C859 1.524 . S
C861 C858 1.403 . S
C861 C862 1.392 1_554 S
C861 C865 1.495 . S
C862 C861 1.392 1_556 S
C862 C863 1.385 . S
C862 C864 1.478 . S
C863 H857 0.930 . S
C863 C859 1.400 . S
C863 C862 1.385 . S
C864 C862 1.478 . S
C864 C866 1.381 . S
C864 C870 1.383 . S
C865 C861 1.495 . S
C865 H871 0.959 . S
C865 H872 0.961 . S
C865 H873 0.960 . S
C866 C864 1.381 . S
C866 C867 1.394 . S
C866 H874 0.930 1_556 S
C867 C866 1.394 . S
C867 C868 1.383 . S
C867 H875 0.929 . S
C868 C867 1.383 . S
C868 C869 1.377 . S
C869 H853 0.930 . S
C869 C868 1.377 . S
C869 C870 1.379 . S
C870 H854 0.931 . S
C870 C864 1.383 . S
C870 C869 1.379 . S
H871 C865 0.959 . S
H872 C865 0.961 . S
H873 C865 0.960 . S
H874 C866 0.930 1_554 S
H875 C867 0.929 . S
H876 C884 0.929 . S
H877 C886 0.930 . S
H878 C888 0.930 1_556 S
H879 C891 0.929 . S
H880 C894 0.930 . S
H881 C896 0.960 . S
H882 C896 0.960 1_554 S
H883 C896 0.960 . S
C884 H876 0.929 . S
C884 C885 1.377 . S
C884 C886 1.384 . S
C885 C884 1.377 . S
C885 C891 1.390 . S
C886 H877 0.930 . S
C886 C884 1.384 . S
C886 C887 1.372 . S
C887 C886 1.372 . S
C887 C888 1.400 . S
C887 C892 1.490 . S
C888 H878 0.930 1_554 S
C888 C887 1.400 . S
C888 C891 1.386 . S
H889 C905 0.930 . S
H890 C906 0.931 . S
C891 H879 0.929 . S
C891 C885 1.390 . S
C891 C888 1.386 . S
C892 C887 1.490 . S
C892 C894 1.395 . S
C892 C895 1.408 1_565 S
H893 C899 0.930 . S
C894 H880 0.930 . S
C894 C892 1.395 . S
C894 C897 1.403 . S
C895 C892 1.408 1_545 S
C895 C896 1.523 1_554 S
C895 C899 1.395 1_554 S
C896 H881 0.960 . S
C896 H882 0.960 1_556 S
C896 H883 0.960 . S
C896 C895 1.523 1_556 S
C897 C894 1.403 . S
C897 C898 1.392 1_564 S
C897 C901 1.495 . S
C898 C897 1.392 1_546 S
C898 C899 1.385 . S
C898 C900 1.478 . S
C899 H893 0.930 . S
C899 C895 1.395 1_556 S
C899 C898 1.385 . S
C900 C898 1.478 . S
C900 C902 1.381 . S
C900 C906 1.383 . S
C901 C897 1.495 . S
C901 H907 0.959 . S
C901 H908 0.961 1_554 S
C901 H909 0.960 . S
C902 C900 1.381 . S
C902 C903 1.394 . S
C902 H910 0.930 1_556 S
C903 C902 1.394 . S
C903 C904 1.383 . S
C903 H911 0.929 . S
C904 C903 1.383 . S
C904 C905 1.377 . S
C905 H889 0.930 . S
C905 C904 1.377 . S
C905 C906 1.379 . S
C906 H890 0.931 . S
C906 C900 1.383 . S
C906 C905 1.379 . S
H907 C901 0.959 . S
H908 C901 0.961 1_556 S
H909 C901 0.960 . S
H910 C902 0.930 1_554 S
H911 C903 0.929 . S
H912 C920 0.929 . S
H913 C922 0.930 . S
H914 C924 0.906 1_545 S
H915 C927 0.929 . S
H916 C930 0.930 . S
H917 C932 0.960 . S
H918 C932 0.960 . S
H919 C932 0.960 . S
C920 H912 0.929 . S
C920 C921 1.377 . S
C920 C922 1.384 . S
C921 C920 1.377 . S
C921 C927 1.390 . S
C922 H913 0.930 . S
C922 C920 1.384 . S
C922 C923 1.372 . S
C923 C922 1.372 . S
C923 C924 1.400 . S
C923 C928 1.490 . S
C924 H914 0.906 1_565 S
C924 C923 1.400 . S
C924 C927 1.386 . S
H925 C941 0.930 . S
H926 C942 0.931 . S
C927 H915 0.929 . S
C927 C921 1.390 . S
C927 C924 1.386 . S
C928 C923 1.490 . S
C928 C930 1.395 . S
C928 C931 1.403 1_565 S
H929 C935 0.930 . S
C930 H916 0.930 . S
C930 C928 1.395 . S
C930 C933 1.403 . S
C931 C928 1.403 1_545 S
C931 C932 1.524 . S
C931 C935 1.400 . S
C932 H917 0.960 . S
C932 H918 0.960 . S
C932 H919 0.960 . S
C932 C931 1.524 . S
C933 C930 1.403 . S
C933 C934 1.392 1_565 S
C933 C937 1.495 . S
C934 C933 1.392 1_545 S
C934 C935 1.385 . S
C934 C936 1.478 . S
C935 H929 0.930 . S
C935 C931 1.400 . S
C935 C934 1.385 . S
C936 C934 1.478 . S
C936 C938 1.381 . S
C936 C942 1.383 . S
C937 C933 1.495 . S
C937 H943 0.959 . S
C937 H944 0.961 . S
C937 H945 0.960 . S
C938 C936 1.381 . S
C938 C939 1.394 . S
C938 H946 0.930 1_545 S
C939 C938 1.394 . S
C939 C940 1.383 . S
C939 H947 0.929 . S
C940 C939 1.383 . S
C940 C941 1.377 . S
C941 H925 0.930 . S
C941 C940 1.377 . S
C941 C942 1.379 . S
C942 H926 0.931 . S
C942 C936 1.383 . S
C942 C941 1.379 . S
H943 C937 0.959 . S
H944 C937 0.961 . S
H945 C937 0.960 . S
H946 C938 0.930 1_565 S
H947 C939 0.929 . S
H948 C956 0.929 . S
H949 C958 0.930 . S
H950 C960 0.930 . S
H951 C963 0.929 . S
H952 C966 0.930 . S
H953 C968 0.960 . S
H954 C968 0.960 . S
H955 C968 0.960 1_655 S
C956 H948 0.929 . S
C956 C957 1.377 . S
C956 C958 1.384 . S
C957 C956 1.377 . S
C957 C963 1.390 . S
C958 H949 0.930 . S
C958 C956 1.384 . S
C958 C959 1.372 . S
C959 C958 1.372 . S
C959 C960 1.400 . S
C959 C964 1.490 . S
C960 H950 0.930 . S
C960 C959 1.400 . S
C960 C963 1.386 . S
H961 C977 0.930 . S
H962 C978 0.931 . S
C963 H951 0.929 . S
C963 C957 1.390 . S
C963 C960 1.386 . S
C964 C959 1.490 . S
C964 C966 1.395 . S
C964 C967 1.403 1_655 S
H965 C971 0.930 . S
C966 H952 0.930 . S
C966 C964 1.395 . S
C966 C969 1.403 . S
C967 C964 1.403 1_455 S
C967 C968 1.524 . S
C967 C971 1.400 . S
C968 H953 0.960 . S
C968 H954 0.960 . S
C968 H955 0.960 1_455 S
C968 C967 1.524 . S
C969 C966 1.403 . S
C969 C970 1.392 1_655 S
C969 C973 1.496 . S
C970 C969 1.392 1_455 S
C970 C971 1.385 . S
C970 C972 1.478 . S
C971 H965 0.930 . S
C971 C967 1.400 . S
C971 C970 1.385 . S
C972 C970 1.478 . S
C972 C974 1.381 . S
C972 C978 1.383 . S
C973 C969 1.496 . S
C973 H979 0.959 . S
C973 H980 0.961 . S
C973 H981 0.960 1_655 S
C974 C972 1.381 . S
C974 C975 1.394 . S
C974 H982 0.930 . S
C975 C974 1.394 . S
C975 C976 1.383 . S
C975 H983 0.929 . S
C976 C975 1.383 . S
C976 C977 1.377 . S
C977 H961 0.930 . S
C977 C976 1.377 . S
C977 C978 1.379 . S
C978 H962 0.931 . S
C978 C972 1.383 . S
C978 C977 1.379 . S
H979 C973 0.959 . S
H980 C973 0.961 . S
H981 C973 0.960 1_455 S
H982 C974 0.930 . S
H983 C975 0.929 . S
H984 C992 0.929 . S
H985 C994 0.930 . S
H986 C996 0.930 . S
H987 C999 0.929 . S
H988 C1002 0.930 . S
H989 C1004 0.960 . S
H990 C1004 0.960 . S
H991 C1004 0.960 . S
C992 H984 0.929 . S
C992 C993 1.377 . S
C992 C994 1.384 . S
C993 C992 1.377 . S
C993 C999 1.390 . S
C994 H985 0.930 . S
C994 C992 1.384 . S
C994 C995 1.372 . S
C995 C994 1.372 . S
C995 C996 1.400 . S
C995 C1000 1.490 . S
C996 H986 0.930 . S
C996 C995 1.400 . S
C996 C999 1.386 . S
H997 C1013 0.930 . S
H998 C1014 0.931 . S
C999 H987 0.929 . S
C999 C993 1.390 . S
C999 C996 1.386 . S
C1000 C995 1.490 . S
C1000 C1002 1.395 . S
C1000 C1003 1.403 . S
H1001 C1007 0.930 . S
C1002 H988 0.930 . S
C1002 C1000 1.395 . S
C1002 C1005 1.403 . S
C1003 C1000 1.403 . S
C1003 C1004 1.524 . S
C1003 C1007 1.400 . S
C1004 H989 0.960 . S
C1004 H990 0.960 . S
C1004 H991 0.960 . S
C1004 C1003 1.524 . S
C1005 C1002 1.403 . S
C1005 C1006 1.392 . S
C1005 C1009 1.495 . S
C1006 C1005 1.392 . S
C1006 C1007 1.385 . S
C1006 C1008 1.478 . S
C1007 H1001 0.930 . S
C1007 C1003 1.400 . S
C1007 C1006 1.385 . S
C1008 C1006 1.478 . S
C1008 C1010 1.381 . S
C1008 C1014 1.383 . S
C1009 C1005 1.495 . S
C1009 H1015 0.959 . S
C1009 H1016 0.961 . S
C1009 H1017 0.960 . S
C1010 C1008 1.381 . S
C1010 C1011 1.394 . S
C1010 H1018 0.930 . S
C1011 C1010 1.394 . S
C1011 C1012 1.383 . S
C1011 H1019 0.929 . S
C1012 C1011 1.383 . S
C1012 C1013 1.377 . S
C1013 H997 0.930 . S
C1013 C1012 1.377 . S
C1013 C1014 1.379 . S
C1014 H998 0.931 . S
C1014 C1008 1.383 . S
C1014 C1013 1.379 . S
H1015 C1009 0.959 . S
H1016 C1009 0.961 . S
H1017 C1009 0.960 . S
H1018 C1010 0.930 . S
H1019 C1011 0.929 . S
C165 C4 0.993 . S
C184 C94 0.999 . S
C201 C17 0.993 . S
C220 C107 0.999 . S
C237 C36 0.996 . S
C256 C83 0.991 . S
C273 C146 0.996 . S
C292 C49 1.002 . S
C309 C56 0.996 . S
C328 C122 0.995 . S
C345 C135 0.996 . S
C364 C69 0.983 . S
C381 C16 0.996 . S
C400 C88 0.997 . S
C417 C95 0.993 . S
C436 C31 0.992 . S
C453 C3 0.996 . S
C472 C108 0.993 . S
C489 C127 0.993 . S
C508 C68 0.993 . S
C525 C140 0.995 . S
C544 C44 0.998 . S
C561 C55 0.995 . S
C580 C147 0.984 . S
C597 C75 1.552 . S
C616 C10 1.564 . S
C633 C23 1.555 . S
C652 C43 1.545 . S
C669 C30 1.554 . S
C688 C62 1.562 . S
C705 C82 1.553 . S
C724 C153 1.538 . S
C741 C101 1.552 . S
C760 C121 1.537 . S
C777 C114 1.555 . S
C796 C134 1.557 . S
C813 C5 1.492 . S
C832 C81 1.502 . S
C849 C18 1.491 . S
C868 C96 1.472 . S
C885 C29 1.492 . S
C904 C109 1.474 . S
C921 C42 1.496 . S
C940 C120 1.487 . S
C957 C133 1.491 . S
C976 C57 1.496 . S
C993 C70 1.493 . S
C1012 C148 1.504 . S
