# Generated by pormake.
# Topology uom, (4)-cn, num edge types: 1
# Building blocks:
#     Node 0, Type 0, BuildingBlock: KOZSID_clean_sbu_0, # of connection points: 4
#     Node 1, Type 0, BuildingBlock: KOZSID_clean_sbu_0, # of connection points: 4
#     Node 2, Type 0, BuildingBlock: KOZSID_clean_sbu_0, # of connection points: 4
#     Node 3, Type 0, BuildingBlock: KOZSID_clean_sbu_0, # of connection points: 4
#     Node 4, Type 0, BuildingBlock: KOZSID_clean_sbu_0, # of connection points: 4
#     Node 5, Type 0, BuildingBlock: KOZSID_clean_sbu_0, # of connection points: 4
#     Edge 6, Type (0, 0), BuildingBlock: UVAHIK_clean_linker_0, # of connection points: 2
#     Edge 7, Type (0, 0), BuildingBlock: UVAHIK_clean_linker_0, # of connection points: 2
#     Edge 8, Type (0, 0), BuildingBlock: UVAHIK_clean_linker_0, # of connection points: 2
#     Edge 9, Type (0, 0), BuildingBlock: UVAHIK_clean_linker_0, # of connection points: 2
#     Edge 10, Type (0, 0), BuildingBlock: UVAHIK_clean_linker_0, # of connection points: 2
#     Edge 11, Type (0, 0), BuildingBlock: UVAHIK_clean_linker_0, # of connection points: 2
#     Edge 12, Type (0, 0), BuildingBlock: UVAHIK_clean_linker_0, # of connection points: 2
#     Edge 13, Type (0, 0), BuildingBlock: UVAHIK_clean_linker_0, # of connection points: 2
#     Edge 14, Type (0, 0), BuildingBlock: UVAHIK_clean_linker_0, # of connection points: 2
#     Edge 15, Type (0, 0), BuildingBlock: UVAHIK_clean_linker_0, # of connection points: 2
#     Edge 16, Type (0, 0), BuildingBlock: UVAHIK_clean_linker_0, # of connection points: 2
#     Edge 17, Type (0, 0), BuildingBlock: UVAHIK_clean_linker_0, # of connection points: 2
# Relax obj value: 0.145
# Max RMSD: 0.171
# Mean RMSD: 0.171
data_MOF--net-uom--node1-KOZSID_clean_sbu_0--edge1-UVAHIK_clean_linker_0
_symmetry_space_group_name_H-M    P1
_symmetry_Int_Tables_number       1
_symmetry_cell_setting            triclinic
loop_
_symmetry_equiv_pos_as_xyz
'x, y, z'
_cell_length_a     46.479058
_cell_length_b     46.466556
_cell_length_c     53.764379
_cell_angle_alpha  90.000967
_cell_angle_beta   90.001232
_cell_angle_gamma 120.01145
loop_
_atom_site_label
_atom_site_type_symbol
_atom_site_fract_x
_atom_site_fract_y
_atom_site_fract_z
_atom_type_partial_charge
C0 C 0.36401 0.15045 0.08096 0.0
C1 C 0.35695 0.13149 0.10243 0.0
C2 C 0.3514 0.10075 0.0952 0.0
C3 C 0.35548 0.10267 0.06982 0.0
N4 N 0.36312 0.13264 0.06076 0.0
Co5 Co 0.37153 0.1462 0.02539 0.0
N6 N 0.34743 0.09943 0.01399 0.0
C7 C 0.34137 0.0728 0.02778 0.0
C8 C 0.32496 0.04356 0.0147 0.0
C9 C 0.32067 0.05248 0.99123 0.0
C10 C 0.33467 0.0868 0.99132 0.0
N11 N 0.37991 0.15968 0.98993 0.0
C12 C 0.36409 0.14221 0.96923 0.0
C13 C 0.37719 0.16169 0.94811 0.0
C14 C 0.40246 0.19199 0.95596 0.0
C15 C 0.40328 0.18956 0.98137 0.0
N16 N 0.39575 0.19292 0.03698 0.0
C17 C 0.41754 0.2193 0.02353 0.0
C18 C 0.42922 0.24872 0.03621 0.0
C19 C 0.41389 0.2402 0.05902 0.0
C20 C 0.39383 0.20585 0.05911 0.0
N21 N 0.41259 0.14449 0.02651 0.0
C22 C 0.46636 0.13358 0.03057 0.0
C23 C 0.44721 0.12508 0.00881 0.0
C24 C 0.42034 0.1304 0.00727 0.0
C25 C 0.4592 0.14966 0.04964 0.0
C26 C 0.43249 0.15525 0.0471 0.0
N27 N 0.33058 0.14762 0.02425 0.0
C28 C 0.30005 0.17398 0.01101 0.0
C29 C 0.27121 0.14823 0.02166 0.0
C30 C 0.2726 0.12235 0.03377 0.0
C31 C 0.30248 0.12238 0.03469 0.0
C32 C 0.32965 0.17339 0.01276 0.0
H33 H 0.30281 0.1018 0.04365 0.0
H34 H 0.35172 0.1936 1.00465 0.0
H35 H 0.40521 0.12206 0.99075 0.0
H36 H 0.42715 0.16711 0.06223 0.0
C37 C 0.34657 0.07581 0.05362 0.0
C38 C 0.37416 0.1859 0.08054 0.0
C39 C 0.33815 0.10681 0.96912 0.0
C40 C 0.42078 0.21613 0.99788 0.0
H41 H 0.35614 0.13914 0.12131 0.0
H42 H 0.34399 0.07925 0.10694 0.0
H43 H 0.3162 0.01864 0.02156 0.0
H44 H 0.309 0.0357 0.97576 0.0
H45 H 0.36934 0.15493 0.92903 0.0
H46 H 0.41732 0.21369 0.94457 0.0
H47 H 0.44543 0.27358 0.02924 0.0
H48 H 0.41692 0.25746 0.07365 0.0
H49 H 0.45236 0.11367 0.99318 0.0
H50 H 0.47318 0.15673 0.06684 0.0
H51 H 0.29971 0.19442 1.00159 0.0
H52 H 0.25057 0.10185 0.04197 0.0
C53 C 0.31086 0.3613 0.41635 0.0
C54 C 0.32337 0.35815 0.43899 0.0
C55 C 0.3518 0.35711 0.4338 0.0
C56 C 0.35514 0.35981 0.40838 0.0
N57 N 0.33049 0.36231 0.39737 0.0
Co58 Co 0.32602 0.36716 0.36122 0.0
N59 N 0.35554 0.34915 0.35294 0.0
C60 C 0.37721 0.34734 0.36855 0.0
C61 C 0.39347 0.33269 0.35776 0.0
C62 C 0.3814 0.32509 0.33389 0.0
C63 C 0.35855 0.33586 0.33132 0.0
N64 N 0.32176 0.37226 0.32509 0.0
C65 C 0.32786 0.35748 0.3057 0.0
C66 C 0.32202 0.36847 0.28327 0.0
C67 C 0.31181 0.39078 0.28901 0.0
C68 C 0.31211 0.39231 0.31454 0.0
N69 N 0.29646 0.38506 0.36949 0.0
C70 C 0.28887 0.40334 0.35433 0.0
C71 C 0.26706 0.41151 0.36501 0.0
C72 C 0.26077 0.39765 0.38836 0.0
C73 C 0.27938 0.38194 0.39072 0.0
N74 N 0.36458 0.41187 0.36246 0.0
C75 C 0.42416 0.47169 0.36786 0.0
C76 C 0.41925 0.45079 0.34764 0.0
C77 C 0.38921 0.4212 0.34514 0.0
C78 C 0.39797 0.46308 0.38453 0.0
C79 C 0.36836 0.43295 0.38154 0.0
N80 N 0.28799 0.32251 0.35999 0.0
C81 C 0.23456 0.28311 0.34343 0.0
C82 C 0.23653 0.2572 0.35506 0.0
C83 C 0.26429 0.26472 0.36969 0.0
C84 C 0.28971 0.29745 0.37186 0.0
C85 C 0.26052 0.31574 0.34632 0.0
H86 H 0.3112 0.30236 0.38266 0.0
H87 H 0.25873 0.3354 0.33712 0.0
H88 H 0.38645 0.40524 0.32969 0.0
H89 H 0.34903 0.42613 0.39521 0.0
C90 C 0.37682 0.35375 0.39404 0.0
C91 C 0.28193 0.36588 0.41359 0.0
C92 C 0.34152 0.33507 0.30796 0.0
C93 C 0.29776 0.40691 0.32909 0.0
H94 H 0.31313 0.35689 0.4573 0.0
H95 H 0.36732 0.35344 0.44693 0.0
H96 H 0.41083 0.32674 0.36651 0.0
H97 H 0.38859 0.31293 0.32012 0.0
H98 H 0.32495 0.36123 0.26472 0.0
H99 H 0.30381 0.40327 0.27612 0.0
H100 H 0.25583 0.42461 0.35649 0.0
H101 H 0.24431 0.39894 0.40195 0.0
H102 H 0.43877 0.45696 0.33411 0.0
H103 H 0.40089 0.47871 0.40038 0.0
H104 H 0.21326 0.27819 0.33216 0.0
H105 H 0.26687 0.24532 0.37877 0.0
C106 C 0.05314 0.31134 0.75074 0.0
C107 C 0.07228 0.31985 0.7722 0.0
C108 C 0.10387 0.34379 0.76554 0.0
C109 C 0.10235 0.34846 0.74045 0.0
N110 N 0.07181 0.32882 0.731 0.0
Co111 Co 0.05882 0.32702 0.69567 0.0
N112 N 0.10553 0.34749 0.68434 0.0
C113 C 0.13262 0.36512 0.69859 0.0
C114 C 0.16172 0.37619 0.68561 0.0
C115 C 0.15227 0.365 0.66171 0.0
C116 C 0.11776 0.34781 0.6614 0.0
N117 N 0.0458 0.32526 0.66037 0.0
C118 C 0.06289 0.32724 0.6394 0.0
C119 C 0.0446 0.32522 0.61841 0.0
C120 C 0.01513 0.32198 0.62669 0.0
C121 C 0.01705 0.32226 0.65221 0.0
N122 N 0.01222 0.30667 0.70709 0.0
C123 C 0.9869 0.30559 0.6942 0.0
C124 C 0.95734 0.28956 0.70697 0.0
C125 C 0.96471 0.28014 0.72923 0.0
C126 C -0.00156 0.29092 0.72876 0.0
N127 N 0.06393 0.37117 0.69883 0.0
C128 C 0.0765 0.43632 0.70469 0.0
C129 C 0.0854 0.4264 0.68275 0.0
C130 C 0.07924 0.39398 0.68031 0.0
C131 C 0.05991 0.41238 0.72325 0.0
C132 C 0.05357 0.37991 0.71983 0.0
N133 N 0.05389 0.2832 0.69247 0.0
C134 C 0.02397 0.22732 0.67692 0.0
C135 C 0.04801 0.22105 0.68695 0.0
C136 C 0.07489 0.24624 0.69988 0.0
C137 C 0.07753 0.27725 0.70225 0.0
C138 C 0.02718 0.25855 0.68015 0.0
H139 H 0.09882 0.29651 0.71184 0.0
H140 H 0.00821 0.26285 0.67255 0.0
H141 H 0.08745 0.38759 0.66354 0.0
H142 H 0.041 0.36208 0.73448 0.0
C143 C 0.12968 0.36565 0.72454 0.0
C144 C 0.01714 0.288 0.74971 0.0
C145 C 0.09737 0.33401 0.63889 0.0
C146 C 0.99075 0.3141 0.66885 0.0
H147 H 0.06442 0.3098 0.7907 0.0
H148 H 0.12563 0.35516 0.77736 0.0
H149 H 0.18681 0.38959 0.69283 0.0
H150 H 0.16891 0.36914 0.64634 0.0
H151 H 0.05191 0.32631 0.59916 0.0
H152 H 0.99437 0.31861 0.61543 0.0
H153 H 0.93306 0.28406 0.70048 0.0
H154 H 0.94734 0.26696 0.7441 0.0
H155 H 0.09733 0.44356 0.66752 0.0
H156 H 0.05264 0.41873 0.7406 0.0
H157 H 0.00281 0.2082 0.66689 0.0
H158 H 0.09409 0.24219 0.70765 0.0
C159 C 0.83409 0.04975 0.0815 0.0
C160 C 0.83845 0.06793 0.10306 0.0
C161 C 0.83915 0.09671 0.09602 0.0
C162 C 0.83512 0.09452 0.07064 0.0
N163 N 0.83214 0.06624 0.06138 0.0
Co164 Co 0.82535 0.05291 0.02591 0.0
N165 N 0.84268 0.09931 0.0148 0.0
C166 C 0.84456 0.12423 0.02876 0.0
C167 C 0.85744 0.15364 0.01586 0.0
C168 C 0.86387 0.1466 0.99236 0.0
C169 C 0.85459 0.11319 0.99226 0.0
N170 N 0.81857 0.03971 0.99039 0.0
C171 C 0.83257 0.05848 0.96984 0.0
C172 C 0.82163 0.03905 0.94853 0.0
C173 C 0.79971 0.0072 0.95616 0.0
C174 C 0.79858 0.00884 0.98162 0.0
N175 N 0.80789 0.00649 0.03709 0.0
C176 C 0.78902 0.97906 0.02349 0.0
C177 C 0.78111 0.95031 0.03608 0.0
C178 C 0.79579 0.96038 0.05903 0.0
C179 C 0.81175 0.99486 0.05922 0.0
N180 N 0.7807 0.04677 0.02745 0.0
C181 C 0.72108 0.04672 0.03268 0.0
C182 C 0.73967 0.05846 0.01083 0.0
C183 C 0.76955 0.05847 0.00864 0.0
C184 C 0.73185 0.03332 0.05131 0.0
C185 C 0.76151 0.03308 0.04815 0.0
N186 N 0.86987 0.05937 0.02448 0.0
C187 C 0.90805 0.04205 0.01087 0.0
C188 C 0.93431 0.07047 0.02161 0.0
C189 C 0.92777 0.09307 0.03388 0.0
C190 C 0.89544 0.08717 0.03497 0.0
C191 C 0.87583 0.03678 0.01273 0.0
H192 H 0.89117 0.10532 0.04411 0.0
H193 H 0.8558 0.01463 1.00455 0.0
H194 H 0.78426 0.06923 0.99215 0.0
H195 H 0.76955 0.02304 0.06291 0.0
C196 C 0.83975 0.12037 0.05461 0.0
C197 C 0.82883 0.01583 0.08094 0.0
C198 C 0.85482 0.09478 0.9701 0.0
C199 C 0.78465 0.98161 0.99792 0.0
H200 H 0.84054 0.06096 0.1219 0.0
H201 H 0.84331 0.11725 0.1079 0.0
H202 H 0.86277 0.17763 0.02291 0.0
H203 H 0.87398 0.16396 0.97703 0.0
H204 H 0.8288 0.04686 0.92949 0.0
H205 H 0.7874 0.98525 0.94458 0.0
H206 H 0.76762 0.92512 0.02907 0.0
H207 H 0.79488 0.94416 0.0738 0.0
H208 H 0.73205 0.06912 0.9961 0.0
H209 H 0.71781 0.02377 0.06836 0.0
H210 H 0.91236 0.02402 1.00132 0.0
H211 H 0.94763 0.11553 0.04214 0.0
C212 C 0.88574 0.84201 0.41985 0.0
C213 C 0.87846 0.85149 0.4424 0.0
C214 C 0.85537 0.86096 0.43747 0.0
C215 C 0.84972 0.85661 0.4123 0.0
N216 N 0.8679 0.84507 0.40121 0.0
Co217 Co 0.86689 0.8347 0.36542 0.0
N218 N 0.84828 0.8635 0.35651 0.0
C219 C 0.83274 0.87386 0.37218 0.0
C220 C 0.8227 0.89378 0.36072 0.0
C221 C 0.8323 0.89578 0.33633 0.0
C222 C 0.84755 0.87671 0.3342 0.0
N223 N 0.86551 0.82403 0.32963 0.0
C224 C 0.86316 0.8403 0.30951 0.0
C225 C 0.86256 0.82396 0.28773 0.0
C226 C 0.8646 0.79656 0.29464 0.0
C227 C 0.86622 0.79759 0.32017 0.0
N228 N 0.88569 0.80611 0.37447 0.0
C229 C 0.88495 0.78191 0.36027 0.0
C230 C 0.90153 0.76754 0.371 0.0
C231 C 0.9132 0.78364 0.39333 0.0
C232 C 0.90278 0.80683 0.39515 0.0
N233 N 0.82196 0.79711 0.36942 0.0
C234 C 0.75677 0.74554 0.37619 0.0
C235 C 0.78183 0.74979 0.39276 0.0
C236 C 0.81425 0.77589 0.38913 0.0
C237 C 0.76509 0.76711 0.35591 0.0
C238 C 0.79781 0.7925 0.35274 0.0
N239 N 0.9115 0.87213 0.3614 0.0
C240 C 0.96613 0.89594 0.34371 0.0
C241 C 0.97488 0.92637 0.35489 0.0
C242 C 0.95149 0.92916 0.36947 0.0
C243 C 0.91985 0.90181 0.37233 0.0
C244 C 0.93434 0.86895 0.34743 0.0
H245 H 0.90202 0.90474 0.38323 0.0
H246 H 0.92816 0.84558 0.33889 0.0
H247 H 0.83301 0.77916 0.40246 0.0
H248 H 0.80345 0.80863 0.33689 0.0
C249 C 0.83306 0.86893 0.39792 0.0
C250 C 0.90788 0.82815 0.41696 0.0
C251 C 0.85878 0.8695 0.3106 0.0
C252 C 0.87454 0.77827 0.33538 0.0
H253 H 0.88869 0.8515 0.46048 0.0
H254 H 0.8451 0.87117 0.45051 0.0
H255 H 0.81094 0.90639 0.36923 0.0
H256 H 0.82832 0.90953 0.32182 0.0
H257 H 0.86067 0.83099 0.26888 0.0
H258 H 0.86607 0.77881 0.28244 0.0
H259 H 0.90618 0.74888 0.363 0.0
H260 H 0.92795 0.77894 0.40649 0.0
H261 H 0.77627 0.73357 0.40868 0.0
H262 H 0.74646 0.76424 0.34248 0.0
H263 H 0.98377 0.893 0.33238 0.0
H264 H 0.95739 0.95253 0.37814 0.0
C265 C 0.14323 0.88391 0.75037 0.0
C266 C 0.12488 0.87151 0.77208 0.0
C267 C 0.09623 0.84293 0.76569 0.0
C268 C 0.09842 0.83956 0.7405 0.0
N269 N 0.12656 0.86441 0.7307 0.0
Co270 Co 0.13903 0.86972 0.69501 0.0
N271 N 0.09253 0.83942 0.68452 0.0
C272 C 0.06794 0.81716 0.69913 0.0
C273 C 0.03805 0.80062 0.68691 0.0
C274 C 0.04436 0.81315 0.66315 0.0
C275 C 0.07801 0.83654 0.66208 0.0
N276 N 0.15149 0.87502 0.6594 0.0
C277 C 0.13223 0.86915 0.63899 0.0
C278 C 0.151 0.87596 0.61745 0.0
C279 C 0.18309 0.88652 0.62483 0.0
C280 C 0.18214 0.88547 0.65038 0.0
N281 N 0.1855 0.89988 0.70541 0.0
C282 C 0.21271 0.90784 0.69172 0.0
C283 C 0.24166 0.92894 0.70399 0.0
C284 C 0.23194 0.93436 0.72682 0.0
C285 C 0.19747 0.91628 0.72718 0.0
N286 N 0.14618 0.83187 0.69737 0.0
C287 C 0.14851 0.77353 0.70352 0.0
C288 C 0.13577 0.77911 0.68166 0.0
C289 C 0.1346 0.80834 0.67902 0.0
C290 C 0.16154 0.79828 0.72174 0.0
C291 C 0.16062 0.82754 0.71813 0.0
N292 N 0.13155 0.90713 0.69271 0.0
C293 C 0.14695 0.96139 0.67715 0.0
C294 C 0.11817 0.95883 0.68755 0.0
C295 C 0.09649 0.93018 0.70078 0.0
C296 C 0.10356 0.9046 0.70306 0.0
C297 C 0.15336 0.93529 0.68016 0.0
H298 H 0.08605 0.88253 0.71289 0.0
H299 H 0.17569 0.93765 0.67211 0.0
H300 H 0.12319 0.81132 0.66251 0.0
H301 H 0.17053 0.84615 0.73255 0.0
C302 C 0.07237 0.81763 0.72497 0.0
C303 C 0.17705 0.91291 0.74909 0.0
C304 C 0.09593 0.85459 0.63948 0.0
C305 C 0.20975 0.89963 0.66634 0.0
H306 H 0.13128 0.88192 0.79059 0.0
H307 H 0.07559 0.82743 0.7778 0.0
H308 H 0.01413 0.78293 0.69466 0.0
H309 H 0.02608 0.80603 0.64853 0.0
H310 H 0.14238 0.87336 0.59845 0.0
H311 H 0.20469 0.89519 0.61298 0.0
H312 H 0.26678 0.94 0.69692 0.0
H313 H 0.24834 0.94958 0.74158 0.0
H314 H 0.12534 0.76033 0.66724 0.0
H315 H 0.17182 0.79478 0.73881 0.0
H316 H 0.16436 0.98337 0.66693 0.0
H317 H 0.07379 0.9272 0.70884 0.0
C318 C 0.33873 0.1936 0.11211 0.0
C319 C 0.37047 0.20184 0.10352 0.0
C320 C 0.33497 0.20752 0.13417 0.0
C321 C 0.38022 0.27913 0.17654 0.0
H322 H 0.31303 0.22396 0.22471 0.0
C323 C 0.37572 0.32936 0.27405 0.0
C324 C 0.34464 0.31841 0.28521 0.0
C325 C 0.37839 0.3147 0.25206 0.0
C326 C 0.33163 0.23993 0.21136 0.0
H327 H 0.42303 0.22961 0.11187 0.0
H328 H 0.41667 0.25463 0.15003 0.0
H329 H 0.3182 0.19947 0.18602 0.0
H330 H 0.29184 0.28463 0.28163 0.0
H331 H 0.29616 0.25941 0.24286 0.0
H332 H 0.39337 0.31972 0.20146 0.0
C333 C 0.39466 0.23793 0.13953 0.0
C334 C 0.33463 0.22579 0.18914 0.0
C335 C 0.39835 0.22371 0.11765 0.0
C336 C 0.31616 0.29302 0.27363 0.0
C337 C 0.31874 0.27851 0.25147 0.0
C338 C 0.37703 0.29334 0.1986 0.0
C339 C 0.36292 0.23004 0.1481 0.0
C340 C 0.35911 0.24517 0.17151 0.0
C341 C 0.34994 0.28913 0.24032 0.0
C342 C 0.35284 0.27395 0.21648 0.0
H343 H 0.31683 0.17637 0.10172 0.0
H344 H 0.31018 0.20097 0.14016 0.0
H345 H 0.39901 0.29491 0.16321 0.0
H346 H 0.39799 0.34949 0.28228 0.0
H347 H 0.4029 0.3234 0.24436 0.0
C348 C 0.23883 0.32963 0.44491 0.0
C349 C 0.26069 0.36153 0.43569 0.0
C350 C 0.21964 0.32546 0.46619 0.0
C351 C 0.18737 0.369 0.50545 0.0
H352 H 0.17649 0.30408 0.55535 0.0
C353 C 0.13355 0.36668 0.60299 0.0
C354 C 0.11369 0.33586 0.61459 0.0
C355 C 0.14988 0.36873 0.58061 0.0
C356 C 0.17881 0.32201 0.54147 0.0
H357 H 0.28086 0.41414 0.44198 0.0
H358 H 0.24726 0.40706 0.47897 0.0
H359 H 0.20794 0.30958 0.51758 0.0
H360 H 0.09426 0.28294 0.61169 0.0
H361 H 0.12234 0.28621 0.57226 0.0
H362 H 0.15827 0.38146 0.52923 0.0
C363 C 0.24423 0.38513 0.46953 0.0
C364 C 0.19694 0.32519 0.51977 0.0
C365 C 0.2635 0.38924 0.44836 0.0
C366 C 0.10972 0.30699 0.60313 0.0
C367 C 0.12601 0.30898 0.58066 0.0
C368 C 0.16916 0.36574 0.52708 0.0
C369 C 0.22199 0.35317 0.47876 0.0
C370 C 0.20171 0.34893 0.50154 0.0
C371 C 0.14654 0.33993 0.56914 0.0
C372 C 0.16482 0.34239 0.54554 0.0
H373 H 0.2366 0.30792 0.43561 0.0
H374 H 0.2027 0.30049 0.47264 0.0
H375 H 0.18999 0.38714 0.49166 0.0
H376 H 0.13679 0.38926 0.61149 0.0
H377 H 0.16571 0.39304 0.57259 0.0
C378 C 0.85229 0.11468 0.92703 0.0
C379 C 0.87122 0.11332 0.94687 0.0
C380 C 0.86781 0.13291 0.90552 0.0
C381 C 0.9482 0.20178 0.88238 0.0
H382 H 0.91053 0.16707 0.81743 0.0
C383 C 0.99572 0.28255 0.79341 0.0
C384 C -0.00079 0.26753 0.77185 0.0
C385 C 0.97977 0.26345 0.81448 0.0
C386 C 0.92154 0.17708 0.83539 0.0
H387 H 0.92108 0.13062 0.96023 0.0
H388 H 0.94845 0.16242 0.9226 0.0
H389 H 0.88415 0.13417 0.85459 0.0
H390 H 0.98793 0.22085 0.75495 0.0
H391 H 0.96004 0.1872 0.7918 0.0
H392 H 0.98583 0.24449 0.86318 0.0
C393 C 0.92158 0.1494 0.92355 0.0
C394 C 0.90618 0.15833 0.85677 0.0
C395 C 0.90599 0.13104 0.94503 0.0
C396 C 0.98565 0.23294 0.77146 0.0
C397 C 0.96958 0.21375 0.79252 0.0
C398 C 0.96348 0.22058 0.86102 0.0
C399 C 0.90271 0.15057 0.90345 0.0
C400 C 0.91927 0.17042 0.88059 0.0
C401 C 0.96668 0.22878 0.81444 0.0
C402 C 0.95036 0.20854 0.8372 0.0
H403 H 0.82543 0.10183 0.92828 0.0
H404 H 0.85245 0.1337 0.89069 0.0
H405 H 0.95886 0.21211 0.90036 0.0
H406 H 0.00556 0.30917 0.79397 0.0
H407 H 0.97748 0.27585 0.83078 0.0
C408 C 0.80479 0.97893 0.11835 0.0
C409 C 0.83273 0.0008 0.1043 0.0
C410 C 0.80843 0.96535 0.14058 0.0
C411 C 0.86802 0.94938 0.17585 0.0
H412 H 0.80977 0.93768 0.23126 0.0
C413 C 0.88555 0.90748 0.27409 0.0
C414 C 0.85665 0.8852 0.28701 0.0
C415 C 0.88345 0.92206 0.2518 0.0
C416 C 0.82604 0.94041 0.21591 0.0
H417 H 0.88635 0.02653 0.10268 0.0
H418 H 0.89299 0.0031 0.14171 0.0
H419 H 0.80473 0.96235 0.19274 0.0
H420 H 0.80296 0.85951 0.28648 0.0
H421 H 0.79907 0.88478 0.24764 0.0
H422 H 0.88933 0.92743 0.19914 0.0
C423 C 0.86815 0.99576 0.13534 0.0
C424 C 0.82313 0.95459 0.19374 0.0
C425 C 0.86445 0.00932 0.11307 0.0
C426 C 0.8256 0.87715 0.27705 0.0
C427 C 0.82345 0.89174 0.25485 0.0
C428 C 0.87096 0.93522 0.19808 0.0
C429 C 0.84017 0.97356 0.14944 0.0
C430 C 0.84392 0.95911 0.17331 0.0
C431 C 0.85234 0.91455 0.24194 0.0
C432 C 0.84987 0.93035 0.21838 0.0
H433 H 0.78009 0.97238 0.1121 0.0
H434 H 0.78627 0.94812 0.15068 0.0
H435 H 0.8842 0.95204 0.16047 0.0
H436 H 0.90975 0.91377 0.28135 0.0
H437 H 0.90623 0.93963 0.2425 0.0
C438 C 0.08089 0.88089 0.60475 0.0
C439 C 0.07775 0.85215 0.61595 0.0
C440 C 0.06389 0.87872 0.58262 0.0
C441 C 0.99051 0.82045 0.54618 0.0
H442 H 0.03405 0.88066 0.49113 0.0
C443 C 0.92309 0.80224 0.45209 0.0
C444 C 0.92968 0.83048 0.43822 0.0
C445 C 0.94221 0.805 0.47307 0.0
C446 C 0.02124 0.8639 0.50641 0.0
H447 H 0.05617 0.79894 0.61204 0.0
H448 H 0.02566 0.79492 0.57385 0.0
H449 H 0.06524 0.88585 0.52902 0.0
H450 H 0.96046 0.8839 0.43596 0.0
H451 H 0.99323 0.88912 0.47299 0.0
H452 H 0.94631 0.79904 0.52418 0.0
C453 C 0.04079 0.81908 0.58232 0.0
C454 C 0.03926 0.86685 0.52814 0.0
C455 C 0.05814 0.82134 0.60421 0.0
C456 C 0.95537 0.86165 0.44604 0.0
C457 C 0.97424 0.86453 0.46723 0.0
C458 C 0.97237 0.81778 0.52464 0.0
C459 C 0.04328 0.84771 0.5713 0.0
C460 C 0.02415 0.84504 0.54825 0.0
C461 C 0.96792 0.83624 0.48117 0.0
C462 C 0.98745 0.83932 0.50429 0.0
H463 H 0.09629 0.90499 0.61327 0.0
H464 H 0.06635 0.90124 0.57462 0.0
H465 H 0.97797 0.80356 0.56147 0.0
H466 H 0.90275 0.778 0.44695 0.0
H467 H 0.93667 0.78251 0.48294 0.0
C468 C 0.28674 0.07332 0.94348 0.0
C469 C 0.32148 0.08951 0.94553 0.0
C470 C 0.27074 0.05518 0.92202 0.0
C471 C 0.28474 0.04495 0.85552 0.0
H472 H 0.20625 0.95802 0.86276 0.0
C473 C 0.20387 0.96781 0.77142 0.0
C474 C 0.19312 0.9337 0.77158 0.0
C475 C 0.21946 0.98752 0.79238 0.0
C476 C 0.2282 0.98221 0.8604 0.0
H477 H 0.36668 0.09838 0.92726 0.0
H478 H 0.33894 0.06742 0.88951 0.0
H479 H 0.23341 0.9912 0.89971 0.0
H480 H 0.19177 0.89372 0.79314 0.0
H481 H 0.21834 0.92783 0.82994 0.0
H482 H 0.27961 0.03583 0.8162 0.0
C483 C 0.32401 0.06917 0.90425 0.0
C484 C 0.24359 0.00138 0.88159 0.0
C485 C 0.33993 0.08698 0.92581 0.0
C486 C 0.19897 0.91978 0.79283 0.0
C487 C 0.2142 0.93934 0.81386 0.0
C488 C 0.26912 0.02593 0.83431 0.0
C489 C 0.28918 0.05287 0.90211 0.0
C490 C 0.27219 0.03292 0.87945 0.0
C491 C 0.22458 0.97346 0.81396 0.0
C492 C 0.24077 0.9942 0.83648 0.0
H493 H 0.27196 0.0745 0.95861 0.0
H494 H 0.24391 0.04307 0.92097 0.0
H495 H 0.30657 0.06923 0.85317 0.0
H496 H 0.20005 0.97916 0.7551 0.0
H497 H 0.22707 0.01367 0.79183 0.0
C498 C 0.22034 0.14303 0.04105 0.0
C499 C 0.23937 0.14753 0.01965 0.0
C500 C 0.18867 0.13899 0.03903 0.0
C501 C 0.11868 0.1054 0.99765 0.0
H502 H 0.08637 0.14952 0.04126 0.0
C503 C 0.98263 0.07779 0.99652 0.0
C504 C 0.96872 0.07731 0.01977 0.0
C505 C 0.01636 0.08803 0.99462 0.0
C506 C 0.09496 0.13677 0.02912 0.0
H507 H 0.2411 0.15215 0.97951 0.0
H508 H 0.18506 0.14448 0.9759 0.0
H509 H 0.14533 0.16699 0.04112 0.0
H510 H 0.97807 0.08525 0.05933 0.0
H511 H 0.0367 0.1021 0.05621 0.0
H512 H 0.06818 0.07421 0.98638 0.0
C513 C 0.19484 0.14434 0.99417 0.0
C514 C 0.12867 0.14696 0.02893 0.0
C515 C 0.22678 0.1489 0.99624 0.0
C516 C 0.98851 0.08585 0.04118 0.0
C517 C 0.02204 0.09574 0.03933 0.0
C518 C 0.08484 0.09495 0.99801 0.0
C519 C 0.17545 0.13895 0.01555 0.0
C520 C 0.14067 0.13098 0.01351 0.0
C521 C 0.0365 0.09766 0.01599 0.0
C522 C 0.07258 0.11012 0.01412 0.0
H523 H 0.22974 0.14198 0.05927 0.0
H524 H 0.17401 0.13456 0.05574 0.0
H525 H 0.12742 0.0925 0.98579 0.0
H526 H 0.96774 0.07153 0.97977 0.0
H527 H 0.02685 0.08942 0.97637 0.0
C528 C 0.02659 0.97422 0.37146 0.0
C529 C 0.00791 0.95562 0.35097 0.0
C530 C 0.05595 0.00416 0.36786 0.0
C531 C 0.09148 0.07277 0.32513 0.0
H532 H 0.16949 0.10313 0.36679 0.0
C533 C 0.19898 0.20969 0.32755 0.0
C534 C 0.21056 0.22223 0.3515 0.0
C535 C 0.1769 0.1758 0.32408 0.0
C536 C 0.14783 0.09499 0.35505 0.0
H537 H 0.00543 0.95262 0.31075 0.0
H538 H 0.05694 0.00566 0.30438 0.0
H539 H 0.12734 0.04431 0.36635 0.0
H540 H 0.20718 0.20981 0.39064 0.0
H541 H 0.16829 0.15086 0.38469 0.0
H542 H 0.11115 0.12368 0.31476 0.0
C543 C 0.04888 0.99689 0.32317 0.0
C544 C 0.12389 0.06138 0.35471 0.0
C545 C 0.01966 0.96662 0.32679 0.0
C546 C 0.19896 0.20062 0.37195 0.0
C547 C 0.17692 0.16689 0.36851 0.0
C548 C 0.11539 0.10648 0.32557 0.0
C549 C 0.0669 0.01616 0.3437 0.0
C550 C 0.09504 0.05018 0.34035 0.0
C551 C 0.1661 0.15403 0.34452 0.0
C552 C 0.14322 0.11801 0.34119 0.0
H553 H 0.01796 0.96602 0.39025 0.0
H554 H 0.06918 0.01874 0.384 0.0
H555 H 0.06926 0.06475 0.31408 0.0
H556 H 0.20787 0.22587 0.31146 0.0
H557 H 0.16896 0.16652 0.30539 0.0
C558 C 0.04753 0.17139 0.7044 0.0
C559 C 0.04578 0.18863 0.68362 0.0
C560 C 0.04913 0.1425 0.70127 0.0
C561 C 0.08186 0.10635 0.65912 0.0
H562 H 0.03399 0.02835 0.70077 0.0
C563 C 0.11008 0.99809 0.6607 0.0
C564 C 0.11 0.9854 0.6844 0.0
C565 C 0.09899 0.0208 0.65758 0.0
C566 C 0.04765 0.05004 0.68909 0.0
H567 H 0.04337 0.18927 0.64341 0.0
H568 H 0.04687 0.13865 0.63785 0.0
H569 H 0.01763 0.0707 0.70042 0.0
H570 H 0.10003 0.98739 0.72353 0.0
H571 H 0.0815 0.02759 0.71827 0.0
H572 H 0.113 0.08659 0.64874 0.0
C573 C 0.04667 0.1474 0.65649 0.0
C574 C 0.03812 0.07407 0.68878 0.0
C575 C 0.04453 0.17609 0.65965 0.0
C576 C 0.09984 0.99654 0.70503 0.0
C577 C 0.089 0.01931 0.70196 0.0
C578 C 0.0916 0.08241 0.65958 0.0
C579 C 0.04947 0.1307 0.67729 0.0
C580 C 0.05571 0.1028 0.67431 0.0
C581 C 0.08784 0.03119 0.67816 0.0
C582 C 0.07519 0.05452 0.67515 0.0
H583 H 0.04847 0.18074 0.72303 0.0
H584 H 0.05165 0.13023 0.71758 0.0
H585 H 0.09598 0.12852 0.64799 0.0
H586 H 0.11758 0.98957 0.64451 0.0
H587 H 0.09831 0.02951 0.63903 0.0
C588 C 0.66614 0.0389 0.01943 0.0
C589 C 0.69219 0.05114 0.03675 0.0
C590 C 0.64036 0.04586 0.02219 0.0
C591 C 0.6247 0.10948 0.04301 0.0
H592 H 0.53152 0.04186 0.04455 0.0
C593 C 0.52152 0.14415 0.04729 0.0
C594 C 0.49234 0.12409 0.03369 0.0
C595 C 0.5454 0.13454 0.05046 0.0
C596 C 0.55739 0.06111 0.04378 0.0
H597 H 0.71202 0.07996 0.07046 0.0
H598 H 0.66723 0.09299 0.07488 0.0
H599 H 0.57382 0.02542 0.04455 0.0
H600 H 0.46525 0.07767 0.01328 0.0
H601 H 0.50754 0.06228 0.01727 0.0
H602 H 0.60872 0.14522 0.04075 0.0
C603 C 0.66654 0.07759 0.0595 0.0
C604 C 0.58152 0.05161 0.044 0.0
C605 C 0.69192 0.07001 0.05705 0.0
C606 C 0.48769 0.09423 0.02339 0.0
C607 C 0.51174 0.08497 0.02616 0.0
C608 C 0.6006 0.11901 0.04225 0.0
C609 C 0.64076 0.06577 0.04197 0.0
C610 C 0.61529 0.07572 0.04343 0.0
C611 C 0.54087 0.10487 0.03982 0.0
C612 C 0.5666 0.09492 0.04234 0.0
H613 H 0.66603 0.0244 1.00361 0.0
H614 H 0.62075 0.03671 0.0084 0.0
H615 H 0.65072 0.12845 0.04234 0.0
H616 H 0.52615 0.16744 0.05533 0.0
H617 H 0.5673 0.15033 0.06137 0.0
C618 C 0.71446 0.68594 0.38387 0.0
C619 C 0.72201 0.71882 0.37987 0.0
C620 C 0.68142 0.66043 0.38569 0.0
C621 C 0.5963 0.64119 0.36871 0.0
H622 H 0.57079 0.56361 0.40991 0.0
C623 C 0.46064 0.53245 0.37692 0.0
C624 C 0.45719 0.50115 0.37224 0.0
C625 C 0.49219 0.56021 0.38041 0.0
C626 C 0.57762 0.58519 0.39836 0.0
H627 H 0.70132 0.75123 0.37579 0.0
H628 H 0.64366 0.70697 0.37975 0.0
H629 H 0.62753 0.61035 0.41196 0.0
H630 H 0.48355 0.47391 0.3684 0.0
H631 H 0.53857 0.52228 0.37476 0.0
H632 H 0.54618 0.61588 0.35527 0.0
C633 C 0.66306 0.70055 0.38068 0.0
C634 C 0.61014 0.61188 0.39939 0.0
C635 C 0.69606 0.72595 0.37853 0.0
C636 C 0.48563 0.49788 0.37171 0.0
C637 C 0.51702 0.52544 0.37558 0.0
C638 C 0.56368 0.61467 0.36793 0.0
C639 C 0.65526 0.66738 0.38388 0.0
C640 C 0.62006 0.64 0.38426 0.0
C641 C 0.52063 0.5569 0.37976 0.0
C642 C 0.55422 0.58622 0.38243 0.0
H643 H 0.73408 0.67982 0.38477 0.0
H644 H 0.67642 0.63516 0.38773 0.0
H645 H 0.60309 0.66212 0.35646 0.0
H646 H 0.43903 0.53553 0.3774 0.0
H647 H 0.49439 0.58424 0.38368 0.0
C648 C 0.15882 0.72778 0.69081 0.0
C649 C 0.14572 0.74094 0.70797 0.0
C650 C 0.15356 0.69567 0.694 0.0
C651 C 0.09301 0.61561 0.71577 0.0
H652 H 0.16384 0.5946 0.7182 0.0
C653 C 0.0644 0.47979 0.72164 0.0
C654 C 0.08531 0.47157 0.70827 0.0
C655 C 0.0728 0.51298 0.72465 0.0
C656 C 0.14371 0.59992 0.71719 0.0
H657 H 0.1171 0.73141 0.74183 0.0
H658 H 0.107 0.67462 0.74699 0.0
H659 H 0.17743 0.65256 0.71727 0.0
H660 H 0.13213 0.49228 0.68828 0.0
H661 H 0.14547 0.54945 0.69197 0.0
H662 H 0.0592 0.56336 0.71415 0.0
C663 C 0.12179 0.6894 0.73141 0.0
C664 C 0.15158 0.63312 0.71688 0.0
C665 C 0.12769 0.72178 0.72853 0.0
C666 C 0.11494 0.49744 0.6982 0.0
C667 C 0.12301 0.53048 0.7008 0.0
C668 C 0.0851 0.5824 0.71553 0.0
C669 C 0.13449 0.67608 0.71406 0.0
C670 C 0.12629 0.64115 0.716 0.0
C671 C 0.10208 0.53877 0.71403 0.0
C672 C 0.11037 0.57408 0.71598 0.0
H673 H 0.17271 0.74218 0.6748 0.0
H674 H 0.16337 0.68569 0.68033 0.0
H675 H 0.07314 0.62137 0.71486 0.0
H676 H 0.04124 0.46061 0.7295 0.0
H677 H 0.05627 0.51834 0.7353 0.0
loop_
_geom_bond_atom_site_label_1
_geom_bond_atom_site_label_2
_geom_bond_distance
_geom_bond_site_symmetry_2
_ccdc_geom_bond_type
C0 C1 1.443 . S
C0 N4 1.376 . S
C0 C38 1.389 . S
C1 C0 1.443 . S
C1 C2 1.340 . S
C1 H41 0.951 . S
C2 C1 1.340 . S
C2 C3 1.439 . S
C2 H42 0.950 . S
C3 C2 1.439 . S
C3 N4 1.374 . S
C3 C37 1.395 . S
N4 C0 1.376 . S
N4 C3 1.374 . S
N4 Co5 2.008 . S
Co5 N4 2.008 . S
Co5 N6 1.995 . S
Co5 N11 2.008 1_554 S
Co5 N16 1.995 . S
Co5 N21 2.282 . S
Co5 N27 2.282 . S
N6 Co5 1.995 . S
N6 C7 1.376 . S
N6 C10 1.383 1_554 S
C7 N6 1.376 . S
C7 C8 1.446 . S
C7 C37 1.391 . S
C8 C7 1.446 . S
C8 C9 1.339 1_554 S
C8 H43 0.949 . S
C9 C8 1.339 1_556 S
C9 C10 1.439 . S
C9 H44 0.950 . S
C10 N6 1.383 1_556 S
C10 C9 1.439 . S
C10 C39 1.392 . S
N11 Co5 2.008 1_556 S
N11 C12 1.376 . S
N11 C15 1.374 . S
C12 N11 1.376 . S
C12 C13 1.443 . S
C12 C39 1.389 . S
C13 C12 1.443 . S
C13 C14 1.340 . S
C13 H45 0.951 . S
C14 C13 1.340 . S
C14 C15 1.439 . S
C14 H46 0.950 . S
C15 N11 1.374 . S
C15 C14 1.439 . S
C15 C40 1.395 . S
N16 Co5 1.995 . S
N16 C17 1.376 . S
N16 C20 1.383 . S
C17 N16 1.376 . S
C17 C18 1.446 . S
C17 C40 1.391 1_554 S
C18 C17 1.446 . S
C18 C19 1.339 . S
C18 H47 0.949 . S
C19 C18 1.339 . S
C19 C20 1.439 . S
C19 H48 0.950 . S
C20 N16 1.383 . S
C20 C19 1.439 . S
C20 C38 1.392 . S
N21 Co5 2.282 . S
N21 C24 1.332 . S
N21 C26 1.332 . S
C22 C23 1.386 . S
C22 C25 1.388 . S
C23 C22 1.386 . S
C23 C24 1.382 . S
C23 H49 0.950 . S
C24 N21 1.332 . S
C24 C23 1.382 . S
C24 H35 0.952 . S
C25 C22 1.388 . S
C25 C26 1.382 . S
C25 H50 0.950 . S
C26 N21 1.332 . S
C26 C25 1.382 . S
C26 H36 0.948 . S
N27 Co5 2.282 . S
N27 C31 1.332 . S
N27 C32 1.332 . S
C28 C29 1.388 . S
C28 C32 1.382 . S
C28 H51 0.950 . S
C29 C28 1.388 . S
C29 C30 1.386 . S
C30 C29 1.386 . S
C30 C31 1.382 . S
C30 H52 0.950 . S
C31 N27 1.332 . S
C31 C30 1.382 . S
C31 H33 0.952 . S
C32 N27 1.332 . S
C32 C28 1.382 . S
C32 H34 0.948 . S
H33 C31 0.952 . S
H34 C32 0.948 . S
H35 C24 0.952 . S
H36 C26 0.948 . S
C37 C3 1.395 . S
C37 C7 1.391 . S
C38 C0 1.389 . S
C38 C20 1.392 . S
C39 C10 1.392 . S
C39 C12 1.389 . S
C40 C15 1.395 . S
C40 C17 1.391 1_556 S
H41 C1 0.951 . S
H42 C2 0.950 . S
H43 C8 0.949 . S
H44 C9 0.950 . S
H45 C13 0.951 . S
H46 C14 0.950 . S
H47 C18 0.949 . S
H48 C19 0.950 . S
H49 C23 0.950 . S
H50 C25 0.950 . S
H51 C28 0.950 . S
H52 C30 0.950 . S
C53 C54 1.443 . S
C53 N57 1.376 . S
C53 C91 1.389 . S
C54 C53 1.443 . S
C54 C55 1.340 . S
C54 H94 0.951 . S
C55 C54 1.340 . S
C55 C56 1.439 . S
C55 H95 0.950 . S
C56 C55 1.439 . S
C56 N57 1.374 . S
C56 C90 1.395 . S
N57 C53 1.376 . S
N57 C56 1.374 . S
N57 Co58 2.008 . S
Co58 N57 2.008 . S
Co58 N59 1.995 . S
Co58 N64 2.008 . S
Co58 N69 1.995 . S
Co58 N74 2.282 . S
Co58 N80 2.282 . S
N59 Co58 1.995 . S
N59 C60 1.376 . S
N59 C63 1.383 . S
C60 N59 1.376 . S
C60 C61 1.446 . S
C60 C90 1.391 . S
C61 C60 1.446 . S
C61 C62 1.339 . S
C61 H96 0.949 . S
C62 C61 1.339 . S
C62 C63 1.439 . S
C62 H97 0.950 . S
C63 N59 1.383 . S
C63 C62 1.439 . S
C63 C92 1.392 . S
N64 Co58 2.008 . S
N64 C65 1.376 . S
N64 C68 1.374 . S
C65 N64 1.376 . S
C65 C66 1.443 . S
C65 C92 1.389 . S
C66 C65 1.443 . S
C66 C67 1.340 . S
C66 H98 0.951 . S
C67 C66 1.340 . S
C67 C68 1.439 . S
C67 H99 0.950 . S
C68 N64 1.374 . S
C68 C67 1.439 . S
C68 C93 1.395 . S
N69 Co58 1.995 . S
N69 C70 1.376 . S
N69 C73 1.383 . S
C70 N69 1.376 . S
C70 C71 1.446 . S
C70 C93 1.391 . S
C71 C70 1.446 . S
C71 C72 1.339 . S
C71 H100 0.949 . S
C72 C71 1.339 . S
C72 C73 1.439 . S
C72 H101 0.950 . S
C73 N69 1.383 . S
C73 C72 1.439 . S
C73 C91 1.392 . S
N74 Co58 2.282 . S
N74 C77 1.332 . S
N74 C79 1.332 . S
C75 C76 1.386 . S
C75 C78 1.388 . S
C76 C75 1.386 . S
C76 C77 1.382 . S
C76 H102 0.950 . S
C77 N74 1.332 . S
C77 C76 1.382 . S
C77 H88 0.952 . S
C78 C75 1.388 . S
C78 C79 1.382 . S
C78 H103 0.950 . S
C79 N74 1.332 . S
C79 C78 1.382 . S
C79 H89 0.948 . S
N80 Co58 2.282 . S
N80 C84 1.332 . S
N80 C85 1.332 . S
C81 C82 1.388 . S
C81 C85 1.382 . S
C81 H104 0.950 . S
C82 C81 1.388 . S
C82 C83 1.386 . S
C83 C82 1.386 . S
C83 C84 1.382 . S
C83 H105 0.950 . S
C84 N80 1.332 . S
C84 C83 1.382 . S
C84 H86 0.952 . S
C85 N80 1.332 . S
C85 C81 1.382 . S
C85 H87 0.948 . S
H86 C84 0.952 . S
H87 C85 0.948 . S
H88 C77 0.952 . S
H89 C79 0.948 . S
C90 C56 1.395 . S
C90 C60 1.391 . S
C91 C53 1.389 . S
C91 C73 1.392 . S
C92 C63 1.392 . S
C92 C65 1.389 . S
C93 C68 1.395 . S
C93 C70 1.391 . S
H94 C54 0.951 . S
H95 C55 0.950 . S
H96 C61 0.949 . S
H97 C62 0.950 . S
H98 C66 0.951 . S
H99 C67 0.950 . S
H100 C71 0.949 . S
H101 C72 0.950 . S
H102 C76 0.950 . S
H103 C78 0.950 . S
H104 C81 0.950 . S
H105 C83 0.950 . S
C106 C107 1.443 . S
C106 N110 1.376 . S
C106 C144 1.389 1_455 S
C107 C106 1.443 . S
C107 C108 1.340 . S
C107 H147 0.951 . S
C108 C107 1.340 . S
C108 C109 1.439 . S
C108 H148 0.950 . S
C109 C108 1.439 . S
C109 N110 1.374 . S
C109 C143 1.395 . S
N110 C106 1.376 . S
N110 C109 1.374 . S
N110 Co111 2.008 . S
Co111 N110 2.008 . S
Co111 N112 1.995 . S
Co111 N117 2.008 . S
Co111 N122 1.995 1_455 S
Co111 N127 2.282 . S
Co111 N133 2.282 . S
N112 Co111 1.995 . S
N112 C113 1.376 . S
N112 C116 1.383 . S
C113 N112 1.376 . S
C113 C114 1.446 . S
C113 C143 1.391 . S
C114 C113 1.446 . S
C114 C115 1.339 . S
C114 H149 0.949 . S
C115 C114 1.339 . S
C115 C116 1.439 . S
C115 H150 0.950 . S
C116 N112 1.383 . S
C116 C115 1.439 . S
C116 C145 1.392 . S
N117 Co111 2.008 . S
N117 C118 1.376 . S
N117 C121 1.374 1_455 S
C118 N117 1.376 . S
C118 C119 1.443 . S
C118 C145 1.389 . S
C119 C118 1.443 . S
C119 C120 1.340 1_455 S
C119 H151 0.951 . S
C120 C119 1.340 1_655 S
C120 C121 1.439 . S
C120 H152 0.950 . S
C121 N117 1.374 1_655 S
C121 C120 1.439 . S
C121 C146 1.395 . S
N122 Co111 1.995 1_655 S
N122 C123 1.376 . S
N122 C126 1.383 . S
C123 N122 1.376 . S
C123 C124 1.446 . S
C123 C146 1.391 . S
C124 C123 1.446 . S
C124 C125 1.339 . S
C124 H153 0.949 . S
C125 C124 1.339 . S
C125 C126 1.439 . S
C125 H154 0.950 . S
C126 N122 1.383 . S
C126 C125 1.439 . S
C126 C144 1.392 . S
N127 Co111 2.282 . S
N127 C130 1.332 1_455 S
N127 C132 1.332 . S
C128 C129 1.386 1_455 S
C128 C131 1.388 . S
C129 C128 1.386 1_655 S
C129 C130 1.382 . S
C129 H155 0.950 . S
C130 N127 1.332 1_655 S
C130 C129 1.382 . S
C130 H141 0.952 . S
C131 C128 1.388 . S
C131 C132 1.382 . S
C131 H156 0.950 . S
C132 N127 1.332 . S
C132 C131 1.382 . S
C132 H142 0.948 . S
N133 Co111 2.282 . S
N133 C137 1.332 . S
N133 C138 1.332 1_455 S
C134 C135 1.388 1_655 S
C134 C138 1.382 . S
C134 H157 0.950 . S
C135 C134 1.388 1_455 S
C135 C136 1.386 . S
C136 C135 1.386 . S
C136 C137 1.382 . S
C136 H158 0.950 . S
C137 N133 1.332 . S
C137 C136 1.382 . S
C137 H139 0.952 . S
C138 N133 1.332 1_655 S
C138 C134 1.382 . S
C138 H140 0.948 . S
H139 C137 0.952 . S
H140 C138 0.948 . S
H141 C130 0.952 . S
H142 C132 0.948 . S
C143 C109 1.395 . S
C143 C113 1.391 . S
C144 C106 1.389 1_655 S
C144 C126 1.392 . S
C145 C116 1.392 . S
C145 C118 1.389 . S
C146 C121 1.395 . S
C146 C123 1.391 . S
H147 C107 0.951 . S
H148 C108 0.950 . S
H149 C114 0.949 . S
H150 C115 0.950 . S
H151 C119 0.951 . S
H152 C120 0.950 . S
H153 C124 0.949 . S
H154 C125 0.950 . S
H155 C129 0.950 . S
H156 C131 0.950 . S
H157 C134 0.950 . S
H158 C136 0.950 . S
C159 C160 1.443 . S
C159 N163 1.376 . S
C159 C197 1.389 1_545 S
C160 C159 1.443 . S
C160 C161 1.340 . S
C160 H200 0.951 . S
C161 C160 1.340 . S
C161 C162 1.439 . S
C161 H201 0.950 . S
C162 C161 1.439 . S
C162 N163 1.374 . S
C162 C196 1.395 . S
N163 C159 1.376 . S
N163 C162 1.374 . S
N163 Co164 2.008 . S
Co164 N163 2.008 . S
Co164 N165 1.995 . S
Co164 N170 2.008 1_554 S
Co164 N175 1.995 1_545 S
Co164 N180 2.282 . S
Co164 N186 2.282 . S
N165 Co164 1.995 . S
N165 C166 1.376 . S
N165 C169 1.383 1_554 S
C166 N165 1.376 . S
C166 C167 1.446 . S
C166 C196 1.391 . S
C167 C166 1.446 . S
C167 C168 1.339 1_554 S
C167 H202 0.949 . S
C168 C167 1.339 1_556 S
C168 C169 1.439 . S
C168 H203 0.950 . S
C169 N165 1.383 1_556 S
C169 C168 1.439 . S
C169 C198 1.392 . S
N170 Co164 2.008 1_556 S
N170 C171 1.376 . S
N170 C174 1.374 1_545 S
C171 N170 1.376 . S
C171 C172 1.443 . S
C171 C198 1.389 . S
C172 C171 1.443 . S
C172 C173 1.340 1_545 S
C172 H204 0.951 . S
C173 C172 1.340 1_565 S
C173 C174 1.439 . S
C173 H205 0.950 . S
C174 N170 1.374 1_565 S
C174 C173 1.439 . S
C174 C199 1.395 . S
N175 Co164 1.995 1_565 S
N175 C176 1.376 . S
N175 C179 1.383 . S
C176 N175 1.376 . S
C176 C177 1.446 . S
C176 C199 1.391 1_554 S
C177 C176 1.446 . S
C177 C178 1.339 . S
C177 H206 0.949 . S
C178 C177 1.339 . S
C178 C179 1.439 . S
C178 H207 0.950 . S
C179 N175 1.383 . S
C179 C178 1.439 . S
C179 C197 1.392 . S
N180 Co164 2.282 . S
N180 C183 1.332 1_545 S
N180 C185 1.332 . S
C181 C182 1.386 1_545 S
C181 C184 1.388 . S
C182 C181 1.386 1_565 S
C182 C183 1.382 . S
C182 H208 0.950 . S
C183 N180 1.332 1_565 S
C183 C182 1.382 . S
C183 H194 0.952 . S
C184 C181 1.388 . S
C184 C185 1.382 . S
C184 H209 0.950 . S
C185 N180 1.332 . S
C185 C184 1.382 . S
C185 H195 0.948 . S
N186 Co164 2.282 . S
N186 C190 1.332 . S
N186 C191 1.332 1_545 S
C187 C188 1.388 1_565 S
C187 C191 1.382 . S
C187 H210 0.950 . S
C188 C187 1.388 1_545 S
C188 C189 1.386 . S
C189 C188 1.386 . S
C189 C190 1.382 . S
C189 H211 0.950 . S
C190 N186 1.332 . S
C190 C189 1.382 . S
C190 H192 0.952 . S
C191 N186 1.332 1_565 S
C191 C187 1.382 . S
C191 H193 0.948 . S
H192 C190 0.952 . S
H193 C191 0.948 . S
H194 C183 0.952 . S
H195 C185 0.948 . S
C196 C162 1.395 . S
C196 C166 1.391 . S
C197 C159 1.389 1_565 S
C197 C179 1.392 . S
C198 C169 1.392 . S
C198 C171 1.389 . S
C199 C174 1.395 . S
C199 C176 1.391 1_556 S
H200 C160 0.951 . S
H201 C161 0.950 . S
H202 C167 0.949 . S
H203 C168 0.950 . S
H204 C172 0.951 . S
H205 C173 0.950 . S
H206 C177 0.949 . S
H207 C178 0.950 . S
H208 C182 0.950 . S
H209 C184 0.950 . S
H210 C187 0.950 . S
H211 C189 0.950 . S
C212 C213 1.443 . S
C212 N216 1.376 . S
C212 C250 1.389 . S
C213 C212 1.443 . S
C213 C214 1.340 . S
C213 H253 0.951 . S
C214 C213 1.340 . S
C214 C215 1.439 . S
C214 H254 0.950 . S
C215 C214 1.439 . S
C215 N216 1.374 . S
C215 C249 1.395 . S
N216 C212 1.376 . S
N216 C215 1.374 . S
N216 Co217 2.008 . S
Co217 N216 2.008 . S
Co217 N218 1.995 . S
Co217 N223 2.008 . S
Co217 N228 1.995 . S
Co217 N233 2.282 . S
Co217 N239 2.282 . S
N218 Co217 1.995 . S
N218 C219 1.376 . S
N218 C222 1.383 . S
C219 N218 1.376 . S
C219 C220 1.446 . S
C219 C249 1.391 . S
C220 C219 1.446 . S
C220 C221 1.339 . S
C220 H255 0.949 . S
C221 C220 1.339 . S
C221 C222 1.439 . S
C221 H256 0.950 . S
C222 N218 1.383 . S
C222 C221 1.439 . S
C222 C251 1.392 . S
N223 Co217 2.008 . S
N223 C224 1.376 . S
N223 C227 1.374 . S
C224 N223 1.376 . S
C224 C225 1.443 . S
C224 C251 1.389 . S
C225 C224 1.443 . S
C225 C226 1.340 . S
C225 H257 0.951 . S
C226 C225 1.340 . S
C226 C227 1.439 . S
C226 H258 0.950 . S
C227 N223 1.374 . S
C227 C226 1.439 . S
C227 C252 1.395 . S
N228 Co217 1.995 . S
N228 C229 1.376 . S
N228 C232 1.383 . S
C229 N228 1.376 . S
C229 C230 1.446 . S
C229 C252 1.391 . S
C230 C229 1.446 . S
C230 C231 1.339 . S
C230 H259 0.949 . S
C231 C230 1.339 . S
C231 C232 1.439 . S
C231 H260 0.950 . S
C232 N228 1.383 . S
C232 C231 1.439 . S
C232 C250 1.392 . S
N233 Co217 2.282 . S
N233 C236 1.332 . S
N233 C238 1.332 . S
C234 C235 1.386 . S
C234 C237 1.388 . S
C235 C234 1.386 . S
C235 C236 1.382 . S
C235 H261 0.950 . S
C236 N233 1.332 . S
C236 C235 1.382 . S
C236 H247 0.952 . S
C237 C234 1.388 . S
C237 C238 1.382 . S
C237 H262 0.950 . S
C238 N233 1.332 . S
C238 C237 1.382 . S
C238 H248 0.948 . S
N239 Co217 2.282 . S
N239 C243 1.332 . S
N239 C244 1.332 . S
C240 C241 1.388 . S
C240 C244 1.382 1_455 S
C240 H263 0.950 . S
C241 C240 1.388 . S
C241 C242 1.386 1_455 S
C242 C241 1.386 1_655 S
C242 C243 1.382 . S
C242 H264 0.950 . S
C243 N239 1.332 . S
C243 C242 1.382 . S
C243 H245 0.952 . S
C244 N239 1.332 . S
C244 C240 1.382 1_655 S
C244 H246 0.948 . S
H245 C243 0.952 . S
H246 C244 0.948 . S
H247 C236 0.952 . S
H248 C238 0.948 . S
C249 C215 1.395 . S
C249 C219 1.391 . S
C250 C212 1.389 . S
C250 C232 1.392 . S
C251 C222 1.392 . S
C251 C224 1.389 . S
C252 C227 1.395 . S
C252 C229 1.391 . S
H253 C213 0.951 . S
H254 C214 0.950 . S
H255 C220 0.949 . S
H256 C221 0.950 . S
H257 C225 0.951 . S
H258 C226 0.950 . S
H259 C230 0.949 . S
H260 C231 0.950 . S
H261 C235 0.950 . S
H262 C237 0.950 . S
H263 C240 0.950 . S
H264 C242 0.950 . S
C265 C266 1.443 . S
C265 N269 1.376 . S
C265 C303 1.389 . S
C266 C265 1.443 . S
C266 C267 1.340 . S
C266 H306 0.951 . S
C267 C266 1.340 . S
C267 C268 1.439 . S
C267 H307 0.950 . S
C268 C267 1.439 . S
C268 N269 1.374 . S
C268 C302 1.395 . S
N269 C265 1.376 . S
N269 C268 1.374 . S
N269 Co270 2.008 . S
Co270 N269 2.008 . S
Co270 N271 1.995 . S
Co270 N276 2.008 . S
Co270 N281 1.995 . S
Co270 N286 2.282 . S
Co270 N292 2.282 . S
N271 Co270 1.995 . S
N271 C272 1.376 . S
N271 C275 1.383 . S
C272 N271 1.376 . S
C272 C273 1.446 . S
C272 C302 1.391 . S
C273 C272 1.446 . S
C273 C274 1.339 . S
C273 H308 0.949 . S
C274 C273 1.339 . S
C274 C275 1.439 . S
C274 H309 0.950 . S
C275 N271 1.383 . S
C275 C274 1.439 . S
C275 C304 1.392 . S
N276 Co270 2.008 . S
N276 C277 1.376 . S
N276 C280 1.374 . S
C277 N276 1.376 . S
C277 C278 1.443 . S
C277 C304 1.389 . S
C278 C277 1.443 . S
C278 C279 1.340 . S
C278 H310 0.951 . S
C279 C278 1.340 . S
C279 C280 1.439 . S
C279 H311 0.950 . S
C280 N276 1.374 . S
C280 C279 1.439 . S
C280 C305 1.395 . S
N281 Co270 1.995 . S
N281 C282 1.376 . S
N281 C285 1.383 . S
C282 N281 1.376 . S
C282 C283 1.446 . S
C282 C305 1.391 . S
C283 C282 1.446 . S
C283 C284 1.339 . S
C283 H312 0.949 . S
C284 C283 1.339 . S
C284 C285 1.439 . S
C284 H313 0.950 . S
C285 N281 1.383 . S
C285 C284 1.439 . S
C285 C303 1.392 . S
N286 Co270 2.282 . S
N286 C289 1.332 . S
N286 C291 1.332 . S
C287 C288 1.386 . S
C287 C290 1.388 . S
C288 C287 1.386 . S
C288 C289 1.382 . S
C288 H314 0.950 . S
C289 N286 1.332 . S
C289 C288 1.382 . S
C289 H300 0.952 . S
C290 C287 1.388 . S
C290 C291 1.382 . S
C290 H315 0.950 . S
C291 N286 1.332 . S
C291 C290 1.382 . S
C291 H301 0.948 . S
N292 Co270 2.282 . S
N292 C296 1.332 . S
N292 C297 1.332 . S
C293 C294 1.388 . S
C293 C297 1.382 1_545 S
C293 H316 0.950 . S
C294 C293 1.388 . S
C294 C295 1.386 1_545 S
C295 C294 1.386 1_565 S
C295 C296 1.382 . S
C295 H317 0.950 . S
C296 N292 1.332 . S
C296 C295 1.382 . S
C296 H298 0.952 . S
C297 N292 1.332 . S
C297 C293 1.382 1_565 S
C297 H299 0.948 . S
H298 C296 0.952 . S
H299 C297 0.948 . S
H300 C289 0.952 . S
H301 C291 0.948 . S
C302 C268 1.395 . S
C302 C272 1.391 . S
C303 C265 1.389 . S
C303 C285 1.392 . S
C304 C275 1.392 . S
C304 C277 1.389 . S
C305 C280 1.395 . S
C305 C282 1.391 . S
H306 C266 0.951 . S
H307 C267 0.950 . S
H308 C273 0.949 . S
H309 C274 0.950 . S
H310 C278 0.951 . S
H311 C279 0.950 . S
H312 C283 0.949 . S
H313 C284 0.950 . S
H314 C288 0.950 . S
H315 C290 0.950 . S
H316 C293 0.950 . S
H317 C295 0.950 . S
C318 C319 1.349 . S
C318 C320 1.327 . S
C318 H343 0.950 . S
C319 C318 1.349 . S
C319 C335 1.349 . S
C320 C318 1.327 . S
C320 C339 1.429 . S
C320 H344 0.950 . S
C321 C338 1.574 . S
C321 C340 1.368 . S
C321 H345 0.949 . S
H322 C326 0.949 . S
C323 C324 1.349 . S
C323 C325 1.327 . S
C323 H346 0.950 . S
C324 C323 1.349 . S
C324 C336 1.349 . S
C325 C323 1.327 . S
C325 C341 1.429 . S
C325 H347 0.950 . S
C326 H322 0.949 . S
C326 C334 1.574 . S
C326 C342 1.368 . S
H327 C335 0.950 . S
H328 C333 0.950 . S
H329 C334 0.949 . S
H330 C336 0.950 . S
H331 C337 0.950 . S
H332 C338 0.949 . S
C333 H328 0.950 . S
C333 C335 1.327 . S
C333 C339 1.429 . S
C334 C326 1.574 . S
C334 H329 0.949 . S
C334 C340 1.368 . S
C335 C319 1.349 . S
C335 H327 0.950 . S
C335 C333 1.327 . S
C336 C324 1.349 . S
C336 H330 0.950 . S
C336 C337 1.327 . S
C337 H331 0.950 . S
C337 C336 1.327 . S
C337 C341 1.429 . S
C338 C321 1.574 . S
C338 H332 0.949 . S
C338 C342 1.368 . S
C339 C320 1.429 . S
C339 C333 1.429 . S
C339 C340 1.523 . S
C340 C321 1.368 . S
C340 C334 1.368 . S
C340 C339 1.523 . S
C341 C325 1.429 . S
C341 C337 1.429 . S
C341 C342 1.523 . S
C342 C326 1.368 . S
C342 C338 1.368 . S
C342 C341 1.523 . S
H343 C318 0.950 . S
H344 C320 0.950 . S
H345 C321 0.949 . S
H346 C323 0.950 . S
H347 C325 0.950 . S
C348 C349 1.349 . S
C348 C350 1.327 . S
C348 H373 0.950 . S
C349 C348 1.349 . S
C349 C365 1.349 . S
C350 C348 1.327 . S
C350 C369 1.429 . S
C350 H374 0.950 . S
C351 C368 1.574 . S
C351 C370 1.368 . S
C351 H375 0.949 . S
H352 C356 0.949 . S
C353 C354 1.349 . S
C353 C355 1.327 . S
C353 H376 0.950 . S
C354 C353 1.349 . S
C354 C366 1.349 . S
C355 C353 1.327 . S
C355 C371 1.429 . S
C355 H377 0.950 . S
C356 H352 0.949 . S
C356 C364 1.574 . S
C356 C372 1.368 . S
H357 C365 0.950 . S
H358 C363 0.950 . S
H359 C364 0.949 . S
H360 C366 0.950 . S
H361 C367 0.950 . S
H362 C368 0.949 . S
C363 H358 0.950 . S
C363 C365 1.327 . S
C363 C369 1.429 . S
C364 C356 1.574 . S
C364 H359 0.949 . S
C364 C370 1.368 . S
C365 C349 1.349 . S
C365 H357 0.950 . S
C365 C363 1.327 . S
C366 C354 1.349 . S
C366 H360 0.950 . S
C366 C367 1.327 . S
C367 H361 0.950 . S
C367 C366 1.327 . S
C367 C371 1.429 . S
C368 C351 1.574 . S
C368 H362 0.949 . S
C368 C372 1.368 . S
C369 C350 1.429 . S
C369 C363 1.429 . S
C369 C370 1.523 . S
C370 C351 1.368 . S
C370 C364 1.368 . S
C370 C369 1.523 . S
C371 C355 1.429 . S
C371 C367 1.429 . S
C371 C372 1.523 . S
C372 C356 1.368 . S
C372 C368 1.368 . S
C372 C371 1.523 . S
H373 C348 0.950 . S
H374 C350 0.950 . S
H375 C351 0.949 . S
H376 C353 0.950 . S
H377 C355 0.950 . S
C378 C379 1.349 . S
C378 C380 1.327 . S
C378 H403 0.950 . S
C379 C378 1.349 . S
C379 C395 1.349 . S
C380 C378 1.327 . S
C380 C399 1.429 . S
C380 H404 0.950 . S
C381 C398 1.574 . S
C381 C400 1.368 . S
C381 H405 0.949 . S
H382 C386 0.949 . S
C383 C384 1.349 . S
C383 C385 1.327 . S
C383 H406 0.950 1_655 S
C384 C383 1.349 . S
C384 C396 1.349 . S
C385 C383 1.327 . S
C385 C401 1.429 . S
C385 H407 0.950 . S
C386 H382 0.949 . S
C386 C394 1.574 . S
C386 C402 1.368 . S
H387 C395 0.950 . S
H388 C393 0.950 . S
H389 C394 0.949 . S
H390 C396 0.950 . S
H391 C397 0.950 . S
H392 C398 0.949 . S
C393 H388 0.950 . S
C393 C395 1.327 . S
C393 C399 1.429 . S
C394 C386 1.574 . S
C394 H389 0.949 . S
C394 C400 1.368 . S
C395 C379 1.349 . S
C395 H387 0.950 . S
C395 C393 1.327 . S
C396 C384 1.349 . S
C396 H390 0.950 . S
C396 C397 1.327 . S
C397 H391 0.950 . S
C397 C396 1.327 . S
C397 C401 1.429 . S
C398 C381 1.574 . S
C398 H392 0.949 . S
C398 C402 1.368 . S
C399 C380 1.429 . S
C399 C393 1.429 . S
C399 C400 1.523 . S
C400 C381 1.368 . S
C400 C394 1.368 . S
C400 C399 1.523 . S
C401 C385 1.429 . S
C401 C397 1.429 . S
C401 C402 1.523 . S
C402 C386 1.368 . S
C402 C398 1.368 . S
C402 C401 1.523 . S
H403 C378 0.950 . S
H404 C380 0.950 . S
H405 C381 0.949 . S
H406 C383 0.950 1_455 S
H407 C385 0.950 . S
C408 C409 1.349 . S
C408 C410 1.327 . S
C408 H433 0.950 . S
C409 C408 1.349 . S
C409 C425 1.349 . S
C410 C408 1.327 . S
C410 C429 1.429 . S
C410 H434 0.950 . S
C411 C428 1.574 . S
C411 C430 1.368 . S
C411 H435 0.949 . S
H412 C416 0.949 . S
C413 C414 1.349 . S
C413 C415 1.327 . S
C413 H436 0.950 . S
C414 C413 1.349 . S
C414 C426 1.349 . S
C415 C413 1.327 . S
C415 C431 1.429 . S
C415 H437 0.950 . S
C416 H412 0.949 . S
C416 C424 1.574 . S
C416 C432 1.368 . S
H417 C425 0.950 . S
H418 C423 0.950 . S
H419 C424 0.949 . S
H420 C426 0.950 . S
H421 C427 0.950 . S
H422 C428 0.949 . S
C423 H418 0.950 . S
C423 C425 1.327 . S
C423 C429 1.429 . S
C424 C416 1.574 . S
C424 H419 0.949 . S
C424 C430 1.368 . S
C425 C409 1.349 . S
C425 H417 0.950 . S
C425 C423 1.327 . S
C426 C414 1.349 . S
C426 H420 0.950 . S
C426 C427 1.327 . S
C427 H421 0.950 . S
C427 C426 1.327 . S
C427 C431 1.429 . S
C428 C411 1.574 . S
C428 H422 0.949 . S
C428 C432 1.368 . S
C429 C410 1.429 . S
C429 C423 1.429 . S
C429 C430 1.523 . S
C430 C411 1.368 . S
C430 C424 1.368 . S
C430 C429 1.523 . S
C431 C415 1.429 . S
C431 C427 1.429 . S
C431 C432 1.523 . S
C432 C416 1.368 . S
C432 C428 1.368 . S
C432 C431 1.523 . S
H433 C408 0.950 . S
H434 C410 0.950 . S
H435 C411 0.949 . S
H436 C413 0.950 . S
H437 C415 0.950 . S
C438 C439 1.349 . S
C438 C440 1.327 . S
C438 H463 0.950 . S
C439 C438 1.349 . S
C439 C455 1.349 . S
C440 C438 1.327 . S
C440 C459 1.429 . S
C440 H464 0.950 . S
C441 C458 1.575 1_455 S
C441 C460 1.368 . S
C441 H465 0.949 . S
H442 C446 0.949 . S
C443 C444 1.349 . S
C443 C445 1.327 . S
C443 H466 0.950 . S
C444 C443 1.349 . S
C444 C456 1.349 . S
C445 C443 1.327 . S
C445 C461 1.429 . S
C445 H467 0.950 . S
C446 H442 0.949 . S
C446 C454 1.574 . S
C446 C462 1.368 . S
H447 C455 0.950 . S
H448 C453 0.950 . S
H449 C454 0.949 . S
H450 C456 0.950 1_455 S
H451 C457 0.950 . S
H452 C458 0.947 . S
C453 H448 0.950 . S
C453 C455 1.327 . S
C453 C459 1.429 . S
C454 C446 1.574 . S
C454 H449 0.949 . S
C454 C460 1.368 . S
C455 C439 1.349 . S
C455 H447 0.950 . S
C455 C453 1.327 . S
C456 C444 1.349 . S
C456 H450 0.950 1_655 S
C456 C457 1.327 1_655 S
C457 H451 0.950 . S
C457 C456 1.327 1_455 S
C457 C461 1.429 1_455 S
C458 C441 1.575 1_655 S
C458 H452 0.947 . S
C458 C462 1.369 1_655 S
C459 C440 1.429 . S
C459 C453 1.429 . S
C459 C460 1.523 . S
C460 C441 1.368 . S
C460 C454 1.368 . S
C460 C459 1.523 . S
C461 C445 1.429 . S
C461 C457 1.429 1_655 S
C461 C462 1.523 1_655 S
C462 C446 1.368 . S
C462 C458 1.369 1_455 S
C462 C461 1.523 1_455 S
H463 C438 0.950 . S
H464 C440 0.950 . S
H465 C441 0.949 . S
H466 C443 0.950 . S
H467 C445 0.950 . S
C468 C469 1.349 . S
C468 C470 1.327 . S
C468 H493 0.950 . S
C469 C468 1.349 . S
C469 C485 1.349 . S
C470 C468 1.327 . S
C470 C489 1.429 . S
C470 H494 0.950 . S
C471 C488 1.574 . S
C471 C490 1.368 . S
C471 H495 0.949 . S
H472 C476 0.949 1_565 S
C473 C474 1.349 . S
C473 C475 1.327 1_565 S
C473 H496 0.955 . S
C474 C473 1.349 . S
C474 C486 1.349 . S
C475 C473 1.327 1_545 S
C475 C491 1.429 1_545 S
C475 H497 0.950 . S
C476 H472 0.949 1_545 S
C476 C484 1.574 . S
C476 C492 1.368 . S
H477 C485 0.950 . S
H478 C483 0.950 . S
H479 C484 0.949 . S
H480 C486 0.950 . S
H481 C487 0.950 . S
H482 C488 0.949 . S
C483 H478 0.950 . S
C483 C485 1.327 . S
C483 C489 1.429 . S
C484 C476 1.574 . S
C484 H479 0.949 . S
C484 C490 1.368 . S
C485 C469 1.349 . S
C485 H477 0.950 . S
C485 C483 1.327 . S
C486 C474 1.349 . S
C486 H480 0.950 . S
C486 C487 1.327 . S
C487 H481 0.950 . S
C487 C486 1.327 . S
C487 C491 1.429 . S
C488 C471 1.574 . S
C488 H482 0.949 . S
C488 C492 1.368 . S
C489 C470 1.429 . S
C489 C483 1.429 . S
C489 C490 1.523 . S
C490 C471 1.368 . S
C490 C484 1.368 . S
C490 C489 1.523 . S
C491 C475 1.429 1_565 S
C491 C487 1.429 . S
C491 C492 1.523 1_565 S
C492 C476 1.368 . S
C492 C488 1.368 . S
C492 C491 1.523 1_545 S
H493 C468 0.950 . S
H494 C470 0.950 . S
H495 C471 0.949 . S
H496 C473 0.955 . S
H497 C475 0.950 . S
C498 C499 1.349 . S
C498 C500 1.327 . S
C498 H523 0.950 . S
C499 C498 1.349 . S
C499 C515 1.349 . S
C500 C498 1.327 . S
C500 C519 1.429 . S
C500 H524 0.950 . S
C501 C518 1.574 . S
C501 C520 1.368 . S
C501 H525 0.944 1_554 S
H502 C506 0.949 . S
C503 C504 1.349 . S
C503 C505 1.327 1_655 S
C503 H526 0.975 . S
C504 C503 1.349 . S
C504 C516 1.349 . S
C505 C503 1.327 1_455 S
C505 C521 1.429 . S
C505 H527 0.952 1_554 S
C506 H502 0.949 . S
C506 C514 1.574 . S
C506 C522 1.368 . S
H507 C515 0.975 . S
H508 C513 0.952 1_556 S
H509 C514 0.949 . S
H510 C516 0.950 . S
H511 C517 0.950 . S
H512 C518 0.944 1_556 S
C513 H508 0.952 1_554 S
C513 C515 1.327 . S
C513 C519 1.429 . S
C514 C506 1.574 . S
C514 H509 0.949 . S
C514 C520 1.368 . S
C515 C499 1.349 . S
C515 H507 0.975 . S
C515 C513 1.327 . S
C516 C504 1.349 . S
C516 H510 0.950 . S
C516 C517 1.327 1_655 S
C517 H511 0.950 . S
C517 C516 1.327 1_455 S
C517 C521 1.429 . S
C518 C501 1.574 . S
C518 H512 0.944 1_554 S
C518 C522 1.368 . S
C519 C500 1.429 . S
C519 C513 1.429 . S
C519 C520 1.523 . S
C520 C501 1.368 . S
C520 C514 1.368 . S
C520 C519 1.523 . S
C521 C505 1.429 . S
C521 C517 1.429 . S
C521 C522 1.523 . S
C522 C506 1.368 . S
C522 C518 1.368 . S
C522 C521 1.523 . S
H523 C498 0.950 . S
H524 C500 0.950 . S
H525 C501 0.944 1_556 S
H526 C503 0.975 . S
H527 C505 0.952 1_556 S
C528 C529 1.349 . S
C528 C530 1.327 1_565 S
C528 H553 0.950 . S
C529 C528 1.349 . S
C529 C545 1.349 . S
C530 C528 1.327 1_545 S
C530 C549 1.429 . S
C530 H554 0.950 . S
C531 C548 1.574 . S
C531 C550 1.368 . S
C531 H555 0.949 . S
H532 C536 0.949 . S
C533 C534 1.349 . S
C533 C535 1.327 . S
C533 H556 0.950 . S
C534 C533 1.349 . S
C534 C546 1.349 . S
C535 C533 1.327 . S
C535 C551 1.429 . S
C535 H557 0.950 . S
C536 H532 0.949 . S
C536 C544 1.574 . S
C536 C552 1.368 . S
H537 C545 0.950 . S
H538 C543 0.950 . S
H539 C544 0.949 . S
H540 C546 0.950 . S
H541 C547 0.950 . S
H542 C548 0.949 . S
C543 H538 0.950 . S
C543 C545 1.327 1_545 S
C543 C549 1.429 . S
C544 C536 1.574 . S
C544 H539 0.949 . S
C544 C550 1.368 . S
C545 C529 1.349 . S
C545 H537 0.950 . S
C545 C543 1.327 1_565 S
C546 C534 1.349 . S
C546 H540 0.950 . S
C546 C547 1.327 . S
C547 H541 0.950 . S
C547 C546 1.327 . S
C547 C551 1.429 . S
C548 C531 1.574 . S
C548 H542 0.949 . S
C548 C552 1.368 . S
C549 C530 1.429 . S
C549 C543 1.429 . S
C549 C550 1.523 . S
C550 C531 1.368 . S
C550 C544 1.368 . S
C550 C549 1.523 . S
C551 C535 1.429 . S
C551 C547 1.429 . S
C551 C552 1.523 . S
C552 C536 1.368 . S
C552 C548 1.368 . S
C552 C551 1.523 . S
H553 C528 0.950 . S
H554 C530 0.950 . S
H555 C531 0.949 . S
H556 C533 0.950 . S
H557 C535 0.950 . S
C558 C559 1.349 . S
C558 C560 1.327 . S
C558 H583 0.950 . S
C559 C558 1.349 . S
C559 C575 1.349 . S
C560 C558 1.327 . S
C560 C579 1.429 . S
C560 H584 0.950 . S
C561 C578 1.574 . S
C561 C580 1.368 . S
C561 H585 0.949 . S
H562 C566 0.949 . S
C563 C564 1.349 . S
C563 C565 1.327 . S
C563 H586 0.950 . S
C564 C563 1.349 . S
C564 C576 1.349 . S
C565 C563 1.327 . S
C565 C581 1.429 . S
C565 H587 0.950 . S
C566 H562 0.949 . S
C566 C574 1.574 . S
C566 C582 1.368 . S
H567 C575 0.950 . S
H568 C573 0.950 . S
H569 C574 0.949 . S
H570 C576 0.950 . S
H571 C577 0.950 . S
H572 C578 0.949 . S
C573 H568 0.950 . S
C573 C575 1.327 . S
C573 C579 1.429 . S
C574 C566 1.574 . S
C574 H569 0.949 . S
C574 C580 1.368 . S
C575 C559 1.349 . S
C575 H567 0.950 . S
C575 C573 1.327 . S
C576 C564 1.349 . S
C576 H570 0.950 . S
C576 C577 1.327 . S
C577 H571 0.950 . S
C577 C576 1.327 . S
C577 C581 1.429 . S
C578 C561 1.574 . S
C578 H572 0.949 . S
C578 C582 1.368 . S
C579 C560 1.429 . S
C579 C573 1.429 . S
C579 C580 1.523 . S
C580 C561 1.368 . S
C580 C574 1.368 . S
C580 C579 1.523 . S
C581 C565 1.429 . S
C581 C577 1.429 . S
C581 C582 1.523 . S
C582 C566 1.368 . S
C582 C578 1.368 . S
C582 C581 1.523 . S
H583 C558 0.950 . S
H584 C560 0.950 . S
H585 C561 0.949 . S
H586 C563 0.950 . S
H587 C565 0.950 . S
C588 C589 1.349 1_556 S
C588 C590 1.327 . S
C588 H613 0.950 . S
C589 C588 1.349 1_554 S
C589 C605 1.349 . S
C590 C588 1.327 . S
C590 C609 1.429 1_556 S
C590 H614 0.950 . S
C591 C608 1.574 . S
C591 C610 1.368 . S
C591 H615 0.949 . S
H592 C596 0.949 . S
C593 C594 1.349 . S
C593 C595 1.327 . S
C593 H616 0.950 . S
C594 C593 1.349 . S
C594 C606 1.349 1_554 S
C595 C593 1.327 . S
C595 C611 1.429 . S
C595 H617 0.950 . S
C596 H592 0.949 . S
C596 C604 1.574 . S
C596 C612 1.368 1_556 S
H597 C605 0.950 . S
H598 C603 0.950 . S
H599 C604 0.949 . S
H600 C606 0.950 . S
H601 C607 0.950 . S
H602 C608 0.949 . S
C603 H598 0.950 . S
C603 C605 1.327 . S
C603 C609 1.429 . S
C604 C596 1.574 . S
C604 H599 0.949 . S
C604 C610 1.368 1_556 S
C605 C589 1.349 . S
C605 H597 0.950 . S
C605 C603 1.327 . S
C606 C594 1.349 1_556 S
C606 H600 0.950 . S
C606 C607 1.327 . S
C607 H601 0.950 . S
C607 C606 1.327 . S
C607 C611 1.429 1_556 S
C608 C591 1.574 . S
C608 H602 0.949 . S
C608 C612 1.368 . S
C609 C590 1.429 1_554 S
C609 C603 1.429 . S
C609 C610 1.523 . S
C610 C591 1.368 . S
C610 C604 1.368 1_554 S
C610 C609 1.523 . S
C611 C595 1.429 . S
C611 C607 1.429 1_554 S
C611 C612 1.523 . S
C612 C596 1.368 1_554 S
C612 C608 1.368 . S
C612 C611 1.523 . S
H613 C588 0.950 . S
H614 C590 0.950 . S
H615 C591 0.949 . S
H616 C593 0.950 . S
H617 C595 0.950 . S
C618 C619 1.349 . S
C618 C620 1.327 . S
C618 H643 0.950 . S
C619 C618 1.349 . S
C619 C635 1.349 . S
C620 C618 1.327 . S
C620 C639 1.429 . S
C620 H644 0.950 . S
C621 C638 1.574 . S
C621 C640 1.368 . S
C621 H645 0.949 . S
H622 C626 0.949 . S
C623 C624 1.349 . S
C623 C625 1.327 . S
C623 H646 0.950 . S
C624 C623 1.349 . S
C624 C636 1.349 . S
C625 C623 1.327 . S
C625 C641 1.429 . S
C625 H647 0.950 . S
C626 H622 0.949 . S
C626 C634 1.574 . S
C626 C642 1.368 . S
H627 C635 0.950 . S
H628 C633 0.950 . S
H629 C634 0.949 . S
H630 C636 0.950 . S
H631 C637 0.950 . S
H632 C638 0.949 . S
C633 H628 0.950 . S
C633 C635 1.327 . S
C633 C639 1.429 . S
C634 C626 1.574 . S
C634 H629 0.949 . S
C634 C640 1.368 . S
C635 C619 1.349 . S
C635 H627 0.950 . S
C635 C633 1.327 . S
C636 C624 1.349 . S
C636 H630 0.950 . S
C636 C637 1.327 . S
C637 H631 0.950 . S
C637 C636 1.327 . S
C637 C641 1.429 . S
C638 C621 1.574 . S
C638 H632 0.949 . S
C638 C642 1.368 . S
C639 C620 1.429 . S
C639 C633 1.429 . S
C639 C640 1.523 . S
C640 C621 1.368 . S
C640 C634 1.368 . S
C640 C639 1.523 . S
C641 C625 1.429 . S
C641 C637 1.429 . S
C641 C642 1.523 . S
C642 C626 1.368 . S
C642 C638 1.368 . S
C642 C641 1.523 . S
H643 C618 0.950 . S
H644 C620 0.950 . S
H645 C621 0.949 . S
H646 C623 0.950 . S
H647 C625 0.950 . S
C648 C649 1.349 . S
C648 C650 1.327 . S
C648 H673 0.950 . S
C649 C648 1.349 . S
C649 C665 1.349 . S
C650 C648 1.327 . S
C650 C669 1.429 . S
C650 H674 0.950 . S
C651 C668 1.574 . S
C651 C670 1.368 . S
C651 H675 0.949 . S
H652 C656 0.949 . S
C653 C654 1.349 . S
C653 C655 1.327 . S
C653 H676 0.950 . S
C654 C653 1.349 . S
C654 C666 1.349 . S
C655 C653 1.327 . S
C655 C671 1.429 . S
C655 H677 0.950 . S
C656 H652 0.949 . S
C656 C664 1.574 . S
C656 C672 1.368 . S
H657 C665 0.950 . S
H658 C663 0.950 . S
H659 C664 0.949 . S
H660 C666 0.950 . S
H661 C667 0.950 . S
H662 C668 0.949 . S
C663 H658 0.950 . S
C663 C665 1.327 . S
C663 C669 1.429 . S
C664 C656 1.574 . S
C664 H659 0.949 . S
C664 C670 1.368 . S
C665 C649 1.349 . S
C665 H657 0.950 . S
C665 C663 1.327 . S
C666 C654 1.349 . S
C666 H660 0.950 . S
C666 C667 1.327 . S
C667 H661 0.950 . S
C667 C666 1.327 . S
C667 C671 1.429 . S
C668 C651 1.574 . S
C668 H662 0.949 . S
C668 C672 1.368 . S
C669 C650 1.429 . S
C669 C663 1.429 . S
C669 C670 1.523 . S
C670 C651 1.368 . S
C670 C664 1.368 . S
C670 C669 1.523 . S
C671 C655 1.429 . S
C671 C667 1.429 . S
C671 C672 1.523 . S
C672 C656 1.368 . S
C672 C668 1.368 . S
C672 C671 1.523 . S
H673 C648 0.950 . S
H674 C650 0.950 . S
H675 C651 0.949 . S
H676 C653 0.950 . S
H677 C655 0.950 . S
C319 C38 1.949 . S
C324 C92 1.902 . S
C349 C91 1.949 . S
C354 C145 1.902 . S
C379 C198 1.902 . S
C384 C144 1.949 . S
C409 C197 1.949 . S
C414 C251 1.902 . S
C439 C304 1.902 . S
C444 C250 1.949 . S
C469 C39 1.902 . S
C474 C303 1.949 . S
C499 C29 1.422 . S
C504 C188 1.422 . S
C529 C241 1.422 . S
C534 C82 1.422 . S
C559 C135 1.423 . S
C564 C294 1.423 . S
C589 C181 1.954 . S
C594 C22 1.954 . S
C619 C234 1.953 . S
C624 C75 1.953 . S
C649 C287 1.954 . S
C654 C128 1.954 . S
