# Generated by pormake.
# Topology ukf, (4)-cn, num edge types: 1
# Building blocks:
#     Node 0, Type 0, BuildingBlock: KUFVIS_clean_sbu_0, # of connection points: 4
#     Node 1, Type 0, BuildingBlock: KUFVIS_clean_sbu_0, # of connection points: 4
#     Node 2, Type 0, BuildingBlock: KUFVIS_clean_sbu_0, # of connection points: 4
#     Node 3, Type 0, BuildingBlock: KUFVIS_clean_sbu_0, # of connection points: 4
#     Node 4, Type 0, BuildingBlock: KUFVIS_clean_sbu_0, # of connection points: 4
#     Node 5, Type 0, BuildingBlock: KUFVIS_clean_sbu_0, # of connection points: 4
#     Node 6, Type 0, BuildingBlock: KUFVIS_clean_sbu_0, # of connection points: 4
#     Node 7, Type 0, BuildingBlock: KUFVIS_clean_sbu_0, # of connection points: 4
#     Node 8, Type 0, BuildingBlock: KUFVIS_clean_sbu_0, # of connection points: 4
#     Node 9, Type 0, BuildingBlock: KUFVIS_clean_sbu_0, # of connection points: 4
#     Node 10, Type 0, BuildingBlock: KUFVIS_clean_sbu_0, # of connection points: 4
#     Node 11, Type 0, BuildingBlock: KUFVIS_clean_sbu_0, # of connection points: 4
#     Edge 12, Type (0, 0), BuildingBlock: OJICUG_clean_linker_0, # of connection points: 2
#     Edge 13, Type (0, 0), BuildingBlock: OJICUG_clean_linker_0, # of connection points: 2
#     Edge 14, Type (0, 0), BuildingBlock: OJICUG_clean_linker_0, # of connection points: 2
#     Edge 15, Type (0, 0), BuildingBlock: OJICUG_clean_linker_0, # of connection points: 2
#     Edge 16, Type (0, 0), BuildingBlock: OJICUG_clean_linker_0, # of connection points: 2
#     Edge 17, Type (0, 0), BuildingBlock: OJICUG_clean_linker_0, # of connection points: 2
#     Edge 18, Type (0, 0), BuildingBlock: OJICUG_clean_linker_0, # of connection points: 2
#     Edge 19, Type (0, 0), BuildingBlock: OJICUG_clean_linker_0, # of connection points: 2
#     Edge 20, Type (0, 0), BuildingBlock: OJICUG_clean_linker_0, # of connection points: 2
#     Edge 21, Type (0, 0), BuildingBlock: OJICUG_clean_linker_0, # of connection points: 2
#     Edge 22, Type (0, 0), BuildingBlock: OJICUG_clean_linker_0, # of connection points: 2
#     Edge 23, Type (0, 0), BuildingBlock: OJICUG_clean_linker_0, # of connection points: 2
#     Edge 24, Type (0, 0), BuildingBlock: OJICUG_clean_linker_0, # of connection points: 2
#     Edge 25, Type (0, 0), BuildingBlock: OJICUG_clean_linker_0, # of connection points: 2
#     Edge 26, Type (0, 0), BuildingBlock: OJICUG_clean_linker_0, # of connection points: 2
#     Edge 27, Type (0, 0), BuildingBlock: OJICUG_clean_linker_0, # of connection points: 2
#     Edge 28, Type (0, 0), BuildingBlock: OJICUG_clean_linker_0, # of connection points: 2
#     Edge 29, Type (0, 0), BuildingBlock: OJICUG_clean_linker_0, # of connection points: 2
#     Edge 30, Type (0, 0), BuildingBlock: OJICUG_clean_linker_0, # of connection points: 2
#     Edge 31, Type (0, 0), BuildingBlock: OJICUG_clean_linker_0, # of connection points: 2
#     Edge 32, Type (0, 0), BuildingBlock: OJICUG_clean_linker_0, # of connection points: 2
#     Edge 33, Type (0, 0), BuildingBlock: OJICUG_clean_linker_0, # of connection points: 2
#     Edge 34, Type (0, 0), BuildingBlock: OJICUG_clean_linker_0, # of connection points: 2
#     Edge 35, Type (0, 0), BuildingBlock: OJICUG_clean_linker_0, # of connection points: 2
# Relax obj value: 0.096
# Max RMSD: 0.095
# Mean RMSD: 0.095
data_MOF--net-ukf--node1-KUFVIS_clean_sbu_0--edge1-OJICUG_clean_linker_0
_symmetry_space_group_name_H-M    P1
_symmetry_Int_Tables_number       1
_symmetry_cell_setting            triclinic
loop_
_symmetry_equiv_pos_as_xyz
'x, y, z'
_cell_length_a     23.746485
_cell_length_b     23.770597
_cell_length_c     46.134301
_cell_angle_alpha  89.762859
_cell_angle_beta   90.204806
_cell_angle_gamma 119.87439
loop_
_atom_site_label
_atom_site_type_symbol
_atom_site_fract_x
_atom_site_fract_y
_atom_site_fract_z
_atom_type_partial_charge
Mn0 Mn 0.43736 0.24642 0.04403 0.0
Mn1 Mn 0.5624 0.31955 0.09128 0.0
C2 C 0.54383 0.2924 0.0275 0.0
C3 C 0.36337 0.14651 0.02173 0.0
C4 C 0.48842 0.38418 0.06805 0.0
O5 O 0.39293 0.21513 0.08346 0.0
O6 O 0.48229 0.25676 0.11171 0.0
C7 C 0.57168 0.20288 0.1057 0.0
N8 N 0.60007 0.26525 0.09598 0.0
C9 C 0.70149 0.26795 0.088 0.0
C10 C 0.67342 0.20389 0.09811 0.0
C11 C 0.60817 0.17117 0.10693 0.0
C12 C 0.66252 0.29681 0.08704 0.0
H13 H 0.5215 0.17743 0.11231 0.0
C14 C 0.42107 0.22171 0.10782 0.0
O15 O 0.35105 0.19406 0.02272 0.0
O16 O 0.41623 0.15661 0.03419 0.0
N17 N 0.64425 0.38158 0.07497 0.0
C18 C 0.66495 0.44431 0.06718 0.0
C19 C 0.7299 0.48467 0.05885 0.0
C20 C 0.7732 0.46055 0.05909 0.0
C21 C 0.75145 0.39664 0.06821 0.0
C22 C 0.68637 0.35897 0.07663 0.0
H23 H 0.63229 0.46355 0.0673 0.0
O24 O 0.4966 0.27898 0.00964 0.0
O25 O 0.52671 0.2774 0.05429 0.0
O26 O 0.45064 0.33906 0.05041 0.0
O27 O 0.52708 0.37876 0.08582 0.0
C28 C 0.79168 0.36874 0.06915 0.0
C29 C 0.76655 0.30423 0.07879 0.0
H30 H 0.70146 0.17931 0.09913 0.0
H31 H 0.58603 0.12161 0.11463 0.0
H32 H 0.74652 0.53421 0.05223 0.0
H33 H 0.82308 0.49161 0.05239 0.0
H34 H 0.84195 0.39638 0.0624 0.0
H35 H 0.79782 0.28315 0.07923 0.0
Mn36 Mn 0.21224 0.41912 0.38205 0.0
Mn37 Mn 0.25567 0.55657 0.41988 0.0
C38 C 0.28438 0.51785 0.3617 0.0
C39 C 0.23289 0.33605 0.36721 0.0
C40 C 0.13144 0.48874 0.38567 0.0
O41 O 0.18787 0.3837 0.42297 0.0
O42 O 0.20843 0.47699 0.44419 0.0
C43 C 0.34943 0.54641 0.45917 0.0
N44 N 0.33474 0.58178 0.44049 0.0
C45 C 0.43674 0.67826 0.45011 0.0
C46 C 0.45261 0.64299 0.4697 0.0
C47 C 0.40885 0.5767 0.47414 0.0
C48 C 0.37655 0.64556 0.43601 0.0
H49 H 0.31607 0.49557 0.4627 0.0
C50 C 0.18777 0.41593 0.44488 0.0
O51 O 0.1754 0.32956 0.36442 0.0
O52 O 0.27597 0.38817 0.37998 0.0
N53 N 0.30262 0.63916 0.40101 0.0
C54 C 0.28273 0.6648 0.37952 0.0
C55 C 0.322 0.73042 0.37185 0.0
C56 C 0.38146 0.76871 0.38603 0.0
C57 C 0.40099 0.74135 0.40804 0.0
C58 C 0.35915 0.67625 0.41534 0.0
H59 H 0.23721 0.63549 0.36845 0.0
O60 O 0.24788 0.46755 0.34602 0.0
O61 O 0.27688 0.51041 0.38987 0.0
O62 O 0.13487 0.43777 0.37956 0.0
O63 O 0.17549 0.53669 0.39959 0.0
C64 C 0.46095 0.77575 0.4226 0.0
C65 C 0.47887 0.7442 0.44358 0.0
H66 H 0.49855 0.66612 0.48117 0.0
H67 H 0.42085 0.54903 0.4891 0.0
H68 H 0.30643 0.75193 0.35526 0.0
H69 H 0.41188 0.819 0.37973 0.0
H70 H 0.49419 0.82619 0.41743 0.0
H71 H 0.52561 0.77084 0.45424 0.0
Mn72 Mn 0.81042 0.21669 0.71671 0.0
Mn73 Mn 0.70923 0.25373 0.75289 0.0
C74 C 0.77784 0.28405 0.69505 0.0
C75 C 0.9172 0.24217 0.70387 0.0
C76 C 0.66058 0.12901 0.72042 0.0
O77 O 0.82116 0.19374 0.75798 0.0
O78 O 0.74426 0.20998 0.77791 0.0
C79 C 0.80943 0.35142 0.79191 0.0
N80 N 0.75953 0.33404 0.77286 0.0
C81 C 0.76002 0.43433 0.78056 0.0
C82 C 0.81111 0.45311 0.80043 0.0
C83 C 0.83606 0.41155 0.80605 0.0
C84 C 0.7352 0.37366 0.7673 0.0
H85 H 0.82862 0.3196 0.79639 0.0
C86 C 0.78621 0.19124 0.77928 0.0
O87 O 0.86831 0.1837 0.70077 0.0
O88 O 0.90407 0.28393 0.7152 0.0
N89 N 0.67021 0.29649 0.73309 0.0
C90 C 0.62401 0.27305 0.71194 0.0
C91 C 0.59484 0.30932 0.70337 0.0
C92 C 0.61372 0.36945 0.71638 0.0
C93 C 0.66101 0.39239 0.73826 0.0
C94 C 0.68715 0.35334 0.74648 0.0
H95 H 0.60911 0.22678 0.70194 0.0
O96 O 0.79627 0.25025 0.67998 0.0
O97 O 0.77768 0.27726 0.72325 0.0
O98 O 0.71655 0.13567 0.71458 0.0
O99 O 0.65287 0.17199 0.73321 0.0
C100 C 0.68402 0.4529 0.7519 0.0
C101 C 0.7336 0.47393 0.77298 0.0
H102 H 0.83196 0.49957 0.81128 0.0
H103 H 0.87563 0.42577 0.82127 0.0
H104 H 0.55717 0.29053 0.6871 0.0
H105 H 0.59156 0.39755 0.70941 0.0
H106 H 0.66464 0.4841 0.746 0.0
H107 H 0.75162 0.52101 0.78296 0.0
Mn108 Mn 0.59097 0.7862 0.04095 0.0
Mn109 Mn 0.45307 0.71074 0.07986 0.0
C110 C 0.49153 0.74664 0.01717 0.0
C111 C 0.67366 0.89155 0.02663 0.0
C112 C 0.53273 0.6473 0.0634 0.0
O113 O 0.62183 0.80602 0.08309 0.0
O114 O 0.52525 0.77466 0.10409 0.0
C115 C 0.43615 0.82483 0.0884 0.0
N116 N 0.41193 0.76236 0.07956 0.0
C117 C 0.31055 0.75451 0.06559 0.0
C118 C 0.33412 0.81851 0.07487 0.0
C119 C 0.39733 0.85392 0.08619 0.0
C120 C 0.35177 0.72839 0.06804 0.0
H121 H 0.48486 0.85232 0.09689 0.0
C122 C 0.58724 0.80406 0.10454 0.0
O123 O 0.68396 0.84262 0.0262 0.0
O124 O 0.61684 0.87876 0.03502 0.0
N125 N 0.37751 0.64728 0.05967 0.0
C126 C 0.3616 0.58565 0.05215 0.0
C127 C 0.2995 0.54332 0.04099 0.0
C128 C 0.25379 0.56413 0.03829 0.0
C129 C 0.27035 0.62689 0.04714 0.0
C130 C 0.33288 0.6668 0.05828 0.0
H131 H 0.39582 0.56867 0.05469 0.0
O132 O 0.54423 0.76407 0.0026 0.0
O133 O 0.49966 0.75488 0.04489 0.0
O134 O 0.57272 0.69139 0.04583 0.0
O135 O 0.49251 0.65408 0.0795 0.0
C136 C 0.22763 0.65177 0.0449 0.0
C137 C 0.24795 0.71576 0.05386 0.0
H138 H 0.30424 0.84104 0.07326 0.0
H139 H 0.41608 0.90351 0.09319 0.0
H140 H 0.28683 0.49467 0.03456 0.0
H141 H 0.20613 0.53153 0.02945 0.0
H142 H 0.17931 0.62236 0.036 0.0
H143 H 0.21499 0.73465 0.05169 0.0
Mn144 Mn 0.82453 0.58516 0.37002 0.0
Mn145 Mn 0.77507 0.45002 0.4113 0.0
C146 C 0.75008 0.48532 0.3513 0.0
C147 C 0.80997 0.67033 0.35248 0.0
C148 C 0.90257 0.51387 0.37934 0.0
O149 O 0.84811 0.62358 0.41034 0.0
O150 O 0.81943 0.53086 0.43469 0.0
C151 C 0.67697 0.46095 0.4467 0.0
N152 N 0.69387 0.42516 0.42961 0.0
C153 C 0.59135 0.3285 0.43826 0.0
C154 C 0.57311 0.36423 0.45618 0.0
C155 C 0.61603 0.43081 0.46031 0.0
C156 C 0.65303 0.36101 0.42557 0.0
H157 H 0.70975 0.51198 0.44995 0.0
C158 C 0.84323 0.59242 0.43355 0.0
O159 O 0.86612 0.6735 0.35098 0.0
O160 O 0.76388 0.61973 0.36506 0.0
N161 N 0.73038 0.36706 0.39288 0.0
C162 C 0.75221 0.34161 0.37232 0.0
C163 C 0.71373 0.27606 0.36459 0.0
C164 C 0.65309 0.23761 0.37781 0.0
C165 C 0.63154 0.26491 0.39884 0.0
C166 C 0.67258 0.33004 0.40619 0.0
H167 H 0.79867 0.37106 0.36201 0.0
O168 O 0.78817 0.53337 0.33469 0.0
O169 O 0.75774 0.49556 0.37928 0.0
O170 O 0.9 0.56374 0.37031 0.0
O171 O 0.85745 0.46851 0.39397 0.0
C172 C 0.57018 0.23059 0.41218 0.0
C173 C 0.55005 0.26239 0.43184 0.0
H174 H 0.52593 0.34128 0.46652 0.0
H175 H 0.60218 0.45882 0.47397 0.0
H176 H 0.73085 0.25489 0.34867 0.0
H177 H 0.62326 0.18735 0.37146 0.0
H178 H 0.53747 0.18012 0.40696 0.0
H179 H 0.50218 0.23588 0.44144 0.0
Mn180 Mn 0.25986 0.82774 0.70658 0.0
Mn181 Mn 0.32939 0.77144 0.75394 0.0
C182 C 0.29599 0.75909 0.69117 0.0
C183 C 0.16236 0.80924 0.68421 0.0
C184 C 0.40514 0.903 0.72482 0.0
O185 O 0.23493 0.84984 0.74545 0.0
O186 O 0.28704 0.81377 0.77416 0.0
C187 C 0.20383 0.66941 0.77789 0.0
N188 N 0.26145 0.68666 0.76468 0.0
C189 C 0.23382 0.57486 0.76048 0.0
C190 C 0.17429 0.55601 0.77408 0.0
C191 C 0.15925 0.60353 0.78281 0.0
C192 C 0.276 0.64123 0.75587 0.0
H193 H 0.19175 0.70554 0.78451 0.0
C194 C 0.25284 0.84096 0.77027 0.0
O195 O 0.21361 0.86683 0.6841 0.0
O196 O 0.16736 0.76477 0.69805 0.0
N197 N 0.37222 0.72795 0.73857 0.0
C198 C 0.43541 0.75468 0.73014 0.0
C199 C 0.46039 0.71409 0.72272 0.0
C200 C 0.42068 0.64645 0.7248 0.0
C201 C 0.35701 0.62016 0.73514 0.0
C202 C 0.33521 0.66316 0.74261 0.0
H203 H 0.46627 0.80654 0.72871 0.0
O204 O 0.28556 0.79399 0.6727 0.0
O205 O 0.28274 0.76357 0.71802 0.0
O206 O 0.35645 0.90152 0.71151 0.0
O207 O 0.40007 0.85726 0.74144 0.0
C208 C 0.31503 0.55311 0.73916 0.0
C209 C 0.2532 0.53042 0.75158 0.0
H210 H 0.13991 0.50525 0.77803 0.0
H211 H 0.11339 0.58941 0.79331 0.0
H212 H 0.51003 0.73489 0.71534 0.0
H213 H 0.43994 0.61526 0.7189 0.0
H214 H 0.33016 0.51864 0.73314 0.0
H215 H 0.22148 0.47878 0.75474 0.0
Mn216 Mn 0.80791 0.59576 0.61326 0.0
Mn217 Mn 0.71187 0.45895 0.57471 0.0
C218 C 0.77183 0.49537 0.63511 0.0
C219 C 0.91401 0.6756 0.62765 0.0
C220 C 0.66103 0.54 0.60253 0.0
O221 O 0.82444 0.62964 0.57196 0.0
O222 O 0.75956 0.53566 0.54895 0.0
C223 C 0.81413 0.44714 0.54328 0.0
N224 N 0.75987 0.4203 0.56009 0.0
C225 C 0.75062 0.31495 0.55716 0.0
C226 C 0.80616 0.34139 0.53962 0.0
C227 C 0.83817 0.40783 0.53274 0.0
C228 C 0.7285 0.35635 0.56672 0.0
H229 H 0.83871 0.49804 0.5379 0.0
C230 C 0.80011 0.59662 0.54908 0.0
O231 O 0.86544 0.68624 0.62949 0.0
O232 O 0.90089 0.62013 0.61708 0.0
N233 N 0.66274 0.3797 0.59575 0.0
C234 C 0.61282 0.36297 0.61459 0.0
C235 C 0.57653 0.29849 0.62421 0.0
C236 C 0.5926 0.25212 0.61483 0.0
C237 C 0.64392 0.27035 0.59529 0.0
C238 C 0.67694 0.33481 0.58567 0.0
H239 H 0.60004 0.39825 0.62176 0.0
O240 O 0.78881 0.54744 0.65008 0.0
O241 O 0.77464 0.50253 0.60688 0.0
O242 O 0.71492 0.58516 0.61291 0.0
O243 O 0.6559 0.49206 0.58825 0.0
C244 C 0.66399 0.22726 0.58518 0.0
C245 C 0.71742 0.24959 0.5662 0.0
H246 H 0.82517 0.31135 0.53165 0.0
H247 H 0.88127 0.42869 0.51935 0.0
H248 H 0.53555 0.28432 0.63844 0.0
H249 H 0.56498 0.20263 0.62265 0.0
H250 H 0.63931 0.17708 0.59223 0.0
H251 H 0.73321 0.21632 0.55905 0.0
Mn252 Mn 0.2103 0.79 0.94756 0.0
Mn253 Mn 0.25591 0.70808 0.90253 0.0
C254 C 0.27299 0.7471 0.96523 0.0
C255 C 0.24088 0.89557 0.96523 0.0
C256 C 0.12072 0.64845 0.92875 0.0
O257 O 0.19051 0.81283 0.90738 0.0
O258 O 0.23467 0.76622 0.88024 0.0
C259 C 0.3786 0.82199 0.88306 0.0
N260 N 0.34677 0.76176 0.89523 0.0
C261 C 0.44698 0.76144 0.90254 0.0
C262 C 0.4808 0.82329 0.8899 0.0
C263 C 0.44645 0.85375 0.88019 0.0
C264 C 0.37945 0.73247 0.90506 0.0
H265 H 0.35245 0.84574 0.87572 0.0
C266 C 0.20808 0.80117 0.88313 0.0
O267 O 0.18116 0.84824 0.96738 0.0
O268 O 0.28048 0.88128 0.9527 0.0
N269 N 0.27874 0.64951 0.92052 0.0
C270 C 0.23832 0.58791 0.93015 0.0
C271 C 0.26465 0.54951 0.93952 0.0
C272 C 0.33205 0.57426 0.93831 0.0
C273 C 0.37238 0.63668 0.92711 0.0
C274 C 0.34326 0.67238 0.91779 0.0
H275 H 0.1864 0.56819 0.93077 0.0
O276 O 0.24225 0.76475 0.98278 0.0
O277 O 0.26705 0.75664 0.938 0.0
O278 O 0.13016 0.69638 0.94505 0.0
O279 O 0.16271 0.6503 0.91082 0.0
C280 C 0.44028 0.66482 0.92478 0.0
C281 C 0.47762 0.72739 0.91272 0.0
H282 H 0.53311 0.84785 0.88757 0.0
H283 H 0.47221 0.9016 0.87052 0.0
H284 H 0.23308 0.501 0.9477 0.0
H285 H 0.35224 0.54474 0.94578 0.0
H286 H 0.46427 0.63874 0.93217 0.0
H287 H 0.52981 0.7486 0.91111 0.0
Mn288 Mn 0.42608 0.19177 0.28314 0.0
Mn289 Mn 0.55763 0.23302 0.24103 0.0
C290 C 0.52777 0.26602 0.30023 0.0
C291 C 0.34453 0.21044 0.30182 0.0
C292 C 0.49549 0.11143 0.27702 0.0
O293 O 0.38444 0.16559 0.24335 0.0
O294 O 0.47439 0.18432 0.21929 0.0
C295 C 0.5427 0.3237 0.20158 0.0
N296 N 0.58028 0.31039 0.21952 0.0
C297 C 0.67602 0.41039 0.20652 0.0
C298 C 0.6384 0.42484 0.18771 0.0
C299 C 0.57139 0.38138 0.18532 0.0
C300 C 0.64485 0.35179 0.22192 0.0
H301 H 0.49135 0.29049 0.19957 0.0
C302 C 0.41333 0.16396 0.22046 0.0
O303 O 0.33955 0.15358 0.30357 0.0
O304 O 0.39402 0.25442 0.28776 0.0
N305 N 0.64279 0.28087 0.25744 0.0
C306 C 0.67081 0.26292 0.27863 0.0
C307 C 0.73731 0.30252 0.2846 0.0
C308 C 0.77417 0.36019 0.26891 0.0
C309 C 0.74428 0.37776 0.24724 0.0
C310 C 0.6782 0.33577 0.2418 0.0
H311 H 0.64263 0.21876 0.29084 0.0
O312 O 0.48047 0.22956 0.31748 0.0
O313 O 0.51592 0.25669 0.27235 0.0
O314 O 0.44525 0.11487 0.28446 0.0
O315 O 0.54113 0.15464 0.26179 0.0
C316 C 0.77705 0.43612 0.23139 0.0
C317 C 0.74295 0.45242 0.21104 0.0
H318 H 0.6603 0.46946 0.17525 0.0
H319 H 0.54196 0.39225 0.17092 0.0
H320 H 0.76044 0.28855 0.30108 0.0
H321 H 0.82524 0.39091 0.27386 0.0
H322 H 0.82822 0.46943 0.23508 0.0
H323 H 0.76845 0.49795 0.19936 0.0
Mn324 Mn 0.2612 0.43921 0.6239 0.0
Mn325 Mn 0.32677 0.56964 0.57929 0.0
C326 C 0.30256 0.54268 0.6428 0.0
C327 C 0.16436 0.36037 0.64656 0.0
C328 C 0.40086 0.5027 0.59988 0.0
O329 O 0.23042 0.39775 0.58392 0.0
O330 O 0.26971 0.48942 0.55747 0.0
C331 C 0.20251 0.56603 0.56679 0.0
N332 N 0.26529 0.59919 0.57604 0.0
C333 C 0.25654 0.69371 0.58642 0.0
C334 C 0.192 0.66073 0.57671 0.0
C335 C 0.16481 0.5965 0.56694 0.0
C336 C 0.29144 0.6605 0.58608 0.0
H337 H 0.18122 0.51655 0.55961 0.0
C338 C 0.23687 0.42776 0.56011 0.0
O339 O 0.21383 0.35123 0.64412 0.0
O340 O 0.17059 0.41255 0.63501 0.0
N341 N 0.38305 0.65227 0.59652 0.0
C342 C 0.44734 0.67884 0.60314 0.0
C343 C 0.48287 0.74395 0.61193 0.0
C344 C 0.45243 0.7816 0.61318 0.0
C345 C 0.38702 0.75412 0.60508 0.0
C346 C 0.35435 0.6892 0.59615 0.0
H347 H 0.47143 0.65064 0.60182 0.0
O348 O 0.29242 0.49453 0.65941 0.0
O349 O 0.28666 0.52827 0.61586 0.0
O350 O 0.35565 0.45886 0.61583 0.0
O351 O 0.39276 0.54246 0.58391 0.0
C352 C 0.35301 0.78862 0.60548 0.0
C353 C 0.28756 0.75819 0.59647 0.0
H354 H 0.16283 0.68415 0.57674 0.0
H355 H 0.11488 0.57051 0.55959 0.0
H356 H 0.53361 0.76507 0.6177 0.0
H357 H 0.47982 0.83164 0.62019 0.0
H358 H 0.3767 0.83854 0.61273 0.0
H359 H 0.26175 0.78503 0.59706 0.0
Mn360 Mn 0.8255 0.24809 0.95922 0.0
Mn361 Mn 0.75955 0.31474 0.9158 0.0
C362 C 0.76289 0.28835 0.9792 0.0
C363 C 0.80782 0.14851 0.97924 0.0
C364 C 0.90176 0.38631 0.93433 0.0
O365 O 0.83735 0.22133 0.9186 0.0
O366 O 0.77774 0.2548 0.89355 0.0
C367 C 0.63538 0.19338 0.90548 0.0
N368 N 0.6679 0.25643 0.91422 0.0
C369 C 0.56787 0.25367 0.92588 0.0
C370 C 0.53328 0.1889 0.91674 0.0
C371 C 0.56723 0.15857 0.9066 0.0
C372 C 0.63577 0.28562 0.92458 0.0
H373 H 0.6613 0.16974 0.89795 0.0
C374 C 0.80956 0.22464 0.89549 0.0
O375 O 0.86615 0.19849 0.9777 0.0
O376 O 0.76179 0.15634 0.96888 0.0
N377 N 0.73815 0.374 0.93387 0.0
C378 C 0.77869 0.43742 0.94088 0.0
C379 C 0.7524 0.47553 0.95044 0.0
C380 C 0.68474 0.44853 0.95213 0.0
C381 C 0.64393 0.38383 0.94389 0.0
C382 C 0.67293 0.34843 0.93425 0.0
H383 H 0.8307 0.45893 0.93915 0.0
O384 O 0.79999 0.27619 0.99556 0.0
O385 O 0.76246 0.27463 0.95208 0.0
O386 O 0.89989 0.34299 0.95186 0.0
O387 O 0.85386 0.37767 0.91826 0.0
C388 C 0.57565 0.35295 0.94506 0.0
C389 C 0.53765 0.28768 0.93636 0.0
H390 H 0.4807 0.16193 0.91752 0.0
H391 H 0.54094 0.10845 0.89969 0.0
H392 H 0.78423 0.52565 0.95644 0.0
H393 H 0.66466 0.47792 0.95973 0.0
H394 H 0.55188 0.3788 0.95283 0.0
H395 H 0.48522 0.26422 0.93766 0.0
Mn396 Mn 0.59623 0.8077 0.28355 0.0
Mn397 Mn 0.45524 0.76088 0.24759 0.0
C398 C 0.49956 0.73298 0.30467 0.0
C399 C 0.68319 0.79085 0.29601 0.0
C400 C 0.52162 0.88417 0.28178 0.0
O401 O 0.62892 0.83526 0.2425 0.0
O402 O 0.53303 0.81233 0.22302 0.0
C403 C 0.46925 0.67227 0.20696 0.0
N404 N 0.43287 0.68367 0.2263 0.0
C405 C 0.33932 0.57933 0.21689 0.0
C406 C 0.37563 0.56671 0.1967 0.0
C407 C 0.44097 0.6133 0.19181 0.0
C408 C 0.37005 0.63911 0.23123 0.0
H409 H 0.51938 0.70791 0.20305 0.0
C410 C 0.59451 0.83589 0.22149 0.0
O411 O 0.68729 0.84695 0.29992 0.0
O412 O 0.63072 0.74669 0.28382 0.0
N413 N 0.37376 0.71017 0.26682 0.0
C414 C 0.34674 0.72792 0.28838 0.0
C415 C 0.28176 0.68594 0.29628 0.0
C416 C 0.24542 0.62623 0.28213 0.0
C417 C 0.27401 0.60923 0.25986 0.0
C418 C 0.33837 0.65358 0.2524 0.0
H419 H 0.37438 0.77393 0.29925 0.0
O420 O 0.55066 0.7694 0.31999 0.0
O421 O 0.50517 0.74146 0.27652 0.0
O422 O 0.57403 0.88246 0.28708 0.0
O423 O 0.47288 0.83902 0.26867 0.0
C424 C 0.24154 0.54949 0.24515 0.0
C425 C 0.27423 0.53447 0.22374 0.0
H426 H 0.35404 0.52118 0.18504 0.0
H427 H 0.46941 0.60383 0.17635 0.0
H428 H 0.25915 0.69964 0.31295 0.0
H429 H 0.19563 0.5938 0.28857 0.0
H430 H 0.19174 0.51429 0.25046 0.0
H431 H 0.24908 0.48794 0.21292 0.0
C432 C 0.33162 1.00905 0.97179 0.0
C433 C 0.26632 0.96244 0.97724 0.0
H434 H 0.41204 0.10279 0.98132 0.0
C435 C 0.22996 0.98008 0.99539 0.0
H436 H 0.36144 0.99811 0.9578 0.0
C437 C 0.25956 0.04191 0.00875 0.0
C438 C 0.32593 0.08651 0.00426 0.0
H439 H 0.17965 0.9455 0.00011 0.0
H440 H 0.23164 0.05341 0.02365 0.0
C441 C 0.36089 0.06957 0.98521 0.0
C442 C 0.21887 0.25183 0.32989 0.0
C443 C 0.2528 0.29193 0.35357 0.0
H444 H 0.2213 0.19375 0.29453 0.0
C445 C 0.31249 0.29742 0.36166 0.0
H446 H 0.17314 0.24715 0.3229 0.0
C447 C 0.33962 0.26723 0.34556 0.0
C448 C 0.30778 0.23033 0.32101 0.0
H449 H 0.34004 0.32776 0.37972 0.0
H450 H 0.38723 0.27521 0.35156 0.0
C451 C 0.24637 0.2214 0.31361 0.0
C452 C 0.99666 0.22982 0.67128 0.0
C453 C 0.98408 0.26381 0.69294 0.0
H454 H 0.06493 0.23346 0.63943 0.0
C455 C 0.03522 0.32446 0.70181 0.0
H456 H 0.95824 0.18322 0.6638 0.0
C457 C 0.09555 0.35264 0.68807 0.0
C458 C 0.10705 0.32096 0.66519 0.0
H459 H 0.0277 0.35199 0.71849 0.0
H460 H 0.13239 0.40121 0.69431 0.0
C461 C 0.05777 0.25835 0.65741 0.0
C462 C 0.76596 0.97461 0.99508 0.0
C463 C 0.72175 0.95951 0.01808 0.0
H464 H 0.82947 0.04783 0.96449 0.0
C465 C 0.7162 0.01027 0.03074 0.0
H466 H 0.77081 0.93652 0.98465 0.0
C467 C 0.74978 0.07321 0.01951 0.0
C468 C 0.79033 0.08773 0.99532 0.0
H469 H 0.68288 1.00062 0.04853 0.0
H470 H 0.74074 0.1099 0.02867 0.0
C471 C 0.79975 0.03834 0.98363 0.0
C472 C 0.75915 0.79475 0.33526 0.0
C473 C 0.73085 0.7734 0.30773 0.0
H474 H 0.8067 0.7781 0.37149 0.0
C475 C 0.73845 0.72516 0.29375 0.0
H476 H 0.75301 0.83094 0.34677 0.0
C477 C 0.77004 0.69609 0.30759 0.0
C478 C 0.79409 0.71395 0.33587 0.0
H479 H 0.71671 0.7073 0.27266 0.0
H480 H 0.77163 0.65634 0.29693 0.0
C481 C 0.78977 0.76453 0.34941 0.0
C482 C 0.03227 0.7117 0.62992 0.0
C483 C 0.98082 0.72115 0.63853 0.0
H484 H 0.13024 0.73376 0.63732 0.0
C485 C 0.99327 0.76871 0.65965 0.0
H486 H 0.02481 0.67587 0.61365 0.0
C487 C 0.05467 0.8025 0.67325 0.0
C488 C 0.1045 0.78966 0.66564 0.0
H489 H 0.95461 0.77688 0.6669 0.0
H490 H 0.06183 0.8354 0.69087 0.0
C491 C 0.09302 0.74527 0.64333 0.0
C492 C 0.65083 0.23332 0.99728 0.0
C493 C 0.70865 0.29147 0.99221 0.0
H494 H 0.55375 0.18886 0.01367 0.0
C495 C 0.71352 0.35055 -3e-05 0.0
H496 H 0.64666 0.18713 0.99172 0.0
C497 C 0.65884 0.35172 0.01031 0.0
C498 C 0.6018 0.29358 0.01627 0.0
H499 H 0.75865 0.3956 0.99711 0.0
H500 H 0.66115 0.39774 0.01366 0.0
C501 C 0.59806 0.23432 0.00973 0.0
C502 C 0.34638 0.57317 0.31708 0.0
C503 C 0.34079 0.57234 0.34745 0.0
H504 H 0.40909 0.61809 0.28087 0.0
C505 C 0.39389 0.61826 0.36329 0.0
H506 H 0.31021 0.53428 0.30388 0.0
C507 C 0.44329 0.67279 0.34954 0.0
C508 C 0.44535 0.67683 0.31911 0.0
H509 H 0.39798 0.61107 0.386 0.0
H510 H 0.48123 0.71013 0.36272 0.0
C511 C 0.40097 0.62262 0.30344 0.0
C512 C 0.77375 0.33928 0.64967 0.0
C513 C 0.77347 0.337 0.68013 0.0
H514 H 0.78973 0.39942 0.61281 0.0
C515 C 0.78035 0.391 0.69514 0.0
H516 H 0.77586 0.30221 0.63692 0.0
C517 C 0.77341 0.43906 0.68077 0.0
C518 C 0.76995 0.4394 0.65031 0.0
H519 H 0.79366 0.39735 0.71766 0.0
H520 H 0.77526 0.47819 0.69346 0.0
C521 C 0.77725 0.39264 0.63528 0.0
C522 C 0.38657 0.8035 0.98175 0.0
C523 C 0.32952 0.74482 0.97631 0.0
H524 H 0.48212 0.84934 0.0002 0.0
C525 C 0.32602 0.6863 0.98414 0.0
H526 H 0.38965 0.8494 0.9764 0.0
C527 C 0.38073 0.68612 0.99529 0.0
C528 C 0.43598 0.7447 0.0025 0.0
H529 H 0.28115 0.641 0.98179 0.0
H530 H 0.37896 0.64049 -0.00071 0.0
C531 C 0.43911 0.80348 0.99526 0.0
C532 C 0.58724 0.3336 0.34296 0.0
C533 C 0.58361 0.32425 0.31279 0.0
H534 H 0.63567 0.40079 0.37719 0.0
C535 C 0.62847 0.37524 0.29556 0.0
H536 H 0.54917 0.29971 0.35721 0.0
C537 C 0.68497 0.42538 0.30783 0.0
C538 C 0.6919 0.43073 0.33813 0.0
H539 H 0.61894 0.37719 0.27297 0.0
H540 H 0.72145 0.46142 0.29364 0.0
C541 C 0.63845 0.38929 0.35499 0.0
C542 C 0.36084 0.65536 0.66196 0.0
C543 C 0.30291 0.59836 0.65591 0.0
H544 H 0.40359 0.75524 0.6745 0.0
C545 C 0.24333 0.59309 0.66333 0.0
H546 H 0.40715 0.65859 0.65796 0.0
C547 C 0.24178 0.64516 0.67612 0.0
C548 C 0.29963 0.70358 0.68054 0.0
H549 H 0.1981 0.5486 0.65931 0.0
H550 H 0.19539 0.64053 0.68179 0.0
C551 C 0.35893 0.70938 0.6724 0.0
C552 C 0.3925 0.1319 0.14181 0.0
C553 C 0.38426 0.18405 0.1332 0.0
H554 H 0.40734 0.08317 0.17764 0.0
C555 C 0.36389 0.2135 0.15372 0.0
H556 H 0.4085 0.10869 0.12632 0.0
C557 C 0.36093 0.19721 0.18312 0.0
C558 C 0.3807 0.15313 0.19217 0.0
H559 H 0.35845 0.25462 0.14762 0.0
H560 H 0.35324 0.22634 0.1989 0.0
C561 C 0.39156 0.11704 0.17119 0.0
C562 C 0.13917 0.39799 0.49381 0.0
C563 C 0.17735 0.38702 0.47403 0.0
H564 H 0.12549 0.41437 0.53811 0.0
C565 C 0.22187 0.36916 0.48461 0.0
H566 H 0.10492 0.41231 0.48616 0.0
C567 C 0.23548 0.37286 0.51436 0.0
C568 C 0.20311 0.39233 0.53374 0.0
H569 H 0.25265 0.36155 0.46973 0.0
H570 H 0.27638 0.36818 0.52166 0.0
C571 C 0.15132 0.3996 0.52353 0.0
C572 C 0.75461 0.1454 0.85669 0.0
C573 C 0.81318 0.19356 0.86873 0.0
H574 H 0.70032 0.10573 0.81768 0.0
C575 C 0.86795 0.2264 0.85089 0.0
H576 H 0.71172 0.11976 0.87007 0.0
C577 C 0.86166 0.21761 0.82079 0.0
C578 C 0.80035 0.17673 0.80851 0.0
H579 H 0.91323 0.26463 0.85971 0.0
H580 H 0.90239 0.24921 0.80712 0.0
C581 C 0.74808 0.1373 0.82671 0.0
C582 C 0.59976 0.87841 0.14411 0.0
C583 C 0.6177 0.83557 0.13202 0.0
H584 H 0.58042 0.914 0.1831 0.0
C585 C 0.64687 0.80909 0.14971 0.0
H586 H 0.57722 0.89937 0.13079 0.0
C587 C 0.64943 0.81814 0.17981 0.0
C588 C 0.62213 0.85305 0.19218 0.0
H589 H 0.6602 0.77522 0.14083 0.0
H590 H 0.66449 0.79076 0.19345 0.0
C591 C 0.60185 0.88702 0.17402 0.0
C592 C 0.78952 0.63544 0.50055 0.0
C593 C 0.82772 0.62561 0.5209 0.0
H594 H 0.76855 0.63744 0.4555 0.0
C595 C 0.88303 0.62385 0.51159 0.0
H596 H 0.74605 0.6358 0.50732 0.0
C597 C 0.89428 0.6219 0.48202 0.0
C598 C 0.85181 0.62447 0.46159 0.0
H599 H 0.91267 0.61559 0.52703 0.0
H600 H 0.93185 0.6116 0.47524 0.0
C601 C 0.80254 0.63646 0.47096 0.0
C602 C 0.26042 0.88706 0.84665 0.0
C603 C 0.2035 0.83247 0.85647 0.0
H604 H 0.32081 0.93401 0.8099 0.0
C605 C 0.15453 0.79502 0.83641 0.0
H606 H 0.29928 0.9159 0.86173 0.0
C607 C 0.1663 0.80639 0.80665 0.0
C608 C 0.22771 0.85418 0.79685 0.0
H609 H 0.11084 0.75187 0.84349 0.0
H610 H 0.13128 0.77167 0.79156 0.0
C611 C 0.27275 0.89754 0.81695 0.0
C612 C 0.51907 0.54696 0.03854 0.0
C613 C 0.52682 0.58197 0.0642 0.0
H614 H 0.49783 0.45575 0.01959 0.0
C615 C 0.51794 0.54988 0.0909 0.0
H616 H 0.52388 0.56983 0.01764 0.0
C617 C 0.50322 0.48503 0.09203 0.0
C618 C 0.49452 0.44956 0.06646 0.0
H619 H 0.52233 0.57512 0.11103 0.0
H620 H 0.49865 0.46246 0.113 0.0
C621 C 0.5025 0.48124 0.03966 0.0
C622 C 0.95588 0.44564 0.37555 0.0
C623 C 0.96124 0.50761 0.37468 0.0
H624 H 1.00511 0.39068 0.3791 0.0
C625 C 0.02332 0.56236 0.37323 0.0
H626 H 0.9087 0.40218 0.37652 0.0
C627 C 0.07854 0.55552 0.37507 0.0
C628 C 0.07313 0.49376 0.37793 0.0
H629 H 0.02931 0.6106 0.37261 0.0
H630 H 0.1256 0.59913 0.37556 0.0
C631 C 1.01115 0.43877 0.37692 0.0
C632 C 0.54604 0.06839 0.70275 0.0
C633 C 0.59973 0.06718 0.7152 0.0
H634 H 0.44292 0.01815 0.69577 0.0
C635 C 0.58955 0.0104 0.72905 0.0
H636 H 0.55239 0.112 0.69227 0.0
C637 C 0.5266 0.95731 0.73185 0.0
C638 C 0.47216 0.95917 0.72046 0.0
H639 H 0.62955 1.0087 0.73957 0.0
H640 H 0.5207 0.91558 0.74389 0.0
C641 C 0.48312 0.01486 0.70508 0.0
C642 C 0.55116 0.49557 0.62469 0.0
C643 C 0.59949 0.54077 0.60605 0.0
H644 H 0.45077 0.44724 0.63733 0.0
C645 C 0.58205 0.57281 0.58543 0.0
H646 H 0.56294 0.46886 0.64032 0.0
C647 C 0.51764 0.55953 0.58324 0.0
C648 C 0.46856 0.51338 0.60153 0.0
H649 H 0.61764 0.60591 0.57005 0.0
H650 H 0.50627 0.58497 0.56678 0.0
C651 C 0.48657 0.48225 0.62259 0.0
C652 C 0.0431 0.55018 0.95771 0.0
C653 C 0.06044 0.58453 0.9313 0.0
H654 H 0.98079 0.45947 0.97932 0.0
C655 C 0.02713 0.55217 0.90601 0.0
H656 H 0.06937 0.57331 0.97738 0.0
C657 C 0.97694 0.48752 0.90707 0.0
C658 C 0.95992 0.45254 0.93331 0.0
H659 H 0.04053 0.57685 0.88525 0.0
H660 H 0.95159 0.46459 0.88719 0.0
C661 C 0.99359 0.48462 0.95868 0.0
C662 C 0.45522 0.93784 0.29078 0.0
C663 C 0.51691 0.94302 0.28803 0.0
H664 H 0.39971 0.98678 0.28987 0.0
C665 C 0.57173 1.00495 0.28623 0.0
H666 H 0.41183 0.89071 0.29243 0.0
C667 C 0.5645 0.05984 0.28448 0.0
C668 C 0.50238 0.05428 0.28481 0.0
H669 H 0.61973 0.01075 0.28399 0.0
H670 H 0.60774 0.10653 0.28136 0.0
C671 C 0.44804 0.99288 0.28936 0.0
loop_
_geom_bond_atom_site_label_1
_geom_bond_atom_site_label_2
_geom_bond_distance
_geom_bond_site_symmetry_2
_ccdc_geom_bond_type
Mn0 O5 2.095 . S
Mn0 O15 2.162 . S
Mn0 O16 2.297 . S
Mn0 O24 2.384 . S
Mn0 O25 2.209 . S
Mn0 O26 2.094 . S
Mn1 O6 2.121 . S
Mn1 N8 2.257 . S
Mn1 N17 2.282 . S
Mn1 O25 2.215 . S
Mn1 O27 2.117 . S
C2 O24 1.233 . S
C2 O25 1.283 . S
C3 O15 1.281 . S
C3 O16 1.236 . S
C4 O26 1.240 . S
C4 O27 1.264 . S
O5 Mn0 2.095 . S
O5 C14 1.250 . S
O6 Mn1 2.121 . S
O6 C14 1.258 . S
C7 N8 1.326 . S
C7 C11 1.460 . S
C7 H13 0.929 . S
N8 Mn1 2.257 . S
N8 C7 1.326 . S
N8 C12 1.362 . S
C9 C10 1.258 . S
C9 C12 1.431 . S
C9 C29 1.449 . S
C10 C9 1.258 . S
C10 C11 1.477 . S
C10 H30 0.931 . S
C11 C7 1.460 . S
C11 C10 1.477 . S
C11 H31 0.930 . S
C12 N8 1.362 . S
C12 C9 1.431 . S
C12 C22 1.476 . S
H13 C7 0.929 . S
C14 O5 1.250 . S
C14 O6 1.258 . S
O15 Mn0 2.162 . S
O15 C3 1.281 . S
O16 Mn0 2.297 . S
O16 C3 1.236 . S
N17 Mn1 2.282 . S
N17 C18 1.328 . S
N17 C22 1.318 . S
C18 N17 1.328 . S
C18 C19 1.457 . S
C18 H23 0.929 . S
C19 C18 1.457 . S
C19 C20 1.291 . S
C19 H32 0.931 1_554 S
C20 C19 1.291 . S
C20 C21 1.373 . S
C20 H33 0.929 1_554 S
C21 C20 1.373 . S
C21 C22 1.396 . S
C21 C28 1.403 . S
C22 C12 1.476 . S
C22 N17 1.318 . S
C22 C21 1.396 . S
H23 C18 0.929 . S
O24 Mn0 2.384 . S
O24 C2 1.233 . S
O25 Mn0 2.209 . S
O25 Mn1 2.215 . S
O25 C2 1.283 . S
O26 Mn0 2.094 . S
O26 C4 1.240 . S
O27 Mn1 2.117 . S
O27 C4 1.264 . S
C28 C21 1.403 . S
C28 C29 1.399 . S
C28 H34 0.929 . S
C29 C9 1.449 . S
C29 C28 1.399 . S
C29 H35 0.930 . S
H30 C10 0.931 . S
H31 C11 0.930 . S
H32 C19 0.931 1_556 S
H33 C20 0.929 1_556 S
H34 C28 0.929 . S
H35 C29 0.930 . S
Mn36 O41 2.095 . S
Mn36 O51 2.162 . S
Mn36 O52 2.297 . S
Mn36 O60 2.385 . S
Mn36 O61 2.209 . S
Mn36 O62 2.094 . S
Mn37 O42 2.121 . S
Mn37 N44 2.257 . S
Mn37 N53 2.282 . S
Mn37 O61 2.215 . S
Mn37 O63 2.117 . S
C38 O60 1.234 . S
C38 O61 1.283 . S
C39 O51 1.281 . S
C39 O52 1.236 . S
C40 O62 1.240 . S
C40 O63 1.264 . S
O41 Mn36 2.095 . S
O41 C50 1.250 . S
O42 Mn37 2.121 . S
O42 C50 1.258 . S
C43 N44 1.326 . S
C43 C47 1.460 . S
C43 H49 0.929 . S
N44 Mn37 2.257 . S
N44 C43 1.326 . S
N44 C48 1.362 . S
C45 C46 1.258 . S
C45 C48 1.431 . S
C45 C65 1.449 . S
C46 C45 1.258 . S
C46 C47 1.477 . S
C46 H66 0.931 . S
C47 C43 1.460 . S
C47 C46 1.477 . S
C47 H67 0.930 . S
C48 N44 1.362 . S
C48 C45 1.431 . S
C48 C58 1.476 . S
H49 C43 0.929 . S
C50 O41 1.250 . S
C50 O42 1.258 . S
O51 Mn36 2.162 . S
O51 C39 1.281 . S
O52 Mn36 2.297 . S
O52 C39 1.236 . S
N53 Mn37 2.282 . S
N53 C54 1.328 . S
N53 C58 1.318 . S
C54 N53 1.328 . S
C54 C55 1.457 . S
C54 H59 0.929 . S
C55 C54 1.457 . S
C55 C56 1.291 . S
C55 H68 0.931 . S
C56 C55 1.291 . S
C56 C57 1.373 . S
C56 H69 0.929 . S
C57 C56 1.373 . S
C57 C58 1.396 . S
C57 C64 1.403 . S
C58 C48 1.476 . S
C58 N53 1.318 . S
C58 C57 1.396 . S
H59 C54 0.929 . S
O60 Mn36 2.385 . S
O60 C38 1.234 . S
O61 Mn36 2.209 . S
O61 Mn37 2.215 . S
O61 C38 1.283 . S
O62 Mn36 2.094 . S
O62 C40 1.240 . S
O63 Mn37 2.117 . S
O63 C40 1.264 . S
C64 C57 1.403 . S
C64 C65 1.399 . S
C64 H70 0.929 . S
C65 C45 1.449 . S
C65 C64 1.399 . S
C65 H71 0.930 . S
H66 C46 0.931 . S
H67 C47 0.930 . S
H68 C55 0.931 . S
H69 C56 0.929 . S
H70 C64 0.929 . S
H71 C65 0.930 . S
Mn72 O77 2.095 . S
Mn72 O87 2.162 . S
Mn72 O88 2.297 . S
Mn72 O96 2.385 . S
Mn72 O97 2.209 . S
Mn72 O98 2.094 . S
Mn73 O78 2.121 . S
Mn73 N80 2.257 . S
Mn73 N89 2.282 . S
Mn73 O97 2.215 . S
Mn73 O99 2.117 . S
C74 O96 1.234 . S
C74 O97 1.283 . S
C75 O87 1.281 . S
C75 O88 1.236 . S
C76 O98 1.240 . S
C76 O99 1.264 . S
O77 Mn72 2.095 . S
O77 C86 1.250 . S
O78 Mn73 2.121 . S
O78 C86 1.258 . S
C79 N80 1.326 . S
C79 C83 1.460 . S
C79 H85 0.929 . S
N80 Mn73 2.257 . S
N80 C79 1.326 . S
N80 C84 1.362 . S
C81 C82 1.258 . S
C81 C84 1.431 . S
C81 C101 1.449 . S
C82 C81 1.258 . S
C82 C83 1.477 . S
C82 H102 0.931 . S
C83 C79 1.460 . S
C83 C82 1.477 . S
C83 H103 0.930 . S
C84 N80 1.362 . S
C84 C81 1.431 . S
C84 C94 1.476 . S
H85 C79 0.929 . S
C86 O77 1.250 . S
C86 O78 1.258 . S
O87 Mn72 2.162 . S
O87 C75 1.281 . S
O88 Mn72 2.297 . S
O88 C75 1.236 . S
N89 Mn73 2.282 . S
N89 C90 1.328 . S
N89 C94 1.318 . S
C90 N89 1.328 . S
C90 C91 1.457 . S
C90 H95 0.929 . S
C91 C90 1.457 . S
C91 C92 1.291 . S
C91 H104 0.931 . S
C92 C91 1.291 . S
C92 C93 1.373 . S
C92 H105 0.929 . S
C93 C92 1.373 . S
C93 C94 1.396 . S
C93 C100 1.403 . S
C94 C84 1.476 . S
C94 N89 1.318 . S
C94 C93 1.396 . S
H95 C90 0.929 . S
O96 Mn72 2.385 . S
O96 C74 1.234 . S
O97 Mn72 2.209 . S
O97 Mn73 2.215 . S
O97 C74 1.283 . S
O98 Mn72 2.094 . S
O98 C76 1.240 . S
O99 Mn73 2.117 . S
O99 C76 1.264 . S
C100 C93 1.403 . S
C100 C101 1.399 . S
C100 H106 0.929 . S
C101 C81 1.449 . S
C101 C100 1.399 . S
C101 H107 0.930 . S
H102 C82 0.931 . S
H103 C83 0.930 . S
H104 C91 0.931 . S
H105 C92 0.929 . S
H106 C100 0.929 . S
H107 C101 0.930 . S
Mn108 O113 2.095 . S
Mn108 O123 2.162 . S
Mn108 O124 2.297 . S
Mn108 O132 2.384 . S
Mn108 O133 2.209 . S
Mn108 O134 2.094 . S
Mn109 O114 2.121 . S
Mn109 N116 2.257 . S
Mn109 N125 2.282 . S
Mn109 O133 2.215 . S
Mn109 O135 2.117 . S
C110 O132 1.233 . S
C110 O133 1.283 . S
C111 O123 1.281 . S
C111 O124 1.236 . S
C112 O134 1.240 . S
C112 O135 1.264 . S
O113 Mn108 2.095 . S
O113 C122 1.250 . S
O114 Mn109 2.121 . S
O114 C122 1.258 . S
C115 N116 1.326 . S
C115 C119 1.460 . S
C115 H121 0.929 . S
N116 Mn109 2.257 . S
N116 C115 1.326 . S
N116 C120 1.362 . S
C117 C118 1.258 . S
C117 C120 1.431 . S
C117 C137 1.449 . S
C118 C117 1.258 . S
C118 C119 1.477 . S
C118 H138 0.931 . S
C119 C115 1.460 . S
C119 C118 1.477 . S
C119 H139 0.930 . S
C120 N116 1.362 . S
C120 C117 1.431 . S
C120 C130 1.476 . S
H121 C115 0.929 . S
C122 O113 1.250 . S
C122 O114 1.258 . S
O123 Mn108 2.162 . S
O123 C111 1.281 . S
O124 Mn108 2.297 . S
O124 C111 1.236 . S
N125 Mn109 2.282 . S
N125 C126 1.328 . S
N125 C130 1.318 . S
C126 N125 1.328 . S
C126 C127 1.457 . S
C126 H131 0.929 . S
C127 C126 1.457 . S
C127 C128 1.291 . S
C127 H140 0.931 1_554 S
C128 C127 1.291 . S
C128 C129 1.373 . S
C128 H141 0.929 1_554 S
C129 C128 1.373 . S
C129 C130 1.396 . S
C129 C136 1.403 . S
C130 C120 1.476 . S
C130 N125 1.318 . S
C130 C129 1.396 . S
H131 C126 0.929 . S
O132 Mn108 2.384 . S
O132 C110 1.233 . S
O133 Mn108 2.209 . S
O133 Mn109 2.215 . S
O133 C110 1.283 . S
O134 Mn108 2.094 . S
O134 C112 1.240 . S
O135 Mn109 2.117 . S
O135 C112 1.264 . S
C136 C129 1.403 . S
C136 C137 1.399 . S
C136 H142 0.929 . S
C137 C117 1.449 . S
C137 C136 1.399 . S
C137 H143 0.930 . S
H138 C118 0.931 . S
H139 C119 0.930 . S
H140 C127 0.931 1_556 S
H141 C128 0.929 1_556 S
H142 C136 0.929 . S
H143 C137 0.930 . S
Mn144 O149 2.095 . S
Mn144 O159 2.162 . S
Mn144 O160 2.297 . S
Mn144 O168 2.385 . S
Mn144 O169 2.209 . S
Mn144 O170 2.094 . S
Mn145 O150 2.121 . S
Mn145 N152 2.257 . S
Mn145 N161 2.282 . S
Mn145 O169 2.215 . S
Mn145 O171 2.117 . S
C146 O168 1.234 . S
C146 O169 1.283 . S
C147 O159 1.281 . S
C147 O160 1.236 . S
C148 O170 1.240 . S
C148 O171 1.264 . S
O149 Mn144 2.095 . S
O149 C158 1.250 . S
O150 Mn145 2.121 . S
O150 C158 1.258 . S
C151 N152 1.326 . S
C151 C155 1.460 . S
C151 H157 0.929 . S
N152 Mn145 2.257 . S
N152 C151 1.326 . S
N152 C156 1.362 . S
C153 C154 1.258 . S
C153 C156 1.431 . S
C153 C173 1.449 . S
C154 C153 1.258 . S
C154 C155 1.477 . S
C154 H174 0.931 . S
C155 C151 1.460 . S
C155 C154 1.477 . S
C155 H175 0.930 . S
C156 N152 1.362 . S
C156 C153 1.431 . S
C156 C166 1.476 . S
H157 C151 0.929 . S
C158 O149 1.250 . S
C158 O150 1.258 . S
O159 Mn144 2.162 . S
O159 C147 1.281 . S
O160 Mn144 2.297 . S
O160 C147 1.236 . S
N161 Mn145 2.282 . S
N161 C162 1.328 . S
N161 C166 1.318 . S
C162 N161 1.328 . S
C162 C163 1.457 . S
C162 H167 0.929 . S
C163 C162 1.457 . S
C163 C164 1.291 . S
C163 H176 0.931 . S
C164 C163 1.291 . S
C164 C165 1.373 . S
C164 H177 0.929 . S
C165 C164 1.373 . S
C165 C166 1.396 . S
C165 C172 1.403 . S
C166 C156 1.476 . S
C166 N161 1.318 . S
C166 C165 1.396 . S
H167 C162 0.929 . S
O168 Mn144 2.385 . S
O168 C146 1.234 . S
O169 Mn144 2.209 . S
O169 Mn145 2.215 . S
O169 C146 1.283 . S
O170 Mn144 2.094 . S
O170 C148 1.240 . S
O171 Mn145 2.117 . S
O171 C148 1.264 . S
C172 C165 1.403 . S
C172 C173 1.399 . S
C172 H178 0.929 . S
C173 C153 1.449 . S
C173 C172 1.399 . S
C173 H179 0.930 . S
H174 C154 0.931 . S
H175 C155 0.930 . S
H176 C163 0.931 . S
H177 C164 0.929 . S
H178 C172 0.929 . S
H179 C173 0.930 . S
Mn180 O185 2.095 . S
Mn180 O195 2.162 . S
Mn180 O196 2.297 . S
Mn180 O204 2.385 . S
Mn180 O205 2.209 . S
Mn180 O206 2.094 . S
Mn181 O186 2.121 . S
Mn181 N188 2.257 . S
Mn181 N197 2.282 . S
Mn181 O205 2.215 . S
Mn181 O207 2.117 . S
C182 O204 1.234 . S
C182 O205 1.283 . S
C183 O195 1.281 . S
C183 O196 1.236 . S
C184 O206 1.240 . S
C184 O207 1.264 . S
O185 Mn180 2.095 . S
O185 C194 1.250 . S
O186 Mn181 2.121 . S
O186 C194 1.258 . S
C187 N188 1.326 . S
C187 C191 1.460 . S
C187 H193 0.929 . S
N188 Mn181 2.257 . S
N188 C187 1.326 . S
N188 C192 1.362 . S
C189 C190 1.258 . S
C189 C192 1.431 . S
C189 C209 1.449 . S
C190 C189 1.258 . S
C190 C191 1.477 . S
C190 H210 0.931 . S
C191 C187 1.460 . S
C191 C190 1.477 . S
C191 H211 0.930 . S
C192 N188 1.362 . S
C192 C189 1.431 . S
C192 C202 1.476 . S
H193 C187 0.929 . S
C194 O185 1.250 . S
C194 O186 1.258 . S
O195 Mn180 2.162 . S
O195 C183 1.281 . S
O196 Mn180 2.297 . S
O196 C183 1.236 . S
N197 Mn181 2.282 . S
N197 C198 1.328 . S
N197 C202 1.318 . S
C198 N197 1.328 . S
C198 C199 1.457 . S
C198 H203 0.929 . S
C199 C198 1.457 . S
C199 C200 1.291 . S
C199 H212 0.931 . S
C200 C199 1.291 . S
C200 C201 1.373 . S
C200 H213 0.929 . S
C201 C200 1.373 . S
C201 C202 1.396 . S
C201 C208 1.403 . S
C202 C192 1.476 . S
C202 N197 1.318 . S
C202 C201 1.396 . S
H203 C198 0.929 . S
O204 Mn180 2.385 . S
O204 C182 1.234 . S
O205 Mn180 2.209 . S
O205 Mn181 2.215 . S
O205 C182 1.283 . S
O206 Mn180 2.094 . S
O206 C184 1.240 . S
O207 Mn181 2.117 . S
O207 C184 1.264 . S
C208 C201 1.403 . S
C208 C209 1.399 . S
C208 H214 0.929 . S
C209 C189 1.449 . S
C209 C208 1.399 . S
C209 H215 0.930 . S
H210 C190 0.931 . S
H211 C191 0.930 . S
H212 C199 0.931 . S
H213 C200 0.929 . S
H214 C208 0.929 . S
H215 C209 0.930 . S
Mn216 O221 2.095 . S
Mn216 O231 2.162 . S
Mn216 O232 2.297 . S
Mn216 O240 2.385 . S
Mn216 O241 2.209 . S
Mn216 O242 2.094 . S
Mn217 O222 2.121 . S
Mn217 N224 2.257 . S
Mn217 N233 2.282 . S
Mn217 O241 2.215 . S
Mn217 O243 2.117 . S
C218 O240 1.234 . S
C218 O241 1.283 . S
C219 O231 1.281 . S
C219 O232 1.236 . S
C220 O242 1.240 . S
C220 O243 1.264 . S
O221 Mn216 2.095 . S
O221 C230 1.250 . S
O222 Mn217 2.121 . S
O222 C230 1.258 . S
C223 N224 1.326 . S
C223 C227 1.460 . S
C223 H229 0.929 . S
N224 Mn217 2.257 . S
N224 C223 1.326 . S
N224 C228 1.362 . S
C225 C226 1.258 . S
C225 C228 1.431 . S
C225 C245 1.449 . S
C226 C225 1.258 . S
C226 C227 1.477 . S
C226 H246 0.931 . S
C227 C223 1.460 . S
C227 C226 1.477 . S
C227 H247 0.930 . S
C228 N224 1.362 . S
C228 C225 1.431 . S
C228 C238 1.476 . S
H229 C223 0.929 . S
C230 O221 1.250 . S
C230 O222 1.258 . S
O231 Mn216 2.162 . S
O231 C219 1.281 . S
O232 Mn216 2.297 . S
O232 C219 1.236 . S
N233 Mn217 2.282 . S
N233 C234 1.328 . S
N233 C238 1.318 . S
C234 N233 1.328 . S
C234 C235 1.457 . S
C234 H239 0.929 . S
C235 C234 1.457 . S
C235 C236 1.291 . S
C235 H248 0.931 . S
C236 C235 1.291 . S
C236 C237 1.373 . S
C236 H249 0.929 . S
C237 C236 1.373 . S
C237 C238 1.396 . S
C237 C244 1.403 . S
C238 C228 1.476 . S
C238 N233 1.318 . S
C238 C237 1.396 . S
H239 C234 0.929 . S
O240 Mn216 2.385 . S
O240 C218 1.234 . S
O241 Mn216 2.209 . S
O241 Mn217 2.215 . S
O241 C218 1.283 . S
O242 Mn216 2.094 . S
O242 C220 1.240 . S
O243 Mn217 2.117 . S
O243 C220 1.264 . S
C244 C237 1.403 . S
C244 C245 1.399 . S
C244 H250 0.929 . S
C245 C225 1.449 . S
C245 C244 1.399 . S
C245 H251 0.930 . S
H246 C226 0.931 . S
H247 C227 0.930 . S
H248 C235 0.931 . S
H249 C236 0.929 . S
H250 C244 0.929 . S
H251 C245 0.930 . S
Mn252 O257 2.095 . S
Mn252 O267 2.162 . S
Mn252 O268 2.297 . S
Mn252 O276 2.384 . S
Mn252 O277 2.209 . S
Mn252 O278 2.094 . S
Mn253 O258 2.121 . S
Mn253 N260 2.257 . S
Mn253 N269 2.282 . S
Mn253 O277 2.215 . S
Mn253 O279 2.117 . S
C254 O276 1.233 . S
C254 O277 1.283 . S
C255 O267 1.281 . S
C255 O268 1.236 . S
C256 O278 1.240 . S
C256 O279 1.264 . S
O257 Mn252 2.095 . S
O257 C266 1.250 . S
O258 Mn253 2.121 . S
O258 C266 1.258 . S
C259 N260 1.326 . S
C259 C263 1.460 . S
C259 H265 0.929 . S
N260 Mn253 2.257 . S
N260 C259 1.326 . S
N260 C264 1.362 . S
C261 C262 1.258 . S
C261 C264 1.431 . S
C261 C281 1.449 . S
C262 C261 1.258 . S
C262 C263 1.477 . S
C262 H282 0.931 . S
C263 C259 1.460 . S
C263 C262 1.477 . S
C263 H283 0.930 . S
C264 N260 1.362 . S
C264 C261 1.431 . S
C264 C274 1.476 . S
H265 C259 0.929 . S
C266 O257 1.250 . S
C266 O258 1.258 . S
O267 Mn252 2.162 . S
O267 C255 1.281 . S
O268 Mn252 2.297 . S
O268 C255 1.236 . S
N269 Mn253 2.282 . S
N269 C270 1.328 . S
N269 C274 1.318 . S
C270 N269 1.328 . S
C270 C271 1.457 . S
C270 H275 0.929 . S
C271 C270 1.457 . S
C271 C272 1.291 . S
C271 H284 0.931 1_556 S
C272 C271 1.291 . S
C272 C273 1.373 . S
C272 H285 0.929 1_556 S
C273 C272 1.373 . S
C273 C274 1.396 . S
C273 C280 1.403 . S
C274 C264 1.476 . S
C274 N269 1.318 . S
C274 C273 1.396 . S
H275 C270 0.929 . S
O276 Mn252 2.384 . S
O276 C254 1.233 . S
O277 Mn252 2.209 . S
O277 Mn253 2.215 . S
O277 C254 1.283 . S
O278 Mn252 2.094 . S
O278 C256 1.240 . S
O279 Mn253 2.117 . S
O279 C256 1.264 . S
C280 C273 1.403 . S
C280 C281 1.399 . S
C280 H286 0.929 . S
C281 C261 1.449 . S
C281 C280 1.399 . S
C281 H287 0.930 . S
H282 C262 0.931 . S
H283 C263 0.930 . S
H284 C271 0.931 1_554 S
H285 C272 0.929 1_554 S
H286 C280 0.929 . S
H287 C281 0.930 . S
Mn288 O293 2.095 . S
Mn288 O303 2.162 . S
Mn288 O304 2.297 . S
Mn288 O312 2.385 . S
Mn288 O313 2.209 . S
Mn288 O314 2.094 . S
Mn289 O294 2.121 . S
Mn289 N296 2.257 . S
Mn289 N305 2.282 . S
Mn289 O313 2.215 . S
Mn289 O315 2.117 . S
C290 O312 1.234 . S
C290 O313 1.283 . S
C291 O303 1.281 . S
C291 O304 1.236 . S
C292 O314 1.240 . S
C292 O315 1.264 . S
O293 Mn288 2.095 . S
O293 C302 1.250 . S
O294 Mn289 2.121 . S
O294 C302 1.258 . S
C295 N296 1.326 . S
C295 C299 1.460 . S
C295 H301 0.929 . S
N296 Mn289 2.257 . S
N296 C295 1.326 . S
N296 C300 1.362 . S
C297 C298 1.258 . S
C297 C300 1.431 . S
C297 C317 1.449 . S
C298 C297 1.258 . S
C298 C299 1.477 . S
C298 H318 0.931 . S
C299 C295 1.460 . S
C299 C298 1.477 . S
C299 H319 0.930 . S
C300 N296 1.362 . S
C300 C297 1.431 . S
C300 C310 1.476 . S
H301 C295 0.929 . S
C302 O293 1.250 . S
C302 O294 1.258 . S
O303 Mn288 2.162 . S
O303 C291 1.281 . S
O304 Mn288 2.297 . S
O304 C291 1.236 . S
N305 Mn289 2.282 . S
N305 C306 1.328 . S
N305 C310 1.318 . S
C306 N305 1.328 . S
C306 C307 1.457 . S
C306 H311 0.929 . S
C307 C306 1.457 . S
C307 C308 1.291 . S
C307 H320 0.931 . S
C308 C307 1.291 . S
C308 C309 1.373 . S
C308 H321 0.929 . S
C309 C308 1.373 . S
C309 C310 1.396 . S
C309 C316 1.403 . S
C310 C300 1.476 . S
C310 N305 1.318 . S
C310 C309 1.396 . S
H311 C306 0.929 . S
O312 Mn288 2.385 . S
O312 C290 1.234 . S
O313 Mn288 2.209 . S
O313 Mn289 2.215 . S
O313 C290 1.283 . S
O314 Mn288 2.094 . S
O314 C292 1.240 . S
O315 Mn289 2.117 . S
O315 C292 1.264 . S
C316 C309 1.403 . S
C316 C317 1.399 . S
C316 H322 0.929 . S
C317 C297 1.449 . S
C317 C316 1.399 . S
C317 H323 0.930 . S
H318 C298 0.931 . S
H319 C299 0.930 . S
H320 C307 0.931 . S
H321 C308 0.929 . S
H322 C316 0.929 . S
H323 C317 0.930 . S
Mn324 O329 2.095 . S
Mn324 O339 2.162 . S
Mn324 O340 2.297 . S
Mn324 O348 2.385 . S
Mn324 O349 2.209 . S
Mn324 O350 2.094 . S
Mn325 O330 2.121 . S
Mn325 N332 2.257 . S
Mn325 N341 2.282 . S
Mn325 O349 2.215 . S
Mn325 O351 2.117 . S
C326 O348 1.234 . S
C326 O349 1.283 . S
C327 O339 1.281 . S
C327 O340 1.236 . S
C328 O350 1.240 . S
C328 O351 1.264 . S
O329 Mn324 2.095 . S
O329 C338 1.250 . S
O330 Mn325 2.121 . S
O330 C338 1.258 . S
C331 N332 1.326 . S
C331 C335 1.460 . S
C331 H337 0.929 . S
N332 Mn325 2.257 . S
N332 C331 1.326 . S
N332 C336 1.362 . S
C333 C334 1.258 . S
C333 C336 1.431 . S
C333 C353 1.449 . S
C334 C333 1.258 . S
C334 C335 1.477 . S
C334 H354 0.931 . S
C335 C331 1.460 . S
C335 C334 1.477 . S
C335 H355 0.930 . S
C336 N332 1.362 . S
C336 C333 1.431 . S
C336 C346 1.476 . S
H337 C331 0.929 . S
C338 O329 1.250 . S
C338 O330 1.258 . S
O339 Mn324 2.162 . S
O339 C327 1.281 . S
O340 Mn324 2.297 . S
O340 C327 1.236 . S
N341 Mn325 2.282 . S
N341 C342 1.328 . S
N341 C346 1.318 . S
C342 N341 1.328 . S
C342 C343 1.457 . S
C342 H347 0.929 . S
C343 C342 1.457 . S
C343 C344 1.291 . S
C343 H356 0.931 . S
C344 C343 1.291 . S
C344 C345 1.373 . S
C344 H357 0.929 . S
C345 C344 1.373 . S
C345 C346 1.396 . S
C345 C352 1.403 . S
C346 C336 1.476 . S
C346 N341 1.318 . S
C346 C345 1.396 . S
H347 C342 0.929 . S
O348 Mn324 2.385 . S
O348 C326 1.234 . S
O349 Mn324 2.209 . S
O349 Mn325 2.215 . S
O349 C326 1.283 . S
O350 Mn324 2.094 . S
O350 C328 1.240 . S
O351 Mn325 2.117 . S
O351 C328 1.264 . S
C352 C345 1.403 . S
C352 C353 1.399 . S
C352 H358 0.929 . S
C353 C333 1.449 . S
C353 C352 1.399 . S
C353 H359 0.930 . S
H354 C334 0.931 . S
H355 C335 0.930 . S
H356 C343 0.931 . S
H357 C344 0.929 . S
H358 C352 0.929 . S
H359 C353 0.930 . S
Mn360 O365 2.095 . S
Mn360 O375 2.162 . S
Mn360 O376 2.297 . S
Mn360 O384 2.384 . S
Mn360 O385 2.209 . S
Mn360 O386 2.094 . S
Mn361 O366 2.121 . S
Mn361 N368 2.257 . S
Mn361 N377 2.282 . S
Mn361 O385 2.215 . S
Mn361 O387 2.117 . S
C362 O384 1.233 . S
C362 O385 1.283 . S
C363 O375 1.281 . S
C363 O376 1.236 . S
C364 O386 1.240 . S
C364 O387 1.264 . S
O365 Mn360 2.095 . S
O365 C374 1.250 . S
O366 Mn361 2.121 . S
O366 C374 1.258 . S
C367 N368 1.326 . S
C367 C371 1.460 . S
C367 H373 0.929 . S
N368 Mn361 2.257 . S
N368 C367 1.326 . S
N368 C372 1.362 . S
C369 C370 1.258 . S
C369 C372 1.431 . S
C369 C389 1.449 . S
C370 C369 1.258 . S
C370 C371 1.477 . S
C370 H390 0.931 . S
C371 C367 1.460 . S
C371 C370 1.477 . S
C371 H391 0.930 . S
C372 N368 1.362 . S
C372 C369 1.431 . S
C372 C382 1.476 . S
H373 C367 0.929 . S
C374 O365 1.250 . S
C374 O366 1.258 . S
O375 Mn360 2.162 . S
O375 C363 1.281 . S
O376 Mn360 2.297 . S
O376 C363 1.236 . S
N377 Mn361 2.282 . S
N377 C378 1.328 . S
N377 C382 1.318 . S
C378 N377 1.328 . S
C378 C379 1.457 . S
C378 H383 0.929 . S
C379 C378 1.457 . S
C379 C380 1.291 . S
C379 H392 0.931 1_556 S
C380 C379 1.291 . S
C380 C381 1.373 . S
C380 H393 0.929 1_556 S
C381 C380 1.373 . S
C381 C382 1.396 . S
C381 C388 1.403 . S
C382 C372 1.476 . S
C382 N377 1.318 . S
C382 C381 1.396 . S
H383 C378 0.929 . S
O384 Mn360 2.384 . S
O384 C362 1.233 . S
O385 Mn360 2.209 . S
O385 Mn361 2.215 . S
O385 C362 1.283 . S
O386 Mn360 2.094 . S
O386 C364 1.240 . S
O387 Mn361 2.117 . S
O387 C364 1.264 . S
C388 C381 1.403 . S
C388 C389 1.399 . S
C388 H394 0.929 . S
C389 C369 1.449 . S
C389 C388 1.399 . S
C389 H395 0.930 . S
H390 C370 0.931 . S
H391 C371 0.930 . S
H392 C379 0.931 1_554 S
H393 C380 0.929 1_554 S
H394 C388 0.929 . S
H395 C389 0.930 . S
Mn396 O401 2.095 . S
Mn396 O411 2.162 . S
Mn396 O412 2.297 . S
Mn396 O420 2.385 . S
Mn396 O421 2.209 . S
Mn396 O422 2.094 . S
Mn397 O402 2.121 . S
Mn397 N404 2.257 . S
Mn397 N413 2.282 . S
Mn397 O421 2.215 . S
Mn397 O423 2.117 . S
C398 O420 1.234 . S
C398 O421 1.283 . S
C399 O411 1.281 . S
C399 O412 1.236 . S
C400 O422 1.240 . S
C400 O423 1.264 . S
O401 Mn396 2.095 . S
O401 C410 1.250 . S
O402 Mn397 2.121 . S
O402 C410 1.258 . S
C403 N404 1.326 . S
C403 C407 1.460 . S
C403 H409 0.929 . S
N404 Mn397 2.257 . S
N404 C403 1.326 . S
N404 C408 1.362 . S
C405 C406 1.258 . S
C405 C408 1.431 . S
C405 C425 1.449 . S
C406 C405 1.258 . S
C406 C407 1.477 . S
C406 H426 0.931 . S
C407 C403 1.460 . S
C407 C406 1.477 . S
C407 H427 0.930 . S
C408 N404 1.362 . S
C408 C405 1.431 . S
C408 C418 1.476 . S
H409 C403 0.929 . S
C410 O401 1.250 . S
C410 O402 1.258 . S
O411 Mn396 2.162 . S
O411 C399 1.281 . S
O412 Mn396 2.297 . S
O412 C399 1.236 . S
N413 Mn397 2.282 . S
N413 C414 1.328 . S
N413 C418 1.318 . S
C414 N413 1.328 . S
C414 C415 1.457 . S
C414 H419 0.929 . S
C415 C414 1.457 . S
C415 C416 1.291 . S
C415 H428 0.931 . S
C416 C415 1.291 . S
C416 C417 1.373 . S
C416 H429 0.929 . S
C417 C416 1.373 . S
C417 C418 1.396 . S
C417 C424 1.403 . S
C418 C408 1.476 . S
C418 N413 1.318 . S
C418 C417 1.396 . S
H419 C414 0.929 . S
O420 Mn396 2.385 . S
O420 C398 1.234 . S
O421 Mn396 2.209 . S
O421 Mn397 2.215 . S
O421 C398 1.283 . S
O422 Mn396 2.094 . S
O422 C400 1.240 . S
O423 Mn397 2.117 . S
O423 C400 1.264 . S
C424 C417 1.403 . S
C424 C425 1.399 . S
C424 H430 0.929 . S
C425 C405 1.449 . S
C425 C424 1.399 . S
C425 H431 0.930 . S
H426 C406 0.931 . S
H427 C407 0.930 . S
H428 C415 0.931 . S
H429 C416 0.929 . S
H430 C424 0.929 . S
H431 C425 0.930 . S
C432 C433 1.387 . S
C432 H436 0.950 . S
C432 C441 1.390 1_566 S
C433 C432 1.387 . S
C433 C435 1.387 . S
H434 C441 0.950 . S
C435 C433 1.387 . S
C435 C437 1.390 1_566 S
C435 H439 0.950 . S
H436 C432 0.950 . S
C437 C435 1.390 1_544 S
C437 C438 1.387 . S
C437 H440 0.950 . S
C438 C437 1.387 . S
C438 C441 1.387 . S
H439 C435 0.950 . S
H440 C437 0.950 . S
C441 C432 1.390 1_544 S
C441 H434 0.950 . S
C441 C438 1.387 . S
C442 C443 1.387 . S
C442 H446 0.950 . S
C442 C451 1.390 . S
C443 C442 1.387 . S
C443 C445 1.387 . S
H444 C451 0.950 . S
C445 C443 1.387 . S
C445 C447 1.390 . S
C445 H449 0.950 . S
H446 C442 0.950 . S
C447 C445 1.390 . S
C447 C448 1.387 . S
C447 H450 0.950 . S
C448 C447 1.387 . S
C448 C451 1.387 . S
H449 C445 0.950 . S
H450 C447 0.950 . S
C451 C442 1.390 . S
C451 H444 0.950 . S
C451 C448 1.387 . S
C452 C453 1.387 . S
C452 H456 0.950 . S
C452 C461 1.390 1_655 S
C453 C452 1.387 . S
C453 C455 1.387 . S
H454 C461 0.950 . S
C455 C453 1.387 . S
C455 C457 1.390 1_655 S
C455 H459 0.950 . S
H456 C452 0.950 . S
C457 C455 1.390 1_455 S
C457 C458 1.387 . S
C457 H460 0.950 . S
C458 C457 1.387 . S
C458 C461 1.387 . S
H459 C455 0.950 . S
H460 C457 0.950 . S
C461 C452 1.390 1_455 S
C461 H454 0.950 . S
C461 C458 1.387 . S
C462 C463 1.387 . S
C462 H466 0.950 . S
C462 C471 1.390 1_564 S
C463 C462 1.387 . S
C463 C465 1.387 . S
H464 C471 0.950 . S
C465 C463 1.387 . S
C465 C467 1.390 1_564 S
C465 H469 0.950 . S
H466 C462 0.950 . S
C467 C465 1.390 1_546 S
C467 C468 1.387 . S
C467 H470 0.950 . S
C468 C467 1.387 . S
C468 C471 1.387 . S
H469 C465 0.950 . S
H470 C467 0.950 . S
C471 C462 1.390 1_546 S
C471 H464 0.950 . S
C471 C468 1.387 . S
C472 C473 1.387 . S
C472 H476 0.950 . S
C472 C481 1.390 . S
C473 C472 1.387 . S
C473 C475 1.387 . S
H474 C481 0.950 . S
C475 C473 1.387 . S
C475 C477 1.390 . S
C475 H479 0.950 . S
H476 C472 0.950 . S
C477 C475 1.390 . S
C477 C478 1.387 . S
C477 H480 0.950 . S
C478 C477 1.387 . S
C478 C481 1.387 . S
H479 C475 0.950 . S
H480 C477 0.950 . S
C481 C472 1.390 . S
C481 H474 0.950 . S
C481 C478 1.387 . S
C482 C483 1.387 . S
C482 H486 0.950 . S
C482 C491 1.390 1_655 S
C483 C482 1.387 . S
C483 C485 1.387 . S
H484 C491 0.950 . S
C485 C483 1.387 . S
C485 C487 1.390 1_655 S
C485 H489 0.950 . S
H486 C482 0.950 . S
C487 C485 1.390 1_455 S
C487 C488 1.387 . S
C487 H490 0.950 . S
C488 C487 1.387 . S
C488 C491 1.387 . S
H489 C485 0.950 . S
H490 C487 0.950 . S
C491 C482 1.390 1_455 S
C491 H484 0.950 . S
C491 C488 1.387 . S
C492 C493 1.387 . S
C492 H496 0.950 . S
C492 C501 1.390 1_556 S
C493 C492 1.387 . S
C493 C495 1.387 . S
H494 C501 0.950 . S
C495 C493 1.387 . S
C495 C497 1.390 1_556 S
C495 H499 0.950 . S
H496 C492 0.950 . S
C497 C495 1.390 1_554 S
C497 C498 1.387 . S
C497 H500 0.950 . S
C498 C497 1.387 . S
C498 C501 1.387 . S
H499 C495 0.950 . S
H500 C497 0.950 . S
C501 C492 1.390 1_554 S
C501 H494 0.950 . S
C501 C498 1.387 . S
C502 C503 1.387 . S
C502 H506 0.950 . S
C502 C511 1.390 . S
C503 C502 1.387 . S
C503 C505 1.387 . S
H504 C511 0.950 . S
C505 C503 1.387 . S
C505 C507 1.390 . S
C505 H509 0.950 . S
H506 C502 0.950 . S
C507 C505 1.390 . S
C507 C508 1.387 . S
C507 H510 0.950 . S
C508 C507 1.387 . S
C508 C511 1.387 . S
H509 C505 0.950 . S
H510 C507 0.950 . S
C511 C502 1.390 . S
C511 H504 0.950 . S
C511 C508 1.387 . S
C512 C513 1.387 . S
C512 H516 0.950 . S
C512 C521 1.390 . S
C513 C512 1.387 . S
C513 C515 1.387 . S
H514 C521 0.950 . S
C515 C513 1.387 . S
C515 C517 1.390 . S
C515 H519 0.950 . S
H516 C512 0.950 . S
C517 C515 1.390 . S
C517 C518 1.387 . S
C517 H520 0.950 . S
C518 C517 1.387 . S
C518 C521 1.387 . S
H519 C515 0.950 . S
H520 C517 0.950 . S
C521 C512 1.390 . S
C521 H514 0.950 . S
C521 C518 1.387 . S
C522 C523 1.387 . S
C522 H526 0.950 . S
C522 C531 1.390 1_556 S
C523 C522 1.387 . S
C523 C525 1.387 . S
H524 C531 0.950 . S
C525 C523 1.387 . S
C525 C527 1.390 1_556 S
C525 H529 0.950 . S
H526 C522 0.950 . S
C527 C525 1.390 1_554 S
C527 C528 1.387 . S
C527 H530 0.950 . S
C528 C527 1.387 . S
C528 C531 1.387 . S
H529 C525 0.950 . S
H530 C527 0.950 . S
C531 C522 1.390 1_554 S
C531 H524 0.950 . S
C531 C528 1.387 . S
C532 C533 1.387 . S
C532 H536 0.950 . S
C532 C541 1.390 . S
C533 C532 1.387 . S
C533 C535 1.387 . S
H534 C541 0.950 . S
C535 C533 1.387 . S
C535 C537 1.390 . S
C535 H539 0.950 . S
H536 C532 0.950 . S
C537 C535 1.390 . S
C537 C538 1.387 . S
C537 H540 0.950 . S
C538 C537 1.387 . S
C538 C541 1.387 . S
H539 C535 0.950 . S
H540 C537 0.950 . S
C541 C532 1.390 . S
C541 H534 0.950 . S
C541 C538 1.387 . S
C542 C543 1.387 . S
C542 H546 0.950 . S
C542 C551 1.390 . S
C543 C542 1.387 . S
C543 C545 1.387 . S
H544 C551 0.950 . S
C545 C543 1.387 . S
C545 C547 1.390 . S
C545 H549 0.950 . S
H546 C542 0.950 . S
C547 C545 1.390 . S
C547 C548 1.387 . S
C547 H550 0.950 . S
C548 C547 1.387 . S
C548 C551 1.387 . S
H549 C545 0.950 . S
H550 C547 0.950 . S
C551 C542 1.390 . S
C551 H544 0.950 . S
C551 C548 1.387 . S
C552 C553 1.387 . S
C552 H556 0.950 . S
C552 C561 1.390 . S
C553 C552 1.387 . S
C553 C555 1.387 . S
H554 C561 0.950 . S
C555 C553 1.387 . S
C555 C557 1.390 . S
C555 H559 0.950 . S
H556 C552 0.950 . S
C557 C555 1.390 . S
C557 C558 1.387 . S
C557 H560 0.950 . S
C558 C557 1.387 . S
C558 C561 1.387 . S
H559 C555 0.950 . S
H560 C557 0.950 . S
C561 C552 1.390 . S
C561 H554 0.950 . S
C561 C558 1.387 . S
C562 C563 1.387 . S
C562 H566 0.950 . S
C562 C571 1.390 . S
C563 C562 1.387 . S
C563 C565 1.387 . S
H564 C571 0.950 . S
C565 C563 1.387 . S
C565 C567 1.390 . S
C565 H569 0.950 . S
H566 C562 0.950 . S
C567 C565 1.390 . S
C567 C568 1.387 . S
C567 H570 0.950 . S
C568 C567 1.387 . S
C568 C571 1.387 . S
H569 C565 0.950 . S
H570 C567 0.950 . S
C571 C562 1.390 . S
C571 H564 0.950 . S
C571 C568 1.387 . S
C572 C573 1.387 . S
C572 H576 0.950 . S
C572 C581 1.390 . S
C573 C572 1.387 . S
C573 C575 1.387 . S
H574 C581 0.950 . S
C575 C573 1.387 . S
C575 C577 1.390 . S
C575 H579 0.950 . S
H576 C572 0.950 . S
C577 C575 1.390 . S
C577 C578 1.387 . S
C577 H580 0.950 . S
C578 C577 1.387 . S
C578 C581 1.387 . S
H579 C575 0.950 . S
H580 C577 0.950 . S
C581 C572 1.390 . S
C581 H574 0.950 . S
C581 C578 1.387 . S
C582 C583 1.387 . S
C582 H586 0.950 . S
C582 C591 1.390 . S
C583 C582 1.387 . S
C583 C585 1.387 . S
H584 C591 0.950 . S
C585 C583 1.387 . S
C585 C587 1.390 . S
C585 H589 0.950 . S
H586 C582 0.950 . S
C587 C585 1.390 . S
C587 C588 1.387 . S
C587 H590 0.950 . S
C588 C587 1.387 . S
C588 C591 1.387 . S
H589 C585 0.950 . S
H590 C587 0.950 . S
C591 C582 1.390 . S
C591 H584 0.950 . S
C591 C588 1.387 . S
C592 C593 1.387 . S
C592 H596 0.950 . S
C592 C601 1.390 . S
C593 C592 1.387 . S
C593 C595 1.387 . S
H594 C601 0.950 . S
C595 C593 1.387 . S
C595 C597 1.390 . S
C595 H599 0.950 . S
H596 C592 0.950 . S
C597 C595 1.390 . S
C597 C598 1.387 . S
C597 H600 0.950 . S
C598 C597 1.387 . S
C598 C601 1.387 . S
H599 C595 0.950 . S
H600 C597 0.950 . S
C601 C592 1.390 . S
C601 H594 0.950 . S
C601 C598 1.387 . S
C602 C603 1.387 . S
C602 H606 0.950 . S
C602 C611 1.390 . S
C603 C602 1.387 . S
C603 C605 1.387 . S
H604 C611 0.950 . S
C605 C603 1.387 . S
C605 C607 1.390 . S
C605 H609 0.950 . S
H606 C602 0.950 . S
C607 C605 1.390 . S
C607 C608 1.387 . S
C607 H610 0.950 . S
C608 C607 1.387 . S
C608 C611 1.387 . S
H609 C605 0.950 . S
H610 C607 0.950 . S
C611 C602 1.390 . S
C611 H604 0.950 . S
C611 C608 1.387 . S
C612 C613 1.387 . S
C612 H616 0.950 1_554 S
C612 C621 1.390 . S
C613 C612 1.387 . S
C613 C615 1.387 . S
H614 C621 0.950 1_556 S
C615 C613 1.387 . S
C615 C617 1.390 . S
C615 H619 0.950 . S
H616 C612 0.950 1_556 S
C617 C615 1.390 . S
C617 C618 1.387 . S
C617 H620 0.950 . S
C618 C617 1.387 . S
C618 C621 1.387 . S
H619 C615 0.950 . S
H620 C617 0.950 . S
C621 C612 1.390 . S
C621 H614 0.950 1_554 S
C621 C618 1.387 . S
C622 C623 1.387 . S
C622 H626 0.950 . S
C622 C631 1.390 1_655 S
C623 C622 1.387 . S
C623 C625 1.387 . S
H624 C631 0.950 . S
C625 C623 1.387 . S
C625 C627 1.390 1_655 S
C625 H629 0.950 . S
H626 C622 0.950 . S
C627 C625 1.390 1_455 S
C627 C628 1.387 . S
C627 H630 0.950 . S
C628 C627 1.387 . S
C628 C631 1.387 . S
H629 C625 0.950 . S
H630 C627 0.950 . S
C631 C622 1.390 1_455 S
C631 H624 0.950 . S
C631 C628 1.387 . S
C632 C633 1.387 . S
C632 H636 0.950 . S
C632 C641 1.390 1_545 S
C633 C632 1.387 . S
C633 C635 1.387 . S
H634 C641 0.950 . S
C635 C633 1.387 . S
C635 C637 1.390 1_545 S
C635 H639 0.950 . S
H636 C632 0.950 . S
C637 C635 1.390 1_565 S
C637 C638 1.387 . S
C637 H640 0.950 . S
C638 C637 1.387 . S
C638 C641 1.387 . S
H639 C635 0.950 . S
H640 C637 0.950 . S
C641 C632 1.390 1_565 S
C641 H634 0.950 . S
C641 C638 1.387 . S
C642 C643 1.387 . S
C642 H646 0.950 . S
C642 C651 1.390 . S
C643 C642 1.387 . S
C643 C645 1.387 . S
H644 C651 0.950 . S
C645 C643 1.387 . S
C645 C647 1.390 . S
C645 H649 0.950 . S
H646 C642 0.950 . S
C647 C645 1.390 . S
C647 C648 1.387 . S
C647 H650 0.950 . S
C648 C647 1.387 . S
C648 C651 1.387 . S
H649 C645 0.950 . S
H650 C647 0.950 . S
C651 C642 1.390 . S
C651 H644 0.950 . S
C651 C648 1.387 . S
C652 C653 1.387 . S
C652 H656 0.950 1_556 S
C652 C661 1.390 1_455 S
C653 C652 1.387 . S
C653 C655 1.387 . S
H654 C661 0.950 1_554 S
C655 C653 1.387 . S
C655 C657 1.390 1_455 S
C655 H659 0.950 . S
H656 C652 0.950 1_554 S
C657 C655 1.390 1_655 S
C657 C658 1.387 . S
C657 H660 0.950 . S
C658 C657 1.387 . S
C658 C661 1.387 . S
H659 C655 0.950 . S
H660 C657 0.950 . S
C661 C652 1.390 1_655 S
C661 H654 0.950 1_556 S
C661 C658 1.387 . S
C662 C663 1.387 . S
C662 H666 0.950 . S
C662 C671 1.390 1_565 S
C663 C662 1.387 . S
C663 C665 1.387 . S
H664 C671 0.950 . S
C665 C663 1.387 . S
C665 C667 1.390 1_565 S
C665 H669 0.950 . S
H666 C662 0.950 . S
C667 C665 1.390 1_545 S
C667 C668 1.387 . S
C667 H670 0.950 . S
C668 C667 1.387 . S
C668 C671 1.387 . S
H669 C665 0.950 . S
H670 C667 0.950 . S
C671 C662 1.390 1_545 S
C671 H664 0.950 . S
C671 C668 1.387 . S
C433 C255 1.407 . S
C438 C3 1.407 . S
C443 C39 1.407 . S
C448 C291 1.406 . S
C453 C75 1.406 . S
C458 C327 1.407 . S
C463 C111 1.407 . S
C468 C363 1.407 . S
C473 C399 1.407 . S
C478 C147 1.406 . S
C483 C219 1.407 . S
C488 C183 1.406 . S
C493 C362 1.446 . S
C498 C2 1.446 . S
C503 C38 1.446 . S
C508 C398 1.446 . S
C513 C74 1.446 . S
C518 C218 1.446 . S
C523 C254 1.446 . S
C528 C110 1.446 . S
C533 C290 1.446 . S
C538 C146 1.446 . S
C543 C326 1.446 . S
C548 C182 1.446 . S
C553 C14 1.560 . S
C558 C302 1.557 . S
C563 C50 1.559 . S
C568 C338 1.559 . S
C573 C374 1.560 . S
C578 C86 1.558 . S
C583 C122 1.558 . S
C588 C410 1.557 . S
C593 C230 1.559 . S
C598 C158 1.559 . S
C603 C266 1.560 . S
C608 C194 1.558 . S
C613 C112 1.372 . S
C618 C4 1.372 . S
C623 C148 1.376 . S
C628 C40 1.376 . S
C633 C76 1.372 . S
C638 C184 1.372 . S
C643 C220 1.372 . S
C648 C328 1.372 . S
C653 C256 1.372 . S
C658 C364 1.372 . S
C663 C400 1.372 . S
C668 C292 1.372 . S
