# Generated by pormake.
# Topology noo, (5)-cn, num edge types: 1
# Building blocks:
#     Node 0, Type 0, BuildingBlock: XOMCOT_clean_sbu_1, # of connection points: 5
#     Node 1, Type 0, BuildingBlock: XOMCOT_clean_sbu_1, # of connection points: 5
#     Node 2, Type 0, BuildingBlock: XOMCOT_clean_sbu_1, # of connection points: 5
#     Node 3, Type 0, BuildingBlock: XOMCOT_clean_sbu_1, # of connection points: 5
#     Node 4, Type 0, BuildingBlock: XOMCOT_clean_sbu_1, # of connection points: 5
#     Node 5, Type 0, BuildingBlock: XOMCOT_clean_sbu_1, # of connection points: 5
#     Node 6, Type 0, BuildingBlock: XOMCOT_clean_sbu_1, # of connection points: 5
#     Node 7, Type 0, BuildingBlock: XOMCOT_clean_sbu_1, # of connection points: 5
#     Edge 8, Type (0, 0), BuildingBlock: MIFKUJ_clean_linker_0, # of connection points: 2
#     Edge 9, Type (0, 0), BuildingBlock: MIFKUJ_clean_linker_0, # of connection points: 2
#     Edge 10, Type (0, 0), BuildingBlock: MIFKUJ_clean_linker_0, # of connection points: 2
#     Edge 11, Type (0, 0), BuildingBlock: MIFKUJ_clean_linker_0, # of connection points: 2
#     Edge 12, Type (0, 0), BuildingBlock: MIFKUJ_clean_linker_0, # of connection points: 2
#     Edge 13, Type (0, 0), BuildingBlock: MIFKUJ_clean_linker_0, # of connection points: 2
#     Edge 14, Type (0, 0), BuildingBlock: MIFKUJ_clean_linker_0, # of connection points: 2
#     Edge 15, Type (0, 0), BuildingBlock: MIFKUJ_clean_linker_0, # of connection points: 2
#     Edge 16, Type (0, 0), BuildingBlock: MIFKUJ_clean_linker_0, # of connection points: 2
#     Edge 17, Type (0, 0), BuildingBlock: MIFKUJ_clean_linker_0, # of connection points: 2
#     Edge 18, Type (0, 0), BuildingBlock: MIFKUJ_clean_linker_0, # of connection points: 2
#     Edge 19, Type (0, 0), BuildingBlock: MIFKUJ_clean_linker_0, # of connection points: 2
#     Edge 20, Type (0, 0), BuildingBlock: MIFKUJ_clean_linker_0, # of connection points: 2
#     Edge 21, Type (0, 0), BuildingBlock: MIFKUJ_clean_linker_0, # of connection points: 2
#     Edge 22, Type (0, 0), BuildingBlock: MIFKUJ_clean_linker_0, # of connection points: 2
#     Edge 23, Type (0, 0), BuildingBlock: MIFKUJ_clean_linker_0, # of connection points: 2
#     Edge 24, Type (0, 0), BuildingBlock: MIFKUJ_clean_linker_0, # of connection points: 2
#     Edge 25, Type (0, 0), BuildingBlock: MIFKUJ_clean_linker_0, # of connection points: 2
#     Edge 26, Type (0, 0), BuildingBlock: MIFKUJ_clean_linker_0, # of connection points: 2
#     Edge 27, Type (0, 0), BuildingBlock: MIFKUJ_clean_linker_0, # of connection points: 2
# Relax obj value: 0.065
# Max RMSD: 0.101
# Mean RMSD: 0.101
data_MOF--net-noo--node1-XOMCOT_clean_sbu_1--edge1-MIFKUJ_clean_linker_0
_symmetry_space_group_name_H-M    P1
_symmetry_Int_Tables_number       1
_symmetry_cell_setting            triclinic
loop_
_symmetry_equiv_pos_as_xyz
'x, y, z'
_cell_length_a     51.740926
_cell_length_b     51.804273
_cell_length_c     34.436246
_cell_angle_alpha  90.035996
_cell_angle_beta   89.845066
_cell_angle_gamma 89.974798
loop_
_atom_site_label
_atom_site_type_symbol
_atom_site_fract_x
_atom_site_fract_y
_atom_site_fract_z
_atom_type_partial_charge
C0 C 0.42687 0.2539 0.97763 0.0
C1 C 0.41511 0.27767 0.97802 0.0
N2 N 0.39633 0.27742 1.00521 0.0
N3 N 0.41568 0.23863 1.00453 0.0
C4 C 0.39685 0.25339 1.02053 0.0
H5 H 0.44325 0.24839 0.9599 0.0
Co6 Co 0.42754 0.20543 1.01685 0.0
C7 C 0.41253 0.21014 0.10253 0.0
O8 O 0.43602 0.2171 0.11202 0.0
N9 N 0.43916 0.1716 0.02874 0.0
C10 C 0.45711 0.13857 0.06003 0.0
C11 C 0.44724 0.16297 0.06373 0.0
C12 C 0.44417 0.15168 1.0042 0.0
N13 N 0.45525 0.13152 0.02265 0.0
O14 O 0.39876 0.19113 0.98803 0.0
H15 H 0.44768 0.17399 0.09012 0.0
H16 H 0.44128 0.15243 0.97313 0.0
O17 O 0.40707 0.20531 0.06682 0.0
C18 C 0.40646 0.19206 0.95267 0.0
O19 O 0.43032 0.19956 0.94591 0.0
N20 N 0.4582 0.22031 0.0386 0.0
C21 C 0.5057 0.24593 0.04678 0.0
C22 C 0.48283 0.25703 0.0609 0.0
C23 C 0.45925 0.24417 0.05583 0.0
C24 C 0.48054 0.20934 0.02515 0.0
C25 C 0.50437 0.22147 0.02966 0.0
H26 H 0.44172 0.25399 0.06445 0.0
H27 H 0.48005 0.19187 1.00813 0.0
H28 H 0.38463 0.24712 0.04425 0.0
H29 H 0.42031 0.29401 0.96006 0.0
H30 H 0.46594 0.12719 0.08281 0.0
H31 H 0.48288 0.27619 0.07352 0.0
H32 H 0.52151 0.21223 1.01802 0.0
C33 C 0.76151 0.42218 0.96438 0.0
C34 C 0.7391 0.40805 0.96103 0.0
N35 N 0.73729 0.39233 0.99204 0.0
N36 N 0.77382 0.41529 0.99723 0.0
C37 C 0.75869 0.39687 1.0133 0.0
H38 H 0.76811 0.43701 0.94464 0.0
Co39 Co 0.80453 0.42999 1.01484 0.0
C40 C 0.79657 0.41162 0.09898 0.0
O41 O 0.78487 0.43292 0.10955 0.0
N42 N 0.83603 0.44434 0.0327 0.0
C43 C 0.86513 0.46184 0.07227 0.0
C44 C 0.84016 0.45345 0.06896 0.0
C45 C 0.85896 0.44789 1.01429 0.0
N46 N 0.87696 0.45831 0.03791 0.0
O47 O 0.82317 0.40312 0.98745 0.0
H48 H 0.82582 0.45477 0.09156 0.0
H49 H 0.86266 0.44283 0.98437 0.0
O50 O 0.80409 0.40863 0.06363 0.0
C51 C 0.82718 0.41117 0.95282 0.0
O52 O 0.82042 0.43492 0.94409 0.0
N53 N 0.78544 0.45854 0.03557 0.0
C54 C 0.75652 0.50385 0.0475 0.0
C55 C 0.74647 0.47961 0.0577 0.0
C56 C 0.76096 0.45722 0.05072 0.0
C57 C 0.79499 0.482 0.02441 0.0
C58 C 0.78121 0.50476 0.03079 0.0
H59 H 0.75217 0.43881 0.05705 0.0
H60 H 0.81296 0.48322 1.00849 0.0
H61 H 0.76286 0.38734 0.04049 0.0
H62 H 0.72475 0.40993 0.93838 0.0
H63 H 0.87376 0.4705 0.09775 0.0
H64 H 0.72733 0.47784 0.0702 0.0
H65 H 0.78936 0.52281 1.02066 0.0
C66 C 0.57365 0.75766 0.97934 0.0
C67 C 0.58479 0.7336 0.9778 0.0
N68 N 0.60533 0.73335 1.00181 0.0
N69 N 0.58697 0.7726 1.00432 0.0
C70 C 0.6064 0.75736 1.01718 0.0
H71 H 0.55641 0.76368 0.96413 0.0
Co72 Co 0.57747 0.80636 1.01798 0.0
C73 C 0.59529 0.80102 0.1021 0.0
O74 O 0.5714 0.7978 0.11392 0.0
N75 N 0.56835 0.84093 0.03068 0.0
C76 C 0.56202 0.87815 0.06173 0.0
C77 C 0.56834 0.85266 0.06581 0.0
C78 C 0.56142 0.85999 1.00571 0.0
N79 N 0.55767 0.88278 0.02399 0.0
O80 O 0.60572 0.81914 0.98619 0.0
H81 H 0.57253 0.84382 0.0932 0.0
H82 H 0.55943 0.85735 0.97471 0.0
O83 O 0.60002 0.8049 0.06582 0.0
C84 C 0.59706 0.81854 0.95137 0.0
O85 O 0.57283 0.81175 0.94628 0.0
N86 N 0.54731 0.79311 0.04332 0.0
C87 C 0.49991 0.76815 0.05672 0.0
C88 C 0.52327 0.7569 0.06852 0.0
C89 C 0.54668 0.7694 0.06094 0.0
C90 C 0.52461 0.8046 0.03276 0.0
C91 C 0.50081 0.79267 0.0396 0.0
H92 H 0.5644 0.75944 0.06801 0.0
H93 H 0.5247 0.82217 1.01599 0.0
H94 H 0.6204 0.76339 0.03861 0.0
H95 H 0.57808 0.71748 0.96057 0.0
H96 H 0.56039 0.89222 0.08489 0.0
H97 H 0.52362 0.73804 0.08207 0.0
H98 H 0.48342 0.80185 0.02891 0.0
C99 C 0.25431 0.57287 1.00193 0.0
C100 C 0.27723 0.58551 0.99564 0.0
N101 N 0.27534 0.60954 1.0105 0.0
N102 N 0.23794 0.58859 1.02115 0.0
C103 C 0.2509 0.61114 0.02455 0.0
H104 H 0.24998 0.5532 0.99369 0.0
Co105 Co 0.20501 0.57811 0.03688 0.0
C106 C 0.21866 0.61195 0.10995 0.0
O107 O 0.24391 0.61333 0.1066 0.0
N108 N 0.17198 0.56719 0.05196 0.0
C109 C 0.14029 0.55212 0.08912 0.0
C110 C 0.16483 0.56201 0.08886 0.0
C111 C 0.15143 0.5601 0.0302 0.0
N112 N 0.13189 0.55073 0.05219 0.0
O113 O 0.19025 0.60582 1.00695 0.0
H114 H 0.17706 0.56436 0.11403 0.0
H115 H 0.15117 0.56064 0.99884 0.0
O116 O 0.20538 0.59955 0.08472 0.0
C117 C 0.18767 0.59769 0.97214 0.0
O118 O 0.19468 0.57391 0.96402 0.0
N119 N 0.21942 0.54913 0.0619 0.0
C120 C 0.24467 0.50288 0.07937 0.0
C121 C 0.2519 0.52604 0.09757 0.0
C122 C 0.23894 0.54903 0.08849 0.0
C123 C 0.21176 0.52663 0.04485 0.0
C124 C 0.22384 0.50331 0.05352 0.0
H125 H 0.24584 0.56674 0.10086 0.0
H126 H 0.19712 0.52699 0.02251 0.0
H127 H 0.24273 0.62818 0.0379 0.0
H128 H 0.29406 0.57732 0.98161 0.0
H129 H 0.12957 0.54612 0.1146 0.0
H130 H 0.26806 0.52655 0.11749 0.0
H131 H 0.21801 0.48607 0.03805 0.0
C132 C 0.92849 0.26246 0.56676 0.0
C133 C 0.9155 0.23945 0.57006 0.0
N134 N 0.89719 0.2386 0.54235 0.0
N135 N 0.91862 0.276 0.53687 0.0
C136 C 0.89921 0.26118 0.52293 0.0
H137 H 0.94488 0.26851 0.58394 0.0
Co138 Co 0.93288 0.30692 0.51929 0.0
C139 C 0.91703 0.29898 0.43442 0.0
O140 O 0.93937 0.28846 0.42598 0.0
N141 N 0.94702 0.33874 0.50193 0.0
C142 C 0.96519 0.36857 0.46416 0.0
C143 C 0.95597 0.34386 0.46581 0.0
C144 C 0.95156 0.36086 0.52192 0.0
N145 N 0.96242 0.37929 0.49943 0.0
O146 O 0.90535 0.32509 0.54604 0.0
H147 H 0.95711 0.33032 0.44226 0.0
H148 H 0.94724 0.3635 0.55236 0.0
O149 O 0.91209 0.3058 0.46964 0.0
C150 C 0.91301 0.32836 0.58102 0.0
O151 O 0.93657 0.3211 0.59008 0.0
N152 N 0.96206 0.28828 0.49928 0.0
C153 C 0.00743 0.259 0.4903 0.0
C154 C 0.98329 0.24876 0.48012 0.0
C155 C 0.96088 0.26349 0.48543 0.0
C156 C 0.9855 0.29821 0.50986 0.0
C157 C 0.00832 0.28422 0.50483 0.0
H158 H 0.94248 0.25464 0.47903 0.0
H159 H 0.98668 0.31656 0.52462 0.0
H160 H 0.88783 0.26607 0.49767 0.0
H161 H 0.91962 0.22422 0.59065 0.0
H162 H 0.97424 0.37762 0.43927 0.0
H163 H 0.98161 0.22924 0.46911 0.0
H164 H 0.02636 0.29258 0.51461 0.0
C165 C 0.75411 0.93443 0.55834 0.0
C166 C 0.77834 0.92365 0.55803 0.0
N167 N 0.77825 0.90363 0.53314 0.0
N168 N 0.73879 0.92148 0.53337 0.0
C169 C 0.75396 0.90243 0.51888 0.0
H170 H 0.74838 0.95158 0.57407 0.0
Co171 Co 0.70549 0.93282 0.52039 0.0
C172 C 0.70949 0.91542 0.4356 0.0
O173 O 0.71581 0.93879 0.4246 0.0
N174 N 0.67155 0.94412 0.50808 0.0
C175 C 0.638 0.96067 0.4763 0.0
C176 C 0.66252 0.95104 0.47278 0.0
C177 C 0.65175 0.94968 0.53266 0.0
N178 N 0.63125 0.95995 0.51395 0.0
O179 O 0.69123 0.90511 0.55191 0.0
H180 H 0.67322 0.95067 0.44608 0.0
H181 H 0.65276 0.94762 0.56385 0.0
O182 O 0.70518 0.91068 0.47178 0.0
C183 C 0.69219 0.91417 0.58654 0.0
O184 O 0.69978 0.93821 0.59089 0.0
N185 N 0.72036 0.96257 0.49597 0.0
C186 C 0.74684 0.00924 0.48369 0.0
C187 C 0.75732 0.9857 0.47105 0.0
C188 C 0.74408 0.96264 0.47811 0.0
C189 C 0.7099 0.98546 0.50802 0.0
C190 C 0.72251 0.00889 0.50164 0.0
H191 H 0.75345 0.94471 0.47037 0.0
H192 H 0.69256 0.98573 0.5255 0.0
H193 H 0.74792 0.88905 0.49653 0.0
H194 H 0.79502 0.93051 0.57391 0.0
H195 H 0.62625 0.96832 0.453 0.0
H196 H 0.77611 0.98494 0.45716 0.0
H197 H 0.71402 0.02637 0.5133 0.0
C198 C 0.10578 0.74446 0.58584 0.0
C199 C 0.12223 0.76507 0.58205 0.0
N200 N 0.12709 0.7687 0.54398 0.0
N201 N 0.10039 0.73491 0.55041 0.0
C202 C 0.11348 0.75019 0.52532 0.0
H203 H 0.09794 0.73706 0.61276 0.0
Co204 Co 0.07822 0.70731 0.54311 0.0
C205 C 0.08595 0.68851 0.46204 0.0
O206 O 0.06096 0.68431 0.46029 0.0
N207 N 0.05521 0.67886 0.53701 0.0
C208 C 0.02045 0.65412 0.52797 0.0
C209 C 0.02928 0.67896 0.53133 0.0
C210 C 0.06145 0.65342 0.53746 0.0
N211 N 0.04067 0.63816 0.53201 0.0
O212 O 0.10196 0.6858 0.57201 0.0
H213 H 0.01714 0.69576 0.52886 0.0
H214 H 0.08091 0.64615 0.54093 0.0
O215 O 0.09562 0.69841 0.49297 0.0
C216 C 0.09314 0.68119 0.60602 0.0
O217 O 0.06975 0.68919 0.61489 0.0
N218 N 0.05435 0.72998 0.52038 0.0
C219 C 0.01223 0.76111 0.50226 0.0
C220 C 0.03067 0.755 0.47371 0.0
C221 C 0.05197 0.73947 0.48352 0.0
C222 C 0.03812 0.73823 0.54904 0.0
C223 C 0.0166 0.75326 0.5405 0.0
H224 H 0.06617 0.73512 0.46151 0.0
H225 H 0.0411 0.73164 0.57849 0.0
H226 H 0.11305 0.74779 0.4941 0.0
H227 H 0.12952 0.7769 0.60551 0.0
H228 H 1.00064 0.64819 0.52326 0.0
H229 H 0.02827 0.76155 0.44408 0.0
H230 H 1.00317 0.75828 0.5635 0.0
C231 C 0.25854 0.07082 0.56017 0.0
C232 C 0.23468 0.08231 0.56285 0.0
N233 N 0.2343 0.103 0.53908 0.0
N234 N 0.27328 0.0841 0.53482 0.0
C235 C 0.25811 0.10379 0.52275 0.0
H236 H 0.26465 0.05355 0.57521 0.0
Co237 Co 0.30709 0.07495 0.52109 0.0
C238 C 0.3015 0.09459 0.43791 0.0
O239 O 0.29606 0.0714 0.42509 0.0
N240 N 0.34164 0.06631 0.50829 0.0
C241 C 0.37811 0.05786 0.47623 0.0
C242 C 0.35249 0.06416 0.47266 0.0
C243 C 0.3612 0.06072 0.53305 0.0
N244 N 0.38356 0.05568 0.51419 0.0
O245 O 0.3195 0.10276 0.55391 0.0
H246 H 0.34263 0.0663 0.44543 0.0
H247 H 0.35917 0.06029 0.56429 0.0
O248 O 0.30614 0.09821 0.4742 0.0
C249 C 0.31896 0.09363 0.58847 0.0
O250 O 0.31273 0.0692 0.59281 0.0
N251 N 0.29413 0.04503 0.49447 0.0
C252 C 0.27082 0.99718 0.47845 0.0
C253 C 0.25819 0.02036 0.46951 0.0
C254 C 0.26999 0.04399 0.47814 0.0
C255 C 0.30679 0.02247 0.50241 0.0
C256 C 0.29581 0.99855 0.49388 0.0
H257 H 0.25914 0.06146 0.47296 0.0
H258 H 0.32478 0.02251 0.51811 0.0
H259 H 0.26416 0.11795 0.50155 0.0
H260 H 0.21887 0.07582 0.58099 0.0
H261 H 0.39156 0.05442 0.45264 0.0
H262 H 0.23868 0.02035 0.45821 0.0
H263 H 0.30641 0.98121 0.50122 0.0
H264 H 0.51932 0.89225 0.97241 0.0
H265 H 0.50089 0.93497 0.95741 0.0
H266 H 0.56074 0.97104 0.02555 0.0
H267 H 0.57856 0.92865 0.04101 0.0
H268 H 0.51419 0.98437 0.05086 0.0
H269 H 0.55672 0.97914 0.92489 0.0
H270 H 0.56614 0.95973 0.86095 0.0
H271 H 0.48565 0.96284 0.8315 0.0
H272 H 0.47573 0.98242 0.89519 0.0
H273 H 0.50366 0.11483 0.03251 0.0
H274 H 0.52028 0.07184 1.01721 0.0
H275 H 0.44796 0.05244 0.96245 0.0
H276 H 0.43147 0.09614 0.97719 0.0
H277 H 0.49399 0.02848 0.92672 0.0
H278 H 0.45206 0.03662 0.05047 0.0
H279 H 0.44284 0.0578 0.11314 0.0
H280 H 0.52196 0.04788 0.14738 0.0
H281 H 0.53176 0.02707 0.08458 0.0
C282 C 0.52884 0.90944 0.98311 0.0
C283 C 0.55014 0.90731 1.00813 0.0
C284 C 0.51834 0.93379 0.97461 0.0
C285 C 0.52931 0.95624 0.99064 0.0
C286 C 0.55178 0.95404 1.01315 0.0
C287 C 0.56199 0.92986 0.02194 0.0
C288 C 0.51605 0.98168 0.98844 0.0
C289 C 0.51003 0.99402 0.02363 0.0
C290 C 0.5095 0.99389 0.95302 0.0
C291 C 0.51545 0.98196 0.91493 0.0
C292 C 0.541 0.97548 0.9049 0.0
C293 C 0.54644 0.9645 0.86869 0.0
C294 C 0.5265 0.95986 0.84232 0.0
C295 C 0.50108 0.96637 0.85199 0.0
C296 C 0.49554 0.97749 0.88808 0.0
C297 C 0.49162 0.10159 1.01627 0.0
C298 C 0.46627 0.1085 1.00634 0.0
C299 C 0.50108 0.0771 1.00749 0.0
C300 C 0.48519 0.05882 0.9893 0.0
C301 C 0.46051 0.06629 0.97652 0.0
C302 C 0.4511 0.09112 0.98494 0.0
C303 C 0.49334 0.03135 0.98909 0.0
C304 C 0.49806 0.0186 0.95378 0.0
C305 C 0.49865 0.01851 0.02444 0.0
C306 C 0.49267 0.03043 0.06269 0.0
C307 C 0.46752 0.03908 0.07127 0.0
C308 C 0.46219 0.05103 0.10682 0.0
C309 C 0.48181 0.05422 0.1342 0.0
C310 C 0.50678 0.0454 0.12613 0.0
C311 C 0.51223 0.03351 0.09058 0.0
H312 H 0.47765 0.0635 0.16169 0.0
H313 H 0.53077 0.95133 0.81433 0.0
H314 H 0.89577 0.47827 0.97063 0.0
H315 H 0.93976 0.49498 0.95991 0.0
H316 H 0.96125 0.46988 0.07487 0.0
H317 H 0.91761 0.45367 0.08562 0.0
H318 H 0.97281 0.51935 0.06414 0.0
H319 H 0.9826 0.43943 0.99132 0.0
H320 H 0.97158 0.40882 0.93905 0.0
H321 H 0.98763 0.46695 0.85348 0.0
H322 H 0.99842 0.49802 0.90532 0.0
H323 H 0.10419 0.51338 0.0876 0.0
H324 H 0.0608 0.49903 0.07115 0.0
H325 H 0.06069 0.54899 0.9711 0.0
H326 H 0.10443 0.56396 0.98789 0.0
H327 H 0.03656 0.49474 0.96272 0.0
H328 H 0.03123 0.57317 0.03696 0.0
H329 H 0.0435 0.60242 0.09034 0.0
H330 H 0.01901 0.54596 0.17393 0.0
H331 H 0.00698 0.51621 0.12102 0.0
C332 C 0.91011 0.47597 0.99319 0.0
C333 C 0.9033 0.46501 0.02914 0.0
C334 C 0.93517 0.48552 0.9871 0.0
C335 C 0.95373 0.48385 1.01673 0.0
C336 C 0.94718 0.47168 0.05178 0.0
C337 C 0.92226 0.46243 0.05794 0.0
C338 C 0.97952 0.49616 1.0131 0.0
C339 C 0.98669 0.51391 0.04191 0.0
C340 C 0.99736 0.48986 0.98328 0.0
C341 C 0.991 0.47114 0.9522 0.0
C342 C 0.98356 0.44575 0.96137 0.0
C343 C 0.9774 0.4283 0.93182 0.0
C344 C 0.97881 0.43596 0.89297 0.0
C345 C 0.98649 0.46106 0.88359 0.0
C346 C 0.99264 0.47859 0.91304 0.0
C347 C 0.09505 0.52136 0.06206 0.0
C348 C 0.10753 0.54025 0.03954 0.0
C349 C 0.07035 0.51292 0.05247 0.0
C350 C 0.05754 0.52313 1.02015 0.0
C351 C 0.07038 0.54087 0.99612 0.0
C352 C 0.09528 0.54941 1.00578 0.0
C353 C 0.02988 0.51694 1.01467 0.0
C354 C 0.02238 0.50054 0.98429 0.0
C355 C 0.01158 0.52439 0.04306 0.0
C356 C 0.01834 0.54241 0.075 0.0
C357 C 0.02861 0.56693 0.06672 0.0
C358 C 0.03551 0.58361 0.09689 0.0
C359 C 0.03207 0.57604 0.1355 0.0
C360 C 0.02166 0.5518 0.14401 0.0
C361 C 0.01477 0.53504 0.11394 0.0
H362 H 0.03744 0.58897 0.15882 0.0
H363 H 0.97403 0.42243 0.87014 0.0
H364 H 0.96086 0.42176 0.45483 0.0
H365 H 0.98016 0.46363 0.46881 0.0
H366 H 1.00307 0.43661 0.5821 0.0
H367 H 0.98336 0.39434 0.56811 0.0
H368 H 0.98595 0.48685 0.58417 0.0
H369 H 0.04773 0.43924 0.51266 0.0
H370 H 0.06431 0.41097 0.46065 0.0
H371 H 0.04458 0.46804 0.37534 0.0
H372 H 0.02748 0.4965 0.42677 0.0
H373 H 0.06181 0.60507 0.58352 0.0
H374 H 0.0548 0.55799 0.586 0.0
H375 H 0.01007 0.56241 0.48066 0.0
H376 H 0.01652 0.60924 0.47884 0.0
H377 H 0.04751 0.51991 0.48516 0.0
H378 H 0.97833 0.56261 0.55881 0.0
H379 H 0.9626 0.59048 0.61194 0.0
H380 H 0.99955 0.54142 0.69558 0.0
H381 H 0.01582 0.51347 0.64279 0.0
C382 C 0.96991 0.42476 0.48278 0.0
C383 C 0.97096 0.40473 0.51016 0.0
C384 C 0.98097 0.44866 0.49073 0.0
C385 C 0.99367 0.453 0.52608 0.0
C386 C 0.99358 0.43354 0.55448 0.0
C387 C 0.98226 0.4095 0.54656 0.0
C388 C 0.00742 0.4778 0.5322 0.0
C389 C 0.9999 0.49383 0.56308 0.0
C390 C 0.02573 0.4869 0.50477 0.0
C391 C 0.03619 0.46997 0.47362 0.0
C392 C 0.04677 0.44571 0.48279 0.0
C393 C 0.05628 0.42965 0.4534 0.0
C394 C 0.05547 0.43769 0.41471 0.0
C395 C 0.0452 0.46183 0.40533 0.0
C396 C 0.03562 0.47796 0.43461 0.0
C397 C 0.0509 0.59576 0.56068 0.0
C398 C 0.03962 0.61051 0.53101 0.0
C399 C 0.04682 0.56904 0.56218 0.0
C400 C 0.03186 0.55685 0.53355 0.0
C401 C 0.02169 0.57149 0.50295 0.0
C402 C 0.02529 0.59814 0.50195 0.0
C403 C 0.02524 0.52914 0.53611 0.0
C404 C 0.03413 0.51259 0.50682 0.0
C405 C 0.00852 0.5195 0.56524 0.0
C406 C 0.99857 0.53618 0.59688 0.0
C407 C 0.9833 0.55792 0.5885 0.0
C408 C 0.97425 0.5737 0.61855 0.0
C409 C 0.98015 0.56778 0.65711 0.0
C410 C 0.99505 0.54602 0.66569 0.0
C411 C 1.00418 0.5302 0.63573 0.0
H412 H 0.97312 0.58002 0.68034 0.0
H413 H 0.06284 0.42523 0.392 0.0
H414 H 0.60747 1.00355 0.4916 0.0
H415 H 0.56561 0.01956 0.51332 0.0
H416 H 0.55976 0.95655 0.59476 0.0
H417 H 0.60215 0.94027 0.57258 0.0
H418 H 0.51608 0.96189 0.54958 0.0
H419 H 0.56544 0.01618 0.6304 0.0
H420 H 0.60085 0.04553 0.64875 0.0
H421 H 0.57374 0.10171 0.56678 0.0
H422 H 0.53839 0.07256 0.54746 0.0
H423 H 0.39246 0.02376 0.57512 0.0
H424 H 0.43482 0.00731 0.59626 0.0
H425 H 0.47228 0.05475 0.50994 0.0
H426 H 0.43025 0.07097 0.48889 0.0
H427 H 0.49884 0.05387 0.58054 0.0
H428 H 0.45823 0.9939 0.48922 0.0
H429 H 0.42346 0.96434 0.4688 0.0
H430 H 0.43486 0.9188 0.57151 0.0
H431 H 0.46951 0.94834 0.59276 0.0
C432 C 0.59738 0.99321 0.51437 0.0
C433 C 0.6079 0.97057 0.53022 0.0
C434 C 0.57356 1.00251 0.52706 0.0
C435 C 0.55962 0.98941 0.55595 0.0
C436 C 0.57029 0.96704 0.5726 0.0
C437 C 0.59445 0.95783 0.5601 0.0
C438 C 0.53309 0.9983 0.56568 0.0
C439 C 0.51228 0.98178 0.55763 0.0
C440 C 0.52809 0.02433 0.57583 0.0
C441 C 0.54925 0.0421 0.58742 0.0
C442 C 0.5671 0.03472 0.6161 0.0
C443 C 0.58716 0.05134 0.6267 0.0
C444 C 0.58955 0.07546 0.60893 0.0
C445 C 0.57185 0.08303 0.58055 0.0
C446 C 0.55175 0.06648 0.56983 0.0
C447 C 0.40983 0.03099 0.56133 0.0
C448 C 0.40818 0.04845 0.5302 0.0
C449 C 0.43395 0.02154 0.57327 0.0
C450 C 0.45667 0.02972 0.5545 0.0
C451 C 0.45502 0.04821 0.52487 0.0
C452 C 0.43103 0.05733 0.51268 0.0
C453 C 0.48212 0.01774 0.56283 0.0
C454 C 0.50265 0.03373 0.57407 0.0
C455 C 0.48688 0.99125 0.55567 0.0
C456 C 0.46617 0.97349 0.54282 0.0
C457 C 0.45316 0.9777 0.50759 0.0
C458 C 0.43351 0.96094 0.49584 0.0
C459 C 0.42689 0.93975 0.51892 0.0
C460 C 0.43996 0.93525 0.55373 0.0
C461 C 0.4596 0.952 0.56564 0.0
H462 H 0.41168 0.92679 0.50977 0.0
H463 H 0.6051 0.0883 0.61717 0.0
H464 H 0.29717 0.49846 0.07571 0.0
H465 H 0.32249 0.45873 0.07004 0.0
H466 H 0.25318 0.41351 0.08419 0.0
H467 H 0.22767 0.45327 0.09003 0.0
H468 H 0.29798 0.39227 0.12249 0.0
H469 H 0.27128 0.4237 0.9974 0.0
H470 H 0.2663 0.45661 0.94627 0.0
H471 H 0.34873 0.46517 0.93947 0.0
H472 H 0.35418 0.4326 0.99107 0.0
H473 H 0.34776 0.2763 0.03534 0.0
H474 H 0.32118 0.31352 0.05416 0.0
H475 H 0.38337 0.36479 0.02209 0.0
H476 H 0.4097 0.32788 1.00302 0.0
H477 H 0.34011 0.38215 0.99374 0.0
H478 H 0.36743 0.35102 0.11853 0.0
H479 H 0.37291 0.31865 0.17033 0.0
H480 H 0.29057 0.30972 0.17855 0.0
H481 H 0.28461 0.3418 0.12637 0.0
C482 C 0.2874 0.48008 0.07874 0.0
C483 C 0.26041 0.47899 0.08318 0.0
C484 C 0.30188 0.45739 0.07523 0.0
C485 C 0.28966 0.4332 0.07627 0.0
C486 C 0.26296 0.43199 0.08326 0.0
C487 C 0.24842 0.45469 0.08641 0.0
C488 C 0.30435 0.40945 0.0664 0.0
C489 C 0.30699 0.38986 0.09424 0.0
C490 C 0.31633 0.4065 0.02968 0.0
C491 C 0.31312 0.42591 0.99838 0.0
C492 C 0.28834 0.43276 0.98524 0.0
C493 C 0.28543 0.45133 0.95614 0.0
C494 C 0.30718 0.46303 0.9397 0.0
C495 C 0.3319 0.45612 0.95227 0.0
C496 C 0.33491 0.4376 0.98143 0.0
C497 C 0.35578 0.29551 0.03262 0.0
C498 C 0.38076 0.29912 1.01738 0.0
C499 C 0.34061 0.31678 0.04344 0.0
C500 C 0.3503 0.34203 0.03977 0.0
C501 C 0.37535 0.34556 0.02498 0.0
C502 C 0.39038 0.3244 1.01392 0.0
C503 C 0.33429 0.36496 0.05008 0.0
C504 C 0.33122 0.38443 0.02211 0.0
C505 C 0.32206 0.36777 0.08673 0.0
C506 C 0.32559 0.3486 0.11826 0.0
C507 C 0.3505 0.34201 0.13118 0.0
C508 C 0.35369 0.32374 0.16064 0.0
C509 C 0.33211 0.31208 0.17764 0.0
C510 C 0.30728 0.31873 0.1653 0.0
C511 C 0.30398 0.33697 0.1358 0.0
H512 H 0.33462 0.29793 0.20044 0.0
H513 H 0.3049 0.47739 0.91716 0.0
H514 H 0.5274 0.27519 0.10492 0.0
H515 H 0.56824 0.29929 0.10245 0.0
H516 H 0.57991 0.2744 0.98408 0.0
H517 H 0.53958 0.25026 0.98654 0.0
H518 H 0.62332 0.27013 0.02213 0.0
H519 H 0.55809 0.33595 1.00814 0.0
H520 H 0.51959 0.36101 0.02736 0.0
H521 H 0.55747 0.38458 0.13235 0.0
H522 H 0.5961 0.35936 0.11397 0.0
H523 H 0.70801 0.36435 0.94283 0.0
H524 H 0.6701 0.33813 0.95938 0.0
H525 H 0.67944 0.35784 0.08021 0.0
H526 H 0.71758 0.3839 0.06377 0.0
H527 H 0.6275 0.36405 0.04963 0.0
H528 H 0.69479 0.30088 0.05824 0.0
H529 H 0.73312 0.2768 0.03574 0.0
H530 H 0.69077 0.24918 0.93705 0.0
H531 H 0.65227 0.27342 0.95864 0.0
C532 C 0.53871 0.27494 0.07842 0.0
C533 C 0.53038 0.26063 0.04607 0.0
C534 C 0.56201 0.28872 0.077 0.0
C535 C 0.57715 0.28876 0.04299 0.0
C536 C 0.56875 0.27451 1.01075 0.0
C537 C 0.54568 0.26064 1.01225 0.0
C538 C 0.6017 0.30361 0.04039 0.0
C539 C 0.62413 0.2907 0.02793 0.0
C540 C 0.60303 0.33035 0.04883 0.0
C541 C 0.57985 0.34551 0.05992 0.0
C542 C 0.55812 0.3463 0.03549 0.0
C543 C 0.53629 0.36057 0.04619 0.0
C544 C 0.53605 0.37431 0.08112 0.0
C545 C 0.55767 0.37388 0.10535 0.0
C546 C 0.57953 0.35961 0.0948 0.0
C547 C 0.702 0.36299 0.9729 0.0
C548 C 0.71575 0.37603 1.00203 0.0
C549 C 0.68045 0.34798 0.98234 0.0
C550 C 0.67205 0.34602 1.02103 0.0
C551 C 0.68567 0.35909 0.05021 0.0
C552 C 0.70752 0.37376 0.04084 0.0
C553 C 0.64876 0.33061 0.0306 0.0
C554 C 0.62666 0.34342 0.04435 0.0
C555 C 0.64762 0.30384 0.02294 0.0
C556 C 0.67071 0.28916 1.0099 0.0
C557 C 0.69371 0.28986 0.03155 0.0
C558 C 0.71545 0.27614 1.019 0.0
C559 C 0.7144 0.26152 0.98494 0.0
C560 C 0.69157 0.26053 0.96341 0.0
C561 C 0.66977 0.27424 0.97582 0.0
H562 H 0.73125 0.2509 0.97527 0.0
H563 H 0.51914 0.38536 0.08935 0.0
H564 H 0.59176 0.68287 0.9989 0.0
H565 H 0.61882 0.64563 1.01333 0.0
H566 H 0.68229 0.6962 0.04134 0.0
H567 H 0.65533 0.73378 0.02591 0.0
H568 H 0.69782 0.65629 0.99571 0.0
H569 H 0.64993 0.66582 0.11301 0.0
H570 H 0.61111 0.67142 0.15383 0.0
H571 H 0.58122 0.59901 0.11313 0.0
H572 H 0.6197 0.59315 0.07159 0.0
H573 H 0.77285 0.55222 0.06883 0.0
H574 H 0.74818 0.59248 0.06742 0.0
H575 H 0.68005 0.55044 0.03314 0.0
H576 H 0.70464 0.51016 0.03378 0.0
H577 H 0.66915 0.58812 0.08741 0.0
H578 H 0.71556 0.5809 0.96613 0.0
H579 H 0.7544 0.57553 0.92526 0.0
H580 H 0.78728 0.64422 0.97447 0.0
H581 H 0.74876 0.64977 1.01608 0.0
C582 C 0.61152 0.68616 1.00781 0.0
C583 C 0.62138 0.71138 1.01106 0.0
C584 C 0.62691 0.66481 1.01651 0.0
C585 C 0.65251 0.66809 0.02888 0.0
C586 C 0.66254 0.69321 0.03203 0.0
C587 C 0.64707 0.71467 0.02343 0.0
C588 C 0.66883 0.64515 0.03745 0.0
C589 C 0.6918 0.64164 1.01634 0.0
C590 C 0.66077 0.62578 0.06386 0.0
C591 C 0.63762 0.62915 0.08893 0.0
C592 C 0.63499 0.65118 0.11252 0.0
C593 C 0.61306 0.65439 0.13583 0.0
C594 C 0.59369 0.63561 0.13601 0.0
C595 C 0.59624 0.61355 0.11294 0.0
C596 C 0.61812 0.61026 0.08953 0.0
C597 C 0.75261 0.5515 0.06103 0.0
C598 C 0.74083 0.5279 0.0511 0.0
C599 C 0.73852 0.57454 0.06035 0.0
C600 C 0.71235 0.57452 0.04969 0.0
C601 C 0.70022 0.55091 0.04147 0.0
C602 C 0.71431 0.52785 0.04204 0.0
C603 C 0.69791 0.59916 0.04531 0.0
C604 C 0.67529 0.60294 0.06715 0.0
C605 C 0.70631 0.61882 1.01966 0.0
C606 C 0.72942 0.61558 0.99453 0.0
C607 C 0.73117 0.59473 0.96847 0.0
C608 C 0.7531 0.59168 0.94513 0.0
C609 C 0.77333 0.60948 0.94735 0.0
C610 C 0.77162 0.63042 0.97284 0.0
C611 C 0.74973 0.63353 0.9963 0.0
H612 H 0.79029 0.60709 0.92925 0.0
H613 H 0.57673 0.63812 0.15408 0.0
H614 H 0.27154 0.66118 0.02606 0.0
H615 H 0.30712 0.69108 0.03878 0.0
H616 H 0.36202 0.62996 1.01777 0.0
H617 H 0.32697 0.59991 1.00672 0.0
H618 H 0.37435 0.65516 0.08155 0.0
H619 H 0.35004 0.67854 0.95072 0.0
H620 H 0.32001 0.69314 0.89974 0.0
H621 H 0.30657 0.76363 0.96231 0.0
H622 H 0.33628 0.74928 1.01394 0.0
H623 H 0.49265 0.71671 0.04236 0.0
H624 H 0.45212 0.69293 0.0402 0.0
H625 H 0.41022 0.76209 0.07038 0.0
H626 H 0.45097 0.78614 0.07324 0.0
H627 H 0.3881 0.73678 1.00918 0.0
H628 H 0.41661 0.71476 0.13662 0.0
H629 H 0.44746 0.69993 0.1863 0.0
H630 H 0.45354 0.62646 0.12923 0.0
H631 H 0.423 0.64096 0.07887 0.0
C632 C 0.29115 0.65403 0.02419 0.0
C633 C 0.29615 0.62796 1.01519 0.0
C634 C 0.31152 0.67125 0.03121 0.0
C635 C 0.3373 0.66281 0.02909 0.0
C636 C 0.34232 0.63696 1.01967 0.0
C637 C 0.32208 0.61978 1.01284 0.0
C638 C 0.3593 0.68045 0.03741 0.0
C639 C 0.37743 0.67291 0.0655 0.0
C640 C 0.36294 0.70406 1.01744 0.0
C641 C 0.34512 0.7127 0.98641 0.0
C642 C 0.34051 0.69706 0.95376 0.0
C643 C 0.32358 0.7053 0.92472 0.0
C644 C 0.31133 0.72926 0.92784 0.0
C645 C 0.31603 0.74505 0.95997 0.0
C646 C 0.33292 0.73688 0.98912 0.0
C647 C 0.47495 0.72684 0.04948 0.0
C648 C 0.4752 0.75337 0.05834 0.0
C649 C 0.45171 0.71319 0.048 0.0
C650 C 0.42812 0.72566 0.05547 0.0
C651 C 0.4282 0.75208 0.06451 0.0
C652 C 0.45151 0.76579 0.06609 0.0
C653 C 0.40347 0.71106 0.0525 0.0
C654 C 0.38483 0.71919 0.02556 0.0
C655 C 0.39938 0.68791 0.07341 0.0
C656 C 0.41763 0.67903 0.10381 0.0
C657 C 0.42466 0.6955 0.13451 0.0
C658 C 0.44207 0.68714 0.16281 0.0
C659 C 0.45249 0.66229 0.16088 0.0
C660 C 0.44546 0.64571 0.13068 0.0
C661 C 0.42807 0.65398 0.10228 0.0
H662 H 0.46597 0.65585 0.18282 0.0
H663 H 0.29824 0.73561 0.90533 0.0
H664 H 0.79873 0.01528 0.49652 0.0
H665 H 0.82293 0.05548 0.50169 0.0
H666 H 0.7539 0.0988 0.47576 0.0
H667 H 0.72971 0.05849 0.46877 0.0
H668 H 0.7949 0.12056 0.44173 0.0
H669 H 0.77379 0.0912 0.56916 0.0
H670 H 0.77113 0.06018 0.6233 0.0
H671 H 0.85392 0.05481 0.62608 0.0
H672 H 0.85707 0.08552 0.57154 0.0
H673 H 0.84784 0.23934 0.51609 0.0
H674 H 0.82036 0.20177 0.50241 0.0
H675 H 0.88355 0.15107 0.53203 0.0
H676 H 0.91048 0.18839 0.54683 0.0
H677 H 0.84211 0.13457 0.5651 0.0
H678 H 0.86165 0.16497 0.43419 0.0
H679 H 0.86171 0.19686 0.38093 0.0
H680 H 0.77896 0.20183 0.38687 0.0
H681 H 0.77842 0.17027 0.44044 0.0
C682 C 0.78876 0.03327 0.4909 0.0
C683 C 0.76217 0.03358 0.48239 0.0
C684 C 0.80259 0.05631 0.49439 0.0
C685 C 0.79012 0.0802 0.48996 0.0
C686 C 0.7639 0.08061 0.47963 0.0
C687 C 0.75005 0.05754 0.47592 0.0
C688 C 0.80422 0.10467 0.4977 0.0
C689 C 0.80503 0.12377 0.46885 0.0
C690 C 0.81745 0.10887 0.53307 0.0
C691 C 0.81565 0.09048 0.56602 0.0
C692 C 0.79143 0.08326 0.58112 0.0
C693 C 0.78983 0.06575 0.61191 0.0
C694 C 0.81234 0.05548 0.62806 0.0
C695 C 0.8365 0.06276 0.61351 0.0
C696 C 0.8382 0.08023 0.58268 0.0
C697 C 0.85578 0.22013 0.51942 0.0
C698 C 0.88118 0.21675 0.53282 0.0
C699 C 0.84015 0.19867 0.51145 0.0
C700 C 0.84991 0.17347 0.51582 0.0
C701 C 0.87545 0.17023 0.52861 0.0
C702 C 0.89085 0.19158 0.53717 0.0
C703 C 0.83356 0.15028 0.50863 0.0
C704 C 0.83212 0.13141 0.53785 0.0
C705 C 0.81954 0.1465 0.47377 0.0
C706 C 0.82003 0.16546 0.44157 0.0
C707 C 0.8435 0.17302 0.42431 0.0
C708 C 0.84361 0.19101 0.39404 0.0
C709 C 0.82035 0.2014 0.38064 0.0
C710 C 0.79695 0.19379 0.39735 0.0
C711 C 0.79673 0.17586 0.42763 0.0
H712 H 0.82037 0.2153 0.35725 0.0
H713 H 0.81107 0.04194 0.6519 0.0
H714 H 0.96345 0.7432 0.51079 0.0
H715 H 0.92304 0.76759 0.50529 0.0
H716 H 0.96599 0.83496 0.46985 0.0
H717 H 0.00658 0.81031 0.47475 0.0
H718 H 0.93251 0.8423 0.53479 0.0
H719 H 0.92883 0.80746 0.40556 0.0
H720 H 0.92981 0.7728 0.3565 0.0
H721 H 0.86393 0.73701 0.41008 0.0
H722 H 0.86278 0.77126 0.45983 0.0
H723 H 0.82502 0.9227 0.51511 0.0
H724 H 0.86418 0.89829 0.49993 0.0
H725 H 0.82142 0.82708 0.51033 0.0
H726 H 0.78176 0.85187 0.52375 0.0
H727 H 0.85545 0.82195 0.45495 0.0
H728 H 0.85992 0.85164 0.58592 0.0
H729 H 0.85835 0.88323 0.63948 0.0
H730 H 0.922 0.92461 0.58904 0.0
H731 H 0.92372 0.89345 0.53486 0.0
C732 C 0.96415 0.76306 0.50097 0.0
C733 C 0.98799 0.77494 0.49304 0.0
C734 C 0.9411 0.77694 0.49777 0.0
C735 C 0.9415 0.80305 0.48704 0.0
C736 C 0.96528 0.81478 0.478 0.0
C737 C 0.98838 0.80073 0.4806 0.0
C738 C 0.91737 0.81854 0.48894 0.0
C739 C 0.91582 0.83824 0.51676 0.0
C740 C 0.89527 0.8124 0.46664 0.0
C741 C 0.89586 0.79184 0.43664 0.0
C742 C 0.91468 0.79209 0.40709 0.0
C743 C 0.91524 0.77253 0.37911 0.0
C744 C 0.89698 0.75268 0.38022 0.0
C745 C 0.87808 0.75238 0.40927 0.0
C746 C 0.87744 0.77189 0.43734 0.0
C747 C 0.82401 0.90184 0.51387 0.0
C748 C 0.80056 0.88907 0.52112 0.0
C749 C 0.84639 0.88787 0.50534 0.0
C750 C 0.84602 0.86075 0.50508 0.0
C751 C 0.82229 0.84797 0.51062 0.0
C752 C 0.79968 0.86205 0.51833 0.0
C753 C 0.87059 0.84596 0.50068 0.0
C754 C 0.8722 0.82625 0.4727 0.0
C755 C 0.89266 0.85164 0.52351 0.0
C756 C 0.89177 0.87036 0.55613 0.0
C757 C 0.87346 0.86758 0.58611 0.0
C758 C 0.87256 0.88539 0.61659 0.0
C759 C 0.89002 0.90595 0.61761 0.0
C760 C 0.90846 0.9087 0.58818 0.0
C761 C 0.90942 0.89096 0.55759 0.0
H762 H 0.88929 0.91972 0.64123 0.0
H763 H 0.89745 0.73756 0.35853 0.0
H764 H 0.23744 0.98011 0.42158 0.0
H765 H 0.21344 0.93926 0.42012 0.0
H766 H 0.24907 0.9166 0.52793 0.0
H767 H 0.27264 0.95715 0.52994 0.0
H768 H 0.24844 0.87704 0.47713 0.0
H769 H 0.18802 0.94148 0.52512 0.0
H770 H 0.16271 0.98173 0.52084 0.0
H771 H 0.12543 0.95383 0.41776 0.0
H772 H 0.15081 0.91353 0.42118 0.0
H773 H 0.16917 0.79041 0.57652 0.0
H774 H 0.19403 0.82688 0.5521 0.0
H775 H 0.14639 0.82933 0.44956 0.0
H776 H 0.12091 0.79284 0.47451 0.0
H777 H 0.1526 0.87718 0.48196 0.0
H778 H 0.2081 0.80907 0.44183 0.0
H779 H 0.23295 0.7687 0.44832 0.0
H780 H 0.27941 0.80316 0.53752 0.0
H781 H 0.2546 0.84363 0.53199 0.0
C782 C 0.24015 0.9664 0.44495 0.0
C783 C 0.25715 0.97191 0.47573 0.0
C784 C 0.22646 0.94305 0.44403 0.0
C785 C 0.22941 0.92488 0.47398 0.0
C786 C 0.24664 0.93019 0.50431 0.0
C787 C 0.26024 0.95342 0.50528 0.0
C788 C 0.21417 0.90057 0.47496 0.0
C789 C 0.22748 0.87706 0.47822 0.0
C790 C 0.1868 0.90049 0.47511 0.0
C791 C 0.17154 0.92466 0.47311 0.0
C792 C 0.17459 0.94403 0.50136 0.0
C793 C 0.1602 0.96683 0.49913 0.0
C794 C 0.14254 0.97037 0.46897 0.0
C795 C 0.13917 0.95108 0.44105 0.0
C796 C 0.15354 0.92826 0.44312 0.0
C797 C 0.16397 0.79864 0.54874 0.0
C798 C 0.14298 0.78881 0.52755 0.0
C799 C 0.17837 0.81936 0.5346 0.0
C800 C 0.17226 0.83071 0.49879 0.0
C801 C 0.15152 0.82077 0.47717 0.0
C802 C 0.13711 0.79984 0.4913 0.0
C803 C 0.18692 0.85375 0.48547 0.0
C804 C 0.17353 0.87703 0.47991 0.0
C805 C 0.21425 0.85365 0.48331 0.0
C806 C 0.22938 0.82938 0.48659 0.0
C807 C 0.22351 0.808 0.46301 0.0
C808 C 0.23761 0.7851 0.46649 0.0
C809 C 0.25773 0.78336 0.49334 0.0
C810 C 0.26382 0.80454 0.51672 0.0
C811 C 0.24978 0.82749 0.51337 0.0
H812 H 0.26861 0.7656 0.49601 0.0
H813 H 0.13141 0.98803 0.46729 0.0
H814 H 0.05623 0.27308 0.46721 0.0
H815 H 0.09605 0.24776 0.47234 0.0
H816 H 0.0524 0.18324 0.51672 0.0
H817 H 0.01267 0.20859 0.51253 0.0
H818 H 0.09417 0.19355 0.56127 0.0
H819 H 0.07667 0.18283 0.42488 0.0
H820 H 0.06794 0.19751 0.35809 0.0
H821 H 0.1405 0.2377 0.35575 0.0
H822 H 0.14949 0.22355 0.42277 0.0
H823 H 0.18346 0.09199 0.54961 0.0
H824 H 0.1468 0.12044 0.53885 0.0
H825 H 0.1982 0.1805 0.49951 0.0
H826 H 0.23534 0.15218 0.51092 0.0
H827 H 0.15479 0.17546 0.4527 0.0
H828 H 0.17338 0.18534 0.58727 0.0
H829 H 0.18276 0.17103 0.65403 0.0
H830 H 0.10883 0.13362 0.66026 0.0
H831 H 0.09916 0.14736 0.59327 0.0
C832 C 0.0551 0.25345 0.47787 0.0
C833 C 0.03124 0.24286 0.48941 0.0
C834 C 0.07786 0.23895 0.48055 0.0
C835 C 0.0772 0.21356 0.49478 0.0
C836 C 0.05336 0.20279 0.50562 0.0
C837 C 0.03061 0.21723 0.50283 0.0
C838 C 0.10143 0.19855 0.50012 0.0
C839 C 0.10725 0.18933 0.53741 0.0
C840 C 0.119 0.19385 0.46929 0.0
C841 C 0.11361 0.20237 0.42901 0.0
C842 C 0.09065 0.19499 0.41026 0.0
C843 C 0.08568 0.20318 0.37233 0.0
C844 C 0.10362 0.21859 0.35273 0.0
C845 C 0.1266 0.2258 0.37099 0.0
C846 C 0.13165 0.21769 0.40894 0.0
C847 C 0.18717 0.11131 0.53914 0.0
C848 C 0.21254 0.1198 0.53165 0.0
C849 C 0.16608 0.12755 0.53279 0.0
C850 C 0.16977 0.1527 0.51884 0.0
C851 C 0.19493 0.16115 0.51035 0.0
C852 C 0.21615 0.14489 0.51684 0.0
C853 C 0.14718 0.17006 0.51366 0.0
C854 C 0.14174 0.1798 0.47654 0.0
C855 C 0.12999 0.1754 0.54468 0.0
C856 C 0.13564 0.1672 0.58509 0.0
C857 C 0.1592 0.17389 0.60275 0.0
C858 C 0.16456 0.16591 0.64066 0.0
C859 C 0.14642 0.15138 0.66134 0.0
C860 C 0.12287 0.14485 0.64418 0.0
C861 C 0.11743 0.15276 0.60625 0.0
H862 H 0.1506 0.14522 0.69069 0.0
H863 H 0.09974 0.2249 0.32336 0.0
H864 H 0.4161 0.22693 0.17688 0.0
H865 H 0.39226 0.21189 0.23344 0.0
H866 H 0.34387 0.16514 0.15999 0.0
H867 H 0.36818 0.17996 0.10243 0.0
H868 H 0.31772 0.19241 0.22753 0.0
H869 H 0.38789 0.13472 0.19824 0.0
H870 H 0.43301 0.12385 0.18177 0.0
H871 H 0.45879 0.15856 0.2881 0.0
H872 H 0.41383 0.17005 0.30487 0.0
H873 H 0.27788 0.09982 0.36839 0.0
H874 H 0.29219 0.12528 0.31289 0.0
H875 H 0.35224 0.15929 0.38286 0.0
H876 H 0.33794 0.13342 0.43887 0.0
H877 H 0.37164 0.13994 0.31665 0.0
H878 H 0.30129 0.19557 0.3481 0.0
H879 H 0.25636 0.20723 0.3644 0.0
H880 H 0.23065 0.17703 0.25498 0.0
H881 H 0.27541 0.16483 0.23823 0.0
C882 C 0.40016 0.21372 0.1724 0.0
C883 C 0.39431 0.2044 0.13499 0.0
C884 C 0.38651 0.20517 0.20494 0.0
C885 C 0.3665 0.18716 0.20109 0.0
C886 C 0.35929 0.17906 0.16361 0.0
C887 C 0.37316 0.18756 0.13074 0.0
C888 C 0.35509 0.17534 0.2367 0.0
C889 C 0.32932 0.18059 0.24677 0.0
C890 C 0.37048 0.16058 0.26241 0.0
C891 C 0.39752 0.15349 0.25261 0.0
C892 C 0.4032 0.14025 0.21794 0.0
C893 C 0.42874 0.13394 0.20858 0.0
C894 C 0.44876 0.14057 0.23383 0.0
C895 C 0.44327 0.15347 0.26854 0.0
C896 C 0.41776 0.15988 0.278 0.0
C897 C 0.29372 0.11323 0.37232 0.0
C898 C 0.30673 0.11465 0.4081 0.0
C899 C 0.30187 0.12787 0.34047 0.0
C900 C 0.32329 0.14434 0.34347 0.0
C901 C 0.33562 0.14675 0.37975 0.0
C902 C 0.32729 0.13218 0.4119 0.0
C903 C 0.3341 0.15693 0.30785 0.0
C904 C 0.35989 0.15179 0.29764 0.0
C905 C 0.31867 0.17175 0.28212 0.0
C906 C 0.29171 0.17907 0.29206 0.0
C907 C 0.28604 0.19121 0.32764 0.0
C908 C 0.2606 0.19795 0.33693 0.0
C909 C 0.24066 0.19282 0.31078 0.0
C910 C 0.24612 0.18097 0.27523 0.0
C911 C 0.27153 0.17416 0.2658 0.0
H912 H 0.22097 0.19806 0.31803 0.0
H913 H 0.46852 0.13566 0.22654 0.0
H914 H 0.77325 0.40481 0.16894 0.0
H915 H 0.7898 0.38185 0.22544 0.0
H916 H 0.85508 0.3555 0.15811 0.0
H917 H 0.83822 0.37827 0.10086 0.0
H918 H 0.83927 0.31845 0.20802 0.0
H919 H 0.85971 0.40832 0.2177 0.0
H920 H 0.85054 0.45503 0.21813 0.0
H921 H 0.80029 0.44531 0.31648 0.0
H922 H 0.80886 0.39845 0.31626 0.0
H923 H 0.9278 0.29365 0.35752 0.0
H924 H 0.90383 0.30933 0.30227 0.0
H925 H 0.84379 0.33747 0.37844 0.0
H926 H 0.86874 0.32269 0.4351 0.0
H927 H 0.85379 0.37222 0.32525 0.0
H928 H 0.8387 0.28093 0.3181 0.0
H929 H 0.85144 0.23507 0.31661 0.0
H930 H 0.89442 0.24772 0.21166 0.0
H931 H 0.8827 0.29383 0.21305 0.0
C932 C 0.79092 0.39378 0.16587 0.0
C933 C 0.80449 0.39354 0.13037 0.0
C934 C 0.80047 0.38075 0.19837 0.0
C935 C 0.82407 0.36743 0.19651 0.0
C936 C 0.83691 0.36578 0.16045 0.0
C937 C 0.82721 0.37871 0.12765 0.0
C938 C 0.83581 0.35644 0.2326 0.0
C939 C 0.84266 0.33024 0.23355 0.0
C940 C 0.8398 0.37165 0.26635 0.0
C941 C 0.83471 0.39984 0.2667 0.0
C942 C 0.84655 0.41612 0.23923 0.0
C943 C 0.84148 0.44262 0.23946 0.0
C944 C 0.82478 0.45312 0.26725 0.0
C945 C 0.81318 0.43714 0.29493 0.0
C946 C 0.81815 0.41061 0.29478 0.0
C947 C 0.90937 0.30292 0.36296 0.0
C948 C 0.90022 0.30671 0.40116 0.0
C949 C 0.8955 0.31178 0.33093 0.0
C950 C 0.87157 0.32411 0.3357 0.0
C951 C 0.86211 0.32782 0.37378 0.0
C952 C 0.87631 0.31925 0.40621 0.0
C953 C 0.85739 0.3341 0.30085 0.0
C954 C 0.85012 0.36023 0.30003 0.0
C955 C 0.85331 0.31884 0.26707 0.0
C956 C 0.8599 0.29093 0.26581 0.0
C957 C 0.85098 0.27399 0.2948 0.0
C958 C 0.85802 0.24793 0.29398 0.0
C959 C 0.87364 0.23847 0.26405 0.0
C960 C 0.8823 0.25506 0.23483 0.0
C961 C 0.87549 0.28117 0.23564 0.0
H962 H 0.87904 0.21829 0.26351 0.0
H963 H 0.82089 0.47365 0.26739 0.0
H964 H 0.6775 0.87231 0.43649 0.0
H965 H 0.66316 0.84734 0.37944 0.0
H966 H 0.71408 0.89184 0.30628 0.0
H967 H 0.72856 0.9163 0.36242 0.0
H968 H 0.66409 0.892 0.27948 0.0
H969 H 0.72717 0.83022 0.32326 0.0
H970 H 0.74744 0.80072 0.37038 0.0
H971 H 0.67707 0.75709 0.37807 0.0
H972 H 0.65626 0.78657 0.33138 0.0
H973 H 0.63898 0.83173 0.09987 0.0
H974 H 0.66455 0.84587 0.1561 0.0
H975 H 0.62029 0.79543 0.23041 0.0
H976 H 0.59534 0.78094 0.17463 0.0
H977 H 0.668 0.79755 0.25668 0.0
H978 H 0.60383 0.85909 0.21765 0.0
H979 H 0.58175 0.8879 0.17139 0.0
H980 H 0.65137 0.93206 0.15751 0.0
H981 H 0.67403 0.90318 0.20315 0.0
C982 C 0.6861 0.87624 0.40841 0.0
C983 C 0.70404 0.89646 0.40408 0.0
C984 C 0.67781 0.86207 0.37576 0.0
C985 C 0.68733 0.8679 0.33836 0.0
C986 C 0.70621 0.88712 0.33459 0.0
C987 C 0.71452 0.90107 0.36692 0.0
C988 C 0.6767 0.85549 0.3026 0.0
C989 C 0.66529 0.87137 0.27432 0.0
C990 C 0.6776 0.82852 0.2961 0.0
C991 C 0.69007 0.81078 0.32415 0.0
C992 C 0.71594 0.81449 0.33528 0.0
C993 C 0.72755 0.79774 0.36185 0.0
C994 C 0.71353 0.77709 0.3773 0.0
C995 C 0.68789 0.77312 0.36613 0.0
C996 C 0.67619 0.78983 0.33959 0.0
C997 C 0.63531 0.82308 0.12797 0.0
C998 C 0.61498 0.80538 0.13281 0.0
C999 C 0.64975 0.83136 0.16024 0.0
C1000 C 0.644 0.82218 0.19786 0.0
C1001 C 0.6251 0.80297 0.20196 0.0
C1002 C 0.61076 0.79475 0.16992 0.0
C1003 C 0.65564 0.83411 0.23338 0.0
C1004 C 0.66701 0.81819 0.26171 0.0
C1005 C 0.65441 0.86107 0.24028 0.0
C1006 C 0.6407 0.8788 0.21348 0.0
C1007 C 0.61448 0.87486 0.20456 0.0
C1008 C 0.60186 0.89119 0.17844 0.0
C1009 C 0.61517 0.91176 0.16144 0.0
C1010 C 0.64111 0.91609 0.17064 0.0
C1011 C 0.65385 0.89973 0.19662 0.0
H1012 H 0.60538 0.92437 0.1412 0.0
H1013 H 0.72255 0.76414 0.39786 0.0
H1014 H 0.06944 0.66796 0.39377 0.0
H1015 H 0.09448 0.65671 0.33657 0.0
H1016 H 0.16402 0.68321 0.39256 0.0
H1017 H 0.1387 0.69501 0.45066 0.0
H1018 H 0.16184 0.69844 0.31558 0.0
H1019 H 0.15249 0.61934 0.3849 0.0
H1020 H 0.12925 0.5852 0.42057 0.0
H1021 H 0.08328 0.56927 0.31974 0.0
H1022 H 0.10597 0.6036 0.28362 0.0
H1023 H 0.24141 0.63608 0.17204 0.0
H1024 H 0.22106 0.65067 0.23231 0.0
H1025 H 0.14674 0.62631 0.18947 0.0
H1026 H 0.16692 0.61182 0.12894 0.0
H1027 H 0.15468 0.60952 0.26305 0.0
H1028 H 0.16257 0.69002 0.19498 0.0
H1029 H 0.18542 0.72446 0.15943 0.0
H1030 H 0.23439 0.73757 0.25795 0.0
H1031 H 0.21205 0.70293 0.29393 0.0
C1032 C 0.09006 0.6715 0.39425 0.0
C1033 C 0.10201 0.68228 0.4272 0.0
C1034 C 0.10442 0.66491 0.36133 0.0
C1035 C 0.13125 0.66866 0.36028 0.0
C1036 C 0.14334 0.67997 0.3927 0.0
C1037 C 0.12887 0.68664 0.42595 0.0
C1038 C 0.14626 0.66045 0.32519 0.0
C1039 C 0.16069 0.67887 0.3045 0.0
C1040 C 0.14438 0.63504 0.31012 0.0
C1041 C 0.13081 0.6142 0.33164 0.0
C1042 C 0.1373 0.60869 0.37041 0.0
C1043 C 0.12424 0.58928 0.3907 0.0
C1044 C 0.10477 0.57512 0.37246 0.0
C1045 C 0.09836 0.58028 0.33385 0.0
C1046 C 0.11134 0.59969 0.31343 0.0
C1047 C 0.22069 0.63399 0.17518 0.0
C1048 C 0.20589 0.62252 0.14552 0.0
C1049 C 0.20905 0.64243 0.20976 0.0
C1050 C 0.18231 0.63968 0.21559 0.0
C1051 C 0.16742 0.62857 0.18584 0.0
C1052 C 0.17902 0.62026 0.15114 0.0
C1053 C 0.16995 0.64759 0.25307 0.0
C1054 C 0.15602 0.62905 0.27425 0.0
C1055 C 0.17236 0.67285 0.26856 0.0
C1056 C 0.18583 0.69367 0.24699 0.0
C1057 C 0.17836 0.70008 0.20895 0.0
C1058 C 0.19119 0.71967 0.18874 0.0
C1059 C 0.2114 0.73314 0.20637 0.0
C1060 C 0.21877 0.72709 0.2443 0.0
C1061 C 0.20602 0.70749 0.26463 0.0
H1062 H 0.2213 0.74831 0.19069 0.0
H1063 H 0.09467 0.5601 0.38823 0.0
H1064 H 0.6401 0.85021 0.9434 0.0
H1065 H 0.66095 0.8631 0.88186 0.0
H1066 H 0.60948 0.81291 0.81875 0.0
H1067 H 0.58912 0.79994 0.87928 0.0
H1068 H 0.65621 0.8111 0.78661 0.0
H1069 H 0.59681 0.87744 0.82905 0.0
H1070 H 0.57995 0.90919 0.87616 0.0
H1071 H 0.6523 0.94974 0.87339 0.0
H1072 H 0.66973 0.91795 0.82673 0.0
H1073 H 0.66006 0.87145 0.59627 0.0
H1074 H 0.64719 0.85168 0.65863 0.0
H1075 H 0.69786 0.90387 0.71949 0.0
H1076 H 0.71032 0.92354 0.65838 0.0
H1077 H 0.65273 0.90415 0.75345 0.0
H1078 H 0.71161 0.83869 0.70843 0.0
H1079 H 0.72865 0.80619 0.66269 0.0
H1080 H 0.65746 0.76389 0.67014 0.0
H1081 H 0.63986 0.79634 0.71555 0.0
C1082 C 0.63366 0.84163 0.91643 0.0
C1083 C 0.61278 0.8243 0.91622 0.0
C1084 C 0.64543 0.84909 0.88123 0.0
C1085 C 0.63656 0.83924 0.84542 0.0
C1086 C 0.61672 0.82086 0.84573 0.0
C1087 C 0.60496 0.81359 0.88053 0.0
C1088 C 0.64631 0.84911 0.80729 0.0
C1089 C 0.65534 0.83145 0.77929 0.0
C1090 C 0.64536 0.87565 0.79759 0.0
C1091 C 0.63467 0.89517 0.82476 0.0
C1092 C 0.60916 0.89306 0.83865 0.0
C1093 C 0.59951 0.91104 0.86529 0.0
C1094 C 0.61509 0.9314 0.8779 0.0
C1095 C 0.64029 0.93391 0.86369 0.0
C1096 C 0.65006 0.91592 0.83715 0.0
C1097 C 0.66866 0.87835 0.62296 0.0
C1098 C 0.68603 0.89922 0.6223 0.0
C1099 C 0.6613 0.8671 0.65863 0.0
C1100 C 0.67144 0.87637 0.69404 0.0
C1101 C 0.68947 0.89652 0.69289 0.0
C1102 C 0.69662 0.90773 0.65769 0.0
C1103 C 0.66285 0.86617 0.73267 0.0
C1104 C 0.65384 0.88381 0.76074 0.0
C1105 C 0.66379 0.83962 0.74233 0.0
C1106 C 0.67432 0.8201 0.71505 0.0
C1107 C 0.69951 0.82258 0.70006 0.0
C1108 C 0.70929 0.80414 0.67424 0.0
C1109 C 0.69412 0.78303 0.66343 0.0
C1110 C 0.66917 0.78027 0.67849 0.0
C1111 C 0.65929 0.79867 0.70429 0.0
H1112 H 0.70173 0.76877 0.64345 0.0
H1113 H 0.60761 0.94527 0.8986 0.0
H1114 H 0.07955 0.64179 0.65286 0.0
H1115 H 0.09895 0.63057 0.71522 0.0
H1116 H 0.1599 0.68578 0.69488 0.0
H1117 H 0.14091 0.69626 0.63133 0.0
H1118 H 0.1782 0.64557 0.73596 0.0
H1119 H 0.10646 0.70248 0.74807 0.0
H1120 H 0.06202 0.71795 0.73696 0.0
H1121 H 0.03171 0.65068 0.79386 0.0
H1122 H 0.07598 0.6346 0.80478 0.0
H1123 H 0.2051 0.64316 0.94101 0.0
H1124 H 0.19153 0.66196 0.8785 0.0
H1125 H 0.13169 0.60436 0.8691 0.0
H1126 H 0.14542 0.58553 0.93078 0.0
H1127 H 0.11533 0.65285 0.84459 0.0
H1128 H 0.18849 0.59488 0.82586 0.0
H1129 H 0.23337 0.58077 0.83716 0.0
H1130 H 0.26153 0.65328 0.79403 0.0
H1131 H 0.21675 0.66796 0.78298 0.0
C1132 C 0.09761 0.65084 0.66111 0.0
C1133 C 0.10886 0.66972 0.63727 0.0
C1134 C 0.10852 0.64468 0.69698 0.0
C1135 C 0.13046 0.65791 0.71045 0.0
C1136 C 0.14287 0.67543 0.68535 0.0
C1137 C 0.13215 0.68127 0.64892 0.0
C1138 C 0.13892 0.65475 0.75165 0.0
C1139 C 0.16455 0.64761 0.75973 0.0
C1140 C 0.12123 0.65747 0.78296 0.0
C1141 C 0.09455 0.66726 0.77702 0.0
C1142 C 0.09032 0.69092 0.75804 0.0
C1143 C 0.06516 0.6998 0.75178 0.0
C1144 C 0.04405 0.68529 0.76465 0.0
C1145 C 0.04807 0.6619 0.7839 0.0
C1146 C 0.0732 0.6529 0.79017 0.0
C1147 C 0.18852 0.63517 0.92611 0.0
C1148 C 0.17601 0.61318 0.94083 0.0
C1149 C 0.18097 0.64568 0.89024 0.0
C1150 C 0.16073 0.63441 0.86889 0.0
C1151 C 0.14731 0.61342 0.88497 0.0
C1152 C 0.15507 0.60275 0.9203 0.0
C1153 C 0.15433 0.64298 0.82872 0.0
C1154 C 0.12906 0.6512 0.82084 0.0
C1155 C 0.17242 0.64156 0.7978 0.0
C1156 C 0.1993 0.63262 0.80403 0.0
C1157 C 0.20425 0.60789 0.81907 0.0
C1158 C 0.22967 0.59977 0.82538 0.0
C1159 C 0.25029 0.61615 0.81644 0.0
C1160 C 0.24554 0.64064 0.80102 0.0
C1161 C 0.22015 0.64886 0.79472 0.0
H1162 H 0.26996 0.60984 0.82135 0.0
H1163 H 0.02458 0.69219 0.75975 0.0
H1164 H 0.30249 0.08267 0.66098 0.0
H1165 H 0.31303 0.10408 0.72151 0.0
H1166 H 0.35739 0.16099 0.65887 0.0
H1167 H 0.34688 0.13914 0.59712 0.0
H1168 H 0.38394 0.14137 0.72093 0.0
H1169 H 0.30029 0.17737 0.70183 0.0
H1170 H 0.25368 0.17712 0.68722 0.0
H1171 H 0.23941 0.12977 0.78728 0.0
H1172 H 0.28601 0.12939 0.80219 0.0
H1173 H 0.40781 0.21669 0.88417 0.0
H1174 H 0.38829 0.20368 0.82303 0.0
H1175 H 0.34898 0.14125 0.88111 0.0
H1176 H 0.36865 0.15451 0.94337 0.0
H1177 H 0.31896 0.16594 0.82069 0.0
H1178 H 0.40272 0.1277 0.83696 0.0
H1179 H 0.44933 0.12782 0.85162 0.0
H1180 H 0.46308 0.17936 0.75617 0.0
H1181 H 0.41645 0.17988 0.74132 0.0
C1182 C 0.31435 0.09988 0.65976 0.0
C1183 C 0.32395 0.10911 0.62407 0.0
C1184 C 0.3202 0.11225 0.6946 0.0
C1185 C 0.3358 0.13434 0.69497 0.0
C1186 C 0.34518 0.14402 0.65933 0.0
C1187 C 0.3391 0.13163 0.62406 0.0
C1188 C 0.34336 0.14597 0.733 0.0
C1189 C 0.3697 0.14724 0.74237 0.0
C1190 C 0.32481 0.15287 0.76165 0.0
C1191 C 0.29671 0.15319 0.75297 0.0
C1192 C 0.28725 0.16674 0.72057 0.0
C1193 C 0.26082 0.16674 0.71225 0.0
C1194 C 0.2436 0.1534 0.73625 0.0
C1195 C 0.25278 0.14009 0.7687 0.0
C1196 C 0.2792 0.14 0.77713 0.0
C1197 C 0.39464 0.20043 0.88422 0.0
C1198 C 0.38995 0.18645 0.91854 0.0
C1199 C 0.38352 0.193 0.84913 0.0
C1200 C 0.36758 0.17118 0.84721 0.0
C1201 C 0.36133 0.15811 0.88188 0.0
C1202 C 0.37247 0.16571 0.91744 0.0
C1203 C 0.35946 0.16124 0.80842 0.0
C1204 C 0.33311 0.16022 0.79904 0.0
C1205 C 0.37796 0.15451 0.77968 0.0
C1206 C 0.40606 0.15402 0.78826 0.0
C1207 C 0.41565 0.13922 0.81927 0.0
C1208 C 0.44208 0.13915 0.8276 0.0
C1209 C 0.45915 0.15364 0.80489 0.0
C1210 C 0.44983 0.16817 0.77375 0.0
C1211 C 0.4234 0.16835 0.76536 0.0
H1212 H 0.47961 0.15356 0.81138 0.0
H1213 H 0.22314 0.15341 0.72975 0.0
H1214 H 0.92427 0.36986 0.62478 0.0
H1215 H 0.90636 0.3803 0.68859 0.0
H1216 H 0.84949 0.32014 0.67515 0.0
H1217 H 0.86718 0.31009 0.61033 0.0
H1218 H 0.82987 0.36138 0.7174 0.0
H1219 H 0.90414 0.30725 0.72264 0.0
H1220 H 0.94864 0.29353 0.70732 0.0
H1221 H 0.97838 0.36215 0.76104 0.0
H1222 H 0.934 0.37652 0.7761 0.0
H1223 H 0.80995 0.36495 0.92398 0.0
H1224 H 0.82197 0.34599 0.86077 0.0
H1225 H 0.88082 0.4042 0.84657 0.0
H1226 H 0.86866 0.42313 0.90904 0.0
H1227 H 0.89712 0.35688 0.81973 0.0
H1228 H 0.82188 0.41239 0.808 0.0
H1229 H 0.77722 0.42544 0.82373 0.0
H1230 H 0.74914 0.35221 0.78339 0.0
H1231 H 0.79374 0.33858 0.76799 0.0
C1232 C 0.90727 0.35957 0.63475 0.0
C1233 C 0.89687 0.33944 0.61239 0.0
C1234 C 0.89723 0.36531 0.67149 0.0
C1235 C 0.87697 0.35059 0.68728 0.0
C1236 C 0.8652 0.33171 0.66376 0.0
C1237 C 0.87513 0.32614 0.62656 0.0
C1238 C 0.86995 0.35359 0.72926 0.0
C1239 C 0.84448 0.35993 0.73982 0.0
C1240 C 0.88895 0.35175 0.75881 0.0
C1241 C 0.91571 0.34305 0.75025 0.0
C1242 C 0.92015 0.3195 0.73097 0.0
C1243 C 0.94536 0.3116 0.72234 0.0
C1244 C 0.96632 0.32698 0.73314 0.0
C1245 C 0.96212 0.35027 0.75267 0.0
C1246 C 0.93694 0.35829 0.76129 0.0
C1247 C 0.82609 0.373 0.90795 0.0
C1248 C 0.83869 0.39523 0.92162 0.0
C1249 C 0.83271 0.36241 0.87161 0.0
C1250 C 0.85213 0.37384 0.84857 0.0
C1251 C 0.86581 0.39499 0.86364 0.0
C1252 C 0.85896 0.40572 0.89949 0.0
C1253 C 0.85724 0.36534 0.80776 0.0
C1254 C 0.88242 0.35793 0.79739 0.0
C1255 C 0.83795 0.36603 0.77857 0.0
C1256 C 0.81115 0.37436 0.78728 0.0
C1257 C 0.8062 0.39901 0.80275 0.0
C1258 C 0.7809 0.40652 0.81158 0.0
C1259 C 0.76036 0.38964 0.80467 0.0
C1260 C 0.76508 0.36524 0.7888 0.0
C1261 C 0.79036 0.35762 0.78001 0.0
H1262 H 0.74079 0.39548 0.81154 0.0
H1263 H 0.98583 0.32084 0.72644 0.0
loop_
_geom_bond_atom_site_label_1
_geom_bond_atom_site_label_2
_geom_bond_distance
_geom_bond_site_symmetry_2
_ccdc_geom_bond_type
C0 C1 1.351 . S
C0 N3 1.368 . S
C0 H5 0.931 . S
C1 C0 1.351 . S
C1 N2 1.373 1_556 S
C1 H29 0.930 . S
N2 C1 1.373 1_554 S
N2 C4 1.340 . S
N3 C0 1.368 . S
N3 C4 1.321 1_556 S
N3 Co6 2.135 1_556 S
C4 N2 1.340 . S
C4 N3 1.321 1_554 S
C4 H28 0.930 . S
H5 C0 0.931 . S
Co6 N3 2.135 1_554 S
Co6 N9 2.120 . S
Co6 O14 2.057 1_554 S
Co6 O17 2.036 . S
Co6 N20 2.140 . S
C7 O8 1.227 . S
C7 O17 1.265 . S
O8 C7 1.227 . S
N9 Co6 2.120 . S
N9 C11 1.375 . S
N9 C12 1.313 1_554 S
C10 C11 1.338 . S
C10 N13 1.369 1_554 S
C10 H30 0.930 . S
C11 N9 1.375 . S
C11 C10 1.338 . S
C11 H15 0.931 . S
C12 N9 1.313 1_556 S
C12 N13 1.347 . S
C12 H16 0.930 . S
N13 C10 1.369 1_556 S
N13 C12 1.347 . S
O14 Co6 2.057 1_556 S
O14 C18 1.253 . S
H15 C11 0.931 . S
H16 C12 0.930 . S
O17 Co6 2.036 . S
O17 C7 1.265 . S
C18 O14 1.253 . S
C18 O19 1.227 . S
O19 C18 1.227 . S
N20 Co6 2.140 . S
N20 C23 1.346 . S
N20 C24 1.345 1_554 S
C21 C22 1.387 . S
C21 C25 1.391 1_554 S
C22 C21 1.387 . S
C22 C23 1.369 . S
C22 H31 0.929 . S
C23 N20 1.346 . S
C23 C22 1.369 . S
C23 H26 0.928 . S
C24 N20 1.345 1_556 S
C24 C25 1.371 . S
C24 H27 0.931 . S
C25 C21 1.391 1_556 S
C25 C24 1.371 . S
C25 H32 0.930 . S
H26 C23 0.928 . S
H27 C24 0.931 . S
H28 C4 0.930 . S
H29 C1 0.930 . S
H30 C10 0.930 . S
H31 C22 0.929 . S
H32 C25 0.930 . S
C33 C34 1.351 . S
C33 N36 1.368 . S
C33 H38 0.931 . S
C34 C33 1.351 . S
C34 N35 1.373 1_556 S
C34 H62 0.930 . S
N35 C34 1.373 1_554 S
N35 C37 1.340 . S
N36 C33 1.368 . S
N36 C37 1.321 1_556 S
N36 Co39 2.135 1_556 S
C37 N35 1.340 . S
C37 N36 1.321 1_554 S
C37 H61 0.930 . S
H38 C33 0.931 . S
Co39 N36 2.135 1_554 S
Co39 N42 2.120 . S
Co39 O47 2.057 1_554 S
Co39 O50 2.036 . S
Co39 N53 2.140 . S
C40 O41 1.227 . S
C40 O50 1.265 . S
O41 C40 1.227 . S
N42 Co39 2.120 . S
N42 C44 1.375 . S
N42 C45 1.313 1_554 S
C43 C44 1.338 . S
C43 N46 1.369 1_554 S
C43 H63 0.930 . S
C44 N42 1.375 . S
C44 C43 1.338 . S
C44 H48 0.931 . S
C45 N42 1.313 1_556 S
C45 N46 1.347 . S
C45 H49 0.930 . S
N46 C43 1.369 1_556 S
N46 C45 1.347 . S
O47 Co39 2.057 1_556 S
O47 C51 1.253 . S
H48 C44 0.931 . S
H49 C45 0.930 . S
O50 Co39 2.036 . S
O50 C40 1.265 . S
C51 O47 1.253 . S
C51 O52 1.227 . S
O52 C51 1.227 . S
N53 Co39 2.140 . S
N53 C56 1.346 . S
N53 C57 1.345 1_554 S
C54 C55 1.387 . S
C54 C58 1.391 1_554 S
C55 C54 1.387 . S
C55 C56 1.369 . S
C55 H64 0.929 . S
C56 N53 1.346 . S
C56 C55 1.369 . S
C56 H59 0.928 . S
C57 N53 1.345 1_556 S
C57 C58 1.371 . S
C57 H60 0.931 . S
C58 C54 1.391 1_556 S
C58 C57 1.371 . S
C58 H65 0.930 . S
H59 C56 0.928 . S
H60 C57 0.931 . S
H61 C37 0.930 . S
H62 C34 0.930 . S
H63 C43 0.930 . S
H64 C55 0.929 . S
H65 C58 0.930 . S
C66 C67 1.351 . S
C66 N69 1.368 . S
C66 H71 0.931 . S
C67 C66 1.351 . S
C67 N68 1.373 1_556 S
C67 H95 0.930 . S
N68 C67 1.373 1_554 S
N68 C70 1.340 . S
N69 C66 1.368 . S
N69 C70 1.321 1_556 S
N69 Co72 2.135 1_556 S
C70 N68 1.340 . S
C70 N69 1.321 1_554 S
C70 H94 0.930 . S
H71 C66 0.931 . S
Co72 N69 2.135 1_554 S
Co72 N75 2.120 . S
Co72 O80 2.057 1_554 S
Co72 O83 2.036 . S
Co72 N86 2.140 . S
C73 O74 1.227 . S
C73 O83 1.265 . S
O74 C73 1.227 . S
N75 Co72 2.120 . S
N75 C77 1.375 . S
N75 C78 1.313 1_554 S
C76 C77 1.338 . S
C76 N79 1.369 1_554 S
C76 H96 0.930 . S
C77 N75 1.375 . S
C77 C76 1.338 . S
C77 H81 0.931 . S
C78 N75 1.313 1_556 S
C78 N79 1.347 . S
C78 H82 0.930 . S
N79 C76 1.369 1_556 S
N79 C78 1.347 . S
O80 Co72 2.057 1_556 S
O80 C84 1.253 . S
H81 C77 0.931 . S
H82 C78 0.930 . S
O83 Co72 2.036 . S
O83 C73 1.265 . S
C84 O80 1.253 . S
C84 O85 1.227 . S
O85 C84 1.227 . S
N86 Co72 2.140 . S
N86 C89 1.346 . S
N86 C90 1.345 1_554 S
C87 C88 1.387 . S
C87 C91 1.391 1_554 S
C88 C87 1.387 . S
C88 C89 1.369 . S
C88 H97 0.929 . S
C89 N86 1.346 . S
C89 C88 1.369 . S
C89 H92 0.928 . S
C90 N86 1.345 1_556 S
C90 C91 1.371 . S
C90 H93 0.931 . S
C91 C87 1.391 1_556 S
C91 C90 1.371 . S
C91 H98 0.930 . S
H92 C89 0.928 . S
H93 C90 0.931 . S
H94 C70 0.930 . S
H95 C67 0.930 . S
H96 C76 0.930 . S
H97 C88 0.929 . S
H98 C91 0.930 . S
C99 C100 1.351 . S
C99 N102 1.368 . S
C99 H104 0.931 . S
C100 C99 1.351 . S
C100 N101 1.373 1_556 S
C100 H128 0.930 . S
N101 C100 1.373 1_554 S
N101 C103 1.340 . S
N102 C99 1.368 . S
N102 C103 1.321 1_556 S
N102 Co105 2.135 1_556 S
C103 N101 1.340 . S
C103 N102 1.321 1_554 S
C103 H127 0.930 . S
H104 C99 0.931 . S
Co105 N102 2.135 1_554 S
Co105 N108 2.120 . S
Co105 O113 2.057 1_554 S
Co105 O116 2.036 . S
Co105 N119 2.140 . S
C106 O107 1.227 . S
C106 O116 1.265 . S
O107 C106 1.227 . S
N108 Co105 2.120 . S
N108 C110 1.375 . S
N108 C111 1.313 1_554 S
C109 C110 1.338 . S
C109 N112 1.369 1_554 S
C109 H129 0.930 . S
C110 N108 1.375 . S
C110 C109 1.338 . S
C110 H114 0.931 . S
C111 N108 1.313 1_556 S
C111 N112 1.347 . S
C111 H115 0.930 . S
N112 C109 1.369 1_556 S
N112 C111 1.347 . S
O113 Co105 2.057 1_556 S
O113 C117 1.253 . S
H114 C110 0.931 . S
H115 C111 0.930 . S
O116 Co105 2.036 . S
O116 C106 1.265 . S
C117 O113 1.253 . S
C117 O118 1.227 . S
O118 C117 1.227 . S
N119 Co105 2.140 . S
N119 C122 1.346 . S
N119 C123 1.345 1_554 S
C120 C121 1.387 . S
C120 C124 1.391 1_554 S
C121 C120 1.387 . S
C121 C122 1.369 . S
C121 H130 0.929 . S
C122 N119 1.346 . S
C122 C121 1.369 . S
C122 H125 0.928 . S
C123 N119 1.345 1_556 S
C123 C124 1.371 . S
C123 H126 0.931 . S
C124 C120 1.391 1_556 S
C124 C123 1.371 . S
C124 H131 0.930 . S
H125 C122 0.928 . S
H126 C123 0.931 . S
H127 C103 0.930 . S
H128 C100 0.930 . S
H129 C109 0.930 . S
H130 C121 0.929 . S
H131 C124 0.930 . S
C132 C133 1.351 . S
C132 N135 1.368 . S
C132 H137 0.931 . S
C133 C132 1.351 . S
C133 N134 1.373 . S
C133 H161 0.930 . S
N134 C133 1.373 . S
N134 C136 1.340 . S
N135 C132 1.368 . S
N135 C136 1.321 . S
N135 Co138 2.135 . S
C136 N134 1.340 . S
C136 N135 1.321 . S
C136 H160 0.930 . S
H137 C132 0.931 . S
Co138 N135 2.135 . S
Co138 N141 2.121 . S
Co138 O146 2.055 . S
Co138 O149 2.039 . S
Co138 N152 2.140 . S
C139 O140 1.227 . S
C139 O149 1.265 . S
O140 C139 1.227 . S
N141 Co138 2.121 . S
N141 C143 1.375 . S
N141 C144 1.313 . S
C142 C143 1.338 . S
C142 N145 1.377 . S
C142 H162 0.930 . S
C143 N141 1.375 . S
C143 C142 1.338 . S
C143 H147 0.931 . S
C144 N141 1.313 . S
C144 N145 1.344 . S
C144 H148 0.930 . S
N145 C142 1.377 . S
N145 C144 1.344 . S
O146 Co138 2.055 . S
O146 C150 1.253 . S
H147 C143 0.931 . S
H148 C144 0.930 . S
O149 Co138 2.039 . S
O149 C139 1.265 . S
C150 O146 1.253 . S
C150 O151 1.227 . S
O151 C150 1.227 . S
N152 Co138 2.140 . S
N152 C155 1.346 . S
N152 C156 1.345 . S
C153 C154 1.387 . S
C153 C157 1.391 . S
C154 C153 1.387 . S
C154 C155 1.369 . S
C154 H163 0.929 . S
C155 N152 1.346 . S
C155 C154 1.369 . S
C155 H158 0.928 . S
C156 N152 1.345 . S
C156 C157 1.371 . S
C156 H159 0.931 . S
C157 C153 1.391 . S
C157 C156 1.371 . S
C157 H164 0.930 1_655 S
H158 C155 0.928 . S
H159 C156 0.931 . S
H160 C136 0.930 . S
H161 C133 0.930 . S
H162 C142 0.930 . S
H163 C154 0.929 . S
H164 C157 0.930 1_455 S
C165 C166 1.351 . S
C165 N168 1.368 . S
C165 H170 0.931 . S
C166 C165 1.351 . S
C166 N167 1.373 . S
C166 H194 0.930 . S
N167 C166 1.373 . S
N167 C169 1.340 . S
N168 C165 1.368 . S
N168 C169 1.321 . S
N168 Co171 2.135 . S
C169 N167 1.340 . S
C169 N168 1.321 . S
C169 H193 0.930 . S
H170 C165 0.931 . S
Co171 N168 2.135 . S
Co171 N174 2.121 . S
Co171 O179 2.055 . S
Co171 O182 2.039 . S
Co171 N185 2.140 . S
C172 O173 1.227 . S
C172 O182 1.265 . S
O173 C172 1.227 . S
N174 Co171 2.121 . S
N174 C176 1.375 . S
N174 C177 1.313 . S
C175 C176 1.338 . S
C175 N178 1.377 . S
C175 H195 0.930 . S
C176 N174 1.375 . S
C176 C175 1.338 . S
C176 H180 0.931 . S
C177 N174 1.313 . S
C177 N178 1.344 . S
C177 H181 0.930 . S
N178 C175 1.377 . S
N178 C177 1.344 . S
O179 Co171 2.055 . S
O179 C183 1.253 . S
H180 C176 0.931 . S
H181 C177 0.930 . S
O182 Co171 2.039 . S
O182 C172 1.265 . S
C183 O179 1.253 . S
C183 O184 1.227 . S
O184 C183 1.227 . S
N185 Co171 2.140 . S
N185 C188 1.346 . S
N185 C189 1.345 . S
C186 C187 1.387 . S
C186 C190 1.391 . S
C187 C186 1.387 . S
C187 C188 1.369 . S
C187 H196 0.929 . S
C188 N185 1.346 . S
C188 C187 1.369 . S
C188 H191 0.928 . S
C189 N185 1.345 . S
C189 C190 1.371 . S
C189 H192 0.931 . S
C190 C186 1.391 . S
C190 C189 1.371 . S
C190 H197 0.930 1_565 S
H191 C188 0.928 . S
H192 C189 0.931 . S
H193 C169 0.930 . S
H194 C166 0.930 . S
H195 C175 0.930 . S
H196 C187 0.929 . S
H197 C190 0.930 1_545 S
C198 C199 1.351 . S
C198 N201 1.368 . S
C198 H203 0.931 . S
C199 C198 1.351 . S
C199 N200 1.373 . S
C199 H227 0.930 . S
N200 C199 1.373 . S
N200 C202 1.340 . S
N201 C198 1.368 . S
N201 C202 1.321 . S
N201 Co204 2.135 . S
C202 N200 1.340 . S
C202 N201 1.321 . S
C202 H226 0.930 . S
H203 C198 0.931 . S
Co204 N201 2.135 . S
Co204 N207 2.121 . S
Co204 O212 2.055 . S
Co204 O215 2.039 . S
Co204 N218 2.140 . S
C205 O206 1.227 . S
C205 O215 1.265 . S
O206 C205 1.227 . S
N207 Co204 2.121 . S
N207 C209 1.375 . S
N207 C210 1.313 . S
C208 C209 1.338 . S
C208 N211 1.377 . S
C208 H228 0.930 . S
C209 N207 1.375 . S
C209 C208 1.338 . S
C209 H213 0.931 . S
C210 N207 1.313 . S
C210 N211 1.344 . S
C210 H214 0.930 . S
N211 C208 1.377 . S
N211 C210 1.344 . S
O212 Co204 2.055 . S
O212 C216 1.253 . S
H213 C209 0.931 . S
H214 C210 0.930 . S
O215 Co204 2.039 . S
O215 C205 1.265 . S
C216 O212 1.253 . S
C216 O217 1.227 . S
O217 C216 1.227 . S
N218 Co204 2.140 . S
N218 C221 1.346 . S
N218 C222 1.345 . S
C219 C220 1.387 . S
C219 C223 1.391 . S
C220 C219 1.387 . S
C220 C221 1.369 . S
C220 H229 0.929 . S
C221 N218 1.346 . S
C221 C220 1.369 . S
C221 H224 0.928 . S
C222 N218 1.345 . S
C222 C223 1.371 . S
C222 H225 0.931 . S
C223 C219 1.391 . S
C223 C222 1.371 . S
C223 H230 0.930 1_455 S
H224 C221 0.928 . S
H225 C222 0.931 . S
H226 C202 0.930 . S
H227 C199 0.930 . S
H228 C208 0.930 . S
H229 C220 0.929 . S
H230 C223 0.930 1_655 S
C231 C232 1.351 . S
C231 N234 1.368 . S
C231 H236 0.931 . S
C232 C231 1.351 . S
C232 N233 1.373 . S
C232 H260 0.930 . S
N233 C232 1.373 . S
N233 C235 1.340 . S
N234 C231 1.368 . S
N234 C235 1.321 . S
N234 Co237 2.135 . S
C235 N233 1.340 . S
C235 N234 1.321 . S
C235 H259 0.930 . S
H236 C231 0.931 . S
Co237 N234 2.135 . S
Co237 N240 2.121 . S
Co237 O245 2.055 . S
Co237 O248 2.039 . S
Co237 N251 2.140 . S
C238 O239 1.227 . S
C238 O248 1.265 . S
O239 C238 1.227 . S
N240 Co237 2.121 . S
N240 C242 1.375 . S
N240 C243 1.313 . S
C241 C242 1.338 . S
C241 N244 1.377 . S
C241 H261 0.930 . S
C242 N240 1.375 . S
C242 C241 1.338 . S
C242 H246 0.931 . S
C243 N240 1.313 . S
C243 N244 1.344 . S
C243 H247 0.930 . S
N244 C241 1.377 . S
N244 C243 1.344 . S
O245 Co237 2.055 . S
O245 C249 1.253 . S
H246 C242 0.931 . S
H247 C243 0.930 . S
O248 Co237 2.039 . S
O248 C238 1.265 . S
C249 O245 1.253 . S
C249 O250 1.227 . S
O250 C249 1.227 . S
N251 Co237 2.140 . S
N251 C254 1.346 . S
N251 C255 1.345 . S
C252 C253 1.387 . S
C252 C256 1.391 . S
C253 C252 1.387 . S
C253 C254 1.369 . S
C253 H262 0.929 . S
C254 N251 1.346 . S
C254 C253 1.369 . S
C254 H257 0.928 . S
C255 N251 1.345 . S
C255 C256 1.371 . S
C255 H258 0.931 . S
C256 C252 1.391 . S
C256 C255 1.371 . S
C256 H263 0.930 1_545 S
H257 C254 0.928 . S
H258 C255 0.931 . S
H259 C235 0.930 . S
H260 C232 0.930 . S
H261 C241 0.930 . S
H262 C253 0.929 . S
H263 C256 0.930 1_565 S
H264 C282 0.951 . S
H265 C284 0.951 . S
H266 C286 0.950 . S
H267 C287 0.950 . S
H268 C289 0.950 . S
H269 C292 0.950 . S
H270 C293 0.950 . S
H271 C295 0.950 . S
H272 C296 0.950 . S
H273 C297 0.951 . S
H274 C299 0.951 . S
H275 C301 0.950 . S
H276 C302 0.950 . S
H277 C304 0.950 . S
H278 C307 0.950 . S
H279 C308 0.950 . S
H280 C310 0.950 . S
H281 C311 0.950 . S
C282 H264 0.951 . S
C282 C283 1.366 . S
C282 C284 1.388 . S
C283 C282 1.366 . S
C283 C287 1.385 1_556 S
C284 H265 0.951 . S
C284 C282 1.388 . S
C284 C285 1.366 . S
C285 C284 1.366 . S
C285 C286 1.414 1_556 S
C285 C288 1.499 . S
C286 H266 0.950 . S
C286 C285 1.414 1_554 S
C286 C287 1.374 . S
C287 H267 0.950 . S
C287 C283 1.385 1_554 S
C287 C286 1.374 . S
C288 C285 1.499 . S
C288 C289 1.373 1_556 S
C288 C290 1.389 . S
C289 H268 0.950 . S
C289 C288 1.373 1_554 S
C289 C305 1.377 1_565 S
C290 C288 1.389 . S
C290 C291 1.524 . S
C290 C304 1.377 1_565 S
C291 C290 1.524 . S
C291 C292 1.397 . S
C291 C296 1.363 . S
C292 H269 0.950 . S
C292 C291 1.397 . S
C292 C293 1.334 . S
C293 H270 0.950 . S
C293 C292 1.334 . S
C293 C294 1.287 . S
C294 C293 1.287 . S
C294 C295 1.524 . S
C294 H313 0.913 . S
C295 H271 0.950 . S
C295 C294 1.524 . S
C295 C296 1.415 . S
C296 H272 0.950 . S
C296 C291 1.363 . S
C296 C295 1.415 . S
C297 H273 0.951 . S
C297 C298 1.366 1_554 S
C297 C299 1.388 . S
C298 C297 1.366 1_556 S
C298 C302 1.385 . S
C299 H274 0.951 . S
C299 C297 1.388 . S
C299 C300 1.366 1_554 S
C300 C299 1.366 1_556 S
C300 C301 1.414 . S
C300 C303 1.499 . S
C301 H275 0.950 . S
C301 C300 1.414 . S
C301 C302 1.374 . S
C302 H276 0.950 . S
C302 C298 1.385 . S
C302 C301 1.374 . S
C303 C300 1.499 . S
C303 C304 1.373 . S
C303 C305 1.389 1_556 S
C304 H277 0.950 . S
C304 C290 1.377 1_545 S
C304 C303 1.373 . S
C305 C289 1.377 1_545 S
C305 C303 1.389 1_554 S
C305 C306 1.524 . S
C306 C305 1.524 . S
C306 C307 1.397 . S
C306 C311 1.363 . S
C307 H278 0.950 . S
C307 C306 1.397 . S
C307 C308 1.334 . S
C308 H279 0.950 . S
C308 C307 1.334 . S
C308 C309 1.287 . S
C309 C308 1.287 . S
C309 C310 1.524 . S
C309 H312 0.999 . S
C310 H280 0.950 . S
C310 C309 1.524 . S
C310 C311 1.415 . S
C311 H281 0.950 . S
C311 C306 1.363 . S
C311 C310 1.415 . S
H312 C309 0.999 . S
H313 C294 0.913 . S
H314 C332 0.951 . S
H315 C334 0.951 . S
H316 C336 0.950 . S
H317 C337 0.950 . S
H318 C339 0.950 . S
H319 C342 0.950 . S
H320 C343 0.950 . S
H321 C345 0.950 . S
H322 C346 0.950 . S
H323 C347 0.951 . S
H324 C349 0.951 . S
H325 C351 0.950 . S
H326 C352 0.950 . S
H327 C354 0.950 . S
H328 C357 0.950 . S
H329 C358 0.950 . S
H330 C360 0.950 . S
H331 C361 0.950 . S
C332 H314 0.951 . S
C332 C333 1.366 . S
C332 C334 1.388 . S
C333 C332 1.366 . S
C333 C337 1.385 1_556 S
C334 H315 0.951 . S
C334 C332 1.388 . S
C334 C335 1.366 . S
C335 C334 1.366 . S
C335 C336 1.414 1_556 S
C335 C338 1.499 . S
C336 H316 0.950 . S
C336 C335 1.414 1_554 S
C336 C337 1.374 . S
C337 H317 0.950 . S
C337 C333 1.385 1_554 S
C337 C336 1.374 . S
C338 C335 1.499 . S
C338 C339 1.373 1_556 S
C338 C340 1.389 . S
C339 H318 0.950 . S
C339 C338 1.373 1_554 S
C339 C355 1.377 1_655 S
C340 C338 1.389 . S
C340 C341 1.524 . S
C340 C354 1.377 1_655 S
C341 C340 1.524 . S
C341 C342 1.397 . S
C341 C346 1.363 . S
C342 H319 0.950 . S
C342 C341 1.397 . S
C342 C343 1.334 . S
C343 H320 0.950 . S
C343 C342 1.334 . S
C343 C344 1.287 . S
C344 C343 1.287 . S
C344 C345 1.524 . S
C344 H363 0.913 . S
C345 H321 0.950 . S
C345 C344 1.524 . S
C345 C346 1.415 . S
C346 H322 0.950 . S
C346 C341 1.363 . S
C346 C345 1.415 . S
C347 H323 0.951 . S
C347 C348 1.366 1_554 S
C347 C349 1.388 . S
C348 C347 1.366 1_556 S
C348 C352 1.385 . S
C349 H324 0.951 . S
C349 C347 1.388 . S
C349 C350 1.366 1_554 S
C350 C349 1.366 1_556 S
C350 C351 1.414 . S
C350 C353 1.499 . S
C351 H325 0.950 . S
C351 C350 1.414 . S
C351 C352 1.374 . S
C352 H326 0.950 . S
C352 C348 1.385 . S
C352 C351 1.374 . S
C353 C350 1.499 . S
C353 C354 1.373 . S
C353 C355 1.389 1_556 S
C354 H327 0.950 . S
C354 C340 1.377 1_455 S
C354 C353 1.373 . S
C355 C339 1.377 1_455 S
C355 C353 1.389 1_554 S
C355 C356 1.524 . S
C356 C355 1.524 . S
C356 C357 1.397 . S
C356 C361 1.363 . S
C357 H328 0.950 . S
C357 C356 1.397 . S
C357 C358 1.334 . S
C358 H329 0.950 . S
C358 C357 1.334 . S
C358 C359 1.287 . S
C359 C358 1.287 . S
C359 C360 1.524 . S
C359 H362 0.999 . S
C360 H330 0.950 . S
C360 C359 1.524 . S
C360 C361 1.415 . S
C361 H331 0.950 . S
C361 C356 1.363 . S
C361 C360 1.415 . S
H362 C359 0.999 . S
H363 C344 0.913 . S
H364 C382 0.951 . S
H365 C384 0.951 . S
H366 C386 0.950 . S
H367 C387 0.950 . S
H368 C389 0.950 . S
H369 C392 0.950 . S
H370 C393 0.950 . S
H371 C395 0.950 . S
H372 C396 0.950 . S
H373 C397 0.951 . S
H374 C399 0.951 . S
H375 C401 0.950 . S
H376 C402 0.950 . S
H377 C404 0.950 . S
H378 C407 0.950 . S
H379 C408 0.950 . S
H380 C410 0.950 . S
H381 C411 0.950 . S
C382 H364 0.951 . S
C382 C383 1.366 . S
C382 C384 1.388 . S
C383 C382 1.366 . S
C383 C387 1.385 . S
C384 H365 0.951 . S
C384 C382 1.388 . S
C384 C385 1.366 . S
C385 C384 1.366 . S
C385 C386 1.414 . S
C385 C388 1.499 . S
C386 H366 0.950 . S
C386 C385 1.414 . S
C386 C387 1.374 . S
C387 H367 0.950 . S
C387 C383 1.385 . S
C387 C386 1.374 . S
C388 C385 1.499 . S
C388 C389 1.373 . S
C388 C390 1.389 1_655 S
C389 H368 0.950 . S
C389 C388 1.373 . S
C389 C405 1.377 . S
C390 C388 1.389 1_455 S
C390 C391 1.524 . S
C390 C404 1.377 . S
C391 C390 1.524 . S
C391 C392 1.397 . S
C391 C396 1.363 . S
C392 H369 0.950 . S
C392 C391 1.397 . S
C392 C393 1.334 . S
C393 H370 0.950 . S
C393 C392 1.334 . S
C393 C394 1.287 . S
C394 C393 1.287 . S
C394 C395 1.524 . S
C394 H413 0.913 . S
C395 H371 0.950 . S
C395 C394 1.524 . S
C395 C396 1.415 . S
C396 H372 0.950 . S
C396 C391 1.363 . S
C396 C395 1.415 . S
C397 H373 0.951 . S
C397 C398 1.366 . S
C397 C399 1.388 . S
C398 C397 1.366 . S
C398 C402 1.385 . S
C399 H374 0.951 . S
C399 C397 1.388 . S
C399 C400 1.366 . S
C400 C399 1.366 . S
C400 C401 1.414 . S
C400 C403 1.499 . S
C401 H375 0.950 . S
C401 C400 1.414 . S
C401 C402 1.374 . S
C402 H376 0.950 . S
C402 C398 1.385 . S
C402 C401 1.374 . S
C403 C400 1.499 . S
C403 C404 1.373 . S
C403 C405 1.389 1_455 S
C404 H377 0.950 . S
C404 C390 1.377 . S
C404 C403 1.373 . S
C405 C389 1.377 . S
C405 C403 1.389 1_655 S
C405 C406 1.524 . S
C406 C405 1.524 . S
C406 C407 1.397 . S
C406 C411 1.363 . S
C407 H378 0.950 . S
C407 C406 1.397 . S
C407 C408 1.334 . S
C408 H379 0.950 . S
C408 C407 1.334 . S
C408 C409 1.287 . S
C409 C408 1.287 . S
C409 C410 1.524 . S
C409 H412 0.999 . S
C410 H380 0.950 . S
C410 C409 1.524 . S
C410 C411 1.415 . S
C411 H381 0.950 . S
C411 C406 1.363 . S
C411 C410 1.415 . S
H412 C409 0.999 . S
H413 C394 0.913 . S
H414 C432 0.951 . S
H415 C434 0.951 1_545 S
H416 C436 0.950 . S
H417 C437 0.950 . S
H418 C439 0.950 . S
H419 C442 0.950 . S
H420 C443 0.950 . S
H421 C445 0.950 . S
H422 C446 0.950 . S
H423 C447 0.951 . S
H424 C449 0.951 1_565 S
H425 C451 0.950 . S
H426 C452 0.950 . S
H427 C454 0.950 . S
H428 C457 0.950 . S
H429 C458 0.950 . S
H430 C460 0.950 . S
H431 C461 0.950 . S
C432 H414 0.951 . S
C432 C433 1.366 . S
C432 C434 1.388 . S
C433 C432 1.366 . S
C433 C437 1.385 . S
C434 H415 0.951 1_565 S
C434 C432 1.388 . S
C434 C435 1.366 . S
C435 C434 1.366 . S
C435 C436 1.414 . S
C435 C438 1.499 . S
C436 H416 0.950 . S
C436 C435 1.414 . S
C436 C437 1.374 . S
C437 H417 0.950 . S
C437 C433 1.385 . S
C437 C436 1.374 . S
C438 C435 1.499 . S
C438 C439 1.373 . S
C438 C440 1.389 1_565 S
C439 H418 0.950 . S
C439 C438 1.373 . S
C439 C455 1.377 . S
C440 C438 1.389 1_545 S
C440 C441 1.524 . S
C440 C454 1.377 . S
C441 C440 1.524 . S
C441 C442 1.397 . S
C441 C446 1.363 . S
C442 H419 0.950 . S
C442 C441 1.397 . S
C442 C443 1.334 . S
C443 H420 0.950 . S
C443 C442 1.334 . S
C443 C444 1.287 . S
C444 C443 1.287 . S
C444 C445 1.524 . S
C444 H463 0.913 . S
C445 H421 0.950 . S
C445 C444 1.524 . S
C445 C446 1.415 . S
C446 H422 0.950 . S
C446 C441 1.363 . S
C446 C445 1.415 . S
C447 H423 0.951 . S
C447 C448 1.366 . S
C447 C449 1.388 . S
C448 C447 1.366 . S
C448 C452 1.385 . S
C449 H424 0.951 1_545 S
C449 C447 1.388 . S
C449 C450 1.366 . S
C450 C449 1.366 . S
C450 C451 1.414 . S
C450 C453 1.499 . S
C451 H425 0.950 . S
C451 C450 1.414 . S
C451 C452 1.374 . S
C452 H426 0.950 . S
C452 C448 1.385 . S
C452 C451 1.374 . S
C453 C450 1.499 . S
C453 C454 1.373 . S
C453 C455 1.389 1_545 S
C454 H427 0.950 . S
C454 C440 1.377 . S
C454 C453 1.373 . S
C455 C439 1.377 . S
C455 C453 1.389 1_565 S
C455 C456 1.524 . S
C456 C455 1.524 . S
C456 C457 1.397 . S
C456 C461 1.363 . S
C457 H428 0.950 . S
C457 C456 1.397 . S
C457 C458 1.334 . S
C458 H429 0.950 . S
C458 C457 1.334 . S
C458 C459 1.287 . S
C459 C458 1.287 . S
C459 C460 1.524 . S
C459 H462 0.999 . S
C460 H430 0.950 . S
C460 C459 1.524 . S
C460 C461 1.415 . S
C461 H431 0.950 . S
C461 C456 1.363 . S
C461 C460 1.415 . S
H462 C459 0.999 . S
H463 C444 0.913 . S
H464 C482 0.951 . S
H465 C484 0.951 . S
H466 C486 0.950 . S
H467 C487 0.950 . S
H468 C489 0.950 . S
H469 C492 0.950 . S
H470 C493 0.950 . S
H471 C495 0.950 . S
H472 C496 0.950 . S
H473 C497 0.951 . S
H474 C499 0.951 . S
H475 C501 0.950 . S
H476 C502 0.950 . S
H477 C504 0.950 . S
H478 C507 0.950 . S
H479 C508 0.950 . S
H480 C510 0.950 . S
H481 C511 0.950 . S
C482 H464 0.951 . S
C482 C483 1.366 1_556 S
C482 C484 1.388 . S
C483 C482 1.366 1_554 S
C483 C487 1.385 . S
C484 H465 0.951 . S
C484 C482 1.388 . S
C484 C485 1.366 1_556 S
C485 C484 1.366 1_554 S
C485 C486 1.414 . S
C485 C488 1.499 . S
C486 H466 0.950 . S
C486 C485 1.414 . S
C486 C487 1.374 . S
C487 H467 0.950 . S
C487 C483 1.385 . S
C487 C486 1.374 . S
C488 C485 1.499 . S
C488 C489 1.373 . S
C488 C490 1.389 1_554 S
C489 H468 0.950 . S
C489 C488 1.373 . S
C489 C505 1.377 . S
C490 C488 1.389 1_556 S
C490 C491 1.524 . S
C490 C504 1.377 . S
C491 C490 1.524 . S
C491 C492 1.397 . S
C491 C496 1.363 . S
C492 H469 0.950 . S
C492 C491 1.397 . S
C492 C493 1.334 . S
C493 H470 0.950 . S
C493 C492 1.334 . S
C493 C494 1.287 . S
C494 C493 1.287 . S
C494 C495 1.524 . S
C494 H513 0.913 . S
C495 H471 0.950 . S
C495 C494 1.524 . S
C495 C496 1.415 . S
C496 H472 0.950 . S
C496 C491 1.363 . S
C496 C495 1.415 . S
C497 H473 0.951 . S
C497 C498 1.366 . S
C497 C499 1.388 . S
C498 C497 1.366 . S
C498 C502 1.385 1_554 S
C499 H474 0.951 . S
C499 C497 1.388 . S
C499 C500 1.366 . S
C500 C499 1.366 . S
C500 C501 1.414 1_554 S
C500 C503 1.499 . S
C501 H475 0.950 . S
C501 C500 1.414 1_556 S
C501 C502 1.374 . S
C502 H476 0.950 . S
C502 C498 1.385 1_556 S
C502 C501 1.374 . S
C503 C500 1.499 . S
C503 C504 1.373 1_554 S
C503 C505 1.389 . S
C504 H477 0.950 . S
C504 C490 1.377 . S
C504 C503 1.373 1_556 S
C505 C489 1.377 . S
C505 C503 1.389 . S
C505 C506 1.524 . S
C506 C505 1.524 . S
C506 C507 1.397 . S
C506 C511 1.363 . S
C507 H478 0.950 . S
C507 C506 1.397 . S
C507 C508 1.334 . S
C508 H479 0.950 . S
C508 C507 1.334 . S
C508 C509 1.287 . S
C509 C508 1.287 . S
C509 C510 1.524 . S
C509 H512 0.999 . S
C510 H480 0.950 . S
C510 C509 1.524 . S
C510 C511 1.415 . S
C511 H481 0.950 . S
C511 C506 1.363 . S
C511 C510 1.415 . S
H512 C509 0.999 . S
H513 C494 0.913 . S
H514 C532 0.951 . S
H515 C534 0.951 . S
H516 C536 0.950 . S
H517 C537 0.950 . S
H518 C539 0.950 . S
H519 C542 0.950 . S
H520 C543 0.950 . S
H521 C545 0.950 . S
H522 C546 0.950 . S
H523 C547 0.951 . S
H524 C549 0.951 . S
H525 C551 0.950 . S
H526 C552 0.950 . S
H527 C554 0.950 . S
H528 C557 0.950 . S
H529 C558 0.950 . S
H530 C560 0.950 . S
H531 C561 0.950 1_556 S
C532 H514 0.951 . S
C532 C533 1.366 . S
C532 C534 1.388 . S
C533 C532 1.366 . S
C533 C537 1.385 1_554 S
C534 H515 0.951 . S
C534 C532 1.388 . S
C534 C535 1.366 . S
C535 C534 1.366 . S
C535 C536 1.414 1_554 S
C535 C538 1.499 . S
C536 H516 0.950 . S
C536 C535 1.414 1_556 S
C536 C537 1.374 . S
C537 H517 0.950 . S
C537 C533 1.385 1_556 S
C537 C536 1.374 . S
C538 C535 1.499 . S
C538 C539 1.373 . S
C538 C540 1.389 . S
C539 H518 0.950 . S
C539 C538 1.373 . S
C539 C555 1.377 . S
C540 C538 1.389 . S
C540 C541 1.524 1_554 S
C540 C554 1.377 . S
C541 C540 1.524 1_556 S
C541 C542 1.397 . S
C541 C546 1.363 1_556 S
C542 H519 0.950 . S
C542 C541 1.397 . S
C542 C543 1.334 . S
C543 H520 0.950 . S
C543 C542 1.334 . S
C543 C544 1.287 . S
C544 C543 1.287 . S
C544 C545 1.524 1_556 S
C544 H563 0.913 . S
C545 H521 0.950 . S
C545 C544 1.524 1_554 S
C545 C546 1.415 . S
C546 H522 0.950 . S
C546 C541 1.363 1_554 S
C546 C545 1.415 . S
C547 H523 0.951 . S
C547 C548 1.366 1_556 S
C547 C549 1.388 . S
C548 C547 1.366 1_554 S
C548 C552 1.385 . S
C549 H524 0.951 . S
C549 C547 1.388 . S
C549 C550 1.366 1_556 S
C550 C549 1.366 1_554 S
C550 C551 1.414 . S
C550 C553 1.499 . S
C551 H525 0.950 . S
C551 C550 1.414 . S
C551 C552 1.374 . S
C552 H526 0.950 . S
C552 C548 1.385 . S
C552 C551 1.374 . S
C553 C550 1.499 . S
C553 C554 1.373 . S
C553 C555 1.389 . S
C554 H527 0.950 . S
C554 C540 1.377 . S
C554 C553 1.373 . S
C555 C539 1.377 . S
C555 C553 1.389 . S
C555 C556 1.524 . S
C556 C555 1.524 . S
C556 C557 1.397 . S
C556 C561 1.363 . S
C557 H528 0.950 . S
C557 C556 1.397 . S
C557 C558 1.334 . S
C558 H529 0.950 . S
C558 C557 1.334 . S
C558 C559 1.287 . S
C559 C558 1.287 . S
C559 C560 1.524 . S
C559 H562 0.999 . S
C560 H530 0.950 . S
C560 C559 1.524 . S
C560 C561 1.415 . S
C561 H531 0.950 1_554 S
C561 C556 1.363 . S
C561 C560 1.415 . S
H562 C559 0.999 . S
H563 C544 0.913 . S
H564 C582 0.951 . S
H565 C584 0.951 . S
H566 C586 0.950 . S
H567 C587 0.950 . S
H568 C589 0.950 . S
H569 C592 0.950 . S
H570 C593 0.950 . S
H571 C595 0.950 . S
H572 C596 0.950 . S
H573 C597 0.951 . S
H574 C599 0.951 . S
H575 C601 0.950 . S
H576 C602 0.950 . S
H577 C604 0.950 . S
H578 C607 0.950 . S
H579 C608 0.950 . S
H580 C610 0.950 . S
H581 C611 0.950 . S
C582 H564 0.951 . S
C582 C583 1.366 . S
C582 C584 1.388 . S
C583 C582 1.366 . S
C583 C587 1.385 1_554 S
C584 H565 0.951 . S
C584 C582 1.388 . S
C584 C585 1.366 . S
C585 C584 1.366 . S
C585 C586 1.414 1_554 S
C585 C588 1.499 . S
C586 H566 0.950 . S
C586 C585 1.414 1_556 S
C586 C587 1.374 . S
C587 H567 0.950 . S
C587 C583 1.385 1_556 S
C587 C586 1.374 . S
C588 C585 1.499 . S
C588 C589 1.373 1_554 S
C588 C590 1.389 . S
C589 H568 0.950 . S
C589 C588 1.373 1_556 S
C589 C605 1.377 . S
C590 C588 1.389 . S
C590 C591 1.524 . S
C590 C604 1.377 . S
C591 C590 1.524 . S
C591 C592 1.397 . S
C591 C596 1.363 . S
C592 H569 0.950 . S
C592 C591 1.397 . S
C592 C593 1.334 . S
C593 H570 0.950 . S
C593 C592 1.334 . S
C593 C594 1.287 . S
C594 C593 1.287 . S
C594 C595 1.524 . S
C594 H613 0.913 . S
C595 H571 0.950 . S
C595 C594 1.524 . S
C595 C596 1.415 . S
C596 H572 0.950 . S
C596 C591 1.363 . S
C596 C595 1.415 . S
C597 H573 0.951 . S
C597 C598 1.366 1_556 S
C597 C599 1.388 . S
C598 C597 1.366 1_554 S
C598 C602 1.385 . S
C599 H574 0.951 . S
C599 C597 1.388 . S
C599 C600 1.366 1_556 S
C600 C599 1.366 1_554 S
C600 C601 1.414 . S
C600 C603 1.499 . S
C601 H575 0.950 . S
C601 C600 1.414 . S
C601 C602 1.374 . S
C602 H576 0.950 . S
C602 C598 1.385 . S
C602 C601 1.374 . S
C603 C600 1.499 . S
C603 C604 1.373 . S
C603 C605 1.389 1_554 S
C604 H577 0.950 . S
C604 C590 1.377 . S
C604 C603 1.373 . S
C605 C589 1.377 . S
C605 C603 1.389 1_556 S
C605 C606 1.524 . S
C606 C605 1.524 . S
C606 C607 1.397 . S
C606 C611 1.363 . S
C607 H578 0.950 . S
C607 C606 1.397 . S
C607 C608 1.334 . S
C608 H579 0.950 . S
C608 C607 1.334 . S
C608 C609 1.287 . S
C609 C608 1.287 . S
C609 C610 1.524 . S
C609 H612 0.999 . S
C610 H580 0.950 . S
C610 C609 1.524 . S
C610 C611 1.415 . S
C611 H581 0.950 . S
C611 C606 1.363 . S
C611 C610 1.415 . S
H612 C609 0.999 . S
H613 C594 0.913 . S
H614 C632 0.951 . S
H615 C634 0.951 . S
H616 C636 0.950 . S
H617 C637 0.950 . S
H618 C639 0.950 . S
H619 C642 0.950 . S
H620 C643 0.950 . S
H621 C645 0.950 . S
H622 C646 0.950 . S
H623 C647 0.951 . S
H624 C649 0.951 . S
H625 C651 0.950 . S
H626 C652 0.950 . S
H627 C654 0.950 . S
H628 C657 0.950 . S
H629 C658 0.950 . S
H630 C660 0.950 . S
H631 C661 0.950 . S
C632 H614 0.951 . S
C632 C633 1.366 . S
C632 C634 1.388 . S
C633 C632 1.366 . S
C633 C637 1.385 . S
C634 H615 0.951 . S
C634 C632 1.388 . S
C634 C635 1.366 . S
C635 C634 1.366 . S
C635 C636 1.414 . S
C635 C638 1.499 . S
C636 H616 0.950 . S
C636 C635 1.414 . S
C636 C637 1.374 . S
C637 H617 0.950 . S
C637 C633 1.385 . S
C637 C636 1.374 . S
C638 C635 1.499 . S
C638 C639 1.373 . S
C638 C640 1.389 1_554 S
C639 H618 0.950 . S
C639 C638 1.373 . S
C639 C655 1.377 . S
C640 C638 1.389 1_556 S
C640 C641 1.524 . S
C640 C654 1.377 . S
C641 C640 1.524 . S
C641 C642 1.397 . S
C641 C646 1.363 . S
C642 H619 0.950 . S
C642 C641 1.397 . S
C642 C643 1.334 . S
C643 H620 0.950 . S
C643 C642 1.334 . S
C643 C644 1.287 . S
C644 C643 1.287 . S
C644 C645 1.524 . S
C644 H663 0.913 . S
C645 H621 0.950 . S
C645 C644 1.524 . S
C645 C646 1.415 . S
C646 H622 0.950 . S
C646 C641 1.363 . S
C646 C645 1.415 . S
C647 H623 0.951 . S
C647 C648 1.366 . S
C647 C649 1.388 . S
C648 C647 1.366 . S
C648 C652 1.385 . S
C649 H624 0.951 . S
C649 C647 1.388 . S
C649 C650 1.366 . S
C650 C649 1.366 . S
C650 C651 1.414 . S
C650 C653 1.499 . S
C651 H625 0.950 . S
C651 C650 1.414 . S
C651 C652 1.374 . S
C652 H626 0.950 . S
C652 C648 1.385 . S
C652 C651 1.374 . S
C653 C650 1.499 . S
C653 C654 1.373 1_554 S
C653 C655 1.389 . S
C654 H627 0.950 . S
C654 C640 1.377 . S
C654 C653 1.373 1_556 S
C655 C639 1.377 . S
C655 C653 1.389 . S
C655 C656 1.524 . S
C656 C655 1.524 . S
C656 C657 1.397 . S
C656 C661 1.363 . S
C657 H628 0.950 . S
C657 C656 1.397 . S
C657 C658 1.334 . S
C658 H629 0.950 . S
C658 C657 1.334 . S
C658 C659 1.287 . S
C659 C658 1.287 . S
C659 C660 1.524 . S
C659 H662 0.999 . S
C660 H630 0.950 . S
C660 C659 1.524 . S
C660 C661 1.415 . S
C661 H631 0.950 . S
C661 C656 1.363 . S
C661 C660 1.415 . S
H662 C659 0.999 . S
H663 C644 0.913 . S
H664 C682 0.951 . S
H665 C684 0.951 . S
H666 C686 0.950 . S
H667 C687 0.950 . S
H668 C689 0.950 . S
H669 C692 0.950 . S
H670 C693 0.950 . S
H671 C695 0.950 . S
H672 C696 0.950 . S
H673 C697 0.951 . S
H674 C699 0.951 . S
H675 C701 0.950 . S
H676 C702 0.950 . S
H677 C704 0.950 . S
H678 C707 0.950 . S
H679 C708 0.950 . S
H680 C710 0.950 . S
H681 C711 0.950 . S
C682 H664 0.951 . S
C682 C683 1.366 . S
C682 C684 1.388 . S
C683 C682 1.366 . S
C683 C687 1.385 . S
C684 H665 0.951 . S
C684 C682 1.388 . S
C684 C685 1.366 . S
C685 C684 1.366 . S
C685 C686 1.414 . S
C685 C688 1.499 . S
C686 H666 0.950 . S
C686 C685 1.414 . S
C686 C687 1.374 . S
C687 H667 0.950 . S
C687 C683 1.385 . S
C687 C686 1.374 . S
C688 C685 1.499 . S
C688 C689 1.373 . S
C688 C690 1.389 . S
C689 H668 0.950 . S
C689 C688 1.373 . S
C689 C705 1.377 . S
C690 C688 1.389 . S
C690 C691 1.524 . S
C690 C704 1.377 . S
C691 C690 1.524 . S
C691 C692 1.397 . S
C691 C696 1.363 . S
C692 H669 0.950 . S
C692 C691 1.397 . S
C692 C693 1.334 . S
C693 H670 0.950 . S
C693 C692 1.334 . S
C693 C694 1.287 . S
C694 C693 1.287 . S
C694 C695 1.524 . S
C694 H713 0.913 . S
C695 H671 0.950 . S
C695 C694 1.524 . S
C695 C696 1.415 . S
C696 H672 0.950 . S
C696 C691 1.363 . S
C696 C695 1.415 . S
C697 H673 0.951 . S
C697 C698 1.366 . S
C697 C699 1.388 . S
C698 C697 1.366 . S
C698 C702 1.385 . S
C699 H674 0.951 . S
C699 C697 1.388 . S
C699 C700 1.366 . S
C700 C699 1.366 . S
C700 C701 1.414 . S
C700 C703 1.499 . S
C701 H675 0.950 . S
C701 C700 1.414 . S
C701 C702 1.374 . S
C702 H676 0.950 . S
C702 C698 1.385 . S
C702 C701 1.374 . S
C703 C700 1.499 . S
C703 C704 1.373 . S
C703 C705 1.389 . S
C704 H677 0.950 . S
C704 C690 1.377 . S
C704 C703 1.373 . S
C705 C689 1.377 . S
C705 C703 1.389 . S
C705 C706 1.524 . S
C706 C705 1.524 . S
C706 C707 1.397 . S
C706 C711 1.363 . S
C707 H678 0.950 . S
C707 C706 1.397 . S
C707 C708 1.334 . S
C708 H679 0.950 . S
C708 C707 1.334 . S
C708 C709 1.287 . S
C709 C708 1.287 . S
C709 C710 1.524 . S
C709 H712 0.999 . S
C710 H680 0.950 . S
C710 C709 1.524 . S
C710 C711 1.415 . S
C711 H681 0.950 . S
C711 C706 1.363 . S
C711 C710 1.415 . S
H712 C709 0.999 . S
H713 C694 0.913 . S
H714 C732 0.951 . S
H715 C734 0.951 . S
H716 C736 0.950 . S
H717 C737 0.950 . S
H718 C739 0.950 . S
H719 C742 0.950 . S
H720 C743 0.950 . S
H721 C745 0.950 . S
H722 C746 0.950 . S
H723 C747 0.951 . S
H724 C749 0.951 . S
H725 C751 0.950 . S
H726 C752 0.950 . S
H727 C754 0.950 . S
H728 C757 0.950 . S
H729 C758 0.950 . S
H730 C760 0.950 . S
H731 C761 0.950 . S
C732 H714 0.951 . S
C732 C733 1.366 . S
C732 C734 1.388 . S
C733 C732 1.366 . S
C733 C737 1.385 . S
C734 H715 0.951 . S
C734 C732 1.388 . S
C734 C735 1.366 . S
C735 C734 1.366 . S
C735 C736 1.414 . S
C735 C738 1.499 . S
C736 H716 0.950 . S
C736 C735 1.414 . S
C736 C737 1.374 . S
C737 H717 0.950 . S
C737 C733 1.385 . S
C737 C736 1.374 . S
C738 C735 1.499 . S
C738 C739 1.373 . S
C738 C740 1.389 . S
C739 H718 0.950 . S
C739 C738 1.373 . S
C739 C755 1.377 . S
C740 C738 1.389 . S
C740 C741 1.524 . S
C740 C754 1.377 . S
C741 C740 1.524 . S
C741 C742 1.397 . S
C741 C746 1.363 . S
C742 H719 0.950 . S
C742 C741 1.397 . S
C742 C743 1.334 . S
C743 H720 0.950 . S
C743 C742 1.334 . S
C743 C744 1.287 . S
C744 C743 1.287 . S
C744 C745 1.524 . S
C744 H763 0.913 . S
C745 H721 0.950 . S
C745 C744 1.524 . S
C745 C746 1.415 . S
C746 H722 0.950 . S
C746 C741 1.363 . S
C746 C745 1.415 . S
C747 H723 0.951 . S
C747 C748 1.366 . S
C747 C749 1.388 . S
C748 C747 1.366 . S
C748 C752 1.385 . S
C749 H724 0.951 . S
C749 C747 1.388 . S
C749 C750 1.366 . S
C750 C749 1.366 . S
C750 C751 1.414 . S
C750 C753 1.499 . S
C751 H725 0.950 . S
C751 C750 1.414 . S
C751 C752 1.374 . S
C752 H726 0.950 . S
C752 C748 1.385 . S
C752 C751 1.374 . S
C753 C750 1.499 . S
C753 C754 1.373 . S
C753 C755 1.389 . S
C754 H727 0.950 . S
C754 C740 1.377 . S
C754 C753 1.373 . S
C755 C739 1.377 . S
C755 C753 1.389 . S
C755 C756 1.524 . S
C756 C755 1.524 . S
C756 C757 1.397 . S
C756 C761 1.363 . S
C757 H728 0.950 . S
C757 C756 1.397 . S
C757 C758 1.334 . S
C758 H729 0.950 . S
C758 C757 1.334 . S
C758 C759 1.287 . S
C759 C758 1.287 . S
C759 C760 1.524 . S
C759 H762 0.999 . S
C760 H730 0.950 . S
C760 C759 1.524 . S
C760 C761 1.415 . S
C761 H731 0.950 . S
C761 C756 1.363 . S
C761 C760 1.415 . S
H762 C759 0.999 . S
H763 C744 0.913 . S
H764 C782 0.951 . S
H765 C784 0.951 . S
H766 C786 0.950 . S
H767 C787 0.950 . S
H768 C789 0.950 . S
H769 C792 0.950 . S
H770 C793 0.950 . S
H771 C795 0.950 . S
H772 C796 0.950 . S
H773 C797 0.951 . S
H774 C799 0.951 . S
H775 C801 0.950 . S
H776 C802 0.950 . S
H777 C804 0.950 . S
H778 C807 0.950 . S
H779 C808 0.950 . S
H780 C810 0.950 . S
H781 C811 0.950 . S
C782 H764 0.951 . S
C782 C783 1.366 . S
C782 C784 1.388 . S
C783 C782 1.366 . S
C783 C787 1.385 . S
C784 H765 0.951 . S
C784 C782 1.388 . S
C784 C785 1.366 . S
C785 C784 1.366 . S
C785 C786 1.414 . S
C785 C788 1.499 . S
C786 H766 0.950 . S
C786 C785 1.414 . S
C786 C787 1.374 . S
C787 H767 0.950 . S
C787 C783 1.385 . S
C787 C786 1.374 . S
C788 C785 1.499 . S
C788 C789 1.373 . S
C788 C790 1.389 . S
C789 H768 0.950 . S
C789 C788 1.373 . S
C789 C805 1.377 . S
C790 C788 1.389 . S
C790 C791 1.524 . S
C790 C804 1.377 . S
C791 C790 1.524 . S
C791 C792 1.397 . S
C791 C796 1.363 . S
C792 H769 0.950 . S
C792 C791 1.397 . S
C792 C793 1.334 . S
C793 H770 0.950 . S
C793 C792 1.334 . S
C793 C794 1.287 . S
C794 C793 1.287 . S
C794 C795 1.524 . S
C794 H813 0.913 . S
C795 H771 0.950 . S
C795 C794 1.524 . S
C795 C796 1.415 . S
C796 H772 0.950 . S
C796 C791 1.363 . S
C796 C795 1.415 . S
C797 H773 0.951 . S
C797 C798 1.366 . S
C797 C799 1.388 . S
C798 C797 1.366 . S
C798 C802 1.385 . S
C799 H774 0.951 . S
C799 C797 1.388 . S
C799 C800 1.366 . S
C800 C799 1.366 . S
C800 C801 1.414 . S
C800 C803 1.499 . S
C801 H775 0.950 . S
C801 C800 1.414 . S
C801 C802 1.374 . S
C802 H776 0.950 . S
C802 C798 1.385 . S
C802 C801 1.374 . S
C803 C800 1.499 . S
C803 C804 1.373 . S
C803 C805 1.389 . S
C804 H777 0.950 . S
C804 C790 1.377 . S
C804 C803 1.373 . S
C805 C789 1.377 . S
C805 C803 1.389 . S
C805 C806 1.524 . S
C806 C805 1.524 . S
C806 C807 1.397 . S
C806 C811 1.363 . S
C807 H778 0.950 . S
C807 C806 1.397 . S
C807 C808 1.334 . S
C808 H779 0.950 . S
C808 C807 1.334 . S
C808 C809 1.287 . S
C809 C808 1.287 . S
C809 C810 1.524 . S
C809 H812 0.999 . S
C810 H780 0.950 . S
C810 C809 1.524 . S
C810 C811 1.415 . S
C811 H781 0.950 . S
C811 C806 1.363 . S
C811 C810 1.415 . S
H812 C809 0.999 . S
H813 C794 0.913 . S
H814 C832 0.951 . S
H815 C834 0.951 . S
H816 C836 0.950 . S
H817 C837 0.950 . S
H818 C839 0.950 . S
H819 C842 0.950 . S
H820 C843 0.950 . S
H821 C845 0.950 . S
H822 C846 0.950 . S
H823 C847 0.951 . S
H824 C849 0.951 . S
H825 C851 0.950 . S
H826 C852 0.950 . S
H827 C854 0.950 . S
H828 C857 0.950 . S
H829 C858 0.950 . S
H830 C860 0.950 . S
H831 C861 0.950 . S
C832 H814 0.951 . S
C832 C833 1.366 . S
C832 C834 1.388 . S
C833 C832 1.366 . S
C833 C837 1.385 . S
C834 H815 0.951 . S
C834 C832 1.388 . S
C834 C835 1.366 . S
C835 C834 1.366 . S
C835 C836 1.414 . S
C835 C838 1.499 . S
C836 H816 0.950 . S
C836 C835 1.414 . S
C836 C837 1.374 . S
C837 H817 0.950 . S
C837 C833 1.385 . S
C837 C836 1.374 . S
C838 C835 1.499 . S
C838 C839 1.373 . S
C838 C840 1.389 . S
C839 H818 0.950 . S
C839 C838 1.373 . S
C839 C855 1.377 . S
C840 C838 1.389 . S
C840 C841 1.524 . S
C840 C854 1.377 . S
C841 C840 1.524 . S
C841 C842 1.397 . S
C841 C846 1.363 . S
C842 H819 0.950 . S
C842 C841 1.397 . S
C842 C843 1.334 . S
C843 H820 0.950 . S
C843 C842 1.334 . S
C843 C844 1.287 . S
C844 C843 1.287 . S
C844 C845 1.524 . S
C844 H863 0.913 . S
C845 H821 0.950 . S
C845 C844 1.524 . S
C845 C846 1.415 . S
C846 H822 0.950 . S
C846 C841 1.363 . S
C846 C845 1.415 . S
C847 H823 0.951 . S
C847 C848 1.366 . S
C847 C849 1.388 . S
C848 C847 1.366 . S
C848 C852 1.385 . S
C849 H824 0.951 . S
C849 C847 1.388 . S
C849 C850 1.366 . S
C850 C849 1.366 . S
C850 C851 1.414 . S
C850 C853 1.499 . S
C851 H825 0.950 . S
C851 C850 1.414 . S
C851 C852 1.374 . S
C852 H826 0.950 . S
C852 C848 1.385 . S
C852 C851 1.374 . S
C853 C850 1.499 . S
C853 C854 1.373 . S
C853 C855 1.389 . S
C854 H827 0.950 . S
C854 C840 1.377 . S
C854 C853 1.373 . S
C855 C839 1.377 . S
C855 C853 1.389 . S
C855 C856 1.524 . S
C856 C855 1.524 . S
C856 C857 1.397 . S
C856 C861 1.363 . S
C857 H828 0.950 . S
C857 C856 1.397 . S
C857 C858 1.334 . S
C858 H829 0.950 . S
C858 C857 1.334 . S
C858 C859 1.287 . S
C859 C858 1.287 . S
C859 C860 1.524 . S
C859 H862 0.999 . S
C860 H830 0.950 . S
C860 C859 1.524 . S
C860 C861 1.415 . S
C861 H831 0.950 . S
C861 C856 1.363 . S
C861 C860 1.415 . S
H862 C859 0.999 . S
H863 C844 0.913 . S
H864 C882 0.951 . S
H865 C884 0.951 . S
H866 C886 0.950 . S
H867 C887 0.950 . S
H868 C889 0.950 . S
H869 C892 0.950 . S
H870 C893 0.950 . S
H871 C895 0.950 . S
H872 C896 0.950 . S
H873 C897 0.951 . S
H874 C899 0.951 . S
H875 C901 0.950 . S
H876 C902 0.950 . S
H877 C904 0.950 . S
H878 C907 0.950 . S
H879 C908 0.950 . S
H880 C910 0.950 . S
H881 C911 0.950 . S
C882 H864 0.951 . S
C882 C883 1.366 . S
C882 C884 1.388 . S
C883 C882 1.366 . S
C883 C887 1.385 . S
C884 H865 0.951 . S
C884 C882 1.388 . S
C884 C885 1.366 . S
C885 C884 1.366 . S
C885 C886 1.414 . S
C885 C888 1.499 . S
C886 H866 0.950 . S
C886 C885 1.414 . S
C886 C887 1.374 . S
C887 H867 0.950 . S
C887 C883 1.385 . S
C887 C886 1.374 . S
C888 C885 1.499 . S
C888 C889 1.373 . S
C888 C890 1.389 . S
C889 H868 0.950 . S
C889 C888 1.373 . S
C889 C905 1.377 . S
C890 C888 1.389 . S
C890 C891 1.524 . S
C890 C904 1.377 . S
C891 C890 1.524 . S
C891 C892 1.397 . S
C891 C896 1.363 . S
C892 H869 0.950 . S
C892 C891 1.397 . S
C892 C893 1.334 . S
C893 H870 0.950 . S
C893 C892 1.334 . S
C893 C894 1.287 . S
C894 C893 1.287 . S
C894 C895 1.524 . S
C894 H913 0.913 . S
C895 H871 0.950 . S
C895 C894 1.524 . S
C895 C896 1.415 . S
C896 H872 0.950 . S
C896 C891 1.363 . S
C896 C895 1.415 . S
C897 H873 0.951 . S
C897 C898 1.366 . S
C897 C899 1.388 . S
C898 C897 1.366 . S
C898 C902 1.385 . S
C899 H874 0.951 . S
C899 C897 1.388 . S
C899 C900 1.366 . S
C900 C899 1.366 . S
C900 C901 1.414 . S
C900 C903 1.499 . S
C901 H875 0.950 . S
C901 C900 1.414 . S
C901 C902 1.374 . S
C902 H876 0.950 . S
C902 C898 1.385 . S
C902 C901 1.374 . S
C903 C900 1.499 . S
C903 C904 1.373 . S
C903 C905 1.389 . S
C904 H877 0.950 . S
C904 C890 1.377 . S
C904 C903 1.373 . S
C905 C889 1.377 . S
C905 C903 1.389 . S
C905 C906 1.524 . S
C906 C905 1.524 . S
C906 C907 1.397 . S
C906 C911 1.363 . S
C907 H878 0.950 . S
C907 C906 1.397 . S
C907 C908 1.334 . S
C908 H879 0.950 . S
C908 C907 1.334 . S
C908 C909 1.287 . S
C909 C908 1.287 . S
C909 C910 1.524 . S
C909 H912 0.999 . S
C910 H880 0.950 . S
C910 C909 1.524 . S
C910 C911 1.415 . S
C911 H881 0.950 . S
C911 C906 1.363 . S
C911 C910 1.415 . S
H912 C909 0.999 . S
H913 C894 0.913 . S
H914 C932 0.951 . S
H915 C934 0.951 . S
H916 C936 0.950 . S
H917 C937 0.950 . S
H918 C939 0.950 . S
H919 C942 0.950 . S
H920 C943 0.950 . S
H921 C945 0.950 . S
H922 C946 0.950 . S
H923 C947 0.951 . S
H924 C949 0.951 . S
H925 C951 0.950 . S
H926 C952 0.950 . S
H927 C954 0.950 . S
H928 C957 0.950 . S
H929 C958 0.950 . S
H930 C960 0.950 . S
H931 C961 0.950 . S
C932 H914 0.951 . S
C932 C933 1.366 . S
C932 C934 1.388 . S
C933 C932 1.366 . S
C933 C937 1.385 . S
C934 H915 0.951 . S
C934 C932 1.388 . S
C934 C935 1.366 . S
C935 C934 1.366 . S
C935 C936 1.414 . S
C935 C938 1.499 . S
C936 H916 0.950 . S
C936 C935 1.414 . S
C936 C937 1.374 . S
C937 H917 0.950 . S
C937 C933 1.385 . S
C937 C936 1.374 . S
C938 C935 1.499 . S
C938 C939 1.373 . S
C938 C940 1.389 . S
C939 H918 0.950 . S
C939 C938 1.373 . S
C939 C955 1.377 . S
C940 C938 1.389 . S
C940 C941 1.524 . S
C940 C954 1.377 . S
C941 C940 1.524 . S
C941 C942 1.397 . S
C941 C946 1.363 . S
C942 H919 0.950 . S
C942 C941 1.397 . S
C942 C943 1.334 . S
C943 H920 0.950 . S
C943 C942 1.334 . S
C943 C944 1.287 . S
C944 C943 1.287 . S
C944 C945 1.524 . S
C944 H963 0.913 . S
C945 H921 0.950 . S
C945 C944 1.524 . S
C945 C946 1.415 . S
C946 H922 0.950 . S
C946 C941 1.363 . S
C946 C945 1.415 . S
C947 H923 0.951 . S
C947 C948 1.366 . S
C947 C949 1.388 . S
C948 C947 1.366 . S
C948 C952 1.385 . S
C949 H924 0.951 . S
C949 C947 1.388 . S
C949 C950 1.366 . S
C950 C949 1.366 . S
C950 C951 1.414 . S
C950 C953 1.499 . S
C951 H925 0.950 . S
C951 C950 1.414 . S
C951 C952 1.374 . S
C952 H926 0.950 . S
C952 C948 1.385 . S
C952 C951 1.374 . S
C953 C950 1.499 . S
C953 C954 1.373 . S
C953 C955 1.389 . S
C954 H927 0.950 . S
C954 C940 1.377 . S
C954 C953 1.373 . S
C955 C939 1.377 . S
C955 C953 1.389 . S
C955 C956 1.524 . S
C956 C955 1.524 . S
C956 C957 1.397 . S
C956 C961 1.363 . S
C957 H928 0.950 . S
C957 C956 1.397 . S
C957 C958 1.334 . S
C958 H929 0.950 . S
C958 C957 1.334 . S
C958 C959 1.287 . S
C959 C958 1.287 . S
C959 C960 1.524 . S
C959 H962 0.999 . S
C960 H930 0.950 . S
C960 C959 1.524 . S
C960 C961 1.415 . S
C961 H931 0.950 . S
C961 C956 1.363 . S
C961 C960 1.415 . S
H962 C959 0.999 . S
H963 C944 0.913 . S
H964 C982 0.951 . S
H965 C984 0.951 . S
H966 C986 0.950 . S
H967 C987 0.950 . S
H968 C989 0.950 . S
H969 C992 0.950 . S
H970 C993 0.950 . S
H971 C995 0.950 . S
H972 C996 0.950 . S
H973 C997 0.951 . S
H974 C999 0.951 . S
H975 C1001 0.950 . S
H976 C1002 0.950 . S
H977 C1004 0.950 . S
H978 C1007 0.950 . S
H979 C1008 0.950 . S
H980 C1010 0.950 . S
H981 C1011 0.950 . S
C982 H964 0.951 . S
C982 C983 1.366 . S
C982 C984 1.388 . S
C983 C982 1.366 . S
C983 C987 1.385 . S
C984 H965 0.951 . S
C984 C982 1.388 . S
C984 C985 1.366 . S
C985 C984 1.366 . S
C985 C986 1.414 . S
C985 C988 1.499 . S
C986 H966 0.950 . S
C986 C985 1.414 . S
C986 C987 1.374 . S
C987 H967 0.950 . S
C987 C983 1.385 . S
C987 C986 1.374 . S
C988 C985 1.499 . S
C988 C989 1.373 . S
C988 C990 1.389 . S
C989 H968 0.950 . S
C989 C988 1.373 . S
C989 C1005 1.377 . S
C990 C988 1.389 . S
C990 C991 1.524 . S
C990 C1004 1.377 . S
C991 C990 1.524 . S
C991 C992 1.397 . S
C991 C996 1.363 . S
C992 H969 0.950 . S
C992 C991 1.397 . S
C992 C993 1.334 . S
C993 H970 0.950 . S
C993 C992 1.334 . S
C993 C994 1.287 . S
C994 C993 1.287 . S
C994 C995 1.524 . S
C994 H1013 0.913 . S
C995 H971 0.950 . S
C995 C994 1.524 . S
C995 C996 1.415 . S
C996 H972 0.950 . S
C996 C991 1.363 . S
C996 C995 1.415 . S
C997 H973 0.951 . S
C997 C998 1.366 . S
C997 C999 1.388 . S
C998 C997 1.366 . S
C998 C1002 1.385 . S
C999 H974 0.951 . S
C999 C997 1.388 . S
C999 C1000 1.366 . S
C1000 C999 1.366 . S
C1000 C1001 1.414 . S
C1000 C1003 1.499 . S
C1001 H975 0.950 . S
C1001 C1000 1.414 . S
C1001 C1002 1.374 . S
C1002 H976 0.950 . S
C1002 C998 1.385 . S
C1002 C1001 1.374 . S
C1003 C1000 1.499 . S
C1003 C1004 1.373 . S
C1003 C1005 1.389 . S
C1004 H977 0.950 . S
C1004 C990 1.377 . S
C1004 C1003 1.373 . S
C1005 C989 1.377 . S
C1005 C1003 1.389 . S
C1005 C1006 1.524 . S
C1006 C1005 1.524 . S
C1006 C1007 1.397 . S
C1006 C1011 1.363 . S
C1007 H978 0.950 . S
C1007 C1006 1.397 . S
C1007 C1008 1.334 . S
C1008 H979 0.950 . S
C1008 C1007 1.334 . S
C1008 C1009 1.287 . S
C1009 C1008 1.287 . S
C1009 C1010 1.524 . S
C1009 H1012 0.999 . S
C1010 H980 0.950 . S
C1010 C1009 1.524 . S
C1010 C1011 1.415 . S
C1011 H981 0.950 . S
C1011 C1006 1.363 . S
C1011 C1010 1.415 . S
H1012 C1009 0.999 . S
H1013 C994 0.913 . S
H1014 C1032 0.951 . S
H1015 C1034 0.951 . S
H1016 C1036 0.950 . S
H1017 C1037 0.950 . S
H1018 C1039 0.950 . S
H1019 C1042 0.950 . S
H1020 C1043 0.950 . S
H1021 C1045 0.950 . S
H1022 C1046 0.950 . S
H1023 C1047 0.951 . S
H1024 C1049 0.951 . S
H1025 C1051 0.950 . S
H1026 C1052 0.950 . S
H1027 C1054 0.950 . S
H1028 C1057 0.950 . S
H1029 C1058 0.950 . S
H1030 C1060 0.950 . S
H1031 C1061 0.950 . S
C1032 H1014 0.951 . S
C1032 C1033 1.366 . S
C1032 C1034 1.388 . S
C1033 C1032 1.366 . S
C1033 C1037 1.385 . S
C1034 H1015 0.951 . S
C1034 C1032 1.388 . S
C1034 C1035 1.366 . S
C1035 C1034 1.366 . S
C1035 C1036 1.414 . S
C1035 C1038 1.499 . S
C1036 H1016 0.950 . S
C1036 C1035 1.414 . S
C1036 C1037 1.374 . S
C1037 H1017 0.950 . S
C1037 C1033 1.385 . S
C1037 C1036 1.374 . S
C1038 C1035 1.499 . S
C1038 C1039 1.373 . S
C1038 C1040 1.389 . S
C1039 H1018 0.950 . S
C1039 C1038 1.373 . S
C1039 C1055 1.377 . S
C1040 C1038 1.389 . S
C1040 C1041 1.524 . S
C1040 C1054 1.377 . S
C1041 C1040 1.524 . S
C1041 C1042 1.397 . S
C1041 C1046 1.363 . S
C1042 H1019 0.950 . S
C1042 C1041 1.397 . S
C1042 C1043 1.334 . S
C1043 H1020 0.950 . S
C1043 C1042 1.334 . S
C1043 C1044 1.287 . S
C1044 C1043 1.287 . S
C1044 C1045 1.524 . S
C1044 H1063 0.913 . S
C1045 H1021 0.950 . S
C1045 C1044 1.524 . S
C1045 C1046 1.415 . S
C1046 H1022 0.950 . S
C1046 C1041 1.363 . S
C1046 C1045 1.415 . S
C1047 H1023 0.951 . S
C1047 C1048 1.366 . S
C1047 C1049 1.388 . S
C1048 C1047 1.366 . S
C1048 C1052 1.385 . S
C1049 H1024 0.951 . S
C1049 C1047 1.388 . S
C1049 C1050 1.366 . S
C1050 C1049 1.366 . S
C1050 C1051 1.414 . S
C1050 C1053 1.499 . S
C1051 H1025 0.950 . S
C1051 C1050 1.414 . S
C1051 C1052 1.374 . S
C1052 H1026 0.950 . S
C1052 C1048 1.385 . S
C1052 C1051 1.374 . S
C1053 C1050 1.499 . S
C1053 C1054 1.373 . S
C1053 C1055 1.389 . S
C1054 H1027 0.950 . S
C1054 C1040 1.377 . S
C1054 C1053 1.373 . S
C1055 C1039 1.377 . S
C1055 C1053 1.389 . S
C1055 C1056 1.524 . S
C1056 C1055 1.524 . S
C1056 C1057 1.397 . S
C1056 C1061 1.363 . S
C1057 H1028 0.950 . S
C1057 C1056 1.397 . S
C1057 C1058 1.334 . S
C1058 H1029 0.950 . S
C1058 C1057 1.334 . S
C1058 C1059 1.287 . S
C1059 C1058 1.287 . S
C1059 C1060 1.524 . S
C1059 H1062 0.999 . S
C1060 H1030 0.950 . S
C1060 C1059 1.524 . S
C1060 C1061 1.415 . S
C1061 H1031 0.950 . S
C1061 C1056 1.363 . S
C1061 C1060 1.415 . S
H1062 C1059 0.999 . S
H1063 C1044 0.913 . S
H1064 C1082 0.951 . S
H1065 C1084 0.951 . S
H1066 C1086 0.950 . S
H1067 C1087 0.950 . S
H1068 C1089 0.950 . S
H1069 C1092 0.950 . S
H1070 C1093 0.950 . S
H1071 C1095 0.950 . S
H1072 C1096 0.950 . S
H1073 C1097 0.951 . S
H1074 C1099 0.951 . S
H1075 C1101 0.950 . S
H1076 C1102 0.950 . S
H1077 C1104 0.950 . S
H1078 C1107 0.950 . S
H1079 C1108 0.950 . S
H1080 C1110 0.950 . S
H1081 C1111 0.950 . S
C1082 H1064 0.951 . S
C1082 C1083 1.366 . S
C1082 C1084 1.388 . S
C1083 C1082 1.366 . S
C1083 C1087 1.385 . S
C1084 H1065 0.951 . S
C1084 C1082 1.388 . S
C1084 C1085 1.366 . S
C1085 C1084 1.366 . S
C1085 C1086 1.414 . S
C1085 C1088 1.499 . S
C1086 H1066 0.950 . S
C1086 C1085 1.414 . S
C1086 C1087 1.374 . S
C1087 H1067 0.950 . S
C1087 C1083 1.385 . S
C1087 C1086 1.374 . S
C1088 C1085 1.499 . S
C1088 C1089 1.373 . S
C1088 C1090 1.389 . S
C1089 H1068 0.950 . S
C1089 C1088 1.373 . S
C1089 C1105 1.377 . S
C1090 C1088 1.389 . S
C1090 C1091 1.524 . S
C1090 C1104 1.377 . S
C1091 C1090 1.524 . S
C1091 C1092 1.397 . S
C1091 C1096 1.363 . S
C1092 H1069 0.950 . S
C1092 C1091 1.397 . S
C1092 C1093 1.334 . S
C1093 H1070 0.950 . S
C1093 C1092 1.334 . S
C1093 C1094 1.287 . S
C1094 C1093 1.287 . S
C1094 C1095 1.524 . S
C1094 H1113 0.913 . S
C1095 H1071 0.950 . S
C1095 C1094 1.524 . S
C1095 C1096 1.415 . S
C1096 H1072 0.950 . S
C1096 C1091 1.363 . S
C1096 C1095 1.415 . S
C1097 H1073 0.951 . S
C1097 C1098 1.366 . S
C1097 C1099 1.388 . S
C1098 C1097 1.366 . S
C1098 C1102 1.385 . S
C1099 H1074 0.951 . S
C1099 C1097 1.388 . S
C1099 C1100 1.366 . S
C1100 C1099 1.366 . S
C1100 C1101 1.414 . S
C1100 C1103 1.499 . S
C1101 H1075 0.950 . S
C1101 C1100 1.414 . S
C1101 C1102 1.374 . S
C1102 H1076 0.950 . S
C1102 C1098 1.385 . S
C1102 C1101 1.374 . S
C1103 C1100 1.499 . S
C1103 C1104 1.373 . S
C1103 C1105 1.389 . S
C1104 H1077 0.950 . S
C1104 C1090 1.377 . S
C1104 C1103 1.373 . S
C1105 C1089 1.377 . S
C1105 C1103 1.389 . S
C1105 C1106 1.524 . S
C1106 C1105 1.524 . S
C1106 C1107 1.397 . S
C1106 C1111 1.363 . S
C1107 H1078 0.950 . S
C1107 C1106 1.397 . S
C1107 C1108 1.334 . S
C1108 H1079 0.950 . S
C1108 C1107 1.334 . S
C1108 C1109 1.287 . S
C1109 C1108 1.287 . S
C1109 C1110 1.524 . S
C1109 H1112 0.999 . S
C1110 H1080 0.950 . S
C1110 C1109 1.524 . S
C1110 C1111 1.415 . S
C1111 H1081 0.950 . S
C1111 C1106 1.363 . S
C1111 C1110 1.415 . S
H1112 C1109 0.999 . S
H1113 C1094 0.913 . S
H1114 C1132 0.951 . S
H1115 C1134 0.951 . S
H1116 C1136 0.950 . S
H1117 C1137 0.950 . S
H1118 C1139 0.950 . S
H1119 C1142 0.950 . S
H1120 C1143 0.950 . S
H1121 C1145 0.950 . S
H1122 C1146 0.950 . S
H1123 C1147 0.951 . S
H1124 C1149 0.951 . S
H1125 C1151 0.950 . S
H1126 C1152 0.950 . S
H1127 C1154 0.950 . S
H1128 C1157 0.950 . S
H1129 C1158 0.950 . S
H1130 C1160 0.950 . S
H1131 C1161 0.950 . S
C1132 H1114 0.951 . S
C1132 C1133 1.366 . S
C1132 C1134 1.388 . S
C1133 C1132 1.366 . S
C1133 C1137 1.385 . S
C1134 H1115 0.951 . S
C1134 C1132 1.388 . S
C1134 C1135 1.366 . S
C1135 C1134 1.366 . S
C1135 C1136 1.414 . S
C1135 C1138 1.499 . S
C1136 H1116 0.950 . S
C1136 C1135 1.414 . S
C1136 C1137 1.374 . S
C1137 H1117 0.950 . S
C1137 C1133 1.385 . S
C1137 C1136 1.374 . S
C1138 C1135 1.499 . S
C1138 C1139 1.373 . S
C1138 C1140 1.389 . S
C1139 H1118 0.950 . S
C1139 C1138 1.373 . S
C1139 C1155 1.377 . S
C1140 C1138 1.389 . S
C1140 C1141 1.524 . S
C1140 C1154 1.377 . S
C1141 C1140 1.524 . S
C1141 C1142 1.397 . S
C1141 C1146 1.363 . S
C1142 H1119 0.950 . S
C1142 C1141 1.397 . S
C1142 C1143 1.334 . S
C1143 H1120 0.950 . S
C1143 C1142 1.334 . S
C1143 C1144 1.287 . S
C1144 C1143 1.287 . S
C1144 C1145 1.524 . S
C1144 H1163 0.913 . S
C1145 H1121 0.950 . S
C1145 C1144 1.524 . S
C1145 C1146 1.415 . S
C1146 H1122 0.950 . S
C1146 C1141 1.363 . S
C1146 C1145 1.415 . S
C1147 H1123 0.951 . S
C1147 C1148 1.366 . S
C1147 C1149 1.388 . S
C1148 C1147 1.366 . S
C1148 C1152 1.385 . S
C1149 H1124 0.951 . S
C1149 C1147 1.388 . S
C1149 C1150 1.366 . S
C1150 C1149 1.366 . S
C1150 C1151 1.414 . S
C1150 C1153 1.499 . S
C1151 H1125 0.950 . S
C1151 C1150 1.414 . S
C1151 C1152 1.374 . S
C1152 H1126 0.950 . S
C1152 C1148 1.385 . S
C1152 C1151 1.374 . S
C1153 C1150 1.499 . S
C1153 C1154 1.373 . S
C1153 C1155 1.389 . S
C1154 H1127 0.950 . S
C1154 C1140 1.377 . S
C1154 C1153 1.373 . S
C1155 C1139 1.377 . S
C1155 C1153 1.389 . S
C1155 C1156 1.524 . S
C1156 C1155 1.524 . S
C1156 C1157 1.397 . S
C1156 C1161 1.363 . S
C1157 H1128 0.950 . S
C1157 C1156 1.397 . S
C1157 C1158 1.334 . S
C1158 H1129 0.950 . S
C1158 C1157 1.334 . S
C1158 C1159 1.287 . S
C1159 C1158 1.287 . S
C1159 C1160 1.524 . S
C1159 H1162 0.999 . S
C1160 H1130 0.950 . S
C1160 C1159 1.524 . S
C1160 C1161 1.415 . S
C1161 H1131 0.950 . S
C1161 C1156 1.363 . S
C1161 C1160 1.415 . S
H1162 C1159 0.999 . S
H1163 C1144 0.913 . S
H1164 C1182 0.951 . S
H1165 C1184 0.951 . S
H1166 C1186 0.950 . S
H1167 C1187 0.950 . S
H1168 C1189 0.950 . S
H1169 C1192 0.950 . S
H1170 C1193 0.950 . S
H1171 C1195 0.950 . S
H1172 C1196 0.950 . S
H1173 C1197 0.951 . S
H1174 C1199 0.951 . S
H1175 C1201 0.950 . S
H1176 C1202 0.950 . S
H1177 C1204 0.950 . S
H1178 C1207 0.950 . S
H1179 C1208 0.950 . S
H1180 C1210 0.950 . S
H1181 C1211 0.950 . S
C1182 H1164 0.951 . S
C1182 C1183 1.366 . S
C1182 C1184 1.388 . S
C1183 C1182 1.366 . S
C1183 C1187 1.385 . S
C1184 H1165 0.951 . S
C1184 C1182 1.388 . S
C1184 C1185 1.366 . S
C1185 C1184 1.366 . S
C1185 C1186 1.414 . S
C1185 C1188 1.499 . S
C1186 H1166 0.950 . S
C1186 C1185 1.414 . S
C1186 C1187 1.374 . S
C1187 H1167 0.950 . S
C1187 C1183 1.385 . S
C1187 C1186 1.374 . S
C1188 C1185 1.499 . S
C1188 C1189 1.373 . S
C1188 C1190 1.389 . S
C1189 H1168 0.950 . S
C1189 C1188 1.373 . S
C1189 C1205 1.377 . S
C1190 C1188 1.389 . S
C1190 C1191 1.524 . S
C1190 C1204 1.377 . S
C1191 C1190 1.524 . S
C1191 C1192 1.397 . S
C1191 C1196 1.363 . S
C1192 H1169 0.950 . S
C1192 C1191 1.397 . S
C1192 C1193 1.334 . S
C1193 H1170 0.950 . S
C1193 C1192 1.334 . S
C1193 C1194 1.287 . S
C1194 C1193 1.287 . S
C1194 C1195 1.524 . S
C1194 H1213 0.913 . S
C1195 H1171 0.950 . S
C1195 C1194 1.524 . S
C1195 C1196 1.415 . S
C1196 H1172 0.950 . S
C1196 C1191 1.363 . S
C1196 C1195 1.415 . S
C1197 H1173 0.951 . S
C1197 C1198 1.366 . S
C1197 C1199 1.388 . S
C1198 C1197 1.366 . S
C1198 C1202 1.385 . S
C1199 H1174 0.951 . S
C1199 C1197 1.388 . S
C1199 C1200 1.366 . S
C1200 C1199 1.366 . S
C1200 C1201 1.414 . S
C1200 C1203 1.499 . S
C1201 H1175 0.950 . S
C1201 C1200 1.414 . S
C1201 C1202 1.374 . S
C1202 H1176 0.950 . S
C1202 C1198 1.385 . S
C1202 C1201 1.374 . S
C1203 C1200 1.499 . S
C1203 C1204 1.373 . S
C1203 C1205 1.389 . S
C1204 H1177 0.950 . S
C1204 C1190 1.377 . S
C1204 C1203 1.373 . S
C1205 C1189 1.377 . S
C1205 C1203 1.389 . S
C1205 C1206 1.524 . S
C1206 C1205 1.524 . S
C1206 C1207 1.397 . S
C1206 C1211 1.363 . S
C1207 H1178 0.950 . S
C1207 C1206 1.397 . S
C1207 C1208 1.334 . S
C1208 H1179 0.950 . S
C1208 C1207 1.334 . S
C1208 C1209 1.287 . S
C1209 C1208 1.287 . S
C1209 C1210 1.524 . S
C1209 H1212 0.999 . S
C1210 H1180 0.950 . S
C1210 C1209 1.524 . S
C1210 C1211 1.415 . S
C1211 H1181 0.950 . S
C1211 C1206 1.363 . S
C1211 C1210 1.415 . S
H1212 C1209 0.999 . S
H1213 C1194 0.913 . S
H1214 C1232 0.951 . S
H1215 C1234 0.951 . S
H1216 C1236 0.950 . S
H1217 C1237 0.950 . S
H1218 C1239 0.950 . S
H1219 C1242 0.950 . S
H1220 C1243 0.950 . S
H1221 C1245 0.950 . S
H1222 C1246 0.950 . S
H1223 C1247 0.951 . S
H1224 C1249 0.951 . S
H1225 C1251 0.950 . S
H1226 C1252 0.950 . S
H1227 C1254 0.950 . S
H1228 C1257 0.950 . S
H1229 C1258 0.950 . S
H1230 C1260 0.950 . S
H1231 C1261 0.950 . S
C1232 H1214 0.951 . S
C1232 C1233 1.366 . S
C1232 C1234 1.388 . S
C1233 C1232 1.366 . S
C1233 C1237 1.385 . S
C1234 H1215 0.951 . S
C1234 C1232 1.388 . S
C1234 C1235 1.366 . S
C1235 C1234 1.366 . S
C1235 C1236 1.414 . S
C1235 C1238 1.499 . S
C1236 H1216 0.950 . S
C1236 C1235 1.414 . S
C1236 C1237 1.374 . S
C1237 H1217 0.950 . S
C1237 C1233 1.385 . S
C1237 C1236 1.374 . S
C1238 C1235 1.499 . S
C1238 C1239 1.373 . S
C1238 C1240 1.389 . S
C1239 H1218 0.950 . S
C1239 C1238 1.373 . S
C1239 C1255 1.377 . S
C1240 C1238 1.389 . S
C1240 C1241 1.524 . S
C1240 C1254 1.377 . S
C1241 C1240 1.524 . S
C1241 C1242 1.397 . S
C1241 C1246 1.363 . S
C1242 H1219 0.950 . S
C1242 C1241 1.397 . S
C1242 C1243 1.334 . S
C1243 H1220 0.950 . S
C1243 C1242 1.334 . S
C1243 C1244 1.287 . S
C1244 C1243 1.287 . S
C1244 C1245 1.524 . S
C1244 H1263 0.913 . S
C1245 H1221 0.950 . S
C1245 C1244 1.524 . S
C1245 C1246 1.415 . S
C1246 H1222 0.950 . S
C1246 C1241 1.363 . S
C1246 C1245 1.415 . S
C1247 H1223 0.951 . S
C1247 C1248 1.366 . S
C1247 C1249 1.388 . S
C1248 C1247 1.366 . S
C1248 C1252 1.385 . S
C1249 H1224 0.951 . S
C1249 C1247 1.388 . S
C1249 C1250 1.366 . S
C1250 C1249 1.366 . S
C1250 C1251 1.414 . S
C1250 C1253 1.499 . S
C1251 H1225 0.950 . S
C1251 C1250 1.414 . S
C1251 C1252 1.374 . S
C1252 H1226 0.950 . S
C1252 C1248 1.385 . S
C1252 C1251 1.374 . S
C1253 C1250 1.499 . S
C1253 C1254 1.373 . S
C1253 C1255 1.389 . S
C1254 H1227 0.950 . S
C1254 C1240 1.377 . S
C1254 C1253 1.373 . S
C1255 C1239 1.377 . S
C1255 C1253 1.389 . S
C1255 C1256 1.524 . S
C1256 C1255 1.524 . S
C1256 C1257 1.397 . S
C1256 C1261 1.363 . S
C1257 H1228 0.950 . S
C1257 C1256 1.397 . S
C1257 C1258 1.334 . S
C1258 H1229 0.950 . S
C1258 C1257 1.334 . S
C1258 C1259 1.287 . S
C1259 C1258 1.287 . S
C1259 C1260 1.524 . S
C1259 H1262 0.999 . S
C1260 H1230 0.950 . S
C1260 C1259 1.524 . S
C1260 C1261 1.415 . S
C1261 H1231 0.950 . S
C1261 C1256 1.363 . S
C1261 C1260 1.415 . S
H1262 C1259 0.999 . S
H1263 C1244 0.913 . S
C283 N79 1.272 . S
C298 N13 1.274 . S
C333 N46 1.272 . S
C348 N112 1.273 . S
C383 N145 1.271 . S
C398 N211 1.270 . S
C433 N178 1.270 . S
C448 N244 1.271 . S
C483 C120 1.560 . S
C498 N2 1.507 . S
C533 C21 1.560 . S
C548 N35 1.507 . S
C583 N68 1.507 . S
C598 C54 1.560 . S
C633 N101 1.508 . S
C648 C87 1.560 . S
C683 C186 1.560 1_545 S
C698 N134 1.507 . S
C733 C219 1.560 1_655 S
C748 N167 1.508 . S
C783 C252 1.560 1_565 S
C798 N200 1.507 . S
C833 C153 1.560 1_455 S
C848 N233 1.508 . S
C883 C7 1.472 . S
C898 C238 1.472 . S
C933 C40 1.472 . S
C948 C139 1.472 . S
C983 C172 1.472 . S
C998 C73 1.472 . S
C1033 C205 1.472 . S
C1048 C106 1.472 . S
C1083 C84 1.416 . S
C1098 C183 1.416 . S
C1133 C216 1.416 . S
C1148 C117 1.416 . S
C1183 C249 1.416 . S
C1198 C18 1.416 . S
C1233 C150 1.416 . S
C1248 C51 1.416 . S
