# Generated by pormake.
# Topology etd, (3)-cn, num edge types: 1
# Building blocks:
#     Node 0, Type 0, BuildingBlock: WUSLED_clean_sbu_0, # of connection points: 3
#     Node 1, Type 0, BuildingBlock: WUSLED_clean_sbu_0, # of connection points: 3
#     Node 2, Type 0, BuildingBlock: WUSLED_clean_sbu_0, # of connection points: 3
#     Node 3, Type 0, BuildingBlock: WUSLED_clean_sbu_0, # of connection points: 3
#     Node 4, Type 0, BuildingBlock: WUSLED_clean_sbu_0, # of connection points: 3
#     Node 5, Type 0, BuildingBlock: WUSLED_clean_sbu_0, # of connection points: 3
#     Node 6, Type 0, BuildingBlock: WUSLED_clean_sbu_0, # of connection points: 3
#     Node 7, Type 0, BuildingBlock: WUSLED_clean_sbu_0, # of connection points: 3
#     Node 8, Type 0, BuildingBlock: WUSLED_clean_sbu_0, # of connection points: 3
#     Node 9, Type 0, BuildingBlock: WUSLED_clean_sbu_0, # of connection points: 3
#     Node 10, Type 0, BuildingBlock: WUSLED_clean_sbu_0, # of connection points: 3
#     Node 11, Type 0, BuildingBlock: WUSLED_clean_sbu_0, # of connection points: 3
#     Edge 12, Type (0, 0), BuildingBlock: UVAHIK_clean_linker_0, # of connection points: 2
#     Edge 13, Type (0, 0), BuildingBlock: UVAHIK_clean_linker_0, # of connection points: 2
#     Edge 14, Type (0, 0), BuildingBlock: UVAHIK_clean_linker_0, # of connection points: 2
#     Edge 15, Type (0, 0), BuildingBlock: UVAHIK_clean_linker_0, # of connection points: 2
#     Edge 16, Type (0, 0), BuildingBlock: UVAHIK_clean_linker_0, # of connection points: 2
#     Edge 17, Type (0, 0), BuildingBlock: UVAHIK_clean_linker_0, # of connection points: 2
#     Edge 18, Type (0, 0), BuildingBlock: UVAHIK_clean_linker_0, # of connection points: 2
#     Edge 19, Type (0, 0), BuildingBlock: UVAHIK_clean_linker_0, # of connection points: 2
#     Edge 20, Type (0, 0), BuildingBlock: UVAHIK_clean_linker_0, # of connection points: 2
#     Edge 21, Type (0, 0), BuildingBlock: UVAHIK_clean_linker_0, # of connection points: 2
#     Edge 22, Type (0, 0), BuildingBlock: UVAHIK_clean_linker_0, # of connection points: 2
#     Edge 23, Type (0, 0), BuildingBlock: UVAHIK_clean_linker_0, # of connection points: 2
#     Edge 24, Type (0, 0), BuildingBlock: UVAHIK_clean_linker_0, # of connection points: 2
#     Edge 25, Type (0, 0), BuildingBlock: UVAHIK_clean_linker_0, # of connection points: 2
#     Edge 26, Type (0, 0), BuildingBlock: UVAHIK_clean_linker_0, # of connection points: 2
#     Edge 27, Type (0, 0), BuildingBlock: UVAHIK_clean_linker_0, # of connection points: 2
#     Edge 28, Type (0, 0), BuildingBlock: UVAHIK_clean_linker_0, # of connection points: 2
#     Edge 29, Type (0, 0), BuildingBlock: UVAHIK_clean_linker_0, # of connection points: 2
# Relax obj value: 0.000
# Max RMSD: 0.003
# Mean RMSD: 0.003
data_MOF--net-etd--node1-WUSLED_clean_sbu_0--edge1-UVAHIK_clean_linker_0
_symmetry_space_group_name_H-M    P1
_symmetry_Int_Tables_number       1
_symmetry_cell_setting            triclinic
loop_
_symmetry_equiv_pos_as_xyz
'x, y, z'
_cell_length_a     107.45909
_cell_length_b     107.51636
_cell_length_c     77.118954
_cell_angle_alpha  90.023636
_cell_angle_beta   89.95788
_cell_angle_gamma 120.00668
loop_
_atom_site_label
_atom_site_type_symbol
_atom_site_fract_x
_atom_site_fract_y
_atom_site_fract_z
_atom_type_partial_charge
C0 C 0.50141 0.1622 0.10192 0.0
C1 C 0.51044 0.17329 0.11326 0.0
C2 C 0.50239 0.18895 0.10088 0.0
C3 C 0.51095 0.18655 0.11271 0.0
C4 C 0.49336 0.17776 0.08956 0.0
C5 C 0.4929 0.16452 0.09008 0.0
U6 U 0.5105 0.13589 0.12353 0.0
O7 O 0.49723 0.11254 0.12751 0.0
O8 O 0.51711 0.12128 0.1123 0.0
C9 C 0.50546 0.10969 0.11763 0.0
C10 C 0.50067 0.14816 0.10244 0.0
C11 C 0.49795 0.09843 0.1045 0.0
C12 C 0.48585 0.09028 0.07671 0.0
C13 C 0.49271 0.10113 0.08915 0.0
C14 C 0.48929 0.07391 0.09496 0.0
C15 C 0.48408 0.07653 0.07946 0.0
C16 C 0.49615 0.08476 0.10734 0.0
C17 C 0.53269 0.14784 0.16559 0.0
C18 C 0.54022 0.13322 0.18155 0.0
C19 C 0.5461 0.15669 0.1924 0.0
C20 C 0.53916 0.15858 0.17819 0.0
C21 C 0.54669 0.14397 0.19431 0.0
C22 C 0.53324 0.13513 0.1673 0.0
C23 C 0.52543 0.15017 0.15084 0.0
O24 O 0.51293 0.14846 0.09999 0.0
O25 O 0.49308 0.1397 0.11525 0.0
O26 O 0.51133 0.14236 0.15077 0.0
O27 O 0.5312 0.15108 0.13553 0.0
H28 H 0.51703 0.17165 0.12256 0.0
H29 H 0.51788 0.19486 0.12175 0.0
H30 H 0.48677 0.17928 0.08015 0.0
H31 H 0.48588 0.15608 0.08123 0.0
H32 H 0.48184 0.09262 0.06501 0.0
H33 H 0.49396 0.11163 0.08678 0.0
H34 H 0.48832 0.06355 0.09741 0.0
H35 H 0.50017 0.08249 0.1191 0.0
H36 H 0.54037 0.12326 0.18269 0.0
H37 H 0.55117 0.16529 0.20179 0.0
H38 H 0.53888 0.16848 0.17703 0.0
H39 H 0.52826 0.1267 0.15767 0.0
C40 C 0.35887 0.49201 0.26944 0.0
C41 C 0.35337 0.49476 0.28456 0.0
C42 C 0.33322 0.49326 0.26823 0.0
C43 C 0.34065 0.49534 0.28398 0.0
C44 C 0.33891 0.49068 0.25309 0.0
C45 C 0.35159 0.49003 0.25371 0.0
U46 U 0.39408 0.50019 0.29108 0.0
O47 O 0.40402 0.48672 0.29421 0.0
O48 O 0.41533 0.50697 0.27975 0.0
C49 C 0.41518 0.49517 0.28456 0.0
C50 C 0.37215 0.4912 0.26984 0.0
C51 C 0.41899 0.48796 0.27109 0.0
C52 C 0.41461 0.47563 0.24339 0.0
C53 C 0.41068 0.48241 0.25604 0.0
C54 C 0.43512 0.47985 0.2608 0.0
C55 C 0.42688 0.47427 0.24563 0.0
C56 C 0.4312 0.48662 0.27338 0.0
C57 C 0.40459 0.52116 0.334 0.0
C58 C 0.42852 0.53357 0.34666 0.0
C59 C 0.40792 0.52936 0.36389 0.0
C60 C 0.39889 0.5225 0.34978 0.0
C61 C 0.42286 0.53508 0.36247 0.0
C62 C 0.41946 0.52661 0.33255 0.0
C63 C 0.39484 0.51435 0.31919 0.0
O64 O 0.38414 0.50349 0.26786 0.0
O65 O 0.3729 0.48317 0.28219 0.0
O66 O 0.3884 0.50027 0.31853 0.0
O67 O 0.39958 0.52052 0.30402 0.0
H68 H 0.35888 0.49637 0.29684 0.0
H69 H 0.33653 0.49719 0.29593 0.0
H70 H 0.33366 0.48928 0.24068 0.0
H71 H 0.35573 0.488 0.24188 0.0
H72 H 0.40795 0.47133 0.23196 0.0
H73 H 0.40118 0.48331 0.2541 0.0
H74 H 0.44475 0.47921 0.26285 0.0
H75 H 0.43776 0.49088 0.28491 0.0
H76 H 0.43996 0.53771 0.34521 0.0
H77 H 0.40322 0.5305 0.37579 0.0
H78 H 0.38745 0.51838 0.35113 0.0
H79 H 0.42406 0.5256 0.3205 0.0
C80 C 0.88557 0.34941 0.43355 0.0
C81 C 0.87437 0.34738 0.44468 0.0
C82 C 0.85878 0.32364 0.43228 0.0
C83 C 0.86109 0.33463 0.44403 0.0
C84 C 0.87011 0.32577 0.4212 0.0
C85 C 0.88336 0.33853 0.42184 0.0
U86 U 0.9117 0.3846 0.45562 0.0
O87 O 0.93508 0.39486 0.4596 0.0
O88 O 0.92616 0.40602 0.4448 0.0
C89 C 0.93782 0.40608 0.45008 0.0
C90 C 0.8996 0.36273 0.43417 0.0
C91 C 0.94931 0.41044 0.4371 0.0
C92 C 0.95805 0.40774 0.40904 0.0
C93 C 0.94702 0.40301 0.4214 0.0
C94 C 0.97376 0.42723 0.42812 0.0
C95 C 0.97153 0.42001 0.4122 0.0
C96 C 0.96276 0.42249 0.44042 0.0
C97 C 0.89956 0.39428 0.49791 0.0
C98 C 0.91413 0.41635 0.51405 0.0
C99 C 0.8906 0.39872 0.52474 0.0
C100 C 0.88876 0.38995 0.51046 0.0
C101 C 0.90332 0.41202 0.52676 0.0
C102 C 0.91227 0.40753 0.49974 0.0
C103 C 0.89728 0.38479 0.48305 0.0
O104 O 0.89925 0.37468 0.43194 0.0
O105 O 0.90808 0.36353 0.44692 0.0
O106 O 0.90521 0.37865 0.4828 0.0
O107 O 0.89631 0.38973 0.46783 0.0
H108 H 0.87589 0.35567 0.45384 0.0
H109 H 0.85259 0.33346 0.45261 0.0
H110 H 0.86881 0.31748 0.41219 0.0
H111 H 0.89192 0.33988 0.41322 0.0
H112 H 0.95592 0.40199 0.39688 0.0
H113 H 0.93667 0.39366 0.41863 0.0
H114 H 0.98406 0.43654 0.43113 0.0
H115 H 0.96474 0.42832 0.45251 0.0
H116 H 0.9241 0.42645 0.51527 0.0
H117 H 0.88195 0.39514 0.53408 0.0
H118 H 0.87886 0.37978 0.50921 0.0
H119 H 0.92074 0.41102 0.49014 0.0
C120 C 0.55427 0.87536 0.60067 0.0
C121 C 0.547 0.86513 0.61369 0.0
C122 C 0.55356 0.84873 0.60005 0.0
C123 C 0.54665 0.85194 0.61339 0.0
C124 C 0.56082 0.85906 0.58703 0.0
C125 C 0.56116 0.87225 0.58736 0.0
U126 U 0.54483 0.90145 0.62205 0.0
O127 O 0.55762 0.92484 0.62567 0.0
O128 O 0.53757 0.91555 0.61072 0.0
C129 C 0.54909 0.92733 0.61588 0.0
C130 C 0.55476 0.88928 0.60092 0.0
C131 C 0.55622 0.93864 0.60269 0.0
C132 C 0.57281 0.94952 0.57856 0.0
C133 C 0.56594 0.93841 0.5907 0.0
C134 C 0.56016 0.96105 0.59016 0.0
C135 C 0.57006 0.96103 0.57821 0.0
C136 C 0.55333 0.94997 0.60226 0.0
C137 C 0.52326 0.8896 0.66459 0.0
C138 C 0.51559 0.90408 0.68062 0.0
C139 C 0.51019 0.88081 0.69165 0.0
C140 C 0.51706 0.87894 0.67734 0.0
C141 C 0.5094 0.89342 0.69353 0.0
C142 C 0.52249 0.90219 0.66627 0.0
C143 C 0.53046 0.88729 0.64974 0.0
O144 O 0.54234 0.88867 0.59867 0.0
O145 O 0.56243 0.89803 0.61348 0.0
O146 O 0.54452 0.89536 0.64935 0.0
O147 O 0.52442 0.88607 0.63454 0.0
H148 H 0.54158 0.86735 0.62407 0.0
H149 H 0.54081 0.84418 0.6235 0.0
H150 H 0.56643 0.85706 0.57671 0.0
H151 H 0.56687 0.88005 0.57723 0.0
H152 H 0.58045 0.94921 0.56966 0.0
H153 H 0.56829 0.92971 0.59084 0.0
H154 H 0.55757 0.96957 0.59008 0.0
H155 H 0.5458 0.95028 0.61135 0.0
H156 H 0.51528 0.91396 0.68173 0.0
H157 H 0.50534 0.87227 0.70116 0.0
H158 H 0.51751 0.86912 0.6762 0.0
H159 H 0.52726 0.91055 0.65652 0.0
C160 C 0.69757 0.54405 0.76717 0.0
C161 C 0.70459 0.5444 0.78267 0.0
C162 C 0.72355 0.54343 0.76639 0.0
C163 C 0.7175 0.54418 0.78228 0.0
C164 C 0.71638 0.54291 0.75092 0.0
C165 C 0.70353 0.54326 0.75132 0.0
U166 U 0.66196 0.53508 0.7884 0.0
O167 O 0.65119 0.54781 0.79096 0.0
O168 O 0.64055 0.5273 0.7769 0.0
C169 C 0.64022 0.53894 0.78131 0.0
C170 C 0.68401 0.54439 0.76729 0.0
C171 C 0.63589 0.54553 0.76755 0.0
C172 C 0.64157 0.56332 0.74487 0.0
C173 C 0.64607 0.55704 0.75751 0.0
C174 C 0.61674 0.5465 0.75201 0.0
C175 C 0.62684 0.55812 0.74198 0.0
C176 C 0.62123 0.5403 0.76466 0.0
C177 C 0.65217 0.51455 0.83165 0.0
C178 C 0.63046 0.50823 0.84805 0.0
C179 C 0.64689 0.50051 0.85806 0.0
C180 C 0.65582 0.50727 0.84384 0.0
C181 C 0.63411 0.50093 0.8604 0.0
C182 C 0.63943 0.515 0.83379 0.0
C183 C 0.66177 0.52149 0.8168 0.0
O184 O 0.67225 0.53188 0.76543 0.0
O185 O 0.68287 0.55246 0.77929 0.0
O186 O 0.66767 0.53553 0.81588 0.0
O187 O 0.65708 0.51507 0.80177 0.0
H188 H 0.70011 0.54485 0.79509 0.0
H189 H 0.72267 0.54441 0.79443 0.0
H190 H 0.72081 0.54246 0.73847 0.0
H191 H 0.69826 0.54294 0.73922 0.0
H192 H 0.64962 0.57215 0.73725 0.0
H193 H 0.65745 0.5612 0.75948 0.0
H194 H 0.60533 0.54235 0.7503 0.0
H195 H 0.61322 0.53145 0.77231 0.0
H196 H 0.62077 0.50887 0.84952 0.0
H197 H 0.64993 0.49479 0.8671 0.0
H198 H 0.66558 0.50676 0.84233 0.0
H199 H 0.63645 0.52059 0.82446 0.0
C200 C 0.17212 0.68932 0.93521 0.0
C201 C 0.18312 0.69146 0.94672 0.0
C202 C 0.19883 0.71515 0.93432 0.0
C203 C 0.19637 0.70425 0.94627 0.0
C204 C 0.18773 0.7129 0.9228 0.0
C205 C 0.17451 0.7001 0.92325 0.0
U206 U 0.14592 0.6535 0.95615 0.0
O207 O 0.12256 0.64337 0.96046 0.0
O208 O 0.1312 0.63252 0.94448 0.0
C209 C 0.11965 0.63246 0.95023 0.0
C210 C 0.15808 0.67601 0.93566 0.0
C211 C 0.10808 0.62864 0.9375 0.0
C212 C 0.09972 0.63001 0.90862 0.0
C213 C 0.11091 0.63444 0.92069 0.0
C214 C 0.08277 0.61423 0.93018 0.0
C215 C 0.08553 0.61971 0.91317 0.0
C216 C 0.09393 0.61864 0.94218 0.0
C217 C 0.15783 0.642 0.99718 0.0
C218 C 0.14204 0.62332 0.01734 0.0
C219 C 0.16777 0.63296 0.01878 0.0
C220 C 0.16968 0.6421 1.00489 0.0
C221 C 0.15394 0.62354 0.02531 0.0
C222 C 0.14397 0.63246 1.00338 0.0
C223 C 0.16027 0.65207 0.98291 0.0
O224 O 0.15835 0.66411 0.93266 0.0
O225 O 0.14973 0.67489 0.94873 0.0
O226 O 0.15263 0.65853 0.98337 0.0
O227 O 0.16116 0.64764 0.96732 0.0
H228 H 0.18142 0.68326 0.95611 0.0
H229 H 0.20461 0.70569 0.95545 0.0
H230 H 0.18931 0.72097 0.9133 0.0
H231 H 0.16614 0.69862 0.91425 0.0
H232 H 0.10225 0.63438 0.89561 0.0
H233 H 0.12177 0.64221 0.91683 0.0
H234 H 0.07196 0.60651 0.93425 0.0
H235 H 0.09153 0.61411 0.95512 0.0
H236 H 0.13125 0.6163 0.0221 0.0
H237 H 0.17716 0.63324 0.02433 0.0
H238 H 0.18045 0.64933 1.00021 0.0
H239 H 0.13466 0.63217 0.99755 0.0
C240 C 0.88574 0.54596 0.76067 0.0
C241 C 0.87735 0.54249 0.74559 0.0
C242 C 0.85906 0.54521 0.76116 0.0
C243 C 0.86415 0.54216 0.74581 0.0
C244 C 0.86751 0.54856 0.77625 0.0
C245 C 0.88072 0.54895 0.77598 0.0
U246 U 0.91207 0.53584 0.7409 0.0
O247 O 0.93557 0.54838 0.73812 0.0
O248 O 0.92568 0.52857 0.75358 0.0
C249 C 0.93767 0.53998 0.74867 0.0
C250 C 0.89962 0.54631 0.76073 0.0
C251 C 0.9486 0.54714 0.76231 0.0
C252 C 0.96163 0.56652 0.78299 0.0
C253 C 0.95095 0.55988 0.7703 0.0
C254 C 0.96755 0.54765 0.78002 0.0
C255 C 0.97005 0.56046 0.78801 0.0
C256 C 0.95696 0.54109 0.7673 0.0
C257 C 0.90087 0.51259 0.69955 0.0
C258 C 0.91577 0.51053 0.67721 0.0
C259 C 0.89129 0.49127 0.6814 0.0
C260 C 0.88955 0.49904 0.69479 0.0
C261 C 0.90439 0.49694 0.67239 0.0
C262 C 0.91405 0.51827 0.69072 0.0
C263 C 0.89846 0.52058 0.71349 0.0
O264 O 0.8989 0.53394 0.76372 0.0
O265 O 0.90851 0.55362 0.74808 0.0
O266 O 0.90653 0.53466 0.71326 0.0
O267 O 0.89668 0.51507 0.72912 0.0
H268 H 0.88103 0.54008 0.73364 0.0
H269 H 0.85804 0.5397 0.7339 0.0
H270 H 0.86385 0.55072 0.78837 0.0
H271 H 0.887 0.55153 0.78779 0.0
H272 H 0.96318 0.5763 0.78902 0.0
H273 H 0.94456 0.56471 0.76672 0.0
H274 H 0.97395 0.54279 0.78341 0.0
H275 H 0.95534 0.53128 0.76127 0.0
H276 H 0.92604 0.51513 0.67062 0.0
H277 H 0.88225 0.48093 0.67788 0.0
H278 H 0.87928 0.49448 0.70138 0.0
H279 H 0.923 0.52868 0.6942 0.0
C280 C 0.35943 0.87636 0.92898 0.0
C281 C 0.35697 0.86585 0.91655 0.0
C282 C 0.33368 0.84957 0.9296 0.0
C283 C 0.34421 0.85257 0.91685 0.0
C284 C 0.33625 0.86021 0.942 0.0
C285 C 0.34901 0.87347 0.94169 0.0
U286 U 0.39551 0.90253 0.90861 0.0
O287 O 0.40617 0.92596 0.90506 0.0
O288 O 0.41652 0.91663 0.92069 0.0
C289 C 0.41697 0.92843 0.91526 0.0
C290 C 0.37282 0.89034 0.92885 0.0
C291 C 0.42094 0.93974 0.92838 0.0
C292 C 0.41553 0.94956 0.95384 0.0
C293 C 0.41131 0.93866 0.94139 0.0
C294 C 0.43899 0.96263 0.94034 0.0
C295 C 0.42947 0.96165 0.95351 0.0
C296 C 0.43476 0.95179 0.92793 0.0
C297 C 0.40723 0.89084 0.86745 0.0
C298 C 0.42389 0.90565 0.84483 0.0
C299 C 0.41896 0.8813 0.84922 0.0
C300 C 0.40956 0.87958 0.86273 0.0
C301 C 0.4262 0.89433 0.84005 0.0
C302 C 0.41455 0.90396 0.85847 0.0
C303 C 0.39697 0.88849 0.88154 0.0
O304 O 0.38461 0.88987 0.93184 0.0
O305 O 0.37416 0.89892 0.91596 0.0
O306 O 0.39075 0.89636 0.88119 0.0
O307 O 0.40098 0.8871 0.89717 0.0
H308 H 0.36493 0.8679 0.90665 0.0
H309 H 0.34268 0.84459 0.90722 0.0
H310 H 0.32831 0.85837 0.95184 0.0
H311 H 0.35072 0.88149 0.95136 0.0
H312 H 0.40797 0.9484 0.96389 0.0
H313 H 0.40059 0.92939 0.94196 0.0
H314 H 0.44971 0.97187 0.93951 0.0
H315 H 0.44232 0.95281 0.91794 0.0
H316 H 0.42942 0.91586 0.83813 0.0
H317 H 0.42035 0.87231 0.84573 0.0
H318 H 0.404 0.86936 0.86945 0.0
H319 H 0.41301 0.91286 0.86193 0.0
C320 C 0.50239 0.34976 0.095 0.0
C321 C 0.51026 0.34719 0.08241 0.0
C322 C 0.50354 0.32408 0.09572 0.0
C323 C 0.51083 0.33446 0.08276 0.0
C324 C 0.49567 0.32677 0.10831 0.0
C325 C 0.49511 0.33949 0.10794 0.0
U326 U 0.51198 0.3857 0.07448 0.0
O327 O 0.4989 0.39598 0.07057 0.0
O328 O 0.51839 0.40661 0.08653 0.0
C329 C 0.50697 0.40682 0.08086 0.0
C330 C 0.50165 0.36306 0.09476 0.0
C331 C 0.49928 0.41055 0.09377 0.0
C332 C 0.48391 0.40489 0.11914 0.0
C333 C 0.49108 0.40098 0.10701 0.0
C334 C 0.49313 0.42793 0.10489 0.0
C335 C 0.48483 0.41842 0.1182 0.0
C336 C 0.50026 0.42402 0.09282 0.0
C337 C 0.53538 0.39771 0.03345 0.0
C338 C 0.53738 0.4155 1.01242 0.0
C339 C 0.55571 0.40869 1.01369 0.0
C340 C 0.54829 0.39916 0.02721 0.0
C341 C 0.55032 0.41693 1.00608 0.0
C342 C 0.53001 0.40602 0.02605 0.0
C343 C 0.52771 0.38739 0.04754 0.0
O344 O 0.51384 0.37494 0.09778 0.0
O345 O 0.49439 0.36427 0.08179 0.0
O346 O 0.5136 0.38089 0.04714 0.0
O347 O 0.53305 0.39158 0.06317 0.0
H348 H 0.51598 0.35504 0.07234 0.0
H349 H 0.51713 0.33284 0.07299 0.0
H350 H 0.48976 0.31894 0.11832 0.0
H351 H 0.48895 0.34129 0.11773 0.0
H352 H 0.47753 0.39726 0.12912 0.0
H353 H 0.49021 0.39052 0.10792 0.0
H354 H 0.4943 0.43851 0.10394 0.0
H355 H 0.50661 0.43156 0.08274 0.0
H356 H 0.53304 0.4218 1.00695 0.0
H357 H 0.56555 0.40941 1.00899 0.0
H358 H 0.5526 0.39284 0.03273 0.0
H359 H 0.52011 0.40517 0.03076 0.0
C360 C 0.17248 0.49357 0.2618 0.0
C361 C 0.17953 0.49406 0.24625 0.0
C362 C 0.19921 0.49446 0.26244 0.0
C363 C 0.19273 0.49442 0.24657 0.0
C364 C 0.19217 0.49412 0.27797 0.0
C365 C 0.17892 0.49365 0.27763 0.0
U366 U 0.14567 0.50228 0.24064 0.0
O367 O 0.12216 0.48946 0.23829 0.0
O368 O 0.13204 0.51005 0.25216 0.0
C369 C 0.12006 0.49838 0.24786 0.0
C370 C 0.15855 0.49314 0.26174 0.0
C371 C 0.10917 0.49186 0.26167 0.0
C372 C 0.09747 0.47457 0.28496 0.0
C373 C 0.10821 0.48078 0.27225 0.0
C374 C 0.08872 0.49058 0.27678 0.0
C375 C 0.08758 0.4794 0.28736 0.0
C376 C 0.09939 0.49672 0.26407 0.0
C377 C 0.15612 0.52266 0.19733 0.0
C378 C 0.14127 0.53039 0.18228 0.0
C379 C 0.16418 0.53563 0.1701 0.0
C380 C 0.1664 0.52874 0.18413 0.0
C381 C 0.15161 0.53658 0.16899 0.0
C382 C 0.14351 0.52348 0.19633 0.0
C383 C 0.15893 0.51578 0.21211 0.0
O384 O 0.15924 0.50562 0.26355 0.0
O385 O 0.14935 0.48501 0.24977 0.0
O386 O 0.1508 0.50174 0.2131 0.0
O387 O 0.16075 0.52224 0.22713 0.0
H388 H 0.17483 0.49416 0.23386 0.0
H389 H 0.19797 0.49486 0.23439 0.0
H390 H 0.1968 0.49401 0.2904 0.0
H391 H 0.17367 0.49332 0.28976 0.0
H392 H 0.09699 0.46609 0.293 0.0
H393 H 0.11572 0.47692 0.27065 0.0
H394 H 0.08118 0.49443 0.27809 0.0
H395 H 0.09993 0.50523 0.25599 0.0
H396 H 0.13141 0.53079 0.18175 0.0
H397 H 0.17248 0.54047 0.1603 0.0
H398 H 0.17623 0.52826 0.18474 0.0
H399 H 0.13545 0.51882 0.20644 0.0
C400 C 0.69879 0.16186 0.42723 0.0
C401 C 0.70132 0.17211 0.41438 0.0
C402 C 0.72434 0.18884 0.42767 0.0
C403 C 0.71399 0.18547 0.41459 0.0
C404 C 0.72169 0.17849 0.44051 0.0
C405 C 0.70903 0.16514 0.44028 0.0
U406 U 0.66261 0.13524 0.40735 0.0
O407 O 0.65243 0.11184 0.4036 0.0
O408 O 0.64189 0.12071 0.41973 0.0
C409 C 0.64173 0.10908 0.41415 0.0
C410 C 0.68554 0.14776 0.42716 0.0
C411 C 0.63833 0.09783 0.42721 0.0
C412 C 0.64154 0.09015 0.4557 0.0
C413 C 0.64546 0.10097 0.44323 0.0
C414 C 0.62354 0.07295 0.43612 0.0
C415 C 0.63047 0.07601 0.45233 0.0
C416 C 0.62744 0.08375 0.42371 0.0
C417 C 0.65002 0.14672 0.36675 0.0
C418 C 0.63309 0.13177 0.34445 0.0
C419 C 0.63811 0.15617 0.34871 0.0
C420 C 0.64766 0.15797 0.36206 0.0
C421 C 0.63075 0.14307 0.33968 0.0
C422 C 0.64259 0.13355 0.35793 0.0
C423 C 0.66047 0.14919 0.38063 0.0
O424 O 0.67365 0.14797 0.4305 0.0
O425 O 0.68422 0.13931 0.41413 0.0
O426 O 0.66694 0.14156 0.37993 0.0
O427 O 0.65651 0.15036 0.39639 0.0
H428 H 0.69349 0.16976 0.40422 0.0
H429 H 0.71558 0.19323 0.40462 0.0
H430 H 0.72949 0.18062 0.45062 0.0
H431 H 0.70726 0.15734 0.45027 0.0
H432 H 0.64721 0.09285 0.46796 0.0
H433 H 0.65395 0.11178 0.44614 0.0
H434 H 0.61485 0.06225 0.43315 0.0
H435 H 0.62179 0.08115 0.41143 0.0
H436 H 0.62748 0.12151 0.33786 0.0
H437 H 0.6367 0.16515 0.34523 0.0
H438 H 0.6533 0.16823 0.36866 0.0
H439 H 0.64416 0.12466 0.36138 0.0
C440 C 0.55603 0.6891 0.59488 0.0
C441 C 0.54668 0.69095 0.58388 0.0
C442 C 0.55501 0.71487 0.59581 0.0
C443 C 0.54616 0.7037 0.58435 0.0
C444 C 0.5644 0.71293 0.60675 0.0
C445 C 0.56489 0.70017 0.60628 0.0
U446 U 0.54621 0.65335 0.57382 0.0
O447 O 0.55905 0.64279 0.56979 0.0
O448 O 0.53927 0.63216 0.58529 0.0
C449 C 0.55067 0.63183 0.57975 0.0
C450 C 0.55665 0.67574 0.59451 0.0
C451 C 0.55798 0.62759 0.59263 0.0
C452 C 0.56888 0.62988 0.62095 0.0
C453 C 0.56253 0.63461 0.60867 0.0
C454 C 0.56639 0.6113 0.6011 0.0
C455 C 0.57073 0.61805 0.61737 0.0
C456 C 0.56007 0.61603 0.58888 0.0
C457 C 0.52324 0.64258 0.53252 0.0
C458 C 0.51438 0.61955 0.5181 0.0
C459 C 0.5091 0.63725 0.50619 0.0
C460 C 0.51678 0.64666 0.51969 0.0
C461 C 0.50771 0.62354 0.50527 0.0
C462 C 0.52208 0.629 0.53163 0.0
C463 C 0.53095 0.65256 0.54679 0.0
O464 O 0.54438 0.66389 0.59735 0.0
O465 O 0.56396 0.67457 0.58156 0.0
O466 O 0.54502 0.65857 0.54649 0.0
O467 O 0.52544 0.64817 0.56232 0.0
H468 H 0.53976 0.68251 0.57496 0.0
H469 H 0.53868 0.70473 0.5759 0.0
H470 H 0.57153 0.72136 0.61553 0.0
H471 H 0.57222 0.69895 0.6148 0.0
H472 H 0.572 0.63526 0.63339 0.0
H473 H 0.561 0.64358 0.61178 0.0
H474 H 0.56788 0.60235 0.59777 0.0
H475 H 0.55668 0.61053 0.57653 0.0
H476 H 0.51342 0.60903 0.51788 0.0
H477 H 0.50432 0.64078 0.4964 0.0
H478 H 0.51763 0.65713 0.52015 0.0
H479 H 0.52701 0.62567 0.54147 0.0
C480 C 0.55272 0.14683 0.22607 0.0
C481 C 0.55411 0.14209 0.20956 0.0
C482 C 0.56029 0.14589 0.24025 0.0
C483 C 0.57983 0.12801 0.25646 0.0
H484 H 0.59811 0.1612 0.28674 0.0
C485 C 0.62113 0.13482 0.30955 0.0
C486 C 0.62087 0.1414 0.32521 0.0
C487 C 0.61245 0.13407 0.29559 0.0
C488 C 0.59292 0.15174 0.27859 0.0
H489 H 0.56438 0.13236 0.19515 0.0
H490 H 0.57759 0.13066 0.21996 0.0
H491 H 0.58393 0.1613 0.26224 0.0
H492 H 0.6108 0.15173 0.33874 0.0
H493 H 0.59556 0.15029 0.31456 0.0
H494 H 0.58885 0.11847 0.27287 0.0
C495 C 0.57054 0.13503 0.22193 0.0
C496 C 0.58479 0.15181 0.2645 0.0
C497 C 0.56296 0.136 0.2077 0.0
C498 C 0.61145 0.14684 0.32675 0.0
C499 C 0.60273 0.14603 0.31285 0.0
C500 C 0.58795 0.12792 0.27062 0.0
C501 C 0.56945 0.14015 0.23832 0.0
C502 C 0.57811 0.13995 0.25328 0.0
C503 C 0.60326 0.13983 0.297 0.0
C504 C 0.59457 0.13978 0.2819 0.0
H505 H 0.54576 0.1513 0.22806 0.0
H506 H 0.55896 0.14966 0.25276 0.0
H507 H 0.57471 0.11864 0.24816 0.0
H508 H 0.62838 0.13065 0.30789 0.0
H509 H 0.61326 0.12936 0.28354 0.0
C510 C 0.48619 0.61237 0.48559 0.0
C511 C 0.49917 0.61344 0.49109 0.0
C512 C 0.47825 0.60312 0.4721 0.0
C513 C 0.4815 0.58374 0.43431 0.0
H514 H 0.43988 0.56294 0.43679 0.0
C515 C 0.44535 0.55589 0.3747 0.0
C516 C 0.43244 0.5429 0.37734 0.0
C517 C 0.45389 0.56371 0.3888 0.0
C518 C 0.4515 0.56853 0.43594 0.0
H519 H 0.51394 0.60555 0.48662 0.0
H520 H 0.49992 0.58919 0.46322 0.0
H521 H 0.45381 0.57769 0.46118 0.0
H522 H 0.41873 0.52765 0.39682 0.0
H523 H 0.43366 0.5412 0.42137 0.0
H524 H 0.47915 0.57441 0.40912 0.0
C525 C 0.49598 0.59565 0.46927 0.0
C526 C 0.45949 0.57715 0.44986 0.0
C527 C 0.50394 0.60491 0.48281 0.0
C528 C 0.42848 0.53774 0.39436 0.0
C529 C 0.43704 0.54552 0.40844 0.0
C530 C 0.47349 0.5751 0.42037 0.0
C531 C 0.48304 0.59466 0.46372 0.0
C532 C 0.47459 0.58497 0.44917 0.0
C533 C 0.44976 0.55871 0.40587 0.0
C534 C 0.45838 0.56746 0.42095 0.0
H535 H 0.4821 0.61863 0.49181 0.0
H536 H 0.46843 0.60277 0.46805 0.0
H537 H 0.4931 0.5897 0.43327 0.0
H538 H 0.44863 0.56026 0.36178 0.0
H539 H 0.46351 0.5739 0.38632 0.0
C540 C 0.91264 0.49553 0.64226 0.0
C541 C 0.90601 0.48871 0.6579 0.0
C542 C 0.91335 0.48758 0.62828 0.0
C543 C 0.89549 0.4504 0.61118 0.0
H544 H 0.92866 0.46518 0.58083 0.0
C545 C 0.9003 0.4151 0.55851 0.0
C546 C 0.90514 0.42126 0.54204 0.0
C547 C 0.90123 0.42359 0.57272 0.0
C548 C 0.91927 0.46096 0.5891 0.0
H549 H 0.89551 0.46828 0.67137 0.0
H550 H 0.89687 0.45446 0.64716 0.0
H551 H 0.92888 0.4795 0.60558 0.0
H552 H 0.915 0.44132 0.52774 0.0
H553 H 0.91668 0.45617 0.5526 0.0
H554 H 0.88587 0.43188 0.59477 0.0
C555 C 0.90121 0.4659 0.64548 0.0
C556 C 0.91939 0.46917 0.60329 0.0
C557 C 0.90046 0.47382 0.6594 0.0
C558 C 0.9113 0.43623 0.54026 0.0
C559 C 0.91225 0.44474 0.55451 0.0
C560 C 0.89539 0.4422 0.59707 0.0
C561 C 0.90748 0.47262 0.62965 0.0
C562 C 0.9075 0.46397 0.61454 0.0
C563 C 0.90705 0.43849 0.57087 0.0
C564 C 0.90729 0.44734 0.58587 0.0
H565 H 0.9169 0.50696 0.64063 0.0
H566 H 0.91811 0.49311 0.61624 0.0
H567 H 0.88601 0.44616 0.61931 0.0
H568 H 0.89578 0.40366 0.56045 0.0
H569 H 0.8974 0.41846 0.58521 0.0
C570 C 0.49301 0.90118 0.70715 0.0
C571 C 0.50205 0.89528 0.70889 0.0
C572 C 0.48551 0.90213 0.72148 0.0
C573 C 0.47184 0.88558 0.7643 0.0
H574 H 0.4674 0.91872 0.77264 0.0
C575 C 0.44545 0.89058 0.82686 0.0
C576 C 0.43594 0.89593 0.82543 0.0
C577 C 0.45408 0.89137 0.81285 0.0
C578 C 0.46841 0.90932 0.7704 0.0
H579 H 0.5108 0.88641 0.72729 0.0
H580 H 0.49772 0.88802 0.75218 0.0
H581 H 0.48141 0.91856 0.74774 0.0
H582 H 0.42818 0.90647 0.80818 0.0
H583 H 0.44313 0.90772 0.78363 0.0
H584 H 0.45875 0.87623 0.78673 0.0
C585 C 0.4962 0.89165 0.73968 0.0
C586 C 0.47645 0.90924 0.75613 0.0
C587 C 0.5037 0.89072 0.72539 0.0
C588 C 0.43549 0.90238 0.80976 0.0
C589 C 0.44408 0.9031 0.79569 0.0
C590 C 0.46378 0.88564 0.77849 0.0
C591 C 0.48687 0.89719 0.73787 0.0
C592 C 0.47831 0.89738 0.75296 0.0
C593 C 0.45337 0.89746 0.79699 0.0
C594 C 0.462 0.89752 0.78179 0.0
H595 H 0.49139 0.90466 0.6946 0.0
H596 H 0.47832 0.90634 0.71961 0.0
H597 H 0.4728 0.87615 0.76205 0.0
H598 H 0.44624 0.88579 0.83885 0.0
H599 H 0.46132 0.8872 0.81447 0.0
C600 C 0.57319 0.43554 0.99193 0.0
C601 C 0.55815 0.42684 0.99147 0.0
C602 C 0.58064 0.44445 0.97795 0.0
C603 C 0.57772 0.44842 0.931 0.0
H604 H 0.60992 0.48675 0.93857 0.0
C605 C 0.60963 0.48587 0.87388 0.0
C606 C 0.62467 0.49367 0.87562 0.0
C607 C 0.60086 0.47852 0.88805 0.0
C608 C 0.60104 0.47603 0.93621 0.0
H609 H 0.53913 0.42076 0.97597 0.0
H610 H 0.55215 0.43641 0.95154 0.0
H611 H 0.59585 0.47244 0.96324 0.0
H612 H 0.64222 0.50022 0.89386 0.0
H613 H 0.62703 0.48715 0.91836 0.0
H614 H 0.58308 0.45185 0.90402 0.0
C615 C 0.55818 0.43626 0.96272 0.0
C616 C 0.59296 0.46783 0.95037 0.0
C617 C 0.55071 0.42741 0.97677 0.0
C618 C 0.6307 0.49416 0.89197 0.0
C619 C 0.62195 0.48681 0.9061 0.0
C620 C 0.58584 0.45659 0.91683 0.0
C621 C 0.57324 0.44484 0.96311 0.0
C622 C 0.5813 0.45387 0.94796 0.0
C623 C 0.60692 0.47879 0.90432 0.0
C624 C 0.59771 0.47044 0.91927 0.0
H625 H 0.57922 0.43545 1.00313 0.0
H626 H 0.59224 0.45082 0.97861 0.0
H627 H 0.56891 0.43764 0.9287 0.0
H628 H 0.60462 0.48518 0.86146 0.0
H629 H 0.58932 0.4726 0.88624 0.0
C630 C 0.16188 0.61928 0.05429 0.0
C631 C 0.15204 0.61412 0.04045 0.0
C632 C 0.16038 0.61042 0.06834 0.0
C633 C 0.14357 0.57218 0.08103 0.0
H634 H 0.1535 0.58815 0.12739 0.0
C635 C 0.15373 0.54293 0.13731 0.0
C636 C 0.14951 0.54424 0.15416 0.0
C637 C 0.15258 0.55076 0.12354 0.0
C638 C 0.15051 0.58344 0.11458 0.0
H639 H 0.13281 0.59552 0.0307 0.0
H640 H 0.12998 0.58016 0.05542 0.0
H641 H 0.15392 0.60315 0.10351 0.0
H642 H 0.14049 0.55467 0.16963 0.0
H643 H 0.13818 0.56807 0.14555 0.0
H644 H 0.13997 0.55241 0.09216 0.0
C645 C 0.139 0.59103 0.05527 0.0
C646 C 0.15094 0.59212 0.10082 0.0
C647 C 0.14053 0.5999 0.04117 0.0
C648 C 0.14376 0.55331 0.15681 0.0
C649 C 0.14259 0.56114 0.14303 0.0
C650 C 0.14311 0.56349 0.09481 0.0
C651 C 0.14895 0.59616 0.06901 0.0
C652 C 0.14765 0.58666 0.08382 0.0
C653 C 0.14714 0.56009 0.12624 0.0
C654 C 0.14674 0.56905 0.11174 0.0
H655 H 0.17076 0.63023 0.05434 0.0
H656 H 0.16835 0.61471 0.07856 0.0
H657 H 0.14108 0.56763 0.06812 0.0
H658 H 0.15802 0.53589 0.13473 0.0
H659 H 0.15633 0.54976 0.11086 0.0
C660 C 0.49009 0.20356 0.09835 0.0
C661 C 0.50281 0.20301 0.10036 0.0
C662 C 0.49046 0.21675 0.09776 0.0
C663 C 0.51314 0.25521 0.10933 0.0
H664 H 0.48807 0.26013 0.0774 0.0
C665 C 0.50517 0.30459 0.1119 0.0
C666 C 0.50404 0.31046 0.09608 0.0
C667 C 0.50538 0.29168 0.11227 0.0
C668 C 0.49524 0.259 0.08629 0.0
H669 H 0.52594 0.21597 0.10313 0.0
H670 H 0.52661 0.23897 0.10203 0.0
H671 H 0.48792 0.2374 0.0781 0.0
H672 H 0.50219 0.30725 0.06822 0.0
H673 H 0.50285 0.28491 0.06884 0.0
H674 H 0.52066 0.27691 0.11728 0.0
C675 C 0.51629 0.22919 0.10119 0.0
C676 C 0.49503 0.24588 0.08685 0.0
C677 C 0.51592 0.21599 0.10181 0.0
C678 C 0.50322 0.30313 0.08063 0.0
C679 C 0.50342 0.29021 0.081 0.0
C680 C 0.51336 0.26833 0.10877 0.0
C681 C 0.50357 0.22974 0.09913 0.0
C682 C 0.50394 0.24379 0.09841 0.0
C683 C 0.50445 0.28429 0.09683 0.0
C684 C 0.50439 0.27039 0.09727 0.0
H685 H 0.47978 0.19377 0.09748 0.0
H686 H 0.48042 0.21674 0.09648 0.0
H687 H 0.52006 0.25396 0.11851 0.0
H688 H 0.506 0.31002 0.12403 0.0
H689 H 0.50604 0.28739 0.12471 0.0
C690 C 0.22403 0.50365 0.27459 0.0
C691 C 0.21322 0.49477 0.26281 0.0
C692 C 0.23714 0.50385 0.27504 0.0
C693 C 0.26015 0.49395 0.24912 0.0
H694 H 0.27843 0.49685 0.29344 0.0
C695 C 0.30816 0.48421 0.25683 0.0
C696 C 0.31956 0.49371 0.26759 0.0
C697 C 0.29536 0.48463 0.25616 0.0
C698 C 0.27354 0.49618 0.28095 0.0
H699 H 0.20768 0.47898 0.24242 0.0
H700 H 0.23043 0.47914 0.24335 0.0
H701 H 0.25581 0.49696 0.29243 0.0
H702 H 0.32638 0.51124 0.28594 0.0
H703 H 0.30398 0.51182 0.28493 0.0
H704 H 0.27781 0.49295 0.23769 0.0
C705 C 0.22893 0.48622 0.252 0.0
C706 C 0.26057 0.49627 0.28035 0.0
C707 C 0.21585 0.4861 0.25148 0.0
C708 C 0.31777 0.5036 0.27771 0.0
C709 C 0.30493 0.50396 0.27712 0.0
C710 C 0.27307 0.49376 0.24973 0.0
C711 C 0.23976 0.49509 0.26379 0.0
C712 C 0.25368 0.49514 0.26442 0.0
C713 C 0.29359 0.4945 0.26631 0.0
C714 C 0.27992 0.49486 0.26565 0.0
H715 H 0.22242 0.51062 0.28332 0.0
H716 H 0.2453 0.51101 0.28407 0.0
H717 H 0.25533 0.49332 0.23659 0.0
H718 H 0.30901 0.47627 0.24909 0.0
H719 H 0.28675 0.47704 0.2479 0.0
C720 C 0.83875 0.30328 0.41568 0.0
C721 C 0.84467 0.31001 0.43163 0.0
C722 C 0.82561 0.29041 0.41507 0.0
C723 C 0.79255 0.26787 0.44051 0.0
H724 H 0.78827 0.23765 0.40939 0.0
C725 C 0.7436 0.21028 0.44364 0.0
C726 C 0.73788 0.20303 0.4279 0.0
C727 C 0.75643 0.22349 0.44391 0.0
C728 C 0.7892 0.24603 0.418 0.0
H729 H 0.84135 0.30829 0.45947 0.0
H730 H 0.81841 0.2859 0.4584 0.0
H731 H 0.81093 0.26033 0.41019 0.0
H732 H 0.74127 0.20406 0.40009 0.0
H733 H 0.76347 0.2272 0.40053 0.0
H734 H 0.77082 0.25358 0.44832 0.0
C735 C 0.82387 0.29069 0.44633 0.0
C736 C 0.80222 0.25905 0.41847 0.0
C737 C 0.83703 0.30355 0.44694 0.0
C738 C 0.74528 0.20939 0.41243 0.0
C739 C 0.75811 0.22259 0.4127 0.0
C740 C 0.77952 0.25486 0.44003 0.0
C741 C 0.818 0.28393 0.43039 0.0
C742 C 0.80407 0.27013 0.42976 0.0
C743 C 0.76388 0.2298 0.42845 0.0
C744 C 0.77769 0.24375 0.42879 0.0
H745 H 0.84419 0.30806 0.4036 0.0
H746 H 0.8213 0.28562 0.40256 0.0
H747 H 0.79352 0.27625 0.44917 0.0
H748 H 0.73811 0.2058 0.45579 0.0
H749 H 0.76061 0.22864 0.4563 0.0
C750 C 0.55304 0.7347 0.58099 0.0
C751 C 0.55449 0.72847 0.59634 0.0
C752 C 0.55265 0.74752 0.58149 0.0
C753 C 0.56282 0.77944 0.6089 0.0
H754 H 0.53617 0.78421 0.57964 0.0
C755 C 0.55476 0.82858 0.61516 0.0
C756 C 0.55328 0.83472 0.59975 0.0
C757 C 0.55466 0.81552 0.61484 0.0
C758 C 0.54379 0.78313 0.58776 0.0
H759 H 0.55637 0.73078 0.62431 0.0
H760 H 0.55577 0.75314 0.62517 0.0
H761 H 0.53648 0.76169 0.57887 0.0
H762 H 0.55031 0.83172 0.57193 0.0
H763 H 0.55044 0.80913 0.57134 0.0
H764 H 0.5702 0.80089 0.61773 0.0
C765 C 0.55514 0.74821 0.6127 0.0
C766 C 0.54397 0.7702 0.58732 0.0
C767 C 0.5555 0.73538 0.61221 0.0
C768 C 0.55163 0.82741 0.58403 0.0
C769 C 0.55153 0.81434 0.58371 0.0
C770 C 0.56267 0.79238 0.60932 0.0
C771 C 0.55373 0.75446 0.59735 0.0
C772 C 0.55349 0.76819 0.59787 0.0
C773 C 0.55308 0.80824 0.59911 0.0
C774 C 0.55316 0.7944 0.59875 0.0
H775 H 0.55246 0.72982 0.56851 0.0
H776 H 0.55176 0.75213 0.5694 0.0
H777 H 0.57044 0.77835 0.61701 0.0
H778 H 0.55619 0.83396 0.62748 0.0
H779 H 0.55572 0.81107 0.62698 0.0
C780 C 0.74891 0.55265 0.77654 0.0
C781 C 0.73734 0.5433 0.76595 0.0
C782 C 0.76194 0.55267 0.77598 0.0
C783 C 0.783 0.54134 0.74849 0.0
H784 H 0.80471 0.54721 0.79082 0.0
C785 C 0.83314 0.53446 0.75207 0.0
C786 C 0.84501 0.5449 0.76147 0.0
C787 C 0.81995 0.53413 0.75251 0.0
C788 C 0.79884 0.54568 0.77886 0.0
H789 H 0.73029 0.52641 0.74671 0.0
H790 H 0.75289 0.52624 0.74591 0.0
H791 H 0.7818 0.54669 0.79191 0.0
H792 H 0.85229 0.56337 0.77841 0.0
H793 H 0.82927 0.56265 0.77935 0.0
H794 H 0.80003 0.54018 0.73551 0.0
C795 C 0.75205 0.53383 0.75438 0.0
C796 C 0.7857 0.54541 0.77946 0.0
C797 C 0.73906 0.53389 0.75486 0.0
C798 C 0.84333 0.55501 0.77128 0.0
C799 C 0.83013 0.55462 0.7718 0.0
C800 C 0.79611 0.54152 0.74791 0.0
C801 C 0.76369 0.54325 0.7649 0.0
C802 C 0.77761 0.5433 0.76428 0.0
C803 C 0.81827 0.54417 0.76244 0.0
C804 C 0.80422 0.54375 0.76307 0.0
H805 H 0.748 0.56018 0.78505 0.0
H806 H 0.77071 0.56026 0.78404 0.0
H807 H 0.77722 0.53992 0.73649 0.0
H808 H 0.83393 0.52636 0.74459 0.0
H809 H 0.81097 0.52583 0.74533 0.0
C810 C 0.22589 0.72884 0.93569 0.0
C811 C 0.21287 0.72885 0.9339 0.0
C812 C 0.23905 0.74171 0.93514 0.0
C813 C 0.25569 0.77955 0.92036 0.0
H814 H 0.28647 0.7854 0.9515 0.0
C815 C 0.3129 0.82879 0.91446 0.0
C816 C 0.32006 0.83545 0.92994 0.0
C817 C 0.30001 0.81564 0.91482 0.0
C818 C 0.27796 0.78398 0.94278 0.0
H819 H 0.20353 0.74251 0.93051 0.0
H820 H 0.22644 0.76491 0.92961 0.0
H821 H 0.26358 0.76295 0.95265 0.0
H822 H 0.31933 0.83327 0.95794 0.0
H823 H 0.29673 0.81053 0.95858 0.0
H824 H 0.26994 0.8007 0.91077 0.0
C825 C 0.22651 0.75493 0.93111 0.0
C826 C 0.26488 0.77103 0.9433 0.0
C827 C 0.21335 0.74207 0.93163 0.0
C828 C 0.31403 0.82855 0.94578 0.0
C829 C 0.30115 0.8154 0.94613 0.0
C830 C 0.26877 0.79249 0.91984 0.0
C831 C 0.23954 0.75493 0.9328 0.0
C832 C 0.25355 0.76865 0.93213 0.0
C833 C 0.29394 0.80879 0.93066 0.0
C834 C 0.28007 0.7949 0.93107 0.0
H835 H 0.22592 0.71884 0.93722 0.0
H836 H 0.24887 0.74127 0.93624 0.0
H837 H 0.24729 0.77804 0.91142 0.0
H838 H 0.31714 0.83384 0.90204 0.0
H839 H 0.29485 0.8108 0.90264 0.0
C840 C 0.46775 0.05068 0.07108 0.0
C841 C 0.47711 0.065 0.06613 0.0
C842 C 0.4618 0.03973 0.05868 0.0
C843 C 0.4682 0.0311 1.01438 0.0
H844 H 0.42919 0.99925 0.01844 0.0
C845 C 0.44812 0.97954 0.97383 0.0
C846 C 0.43419 0.9732 0.96682 0.0
C847 C 0.45283 0.99074 0.98584 0.0
C848 C 0.44007 1.00812 0.01703 0.0
H849 H 0.48737 0.07901 0.04413 0.0
H850 H 0.4768 0.05996 0.02246 0.0
H851 H 0.43805 0.01906 0.03913 0.0
H852 H 0.41425 0.97366 0.96712 0.0
H853 H 0.42248 0.99324 0.98811 0.0
H854 H 0.4702 0.02028 0.99218 0.0
C855 C 0.47419 0.05717 0.03599 0.0
C856 C 0.4452 0.01941 0.029 0.0
C857 C 0.48013 0.06813 0.0484 0.0
C858 C 0.42499 0.97819 0.97238 0.0
C859 C 0.42972 0.98943 0.98441 0.0
C860 C 0.46309 0.01981 1.00244 0.0
C861 C 0.46507 0.0428 0.04098 0.0
C862 C 0.45936 0.03101 0.02789 0.0
C863 C 0.44375 0.99592 0.99118 0.0
C864 C 0.44899 1.00812 1.00367 0.0
H865 H 0.46504 0.0479 0.0846 0.0
H866 H 0.45492 0.02878 0.06302 0.0
H867 H 0.47921 0.03976 1.01321 0.0
H868 H 0.4554 0.97577 0.97012 0.0
H869 H 0.46359 0.99526 0.99105 0.0
C870 C 0.4707 0.43057 0.12574 0.0
C871 C 0.47732 0.42275 0.13105 0.0
C872 C 0.46428 0.43529 0.13785 0.0
C873 C 0.44989 0.42945 0.18266 0.0
H874 H 0.45677 0.46829 0.17781 0.0
C875 C 0.43665 0.4582 0.23701 0.0
C876 C 0.43126 0.46723 0.23218 0.0
C877 C 0.44139 0.45211 0.22445 0.0
C878 C 0.45455 0.45734 0.17924 0.0
H879 H 0.48218 0.41363 0.15334 0.0
H880 H 0.47093 0.42184 0.17447 0.0
H881 H 0.46659 0.45884 0.15645 0.0
H882 H 0.4265 0.47677 0.21026 0.0
H883 H 0.4345 0.46594 0.18834 0.0
H884 H 0.43791 0.428 0.20553 0.0
C885 C 0.4706 0.4242 0.16088 0.0
C886 C 0.4602 0.45192 0.16698 0.0
C887 C 0.47705 0.41949 0.14876 0.0
C888 C 0.43048 0.46979 0.21444 0.0
C889 C 0.43523 0.46371 0.20188 0.0
C890 C 0.44422 0.43487 0.19493 0.0
C891 C 0.46427 0.4323 0.1556 0.0
C892 C 0.45799 0.43792 0.16854 0.0
C893 C 0.44087 0.45489 0.20673 0.0
C894 C 0.44652 0.44891 0.19341 0.0
H895 H 0.47045 0.43303 0.11218 0.0
H896 H 0.45926 0.44126 0.13327 0.0
H897 H 0.4478 0.41855 0.18414 0.0
H898 H 0.43724 0.45584 0.25053 0.0
H899 H 0.44577 0.44548 0.22869 0.0
C900 C 0.07239 0.48143 0.31075 0.0
C901 C 0.07601 0.47279 0.30069 0.0
C902 C 0.06108 0.47526 0.32267 0.0
C903 C 0.03808 0.442 0.34765 0.0
H904 H 1.01292 0.45808 0.35086 0.0
C905 C 0.98591 0.41604 0.3892 0.0
C906 C 0.98316 0.42549 0.39891 0.0
C907 C 0.99703 0.42134 0.37692 0.0
C908 C 1.01991 0.45354 0.35026 0.0
H909 H 0.07063 0.45084 0.29546 0.0
H910 H 0.05084 0.44005 0.31627 0.0
H911 H 0.0328 0.46818 0.33034 0.0
H912 H 0.98981 0.44793 0.403 0.0
H913 H 1.00924 0.45713 0.3819 0.0
H914 H 1.02513 0.42736 0.36763 0.0
C915 C 0.05687 0.45163 0.31505 0.0
C916 C 0.03134 0.45935 0.33849 0.0
C917 C 0.06822 0.45782 0.30312 0.0
C918 C 0.99172 0.44034 0.39592 0.0
C919 C 1.00277 0.44561 0.38366 0.0
C920 C 1.02661 0.43617 0.35943 0.0
C921 C 0.05306 0.46027 0.32486 0.0
C922 C 0.04066 0.45375 0.33713 0.0
C923 C 1.00559 0.4362 0.374 0.0
C924 C 1.01746 0.44196 0.36099 0.0
H925 H 0.07834 0.49301 0.30946 0.0
H926 H 0.05867 0.48227 0.33026 0.0
H927 H 0.04512 0.43751 0.34707 0.0
H928 H 0.97961 0.40455 0.39125 0.0
H929 H 0.99882 0.41377 0.36961 0.0
C930 C 0.62217 0.05047 0.46109 0.0
C931 C 0.62583 0.06455 0.46575 0.0
C932 C 0.61706 0.03952 0.47352 0.0
C933 C 0.59949 0.02988 0.51652 0.0
H934 H 0.61034 1.00048 0.51571 0.0
C935 C 0.58218 0.98729 0.5706 0.0
C936 C 0.57748 0.97304 0.56555 0.0
C937 C 0.58869 0.99854 0.55865 0.0
C938 C 0.60709 1.00853 0.51601 0.0
H939 H 0.62711 0.07814 0.48725 0.0
H940 H 0.61845 0.05913 0.50897 0.0
H941 H 0.62078 0.02003 0.49463 0.0
H942 H 0.57609 0.95953 0.54389 0.0
H943 H 0.58748 0.97918 0.52304 0.0
H944 H 0.58576 1.01837 0.53782 0.0
C945 C 0.61938 0.05651 0.49565 0.0
C946 C 0.61308 0.01974 0.50393 0.0
C947 C 0.62451 0.06746 0.48322 0.0
C948 C 0.57971 0.97038 0.54829 0.0
C949 C 0.58625 0.98166 0.53632 0.0
C950 C 0.59351 1.01868 0.5286 0.0
C951 C 0.61545 0.04236 0.49093 0.0
C952 C 0.60934 0.03056 0.50401 0.0
C953 C 0.59071 0.99587 0.54132 0.0
C954 C 0.59722 1.00784 0.5285 0.0
H955 H 0.62321 0.04787 0.44779 0.0
H956 H 0.61404 0.02875 0.46938 0.0
H957 H 0.59614 0.03785 0.51678 0.0
H958 H 0.58091 0.98979 0.58386 0.0
H959 H 0.59224 1.00938 0.56305 0.0
C960 C 0.61005 0.55618 0.71809 0.0
C961 C 0.62192 0.5648 0.72873 0.0
C962 C 0.60496 0.56239 0.7062 0.0
C963 C 0.61495 0.59614 0.68248 0.0
H964 H 0.57368 0.57893 0.67749 0.0
C965 C 0.58858 0.62191 0.64098 0.0
C966 C 0.57684 0.6125 0.63061 0.0
C967 C 0.59434 0.61655 0.65324 0.0
C968 C 0.58523 0.5838 0.67859 0.0
H969 H 0.6378 0.58678 0.73505 0.0
H970 H 0.62888 0.59765 0.71431 0.0
H971 H 0.58336 0.56876 0.69801 0.0
H972 H 0.56177 0.59004 0.62532 0.0
H973 H 0.5719 0.58075 0.6464 0.0
H974 H 0.61677 0.61119 0.663 0.0
C975 C 0.62361 0.58605 0.71503 0.0
C976 C 0.5908 0.57795 0.69036 0.0
C977 C 0.62874 0.57982 0.72693 0.0
C978 C 0.57093 0.59761 0.63291 0.0
C979 C 0.57664 0.59227 0.64516 0.0
C980 C 0.60937 0.60201 0.6707 0.0
C981 C 0.61156 0.57741 0.70463 0.0
C982 C 0.60573 0.58395 0.69236 0.0
C983 C 0.58841 0.60166 0.65549 0.0
C984 C 0.59443 0.59583 0.6685 0.0
H985 H 0.60471 0.54458 0.7189 0.0
H986 H 0.59586 0.55539 0.69814 0.0
H987 H 0.6265 0.60096 0.68355 0.0
H988 H 0.59346 0.63343 0.63946 0.0
H989 H 0.60333 0.62408 0.66107 0.0
C990 C 0.99079 0.58237 0.80153 0.0
C991 C 0.98144 0.56742 0.80147 0.0
C992 C 1.00184 0.58877 0.81381 0.0
C993 C 1.01332 0.58241 0.85663 0.0
H994 H 0.05144 0.61142 0.84176 0.0
C995 C 0.0631 0.59977 0.89969 0.0
C996 C 0.07364 0.61441 0.90022 0.0
C997 C 0.0518 0.5947 0.88778 0.0
C998 C 0.04082 0.60348 0.84619 0.0
H999 H 0.97614 0.54754 0.8146 0.0
H1000 H 0.99543 0.55864 0.83585 0.0
H1001 H 0.03168 0.60147 0.82094 0.0
H1002 H 0.08052 0.63519 0.88851 0.0
H1003 H 0.06079 0.62632 0.86766 0.0
H1004 H 1.02243 0.58433 0.88183 0.0
C1005 C 0.99422 0.56546 0.82646 0.0
C1006 C 0.02949 0.59777 0.83424 0.0
C1007 C 0.98324 0.55906 0.81416 0.0
C1008 C 0.07268 0.62383 0.88836 0.0
C1009 C 0.06135 0.61874 0.8764 0.0
C1010 C 1.02463 0.58812 0.86856 0.0
C1011 C 1.00371 0.58038 0.8264 0.0
C1012 C 1.01563 0.58705 0.83928 0.0
C1013 C 0.05073 0.60412 0.87603 0.0
C1014 C 0.03857 0.5986 0.86346 0.0
H1015 H 0.98976 0.5891 0.79186 0.0
H1016 H 1.00888 0.60031 0.81349 0.0
H1017 H 1.00274 0.57437 0.86103 0.0
H1018 H 0.06365 0.59214 0.90836 0.0
H1019 H 0.04401 0.58333 0.88763 0.0
loop_
_geom_bond_atom_site_label_1
_geom_bond_atom_site_label_2
_geom_bond_distance
_geom_bond_site_symmetry_2
_ccdc_geom_bond_type
C0 C1 1.264 . S
C0 C5 1.479 . S
C0 C10 1.465 . S
C1 C0 1.264 . S
C1 C3 1.339 . S
C1 H28 0.931 . S
C2 C3 1.395 . S
C2 C4 1.320 . S
C3 C1 1.339 . S
C3 C2 1.395 . S
C3 H29 0.929 . S
C4 C2 1.320 . S
C4 C5 1.405 . S
C4 H30 0.930 . S
C5 C0 1.479 . S
C5 C4 1.405 . S
C5 H31 0.931 . S
U6 O7 2.454 . S
U6 O8 2.458 . S
U6 C9 2.984 . S
U6 C10 2.847 . S
U6 C23 2.882 . S
U6 O24 2.441 . S
U6 O25 2.420 . S
U6 O26 2.455 . S
U6 O27 2.449 . S
O7 U6 2.454 . S
O7 C9 1.353 . S
O8 U6 2.458 . S
O8 C9 1.286 . S
C9 U6 2.984 . S
C9 O7 1.353 . S
C9 O8 1.286 . S
C9 C11 1.363 . S
C10 C0 1.465 . S
C10 U6 2.847 . S
C10 O24 1.249 . S
C10 O25 1.202 . S
C11 C9 1.363 . S
C11 C13 1.408 . S
C11 C16 1.342 . S
C12 C13 1.310 . S
C12 C15 1.461 . S
C12 H32 0.932 . S
C13 C11 1.408 . S
C13 C12 1.310 . S
C13 H33 0.930 . S
C14 C15 1.474 . S
C14 C16 1.285 . S
C14 H34 0.929 . S
C15 C12 1.461 . S
C15 C14 1.474 . S
C16 C11 1.342 . S
C16 C14 1.285 . S
C16 H35 0.930 . S
C17 C20 1.424 . S
C17 C22 1.245 . S
C17 C23 1.428 . S
C18 C21 1.260 . S
C18 C22 1.477 . S
C18 H36 0.932 . S
C19 C20 1.384 . S
C19 C21 1.479 . S
C19 H37 0.929 . S
C20 C17 1.424 . S
C20 C19 1.384 . S
C20 H38 0.928 . S
C21 C18 1.260 . S
C21 C19 1.479 . S
C22 C17 1.245 . S
C22 C18 1.477 . S
C22 H39 0.932 . S
C23 U6 2.882 . S
C23 C17 1.428 . S
C23 O26 1.301 . S
C23 O27 1.282 . S
O24 U6 2.441 . S
O24 C10 1.249 . S
O25 U6 2.420 . S
O25 C10 1.202 . S
O26 U6 2.455 . S
O26 C23 1.301 . S
O27 U6 2.449 . S
O27 C23 1.282 . S
H28 C1 0.931 . S
H29 C3 0.929 . S
H30 C4 0.930 . S
H31 C5 0.931 . S
H32 C12 0.932 . S
H33 C13 0.930 . S
H34 C14 0.929 . S
H35 C16 0.930 . S
H36 C18 0.932 . S
H37 C19 0.929 . S
H38 C20 0.928 . S
H39 C22 0.932 . S
C40 C41 1.264 . S
C40 C45 1.479 . S
C40 C50 1.465 . S
C41 C40 1.264 . S
C41 C43 1.339 . S
C41 H68 0.931 . S
C42 C43 1.395 . S
C42 C44 1.320 . S
C43 C41 1.339 . S
C43 C42 1.395 . S
C43 H69 0.929 . S
C44 C42 1.320 . S
C44 C45 1.405 . S
C44 H70 0.930 . S
C45 C40 1.479 . S
C45 C44 1.405 . S
C45 H71 0.931 . S
U46 O47 2.454 . S
U46 O48 2.458 . S
U46 C49 2.984 . S
U46 C50 2.847 . S
U46 C63 2.882 . S
U46 O64 2.441 . S
U46 O65 2.420 . S
U46 O66 2.455 . S
U46 O67 2.449 . S
O47 U46 2.454 . S
O47 C49 1.353 . S
O48 U46 2.458 . S
O48 C49 1.286 . S
C49 U46 2.984 . S
C49 O47 1.353 . S
C49 O48 1.286 . S
C49 C51 1.363 . S
C50 C40 1.465 . S
C50 U46 2.847 . S
C50 O64 1.249 . S
C50 O65 1.202 . S
C51 C49 1.363 . S
C51 C53 1.408 . S
C51 C56 1.342 . S
C52 C53 1.310 . S
C52 C55 1.461 . S
C52 H72 0.932 . S
C53 C51 1.408 . S
C53 C52 1.310 . S
C53 H73 0.930 . S
C54 C55 1.474 . S
C54 C56 1.285 . S
C54 H74 0.929 . S
C55 C52 1.461 . S
C55 C54 1.474 . S
C56 C51 1.342 . S
C56 C54 1.285 . S
C56 H75 0.930 . S
C57 C60 1.424 . S
C57 C62 1.245 . S
C57 C63 1.428 . S
C58 C61 1.260 . S
C58 C62 1.477 . S
C58 H76 0.932 . S
C59 C60 1.384 . S
C59 C61 1.479 . S
C59 H77 0.929 . S
C60 C57 1.424 . S
C60 C59 1.384 . S
C60 H78 0.928 . S
C61 C58 1.260 . S
C61 C59 1.479 . S
C62 C57 1.245 . S
C62 C58 1.477 . S
C62 H79 0.932 . S
C63 U46 2.882 . S
C63 C57 1.428 . S
C63 O66 1.301 . S
C63 O67 1.282 . S
O64 U46 2.441 . S
O64 C50 1.249 . S
O65 U46 2.420 . S
O65 C50 1.202 . S
O66 U46 2.455 . S
O66 C63 1.301 . S
O67 U46 2.449 . S
O67 C63 1.282 . S
H68 C41 0.931 . S
H69 C43 0.929 . S
H70 C44 0.930 . S
H71 C45 0.931 . S
H72 C52 0.932 . S
H73 C53 0.930 . S
H74 C54 0.929 . S
H75 C56 0.930 . S
H76 C58 0.932 . S
H77 C59 0.929 . S
H78 C60 0.928 . S
H79 C62 0.932 . S
C80 C81 1.264 . S
C80 C85 1.479 . S
C80 C90 1.465 . S
C81 C80 1.264 . S
C81 C83 1.339 . S
C81 H108 0.931 . S
C82 C83 1.395 . S
C82 C84 1.320 . S
C83 C81 1.339 . S
C83 C82 1.395 . S
C83 H109 0.929 . S
C84 C82 1.320 . S
C84 C85 1.405 . S
C84 H110 0.930 . S
C85 C80 1.479 . S
C85 C84 1.405 . S
C85 H111 0.931 . S
U86 O87 2.454 . S
U86 O88 2.458 . S
U86 C89 2.984 . S
U86 C90 2.847 . S
U86 C103 2.882 . S
U86 O104 2.441 . S
U86 O105 2.420 . S
U86 O106 2.455 . S
U86 O107 2.449 . S
O87 U86 2.454 . S
O87 C89 1.353 . S
O88 U86 2.458 . S
O88 C89 1.286 . S
C89 U86 2.984 . S
C89 O87 1.353 . S
C89 O88 1.286 . S
C89 C91 1.363 . S
C90 C80 1.465 . S
C90 U86 2.847 . S
C90 O104 1.249 . S
C90 O105 1.202 . S
C91 C89 1.363 . S
C91 C93 1.408 . S
C91 C96 1.342 . S
C92 C93 1.310 . S
C92 C95 1.461 . S
C92 H112 0.932 . S
C93 C91 1.408 . S
C93 C92 1.310 . S
C93 H113 0.930 . S
C94 C95 1.474 . S
C94 C96 1.285 . S
C94 H114 0.929 . S
C95 C92 1.461 . S
C95 C94 1.474 . S
C96 C91 1.342 . S
C96 C94 1.285 . S
C96 H115 0.930 . S
C97 C100 1.424 . S
C97 C102 1.245 . S
C97 C103 1.428 . S
C98 C101 1.260 . S
C98 C102 1.477 . S
C98 H116 0.932 . S
C99 C100 1.384 . S
C99 C101 1.479 . S
C99 H117 0.929 . S
C100 C97 1.424 . S
C100 C99 1.384 . S
C100 H118 0.928 . S
C101 C98 1.260 . S
C101 C99 1.479 . S
C102 C97 1.245 . S
C102 C98 1.477 . S
C102 H119 0.932 . S
C103 U86 2.882 . S
C103 C97 1.428 . S
C103 O106 1.301 . S
C103 O107 1.282 . S
O104 U86 2.441 . S
O104 C90 1.249 . S
O105 U86 2.420 . S
O105 C90 1.202 . S
O106 U86 2.455 . S
O106 C103 1.301 . S
O107 U86 2.449 . S
O107 C103 1.282 . S
H108 C81 0.931 . S
H109 C83 0.929 . S
H110 C84 0.930 . S
H111 C85 0.931 . S
H112 C92 0.932 . S
H113 C93 0.930 . S
H114 C94 0.929 . S
H115 C96 0.930 . S
H116 C98 0.932 . S
H117 C99 0.929 . S
H118 C100 0.928 . S
H119 C102 0.932 . S
C120 C121 1.264 . S
C120 C125 1.479 . S
C120 C130 1.465 . S
C121 C120 1.264 . S
C121 C123 1.339 . S
C121 H148 0.931 . S
C122 C123 1.395 . S
C122 C124 1.320 . S
C123 C121 1.339 . S
C123 C122 1.395 . S
C123 H149 0.929 . S
C124 C122 1.320 . S
C124 C125 1.405 . S
C124 H150 0.930 . S
C125 C120 1.479 . S
C125 C124 1.405 . S
C125 H151 0.931 . S
U126 O127 2.454 . S
U126 O128 2.458 . S
U126 C129 2.984 . S
U126 C130 2.847 . S
U126 C143 2.882 . S
U126 O144 2.441 . S
U126 O145 2.420 . S
U126 O146 2.455 . S
U126 O147 2.449 . S
O127 U126 2.454 . S
O127 C129 1.353 . S
O128 U126 2.458 . S
O128 C129 1.286 . S
C129 U126 2.984 . S
C129 O127 1.353 . S
C129 O128 1.286 . S
C129 C131 1.363 . S
C130 C120 1.465 . S
C130 U126 2.847 . S
C130 O144 1.249 . S
C130 O145 1.202 . S
C131 C129 1.363 . S
C131 C133 1.408 . S
C131 C136 1.342 . S
C132 C133 1.310 . S
C132 C135 1.461 . S
C132 H152 0.932 . S
C133 C131 1.408 . S
C133 C132 1.310 . S
C133 H153 0.930 . S
C134 C135 1.474 . S
C134 C136 1.285 . S
C134 H154 0.929 . S
C135 C132 1.461 . S
C135 C134 1.474 . S
C136 C131 1.342 . S
C136 C134 1.285 . S
C136 H155 0.930 . S
C137 C140 1.424 . S
C137 C142 1.245 . S
C137 C143 1.428 . S
C138 C141 1.260 . S
C138 C142 1.477 . S
C138 H156 0.932 . S
C139 C140 1.384 . S
C139 C141 1.479 . S
C139 H157 0.929 . S
C140 C137 1.424 . S
C140 C139 1.384 . S
C140 H158 0.928 . S
C141 C138 1.260 . S
C141 C139 1.479 . S
C142 C137 1.245 . S
C142 C138 1.477 . S
C142 H159 0.932 . S
C143 U126 2.882 . S
C143 C137 1.428 . S
C143 O146 1.301 . S
C143 O147 1.282 . S
O144 U126 2.441 . S
O144 C130 1.249 . S
O145 U126 2.420 . S
O145 C130 1.202 . S
O146 U126 2.455 . S
O146 C143 1.301 . S
O147 U126 2.449 . S
O147 C143 1.282 . S
H148 C121 0.931 . S
H149 C123 0.929 . S
H150 C124 0.930 . S
H151 C125 0.931 . S
H152 C132 0.932 . S
H153 C133 0.930 . S
H154 C134 0.929 . S
H155 C136 0.930 . S
H156 C138 0.932 . S
H157 C139 0.929 . S
H158 C140 0.928 . S
H159 C142 0.932 . S
C160 C161 1.264 . S
C160 C165 1.479 . S
C160 C170 1.465 . S
C161 C160 1.264 . S
C161 C163 1.339 . S
C161 H188 0.931 . S
C162 C163 1.395 . S
C162 C164 1.320 . S
C163 C161 1.339 . S
C163 C162 1.395 . S
C163 H189 0.929 . S
C164 C162 1.320 . S
C164 C165 1.405 . S
C164 H190 0.930 . S
C165 C160 1.479 . S
C165 C164 1.405 . S
C165 H191 0.931 . S
U166 O167 2.454 . S
U166 O168 2.458 . S
U166 C169 2.984 . S
U166 C170 2.847 . S
U166 C183 2.882 . S
U166 O184 2.441 . S
U166 O185 2.420 . S
U166 O186 2.455 . S
U166 O187 2.449 . S
O167 U166 2.454 . S
O167 C169 1.353 . S
O168 U166 2.458 . S
O168 C169 1.286 . S
C169 U166 2.984 . S
C169 O167 1.353 . S
C169 O168 1.286 . S
C169 C171 1.363 . S
C170 C160 1.465 . S
C170 U166 2.847 . S
C170 O184 1.249 . S
C170 O185 1.202 . S
C171 C169 1.363 . S
C171 C173 1.408 . S
C171 C176 1.342 . S
C172 C173 1.310 . S
C172 C175 1.461 . S
C172 H192 0.932 . S
C173 C171 1.408 . S
C173 C172 1.310 . S
C173 H193 0.930 . S
C174 C175 1.474 . S
C174 C176 1.285 . S
C174 H194 0.929 . S
C175 C172 1.461 . S
C175 C174 1.474 . S
C176 C171 1.342 . S
C176 C174 1.285 . S
C176 H195 0.930 . S
C177 C180 1.424 . S
C177 C182 1.245 . S
C177 C183 1.428 . S
C178 C181 1.260 . S
C178 C182 1.477 . S
C178 H196 0.932 . S
C179 C180 1.384 . S
C179 C181 1.479 . S
C179 H197 0.929 . S
C180 C177 1.424 . S
C180 C179 1.384 . S
C180 H198 0.928 . S
C181 C178 1.260 . S
C181 C179 1.479 . S
C182 C177 1.245 . S
C182 C178 1.477 . S
C182 H199 0.932 . S
C183 U166 2.882 . S
C183 C177 1.428 . S
C183 O186 1.301 . S
C183 O187 1.282 . S
O184 U166 2.441 . S
O184 C170 1.249 . S
O185 U166 2.420 . S
O185 C170 1.202 . S
O186 U166 2.455 . S
O186 C183 1.301 . S
O187 U166 2.449 . S
O187 C183 1.282 . S
H188 C161 0.931 . S
H189 C163 0.929 . S
H190 C164 0.930 . S
H191 C165 0.931 . S
H192 C172 0.932 . S
H193 C173 0.930 . S
H194 C174 0.929 . S
H195 C176 0.930 . S
H196 C178 0.932 . S
H197 C179 0.929 . S
H198 C180 0.928 . S
H199 C182 0.932 . S
C200 C201 1.264 . S
C200 C205 1.479 . S
C200 C210 1.465 . S
C201 C200 1.264 . S
C201 C203 1.339 . S
C201 H228 0.931 . S
C202 C203 1.395 . S
C202 C204 1.320 . S
C203 C201 1.339 . S
C203 C202 1.395 . S
C203 H229 0.929 . S
C204 C202 1.320 . S
C204 C205 1.405 . S
C204 H230 0.930 . S
C205 C200 1.479 . S
C205 C204 1.405 . S
C205 H231 0.931 . S
U206 O207 2.454 . S
U206 O208 2.458 . S
U206 C209 2.984 . S
U206 C210 2.847 . S
U206 C223 2.882 . S
U206 O224 2.441 . S
U206 O225 2.420 . S
U206 O226 2.455 . S
U206 O227 2.449 . S
O207 U206 2.454 . S
O207 C209 1.353 . S
O208 U206 2.458 . S
O208 C209 1.286 . S
C209 U206 2.984 . S
C209 O207 1.353 . S
C209 O208 1.286 . S
C209 C211 1.363 . S
C210 C200 1.465 . S
C210 U206 2.847 . S
C210 O224 1.249 . S
C210 O225 1.202 . S
C211 C209 1.363 . S
C211 C213 1.408 . S
C211 C216 1.342 . S
C212 C213 1.310 . S
C212 C215 1.461 . S
C212 H232 0.932 . S
C213 C211 1.408 . S
C213 C212 1.310 . S
C213 H233 0.930 . S
C214 C215 1.474 . S
C214 C216 1.285 . S
C214 H234 0.929 . S
C215 C212 1.461 . S
C215 C214 1.474 . S
C216 C211 1.342 . S
C216 C214 1.285 . S
C216 H235 0.930 . S
C217 C220 1.424 1_556 S
C217 C222 1.245 . S
C217 C223 1.428 . S
C218 C221 1.260 . S
C218 C222 1.477 1_554 S
C218 H236 0.932 . S
C219 C220 1.384 . S
C219 C221 1.479 . S
C219 H237 0.929 . S
C220 C217 1.424 1_554 S
C220 C219 1.384 . S
C220 H238 0.950 . S
C221 C218 1.260 . S
C221 C219 1.479 . S
C222 C217 1.245 . S
C222 C218 1.477 1_556 S
C222 H239 0.932 . S
C223 U206 2.882 . S
C223 C217 1.428 . S
C223 O226 1.301 . S
C223 O227 1.282 . S
O224 U206 2.441 . S
O224 C210 1.249 . S
O225 U206 2.420 . S
O225 C210 1.202 . S
O226 U206 2.455 . S
O226 C223 1.301 . S
O227 U206 2.449 . S
O227 C223 1.282 . S
H228 C201 0.931 . S
H229 C203 0.929 . S
H230 C204 0.930 . S
H231 C205 0.931 . S
H232 C212 0.932 . S
H233 C213 0.930 . S
H234 C214 0.929 . S
H235 C216 0.930 . S
H236 C218 0.932 . S
H237 C219 0.929 . S
H238 C220 0.950 . S
H239 C222 0.932 . S
C240 C241 1.264 . S
C240 C245 1.479 . S
C240 C250 1.465 . S
C241 C240 1.264 . S
C241 C243 1.339 . S
C241 H268 0.931 . S
C242 C243 1.395 . S
C242 C244 1.320 . S
C243 C241 1.339 . S
C243 C242 1.395 . S
C243 H269 0.929 . S
C244 C242 1.320 . S
C244 C245 1.405 . S
C244 H270 0.930 . S
C245 C240 1.479 . S
C245 C244 1.405 . S
C245 H271 0.931 . S
U246 O247 2.454 . S
U246 O248 2.458 . S
U246 C249 2.984 . S
U246 C250 2.847 . S
U246 C263 2.882 . S
U246 O264 2.441 . S
U246 O265 2.420 . S
U246 O266 2.455 . S
U246 O267 2.449 . S
O247 U246 2.454 . S
O247 C249 1.353 . S
O248 U246 2.458 . S
O248 C249 1.286 . S
C249 U246 2.984 . S
C249 O247 1.353 . S
C249 O248 1.286 . S
C249 C251 1.363 . S
C250 C240 1.465 . S
C250 U246 2.847 . S
C250 O264 1.249 . S
C250 O265 1.202 . S
C251 C249 1.363 . S
C251 C253 1.408 . S
C251 C256 1.342 . S
C252 C253 1.310 . S
C252 C255 1.461 . S
C252 H272 0.932 . S
C253 C251 1.408 . S
C253 C252 1.310 . S
C253 H273 0.930 . S
C254 C255 1.474 . S
C254 C256 1.285 . S
C254 H274 0.929 . S
C255 C252 1.461 . S
C255 C254 1.474 . S
C256 C251 1.342 . S
C256 C254 1.285 . S
C256 H275 0.930 . S
C257 C260 1.424 . S
C257 C262 1.245 . S
C257 C263 1.428 . S
C258 C261 1.260 . S
C258 C262 1.477 . S
C258 H276 0.932 . S
C259 C260 1.384 . S
C259 C261 1.479 . S
C259 H277 0.929 . S
C260 C257 1.424 . S
C260 C259 1.384 . S
C260 H278 0.928 . S
C261 C258 1.260 . S
C261 C259 1.479 . S
C262 C257 1.245 . S
C262 C258 1.477 . S
C262 H279 0.932 . S
C263 U246 2.882 . S
C263 C257 1.428 . S
C263 O266 1.301 . S
C263 O267 1.282 . S
O264 U246 2.441 . S
O264 C250 1.249 . S
O265 U246 2.420 . S
O265 C250 1.202 . S
O266 U246 2.455 . S
O266 C263 1.301 . S
O267 U246 2.449 . S
O267 C263 1.282 . S
H268 C241 0.931 . S
H269 C243 0.929 . S
H270 C244 0.930 . S
H271 C245 0.931 . S
H272 C252 0.932 . S
H273 C253 0.930 . S
H274 C254 0.929 . S
H275 C256 0.930 . S
H276 C258 0.932 . S
H277 C259 0.929 . S
H278 C260 0.928 . S
H279 C262 0.932 . S
C280 C281 1.264 . S
C280 C285 1.479 . S
C280 C290 1.465 . S
C281 C280 1.264 . S
C281 C283 1.339 . S
C281 H308 0.931 . S
C282 C283 1.395 . S
C282 C284 1.320 . S
C283 C281 1.339 . S
C283 C282 1.395 . S
C283 H309 0.929 . S
C284 C282 1.320 . S
C284 C285 1.405 . S
C284 H310 0.930 . S
C285 C280 1.479 . S
C285 C284 1.405 . S
C285 H311 0.931 . S
U286 O287 2.454 . S
U286 O288 2.458 . S
U286 C289 2.984 . S
U286 C290 2.847 . S
U286 C303 2.882 . S
U286 O304 2.441 . S
U286 O305 2.420 . S
U286 O306 2.455 . S
U286 O307 2.449 . S
O287 U286 2.454 . S
O287 C289 1.353 . S
O288 U286 2.458 . S
O288 C289 1.286 . S
C289 U286 2.984 . S
C289 O287 1.353 . S
C289 O288 1.286 . S
C289 C291 1.363 . S
C290 C280 1.465 . S
C290 U286 2.847 . S
C290 O304 1.249 . S
C290 O305 1.202 . S
C291 C289 1.363 . S
C291 C293 1.408 . S
C291 C296 1.342 . S
C292 C293 1.310 . S
C292 C295 1.461 . S
C292 H312 0.932 . S
C293 C291 1.408 . S
C293 C292 1.310 . S
C293 H313 0.930 . S
C294 C295 1.474 . S
C294 C296 1.285 . S
C294 H314 0.929 . S
C295 C292 1.461 . S
C295 C294 1.474 . S
C296 C291 1.342 . S
C296 C294 1.285 . S
C296 H315 0.930 . S
C297 C300 1.424 . S
C297 C302 1.245 . S
C297 C303 1.428 . S
C298 C301 1.260 . S
C298 C302 1.477 . S
C298 H316 0.932 . S
C299 C300 1.384 . S
C299 C301 1.479 . S
C299 H317 0.929 . S
C300 C297 1.424 . S
C300 C299 1.384 . S
C300 H318 0.928 . S
C301 C298 1.260 . S
C301 C299 1.479 . S
C302 C297 1.245 . S
C302 C298 1.477 . S
C302 H319 0.932 . S
C303 U286 2.882 . S
C303 C297 1.428 . S
C303 O306 1.301 . S
C303 O307 1.282 . S
O304 U286 2.441 . S
O304 C290 1.249 . S
O305 U286 2.420 . S
O305 C290 1.202 . S
O306 U286 2.455 . S
O306 C303 1.301 . S
O307 U286 2.449 . S
O307 C303 1.282 . S
H308 C281 0.931 . S
H309 C283 0.929 . S
H310 C284 0.930 . S
H311 C285 0.931 . S
H312 C292 0.932 . S
H313 C293 0.930 . S
H314 C294 0.929 . S
H315 C296 0.930 . S
H316 C298 0.932 . S
H317 C299 0.929 . S
H318 C300 0.928 . S
H319 C302 0.932 . S
C320 C321 1.264 . S
C320 C325 1.479 . S
C320 C330 1.465 . S
C321 C320 1.264 . S
C321 C323 1.339 . S
C321 H348 0.931 . S
C322 C323 1.395 . S
C322 C324 1.320 . S
C323 C321 1.339 . S
C323 C322 1.395 . S
C323 H349 0.929 . S
C324 C322 1.320 . S
C324 C325 1.405 . S
C324 H350 0.930 . S
C325 C320 1.479 . S
C325 C324 1.405 . S
C325 H351 0.931 . S
U326 O327 2.454 . S
U326 O328 2.458 . S
U326 C329 2.984 . S
U326 C330 2.847 . S
U326 C343 2.882 . S
U326 O344 2.441 . S
U326 O345 2.420 . S
U326 O346 2.455 . S
U326 O347 2.449 . S
O327 U326 2.454 . S
O327 C329 1.353 . S
O328 U326 2.458 . S
O328 C329 1.286 . S
C329 U326 2.984 . S
C329 O327 1.353 . S
C329 O328 1.286 . S
C329 C331 1.363 . S
C330 C320 1.465 . S
C330 U326 2.847 . S
C330 O344 1.249 . S
C330 O345 1.202 . S
C331 C329 1.363 . S
C331 C333 1.408 . S
C331 C336 1.342 . S
C332 C333 1.310 . S
C332 C335 1.461 . S
C332 H352 0.932 . S
C333 C331 1.408 . S
C333 C332 1.310 . S
C333 H353 0.930 . S
C334 C335 1.474 . S
C334 C336 1.285 . S
C334 H354 0.929 . S
C335 C332 1.461 . S
C335 C334 1.474 . S
C336 C331 1.342 . S
C336 C334 1.285 . S
C336 H355 0.930 . S
C337 C340 1.424 1_554 S
C337 C342 1.245 . S
C337 C343 1.428 . S
C338 C341 1.260 . S
C338 C342 1.477 1_556 S
C338 H356 0.932 . S
C339 C340 1.384 . S
C339 C341 1.479 . S
C339 H357 0.929 . S
C340 C337 1.424 1_556 S
C340 C339 1.384 . S
C340 H358 0.950 . S
C341 C338 1.260 . S
C341 C339 1.479 . S
C342 C337 1.245 . S
C342 C338 1.477 1_554 S
C342 H359 0.932 . S
C343 U326 2.882 . S
C343 C337 1.428 . S
C343 O346 1.301 . S
C343 O347 1.282 . S
O344 U326 2.441 . S
O344 C330 1.249 . S
O345 U326 2.420 . S
O345 C330 1.202 . S
O346 U326 2.455 . S
O346 C343 1.301 . S
O347 U326 2.449 . S
O347 C343 1.282 . S
H348 C321 0.931 . S
H349 C323 0.929 . S
H350 C324 0.930 . S
H351 C325 0.931 . S
H352 C332 0.932 . S
H353 C333 0.930 . S
H354 C334 0.929 . S
H355 C336 0.930 . S
H356 C338 0.932 . S
H357 C339 0.929 . S
H358 C340 0.950 . S
H359 C342 0.932 . S
C360 C361 1.264 . S
C360 C365 1.479 . S
C360 C370 1.465 . S
C361 C360 1.264 . S
C361 C363 1.339 . S
C361 H388 0.931 . S
C362 C363 1.395 . S
C362 C364 1.320 . S
C363 C361 1.339 . S
C363 C362 1.395 . S
C363 H389 0.929 . S
C364 C362 1.320 . S
C364 C365 1.405 . S
C364 H390 0.930 . S
C365 C360 1.479 . S
C365 C364 1.405 . S
C365 H391 0.931 . S
U366 O367 2.454 . S
U366 O368 2.458 . S
U366 C369 2.984 . S
U366 C370 2.847 . S
U366 C383 2.882 . S
U366 O384 2.441 . S
U366 O385 2.420 . S
U366 O386 2.455 . S
U366 O387 2.449 . S
O367 U366 2.454 . S
O367 C369 1.353 . S
O368 U366 2.458 . S
O368 C369 1.286 . S
C369 U366 2.984 . S
C369 O367 1.353 . S
C369 O368 1.286 . S
C369 C371 1.363 . S
C370 C360 1.465 . S
C370 U366 2.847 . S
C370 O384 1.249 . S
C370 O385 1.202 . S
C371 C369 1.363 . S
C371 C373 1.408 . S
C371 C376 1.342 . S
C372 C373 1.310 . S
C372 C375 1.461 . S
C372 H392 0.932 . S
C373 C371 1.408 . S
C373 C372 1.310 . S
C373 H393 0.930 . S
C374 C375 1.474 . S
C374 C376 1.285 . S
C374 H394 0.929 . S
C375 C372 1.461 . S
C375 C374 1.474 . S
C376 C371 1.342 . S
C376 C374 1.285 . S
C376 H395 0.930 . S
C377 C380 1.424 . S
C377 C382 1.245 . S
C377 C383 1.428 . S
C378 C381 1.260 . S
C378 C382 1.477 . S
C378 H396 0.932 . S
C379 C380 1.384 . S
C379 C381 1.479 . S
C379 H397 0.929 . S
C380 C377 1.424 . S
C380 C379 1.384 . S
C380 H398 0.928 . S
C381 C378 1.260 . S
C381 C379 1.479 . S
C382 C377 1.245 . S
C382 C378 1.477 . S
C382 H399 0.932 . S
C383 U366 2.882 . S
C383 C377 1.428 . S
C383 O386 1.301 . S
C383 O387 1.282 . S
O384 U366 2.441 . S
O384 C370 1.249 . S
O385 U366 2.420 . S
O385 C370 1.202 . S
O386 U366 2.455 . S
O386 C383 1.301 . S
O387 U366 2.449 . S
O387 C383 1.282 . S
H388 C361 0.931 . S
H389 C363 0.929 . S
H390 C364 0.930 . S
H391 C365 0.931 . S
H392 C372 0.932 . S
H393 C373 0.930 . S
H394 C374 0.929 . S
H395 C376 0.930 . S
H396 C378 0.932 . S
H397 C379 0.929 . S
H398 C380 0.928 . S
H399 C382 0.932 . S
C400 C401 1.264 . S
C400 C405 1.479 . S
C400 C410 1.465 . S
C401 C400 1.264 . S
C401 C403 1.339 . S
C401 H428 0.931 . S
C402 C403 1.395 . S
C402 C404 1.320 . S
C403 C401 1.339 . S
C403 C402 1.395 . S
C403 H429 0.929 . S
C404 C402 1.320 . S
C404 C405 1.405 . S
C404 H430 0.930 . S
C405 C400 1.479 . S
C405 C404 1.405 . S
C405 H431 0.931 . S
U406 O407 2.454 . S
U406 O408 2.458 . S
U406 C409 2.984 . S
U406 C410 2.847 . S
U406 C423 2.882 . S
U406 O424 2.441 . S
U406 O425 2.420 . S
U406 O426 2.455 . S
U406 O427 2.449 . S
O407 U406 2.454 . S
O407 C409 1.353 . S
O408 U406 2.458 . S
O408 C409 1.286 . S
C409 U406 2.984 . S
C409 O407 1.353 . S
C409 O408 1.286 . S
C409 C411 1.363 . S
C410 C400 1.465 . S
C410 U406 2.847 . S
C410 O424 1.249 . S
C410 O425 1.202 . S
C411 C409 1.363 . S
C411 C413 1.408 . S
C411 C416 1.342 . S
C412 C413 1.310 . S
C412 C415 1.461 . S
C412 H432 0.932 . S
C413 C411 1.408 . S
C413 C412 1.310 . S
C413 H433 0.930 . S
C414 C415 1.474 . S
C414 C416 1.285 . S
C414 H434 0.929 . S
C415 C412 1.461 . S
C415 C414 1.474 . S
C416 C411 1.342 . S
C416 C414 1.285 . S
C416 H435 0.930 . S
C417 C420 1.424 . S
C417 C422 1.245 . S
C417 C423 1.428 . S
C418 C421 1.260 . S
C418 C422 1.477 . S
C418 H436 0.932 . S
C419 C420 1.384 . S
C419 C421 1.479 . S
C419 H437 0.929 . S
C420 C417 1.424 . S
C420 C419 1.384 . S
C420 H438 0.928 . S
C421 C418 1.260 . S
C421 C419 1.479 . S
C422 C417 1.245 . S
C422 C418 1.477 . S
C422 H439 0.932 . S
C423 U406 2.882 . S
C423 C417 1.428 . S
C423 O426 1.301 . S
C423 O427 1.282 . S
O424 U406 2.441 . S
O424 C410 1.249 . S
O425 U406 2.420 . S
O425 C410 1.202 . S
O426 U406 2.455 . S
O426 C423 1.301 . S
O427 U406 2.449 . S
O427 C423 1.282 . S
H428 C401 0.931 . S
H429 C403 0.929 . S
H430 C404 0.930 . S
H431 C405 0.931 . S
H432 C412 0.932 . S
H433 C413 0.930 . S
H434 C414 0.929 . S
H435 C416 0.930 . S
H436 C418 0.932 . S
H437 C419 0.929 . S
H438 C420 0.928 . S
H439 C422 0.932 . S
C440 C441 1.264 . S
C440 C445 1.479 . S
C440 C450 1.465 . S
C441 C440 1.264 . S
C441 C443 1.339 . S
C441 H468 0.931 . S
C442 C443 1.395 . S
C442 C444 1.320 . S
C443 C441 1.339 . S
C443 C442 1.395 . S
C443 H469 0.929 . S
C444 C442 1.320 . S
C444 C445 1.405 . S
C444 H470 0.930 . S
C445 C440 1.479 . S
C445 C444 1.405 . S
C445 H471 0.931 . S
U446 O447 2.454 . S
U446 O448 2.458 . S
U446 C449 2.984 . S
U446 C450 2.847 . S
U446 C463 2.882 . S
U446 O464 2.441 . S
U446 O465 2.420 . S
U446 O466 2.455 . S
U446 O467 2.449 . S
O447 U446 2.454 . S
O447 C449 1.353 . S
O448 U446 2.458 . S
O448 C449 1.286 . S
C449 U446 2.984 . S
C449 O447 1.353 . S
C449 O448 1.286 . S
C449 C451 1.363 . S
C450 C440 1.465 . S
C450 U446 2.847 . S
C450 O464 1.249 . S
C450 O465 1.202 . S
C451 C449 1.363 . S
C451 C453 1.408 . S
C451 C456 1.342 . S
C452 C453 1.310 . S
C452 C455 1.461 . S
C452 H472 0.932 . S
C453 C451 1.408 . S
C453 C452 1.310 . S
C453 H473 0.930 . S
C454 C455 1.474 . S
C454 C456 1.285 . S
C454 H474 0.929 . S
C455 C452 1.461 . S
C455 C454 1.474 . S
C456 C451 1.342 . S
C456 C454 1.285 . S
C456 H475 0.930 . S
C457 C460 1.424 . S
C457 C462 1.245 . S
C457 C463 1.428 . S
C458 C461 1.260 . S
C458 C462 1.477 . S
C458 H476 0.932 . S
C459 C460 1.384 . S
C459 C461 1.479 . S
C459 H477 0.929 . S
C460 C457 1.424 . S
C460 C459 1.384 . S
C460 H478 0.928 . S
C461 C458 1.260 . S
C461 C459 1.479 . S
C462 C457 1.245 . S
C462 C458 1.477 . S
C462 H479 0.932 . S
C463 U446 2.882 . S
C463 C457 1.428 . S
C463 O466 1.301 . S
C463 O467 1.282 . S
O464 U446 2.441 . S
O464 C450 1.249 . S
O465 U446 2.420 . S
O465 C450 1.202 . S
O466 U446 2.455 . S
O466 C463 1.301 . S
O467 U446 2.449 . S
O467 C463 1.282 . S
H468 C441 0.931 . S
H469 C443 0.929 . S
H470 C444 0.930 . S
H471 C445 0.931 . S
H472 C452 0.932 . S
H473 C453 0.930 . S
H474 C454 0.929 . S
H475 C456 0.930 . S
H476 C458 0.932 . S
H477 C459 0.929 . S
H478 C460 0.928 . S
H479 C462 0.932 . S
C480 C481 1.349 . S
C480 C482 1.327 . S
C480 H505 0.950 . S
C481 C480 1.349 . S
C481 C497 1.349 . S
C482 C480 1.327 . S
C482 C501 1.429 . S
C482 H506 0.950 . S
C483 C500 1.574 . S
C483 C502 1.368 . S
C483 H507 0.949 . S
H484 C488 0.949 . S
C485 C486 1.349 . S
C485 C487 1.327 . S
C485 H508 0.950 . S
C486 C485 1.349 . S
C486 C498 1.349 . S
C487 C485 1.327 . S
C487 C503 1.429 . S
C487 H509 0.950 . S
C488 H484 0.949 . S
C488 C496 1.574 . S
C488 C504 1.368 . S
H489 C497 0.950 . S
H490 C495 0.950 . S
H491 C496 0.949 . S
H492 C498 0.950 . S
H493 C499 0.950 . S
H494 C500 0.949 . S
C495 H490 0.950 . S
C495 C497 1.327 . S
C495 C501 1.429 . S
C496 C488 1.574 . S
C496 H491 0.949 . S
C496 C502 1.368 . S
C497 C481 1.349 . S
C497 H489 0.950 . S
C497 C495 1.327 . S
C498 C486 1.349 . S
C498 H492 0.950 . S
C498 C499 1.327 . S
C499 H493 0.950 . S
C499 C498 1.327 . S
C499 C503 1.429 . S
C500 C483 1.574 . S
C500 H494 0.949 . S
C500 C504 1.368 . S
C501 C482 1.429 . S
C501 C495 1.429 . S
C501 C502 1.523 . S
C502 C483 1.368 . S
C502 C496 1.368 . S
C502 C501 1.523 . S
C503 C487 1.429 . S
C503 C499 1.429 . S
C503 C504 1.523 . S
C504 C488 1.368 . S
C504 C500 1.368 . S
C504 C503 1.523 . S
H505 C480 0.950 . S
H506 C482 0.950 . S
H507 C483 0.949 . S
H508 C485 0.950 . S
H509 C487 0.950 . S
C510 C511 1.349 . S
C510 C512 1.327 . S
C510 H535 0.950 . S
C511 C510 1.349 . S
C511 C527 1.349 . S
C512 C510 1.327 . S
C512 C531 1.429 . S
C512 H536 0.950 . S
C513 C530 1.574 . S
C513 C532 1.368 . S
C513 H537 0.949 . S
H514 C518 0.949 . S
C515 C516 1.349 . S
C515 C517 1.327 . S
C515 H538 0.950 . S
C516 C515 1.349 . S
C516 C528 1.349 . S
C517 C515 1.327 . S
C517 C533 1.429 . S
C517 H539 0.950 . S
C518 H514 0.949 . S
C518 C526 1.574 . S
C518 C534 1.368 . S
H519 C527 0.950 . S
H520 C525 0.950 . S
H521 C526 0.949 . S
H522 C528 0.950 . S
H523 C529 0.950 . S
H524 C530 0.949 . S
C525 H520 0.950 . S
C525 C527 1.327 . S
C525 C531 1.429 . S
C526 C518 1.574 . S
C526 H521 0.949 . S
C526 C532 1.368 . S
C527 C511 1.349 . S
C527 H519 0.950 . S
C527 C525 1.327 . S
C528 C516 1.349 . S
C528 H522 0.950 . S
C528 C529 1.327 . S
C529 H523 0.950 . S
C529 C528 1.327 . S
C529 C533 1.429 . S
C530 C513 1.574 . S
C530 H524 0.949 . S
C530 C534 1.368 . S
C531 C512 1.429 . S
C531 C525 1.429 . S
C531 C532 1.523 . S
C532 C513 1.368 . S
C532 C526 1.368 . S
C532 C531 1.523 . S
C533 C517 1.429 . S
C533 C529 1.429 . S
C533 C534 1.523 . S
C534 C518 1.368 . S
C534 C530 1.368 . S
C534 C533 1.523 . S
H535 C510 0.950 . S
H536 C512 0.950 . S
H537 C513 0.949 . S
H538 C515 0.950 . S
H539 C517 0.950 . S
C540 C541 1.349 . S
C540 C542 1.327 . S
C540 H565 0.950 . S
C541 C540 1.349 . S
C541 C557 1.349 . S
C542 C540 1.327 . S
C542 C561 1.429 . S
C542 H566 0.950 . S
C543 C560 1.574 . S
C543 C562 1.368 . S
C543 H567 0.949 . S
H544 C548 0.949 . S
C545 C546 1.349 . S
C545 C547 1.327 . S
C545 H568 0.950 . S
C546 C545 1.349 . S
C546 C558 1.349 . S
C547 C545 1.327 . S
C547 C563 1.429 . S
C547 H569 0.950 . S
C548 H544 0.949 . S
C548 C556 1.574 . S
C548 C564 1.368 . S
H549 C557 0.950 . S
H550 C555 0.950 . S
H551 C556 0.949 . S
H552 C558 0.950 . S
H553 C559 0.950 . S
H554 C560 0.949 . S
C555 H550 0.950 . S
C555 C557 1.327 . S
C555 C561 1.429 . S
C556 C548 1.574 . S
C556 H551 0.949 . S
C556 C562 1.368 . S
C557 C541 1.349 . S
C557 H549 0.950 . S
C557 C555 1.327 . S
C558 C546 1.349 . S
C558 H552 0.950 . S
C558 C559 1.327 . S
C559 H553 0.950 . S
C559 C558 1.327 . S
C559 C563 1.429 . S
C560 C543 1.574 . S
C560 H554 0.949 . S
C560 C564 1.368 . S
C561 C542 1.429 . S
C561 C555 1.429 . S
C561 C562 1.523 . S
C562 C543 1.368 . S
C562 C556 1.368 . S
C562 C561 1.523 . S
C563 C547 1.429 . S
C563 C559 1.429 . S
C563 C564 1.523 . S
C564 C548 1.368 . S
C564 C560 1.368 . S
C564 C563 1.523 . S
H565 C540 0.950 . S
H566 C542 0.950 . S
H567 C543 0.949 . S
H568 C545 0.950 . S
H569 C547 0.950 . S
C570 C571 1.349 . S
C570 C572 1.327 . S
C570 H595 0.950 . S
C571 C570 1.349 . S
C571 C587 1.349 . S
C572 C570 1.327 . S
C572 C591 1.429 . S
C572 H596 0.950 . S
C573 C590 1.574 . S
C573 C592 1.368 . S
C573 H597 0.949 . S
H574 C578 0.949 . S
C575 C576 1.349 . S
C575 C577 1.327 . S
C575 H598 0.950 . S
C576 C575 1.349 . S
C576 C588 1.349 . S
C577 C575 1.327 . S
C577 C593 1.429 . S
C577 H599 0.950 . S
C578 H574 0.949 . S
C578 C586 1.574 . S
C578 C594 1.368 . S
H579 C587 0.950 . S
H580 C585 0.950 . S
H581 C586 0.949 . S
H582 C588 0.950 . S
H583 C589 0.950 . S
H584 C590 0.949 . S
C585 H580 0.950 . S
C585 C587 1.327 . S
C585 C591 1.429 . S
C586 C578 1.574 . S
C586 H581 0.949 . S
C586 C592 1.368 . S
C587 C571 1.349 . S
C587 H579 0.950 . S
C587 C585 1.327 . S
C588 C576 1.349 . S
C588 H582 0.950 . S
C588 C589 1.327 . S
C589 H583 0.950 . S
C589 C588 1.327 . S
C589 C593 1.429 . S
C590 C573 1.574 . S
C590 H584 0.949 . S
C590 C594 1.368 . S
C591 C572 1.429 . S
C591 C585 1.429 . S
C591 C592 1.523 . S
C592 C573 1.368 . S
C592 C586 1.368 . S
C592 C591 1.523 . S
C593 C577 1.429 . S
C593 C589 1.429 . S
C593 C594 1.523 . S
C594 C578 1.368 . S
C594 C590 1.368 . S
C594 C593 1.523 . S
H595 C570 0.950 . S
H596 C572 0.950 . S
H597 C573 0.949 . S
H598 C575 0.950 . S
H599 C577 0.950 . S
C600 C601 1.349 . S
C600 C602 1.327 . S
C600 H625 0.950 . S
C601 C600 1.349 . S
C601 C617 1.349 . S
C602 C600 1.327 . S
C602 C621 1.429 . S
C602 H626 0.950 . S
C603 C620 1.574 . S
C603 C622 1.368 . S
C603 H627 0.949 . S
H604 C608 0.949 . S
C605 C606 1.349 . S
C605 C607 1.327 . S
C605 H628 0.950 . S
C606 C605 1.349 . S
C606 C618 1.349 . S
C607 C605 1.327 . S
C607 C623 1.429 . S
C607 H629 0.950 . S
C608 H604 0.949 . S
C608 C616 1.574 . S
C608 C624 1.368 . S
H609 C617 0.950 . S
H610 C615 0.950 . S
H611 C616 0.949 . S
H612 C618 0.950 . S
H613 C619 0.950 . S
H614 C620 0.949 . S
C615 H610 0.950 . S
C615 C617 1.327 . S
C615 C621 1.429 . S
C616 C608 1.574 . S
C616 H611 0.949 . S
C616 C622 1.368 . S
C617 C601 1.349 . S
C617 H609 0.950 . S
C617 C615 1.327 . S
C618 C606 1.349 . S
C618 H612 0.950 . S
C618 C619 1.327 . S
C619 H613 0.950 . S
C619 C618 1.327 . S
C619 C623 1.429 . S
C620 C603 1.574 . S
C620 H614 0.949 . S
C620 C624 1.368 . S
C621 C602 1.429 . S
C621 C615 1.429 . S
C621 C622 1.523 . S
C622 C603 1.368 . S
C622 C616 1.368 . S
C622 C621 1.523 . S
C623 C607 1.429 . S
C623 C619 1.429 . S
C623 C624 1.523 . S
C624 C608 1.368 . S
C624 C620 1.368 . S
C624 C623 1.523 . S
H625 C600 0.950 . S
H626 C602 0.950 . S
H627 C603 0.949 . S
H628 C605 0.950 . S
H629 C607 0.950 . S
C630 C631 1.349 . S
C630 C632 1.327 . S
C630 H655 0.950 . S
C631 C630 1.349 . S
C631 C647 1.349 . S
C632 C630 1.327 . S
C632 C651 1.429 . S
C632 H656 0.950 . S
C633 C650 1.574 . S
C633 C652 1.368 . S
C633 H657 0.949 . S
H634 C638 0.949 . S
C635 C636 1.349 . S
C635 C637 1.327 . S
C635 H658 0.950 . S
C636 C635 1.349 . S
C636 C648 1.349 . S
C637 C635 1.327 . S
C637 C653 1.429 . S
C637 H659 0.950 . S
C638 H634 0.949 . S
C638 C646 1.574 . S
C638 C654 1.368 . S
H639 C647 0.950 . S
H640 C645 0.950 . S
H641 C646 0.949 . S
H642 C648 0.950 . S
H643 C649 0.950 . S
H644 C650 0.949 . S
C645 H640 0.950 . S
C645 C647 1.327 . S
C645 C651 1.429 . S
C646 C638 1.574 . S
C646 H641 0.949 . S
C646 C652 1.368 . S
C647 C631 1.349 . S
C647 H639 0.950 . S
C647 C645 1.327 . S
C648 C636 1.349 . S
C648 H642 0.950 . S
C648 C649 1.327 . S
C649 H643 0.950 . S
C649 C648 1.327 . S
C649 C653 1.429 . S
C650 C633 1.574 . S
C650 H644 0.949 . S
C650 C654 1.368 . S
C651 C632 1.429 . S
C651 C645 1.429 . S
C651 C652 1.523 . S
C652 C633 1.368 . S
C652 C646 1.368 . S
C652 C651 1.523 . S
C653 C637 1.429 . S
C653 C649 1.429 . S
C653 C654 1.523 . S
C654 C638 1.368 . S
C654 C650 1.368 . S
C654 C653 1.523 . S
H655 C630 0.950 . S
H656 C632 0.950 . S
H657 C633 0.949 . S
H658 C635 0.950 . S
H659 C637 0.950 . S
C660 C661 1.349 . S
C660 C662 1.327 . S
C660 H685 0.950 . S
C661 C660 1.349 . S
C661 C677 1.349 . S
C662 C660 1.327 . S
C662 C681 1.429 . S
C662 H686 0.950 . S
C663 C680 1.574 . S
C663 C682 1.368 . S
C663 H687 0.949 . S
H664 C668 0.949 . S
C665 C666 1.349 . S
C665 C667 1.327 . S
C665 H688 0.950 . S
C666 C665 1.349 . S
C666 C678 1.349 . S
C667 C665 1.327 . S
C667 C683 1.429 . S
C667 H689 0.950 . S
C668 H664 0.949 . S
C668 C676 1.574 . S
C668 C684 1.368 . S
H669 C677 0.950 . S
H670 C675 0.950 . S
H671 C676 0.949 . S
H672 C678 0.950 . S
H673 C679 0.950 . S
H674 C680 0.949 . S
C675 H670 0.950 . S
C675 C677 1.327 . S
C675 C681 1.429 . S
C676 C668 1.574 . S
C676 H671 0.949 . S
C676 C682 1.368 . S
C677 C661 1.349 . S
C677 H669 0.950 . S
C677 C675 1.327 . S
C678 C666 1.349 . S
C678 H672 0.950 . S
C678 C679 1.327 . S
C679 H673 0.950 . S
C679 C678 1.327 . S
C679 C683 1.429 . S
C680 C663 1.574 . S
C680 H674 0.949 . S
C680 C684 1.368 . S
C681 C662 1.429 . S
C681 C675 1.429 . S
C681 C682 1.523 . S
C682 C663 1.368 . S
C682 C676 1.368 . S
C682 C681 1.523 . S
C683 C667 1.429 . S
C683 C679 1.429 . S
C683 C684 1.523 . S
C684 C668 1.368 . S
C684 C680 1.368 . S
C684 C683 1.523 . S
H685 C660 0.950 . S
H686 C662 0.950 . S
H687 C663 0.949 . S
H688 C665 0.950 . S
H689 C667 0.950 . S
C690 C691 1.349 . S
C690 C692 1.327 . S
C690 H715 0.950 . S
C691 C690 1.349 . S
C691 C707 1.349 . S
C692 C690 1.327 . S
C692 C711 1.429 . S
C692 H716 0.950 . S
C693 C710 1.574 . S
C693 C712 1.368 . S
C693 H717 0.949 . S
H694 C698 0.949 . S
C695 C696 1.349 . S
C695 C697 1.327 . S
C695 H718 0.950 . S
C696 C695 1.349 . S
C696 C708 1.349 . S
C697 C695 1.327 . S
C697 C713 1.429 . S
C697 H719 0.950 . S
C698 H694 0.949 . S
C698 C706 1.574 . S
C698 C714 1.368 . S
H699 C707 0.950 . S
H700 C705 0.950 . S
H701 C706 0.949 . S
H702 C708 0.950 . S
H703 C709 0.950 . S
H704 C710 0.949 . S
C705 H700 0.950 . S
C705 C707 1.327 . S
C705 C711 1.429 . S
C706 C698 1.574 . S
C706 H701 0.949 . S
C706 C712 1.368 . S
C707 C691 1.349 . S
C707 H699 0.950 . S
C707 C705 1.327 . S
C708 C696 1.349 . S
C708 H702 0.950 . S
C708 C709 1.327 . S
C709 H703 0.950 . S
C709 C708 1.327 . S
C709 C713 1.429 . S
C710 C693 1.574 . S
C710 H704 0.949 . S
C710 C714 1.368 . S
C711 C692 1.429 . S
C711 C705 1.429 . S
C711 C712 1.523 . S
C712 C693 1.368 . S
C712 C706 1.368 . S
C712 C711 1.523 . S
C713 C697 1.429 . S
C713 C709 1.429 . S
C713 C714 1.523 . S
C714 C698 1.368 . S
C714 C710 1.368 . S
C714 C713 1.523 . S
H715 C690 0.950 . S
H716 C692 0.950 . S
H717 C693 0.949 . S
H718 C695 0.950 . S
H719 C697 0.950 . S
C720 C721 1.349 . S
C720 C722 1.327 . S
C720 H745 0.950 . S
C721 C720 1.349 . S
C721 C737 1.349 . S
C722 C720 1.327 . S
C722 C741 1.429 . S
C722 H746 0.950 . S
C723 C740 1.574 . S
C723 C742 1.368 . S
C723 H747 0.949 . S
H724 C728 0.949 . S
C725 C726 1.349 . S
C725 C727 1.327 . S
C725 H748 0.950 . S
C726 C725 1.349 . S
C726 C738 1.349 . S
C727 C725 1.327 . S
C727 C743 1.429 . S
C727 H749 0.950 . S
C728 H724 0.949 . S
C728 C736 1.574 . S
C728 C744 1.368 . S
H729 C737 0.950 . S
H730 C735 0.950 . S
H731 C736 0.949 . S
H732 C738 0.950 . S
H733 C739 0.950 . S
H734 C740 0.949 . S
C735 H730 0.950 . S
C735 C737 1.327 . S
C735 C741 1.429 . S
C736 C728 1.574 . S
C736 H731 0.949 . S
C736 C742 1.368 . S
C737 C721 1.349 . S
C737 H729 0.950 . S
C737 C735 1.327 . S
C738 C726 1.349 . S
C738 H732 0.950 . S
C738 C739 1.327 . S
C739 H733 0.950 . S
C739 C738 1.327 . S
C739 C743 1.429 . S
C740 C723 1.574 . S
C740 H734 0.949 . S
C740 C744 1.368 . S
C741 C722 1.429 . S
C741 C735 1.429 . S
C741 C742 1.523 . S
C742 C723 1.368 . S
C742 C736 1.368 . S
C742 C741 1.523 . S
C743 C727 1.429 . S
C743 C739 1.429 . S
C743 C744 1.523 . S
C744 C728 1.368 . S
C744 C740 1.368 . S
C744 C743 1.523 . S
H745 C720 0.950 . S
H746 C722 0.950 . S
H747 C723 0.949 . S
H748 C725 0.950 . S
H749 C727 0.950 . S
C750 C751 1.349 . S
C750 C752 1.327 . S
C750 H775 0.950 . S
C751 C750 1.349 . S
C751 C767 1.349 . S
C752 C750 1.327 . S
C752 C771 1.429 . S
C752 H776 0.950 . S
C753 C770 1.574 . S
C753 C772 1.368 . S
C753 H777 0.949 . S
H754 C758 0.949 . S
C755 C756 1.349 . S
C755 C757 1.327 . S
C755 H778 0.950 . S
C756 C755 1.349 . S
C756 C768 1.349 . S
C757 C755 1.327 . S
C757 C773 1.429 . S
C757 H779 0.950 . S
C758 H754 0.949 . S
C758 C766 1.574 . S
C758 C774 1.368 . S
H759 C767 0.950 . S
H760 C765 0.950 . S
H761 C766 0.949 . S
H762 C768 0.950 . S
H763 C769 0.950 . S
H764 C770 0.949 . S
C765 H760 0.950 . S
C765 C767 1.327 . S
C765 C771 1.429 . S
C766 C758 1.574 . S
C766 H761 0.949 . S
C766 C772 1.368 . S
C767 C751 1.349 . S
C767 H759 0.950 . S
C767 C765 1.327 . S
C768 C756 1.349 . S
C768 H762 0.950 . S
C768 C769 1.327 . S
C769 H763 0.950 . S
C769 C768 1.327 . S
C769 C773 1.429 . S
C770 C753 1.574 . S
C770 H764 0.949 . S
C770 C774 1.368 . S
C771 C752 1.429 . S
C771 C765 1.429 . S
C771 C772 1.523 . S
C772 C753 1.368 . S
C772 C766 1.368 . S
C772 C771 1.523 . S
C773 C757 1.429 . S
C773 C769 1.429 . S
C773 C774 1.523 . S
C774 C758 1.368 . S
C774 C770 1.368 . S
C774 C773 1.523 . S
H775 C750 0.950 . S
H776 C752 0.950 . S
H777 C753 0.949 . S
H778 C755 0.950 . S
H779 C757 0.950 . S
C780 C781 1.349 . S
C780 C782 1.327 . S
C780 H805 0.950 . S
C781 C780 1.349 . S
C781 C797 1.349 . S
C782 C780 1.327 . S
C782 C801 1.429 . S
C782 H806 0.950 . S
C783 C800 1.574 . S
C783 C802 1.368 . S
C783 H807 0.949 . S
H784 C788 0.949 . S
C785 C786 1.349 . S
C785 C787 1.327 . S
C785 H808 0.950 . S
C786 C785 1.349 . S
C786 C798 1.349 . S
C787 C785 1.327 . S
C787 C803 1.429 . S
C787 H809 0.950 . S
C788 H784 0.949 . S
C788 C796 1.574 . S
C788 C804 1.368 . S
H789 C797 0.950 . S
H790 C795 0.950 . S
H791 C796 0.949 . S
H792 C798 0.950 . S
H793 C799 0.950 . S
H794 C800 0.949 . S
C795 H790 0.950 . S
C795 C797 1.327 . S
C795 C801 1.429 . S
C796 C788 1.574 . S
C796 H791 0.949 . S
C796 C802 1.368 . S
C797 C781 1.349 . S
C797 H789 0.950 . S
C797 C795 1.327 . S
C798 C786 1.349 . S
C798 H792 0.950 . S
C798 C799 1.327 . S
C799 H793 0.950 . S
C799 C798 1.327 . S
C799 C803 1.429 . S
C800 C783 1.574 . S
C800 H794 0.949 . S
C800 C804 1.368 . S
C801 C782 1.429 . S
C801 C795 1.429 . S
C801 C802 1.523 . S
C802 C783 1.368 . S
C802 C796 1.368 . S
C802 C801 1.523 . S
C803 C787 1.429 . S
C803 C799 1.429 . S
C803 C804 1.523 . S
C804 C788 1.368 . S
C804 C800 1.368 . S
C804 C803 1.523 . S
H805 C780 0.950 . S
H806 C782 0.950 . S
H807 C783 0.949 . S
H808 C785 0.950 . S
H809 C787 0.950 . S
C810 C811 1.349 . S
C810 C812 1.327 . S
C810 H835 0.950 . S
C811 C810 1.349 . S
C811 C827 1.349 . S
C812 C810 1.327 . S
C812 C831 1.429 . S
C812 H836 0.950 . S
C813 C830 1.574 . S
C813 C832 1.368 . S
C813 H837 0.949 . S
H814 C818 0.949 . S
C815 C816 1.349 . S
C815 C817 1.327 . S
C815 H838 0.950 . S
C816 C815 1.349 . S
C816 C828 1.349 . S
C817 C815 1.327 . S
C817 C833 1.429 . S
C817 H839 0.950 . S
C818 H814 0.949 . S
C818 C826 1.574 . S
C818 C834 1.368 . S
H819 C827 0.950 . S
H820 C825 0.950 . S
H821 C826 0.949 . S
H822 C828 0.950 . S
H823 C829 0.950 . S
H824 C830 0.949 . S
C825 H820 0.950 . S
C825 C827 1.327 . S
C825 C831 1.429 . S
C826 C818 1.574 . S
C826 H821 0.949 . S
C826 C832 1.368 . S
C827 C811 1.349 . S
C827 H819 0.950 . S
C827 C825 1.327 . S
C828 C816 1.349 . S
C828 H822 0.950 . S
C828 C829 1.327 . S
C829 H823 0.950 . S
C829 C828 1.327 . S
C829 C833 1.429 . S
C830 C813 1.574 . S
C830 H824 0.949 . S
C830 C834 1.368 . S
C831 C812 1.429 . S
C831 C825 1.429 . S
C831 C832 1.523 . S
C832 C813 1.368 . S
C832 C826 1.368 . S
C832 C831 1.523 . S
C833 C817 1.429 . S
C833 C829 1.429 . S
C833 C834 1.523 . S
C834 C818 1.368 . S
C834 C830 1.368 . S
C834 C833 1.523 . S
H835 C810 0.950 . S
H836 C812 0.950 . S
H837 C813 0.949 . S
H838 C815 0.950 . S
H839 C817 0.950 . S
C840 C841 1.349 . S
C840 C842 1.327 . S
C840 H865 0.950 . S
C841 C840 1.349 . S
C841 C857 1.349 . S
C842 C840 1.327 . S
C842 C861 1.429 . S
C842 H866 0.950 . S
C843 C860 1.593 . S
C843 C862 1.368 1_556 S
C843 H867 0.949 . S
H844 C848 0.949 . S
C845 C846 1.349 . S
C845 C847 1.327 . S
C845 H868 0.950 . S
C846 C845 1.349 . S
C846 C858 1.349 . S
C847 C845 1.327 . S
C847 C863 1.429 . S
C847 H869 0.950 . S
C848 H844 0.949 . S
C848 C856 1.595 . S
C848 C864 1.368 1_554 S
H849 C857 0.950 . S
H850 C855 0.950 . S
H851 C856 0.950 . S
H852 C858 0.950 . S
H853 C859 0.950 . S
H854 C860 0.950 . S
C855 H850 0.950 . S
C855 C857 1.327 . S
C855 C861 1.429 . S
C856 C848 1.595 . S
C856 H851 0.950 . S
C856 C862 1.359 1_565 S
C857 C841 1.349 . S
C857 H849 0.950 . S
C857 C855 1.327 . S
C858 C846 1.349 . S
C858 H852 0.950 . S
C858 C859 1.327 . S
C859 H853 0.950 . S
C859 C858 1.327 . S
C859 C863 1.429 . S
C860 C843 1.593 . S
C860 H854 0.950 . S
C860 C864 1.359 1_545 S
C861 C842 1.429 . S
C861 C855 1.429 . S
C861 C862 1.523 . S
C862 C843 1.368 1_554 S
C862 C856 1.359 1_545 S
C862 C861 1.523 . S
C863 C847 1.429 . S
C863 C859 1.429 . S
C863 C864 1.523 . S
C864 C848 1.368 1_556 S
C864 C860 1.359 1_565 S
C864 C863 1.523 . S
H865 C840 0.950 . S
H866 C842 0.950 . S
H867 C843 0.949 . S
H868 C845 0.950 . S
H869 C847 0.950 . S
C870 C871 1.349 . S
C870 C872 1.327 . S
C870 H895 0.950 . S
C871 C870 1.349 . S
C871 C887 1.349 . S
C872 C870 1.327 . S
C872 C891 1.429 . S
C872 H896 0.950 . S
C873 C890 1.574 . S
C873 C892 1.368 . S
C873 H897 0.949 . S
H874 C878 0.949 . S
C875 C876 1.349 . S
C875 C877 1.327 . S
C875 H898 0.950 . S
C876 C875 1.349 . S
C876 C888 1.349 . S
C877 C875 1.327 . S
C877 C893 1.429 . S
C877 H899 0.950 . S
C878 H874 0.949 . S
C878 C886 1.574 . S
C878 C894 1.368 . S
H879 C887 0.950 . S
H880 C885 0.950 . S
H881 C886 0.949 . S
H882 C888 0.950 . S
H883 C889 0.950 . S
H884 C890 0.949 . S
C885 H880 0.950 . S
C885 C887 1.327 . S
C885 C891 1.429 . S
C886 C878 1.574 . S
C886 H881 0.949 . S
C886 C892 1.368 . S
C887 C871 1.349 . S
C887 H879 0.950 . S
C887 C885 1.327 . S
C888 C876 1.349 . S
C888 H882 0.950 . S
C888 C889 1.327 . S
C889 H883 0.950 . S
C889 C888 1.327 . S
C889 C893 1.429 . S
C890 C873 1.574 . S
C890 H884 0.949 . S
C890 C894 1.368 . S
C891 C872 1.429 . S
C891 C885 1.429 . S
C891 C892 1.523 . S
C892 C873 1.368 . S
C892 C886 1.368 . S
C892 C891 1.523 . S
C893 C877 1.429 . S
C893 C889 1.429 . S
C893 C894 1.523 . S
C894 C878 1.368 . S
C894 C890 1.368 . S
C894 C893 1.523 . S
H895 C870 0.950 . S
H896 C872 0.950 . S
H897 C873 0.949 . S
H898 C875 0.950 . S
H899 C877 0.950 . S
C900 C901 1.349 . S
C900 C902 1.327 . S
C900 H925 0.950 . S
C901 C900 1.349 . S
C901 C917 1.349 . S
C902 C900 1.327 . S
C902 C921 1.429 . S
C902 H926 0.950 . S
C903 C920 1.574 1_455 S
C903 C922 1.368 . S
C903 H927 0.949 . S
H904 C908 0.949 . S
C905 C906 1.349 . S
C905 C907 1.327 . S
C905 H928 0.950 . S
C906 C905 1.349 . S
C906 C918 1.349 . S
C907 C905 1.327 . S
C907 C923 1.429 . S
C907 H929 0.950 . S
C908 H904 0.949 . S
C908 C916 1.574 1_655 S
C908 C924 1.368 . S
H909 C917 0.950 . S
H910 C915 0.950 . S
H911 C916 0.949 . S
H912 C918 0.950 . S
H913 C919 0.950 . S
H914 C920 0.949 . S
C915 H910 0.950 . S
C915 C917 1.327 . S
C915 C921 1.429 . S
C916 C908 1.574 1_455 S
C916 H911 0.949 . S
C916 C922 1.368 . S
C917 C901 1.349 . S
C917 H909 0.950 . S
C917 C915 1.327 . S
C918 C906 1.349 . S
C918 H912 0.950 . S
C918 C919 1.327 . S
C919 H913 0.950 . S
C919 C918 1.327 . S
C919 C923 1.429 . S
C920 C903 1.574 1_655 S
C920 H914 0.949 . S
C920 C924 1.368 . S
C921 C902 1.429 . S
C921 C915 1.429 . S
C921 C922 1.523 . S
C922 C903 1.368 . S
C922 C916 1.368 . S
C922 C921 1.523 . S
C923 C907 1.429 . S
C923 C919 1.429 . S
C923 C924 1.523 . S
C924 C908 1.368 . S
C924 C920 1.368 . S
C924 C923 1.523 . S
H925 C900 0.950 . S
H926 C902 0.950 . S
H927 C903 0.949 . S
H928 C905 0.950 . S
H929 C907 0.950 . S
C930 C931 1.349 . S
C930 C932 1.327 . S
C930 H955 0.950 . S
C931 C930 1.349 . S
C931 C947 1.349 . S
C932 C930 1.327 . S
C932 C951 1.429 . S
C932 H956 0.950 . S
C933 C950 1.574 . S
C933 C952 1.368 . S
C933 H957 0.949 . S
H934 C938 0.949 . S
C935 C936 1.349 . S
C935 C937 1.327 . S
C935 H958 0.950 . S
C936 C935 1.349 . S
C936 C948 1.349 . S
C937 C935 1.327 . S
C937 C953 1.429 . S
C937 H959 0.950 . S
C938 H934 0.949 . S
C938 C946 1.574 . S
C938 C954 1.368 . S
H939 C947 0.950 . S
H940 C945 0.950 . S
H941 C946 0.949 . S
H942 C948 0.950 . S
H943 C949 0.950 . S
H944 C950 0.949 . S
C945 H940 0.950 . S
C945 C947 1.327 . S
C945 C951 1.429 . S
C946 C938 1.574 . S
C946 H941 0.949 . S
C946 C952 1.368 1_565 S
C947 C931 1.349 . S
C947 H939 0.950 . S
C947 C945 1.327 . S
C948 C936 1.349 . S
C948 H942 0.950 . S
C948 C949 1.327 . S
C949 H943 0.950 . S
C949 C948 1.327 . S
C949 C953 1.429 . S
C950 C933 1.574 . S
C950 H944 0.949 . S
C950 C954 1.368 1_545 S
C951 C932 1.429 . S
C951 C945 1.429 . S
C951 C952 1.523 . S
C952 C933 1.368 . S
C952 C946 1.368 1_545 S
C952 C951 1.523 . S
C953 C937 1.429 . S
C953 C949 1.429 . S
C953 C954 1.523 . S
C954 C938 1.368 . S
C954 C950 1.368 1_565 S
C954 C953 1.523 . S
H955 C930 0.950 . S
H956 C932 0.950 . S
H957 C933 0.949 . S
H958 C935 0.950 . S
H959 C937 0.950 . S
C960 C961 1.349 . S
C960 C962 1.327 . S
C960 H985 0.950 . S
C961 C960 1.349 . S
C961 C977 1.349 . S
C962 C960 1.327 . S
C962 C981 1.429 . S
C962 H986 0.950 . S
C963 C980 1.574 . S
C963 C982 1.368 . S
C963 H987 0.949 . S
H964 C968 0.949 . S
C965 C966 1.349 . S
C965 C967 1.327 . S
C965 H988 0.950 . S
C966 C965 1.349 . S
C966 C978 1.349 . S
C967 C965 1.327 . S
C967 C983 1.429 . S
C967 H989 0.950 . S
C968 H964 0.949 . S
C968 C976 1.574 . S
C968 C984 1.368 . S
H969 C977 0.950 . S
H970 C975 0.950 . S
H971 C976 0.949 . S
H972 C978 0.950 . S
H973 C979 0.950 . S
H974 C980 0.949 . S
C975 H970 0.950 . S
C975 C977 1.327 . S
C975 C981 1.429 . S
C976 C968 1.574 . S
C976 H971 0.949 . S
C976 C982 1.368 . S
C977 C961 1.349 . S
C977 H969 0.950 . S
C977 C975 1.327 . S
C978 C966 1.349 . S
C978 H972 0.950 . S
C978 C979 1.327 . S
C979 H973 0.950 . S
C979 C978 1.327 . S
C979 C983 1.429 . S
C980 C963 1.574 . S
C980 H974 0.949 . S
C980 C984 1.368 . S
C981 C962 1.429 . S
C981 C975 1.429 . S
C981 C982 1.523 . S
C982 C963 1.368 . S
C982 C976 1.368 . S
C982 C981 1.523 . S
C983 C967 1.429 . S
C983 C979 1.429 . S
C983 C984 1.523 . S
C984 C968 1.368 . S
C984 C980 1.368 . S
C984 C983 1.523 . S
H985 C960 0.950 . S
H986 C962 0.950 . S
H987 C963 0.949 . S
H988 C965 0.950 . S
H989 C967 0.950 . S
C990 C991 1.349 . S
C990 C992 1.327 . S
C990 H1015 0.950 . S
C991 C990 1.349 . S
C991 C1007 1.349 . S
C992 C990 1.327 . S
C992 C1011 1.429 . S
C992 H1016 0.950 . S
C993 C1010 1.574 1_655 S
C993 C1012 1.368 . S
C993 H1017 0.949 . S
H994 C998 0.949 . S
C995 C996 1.349 . S
C995 C997 1.327 . S
C995 H1018 0.950 . S
C996 C995 1.349 . S
C996 C1008 1.349 . S
C997 C995 1.327 . S
C997 C1013 1.429 . S
C997 H1019 0.950 . S
C998 H994 0.949 . S
C998 C1006 1.574 1_455 S
C998 C1014 1.368 . S
H999 C1007 0.950 . S
H1000 C1005 0.950 . S
H1001 C1006 0.949 . S
H1002 C1008 0.950 . S
H1003 C1009 0.950 . S
H1004 C1010 0.949 . S
C1005 H1000 0.950 . S
C1005 C1007 1.327 . S
C1005 C1011 1.429 . S
C1006 C998 1.574 1_655 S
C1006 H1001 0.949 . S
C1006 C1012 1.368 . S
C1007 C991 1.349 . S
C1007 H999 0.950 . S
C1007 C1005 1.327 . S
C1008 C996 1.349 . S
C1008 H1002 0.950 . S
C1008 C1009 1.327 . S
C1009 H1003 0.950 . S
C1009 C1008 1.327 . S
C1009 C1013 1.429 . S
C1010 C993 1.574 1_455 S
C1010 H1004 0.949 . S
C1010 C1014 1.368 . S
C1011 C992 1.429 . S
C1011 C1005 1.429 . S
C1011 C1012 1.523 . S
C1012 C993 1.368 . S
C1012 C1006 1.368 . S
C1012 C1011 1.523 . S
C1013 C997 1.429 . S
C1013 C1009 1.429 . S
C1013 C1014 1.523 . S
C1014 C998 1.368 . S
C1014 C1010 1.368 . S
C1014 C1013 1.523 . S
H1015 C990 0.950 . S
H1016 C992 0.950 . S
H1017 C993 0.949 . S
H1018 C995 0.950 . S
H1019 C997 0.950 . S
C481 C21 1.552 . S
C486 C421 1.552 . S
C511 C461 1.551 . S
C516 C61 1.551 . S
C541 C261 1.552 . S
C546 C101 1.552 . S
C571 C141 1.551 . S
C576 C301 1.551 . S
C601 C341 1.552 . S
C606 C181 1.552 . S
C631 C221 1.552 . S
C636 C381 1.552 . S
C661 C2 1.534 . S
C666 C322 1.534 . S
C691 C362 1.534 . S
C696 C42 1.534 . S
C721 C82 1.533 . S
C726 C402 1.533 . S
C751 C442 1.534 . S
C756 C122 1.534 . S
C781 C162 1.534 . S
C786 C242 1.534 . S
C811 C202 1.533 . S
C816 C282 1.533 . S
C841 C15 1.543 . S
C846 C295 1.543 . S
C871 C335 1.543 . S
C876 C55 1.543 . S
C901 C375 1.543 . S
C906 C95 1.543 . S
C931 C415 1.543 . S
C936 C135 1.543 . S
C961 C175 1.543 . S
C966 C455 1.543 . S
C991 C255 1.543 . S
C996 C215 1.543 . S
