# Generated by pormake.
# Topology whw, (6)-cn, num edge types: 1
# Building blocks:
#     Node 0, Type 0, BuildingBlock: BETDAH_clean_sbu_0, # of connection points: 6
#     Node 1, Type 0, BuildingBlock: BETDAH_clean_sbu_0, # of connection points: 6
#     Node 2, Type 0, BuildingBlock: BETDAH_clean_sbu_0, # of connection points: 6
#     Node 3, Type 0, BuildingBlock: BETDAH_clean_sbu_0, # of connection points: 6
#     Node 4, Type 0, BuildingBlock: BETDAH_clean_sbu_0, # of connection points: 6
#     Node 5, Type 0, BuildingBlock: BETDAH_clean_sbu_0, # of connection points: 6
#     Node 6, Type 0, BuildingBlock: BETDAH_clean_sbu_0, # of connection points: 6
#     Node 7, Type 0, BuildingBlock: BETDAH_clean_sbu_0, # of connection points: 6
#     Node 8, Type 0, BuildingBlock: BETDAH_clean_sbu_0, # of connection points: 6
#     Node 9, Type 0, BuildingBlock: BETDAH_clean_sbu_0, # of connection points: 6
#     Node 10, Type 0, BuildingBlock: BETDAH_clean_sbu_0, # of connection points: 6
#     Node 11, Type 0, BuildingBlock: BETDAH_clean_sbu_0, # of connection points: 6
#     Node 12, Type 0, BuildingBlock: BETDAH_clean_sbu_0, # of connection points: 6
#     Node 13, Type 0, BuildingBlock: BETDAH_clean_sbu_0, # of connection points: 6
#     Node 14, Type 0, BuildingBlock: BETDAH_clean_sbu_0, # of connection points: 6
#     Node 15, Type 0, BuildingBlock: BETDAH_clean_sbu_0, # of connection points: 6
#     Edge 16, Type (0, 0), BuildingBlock: TEMPAE_clean_linker_10, # of connection points: 2
#     Edge 17, Type (0, 0), BuildingBlock: TEMPAE_clean_linker_10, # of connection points: 2
#     Edge 18, Type (0, 0), BuildingBlock: TEMPAE_clean_linker_10, # of connection points: 2
#     Edge 19, Type (0, 0), BuildingBlock: TEMPAE_clean_linker_10, # of connection points: 2
#     Edge 20, Type (0, 0), BuildingBlock: TEMPAE_clean_linker_10, # of connection points: 2
#     Edge 21, Type (0, 0), BuildingBlock: TEMPAE_clean_linker_10, # of connection points: 2
#     Edge 22, Type (0, 0), BuildingBlock: TEMPAE_clean_linker_10, # of connection points: 2
#     Edge 23, Type (0, 0), BuildingBlock: TEMPAE_clean_linker_10, # of connection points: 2
#     Edge 24, Type (0, 0), BuildingBlock: TEMPAE_clean_linker_10, # of connection points: 2
#     Edge 25, Type (0, 0), BuildingBlock: TEMPAE_clean_linker_10, # of connection points: 2
#     Edge 26, Type (0, 0), BuildingBlock: TEMPAE_clean_linker_10, # of connection points: 2
#     Edge 27, Type (0, 0), BuildingBlock: TEMPAE_clean_linker_10, # of connection points: 2
#     Edge 28, Type (0, 0), BuildingBlock: TEMPAE_clean_linker_10, # of connection points: 2
#     Edge 29, Type (0, 0), BuildingBlock: TEMPAE_clean_linker_10, # of connection points: 2
#     Edge 30, Type (0, 0), BuildingBlock: TEMPAE_clean_linker_10, # of connection points: 2
#     Edge 31, Type (0, 0), BuildingBlock: TEMPAE_clean_linker_10, # of connection points: 2
#     Edge 32, Type (0, 0), BuildingBlock: TEMPAE_clean_linker_10, # of connection points: 2
#     Edge 33, Type (0, 0), BuildingBlock: TEMPAE_clean_linker_10, # of connection points: 2
#     Edge 34, Type (0, 0), BuildingBlock: TEMPAE_clean_linker_10, # of connection points: 2
#     Edge 35, Type (0, 0), BuildingBlock: TEMPAE_clean_linker_10, # of connection points: 2
#     Edge 36, Type (0, 0), BuildingBlock: TEMPAE_clean_linker_10, # of connection points: 2
#     Edge 37, Type (0, 0), BuildingBlock: TEMPAE_clean_linker_10, # of connection points: 2
#     Edge 38, Type (0, 0), BuildingBlock: TEMPAE_clean_linker_10, # of connection points: 2
#     Edge 39, Type (0, 0), BuildingBlock: TEMPAE_clean_linker_10, # of connection points: 2
#     Edge 40, Type (0, 0), BuildingBlock: TEMPAE_clean_linker_10, # of connection points: 2
#     Edge 41, Type (0, 0), BuildingBlock: TEMPAE_clean_linker_10, # of connection points: 2
#     Edge 42, Type (0, 0), BuildingBlock: TEMPAE_clean_linker_10, # of connection points: 2
#     Edge 43, Type (0, 0), BuildingBlock: TEMPAE_clean_linker_10, # of connection points: 2
#     Edge 44, Type (0, 0), BuildingBlock: TEMPAE_clean_linker_10, # of connection points: 2
#     Edge 45, Type (0, 0), BuildingBlock: TEMPAE_clean_linker_10, # of connection points: 2
#     Edge 46, Type (0, 0), BuildingBlock: TEMPAE_clean_linker_10, # of connection points: 2
#     Edge 47, Type (0, 0), BuildingBlock: TEMPAE_clean_linker_10, # of connection points: 2
#     Edge 48, Type (0, 0), BuildingBlock: TEMPAE_clean_linker_10, # of connection points: 2
#     Edge 49, Type (0, 0), BuildingBlock: TEMPAE_clean_linker_10, # of connection points: 2
#     Edge 50, Type (0, 0), BuildingBlock: TEMPAE_clean_linker_10, # of connection points: 2
#     Edge 51, Type (0, 0), BuildingBlock: TEMPAE_clean_linker_10, # of connection points: 2
#     Edge 52, Type (0, 0), BuildingBlock: TEMPAE_clean_linker_10, # of connection points: 2
#     Edge 53, Type (0, 0), BuildingBlock: TEMPAE_clean_linker_10, # of connection points: 2
#     Edge 54, Type (0, 0), BuildingBlock: TEMPAE_clean_linker_10, # of connection points: 2
#     Edge 55, Type (0, 0), BuildingBlock: TEMPAE_clean_linker_10, # of connection points: 2
#     Edge 56, Type (0, 0), BuildingBlock: TEMPAE_clean_linker_10, # of connection points: 2
#     Edge 57, Type (0, 0), BuildingBlock: TEMPAE_clean_linker_10, # of connection points: 2
#     Edge 58, Type (0, 0), BuildingBlock: TEMPAE_clean_linker_10, # of connection points: 2
#     Edge 59, Type (0, 0), BuildingBlock: TEMPAE_clean_linker_10, # of connection points: 2
#     Edge 60, Type (0, 0), BuildingBlock: TEMPAE_clean_linker_10, # of connection points: 2
#     Edge 61, Type (0, 0), BuildingBlock: TEMPAE_clean_linker_10, # of connection points: 2
#     Edge 62, Type (0, 0), BuildingBlock: TEMPAE_clean_linker_10, # of connection points: 2
#     Edge 63, Type (0, 0), BuildingBlock: TEMPAE_clean_linker_10, # of connection points: 2
# Relax obj value: 0.338
# Max RMSD: 0.233
# Mean RMSD: 0.205
data_MOF--net-whw--node1-BETDAH_clean_sbu_0--edge1-TEMPAE_clean_linker_10
_symmetry_space_group_name_H-M    P1
_symmetry_Int_Tables_number       1
_symmetry_cell_setting            triclinic
loop_
_symmetry_equiv_pos_as_xyz
'x, y, z'
_cell_length_a     46.391066
_cell_length_b     46.328322
_cell_length_c     35.228783
_cell_angle_alpha  89.857823
_cell_angle_beta   95.932863
_cell_angle_gamma 93.653668
loop_
_atom_site_label
_atom_site_type_symbol
_atom_site_fract_x
_atom_site_fract_y
_atom_site_fract_z
_atom_type_partial_charge
Ho0 Ho 0.05746 0.16688 0.1425 0.0
Ho1 Ho 0.99529 0.15507 0.15569 0.0
C2 C 0.00587 0.18686 0.07659 0.0
C3 C 0.10764 0.16451 0.1179 0.0
C4 C 0.11609 0.15302 0.08252 0.0
C5 C 0.14486 0.14643 0.07987 0.0
C6 C 0.15204 0.13216 0.04756 0.0
C7 C 0.13038 0.12417 1.01791 0.0
C8 C 0.10163 0.13117 1.02077 0.0
C9 C 0.09455 0.14535 0.05286 0.0
C10 C 0.03643 0.20743 0.18458 0.0
C11 C 0.04677 0.14944 0.22863 0.0
C12 C 0.94574 0.14717 0.18218 0.0
C13 C 0.93788 0.14832 0.22146 0.0
C14 C 0.9489 0.17131 0.24566 0.0
C15 C 0.94551 0.17031 0.28438 0.0
C16 C 0.93131 0.14607 0.29976 0.0
C17 C 0.91944 0.12338 0.27547 0.0
C18 C 0.9226 0.12458 0.23647 0.0
C19 C 0.01511 0.11715 0.10802 0.0
O20 O 0.03344 0.18012 0.08472 0.0
O21 O 0.98695 0.18202 0.10216 0.0
O22 O 0.09273 0.18764 0.11475 0.0
O23 O 0.09643 0.14466 0.13939 0.0
O24 O 0.06333 0.20095 0.18884 0.0
O25 O 0.02338 0.19433 0.15609 0.0
O26 O 0.01873 0.15172 0.21688 0.0
O27 O 0.06609 0.15108 0.2034 0.0
O28 O 0.96187 0.12597 0.17551 0.0
O29 O 0.95468 0.17175 0.16744 0.0
O30 O 0.98947 0.12671 0.10393 0.0
O31 O 0.02897 0.12674 0.13876 0.0
H32 H 0.16158 0.15181 0.10301 0.0
H33 H 0.17435 0.1271 0.04593 0.0
H34 H 0.08457 0.12598 0.99797 0.0
H35 H 0.07215 0.1499 0.05479 0.0
H36 H 0.96127 0.18947 0.23505 0.0
H37 H 0.95526 0.18789 0.30259 0.0
H38 H 0.90833 0.10449 0.2868 0.0
H39 H 0.91421 0.10646 0.21833 0.0
Ho40 Ho 0.15072 0.80024 0.44236 0.0
Ho41 Ho 0.15245 0.74019 0.40357 0.0
C42 C 0.1622 0.74191 0.49333 0.0
C43 C 0.14117 0.84295 0.48572 0.0
C44 C 0.13186 0.84918 0.52369 0.0
C45 C 0.10961 0.86802 0.526 0.0
C46 C 0.10163 0.87626 0.56142 0.0
C47 C 0.11583 0.86598 0.59557 0.0
C48 C 0.1377 0.84648 0.59321 0.0
C49 C 0.14567 0.83819 0.55764 0.0
C50 C 0.19906 0.7924 0.40892 0.0
C51 C 0.13315 0.79712 0.35276 0.0
C52 C 0.1586 0.69827 0.357 0.0
C53 C 0.1497 0.69346 0.31577 0.0
C54 C 0.16363 0.67368 0.29506 0.0
C55 C 0.1537 0.66732 0.25681 0.0
C56 C 0.12957 0.68065 0.23841 0.0
C57 C 0.11622 0.7011 0.2591 0.0
C58 C 0.12614 0.70739 0.29728 0.0
C59 C 0.10391 0.74977 0.43531 0.0
O60 O 0.15218 0.76808 0.49063 0.0
O61 O 0.16937 0.728 0.46312 0.0
O62 O 0.16677 0.83274 0.48458 0.0
O63 O 0.12147 0.83099 0.46025 0.0
O64 O 0.18833 0.81732 0.41195 0.0
O65 O 0.18547 0.77323 0.42702 0.0
O66 O 0.14138 0.77021 0.35406 0.0
O67 O 0.13224 0.81276 0.38394 0.0
O68 O 0.13734 0.69879 0.3785 0.0
O69 O 0.17901 0.71857 0.36628 0.0
O70 O 0.11437 0.72456 0.43425 0.0
O71 O 0.11821 0.76784 0.41681 0.0
H72 H 0.0986 0.87675 0.50028 0.0
H73 H 0.08425 0.89073 0.56198 0.0
H74 H 0.14917 0.83817 0.61886 0.0
H75 H 0.16292 0.8236 0.55678 0.0
H76 H 0.18187 0.66272 0.30867 0.0
H77 H 0.16487 0.65184 0.2417 0.0
H78 H 0.09745 0.71162 0.24623 0.0
H79 H 0.11489 0.72264 0.31267 0.0
Ho80 Ho 0.48216 0.85767 0.67489 0.0
Ho81 Ho 0.50239 0.83944 0.59046 0.0
C82 C 0.55013 0.84281 0.66252 0.0
C83 C 0.47037 0.84922 0.74585 0.0
C84 C 0.46454 0.84281 0.78723 0.0
C85 C 0.47717 0.81959 0.80744 0.0
C86 C 0.47115 0.81238 0.84511 0.0
C87 C 0.45205 0.82802 0.86484 0.0
C88 C 0.43945 0.85143 0.84458 0.0
C89 C 0.44555 0.85864 0.80675 0.0
C90 C 0.50092 0.90164 0.63097 0.0
C91 C 0.43922 0.86485 0.60149 0.0
C92 C 0.51046 0.83239 0.51803 0.0
C93 C 0.52376 0.82071 0.48374 0.0
C94 C 0.52546 0.83821 0.45113 0.0
C95 C 0.53514 0.82777 0.41716 0.0
C96 C 0.54384 0.79921 0.41395 0.0
C97 C 0.5428 0.78183 0.44712 0.0
C98 C 0.53266 0.79222 0.48112 0.0
C99 C 0.4821 0.79828 0.63772 0.0
O100 O 0.52954 0.84802 0.68489 0.0
O101 O 0.54595 0.84034 0.62476 0.0
O102 O 0.4607 0.87091 0.72513 0.0
O103 O 0.48709 0.83347 0.72797 0.0
O104 O 0.48529 0.90526 0.6593 0.0
O105 O 0.50882 0.87604 0.63155 0.0
O106 O 0.46149 0.86382 0.58053 0.0
O107 O 0.44016 0.85638 0.63754 0.0
O108 O 0.49281 0.81574 0.53654 0.0
O109 O 0.52409 0.85286 0.53993 0.0
O110 O 0.50245 0.79444 0.61577 0.0
O111 O 0.47348 0.82304 0.6323 0.0
H112 H 0.4918 0.80665 0.794 0.0
H113 H 0.48124 0.79395 0.8584 0.0
H114 H 0.42493 0.8646 0.85804 0.0
H115 H 0.43514 0.87662 0.79268 0.0
H116 H 0.51875 0.86017 0.45161 0.0
H117 H 0.53594 0.84246 0.39331 0.0
H118 H 0.54917 0.7598 0.44665 0.0
H119 H 0.53149 0.77779 0.5052 0.0
Ho120 Ho 0.36572 0.19829 0.89368 0.0
Ho121 Ho 0.36146 0.25607 0.84968 0.0
C122 C 0.35523 0.25812 0.93846 0.0
C123 C 0.37488 0.15684 0.94231 0.0
C124 C 0.38286 0.15081 0.98339 0.0
C125 C 0.40732 0.16461 1.00437 0.0
C126 C 0.41575 0.15621 0.04206 0.0
C127 C 0.39995 0.13379 0.05962 0.0
C128 C 0.375 0.12073 0.03878 0.0
C129 C 0.36664 0.1291 1.00121 0.0
C130 C 0.31717 0.20263 0.84498 0.0
C131 C 0.38399 0.19838 0.80905 0.0
C132 C 0.35122 0.29516 0.79778 0.0
C133 C 0.36086 0.3028 0.75977 0.0
C134 C 0.35971 0.28255 0.72984 0.0
C135 C 0.36999 0.29048 0.69481 0.0
C136 C 0.38151 0.31886 0.68881 0.0
C137 C 0.3823 0.33903 0.71881 0.0
C138 C 0.37211 0.3311 0.75369 0.0
C139 C 0.41156 0.24996 0.89329 0.0
O140 O 0.36514 0.23193 0.9397 0.0
O141 O 0.34685 0.27068 0.90548 0.0
O142 O 0.34921 0.16647 0.93268 0.0
O143 O 0.39496 0.16892 0.92276 0.0
O144 O 0.33002 0.17893 0.85225 0.0
O145 O 0.32936 0.22282 0.86639 0.0
O146 O 0.37486 0.22498 0.80581 0.0
O147 O 0.38534 0.18423 0.84184 0.0
O148 O 0.37104 0.29862 0.82679 0.0
O149 O 0.33443 0.27159 0.80067 0.0
O150 O 0.4005 0.27468 0.88672 0.0
O151 O 0.39715 0.23046 0.87346 0.0
H152 H 0.42032 0.18142 0.99142 0.0
H153 H 0.43519 0.16667 0.05698 0.0
H154 H 0.36194 0.10382 0.05142 0.0
H155 H 0.3477 0.11811 0.98572 0.0
H156 H 0.351 0.26059 0.73349 0.0
H157 H 0.36866 0.27443 0.67231 0.0
H158 H 0.39137 0.36092 0.71568 0.0
H159 H 0.37332 0.34715 0.77622 0.0
Ho160 Ho 0.02935 0.91086 0.92467 0.0
Ho161 Ho 0.96949 0.90832 0.87649 0.0
C162 C 0.96943 0.8915 0.96432 0.0
C163 C 0.07176 0.91961 0.97808 0.0
C164 C 0.07785 0.9091 1.01768 0.0
C165 C 0.05891 0.91343 0.04558 0.0
C166 C 0.06445 0.90214 0.08232 0.0
C167 C 0.08899 0.88626 0.092 0.0
C168 C 0.10813 0.88238 0.06421 0.0
C169 C 0.10262 0.89371 0.02751 0.0
C170 C 0.01423 0.86099 0.88752 0.0
C171 C 0.0297 0.91756 0.8362 0.0
C172 C 0.92634 0.8977 0.82401 0.0
C173 C 0.91926 0.88469 0.78517 0.0
C174 C 0.93492 0.89266 0.75419 0.0
C175 C 0.92642 0.88107 0.71749 0.0
C176 C 0.90188 0.86143 0.71075 0.0
C177 C 0.88662 0.85326 0.74205 0.0
C178 C 0.89519 0.86471 0.77861 0.0
C179 C 0.98508 0.95842 0.91533 0.0
O180 O -0.00241 0.8995 0.96823 0.0
O181 O 0.95375 0.891 0.93067 0.0
O182 O 0.07162 0.90026 0.95114 0.0
O183 O 0.05066 0.93693 0.9715 0.0
O184 O 0.04082 0.87142 0.89439 0.0
O185 O 0.99736 0.87601 0.90371 0.0
O186 O 0.0026 0.90641 0.8343 0.0
O187 O 0.04383 0.92685 0.86898 0.0
O188 O 0.94187 0.92237 0.82729 0.0
O189 O 0.93317 0.88004 0.85209 0.0
O190 O 0.95851 0.94764 0.90852 0.0
O191 O 0.0016 0.94338 0.89838 0.0
H192 H 0.03969 0.92535 0.03904 0.0
H193 H 0.04961 0.90601 0.10326 0.0
H194 H 0.12709 0.87005 0.07057 0.0
H195 H 0.11756 0.89008 1.00656 0.0
H196 H 0.95345 0.90817 0.75814 0.0
H197 H 0.93867 0.8881 0.69422 0.0
H198 H 0.86799 0.83785 0.73838 0.0
H199 H 0.88267 0.85816 0.80185 0.0
Ho200 Ho 0.4103 0.78398 0.23365 0.0
Ho201 Ho 0.39454 0.72111 0.20756 0.0
C202 C 0.42045 0.7325 0.2959 0.0
C203 C 0.40163 0.83627 0.25183 0.0
C204 C 0.38814 0.84508 0.28522 0.0
C205 C 0.37786 0.82332 0.30893 0.0
C206 C 0.36845 0.83027 0.34358 0.0
C207 C 0.36933 0.85919 0.35531 0.0
C208 C 0.3778 0.88128 0.33059 0.0
C209 C 0.38726 0.8742 0.29544 0.0
C210 C 0.45517 0.75236 0.22606 0.0
C211 C 0.40724 0.77171 0.14167 0.0
C212 C 0.38398 0.67231 0.17261 0.0
C213 C 0.39096 0.66182 0.13568 0.0
C214 C 0.41348 0.67582 0.11768 0.0
C215 C 0.41916 0.66689 0.08162 0.0
C216 C 0.40183 0.64442 0.06233 0.0
C217 C 0.3794 0.63025 0.08069 0.0
C218 C 0.37409 0.63886 0.1172 0.0
C219 C 0.35552 0.74438 0.24796 0.0
O220 O 0.41283 0.75969 0.29058 0.0
O221 O 0.41873 0.71407 0.2665 0.0
O222 O 0.42663 0.82482 0.25971 0.0
O223 O 0.38412 0.82091 0.22709 0.0
O224 O 0.45768 0.77514 0.24798 0.0
O225 O 0.43143 0.7513 0.20559 0.0
O226 O 0.39874 0.74441 0.14971 0.0
O227 O 0.41349 0.79105 0.16976 0.0
O228 O 0.36551 0.69267 0.17062 0.0
O229 O 0.40618 0.67764 0.19838 0.0
O230 O 0.36143 0.71759 0.24926 0.0
O231 O 0.36916 0.75733 0.22299 0.0
H232 H 0.37872 0.80076 0.30162 0.0
H233 H 0.36282 0.81291 0.36264 0.0
H234 H 0.37924 0.90369 0.33968 0.0
H235 H 0.39523 0.89121 0.27735 0.0
H236 H 0.42655 0.6938 0.13143 0.0
H237 H 0.43696 0.67776 0.06866 0.0
H238 H 0.36539 0.61313 0.06644 0.0
H239 H 0.35639 0.62808 0.13062 0.0
Ho240 Ho 0.48548 0.08289 0.41177 0.0
Ho241 Ho 0.54452 0.09232 0.3789 0.0
C242 C 0.54343 0.10962 0.466 0.0
C243 C 0.44558 0.06865 0.45585 0.0
C244 C 0.4397 0.07815 0.49438 0.0
C245 C 0.46039 0.0766 0.52637 0.0
C246 C 0.45495 0.08763 0.56182 0.0
C247 C 0.42876 0.10058 0.56613 0.0
C248 C 0.40802 0.10165 0.53409 0.0
C249 C 0.41339 0.09048 0.4988 0.0
C250 C 0.49355 0.13382 0.37688 0.0
C251 C 0.48522 0.07627 0.32262 0.0
C252 C 0.58806 0.1058 0.34013 0.0
C253 C 0.59573 0.11706 0.30285 0.0
C254 C 0.57741 0.11227 0.26883 0.0
C255 C 0.58623 0.12225 0.23384 0.0
C256 C 0.61358 0.13714 0.23222 0.0
C257 C 0.63148 0.14228 0.26662 0.0
C258 C 0.62266 0.13234 0.30139 0.0
C259 C 0.53576 0.04246 0.41777 0.0
O260 O 0.51609 0.0988 0.46301 0.0
O261 O 0.5587 0.11175 0.43632 0.0
O262 O 0.44267 0.08808 0.42904 0.0
O263 O 0.46833 0.05368 0.45339 0.0
O264 O 0.46843 0.1201 0.37809 0.0
O265 O 0.51282 0.12122 0.39745 0.0
O266 O 0.51156 0.08935 0.32724 0.0
O267 O 0.47174 0.06656 0.35205 0.0
O268 O 0.57536 0.07975 0.34086 0.0
O269 O 0.57748 0.12393 0.36266 0.0
O270 O 0.56062 0.05688 0.41776 0.0
O271 O 0.51731 0.05411 0.3948 0.0
H272 H 0.48095 0.06726 0.52398 0.0
H273 H 0.47132 0.08602 0.58584 0.0
H274 H 0.38784 0.11184 0.5359 0.0
H275 H 0.39713 0.09209 0.47461 0.0
H276 H 0.5565 0.10058 0.26925 0.0
H277 H 0.57189 0.11777 0.208 0.0
H278 H 0.65236 0.15416 0.26675 0.0
H279 H 0.63709 0.13641 0.32729 0.0
Ho280 Ho 0.10595 0.1988 0.59956 0.0
Ho281 Ho 0.12832 0.25865 0.57785 0.0
C282 C 0.10563 0.25222 0.66241 0.0
C283 C 0.09982 0.14859 0.63067 0.0
C284 C 0.10642 0.13846 0.66962 0.0
C285 C 0.11649 0.15854 0.69826 0.0
C286 C 0.12231 0.14964 0.73564 0.0
C287 C 0.11791 0.12041 0.74517 0.0
C288 C 0.10857 0.09999 0.71637 0.0
C289 C 0.10277 0.10905 0.67858 0.0
C290 C 0.06643 0.23101 0.56031 0.0
C291 C 0.11281 0.20664 0.51108 0.0
C292 C 0.14313 0.30586 0.5433 0.0
C293 C 0.1378 0.31795 0.5043 0.0
C294 C 0.1116 0.33038 0.49201 0.0
C295 C 0.1068 0.34135 0.45502 0.0
C296 C 0.12806 0.34022 0.42934 0.0
C297 C 0.15449 0.32834 0.44193 0.0
C298 C 0.15932 0.31742 0.47898 0.0
C299 C 0.167 0.231 0.62451 0.0
O300 O 0.10547 0.22386 0.65582 0.0
O301 O 0.11104 0.27094 0.63455 0.0
O302 O 0.0791 0.16656 0.62615 0.0
O303 O 0.12254 0.15718 0.6135 0.0
O304 O 0.06471 0.20294 0.5591 0.0
O305 O 0.08614 0.23922 0.58565 0.0
O306 O 0.11683 0.23484 0.51949 0.0
O307 O 0.11205 0.18748 0.53887 0.0
O308 O 0.15904 0.28348 0.54667 0.0
O309 O 0.12127 0.30343 0.56407 0.0
O310 O 0.1642 0.25851 0.6244 0.0
O311 O 0.15055 0.21895 0.59706 0.0
H312 H 0.11981 0.18119 0.69186 0.0
H313 H 0.13001 0.16573 0.75724 0.0
H314 H 0.10498 0.07733 0.72325 0.0
H315 H 0.09511 0.09328 0.65658 0.0
H316 H 0.09471 0.33163 0.51089 0.0
H317 H 0.0864 0.35088 0.44661 0.0
H318 H 0.17126 0.32693 0.42291 0.0
H319 H 0.17989 0.30831 0.48771 0.0
Ho320 Ho 0.90275 0.30121 0.7376 0.0
Ho321 Ho 0.9295 0.2451 0.71544 0.0
C322 C 0.93603 0.26077 0.80541 0.0
C323 C 0.86834 0.33766 0.76125 0.0
C324 C 0.86343 0.34995 0.798 0.0
C325 C 0.83528 0.35628 0.80505 0.0
C326 C 0.82972 0.36441 0.84167 0.0
C327 C 0.85238 0.36651 0.87138 0.0
C328 C 0.88073 0.36112 0.86363 0.0
C329 C 0.88617 0.35279 0.82733 0.0
C330 C 0.95807 0.30923 0.72293 0.0
C331 C 0.90699 0.28868 0.64582 0.0
C332 C 0.95676 0.20314 0.69071 0.0
C333 C 0.95283 0.18617 0.65558 0.0
C334 C 0.92723 0.18768 0.63101 0.0
C335 C 0.9249 0.17492 0.59503 0.0
C336 C 0.94817 0.16051 0.58308 0.0
C337 C 0.9734 0.15813 0.60841 0.0
C338 C 0.97571 0.17094 0.64452 0.0
C339 C 0.87326 0.23925 0.73069 0.0
O340 O 0.91762 0.28164 0.79698 0.0
O341 O 0.94673 0.24668 0.77782 0.0
O342 O 0.89305 0.34537 0.74824 0.0
O343 O 0.8619 0.30996 0.75785 0.0
O344 O 0.93995 0.32951 0.72123 0.0
O345 O 0.94694 0.2872 0.73872 0.0
O346 O 0.92045 0.26499 0.65634 0.0
O347 O 0.89613 0.30489 0.67171 0.0
O348 O 0.93602 0.1994 0.71294 0.0
O349 O 0.9645 0.23039 0.68624 0.0
O350 O 0.89201 0.22008 0.73834 0.0
O351 O 0.88491 0.25981 0.71283 0.0
H352 H 0.81745 0.35384 0.78263 0.0
H353 H 0.80768 0.36811 0.84705 0.0
H354 H 0.89851 0.36172 0.88617 0.0
H355 H 0.90793 0.34747 0.82258 0.0
H356 H 0.90957 0.19983 0.63901 0.0
H357 H 0.90548 0.17769 0.57585 0.0
H358 H 0.99161 0.14709 0.59988 0.0
H359 H 0.99571 0.16992 0.66317 0.0
Ho360 Ho 0.62852 0.69035 0.08718 0.0
Ho361 Ho 0.61778 0.75041 0.06651 0.0
C362 C 0.60705 0.73455 0.15249 0.0
C363 C 0.64664 0.64319 0.11794 0.0
C364 C 0.6572 0.63645 0.15723 0.0
C365 C 0.66197 0.6589 0.18409 0.0
C366 C 0.66638 0.65268 0.22271 0.0
C367 C 0.66588 0.6239 0.23516 0.0
C368 C 0.66298 0.60135 0.20821 0.0
C369 C 0.65848 0.60765 0.16924 0.0
C370 C 0.57363 0.69566 0.055 0.0
C371 C 0.62395 0.70375 0.99718 0.0
C372 C 0.60635 0.79883 0.0339 0.0
C373 C 0.60381 0.80815 0.99377 0.0
C374 C 0.58424 0.79372 0.96592 0.0
C375 C 0.58535 0.80023 0.92734 0.0
C376 C 0.60628 0.82088 0.91606 0.0
C377 C 0.62529 0.83578 0.9439 0.0
C378 C 0.62387 0.82964 0.98246 0.0
C379 C 0.66914 0.74526 0.10894 0.0
O380 O 0.61862 0.70969 0.14511 0.0
O381 O 0.60158 0.75344 0.12468 0.0
O382 O 0.61941 0.64916 0.11348 0.0
O383 O 0.66312 0.66153 0.10025 0.0
O384 O 0.59011 0.67542 0.04716 0.0
O385 O 0.58827 0.71315 0.0783 0.0
O386 O 0.61635 0.72947 1.00742 0.0
O387 O 0.63351 0.68534 1.02382 0.0
O388 O 0.63248 0.79222 0.04687 0.0
O389 O 0.5861 0.78051 0.04482 0.0
O390 O 0.65256 0.76638 0.11082 0.0
O391 O 0.65877 0.72808 0.08199 0.0
H392 H 0.66083 0.68121 0.1754 0.0
H393 H 0.66873 0.67035 0.24306 0.0
H394 H 0.66236 0.57899 0.21732 0.0
H395 H 0.6545 0.59009 0.14874 0.0
H396 H 0.56875 0.77683 0.97374 0.0
H397 H 0.57048 0.78848 0.90622 0.0
H398 H 0.64132 0.85205 0.93579 0.0
H399 H 0.63922 0.84096 1.00346 0.0
Ho400 Ho 0.6714 0.28412 0.93784 0.0
Ho401 Ho 0.66321 0.22395 0.89791 0.0
C402 C 0.67584 0.22393 0.98729 0.0
C403 C 0.66759 0.32782 0.98269 0.0
C404 C 0.65763 0.3341 1.02025 0.0
C405 C 0.65346 0.31233 0.04731 0.0
C406 C 0.6441 0.31904 0.08274 0.0
C407 C 0.63845 0.34768 0.09177 0.0
C408 C 0.6424 0.36927 0.06418 0.0
C409 C 0.65195 0.36255 0.02899 0.0
C410 C 0.71665 0.26975 0.90125 0.0
C411 C 0.65242 0.28339 0.84821 0.0
C412 C 0.66088 0.18029 0.8516 0.0
C413 C 0.65359 0.17667 0.80992 0.0
C414 C 0.66508 0.15445 0.79044 0.0
C415 C 0.65586 0.14898 0.7518 0.0
C416 C 0.63486 0.16563 0.73187 0.0
C417 C 0.62421 0.18858 0.75128 0.0
C418 C 0.63347 0.19402 0.78981 0.0
C419 C 0.6182 0.24072 0.93292 0.0
O420 O 0.66987 0.25155 0.98572 0.0
O421 O 0.67963 0.2091 0.95627 0.0
O422 O 0.6909 0.31327 0.98266 0.0
O423 O 0.64741 0.31951 0.9555 0.0
O424 O 0.71036 0.29618 0.90677 0.0
O425 O 0.70096 0.2524 0.91943 0.0
O426 O 0.65685 0.25538 0.84887 0.0
O427 O 0.65412 0.29914 0.87979 0.0
O428 O 0.63942 0.18693 0.87047 0.0
O429 O 0.68516 0.19501 0.86336 0.0
O430 O 0.62522 0.21417 0.93154 0.0
O431 O 0.63411 0.25654 0.91351 0.0
H432 H 0.65743 0.29019 0.04104 0.0
H433 H 0.6416 0.3018 0.10317 0.0
H434 H 0.63771 0.39141 0.06945 0.0
H435 H 0.65476 0.37966 1.00842 0.0
H436 H 0.68068 0.14085 0.80534 0.0
H437 H 0.66494 0.13148 0.73767 0.0
H438 H 0.60785 0.2017 0.73717 0.0
H439 H 0.62415 0.21126 0.80422 0.0
Ho440 Ho 0.84955 0.70954 0.40143 0.0
Ho441 Ho 0.85283 0.76986 0.3633 0.0
C442 C 0.84187 0.76857 0.45025 0.0
C443 C 0.85396 0.66622 0.44803 0.0
C444 C 0.8631 0.66042 0.48879 0.0
C445 C 0.88453 0.67814 0.51024 0.0
C446 C 0.89422 0.67084 0.54795 0.0
C447 C 0.88268 0.64568 0.56508 0.0
C448 C 0.86062 0.62856 0.54367 0.0
C449 C 0.85102 0.63583 0.50604 0.0
C450 C 0.80405 0.7199 0.34967 0.0
C451 C 0.87401 0.71268 0.32009 0.0
C452 C 0.84787 0.812 0.31499 0.0
C453 C 0.85766 0.81892 0.27705 0.0
C454 C 0.8539 0.79887 0.24679 0.0
C455 C 0.86425 0.80579 0.21162 0.0
C456 C 0.87884 0.83286 0.20601 0.0
C457 C 0.88252 0.85281 0.23651 0.0
C458 C 0.87197 0.84594 0.27146 0.0
C459 C 0.89916 0.75785 0.41127 0.0
O460 O 0.8495 0.74149 0.44991 0.0
O461 O 0.83623 0.78315 0.41812 0.0
O462 O 0.82996 0.67952 0.44027 0.0
O463 O 0.8744 0.67532 0.42703 0.0
O464 O 0.81392 0.69465 0.35625 0.0
O465 O 0.81724 0.73813 0.37324 0.0
O466 O 0.86827 0.74043 0.31921 0.0
O467 O 0.87085 0.69631 0.35046 0.0
O468 O 0.86842 0.81158 0.34323 0.0
O469 O 0.82781 0.79097 0.31701 0.0
O470 O 0.89045 0.78376 0.40606 0.0
O471 O 0.88466 0.74045 0.38823 0.0
H472 H 0.89417 0.6973 0.49761 0.0
H473 H 0.91136 0.68449 0.56327 0.0
H474 H 0.85074 0.6094 0.55595 0.0
H475 H 0.83438 0.62192 0.49014 0.0
H476 H 0.84314 0.7778 0.25038 0.0
H477 H 0.86061 0.78999 0.18876 0.0
H478 H 0.89407 0.87363 0.23371 0.0
H479 H 0.87536 0.86171 0.29442 0.0
Ho480 Ho 0.55982 0.659 0.62996 0.0
Ho481 Ho 0.5008 0.63375 0.64551 0.0
C482 C 0.5045 0.66509 0.56395 0.0
C483 C 0.60976 0.66778 0.60461 0.0
C484 C 0.62124 0.65844 0.56994 0.0
C485 C 0.65129 0.65833 0.56862 0.0
C486 C 0.66232 0.64654 0.53708 0.0
C487 C 0.64333 0.63458 0.50665 0.0
C488 C 0.61318 0.63481 0.50825 0.0
C489 C 0.60225 0.64656 0.5397 0.0
C490 C 0.52815 0.69365 0.66863 0.0
C491 C 0.55436 0.64234 0.71716 0.0
C492 C 0.45334 0.61615 0.67308 0.0
C493 C 0.44459 0.61699 0.7118 0.0
C494 C 0.46073 0.63475 0.73946 0.0
C495 C 0.45446 0.63371 0.77719 0.0
C496 C 0.43191 0.61482 0.788 0.0
C497 C 0.41511 0.59762 0.76008 0.0
C498 C 0.42154 0.59861 0.72213 0.0
C499 C 0.52798 0.60116 0.59899 0.0
O500 O 0.53319 0.66427 0.57181 0.0
O501 O 0.48687 0.65729 0.5903 0.0
O502 O 0.58959 0.68645 0.60029 0.0
O503 O 0.60338 0.64645 0.62726 0.0
O504 O 0.55628 0.6942 0.67395 0.0
O505 O 0.51949 0.67722 0.64125 0.0
O506 O 0.52601 0.63772 0.70619 0.0
O507 O 0.57272 0.64722 0.69123 0.0
O508 O 0.47444 0.59937 0.66891 0.0
O509 O 0.45693 0.64127 0.65658 0.0
O510 O 0.50036 0.60393 0.59609 0.0
O511 O 0.54031 0.61405 0.62867 0.0
H512 H 0.66618 0.66693 0.59221 0.0
H513 H 0.68562 0.64654 0.53662 0.0
H514 H 0.59798 0.62631 0.48492 0.0
H515 H 0.57898 0.64607 0.54061 0.0
H516 H 0.47854 0.64907 0.73205 0.0
H517 H 0.46735 0.64759 0.79802 0.0
H518 H 0.39759 0.58291 0.76779 0.0
H519 H 0.40898 0.58463 0.70108 0.0
Ho520 Ho 0.9701 0.37527 0.18226 0.0
Ho521 Ho 0.00526 0.35304 0.10927 0.0
C522 C 0.04014 0.38597 0.18175 0.0
C523 C 0.94479 0.37826 0.2462 0.0
C524 C 0.94064 0.3676 0.2866 0.0
C525 C 0.96053 0.37576 0.31852 0.0
C526 C 0.95554 0.36723 0.35623 0.0
C527 C 0.93028 0.35032 0.36408 0.0
C528 C 0.91007 0.34285 0.33214 0.0
C529 C 0.91501 0.35148 0.29447 0.0
C530 C 0.97835 0.41367 0.12503 0.0
C531 C 0.93381 0.34222 0.11021 0.0
C532 C 0.02211 0.33979 0.04273 0.0
C533 C 0.03212 0.33187 1.00414 0.0
C534 C 0.02116 0.34498 0.96983 0.0
C535 C 0.02927 0.33662 0.93374 0.0
C536 C 0.04944 0.31529 0.93022 0.0
C537 C 0.06084 0.30261 0.96475 0.0
C538 C 0.05198 0.31032 1.00071 0.0
C539 C 0.00973 0.3237 0.17575 0.0
O540 O 0.01761 0.38033 0.20162 0.0
O541 O 0.03953 0.38168 0.14414 0.0
O542 O 0.96902 0.39262 0.23976 0.0
O543 O 0.93404 0.36281 0.21633 0.0
O544 O 0.97211 0.42117 0.15871 0.0
O545 O 0.9761 0.38661 0.12279 0.0
O546 O 0.95787 0.33996 0.09299 0.0
O547 O 0.93313 0.35436 0.14418 0.0
O548 O 0.01382 0.32042 0.06731 0.0
O549 O 0.02177 0.36657 0.05506 0.0
O550 O 0.02911 0.32364 0.15156 0.0
O551 O 0.98822 0.33641 0.16153 0.0
H552 H 0.98015 0.38884 0.31446 0.0
H553 H 0.9716 0.37425 0.37939 0.0
H554 H 0.89037 0.32987 0.33602 0.0
H555 H 0.89867 0.34525 0.27125 0.0
H556 H 0.00567 0.36141 0.97074 0.0
H557 H 0.01986 0.34722 0.90842 0.0
H558 H 0.0762 0.28604 0.96394 0.0
H559 H 0.06092 0.29942 0.02607 0.0
Ho560 Ho 0.54079 0.39466 0.42239 0.0
Ho561 Ho 0.48515 0.3969 0.36519 0.0
C562 C 0.47823 0.38458 0.45364 0.0
C563 C 0.58598 0.40232 0.47156 0.0
C564 C 0.59252 0.3916 0.51084 0.0
C565 C 0.61507 0.40507 0.5354 0.0
C566 C 0.62118 0.39496 0.57276 0.0
C567 C 0.60485 0.3711 0.58632 0.0
C568 C 0.58207 0.35787 0.56151 0.0
C569 C 0.57591 0.36808 0.52431 0.0
C570 C 0.51296 0.34332 0.40279 0.0
C571 C 0.54846 0.39708 0.33207 0.0
C572 C 0.44382 0.39006 0.30949 0.0
C573 C 0.4369 0.37879 0.26972 0.0
C574 C 0.44999 0.35483 0.25605 0.0
C575 C 0.44111 0.34352 0.21925 0.0
C576 C 0.4188 0.35576 0.19527 0.0
C577 C 0.40632 0.38013 0.20897 0.0
C578 C 0.41524 0.39142 0.24556 0.0
C579 C 0.50223 0.44596 0.40629 0.0
O580 O 0.50504 0.39634 0.46087 0.0
O581 O 0.46665 0.37896 0.41814 0.0
O582 O 0.58359 0.38271 0.44448 0.0
O583 O 0.56552 0.42062 0.46698 0.0
O584 O 0.52612 0.34915 0.43639 0.0
O585 O 0.5165 0.36438 0.38093 0.0
O586 O 0.5198 0.39604 0.32509 0.0
O587 O 0.56189 0.3982 0.36727 0.0
O588 O 0.46084 0.41371 0.31466 0.0
O589 O 0.44862 0.37116 0.33684 0.0
O590 O 0.47534 0.43718 0.3967 0.0
O591 O 0.51842 0.42919 0.39184 0.0
H592 H 0.62793 0.42345 0.52571 0.0
H593 H 0.63854 0.40605 0.59112 0.0
H594 H 0.56923 0.33927 0.57057 0.0
H595 H 0.55823 0.35748 0.50597 0.0
H596 H 0.46671 0.34455 0.27403 0.0
H597 H 0.45118 0.32466 0.21003 0.0
H598 H 0.38952 0.39058 0.19137 0.0
H599 H 0.40477 0.40989 0.25528 0.0
Ho600 Ho 0.97716 0.60224 0.91776 0.0
Ho601 Ho 0.03642 0.60626 0.88475 0.0
C602 C 0.03735 0.62181 0.97297 0.0
C603 C 0.93571 0.5925 0.96107 0.0
C604 C 0.93012 0.60249 0.99951 0.0
C605 C 0.94894 0.59706 0.03235 0.0
C606 C 0.94367 0.60765 0.06807 0.0
C607 C 0.9195 0.62397 0.07183 0.0
C608 C 0.90059 0.62907 0.03895 0.0
C609 C 0.9058 0.61839 1.00332 0.0
C610 C 0.99104 0.65259 0.88487 0.0
C611 C 0.97593 0.59598 0.8286 0.0
C612 C 0.07973 0.61674 0.84456 0.0
C613 C 0.08638 0.62646 0.80614 0.0
C614 C 0.07109 0.6479 0.78598 0.0
C615 C 0.0796 0.65819 0.75101 0.0
C616 C 0.10357 0.64725 0.73548 0.0
C617 C 0.11815 0.62515 0.75535 0.0
C618 C 0.10968 0.61496 0.79022 0.0
C619 C 0.0225 0.55579 0.91912 0.0
O620 O 0.00927 0.6135 0.96957 0.0
O621 O 0.05266 0.62302 0.94323 0.0
O622 O 0.93517 0.61213 0.93436 0.0
O623 O 0.95687 0.57538 0.95919 0.0
O624 O 0.96465 0.64161 0.88472 0.0
O625 O 0.00837 0.63781 0.90539 0.0
O626 O 0.00313 0.60698 0.8334 0.0
O627 O 0.96201 0.58696 0.85797 0.0
O628 O 0.06646 0.59113 0.847 0.0
O629 O 0.07029 0.63587 0.86683 0.0
O630 O 0.04869 0.5675 0.91976 0.0
O631 O 0.00523 0.57042 0.89805 0.0
H632 H 0.96786 0.58478 0.03051 0.0
H633 H 0.95843 0.60287 0.0928 0.0
H634 H 0.882 0.64183 0.04054 0.0
H635 H 0.89095 0.62291 0.97854 0.0
H636 H 0.05296 0.6571 0.79759 0.0
H637 H 0.06793 0.67532 0.73676 0.0
H638 H 0.13628 0.61575 0.74404 0.0
H639 H 0.12172 0.59834 0.80516 0.0
C640 C 0.11816 0.08922 0.96433 0.0
C641 C 0.13748 0.11058 0.98249 0.0
C642 C 0.11894 0.08277 0.92575 0.0
C643 C 0.13973 0.09794 0.90537 0.0
C644 C 0.16203 0.11612 0.92503 0.0
C645 C 0.16057 0.12239 0.9636 0.0
C646 C 0.09507 0.06299 0.90561 0.0
C647 C 0.18486 0.13227 0.90422 0.0
C648 C 0.13862 0.08937 0.79814 0.0
C649 C 0.12166 0.11218 0.78561 0.0
C650 C 0.14436 0.08378 0.83728 0.0
C651 C 0.13303 0.10166 0.86387 0.0
C652 C 0.11503 0.12405 0.85105 0.0
C653 C 0.1094 0.12881 0.81206 0.0
C654 C 0.16334 0.05958 0.85005 0.0
C655 C 0.10214 0.14349 0.87844 0.0
H656 H 0.1008 0.07958 0.97937 0.0
H657 H 0.17573 0.13874 0.97766 0.0
H658 H 0.08 0.07596 0.88708 0.0
H659 H 0.10431 0.04747 0.88701 0.0
H660 H 0.08224 0.0508 0.92591 0.0
H661 H 0.20376 0.14039 0.92415 0.0
H662 H 0.19259 0.1183 0.88236 0.0
H663 H 0.17529 0.15112 0.88935 0.0
H664 H 0.14811 0.0766 0.77749 0.0
H665 H 0.09578 0.14606 0.80214 0.0
H666 H 0.15487 0.04755 0.87425 0.0
H667 H 0.18547 0.06881 0.86002 0.0
H668 H 0.16511 0.04413 0.82645 0.0
H669 H 0.08837 0.13039 0.89684 0.0
H670 H 0.08864 0.15985 0.86346 0.0
H671 H 0.11972 0.15507 0.89735 0.0
C672 C 0.11654 0.83855 0.31158 0.0
C673 C 0.12483 0.80996 0.31476 0.0
C674 C 0.10969 0.85115 0.27568 0.0
C675 C 0.11105 0.83477 0.24207 0.0
C676 C 0.11893 0.80576 0.24508 0.0
C677 C 0.1258 0.79377 0.28129 0.0
C678 C 0.10144 0.88216 0.27369 0.0
C679 C 0.12048 0.78744 0.21002 0.0
C680 C 0.07169 0.85968 0.14857 0.0
C681 C 0.09449 0.8735 0.13077 0.0
C682 C 0.0767 0.84703 0.18478 0.0
C683 C 0.1052 0.84827 0.20377 0.0
C684 C 0.12827 0.86234 0.18605 0.0
C685 C 0.12265 0.87473 0.14982 0.0
C686 C 0.05154 0.83208 0.20255 0.0
C687 C 0.15896 0.86425 0.20537 0.0
H688 H 0.11571 0.85129 0.33716 0.0
H689 H 0.13223 0.77171 0.28325 0.0
H690 H 0.11742 0.89543 0.25864 0.0
H691 H 0.07992 0.88353 0.25706 0.0
H692 H 0.10056 0.8917 0.30242 0.0
H693 H 0.12661 0.76514 0.21727 0.0
H694 H 0.09917 0.7861 0.19244 0.0
H695 H 0.13664 0.7976 0.19215 0.0
H696 H 0.04993 0.85828 0.13385 0.0
H697 H 0.14033 0.88568 0.1365 0.0
H698 H 0.04953 0.84183 0.23081 0.0
H699 H 0.05553 0.80894 0.20736 0.0
H700 H 0.03061 0.83349 0.18441 0.0
H701 H 0.15969 0.87537 0.23334 0.0
H702 H 0.17442 0.8761 0.18791 0.0
H703 H 0.16637 0.8422 0.21102 0.0
C704 C 0.34775 0.88072 0.4105 0.0
C705 C 0.36905 0.86504 0.39614 0.0
C706 C 0.34835 0.88543 0.45004 0.0
C707 C 0.37123 0.87482 0.47497 0.0
C708 C 0.39262 0.85877 0.46002 0.0
C709 C 0.39107 0.85406 0.42091 0.0
C710 C 0.32485 0.90218 0.46447 0.0
C711 C 0.4178 0.84704 0.48491 0.0
C712 C 0.41439 0.9008 0.56136 0.0
C713 C 0.41244 0.87512 0.58215 0.0
C714 C 0.39541 0.90457 0.52852 0.0
C715 C 0.37506 0.88162 0.51631 0.0
C716 C 0.36875 0.85918 0.54212 0.0
C717 C 0.38801 0.85589 0.57507 0.0
C718 C 0.40123 0.93005 0.5031 0.0
C719 C 0.34549 0.83563 0.53127 0.0
H720 H 0.33063 0.889 0.39099 0.0
H721 H 0.40753 0.84204 0.40935 0.0
H722 H 0.32223 0.89774 0.49492 0.0
H723 H 0.33038 0.92566 0.46129 0.0
H724 H 0.30373 0.89702 0.44722 0.0
H725 H 0.43226 0.83501 0.46826 0.0
H726 H 0.43115 0.86502 0.50002 0.0
H727 H 0.40965 0.8321 0.50658 0.0
H728 H 0.43296 0.91607 0.56779 0.0
H729 H 0.3862 0.83633 0.59187 0.0
H730 H 0.38062 0.93739 0.48863 0.0
H731 H 0.41478 0.92349 0.48079 0.0
H732 H 0.413 0.94842 0.51952 0.0
H733 H 0.32694 0.84428 0.51327 0.0
H734 H 0.33754 0.82529 0.55704 0.0
H735 H 0.35463 0.81873 0.51461 0.0
C736 C 0.3916 0.19868 0.73944 0.0
C737 C 0.39267 0.18408 0.77451 0.0
C738 C 0.39834 0.18507 0.70613 0.0
C739 C 0.40639 0.15607 0.70771 0.0
C740 C 0.408 0.14135 0.7431 0.0
C741 C 0.40112 0.15549 0.776 0.0
C742 C 0.39635 0.20163 0.66906 0.0
C743 C 0.41661 0.11048 0.7461 0.0
C744 C 0.39529 0.11207 0.61545 0.0
C745 C 0.4233 0.11368 0.60339 0.0
C746 C 0.38955 0.1256 0.64934 0.0
C747 C 0.4124 0.14096 0.67216 0.0
C748 C 0.44081 0.14223 0.66065 0.0
C749 C 0.44587 0.12867 0.62647 0.0
C750 C 0.35893 0.1237 0.66054 0.0
C751 C 0.46582 0.15832 0.6841 0.0
H752 H 0.38521 0.22076 0.73781 0.0
H753 H 0.40204 0.14394 0.80284 0.0
H754 H 0.41713 0.20145 0.65609 0.0
H755 H 0.37922 0.19101 0.6485 0.0
H756 H 0.3912 0.22446 0.67296 0.0
H757 H 0.41777 0.10236 0.77588 0.0
H758 H 0.40066 0.09624 0.72801 0.0
H759 H 0.43807 0.1087 0.73533 0.0
H760 H 0.37772 0.10014 0.59839 0.0
H761 H 0.46748 0.13044 0.61743 0.0
H762 H 0.35107 0.14573 0.6624 0.0
H763 H 0.3585 0.11378 0.68918 0.0
H764 H 0.34362 0.11076 0.63989 0.0
H765 H 0.46163 0.18158 0.68573 0.0
H766 H 0.4868 0.15641 0.67197 0.0
H767 H 0.46787 0.14994 0.71372 0.0
C768 C 0.90349 0.8195 0.14837 0.0
C769 C 0.89058 0.8403 0.16889 0.0
C770 C 0.91563 0.82664 0.11426 0.0
C771 C 0.91512 0.85534 0.10029 0.0
C772 C 0.90181 0.87632 0.12055 0.0
C773 C 0.88961 0.86854 0.15434 0.0
C774 C 0.92949 0.80355 0.09353 0.0
C775 C 0.90081 0.90718 0.10681 0.0
C776 C 0.97153 0.88278 0.03505 0.0
C777 C 0.95546 0.88188 0.99894 0.0
C778 C 0.95878 0.8739 0.06806 0.0
C779 C 0.92918 0.86375 0.06512 0.0
C780 C 0.9129 0.86246 0.02877 0.0
C781 C 0.92618 0.87158 0.99619 0.0
C782 C 0.97697 0.87571 0.10619 0.0
C783 C 0.88136 0.85157 1.0243 0.0
H784 H 0.90474 0.79772 0.15942 0.0
H785 H 0.87924 0.8847 0.1694 0.0
H786 H 0.91993 0.8021 0.06335 0.0
H787 H 0.95305 0.80935 0.09336 0.0
H788 H 0.92672 0.78194 0.10691 0.0
H789 H 0.88931 0.92083 0.12548 0.0
H790 H 0.92322 0.91686 0.10581 0.0
H791 H 0.88973 0.90773 0.07739 0.0
H792 H 0.99416 0.89057 0.0377 0.0
H793 H 0.91353 0.87061 0.96854 0.0
H794 H 0.97681 0.85419 0.12009 0.0
H795 H 0.96761 0.89074 0.12535 0.0
H796 H -0.00016 0.88333 0.10355 0.0
H797 H 0.87901 0.82946 0.03622 0.0
H798 H 0.87192 0.85106 0.994 0.0
H799 H 0.86855 0.86564 0.04063 0.0
C800 C 0.95172 0.22298 0.85442 0.0
C801 C 0.94525 0.25187 0.84646 0.0
C802 C 0.96104 0.21342 0.89178 0.0
C803 C 0.96518 0.23315 0.92299 0.0
C804 C 0.95904 0.26252 0.91519 0.0
C805 C 0.94878 0.27137 0.87751 0.0
C806 C 0.96636 0.18186 0.8978 0.0
C807 C 0.96406 0.28486 0.9466 0.0
C808 C 0.96592 0.20214 0.02598 0.0
C809 C 0.99569 0.19964 0.03769 0.0
C810 C 0.95588 0.21323 0.98954 0.0
C811 C 0.97584 0.22282 0.96335 0.0
C812 C 0.00597 0.22092 0.9753 0.0
C813 C 0.0154 0.20922 1.01167 0.0
C814 C 0.92363 0.21403 0.97868 0.0
C815 C 0.02849 0.23081 0.94932 0.0
H816 H 0.94908 0.20745 0.83116 0.0
H817 H 0.94435 0.29379 0.87221 0.0
H818 H 0.98952 0.17951 0.90796 0.0
H819 H 0.95326 0.17278 0.92017 0.0
H820 H 0.96084 0.16885 0.8713 0.0
H821 H 0.95826 0.3067 0.93658 0.0
H822 H 0.95119 0.27846 0.97043 0.0
H823 H 0.98727 0.28599 0.95825 0.0
H824 H 0.95016 0.1949 0.04516 0.0
H825 H 0.03843 0.20766 1.01972 0.0
H826 H 0.91709 0.20019 0.95318 0.0
H827 H 0.91805 0.23636 0.97094 0.0
H828 H 0.91076 0.20641 1.00208 0.0
H829 H 0.02902 0.21449 0.92648 0.0
H830 H 0.05055 0.23361 0.96494 0.0
H831 H 0.023 0.25152 0.93533 0.0
C832 C 0.61727 0.12929 0.6802 0.0
C833 C 0.62302 0.15829 0.69168 0.0
C834 C 0.60481 0.12198 0.6431 0.0
C835 C 0.59773 0.14416 0.61666 0.0
C836 C 0.60361 0.17346 0.6279 0.0
C837 C 0.61626 0.18016 0.66513 0.0
C838 C 0.59875 0.09048 0.63237 0.0
C839 C 0.59597 0.19776 0.60082 0.0
C840 C 0.58754 0.12446 0.51086 0.0
C841 C 0.55727 0.11963 0.50407 0.0
C842 C 0.60096 0.13268 0.54721 0.0
C843 C 0.5837 0.13661 0.5775 0.0
C844 C 0.55308 0.13248 0.57055 0.0
C845 C 0.54029 0.12371 0.53414 0.0
C846 C 0.63366 0.13661 0.55342 0.0
C847 C 0.53363 0.13666 0.60163 0.0
H848 H 0.62184 0.11219 0.70055 0.0
H849 H 0.62084 0.20262 0.67345 0.0
H850 H 0.57503 0.08574 0.62563 0.0
H851 H 0.60918 0.0856 0.60637 0.0
H852 H 0.60672 0.0758 0.65558 0.0
H853 H 0.60226 0.2194 0.61372 0.0
H854 H 0.60694 0.19575 0.57451 0.0
H855 H 0.57223 0.19633 0.59216 0.0
H856 H 0.60089 0.1212 0.48793 0.0
H857 H 0.51688 0.12012 0.52927 0.0
H858 H 0.64209 0.12097 0.57506 0.0
H859 H 0.64038 0.15863 0.56467 0.0
H860 H 0.64396 0.1334 0.52677 0.0
H861 H 0.53313 0.11704 0.61974 0.0
H862 H 0.51108 0.14013 0.58949 0.0
H863 H 0.54167 0.15536 0.62022 0.0
C864 C 0.5414 0.79784 0.34048 0.0
C865 C 0.55351 0.78802 0.37627 0.0
C866 C 0.55035 0.78858 0.30525 0.0
C867 C 0.57244 0.76857 0.30439 0.0
C868 C 0.58483 0.7585 0.34042 0.0
C869 C 0.57513 0.76793 0.37533 0.0
C870 C 0.53555 0.8009 0.26925 0.0
C871 C 0.6089 0.73799 0.34238 0.0
C872 C 0.58337 0.72282 0.21406 0.0
C873 C 0.60011 0.74192 0.1927 0.0
C874 C 0.57385 0.73107 0.24955 0.0
C875 C 0.58276 0.75871 0.26632 0.0
C876 C 0.60103 0.77743 0.24557 0.0
C877 C 0.60861 0.76926 0.20907 0.0
C878 C 0.55363 0.70994 0.26814 0.0
C879 C 0.61242 0.80656 0.26165 0.0
H880 H 0.52433 0.81281 0.33965 0.0
H881 H 0.5852 0.75999 0.40211 0.0
H882 H 0.53984 0.82476 0.26943 0.0
H883 H 0.54259 0.79215 0.24275 0.0
H884 H 0.51171 0.79666 0.26876 0.0
H885 H 0.62034 0.7368 0.37159 0.0
H886 H 0.59965 0.71599 0.33402 0.0
H887 H 0.62501 0.74465 0.32228 0.0
H888 H 0.57644 0.70173 0.20211 0.0
H889 H 0.62161 0.78439 0.19333 0.0
H890 H 0.54117 0.72036 0.28895 0.0
H891 H 0.56649 0.69313 0.28307 0.0
H892 H 0.53796 0.69872 0.24621 0.0
H893 H 0.59485 0.8218 0.2582 0.0
H894 H 0.6309 0.81579 0.24682 0.0
H895 H 0.61964 0.80496 0.29259 0.0
C896 C 0.68387 0.5996 0.29591 0.0
C897 C 0.66483 0.618 0.27608 0.0
C898 C 0.68402 0.59617 0.33557 0.0
C899 C 0.66463 0.61149 0.35523 0.0
C900 C 0.6445 0.62903 0.33483 0.0
C901 C 0.64485 0.63199 0.29551 0.0
C902 C 0.70563 0.57722 0.35651 0.0
C903 C 0.62325 0.64562 0.35461 0.0
C904 C 0.64109 0.59917 0.4529 0.0
C905 C 0.65453 0.62382 0.47189 0.0
C906 C 0.6467 0.59269 0.41569 0.0
C907 C 0.66621 0.61134 0.39736 0.0
C908 C 0.68235 0.6342 0.41804 0.0
C909 C 0.67622 0.64026 0.45514 0.0
C910 C 0.62936 0.56786 0.39476 0.0
C911 C 0.70359 0.65438 0.39955 0.0
H912 H 0.69922 0.58873 0.28065 0.0
H913 H 0.62971 0.64573 0.27987 0.0
H914 H 0.72312 0.59103 0.37264 0.0
H915 H 0.69511 0.56332 0.37748 0.0
H916 H 0.7157 0.56324 0.33667 0.0
H917 H 0.60804 0.65697 0.33413 0.0
H918 H 0.61032 0.63077 0.37202 0.0
H919 H 0.63527 0.66198 0.37421 0.0
H920 H 0.62487 0.58594 0.46626 0.0
H921 H 0.68674 0.65929 0.46972 0.0
H922 H 0.64273 0.55671 0.37571 0.0
H923 H 0.61076 0.57634 0.37671 0.0
H924 H 0.62061 0.55183 0.41484 0.0
H925 H 0.71724 0.64212 0.38209 0.0
H926 H 0.718 0.6675 0.42102 0.0
H927 H 0.69143 0.66936 0.38021 0.0
C928 C 0.64054 0.32681 0.80758 0.0
C929 C 0.64517 0.29719 0.81043 0.0
C930 C 0.6339 0.33988 0.77186 0.0
C931 C 0.63165 0.32294 0.73809 0.0
C932 C 0.63621 0.29304 0.7408 0.0
C933 C 0.64302 0.28062 0.77678 0.0
C934 C 0.62942 0.37186 0.77022 0.0
C935 C 0.63384 0.27407 0.70565 0.0
C936 C 0.58935 0.34936 0.64736 0.0
C937 C 0.61168 0.35978 0.62588 0.0
C938 C 0.5955 0.3376 0.68395 0.0
C939 C 0.62472 0.33643 0.69986 0.0
C940 C 0.64735 0.34738 0.67871 0.0
C941 C 0.6406 0.35878 0.64203 0.0
C942 C 0.57069 0.32609 0.70541 0.0
C943 C 0.6788 0.34662 0.6946 0.0
H944 H 0.6422 0.33989 0.83327 0.0
H945 H 0.6467 0.25778 0.7784 0.0
H946 H 0.64528 0.38294 0.75267 0.0
H947 H 0.6074 0.37552 0.75629 0.0
H948 H 0.63192 0.38204 0.79899 0.0
H949 H 0.63847 0.25131 0.71257 0.0
H950 H 0.61165 0.27431 0.69054 0.0
H951 H 0.64923 0.28258 0.68561 0.0
H952 H 0.56691 0.35046 0.63562 0.0
H953 H 0.6581 0.36633 0.62566 0.0
H954 H 0.57163 0.33718 0.73342 0.0
H955 H 0.57262 0.3027 0.71119 0.0
H956 H 0.54917 0.32901 0.6894 0.0
H957 H 0.6824 0.35765 0.72277 0.0
H958 H 0.6938 0.35714 0.67535 0.0
H959 H 0.68445 0.32387 0.69914 0.0
C960 C 0.90575 0.31967 0.05309 0.0
C961 C 0.90607 0.33618 0.08636 0.0
C962 C 0.88484 0.32339 1.02226 0.0
C963 C 0.86392 0.34405 0.0252 0.0
C964 C 0.86084 0.35636 0.06109 0.0
C965 C 0.8822 0.35238 0.09153 0.0
C966 C 0.88814 0.3086 0.98491 0.0
C967 C 0.83747 0.37678 0.06605 0.0
C968 C 0.86682 0.38678 0.93603 0.0
C969 C 0.84674 0.37009 0.91153 0.0
C970 C 0.87015 0.38104 0.9751 0.0
C971 C 0.85242 0.35843 0.98973 0.0
C972 C 0.82855 0.34551 0.9662 0.0
C973 C 0.82597 0.35152 0.92699 0.0
C974 C 0.89546 0.39619 0.9993 0.0
C975 C 0.80793 0.32273 0.98101 0.0
H976 H 0.92363 0.30626 0.04955 0.0
H977 H 0.88181 0.3646 0.11766 0.0
H978 H 0.8667 0.30082 0.9705 0.0
H979 H 0.89841 0.32424 0.96564 0.0
H980 H 0.90194 0.28988 0.98906 0.0
H981 H 0.83169 0.37637 0.09588 0.0
H982 H 0.84553 0.39917 0.05981 0.0
H983 H 0.81765 0.3713 0.04633 0.0
H984 H 0.88216 0.40198 0.92403 0.0
H985 H 0.80964 0.33934 0.90819 0.0
H986 H 0.91273 0.38089 1.00607 0.0
H987 H 0.8886 0.40364 0.02664 0.0
H988 H 0.90501 0.41518 0.98456 0.0
H989 H 0.81463 0.30098 0.97393 0.0
H990 H 0.78558 0.32468 0.96692 0.0
H991 H 0.80756 0.32425 1.01238 0.0
C992 C 0.88969 0.67038 0.28424 0.0
C993 C 0.88359 0.69965 0.28522 0.0
C994 C 0.89686 0.65752 0.25057 0.0
C995 C 0.8979 0.67426 0.21695 0.0
C996 C 0.89237 0.70395 0.21797 0.0
C997 C 0.8853 0.71624 0.25198 0.0
C998 C 0.90274 0.62584 0.25076 0.0
C999 C 0.89312 0.72263 0.18285 0.0
C1000 C 0.93726 0.64781 0.13497 0.0
C1001 C 0.91415 0.63598 0.10967 0.0
C1002 C 0.93238 0.66 0.17012 0.0
C1003 C 0.90366 0.66053 0.18033 0.0
C1004 C 0.88027 0.64843 0.15511 0.0
C1005 C 0.88578 0.63626 0.12026 0.0
C1006 C 0.95793 0.67276 0.19606 0.0
C1007 C 0.84931 0.64854 0.16482 0.0
H1008 H 0.88846 0.65732 0.30965 0.0
H1009 H 0.88062 0.73884 0.2522 0.0
H1010 H 0.88617 0.6138 0.23083 0.0
H1011 H 0.92422 0.6229 0.24061 0.0
H1012 H 0.90237 0.61613 0.27959 0.0
H1013 H 0.89115 0.74583 0.18927 0.0
H1014 H 0.91363 0.72046 0.16977 0.0
H1015 H 0.87497 0.71537 0.16132 0.0
H1016 H 0.9592 0.64814 0.12694 0.0
H1017 H 0.86779 0.6268 0.1013 0.0
H1018 H 0.95828 0.66268 0.22469 0.0
H1019 H 0.95577 0.69626 0.1999 0.0
H1020 H 0.97899 0.66971 0.18464 0.0
H1021 H 0.8471 0.63714 0.1922 0.0
H1022 H 0.83358 0.63801 0.14236 0.0
H1023 H 0.84343 0.67112 0.16867 0.0
C1024 C 0.4341 0.36164 0.48148 0.0
C1025 C 0.46198 0.37568 0.4868 0.0
C1026 C 0.41955 0.3518 0.51283 0.0
C1027 C 0.43314 0.35596 0.55057 0.0
C1028 C 0.46118 0.37028 0.55607 0.0
C1029 C 0.47515 0.37995 0.52432 0.0
C1030 C 0.3897 0.33671 0.50557 0.0
C1031 C 0.47664 0.37519 0.59562 0.0
C1032 C 0.38857 0.35496 0.6361 0.0
C1033 C 0.39316 0.32751 0.65188 0.0
C1034 C 0.40081 0.36417 0.60278 0.0
C1035 C 0.41817 0.34556 0.58443 0.0
C1036 C 0.42232 0.31756 0.59961 0.0
C1037 C 0.40979 0.30889 0.633 0.0
C1038 C 0.39563 0.39411 0.58765 0.0
C1039 C 0.4407 0.29699 0.58116 0.0
H1040 H 0.4237 0.35804 0.45275 0.0
H1041 H 0.4967 0.39062 0.52906 0.0
H1042 H 0.38995 0.31445 0.51722 0.0
H1043 H 0.37395 0.34829 0.52055 0.0
H1044 H 0.38189 0.33545 0.47469 0.0
H1045 H 0.49842 0.38656 0.59514 0.0
H1046 H 0.46345 0.38819 0.61285 0.0
H1047 H 0.47929 0.35417 0.61031 0.0
H1048 H 0.37538 0.36941 0.6499 0.0
H1049 H 0.41378 0.28776 0.64496 0.0
H1050 H 0.3865 0.39288 0.55728 0.0
H1051 H 0.41655 0.40726 0.5889 0.0
H1052 H 0.38055 0.40548 0.60409 0.0
H1053 H 0.43289 0.29415 0.55048 0.0
H1054 H 0.44046 0.27542 0.59502 0.0
H1055 H 0.46348 0.30616 0.58285 0.0
C1056 C 0.46187 0.67705 0.51538 0.0
C1057 C 0.49199 0.67515 0.52469 0.0
C1058 C 0.44999 0.68641 0.47887 0.0
C1059 C 0.46837 0.69437 0.45011 0.0
C1060 C 0.49881 0.6926 0.45937 0.0
C1061 C 0.5101 0.68304 0.49604 0.0
C1062 C 0.41751 0.68763 0.47099 0.0
C1063 C 0.51964 0.70046 0.43026 0.0
C1064 C 0.43707 0.69346 0.34338 0.0
C1065 C 0.43211 0.7227 0.33561 0.0
C1066 C 0.44849 0.68406 0.38007 0.0
C1067 C 0.4558 0.70422 0.4105 0.0
C1068 C 0.45111 0.73384 0.40274 0.0
C1069 C 0.43921 0.74258 0.36594 0.0
C1070 C 0.45279 0.65233 0.38625 0.0
C1071 C 0.45882 0.75651 0.4334 0.0
H1072 H 0.44737 0.67114 0.53673 0.0
H1073 H 0.53335 0.68171 0.50218 0.0
H1074 H 0.41201 0.71003 0.46347 0.0
H1075 H 0.40936 0.67364 0.44617 0.0
H1076 H 0.40597 0.68056 0.49585 0.0
H1077 H 0.54254 0.70265 0.44326 0.0
H1078 H 0.5178 0.68335 0.40801 0.0
H1079 H 0.51421 0.72101 0.4158 0.0
H1080 H 0.43191 0.67766 0.32067 0.0
H1081 H 0.43584 0.76525 0.36083 0.0
H1082 H 0.44066 0.64417 0.41005 0.0
H1083 H 0.47609 0.64915 0.39449 0.0
H1084 H 0.44541 0.63914 0.36035 0.0
H1085 H 0.44412 0.75324 0.45616 0.0
H1086 H 0.45705 0.77883 0.42217 0.0
H1087 H 0.4813 0.75437 0.44678 0.0
C1088 C 0.11614 0.64355 0.18616 0.0
C1089 C 0.11766 0.67251 0.1984 0.0
C1090 C 0.10386 0.63535 0.14924 0.0
C1091 C 0.09264 0.65654 0.12369 0.0
C1092 C 0.09437 0.68584 0.13565 0.0
C1093 C 0.10686 0.69346 0.17271 0.0
C1094 C 0.10245 0.60387 0.13778 0.0
C1095 C 0.08271 0.70916 0.10943 0.0
C1096 C 0.0815 0.63881 1.01703 0.0
C1097 C 0.05164 0.63083 1.01143 0.0
C1098 C 0.09509 0.64728 0.05327 0.0
C1099 C 0.07849 0.6479 0.08484 0.0
C1100 C 0.04834 0.63997 0.07935 0.0
C1101 C 0.03534 0.63153 0.04287 0.0
C1102 C 0.12728 0.65546 0.05783 0.0
C1103 C 0.02975 0.64039 0.11207 0.0
H1104 H 0.12393 0.62706 0.20581 0.0
H1105 H 0.10822 0.71594 0.18152 0.0
H1106 H 0.07945 0.59569 0.13146 0.0
H1107 H 0.11315 0.60138 0.11134 0.0
H1108 H 0.11302 0.59018 0.1604 0.0
H1109 H 0.0862 0.731 0.1227 0.0
H1110 H 0.09334 0.70935 0.08262 0.0
H1111 H 0.05909 0.70456 0.10154 0.0
H1112 H 0.09437 0.63836 0.99309 0.0
H1113 H 0.01227 0.62552 0.03907 0.0
H1114 H 0.13847 0.64097 0.07885 0.0
H1115 H 0.13135 0.67785 0.06912 0.0
H1116 H 0.13711 0.6541 0.0305 0.0
H1117 H 0.03802 0.62565 0.13497 0.0
H1118 H 0.00665 0.6337 0.10307 0.0
H1119 H 0.0309 0.66245 0.12455 0.0
C1120 C 0.09242 0.24214 0.73075 0.0
C1121 C 0.09842 0.26237 0.70195 0.0
C1122 C 0.08449 0.25046 0.76712 0.0
C1123 C 0.08263 0.28013 0.7766 0.0
C1124 C 0.08892 0.30073 0.74783 0.0
C1125 C 0.09644 0.29175 0.71136 0.0
C1126 C 0.07766 0.22714 0.79539 0.0
C1127 C 0.08775 0.33257 0.75561 0.0
C1128 C 0.0373 0.30196 0.85903 0.0
C1129 C 0.05811 0.3062 0.891 0.0
C1130 C 0.0448 0.29343 0.82255 0.0
C1131 C 0.07418 0.28939 0.81623 0.0
C1132 C 0.09534 0.2938 0.84843 0.0
C1133 C 0.08714 0.30166 0.88494 0.0
C1134 C 0.02091 0.28834 0.79068 0.0
C1135 C 0.12698 0.29045 0.84428 0.0
H1136 H 0.09344 0.21934 0.72472 0.0
H1137 H 0.10069 0.30795 0.69006 0.0
H1138 H 0.09233 0.2303 0.82217 0.0
H1139 H 0.05512 0.22857 0.80281 0.0
H1140 H 0.07992 0.20508 0.78418 0.0
H1141 H 0.0946 0.34613 0.73166 0.0
H1142 H 0.06531 0.33742 0.76046 0.0
H1143 H 0.102 0.33876 0.78197 0.0
H1144 H 0.01473 0.30475 0.8627 0.0
H1145 H 0.10377 0.30484 0.90876 0.0
H1146 H 0.02075 0.26573 0.78031 0.0
H1147 H 0.02504 0.30296 0.76663 0.0
H1148 H -0.00083 0.29208 0.79959 0.0
H1149 H 0.13014 0.26796 0.83563 0.0
H1150 H 0.14109 0.29556 0.87115 0.0
H1151 H 0.13411 0.30493 0.82141 0.0
C1152 C 0.03917 0.30142 0.22941 0.0
C1153 C 0.01405 0.31471 0.21562 0.0
C1154 C 0.03939 0.28635 0.2638 0.0
C1155 C 0.01234 0.28015 0.27875 0.0
C1156 C 0.99284 0.30193 0.27412 0.0
C1157 C 0.99253 0.31815 0.24036 0.0
C1158 C 0.06746 0.27555 0.28183 0.0
C1159 C 0.96884 0.30252 0.29947 0.0
C1160 C 0.99528 0.23242 0.20565 0.0
C1161 C 0.02143 0.21943 0.21491 0.0
C1162 C 0.98255 0.24629 0.23431 0.0
C1163 C -0.00123 0.2503 0.27063 0.0
C1164 C 0.01709 0.22855 0.28198 0.0
C1165 C 0.03143 0.21591 0.25365 0.0
C1166 C 0.95243 0.25646 0.22562 0.0
C1167 C 0.02485 0.22355 0.32367 0.0
H1168 H 0.05797 0.30215 0.21345 0.0
H1169 H 0.97433 0.33075 0.23175 0.0
H1170 H 0.06551 0.26727 0.31099 0.0
H1171 H 0.07496 0.25861 0.26366 0.0
H1172 H 0.08451 0.29351 0.2837 0.0
H1173 H 0.94816 0.30733 0.28279 0.0
H1174 H 0.96576 0.28181 0.31495 0.0
H1175 H 0.97494 0.31946 0.32137 0.0
H1176 H 0.98499 0.23195 0.17656 0.0
H1177 H 0.0508 0.20483 0.26172 0.0
H1178 H 0.95316 0.27678 0.20897 0.0
H1179 H 0.94201 0.25973 0.25206 0.0
H1180 H 0.93869 0.24022 0.20756 0.0
H1181 H 0.04565 0.21339 0.32864 0.0
H1182 H 0.00752 0.20903 0.33419 0.0
H1183 H 0.02577 0.24391 0.34045 0.0
C1184 C 0.93907 0.76996 0.46211 0.0
C1185 C 0.92704 0.75192 0.43199 0.0
C1186 C 0.96827 0.76861 0.47636 0.0
C1187 C 0.98567 0.74981 0.4586 0.0
C1188 C 0.97266 0.72941 0.43104 0.0
C1189 C 0.94318 0.73041 0.41853 0.0
C1190 C 0.9809 0.78899 0.50798 0.0
C1191 C 0.9904 0.7088 0.4115 0.0
C1192 C 0.05866 0.77529 0.4305 0.0
C1193 C 0.07581 0.75458 0.44854 0.0
C1194 C 0.02935 0.77567 0.43623 0.0
C1195 C 0.01751 0.75549 0.46169 0.0
C1196 C 0.03585 0.73722 0.4838 0.0
C1197 C 0.06485 0.73649 0.47627 0.0
C1198 C 0.01054 0.79556 0.41197 0.0
C1199 C 0.02458 0.71691 0.51319 0.0
H1200 H 0.92609 0.786 0.47326 0.0
H1201 H 0.93352 0.71616 0.39566 0.0
H1202 H -0.00082 0.7796 0.52564 0.0
H1203 H 0.98923 0.80948 0.4955 0.0
H1204 H 0.96409 0.79431 0.52668 0.0
H1205 H 0.97663 0.69342 0.39216 0.0
H1206 H 0.00571 0.72125 0.39443 0.0
H1207 H 0.00346 0.69618 0.43293 0.0
H1208 H 0.06748 0.7895 0.40945 0.0
H1209 H 0.0786 0.72102 0.49099 0.0
H1210 H -0.0019 0.80852 0.43018 0.0
H1211 H 0.99463 0.78254 0.3922 0.0
H1212 H 0.02345 0.81065 0.39476 0.0
H1213 H 0.00562 0.72527 0.52543 0.0
H1214 H 0.04185 0.71337 0.53671 0.0
H1215 H 0.0178 0.69561 0.49973 0.0
C1216 C 0.47922 0.70192 0.68678 0.0
C1217 C 0.50907 0.70069 0.69756 0.0
C1218 C 0.46112 0.70985 0.71386 0.0
C1219 C 0.47442 0.72362 0.74762 0.0
C1220 C 0.49989 0.71093 0.76276 0.0
C1221 C 0.51895 0.70246 0.73669 0.0
C1222 C 0.42875 0.7064 0.70475 0.0
C1223 C 0.50857 0.7113 0.80495 0.0
C1224 C 0.50574 0.77843 0.69694 0.0
C1225 C 0.48016 0.78399 0.6744 0.0
C1226 C 0.50435 0.76802 0.73395 0.0
C1227 C 0.47724 0.75615 0.74422 0.0
C1228 C 0.45258 0.7695 0.72723 0.0
C1229 C 0.45381 0.78213 0.69102 0.0
C1230 C 0.5315 0.77005 0.76143 0.0
C1231 C 0.42492 0.76868 0.74605 0.0
H1232 H 0.47007 0.69661 0.6579 0.0
H1233 H 0.5411 0.69828 0.74663 0.0
H1234 H 0.41746 0.70859 0.73077 0.0
H1235 H 0.42156 0.72272 0.68329 0.0
H1236 H 0.4225 0.68477 0.69182 0.0
H1237 H 0.49929 0.69118 0.81721 0.0
H1238 H 0.53249 0.712 0.81128 0.0
H1239 H 0.49958 0.72966 0.81905 0.0
H1240 H 0.5266 0.78431 0.68698 0.0
H1241 H 0.43449 0.79042 0.67602 0.0
H1242 H 0.54645 0.75357 0.75456 0.0
H1243 H 0.52662 0.76783 0.79146 0.0
H1244 H 0.54331 0.79126 0.75827 0.0
H1245 H 0.40602 0.76203 0.72529 0.0
H1246 H 0.42152 0.79084 0.75586 0.0
H1247 H 0.42578 0.75409 0.77117 0.0
C1248 C 0.57511 0.26948 0.9226 0.0
C1249 C 0.59005 0.24846 0.94353 0.0
C1250 C 0.54536 0.27145 0.92457 0.0
C1251 C 0.53081 0.25256 0.9491 0.0
C1252 C 0.54683 0.23424 0.97427 0.0
C1253 C 0.57637 0.23193 0.9706 0.0
C1254 C 0.52906 0.29118 0.89699 0.0
C1255 C 0.53244 0.21509 1.00246 0.0
C1256 C 0.45133 0.26645 0.94232 0.0
C1257 C 0.44034 0.2469 0.91335 0.0
C1258 C 0.48047 0.26665 0.9575 0.0
C1259 C 0.49892 0.24769 0.94197 0.0
C1260 C 0.48725 0.22654 0.9146 0.0
C1261 C 0.45783 0.22609 0.90112 0.0
C1262 C 0.49181 0.28815 0.98844 0.0
C1263 C 0.50624 0.20599 0.8971 0.0
H1264 H 0.58596 0.28243 0.90196 0.0
H1265 H 0.58833 0.21612 0.98741 0.0
H1266 H 0.51557 0.27794 0.87477 0.0
H1267 H 0.51424 0.30397 0.91188 0.0
H1268 H 0.54392 0.30636 0.88262 0.0
H1269 H 0.54818 0.20982 0.02707 0.0
H1270 H 0.51394 0.22545 1.01323 0.0
H1271 H 0.52396 0.19448 0.98828 0.0
H1272 H 0.43736 0.2821 0.9523 0.0
H1273 H 0.44904 0.21084 0.87892 0.0
H1274 H 0.47391 0.29669 1.00284 0.0
H1275 H 0.50385 0.30664 0.97589 0.0
H1276 H 0.50711 0.27811 1.01012 0.0
H1277 H 0.52243 0.21844 0.88138 0.0
H1278 H 0.49351 0.1904 0.87697 0.0
H1279 H 0.51838 0.19358 0.91971 0.0
C1280 C 0.98479 0.81468 0.8873 0.0
C1281 C 0.00668 0.83191 0.87239 0.0
C1282 C 0.98192 0.78495 0.87998 0.0
C1283 C 0.00082 0.7727 0.85618 0.0
C1284 C 0.02057 0.79072 0.83745 0.0
C1285 C 0.02371 0.82023 0.84646 0.0
C1286 C 0.96066 0.76638 0.9007 0.0
C1287 C 0.03986 0.77865 0.81022 0.0
C1288 C 0.02004 0.69917 0.89177 0.0
C1289 C -0.00204 0.68181 0.87161 0.0
C1290 C 0.02256 0.72892 0.88505 0.0
C1291 C 0.0031 0.74106 0.85661 0.0
C1292 C 0.98303 0.72294 0.83318 0.0
C1293 C 0.98028 0.69341 0.84152 0.0
C1294 C 0.04416 0.74758 0.91086 0.0
C1295 C 0.96307 0.73489 0.80123 0.0
H1296 H 0.97156 0.82399 0.90718 0.0
H1297 H 0.04025 0.83395 0.83439 0.0
H1298 H 0.9468 0.75193 0.88034 0.0
H1299 H 0.97275 0.75245 0.92163 0.0
H1300 H 0.94639 0.7795 0.91622 0.0
H1301 H 0.04801 0.79568 0.79102 0.0
H1302 H 0.05888 0.76961 0.82667 0.0
H1303 H 0.02812 0.76092 0.79261 0.0
H1304 H 0.03378 0.68992 0.91485 0.0
H1305 H 0.96358 0.6796 0.82548 0.0
H1306 H 0.03236 0.76151 0.92876 0.0
H1307 H 0.05769 0.76202 0.89373 0.0
H1308 H 0.05876 0.73453 0.93001 0.0
H1309 H 0.94398 0.74328 0.81307 0.0
H1310 H 0.95504 0.7179 0.7798 0.0
H1311 H 0.97416 0.75302 0.78667 0.0
C1312 C 0.52243 0.70427 0.05983 0.0
C1313 C 0.54508 0.68586 0.06524 0.0
C1314 C 0.50374 0.70655 0.08826 0.0
C1315 C 0.51092 0.69301 0.12403 0.0
C1316 C 0.53092 0.67103 0.12657 0.0
C1317 C 0.54555 0.66581 0.095 0.0
C1318 C 0.47928 0.72657 0.08148 0.0
C1319 C 0.54017 0.65523 0.16299 0.0
C1320 C 0.49964 0.7499 0.19621 0.0
C1321 C 0.47847 0.73568 0.21567 0.0
C1322 C 0.51235 0.73536 0.16833 0.0
C1323 C 0.50255 0.70621 0.15904 0.0
C1324 C 0.48353 0.69094 0.18209 0.0
C1325 C 0.47254 0.70587 0.2112 0.0
C1326 C 0.53403 0.75263 0.14688 0.0
C1327 C 0.47331 0.65953 0.17533 0.0
H1328 H 0.5212 0.71893 0.03575 0.0
H1329 H 0.56218 0.65029 0.09772 0.0
H1330 H 0.46621 0.72081 0.05405 0.0
H1331 H 0.46472 0.72565 0.1046 0.0
H1332 H 0.48815 0.74914 0.07829 0.0
H1333 H 0.56378 0.65173 0.16531 0.0
H1334 H 0.53587 0.66674 0.18908 0.0
H1335 H 0.52855 0.63352 0.16224 0.0
H1336 H 0.50367 0.77312 0.19925 0.0
H1337 H 0.45677 0.69487 0.22763 0.0
H1338 H 0.52243 0.76684 0.12595 0.0
H1339 H 0.54758 0.73866 0.1317 0.0
H1340 H 0.54828 0.76723 0.1667 0.0
H1341 H 0.47412 0.65253 0.14541 0.0
H1342 H 0.45087 0.65508 0.18277 0.0
H1343 H 0.48702 0.64581 0.19459 0.0
C1344 C 0.52316 0.18003 0.37207 0.0
C1345 C 0.49652 0.16413 0.3651 0.0
C1346 C 0.52467 0.21019 0.3688 0.0
C1347 C 0.49882 0.22442 0.35894 0.0
C1348 C 0.47252 0.20816 0.34783 0.0
C1349 C 0.47172 0.17803 0.35083 0.0
C1350 C 0.55334 0.22691 0.37955 0.0
C1351 C 0.4446 0.22257 0.33677 0.0
C1352 C 0.49798 0.29273 0.41626 0.0
C1353 C 0.50468 0.3138 0.38963 0.0
C1354 C 0.49443 0.26357 0.40583 0.0
C1355 C 0.49827 0.25547 0.368 0.0
C1356 C 0.50347 0.27688 0.3404 0.0
C1357 C 0.5064 0.30602 0.35156 0.0
C1358 C 0.48803 0.24137 0.43585 0.0
C1359 C 0.50785 0.26908 0.29991 0.0
H1360 H 0.54245 0.16916 0.38239 0.0
H1361 H 0.45118 0.16558 0.3446 0.0
H1362 H 0.55655 0.24497 0.35938 0.0
H1363 H 0.55339 0.2364 0.40846 0.0
H1364 H 0.57192 0.21289 0.37989 0.0
H1365 H 0.42766 0.20733 0.32197 0.0
H1366 H 0.43625 0.23067 0.36289 0.0
H1367 H 0.44827 0.24141 0.31798 0.0
H1368 H 0.49637 0.299 0.44558 0.0
H1369 H 0.51165 0.32251 0.33101 0.0
H1370 H 0.50699 0.22807 0.44221 0.0
H1371 H 0.46919 0.22657 0.42523 0.0
H1372 H 0.48324 0.2515 0.46287 0.0
H1373 H 0.53023 0.26211 0.29918 0.0
H1374 H 0.50501 0.28779 0.28039 0.0
H1375 H 0.4926 0.25085 0.28903 0.0
C1376 C 0.01488 0.24029 0.55531 0.0
C1377 C 0.04297 0.24986 0.54879 0.0
C1378 C -0.00156 0.25816 0.57535 0.0
C1379 C 0.01148 0.28502 0.59003 0.0
C1380 C 0.03699 0.29674 0.57541 0.0
C1381 C 0.0508 0.27947 0.55131 0.0
C1382 C 0.96986 0.24563 0.58647 0.0
C1383 C 0.05264 0.32502 0.58905 0.0
C1384 C 0.97501 0.32634 0.66205 0.0
C1385 C 0.97795 0.30765 0.69337 0.0
C1386 C 0.98707 0.32035 0.62845 0.0
C1387 C 0.00326 0.29567 0.62681 0.0
C1388 C 0.00958 0.27916 0.66029 0.0
C1389 C 0.99642 0.28517 0.69307 0.0
C1390 C 0.97985 0.33865 0.59394 0.0
C1391 C 0.02834 0.25369 0.66096 0.0
H1392 H 0.00777 0.21769 0.55097 0.0
H1393 H 0.07144 0.2872 0.5423 0.0
H1394 H 0.97356 0.2262 0.60412 0.0
H1395 H 0.95865 0.26113 0.60264 0.0
H1396 H 0.95569 0.23836 0.56052 0.0
H1397 H 0.07619 0.32221 0.59592 0.0
H1398 H 0.0505 0.34106 0.56562 0.0
H1399 H 0.04453 0.33408 0.61469 0.0
H1400 H 0.9611 0.34425 0.66244 0.0
H1401 H -0.00101 0.27098 0.71741 0.0
H1402 H 0.96648 0.32494 0.57252 0.0
H1403 H -0.00036 0.34661 0.5812 0.0
H1404 H 0.96763 0.35759 0.60039 0.0
H1405 H 0.01529 0.2343 0.64916 0.0
H1406 H 0.03698 0.24842 0.69053 0.0
H1407 H 0.04658 0.25798 0.64334 0.0
C1408 C 0.02222 0.1005 0.04328 0.0
C1409 C 0.02343 0.09459 0.0824 0.0
C1410 C 0.02116 0.07813 1.0162 0.0
C1411 C 0.0203 0.04895 0.02845 0.0
C1412 C 0.02377 0.04299 0.06816 0.0
C1413 C 0.02534 0.06595 0.09475 0.0
C1414 C 0.01881 0.08567 0.97434 0.0
C1415 C 0.02362 0.0123 0.08254 0.0
C1416 C 0.97376 0.99506 0.96276 0.0
C1417 C 0.99444 0.98219 0.94315 0.0
C1418 C 0.98198 0.01668 0.99044 0.0
C1419 C 0.01178 0.02516 0.99983 0.0
C1420 C 0.03281 0.01195 0.98042 0.0
C1421 C 0.0238 0.99143 0.95138 0.0
C1422 C 0.95865 0.03052 1.00964 0.0
C1423 C 0.06482 0.01852 0.99132 0.0
H1424 H 0.02045 0.12266 0.03371 0.0
H1425 H 0.02575 0.0613 0.12497 0.0
H1426 H 0.03488 0.07421 0.95978 0.0
H1427 H 0.99687 0.0785 0.96078 0.0
H1428 H 0.02249 0.10929 0.96962 0.0
H1429 H 0.00128 0.00202 0.0776 0.0
H1430 H 0.03785 -0.0006 0.06674 0.0
H1431 H 0.03091 0.01131 0.11354 0.0
H1432 H 0.95098 0.98826 0.95639 0.0
H1433 H 0.03985 0.98222 0.9356 0.0
H1434 H 0.95985 0.05418 1.00438 0.0
H1435 H 0.96215 0.02733 0.04096 0.0
H1436 H 0.93649 0.02149 0.99923 0.0
H1437 H 0.06977 0.04201 0.99594 0.0
H1438 H 0.07818 0.01068 0.96953 0.0
H1439 H 0.07131 0.00759 1.01864 0.0
C1440 C 0.25103 0.79998 0.3981 0.0
C1441 C 0.22322 0.78778 0.38625 0.0
C1442 C 0.2741 0.79702 0.37579 0.0
C1443 C 0.26904 0.78167 0.34071 0.0
C1444 C 0.24057 0.77026 0.32813 0.0
C1445 C 0.21795 0.77385 0.35087 0.0
C1446 C 0.30384 0.81014 0.38991 0.0
C1447 C 0.23409 0.75366 0.29106 0.0
C1448 C 0.32254 0.78259 0.26518 0.0
C1449 C 0.33548 0.75642 0.27292 0.0
C1450 C 0.30182 0.79205 0.28822 0.0
C1451 C 0.29371 0.77465 0.3191 0.0
C1452 C 0.30761 0.7488 0.32764 0.0
C1453 C 0.32831 0.74011 0.30458 0.0
C1454 C 0.28804 0.82016 0.27891 0.0
C1455 C 0.2998 0.7296 0.36028 0.0
H1456 H 0.25472 0.81171 0.42494 0.0
H1457 H 0.19604 0.76616 0.34063 0.0
H1458 H 0.31986 0.79328 0.39189 0.0
H1459 H 0.31073 0.82662 0.36927 0.0
H1460 H 0.30435 0.82065 0.41832 0.0
H1461 H 0.24123 0.76693 0.26709 0.0
H1462 H 0.2464 0.73385 0.29241 0.0
H1463 H 0.21061 0.74717 0.28473 0.0
H1464 H 0.32817 0.7953 0.24084 0.0
H1465 H 0.33852 0.72001 0.311 0.0
H1466 H 0.28929 0.83389 0.30486 0.0
H1467 H 0.26471 0.81575 0.26891 0.0
H1468 H 0.29864 0.83245 0.25645 0.0
H1469 H 0.30197 0.7422 0.38727 0.0
H1470 H 0.31369 0.71093 0.36427 0.0
H1471 H 0.27681 0.72117 0.35488 0.0
C1472 C 0.54566 0.02441 0.48421 0.0
C1473 C 0.52889 0.02225 0.44874 0.0
C1474 C 0.53993 0.00564 0.51428 0.0
C1475 C 0.5173 0.9836 0.50854 0.0
C1476 C 0.50014 0.98144 0.47277 0.0
C1477 C 0.50596 0.00101 0.44337 0.0
C1478 C 0.5583 0.00931 0.55213 0.0
C1479 C 0.47598 0.95814 0.46538 0.0
C1480 C 0.52489 0.91803 0.57355 0.0
C1481 C 0.50533 0.92293 0.60021 0.0
C1482 C 0.52836 0.93713 0.54304 0.0
C1483 C 0.51243 0.96229 0.53962 0.0
C1484 C 0.49292 0.9676 0.56687 0.0
C1485 C 0.48954 0.9478 0.59677 0.0
C1486 C 0.5492 0.93043 0.51455 0.0
C1487 C 0.47579 0.99432 0.56461 0.0
H1488 H 0.56317 0.04109 0.48867 0.0
H1489 H 0.49294 -0.00062 0.41599 0.0
H1490 H 0.54423 0.01144 0.57546 0.0
H1491 H 0.57074 0.98986 0.55823 0.0
H1492 H 0.57386 0.0286 0.55268 0.0
H1493 H 0.46414 0.95976 0.43646 0.0
H1494 H 0.48497 0.93652 0.46837 0.0
H1495 H 0.46029 0.95954 0.48688 0.0
H1496 H 0.53773 0.89931 0.57678 0.0
H1497 H 0.47438 0.95172 0.61734 0.0
H1498 H 0.56703 0.94763 0.51546 0.0
H1499 H 0.53784 0.93005 0.48523 0.0
H1500 H 0.55885 0.90929 0.52014 0.0
H1501 H 0.49084 0.01398 0.56646 0.0
H1502 H 0.46132 0.99518 0.58776 0.0
H1503 H 0.46234 0.99501 0.53673 0.0
C1504 C 0.27442 0.22516 0.80905 0.0
C1505 C 0.29644 0.20577 0.8104 0.0
C1506 C 0.2536 0.22609 0.77692 0.0
C1507 C 0.2554 0.20783 0.74497 0.0
C1508 C 0.27812 0.18877 0.74602 0.0
C1509 C 0.29803 0.1877 0.77882 0.0
C1510 C 0.22946 0.24639 0.77727 0.0
C1511 C 0.28149 0.16954 0.71242 0.0
C1512 C 0.18736 0.19646 0.67367 0.0
C1513 C 0.19177 0.21898 0.64797 0.0
C1514 C 0.20828 0.19174 0.70479 0.0
C1515 C 0.23439 0.20976 0.70982 0.0
C1516 C 0.2399 0.23081 0.68184 0.0
C1517 C 0.21843 0.23536 0.65166 0.0
C1518 C 0.20127 0.16896 0.73368 0.0
C1519 C 0.26778 0.24978 0.68495 0.0
H1520 H 0.27301 0.23898 0.83349 0.0
H1521 H 0.31518 0.17279 0.77958 0.0
H1522 H 0.2309 0.26247 0.75405 0.0
H1523 H 0.20811 0.23409 0.77186 0.0
H1524 H 0.23023 0.25815 0.80484 0.0
H1525 H 0.30074 0.1564 0.7174 0.0
H1526 H 0.2618 0.15472 0.70642 0.0
H1527 H 0.28366 0.18287 0.68653 0.0
H1528 H 0.16679 0.18396 0.67106 0.0
H1529 H 0.2219 0.25295 0.63193 0.0
H1530 H 0.19242 0.17942 0.75791 0.0
H1531 H 0.2209 0.15808 0.74521 0.0
H1532 H 0.18475 0.1523 0.72117 0.0
H1533 H 0.26829 0.26478 0.70954 0.0
H1534 H 0.2701 0.26281 0.6588 0.0
H1535 H 0.28682 0.23644 0.6902 0.0
C1536 C 0.76691 0.27406 0.88192 0.0
C1537 C 0.73838 0.26195 0.87581 0.0
C1538 C 0.78738 0.26884 0.85633 0.0
C1539 C 0.77892 0.25145 0.82346 0.0
C1540 C 0.75002 0.23927 0.81719 0.0
C1541 C 0.73001 0.24519 0.84308 0.0
C1542 C 0.81786 0.28248 0.86407 0.0
C1543 C 0.7401 0.22017 0.78306 0.0
C1544 C 0.82582 0.26026 0.74077 0.0
C1545 C 0.84647 0.23998 0.7503 0.0
C1546 C 0.80345 0.26419 0.76411 0.0
C1547 C 0.80049 0.24592 0.79604 0.0
C1548 C 0.8195 0.22338 0.80322 0.0
C1549 C 0.84246 0.22095 0.78066 0.0
C1550 C 0.78406 0.28887 0.75584 0.0
C1551 C 0.81645 0.20265 0.83593 0.0
H1552 H 0.77317 0.2878 0.90666 0.0
H1553 H 0.70755 0.2377 0.83675 0.0
H1554 H 0.83421 0.26656 0.86034 0.0
H1555 H 0.82107 0.30011 0.84328 0.0
H1556 H 0.82221 0.29152 0.8934 0.0
H1557 H 0.71783 0.2101 0.78443 0.0
H1558 H 0.74024 0.23306 0.75652 0.0
H1559 H 0.75523 0.20275 0.78103 0.0
H1560 H 0.82812 0.27414 0.7163 0.0
H1561 H 0.85788 0.20464 0.78767 0.0
H1562 H 0.78597 0.30363 0.78087 0.0
H1563 H 0.76104 0.28052 0.75094 0.0
H1564 H 0.78961 0.30154 0.73049 0.0
H1565 H 0.82221 0.2143 0.86342 0.0
H1566 H 0.83071 0.18435 0.83496 0.0
H1567 H 0.79361 0.19382 0.83551 0.0
C1568 C 0.75548 0.72369 0.31256 0.0
C1569 C 0.78579 0.72636 0.31392 0.0
C1570 C 0.7378 0.7256 0.27769 0.0
C1571 C 0.75079 0.73046 0.24317 0.0
C1572 C 0.78149 0.73316 0.24458 0.0
C1573 C 0.79848 0.73071 0.27977 0.0
C1574 C 0.70528 0.72272 0.2786 0.0
C1575 C 0.79659 0.73951 0.2092 0.0
C1576 C 0.706 0.71498 0.1467 0.0
C1577 C 0.6935 0.74141 0.13935 0.0
C1578 C 0.72472 0.71093 0.18036 0.0
C1579 C 0.73238 0.73439 0.20614 0.0
C1580 C 0.72161 0.76169 0.19711 0.0
C1581 C 0.70213 0.76473 0.16432 0.0
C1582 C 0.73532 0.68129 0.1892 0.0
C1583 C 0.72984 0.78758 0.22282 0.0
H1584 H 0.74552 0.71953 0.33874 0.0
H1585 H 0.82178 0.73189 0.28028 0.0
H1586 H 0.69797 0.74334 0.28907 0.0
H1587 H 0.6933 0.71778 0.25027 0.0
H1588 H 0.69924 0.70552 0.2989 0.0
H1589 H 0.8199 0.73483 0.21339 0.0
H1590 H 0.78611 0.72686 0.1843 0.0
H1591 H 0.79515 0.76276 0.20205 0.0
H1592 H 0.70026 0.69718 0.12719 0.0
H1593 H 0.69307 0.78551 0.15873 0.0
H1594 H 0.72907 0.6741 0.21748 0.0
H1595 H 0.75935 0.68208 0.1909 0.0
H1596 H 0.72631 0.66497 0.16736 0.0
H1597 H 0.71986 0.78437 0.24994 0.0
H1598 H 0.72246 0.80798 0.20958 0.0
H1599 H 0.75375 0.78994 0.22998 0.0
C1600 C 0.54478 0.5529 0.58431 0.0
C1601 C 0.5405 0.58148 0.5732 0.0
C1602 C 0.54434 0.53073 0.55682 0.0
C1603 C 0.53933 0.53738 0.51741 0.0
C1604 C 0.53807 0.56672 0.50626 0.0
C1605 C 0.53836 0.58832 0.53429 0.0
C1606 C 0.54626 0.49986 0.5701 0.0
C1607 C 0.53323 0.57513 0.46478 0.0
C1608 C 0.54151 0.47915 0.44081 0.0
C1609 C 0.51208 0.4696 0.43406 0.0
C1610 C 0.55091 0.50103 0.46795 0.0
C1611 C 0.53035 0.5138 0.48867 0.0
C1612 C 0.50057 0.50437 0.48152 0.0
C1613 C 0.49186 0.48247 0.45441 0.0
C1614 C 0.5828 0.51032 0.47462 0.0
C1615 C 0.47777 0.51747 0.50255 0.0
H1616 H 0.54566 0.54742 0.61433 0.0
H1617 H 0.53435 0.61031 0.5256 0.0
H1618 H 0.52424 0.48874 0.5669 0.0
H1619 H 0.56006 0.48794 0.55245 0.0
H1620 H 0.55519 0.49866 0.60053 0.0
H1621 H 0.53784 0.5987 0.46068 0.0
H1622 H 0.5471 0.56312 0.44734 0.0
H1623 H 0.51025 0.56949 0.45388 0.0
H1624 H 0.55723 0.46949 0.42487 0.0
H1625 H 0.4691 0.47525 0.44934 0.0
H1626 H 0.59117 0.50516 0.50434 0.0
H1627 H 0.58613 0.53408 0.4712 0.0
H1628 H 0.59582 0.49947 0.45478 0.0
H1629 H 0.48268 0.51438 0.53373 0.0
H1630 H 0.45557 0.50778 0.49372 0.0
H1631 H 0.47798 0.54111 0.49727 0.0
C1632 C 0.03574 0.52008 0.96987 0.0
C1633 C 0.01425 0.53189 0.94465 0.0
C1634 C 0.0285 0.49925 0.99686 0.0
C1635 C -0.00104 0.49066 0.99959 0.0
C1636 C 0.97721 0.50177 0.97332 0.0
C1637 C 0.98524 0.52168 0.94542 0.0
C1638 C 0.05246 0.48687 1.02301 0.0
C1639 C 0.94547 0.4933 0.97544 0.0
C1640 C 0.98296 0.4223 0.05586 0.0
C1641 C 0.98216 0.43344 0.09264 0.0
C1642 C 0.98773 0.4406 1.02498 0.0
C1643 C 0.99104 0.47092 0.0309 0.0
C1644 C 0.98859 0.48236 0.06766 0.0
C1645 C 0.9845 0.46345 0.09819 0.0
C1646 C 0.99053 0.42712 0.98667 0.0
C1647 C 0.99074 0.51459 0.07484 0.0
H1648 H 0.05831 0.52742 0.96892 0.0
H1649 H 0.96872 0.52991 0.92498 0.0
H1650 H 0.05097 0.49377 0.05284 0.0
H1651 H 0.05005 0.46288 1.02227 0.0
H1652 H 0.07438 0.49392 1.01509 0.0
H1653 H 0.93124 0.50382 0.95291 0.0
H1654 H 0.94147 0.4695 0.97261 0.0
H1655 H 0.93921 0.49948 1.00375 0.0
H1656 H 0.97996 0.39917 0.05117 0.0
H1657 H 0.98331 0.47216 0.12648 0.0
H1658 H 0.01385 0.42458 0.98392 0.0
H1659 H 0.98201 0.44075 0.96269 0.0
H1660 H 0.97894 0.40538 0.98384 0.0
H1661 H 0.01305 0.52357 0.07138 0.0
H1662 H 0.98557 0.52006 0.10396 0.0
H1663 H 0.97569 0.52544 0.05364 0.0
C1664 C 0.03836 0.1503 0.29995 0.0
C1665 C 0.05759 0.15069 0.27137 0.0
C1666 C 0.04803 0.15705 0.33896 0.0
C1667 C 0.07792 0.16519 0.35062 0.0
C1668 C 0.09763 0.16307 0.32243 0.0
C1669 C 0.08736 0.15635 0.28373 0.0
C1670 C 0.0257 0.15635 0.36727 0.0
C1671 C 0.12991 0.16826 0.33284 0.0
C1672 C 0.1049 0.2152 0.43862 0.0
C1673 C 0.10581 0.19608 0.46973 0.0
C1674 C 0.09685 0.20567 0.40028 0.0
C1675 C 0.08849 0.17585 0.39169 0.0
C1676 C 0.09046 0.15633 0.42314 0.0
C1677 C 0.09866 0.16658 0.46108 0.0
C1678 C 0.09744 0.22862 0.3699 0.0
C1679 C 0.0844 0.12414 0.41768 0.0
H1680 H 0.01537 0.14575 0.29162 0.0
H1681 H 0.10289 0.15654 0.26277 0.0
H1682 H 0.02625 0.1356 0.38295 0.0
H1683 H 0.03022 0.17424 0.38837 0.0
H1684 H 0.00333 0.15768 0.35295 0.0
H1685 H 0.14246 0.15815 0.31179 0.0
H1686 H 0.13583 0.19183 0.33328 0.0
H1687 H 0.13656 0.15954 0.36159 0.0
H1688 H 0.11039 0.23801 0.44411 0.0
H1689 H 0.0993 0.15109 0.48422 0.0
H1690 H 0.08017 0.24361 0.37353 0.0
H1691 H 0.09455 0.22003 0.34041 0.0
H1692 H 0.11842 0.24176 0.37381 0.0
H1693 H 0.06327 0.11759 0.42835 0.0
H1694 H 0.10121 0.11235 0.43503 0.0
H1695 H 0.08383 0.11708 0.38755 0.0
C1696 C 0.10548 0.85633 0.66357 0.0
C1697 C 0.10774 0.87581 0.63325 0.0
C1698 C 0.09581 0.865 0.69812 0.0
C1699 C 0.08813 0.89385 0.70256 0.0
C1700 C 0.0915 0.91389 0.67269 0.0
C1701 C 0.1013 0.90467 0.63855 0.0
C1702 C 0.09254 0.84292 0.72923 0.0
C1703 C 0.08359 0.94482 0.67614 0.0
C1704 C 0.02917 0.90483 0.7673 0.0
C1705 C 0.04502 0.91506 0.8013 0.0
C1706 C 0.04294 0.89824 0.73512 0.0
C1707 C 0.07352 0.90216 0.73646 0.0
C1708 C 0.08972 0.91346 0.77013 0.0
C1709 C 0.07529 0.91971 0.80224 0.0
C1710 C 0.02469 0.88626 0.69995 0.0
C1711 C 0.12233 0.91816 0.77257 0.0
H1712 H 0.11024 0.83398 0.65982 0.0
H1713 H 0.10359 0.92009 0.61571 0.0
H1714 H 0.10308 0.85152 0.75696 0.0
H1715 H 0.06916 0.83827 0.73249 0.0
H1716 H 0.10212 0.82229 0.723 0.0
H1717 H 0.09005 0.95837 0.65199 0.0
H1718 H 0.05977 0.94535 0.67682 0.0
H1719 H 0.0941 0.95456 0.70323 0.0
H1720 H 0.00582 0.90109 0.76599 0.0
H1721 H 0.0878 0.92742 0.82834 0.0
H1722 H 0.03096 0.86418 0.69377 0.0
H1723 H 0.02862 0.89989 0.67484 0.0
H1724 H 0.00107 0.88514 0.70323 0.0
H1725 H 0.13209 0.89705 0.77038 0.0
H1726 H 0.1316 0.92883 0.79972 0.0
H1727 H 0.12874 0.93162 0.74836 0.0
C1728 C 0.40734 0.76022 0.07011 0.0
C1729 C 0.41279 0.78009 0.10072 0.0
C1730 C 0.41325 0.7676 0.03218 0.0
C1731 C 0.42557 0.79554 1.02362 0.0
C1732 C 0.43125 0.81561 0.05447 0.0
C1733 C 0.4248 0.80781 0.09202 0.0
C1734 C 0.40677 0.74499 1.00132 0.0
C1735 C 0.44451 0.84554 0.04786 0.0
C1736 C 0.46581 0.80695 0.93206 0.0
C1737 C 0.44532 0.81983 0.90576 0.0
C1738 C 0.45979 0.79904 0.96979 0.0
C1739 C 0.43242 0.80382 0.98282 0.0
C1740 C 0.41162 0.81669 0.95653 0.0
C1741 C 0.41822 0.82446 0.91899 0.0
C1742 C 0.48291 0.78525 0.99576 0.0
C1743 C 0.38197 0.82199 0.96798 0.0
H1744 H 0.3985 0.7386 0.07573 0.0
H1745 H 0.42954 0.82357 0.11484 0.0
H1746 H 0.39683 0.75445 0.9745 0.0
H1747 H 0.42742 0.73606 0.99521 0.0
H1748 H 0.39193 0.72697 1.01001 0.0
H1749 H 0.44777 0.8588 0.07436 0.0
H1750 H 0.46581 0.84401 0.03651 0.0
H1751 H 0.43035 0.85687 0.02613 0.0
H1752 H 0.48702 0.8033 0.92345 0.0
H1753 H 0.40164 0.83375 0.89968 0.0
H1754 H 0.47548 0.76262 1.00175 0.0
H1755 H 0.48666 0.79688 1.02351 0.0
H1756 H 0.50385 0.78506 0.98308 0.0
H1757 H 0.36802 0.83212 0.94478 0.0
H1758 H 0.3841 0.83628 0.99348 0.0
H1759 H 0.37094 0.80122 0.97593 0.0
C1760 C 0.43976 0.08137 0.27796 0.0
C1761 C 0.4696 0.07727 0.28357 0.0
C1762 C 0.42639 0.08887 0.24173 0.0
C1763 C 0.44323 0.09226 0.21038 0.0
C1764 C 0.47301 0.08659 0.2156 0.0
C1765 C 0.48573 0.07917 0.25196 0.0
C1766 C 0.39458 0.09462 0.23748 0.0
C1767 C 0.49188 0.08969 0.18317 0.0
C1768 C 0.40819 0.09362 0.10738 0.0
C1769 C 0.4099 0.12333 0.09888 0.0
C1770 C 0.41816 0.08329 0.14371 0.0
C1771 C 0.43031 0.10302 0.17255 0.0
C1772 C 0.4317 0.13306 0.16442 0.0
C1773 C 0.42154 0.14282 0.12782 0.0
C1774 C 0.41634 0.05112 0.15094 0.0
C1775 C 0.44442 0.15492 0.19426 0.0
H1776 H 0.4272 0.08037 0.30228 0.0
H1777 H 0.50875 0.07584 0.25596 0.0
H1778 H 0.3921 0.11796 0.23195 0.0
H1779 H 0.38308 0.0825 0.21268 0.0
H1780 H 0.38391 0.0885 0.26342 0.0
H1781 H 0.51422 0.08292 0.19136 0.0
H1782 H 0.48207 0.07654 0.15831 0.0
H1783 H 0.49338 0.11258 0.17384 0.0
H1784 H 0.39969 0.07825 0.08525 0.0
H1785 H 0.42263 0.1658 0.12191 0.0
H1786 H 0.40508 0.04626 0.17673 0.0
H1787 H 0.43854 0.04342 0.15646 0.0
H1788 H 0.40466 0.03873 0.12644 0.0
H1789 H 0.43314 0.15223 0.22044 0.0
H1790 H 0.44276 0.17753 0.18411 0.0
H1791 H 0.46766 0.15126 0.20233 0.0
C1792 C 0.84916 0.81407 0.49078 0.0
C1793 C 0.84538 0.78379 0.48811 0.0
C1794 C 0.85747 0.82806 0.52624 0.0
C1795 C 0.86208 0.81147 0.56004 0.0
C1796 C 0.8573 0.78098 0.55762 0.0
C1797 C 0.84908 0.76762 0.52194 0.0
C1798 C 0.86234 0.86057 0.52733 0.0
C1799 C 0.86174 0.76228 0.59266 0.0
C1800 C 0.91185 0.84169 0.64653 0.0
C1801 C 0.89187 0.84971 0.6714 0.0
C1802 C 0.90252 0.82977 0.61011 0.0
C1803 C 0.8724 0.82575 0.59785 0.0
C1804 C 0.85216 0.83427 0.6225 0.0
C1805 C 0.86208 0.84607 0.65874 0.0
C1806 C 0.92494 0.82091 0.585 0.0
C1807 C 0.81991 0.83055 0.61079 0.0
H1808 H 0.84681 0.82685 0.46497 0.0
H1809 H 0.84633 0.74422 0.52047 0.0
H1810 H 0.84946 0.86982 0.54863 0.0
H1811 H 0.88555 0.86665 0.53637 0.0
H1812 H 0.85635 0.87053 0.49913 0.0
H1813 H 0.8563 0.73898 0.58626 0.0
H1814 H 0.88472 0.76494 0.60514 0.0
H1815 H 0.84812 0.76917 0.61467 0.0
H1816 H 0.93487 0.84407 0.65589 0.0
H1817 H 0.84635 0.85262 0.67718 0.0
H1818 H 0.92164 0.83149 0.55674 0.0
H1819 H 0.92243 0.79721 0.57999 0.0
H1820 H 0.94749 0.8266 0.59779 0.0
H1821 H 0.81444 0.84178 0.58339 0.0
H1822 H 0.80696 0.83912 0.63257 0.0
H1823 H 0.81334 0.80727 0.60613 0.0
C1824 C 0.97049 0.15801 0.52195 0.0
C1825 C 0.947 0.15092 0.54297 0.0
C1826 C 0.96794 0.15389 0.48239 0.0
C1827 C 0.94133 0.14218 0.46365 0.0
C1828 C 0.91821 0.13318 0.48503 0.0
C1829 C 0.92133 0.13769 0.52455 0.0
C1830 C 0.99315 0.16353 0.46044 0.0
C1831 C 0.88963 0.12036 0.46594 0.0
C1832 C 0.92357 0.16736 0.36239 0.0
C1833 C 0.93102 0.14382 0.34145 0.0
C1834 C 0.92625 0.16679 0.40229 0.0
C1835 C 0.93674 0.14208 0.4215 0.0
C1836 C 0.94362 0.11794 0.40048 0.0
C1837 C 0.94063 0.11909 0.36054 0.0
C1838 C 0.91864 0.19294 0.42387 0.0
C1839 C 0.95503 0.09136 0.42013 0.0
H1840 H 0.99036 0.16825 0.53609 0.0
H1841 H 0.90331 0.13178 0.54091 0.0
H1842 H -0.00091 0.14533 0.44305 0.0
H1843 H 0.98681 0.18114 0.44049 0.0
H1844 H 0.01263 0.17144 0.47949 0.0
H1845 H 0.87505 0.11166 0.48693 0.0
H1846 H 0.87842 0.13723 0.44878 0.0
H1847 H 0.8933 0.10272 0.44609 0.0
H1848 H 0.91605 0.18642 0.34749 0.0
H1849 H 0.94685 0.10108 0.34426 0.0
H1850 H 0.93824 0.20234 0.44139 0.0
H1851 H 0.9023 0.18653 0.44371 0.0
H1852 H 0.90985 0.20999 0.40455 0.0
H1853 H 0.97686 0.09685 0.43526 0.0
H1854 H 0.95678 0.07348 0.3997 0.0
H1855 H 0.94071 0.08359 0.44187 0.0
C1856 C 0.66359 0.17901 1.02421 0.0
C1857 C 0.67251 0.20854 1.02389 0.0
C1858 C 0.65489 0.16566 0.05756 0.0
C1859 C 0.65515 0.18216 0.09147 0.0
C1860 C 0.66539 0.21164 0.09168 0.0
C1861 C 0.67398 0.22437 0.05804 0.0
C1862 C 0.6442 0.13419 0.05603 0.0
C1863 C 0.66625 0.23009 0.12711 0.0
C1864 C 0.60465 0.15962 0.16692 0.0
C1865 C 0.6237 0.14728 0.1951 0.0
C1866 C 0.61444 0.17047 0.13277 0.0
C1867 C 0.64403 0.16899 0.12647 0.0
C1868 C 0.66319 0.156 0.15439 0.0
C1869 C 0.65283 0.1453 0.18819 0.0
C1870 C 0.59323 0.18414 0.10377 0.0
C1871 C 0.69483 0.15386 0.14886 0.0
H1872 H 0.66203 0.16663 0.99793 0.0
H1873 H 0.68115 0.24708 0.05824 0.0
H1874 H 0.65572 0.1221 0.07956 0.0
H1875 H 0.62074 0.13224 0.06003 0.0
H1876 H 0.64727 0.12382 0.02846 0.0
H1877 H 0.67596 0.2523 0.12307 0.0
H1878 H 0.64389 0.23175 0.1351 0.0
H1879 H 0.67895 0.21991 0.15139 0.0
H1880 H 0.5822 0.16152 0.17197 0.0
H1881 H 0.66765 0.13532 0.20933 0.0
H1882 H 0.59335 0.17376 0.07545 0.0
H1883 H 0.59991 0.20737 0.10056 0.0
H1884 H 0.57071 0.18236 0.11199 0.0
H1885 H 0.69688 0.14251 0.12167 0.0
H1886 H 0.70669 0.14217 0.17257 0.0
H1887 H 0.70549 0.17586 0.1469 0.0
C1888 C 0.59224 0.86599 0.70056 0.0
C1889 C 0.5791 0.84085 0.68264 0.0
C1890 C 0.60833 0.86444 0.73634 0.0
C1891 C 0.61023 0.83727 0.75441 0.0
C1892 C 0.60225 0.81169 0.73286 0.0
C1893 C 0.5867 0.81384 0.69673 0.0
C1894 C 0.6192 0.89203 0.75711 0.0
C1895 C 0.60669 0.78216 0.74992 0.0
C1896 C 0.6346 0.82542 0.85938 0.0
C1897 C 0.60821 0.8268 0.87522 0.0
C1898 C 0.63612 0.82967 0.82011 0.0
C1899 C 0.61068 0.83584 0.79655 0.0
C1900 C 0.58431 0.83878 0.8131 0.0
C1901 C 0.58342 0.83388 0.85213 0.0
C1902 C 0.66514 0.82853 0.80456 0.0
C1903 C 0.55694 0.84798 0.79041 0.0
H1904 H 0.58669 0.88695 0.68924 0.0
H1905 H 0.57717 0.79441 0.68213 0.0
H1906 H 0.60219 0.89925 0.77423 0.0
H1907 H 0.63896 0.88866 0.77682 0.0
H1908 H 0.62417 0.90953 0.73671 0.0
H1909 H 0.59809 0.76442 0.7299 0.0
H1910 H 0.6302 0.77977 0.75764 0.0
H1911 H 0.59597 0.77963 0.77657 0.0
H1912 H 0.65395 0.82046 0.87758 0.0
H1913 H 0.56328 0.83586 0.86478 0.0
H1914 H 0.67594 0.85063 0.80565 0.0
H1915 H 0.66307 0.82108 0.77447 0.0
H1916 H 0.67951 0.81421 0.82207 0.0
H1917 H 0.55751 0.87194 0.78981 0.0
H1918 H 0.53726 0.84023 0.8038 0.0
H1919 H 0.55462 0.84024 0.76051 0.0
C1920 C 0.59472 0.65773 0.76962 0.0
C1921 C 0.5657 0.64725 0.75928 0.0
C1922 C 0.6052 0.66626 0.80758 0.0
C1923 C 0.58658 0.66446 0.83723 0.0
C1924 C 0.55743 0.65326 0.82735 0.0
C1925 C 0.54742 0.6449 0.78896 0.0
C1926 C 0.63624 0.67815 0.81574 0.0
C1927 C 0.53649 0.65073 0.85736 0.0
C1928 C 0.61867 0.66514 0.94405 0.0
C1929 C 0.61701 0.69408 0.95555 0.0
C1930 C 0.60923 0.65546 0.90611 0.0
C1931 C 0.59747 0.67488 0.87802 0.0
C1932 C 0.59661 0.70436 0.88925 0.0
C1933 C 0.606 0.71334 0.92737 0.0
C1934 C 0.61188 0.62418 0.89608 0.0
C1935 C 0.58513 0.72697 0.86178 0.0
H1936 H 0.60936 0.66017 0.74761 0.0
H1937 H 0.52494 0.63727 0.78205 0.0
H1938 H 0.63662 0.70122 0.82432 0.0
H1939 H 0.64735 0.66634 0.83991 0.0
H1940 H 0.64869 0.67658 0.79061 0.0
H1941 H 0.51426 0.64316 0.84529 0.0
H1942 H 0.54416 0.63533 0.87974 0.0
H1943 H 0.53556 0.67201 0.87147 0.0
H1944 H 0.62688 0.64973 0.96501 0.0
H1945 H 0.60427 0.73573 0.93515 0.0
H1946 H 0.62469 0.62274 0.87131 0.0
H1947 H 0.59004 0.61364 0.88756 0.0
H1948 H 0.62247 0.61194 0.92023 0.0
H1949 H 0.58524 0.72072 0.83145 0.0
H1950 H 0.59808 0.74789 0.86671 0.0
H1951 H 0.56252 0.73073 0.86722 0.0
C1952 C 0.55285 0.40004 0.26187 0.0
C1953 C 0.56533 0.39369 0.29874 0.0
C1954 C 0.56636 0.39345 0.2293 0.0
C1955 C 0.59292 0.37972 0.2334 0.0
C1956 C 0.60608 0.37394 0.27058 0.0
C1957 C 0.59225 0.38118 0.3028 0.0
C1958 C 0.55172 0.40049 0.19038 0.0
C1959 C 0.63419 0.35905 0.27628 0.0
C1960 C 0.60865 0.3361 0.14679 0.0
C1961 C 0.62809 0.35511 0.12937 0.0
C1962 C 0.59779 0.34345 0.18116 0.0
C1963 C 0.60625 0.37065 0.19862 0.0
C1964 C 0.62623 0.38973 0.18164 0.0
C1965 C 0.63701 0.38169 0.14752 0.0
C1966 C 0.57668 0.32233 0.19833 0.0
C1967 C 0.63574 0.41898 0.19906 0.0
H1968 H 0.53209 0.40976 0.25835 0.0
H1969 H 0.6019 0.37585 0.33108 0.0
H1970 H 0.56705 0.41342 0.17389 0.0
H1971 H 0.54524 0.38021 0.17418 0.0
H1972 H 0.53207 0.41275 0.19211 0.0
H1973 H 0.64246 0.35748 0.30691 0.0
H1974 H 0.63085 0.33689 0.26407 0.0
H1975 H 0.65102 0.37081 0.26096 0.0
H1976 H 0.60124 0.31568 0.13305 0.0
H1977 H 0.65246 0.39638 0.135 0.0
H1978 H 0.55518 0.33163 0.1976 0.0
H1979 H 0.58424 0.31835 0.2287 0.0
H1980 H 0.57388 0.30129 0.1829 0.0
H1981 H 0.61666 0.43223 0.19936 0.0
H1982 H 0.65218 0.43092 0.18318 0.0
H1983 H 0.64499 0.4165 0.22911 0.0
C1984 C 0.89726 0.33732 0.41754 0.0
C1985 C 0.92526 0.34051 0.40494 0.0
C1986 C 0.89259 0.32848 0.45546 0.0
C1987 C 0.91632 0.32241 0.48275 0.0
C1988 C 0.94454 0.32461 0.46968 0.0
C1989 C 0.94856 0.33387 0.43184 0.0
C1990 C 0.8619 0.32519 0.46614 0.0
C1991 C 0.97117 0.31757 0.49533 0.0
C1992 C 0.90679 0.3267 0.59193 0.0
C1993 C 0.90563 0.29751 0.60354 0.0
C1994 C 0.90988 0.33497 0.55327 0.0
C1995 C 0.9115 0.31378 0.52431 0.0
C1996 C 0.90863 0.28426 0.53557 0.0
C1997 C 0.90587 0.27664 0.5744 0.0
C1998 C 0.91338 0.36668 0.54392 0.0
C1999 C 0.90905 0.26044 0.50654 0.0
H2000 H 0.87872 0.34217 0.39783 0.0
H2001 H 0.97033 0.33537 0.42315 0.0
H2002 H 0.85738 0.30305 0.47711 0.0
H2003 H 0.85914 0.34056 0.48936 0.0
H2004 H 0.84559 0.32912 0.44161 0.0
H2005 H 0.98855 0.31057 0.47862 0.0
H2006 H 0.97981 0.3374 0.51125 0.0
H2007 H 0.96636 0.30021 0.51586 0.0
H2008 H 0.90682 0.34332 0.61353 0.0
H2009 H 0.90447 0.25398 0.58215 0.0
H2010 H 0.89637 0.37232 0.52113 0.0
H2011 H 0.93472 0.37146 0.53285 0.0
H2012 H 0.91207 0.38069 0.56915 0.0
H2013 H 0.89303 0.26395 0.48158 0.0
H2014 H 0.90412 0.2387 0.51857 0.0
H2015 H 0.93078 0.26075 0.49596 0.0
C2016 C 0.97629 0.60397 0.75833 0.0
C2017 C 0.96029 0.59799 0.78954 0.0
C2018 C 0.9626 0.61043 0.72213 0.0
C2019 C 0.93197 0.61098 0.71657 0.0
C2020 C 0.91554 0.60394 0.74753 0.0
C2021 C 0.92987 0.5975 0.78363 0.0
C2022 C 0.98109 0.61759 0.69008 0.0
C2023 C 0.88286 0.6042 0.74286 0.0
C2024 C 0.90195 0.65742 0.63357 0.0
C2025 C 0.89413 0.63678 0.60454 0.0
C2026 C 0.91355 0.64926 0.67033 0.0
C2027 C 0.91747 0.6197 0.67856 0.0
C2028 C 0.90917 0.59872 0.64965 0.0
C2029 C 0.89773 0.60747 0.61314 0.0
C2030 C 0.9221 0.6724 0.70022 0.0
C2031 C 0.91306 0.56701 0.65698 0.0
H2032 H -0.0002 0.60436 0.76237 0.0
H2033 H 0.91728 0.59321 0.80751 0.0
H2034 H 0.97408 0.60331 0.66516 0.0
H2035 H 0.97825 0.64019 0.68063 0.0
H2036 H 0.00454 0.6152 0.69865 0.0
H2037 H 0.87309 0.59657 0.76888 0.0
H2038 H 0.87642 0.62649 0.73645 0.0
H2039 H 0.87364 0.5903 0.71841 0.0
H2040 H 0.89893 0.68005 0.62761 0.0
H2041 H 0.89227 0.59129 0.59097 0.0
H2042 H 0.94584 0.67286 0.70868 0.0
H2043 H 0.91113 0.66743 0.72621 0.0
H2044 H 0.91652 0.69424 0.68995 0.0
H2045 H 0.93651 0.56342 0.66285 0.0
H2046 H 0.90383 0.5532 0.63239 0.0
H2047 H 0.9025 0.55991 0.68258 0.0
C2048 C 0.37821 0.34136 0.14364 0.0
C2049 C 0.40801 0.34296 0.15662 0.0
C2050 C 0.3676 0.32923 0.10776 0.0
C2051 C 0.38711 0.31832 0.08373 0.0
C2052 C 0.41724 0.32012 0.09642 0.0
C2053 C 0.42727 0.33227 0.13254 0.0
C2054 C 0.33533 0.3276 0.09588 0.0
C2055 C 0.43896 0.309 0.07185 0.0
C2056 C 0.36071 0.25929 1.01007 0.0
C2057 C 0.35846 0.27457 0.97543 0.0
C2058 C 0.36921 0.27332 0.04527 0.0
C2059 C 0.37593 0.30359 0.04639 0.0
C2060 C 0.37269 0.31938 1.01171 0.0
C2061 C 0.36394 0.30475 0.97674 0.0
C2062 C 0.37201 0.25543 0.08121 0.0
C2063 C 0.37966 0.35162 1.01133 0.0
H2064 H 0.36293 0.34906 0.16195 0.0
H2065 H 0.45033 0.33364 0.14176 0.0
H2066 H 0.33079 0.33807 0.06773 0.0
H2067 H 0.32708 0.30463 0.09266 0.0
H2068 H 0.32308 0.33816 0.11688 0.0
H2069 H 0.46169 0.3128 0.08503 0.0
H2070 H 0.43442 0.28545 0.06678 0.0
H2071 H 0.4369 0.31971 0.04358 0.0
H2072 H 0.35664 0.23598 1.0096 0.0
H2073 H 0.36281 0.31678 0.95026 0.0
H2074 H 0.35919 0.26434 0.10283 0.0
H2075 H 0.39502 0.25639 0.09362 0.0
H2076 H 0.36453 0.2324 0.0759 0.0
H2077 H 0.3676 0.36246 0.03225 0.0
H2078 H 0.37421 0.36112 0.9827 0.0
H2079 H 0.40316 0.35635 1.02003 0.0
C2080 C 0.41277 0.65894 0.99672 0.0
C2081 C 0.40627 0.63692 1.02249 0.0
C2082 C 0.41652 0.65261 0.95882 0.0
C2083 C 0.41356 0.62352 0.94622 0.0
C2084 C 0.40711 0.6011 0.97195 0.0
C2085 C 0.40357 0.60807 1.00988 0.0
C2086 C 0.42346 0.67711 0.93214 0.0
C2087 C 0.40401 0.56983 0.9594 0.0
C2088 C 0.39834 0.61543 0.83901 0.0
C2089 C 0.42641 0.61321 0.82852 0.0
C2090 C 0.39356 0.61733 0.87757 0.0
C2091 C 0.41746 0.6169 0.90602 0.0
C2092 C 0.44561 0.61313 0.89556 0.0
C2093 C 0.44972 0.61128 0.85687 0.0
C2094 C 0.36325 0.62142 0.88772 0.0
C2095 C 0.47163 0.61258 0.92505 0.0
H2096 H 0.41453 0.68126 1.00604 0.0
H2097 H 0.39894 0.59091 0.02974 0.0
H2098 H 0.44416 0.6738 0.92005 0.0
H2099 H 0.4062 0.67749 0.9079 0.0
H2100 H 0.42542 0.69851 0.94656 0.0
H2101 H 0.39881 0.55497 0.98289 0.0
H2102 H 0.38658 0.5668 0.93544 0.0
H2103 H 0.42445 0.56363 0.94875 0.0
H2104 H 0.38034 0.617 0.81704 0.0
H2105 H 0.47134 0.60895 0.84867 0.0
H2106 H 0.36224 0.64359 0.89916 0.0
H2107 H 0.35759 0.60603 0.91037 0.0
H2108 H 0.34671 0.61834 0.86269 0.0
H2109 H 0.47608 0.63424 0.93852 0.0
H2110 H 0.49145 0.60666 0.91245 0.0
H2111 H 0.4672 0.59698 0.94799 0.0
C2112 C 0.15614 0.74249 0.56305 0.0
C2113 C 0.16007 0.72657 0.53028 0.0
C2114 C 0.1485 0.72877 0.59652 0.0
C2115 C 0.14467 0.69823 0.59757 0.0
C2116 C 0.14991 0.6819 0.56522 0.0
C2117 C 0.15757 0.69625 0.53198 0.0
C2118 C 0.14335 0.74713 0.63026 0.0
C2119 C 0.14616 0.64931 0.56515 0.0
C2120 C 0.14388 0.66366 0.69595 0.0
C2121 C 0.11398 0.65937 0.69944 0.0
C2122 C 0.15415 0.67558 0.66272 0.0
C2123 C 0.13413 0.68364 0.63204 0.0
C2124 C 0.10394 0.6791 0.63512 0.0
C2125 C 0.09425 0.66704 0.66867 0.0
C2126 C 0.18648 0.68013 0.66079 0.0
C2127 C 0.08181 0.68738 0.60312 0.0
H2128 H 0.15806 0.76592 0.56219 0.0
H2129 H 0.16022 0.68372 0.50678 0.0
H2130 H 0.12024 0.74418 0.6358 0.0
H2131 H 0.15665 0.74021 0.65628 0.0
H2132 H 0.14866 0.77052 0.62559 0.0
H2133 H 0.15315 0.63967 0.53902 0.0
H2134 H 0.15882 0.64044 0.59048 0.0
H2135 H 0.12299 0.64245 0.56695 0.0
H2136 H 0.1594 0.6583 0.71964 0.0
H2137 H 0.07115 0.6635 0.67072 0.0
H2138 H 0.19261 0.70358 0.65882 0.0
H2139 H 0.19267 0.66968 0.63477 0.0
H2140 H 0.19922 0.67127 0.68613 0.0
H2141 H 0.08406 0.71105 0.59825 0.0
H2142 H 0.05918 0.68147 0.60927 0.0
H2143 H 0.0857 0.67659 0.5762 0.0
C2144 C 0.06908 0.41133 0.23546 0.0
C2145 C 0.0679 0.39117 0.20568 0.0
C2146 C 0.08657 0.40752 0.2698 0.0
C2147 C 0.10267 0.3826 0.2746 0.0
C2148 C 0.10499 0.36474 0.2425 0.0
C2149 C 0.08762 0.36943 0.20812 0.0
C2150 C 0.08484 0.42814 0.30244 0.0
C2151 C 0.12385 0.33928 0.24522 0.0
C2152 C 0.14383 0.36651 0.37124 0.0
C2153 C 0.12226 0.35079 0.38939 0.0
C2154 C 0.13812 0.37685 0.33373 0.0
C2155 C 0.11012 0.37148 0.31399 0.0
C2156 C 0.08834 0.35554 0.33223 0.0
C2157 C 0.09475 0.34531 0.3694 0.0
C2158 C 0.16164 0.39455 0.31607 0.0
C2159 C 0.05773 0.35006 0.3133 0.0
H2160 H 0.05386 0.42825 0.23354 0.0
H2161 H 0.08684 0.3539 0.18499 0.0
H2162 H 0.0691 0.41884 0.32154 0.0
H2163 H 0.10624 0.43159 0.31955 0.0
H2164 H 0.07745 0.44938 0.2921 0.0
H2165 H 0.11789 0.32372 0.22131 0.0
H2166 H 0.14679 0.3473 0.24407 0.0
H2167 H 0.12269 0.32759 0.27255 0.0
H2168 H 0.16504 0.3713 0.38665 0.0
H2169 H 0.07803 0.33289 0.38286 0.0
H2170 H 0.15717 0.41776 0.31722 0.0
H2171 H 0.16208 0.38869 0.28564 0.0
H2172 H 0.18343 0.39181 0.33145 0.0
H2173 H 0.04546 0.36953 0.31658 0.0
H2174 H 0.04605 0.33156 0.32644 0.0
H2175 H 0.05748 0.34584 0.28236 0.0
loop_
_geom_bond_atom_site_label_1
_geom_bond_atom_site_label_2
_geom_bond_distance
_geom_bond_site_symmetry_2
_ccdc_geom_bond_type
Ho0 C3 2.811 . S
Ho0 O20 2.322 1_455 S
Ho0 O22 2.378 . S
Ho0 O23 2.524 . S
Ho0 O24 2.381 . S
Ho0 O25 2.669 1_455 S
Ho0 O27 2.346 . S
Ho0 O31 2.305 . S
Ho1 C12 2.811 . S
Ho1 O21 2.346 . S
Ho1 O25 2.305 . S
Ho1 O26 2.322 1_655 S
Ho1 O28 2.378 . S
Ho1 O29 2.524 . S
Ho1 O30 2.381 . S
Ho1 O31 2.669 1_655 S
C2 O20 1.259 . S
C2 O21 1.268 . S
C3 Ho0 2.811 . S
C3 C4 1.488 1_554 S
C3 O22 1.215 . S
C3 O23 1.289 . S
C4 C3 1.488 1_556 S
C4 C5 1.348 . S
C4 C9 1.413 . S
C5 C4 1.348 . S
C5 C6 1.442 . S
C5 H32 0.930 . S
C6 C5 1.442 . S
C6 C7 1.381 . S
C6 H33 0.931 . S
C7 C6 1.381 . S
C7 C8 1.321 . S
C8 C7 1.321 . S
C8 C9 1.403 . S
C8 H34 0.934 . S
C9 C4 1.413 . S
C9 C8 1.403 . S
C9 H35 0.930 . S
C10 O24 1.275 . S
C10 O25 1.256 1_455 S
C11 O26 1.259 . S
C11 O27 1.268 . S
C12 Ho1 2.811 . S
C12 C13 1.488 . S
C12 O28 1.215 . S
C12 O29 1.289 . S
C13 C12 1.488 . S
C13 C14 1.348 . S
C13 C18 1.413 . S
C14 C13 1.348 . S
C14 C15 1.442 . S
C14 H36 0.930 . S
C15 C14 1.442 . S
C15 C16 1.381 . S
C15 H37 0.931 . S
C16 C15 1.381 . S
C16 C17 1.321 . S
C17 C16 1.321 . S
C17 C18 1.403 . S
C17 H38 0.934 . S
C18 C13 1.413 . S
C18 C17 1.403 . S
C18 H39 0.930 . S
C19 O30 1.275 . S
C19 O31 1.256 1_655 S
O20 Ho0 2.322 1_655 S
O20 C2 1.259 . S
O21 Ho1 2.346 . S
O21 C2 1.268 . S
O22 Ho0 2.378 . S
O22 C3 1.215 . S
O23 Ho0 2.524 . S
O23 C3 1.289 . S
O24 Ho0 2.381 . S
O24 C10 1.275 . S
O25 Ho0 2.669 1_655 S
O25 Ho1 2.305 . S
O25 C10 1.256 1_655 S
O26 Ho1 2.322 1_455 S
O26 C11 1.259 . S
O27 Ho0 2.346 . S
O27 C11 1.268 . S
O28 Ho1 2.378 . S
O28 C12 1.215 . S
O29 Ho1 2.524 . S
O29 C12 1.289 . S
O30 Ho1 2.381 . S
O30 C19 1.275 . S
O31 Ho0 2.305 . S
O31 Ho1 2.669 1_455 S
O31 C19 1.256 1_455 S
H32 C5 0.930 . S
H33 C6 0.931 . S
H34 C8 0.934 . S
H35 C9 0.930 . S
H36 C14 0.930 . S
H37 C15 0.931 . S
H38 C17 0.934 . S
H39 C18 0.930 . S
Ho40 C43 2.811 . S
Ho40 O60 2.322 . S
Ho40 O62 2.378 . S
Ho40 O63 2.524 . S
Ho40 O64 2.381 . S
Ho40 O65 2.669 . S
Ho40 O67 2.346 . S
Ho40 O71 2.305 . S
Ho41 C52 2.811 . S
Ho41 O61 2.346 . S
Ho41 O65 2.305 . S
Ho41 O66 2.322 . S
Ho41 O68 2.378 . S
Ho41 O69 2.524 . S
Ho41 O70 2.381 . S
Ho41 O71 2.669 . S
C42 O60 1.259 . S
C42 O61 1.268 . S
C43 Ho40 2.811 . S
C43 C44 1.488 . S
C43 O62 1.215 . S
C43 O63 1.289 . S
C44 C43 1.488 . S
C44 C45 1.348 . S
C44 C49 1.413 . S
C45 C44 1.348 . S
C45 C46 1.442 . S
C45 H72 0.930 . S
C46 C45 1.442 . S
C46 C47 1.381 . S
C46 H73 0.931 . S
C47 C46 1.381 . S
C47 C48 1.321 . S
C48 C47 1.321 . S
C48 C49 1.403 . S
C48 H74 0.934 . S
C49 C44 1.413 . S
C49 C48 1.403 . S
C49 H75 0.930 . S
C50 O64 1.275 . S
C50 O65 1.256 . S
C51 O66 1.259 . S
C51 O67 1.268 . S
C52 Ho41 2.811 . S
C52 C53 1.488 . S
C52 O68 1.215 . S
C52 O69 1.289 . S
C53 C52 1.488 . S
C53 C54 1.348 . S
C53 C58 1.413 . S
C54 C53 1.348 . S
C54 C55 1.442 . S
C54 H76 0.930 . S
C55 C54 1.442 . S
C55 C56 1.381 . S
C55 H77 0.931 . S
C56 C55 1.381 . S
C56 C57 1.321 . S
C57 C56 1.321 . S
C57 C58 1.403 . S
C57 H78 0.934 . S
C58 C53 1.413 . S
C58 C57 1.403 . S
C58 H79 0.930 . S
C59 O70 1.275 . S
C59 O71 1.256 . S
O60 Ho40 2.322 . S
O60 C42 1.259 . S
O61 Ho41 2.346 . S
O61 C42 1.268 . S
O62 Ho40 2.378 . S
O62 C43 1.215 . S
O63 Ho40 2.524 . S
O63 C43 1.289 . S
O64 Ho40 2.381 . S
O64 C50 1.275 . S
O65 Ho40 2.669 . S
O65 Ho41 2.305 . S
O65 C50 1.256 . S
O66 Ho41 2.322 . S
O66 C51 1.259 . S
O67 Ho40 2.346 . S
O67 C51 1.268 . S
O68 Ho41 2.378 . S
O68 C52 1.215 . S
O69 Ho41 2.524 . S
O69 C52 1.289 . S
O70 Ho41 2.381 . S
O70 C59 1.275 . S
O71 Ho40 2.305 . S
O71 Ho41 2.669 . S
O71 C59 1.256 . S
H72 C45 0.930 . S
H73 C46 0.931 . S
H74 C48 0.934 . S
H75 C49 0.930 . S
H76 C54 0.930 . S
H77 C55 0.931 . S
H78 C57 0.934 . S
H79 C58 0.930 . S
Ho80 C83 2.811 . S
Ho80 O100 2.322 . S
Ho80 O102 2.378 . S
Ho80 O103 2.524 . S
Ho80 O104 2.381 . S
Ho80 O105 2.669 . S
Ho80 O107 2.346 . S
Ho80 O111 2.305 . S
Ho81 C92 2.811 . S
Ho81 O101 2.346 . S
Ho81 O105 2.305 . S
Ho81 O106 2.322 . S
Ho81 O108 2.378 . S
Ho81 O109 2.524 . S
Ho81 O110 2.381 . S
Ho81 O111 2.669 . S
C82 O100 1.259 . S
C82 O101 1.268 . S
C83 Ho80 2.811 . S
C83 C84 1.488 . S
C83 O102 1.215 . S
C83 O103 1.289 . S
C84 C83 1.488 . S
C84 C85 1.348 . S
C84 C89 1.413 . S
C85 C84 1.348 . S
C85 C86 1.442 . S
C85 H112 0.930 . S
C86 C85 1.442 . S
C86 C87 1.381 . S
C86 H113 0.931 . S
C87 C86 1.381 . S
C87 C88 1.321 . S
C88 C87 1.321 . S
C88 C89 1.403 . S
C88 H114 0.934 . S
C89 C84 1.413 . S
C89 C88 1.403 . S
C89 H115 0.930 . S
C90 O104 1.275 . S
C90 O105 1.256 . S
C91 O106 1.259 . S
C91 O107 1.268 . S
C92 Ho81 2.811 . S
C92 C93 1.488 . S
C92 O108 1.215 . S
C92 O109 1.289 . S
C93 C92 1.488 . S
C93 C94 1.348 . S
C93 C98 1.413 . S
C94 C93 1.348 . S
C94 C95 1.442 . S
C94 H116 0.930 . S
C95 C94 1.442 . S
C95 C96 1.381 . S
C95 H117 0.931 . S
C96 C95 1.381 . S
C96 C97 1.321 . S
C97 C96 1.321 . S
C97 C98 1.403 . S
C97 H118 0.934 . S
C98 C93 1.413 . S
C98 C97 1.403 . S
C98 H119 0.930 . S
C99 O110 1.275 . S
C99 O111 1.256 . S
O100 Ho80 2.322 . S
O100 C82 1.259 . S
O101 Ho81 2.346 . S
O101 C82 1.268 . S
O102 Ho80 2.378 . S
O102 C83 1.215 . S
O103 Ho80 2.524 . S
O103 C83 1.289 . S
O104 Ho80 2.381 . S
O104 C90 1.275 . S
O105 Ho80 2.669 . S
O105 Ho81 2.305 . S
O105 C90 1.256 . S
O106 Ho81 2.322 . S
O106 C91 1.259 . S
O107 Ho80 2.346 . S
O107 C91 1.268 . S
O108 Ho81 2.378 . S
O108 C92 1.215 . S
O109 Ho81 2.524 . S
O109 C92 1.289 . S
O110 Ho81 2.381 . S
O110 C99 1.275 . S
O111 Ho80 2.305 . S
O111 Ho81 2.669 . S
O111 C99 1.256 . S
H112 C85 0.930 . S
H113 C86 0.931 . S
H114 C88 0.934 . S
H115 C89 0.930 . S
H116 C94 0.930 . S
H117 C95 0.931 . S
H118 C97 0.934 . S
H119 C98 0.930 . S
Ho120 C123 2.811 . S
Ho120 O140 2.322 . S
Ho120 O142 2.378 . S
Ho120 O143 2.524 . S
Ho120 O144 2.381 . S
Ho120 O145 2.669 . S
Ho120 O147 2.346 . S
Ho120 O151 2.305 . S
Ho121 C132 2.811 . S
Ho121 O141 2.346 . S
Ho121 O145 2.305 . S
Ho121 O146 2.322 . S
Ho121 O148 2.378 . S
Ho121 O149 2.524 . S
Ho121 O150 2.381 . S
Ho121 O151 2.669 . S
C122 O140 1.259 . S
C122 O141 1.268 . S
C123 Ho120 2.811 . S
C123 C124 1.488 . S
C123 O142 1.215 . S
C123 O143 1.289 . S
C124 C123 1.488 . S
C124 C125 1.348 1_556 S
C124 C129 1.413 . S
C125 C124 1.348 1_554 S
C125 C126 1.442 . S
C125 H152 0.930 . S
C126 C125 1.442 . S
C126 C127 1.381 . S
C126 H153 0.931 . S
C127 C126 1.381 . S
C127 C128 1.321 . S
C128 C127 1.321 . S
C128 C129 1.403 1_554 S
C128 H154 0.934 . S
C129 C124 1.413 . S
C129 C128 1.403 1_556 S
C129 H155 0.930 . S
C130 O144 1.275 . S
C130 O145 1.256 . S
C131 O146 1.259 . S
C131 O147 1.268 . S
C132 Ho121 2.811 . S
C132 C133 1.488 . S
C132 O148 1.215 . S
C132 O149 1.289 . S
C133 C132 1.488 . S
C133 C134 1.348 . S
C133 C138 1.413 . S
C134 C133 1.348 . S
C134 C135 1.442 . S
C134 H156 0.930 . S
C135 C134 1.442 . S
C135 C136 1.381 . S
C135 H157 0.931 . S
C136 C135 1.381 . S
C136 C137 1.321 . S
C137 C136 1.321 . S
C137 C138 1.403 . S
C137 H158 0.934 . S
C138 C133 1.413 . S
C138 C137 1.403 . S
C138 H159 0.930 . S
C139 O150 1.275 . S
C139 O151 1.256 . S
O140 Ho120 2.322 . S
O140 C122 1.259 . S
O141 Ho121 2.346 . S
O141 C122 1.268 . S
O142 Ho120 2.378 . S
O142 C123 1.215 . S
O143 Ho120 2.524 . S
O143 C123 1.289 . S
O144 Ho120 2.381 . S
O144 C130 1.275 . S
O145 Ho120 2.669 . S
O145 Ho121 2.305 . S
O145 C130 1.256 . S
O146 Ho121 2.322 . S
O146 C131 1.259 . S
O147 Ho120 2.346 . S
O147 C131 1.268 . S
O148 Ho121 2.378 . S
O148 C132 1.215 . S
O149 Ho121 2.524 . S
O149 C132 1.289 . S
O150 Ho121 2.381 . S
O150 C139 1.275 . S
O151 Ho120 2.305 . S
O151 Ho121 2.669 . S
O151 C139 1.256 . S
H152 C125 0.930 . S
H153 C126 0.931 . S
H154 C128 0.934 . S
H155 C129 0.930 . S
H156 C134 0.930 . S
H157 C135 0.931 . S
H158 C137 0.934 . S
H159 C138 0.930 . S
Ho160 C163 2.811 . S
Ho160 O180 2.322 . S
Ho160 O182 2.378 . S
Ho160 O183 2.524 . S
Ho160 O184 2.381 . S
Ho160 O185 2.669 . S
Ho160 O187 2.346 . S
Ho160 O191 2.305 . S
Ho161 C172 2.811 . S
Ho161 O181 2.346 . S
Ho161 O185 2.305 1_655 S
Ho161 O186 2.322 1_655 S
Ho161 O188 2.378 . S
Ho161 O189 2.524 . S
Ho161 O190 2.381 . S
Ho161 O191 2.669 1_655 S
C162 O180 1.259 1_655 S
C162 O181 1.268 . S
C163 Ho160 2.811 . S
C163 C164 1.488 1_556 S
C163 O182 1.215 . S
C163 O183 1.289 . S
C164 C163 1.488 1_554 S
C164 C165 1.348 . S
C164 C169 1.413 . S
C165 C164 1.348 . S
C165 C166 1.442 . S
C165 H192 0.930 . S
C166 C165 1.442 . S
C166 C167 1.381 . S
C166 H193 0.931 . S
C167 C166 1.381 . S
C167 C168 1.321 . S
C168 C167 1.321 . S
C168 C169 1.403 . S
C168 H194 0.934 . S
C169 C164 1.413 . S
C169 C168 1.403 . S
C169 H195 0.930 . S
C170 O184 1.275 . S
C170 O185 1.256 . S
C171 O186 1.259 . S
C171 O187 1.268 . S
C172 Ho161 2.811 . S
C172 C173 1.488 . S
C172 O188 1.215 . S
C172 O189 1.289 . S
C173 C172 1.488 . S
C173 C174 1.348 . S
C173 C178 1.413 . S
C174 C173 1.348 . S
C174 C175 1.442 . S
C174 H196 0.930 . S
C175 C174 1.442 . S
C175 C176 1.381 . S
C175 H197 0.931 . S
C176 C175 1.381 . S
C176 C177 1.321 . S
C177 C176 1.321 . S
C177 C178 1.403 . S
C177 H198 0.934 . S
C178 C173 1.413 . S
C178 C177 1.403 . S
C178 H199 0.930 . S
C179 O190 1.275 1_455 S
C179 O191 1.256 . S
O180 Ho160 2.322 . S
O180 C162 1.259 1_455 S
O181 Ho161 2.346 . S
O181 C162 1.268 . S
O182 Ho160 2.378 . S
O182 C163 1.215 . S
O183 Ho160 2.524 . S
O183 C163 1.289 . S
O184 Ho160 2.381 . S
O184 C170 1.275 . S
O185 Ho160 2.669 . S
O185 Ho161 2.305 1_455 S
O185 C170 1.256 . S
O186 Ho161 2.322 1_455 S
O186 C171 1.259 . S
O187 Ho160 2.346 . S
O187 C171 1.268 . S
O188 Ho161 2.378 . S
O188 C172 1.215 . S
O189 Ho161 2.524 . S
O189 C172 1.289 . S
O190 Ho161 2.381 . S
O190 C179 1.275 1_655 S
O191 Ho160 2.305 . S
O191 Ho161 2.669 1_455 S
O191 C179 1.256 . S
H192 C165 0.930 . S
H193 C166 0.931 . S
H194 C168 0.934 . S
H195 C169 0.930 . S
H196 C174 0.930 . S
H197 C175 0.931 . S
H198 C177 0.934 . S
H199 C178 0.930 . S
Ho200 C203 2.811 . S
Ho200 O220 2.322 . S
Ho200 O222 2.378 . S
Ho200 O223 2.524 . S
Ho200 O224 2.381 . S
Ho200 O225 2.669 . S
Ho200 O227 2.346 . S
Ho200 O231 2.305 . S
Ho201 C212 2.811 . S
Ho201 O221 2.346 . S
Ho201 O225 2.305 . S
Ho201 O226 2.322 . S
Ho201 O228 2.378 . S
Ho201 O229 2.524 . S
Ho201 O230 2.381 . S
Ho201 O231 2.669 . S
C202 O220 1.259 . S
C202 O221 1.268 . S
C203 Ho200 2.811 . S
C203 C204 1.488 . S
C203 O222 1.215 . S
C203 O223 1.289 . S
C204 C203 1.488 . S
C204 C205 1.348 . S
C204 C209 1.413 . S
C205 C204 1.348 . S
C205 C206 1.442 . S
C205 H232 0.930 . S
C206 C205 1.442 . S
C206 C207 1.381 . S
C206 H233 0.931 . S
C207 C206 1.381 . S
C207 C208 1.321 . S
C208 C207 1.321 . S
C208 C209 1.403 . S
C208 H234 0.934 . S
C209 C204 1.413 . S
C209 C208 1.403 . S
C209 H235 0.930 . S
C210 O224 1.275 . S
C210 O225 1.256 . S
C211 O226 1.259 . S
C211 O227 1.268 . S
C212 Ho201 2.811 . S
C212 C213 1.488 . S
C212 O228 1.215 . S
C212 O229 1.289 . S
C213 C212 1.488 . S
C213 C214 1.348 . S
C213 C218 1.413 . S
C214 C213 1.348 . S
C214 C215 1.442 1_554 S
C214 H236 0.930 . S
C215 C214 1.442 1_556 S
C215 C216 1.381 . S
C215 H237 0.931 . S
C216 C215 1.381 . S
C216 C217 1.321 . S
C217 C216 1.321 . S
C217 C218 1.403 1_556 S
C217 H238 0.934 . S
C218 C213 1.413 . S
C218 C217 1.403 1_554 S
C218 H239 0.930 . S
C219 O230 1.275 . S
C219 O231 1.256 . S
O220 Ho200 2.322 . S
O220 C202 1.259 . S
O221 Ho201 2.346 . S
O221 C202 1.268 . S
O222 Ho200 2.378 . S
O222 C203 1.215 . S
O223 Ho200 2.524 . S
O223 C203 1.289 . S
O224 Ho200 2.381 . S
O224 C210 1.275 . S
O225 Ho200 2.669 . S
O225 Ho201 2.305 . S
O225 C210 1.256 . S
O226 Ho201 2.322 . S
O226 C211 1.259 . S
O227 Ho200 2.346 . S
O227 C211 1.268 . S
O228 Ho201 2.378 . S
O228 C212 1.215 . S
O229 Ho201 2.524 . S
O229 C212 1.289 . S
O230 Ho201 2.381 . S
O230 C219 1.275 . S
O231 Ho200 2.305 . S
O231 Ho201 2.669 . S
O231 C219 1.256 . S
H232 C205 0.930 . S
H233 C206 0.931 . S
H234 C208 0.934 . S
H235 C209 0.930 . S
H236 C214 0.930 . S
H237 C215 0.931 . S
H238 C217 0.934 . S
H239 C218 0.930 . S
Ho240 C243 2.811 . S
Ho240 O260 2.322 . S
Ho240 O262 2.378 . S
Ho240 O263 2.524 . S
Ho240 O264 2.381 . S
Ho240 O265 2.669 . S
Ho240 O267 2.346 . S
Ho240 O271 2.305 . S
Ho241 C252 2.811 . S
Ho241 O261 2.346 . S
Ho241 O265 2.305 . S
Ho241 O266 2.322 . S
Ho241 O268 2.378 . S
Ho241 O269 2.524 . S
Ho241 O270 2.381 . S
Ho241 O271 2.669 . S
C242 O260 1.259 . S
C242 O261 1.268 . S
C243 Ho240 2.811 . S
C243 C244 1.488 . S
C243 O262 1.215 . S
C243 O263 1.289 . S
C244 C243 1.488 . S
C244 C245 1.348 . S
C244 C249 1.413 . S
C245 C244 1.348 . S
C245 C246 1.442 . S
C245 H272 0.930 . S
C246 C245 1.442 . S
C246 C247 1.381 . S
C246 H273 0.931 . S
C247 C246 1.381 . S
C247 C248 1.321 . S
C248 C247 1.321 . S
C248 C249 1.403 . S
C248 H274 0.934 . S
C249 C244 1.413 . S
C249 C248 1.403 . S
C249 H275 0.930 . S
C250 O264 1.275 . S
C250 O265 1.256 . S
C251 O266 1.259 . S
C251 O267 1.268 . S
C252 Ho241 2.811 . S
C252 C253 1.488 . S
C252 O268 1.215 . S
C252 O269 1.289 . S
C253 C252 1.488 . S
C253 C254 1.348 . S
C253 C258 1.413 . S
C254 C253 1.348 . S
C254 C255 1.442 . S
C254 H276 0.930 . S
C255 C254 1.442 . S
C255 C256 1.381 . S
C255 H277 0.931 . S
C256 C255 1.381 . S
C256 C257 1.321 . S
C257 C256 1.321 . S
C257 C258 1.403 . S
C257 H278 0.934 . S
C258 C253 1.413 . S
C258 C257 1.403 . S
C258 H279 0.930 . S
C259 O270 1.275 . S
C259 O271 1.256 . S
O260 Ho240 2.322 . S
O260 C242 1.259 . S
O261 Ho241 2.346 . S
O261 C242 1.268 . S
O262 Ho240 2.378 . S
O262 C243 1.215 . S
O263 Ho240 2.524 . S
O263 C243 1.289 . S
O264 Ho240 2.381 . S
O264 C250 1.275 . S
O265 Ho240 2.669 . S
O265 Ho241 2.305 . S
O265 C250 1.256 . S
O266 Ho241 2.322 . S
O266 C251 1.259 . S
O267 Ho240 2.346 . S
O267 C251 1.268 . S
O268 Ho241 2.378 . S
O268 C252 1.215 . S
O269 Ho241 2.524 . S
O269 C252 1.289 . S
O270 Ho241 2.381 . S
O270 C259 1.275 . S
O271 Ho240 2.305 . S
O271 Ho241 2.669 . S
O271 C259 1.256 . S
H272 C245 0.930 . S
H273 C246 0.931 . S
H274 C248 0.934 . S
H275 C249 0.930 . S
H276 C254 0.930 . S
H277 C255 0.931 . S
H278 C257 0.934 . S
H279 C258 0.930 . S
Ho280 C283 2.811 . S
Ho280 O300 2.322 . S
Ho280 O302 2.378 . S
Ho280 O303 2.524 . S
Ho280 O304 2.381 . S
Ho280 O305 2.669 . S
Ho280 O307 2.346 . S
Ho280 O311 2.305 . S
Ho281 C292 2.811 . S
Ho281 O301 2.346 . S
Ho281 O305 2.305 . S
Ho281 O306 2.322 . S
Ho281 O308 2.378 . S
Ho281 O309 2.524 . S
Ho281 O310 2.381 . S
Ho281 O311 2.669 . S
C282 O300 1.259 . S
C282 O301 1.268 . S
C283 Ho280 2.811 . S
C283 C284 1.488 . S
C283 O302 1.215 . S
C283 O303 1.289 . S
C284 C283 1.488 . S
C284 C285 1.348 . S
C284 C289 1.413 . S
C285 C284 1.348 . S
C285 C286 1.442 . S
C285 H312 0.930 . S
C286 C285 1.442 . S
C286 C287 1.381 . S
C286 H313 0.931 . S
C287 C286 1.381 . S
C287 C288 1.321 . S
C288 C287 1.321 . S
C288 C289 1.403 . S
C288 H314 0.934 . S
C289 C284 1.413 . S
C289 C288 1.403 . S
C289 H315 0.930 . S
C290 O304 1.275 . S
C290 O305 1.256 . S
C291 O306 1.259 . S
C291 O307 1.268 . S
C292 Ho281 2.811 . S
C292 C293 1.488 . S
C292 O308 1.215 . S
C292 O309 1.289 . S
C293 C292 1.488 . S
C293 C294 1.348 . S
C293 C298 1.413 . S
C294 C293 1.348 . S
C294 C295 1.442 . S
C294 H316 0.930 . S
C295 C294 1.442 . S
C295 C296 1.381 . S
C295 H317 0.931 . S
C296 C295 1.381 . S
C296 C297 1.321 . S
C297 C296 1.321 . S
C297 C298 1.403 . S
C297 H318 0.934 . S
C298 C293 1.413 . S
C298 C297 1.403 . S
C298 H319 0.930 . S
C299 O310 1.275 . S
C299 O311 1.256 . S
O300 Ho280 2.322 . S
O300 C282 1.259 . S
O301 Ho281 2.346 . S
O301 C282 1.268 . S
O302 Ho280 2.378 . S
O302 C283 1.215 . S
O303 Ho280 2.524 . S
O303 C283 1.289 . S
O304 Ho280 2.381 . S
O304 C290 1.275 . S
O305 Ho280 2.669 . S
O305 Ho281 2.305 . S
O305 C290 1.256 . S
O306 Ho281 2.322 . S
O306 C291 1.259 . S
O307 Ho280 2.346 . S
O307 C291 1.268 . S
O308 Ho281 2.378 . S
O308 C292 1.215 . S
O309 Ho281 2.524 . S
O309 C292 1.289 . S
O310 Ho281 2.381 . S
O310 C299 1.275 . S
O311 Ho280 2.305 . S
O311 Ho281 2.669 . S
O311 C299 1.256 . S
H312 C285 0.930 . S
H313 C286 0.931 . S
H314 C288 0.934 . S
H315 C289 0.930 . S
H316 C294 0.930 . S
H317 C295 0.931 . S
H318 C297 0.934 . S
H319 C298 0.930 . S
Ho320 C323 2.811 . S
Ho320 O340 2.322 . S
Ho320 O342 2.378 . S
Ho320 O343 2.524 . S
Ho320 O344 2.381 . S
Ho320 O345 2.669 . S
Ho320 O347 2.346 . S
Ho320 O351 2.305 . S
Ho321 C332 2.811 . S
Ho321 O341 2.346 . S
Ho321 O345 2.305 . S
Ho321 O346 2.322 . S
Ho321 O348 2.378 . S
Ho321 O349 2.524 . S
Ho321 O350 2.381 . S
Ho321 O351 2.669 . S
C322 O340 1.259 . S
C322 O341 1.268 . S
C323 Ho320 2.811 . S
C323 C324 1.488 . S
C323 O342 1.215 . S
C323 O343 1.289 . S
C324 C323 1.488 . S
C324 C325 1.348 . S
C324 C329 1.413 . S
C325 C324 1.348 . S
C325 C326 1.442 . S
C325 H352 0.930 . S
C326 C325 1.442 . S
C326 C327 1.381 . S
C326 H353 0.931 . S
C327 C326 1.381 . S
C327 C328 1.321 . S
C328 C327 1.321 . S
C328 C329 1.403 . S
C328 H354 0.934 . S
C329 C324 1.413 . S
C329 C328 1.403 . S
C329 H355 0.930 . S
C330 O344 1.275 . S
C330 O345 1.256 . S
C331 O346 1.259 . S
C331 O347 1.268 . S
C332 Ho321 2.811 . S
C332 C333 1.488 . S
C332 O348 1.215 . S
C332 O349 1.289 . S
C333 C332 1.488 . S
C333 C334 1.348 . S
C333 C338 1.413 . S
C334 C333 1.348 . S
C334 C335 1.442 . S
C334 H356 0.930 . S
C335 C334 1.442 . S
C335 C336 1.381 . S
C335 H357 0.931 . S
C336 C335 1.381 . S
C336 C337 1.321 . S
C337 C336 1.321 . S
C337 C338 1.403 . S
C337 H358 0.934 . S
C338 C333 1.413 . S
C338 C337 1.403 . S
C338 H359 0.930 . S
C339 O350 1.275 . S
C339 O351 1.256 . S
O340 Ho320 2.322 . S
O340 C322 1.259 . S
O341 Ho321 2.346 . S
O341 C322 1.268 . S
O342 Ho320 2.378 . S
O342 C323 1.215 . S
O343 Ho320 2.524 . S
O343 C323 1.289 . S
O344 Ho320 2.381 . S
O344 C330 1.275 . S
O345 Ho320 2.669 . S
O345 Ho321 2.305 . S
O345 C330 1.256 . S
O346 Ho321 2.322 . S
O346 C331 1.259 . S
O347 Ho320 2.346 . S
O347 C331 1.268 . S
O348 Ho321 2.378 . S
O348 C332 1.215 . S
O349 Ho321 2.524 . S
O349 C332 1.289 . S
O350 Ho321 2.381 . S
O350 C339 1.275 . S
O351 Ho320 2.305 . S
O351 Ho321 2.669 . S
O351 C339 1.256 . S
H352 C325 0.930 . S
H353 C326 0.931 . S
H354 C328 0.934 . S
H355 C329 0.930 . S
H356 C334 0.930 . S
H357 C335 0.931 . S
H358 C337 0.934 . S
H359 C338 0.930 . S
Ho360 C363 2.811 . S
Ho360 O380 2.322 . S
Ho360 O382 2.378 . S
Ho360 O383 2.524 . S
Ho360 O384 2.381 . S
Ho360 O385 2.669 . S
Ho360 O387 2.346 . S
Ho360 O391 2.305 . S
Ho361 C372 2.811 1_554 S
Ho361 O381 2.346 . S
Ho361 O385 2.305 . S
Ho361 O386 2.322 . S
Ho361 O388 2.378 . S
Ho361 O389 2.524 . S
Ho361 O390 2.381 . S
Ho361 O391 2.669 . S
C362 O380 1.259 . S
C362 O381 1.268 . S
C363 Ho360 2.811 . S
C363 C364 1.488 . S
C363 O382 1.215 . S
C363 O383 1.289 . S
C364 C363 1.488 . S
C364 C365 1.348 . S
C364 C369 1.413 . S
C365 C364 1.348 . S
C365 C366 1.442 . S
C365 H392 0.930 . S
C366 C365 1.442 . S
C366 C367 1.381 . S
C366 H393 0.931 . S
C367 C366 1.381 . S
C367 C368 1.321 . S
C368 C367 1.321 . S
C368 C369 1.403 . S
C368 H394 0.934 . S
C369 C364 1.413 . S
C369 C368 1.403 . S
C369 H395 0.930 . S
C370 O384 1.275 . S
C370 O385 1.256 . S
C371 O386 1.259 . S
C371 O387 1.268 . S
C372 Ho361 2.811 1_556 S
C372 C373 1.488 . S
C372 O388 1.215 1_556 S
C372 O389 1.289 1_556 S
C373 C372 1.488 . S
C373 C374 1.348 . S
C373 C378 1.413 . S
C374 C373 1.348 . S
C374 C375 1.442 . S
C374 H396 0.930 . S
C375 C374 1.442 . S
C375 C376 1.381 . S
C375 H397 0.931 . S
C376 C375 1.381 . S
C376 C377 1.321 . S
C377 C376 1.321 . S
C377 C378 1.403 . S
C377 H398 0.934 . S
C378 C373 1.413 . S
C378 C377 1.403 . S
C378 H399 0.930 . S
C379 O390 1.275 . S
C379 O391 1.256 . S
O380 Ho360 2.322 . S
O380 C362 1.259 . S
O381 Ho361 2.346 . S
O381 C362 1.268 . S
O382 Ho360 2.378 . S
O382 C363 1.215 . S
O383 Ho360 2.524 . S
O383 C363 1.289 . S
O384 Ho360 2.381 . S
O384 C370 1.275 . S
O385 Ho360 2.669 . S
O385 Ho361 2.305 . S
O385 C370 1.256 . S
O386 Ho361 2.322 . S
O386 C371 1.259 . S
O387 Ho360 2.346 . S
O387 C371 1.268 . S
O388 Ho361 2.378 . S
O388 C372 1.215 1_554 S
O389 Ho361 2.524 . S
O389 C372 1.289 1_554 S
O390 Ho361 2.381 . S
O390 C379 1.275 . S
O391 Ho360 2.305 . S
O391 Ho361 2.669 . S
O391 C379 1.256 . S
H392 C365 0.930 . S
H393 C366 0.931 . S
H394 C368 0.934 . S
H395 C369 0.930 . S
H396 C374 0.930 . S
H397 C375 0.931 . S
H398 C377 0.934 . S
H399 C378 0.930 . S
Ho400 C403 2.811 . S
Ho400 O420 2.322 . S
Ho400 O422 2.378 . S
Ho400 O423 2.524 . S
Ho400 O424 2.381 . S
Ho400 O425 2.669 . S
Ho400 O427 2.346 . S
Ho400 O431 2.305 . S
Ho401 C412 2.811 . S
Ho401 O421 2.346 . S
Ho401 O425 2.305 . S
Ho401 O426 2.322 . S
Ho401 O428 2.378 . S
Ho401 O429 2.524 . S
Ho401 O430 2.381 . S
Ho401 O431 2.669 . S
C402 O420 1.259 . S
C402 O421 1.268 . S
C403 Ho400 2.811 . S
C403 C404 1.488 1_556 S
C403 O422 1.215 . S
C403 O423 1.289 . S
C404 C403 1.488 1_554 S
C404 C405 1.348 . S
C404 C409 1.413 . S
C405 C404 1.348 . S
C405 C406 1.442 . S
C405 H432 0.930 . S
C406 C405 1.442 . S
C406 C407 1.381 . S
C406 H433 0.931 . S
C407 C406 1.381 . S
C407 C408 1.321 . S
C408 C407 1.321 . S
C408 C409 1.403 . S
C408 H434 0.934 . S
C409 C404 1.413 . S
C409 C408 1.403 . S
C409 H435 0.930 . S
C410 O424 1.275 . S
C410 O425 1.256 . S
C411 O426 1.259 . S
C411 O427 1.268 . S
C412 Ho401 2.811 . S
C412 C413 1.488 . S
C412 O428 1.215 . S
C412 O429 1.289 . S
C413 C412 1.488 . S
C413 C414 1.348 . S
C413 C418 1.413 . S
C414 C413 1.348 . S
C414 C415 1.442 . S
C414 H436 0.930 . S
C415 C414 1.442 . S
C415 C416 1.381 . S
C415 H437 0.931 . S
C416 C415 1.381 . S
C416 C417 1.321 . S
C417 C416 1.321 . S
C417 C418 1.403 . S
C417 H438 0.934 . S
C418 C413 1.413 . S
C418 C417 1.403 . S
C418 H439 0.930 . S
C419 O430 1.275 . S
C419 O431 1.256 . S
O420 Ho400 2.322 . S
O420 C402 1.259 . S
O421 Ho401 2.346 . S
O421 C402 1.268 . S
O422 Ho400 2.378 . S
O422 C403 1.215 . S
O423 Ho400 2.524 . S
O423 C403 1.289 . S
O424 Ho400 2.381 . S
O424 C410 1.275 . S
O425 Ho400 2.669 . S
O425 Ho401 2.305 . S
O425 C410 1.256 . S
O426 Ho401 2.322 . S
O426 C411 1.259 . S
O427 Ho400 2.346 . S
O427 C411 1.268 . S
O428 Ho401 2.378 . S
O428 C412 1.215 . S
O429 Ho401 2.524 . S
O429 C412 1.289 . S
O430 Ho401 2.381 . S
O430 C419 1.275 . S
O431 Ho400 2.305 . S
O431 Ho401 2.669 . S
O431 C419 1.256 . S
H432 C405 0.930 . S
H433 C406 0.931 . S
H434 C408 0.934 . S
H435 C409 0.930 . S
H436 C414 0.930 . S
H437 C415 0.931 . S
H438 C417 0.934 . S
H439 C418 0.930 . S
Ho440 C443 2.811 . S
Ho440 O460 2.322 . S
Ho440 O462 2.378 . S
Ho440 O463 2.524 . S
Ho440 O464 2.381 . S
Ho440 O465 2.669 . S
Ho440 O467 2.346 . S
Ho440 O471 2.305 . S
Ho441 C452 2.811 . S
Ho441 O461 2.346 . S
Ho441 O465 2.305 . S
Ho441 O466 2.322 . S
Ho441 O468 2.378 . S
Ho441 O469 2.524 . S
Ho441 O470 2.381 . S
Ho441 O471 2.669 . S
C442 O460 1.259 . S
C442 O461 1.268 . S
C443 Ho440 2.811 . S
C443 C444 1.488 . S
C443 O462 1.215 . S
C443 O463 1.289 . S
C444 C443 1.488 . S
C444 C445 1.348 . S
C444 C449 1.413 . S
C445 C444 1.348 . S
C445 C446 1.442 . S
C445 H472 0.930 . S
C446 C445 1.442 . S
C446 C447 1.381 . S
C446 H473 0.931 . S
C447 C446 1.381 . S
C447 C448 1.321 . S
C448 C447 1.321 . S
C448 C449 1.403 . S
C448 H474 0.934 . S
C449 C444 1.413 . S
C449 C448 1.403 . S
C449 H475 0.930 . S
C450 O464 1.275 . S
C450 O465 1.256 . S
C451 O466 1.259 . S
C451 O467 1.268 . S
C452 Ho441 2.811 . S
C452 C453 1.488 . S
C452 O468 1.215 . S
C452 O469 1.289 . S
C453 C452 1.488 . S
C453 C454 1.348 . S
C453 C458 1.413 . S
C454 C453 1.348 . S
C454 C455 1.442 . S
C454 H476 0.930 . S
C455 C454 1.442 . S
C455 C456 1.381 . S
C455 H477 0.931 . S
C456 C455 1.381 . S
C456 C457 1.321 . S
C457 C456 1.321 . S
C457 C458 1.403 . S
C457 H478 0.934 . S
C458 C453 1.413 . S
C458 C457 1.403 . S
C458 H479 0.930 . S
C459 O470 1.275 . S
C459 O471 1.256 . S
O460 Ho440 2.322 . S
O460 C442 1.259 . S
O461 Ho441 2.346 . S
O461 C442 1.268 . S
O462 Ho440 2.378 . S
O462 C443 1.215 . S
O463 Ho440 2.524 . S
O463 C443 1.289 . S
O464 Ho440 2.381 . S
O464 C450 1.275 . S
O465 Ho440 2.669 . S
O465 Ho441 2.305 . S
O465 C450 1.256 . S
O466 Ho441 2.322 . S
O466 C451 1.259 . S
O467 Ho440 2.346 . S
O467 C451 1.268 . S
O468 Ho441 2.378 . S
O468 C452 1.215 . S
O469 Ho441 2.524 . S
O469 C452 1.289 . S
O470 Ho441 2.381 . S
O470 C459 1.275 . S
O471 Ho440 2.305 . S
O471 Ho441 2.669 . S
O471 C459 1.256 . S
H472 C445 0.930 . S
H473 C446 0.931 . S
H474 C448 0.934 . S
H475 C449 0.930 . S
H476 C454 0.930 . S
H477 C455 0.931 . S
H478 C457 0.934 . S
H479 C458 0.930 . S
Ho480 C483 2.811 . S
Ho480 O500 2.322 . S
Ho480 O502 2.378 . S
Ho480 O503 2.524 . S
Ho480 O504 2.381 . S
Ho480 O505 2.669 . S
Ho480 O507 2.346 . S
Ho480 O511 2.305 . S
Ho481 C492 2.811 . S
Ho481 O501 2.346 . S
Ho481 O505 2.305 . S
Ho481 O506 2.322 . S
Ho481 O508 2.378 . S
Ho481 O509 2.524 . S
Ho481 O510 2.381 . S
Ho481 O511 2.669 . S
C482 O500 1.259 . S
C482 O501 1.268 . S
C483 Ho480 2.811 . S
C483 C484 1.488 . S
C483 O502 1.215 . S
C483 O503 1.289 . S
C484 C483 1.488 . S
C484 C485 1.348 . S
C484 C489 1.413 . S
C485 C484 1.348 . S
C485 C486 1.442 . S
C485 H512 0.930 . S
C486 C485 1.442 . S
C486 C487 1.381 . S
C486 H513 0.931 . S
C487 C486 1.381 . S
C487 C488 1.321 . S
C488 C487 1.321 . S
C488 C489 1.403 . S
C488 H514 0.934 . S
C489 C484 1.413 . S
C489 C488 1.403 . S
C489 H515 0.930 . S
C490 O504 1.275 . S
C490 O505 1.256 . S
C491 O506 1.259 . S
C491 O507 1.268 . S
C492 Ho481 2.811 . S
C492 C493 1.488 . S
C492 O508 1.215 . S
C492 O509 1.289 . S
C493 C492 1.488 . S
C493 C494 1.348 . S
C493 C498 1.413 . S
C494 C493 1.348 . S
C494 C495 1.442 . S
C494 H516 0.930 . S
C495 C494 1.442 . S
C495 C496 1.381 . S
C495 H517 0.931 . S
C496 C495 1.381 . S
C496 C497 1.321 . S
C497 C496 1.321 . S
C497 C498 1.403 . S
C497 H518 0.934 . S
C498 C493 1.413 . S
C498 C497 1.403 . S
C498 H519 0.930 . S
C499 O510 1.275 . S
C499 O511 1.256 . S
O500 Ho480 2.322 . S
O500 C482 1.259 . S
O501 Ho481 2.346 . S
O501 C482 1.268 . S
O502 Ho480 2.378 . S
O502 C483 1.215 . S
O503 Ho480 2.524 . S
O503 C483 1.289 . S
O504 Ho480 2.381 . S
O504 C490 1.275 . S
O505 Ho480 2.669 . S
O505 Ho481 2.305 . S
O505 C490 1.256 . S
O506 Ho481 2.322 . S
O506 C491 1.259 . S
O507 Ho480 2.346 . S
O507 C491 1.268 . S
O508 Ho481 2.378 . S
O508 C492 1.215 . S
O509 Ho481 2.524 . S
O509 C492 1.289 . S
O510 Ho481 2.381 . S
O510 C499 1.275 . S
O511 Ho480 2.305 . S
O511 Ho481 2.669 . S
O511 C499 1.256 . S
H512 C485 0.930 . S
H513 C486 0.931 . S
H514 C488 0.934 . S
H515 C489 0.930 . S
H516 C494 0.930 . S
H517 C495 0.931 . S
H518 C497 0.934 . S
H519 C498 0.930 . S
Ho520 C523 2.811 . S
Ho520 O540 2.322 1_655 S
Ho520 O542 2.378 . S
Ho520 O543 2.524 . S
Ho520 O544 2.381 . S
Ho520 O545 2.669 1_655 S
Ho520 O547 2.346 . S
Ho520 O551 2.305 1_655 S
Ho521 C532 2.811 . S
Ho521 O541 2.346 . S
Ho521 O545 2.305 . S
Ho521 O546 2.322 . S
Ho521 O548 2.378 . S
Ho521 O549 2.524 . S
Ho521 O550 2.381 . S
Ho521 O551 2.669 . S
C522 O540 1.259 . S
C522 O541 1.268 . S
C523 Ho520 2.811 . S
C523 C524 1.488 . S
C523 O542 1.215 . S
C523 O543 1.289 . S
C524 C523 1.488 . S
C524 C525 1.348 . S
C524 C529 1.413 . S
C525 C524 1.348 . S
C525 C526 1.442 . S
C525 H552 0.930 . S
C526 C525 1.442 . S
C526 C527 1.381 . S
C526 H553 0.931 . S
C527 C526 1.381 . S
C527 C528 1.321 . S
C528 C527 1.321 . S
C528 C529 1.403 . S
C528 H554 0.934 . S
C529 C524 1.413 . S
C529 C528 1.403 . S
C529 H555 0.930 . S
C530 O544 1.275 1_455 S
C530 O545 1.256 . S
C531 O546 1.259 1_655 S
C531 O547 1.268 . S
C532 Ho521 2.811 . S
C532 C533 1.488 1_554 S
C532 O548 1.215 . S
C532 O549 1.289 . S
C533 C532 1.488 1_556 S
C533 C534 1.348 . S
C533 C538 1.413 . S
C534 C533 1.348 . S
C534 C535 1.442 . S
C534 H556 0.930 . S
C535 C534 1.442 . S
C535 C536 1.381 . S
C535 H557 0.931 . S
C536 C535 1.381 . S
C536 C537 1.321 . S
C537 C536 1.321 . S
C537 C538 1.403 . S
C537 H558 0.934 . S
C538 C533 1.413 . S
C538 C537 1.403 . S
C538 H559 0.930 . S
C539 O550 1.275 . S
C539 O551 1.256 . S
O540 Ho520 2.322 1_455 S
O540 C522 1.259 . S
O541 Ho521 2.346 . S
O541 C522 1.268 . S
O542 Ho520 2.378 . S
O542 C523 1.215 . S
O543 Ho520 2.524 . S
O543 C523 1.289 . S
O544 Ho520 2.381 . S
O544 C530 1.275 1_655 S
O545 Ho520 2.669 1_455 S
O545 Ho521 2.305 . S
O545 C530 1.256 . S
O546 Ho521 2.322 . S
O546 C531 1.259 1_455 S
O547 Ho520 2.346 . S
O547 C531 1.268 . S
O548 Ho521 2.378 . S
O548 C532 1.215 . S
O549 Ho521 2.524 . S
O549 C532 1.289 . S
O550 Ho521 2.381 . S
O550 C539 1.275 . S
O551 Ho520 2.305 1_455 S
O551 Ho521 2.669 . S
O551 C539 1.256 . S
H552 C525 0.930 . S
H553 C526 0.931 . S
H554 C528 0.934 . S
H555 C529 0.930 . S
H556 C534 0.930 . S
H557 C535 0.931 . S
H558 C537 0.934 . S
H559 C538 0.930 . S
Ho560 C563 2.811 . S
Ho560 O580 2.322 . S
Ho560 O582 2.378 . S
Ho560 O583 2.524 . S
Ho560 O584 2.381 . S
Ho560 O585 2.669 . S
Ho560 O587 2.346 . S
Ho560 O591 2.305 . S
Ho561 C572 2.811 . S
Ho561 O581 2.346 . S
Ho561 O585 2.305 . S
Ho561 O586 2.322 . S
Ho561 O588 2.378 . S
Ho561 O589 2.524 . S
Ho561 O590 2.381 . S
Ho561 O591 2.669 . S
C562 O580 1.259 . S
C562 O581 1.268 . S
C563 Ho560 2.811 . S
C563 C564 1.488 . S
C563 O582 1.215 . S
C563 O583 1.289 . S
C564 C563 1.488 . S
C564 C565 1.348 . S
C564 C569 1.413 . S
C565 C564 1.348 . S
C565 C566 1.442 . S
C565 H592 0.930 . S
C566 C565 1.442 . S
C566 C567 1.381 . S
C566 H593 0.931 . S
C567 C566 1.381 . S
C567 C568 1.321 . S
C568 C567 1.321 . S
C568 C569 1.403 . S
C568 H594 0.934 . S
C569 C564 1.413 . S
C569 C568 1.403 . S
C569 H595 0.930 . S
C570 O584 1.275 . S
C570 O585 1.256 . S
C571 O586 1.259 . S
C571 O587 1.268 . S
C572 Ho561 2.811 . S
C572 C573 1.488 . S
C572 O588 1.215 . S
C572 O589 1.289 . S
C573 C572 1.488 . S
C573 C574 1.348 . S
C573 C578 1.413 . S
C574 C573 1.348 . S
C574 C575 1.442 . S
C574 H596 0.930 . S
C575 C574 1.442 . S
C575 C576 1.381 . S
C575 H597 0.931 . S
C576 C575 1.381 . S
C576 C577 1.321 . S
C577 C576 1.321 . S
C577 C578 1.403 . S
C577 H598 0.934 . S
C578 C573 1.413 . S
C578 C577 1.403 . S
C578 H599 0.930 . S
C579 O590 1.275 . S
C579 O591 1.256 . S
O580 Ho560 2.322 . S
O580 C562 1.259 . S
O581 Ho561 2.346 . S
O581 C562 1.268 . S
O582 Ho560 2.378 . S
O582 C563 1.215 . S
O583 Ho560 2.524 . S
O583 C563 1.289 . S
O584 Ho560 2.381 . S
O584 C570 1.275 . S
O585 Ho560 2.669 . S
O585 Ho561 2.305 . S
O585 C570 1.256 . S
O586 Ho561 2.322 . S
O586 C571 1.259 . S
O587 Ho560 2.346 . S
O587 C571 1.268 . S
O588 Ho561 2.378 . S
O588 C572 1.215 . S
O589 Ho561 2.524 . S
O589 C572 1.289 . S
O590 Ho561 2.381 . S
O590 C579 1.275 . S
O591 Ho560 2.305 . S
O591 Ho561 2.669 . S
O591 C579 1.256 . S
H592 C565 0.930 . S
H593 C566 0.931 . S
H594 C568 0.934 . S
H595 C569 0.930 . S
H596 C574 0.930 . S
H597 C575 0.931 . S
H598 C577 0.934 . S
H599 C578 0.930 . S
Ho600 C603 2.811 . S
Ho600 O620 2.322 1_655 S
Ho600 O622 2.378 . S
Ho600 O623 2.524 . S
Ho600 O624 2.381 . S
Ho600 O625 2.669 1_655 S
Ho600 O627 2.346 . S
Ho600 O631 2.305 1_655 S
Ho601 C612 2.811 . S
Ho601 O621 2.346 . S
Ho601 O625 2.305 . S
Ho601 O626 2.322 . S
Ho601 O628 2.378 . S
Ho601 O629 2.524 . S
Ho601 O630 2.381 . S
Ho601 O631 2.669 . S
C602 O620 1.259 . S
C602 O621 1.268 . S
C603 Ho600 2.811 . S
C603 C604 1.488 1_556 S
C603 O622 1.215 . S
C603 O623 1.289 . S
C604 C603 1.488 1_554 S
C604 C605 1.348 . S
C604 C609 1.413 . S
C605 C604 1.348 . S
C605 C606 1.442 . S
C605 H632 0.930 . S
C606 C605 1.442 . S
C606 C607 1.381 . S
C606 H633 0.931 . S
C607 C606 1.381 . S
C607 C608 1.321 . S
C608 C607 1.321 . S
C608 C609 1.403 . S
C608 H634 0.934 . S
C609 C604 1.413 . S
C609 C608 1.403 . S
C609 H635 0.930 . S
C610 O624 1.275 1_455 S
C610 O625 1.256 . S
C611 O626 1.259 1_655 S
C611 O627 1.268 . S
C612 Ho601 2.811 . S
C612 C613 1.488 . S
C612 O628 1.215 . S
C612 O629 1.289 . S
C613 C612 1.488 . S
C613 C614 1.348 . S
C613 C618 1.413 . S
C614 C613 1.348 . S
C614 C615 1.442 . S
C614 H636 0.930 . S
C615 C614 1.442 . S
C615 C616 1.381 . S
C615 H637 0.931 . S
C616 C615 1.381 . S
C616 C617 1.321 . S
C617 C616 1.321 . S
C617 C618 1.403 . S
C617 H638 0.934 . S
C618 C613 1.413 . S
C618 C617 1.403 . S
C618 H639 0.930 . S
C619 O630 1.275 . S
C619 O631 1.256 . S
O620 Ho600 2.322 1_455 S
O620 C602 1.259 . S
O621 Ho601 2.346 . S
O621 C602 1.268 . S
O622 Ho600 2.378 . S
O622 C603 1.215 . S
O623 Ho600 2.524 . S
O623 C603 1.289 . S
O624 Ho600 2.381 . S
O624 C610 1.275 1_655 S
O625 Ho600 2.669 1_455 S
O625 Ho601 2.305 . S
O625 C610 1.256 . S
O626 Ho601 2.322 . S
O626 C611 1.259 1_455 S
O627 Ho600 2.346 . S
O627 C611 1.268 . S
O628 Ho601 2.378 . S
O628 C612 1.215 . S
O629 Ho601 2.524 . S
O629 C612 1.289 . S
O630 Ho601 2.381 . S
O630 C619 1.275 . S
O631 Ho600 2.305 1_455 S
O631 Ho601 2.669 . S
O631 C619 1.256 . S
H632 C605 0.930 . S
H633 C606 0.931 . S
H634 C608 0.934 . S
H635 C609 0.930 . S
H636 C614 0.930 . S
H637 C615 0.931 . S
H638 C617 0.934 . S
H639 C618 0.930 . S
C640 C641 1.391 . S
C640 C642 1.394 . S
C640 H656 0.931 . S
C641 C640 1.391 . S
C641 C645 1.376 . S
C642 C640 1.394 . S
C642 C643 1.369 . S
C642 C646 1.531 . S
C643 C642 1.369 . S
C643 C644 1.410 . S
C643 C651 1.503 . S
C644 C643 1.410 . S
C644 C645 1.392 . S
C644 C647 1.511 . S
C645 C641 1.376 . S
C645 C644 1.392 . S
C645 H657 0.929 . S
C646 C642 1.531 . S
C646 H658 0.960 . S
C646 H659 0.962 . S
C646 H660 0.960 . S
C647 C644 1.511 . S
C647 H661 0.961 . S
C647 H662 0.961 . S
C647 H663 0.961 . S
C648 C649 1.370 . S
C648 C650 1.363 . S
C648 H664 0.931 . S
C649 C648 1.370 . S
C649 C653 1.408 . S
C650 C648 1.363 . S
C650 C651 1.370 . S
C650 C654 1.524 . S
C651 C643 1.503 . S
C651 C650 1.370 . S
C651 C652 1.403 . S
C652 C651 1.403 . S
C652 C653 1.404 . S
C652 C655 1.539 . S
C653 C649 1.408 . S
C653 C652 1.404 . S
C653 H665 0.930 . S
C654 C650 1.524 . S
C654 H666 0.956 . S
C654 H667 0.961 . S
C654 H668 0.961 . S
C655 C652 1.539 . S
C655 H669 0.958 . S
C655 H670 0.961 . S
C655 H671 0.960 . S
H656 C640 0.931 . S
H657 C645 0.929 . S
H658 C646 0.960 . S
H659 C646 0.962 . S
H660 C646 0.960 . S
H661 C647 0.961 . S
H662 C647 0.961 . S
H663 C647 0.961 . S
H664 C648 0.931 . S
H665 C653 0.930 . S
H666 C654 0.956 . S
H667 C654 0.961 . S
H668 C654 0.961 . S
H669 C655 0.958 . S
H670 C655 0.961 . S
H671 C655 0.960 . S
C672 C673 1.391 . S
C672 C674 1.394 . S
C672 H688 0.931 . S
C673 C672 1.391 . S
C673 C677 1.376 . S
C674 C672 1.394 . S
C674 C675 1.369 . S
C674 C678 1.531 . S
C675 C674 1.369 . S
C675 C676 1.410 . S
C675 C683 1.503 . S
C676 C675 1.410 . S
C676 C677 1.392 . S
C676 C679 1.511 . S
C677 C673 1.376 . S
C677 C676 1.392 . S
C677 H689 0.929 . S
C678 C674 1.531 . S
C678 H690 0.960 . S
C678 H691 0.962 . S
C678 H692 0.960 . S
C679 C676 1.511 . S
C679 H693 0.961 . S
C679 H694 0.961 . S
C679 H695 0.961 . S
C680 C681 1.370 . S
C680 C682 1.363 . S
C680 H696 0.931 . S
C681 C680 1.370 . S
C681 C685 1.408 . S
C682 C680 1.363 . S
C682 C683 1.370 . S
C682 C686 1.524 . S
C683 C675 1.503 . S
C683 C682 1.370 . S
C683 C684 1.403 . S
C684 C683 1.403 . S
C684 C685 1.404 . S
C684 C687 1.539 . S
C685 C681 1.408 . S
C685 C684 1.404 . S
C685 H697 0.930 . S
C686 C682 1.524 . S
C686 H698 0.956 . S
C686 H699 0.961 . S
C686 H700 0.961 . S
C687 C684 1.539 . S
C687 H701 0.958 . S
C687 H702 0.961 . S
C687 H703 0.960 . S
H688 C672 0.931 . S
H689 C677 0.929 . S
H690 C678 0.960 . S
H691 C678 0.962 . S
H692 C678 0.960 . S
H693 C679 0.961 . S
H694 C679 0.961 . S
H695 C679 0.961 . S
H696 C680 0.931 . S
H697 C685 0.930 . S
H698 C686 0.956 . S
H699 C686 0.961 . S
H700 C686 0.961 . S
H701 C687 0.958 . S
H702 C687 0.961 . S
H703 C687 0.960 . S
C704 C705 1.391 . S
C704 C706 1.394 . S
C704 H720 0.931 . S
C705 C704 1.391 . S
C705 C709 1.376 . S
C706 C704 1.394 . S
C706 C707 1.369 . S
C706 C710 1.531 . S
C707 C706 1.369 . S
C707 C708 1.410 . S
C707 C715 1.503 . S
C708 C707 1.410 . S
C708 C709 1.392 . S
C708 C711 1.511 . S
C709 C705 1.376 . S
C709 C708 1.392 . S
C709 H721 0.929 . S
C710 C706 1.531 . S
C710 H722 0.960 . S
C710 H723 0.962 . S
C710 H724 0.960 . S
C711 C708 1.511 . S
C711 H725 0.961 . S
C711 H726 0.961 . S
C711 H727 0.961 . S
C712 C713 1.370 . S
C712 C714 1.363 . S
C712 H728 0.931 . S
C713 C712 1.370 . S
C713 C717 1.408 . S
C714 C712 1.363 . S
C714 C715 1.370 . S
C714 C718 1.524 . S
C715 C707 1.503 . S
C715 C714 1.370 . S
C715 C716 1.403 . S
C716 C715 1.403 . S
C716 C717 1.404 . S
C716 C719 1.539 . S
C717 C713 1.408 . S
C717 C716 1.404 . S
C717 H729 0.930 . S
C718 C714 1.524 . S
C718 H730 0.956 . S
C718 H731 0.961 . S
C718 H732 0.961 . S
C719 C716 1.539 . S
C719 H733 0.958 . S
C719 H734 0.961 . S
C719 H735 0.960 . S
H720 C704 0.931 . S
H721 C709 0.929 . S
H722 C710 0.960 . S
H723 C710 0.962 . S
H724 C710 0.960 . S
H725 C711 0.961 . S
H726 C711 0.961 . S
H727 C711 0.961 . S
H728 C712 0.931 . S
H729 C717 0.930 . S
H730 C718 0.956 . S
H731 C718 0.961 . S
H732 C718 0.961 . S
H733 C719 0.958 . S
H734 C719 0.961 . S
H735 C719 0.960 . S
C736 C737 1.391 . S
C736 C738 1.394 . S
C736 H752 0.931 . S
C737 C736 1.391 . S
C737 C741 1.376 . S
C738 C736 1.394 . S
C738 C739 1.369 . S
C738 C742 1.531 . S
C739 C738 1.369 . S
C739 C740 1.410 . S
C739 C747 1.503 . S
C740 C739 1.410 . S
C740 C741 1.392 . S
C740 C743 1.511 . S
C741 C737 1.376 . S
C741 C740 1.392 . S
C741 H753 0.929 . S
C742 C738 1.531 . S
C742 H754 0.960 . S
C742 H755 0.962 . S
C742 H756 0.960 . S
C743 C740 1.511 . S
C743 H757 0.961 . S
C743 H758 0.961 . S
C743 H759 0.961 . S
C744 C745 1.370 . S
C744 C746 1.363 . S
C744 H760 0.931 . S
C745 C744 1.370 . S
C745 C749 1.408 . S
C746 C744 1.363 . S
C746 C747 1.370 . S
C746 C750 1.524 . S
C747 C739 1.503 . S
C747 C746 1.370 . S
C747 C748 1.403 . S
C748 C747 1.403 . S
C748 C749 1.404 . S
C748 C751 1.539 . S
C749 C745 1.408 . S
C749 C748 1.404 . S
C749 H761 0.930 . S
C750 C746 1.524 . S
C750 H762 0.956 . S
C750 H763 0.961 . S
C750 H764 0.961 . S
C751 C748 1.539 . S
C751 H765 0.958 . S
C751 H766 0.961 . S
C751 H767 0.960 . S
H752 C736 0.931 . S
H753 C741 0.929 . S
H754 C742 0.960 . S
H755 C742 0.962 . S
H756 C742 0.960 . S
H757 C743 0.961 . S
H758 C743 0.961 . S
H759 C743 0.961 . S
H760 C744 0.931 . S
H761 C749 0.930 . S
H762 C750 0.956 . S
H763 C750 0.961 . S
H764 C750 0.961 . S
H765 C751 0.958 . S
H766 C751 0.961 . S
H767 C751 0.960 . S
C768 C769 1.391 . S
C768 C770 1.394 . S
C768 H784 0.931 . S
C769 C768 1.391 . S
C769 C773 1.376 . S
C770 C768 1.394 . S
C770 C771 1.369 . S
C770 C774 1.531 . S
C771 C770 1.369 . S
C771 C772 1.410 . S
C771 C779 1.503 . S
C772 C771 1.410 . S
C772 C773 1.392 . S
C772 C775 1.511 . S
C773 C769 1.376 . S
C773 C772 1.392 . S
C773 H785 0.929 . S
C774 C770 1.531 . S
C774 H786 0.960 . S
C774 H787 0.962 . S
C774 H788 0.960 . S
C775 C772 1.511 . S
C775 H789 0.961 . S
C775 H790 0.961 . S
C775 H791 0.961 . S
C776 C777 1.364 1_554 S
C776 C778 1.369 . S
C776 H792 0.931 1_655 S
C777 C776 1.364 1_556 S
C777 C781 1.408 . S
C778 C776 1.369 . S
C778 C779 1.370 . S
C778 C782 1.524 . S
C779 C771 1.503 . S
C779 C778 1.370 . S
C779 C780 1.403 1_554 S
C780 C779 1.403 1_556 S
C780 C781 1.404 . S
C780 C783 1.539 . S
C781 C777 1.408 . S
C781 C780 1.404 . S
C781 H793 0.930 . S
C782 C778 1.524 . S
C782 H794 0.956 . S
C782 H795 0.961 . S
C782 H796 0.961 1_655 S
C783 C780 1.539 . S
C783 H797 0.958 . S
C783 H798 0.961 . S
C783 H799 0.960 1_556 S
H784 C768 0.931 . S
H785 C773 0.929 . S
H786 C774 0.960 . S
H787 C774 0.962 . S
H788 C774 0.960 . S
H789 C775 0.961 . S
H790 C775 0.961 . S
H791 C775 0.961 . S
H792 C776 0.931 1_455 S
H793 C781 0.930 . S
H794 C782 0.956 . S
H795 C782 0.961 . S
H796 C782 0.961 1_455 S
H797 C783 0.958 . S
H798 C783 0.961 . S
H799 C783 0.960 1_554 S
C800 C801 1.391 . S
C800 C802 1.394 . S
C800 H816 0.931 . S
C801 C800 1.391 . S
C801 C805 1.376 . S
C802 C800 1.394 . S
C802 C803 1.369 . S
C802 C806 1.531 . S
C803 C802 1.369 . S
C803 C804 1.410 . S
C803 C811 1.503 . S
C804 C803 1.410 . S
C804 C805 1.392 . S
C804 C807 1.511 . S
C805 C801 1.376 . S
C805 C804 1.392 . S
C805 H817 0.929 . S
C806 C802 1.531 . S
C806 H818 0.960 . S
C806 H819 0.962 . S
C806 H820 0.960 . S
C807 C804 1.511 . S
C807 H821 0.961 . S
C807 H822 0.961 . S
C807 H823 0.961 . S
C808 C809 1.370 . S
C808 C810 1.363 . S
C808 H824 0.931 . S
C809 C808 1.370 . S
C809 C813 1.408 . S
C810 C808 1.363 . S
C810 C811 1.370 . S
C810 C814 1.524 . S
C811 C803 1.503 . S
C811 C810 1.370 . S
C811 C812 1.403 . S
C812 C811 1.403 . S
C812 C813 1.404 . S
C812 C815 1.539 . S
C813 C809 1.408 . S
C813 C812 1.404 . S
C813 H825 0.930 . S
C814 C810 1.524 . S
C814 H826 0.956 . S
C814 H827 0.961 . S
C814 H828 0.961 . S
C815 C812 1.539 . S
C815 H829 0.958 . S
C815 H830 0.961 1_655 S
C815 H831 0.960 . S
H816 C800 0.931 . S
H817 C805 0.929 . S
H818 C806 0.960 . S
H819 C806 0.962 . S
H820 C806 0.960 . S
H821 C807 0.961 . S
H822 C807 0.961 . S
H823 C807 0.961 . S
H824 C808 0.931 . S
H825 C813 0.930 . S
H826 C814 0.956 . S
H827 C814 0.961 . S
H828 C814 0.961 . S
H829 C815 0.958 . S
H830 C815 0.961 1_455 S
H831 C815 0.960 . S
C832 C833 1.391 . S
C832 C834 1.394 . S
C832 H848 0.931 . S
C833 C832 1.391 . S
C833 C837 1.376 . S
C834 C832 1.394 . S
C834 C835 1.369 . S
C834 C838 1.531 . S
C835 C834 1.369 . S
C835 C836 1.410 . S
C835 C843 1.503 . S
C836 C835 1.410 . S
C836 C837 1.392 . S
C836 C839 1.511 . S
C837 C833 1.376 . S
C837 C836 1.392 . S
C837 H849 0.929 . S
C838 C834 1.531 . S
C838 H850 0.960 . S
C838 H851 0.962 . S
C838 H852 0.960 . S
C839 C836 1.511 . S
C839 H853 0.961 . S
C839 H854 0.961 . S
C839 H855 0.961 . S
C840 C841 1.370 . S
C840 C842 1.363 . S
C840 H856 0.931 . S
C841 C840 1.370 . S
C841 C845 1.408 . S
C842 C840 1.363 . S
C842 C843 1.370 . S
C842 C846 1.524 . S
C843 C835 1.503 . S
C843 C842 1.370 . S
C843 C844 1.403 . S
C844 C843 1.403 . S
C844 C845 1.404 . S
C844 C847 1.539 . S
C845 C841 1.408 . S
C845 C844 1.404 . S
C845 H857 0.930 . S
C846 C842 1.524 . S
C846 H858 0.956 . S
C846 H859 0.961 . S
C846 H860 0.961 . S
C847 C844 1.539 . S
C847 H861 0.958 . S
C847 H862 0.961 . S
C847 H863 0.960 . S
H848 C832 0.931 . S
H849 C837 0.929 . S
H850 C838 0.960 . S
H851 C838 0.962 . S
H852 C838 0.960 . S
H853 C839 0.961 . S
H854 C839 0.961 . S
H855 C839 0.961 . S
H856 C840 0.931 . S
H857 C845 0.930 . S
H858 C846 0.956 . S
H859 C846 0.961 . S
H860 C846 0.961 . S
H861 C847 0.958 . S
H862 C847 0.961 . S
H863 C847 0.960 . S
C864 C865 1.391 . S
C864 C866 1.394 . S
C864 H880 0.931 . S
C865 C864 1.391 . S
C865 C869 1.376 . S
C866 C864 1.394 . S
C866 C867 1.369 . S
C866 C870 1.531 . S
C867 C866 1.369 . S
C867 C868 1.410 . S
C867 C875 1.503 . S
C868 C867 1.410 . S
C868 C869 1.392 . S
C868 C871 1.511 . S
C869 C865 1.376 . S
C869 C868 1.392 . S
C869 H881 0.929 . S
C870 C866 1.531 . S
C870 H882 0.960 . S
C870 H883 0.962 . S
C870 H884 0.960 . S
C871 C868 1.511 . S
C871 H885 0.961 . S
C871 H886 0.961 . S
C871 H887 0.961 . S
C872 C873 1.370 . S
C872 C874 1.363 . S
C872 H888 0.931 . S
C873 C872 1.370 . S
C873 C877 1.408 . S
C874 C872 1.363 . S
C874 C875 1.370 . S
C874 C878 1.524 . S
C875 C867 1.503 . S
C875 C874 1.370 . S
C875 C876 1.403 . S
C876 C875 1.403 . S
C876 C877 1.404 . S
C876 C879 1.539 . S
C877 C873 1.408 . S
C877 C876 1.404 . S
C877 H889 0.930 . S
C878 C874 1.524 . S
C878 H890 0.956 . S
C878 H891 0.961 . S
C878 H892 0.961 . S
C879 C876 1.539 . S
C879 H893 0.958 . S
C879 H894 0.961 . S
C879 H895 0.960 . S
H880 C864 0.931 . S
H881 C869 0.929 . S
H882 C870 0.960 . S
H883 C870 0.962 . S
H884 C870 0.960 . S
H885 C871 0.961 . S
H886 C871 0.961 . S
H887 C871 0.961 . S
H888 C872 0.931 . S
H889 C877 0.930 . S
H890 C878 0.956 . S
H891 C878 0.961 . S
H892 C878 0.961 . S
H893 C879 0.958 . S
H894 C879 0.961 . S
H895 C879 0.960 . S
C896 C897 1.391 . S
C896 C898 1.394 . S
C896 H912 0.931 . S
C897 C896 1.391 . S
C897 C901 1.376 . S
C898 C896 1.394 . S
C898 C899 1.369 . S
C898 C902 1.531 . S
C899 C898 1.369 . S
C899 C900 1.410 . S
C899 C907 1.503 . S
C900 C899 1.410 . S
C900 C901 1.392 . S
C900 C903 1.511 . S
C901 C897 1.376 . S
C901 C900 1.392 . S
C901 H913 0.929 . S
C902 C898 1.531 . S
C902 H914 0.960 . S
C902 H915 0.962 . S
C902 H916 0.960 . S
C903 C900 1.511 . S
C903 H917 0.961 . S
C903 H918 0.961 . S
C903 H919 0.961 . S
C904 C905 1.370 . S
C904 C906 1.363 . S
C904 H920 0.931 . S
C905 C904 1.370 . S
C905 C909 1.408 . S
C906 C904 1.363 . S
C906 C907 1.370 . S
C906 C910 1.524 . S
C907 C899 1.503 . S
C907 C906 1.370 . S
C907 C908 1.403 . S
C908 C907 1.403 . S
C908 C909 1.404 . S
C908 C911 1.539 . S
C909 C905 1.408 . S
C909 C908 1.404 . S
C909 H921 0.930 . S
C910 C906 1.524 . S
C910 H922 0.956 . S
C910 H923 0.961 . S
C910 H924 0.961 . S
C911 C908 1.539 . S
C911 H925 0.958 . S
C911 H926 0.961 . S
C911 H927 0.960 . S
H912 C896 0.931 . S
H913 C901 0.929 . S
H914 C902 0.960 . S
H915 C902 0.962 . S
H916 C902 0.960 . S
H917 C903 0.961 . S
H918 C903 0.961 . S
H919 C903 0.961 . S
H920 C904 0.931 . S
H921 C909 0.930 . S
H922 C910 0.956 . S
H923 C910 0.961 . S
H924 C910 0.961 . S
H925 C911 0.958 . S
H926 C911 0.961 . S
H927 C911 0.960 . S
C928 C929 1.391 . S
C928 C930 1.394 . S
C928 H944 0.931 . S
C929 C928 1.391 . S
C929 C933 1.376 . S
C930 C928 1.394 . S
C930 C931 1.369 . S
C930 C934 1.531 . S
C931 C930 1.369 . S
C931 C932 1.410 . S
C931 C939 1.503 . S
C932 C931 1.410 . S
C932 C933 1.392 . S
C932 C935 1.511 . S
C933 C929 1.376 . S
C933 C932 1.392 . S
C933 H945 0.929 . S
C934 C930 1.531 . S
C934 H946 0.960 . S
C934 H947 0.962 . S
C934 H948 0.960 . S
C935 C932 1.511 . S
C935 H949 0.961 . S
C935 H950 0.961 . S
C935 H951 0.961 . S
C936 C937 1.370 . S
C936 C938 1.363 . S
C936 H952 0.931 . S
C937 C936 1.370 . S
C937 C941 1.408 . S
C938 C936 1.363 . S
C938 C939 1.370 . S
C938 C942 1.524 . S
C939 C931 1.503 . S
C939 C938 1.370 . S
C939 C940 1.403 . S
C940 C939 1.403 . S
C940 C941 1.404 . S
C940 C943 1.539 . S
C941 C937 1.408 . S
C941 C940 1.404 . S
C941 H953 0.930 . S
C942 C938 1.524 . S
C942 H954 0.956 . S
C942 H955 0.961 . S
C942 H956 0.961 . S
C943 C940 1.539 . S
C943 H957 0.958 . S
C943 H958 0.961 . S
C943 H959 0.960 . S
H944 C928 0.931 . S
H945 C933 0.929 . S
H946 C934 0.960 . S
H947 C934 0.962 . S
H948 C934 0.960 . S
H949 C935 0.961 . S
H950 C935 0.961 . S
H951 C935 0.961 . S
H952 C936 0.931 . S
H953 C941 0.930 . S
H954 C942 0.956 . S
H955 C942 0.961 . S
H956 C942 0.961 . S
H957 C943 0.958 . S
H958 C943 0.961 . S
H959 C943 0.960 . S
C960 C961 1.391 . S
C960 C962 1.381 1_554 S
C960 H976 0.931 1_655 S
C961 C960 1.391 . S
C961 C965 1.376 . S
C962 C960 1.381 1_556 S
C962 C963 1.371 . S
C962 C966 1.541 . S
C963 C962 1.371 . S
C963 C964 1.410 1_556 S
C963 C971 1.503 . S
C964 C963 1.410 1_554 S
C964 C965 1.392 . S
C964 C967 1.511 . S
C965 C961 1.376 . S
C965 C964 1.392 . S
C965 H977 0.929 . S
C966 C962 1.541 . S
C966 H978 0.960 . S
C966 H979 0.962 . S
C966 H980 0.960 1_655 S
C967 C964 1.511 . S
C967 H981 0.961 . S
C967 H982 0.961 1_554 S
C967 H983 0.961 . S
C968 C969 1.370 . S
C968 C970 1.363 . S
C968 H984 0.931 . S
C969 C968 1.370 . S
C969 C973 1.408 . S
C970 C968 1.363 . S
C970 C971 1.370 . S
C970 C974 1.524 . S
C971 C963 1.503 . S
C971 C970 1.370 . S
C971 C972 1.403 . S
C972 C971 1.403 . S
C972 C973 1.404 . S
C972 C975 1.539 . S
C973 C969 1.408 . S
C973 C972 1.404 . S
C973 H985 0.930 . S
C974 C970 1.524 . S
C974 H986 0.956 . S
C974 H987 0.961 . S
C974 H988 0.961 . S
C975 C972 1.539 . S
C975 H989 0.958 . S
C975 H990 0.961 . S
C975 H991 0.960 1_556 S
H976 C960 0.931 1_455 S
H977 C965 0.929 . S
H978 C966 0.960 . S
H979 C966 0.962 . S
H980 C966 0.960 1_455 S
H981 C967 0.961 . S
H982 C967 0.961 1_556 S
H983 C967 0.961 . S
H984 C968 0.931 . S
H985 C973 0.930 . S
H986 C974 0.956 . S
H987 C974 0.961 . S
H988 C974 0.961 . S
H989 C975 0.958 . S
H990 C975 0.961 . S
H991 C975 0.960 1_554 S
C992 C993 1.391 . S
C992 C994 1.394 . S
C992 H1008 0.931 . S
C993 C992 1.391 . S
C993 C997 1.376 . S
C994 C992 1.394 . S
C994 C995 1.369 . S
C994 C998 1.531 . S
C995 C994 1.369 . S
C995 C996 1.410 . S
C995 C1003 1.503 . S
C996 C995 1.410 . S
C996 C997 1.392 . S
C996 C999 1.511 . S
C997 C993 1.376 . S
C997 C996 1.392 . S
C997 H1009 0.929 . S
C998 C994 1.531 . S
C998 H1010 0.960 . S
C998 H1011 0.962 . S
C998 H1012 0.960 . S
C999 C996 1.511 . S
C999 H1013 0.961 . S
C999 H1014 0.961 . S
C999 H1015 0.961 . S
C1000 C1001 1.370 . S
C1000 C1002 1.363 . S
C1000 H1016 0.931 . S
C1001 C1000 1.370 . S
C1001 C1005 1.408 . S
C1002 C1000 1.363 . S
C1002 C1003 1.370 . S
C1002 C1006 1.524 . S
C1003 C995 1.503 . S
C1003 C1002 1.370 . S
C1003 C1004 1.403 . S
C1004 C1003 1.403 . S
C1004 C1005 1.404 . S
C1004 C1007 1.539 . S
C1005 C1001 1.408 . S
C1005 C1004 1.404 . S
C1005 H1017 0.930 . S
C1006 C1002 1.524 . S
C1006 H1018 0.956 . S
C1006 H1019 0.961 . S
C1006 H1020 0.961 . S
C1007 C1004 1.539 . S
C1007 H1021 0.958 . S
C1007 H1022 0.961 . S
C1007 H1023 0.960 . S
H1008 C992 0.931 . S
H1009 C997 0.929 . S
H1010 C998 0.960 . S
H1011 C998 0.962 . S
H1012 C998 0.960 . S
H1013 C999 0.961 . S
H1014 C999 0.961 . S
H1015 C999 0.961 . S
H1016 C1000 0.931 . S
H1017 C1005 0.930 . S
H1018 C1006 0.956 . S
H1019 C1006 0.961 . S
H1020 C1006 0.961 . S
H1021 C1007 0.958 . S
H1022 C1007 0.961 . S
H1023 C1007 0.960 . S
C1024 C1025 1.391 . S
C1024 C1026 1.394 . S
C1024 H1040 0.931 . S
C1025 C1024 1.391 . S
C1025 C1029 1.376 . S
C1026 C1024 1.394 . S
C1026 C1027 1.369 . S
C1026 C1030 1.531 . S
C1027 C1026 1.369 . S
C1027 C1028 1.410 . S
C1027 C1035 1.503 . S
C1028 C1027 1.410 . S
C1028 C1029 1.392 . S
C1028 C1031 1.511 . S
C1029 C1025 1.376 . S
C1029 C1028 1.392 . S
C1029 H1041 0.929 . S
C1030 C1026 1.531 . S
C1030 H1042 0.960 . S
C1030 H1043 0.962 . S
C1030 H1044 0.960 . S
C1031 C1028 1.511 . S
C1031 H1045 0.961 . S
C1031 H1046 0.961 . S
C1031 H1047 0.961 . S
C1032 C1033 1.370 . S
C1032 C1034 1.363 . S
C1032 H1048 0.931 . S
C1033 C1032 1.370 . S
C1033 C1037 1.408 . S
C1034 C1032 1.363 . S
C1034 C1035 1.370 . S
C1034 C1038 1.524 . S
C1035 C1027 1.503 . S
C1035 C1034 1.370 . S
C1035 C1036 1.403 . S
C1036 C1035 1.403 . S
C1036 C1037 1.404 . S
C1036 C1039 1.539 . S
C1037 C1033 1.408 . S
C1037 C1036 1.404 . S
C1037 H1049 0.930 . S
C1038 C1034 1.524 . S
C1038 H1050 0.956 . S
C1038 H1051 0.961 . S
C1038 H1052 0.961 . S
C1039 C1036 1.539 . S
C1039 H1053 0.958 . S
C1039 H1054 0.961 . S
C1039 H1055 0.960 . S
H1040 C1024 0.931 . S
H1041 C1029 0.929 . S
H1042 C1030 0.960 . S
H1043 C1030 0.962 . S
H1044 C1030 0.960 . S
H1045 C1031 0.961 . S
H1046 C1031 0.961 . S
H1047 C1031 0.961 . S
H1048 C1032 0.931 . S
H1049 C1037 0.930 . S
H1050 C1038 0.956 . S
H1051 C1038 0.961 . S
H1052 C1038 0.961 . S
H1053 C1039 0.958 . S
H1054 C1039 0.961 . S
H1055 C1039 0.960 . S
C1056 C1057 1.391 . S
C1056 C1058 1.394 . S
C1056 H1072 0.931 . S
C1057 C1056 1.391 . S
C1057 C1061 1.376 . S
C1058 C1056 1.394 . S
C1058 C1059 1.369 . S
C1058 C1062 1.531 . S
C1059 C1058 1.369 . S
C1059 C1060 1.410 . S
C1059 C1067 1.503 . S
C1060 C1059 1.410 . S
C1060 C1061 1.392 . S
C1060 C1063 1.511 . S
C1061 C1057 1.376 . S
C1061 C1060 1.392 . S
C1061 H1073 0.929 . S
C1062 C1058 1.531 . S
C1062 H1074 0.960 . S
C1062 H1075 0.962 . S
C1062 H1076 0.960 . S
C1063 C1060 1.511 . S
C1063 H1077 0.961 . S
C1063 H1078 0.961 . S
C1063 H1079 0.961 . S
C1064 C1065 1.370 . S
C1064 C1066 1.363 . S
C1064 H1080 0.931 . S
C1065 C1064 1.370 . S
C1065 C1069 1.408 . S
C1066 C1064 1.363 . S
C1066 C1067 1.370 . S
C1066 C1070 1.524 . S
C1067 C1059 1.503 . S
C1067 C1066 1.370 . S
C1067 C1068 1.403 . S
C1068 C1067 1.403 . S
C1068 C1069 1.404 . S
C1068 C1071 1.539 . S
C1069 C1065 1.408 . S
C1069 C1068 1.404 . S
C1069 H1081 0.930 . S
C1070 C1066 1.524 . S
C1070 H1082 0.956 . S
C1070 H1083 0.961 . S
C1070 H1084 0.961 . S
C1071 C1068 1.539 . S
C1071 H1085 0.958 . S
C1071 H1086 0.961 . S
C1071 H1087 0.960 . S
H1072 C1056 0.931 . S
H1073 C1061 0.929 . S
H1074 C1062 0.960 . S
H1075 C1062 0.962 . S
H1076 C1062 0.960 . S
H1077 C1063 0.961 . S
H1078 C1063 0.961 . S
H1079 C1063 0.961 . S
H1080 C1064 0.931 . S
H1081 C1069 0.930 . S
H1082 C1070 0.956 . S
H1083 C1070 0.961 . S
H1084 C1070 0.961 . S
H1085 C1071 0.958 . S
H1086 C1071 0.961 . S
H1087 C1071 0.960 . S
C1088 C1089 1.391 . S
C1088 C1090 1.394 . S
C1088 H1104 0.931 . S
C1089 C1088 1.391 . S
C1089 C1093 1.376 . S
C1090 C1088 1.394 . S
C1090 C1091 1.369 . S
C1090 C1094 1.531 . S
C1091 C1090 1.369 . S
C1091 C1092 1.410 . S
C1091 C1099 1.503 . S
C1092 C1091 1.410 . S
C1092 C1093 1.392 . S
C1092 C1095 1.511 . S
C1093 C1089 1.376 . S
C1093 C1092 1.392 . S
C1093 H1105 0.929 . S
C1094 C1090 1.531 . S
C1094 H1106 0.960 . S
C1094 H1107 0.962 . S
C1094 H1108 0.960 . S
C1095 C1092 1.511 . S
C1095 H1109 0.961 . S
C1095 H1110 0.961 . S
C1095 H1111 0.961 . S
C1096 C1097 1.370 . S
C1096 C1098 1.363 1_556 S
C1096 H1112 0.931 . S
C1097 C1096 1.370 . S
C1097 C1101 1.408 1_556 S
C1098 C1096 1.363 1_554 S
C1098 C1099 1.370 . S
C1098 C1102 1.524 . S
C1099 C1091 1.503 . S
C1099 C1098 1.370 . S
C1099 C1100 1.403 . S
C1100 C1099 1.403 . S
C1100 C1101 1.404 . S
C1100 C1103 1.539 . S
C1101 C1097 1.408 1_554 S
C1101 C1100 1.404 . S
C1101 H1113 0.934 . S
C1102 C1098 1.524 . S
C1102 H1114 0.956 . S
C1102 H1115 0.961 . S
C1102 H1116 0.961 . S
C1103 C1100 1.539 . S
C1103 H1117 0.958 . S
C1103 H1118 0.961 . S
C1103 H1119 0.960 . S
H1104 C1088 0.931 . S
H1105 C1093 0.929 . S
H1106 C1094 0.960 . S
H1107 C1094 0.962 . S
H1108 C1094 0.960 . S
H1109 C1095 0.961 . S
H1110 C1095 0.961 . S
H1111 C1095 0.961 . S
H1112 C1096 0.931 . S
H1113 C1101 0.934 . S
H1114 C1102 0.956 . S
H1115 C1102 0.961 . S
H1116 C1102 0.961 . S
H1117 C1103 0.958 . S
H1118 C1103 0.961 . S
H1119 C1103 0.960 . S
C1120 C1121 1.391 . S
C1120 C1122 1.394 . S
C1120 H1136 0.931 . S
C1121 C1120 1.391 . S
C1121 C1125 1.376 . S
C1122 C1120 1.394 . S
C1122 C1123 1.369 . S
C1122 C1126 1.531 . S
C1123 C1122 1.369 . S
C1123 C1124 1.410 . S
C1123 C1131 1.503 . S
C1124 C1123 1.410 . S
C1124 C1125 1.392 . S
C1124 C1127 1.511 . S
C1125 C1121 1.376 . S
C1125 C1124 1.392 . S
C1125 H1137 0.929 . S
C1126 C1122 1.531 . S
C1126 H1138 0.960 . S
C1126 H1139 0.962 . S
C1126 H1140 0.960 . S
C1127 C1124 1.511 . S
C1127 H1141 0.961 . S
C1127 H1142 0.961 . S
C1127 H1143 0.961 . S
C1128 C1129 1.370 . S
C1128 C1130 1.363 . S
C1128 H1144 0.931 . S
C1129 C1128 1.370 . S
C1129 C1133 1.408 . S
C1130 C1128 1.363 . S
C1130 C1131 1.370 . S
C1130 C1134 1.524 . S
C1131 C1123 1.503 . S
C1131 C1130 1.370 . S
C1131 C1132 1.403 . S
C1132 C1131 1.403 . S
C1132 C1133 1.404 . S
C1132 C1135 1.539 . S
C1133 C1129 1.408 . S
C1133 C1132 1.404 . S
C1133 H1145 0.930 . S
C1134 C1130 1.524 . S
C1134 H1146 0.956 . S
C1134 H1147 0.961 . S
C1134 H1148 0.961 . S
C1135 C1132 1.539 . S
C1135 H1149 0.958 . S
C1135 H1150 0.961 . S
C1135 H1151 0.960 . S
H1136 C1120 0.931 . S
H1137 C1125 0.929 . S
H1138 C1126 0.960 . S
H1139 C1126 0.962 . S
H1140 C1126 0.960 . S
H1141 C1127 0.961 . S
H1142 C1127 0.961 . S
H1143 C1127 0.961 . S
H1144 C1128 0.931 . S
H1145 C1133 0.930 . S
H1146 C1134 0.956 . S
H1147 C1134 0.961 . S
H1148 C1134 0.961 . S
H1149 C1135 0.958 . S
H1150 C1135 0.961 . S
H1151 C1135 0.960 . S
C1152 C1153 1.391 . S
C1152 C1154 1.394 . S
C1152 H1168 0.931 . S
C1153 C1152 1.391 . S
C1153 C1157 1.376 1_455 S
C1154 C1152 1.394 . S
C1154 C1155 1.369 . S
C1154 C1158 1.531 . S
C1155 C1154 1.369 . S
C1155 C1156 1.410 1_455 S
C1155 C1163 1.503 . S
C1156 C1155 1.410 1_655 S
C1156 C1157 1.392 . S
C1156 C1159 1.511 . S
C1157 C1153 1.376 1_655 S
C1157 C1156 1.392 . S
C1157 H1169 0.929 . S
C1158 C1154 1.531 . S
C1158 H1170 0.960 . S
C1158 H1171 0.962 . S
C1158 H1172 0.960 . S
C1159 C1156 1.511 . S
C1159 H1173 0.961 . S
C1159 H1174 0.961 . S
C1159 H1175 0.961 . S
C1160 C1161 1.370 1_655 S
C1160 C1162 1.363 . S
C1160 H1176 0.931 . S
C1161 C1160 1.370 1_455 S
C1161 C1165 1.408 . S
C1162 C1160 1.363 . S
C1162 C1163 1.370 1_655 S
C1162 C1166 1.524 . S
C1163 C1155 1.503 . S
C1163 C1162 1.370 1_455 S
C1163 C1164 1.403 . S
C1164 C1163 1.403 . S
C1164 C1165 1.404 . S
C1164 C1167 1.539 . S
C1165 C1161 1.408 . S
C1165 C1164 1.404 . S
C1165 H1177 0.930 . S
C1166 C1162 1.524 . S
C1166 H1178 0.956 . S
C1166 H1179 0.961 . S
C1166 H1180 0.961 . S
C1167 C1164 1.539 . S
C1167 H1181 0.958 . S
C1167 H1182 0.961 . S
C1167 H1183 0.960 . S
H1168 C1152 0.931 . S
H1169 C1157 0.929 . S
H1170 C1158 0.960 . S
H1171 C1158 0.962 . S
H1172 C1158 0.960 . S
H1173 C1159 0.961 . S
H1174 C1159 0.961 . S
H1175 C1159 0.961 . S
H1176 C1160 0.931 . S
H1177 C1165 0.930 . S
H1178 C1166 0.956 . S
H1179 C1166 0.961 . S
H1180 C1166 0.961 . S
H1181 C1167 0.958 . S
H1182 C1167 0.961 . S
H1183 C1167 0.960 . S
C1184 C1185 1.391 . S
C1184 C1186 1.394 . S
C1184 H1200 0.931 . S
C1185 C1184 1.391 . S
C1185 C1189 1.376 . S
C1186 C1184 1.394 . S
C1186 C1187 1.369 1_655 S
C1186 C1190 1.531 1_655 S
C1187 C1186 1.369 1_455 S
C1187 C1188 1.410 1_455 S
C1187 C1195 1.503 . S
C1188 C1187 1.410 1_655 S
C1188 C1189 1.392 . S
C1188 C1191 1.511 1_655 S
C1189 C1185 1.376 . S
C1189 C1188 1.392 . S
C1189 H1201 0.929 . S
C1190 C1186 1.531 1_455 S
C1190 H1202 0.960 . S
C1190 H1203 0.962 . S
C1190 H1204 0.960 1_455 S
C1191 C1188 1.511 1_455 S
C1191 H1205 0.961 1_455 S
C1191 H1206 0.961 . S
C1191 H1207 0.961 . S
C1192 C1193 1.370 . S
C1192 C1194 1.363 . S
C1192 H1208 0.931 . S
C1193 C1192 1.370 . S
C1193 C1197 1.408 . S
C1194 C1192 1.363 . S
C1194 C1195 1.370 . S
C1194 C1198 1.524 . S
C1195 C1187 1.503 . S
C1195 C1194 1.370 . S
C1195 C1196 1.403 . S
C1196 C1195 1.403 . S
C1196 C1197 1.404 . S
C1196 C1199 1.539 . S
C1197 C1193 1.408 . S
C1197 C1196 1.404 . S
C1197 H1209 0.930 . S
C1198 C1194 1.524 . S
C1198 H1210 0.956 . S
C1198 H1211 0.961 . S
C1198 H1212 0.961 . S
C1199 C1196 1.539 . S
C1199 H1213 0.958 . S
C1199 H1214 0.961 . S
C1199 H1215 0.960 . S
H1200 C1184 0.931 . S
H1201 C1189 0.929 . S
H1202 C1190 0.960 . S
H1203 C1190 0.962 . S
H1204 C1190 0.960 1_655 S
H1205 C1191 0.961 1_655 S
H1206 C1191 0.961 . S
H1207 C1191 0.961 . S
H1208 C1192 0.931 . S
H1209 C1197 0.930 . S
H1210 C1198 0.956 . S
H1211 C1198 0.961 . S
H1212 C1198 0.961 . S
H1213 C1199 0.958 . S
H1214 C1199 0.961 . S
H1215 C1199 0.960 . S
C1216 C1217 1.391 . S
C1216 C1218 1.394 . S
C1216 H1232 0.931 . S
C1217 C1216 1.391 . S
C1217 C1221 1.376 . S
C1218 C1216 1.394 . S
C1218 C1219 1.369 . S
C1218 C1222 1.531 . S
C1219 C1218 1.369 . S
C1219 C1220 1.410 . S
C1219 C1227 1.503 . S
C1220 C1219 1.410 . S
C1220 C1221 1.392 . S
C1220 C1223 1.511 . S
C1221 C1217 1.376 . S
C1221 C1220 1.392 . S
C1221 H1233 0.929 . S
C1222 C1218 1.531 . S
C1222 H1234 0.960 . S
C1222 H1235 0.962 . S
C1222 H1236 0.960 . S
C1223 C1220 1.511 . S
C1223 H1237 0.961 . S
C1223 H1238 0.961 . S
C1223 H1239 0.961 . S
C1224 C1225 1.370 . S
C1224 C1226 1.363 . S
C1224 H1240 0.931 . S
C1225 C1224 1.370 . S
C1225 C1229 1.408 . S
C1226 C1224 1.363 . S
C1226 C1227 1.370 . S
C1226 C1230 1.524 . S
C1227 C1219 1.503 . S
C1227 C1226 1.370 . S
C1227 C1228 1.403 . S
C1228 C1227 1.403 . S
C1228 C1229 1.404 . S
C1228 C1231 1.539 . S
C1229 C1225 1.408 . S
C1229 C1228 1.404 . S
C1229 H1241 0.930 . S
C1230 C1226 1.524 . S
C1230 H1242 0.956 . S
C1230 H1243 0.961 . S
C1230 H1244 0.961 . S
C1231 C1228 1.539 . S
C1231 H1245 0.958 . S
C1231 H1246 0.961 . S
C1231 H1247 0.960 . S
H1232 C1216 0.931 . S
H1233 C1221 0.929 . S
H1234 C1222 0.960 . S
H1235 C1222 0.962 . S
H1236 C1222 0.960 . S
H1237 C1223 0.961 . S
H1238 C1223 0.961 . S
H1239 C1223 0.961 . S
H1240 C1224 0.931 . S
H1241 C1229 0.930 . S
H1242 C1230 0.956 . S
H1243 C1230 0.961 . S
H1244 C1230 0.961 . S
H1245 C1231 0.958 . S
H1246 C1231 0.961 . S
H1247 C1231 0.960 . S
C1248 C1249 1.391 . S
C1248 C1250 1.394 . S
C1248 H1264 0.931 . S
C1249 C1248 1.391 . S
C1249 C1253 1.376 . S
C1250 C1248 1.394 . S
C1250 C1251 1.369 . S
C1250 C1254 1.531 . S
C1251 C1250 1.369 . S
C1251 C1252 1.410 . S
C1251 C1259 1.503 . S
C1252 C1251 1.410 . S
C1252 C1253 1.392 . S
C1252 C1255 1.511 . S
C1253 C1249 1.376 . S
C1253 C1252 1.392 . S
C1253 H1265 0.929 . S
C1254 C1250 1.531 . S
C1254 H1266 0.960 . S
C1254 H1267 0.962 . S
C1254 H1268 0.960 . S
C1255 C1252 1.511 . S
C1255 H1269 0.961 . S
C1255 H1270 0.961 . S
C1255 H1271 0.961 . S
C1256 C1257 1.370 . S
C1256 C1258 1.363 . S
C1256 H1272 0.931 . S
C1257 C1256 1.370 . S
C1257 C1261 1.408 . S
C1258 C1256 1.363 . S
C1258 C1259 1.370 . S
C1258 C1262 1.524 . S
C1259 C1251 1.503 . S
C1259 C1258 1.370 . S
C1259 C1260 1.403 . S
C1260 C1259 1.403 . S
C1260 C1261 1.404 . S
C1260 C1263 1.539 . S
C1261 C1257 1.408 . S
C1261 C1260 1.404 . S
C1261 H1273 0.930 . S
C1262 C1258 1.524 . S
C1262 H1274 0.956 . S
C1262 H1275 0.961 . S
C1262 H1276 0.961 . S
C1263 C1260 1.539 . S
C1263 H1277 0.958 . S
C1263 H1278 0.961 . S
C1263 H1279 0.960 . S
H1264 C1248 0.931 . S
H1265 C1253 0.929 . S
H1266 C1254 0.960 . S
H1267 C1254 0.962 . S
H1268 C1254 0.960 . S
H1269 C1255 0.961 . S
H1270 C1255 0.961 . S
H1271 C1255 0.961 . S
H1272 C1256 0.931 . S
H1273 C1261 0.930 . S
H1274 C1262 0.956 . S
H1275 C1262 0.961 . S
H1276 C1262 0.961 . S
H1277 C1263 0.958 . S
H1278 C1263 0.961 . S
H1279 C1263 0.960 . S
C1280 C1281 1.391 1_655 S
C1280 C1282 1.394 . S
C1280 H1296 0.931 . S
C1281 C1280 1.391 1_455 S
C1281 C1285 1.376 . S
C1282 C1280 1.394 . S
C1282 C1283 1.369 1_655 S
C1282 C1286 1.531 . S
C1283 C1282 1.369 1_455 S
C1283 C1284 1.410 . S
C1283 C1291 1.503 . S
C1284 C1283 1.410 . S
C1284 C1285 1.392 . S
C1284 C1287 1.511 . S
C1285 C1281 1.376 . S
C1285 C1284 1.392 . S
C1285 H1297 0.929 . S
C1286 C1282 1.531 . S
C1286 H1298 0.960 . S
C1286 H1299 0.962 . S
C1286 H1300 0.960 . S
C1287 C1284 1.511 . S
C1287 H1301 0.961 . S
C1287 H1302 0.961 . S
C1287 H1303 0.961 . S
C1288 C1289 1.370 . S
C1288 C1290 1.363 . S
C1288 H1304 0.931 . S
C1289 C1288 1.370 . S
C1289 C1293 1.408 . S
C1290 C1288 1.363 . S
C1290 C1291 1.370 . S
C1290 C1294 1.524 . S
C1291 C1283 1.503 . S
C1291 C1290 1.370 . S
C1291 C1292 1.403 . S
C1292 C1291 1.403 . S
C1292 C1293 1.404 . S
C1292 C1295 1.539 . S
C1293 C1289 1.408 . S
C1293 C1292 1.404 . S
C1293 H1305 0.930 . S
C1294 C1290 1.524 . S
C1294 H1306 0.956 1_455 S
C1294 H1307 0.961 . S
C1294 H1308 0.961 . S
C1295 C1292 1.539 . S
C1295 H1309 0.987 . S
C1295 H1310 0.961 . S
C1295 H1311 0.960 . S
H1296 C1280 0.931 . S
H1297 C1285 0.929 . S
H1298 C1286 0.960 . S
H1299 C1286 0.962 . S
H1300 C1286 0.960 . S
H1301 C1287 0.961 . S
H1302 C1287 0.961 . S
H1303 C1287 0.961 . S
H1304 C1288 0.931 . S
H1305 C1293 0.930 . S
H1306 C1294 0.956 1_655 S
H1307 C1294 0.961 . S
H1308 C1294 0.961 . S
H1309 C1295 0.987 . S
H1310 C1295 0.961 . S
H1311 C1295 0.960 . S
C1312 C1313 1.391 . S
C1312 C1314 1.394 . S
C1312 H1328 0.931 . S
C1313 C1312 1.391 . S
C1313 C1317 1.376 . S
C1314 C1312 1.394 . S
C1314 C1315 1.369 . S
C1314 C1318 1.531 . S
C1315 C1314 1.369 . S
C1315 C1316 1.410 . S
C1315 C1323 1.503 . S
C1316 C1315 1.410 . S
C1316 C1317 1.392 . S
C1316 C1319 1.511 . S
C1317 C1313 1.376 . S
C1317 C1316 1.392 . S
C1317 H1329 0.929 . S
C1318 C1314 1.531 . S
C1318 H1330 0.960 . S
C1318 H1331 0.962 . S
C1318 H1332 0.960 . S
C1319 C1316 1.511 . S
C1319 H1333 0.961 . S
C1319 H1334 0.961 . S
C1319 H1335 0.961 . S
C1320 C1321 1.370 . S
C1320 C1322 1.363 . S
C1320 H1336 0.931 . S
C1321 C1320 1.370 . S
C1321 C1325 1.408 . S
C1322 C1320 1.363 . S
C1322 C1323 1.370 . S
C1322 C1326 1.524 . S
C1323 C1315 1.503 . S
C1323 C1322 1.370 . S
C1323 C1324 1.403 . S
C1324 C1323 1.403 . S
C1324 C1325 1.404 . S
C1324 C1327 1.539 . S
C1325 C1321 1.408 . S
C1325 C1324 1.404 . S
C1325 H1337 0.930 . S
C1326 C1322 1.524 . S
C1326 H1338 0.956 . S
C1326 H1339 0.961 . S
C1326 H1340 0.961 . S
C1327 C1324 1.539 . S
C1327 H1341 0.958 . S
C1327 H1342 0.961 . S
C1327 H1343 0.960 . S
H1328 C1312 0.931 . S
H1329 C1317 0.929 . S
H1330 C1318 0.960 . S
H1331 C1318 0.962 . S
H1332 C1318 0.960 . S
H1333 C1319 0.961 . S
H1334 C1319 0.961 . S
H1335 C1319 0.961 . S
H1336 C1320 0.931 . S
H1337 C1325 0.930 . S
H1338 C1326 0.956 . S
H1339 C1326 0.961 . S
H1340 C1326 0.961 . S
H1341 C1327 0.958 . S
H1342 C1327 0.961 . S
H1343 C1327 0.960 . S
C1344 C1345 1.391 . S
C1344 C1346 1.394 . S
C1344 H1360 0.931 . S
C1345 C1344 1.391 . S
C1345 C1349 1.376 . S
C1346 C1344 1.394 . S
C1346 C1347 1.369 . S
C1346 C1350 1.531 . S
C1347 C1346 1.369 . S
C1347 C1348 1.410 . S
C1347 C1355 1.503 . S
C1348 C1347 1.410 . S
C1348 C1349 1.392 . S
C1348 C1351 1.511 . S
C1349 C1345 1.376 . S
C1349 C1348 1.392 . S
C1349 H1361 0.929 . S
C1350 C1346 1.531 . S
C1350 H1362 0.960 . S
C1350 H1363 0.962 . S
C1350 H1364 0.960 . S
C1351 C1348 1.511 . S
C1351 H1365 0.961 . S
C1351 H1366 0.961 . S
C1351 H1367 0.961 . S
C1352 C1353 1.370 . S
C1352 C1354 1.363 . S
C1352 H1368 0.931 . S
C1353 C1352 1.370 . S
C1353 C1357 1.408 . S
C1354 C1352 1.363 . S
C1354 C1355 1.370 . S
C1354 C1358 1.524 . S
C1355 C1347 1.503 . S
C1355 C1354 1.370 . S
C1355 C1356 1.403 . S
C1356 C1355 1.403 . S
C1356 C1357 1.404 . S
C1356 C1359 1.539 . S
C1357 C1353 1.408 . S
C1357 C1356 1.404 . S
C1357 H1369 0.930 . S
C1358 C1354 1.524 . S
C1358 H1370 0.956 . S
C1358 H1371 0.961 . S
C1358 H1372 0.961 . S
C1359 C1356 1.539 . S
C1359 H1373 0.958 . S
C1359 H1374 0.961 . S
C1359 H1375 0.960 . S
H1360 C1344 0.931 . S
H1361 C1349 0.929 . S
H1362 C1350 0.960 . S
H1363 C1350 0.962 . S
H1364 C1350 0.960 . S
H1365 C1351 0.961 . S
H1366 C1351 0.961 . S
H1367 C1351 0.961 . S
H1368 C1352 0.931 . S
H1369 C1357 0.930 . S
H1370 C1358 0.956 . S
H1371 C1358 0.961 . S
H1372 C1358 0.961 . S
H1373 C1359 0.958 . S
H1374 C1359 0.961 . S
H1375 C1359 0.960 . S
C1376 C1377 1.391 . S
C1376 C1378 1.394 . S
C1376 H1392 0.931 . S
C1377 C1376 1.391 . S
C1377 C1381 1.376 . S
C1378 C1376 1.394 . S
C1378 C1379 1.369 . S
C1378 C1382 1.531 1_455 S
C1379 C1378 1.369 . S
C1379 C1380 1.410 . S
C1379 C1387 1.503 1_455 S
C1380 C1379 1.410 . S
C1380 C1381 1.392 . S
C1380 C1383 1.511 . S
C1381 C1377 1.376 . S
C1381 C1380 1.392 . S
C1381 H1393 0.929 . S
C1382 C1378 1.531 1_655 S
C1382 H1394 0.960 . S
C1382 H1395 0.962 . S
C1382 H1396 0.960 . S
C1383 C1380 1.511 . S
C1383 H1397 0.961 . S
C1383 H1398 0.961 . S
C1383 H1399 0.961 . S
C1384 C1385 1.370 . S
C1384 C1386 1.363 . S
C1384 H1400 0.931 . S
C1385 C1384 1.370 . S
C1385 C1389 1.408 . S
C1386 C1384 1.363 . S
C1386 C1387 1.370 . S
C1386 C1390 1.524 . S
C1387 C1379 1.503 1_655 S
C1387 C1386 1.370 . S
C1387 C1388 1.403 . S
C1388 C1387 1.403 . S
C1388 C1389 1.404 . S
C1388 C1391 1.539 1_655 S
C1389 C1385 1.408 . S
C1389 C1388 1.404 . S
C1389 H1401 0.930 . S
C1390 C1386 1.524 . S
C1390 H1402 0.956 . S
C1390 H1403 0.961 1_655 S
C1390 H1404 0.961 . S
C1391 C1388 1.539 1_455 S
C1391 H1405 0.958 . S
C1391 H1406 0.961 . S
C1391 H1407 0.960 . S
H1392 C1376 0.931 . S
H1393 C1381 0.929 . S
H1394 C1382 0.960 . S
H1395 C1382 0.962 . S
H1396 C1382 0.960 . S
H1397 C1383 0.961 . S
H1398 C1383 0.961 . S
H1399 C1383 0.961 . S
H1400 C1384 0.931 . S
H1401 C1389 0.930 . S
H1402 C1390 0.956 . S
H1403 C1390 0.961 1_455 S
H1404 C1390 0.961 . S
H1405 C1391 0.958 . S
H1406 C1391 0.961 . S
H1407 C1391 0.960 . S
C1408 C1409 1.391 1_655 S
C1408 C1410 1.394 . S
C1408 H1424 0.931 . S
C1409 C1408 1.391 1_455 S
C1409 C1413 1.376 . S
C1410 C1408 1.394 . S
C1410 C1411 1.369 1_655 S
C1410 C1414 1.531 1_554 S
C1411 C1410 1.369 1_455 S
C1411 C1412 1.410 . S
C1411 C1419 1.503 1_544 S
C1412 C1411 1.410 . S
C1412 C1413 1.392 . S
C1412 C1415 1.511 1_545 S
C1413 C1409 1.376 . S
C1413 C1412 1.392 . S
C1413 H1425 0.929 . S
C1414 C1410 1.531 1_556 S
C1414 H1426 0.960 . S
C1414 H1427 0.962 . S
C1414 H1428 0.960 . S
C1415 C1412 1.511 1_565 S
C1415 H1429 0.961 . S
C1415 H1430 0.961 . S
C1415 H1431 0.961 1_565 S
C1416 C1417 1.370 1_655 S
C1416 C1418 1.363 . S
C1416 H1432 0.931 . S
C1417 C1416 1.370 1_455 S
C1417 C1421 1.408 . S
C1418 C1416 1.363 . S
C1418 C1419 1.370 1_655 S
C1418 C1422 1.524 1_556 S
C1419 C1411 1.503 1_566 S
C1419 C1418 1.370 1_455 S
C1419 C1420 1.403 1_565 S
C1420 C1419 1.403 1_545 S
C1420 C1421 1.404 1_545 S
C1420 C1423 1.539 . S
C1421 C1417 1.408 . S
C1421 C1420 1.404 1_565 S
C1421 H1433 0.930 . S
C1422 C1418 1.524 1_554 S
C1422 H1434 0.956 . S
C1422 H1435 0.961 . S
C1422 H1436 0.961 . S
C1423 C1420 1.539 . S
C1423 H1437 0.958 . S
C1423 H1438 0.961 . S
C1423 H1439 0.960 . S
H1424 C1408 0.931 . S
H1425 C1413 0.929 . S
H1426 C1414 0.960 . S
H1427 C1414 0.962 . S
H1428 C1414 0.960 . S
H1429 C1415 0.961 . S
H1430 C1415 0.961 . S
H1431 C1415 0.961 1_545 S
H1432 C1416 0.931 . S
H1433 C1421 0.930 . S
H1434 C1422 0.956 . S
H1435 C1422 0.961 . S
H1436 C1422 0.961 . S
H1437 C1423 0.958 . S
H1438 C1423 0.961 . S
H1439 C1423 0.960 . S
C1440 C1441 1.391 . S
C1440 C1442 1.394 . S
C1440 H1456 0.931 . S
C1441 C1440 1.391 . S
C1441 C1445 1.376 . S
C1442 C1440 1.394 . S
C1442 C1443 1.369 . S
C1442 C1446 1.531 . S
C1443 C1442 1.369 . S
C1443 C1444 1.410 . S
C1443 C1451 1.503 . S
C1444 C1443 1.410 . S
C1444 C1445 1.392 . S
C1444 C1447 1.511 . S
C1445 C1441 1.376 . S
C1445 C1444 1.392 . S
C1445 H1457 0.929 . S
C1446 C1442 1.531 . S
C1446 H1458 0.960 . S
C1446 H1459 0.962 . S
C1446 H1460 0.960 . S
C1447 C1444 1.511 . S
C1447 H1461 0.961 . S
C1447 H1462 0.961 . S
C1447 H1463 0.961 . S
C1448 C1449 1.370 . S
C1448 C1450 1.363 . S
C1448 H1464 0.931 . S
C1449 C1448 1.370 . S
C1449 C1453 1.408 . S
C1450 C1448 1.363 . S
C1450 C1451 1.370 . S
C1450 C1454 1.524 . S
C1451 C1443 1.503 . S
C1451 C1450 1.370 . S
C1451 C1452 1.403 . S
C1452 C1451 1.403 . S
C1452 C1453 1.404 . S
C1452 C1455 1.539 . S
C1453 C1449 1.408 . S
C1453 C1452 1.404 . S
C1453 H1465 0.930 . S
C1454 C1450 1.524 . S
C1454 H1466 0.956 . S
C1454 H1467 0.961 . S
C1454 H1468 0.961 . S
C1455 C1452 1.539 . S
C1455 H1469 0.958 . S
C1455 H1470 0.961 . S
C1455 H1471 0.960 . S
H1456 C1440 0.931 . S
H1457 C1445 0.929 . S
H1458 C1446 0.960 . S
H1459 C1446 0.962 . S
H1460 C1446 0.960 . S
H1461 C1447 0.961 . S
H1462 C1447 0.961 . S
H1463 C1447 0.961 . S
H1464 C1448 0.931 . S
H1465 C1453 0.930 . S
H1466 C1454 0.956 . S
H1467 C1454 0.961 . S
H1468 C1454 0.961 . S
H1469 C1455 0.958 . S
H1470 C1455 0.961 . S
H1471 C1455 0.960 . S
C1472 C1473 1.391 . S
C1472 C1474 1.394 . S
C1472 H1488 0.931 . S
C1473 C1472 1.391 . S
C1473 C1477 1.376 . S
C1474 C1472 1.394 . S
C1474 C1475 1.369 . S
C1474 C1478 1.531 . S
C1475 C1474 1.369 . S
C1475 C1476 1.410 . S
C1475 C1483 1.503 1_545 S
C1476 C1475 1.410 . S
C1476 C1477 1.392 . S
C1476 C1479 1.511 1_545 S
C1477 C1473 1.376 . S
C1477 C1476 1.392 . S
C1477 H1489 0.929 . S
C1478 C1474 1.531 . S
C1478 H1490 0.960 . S
C1478 H1491 0.962 . S
C1478 H1492 0.960 . S
C1479 C1476 1.511 1_565 S
C1479 H1493 0.961 . S
C1479 H1494 0.961 . S
C1479 H1495 0.961 1_565 S
C1480 C1481 1.370 . S
C1480 C1482 1.363 . S
C1480 H1496 0.931 . S
C1481 C1480 1.370 . S
C1481 C1485 1.408 . S
C1482 C1480 1.363 . S
C1482 C1483 1.370 . S
C1482 C1486 1.524 . S
C1483 C1475 1.503 1_565 S
C1483 C1482 1.370 . S
C1483 C1484 1.403 1_565 S
C1484 C1483 1.403 1_545 S
C1484 C1485 1.404 1_545 S
C1484 C1487 1.539 . S
C1485 C1481 1.408 . S
C1485 C1484 1.404 1_565 S
C1485 H1497 0.930 . S
C1486 C1482 1.524 . S
C1486 H1498 0.956 . S
C1486 H1499 0.961 . S
C1486 H1500 0.961 . S
C1487 C1484 1.539 . S
C1487 H1501 0.958 . S
C1487 H1502 0.961 . S
C1487 H1503 0.960 . S
H1488 C1472 0.931 . S
H1489 C1477 0.929 . S
H1490 C1478 0.960 . S
H1491 C1478 0.962 . S
H1492 C1478 0.960 . S
H1493 C1479 0.961 . S
H1494 C1479 0.961 . S
H1495 C1479 0.961 1_545 S
H1496 C1480 0.931 . S
H1497 C1485 0.930 . S
H1498 C1486 0.956 . S
H1499 C1486 0.961 . S
H1500 C1486 0.961 . S
H1501 C1487 0.958 . S
H1502 C1487 0.961 . S
H1503 C1487 0.960 . S
C1504 C1505 1.391 . S
C1504 C1506 1.394 . S
C1504 H1520 0.931 . S
C1505 C1504 1.391 . S
C1505 C1509 1.376 . S
C1506 C1504 1.394 . S
C1506 C1507 1.369 . S
C1506 C1510 1.531 . S
C1507 C1506 1.369 . S
C1507 C1508 1.410 . S
C1507 C1515 1.503 . S
C1508 C1507 1.410 . S
C1508 C1509 1.392 . S
C1508 C1511 1.511 . S
C1509 C1505 1.376 . S
C1509 C1508 1.392 . S
C1509 H1521 0.929 . S
C1510 C1506 1.531 . S
C1510 H1522 0.960 . S
C1510 H1523 0.962 . S
C1510 H1524 0.960 . S
C1511 C1508 1.511 . S
C1511 H1525 0.961 . S
C1511 H1526 0.961 . S
C1511 H1527 0.961 . S
C1512 C1513 1.370 . S
C1512 C1514 1.363 . S
C1512 H1528 0.931 . S
C1513 C1512 1.370 . S
C1513 C1517 1.408 . S
C1514 C1512 1.363 . S
C1514 C1515 1.370 . S
C1514 C1518 1.524 . S
C1515 C1507 1.503 . S
C1515 C1514 1.370 . S
C1515 C1516 1.403 . S
C1516 C1515 1.403 . S
C1516 C1517 1.404 . S
C1516 C1519 1.539 . S
C1517 C1513 1.408 . S
C1517 C1516 1.404 . S
C1517 H1529 0.930 . S
C1518 C1514 1.524 . S
C1518 H1530 0.956 . S
C1518 H1531 0.961 . S
C1518 H1532 0.961 . S
C1519 C1516 1.539 . S
C1519 H1533 0.958 . S
C1519 H1534 0.961 . S
C1519 H1535 0.960 . S
H1520 C1504 0.931 . S
H1521 C1509 0.929 . S
H1522 C1510 0.960 . S
H1523 C1510 0.962 . S
H1524 C1510 0.960 . S
H1525 C1511 0.961 . S
H1526 C1511 0.961 . S
H1527 C1511 0.961 . S
H1528 C1512 0.931 . S
H1529 C1517 0.930 . S
H1530 C1518 0.956 . S
H1531 C1518 0.961 . S
H1532 C1518 0.961 . S
H1533 C1519 0.958 . S
H1534 C1519 0.961 . S
H1535 C1519 0.960 . S
C1536 C1537 1.391 . S
C1536 C1538 1.394 . S
C1536 H1552 0.931 . S
C1537 C1536 1.391 . S
C1537 C1541 1.376 . S
C1538 C1536 1.394 . S
C1538 C1539 1.369 . S
C1538 C1542 1.531 . S
C1539 C1538 1.369 . S
C1539 C1540 1.410 . S
C1539 C1547 1.503 . S
C1540 C1539 1.410 . S
C1540 C1541 1.392 . S
C1540 C1543 1.511 . S
C1541 C1537 1.376 . S
C1541 C1540 1.392 . S
C1541 H1553 0.929 . S
C1542 C1538 1.531 . S
C1542 H1554 0.960 . S
C1542 H1555 0.962 . S
C1542 H1556 0.960 . S
C1543 C1540 1.511 . S
C1543 H1557 0.961 . S
C1543 H1558 0.961 . S
C1543 H1559 0.961 . S
C1544 C1545 1.370 . S
C1544 C1546 1.363 . S
C1544 H1560 0.931 . S
C1545 C1544 1.370 . S
C1545 C1549 1.408 . S
C1546 C1544 1.363 . S
C1546 C1547 1.370 . S
C1546 C1550 1.524 . S
C1547 C1539 1.503 . S
C1547 C1546 1.370 . S
C1547 C1548 1.403 . S
C1548 C1547 1.403 . S
C1548 C1549 1.404 . S
C1548 C1551 1.539 . S
C1549 C1545 1.408 . S
C1549 C1548 1.404 . S
C1549 H1561 0.930 . S
C1550 C1546 1.524 . S
C1550 H1562 0.956 . S
C1550 H1563 0.961 . S
C1550 H1564 0.961 . S
C1551 C1548 1.539 . S
C1551 H1565 0.958 . S
C1551 H1566 0.961 . S
C1551 H1567 0.960 . S
H1552 C1536 0.931 . S
H1553 C1541 0.929 . S
H1554 C1542 0.960 . S
H1555 C1542 0.962 . S
H1556 C1542 0.960 . S
H1557 C1543 0.961 . S
H1558 C1543 0.961 . S
H1559 C1543 0.961 . S
H1560 C1544 0.931 . S
H1561 C1549 0.930 . S
H1562 C1550 0.956 . S
H1563 C1550 0.961 . S
H1564 C1550 0.961 . S
H1565 C1551 0.958 . S
H1566 C1551 0.961 . S
H1567 C1551 0.960 . S
C1568 C1569 1.391 . S
C1568 C1570 1.394 . S
C1568 H1584 0.931 . S
C1569 C1568 1.391 . S
C1569 C1573 1.376 . S
C1570 C1568 1.394 . S
C1570 C1571 1.369 . S
C1570 C1574 1.531 . S
C1571 C1570 1.369 . S
C1571 C1572 1.410 . S
C1571 C1579 1.503 . S
C1572 C1571 1.410 . S
C1572 C1573 1.392 . S
C1572 C1575 1.511 . S
C1573 C1569 1.376 . S
C1573 C1572 1.392 . S
C1573 H1585 0.929 . S
C1574 C1570 1.531 . S
C1574 H1586 0.960 . S
C1574 H1587 0.962 . S
C1574 H1588 0.960 . S
C1575 C1572 1.511 . S
C1575 H1589 0.961 . S
C1575 H1590 0.961 . S
C1575 H1591 0.961 . S
C1576 C1577 1.370 . S
C1576 C1578 1.363 . S
C1576 H1592 0.931 . S
C1577 C1576 1.370 . S
C1577 C1581 1.408 . S
C1578 C1576 1.363 . S
C1578 C1579 1.370 . S
C1578 C1582 1.524 . S
C1579 C1571 1.503 . S
C1579 C1578 1.370 . S
C1579 C1580 1.403 . S
C1580 C1579 1.403 . S
C1580 C1581 1.404 . S
C1580 C1583 1.539 . S
C1581 C1577 1.408 . S
C1581 C1580 1.404 . S
C1581 H1593 0.930 . S
C1582 C1578 1.524 . S
C1582 H1594 0.956 . S
C1582 H1595 0.961 . S
C1582 H1596 0.961 . S
C1583 C1580 1.539 . S
C1583 H1597 0.958 . S
C1583 H1598 0.961 . S
C1583 H1599 0.960 . S
H1584 C1568 0.931 . S
H1585 C1573 0.929 . S
H1586 C1574 0.960 . S
H1587 C1574 0.962 . S
H1588 C1574 0.960 . S
H1589 C1575 0.961 . S
H1590 C1575 0.961 . S
H1591 C1575 0.961 . S
H1592 C1576 0.931 . S
H1593 C1581 0.930 . S
H1594 C1582 0.956 . S
H1595 C1582 0.961 . S
H1596 C1582 0.961 . S
H1597 C1583 0.958 . S
H1598 C1583 0.961 . S
H1599 C1583 0.960 . S
C1600 C1601 1.391 . S
C1600 C1602 1.394 . S
C1600 H1616 0.931 . S
C1601 C1600 1.391 . S
C1601 C1605 1.376 . S
C1602 C1600 1.394 . S
C1602 C1603 1.369 . S
C1602 C1606 1.531 . S
C1603 C1602 1.369 . S
C1603 C1604 1.410 . S
C1603 C1611 1.503 . S
C1604 C1603 1.410 . S
C1604 C1605 1.392 . S
C1604 C1607 1.511 . S
C1605 C1601 1.376 . S
C1605 C1604 1.392 . S
C1605 H1617 0.929 . S
C1606 C1602 1.531 . S
C1606 H1618 0.960 . S
C1606 H1619 0.962 . S
C1606 H1620 0.960 . S
C1607 C1604 1.511 . S
C1607 H1621 0.961 . S
C1607 H1622 0.961 . S
C1607 H1623 0.961 . S
C1608 C1609 1.370 . S
C1608 C1610 1.363 . S
C1608 H1624 0.931 . S
C1609 C1608 1.370 . S
C1609 C1613 1.408 . S
C1610 C1608 1.363 . S
C1610 C1611 1.370 . S
C1610 C1614 1.524 . S
C1611 C1603 1.503 . S
C1611 C1610 1.370 . S
C1611 C1612 1.403 . S
C1612 C1611 1.403 . S
C1612 C1613 1.404 . S
C1612 C1615 1.539 . S
C1613 C1609 1.408 . S
C1613 C1612 1.404 . S
C1613 H1625 0.930 . S
C1614 C1610 1.524 . S
C1614 H1626 0.956 . S
C1614 H1627 0.961 . S
C1614 H1628 0.961 . S
C1615 C1612 1.539 . S
C1615 H1629 0.958 . S
C1615 H1630 0.961 . S
C1615 H1631 0.960 . S
H1616 C1600 0.931 . S
H1617 C1605 0.929 . S
H1618 C1606 0.960 . S
H1619 C1606 0.962 . S
H1620 C1606 0.960 . S
H1621 C1607 0.961 . S
H1622 C1607 0.961 . S
H1623 C1607 0.961 . S
H1624 C1608 0.931 . S
H1625 C1613 0.930 . S
H1626 C1614 0.956 . S
H1627 C1614 0.961 . S
H1628 C1614 0.961 . S
H1629 C1615 0.958 . S
H1630 C1615 0.961 . S
H1631 C1615 0.960 . S
C1632 C1633 1.391 . S
C1632 C1634 1.394 . S
C1632 H1648 0.931 . S
C1633 C1632 1.391 . S
C1633 C1637 1.376 1_455 S
C1634 C1632 1.394 . S
C1634 C1635 1.369 . S
C1634 C1638 1.531 1_556 S
C1635 C1634 1.369 . S
C1635 C1636 1.410 1_455 S
C1635 C1643 1.503 1_556 S
C1636 C1635 1.410 1_655 S
C1636 C1637 1.392 . S
C1636 C1639 1.511 . S
C1637 C1633 1.376 1_655 S
C1637 C1636 1.392 . S
C1637 H1649 0.929 . S
C1638 C1634 1.531 1_554 S
C1638 H1650 0.960 . S
C1638 H1651 0.962 . S
C1638 H1652 0.960 . S
C1639 C1636 1.511 . S
C1639 H1653 0.961 . S
C1639 H1654 0.961 . S
C1639 H1655 0.961 . S
C1640 C1641 1.370 . S
C1640 C1642 1.363 . S
C1640 H1656 0.931 . S
C1641 C1640 1.370 . S
C1641 C1645 1.408 1_455 S
C1642 C1640 1.363 . S
C1642 C1643 1.370 . S
C1642 C1646 1.524 1_554 S
C1643 C1635 1.503 1_554 S
C1643 C1642 1.370 . S
C1643 C1644 1.423 . S
C1644 C1643 1.423 . S
C1644 C1645 1.401 1_455 S
C1644 C1647 1.520 1_455 S
C1645 C1641 1.408 1_655 S
C1645 C1644 1.401 1_655 S
C1645 H1657 0.930 . S
C1646 C1642 1.524 1_556 S
C1646 H1658 0.956 . S
C1646 H1659 0.961 . S
C1646 H1660 0.961 . S
C1647 C1644 1.520 1_655 S
C1647 H1661 0.940 1_655 S
C1647 H1662 0.961 . S
C1647 H1663 0.960 . S
H1648 C1632 0.931 . S
H1649 C1637 0.929 . S
H1650 C1638 0.960 . S
H1651 C1638 0.962 . S
H1652 C1638 0.960 . S
H1653 C1639 0.961 . S
H1654 C1639 0.961 . S
H1655 C1639 0.961 . S
H1656 C1640 0.931 . S
H1657 C1645 0.930 . S
H1658 C1646 0.956 . S
H1659 C1646 0.961 . S
H1660 C1646 0.961 . S
H1661 C1647 0.940 1_455 S
H1662 C1647 0.961 . S
H1663 C1647 0.960 . S
C1664 C1665 1.391 . S
C1664 C1666 1.394 . S
C1664 H1680 0.931 . S
C1665 C1664 1.391 . S
C1665 C1669 1.376 . S
C1666 C1664 1.394 . S
C1666 C1667 1.369 . S
C1666 C1670 1.531 . S
C1667 C1666 1.369 . S
C1667 C1668 1.410 . S
C1667 C1675 1.503 . S
C1668 C1667 1.410 . S
C1668 C1669 1.392 . S
C1668 C1671 1.511 . S
C1669 C1665 1.376 . S
C1669 C1668 1.392 . S
C1669 H1681 0.929 . S
C1670 C1666 1.531 . S
C1670 H1682 0.960 . S
C1670 H1683 0.962 . S
C1670 H1684 0.960 . S
C1671 C1668 1.511 . S
C1671 H1685 0.961 . S
C1671 H1686 0.961 . S
C1671 H1687 0.961 . S
C1672 C1673 1.370 . S
C1672 C1674 1.363 . S
C1672 H1688 0.931 . S
C1673 C1672 1.370 . S
C1673 C1677 1.408 . S
C1674 C1672 1.363 . S
C1674 C1675 1.370 . S
C1674 C1678 1.524 . S
C1675 C1667 1.503 . S
C1675 C1674 1.370 . S
C1675 C1676 1.403 . S
C1676 C1675 1.403 . S
C1676 C1677 1.404 . S
C1676 C1679 1.539 . S
C1677 C1673 1.408 . S
C1677 C1676 1.404 . S
C1677 H1689 0.930 . S
C1678 C1674 1.524 . S
C1678 H1690 0.956 . S
C1678 H1691 0.961 . S
C1678 H1692 0.961 . S
C1679 C1676 1.539 . S
C1679 H1693 0.958 . S
C1679 H1694 0.961 . S
C1679 H1695 0.960 . S
H1680 C1664 0.931 . S
H1681 C1669 0.929 . S
H1682 C1670 0.960 . S
H1683 C1670 0.962 . S
H1684 C1670 0.960 . S
H1685 C1671 0.961 . S
H1686 C1671 0.961 . S
H1687 C1671 0.961 . S
H1688 C1672 0.931 . S
H1689 C1677 0.930 . S
H1690 C1678 0.956 . S
H1691 C1678 0.961 . S
H1692 C1678 0.961 . S
H1693 C1679 0.958 . S
H1694 C1679 0.961 . S
H1695 C1679 0.960 . S
C1696 C1697 1.391 . S
C1696 C1698 1.394 . S
C1696 H1712 0.931 . S
C1697 C1696 1.391 . S
C1697 C1701 1.376 . S
C1698 C1696 1.394 . S
C1698 C1699 1.369 . S
C1698 C1702 1.531 . S
C1699 C1698 1.369 . S
C1699 C1700 1.410 . S
C1699 C1707 1.503 . S
C1700 C1699 1.410 . S
C1700 C1701 1.392 . S
C1700 C1703 1.511 . S
C1701 C1697 1.376 . S
C1701 C1700 1.392 . S
C1701 H1713 0.929 . S
C1702 C1698 1.531 . S
C1702 H1714 0.960 . S
C1702 H1715 0.962 . S
C1702 H1716 0.960 . S
C1703 C1700 1.511 . S
C1703 H1717 0.961 . S
C1703 H1718 0.961 . S
C1703 H1719 0.961 . S
C1704 C1705 1.370 . S
C1704 C1706 1.363 . S
C1704 H1720 0.931 . S
C1705 C1704 1.370 . S
C1705 C1709 1.408 . S
C1706 C1704 1.363 . S
C1706 C1707 1.370 . S
C1706 C1710 1.524 . S
C1707 C1699 1.503 . S
C1707 C1706 1.370 . S
C1707 C1708 1.403 . S
C1708 C1707 1.403 . S
C1708 C1709 1.404 . S
C1708 C1711 1.539 . S
C1709 C1705 1.408 . S
C1709 C1708 1.404 . S
C1709 H1721 0.930 . S
C1710 C1706 1.524 . S
C1710 H1722 0.956 . S
C1710 H1723 0.961 . S
C1710 H1724 0.961 . S
C1711 C1708 1.539 . S
C1711 H1725 0.958 . S
C1711 H1726 0.961 . S
C1711 H1727 0.960 . S
H1712 C1696 0.931 . S
H1713 C1701 0.929 . S
H1714 C1702 0.960 . S
H1715 C1702 0.962 . S
H1716 C1702 0.960 . S
H1717 C1703 0.961 . S
H1718 C1703 0.961 . S
H1719 C1703 0.961 . S
H1720 C1704 0.931 . S
H1721 C1709 0.930 . S
H1722 C1710 0.956 . S
H1723 C1710 0.961 . S
H1724 C1710 0.961 . S
H1725 C1711 0.958 . S
H1726 C1711 0.961 . S
H1727 C1711 0.960 . S
C1728 C1729 1.391 . S
C1728 C1730 1.394 1_554 S
C1728 H1744 0.931 . S
C1729 C1728 1.391 . S
C1729 C1733 1.376 . S
C1730 C1728 1.394 1_556 S
C1730 C1731 1.369 . S
C1730 C1734 1.531 . S
C1731 C1730 1.369 . S
C1731 C1732 1.410 1_556 S
C1731 C1739 1.503 . S
C1732 C1731 1.410 1_554 S
C1732 C1733 1.392 . S
C1732 C1735 1.511 . S
C1733 C1729 1.376 . S
C1733 C1732 1.392 . S
C1733 H1745 0.929 . S
C1734 C1730 1.531 . S
C1734 H1746 0.960 . S
C1734 H1747 0.962 . S
C1734 H1748 0.960 . S
C1735 C1732 1.511 . S
C1735 H1749 0.961 . S
C1735 H1750 0.961 1_554 S
C1735 H1751 0.961 . S
C1736 C1737 1.370 . S
C1736 C1738 1.363 . S
C1736 H1752 0.931 . S
C1737 C1736 1.370 . S
C1737 C1741 1.408 . S
C1738 C1736 1.363 . S
C1738 C1739 1.370 . S
C1738 C1742 1.524 . S
C1739 C1731 1.503 . S
C1739 C1738 1.370 . S
C1739 C1740 1.403 . S
C1740 C1739 1.403 . S
C1740 C1741 1.404 . S
C1740 C1743 1.539 . S
C1741 C1737 1.408 . S
C1741 C1740 1.404 . S
C1741 H1753 0.930 . S
C1742 C1738 1.524 . S
C1742 H1754 0.956 . S
C1742 H1755 0.961 . S
C1742 H1756 0.961 . S
C1743 C1740 1.539 . S
C1743 H1757 0.958 . S
C1743 H1758 0.961 . S
C1743 H1759 0.972 . S
H1744 C1728 0.931 . S
H1745 C1733 0.929 . S
H1746 C1734 0.960 . S
H1747 C1734 0.962 . S
H1748 C1734 0.960 . S
H1749 C1735 0.961 . S
H1750 C1735 0.961 1_556 S
H1751 C1735 0.961 . S
H1752 C1736 0.931 . S
H1753 C1741 0.930 . S
H1754 C1742 0.956 . S
H1755 C1742 0.961 . S
H1756 C1742 0.961 . S
H1757 C1743 0.958 . S
H1758 C1743 0.961 . S
H1759 C1743 0.972 . S
C1760 C1761 1.391 . S
C1760 C1762 1.394 . S
C1760 H1776 0.931 . S
C1761 C1760 1.391 . S
C1761 C1765 1.376 . S
C1762 C1760 1.394 . S
C1762 C1763 1.369 . S
C1762 C1766 1.531 . S
C1763 C1762 1.369 . S
C1763 C1764 1.410 . S
C1763 C1771 1.503 . S
C1764 C1763 1.410 . S
C1764 C1765 1.392 . S
C1764 C1767 1.511 . S
C1765 C1761 1.376 . S
C1765 C1764 1.392 . S
C1765 H1777 0.929 . S
C1766 C1762 1.531 . S
C1766 H1778 0.960 . S
C1766 H1779 0.962 . S
C1766 H1780 0.960 . S
C1767 C1764 1.511 . S
C1767 H1781 0.961 . S
C1767 H1782 0.961 . S
C1767 H1783 0.961 . S
C1768 C1769 1.370 . S
C1768 C1770 1.363 . S
C1768 H1784 0.931 . S
C1769 C1768 1.370 . S
C1769 C1773 1.408 . S
C1770 C1768 1.363 . S
C1770 C1771 1.370 . S
C1770 C1774 1.524 . S
C1771 C1763 1.503 . S
C1771 C1770 1.370 . S
C1771 C1772 1.403 . S
C1772 C1771 1.403 . S
C1772 C1773 1.404 . S
C1772 C1775 1.539 . S
C1773 C1769 1.408 . S
C1773 C1772 1.404 . S
C1773 H1785 0.930 . S
C1774 C1770 1.524 . S
C1774 H1786 0.956 . S
C1774 H1787 0.961 . S
C1774 H1788 0.961 . S
C1775 C1772 1.539 . S
C1775 H1789 0.958 . S
C1775 H1790 0.961 . S
C1775 H1791 0.960 . S
H1776 C1760 0.931 . S
H1777 C1765 0.929 . S
H1778 C1766 0.960 . S
H1779 C1766 0.962 . S
H1780 C1766 0.960 . S
H1781 C1767 0.961 . S
H1782 C1767 0.961 . S
H1783 C1767 0.961 . S
H1784 C1768 0.931 . S
H1785 C1773 0.930 . S
H1786 C1774 0.956 . S
H1787 C1774 0.961 . S
H1788 C1774 0.961 . S
H1789 C1775 0.958 . S
H1790 C1775 0.961 . S
H1791 C1775 0.960 . S
C1792 C1793 1.391 . S
C1792 C1794 1.394 . S
C1792 H1808 0.931 . S
C1793 C1792 1.391 . S
C1793 C1797 1.376 . S
C1794 C1792 1.394 . S
C1794 C1795 1.369 . S
C1794 C1798 1.531 . S
C1795 C1794 1.369 . S
C1795 C1796 1.410 . S
C1795 C1803 1.503 . S
C1796 C1795 1.410 . S
C1796 C1797 1.392 . S
C1796 C1799 1.511 . S
C1797 C1793 1.376 . S
C1797 C1796 1.392 . S
C1797 H1809 0.929 . S
C1798 C1794 1.531 . S
C1798 H1810 0.960 . S
C1798 H1811 0.962 . S
C1798 H1812 0.960 . S
C1799 C1796 1.511 . S
C1799 H1813 0.961 . S
C1799 H1814 0.961 . S
C1799 H1815 0.961 . S
C1800 C1801 1.370 . S
C1800 C1802 1.363 . S
C1800 H1816 0.931 . S
C1801 C1800 1.370 . S
C1801 C1805 1.408 . S
C1802 C1800 1.363 . S
C1802 C1803 1.370 . S
C1802 C1806 1.524 . S
C1803 C1795 1.503 . S
C1803 C1802 1.370 . S
C1803 C1804 1.403 . S
C1804 C1803 1.403 . S
C1804 C1805 1.404 . S
C1804 C1807 1.539 . S
C1805 C1801 1.408 . S
C1805 C1804 1.404 . S
C1805 H1817 0.930 . S
C1806 C1802 1.524 . S
C1806 H1818 0.956 . S
C1806 H1819 0.961 . S
C1806 H1820 0.961 . S
C1807 C1804 1.539 . S
C1807 H1821 0.958 . S
C1807 H1822 0.961 . S
C1807 H1823 0.960 . S
H1808 C1792 0.931 . S
H1809 C1797 0.929 . S
H1810 C1798 0.960 . S
H1811 C1798 0.962 . S
H1812 C1798 0.960 . S
H1813 C1799 0.961 . S
H1814 C1799 0.961 . S
H1815 C1799 0.961 . S
H1816 C1800 0.931 . S
H1817 C1805 0.930 . S
H1818 C1806 0.956 . S
H1819 C1806 0.961 . S
H1820 C1806 0.961 . S
H1821 C1807 0.958 . S
H1822 C1807 0.961 . S
H1823 C1807 0.960 . S
C1824 C1825 1.391 . S
C1824 C1826 1.394 . S
C1824 H1840 0.931 . S
C1825 C1824 1.391 . S
C1825 C1829 1.376 . S
C1826 C1824 1.394 . S
C1826 C1827 1.369 . S
C1826 C1830 1.531 . S
C1827 C1826 1.369 . S
C1827 C1828 1.410 . S
C1827 C1835 1.503 . S
C1828 C1827 1.410 . S
C1828 C1829 1.392 . S
C1828 C1831 1.511 . S
C1829 C1825 1.376 . S
C1829 C1828 1.392 . S
C1829 H1841 0.929 . S
C1830 C1826 1.531 . S
C1830 H1842 0.960 . S
C1830 H1843 0.962 . S
C1830 H1844 0.960 . S
C1831 C1828 1.511 . S
C1831 H1845 0.961 . S
C1831 H1846 0.961 . S
C1831 H1847 0.961 . S
C1832 C1833 1.370 . S
C1832 C1834 1.363 . S
C1832 H1848 0.931 . S
C1833 C1832 1.370 . S
C1833 C1837 1.408 . S
C1834 C1832 1.363 . S
C1834 C1835 1.370 . S
C1834 C1838 1.524 . S
C1835 C1827 1.503 . S
C1835 C1834 1.370 . S
C1835 C1836 1.403 . S
C1836 C1835 1.403 . S
C1836 C1837 1.404 . S
C1836 C1839 1.539 . S
C1837 C1833 1.408 . S
C1837 C1836 1.404 . S
C1837 H1849 0.930 . S
C1838 C1834 1.524 . S
C1838 H1850 0.956 . S
C1838 H1851 0.961 . S
C1838 H1852 0.961 . S
C1839 C1836 1.539 . S
C1839 H1853 0.958 . S
C1839 H1854 0.961 . S
C1839 H1855 0.960 . S
H1840 C1824 0.931 . S
H1841 C1829 0.929 . S
H1842 C1830 0.960 . S
H1843 C1830 0.962 . S
H1844 C1830 0.960 . S
H1845 C1831 0.961 . S
H1846 C1831 0.961 . S
H1847 C1831 0.961 . S
H1848 C1832 0.931 . S
H1849 C1837 0.930 . S
H1850 C1838 0.956 . S
H1851 C1838 0.961 . S
H1852 C1838 0.961 . S
H1853 C1839 0.958 . S
H1854 C1839 0.961 . S
H1855 C1839 0.960 . S
C1856 C1857 1.391 . S
C1856 C1858 1.394 1_556 S
C1856 H1872 0.931 . S
C1857 C1856 1.391 . S
C1857 C1861 1.376 1_556 S
C1858 C1856 1.394 1_554 S
C1858 C1859 1.369 . S
C1858 C1862 1.531 . S
C1859 C1858 1.369 . S
C1859 C1860 1.410 . S
C1859 C1867 1.503 . S
C1860 C1859 1.410 . S
C1860 C1861 1.392 . S
C1860 C1863 1.511 . S
C1861 C1857 1.376 1_554 S
C1861 C1860 1.392 . S
C1861 H1873 0.929 . S
C1862 C1858 1.531 . S
C1862 H1874 0.960 . S
C1862 H1875 0.962 . S
C1862 H1876 0.970 . S
C1863 C1860 1.511 . S
C1863 H1877 0.961 . S
C1863 H1878 0.961 . S
C1863 H1879 0.961 . S
C1864 C1865 1.370 . S
C1864 C1866 1.363 . S
C1864 H1880 0.931 . S
C1865 C1864 1.370 . S
C1865 C1869 1.408 . S
C1866 C1864 1.363 . S
C1866 C1867 1.370 . S
C1866 C1870 1.524 . S
C1867 C1859 1.503 . S
C1867 C1866 1.370 . S
C1867 C1868 1.403 . S
C1868 C1867 1.403 . S
C1868 C1869 1.404 . S
C1868 C1871 1.539 . S
C1869 C1865 1.408 . S
C1869 C1868 1.404 . S
C1869 H1881 0.930 . S
C1870 C1866 1.524 . S
C1870 H1882 0.956 . S
C1870 H1883 0.961 . S
C1870 H1884 0.961 . S
C1871 C1868 1.539 . S
C1871 H1885 0.958 . S
C1871 H1886 0.961 . S
C1871 H1887 0.960 . S
H1872 C1856 0.931 . S
H1873 C1861 0.929 . S
H1874 C1862 0.960 . S
H1875 C1862 0.962 . S
H1876 C1862 0.970 . S
H1877 C1863 0.961 . S
H1878 C1863 0.961 . S
H1879 C1863 0.961 . S
H1880 C1864 0.931 . S
H1881 C1869 0.930 . S
H1882 C1870 0.956 . S
H1883 C1870 0.961 . S
H1884 C1870 0.961 . S
H1885 C1871 0.958 . S
H1886 C1871 0.961 . S
H1887 C1871 0.960 . S
C1888 C1889 1.391 . S
C1888 C1890 1.394 . S
C1888 H1904 0.931 . S
C1889 C1888 1.391 . S
C1889 C1893 1.376 . S
C1890 C1888 1.394 . S
C1890 C1891 1.369 . S
C1890 C1894 1.531 . S
C1891 C1890 1.369 . S
C1891 C1892 1.410 . S
C1891 C1899 1.503 . S
C1892 C1891 1.410 . S
C1892 C1893 1.392 . S
C1892 C1895 1.511 . S
C1893 C1889 1.376 . S
C1893 C1892 1.392 . S
C1893 H1905 0.929 . S
C1894 C1890 1.531 . S
C1894 H1906 0.960 . S
C1894 H1907 0.962 . S
C1894 H1908 0.960 . S
C1895 C1892 1.511 . S
C1895 H1909 0.961 . S
C1895 H1910 0.961 . S
C1895 H1911 0.961 . S
C1896 C1897 1.370 . S
C1896 C1898 1.363 . S
C1896 H1912 0.931 . S
C1897 C1896 1.370 . S
C1897 C1901 1.408 . S
C1898 C1896 1.363 . S
C1898 C1899 1.370 . S
C1898 C1902 1.524 . S
C1899 C1891 1.503 . S
C1899 C1898 1.370 . S
C1899 C1900 1.403 . S
C1900 C1899 1.403 . S
C1900 C1901 1.404 . S
C1900 C1903 1.539 . S
C1901 C1897 1.408 . S
C1901 C1900 1.404 . S
C1901 H1913 0.930 . S
C1902 C1898 1.524 . S
C1902 H1914 0.956 . S
C1902 H1915 0.961 . S
C1902 H1916 0.961 . S
C1903 C1900 1.539 . S
C1903 H1917 0.958 . S
C1903 H1918 0.961 . S
C1903 H1919 0.960 . S
H1904 C1888 0.931 . S
H1905 C1893 0.929 . S
H1906 C1894 0.960 . S
H1907 C1894 0.962 . S
H1908 C1894 0.960 . S
H1909 C1895 0.961 . S
H1910 C1895 0.961 . S
H1911 C1895 0.961 . S
H1912 C1896 0.931 . S
H1913 C1901 0.930 . S
H1914 C1902 0.956 . S
H1915 C1902 0.961 . S
H1916 C1902 0.961 . S
H1917 C1903 0.958 . S
H1918 C1903 0.961 . S
H1919 C1903 0.960 . S
C1920 C1921 1.391 . S
C1920 C1922 1.394 . S
C1920 H1936 0.931 . S
C1921 C1920 1.391 . S
C1921 C1925 1.376 . S
C1922 C1920 1.394 . S
C1922 C1923 1.369 . S
C1922 C1926 1.531 . S
C1923 C1922 1.369 . S
C1923 C1924 1.410 . S
C1923 C1931 1.503 . S
C1924 C1923 1.410 . S
C1924 C1925 1.392 . S
C1924 C1927 1.511 . S
C1925 C1921 1.376 . S
C1925 C1924 1.392 . S
C1925 H1937 0.929 . S
C1926 C1922 1.531 . S
C1926 H1938 0.960 . S
C1926 H1939 0.962 . S
C1926 H1940 0.960 . S
C1927 C1924 1.511 . S
C1927 H1941 0.961 . S
C1927 H1942 0.961 . S
C1927 H1943 0.961 . S
C1928 C1929 1.370 . S
C1928 C1930 1.363 . S
C1928 H1944 0.931 . S
C1929 C1928 1.370 . S
C1929 C1933 1.408 . S
C1930 C1928 1.363 . S
C1930 C1931 1.370 . S
C1930 C1934 1.524 . S
C1931 C1923 1.503 . S
C1931 C1930 1.370 . S
C1931 C1932 1.403 . S
C1932 C1931 1.403 . S
C1932 C1933 1.404 . S
C1932 C1935 1.539 . S
C1933 C1929 1.408 . S
C1933 C1932 1.404 . S
C1933 H1945 0.930 . S
C1934 C1930 1.524 . S
C1934 H1946 0.956 . S
C1934 H1947 0.961 . S
C1934 H1948 0.961 . S
C1935 C1932 1.539 . S
C1935 H1949 0.958 . S
C1935 H1950 0.961 . S
C1935 H1951 0.960 . S
H1936 C1920 0.931 . S
H1937 C1925 0.929 . S
H1938 C1926 0.960 . S
H1939 C1926 0.962 . S
H1940 C1926 0.960 . S
H1941 C1927 0.961 . S
H1942 C1927 0.961 . S
H1943 C1927 0.961 . S
H1944 C1928 0.931 . S
H1945 C1933 0.930 . S
H1946 C1934 0.956 . S
H1947 C1934 0.961 . S
H1948 C1934 0.961 . S
H1949 C1935 0.958 . S
H1950 C1935 0.961 . S
H1951 C1935 0.960 . S
C1952 C1953 1.391 . S
C1952 C1954 1.394 . S
C1952 H1968 0.931 . S
C1953 C1952 1.391 . S
C1953 C1957 1.376 . S
C1954 C1952 1.394 . S
C1954 C1955 1.369 . S
C1954 C1958 1.531 . S
C1955 C1954 1.369 . S
C1955 C1956 1.410 . S
C1955 C1963 1.503 . S
C1956 C1955 1.410 . S
C1956 C1957 1.392 . S
C1956 C1959 1.511 . S
C1957 C1953 1.376 . S
C1957 C1956 1.392 . S
C1957 H1969 0.929 . S
C1958 C1954 1.531 . S
C1958 H1970 0.960 . S
C1958 H1971 0.962 . S
C1958 H1972 0.960 . S
C1959 C1956 1.511 . S
C1959 H1973 0.961 . S
C1959 H1974 0.961 . S
C1959 H1975 0.961 . S
C1960 C1961 1.370 . S
C1960 C1962 1.363 . S
C1960 H1976 0.931 . S
C1961 C1960 1.370 . S
C1961 C1965 1.408 . S
C1962 C1960 1.363 . S
C1962 C1963 1.370 . S
C1962 C1966 1.524 . S
C1963 C1955 1.503 . S
C1963 C1962 1.370 . S
C1963 C1964 1.403 . S
C1964 C1963 1.403 . S
C1964 C1965 1.404 . S
C1964 C1967 1.539 . S
C1965 C1961 1.408 . S
C1965 C1964 1.404 . S
C1965 H1977 0.930 . S
C1966 C1962 1.524 . S
C1966 H1978 0.956 . S
C1966 H1979 0.961 . S
C1966 H1980 0.961 . S
C1967 C1964 1.539 . S
C1967 H1981 0.958 . S
C1967 H1982 0.961 . S
C1967 H1983 0.960 . S
H1968 C1952 0.931 . S
H1969 C1957 0.929 . S
H1970 C1958 0.960 . S
H1971 C1958 0.962 . S
H1972 C1958 0.960 . S
H1973 C1959 0.961 . S
H1974 C1959 0.961 . S
H1975 C1959 0.961 . S
H1976 C1960 0.931 . S
H1977 C1965 0.930 . S
H1978 C1966 0.956 . S
H1979 C1966 0.961 . S
H1980 C1966 0.961 . S
H1981 C1967 0.958 . S
H1982 C1967 0.961 . S
H1983 C1967 0.960 . S
C1984 C1985 1.391 . S
C1984 C1986 1.394 . S
C1984 H2000 0.931 . S
C1985 C1984 1.391 . S
C1985 C1989 1.376 . S
C1986 C1984 1.394 . S
C1986 C1987 1.369 . S
C1986 C1990 1.531 . S
C1987 C1986 1.369 . S
C1987 C1988 1.410 . S
C1987 C1995 1.503 . S
C1988 C1987 1.410 . S
C1988 C1989 1.392 . S
C1988 C1991 1.511 . S
C1989 C1985 1.376 . S
C1989 C1988 1.392 . S
C1989 H2001 0.929 . S
C1990 C1986 1.531 . S
C1990 H2002 0.960 . S
C1990 H2003 0.962 . S
C1990 H2004 0.960 . S
C1991 C1988 1.511 . S
C1991 H2005 0.961 . S
C1991 H2006 0.961 . S
C1991 H2007 0.961 . S
C1992 C1993 1.370 . S
C1992 C1994 1.363 . S
C1992 H2008 0.931 . S
C1993 C1992 1.370 . S
C1993 C1997 1.408 . S
C1994 C1992 1.363 . S
C1994 C1995 1.370 . S
C1994 C1998 1.524 . S
C1995 C1987 1.503 . S
C1995 C1994 1.370 . S
C1995 C1996 1.403 . S
C1996 C1995 1.403 . S
C1996 C1997 1.404 . S
C1996 C1999 1.539 . S
C1997 C1993 1.408 . S
C1997 C1996 1.404 . S
C1997 H2009 0.930 . S
C1998 C1994 1.524 . S
C1998 H2010 0.956 . S
C1998 H2011 0.961 . S
C1998 H2012 0.961 . S
C1999 C1996 1.539 . S
C1999 H2013 0.958 . S
C1999 H2014 0.961 . S
C1999 H2015 0.960 . S
H2000 C1984 0.931 . S
H2001 C1989 0.929 . S
H2002 C1990 0.960 . S
H2003 C1990 0.962 . S
H2004 C1990 0.960 . S
H2005 C1991 0.961 . S
H2006 C1991 0.961 . S
H2007 C1991 0.961 . S
H2008 C1992 0.931 . S
H2009 C1997 0.930 . S
H2010 C1998 0.956 . S
H2011 C1998 0.961 . S
H2012 C1998 0.961 . S
H2013 C1999 0.958 . S
H2014 C1999 0.961 . S
H2015 C1999 0.960 . S
C2016 C2017 1.391 . S
C2016 C2018 1.394 . S
C2016 H2032 0.931 . S
C2017 C2016 1.391 . S
C2017 C2021 1.376 . S
C2018 C2016 1.394 . S
C2018 C2019 1.369 . S
C2018 C2022 1.531 . S
C2019 C2018 1.369 . S
C2019 C2020 1.410 . S
C2019 C2027 1.503 . S
C2020 C2019 1.410 . S
C2020 C2021 1.392 . S
C2020 C2023 1.511 . S
C2021 C2017 1.376 . S
C2021 C2020 1.392 . S
C2021 H2033 0.929 . S
C2022 C2018 1.531 . S
C2022 H2034 0.960 . S
C2022 H2035 0.962 . S
C2022 H2036 0.960 . S
C2023 C2020 1.511 . S
C2023 H2037 0.961 . S
C2023 H2038 0.961 . S
C2023 H2039 0.961 . S
C2024 C2025 1.370 . S
C2024 C2026 1.363 . S
C2024 H2040 0.931 . S
C2025 C2024 1.370 . S
C2025 C2029 1.408 . S
C2026 C2024 1.363 . S
C2026 C2027 1.370 . S
C2026 C2030 1.524 . S
C2027 C2019 1.503 . S
C2027 C2026 1.370 . S
C2027 C2028 1.403 . S
C2028 C2027 1.403 . S
C2028 C2029 1.404 . S
C2028 C2031 1.539 . S
C2029 C2025 1.408 . S
C2029 C2028 1.404 . S
C2029 H2041 0.930 . S
C2030 C2026 1.524 . S
C2030 H2042 0.956 . S
C2030 H2043 0.961 . S
C2030 H2044 0.961 . S
C2031 C2028 1.539 . S
C2031 H2045 0.958 . S
C2031 H2046 0.961 . S
C2031 H2047 0.960 . S
H2032 C2016 0.931 . S
H2033 C2021 0.929 . S
H2034 C2022 0.960 . S
H2035 C2022 0.962 . S
H2036 C2022 0.960 . S
H2037 C2023 0.961 . S
H2038 C2023 0.961 . S
H2039 C2023 0.961 . S
H2040 C2024 0.931 . S
H2041 C2029 0.930 . S
H2042 C2030 0.956 . S
H2043 C2030 0.961 . S
H2044 C2030 0.961 . S
H2045 C2031 0.958 . S
H2046 C2031 0.961 . S
H2047 C2031 0.960 . S
C2048 C2049 1.391 . S
C2048 C2050 1.394 . S
C2048 H2064 0.931 . S
C2049 C2048 1.391 . S
C2049 C2053 1.376 . S
C2050 C2048 1.394 . S
C2050 C2051 1.369 . S
C2050 C2054 1.531 . S
C2051 C2050 1.369 . S
C2051 C2052 1.410 . S
C2051 C2059 1.503 . S
C2052 C2051 1.410 . S
C2052 C2053 1.392 . S
C2052 C2055 1.511 . S
C2053 C2049 1.376 . S
C2053 C2052 1.392 . S
C2053 H2065 0.929 . S
C2054 C2050 1.531 . S
C2054 H2066 0.960 . S
C2054 H2067 0.962 . S
C2054 H2068 0.960 . S
C2055 C2052 1.511 . S
C2055 H2069 0.961 . S
C2055 H2070 0.961 . S
C2055 H2071 0.961 . S
C2056 C2057 1.370 . S
C2056 C2058 1.363 1_556 S
C2056 H2072 0.931 . S
C2057 C2056 1.370 . S
C2057 C2061 1.408 . S
C2058 C2056 1.363 1_554 S
C2058 C2059 1.370 . S
C2058 C2062 1.524 . S
C2059 C2051 1.503 . S
C2059 C2058 1.370 . S
C2059 C2060 1.403 1_554 S
C2060 C2059 1.403 1_556 S
C2060 C2061 1.404 . S
C2060 C2063 1.539 . S
C2061 C2057 1.408 . S
C2061 C2060 1.404 . S
C2061 H2073 0.930 . S
C2062 C2058 1.524 . S
C2062 H2074 0.956 . S
C2062 H2075 0.961 . S
C2062 H2076 0.961 . S
C2063 C2060 1.539 . S
C2063 H2077 0.958 . S
C2063 H2078 0.961 . S
C2063 H2079 0.969 . S
H2064 C2048 0.931 . S
H2065 C2053 0.929 . S
H2066 C2054 0.960 . S
H2067 C2054 0.962 . S
H2068 C2054 0.960 . S
H2069 C2055 0.961 . S
H2070 C2055 0.961 . S
H2071 C2055 0.961 . S
H2072 C2056 0.931 . S
H2073 C2061 0.930 . S
H2074 C2062 0.956 . S
H2075 C2062 0.961 . S
H2076 C2062 0.961 . S
H2077 C2063 0.958 . S
H2078 C2063 0.961 . S
H2079 C2063 0.969 . S
C2080 C2081 1.391 . S
C2080 C2082 1.394 . S
C2080 H2096 0.931 . S
C2081 C2080 1.391 . S
C2081 C2085 1.376 . S
C2082 C2080 1.394 . S
C2082 C2083 1.369 . S
C2082 C2086 1.531 . S
C2083 C2082 1.369 . S
C2083 C2084 1.410 . S
C2083 C2091 1.503 . S
C2084 C2083 1.410 . S
C2084 C2085 1.392 . S
C2084 C2087 1.511 . S
C2085 C2081 1.376 . S
C2085 C2084 1.392 . S
C2085 H2097 0.929 . S
C2086 C2082 1.531 . S
C2086 H2098 0.960 . S
C2086 H2099 0.962 . S
C2086 H2100 0.960 . S
C2087 C2084 1.511 . S
C2087 H2101 0.961 . S
C2087 H2102 0.961 . S
C2087 H2103 0.961 . S
C2088 C2089 1.370 . S
C2088 C2090 1.363 . S
C2088 H2104 0.931 . S
C2089 C2088 1.370 . S
C2089 C2093 1.408 . S
C2090 C2088 1.363 . S
C2090 C2091 1.370 . S
C2090 C2094 1.524 . S
C2091 C2083 1.503 . S
C2091 C2090 1.370 . S
C2091 C2092 1.403 . S
C2092 C2091 1.403 . S
C2092 C2093 1.404 . S
C2092 C2095 1.539 . S
C2093 C2089 1.408 . S
C2093 C2092 1.404 . S
C2093 H2105 0.930 . S
C2094 C2090 1.524 . S
C2094 H2106 0.956 . S
C2094 H2107 0.961 . S
C2094 H2108 0.961 . S
C2095 C2092 1.539 . S
C2095 H2109 0.958 . S
C2095 H2110 0.961 . S
C2095 H2111 0.960 . S
H2096 C2080 0.931 . S
H2097 C2085 0.929 . S
H2098 C2086 0.960 . S
H2099 C2086 0.962 . S
H2100 C2086 0.960 . S
H2101 C2087 0.961 . S
H2102 C2087 0.961 . S
H2103 C2087 0.961 . S
H2104 C2088 0.931 . S
H2105 C2093 0.930 . S
H2106 C2094 0.956 . S
H2107 C2094 0.961 . S
H2108 C2094 0.961 . S
H2109 C2095 0.958 . S
H2110 C2095 0.961 . S
H2111 C2095 0.960 . S
C2112 C2113 1.391 . S
C2112 C2114 1.394 . S
C2112 H2128 0.931 . S
C2113 C2112 1.391 . S
C2113 C2117 1.376 . S
C2114 C2112 1.394 . S
C2114 C2115 1.369 . S
C2114 C2118 1.531 . S
C2115 C2114 1.369 . S
C2115 C2116 1.410 . S
C2115 C2123 1.503 . S
C2116 C2115 1.410 . S
C2116 C2117 1.392 . S
C2116 C2119 1.511 . S
C2117 C2113 1.376 . S
C2117 C2116 1.392 . S
C2117 H2129 0.929 . S
C2118 C2114 1.531 . S
C2118 H2130 0.960 . S
C2118 H2131 0.962 . S
C2118 H2132 0.960 . S
C2119 C2116 1.511 . S
C2119 H2133 0.961 . S
C2119 H2134 0.961 . S
C2119 H2135 0.961 . S
C2120 C2121 1.370 . S
C2120 C2122 1.363 . S
C2120 H2136 0.931 . S
C2121 C2120 1.370 . S
C2121 C2125 1.408 . S
C2122 C2120 1.363 . S
C2122 C2123 1.370 . S
C2122 C2126 1.524 . S
C2123 C2115 1.503 . S
C2123 C2122 1.370 . S
C2123 C2124 1.403 . S
C2124 C2123 1.403 . S
C2124 C2125 1.404 . S
C2124 C2127 1.539 . S
C2125 C2121 1.408 . S
C2125 C2124 1.404 . S
C2125 H2137 0.930 . S
C2126 C2122 1.524 . S
C2126 H2138 0.956 . S
C2126 H2139 0.961 . S
C2126 H2140 0.961 . S
C2127 C2124 1.539 . S
C2127 H2141 0.958 . S
C2127 H2142 0.961 . S
C2127 H2143 0.960 . S
H2128 C2112 0.931 . S
H2129 C2117 0.929 . S
H2130 C2118 0.960 . S
H2131 C2118 0.962 . S
H2132 C2118 0.960 . S
H2133 C2119 0.961 . S
H2134 C2119 0.961 . S
H2135 C2119 0.961 . S
H2136 C2120 0.931 . S
H2137 C2125 0.930 . S
H2138 C2126 0.956 . S
H2139 C2126 0.961 . S
H2140 C2126 0.961 . S
H2141 C2127 0.958 . S
H2142 C2127 0.961 . S
H2143 C2127 0.960 . S
C2144 C2145 1.391 . S
C2144 C2146 1.394 . S
C2144 H2160 0.931 . S
C2145 C2144 1.391 . S
C2145 C2149 1.376 . S
C2146 C2144 1.394 . S
C2146 C2147 1.369 . S
C2146 C2150 1.531 . S
C2147 C2146 1.369 . S
C2147 C2148 1.410 . S
C2147 C2155 1.503 . S
C2148 C2147 1.410 . S
C2148 C2149 1.392 . S
C2148 C2151 1.511 . S
C2149 C2145 1.376 . S
C2149 C2148 1.392 . S
C2149 H2161 0.929 . S
C2150 C2146 1.531 . S
C2150 H2162 0.960 . S
C2150 H2163 0.962 . S
C2150 H2164 0.960 . S
C2151 C2148 1.511 . S
C2151 H2165 0.961 . S
C2151 H2166 0.961 . S
C2151 H2167 0.961 . S
C2152 C2153 1.370 . S
C2152 C2154 1.363 . S
C2152 H2168 0.931 . S
C2153 C2152 1.370 . S
C2153 C2157 1.408 . S
C2154 C2152 1.363 . S
C2154 C2155 1.370 . S
C2154 C2158 1.524 . S
C2155 C2147 1.503 . S
C2155 C2154 1.370 . S
C2155 C2156 1.403 . S
C2156 C2155 1.403 . S
C2156 C2157 1.404 . S
C2156 C2159 1.539 . S
C2157 C2153 1.408 . S
C2157 C2156 1.404 . S
C2157 H2169 0.930 . S
C2158 C2154 1.524 . S
C2158 H2170 0.956 . S
C2158 H2171 0.961 . S
C2158 H2172 0.961 . S
C2159 C2156 1.539 . S
C2159 H2173 0.958 . S
C2159 H2174 0.961 . S
C2159 H2175 0.960 . S
H2160 C2144 0.931 . S
H2161 C2149 0.929 . S
H2162 C2150 0.960 . S
H2163 C2150 0.962 . S
H2164 C2150 0.960 . S
H2165 C2151 0.961 . S
H2166 C2151 0.961 . S
H2167 C2151 0.961 . S
H2168 C2152 0.931 . S
H2169 C2157 0.930 . S
H2170 C2158 0.956 . S
H2171 C2158 0.961 . S
H2172 C2158 0.961 . S
H2173 C2159 0.958 . S
H2174 C2159 0.961 . S
H2175 C2159 0.960 . S
C641 C7 0.782 . S
C649 C287 0.910 . S
C673 C51 1.024 . S
C681 C167 1.014 . S
C705 C207 0.564 . S
C713 C91 0.414 . S
C737 C131 0.925 . S
C745 C247 0.931 . S
C769 C456 0.987 . S
C777 C162 0.955 . S
C801 C322 2.745 . S
C809 C2 2.711 1_556 S
C833 C416 0.964 . S
C841 C242 1.007 . S
C865 C96 2.002 . S
C873 C362 1.981 . S
C897 C367 0.970 . S
C905 C487 0.796 . S
C929 C411 1.011 . S
C937 C567 1.017 . S
C961 C531 0.367 . S
C969 C327 0.489 . S
C993 C451 0.981 . S
C1001 C607 0.948 . S
C1025 C562 0.933 . S
C1033 C136 0.933 . S
C1057 C482 2.695 . S
C1065 C202 2.766 . S
C1089 C56 0.985 . S
C1097 C602 1.010 . S
C1121 C282 1.983 . S
C1129 C536 1.990 . S
C1153 C539 0.417 . S
C1161 C10 0.420 . S
C1185 C459 0.586 . S
C1193 C59 0.440 . S
C1217 C490 0.510 . S
C1225 C99 0.464 . S
C1249 C419 0.379 . S
C1257 C139 0.499 . S
C1281 C170 0.515 . S
C1289 C610 0.480 . S
C1313 C370 0.691 . S
C1321 C210 0.678 . S
C1345 C250 0.422 . S
C1353 C570 0.474 . S
C1377 C290 0.620 . S
C1385 C330 0.681 . S
C1409 C19 1.477 1_455 S
C1417 C179 1.500 . S
C1441 C50 1.391 . S
C1449 C219 1.401 . S
C1473 C259 1.535 . S
C1481 C90 1.561 . S
C1505 C130 1.733 . S
C1513 C299 1.735 . S
C1537 C410 1.410 . S
C1545 C339 1.394 . S
C1569 C450 1.745 . S
C1577 C379 1.730 . S
C1601 C499 1.480 . S
C1609 C579 1.472 . S
C1633 C619 1.536 . S
C1641 C530 1.560 . S
C1665 C11 3.614 . S
C1673 C291 3.633 . S
C1697 C47 1.979 . S
C1705 C171 2.055 . S
C1729 C211 2.882 . S
C1737 C87 2.836 . S
C1761 C251 2.017 . S
C1769 C127 1.924 . S
C1793 C442 2.006 . S
C1801 C176 1.953 . S
C1825 C336 0.563 . S
C1833 C16 0.594 . S
C1857 C402 2.010 . S
C1865 C256 1.957 . S
C1889 C82 1.004 . S
C1897 C376 0.932 . S
C1921 C491 3.604 . S
C1929 C371 3.631 1_556 S
C1953 C571 2.039 . S
C1961 C407 1.982 . S
C1985 C527 2.811 . S
C1993 C331 2.889 . S
C2017 C611 2.007 . S
C2025 C447 1.946 . S
C2049 C576 1.958 . S
C2057 C122 2.016 . S
C2081 C216 0.482 . S
C2089 C496 0.567 . S
C2113 C42 2.022 . S
C2121 C616 1.936 . S
C2145 C522 0.959 . S
C2153 C296 0.967 . S
