# Generated by pormake.
# Topology vmv, (8)-cn, num edge types: 1
# Building blocks:
#     Node 0, Type 0, BuildingBlock: TAGTUT_clean_sbu_1, # of connection points: 8
#     Node 1, Type 0, BuildingBlock: TAGTUT_clean_sbu_1, # of connection points: 8
#     Node 2, Type 0, BuildingBlock: TAGTUT_clean_sbu_1, # of connection points: 8
#     Node 3, Type 0, BuildingBlock: TAGTUT_clean_sbu_1, # of connection points: 8
#     Edge 4, Type (0, 0), BuildingBlock: XIVTED_clean_linker_0, # of connection points: 2
#     Edge 5, Type (0, 0), BuildingBlock: XIVTED_clean_linker_0, # of connection points: 2
#     Edge 6, Type (0, 0), BuildingBlock: XIVTED_clean_linker_0, # of connection points: 2
#     Edge 7, Type (0, 0), BuildingBlock: XIVTED_clean_linker_0, # of connection points: 2
#     Edge 8, Type (0, 0), BuildingBlock: XIVTED_clean_linker_0, # of connection points: 2
#     Edge 9, Type (0, 0), BuildingBlock: XIVTED_clean_linker_0, # of connection points: 2
#     Edge 10, Type (0, 0), BuildingBlock: XIVTED_clean_linker_0, # of connection points: 2
#     Edge 11, Type (0, 0), BuildingBlock: XIVTED_clean_linker_0, # of connection points: 2
#     Edge 12, Type (0, 0), BuildingBlock: XIVTED_clean_linker_0, # of connection points: 2
#     Edge 13, Type (0, 0), BuildingBlock: XIVTED_clean_linker_0, # of connection points: 2
#     Edge 14, Type (0, 0), BuildingBlock: XIVTED_clean_linker_0, # of connection points: 2
#     Edge 15, Type (0, 0), BuildingBlock: XIVTED_clean_linker_0, # of connection points: 2
#     Edge 16, Type (0, 0), BuildingBlock: XIVTED_clean_linker_0, # of connection points: 2
#     Edge 17, Type (0, 0), BuildingBlock: XIVTED_clean_linker_0, # of connection points: 2
#     Edge 18, Type (0, 0), BuildingBlock: XIVTED_clean_linker_0, # of connection points: 2
#     Edge 19, Type (0, 0), BuildingBlock: XIVTED_clean_linker_0, # of connection points: 2
# Relax obj value: 0.290
# Max RMSD: 0.289
# Mean RMSD: 0.281
data_MOF--net-vmv--node1-TAGTUT_clean_sbu_1--edge1-XIVTED_clean_linker_0
_symmetry_space_group_name_H-M    P1
_symmetry_Int_Tables_number       1
_symmetry_cell_setting            triclinic
loop_
_symmetry_equiv_pos_as_xyz
'x, y, z'
_cell_length_a     16.297517
_cell_length_b     31.026636
_cell_length_c     31.888794
_cell_angle_alpha  90.482571
_cell_angle_beta   104.95791
_cell_angle_gamma 89.284473
loop_
_atom_site_label
_atom_site_type_symbol
_atom_site_fract_x
_atom_site_fract_y
_atom_site_fract_z
_atom_type_partial_charge
C0 C 0.35639 0.19461 0.79066 0.0
C1 C 0.55896 0.28624 0.81407 0.0
C2 C 0.34135 0.41386 0.75021 0.0
Mg3 Mg 0.45462 0.23926 0.7314 0.0
O4 O 0.36098 0.27772 0.72965 0.0
Mg5 Mg 0.34814 0.30592 0.78358 0.0
Mg6 Mg 0.35696 0.32797 0.69211 0.0
O7 O 0.35777 0.37666 0.65122 0.0
Mg8 Mg 0.28104 0.42215 0.64505 0.0
Mg9 Mg 0.34926 0.3395 0.59801 0.0
C10 C 0.3774 0.2478 0.62903 0.0
C11 C 0.53614 0.32819 0.66467 0.0
O12 O 0.32937 0.23129 0.80236 0.0
O13 O 0.40465 0.1919 0.76483 0.0
O14 O 0.48651 0.30041 0.8157 0.0
O15 O 0.56761 0.26302 0.78186 0.0
O16 O 0.42944 0.22602 0.65903 0.0
O17 O 0.34109 0.28202 0.63746 0.0
C18 C 0.17024 0.32314 0.71342 0.0
O19 O 0.21004 0.33086 0.68447 0.0
O20 O 0.20994 0.31265 0.75184 0.0
O21 O 0.36161 0.39959 0.56237 0.0
O22 O 0.3249 0.45828 0.59555 0.0
O23 O 0.20465 0.34724 0.57332 0.0
C24 C 0.35168 0.44021 0.56506 0.0
O25 O 0.16105 0.39495 0.61571 0.0
O26 O 0.30922 0.43434 0.71466 0.0
C27 C 0.14533 0.36845 0.58397 0.0
O28 O 0.36956 0.37446 0.75059 0.0
O29 O 0.50141 0.325 0.69648 0.0
O30 O 0.49171 0.3335 0.62557 0.0
C31 C 0.00488 0.73173 0.70819 0.0
C32 C 0.24838 0.70347 0.80015 0.0
C33 C 0.11207 0.76466 0.92416 0.0
Mg34 Mg 0.16234 0.78694 0.7549 0.0
O35 O 0.08896 0.78923 0.79286 0.0
Mg36 Mg 0.06184 0.73491 0.81876 0.0
Mg37 Mg 0.12808 0.82365 0.84608 0.0
O38 O 0.1703 0.86036 0.89889 0.0
Mg39 Mg 0.11744 0.86138 0.94461 0.0
Mg40 Mg 0.17842 0.916 0.8682 0.0
C41 C 0.15826 0.88988 0.77445 0.0
C42 C 0.32394 0.84957 0.85265 0.0
O43 O 0.99481 0.71891 0.74501 0.0
O44 O 0.06441 0.7572 0.70489 0.0
O45 O 0.18164 0.70172 0.81354 0.0
O46 O 0.26126 0.73563 0.7777 0.0
O47 O 0.1851 0.85899 0.75364 0.0
O48 O 0.12047 0.88236 0.80408 0.0
C49 C 0.92706 0.80402 0.83746 0.0
O50 O 0.98559 0.83233 0.84731 0.0
O51 O 0.94288 0.76628 0.82574 0.0
O52 O 0.24225 0.9421 0.93437 0.0
O53 O 0.22438 0.89793 0.98716 0.0
O54 O 0.05263 0.94488 0.87683 0.0
C55 C 0.25786 0.93117 0.97422 0.0
O56 O 0.01526 0.90519 0.92658 0.0
O57 O 0.06482 0.79622 0.92924 0.0
C58 C 0.00337 0.93734 0.90121 0.0
O59 O 0.1363 0.76214 0.88882 0.0
O60 O 0.27006 0.81868 0.84523 0.0
O61 O 0.30287 0.8877 0.8616 0.0
C62 C 0.62611 0.51851 0.35393 0.0
C63 C 0.85351 0.58385 0.39383 0.0
C64 C 0.6589 0.7227 0.40145 0.0
Mg65 Mg 0.72905 0.57467 0.3052 0.0
O66 O 0.65132 0.61452 0.32063 0.0
Mg67 Mg 0.65401 0.62157 0.38365 0.0
Mg68 Mg 0.65493 0.67734 0.30661 0.0
O69 O 0.66062 0.73921 0.29585 0.0
Mg70 Mg 0.57771 0.77326 0.3134 0.0
Mg71 Mg 0.66089 0.73574 0.2337 0.0
C72 C 0.66511 0.62565 0.22457 0.0
C73 C 0.84068 0.69542 0.2881 0.0
O74 O 0.62389 0.55112 0.3785 0.0
O75 O 0.65903 0.51924 0.32129 0.0
O76 O 0.79317 0.60098 0.40705 0.0
O77 O 0.84526 0.57549 0.35389 0.0
O78 O 0.73617 0.61548 0.25014 0.0
O79 O 0.62767 0.66036 0.23278 0.0
C80 C 0.47266 0.66177 0.3294 0.0
O81 O 0.5105 0.67966 0.30352 0.0
O82 O 0.51394 0.63914 0.36131 0.0
O83 O 0.68412 0.81135 0.24188 0.0
O84 O 0.62461 0.83219 0.29555 0.0
O85 O 0.52075 0.74879 0.21138 0.0
C86 C 0.66411 0.84066 0.26674 0.0
O87 O 0.45675 0.76361 0.26403 0.0
O88 O 0.61482 0.75589 0.38422 0.0
C89 C 0.45426 0.75649 0.22406 0.0
O90 O 0.68007 0.69319 0.3779 0.0
O91 O 0.80024 0.67539 0.31143 0.0
O92 O 0.80165 0.72004 0.25728 0.0
C93 C 0.74955 0.11591 0.06267 0.0
C94 C 0.99583 0.10236 0.14012 0.0
C95 C 0.83667 0.14996 0.26473 0.0
Mg96 Mg 0.89546 0.18247 0.09796 0.0
O97 O 0.83347 0.18417 0.14059 0.0
Mg98 Mg 0.81794 0.1279 0.16924 0.0
Mg99 Mg 0.87183 0.21967 0.19589 0.0
O100 O 0.90699 0.25071 0.2508 0.0
Mg101 Mg 0.83395 0.25004 0.28871 0.0
Mg102 Mg 0.94037 0.306 0.23086 0.0
C103 C 0.90061 0.27584 0.12264 0.0
C104 C 0.0768 0.23742 0.21233 0.0
O105 O 0.75876 0.10419 0.10191 0.0
O106 O 0.78835 0.14853 0.05209 0.0
O107 O 0.94285 0.0964 0.1628 0.0
O108 O 0.9919 0.1356 0.11668 0.0
O109 O 0.95071 0.24388 0.12545 0.0
O110 O 0.87117 0.28458 0.15581 0.0
C111 C 0.67258 0.19531 0.1836 0.0
O112 O 0.72746 0.22568 0.19326 0.0
O113 O 0.6935 0.15746 0.17384 0.0
O114 O 0.00704 0.31376 0.30777 0.0
O115 O 0.93051 0.27327 0.34199 0.0
O116 O 0.81585 0.33861 0.23481 0.0
C117 C 0.99482 0.29683 0.34271 0.0
O118 O 0.73571 0.30025 0.26744 0.0
O119 O 0.81102 0.17936 0.28737 0.0
C120 C 0.74783 0.33381 0.24687 0.0
O121 O 0.87265 0.15922 0.23478 0.0
O122 O 0.01759 0.20971 0.19993 0.0
O123 O 0.0606 0.27487 0.2247 0.0
H124 H 0.87501 0.57968 0.48178 0.0
H125 H 0.11443 0.3546 0.49656 0.0
H126 H 0.97073 0.52602 0.37793 0.0
H127 H 0.99551 0.40276 0.59395 0.0
H128 H 0.04308 0.41081 0.44766 0.0
H129 H 0.9204 0.5145 0.5235 0.0
C130 C 0.90785 0.5548 0.46817 0.0
C131 C 0.91591 0.55771 0.42548 0.0
C132 C 0.03094 0.40855 0.4794 0.0
C133 C 0.96572 0.48252 0.47264 0.0
C134 C 0.06988 0.37558 0.50706 0.0
C135 C 0.06563 0.37613 0.5505 0.0
C136 C 0.98628 0.44103 0.49538 0.0
C137 C 0.00412 0.40288 0.56139 0.0
C138 C 0.93184 0.51709 0.49165 0.0
C139 C 0.96095 0.52479 0.41022 0.0
N140 N 0.9697 0.43581 0.53472 0.0
N141 N 0.9826 0.48809 0.43344 0.0
H142 H 0.59124 0.14505 0.02333 0.0
H143 H 0.41805 0.90325 0.01211 0.0
H144 H 0.75291 0.03243 0.03869 0.0
H145 H 0.25609 0.01589 0.99391 0.0
H146 H 0.5424 0.95003 0.02553 0.0
H147 H 0.46678 0.09837 1.008 0.0
C148 C 0.60027 0.11053 0.02103 0.0
C149 C 0.68234 0.09258 0.03154 0.0
C150 C 0.47979 0.96461 0.01964 0.0
C151 C 0.54085 0.03878 0.017 0.0
C152 C 0.40898 0.93787 0.01326 0.0
C153 C 0.32688 0.95577 1.00279 0.0
C154 C 0.46813 0.00955 0.01524 0.0
C155 C 0.31852 1.00088 1.00278 0.0
C156 C 0.52935 0.08378 0.01359 0.0
C157 C 0.69054 0.04752 0.02993 0.0
N158 N 0.38804 0.02619 1.00824 0.0
N159 N 0.6209 0.02215 0.02366 0.0
H160 H 0.69517 0.45839 0.41338 0.0
H161 H 0.26028 0.45815 0.48338 0.0
H162 H 0.46033 0.49777 0.32468 0.0
H163 H 0.50866 0.46943 0.5713 0.0
H164 H 0.32451 0.46271 0.42183 0.0
H165 H 0.61796 0.44191 0.46733 0.0
C166 C 0.62643 0.46086 0.40419 0.0
C167 C 0.58423 0.48063 0.36511 0.0
C168 C 0.36462 0.46525 0.4546 0.0
C169 C 0.49611 0.46381 0.42699 0.0
C170 C 0.32783 0.46394 0.48962 0.0
C171 C 0.37922 0.46471 0.53234 0.0
C172 C 0.4534 0.46623 0.46267 0.0
C173 C 0.46678 0.47002 0.53883 0.0
C174 C 0.58276 0.45297 0.43558 0.0
C175 C 0.49521 0.48316 0.35486 0.0
N176 N 0.50135 0.46982 0.50439 0.0
N177 N 0.45403 0.4765 0.38627 0.0
H178 H 0.13592 0.09733 0.10751 0.0
H179 H 0.86139 0.93632 0.93258 0.0
H180 H 0.93394 0.02058 0.13092 0.0
H181 H 0.04933 0.02165 0.90749 0.0
H182 H 0.87749 0.97063 1.00333 0.0
H183 H 0.11579 0.06278 0.03665 0.0
C184 C 0.09026 0.07155 0.09874 0.0
C185 C 0.03214 0.06417 0.12359 0.0
C186 C 0.91427 0.98237 0.98204 0.0
C187 C 0.00699 0.02564 0.04259 0.0
C188 C 0.90271 0.96391 0.9409 0.0
C189 C 0.9593 0.97384 0.91585 0.0
C190 C 0.97978 0.0122 0.99655 0.0
C191 C 0.0082 0.01111 0.92711 0.0
C192 C 0.07656 0.05304 0.05756 0.0
C193 C 0.97704 0.02913 0.11162 0.0
N194 N 0.02093 0.02762 0.96778 0.0
N195 N 0.96275 0.01248 0.07091 0.0
H196 H 0.7057 0.23784 0.8474 0.0
H197 H 0.73981 0.31436 0.08944 0.0
H198 H 0.56617 0.34925 0.87449 0.0
H199 H 0.95497 0.26037 0.05085 0.0
H200 H 0.66551 0.32228 0.01169 0.0
H201 H 0.79282 0.24034 0.92306 0.0
C202 C 0.69481 0.26342 0.86871 0.0
C203 C 0.62805 0.29312 0.85443 0.0
C204 C 0.72929 0.30889 0.02064 0.0
C205 C 0.7245 0.29501 0.94135 0.0
C206 C 0.77158 0.30448 0.06495 0.0
C207 C 0.85332 0.28604 0.077 0.0
C208 C 0.76866 0.29418 0.98848 0.0
C209 C 0.89136 0.27396 0.04347 0.0
C210 C 0.74368 0.26454 0.91206 0.0
C211 C 0.61622 0.32525 0.88405 0.0
N212 N 0.84855 0.27761 1.00111 0.0
N213 N 0.6625 0.32482 0.92611 0.0
H214 H 0.61492 0.76714 0.46932 0.0
H215 H 0.0386 0.69051 0.63946 0.0
H216 H 0.79072 0.67221 0.44287 0.0
H217 H 0.83399 0.749 0.68305 0.0
H218 H 0.9447 0.68414 0.56653 0.0
H219 H 0.69001 0.76312 0.54725 0.0
C220 C 0.668 0.74498 0.47978 0.0
C221 C 0.6954 0.71939 0.44929 0.0
C222 C 0.91936 0.69772 0.59204 0.0
C223 C 0.7818 0.71504 0.53782 0.0
C224 C 0.97299 0.70103 0.63373 0.0
C225 C 0.9434 0.71953 0.66727 0.0
C226 C 0.83589 0.71427 0.5833 0.0
C227 C 0.8584 0.7337 0.65803 0.0
C228 C 0.71064 0.74261 0.5242 0.0
C229 C 0.76523 0.69159 0.46484 0.0
N230 N 0.80771 0.7314 0.61666 0.0
N231 N 0.80594 0.69044 0.50757 0.0
H232 H 0.2611 0.80363 0.96196 0.0
H233 H 0.35504 0.68907 0.1885 0.0
H234 H 0.09421 0.70332 0.98105 0.0
H235 H 0.38744 0.8255 0.17629 0.0
H236 H 0.27042 0.68656 0.11289 0.0
H237 H 0.33089 0.80267 0.03988 0.0
C238 C 0.24168 0.78013 0.98233 0.0
C239 C 0.17308 0.75288 0.96512 0.0
C240 C 0.29368 0.71727 0.12725 0.0
C241 C 0.25038 0.75255 0.05415 0.0
C242 C 0.34003 0.71896 0.17074 0.0
C243 C 0.37535 0.75795 0.18923 0.0
C244 C 0.286 0.75445 0.10178 0.0
C245 C 0.35894 0.79514 0.16365 0.0
C246 C 0.28009 0.78026 0.02684 0.0
C247 C 0.14822 0.72407 0.9931 0.0
N248 N 0.31706 0.79235 0.12094 0.0
N249 N 0.1869 0.72458 0.03639 0.0
H250 H 0.16924 0.3092 0.35792 0.0
H251 H 0.24764 0.19687 0.59006 0.0
H252 H 0.97523 0.28073 0.42326 0.0
H253 H 0.44149 0.27655 0.56271 0.0
H254 H 0.15793 0.21131 0.51739 0.0
H255 H 0.27814 0.28858 0.42452 0.0
C256 C 0.1494 0.29971 0.38637 0.0
C257 C 0.06243 0.29662 0.38463 0.0
C258 C 0.22109 0.22478 0.52675 0.0
C259 C 0.18636 0.2708 0.45981 0.0
C260 C 0.27345 0.21544 0.56789 0.0
C261 C 0.3526 0.23527 0.58265 0.0
C262 C 0.24799 0.25402 0.49971 0.0
C263 C 0.38114 0.26035 0.55267 0.0
C264 C 0.21157 0.28728 0.4241 0.0
C265 C 0.04104 0.28332 0.42255 0.0
N266 N 0.32838 0.26973 0.51289 0.0
N267 N 0.10204 0.27033 0.45796 0.0
H268 H 0.05096 0.32398 0.63386 0.0
H269 H 0.65789 0.325 0.74265 0.0
H270 H 0.0754 0.32874 0.77188 0.0
H271 H 0.62819 0.32839 0.60411 0.0
H272 H 0.81199 0.32502 0.75359 0.0
H273 H 0.89579 0.32577 0.62146 0.0
C274 C 0.02392 0.32588 0.66144 0.0
C275 C 0.07643 0.3263 0.70387 0.0
C276 C 0.77168 0.32575 0.72077 0.0
C277 C 0.89953 0.32748 0.69018 0.0
C278 C 0.68361 0.32558 0.71455 0.0
C279 C 0.62979 0.32672 0.67245 0.0
C280 C 0.80628 0.32701 0.68465 0.0
C281 C 0.66702 0.3276 0.63723 0.0
C282 C 0.9354 0.32655 0.65443 0.0
C283 C 0.03773 0.32803 0.73852 0.0
N284 N 0.75279 0.32775 0.64412 0.0
N285 N 0.95201 0.32843 0.7309 0.0
H286 H 0.4004 0.77384 0.83633 0.0
H287 H 0.85779 0.87987 0.86073 0.0
H288 H 0.45079 0.9088 0.8647 0.0
H289 H 0.79477 0.74847 0.8203 0.0
H290 H 0.71072 0.89135 0.8652 0.0
H291 H 0.54761 0.76375 0.83307 0.0
C292 C 0.44219 0.80132 0.8418 0.0
C293 C 0.41285 0.84217 0.85067 0.0
C294 C 0.7295 0.86006 0.85532 0.0
C295 C 0.58176 0.83095 0.84723 0.0
C296 C 0.8134 0.85355 0.85281 0.0
C297 C 0.83905 0.81322 0.84017 0.0
C298 C 0.67129 0.82595 0.84518 0.0
C299 C 0.77849 0.78021 0.83021 0.0
C300 C 0.52636 0.7956 0.83999 0.0
C301 C 0.47036 0.87663 0.85776 0.0
N302 N 0.69793 0.78731 0.83298 0.0
N303 N 0.55191 0.87024 0.8559 0.0
H304 H 0.95265 0.65033 0.35329 0.0
H305 H 0.35607 0.69967 0.2616 0.0
H306 H 0.9423 0.72744 0.2399 0.0
H307 H 0.3753 0.63452 0.38253 0.0
H308 H 0.20326 0.70782 0.25195 0.0
H309 H 0.10641 0.6416 0.36363 0.0
C310 C 0.98246 0.66538 0.33057 0.0
C311 C 0.93409 0.68965 0.29567 0.0
C312 C 0.24085 0.69184 0.28072 0.0
C313 C 0.1101 0.67978 0.30728 0.0
C314 C 0.3284 0.68738 0.28623 0.0
C315 C 0.37926 0.66687 0.32295 0.0
C316 C 0.20321 0.6754 0.31218 0.0
C317 C 0.33903 0.65074 0.35362 0.0
C318 C 0.07032 0.66045 0.33653 0.0
C319 C 0.97658 0.7085 0.26735 0.0
N320 N 0.2536 0.65535 0.34756 0.0
N321 N 0.06175 0.70311 0.27375 0.0
H322 H 0.21545 0.28673 0.24571 0.0
H323 H 0.54092 0.13908 0.15889 0.0
H324 H 0.14112 0.1686 0.17413 0.0
H325 H 0.59919 0.26694 0.2119 0.0
H326 H 0.39674 0.14768 0.16631 0.0
H327 H 0.35815 0.27723 0.23725 0.0
C328 C 0.22902 0.25856 0.22826 0.0
C329 C 0.16541 0.22851 0.21029 0.0
C330 C 0.44091 0.1739 0.17625 0.0
C331 C 0.33042 0.21761 0.20044 0.0
C332 C 0.52358 0.16913 0.17205 0.0
C333 C 0.58315 0.20228 0.18525 0.0
C334 C 0.4171 0.21202 0.19403 0.0
C335 C 0.55609 0.24042 0.20168 0.0
C336 C 0.3109 0.25331 0.22336 0.0
C337 C 0.18783 0.19257 0.18847 0.0
N338 N 0.47522 0.24413 0.20584 0.0
N339 N 0.26856 0.18817 0.18404 0.0
H340 H 0.19433 0.17022 0.79188 0.0
H341 H 0.31111 0.92084 0.76561 0.0
H342 H 0.45023 0.12164 0.81144 0.0
H343 H 0.0674 0.96228 0.78142 0.0
H344 H 0.3598 0.9958 0.7766 0.0
H345 H 0.14362 0.09536 0.78687 0.0
C346 C 0.24009 0.14393 0.79674 0.0
C347 C 0.3267 0.15229 0.80234 0.0
C348 C 0.29533 0.98855 0.77724 0.0
C349 C 0.26902 0.0667 0.79447 0.0
C350 C 0.2672 0.94584 0.77021 0.0
C351 C 0.18478 0.93533 0.77205 0.0
C352 C 0.24043 0.02109 0.78575 0.0
C353 C 0.13133 0.96901 0.77943 0.0
C354 C 0.21108 0.10116 0.79307 0.0
C355 C 0.38288 0.11674 0.80716 0.0
N356 N 0.15988 0.0102 0.78595 0.0
N357 N 0.35313 0.07577 0.80248 0.0
H358 H 0.49069 0.45493 0.77466 0.0
H359 H 0.35641 0.66928 0.75309 0.0
H360 H 0.24819 0.44512 0.80381 0.0
H361 H 0.26332 0.64661 0.86586 0.0
H362 H 0.41034 0.59435 0.75788 0.0
H363 H 0.4967 0.53115 0.79628 0.0
C364 C 0.44131 0.46798 0.78842 0.0
C365 C 0.36878 0.44343 0.78749 0.0
C366 C 0.38039 0.60638 0.78233 0.0
C367 C 0.37427 0.53091 0.81112 0.0
C368 C 0.3499 0.64923 0.77965 0.0
C369 C 0.30416 0.66427 0.80869 0.0
C370 C 0.36376 0.57849 0.81382 0.0
C371 C 0.2968 0.63634 0.8422 0.0
C372 C 0.44376 0.51186 0.79949 0.0
C373 C 0.30563 0.46256 0.80442 0.0
N374 N 0.32376 0.59468 0.84305 0.0
N375 N 0.30917 0.50531 0.8149 0.0
H376 H 0.59257 0.91088 0.29532 0.0
H377 H 0.91522 0.0797 0.2408 0.0
H378 H 0.78609 0.87518 0.23072 0.0
H379 H 0.70809 0.11578 0.29554 0.0
H380 H 0.87149 1.00474 0.23845 0.0
H381 H 0.63496 0.98562 0.2959 0.0
C382 C 0.64411 0.91873 0.28111 0.0
C383 C 0.6864 0.88644 0.26324 0.0
C384 C 0.83556 0.02893 0.25103 0.0
C385 C 0.73556 0.97269 0.26405 0.0
C386 C 0.86041 0.07182 0.25239 0.0
C387 C 0.81469 0.10419 0.26801 0.0
C388 C 0.76455 0.01803 0.26566 0.0
C389 C 0.74533 0.09193 0.28339 0.0
C390 C 0.66819 0.96161 0.28148 0.0
C391 C 0.75177 0.89891 0.24483 0.0
N392 N 0.72217 0.0498 0.28167 0.0
N393 N 0.77478 0.94109 0.24598 0.0
H394 H 0.67056 0.36089 0.16592 0.0
H395 H 0.67992 0.5772 0.15696 0.0
H396 H 0.68428 0.38768 0.30025 0.0
H397 H 0.54348 0.5841 0.25578 0.0
H398 H 0.66159 0.49966 0.15301 0.0
H399 H 0.60309 0.43132 0.14632 0.0
C400 C 0.65688 0.38121 0.19115 0.0
C401 C 0.68323 0.36858 0.23475 0.0
C402 C 0.63212 0.51793 0.17436 0.0
C403 C 0.61036 0.45037 0.21289 0.0
C404 C 0.64198 0.56258 0.17626 0.0
C405 C 0.61457 0.58716 0.20722 0.0
C406 C 0.59573 0.49741 0.20427 0.0
C407 C 0.56722 0.56627 0.23202 0.0
C408 C 0.61944 0.42166 0.18003 0.0
C409 C 0.66453 0.39616 0.26623 0.0
N410 N 0.56203 0.52235 0.23121 0.0
N411 N 0.63074 0.4362 0.25479 0.0
loop_
_geom_bond_atom_site_label_1
_geom_bond_atom_site_label_2
_geom_bond_distance
_geom_bond_site_symmetry_2
_ccdc_geom_bond_type
C0 O12 1.241 . S
C0 O13 1.280 . S
C1 O14 1.277 . S
C1 O15 1.245 . S
C2 O26 1.247 . S
C2 O28 1.289 . S
Mg3 O4 1.926 . S
Mg3 O13 1.984 . S
Mg3 O15 1.988 . S
Mg3 O16 2.061 . S
O4 Mg3 1.926 . S
O4 Mg5 1.986 . S
O4 Mg6 1.917 . S
Mg5 O4 1.986 . S
Mg5 O12 2.042 . S
Mg5 O14 2.041 . S
Mg5 O20 2.038 . S
Mg5 O28 2.238 . S
Mg6 O4 1.917 . S
Mg6 O7 1.917 . S
Mg6 O17 2.106 . S
Mg6 O19 2.079 . S
Mg6 O28 2.106 . S
Mg6 O29 2.079 . S
O7 Mg6 1.917 . S
O7 Mg8 1.926 . S
O7 Mg9 1.986 . S
Mg8 O7 1.926 . S
Mg8 O22 1.984 . S
Mg8 O25 1.988 . S
Mg8 O26 2.061 . S
Mg9 O7 1.986 . S
Mg9 O17 2.238 . S
Mg9 O21 2.042 . S
Mg9 O23 2.041 . S
Mg9 O30 2.038 . S
C10 O16 1.247 . S
C10 O17 1.289 . S
C11 O29 1.245 . S
C11 O30 1.274 . S
O12 C0 1.241 . S
O12 Mg5 2.042 . S
O13 C0 1.280 . S
O13 Mg3 1.984 . S
O14 C1 1.277 . S
O14 Mg5 2.041 . S
O15 C1 1.245 . S
O15 Mg3 1.988 . S
O16 Mg3 2.061 . S
O16 C10 1.247 . S
O17 Mg6 2.106 . S
O17 Mg9 2.238 . S
O17 C10 1.289 . S
C18 O19 1.245 . S
C18 O20 1.274 . S
O19 Mg6 2.079 . S
O19 C18 1.245 . S
O20 Mg5 2.038 . S
O20 C18 1.274 . S
O21 Mg9 2.042 . S
O21 C24 1.241 . S
O22 Mg8 1.984 . S
O22 C24 1.280 . S
O23 Mg9 2.041 . S
O23 C27 1.277 . S
C24 O21 1.241 . S
C24 O22 1.280 . S
O25 Mg8 1.988 . S
O25 C27 1.245 . S
O26 C2 1.247 . S
O26 Mg8 2.061 . S
C27 O23 1.277 . S
C27 O25 1.245 . S
O28 C2 1.289 . S
O28 Mg5 2.238 . S
O28 Mg6 2.106 . S
O29 Mg6 2.079 . S
O29 C11 1.245 . S
O30 Mg9 2.038 . S
O30 C11 1.274 . S
C31 O43 1.241 . S
C31 O44 1.280 . S
C32 O45 1.277 . S
C32 O46 1.245 . S
C33 O57 1.247 . S
C33 O59 1.289 . S
Mg34 O35 1.926 . S
Mg34 O44 1.984 . S
Mg34 O46 1.988 . S
Mg34 O47 2.061 . S
O35 Mg34 1.926 . S
O35 Mg36 1.986 . S
O35 Mg37 1.917 . S
Mg36 O35 1.986 . S
Mg36 O43 2.042 . S
Mg36 O45 2.041 . S
Mg36 O51 2.038 . S
Mg36 O59 2.238 . S
Mg37 O35 1.917 . S
Mg37 O38 1.917 . S
Mg37 O48 2.106 . S
Mg37 O50 2.079 . S
Mg37 O59 2.106 . S
Mg37 O60 2.079 . S
O38 Mg37 1.917 . S
O38 Mg39 1.926 . S
O38 Mg40 1.986 . S
Mg39 O38 1.926 . S
Mg39 O53 1.984 . S
Mg39 O56 1.988 . S
Mg39 O57 2.061 . S
Mg40 O38 1.986 . S
Mg40 O48 2.238 . S
Mg40 O52 2.042 . S
Mg40 O54 2.041 . S
Mg40 O61 2.038 . S
C41 O47 1.247 . S
C41 O48 1.289 . S
C42 O60 1.245 . S
C42 O61 1.274 . S
O43 C31 1.241 . S
O43 Mg36 2.042 . S
O44 C31 1.280 . S
O44 Mg34 1.984 . S
O45 C32 1.277 . S
O45 Mg36 2.041 . S
O46 C32 1.245 . S
O46 Mg34 1.988 . S
O47 Mg34 2.061 . S
O47 C41 1.247 . S
O48 Mg37 2.106 . S
O48 Mg40 2.238 . S
O48 C41 1.289 . S
C49 O50 1.245 . S
C49 O51 1.274 . S
O50 Mg37 2.079 . S
O50 C49 1.245 . S
O51 Mg36 2.038 . S
O51 C49 1.274 . S
O52 Mg40 2.042 . S
O52 C55 1.241 . S
O53 Mg39 1.984 . S
O53 C55 1.280 . S
O54 Mg40 2.041 . S
O54 C58 1.277 . S
C55 O52 1.241 . S
C55 O53 1.280 . S
O56 Mg39 1.988 . S
O56 C58 1.245 . S
O57 C33 1.247 . S
O57 Mg39 2.061 . S
C58 O54 1.277 . S
C58 O56 1.245 . S
O59 C33 1.289 . S
O59 Mg36 2.238 . S
O59 Mg37 2.106 . S
O60 Mg37 2.079 . S
O60 C42 1.245 . S
O61 Mg40 2.038 . S
O61 C42 1.274 . S
C62 O74 1.241 . S
C62 O75 1.280 . S
C63 O76 1.277 . S
C63 O77 1.245 . S
C64 O88 1.247 . S
C64 O90 1.289 . S
Mg65 O66 1.926 . S
Mg65 O75 1.984 . S
Mg65 O77 1.988 . S
Mg65 O78 2.061 . S
O66 Mg65 1.926 . S
O66 Mg67 1.986 . S
O66 Mg68 1.917 . S
Mg67 O66 1.986 . S
Mg67 O74 2.042 . S
Mg67 O76 2.041 . S
Mg67 O82 2.038 . S
Mg67 O90 2.238 . S
Mg68 O66 1.917 . S
Mg68 O69 1.917 . S
Mg68 O79 2.106 . S
Mg68 O81 2.079 . S
Mg68 O90 2.106 . S
Mg68 O91 2.079 . S
O69 Mg68 1.917 . S
O69 Mg70 1.926 . S
O69 Mg71 1.986 . S
Mg70 O69 1.926 . S
Mg70 O84 1.984 . S
Mg70 O87 1.988 . S
Mg70 O88 2.061 . S
Mg71 O69 1.986 . S
Mg71 O79 2.238 . S
Mg71 O83 2.042 . S
Mg71 O85 2.041 . S
Mg71 O92 2.038 . S
C72 O78 1.247 . S
C72 O79 1.289 . S
C73 O91 1.245 . S
C73 O92 1.274 . S
O74 C62 1.241 . S
O74 Mg67 2.042 . S
O75 C62 1.280 . S
O75 Mg65 1.984 . S
O76 C63 1.277 . S
O76 Mg67 2.041 . S
O77 C63 1.245 . S
O77 Mg65 1.988 . S
O78 Mg65 2.061 . S
O78 C72 1.247 . S
O79 Mg68 2.106 . S
O79 Mg71 2.238 . S
O79 C72 1.289 . S
C80 O81 1.245 . S
C80 O82 1.274 . S
O81 Mg68 2.079 . S
O81 C80 1.245 . S
O82 Mg67 2.038 . S
O82 C80 1.274 . S
O83 Mg71 2.042 . S
O83 C86 1.241 . S
O84 Mg70 1.984 . S
O84 C86 1.280 . S
O85 Mg71 2.041 . S
O85 C89 1.277 . S
C86 O83 1.241 . S
C86 O84 1.280 . S
O87 Mg70 1.988 . S
O87 C89 1.245 . S
O88 C64 1.247 . S
O88 Mg70 2.061 . S
C89 O85 1.277 . S
C89 O87 1.245 . S
O90 C64 1.289 . S
O90 Mg67 2.238 . S
O90 Mg68 2.106 . S
O91 Mg68 2.079 . S
O91 C73 1.245 . S
O92 Mg71 2.038 . S
O92 C73 1.274 . S
C93 O105 1.241 . S
C93 O106 1.280 . S
C94 O107 1.277 . S
C94 O108 1.245 . S
C95 O119 1.247 . S
C95 O121 1.289 . S
Mg96 O97 1.926 . S
Mg96 O106 1.984 . S
Mg96 O108 1.988 . S
Mg96 O109 2.061 . S
O97 Mg96 1.926 . S
O97 Mg98 1.986 . S
O97 Mg99 1.917 . S
Mg98 O97 1.986 . S
Mg98 O105 2.042 . S
Mg98 O107 2.041 . S
Mg98 O113 2.038 . S
Mg98 O121 2.238 . S
Mg99 O97 1.917 . S
Mg99 O100 1.917 . S
Mg99 O110 2.106 . S
Mg99 O112 2.079 . S
Mg99 O121 2.106 . S
Mg99 O122 2.079 . S
O100 Mg99 1.917 . S
O100 Mg101 1.926 . S
O100 Mg102 1.986 . S
Mg101 O100 1.926 . S
Mg101 O115 1.984 . S
Mg101 O118 1.988 . S
Mg101 O119 2.061 . S
Mg102 O100 1.986 . S
Mg102 O110 2.238 . S
Mg102 O114 2.042 . S
Mg102 O116 2.041 . S
Mg102 O123 2.038 . S
C103 O109 1.247 . S
C103 O110 1.289 . S
C104 O122 1.245 . S
C104 O123 1.274 . S
O105 C93 1.241 . S
O105 Mg98 2.042 . S
O106 C93 1.280 . S
O106 Mg96 1.984 . S
O107 C94 1.277 . S
O107 Mg98 2.041 . S
O108 C94 1.245 . S
O108 Mg96 1.988 . S
O109 Mg96 2.061 . S
O109 C103 1.247 . S
O110 Mg99 2.106 . S
O110 Mg102 2.238 . S
O110 C103 1.289 . S
C111 O112 1.245 . S
C111 O113 1.274 . S
O112 Mg99 2.079 . S
O112 C111 1.245 . S
O113 Mg98 2.038 . S
O113 C111 1.274 . S
O114 Mg102 2.042 . S
O114 C117 1.241 . S
O115 Mg101 1.984 . S
O115 C117 1.280 . S
O116 Mg102 2.041 . S
O116 C120 1.277 . S
C117 O114 1.241 . S
C117 O115 1.280 . S
O118 Mg101 1.988 . S
O118 C120 1.245 . S
O119 C95 1.247 . S
O119 Mg101 2.061 . S
C120 O116 1.277 . S
C120 O118 1.245 . S
O121 C95 1.289 . S
O121 Mg98 2.238 . S
O121 Mg99 2.106 . S
O122 Mg99 2.079 . S
O122 C104 1.245 . S
O123 Mg102 2.038 . S
O123 C104 1.274 . S
H124 C130 0.930 . S
H125 C134 0.930 . S
H126 C139 0.929 . S
H127 C137 0.929 . S
H128 C132 0.929 . S
H129 C138 0.929 . S
C130 H124 0.930 . S
C130 C131 1.367 . S
C130 C138 1.378 . S
C131 C130 1.367 . S
C131 C139 1.433 . S
C132 H128 0.929 . S
C132 C134 1.378 . S
C132 C136 1.350 . S
C133 C136 1.463 1_655 S
C133 C138 1.350 . S
C133 N141 1.427 . S
C134 H125 0.930 . S
C134 C132 1.378 . S
C134 C135 1.367 . S
C135 C134 1.367 . S
C135 C137 1.433 . S
C136 C132 1.350 . S
C136 C133 1.463 1_455 S
C136 N140 1.427 . S
C137 H127 0.929 . S
C137 C135 1.433 . S
C137 N140 1.384 . S
C138 H129 0.929 . S
C138 C130 1.378 . S
C138 C133 1.350 . S
C139 H126 0.929 . S
C139 C131 1.433 . S
C139 N141 1.384 . S
N140 C136 1.427 . S
N140 C137 1.384 . S
N141 C133 1.427 . S
N141 C139 1.384 . S
H142 C148 0.930 . S
H143 C152 0.930 . S
H144 C157 0.929 . S
H145 C155 0.929 . S
H146 C150 0.929 . S
H147 C156 0.929 . S
C148 H142 0.930 . S
C148 C149 1.367 . S
C148 C156 1.378 . S
C149 C148 1.367 . S
C149 C157 1.433 1_554 S
C150 H146 0.929 . S
C150 C152 1.378 . S
C150 C154 1.350 . S
C151 C154 1.463 1_544 S
C151 C156 1.350 . S
C151 N159 1.427 1_554 S
C152 H143 0.930 . S
C152 C150 1.378 . S
C152 C153 1.367 . S
C153 C152 1.367 . S
C153 C155 1.433 1_556 S
C154 C150 1.350 . S
C154 C151 1.463 1_566 S
C154 N158 1.427 1_556 S
C155 H145 0.929 . S
C155 C153 1.433 1_554 S
C155 N158 1.384 . S
C156 H147 0.929 . S
C156 C148 1.378 . S
C156 C151 1.350 . S
C157 H144 0.929 . S
C157 C149 1.433 1_556 S
C157 N159 1.384 . S
N158 C154 1.427 1_554 S
N158 C155 1.384 . S
N159 C151 1.427 1_556 S
N159 C157 1.384 . S
H160 C166 0.930 . S
H161 C170 0.930 . S
H162 C175 0.929 . S
H163 C173 0.929 . S
H164 C168 0.929 . S
H165 C174 0.929 . S
C166 H160 0.930 . S
C166 C167 1.367 . S
C166 C174 1.378 . S
C167 C166 1.367 . S
C167 C175 1.433 . S
C168 H164 0.929 . S
C168 C170 1.378 . S
C168 C172 1.350 . S
C169 C172 1.463 . S
C169 C174 1.350 . S
C169 N177 1.427 . S
C170 H161 0.930 . S
C170 C168 1.378 . S
C170 C171 1.367 . S
C171 C170 1.367 . S
C171 C173 1.433 . S
C172 C168 1.350 . S
C172 C169 1.463 . S
C172 N176 1.427 . S
C173 H163 0.929 . S
C173 C171 1.433 . S
C173 N176 1.384 . S
C174 H165 0.929 . S
C174 C166 1.378 . S
C174 C169 1.350 . S
C175 H162 0.929 . S
C175 C167 1.433 . S
C175 N177 1.384 . S
N176 C172 1.427 . S
N176 C173 1.384 . S
N177 C169 1.427 . S
N177 C175 1.384 . S
H178 C184 0.930 . S
H179 C188 0.930 . S
H180 C193 0.929 . S
H181 C191 0.929 . S
H182 C186 0.929 1_655 S
H183 C192 0.929 1_455 S
C184 H178 0.930 . S
C184 C185 1.367 . S
C184 C192 1.378 . S
C185 C184 1.367 . S
C185 C193 1.433 1_545 S
C186 H182 0.929 1_455 S
C186 C188 1.378 . S
C186 C190 1.350 . S
C187 C190 1.463 1_644 S
C187 C192 1.350 . S
C187 N195 1.427 1_545 S
C188 H179 0.930 . S
C188 C186 1.378 . S
C188 C189 1.367 . S
C189 C188 1.367 . S
C189 C191 1.433 1_565 S
C190 C186 1.350 . S
C190 C187 1.463 1_466 S
C190 N194 1.427 1_565 S
C191 H181 0.929 . S
C191 C189 1.433 1_545 S
C191 N194 1.384 . S
C192 H183 0.929 1_655 S
C192 C184 1.378 . S
C192 C187 1.350 . S
C193 H180 0.929 . S
C193 C185 1.433 1_565 S
C193 N195 1.384 . S
N194 C190 1.427 1_545 S
N194 C191 1.384 . S
N195 C187 1.427 1_565 S
N195 C193 1.384 . S
H196 C202 0.930 . S
H197 C206 0.930 . S
H198 C211 0.929 . S
H199 C209 0.929 1_554 S
H200 C204 0.929 . S
H201 C210 0.929 . S
C202 H196 0.930 . S
C202 C203 1.367 . S
C202 C210 1.378 . S
C203 C202 1.367 . S
C203 C211 1.433 . S
C204 H200 0.929 . S
C204 C206 1.378 1_556 S
C204 C208 1.350 . S
C205 C208 1.463 . S
C205 C210 1.350 . S
C205 N213 1.427 . S
C206 H197 0.930 . S
C206 C204 1.378 1_554 S
C206 C207 1.367 . S
C207 C206 1.367 . S
C207 C209 1.433 1_554 S
C208 C204 1.350 . S
C208 C205 1.463 . S
C208 N212 1.427 . S
C209 H199 0.929 1_556 S
C209 C207 1.433 1_556 S
C209 N212 1.384 . S
C210 H201 0.929 . S
C210 C202 1.378 . S
C210 C205 1.350 . S
C211 H198 0.929 . S
C211 C203 1.433 . S
C211 N213 1.384 . S
N212 C208 1.427 . S
N212 C209 1.384 . S
N213 C205 1.427 . S
N213 C211 1.384 . S
H214 C220 0.930 . S
H215 C224 0.930 1_455 S
H216 C229 0.929 . S
H217 C227 0.929 . S
H218 C222 0.929 . S
H219 C228 0.929 . S
C220 H214 0.930 . S
C220 C221 1.367 . S
C220 C228 1.378 . S
C221 C220 1.367 . S
C221 C229 1.433 . S
C222 H218 0.929 . S
C222 C224 1.378 . S
C222 C226 1.350 . S
C223 C226 1.463 . S
C223 C228 1.350 . S
C223 N231 1.427 . S
C224 H215 0.930 1_655 S
C224 C222 1.378 . S
C224 C225 1.367 . S
C225 C224 1.367 . S
C225 C227 1.433 . S
C226 C222 1.350 . S
C226 C223 1.463 . S
C226 N230 1.427 . S
C227 H217 0.929 . S
C227 C225 1.433 . S
C227 N230 1.384 . S
C228 H219 0.929 . S
C228 C220 1.378 . S
C228 C223 1.350 . S
C229 H216 0.929 . S
C229 C221 1.433 . S
C229 N231 1.384 . S
N230 C226 1.427 . S
N230 C227 1.384 . S
N231 C223 1.427 . S
N231 C229 1.384 . S
H232 C238 0.930 . S
H233 C242 0.930 . S
H234 C247 0.929 . S
H235 C245 0.929 . S
H236 C240 0.929 . S
H237 C246 0.929 . S
C238 H232 0.930 . S
C238 C239 1.367 . S
C238 C246 1.378 1_556 S
C239 C238 1.367 . S
C239 C247 1.433 . S
C240 H236 0.929 . S
C240 C242 1.378 . S
C240 C244 1.350 . S
C241 C244 1.463 . S
C241 C246 1.350 . S
C241 N249 1.427 . S
C242 H233 0.930 . S
C242 C240 1.378 . S
C242 C243 1.367 . S
C243 C242 1.367 . S
C243 C245 1.433 . S
C244 C240 1.350 . S
C244 C241 1.463 . S
C244 N248 1.427 . S
C245 H235 0.929 . S
C245 C243 1.433 . S
C245 N248 1.384 . S
C246 H237 0.929 . S
C246 C238 1.378 1_554 S
C246 C241 1.350 . S
C247 H234 0.929 . S
C247 C239 1.433 . S
C247 N249 1.384 1_556 S
N248 C244 1.427 . S
N248 C245 1.384 . S
N249 C241 1.427 . S
N249 C247 1.384 1_554 S
H250 C256 0.930 . S
H251 C260 0.930 . S
H252 C265 0.929 . S
H253 C263 0.929 . S
H254 C258 0.929 . S
H255 C264 0.929 . S
C256 H250 0.930 . S
C256 C257 1.367 . S
C256 C264 1.378 . S
C257 C256 1.367 . S
C257 C265 1.433 . S
C258 H254 0.929 . S
C258 C260 1.378 . S
C258 C262 1.350 . S
C259 C262 1.463 . S
C259 C264 1.350 . S
C259 N267 1.427 . S
C260 H251 0.930 . S
C260 C258 1.378 . S
C260 C261 1.367 . S
C261 C260 1.367 . S
C261 C263 1.433 . S
C262 C258 1.350 . S
C262 C259 1.463 . S
C262 N266 1.427 . S
C263 H253 0.929 . S
C263 C261 1.433 . S
C263 N266 1.384 . S
C264 H255 0.929 . S
C264 C256 1.378 . S
C264 C259 1.350 . S
C265 H252 0.929 . S
C265 C257 1.433 . S
C265 N267 1.384 . S
N266 C262 1.427 . S
N266 C263 1.384 . S
N267 C259 1.427 . S
N267 C265 1.384 . S
H268 C274 0.930 . S
H269 C278 0.930 . S
H270 C283 0.929 . S
H271 C281 0.929 . S
H272 C276 0.929 . S
H273 C282 0.929 . S
C274 H268 0.930 . S
C274 C275 1.362 1_655 S
C274 C282 1.378 . S
C275 C274 1.362 1_455 S
C275 C283 1.429 1_455 S
C276 H272 0.929 . S
C276 C278 1.378 . S
C276 C280 1.350 . S
C277 C280 1.463 . S
C277 C282 1.350 . S
C277 N285 1.427 . S
C278 H269 0.930 . S
C278 C276 1.378 . S
C278 C279 1.367 . S
C279 C278 1.367 . S
C279 C281 1.433 . S
C280 C276 1.350 . S
C280 C277 1.463 . S
C280 N284 1.427 . S
C281 H271 0.929 . S
C281 C279 1.433 . S
C281 N284 1.384 . S
C282 H273 0.929 . S
C282 C274 1.378 . S
C282 C277 1.350 . S
C283 H270 0.929 . S
C283 C275 1.429 1_655 S
C283 N285 1.384 . S
N284 C280 1.427 . S
N284 C281 1.384 . S
N285 C277 1.427 . S
N285 C283 1.384 . S
H286 C292 0.930 . S
H287 C296 0.930 . S
H288 C301 0.929 . S
H289 C299 0.929 . S
H290 C294 0.929 . S
H291 C300 0.929 . S
C292 H286 0.930 . S
C292 C293 1.367 . S
C292 C300 1.378 . S
C293 C292 1.367 . S
C293 C301 1.433 . S
C294 H290 0.929 . S
C294 C296 1.378 . S
C294 C298 1.350 . S
C295 C298 1.463 . S
C295 C300 1.350 . S
C295 N303 1.427 . S
C296 H287 0.930 . S
C296 C294 1.378 . S
C296 C297 1.367 . S
C297 C296 1.367 . S
C297 C299 1.433 . S
C298 C294 1.350 . S
C298 C295 1.463 . S
C298 N302 1.427 . S
C299 H289 0.929 . S
C299 C297 1.433 . S
C299 N302 1.384 . S
C300 H291 0.929 . S
C300 C292 1.378 . S
C300 C295 1.350 . S
C301 H288 0.929 . S
C301 C293 1.433 . S
C301 N303 1.384 . S
N302 C298 1.427 . S
N302 C299 1.384 . S
N303 C295 1.427 . S
N303 C301 1.384 . S
H304 C310 0.930 . S
H305 C314 0.930 . S
H306 C319 0.933 . S
H307 C317 0.929 . S
H308 C312 0.929 . S
H309 C318 0.929 . S
C310 H304 0.930 . S
C310 C311 1.363 1_455 S
C310 C318 1.378 . S
C311 C310 1.363 1_655 S
C311 C319 1.429 1_655 S
C312 H308 0.929 . S
C312 C314 1.378 . S
C312 C316 1.350 . S
C313 C316 1.463 . S
C313 C318 1.350 . S
C313 N321 1.427 . S
C314 H305 0.930 . S
C314 C312 1.378 . S
C314 C315 1.367 . S
C315 C314 1.367 . S
C315 C317 1.433 . S
C316 C312 1.350 . S
C316 C313 1.463 . S
C316 N320 1.427 . S
C317 H307 0.929 . S
C317 C315 1.433 . S
C317 N320 1.384 . S
C318 H309 0.929 . S
C318 C310 1.378 . S
C318 C313 1.350 . S
C319 H306 0.933 . S
C319 C311 1.429 1_455 S
C319 N321 1.384 . S
N320 C316 1.427 . S
N320 C317 1.384 . S
N321 C313 1.427 . S
N321 C319 1.384 . S
H322 C328 0.930 . S
H323 C332 0.930 . S
H324 C337 0.929 . S
H325 C335 0.929 . S
H326 C330 0.929 . S
H327 C336 0.929 . S
C328 H322 0.930 . S
C328 C329 1.367 . S
C328 C336 1.378 . S
C329 C328 1.367 . S
C329 C337 1.433 . S
C330 H326 0.929 . S
C330 C332 1.378 . S
C330 C334 1.350 . S
C331 C334 1.463 . S
C331 C336 1.350 . S
C331 N339 1.427 . S
C332 H323 0.930 . S
C332 C330 1.378 . S
C332 C333 1.367 . S
C333 C332 1.367 . S
C333 C335 1.433 . S
C334 C330 1.350 . S
C334 C331 1.463 . S
C334 N338 1.427 . S
C335 H325 0.929 . S
C335 C333 1.433 . S
C335 N338 1.384 . S
C336 H327 0.929 . S
C336 C328 1.378 . S
C336 C331 1.350 . S
C337 H324 0.929 . S
C337 C329 1.433 . S
C337 N339 1.384 . S
N338 C334 1.427 . S
N338 C335 1.384 . S
N339 C331 1.427 . S
N339 C337 1.384 . S
H340 C346 0.930 . S
H341 C350 0.930 . S
H342 C355 0.929 . S
H343 C353 0.929 . S
H344 C348 0.929 . S
H345 C354 0.929 . S
C346 H340 0.930 . S
C346 C347 1.367 . S
C346 C354 1.378 . S
C347 C346 1.367 . S
C347 C355 1.433 . S
C348 H344 0.929 . S
C348 C350 1.378 1_545 S
C348 C352 1.350 . S
C349 C352 1.463 . S
C349 C354 1.350 . S
C349 N357 1.427 . S
C350 H341 0.930 . S
C350 C348 1.378 1_565 S
C350 C351 1.367 . S
C351 C350 1.367 . S
C351 C353 1.433 . S
C352 C348 1.350 . S
C352 C349 1.463 . S
C352 N356 1.427 . S
C353 H343 0.929 . S
C353 C351 1.433 . S
C353 N356 1.384 1_565 S
C354 H345 0.929 . S
C354 C346 1.378 . S
C354 C349 1.350 . S
C355 H342 0.929 . S
C355 C347 1.433 . S
C355 N357 1.384 . S
N356 C352 1.427 . S
N356 C353 1.384 1_545 S
N357 C349 1.427 . S
N357 C355 1.384 . S
H358 C364 0.930 . S
H359 C368 0.930 . S
H360 C373 0.929 . S
H361 C371 0.929 . S
H362 C366 0.929 . S
H363 C372 0.929 . S
C364 H358 0.930 . S
C364 C365 1.367 . S
C364 C372 1.378 . S
C365 C364 1.367 . S
C365 C373 1.433 . S
C366 H362 0.929 . S
C366 C368 1.378 . S
C366 C370 1.350 . S
C367 C370 1.463 . S
C367 C372 1.350 . S
C367 N375 1.427 . S
C368 H359 0.930 . S
C368 C366 1.378 . S
C368 C369 1.367 . S
C369 C368 1.367 . S
C369 C371 1.433 . S
C370 C366 1.350 . S
C370 C367 1.463 . S
C370 N374 1.427 . S
C371 H361 0.929 . S
C371 C369 1.433 . S
C371 N374 1.384 . S
C372 H363 0.929 . S
C372 C364 1.378 . S
C372 C367 1.350 . S
C373 H360 0.929 . S
C373 C365 1.433 . S
C373 N375 1.384 . S
N374 C370 1.427 . S
N374 C371 1.384 . S
N375 C367 1.427 . S
N375 C373 1.384 . S
H376 C382 0.930 . S
H377 C386 0.930 . S
H378 C391 0.929 . S
H379 C389 0.929 . S
H380 C384 0.929 . S
H381 C390 0.929 . S
C382 H376 0.930 . S
C382 C383 1.367 . S
C382 C390 1.378 . S
C383 C382 1.367 . S
C383 C391 1.433 . S
C384 H380 0.929 . S
C384 C386 1.378 1_565 S
C384 C388 1.350 . S
C385 C388 1.463 . S
C385 C390 1.350 . S
C385 N393 1.427 . S
C386 H377 0.930 . S
C386 C384 1.378 1_545 S
C386 C387 1.367 . S
C387 C386 1.367 . S
C387 C389 1.433 . S
C388 C384 1.350 . S
C388 C385 1.463 . S
C388 N392 1.427 . S
C389 H379 0.929 . S
C389 C387 1.433 . S
C389 N392 1.384 1_545 S
C390 H381 0.929 . S
C390 C382 1.378 . S
C390 C385 1.350 . S
C391 H378 0.929 . S
C391 C383 1.433 . S
C391 N393 1.384 . S
N392 C388 1.427 . S
N392 C389 1.384 1_565 S
N393 C385 1.427 . S
N393 C391 1.384 . S
H394 C400 0.930 . S
H395 C404 0.930 . S
H396 C409 0.929 . S
H397 C407 0.929 . S
H398 C402 0.929 . S
H399 C408 0.929 . S
C400 H394 0.930 . S
C400 C401 1.367 . S
C400 C408 1.378 . S
C401 C400 1.367 . S
C401 C409 1.433 . S
C402 H398 0.929 . S
C402 C404 1.378 . S
C402 C406 1.350 . S
C403 C406 1.463 . S
C403 C408 1.350 . S
C403 N411 1.427 . S
C404 H395 0.930 . S
C404 C402 1.378 . S
C404 C405 1.367 . S
C405 C404 1.367 . S
C405 C407 1.433 . S
C406 C402 1.350 . S
C406 C403 1.463 . S
C406 N410 1.427 . S
C407 H397 0.929 . S
C407 C405 1.433 . S
C407 N410 1.384 . S
C408 H399 0.929 . S
C408 C400 1.378 . S
C408 C403 1.350 . S
C409 H396 0.929 . S
C409 C401 1.433 . S
C409 N411 1.384 . S
N410 C406 1.427 . S
N410 C407 1.384 . S
N411 C403 1.427 . S
N411 C409 1.384 . S
C131 C63 0.673 . S
C135 C27 0.673 . S
C149 C93 0.695 . S
C153 C55 0.695 . S
C167 C62 0.735 . S
C171 C24 0.735 . S
C185 C94 0.674 . S
C189 C58 0.674 . S
C203 C1 1.804 . S
C207 C103 1.664 . S
C221 C64 2.002 . S
C225 C31 1.873 1_655 S
C239 C33 1.657 . S
C243 C89 1.805 . S
C257 C117 1.881 1_455 S
C261 C10 2.005 . S
C275 C18 1.724 . S
C279 C11 1.715 . S
C293 C42 1.718 . S
C297 C49 1.718 1_655 S
C311 C73 1.724 . S
C315 C80 1.716 . S
C329 C104 1.710 1_455 S
C333 C111 1.710 . S
C347 C0 1.926 . S
C351 C41 2.009 . S
C365 C2 1.592 . S
C369 C32 1.711 . S
C383 C86 1.920 . S
C387 C95 2.010 . S
C401 C120 1.724 . S
C405 C72 1.573 . S
