# Generated by pormake.
# Topology yfb, (5)-cn, num edge types: 1
# Building blocks:
#     Node 0, Type 0, BuildingBlock: XOMCOT_clean_sbu_0, # of connection points: 5
#     Node 1, Type 0, BuildingBlock: XOMCOT_clean_sbu_0, # of connection points: 5
#     Node 2, Type 0, BuildingBlock: XOMCOT_clean_sbu_0, # of connection points: 5
#     Node 3, Type 0, BuildingBlock: XOMCOT_clean_sbu_0, # of connection points: 5
#     Node 4, Type 0, BuildingBlock: XOMCOT_clean_sbu_0, # of connection points: 5
#     Node 5, Type 0, BuildingBlock: XOMCOT_clean_sbu_0, # of connection points: 5
#     Node 6, Type 0, BuildingBlock: XOMCOT_clean_sbu_0, # of connection points: 5
#     Node 7, Type 0, BuildingBlock: XOMCOT_clean_sbu_0, # of connection points: 5
#     Node 8, Type 0, BuildingBlock: XOMCOT_clean_sbu_0, # of connection points: 5
#     Node 9, Type 0, BuildingBlock: XOMCOT_clean_sbu_0, # of connection points: 5
#     Node 10, Type 0, BuildingBlock: XOMCOT_clean_sbu_0, # of connection points: 5
#     Node 11, Type 0, BuildingBlock: XOMCOT_clean_sbu_0, # of connection points: 5
#     Node 12, Type 0, BuildingBlock: XOMCOT_clean_sbu_0, # of connection points: 5
#     Node 13, Type 0, BuildingBlock: XOMCOT_clean_sbu_0, # of connection points: 5
#     Node 14, Type 0, BuildingBlock: XOMCOT_clean_sbu_0, # of connection points: 5
#     Node 15, Type 0, BuildingBlock: XOMCOT_clean_sbu_0, # of connection points: 5
#     Edge 16, Type (0, 0), BuildingBlock: CIFDUS_clean_linker_0, # of connection points: 2
#     Edge 17, Type (0, 0), BuildingBlock: CIFDUS_clean_linker_0, # of connection points: 2
#     Edge 18, Type (0, 0), BuildingBlock: CIFDUS_clean_linker_0, # of connection points: 2
#     Edge 19, Type (0, 0), BuildingBlock: CIFDUS_clean_linker_0, # of connection points: 2
#     Edge 20, Type (0, 0), BuildingBlock: CIFDUS_clean_linker_0, # of connection points: 2
#     Edge 21, Type (0, 0), BuildingBlock: CIFDUS_clean_linker_0, # of connection points: 2
#     Edge 22, Type (0, 0), BuildingBlock: CIFDUS_clean_linker_0, # of connection points: 2
#     Edge 23, Type (0, 0), BuildingBlock: CIFDUS_clean_linker_0, # of connection points: 2
#     Edge 24, Type (0, 0), BuildingBlock: CIFDUS_clean_linker_0, # of connection points: 2
#     Edge 25, Type (0, 0), BuildingBlock: CIFDUS_clean_linker_0, # of connection points: 2
#     Edge 26, Type (0, 0), BuildingBlock: CIFDUS_clean_linker_0, # of connection points: 2
#     Edge 27, Type (0, 0), BuildingBlock: CIFDUS_clean_linker_0, # of connection points: 2
#     Edge 28, Type (0, 0), BuildingBlock: CIFDUS_clean_linker_0, # of connection points: 2
#     Edge 29, Type (0, 0), BuildingBlock: CIFDUS_clean_linker_0, # of connection points: 2
#     Edge 30, Type (0, 0), BuildingBlock: CIFDUS_clean_linker_0, # of connection points: 2
#     Edge 31, Type (0, 0), BuildingBlock: CIFDUS_clean_linker_0, # of connection points: 2
#     Edge 32, Type (0, 0), BuildingBlock: CIFDUS_clean_linker_0, # of connection points: 2
#     Edge 33, Type (0, 0), BuildingBlock: CIFDUS_clean_linker_0, # of connection points: 2
#     Edge 34, Type (0, 0), BuildingBlock: CIFDUS_clean_linker_0, # of connection points: 2
#     Edge 35, Type (0, 0), BuildingBlock: CIFDUS_clean_linker_0, # of connection points: 2
#     Edge 36, Type (0, 0), BuildingBlock: CIFDUS_clean_linker_0, # of connection points: 2
#     Edge 37, Type (0, 0), BuildingBlock: CIFDUS_clean_linker_0, # of connection points: 2
#     Edge 38, Type (0, 0), BuildingBlock: CIFDUS_clean_linker_0, # of connection points: 2
#     Edge 39, Type (0, 0), BuildingBlock: CIFDUS_clean_linker_0, # of connection points: 2
#     Edge 40, Type (0, 0), BuildingBlock: CIFDUS_clean_linker_0, # of connection points: 2
#     Edge 41, Type (0, 0), BuildingBlock: CIFDUS_clean_linker_0, # of connection points: 2
#     Edge 42, Type (0, 0), BuildingBlock: CIFDUS_clean_linker_0, # of connection points: 2
#     Edge 43, Type (0, 0), BuildingBlock: CIFDUS_clean_linker_0, # of connection points: 2
#     Edge 44, Type (0, 0), BuildingBlock: CIFDUS_clean_linker_0, # of connection points: 2
#     Edge 45, Type (0, 0), BuildingBlock: CIFDUS_clean_linker_0, # of connection points: 2
#     Edge 46, Type (0, 0), BuildingBlock: CIFDUS_clean_linker_0, # of connection points: 2
#     Edge 47, Type (0, 0), BuildingBlock: CIFDUS_clean_linker_0, # of connection points: 2
#     Edge 48, Type (0, 0), BuildingBlock: CIFDUS_clean_linker_0, # of connection points: 2
#     Edge 49, Type (0, 0), BuildingBlock: CIFDUS_clean_linker_0, # of connection points: 2
#     Edge 50, Type (0, 0), BuildingBlock: CIFDUS_clean_linker_0, # of connection points: 2
#     Edge 51, Type (0, 0), BuildingBlock: CIFDUS_clean_linker_0, # of connection points: 2
#     Edge 52, Type (0, 0), BuildingBlock: CIFDUS_clean_linker_0, # of connection points: 2
#     Edge 53, Type (0, 0), BuildingBlock: CIFDUS_clean_linker_0, # of connection points: 2
#     Edge 54, Type (0, 0), BuildingBlock: CIFDUS_clean_linker_0, # of connection points: 2
#     Edge 55, Type (0, 0), BuildingBlock: CIFDUS_clean_linker_0, # of connection points: 2
# Relax obj value: 0.753
# Max RMSD: 0.296
# Mean RMSD: 0.296
data_MOF--net-yfb--node1-XOMCOT_clean_sbu_0--edge1-CIFDUS_clean_linker_0
_symmetry_space_group_name_H-M    P1
_symmetry_Int_Tables_number       1
_symmetry_cell_setting            triclinic
loop_
_symmetry_equiv_pos_as_xyz
'x, y, z'
_cell_length_a     38.153171
_cell_length_b     38.247712
_cell_length_c     36.600632
_cell_angle_alpha  90.006111
_cell_angle_beta   89.847723
_cell_angle_gamma 90.143149
loop_
_atom_site_label
_atom_site_type_symbol
_atom_site_fract_x
_atom_site_fract_y
_atom_site_fract_z
_atom_type_partial_charge
Co0 Co 0.66253 0.0692 0.1346 0.0
C1 C 0.61399 0.0271 0.09091 0.0
C2 C 0.60656 0.01833 0.14829 0.0
C3 C 0.57803 0.00499 0.12974 0.0
N4 N 0.62894 0.03256 0.12393 0.0
N5 N 0.58263 0.01086 0.09369 0.0
H6 H 0.62361 0.03871 0.06584 0.0
H7 H 0.60883 0.02095 0.17761 0.0
C8 C 0.67474 0.05938 0.21219 0.0
O9 O 0.65224 0.08508 0.21551 0.0
N10 N 0.69655 0.10588 0.14529 0.0
C11 C 0.729 0.10003 0.15839 0.0
C12 C 0.74549 0.13132 0.16429 0.0
C13 C 0.6938 0.14114 0.1436 0.0
N14 N 0.72343 0.15738 0.15521 0.0
C15 C 0.70058 0.05567 0.0693 0.0
C16 C 0.75321 0.0158 0.09963 0.0
C17 C 0.75808 0.02995 0.06458 0.0
C18 C 0.73026 0.04822 0.04875 0.0
C19 C 0.72247 0.02332 0.11918 0.0
N20 N 0.6979 0.04548 0.10495 0.0
H21 H 0.68103 0.07194 0.05683 0.0
H22 H 0.72022 0.01351 0.14669 0.0
H23 H 0.74006 0.0747 0.16416 0.0
H24 H 0.67062 0.15464 0.13451 0.0
O25 O 0.64148 0.09713 0.09661 0.0
O26 O 0.62403 0.09763 0.15407 0.0
O27 O 0.67876 0.04508 0.18089 0.0
C28 C 0.61945 0.10825 0.12075 0.0
H29 H 0.55451 0.9943 0.14205 0.0
H30 H 0.77202 0.1343 0.17412 0.0
H31 H 0.77379 1.00088 0.11263 0.0
H32 H 0.73253 0.05973 1.02181 0.0
Co33 Co 0.4466 0.67224 0.11687 0.0
C34 C 0.48976 0.61544 0.08697 0.0
C35 C 0.48971 0.61424 0.1454 0.0
C36 C 0.5046 0.5837 0.13257 0.0
N37 N 0.4809 0.63459 0.11675 0.0
N38 N 0.50406 0.58436 0.09576 0.0
H39 H 0.48297 0.62237 0.05937 0.0
H40 H 0.48284 0.61961 0.17352 0.0
C41 C 0.49286 0.69372 0.18088 0.0
O42 O 0.52067 0.68192 0.16364 0.0
N43 N 0.41121 0.70869 0.1157 0.0
C44 C 0.4058 0.73132 0.08803 0.0
C45 C 0.37528 0.74906 0.09407 0.0
C46 C 0.38312 0.7126 0.13796 0.0
N47 N 0.3607 0.73721 0.12528 0.0
C48 C 0.48048 0.69869 0.0526 0.0
C49 C 0.49707 0.76279 0.08223 0.0
C50 C 0.49065 0.76062 0.04464 0.0
C51 C 0.48621 0.72726 0.02944 0.0
C52 C 0.48908 0.7343 0.10442 0.0
N53 N 0.47833 0.7032 0.08964 0.0
H54 H 0.47169 0.67481 0.0401 0.0
H55 H 0.48645 0.73985 0.13299 0.0
H56 H 0.4212 0.73322 0.06347 0.0
H57 H 0.37832 0.69646 0.16173 0.0
O58 O 0.42329 0.64976 0.07636 0.0
O59 O 0.41183 0.63938 0.13474 0.0
O60 O 0.46258 0.691 0.16611 0.0
C61 C 0.40518 0.63262 0.1006 0.0
H62 H 0.51224 0.56146 0.14899 0.0
H63 H 0.36328 0.76711 0.0751 0.0
H64 H 0.50221 0.78781 0.09507 0.0
H65 H 0.48165 0.72391 1.00046 0.0
Co66 Co 0.83669 0.43364 0.11521 0.0
C67 C 0.89861 0.47438 0.09266 0.0
C68 C 0.89514 0.47247 0.15087 0.0
C69 C 0.92759 0.48601 0.14115 0.0
N70 N 0.87654 0.46564 0.12032 0.0
N71 N 0.9298 0.48663 0.1044 0.0
H72 H 0.89363 0.46869 0.06433 0.0
H73 H 0.88721 0.46512 0.17819 0.0
C74 C 0.81342 0.47559 0.1808 0.0
O75 O 0.82501 0.50396 0.16446 0.0
N76 N 0.7984 0.40096 0.10807 0.0
C77 C 0.78095 0.39716 0.07633 0.0
C78 C 0.75815 0.36966 0.07935 0.0
C79 C 0.78649 0.37496 0.12985 0.0
N80 N 0.76158 0.35549 0.11287 0.0
C81 C 0.81569 0.47883 0.05627 0.0
C82 C 0.74782 0.48543 0.08164 0.0
C83 C 0.75429 0.48995 0.04424 0.0
C84 C 0.78929 0.48962 0.03233 0.0
C85 C 0.77477 0.47473 0.10454 0.0
N86 N 0.80788 0.46914 0.09131 0.0
H87 H 0.84101 0.47355 0.04475 0.0
H88 H 0.76698 0.4653 0.13104 0.0
H89 H 0.78562 0.4123 0.05189 0.0
H90 H 0.7967 0.36972 0.15684 0.0
O91 O 0.85948 0.41342 0.07295 0.0
O92 O 0.86649 0.39559 0.13021 0.0
O93 O 0.81709 0.44582 0.16529 0.0
C94 C 0.87426 0.39198 0.0958 0.0
H95 H 0.94896 0.49184 0.15958 0.0
H96 H 0.742 0.35943 0.05753 0.0
H97 H 0.72138 0.48491 0.09243 0.0
H98 H 0.79573 0.49361 1.00379 0.0
Co99 Co 0.06748 0.84286 0.11892 0.0
C100 C 0.01951 0.88982 0.08105 0.0
C101 C 0.01494 0.89529 0.13909 0.0
C102 C 0.99842 0.92316 0.12274 0.0
N103 N 0.02781 0.87399 0.11299 0.0
N104 N 1.00186 0.92008 0.08619 0.0
H105 H 0.02955 0.8813 0.05485 0.0
H106 H 0.02069 0.89299 0.16791 0.0
C107 C 0.01652 0.81306 0.17771 0.0
O108 O 0.98935 0.83122 0.16678 0.0
N109 N 0.10752 0.81199 0.1245 0.0
C110 C 0.10539 0.77707 0.12901 0.0
C111 C 0.13858 0.76376 0.13307 0.0
C112 C 0.14213 0.81942 0.12606 0.0
N113 N 0.16176 0.79042 0.13132 0.0
C114 C 0.06926 0.80527 0.05267 0.0
C115 C 0.00993 0.76492 0.06306 0.0
C116 C 0.03249 0.7571 0.03379 0.0
C117 C 0.06168 0.77869 0.028 0.0
C118 C 0.0183 0.79231 0.08699 0.0
N119 N 0.04864 0.81087 0.0826 0.0
H120 H 0.09332 0.81979 0.04909 0.0
H121 H 1.00104 0.79747 0.10955 0.0
H122 H 0.08126 0.76217 0.12917 0.0
H123 H 0.15285 0.84541 0.12374 0.0
O124 O 0.09282 0.87283 0.08603 0.0
O125 O 0.0918 0.87944 0.14624 0.0
O126 O 0.04606 0.81578 0.16133 0.0
C127 C 0.10208 0.89089 0.11438 0.0
H128 H 0.98815 0.94586 0.13678 0.0
H129 H 0.14501 0.73641 0.13628 0.0
H130 H 0.98685 0.74913 0.06825 0.0
H131 H 0.08024 0.77344 1.00624 0.0
Co132 Co 0.6595 0.42417 0.42114 0.0
C133 C 0.60607 0.46986 0.45431 0.0
C134 C 0.60643 0.47579 0.39626 0.0
C135 C 0.57695 0.49209 0.41026 0.0
N136 N 0.62512 0.46204 0.424 0.0
N137 N 0.57654 0.48779 0.44683 0.0
H138 H 0.61193 0.4601 0.48126 0.0
H139 H 0.61175 0.47146 0.3676 0.0
C140 C 0.68384 0.46365 0.35409 0.0
O141 O 0.68353 0.49286 0.373 0.0
N142 N 0.6922 0.3856 0.41967 0.0
C143 C 0.71562 0.37775 0.44594 0.0
C144 C 0.73271 0.3476 0.43645 0.0
C145 C 0.69434 0.35927 0.39518 0.0
N146 N 0.71931 0.33597 0.40468 0.0
C147 C 0.6937 0.46776 0.47432 0.0
C148 C 0.75958 0.46052 0.44386 0.0
C149 C 0.75685 0.47016 0.48075 0.0
C150 C 0.72324 0.47654 0.49491 0.0
C151 C 0.72943 0.45263 0.42405 0.0
N152 N 0.69704 0.4539 0.44013 0.0
H153 H 0.66865 0.46853 0.48769 0.0
H154 H 0.73292 0.44037 0.39773 0.0
H155 H 0.71925 0.39237 0.47095 0.0
H156 H 0.67721 0.3565 0.37183 0.0
O157 O 0.64196 0.40592 0.4666 0.0
O158 O 0.62132 0.39187 0.41189 0.0
O159 O 0.67259 0.43534 0.36865 0.0
C160 C 0.61958 0.38816 0.44723 0.0
H161 H 0.55596 0.50346 0.3944 0.0
H162 H 0.75182 0.33388 0.45288 0.0
H163 H 0.78468 0.45481 0.43141 0.0
H164 H 0.71965 0.48508 0.52287 0.0
Co165 Co 0.07837 0.66367 0.41216 0.0
C166 C 0.0339 0.61332 0.45118 0.0
C167 C 0.03441 0.60271 0.39394 0.0
C168 C 0.02157 0.57364 0.41214 0.0
N169 N 0.04237 0.62776 0.41852 0.0
N170 N 0.02193 0.58012 0.44839 0.0
H171 H 0.04017 0.62522 0.47688 0.0
H172 H 0.04151 0.60369 0.36534 0.0
C173 C 0.03371 0.67893 0.34515 0.0
O174 O 0.00473 0.67457 0.36411 0.0
N175 N 0.11519 0.69838 0.40667 0.0
C176 C 0.12121 0.72615 0.42854 0.0
C177 C 0.1515 0.7424 0.41764 0.0
C178 C 0.14271 0.69758 0.38336 0.0
N179 N 0.16515 0.72436 0.38943 0.0
C180 C 0.04481 0.70052 0.47044 0.0
C181 C 0.03286 0.76099 0.43155 0.0
C182 C 0.03605 0.7632 0.46966 0.0
C183 C 0.03893 0.73175 0.48916 0.0
C184 C 0.04034 0.72955 0.41385 0.0
N185 N 0.04823 0.69998 0.43326 0.0
H186 H 0.05236 0.67845 0.48665 0.0
H187 H 0.04491 0.73119 0.38495 0.0
H188 H 0.10608 0.73316 0.45233 0.0
H189 H 0.14717 0.67691 0.36371 0.0
O190 O 0.10072 0.64735 0.45631 0.0
O191 O 0.11181 0.62724 0.40061 0.0
O192 O 0.06347 0.67439 0.36037 0.0
C193 C 0.1181 0.62599 0.43548 0.0
H194 H 0.01608 0.54852 0.39978 0.0
H195 H 0.16416 0.76403 0.43146 0.0
H196 H 0.02922 0.78421 0.41509 0.0
H197 H 0.0416 0.73145 0.51857 0.0
Co198 Co 0.8448 0.06005 0.42851 0.0
C199 C 0.89536 0.01349 0.46396 0.0
C200 C 0.90118 0.01179 0.40598 0.0
C201 C 0.93074 0.99733 0.42187 0.0
N202 N 0.87872 0.02199 0.43248 0.0
N203 N 0.92686 0.99855 0.45845 0.0
H204 H 0.88777 0.02299 0.49053 0.0
H205 H 0.89838 0.01817 0.37736 0.0
C206 C 0.82183 0.01825 0.36236 0.0
O207 O 0.82576 0.98873 0.3802 0.0
N208 N 0.81256 0.09895 0.42583 0.0
C209 C 0.78907 0.10787 0.45178 0.0
C210 C 0.77212 0.13769 0.44106 0.0
C211 C 0.81058 0.12432 0.40026 0.0
N212 N 0.78565 0.14803 0.4088 0.0
C213 C 0.80891 0.02017 0.48433 0.0
C214 C 0.74399 0.02626 0.45195 0.0
C215 C 0.74563 0.0192 0.48954 0.0
C216 C 0.77877 0.01288 0.50468 0.0
C217 C 0.77478 0.03204 0.43222 0.0
N218 N 0.80676 0.03165 0.4491 0.0
H219 H 0.83327 0.02044 0.4987 0.0
H220 H 0.77202 0.04255 0.40507 0.0
H221 H 0.78525 0.09422 0.47736 0.0
H222 H 0.82772 0.12607 0.37671 0.0
O223 O 0.86348 0.08012 0.4727 0.0
O224 O 0.88304 0.09119 0.41669 0.0
O225 O 0.83107 0.04714 0.37704 0.0
C226 C 0.8856 0.09663 0.45166 0.0
H227 H 0.95429 0.98919 0.40771 0.0
H228 H 0.75295 0.15207 0.4569 0.0
H229 H 0.71936 0.03168 0.43853 0.0
H230 H 0.78165 0.00589 0.53317 0.0
Co231 Co 0.44334 0.84424 0.42042 0.0
C232 C 0.48773 0.89671 0.45709 0.0
C233 C 0.49187 0.90095 0.39897 0.0
C234 C 0.5068 0.93026 0.41465 0.0
N235 N 0.48002 0.87959 0.42559 0.0
N236 N 0.50366 0.92787 0.45131 0.0
H237 H 0.47901 0.88816 0.48368 0.0
H238 H 0.48674 0.8975 0.37017 0.0
C239 C 0.48582 0.82547 0.35195 0.0
O240 O 0.51566 0.82807 0.3696 0.0
N241 N 0.40604 0.81011 0.41614 0.0
C242 C 0.39851 0.78411 0.4398 0.0
C243 C 0.36883 0.76715 0.42828 0.0
C244 C 0.38018 0.80921 0.39105 0.0
N245 N 0.35723 0.78301 0.39778 0.0
C246 C 0.4774 0.80791 0.47843 0.0
C247 C 0.4867 0.74642 0.44052 0.0
C248 C 0.48312 0.74469 0.47865 0.0
C249 C 0.48158 0.7766 0.49772 0.0
C250 C 0.47957 0.77761 0.42243 0.0
N251 N 0.47307 0.80776 0.44138 0.0
H252 H 0.47215 0.83118 0.49402 0.0
H253 H 0.47425 0.77545 0.39377 0.0
H254 H 0.41247 0.77872 0.46476 0.0
H255 H 0.37743 0.82815 0.36927 0.0
O256 O 0.42187 0.86131 0.46482 0.0
O257 O 0.41033 0.88097 0.40909 0.0
O258 O 0.457 0.83247 0.36828 0.0
C259 C 0.40447 0.88265 0.44407 0.0
H260 H 0.51614 0.95302 0.39996 0.0
H261 H 0.35529 0.74641 0.44275 0.0
H262 H 0.49026 0.72311 0.4242 0.0
H263 H 0.47934 0.77752 0.52715 0.0
Co264 Co 0.32845 0.94786 0.94343 0.0
C265 C 0.38396 0.99362 0.97222 0.0
C266 C 0.38733 0.98974 0.91418 0.0
C267 C 0.41835 0.00379 0.9272 0.0
N268 N 0.36538 0.98349 0.94248 0.0
N269 N 0.41616 0.00598 0.96388 0.0
H270 H 0.3767 0.98716 0.99987 0.0
H271 H 0.3829 0.98104 0.88646 0.0
C272 C 0.30844 0.98768 0.87623 0.0
O273 O 0.31542 0.01645 0.89447 0.0
N274 N 0.29348 0.91121 0.9458 0.0
C275 C 0.27264 0.90488 0.97483 0.0
C276 C 0.25557 0.87374 0.96958 0.0
C277 C 0.2893 0.88343 0.92347 0.0
N278 N 0.26608 0.86005 0.93738 0.0
C279 C 0.29741 0.994 0.99662 0.0
C280 C 0.23114 0.98959 0.96696 0.0
C281 C 0.23452 0.99879 1.00393 0.0
C282 C 0.26844 0.00389 1.01761 0.0
C283 C 0.26079 0.98061 0.94669 0.0
N284 N 0.2933 0.98039 0.96239 0.0
H285 H 0.3223 0.99333 1.01001 0.0
H286 H 0.25651 0.96859 0.92041 0.0
H287 H 0.27145 0.92083 0.99919 0.0
H288 H 0.30416 0.87976 0.89855 0.0
O289 O 0.34646 0.93104 0.98903 0.0
O290 O 0.36435 0.91294 0.93452 0.0
O291 O 0.31402 0.95792 0.89111 0.0
C292 C 0.36701 0.911 0.96996 0.0
H293 H 0.44158 0.00932 0.91116 0.0
H294 H 0.23862 0.86105 0.98931 0.0
H295 H 0.20573 0.98488 0.95482 0.0
H296 H 0.27258 0.01193 0.04564 0.0
Co297 Co 0.57246 0.34105 0.93099 0.0
C298 C 0.53404 0.40193 0.95949 0.0
C299 C 0.51892 0.39219 0.90433 0.0
C300 C 0.50456 0.4237 0.91558 0.0
N301 N 0.53699 0.37805 0.93229 0.0
N302 N 0.51448 0.42991 0.95037 0.0
H303 H 0.54816 0.40032 0.98481 0.0
H304 H 0.51832 0.38192 0.87683 0.0
C305 C 0.52151 0.30836 0.87735 0.0
O306 O 0.49517 0.31551 0.89928 0.0
N307 N 0.60897 0.30596 0.93047 0.0
C308 C 0.61971 0.28683 0.95929 0.0
C309 C 0.6486 0.26782 0.94917 0.0
C310 C 0.63236 0.29935 0.9036 0.0
N311 N 0.65659 0.2758 0.9143 0.0
C312 C 0.53648 0.32224 0.99743 0.0
C313 C 0.53578 0.25151 0.98285 0.0
C314 C 0.53234 0.26275 1.01926 0.0
C315 C 0.52941 0.29874 0.02561 0.0
C316 C 0.54138 0.27603 0.9551 0.0
N317 N 0.54453 0.31085 0.96308 0.0
H318 H 0.53932 0.34911 1.00483 0.0
H319 H 0.54859 0.2663 0.92844 0.0
H320 H 0.60848 0.28797 0.98642 0.0
H321 H 0.63282 0.31287 0.87763 0.0
O322 O 0.59879 0.36606 0.96753 0.0
O323 O 0.60446 0.37343 0.90754 0.0
O324 O 0.55248 0.31856 0.88542 0.0
C325 C 0.61409 0.382 0.94043 0.0
H326 H 0.49 0.44164 0.89856 0.0
H327 H 0.66433 0.25162 0.96699 0.0
H328 H 0.53837 0.2241 0.97609 0.0
H329 H 0.52537 0.30888 0.05292 0.0
Co330 Co 0.15644 0.56813 0.92064 0.0
C331 C 0.11008 0.51893 0.95883 0.0
C332 C 0.10318 0.51629 0.90083 0.0
C333 C 0.07589 0.4988 0.91741 0.0
N334 N 0.12509 0.52849 0.92669 0.0
N335 N 0.07984 0.50089 0.95398 0.0
H336 H 0.11933 0.52798 0.98511 0.0
H337 H 0.10486 0.52283 0.87212 0.0
C338 C 0.18389 0.51817 0.86026 0.0
O339 O 0.16715 0.49086 0.87335 0.0
N340 N 0.18747 0.60823 0.91532 0.0
C341 C 0.2219 0.60642 0.90717 0.0
C342 C 0.23568 0.63964 0.90641 0.0
C343 C 0.18086 0.64271 0.91946 0.0
N344 N 0.20984 0.66254 0.91407 0.0
C345 C 0.193 0.56635 0.98759 0.0
C346 C 0.24458 0.51973 0.96737 0.0
C347 C 0.24993 0.54099 0.99811 0.0
C348 C 0.22262 0.5629 1.0093 0.0
C349 C 0.21406 0.52365 0.94655 0.0
N350 N 0.1899 0.54862 0.95536 0.0
H351 H 0.17434 0.58615 0.9952 0.0
H352 H 0.21157 0.50817 0.92232 0.0
H353 H 0.23629 0.58249 0.90266 0.0
H354 H 0.15551 0.65325 0.92632 0.0
O355 O 0.12733 0.59271 0.95496 0.0
O356 O 0.11926 0.59336 0.89515 0.0
O357 O 0.18177 0.54782 0.87633 0.0
C358 C 0.10883 0.60323 0.92749 0.0
H359 H 0.05304 0.48847 0.90359 0.0
H360 H 0.2629 0.64616 0.9016 0.0
H361 H 0.26472 0.50182 0.9582 0.0
H362 H 0.22543 0.58007 0.03264 0.0
Co363 Co 0.93714 0.15556 0.91818 0.0
C364 C 0.98502 0.10311 0.94849 0.0
C365 C 0.9885 0.10437 0.89025 0.0
C366 C 0.00423 0.07409 0.90266 0.0
N367 N 0.97641 0.12284 0.91907 0.0
N368 N 1.0013 0.07306 0.93933 0.0
H369 H 0.9761 0.10845 0.97592 0.0
H370 H 0.98259 0.11002 0.86201 0.0
C371 C 0.97644 0.18287 0.85243 0.0
O372 O 0.00569 0.18167 0.87127 0.0
N373 N 0.89711 0.18658 0.91824 0.0
C374 C 0.88881 0.20946 0.94495 0.0
C375 C 0.85739 0.22482 0.93673 0.0
C376 C 0.8698 0.18727 0.89483 0.0
N377 N 0.84549 0.21086 0.90536 0.0
C378 C 0.97773 0.19051 0.97343 0.0
C379 C 0.97029 0.25606 0.94271 0.0
C380 C 0.97833 0.25361 0.97994 0.0
C381 C 0.98461 0.22026 0.99454 0.0
C382 C 0.96361 0.22587 0.92271 0.0
N383 N 0.96529 0.19354 0.93864 0.0
H384 H 0.97851 0.16544 0.98668 0.0
H385 H 0.95165 0.2293 0.89631 0.0
H386 H 0.90385 0.2137 0.96955 0.0
H387 H 0.86707 0.16993 0.87163 0.0
O388 O 0.91951 0.13541 0.96292 0.0
O389 O 0.90638 0.11669 0.90722 0.0
O390 O 0.948 0.17101 0.86641 0.0
C391 C 0.90252 0.11338 0.94242 0.0
H392 H 0.01345 0.05276 0.88576 0.0
H393 H 0.84308 0.243 0.95382 0.0
H394 H 0.96446 0.28095 0.93006 0.0
H395 H 0.99154 0.21703 1.02301 0.0
Co396 Co 0.34718 0.56788 0.62766 0.0
C397 C 0.39992 0.52209 0.59347 0.0
C398 C 0.39892 0.51445 0.6513 0.0
C399 C 0.42818 0.49797 0.63704 0.0
N400 N 0.38078 0.52941 0.62386 0.0
N401 N 0.429 0.50331 0.60061 0.0
H402 H 0.39442 0.53273 0.56681 0.0
H403 H 0.39341 0.51802 0.68003 0.0
C404 C 0.32117 0.52722 0.69333 0.0
O405 O 0.32075 0.49851 0.67361 0.0
N406 N 0.31532 0.60704 0.63011 0.0
C407 C 0.29257 0.6164 0.60374 0.0
C408 C 0.27595 0.64651 0.6142 0.0
C409 C 0.31328 0.6324 0.65568 0.0
N410 N 0.28899 0.65656 0.64672 0.0
C411 C 0.31245 0.52667 0.57285 0.0
C412 C 0.24644 0.53574 0.60243 0.0
C413 C 0.2494 0.52749 0.56518 0.0
C414 C 0.28293 0.51994 0.55143 0.0
C415 C 0.27656 0.54145 0.62309 0.0
N416 N 0.30913 0.53956 0.60746 0.0
H417 H 0.33766 0.52527 0.55987 0.0
H418 H 0.27314 0.55285 0.64983 0.0
H419 H 0.28912 0.60285 0.57806 0.0
H420 H 0.33005 0.63389 0.67944 0.0
O421 O 0.36539 0.58711 0.58292 0.0
O422 O 0.38592 0.59918 0.63817 0.0
O423 O 0.33347 0.55553 0.67968 0.0
C424 C 0.38787 0.60401 0.60298 0.0
H425 H 0.44877 0.48569 0.65272 0.0
H426 H 0.25746 0.66129 0.59801 0.0
H427 H 0.22142 0.54213 0.61467 0.0
H428 H 0.28666 0.51218 0.52325 0.0
Co429 Co 0.93569 0.33981 0.62626 0.0
C430 C 0.97964 0.39016 0.58682 0.0
C431 C 0.97714 0.40239 0.64371 0.0
C432 C 0.98966 0.43126 0.62507 0.0
N433 N 0.97075 0.37642 0.61969 0.0
N434 N 0.99055 0.42376 0.58905 0.0
H435 H 0.97455 0.37724 0.56128 0.0
H436 H 0.96919 0.40197 0.67209 0.0
C437 C 0.98255 0.32635 0.69242 0.0
O438 O 0.01028 0.33901 0.67563 0.0
N439 N 0.89962 0.30421 0.63225 0.0
C440 C 0.89513 0.27456 0.61276 0.0
C441 C 0.865 0.25821 0.62412 0.0
C442 C 0.87159 0.30559 0.65489 0.0
N443 N 0.85006 0.27781 0.6504 0.0
C444 C 0.96519 0.3041 0.56482 0.0
C445 C 0.98823 0.2464 0.60282 0.0
C446 C 0.98078 0.24279 0.56555 0.0
C447 C 0.97225 0.27315 0.54599 0.0
C448 C 0.97934 0.27726 0.62082 0.0
N449 N 0.96581 0.30516 0.60217 0.0
H450 H 0.95406 0.32518 0.5493 0.0
H451 H 0.9791 0.27591 0.64999 0.0
H452 H 0.91124 0.26587 0.59039 0.0
H453 H 0.86626 0.32714 0.67322 0.0
O454 O 0.91145 0.3576 0.58394 0.0
O455 O 0.90217 0.37533 0.64082 0.0
O456 O 0.95271 0.32673 0.67666 0.0
C457 C 0.89464 0.37791 0.6063 0.0
H458 H 0.994 0.45688 0.6368 0.0
H459 H 0.85352 0.23506 0.61196 0.0
H460 H 0.99642 0.22419 0.619 0.0
H461 H 0.96632 0.27228 0.51711 0.0
Co462 Co 0.16863 0.93413 0.62771 0.0
C463 C 0.11854 0.98114 0.59204 0.0
C464 C 0.11173 0.98178 0.64994 0.0
C465 C 0.08227 0.99611 0.63379 0.0
N466 N 0.13473 0.97223 0.62368 0.0
N467 N 0.0867 0.99548 0.59725 0.0
H468 H 0.12694 0.97243 0.56539 0.0
H469 H 0.11407 0.97492 0.67849 0.0
C470 C 0.18924 0.9732 0.69593 0.0
O471 O 0.18925 0.00247 0.67714 0.0
N472 N 0.20072 0.89521 0.63043 0.0
C473 C 0.22497 0.88686 0.60504 0.0
C474 C 0.24135 0.85661 0.61546 0.0
C475 C 0.2017 0.86919 0.65531 0.0
N476 N 0.2267 0.84553 0.64693 0.0
C477 C 0.2064 0.97824 0.57707 0.0
C478 C 0.27047 0.96778 0.61011 0.0
C479 C 0.26976 0.97783 0.57322 0.0
C480 C 0.23713 0.98634 0.55806 0.0
C481 C 0.23913 0.96118 0.62861 0.0
N482 N 0.20759 0.96357 0.61103 0.0
H483 H 0.18224 0.98022 0.56247 0.0
H484 H 0.2409 0.94872 0.655 0.0
H485 H 0.22969 0.90124 0.58006 0.0
H486 H 0.18375 0.86693 0.67814 0.0
O487 O 0.15304 0.91636 0.58125 0.0
O488 O 0.12974 0.90228 0.63489 0.0
O489 O 0.17915 0.94479 0.68076 0.0
C490 C 0.12952 0.89884 0.59949 0.0
H491 H 0.05839 0.00366 0.6477 0.0
H492 H 0.2609 0.84251 0.59986 0.0
H493 H 0.29468 0.96075 0.62351 0.0
H494 H 0.23504 0.99578 0.53027 0.0
Co495 Co 0.57007 0.15585 0.63786 0.0
C496 C 0.52596 0.10173 0.60384 0.0
C497 C 0.52379 0.09811 0.6621 0.0
C498 C 0.50917 0.06818 0.64729 0.0
N499 N 0.5342 0.11944 0.63481 0.0
N500 N 0.51112 0.07024 0.61053 0.0
H501 H 0.53364 0.1101 0.57687 0.0
H502 H 0.52972 0.1021 0.69066 0.0
C503 C 0.52889 0.17524 0.70739 0.0
O504 O 0.4984 0.17036 0.69155 0.0
N505 N 0.60665 0.19107 0.63992 0.0
C506 C 0.61212 0.21734 0.61595 0.0
C507 C 0.64246 0.23449 0.62503 0.0
C508 C 0.63442 0.19209 0.66273 0.0
N509 N 0.65659 0.21852 0.65426 0.0
C510 C 0.53424 0.18925 0.57912 0.0
C511 C 0.52232 0.25126 0.61525 0.0
C512 C 0.5255 0.25205 0.57704 0.0
C513 C 0.52827 0.21972 0.55896 0.0
C514 C 0.53092 0.2209 0.63423 0.0
N515 N 0.53884 0.19063 0.6161 0.0
H516 H 0.54061 0.16594 0.56411 0.0
H517 H 0.53604 0.22402 0.66283 0.0
H518 H 0.59648 0.22268 0.59213 0.0
H519 H 0.63913 0.17296 0.68395 0.0
O520 O 0.59124 0.13757 0.59377 0.0
O521 O 0.60418 0.12042 0.65005 0.0
O522 O 0.55725 0.16925 0.68977 0.0
C523 C 0.60957 0.11756 0.61509 0.0
H524 H 0.5009 0.04532 0.6625 0.0
H525 H 0.65468 0.25534 0.60952 0.0
H526 H 0.51786 0.27486 0.63086 0.0
H527 H 0.53032 0.218 0.52956 0.0
H528 H 0.71688 0.00223 0.22805 0.0
H529 H 0.694 0.10816 0.26133 0.0
H530 H 0.73916 0.10547 0.30751 0.0
H531 H 0.78409 0.07369 0.33978 0.0
H532 H 0.80535 0.96606 0.31293 0.0
H533 H 0.76237 0.96884 0.26301 0.0
C534 C 0.72173 0.02454 0.24561 0.0
C535 C 0.70161 0.0552 0.24129 0.0
C536 C 0.74769 0.02269 0.27319 0.0
C537 C 0.70842 0.08396 0.26423 0.0
C538 C 0.73454 0.08263 0.29062 0.0
C539 C 0.77981 0.05082 0.32282 0.0
C540 C 0.79838 0.01983 0.32989 0.0
C541 C 0.75423 0.05221 0.29543 0.0
C542 C 0.79167 0.99036 0.30795 0.0
C543 C 0.76695 0.99193 0.27951 0.0
H544 H 0.5358 0.7837 0.31988 0.0
H545 H 0.43039 0.82188 0.3053 0.0
H546 H 0.42295 0.78404 0.25229 0.0
H547 H 0.44532 0.73866 0.211 0.0
H548 H 0.55069 0.70024 0.22471 0.0
H549 H 0.55894 0.73921 0.27704 0.0
C550 C 0.51141 0.7842 0.30477 0.0
C551 C 0.48378 0.80589 0.3167 0.0
C552 C 0.50702 0.76183 0.27435 0.0
C553 C 0.45219 0.80565 0.29687 0.0
C554 C 0.4478 0.78381 0.26657 0.0
C555 C 0.47006 0.73856 0.22553 0.0
C556 C 0.49723 0.71617 0.21395 0.0
C557 C 0.47482 0.76142 0.25535 0.0
C558 C 0.52923 0.71697 0.23298 0.0
C559 C 0.53402 0.73939 0.2629 0.0
H560 H 0.72471 0.5142 0.32204 0.0
H561 H 0.68888 0.40798 0.30743 0.0
H562 H 0.72624 0.40198 0.25359 0.0
H563 H 0.77029 0.42619 0.21123 0.0
H564 H 0.8061 0.53241 0.22557 0.0
H565 H 0.76793 0.53885 0.27886 0.0
C566 C 0.7247 0.48985 0.30688 0.0
C567 C 0.70372 0.46166 0.31894 0.0
C568 C 0.74669 0.48636 0.276 0.0
C569 C 0.70451 0.43023 0.29891 0.0
C570 C 0.72607 0.42667 0.26812 0.0
C571 C 0.76998 0.4507 0.22613 0.0
C572 C 0.79138 0.47869 0.21439 0.0
C573 C 0.74758 0.4544 0.25662 0.0
C574 C 0.79011 0.51036 0.23391 0.0
C575 C 0.76815 0.51412 0.2644 0.0
H576 H 0.98087 0.71868 0.31587 0.0
H577 H 0.08611 0.68268 0.29469 0.0
H578 H 0.08973 0.72016 0.24091 0.0
H579 H 0.06473 0.76583 0.20199 0.0
H580 H 0.95987 0.80295 0.22303 0.0
H581 H 0.95454 0.76257 0.27456 0.0
C582 C 0.00434 0.71851 0.2991 0.0
C583 C 0.03315 0.6977 0.30944 0.0
C584 C 0.00656 0.74078 0.26837 0.0
C585 C 0.06351 0.69832 0.28751 0.0
C586 C 0.06569 0.71992 0.25677 0.0
C587 C 0.0406 0.76511 0.21769 0.0
C588 C 0.01284 0.78775 0.20857 0.0
C589 C 0.03768 0.74178 0.24734 0.0
C590 C 0.98177 0.78605 0.22932 0.0
C591 C 0.97867 0.76287 0.25886 0.0
H592 H 0.2697 0.93675 0.84251 0.0
H593 H 0.30249 0.04425 0.8312 0.0
H594 H 0.26737 0.0499 0.77579 0.0
H595 H 0.22718 0.02446 0.73031 0.0
H596 H 0.19393 0.91707 0.74203 0.0
H597 H 0.22886 0.91153 0.79747 0.0
C598 C 0.26946 0.96133 0.82774 0.0
C599 C 0.28904 0.98995 0.841 0.0
C600 C 0.24868 0.96461 0.79608 0.0
C601 C 0.28785 0.02173 0.82168 0.0
C602 C 0.26763 0.02504 0.78999 0.0
C603 C 0.22721 0.99993 0.74516 0.0
C604 C 0.20765 0.97131 0.73185 0.0
C605 C 0.24775 0.99674 0.77701 0.0
C606 C 0.20847 0.93967 0.75151 0.0
C607 C 0.22865 0.93637 0.78322 0.0
H608 H 0.57105 0.26977 0.84221 0.0
H609 H 0.46032 0.29208 0.84171 0.0
H610 H 0.45208 0.25141 0.79066 0.0
H611 H 0.47683 0.21027 0.7449 0.0
H612 H 0.58763 0.18758 0.74757 0.0
H613 H 0.59506 0.22709 0.79906 0.0
C614 C 0.54509 0.26598 0.83083 0.0
C615 C 0.51642 0.28442 0.84559 0.0
C616 C 0.54046 0.24209 0.80193 0.0
C617 C 0.48292 0.27848 0.83083 0.0
C618 C 0.47818 0.25511 0.80164 0.0
C619 C 0.5025 0.21356 0.75706 0.0
C620 C 0.53159 0.19579 0.74204 0.0
C621 C 0.50678 0.23673 0.78688 0.0
C622 C 0.56468 0.20075 0.75826 0.0
C623 C 0.56906 0.22356 0.78773 0.0
H624 H 0.27813 0.4773 0.72346 0.0
H625 H 0.31702 0.58202 0.74117 0.0
H626 H 0.27829 0.58843 0.79386 0.0
H627 H 0.23147 0.56551 0.83353 0.0
H628 H 0.19233 0.46087 0.81611 0.0
H629 H 0.23275 0.45349 0.76481 0.0
C630 C 0.27854 0.50137 0.7391 0.0
C631 C 0.3007 0.52908 0.72815 0.0
C632 C 0.25574 0.50514 0.76931 0.0
C633 C 0.30045 0.56016 0.74879 0.0
C634 C 0.27811 0.56395 0.77893 0.0
C635 C 0.23171 0.54104 0.8186 0.0
C636 C 0.20857 0.51386 0.8288 0.0
C637 C 0.25526 0.53683 0.78915 0.0
C638 C 0.20964 0.48232 0.80902 0.0
C639 C 0.23286 0.47803 0.77962 0.0
H640 H 0.02531 0.22918 0.82572 0.0
H641 H 0.92152 0.18845 0.80529 0.0
H642 H 0.91384 0.23028 0.75576 0.0
H643 H 0.93564 0.27903 0.71905 0.0
H644 H 0.03961 0.31987 0.73776 0.0
H645 H 0.04786 0.27775 0.78746 0.0
C646 C 1.00119 0.22909 0.81012 0.0
C647 C 0.97409 0.20541 0.8193 0.0
C648 C 0.9967 0.25366 0.78172 0.0
C649 C 0.9429 0.20613 0.79891 0.0
C650 C 0.93837 0.23024 0.77064 0.0
C651 C 0.96007 0.27911 0.73415 0.0
C652 C 0.98686 0.30302 0.72476 0.0
C653 C 0.96489 0.25438 0.76211 0.0
C654 C 0.01844 0.30206 0.74445 0.0
C655 C 0.02324 0.27781 0.77278 0.0
H656 H 0.4862 0.99474 0.95504 0.0
H657 H 0.4088 0.03076 0.0324 0.0
H658 H 0.45339 0.03444 0.07983 0.0
H659 H 0.51402 0.02583 0.10021 0.0
H660 H 0.59248 0.99232 1.02318 0.0
H661 H 0.54812 0.98948 0.97475 0.0
C662 C 0.47919 0.00396 0.98206 0.0
C663 C 0.44393 0.01214 0.99009 0.0
C664 C 0.50516 0.0061 1.00944 0.0
C665 C 0.43549 0.02377 0.02552 0.0
C666 C 0.46102 0.02592 0.05272 0.0
C667 C 0.5213 0.01754 0.07291 0.0
C668 C 0.55634 0.0086 0.06542 0.0
C669 C 0.4958 0.01661 0.04519 0.0
C670 C 0.5656 0.999 0.02961 0.0
C671 C 0.54025 0.99746 1.00197 0.0
H672 H 0.55296 0.45218 1.0086 0.0
H673 H 0.46317 0.47876 0.94266 0.0
H674 H 0.45267 0.53002 0.98113 0.0
H675 H 0.46784 0.56615 0.03502 0.0
H676 H 0.55599 0.53718 0.10184 0.0
H677 H 0.56786 0.48736 0.06172 0.0
C678 C 0.53077 0.46865 1.00251 0.0
C679 C 0.50875 0.46097 0.97251 0.0
C680 C 0.52454 0.49772 0.02511 0.0
C681 C 0.48077 0.48382 0.96519 0.0
C682 C 0.47462 0.51313 0.98737 0.0
C683 C 0.48989 0.54917 0.04053 0.0
C684 C 0.51124 0.55553 0.07132 0.0
C685 C 0.49624 0.52024 1.01754 0.0
C686 C 0.53919 0.53277 0.07848 0.0
C687 C 0.54599 0.50436 0.05549 0.0
H688 H 0.06595 0.5335 1.01874 0.0
H689 H 0.03327 0.44801 0.94973 0.0
H690 H 0.98407 0.43599 0.99047 0.0
H691 H 0.94897 0.45078 0.04423 0.0
H692 H 0.98099 0.535 0.11477 0.0
H693 H 0.03211 0.54615 0.07539 0.0
C694 C 0.04849 0.51184 1.01296 0.0
C695 C 0.05335 0.49182 0.98086 0.0
C696 C 0.01998 0.50495 0.03673 0.0
C697 C 0.03 0.46412 0.97381 0.0
C698 C 1.00185 0.45715 0.99719 0.0
C699 C 0.96696 0.4717 0.05096 0.0
C700 C 0.96078 0.49238 0.08217 0.0
C701 C 0.99625 0.47771 0.02836 0.0
C702 C 0.98506 0.51878 0.09091 0.0
C703 C 0.01424 0.52516 0.06832 0.0
H704 H 0.95999 0.0529 0.99563 0.0
H705 H 0.05236 0.02419 0.93472 0.0
H706 H 0.05989 0.97253 0.97369 0.0
H707 H 0.04089 0.93652 0.02636 0.0
H708 H 0.94879 0.96639 0.08724 0.0
H709 H 0.94042 0.01666 0.04699 0.0
C710 C 0.98208 0.03568 0.99112 0.0
C711 C 0.00596 0.04279 0.96257 0.0
C712 C 0.9861 0.00608 1.01352 0.0
C713 C 0.03372 0.01939 0.95651 0.0
C714 C 0.038 0.98987 0.97881 0.0
C715 C 0.01873 0.95372 0.03053 0.0
C716 C 0.99545 0.94761 0.05991 0.0
C717 C 0.01437 0.98297 1.00748 0.0
C718 C 0.96716 0.97058 0.06506 0.0
C719 C 0.9624 0.99935 0.04206 0.0
H720 H 0.44781 0.54 0.53995 0.0
H721 H 0.47534 0.44986 0.60459 0.0
H722 H 0.52385 0.43717 0.5628 0.0
H723 H 0.55788 0.45116 0.50747 0.0
H724 H 0.53013 0.54107 0.44266 0.0
H725 H 0.48166 0.55385 0.48453 0.0
C726 C 0.46399 0.51726 0.54477 0.0
C727 C 0.45752 0.49574 0.57549 0.0
C728 C 0.49182 0.51005 0.5205 0.0
C729 C 0.47967 0.46698 0.58146 0.0
C730 C 0.50738 0.45964 0.55744 0.0
C731 C 0.54162 0.47385 0.50265 0.0
C732 C 0.54802 0.49534 0.47191 0.0
C733 C 0.51375 0.48102 0.5269 0.0
C734 C 0.52582 0.52404 0.46586 0.0
C735 C 0.49815 0.5314 0.48991 0.0
H736 H 0.02632 0.48497 0.5892 0.0
H737 H 0.96183 0.41923 0.52087 0.0
H738 H 0.96571 0.46165 0.47165 0.0
H739 H 0.98651 0.51835 0.44767 0.0
H740 H 0.05054 0.58401 0.51678 0.0
H741 H 0.04694 0.54144 0.5654 0.0
C742 C 0.01303 0.47989 0.56362 0.0
C743 C 0.99408 0.44852 0.55914 0.0
C744 C 0.01493 0.50476 0.53523 0.0
C745 C 0.97727 0.44254 0.52539 0.0
C746 C 0.97917 0.46709 0.49708 0.0
C747 C 0.99978 0.52338 0.47327 0.0
C748 C 0.0186 0.55487 0.47795 0.0
C749 C 0.99787 0.49839 0.50164 0.0
C750 C 0.03532 0.56068 0.51181 0.0
C751 C 0.03355 0.53602 0.53993 0.0
H752 H 0.99634 0.01323 0.45456 0.0
H753 H 0.91573 0.97401 0.52636 0.0
H754 H 0.95759 0.97132 0.57679 0.0
H755 H 0.01732 0.98044 0.60081 0.0
H756 H 0.09799 0.01977 0.52914 0.0
H757 H 0.0562 0.02229 0.47862 0.0
C758 C 0.98815 0.00355 0.48107 0.0
C759 C 0.95297 0.99355 0.48658 0.0
C760 C 0.01234 0.00257 0.5102 0.0
C761 C 0.94264 0.98179 0.52141 0.0
C762 C 0.96654 0.98038 0.5503 0.0
C763 C 0.02557 0.9901 0.57431 0.0
C764 C 0.06074 1.00019 0.56889 0.0
C765 C 1.00142 0.99102 0.54517 0.0
C766 C 0.07111 0.0119 0.53405 0.0
C767 C 0.04723 0.01322 0.5051 0.0
H768 H 0.47036 0.9382 0.51641 0.0
H769 H 0.55082 0.98076 0.44615 0.0
H770 H 0.55955 0.0292 0.48869 0.0
H771 H 0.54454 0.05947 0.54578 0.0
H772 H 0.4645 0.01688 0.61644 0.0
H773 H 0.45568 0.9683 0.57391 0.0
C774 C 0.4901 0.95773 0.51042 0.0
C775 C 0.50987 0.95554 0.47776 0.0
C776 C 0.495 0.98568 0.53511 0.0
C777 C 0.53495 0.98174 0.47068 0.0
C778 C 0.54004 0.00948 0.49512 0.0
C779 C 0.5249 0.03988 0.55188 0.0
C780 C 0.50514 0.04216 0.58451 0.0
C781 C 0.52009 0.01185 0.52733 0.0
C782 C 0.48025 0.01585 0.59183 0.0
C783 C 0.47515 0.98804 0.56741 0.0
H784 H 0.51652 0.19276 1.02467 0.0
H785 H 0.56641 0.27726 0.08354 0.0
H786 H 0.59137 0.23606 0.12615 0.0
H787 H 0.60931 0.17579 0.13929 0.0
H788 H 0.56699 0.09146 0.07506 0.0
H789 H 0.52917 0.1323 0.04229 0.0
C790 C 0.53252 0.20228 0.04701 0.0
C791 C 0.53973 0.23828 0.05013 0.0
C792 C 0.54874 0.17818 0.07045 0.0
C793 C 0.55977 0.24994 0.08015 0.0
C794 C 0.57466 0.22625 0.10452 0.0
C795 C 0.59091 0.16641 0.11896 0.0
C796 C 0.5906 0.13095 0.1095 0.0
C797 C 0.57074 0.19029 0.09888 0.0
C798 C 0.56728 0.11882 0.08275 0.0
C799 C 0.54591 0.14218 0.06386 0.0
H800 H 0.2666 0.5491 0.07017 0.0
H801 H 0.31257 0.54521 0.96237 0.0
H802 H 0.36697 0.56971 0.98599 0.0
H803 H 0.39757 0.60144 0.03475 0.0
H804 H 0.35083 0.60818 0.14195 0.0
H805 H 0.30058 0.5738 0.12106 0.0
C806 C 0.28877 0.55302 0.052 0.0
C807 C 0.28525 0.54579 1.01446 0.0
C808 C 0.31955 0.56846 0.06548 0.0
C809 C 0.31448 0.55031 0.9914 0.0
C810 C 0.3455 0.56485 1.00479 0.0
C811 C 0.37654 0.59502 0.05362 0.0
C812 C 0.37747 0.60786 0.08958 0.0
C813 C 0.34768 0.57553 0.04135 0.0
C814 C 0.35051 0.5988 0.11402 0.0
C815 C 0.32176 0.57921 0.10207 0.0
H816 H 0.94821 0.25379 0.04755 0.0
H817 H 0.99231 0.32307 0.96622 0.0
H818 H 0.96433 0.37285 0.99592 0.0
H819 H 0.92048 0.39507 0.03976 0.0
H820 H 0.88037 0.32662 0.12359 0.0
H821 H 0.91404 0.27792 0.09817 0.0
C822 C 0.95302 0.27982 0.03695 0.0
C823 C 0.9717 0.28437 1.004 0.0
C824 C 0.93695 0.30838 0.0542 0.0
C825 C 0.97728 0.31856 0.99093 0.0
C826 C 0.96122 0.3471 1.00785 0.0
C827 C 0.9197 0.36962 0.05276 0.0
C828 C 0.89776 0.36412 0.08307 0.0
C829 C 0.93973 0.34204 0.03852 0.0
C830 C 0.89707 0.33126 0.10008 0.0
C831 C 0.91626 0.30347 0.08555 0.0
H832 H 0.23465 0.97345 0.07381 0.0
H833 H 0.1649 0.01363 0.99102 0.0
H834 H 0.11505 0.98759 1.02286 0.0
H835 H 0.09401 0.94313 0.06643 0.0
H836 H 0.16321 0.90473 0.14998 0.0
H837 H 0.21067 0.94158 0.1262 0.0
C838 C 0.20855 0.97803 0.0633 0.0
C839 C 0.20392 0.99454 0.02913 0.0
C840 C 0.17996 0.96292 0.08171 0.0
C841 C 0.16955 0.99997 1.01646 0.0
C842 C 0.14095 0.98512 0.03469 0.0
C843 C 0.11916 0.94392 0.08017 0.0
C844 C 0.12555 0.921 0.10936 0.0
C845 C 0.14621 0.96485 0.06611 0.0
C846 C 0.1579 0.9222 0.12737 0.0
C847 C 0.18506 0.943 0.11353 0.0
H848 H 0.60512 0.38441 0.51911 0.0
H849 H 0.57592 0.33995 0.41526 0.0
H850 H 0.53818 0.29733 0.44643 0.0
H851 H 0.51884 0.26912 0.50356 0.0
H852 H 0.55516 0.31151 0.60666 0.0
H853 H 0.58252 0.35933 0.57529 0.0
C854 C 0.59034 0.36555 0.5032 0.0
C855 C 0.59383 0.36484 0.46504 0.0
C856 C 0.5694 0.34086 0.52122 0.0
C857 C 0.57395 0.34074 0.44477 0.0
C858 C 0.55239 0.31638 0.46259 0.0
C859 C 0.5327 0.28863 0.5194 0.0
C860 C 0.53483 0.28554 0.55783 0.0
C861 C 0.55077 0.31553 0.50095 0.0
C862 C 0.55197 0.31247 0.57737 0.0
C863 C 0.5685 0.33997 0.55933 0.0
H864 H 0.11125 0.5849 0.49493 0.0
H865 H 0.18388 0.61486 0.41022 0.0
H866 H 0.2308 0.58257 0.44082 0.0
H867 H 0.25209 0.553 0.49546 0.0
H868 H 0.17855 0.51851 0.5781 0.0
H869 H 0.13068 0.54518 0.54406 0.0
C870 C 0.13725 0.58376 0.48301 0.0
C871 C 0.14452 0.60244 0.45086 0.0
C872 C 0.16377 0.56463 0.50037 0.0
C873 C 0.17797 0.60061 0.43508 0.0
C874 C 0.20471 0.58228 0.45261 0.0
C875 C 0.22558 0.54995 0.50566 0.0
C876 C 0.21938 0.53437 0.54004 0.0
C877 C 0.19809 0.565 0.48579 0.0
C878 C 0.1845 0.53126 0.5524 0.0
C879 C 0.15701 0.54647 0.53292 0.0
H880 H 0.90203 0.10559 0.52272 0.0
H881 H 0.92801 0.14213 0.41448 0.0
H882 H 0.96615 0.18719 0.44047 0.0
H883 H 0.98613 0.22038 0.49413 0.0
H884 H 0.95459 0.18564 0.60189 0.0
H885 H 0.92661 0.13494 0.57586 0.0
C886 C 0.91629 0.1232 0.50478 0.0
C887 C 0.91171 0.12104 0.46685 0.0
C888 C 0.93765 0.14927 0.51985 0.0
C889 C 0.93084 0.14357 0.44388 0.0
C890 C 0.95264 0.16933 0.45871 0.0
C891 C 0.97343 0.20164 0.51202 0.0
C892 C 0.9724 0.20763 0.55002 0.0
C893 C 0.95536 0.17312 0.49674 0.0
C894 C 0.95661 0.18213 0.57264 0.0
C895 C 0.93984 0.15312 0.55773 0.0
H896 H 0.40959 0.91977 0.50663 0.0
H897 H 0.34077 0.89825 0.41617 0.0
H898 H 0.29356 0.93054 0.44636 0.0
H899 H 0.27034 0.95714 0.50169 0.0
H900 H 0.34015 0.98356 0.59049 0.0
H901 H 0.38888 0.95728 0.55725 0.0
C902 C 0.38441 0.92281 0.49336 0.0
C903 C 0.37825 0.90643 0.45963 0.0
C904 C 0.35769 0.94192 0.51056 0.0
C905 C 0.34587 0.91069 0.44223 0.0
C906 C 0.31892 0.92902 0.45953 0.0
C907 C 0.29627 0.95861 0.51356 0.0
C908 C 0.30099 0.97164 0.54931 0.0
C909 C 0.32429 0.94386 0.49416 0.0
C910 C 0.3352 0.9727 0.56369 0.0
C911 C 0.36322 0.95772 0.54464 0.0
H912 H 0.4511 0.8123 0.0732 0.0
H913 H 0.49713 0.77823 0.97135 0.0
H914 H 0.46344 0.8229 0.93868 0.0
H915 H 0.41694 0.86851 0.93915 0.0
H916 H 0.37271 0.9006 0.04264 0.0
H917 H 0.41039 0.85993 0.0746 0.0
C918 C 0.45516 0.81521 0.04403 0.0
C919 C 0.47713 0.79193 1.02495 0.0
C920 C 0.43552 0.84034 0.0256 0.0
C921 C 0.48047 0.7957 0.98684 0.0
C922 C 0.46109 0.82116 0.96814 0.0
C923 C 0.41581 0.86669 0.96869 0.0
C924 C 0.39175 0.8873 0.98842 0.0
C925 C 0.43778 0.84304 0.98719 0.0
C926 C 0.39075 0.88492 0.0267 0.0
C927 C 0.41236 0.86169 0.04509 0.0
H928 H 0.75503 0.45336 0.98034 0.0
H929 H 0.68645 0.51409 0.04963 0.0
H930 H 0.63546 0.4874 1.02059 0.0
H931 H 0.6114 0.4388 0.98384 0.0
H932 H 0.67972 0.38079 0.91246 0.0
H933 H 0.73013 0.41496 0.93371 0.0
C934 C 0.72909 0.46211 0.98818 0.0
C935 C 0.72477 0.48497 1.01809 0.0
C936 C 0.69989 0.44656 0.97149 0.0
C937 C 0.69065 0.49576 0.0275 0.0
C938 C 0.66143 0.48041 1.011 0.0
C939 C 0.63725 0.43439 0.97239 0.0
C940 C 0.6423 0.40723 0.94719 0.0
C941 C 0.66586 0.45439 0.98442 0.0
C942 C 0.67556 0.40167 0.932 0.0
C943 C 0.70429 0.42108 0.94424 0.0
H944 H 0.04212 0.74643 0.96057 0.0
H945 H 0.01812 0.69246 0.06116 0.0
H946 H 0.03244 0.63675 0.0327 0.0
H947 H 0.06492 0.60603 0.98469 0.0
H948 H 0.09278 0.65987 0.88537 0.0
H949 H 0.06349 0.71279 0.90747 0.0
C950 C 0.03914 0.72233 0.97591 0.0
C951 C 0.0298 0.72372 1.01318 0.0
C952 C 0.04871 0.69042 0.95973 0.0
C953 C 0.02527 0.69226 0.0325 0.0
C954 C 0.03388 0.66035 1.01635 0.0
C955 C 0.06342 0.62903 0.96738 0.0
C956 C 0.08132 0.62946 0.9338 0.0
C957 C 0.04756 0.65946 0.98077 0.0
C958 C 0.07906 0.65905 0.9113 0.0
C959 C 0.06272 0.68941 0.92418 0.0
H960 H 0.77441 0.02279 0.9923 0.0
H961 H 0.82068 0.04356 0.09758 0.0
H962 H 0.87304 0.06681 0.06798 0.0
H963 H 0.89985 0.09233 1.01303 0.0
H964 H 0.85169 0.07563 0.90793 0.0
H965 H 0.8058 0.04022 0.93653 0.0
C966 C 0.7963 0.03171 1.00874 0.0
C967 C 0.79324 0.03213 0.0471 0.0
C968 C 0.82558 0.04678 0.99156 0.0
C969 C 0.82219 0.04288 0.06804 0.0
C970 C 0.85199 0.05676 0.05111 0.0
C971 C 0.87958 0.0805 0.99634 0.0
C972 C 0.87861 0.08723 0.95859 0.0
C973 C 0.85303 0.06067 1.01303 0.0
C974 C 0.85273 0.07114 0.93713 0.0
C975 C 0.82646 0.05094 0.95348 0.0
H976 H 0.48895 0.72496 0.5515 0.0
H977 H 0.45112 0.68758 0.44689 0.0
H978 H 0.42336 0.63884 0.4762 0.0
H979 H 0.40151 0.61116 0.53125 0.0
H980 H 0.43217 0.65048 0.63688 0.0
H981 H 0.46977 0.69437 0.60746 0.0
C982 C 0.4747 0.70632 0.5349 0.0
C983 C 0.47251 0.71097 0.49665 0.0
C984 C 0.45648 0.67882 0.55223 0.0
C985 C 0.45458 0.68529 0.47607 0.0
C986 C 0.43783 0.65727 0.49293 0.0
C987 C 0.41659 0.62916 0.54794 0.0
C988 C 0.41361 0.628 0.58612 0.0
C989 C 0.43742 0.65459 0.53095 0.0
C990 C 0.4338 0.65108 0.60734 0.0
C991 C 0.45526 0.67618 0.59052 0.0
H992 H 0.75688 0.44651 0.55119 0.0
H993 H 0.82671 0.483 0.46606 0.0
H994 H 0.87662 0.45925 0.49927 0.0
H995 H 0.89888 0.42044 0.54781 0.0
H996 H 0.8297 0.38772 0.63456 0.0
H997 H 0.78087 0.41854 0.6056 0.0
C998 C 0.78299 0.45066 0.54029 0.0
C999 C 0.78765 0.46578 0.50544 0.0
C1000 C 0.81163 0.43714 0.55961 0.0
C1001 C 0.82203 0.47049 0.49217 0.0
C1002 C 0.85067 0.45694 0.51116 0.0
C1003 C 0.8732 0.42075 0.56061 0.0
C1004 C 0.86743 0.40158 0.59278 0.0
C1005 C 0.84552 0.43884 0.54405 0.0
C1006 C 0.83445 0.40235 0.60968 0.0
C1007 C 0.8066 0.41981 0.59306 0.0
H1008 H 0.02526 0.78402 0.54112 0.0
H1009 H 0.07078 0.81899 0.43893 0.0
H1010 H 0.09977 0.8664 0.47001 0.0
H1011 H 0.12046 0.8924 0.5267 0.0
H1012 H 0.08086 0.85478 0.62999 0.0
H1013 H 0.04252 0.81349 0.59809 0.0
C1014 C 0.04136 0.80201 0.52548 0.0
C1015 C 0.04582 0.79705 0.48754 0.0
C1016 C 0.06005 0.82838 0.5439 0.0
C1017 C 0.06597 0.82175 0.46791 0.0
C1018 C 0.08333 0.84882 0.48581 0.0
C1019 C 0.10327 0.87535 0.54229 0.0
C1020 C 0.10397 0.87615 0.58062 0.0
C1021 C 0.08183 0.85139 0.52388 0.0
C1022 C 0.0811 0.85434 0.6004 0.0
C1023 C 0.05915 0.83077 0.58218 0.0
H1024 H 0.6049 0.07707 0.55475 0.0
H1025 H 0.67438 0.10627 0.64226 0.0
H1026 H 0.7223 0.07414 0.61313 0.0
H1027 H 0.7455 0.04495 0.5593 0.0
H1028 H 0.67513 0.01039 0.47405 0.0
H1029 H 0.62613 0.0373 0.50625 0.0
C1030 C 0.6304 0.07576 0.56764 0.0
C1031 C 0.63648 0.09418 0.6002 0.0
C1032 C 0.65753 0.05663 0.55114 0.0
C1033 C 0.66933 0.0922 0.61711 0.0
C1034 C 0.69667 0.07396 0.60042 0.0
C1035 C 0.71945 0.04185 0.54806 0.0
C1036 C 0.71458 0.02626 0.51347 0.0
C1037 C 0.69126 0.05687 0.56695 0.0
C1038 C 0.68018 0.02321 0.49987 0.0
C1039 C 0.652 0.03853 0.51834 0.0
H1040 H 0.78863 0.30789 0.1595 0.0
H1041 H 0.699 0.32931 0.09161 0.0
H1042 H 0.6777 0.26977 0.10045 0.0
H1043 H 0.68807 0.20999 0.12177 0.0
H1044 H 0.77618 0.18953 0.19253 0.0
H1045 H 0.79423 0.25018 0.18823 0.0
C1046 C 0.76402 0.29985 0.14738 0.0
C1047 C 0.74593 0.32287 0.12425 0.0
C1048 C 0.75188 0.26545 0.1525 0.0
C1049 C 0.71399 0.31185 0.10877 0.0
C1050 C 0.70172 0.27779 0.11385 0.0
C1051 C 0.71088 0.21868 0.13679 0.0
C1052 C 0.7312 0.19446 0.15644 0.0
C1053 C 0.72106 0.25399 0.13469 0.0
C1054 C 0.76056 0.20687 0.17595 0.0
C1055 C 0.77087 0.24183 0.17383 0.0
H1056 H 0.20024 0.73769 0.16013 0.0
H1057 H 0.20928 0.83794 0.10638 0.0
H1058 H 0.27264 0.8322 0.10516 0.0
H1059 H 0.32507 0.7967 0.11406 0.0
H1060 H 0.31612 0.69414 0.16225 0.0
H1061 H 0.25334 0.70316 0.17163 0.0
C1062 C 0.21591 0.75827 0.14797 0.0
C1063 C 0.19956 0.78804 0.13298 0.0
C1064 C 0.25252 0.75445 0.14647 0.0
C1065 C 0.22073 0.81479 0.11832 0.0
C1066 C 0.25715 0.81147 0.1174 0.0
C1067 C 0.30943 0.77631 0.12671 0.0
C1068 C 0.3253 0.74459 0.1369 0.0
C1069 C 0.27321 0.78111 0.13065 0.0
C1070 C 0.30478 0.71887 0.15425 0.0
C1071 C 0.26874 0.72388 0.15924 0.0
H1072 H 0.78153 0.30784 0.38932 0.0
H1073 H 0.67068 0.28706 0.38976 0.0
H1074 H 0.68184 0.22421 0.38409 0.0
H1075 H 0.72356 0.1755 0.39199 0.0
H1076 H 0.8344 0.19631 0.39199 0.0
H1077 H 0.82329 0.25889 0.38364 0.0
C1078 C 0.75997 0.28947 0.38681 0.0
C1079 C 0.72542 0.30167 0.39024 0.0
C1080 C 0.76672 0.25352 0.38414 0.0
C1081 C 0.69743 0.27804 0.38695 0.0
C1082 C 0.70387 0.24217 0.38414 0.0
C1083 C 0.74513 0.19377 0.3888 0.0
C1084 C 0.77966 0.18173 0.39287 0.0
C1085 C 0.73841 0.22959 0.38458 0.0
C1086 C 0.80767 0.20521 0.3887 0.0
C1087 C 0.80127 0.24094 0.38436 0.0
H1088 H 0.32677 0.7214 0.3839 0.0
H1089 H 0.31097 0.83268 0.37801 0.0
H1090 H 0.24829 0.82364 0.36754 0.0
H1091 H 0.19718 0.78433 0.37223 0.0
H1092 H 0.21281 0.67316 0.38007 0.0
H1093 H 0.27635 0.68152 0.37677 0.0
C1094 C 0.3096 0.74352 0.37929 0.0
C1095 C 0.32315 0.77761 0.38216 0.0
C1096 C 0.2736 0.73805 0.37402 0.0
C1097 C 0.30104 0.80623 0.37579 0.0
C1098 C 0.26518 0.80104 0.37018 0.0
C1099 C 0.21463 0.76198 0.37204 0.0
C1100 C 0.2006 0.72828 0.37679 0.0
C1101 C 0.25102 0.76714 0.371 0.0
C1102 C 0.22312 0.69931 0.37627 0.0
C1103 C 0.25942 0.70415 0.37483 0.0
H1104 H 0.20837 0.82215 0.95298 0.0
H1105 H 0.30573 0.81901 0.89278 0.0
H1106 H 0.2953 0.75771 0.87775 0.0
H1107 H 0.2609 0.70392 0.88583 0.0
H1108 H 0.166 0.70653 0.9505 0.0
H1109 H 0.17323 0.76903 0.95958 0.0
C1110 C 0.22743 0.80812 0.93667 0.0
C1111 C 0.25804 0.82524 0.92453 0.0
C1112 C 0.22183 0.77261 0.92909 0.0
C1113 C 0.28186 0.80675 0.90244 0.0
C1114 C 0.27607 0.77152 0.89409 0.0
C1115 C 0.24185 0.71797 0.90212 0.0
C1116 C 0.21311 0.70006 0.91769 0.0
C1117 C 0.24655 0.75398 0.90802 0.0
C1118 C 0.18828 0.71925 0.93789 0.0
C1119 C 0.19249 0.75514 0.94333 0.0
H1120 H 0.81551 0.27024 0.88404 0.0
H1121 H 0.7966 0.16055 0.90082 0.0
H1122 H 0.73314 0.17043 0.89896 0.0
H1123 H 0.68425 0.21238 0.90496 0.0
H1124 H 0.70325 0.32204 0.88773 0.0
H1125 H 0.76546 0.31046 0.87647 0.0
C1126 C 0.7973 0.24848 0.88578 0.0
C1127 C 0.81027 0.21481 0.89263 0.0
C1128 C 0.76105 0.25456 0.88512 0.0
C1129 C 0.78689 0.18657 0.89516 0.0
C1130 C 0.75072 0.19233 0.89455 0.0
C1131 C 0.70196 0.23341 0.89741 0.0
C1132 C 0.6896 0.26796 0.89739 0.0
C1133 C 0.73761 0.22646 0.89134 0.0
C1134 C 0.71239 0.29527 0.88765 0.0
C1135 C 0.74794 0.28865 0.88161 0.0
H1136 H 0.22727 0.68536 0.66259 0.0
H1137 H 0.3385 0.70386 0.66382 0.0
H1138 H 0.32859 0.76675 0.67113 0.0
H1139 H 0.288 0.81643 0.66386 0.0
H1140 H 0.17676 0.79791 0.66196 0.0
H1141 H 0.18647 0.73499 0.66908 0.0
C1142 C 0.24917 0.70321 0.66587 0.0
C1143 C 0.28348 0.69043 0.6624 0.0
C1144 C 0.24314 0.73921 0.6694 0.0
C1145 C 0.31192 0.71336 0.66665 0.0
C1146 C 0.30621 0.74926 0.67038 0.0
C1147 C 0.26601 0.79856 0.66636 0.0
C1148 C 0.23181 0.81136 0.66206 0.0
C1149 C 0.27194 0.76254 0.66986 0.0
C1150 C 0.20326 0.7884 0.66539 0.0
C1151 C 0.20887 0.75248 0.66904 0.0
H1152 H 0.81843 0.21748 0.66802 0.0
H1153 H 0.80202 0.32864 0.66062 0.0
H1154 H 0.73885 0.3201 0.66756 0.0
H1155 H 0.68814 0.28018 0.66479 0.0
H1156 H 0.70439 0.16894 0.67025 0.0
H1157 H 0.76767 0.17809 0.67572 0.0
C1158 C 0.80096 0.23979 0.6688 0.0
C1159 C 0.81468 0.27355 0.66333 0.0
C1160 C 0.76467 0.23456 0.67209 0.0
C1161 C 0.79206 0.30243 0.66488 0.0
C1162 C 0.75591 0.29751 0.66848 0.0
C1163 C 0.70561 0.25809 0.66812 0.0
C1164 C 0.69187 0.22399 0.66671 0.0
C1165 C 0.74189 0.2636 0.67049 0.0
C1166 C 0.71444 0.19542 0.67143 0.0
C1167 C 0.75062 0.20066 0.67416 0.0
loop_
_geom_bond_atom_site_label_1
_geom_bond_atom_site_label_2
_geom_bond_distance
_geom_bond_site_symmetry_2
_ccdc_geom_bond_type
Co0 N4 2.148 . S
Co0 N10 2.128 . S
Co0 N20 2.194 . S
Co0 O25 2.351 . S
Co0 O26 2.155 . S
Co0 O27 2.096 . S
C1 N4 1.301 . S
C1 N5 1.328 . S
C1 H6 0.930 . S
C2 C3 1.333 . S
C2 N4 1.317 . S
C2 H7 0.930 . S
C3 C2 1.333 . S
C3 N5 1.350 . S
C3 H29 0.931 1_545 S
N4 Co0 2.148 . S
N4 C1 1.301 . S
N4 C2 1.317 . S
N5 C1 1.328 . S
N5 C3 1.350 . S
H6 C1 0.930 . S
H7 C2 0.930 . S
C8 O9 1.224 . S
C8 O27 1.247 . S
O9 C8 1.224 . S
N10 Co0 2.128 . S
N10 C11 1.355 . S
N10 C13 1.311 . S
C11 N10 1.355 . S
C11 C12 1.363 . S
C11 H23 0.929 . S
C12 C11 1.363 . S
C12 N14 1.375 . S
C12 H30 0.931 . S
C13 N10 1.311 . S
C13 N14 1.347 . S
C13 H24 0.929 . S
N14 C12 1.375 . S
N14 C13 1.347 . S
C15 C18 1.365 . S
C15 N20 1.328 . S
C15 H21 0.929 . S
C16 C17 1.362 . S
C16 C19 1.378 . S
C16 H31 0.929 . S
C17 C16 1.362 . S
C17 C18 1.366 . S
C18 C15 1.365 . S
C18 C17 1.366 . S
C18 H32 0.930 1_554 S
C19 C16 1.378 . S
C19 N20 1.315 . S
C19 H22 0.930 . S
N20 Co0 2.194 . S
N20 C15 1.328 . S
N20 C19 1.315 . S
H21 C15 0.929 . S
H22 C19 0.930 . S
H23 C11 0.929 . S
H24 C13 0.929 . S
O25 Co0 2.351 . S
O25 C28 1.244 . S
O26 Co0 2.155 . S
O26 C28 1.240 . S
O27 Co0 2.096 . S
O27 C8 1.247 . S
C28 O25 1.244 . S
C28 O26 1.240 . S
H29 C3 0.931 1_565 S
H30 C12 0.931 . S
H31 C16 0.929 . S
H32 C18 0.930 1_556 S
Co33 N37 2.148 . S
Co33 N43 2.128 . S
Co33 N53 2.194 . S
Co33 O58 2.351 . S
Co33 O59 2.155 . S
Co33 O60 2.096 . S
C34 N37 1.301 . S
C34 N38 1.328 . S
C34 H39 0.930 . S
C35 C36 1.333 . S
C35 N37 1.317 . S
C35 H40 0.930 . S
C36 C35 1.333 . S
C36 N38 1.350 . S
C36 H62 0.931 . S
N37 Co33 2.148 . S
N37 C34 1.301 . S
N37 C35 1.317 . S
N38 C34 1.328 . S
N38 C36 1.350 . S
H39 C34 0.930 . S
H40 C35 0.930 . S
C41 O42 1.224 . S
C41 O60 1.247 . S
O42 C41 1.224 . S
N43 Co33 2.128 . S
N43 C44 1.355 . S
N43 C46 1.311 . S
C44 N43 1.355 . S
C44 C45 1.363 . S
C44 H56 0.929 . S
C45 C44 1.363 . S
C45 N47 1.375 . S
C45 H63 0.931 . S
C46 N43 1.311 . S
C46 N47 1.347 . S
C46 H57 0.929 . S
N47 C45 1.375 . S
N47 C46 1.347 . S
C48 C51 1.365 . S
C48 N53 1.328 . S
C48 H54 0.929 . S
C49 C50 1.362 . S
C49 C52 1.378 . S
C49 H64 0.929 . S
C50 C49 1.362 . S
C50 C51 1.366 . S
C51 C48 1.365 . S
C51 C50 1.366 . S
C51 H65 0.930 1_554 S
C52 C49 1.378 . S
C52 N53 1.315 . S
C52 H55 0.930 . S
N53 Co33 2.194 . S
N53 C48 1.328 . S
N53 C52 1.315 . S
H54 C48 0.929 . S
H55 C52 0.930 . S
H56 C44 0.929 . S
H57 C46 0.929 . S
O58 Co33 2.351 . S
O58 C61 1.244 . S
O59 Co33 2.155 . S
O59 C61 1.240 . S
O60 Co33 2.096 . S
O60 C41 1.247 . S
C61 O58 1.244 . S
C61 O59 1.240 . S
H62 C36 0.931 . S
H63 C45 0.931 . S
H64 C49 0.929 . S
H65 C51 0.930 1_556 S
Co66 N70 2.148 . S
Co66 N76 2.128 . S
Co66 N86 2.194 . S
Co66 O91 2.351 . S
Co66 O92 2.155 . S
Co66 O93 2.096 . S
C67 N70 1.301 . S
C67 N71 1.328 . S
C67 H72 0.930 . S
C68 C69 1.333 . S
C68 N70 1.317 . S
C68 H73 0.930 . S
C69 C68 1.333 . S
C69 N71 1.350 . S
C69 H95 0.931 . S
N70 Co66 2.148 . S
N70 C67 1.301 . S
N70 C68 1.317 . S
N71 C67 1.328 . S
N71 C69 1.350 . S
H72 C67 0.930 . S
H73 C68 0.930 . S
C74 O75 1.224 . S
C74 O93 1.247 . S
O75 C74 1.224 . S
N76 Co66 2.128 . S
N76 C77 1.355 . S
N76 C79 1.311 . S
C77 N76 1.355 . S
C77 C78 1.363 . S
C77 H89 0.929 . S
C78 C77 1.363 . S
C78 N80 1.375 . S
C78 H96 0.931 . S
C79 N76 1.311 . S
C79 N80 1.347 . S
C79 H90 0.929 . S
N80 C78 1.375 . S
N80 C79 1.347 . S
C81 C84 1.365 . S
C81 N86 1.328 . S
C81 H87 0.929 . S
C82 C83 1.362 . S
C82 C85 1.378 . S
C82 H97 0.929 . S
C83 C82 1.362 . S
C83 C84 1.366 . S
C84 C81 1.365 . S
C84 C83 1.366 . S
C84 H98 0.930 1_554 S
C85 C82 1.378 . S
C85 N86 1.315 . S
C85 H88 0.930 . S
N86 Co66 2.194 . S
N86 C81 1.328 . S
N86 C85 1.315 . S
H87 C81 0.929 . S
H88 C85 0.930 . S
H89 C77 0.929 . S
H90 C79 0.929 . S
O91 Co66 2.351 . S
O91 C94 1.244 . S
O92 Co66 2.155 . S
O92 C94 1.240 . S
O93 Co66 2.096 . S
O93 C74 1.247 . S
C94 O91 1.244 . S
C94 O92 1.240 . S
H95 C69 0.931 . S
H96 C78 0.931 . S
H97 C82 0.929 . S
H98 C84 0.930 1_556 S
Co99 N103 2.148 . S
Co99 N109 2.128 . S
Co99 N119 2.194 . S
Co99 O124 2.351 . S
Co99 O125 2.155 . S
Co99 O126 2.096 . S
C100 N103 1.301 . S
C100 N104 1.328 . S
C100 H105 0.930 . S
C101 C102 1.333 . S
C101 N103 1.317 . S
C101 H106 0.930 . S
C102 C101 1.333 . S
C102 N104 1.350 . S
C102 H128 0.931 1_455 S
N103 Co99 2.148 . S
N103 C100 1.301 . S
N103 C101 1.317 . S
N104 C100 1.328 . S
N104 C102 1.350 . S
H105 C100 0.930 . S
H106 C101 0.930 . S
C107 O108 1.224 . S
C107 O126 1.247 . S
O108 C107 1.224 . S
N109 Co99 2.128 . S
N109 C110 1.355 . S
N109 C112 1.311 . S
C110 N109 1.355 . S
C110 C111 1.363 . S
C110 H122 0.929 . S
C111 C110 1.363 . S
C111 N113 1.375 . S
C111 H129 0.931 . S
C112 N109 1.311 . S
C112 N113 1.347 . S
C112 H123 0.929 . S
N113 C111 1.375 . S
N113 C112 1.347 . S
C114 C117 1.365 . S
C114 N119 1.328 . S
C114 H120 0.929 . S
C115 C116 1.362 . S
C115 C118 1.378 . S
C115 H130 0.929 . S
C116 C115 1.362 . S
C116 C117 1.366 . S
C117 C114 1.365 . S
C117 C116 1.366 . S
C117 H131 0.930 1_554 S
C118 C115 1.378 . S
C118 N119 1.315 . S
C118 H121 0.930 . S
N119 Co99 2.194 . S
N119 C114 1.328 . S
N119 C118 1.315 . S
H120 C114 0.929 . S
H121 C118 0.930 . S
H122 C110 0.929 . S
H123 C112 0.929 . S
O124 Co99 2.351 . S
O124 C127 1.244 . S
O125 Co99 2.155 . S
O125 C127 1.240 . S
O126 Co99 2.096 . S
O126 C107 1.247 . S
C127 O124 1.244 . S
C127 O125 1.240 . S
H128 C102 0.931 1_655 S
H129 C111 0.931 . S
H130 C115 0.929 . S
H131 C117 0.930 1_556 S
Co132 N136 2.148 . S
Co132 N142 2.128 . S
Co132 N152 2.194 . S
Co132 O157 2.351 . S
Co132 O158 2.155 . S
Co132 O159 2.096 . S
C133 N136 1.301 . S
C133 N137 1.328 . S
C133 H138 0.930 . S
C134 C135 1.333 . S
C134 N136 1.317 . S
C134 H139 0.930 . S
C135 C134 1.333 . S
C135 N137 1.350 . S
C135 H161 0.931 . S
N136 Co132 2.148 . S
N136 C133 1.301 . S
N136 C134 1.317 . S
N137 C133 1.328 . S
N137 C135 1.350 . S
H138 C133 0.930 . S
H139 C134 0.930 . S
C140 O141 1.224 . S
C140 O159 1.247 . S
O141 C140 1.224 . S
N142 Co132 2.128 . S
N142 C143 1.355 . S
N142 C145 1.311 . S
C143 N142 1.355 . S
C143 C144 1.363 . S
C143 H155 0.929 . S
C144 C143 1.363 . S
C144 N146 1.375 . S
C144 H162 0.931 . S
C145 N142 1.311 . S
C145 N146 1.347 . S
C145 H156 0.929 . S
N146 C144 1.375 . S
N146 C145 1.347 . S
C147 C150 1.365 . S
C147 N152 1.328 . S
C147 H153 0.929 . S
C148 C149 1.362 . S
C148 C151 1.378 . S
C148 H163 0.929 . S
C149 C148 1.362 . S
C149 C150 1.366 . S
C150 C147 1.365 . S
C150 C149 1.366 . S
C150 H164 0.930 . S
C151 C148 1.378 . S
C151 N152 1.315 . S
C151 H154 0.930 . S
N152 Co132 2.194 . S
N152 C147 1.328 . S
N152 C151 1.315 . S
H153 C147 0.929 . S
H154 C151 0.930 . S
H155 C143 0.929 . S
H156 C145 0.929 . S
O157 Co132 2.351 . S
O157 C160 1.244 . S
O158 Co132 2.155 . S
O158 C160 1.240 . S
O159 Co132 2.096 . S
O159 C140 1.247 . S
C160 O157 1.244 . S
C160 O158 1.240 . S
H161 C135 0.931 . S
H162 C144 0.931 . S
H163 C148 0.929 . S
H164 C150 0.930 . S
Co165 N169 2.148 . S
Co165 N175 2.128 . S
Co165 N185 2.194 . S
Co165 O190 2.351 . S
Co165 O191 2.155 . S
Co165 O192 2.096 . S
C166 N169 1.301 . S
C166 N170 1.328 . S
C166 H171 0.930 . S
C167 C168 1.333 . S
C167 N169 1.317 . S
C167 H172 0.930 . S
C168 C167 1.333 . S
C168 N170 1.350 . S
C168 H194 0.931 1_455 S
N169 Co165 2.148 . S
N169 C166 1.301 . S
N169 C167 1.317 . S
N170 C166 1.328 . S
N170 C168 1.350 . S
H171 C166 0.930 . S
H172 C167 0.930 . S
C173 O174 1.224 . S
C173 O192 1.247 . S
O174 C173 1.224 . S
N175 Co165 2.128 . S
N175 C176 1.355 . S
N175 C178 1.311 . S
C176 N175 1.355 . S
C176 C177 1.363 . S
C176 H188 0.929 . S
C177 C176 1.363 . S
C177 N179 1.375 . S
C177 H195 0.931 . S
C178 N175 1.311 . S
C178 N179 1.347 . S
C178 H189 0.929 . S
N179 C177 1.375 . S
N179 C178 1.347 . S
C180 C183 1.365 . S
C180 N185 1.328 . S
C180 H186 0.929 . S
C181 C182 1.362 . S
C181 C184 1.378 . S
C181 H196 0.929 . S
C182 C181 1.362 . S
C182 C183 1.366 . S
C183 C180 1.365 . S
C183 C182 1.366 . S
C183 H197 0.930 . S
C184 C181 1.378 . S
C184 N185 1.315 . S
C184 H187 0.930 . S
N185 Co165 2.194 . S
N185 C180 1.328 . S
N185 C184 1.315 . S
H186 C180 0.929 . S
H187 C184 0.930 . S
H188 C176 0.929 . S
H189 C178 0.929 . S
O190 Co165 2.351 . S
O190 C193 1.244 . S
O191 Co165 2.155 . S
O191 C193 1.240 . S
O192 Co165 2.096 . S
O192 C173 1.247 . S
C193 O190 1.244 . S
C193 O191 1.240 . S
H194 C168 0.931 1_655 S
H195 C177 0.931 . S
H196 C181 0.929 . S
H197 C183 0.930 . S
Co198 N202 2.148 . S
Co198 N208 2.128 . S
Co198 N218 2.194 . S
Co198 O223 2.351 . S
Co198 O224 2.155 . S
Co198 O225 2.096 . S
C199 N202 1.301 . S
C199 N203 1.328 . S
C199 H204 0.930 . S
C200 C201 1.333 . S
C200 N202 1.317 . S
C200 H205 0.930 . S
C201 C200 1.333 . S
C201 N203 1.350 . S
C201 H227 0.931 1_545 S
N202 Co198 2.148 . S
N202 C199 1.301 . S
N202 C200 1.317 . S
N203 C199 1.328 . S
N203 C201 1.350 . S
H204 C199 0.930 . S
H205 C200 0.930 . S
C206 O207 1.224 . S
C206 O225 1.247 . S
O207 C206 1.224 . S
N208 Co198 2.128 . S
N208 C209 1.355 . S
N208 C211 1.311 . S
C209 N208 1.355 . S
C209 C210 1.363 . S
C209 H221 0.929 . S
C210 C209 1.363 . S
C210 N212 1.375 . S
C210 H228 0.931 . S
C211 N208 1.311 . S
C211 N212 1.347 . S
C211 H222 0.929 . S
N212 C210 1.375 . S
N212 C211 1.347 . S
C213 C216 1.365 . S
C213 N218 1.328 . S
C213 H219 0.929 . S
C214 C215 1.362 . S
C214 C217 1.378 . S
C214 H229 0.929 . S
C215 C214 1.362 . S
C215 C216 1.366 . S
C216 C213 1.365 . S
C216 C215 1.366 . S
C216 H230 0.930 . S
C217 C214 1.378 . S
C217 N218 1.315 . S
C217 H220 0.930 . S
N218 Co198 2.194 . S
N218 C213 1.328 . S
N218 C217 1.315 . S
H219 C213 0.929 . S
H220 C217 0.930 . S
H221 C209 0.929 . S
H222 C211 0.929 . S
O223 Co198 2.351 . S
O223 C226 1.244 . S
O224 Co198 2.155 . S
O224 C226 1.240 . S
O225 Co198 2.096 . S
O225 C206 1.247 . S
C226 O223 1.244 . S
C226 O224 1.240 . S
H227 C201 0.931 1_565 S
H228 C210 0.931 . S
H229 C214 0.929 . S
H230 C216 0.930 . S
Co231 N235 2.148 . S
Co231 N241 2.128 . S
Co231 N251 2.194 . S
Co231 O256 2.351 . S
Co231 O257 2.155 . S
Co231 O258 2.096 . S
C232 N235 1.301 . S
C232 N236 1.328 . S
C232 H237 0.930 . S
C233 C234 1.333 . S
C233 N235 1.317 . S
C233 H238 0.930 . S
C234 C233 1.333 . S
C234 N236 1.350 . S
C234 H260 0.931 . S
N235 Co231 2.148 . S
N235 C232 1.301 . S
N235 C233 1.317 . S
N236 C232 1.328 . S
N236 C234 1.350 . S
H237 C232 0.930 . S
H238 C233 0.930 . S
C239 O240 1.224 . S
C239 O258 1.247 . S
O240 C239 1.224 . S
N241 Co231 2.128 . S
N241 C242 1.355 . S
N241 C244 1.311 . S
C242 N241 1.355 . S
C242 C243 1.363 . S
C242 H254 0.929 . S
C243 C242 1.363 . S
C243 N245 1.375 . S
C243 H261 0.931 . S
C244 N241 1.311 . S
C244 N245 1.347 . S
C244 H255 0.929 . S
N245 C243 1.375 . S
N245 C244 1.347 . S
C246 C249 1.365 . S
C246 N251 1.328 . S
C246 H252 0.929 . S
C247 C248 1.362 . S
C247 C250 1.378 . S
C247 H262 0.929 . S
C248 C247 1.362 . S
C248 C249 1.366 . S
C249 C246 1.365 . S
C249 C248 1.366 . S
C249 H263 0.930 . S
C250 C247 1.378 . S
C250 N251 1.315 . S
C250 H253 0.930 . S
N251 Co231 2.194 . S
N251 C246 1.328 . S
N251 C250 1.315 . S
H252 C246 0.929 . S
H253 C250 0.930 . S
H254 C242 0.929 . S
H255 C244 0.929 . S
O256 Co231 2.351 . S
O256 C259 1.244 . S
O257 Co231 2.155 . S
O257 C259 1.240 . S
O258 Co231 2.096 . S
O258 C239 1.247 . S
C259 O256 1.244 . S
C259 O257 1.240 . S
H260 C234 0.931 . S
H261 C243 0.931 . S
H262 C247 0.929 . S
H263 C249 0.930 . S
Co264 N268 2.148 . S
Co264 N274 2.128 . S
Co264 N284 2.194 . S
Co264 O289 2.351 . S
Co264 O290 2.155 . S
Co264 O291 2.096 . S
C265 N268 1.301 . S
C265 N269 1.328 . S
C265 H270 0.930 . S
C266 C267 1.333 . S
C266 N268 1.317 . S
C266 H271 0.930 . S
C267 C266 1.333 . S
C267 N269 1.350 . S
C267 H293 0.931 1_565 S
N268 Co264 2.148 . S
N268 C265 1.301 . S
N268 C266 1.317 . S
N269 C265 1.328 . S
N269 C267 1.350 . S
H270 C265 0.930 . S
H271 C266 0.930 . S
C272 O273 1.224 . S
C272 O291 1.247 . S
O273 C272 1.224 . S
N274 Co264 2.128 . S
N274 C275 1.355 . S
N274 C277 1.311 . S
C275 N274 1.355 . S
C275 C276 1.363 . S
C275 H287 0.929 . S
C276 C275 1.363 . S
C276 N278 1.375 . S
C276 H294 0.931 . S
C277 N274 1.311 . S
C277 N278 1.347 . S
C277 H288 0.929 . S
N278 C276 1.375 . S
N278 C277 1.347 . S
C279 C282 1.365 . S
C279 N284 1.328 . S
C279 H285 0.929 . S
C280 C281 1.362 . S
C280 C283 1.378 . S
C280 H295 0.929 . S
C281 C280 1.362 . S
C281 C282 1.366 . S
C282 C279 1.365 . S
C282 C281 1.366 . S
C282 H296 0.930 1_556 S
C283 C280 1.378 . S
C283 N284 1.315 . S
C283 H286 0.930 . S
N284 Co264 2.194 . S
N284 C279 1.328 . S
N284 C283 1.315 . S
H285 C279 0.929 . S
H286 C283 0.930 . S
H287 C275 0.929 . S
H288 C277 0.929 . S
O289 Co264 2.351 . S
O289 C292 1.244 . S
O290 Co264 2.155 . S
O290 C292 1.240 . S
O291 Co264 2.096 . S
O291 C272 1.247 . S
C292 O289 1.244 . S
C292 O290 1.240 . S
H293 C267 0.931 1_545 S
H294 C276 0.931 . S
H295 C280 0.929 . S
H296 C282 0.930 1_554 S
Co297 N301 2.148 . S
Co297 N307 2.128 . S
Co297 N317 2.194 . S
Co297 O322 2.351 . S
Co297 O323 2.155 . S
Co297 O324 2.096 . S
C298 N301 1.301 . S
C298 N302 1.328 . S
C298 H303 0.930 . S
C299 C300 1.333 . S
C299 N301 1.317 . S
C299 H304 0.930 . S
C300 C299 1.333 . S
C300 N302 1.350 . S
C300 H326 0.931 . S
N301 Co297 2.148 . S
N301 C298 1.301 . S
N301 C299 1.317 . S
N302 C298 1.328 . S
N302 C300 1.350 . S
H303 C298 0.930 . S
H304 C299 0.930 . S
C305 O306 1.224 . S
C305 O324 1.247 . S
O306 C305 1.224 . S
N307 Co297 2.128 . S
N307 C308 1.355 . S
N307 C310 1.311 . S
C308 N307 1.355 . S
C308 C309 1.363 . S
C308 H320 0.929 . S
C309 C308 1.363 . S
C309 N311 1.375 . S
C309 H327 0.931 . S
C310 N307 1.311 . S
C310 N311 1.347 . S
C310 H321 0.929 . S
N311 C309 1.375 . S
N311 C310 1.347 . S
C312 C315 1.365 . S
C312 N317 1.328 . S
C312 H318 0.929 . S
C313 C314 1.362 . S
C313 C316 1.378 . S
C313 H328 0.929 . S
C314 C313 1.362 . S
C314 C315 1.366 . S
C315 C312 1.365 . S
C315 C314 1.366 . S
C315 H329 0.930 1_556 S
C316 C313 1.378 . S
C316 N317 1.315 . S
C316 H319 0.930 . S
N317 Co297 2.194 . S
N317 C312 1.328 . S
N317 C316 1.315 . S
H318 C312 0.929 . S
H319 C316 0.930 . S
H320 C308 0.929 . S
H321 C310 0.929 . S
O322 Co297 2.351 . S
O322 C325 1.244 . S
O323 Co297 2.155 . S
O323 C325 1.240 . S
O324 Co297 2.096 . S
O324 C305 1.247 . S
C325 O322 1.244 . S
C325 O323 1.240 . S
H326 C300 0.931 . S
H327 C309 0.931 . S
H328 C313 0.929 . S
H329 C315 0.930 1_554 S
Co330 N334 2.148 . S
Co330 N340 2.128 . S
Co330 N350 2.194 . S
Co330 O355 2.351 . S
Co330 O356 2.155 . S
Co330 O357 2.096 . S
C331 N334 1.301 . S
C331 N335 1.328 . S
C331 H336 0.930 . S
C332 C333 1.333 . S
C332 N334 1.317 . S
C332 H337 0.930 . S
C333 C332 1.333 . S
C333 N335 1.350 . S
C333 H359 0.931 . S
N334 Co330 2.148 . S
N334 C331 1.301 . S
N334 C332 1.317 . S
N335 C331 1.328 . S
N335 C333 1.350 . S
H336 C331 0.930 . S
H337 C332 0.930 . S
C338 O339 1.224 . S
C338 O357 1.247 . S
O339 C338 1.224 . S
N340 Co330 2.128 . S
N340 C341 1.355 . S
N340 C343 1.311 . S
C341 N340 1.355 . S
C341 C342 1.363 . S
C341 H353 0.929 . S
C342 C341 1.363 . S
C342 N344 1.375 . S
C342 H360 0.931 . S
C343 N340 1.311 . S
C343 N344 1.347 . S
C343 H354 0.929 . S
N344 C342 1.375 . S
N344 C343 1.347 . S
C345 C348 1.365 . S
C345 N350 1.328 . S
C345 H351 0.929 . S
C346 C347 1.362 . S
C346 C349 1.378 . S
C346 H361 0.929 . S
C347 C346 1.362 . S
C347 C348 1.366 . S
C348 C345 1.365 . S
C348 C347 1.366 . S
C348 H362 0.930 1_556 S
C349 C346 1.378 . S
C349 N350 1.315 . S
C349 H352 0.930 . S
N350 Co330 2.194 . S
N350 C345 1.328 . S
N350 C349 1.315 . S
H351 C345 0.929 . S
H352 C349 0.930 . S
H353 C341 0.929 . S
H354 C343 0.929 . S
O355 Co330 2.351 . S
O355 C358 1.244 . S
O356 Co330 2.155 . S
O356 C358 1.240 . S
O357 Co330 2.096 . S
O357 C338 1.247 . S
C358 O355 1.244 . S
C358 O356 1.240 . S
H359 C333 0.931 . S
H360 C342 0.931 . S
H361 C346 0.929 . S
H362 C348 0.930 1_554 S
Co363 N367 2.148 . S
Co363 N373 2.128 . S
Co363 N383 2.194 . S
Co363 O388 2.351 . S
Co363 O389 2.155 . S
Co363 O390 2.096 . S
C364 N367 1.301 . S
C364 N368 1.328 . S
C364 H369 0.930 . S
C365 C366 1.333 . S
C365 N367 1.317 . S
C365 H370 0.930 . S
C366 C365 1.333 . S
C366 N368 1.350 . S
C366 H392 0.931 1_655 S
N367 Co363 2.148 . S
N367 C364 1.301 . S
N367 C365 1.317 . S
N368 C364 1.328 . S
N368 C366 1.350 . S
H369 C364 0.930 . S
H370 C365 0.930 . S
C371 O372 1.224 . S
C371 O390 1.247 . S
O372 C371 1.224 . S
N373 Co363 2.128 . S
N373 C374 1.355 . S
N373 C376 1.311 . S
C374 N373 1.355 . S
C374 C375 1.363 . S
C374 H386 0.929 . S
C375 C374 1.363 . S
C375 N377 1.375 . S
C375 H393 0.931 . S
C376 N373 1.311 . S
C376 N377 1.347 . S
C376 H387 0.929 . S
N377 C375 1.375 . S
N377 C376 1.347 . S
C378 C381 1.365 . S
C378 N383 1.328 . S
C378 H384 0.929 . S
C379 C380 1.362 . S
C379 C382 1.378 . S
C379 H394 0.929 . S
C380 C379 1.362 . S
C380 C381 1.366 . S
C381 C378 1.365 . S
C381 C380 1.366 . S
C381 H395 0.930 1_556 S
C382 C379 1.378 . S
C382 N383 1.315 . S
C382 H385 0.930 . S
N383 Co363 2.194 . S
N383 C378 1.328 . S
N383 C382 1.315 . S
H384 C378 0.929 . S
H385 C382 0.930 . S
H386 C374 0.929 . S
H387 C376 0.929 . S
O388 Co363 2.351 . S
O388 C391 1.244 . S
O389 Co363 2.155 . S
O389 C391 1.240 . S
O390 Co363 2.096 . S
O390 C371 1.247 . S
C391 O388 1.244 . S
C391 O389 1.240 . S
H392 C366 0.931 1_455 S
H393 C375 0.931 . S
H394 C379 0.929 . S
H395 C381 0.930 1_554 S
Co396 N400 2.148 . S
Co396 N406 2.128 . S
Co396 N416 2.194 . S
Co396 O421 2.351 . S
Co396 O422 2.155 . S
Co396 O423 2.096 . S
C397 N400 1.301 . S
C397 N401 1.328 . S
C397 H402 0.930 . S
C398 C399 1.333 . S
C398 N400 1.317 . S
C398 H403 0.930 . S
C399 C398 1.333 . S
C399 N401 1.350 . S
C399 H425 0.931 . S
N400 Co396 2.148 . S
N400 C397 1.301 . S
N400 C398 1.317 . S
N401 C397 1.328 . S
N401 C399 1.350 . S
H402 C397 0.930 . S
H403 C398 0.930 . S
C404 O405 1.224 . S
C404 O423 1.247 . S
O405 C404 1.224 . S
N406 Co396 2.128 . S
N406 C407 1.355 . S
N406 C409 1.311 . S
C407 N406 1.355 . S
C407 C408 1.363 . S
C407 H419 0.929 . S
C408 C407 1.363 . S
C408 N410 1.375 . S
C408 H426 0.931 . S
C409 N406 1.311 . S
C409 N410 1.347 . S
C409 H420 0.929 . S
N410 C408 1.375 . S
N410 C409 1.347 . S
C411 C414 1.365 . S
C411 N416 1.328 . S
C411 H417 0.929 . S
C412 C413 1.362 . S
C412 C415 1.378 . S
C412 H427 0.929 . S
C413 C412 1.362 . S
C413 C414 1.366 . S
C414 C411 1.365 . S
C414 C413 1.366 . S
C414 H428 0.930 . S
C415 C412 1.378 . S
C415 N416 1.315 . S
C415 H418 0.930 . S
N416 Co396 2.194 . S
N416 C411 1.328 . S
N416 C415 1.315 . S
H417 C411 0.929 . S
H418 C415 0.930 . S
H419 C407 0.929 . S
H420 C409 0.929 . S
O421 Co396 2.351 . S
O421 C424 1.244 . S
O422 Co396 2.155 . S
O422 C424 1.240 . S
O423 Co396 2.096 . S
O423 C404 1.247 . S
C424 O421 1.244 . S
C424 O422 1.240 . S
H425 C399 0.931 . S
H426 C408 0.931 . S
H427 C412 0.929 . S
H428 C414 0.930 . S
Co429 N433 2.148 . S
Co429 N439 2.128 . S
Co429 N449 2.194 . S
Co429 O454 2.351 . S
Co429 O455 2.155 . S
Co429 O456 2.096 . S
C430 N433 1.301 . S
C430 N434 1.328 . S
C430 H435 0.930 . S
C431 C432 1.333 . S
C431 N433 1.317 . S
C431 H436 0.930 . S
C432 C431 1.333 . S
C432 N434 1.350 . S
C432 H458 0.931 1_655 S
N433 Co429 2.148 . S
N433 C430 1.301 . S
N433 C431 1.317 . S
N434 C430 1.328 . S
N434 C432 1.350 . S
H435 C430 0.930 . S
H436 C431 0.930 . S
C437 O438 1.224 . S
C437 O456 1.247 . S
O438 C437 1.224 . S
N439 Co429 2.128 . S
N439 C440 1.355 . S
N439 C442 1.311 . S
C440 N439 1.355 . S
C440 C441 1.363 . S
C440 H452 0.929 . S
C441 C440 1.363 . S
C441 N443 1.375 . S
C441 H459 0.931 . S
C442 N439 1.311 . S
C442 N443 1.347 . S
C442 H453 0.929 . S
N443 C441 1.375 . S
N443 C442 1.347 . S
C444 C447 1.365 . S
C444 N449 1.328 . S
C444 H450 0.929 . S
C445 C446 1.362 . S
C445 C448 1.378 . S
C445 H460 0.929 . S
C446 C445 1.362 . S
C446 C447 1.366 . S
C447 C444 1.365 . S
C447 C446 1.366 . S
C447 H461 0.930 . S
C448 C445 1.378 . S
C448 N449 1.315 . S
C448 H451 0.930 . S
N449 Co429 2.194 . S
N449 C444 1.328 . S
N449 C448 1.315 . S
H450 C444 0.929 . S
H451 C448 0.930 . S
H452 C440 0.929 . S
H453 C442 0.929 . S
O454 Co429 2.351 . S
O454 C457 1.244 . S
O455 Co429 2.155 . S
O455 C457 1.240 . S
O456 Co429 2.096 . S
O456 C437 1.247 . S
C457 O454 1.244 . S
C457 O455 1.240 . S
H458 C432 0.931 1_455 S
H459 C441 0.931 . S
H460 C445 0.929 . S
H461 C447 0.930 . S
Co462 N466 2.148 . S
Co462 N472 2.128 . S
Co462 N482 2.194 . S
Co462 O487 2.351 . S
Co462 O488 2.155 . S
Co462 O489 2.096 . S
C463 N466 1.301 . S
C463 N467 1.328 . S
C463 H468 0.930 . S
C464 C465 1.333 . S
C464 N466 1.317 . S
C464 H469 0.930 . S
C465 C464 1.333 . S
C465 N467 1.350 . S
C465 H491 0.931 1_565 S
N466 Co462 2.148 . S
N466 C463 1.301 . S
N466 C464 1.317 . S
N467 C463 1.328 . S
N467 C465 1.350 . S
H468 C463 0.930 . S
H469 C464 0.930 . S
C470 O471 1.224 . S
C470 O489 1.247 . S
O471 C470 1.224 . S
N472 Co462 2.128 . S
N472 C473 1.355 . S
N472 C475 1.311 . S
C473 N472 1.355 . S
C473 C474 1.363 . S
C473 H485 0.929 . S
C474 C473 1.363 . S
C474 N476 1.375 . S
C474 H492 0.931 . S
C475 N472 1.311 . S
C475 N476 1.347 . S
C475 H486 0.929 . S
N476 C474 1.375 . S
N476 C475 1.347 . S
C477 C480 1.365 . S
C477 N482 1.328 . S
C477 H483 0.929 . S
C478 C479 1.362 . S
C478 C481 1.378 . S
C478 H493 0.929 . S
C479 C478 1.362 . S
C479 C480 1.366 . S
C480 C477 1.365 . S
C480 C479 1.366 . S
C480 H494 0.930 . S
C481 C478 1.378 . S
C481 N482 1.315 . S
C481 H484 0.930 . S
N482 Co462 2.194 . S
N482 C477 1.328 . S
N482 C481 1.315 . S
H483 C477 0.929 . S
H484 C481 0.930 . S
H485 C473 0.929 . S
H486 C475 0.929 . S
O487 Co462 2.351 . S
O487 C490 1.244 . S
O488 Co462 2.155 . S
O488 C490 1.240 . S
O489 Co462 2.096 . S
O489 C470 1.247 . S
C490 O487 1.244 . S
C490 O488 1.240 . S
H491 C465 0.931 1_545 S
H492 C474 0.931 . S
H493 C478 0.929 . S
H494 C480 0.930 . S
Co495 N499 2.148 . S
Co495 N505 2.128 . S
Co495 N515 2.194 . S
Co495 O520 2.351 . S
Co495 O521 2.155 . S
Co495 O522 2.096 . S
C496 N499 1.301 . S
C496 N500 1.328 . S
C496 H501 0.930 . S
C497 C498 1.333 . S
C497 N499 1.317 . S
C497 H502 0.930 . S
C498 C497 1.333 . S
C498 N500 1.350 . S
C498 H524 0.931 . S
N499 Co495 2.148 . S
N499 C496 1.301 . S
N499 C497 1.317 . S
N500 C496 1.328 . S
N500 C498 1.350 . S
H501 C496 0.930 . S
H502 C497 0.930 . S
C503 O504 1.224 . S
C503 O522 1.247 . S
O504 C503 1.224 . S
N505 Co495 2.128 . S
N505 C506 1.355 . S
N505 C508 1.311 . S
C506 N505 1.355 . S
C506 C507 1.363 . S
C506 H518 0.929 . S
C507 C506 1.363 . S
C507 N509 1.375 . S
C507 H525 0.931 . S
C508 N505 1.311 . S
C508 N509 1.347 . S
C508 H519 0.929 . S
N509 C507 1.375 . S
N509 C508 1.347 . S
C510 C513 1.365 . S
C510 N515 1.328 . S
C510 H516 0.929 . S
C511 C512 1.362 . S
C511 C514 1.378 . S
C511 H526 0.929 . S
C512 C511 1.362 . S
C512 C513 1.366 . S
C513 C510 1.365 . S
C513 C512 1.366 . S
C513 H527 0.930 . S
C514 C511 1.378 . S
C514 N515 1.315 . S
C514 H517 0.930 . S
N515 Co495 2.194 . S
N515 C510 1.328 . S
N515 C514 1.315 . S
H516 C510 0.929 . S
H517 C514 0.930 . S
H518 C506 0.929 . S
H519 C508 0.929 . S
O520 Co495 2.351 . S
O520 C523 1.244 . S
O521 Co495 2.155 . S
O521 C523 1.240 . S
O522 Co495 2.096 . S
O522 C503 1.247 . S
C523 O520 1.244 . S
C523 O521 1.240 . S
H524 C498 0.931 . S
H525 C507 0.931 . S
H526 C511 0.929 . S
H527 C513 0.930 . S
H528 C534 0.930 . S
H529 C537 0.930 . S
H530 C538 0.930 . S
H531 C539 0.930 . S
H532 C542 0.930 . S
H533 C543 0.930 . S
C534 H528 0.930 . S
C534 C535 1.355 . S
C534 C536 1.415 . S
C535 C534 1.355 . S
C535 C537 1.419 . S
C536 C534 1.415 . S
C536 C541 1.425 . S
C536 C543 1.409 . S
C537 H529 0.930 . S
C537 C535 1.419 . S
C537 C538 1.362 . S
C538 H530 0.930 . S
C538 C537 1.362 . S
C538 C541 1.409 . S
C539 H531 0.930 . S
C539 C540 1.355 . S
C539 C541 1.415 . S
C540 C539 1.355 . S
C540 C542 1.419 . S
C541 C536 1.425 . S
C541 C538 1.409 . S
C541 C539 1.415 . S
C542 H532 0.930 . S
C542 C540 1.419 . S
C542 C543 1.362 . S
C543 H533 0.930 . S
C543 C536 1.409 . S
C543 C542 1.362 . S
H544 C550 0.930 . S
H545 C553 0.930 . S
H546 C554 0.930 . S
H547 C555 0.930 . S
H548 C558 0.930 . S
H549 C559 0.930 . S
C550 H544 0.930 . S
C550 C551 1.355 . S
C550 C552 1.415 . S
C551 C550 1.355 . S
C551 C553 1.419 . S
C552 C550 1.415 . S
C552 C557 1.425 . S
C552 C559 1.409 . S
C553 H545 0.930 . S
C553 C551 1.419 . S
C553 C554 1.362 . S
C554 H546 0.930 . S
C554 C553 1.362 . S
C554 C557 1.409 . S
C555 H547 0.930 . S
C555 C556 1.355 . S
C555 C557 1.415 . S
C556 C555 1.355 . S
C556 C558 1.419 . S
C557 C552 1.425 . S
C557 C554 1.409 . S
C557 C555 1.415 . S
C558 H548 0.930 . S
C558 C556 1.419 . S
C558 C559 1.362 . S
C559 H549 0.930 . S
C559 C552 1.409 . S
C559 C558 1.362 . S
H560 C566 0.930 . S
H561 C569 0.930 . S
H562 C570 0.930 . S
H563 C571 0.930 . S
H564 C574 0.930 . S
H565 C575 0.930 . S
C566 H560 0.930 . S
C566 C567 1.355 . S
C566 C568 1.415 . S
C567 C566 1.355 . S
C567 C569 1.419 . S
C568 C566 1.415 . S
C568 C573 1.425 . S
C568 C575 1.409 . S
C569 H561 0.930 . S
C569 C567 1.419 . S
C569 C570 1.362 . S
C570 H562 0.930 . S
C570 C569 1.362 . S
C570 C573 1.409 . S
C571 H563 0.930 . S
C571 C572 1.355 . S
C571 C573 1.415 . S
C572 C571 1.355 . S
C572 C574 1.419 . S
C573 C568 1.425 . S
C573 C570 1.409 . S
C573 C571 1.415 . S
C574 H564 0.930 . S
C574 C572 1.419 . S
C574 C575 1.362 . S
C575 H565 0.930 . S
C575 C568 1.409 . S
C575 C574 1.362 . S
H576 C582 0.930 . S
H577 C585 0.930 . S
H578 C586 0.930 . S
H579 C587 0.930 . S
H580 C590 0.930 . S
H581 C591 0.930 . S
C582 H576 0.930 . S
C582 C583 1.355 . S
C582 C584 1.415 . S
C583 C582 1.355 . S
C583 C585 1.419 . S
C584 C582 1.415 . S
C584 C589 1.425 . S
C584 C591 1.409 . S
C585 H577 0.930 . S
C585 C583 1.419 . S
C585 C586 1.362 . S
C586 H578 0.930 . S
C586 C585 1.362 . S
C586 C589 1.409 . S
C587 H579 0.930 . S
C587 C588 1.355 . S
C587 C589 1.415 . S
C588 C587 1.355 . S
C588 C590 1.419 . S
C589 C584 1.425 . S
C589 C586 1.409 . S
C589 C587 1.415 . S
C590 H580 0.930 . S
C590 C588 1.419 . S
C590 C591 1.362 . S
C591 H581 0.930 . S
C591 C584 1.409 . S
C591 C590 1.362 . S
H592 C598 0.930 . S
H593 C601 0.930 . S
H594 C602 0.930 . S
H595 C603 0.930 . S
H596 C606 0.930 . S
H597 C607 0.930 . S
C598 H592 0.930 . S
C598 C599 1.355 . S
C598 C600 1.415 . S
C599 C598 1.355 . S
C599 C601 1.419 . S
C600 C598 1.415 . S
C600 C605 1.425 . S
C600 C607 1.409 . S
C601 H593 0.930 . S
C601 C599 1.419 . S
C601 C602 1.362 . S
C602 H594 0.930 . S
C602 C601 1.362 . S
C602 C605 1.409 . S
C603 H595 0.930 . S
C603 C604 1.355 . S
C603 C605 1.415 . S
C604 C603 1.355 . S
C604 C606 1.419 . S
C605 C600 1.425 . S
C605 C602 1.409 . S
C605 C603 1.415 . S
C606 H596 0.930 . S
C606 C604 1.419 . S
C606 C607 1.362 . S
C607 H597 0.930 . S
C607 C600 1.409 . S
C607 C606 1.362 . S
H608 C614 0.930 . S
H609 C617 0.930 . S
H610 C618 0.930 . S
H611 C619 0.930 . S
H612 C622 0.930 . S
H613 C623 0.930 . S
C614 H608 0.930 . S
C614 C615 1.355 . S
C614 C616 1.415 . S
C615 C614 1.355 . S
C615 C617 1.419 . S
C616 C614 1.415 . S
C616 C621 1.425 . S
C616 C623 1.409 . S
C617 H609 0.930 . S
C617 C615 1.419 . S
C617 C618 1.362 . S
C618 H610 0.930 . S
C618 C617 1.362 . S
C618 C621 1.409 . S
C619 H611 0.930 . S
C619 C620 1.355 . S
C619 C621 1.415 . S
C620 C619 1.355 . S
C620 C622 1.419 . S
C621 C616 1.425 . S
C621 C618 1.409 . S
C621 C619 1.415 . S
C622 H612 0.930 . S
C622 C620 1.419 . S
C622 C623 1.362 . S
C623 H613 0.930 . S
C623 C616 1.409 . S
C623 C622 1.362 . S
H624 C630 0.930 . S
H625 C633 0.930 . S
H626 C634 0.930 . S
H627 C635 0.930 . S
H628 C638 0.930 . S
H629 C639 0.930 . S
C630 H624 0.930 . S
C630 C631 1.355 . S
C630 C632 1.415 . S
C631 C630 1.355 . S
C631 C633 1.419 . S
C632 C630 1.415 . S
C632 C637 1.425 . S
C632 C639 1.409 . S
C633 H625 0.930 . S
C633 C631 1.419 . S
C633 C634 1.362 . S
C634 H626 0.930 . S
C634 C633 1.362 . S
C634 C637 1.409 . S
C635 H627 0.930 . S
C635 C636 1.355 . S
C635 C637 1.415 . S
C636 C635 1.355 . S
C636 C638 1.419 . S
C637 C632 1.425 . S
C637 C634 1.409 . S
C637 C635 1.415 . S
C638 H628 0.930 . S
C638 C636 1.419 . S
C638 C639 1.362 . S
C639 H629 0.930 . S
C639 C632 1.409 . S
C639 C638 1.362 . S
H640 C646 0.930 . S
H641 C649 0.930 . S
H642 C650 0.930 . S
H643 C651 0.930 . S
H644 C654 0.930 . S
H645 C655 0.930 . S
C646 H640 0.930 . S
C646 C647 1.355 . S
C646 C648 1.415 . S
C647 C646 1.355 . S
C647 C649 1.419 . S
C648 C646 1.415 . S
C648 C653 1.425 . S
C648 C655 1.409 . S
C649 H641 0.930 . S
C649 C647 1.419 . S
C649 C650 1.362 . S
C650 H642 0.930 . S
C650 C649 1.362 . S
C650 C653 1.409 . S
C651 H643 0.930 . S
C651 C652 1.355 . S
C651 C653 1.415 . S
C652 C651 1.355 . S
C652 C654 1.419 . S
C653 C648 1.425 . S
C653 C650 1.409 . S
C653 C651 1.415 . S
C654 H644 0.930 . S
C654 C652 1.419 . S
C654 C655 1.362 . S
C655 H645 0.930 . S
C655 C648 1.409 . S
C655 C654 1.362 . S
H656 C662 0.930 . S
H657 C665 0.930 . S
H658 C666 0.930 . S
H659 C667 0.930 . S
H660 C670 0.930 . S
H661 C671 0.930 . S
C662 H656 0.930 . S
C662 C663 1.355 . S
C662 C664 1.415 . S
C663 C662 1.355 . S
C663 C665 1.419 1_565 S
C664 C662 1.415 . S
C664 C669 1.425 1_566 S
C664 C671 1.409 . S
C665 H657 0.930 . S
C665 C663 1.419 1_545 S
C665 C666 1.362 1_556 S
C666 H658 0.930 . S
C666 C665 1.362 1_554 S
C666 C669 1.409 . S
C667 H659 0.930 . S
C667 C668 1.355 . S
C667 C669 1.415 . S
C668 C667 1.355 . S
C668 C670 1.419 1_545 S
C669 C664 1.425 1_544 S
C669 C666 1.409 . S
C669 C667 1.415 . S
C670 H660 0.930 . S
C670 C668 1.419 1_565 S
C670 C671 1.362 1_554 S
C671 H661 0.930 . S
C671 C664 1.409 . S
C671 C670 1.362 1_556 S
H672 C678 0.930 . S
H673 C681 0.930 . S
H674 C682 0.930 . S
H675 C683 0.930 . S
H676 C686 0.930 . S
H677 C687 0.930 . S
C678 H672 0.930 . S
C678 C679 1.355 . S
C678 C680 1.415 . S
C679 C678 1.355 . S
C679 C681 1.419 . S
C680 C678 1.415 . S
C680 C685 1.425 1_556 S
C680 C687 1.409 . S
C681 H673 0.930 . S
C681 C679 1.419 . S
C681 C682 1.362 1_556 S
C682 H674 0.930 . S
C682 C681 1.362 1_554 S
C682 C685 1.409 . S
C683 H675 0.930 . S
C683 C684 1.355 . S
C683 C685 1.415 . S
C684 C683 1.355 . S
C684 C686 1.419 . S
C685 C680 1.425 1_554 S
C685 C682 1.409 . S
C685 C683 1.415 . S
C686 H676 0.930 . S
C686 C684 1.419 . S
C686 C687 1.362 1_554 S
C687 H677 0.930 . S
C687 C680 1.409 . S
C687 C686 1.362 1_556 S
H688 C694 0.930 1_554 S
H689 C697 0.930 . S
H690 C698 0.930 . S
H691 C699 0.930 1_556 S
H692 C702 0.930 . S
H693 C703 0.930 . S
C694 H688 0.930 1_556 S
C694 C695 1.355 . S
C694 C696 1.415 1_556 S
C695 C694 1.355 . S
C695 C697 1.419 . S
C696 C694 1.415 1_554 S
C696 C701 1.425 1_454 S
C696 C703 1.409 . S
C697 H689 0.930 . S
C697 C695 1.419 . S
C697 C698 1.362 1_455 S
C698 H690 0.930 . S
C698 C697 1.362 1_655 S
C698 C701 1.409 . S
C699 H691 0.930 1_554 S
C699 C700 1.355 . S
C699 C701 1.415 1_554 S
C700 C699 1.355 . S
C700 C702 1.419 . S
C701 C696 1.425 1_656 S
C701 C698 1.409 . S
C701 C699 1.415 1_556 S
C702 H692 0.930 . S
C702 C700 1.419 . S
C702 C703 1.362 1_655 S
C703 H693 0.930 . S
C703 C696 1.409 . S
C703 C702 1.362 1_455 S
H704 C710 0.930 1_554 S
H705 C713 0.930 . S
H706 C714 0.930 . S
H707 C715 0.930 1_556 S
H708 C718 0.930 . S
H709 C719 0.930 . S
C710 H704 0.930 1_556 S
C710 C711 1.354 1_455 S
C710 C712 1.415 1_556 S
C711 C710 1.354 1_655 S
C711 C713 1.420 . S
C712 C710 1.415 1_554 S
C712 C717 1.425 1_444 S
C712 C719 1.409 . S
C713 H705 0.930 . S
C713 C711 1.420 . S
C713 C714 1.362 1_545 S
C714 H706 0.930 . S
C714 C713 1.362 1_565 S
C714 C717 1.409 . S
C715 H707 0.930 1_554 S
C715 C716 1.354 1_655 S
C715 C717 1.415 1_554 S
C716 C715 1.354 1_455 S
C716 C718 1.420 . S
C717 C712 1.425 1_666 S
C717 C714 1.409 . S
C717 C715 1.415 1_556 S
C718 H708 0.930 . S
C718 C716 1.420 . S
C718 C719 1.362 1_565 S
C719 H709 0.930 . S
C719 C712 1.409 . S
C719 C718 1.362 1_545 S
H720 C726 0.930 . S
H721 C729 0.930 . S
H722 C730 0.930 . S
H723 C731 0.930 . S
H724 C734 0.930 . S
H725 C735 0.930 . S
C726 H720 0.930 . S
C726 C727 1.355 . S
C726 C728 1.415 . S
C727 C726 1.355 . S
C727 C729 1.419 . S
C728 C726 1.415 . S
C728 C733 1.425 . S
C728 C735 1.409 . S
C729 H721 0.930 . S
C729 C727 1.419 . S
C729 C730 1.362 . S
C730 H722 0.930 . S
C730 C729 1.362 . S
C730 C733 1.409 . S
C731 H723 0.930 . S
C731 C732 1.355 . S
C731 C733 1.415 . S
C732 C731 1.355 . S
C732 C734 1.419 . S
C733 C728 1.425 . S
C733 C730 1.409 . S
C733 C731 1.415 . S
C734 H724 0.930 . S
C734 C732 1.419 . S
C734 C735 1.362 . S
C735 H725 0.930 . S
C735 C728 1.409 . S
C735 C734 1.362 . S
H736 C742 0.930 . S
H737 C745 0.930 . S
H738 C746 0.930 . S
H739 C747 0.930 . S
H740 C750 0.930 . S
H741 C751 0.930 . S
C742 H736 0.930 . S
C742 C743 1.355 1_455 S
C742 C744 1.415 . S
C743 C742 1.355 1_655 S
C743 C745 1.419 . S
C744 C742 1.415 . S
C744 C749 1.425 1_455 S
C744 C751 1.409 . S
C745 H737 0.930 . S
C745 C743 1.419 . S
C745 C746 1.362 . S
C746 H738 0.930 . S
C746 C745 1.362 . S
C746 C749 1.409 . S
C747 H739 0.930 . S
C747 C748 1.355 1_655 S
C747 C749 1.415 . S
C748 C747 1.355 1_455 S
C748 C750 1.419 . S
C749 C744 1.425 1_655 S
C749 C746 1.409 . S
C749 C747 1.415 . S
C750 H740 0.930 . S
C750 C748 1.419 . S
C750 C751 1.362 . S
C751 H741 0.930 . S
C751 C744 1.409 . S
C751 C750 1.362 . S
H752 C758 0.930 . S
H753 C761 0.930 . S
H754 C762 0.930 . S
H755 C763 0.930 . S
H756 C766 0.930 . S
H757 C767 0.930 . S
C758 H752 0.930 . S
C758 C759 1.355 1_565 S
C758 C760 1.415 1_655 S
C759 C758 1.355 1_545 S
C759 C761 1.419 . S
C760 C758 1.415 1_455 S
C760 C765 1.425 1_465 S
C760 C767 1.409 . S
C761 H753 0.930 . S
C761 C759 1.419 . S
C761 C762 1.362 . S
C762 H754 0.930 . S
C762 C761 1.362 . S
C762 C765 1.409 . S
C763 H755 0.930 . S
C763 C764 1.355 1_545 S
C763 C765 1.415 1_455 S
C764 C763 1.355 1_565 S
C764 C766 1.419 . S
C765 C760 1.425 1_645 S
C765 C762 1.409 . S
C765 C763 1.415 1_655 S
C766 H756 0.930 . S
C766 C764 1.419 . S
C766 C767 1.362 . S
C767 H757 0.930 . S
C767 C760 1.409 . S
C767 C766 1.362 . S
H768 C774 0.930 . S
H769 C777 0.930 . S
H770 C778 0.930 . S
H771 C779 0.930 . S
H772 C782 0.930 . S
H773 C783 0.930 . S
C774 H768 0.930 . S
C774 C775 1.355 . S
C774 C776 1.415 . S
C775 C774 1.355 . S
C775 C777 1.419 . S
C776 C774 1.415 . S
C776 C781 1.425 1_565 S
C776 C783 1.409 . S
C777 H769 0.930 . S
C777 C775 1.419 . S
C777 C778 1.362 1_565 S
C778 H770 0.930 . S
C778 C777 1.362 1_545 S
C778 C781 1.409 . S
C779 H771 0.930 . S
C779 C780 1.355 . S
C779 C781 1.415 . S
C780 C779 1.355 . S
C780 C782 1.419 . S
C781 C776 1.425 1_545 S
C781 C778 1.409 . S
C781 C779 1.415 . S
C782 H772 0.930 . S
C782 C780 1.419 . S
C782 C783 1.362 1_545 S
C783 H773 0.930 . S
C783 C776 1.409 . S
C783 C782 1.362 1_565 S
H784 C790 0.930 . S
H785 C793 0.930 . S
H786 C794 0.930 . S
H787 C795 0.930 . S
H788 C798 0.930 . S
H789 C799 0.930 . S
C790 H784 0.930 . S
C790 C791 1.355 . S
C790 C792 1.415 1_556 S
C791 C790 1.355 . S
C791 C793 1.419 . S
C792 C790 1.415 1_554 S
C792 C797 1.425 . S
C792 C799 1.409 . S
C793 H785 0.930 . S
C793 C791 1.419 . S
C793 C794 1.362 1_556 S
C794 H786 0.930 . S
C794 C793 1.362 1_554 S
C794 C797 1.409 . S
C795 H787 0.930 . S
C795 C796 1.355 . S
C795 C797 1.415 . S
C796 C795 1.355 . S
C796 C798 1.419 . S
C797 C792 1.425 . S
C797 C794 1.409 . S
C797 C795 1.415 . S
C798 H788 0.930 . S
C798 C796 1.419 . S
C798 C799 1.362 . S
C799 H789 0.930 . S
C799 C792 1.409 . S
C799 C798 1.362 . S
H800 C806 0.930 . S
H801 C809 0.930 . S
H802 C810 0.930 . S
H803 C811 0.930 . S
H804 C814 0.930 . S
H805 C815 0.930 . S
C806 H800 0.930 . S
C806 C807 1.355 1_554 S
C806 C808 1.415 . S
C807 C806 1.355 1_556 S
C807 C809 1.419 . S
C808 C806 1.415 . S
C808 C813 1.425 . S
C808 C815 1.409 . S
C809 H801 0.930 . S
C809 C807 1.419 . S
C809 C810 1.362 . S
C810 H802 0.930 . S
C810 C809 1.362 . S
C810 C813 1.409 1_556 S
C811 H803 0.930 . S
C811 C812 1.355 . S
C811 C813 1.415 . S
C812 C811 1.355 . S
C812 C814 1.419 . S
C813 C808 1.425 . S
C813 C810 1.409 1_554 S
C813 C811 1.415 . S
C814 H804 0.930 . S
C814 C812 1.419 . S
C814 C815 1.362 . S
C815 H805 0.930 . S
C815 C808 1.409 . S
C815 C814 1.362 . S
H816 C822 0.930 . S
H817 C825 0.937 1_455 S
H818 C826 0.930 . S
H819 C827 0.930 . S
H820 C830 0.930 . S
H821 C831 0.930 . S
C822 H816 0.930 . S
C822 C823 1.355 . S
C822 C824 1.415 1_556 S
C823 C822 1.355 . S
C823 C825 1.436 . S
C824 C822 1.415 1_554 S
C824 C829 1.425 . S
C824 C831 1.409 . S
C825 H817 0.937 1_655 S
C825 C823 1.436 . S
C825 C826 1.340 1_556 S
C826 H818 0.930 . S
C826 C825 1.340 1_554 S
C826 C829 1.409 . S
C827 H819 0.930 . S
C827 C828 1.355 . S
C827 C829 1.415 . S
C828 C827 1.355 . S
C828 C830 1.419 . S
C829 C824 1.425 . S
C829 C826 1.409 . S
C829 C827 1.415 . S
C830 H820 0.930 . S
C830 C828 1.419 . S
C830 C831 1.362 . S
C831 H821 0.930 . S
C831 C824 1.409 . S
C831 C830 1.362 . S
H832 C838 0.930 . S
H833 C841 0.930 1_545 S
H834 C842 0.930 . S
H835 C843 0.930 . S
H836 C846 0.930 . S
H837 C847 0.930 . S
C838 H832 0.930 . S
C838 C839 1.355 . S
C838 C840 1.415 1_556 S
C839 C838 1.355 . S
C839 C841 1.419 . S
C840 C838 1.415 1_554 S
C840 C845 1.425 . S
C840 C847 1.409 . S
C841 H833 0.930 1_565 S
C841 C839 1.419 . S
C841 C842 1.362 1_556 S
C842 H834 0.930 . S
C842 C841 1.362 1_554 S
C842 C845 1.409 . S
C843 H835 0.930 . S
C843 C844 1.355 . S
C843 C845 1.415 . S
C844 C843 1.355 . S
C844 C846 1.419 . S
C845 C840 1.425 . S
C845 C842 1.409 . S
C845 C843 1.415 . S
C846 H836 0.930 . S
C846 C844 1.419 . S
C846 C847 1.362 . S
C847 H837 0.930 . S
C847 C840 1.409 . S
C847 C846 1.362 . S
H848 C854 0.930 . S
H849 C857 0.930 . S
H850 C858 0.930 . S
H851 C859 0.930 . S
H852 C862 0.930 . S
H853 C863 0.930 . S
C854 H848 0.930 . S
C854 C855 1.355 . S
C854 C856 1.415 . S
C855 C854 1.355 . S
C855 C857 1.419 . S
C856 C854 1.415 . S
C856 C861 1.425 . S
C856 C863 1.409 . S
C857 H849 0.930 . S
C857 C855 1.419 . S
C857 C858 1.362 . S
C858 H850 0.930 . S
C858 C857 1.362 . S
C858 C861 1.409 . S
C859 H851 0.930 . S
C859 C860 1.355 . S
C859 C861 1.415 . S
C860 C859 1.355 . S
C860 C862 1.419 . S
C861 C856 1.425 . S
C861 C858 1.409 . S
C861 C859 1.415 . S
C862 H852 0.930 . S
C862 C860 1.419 . S
C862 C863 1.362 . S
C863 H853 0.930 . S
C863 C856 1.409 . S
C863 C862 1.362 . S
H864 C870 0.930 . S
H865 C873 0.930 . S
H866 C874 0.930 . S
H867 C875 0.930 . S
H868 C878 0.930 . S
H869 C879 0.930 . S
C870 H864 0.930 . S
C870 C871 1.355 . S
C870 C872 1.415 . S
C871 C870 1.355 . S
C871 C873 1.419 . S
C872 C870 1.415 . S
C872 C877 1.425 . S
C872 C879 1.409 . S
C873 H865 0.930 . S
C873 C871 1.419 . S
C873 C874 1.362 . S
C874 H866 0.930 . S
C874 C873 1.362 . S
C874 C877 1.409 . S
C875 H867 0.930 . S
C875 C876 1.355 . S
C875 C877 1.415 . S
C876 C875 1.355 . S
C876 C878 1.419 . S
C877 C872 1.425 . S
C877 C874 1.409 . S
C877 C875 1.415 . S
C878 H868 0.930 . S
C878 C876 1.419 . S
C878 C879 1.362 . S
C879 H869 0.930 . S
C879 C872 1.409 . S
C879 C878 1.362 . S
H880 C886 0.930 . S
H881 C889 0.930 . S
H882 C890 0.930 . S
H883 C891 0.930 . S
H884 C894 0.930 . S
H885 C895 0.930 . S
C886 H880 0.930 . S
C886 C887 1.355 . S
C886 C888 1.415 . S
C887 C886 1.355 . S
C887 C889 1.419 . S
C888 C886 1.415 . S
C888 C893 1.425 . S
C888 C895 1.409 . S
C889 H881 0.930 . S
C889 C887 1.419 . S
C889 C890 1.362 . S
C890 H882 0.930 . S
C890 C889 1.362 . S
C890 C893 1.409 . S
C891 H883 0.930 . S
C891 C892 1.355 . S
C891 C893 1.415 . S
C892 C891 1.355 . S
C892 C894 1.419 . S
C893 C888 1.425 . S
C893 C890 1.409 . S
C893 C891 1.415 . S
C894 H884 0.930 . S
C894 C892 1.419 . S
C894 C895 1.362 . S
C895 H885 0.930 . S
C895 C888 1.409 . S
C895 C894 1.362 . S
H896 C902 0.930 . S
H897 C905 0.930 . S
H898 C906 0.930 . S
H899 C907 0.930 . S
H900 C910 0.930 . S
H901 C911 0.930 . S
C902 H896 0.930 . S
C902 C903 1.355 . S
C902 C904 1.415 . S
C903 C902 1.355 . S
C903 C905 1.419 . S
C904 C902 1.415 . S
C904 C909 1.425 . S
C904 C911 1.409 . S
C905 H897 0.930 . S
C905 C903 1.419 . S
C905 C906 1.362 . S
C906 H898 0.930 . S
C906 C905 1.362 . S
C906 C909 1.409 . S
C907 H899 0.930 . S
C907 C908 1.355 . S
C907 C909 1.415 . S
C908 C907 1.355 . S
C908 C910 1.419 . S
C909 C904 1.425 . S
C909 C906 1.409 . S
C909 C907 1.415 . S
C910 H900 0.930 . S
C910 C908 1.419 . S
C910 C911 1.362 . S
C911 H901 0.930 . S
C911 C904 1.409 . S
C911 C910 1.362 . S
H912 C918 0.930 . S
H913 C921 0.930 . S
H914 C922 0.930 . S
H915 C923 0.930 . S
H916 C926 0.930 . S
H917 C927 0.930 1_554 S
C918 H912 0.930 . S
C918 C919 1.355 . S
C918 C920 1.415 1_554 S
C919 C918 1.355 . S
C919 C921 1.419 1_554 S
C920 C918 1.415 1_556 S
C920 C925 1.425 . S
C920 C927 1.409 . S
C921 H913 0.930 . S
C921 C919 1.419 1_556 S
C921 C922 1.362 . S
C922 H914 0.930 . S
C922 C921 1.362 . S
C922 C925 1.409 . S
C923 H915 0.930 . S
C923 C924 1.355 . S
C923 C925 1.415 . S
C924 C923 1.355 . S
C924 C926 1.419 . S
C925 C920 1.425 . S
C925 C922 1.409 . S
C925 C923 1.415 . S
C926 H916 0.930 . S
C926 C924 1.419 . S
C926 C927 1.362 . S
C927 H917 0.930 1_556 S
C927 C920 1.409 . S
C927 C926 1.362 . S
H928 C934 0.930 . S
H929 C937 0.930 . S
H930 C938 0.930 . S
H931 C939 0.930 . S
H932 C942 0.930 . S
H933 C943 0.930 . S
C934 H928 0.930 . S
C934 C935 1.355 1_556 S
C934 C936 1.415 . S
C935 C934 1.355 1_554 S
C935 C937 1.419 . S
C936 C934 1.415 . S
C936 C941 1.425 . S
C936 C943 1.409 . S
C937 H929 0.930 . S
C937 C935 1.419 . S
C937 C938 1.362 . S
C938 H930 0.930 . S
C938 C937 1.362 . S
C938 C941 1.409 1_554 S
C939 H931 0.930 . S
C939 C940 1.355 . S
C939 C941 1.415 . S
C940 C939 1.355 . S
C940 C942 1.419 . S
C941 C936 1.425 . S
C941 C938 1.409 1_556 S
C941 C939 1.415 . S
C942 H932 0.930 . S
C942 C940 1.419 . S
C942 C943 1.362 . S
C943 H933 0.930 . S
C943 C936 1.409 . S
C943 C942 1.362 . S
H944 C950 0.929 . S
H945 C953 0.930 . S
H946 C954 0.930 . S
H947 C955 0.930 . S
H948 C958 0.930 . S
H949 C959 0.930 . S
C950 H944 0.929 . S
C950 C951 1.345 1_556 S
C950 C952 1.424 . S
C951 C950 1.345 1_554 S
C951 C953 1.419 . S
C952 C950 1.424 . S
C952 C957 1.425 . S
C952 C959 1.409 . S
C953 H945 0.930 . S
C953 C951 1.419 . S
C953 C954 1.362 . S
C954 H946 0.930 . S
C954 C953 1.362 . S
C954 C957 1.409 1_554 S
C955 H947 0.930 . S
C955 C956 1.355 . S
C955 C957 1.415 . S
C956 C955 1.355 . S
C956 C958 1.419 . S
C957 C952 1.425 . S
C957 C954 1.409 1_556 S
C957 C955 1.415 . S
C958 H948 0.930 . S
C958 C956 1.419 . S
C958 C959 1.362 . S
C959 H949 0.930 . S
C959 C952 1.409 . S
C959 C958 1.362 . S
H960 C966 0.930 . S
H961 C969 0.930 . S
H962 C970 0.930 . S
H963 C971 0.930 . S
H964 C974 0.930 . S
H965 C975 0.930 . S
C966 H960 0.930 . S
C966 C967 1.355 1_556 S
C966 C968 1.415 . S
C967 C966 1.355 1_554 S
C967 C969 1.419 . S
C968 C966 1.415 . S
C968 C973 1.425 . S
C968 C975 1.409 . S
C969 H961 0.930 . S
C969 C967 1.419 . S
C969 C970 1.362 . S
C970 H962 0.930 . S
C970 C969 1.362 . S
C970 C973 1.409 1_554 S
C971 H963 0.930 . S
C971 C972 1.355 . S
C971 C973 1.415 . S
C972 C971 1.355 . S
C972 C974 1.419 . S
C973 C968 1.425 . S
C973 C970 1.409 1_556 S
C973 C971 1.415 . S
C974 H964 0.930 . S
C974 C972 1.419 . S
C974 C975 1.362 . S
C975 H965 0.930 . S
C975 C968 1.409 . S
C975 C974 1.362 . S
H976 C982 0.930 . S
H977 C985 0.930 . S
H978 C986 0.930 . S
H979 C987 0.930 . S
H980 C990 0.930 . S
H981 C991 0.930 . S
C982 H976 0.930 . S
C982 C983 1.355 . S
C982 C984 1.415 . S
C983 C982 1.355 . S
C983 C985 1.419 . S
C984 C982 1.415 . S
C984 C989 1.425 . S
C984 C991 1.409 . S
C985 H977 0.930 . S
C985 C983 1.419 . S
C985 C986 1.362 . S
C986 H978 0.930 . S
C986 C985 1.362 . S
C986 C989 1.409 . S
C987 H979 0.930 . S
C987 C988 1.355 . S
C987 C989 1.415 . S
C988 C987 1.355 . S
C988 C990 1.419 . S
C989 C984 1.425 . S
C989 C986 1.409 . S
C989 C987 1.415 . S
C990 H980 0.930 . S
C990 C988 1.419 . S
C990 C991 1.362 . S
C991 H981 0.930 . S
C991 C984 1.409 . S
C991 C990 1.362 . S
H992 C998 0.930 . S
H993 C1001 0.930 . S
H994 C1002 0.930 . S
H995 C1003 0.930 . S
H996 C1006 0.930 . S
H997 C1007 0.930 . S
C998 H992 0.930 . S
C998 C999 1.355 . S
C998 C1000 1.415 . S
C999 C998 1.355 . S
C999 C1001 1.419 . S
C1000 C998 1.415 . S
C1000 C1005 1.425 . S
C1000 C1007 1.409 . S
C1001 H993 0.930 . S
C1001 C999 1.419 . S
C1001 C1002 1.362 . S
C1002 H994 0.930 . S
C1002 C1001 1.362 . S
C1002 C1005 1.409 . S
C1003 H995 0.930 . S
C1003 C1004 1.355 . S
C1003 C1005 1.415 . S
C1004 C1003 1.355 . S
C1004 C1006 1.419 . S
C1005 C1000 1.425 . S
C1005 C1002 1.409 . S
C1005 C1003 1.415 . S
C1006 H996 0.930 . S
C1006 C1004 1.419 . S
C1006 C1007 1.362 . S
C1007 H997 0.930 . S
C1007 C1000 1.409 . S
C1007 C1006 1.362 . S
H1008 C1014 0.930 . S
H1009 C1017 0.930 . S
H1010 C1018 0.930 . S
H1011 C1019 0.930 . S
H1012 C1022 0.930 . S
H1013 C1023 0.930 . S
C1014 H1008 0.930 . S
C1014 C1015 1.355 . S
C1014 C1016 1.415 . S
C1015 C1014 1.355 . S
C1015 C1017 1.419 . S
C1016 C1014 1.415 . S
C1016 C1021 1.425 . S
C1016 C1023 1.409 . S
C1017 H1009 0.930 . S
C1017 C1015 1.419 . S
C1017 C1018 1.362 . S
C1018 H1010 0.930 . S
C1018 C1017 1.362 . S
C1018 C1021 1.409 . S
C1019 H1011 0.930 . S
C1019 C1020 1.355 . S
C1019 C1021 1.415 . S
C1020 C1019 1.355 . S
C1020 C1022 1.419 . S
C1021 C1016 1.425 . S
C1021 C1018 1.409 . S
C1021 C1019 1.415 . S
C1022 H1012 0.930 . S
C1022 C1020 1.419 . S
C1022 C1023 1.362 . S
C1023 H1013 0.930 . S
C1023 C1016 1.409 . S
C1023 C1022 1.362 . S
H1024 C1030 0.930 . S
H1025 C1033 0.930 . S
H1026 C1034 0.930 . S
H1027 C1035 0.930 . S
H1028 C1038 0.930 1_565 S
H1029 C1039 0.930 . S
C1030 H1024 0.930 . S
C1030 C1031 1.355 . S
C1030 C1032 1.415 . S
C1031 C1030 1.355 . S
C1031 C1033 1.419 . S
C1032 C1030 1.415 . S
C1032 C1037 1.425 . S
C1032 C1039 1.409 . S
C1033 H1025 0.930 . S
C1033 C1031 1.419 . S
C1033 C1034 1.362 . S
C1034 H1026 0.930 . S
C1034 C1033 1.362 . S
C1034 C1037 1.409 . S
C1035 H1027 0.930 . S
C1035 C1036 1.355 . S
C1035 C1037 1.415 . S
C1036 C1035 1.355 . S
C1036 C1038 1.419 . S
C1037 C1032 1.425 . S
C1037 C1034 1.409 . S
C1037 C1035 1.415 . S
C1038 H1028 0.930 1_545 S
C1038 C1036 1.419 . S
C1038 C1039 1.362 . S
C1039 H1029 0.930 . S
C1039 C1032 1.409 . S
C1039 C1038 1.362 . S
H1040 C1046 0.930 . S
H1041 C1049 0.930 . S
H1042 C1050 0.930 . S
H1043 C1051 0.930 . S
H1044 C1054 0.930 . S
H1045 C1055 0.930 . S
C1046 H1040 0.930 . S
C1046 C1047 1.355 . S
C1046 C1048 1.415 . S
C1047 C1046 1.355 . S
C1047 C1049 1.419 . S
C1048 C1046 1.415 . S
C1048 C1053 1.425 . S
C1048 C1055 1.409 . S
C1049 H1041 0.930 . S
C1049 C1047 1.419 . S
C1049 C1050 1.362 . S
C1050 H1042 0.930 . S
C1050 C1049 1.362 . S
C1050 C1053 1.409 . S
C1051 H1043 0.930 . S
C1051 C1052 1.355 . S
C1051 C1053 1.415 . S
C1052 C1051 1.355 . S
C1052 C1054 1.419 . S
C1053 C1048 1.425 . S
C1053 C1050 1.409 . S
C1053 C1051 1.415 . S
C1054 H1044 0.930 . S
C1054 C1052 1.419 . S
C1054 C1055 1.362 . S
C1055 H1045 0.930 . S
C1055 C1048 1.409 . S
C1055 C1054 1.362 . S
H1056 C1062 0.930 . S
H1057 C1065 0.930 . S
H1058 C1066 0.930 . S
H1059 C1067 0.930 . S
H1060 C1070 0.930 . S
H1061 C1071 0.930 . S
C1062 H1056 0.930 . S
C1062 C1063 1.355 . S
C1062 C1064 1.415 . S
C1063 C1062 1.355 . S
C1063 C1065 1.419 . S
C1064 C1062 1.415 . S
C1064 C1069 1.425 . S
C1064 C1071 1.409 . S
C1065 H1057 0.930 . S
C1065 C1063 1.419 . S
C1065 C1066 1.362 . S
C1066 H1058 0.930 . S
C1066 C1065 1.362 . S
C1066 C1069 1.409 . S
C1067 H1059 0.930 . S
C1067 C1068 1.355 . S
C1067 C1069 1.415 . S
C1068 C1067 1.355 . S
C1068 C1070 1.419 . S
C1069 C1064 1.425 . S
C1069 C1066 1.409 . S
C1069 C1067 1.415 . S
C1070 H1060 0.930 . S
C1070 C1068 1.419 . S
C1070 C1071 1.362 . S
C1071 H1061 0.930 . S
C1071 C1064 1.409 . S
C1071 C1070 1.362 . S
H1072 C1078 0.930 . S
H1073 C1081 0.930 . S
H1074 C1082 0.930 . S
H1075 C1083 0.930 . S
H1076 C1086 0.930 . S
H1077 C1087 0.930 . S
C1078 H1072 0.930 . S
C1078 C1079 1.355 . S
C1078 C1080 1.415 . S
C1079 C1078 1.355 . S
C1079 C1081 1.419 . S
C1080 C1078 1.415 . S
C1080 C1085 1.425 . S
C1080 C1087 1.409 . S
C1081 H1073 0.930 . S
C1081 C1079 1.419 . S
C1081 C1082 1.362 . S
C1082 H1074 0.930 . S
C1082 C1081 1.362 . S
C1082 C1085 1.409 . S
C1083 H1075 0.930 . S
C1083 C1084 1.355 . S
C1083 C1085 1.415 . S
C1084 C1083 1.355 . S
C1084 C1086 1.419 . S
C1085 C1080 1.425 . S
C1085 C1082 1.409 . S
C1085 C1083 1.415 . S
C1086 H1076 0.930 . S
C1086 C1084 1.419 . S
C1086 C1087 1.362 . S
C1087 H1077 0.930 . S
C1087 C1080 1.409 . S
C1087 C1086 1.362 . S
H1088 C1094 0.930 . S
H1089 C1097 0.930 . S
H1090 C1098 0.930 . S
H1091 C1099 0.930 . S
H1092 C1102 0.930 . S
H1093 C1103 0.930 . S
C1094 H1088 0.930 . S
C1094 C1095 1.355 . S
C1094 C1096 1.415 . S
C1095 C1094 1.355 . S
C1095 C1097 1.419 . S
C1096 C1094 1.415 . S
C1096 C1101 1.425 . S
C1096 C1103 1.409 . S
C1097 H1089 0.930 . S
C1097 C1095 1.419 . S
C1097 C1098 1.362 . S
C1098 H1090 0.930 . S
C1098 C1097 1.362 . S
C1098 C1101 1.409 . S
C1099 H1091 0.930 . S
C1099 C1100 1.355 . S
C1099 C1101 1.415 . S
C1100 C1099 1.355 . S
C1100 C1102 1.419 . S
C1101 C1096 1.425 . S
C1101 C1098 1.409 . S
C1101 C1099 1.415 . S
C1102 H1092 0.930 . S
C1102 C1100 1.419 . S
C1102 C1103 1.362 . S
C1103 H1093 0.930 . S
C1103 C1096 1.409 . S
C1103 C1102 1.362 . S
H1104 C1110 0.930 . S
H1105 C1113 0.930 . S
H1106 C1114 0.930 . S
H1107 C1115 0.930 . S
H1108 C1118 0.930 . S
H1109 C1119 0.930 . S
C1110 H1104 0.930 . S
C1110 C1111 1.355 . S
C1110 C1112 1.415 . S
C1111 C1110 1.355 . S
C1111 C1113 1.419 . S
C1112 C1110 1.415 . S
C1112 C1117 1.425 . S
C1112 C1119 1.409 . S
C1113 H1105 0.930 . S
C1113 C1111 1.419 . S
C1113 C1114 1.362 . S
C1114 H1106 0.930 . S
C1114 C1113 1.362 . S
C1114 C1117 1.409 . S
C1115 H1107 0.930 . S
C1115 C1116 1.355 . S
C1115 C1117 1.415 . S
C1116 C1115 1.355 . S
C1116 C1118 1.419 . S
C1117 C1112 1.425 . S
C1117 C1114 1.409 . S
C1117 C1115 1.415 . S
C1118 H1108 0.930 . S
C1118 C1116 1.419 . S
C1118 C1119 1.362 . S
C1119 H1109 0.930 . S
C1119 C1112 1.409 . S
C1119 C1118 1.362 . S
H1120 C1126 0.930 . S
H1121 C1129 0.930 . S
H1122 C1130 0.930 . S
H1123 C1131 0.930 . S
H1124 C1134 0.930 . S
H1125 C1135 0.930 . S
C1126 H1120 0.930 . S
C1126 C1127 1.355 . S
C1126 C1128 1.415 . S
C1127 C1126 1.355 . S
C1127 C1129 1.419 . S
C1128 C1126 1.415 . S
C1128 C1133 1.425 . S
C1128 C1135 1.409 . S
C1129 H1121 0.930 . S
C1129 C1127 1.419 . S
C1129 C1130 1.362 . S
C1130 H1122 0.930 . S
C1130 C1129 1.362 . S
C1130 C1133 1.409 . S
C1131 H1123 0.930 . S
C1131 C1132 1.355 . S
C1131 C1133 1.415 . S
C1132 C1131 1.355 . S
C1132 C1134 1.419 . S
C1133 C1128 1.425 . S
C1133 C1130 1.409 . S
C1133 C1131 1.415 . S
C1134 H1124 0.930 . S
C1134 C1132 1.419 . S
C1134 C1135 1.362 . S
C1135 H1125 0.930 . S
C1135 C1128 1.409 . S
C1135 C1134 1.362 . S
H1136 C1142 0.930 . S
H1137 C1145 0.930 . S
H1138 C1146 0.930 . S
H1139 C1147 0.930 . S
H1140 C1150 0.930 . S
H1141 C1151 0.930 . S
C1142 H1136 0.930 . S
C1142 C1143 1.355 . S
C1142 C1144 1.415 . S
C1143 C1142 1.355 . S
C1143 C1145 1.419 . S
C1144 C1142 1.415 . S
C1144 C1149 1.425 . S
C1144 C1151 1.409 . S
C1145 H1137 0.930 . S
C1145 C1143 1.419 . S
C1145 C1146 1.362 . S
C1146 H1138 0.930 . S
C1146 C1145 1.362 . S
C1146 C1149 1.409 . S
C1147 H1139 0.930 . S
C1147 C1148 1.355 . S
C1147 C1149 1.415 . S
C1148 C1147 1.355 . S
C1148 C1150 1.419 . S
C1149 C1144 1.425 . S
C1149 C1146 1.409 . S
C1149 C1147 1.415 . S
C1150 H1140 0.930 . S
C1150 C1148 1.419 . S
C1150 C1151 1.362 . S
C1151 H1141 0.930 . S
C1151 C1144 1.409 . S
C1151 C1150 1.362 . S
H1152 C1158 0.930 . S
H1153 C1161 0.930 . S
H1154 C1162 0.930 . S
H1155 C1163 0.930 . S
H1156 C1166 0.930 . S
H1157 C1167 0.930 . S
C1158 H1152 0.930 . S
C1158 C1159 1.355 . S
C1158 C1160 1.415 . S
C1159 C1158 1.355 . S
C1159 C1161 1.419 . S
C1160 C1158 1.415 . S
C1160 C1165 1.425 . S
C1160 C1167 1.409 . S
C1161 H1153 0.930 . S
C1161 C1159 1.419 . S
C1161 C1162 1.362 . S
C1162 H1154 0.930 . S
C1162 C1161 1.362 . S
C1162 C1165 1.409 . S
C1163 H1155 0.930 . S
C1163 C1164 1.355 . S
C1163 C1165 1.415 . S
C1164 C1163 1.355 . S
C1164 C1166 1.419 . S
C1165 C1160 1.425 . S
C1165 C1162 1.409 . S
C1165 C1163 1.415 . S
C1166 H1156 0.930 . S
C1166 C1164 1.419 . S
C1166 C1167 1.362 . S
C1167 H1157 0.930 . S
C1167 C1160 1.409 . S
C1167 C1166 1.362 . S
C535 C8 1.670 . S
C540 C206 1.683 . S
C551 C239 1.764 . S
C556 C41 1.766 . S
C567 C140 1.763 . S
C572 C74 1.766 . S
C583 C173 1.673 . S
C588 C107 1.689 . S
C599 C272 1.765 . S
C604 C470 1.765 . S
C615 C305 1.765 . S
C620 C503 1.754 . S
C631 C404 1.667 . S
C636 C338 1.670 . S
C647 C371 1.752 . S
C652 C437 1.764 . S
C663 N269 2.157 . S
C668 N5 2.157 . S
C679 N302 2.171 . S
C684 N38 2.171 . S
C695 N335 2.155 . S
C700 N71 2.155 . S
C711 N368 2.151 . S
C716 N104 2.151 . S
C727 N401 2.170 . S
C732 N137 2.170 . S
C743 N434 2.131 . S
C748 N170 2.131 . S
C759 N203 2.157 . S
C764 N467 2.157 . S
C775 N236 2.161 . S
C780 N500 2.161 . S
C791 C314 0.809 . S
C796 C28 0.918 . S
C807 C347 0.798 . S
C812 C61 0.934 . S
C823 C380 0.942 . S
C828 C94 0.834 . S
C839 C281 0.940 . S
C844 C127 0.841 . S
C855 C160 0.932 . S
C860 C512 0.820 . S
C871 C193 0.857 . S
C876 C413 0.928 . S
C887 C226 0.919 . S
C892 C446 0.847 . S
C903 C259 0.841 . S
C908 C479 0.940 . S
C919 C50 0.844 . S
C924 C292 0.889 . S
C935 C83 0.859 . S
C940 C325 0.912 . S
C951 C116 0.813 . S
C956 C358 0.934 . S
C967 C17 0.918 . S
C972 C391 0.867 . S
C983 C248 0.846 . S
C988 C424 0.919 . S
C999 C149 0.930 . S
C1004 C457 0.833 . S
C1015 C182 0.870 . S
C1020 C490 0.905 . S
C1031 C523 0.835 . S
C1036 C215 0.942 . S
C1047 N80 0.767 . S
C1052 N14 0.746 . S
C1063 N113 0.586 . S
C1068 N47 0.782 . S
C1079 N146 0.690 . S
C1084 N212 0.618 . S
C1095 N245 0.763 . S
C1100 N179 0.584 . S
C1111 N278 0.608 . S
C1116 N344 0.805 . S
C1127 N377 0.607 . S
C1132 N311 0.706 . S
C1143 N410 0.590 . S
C1148 N476 0.790 . S
C1159 N443 0.647 . S
C1164 N509 0.657 . S
