# Generated by pormake.
# Topology wjo, (5)-cn, num edge types: 1
# Building blocks:
#     Node 0, Type 0, BuildingBlock: XOMCOT_clean_sbu_1, # of connection points: 5
#     Node 1, Type 0, BuildingBlock: XOMCOT_clean_sbu_1, # of connection points: 5
#     Node 2, Type 0, BuildingBlock: XOMCOT_clean_sbu_1, # of connection points: 5
#     Node 3, Type 0, BuildingBlock: XOMCOT_clean_sbu_1, # of connection points: 5
#     Node 4, Type 0, BuildingBlock: XOMCOT_clean_sbu_1, # of connection points: 5
#     Node 5, Type 0, BuildingBlock: XOMCOT_clean_sbu_1, # of connection points: 5
#     Node 6, Type 0, BuildingBlock: XOMCOT_clean_sbu_1, # of connection points: 5
#     Node 7, Type 0, BuildingBlock: XOMCOT_clean_sbu_1, # of connection points: 5
#     Node 8, Type 0, BuildingBlock: XOMCOT_clean_sbu_1, # of connection points: 5
#     Node 9, Type 0, BuildingBlock: XOMCOT_clean_sbu_1, # of connection points: 5
#     Node 10, Type 0, BuildingBlock: XOMCOT_clean_sbu_1, # of connection points: 5
#     Node 11, Type 0, BuildingBlock: XOMCOT_clean_sbu_1, # of connection points: 5
#     Edge 12, Type (0, 0), BuildingBlock: TEMPAE_clean_linker_10, # of connection points: 2
#     Edge 13, Type (0, 0), BuildingBlock: TEMPAE_clean_linker_10, # of connection points: 2
#     Edge 14, Type (0, 0), BuildingBlock: TEMPAE_clean_linker_10, # of connection points: 2
#     Edge 15, Type (0, 0), BuildingBlock: TEMPAE_clean_linker_10, # of connection points: 2
#     Edge 16, Type (0, 0), BuildingBlock: TEMPAE_clean_linker_10, # of connection points: 2
#     Edge 17, Type (0, 0), BuildingBlock: TEMPAE_clean_linker_10, # of connection points: 2
#     Edge 18, Type (0, 0), BuildingBlock: TEMPAE_clean_linker_10, # of connection points: 2
#     Edge 19, Type (0, 0), BuildingBlock: TEMPAE_clean_linker_10, # of connection points: 2
#     Edge 20, Type (0, 0), BuildingBlock: TEMPAE_clean_linker_10, # of connection points: 2
#     Edge 21, Type (0, 0), BuildingBlock: TEMPAE_clean_linker_10, # of connection points: 2
#     Edge 22, Type (0, 0), BuildingBlock: TEMPAE_clean_linker_10, # of connection points: 2
#     Edge 23, Type (0, 0), BuildingBlock: TEMPAE_clean_linker_10, # of connection points: 2
#     Edge 24, Type (0, 0), BuildingBlock: TEMPAE_clean_linker_10, # of connection points: 2
#     Edge 25, Type (0, 0), BuildingBlock: TEMPAE_clean_linker_10, # of connection points: 2
#     Edge 26, Type (0, 0), BuildingBlock: TEMPAE_clean_linker_10, # of connection points: 2
#     Edge 27, Type (0, 0), BuildingBlock: TEMPAE_clean_linker_10, # of connection points: 2
#     Edge 28, Type (0, 0), BuildingBlock: TEMPAE_clean_linker_10, # of connection points: 2
#     Edge 29, Type (0, 0), BuildingBlock: TEMPAE_clean_linker_10, # of connection points: 2
#     Edge 30, Type (0, 0), BuildingBlock: TEMPAE_clean_linker_10, # of connection points: 2
#     Edge 31, Type (0, 0), BuildingBlock: TEMPAE_clean_linker_10, # of connection points: 2
#     Edge 32, Type (0, 0), BuildingBlock: TEMPAE_clean_linker_10, # of connection points: 2
#     Edge 33, Type (0, 0), BuildingBlock: TEMPAE_clean_linker_10, # of connection points: 2
#     Edge 34, Type (0, 0), BuildingBlock: TEMPAE_clean_linker_10, # of connection points: 2
#     Edge 35, Type (0, 0), BuildingBlock: TEMPAE_clean_linker_10, # of connection points: 2
#     Edge 36, Type (0, 0), BuildingBlock: TEMPAE_clean_linker_10, # of connection points: 2
#     Edge 37, Type (0, 0), BuildingBlock: TEMPAE_clean_linker_10, # of connection points: 2
#     Edge 38, Type (0, 0), BuildingBlock: TEMPAE_clean_linker_10, # of connection points: 2
#     Edge 39, Type (0, 0), BuildingBlock: TEMPAE_clean_linker_10, # of connection points: 2
#     Edge 40, Type (0, 0), BuildingBlock: TEMPAE_clean_linker_10, # of connection points: 2
#     Edge 41, Type (0, 0), BuildingBlock: TEMPAE_clean_linker_10, # of connection points: 2
# Relax obj value: 0.387
# Max RMSD: 0.204
# Mean RMSD: 0.201
data_MOF--net-wjo--node1-XOMCOT_clean_sbu_1--edge1-TEMPAE_clean_linker_10
_symmetry_space_group_name_H-M    P1
_symmetry_Int_Tables_number       1
_symmetry_cell_setting            triclinic
loop_
_symmetry_equiv_pos_as_xyz
'x, y, z'
_cell_length_a     48.245029
_cell_length_b     48.147773
_cell_length_c     28.570076
_cell_angle_alpha  89.977914
_cell_angle_beta   90.012766
_cell_angle_gamma 120.07185
loop_
_atom_site_label
_atom_site_type_symbol
_atom_site_fract_x
_atom_site_fract_y
_atom_site_fract_z
_atom_type_partial_charge
C0 C 0.22591 0.33422 0.89527 0.0
C1 C 0.22912 0.31048 0.87359 0.0
N2 N 0.24643 0.30241 0.90168 0.0
N3 N 0.24103 0.34103 0.93686 0.0
C4 C 0.25331 0.32131 0.93986 0.0
H5 H 0.21385 0.34622 0.88127 0.0
Co6 Co 0.24396 0.37244 0.97709 0.0
C7 C 0.2727 0.36551 0.06515 0.0
O8 O 0.28893 0.39689 0.0698 0.0
N9 N 0.24581 0.40437 0.01757 0.0
C10 C 0.25749 0.44949 0.05517 0.0
C11 C 0.26184 0.43679 0.01458 0.0
C12 C 0.23072 0.39814 0.05943 0.0
N13 N 0.23798 0.42505 0.08326 0.0
O14 O 0.19976 0.346 0.99247 0.0
H15 H 0.27653 0.45085 0.98574 0.0
H16 H 0.21648 0.37421 0.07372 0.0
O17 O 0.25476 0.35294 0.02931 0.0
C18 C 0.17991 0.35257 0.97338 0.0
O19 O 0.19062 0.37622 0.94298 0.0
N20 N 0.28721 0.3987 0.95919 0.0
C21 C 0.34924 0.44538 0.93478 0.0
C22 C 0.34391 0.41942 0.96314 0.0
C23 C 0.3126 0.39577 0.97386 0.0
C24 C 0.29185 0.42128 0.92655 0.0
C25 C 0.32275 0.44531 0.91443 0.0
H26 H 0.30919 0.37559 0.99453 0.0
H27 H 0.27138 0.42191 0.91232 0.0
H28 H 0.26722 0.32095 0.96929 0.0
H29 H 0.22032 0.30075 0.8391 0.0
H30 H 0.26844 0.47471 0.06387 0.0
H31 H 0.36379 0.41775 0.97758 0.0
H32 H 0.3258 0.46455 0.89148 0.0
C33 C 0.89511 0.22846 0.05165 0.0
C34 C 0.92309 0.23419 0.03044 0.0
N35 N 0.94746 0.25054 0.06064 0.0
N36 N 0.90174 0.24103 0.09503 0.0
C37 C 0.93379 0.25434 0.09956 0.0
H38 H 0.87146 0.21637 0.03622 0.0
Co39 Co 0.87144 0.24003 0.13572 0.0
C40 C 0.90632 0.27016 0.22404 0.0
O41 O 0.88973 0.28487 0.22881 0.0
N42 N 0.83968 0.23782 0.17656 0.0
C43 C 0.80163 0.24235 0.21405 0.0
C44 C 0.81846 0.24828 0.17277 0.0
C45 C 0.83392 0.22415 0.2194 0.0
N46 N 0.8119 0.22764 0.24352 0.0
O47 O 0.85703 0.19604 0.14941 0.0
H48 H 0.81551 0.26012 0.14275 0.0
H49 H 0.8469 0.21313 0.23364 0.0
O50 O 0.9019 0.2525 0.18812 0.0
C51 C 0.83151 0.17524 0.12914 0.0
O52 O 0.8181 0.18508 0.09827 0.0
N53 N 0.88491 0.28301 0.11965 0.0
C54 C 0.89599 0.34411 0.09631 0.0
C55 C 0.91807 0.34033 0.12365 0.0
C56 C 0.91258 0.30958 0.13367 0.0
C57 C 0.86536 0.28621 0.08843 0.0
C58 C 0.87014 0.31648 0.07677 0.0
H59 H 0.93054 0.30749 0.15324 0.0
H60 H 0.84512 0.26497 0.07393 0.0
H61 H 0.94691 0.26674 0.13065 0.0
H62 H 0.92536 0.22767 0.99499 0.0
H63 H 0.78442 0.24976 0.22251 0.0
H64 H 0.93897 0.36077 0.13851 0.0
H65 H 0.85339 0.31809 0.05328 0.0
C66 C 0.66697 0.89248 0.22186 0.0
C67 C 0.69008 0.91958 0.19957 0.0
N68 N 0.69891 0.94491 0.22821 0.0
N69 N 0.6613 0.90059 0.26438 0.0
C70 C 0.68109 0.93267 0.26732 0.0
H71 H 0.65461 0.86842 0.20767 0.0
Co72 Co 0.63096 0.87181 0.30582 0.0
C73 C 0.63575 0.90908 0.39092 0.0
O74 O 0.60435 0.89316 0.39445 0.0
N75 N 0.60025 0.84148 0.34774 0.0
C76 C 0.55644 0.806 0.38615 0.0
C77 C 0.5681 0.82211 0.3446 0.0
C78 C 0.60751 0.83522 0.39081 0.0
N79 N 0.58133 0.81445 0.41512 0.0
O80 O 0.65912 0.85627 0.32229 0.0
H81 H 0.55341 0.81968 0.31481 0.0
H82 H 0.63148 0.8473 0.40528 0.0
O83 O 0.64931 0.90341 0.35667 0.0
C84 C 0.6537 0.83023 0.30293 0.0
O85 O 0.63063 0.81699 0.27176 0.0
N86 N 0.60288 0.88638 0.28683 0.0
C87 C 0.55395 0.89815 0.2627 0.0
C88 C 0.58086 0.92141 0.28673 0.0
C89 C 0.60556 0.91531 0.29771 0.0
C90 C 0.57927 0.86597 0.25726 0.0
C91 C 0.55381 0.87076 0.24609 0.0
H92 H 0.62626 0.9336 0.3159 0.0
H93 H 0.57907 0.84461 0.245 0.0
H94 H 0.68229 0.94687 0.29737 0.0
H95 H 0.69887 0.92065 0.16438 0.0
H96 H 0.53156 0.78976 0.39473 0.0
H97 H 0.58217 0.94341 0.29856 0.0
H98 H 0.53374 0.85278 0.22609 0.0
C99 C 0.77419 0.66735 0.39054 0.0
C100 C 0.77007 0.69079 0.36963 0.0
N101 N 0.75166 0.69737 0.3978 0.0
N102 N 0.75854 0.65922 0.4317 0.0
C103 C 0.74503 0.67785 0.43522 0.0
H104 H 0.78739 0.65656 0.37643 0.0
Co105 Co 0.75659 0.62795 0.47144 0.0
C106 C 0.72929 0.63508 0.56103 0.0
O107 O 0.7137 0.60379 0.56689 0.0
N108 N 0.75555 0.59616 0.51157 0.0
C109 C 0.74429 0.55103 0.54882 0.0
C110 C 0.73947 0.56374 0.50859 0.0
C111 C 0.77115 0.60238 0.553 0.0
N112 N 0.76415 0.57545 0.57665 0.0
O113 O 0.80106 0.65491 0.48563 0.0
H114 H 0.72435 0.54972 0.48005 0.0
H115 H 0.78549 0.6263 0.56726 0.0
O116 O 0.74619 0.64728 0.52418 0.0
C117 C 0.82049 0.64657 0.46987 0.0
O118 O 0.80932 0.62084 0.44341 0.0
N119 N 0.7132 0.60117 0.45463 0.0
C120 C 0.65148 0.55312 0.43159 0.0
C121 C 0.6563 0.57826 0.46138 0.0
C122 C 0.68743 0.60265 0.47139 0.0
C123 C 0.70883 0.57932 0.42089 0.0
C124 C 0.67809 0.55467 0.40931 0.0
H125 H 0.69039 0.62217 0.49319 0.0
H126 H 0.72948 0.5797 0.4054 0.0
H127 H 0.73055 0.67706 0.46461 0.0
H128 H 0.77918 0.70143 0.33567 0.0
H129 H 0.73335 0.52581 0.55754 0.0
H130 H 0.63619 0.57869 0.47748 0.0
H131 H 0.67534 0.53605 0.3853 0.0
C132 C 0.10712 0.78095 0.54791 0.0
C133 C 0.07913 0.77526 0.52688 0.0
N134 N 0.05425 0.75435 0.55355 0.0
N135 N 0.10013 0.76392 0.58783 0.0
C136 C 0.06782 0.74795 0.59037 0.0
H137 H 0.13111 0.79664 0.53504 0.0
Co138 Co 0.13047 0.76466 0.62835 0.0
C139 C 0.09626 0.73615 0.71767 0.0
O140 O 0.11307 0.72176 0.72349 0.0
N141 N 0.16224 0.76674 0.66908 0.0
C142 C 0.2001 0.76195 0.70672 0.0
C143 C 0.18271 0.75532 0.66585 0.0
C144 C 0.16893 0.78153 0.71115 0.0
N145 N 0.19091 0.77801 0.73536 0.0
O146 O 0.1454 0.80882 0.64149 0.0
H147 H 0.18471 0.74236 0.63653 0.0
H148 H 0.15663 0.7934 0.72483 0.0
O149 O 0.10019 0.75286 0.6808 0.0
C150 C 0.17151 0.82931 0.6222 0.0
O151 O 0.18526 0.81912 0.5925 0.0
N152 N 0.11657 0.72144 0.61289 0.0
C153 C 0.10565 0.66026 0.59043 0.0
C154 C 0.08418 0.66413 0.61905 0.0
C155 C 0.08959 0.69487 0.6288 0.0
C156 C 0.13555 0.71807 0.58081 0.0
C157 C 0.13083 0.68777 0.56952 0.0
H158 H 0.07213 0.69686 0.64971 0.0
H159 H 0.15546 0.73924 0.56553 0.0
H160 H 0.05457 0.73163 0.61845 0.0
H161 H 0.0775 0.78609 0.4946 0.0
H162 H 0.21695 0.75414 0.71555 0.0
H163 H 0.06387 0.64376 0.6352 0.0
H164 H 0.14717 0.68603 0.54533 0.0
C165 C 0.33691 0.11156 0.71632 0.0
C166 C 0.31451 0.08448 0.69326 0.0
N167 N 0.30473 0.05917 0.72228 0.0
N168 N 0.3412 0.10345 0.75969 0.0
C169 C 0.32134 0.07138 0.76236 0.0
H170 H 0.34963 0.13563 0.70222 0.0
Co171 Co 0.36972 0.13262 0.8024 0.0
C172 C 0.36548 0.09559 0.88767 0.0
O173 O 0.39684 0.11244 0.89166 0.0
N174 N 0.39846 0.16334 0.84544 0.0
C175 C 0.44006 0.2003 0.88617 0.0
C176 C 0.43016 0.18497 0.84358 0.0
C177 C 0.38955 0.16736 0.8886 0.0
N178 N 0.41443 0.18867 0.91459 0.0
O179 O 0.33955 0.14576 0.81746 0.0
H180 H 0.44565 0.18915 0.81402 0.0
H181 H 0.36527 0.15359 0.90164 0.0
O182 O 0.35167 0.10039 0.85285 0.0
C183 C 0.3439 0.17139 0.79797 0.0
O184 O 0.36714 0.18556 0.76722 0.0
N185 N 0.39983 0.12045 0.78486 0.0
C186 C 0.45043 0.1109 0.76 0.0
C187 C 0.42406 0.08743 0.78524 0.0
C188 C 0.39849 0.09219 0.79587 0.0
C189 C 0.42308 0.1415 0.75542 0.0
C190 C 0.44883 0.13746 0.74301 0.0
H191 H 0.37807 0.07326 0.81371 0.0
H192 H 0.42222 0.16228 0.74295 0.0
H193 H 0.31911 0.05721 0.79298 0.0
H194 H 0.30673 0.08342 0.65744 0.0
H195 H 0.46443 0.21741 0.89616 0.0
H196 H 0.42341 0.06596 0.79808 0.0
H197 H 0.46752 0.15533 0.72098 0.0
C198 C 0.67128 0.77727 0.93995 0.0
C199 C 0.6942 0.77213 0.96016 0.0
N200 N 0.69961 0.75304 0.93161 0.0
N201 N 0.66233 0.76162 0.89879 0.0
C202 C 0.6799 0.74702 0.89465 0.0
H203 H 0.66133 0.79108 0.95464 0.0
Co204 Co 0.63111 0.76055 0.86004 0.0
C205 C 0.637 0.73369 0.76898 0.0
O206 O 0.60583 0.71915 0.76279 0.0
N207 N 0.5994 0.76042 0.82113 0.0
C208 C 0.55433 0.74859 0.78359 0.0
C209 C 0.56703 0.74344 0.82356 0.0
C210 C 0.60555 0.77687 0.78044 0.0
N211 N 0.57869 0.76955 0.7566 0.0
O212 O 0.65853 0.80485 0.84575 0.0
H213 H 0.55312 0.72707 0.85109 0.0
H214 H 0.62941 0.79162 0.76633 0.0
O215 O 0.6494 0.74969 0.8065 0.0
C216 C 0.6529 0.82505 0.86592 0.0
O217 O 0.62977 0.81462 0.89706 0.0
N218 N 0.60385 0.71728 0.8769 0.0
C219 C 0.55563 0.65597 0.90283 0.0
C220 C 0.57924 0.66006 0.87038 0.0
C221 C 0.60366 0.69092 0.85883 0.0
C222 C 0.58355 0.71374 0.91248 0.0
C223 C 0.559 0.68333 0.92567 0.0
H224 H 0.6219 0.69316 0.83495 0.0
H225 H 0.58527 0.73484 0.92875 0.0
H226 H 0.67813 0.73209 0.86525 0.0
H227 H 0.70526 0.78098 0.99397 0.0
H228 H 0.52924 0.73673 0.77406 0.0
H229 H 0.57837 0.63978 0.85263 0.0
H230 H 0.54233 0.68141 0.95259 0.0
C231 C 0.89411 0.6739 0.09767 0.0
C232 C 0.92133 0.69762 0.11874 0.0
N233 N 0.94703 0.70169 0.09423 0.0
N234 N 0.9024 0.66308 0.05983 0.0
C235 C 0.93472 0.6804 0.05856 0.0
H236 H 0.86977 0.66504 0.10926 0.0
Co237 Co 0.87351 0.63101 0.02053 0.0
C238 C 0.90832 0.63735 0.9316 0.0
O239 O 0.89271 0.606 0.92652 0.0
N240 N 0.84314 0.59855 0.98096 0.0
C241 C 0.81005 0.55292 0.94419 0.0
C242 C 0.82747 0.56615 0.98436 0.0
C243 C 0.8335 0.60419 0.93933 0.0
N244 N 0.81404 0.57698 0.91597 0.0
O245 O 0.85574 0.65733 0.00417 0.0
H246 H 0.82903 0.55251 0.01308 0.0
H247 H 0.84265 0.62795 0.92467 0.0
O248 O 0.90356 0.64991 0.96799 0.0
C249 C 0.8293 0.65102 0.02292 0.0
O250 O 0.81627 0.62777 0.05392 0.0
N251 N 0.89033 0.60471 0.03926 0.0
C252 C 0.9037 0.55671 0.06409 0.0
C253 C 0.924 0.58137 0.03363 0.0
C254 C 0.91739 0.60571 0.02262 0.0
C255 C 0.8729 0.5834 0.07362 0.0
C256 C 0.87884 0.55879 0.08615 0.0
H257 H 0.93386 0.62472 4e-05 0.0
H258 H 0.85267 0.58405 0.08875 0.0
H259 H 0.94892 0.67695 0.03245 0.0
H260 H 0.92191 0.71084 0.14968 0.0
H261 H 0.79628 0.52762 0.93576 0.0
H262 H 0.94437 0.58141 0.01762 0.0
H263 H 0.86296 0.54052 0.1106 0.0
C264 C 0.22634 0.88955 0.27809 0.0
C265 C 0.22987 0.91595 0.30201 0.0
N266 N 0.24642 0.94205 0.27474 0.0
N267 N 0.24052 0.89892 0.23594 0.0
C268 C 0.25248 0.931 0.23483 0.0
H269 H 0.2145 0.86508 0.29072 0.0
Co270 Co 0.24203 0.87132 0.19221 0.0
C271 C 0.27616 0.91131 0.11014 0.0
O272 O 0.29216 0.8959 0.10674 0.0
N273 N 0.24222 0.84215 0.14775 0.0
C274 C 0.24645 0.80477 0.10743 0.0
C275 C 0.2511 0.8196 0.15024 0.0
C276 C 0.23082 0.83922 0.10369 0.0
N277 N 0.23409 0.81756 0.0781 0.0
O278 O 0.19841 0.85663 0.17588 0.0
H279 H 0.2603 0.81376 0.18071 0.0
H280 H 0.22077 0.85329 0.09022 0.0
O281 O 0.25601 0.90457 0.14344 0.0
C282 C 0.17828 0.82854 0.1901 0.0
O283 O 0.18857 0.81314 0.21637 0.0
N284 N 0.28449 0.88481 0.21102 0.0
C285 C 0.34513 0.89579 0.23406 0.0
C286 C 0.34144 0.92031 0.21417 0.0
C287 C 0.31067 0.91449 0.20359 0.0
C288 C 0.28758 0.86275 0.23687 0.0
C289 C 0.3178 0.8672 0.24727 0.0
H290 H 0.30824 0.93363 0.18828 0.0
H291 H 0.26641 0.84086 0.24759 0.0
H292 H 0.26542 0.94603 0.20538 0.0
H293 H 0.22165 0.916 0.33724 0.0
H294 H 0.25253 0.78665 0.09828 0.0
H295 H 0.36212 0.94318 0.20512 0.0
H296 H 0.31983 0.84825 0.26452 0.0
C297 C 0.3322 0.22662 0.45342 0.0
C298 C 0.31059 0.23307 0.47511 0.0
N299 N 0.30202 0.24882 0.4446 0.0
N300 N 0.33721 0.23814 0.40943 0.0
C301 C 0.31857 0.25157 0.40503 0.0
H302 H 0.34399 0.21479 0.46895 0.0
Co303 Co 0.36562 0.23595 0.36814 0.0
C304 C 0.36028 0.26492 0.2791 0.0
O305 O 0.3915 0.27903 0.27356 0.0
N306 N 0.39426 0.23251 0.32677 0.0
C307 C 0.43607 0.23606 0.28823 0.0
C308 C 0.42595 0.2428 0.32957 0.0
C309 C 0.38557 0.21809 0.28448 0.0
N310 N 0.41061 0.22098 0.25968 0.0
O311 O 0.3354 0.19188 0.35619 0.0
H312 H 0.44127 0.25516 0.35888 0.0
H313 H 0.36136 0.20707 0.27103 0.0
O314 O 0.34722 0.248 0.31572 0.0
C315 C 0.33996 0.1712 0.37721 0.0
O316 O 0.36338 0.1813 0.40783 0.0
N317 N 0.39582 0.27908 0.38249 0.0
C318 C 0.4463 0.34037 0.40394 0.0
C319 C 0.42019 0.33638 0.37701 0.0
C320 C 0.39473 0.30557 0.36794 0.0
C321 C 0.41892 0.28255 0.4132 0.0
C322 C 0.44463 0.3129 0.42391 0.0
H323 H 0.37449 0.30337 0.34878 0.0
H324 H 0.41796 0.26144 0.42816 0.0
H325 H 0.31731 0.26334 0.37358 0.0
H326 H 0.30262 0.22744 0.51104 0.0
H327 H 0.46053 0.24326 0.279 0.0
H328 H 0.41965 0.3567 0.36182 0.0
H329 H 0.46321 0.3147 0.4471 0.0
C330 C 0.10777 0.33379 0.60854 0.0
C331 C 0.08046 0.31043 0.62998 0.0
N332 N 0.05523 0.30356 0.6022 0.0
N333 N 0.09987 0.34157 0.56738 0.0
C334 C 0.06771 0.32283 0.56443 0.0
H335 H 0.13185 0.34483 0.62237 0.0
Co336 Co 0.12907 0.37281 0.52753 0.0
C337 C 0.09475 0.36607 0.43797 0.0
O338 O 0.11063 0.39739 0.43253 0.0
N339 N 0.15988 0.40459 0.48757 0.0
C340 C 0.19382 0.44973 0.45039 0.0
C341 C 0.17624 0.43701 0.49057 0.0
C342 C 0.16934 0.39837 0.44621 0.0
N343 N 0.18928 0.4253 0.4226 0.0
O344 O 0.14649 0.34588 0.51303 0.0
H345 H 0.17513 0.45106 0.51904 0.0
H346 H 0.15976 0.37446 0.43192 0.0
O347 O 0.09921 0.35356 0.47471 0.0
C348 C 0.17297 0.35248 0.53195 0.0
O349 O 0.18618 0.37642 0.56184 0.0
N350 N 0.11249 0.3996 0.54448 0.0
C351 C 0.09878 0.44773 0.56665 0.0
C352 C 0.07831 0.42227 0.53745 0.0
C353 C 0.08508 0.39786 0.52787 0.0
C354 C 0.13003 0.42167 0.57792 0.0
C355 C 0.12396 0.44641 0.58902 0.0
H356 H 0.06845 0.37813 0.50642 0.0
H357 H 0.15039 0.42147 0.59342 0.0
H358 H 0.0537 0.32339 0.53529 0.0
H359 H 0.07923 0.30007 0.66408 0.0
H360 H 0.20805 0.47494 0.44163 0.0
H361 H 0.05765 0.42162 0.52138 0.0
H362 H 0.13994 0.46526 0.61265 0.0
C363 C 0.7732 0.10906 0.78045 0.0
C364 C 0.76803 0.0814 0.80229 0.0
N365 N 0.75155 0.05658 0.77281 0.0
N366 N 0.76017 0.10178 0.73738 0.0
C367 C 0.7471 0.06965 0.73369 0.0
H368 H 0.7853 0.13296 0.79522 0.0
Co369 Co 0.76078 0.13168 0.69612 0.0
C370 C 0.73097 0.09642 0.60801 0.0
O371 O 0.71615 0.1129 0.60312 0.0
N372 N 0.76268 0.16314 0.65471 0.0
C373 C 0.75752 0.2005 0.61598 0.0
C374 C 0.75169 0.184 0.65761 0.0
C375 C 0.77657 0.16884 0.61205 0.0
N376 N 0.7727 0.1904 0.58719 0.0
O377 O 0.80468 0.14635 0.68245 0.0
H378 H 0.7395 0.18686 0.68718 0.0
H379 H 0.78793 0.15602 0.59841 0.0
O380 O 0.74852 0.10085 0.64404 0.0
C381 C 0.82557 0.17198 0.70241 0.0
O382 O 0.81601 0.18559 0.73335 0.0
N383 N 0.71779 0.11785 0.71202 0.0
C384 C 0.65662 0.10625 0.73322 0.0
C385 C 0.66073 0.08408 0.70689 0.0
C386 C 0.6916 0.08979 0.69803 0.0
C387 C 0.71405 0.1375 0.7425 0.0
C388 C 0.68359 0.13245 0.75309 0.0
H389 H 0.69409 0.07177 0.67925 0.0
H390 H 0.73499 0.15817 0.75679 0.0
H391 H 0.73446 0.05604 0.70304 0.0
H392 H 0.77506 0.07964 0.83765 0.0
H393 H 0.7497 0.2173 0.60678 0.0
H394 H 0.64027 0.06277 0.69282 0.0
H395 H 0.68125 0.14965 0.77469 0.0
C396 C 0.1954 0.44826 0.34398 0.0
C397 C 0.19838 0.4271 0.37442 0.0
C398 C 0.2016 0.44848 0.29602 0.0
C399 C 0.21171 0.42751 0.27842 0.0
C400 C 0.21544 0.40657 0.30928 0.0
C401 C 0.20829 0.40633 0.35693 0.0
C402 C 0.19664 0.4706 0.26405 0.0
C403 C 0.22685 0.38437 0.29197 0.0
C404 C 0.20044 0.40548 0.14951 0.0
C405 C 0.23083 0.42683 0.13155 0.0
C406 C 0.19368 0.40576 0.19721 0.0
C407 C 0.21821 0.4274 0.22765 0.0
C408 C 0.24898 0.44897 0.20959 0.0
C409 C 0.25481 0.44864 0.16159 0.0
C410 C 0.16036 0.38289 0.21501 0.0
C411 C 0.27591 0.47191 0.24111 0.0
H412 H 0.18712 0.46385 0.35754 0.0
H413 H 0.21052 0.39002 0.38072 0.0
H414 H 0.21925 0.48699 0.24551 0.0
H415 H 0.17853 0.45634 0.23699 0.0
H416 H 0.18851 0.48528 0.28332 0.0
H417 H 0.2298 0.37061 0.32087 0.0
H418 H 0.20948 0.36712 0.26634 0.0
H419 H 0.25011 0.39835 0.27358 0.0
H420 H 0.18198 0.38869 0.12605 0.0
H421 H 0.27847 0.46471 0.14769 0.0
H422 H 0.15049 0.39644 0.2331 0.0
H423 H 0.16124 0.36623 0.241 0.0
H424 H 0.14372 0.3685 0.18642 0.0
H425 H 0.26912 0.48797 0.2593 0.0
H426 H 0.29851 0.48692 0.22155 0.0
H427 H 0.28041 0.45827 0.26847 0.0
C428 C 0.83002 0.22705 0.32375 0.0
C429 C 0.80542 0.22222 0.2928 0.0
C430 C 0.82458 0.22271 0.37201 0.0
C431 C 0.79369 0.21308 0.38976 0.0
C432 C 0.76874 0.20829 0.35877 0.0
C433 C 0.77499 0.21312 0.31055 0.0
C434 C 0.8519 0.22838 0.40395 0.0
C435 C 0.73545 0.19778 0.3765 0.0
C436 C 0.7736 0.17151 0.50759 0.0
C437 C 0.77809 0.19638 0.53781 0.0
C438 C 0.778 0.17647 0.45925 0.0
C439 C 0.78741 0.20718 0.44068 0.0
C440 C 0.79179 0.23239 0.47093 0.0
C441 C 0.78686 0.2266 0.51924 0.0
C442 C 0.77272 0.14887 0.42813 0.0
C443 C 0.80204 0.2655 0.45232 0.0
H444 H 0.85379 0.23486 0.31026 0.0
H445 H 0.75601 0.20938 0.28659 0.0
H446 H 0.85546 0.24634 0.43111 0.0
H447 H 0.84606 0.20579 0.42233 0.0
H448 H 0.87477 0.23702 0.38464 0.0
H449 H 0.71887 0.19562 0.3479 0.0
H450 H 0.7255 0.17422 0.39434 0.0
H451 H 0.73632 0.2152 0.40271 0.0
H452 H 0.76606 0.14789 0.52171 0.0
H453 H 0.79031 0.24577 0.54264 0.0
H454 H 0.79545 0.15465 0.41041 0.0
H455 H 0.75502 0.145 0.40043 0.0
H456 H 0.764 0.12612 0.44796 0.0
H457 H 0.82573 0.27557 0.43502 0.0
H458 H 0.80372 0.28226 0.48037 0.0
H459 H 0.78479 0.26417 0.42548 0.0
C460 C 0.55639 0.80685 0.49252 0.0
C461 C 0.58005 0.80697 0.46399 0.0
C462 C 0.55584 0.80146 0.54081 0.0
C463 C 0.57912 0.79535 0.56074 0.0
C464 C 0.60282 0.79498 0.5319 0.0
C465 C 0.60323 0.80123 0.48384 0.0
C466 C 0.53063 0.80272 0.57057 0.0
C467 C 0.6276 0.78782 0.55172 0.0
C468 C 0.59627 0.80772 0.69114 0.0
C469 C 0.57722 0.77649 0.70816 0.0
C470 C 0.59671 0.81439 0.64323 0.0
C471 C 0.57838 0.78895 0.61171 0.0
C472 C 0.55925 0.7573 0.62887 0.0
C473 C 0.55861 0.75153 0.67705 0.0
C474 C 0.61684 0.84855 0.62636 0.0
C475 C 0.54003 0.72944 0.59626 0.0
H476 H 0.53884 0.81189 0.47715 0.0
H477 H 0.62143 0.80129 0.46154 0.0
H478 H 0.51564 0.77929 0.58817 0.0
H479 H 0.54225 0.82107 0.59841 0.0
H480 H 0.51474 0.80854 0.54975 0.0
H481 H 0.64383 0.78762 0.52431 0.0
H482 H 0.64226 0.80604 0.57842 0.0
H483 H 0.6156 0.76413 0.56948 0.0
H484 H 0.61072 0.82684 0.71549 0.0
H485 H 0.54448 0.72729 0.69035 0.0
H486 H 0.6017 0.85587 0.60667 0.0
H487 H 0.63558 0.85039 0.60199 0.0
H488 H 0.62867 0.86569 0.65565 0.0
H489 H 0.52262 0.73346 0.57633 0.0
H490 H 0.52673 0.70625 0.61524 0.0
H491 H 0.5562 0.72759 0.57041 0.0
C492 C 0.80211 0.59489 0.64242 0.0
C493 C 0.77156 0.57368 0.62483 0.0
C494 C 0.80908 0.59476 0.69007 0.0
C495 C 0.7846 0.57343 0.72086 0.0
C496 C 0.75368 0.55196 0.70316 0.0
C497 C 0.74765 0.55212 0.65519 0.0
C498 C 0.84253 0.61753 0.70749 0.0
C499 C 0.7268 0.52936 0.73504 0.0
C500 C 0.8075 0.55326 0.83776 0.0
C501 C 0.80476 0.57475 0.86777 0.0
C502 C 0.80118 0.55269 0.78977 0.0
C503 C 0.79124 0.57368 0.77167 0.0
C504 C 0.78774 0.59496 0.80209 0.0
C505 C 0.79495 0.5955 0.84977 0.0
C506 C 0.80584 0.53017 0.75828 0.0
C507 C 0.77654 0.61722 0.78425 0.0
H508 H 0.82051 0.61149 0.6187 0.0
H509 H 0.72387 0.53617 0.64159 0.0
H510 H 0.84193 0.63452 0.73311 0.0
H511 H 0.85226 0.60396 0.7259 0.0
H512 H 0.85913 0.63156 0.67864 0.0
H513 H 0.70413 0.51425 0.71569 0.0
H514 H 0.73355 0.51339 0.75363 0.0
H515 H 0.72245 0.54329 0.76205 0.0
H516 H 0.81569 0.53767 0.85166 0.0
H517 H 0.79287 0.61207 0.87319 0.0
H518 H 0.82394 0.54412 0.73105 0.0
H519 H 0.78315 0.51378 0.73994 0.0
H520 H 0.81383 0.5155 0.7779 0.0
H521 H 0.79389 0.63415 0.7583 0.0
H522 H 0.77385 0.63134 0.81284 0.0
H523 H 0.75319 0.60323 0.7661 0.0
C524 C 0.17453 0.78165 0.81558 0.0
C525 C 0.19831 0.78477 0.78425 0.0
C526 C 0.18075 0.78697 0.86358 0.0
C527 C 0.21162 0.79583 0.88069 0.0
C528 C 0.23582 0.79916 0.84926 0.0
C529 C 0.22879 0.79339 0.80134 0.0
C530 C 0.1542 0.78282 0.896 0.0
C531 C 0.26906 0.8088 0.86629 0.0
C532 C 0.23403 0.83732 0.99869 0.0
C533 C 0.22865 0.81201 0.02864 0.0
C534 C 0.22916 0.83254 0.95034 0.0
C535 C 0.21844 0.80161 0.93153 0.0
C536 C 0.2132 0.77599 0.96153 0.0
C537 C 0.21853 0.78156 0.00978 0.0
C538 C 0.2353 0.86054 0.91947 0.0
C539 C 0.20153 0.74263 0.94273 0.0
H540 H 0.15071 0.77426 0.80267 0.0
H541 H 0.24715 0.79586 0.77709 0.0
H542 H 0.14987 0.76455 0.92306 0.0
H543 H 0.16133 0.8057 0.91449 0.0
H544 H 0.13138 0.7753 0.87709 0.0
H545 H 0.28522 0.8106 0.83729 0.0
H546 H 0.27971 0.83234 0.88436 0.0
H547 H 0.26787 0.79104 0.89215 0.0
H548 H 0.24253 0.86106 0.01305 0.0
H549 H 0.21426 0.76199 0.03295 0.0
H550 H 0.21267 0.8557 0.90232 0.0
H551 H 0.25246 0.86368 0.8913 0.0
H552 H 0.24506 0.88337 0.93938 0.0
H553 H 0.17778 0.73344 0.92591 0.0
H554 H 0.19936 0.72554 0.97057 0.0
H555 H 0.21819 0.74324 0.91546 0.0
C556 C 0.39386 0.16768 0.99327 0.0
C557 C 0.41428 0.19342 0.96427 0.0
C558 C 0.39368 0.17151 0.04183 0.0
C559 C 0.41429 0.20191 0.06189 0.0
C560 C 0.43514 0.22797 0.03287 0.0
C561 C 0.43501 0.22334 0.98432 0.0
C562 C 0.37135 0.14303 0.0716 0.0
C563 C 0.45731 0.26078 0.05305 0.0
C564 C 0.39076 0.21963 0.17988 0.0
C565 C 0.41098 0.21512 0.21037 0.0
C566 C 0.39174 0.21559 0.1315 0.0
C567 C 0.41334 0.2066 0.11312 0.0
C568 C 0.43373 0.20184 0.14368 0.0
C569 C 0.43241 0.20635 0.19202 0.0
C570 C 0.36983 0.2212 0.10006 0.0
C571 C 0.45689 0.19201 0.1253 0.0
H572 H 0.37835 0.1443 0.97802 0.0
H573 H 0.45075 0.24319 0.96188 0.0
H574 H 0.38509 0.13884 0.09908 0.0
H575 H 0.35393 0.14802 0.08963 0.0
H576 H 0.35785 0.12071 0.05068 0.0
H577 H 0.4724 0.27835 0.02581 0.0
H578 H 0.44313 0.26998 0.07099 0.0
H579 H 0.47321 0.2592 0.07968 0.0
H580 H 0.37467 0.22714 0.19377 0.0
H581 H 0.44798 0.20282 0.21559 0.0
H582 H 0.35372 0.19891 0.08054 0.0
H583 H 0.38413 0.23999 0.07383 0.0
H584 H 0.35491 0.22876 0.11992 0.0
H585 H 0.44365 0.16897 0.10605 0.0
H586 H 0.47099 0.18916 0.15372 0.0
H587 H 0.47371 0.21023 0.10015 0.0
C588 C 0.23983 0.25437 0.86047 0.0
C589 C 0.25731 0.28012 0.89117 0.0
C590 C 0.25137 0.234 0.84691 0.0
C591 C 0.28114 0.2395 0.86445 0.0
C592 C 0.29831 0.26465 0.89685 0.0
C593 C 0.2862 0.28465 0.90981 0.0
C594 C 0.23222 0.20727 0.81259 0.0
C595 C 0.33016 0.2713 0.91636 0.0
C596 C 0.30528 0.17575 0.85208 0.0
C597 C 0.32576 0.18713 0.81317 0.0
C598 C 0.29012 0.19223 0.86884 0.0
C599 C 0.29557 0.22067 0.8461 0.0
C600 C 0.31559 0.23179 0.80617 0.0
C601 C 0.33042 0.2149 0.79022 0.0
C602 C 0.26888 0.17964 0.91148 0.0
C603 C 0.32194 0.26197 0.78082 0.0
H604 H 0.21721 0.25032 0.84664 0.0
H605 H 0.30003 0.30461 0.93318 0.0
H606 H 0.2456 0.21216 0.77917 0.0
H607 H 0.22869 0.18415 0.82629 0.0
H608 H 0.2084 0.20459 0.80513 0.0
H609 H 0.33921 0.29003 0.94403 0.0
H610 H 0.32813 0.24906 0.93121 0.0
H611 H 0.34812 0.27943 0.88777 0.0
H612 H 0.30165 0.15437 0.87011 0.0
H613 H 0.34613 0.22381 0.76006 0.0
H614 H 0.24494 0.17651 0.90375 0.0
H615 H 0.27935 0.19728 0.94043 0.0
H616 H 0.26579 0.15634 0.92368 0.0
H617 H 0.29902 0.25997 0.76947 0.0
H618 H 0.33744 0.26691 0.74958 0.0
H619 H 0.33377 0.28283 0.80485 0.0
C620 C 0.12421 0.34291 0.9654 0.0
C621 C 0.14573 0.33552 0.98732 0.0
C622 C 0.092 0.32798 0.97911 0.0
C623 C 0.08094 0.30505 0.01566 0.0
C624 C 0.10246 0.29729 0.0378 0.0
C625 C 0.13463 0.31262 0.02336 0.0
C626 C 0.06981 0.33693 0.95461 0.0
C627 C 0.09153 0.27298 0.07694 0.0
C628 C 0.00441 0.29033 0.07544 0.0
C629 C 0.98113 0.26289 0.05195 0.0
C630 C 0.03712 0.30368 0.06517 0.0
C631 C 0.0468 0.28932 0.03045 0.0
C632 C 0.02355 0.26107 0.00767 0.0
C633 C 0.99104 0.2482 0.01872 0.0
C634 C 0.06119 0.33381 0.09032 0.0
C635 C 0.03294 0.24493 0.97066 0.0
H636 H 0.13255 0.36057 0.93755 0.0
H637 H 0.15114 0.30687 0.04062 0.0
H638 H 0.04951 0.31529 0.93861 0.0
H639 H 0.05956 0.34657 0.98034 0.0
H640 H 0.08216 0.35516 0.92676 0.0
H641 H 0.11112 0.26928 0.09008 0.0
H642 H 0.08232 0.28097 0.1065 0.0
H643 H 0.07154 0.2496 0.06473 0.0
H644 H 0.99708 0.30207 0.10082 0.0
H645 H 0.97333 0.22666 0.00109 0.0
H646 H 0.07238 0.35401 0.06508 0.0
H647 H 0.08065 0.33064 0.10529 0.0
H648 H 0.05009 0.3405 0.11897 0.0
H649 H 0.04352 0.2612 0.94018 0.0
H650 H 0.01221 0.22205 0.95831 0.0
H651 H 0.05148 0.23991 0.98448 0.0
C652 C 0.82654 0.13087 0.1811 0.0
C653 C 0.81511 0.14105 0.14347 0.0
C654 C 0.80967 0.09892 0.19691 0.0
C655 C 0.78071 0.07668 0.17458 0.0
C656 C 0.76944 0.0867 0.13602 0.0
C657 C 0.78677 0.11869 0.12094 0.0
C658 C 0.82248 0.08909 0.23804 0.0
C659 C 0.73869 0.06374 0.1112 0.0
C660 C 0.74594 0.98659 0.1854 0.0
C661 C 0.72104 0.9782 0.21765 0.0
C662 C 0.7663 0.01868 0.17228 0.0
C663 C 0.76164 0.04305 0.19184 0.0
C664 C 0.73725 0.03491 0.22558 0.0
C665 C 0.71726 0.00261 0.23807 0.0
C666 C 0.79218 0.0264 0.13647 0.0
C667 C 0.73148 0.06018 0.24722 0.0
H668 H 0.84837 0.148 0.19881 0.0
H669 H 0.77775 0.12629 0.09181 0.0
H670 H 0.80525 0.08151 0.26755 0.0
H671 H 0.82513 0.06821 0.22851 0.0
H672 H 0.84602 0.10886 0.25025 0.0
H673 H 0.73356 0.07515 0.08118 0.0
H674 H 0.73995 0.04271 0.09811 0.0
H675 H 0.71833 0.05461 0.13608 0.0
H676 H 0.74941 0.96798 0.17012 0.0
H677 H 0.69794 0.99641 0.26264 0.0
H678 H 0.81569 0.04539 0.14992 0.0
H679 H 0.78703 0.03583 0.10419 0.0
H680 H 0.79413 0.00505 0.12707 0.0
H681 H 0.75406 0.0799 0.26202 0.0
H682 H 0.71315 0.05027 0.2754 0.0
H683 H 0.72329 0.07082 0.21987 0.0
C684 C 0.75702 0.74552 0.35824 0.0
C685 C 0.74009 0.7193 0.38843 0.0
C686 C 0.74502 0.76579 0.34626 0.0
C687 C 0.71535 0.75979 0.36497 0.0
C688 C 0.69869 0.7341 0.39679 0.0
C689 C 0.71122 0.71416 0.40807 0.0
C690 C 0.76362 0.79306 0.31246 0.0
C691 C 0.66699 0.72691 0.41756 0.0
C692 C 0.69146 0.82401 0.35668 0.0
C693 C 0.67094 0.81345 0.31777 0.0
C694 C 0.70633 0.80696 0.37236 0.0
C695 C 0.70057 0.77877 0.34849 0.0
C696 C 0.68026 0.76832 0.30882 0.0
C697 C 0.66571 0.78575 0.294 0.0
C698 C 0.72779 0.81881 0.41484 0.0
C699 C 0.67353 0.73843 0.28232 0.0
H700 H 0.77964 0.7501 0.34364 0.0
H701 H 0.69777 0.69387 0.43106 0.0
H702 H 0.74973 0.7887 0.27965 0.0
H703 H 0.76737 0.81594 0.32747 0.0
H704 H 0.78732 0.79589 0.30359 0.0
H705 H 0.65838 0.70781 0.44465 0.0
H706 H 0.669 0.74886 0.43352 0.0
H707 H 0.64869 0.71905 0.38947 0.0
H708 H 0.6955 0.8453 0.37539 0.0
H709 H 0.64995 0.77742 0.26386 0.0
H710 H 0.75179 0.82244 0.40613 0.0
H711 H 0.7177 0.80051 0.44302 0.0
H712 H 0.73067 0.8417 0.42853 0.0
H713 H 0.69629 0.74064 0.26966 0.0
H714 H 0.65751 0.73378 0.2518 0.0
H715 H 0.66216 0.71731 0.30594 0.0
C716 C 0.99739 0.7254 0.57921 0.0
C717 C 0.02042 0.74095 0.54391 0.0
C718 C 0.96447 0.71098 0.56959 0.0
C719 C 0.95422 0.71255 0.52373 0.0
C720 C 0.97721 0.72902 0.48834 0.0
C721 C 0.0099 0.74272 0.49871 0.0
C722 C 0.94065 0.69336 0.60823 0.0
C723 C 0.96727 0.73152 0.43907 0.0
C724 C 0.87261 0.64826 0.4805 0.0
C725 C 0.85451 0.6636 0.48436 0.0
C726 C 0.9048 0.66365 0.49442 0.0
C727 C 0.91949 0.69541 0.51184 0.0
C728 C 0.90134 0.71104 0.516 0.0
C729 C 0.86892 0.6948 0.50261 0.0
C730 C 0.92315 0.64594 0.49017 0.0
C731 C 0.91632 0.74508 0.5337 0.0
H732 H 0.00493 0.72428 0.61448 0.0
H733 H 0.02709 0.75422 0.47083 0.0
H734 H 0.92395 0.70275 0.61202 0.0
H735 H 0.92602 0.66754 0.59917 0.0
H736 H 0.95249 0.69551 0.64248 0.0
H737 H 0.98807 0.74725 0.41652 0.0
H738 H 0.95429 0.70732 0.42296 0.0
H739 H 0.95061 0.74112 0.4396 0.0
H740 H 0.86151 0.62399 0.46698 0.0
H741 H 0.85501 0.70675 0.50567 0.0
H742 H 0.93382 0.64565 0.52445 0.0
H743 H 0.94315 0.65852 0.46497 0.0
H744 H 0.90779 0.62079 0.47816 0.0
H745 H 0.92691 0.74702 0.56884 0.0
H746 H 0.89876 0.75354 0.53594 0.0
H747 H 0.93608 0.76136 0.51002 0.0
C748 C 0.25848 0.01789 0.67781 0.0
C749 C 0.28252 0.02597 0.71148 0.0
C750 C 0.23808 0.98587 0.66451 0.0
C751 C 0.2418 0.96127 0.68536 0.0
C752 C 0.26528 0.9691 0.72053 0.0
C753 C 0.28534 0.00135 0.73317 0.0
C754 C 0.21317 0.97847 0.62716 0.0
C755 C 0.27002 0.94355 0.74357 0.0
C756 C 0.17612 0.87393 0.67308 0.0
C757 C 0.18813 0.86347 0.6366 0.0
C758 C 0.1931 0.90582 0.68905 0.0
C759 C 0.22275 0.92768 0.66804 0.0
C760 C 0.23465 0.91738 0.63065 0.0
C761 C 0.2172 0.88545 0.61538 0.0
C762 C 0.17961 0.91599 0.7289 0.0
C763 C 0.26616 0.93996 0.60726 0.0
H764 H 0.25573 0.03669 0.66156 0.0
H765 H 0.30399 0.00734 0.75889 0.0
H766 H 0.21891 0.96884 0.59565 0.0
H767 H 0.18923 0.95974 0.63964 0.0
H768 H 0.21185 1.00002 0.6168 0.0
H769 H 0.28764 0.95327 0.77267 0.0
H770 H 0.24694 0.92407 0.75748 0.0
H771 H 0.27861 0.93264 0.71725 0.0
H772 H 0.15372 0.85707 0.68977 0.0
H773 H 0.22667 0.87762 0.58714 0.0
H774 H 0.17755 0.93707 0.71841 0.0
H775 H 0.19612 0.9234 0.75929 0.0
H776 H 0.15567 0.89646 0.74021 0.0
H777 H 0.26563 0.96117 0.59324 0.0
H778 H 0.2718 0.92832 0.57812 0.0
H779 H 0.28585 0.94883 0.63329 0.0
C780 C 0.82252 0.68822 0.96877 0.0
C781 C 0.81228 0.66798 0.00803 0.0
C782 C 0.80559 0.70326 0.9534 0.0
C783 C 0.77792 0.69804 0.97804 0.0
C784 C 0.76767 0.67785 0.01791 0.0
C785 C 0.78492 0.66303 0.03233 0.0
C786 C 0.81712 0.72448 0.91059 0.0
C787 C 0.73835 0.67177 0.04526 0.0
C788 C 0.74728 0.75673 0.96986 0.0
C789 C 0.72065 0.74036 0.94031 0.0
C790 C 0.76675 0.74372 0.98123 0.0
C791 C 0.75951 0.71362 0.9625 0.0
C792 C 0.73338 0.69747 0.93132 0.0
C793 C 0.71423 0.711 0.92068 0.0
C794 C 0.79453 0.76178 0.01437 0.0
C795 C 0.72494 0.66535 0.9105 0.0
H796 H 0.84352 0.69198 0.94961 0.0
H797 H 0.77686 0.64746 0.06273 0.0
H798 H 0.79824 0.71482 0.88326 0.0
H799 H 0.82188 0.74891 0.91947 0.0
H800 H 0.83929 0.7264 0.8957 0.0
H801 H 0.73367 0.65557 0.07561 0.0
H802 H 0.74131 0.6948 0.05831 0.0
H803 H 0.717 0.66086 0.02213 0.0
H804 H 0.75283 0.7797 0.98443 0.0
H805 H 0.69361 0.69799 0.89816 0.0
H806 H 0.81693 0.76496 0.99852 0.0
H807 H 0.79028 0.74772 0.04703 0.0
H808 H 0.79812 0.78577 0.02366 0.0
H809 H 0.74629 0.66659 0.89382 0.0
H810 H 0.70555 0.65718 0.88399 0.0
H811 H 0.71698 0.64707 0.93867 0.0
C812 C 0.0044 0.73078 0.07143 0.0
C813 C 0.98047 0.72303 0.10528 0.0
C814 C 0.03703 0.74988 0.08268 0.0
C815 C 0.04602 0.76195 0.12872 0.0
C816 C 0.02207 0.7553 0.16255 0.0
C817 C 0.98971 0.73578 0.15056 0.0
C818 C 0.06187 0.75625 0.04567 0.0
C819 C 0.03064 0.76793 0.21197 0.0
C820 C 0.12598 0.7785 0.17754 0.0
C821 C 0.1446 0.81199 0.17391 0.0
C822 C 0.09418 0.76196 0.16187 0.0
C823 C 0.08037 0.77936 0.14278 0.0
C824 C 0.09901 0.81321 0.1389 0.0
C825 C 0.13106 0.82914 0.15415 0.0
C826 C 0.07531 0.72582 0.16601 0.0
C827 C 0.08494 0.8326 0.11939 0.0
H828 H 0.99777 0.72176 0.03611 0.0
H829 H 0.97176 0.72989 0.17733 0.0
H830 H 0.07896 0.78238 0.04267 0.0
H831 H 0.07589 0.74467 0.05593 0.0
H832 H 0.05099 0.74695 0.01077 0.0
H833 H 0.00925 0.76309 0.23285 0.0
H834 H 0.04283 0.75653 0.22982 0.0
H835 H 0.04757 0.79419 0.2116 0.0
H836 H 0.13638 0.76502 0.19225 0.0
H837 H 0.14536 0.85503 0.15125 0.0
H838 H 0.0656 0.71493 0.13131 0.0
H839 H 0.0546 0.71853 0.18978 0.0
H840 H 0.09002 0.71578 0.17971 0.0
H841 H 0.07534 0.82408 0.08373 0.0
H842 H 0.1028 0.85864 0.11767 0.0
H843 H 0.06459 0.82921 0.14157 0.0
C844 C 0.28529 1.00007 0.2679 0.0
C845 C 0.25694 0.97497 0.28687 0.0
C846 C 0.29679 0.03203 0.28147 0.0
C847 C 0.27949 0.03914 0.31478 0.0
C848 C 0.25037 0.01406 0.33304 0.0
C849 C 0.2395 0.98229 0.31895 0.0
C850 C 0.32803 0.05807 0.26131 0.0
C851 C 0.23109 0.02069 0.36829 0.0
C852 C 0.32798 0.11468 0.38679 0.0
C853 C 0.32213 0.13689 0.3635 0.0
C854 C 0.31372 0.08268 0.37184 0.0
C855 C 0.29298 0.07253 0.33264 0.0
C856 C 0.28619 0.09455 0.30977 0.0
C857 C 0.30087 0.12651 0.32545 0.0
C858 C 0.32157 0.05996 0.39725 0.0
C859 C 0.26409 0.08457 0.26799 0.0
H860 H 0.29911 0.99465 0.24353 0.0
H861 H 0.21731 0.96311 0.33316 0.0
H862 H 0.32481 0.07747 0.24608 0.0
H863 H 0.34613 0.06894 0.28959 0.0
H864 H 0.33758 0.04885 0.23377 0.0
H865 H 0.20796 0.99886 0.37681 0.0
H866 H 0.24506 0.03009 0.40109 0.0
H867 H 0.22615 0.03938 0.35477 0.0
H868 H 0.34429 0.12242 0.4163 0.0
H869 H 0.29625 0.14352 0.30718 0.0
H870 H 0.3338 0.05153 0.37305 0.0
H871 H 0.29924 0.03848 0.40923 0.0
H872 H 0.33727 0.07133 0.42808 0.0
H873 H 0.27464 0.07788 0.23863 0.0
H874 H 0.25971 0.10398 0.25593 0.0
H875 H 0.24076 0.06309 0.27665 0.0
C876 C 0.28447 0.28822 0.42864 0.0
C877 C 0.28098 0.26149 0.45352 0.0
C878 C 0.26537 0.30186 0.43897 0.0
C879 C 0.24229 0.28855 0.47517 0.0
C880 C 0.23798 0.26104 0.49945 0.0
C881 C 0.25731 0.24784 0.48828 0.0
C882 C 0.27065 0.33117 0.41219 0.0
C883 C 0.21351 0.24602 0.5381 0.0
C884 C 0.21957 0.34356 0.53859 0.0
C885 C 0.19001 0.33531 0.51808 0.0
C886 C 0.23677 0.32854 0.52485 0.0
C887 C 0.22411 0.30459 0.48974 0.0
C888 C 0.19419 0.29597 0.46901 0.0
C889 C 0.17749 0.31146 0.48341 0.0
C890 C 0.26861 0.33844 0.54779 0.0
C891 C 0.17994 0.27054 0.43149 0.0
H892 H 0.30282 0.29919 0.40204 0.0
H893 H 0.25396 0.22683 0.50704 0.0
H894 H 0.24762 0.32751 0.39813 0.0
H895 H 0.28027 0.35212 0.43612 0.0
H896 H 0.28768 0.33703 0.38265 0.0
H897 H 0.21185 0.22363 0.55176 0.0
H898 H 0.21993 0.26325 0.56748 0.0
H899 H 0.18954 0.24043 0.52532 0.0
H900 H 0.22949 0.36198 0.56534 0.0
H901 H 0.15472 0.30503 0.46723 0.0
H902 H 0.28778 0.34736 0.52092 0.0
H903 H 0.26788 0.3174 0.56493 0.0
H904 H 0.27514 0.35752 0.57446 0.0
H905 H 0.19644 0.27768 0.40111 0.0
H906 H 0.15632 0.2664 0.41916 0.0
H907 H 0.17691 0.24757 0.44496 0.0
C908 C 0.99799 0.28721 0.5944 0.0
C909 C 0.02188 0.28174 0.61248 0.0
C910 C 0.96572 0.26747 0.60691 0.0
C911 C 0.9571 0.24162 0.63829 0.0
C912 C 0.98092 0.23529 0.65537 0.0
C913 C 0.01298 0.25541 0.64226 0.0
C914 C 0.94101 0.27502 0.58791 0.0
C915 C 0.97267 0.20782 0.6886 0.0
C916 C 0.88245 0.21561 0.71159 0.0
C917 C 0.85956 0.18827 0.68757 0.0
C918 C 0.91432 0.23287 0.69621 0.0
C919 C 0.92358 0.22263 0.65571 0.0
C920 C 0.90077 0.1947 0.63174 0.0
C921 C 0.869 0.1778 0.648 0.0
C922 C 0.93796 0.26245 0.72289 0.0
C923 C 0.90976 0.18307 0.58841 0.0
H924 H 0.00461 0.30762 0.57173 0.0
H925 H 0.03118 0.25063 0.65565 0.0
H926 H 0.92083 0.25329 0.57192 0.0
H927 H 0.93102 0.28259 0.61696 0.0
H928 H 0.9512 0.29443 0.56125 0.0
H929 H 0.9936 0.20483 0.69625 0.0
H930 H 0.96371 0.21206 0.72206 0.0
H931 H 0.95322 0.18506 0.67375 0.0
H932 H 0.8754 0.22383 0.74224 0.0
H933 H 0.85143 0.15679 0.6291 0.0
H934 H 0.9474 0.28381 0.6998 0.0
H935 H 0.95865 0.26004 0.73424 0.0
H936 H 0.92708 0.26681 0.75429 0.0
H937 H 0.91762 0.20153 0.56052 0.0
H938 H 0.88952 0.16028 0.57482 0.0
H939 H 0.9302 0.17932 0.59602 0.0
C940 C 0.71178 0.99925 0.76063 0.0
C941 C 0.73975 0.02306 0.78235 0.0
C942 C 0.69895 0.96669 0.77193 0.0
C943 C 0.71445 0.95772 0.80579 0.0
C944 C 0.74324 0.98149 0.82668 0.0
C945 C 0.75552 0.01384 0.81472 0.0
C946 C 0.66818 0.94203 0.74887 0.0
C947 C 0.76063 0.97285 0.86263 0.0
C948 C 0.66324 0.88109 0.87421 0.0
C949 C 0.6699 0.85923 0.85162 0.0
C950 C 0.67771 0.91319 0.85971 0.0
C951 C 0.69943 0.92377 0.82168 0.0
C952 C 0.70658 0.90196 0.799 0.0
C953 C 0.69171 0.86991 0.81424 0.0
C954 C 0.66946 0.93571 0.88482 0.0
C955 C 0.72963 0.9124 0.75834 0.0
H956 H 0.69925 0.00611 0.73592 0.0
H957 H 0.77745 0.032 0.83096 0.0
H958 H 0.67106 0.92245 0.73359 0.0
H959 H 0.64888 0.93104 0.77549 0.0
H960 H 0.66041 0.95261 0.72079 0.0
H961 H 0.78378 0.9939 0.87336 0.0
H962 H 0.74541 0.96274 0.8942 0.0
H963 H 0.76531 0.95411 0.84859 0.0
H964 H 0.64642 0.87307 0.9031 0.0
H965 H 0.69688 0.85314 0.79645 0.0
H966 H 0.65887 0.94545 0.8598 0.0
H967 H 0.6915 0.95639 0.89925 0.0
H968 H 0.65224 0.92374 0.91394 0.0
H969 H 0.72055 0.92085 0.72918 0.0
H970 H 0.73323 0.89271 0.74524 0.0
H971 H 0.75319 0.93285 0.7689 0.0
C972 C 0.29774 0.35975 0.13796 0.0
C973 C 0.27875 0.3455 0.09828 0.0
C974 C 0.30671 0.34238 0.16748 0.0
C975 C 0.2963 0.30985 0.15727 0.0
C976 C 0.27578 0.2948 0.11862 0.0
C977 C 0.26725 0.31285 0.08946 0.0
C978 C 0.32859 0.35936 0.2084 0.0
C979 C 0.26396 0.26006 0.10697 0.0
C980 C 0.35466 0.28533 0.20178 0.0
C981 C 0.34127 0.27169 0.24524 0.0
C982 C 0.33912 0.29593 0.17135 0.0
C983 C 0.3095 0.29292 0.1848 0.0
C984 C 0.29483 0.27725 0.22726 0.0
C985 C 0.31088 0.26669 0.257 0.0
C986 C 0.35547 0.31221 0.12618 0.0
C987 C 0.26313 0.27334 0.24259 0.0
H988 H 0.30642 0.38486 0.14541 0.0
H989 H 0.2524 0.30161 0.05901 0.0
H990 H 0.31824 0.34569 0.24118 0.0
H991 H 0.35202 0.36075 0.20281 0.0
H992 H 0.33288 0.38411 0.21321 0.0
H993 H 0.24511 0.25089 0.07953 0.0
H994 H 0.28424 0.25741 0.09425 0.0
H995 H 0.25425 0.2449 0.1387 0.0
H996 H 0.37786 0.28867 0.19205 0.0
H997 H 0.30025 0.25583 0.29032 0.0
H998 H 0.36365 0.33821 0.12847 0.0
H999 H 0.33852 0.3023 0.0964 0.0
H1000 H 0.37655 0.30947 0.11852 0.0
H1001 H 0.26654 0.297 0.25332 0.0
H1002 H 0.25272 0.25654 0.27261 0.0
H1003 H 0.24573 0.26445 0.21324 0.0
C1004 C 0.95552 0.26853 0.24806 0.0
C1005 C 0.93215 0.27691 0.25786 0.0
C1006 C 0.98203 0.27825 0.27777 0.0
C1007 C 0.98509 0.29668 0.31808 0.0
C1008 C 0.96057 0.3035 0.32951 0.0
C1009 C 0.93442 0.29351 0.2993 0.0
C1010 C 0.00752 0.2702 0.26472 0.0
C1011 C 0.9628 0.32296 0.37229 0.0
C1012 C 0.04528 0.31467 0.4157 0.0
C1013 C 0.06874 0.34627 0.4047 0.0
C1014 C 0.01854 0.29737 0.38651 0.0
C1015 C 0.01534 0.31209 0.34553 0.0
C1016 C 0.03988 0.34329 0.33302 0.0
C1017 C 0.06625 0.35995 0.36271 0.0
C1018 C 0.99301 0.26402 0.40071 0.0
C1019 C 0.0375 0.35983 0.2895 0.0
H1020 H 0.95377 0.25541 0.21633 0.0
H1021 H 0.91615 0.29956 0.30757 0.0
H1022 H 0.0292 0.29221 0.25236 0.0
H1023 H 0.01457 0.26122 0.29566 0.0
H1024 H 0.99942 0.2519 0.2365 0.0
H1025 H 0.94046 0.32375 0.37838 0.0
H1026 H 0.96789 0.31287 0.40388 0.0
H1027 H 0.98291 0.34792 0.36798 0.0
H1028 H 0.04715 0.30386 0.44795 0.0
H1029 H 0.08453 0.38418 0.35359 0.0
H1030 H 0.98604 0.24737 0.3705 0.0
H1031 H 0.97128 0.26448 0.41222 0.0
H1032 H 0.00101 0.2544 0.42982 0.0
H1033 H 0.03256 0.34422 0.25844 0.0
H1034 H 0.05972 0.38307 0.28293 0.0
H1035 H 0.01724 0.36443 0.29316 0.0
C1036 C 0.68725 0.95733 0.41619 0.0
C1037 C 0.65471 0.93544 0.42419 0.0
C1038 C 0.70439 0.98393 0.44576 0.0
C1039 C 0.68856 0.9886 0.48408 0.0
C1040 C 0.65612 0.96581 0.49338 0.0
C1041 C 0.63963 0.93955 0.46337 0.0
C1042 C 0.73901 0.00764 0.43496 0.0
C1043 C 0.63835 0.96984 0.53397 0.0
C1044 C 0.73004 0.04568 0.58523 0.0
C1045 C 0.72462 0.07089 0.57384 0.0
C1046 C 0.72009 0.01934 0.555 0.0
C1047 C 0.70465 0.01848 0.5124 0.0
C1048 C 0.70116 0.04494 0.49941 0.0
C1049 C 0.7111 0.07076 0.53036 0.0
C1050 C 0.72442 0.99167 0.5699 0.0
C1051 C 0.68515 0.04518 0.45408 0.0
H1052 H 0.69911 0.95422 0.38611 0.0
H1053 H 0.61461 0.92254 0.47016 0.0
H1054 H 0.74126 0.03062 0.42307 0.0
H1055 H 0.7539 0.01286 0.4669 0.0
H1056 H 0.74878 0.99878 0.40721 0.0
H1057 H 0.6138 0.94895 0.53805 0.0
H1058 H 0.65168 0.97311 0.56706 0.0
H1059 H 0.6365 0.99168 0.52859 0.0
H1060 H 0.74076 0.0458 0.61862 0.0
H1061 H 0.70742 0.0905 0.52095 0.0
H1062 H 0.73412 0.98396 0.54063 0.0
H1063 H 0.70083 0.97088 0.57952 0.0
H1064 H 0.7407 0.99789 0.60049 0.0
H1065 H 0.69552 0.03868 0.42429 0.0
H1066 H 0.68755 0.06896 0.44682 0.0
H1067 H 0.65928 0.02699 0.45582 0.0
C1068 C 0.70576 0.64163 0.63482 0.0
C1069 C 0.72324 0.65525 0.59373 0.0
C1070 C 0.69626 0.65884 0.6637 0.0
C1071 C 0.70455 0.69055 0.65131 0.0
C1072 C 0.7238 0.70515 0.61137 0.0
C1073 C 0.73293 0.68728 0.58293 0.0
C1074 C 0.67581 0.6424 0.7061 0.0
C1075 C 0.7334 0.73903 0.59738 0.0
C1076 C 0.64312 0.71154 0.6935 0.0
C1077 C 0.6566 0.72719 0.73586 0.0
C1078 C 0.65943 0.7012 0.66422 0.0
C1079 C 0.69003 0.70671 0.67759 0.0
C1080 C 0.70469 0.72433 0.71879 0.0
C1081 C 0.68777 0.73442 0.74752 0.0
C1082 C 0.643 0.68264 0.62042 0.0
C1083 C 0.73744 0.73097 0.73388 0.0
H1084 H 0.69856 0.61705 0.64379 0.0
H1085 H 0.74667 0.69806 0.55141 0.0
H1086 H 0.6861 0.65752 0.73769 0.0
H1087 H 0.65148 0.63894 0.70088 0.0
H1088 H 0.6735 0.61859 0.71278 0.0
H1089 H 0.7521 0.74843 0.56971 0.0
H1090 H 0.71215 0.73965 0.5839 0.0
H1091 H 0.74246 0.75527 0.62812 0.0
H1092 H 0.61926 0.70634 0.68385 0.0
H1093 H 0.69848 0.74679 0.78 0.0
H1094 H 0.63701 0.6573 0.62452 0.0
H1095 H 0.65918 0.69265 0.5898 0.0
H1096 H 0.62057 0.68294 0.61284 0.0
H1097 H 0.73583 0.70841 0.74648 0.0
H1098 H 0.74743 0.74896 0.76252 0.0
H1099 H 0.75433 0.73971 0.7039 0.0
C1100 C 0.06992 0.71597 0.79481 0.0
C1101 C 0.07046 0.72967 0.75129 0.0
C1102 C 0.04375 0.70566 0.82506 0.0
C1103 C 0.01745 0.70916 0.81145 0.0
C1104 C 0.01874 0.72488 0.7689 0.0
C1105 C 0.04533 0.73501 0.73923 0.0
C1106 C 0.04341 0.68911 0.87018 0.0
C1107 C 0.99133 0.72939 0.7535 0.0
C1108 C 0.93849 0.64302 0.8582 0.0
C1109 C 0.93427 0.65725 0.89831 0.0
C1110 C 0.96474 0.66021 0.82851 0.0
C1111 C 0.98727 0.6926 0.83892 0.0
C1112 C 0.9823 0.7077 0.87795 0.0
C1113 C 0.95584 0.68978 0.90737 0.0
C1114 C 0.9692 0.64314 0.78732 0.0
C1115 C 0.00562 0.7423 0.88983 0.0
H1116 H 0.08957 0.71234 0.80471 0.0
H1117 H 0.04573 0.74581 0.70575 0.0
H1118 H 0.03697 0.69947 0.90005 0.0
H1119 H 0.02497 0.66329 0.86799 0.0
H1120 H 0.06692 0.69106 0.87767 0.0
H1121 H 0.99791 0.74599 0.72319 0.0
H1122 H 0.97067 0.70588 0.74319 0.0
H1123 H 0.98332 0.73885 0.78274 0.0
H1124 H 0.92173 0.61801 0.85059 0.0
H1125 H 0.95264 0.701 0.9382 0.0
H1126 H 0.99104 0.64135 0.79264 0.0
H1127 H 0.97264 0.65696 0.75466 0.0
H1128 H 0.94848 0.61855 0.78243 0.0
H1129 H 0.02811 0.7444 0.90351 0.0
H1130 H 0.99589 0.75178 0.91672 0.0
H1131 H 0.01184 0.75754 0.85806 0.0
C1132 C 0.29864 0.93871 0.03431 0.0
C1133 C 0.28255 0.93691 0.07604 0.0
C1134 C 0.30767 0.96422 0.00307 0.0
C1135 C 0.30055 0.98865 0.01387 0.0
C1136 C 0.28284 0.98616 0.05477 0.0
C1137 C 0.27395 0.96018 0.08544 0.0
C1138 C 0.3263 0.96581 0.95966 0.0
C1139 C 0.2746 0.01163 0.0672 0.0
C1140 C 0.36173 0.06898 0.96389 0.0
C1141 C 0.34696 0.07003 0.92219 0.0
C1142 C 0.34607 0.04344 0.99531 0.0
C1143 C 0.31482 0.01824 0.98483 0.0
C1144 C 0.29902 0.02 0.94409 0.0
C1145 C 0.31531 0.04597 0.91316 0.0
C1146 C 0.36374 0.04262 0.0385 0.0
C1147 C 0.26556 0.99374 0.93205 0.0
H1148 H 0.30481 0.92044 0.0264 0.0
H1149 H 0.2613 0.95876 0.1175 0.0
H1150 H 0.31525 0.96976 0.9282 0.0
H1151 H 0.3511 0.98641 0.96241 0.0
H1152 H 0.32752 0.94358 0.95442 0.0
H1153 H 0.25736 0.00417 0.09676 0.0
H1154 H 0.29671 0.03402 0.07728 0.0
H1155 H 0.26424 0.01733 0.03651 0.0
H1156 H 0.38597 0.08783 0.97156 0.0
H1157 H 0.30366 0.0468 0.88119 0.0
H1158 H 0.36892 0.02268 0.03551 0.0
H1159 H 0.34873 0.03806 0.07012 0.0
H1160 H 0.38674 0.06537 0.04361 0.0
H1161 H 0.26608 0.97182 0.92155 0.0
H1162 H 0.25508 0.00073 0.90287 0.0
H1163 H 0.24964 0.98743 0.96301 0.0
C1164 C 0.5288 0.59568 0.90906 0.0
C1165 C 0.52679 0.62379 0.91062 0.0
C1166 C 0.50124 0.56522 0.91263 0.0
C1167 C 0.47098 0.56279 0.91874 0.0
C1168 C 0.46884 0.591 0.92152 0.0
C1169 C 0.49665 0.62106 0.91699 0.0
C1170 C 0.5044 0.53565 0.90917 0.0
C1171 C 0.43706 0.58944 0.92861 0.0
C1172 C 0.3932 0.4878 0.88568 0.0
C1173 C 0.38188 0.4735 0.92951 0.0
C1174 C 0.42291 0.51618 0.88138 0.0
C1175 C 0.44137 0.53083 0.92199 0.0
C1176 C 0.43039 0.51601 0.96616 0.0
C1177 C 0.40087 0.48742 0.96933 0.0
C1178 C 0.43408 0.53099 0.83357 0.0
C1179 C 0.44909 0.53112 0.01037 0.0
H1180 H 0.55193 0.59742 0.90487 0.0
H1181 H 0.49457 0.64244 0.91726 0.0
H1182 H 0.49481 0.52088 0.94126 0.0
H1183 H 0.49002 0.52065 0.87925 0.0
H1184 H 0.52965 0.54162 0.90435 0.0
H1185 H 0.43968 0.61362 0.93209 0.0
H1186 H 0.42101 0.577 0.89857 0.0
H1187 H 0.42513 0.57535 0.96053 0.0
H1188 H 0.37865 0.47694 0.85483 0.0
H1189 H 0.39197 0.47665 0.00337 0.0
H1190 H 0.45886 0.53604 0.82707 0.0
H1191 H 0.43452 0.55422 0.83189 0.0
H1192 H 0.41831 0.51524 0.80516 0.0
H1193 H 0.47415 0.53642 0.00659 0.0
H1194 H 0.43831 0.51551 0.04149 0.0
H1195 H 0.44996 0.55429 0.01674 0.0
C1196 C 0.92934 0.40425 0.08704 0.0
C1197 C 0.89911 0.37633 0.0898 0.0
C1198 C 0.93233 0.43476 0.08379 0.0
C1199 C 0.90444 0.43745 0.08222 0.0
C1200 C 0.8739 0.40943 0.0841 0.0
C1201 C 0.87162 0.37933 0.08839 0.0
C1202 C 0.96532 0.46414 0.08236 0.0
C1203 C 0.84355 0.41122 0.0818 0.0
C1204 C 0.90597 0.51492 0.11383 0.0
C1205 C 0.90668 0.52771 0.0695 0.0
C1206 C 0.90649 0.48613 0.1186 0.0
C1207 C 0.907 0.46947 0.07802 0.0
C1208 C 0.90818 0.48257 0.03322 0.0
C1209 C 0.90828 0.51167 0.02954 0.0
C1210 C 0.90584 0.47322 0.16699 0.0
C1211 C 0.90807 0.46525 0.98909 0.0
H1212 H 0.95078 0.40235 0.08733 0.0
H1213 H 0.84814 0.35815 0.09153 0.0
H1214 H 0.96859 0.4774 0.04917 0.0
H1215 H 0.968 0.48062 0.11139 0.0
H1216 H 0.98462 0.45804 0.08526 0.0
H1217 H 0.82166 0.38711 0.0821 0.0
H1218 H 0.84248 0.42514 0.11198 0.0
H1219 H 0.84342 0.42398 0.04951 0.0
H1220 H 0.90488 0.5274 0.14473 0.0
H1221 H 0.90836 0.52129 0.99519 0.0
H1222 H 0.92569 0.46803 0.17097 0.0
H1223 H 0.8831 0.45029 0.17216 0.0
H1224 H 0.90796 0.49023 0.1949 0.0
H1225 H 0.92797 0.46001 0.98978 0.0
H1226 H 0.91038 0.47933 0.95703 0.0
H1227 H 0.8854 0.4419 0.9869 0.0
C1228 C 0.49846 0.88122 0.28702 0.0
C1229 C 0.5249 0.90079 0.25889 0.0
C1230 C 0.47022 0.88268 0.28406 0.0
C1231 C 0.46824 0.90377 0.25143 0.0
C1232 C 0.49512 0.92383 0.22316 0.0
C1233 C 0.52337 0.92232 0.2276 0.0
C1234 C 0.44234 0.86129 0.31537 0.0
C1235 C 0.49371 0.94617 0.1874 0.0
C1236 C 0.3838 0.87839 0.21192 0.0
C1237 C 0.37708 0.89894 0.23793 0.0
C1238 C 0.41382 0.88056 0.21475 0.0
C1239 C 0.43739 0.90332 0.24526 0.0
C1240 C 0.43072 0.92429 0.27148 0.0
C1241 C 0.40066 0.92212 0.26701 0.0
C1242 C 0.42016 0.8582 0.1855 0.0
C1243 C 0.45497 0.94836 0.30513 0.0
H1244 H 0.49997 0.86477 0.31143 0.0
H1245 H 0.54401 0.9374 0.20597 0.0
H1246 H 0.43406 0.87578 0.3347 0.0
H1247 H 0.42196 0.84363 0.29383 0.0
H1248 H 0.44857 0.84796 0.34109 0.0
H1249 H 0.51701 0.96097 0.16935 0.0
H1250 H 0.4752 0.932 0.16077 0.0
H1251 H 0.48663 0.96239 0.20438 0.0
H1252 H 0.36552 0.86072 0.18906 0.0
H1253 H 0.39527 0.93795 0.28704 0.0
H1254 H 0.42381 0.8418 0.20863 0.0
H1255 H 0.44241 0.87215 0.16478 0.0
H1256 H 0.40013 0.84349 0.16113 0.0
H1257 H 0.4602 0.93558 0.33301 0.0
H1258 H 0.44645 0.96357 0.3218 0.0
H1259 H 0.47782 0.96413 0.28671 0.0
C1260 C 0.50595 0.37571 0.4109 0.0
C1261 C 0.47543 0.37266 0.40977 0.0
C1262 C 0.53377 0.40586 0.41464 0.0
C1263 C 0.53121 0.43387 0.41623 0.0
C1264 C 0.50062 0.43112 0.41493 0.0
C1265 C 0.4731 0.40057 0.41224 0.0
C1266 C 0.56596 0.40773 0.41664 0.0
C1267 C 0.49697 0.46048 0.41604 0.0
C1268 C 0.60197 0.50855 0.46726 0.0
C1269 C 0.61933 0.52423 0.42692 0.0
C1270 C 0.57293 0.47944 0.46425 0.0
C1271 C 0.56069 0.46595 0.41974 0.0
C1272 C 0.57755 0.48229 0.37878 0.0
C1273 C 0.60691 0.51109 0.38288 0.0
C1274 C 0.55606 0.46247 0.50877 0.0
C1275 C 0.56493 0.46898 0.33068 0.0
H1276 H 0.50825 0.35453 0.40799 0.0
H1277 H 0.44974 0.39864 0.41219 0.0
H1278 H 0.58071 0.42141 0.38614 0.0
H1279 H 0.57906 0.42076 0.44864 0.0
H1280 H 0.56376 0.38363 0.4167 0.0
H1281 H 0.47153 0.45433 0.41346 0.0
H1282 H 0.50718 0.474 0.44896 0.0
H1283 H 0.51053 0.47674 0.38667 0.0
H1284 H 0.61178 0.51846 0.50138 0.0
H1285 H 0.62027 0.52329 0.35169 0.0
H1286 H 0.55547 0.43918 0.51133 0.0
H1287 H 0.53087 0.45714 0.50834 0.0
H1288 H 0.56801 0.47684 0.54052 0.0
H1289 H 0.56481 0.44607 0.32577 0.0
H1290 H 0.57958 0.48581 0.30241 0.0
H1291 H 0.53984 0.46367 0.32704 0.0
C1292 C 0.07248 0.60004 0.58293 0.0
C1293 C 0.10266 0.62809 0.58428 0.0
C1294 C 0.06962 0.56956 0.58059 0.0
C1295 C 0.09758 0.56703 0.57859 0.0
C1296 C 0.12806 0.59518 0.57885 0.0
C1297 C 0.13023 0.62527 0.58215 0.0
C1298 C 0.03669 0.54006 0.58079 0.0
C1299 C 0.15847 0.59351 0.57611 0.0
C1300 C 0.0969 0.49058 0.61416 0.0
C1301 C 0.09557 0.47669 0.57053 0.0
C1302 C 0.09634 0.51942 0.61744 0.0
C1303 C 0.09513 0.53499 0.57602 0.0
C1304 C 0.09327 0.52075 0.53194 0.0
C1305 C 0.09326 0.49165 0.52978 0.0
C1306 C 0.09773 0.53356 0.66511 0.0
C1307 C 0.09258 0.53688 0.48696 0.0
H1308 H 0.05098 0.60183 0.58377 0.0
H1309 H 0.15369 0.6466 0.58412 0.0
H1310 H 0.03307 0.52592 0.54842 0.0
H1311 H 0.03447 0.52442 0.61079 0.0
H1312 H 0.01733 0.5461 0.58326 0.0
H1313 H 0.18026 0.61767 0.57487 0.0
H1314 H 0.16021 0.58046 0.60694 0.0
H1315 H 0.15806 0.57995 0.54447 0.0
H1316 H 0.09853 0.47894 0.64569 0.0
H1317 H 0.09271 0.48118 0.49595 0.0
H1318 H 0.07787 0.53872 0.66904 0.0
H1319 H 0.12049 0.55667 0.66886 0.0
H1320 H 0.09619 0.51733 0.69391 0.0
H1321 H 0.07267 0.54212 0.48762 0.0
H1322 H 0.08972 0.52196 0.45568 0.0
H1323 H 0.11519 0.56016 0.4833 0.0
C1324 C 0.61173 0.10334 0.78093 0.0
C1325 C 0.62471 0.1033 0.73713 0.0
C1326 C 0.58221 0.10235 0.78444 0.0
C1327 C 0.5659 0.10229 0.74313 0.0
C1328 C 0.57888 0.10198 0.69883 0.0
C1329 C 0.60797 0.10211 0.6964 0.0
C1330 C 0.56874 0.10192 0.8323 0.0
C1331 C 0.56269 0.10276 0.654 0.0
C1332 C 0.47796 0.07848 0.74883 0.0
C1333 C 0.47984 0.10846 0.75324 0.0
C1334 C 0.50573 0.07604 0.74597 0.0
C1335 C 0.53615 0.10427 0.7462 0.0
C1336 C 0.53828 0.1346 0.74934 0.0
C1337 C 0.51021 0.1363 0.75348 0.0
C1338 C 0.50255 0.04324 0.74335 0.0
C1339 C 0.57027 0.16533 0.74877 0.0
H1340 H 0.62472 0.10415 0.81236 0.0
H1341 H 0.61829 0.10246 0.66254 0.0
H1342 H 0.5682 0.12443 0.83791 0.0
H1343 H 0.54371 0.08175 0.83485 0.0
H1344 H 0.58307 0.09949 0.86078 0.0
H1345 H 0.57539 0.10141 0.62242 0.0
H1346 H 0.53765 0.08252 0.65311 0.0
H1347 H 0.56169 0.12528 0.65237 0.0
H1348 H 0.45476 0.05679 0.7477 0.0
H1349 H 0.51223 0.15959 0.75792 0.0
H1350 H 0.51567 0.04009 0.77287 0.0
H1351 H 0.5135 0.04094 0.71053 0.0
H1352 H 0.47717 0.02359 0.7446 0.0
H1353 H 0.58457 0.16623 0.77973 0.0
H1354 H 0.56773 0.18701 0.74902 0.0
H1355 H 0.58404 0.16613 0.71718 0.0
loop_
_geom_bond_atom_site_label_1
_geom_bond_atom_site_label_2
_geom_bond_distance
_geom_bond_site_symmetry_2
_ccdc_geom_bond_type
C0 C1 1.351 . S
C0 N3 1.368 . S
C0 H5 0.931 . S
C1 C0 1.351 . S
C1 N2 1.373 . S
C1 H29 0.930 . S
N2 C1 1.373 . S
N2 C4 1.340 . S
N3 C0 1.368 . S
N3 C4 1.321 . S
N3 Co6 2.135 1_556 S
C4 N2 1.340 . S
C4 N3 1.321 . S
C4 H28 0.930 . S
H5 C0 0.931 . S
Co6 N3 2.135 1_554 S
Co6 N9 2.121 . S
Co6 O14 2.055 . S
Co6 O17 2.039 . S
Co6 N20 2.140 1_554 S
C7 O8 1.227 . S
C7 O17 1.265 . S
O8 C7 1.227 . S
N9 Co6 2.121 . S
N9 C11 1.375 . S
N9 C12 1.313 . S
C10 C11 1.338 . S
C10 N13 1.377 . S
C10 H30 0.930 . S
C11 N9 1.375 . S
C11 C10 1.338 . S
C11 H15 0.931 . S
C12 N9 1.313 . S
C12 N13 1.344 . S
C12 H16 0.930 . S
N13 C10 1.377 . S
N13 C12 1.344 . S
O14 Co6 2.055 . S
O14 C18 1.253 1_554 S
H15 C11 0.931 . S
H16 C12 0.930 . S
O17 Co6 2.039 . S
O17 C7 1.265 . S
C18 O14 1.253 1_556 S
C18 O19 1.227 . S
O19 C18 1.227 . S
N20 Co6 2.140 1_556 S
N20 C23 1.346 . S
N20 C24 1.345 . S
C21 C22 1.387 . S
C21 C25 1.391 . S
C22 C21 1.387 . S
C22 C23 1.369 . S
C22 H31 0.929 . S
C23 N20 1.346 . S
C23 C22 1.369 . S
C23 H26 0.928 . S
C24 N20 1.345 . S
C24 C25 1.371 . S
C24 H27 0.931 . S
C25 C21 1.391 . S
C25 C24 1.371 . S
C25 H32 0.930 . S
H26 C23 0.928 . S
H27 C24 0.931 . S
H28 C4 0.930 . S
H29 C1 0.930 . S
H30 C10 0.930 . S
H31 C22 0.929 . S
H32 C25 0.930 . S
C33 C34 1.351 . S
C33 N36 1.368 . S
C33 H38 0.931 . S
C34 C33 1.351 . S
C34 N35 1.373 . S
C34 H62 0.930 1_554 S
N35 C34 1.373 . S
N35 C37 1.340 . S
N36 C33 1.368 . S
N36 C37 1.321 . S
N36 Co39 2.135 . S
C37 N35 1.340 . S
C37 N36 1.321 . S
C37 H61 0.930 . S
H38 C33 0.931 . S
Co39 N36 2.135 . S
Co39 N42 2.121 . S
Co39 O47 2.055 . S
Co39 O50 2.039 . S
Co39 N53 2.140 . S
C40 O41 1.227 . S
C40 O50 1.265 . S
O41 C40 1.227 . S
N42 Co39 2.121 . S
N42 C44 1.375 . S
N42 C45 1.313 . S
C43 C44 1.338 . S
C43 N46 1.377 . S
C43 H63 0.930 . S
C44 N42 1.375 . S
C44 C43 1.338 . S
C44 H48 0.931 . S
C45 N42 1.313 . S
C45 N46 1.344 . S
C45 H49 0.930 . S
N46 C43 1.377 . S
N46 C45 1.344 . S
O47 Co39 2.055 . S
O47 C51 1.253 . S
H48 C44 0.931 . S
H49 C45 0.930 . S
O50 Co39 2.039 . S
O50 C40 1.265 . S
C51 O47 1.253 . S
C51 O52 1.227 . S
O52 C51 1.227 . S
N53 Co39 2.140 . S
N53 C56 1.346 . S
N53 C57 1.345 . S
C54 C55 1.387 . S
C54 C58 1.391 . S
C55 C54 1.387 . S
C55 C56 1.369 . S
C55 H64 0.929 . S
C56 N53 1.346 . S
C56 C55 1.369 . S
C56 H59 0.928 . S
C57 N53 1.345 . S
C57 C58 1.371 . S
C57 H60 0.931 . S
C58 C54 1.391 . S
C58 C57 1.371 . S
C58 H65 0.930 . S
H59 C56 0.928 . S
H60 C57 0.931 . S
H61 C37 0.930 . S
H62 C34 0.930 1_556 S
H63 C43 0.930 . S
H64 C55 0.929 . S
H65 C58 0.930 . S
C66 C67 1.351 . S
C66 N69 1.368 . S
C66 H71 0.931 . S
C67 C66 1.351 . S
C67 N68 1.373 . S
C67 H95 0.930 . S
N68 C67 1.373 . S
N68 C70 1.340 . S
N69 C66 1.368 . S
N69 C70 1.321 . S
N69 Co72 2.135 . S
C70 N68 1.340 . S
C70 N69 1.321 . S
C70 H94 0.930 . S
H71 C66 0.931 . S
Co72 N69 2.135 . S
Co72 N75 2.121 . S
Co72 O80 2.055 . S
Co72 O83 2.039 . S
Co72 N86 2.140 . S
C73 O74 1.227 . S
C73 O83 1.265 . S
O74 C73 1.227 . S
N75 Co72 2.121 . S
N75 C77 1.375 . S
N75 C78 1.313 . S
C76 C77 1.338 . S
C76 N79 1.377 . S
C76 H96 0.930 . S
C77 N75 1.375 . S
C77 C76 1.338 . S
C77 H81 0.931 . S
C78 N75 1.313 . S
C78 N79 1.344 . S
C78 H82 0.930 . S
N79 C76 1.377 . S
N79 C78 1.344 . S
O80 Co72 2.055 . S
O80 C84 1.253 . S
H81 C77 0.931 . S
H82 C78 0.930 . S
O83 Co72 2.039 . S
O83 C73 1.265 . S
C84 O80 1.253 . S
C84 O85 1.227 . S
O85 C84 1.227 . S
N86 Co72 2.140 . S
N86 C89 1.346 . S
N86 C90 1.345 . S
C87 C88 1.387 . S
C87 C91 1.391 . S
C88 C87 1.387 . S
C88 C89 1.369 . S
C88 H97 0.929 . S
C89 N86 1.346 . S
C89 C88 1.369 . S
C89 H92 0.928 . S
C90 N86 1.345 . S
C90 C91 1.371 . S
C90 H93 0.931 . S
C91 C87 1.391 . S
C91 C90 1.371 . S
C91 H98 0.930 . S
H92 C89 0.928 . S
H93 C90 0.931 . S
H94 C70 0.930 . S
H95 C67 0.930 . S
H96 C76 0.930 . S
H97 C88 0.929 . S
H98 C91 0.930 . S
C99 C100 1.351 . S
C99 N102 1.368 . S
C99 H104 0.931 . S
C100 C99 1.351 . S
C100 N101 1.373 . S
C100 H128 0.930 . S
N101 C100 1.373 . S
N101 C103 1.340 . S
N102 C99 1.368 . S
N102 C103 1.321 . S
N102 Co105 2.135 . S
C103 N101 1.340 . S
C103 N102 1.321 . S
C103 H127 0.930 . S
H104 C99 0.931 . S
Co105 N102 2.135 . S
Co105 N108 2.121 . S
Co105 O113 2.055 . S
Co105 O116 2.039 . S
Co105 N119 2.140 . S
C106 O107 1.227 . S
C106 O116 1.265 . S
O107 C106 1.227 . S
N108 Co105 2.121 . S
N108 C110 1.375 . S
N108 C111 1.313 . S
C109 C110 1.338 . S
C109 N112 1.377 . S
C109 H129 0.930 . S
C110 N108 1.375 . S
C110 C109 1.338 . S
C110 H114 0.931 . S
C111 N108 1.313 . S
C111 N112 1.344 . S
C111 H115 0.930 . S
N112 C109 1.377 . S
N112 C111 1.344 . S
O113 Co105 2.055 . S
O113 C117 1.253 . S
H114 C110 0.931 . S
H115 C111 0.930 . S
O116 Co105 2.039 . S
O116 C106 1.265 . S
C117 O113 1.253 . S
C117 O118 1.227 . S
O118 C117 1.227 . S
N119 Co105 2.140 . S
N119 C122 1.346 . S
N119 C123 1.345 . S
C120 C121 1.387 . S
C120 C124 1.391 . S
C121 C120 1.387 . S
C121 C122 1.369 . S
C121 H130 0.929 . S
C122 N119 1.346 . S
C122 C121 1.369 . S
C122 H125 0.928 . S
C123 N119 1.345 . S
C123 C124 1.371 . S
C123 H126 0.931 . S
C124 C120 1.391 . S
C124 C123 1.371 . S
C124 H131 0.930 . S
H125 C122 0.928 . S
H126 C123 0.931 . S
H127 C103 0.930 . S
H128 C100 0.930 . S
H129 C109 0.930 . S
H130 C121 0.929 . S
H131 C124 0.930 . S
C132 C133 1.351 . S
C132 N135 1.368 . S
C132 H137 0.931 . S
C133 C132 1.351 . S
C133 N134 1.373 . S
C133 H161 0.930 . S
N134 C133 1.373 . S
N134 C136 1.340 . S
N135 C132 1.368 . S
N135 C136 1.321 . S
N135 Co138 2.135 . S
C136 N134 1.340 . S
C136 N135 1.321 . S
C136 H160 0.930 . S
H137 C132 0.931 . S
Co138 N135 2.135 . S
Co138 N141 2.121 . S
Co138 O146 2.055 . S
Co138 O149 2.039 . S
Co138 N152 2.140 . S
C139 O140 1.227 . S
C139 O149 1.265 . S
O140 C139 1.227 . S
N141 Co138 2.121 . S
N141 C143 1.375 . S
N141 C144 1.313 . S
C142 C143 1.338 . S
C142 N145 1.377 . S
C142 H162 0.930 . S
C143 N141 1.375 . S
C143 C142 1.338 . S
C143 H147 0.931 . S
C144 N141 1.313 . S
C144 N145 1.344 . S
C144 H148 0.930 . S
N145 C142 1.377 . S
N145 C144 1.344 . S
O146 Co138 2.055 . S
O146 C150 1.253 . S
H147 C143 0.931 . S
H148 C144 0.930 . S
O149 Co138 2.039 . S
O149 C139 1.265 . S
C150 O146 1.253 . S
C150 O151 1.227 . S
O151 C150 1.227 . S
N152 Co138 2.140 . S
N152 C155 1.346 . S
N152 C156 1.345 . S
C153 C154 1.387 . S
C153 C157 1.391 . S
C154 C153 1.387 . S
C154 C155 1.369 . S
C154 H163 0.929 . S
C155 N152 1.346 . S
C155 C154 1.369 . S
C155 H158 0.928 . S
C156 N152 1.345 . S
C156 C157 1.371 . S
C156 H159 0.931 . S
C157 C153 1.391 . S
C157 C156 1.371 . S
C157 H164 0.930 . S
H158 C155 0.928 . S
H159 C156 0.931 . S
H160 C136 0.930 . S
H161 C133 0.930 . S
H162 C142 0.930 . S
H163 C154 0.929 . S
H164 C157 0.930 . S
C165 C166 1.351 . S
C165 N168 1.368 . S
C165 H170 0.931 . S
C166 C165 1.351 . S
C166 N167 1.373 . S
C166 H194 0.930 . S
N167 C166 1.373 . S
N167 C169 1.340 . S
N168 C165 1.368 . S
N168 C169 1.321 . S
N168 Co171 2.135 . S
C169 N167 1.340 . S
C169 N168 1.321 . S
C169 H193 0.930 . S
H170 C165 0.931 . S
Co171 N168 2.135 . S
Co171 N174 2.121 . S
Co171 O179 2.055 . S
Co171 O182 2.039 . S
Co171 N185 2.140 . S
C172 O173 1.227 . S
C172 O182 1.265 . S
O173 C172 1.227 . S
N174 Co171 2.121 . S
N174 C176 1.375 . S
N174 C177 1.313 . S
C175 C176 1.338 . S
C175 N178 1.377 . S
C175 H195 0.930 . S
C176 N174 1.375 . S
C176 C175 1.338 . S
C176 H180 0.931 . S
C177 N174 1.313 . S
C177 N178 1.344 . S
C177 H181 0.930 . S
N178 C175 1.377 . S
N178 C177 1.344 . S
O179 Co171 2.055 . S
O179 C183 1.253 . S
H180 C176 0.931 . S
H181 C177 0.930 . S
O182 Co171 2.039 . S
O182 C172 1.265 . S
C183 O179 1.253 . S
C183 O184 1.227 . S
O184 C183 1.227 . S
N185 Co171 2.140 . S
N185 C188 1.346 . S
N185 C189 1.345 . S
C186 C187 1.387 . S
C186 C190 1.391 . S
C187 C186 1.387 . S
C187 C188 1.369 . S
C187 H196 0.929 . S
C188 N185 1.346 . S
C188 C187 1.369 . S
C188 H191 0.928 . S
C189 N185 1.345 . S
C189 C190 1.371 . S
C189 H192 0.931 . S
C190 C186 1.391 . S
C190 C189 1.371 . S
C190 H197 0.930 . S
H191 C188 0.928 . S
H192 C189 0.931 . S
H193 C169 0.930 . S
H194 C166 0.930 . S
H195 C175 0.930 . S
H196 C187 0.929 . S
H197 C190 0.930 . S
C198 C199 1.351 . S
C198 N201 1.368 . S
C198 H203 0.931 . S
C199 C198 1.351 . S
C199 N200 1.373 . S
C199 H227 0.930 1_556 S
N200 C199 1.373 . S
N200 C202 1.340 . S
N201 C198 1.368 . S
N201 C202 1.321 . S
N201 Co204 2.135 . S
C202 N200 1.340 . S
C202 N201 1.321 . S
C202 H226 0.930 . S
H203 C198 0.931 . S
Co204 N201 2.135 . S
Co204 N207 2.121 . S
Co204 O212 2.055 . S
Co204 O215 2.039 . S
Co204 N218 2.140 . S
C205 O206 1.227 . S
C205 O215 1.265 . S
O206 C205 1.227 . S
N207 Co204 2.121 . S
N207 C209 1.375 . S
N207 C210 1.313 . S
C208 C209 1.338 . S
C208 N211 1.377 . S
C208 H228 0.930 . S
C209 N207 1.375 . S
C209 C208 1.338 . S
C209 H213 0.931 . S
C210 N207 1.313 . S
C210 N211 1.344 . S
C210 H214 0.930 . S
N211 C208 1.377 . S
N211 C210 1.344 . S
O212 Co204 2.055 . S
O212 C216 1.253 . S
H213 C209 0.931 . S
H214 C210 0.930 . S
O215 Co204 2.039 . S
O215 C205 1.265 . S
C216 O212 1.253 . S
C216 O217 1.227 . S
O217 C216 1.227 . S
N218 Co204 2.140 . S
N218 C221 1.346 . S
N218 C222 1.345 . S
C219 C220 1.387 . S
C219 C223 1.391 . S
C220 C219 1.387 . S
C220 C221 1.369 . S
C220 H229 0.929 . S
C221 N218 1.346 . S
C221 C220 1.369 . S
C221 H224 0.928 . S
C222 N218 1.345 . S
C222 C223 1.371 . S
C222 H225 0.931 . S
C223 C219 1.391 . S
C223 C222 1.371 . S
C223 H230 0.930 . S
H224 C221 0.928 . S
H225 C222 0.931 . S
H226 C202 0.930 . S
H227 C199 0.930 1_554 S
H228 C208 0.930 . S
H229 C220 0.929 . S
H230 C223 0.930 . S
C231 C232 1.351 . S
C231 N234 1.368 . S
C231 H236 0.931 . S
C232 C231 1.351 . S
C232 N233 1.373 . S
C232 H260 0.930 . S
N233 C232 1.373 . S
N233 C235 1.340 . S
N234 C231 1.368 . S
N234 C235 1.321 . S
N234 Co237 2.135 1_554 S
C235 N233 1.340 . S
C235 N234 1.321 . S
C235 H259 0.930 . S
H236 C231 0.931 . S
Co237 N234 2.135 1_556 S
Co237 N240 2.121 . S
Co237 O245 2.055 . S
Co237 O248 2.039 . S
Co237 N251 2.140 1_556 S
C238 O239 1.227 . S
C238 O248 1.265 . S
O239 C238 1.227 . S
N240 Co237 2.121 . S
N240 C242 1.375 . S
N240 C243 1.313 . S
C241 C242 1.338 . S
C241 N244 1.377 . S
C241 H261 0.930 . S
C242 N240 1.375 . S
C242 C241 1.338 . S
C242 H246 0.931 . S
C243 N240 1.313 . S
C243 N244 1.344 . S
C243 H247 0.930 . S
N244 C241 1.377 . S
N244 C243 1.344 . S
O245 Co237 2.055 . S
O245 C249 1.253 1_556 S
H246 C242 0.931 . S
H247 C243 0.930 . S
O248 Co237 2.039 . S
O248 C238 1.265 . S
C249 O245 1.253 1_554 S
C249 O250 1.227 . S
O250 C249 1.227 . S
N251 Co237 2.140 1_554 S
N251 C254 1.346 . S
N251 C255 1.345 . S
C252 C253 1.387 . S
C252 C256 1.391 . S
C253 C252 1.387 . S
C253 C254 1.369 . S
C253 H262 0.929 . S
C254 N251 1.346 . S
C254 C253 1.369 . S
C254 H257 0.928 . S
C255 N251 1.345 . S
C255 C256 1.371 . S
C255 H258 0.931 . S
C256 C252 1.391 . S
C256 C255 1.371 . S
C256 H263 0.930 . S
H257 C254 0.928 . S
H258 C255 0.931 . S
H259 C235 0.930 . S
H260 C232 0.930 . S
H261 C241 0.930 . S
H262 C253 0.929 . S
H263 C256 0.930 . S
C264 C265 1.351 . S
C264 N267 1.368 . S
C264 H269 0.931 . S
C265 C264 1.351 . S
C265 N266 1.373 . S
C265 H293 0.930 . S
N266 C265 1.373 . S
N266 C268 1.340 . S
N267 C264 1.368 . S
N267 C268 1.321 . S
N267 Co270 2.135 . S
C268 N266 1.340 . S
C268 N267 1.321 . S
C268 H292 0.930 . S
H269 C264 0.931 . S
Co270 N267 2.135 . S
Co270 N273 2.121 . S
Co270 O278 2.055 . S
Co270 O281 2.039 . S
Co270 N284 2.140 . S
C271 O272 1.227 . S
C271 O281 1.265 . S
O272 C271 1.227 . S
N273 Co270 2.121 . S
N273 C275 1.375 . S
N273 C276 1.313 . S
C274 C275 1.338 . S
C274 N277 1.377 . S
C274 H294 0.930 . S
C275 N273 1.375 . S
C275 C274 1.338 . S
C275 H279 0.931 . S
C276 N273 1.313 . S
C276 N277 1.344 . S
C276 H280 0.930 . S
N277 C274 1.377 . S
N277 C276 1.344 . S
O278 Co270 2.055 . S
O278 C282 1.253 . S
H279 C275 0.931 . S
H280 C276 0.930 . S
O281 Co270 2.039 . S
O281 C271 1.265 . S
C282 O278 1.253 . S
C282 O283 1.227 . S
O283 C282 1.227 . S
N284 Co270 2.140 . S
N284 C287 1.346 . S
N284 C288 1.345 . S
C285 C286 1.387 . S
C285 C289 1.391 . S
C286 C285 1.387 . S
C286 C287 1.369 . S
C286 H295 0.929 . S
C287 N284 1.346 . S
C287 C286 1.369 . S
C287 H290 0.928 . S
C288 N284 1.345 . S
C288 C289 1.371 . S
C288 H291 0.931 . S
C289 C285 1.391 . S
C289 C288 1.371 . S
C289 H296 0.930 . S
H290 C287 0.928 . S
H291 C288 0.931 . S
H292 C268 0.930 . S
H293 C265 0.930 . S
H294 C274 0.930 . S
H295 C286 0.929 . S
H296 C289 0.930 . S
C297 C298 1.351 . S
C297 N300 1.368 . S
C297 H302 0.931 . S
C298 C297 1.351 . S
C298 N299 1.373 . S
C298 H326 0.930 . S
N299 C298 1.373 . S
N299 C301 1.340 . S
N300 C297 1.368 . S
N300 C301 1.321 . S
N300 Co303 2.135 . S
C301 N299 1.340 . S
C301 N300 1.321 . S
C301 H325 0.930 . S
H302 C297 0.931 . S
Co303 N300 2.135 . S
Co303 N306 2.121 . S
Co303 O311 2.055 . S
Co303 O314 2.039 . S
Co303 N317 2.140 . S
C304 O305 1.227 . S
C304 O314 1.265 . S
O305 C304 1.227 . S
N306 Co303 2.121 . S
N306 C308 1.375 . S
N306 C309 1.313 . S
C307 C308 1.338 . S
C307 N310 1.377 . S
C307 H327 0.930 . S
C308 N306 1.375 . S
C308 C307 1.338 . S
C308 H312 0.931 . S
C309 N306 1.313 . S
C309 N310 1.344 . S
C309 H313 0.930 . S
N310 C307 1.377 . S
N310 C309 1.344 . S
O311 Co303 2.055 . S
O311 C315 1.253 . S
H312 C308 0.931 . S
H313 C309 0.930 . S
O314 Co303 2.039 . S
O314 C304 1.265 . S
C315 O311 1.253 . S
C315 O316 1.227 . S
O316 C315 1.227 . S
N317 Co303 2.140 . S
N317 C320 1.346 . S
N317 C321 1.345 . S
C318 C319 1.387 . S
C318 C322 1.391 . S
C319 C318 1.387 . S
C319 C320 1.369 . S
C319 H328 0.929 . S
C320 N317 1.346 . S
C320 C319 1.369 . S
C320 H323 0.928 . S
C321 N317 1.345 . S
C321 C322 1.371 . S
C321 H324 0.931 . S
C322 C318 1.391 . S
C322 C321 1.371 . S
C322 H329 0.930 . S
H323 C320 0.928 . S
H324 C321 0.931 . S
H325 C301 0.930 . S
H326 C298 0.930 . S
H327 C307 0.930 . S
H328 C319 0.929 . S
H329 C322 0.930 . S
C330 C331 1.351 . S
C330 N333 1.368 . S
C330 H335 0.931 . S
C331 C330 1.351 . S
C331 N332 1.373 . S
C331 H359 0.930 . S
N332 C331 1.373 . S
N332 C334 1.340 . S
N333 C330 1.368 . S
N333 C334 1.321 . S
N333 Co336 2.135 . S
C334 N332 1.340 . S
C334 N333 1.321 . S
C334 H358 0.930 . S
H335 C330 0.931 . S
Co336 N333 2.135 . S
Co336 N339 2.121 . S
Co336 O344 2.055 . S
Co336 O347 2.039 . S
Co336 N350 2.140 . S
C337 O338 1.227 . S
C337 O347 1.265 . S
O338 C337 1.227 . S
N339 Co336 2.121 . S
N339 C341 1.375 . S
N339 C342 1.313 . S
C340 C341 1.338 . S
C340 N343 1.377 . S
C340 H360 0.930 . S
C341 N339 1.375 . S
C341 C340 1.338 . S
C341 H345 0.931 . S
C342 N339 1.313 . S
C342 N343 1.344 . S
C342 H346 0.930 . S
N343 C340 1.377 . S
N343 C342 1.344 . S
O344 Co336 2.055 . S
O344 C348 1.253 . S
H345 C341 0.931 . S
H346 C342 0.930 . S
O347 Co336 2.039 . S
O347 C337 1.265 . S
C348 O344 1.253 . S
C348 O349 1.227 . S
O349 C348 1.227 . S
N350 Co336 2.140 . S
N350 C353 1.346 . S
N350 C354 1.345 . S
C351 C352 1.387 . S
C351 C355 1.391 . S
C352 C351 1.387 . S
C352 C353 1.369 . S
C352 H361 0.929 . S
C353 N350 1.346 . S
C353 C352 1.369 . S
C353 H356 0.928 . S
C354 N350 1.345 . S
C354 C355 1.371 . S
C354 H357 0.931 . S
C355 C351 1.391 . S
C355 C354 1.371 . S
C355 H362 0.930 . S
H356 C353 0.928 . S
H357 C354 0.931 . S
H358 C334 0.930 . S
H359 C331 0.930 . S
H360 C340 0.930 . S
H361 C352 0.929 . S
H362 C355 0.930 . S
C363 C364 1.351 . S
C363 N366 1.368 . S
C363 H368 0.931 . S
C364 C363 1.351 . S
C364 N365 1.373 . S
C364 H392 0.930 . S
N365 C364 1.373 . S
N365 C367 1.340 . S
N366 C363 1.368 . S
N366 C367 1.321 . S
N366 Co369 2.135 . S
C367 N365 1.340 . S
C367 N366 1.321 . S
C367 H391 0.930 . S
H368 C363 0.931 . S
Co369 N366 2.135 . S
Co369 N372 2.121 . S
Co369 O377 2.055 . S
Co369 O380 2.039 . S
Co369 N383 2.140 . S
C370 O371 1.227 . S
C370 O380 1.265 . S
O371 C370 1.227 . S
N372 Co369 2.121 . S
N372 C374 1.375 . S
N372 C375 1.313 . S
C373 C374 1.338 . S
C373 N376 1.377 . S
C373 H393 0.930 . S
C374 N372 1.375 . S
C374 C373 1.338 . S
C374 H378 0.931 . S
C375 N372 1.313 . S
C375 N376 1.344 . S
C375 H379 0.930 . S
N376 C373 1.377 . S
N376 C375 1.344 . S
O377 Co369 2.055 . S
O377 C381 1.253 . S
H378 C374 0.931 . S
H379 C375 0.930 . S
O380 Co369 2.039 . S
O380 C370 1.265 . S
C381 O377 1.253 . S
C381 O382 1.227 . S
O382 C381 1.227 . S
N383 Co369 2.140 . S
N383 C386 1.346 . S
N383 C387 1.345 . S
C384 C385 1.387 . S
C384 C388 1.391 . S
C385 C384 1.387 . S
C385 C386 1.369 . S
C385 H394 0.929 . S
C386 N383 1.346 . S
C386 C385 1.369 . S
C386 H389 0.928 . S
C387 N383 1.345 . S
C387 C388 1.371 . S
C387 H390 0.931 . S
C388 C384 1.391 . S
C388 C387 1.371 . S
C388 H395 0.930 . S
H389 C386 0.928 . S
H390 C387 0.931 . S
H391 C367 0.930 . S
H392 C364 0.930 . S
H393 C373 0.930 . S
H394 C385 0.929 . S
H395 C388 0.930 . S
C396 C397 1.391 . S
C396 C398 1.394 . S
C396 H412 0.931 . S
C397 C396 1.391 . S
C397 C401 1.376 . S
C398 C396 1.394 . S
C398 C399 1.369 . S
C398 C402 1.531 . S
C399 C398 1.369 . S
C399 C400 1.410 . S
C399 C407 1.503 . S
C400 C399 1.410 . S
C400 C401 1.392 . S
C400 C403 1.511 . S
C401 C397 1.376 . S
C401 C400 1.392 . S
C401 H413 0.929 . S
C402 C398 1.531 . S
C402 H414 0.960 . S
C402 H415 0.962 . S
C402 H416 0.960 . S
C403 C400 1.511 . S
C403 H417 0.961 . S
C403 H418 0.961 . S
C403 H419 0.961 . S
C404 C405 1.370 . S
C404 C406 1.363 . S
C404 H420 0.931 . S
C405 C404 1.370 . S
C405 C409 1.408 . S
C406 C404 1.363 . S
C406 C407 1.370 . S
C406 C410 1.524 . S
C407 C399 1.503 . S
C407 C406 1.370 . S
C407 C408 1.403 . S
C408 C407 1.403 . S
C408 C409 1.404 . S
C408 C411 1.539 . S
C409 C405 1.408 . S
C409 C408 1.404 . S
C409 H421 0.930 . S
C410 C406 1.524 . S
C410 H422 0.956 . S
C410 H423 0.961 . S
C410 H424 0.961 . S
C411 C408 1.539 . S
C411 H425 0.958 . S
C411 H426 0.961 . S
C411 H427 0.960 . S
H412 C396 0.931 . S
H413 C401 0.929 . S
H414 C402 0.960 . S
H415 C402 0.962 . S
H416 C402 0.960 . S
H417 C403 0.961 . S
H418 C403 0.961 . S
H419 C403 0.961 . S
H420 C404 0.931 . S
H421 C409 0.930 . S
H422 C410 0.956 . S
H423 C410 0.961 . S
H424 C410 0.961 . S
H425 C411 0.958 . S
H426 C411 0.961 . S
H427 C411 0.960 . S
C428 C429 1.391 . S
C428 C430 1.394 . S
C428 H444 0.931 . S
C429 C428 1.391 . S
C429 C433 1.376 . S
C430 C428 1.394 . S
C430 C431 1.369 . S
C430 C434 1.531 . S
C431 C430 1.369 . S
C431 C432 1.410 . S
C431 C439 1.503 . S
C432 C431 1.410 . S
C432 C433 1.392 . S
C432 C435 1.511 . S
C433 C429 1.376 . S
C433 C432 1.392 . S
C433 H445 0.929 . S
C434 C430 1.531 . S
C434 H446 0.960 . S
C434 H447 0.962 . S
C434 H448 0.960 . S
C435 C432 1.511 . S
C435 H449 0.961 . S
C435 H450 0.961 . S
C435 H451 0.961 . S
C436 C437 1.370 . S
C436 C438 1.363 . S
C436 H452 0.931 . S
C437 C436 1.370 . S
C437 C441 1.408 . S
C438 C436 1.363 . S
C438 C439 1.370 . S
C438 C442 1.524 . S
C439 C431 1.503 . S
C439 C438 1.370 . S
C439 C440 1.403 . S
C440 C439 1.403 . S
C440 C441 1.404 . S
C440 C443 1.539 . S
C441 C437 1.408 . S
C441 C440 1.404 . S
C441 H453 0.930 . S
C442 C438 1.524 . S
C442 H454 0.956 . S
C442 H455 0.961 . S
C442 H456 0.961 . S
C443 C440 1.539 . S
C443 H457 0.958 . S
C443 H458 0.961 . S
C443 H459 0.960 . S
H444 C428 0.931 . S
H445 C433 0.929 . S
H446 C434 0.960 . S
H447 C434 0.962 . S
H448 C434 0.960 . S
H449 C435 0.961 . S
H450 C435 0.961 . S
H451 C435 0.961 . S
H452 C436 0.931 . S
H453 C441 0.930 . S
H454 C442 0.956 . S
H455 C442 0.961 . S
H456 C442 0.961 . S
H457 C443 0.958 . S
H458 C443 0.961 . S
H459 C443 0.960 . S
C460 C461 1.391 . S
C460 C462 1.394 . S
C460 H476 0.931 . S
C461 C460 1.391 . S
C461 C465 1.376 . S
C462 C460 1.394 . S
C462 C463 1.369 . S
C462 C466 1.531 . S
C463 C462 1.369 . S
C463 C464 1.410 . S
C463 C471 1.503 . S
C464 C463 1.410 . S
C464 C465 1.392 . S
C464 C467 1.511 . S
C465 C461 1.376 . S
C465 C464 1.392 . S
C465 H477 0.929 . S
C466 C462 1.531 . S
C466 H478 0.960 . S
C466 H479 0.962 . S
C466 H480 0.960 . S
C467 C464 1.511 . S
C467 H481 0.961 . S
C467 H482 0.961 . S
C467 H483 0.961 . S
C468 C469 1.370 . S
C468 C470 1.363 . S
C468 H484 0.931 . S
C469 C468 1.370 . S
C469 C473 1.408 . S
C470 C468 1.363 . S
C470 C471 1.370 . S
C470 C474 1.524 . S
C471 C463 1.503 . S
C471 C470 1.370 . S
C471 C472 1.403 . S
C472 C471 1.403 . S
C472 C473 1.404 . S
C472 C475 1.539 . S
C473 C469 1.408 . S
C473 C472 1.404 . S
C473 H485 0.930 . S
C474 C470 1.524 . S
C474 H486 0.956 . S
C474 H487 0.961 . S
C474 H488 0.961 . S
C475 C472 1.539 . S
C475 H489 0.958 . S
C475 H490 0.961 . S
C475 H491 0.960 . S
H476 C460 0.931 . S
H477 C465 0.929 . S
H478 C466 0.960 . S
H479 C466 0.962 . S
H480 C466 0.960 . S
H481 C467 0.961 . S
H482 C467 0.961 . S
H483 C467 0.961 . S
H484 C468 0.931 . S
H485 C473 0.930 . S
H486 C474 0.956 . S
H487 C474 0.961 . S
H488 C474 0.961 . S
H489 C475 0.958 . S
H490 C475 0.961 . S
H491 C475 0.960 . S
C492 C493 1.391 . S
C492 C494 1.394 . S
C492 H508 0.931 . S
C493 C492 1.391 . S
C493 C497 1.376 . S
C494 C492 1.394 . S
C494 C495 1.369 . S
C494 C498 1.531 . S
C495 C494 1.369 . S
C495 C496 1.410 . S
C495 C503 1.503 . S
C496 C495 1.410 . S
C496 C497 1.392 . S
C496 C499 1.511 . S
C497 C493 1.376 . S
C497 C496 1.392 . S
C497 H509 0.929 . S
C498 C494 1.531 . S
C498 H510 0.960 . S
C498 H511 0.962 . S
C498 H512 0.960 . S
C499 C496 1.511 . S
C499 H513 0.961 . S
C499 H514 0.961 . S
C499 H515 0.961 . S
C500 C501 1.370 . S
C500 C502 1.363 . S
C500 H516 0.931 . S
C501 C500 1.370 . S
C501 C505 1.408 . S
C502 C500 1.363 . S
C502 C503 1.370 . S
C502 C506 1.524 . S
C503 C495 1.503 . S
C503 C502 1.370 . S
C503 C504 1.403 . S
C504 C503 1.403 . S
C504 C505 1.404 . S
C504 C507 1.539 . S
C505 C501 1.408 . S
C505 C504 1.404 . S
C505 H517 0.930 . S
C506 C502 1.524 . S
C506 H518 0.956 . S
C506 H519 0.961 . S
C506 H520 0.961 . S
C507 C504 1.539 . S
C507 H521 0.958 . S
C507 H522 0.961 . S
C507 H523 0.960 . S
H508 C492 0.931 . S
H509 C497 0.929 . S
H510 C498 0.960 . S
H511 C498 0.962 . S
H512 C498 0.960 . S
H513 C499 0.961 . S
H514 C499 0.961 . S
H515 C499 0.961 . S
H516 C500 0.931 . S
H517 C505 0.930 . S
H518 C506 0.956 . S
H519 C506 0.961 . S
H520 C506 0.961 . S
H521 C507 0.958 . S
H522 C507 0.961 . S
H523 C507 0.960 . S
C524 C525 1.391 . S
C524 C526 1.394 . S
C524 H540 0.931 . S
C525 C524 1.391 . S
C525 C529 1.376 . S
C526 C524 1.394 . S
C526 C527 1.369 . S
C526 C530 1.531 . S
C527 C526 1.369 . S
C527 C528 1.410 . S
C527 C535 1.503 . S
C528 C527 1.410 . S
C528 C529 1.392 . S
C528 C531 1.511 . S
C529 C525 1.376 . S
C529 C528 1.392 . S
C529 H541 0.929 . S
C530 C526 1.531 . S
C530 H542 0.960 . S
C530 H543 0.962 . S
C530 H544 0.960 . S
C531 C528 1.511 . S
C531 H545 0.961 . S
C531 H546 0.961 . S
C531 H547 0.961 . S
C532 C533 1.370 . S
C532 C534 1.363 1_554 S
C532 H548 0.931 . S
C533 C532 1.370 . S
C533 C537 1.408 . S
C534 C532 1.363 1_556 S
C534 C535 1.370 . S
C534 C538 1.524 . S
C535 C527 1.503 . S
C535 C534 1.370 . S
C535 C536 1.403 . S
C536 C535 1.403 . S
C536 C537 1.404 1_556 S
C536 C539 1.539 . S
C537 C533 1.408 . S
C537 C536 1.404 1_554 S
C537 H549 0.930 . S
C538 C534 1.524 . S
C538 H550 0.956 . S
C538 H551 0.961 . S
C538 H552 0.961 . S
C539 C536 1.539 . S
C539 H553 0.958 . S
C539 H554 0.961 . S
C539 H555 0.960 . S
H540 C524 0.931 . S
H541 C529 0.929 . S
H542 C530 0.960 . S
H543 C530 0.962 . S
H544 C530 0.960 . S
H545 C531 0.961 . S
H546 C531 0.961 . S
H547 C531 0.961 . S
H548 C532 0.931 . S
H549 C537 0.930 . S
H550 C538 0.956 . S
H551 C538 0.961 . S
H552 C538 0.961 . S
H553 C539 0.958 . S
H554 C539 0.961 . S
H555 C539 0.960 . S
C556 C557 1.391 . S
C556 C558 1.394 1_556 S
C556 H572 0.931 . S
C557 C556 1.391 . S
C557 C561 1.376 . S
C558 C556 1.394 1_554 S
C558 C559 1.369 . S
C558 C562 1.531 . S
C559 C558 1.369 . S
C559 C560 1.410 . S
C559 C567 1.503 . S
C560 C559 1.410 . S
C560 C561 1.392 1_554 S
C560 C563 1.511 . S
C561 C557 1.376 . S
C561 C560 1.392 1_556 S
C561 H573 0.929 . S
C562 C558 1.531 . S
C562 H574 0.960 . S
C562 H575 0.962 . S
C562 H576 0.960 . S
C563 C560 1.511 . S
C563 H577 0.961 . S
C563 H578 0.961 . S
C563 H579 0.961 . S
C564 C565 1.370 . S
C564 C566 1.363 . S
C564 H580 0.931 . S
C565 C564 1.370 . S
C565 C569 1.408 . S
C566 C564 1.363 . S
C566 C567 1.370 . S
C566 C570 1.524 . S
C567 C559 1.503 . S
C567 C566 1.370 . S
C567 C568 1.403 . S
C568 C567 1.403 . S
C568 C569 1.404 . S
C568 C571 1.539 . S
C569 C565 1.408 . S
C569 C568 1.404 . S
C569 H581 0.930 . S
C570 C566 1.524 . S
C570 H582 0.956 . S
C570 H583 0.961 . S
C570 H584 0.961 . S
C571 C568 1.539 . S
C571 H585 0.958 . S
C571 H586 0.961 . S
C571 H587 0.960 . S
H572 C556 0.931 . S
H573 C561 0.929 . S
H574 C562 0.960 . S
H575 C562 0.962 . S
H576 C562 0.960 . S
H577 C563 0.961 . S
H578 C563 0.961 . S
H579 C563 0.961 . S
H580 C564 0.931 . S
H581 C569 0.930 . S
H582 C570 0.956 . S
H583 C570 0.961 . S
H584 C570 0.961 . S
H585 C571 0.958 . S
H586 C571 0.961 . S
H587 C571 0.960 . S
C588 C589 1.391 . S
C588 C590 1.394 . S
C588 H604 0.931 . S
C589 C588 1.391 . S
C589 C593 1.376 . S
C590 C588 1.394 . S
C590 C591 1.369 . S
C590 C594 1.531 . S
C591 C590 1.369 . S
C591 C592 1.410 . S
C591 C599 1.503 . S
C592 C591 1.410 . S
C592 C593 1.392 . S
C592 C595 1.511 . S
C593 C589 1.376 . S
C593 C592 1.392 . S
C593 H605 0.929 . S
C594 C590 1.531 . S
C594 H606 0.960 . S
C594 H607 0.962 . S
C594 H608 0.960 . S
C595 C592 1.511 . S
C595 H609 0.961 . S
C595 H610 0.961 . S
C595 H611 0.961 . S
C596 C597 1.370 . S
C596 C598 1.363 . S
C596 H612 0.931 . S
C597 C596 1.370 . S
C597 C601 1.408 . S
C598 C596 1.363 . S
C598 C599 1.370 . S
C598 C602 1.524 . S
C599 C591 1.503 . S
C599 C598 1.370 . S
C599 C600 1.403 . S
C600 C599 1.403 . S
C600 C601 1.404 . S
C600 C603 1.539 . S
C601 C597 1.408 . S
C601 C600 1.404 . S
C601 H613 0.930 . S
C602 C598 1.524 . S
C602 H614 0.956 . S
C602 H615 0.961 . S
C602 H616 0.961 . S
C603 C600 1.539 . S
C603 H617 0.958 . S
C603 H618 0.961 . S
C603 H619 0.960 . S
H604 C588 0.931 . S
H605 C593 0.929 . S
H606 C594 0.960 . S
H607 C594 0.962 . S
H608 C594 0.960 . S
H609 C595 0.961 . S
H610 C595 0.961 . S
H611 C595 0.961 . S
H612 C596 0.931 . S
H613 C601 0.930 . S
H614 C602 0.956 . S
H615 C602 0.961 . S
H616 C602 0.961 . S
H617 C603 0.958 . S
H618 C603 0.961 . S
H619 C603 0.960 . S
C620 C621 1.391 . S
C620 C622 1.394 . S
C620 H636 0.931 . S
C621 C620 1.391 . S
C621 C625 1.376 . S
C622 C620 1.394 . S
C622 C623 1.369 . S
C622 C626 1.531 . S
C623 C622 1.369 . S
C623 C624 1.410 1_556 S
C623 C631 1.503 1_556 S
C624 C623 1.410 1_554 S
C624 C625 1.392 1_554 S
C624 C627 1.511 . S
C625 C621 1.376 . S
C625 C624 1.392 1_556 S
C625 H637 0.925 1_556 S
C626 C622 1.531 . S
C626 H638 0.960 . S
C626 H639 0.962 . S
C626 H640 0.960 . S
C627 C624 1.511 . S
C627 H641 0.961 . S
C627 H642 0.961 . S
C627 H643 0.961 1_554 S
C628 C629 1.370 1_455 S
C628 C630 1.363 . S
C628 H644 0.931 . S
C629 C628 1.370 1_655 S
C629 C633 1.408 1_554 S
C630 C628 1.363 . S
C630 C631 1.370 . S
C630 C634 1.524 . S
C631 C623 1.503 1_554 S
C631 C630 1.370 . S
C631 C632 1.403 1_554 S
C632 C631 1.403 1_556 S
C632 C633 1.404 1_455 S
C632 C635 1.539 . S
C633 C629 1.408 1_556 S
C633 C632 1.404 1_655 S
C633 H645 0.930 . S
C634 C630 1.524 . S
C634 H646 0.956 . S
C634 H647 0.961 . S
C634 H648 0.961 . S
C635 C632 1.539 . S
C635 H649 0.958 . S
C635 H650 0.961 . S
C635 H651 0.960 . S
H636 C620 0.931 . S
H637 C625 0.925 1_554 S
H638 C626 0.960 . S
H639 C626 0.962 . S
H640 C626 0.960 . S
H641 C627 0.961 . S
H642 C627 0.961 . S
H643 C627 0.961 1_556 S
H644 C628 0.931 . S
H645 C633 0.930 . S
H646 C634 0.956 . S
H647 C634 0.961 . S
H648 C634 0.961 . S
H649 C635 0.958 . S
H650 C635 0.961 . S
H651 C635 0.960 . S
C652 C653 1.391 . S
C652 C654 1.394 . S
C652 H668 0.931 . S
C653 C652 1.391 . S
C653 C657 1.376 . S
C654 C652 1.394 . S
C654 C655 1.369 . S
C654 C658 1.531 . S
C655 C654 1.369 . S
C655 C656 1.410 . S
C655 C663 1.503 . S
C656 C655 1.410 . S
C656 C657 1.392 . S
C656 C659 1.511 . S
C657 C653 1.376 . S
C657 C656 1.392 . S
C657 H669 0.929 . S
C658 C654 1.531 . S
C658 H670 0.960 . S
C658 H671 0.962 . S
C658 H672 0.960 . S
C659 C656 1.511 . S
C659 H673 0.961 . S
C659 H674 0.961 . S
C659 H675 0.961 . S
C660 C661 1.375 1_545 S
C660 C662 1.391 . S
C660 H676 0.899 1_545 S
C661 C660 1.375 1_565 S
C661 C665 1.408 1_565 S
C662 C660 1.391 . S
C662 C663 1.370 . S
C662 C666 1.524 . S
C663 C655 1.503 . S
C663 C662 1.370 . S
C663 C664 1.403 . S
C664 C663 1.403 . S
C664 C665 1.404 . S
C664 C667 1.539 . S
C665 C661 1.408 1_545 S
C665 C664 1.404 . S
C665 H677 0.930 . S
C666 C662 1.524 . S
C666 H678 0.956 . S
C666 H679 0.961 . S
C666 H680 0.961 . S
C667 C664 1.539 . S
C667 H681 0.958 . S
C667 H682 0.961 . S
C667 H683 0.960 . S
H668 C652 0.931 . S
H669 C657 0.929 . S
H670 C658 0.960 . S
H671 C658 0.962 . S
H672 C658 0.960 . S
H673 C659 0.961 . S
H674 C659 0.961 . S
H675 C659 0.961 . S
H676 C660 0.899 1_565 S
H677 C665 0.930 . S
H678 C666 0.956 . S
H679 C666 0.961 . S
H680 C666 0.961 . S
H681 C667 0.958 . S
H682 C667 0.961 . S
H683 C667 0.960 . S
C684 C685 1.391 . S
C684 C686 1.394 . S
C684 H700 0.931 . S
C685 C684 1.391 . S
C685 C689 1.376 . S
C686 C684 1.394 . S
C686 C687 1.369 . S
C686 C690 1.531 . S
C687 C686 1.369 . S
C687 C688 1.410 . S
C687 C695 1.503 . S
C688 C687 1.410 . S
C688 C689 1.392 . S
C688 C691 1.511 . S
C689 C685 1.376 . S
C689 C688 1.392 . S
C689 H701 0.929 . S
C690 C686 1.531 . S
C690 H702 0.960 . S
C690 H703 0.962 . S
C690 H704 0.960 . S
C691 C688 1.511 . S
C691 H705 0.961 . S
C691 H706 0.961 . S
C691 H707 0.961 . S
C692 C693 1.370 . S
C692 C694 1.363 . S
C692 H708 0.931 . S
C693 C692 1.370 . S
C693 C697 1.408 . S
C694 C692 1.363 . S
C694 C695 1.370 . S
C694 C698 1.524 . S
C695 C687 1.503 . S
C695 C694 1.370 . S
C695 C696 1.403 . S
C696 C695 1.403 . S
C696 C697 1.404 . S
C696 C699 1.539 . S
C697 C693 1.408 . S
C697 C696 1.404 . S
C697 H709 0.930 . S
C698 C694 1.524 . S
C698 H710 0.956 . S
C698 H711 0.961 . S
C698 H712 0.961 . S
C699 C696 1.539 . S
C699 H713 0.958 . S
C699 H714 0.961 . S
C699 H715 0.960 . S
H700 C684 0.931 . S
H701 C689 0.929 . S
H702 C690 0.960 . S
H703 C690 0.962 . S
H704 C690 0.960 . S
H705 C691 0.961 . S
H706 C691 0.961 . S
H707 C691 0.961 . S
H708 C692 0.931 . S
H709 C697 0.930 . S
H710 C698 0.956 . S
H711 C698 0.961 . S
H712 C698 0.961 . S
H713 C699 0.958 . S
H714 C699 0.961 . S
H715 C699 0.960 . S
C716 C717 1.391 1_655 S
C716 C718 1.394 . S
C716 H732 0.931 . S
C717 C716 1.391 1_455 S
C717 C721 1.376 . S
C718 C716 1.394 . S
C718 C719 1.369 . S
C718 C722 1.531 . S
C719 C718 1.369 . S
C719 C720 1.410 . S
C719 C727 1.503 . S
C720 C719 1.410 . S
C720 C721 1.392 1_655 S
C720 C723 1.511 . S
C721 C717 1.376 . S
C721 C720 1.392 1_455 S
C721 H733 0.929 . S
C722 C718 1.531 . S
C722 H734 0.960 . S
C722 H735 0.962 . S
C722 H736 0.960 . S
C723 C720 1.511 . S
C723 H737 0.961 . S
C723 H738 0.961 . S
C723 H739 0.961 . S
C724 C725 1.370 . S
C724 C726 1.363 . S
C724 H740 0.931 . S
C725 C724 1.370 . S
C725 C729 1.408 . S
C726 C724 1.363 . S
C726 C727 1.370 . S
C726 C730 1.524 . S
C727 C719 1.503 . S
C727 C726 1.370 . S
C727 C728 1.403 . S
C728 C727 1.403 . S
C728 C729 1.404 . S
C728 C731 1.539 . S
C729 C725 1.408 . S
C729 C728 1.404 . S
C729 H741 0.930 . S
C730 C726 1.524 . S
C730 H742 0.956 . S
C730 H743 0.961 . S
C730 H744 0.961 . S
C731 C728 1.539 . S
C731 H745 0.958 . S
C731 H746 0.961 . S
C731 H747 0.960 . S
H732 C716 0.931 . S
H733 C721 0.929 . S
H734 C722 0.960 . S
H735 C722 0.962 . S
H736 C722 0.960 . S
H737 C723 0.961 . S
H738 C723 0.961 . S
H739 C723 0.961 . S
H740 C724 0.931 . S
H741 C729 0.930 . S
H742 C730 0.956 . S
H743 C730 0.961 . S
H744 C730 0.961 . S
H745 C731 0.958 . S
H746 C731 0.961 . S
H747 C731 0.960 . S
C748 C749 1.391 . S
C748 C750 1.394 1_545 S
C748 H764 0.931 . S
C749 C748 1.391 . S
C749 C753 1.376 1_545 S
C750 C748 1.394 1_565 S
C750 C751 1.369 . S
C750 C754 1.531 . S
C751 C750 1.369 . S
C751 C752 1.410 . S
C751 C759 1.503 . S
C752 C751 1.410 . S
C752 C753 1.392 . S
C752 C755 1.511 . S
C753 C749 1.376 1_565 S
C753 C752 1.392 . S
C753 H765 0.929 . S
C754 C750 1.531 . S
C754 H766 0.960 . S
C754 H767 0.962 . S
C754 H768 0.960 . S
C755 C752 1.511 . S
C755 H769 0.961 . S
C755 H770 0.961 . S
C755 H771 0.961 . S
C756 C757 1.370 . S
C756 C758 1.363 . S
C756 H772 0.931 . S
C757 C756 1.370 . S
C757 C761 1.408 . S
C758 C756 1.363 . S
C758 C759 1.370 . S
C758 C762 1.524 . S
C759 C751 1.503 . S
C759 C758 1.370 . S
C759 C760 1.403 . S
C760 C759 1.403 . S
C760 C761 1.404 . S
C760 C763 1.539 . S
C761 C757 1.408 . S
C761 C760 1.404 . S
C761 H773 0.930 . S
C762 C758 1.524 . S
C762 H774 0.956 . S
C762 H775 0.961 . S
C762 H776 0.961 . S
C763 C760 1.539 . S
C763 H777 0.958 . S
C763 H778 0.961 . S
C763 H779 0.960 . S
H764 C748 0.931 . S
H765 C753 0.929 . S
H766 C754 0.960 . S
H767 C754 0.962 . S
H768 C754 0.960 . S
H769 C755 0.961 . S
H770 C755 0.961 . S
H771 C755 0.961 . S
H772 C756 0.931 . S
H773 C761 0.930 . S
H774 C762 0.956 . S
H775 C762 0.961 . S
H776 C762 0.961 . S
H777 C763 0.958 . S
H778 C763 0.961 . S
H779 C763 0.960 . S
C780 C781 1.391 1_556 S
C780 C782 1.394 . S
C780 H796 0.931 . S
C781 C780 1.391 1_554 S
C781 C785 1.376 . S
C782 C780 1.394 . S
C782 C783 1.369 . S
C782 C786 1.531 . S
C783 C782 1.369 . S
C783 C784 1.410 1_556 S
C783 C791 1.503 . S
C784 C783 1.410 1_554 S
C784 C785 1.392 . S
C784 C787 1.511 . S
C785 C781 1.376 . S
C785 C784 1.392 . S
C785 H797 0.929 . S
C786 C782 1.531 . S
C786 H798 0.960 . S
C786 H799 0.962 . S
C786 H800 0.960 . S
C787 C784 1.511 . S
C787 H801 0.961 . S
C787 H802 0.961 . S
C787 H803 0.961 . S
C788 C789 1.370 . S
C788 C790 1.363 . S
C788 H804 0.931 . S
C789 C788 1.370 . S
C789 C793 1.408 . S
C790 C788 1.363 . S
C790 C791 1.370 . S
C790 C794 1.524 . S
C791 C783 1.503 . S
C791 C790 1.370 . S
C791 C792 1.403 . S
C792 C791 1.403 . S
C792 C793 1.404 . S
C792 C795 1.539 1_556 S
C793 C789 1.408 . S
C793 C792 1.404 . S
C793 H805 0.930 . S
C794 C790 1.524 . S
C794 H806 0.956 . S
C794 H807 0.961 1_556 S
C794 H808 0.961 . S
C795 C792 1.539 1_554 S
C795 H809 0.958 1_554 S
C795 H810 0.961 . S
C795 H811 0.960 . S
H796 C780 0.931 . S
H797 C785 0.929 . S
H798 C786 0.960 . S
H799 C786 0.962 . S
H800 C786 0.960 . S
H801 C787 0.961 . S
H802 C787 0.961 . S
H803 C787 0.961 . S
H804 C788 0.931 . S
H805 C793 0.930 . S
H806 C794 0.956 . S
H807 C794 0.961 1_554 S
H808 C794 0.961 . S
H809 C795 0.958 1_556 S
H810 C795 0.961 . S
H811 C795 0.960 . S
C812 C813 1.391 1_455 S
C812 C814 1.394 . S
C812 H828 0.931 . S
C813 C812 1.391 1_655 S
C813 C817 1.376 1_655 S
C814 C812 1.394 . S
C814 C815 1.369 . S
C814 C818 1.531 . S
C815 C814 1.369 . S
C815 C816 1.410 . S
C815 C823 1.503 . S
C816 C815 1.410 . S
C816 C817 1.392 . S
C816 C819 1.511 . S
C817 C813 1.376 1_455 S
C817 C816 1.392 . S
C817 H829 0.929 1_455 S
C818 C814 1.531 . S
C818 H830 0.960 . S
C818 H831 0.962 . S
C818 H832 0.960 . S
C819 C816 1.511 . S
C819 H833 0.961 . S
C819 H834 0.961 . S
C819 H835 0.961 . S
C820 C821 1.370 . S
C820 C822 1.363 . S
C820 H836 0.931 . S
C821 C820 1.370 . S
C821 C825 1.408 . S
C822 C820 1.363 . S
C822 C823 1.370 . S
C822 C826 1.524 . S
C823 C815 1.503 . S
C823 C822 1.370 . S
C823 C824 1.403 . S
C824 C823 1.403 . S
C824 C825 1.404 . S
C824 C827 1.539 . S
C825 C821 1.408 . S
C825 C824 1.404 . S
C825 H837 0.930 . S
C826 C822 1.524 . S
C826 H838 0.956 . S
C826 H839 0.961 . S
C826 H840 0.961 . S
C827 C824 1.539 . S
C827 H841 0.958 . S
C827 H842 0.961 . S
C827 H843 0.960 . S
H828 C812 0.931 . S
H829 C817 0.929 1_655 S
H830 C818 0.960 . S
H831 C818 0.962 . S
H832 C818 0.960 . S
H833 C819 0.961 . S
H834 C819 0.961 . S
H835 C819 0.961 . S
H836 C820 0.931 . S
H837 C825 0.930 . S
H838 C826 0.956 . S
H839 C826 0.961 . S
H840 C826 0.961 . S
H841 C827 0.958 . S
H842 C827 0.961 . S
H843 C827 0.960 . S
C844 C845 1.391 1_545 S
C844 C846 1.394 . S
C844 H860 0.931 . S
C845 C844 1.391 1_565 S
C845 C849 1.376 . S
C846 C844 1.394 . S
C846 C847 1.369 . S
C846 C850 1.531 . S
C847 C846 1.369 . S
C847 C848 1.410 . S
C847 C855 1.503 . S
C848 C847 1.410 . S
C848 C849 1.392 1_545 S
C848 C851 1.511 . S
C849 C845 1.376 . S
C849 C848 1.392 1_565 S
C849 H861 0.929 . S
C850 C846 1.531 . S
C850 H862 0.960 . S
C850 H863 0.962 . S
C850 H864 0.960 . S
C851 C848 1.511 . S
C851 H865 0.961 . S
C851 H866 0.961 . S
C851 H867 0.961 . S
C852 C853 1.370 . S
C852 C854 1.363 . S
C852 H868 0.931 . S
C853 C852 1.370 . S
C853 C857 1.408 . S
C854 C852 1.363 . S
C854 C855 1.370 . S
C854 C858 1.524 . S
C855 C847 1.503 . S
C855 C854 1.370 . S
C855 C856 1.403 . S
C856 C855 1.403 . S
C856 C857 1.404 . S
C856 C859 1.539 . S
C857 C853 1.408 . S
C857 C856 1.404 . S
C857 H869 0.930 . S
C858 C854 1.524 . S
C858 H870 0.956 . S
C858 H871 0.961 . S
C858 H872 0.961 . S
C859 C856 1.539 . S
C859 H873 0.958 . S
C859 H874 0.961 . S
C859 H875 0.960 . S
H860 C844 0.931 . S
H861 C849 0.929 . S
H862 C850 0.960 . S
H863 C850 0.962 . S
H864 C850 0.960 . S
H865 C851 0.961 . S
H866 C851 0.961 . S
H867 C851 0.961 . S
H868 C852 0.931 . S
H869 C857 0.930 . S
H870 C858 0.956 . S
H871 C858 0.961 . S
H872 C858 0.961 . S
H873 C859 0.958 . S
H874 C859 0.961 . S
H875 C859 0.960 . S
C876 C877 1.391 . S
C876 C878 1.394 . S
C876 H892 0.931 . S
C877 C876 1.391 . S
C877 C881 1.376 . S
C878 C876 1.394 . S
C878 C879 1.369 . S
C878 C882 1.531 . S
C879 C878 1.369 . S
C879 C880 1.410 . S
C879 C887 1.503 . S
C880 C879 1.410 . S
C880 C881 1.392 . S
C880 C883 1.511 . S
C881 C877 1.376 . S
C881 C880 1.392 . S
C881 H893 0.929 . S
C882 C878 1.531 . S
C882 H894 0.960 . S
C882 H895 0.962 . S
C882 H896 0.960 . S
C883 C880 1.511 . S
C883 H897 0.961 . S
C883 H898 0.961 . S
C883 H899 0.961 . S
C884 C885 1.370 . S
C884 C886 1.363 . S
C884 H900 0.931 . S
C885 C884 1.370 . S
C885 C889 1.408 . S
C886 C884 1.363 . S
C886 C887 1.370 . S
C886 C890 1.524 . S
C887 C879 1.503 . S
C887 C886 1.370 . S
C887 C888 1.403 . S
C888 C887 1.403 . S
C888 C889 1.404 . S
C888 C891 1.539 . S
C889 C885 1.408 . S
C889 C888 1.404 . S
C889 H901 0.930 . S
C890 C886 1.524 . S
C890 H902 0.956 . S
C890 H903 0.961 . S
C890 H904 0.961 . S
C891 C888 1.539 . S
C891 H905 0.958 . S
C891 H906 0.961 . S
C891 H907 0.960 . S
H892 C876 0.931 . S
H893 C881 0.929 . S
H894 C882 0.960 . S
H895 C882 0.962 . S
H896 C882 0.960 . S
H897 C883 0.961 . S
H898 C883 0.961 . S
H899 C883 0.961 . S
H900 C884 0.931 . S
H901 C889 0.930 . S
H902 C890 0.956 . S
H903 C890 0.961 . S
H904 C890 0.961 . S
H905 C891 0.958 . S
H906 C891 0.961 . S
H907 C891 0.960 . S
C908 C909 1.391 1_655 S
C908 C910 1.394 . S
C908 H924 0.931 . S
C909 C908 1.391 1_455 S
C909 C913 1.376 1_455 S
C910 C908 1.394 . S
C910 C911 1.369 . S
C910 C914 1.531 . S
C911 C910 1.369 . S
C911 C912 1.410 . S
C911 C919 1.503 . S
C912 C911 1.410 . S
C912 C913 1.392 . S
C912 C915 1.511 . S
C913 C909 1.376 1_655 S
C913 C912 1.392 . S
C913 H925 0.929 1_655 S
C914 C910 1.531 . S
C914 H926 0.960 . S
C914 H927 0.962 . S
C914 H928 0.960 . S
C915 C912 1.511 . S
C915 H929 0.961 . S
C915 H930 0.961 . S
C915 H931 0.961 . S
C916 C917 1.370 . S
C916 C918 1.363 . S
C916 H932 0.931 . S
C917 C916 1.370 . S
C917 C921 1.408 . S
C918 C916 1.363 . S
C918 C919 1.370 . S
C918 C922 1.524 . S
C919 C911 1.503 . S
C919 C918 1.370 . S
C919 C920 1.403 . S
C920 C919 1.403 . S
C920 C921 1.404 . S
C920 C923 1.539 . S
C921 C917 1.408 . S
C921 C920 1.404 . S
C921 H933 0.930 . S
C922 C918 1.524 . S
C922 H934 0.956 . S
C922 H935 0.961 . S
C922 H936 0.961 . S
C923 C920 1.539 . S
C923 H937 0.958 . S
C923 H938 0.961 . S
C923 H939 0.960 . S
H924 C908 0.931 . S
H925 C913 0.929 1_455 S
H926 C914 0.960 . S
H927 C914 0.962 . S
H928 C914 0.960 . S
H929 C915 0.961 . S
H930 C915 0.961 . S
H931 C915 0.961 . S
H932 C916 0.931 . S
H933 C921 0.930 . S
H934 C922 0.956 . S
H935 C922 0.961 . S
H936 C922 0.961 . S
H937 C923 0.958 . S
H938 C923 0.961 . S
H939 C923 0.960 . S
C940 C941 1.391 1_565 S
C940 C942 1.394 . S
C940 H956 0.931 . S
C941 C940 1.391 1_545 S
C941 C945 1.394 . S
C942 C940 1.394 . S
C942 C943 1.369 . S
C942 C946 1.531 . S
C943 C942 1.369 . S
C943 C944 1.410 . S
C943 C951 1.503 . S
C944 C943 1.410 . S
C944 C945 1.366 1_565 S
C944 C947 1.511 . S
C945 C941 1.394 . S
C945 C944 1.366 1_545 S
C945 H957 0.937 . S
C946 C942 1.531 . S
C946 H958 0.960 . S
C946 H959 0.962 . S
C946 H960 0.960 . S
C947 C944 1.511 . S
C947 H961 0.961 . S
C947 H962 0.961 . S
C947 H963 0.961 . S
C948 C949 1.370 . S
C948 C950 1.363 . S
C948 H964 0.931 . S
C949 C948 1.370 . S
C949 C953 1.408 . S
C950 C948 1.363 . S
C950 C951 1.370 . S
C950 C954 1.524 . S
C951 C943 1.503 . S
C951 C950 1.370 . S
C951 C952 1.403 . S
C952 C951 1.403 . S
C952 C953 1.404 . S
C952 C955 1.539 . S
C953 C949 1.408 . S
C953 C952 1.404 . S
C953 H965 0.930 . S
C954 C950 1.524 . S
C954 H966 0.956 . S
C954 H967 0.961 . S
C954 H968 0.961 . S
C955 C952 1.539 . S
C955 H969 0.958 . S
C955 H970 0.961 . S
C955 H971 0.960 . S
H956 C940 0.931 . S
H957 C945 0.937 . S
H958 C946 0.960 . S
H959 C946 0.962 . S
H960 C946 0.960 . S
H961 C947 0.961 . S
H962 C947 0.961 . S
H963 C947 0.961 . S
H964 C948 0.931 . S
H965 C953 0.930 . S
H966 C954 0.956 . S
H967 C954 0.961 . S
H968 C954 0.961 . S
H969 C955 0.958 . S
H970 C955 0.961 . S
H971 C955 0.960 . S
C972 C973 1.391 . S
C972 C974 1.394 . S
C972 H988 0.931 . S
C973 C972 1.391 . S
C973 C977 1.376 . S
C974 C972 1.394 . S
C974 C975 1.369 . S
C974 C978 1.531 . S
C975 C974 1.369 . S
C975 C976 1.410 . S
C975 C983 1.503 . S
C976 C975 1.410 . S
C976 C977 1.392 . S
C976 C979 1.511 . S
C977 C973 1.376 . S
C977 C976 1.392 . S
C977 H989 0.929 . S
C978 C974 1.531 . S
C978 H990 0.960 . S
C978 H991 0.962 . S
C978 H992 0.960 . S
C979 C976 1.511 . S
C979 H993 0.961 . S
C979 H994 0.961 . S
C979 H995 0.961 . S
C980 C981 1.370 . S
C980 C982 1.363 . S
C980 H996 0.931 . S
C981 C980 1.370 . S
C981 C985 1.408 . S
C982 C980 1.363 . S
C982 C983 1.370 . S
C982 C986 1.524 . S
C983 C975 1.503 . S
C983 C982 1.370 . S
C983 C984 1.403 . S
C984 C983 1.403 . S
C984 C985 1.404 . S
C984 C987 1.539 . S
C985 C981 1.408 . S
C985 C984 1.404 . S
C985 H997 0.930 . S
C986 C982 1.524 . S
C986 H998 0.956 . S
C986 H999 0.961 . S
C986 H1000 0.961 . S
C987 C984 1.539 . S
C987 H1001 0.958 . S
C987 H1002 0.961 . S
C987 H1003 0.960 . S
H988 C972 0.931 . S
H989 C977 0.929 . S
H990 C978 0.960 . S
H991 C978 0.962 . S
H992 C978 0.960 . S
H993 C979 0.961 . S
H994 C979 0.961 . S
H995 C979 0.961 . S
H996 C980 0.931 . S
H997 C985 0.930 . S
H998 C986 0.956 . S
H999 C986 0.961 . S
H1000 C986 0.961 . S
H1001 C987 0.958 . S
H1002 C987 0.961 . S
H1003 C987 0.960 . S
C1004 C1005 1.391 . S
C1004 C1006 1.389 1_655 S
C1004 H1020 0.931 . S
C1005 C1004 1.391 . S
C1005 C1009 1.376 . S
C1006 C1004 1.389 1_455 S
C1006 C1007 1.365 1_455 S
C1006 C1010 1.539 . S
C1007 C1006 1.365 1_655 S
C1007 C1008 1.410 . S
C1007 C1015 1.503 1_655 S
C1008 C1007 1.410 . S
C1008 C1009 1.392 . S
C1008 C1011 1.511 . S
C1009 C1005 1.376 . S
C1009 C1008 1.392 . S
C1009 H1021 0.929 . S
C1010 C1006 1.539 . S
C1010 H1022 0.960 . S
C1010 H1023 0.962 . S
C1010 H1024 0.960 . S
C1011 C1008 1.511 . S
C1011 H1025 0.961 . S
C1011 H1026 0.961 . S
C1011 H1027 0.961 . S
C1012 C1013 1.370 . S
C1012 C1014 1.377 . S
C1012 H1028 0.931 . S
C1013 C1012 1.370 . S
C1013 C1017 1.408 . S
C1014 C1012 1.377 . S
C1014 C1015 1.373 . S
C1014 C1018 1.508 1_455 S
C1015 C1007 1.503 1_455 S
C1015 C1014 1.373 . S
C1015 C1016 1.403 . S
C1016 C1015 1.403 . S
C1016 C1017 1.404 . S
C1016 C1019 1.539 . S
C1017 C1013 1.408 . S
C1017 C1016 1.404 . S
C1017 H1029 0.930 . S
C1018 C1014 1.508 1_655 S
C1018 H1030 0.956 . S
C1018 H1031 0.961 . S
C1018 H1032 0.961 . S
C1019 C1016 1.539 . S
C1019 H1033 0.958 . S
C1019 H1034 0.961 . S
C1019 H1035 0.960 . S
H1020 C1004 0.931 . S
H1021 C1009 0.929 . S
H1022 C1010 0.960 . S
H1023 C1010 0.962 . S
H1024 C1010 0.960 . S
H1025 C1011 0.961 . S
H1026 C1011 0.961 . S
H1027 C1011 0.961 . S
H1028 C1012 0.931 . S
H1029 C1017 0.930 . S
H1030 C1018 0.956 . S
H1031 C1018 0.961 . S
H1032 C1018 0.961 . S
H1033 C1019 0.958 . S
H1034 C1019 0.961 . S
H1035 C1019 0.960 . S
C1036 C1037 1.391 . S
C1036 C1038 1.394 . S
C1036 H1052 0.931 . S
C1037 C1036 1.391 . S
C1037 C1041 1.376 . S
C1038 C1036 1.394 . S
C1038 C1039 1.369 . S
C1038 C1042 1.531 1_565 S
C1039 C1038 1.369 . S
C1039 C1040 1.410 . S
C1039 C1047 1.503 1_565 S
C1040 C1039 1.410 . S
C1040 C1041 1.392 . S
C1040 C1043 1.511 . S
C1041 C1037 1.376 . S
C1041 C1040 1.392 . S
C1041 H1053 0.929 . S
C1042 C1038 1.531 1_545 S
C1042 H1054 0.960 . S
C1042 H1055 0.962 . S
C1042 H1056 0.960 . S
C1043 C1040 1.511 . S
C1043 H1057 0.961 . S
C1043 H1058 0.961 . S
C1043 H1059 0.961 . S
C1044 C1045 1.370 . S
C1044 C1046 1.348 1_545 S
C1044 H1060 0.931 . S
C1045 C1044 1.370 . S
C1045 C1049 1.408 . S
C1046 C1044 1.348 1_565 S
C1046 C1047 1.349 1_565 S
C1046 C1050 1.562 . S
C1047 C1039 1.503 1_545 S
C1047 C1046 1.349 1_545 S
C1047 C1048 1.403 . S
C1048 C1047 1.403 . S
C1048 C1049 1.404 . S
C1048 C1051 1.539 . S
C1049 C1045 1.408 . S
C1049 C1048 1.404 . S
C1049 H1061 0.930 . S
C1050 C1046 1.562 . S
C1050 H1062 0.956 . S
C1050 H1063 0.961 . S
C1050 H1064 0.961 . S
C1051 C1048 1.539 . S
C1051 H1065 0.958 . S
C1051 H1066 0.961 . S
C1051 H1067 0.960 . S
H1052 C1036 0.931 . S
H1053 C1041 0.929 . S
H1054 C1042 0.960 . S
H1055 C1042 0.962 . S
H1056 C1042 0.960 . S
H1057 C1043 0.961 . S
H1058 C1043 0.961 . S
H1059 C1043 0.961 . S
H1060 C1044 0.931 . S
H1061 C1049 0.930 . S
H1062 C1050 0.956 . S
H1063 C1050 0.961 . S
H1064 C1050 0.961 . S
H1065 C1051 0.958 . S
H1066 C1051 0.961 . S
H1067 C1051 0.960 . S
C1068 C1069 1.391 . S
C1068 C1070 1.394 . S
C1068 H1084 0.931 . S
C1069 C1068 1.391 . S
C1069 C1073 1.376 . S
C1070 C1068 1.394 . S
C1070 C1071 1.369 . S
C1070 C1074 1.531 . S
C1071 C1070 1.369 . S
C1071 C1072 1.410 . S
C1071 C1079 1.503 . S
C1072 C1071 1.410 . S
C1072 C1073 1.392 . S
C1072 C1075 1.511 . S
C1073 C1069 1.376 . S
C1073 C1072 1.392 . S
C1073 H1085 0.929 . S
C1074 C1070 1.531 . S
C1074 H1086 0.960 . S
C1074 H1087 0.962 . S
C1074 H1088 0.960 . S
C1075 C1072 1.511 . S
C1075 H1089 0.961 . S
C1075 H1090 0.961 . S
C1075 H1091 0.961 . S
C1076 C1077 1.370 . S
C1076 C1078 1.363 . S
C1076 H1092 0.931 . S
C1077 C1076 1.370 . S
C1077 C1081 1.408 . S
C1078 C1076 1.363 . S
C1078 C1079 1.370 . S
C1078 C1082 1.524 . S
C1079 C1071 1.503 . S
C1079 C1078 1.370 . S
C1079 C1080 1.403 . S
C1080 C1079 1.403 . S
C1080 C1081 1.404 . S
C1080 C1083 1.539 . S
C1081 C1077 1.408 . S
C1081 C1080 1.404 . S
C1081 H1093 0.930 . S
C1082 C1078 1.524 . S
C1082 H1094 0.956 . S
C1082 H1095 0.961 . S
C1082 H1096 0.961 . S
C1083 C1080 1.539 . S
C1083 H1097 0.958 . S
C1083 H1098 0.961 . S
C1083 H1099 0.960 . S
H1084 C1068 0.931 . S
H1085 C1073 0.929 . S
H1086 C1074 0.960 . S
H1087 C1074 0.962 . S
H1088 C1074 0.960 . S
H1089 C1075 0.961 . S
H1090 C1075 0.961 . S
H1091 C1075 0.961 . S
H1092 C1076 0.931 . S
H1093 C1081 0.930 . S
H1094 C1082 0.956 . S
H1095 C1082 0.961 . S
H1096 C1082 0.961 . S
H1097 C1083 0.958 . S
H1098 C1083 0.961 . S
H1099 C1083 0.960 . S
C1100 C1101 1.391 . S
C1100 C1102 1.394 . S
C1100 H1116 0.931 . S
C1101 C1100 1.391 . S
C1101 C1105 1.376 . S
C1102 C1100 1.394 . S
C1102 C1103 1.369 . S
C1102 C1106 1.531 . S
C1103 C1102 1.369 . S
C1103 C1104 1.410 1_455 S
C1103 C1111 1.503 1_455 S
C1104 C1103 1.410 1_655 S
C1104 C1105 1.392 1_655 S
C1104 C1107 1.511 . S
C1105 C1101 1.376 . S
C1105 C1104 1.392 1_455 S
C1105 H1117 0.929 . S
C1106 C1102 1.531 . S
C1106 H1118 0.960 . S
C1106 H1119 0.962 . S
C1106 H1120 0.960 . S
C1107 C1104 1.511 . S
C1107 H1121 0.961 . S
C1107 H1122 0.961 . S
C1107 H1123 0.961 . S
C1108 C1109 1.370 . S
C1108 C1110 1.363 . S
C1108 H1124 0.931 . S
C1109 C1108 1.370 . S
C1109 C1113 1.408 . S
C1110 C1108 1.363 . S
C1110 C1111 1.370 . S
C1110 C1114 1.524 . S
C1111 C1103 1.503 1_655 S
C1111 C1110 1.370 . S
C1111 C1112 1.403 . S
C1112 C1111 1.403 . S
C1112 C1113 1.404 . S
C1112 C1115 1.539 . S
C1113 C1109 1.408 . S
C1113 C1112 1.404 . S
C1113 H1125 0.930 . S
C1114 C1110 1.524 . S
C1114 H1126 0.956 1_655 S
C1114 H1127 0.961 . S
C1114 H1128 0.961 . S
C1115 C1112 1.539 . S
C1115 H1129 0.958 1_655 S
C1115 H1130 0.961 . S
C1115 H1131 0.960 . S
H1116 C1100 0.931 . S
H1117 C1105 0.929 . S
H1118 C1106 0.960 . S
H1119 C1106 0.962 . S
H1120 C1106 0.960 . S
H1121 C1107 0.961 . S
H1122 C1107 0.961 . S
H1123 C1107 0.961 . S
H1124 C1108 0.931 . S
H1125 C1113 0.930 . S
H1126 C1114 0.956 1_455 S
H1127 C1114 0.961 . S
H1128 C1114 0.961 . S
H1129 C1115 0.958 1_455 S
H1130 C1115 0.961 . S
H1131 C1115 0.960 . S
C1132 C1133 1.391 . S
C1132 C1134 1.394 . S
C1132 H1148 0.931 . S
C1133 C1132 1.391 . S
C1133 C1137 1.376 . S
C1134 C1132 1.394 . S
C1134 C1135 1.369 . S
C1134 C1138 1.531 1_554 S
C1135 C1134 1.369 . S
C1135 C1136 1.410 1_565 S
C1135 C1143 1.503 1_564 S
C1136 C1135 1.410 1_545 S
C1136 C1137 1.392 1_545 S
C1136 C1139 1.511 . S
C1137 C1133 1.376 . S
C1137 C1136 1.392 1_565 S
C1137 H1149 0.929 . S
C1138 C1134 1.531 1_556 S
C1138 H1150 0.960 . S
C1138 H1151 0.962 . S
C1138 H1152 0.960 . S
C1139 C1136 1.511 . S
C1139 H1153 0.961 . S
C1139 H1154 0.961 . S
C1139 H1155 0.961 . S
C1140 C1141 1.370 . S
C1140 C1142 1.363 . S
C1140 H1156 0.931 . S
C1141 C1140 1.370 . S
C1141 C1145 1.408 . S
C1142 C1140 1.363 . S
C1142 C1143 1.370 . S
C1142 C1146 1.524 . S
C1143 C1135 1.503 1_546 S
C1143 C1142 1.370 . S
C1143 C1144 1.403 . S
C1144 C1143 1.403 . S
C1144 C1145 1.404 . S
C1144 C1147 1.539 . S
C1145 C1141 1.408 . S
C1145 C1144 1.404 . S
C1145 H1157 0.930 . S
C1146 C1142 1.524 . S
C1146 H1158 0.956 1_545 S
C1146 H1159 0.961 1_556 S
C1146 H1160 0.961 . S
C1147 C1144 1.539 . S
C1147 H1161 0.958 1_545 S
C1147 H1162 0.961 . S
C1147 H1163 0.960 1_556 S
H1148 C1132 0.931 . S
H1149 C1137 0.929 . S
H1150 C1138 0.960 . S
H1151 C1138 0.962 . S
H1152 C1138 0.960 . S
H1153 C1139 0.961 . S
H1154 C1139 0.961 . S
H1155 C1139 0.961 . S
H1156 C1140 0.931 . S
H1157 C1145 0.930 . S
H1158 C1146 0.956 1_565 S
H1159 C1146 0.961 1_554 S
H1160 C1146 0.961 . S
H1161 C1147 0.958 1_565 S
H1162 C1147 0.961 . S
H1163 C1147 0.960 1_554 S
C1164 C1165 1.391 . S
C1164 C1166 1.394 . S
C1164 H1180 0.931 . S
C1165 C1164 1.391 . S
C1165 C1169 1.376 . S
C1166 C1164 1.394 . S
C1166 C1167 1.369 . S
C1166 C1170 1.531 . S
C1167 C1166 1.369 . S
C1167 C1168 1.410 . S
C1167 C1175 1.503 . S
C1168 C1167 1.410 . S
C1168 C1169 1.392 . S
C1168 C1171 1.511 . S
C1169 C1165 1.376 . S
C1169 C1168 1.392 . S
C1169 H1181 0.929 . S
C1170 C1166 1.531 . S
C1170 H1182 0.960 . S
C1170 H1183 0.962 . S
C1170 H1184 0.960 . S
C1171 C1168 1.511 . S
C1171 H1185 0.961 . S
C1171 H1186 0.961 . S
C1171 H1187 0.961 . S
C1172 C1173 1.370 . S
C1172 C1174 1.363 . S
C1172 H1188 0.931 . S
C1173 C1172 1.370 . S
C1173 C1177 1.408 . S
C1174 C1172 1.363 . S
C1174 C1175 1.370 . S
C1174 C1178 1.524 . S
C1175 C1167 1.503 . S
C1175 C1174 1.370 . S
C1175 C1176 1.403 . S
C1176 C1175 1.403 . S
C1176 C1177 1.404 . S
C1176 C1179 1.539 1_556 S
C1177 C1173 1.408 . S
C1177 C1176 1.404 . S
C1177 H1189 0.930 1_556 S
C1178 C1174 1.524 . S
C1178 H1190 0.956 . S
C1178 H1191 0.961 . S
C1178 H1192 0.961 . S
C1179 C1176 1.539 1_554 S
C1179 H1193 0.958 . S
C1179 H1194 0.961 . S
C1179 H1195 0.960 . S
H1180 C1164 0.931 . S
H1181 C1169 0.929 . S
H1182 C1170 0.960 . S
H1183 C1170 0.962 . S
H1184 C1170 0.960 . S
H1185 C1171 0.961 . S
H1186 C1171 0.961 . S
H1187 C1171 0.961 . S
H1188 C1172 0.931 . S
H1189 C1177 0.930 1_554 S
H1190 C1178 0.956 . S
H1191 C1178 0.961 . S
H1192 C1178 0.961 . S
H1193 C1179 0.958 . S
H1194 C1179 0.961 . S
H1195 C1179 0.960 . S
C1196 C1197 1.391 . S
C1196 C1198 1.394 . S
C1196 H1212 0.931 . S
C1197 C1196 1.391 . S
C1197 C1201 1.376 . S
C1198 C1196 1.394 . S
C1198 C1199 1.369 . S
C1198 C1202 1.531 . S
C1199 C1198 1.369 . S
C1199 C1200 1.410 . S
C1199 C1207 1.503 . S
C1200 C1199 1.410 . S
C1200 C1201 1.392 . S
C1200 C1203 1.511 . S
C1201 C1197 1.376 . S
C1201 C1200 1.392 . S
C1201 H1213 0.929 . S
C1202 C1198 1.531 . S
C1202 H1214 0.960 . S
C1202 H1215 0.962 . S
C1202 H1216 0.960 . S
C1203 C1200 1.511 . S
C1203 H1217 0.961 . S
C1203 H1218 0.961 . S
C1203 H1219 0.961 . S
C1204 C1205 1.370 . S
C1204 C1206 1.363 . S
C1204 H1220 0.931 . S
C1205 C1204 1.370 . S
C1205 C1209 1.408 . S
C1206 C1204 1.363 . S
C1206 C1207 1.370 . S
C1206 C1210 1.524 . S
C1207 C1199 1.503 . S
C1207 C1206 1.370 . S
C1207 C1208 1.403 . S
C1208 C1207 1.403 . S
C1208 C1209 1.404 . S
C1208 C1211 1.539 1_554 S
C1209 C1205 1.408 . S
C1209 C1208 1.404 . S
C1209 H1221 0.941 . S
C1210 C1206 1.524 . S
C1210 H1222 0.956 . S
C1210 H1223 0.961 . S
C1210 H1224 0.961 . S
C1211 C1208 1.539 1_556 S
C1211 H1225 0.958 . S
C1211 H1226 0.961 . S
C1211 H1227 0.960 . S
H1212 C1196 0.931 . S
H1213 C1201 0.929 . S
H1214 C1202 0.960 . S
H1215 C1202 0.962 . S
H1216 C1202 0.960 . S
H1217 C1203 0.961 . S
H1218 C1203 0.961 . S
H1219 C1203 0.961 . S
H1220 C1204 0.931 . S
H1221 C1209 0.941 . S
H1222 C1210 0.956 . S
H1223 C1210 0.961 . S
H1224 C1210 0.961 . S
H1225 C1211 0.958 . S
H1226 C1211 0.961 . S
H1227 C1211 0.960 . S
C1228 C1229 1.391 . S
C1228 C1230 1.394 . S
C1228 H1244 0.931 . S
C1229 C1228 1.391 . S
C1229 C1233 1.376 . S
C1230 C1228 1.394 . S
C1230 C1231 1.369 . S
C1230 C1234 1.531 . S
C1231 C1230 1.369 . S
C1231 C1232 1.410 . S
C1231 C1239 1.503 . S
C1232 C1231 1.410 . S
C1232 C1233 1.392 . S
C1232 C1235 1.511 . S
C1233 C1229 1.376 . S
C1233 C1232 1.392 . S
C1233 H1245 0.929 . S
C1234 C1230 1.531 . S
C1234 H1246 0.960 . S
C1234 H1247 0.962 . S
C1234 H1248 0.960 . S
C1235 C1232 1.511 . S
C1235 H1249 0.961 . S
C1235 H1250 0.961 . S
C1235 H1251 0.961 . S
C1236 C1237 1.370 . S
C1236 C1238 1.363 . S
C1236 H1252 0.931 . S
C1237 C1236 1.370 . S
C1237 C1241 1.408 . S
C1238 C1236 1.363 . S
C1238 C1239 1.370 . S
C1238 C1242 1.524 . S
C1239 C1231 1.503 . S
C1239 C1238 1.370 . S
C1239 C1240 1.403 . S
C1240 C1239 1.403 . S
C1240 C1241 1.404 . S
C1240 C1243 1.539 . S
C1241 C1237 1.408 . S
C1241 C1240 1.404 . S
C1241 H1253 0.930 . S
C1242 C1238 1.524 . S
C1242 H1254 0.956 . S
C1242 H1255 0.961 . S
C1242 H1256 0.961 . S
C1243 C1240 1.539 . S
C1243 H1257 0.958 . S
C1243 H1258 0.961 . S
C1243 H1259 0.960 . S
H1244 C1228 0.931 . S
H1245 C1233 0.929 . S
H1246 C1234 0.960 . S
H1247 C1234 0.962 . S
H1248 C1234 0.960 . S
H1249 C1235 0.961 . S
H1250 C1235 0.961 . S
H1251 C1235 0.961 . S
H1252 C1236 0.931 . S
H1253 C1241 0.930 . S
H1254 C1242 0.956 . S
H1255 C1242 0.961 . S
H1256 C1242 0.961 . S
H1257 C1243 0.958 . S
H1258 C1243 0.961 . S
H1259 C1243 0.960 . S
C1260 C1261 1.391 . S
C1260 C1262 1.394 . S
C1260 H1276 0.931 . S
C1261 C1260 1.391 . S
C1261 C1265 1.376 . S
C1262 C1260 1.394 . S
C1262 C1263 1.369 . S
C1262 C1266 1.531 . S
C1263 C1262 1.369 . S
C1263 C1264 1.410 . S
C1263 C1271 1.503 . S
C1264 C1263 1.410 . S
C1264 C1265 1.392 . S
C1264 C1267 1.511 . S
C1265 C1261 1.376 . S
C1265 C1264 1.392 . S
C1265 H1277 0.929 . S
C1266 C1262 1.531 . S
C1266 H1278 0.960 . S
C1266 H1279 0.962 . S
C1266 H1280 0.960 . S
C1267 C1264 1.511 . S
C1267 H1281 0.961 . S
C1267 H1282 0.961 . S
C1267 H1283 0.961 . S
C1268 C1269 1.370 . S
C1268 C1270 1.363 . S
C1268 H1284 0.931 . S
C1269 C1268 1.370 . S
C1269 C1273 1.408 . S
C1270 C1268 1.363 . S
C1270 C1271 1.370 . S
C1270 C1274 1.524 . S
C1271 C1263 1.503 . S
C1271 C1270 1.370 . S
C1271 C1272 1.403 . S
C1272 C1271 1.403 . S
C1272 C1273 1.404 . S
C1272 C1275 1.539 . S
C1273 C1269 1.408 . S
C1273 C1272 1.404 . S
C1273 H1285 0.930 . S
C1274 C1270 1.524 . S
C1274 H1286 0.956 . S
C1274 H1287 0.961 . S
C1274 H1288 0.961 . S
C1275 C1272 1.539 . S
C1275 H1289 0.958 . S
C1275 H1290 0.961 . S
C1275 H1291 0.960 . S
H1276 C1260 0.931 . S
H1277 C1265 0.929 . S
H1278 C1266 0.960 . S
H1279 C1266 0.962 . S
H1280 C1266 0.960 . S
H1281 C1267 0.961 . S
H1282 C1267 0.961 . S
H1283 C1267 0.961 . S
H1284 C1268 0.931 . S
H1285 C1273 0.930 . S
H1286 C1274 0.956 . S
H1287 C1274 0.961 . S
H1288 C1274 0.961 . S
H1289 C1275 0.958 . S
H1290 C1275 0.961 . S
H1291 C1275 0.960 . S
C1292 C1293 1.391 . S
C1292 C1294 1.394 . S
C1292 H1308 0.931 . S
C1293 C1292 1.391 . S
C1293 C1297 1.376 . S
C1294 C1292 1.394 . S
C1294 C1295 1.369 . S
C1294 C1298 1.531 . S
C1295 C1294 1.369 . S
C1295 C1296 1.410 . S
C1295 C1303 1.503 . S
C1296 C1295 1.410 . S
C1296 C1297 1.392 . S
C1296 C1299 1.511 . S
C1297 C1293 1.376 . S
C1297 C1296 1.392 . S
C1297 H1309 0.929 . S
C1298 C1294 1.531 . S
C1298 H1310 0.960 . S
C1298 H1311 0.962 . S
C1298 H1312 0.960 . S
C1299 C1296 1.511 . S
C1299 H1313 0.961 . S
C1299 H1314 0.961 . S
C1299 H1315 0.961 . S
C1300 C1301 1.370 . S
C1300 C1302 1.363 . S
C1300 H1316 0.931 . S
C1301 C1300 1.370 . S
C1301 C1305 1.408 . S
C1302 C1300 1.363 . S
C1302 C1303 1.370 . S
C1302 C1306 1.524 . S
C1303 C1295 1.503 . S
C1303 C1302 1.370 . S
C1303 C1304 1.403 . S
C1304 C1303 1.403 . S
C1304 C1305 1.404 . S
C1304 C1307 1.539 . S
C1305 C1301 1.408 . S
C1305 C1304 1.404 . S
C1305 H1317 0.930 . S
C1306 C1302 1.524 . S
C1306 H1318 0.956 . S
C1306 H1319 0.961 . S
C1306 H1320 0.961 . S
C1307 C1304 1.539 . S
C1307 H1321 0.958 . S
C1307 H1322 0.961 . S
C1307 H1323 0.960 . S
H1308 C1292 0.931 . S
H1309 C1297 0.929 . S
H1310 C1298 0.960 . S
H1311 C1298 0.962 . S
H1312 C1298 0.960 . S
H1313 C1299 0.961 . S
H1314 C1299 0.961 . S
H1315 C1299 0.961 . S
H1316 C1300 0.931 . S
H1317 C1305 0.930 . S
H1318 C1306 0.956 . S
H1319 C1306 0.961 . S
H1320 C1306 0.961 . S
H1321 C1307 0.958 . S
H1322 C1307 0.961 . S
H1323 C1307 0.960 . S
C1324 C1325 1.391 . S
C1324 C1326 1.394 . S
C1324 H1340 0.931 . S
C1325 C1324 1.391 . S
C1325 C1329 1.376 . S
C1326 C1324 1.394 . S
C1326 C1327 1.369 . S
C1326 C1330 1.531 . S
C1327 C1326 1.369 . S
C1327 C1328 1.410 . S
C1327 C1335 1.503 . S
C1328 C1327 1.410 . S
C1328 C1329 1.392 . S
C1328 C1331 1.511 . S
C1329 C1325 1.376 . S
C1329 C1328 1.392 . S
C1329 H1341 0.929 . S
C1330 C1326 1.531 . S
C1330 H1342 0.960 . S
C1330 H1343 0.962 . S
C1330 H1344 0.960 . S
C1331 C1328 1.511 . S
C1331 H1345 0.961 . S
C1331 H1346 0.961 . S
C1331 H1347 0.961 . S
C1332 C1333 1.370 . S
C1332 C1334 1.363 . S
C1332 H1348 0.931 . S
C1333 C1332 1.370 . S
C1333 C1337 1.408 . S
C1334 C1332 1.363 . S
C1334 C1335 1.370 . S
C1334 C1338 1.524 . S
C1335 C1327 1.503 . S
C1335 C1334 1.370 . S
C1335 C1336 1.403 . S
C1336 C1335 1.403 . S
C1336 C1337 1.404 . S
C1336 C1339 1.539 . S
C1337 C1333 1.408 . S
C1337 C1336 1.404 . S
C1337 H1349 0.930 . S
C1338 C1334 1.524 . S
C1338 H1350 0.956 . S
C1338 H1351 0.961 . S
C1338 H1352 0.961 . S
C1339 C1336 1.539 . S
C1339 H1353 0.958 . S
C1339 H1354 0.961 . S
C1339 H1355 0.960 . S
H1340 C1324 0.931 . S
H1341 C1329 0.929 . S
H1342 C1330 0.960 . S
H1343 C1330 0.962 . S
H1344 C1330 0.960 . S
H1345 C1331 0.961 . S
H1346 C1331 0.961 . S
H1347 C1331 0.961 . S
H1348 C1332 0.931 . S
H1349 C1337 0.930 . S
H1350 C1338 0.956 . S
H1351 C1338 0.961 . S
H1352 C1338 0.961 . S
H1353 C1339 0.958 . S
H1354 C1339 0.961 . S
H1355 C1339 0.960 . S
C397 N343 0.987 . S
C405 N13 0.942 . S
C429 N46 1.041 . S
C437 N376 1.045 . S
C461 N79 1.091 . S
C469 N211 1.000 . S
C493 N112 0.862 . S
C501 N244 0.961 . S
C525 N145 1.018 . S
C533 N277 1.047 . S
C557 N178 0.975 . S
C565 N310 1.055 . S
C589 N2 1.733 . S
C597 C183 1.708 . S
C621 C18 1.740 . S
C629 N35 1.727 . S
C653 C51 1.714 . S
C661 N68 1.751 . S
C685 N101 1.758 . S
C693 C84 1.735 . S
C717 N134 1.787 . S
C725 C117 1.797 . S
C749 N167 1.773 . S
C757 C150 1.742 . S
C781 C249 1.716 . S
C789 N200 1.734 . S
C813 N233 1.706 . S
C821 C282 1.709 . S
C845 N266 1.739 . S
C853 C315 1.733 . S
C877 N299 1.784 . S
C885 C348 1.795 . S
C909 N332 1.731 . S
C917 C381 1.725 . S
C941 N365 1.727 . S
C949 C216 1.732 . S
C973 C7 0.678 . S
C981 C304 0.711 . S
C1005 C40 0.852 . S
C1013 C337 0.831 . S
C1037 C73 0.821 . S
C1045 C370 0.796 . S
C1069 C106 0.822 . S
C1077 C205 0.850 . S
C1101 C139 0.716 . S
C1109 C238 0.704 . S
C1133 C271 0.782 . S
C1141 C172 0.773 . S
C1165 C219 1.390 . S
C1173 C21 1.362 . S
C1197 C54 1.391 . S
C1205 C252 1.363 . S
C1229 C87 1.358 . S
C1237 C285 1.391 . S
C1261 C318 1.382 . S
C1269 C120 1.426 . S
C1293 C153 1.445 . S
C1301 C351 1.415 . S
C1325 C384 1.409 . S
C1333 C186 1.392 . S
