# Generated by pormake.
# Topology etd, (3)-cn, num edge types: 1
# Building blocks:
#     Node 0, Type 0, BuildingBlock: WUSLED_clean_sbu_0, # of connection points: 3
#     Node 1, Type 0, BuildingBlock: WUSLED_clean_sbu_0, # of connection points: 3
#     Node 2, Type 0, BuildingBlock: WUSLED_clean_sbu_0, # of connection points: 3
#     Node 3, Type 0, BuildingBlock: WUSLED_clean_sbu_0, # of connection points: 3
#     Node 4, Type 0, BuildingBlock: WUSLED_clean_sbu_0, # of connection points: 3
#     Node 5, Type 0, BuildingBlock: WUSLED_clean_sbu_0, # of connection points: 3
#     Node 6, Type 0, BuildingBlock: WUSLED_clean_sbu_0, # of connection points: 3
#     Node 7, Type 0, BuildingBlock: WUSLED_clean_sbu_0, # of connection points: 3
#     Node 8, Type 0, BuildingBlock: WUSLED_clean_sbu_0, # of connection points: 3
#     Node 9, Type 0, BuildingBlock: WUSLED_clean_sbu_0, # of connection points: 3
#     Node 10, Type 0, BuildingBlock: WUSLED_clean_sbu_0, # of connection points: 3
#     Node 11, Type 0, BuildingBlock: WUSLED_clean_sbu_0, # of connection points: 3
#     Edge 12, Type (0, 0), BuildingBlock: MIFKUJ_clean_linker_0, # of connection points: 2
#     Edge 13, Type (0, 0), BuildingBlock: MIFKUJ_clean_linker_0, # of connection points: 2
#     Edge 14, Type (0, 0), BuildingBlock: MIFKUJ_clean_linker_0, # of connection points: 2
#     Edge 15, Type (0, 0), BuildingBlock: MIFKUJ_clean_linker_0, # of connection points: 2
#     Edge 16, Type (0, 0), BuildingBlock: MIFKUJ_clean_linker_0, # of connection points: 2
#     Edge 17, Type (0, 0), BuildingBlock: MIFKUJ_clean_linker_0, # of connection points: 2
#     Edge 18, Type (0, 0), BuildingBlock: MIFKUJ_clean_linker_0, # of connection points: 2
#     Edge 19, Type (0, 0), BuildingBlock: MIFKUJ_clean_linker_0, # of connection points: 2
#     Edge 20, Type (0, 0), BuildingBlock: MIFKUJ_clean_linker_0, # of connection points: 2
#     Edge 21, Type (0, 0), BuildingBlock: MIFKUJ_clean_linker_0, # of connection points: 2
#     Edge 22, Type (0, 0), BuildingBlock: MIFKUJ_clean_linker_0, # of connection points: 2
#     Edge 23, Type (0, 0), BuildingBlock: MIFKUJ_clean_linker_0, # of connection points: 2
#     Edge 24, Type (0, 0), BuildingBlock: MIFKUJ_clean_linker_0, # of connection points: 2
#     Edge 25, Type (0, 0), BuildingBlock: MIFKUJ_clean_linker_0, # of connection points: 2
#     Edge 26, Type (0, 0), BuildingBlock: MIFKUJ_clean_linker_0, # of connection points: 2
#     Edge 27, Type (0, 0), BuildingBlock: MIFKUJ_clean_linker_0, # of connection points: 2
#     Edge 28, Type (0, 0), BuildingBlock: MIFKUJ_clean_linker_0, # of connection points: 2
#     Edge 29, Type (0, 0), BuildingBlock: MIFKUJ_clean_linker_0, # of connection points: 2
# Relax obj value: 0.000
# Max RMSD: 0.003
# Mean RMSD: 0.003
data_MOF--net-etd--node1-WUSLED_clean_sbu_0--edge1-MIFKUJ_clean_linker_0
_symmetry_space_group_name_H-M    P1
_symmetry_Int_Tables_number       1
_symmetry_cell_setting            triclinic
loop_
_symmetry_equiv_pos_as_xyz
'x, y, z'
_cell_length_a     108.32532
_cell_length_b     108.15548
_cell_length_c     77.59293
_cell_angle_alpha  90.024094
_cell_angle_beta   89.811681
_cell_angle_gamma 120.23036
loop_
_atom_site_label
_atom_site_type_symbol
_atom_site_fract_x
_atom_site_fract_y
_atom_site_fract_z
_atom_type_partial_charge
C0 C 0.50215 0.16343 0.10223 0.0
C1 C 0.50787 0.17289 0.1162 0.0
C2 C 0.50353 0.19026 0.10137 0.0
C3 C 0.50857 0.18619 0.11578 0.0
C4 C 0.49794 0.18074 0.08737 0.0
C5 C 0.49725 0.16748 0.08782 0.0
U6 U 0.50973 0.13566 0.12267 0.0
O7 O 0.49568 0.11235 0.12548 0.0
O8 O 0.51551 0.12088 0.11046 0.0
C9 C 0.50368 0.10942 0.11547 0.0
C10 C 0.50107 0.14929 0.10249 0.0
C11 C 0.49606 0.09832 0.10229 0.0
C12 C 0.48487 0.09059 0.07416 0.0
C13 C 0.49191 0.10141 0.08649 0.0
C14 C 0.48598 0.07355 0.09339 0.0
C15 C 0.48182 0.07651 0.07747 0.0
C16 C 0.49302 0.08434 0.10563 0.0
C17 C 0.53114 0.14495 0.165 0.0
C18 C 0.54422 0.13398 0.17664 0.0
C19 C 0.5383 0.14833 0.1951 0.0
C20 C 0.53157 0.1508 0.18127 0.0
C21 C 0.54481 0.13997 0.19295 0.0
C22 C 0.5374 0.13639 0.16281 0.0
C23 C 0.52445 0.14827 0.15055 0.0
O24 O 0.51309 0.14931 0.10005 0.0
O25 O 0.49318 0.14062 0.11492 0.0
O26 O 0.51041 0.14108 0.15018 0.0
O27 O 0.53031 0.14969 0.13527 0.0
H28 H 0.51171 0.16994 0.12747 0.0
H29 H 0.51281 0.19317 0.12686 0.0
H30 H 0.49419 0.18359 0.07595 0.0
H31 H 0.49286 0.16035 0.07688 0.0
H32 H 0.48171 0.09323 0.06212 0.0
H33 H 0.49413 0.11215 0.0837 0.0
H34 H 0.48404 0.06292 0.09629 0.0
H35 H 0.49618 0.08176 0.11773 0.0
H36 H 0.54898 0.12737 0.1746 0.0
H37 H 0.5387 0.15325 0.2074 0.0
H38 H 0.52684 0.15745 0.18323 0.0
H39 H 0.53712 0.13168 0.15039 0.0
C40 C 0.35877 0.4959 0.2683 0.0
C41 C 0.35236 0.4965 0.28381 0.0
C42 C 0.33357 0.49767 0.26788 0.0
C43 C 0.33984 0.49731 0.2836 0.0
C44 C 0.34015 0.49724 0.2524 0.0
C45 C 0.35259 0.49633 0.25262 0.0
U46 U 0.39453 0.50384 0.28771 0.0
O47 O 0.40419 0.49025 0.29005 0.0
O48 O 0.41508 0.51011 0.27496 0.0
C49 C 0.41498 0.49842 0.27983 0.0
C50 C 0.37184 0.49482 0.26814 0.0
C51 C 0.41863 0.49106 0.26647 0.0
C52 C 0.41202 0.47289 0.24427 0.0
C53 C 0.40815 0.48001 0.25635 0.0
C54 C 0.43686 0.48794 0.25213 0.0
C55 C 0.42644 0.47668 0.24211 0.0
C56 C 0.43299 0.49501 0.26416 0.0
C57 C 0.40705 0.52627 0.32949 0.0
C58 C 0.42606 0.52918 0.34872 0.0
C59 C 0.41629 0.54491 0.35129 0.0
C60 C 0.40695 0.53775 0.33771 0.0
C61 C 0.42598 0.54073 0.357 0.0
C62 C 0.41671 0.52204 0.33502 0.0
C63 C 0.39686 0.51891 0.31537 0.0
O64 O 0.38385 0.50683 0.26529 0.0
O65 O 0.37289 0.48701 0.2804 0.0
O66 O 0.39035 0.50485 0.3153 0.0
O67 O 0.40103 0.52459 0.29998 0.0
H68 H 0.35701 0.49633 0.29608 0.0
H69 H 0.33516 0.4978 0.29575 0.0
H70 H 0.33553 0.49735 0.24008 0.0
H71 H 0.35736 0.49589 0.24051 0.0
H72 H 0.4037 0.46422 0.23688 0.0
H73 H 0.39698 0.4768 0.25792 0.0
H74 H 0.44808 0.49137 0.25062 0.0
H75 H 0.44124 0.50356 0.27179 0.0
H76 H 0.43346 0.52576 0.3527 0.0
H77 H 0.41576 0.55359 0.35753 0.0
H78 H 0.39955 0.54115 0.33367 0.0
H79 H 0.417 0.51322 0.32879 0.0
C80 C 0.88124 0.35102 0.43599 0.0
C81 C 0.87466 0.34389 0.4514 0.0
C82 C 0.85401 0.32591 0.43544 0.0
C83 C 0.86122 0.33142 0.45112 0.0
C84 C 0.86052 0.33327 0.42008 0.0
C85 C 0.87401 0.34566 0.42037 0.0
U86 U 0.91045 0.38616 0.45578 0.0
O87 O 0.93364 0.39464 0.4579 0.0
O88 O 0.92564 0.40659 0.44343 0.0
C89 C 0.93684 0.40563 0.44785 0.0
C90 C 0.89568 0.36384 0.43584 0.0
C91 C 0.94761 0.40866 0.43427 0.0
C92 C 0.95456 0.40973 0.40417 0.0
C93 C 0.94392 0.4059 0.41677 0.0
C94 C 0.97264 0.41876 0.4264 0.0
C95 C 0.96907 0.41631 0.40883 0.0
C96 C 0.96203 0.415 0.43895 0.0
C97 C 0.90217 0.39882 0.49859 0.0
C98 C 0.91503 0.42281 0.51074 0.0
C99 C 0.89755 0.40306 0.52805 0.0
C100 C 0.89489 0.39372 0.51427 0.0
C101 C 0.90757 0.41775 0.52644 0.0
C102 C 0.91238 0.41342 0.49694 0.0
C103 C 0.89852 0.38878 0.48407 0.0
O104 O 0.89625 0.37615 0.43349 0.0
O105 O 0.90454 0.36437 0.44776 0.0
O106 O 0.90533 0.3816 0.48341 0.0
O107 O 0.89724 0.39345 0.46892 0.0
H108 H 0.87996 0.34788 0.46366 0.0
H109 H 0.85642 0.32612 0.46319 0.0
H110 H 0.85533 0.32925 0.40778 0.0
H111 H 0.87887 0.35099 0.40833 0.0
H112 H 0.95142 0.40754 0.39078 0.0
H113 H 0.93285 0.40094 0.41283 0.0
H114 H 0.98369 0.42397 0.43046 0.0
H115 H 0.96512 0.41727 0.45236 0.0
H116 H 0.92292 0.43402 0.50912 0.0
H117 H 0.89147 0.39881 0.53984 0.0
H118 H 0.88694 0.3825 0.51577 0.0
H119 H 0.91818 0.41757 0.48496 0.0
C120 C 0.55086 0.8739 0.60231 0.0
C121 C 0.54122 0.86273 0.61307 0.0
C122 C 0.54982 0.84723 0.60211 0.0
C123 C 0.54067 0.8495 0.61293 0.0
C124 C 0.55949 0.85853 0.59144 0.0
C125 C 0.55999 0.87171 0.59154 0.0
U126 U 0.54278 0.90172 0.6218 0.0
O127 O 0.55622 0.92514 0.62315 0.0
O128 O 0.53594 0.91549 0.60904 0.0
C129 C 0.54776 0.92733 0.61308 0.0
C130 C 0.55152 0.88786 0.60202 0.0
C131 C 0.55466 0.938 0.59914 0.0
C132 C 0.57464 0.95226 0.57977 0.0
C133 C 0.56793 0.94129 0.59203 0.0
C134 C 0.55475 0.9565 0.58122 0.0
C135 C 0.56821 0.96014 0.57437 0.0
C136 C 0.54809 0.94559 0.59347 0.0
C137 C 0.52245 0.89343 0.66503 0.0
C138 C 0.50927 0.90439 0.67653 0.0
C139 C 0.51576 0.89071 0.69533 0.0
C140 C 0.52236 0.88803 0.68148 0.0
C141 C 0.50903 0.89884 0.69302 0.0
C142 C 0.51597 0.90176 0.66267 0.0
C143 C 0.52901 0.88988 0.65059 0.0
O144 O 0.53927 0.88742 0.59988 0.0
O145 O 0.55958 0.89706 0.61386 0.0
O146 O 0.54302 0.89744 0.64955 0.0
O147 O 0.5227 0.88769 0.63554 0.0
H148 H 0.53412 0.86424 0.62154 0.0
H149 H 0.53321 0.8411 0.62144 0.0
H150 H 0.56656 0.85712 0.58279 0.0
H151 H 0.56748 0.88019 0.58312 0.0
H152 H 0.58504 0.95481 0.57489 0.0
H153 H 0.57324 0.93559 0.59617 0.0
H154 H 0.54933 0.96211 0.57714 0.0
H155 H 0.53785 0.94322 0.59874 0.0
H156 H 0.50433 0.91081 0.67435 0.0
H157 H 0.51562 0.88611 0.70778 0.0
H158 H 0.52727 0.88155 0.68357 0.0
H159 H 0.51598 0.90612 0.6501 0.0
C160 C 0.69519 0.54215 0.76764 0.0
C161 C 0.70085 0.54026 0.78302 0.0
C162 C 0.72054 0.54064 0.76711 0.0
C163 C 0.71341 0.53955 0.78277 0.0
C164 C 0.71467 0.54234 0.75174 0.0
C165 C 0.70215 0.54311 0.75203 0.0
U166 U 0.65996 0.5352 0.78804 0.0
O167 O 0.6505 0.54901 0.78959 0.0
O168 O 0.63911 0.52848 0.77595 0.0
C169 C 0.63949 0.54047 0.77996 0.0
C170 C 0.68211 0.54318 0.76758 0.0
C171 C 0.63555 0.54727 0.76616 0.0
C172 C 0.64132 0.56672 0.74598 0.0
C173 C 0.64567 0.56005 0.75809 0.0
C174 C 0.61678 0.54772 0.74953 0.0
C175 C 0.62677 0.56072 0.74171 0.0
C176 C 0.62113 0.54111 0.76162 0.0
C177 C 0.64858 0.51525 0.83174 0.0
C178 C 0.62476 0.50124 0.84419 0.0
C179 C 0.64561 0.50909 0.86219 0.0
C180 C 0.65445 0.51584 0.848 0.0
C181 C 0.63064 0.5015 0.86045 0.0
C182 C 0.63365 0.50806 0.82997 0.0
C183 C 0.65831 0.52166 0.81686 0.0
O184 O 0.67005 0.53102 0.7658 0.0
O185 O 0.6814 0.55158 0.77933 0.0
O186 O 0.66496 0.53568 0.81565 0.0
O187 O 0.65371 0.51518 0.80195 0.0
H188 H 0.6956 0.53945 0.79523 0.0
H189 H 0.71766 0.53838 0.79488 0.0
H190 H 0.71966 0.54295 0.73942 0.0
H191 H 0.6979 0.54446 0.74001 0.0
H192 H 0.6493 0.57676 0.74031 0.0
H193 H 0.65688 0.56503 0.76136 0.0
H194 H 0.60555 0.54262 0.74633 0.0
H195 H 0.61314 0.53123 0.76764 0.0
H196 H 0.6133 0.49543 0.84233 0.0
H197 H 0.65053 0.50978 0.87455 0.0
H198 H 0.66594 0.52139 0.84967 0.0
H199 H 0.62885 0.50749 0.81754 0.0
C200 C 0.17188 0.68919 0.93676 0.0
C201 C 0.18352 0.68981 0.94548 0.0
C202 C 0.19885 0.71462 0.9364 0.0
C203 C 0.1969 0.70239 0.94523 0.0
C204 C 0.1871 0.71393 0.92777 0.0
C205 C 0.17378 0.70134 0.92794 0.0
U206 U 0.14363 0.65334 0.95635 0.0
O207 O 0.12033 0.64414 0.95872 0.0
O208 O 0.12892 0.63289 0.94382 0.0
C209 C 0.11749 0.63341 0.94837 0.0
C210 C 0.1577 0.67608 0.93669 0.0
C211 C 0.10672 0.63032 0.93482 0.0
C212 C 0.09955 0.62788 0.9047 0.0
C213 C 0.11022 0.63186 0.91719 0.0
C214 C 0.0818 0.62116 0.92724 0.0
C215 C 0.08518 0.62236 0.90957 0.0
C216 C 0.09244 0.62506 0.9397 0.0
C217 C 0.15291 0.64098 0.99876 0.0
C218 C 0.14107 0.61701 1.01112 0.0
C219 C 0.15856 0.63711 0.02783 0.0
C220 C 0.1605 0.64632 1.01414 0.0
C221 C 0.14899 0.6223 0.02644 0.0
C222 C 0.14303 0.62627 0.99738 0.0
C223 C 0.15597 0.65095 0.98427 0.0
O224 O 0.15756 0.664 0.93401 0.0
O225 O 0.14889 0.67514 0.94898 0.0
O226 O 0.14869 0.65766 0.98397 0.0
O227 O 0.15737 0.64653 0.96899 0.0
H228 H 0.18226 0.68057 0.95247 0.0
H229 H 0.20567 0.7026 0.95216 0.0
H230 H 0.18825 0.72306 0.92065 0.0
H231 H 0.16494 0.70108 0.92113 0.0
H232 H 0.10255 0.6291 0.89121 0.0
H233 H 0.12117 0.63596 0.91304 0.0
H234 H 0.07084 0.61679 0.93148 0.0
H235 H 0.08946 0.62371 0.9532 0.0
H236 H 0.13368 0.60566 1.00956 0.0
H237 H 0.16462 0.64162 0.03952 0.0
H238 H 0.16812 0.65764 0.01549 0.0
H239 H 0.13702 0.62193 0.98561 0.0
C240 C 0.88053 0.54138 0.76148 0.0
C241 C 0.87351 0.54043 0.74591 0.0
C242 C 0.85349 0.53948 0.76164 0.0
C243 C 0.86015 0.53954 0.74599 0.0
C244 C 0.86051 0.54027 0.77719 0.0
C245 C 0.8739 0.54123 0.77708 0.0
U246 U 0.90934 0.53502 0.74161 0.0
O247 O 0.93267 0.54907 0.7404 0.0
O248 O 0.92348 0.52849 0.754 0.0
C249 C 0.93512 0.54061 0.75019 0.0
C250 C 0.89474 0.54262 0.76175 0.0
C251 C 0.94572 0.54742 0.76418 0.0
C252 C 0.96116 0.56789 0.78225 0.0
C253 C 0.95016 0.56133 0.77009 0.0
C254 C 0.96318 0.54661 0.78312 0.0
C255 C 0.96796 0.56068 0.78875 0.0
C256 C 0.95224 0.5401 0.77097 0.0
C257 C 0.90154 0.5153 0.69801 0.0
C258 C 0.91386 0.50372 0.68576 0.0
C259 C 0.89771 0.50758 0.6681 0.0
C260 C 0.89495 0.51401 0.68207 0.0
C261 C 0.90711 0.50225 0.66978 0.0
C262 C 0.91113 0.51023 0.69974 0.0
C263 C 0.89783 0.52152 0.71267 0.0
O264 O 0.89474 0.53054 0.76361 0.0
O265 O 0.90397 0.55115 0.75014 0.0
O266 O 0.90511 0.53554 0.71391 0.0
O267 O 0.89583 0.515 0.72758 0.0
H268 H 0.87838 0.5404 0.7337 0.0
H269 H 0.85497 0.53878 0.73381 0.0
H270 H 0.85579 0.54041 0.78945 0.0
H271 H 0.87913 0.54196 0.78923 0.0
H272 H 0.96461 0.57876 0.78617 0.0
H273 H 0.94535 0.56727 0.76508 0.0
H274 H 0.96793 0.54061 0.78806 0.0
H275 H 0.94902 0.52937 0.76662 0.0
H276 H 0.92127 0.49987 0.68744 0.0
H277 H 0.89217 0.50646 0.6561 0.0
H278 H 0.88748 0.51781 0.68049 0.0
H279 H 0.91639 0.51118 0.71193 0.0
C280 C 0.35856 0.87528 0.92802 0.0
C281 C 0.35638 0.86467 0.916 0.0
C282 C 0.333 0.84843 0.92864 0.0
C283 C 0.34372 0.85135 0.91633 0.0
C284 C 0.33531 0.85915 0.94065 0.0
C285 C 0.34796 0.87242 0.94033 0.0
U286 U 0.39411 0.90289 0.9075 0.0
O287 O 0.40384 0.92623 0.90499 0.0
O288 O 0.4149 0.91732 0.91956 0.0
C289 C 0.41478 0.92892 0.91481 0.0
C290 C 0.37176 0.88938 0.92788 0.0
C291 C 0.41853 0.93992 0.9282 0.0
C292 C 0.41241 0.94981 0.95278 0.0
C293 C 0.40855 0.93894 0.9405 0.0
C294 C 0.43626 0.96262 0.94063 0.0
C295 C 0.42631 0.96185 0.95292 0.0
C296 C 0.43239 0.95178 0.92842 0.0
C297 C 0.40564 0.89334 0.86485 0.0
C298 C 0.42915 0.90715 0.85162 0.0
C299 C 0.41005 0.88726 0.83623 0.0
C300 C 0.40082 0.88474 0.85011 0.0
C301 C 0.42436 0.89845 0.83681 0.0
C302 C 0.41985 0.90463 0.86552 0.0
C303 C 0.39571 0.89016 0.87941 0.0
O304 O 0.3837 0.88922 0.93011 0.0
O305 O 0.37267 0.89818 0.91563 0.0
O306 O 0.38921 0.89764 0.88002 0.0
O307 O 0.40022 0.88866 0.89454 0.0
H308 H 0.36444 0.86671 0.90634 0.0
H309 H 0.34225 0.84342 0.90677 0.0
H310 H 0.3274 0.85722 0.95045 0.0
H311 H 0.34947 0.88047 0.94974 0.0
H312 H 0.40443 0.94891 0.96195 0.0
H313 H 0.39777 0.92985 0.94053 0.0
H314 H 0.44711 0.97155 0.94052 0.0
H315 H 0.44026 0.9527 0.91906 0.0
H316 H 0.44005 0.91595 0.85243 0.0
H317 H 0.40605 0.88022 0.82517 0.0
H318 H 0.38989 0.87595 0.84938 0.0
H319 H 0.42376 0.91144 0.87679 0.0
C320 C 0.50134 0.34886 0.09328 0.0
C321 C 0.51391 0.34916 0.08801 0.0
C322 C 0.50301 0.32357 0.09375 0.0
C323 C 0.51476 0.33665 0.08833 0.0
C324 C 0.49041 0.32332 0.09884 0.0
C325 C 0.48961 0.33584 0.09865 0.0
U326 U 0.50975 0.38497 0.07412 0.0
O327 O 0.49591 0.39433 0.07097 0.0
O328 O 0.51522 0.40527 0.08685 0.0
C329 C 0.50357 0.40499 0.08151 0.0
C330 C 0.50021 0.36193 0.09335 0.0
C331 C 0.49555 0.4081 0.09456 0.0
C332 C 0.4863 0.40632 0.12366 0.0
C333 C 0.49338 0.40257 0.11138 0.0
C334 C 0.48323 0.4209 0.10235 0.0
C335 C 0.48119 0.4156 0.11932 0.0
C336 C 0.49033 0.41719 0.09014 0.0
C337 C 0.5331 0.39792 0.03295 0.0
C338 C 0.53993 0.42009 0.01761 0.0
C339 C 0.54836 0.4044 1.00763 0.0
C340 C 0.541 0.39491 0.02109 0.0
C341 C 0.548 0.41715 1.00574 0.0
C342 C 0.53255 0.41055 0.03114 0.0
C343 C 0.52559 0.38768 0.04703 0.0
O344 O 0.512 0.37402 0.09673 0.0
O345 O 0.4928 0.36306 0.0807 0.0
O346 O 0.51156 0.38105 0.04664 0.0
O347 O 0.53084 0.39192 0.06256 0.0
H348 H 0.52308 0.35906 0.08366 0.0
H349 H 0.52456 0.33718 0.08412 0.0
H350 H 0.48122 0.31348 0.10326 0.0
H351 H 0.47981 0.33536 0.10277 0.0
H352 H 0.48478 0.40192 0.13654 0.0
H353 H 0.49727 0.39548 0.11505 0.0
H354 H 0.47965 0.42821 0.09859 0.0
H355 H 0.49194 0.42161 0.07725 0.0
H356 H 0.53951 0.42985 0.01661 0.0
H357 H 0.55423 0.40165 0.99858 0.0
H358 H 0.54147 0.38517 0.02224 0.0
H359 H 0.5265 0.41304 0.04021 0.0
C360 C 0.1729 0.49559 0.26098 0.0
C361 C 0.1808 0.49796 0.24573 0.0
C362 C 0.19969 0.49693 0.26166 0.0
C363 C 0.19405 0.4986 0.24605 0.0
C364 C 0.19175 0.49474 0.27691 0.0
C365 C 0.17851 0.49406 0.27655 0.0
U366 U 0.14521 0.50327 0.24068 0.0
O367 O 0.12187 0.48972 0.23876 0.0
O368 O 0.13115 0.51002 0.25293 0.0
C369 C 0.11944 0.49816 0.24866 0.0
C370 C 0.15884 0.49469 0.26096 0.0
C371 C 0.10854 0.49123 0.26237 0.0
C372 C 0.09402 0.47126 0.28164 0.0
C373 C 0.10514 0.47795 0.26956 0.0
C374 C 0.08981 0.49118 0.27982 0.0
C375 C 0.08608 0.47771 0.28677 0.0
C376 C 0.10087 0.49782 0.26775 0.0
C377 C 0.15492 0.5242 0.19772 0.0
C378 C 0.14093 0.53322 0.18372 0.0
C379 C 0.16238 0.5362 0.17 0.0
C380 C 0.16447 0.52916 0.18379 0.0
C381 C 0.15067 0.53847 0.16983 0.0
C382 C 0.14305 0.52616 0.19758 0.0
C383 C 0.15783 0.51735 0.21232 0.0
O384 O 0.1591 0.50687 0.26307 0.0
O385 O 0.14986 0.48659 0.24895 0.0
O386 O 0.15012 0.50332 0.21309 0.0
O387 O 0.15947 0.52354 0.22739 0.0
H388 H 0.17668 0.49924 0.23356 0.0
H389 H 0.19975 0.50016 0.23403 0.0
H390 H 0.19583 0.49368 0.28921 0.0
H391 H 0.17262 0.49232 0.28848 0.0
H392 H 0.0914 0.46086 0.28661 0.0
H393 H 0.1109 0.47263 0.26564 0.0
H394 H 0.08416 0.49662 0.28369 0.0
H395 H 0.10332 0.50807 0.26242 0.0
H396 H 0.13186 0.53485 0.18406 0.0
H397 H 0.16994 0.53983 0.1594 0.0
H398 H 0.17365 0.52768 0.18364 0.0
H399 H 0.13555 0.52239 0.20824 0.0
C400 C 0.69523 0.16442 0.42707 0.0
C401 C 0.7001 0.17299 0.41222 0.0
C402 C 0.72057 0.19146 0.42804 0.0
C403 C 0.71267 0.18638 0.41268 0.0
C404 C 0.71546 0.18287 0.44293 0.0
C405 C 0.70294 0.16949 0.44242 0.0
U406 U 0.66018 0.13606 0.40638 0.0
O407 O 0.65137 0.11281 0.40371 0.0
O408 O 0.63955 0.12092 0.41834 0.0
C409 C 0.64038 0.10965 0.41375 0.0
C410 C 0.6823 0.15012 0.42678 0.0
C411 C 0.63721 0.09876 0.42722 0.0
C412 C 0.63572 0.09161 0.45728 0.0
C413 C 0.6396 0.10233 0.44479 0.0
C414 C 0.62736 0.07368 0.4348 0.0
C415 C 0.62947 0.07713 0.45243 0.0
C416 C 0.63116 0.08438 0.42236 0.0
C417 C 0.64831 0.14539 0.36384 0.0
C418 C 0.62492 0.1315 0.35055 0.0
C419 C 0.644 0.15161 0.33528 0.0
C420 C 0.65317 0.15411 0.34915 0.0
C421 C 0.62973 0.14032 0.33581 0.0
C422 C 0.63415 0.13399 0.36443 0.0
C423 C 0.65815 0.14866 0.37843 0.0
O424 O 0.67012 0.1498 0.42905 0.0
O425 O 0.68178 0.14152 0.41447 0.0
O426 O 0.66508 0.1416 0.37891 0.0
O427 O 0.65335 0.14976 0.3936 0.0
H428 H 0.69427 0.16926 0.40023 0.0
H429 H 0.71633 0.19261 0.40093 0.0
H430 H 0.72109 0.1865 0.45505 0.0
H431 H 0.69931 0.16307 0.45405 0.0
H432 H 0.63764 0.09466 0.47072 0.0
H433 H 0.64433 0.11337 0.44889 0.0
H434 H 0.62242 0.06265 0.4306 0.0
H435 H 0.62917 0.08137 0.40889 0.0
H436 H 0.61405 0.12262 0.35132 0.0
H437 H 0.64802 0.15876 0.3243 0.0
H438 H 0.66405 0.16299 0.34848 0.0
H439 H 0.63021 0.1271 0.37566 0.0
C440 C 0.55179 0.68849 0.59384 0.0
C441 C 0.54174 0.68965 0.58361 0.0
C442 C 0.55034 0.7139 0.59421 0.0
C443 C 0.54099 0.70222 0.58384 0.0
C444 C 0.56039 0.71264 0.60439 0.0
C445 C 0.56109 0.70006 0.6042 0.0
U446 U 0.54336 0.65249 0.57439 0.0
O447 O 0.55724 0.64315 0.57129 0.0
O448 O 0.53775 0.63212 0.58703 0.0
C449 C 0.54952 0.6325 0.58188 0.0
C450 C 0.55281 0.6754 0.59383 0.0
C451 C 0.55747 0.62948 0.59508 0.0
C452 C 0.56461 0.62943 0.62481 0.0
C453 C 0.5577 0.63327 0.61245 0.0
C454 C 0.57145 0.61835 0.60253 0.0
C455 C 0.57148 0.62182 0.62002 0.0
C456 C 0.5645 0.62211 0.59023 0.0
C457 C 0.52031 0.63989 0.53305 0.0
C458 C 0.51666 0.62039 0.51409 0.0
C459 C 0.50305 0.63231 0.5098 0.0
C460 C 0.50993 0.64121 0.52385 0.0
C461 C 0.50642 0.62189 0.50459 0.0
C462 C 0.52357 0.62934 0.52821 0.0
C463 C 0.52774 0.64994 0.54728 0.0
O464 O 0.54086 0.66337 0.59697 0.0
O465 O 0.56027 0.67432 0.58113 0.0
O466 O 0.54177 0.65659 0.54696 0.0
O467 O 0.52233 0.64559 0.56277 0.0
H468 H 0.53451 0.68084 0.57544 0.0
H469 H 0.53323 0.70287 0.57571 0.0
H470 H 0.56762 0.72131 0.61271 0.0
H471 H 0.5689 0.69937 0.6122 0.0
H472 H 0.56456 0.63243 0.63812 0.0
H473 H 0.55242 0.63903 0.6165 0.0
H474 H 0.57646 0.61234 0.5984 0.0
H475 H 0.56442 0.61904 0.57692 0.0
H476 H 0.51957 0.61254 0.51039 0.0
H477 H 0.49503 0.63359 0.50304 0.0
H478 H 0.50721 0.64923 0.52745 0.0
H479 H 0.53156 0.62816 0.53519 0.0
H480 H 0.57064 0.14106 0.19236 0.0
H481 H 0.58379 0.13902 0.2167 0.0
H482 H 0.54951 0.13221 0.25105 0.0
H483 H 0.53636 0.13433 0.22676 0.0
H484 H 0.57415 0.15114 0.26437 0.0
H485 H 0.55574 0.1047 0.23936 0.0
H486 H 0.55103 0.08725 0.21622 0.0
H487 H 0.59612 0.1047 0.20897 0.0
H488 H 0.60111 0.1224 0.23191 0.0
H489 H 0.60168 0.13356 0.33725 0.0
H490 H 0.58612 0.13135 0.31323 0.0
H491 H 0.62006 0.14023 0.27728 0.0
H492 H 0.63554 0.14202 0.30118 0.0
H493 H 0.59471 0.11924 0.26532 0.0
H494 H 0.61295 0.16633 0.28935 0.0
H495 H 0.61764 0.18378 0.31249 0.0
H496 H 0.57257 0.16484 0.32156 0.0
H497 H 0.56762 0.14715 0.29861 0.0
C498 C 0.5658 0.13891 0.20505 0.0
C499 C 0.55244 0.13787 0.20759 0.0
C500 C 0.57334 0.13774 0.21898 0.0
C501 C 0.56761 0.13533 0.23574 0.0
C502 C 0.55419 0.1341 0.23827 0.0
C503 C 0.54669 0.13535 0.22437 0.0
C504 C 0.57586 0.1347 0.25073 0.0
C505 C 0.57842 0.14397 0.26468 0.0
C506 C 0.58176 0.12561 0.25104 0.0
C507 C 0.57879 0.11496 0.23725 0.0
C508 C 0.56465 0.10489 0.23274 0.0
C509 C 0.56193 0.09494 0.21968 0.0
C510 C 0.57327 0.09489 0.2111 0.0
C511 C 0.58735 0.10477 0.2156 0.0
C512 C 0.59013 0.11475 0.22865 0.0
C513 C 0.60577 0.13482 0.32422 0.0
C514 C 0.61992 0.13808 0.32118 0.0
C515 C 0.5969 0.13368 0.3105 0.0
C516 C 0.60198 0.13583 0.29344 0.0
C517 C 0.61591 0.13859 0.29032 0.0
C518 C 0.62479 0.13974 0.30403 0.0
C519 C 0.59297 0.13567 0.27888 0.0
C520 C 0.59032 0.12631 0.26503 0.0
C521 C 0.58697 0.14466 0.27864 0.0
C522 C 0.58992 0.15533 0.29239 0.0
C523 C 0.60404 0.16582 0.29637 0.0
C524 C 0.60675 0.17576 0.30943 0.0
C525 C 0.59541 0.17539 0.31852 0.0
C526 C 0.58134 0.1651 0.31453 0.0
C527 C 0.57858 0.15512 0.30148 0.0
H528 H 0.59753 0.1831 0.32863 0.0
H529 H 0.57114 0.08718 0.20099 0.0
H530 H 0.4963 0.59308 0.50022 0.0
H531 H 0.48362 0.57825 0.47525 0.0
H532 H 0.48782 0.61539 0.44918 0.0
H533 H 0.50053 0.63023 0.47392 0.0
H534 H 0.46098 0.59359 0.44753 0.0
H535 H 0.5079 0.60022 0.43765 0.0
H536 H 0.52945 0.59913 0.44509 0.0
H537 H 0.50402 0.55354 0.45119 0.0
H538 H 0.48228 0.55439 0.44401 0.0
H539 H 0.44109 0.56957 0.36289 0.0
H540 H 0.45545 0.58207 0.38805 0.0
H541 H 0.44755 0.54193 0.40949 0.0
H542 H 0.43306 0.52929 0.38426 0.0
H543 H 0.4753 0.56337 0.41478 0.0
H544 H 0.4286 0.55649 0.42385 0.0
H545 H 0.40693 0.55733 0.41637 0.0
H546 H 0.43173 0.60312 0.41229 0.0
H547 H 0.4536 0.60253 0.41949 0.0
C548 C 0.49469 0.59812 0.48908 0.0
C549 C 0.49935 0.61285 0.48916 0.0
C550 C 0.48742 0.58962 0.47481 0.0
C551 C 0.48477 0.5957 0.46029 0.0
C552 C 0.48963 0.61042 0.46026 0.0
C553 C 0.49687 0.6189 0.47447 0.0
C554 C 0.47646 0.58675 0.44534 0.0
C555 C 0.46423 0.58712 0.44027 0.0
C556 C 0.48039 0.57791 0.43618 0.0
C557 C 0.49345 0.57739 0.44048 0.0
C558 C 0.50689 0.58998 0.44072 0.0
C559 C 0.51914 0.5894 0.44487 0.0
C560 C 0.5181 0.57628 0.44866 0.0
C561 C 0.50481 0.5637 0.44828 0.0
C562 C 0.49252 0.56422 0.44416 0.0
C563 C 0.44238 0.56337 0.37295 0.0
C564 C 0.43575 0.54839 0.37165 0.0
C565 C 0.45063 0.57054 0.38732 0.0
C566 C 0.45238 0.56292 0.40082 0.0
C567 C 0.44631 0.54804 0.39926 0.0
C568 C 0.43806 0.54083 0.38481 0.0
C569 C 0.46004 0.57051 0.41679 0.0
C570 C 0.47206 0.56982 0.4221 0.0
C571 C 0.45591 0.57904 0.42626 0.0
C572 C 0.44276 0.57946 0.42207 0.0
C573 C 0.42945 0.56673 0.42124 0.0
C574 C 0.41713 0.56716 0.41706 0.0
C575 C 0.41796 0.58027 0.41382 0.0
C576 C 0.43111 0.59297 0.41479 0.0
C577 C 0.44347 0.5926 0.41893 0.0
H578 H 0.40841 0.58058 0.41059 0.0
H579 H 0.5276 0.57586 0.45186 0.0
H580 H 0.91079 0.50993 0.63567 0.0
H581 H 0.91283 0.49681 0.61122 0.0
H582 H 0.91082 0.46467 0.64586 0.0
H583 H 0.90877 0.47775 0.67041 0.0
H584 H 0.93038 0.47063 0.62075 0.0
H585 H 0.8814 0.45913 0.62354 0.0
H586 H 0.86178 0.46445 0.6247 0.0
H587 H 0.87497 0.4859 0.57582 0.0
H588 H 0.8948 0.48088 0.57449 0.0
H589 H 0.90938 0.41352 0.56098 0.0
H590 H 0.9113 0.42913 0.58486 0.0
H591 H 0.91299 0.46025 0.54875 0.0
H592 H 0.91066 0.4445 0.52479 0.0
H593 H 0.89439 0.45559 0.57416 0.0
H594 H 0.94281 0.46605 0.57076 0.0
H595 H 0.96231 0.46057 0.5697 0.0
H596 H 0.95012 0.44086 0.61963 0.0
H597 H 0.93041 0.44604 0.62089 0.0
C598 C 0.91076 0.50006 0.6381 0.0
C599 C 0.90948 0.49484 0.65501 0.0
C600 C 0.91196 0.49258 0.6241 0.0
C601 C 0.91175 0.47962 0.62665 0.0
C602 C 0.91099 0.47463 0.64355 0.0
C603 C 0.90985 0.48215 0.65759 0.0
C604 C 0.91183 0.47103 0.61167 0.0
C605 C 0.92242 0.46721 0.61066 0.0
C606 C 0.90163 0.46681 0.59828 0.0
C607 C 0.88966 0.46976 0.599 0.0
C608 C 0.88018 0.46508 0.6131 0.0
C609 C 0.86901 0.46802 0.61378 0.0
C610 C 0.86716 0.47554 0.60037 0.0
C611 C 0.87644 0.4801 0.58622 0.0
C612 C 0.88763 0.4772 0.58549 0.0
C613 C 0.91016 0.42369 0.5581 0.0
C614 C 0.90983 0.42773 0.54094 0.0
C615 C 0.9114 0.43267 0.57178 0.0
C616 C 0.91241 0.44594 0.56863 0.0
C617 C 0.91226 0.45009 0.55151 0.0
C618 C 0.91105 0.44112 0.53781 0.0
C619 C 0.91295 0.45517 0.58321 0.0
C620 C 0.90242 0.45908 0.58418 0.0
C621 C 0.92319 0.45943 0.59655 0.0
C622 C 0.93505 0.45632 0.59585 0.0
C623 C 0.94421 0.46044 0.58146 0.0
C624 C 0.95532 0.45741 0.58083 0.0
C625 C 0.95743 0.45034 0.59457 0.0
C626 C 0.94846 0.44632 0.60899 0.0
C627 C 0.93733 0.44931 0.60967 0.0
H628 H 0.96604 0.448 0.59406 0.0
H629 H 0.85851 0.47781 0.60091 0.0
H630 H 0.51795 0.90543 0.72651 0.0
H631 H 0.50483 0.90747 0.75099 0.0
H632 H 0.46989 0.89935 0.7174 0.0
H633 H 0.48301 0.89736 0.69282 0.0
H634 H 0.47457 0.9199 0.74026 0.0
H635 H 0.4688 0.87281 0.74283 0.0
H636 H 0.47705 0.85533 0.74368 0.0
H637 H 0.49978 0.87407 0.79058 0.0
H638 H 0.49182 0.89181 0.78987 0.0
H639 H 0.41876 0.89716 0.80221 0.0
H640 H 0.43439 0.89934 0.77821 0.0
H641 H 0.46803 0.90744 0.81399 0.0
H642 H 0.45228 0.90485 0.83812 0.0
H643 H 0.46501 0.888 0.79059 0.0
H644 H 0.46961 0.93431 0.78887 0.0
H645 H 0.46123 0.95169 0.78795 0.0
H646 H 0.44054 0.93436 0.73959 0.0
H647 H 0.44862 0.91674 0.74033 0.0
C648 C 0.50747 0.90407 0.72432 0.0
C649 C 0.50149 0.9011 0.70771 0.0
C650 C 0.49998 0.90525 0.73834 0.0
C651 C 0.48625 0.90333 0.73612 0.0
C652 C 0.48045 0.90086 0.71946 0.0
C653 C 0.48798 0.89975 0.7054 0.0
C654 C 0.47776 0.90343 0.75121 0.0
C655 C 0.47235 0.91281 0.75118 0.0
C656 C 0.47513 0.89444 0.76568 0.0
C657 C 0.47984 0.88372 0.7662 0.0
C658 C 0.47564 0.87327 0.75325 0.0
C659 C 0.48025 0.8633 0.75372 0.0
C660 C 0.48897 0.86361 0.76715 0.0
C661 C 0.49305 0.87386 0.78017 0.0
C662 C 0.48849 0.88386 0.77975 0.0
C663 C 0.42948 0.89939 0.805 0.0
C664 C 0.43424 0.90079 0.82213 0.0
C665 C 0.43846 0.90078 0.79123 0.0
C666 C 0.45245 0.90369 0.79425 0.0
C667 C 0.4573 0.90524 0.81132 0.0
C668 C 0.44832 0.90387 0.82511 0.0
C669 C 0.46176 0.90443 0.77964 0.0
C670 C 0.4673 0.89516 0.77973 0.0
C671 C 0.46448 0.91351 0.76524 0.0
C672 C 0.45962 0.92411 0.76474 0.0
C673 C 0.46317 0.93413 0.7781 0.0
C674 C 0.4585 0.94404 0.7776 0.0
C675 C 0.45033 0.94411 0.76374 0.0
C676 C 0.44685 0.93428 0.75033 0.0
C677 C 0.45149 0.92434 0.75077 0.0
H678 H 0.44672 0.95179 0.76338 0.0
H679 H 0.49252 0.85589 0.7675 0.0
H680 H 0.53961 0.43227 0.98508 0.0
H681 H 0.55278 0.44817 0.96096 0.0
H682 H 0.58768 0.44052 0.96968 0.0
H683 H 0.57484 0.42506 0.99406 0.0
H684 H 0.59756 0.46814 0.96335 0.0
H685 H 0.56282 0.4233 0.9374 0.0
H686 H 0.53853 0.40325 0.93168 0.0
H687 H 0.52644 0.43254 0.91135 0.0
H688 H 0.55062 0.4528 0.91716 0.0
H689 H 0.63516 0.48595 0.88486 0.0
H690 H 0.62034 0.47339 0.90976 0.0
H691 H 0.58995 0.48604 0.89494 0.0
H692 H 0.60488 0.49887 0.86997 0.0
H693 H 0.57668 0.45796 0.90467 0.0
H694 H 0.61206 0.50256 0.92816 0.0
H695 H 0.63639 0.52259 0.93361 0.0
H696 H 0.64727 0.49395 0.95858 0.0
H697 H 0.62306 0.47369 0.95305 0.0
C698 C 0.55016 0.43412 0.98199 0.0
C699 C 0.55611 0.42728 0.99145 0.0
C700 C 0.55762 0.4431 0.96808 0.0
C701 C 0.57116 0.4454 0.96333 0.0
C702 C 0.57724 0.43888 0.97303 0.0
C703 C 0.56981 0.42993 0.98689 0.0
C704 C 0.57902 0.45444 0.94816 0.0
C705 C 0.59302 0.46583 0.95051 0.0
C706 C 0.57298 0.45174 0.93145 0.0
C707 C 0.55847 0.43957 0.9279 0.0
C708 C 0.55494 0.42547 0.93184 0.0
C709 C 0.54121 0.41407 0.92855 0.0
C710 C 0.53094 0.41662 0.9212 0.0
C711 C 0.5344 0.43058 0.91707 0.0
C712 C 0.54812 0.44203 0.92035 0.0
C713 C 0.62542 0.48625 0.88696 0.0
C714 C 0.62133 0.49359 0.87546 0.0
C715 C 0.61692 0.479 0.90121 0.0
C716 C 0.60412 0.47894 0.90439 0.0
C717 C 0.5998 0.48598 0.89277 0.0
C718 C 0.60834 0.49327 0.87848 0.0
C719 C 0.59532 0.47143 0.91983 0.0
C720 C 0.58116 0.46036 0.91755 0.0
C721 C 0.6012 0.47441 0.93663 0.0
C722 C 0.61576 0.48658 0.94007 0.0
C723 C 0.61967 0.50051 0.9347 0.0
C724 C 0.63344 0.51191 0.93782 0.0
C725 C 0.64338 0.50954 0.9464 0.0
C726 C 0.63956 0.49577 0.95192 0.0
C727 C 0.62581 0.48432 0.94882 0.0
H728 H 0.65404 0.51838 0.9488 0.0
H729 H 0.52031 0.40778 0.91867 0.0
H730 H 0.12466 0.5989 0.03918 0.0
H731 H 0.12286 0.58305 0.06285 0.0
H732 H 0.16851 0.60784 0.06988 0.0
H733 H 0.17044 0.62336 0.04601 0.0
H734 H 0.15953 0.57998 0.07094 0.0
H735 H 0.14485 0.6113 0.09678 0.0
H736 H 0.12992 0.62248 0.09948 0.0
H737 H 0.0925 0.58105 0.10573 0.0
H738 H 0.10719 0.56962 0.10284 0.0
H739 H 0.17141 0.56249 0.15368 0.0
H740 H 0.16892 0.57494 0.12894 0.0
H741 H 0.1235 0.54537 0.12832 0.0
H742 H 0.12592 0.53271 0.15316 0.0
H743 H 0.1297 0.57293 0.12276 0.0
H744 H 0.14446 0.54168 0.0993 0.0
H745 H 0.15924 0.53034 0.09679 0.0
H746 H 0.19616 0.57119 0.08576 0.0
H747 H 0.18165 0.58281 0.08845 0.0
C748 C 0.13432 0.6009 0.04568 0.0
C749 C 0.14768 0.61249 0.04074 0.0
C750 C 0.13327 0.5919 0.05932 0.0
C751 C 0.14554 0.59434 0.06831 0.0
C752 C 0.15888 0.60576 0.06322 0.0
C753 C 0.15994 0.61473 0.04964 0.0
C754 C 0.14467 0.58503 0.08297 0.0
C755 C 0.15309 0.57854 0.08232 0.0
C756 C 0.13591 0.58273 0.09761 0.0
C757 C 0.12709 0.5896 0.0994 0.0
C758 C 0.13342 0.60457 0.09859 0.0
C759 C 0.12501 0.61095 0.10018 0.0
C760 C 0.11027 0.60248 0.10272 0.0
C761 C 0.10392 0.5876 0.10373 0.0
C762 C 0.11228 0.58117 0.10213 0.0
C763 C 0.16088 0.55853 0.14824 0.0
C764 C 0.14889 0.54646 0.15529 0.0
C765 C 0.15948 0.5657 0.13409 0.0
C766 C 0.14606 0.56095 0.12655 0.0
C767 C 0.13397 0.5492 0.13388 0.0
C768 C 0.13537 0.54199 0.1481 0.0
C769 C 0.14486 0.56822 0.11088 0.0
C770 C 0.13603 0.57426 0.1113 0.0
C771 C 0.15321 0.57009 0.09597 0.0
C772 C 0.16198 0.56313 0.0942 0.0
C773 C 0.15575 0.54826 0.09645 0.0
C774 C 0.16408 0.54178 0.09498 0.0
C775 C 0.17864 0.55004 0.09115 0.0
C776 C 0.18489 0.5648 0.08874 0.0
C777 C 0.17661 0.57134 0.09021 0.0
H778 H 0.18507 0.54501 0.09002 0.0
H779 H 0.10377 0.60744 0.10395 0.0
H780 H 0.52485 0.21645 0.11282 0.0
H781 H 0.52558 0.23942 0.11168 0.0
H782 H 0.4841 0.21892 0.08765 0.0
H783 H 0.48325 0.19594 0.08886 0.0
H784 H 0.50188 0.24335 0.07144 0.0
H785 H 0.4885 0.22877 0.1303 0.0
H786 H 0.49096 0.22088 0.15926 0.0
H787 H 0.53142 0.25942 0.16552 0.0
H788 H 0.52929 0.26745 0.13648 0.0
H789 H 0.48286 0.29671 0.08316 0.0
H790 H 0.48402 0.27472 0.08441 0.0
H791 H 0.52622 0.29816 0.10633 0.0
H792 H 0.52504 0.3202 0.10536 0.0
H793 H 0.5094 0.27299 0.12345 0.0
H794 H 0.52236 0.28798 0.06501 0.0
H795 H 0.51987 0.2959 0.03611 0.0
H796 H 0.4802 0.25664 0.02904 0.0
H797 H 0.48236 0.24856 0.05802 0.0
C798 C 0.51581 0.21679 0.10746 0.0
C799 C 0.50399 0.2043 0.10093 0.0
C800 C 0.51626 0.22995 0.10679 0.0
C801 C 0.50485 0.23092 0.09968 0.0
C802 C 0.49306 0.21849 0.09313 0.0
C803 C 0.49262 0.20534 0.09378 0.0
C804 C 0.50519 0.24486 0.09889 0.0
C805 C 0.50335 0.24973 0.08285 0.0
C806 C 0.50751 0.25344 0.11369 0.0
C807 C 0.50881 0.24863 0.13115 0.0
C808 C 0.49798 0.2355 0.13779 0.0
C809 C 0.4993 0.23102 0.15423 0.0
C810 C 0.51136 0.23962 0.1642 0.0
C811 C 0.5221 0.25275 0.15777 0.0
C812 C 0.52084 0.25728 0.14133 0.0
C813 C 0.49237 0.29718 0.08832 0.0
C814 C 0.50387 0.31023 0.09415 0.0
C815 C 0.49307 0.28462 0.0889 0.0
C816 C 0.50526 0.28479 0.09533 0.0
C817 C 0.51672 0.29777 0.10127 0.0
C818 C 0.51607 0.31038 0.10058 0.0
C819 C 0.50593 0.27137 0.09603 0.0
C820 C 0.50798 0.26662 0.11203 0.0
C821 C 0.5038 0.2629 0.0812 0.0
C822 C 0.50245 0.26772 0.06377 0.0
C823 C 0.51304 0.28108 0.05736 0.0
C824 C 0.5117 0.2856 0.04095 0.0
C825 C 0.49987 0.2768 0.03076 0.0
C826 C 0.48936 0.26345 0.03695 0.0
C827 C 0.49064 0.25889 0.05337 0.0
H828 H 0.49885 0.28031 0.01805 0.0
H829 H 0.51236 0.23613 0.17693 0.0
H830 H 0.20713 0.48049 0.28109 0.0
H831 H 0.23017 0.48155 0.28222 0.0
H832 H 0.24708 0.51517 0.24412 0.0
H833 H 0.22411 0.51438 0.24311 0.0
H834 H 0.25444 0.495 0.23714 0.0
H835 H 0.25613 0.52297 0.28593 0.0
H836 H 0.2474 0.52797 0.31294 0.0
H837 H 0.24807 0.49279 0.33763 0.0
H838 H 0.25662 0.48745 0.31067 0.0
H839 H 0.32709 0.51413 0.24714 0.0
H840 H 0.30482 0.5147 0.24612 0.0
H841 H 0.28732 0.48321 0.28676 0.0
H842 H 0.30964 0.48273 0.28798 0.0
H843 H 0.28052 0.50307 0.29225 0.0
H844 H 0.27809 0.47455 0.24348 0.0
H845 H 0.28657 0.46923 0.21649 0.0
H846 H 0.28699 0.50497 0.19179 0.0
H847 H 0.27869 0.51061 0.21873 0.0
C848 C 0.21578 0.48825 0.27308 0.0
C849 C 0.21373 0.49741 0.26208 0.0
C850 C 0.22896 0.4888 0.27371 0.0
C851 C 0.24043 0.49855 0.2634 0.0
C852 C 0.23839 0.50756 0.2522 0.0
C853 C 0.22521 0.50704 0.25159 0.0
C854 C 0.25452 0.49926 0.26426 0.0
C855 C 0.26025 0.49697 0.24915 0.0
C856 C 0.26196 0.50151 0.27998 0.0
C857 C 0.25689 0.50473 0.29623 0.0
C858 C 0.25431 0.51623 0.29708 0.0
C859 C 0.24941 0.51914 0.31238 0.0
C860 C 0.24715 0.51068 0.32698 0.0
C861 C 0.24982 0.49932 0.3263 0.0
C862 C 0.2547 0.49636 0.31102 0.0
C863 C 0.31847 0.50727 0.25581 0.0
C864 C 0.32014 0.49832 0.26758 0.0
C865 C 0.30572 0.5076 0.2552 0.0
C866 C 0.29425 0.49882 0.26617 0.0
C867 C 0.29598 0.49008 0.27815 0.0
C868 C 0.30878 0.48983 0.27886 0.0
C869 C 0.28043 0.49871 0.26515 0.0
C870 C 0.27474 0.50112 0.28023 0.0
C871 C 0.273 0.49651 0.2494 0.0
C872 C 0.27791 0.49309 0.23317 0.0
C873 C 0.28009 0.48133 0.23233 0.0
C874 C 0.28485 0.47825 0.21703 0.0
C875 C 0.28736 0.48678 0.20245 0.0
C876 C 0.28507 0.49838 0.20311 0.0
C877 C 0.28032 0.50152 0.21838 0.0
H878 H 0.29104 0.48437 0.19062 0.0
H879 H 0.24336 0.51295 0.33882 0.0
H880 H 0.83023 0.32008 0.41671 0.0
H881 H 0.80739 0.29756 0.41539 0.0
H882 H 0.82301 0.27863 0.45188 0.0
H883 H 0.84594 0.30105 0.45309 0.0
H884 H 0.80994 0.26107 0.4243 0.0
H885 H 0.79947 0.28845 0.46446 0.0
H886 H 0.79801 0.30932 0.47445 0.0
H887 H 0.76959 0.30368 0.43285 0.0
H888 H 0.77104 0.28287 0.42247 0.0
H889 H 0.7453 0.19824 0.4452 0.0
H890 H 0.76745 0.22126 0.44629 0.0
H891 H 0.74924 0.23954 0.41261 0.0
H892 H 0.72677 0.21665 0.41202 0.0
H893 H 0.76355 0.25768 0.43794 0.0
H894 H 0.77362 0.23044 0.39771 0.0
H895 H 0.77506 0.2097 0.38711 0.0
H896 H 0.80424 0.21531 0.42774 0.0
H897 H 0.80283 0.23597 0.43874 0.0
C898 C 0.82882 0.31111 0.42443 0.0
C899 C 0.83992 0.31238 0.43503 0.0
C900 C 0.81571 0.29827 0.42375 0.0
C901 C 0.81344 0.28642 0.43362 0.0
C902 C 0.82451 0.28764 0.44418 0.0
C903 C 0.83757 0.3005 0.44495 0.0
C904 C 0.79964 0.27264 0.4327 0.0
C905 C 0.79981 0.26029 0.4275 0.0
C906 C 0.78638 0.27169 0.43637 0.0
C907 C 0.78549 0.2842 0.44258 0.0
C908 C 0.79302 0.29173 0.45735 0.0
C909 C 0.79217 0.30354 0.4631 0.0
C910 C 0.78375 0.30785 0.45426 0.0
C911 C 0.77613 0.30034 0.43967 0.0
C912 C 0.77695 0.28854 0.43386 0.0
C913 C 0.74591 0.20718 0.43816 0.0
C914 C 0.73418 0.20553 0.42851 0.0
C915 C 0.75868 0.22032 0.43864 0.0
C916 C 0.76013 0.23213 0.42934 0.0
C917 C 0.74842 0.23059 0.41983 0.0
C918 C 0.73561 0.21744 0.41938 0.0
C919 C 0.77384 0.24606 0.42965 0.0
C920 C 0.77366 0.25845 0.4347 0.0
C921 C 0.78711 0.24708 0.42574 0.0
C922 C 0.78801 0.23467 0.41915 0.0
C923 C 0.78026 0.22718 0.40447 0.0
C924 C 0.78108 0.21545 0.39837 0.0
C925 C 0.78971 0.21117 0.40677 0.0
C926 C 0.79755 0.21863 0.42126 0.0
C927 C 0.79675 0.23036 0.42742 0.0
H928 H 0.79033 0.20209 0.40203 0.0
H929 H 0.7831 0.31699 0.45874 0.0
H930 H 0.57267 0.74154 0.59423 0.0
H931 H 0.57168 0.76357 0.5958 0.0
H932 H 0.52563 0.73893 0.59633 0.0
H933 H 0.52654 0.71678 0.59471 0.0
H934 H 0.53473 0.76179 0.57579 0.0
H935 H 0.54451 0.75371 0.63343 0.0
H936 H 0.55724 0.74884 0.6563 0.0
H937 H 0.5959 0.78785 0.64399 0.0
H938 H 0.58345 0.79286 0.62087 0.0
H939 H 0.52619 0.82024 0.60277 0.0
H940 H 0.52549 0.79727 0.60178 0.0
H941 H 0.57152 0.8194 0.59953 0.0
H942 H 0.57232 0.84237 0.60094 0.0
H943 H 0.5613 0.79721 0.62173 0.0
H944 H 0.55137 0.80478 0.56346 0.0
H945 H 0.5384 0.80949 0.54073 0.0
H946 H 0.49958 0.77121 0.55471 0.0
H947 H 0.51229 0.76638 0.57769 0.0
C948 C 0.56231 0.74077 0.59479 0.0
C949 C 0.54968 0.72735 0.5945 0.0
C950 C 0.56176 0.7534 0.59568 0.0
C951 C 0.54858 0.75294 0.59648 0.0
C952 C 0.53593 0.73958 0.59576 0.0
C953 C 0.53647 0.72692 0.5948 0.0
C954 C 0.54804 0.7664 0.59819 0.0
C955 C 0.54037 0.76943 0.586 0.0
C956 C 0.55556 0.77652 0.61134 0.0
C957 C 0.56307 0.77359 0.62531 0.0
C958 C 0.55575 0.7612 0.63552 0.0
C959 C 0.56292 0.75842 0.64854 0.0
C960 C 0.57738 0.76801 0.65157 0.0
C961 C 0.5847 0.78042 0.64162 0.0
C962 C 0.57759 0.78324 0.62856 0.0
C963 C 0.53618 0.82023 0.60223 0.0
C964 C 0.54932 0.83318 0.60186 0.0
C965 C 0.53575 0.80707 0.6015 0.0
C966 C 0.54845 0.80658 0.60037 0.0
C967 C 0.56158 0.81949 0.60032 0.0
C968 C 0.56201 0.83263 0.601 0.0
C969 C 0.54813 0.79266 0.59923 0.0
C970 C 0.55562 0.78954 0.61156 0.0
C971 C 0.54039 0.78245 0.58626 0.0
C972 C 0.53275 0.7853 0.57241 0.0
C973 C 0.54004 0.79743 0.56178 0.0
C974 C 0.53274 0.80011 0.54883 0.0
C975 C 0.51817 0.79068 0.54631 0.0
C976 C 0.51087 0.77852 0.55669 0.0
C977 C 0.51812 0.7758 0.56967 0.0
H978 H 0.51253 0.79277 0.53628 0.0
H979 H 0.58291 0.76584 0.66166 0.0
H980 H 0.74432 0.55634 0.74693 0.0
H981 H 0.76623 0.55517 0.74594 0.0
H982 H 0.74969 0.5229 0.78571 0.0
H983 H 0.72757 0.5238 0.78658 0.0
H984 H 0.77742 0.54326 0.79173 0.0
H985 H 0.75042 0.51362 0.74439 0.0
H986 H 0.73636 0.50767 0.71763 0.0
H987 H 0.77214 0.54189 0.6912 0.0
H988 H 0.78636 0.54818 0.71788 0.0
H989 H 0.83055 0.52356 0.78289 0.0
H990 H 0.80774 0.52306 0.78378 0.0
H991 H 0.82165 0.55336 0.74184 0.0
H992 H 0.84445 0.55381 0.74078 0.0
H993 H 0.79475 0.53323 0.73716 0.0
H994 H 0.82155 0.56339 0.78449 0.0
H995 H 0.83568 0.5696 0.81123 0.0
H996 H 0.80041 0.53479 0.83763 0.0
H997 H 0.78613 0.52825 0.81097 0.0
C998 C 0.74522 0.54885 0.75534 0.0
C999 C 0.73406 0.54009 0.76676 0.0
C1000 C 0.75781 0.54823 0.75479 0.0
C1001 C 0.75957 0.53883 0.76561 0.0
C1002 C 0.74859 0.53024 0.77723 0.0
C1003 C 0.73595 0.53082 0.77776 0.0
C1004 C 0.77291 0.53806 0.76485 0.0
C1005 C 0.78111 0.54086 0.77985 0.0
C1006 C 0.77791 0.53524 0.74928 0.0
C1007 C 0.76941 0.53145 0.73319 0.0
C1008 C 0.75525 0.51995 0.73291 0.0
C1009 C 0.74726 0.5165 0.71775 0.0
C1010 C 0.75334 0.52442 0.70273 0.0
C1011 C 0.76744 0.53578 0.70284 0.0
C1012 C 0.77547 0.53928 0.71798 0.0
C1013 C 0.82879 0.53018 0.7739 0.0
C1014 C 0.83938 0.53879 0.76182 0.0
C1015 C 0.81572 0.52988 0.77443 0.0
C1016 C 0.81301 0.53835 0.76306 0.0
C1017 C 0.82346 0.54674 0.75076 0.0
C1018 C 0.8365 0.54696 0.75015 0.0
C1019 C 0.79934 0.53852 0.76402 0.0
C1020 C 0.79107 0.53561 0.74905 0.0
C1021 C 0.7943 0.54128 0.77962 0.0
C1022 C 0.80283 0.54524 0.79569 0.0
C1023 C 0.81684 0.55699 0.79596 0.0
C1024 C 0.82487 0.56058 0.81111 0.0
C1025 C 0.81896 0.55257 0.8261 0.0
C1026 C 0.80498 0.54097 0.826 0.0
C1027 C 0.79692 0.53733 0.81088 0.0
H1028 H 0.82519 0.55537 0.83782 0.0
H1029 H 0.74714 0.52174 0.691 0.0
H1030 H 0.20445 0.74215 0.94014 0.0
H1031 H 0.22753 0.76426 0.93852 0.0
H1032 H 0.24851 0.73981 0.93032 0.0
H1033 H 0.22539 0.71759 0.93204 0.0
H1034 H 0.26364 0.76127 0.95202 0.0
H1035 H 0.24253 0.75695 0.89674 0.0
H1036 H 0.2237 0.75354 0.87628 0.0
H1037 H 0.22522 0.79157 0.89529 0.0
H1038 H 0.24392 0.7951 0.91604 0.0
H1039 H 0.32942 0.82161 0.92411 0.0
H1040 H 0.30711 0.79855 0.92498 0.0
H1041 H 0.2836 0.82022 0.93514 0.0
H1042 H 0.30577 0.84329 0.93382 0.0
H1043 H 0.27026 0.79958 0.9114 0.0
H1044 H 0.2911 0.8033 0.96733 0.0
H1045 H 0.31006 0.80652 0.98747 0.0
H1046 H 0.30932 0.76939 0.96652 0.0
H1047 H 0.29047 0.76607 0.94609 0.0
C1048 C 0.21395 0.74146 0.9379 0.0
C1049 C 0.21303 0.72808 0.93607 0.0
C1050 C 0.22717 0.75413 0.93697 0.0
C1051 C 0.23978 0.75376 0.93399 0.0
C1052 C 0.23895 0.7404 0.93259 0.0
C1053 C 0.22572 0.7277 0.93361 0.0
C1054 C 0.25377 0.76731 0.93224 0.0
C1055 C 0.26514 0.76956 0.94295 0.0
C1056 C 0.25573 0.77825 0.92059 0.0
C1057 C 0.24454 0.77622 0.90805 0.0
C1058 C 0.23878 0.76453 0.89664 0.0
C1059 C 0.22814 0.76259 0.88498 0.0
C1060 C 0.22324 0.77232 0.88452 0.0
C1061 C 0.22901 0.78403 0.89568 0.0
C1062 C 0.23964 0.78602 0.90738 0.0
C1063 C 0.31949 0.82148 0.92637 0.0
C1064 C 0.31943 0.83433 0.92897 0.0
C1065 C 0.30675 0.80827 0.92703 0.0
C1066 C 0.29366 0.80761 0.93033 0.0
C1067 C 0.29355 0.82043 0.93265 0.0
C1068 C 0.30627 0.83362 0.93203 0.0
C1069 C 0.28006 0.79362 0.93132 0.0
C1070 C 0.26876 0.79128 0.92043 0.0
C1071 C 0.27821 0.78258 0.94273 0.0
C1072 C 0.28949 0.78453 0.95506 0.0
C1073 C 0.29506 0.79589 0.96693 0.0
C1074 C 0.30577 0.79772 0.97841 0.0
C1075 C 0.31092 0.78819 0.97824 0.0
C1076 C 0.30533 0.77678 0.96662 0.0
C1077 C 0.29463 0.77491 0.95509 0.0
H1078 H 0.31921 0.78962 0.98714 0.0
H1079 H 0.215 0.77079 0.87548 0.0
H1080 H 0.46101 0.04857 0.08286 0.0
H1081 H 0.4503 0.0292 0.0618 0.0
H1082 H 0.47525 0.05869 0.02136 0.0
H1083 H 0.48609 0.07815 0.04241 0.0
H1084 H 0.44802 0.04049 1.01087 0.0
H1085 H 0.48535 0.03633 0.03881 0.0
H1086 H 0.49833 0.0343 0.06368 0.0
H1087 H 0.461 0.99505 0.07882 0.0
H1088 H 0.44773 0.99696 0.05416 0.0
H1089 H 0.44299 0.99077 0.94764 0.0
H1090 H 0.45091 1.00994 0.96884 0.0
H1091 H 0.42682 0.97895 1.00838 0.0
H1092 H 0.41926 0.95962 0.98732 0.0
H1093 H 0.45273 0.99762 0.01978 0.0
H1094 H 0.41557 1.00114 0.99131 0.0
H1095 H 0.40243 1.00314 0.96659 0.0
H1096 H 0.43904 0.04335 0.95255 0.0
H1097 H 0.45247 0.0415 0.97706 0.0
C1098 C 0.46427 0.05096 0.0695 0.0
C1099 C 0.47454 0.06493 0.06439 0.0
C1100 C 0.45811 0.03986 0.05745 0.0
C1101 C 0.46212 0.04242 0.04001 0.0
C1102 C 0.47199 0.05643 0.03474 0.0
C1103 C 0.47816 0.06757 0.0468 0.0
C1104 C 0.45632 0.03041 0.02739 0.0
C1105 C 0.44919 0.03119 1.01271 0.0
C1106 C 0.45752 1.01809 0.02998 0.0
C1107 C 0.46551 1.01687 0.04474 0.0
C1108 C 0.47988 0.02732 0.04752 0.0
C1109 C 0.4873 0.02618 0.06156 0.0
C1110 C 0.48049 1.01457 0.07285 0.0
C1111 C 0.46626 1.00405 0.07008 0.0
C1112 C 0.45879 1.00515 0.05606 0.0
C1113 C 0.43942 0.98799 0.96086 0.0
C1114 C 0.43051 0.9736 0.96575 0.0
C1115 C 0.44383 0.99901 0.97295 0.0
C1116 C 0.43935 0.99595 0.99021 0.0
C1117 C 0.43039 0.98161 0.99513 0.0
C1118 C 0.42597 0.97056 0.98303 0.0
C1119 C 0.44444 1.00767 1.00319 0.0
C1120 C 0.45147 1.00687 0.01795 0.0
C1121 C 0.44312 0.01994 1.00067 0.0
C1122 C 0.43507 0.02111 0.98594 0.0
C1123 C 0.42086 1.01035 0.98287 0.0
C1124 C 0.41335 1.01147 0.96891 0.0
C1125 C 0.41991 0.02335 0.95798 0.0
C1126 C 0.43398 0.03415 0.96102 0.0
C1127 C 0.44154 0.03308 0.97495 0.0
H1128 H 0.41408 0.02419 0.94718 0.0
H1129 H 0.48625 1.01371 0.08372 0.0
H1130 H 0.4577 0.41863 0.11515 0.0
H1131 H 0.44709 0.42754 0.13602 0.0
H1132 H 0.47789 0.43167 0.17404 0.0
H1133 H 0.48859 0.42278 0.1532 0.0
H1134 H 0.45172 0.42091 0.18831 0.0
H1135 H 0.48198 0.46079 0.15165 0.0
H1136 H 0.49084 0.47335 0.12389 0.0
H1137 H 0.44943 0.46765 0.11311 0.0
H1138 H 0.44027 0.45488 0.14072 0.0
H1139 H 0.4466 0.46871 0.24636 0.0
H1140 H 0.45437 0.45707 0.2256 0.0
H1141 H 0.4235 0.45497 0.189 0.0
H1142 H 0.416 0.46714 0.20954 0.0
H1143 H 0.44855 0.46386 0.17359 0.0
H1144 H 0.4185 0.42494 0.21088 0.0
H1145 H 0.40962 0.41236 0.23862 0.0
H1146 H 0.45039 0.41615 0.24827 0.0
H1147 H 0.45959 0.42893 0.22068 0.0
C1148 C 0.46226 0.42146 0.12793 0.0
C1149 C 0.4741 0.42009 0.13242 0.0
C1150 C 0.45616 0.42655 0.13988 0.0
C1151 C 0.46182 0.4305 0.15655 0.0
C1152 C 0.47334 0.42871 0.16126 0.0
C1153 C 0.47942 0.42358 0.14933 0.0
C1154 C 0.45597 0.43682 0.16893 0.0
C1155 C 0.45118 0.4304 0.18517 0.0
C1156 C 0.4549 0.449 0.16471 0.0
C1157 C 0.46041 0.45675 0.14816 0.0
C1158 C 0.47474 0.46213 0.1433 0.0
C1159 C 0.47982 0.4693 0.1276 0.0
C1160 C 0.47069 0.47127 0.11672 0.0
C1161 C 0.45648 0.4661 0.12154 0.0
C1162 C 0.45134 0.4589 0.13722 0.0
C1163 C 0.4415 0.46587 0.23386 0.0
C1164 C 0.43069 0.46895 0.22964 0.0
C1165 C 0.44585 0.45904 0.22205 0.0
C1166 C 0.43942 0.45496 0.20576 0.0
C1167 C 0.42859 0.45795 0.2015 0.0
C1168 C 0.42423 0.46482 0.21332 0.0
C1169 C 0.44435 0.448 0.19303 0.0
C1170 C 0.449 0.45433 0.17673 0.0
C1171 C 0.44527 0.43573 0.1972 0.0
C1172 C 0.43977 0.42801 0.21378 0.0
C1173 C 0.42561 0.42319 0.21898 0.0
C1174 C 0.42051 0.416 0.23466 0.0
C1175 C 0.42944 0.41349 0.24522 0.0
C1176 C 0.44349 0.41812 0.24009 0.0
C1177 C 0.44864 0.42532 0.22442 0.0
H1178 H 0.42548 0.40793 0.25736 0.0
H1179 H 0.47464 0.47682 0.10457 0.0
H1180 H 0.08386 0.46199 0.31574 0.0
H1181 H 0.06377 0.45044 0.33593 0.0
H1182 H 0.04042 0.46538 0.30588 0.0
H1183 H 0.06033 0.47678 0.28558 0.0
H1184 H 0.03906 0.47023 0.33949 0.0
H1185 H 0.03191 0.43035 0.30485 0.0
H1186 H 0.03866 0.41399 0.2912 0.0
H1187 H 0.04616 0.40179 0.341 0.0
H1188 H 0.03965 0.41824 0.35494 0.0
H1189 H 0.97092 0.42942 0.3779 0.0
H1190 H 0.99043 0.43862 0.35688 0.0
H1191 H 1.01292 0.42371 0.38861 0.0
H1192 H 0.99327 0.41415 0.40951 0.0
H1193 H 1.01497 0.41867 0.35462 0.0
H1194 H 1.02226 0.45845 0.38926 0.0
H1195 H 1.01559 0.4748 0.4031 0.0
H1196 H 1.00808 0.48725 0.35346 0.0
H1197 H 1.01451 0.47081 0.33932 0.0
C1198 C 0.07439 0.46268 0.3133 0.0
C1199 C 0.07379 0.47039 0.29902 0.0
C1200 C 0.0629 0.45608 0.32489 0.0
C1201 C 0.05052 0.45696 0.3224 0.0
C1202 C 0.04987 0.4646 0.30815 0.0
C1203 C 0.06132 0.47118 0.29657 0.0
C1204 C 0.03834 0.45024 0.33482 0.0
C1205 C 0.03368 0.45891 0.3426 0.0
C1206 C 0.03153 0.43555 0.33928 0.0
C1207 C 0.03544 0.42565 0.33093 0.0
C1208 C 0.03512 0.42428 0.31288 0.0
C1209 C 0.03888 0.41497 0.3051 0.0
C1210 C 0.04287 0.40689 0.31523 0.0
C1211 C 0.04308 0.40808 0.33317 0.0
C1212 C 0.03935 0.41738 0.34102 0.0
C1213 C 0.9799 0.42789 0.3803 0.0
C1214 C 0.98054 0.42111 0.39547 0.0
C1215 C 0.99113 0.43327 0.36833 0.0
C1216 C 1.00326 0.43204 0.37126 0.0
C1217 C 1.00372 0.42485 0.38609 0.0
C1218 C 0.99251 0.41949 0.3981 0.0
C1219 C 1.01564 0.43864 0.35914 0.0
C1220 C 1.02036 0.42998 0.35147 0.0
C1221 C 1.02255 0.45336 0.35479 0.0
C1222 C 1.01873 0.46329 0.36324 0.0
C1223 C 1.01908 0.46459 0.3813 0.0
C1224 C 1.01536 0.47389 0.3892 0.0
C1225 C 1.01138 0.48203 0.37917 0.0
C1226 C 1.01114 0.48092 0.36121 0.0
C1227 C 1.01483 0.47162 0.35325 0.0
H1228 H 1.0085 0.48922 0.3853 0.0
H1229 H 0.04577 0.39969 0.30918 0.0
H1230 H 0.63255 0.05346 0.45177 0.0
H1231 H 0.62358 0.03387 0.47267 0.0
H1232 H 0.60664 0.05497 0.50385 0.0
H1233 H 0.61566 0.07463 0.48304 0.0
H1234 H 0.61872 0.04394 0.52378 0.0
H1235 H 0.58515 0.0267 0.47682 0.0
H1236 H 0.57783 0.02106 0.44644 0.0
H1237 H 0.5941 0.99215 0.44498 0.0
H1238 H 0.60168 0.99777 0.4753 0.0
H1239 H 0.56913 0.98594 0.57497 0.0
H1240 H 0.58071 1.00567 0.5545 0.0
H1241 H 0.59614 0.98211 0.52552 0.0
H1242 H 0.58406 0.96202 0.54563 0.0
H1243 H 0.586 0.99419 0.50433 0.0
H1244 H 0.61851 1.01045 0.55169 0.0
H1245 H 0.62587 1.01606 0.58205 0.0
H1246 H 0.61179 0.04674 0.58283 0.0
H1247 H 0.60416 0.04117 0.55252 0.0
C1248 C 0.62689 0.05392 0.46306 0.0
C1249 C 0.62475 0.06559 0.46565 0.0
C1250 C 0.62176 0.0427 0.47501 0.0
C1251 C 0.61422 0.0428 0.48973 0.0
C1252 C 0.61241 0.05462 0.4926 0.0
C1253 C 0.61761 0.06589 0.4807 0.0
C1254 C 0.60798 0.03049 0.50199 0.0
C1255 C 0.61144 0.03309 0.51954 0.0
C1256 C 0.59877 1.01623 0.49646 0.0
C1257 C 0.59411 1.01276 0.47827 0.0
C1258 C 0.58725 1.01922 0.46998 0.0
C1259 C 0.58304 1.01601 0.45278 0.0
C1260 C 0.58553 1.00628 0.44377 0.0
C1261 C 0.59219 0.9997 0.45196 0.0
C1262 C 0.59644 1.00288 0.46916 0.0
C1263 C 0.57486 0.98485 0.56417 0.0
C1264 C 0.57559 0.97231 0.56197 0.0
C1265 C 0.58165 0.99625 0.55256 0.0
C1266 C 0.58949 0.9955 0.53856 0.0
C1267 C 0.59022 0.983 0.53626 0.0
C1268 C 0.58339 0.97155 0.54786 0.0
C1269 C 0.59664 1.00766 0.52615 0.0
C1270 C 0.59334 1.00503 0.50856 0.0
C1271 C 0.60601 0.02188 0.53166 0.0
C1272 C 0.61065 0.0253 0.54987 0.0
C1273 C 0.61689 1.01832 0.55837 0.0
C1274 C 0.62113 0.0215 0.57556 0.0
C1275 C 0.61927 0.03173 0.58438 0.0
C1276 C 0.61321 0.03881 0.57599 0.0
C1277 C 0.60894 0.03566 0.5588 0.0
H1278 H 0.62256 0.03417 0.59769 0.0
H1279 H 0.58227 1.00382 0.43045 0.0
H1280 H 0.63963 0.5749 0.71158 0.0
H1281 H 0.63121 0.58642 0.69138 0.0
H1282 H 0.59449 0.57461 0.72378 0.0
H1283 H 0.60288 0.56323 0.74407 0.0
H1284 H 0.58664 0.56858 0.6909 0.0
H1285 H 0.62247 0.60913 0.72199 0.0
H1286 H 0.64648 0.62518 0.73376 0.0
H1287 H 0.66407 0.63422 0.68257 0.0
H1288 H 0.64018 0.61806 0.6705 0.0
H1289 H 0.56124 0.6106 0.65208 0.0
H1290 H 0.57156 0.60146 0.67295 0.0
H1291 H 0.60704 0.61264 0.6386 0.0
H1292 H 0.59694 0.62212 0.6178 0.0
H1293 H 0.61589 0.61914 0.672 0.0
H1294 H 0.58012 0.57857 0.64099 0.0
H1295 H 0.55611 0.56258 0.6292 0.0
H1296 H 0.53848 0.55358 0.68036 0.0
H1297 H 0.56237 0.56969 0.69246 0.0
C1298 C 0.62985 0.57489 0.71452 0.0
C1299 C 0.62192 0.56805 0.72946 0.0
C1300 C 0.62503 0.58148 0.70293 0.0
C1301 C 0.61223 0.58146 0.70608 0.0
C1302 C 0.60435 0.57471 0.721 0.0
C1303 C 0.60915 0.56814 0.73257 0.0
C1304 C 0.60681 0.58813 0.69366 0.0
C1305 C 0.59299 0.5797 0.68697 0.0
C1306 C 0.61518 0.60254 0.68814 0.0
C1307 C 0.62956 0.61226 0.69536 0.0
C1308 C 0.63147 0.61444 0.71325 0.0
C1309 C 0.64506 0.62358 0.71997 0.0
C1310 C 0.6568 0.63068 0.70892 0.0
C1311 C 0.65497 0.62869 0.69112 0.0
C1312 C 0.64141 0.61955 0.68433 0.0
C1313 C 0.57134 0.61132 0.64905 0.0
C1314 C 0.57821 0.61704 0.63319 0.0
C1315 C 0.57718 0.60597 0.66095 0.0
C1316 C 0.58999 0.60617 0.65726 0.0
C1317 C 0.59712 0.6123 0.64171 0.0
C1318 C 0.59126 0.61761 0.62977 0.0
C1319 C 0.59571 0.5996 0.6694 0.0
C1320 C 0.60957 0.60803 0.67597 0.0
C1321 C 0.58739 0.58518 0.67484 0.0
C1322 C 0.57301 0.57545 0.66761 0.0
C1323 C 0.57111 0.57327 0.64972 0.0
C1324 C 0.55752 0.56417 0.64298 0.0
C1325 C 0.54577 0.5571 0.65402 0.0
C1326 C 0.54759 0.55908 0.67183 0.0
C1327 C 0.56115 0.56819 0.67863 0.0
H1328 H 0.53526 0.55006 0.64878 0.0
H1329 H 0.6673 0.63776 0.71415 0.0
H1330 H 0.97137 0.57857 0.81587 0.0
H1331 H 0.99146 0.59003 0.83591 0.0
H1332 H 1.01235 0.57047 0.80946 0.0
H1333 H 0.99244 0.55912 0.78931 0.0
H1334 H 1.01329 0.56759 0.84355 0.0
H1335 H 1.02357 0.60604 0.80449 0.0
H1336 H 1.01859 0.62269 0.78838 0.0
H1337 H 1.01249 0.63928 0.83592 0.0
H1338 H 1.01724 0.62257 0.85233 0.0
H1339 H 0.0821 0.60694 0.88024 0.0
H1340 H 0.06249 0.59756 0.85951 0.0
H1341 H 0.04232 0.61666 0.88843 0.0
H1342 H 0.06207 0.62635 0.90905 0.0
H1343 H 0.04073 0.61999 0.85364 0.0
H1344 H 0.03053 0.58165 0.89264 0.0
H1345 H 0.03558 0.56507 0.90878 0.0
H1346 H 0.04148 0.54829 0.86127 0.0
H1347 H 0.03666 0.56493 0.84483 0.0
C1348 C 0.9803 0.57682 0.81419 0.0
C1349 C 0.98021 0.56785 0.80097 0.0
C1350 C 0.99179 0.58338 0.82569 0.0
C1351 C 1.00349 0.5812 0.82416 0.0
C1352 C 1.00343 0.57227 0.81098 0.0
C1353 C 0.99198 0.56573 0.7995 0.0
C1354 C 1.01568 0.58794 0.83645 0.0
C1355 C 1.0194 0.57907 0.84557 0.0
C1356 C 1.02346 0.60289 0.83946 0.0
C1357 C 1.0206 0.61294 0.82963 0.0
C1358 C 1.02104 0.61315 0.81151 0.0
C1359 C 1.01829 0.62261 0.80233 0.0
C1360 C 1.01519 0.632 0.81112 0.0
C1361 C 1.01487 0.63198 0.82913 0.0
C1362 C 1.0176 0.62252 0.83838 0.0
C1363 C 0.07361 0.60933 0.88207 0.0
C1364 C 0.07365 0.61736 0.89638 0.0
C1365 C 0.06233 0.60385 0.87028 0.0
C1366 C 0.05082 0.60624 0.87252 0.0
C1367 C 0.05104 0.61462 0.88646 0.0
C1368 C 0.06229 0.62006 0.89832 0.0
C1369 C 0.03838 0.59965 0.86058 0.0
C1370 C 0.03461 0.60852 0.85159 0.0
C1371 C 0.03053 0.58469 0.85767 0.0
C1372 C 0.03337 0.57463 0.86751 0.0
C1373 C 0.03302 0.5745 0.88563 0.0
C1374 C 0.03582 0.56508 0.89484 0.0
C1375 C 0.03889 0.55566 0.88606 0.0
C1376 C 0.03912 0.55561 0.86805 0.0
C1377 C 0.03634 0.56503 0.85878 0.0
H1378 H 0.04105 0.54837 0.8932 0.0
H1379 H 1.01306 0.63933 0.80399 0.0
loop_
_geom_bond_atom_site_label_1
_geom_bond_atom_site_label_2
_geom_bond_distance
_geom_bond_site_symmetry_2
_ccdc_geom_bond_type
C0 C1 1.264 . S
C0 C5 1.479 . S
C0 C10 1.465 . S
C1 C0 1.264 . S
C1 C3 1.339 . S
C1 H28 0.931 . S
C2 C3 1.395 . S
C2 C4 1.320 . S
C3 C1 1.339 . S
C3 C2 1.395 . S
C3 H29 0.929 . S
C4 C2 1.320 . S
C4 C5 1.405 . S
C4 H30 0.930 . S
C5 C0 1.479 . S
C5 C4 1.405 . S
C5 H31 0.931 . S
U6 O7 2.454 . S
U6 O8 2.458 . S
U6 C9 2.984 . S
U6 C10 2.847 . S
U6 C23 2.882 . S
U6 O24 2.441 . S
U6 O25 2.420 . S
U6 O26 2.455 . S
U6 O27 2.449 . S
O7 U6 2.454 . S
O7 C9 1.353 . S
O8 U6 2.458 . S
O8 C9 1.286 . S
C9 U6 2.984 . S
C9 O7 1.353 . S
C9 O8 1.286 . S
C9 C11 1.363 . S
C10 C0 1.465 . S
C10 U6 2.847 . S
C10 O24 1.249 . S
C10 O25 1.202 . S
C11 C9 1.363 . S
C11 C13 1.408 . S
C11 C16 1.342 . S
C12 C13 1.310 . S
C12 C15 1.461 . S
C12 H32 0.932 . S
C13 C11 1.408 . S
C13 C12 1.310 . S
C13 H33 0.930 . S
C14 C15 1.474 . S
C14 C16 1.285 . S
C14 H34 0.929 . S
C15 C12 1.461 . S
C15 C14 1.474 . S
C16 C11 1.342 . S
C16 C14 1.285 . S
C16 H35 0.930 . S
C17 C20 1.424 . S
C17 C22 1.245 . S
C17 C23 1.428 . S
C18 C21 1.260 . S
C18 C22 1.477 . S
C18 H36 0.932 . S
C19 C20 1.384 . S
C19 C21 1.479 . S
C19 H37 0.929 . S
C20 C17 1.424 . S
C20 C19 1.384 . S
C20 H38 0.928 . S
C21 C18 1.260 . S
C21 C19 1.479 . S
C22 C17 1.245 . S
C22 C18 1.477 . S
C22 H39 0.932 . S
C23 U6 2.882 . S
C23 C17 1.428 . S
C23 O26 1.301 . S
C23 O27 1.282 . S
O24 U6 2.441 . S
O24 C10 1.249 . S
O25 U6 2.420 . S
O25 C10 1.202 . S
O26 U6 2.455 . S
O26 C23 1.301 . S
O27 U6 2.449 . S
O27 C23 1.282 . S
H28 C1 0.931 . S
H29 C3 0.929 . S
H30 C4 0.930 . S
H31 C5 0.931 . S
H32 C12 0.932 . S
H33 C13 0.930 . S
H34 C14 0.929 . S
H35 C16 0.930 . S
H36 C18 0.932 . S
H37 C19 0.929 . S
H38 C20 0.928 . S
H39 C22 0.932 . S
C40 C41 1.264 . S
C40 C45 1.479 . S
C40 C50 1.465 . S
C41 C40 1.264 . S
C41 C43 1.339 . S
C41 H68 0.931 . S
C42 C43 1.395 . S
C42 C44 1.320 . S
C43 C41 1.339 . S
C43 C42 1.395 . S
C43 H69 0.929 . S
C44 C42 1.320 . S
C44 C45 1.405 . S
C44 H70 0.930 . S
C45 C40 1.479 . S
C45 C44 1.405 . S
C45 H71 0.931 . S
U46 O47 2.454 . S
U46 O48 2.458 . S
U46 C49 2.984 . S
U46 C50 2.847 . S
U46 C63 2.882 . S
U46 O64 2.441 . S
U46 O65 2.420 . S
U46 O66 2.455 . S
U46 O67 2.449 . S
O47 U46 2.454 . S
O47 C49 1.353 . S
O48 U46 2.458 . S
O48 C49 1.286 . S
C49 U46 2.984 . S
C49 O47 1.353 . S
C49 O48 1.286 . S
C49 C51 1.363 . S
C50 C40 1.465 . S
C50 U46 2.847 . S
C50 O64 1.249 . S
C50 O65 1.202 . S
C51 C49 1.363 . S
C51 C53 1.408 . S
C51 C56 1.342 . S
C52 C53 1.310 . S
C52 C55 1.461 . S
C52 H72 0.932 . S
C53 C51 1.408 . S
C53 C52 1.310 . S
C53 H73 0.930 . S
C54 C55 1.474 . S
C54 C56 1.285 . S
C54 H74 0.929 . S
C55 C52 1.461 . S
C55 C54 1.474 . S
C56 C51 1.342 . S
C56 C54 1.285 . S
C56 H75 0.930 . S
C57 C60 1.424 . S
C57 C62 1.245 . S
C57 C63 1.428 . S
C58 C61 1.260 . S
C58 C62 1.477 . S
C58 H76 0.932 . S
C59 C60 1.384 . S
C59 C61 1.479 . S
C59 H77 0.929 . S
C60 C57 1.424 . S
C60 C59 1.384 . S
C60 H78 0.928 . S
C61 C58 1.260 . S
C61 C59 1.479 . S
C62 C57 1.245 . S
C62 C58 1.477 . S
C62 H79 0.932 . S
C63 U46 2.882 . S
C63 C57 1.428 . S
C63 O66 1.301 . S
C63 O67 1.282 . S
O64 U46 2.441 . S
O64 C50 1.249 . S
O65 U46 2.420 . S
O65 C50 1.202 . S
O66 U46 2.455 . S
O66 C63 1.301 . S
O67 U46 2.449 . S
O67 C63 1.282 . S
H68 C41 0.931 . S
H69 C43 0.929 . S
H70 C44 0.930 . S
H71 C45 0.931 . S
H72 C52 0.932 . S
H73 C53 0.930 . S
H74 C54 0.929 . S
H75 C56 0.930 . S
H76 C58 0.932 . S
H77 C59 0.929 . S
H78 C60 0.928 . S
H79 C62 0.932 . S
C80 C81 1.264 . S
C80 C85 1.479 . S
C80 C90 1.465 . S
C81 C80 1.264 . S
C81 C83 1.339 . S
C81 H108 0.931 . S
C82 C83 1.395 . S
C82 C84 1.320 . S
C83 C81 1.339 . S
C83 C82 1.395 . S
C83 H109 0.929 . S
C84 C82 1.320 . S
C84 C85 1.405 . S
C84 H110 0.930 . S
C85 C80 1.479 . S
C85 C84 1.405 . S
C85 H111 0.931 . S
U86 O87 2.454 . S
U86 O88 2.458 . S
U86 C89 2.984 . S
U86 C90 2.847 . S
U86 C103 2.882 . S
U86 O104 2.441 . S
U86 O105 2.420 . S
U86 O106 2.455 . S
U86 O107 2.449 . S
O87 U86 2.454 . S
O87 C89 1.353 . S
O88 U86 2.458 . S
O88 C89 1.286 . S
C89 U86 2.984 . S
C89 O87 1.353 . S
C89 O88 1.286 . S
C89 C91 1.363 . S
C90 C80 1.465 . S
C90 U86 2.847 . S
C90 O104 1.249 . S
C90 O105 1.202 . S
C91 C89 1.363 . S
C91 C93 1.408 . S
C91 C96 1.342 . S
C92 C93 1.310 . S
C92 C95 1.461 . S
C92 H112 0.932 . S
C93 C91 1.408 . S
C93 C92 1.310 . S
C93 H113 0.930 . S
C94 C95 1.474 . S
C94 C96 1.285 . S
C94 H114 0.929 . S
C95 C92 1.461 . S
C95 C94 1.474 . S
C96 C91 1.342 . S
C96 C94 1.285 . S
C96 H115 0.930 . S
C97 C100 1.424 . S
C97 C102 1.245 . S
C97 C103 1.428 . S
C98 C101 1.260 . S
C98 C102 1.477 . S
C98 H116 0.932 . S
C99 C100 1.384 . S
C99 C101 1.479 . S
C99 H117 0.929 . S
C100 C97 1.424 . S
C100 C99 1.384 . S
C100 H118 0.928 . S
C101 C98 1.260 . S
C101 C99 1.479 . S
C102 C97 1.245 . S
C102 C98 1.477 . S
C102 H119 0.932 . S
C103 U86 2.882 . S
C103 C97 1.428 . S
C103 O106 1.301 . S
C103 O107 1.282 . S
O104 U86 2.441 . S
O104 C90 1.249 . S
O105 U86 2.420 . S
O105 C90 1.202 . S
O106 U86 2.455 . S
O106 C103 1.301 . S
O107 U86 2.449 . S
O107 C103 1.282 . S
H108 C81 0.931 . S
H109 C83 0.929 . S
H110 C84 0.930 . S
H111 C85 0.931 . S
H112 C92 0.932 . S
H113 C93 0.930 . S
H114 C94 0.929 . S
H115 C96 0.930 . S
H116 C98 0.932 . S
H117 C99 0.929 . S
H118 C100 0.928 . S
H119 C102 0.932 . S
C120 C121 1.264 . S
C120 C125 1.479 . S
C120 C130 1.465 . S
C121 C120 1.264 . S
C121 C123 1.339 . S
C121 H148 0.931 . S
C122 C123 1.395 . S
C122 C124 1.320 . S
C123 C121 1.339 . S
C123 C122 1.395 . S
C123 H149 0.929 . S
C124 C122 1.320 . S
C124 C125 1.405 . S
C124 H150 0.930 . S
C125 C120 1.479 . S
C125 C124 1.405 . S
C125 H151 0.931 . S
U126 O127 2.454 . S
U126 O128 2.458 . S
U126 C129 2.984 . S
U126 C130 2.847 . S
U126 C143 2.882 . S
U126 O144 2.441 . S
U126 O145 2.420 . S
U126 O146 2.455 . S
U126 O147 2.449 . S
O127 U126 2.454 . S
O127 C129 1.353 . S
O128 U126 2.458 . S
O128 C129 1.286 . S
C129 U126 2.984 . S
C129 O127 1.353 . S
C129 O128 1.286 . S
C129 C131 1.363 . S
C130 C120 1.465 . S
C130 U126 2.847 . S
C130 O144 1.249 . S
C130 O145 1.202 . S
C131 C129 1.363 . S
C131 C133 1.408 . S
C131 C136 1.342 . S
C132 C133 1.310 . S
C132 C135 1.461 . S
C132 H152 0.932 . S
C133 C131 1.408 . S
C133 C132 1.310 . S
C133 H153 0.930 . S
C134 C135 1.474 . S
C134 C136 1.285 . S
C134 H154 0.929 . S
C135 C132 1.461 . S
C135 C134 1.474 . S
C136 C131 1.342 . S
C136 C134 1.285 . S
C136 H155 0.930 . S
C137 C140 1.424 . S
C137 C142 1.245 . S
C137 C143 1.428 . S
C138 C141 1.260 . S
C138 C142 1.477 . S
C138 H156 0.932 . S
C139 C140 1.384 . S
C139 C141 1.479 . S
C139 H157 0.929 . S
C140 C137 1.424 . S
C140 C139 1.384 . S
C140 H158 0.928 . S
C141 C138 1.260 . S
C141 C139 1.479 . S
C142 C137 1.245 . S
C142 C138 1.477 . S
C142 H159 0.932 . S
C143 U126 2.882 . S
C143 C137 1.428 . S
C143 O146 1.301 . S
C143 O147 1.282 . S
O144 U126 2.441 . S
O144 C130 1.249 . S
O145 U126 2.420 . S
O145 C130 1.202 . S
O146 U126 2.455 . S
O146 C143 1.301 . S
O147 U126 2.449 . S
O147 C143 1.282 . S
H148 C121 0.931 . S
H149 C123 0.929 . S
H150 C124 0.930 . S
H151 C125 0.931 . S
H152 C132 0.932 . S
H153 C133 0.930 . S
H154 C134 0.929 . S
H155 C136 0.930 . S
H156 C138 0.932 . S
H157 C139 0.929 . S
H158 C140 0.928 . S
H159 C142 0.932 . S
C160 C161 1.264 . S
C160 C165 1.479 . S
C160 C170 1.465 . S
C161 C160 1.264 . S
C161 C163 1.339 . S
C161 H188 0.931 . S
C162 C163 1.395 . S
C162 C164 1.320 . S
C163 C161 1.339 . S
C163 C162 1.395 . S
C163 H189 0.929 . S
C164 C162 1.320 . S
C164 C165 1.405 . S
C164 H190 0.930 . S
C165 C160 1.479 . S
C165 C164 1.405 . S
C165 H191 0.931 . S
U166 O167 2.454 . S
U166 O168 2.458 . S
U166 C169 2.984 . S
U166 C170 2.847 . S
U166 C183 2.882 . S
U166 O184 2.441 . S
U166 O185 2.420 . S
U166 O186 2.455 . S
U166 O187 2.449 . S
O167 U166 2.454 . S
O167 C169 1.353 . S
O168 U166 2.458 . S
O168 C169 1.286 . S
C169 U166 2.984 . S
C169 O167 1.353 . S
C169 O168 1.286 . S
C169 C171 1.363 . S
C170 C160 1.465 . S
C170 U166 2.847 . S
C170 O184 1.249 . S
C170 O185 1.202 . S
C171 C169 1.363 . S
C171 C173 1.408 . S
C171 C176 1.342 . S
C172 C173 1.310 . S
C172 C175 1.461 . S
C172 H192 0.932 . S
C173 C171 1.408 . S
C173 C172 1.310 . S
C173 H193 0.930 . S
C174 C175 1.474 . S
C174 C176 1.285 . S
C174 H194 0.929 . S
C175 C172 1.461 . S
C175 C174 1.474 . S
C176 C171 1.342 . S
C176 C174 1.285 . S
C176 H195 0.930 . S
C177 C180 1.424 . S
C177 C182 1.245 . S
C177 C183 1.428 . S
C178 C181 1.260 . S
C178 C182 1.477 . S
C178 H196 0.932 . S
C179 C180 1.384 . S
C179 C181 1.479 . S
C179 H197 0.929 . S
C180 C177 1.424 . S
C180 C179 1.384 . S
C180 H198 0.928 . S
C181 C178 1.260 . S
C181 C179 1.479 . S
C182 C177 1.245 . S
C182 C178 1.477 . S
C182 H199 0.932 . S
C183 U166 2.882 . S
C183 C177 1.428 . S
C183 O186 1.301 . S
C183 O187 1.282 . S
O184 U166 2.441 . S
O184 C170 1.249 . S
O185 U166 2.420 . S
O185 C170 1.202 . S
O186 U166 2.455 . S
O186 C183 1.301 . S
O187 U166 2.449 . S
O187 C183 1.282 . S
H188 C161 0.931 . S
H189 C163 0.929 . S
H190 C164 0.930 . S
H191 C165 0.931 . S
H192 C172 0.932 . S
H193 C173 0.930 . S
H194 C174 0.929 . S
H195 C176 0.930 . S
H196 C178 0.932 . S
H197 C179 0.929 . S
H198 C180 0.928 . S
H199 C182 0.932 . S
C200 C201 1.264 . S
C200 C205 1.479 . S
C200 C210 1.465 . S
C201 C200 1.264 . S
C201 C203 1.339 . S
C201 H228 0.931 . S
C202 C203 1.395 . S
C202 C204 1.320 . S
C203 C201 1.339 . S
C203 C202 1.395 . S
C203 H229 0.929 . S
C204 C202 1.320 . S
C204 C205 1.405 . S
C204 H230 0.930 . S
C205 C200 1.479 . S
C205 C204 1.405 . S
C205 H231 0.931 . S
U206 O207 2.454 . S
U206 O208 2.458 . S
U206 C209 2.984 . S
U206 C210 2.847 . S
U206 C223 2.882 . S
U206 O224 2.441 . S
U206 O225 2.420 . S
U206 O226 2.455 . S
U206 O227 2.449 . S
O207 U206 2.454 . S
O207 C209 1.353 . S
O208 U206 2.458 . S
O208 C209 1.286 . S
C209 U206 2.984 . S
C209 O207 1.353 . S
C209 O208 1.286 . S
C209 C211 1.363 . S
C210 C200 1.465 . S
C210 U206 2.847 . S
C210 O224 1.249 . S
C210 O225 1.202 . S
C211 C209 1.363 . S
C211 C213 1.408 . S
C211 C216 1.342 . S
C212 C213 1.310 . S
C212 C215 1.461 . S
C212 H232 0.932 . S
C213 C211 1.408 . S
C213 C212 1.310 . S
C213 H233 0.930 . S
C214 C215 1.474 . S
C214 C216 1.285 . S
C214 H234 0.929 . S
C215 C212 1.461 . S
C215 C214 1.474 . S
C216 C211 1.342 . S
C216 C214 1.285 . S
C216 H235 0.930 . S
C217 C220 1.424 1_556 S
C217 C222 1.245 . S
C217 C223 1.428 . S
C218 C221 1.260 . S
C218 C222 1.477 1_554 S
C218 H236 0.932 . S
C219 C220 1.384 . S
C219 C221 1.479 . S
C219 H237 0.929 . S
C220 C217 1.424 1_554 S
C220 C219 1.384 . S
C220 H238 0.944 . S
C221 C218 1.260 . S
C221 C219 1.479 . S
C222 C217 1.245 . S
C222 C218 1.477 1_556 S
C222 H239 0.932 . S
C223 U206 2.882 . S
C223 C217 1.428 . S
C223 O226 1.301 . S
C223 O227 1.282 . S
O224 U206 2.441 . S
O224 C210 1.249 . S
O225 U206 2.420 . S
O225 C210 1.202 . S
O226 U206 2.455 . S
O226 C223 1.301 . S
O227 U206 2.449 . S
O227 C223 1.282 . S
H228 C201 0.931 . S
H229 C203 0.929 . S
H230 C204 0.930 . S
H231 C205 0.931 . S
H232 C212 0.932 . S
H233 C213 0.930 . S
H234 C214 0.929 . S
H235 C216 0.930 . S
H236 C218 0.932 . S
H237 C219 0.929 . S
H238 C220 0.944 . S
H239 C222 0.932 . S
C240 C241 1.264 . S
C240 C245 1.479 . S
C240 C250 1.465 . S
C241 C240 1.264 . S
C241 C243 1.339 . S
C241 H268 0.931 . S
C242 C243 1.395 . S
C242 C244 1.320 . S
C243 C241 1.339 . S
C243 C242 1.395 . S
C243 H269 0.929 . S
C244 C242 1.320 . S
C244 C245 1.405 . S
C244 H270 0.930 . S
C245 C240 1.479 . S
C245 C244 1.405 . S
C245 H271 0.931 . S
U246 O247 2.454 . S
U246 O248 2.458 . S
U246 C249 2.984 . S
U246 C250 2.847 . S
U246 C263 2.882 . S
U246 O264 2.441 . S
U246 O265 2.420 . S
U246 O266 2.455 . S
U246 O267 2.449 . S
O247 U246 2.454 . S
O247 C249 1.353 . S
O248 U246 2.458 . S
O248 C249 1.286 . S
C249 U246 2.984 . S
C249 O247 1.353 . S
C249 O248 1.286 . S
C249 C251 1.363 . S
C250 C240 1.465 . S
C250 U246 2.847 . S
C250 O264 1.249 . S
C250 O265 1.202 . S
C251 C249 1.363 . S
C251 C253 1.408 . S
C251 C256 1.342 . S
C252 C253 1.310 . S
C252 C255 1.461 . S
C252 H272 0.932 . S
C253 C251 1.408 . S
C253 C252 1.310 . S
C253 H273 0.930 . S
C254 C255 1.474 . S
C254 C256 1.285 . S
C254 H274 0.929 . S
C255 C252 1.461 . S
C255 C254 1.474 . S
C256 C251 1.342 . S
C256 C254 1.285 . S
C256 H275 0.930 . S
C257 C260 1.424 . S
C257 C262 1.245 . S
C257 C263 1.428 . S
C258 C261 1.260 . S
C258 C262 1.477 . S
C258 H276 0.932 . S
C259 C260 1.384 . S
C259 C261 1.479 . S
C259 H277 0.929 . S
C260 C257 1.424 . S
C260 C259 1.384 . S
C260 H278 0.928 . S
C261 C258 1.260 . S
C261 C259 1.479 . S
C262 C257 1.245 . S
C262 C258 1.477 . S
C262 H279 0.932 . S
C263 U246 2.882 . S
C263 C257 1.428 . S
C263 O266 1.301 . S
C263 O267 1.282 . S
O264 U246 2.441 . S
O264 C250 1.249 . S
O265 U246 2.420 . S
O265 C250 1.202 . S
O266 U246 2.455 . S
O266 C263 1.301 . S
O267 U246 2.449 . S
O267 C263 1.282 . S
H268 C241 0.931 . S
H269 C243 0.929 . S
H270 C244 0.930 . S
H271 C245 0.931 . S
H272 C252 0.932 . S
H273 C253 0.930 . S
H274 C254 0.929 . S
H275 C256 0.930 . S
H276 C258 0.932 . S
H277 C259 0.929 . S
H278 C260 0.928 . S
H279 C262 0.932 . S
C280 C281 1.264 . S
C280 C285 1.479 . S
C280 C290 1.465 . S
C281 C280 1.264 . S
C281 C283 1.339 . S
C281 H308 0.931 . S
C282 C283 1.395 . S
C282 C284 1.320 . S
C283 C281 1.339 . S
C283 C282 1.395 . S
C283 H309 0.929 . S
C284 C282 1.320 . S
C284 C285 1.405 . S
C284 H310 0.930 . S
C285 C280 1.479 . S
C285 C284 1.405 . S
C285 H311 0.931 . S
U286 O287 2.454 . S
U286 O288 2.458 . S
U286 C289 2.984 . S
U286 C290 2.847 . S
U286 C303 2.882 . S
U286 O304 2.441 . S
U286 O305 2.420 . S
U286 O306 2.455 . S
U286 O307 2.449 . S
O287 U286 2.454 . S
O287 C289 1.353 . S
O288 U286 2.458 . S
O288 C289 1.286 . S
C289 U286 2.984 . S
C289 O287 1.353 . S
C289 O288 1.286 . S
C289 C291 1.363 . S
C290 C280 1.465 . S
C290 U286 2.847 . S
C290 O304 1.249 . S
C290 O305 1.202 . S
C291 C289 1.363 . S
C291 C293 1.408 . S
C291 C296 1.342 . S
C292 C293 1.310 . S
C292 C295 1.461 . S
C292 H312 0.932 . S
C293 C291 1.408 . S
C293 C292 1.310 . S
C293 H313 0.930 . S
C294 C295 1.474 . S
C294 C296 1.285 . S
C294 H314 0.929 . S
C295 C292 1.461 . S
C295 C294 1.474 . S
C296 C291 1.342 . S
C296 C294 1.285 . S
C296 H315 0.930 . S
C297 C300 1.424 . S
C297 C302 1.245 . S
C297 C303 1.428 . S
C298 C301 1.260 . S
C298 C302 1.477 . S
C298 H316 0.932 . S
C299 C300 1.384 . S
C299 C301 1.479 . S
C299 H317 0.929 . S
C300 C297 1.424 . S
C300 C299 1.384 . S
C300 H318 0.928 . S
C301 C298 1.260 . S
C301 C299 1.479 . S
C302 C297 1.245 . S
C302 C298 1.477 . S
C302 H319 0.932 . S
C303 U286 2.882 . S
C303 C297 1.428 . S
C303 O306 1.301 . S
C303 O307 1.282 . S
O304 U286 2.441 . S
O304 C290 1.249 . S
O305 U286 2.420 . S
O305 C290 1.202 . S
O306 U286 2.455 . S
O306 C303 1.301 . S
O307 U286 2.449 . S
O307 C303 1.282 . S
H308 C281 0.931 . S
H309 C283 0.929 . S
H310 C284 0.930 . S
H311 C285 0.931 . S
H312 C292 0.932 . S
H313 C293 0.930 . S
H314 C294 0.929 . S
H315 C296 0.930 . S
H316 C298 0.932 . S
H317 C299 0.929 . S
H318 C300 0.928 . S
H319 C302 0.932 . S
C320 C321 1.264 . S
C320 C325 1.479 . S
C320 C330 1.465 . S
C321 C320 1.264 . S
C321 C323 1.339 . S
C321 H348 0.931 . S
C322 C323 1.395 . S
C322 C324 1.320 . S
C323 C321 1.339 . S
C323 C322 1.395 . S
C323 H349 0.929 . S
C324 C322 1.320 . S
C324 C325 1.405 . S
C324 H350 0.930 . S
C325 C320 1.479 . S
C325 C324 1.405 . S
C325 H351 0.931 . S
U326 O327 2.454 . S
U326 O328 2.458 . S
U326 C329 2.984 . S
U326 C330 2.847 . S
U326 C343 2.882 . S
U326 O344 2.441 . S
U326 O345 2.420 . S
U326 O346 2.455 . S
U326 O347 2.449 . S
O327 U326 2.454 . S
O327 C329 1.353 . S
O328 U326 2.458 . S
O328 C329 1.286 . S
C329 U326 2.984 . S
C329 O327 1.353 . S
C329 O328 1.286 . S
C329 C331 1.363 . S
C330 C320 1.465 . S
C330 U326 2.847 . S
C330 O344 1.249 . S
C330 O345 1.202 . S
C331 C329 1.363 . S
C331 C333 1.408 . S
C331 C336 1.342 . S
C332 C333 1.310 . S
C332 C335 1.461 . S
C332 H352 0.932 . S
C333 C331 1.408 . S
C333 C332 1.310 . S
C333 H353 0.930 . S
C334 C335 1.474 . S
C334 C336 1.285 . S
C334 H354 0.929 . S
C335 C332 1.461 . S
C335 C334 1.474 . S
C336 C331 1.342 . S
C336 C334 1.285 . S
C336 H355 0.930 . S
C337 C340 1.424 1_554 S
C337 C342 1.245 . S
C337 C343 1.428 . S
C338 C341 1.260 . S
C338 C342 1.477 1_556 S
C338 H356 0.932 . S
C339 C340 1.384 . S
C339 C341 1.479 . S
C339 H357 0.929 . S
C340 C337 1.424 1_556 S
C340 C339 1.384 . S
C340 H358 0.943 . S
C341 C338 1.260 . S
C341 C339 1.479 . S
C342 C337 1.245 . S
C342 C338 1.477 1_554 S
C342 H359 0.932 . S
C343 U326 2.882 . S
C343 C337 1.428 . S
C343 O346 1.301 . S
C343 O347 1.282 . S
O344 U326 2.441 . S
O344 C330 1.249 . S
O345 U326 2.420 . S
O345 C330 1.202 . S
O346 U326 2.455 . S
O346 C343 1.301 . S
O347 U326 2.449 . S
O347 C343 1.282 . S
H348 C321 0.931 . S
H349 C323 0.929 . S
H350 C324 0.930 . S
H351 C325 0.931 . S
H352 C332 0.932 . S
H353 C333 0.930 . S
H354 C334 0.929 . S
H355 C336 0.930 . S
H356 C338 0.932 . S
H357 C339 0.929 . S
H358 C340 0.943 . S
H359 C342 0.932 . S
C360 C361 1.264 . S
C360 C365 1.479 . S
C360 C370 1.465 . S
C361 C360 1.264 . S
C361 C363 1.339 . S
C361 H388 0.931 . S
C362 C363 1.395 . S
C362 C364 1.320 . S
C363 C361 1.339 . S
C363 C362 1.395 . S
C363 H389 0.929 . S
C364 C362 1.320 . S
C364 C365 1.405 . S
C364 H390 0.930 . S
C365 C360 1.479 . S
C365 C364 1.405 . S
C365 H391 0.931 . S
U366 O367 2.454 . S
U366 O368 2.458 . S
U366 C369 2.984 . S
U366 C370 2.847 . S
U366 C383 2.882 . S
U366 O384 2.441 . S
U366 O385 2.420 . S
U366 O386 2.455 . S
U366 O387 2.449 . S
O367 U366 2.454 . S
O367 C369 1.353 . S
O368 U366 2.458 . S
O368 C369 1.286 . S
C369 U366 2.984 . S
C369 O367 1.353 . S
C369 O368 1.286 . S
C369 C371 1.363 . S
C370 C360 1.465 . S
C370 U366 2.847 . S
C370 O384 1.249 . S
C370 O385 1.202 . S
C371 C369 1.363 . S
C371 C373 1.408 . S
C371 C376 1.342 . S
C372 C373 1.310 . S
C372 C375 1.461 . S
C372 H392 0.932 . S
C373 C371 1.408 . S
C373 C372 1.310 . S
C373 H393 0.930 . S
C374 C375 1.474 . S
C374 C376 1.285 . S
C374 H394 0.929 . S
C375 C372 1.461 . S
C375 C374 1.474 . S
C376 C371 1.342 . S
C376 C374 1.285 . S
C376 H395 0.930 . S
C377 C380 1.424 . S
C377 C382 1.245 . S
C377 C383 1.428 . S
C378 C381 1.260 . S
C378 C382 1.477 . S
C378 H396 0.932 . S
C379 C380 1.384 . S
C379 C381 1.479 . S
C379 H397 0.929 . S
C380 C377 1.424 . S
C380 C379 1.384 . S
C380 H398 0.928 . S
C381 C378 1.260 . S
C381 C379 1.479 . S
C382 C377 1.245 . S
C382 C378 1.477 . S
C382 H399 0.932 . S
C383 U366 2.882 . S
C383 C377 1.428 . S
C383 O386 1.301 . S
C383 O387 1.282 . S
O384 U366 2.441 . S
O384 C370 1.249 . S
O385 U366 2.420 . S
O385 C370 1.202 . S
O386 U366 2.455 . S
O386 C383 1.301 . S
O387 U366 2.449 . S
O387 C383 1.282 . S
H388 C361 0.931 . S
H389 C363 0.929 . S
H390 C364 0.930 . S
H391 C365 0.931 . S
H392 C372 0.932 . S
H393 C373 0.930 . S
H394 C374 0.929 . S
H395 C376 0.930 . S
H396 C378 0.932 . S
H397 C379 0.929 . S
H398 C380 0.928 . S
H399 C382 0.932 . S
C400 C401 1.264 . S
C400 C405 1.479 . S
C400 C410 1.465 . S
C401 C400 1.264 . S
C401 C403 1.339 . S
C401 H428 0.931 . S
C402 C403 1.395 . S
C402 C404 1.320 . S
C403 C401 1.339 . S
C403 C402 1.395 . S
C403 H429 0.929 . S
C404 C402 1.320 . S
C404 C405 1.405 . S
C404 H430 0.930 . S
C405 C400 1.479 . S
C405 C404 1.405 . S
C405 H431 0.931 . S
U406 O407 2.454 . S
U406 O408 2.458 . S
U406 C409 2.984 . S
U406 C410 2.847 . S
U406 C423 2.882 . S
U406 O424 2.441 . S
U406 O425 2.420 . S
U406 O426 2.455 . S
U406 O427 2.449 . S
O407 U406 2.454 . S
O407 C409 1.353 . S
O408 U406 2.458 . S
O408 C409 1.286 . S
C409 U406 2.984 . S
C409 O407 1.353 . S
C409 O408 1.286 . S
C409 C411 1.363 . S
C410 C400 1.465 . S
C410 U406 2.847 . S
C410 O424 1.249 . S
C410 O425 1.202 . S
C411 C409 1.363 . S
C411 C413 1.408 . S
C411 C416 1.342 . S
C412 C413 1.310 . S
C412 C415 1.461 . S
C412 H432 0.932 . S
C413 C411 1.408 . S
C413 C412 1.310 . S
C413 H433 0.930 . S
C414 C415 1.474 . S
C414 C416 1.285 . S
C414 H434 0.929 . S
C415 C412 1.461 . S
C415 C414 1.474 . S
C416 C411 1.342 . S
C416 C414 1.285 . S
C416 H435 0.930 . S
C417 C420 1.424 . S
C417 C422 1.245 . S
C417 C423 1.428 . S
C418 C421 1.260 . S
C418 C422 1.477 . S
C418 H436 0.932 . S
C419 C420 1.384 . S
C419 C421 1.479 . S
C419 H437 0.929 . S
C420 C417 1.424 . S
C420 C419 1.384 . S
C420 H438 0.928 . S
C421 C418 1.260 . S
C421 C419 1.479 . S
C422 C417 1.245 . S
C422 C418 1.477 . S
C422 H439 0.932 . S
C423 U406 2.882 . S
C423 C417 1.428 . S
C423 O426 1.301 . S
C423 O427 1.282 . S
O424 U406 2.441 . S
O424 C410 1.249 . S
O425 U406 2.420 . S
O425 C410 1.202 . S
O426 U406 2.455 . S
O426 C423 1.301 . S
O427 U406 2.449 . S
O427 C423 1.282 . S
H428 C401 0.931 . S
H429 C403 0.929 . S
H430 C404 0.930 . S
H431 C405 0.931 . S
H432 C412 0.932 . S
H433 C413 0.930 . S
H434 C414 0.929 . S
H435 C416 0.930 . S
H436 C418 0.932 . S
H437 C419 0.929 . S
H438 C420 0.928 . S
H439 C422 0.932 . S
C440 C441 1.264 . S
C440 C445 1.479 . S
C440 C450 1.465 . S
C441 C440 1.264 . S
C441 C443 1.339 . S
C441 H468 0.931 . S
C442 C443 1.395 . S
C442 C444 1.320 . S
C443 C441 1.339 . S
C443 C442 1.395 . S
C443 H469 0.929 . S
C444 C442 1.320 . S
C444 C445 1.405 . S
C444 H470 0.930 . S
C445 C440 1.479 . S
C445 C444 1.405 . S
C445 H471 0.931 . S
U446 O447 2.454 . S
U446 O448 2.458 . S
U446 C449 2.984 . S
U446 C450 2.847 . S
U446 C463 2.882 . S
U446 O464 2.441 . S
U446 O465 2.420 . S
U446 O466 2.455 . S
U446 O467 2.449 . S
O447 U446 2.454 . S
O447 C449 1.353 . S
O448 U446 2.458 . S
O448 C449 1.286 . S
C449 U446 2.984 . S
C449 O447 1.353 . S
C449 O448 1.286 . S
C449 C451 1.363 . S
C450 C440 1.465 . S
C450 U446 2.847 . S
C450 O464 1.249 . S
C450 O465 1.202 . S
C451 C449 1.363 . S
C451 C453 1.408 . S
C451 C456 1.342 . S
C452 C453 1.310 . S
C452 C455 1.461 . S
C452 H472 0.932 . S
C453 C451 1.408 . S
C453 C452 1.310 . S
C453 H473 0.930 . S
C454 C455 1.474 . S
C454 C456 1.285 . S
C454 H474 0.929 . S
C455 C452 1.461 . S
C455 C454 1.474 . S
C456 C451 1.342 . S
C456 C454 1.285 . S
C456 H475 0.930 . S
C457 C460 1.424 . S
C457 C462 1.245 . S
C457 C463 1.428 . S
C458 C461 1.260 . S
C458 C462 1.477 . S
C458 H476 0.932 . S
C459 C460 1.384 . S
C459 C461 1.479 . S
C459 H477 0.929 . S
C460 C457 1.424 . S
C460 C459 1.384 . S
C460 H478 0.928 . S
C461 C458 1.260 . S
C461 C459 1.479 . S
C462 C457 1.245 . S
C462 C458 1.477 . S
C462 H479 0.932 . S
C463 U446 2.882 . S
C463 C457 1.428 . S
C463 O466 1.301 . S
C463 O467 1.282 . S
O464 U446 2.441 . S
O464 C450 1.249 . S
O465 U446 2.420 . S
O465 C450 1.202 . S
O466 U446 2.455 . S
O466 C463 1.301 . S
O467 U446 2.449 . S
O467 C463 1.282 . S
H468 C441 0.931 . S
H469 C443 0.929 . S
H470 C444 0.930 . S
H471 C445 0.931 . S
H472 C452 0.932 . S
H473 C453 0.930 . S
H474 C454 0.929 . S
H475 C456 0.930 . S
H476 C458 0.932 . S
H477 C459 0.929 . S
H478 C460 0.928 . S
H479 C462 0.932 . S
H480 C498 0.951 . S
H481 C500 0.951 . S
H482 C502 0.950 . S
H483 C503 0.950 . S
H484 C505 0.950 . S
H485 C508 0.950 . S
H486 C509 0.950 . S
H487 C511 0.950 . S
H488 C512 0.950 . S
H489 C513 0.951 . S
H490 C515 0.951 . S
H491 C517 0.950 . S
H492 C518 0.950 . S
H493 C520 0.950 . S
H494 C523 0.950 . S
H495 C524 0.950 . S
H496 C526 0.950 . S
H497 C527 0.950 . S
C498 H480 0.951 . S
C498 C499 1.366 . S
C498 C500 1.388 . S
C499 C498 1.366 . S
C499 C503 1.385 . S
C500 H481 0.951 . S
C500 C498 1.388 . S
C500 C501 1.366 . S
C501 C500 1.366 . S
C501 C502 1.414 . S
C501 C504 1.499 . S
C502 H482 0.950 . S
C502 C501 1.414 . S
C502 C503 1.374 . S
C503 H483 0.950 . S
C503 C499 1.385 . S
C503 C502 1.374 . S
C504 C501 1.499 . S
C504 C505 1.373 . S
C504 C506 1.389 . S
C505 H484 0.950 . S
C505 C504 1.373 . S
C505 C521 1.377 . S
C506 C504 1.389 . S
C506 C507 1.524 . S
C506 C520 1.377 . S
C507 C506 1.524 . S
C507 C508 1.397 . S
C507 C512 1.363 . S
C508 H485 0.950 . S
C508 C507 1.397 . S
C508 C509 1.334 . S
C509 H486 0.950 . S
C509 C508 1.334 . S
C509 C510 1.287 . S
C510 C509 1.287 . S
C510 C511 1.524 . S
C510 H529 0.913 . S
C511 H487 0.950 . S
C511 C510 1.524 . S
C511 C512 1.415 . S
C512 H488 0.950 . S
C512 C507 1.363 . S
C512 C511 1.415 . S
C513 H489 0.951 . S
C513 C514 1.366 . S
C513 C515 1.388 . S
C514 C513 1.366 . S
C514 C518 1.385 . S
C515 H490 0.951 . S
C515 C513 1.388 . S
C515 C516 1.366 . S
C516 C515 1.366 . S
C516 C517 1.414 . S
C516 C519 1.499 . S
C517 H491 0.950 . S
C517 C516 1.414 . S
C517 C518 1.374 . S
C518 H492 0.950 . S
C518 C514 1.385 . S
C518 C517 1.374 . S
C519 C516 1.499 . S
C519 C520 1.373 . S
C519 C521 1.389 . S
C520 H493 0.950 . S
C520 C506 1.377 . S
C520 C519 1.373 . S
C521 C505 1.377 . S
C521 C519 1.389 . S
C521 C522 1.524 . S
C522 C521 1.524 . S
C522 C523 1.397 . S
C522 C527 1.363 . S
C523 H494 0.950 . S
C523 C522 1.397 . S
C523 C524 1.334 . S
C524 H495 0.950 . S
C524 C523 1.334 . S
C524 C525 1.287 . S
C525 C524 1.287 . S
C525 C526 1.524 . S
C525 H528 0.999 . S
C526 H496 0.950 . S
C526 C525 1.524 . S
C526 C527 1.415 . S
C527 H497 0.950 . S
C527 C522 1.363 . S
C527 C526 1.415 . S
H528 C525 0.999 . S
H529 C510 0.913 . S
H530 C548 0.951 . S
H531 C550 0.951 . S
H532 C552 0.950 . S
H533 C553 0.950 . S
H534 C555 0.950 . S
H535 C558 0.950 . S
H536 C559 0.950 . S
H537 C561 0.950 . S
H538 C562 0.950 . S
H539 C563 0.951 . S
H540 C565 0.951 . S
H541 C567 0.950 . S
H542 C568 0.950 . S
H543 C570 0.950 . S
H544 C573 0.950 . S
H545 C574 0.950 . S
H546 C576 0.950 . S
H547 C577 0.950 . S
C548 H530 0.951 . S
C548 C549 1.366 . S
C548 C550 1.388 . S
C549 C548 1.366 . S
C549 C553 1.385 . S
C550 H531 0.951 . S
C550 C548 1.388 . S
C550 C551 1.366 . S
C551 C550 1.366 . S
C551 C552 1.414 . S
C551 C554 1.499 . S
C552 H532 0.950 . S
C552 C551 1.414 . S
C552 C553 1.374 . S
C553 H533 0.950 . S
C553 C549 1.385 . S
C553 C552 1.374 . S
C554 C551 1.499 . S
C554 C555 1.373 . S
C554 C556 1.389 . S
C555 H534 0.950 . S
C555 C554 1.373 . S
C555 C571 1.377 . S
C556 C554 1.389 . S
C556 C557 1.524 . S
C556 C570 1.377 . S
C557 C556 1.524 . S
C557 C558 1.397 . S
C557 C562 1.363 . S
C558 H535 0.950 . S
C558 C557 1.397 . S
C558 C559 1.334 . S
C559 H536 0.950 . S
C559 C558 1.334 . S
C559 C560 1.287 . S
C560 C559 1.287 . S
C560 C561 1.524 . S
C560 H579 0.913 . S
C561 H537 0.950 . S
C561 C560 1.524 . S
C561 C562 1.415 . S
C562 H538 0.950 . S
C562 C557 1.363 . S
C562 C561 1.415 . S
C563 H539 0.951 . S
C563 C564 1.366 . S
C563 C565 1.388 . S
C564 C563 1.366 . S
C564 C568 1.385 . S
C565 H540 0.951 . S
C565 C563 1.388 . S
C565 C566 1.366 . S
C566 C565 1.366 . S
C566 C567 1.414 . S
C566 C569 1.499 . S
C567 H541 0.950 . S
C567 C566 1.414 . S
C567 C568 1.374 . S
C568 H542 0.950 . S
C568 C564 1.385 . S
C568 C567 1.374 . S
C569 C566 1.499 . S
C569 C570 1.373 . S
C569 C571 1.389 . S
C570 H543 0.950 . S
C570 C556 1.377 . S
C570 C569 1.373 . S
C571 C555 1.377 . S
C571 C569 1.389 . S
C571 C572 1.524 . S
C572 C571 1.524 . S
C572 C573 1.397 . S
C572 C577 1.363 . S
C573 H544 0.950 . S
C573 C572 1.397 . S
C573 C574 1.334 . S
C574 H545 0.950 . S
C574 C573 1.334 . S
C574 C575 1.287 . S
C575 C574 1.287 . S
C575 C576 1.524 . S
C575 H578 0.999 . S
C576 H546 0.950 . S
C576 C575 1.524 . S
C576 C577 1.415 . S
C577 H547 0.950 . S
C577 C572 1.363 . S
C577 C576 1.415 . S
H578 C575 0.999 . S
H579 C560 0.913 . S
H580 C598 0.951 . S
H581 C600 0.951 . S
H582 C602 0.950 . S
H583 C603 0.950 . S
H584 C605 0.950 . S
H585 C608 0.950 . S
H586 C609 0.950 . S
H587 C611 0.950 . S
H588 C612 0.950 . S
H589 C613 0.951 . S
H590 C615 0.951 . S
H591 C617 0.950 . S
H592 C618 0.950 . S
H593 C620 0.950 . S
H594 C623 0.950 . S
H595 C624 0.950 . S
H596 C626 0.950 . S
H597 C627 0.950 . S
C598 H580 0.951 . S
C598 C599 1.366 . S
C598 C600 1.388 . S
C599 C598 1.366 . S
C599 C603 1.385 . S
C600 H581 0.951 . S
C600 C598 1.388 . S
C600 C601 1.366 . S
C601 C600 1.366 . S
C601 C602 1.414 . S
C601 C604 1.499 . S
C602 H582 0.950 . S
C602 C601 1.414 . S
C602 C603 1.374 . S
C603 H583 0.950 . S
C603 C599 1.385 . S
C603 C602 1.374 . S
C604 C601 1.499 . S
C604 C605 1.373 . S
C604 C606 1.389 . S
C605 H584 0.950 . S
C605 C604 1.373 . S
C605 C621 1.377 . S
C606 C604 1.389 . S
C606 C607 1.524 . S
C606 C620 1.377 . S
C607 C606 1.524 . S
C607 C608 1.397 . S
C607 C612 1.363 . S
C608 H585 0.950 . S
C608 C607 1.397 . S
C608 C609 1.334 . S
C609 H586 0.950 . S
C609 C608 1.334 . S
C609 C610 1.287 . S
C610 C609 1.287 . S
C610 C611 1.524 . S
C610 H629 0.913 . S
C611 H587 0.950 . S
C611 C610 1.524 . S
C611 C612 1.415 . S
C612 H588 0.950 . S
C612 C607 1.363 . S
C612 C611 1.415 . S
C613 H589 0.951 . S
C613 C614 1.366 . S
C613 C615 1.388 . S
C614 C613 1.366 . S
C614 C618 1.385 . S
C615 H590 0.951 . S
C615 C613 1.388 . S
C615 C616 1.366 . S
C616 C615 1.366 . S
C616 C617 1.414 . S
C616 C619 1.499 . S
C617 H591 0.950 . S
C617 C616 1.414 . S
C617 C618 1.374 . S
C618 H592 0.950 . S
C618 C614 1.385 . S
C618 C617 1.374 . S
C619 C616 1.499 . S
C619 C620 1.373 . S
C619 C621 1.389 . S
C620 H593 0.950 . S
C620 C606 1.377 . S
C620 C619 1.373 . S
C621 C605 1.377 . S
C621 C619 1.389 . S
C621 C622 1.524 . S
C622 C621 1.524 . S
C622 C623 1.397 . S
C622 C627 1.363 . S
C623 H594 0.950 . S
C623 C622 1.397 . S
C623 C624 1.334 . S
C624 H595 0.950 . S
C624 C623 1.334 . S
C624 C625 1.287 . S
C625 C624 1.287 . S
C625 C626 1.524 . S
C625 H628 0.999 . S
C626 H596 0.950 . S
C626 C625 1.524 . S
C626 C627 1.415 . S
C627 H597 0.950 . S
C627 C622 1.363 . S
C627 C626 1.415 . S
H628 C625 0.999 . S
H629 C610 0.913 . S
H630 C648 0.951 . S
H631 C650 0.951 . S
H632 C652 0.950 . S
H633 C653 0.950 . S
H634 C655 0.950 . S
H635 C658 0.950 . S
H636 C659 0.950 . S
H637 C661 0.950 . S
H638 C662 0.950 . S
H639 C663 0.951 . S
H640 C665 0.951 . S
H641 C667 0.950 . S
H642 C668 0.950 . S
H643 C670 0.950 . S
H644 C673 0.950 . S
H645 C674 0.950 . S
H646 C676 0.950 . S
H647 C677 0.950 . S
C648 H630 0.951 . S
C648 C649 1.366 . S
C648 C650 1.388 . S
C649 C648 1.366 . S
C649 C653 1.385 . S
C650 H631 0.951 . S
C650 C648 1.388 . S
C650 C651 1.366 . S
C651 C650 1.366 . S
C651 C652 1.414 . S
C651 C654 1.499 . S
C652 H632 0.950 . S
C652 C651 1.414 . S
C652 C653 1.374 . S
C653 H633 0.950 . S
C653 C649 1.385 . S
C653 C652 1.374 . S
C654 C651 1.499 . S
C654 C655 1.373 . S
C654 C656 1.389 . S
C655 H634 0.950 . S
C655 C654 1.373 . S
C655 C671 1.377 . S
C656 C654 1.389 . S
C656 C657 1.524 . S
C656 C670 1.377 . S
C657 C656 1.524 . S
C657 C658 1.397 . S
C657 C662 1.363 . S
C658 H635 0.950 . S
C658 C657 1.397 . S
C658 C659 1.334 . S
C659 H636 0.950 . S
C659 C658 1.334 . S
C659 C660 1.287 . S
C660 C659 1.287 . S
C660 C661 1.524 . S
C660 H679 0.913 . S
C661 H637 0.950 . S
C661 C660 1.524 . S
C661 C662 1.415 . S
C662 H638 0.950 . S
C662 C657 1.363 . S
C662 C661 1.415 . S
C663 H639 0.951 . S
C663 C664 1.366 . S
C663 C665 1.388 . S
C664 C663 1.366 . S
C664 C668 1.385 . S
C665 H640 0.951 . S
C665 C663 1.388 . S
C665 C666 1.366 . S
C666 C665 1.366 . S
C666 C667 1.414 . S
C666 C669 1.499 . S
C667 H641 0.950 . S
C667 C666 1.414 . S
C667 C668 1.374 . S
C668 H642 0.950 . S
C668 C664 1.385 . S
C668 C667 1.374 . S
C669 C666 1.499 . S
C669 C670 1.373 . S
C669 C671 1.389 . S
C670 H643 0.950 . S
C670 C656 1.377 . S
C670 C669 1.373 . S
C671 C655 1.377 . S
C671 C669 1.389 . S
C671 C672 1.524 . S
C672 C671 1.524 . S
C672 C673 1.397 . S
C672 C677 1.363 . S
C673 H644 0.950 . S
C673 C672 1.397 . S
C673 C674 1.334 . S
C674 H645 0.950 . S
C674 C673 1.334 . S
C674 C675 1.287 . S
C675 C674 1.287 . S
C675 C676 1.524 . S
C675 H678 0.999 . S
C676 H646 0.950 . S
C676 C675 1.524 . S
C676 C677 1.415 . S
C677 H647 0.950 . S
C677 C672 1.363 . S
C677 C676 1.415 . S
H678 C675 0.999 . S
H679 C660 0.913 . S
H680 C698 0.951 . S
H681 C700 0.951 . S
H682 C702 0.950 . S
H683 C703 0.950 . S
H684 C705 0.950 . S
H685 C708 0.950 . S
H686 C709 0.950 . S
H687 C711 0.950 . S
H688 C712 0.950 . S
H689 C713 0.951 . S
H690 C715 0.951 . S
H691 C717 0.950 . S
H692 C718 0.950 . S
H693 C720 0.950 . S
H694 C723 0.950 . S
H695 C724 0.950 . S
H696 C726 0.950 . S
H697 C727 0.950 . S
C698 H680 0.951 . S
C698 C699 1.366 . S
C698 C700 1.388 . S
C699 C698 1.366 . S
C699 C703 1.385 . S
C700 H681 0.951 . S
C700 C698 1.388 . S
C700 C701 1.366 . S
C701 C700 1.366 . S
C701 C702 1.414 . S
C701 C704 1.499 . S
C702 H682 0.950 . S
C702 C701 1.414 . S
C702 C703 1.374 . S
C703 H683 0.950 . S
C703 C699 1.385 . S
C703 C702 1.374 . S
C704 C701 1.499 . S
C704 C705 1.373 . S
C704 C706 1.389 . S
C705 H684 0.950 . S
C705 C704 1.373 . S
C705 C721 1.377 . S
C706 C704 1.389 . S
C706 C707 1.524 . S
C706 C720 1.377 . S
C707 C706 1.524 . S
C707 C708 1.397 . S
C707 C712 1.363 . S
C708 H685 0.950 . S
C708 C707 1.397 . S
C708 C709 1.334 . S
C709 H686 0.950 . S
C709 C708 1.334 . S
C709 C710 1.287 . S
C710 C709 1.287 . S
C710 C711 1.524 . S
C710 H729 0.913 . S
C711 H687 0.950 . S
C711 C710 1.524 . S
C711 C712 1.415 . S
C712 H688 0.950 . S
C712 C707 1.363 . S
C712 C711 1.415 . S
C713 H689 0.951 . S
C713 C714 1.366 . S
C713 C715 1.388 . S
C714 C713 1.366 . S
C714 C718 1.385 . S
C715 H690 0.951 . S
C715 C713 1.388 . S
C715 C716 1.366 . S
C716 C715 1.366 . S
C716 C717 1.414 . S
C716 C719 1.499 . S
C717 H691 0.950 . S
C717 C716 1.414 . S
C717 C718 1.374 . S
C718 H692 0.950 . S
C718 C714 1.385 . S
C718 C717 1.374 . S
C719 C716 1.499 . S
C719 C720 1.373 . S
C719 C721 1.389 . S
C720 H693 0.950 . S
C720 C706 1.377 . S
C720 C719 1.373 . S
C721 C705 1.377 . S
C721 C719 1.389 . S
C721 C722 1.524 . S
C722 C721 1.524 . S
C722 C723 1.397 . S
C722 C727 1.363 . S
C723 H694 0.950 . S
C723 C722 1.397 . S
C723 C724 1.334 . S
C724 H695 0.950 . S
C724 C723 1.334 . S
C724 C725 1.287 . S
C725 C724 1.287 . S
C725 C726 1.524 . S
C725 H728 0.999 . S
C726 H696 0.950 . S
C726 C725 1.524 . S
C726 C727 1.415 . S
C727 H697 0.950 . S
C727 C722 1.363 . S
C727 C726 1.415 . S
H728 C725 0.999 . S
H729 C710 0.913 . S
H730 C748 0.951 . S
H731 C750 0.951 . S
H732 C752 0.950 . S
H733 C753 0.950 . S
H734 C755 0.950 . S
H735 C758 0.950 . S
H736 C759 0.950 . S
H737 C761 0.950 . S
H738 C762 0.950 . S
H739 C763 0.951 . S
H740 C765 0.951 . S
H741 C767 0.950 . S
H742 C768 0.950 . S
H743 C770 0.950 . S
H744 C773 0.950 . S
H745 C774 0.950 . S
H746 C776 0.950 . S
H747 C777 0.950 . S
C748 H730 0.951 . S
C748 C749 1.366 . S
C748 C750 1.388 . S
C749 C748 1.366 . S
C749 C753 1.385 . S
C750 H731 0.951 . S
C750 C748 1.388 . S
C750 C751 1.366 . S
C751 C750 1.366 . S
C751 C752 1.414 . S
C751 C754 1.499 . S
C752 H732 0.950 . S
C752 C751 1.414 . S
C752 C753 1.374 . S
C753 H733 0.950 . S
C753 C749 1.385 . S
C753 C752 1.374 . S
C754 C751 1.499 . S
C754 C755 1.373 . S
C754 C756 1.389 . S
C755 H734 0.950 . S
C755 C754 1.373 . S
C755 C771 1.377 . S
C756 C754 1.389 . S
C756 C757 1.524 . S
C756 C770 1.377 . S
C757 C756 1.524 . S
C757 C758 1.397 . S
C757 C762 1.363 . S
C758 H735 0.950 . S
C758 C757 1.397 . S
C758 C759 1.334 . S
C759 H736 0.950 . S
C759 C758 1.334 . S
C759 C760 1.287 . S
C760 C759 1.287 . S
C760 C761 1.524 . S
C760 H779 0.913 . S
C761 H737 0.950 . S
C761 C760 1.524 . S
C761 C762 1.415 . S
C762 H738 0.950 . S
C762 C757 1.363 . S
C762 C761 1.415 . S
C763 H739 0.951 . S
C763 C764 1.366 . S
C763 C765 1.388 . S
C764 C763 1.366 . S
C764 C768 1.385 . S
C765 H740 0.951 . S
C765 C763 1.388 . S
C765 C766 1.366 . S
C766 C765 1.366 . S
C766 C767 1.414 . S
C766 C769 1.499 . S
C767 H741 0.950 . S
C767 C766 1.414 . S
C767 C768 1.374 . S
C768 H742 0.950 . S
C768 C764 1.385 . S
C768 C767 1.374 . S
C769 C766 1.499 . S
C769 C770 1.373 . S
C769 C771 1.389 . S
C770 H743 0.950 . S
C770 C756 1.377 . S
C770 C769 1.373 . S
C771 C755 1.377 . S
C771 C769 1.389 . S
C771 C772 1.524 . S
C772 C771 1.524 . S
C772 C773 1.397 . S
C772 C777 1.363 . S
C773 H744 0.950 . S
C773 C772 1.397 . S
C773 C774 1.334 . S
C774 H745 0.950 . S
C774 C773 1.334 . S
C774 C775 1.287 . S
C775 C774 1.287 . S
C775 C776 1.524 . S
C775 H778 0.999 . S
C776 H746 0.950 . S
C776 C775 1.524 . S
C776 C777 1.415 . S
C777 H747 0.950 . S
C777 C772 1.363 . S
C777 C776 1.415 . S
H778 C775 0.999 . S
H779 C760 0.913 . S
H780 C798 0.951 . S
H781 C800 0.951 . S
H782 C802 0.950 . S
H783 C803 0.950 . S
H784 C805 0.950 . S
H785 C808 0.950 . S
H786 C809 0.950 . S
H787 C811 0.950 . S
H788 C812 0.950 . S
H789 C813 0.951 . S
H790 C815 0.951 . S
H791 C817 0.950 . S
H792 C818 0.950 . S
H793 C820 0.950 . S
H794 C823 0.950 . S
H795 C824 0.950 . S
H796 C826 0.950 . S
H797 C827 0.950 . S
C798 H780 0.951 . S
C798 C799 1.366 . S
C798 C800 1.388 . S
C799 C798 1.366 . S
C799 C803 1.385 . S
C800 H781 0.951 . S
C800 C798 1.388 . S
C800 C801 1.366 . S
C801 C800 1.366 . S
C801 C802 1.414 . S
C801 C804 1.499 . S
C802 H782 0.950 . S
C802 C801 1.414 . S
C802 C803 1.374 . S
C803 H783 0.950 . S
C803 C799 1.385 . S
C803 C802 1.374 . S
C804 C801 1.499 . S
C804 C805 1.373 . S
C804 C806 1.389 . S
C805 H784 0.950 . S
C805 C804 1.373 . S
C805 C821 1.377 . S
C806 C804 1.389 . S
C806 C807 1.524 . S
C806 C820 1.377 . S
C807 C806 1.524 . S
C807 C808 1.397 . S
C807 C812 1.363 . S
C808 H785 0.950 . S
C808 C807 1.397 . S
C808 C809 1.334 . S
C809 H786 0.950 . S
C809 C808 1.334 . S
C809 C810 1.287 . S
C810 C809 1.287 . S
C810 C811 1.524 . S
C810 H829 0.913 . S
C811 H787 0.950 . S
C811 C810 1.524 . S
C811 C812 1.415 . S
C812 H788 0.950 . S
C812 C807 1.363 . S
C812 C811 1.415 . S
C813 H789 0.951 . S
C813 C814 1.366 . S
C813 C815 1.388 . S
C814 C813 1.366 . S
C814 C818 1.385 . S
C815 H790 0.951 . S
C815 C813 1.388 . S
C815 C816 1.366 . S
C816 C815 1.366 . S
C816 C817 1.414 . S
C816 C819 1.499 . S
C817 H791 0.950 . S
C817 C816 1.414 . S
C817 C818 1.374 . S
C818 H792 0.950 . S
C818 C814 1.385 . S
C818 C817 1.374 . S
C819 C816 1.499 . S
C819 C820 1.373 . S
C819 C821 1.389 . S
C820 H793 0.950 . S
C820 C806 1.377 . S
C820 C819 1.373 . S
C821 C805 1.377 . S
C821 C819 1.389 . S
C821 C822 1.524 . S
C822 C821 1.524 . S
C822 C823 1.397 . S
C822 C827 1.363 . S
C823 H794 0.950 . S
C823 C822 1.397 . S
C823 C824 1.334 . S
C824 H795 0.950 . S
C824 C823 1.334 . S
C824 C825 1.287 . S
C825 C824 1.287 . S
C825 C826 1.524 . S
C825 H828 0.999 . S
C826 H796 0.950 . S
C826 C825 1.524 . S
C826 C827 1.415 . S
C827 H797 0.950 . S
C827 C822 1.363 . S
C827 C826 1.415 . S
H828 C825 0.999 . S
H829 C810 0.913 . S
H830 C848 0.951 . S
H831 C850 0.951 . S
H832 C852 0.950 . S
H833 C853 0.950 . S
H834 C855 0.950 . S
H835 C858 0.950 . S
H836 C859 0.950 . S
H837 C861 0.950 . S
H838 C862 0.950 . S
H839 C863 0.951 . S
H840 C865 0.951 . S
H841 C867 0.950 . S
H842 C868 0.950 . S
H843 C870 0.950 . S
H844 C873 0.950 . S
H845 C874 0.950 . S
H846 C876 0.950 . S
H847 C877 0.950 . S
C848 H830 0.951 . S
C848 C849 1.366 . S
C848 C850 1.388 . S
C849 C848 1.366 . S
C849 C853 1.385 . S
C850 H831 0.951 . S
C850 C848 1.388 . S
C850 C851 1.366 . S
C851 C850 1.366 . S
C851 C852 1.414 . S
C851 C854 1.499 . S
C852 H832 0.950 . S
C852 C851 1.414 . S
C852 C853 1.374 . S
C853 H833 0.950 . S
C853 C849 1.385 . S
C853 C852 1.374 . S
C854 C851 1.499 . S
C854 C855 1.373 . S
C854 C856 1.389 . S
C855 H834 0.950 . S
C855 C854 1.373 . S
C855 C871 1.377 . S
C856 C854 1.389 . S
C856 C857 1.524 . S
C856 C870 1.377 . S
C857 C856 1.524 . S
C857 C858 1.397 . S
C857 C862 1.363 . S
C858 H835 0.950 . S
C858 C857 1.397 . S
C858 C859 1.334 . S
C859 H836 0.950 . S
C859 C858 1.334 . S
C859 C860 1.287 . S
C860 C859 1.287 . S
C860 C861 1.524 . S
C860 H879 0.913 . S
C861 H837 0.950 . S
C861 C860 1.524 . S
C861 C862 1.415 . S
C862 H838 0.950 . S
C862 C857 1.363 . S
C862 C861 1.415 . S
C863 H839 0.951 . S
C863 C864 1.366 . S
C863 C865 1.388 . S
C864 C863 1.366 . S
C864 C868 1.385 . S
C865 H840 0.951 . S
C865 C863 1.388 . S
C865 C866 1.366 . S
C866 C865 1.366 . S
C866 C867 1.414 . S
C866 C869 1.499 . S
C867 H841 0.950 . S
C867 C866 1.414 . S
C867 C868 1.374 . S
C868 H842 0.950 . S
C868 C864 1.385 . S
C868 C867 1.374 . S
C869 C866 1.499 . S
C869 C870 1.373 . S
C869 C871 1.389 . S
C870 H843 0.950 . S
C870 C856 1.377 . S
C870 C869 1.373 . S
C871 C855 1.377 . S
C871 C869 1.389 . S
C871 C872 1.524 . S
C872 C871 1.524 . S
C872 C873 1.397 . S
C872 C877 1.363 . S
C873 H844 0.950 . S
C873 C872 1.397 . S
C873 C874 1.334 . S
C874 H845 0.950 . S
C874 C873 1.334 . S
C874 C875 1.287 . S
C875 C874 1.287 . S
C875 C876 1.524 . S
C875 H878 0.999 . S
C876 H846 0.950 . S
C876 C875 1.524 . S
C876 C877 1.415 . S
C877 H847 0.950 . S
C877 C872 1.363 . S
C877 C876 1.415 . S
H878 C875 0.999 . S
H879 C860 0.913 . S
H880 C898 0.951 . S
H881 C900 0.951 . S
H882 C902 0.950 . S
H883 C903 0.950 . S
H884 C905 0.950 . S
H885 C908 0.950 . S
H886 C909 0.950 . S
H887 C911 0.950 . S
H888 C912 0.950 . S
H889 C913 0.951 . S
H890 C915 0.951 . S
H891 C917 0.950 . S
H892 C918 0.950 . S
H893 C920 0.950 . S
H894 C923 0.950 . S
H895 C924 0.950 . S
H896 C926 0.950 . S
H897 C927 0.950 . S
C898 H880 0.951 . S
C898 C899 1.366 . S
C898 C900 1.388 . S
C899 C898 1.366 . S
C899 C903 1.385 . S
C900 H881 0.951 . S
C900 C898 1.388 . S
C900 C901 1.366 . S
C901 C900 1.366 . S
C901 C902 1.414 . S
C901 C904 1.499 . S
C902 H882 0.950 . S
C902 C901 1.414 . S
C902 C903 1.374 . S
C903 H883 0.950 . S
C903 C899 1.385 . S
C903 C902 1.374 . S
C904 C901 1.499 . S
C904 C905 1.373 . S
C904 C906 1.389 . S
C905 H884 0.950 . S
C905 C904 1.373 . S
C905 C921 1.377 . S
C906 C904 1.389 . S
C906 C907 1.524 . S
C906 C920 1.377 . S
C907 C906 1.524 . S
C907 C908 1.397 . S
C907 C912 1.363 . S
C908 H885 0.950 . S
C908 C907 1.397 . S
C908 C909 1.334 . S
C909 H886 0.950 . S
C909 C908 1.334 . S
C909 C910 1.287 . S
C910 C909 1.287 . S
C910 C911 1.524 . S
C910 H929 0.913 . S
C911 H887 0.950 . S
C911 C910 1.524 . S
C911 C912 1.415 . S
C912 H888 0.950 . S
C912 C907 1.363 . S
C912 C911 1.415 . S
C913 H889 0.951 . S
C913 C914 1.366 . S
C913 C915 1.388 . S
C914 C913 1.366 . S
C914 C918 1.385 . S
C915 H890 0.951 . S
C915 C913 1.388 . S
C915 C916 1.366 . S
C916 C915 1.366 . S
C916 C917 1.414 . S
C916 C919 1.499 . S
C917 H891 0.950 . S
C917 C916 1.414 . S
C917 C918 1.374 . S
C918 H892 0.950 . S
C918 C914 1.385 . S
C918 C917 1.374 . S
C919 C916 1.499 . S
C919 C920 1.373 . S
C919 C921 1.389 . S
C920 H893 0.950 . S
C920 C906 1.377 . S
C920 C919 1.373 . S
C921 C905 1.377 . S
C921 C919 1.389 . S
C921 C922 1.524 . S
C922 C921 1.524 . S
C922 C923 1.397 . S
C922 C927 1.363 . S
C923 H894 0.950 . S
C923 C922 1.397 . S
C923 C924 1.334 . S
C924 H895 0.950 . S
C924 C923 1.334 . S
C924 C925 1.287 . S
C925 C924 1.287 . S
C925 C926 1.524 . S
C925 H928 0.999 . S
C926 H896 0.950 . S
C926 C925 1.524 . S
C926 C927 1.415 . S
C927 H897 0.950 . S
C927 C922 1.363 . S
C927 C926 1.415 . S
H928 C925 0.999 . S
H929 C910 0.913 . S
H930 C948 0.951 . S
H931 C950 0.951 . S
H932 C952 0.950 . S
H933 C953 0.950 . S
H934 C955 0.950 . S
H935 C958 0.950 . S
H936 C959 0.950 . S
H937 C961 0.950 . S
H938 C962 0.950 . S
H939 C963 0.951 . S
H940 C965 0.951 . S
H941 C967 0.950 . S
H942 C968 0.950 . S
H943 C970 0.950 . S
H944 C973 0.950 . S
H945 C974 0.950 . S
H946 C976 0.950 . S
H947 C977 0.950 . S
C948 H930 0.951 . S
C948 C949 1.366 . S
C948 C950 1.388 . S
C949 C948 1.366 . S
C949 C953 1.385 . S
C950 H931 0.951 . S
C950 C948 1.388 . S
C950 C951 1.366 . S
C951 C950 1.366 . S
C951 C952 1.414 . S
C951 C954 1.499 . S
C952 H932 0.950 . S
C952 C951 1.414 . S
C952 C953 1.374 . S
C953 H933 0.950 . S
C953 C949 1.385 . S
C953 C952 1.374 . S
C954 C951 1.499 . S
C954 C955 1.373 . S
C954 C956 1.389 . S
C955 H934 0.950 . S
C955 C954 1.373 . S
C955 C971 1.377 . S
C956 C954 1.389 . S
C956 C957 1.524 . S
C956 C970 1.377 . S
C957 C956 1.524 . S
C957 C958 1.397 . S
C957 C962 1.363 . S
C958 H935 0.950 . S
C958 C957 1.397 . S
C958 C959 1.334 . S
C959 H936 0.950 . S
C959 C958 1.334 . S
C959 C960 1.287 . S
C960 C959 1.287 . S
C960 C961 1.524 . S
C960 H979 0.913 . S
C961 H937 0.950 . S
C961 C960 1.524 . S
C961 C962 1.415 . S
C962 H938 0.950 . S
C962 C957 1.363 . S
C962 C961 1.415 . S
C963 H939 0.951 . S
C963 C964 1.366 . S
C963 C965 1.388 . S
C964 C963 1.366 . S
C964 C968 1.385 . S
C965 H940 0.951 . S
C965 C963 1.388 . S
C965 C966 1.366 . S
C966 C965 1.366 . S
C966 C967 1.414 . S
C966 C969 1.499 . S
C967 H941 0.950 . S
C967 C966 1.414 . S
C967 C968 1.374 . S
C968 H942 0.950 . S
C968 C964 1.385 . S
C968 C967 1.374 . S
C969 C966 1.499 . S
C969 C970 1.373 . S
C969 C971 1.389 . S
C970 H943 0.950 . S
C970 C956 1.377 . S
C970 C969 1.373 . S
C971 C955 1.377 . S
C971 C969 1.389 . S
C971 C972 1.524 . S
C972 C971 1.524 . S
C972 C973 1.397 . S
C972 C977 1.363 . S
C973 H944 0.950 . S
C973 C972 1.397 . S
C973 C974 1.334 . S
C974 H945 0.950 . S
C974 C973 1.334 . S
C974 C975 1.287 . S
C975 C974 1.287 . S
C975 C976 1.524 . S
C975 H978 0.999 . S
C976 H946 0.950 . S
C976 C975 1.524 . S
C976 C977 1.415 . S
C977 H947 0.950 . S
C977 C972 1.363 . S
C977 C976 1.415 . S
H978 C975 0.999 . S
H979 C960 0.913 . S
H980 C998 0.951 . S
H981 C1000 0.951 . S
H982 C1002 0.950 . S
H983 C1003 0.950 . S
H984 C1005 0.950 . S
H985 C1008 0.950 . S
H986 C1009 0.950 . S
H987 C1011 0.950 . S
H988 C1012 0.950 . S
H989 C1013 0.951 . S
H990 C1015 0.951 . S
H991 C1017 0.950 . S
H992 C1018 0.950 . S
H993 C1020 0.950 . S
H994 C1023 0.950 . S
H995 C1024 0.950 . S
H996 C1026 0.950 . S
H997 C1027 0.950 . S
C998 H980 0.951 . S
C998 C999 1.366 . S
C998 C1000 1.388 . S
C999 C998 1.366 . S
C999 C1003 1.385 . S
C1000 H981 0.951 . S
C1000 C998 1.388 . S
C1000 C1001 1.366 . S
C1001 C1000 1.366 . S
C1001 C1002 1.414 . S
C1001 C1004 1.499 . S
C1002 H982 0.950 . S
C1002 C1001 1.414 . S
C1002 C1003 1.374 . S
C1003 H983 0.950 . S
C1003 C999 1.385 . S
C1003 C1002 1.374 . S
C1004 C1001 1.499 . S
C1004 C1005 1.373 . S
C1004 C1006 1.389 . S
C1005 H984 0.950 . S
C1005 C1004 1.373 . S
C1005 C1021 1.377 . S
C1006 C1004 1.389 . S
C1006 C1007 1.524 . S
C1006 C1020 1.377 . S
C1007 C1006 1.524 . S
C1007 C1008 1.397 . S
C1007 C1012 1.363 . S
C1008 H985 0.950 . S
C1008 C1007 1.397 . S
C1008 C1009 1.334 . S
C1009 H986 0.950 . S
C1009 C1008 1.334 . S
C1009 C1010 1.287 . S
C1010 C1009 1.287 . S
C1010 C1011 1.524 . S
C1010 H1029 0.913 . S
C1011 H987 0.950 . S
C1011 C1010 1.524 . S
C1011 C1012 1.415 . S
C1012 H988 0.950 . S
C1012 C1007 1.363 . S
C1012 C1011 1.415 . S
C1013 H989 0.951 . S
C1013 C1014 1.366 . S
C1013 C1015 1.388 . S
C1014 C1013 1.366 . S
C1014 C1018 1.385 . S
C1015 H990 0.951 . S
C1015 C1013 1.388 . S
C1015 C1016 1.366 . S
C1016 C1015 1.366 . S
C1016 C1017 1.414 . S
C1016 C1019 1.499 . S
C1017 H991 0.950 . S
C1017 C1016 1.414 . S
C1017 C1018 1.374 . S
C1018 H992 0.950 . S
C1018 C1014 1.385 . S
C1018 C1017 1.374 . S
C1019 C1016 1.499 . S
C1019 C1020 1.373 . S
C1019 C1021 1.389 . S
C1020 H993 0.950 . S
C1020 C1006 1.377 . S
C1020 C1019 1.373 . S
C1021 C1005 1.377 . S
C1021 C1019 1.389 . S
C1021 C1022 1.524 . S
C1022 C1021 1.524 . S
C1022 C1023 1.397 . S
C1022 C1027 1.363 . S
C1023 H994 0.950 . S
C1023 C1022 1.397 . S
C1023 C1024 1.334 . S
C1024 H995 0.950 . S
C1024 C1023 1.334 . S
C1024 C1025 1.287 . S
C1025 C1024 1.287 . S
C1025 C1026 1.524 . S
C1025 H1028 0.999 . S
C1026 H996 0.950 . S
C1026 C1025 1.524 . S
C1026 C1027 1.415 . S
C1027 H997 0.950 . S
C1027 C1022 1.363 . S
C1027 C1026 1.415 . S
H1028 C1025 0.999 . S
H1029 C1010 0.913 . S
H1030 C1048 0.951 . S
H1031 C1050 0.951 . S
H1032 C1052 0.950 . S
H1033 C1053 0.950 . S
H1034 C1055 0.950 . S
H1035 C1058 0.950 . S
H1036 C1059 0.950 . S
H1037 C1061 0.950 . S
H1038 C1062 0.950 . S
H1039 C1063 0.951 . S
H1040 C1065 0.951 . S
H1041 C1067 0.950 . S
H1042 C1068 0.950 . S
H1043 C1070 0.950 . S
H1044 C1073 0.950 . S
H1045 C1074 0.950 . S
H1046 C1076 0.950 . S
H1047 C1077 0.950 . S
C1048 H1030 0.951 . S
C1048 C1049 1.366 . S
C1048 C1050 1.388 . S
C1049 C1048 1.366 . S
C1049 C1053 1.385 . S
C1050 H1031 0.951 . S
C1050 C1048 1.388 . S
C1050 C1051 1.366 . S
C1051 C1050 1.366 . S
C1051 C1052 1.414 . S
C1051 C1054 1.499 . S
C1052 H1032 0.950 . S
C1052 C1051 1.414 . S
C1052 C1053 1.374 . S
C1053 H1033 0.950 . S
C1053 C1049 1.385 . S
C1053 C1052 1.374 . S
C1054 C1051 1.499 . S
C1054 C1055 1.373 . S
C1054 C1056 1.389 . S
C1055 H1034 0.950 . S
C1055 C1054 1.373 . S
C1055 C1071 1.377 . S
C1056 C1054 1.389 . S
C1056 C1057 1.524 . S
C1056 C1070 1.377 . S
C1057 C1056 1.524 . S
C1057 C1058 1.397 . S
C1057 C1062 1.363 . S
C1058 H1035 0.950 . S
C1058 C1057 1.397 . S
C1058 C1059 1.334 . S
C1059 H1036 0.950 . S
C1059 C1058 1.334 . S
C1059 C1060 1.287 . S
C1060 C1059 1.287 . S
C1060 C1061 1.524 . S
C1060 H1079 0.913 . S
C1061 H1037 0.950 . S
C1061 C1060 1.524 . S
C1061 C1062 1.415 . S
C1062 H1038 0.950 . S
C1062 C1057 1.363 . S
C1062 C1061 1.415 . S
C1063 H1039 0.951 . S
C1063 C1064 1.366 . S
C1063 C1065 1.388 . S
C1064 C1063 1.366 . S
C1064 C1068 1.385 . S
C1065 H1040 0.951 . S
C1065 C1063 1.388 . S
C1065 C1066 1.366 . S
C1066 C1065 1.366 . S
C1066 C1067 1.414 . S
C1066 C1069 1.499 . S
C1067 H1041 0.950 . S
C1067 C1066 1.414 . S
C1067 C1068 1.374 . S
C1068 H1042 0.950 . S
C1068 C1064 1.385 . S
C1068 C1067 1.374 . S
C1069 C1066 1.499 . S
C1069 C1070 1.373 . S
C1069 C1071 1.389 . S
C1070 H1043 0.950 . S
C1070 C1056 1.377 . S
C1070 C1069 1.373 . S
C1071 C1055 1.377 . S
C1071 C1069 1.389 . S
C1071 C1072 1.524 . S
C1072 C1071 1.524 . S
C1072 C1073 1.397 . S
C1072 C1077 1.363 . S
C1073 H1044 0.950 . S
C1073 C1072 1.397 . S
C1073 C1074 1.334 . S
C1074 H1045 0.950 . S
C1074 C1073 1.334 . S
C1074 C1075 1.287 . S
C1075 C1074 1.287 . S
C1075 C1076 1.524 . S
C1075 H1078 0.999 . S
C1076 H1046 0.950 . S
C1076 C1075 1.524 . S
C1076 C1077 1.415 . S
C1077 H1047 0.950 . S
C1077 C1072 1.363 . S
C1077 C1076 1.415 . S
H1078 C1075 0.999 . S
H1079 C1060 0.913 . S
H1080 C1098 0.951 . S
H1081 C1100 0.951 . S
H1082 C1102 0.950 . S
H1083 C1103 0.950 . S
H1084 C1105 0.950 . S
H1085 C1108 0.950 . S
H1086 C1109 0.950 . S
H1087 C1111 0.950 . S
H1088 C1112 0.950 . S
H1089 C1113 0.951 . S
H1090 C1115 0.951 . S
H1091 C1117 0.950 . S
H1092 C1118 0.950 . S
H1093 C1120 0.950 . S
H1094 C1123 0.950 . S
H1095 C1124 0.950 . S
H1096 C1126 0.950 . S
H1097 C1127 0.950 . S
C1098 H1080 0.951 . S
C1098 C1099 1.366 . S
C1098 C1100 1.388 . S
C1099 C1098 1.366 . S
C1099 C1103 1.385 . S
C1100 H1081 0.951 . S
C1100 C1098 1.388 . S
C1100 C1101 1.366 . S
C1101 C1100 1.366 . S
C1101 C1102 1.414 . S
C1101 C1104 1.499 . S
C1102 H1082 0.950 . S
C1102 C1101 1.414 . S
C1102 C1103 1.374 . S
C1103 H1083 0.950 . S
C1103 C1099 1.385 . S
C1103 C1102 1.374 . S
C1104 C1101 1.499 . S
C1104 C1105 1.373 1_554 S
C1104 C1106 1.389 1_545 S
C1105 H1084 0.950 . S
C1105 C1104 1.373 1_556 S
C1105 C1121 1.377 . S
C1106 C1104 1.389 1_565 S
C1106 C1107 1.524 . S
C1106 C1120 1.377 . S
C1107 C1106 1.524 . S
C1107 C1108 1.397 1_565 S
C1107 C1112 1.363 . S
C1108 H1085 0.950 . S
C1108 C1107 1.397 1_545 S
C1108 C1109 1.334 . S
C1109 H1086 0.950 . S
C1109 C1108 1.334 . S
C1109 C1110 1.287 1_545 S
C1110 C1109 1.287 1_565 S
C1110 C1111 1.524 . S
C1110 H1129 0.913 . S
C1111 H1087 0.950 . S
C1111 C1110 1.524 . S
C1111 C1112 1.415 . S
C1112 H1088 0.950 . S
C1112 C1107 1.363 . S
C1112 C1111 1.415 . S
C1113 H1089 0.951 . S
C1113 C1114 1.366 . S
C1113 C1115 1.388 . S
C1114 C1113 1.366 . S
C1114 C1118 1.385 . S
C1115 H1090 0.951 . S
C1115 C1113 1.388 . S
C1115 C1116 1.366 . S
C1116 C1115 1.366 . S
C1116 C1117 1.414 . S
C1116 C1119 1.499 . S
C1117 H1091 0.950 . S
C1117 C1116 1.414 . S
C1117 C1118 1.374 . S
C1118 H1092 0.950 . S
C1118 C1114 1.385 . S
C1118 C1117 1.374 . S
C1119 C1116 1.499 . S
C1119 C1120 1.373 1_556 S
C1119 C1121 1.389 1_565 S
C1120 H1093 0.950 . S
C1120 C1106 1.377 . S
C1120 C1119 1.373 1_554 S
C1121 C1105 1.377 . S
C1121 C1119 1.389 1_545 S
C1121 C1122 1.524 . S
C1122 C1121 1.524 . S
C1122 C1123 1.397 1_545 S
C1122 C1127 1.363 . S
C1123 H1094 0.950 . S
C1123 C1122 1.397 1_565 S
C1123 C1124 1.334 . S
C1124 H1095 0.950 . S
C1124 C1123 1.334 . S
C1124 C1125 1.287 1_565 S
C1125 C1124 1.287 1_545 S
C1125 C1126 1.524 . S
C1125 H1128 0.999 . S
C1126 H1096 0.950 . S
C1126 C1125 1.524 . S
C1126 C1127 1.415 . S
C1127 H1097 0.950 . S
C1127 C1122 1.363 . S
C1127 C1126 1.415 . S
H1128 C1125 0.999 . S
H1129 C1110 0.913 . S
H1130 C1148 0.951 . S
H1131 C1150 0.951 . S
H1132 C1152 0.950 . S
H1133 C1153 0.950 . S
H1134 C1155 0.950 . S
H1135 C1158 0.950 . S
H1136 C1159 0.950 . S
H1137 C1161 0.950 . S
H1138 C1162 0.950 . S
H1139 C1163 0.951 . S
H1140 C1165 0.951 . S
H1141 C1167 0.950 . S
H1142 C1168 0.950 . S
H1143 C1170 0.950 . S
H1144 C1173 0.950 . S
H1145 C1174 0.950 . S
H1146 C1176 0.950 . S
H1147 C1177 0.950 . S
C1148 H1130 0.951 . S
C1148 C1149 1.366 . S
C1148 C1150 1.388 . S
C1149 C1148 1.366 . S
C1149 C1153 1.385 . S
C1150 H1131 0.951 . S
C1150 C1148 1.388 . S
C1150 C1151 1.366 . S
C1151 C1150 1.366 . S
C1151 C1152 1.414 . S
C1151 C1154 1.499 . S
C1152 H1132 0.950 . S
C1152 C1151 1.414 . S
C1152 C1153 1.374 . S
C1153 H1133 0.950 . S
C1153 C1149 1.385 . S
C1153 C1152 1.374 . S
C1154 C1151 1.499 . S
C1154 C1155 1.373 . S
C1154 C1156 1.389 . S
C1155 H1134 0.950 . S
C1155 C1154 1.373 . S
C1155 C1171 1.377 . S
C1156 C1154 1.389 . S
C1156 C1157 1.524 . S
C1156 C1170 1.377 . S
C1157 C1156 1.524 . S
C1157 C1158 1.397 . S
C1157 C1162 1.363 . S
C1158 H1135 0.950 . S
C1158 C1157 1.397 . S
C1158 C1159 1.334 . S
C1159 H1136 0.950 . S
C1159 C1158 1.334 . S
C1159 C1160 1.287 . S
C1160 C1159 1.287 . S
C1160 C1161 1.524 . S
C1160 H1179 0.913 . S
C1161 H1137 0.950 . S
C1161 C1160 1.524 . S
C1161 C1162 1.415 . S
C1162 H1138 0.950 . S
C1162 C1157 1.363 . S
C1162 C1161 1.415 . S
C1163 H1139 0.951 . S
C1163 C1164 1.366 . S
C1163 C1165 1.388 . S
C1164 C1163 1.366 . S
C1164 C1168 1.385 . S
C1165 H1140 0.951 . S
C1165 C1163 1.388 . S
C1165 C1166 1.366 . S
C1166 C1165 1.366 . S
C1166 C1167 1.414 . S
C1166 C1169 1.499 . S
C1167 H1141 0.950 . S
C1167 C1166 1.414 . S
C1167 C1168 1.374 . S
C1168 H1142 0.950 . S
C1168 C1164 1.385 . S
C1168 C1167 1.374 . S
C1169 C1166 1.499 . S
C1169 C1170 1.373 . S
C1169 C1171 1.389 . S
C1170 H1143 0.950 . S
C1170 C1156 1.377 . S
C1170 C1169 1.373 . S
C1171 C1155 1.377 . S
C1171 C1169 1.389 . S
C1171 C1172 1.524 . S
C1172 C1171 1.524 . S
C1172 C1173 1.397 . S
C1172 C1177 1.363 . S
C1173 H1144 0.950 . S
C1173 C1172 1.397 . S
C1173 C1174 1.334 . S
C1174 H1145 0.950 . S
C1174 C1173 1.334 . S
C1174 C1175 1.287 . S
C1175 C1174 1.287 . S
C1175 C1176 1.524 . S
C1175 H1178 0.999 . S
C1176 H1146 0.950 . S
C1176 C1175 1.524 . S
C1176 C1177 1.415 . S
C1177 H1147 0.950 . S
C1177 C1172 1.363 . S
C1177 C1176 1.415 . S
H1178 C1175 0.999 . S
H1179 C1160 0.913 . S
H1180 C1198 0.951 . S
H1181 C1200 0.951 . S
H1182 C1202 0.950 . S
H1183 C1203 0.950 . S
H1184 C1205 0.950 . S
H1185 C1208 0.950 . S
H1186 C1209 0.950 . S
H1187 C1211 0.950 . S
H1188 C1212 0.950 . S
H1189 C1213 0.951 . S
H1190 C1215 0.951 . S
H1191 C1217 0.950 . S
H1192 C1218 0.950 . S
H1193 C1220 0.950 . S
H1194 C1223 0.950 . S
H1195 C1224 0.950 . S
H1196 C1226 0.950 . S
H1197 C1227 0.950 . S
C1198 H1180 0.951 . S
C1198 C1199 1.366 . S
C1198 C1200 1.388 . S
C1199 C1198 1.366 . S
C1199 C1203 1.385 . S
C1200 H1181 0.951 . S
C1200 C1198 1.388 . S
C1200 C1201 1.366 . S
C1201 C1200 1.366 . S
C1201 C1202 1.414 . S
C1201 C1204 1.499 . S
C1202 H1182 0.950 . S
C1202 C1201 1.414 . S
C1202 C1203 1.374 . S
C1203 H1183 0.950 . S
C1203 C1199 1.385 . S
C1203 C1202 1.374 . S
C1204 C1201 1.499 . S
C1204 C1205 1.373 . S
C1204 C1206 1.389 . S
C1205 H1184 0.950 . S
C1205 C1204 1.373 . S
C1205 C1221 1.377 1_455 S
C1206 C1204 1.389 . S
C1206 C1207 1.524 . S
C1206 C1220 1.377 1_455 S
C1207 C1206 1.524 . S
C1207 C1208 1.397 . S
C1207 C1212 1.363 . S
C1208 H1185 0.950 . S
C1208 C1207 1.397 . S
C1208 C1209 1.334 . S
C1209 H1186 0.950 . S
C1209 C1208 1.334 . S
C1209 C1210 1.287 . S
C1210 C1209 1.287 . S
C1210 C1211 1.524 . S
C1210 H1229 0.913 . S
C1211 H1187 0.950 . S
C1211 C1210 1.524 . S
C1211 C1212 1.415 . S
C1212 H1188 0.950 . S
C1212 C1207 1.363 . S
C1212 C1211 1.415 . S
C1213 H1189 0.951 . S
C1213 C1214 1.366 . S
C1213 C1215 1.388 . S
C1214 C1213 1.366 . S
C1214 C1218 1.385 . S
C1215 H1190 0.951 . S
C1215 C1213 1.388 . S
C1215 C1216 1.366 . S
C1216 C1215 1.366 . S
C1216 C1217 1.414 . S
C1216 C1219 1.499 . S
C1217 H1191 0.950 . S
C1217 C1216 1.414 . S
C1217 C1218 1.374 . S
C1218 H1192 0.950 . S
C1218 C1214 1.385 . S
C1218 C1217 1.374 . S
C1219 C1216 1.499 . S
C1219 C1220 1.373 . S
C1219 C1221 1.389 . S
C1220 H1193 0.950 . S
C1220 C1206 1.377 1_655 S
C1220 C1219 1.373 . S
C1221 C1205 1.377 1_655 S
C1221 C1219 1.389 . S
C1221 C1222 1.524 . S
C1222 C1221 1.524 . S
C1222 C1223 1.397 . S
C1222 C1227 1.363 . S
C1223 H1194 0.950 . S
C1223 C1222 1.397 . S
C1223 C1224 1.334 . S
C1224 H1195 0.950 . S
C1224 C1223 1.334 . S
C1224 C1225 1.287 . S
C1225 C1224 1.287 . S
C1225 C1226 1.524 . S
C1225 H1228 0.999 . S
C1226 H1196 0.950 . S
C1226 C1225 1.524 . S
C1226 C1227 1.415 . S
C1227 H1197 0.950 . S
C1227 C1222 1.363 . S
C1227 C1226 1.415 . S
H1228 C1225 0.999 . S
H1229 C1210 0.913 . S
H1230 C1248 0.951 . S
H1231 C1250 0.951 . S
H1232 C1252 0.950 . S
H1233 C1253 0.950 . S
H1234 C1255 0.950 . S
H1235 C1258 0.887 1_545 S
H1236 C1259 0.871 1_545 S
H1237 C1261 0.950 . S
H1238 C1262 0.950 . S
H1239 C1263 0.951 . S
H1240 C1265 0.951 . S
H1241 C1267 0.950 . S
H1242 C1268 0.950 . S
H1243 C1270 0.950 . S
H1244 C1273 0.887 1_565 S
H1245 C1274 0.871 1_565 S
H1246 C1276 0.950 . S
H1247 C1277 0.950 . S
C1248 H1230 0.951 . S
C1248 C1249 1.366 . S
C1248 C1250 1.388 . S
C1249 C1248 1.366 . S
C1249 C1253 1.385 . S
C1250 H1231 0.951 . S
C1250 C1248 1.388 . S
C1250 C1251 1.366 . S
C1251 C1250 1.366 . S
C1251 C1252 1.414 . S
C1251 C1254 1.499 . S
C1252 H1232 0.950 . S
C1252 C1251 1.414 . S
C1252 C1253 1.374 . S
C1253 H1233 0.950 . S
C1253 C1249 1.385 . S
C1253 C1252 1.374 . S
C1254 C1251 1.499 . S
C1254 C1255 1.373 . S
C1254 C1256 1.389 1_545 S
C1255 H1234 0.950 . S
C1255 C1254 1.373 . S
C1255 C1271 1.377 . S
C1256 C1254 1.389 1_565 S
C1256 C1257 1.524 . S
C1256 C1270 1.377 . S
C1257 C1256 1.524 . S
C1257 C1258 1.459 . S
C1257 C1262 1.363 . S
C1258 H1235 0.887 1_565 S
C1258 C1257 1.459 . S
C1258 C1259 1.336 . S
C1259 H1236 0.871 1_565 S
C1259 C1258 1.336 . S
C1259 C1260 1.287 . S
C1260 C1259 1.287 . S
C1260 C1261 1.524 . S
C1260 H1279 0.913 . S
C1261 H1237 0.950 . S
C1261 C1260 1.524 . S
C1261 C1262 1.415 . S
C1262 H1238 0.950 . S
C1262 C1257 1.363 . S
C1262 C1261 1.415 . S
C1263 H1239 0.951 . S
C1263 C1264 1.366 . S
C1263 C1265 1.388 . S
C1264 C1263 1.366 . S
C1264 C1268 1.385 . S
C1265 H1240 0.951 . S
C1265 C1263 1.388 . S
C1265 C1266 1.366 . S
C1266 C1265 1.366 . S
C1266 C1267 1.414 . S
C1266 C1269 1.499 . S
C1267 H1241 0.950 . S
C1267 C1266 1.414 . S
C1267 C1268 1.374 . S
C1268 H1242 0.950 . S
C1268 C1264 1.385 . S
C1268 C1267 1.374 . S
C1269 C1266 1.499 . S
C1269 C1270 1.373 . S
C1269 C1271 1.389 1_565 S
C1270 H1243 0.950 . S
C1270 C1256 1.377 . S
C1270 C1269 1.373 . S
C1271 C1255 1.377 . S
C1271 C1269 1.389 1_545 S
C1271 C1272 1.524 . S
C1272 C1271 1.524 . S
C1272 C1273 1.459 . S
C1272 C1277 1.363 . S
C1273 H1244 0.887 1_545 S
C1273 C1272 1.459 . S
C1273 C1274 1.336 . S
C1274 H1245 0.871 1_545 S
C1274 C1273 1.336 . S
C1274 C1275 1.287 . S
C1275 C1274 1.287 . S
C1275 C1276 1.524 . S
C1275 H1278 0.999 . S
C1276 H1246 0.950 . S
C1276 C1275 1.524 . S
C1276 C1277 1.415 . S
C1277 H1247 0.950 . S
C1277 C1272 1.363 . S
C1277 C1276 1.415 . S
H1278 C1275 0.999 . S
H1279 C1260 0.913 . S
H1280 C1298 0.951 . S
H1281 C1300 0.951 . S
H1282 C1302 0.950 . S
H1283 C1303 0.950 . S
H1284 C1305 0.950 . S
H1285 C1308 0.950 . S
H1286 C1309 0.950 . S
H1287 C1311 0.950 . S
H1288 C1312 0.950 . S
H1289 C1313 0.951 . S
H1290 C1315 0.951 . S
H1291 C1317 0.950 . S
H1292 C1318 0.950 . S
H1293 C1320 0.950 . S
H1294 C1323 0.950 . S
H1295 C1324 0.950 . S
H1296 C1326 0.950 . S
H1297 C1327 0.950 . S
C1298 H1280 0.951 . S
C1298 C1299 1.366 . S
C1298 C1300 1.388 . S
C1299 C1298 1.366 . S
C1299 C1303 1.385 . S
C1300 H1281 0.951 . S
C1300 C1298 1.388 . S
C1300 C1301 1.366 . S
C1301 C1300 1.366 . S
C1301 C1302 1.414 . S
C1301 C1304 1.499 . S
C1302 H1282 0.950 . S
C1302 C1301 1.414 . S
C1302 C1303 1.374 . S
C1303 H1283 0.950 . S
C1303 C1299 1.385 . S
C1303 C1302 1.374 . S
C1304 C1301 1.499 . S
C1304 C1305 1.373 . S
C1304 C1306 1.389 . S
C1305 H1284 0.950 . S
C1305 C1304 1.373 . S
C1305 C1321 1.377 . S
C1306 C1304 1.389 . S
C1306 C1307 1.524 . S
C1306 C1320 1.377 . S
C1307 C1306 1.524 . S
C1307 C1308 1.397 . S
C1307 C1312 1.363 . S
C1308 H1285 0.950 . S
C1308 C1307 1.397 . S
C1308 C1309 1.334 . S
C1309 H1286 0.950 . S
C1309 C1308 1.334 . S
C1309 C1310 1.287 . S
C1310 C1309 1.287 . S
C1310 C1311 1.524 . S
C1310 H1329 0.913 . S
C1311 H1287 0.950 . S
C1311 C1310 1.524 . S
C1311 C1312 1.415 . S
C1312 H1288 0.950 . S
C1312 C1307 1.363 . S
C1312 C1311 1.415 . S
C1313 H1289 0.951 . S
C1313 C1314 1.366 . S
C1313 C1315 1.388 . S
C1314 C1313 1.366 . S
C1314 C1318 1.385 . S
C1315 H1290 0.951 . S
C1315 C1313 1.388 . S
C1315 C1316 1.366 . S
C1316 C1315 1.366 . S
C1316 C1317 1.414 . S
C1316 C1319 1.499 . S
C1317 H1291 0.950 . S
C1317 C1316 1.414 . S
C1317 C1318 1.374 . S
C1318 H1292 0.950 . S
C1318 C1314 1.385 . S
C1318 C1317 1.374 . S
C1319 C1316 1.499 . S
C1319 C1320 1.373 . S
C1319 C1321 1.389 . S
C1320 H1293 0.950 . S
C1320 C1306 1.377 . S
C1320 C1319 1.373 . S
C1321 C1305 1.377 . S
C1321 C1319 1.389 . S
C1321 C1322 1.524 . S
C1322 C1321 1.524 . S
C1322 C1323 1.397 . S
C1322 C1327 1.363 . S
C1323 H1294 0.950 . S
C1323 C1322 1.397 . S
C1323 C1324 1.334 . S
C1324 H1295 0.950 . S
C1324 C1323 1.334 . S
C1324 C1325 1.287 . S
C1325 C1324 1.287 . S
C1325 C1326 1.524 . S
C1325 H1328 0.999 . S
C1326 H1296 0.950 . S
C1326 C1325 1.524 . S
C1326 C1327 1.415 . S
C1327 H1297 0.950 . S
C1327 C1322 1.363 . S
C1327 C1326 1.415 . S
H1328 C1325 0.999 . S
H1329 C1310 0.913 . S
H1330 C1348 0.951 . S
H1331 C1350 0.951 . S
H1332 C1352 0.950 . S
H1333 C1353 0.950 . S
H1334 C1355 0.950 . S
H1335 C1358 0.950 . S
H1336 C1359 0.950 . S
H1337 C1361 0.950 . S
H1338 C1362 0.950 . S
H1339 C1363 0.951 . S
H1340 C1365 0.951 . S
H1341 C1367 0.950 . S
H1342 C1368 0.950 . S
H1343 C1370 0.950 . S
H1344 C1373 0.950 . S
H1345 C1374 0.950 . S
H1346 C1376 0.950 . S
H1347 C1377 0.950 . S
C1348 H1330 0.951 . S
C1348 C1349 1.366 . S
C1348 C1350 1.388 . S
C1349 C1348 1.366 . S
C1349 C1353 1.385 . S
C1350 H1331 0.951 . S
C1350 C1348 1.388 . S
C1350 C1351 1.366 . S
C1351 C1350 1.366 . S
C1351 C1352 1.414 . S
C1351 C1354 1.499 . S
C1352 H1332 0.950 . S
C1352 C1351 1.414 . S
C1352 C1353 1.374 . S
C1353 H1333 0.950 . S
C1353 C1349 1.385 . S
C1353 C1352 1.374 . S
C1354 C1351 1.499 . S
C1354 C1355 1.373 . S
C1354 C1356 1.389 . S
C1355 H1334 0.950 . S
C1355 C1354 1.373 . S
C1355 C1371 1.377 1_655 S
C1356 C1354 1.389 . S
C1356 C1357 1.524 . S
C1356 C1370 1.377 1_655 S
C1357 C1356 1.524 . S
C1357 C1358 1.397 . S
C1357 C1362 1.363 . S
C1358 H1335 0.950 . S
C1358 C1357 1.397 . S
C1358 C1359 1.334 . S
C1359 H1336 0.950 . S
C1359 C1358 1.334 . S
C1359 C1360 1.287 . S
C1360 C1359 1.287 . S
C1360 C1361 1.524 . S
C1360 H1379 0.913 . S
C1361 H1337 0.950 . S
C1361 C1360 1.524 . S
C1361 C1362 1.415 . S
C1362 H1338 0.950 . S
C1362 C1357 1.363 . S
C1362 C1361 1.415 . S
C1363 H1339 0.951 . S
C1363 C1364 1.366 . S
C1363 C1365 1.388 . S
C1364 C1363 1.366 . S
C1364 C1368 1.385 . S
C1365 H1340 0.951 . S
C1365 C1363 1.388 . S
C1365 C1366 1.366 . S
C1366 C1365 1.366 . S
C1366 C1367 1.414 . S
C1366 C1369 1.499 . S
C1367 H1341 0.950 . S
C1367 C1366 1.414 . S
C1367 C1368 1.374 . S
C1368 H1342 0.950 . S
C1368 C1364 1.385 . S
C1368 C1367 1.374 . S
C1369 C1366 1.499 . S
C1369 C1370 1.373 . S
C1369 C1371 1.389 . S
C1370 H1343 0.950 . S
C1370 C1356 1.377 1_455 S
C1370 C1369 1.373 . S
C1371 C1355 1.377 1_455 S
C1371 C1369 1.389 . S
C1371 C1372 1.524 . S
C1372 C1371 1.524 . S
C1372 C1373 1.397 . S
C1372 C1377 1.363 . S
C1373 H1344 0.950 . S
C1373 C1372 1.397 . S
C1373 C1374 1.334 . S
C1374 H1345 0.950 . S
C1374 C1373 1.334 . S
C1374 C1375 1.287 . S
C1375 C1374 1.287 . S
C1375 C1376 1.524 . S
C1375 H1378 0.999 . S
C1376 H1346 0.950 . S
C1376 C1375 1.524 . S
C1376 C1377 1.415 . S
C1377 H1347 0.950 . S
C1377 C1372 1.363 . S
C1377 C1376 1.415 . S
H1378 C1375 0.999 . S
H1379 C1360 0.913 . S
C499 C21 1.551 . S
C514 C421 1.551 . S
C549 C461 1.551 . S
C564 C61 1.551 . S
C599 C261 1.552 . S
C614 C101 1.552 . S
C649 C141 1.552 . S
C664 C301 1.552 . S
C699 C341 1.551 . S
C714 C181 1.551 . S
C749 C221 1.552 . S
C764 C381 1.552 . S
C799 C2 1.534 . S
C814 C322 1.534 . S
C849 C362 1.534 . S
C864 C42 1.534 . S
C899 C82 1.533 . S
C914 C402 1.534 . S
C949 C442 1.534 . S
C964 C122 1.534 . S
C999 C162 1.534 . S
C1014 C242 1.534 . S
C1049 C202 1.534 . S
C1064 C282 1.534 . S
C1099 C15 1.543 . S
C1114 C295 1.543 . S
C1149 C335 1.543 . S
C1164 C55 1.543 . S
C1199 C375 1.543 . S
C1214 C95 1.543 . S
C1249 C415 1.543 . S
C1264 C135 1.543 . S
C1299 C175 1.543 . S
C1314 C455 1.543 . S
C1349 C255 1.543 . S
C1364 C215 1.543 . S
