# Generated by pormake.
# Topology ukf, (4)-cn, num edge types: 1
# Building blocks:
#     Node 0, Type 0, BuildingBlock: AZAVOO_clean_sbu_0, # of connection points: 4
#     Node 1, Type 0, BuildingBlock: AZAVOO_clean_sbu_0, # of connection points: 4
#     Node 2, Type 0, BuildingBlock: AZAVOO_clean_sbu_0, # of connection points: 4
#     Node 3, Type 0, BuildingBlock: AZAVOO_clean_sbu_0, # of connection points: 4
#     Node 4, Type 0, BuildingBlock: AZAVOO_clean_sbu_0, # of connection points: 4
#     Node 5, Type 0, BuildingBlock: AZAVOO_clean_sbu_0, # of connection points: 4
#     Node 6, Type 0, BuildingBlock: AZAVOO_clean_sbu_0, # of connection points: 4
#     Node 7, Type 0, BuildingBlock: AZAVOO_clean_sbu_0, # of connection points: 4
#     Node 8, Type 0, BuildingBlock: AZAVOO_clean_sbu_0, # of connection points: 4
#     Node 9, Type 0, BuildingBlock: AZAVOO_clean_sbu_0, # of connection points: 4
#     Node 10, Type 0, BuildingBlock: AZAVOO_clean_sbu_0, # of connection points: 4
#     Node 11, Type 0, BuildingBlock: AZAVOO_clean_sbu_0, # of connection points: 4
#     Edge 12, Type (0, 0), BuildingBlock: EZIPEK_clean_linker_0, # of connection points: 2
#     Edge 13, Type (0, 0), BuildingBlock: EZIPEK_clean_linker_0, # of connection points: 2
#     Edge 14, Type (0, 0), BuildingBlock: EZIPEK_clean_linker_0, # of connection points: 2
#     Edge 15, Type (0, 0), BuildingBlock: EZIPEK_clean_linker_0, # of connection points: 2
#     Edge 16, Type (0, 0), BuildingBlock: EZIPEK_clean_linker_0, # of connection points: 2
#     Edge 17, Type (0, 0), BuildingBlock: EZIPEK_clean_linker_0, # of connection points: 2
#     Edge 18, Type (0, 0), BuildingBlock: EZIPEK_clean_linker_0, # of connection points: 2
#     Edge 19, Type (0, 0), BuildingBlock: EZIPEK_clean_linker_0, # of connection points: 2
#     Edge 20, Type (0, 0), BuildingBlock: EZIPEK_clean_linker_0, # of connection points: 2
#     Edge 21, Type (0, 0), BuildingBlock: EZIPEK_clean_linker_0, # of connection points: 2
#     Edge 22, Type (0, 0), BuildingBlock: EZIPEK_clean_linker_0, # of connection points: 2
#     Edge 23, Type (0, 0), BuildingBlock: EZIPEK_clean_linker_0, # of connection points: 2
#     Edge 24, Type (0, 0), BuildingBlock: EZIPEK_clean_linker_0, # of connection points: 2
#     Edge 25, Type (0, 0), BuildingBlock: EZIPEK_clean_linker_0, # of connection points: 2
#     Edge 26, Type (0, 0), BuildingBlock: EZIPEK_clean_linker_0, # of connection points: 2
#     Edge 27, Type (0, 0), BuildingBlock: EZIPEK_clean_linker_0, # of connection points: 2
#     Edge 28, Type (0, 0), BuildingBlock: EZIPEK_clean_linker_0, # of connection points: 2
#     Edge 29, Type (0, 0), BuildingBlock: EZIPEK_clean_linker_0, # of connection points: 2
#     Edge 30, Type (0, 0), BuildingBlock: EZIPEK_clean_linker_0, # of connection points: 2
#     Edge 31, Type (0, 0), BuildingBlock: EZIPEK_clean_linker_0, # of connection points: 2
#     Edge 32, Type (0, 0), BuildingBlock: EZIPEK_clean_linker_0, # of connection points: 2
#     Edge 33, Type (0, 0), BuildingBlock: EZIPEK_clean_linker_0, # of connection points: 2
#     Edge 34, Type (0, 0), BuildingBlock: EZIPEK_clean_linker_0, # of connection points: 2
#     Edge 35, Type (0, 0), BuildingBlock: EZIPEK_clean_linker_0, # of connection points: 2
# Relax obj value: 0.209
# Max RMSD: 0.202
# Mean RMSD: 0.202
data_MOF--net-ukf--node1-AZAVOO_clean_sbu_0--edge1-EZIPEK_clean_linker_0
_symmetry_space_group_name_H-M    P1
_symmetry_Int_Tables_number       1
_symmetry_cell_setting            triclinic
loop_
_symmetry_equiv_pos_as_xyz
'x, y, z'
_cell_length_a     24.611872
_cell_length_b     24.575921
_cell_length_c     48.2428566
_cell_angle_alpha  89.395916
_cell_angle_beta   90.582505
_cell_angle_gamma 120.21895
loop_
_atom_site_label
_atom_site_type_symbol
_atom_site_fract_x
_atom_site_fract_y
_atom_site_fract_z
_atom_type_partial_charge
Mg0 Mg 0.35948 0.23363 0.03281 0.0
O1 O 0.45045 0.24293 0.01557 0.0
O2 O 0.53093 0.32844 0.03505 0.0
Mg3 Mg 0.49349 0.37722 0.06267 0.0
C4 C 0.5093 0.28107 0.0189 0.0
C5 C 0.27996 0.11894 -0.00711 0.0
O6 O 0.29137 0.16468 0.97536 0.0
O7 O 0.37681 0.20242 0.07591 0.0
O8 O 0.45059 0.29552 0.09289 0.0
O9 O 0.35838 0.30221 -0.00053 0.0
O10 O 0.40648 0.32773 0.03952 0.0
C11 C 0.41145 0.2369 0.09588 0.0
C12 C 0.39338 0.34579 0.01691 0.0
O13 O 0.3017 0.13206 0.01746 0.0
Mg14 Mg 0.09931 0.36144 0.36867 0.0
O15 O 0.1788 0.45772 0.35397 0.0
O16 O 0.16501 0.53298 0.37257 0.0
Mg17 Mg 0.07577 0.48529 0.39877 0.0
C18 C 0.1953 0.51551 0.35722 0.0
C19 C 0.13132 0.25733 0.35307 0.0
O20 O 0.07365 0.22036 0.36185 0.0
O21 O 0.13929 0.37438 0.41305 0.0
O22 O 0.11808 0.44651 0.42975 0.0
O23 O 0.03452 0.35905 0.33344 0.0
O24 O 0.04444 0.39976 0.37469 0.0
C25 C 0.13816 0.40802 0.43292 0.0
C26 C 0.01861 0.38839 0.35075 0.0
O27 O 0.15465 0.31663 0.35329 0.0
Mg28 Mg 0.71789 0.13533 0.70174 0.0
O29 O 0.70057 0.21143 0.68312 0.0
O30 O 0.61051 0.19801 0.70048 0.0
Mg31 Mg 0.566 0.10911 0.72785 0.0
C32 C 0.659 0.22765 0.68517 0.0
C33 C 0.85958 0.17456 0.69446 0.0
O34 O 0.84233 0.12577 0.71096 0.0
O35 O 0.74125 0.1822 0.74496 0.0
O36 O 0.64414 0.15291 0.75988 0.0
O37 O 0.65802 0.06422 0.6677 0.0
O38 O 0.62397 0.07873 0.70713 0.0
C39 C 0.70311 0.17732 0.76407 0.0
C40 C 0.61149 0.04918 0.68428 0.0
O41 O 0.81963 0.19026 0.68708 0.0
Mg42 Mg 0.55464 0.72508 0.03927 0.0
O43 O 0.46332 0.71478 0.02152 0.0
O44 O 0.38299 0.62552 0.0385 0.0
Mg45 Mg 0.42199 0.57622 0.06597 0.0
C46 C 0.40464 0.67499 0.02338 0.0
C47 C 0.66065 0.84994 0.01247 0.0
O48 O 0.68574 0.81429 0.0091 0.0
O49 O 0.53539 0.75012 0.08308 0.0
O50 O 0.46207 0.65412 0.09778 0.0
O51 O 0.5581 0.6625 0.00451 0.0
O52 O 0.51042 0.63014 0.04431 0.0
C53 C 0.50023 0.71238 0.1022 0.0
C54 C 0.52381 0.61607 0.021 0.0
O55 O 0.6078 0.8275 0.02443 0.0
Mg56 Mg 0.81094 0.56357 0.3642 0.0
O57 O 0.72327 0.47308 0.34969 0.0
O58 O 0.7211 0.39067 0.37101 0.0
Mg59 Mg 0.8083 0.4269 0.39854 0.0
C60 C 0.69795 0.41396 0.35409 0.0
C61 C 0.77055 0.6673 0.35436 0.0
O62 O 0.79697 0.68885 0.37863 0.0
O63 O 0.77053 0.5595 0.40781 0.0
O64 O 0.77861 0.48017 0.42689 0.0
O65 O 0.87284 0.55383 0.33156 0.0
O66 O 0.85279 0.51199 0.37301 0.0
C67 C 0.76685 0.52497 0.42867 0.0
C68 C 0.8806 0.51958 0.34992 0.0
O69 O 0.77011 0.6197 0.34413 0.0
Mg70 Mg 0.22769 0.82736 0.69928 0.0
O71 O 0.23403 0.74198 0.68441 0.0
O72 O 0.30962 0.73945 0.7096 0.0
Mg73 Mg 0.36068 0.82804 0.73586 0.0
C74 C 0.26674 0.71663 0.69097 0.0
C75 C 0.08455 0.78669 0.69179 0.0
O76 O 0.0936 0.81333 0.71616 0.0
O77 O 0.18936 0.78529 0.74282 0.0
O78 O 0.27678 0.7978 0.7636 0.0
O79 O 0.30038 0.89145 0.66694 0.0
O80 O 0.32141 0.87083 0.70846 0.0
C81 C 0.2194 0.78363 0.76439 0.0
C82 C 0.34222 0.89912 0.68533 0.0
O83 O 0.12972 0.78569 0.67976 0.0
Mg84 Mg 0.7176 0.58083 0.60705 0.0
O85 O 0.70385 0.48592 0.6225 0.0
O86 O 0.6153 0.4087 0.60356 0.0
Mg87 Mg 0.57055 0.45293 0.57664 0.0
C88 C 0.66341 0.42766 0.61929 0.0
C89 C 0.83588 0.6709 0.64242 0.0
O90 O 0.79557 0.68601 0.65212 0.0
O91 O 0.74472 0.56867 0.56267 0.0
O92 O 0.65105 0.49489 0.54596 0.0
O93 O 0.65369 0.58103 0.64161 0.0
O94 O 0.62343 0.53909 0.60048 0.0
C95 C 0.70936 0.53463 0.54276 0.0
C96 C 0.6084 0.55004 0.62413 0.0
O97 O 0.81882 0.63012 0.62334 0.0
Mg98 Mg 0.10738 0.72337 0.94198 0.0
O99 O 0.19101 0.71517 0.9581 0.0
O100 O 0.18648 0.63017 0.93913 0.0
Mg101 Mg 0.09885 0.58153 0.91163 0.0
C102 C 0.21234 0.67779 0.95511 0.0
C103 C 0.13038 0.85829 0.95886 0.0
O104 O 0.07082 0.8338 0.95206 0.0
O105 O 0.14745 0.75344 0.89778 0.0
O106 O 0.13418 0.66279 0.88095 0.0
O107 O 0.04246 0.65493 0.97602 0.0
O108 O 0.05979 0.62878 0.9354 0.0
C109 C 0.14932 0.72032 0.87785 0.0
C110 C 0.0318 0.61094 0.9586 0.0
O111 O 0.1565 0.8251 0.95728 0.0
Mg112 Mg 0.35204 0.11435 0.27246 0.0
O113 O 0.44147 0.19691 0.29104 0.0
O114 O 0.52333 0.19257 0.27365 0.0
Mg115 Mg 0.48787 0.10623 0.24582 0.0
C116 C 0.5005 0.2181 0.28902 0.0
C117 C 0.28155 0.15443 0.31283 0.0
O118 O 0.30275 0.12795 0.33027 0.0
O119 O 0.37192 0.16349 0.22954 0.0
O120 O 0.44682 0.1448 0.21436 0.0
O121 O 0.3485 0.04585 0.30651 0.0
O122 O 0.39926 0.06748 0.26732 0.0
C123 C 0.4079 0.16401 0.21035 0.0
C124 C 0.38488 0.03726 0.29022 0.0
O125 O 0.29402 0.15693 0.28719 0.0
Mg126 Mg 0.22388 0.37398 0.6101 0.0
O127 O 0.23056 0.46436 0.62733 0.0
O128 O 0.30751 0.54503 0.6039 0.0
Mg129 Mg 0.35766 0.51019 0.57606 0.0
C130 C 0.26422 0.52324 0.62215 0.0
C131 C 0.11466 0.31756 0.65341 0.0
O132 O 0.1614 0.35415 0.66997 0.0
O133 O 0.1863 0.38211 0.56699 0.0
O134 O 0.27373 0.45989 0.54756 0.0
O135 O 0.29633 0.37971 0.64225 0.0
O136 O 0.31721 0.42508 0.60151 0.0
C137 C 0.21632 0.41639 0.54608 0.0
C138 C 0.33802 0.41562 0.62428 0.0
O139 O 0.12522 0.31472 0.62788 0.0
Mg140 Mg 0.80692 0.23067 0.94306 0.0
O141 O 0.72681 0.24312 0.95936 0.0
O142 O 0.73627 0.33113 0.9404 0.0
Mg143 Mg 0.82517 0.3786 0.91381 0.0
C144 C 0.70805 0.28267 0.95607 0.0
C145 C 0.78796 0.10528 0.96942 0.0
O146 O 0.84956 0.13922 0.97079 0.0
O147 O 0.7612 0.20357 0.89934 0.0
O148 O 0.785 0.29883 0.88295 0.0
O149 O 0.87519 0.29479 0.9773 0.0
O150 O 0.85883 0.32507 0.93685 0.0
C151 C 0.76368 0.2401 0.87956 0.0
C152 C 0.88777 0.34022 0.96004 0.0
O153 O 0.75687 0.12904 0.95898 0.0
Mg154 Mg 0.54466 0.81725 0.28103 0.0
O155 O 0.45098 0.73701 0.2974 0.0
O156 O 0.37307 0.74461 0.27674 0.0
Mg157 Mg 0.41595 0.83202 0.24864 0.0
C158 C 0.39266 0.71757 0.29351 0.0
C159 C 0.64827 0.77936 0.29225 0.0
O160 O 0.67456 0.81501 0.27035 0.0
O161 O 0.52957 0.76922 0.23805 0.0
O162 O 0.45868 0.79165 0.21998 0.0
O163 O 0.54587 0.88583 0.31365 0.0
O164 O 0.50207 0.86783 0.27253 0.0
C165 C 0.49657 0.77088 0.21759 0.0
C166 C 0.51373 0.89705 0.29546 0.0
O167 O 0.59569 0.77053 0.30068 0.0
C168 C 0.15123 0.94601 -0.00854 0.0
C169 C 0.16796 0.92519 0.96739 0.0
C170 C 0.26131 0.02993 0.96162 0.0
C171 C 0.24141 0.05225 0.98414 0.0
N172 N 0.16127 0.03466 0.0173 0.0
N173 N 0.23201 0.95009 0.92645 0.0
C174 C 0.18466 0.01113 -0.00178 0.0
C175 C 0.22114 0.96792 0.95159 0.0
N176 N 0.10504 0.90329 0.00849 0.0
N177 N 0.3197 0.06699 0.95051 0.0
H178 H 0.20318 0.90546 0.91811 0.0
H179 H 0.26602 -0.01873 0.91267 0.0
H180 H 0.351 0.11231 0.95755 0.0
H181 H 0.33944 0.05076 0.93612 0.0
H182 H 0.0956 0.91472 0.0279 0.0
H183 H 0.07979 0.85513 0.00441 0.0
H184 H 0.11679 0.00824 0.02602 0.0
H185 H 0.18371 0.08219 0.02255 0.0
C186 C 0.14756 0.18837 0.32017 0.0
C187 C 0.16929 0.2303 0.34296 0.0
C188 C 0.26756 0.22771 0.34386 0.0
C189 C 0.24306 0.18081 0.32303 0.0
N190 N 0.15473 0.1074 0.29515 0.0
N191 N 0.24458 0.28066 0.38001 0.0
C192 C 0.18165 0.1586 0.31218 0.0
C193 C 0.22786 0.24748 0.35581 0.0
N194 N 0.09582 0.17888 0.30541 0.0
N195 N 0.32948 0.2553 0.35147 0.0
H196 H 0.21627 0.295 0.38976 0.0
H197 H 0.28356 0.28868 0.39182 0.0
H198 H 0.36061 0.24326 0.34276 0.0
H199 H 0.35147 0.29432 0.3644 0.0
H200 H 0.08199 0.15427 0.28681 0.0
H201 H 0.07007 0.2006 0.31026 0.0
H202 H 0.10769 0.08513 0.28904 0.0
H203 H 0.17747 0.08326 0.28924 0.0
C204 C 0.95073 0.18044 0.66879 0.0
C205 C 0.92519 0.21096 0.68431 0.0
C206 C 0.02192 0.31235 0.67734 0.0
C207 C 0.04968 0.28083 0.66427 0.0
N208 N 0.04472 0.1833 0.65227 0.0
N209 N 0.94063 0.30377 0.70801 0.0
C210 C 0.01525 0.21438 0.66128 0.0
C211 C -0.03806 0.27637 0.68989 0.0
N212 N 0.9128 0.11982 0.66016 0.0
N213 N 0.05151 0.37666 0.67675 0.0
H214 H 0.89746 0.27886 0.71805 0.0
H215 H -0.03173 0.3497 0.71512 0.0
H216 H 0.09489 0.40485 0.66729 0.0
H217 H 0.03038 0.40186 0.68329 0.0
H218 H 0.92729 0.09758 0.64624 0.0
H219 H 0.86501 0.09359 0.66475 0.0
H220 H 0.02368 0.13442 0.65251 0.0
H221 H 0.09223 0.20624 0.64707 0.0
C222 C 0.71949 0.96677 0.02017 0.0
C223 C 0.69278 0.91535 0.00149 0.0
C224 C 0.72526 -0.01146 0.96182 0.0
C225 C 0.75483 0.03991 0.98045 0.0
N226 N 0.78484 0.07966 0.02692 0.0
N227 N 0.67301 0.87545 0.9548 0.0
C228 C 0.7533 0.02947 0.00952 0.0
C229 C 0.69651 0.92576 0.97236 0.0
N230 N 0.71184 0.9555 0.0481 0.0
N231 N 0.72414 -6e-05 0.93405 0.0
H232 H 0.64798 0.8288 0.96161 0.0
H233 H 0.68059 0.87927 0.93352 0.0
H234 H 0.74775 0.04501 0.92536 0.0
H235 H 0.69737 0.96543 0.91958 0.0
H236 H 0.7234 -0.00973 0.06286 0.0
H237 H 0.69066 0.91039 0.05674 0.0
H238 H 0.79227 0.07559 0.04792 0.0
H239 H 0.80672 0.12635 0.02015 0.0
C240 C 0.64784 0.68512 0.31315 0.0
C241 C 0.68035 0.7509 0.30776 0.0
C242 C 0.77408 0.76123 0.33117 0.0
C243 C 0.73933 0.69681 0.33904 0.0
N244 N 0.63915 0.60057 0.34246 0.0
N245 N 0.7702 0.85378 0.31668 0.0
C246 C 0.67503 0.65957 0.33142 0.0
C247 C 0.74241 0.78967 0.31811 0.0
N248 N 0.59212 0.64654 0.29998 0.0
N249 N 0.83775 0.79476 0.33515 0.0
H250 H 0.74813 0.87677 0.30806 0.0
H251 H 0.81263 0.88418 0.3265 0.0
H252 H 0.86292 0.77554 0.34432 0.0
H253 H 0.86631 0.83978 0.32702 0.0
H254 H 0.56969 0.59759 0.30096 0.0
H255 H 0.57145 0.66307 0.28578 0.0
H256 H 0.59054 0.57396 0.33989 0.0
H257 H 0.65678 0.58068 0.35652 0.0
C258 C 0.94079 0.76642 0.65226 0.0
C259 C 0.90035 0.70022 0.65425 0.0
C260 C -0.01665 0.69032 0.6784 0.0
C261 C 0.02154 0.75694 0.67857 0.0
N262 N 0.03524 0.85939 0.66844 0.0
N263 N 0.87874 0.59977 0.67287 0.0
C264 C -0.00027 0.7953 0.66638 0.0
C265 C 0.92056 0.66218 0.66815 0.0
N266 N 0.92401 0.80133 0.63581 0.0
N267 N 0.0071 0.65391 0.68805 0.0
H268 H 0.83211 0.57748 0.66609 0.0
H269 H 0.88842 0.57111 0.68554 0.0
H270 H 0.0516 0.67263 0.69707 0.0
H271 H -0.01549 0.60533 0.68545 0.0
H272 H 0.9541 0.84861 0.63104 0.0
H273 H 0.88167 0.78173 0.62482 0.0
H274 H 0.01884 0.8897 0.66297 0.0
H275 H 0.08004 0.88241 0.67735 0.0
C276 C 0.65572 0.27484 0.00158 0.0
C277 C 0.65333 0.27418 0.97215 0.0
C278 C 0.55436 0.27528 0.97316 0.0
C279 C 0.555 0.27235 0.00258 0.0
N280 N 0.59749 0.25331 0.04437 0.0
N281 N 0.59342 0.25817 0.93014 0.0
C282 C 0.60298 0.26702 0.01665 0.0
C283 C 0.60036 0.26946 0.958 0.0
N284 N 0.70954 0.28656 0.01519 0.0
N285 N 0.51234 0.28731 0.95967 0.0
H286 H 0.62584 0.25271 0.91852 0.0
H287 H 0.55272 0.24799 0.91918 0.0
H288 H 0.47855 0.29325 0.96985 0.0
H289 H 0.51453 0.29694 0.9385 0.0
H290 H 0.71607 0.29453 0.03645 0.0
H291 H 0.75 0.29414 0.00506 0.0
H292 H 0.62793 0.2428 0.05521 0.0
H293 H 0.55873 0.24603 0.05589 0.0
C294 C 0.3008 0.61405 0.3549 0.0
C295 C 0.24885 0.5642 0.34098 0.0
C296 C 0.29812 0.60929 0.2962 0.0
C297 C 0.34556 0.66325 0.31 0.0
N298 N 0.38674 0.72178 0.35247 0.0
N299 N 0.19256 0.51968 0.29814 0.0
C300 C 0.34583 0.66687 0.33939 0.0
C301 C 0.2461 0.56292 0.31153 0.0
N302 N 0.30787 0.61028 0.38287 0.0
N303 N 0.30351 0.6016 0.26854 0.0
H304 H 0.15257 0.48574 0.30845 0.0
H305 H 0.18559 0.52117 0.27688 0.0
H306 H 0.34156 0.6342 0.25676 0.0
H307 H 0.27369 0.56021 0.25797 0.0
H308 H 0.34812 0.64212 0.39371 0.0
H309 H 0.27613 0.57187 0.39482 0.0
H310 H 0.38427 0.72916 0.37352 0.0
H311 H 0.41962 0.76219 0.34195 0.0
C312 C 0.67044 0.33479 0.68166 0.0
C313 C 0.66582 0.2815 0.6683 0.0
C314 C 0.67284 0.33089 0.62298 0.0
C315 C 0.66905 0.38006 0.63626 0.0
N316 N 0.65398 0.42374 0.67822 0.0
N317 N 0.65331 0.22409 0.62611 0.0
C318 C 0.66554 0.381 0.66563 0.0
C319 C 0.66495 0.27837 0.63889 0.0
N320 N 0.68102 0.342 0.70961 0.0
N321 N 0.68536 0.33509 0.59525 0.0
H322 H 0.64617 0.18407 0.63692 0.0
H323 H 0.64518 0.21672 0.60489 0.0
H324 H 0.69204 0.37329 0.58306 0.0
H325 H 0.69503 0.30393 0.58494 0.0
H326 H 0.69135 0.38302 0.72006 0.0
H327 H 0.68555 0.30938 0.72195 0.0
H328 H 0.64384 0.42189 0.69924 0.0
H329 H 0.64877 0.45776 0.66738 0.0
C330 C 0.25856 0.68011 0.00209 0.0
C331 C 0.26545 0.68592 0.9728 0.0
C332 C 0.36477 0.68592 0.97659 0.0
C333 C 0.35978 0.68405 0.00597 0.0
N334 N 0.31009 0.69473 0.0467 0.0
N335 N 0.33136 0.70903 0.93276 0.0
C336 C 0.30919 0.68603 0.01872 0.0
C337 C 0.32067 0.69357 0.96024 0.0
N338 N 0.20248 0.66516 0.01399 0.0
N339 N 0.40906 0.67652 0.96417 0.0
H340 H 0.30015 0.7155 0.92028 0.0
H341 H 0.37373 0.72146 0.92307 0.0
H342 H 0.44129 0.66887 0.97519 0.0
H343 H 0.41019 0.67049 0.94289 0.0
H344 H 0.19277 0.6533 0.03487 0.0
H345 H 0.16343 0.65888 0.00269 0.0
H346 H 0.27761 0.70284 0.05677 0.0
H347 H 0.34698 0.70016 0.05945 0.0
C348 C 0.54162 0.27124 0.33514 0.0
C349 C 0.54499 0.27332 0.30571 0.0
C350 C 0.64748 0.37013 0.30785 0.0
C351 C 0.64281 0.36981 0.3372 0.0
N352 N 0.5787 0.32953 0.37806 0.0
N353 N 0.59187 0.33361 0.26418 0.0
C354 C 0.58756 0.32336 0.35061 0.0
C355 C 0.59498 0.32577 0.29212 0.0
N356 N 0.49721 0.21817 0.34845 0.0
N357 N 0.70314 0.40971 0.29499 0.0
H358 H 0.55326 0.3026 0.25217 0.0
H359 H 0.62416 0.37411 0.25356 0.0
H360 H 0.74382 0.44164 0.30556 0.0
H361 H 0.71069 0.40668 0.27399 0.0
H362 H 0.49724 0.2117 0.36982 0.0
H363 H 0.46346 0.17814 0.33812 0.0
H364 H 0.53665 0.30043 0.38831 0.0
H365 H 0.61117 0.36769 0.38985 0.0
C366 C 0.31892 0.61876 0.65171 0.0
C367 C 0.26153 0.56938 0.64094 0.0
C368 C 0.20478 0.61127 0.66651 0.0
C369 C 0.26314 0.66559 0.67336 0.0
N370 N 0.37478 0.72823 0.66389 0.0
N371 N 0.14931 0.52339 0.63501 0.0
C372 C 0.31998 0.67151 0.66348 0.0
C373 C 0.20403 0.56666 0.64753 0.0
N374 N 0.37225 0.61456 0.65178 0.0
N375 N 0.15059 0.60115 0.6787 0.0
H376 H 0.14717 0.49099 0.62063 0.0
H377 H 0.10718 0.52331 0.63708 0.0
H378 H 0.1496 0.63191 0.69314 0.0
H379 H 0.10778 0.55943 0.67646 0.0
H380 H 0.41374 0.64772 0.66151 0.0
H381 H 0.37287 0.57446 0.64537 0.0
H382 H 0.41598 0.73499 0.65475 0.0
H383 H 0.37727 0.77003 0.66997 0.0
C384 C 0.34872 0.179 0.13855 0.0
C385 C 0.40695 0.21081 0.12422 0.0
C386 C 0.46299 0.22483 0.16806 0.0
C387 C 0.40529 0.18574 0.18178 0.0
N388 N 0.29306 0.11376 0.17801 0.0
N389 N 0.5185 0.24885 0.12466 0.0
C390 C 0.3479 0.15943 0.16652 0.0
C391 C 0.46378 0.22895 0.13881 0.0
N392 N 0.29462 0.16994 0.12619 0.0
N393 N 0.51699 0.25951 0.18303 0.0
H394 H 0.52031 0.24966 0.10306 0.0
H395 H 0.5602 0.2575 0.13429 0.0
H396 H 0.51768 0.26016 0.20465 0.0
H397 H 0.55928 0.29286 0.17402 0.0
H398 H 0.25258 0.15312 0.13695 0.0
H399 H 0.29274 0.18451 0.10604 0.0
H400 H 0.2516 0.08869 0.16659 0.0
H401 H 0.29003 0.09656 0.19809 0.0
C402 C 0.11056 0.38969 0.48328 0.0
C403 C 0.1533 0.39798 0.46172 0.0
C404 C 0.22415 0.39416 0.49641 0.0
C405 C 0.18855 0.4008 0.51782 0.0
N406 N 0.09913 0.4096 0.53129 0.0
N407 N 0.25474 0.41413 0.44827 0.0
C408 C 0.13158 0.3991 0.51127 0.0
C409 C 0.21094 0.40105 0.46832 0.0
N410 N 0.04939 0.37118 0.47705 0.0
N411 N 0.26993 0.38017 0.50296 0.0
H412 H 0.24792 0.42128 0.4275 0.0
H413 H 0.30017 0.42353 0.45271 0.0
H414 H 0.27909 0.3721 0.5233 0.0
H415 H 0.29354 0.36952 0.48809 0.0
H416 H 0.01514 0.35936 0.49213 0.0
H417 H 0.03136 0.36058 0.45691 0.0
H418 H 0.06106 0.41581 0.52686 0.0
H419 H 0.11319 0.41719 0.55201 0.0
C420 C 0.70545 0.23487 0.83629 0.0
C421 C 0.74405 0.21655 0.85088 0.0
C422 C 0.75676 0.17105 0.80805 0.0
C423 C 0.72516 0.19708 0.79294 0.0
N424 N 0.68244 0.26648 0.79219 0.0
N425 N 0.81749 0.17843 0.84904 0.0
C426 C 0.70348 0.23289 0.80696 0.0
C427 C 0.77278 0.18759 0.83638 0.0
N428 N 0.66941 0.25283 0.85055 0.0
N429 N 0.76895 0.12829 0.79598 0.0
H430 H 0.83157 0.19039 0.86957 0.0
H431 H 0.84466 0.16407 0.83833 0.0
H432 H 0.75726 0.11365 0.77551 0.0
H433 H 0.78552 0.10297 0.80711 0.0
H434 H 0.63614 0.26125 0.84102 0.0
H435 H 0.66788 0.25247 0.87216 0.0
H436 H 0.67138 0.2979 0.80133 0.0
H437 H 0.68274 0.26818 0.77056 0.0
C438 C 0.56046 0.7633 0.14651 0.0
C439 C 0.50306 0.73381 0.13119 0.0
C440 C 0.44468 0.71302 0.17447 0.0
C441 C 0.50149 0.75039 0.18927 0.0
N442 N 0.61407 0.82147 0.1878 0.0
N443 N 0.39133 0.6947 0.13035 0.0
C444 C 0.55976 0.77837 0.17493 0.0
C445 C 0.4454 0.71296 0.14515 0.0
N446 N 0.61524 0.77446 0.13454 0.0
N447 N 0.38994 0.67664 0.18851 0.0
H448 H 0.39058 0.69702 0.10875 0.0
H449 H 0.34901 0.68425 0.13957 0.0
H450 H 0.38828 0.67366 0.21011 0.0
H451 H 0.34811 0.64439 0.17875 0.0
H452 H 0.65672 0.78948 0.14578 0.0
H453 H 0.61819 0.76339 0.11404 0.0
H454 H 0.65623 0.84825 0.17723 0.0
H455 H 0.61618 0.83446 0.20843 0.0
C456 C 0.78604 0.54202 0.50631 0.0
C457 C 0.73272 0.54598 0.51379 0.0
C458 C 0.70504 0.54536 0.46461 0.0
C459 C 0.75863 0.54189 0.45717 0.0
N460 N 0.86146 0.56027 0.47043 0.0
N461 N 0.65524 0.57407 0.50002 0.0
C462 C 0.80288 0.54789 0.47792 0.0
C463 C 0.69664 0.555 0.49287 0.0
N464 N 0.81855 0.52906 0.52587 0.0
N465 N 0.66049 0.53615 0.44518 0.0
H466 H 0.64991 0.58431 0.52041 0.0
H467 H 0.63172 0.58652 0.48549 0.0
H468 H 0.66473 0.52866 0.42429 0.0
H469 H 0.6171 0.5311 0.45021 0.0
H470 H 0.85344 0.51869 0.52089 0.0
H471 H 0.80728 0.52343 0.54686 0.0
H472 H 0.89728 0.57042 0.48474 0.0
H473 H 0.87632 0.56749 0.44985 0.0
C474 C 0.21604 0.80135 0.84162 0.0
C475 C 0.16066 0.74493 0.84895 0.0
C476 C 0.13605 0.71778 0.79973 0.0
C477 C 0.19168 0.77392 0.79246 0.0
N478 N 0.27109 0.87905 0.80569 0.0
N479 N 0.05727 0.66246 0.83493 0.0
C480 C 0.22716 0.81904 0.81322 0.0
C481 C 0.11713 0.70734 0.82793 0.0
N482 N 0.25983 0.83614 0.86135 0.0
N483 N 0.10314 0.67292 0.78021 0.0
H484 H 0.04095 0.65545 0.85528 0.0
H485 H 0.02209 0.63741 0.82032 0.0
H486 H 0.11537 0.67878 0.75932 0.0
H487 H 0.06637 0.62804 0.78513 0.0
H488 H 0.30418 0.87382 0.85655 0.0
H489 H 0.25407 0.82448 0.88236 0.0
H490 H 0.29452 0.91533 0.81992 0.0
H491 H 0.27881 0.89407 0.78505 0.0
C492 C 0.48379 0.50951 0.03936 0.0
C493 C 0.49811 0.54771 0.0154 0.0
C494 C 0.4429 0.44979 0.98825 0.0
C495 C 0.41914 0.41493 0.01341 0.0
N496 N 0.39668 0.42265 0.06157 0.0
N497 N 0.48237 0.55194 0.96585 0.0
C498 C 0.43249 0.44861 0.03847 0.0
C499 C 0.4753 0.51751 0.98927 0.0
N500 N 0.51877 0.53107 0.06307 0.0
N501 N 0.43669 0.41963 0.96387 0.0
H502 H 0.50576 0.60089 0.9656 0.0
H503 H 0.461 0.53127 0.94707 0.0
H504 H 0.41337 0.37083 0.96224 0.0
H505 H 0.45871 0.44358 0.94569 0.0
H506 H 0.50966 0.50239 0.08055 0.0
H507 H 0.56061 0.57436 0.06385 0.0
H508 H 0.40508 0.448 0.07989 0.0
H509 H 0.35493 0.37924 0.06113 0.0
C510 C 0.93431 0.46707 0.37081 0.0
C511 C 0.91809 0.48762 0.34619 0.0
C512 C -0.03183 0.43867 0.3203 0.0
C513 C -0.02712 0.41012 0.34539 0.0
N514 N 0.92943 0.37581 0.39131 0.0
N515 N 0.90947 0.47959 0.29588 0.0
C516 C 0.9441 0.41617 0.36934 0.0
C517 C 0.93182 0.46962 0.32023 0.0
N518 N 0.94454 0.49807 0.39535 0.0
N519 N -0.00086 0.43851 0.29707 0.0
H520 H 0.88105 0.4996 0.29465 0.0
H521 H 0.91434 0.46209 0.27705 0.0
H522 H 0.02499 0.41572 0.29602 0.0
H523 H 0.00213 0.46465 0.27939 0.0
H524 H 0.95874 0.48416 0.41323 0.0
H525 H 0.94754 0.54185 0.39673 0.0
H526 H 0.9071 0.37947 0.4089 0.0
H527 H 0.93346 0.33554 0.39034 0.0
C528 C 0.51171 0.9697 0.70405 0.0
C529 C 0.54505 -0.0009 0.67965 0.0
C530 C 0.44328 0.95183 0.65527 0.0
C531 C 0.41194 0.93744 0.68145 0.0
N532 N 0.42781 0.96383 0.7305 0.0
N533 N 0.54035 0.02247 0.63114 0.0
C534 C 0.44935 0.95527 0.70587 0.0
C535 C 0.51046 -0.00867 0.65476 0.0
N536 N 0.54054 0.95949 0.72615 0.0
N537 N 0.41073 0.92705 0.63126 0.0
H538 H 0.58902 0.05056 0.62985 0.0
H539 H 0.5161 0.02322 0.61343 0.0
H540 H 0.36264 0.89541 0.63056 0.0
H541 H 0.43302 0.93285 0.6123 0.0
H542 H 0.51597 0.9364 0.74408 0.0
H543 H 0.58659 0.96808 0.72507 0.0
H544 H 0.45627 -0.02034 0.74818 0.0
H545 H 0.38584 0.96436 0.73212 0.0
C546 C 0.50464 0.51839 0.60479 0.0
C547 C 0.54035 0.52607 0.629 0.0
C548 C 0.44033 0.46607 0.65404 0.0
C549 C 0.40772 0.4472 0.62807 0.0
N550 N 0.42133 0.43607 0.579 0.0
N551 N 0.53988 0.49918 0.67755 0.0
C552 C 0.44364 0.46727 0.60347 0.0
C553 C 0.50783 0.49787 0.65412 0.0
N554 N 0.5294 0.55819 0.58262 0.0
N555 N 0.40855 0.45622 0.67827 0.0
H556 H 0.5887 0.52235 0.67868 0.0
H557 H 0.51736 0.47343 0.69531 0.0
H558 H 0.35995 0.43532 0.67935 0.0
H559 H 0.43141 0.47444 0.6971 0.0
H560 H 0.50272 0.55372 0.56492 0.0
H561 H 0.57355 0.59899 0.58349 0.0
H562 H 0.44871 0.44939 0.5611 0.0
H563 H 0.37972 0.39271 0.5777 0.0
C564 C -0.03021 0.50499 0.93878 0.0
C565 C -0.00959 0.5416 0.96317 0.0
C566 C 0.94195 0.44175 0.98963 0.0
C567 C 0.93343 0.40844 0.96444 0.0
N568 N -0.0299 0.41812 0.91724 0.0
N569 N 0.00401 0.54183 0.01315 0.0
C570 C 0.9586 0.4436 0.93987 0.0
C571 C -0.02104 0.50943 0.98921 0.0
N572 N 0.95875 0.52758 0.91469 0.0
N573 N 0.91392 0.41024 0.01347 0.0
H574 H 0.0316 0.59061 0.01389 0.0
H575 H 0.00137 0.51943 0.03197 0.0
H576 H 0.88732 0.36138 0.01472 0.0
H577 H 0.91383 0.43326 0.03148 0.0
H578 H 0.9414 0.49987 0.89695 0.0
H579 H 0.95903 0.57019 0.91371 0.0
H580 H -0.00971 0.44444 0.89926 0.0
H581 H -0.03387 0.37376 0.91788 0.0
C582 C 0.46277 0.94903 0.3235 0.0
C583 C 0.48905 0.9409 0.29873 0.0
C584 C 0.42857 -0.0251 0.27181 0.0
C585 C 0.41146 -0.00458 0.29571 0.0
N586 N 0.42256 0.01002 0.34557 0.0
N587 N 0.51737 -0.02317 0.25129 0.0
C588 C 0.43132 -0.01508 0.32214 0.0
C589 C 0.47922 0.96474 0.27362 0.0
N590 N 0.46557 0.9217 0.34779 0.0
N591 N 0.39628 0.96421 0.2474 0.0
H592 H 0.55843 0.97427 0.25249 0.0
H593 H 0.51155 -0.00368 0.23294 0.0
H594 H 0.35442 0.96517 0.24586 0.0
H595 H 0.40732 0.94688 0.22998 0.0
H596 H 0.44146 0.92143 0.36548 0.0
H597 H 0.48811 0.89565 0.34977 0.0
H598 H 0.44182 0.00828 0.36468 0.0
H599 H 0.40055 0.03671 0.3456 0.0
loop_
_geom_bond_atom_site_label_1
_geom_bond_atom_site_label_2
_geom_bond_distance
_geom_bond_site_symmetry_2
_ccdc_geom_bond_type
Mg0 O1 2.028 . S
Mg0 O7 1.986 . S
Mg0 O9 2.114 . S
Mg0 O10 2.251 . S
Mg0 O13 2.010 . S
O1 Mg0 2.028 . S
O1 C4 1.250 . S
O2 Mg3 2.028 . S
O2 C4 1.248 . S
Mg3 O2 2.028 . S
Mg3 O8 2.032 . S
Mg3 O10 2.079 . S
C4 O1 1.250 . S
C4 O2 1.248 . S
C5 O6 1.264 . S
C5 O13 1.249 . S
O6 C5 1.264 . S
O7 Mg0 1.986 . S
O7 C11 1.246 . S
O8 Mg3 2.032 . S
O8 C11 1.259 . S
O9 Mg0 2.114 . S
O9 C12 1.252 . S
O10 Mg0 2.251 . S
O10 Mg3 2.079 . S
O10 C12 1.273 . S
C11 O7 1.246 . S
C11 O8 1.259 . S
C12 O9 1.252 . S
C12 O10 1.273 . S
O13 Mg0 2.010 . S
O13 C5 1.249 . S
Mg14 O15 2.028 . S
Mg14 O21 1.986 . S
Mg14 O23 2.114 . S
Mg14 O24 2.251 . S
Mg14 O27 2.010 . S
O15 Mg14 2.028 . S
O15 C18 1.250 . S
O16 Mg17 2.028 . S
O16 C18 1.248 . S
Mg17 O16 2.028 . S
Mg17 O22 2.032 . S
Mg17 O24 2.079 . S
C18 O15 1.250 . S
C18 O16 1.248 . S
C19 O20 1.264 . S
C19 O27 1.249 . S
O20 C19 1.264 . S
O21 Mg14 1.986 . S
O21 C25 1.246 . S
O22 Mg17 2.032 . S
O22 C25 1.259 . S
O23 Mg14 2.114 . S
O23 C26 1.252 . S
O24 Mg14 2.251 . S
O24 Mg17 2.079 . S
O24 C26 1.273 . S
C25 O21 1.246 . S
C25 O22 1.259 . S
C26 O23 1.252 . S
C26 O24 1.273 . S
O27 Mg14 2.010 . S
O27 C19 1.249 . S
Mg28 O29 2.028 . S
Mg28 O35 1.986 . S
Mg28 O37 2.114 . S
Mg28 O38 2.251 . S
Mg28 O41 2.010 . S
O29 Mg28 2.028 . S
O29 C32 1.250 . S
O30 Mg31 2.028 . S
O30 C32 1.248 . S
Mg31 O30 2.028 . S
Mg31 O36 2.032 . S
Mg31 O38 2.079 . S
C32 O29 1.250 . S
C32 O30 1.248 . S
C33 O34 1.264 . S
C33 O41 1.249 . S
O34 C33 1.264 . S
O35 Mg28 1.986 . S
O35 C39 1.246 . S
O36 Mg31 2.032 . S
O36 C39 1.259 . S
O37 Mg28 2.114 . S
O37 C40 1.252 . S
O38 Mg28 2.251 . S
O38 Mg31 2.079 . S
O38 C40 1.273 . S
C39 O35 1.246 . S
C39 O36 1.259 . S
C40 O37 1.252 . S
C40 O38 1.273 . S
O41 Mg28 2.010 . S
O41 C33 1.249 . S
Mg42 O43 2.028 . S
Mg42 O49 1.986 . S
Mg42 O51 2.114 . S
Mg42 O52 2.251 . S
Mg42 O55 2.010 . S
O43 Mg42 2.028 . S
O43 C46 1.250 . S
O44 Mg45 2.028 . S
O44 C46 1.248 . S
Mg45 O44 2.028 . S
Mg45 O50 2.032 . S
Mg45 O52 2.079 . S
C46 O43 1.250 . S
C46 O44 1.248 . S
C47 O48 1.264 . S
C47 O55 1.249 . S
O48 C47 1.264 . S
O49 Mg42 1.986 . S
O49 C53 1.246 . S
O50 Mg45 2.032 . S
O50 C53 1.259 . S
O51 Mg42 2.114 . S
O51 C54 1.252 . S
O52 Mg42 2.251 . S
O52 Mg45 2.079 . S
O52 C54 1.273 . S
C53 O49 1.246 . S
C53 O50 1.259 . S
C54 O51 1.252 . S
C54 O52 1.273 . S
O55 Mg42 2.010 . S
O55 C47 1.249 . S
Mg56 O57 2.028 . S
Mg56 O63 1.986 . S
Mg56 O65 2.114 . S
Mg56 O66 2.251 . S
Mg56 O69 2.010 . S
O57 Mg56 2.028 . S
O57 C60 1.250 . S
O58 Mg59 2.028 . S
O58 C60 1.248 . S
Mg59 O58 2.028 . S
Mg59 O64 2.032 . S
Mg59 O66 2.079 . S
C60 O57 1.250 . S
C60 O58 1.248 . S
C61 O62 1.264 . S
C61 O69 1.249 . S
O62 C61 1.264 . S
O63 Mg56 1.986 . S
O63 C67 1.246 . S
O64 Mg59 2.032 . S
O64 C67 1.259 . S
O65 Mg56 2.114 . S
O65 C68 1.252 . S
O66 Mg56 2.251 . S
O66 Mg59 2.079 . S
O66 C68 1.273 . S
C67 O63 1.246 . S
C67 O64 1.259 . S
C68 O65 1.252 . S
C68 O66 1.273 . S
O69 Mg56 2.010 . S
O69 C61 1.249 . S
Mg70 O71 2.028 . S
Mg70 O77 1.986 . S
Mg70 O79 2.114 . S
Mg70 O80 2.251 . S
Mg70 O83 2.010 . S
O71 Mg70 2.028 . S
O71 C74 1.250 . S
O72 Mg73 2.028 . S
O72 C74 1.248 . S
Mg73 O72 2.028 . S
Mg73 O78 2.032 . S
Mg73 O80 2.079 . S
C74 O71 1.250 . S
C74 O72 1.248 . S
C75 O76 1.264 . S
C75 O83 1.249 . S
O76 C75 1.264 . S
O77 Mg70 1.986 . S
O77 C81 1.246 . S
O78 Mg73 2.032 . S
O78 C81 1.259 . S
O79 Mg70 2.114 . S
O79 C82 1.252 . S
O80 Mg70 2.251 . S
O80 Mg73 2.079 . S
O80 C82 1.273 . S
C81 O77 1.246 . S
C81 O78 1.259 . S
C82 O79 1.252 . S
C82 O80 1.273 . S
O83 Mg70 2.010 . S
O83 C75 1.249 . S
Mg84 O85 2.028 . S
Mg84 O91 1.986 . S
Mg84 O93 2.114 . S
Mg84 O94 2.251 . S
Mg84 O97 2.010 . S
O85 Mg84 2.028 . S
O85 C88 1.250 . S
O86 Mg87 2.028 . S
O86 C88 1.248 . S
Mg87 O86 2.028 . S
Mg87 O92 2.032 . S
Mg87 O94 2.079 . S
C88 O85 1.250 . S
C88 O86 1.248 . S
C89 O90 1.264 . S
C89 O97 1.249 . S
O90 C89 1.264 . S
O91 Mg84 1.986 . S
O91 C95 1.246 . S
O92 Mg87 2.032 . S
O92 C95 1.259 . S
O93 Mg84 2.114 . S
O93 C96 1.252 . S
O94 Mg84 2.251 . S
O94 Mg87 2.079 . S
O94 C96 1.273 . S
C95 O91 1.246 . S
C95 O92 1.259 . S
C96 O93 1.252 . S
C96 O94 1.273 . S
O97 Mg84 2.010 . S
O97 C89 1.249 . S
Mg98 O99 2.028 . S
Mg98 O105 1.986 . S
Mg98 O107 2.114 . S
Mg98 O108 2.251 . S
Mg98 O111 2.010 . S
O99 Mg98 2.028 . S
O99 C102 1.250 . S
O100 Mg101 2.028 . S
O100 C102 1.248 . S
Mg101 O100 2.028 . S
Mg101 O106 2.032 . S
Mg101 O108 2.079 . S
C102 O99 1.250 . S
C102 O100 1.248 . S
C103 O104 1.264 . S
C103 O111 1.249 . S
O104 C103 1.264 . S
O105 Mg98 1.986 . S
O105 C109 1.246 . S
O106 Mg101 2.032 . S
O106 C109 1.259 . S
O107 Mg98 2.114 . S
O107 C110 1.252 . S
O108 Mg98 2.251 . S
O108 Mg101 2.079 . S
O108 C110 1.273 . S
C109 O105 1.246 . S
C109 O106 1.259 . S
C110 O107 1.252 . S
C110 O108 1.273 . S
O111 Mg98 2.010 . S
O111 C103 1.249 . S
Mg112 O113 2.028 . S
Mg112 O119 1.986 . S
Mg112 O121 2.114 . S
Mg112 O122 2.251 . S
Mg112 O125 2.010 . S
O113 Mg112 2.028 . S
O113 C116 1.250 . S
O114 Mg115 2.028 . S
O114 C116 1.248 . S
Mg115 O114 2.028 . S
Mg115 O120 2.032 . S
Mg115 O122 2.079 . S
C116 O113 1.250 . S
C116 O114 1.248 . S
C117 O118 1.264 . S
C117 O125 1.249 . S
O118 C117 1.264 . S
O119 Mg112 1.986 . S
O119 C123 1.246 . S
O120 Mg115 2.032 . S
O120 C123 1.259 . S
O121 Mg112 2.114 . S
O121 C124 1.252 . S
O122 Mg112 2.251 . S
O122 Mg115 2.079 . S
O122 C124 1.273 . S
C123 O119 1.246 . S
C123 O120 1.259 . S
C124 O121 1.252 . S
C124 O122 1.273 . S
O125 Mg112 2.010 . S
O125 C117 1.249 . S
Mg126 O127 2.028 . S
Mg126 O133 1.986 . S
Mg126 O135 2.114 . S
Mg126 O136 2.251 . S
Mg126 O139 2.010 . S
O127 Mg126 2.028 . S
O127 C130 1.250 . S
O128 Mg129 2.028 . S
O128 C130 1.248 . S
Mg129 O128 2.028 . S
Mg129 O134 2.032 . S
Mg129 O136 2.079 . S
C130 O127 1.250 . S
C130 O128 1.248 . S
C131 O132 1.264 . S
C131 O139 1.249 . S
O132 C131 1.264 . S
O133 Mg126 1.986 . S
O133 C137 1.246 . S
O134 Mg129 2.032 . S
O134 C137 1.259 . S
O135 Mg126 2.114 . S
O135 C138 1.252 . S
O136 Mg126 2.251 . S
O136 Mg129 2.079 . S
O136 C138 1.273 . S
C137 O133 1.246 . S
C137 O134 1.259 . S
C138 O135 1.252 . S
C138 O136 1.273 . S
O139 Mg126 2.010 . S
O139 C131 1.249 . S
Mg140 O141 2.028 . S
Mg140 O147 1.986 . S
Mg140 O149 2.114 . S
Mg140 O150 2.251 . S
Mg140 O153 2.010 . S
O141 Mg140 2.028 . S
O141 C144 1.250 . S
O142 Mg143 2.028 . S
O142 C144 1.248 . S
Mg143 O142 2.028 . S
Mg143 O148 2.032 . S
Mg143 O150 2.079 . S
C144 O141 1.250 . S
C144 O142 1.248 . S
C145 O146 1.264 . S
C145 O153 1.249 . S
O146 C145 1.264 . S
O147 Mg140 1.986 . S
O147 C151 1.246 . S
O148 Mg143 2.032 . S
O148 C151 1.259 . S
O149 Mg140 2.114 . S
O149 C152 1.252 . S
O150 Mg140 2.251 . S
O150 Mg143 2.079 . S
O150 C152 1.273 . S
C151 O147 1.246 . S
C151 O148 1.259 . S
C152 O149 1.252 . S
C152 O150 1.273 . S
O153 Mg140 2.010 . S
O153 C145 1.249 . S
Mg154 O155 2.028 . S
Mg154 O161 1.986 . S
Mg154 O163 2.114 . S
Mg154 O164 2.251 . S
Mg154 O167 2.010 . S
O155 Mg154 2.028 . S
O155 C158 1.250 . S
O156 Mg157 2.028 . S
O156 C158 1.248 . S
Mg157 O156 2.028 . S
Mg157 O162 2.032 . S
Mg157 O164 2.079 . S
C158 O155 1.250 . S
C158 O156 1.248 . S
C159 O160 1.264 . S
C159 O167 1.249 . S
O160 C159 1.264 . S
O161 Mg154 1.986 . S
O161 C165 1.246 . S
O162 Mg157 2.032 . S
O162 C165 1.259 . S
O163 Mg154 2.114 . S
O163 C166 1.252 . S
O164 Mg154 2.251 . S
O164 Mg157 2.079 . S
O164 C166 1.273 . S
C165 O161 1.246 . S
C165 O162 1.259 . S
C166 O163 1.252 . S
C166 O164 1.273 . S
O167 Mg154 2.010 . S
O167 C159 1.249 . S
C168 C169 1.363 1_554 S
C168 C174 1.379 1_565 S
C168 N176 1.356 . S
C169 C168 1.363 1_556 S
C169 C175 1.363 . S
C170 C171 1.363 1_556 S
C170 C175 1.379 1_545 S
C170 N177 1.356 . S
C171 C170 1.363 1_554 S
C171 C174 1.363 . S
N172 C174 1.356 . S
N172 H184 0.984 . S
N172 H185 0.985 . S
N173 C175 1.356 . S
N173 H178 0.984 . S
N173 H179 0.985 . S
C174 C168 1.379 1_545 S
C174 C171 1.363 . S
C174 N172 1.356 . S
C175 C169 1.363 . S
C175 C170 1.379 1_565 S
C175 N173 1.356 . S
N176 C168 1.356 . S
N176 H182 0.984 . S
N176 H183 0.984 . S
N177 C170 1.356 . S
N177 H180 0.984 . S
N177 H181 0.985 . S
H178 N173 0.984 . S
H179 N173 0.985 . S
H180 N177 0.984 . S
H181 N177 0.985 . S
H182 N176 0.984 . S
H183 N176 0.984 . S
H184 N172 0.984 . S
H185 N172 0.985 . S
C186 C187 1.363 . S
C186 C192 1.379 . S
C186 N194 1.356 . S
C187 C186 1.363 . S
C187 C193 1.363 . S
C188 C189 1.363 . S
C188 C193 1.379 . S
C188 N195 1.356 . S
C189 C188 1.363 . S
C189 C192 1.363 . S
N190 C192 1.356 . S
N190 H202 0.984 . S
N190 H203 0.985 . S
N191 C193 1.356 . S
N191 H196 0.984 . S
N191 H197 0.985 . S
C192 C186 1.379 . S
C192 C189 1.363 . S
C192 N190 1.356 . S
C193 C187 1.363 . S
C193 C188 1.379 . S
C193 N191 1.356 . S
N194 C186 1.356 . S
N194 H200 0.984 . S
N194 H201 0.984 . S
N195 C188 1.356 . S
N195 H198 0.984 . S
N195 H199 0.985 . S
H196 N191 0.984 . S
H197 N191 0.985 . S
H198 N195 0.984 . S
H199 N195 0.985 . S
H200 N194 0.984 . S
H201 N194 0.984 . S
H202 N190 0.984 . S
H203 N190 0.985 . S
C204 C205 1.363 . S
C204 C210 1.379 1_655 S
C204 N212 1.356 . S
C205 C204 1.363 . S
C205 C211 1.363 . S
C206 C207 1.363 . S
C206 C211 1.379 1_455 S
C206 N213 1.356 . S
C207 C206 1.363 . S
C207 C210 1.363 . S
N208 C210 1.356 . S
N208 H220 0.984 . S
N208 H221 0.985 . S
N209 C211 1.356 . S
N209 H214 0.984 . S
N209 H215 0.985 . S
C210 C204 1.379 1_455 S
C210 C207 1.363 . S
C210 N208 1.356 . S
C211 C205 1.363 . S
C211 C206 1.379 1_655 S
C211 N209 1.356 . S
N212 C204 1.356 . S
N212 H218 0.984 . S
N212 H219 0.984 . S
N213 C206 1.356 . S
N213 H216 0.984 . S
N213 H217 0.985 . S
H214 N209 0.984 . S
H215 N209 0.985 . S
H216 N213 0.984 . S
H217 N213 0.985 . S
H218 N212 0.984 . S
H219 N212 0.984 . S
H220 N208 0.984 . S
H221 N208 0.985 . S
C222 C223 1.363 . S
C222 C228 1.379 1_565 S
C222 N230 1.356 . S
C223 C222 1.363 . S
C223 C229 1.363 1_554 S
C224 C225 1.363 . S
C224 C229 1.379 1_545 S
C224 N231 1.356 . S
C225 C224 1.363 . S
C225 C228 1.363 1_556 S
N226 C228 1.356 . S
N226 H238 0.984 . S
N226 H239 0.985 . S
N227 C229 1.356 . S
N227 H232 0.984 . S
N227 H233 0.985 . S
C228 C222 1.379 1_545 S
C228 C225 1.363 1_554 S
C228 N226 1.356 . S
C229 C223 1.363 1_556 S
C229 C224 1.379 1_565 S
C229 N227 1.356 . S
N230 C222 1.356 . S
N230 H236 0.984 . S
N230 H237 0.984 . S
N231 C224 1.356 . S
N231 H234 0.984 . S
N231 H235 0.985 . S
H232 N227 0.984 . S
H233 N227 0.985 . S
H234 N231 0.984 . S
H235 N231 0.985 . S
H236 N230 0.984 . S
H237 N230 0.984 . S
H238 N226 0.984 . S
H239 N226 0.985 . S
C240 C241 1.363 . S
C240 C246 1.379 . S
C240 N248 1.356 . S
C241 C240 1.363 . S
C241 C247 1.363 . S
C242 C243 1.363 . S
C242 C247 1.379 . S
C242 N249 1.356 . S
C243 C242 1.363 . S
C243 C246 1.363 . S
N244 C246 1.356 . S
N244 H256 0.984 . S
N244 H257 0.985 . S
N245 C247 1.356 . S
N245 H250 0.984 . S
N245 H251 0.985 . S
C246 C240 1.379 . S
C246 C243 1.363 . S
C246 N244 1.356 . S
C247 C241 1.363 . S
C247 C242 1.379 . S
C247 N245 1.356 . S
N248 C240 1.356 . S
N248 H254 0.984 . S
N248 H255 0.984 . S
N249 C242 1.356 . S
N249 H252 0.984 . S
N249 H253 0.985 . S
H250 N245 0.984 . S
H251 N245 0.985 . S
H252 N249 0.984 . S
H253 N249 0.985 . S
H254 N248 0.984 . S
H255 N248 0.984 . S
H256 N244 0.984 . S
H257 N244 0.985 . S
C258 C259 1.363 . S
C258 C264 1.379 1_655 S
C258 N266 1.356 . S
C259 C258 1.363 . S
C259 C265 1.363 . S
C260 C261 1.363 . S
C260 C265 1.379 1_455 S
C260 N267 1.356 . S
C261 C260 1.363 . S
C261 C264 1.363 . S
N262 C264 1.356 . S
N262 H274 0.984 . S
N262 H275 0.985 . S
N263 C265 1.356 . S
N263 H268 0.984 . S
N263 H269 0.985 . S
C264 C258 1.379 1_455 S
C264 C261 1.363 . S
C264 N262 1.356 . S
C265 C259 1.363 . S
C265 C260 1.379 1_655 S
C265 N263 1.356 . S
N266 C258 1.356 . S
N266 H272 0.984 . S
N266 H273 0.984 . S
N267 C260 1.356 . S
N267 H270 0.984 . S
N267 H271 0.985 . S
H268 N263 0.984 . S
H269 N263 0.985 . S
H270 N267 0.984 . S
H271 N267 0.985 . S
H272 N266 0.984 . S
H273 N266 0.984 . S
H274 N262 0.984 . S
H275 N262 0.985 . S
C276 C277 1.363 1_554 S
C276 C282 1.379 . S
C276 N284 1.356 . S
C277 C276 1.363 1_556 S
C277 C283 1.363 . S
C278 C279 1.363 1_556 S
C278 C283 1.379 . S
C278 N285 1.356 . S
C279 C278 1.363 1_554 S
C279 C282 1.363 . S
N280 C282 1.356 . S
N280 H292 0.984 . S
N280 H293 0.985 . S
N281 C283 1.356 . S
N281 H286 0.984 . S
N281 H287 0.985 . S
C282 C276 1.379 . S
C282 C279 1.363 . S
C282 N280 1.356 . S
C283 C277 1.363 . S
C283 C278 1.379 . S
C283 N281 1.356 . S
N284 C276 1.356 . S
N284 H290 0.984 . S
N284 H291 0.984 1_554 S
N285 C278 1.356 . S
N285 H288 0.984 1_556 S
N285 H289 0.985 . S
H286 N281 0.984 . S
H287 N281 0.985 . S
H288 N285 0.984 1_554 S
H289 N285 0.985 . S
H290 N284 0.984 . S
H291 N284 0.984 1_556 S
H292 N280 0.984 . S
H293 N280 0.985 . S
C294 C295 1.363 . S
C294 C300 1.379 . S
C294 N302 1.356 . S
C295 C294 1.363 . S
C295 C301 1.363 . S
C296 C297 1.363 . S
C296 C301 1.379 . S
C296 N303 1.356 . S
C297 C296 1.363 . S
C297 C300 1.363 . S
N298 C300 1.356 . S
N298 H310 0.984 . S
N298 H311 0.985 . S
N299 C301 1.356 . S
N299 H304 0.984 . S
N299 H305 0.985 . S
C300 C294 1.379 . S
C300 C297 1.363 . S
C300 N298 1.356 . S
C301 C295 1.363 . S
C301 C296 1.379 . S
C301 N299 1.356 . S
N302 C294 1.356 . S
N302 H308 0.984 . S
N302 H309 0.984 . S
N303 C296 1.356 . S
N303 H306 0.984 . S
N303 H307 0.985 . S
H304 N299 0.984 . S
H305 N299 0.985 . S
H306 N303 0.984 . S
H307 N303 0.985 . S
H308 N302 0.984 . S
H309 N302 0.984 . S
H310 N298 0.984 . S
H311 N298 0.985 . S
C312 C313 1.363 . S
C312 C318 1.379 . S
C312 N320 1.356 . S
C313 C312 1.363 . S
C313 C319 1.363 . S
C314 C315 1.363 . S
C314 C319 1.379 . S
C314 N321 1.356 . S
C315 C314 1.363 . S
C315 C318 1.363 . S
N316 C318 1.356 . S
N316 H328 0.984 . S
N316 H329 0.985 . S
N317 C319 1.356 . S
N317 H322 0.984 . S
N317 H323 0.985 . S
C318 C312 1.379 . S
C318 C315 1.363 . S
C318 N316 1.356 . S
C319 C313 1.363 . S
C319 C314 1.379 . S
C319 N317 1.356 . S
N320 C312 1.356 . S
N320 H326 0.984 . S
N320 H327 0.984 . S
N321 C314 1.356 . S
N321 H324 0.984 . S
N321 H325 0.985 . S
H322 N317 0.984 . S
H323 N317 0.985 . S
H324 N321 0.984 . S
H325 N321 0.985 . S
H326 N320 0.984 . S
H327 N320 0.984 . S
H328 N316 0.984 . S
H329 N316 0.985 . S
C330 C331 1.363 1_554 S
C330 C336 1.379 . S
C330 N338 1.356 . S
C331 C330 1.363 1_556 S
C331 C337 1.363 . S
C332 C333 1.363 1_556 S
C332 C337 1.379 . S
C332 N339 1.356 . S
C333 C332 1.363 1_554 S
C333 C336 1.363 . S
N334 C336 1.356 . S
N334 H346 0.984 . S
N334 H347 0.985 . S
N335 C337 1.356 . S
N335 H340 0.984 . S
N335 H341 0.985 . S
C336 C330 1.379 . S
C336 C333 1.363 . S
C336 N334 1.356 . S
C337 C331 1.363 . S
C337 C332 1.379 . S
C337 N335 1.356 . S
N338 C330 1.356 . S
N338 H344 0.984 . S
N338 H345 0.984 1_554 S
N339 C332 1.356 . S
N339 H342 0.984 1_556 S
N339 H343 0.985 . S
H340 N335 0.984 . S
H341 N335 0.985 . S
H342 N339 0.984 1_554 S
H343 N339 0.985 . S
H344 N338 0.984 . S
H345 N338 0.984 1_556 S
H346 N334 0.984 . S
H347 N334 0.985 . S
C348 C349 1.363 . S
C348 C354 1.379 . S
C348 N356 1.356 . S
C349 C348 1.363 . S
C349 C355 1.363 . S
C350 C351 1.363 . S
C350 C355 1.379 . S
C350 N357 1.356 . S
C351 C350 1.363 . S
C351 C354 1.363 . S
N352 C354 1.356 . S
N352 H364 0.984 . S
N352 H365 0.985 . S
N353 C355 1.356 . S
N353 H358 0.984 . S
N353 H359 0.985 . S
C354 C348 1.379 . S
C354 C351 1.363 . S
C354 N352 1.356 . S
C355 C349 1.363 . S
C355 C350 1.379 . S
C355 N353 1.356 . S
N356 C348 1.356 . S
N356 H362 0.984 . S
N356 H363 0.984 . S
N357 C350 1.356 . S
N357 H360 0.984 . S
N357 H361 0.985 . S
H358 N353 0.984 . S
H359 N353 0.985 . S
H360 N357 0.984 . S
H361 N357 0.985 . S
H362 N356 0.984 . S
H363 N356 0.984 . S
H364 N352 0.984 . S
H365 N352 0.985 . S
C366 C367 1.363 . S
C366 C372 1.379 . S
C366 N374 1.356 . S
C367 C366 1.363 . S
C367 C373 1.363 . S
C368 C369 1.363 . S
C368 C373 1.379 . S
C368 N375 1.356 . S
C369 C368 1.363 . S
C369 C372 1.363 . S
N370 C372 1.356 . S
N370 H382 0.984 . S
N370 H383 0.985 . S
N371 C373 1.356 . S
N371 H376 0.984 . S
N371 H377 0.985 . S
C372 C366 1.379 . S
C372 C369 1.363 . S
C372 N370 1.356 . S
C373 C367 1.363 . S
C373 C368 1.379 . S
C373 N371 1.356 . S
N374 C366 1.356 . S
N374 H380 0.984 . S
N374 H381 0.984 . S
N375 C368 1.356 . S
N375 H378 0.984 . S
N375 H379 0.985 . S
H376 N371 0.984 . S
H377 N371 0.985 . S
H378 N375 0.984 . S
H379 N375 0.985 . S
H380 N374 0.984 . S
H381 N374 0.984 . S
H382 N370 0.984 . S
H383 N370 0.985 . S
C384 C385 1.363 . S
C384 C390 1.379 . S
C384 N392 1.356 . S
C385 C384 1.363 . S
C385 C391 1.363 . S
C386 C387 1.363 . S
C386 C391 1.379 . S
C386 N393 1.356 . S
C387 C386 1.363 . S
C387 C390 1.363 . S
N388 C390 1.356 . S
N388 H400 0.984 . S
N388 H401 0.985 . S
N389 C391 1.356 . S
N389 H394 0.984 . S
N389 H395 0.985 . S
C390 C384 1.379 . S
C390 C387 1.363 . S
C390 N388 1.356 . S
C391 C385 1.363 . S
C391 C386 1.379 . S
C391 N389 1.356 . S
N392 C384 1.356 . S
N392 H398 0.984 . S
N392 H399 0.984 . S
N393 C386 1.356 . S
N393 H396 0.984 . S
N393 H397 0.985 . S
H394 N389 0.984 . S
H395 N389 0.985 . S
H396 N393 0.984 . S
H397 N393 0.985 . S
H398 N392 0.984 . S
H399 N392 0.984 . S
H400 N388 0.984 . S
H401 N388 0.985 . S
C402 C403 1.363 . S
C402 C408 1.379 . S
C402 N410 1.356 . S
C403 C402 1.363 . S
C403 C409 1.363 . S
C404 C405 1.363 . S
C404 C409 1.379 . S
C404 N411 1.356 . S
C405 C404 1.363 . S
C405 C408 1.363 . S
N406 C408 1.356 . S
N406 H418 0.984 . S
N406 H419 0.985 . S
N407 C409 1.356 . S
N407 H412 0.984 . S
N407 H413 0.985 . S
C408 C402 1.379 . S
C408 C405 1.363 . S
C408 N406 1.356 . S
C409 C403 1.363 . S
C409 C404 1.379 . S
C409 N407 1.356 . S
N410 C402 1.356 . S
N410 H416 0.984 . S
N410 H417 0.984 . S
N411 C404 1.356 . S
N411 H414 0.984 . S
N411 H415 0.985 . S
H412 N407 0.984 . S
H413 N407 0.985 . S
H414 N411 0.984 . S
H415 N411 0.985 . S
H416 N410 0.984 . S
H417 N410 0.984 . S
H418 N406 0.984 . S
H419 N406 0.985 . S
C420 C421 1.363 . S
C420 C426 1.379 . S
C420 N428 1.356 . S
C421 C420 1.363 . S
C421 C427 1.363 . S
C422 C423 1.363 . S
C422 C427 1.379 . S
C422 N429 1.356 . S
C423 C422 1.363 . S
C423 C426 1.363 . S
N424 C426 1.356 . S
N424 H436 0.984 . S
N424 H437 0.985 . S
N425 C427 1.356 . S
N425 H430 0.984 . S
N425 H431 0.985 . S
C426 C420 1.379 . S
C426 C423 1.363 . S
C426 N424 1.356 . S
C427 C421 1.363 . S
C427 C422 1.379 . S
C427 N425 1.356 . S
N428 C420 1.356 . S
N428 H434 0.984 . S
N428 H435 0.984 . S
N429 C422 1.356 . S
N429 H432 0.984 . S
N429 H433 0.985 . S
H430 N425 0.984 . S
H431 N425 0.985 . S
H432 N429 0.984 . S
H433 N429 0.985 . S
H434 N428 0.984 . S
H435 N428 0.984 . S
H436 N424 0.984 . S
H437 N424 0.985 . S
C438 C439 1.363 . S
C438 C444 1.379 . S
C438 N446 1.356 . S
C439 C438 1.363 . S
C439 C445 1.363 . S
C440 C441 1.363 . S
C440 C445 1.379 . S
C440 N447 1.356 . S
C441 C440 1.363 . S
C441 C444 1.363 . S
N442 C444 1.356 . S
N442 H454 0.984 . S
N442 H455 0.985 . S
N443 C445 1.356 . S
N443 H448 0.984 . S
N443 H449 0.985 . S
C444 C438 1.379 . S
C444 C441 1.363 . S
C444 N442 1.356 . S
C445 C439 1.363 . S
C445 C440 1.379 . S
C445 N443 1.356 . S
N446 C438 1.356 . S
N446 H452 0.984 . S
N446 H453 0.984 . S
N447 C440 1.356 . S
N447 H450 0.984 . S
N447 H451 0.985 . S
H448 N443 0.984 . S
H449 N443 0.985 . S
H450 N447 0.984 . S
H451 N447 0.985 . S
H452 N446 0.984 . S
H453 N446 0.984 . S
H454 N442 0.984 . S
H455 N442 0.985 . S
C456 C457 1.363 . S
C456 C462 1.379 . S
C456 N464 1.356 . S
C457 C456 1.363 . S
C457 C463 1.363 . S
C458 C459 1.363 . S
C458 C463 1.379 . S
C458 N465 1.356 . S
C459 C458 1.363 . S
C459 C462 1.363 . S
N460 C462 1.356 . S
N460 H472 0.984 . S
N460 H473 0.985 . S
N461 C463 1.356 . S
N461 H466 0.984 . S
N461 H467 0.985 . S
C462 C456 1.379 . S
C462 C459 1.363 . S
C462 N460 1.356 . S
C463 C457 1.363 . S
C463 C458 1.379 . S
C463 N461 1.356 . S
N464 C456 1.356 . S
N464 H470 0.984 . S
N464 H471 0.984 . S
N465 C458 1.356 . S
N465 H468 0.984 . S
N465 H469 0.985 . S
H466 N461 0.984 . S
H467 N461 0.985 . S
H468 N465 0.984 . S
H469 N465 0.985 . S
H470 N464 0.984 . S
H471 N464 0.984 . S
H472 N460 0.984 . S
H473 N460 0.985 . S
C474 C475 1.363 . S
C474 C480 1.379 . S
C474 N482 1.356 . S
C475 C474 1.363 . S
C475 C481 1.363 . S
C476 C477 1.363 . S
C476 C481 1.379 . S
C476 N483 1.356 . S
C477 C476 1.363 . S
C477 C480 1.363 . S
N478 C480 1.356 . S
N478 H490 0.984 . S
N478 H491 0.985 . S
N479 C481 1.356 . S
N479 H484 0.984 . S
N479 H485 0.985 . S
C480 C474 1.379 . S
C480 C477 1.363 . S
C480 N478 1.356 . S
C481 C475 1.363 . S
C481 C476 1.379 . S
C481 N479 1.356 . S
N482 C474 1.356 . S
N482 H488 0.984 . S
N482 H489 0.984 . S
N483 C476 1.356 . S
N483 H486 0.984 . S
N483 H487 0.985 . S
H484 N479 0.984 . S
H485 N479 0.985 . S
H486 N483 0.984 . S
H487 N483 0.985 . S
H488 N482 0.984 . S
H489 N482 0.984 . S
H490 N478 0.984 . S
H491 N478 0.985 . S
C492 C493 1.363 . S
C492 C498 1.379 . S
C492 N500 1.356 . S
C493 C492 1.363 . S
C493 C499 1.363 . S
C494 C495 1.363 . S
C494 C499 1.379 . S
C494 N501 1.356 1_554 S
C495 C494 1.363 . S
C495 C498 1.363 . S
N496 C498 1.356 . S
N496 H508 0.984 . S
N496 H509 0.985 . S
N497 C499 1.356 1_556 S
N497 H502 0.988 . S
N497 H503 0.985 . S
C498 C492 1.379 . S
C498 C495 1.363 . S
C498 N496 1.356 . S
C499 C493 1.363 . S
C499 C494 1.379 . S
C499 N497 1.356 1_554 S
N500 C492 1.356 . S
N500 H506 0.984 . S
N500 H507 0.984 . S
N501 C494 1.356 1_556 S
N501 H504 0.988 . S
N501 H505 0.985 . S
H502 N497 0.988 . S
H503 N497 0.985 . S
H504 N501 0.988 . S
H505 N501 0.985 . S
H506 N500 0.984 . S
H507 N500 0.984 . S
H508 N496 0.984 . S
H509 N496 0.985 . S
C510 C511 1.363 1_455 S
C510 C516 1.379 . S
C510 N518 1.356 . S
C511 C510 1.363 1_655 S
C511 C517 1.363 . S
C512 C513 1.363 1_655 S
C512 C517 1.379 . S
C512 N519 1.356 . S
C513 C512 1.363 1_455 S
C513 C516 1.363 . S
N514 C516 1.356 . S
N514 H526 0.984 . S
N514 H527 0.985 . S
N515 C517 1.356 . S
N515 H520 0.984 . S
N515 H521 0.985 . S
C516 C510 1.379 . S
C516 C513 1.363 . S
C516 N514 1.356 . S
C517 C511 1.363 . S
C517 C512 1.379 . S
C517 N515 1.356 . S
N518 C510 1.356 . S
N518 H524 0.984 . S
N518 H525 0.981 1_455 S
N519 C512 1.356 . S
N519 H522 0.981 1_655 S
N519 H523 0.985 . S
H520 N515 0.984 . S
H521 N515 0.985 . S
H522 N519 0.981 1_455 S
H523 N519 0.985 . S
H524 N518 0.984 . S
H525 N518 0.981 1_655 S
H526 N514 0.984 . S
H527 N514 0.985 . S
C528 C529 1.363 1_565 S
C528 C534 1.379 . S
C528 N536 1.356 . S
C529 C528 1.363 1_545 S
C529 C535 1.363 . S
C530 C531 1.363 1_545 S
C530 C535 1.379 . S
C530 N537 1.356 . S
C531 C530 1.363 1_565 S
C531 C534 1.363 . S
N532 C534 1.356 . S
N532 H544 0.984 . S
N532 H545 0.985 . S
N533 C535 1.356 . S
N533 H538 0.984 . S
N533 H539 0.985 . S
C534 C528 1.379 . S
C534 C531 1.363 . S
C534 N532 1.356 . S
C535 C529 1.363 . S
C535 C530 1.379 . S
C535 N533 1.356 . S
N536 C528 1.356 . S
N536 H542 0.984 . S
N536 H543 0.984 1_565 S
N537 C530 1.356 . S
N537 H540 0.984 1_545 S
N537 H541 0.985 . S
H538 N533 0.984 . S
H539 N533 0.985 . S
H540 N537 0.984 1_565 S
H541 N537 0.985 . S
H542 N536 0.984 . S
H543 N536 0.984 1_545 S
H544 N532 0.984 . S
H545 N532 0.985 . S
C546 C547 1.363 . S
C546 C552 1.379 . S
C546 N554 1.356 . S
C547 C546 1.363 . S
C547 C553 1.363 . S
C548 C549 1.363 . S
C548 C553 1.379 . S
C548 N555 1.356 . S
C549 C548 1.363 . S
C549 C552 1.363 . S
N550 C552 1.356 . S
N550 H562 0.984 . S
N550 H563 0.985 . S
N551 C553 1.356 . S
N551 H556 0.984 . S
N551 H557 0.985 . S
C552 C546 1.379 . S
C552 C549 1.363 . S
C552 N550 1.356 . S
C553 C547 1.363 . S
C553 C548 1.379 . S
C553 N551 1.356 . S
N554 C546 1.356 . S
N554 H560 0.984 . S
N554 H561 0.984 . S
N555 C548 1.356 . S
N555 H558 0.984 . S
N555 H559 0.985 . S
H556 N551 0.984 . S
H557 N551 0.985 . S
H558 N555 0.984 . S
H559 N555 0.985 . S
H560 N554 0.984 . S
H561 N554 0.984 . S
H562 N550 0.984 . S
H563 N550 0.985 . S
C564 C565 1.363 1_655 S
C564 C570 1.379 . S
C564 N572 1.356 . S
C565 C564 1.363 1_455 S
C565 C571 1.363 . S
C566 C567 1.363 1_455 S
C566 C571 1.379 . S
C566 N573 1.356 1_556 S
C567 C566 1.363 1_655 S
C567 C570 1.363 . S
N568 C570 1.356 . S
N568 H580 0.984 . S
N568 H581 0.985 . S
N569 C571 1.356 1_554 S
N569 H574 0.988 . S
N569 H575 0.985 . S
C570 C564 1.379 . S
C570 C567 1.363 . S
C570 N568 1.356 . S
C571 C565 1.363 . S
C571 C566 1.379 . S
C571 N569 1.356 1_556 S
N572 C564 1.356 . S
N572 H578 0.984 . S
N572 H579 0.984 1_655 S
N573 C566 1.356 1_554 S
N573 H576 0.988 1_455 S
N573 H577 0.985 . S
H574 N569 0.988 . S
H575 N569 0.985 . S
H576 N573 0.988 1_655 S
H577 N573 0.985 . S
H578 N572 0.984 . S
H579 N572 0.984 1_455 S
H580 N568 0.984 . S
H581 N568 0.985 . S
C582 C583 1.363 . S
C582 C588 1.379 . S
C582 N590 1.356 . S
C583 C582 1.363 . S
C583 C589 1.363 1_565 S
C584 C585 1.363 . S
C584 C589 1.379 . S
C584 N591 1.356 . S
C585 C584 1.363 . S
C585 C588 1.363 1_545 S
N586 C588 1.356 . S
N586 H598 0.984 . S
N586 H599 0.981 1_565 S
N587 C589 1.356 . S
N587 H592 0.981 1_545 S
N587 H593 0.985 . S
C588 C582 1.379 . S
C588 C585 1.363 1_565 S
C588 N586 1.356 . S
C589 C583 1.363 1_545 S
C589 C584 1.379 . S
C589 N587 1.356 . S
N590 C582 1.356 . S
N590 H596 0.984 . S
N590 H597 0.984 . S
N591 C584 1.356 . S
N591 H594 0.984 . S
N591 H595 0.985 . S
H592 N587 0.981 1_565 S
H593 N587 0.985 . S
H594 N591 0.984 . S
H595 N591 0.985 . S
H596 N590 0.984 . S
H597 N590 0.984 . S
H598 N586 0.984 . S
H599 N586 0.981 1_545 S
C169 C103 1.256 . S
C171 C5 1.256 . S
C187 C19 1.256 . S
C189 C117 1.256 . S
C205 C33 1.256 . S
C207 C131 1.256 . S
C223 C47 1.256 . S
C225 C145 1.256 . S
C241 C159 1.256 . S
C243 C61 1.256 . S
C259 C89 1.256 . S
C261 C75 1.256 . S
C277 C144 1.367 . S
C279 C4 1.367 . S
C295 C18 1.367 . S
C297 C158 1.367 . S
C313 C32 1.367 . S
C315 C88 1.367 . S
C331 C102 1.367 . S
C333 C46 1.367 . S
C349 C116 1.367 . S
C351 C60 1.367 . S
C367 C130 1.367 . S
C369 C74 1.367 . S
C385 C11 1.552 . S
C387 C123 1.552 . S
C403 C25 1.552 . S
C405 C137 1.552 . S
C421 C151 1.552 . S
C423 C39 1.552 . S
C439 C53 1.552 . S
C441 C165 1.552 . S
C457 C95 1.552 . S
C459 C67 1.552 . S
C475 C109 1.552 . S
C477 C81 1.552 . S
C493 C54 1.335 . S
C495 C12 1.335 . S
C511 C68 1.335 . S
C513 C26 1.335 . S
C529 C40 1.335 . S
C531 C82 1.335 . S
C547 C96 1.335 . S
C549 C138 1.335 . S
C565 C110 1.335 . S
C567 C152 1.335 . S
C583 C166 1.335 . S
C585 C124 1.335 . S
