# Generated by pormake.
# Topology wgu, (5)-cn, num edge types: 1
# Building blocks:
#     Node 0, Type 0, BuildingBlock: XOMCOT_clean_sbu_1, # of connection points: 5
#     Node 1, Type 0, BuildingBlock: XOMCOT_clean_sbu_1, # of connection points: 5
#     Node 2, Type 0, BuildingBlock: XOMCOT_clean_sbu_1, # of connection points: 5
#     Node 3, Type 0, BuildingBlock: XOMCOT_clean_sbu_1, # of connection points: 5
#     Node 4, Type 0, BuildingBlock: XOMCOT_clean_sbu_1, # of connection points: 5
#     Node 5, Type 0, BuildingBlock: XOMCOT_clean_sbu_1, # of connection points: 5
#     Node 6, Type 0, BuildingBlock: XOMCOT_clean_sbu_1, # of connection points: 5
#     Node 7, Type 0, BuildingBlock: XOMCOT_clean_sbu_1, # of connection points: 5
#     Edge 8, Type (0, 0), BuildingBlock: EZIPEK_clean_linker_0, # of connection points: 2
#     Edge 9, Type (0, 0), BuildingBlock: EZIPEK_clean_linker_0, # of connection points: 2
#     Edge 10, Type (0, 0), BuildingBlock: EZIPEK_clean_linker_0, # of connection points: 2
#     Edge 11, Type (0, 0), BuildingBlock: EZIPEK_clean_linker_0, # of connection points: 2
#     Edge 12, Type (0, 0), BuildingBlock: EZIPEK_clean_linker_0, # of connection points: 2
#     Edge 13, Type (0, 0), BuildingBlock: EZIPEK_clean_linker_0, # of connection points: 2
#     Edge 14, Type (0, 0), BuildingBlock: EZIPEK_clean_linker_0, # of connection points: 2
#     Edge 15, Type (0, 0), BuildingBlock: EZIPEK_clean_linker_0, # of connection points: 2
#     Edge 16, Type (0, 0), BuildingBlock: EZIPEK_clean_linker_0, # of connection points: 2
#     Edge 17, Type (0, 0), BuildingBlock: EZIPEK_clean_linker_0, # of connection points: 2
#     Edge 18, Type (0, 0), BuildingBlock: EZIPEK_clean_linker_0, # of connection points: 2
#     Edge 19, Type (0, 0), BuildingBlock: EZIPEK_clean_linker_0, # of connection points: 2
#     Edge 20, Type (0, 0), BuildingBlock: EZIPEK_clean_linker_0, # of connection points: 2
#     Edge 21, Type (0, 0), BuildingBlock: EZIPEK_clean_linker_0, # of connection points: 2
#     Edge 22, Type (0, 0), BuildingBlock: EZIPEK_clean_linker_0, # of connection points: 2
#     Edge 23, Type (0, 0), BuildingBlock: EZIPEK_clean_linker_0, # of connection points: 2
#     Edge 24, Type (0, 0), BuildingBlock: EZIPEK_clean_linker_0, # of connection points: 2
#     Edge 25, Type (0, 0), BuildingBlock: EZIPEK_clean_linker_0, # of connection points: 2
#     Edge 26, Type (0, 0), BuildingBlock: EZIPEK_clean_linker_0, # of connection points: 2
#     Edge 27, Type (0, 0), BuildingBlock: EZIPEK_clean_linker_0, # of connection points: 2
# Relax obj value: 0.232
# Max RMSD: 0.186
# Mean RMSD: 0.175
data_MOF--net-wgu--node1-XOMCOT_clean_sbu_1--edge1-EZIPEK_clean_linker_0
_symmetry_space_group_name_H-M    P1
_symmetry_Int_Tables_number       1
_symmetry_cell_setting            triclinic
loop_
_symmetry_equiv_pos_as_xyz
'x, y, z'
_cell_length_a     25.098626
_cell_length_b     25.18326
_cell_length_c     21.645208
_cell_angle_alpha  93.81699
_cell_angle_beta   92.045674
_cell_angle_gamma 90.308759
loop_
_atom_site_label
_atom_site_type_symbol
_atom_site_fract_x
_atom_site_fract_y
_atom_site_fract_z
_atom_type_partial_charge
C0 C 0.19886 0.4511 0.21363 0.0
C1 C 0.17665 0.5001 0.20562 0.0
N2 N 0.20214 0.52222 0.16012 0.0
N3 N 0.23814 0.44207 0.17304 0.0
C4 C 0.23875 0.48632 0.14097 0.0
H5 H 0.1858 0.4237 0.24631 0.0
Co6 Co 0.27933 0.37974 0.1593 0.0
C7 C 0.39045 0.4212 0.1257 0.0
O8 O 0.40282 0.37572 0.09682 0.0
N9 N 0.32008 0.31777 0.14773 0.0
C10 C 0.38112 0.25542 0.16181 0.0
C11 C 0.36656 0.30694 0.17765 0.0
C12 C 0.30564 0.27127 0.11709 0.0
N13 N 0.34177 0.23261 0.12528 0.0
O14 O 0.28962 0.37421 0.24703 0.0
H15 H 0.3878 0.33445 0.21032 0.0
H16 H 0.26769 0.26489 0.09298 0.0
O17 O 0.34483 0.42682 0.15113 0.0
C18 C 0.25147 0.34159 0.2562 0.0
O19 O 0.21665 0.32963 0.21052 0.0
N20 N 0.25935 0.37659 0.07452 0.0
C21 C 0.21598 0.31922 0.97051 0.0
C22 C 0.1834 0.33663 0.01837 0.0
C23 C 0.20604 0.36481 0.07024 0.0
C24 C 0.29019 0.36605 0.02452 0.0
C25 C 0.26924 0.33647 0.97199 0.0
H26 H 0.1816 0.37202 0.10991 0.0
H27 H 0.33163 0.3762 0.02604 0.0
H28 H 0.26357 0.49126 0.1023 0.0
H29 H 0.14413 0.51806 0.23087 0.0
H30 H 0.41584 0.23509 0.17932 0.0
H31 H 0.14178 0.32486 0.01779 0.0
H32 H 0.29494 0.3249 0.93433 0.0
C33 C 0.55569 0.29405 0.44776 0.0
C34 C 0.50789 0.26706 0.44535 0.0
N35 N 0.51451 0.22249 0.47548 0.0
N36 N 0.59251 0.26728 0.48018 0.0
C37 C 0.56642 0.22281 0.4951 0.0
H38 H 0.56288 0.33172 0.42822 0.0
Co39 Co 0.6622 0.29457 0.49728 0.0
C40 C 0.65573 0.23804 0.62247 0.0
O41 O 0.60481 0.22847 0.62852 0.0
N42 N 0.73303 0.32105 0.51526 0.0
C43 C 0.80511 0.36513 0.55606 0.0
C44 C 0.75069 0.3668 0.54631 0.0
C45 C 0.77805 0.29184 0.50883 0.0
N46 N 0.82186 0.31796 0.53221 0.0
O47 O 0.69081 0.23458 0.45026 0.0
H48 H 0.72603 0.39848 0.56495 0.0
H49 H 0.77916 0.25107 0.48996 0.0
O50 O 0.67175 0.26086 0.57552 0.0
C51 C 0.6901 0.2462 0.39362 0.0
O52 O 0.66562 0.28976 0.37863 0.0
N53 N 0.63241 0.35681 0.53435 0.0
C54 C 0.57122 0.44886 0.55051 0.0
C55 C 0.56454 0.40621 0.58845 0.0
C56 C 0.596 0.36036 0.57987 0.0
C57 C 0.63939 0.39821 0.4978 0.0
C58 C 0.61093 0.44517 0.50671 0.0
H59 H 0.5879 0.32647 0.60607 0.0
H60 H 0.66591 0.39378 0.45951 0.0
H61 H 0.5846 0.19156 0.52028 0.0
H62 H 0.47065 0.27975 0.42445 0.0
H63 H 0.83007 0.39494 0.58138 0.0
H64 H 0.53344 0.4072 0.62191 0.0
H65 H 0.61685 0.47682 0.47604 0.0
C66 C 0.70212 0.55854 0.96708 0.0
C67 C 0.72879 0.5113 0.96389 0.0
N68 N 0.77421 0.51778 0.99829 0.0
N69 N 0.73021 0.59477 1.00383 0.0
C70 C 0.7747 0.56894 0.02187 0.0
H71 H 0.66493 0.56648 0.94281 0.0
Co72 Co 0.70526 0.6638 0.01357 0.0
C73 C 0.73366 0.70499 0.14204 0.0
O74 O 0.68296 0.71614 0.14785 0.0
N75 N 0.67943 0.73481 0.02026 0.0
C76 C 0.6321 0.80945 0.03242 0.0
C77 C 0.63173 0.75511 0.0369 0.0
C78 C 0.70779 0.77813 1.00625 0.0
N79 N 0.67999 0.82344 0.01275 0.0
O80 O 0.76351 0.6872 0.96439 0.0
H81 H 0.59843 0.73257 0.05179 0.0
H82 H 0.74827 0.77736 0.99096 0.0
O83 O 0.74896 0.68052 0.09166 0.0
C84 C 0.75571 0.68285 0.90555 0.0
O85 O 0.71144 0.66009 0.88261 0.0
N86 N 0.64607 0.63665 0.05569 0.0
C87 C 0.55991 0.57564 0.09304 0.0
C88 C 0.60646 0.58322 0.13073 0.0
C89 C 0.64995 0.61134 0.10973 0.0
C90 C 0.60055 0.63086 0.0193 0.0
C91 C 0.55737 0.6004 0.03677 0.0
H92 H 0.68738 0.61032 0.13568 0.0
H93 H 0.5989 0.64767 0.97456 0.0
H94 H 0.8071 0.58728 0.05009 0.0
H95 H 0.71655 0.47511 0.93721 0.0
H96 H 0.59937 0.83642 0.0412 0.0
H97 H 0.61065 0.56411 0.17399 0.0
H98 H 0.52287 0.59478 1.00545 0.0
C99 C 0.43919 0.83547 0.59067 0.0
C100 C 0.48832 0.85936 0.58754 0.0
N101 N 0.52348 0.82132 0.57139 0.0
N102 N 0.44359 0.7827 0.57683 0.0
C103 C 0.49563 0.77518 0.56513 0.0
H104 H 0.40208 0.8556 0.59981 0.0
Co105 Co 0.38506 0.73757 0.56718 0.0
C106 C 0.42744 0.62916 0.53279 0.0
O107 O 0.38688 0.62116 0.49306 0.0
N108 N 0.32391 0.69395 0.55902 0.0
C109 C 0.26236 0.63298 0.57674 0.0
C110 C 0.31515 0.64748 0.58529 0.0
C111 C 0.27531 0.7077 0.53693 0.0
N112 N 0.23776 0.67126 0.54656 0.0
O113 O 0.38133 0.73602 0.65645 0.0
H114 H 0.34466 0.62658 0.61176 0.0
H115 H 0.26617 0.74516 0.51782 0.0
O116 O 0.43232 0.67419 0.56402 0.0
C117 C 0.34654 0.76817 0.67862 0.0
O118 O 0.32028 0.79808 0.64069 0.0
N119 N 0.38616 0.74433 0.48036 0.0
C120 C 0.37998 0.77025 0.3565 0.0
C121 C 0.41896 0.73501 0.37685 0.0
C122 C 0.42191 0.72315 0.43941 0.0
C123 C 0.35112 0.78179 0.46187 0.0
C124 C 0.34639 0.79432 0.40011 0.0
H125 H 0.45427 0.69885 0.45487 0.0
H126 H 0.32754 0.80337 0.49582 0.0
H127 H 0.51242 0.73738 0.54944 0.0
H128 H 0.49728 0.9015 0.59411 0.0
H129 H 0.24296 0.59877 0.5941 0.0
H130 H 0.44749 0.71786 0.34502 0.0
H131 H 0.31758 0.82373 0.38677 0.0
C132 C 0.71289 0.12001 0.94624 0.0
C133 C 0.68875 0.07135 0.94974 0.0
N134 N 0.72724 0.03479 0.95422 0.0
N135 N 0.76629 0.11406 0.94872 0.0
C136 C 0.77396 0.06143 0.95307 0.0
H137 H 0.69279 0.1578 0.94531 0.0
Co138 Co 0.81214 0.17175 0.95641 0.0
C139 C 0.91031 0.11028 0.91858 0.0
O140 O 0.90909 0.12955 0.86365 0.0
N141 N 0.85573 0.23254 0.96469 0.0
C142 C 0.91842 0.29601 0.96937 0.0
C143 C 0.90833 0.24213 0.95869 0.0
C144 C 0.83486 0.28109 0.97774 0.0
N145 N 0.8718 0.32013 0.98075 0.0
O146 O 0.81035 0.1738 0.86714 0.0
H147 H 0.93763 0.21276 0.94573 0.0
H148 H 0.79286 0.28808 0.98387 0.0
O149 O 0.87474 0.12407 0.95727 0.0
C150 C 0.77281 0.20346 0.84817 0.0
O151 O 0.74498 0.23079 0.8893 0.0
N152 N 0.80808 0.17202 0.04296 0.0
C153 C 0.78398 0.17737 0.16801 0.0
C154 C 0.82593 0.14542 0.14641 0.0
C155 C 0.83741 0.14318 0.08323 0.0
C156 C 0.76667 0.20229 0.06351 0.0
C157 C 0.75421 0.20587 0.12581 0.0
H158 H 0.86921 0.11775 0.06719 0.0
H159 H 0.74255 0.2233 0.03088 0.0
H160 H 0.8126 0.04328 0.95927 0.0
H161 H 0.6464 0.06357 0.95169 0.0
H162 H 0.95647 0.31609 0.96706 0.0
H163 H 0.84962 0.12286 0.17808 0.0
H164 H 0.72148 0.23078 0.14102 0.0
C165 C 0.93421 0.69104 0.46017 0.0
C166 C 0.98262 0.66617 0.46501 0.0
N167 N 0.01786 0.70178 0.49155 0.0
N168 N 0.93938 0.74214 0.48278 0.0
C169 C 0.99074 0.74717 0.50279 0.0
H170 H 0.89726 0.67245 0.44295 0.0
Co171 Co 0.8836 0.78917 0.49101 0.0
C172 C 0.93926 0.89825 0.52084 0.0
O173 O 0.90428 0.91214 0.56261 0.0
N174 N 0.82494 0.83409 0.4989 0.0
C175 C 0.76283 0.8958 0.4864 0.0
C176 C 0.8152 0.88212 0.47662 0.0
C177 C 0.77775 0.81892 0.52034 0.0
N178 N 0.7398 0.85571 0.5139 0.0
O179 O 0.87608 0.79056 0.40113 0.0
H180 H 0.84316 0.90418 0.45124 0.0
H181 H 0.76995 0.7803 0.53705 0.0
O182 O 0.93511 0.85162 0.49294 0.0
C183 C 0.84179 0.75707 0.37629 0.0
O184 O 0.81555 0.727 0.41227 0.0
N185 N 0.88671 0.78154 0.57777 0.0
C186 C 0.86565 0.75685 0.69876 0.0
C187 C 0.90232 0.79741 0.68802 0.0
C188 C 0.913 0.80871 0.62665 0.0
C189 C 0.85546 0.73878 0.58807 0.0
C190 C 0.84368 0.72632 0.64787 0.0
H191 H 0.94196 0.83908 0.61916 0.0
H192 H 0.83736 0.71548 0.54898 0.0
H193 H 1.00752 0.7824 0.52754 0.0
H194 H 0.99127 0.62512 0.45112 0.0
H195 H 0.74256 0.93091 0.47177 0.0
H196 H 0.9213 0.82083 0.72651 0.0
H197 H 0.81616 0.69401 0.65427 0.0
C198 C 0.32841 0.93203 0.01245 0.0
C199 C 0.34818 0.98314 0.01965 0.0
N200 N 0.3103 0.01423 0.04492 0.0
N201 N 0.27826 0.93108 0.03306 0.0
C202 C 0.26838 0.98194 0.05291 0.0
H203 H 0.3498 0.89745 0.99467 0.0
Co204 Co 0.23586 0.87062 0.03666 0.0
C205 C 0.24512 0.8195 0.90698 0.0
O206 O 0.19426 0.80721 0.90052 0.0
N207 N 0.19301 0.80803 0.04061 0.0
C208 C 0.12856 0.7458 0.03186 0.0
C209 C 0.14318 0.79617 0.01712 0.0
C210 C 0.20718 0.76386 0.06933 0.0
N211 N 0.16934 0.72569 0.06437 0.0
O212 O 0.29532 0.83627 0.07854 0.0
H213 H 0.11883 0.82174 0.9898 0.0
H214 H 0.24415 0.75913 0.09451 0.0
O215 O 0.26337 0.84374 0.957 0.0
C216 C 0.30339 0.85112 0.13567 0.0
O217 O 0.27238 0.88816 0.16012 0.0
N218 N 0.17741 0.90757 1.00147 0.0
C219 C 0.09007 0.97116 0.97084 0.0
C220 C 0.12931 0.9586 0.92761 0.0
C221 C 0.17296 0.92694 0.94398 0.0
C222 C 0.14019 0.92061 0.04429 0.0
C223 C 0.09595 0.95158 0.02974 0.0
H224 H 0.20357 0.9195 0.91102 0.0
H225 H 0.14514 0.90694 0.09047 0.0
H226 H 0.23199 0.99481 0.07451 0.0
H227 H 0.38773 0.99632 1.00896 0.0
H228 H 0.09141 0.72524 0.01901 0.0
H229 H 0.12668 0.97398 0.88206 0.0
H230 H 0.06699 0.96104 0.06466 0.0
C231 C 0.11577 0.24913 0.60474 0.0
C232 C 0.06777 0.27497 0.60408 0.0
N233 N 0.03484 0.24787 0.56296 0.0
N234 N 0.1126 0.20537 0.56528 0.0
C235 C 0.06297 0.20637 0.53912 0.0
H236 H 0.15118 0.2615 0.63196 0.0
Co237 Co 0.17075 0.1615 0.55039 0.0
C238 C 0.11193 0.05353 0.5449 0.0
O239 O 0.14263 0.03788 0.5905 0.0
N240 N 0.23327 0.12129 0.53408 0.0
C241 C 0.3 0.06556 0.51109 0.0
C242 C 0.24613 0.06956 0.52254 0.0
C243 C 0.28007 0.14744 0.52881 0.0
N244 N 0.32086 0.11499 0.51474 0.0
O245 O 0.17199 0.18535 0.46847 0.0
H246 H 0.21884 0.03655 0.52162 0.0
H247 H 0.28479 0.19004 0.53597 0.0
O248 O 0.12026 0.09952 0.52378 0.0
C249 C 0.19547 0.23081 0.47107 0.0
O250 O 0.21145 0.25247 0.52554 0.0
N251 N 0.17281 0.14531 0.63436 0.0
C252 C 0.16999 0.17842 0.75907 0.0
C253 C 0.12543 0.15333 0.72918 0.0
C254 C 0.12764 0.13708 0.66625 0.0
C255 C 0.21811 0.16386 0.66547 0.0
C256 C 0.2176 0.18036 0.72798 0.0
H257 H 0.09106 0.12497 0.64199 0.0
H258 H 0.25304 0.17319 0.64086 0.0
H259 H 0.04789 0.17784 0.50305 0.0
H260 H 0.05766 0.31079 0.63149 0.0
H261 H 0.32194 0.02941 0.50041 0.0
H262 H 0.08791 0.1517 0.75222 0.0
H263 H 0.25264 0.19975 0.75008 0.0
C264 C 0.3276 0.08342 0.12906 0.0
C265 C 0.31655 0.0694 0.06558 0.0
C266 C 0.32905 0.16215 0.04107 0.0
C267 C 0.33565 0.17703 0.10529 0.0
N268 N 0.3361 0.15261 0.21159 0.0
N269 N 0.30267 0.09362 0.96106 0.0
C270 C 0.3339 0.13785 0.14966 0.0
C271 C 0.31606 0.10841 0.02149 0.0
N272 N 0.33376 0.04419 0.16932 0.0
N273 N 0.33732 0.19929 0.99908 0.0
H274 H 0.29262 0.05446 0.94617 0.0
H275 H 0.29816 0.12013 0.92643 0.0
H276 H 0.34916 0.23828 0.01229 0.0
H277 H 0.33677 0.19094 0.95136 0.0
H278 H 0.34882 0.05059 0.21466 0.0
H279 H 0.32721 1.00417 0.15594 0.0
H280 H 0.3285 0.1267 0.24577 0.0
H281 H 0.3413 0.19163 0.22954 0.0
C282 C 0.94094 0.24348 0.59056 0.0
C283 C 0.97997 0.26032 0.55036 0.0
C284 C 0.91282 0.31011 0.49377 0.0
C285 C 0.87487 0.29707 0.53725 0.0
N286 N 0.85154 0.25469 0.62879 0.0
N287 N 1.00591 0.31082 0.46613 0.0
C288 C 0.88849 0.26421 0.58595 0.0
C289 C 0.96656 0.29365 0.50217 0.0
N290 N 0.95456 0.20751 0.63285 0.0
N291 N 0.89683 0.33779 0.44431 0.0
H292 H 0.04527 0.29811 0.4708 0.0
H293 H 1.00044 0.33926 0.43381 0.0
H294 H 0.85786 0.35129 0.43845 0.0
H295 H 0.92085 0.34479 0.40747 0.0
H296 H 0.92744 0.18976 0.66048 0.0
H297 H 0.99312 0.19263 0.63748 0.0
H298 H 0.85963 0.23509 0.66885 0.0
H299 H 0.81282 0.2693 0.6259 0.0
C300 C 0.73809 0.96119 0.02337 0.0
C301 C 0.71913 0.98005 0.96657 0.0
C302 C 0.67436 0.89465 0.93946 0.0
C303 C 0.69613 0.87497 0.99472 0.0
N304 N 0.76265 0.88397 0.07778 0.0
N305 N 0.67924 0.96212 0.86473 0.0
C306 C 0.73248 0.90648 0.03312 0.0
C307 C 0.6901 0.94591 0.92277 0.0
N308 N 0.75881 0.99589 0.06931 0.0
N309 N 0.63871 0.86432 0.90318 0.0
H310 H 0.69166 0.99907 0.85117 0.0
H311 H 0.66246 0.9374 0.82863 0.0
H312 H 0.62888 0.8254 0.91226 0.0
H313 H 0.6171 0.87854 0.86586 0.0
H314 H 0.76854 0.98469 0.11379 0.0
H315 H 0.76086 0.03684 0.0652 0.0
H316 H 0.79267 0.90451 0.10413 0.0
H317 H 0.76244 0.84321 0.08261 0.0
C318 C 0.10888 0.68504 0.45681 0.0
C319 C 0.07318 0.69283 0.50571 0.0
C320 C 0.14687 0.68866 0.58203 0.0
C321 C 0.18176 0.67634 0.53321 0.0
N322 N 0.19616 0.65513 0.42532 0.0
N323 N 0.05534 0.69339 0.61413 0.0
C324 C 0.16272 0.67224 0.4708 0.0
C325 C 0.09138 0.69216 0.56826 0.0
N326 N 0.09157 0.6921 0.39739 0.0
N327 N 0.16719 0.69931 0.64096 0.0
H328 H 1.01431 0.69523 0.60506 0.0
H329 H 0.06567 0.688 0.66031 0.0
H330 H 0.20791 0.69823 0.65215 0.0
H331 H 0.14436 0.71365 0.6776 0.0
H332 H 0.11676 0.69197 0.36018 0.0
H333 H 0.05246 0.70264 0.3861 0.0
H334 H 0.18364 0.64652 0.37934 0.0
H335 H 0.23584 0.64533 0.43474 0.0
C336 C 0.84254 0.46232 0.94932 0.0
C337 C 0.81407 0.4773 1.00278 0.0
C338 C 0.84144 0.39514 0.04887 0.0
C339 C 0.86109 0.37609 0.99105 0.0
N340 N 0.87888 0.39004 0.8847 0.0
N341 N 0.78627 0.46002 0.10438 0.0
C342 C 0.86252 0.40973 0.94115 0.0
C343 C 0.81454 0.44477 0.05356 0.0
N344 N 0.84868 0.49842 0.90576 0.0
N345 N 0.84809 0.36498 0.09866 0.0
H346 H 0.76728 0.49675 0.10898 0.0
H347 H 0.77976 0.43574 0.1405 0.0
H348 H 0.86785 0.32857 0.09561 0.0
H349 H 0.83813 0.3777 0.14349 0.0
H350 H 0.87252 0.49208 0.86761 0.0
H351 H 0.83339 0.53685 0.91126 0.0
H352 H 0.87528 0.41062 0.84463 0.0
H353 H 0.8929 0.35143 0.87679 0.0
C354 C 0.59232 0.8288 0.49383 0.0
C355 C 0.57811 0.82986 0.55663 0.0
C356 C 0.66963 0.85447 0.59035 0.0
C357 C 0.68464 0.84949 0.52783 0.0
N358 N 0.6635 0.82409 0.42074 0.0
N359 N 0.60261 0.83746 0.66507 0.0
C360 C 0.64679 0.83462 0.47962 0.0
C361 C 0.61667 0.84113 0.60511 0.0
N362 N 0.55336 0.82384 0.44805 0.0
N363 N 0.7061 0.87294 0.63512 0.0
H364 H 0.56395 0.82762 0.67669 0.0
H365 H 0.62963 0.84034 0.70278 0.0
H366 H 0.74519 0.88268 0.62509 0.0
H367 H 0.6969 0.88225 0.68105 0.0
H368 H 0.56029 0.82794 0.40147 0.0
H369 H 0.51309 0.81972 0.45728 0.0
H370 H 0.63896 0.8079 0.38442 0.0
H371 H 0.70329 0.82774 0.40928 0.0
C372 C 0.19705 0.62031 0.17594 0.0
C373 C 0.19174 0.57339 0.13615 0.0
C374 C 0.17326 0.62742 0.0479 0.0
C375 C 0.17354 0.67387 0.08868 0.0
N376 N 0.1749 0.71359 0.19287 0.0
N377 N 0.16323 0.53148 0.0372 0.0
C378 C 0.18217 0.66996 0.15326 0.0
C379 C 0.17645 0.5767 0.07286 0.0
N380 N 0.21863 0.6177 0.23447 0.0
N381 N 0.17261 0.63184 0.98536 0.0
H382 H 0.16317 0.49393 0.05482 0.0
H383 H 0.14718 0.53184 0.99217 0.0
H384 H 0.17198 0.66843 0.96553 0.0
H385 H 0.17783 0.59954 0.95357 0.0
H386 H 0.22777 0.6512 0.26385 0.0
H387 H 0.23236 0.5823 0.25146 0.0
H388 H 0.17595 0.71223 0.2409 0.0
H389 H 0.16245 0.75006 0.17746 0.0
C390 C 0.39646 0.13069 0.44683 0.0
C391 C 0.3752 0.132 0.50676 0.0
C392 C 0.45014 0.18838 0.54801 0.0
C393 C 0.47203 0.18626 0.4884 0.0
N394 N 0.47267 0.14755 0.38426 0.0
N395 N 0.38726 0.15097 0.6164 0.0
C396 C 0.44727 0.1545 0.43889 0.0
C397 C 0.40418 0.15712 0.55805 0.0
N398 N 0.36665 0.10955 0.39711 0.0
N399 N 0.47103 0.22309 0.59379 0.0
H400 H 0.35386 0.1279 0.62451 0.0
H401 H 0.40884 0.16434 0.65646 0.0
H402 H 0.50362 0.24767 0.58738 0.0
H403 H 0.45356 0.2307 0.63635 0.0
H404 H 0.37713 0.11241 0.35135 0.0
H405 H 0.32937 0.09205 0.40148 0.0
H406 H 0.45935 0.12148 0.34754 0.0
H407 H 0.50986 0.16476 0.37796 0.0
C408 C 0.5274 0.48513 0.12332 0.0
C409 C 0.51597 0.53844 0.10933 0.0
C410 C 0.42041 0.5158 0.10646 0.0
C411 C 0.4318 0.46481 0.12786 0.0
N412 N 0.49735 0.40825 0.17394 0.0
N413 N 0.44962 0.60751 0.10572 0.0
C414 C 0.4857 0.45206 0.14223 0.0
C415 C 0.4618 0.55485 0.10712 0.0
N416 N 0.57686 0.46425 0.11418 0.0
N417 N 0.37176 0.52565 0.07997 0.0
H418 H 0.47877 0.63735 0.10848 0.0
H419 H 0.41069 0.62144 0.10872 0.0
H420 H 0.34355 0.49558 0.07055 0.0
H421 H 0.36277 0.56104 0.05958 0.0
H422 H 0.58527 0.42417 0.11872 0.0
H423 H 0.6075 0.48481 0.09471 0.0
H424 H 0.5359 0.39976 0.18977 0.0
H425 H 0.46786 0.38414 0.19045 0.0
C426 C 0.52706 0.53076 0.60151 0.0
C427 C 0.53283 0.49419 0.54939 0.0
C428 C 0.47952 0.55248 0.48598 0.0
C429 C 0.46704 0.58532 0.53945 0.0
N430 N 0.47071 0.59697 0.65173 0.0
N431 N 0.50015 0.46339 0.44679 0.0
C432 C 0.48863 0.57227 0.59841 0.0
C433 C 0.50453 0.50293 0.49313 0.0
N434 N 0.55901 0.52693 0.65338 0.0
N435 N 0.46991 0.56932 0.42793 0.0
H436 H 0.51543 0.42534 0.45132 0.0
H437 H 0.476 0.46663 0.40702 0.0
H438 H 0.45576 0.60714 0.41994 0.0
H439 H 0.48254 0.54826 0.38805 0.0
H440 H 0.56016 0.55583 0.69019 0.0
H441 H 0.58778 0.49749 0.65716 0.0
H442 H 0.48164 0.58501 0.69555 0.0
H443 H 0.44071 0.62533 0.65258 0.0
C444 C 0.0412 0.05808 0.98704 0.0
C445 C 0.04403 1.00667 0.95623 0.0
C446 C 0.95878 0.02294 0.9006 0.0
C447 C 0.95405 0.07273 0.93517 0.0
N448 N 0.98557 0.1314 0.02197 0.0
N449 N 1.00143 0.93644 0.891 0.0
C450 C 0.99357 0.08831 0.98174 0.0
C451 C 1.00173 0.98812 0.91479 0.0
N452 N 0.08497 0.07909 0.01952 0.0
N453 N 0.92191 0.00865 0.85438 0.0
H454 H 0.03198 0.90989 0.90029 0.0
H455 H 0.96916 0.91852 0.86605 0.0
H456 H 0.88745 0.03045 0.84619 0.0
H457 H 0.92663 0.97653 0.82224 0.0
H458 H 0.0875 0.1186 0.03706 0.0
H459 H 0.12087 0.05871 0.02357 0.0
H460 H 1.01046 0.14112 0.06066 0.0
H461 H 0.95127 0.15427 0.02091 0.0
C462 C 0.97042 0.99378 0.51725 0.0
C463 C 0.98227 0.9387 0.50756 0.0
C464 C 0.07684 0.96478 0.49713 0.0
C465 C 0.06608 0.01729 0.52173 0.0
N466 N 1.00055 0.08076 0.55786 0.0
N467 N 0.04785 0.87324 0.47578 0.0
C468 C 1.01221 0.0317 0.53162 0.0
C469 C 0.03574 0.92461 0.49325 0.0
N470 N 0.919 0.0104 0.50987 0.0
N471 N 0.12605 0.95402 0.4746 0.0
H472 H 0.01948 0.84586 0.45765 0.0
H473 H 0.08647 0.85833 0.47705 0.0
H474 H 0.15546 0.98325 0.4737 0.0
H475 H 0.13598 0.91832 0.45096 0.0
H476 H 0.9084 0.05039 0.51082 0.0
H477 H 0.88807 0.98445 0.49452 0.0
H478 H 0.96292 0.09099 0.57349 0.0
H479 H 0.02934 0.10994 0.56808 0.0
C480 C 0.24223 0.25716 0.31047 0.0
C481 C 0.24512 0.31387 0.31408 0.0
C482 C 0.20495 0.31487 0.41563 0.0
C483 C 0.20931 0.25842 0.41512 0.0
N484 N 0.2464 0.17804 0.36681 0.0
N485 N 0.23584 0.3967 0.3751 0.0
C486 C 0.23195 0.2301 0.364 0.0
C487 C 0.22927 0.34273 0.36866 0.0
N488 N 0.24744 0.22839 0.25546 0.0
N489 N 0.17463 0.3416 0.45857 0.0
H490 H 0.25227 0.41849 0.34109 0.0
H491 H 0.22947 0.41907 0.41639 0.0
H492 H 0.15276 0.32233 0.49063 0.0
H493 H 0.16604 0.38197 0.45767 0.0
H494 H 0.23687 0.18822 0.24912 0.0
H495 H 0.25909 0.24492 0.21546 0.0
H496 H 0.26803 0.15788 0.33245 0.0
H497 H 0.24223 0.15646 0.40567 0.0
C498 C 0.75904 0.25745 0.75692 0.0
C499 C 0.75702 0.20685 0.7816 0.0
C500 C 0.70018 0.17377 0.69216 0.0
C501 C 0.69448 0.22668 0.67388 0.0
N502 N 0.71576 0.32032 0.69213 0.0
N503 N 0.72536 0.11609 0.77376 0.0
C504 C 0.72388 0.26887 0.70649 0.0
C505 C 0.72825 0.16446 0.74893 0.0
N506 N 0.79475 0.29463 0.78223 0.0
N507 N 0.67953 0.13236 0.65461 0.0
H508 H 0.74733 0.10711 0.81343 0.0
H509 H 0.69941 0.08572 0.75679 0.0
H510 H 0.65921 0.13785 0.61263 0.0
H511 H 0.68661 0.09256 0.66211 0.0
H512 H 0.80214 0.33066 0.76302 0.0
H513 H 0.82099 0.2868 0.819 0.0
H514 H 0.73172 0.35307 0.7185 0.0
H515 H 0.68946 0.33093 0.65686 0.0
C516 C 0.84032 0.70392 0.27434 0.0
C517 C 0.82811 0.75204 0.30842 0.0
C518 C 0.76643 0.7749 0.22378 0.0
C519 C 0.77148 0.72253 0.19491 0.0
N520 N 0.81032 0.63494 0.19749 0.0
N521 N 0.78042 0.83444 0.31584 0.0
C522 C 0.80845 0.68667 0.22071 0.0
C523 C 0.79212 0.78825 0.2826 0.0
N524 N 0.88276 0.67479 0.29353 0.0
N525 N 0.73726 0.81228 0.19478 0.0
H526 H 0.80144 0.8471 0.35648 0.0
H527 H 0.74873 0.859 0.30481 0.0
H528 H 0.71657 0.8044 0.15265 0.0
H529 H 0.73706 0.85245 0.20961 0.0
H530 H 0.89707 0.64164 0.26812 0.0
H531 H 0.90728 0.68771 0.33155 0.0
H532 H 0.83207 0.60571 0.2188 0.0
H533 H 0.78651 0.61966 0.16009 0.0
C534 C 0.31296 0.84213 0.82822 0.0
C535 C 0.28152 0.8036 0.85596 0.0
C536 C 0.30622 0.73591 0.77496 0.0
C537 C 0.33545 0.77503 0.74591 0.0
N538 N 0.38121 0.85918 0.75505 0.0
N539 N 0.26199 0.71096 0.86686 0.0
C540 C 0.3436 0.82613 0.77618 0.0
C541 C 0.28247 0.7495 0.83271 0.0
N542 N 0.31119 0.89454 0.84878 0.0
N543 N 0.29942 0.68636 0.74626 0.0
H544 H 0.24595 0.71945 0.9102 0.0
H545 H 0.26559 0.67036 0.8554 0.0
H546 H 0.32014 0.67396 0.70724 0.0
H547 H 0.27231 0.65839 0.75997 0.0
H548 H 0.32781 0.9251 0.82547 0.0
H549 H 0.29005 0.90838 0.88689 0.0
H550 H 0.39298 0.89518 0.7781 0.0
H551 H 0.40483 0.84756 0.71788 0.0
C552 C 0.77015 0.75299 0.82996 0.0
C553 C 0.79087 0.71001 0.86276 0.0
C554 C 0.86811 0.7054 0.79549 0.0
C555 C 0.84643 0.7473 0.76185 0.0
N556 N 0.78472 0.81974 0.75618 0.0
N557 N 0.8643 0.65259 0.88563 0.0
C558 C 0.80013 0.77409 0.78243 0.0
C559 C 0.84174 0.68892 0.84869 0.0
N560 N 0.72056 0.77222 0.8424 0.0
N561 N 0.91273 0.68004 0.77482 0.0
H562 H 0.84544 0.63907 0.92383 0.0
H563 H 0.90305 0.63868 0.88144 0.0
H564 H 0.93402 0.69288 0.73796 0.0
H565 H 0.92754 0.64531 0.79221 0.0
H566 H 0.70002 0.7982 0.81483 0.0
H567 H 0.69826 0.75981 0.87853 0.0
H568 H 0.75483 0.84452 0.77329 0.0
H569 H 0.80511 0.8356 0.72043 0.0
C570 C 0.39047 0.83937 0.27923 0.0
C571 C 0.37649 0.78643 0.29129 0.0
C572 C 0.34466 0.7709 0.18301 0.0
C573 C 0.34405 0.82655 0.17735 0.0
N574 N 0.37987 0.91229 0.2115 0.0
N575 N 0.34175 0.7002 0.25344 0.0
C576 C 0.3719 0.86024 0.22282 0.0
C577 C 0.35494 0.75131 0.24248 0.0
N578 N 0.42158 0.86915 0.32174 0.0
N579 N 0.33778 0.73698 0.1316 0.0
H580 H 0.34869 0.6843 0.29623 0.0
H581 H 0.32081 0.67479 0.22113 0.0
H582 H 0.33577 0.7507 0.08719 0.0
H583 H 0.34109 0.69582 0.1324 0.0
H584 H 0.43597 0.90703 0.31489 0.0
H585 H 0.43653 0.85407 0.36259 0.0
H586 H 0.39414 0.9414 0.24441 0.0
H587 H 0.37197 0.92589 0.16762 0.0
C588 C 0.1813 0.19053 0.87463 0.0
C589 C 0.1659 0.21147 0.81786 0.0
C590 C 0.17592 0.30256 0.86353 0.0
C591 C 0.19438 0.28206 0.91963 0.0
N592 N 0.20051 0.20786 0.98479 0.0
N593 N 0.12889 0.28439 0.76481 0.0
C594 C 0.19234 0.22628 0.92732 0.0
C595 C 0.15688 0.26669 0.81447 0.0
N596 N 0.18596 0.13668 0.8774 0.0
N597 N 0.17769 0.35612 0.85669 0.0
H598 H 0.11138 0.25815 0.73074 0.0
H599 H 0.11741 0.32376 0.76127 0.0
H600 H 0.18913 0.38393 0.89267 0.0
H601 H 0.17082 0.37282 0.81443 0.0
H602 H 0.20027 0.11813 0.91606 0.0
H603 H 0.1758 0.11007 0.83973 0.0
H604 H 0.19646 0.16821 0.99461 0.0
H605 H 0.20696 0.23315 0.02428 0.0
C606 C 0.79376 0.22853 0.27036 0.0
C607 C 0.77162 0.18416 0.23485 0.0
C608 C 0.70957 0.16931 0.31764 0.0
C609 C 0.72481 0.21942 0.34693 0.0
N610 N 0.7807 0.2982 0.35046 0.0
N611 N 0.71069 0.10984 0.2242 0.0
C612 C 0.76744 0.24895 0.32375 0.0
C613 C 0.73076 0.15315 0.25896 0.0
N614 N 0.83959 0.2516 0.25228 0.0
N615 N 0.67392 0.13812 0.3452 0.0
H616 H 0.72701 0.09611 0.18247 0.0
H617 H 0.67699 0.0887 0.23522 0.0
H618 H 0.65724 0.14971 0.38741 0.0
H619 H 0.66392 0.09939 0.329 0.0
H620 H 0.8609 0.28074 0.27936 0.0
H621 H 0.85921 0.23791 0.21268 0.0
H622 H 0.8063 0.32454 0.33094 0.0
H623 H 0.76342 0.31454 0.3903 0.0
loop_
_geom_bond_atom_site_label_1
_geom_bond_atom_site_label_2
_geom_bond_distance
_geom_bond_site_symmetry_2
_ccdc_geom_bond_type
C0 C1 1.351 . S
C0 N3 1.368 . S
C0 H5 0.931 . S
C1 C0 1.351 . S
C1 N2 1.373 . S
C1 H29 0.930 . S
N2 C1 1.373 . S
N2 C4 1.340 . S
N3 C0 1.368 . S
N3 C4 1.321 . S
N3 Co6 2.135 . S
C4 N2 1.340 . S
C4 N3 1.321 . S
C4 H28 0.930 . S
H5 C0 0.931 . S
Co6 N3 2.135 . S
Co6 N9 2.121 . S
Co6 O14 2.055 . S
Co6 O17 2.039 . S
Co6 N20 2.140 . S
C7 O8 1.227 . S
C7 O17 1.265 . S
O8 C7 1.227 . S
N9 Co6 2.121 . S
N9 C11 1.375 . S
N9 C12 1.313 . S
C10 C11 1.338 . S
C10 N13 1.377 . S
C10 H30 0.930 . S
C11 N9 1.375 . S
C11 C10 1.338 . S
C11 H15 0.931 . S
C12 N9 1.313 . S
C12 N13 1.344 . S
C12 H16 0.930 . S
N13 C10 1.377 . S
N13 C12 1.344 . S
O14 Co6 2.055 . S
O14 C18 1.253 . S
H15 C11 0.931 . S
H16 C12 0.930 . S
O17 Co6 2.039 . S
O17 C7 1.265 . S
C18 O14 1.253 . S
C18 O19 1.227 . S
O19 C18 1.227 . S
N20 Co6 2.140 . S
N20 C23 1.346 1_554 S
N20 C24 1.345 1_554 S
C21 C22 1.387 . S
C21 C25 1.391 . S
C22 C21 1.387 . S
C22 C23 1.369 . S
C22 H31 0.929 . S
C23 N20 1.346 1_556 S
C23 C22 1.369 . S
C23 H26 0.928 . S
C24 N20 1.345 1_556 S
C24 C25 1.371 . S
C24 H27 0.931 1_556 S
C25 C21 1.391 . S
C25 C24 1.371 . S
C25 H32 0.930 . S
H26 C23 0.928 . S
H27 C24 0.931 1_554 S
H28 C4 0.930 . S
H29 C1 0.930 . S
H30 C10 0.930 . S
H31 C22 0.929 . S
H32 C25 0.930 . S
C33 C34 1.351 . S
C33 N36 1.368 . S
C33 H38 0.931 . S
C34 C33 1.351 . S
C34 N35 1.373 . S
C34 H62 0.930 . S
N35 C34 1.373 . S
N35 C37 1.340 . S
N36 C33 1.368 . S
N36 C37 1.321 . S
N36 Co39 2.135 . S
C37 N35 1.340 . S
C37 N36 1.321 . S
C37 H61 0.930 . S
H38 C33 0.931 . S
Co39 N36 2.135 . S
Co39 N42 2.121 . S
Co39 O47 2.055 . S
Co39 O50 2.039 . S
Co39 N53 2.140 . S
C40 O41 1.227 . S
C40 O50 1.265 . S
O41 C40 1.227 . S
N42 Co39 2.121 . S
N42 C44 1.375 . S
N42 C45 1.313 . S
C43 C44 1.338 . S
C43 N46 1.377 . S
C43 H63 0.930 . S
C44 N42 1.375 . S
C44 C43 1.338 . S
C44 H48 0.931 . S
C45 N42 1.313 . S
C45 N46 1.344 . S
C45 H49 0.930 . S
N46 C43 1.377 . S
N46 C45 1.344 . S
O47 Co39 2.055 . S
O47 C51 1.253 . S
H48 C44 0.931 . S
H49 C45 0.930 . S
O50 Co39 2.039 . S
O50 C40 1.265 . S
C51 O47 1.253 . S
C51 O52 1.227 . S
O52 C51 1.227 . S
N53 Co39 2.140 . S
N53 C56 1.346 . S
N53 C57 1.345 . S
C54 C55 1.387 . S
C54 C58 1.391 . S
C55 C54 1.387 . S
C55 C56 1.369 . S
C55 H64 0.929 . S
C56 N53 1.346 . S
C56 C55 1.369 . S
C56 H59 0.928 . S
C57 N53 1.345 . S
C57 C58 1.371 . S
C57 H60 0.931 . S
C58 C54 1.391 . S
C58 C57 1.371 . S
C58 H65 0.930 . S
H59 C56 0.928 . S
H60 C57 0.931 . S
H61 C37 0.930 . S
H62 C34 0.930 . S
H63 C43 0.930 . S
H64 C55 0.929 . S
H65 C58 0.930 . S
C66 C67 1.351 . S
C66 N69 1.368 1_556 S
C66 H71 0.931 . S
C67 C66 1.351 . S
C67 N68 1.373 1_556 S
C67 H95 0.930 . S
N68 C67 1.373 1_554 S
N68 C70 1.340 . S
N69 C66 1.368 1_554 S
N69 C70 1.321 . S
N69 Co72 2.135 . S
C70 N68 1.340 . S
C70 N69 1.321 . S
C70 H94 0.930 . S
H71 C66 0.931 . S
Co72 N69 2.135 . S
Co72 N75 2.121 . S
Co72 O80 2.055 1_554 S
Co72 O83 2.039 . S
Co72 N86 2.140 . S
C73 O74 1.227 . S
C73 O83 1.265 . S
O74 C73 1.227 . S
N75 Co72 2.121 . S
N75 C77 1.375 . S
N75 C78 1.313 . S
C76 C77 1.338 . S
C76 N79 1.377 . S
C76 H96 0.930 . S
C77 N75 1.375 . S
C77 C76 1.338 . S
C77 H81 0.931 . S
C78 N75 1.313 . S
C78 N79 1.344 . S
C78 H82 0.930 1_554 S
N79 C76 1.377 . S
N79 C78 1.344 . S
O80 Co72 2.055 1_556 S
O80 C84 1.253 . S
H81 C77 0.931 . S
H82 C78 0.930 1_556 S
O83 Co72 2.039 . S
O83 C73 1.265 . S
C84 O80 1.253 . S
C84 O85 1.227 . S
O85 C84 1.227 . S
N86 Co72 2.140 . S
N86 C89 1.346 . S
N86 C90 1.354 . S
C87 C88 1.387 . S
C87 C91 1.391 . S
C88 C87 1.387 . S
C88 C89 1.369 . S
C88 H97 0.929 . S
C89 N86 1.346 . S
C89 C88 1.369 . S
C89 H92 0.928 . S
C90 N86 1.354 . S
C90 C91 1.373 . S
C90 H93 0.920 1_554 S
C91 C87 1.391 . S
C91 C90 1.373 . S
C91 H98 0.930 1_554 S
H92 C89 0.928 . S
H93 C90 0.920 1_556 S
H94 C70 0.930 . S
H95 C67 0.930 . S
H96 C76 0.930 . S
H97 C88 0.929 . S
H98 C91 0.930 1_556 S
C99 C100 1.351 . S
C99 N102 1.368 . S
C99 H104 0.931 . S
C100 C99 1.351 . S
C100 N101 1.373 . S
C100 H128 0.930 . S
N101 C100 1.373 . S
N101 C103 1.340 . S
N102 C99 1.368 . S
N102 C103 1.321 . S
N102 Co105 2.135 . S
C103 N101 1.340 . S
C103 N102 1.321 . S
C103 H127 0.930 . S
H104 C99 0.931 . S
Co105 N102 2.135 . S
Co105 N108 2.121 . S
Co105 O113 2.055 . S
Co105 O116 2.039 . S
Co105 N119 2.140 . S
C106 O107 1.227 . S
C106 O116 1.265 . S
O107 C106 1.227 . S
N108 Co105 2.121 . S
N108 C110 1.375 . S
N108 C111 1.313 . S
C109 C110 1.338 . S
C109 N112 1.377 . S
C109 H129 0.930 . S
C110 N108 1.375 . S
C110 C109 1.338 . S
C110 H114 0.931 . S
C111 N108 1.313 . S
C111 N112 1.344 . S
C111 H115 0.930 . S
N112 C109 1.377 . S
N112 C111 1.344 . S
O113 Co105 2.055 . S
O113 C117 1.253 . S
H114 C110 0.931 . S
H115 C111 0.930 . S
O116 Co105 2.039 . S
O116 C106 1.265 . S
C117 O113 1.253 . S
C117 O118 1.227 . S
O118 C117 1.227 . S
N119 Co105 2.140 . S
N119 C122 1.346 . S
N119 C123 1.345 . S
C120 C121 1.387 . S
C120 C124 1.391 . S
C121 C120 1.387 . S
C121 C122 1.369 . S
C121 H130 0.929 . S
C122 N119 1.346 . S
C122 C121 1.369 . S
C122 H125 0.928 . S
C123 N119 1.345 . S
C123 C124 1.371 . S
C123 H126 0.931 . S
C124 C120 1.391 . S
C124 C123 1.371 . S
C124 H131 0.930 . S
H125 C122 0.928 . S
H126 C123 0.931 . S
H127 C103 0.930 . S
H128 C100 0.930 . S
H129 C109 0.930 . S
H130 C121 0.929 . S
H131 C124 0.930 . S
C132 C133 1.351 . S
C132 N135 1.368 . S
C132 H137 0.931 1_565 S
C133 C132 1.351 . S
C133 N134 1.373 . S
C133 H161 0.930 . S
N134 C133 1.373 . S
N134 C136 1.340 . S
N135 C132 1.368 . S
N135 C136 1.321 . S
N135 Co138 2.135 1_565 S
C136 N134 1.340 . S
C136 N135 1.321 . S
C136 H160 0.930 . S
H137 C132 0.931 1_545 S
Co138 N135 2.135 1_545 S
Co138 N141 2.121 . S
Co138 O146 2.055 . S
Co138 O149 2.039 . S
Co138 N152 2.140 1_556 S
C139 O140 1.227 . S
C139 O149 1.265 1_554 S
O140 C139 1.227 . S
N141 Co138 2.121 . S
N141 C143 1.375 1_556 S
N141 C144 1.313 . S
C142 C143 1.338 . S
C142 N145 1.377 1_554 S
C142 H162 0.930 . S
C143 N141 1.375 1_554 S
C143 C142 1.338 . S
C143 H147 0.931 . S
C144 N141 1.313 . S
C144 N145 1.344 . S
C144 H148 0.930 . S
N145 C142 1.377 1_556 S
N145 C144 1.344 . S
O146 Co138 2.055 . S
O146 C150 1.253 . S
H147 C143 0.931 . S
H148 C144 0.930 . S
O149 Co138 2.039 . S
O149 C139 1.265 1_556 S
C150 O146 1.253 . S
C150 O151 1.227 . S
O151 C150 1.227 . S
N152 Co138 2.140 1_554 S
N152 C155 1.346 . S
N152 C156 1.345 . S
C153 C154 1.387 . S
C153 C157 1.391 . S
C154 C153 1.387 . S
C154 C155 1.369 . S
C154 H163 0.929 . S
C155 N152 1.346 . S
C155 C154 1.369 . S
C155 H158 0.928 . S
C156 N152 1.345 . S
C156 C157 1.371 . S
C156 H159 0.931 . S
C157 C153 1.391 . S
C157 C156 1.371 . S
C157 H164 0.930 . S
H158 C155 0.928 . S
H159 C156 0.931 . S
H160 C136 0.930 . S
H161 C133 0.930 . S
H162 C142 0.930 . S
H163 C154 0.929 . S
H164 C157 0.930 . S
C165 C166 1.351 . S
C165 N168 1.368 . S
C165 H170 0.931 1_455 S
C166 C165 1.351 . S
C166 N167 1.373 . S
C166 H194 0.930 . S
N167 C166 1.373 . S
N167 C169 1.340 . S
N168 C165 1.368 . S
N168 C169 1.321 . S
N168 Co171 2.135 1_455 S
C169 N167 1.340 . S
C169 N168 1.321 . S
C169 H193 0.930 . S
H170 C165 0.931 1_655 S
Co171 N168 2.135 1_655 S
Co171 N174 2.121 . S
Co171 O179 2.055 . S
Co171 O182 2.039 . S
Co171 N185 2.140 . S
C172 O173 1.227 . S
C172 O182 1.265 . S
O173 C172 1.227 . S
N174 Co171 2.121 . S
N174 C176 1.375 . S
N174 C177 1.313 . S
C175 C176 1.338 . S
C175 N178 1.377 . S
C175 H195 0.930 . S
C176 N174 1.375 . S
C176 C175 1.338 . S
C176 H180 0.931 . S
C177 N174 1.313 . S
C177 N178 1.344 . S
C177 H181 0.930 . S
N178 C175 1.377 . S
N178 C177 1.344 . S
O179 Co171 2.055 . S
O179 C183 1.253 . S
H180 C176 0.931 . S
H181 C177 0.930 . S
O182 Co171 2.039 . S
O182 C172 1.265 . S
C183 O179 1.253 . S
C183 O184 1.227 . S
O184 C183 1.227 . S
N185 Co171 2.140 . S
N185 C188 1.346 . S
N185 C189 1.345 . S
C186 C187 1.387 . S
C186 C190 1.391 . S
C187 C186 1.387 . S
C187 C188 1.369 . S
C187 H196 0.929 . S
C188 N185 1.346 . S
C188 C187 1.369 . S
C188 H191 0.928 . S
C189 N185 1.345 . S
C189 C190 1.371 . S
C189 H192 0.931 . S
C190 C186 1.391 . S
C190 C189 1.371 . S
C190 H197 0.930 . S
H191 C188 0.928 . S
H192 C189 0.931 . S
H193 C169 0.930 . S
H194 C166 0.930 . S
H195 C175 0.930 . S
H196 C187 0.929 . S
H197 C190 0.930 . S
C198 C199 1.351 . S
C198 N201 1.368 . S
C198 H203 0.931 . S
C199 C198 1.351 . S
C199 N200 1.373 . S
C199 H227 0.930 . S
N200 C199 1.373 . S
N200 C202 1.340 . S
N201 C198 1.368 . S
N201 C202 1.321 . S
N201 Co204 2.135 1_545 S
C202 N200 1.340 . S
C202 N201 1.321 . S
C202 H226 0.930 1_554 S
H203 C198 0.931 . S
Co204 N201 2.135 1_565 S
Co204 N207 2.121 . S
Co204 O212 2.055 . S
Co204 O215 2.039 1_554 S
Co204 N218 2.140 . S
C205 O206 1.227 . S
C205 O215 1.265 . S
O206 C205 1.227 . S
N207 Co204 2.121 . S
N207 C209 1.375 1_554 S
N207 C210 1.313 . S
C208 C209 1.338 . S
C208 N211 1.377 1_556 S
C208 H228 0.930 . S
C209 N207 1.375 1_556 S
C209 C208 1.338 . S
C209 H213 0.931 . S
C210 N207 1.313 . S
C210 N211 1.344 . S
C210 H214 0.930 . S
N211 C208 1.377 1_554 S
N211 C210 1.344 . S
O212 Co204 2.055 . S
O212 C216 1.253 . S
H213 C209 0.931 . S
H214 C210 0.930 . S
O215 Co204 2.039 1_556 S
O215 C205 1.265 . S
C216 O212 1.253 . S
C216 O217 1.227 . S
O217 C216 1.227 . S
N218 Co204 2.140 . S
N218 C221 1.346 . S
N218 C222 1.345 . S
C219 C220 1.387 1_554 S
C219 C223 1.391 . S
C220 C219 1.387 1_556 S
C220 C221 1.369 1_556 S
C220 H229 0.929 1_565 S
C221 N218 1.346 . S
C221 C220 1.369 1_554 S
C221 H224 0.926 1_564 S
C222 N218 1.345 . S
C222 C223 1.371 . S
C222 H225 0.931 . S
C223 C219 1.391 . S
C223 C222 1.371 . S
C223 H230 0.930 . S
H224 C221 0.926 1_546 S
H225 C222 0.931 . S
H226 C202 0.930 1_556 S
H227 C199 0.930 . S
H228 C208 0.930 . S
H229 C220 0.929 1_545 S
H230 C223 0.930 . S
C231 C232 1.351 . S
C231 N234 1.368 . S
C231 H236 0.931 1_655 S
C232 C231 1.351 . S
C232 N233 1.373 . S
C232 H260 0.930 . S
N233 C232 1.373 . S
N233 C235 1.340 . S
N234 C231 1.368 . S
N234 C235 1.321 . S
N234 Co237 2.135 1_655 S
C235 N233 1.340 . S
C235 N234 1.321 . S
C235 H259 0.930 . S
H236 C231 0.931 1_455 S
Co237 N234 2.135 1_455 S
Co237 N240 2.121 . S
Co237 O245 2.055 . S
Co237 O248 2.039 . S
Co237 N251 2.140 . S
C238 O239 1.227 . S
C238 O248 1.265 . S
O239 C238 1.227 . S
N240 Co237 2.121 . S
N240 C242 1.375 . S
N240 C243 1.313 . S
C241 C242 1.338 . S
C241 N244 1.377 . S
C241 H261 0.930 . S
C242 N240 1.375 . S
C242 C241 1.338 . S
C242 H246 0.931 . S
C243 N240 1.313 . S
C243 N244 1.344 . S
C243 H247 0.930 . S
N244 C241 1.377 . S
N244 C243 1.344 . S
O245 Co237 2.055 . S
O245 C249 1.253 . S
H246 C242 0.931 . S
H247 C243 0.930 . S
O248 Co237 2.039 . S
O248 C238 1.265 . S
C249 O245 1.253 . S
C249 O250 1.227 . S
O250 C249 1.227 . S
N251 Co237 2.140 . S
N251 C254 1.346 . S
N251 C255 1.345 . S
C252 C253 1.387 . S
C252 C256 1.391 . S
C253 C252 1.387 . S
C253 C254 1.369 . S
C253 H262 0.929 . S
C254 N251 1.346 . S
C254 C253 1.369 . S
C254 H257 0.928 . S
C255 N251 1.345 . S
C255 C256 1.371 . S
C255 H258 0.931 . S
C256 C252 1.391 . S
C256 C255 1.371 . S
C256 H263 0.930 . S
H257 C254 0.928 . S
H258 C255 0.931 . S
H259 C235 0.930 . S
H260 C232 0.930 . S
H261 C241 0.930 . S
H262 C253 0.929 . S
H263 C256 0.930 . S
C264 C265 1.363 . S
C264 C270 1.379 . S
C264 N272 1.356 . S
C265 C264 1.363 . S
C265 C271 1.363 . S
C266 C267 1.363 . S
C266 C271 1.379 . S
C266 N273 1.356 . S
C267 C266 1.363 . S
C267 C270 1.363 . S
N268 C270 1.356 . S
N268 H280 0.984 . S
N268 H281 0.985 . S
N269 C271 1.356 1_556 S
N269 H274 0.984 . S
N269 H275 0.985 . S
C270 C264 1.379 . S
C270 C267 1.363 . S
C270 N268 1.356 . S
C271 C265 1.363 . S
C271 C266 1.379 . S
C271 N269 1.356 1_554 S
N272 C264 1.356 . S
N272 H278 0.984 . S
N272 H279 0.984 . S
N273 C266 1.356 . S
N273 H276 0.984 . S
N273 H277 0.985 1_554 S
H274 N269 0.984 . S
H275 N269 0.985 . S
H276 N273 0.984 . S
H277 N273 0.985 1_556 S
H278 N272 0.984 . S
H279 N272 0.984 . S
H280 N268 0.984 . S
H281 N268 0.985 . S
C282 C283 1.363 . S
C282 C288 1.379 . S
C282 N290 1.356 . S
C283 C282 1.363 . S
C283 C289 1.363 . S
C284 C285 1.363 . S
C284 C289 1.379 . S
C284 N291 1.356 . S
C285 C284 1.363 . S
C285 C288 1.363 . S
N286 C288 1.356 . S
N286 H298 0.984 . S
N286 H299 0.985 . S
N287 C289 1.356 . S
N287 H292 0.984 . S
N287 H293 0.985 . S
C288 C282 1.379 . S
C288 C285 1.363 . S
C288 N286 1.356 . S
C289 C283 1.363 . S
C289 C284 1.379 . S
C289 N287 1.356 . S
N290 C282 1.356 . S
N290 H296 0.984 . S
N290 H297 0.984 . S
N291 C284 1.356 . S
N291 H294 0.984 . S
N291 H295 0.985 . S
H292 N287 0.984 . S
H293 N287 0.985 . S
H294 N291 0.984 . S
H295 N291 0.985 . S
H296 N290 0.984 . S
H297 N290 0.984 . S
H298 N286 0.984 . S
H299 N286 0.985 . S
C300 C301 1.363 1_554 S
C300 C306 1.379 . S
C300 N308 1.356 . S
C301 C300 1.363 1_556 S
C301 C307 1.363 . S
C302 C303 1.363 1_556 S
C302 C307 1.379 . S
C302 N309 1.356 . S
C303 C302 1.363 1_554 S
C303 C306 1.363 . S
N304 C306 1.356 . S
N304 H316 0.984 . S
N304 H317 0.985 . S
N305 C307 1.356 . S
N305 H310 0.984 . S
N305 H311 0.985 . S
C306 C300 1.379 . S
C306 C303 1.363 . S
C306 N304 1.356 . S
C307 C301 1.363 . S
C307 C302 1.379 . S
C307 N305 1.356 . S
N308 C300 1.356 . S
N308 H314 0.984 . S
N308 H315 0.984 . S
N309 C302 1.356 . S
N309 H312 0.984 . S
N309 H313 0.985 . S
H310 N305 0.984 . S
H311 N305 0.985 . S
H312 N309 0.984 . S
H313 N309 0.985 . S
H314 N308 0.984 . S
H315 N308 0.984 . S
H316 N304 0.984 . S
H317 N304 0.985 . S
C318 C319 1.363 . S
C318 C324 1.379 . S
C318 N326 1.356 . S
C319 C318 1.363 . S
C319 C325 1.363 . S
C320 C321 1.363 . S
C320 C325 1.379 . S
C320 N327 1.356 . S
C321 C320 1.363 . S
C321 C324 1.363 . S
N322 C324 1.356 . S
N322 H334 0.984 . S
N322 H335 0.985 . S
N323 C325 1.356 . S
N323 H328 0.984 . S
N323 H329 0.985 . S
C324 C318 1.379 . S
C324 C321 1.363 . S
C324 N322 1.356 . S
C325 C319 1.363 . S
C325 C320 1.379 . S
C325 N323 1.356 . S
N326 C318 1.356 . S
N326 H332 0.984 . S
N326 H333 0.984 . S
N327 C320 1.356 . S
N327 H330 0.984 . S
N327 H331 0.985 . S
H328 N323 0.984 . S
H329 N323 0.985 . S
H330 N327 0.984 . S
H331 N327 0.985 . S
H332 N326 0.984 . S
H333 N326 0.984 . S
H334 N322 0.984 . S
H335 N322 0.985 . S
C336 C337 1.363 . S
C336 C342 1.379 . S
C336 N344 1.356 . S
C337 C336 1.363 . S
C337 C343 1.363 1_554 S
C338 C339 1.363 . S
C338 C343 1.379 . S
C338 N345 1.356 . S
C339 C338 1.363 . S
C339 C342 1.363 1_556 S
N340 C342 1.356 . S
N340 H352 0.984 . S
N340 H353 0.984 1_554 S
N341 C343 1.356 . S
N341 H346 0.984 1_556 S
N341 H347 0.985 . S
C342 C336 1.379 . S
C342 C339 1.363 1_554 S
C342 N340 1.356 . S
C343 C337 1.363 1_556 S
C343 C338 1.379 . S
C343 N341 1.356 . S
N344 C336 1.356 . S
N344 H350 0.984 . S
N344 H351 0.984 . S
N345 C338 1.356 . S
N345 H348 0.984 . S
N345 H349 0.985 . S
H346 N341 0.984 1_554 S
H347 N341 0.985 . S
H348 N345 0.984 . S
H349 N345 0.985 . S
H350 N344 0.984 . S
H351 N344 0.984 . S
H352 N340 0.984 . S
H353 N340 0.984 1_556 S
C354 C355 1.363 . S
C354 C360 1.379 . S
C354 N362 1.356 . S
C355 C354 1.363 . S
C355 C361 1.363 . S
C356 C357 1.363 . S
C356 C361 1.379 . S
C356 N363 1.356 . S
C357 C356 1.363 . S
C357 C360 1.363 . S
N358 C360 1.356 . S
N358 H370 0.984 . S
N358 H371 0.985 . S
N359 C361 1.356 . S
N359 H364 0.984 . S
N359 H365 0.985 . S
C360 C354 1.379 . S
C360 C357 1.363 . S
C360 N358 1.356 . S
C361 C355 1.363 . S
C361 C356 1.379 . S
C361 N359 1.356 . S
N362 C354 1.356 . S
N362 H368 0.984 . S
N362 H369 0.984 . S
N363 C356 1.356 . S
N363 H366 0.984 . S
N363 H367 0.985 . S
H364 N359 0.984 . S
H365 N359 0.985 . S
H366 N363 0.984 . S
H367 N363 0.985 . S
H368 N362 0.984 . S
H369 N362 0.984 . S
H370 N358 0.984 . S
H371 N358 0.985 . S
C372 C373 1.363 . S
C372 C378 1.379 . S
C372 N380 1.356 . S
C373 C372 1.363 . S
C373 C379 1.363 . S
C374 C375 1.363 . S
C374 C379 1.379 . S
C374 N381 1.356 1_554 S
C375 C374 1.363 . S
C375 C378 1.363 . S
N376 C378 1.356 . S
N376 H388 0.984 . S
N376 H389 0.985 . S
N377 C379 1.356 . S
N377 H382 0.984 . S
N377 H383 0.985 1_554 S
C378 C372 1.379 . S
C378 C375 1.363 . S
C378 N376 1.356 . S
C379 C373 1.363 . S
C379 C374 1.379 . S
C379 N377 1.356 . S
N380 C372 1.356 . S
N380 H386 0.984 . S
N380 H387 0.984 . S
N381 C374 1.356 1_556 S
N381 H384 0.984 . S
N381 H385 0.985 . S
H382 N377 0.984 . S
H383 N377 0.985 1_556 S
H384 N381 0.984 . S
H385 N381 0.985 . S
H386 N380 0.984 . S
H387 N380 0.984 . S
H388 N376 0.984 . S
H389 N376 0.985 . S
C390 C391 1.363 . S
C390 C396 1.379 . S
C390 N398 1.356 . S
C391 C390 1.363 . S
C391 C397 1.363 . S
C392 C393 1.363 . S
C392 C397 1.379 . S
C392 N399 1.356 . S
C393 C392 1.363 . S
C393 C396 1.363 . S
N394 C396 1.356 . S
N394 H406 0.984 . S
N394 H407 0.985 . S
N395 C397 1.356 . S
N395 H400 0.984 . S
N395 H401 0.985 . S
C396 C390 1.379 . S
C396 C393 1.363 . S
C396 N394 1.356 . S
C397 C391 1.363 . S
C397 C392 1.379 . S
C397 N395 1.356 . S
N398 C390 1.356 . S
N398 H404 0.984 . S
N398 H405 0.984 . S
N399 C392 1.356 . S
N399 H402 0.984 . S
N399 H403 0.985 . S
H400 N395 0.984 . S
H401 N395 0.985 . S
H402 N399 0.984 . S
H403 N399 0.985 . S
H404 N398 0.984 . S
H405 N398 0.984 . S
H406 N394 0.984 . S
H407 N394 0.985 . S
C408 C409 1.363 . S
C408 C414 1.379 . S
C408 N416 1.356 . S
C409 C408 1.363 . S
C409 C415 1.363 . S
C410 C411 1.363 . S
C410 C415 1.379 . S
C410 N417 1.356 . S
C411 C410 1.363 . S
C411 C414 1.363 . S
N412 C414 1.356 . S
N412 H424 0.984 . S
N412 H425 0.985 . S
N413 C415 1.356 . S
N413 H418 0.984 . S
N413 H419 0.985 . S
C414 C408 1.379 . S
C414 C411 1.363 . S
C414 N412 1.356 . S
C415 C409 1.363 . S
C415 C410 1.379 . S
C415 N413 1.356 . S
N416 C408 1.356 . S
N416 H422 0.984 . S
N416 H423 0.984 . S
N417 C410 1.356 . S
N417 H420 0.984 . S
N417 H421 0.985 . S
H418 N413 0.984 . S
H419 N413 0.985 . S
H420 N417 0.984 . S
H421 N417 0.985 . S
H422 N416 0.984 . S
H423 N416 0.984 . S
H424 N412 0.984 . S
H425 N412 0.985 . S
C426 C427 1.363 . S
C426 C432 1.379 . S
C426 N434 1.356 . S
C427 C426 1.363 . S
C427 C433 1.363 . S
C428 C429 1.363 . S
C428 C433 1.379 . S
C428 N435 1.356 . S
C429 C428 1.363 . S
C429 C432 1.363 . S
N430 C432 1.356 . S
N430 H442 0.984 . S
N430 H443 0.985 . S
N431 C433 1.356 . S
N431 H436 0.984 . S
N431 H437 0.985 . S
C432 C426 1.379 . S
C432 C429 1.363 . S
C432 N430 1.356 . S
C433 C427 1.363 . S
C433 C428 1.379 . S
C433 N431 1.356 . S
N434 C426 1.356 . S
N434 H440 0.984 . S
N434 H441 0.984 . S
N435 C428 1.356 . S
N435 H438 0.984 . S
N435 H439 0.985 . S
H436 N431 0.984 . S
H437 N431 0.985 . S
H438 N435 0.984 . S
H439 N435 0.985 . S
H440 N434 0.984 . S
H441 N434 0.984 . S
H442 N430 0.984 . S
H443 N430 0.985 . S
C444 C445 1.363 1_655 S
C444 C450 1.379 . S
C444 N452 1.356 1_655 S
C445 C444 1.363 1_455 S
C445 C451 1.363 1_564 S
C446 C447 1.363 1_556 S
C446 C451 1.379 1_655 S
C446 N453 1.356 . S
C447 C446 1.363 1_554 S
C447 C450 1.363 1_545 S
N448 C450 1.356 . S
N448 H460 0.984 . S
N448 H461 0.985 1_565 S
N449 C451 1.356 . S
N449 H454 0.984 1_545 S
N449 H455 0.985 . S
C450 C444 1.379 . S
C450 C447 1.363 1_565 S
C450 N448 1.356 . S
C451 C445 1.363 1_546 S
C451 C446 1.379 1_455 S
C451 N449 1.356 . S
N452 C444 1.356 1_455 S
N452 H458 0.984 1_455 S
N452 H459 0.984 . S
N453 C446 1.356 . S
N453 H456 0.984 . S
N453 H457 0.985 . S
H454 N449 0.984 1_565 S
H455 N449 0.985 . S
H456 N453 0.984 . S
H457 N453 0.985 . S
H458 N452 0.984 1_655 S
H459 N452 0.984 . S
H460 N448 0.984 . S
H461 N448 0.985 1_545 S
C462 C463 1.363 . S
C462 C468 1.379 1_565 S
C462 N470 1.356 . S
C463 C462 1.363 . S
C463 C469 1.363 1_655 S
C464 C465 1.363 1_565 S
C464 C469 1.379 . S
C464 N471 1.356 1_565 S
C465 C464 1.363 1_545 S
C465 C468 1.363 1_455 S
N466 C468 1.356 . S
N466 H478 0.984 . S
N466 H479 0.985 1_655 S
N467 C469 1.356 . S
N467 H472 0.984 1_455 S
N467 H473 0.985 . S
C468 C462 1.379 1_545 S
C468 C465 1.363 1_655 S
C468 N466 1.356 . S
C469 C463 1.363 1_455 S
C469 C464 1.379 . S
C469 N467 1.356 . S
N470 C462 1.356 . S
N470 H476 0.984 . S
N470 H477 0.984 . S
N471 C464 1.356 1_545 S
N471 H474 0.984 . S
N471 H475 0.985 1_545 S
H472 N467 0.984 1_655 S
H473 N467 0.985 . S
H474 N471 0.984 . S
H475 N471 0.985 1_565 S
H476 N470 0.984 . S
H477 N470 0.984 . S
H478 N466 0.984 . S
H479 N466 0.985 1_455 S
C480 C481 1.363 . S
C480 C486 1.379 . S
C480 N488 1.356 . S
C481 C480 1.363 . S
C481 C487 1.363 . S
C482 C483 1.363 . S
C482 C487 1.379 . S
C482 N489 1.356 . S
C483 C482 1.363 . S
C483 C486 1.363 . S
N484 C486 1.356 . S
N484 H496 0.984 . S
N484 H497 0.985 . S
N485 C487 1.356 . S
N485 H490 0.984 . S
N485 H491 0.985 . S
C486 C480 1.379 . S
C486 C483 1.363 . S
C486 N484 1.356 . S
C487 C481 1.363 . S
C487 C482 1.379 . S
C487 N485 1.356 . S
N488 C480 1.356 . S
N488 H494 0.984 . S
N488 H495 0.984 . S
N489 C482 1.356 . S
N489 H492 0.984 . S
N489 H493 0.985 . S
H490 N485 0.984 . S
H491 N485 0.985 . S
H492 N489 0.984 . S
H493 N489 0.985 . S
H494 N488 0.984 . S
H495 N488 0.984 . S
H496 N484 0.984 . S
H497 N484 0.985 . S
C498 C499 1.363 . S
C498 C504 1.379 . S
C498 N506 1.356 . S
C499 C498 1.363 . S
C499 C505 1.363 . S
C500 C501 1.363 . S
C500 C505 1.379 . S
C500 N507 1.356 . S
C501 C500 1.363 . S
C501 C504 1.363 . S
N502 C504 1.356 . S
N502 H514 0.984 . S
N502 H515 0.985 . S
N503 C505 1.356 . S
N503 H508 0.984 . S
N503 H509 0.985 . S
C504 C498 1.379 . S
C504 C501 1.363 . S
C504 N502 1.356 . S
C505 C499 1.363 . S
C505 C500 1.379 . S
C505 N503 1.356 . S
N506 C498 1.356 . S
N506 H512 0.984 . S
N506 H513 0.984 . S
N507 C500 1.356 . S
N507 H510 0.984 . S
N507 H511 0.985 . S
H508 N503 0.984 . S
H509 N503 0.985 . S
H510 N507 0.984 . S
H511 N507 0.985 . S
H512 N506 0.984 . S
H513 N506 0.984 . S
H514 N502 0.984 . S
H515 N502 0.985 . S
C516 C517 1.363 . S
C516 C522 1.379 . S
C516 N524 1.356 . S
C517 C516 1.363 . S
C517 C523 1.363 . S
C518 C519 1.363 . S
C518 C523 1.379 . S
C518 N525 1.356 . S
C519 C518 1.363 . S
C519 C522 1.363 . S
N520 C522 1.356 . S
N520 H532 0.984 . S
N520 H533 0.985 . S
N521 C523 1.356 . S
N521 H526 0.984 . S
N521 H527 0.985 . S
C522 C516 1.379 . S
C522 C519 1.363 . S
C522 N520 1.356 . S
C523 C517 1.363 . S
C523 C518 1.379 . S
C523 N521 1.356 . S
N524 C516 1.356 . S
N524 H530 0.984 . S
N524 H531 0.984 . S
N525 C518 1.356 . S
N525 H528 0.984 . S
N525 H529 0.985 . S
H526 N521 0.984 . S
H527 N521 0.985 . S
H528 N525 0.984 . S
H529 N525 0.985 . S
H530 N524 0.984 . S
H531 N524 0.984 . S
H532 N520 0.984 . S
H533 N520 0.985 . S
C534 C535 1.363 . S
C534 C540 1.379 . S
C534 N542 1.356 . S
C535 C534 1.363 . S
C535 C541 1.363 . S
C536 C537 1.363 . S
C536 C541 1.379 . S
C536 N543 1.356 . S
C537 C536 1.363 . S
C537 C540 1.363 . S
N538 C540 1.356 . S
N538 H550 0.984 . S
N538 H551 0.985 . S
N539 C541 1.356 . S
N539 H544 0.984 . S
N539 H545 0.985 . S
C540 C534 1.379 . S
C540 C537 1.363 . S
C540 N538 1.356 . S
C541 C535 1.363 . S
C541 C536 1.379 . S
C541 N539 1.356 . S
N542 C534 1.356 . S
N542 H548 0.984 1_565 S
N542 H549 0.984 . S
N543 C536 1.356 . S
N543 H546 0.984 . S
N543 H547 0.985 . S
H544 N539 0.984 . S
H545 N539 0.985 . S
H546 N543 0.984 . S
H547 N543 0.985 . S
H548 N542 0.984 1_545 S
H549 N542 0.984 . S
H550 N538 0.984 . S
H551 N538 0.985 . S
C552 C553 1.363 . S
C552 C558 1.379 . S
C552 N560 1.356 . S
C553 C552 1.363 . S
C553 C559 1.363 . S
C554 C555 1.363 . S
C554 C559 1.379 . S
C554 N561 1.356 . S
C555 C554 1.363 . S
C555 C558 1.363 . S
N556 C558 1.356 . S
N556 H568 0.984 . S
N556 H569 0.985 . S
N557 C559 1.356 . S
N557 H562 0.984 . S
N557 H563 0.985 . S
C558 C552 1.379 . S
C558 C555 1.363 . S
C558 N556 1.356 . S
C559 C553 1.363 . S
C559 C554 1.379 . S
C559 N557 1.356 . S
N560 C552 1.356 . S
N560 H566 0.984 . S
N560 H567 0.984 . S
N561 C554 1.356 . S
N561 H564 0.984 . S
N561 H565 0.985 . S
H562 N557 0.984 . S
H563 N557 0.985 . S
H564 N561 0.984 . S
H565 N561 0.985 . S
H566 N560 0.984 . S
H567 N560 0.984 . S
H568 N556 0.984 . S
H569 N556 0.985 . S
C570 C571 1.363 . S
C570 C576 1.379 . S
C570 N578 1.356 . S
C571 C570 1.363 . S
C571 C577 1.363 . S
C572 C573 1.363 . S
C572 C577 1.379 . S
C572 N579 1.356 . S
C573 C572 1.363 . S
C573 C576 1.363 . S
N574 C576 1.356 . S
N574 H586 0.984 . S
N574 H587 0.985 . S
N575 C577 1.356 . S
N575 H580 0.984 . S
N575 H581 0.985 . S
C576 C570 1.379 . S
C576 C573 1.363 . S
C576 N574 1.356 . S
C577 C571 1.363 . S
C577 C572 1.379 . S
C577 N575 1.356 . S
N578 C570 1.356 . S
N578 H584 0.984 . S
N578 H585 0.984 . S
N579 C572 1.356 . S
N579 H582 0.984 . S
N579 H583 0.985 . S
H580 N575 0.984 . S
H581 N575 0.985 . S
H582 N579 0.984 . S
H583 N579 0.985 . S
H584 N578 0.984 . S
H585 N578 0.984 . S
H586 N574 0.984 . S
H587 N574 0.985 . S
C588 C589 1.363 . S
C588 C594 1.379 . S
C588 N596 1.356 . S
C589 C588 1.363 . S
C589 C595 1.363 . S
C590 C591 1.363 . S
C590 C595 1.379 . S
C590 N597 1.356 . S
C591 C590 1.363 . S
C591 C594 1.363 . S
N592 C594 1.356 . S
N592 H604 0.984 . S
N592 H605 0.985 . S
N593 C595 1.356 . S
N593 H598 0.984 . S
N593 H599 0.985 . S
C594 C588 1.379 . S
C594 C591 1.363 . S
C594 N592 1.356 . S
C595 C589 1.363 . S
C595 C590 1.379 . S
C595 N593 1.356 . S
N596 C588 1.356 . S
N596 H602 0.984 . S
N596 H603 0.984 . S
N597 C590 1.356 . S
N597 H600 0.984 . S
N597 H601 0.985 . S
H598 N593 0.984 . S
H599 N593 0.985 . S
H600 N597 0.984 . S
H601 N597 0.985 . S
H602 N596 0.984 . S
H603 N596 0.984 . S
H604 N592 0.984 . S
H605 N592 0.985 . S
C606 C607 1.363 . S
C606 C612 1.379 . S
C606 N614 1.356 . S
C607 C606 1.363 . S
C607 C613 1.363 . S
C608 C609 1.363 . S
C608 C613 1.379 . S
C608 N615 1.356 . S
C609 C608 1.363 . S
C609 C612 1.363 . S
N610 C612 1.356 . S
N610 H622 0.984 . S
N610 H623 0.985 . S
N611 C613 1.356 . S
N611 H616 0.984 . S
N611 H617 0.985 . S
C612 C606 1.379 . S
C612 C609 1.363 . S
C612 N610 1.356 . S
C613 C607 1.363 . S
C613 C608 1.379 . S
C613 N611 1.356 . S
N614 C606 1.356 . S
N614 H620 0.984 . S
N614 H621 0.984 . S
N615 C608 1.356 . S
N615 H618 0.984 . S
N615 H619 0.985 . S
H616 N611 0.984 . S
H617 N611 0.985 . S
H618 N615 0.984 . S
H619 N615 0.985 . S
H620 N614 0.984 . S
H621 N614 0.984 . S
H622 N610 0.984 . S
H623 N610 0.985 . S
C265 N200 0.874 . S
C267 N13 0.890 . S
C283 N233 0.880 . S
C285 N46 0.875 . S
C301 N134 0.934 . S
C303 N79 0.929 . S
C319 N167 1.011 . S
C321 N112 0.959 . S
C337 N68 0.972 . S
C339 N145 0.995 . S
C355 N101 1.070 . S
C357 N178 0.996 . S
C373 N2 0.963 . S
C375 N211 0.959 . S
C391 N244 0.946 . S
C393 N35 0.927 . S
C409 C87 1.988 . S
C411 C7 1.972 . S
C427 C54 2.124 . S
C429 C106 2.119 . S
C445 C219 2.034 . S
C447 C139 2.023 . S
C463 C172 2.323 . S
C465 C238 2.309 . S
C481 C18 1.797 . S
C483 C249 1.818 . S
C499 C150 1.969 . S
C501 C40 1.975 . S
C517 C183 1.812 . S
C519 C73 1.807 . S
C535 C205 1.917 . S
C537 C117 1.901 . S
C553 C84 1.595 . S
C555 C186 1.556 . S
C571 C120 1.410 . S
C573 C216 1.444 . S
C589 C252 1.202 . S
C591 C21 1.195 . S
C607 C153 1.400 . S
C609 C51 1.413 . S
