# Generated by pormake.
# Topology ecf, (8)-cn, num edge types: 1
# Building blocks:
#     Node 0, Type 0, BuildingBlock: AJUNOK_clean_sbu_0, # of connection points: 8
#     Node 1, Type 0, BuildingBlock: AJUNOK_clean_sbu_0, # of connection points: 8
#     Node 2, Type 0, BuildingBlock: AJUNOK_clean_sbu_0, # of connection points: 8
#     Node 3, Type 0, BuildingBlock: AJUNOK_clean_sbu_0, # of connection points: 8
#     Node 4, Type 0, BuildingBlock: AJUNOK_clean_sbu_0, # of connection points: 8
#     Node 5, Type 0, BuildingBlock: AJUNOK_clean_sbu_0, # of connection points: 8
#     Edge 6, Type (0, 0), BuildingBlock: XUDNAN_clean_linker_2, # of connection points: 2
#     Edge 7, Type (0, 0), BuildingBlock: XUDNAN_clean_linker_2, # of connection points: 2
#     Edge 8, Type (0, 0), BuildingBlock: XUDNAN_clean_linker_2, # of connection points: 2
#     Edge 9, Type (0, 0), BuildingBlock: XUDNAN_clean_linker_2, # of connection points: 2
#     Edge 10, Type (0, 0), BuildingBlock: XUDNAN_clean_linker_2, # of connection points: 2
#     Edge 11, Type (0, 0), BuildingBlock: XUDNAN_clean_linker_2, # of connection points: 2
#     Edge 12, Type (0, 0), BuildingBlock: XUDNAN_clean_linker_2, # of connection points: 2
#     Edge 13, Type (0, 0), BuildingBlock: XUDNAN_clean_linker_2, # of connection points: 2
#     Edge 14, Type (0, 0), BuildingBlock: XUDNAN_clean_linker_2, # of connection points: 2
#     Edge 15, Type (0, 0), BuildingBlock: XUDNAN_clean_linker_2, # of connection points: 2
#     Edge 16, Type (0, 0), BuildingBlock: XUDNAN_clean_linker_2, # of connection points: 2
#     Edge 17, Type (0, 0), BuildingBlock: XUDNAN_clean_linker_2, # of connection points: 2
#     Edge 18, Type (0, 0), BuildingBlock: XUDNAN_clean_linker_2, # of connection points: 2
#     Edge 19, Type (0, 0), BuildingBlock: XUDNAN_clean_linker_2, # of connection points: 2
#     Edge 20, Type (0, 0), BuildingBlock: XUDNAN_clean_linker_2, # of connection points: 2
#     Edge 21, Type (0, 0), BuildingBlock: XUDNAN_clean_linker_2, # of connection points: 2
#     Edge 22, Type (0, 0), BuildingBlock: XUDNAN_clean_linker_2, # of connection points: 2
#     Edge 23, Type (0, 0), BuildingBlock: XUDNAN_clean_linker_2, # of connection points: 2
#     Edge 24, Type (0, 0), BuildingBlock: XUDNAN_clean_linker_2, # of connection points: 2
#     Edge 25, Type (0, 0), BuildingBlock: XUDNAN_clean_linker_2, # of connection points: 2
#     Edge 26, Type (0, 0), BuildingBlock: XUDNAN_clean_linker_2, # of connection points: 2
#     Edge 27, Type (0, 0), BuildingBlock: XUDNAN_clean_linker_2, # of connection points: 2
#     Edge 28, Type (0, 0), BuildingBlock: XUDNAN_clean_linker_2, # of connection points: 2
#     Edge 29, Type (0, 0), BuildingBlock: XUDNAN_clean_linker_2, # of connection points: 2
# Relax obj value: 0.407
# Max RMSD: 0.282
# Mean RMSD: 0.282
data_MOF--net-ecf--node1-AJUNOK_clean_sbu_0--edge1-XUDNAN_clean_linker_2
_symmetry_space_group_name_H-M    P1
_symmetry_Int_Tables_number       1
_symmetry_cell_setting            triclinic
loop_
_symmetry_equiv_pos_as_xyz
'x, y, z'
_cell_length_a     39.476299
_cell_length_b     39.612041
_cell_length_c     23.547648
_cell_angle_alpha  90.270914
_cell_angle_beta   89.938983
_cell_angle_gamma 120.13863
loop_
_atom_site_label
_atom_site_type_symbol
_atom_site_fract_x
_atom_site_fract_y
_atom_site_fract_z
_atom_type_partial_charge
Cd0 Cd 0.12129 0.31191 0.25502 0.0
Cd1 Cd 0.21671 0.3362 0.33832 0.0
C2 C 0.07106 0.22472 0.2999 0.0
N3 N 0.09507 0.24387 0.25552 0.0
C4 C 0.08344 0.1832 0.21569 0.0
C5 C 0.06108 0.16335 0.26336 0.0
C6 C 0.05405 0.1845 0.30497 0.0
C7 C 0.10054 0.22377 0.21277 0.0
H8 H 0.06464 0.24045 0.33149 0.0
H9 H 0.11756 0.2388 0.17588 0.0
C10 C 0.20184 0.30885 0.18609 0.0
C11 C 0.25862 0.41423 0.26633 0.0
C12 C 0.27907 0.45417 0.25506 0.0
C13 C 0.27705 0.48038 0.29339 0.0
C14 C 0.25376 0.46536 0.34221 0.0
C15 C 0.23338 0.42495 0.35158 0.0
N16 N 0.23586 0.40034 0.31344 0.0
H17 H 0.26207 0.39442 0.23848 0.0
H18 H 0.21685 0.41336 0.39031 0.0
C19 C 0.21453 0.25818 0.30489 0.0
N20 N 0.19234 0.2695 0.33464 0.0
C21 C 0.14287 0.2032 0.34861 0.0
C22 C 0.1628 0.19143 0.3116 0.0
C23 C 0.19972 0.21912 0.2913 0.0
C24 C 0.15786 0.24289 0.35865 0.0
H25 H 0.24299 0.27974 0.28912 0.0
H26 H 0.14134 0.25223 0.38408 0.0
C27 C 0.12502 0.31028 0.40964 0.0
C28 C 0.05437 0.31356 0.21647 0.0
N29 N 0.157 0.38014 0.25971 0.0
C30 C 0.14612 0.3974 0.30014 0.0
C31 C 0.15911 0.43735 0.29771 0.0
C32 C 0.18385 0.46028 0.25325 0.0
C33 C 0.19453 0.44129 0.21212 0.0
C34 C 0.18008 0.40103 0.21554 0.0
C35 C 0.29013 0.3586 0.3903 0.0
O36 O 0.16858 0.3071 0.18363 0.0
O37 O 0.22066 0.31829 0.23307 0.0
O38 O 0.16175 0.32198 0.41293 0.0
O39 O 0.10968 0.30624 0.3608 0.0
O40 O 0.08255 0.32131 0.18295 0.0
O41 O 0.05645 0.30257 0.26591 0.0
O42 O 0.26113 0.35406 0.41945 0.0
O43 O 0.28461 0.35208 0.33764 0.0
H44 H 0.12571 0.37976 0.33284 0.0
H45 H 0.18679 0.38632 0.18237 0.0
H46 H 0.08808 0.16764 0.18146 0.0
H47 H 0.03541 0.17007 0.34111 0.0
H48 H 0.29758 0.46456 0.21781 0.0
H49 H 0.25184 0.48467 0.37311 0.0
H50 H 0.11515 0.18233 0.36699 0.0
H51 H 0.21645 0.21072 0.2641 0.0
H52 H 0.14834 0.44946 0.32939 0.0
H53 H 0.21382 0.45704 0.17729 0.0
Cd54 Cd 0.87425 0.19847 0.85636 0.0
Cd55 Cd 0.81411 0.13894 0.73878 0.0
C56 C 0.96482 0.23271 0.86227 0.0
N57 N 0.93183 0.20171 0.88266 0.0
C58 C 0.96613 0.16825 0.90425 0.0
C59 C 0.99838 0.19625 0.87292 0.0
C60 C 0.99862 0.23055 0.85658 0.0
C61 C 0.93246 0.17127 0.90782 0.0
H62 H 0.96351 0.25703 0.84396 0.0
H63 H 0.9058 0.14747 0.92522 0.0
C64 C 0.79978 0.09575 0.87513 0.0
C65 C 0.76263 0.16106 0.82116 0.0
C66 C 0.73501 0.17259 0.83182 0.0
C67 C 0.73152 0.19812 0.79426 0.0
C68 C 0.7571 0.21262 0.74772 0.0
C69 C 0.7838 0.19976 0.73806 0.0
N70 N 0.78633 0.17466 0.77482 0.0
H71 H 0.76332 0.13941 0.84796 0.0
H72 H 0.8012 0.20828 0.6997 0.0
C73 C 0.85469 0.09039 0.69795 0.0
N74 N 0.85528 0.11323 0.74159 0.0
C75 C 0.90238 0.10385 0.79148 0.0
C76 C 0.9013 0.07882 0.74837 0.0
C77 C 0.87771 0.07281 0.7004 0.0
C78 C 0.87904 0.12086 0.78715 0.0
H79 H 0.83552 0.08503 0.66206 0.0
H80 H 0.87903 0.13944 0.82054 0.0
C81 C 0.91218 0.20513 0.70887 0.0
C82 C 0.88224 0.24369 0.9539 0.0
N83 N 0.85541 0.24122 0.81638 0.0
C84 C 0.87565 0.26399 0.7715 0.0
C85 C 0.87325 0.29695 0.75803 0.0
C86 C 0.8506 0.30731 0.79184 0.0
C87 C 0.82825 0.28233 0.83589 0.0
C88 C 0.83149 0.24954 0.84793 0.0
C89 C 0.7567 0.10428 0.65369 0.0
O90 O 0.8265 0.12888 0.89381 0.0
O91 O 0.79059 0.09242 0.82255 0.0
O92 O 0.87797 0.18533 0.68732 0.0
O93 O 0.91528 0.20953 0.76303 0.0
O94 O 0.85435 0.20859 0.9505 0.0
O95 O 0.90611 0.25654 0.91274 0.0
O96 O 0.78818 0.13596 0.64466 0.0
O97 O 0.75411 0.08691 0.69986 0.0
H98 H 0.89596 0.25864 0.74844 0.0
H99 H 0.81647 0.23191 0.88444 0.0
H100 H 0.96527 0.14238 0.92074 0.0
H101 H 0.02257 0.25372 0.83341 0.0
H102 H 0.71556 0.16053 0.86789 0.0
H103 H 0.75482 0.23176 0.71722 0.0
H104 H 0.91999 0.10902 0.82905 0.0
H105 H 0.87541 0.05314 0.66659 0.0
H106 H 0.89104 0.31562 0.72377 0.0
H107 H 0.81079 0.28959 0.86339 0.0
Cd108 Cd 0.6636 0.79353 0.23739 0.0
Cd109 Cd 0.69594 0.88033 0.32964 0.0
C110 C 0.74276 0.79213 0.24845 0.0
N111 N 0.73068 0.81614 0.2271 0.0
C112 C 0.7965 0.86333 0.20195 0.0
C113 C 0.81 0.84049 0.22788 0.0
C114 C 0.7824 0.80377 0.24941 0.0
C115 C 0.7565 0.85058 0.20222 0.0
H116 H 0.72162 0.76424 0.26612 0.0
H117 H 0.74668 0.86899 0.18405 0.0
C118 C 0.69243 0.8884 0.1782 0.0
C119 C 0.61018 0.8562 0.2844 0.0
C120 C 0.57053 0.8444 0.29112 0.0
C121 C 0.54975 0.82092 0.33741 0.0
C122 C 0.56899 0.80865 0.37485 0.0
C123 C 0.60851 0.82074 0.3662 0.0
N124 N 0.62817 0.84384 0.3213 0.0
H125 H 0.62703 0.87699 0.25176 0.0
H126 H 0.62407 0.81366 0.39728 0.0
C127 C 0.78314 0.93325 0.28657 0.0
N128 N 0.76291 0.90094 0.31922 0.0
C129 C 0.82173 0.89959 0.33857 0.0
C130 C 0.84292 0.93206 0.30363 0.0
C131 C 0.82314 0.94908 0.27765 0.0
C132 C 0.78159 0.88416 0.34529 0.0
H133 H 0.7684 0.94732 0.26818 0.0
H134 H 0.76619 0.85924 0.37219 0.0
C135 C 0.69474 0.79846 0.38737 0.0
C136 C 0.63582 0.72333 0.1749 0.0
N137 N 0.59771 0.77042 0.25866 0.0
C138 C 0.58091 0.74226 0.29889 0.0
C139 C 0.54014 0.71962 0.30302 0.0
C140 C 0.5161 0.72559 0.26499 0.0
C141 C 0.53457 0.75574 0.22484 0.0
C142 C 0.57546 0.77704 0.22136 0.0
C143 C 0.68823 0.93722 0.39006 0.0
O144 O 0.67619 0.85129 0.17257 0.0
O145 O 0.70222 0.90333 0.22767 0.0
O146 O 0.69977 0.83232 0.39771 0.0
O147 O 0.68313 0.78375 0.33779 0.0
O148 O 0.64251 0.75478 0.1513 0.0
O149 O 0.64426 0.72524 0.22702 0.0
O150 O 0.68217 0.90599 0.41341 0.0
O151 O 0.70335 0.94457 0.34111 0.0
H152 H 0.59921 0.73593 0.32577 0.0
H153 H 0.5895 0.79816 0.18783 0.0
H154 H 0.8167 0.89175 0.1846 0.0
H155 H 0.79137 0.78456 0.26811 0.0
H156 H 0.55694 0.85552 0.2626 0.0
H157 H 0.5541 0.79142 0.41188 0.0
H158 H 0.83597 0.88619 0.36062 0.0
H159 H 0.8386 0.97521 0.25221 0.0
H160 H 0.52794 0.69612 0.33352 0.0
H161 H 0.51778 0.76215 0.19497 0.0
Cd162 Cd 0.81584 0.69362 0.84467 0.0
Cd163 Cd 0.88431 0.68823 0.74009 0.0
C164 C 0.83149 0.78141 0.85441 0.0
N165 N 0.84959 0.76097 0.84071 0.0
C166 C 0.90792 0.81935 0.81534 0.0
C167 C 0.88983 0.8412 0.82724 0.0
C168 C 0.85124 0.82191 0.84796 0.0
C169 C 0.88711 0.77909 0.8221 0.0
H170 H 0.80146 0.76617 0.86891 0.0
H171 H 0.90052 0.76211 0.81143 0.0
C172 C 0.91203 0.71537 0.88915 0.0
C173 C 0.86524 0.61713 0.82494 0.0
C174 C 0.85993 0.58022 0.83543 0.0
C175 C 0.84184 0.55081 0.79426 0.0
C176 C 0.82548 0.55783 0.74618 0.0
C177 C 0.83149 0.59532 0.73727 0.0
N178 N 0.85222 0.62443 0.77558 0.0
H179 H 0.88271 0.64042 0.8541 0.0
H180 H 0.82258 0.60199 0.69744 0.0
C181 C 0.96434 0.76974 0.74083 0.0
N182 N 0.92837 0.75307 0.71619 0.0
C183 C 0.94298 0.81412 0.67549 0.0
C184 C 0.97869 0.83248 0.70478 0.0
C185 C 0.98997 0.80972 0.73615 0.0
C186 C 0.91797 0.77403 0.68197 0.0
H187 H 0.97249 0.75224 0.76608 0.0
H188 H 0.88981 0.76022 0.66128 0.0
C189 C 0.80814 0.70922 0.69705 0.0
C190 C 0.75217 0.6711 0.91901 0.0
N191 N 0.78577 0.62776 0.81425 0.0
C192 C 0.76527 0.61628 0.76465 0.0
C193 C 0.73994 0.57674 0.75295 0.0
C194 C 0.7344 0.54844 0.79335 0.0
C195 C 0.75531 0.56098 0.84466 0.0
C196 C 0.78064 0.60095 0.85446 0.0
C197 C 0.91929 0.6569 0.66895 0.0
O198 O 0.87802 0.70845 0.9047 0.0
O199 O 0.91746 0.71091 0.83678 0.0
O200 O 0.83289 0.69791 0.68834 0.0
O201 O 0.79913 0.71258 0.74808 0.0
O202 O 0.78248 0.67046 0.93476 0.0
O203 O 0.75369 0.6867 0.87163 0.0
O204 O 0.88867 0.65709 0.65333 0.0
O205 O 0.9351 0.67428 0.715 0.0
H206 H 0.76696 0.63756 0.73495 0.0
H207 H 0.79543 0.61071 0.89494 0.0
H208 H 0.93759 0.83317 0.80013 0.0
H209 H 0.83603 0.8377 0.85697 0.0
H210 H 0.87321 0.57578 0.87278 0.0
H211 H 0.81188 0.53591 0.71315 0.0
H212 H 0.9335 0.83089 0.65078 0.0
H213 H 0.0177 0.82297 0.75856 0.0
H214 H 0.72349 0.56857 0.71359 0.0
H215 H 0.75167 0.54021 0.87722 0.0
Cd216 Cd 0.21328 0.8705 0.25812 0.0
Cd217 Cd 0.13494 0.79374 0.34417 0.0
C218 C 0.20484 0.9464 0.27123 0.0
N219 N 0.18905 0.9127 0.24059 0.0
C220 C 0.14256 0.92687 0.19826 0.0
C221 C 0.15598 0.95965 0.2334 0.0
C222 C 0.18833 0.97016 0.26888 0.0
C223 C 0.1598 0.90376 0.20233 0.0
H224 H 0.22979 0.95457 0.29845 0.0
H225 H 0.14919 0.87868 0.17505 0.0
C226 C 0.11672 0.79849 0.19929 0.0
C227 C 0.16917 0.75281 0.25695 0.0
C228 C 0.18244 0.72709 0.24261 0.0
C229 C 0.19911 0.71444 0.28436 0.0
C230 C 0.20293 0.7296 0.33967 0.0
C231 C 0.18846 0.75459 0.35237 0.0
N232 N 0.1725 0.76626 0.31109 0.0
H233 H 0.15407 0.75988 0.2254 0.0
H234 H 0.18903 0.76395 0.39577 0.0
C235 C 0.05899 0.80171 0.34182 0.0
N236 N 0.09856 0.8248 0.33999 0.0
C237 C 0.09306 0.88163 0.32706 0.0
C238 C 0.05223 0.85831 0.3267 0.0
C239 C 0.03512 0.81793 0.33507 0.0
C240 C 0.11586 0.86411 0.33383 0.0
H241 H 0.04599 0.77052 0.34678 0.0
H242 H 0.14725 0.88171 0.33319 0.0
C243 C 0.20448 0.88804 0.40677 0.0
C244 C 0.28076 0.91346 0.19083 0.0
N245 N 0.24476 0.83729 0.29399 0.0
C246 C 0.25431 0.83934 0.34984 0.0
C247 C 0.28087 0.8281 0.36807 0.0
C248 C 0.3004 0.81715 0.32825 0.0
C249 C 0.28889 0.81417 0.27093 0.0
C250 C 0.26082 0.82403 0.25492 0.0
C251 C 0.08805 0.72538 0.40808 0.0
O252 O 0.15349 0.82318 0.19528 0.0
O253 O 0.10238 0.78523 0.24803 0.0
O254 O 0.17729 0.85229 0.41197 0.0
O255 O 0.21978 0.90007 0.35796 0.0
O256 O 0.25193 0.88193 0.17276 0.0
O257 O 0.27715 0.92576 0.23884 0.0
O258 O 0.11534 0.75582 0.4314 0.0
O259 O 0.081 0.728 0.35651 0.0
H260 H 0.24186 0.85009 0.38059 0.0
H261 H 0.25345 0.82301 0.21054 0.0
H262 H 0.1183 0.91855 0.1693 0.0
H263 H 0.20053 0.99632 0.29487 0.0
H264 H 0.17735 0.71551 0.19981 0.0
H265 H 0.21589 0.72143 0.3735 0.0
H266 H 0.10703 0.91286 0.32172 0.0
H267 H 1.00361 0.7989 0.33437 0.0
H268 H 0.28657 0.82923 0.41311 0.0
H269 H 0.30266 0.80641 0.23771 0.0
Cd270 Cd 0.3359 0.1365 0.8497 0.0
Cd271 Cd 0.34568 0.20598 0.7332 0.0
C272 C 0.24495 0.07491 0.85783 0.0
N273 N 0.26966 0.11055 0.83566 0.0
C274 C 0.21704 0.11154 0.78758 0.0
C275 C 0.19109 0.07384 0.80716 0.0
C276 C 0.20529 0.05581 0.84391 0.0
C277 C 0.25655 0.12918 0.80186 0.0
H278 H 0.25644 0.06061 0.88408 0.0
H279 H 0.27715 0.15689 0.78415 0.0
C280 C 0.31616 0.21069 0.88539 0.0
C281 C 0.42421 0.26934 0.79784 0.0
C282 C 0.46396 0.29775 0.80168 0.0
C283 C 0.49154 0.29547 0.76621 0.0
C284 C 0.47791 0.26292 0.72966 0.0
C285 C 0.43787 0.23573 0.7263 0.0
N286 N 0.41192 0.23923 0.76026 0.0
H287 H 0.40286 0.27282 0.82205 0.0
H288 H 0.42725 0.21267 0.69479 0.0
C289 C 0.281 0.22935 0.72846 0.0
N290 N 0.2885 0.20279 0.70403 0.0
C291 C 0.22572 0.17074 0.65938 0.0
C292 C 0.21578 0.19552 0.68878 0.0
C293 C 0.24464 0.22605 0.72197 0.0
C294 C 0.26259 0.17479 0.66801 0.0
H295 H 0.30262 0.25189 0.75567 0.0
H296 H 0.26972 0.15441 0.64839 0.0
C297 C 0.31217 0.10318 0.7042 0.0
C298 C 0.34864 0.0877 0.92247 0.0
N299 N 0.40174 0.17185 0.82421 0.0
C300 C 0.4134 0.1548 0.78442 0.0
C301 C 0.45294 0.16607 0.77893 0.0
C302 C 0.48081 0.19488 0.81513 0.0
C303 C 0.4681 0.21244 0.85535 0.0
C304 C 0.42806 0.19974 0.86009 0.0
C305 C 0.38001 0.26652 0.65209 0.0
O306 O 0.32238 0.18424 0.90486 0.0
O307 O 0.32203 0.21895 0.83221 0.0
O308 O 0.32272 0.13748 0.68594 0.0
O309 O 0.31478 0.09859 0.75734 0.0
O310 O 0.34828 0.11735 0.94222 0.0
O311 O 0.33909 0.07913 0.87103 0.0
O312 O 0.3745 0.23278 0.64036 0.0
O313 O 0.36891 0.27119 0.7005 0.0
H314 H 0.3918 0.13093 0.75896 0.0
H315 H 0.41778 0.2109 0.8939 0.0
H316 H 0.20709 0.12645 0.7598 0.0
H317 H 0.18653 0.02637 0.8591 0.0
H318 H 0.47236 0.3225 0.82958 0.0
H319 H 0.49771 0.25899 0.7023 0.0
H320 H 0.20459 0.14716 0.63283 0.0
H321 H 0.23863 0.24562 0.7465 0.0
H322 H 0.46151 0.15164 0.74765 0.0
H323 H 0.48861 0.23422 0.88474 0.0
H324 H 0.19197 0.5125 0.33912 0.0
H325 H 0.20401 0.50602 0.15626 0.0
H326 H 0.22011 0.57407 0.14787 0.0
H327 H 0.13833 0.55996 0.32935 0.0
H328 H 0.15865 0.58928 0.39244 0.0
H329 H 0.1565 0.543 0.38616 0.0
H330 H 0.23136 0.57699 0.40403 0.0
H331 H 0.2338 0.62356 0.40995 0.0
H332 H 0.26431 0.61694 0.35936 0.0
H333 H 0.22936 0.64163 0.15747 0.0
H334 H 0.22423 0.69927 0.18259 0.0
H335 H 0.19561 0.65738 0.35614 0.0
C336 C 0.19791 0.52497 0.29705 0.0
C337 C 0.19669 0.50296 0.24853 0.0
C338 C 0.20558 0.5217 0.19477 0.0
C339 C 0.21464 0.56065 0.18932 0.0
C340 C 0.21429 0.58078 0.23774 0.0
C341 C 0.2058 0.56343 0.29052 0.0
C342 C 0.20244 0.58957 0.33473 0.0
C343 C 0.16156 0.56924 0.36225 0.0
C344 C 0.23491 0.60253 0.37968 0.0
C345 C 0.20875 0.62363 0.29807 0.0
C346 C 0.21682 0.61858 0.24265 0.0
C347 C 0.22287 0.64576 0.20075 0.0
C348 C 0.21942 0.67832 0.21543 0.0
C349 C 0.20878 0.68307 0.2713 0.0
C350 C 0.20433 0.65551 0.31323 0.0
H351 H 0.50801 0.14368 0.81517 0.0
H352 H 0.54721 0.26734 0.81222 0.0
H353 H 0.61621 0.2824 0.80788 0.0
H354 H 0.58561 0.15165 0.90501 0.0
H355 H 0.58886 0.11316 0.86887 0.0
H356 H 0.54296 0.11258 0.87087 0.0
H357 H 0.5393 0.10897 0.76095 0.0
H358 H 0.58511 0.10941 0.7586 0.0
H359 H 0.57953 0.14549 0.71994 0.0
H360 H 0.68125 0.28308 0.79917 0.0
H361 H 0.73595 0.2694 0.79287 0.0
H362 H 0.65359 0.14561 0.8073 0.0
C363 C 0.53113 0.17394 0.81328 0.0
C364 C 0.52233 0.20439 0.81332 0.0
C365 C 0.55337 0.24362 0.81202 0.0
C366 C 0.59259 0.25239 0.80949 0.0
C367 C 0.60024 0.22157 0.80926 0.0
C368 C 0.57029 0.18315 0.81169 0.0
C369 C 0.58606 0.15531 0.81205 0.0
C370 C 0.57523 0.1318 0.8675 0.0
C371 C 0.57165 0.12821 0.75977 0.0
C372 C 0.62961 0.18394 0.80888 0.0
C373 C 0.63731 0.22204 0.80688 0.0
C374 C 0.67546 0.25335 0.80137 0.0
C375 C 0.70637 0.24541 0.79776 0.0
C376 C 0.69907 0.20663 0.80048 0.0
C377 C 0.66013 0.17564 0.80636 0.0
H378 H 0.32569 0.53656 0.36929 0.0
H379 H 0.28544 0.51995 0.19482 0.0
H380 H 0.33619 0.58766 0.17301 0.0
H381 H 0.35838 0.64605 0.37764 0.0
H382 H 0.39977 0.65551 0.42125 0.0
H383 H 0.35463 0.60948 0.42661 0.0
H384 H 0.39254 0.57301 0.40635 0.0
H385 H 0.43753 0.61868 0.40021 0.0
H386 H 0.4214 0.58394 0.34251 0.0
H387 H 0.39911 0.64996 0.16495 0.0
H388 H 0.46724 0.70277 0.17151 0.0
H389 H 0.46617 0.68302 0.35314 0.0
C390 C 0.3265 0.54783 0.3272 0.0
C391 C 0.30162 0.52308 0.28373 0.0
C392 C 0.3043 0.53841 0.22866 0.0
C393 C 0.33289 0.57693 0.216 0.0
C394 C 0.35836 0.60001 0.25903 0.0
C395 C 0.35501 0.58633 0.31388 0.0
C396 C 0.38896 0.61535 0.35044 0.0
C397 C 0.37457 0.63262 0.39673 0.0
C398 C 0.41141 0.59662 0.37635 0.0
C399 C 0.41341 0.6459 0.30656 0.0
C400 C 0.39477 0.63694 0.25448 0.0
C401 C 0.41347 0.65805 0.20593 0.0
C402 C 0.45246 0.68841 0.21031 0.0
C403 C 0.47274 0.69775 0.26302 0.0
C404 C 0.45207 0.67683 0.31201 0.0
H405 H 0.79353 0.3283 0.78977 0.0
H406 H 0.91928 0.37563 0.78573 0.0
H407 H 0.92961 0.44225 0.78543 0.0
H408 H 0.7931 0.40198 0.69655 0.0
H409 H 0.75458 0.4038 0.73514 0.0
H410 H 0.75657 0.35934 0.73344 0.0
H411 H 0.75677 0.35828 0.84319 0.0
H412 H 0.75508 0.40287 0.8454 0.0
H413 H 0.79373 0.40002 0.88173 0.0
H414 H 0.92727 0.50277 0.79179 0.0
H415 H 0.91228 0.55601 0.79601 0.0
H416 H 0.78783 0.47155 0.79172 0.0
C417 C 0.8231 0.35271 0.78828 0.0
C418 C 0.85558 0.3468 0.78718 0.0
C419 C 0.89398 0.37947 0.78547 0.0
C420 C 0.90016 0.41742 0.78573 0.0
C421 C 0.86764 0.42226 0.78725 0.0
C422 C 0.82982 0.39098 0.78773 0.0
C423 C 0.80021 0.40481 0.78912 0.0
C424 C 0.77461 0.39171 0.73534 0.0
C425 C 0.77497 0.39065 0.84309 0.0
C426 C 0.82751 0.44873 0.79019 0.0
C427 C 0.86623 0.45786 0.7895 0.0
C428 C 0.89712 0.49613 0.79202 0.0
C429 C 0.88832 0.52608 0.79483 0.0
C430 C 0.849 0.51769 0.79471 0.0
C431 C 0.81811 0.47853 0.79201 0.0
H432 H 0.33338 0.77765 0.27235 0.0
H433 H 0.34833 0.84852 0.42267 0.0
H434 H 0.40698 0.8465 0.44744 0.0
H435 H 0.37904 0.72192 0.32921 0.0
H436 H 0.40375 0.72545 0.26327 0.0
H437 H 0.35725 0.72378 0.26291 0.0
H438 H 0.38834 0.78845 0.20609 0.0
H439 H 0.43473 0.79013 0.20649 0.0
H440 H 0.43122 0.83083 0.23394 0.0
H441 H 0.46773 0.84343 0.45296 0.0
H442 H 0.52982 0.84491 0.4327 0.0
H443 H 0.48215 0.78471 0.273 0.0
C444 C 0.34848 0.79264 0.31077 0.0
C445 C 0.33463 0.81259 0.34569 0.0
C446 C 0.35623 0.83145 0.39569 0.0
C447 C 0.39028 0.83085 0.41026 0.0
C448 C 0.40333 0.8119 0.37424 0.0
C449 C 0.3834 0.79341 0.32519 0.0
C450 C 0.4068 0.77991 0.29004 0.0
C451 C 0.38542 0.7351 0.28614 0.0
C452 C 0.41581 0.79846 0.23064 0.0
C453 C 0.44367 0.79546 0.32585 0.0
C454 C 0.44028 0.81251 0.37525 0.0
C455 C 0.47063 0.82985 0.4147 0.0
C456 C 0.50572 0.8305 0.40294 0.0
C457 C 0.51053 0.81475 0.35158 0.0
C458 C 0.47898 0.79665 0.31277 0.0
H459 H 0.53732 0.34731 0.85158 0.0
H460 H 0.54041 0.32033 0.67307 0.0
H461 H 0.60642 0.37703 0.66524 0.0
H462 H 0.57951 0.44797 0.83164 0.0
H463 H 0.60707 0.46201 0.897 0.0
H464 H 0.56259 0.41558 0.89175 0.0
H465 H 0.60026 0.38053 0.92153 0.0
H466 H 0.64497 0.42696 0.92675 0.0
H467 H 0.6429 0.38895 0.8819 0.0
H468 H 0.6694 0.44028 0.67297 0.0
H469 H 0.72329 0.50671 0.69541 0.0
H470 H 0.67846 0.49586 0.86669 0.0
C471 C 0.5518 0.35297 0.81083 0.0
C472 C 0.53317 0.32842 0.76325 0.0
C473 C 0.55386 0.3374 0.71095 0.0
C474 C 0.59155 0.36995 0.7058 0.0
C475 C 0.60853 0.39376 0.7531 0.0
C476 C 0.58935 0.38578 0.80464 0.0
C477 C 0.6127 0.41811 0.84738 0.0
C478 C 0.58906 0.43703 0.86813 0.0
C479 C 0.626 0.40271 0.89735 0.0
C480 C 0.64731 0.44605 0.81119 0.0
C481 C 0.64462 0.43105 0.75722 0.0
C482 C 0.67197 0.4522 0.71522 0.0
C483 C 0.70237 0.49 0.72826 0.0
C484 C 0.70512 0.50656 0.78272 0.0
C485 C 0.67759 0.48381 0.82499 0.0
H486 H 0.13847 0.12543 0.37353 0.0
H487 H 0.14925 0.16824 0.20205 0.0
H488 H 0.12514 0.10207 0.16427 0.0
H489 H 0.18365 0.07796 0.34831 0.0
H490 H 0.15633 0.03626 0.39352 0.0
H491 H 0.15738 0.08103 0.40903 0.0
H492 H 0.08077 0.04539 0.40488 0.0
H493 H 0.08106 1.00058 0.3922 0.0
H494 H 0.0558 0.01536 0.34383 0.0
H495 H 0.11779 0.03902 0.1436 0.0
H496 H 0.13592 0.98786 0.14174 0.0
H497 H 0.13419 0.98512 0.32559 0.0
C498 C 0.13392 0.12009 0.32828 0.0
C499 C 0.14439 0.15116 0.29054 0.0
C500 C 0.14024 0.14425 0.23141 0.0
C501 C 0.12618 0.10672 0.2097 0.0
C502 C 0.11731 0.07656 0.24768 0.0
C503 C 0.12111 0.0828 0.30597 0.0
C504 C 0.11983 0.04863 0.33645 0.0
C505 C 0.15648 0.06178 0.37391 0.0
C506 C 0.08211 0.02622 0.37141 0.0
C507 C 0.11917 0.02458 0.28603 0.0
C508 C 0.11535 0.03992 0.23541 0.0
C509 C 0.11963 0.02599 0.18291 0.0
C510 C 0.13005 0.99706 0.18216 0.0
C511 C 0.13668 0.98314 0.2336 0.0
C512 C 0.12919 0.99555 0.28583 0.0
H513 H 0.07412 0.24746 0.83832 0.0
H514 H 0.98822 0.12337 0.84676 0.0
H515 H 0.03105 0.10919 0.78843 0.0
H516 H 0.09327 0.24363 0.68839 0.0
H517 H 0.14403 0.28088 0.69505 0.0
H518 H 0.10804 0.28128 0.74172 0.0
H519 H 0.14704 0.28051 0.83004 0.0
H520 H 0.18362 0.2813 0.78372 0.0
H521 H 0.16018 0.24314 0.83566 0.0
H522 H 0.08607 0.10895 0.73365 0.0
H523 H 0.1492 0.12317 0.69274 0.0
H524 H 0.18939 0.24717 0.69942 0.0
C525 C 0.06358 0.21723 0.82761 0.0
C526 C 0.02722 0.18684 0.84739 0.0
C527 C 0.01607 0.14758 0.83358 0.0
C528 C 0.0399 0.13909 0.79929 0.0
C529 C 0.07418 0.17013 0.77772 0.0
C530 C 0.08578 0.20837 0.79118 0.0
C531 C 0.12338 0.23665 0.76181 0.0
C532 C 0.11676 0.2621 0.71922 0.0
C533 C 0.15543 0.26184 0.8054 0.0
C534 C 0.13215 0.20826 0.73164 0.0
C535 C 0.10354 0.16997 0.7413 0.0
C536 C 0.10823 0.13879 0.72454 0.0
C537 C 0.14416 0.14718 0.70071 0.0
C538 C 0.17461 0.18638 0.69363 0.0
C539 C 0.16701 0.21692 0.70508 0.0
H540 H 0.0216 0.10643 0.18402 0.0
H541 H 0.05955 0.12436 0.3594 0.0
H542 H 0.02086 0.05447 0.37645 0.0
H543 H 0.93212 0.05383 0.20743 0.0
H544 H 0.91698 0.01843 0.15063 0.0
H545 H 0.96048 0.06477 0.14299 0.0
H546 H 1.00059 0.03045 0.12368 0.0
H547 H 0.95666 0.98355 0.13142 0.0
H548 H 0.99924 0.99558 0.17389 0.0
H549 H 0.9661 0.99038 0.38473 0.0
H550 H 0.89564 0.94388 0.38728 0.0
H551 H 0.88693 0.96317 0.20832 0.0
C552 C 0.02338 0.09507 0.22492 0.0
C553 C 0.04413 0.12074 0.26997 0.0
C554 C 0.04443 0.10537 0.32388 0.0
C555 C 0.0228 0.06537 0.33383 0.0
C556 C 1.00065 0.04073 0.28961 0.0
C557 C 1.00084 0.05496 0.23581 0.0
C558 C 0.96694 0.02472 0.20055 0.0
C559 C 0.94272 0.04146 0.17401 0.0
C560 C 0.98176 1.00756 0.15467 0.0
C561 C 0.9444 0.99459 0.24579 0.0
C562 C 0.96597 1.00277 0.29537 0.0
C563 C 0.94929 0.983 0.34578 0.0
C564 C 0.90905 0.95658 0.34692 0.0
C565 C 0.8859 0.95051 0.29808 0.0
C566 C 0.90422 0.96776 0.24623 0.0
H567 H 0.90179 0.04232 0.84529 0.0
H568 H 0.94067 0.05942 0.67021 0.0
H569 H 0.95728 1.00736 0.68016 0.0
H570 H 0.97313 0.0087 0.90037 0.0
H571 H 0.93527 0.97452 0.94696 0.0
H572 H 0.93895 0.02085 0.9319 0.0
H573 H 0.86644 0.98442 0.89917 0.0
H574 H 0.86273 0.93824 0.91265 0.0
H575 H 0.85143 0.9486 0.84299 0.0
H576 H 0.95326 0.94427 0.70081 0.0
H577 H 0.92902 0.87632 0.73007 0.0
H578 H 0.89355 0.90012 0.89248 0.0
C579 C 0.91582 0.03663 0.80996 0.0
C580 C 0.92008 0.05492 0.75705 0.0
C581 C 0.93706 0.0456 0.71108 0.0
C582 C 0.94694 0.01635 0.71657 0.0
C583 C 0.94009 0.99715 0.76847 0.0
C584 C 0.92556 1.00745 0.8148 0.0
C585 C 0.91436 0.97828 0.86251 0.0
C586 C 0.94209 0.99669 0.91345 0.0
C587 C 0.8712 0.9614 0.88026 0.0
C588 C 0.921 0.94795 0.83372 0.0
C589 C 0.93731 0.96003 0.78037 0.0
C590 C 0.94163 0.93501 0.74312 0.0
C591 C 0.92787 0.89646 0.76013 0.0
C592 C 0.90986 0.88326 0.81374 0.0
C593 C 0.90754 0.9097 0.85149 0.0
H594 H 0.84435 0.8319 0.32239 0.0
H595 H 0.8716 0.88455 0.15522 0.0
H596 H 0.94197 0.9089 0.17272 0.0
H597 H 0.93746 0.90669 0.39591 0.0
H598 H 0.93698 0.86844 0.43742 0.0
H599 H 0.89145 0.86452 0.41502 0.0
H600 H 0.87214 0.7969 0.36935 0.0
H601 H 0.91821 0.80226 0.39049 0.0
H602 H 0.90401 0.79431 0.31673 0.0
H603 H 1.00725 0.9179 0.2026 0.0
H604 H 0.05877 0.90505 0.23746 0.0
H605 H 0.988 0.84665 0.38471 0.0
C606 C 0.86504 0.8488 0.28945 0.0
C607 C 0.85244 0.85613 0.23735 0.0
C608 C 0.8806 0.87875 0.19568 0.0
C609 C 0.92064 0.89295 0.20544 0.0
C610 C 0.93192 0.88474 0.25733 0.0
C611 C 0.90477 0.86323 0.29866 0.0
C612 C 0.9231 0.85366 0.34758 0.0
C613 C 0.92217 0.87458 0.4022 0.0
C614 C 0.90321 0.80918 0.35647 0.0
C615 C 0.96435 0.87062 0.32559 0.0
C616 C 0.9694 0.88969 0.27443 0.0
C617 C 1.0039 0.90384 0.24317 0.0
C618 C 0.03306 0.89657 0.26334 0.0
C619 C 0.02707 0.87491 0.31369 0.0
C620 C 0.99319 0.8635 0.34631 0.0
H621 H 0.12434 0.02326 0.86331 0.0
H622 H 0.16865 0.07113 0.69674 0.0
H623 H 0.10721 0.02083 0.65335 0.0
H624 H 0.09608 0.93465 0.82983 0.0
H625 H 0.05207 0.90983 0.87182 0.0
H626 H 0.09012 0.95742 0.89262 0.0
H627 H 0.04093 0.98225 0.89137 0.0
H628 H 1.00199 0.93483 0.86921 0.0
H629 H 0.01343 0.97744 0.82793 0.0
H630 H 0.05091 0.95669 0.62565 0.0
H631 H 1.00624 0.88518 0.61738 0.0
H632 H 1.00398 0.87593 0.80067 0.0
C633 C 0.12028 0.02403 0.81797 0.0
C634 C 0.15103 0.05113 0.78352 0.0
C635 C 0.1451 0.0512 0.72423 0.0
C636 C 0.1102 0.02261 0.69911 0.0
C637 C 0.08158 0.99419 0.73382 0.0
C638 C 0.08606 0.99504 0.79231 0.0
C639 C 0.0557 0.95717 0.81902 0.0
C640 C 0.07466 0.93871 0.85534 0.0
C641 C 0.02626 0.96328 0.85394 0.0
C642 C 0.03666 0.93351 0.76615 0.0
C643 C 0.05024 0.95581 0.71758 0.0
C644 C 0.03932 0.93915 0.66347 0.0
C645 C 0.01435 0.89861 0.65905 0.0
C646 C 1.00203 0.87536 0.70842 0.0
C647 C 0.01283 0.8932 0.76234 0.0
H648 H 0.24784 0.27262 0.17954 0.0
H649 H 0.19139 0.31898 0.07317 0.0
H650 H 0.21546 0.30106 0.98758 0.0
H651 H 0.33364 0.29969 0.0915 0.0
H652 H 0.33409 0.25499 0.10328 0.0
H653 H 0.31408 0.27291 0.15645 0.0
H654 H 0.24876 0.20729 0.154 0.0
H655 H 0.2686 0.18909 0.10094 0.0
H656 H 0.2236 0.18893 0.08732 0.0
H657 H 0.24779 0.27929 0.91132 0.0
H658 H 0.27954 0.25122 0.85293 0.0
H659 H 0.31169 0.21319 1.0057 0.0
C660 C 0.24084 0.27942 0.13828 0.0
C661 C 0.21791 0.29814 0.13403 0.0
C662 C 0.20892 0.30519 0.07852 0.0
C663 C 0.22262 0.29505 1.02928 0.0
C664 C 0.245 0.27679 1.03493 0.0
C665 C 0.25359 0.26849 0.08816 0.0
C666 C 0.2764 0.24666 0.08206 0.0
C667 C 0.31697 0.26995 0.11 0.0
C668 C 0.25295 0.20555 0.1076 0.0
C669 C 0.27998 0.2446 1.0173 0.0
C670 C 0.26186 0.26252 0.9911 0.0
C671 C 0.26185 0.26513 0.93182 0.0
C672 C 0.28034 0.24908 0.89862 0.0
C673 C 0.29872 0.22972 0.92355 0.0
C674 C 0.2982 0.22761 0.98437 0.0
H675 H 0.91948 0.20689 0.58882 0.0
H676 H 0.9894 0.24698 0.74229 0.0
H677 H 0.04961 0.27719 0.68485 0.0
H678 H 0.98551 0.18543 0.50815 0.0
H679 H 0.97769 0.20274 0.44156 0.0
H680 H 0.93966 0.18358 0.49458 0.0
H681 H 0.93751 0.24772 0.49271 0.0
H682 H 0.97549 0.26704 0.43965 0.0
H683 H 0.98188 0.29356 0.50493 0.0
H684 H 0.10448 0.30263 0.60884 0.0
H685 H 0.14666 0.32282 0.52332 0.0
H686 H 0.04288 0.2695 0.41693 0.0
C687 C 0.94742 0.22195 0.61053 0.0
C688 C 0.94887 0.22392 0.67129 0.0
C689 C 0.98663 0.24436 0.69668 0.0
C690 C 0.0214 0.2618 0.66399 0.0
C691 C 0.01896 0.25921 0.60473 0.0
C692 C 0.98282 0.23996 0.57812 0.0
C693 C 0.98854 0.24214 0.51353 0.0
C694 C 0.97185 0.20102 0.48795 0.0
C695 C 0.96973 0.26391 0.48608 0.0
C696 C 0.0333 0.26553 0.50801 0.0
C697 C 0.05029 0.27485 0.56127 0.0
C698 C 0.09119 0.29557 0.56709 0.0
C699 C 0.11516 0.30705 0.51789 0.0
C700 C 0.09882 0.29843 0.46237 0.0
C701 C 0.05694 0.27723 0.45815 0.0
H702 H 0.74381 0.96934 0.16924 0.0
H703 H 0.66645 0.86763 0.06798 0.0
H704 H 0.68482 0.90895 0.98231 0.0
H705 H 0.72667 0.03968 0.09384 0.0
H706 H 0.77687 0.07868 0.09823 0.0
H707 H 0.75713 0.04154 0.15215 0.0
H708 H 0.81283 0.0265 0.13384 0.0
H709 H 0.83273 0.0636 0.07986 0.0
H710 H 0.82055 0.01434 0.06296 0.0
H711 H 0.71173 0.96185 0.90585 0.0
H712 H 0.74524 0.0204 0.84584 0.0
H713 H 0.80762 0.08957 0.99362 0.0
C714 C 0.73038 0.95571 0.12916 0.0
C715 C 0.70307 0.91468 0.12631 0.0
C716 C 0.68709 0.89858 0.07224 0.0
C717 C 0.69746 0.92201 1.02298 0.0
C718 C 0.72438 0.96203 1.02728 0.0
C719 C 0.7408 0.9788 0.07904 0.0
C720 C 0.76981 0.0225 0.0714 0.0
C721 C 0.75684 0.04705 0.10597 0.0
C722 C 0.81145 0.03231 0.08801 0.0
C723 C 0.76693 0.02779 1.00749 0.0
C724 C 0.74043 0.99239 0.98305 0.0
C725 C 0.7325 0.98959 0.92485 0.0
C726 C 0.75185 0.02336 0.89082 0.0
C727 C 0.77942 0.06033 0.91405 0.0
C728 C 0.78688 0.06215 0.97376 0.0
H729 H 0.78209 0.76361 0.68384 0.0
H730 H 0.79119 0.6728 0.59368 0.0
H731 H 0.76148 0.68397 0.50892 0.0
H732 H 0.69001 0.74635 0.62046 0.0
H733 H 0.70508 0.79733 0.61437 0.0
H734 H 0.72531 0.78132 0.66961 0.0
H735 H 0.79531 0.82986 0.63469 0.0
H736 H 0.77529 0.84609 0.57947 0.0
H737 H 0.80794 0.82827 0.56152 0.0
H738 H 0.72931 0.70391 0.4327 0.0
H739 H 0.70304 0.7345 0.36919 0.0
H740 H 0.71787 0.8168 0.50263 0.0
C741 C 0.77745 0.7458 0.64644 0.0
C742 C 0.78883 0.71673 0.64645 0.0
C743 C 0.78285 0.69499 0.59564 0.0
C744 C 0.76579 0.70112 0.54695 0.0
C745 C 0.75506 0.72981 0.5482 0.0
C746 C 0.76109 0.75223 0.59638 0.0
C747 C 0.74867 0.78259 0.58475 0.0
C748 C 0.71528 0.77654 0.62469 0.0
C749 C 0.7839 0.82417 0.59046 0.0
C750 C 0.73442 0.77346 0.52297 0.0
C751 C 0.7381 0.74256 0.50316 0.0
C752 C 0.72652 0.72821 0.44798 0.0
C753 C 0.71132 0.74586 0.41195 0.0
C754 C 0.70785 0.77829 0.42994 0.0
C755 C 0.71971 0.79206 0.48686 0.0
H756 H 0.91522 0.71983 1.01077 0.0
H757 H 0.9888 0.74267 0.8623 0.0
H758 H 0.0464 0.76545 0.9237 0.0
H759 H 0.98747 0.80324 0.09563 0.0
H760 H 0.97492 0.77722 0.16196 0.0
H761 H 0.93848 0.76318 0.10695 0.0
H762 H 0.92619 0.69267 0.10936 0.0
H763 H 0.9626 0.70653 0.16435 0.0
H764 H 0.96674 0.68437 0.09965 0.0
H765 H 0.09815 0.78765 1.00071 0.0
H766 H 0.1387 0.8047 0.08738 0.0
H767 H 0.03461 0.76592 0.19051 0.0
C768 C 0.94343 0.72969 0.9911 0.0
C769 C 0.94658 0.72922 0.93046 0.0
C770 C 0.9846 0.7424 0.90773 0.0
C771 C 0.01797 0.75559 0.94262 0.0
C772 C 0.01392 0.75559 1.00149 0.0
C773 C 0.97762 0.74283 1.02589 0.0
C774 C 0.98202 0.74544 0.09089 0.0
C775 C 0.96999 0.77396 0.1153 0.0
C776 C 0.95795 0.70483 0.11764 0.0
C777 C 0.02616 0.76143 0.09883 0.0
C778 C 0.04388 0.76735 0.04637 0.0
C779 C 0.08438 0.78282 0.04195 0.0
C780 C 0.10739 0.7925 0.09182 0.0
C781 C 0.09046 0.78647 0.1467 0.0
C782 C 0.04889 0.7705 0.1497 0.0
H783 H 0.30829 0.09631 0.58286 0.0
H784 H 0.27457 0.0266 0.7363 0.0
H785 H 0.24422 0.96669 0.67858 0.0
H786 H 0.22066 0.03059 0.49989 0.0
H787 H 0.24647 0.03734 0.43396 0.0
H788 H 0.26541 0.07575 0.48658 0.0
H789 H 0.33135 0.07666 0.48692 0.0
H790 H 0.31261 0.03831 0.43424 0.0
H791 H 0.33179 0.03211 0.50034 0.0
H792 H 0.21524 0.91237 0.60441 0.0
H793 H 0.19348 0.86914 0.52019 0.0
H794 H 0.24703 0.97068 0.41093 0.0
C795 C 0.29458 0.06847 0.6044 0.0
C796 C 0.29439 0.0671 0.66525 0.0
C797 C 0.27582 0.02944 0.69052 0.0
C798 C 0.25816 0.99479 0.65778 0.0
C799 C 0.25895 0.99711 0.5986 0.0
C800 C 0.27687 0.03298 0.57186 0.0
C801 C 0.27387 0.02659 0.50717 0.0
C802 C 0.25021 0.04359 0.48031 0.0
C803 C 0.31485 0.04449 0.4806 0.0
C804 C 0.25176 0.98183 0.50203 0.0
C805 C 0.24315 0.96557 0.55557 0.0
C806 C 0.22214 0.92499 0.56238 0.0
C807 C 0.20974 0.90043 0.51387 0.0
C808 C 0.21845 0.91576 0.45798 0.0
C809 C 0.24 0.95745 0.45257 0.0
H810 H 0.68936 0.6802 0.90496 0.0
H811 H 0.73529 0.62328 1.0104 0.0
H812 H 0.68041 0.60311 0.07641 0.0
H813 H 0.6786 0.729 0.9932 0.0
H814 H 0.63242 0.72504 0.97423 0.0
H815 H 0.65934 0.71581 0.92195 0.0
H816 H 0.59938 0.6476 0.90318 0.0
H817 H 0.57209 0.65678 0.9565 0.0
H818 H 0.57669 0.61386 0.96088 0.0
H819 H 0.64204 0.61231 0.14527 0.0
H820 H 0.63521 0.65736 0.20919 0.0
H821 H 0.61152 0.7102 0.06588 0.0
C822 C 0.68663 0.66208 0.9409 0.0
C823 C 0.71654 0.65389 0.95356 0.0
C824 C 0.71279 0.63041 1.00066 0.0
C825 C 0.68118 0.61812 1.03774 0.0
C826 C 0.6536 0.62958 1.02716 0.0
C827 C 0.65564 0.65057 0.97894 0.0
C828 C 0.62984 0.66852 0.98448 0.0
C829 C 0.65143 0.71215 0.96767 0.0
C830 C 0.59227 0.64528 0.94919 0.0
C831 C 0.6207 0.66217 0.04727 0.0
C832 C 0.63101 0.63616 0.06963 0.0
C833 C 0.63303 0.63189 0.12814 0.0
C834 C 0.6294 0.65788 0.16435 0.0
C835 C 0.62419 0.68782 0.14153 0.0
C836 C 0.61591 0.68749 0.08344 0.0
H837 H 0.09889 0.7106 0.51642 0.0
H838 H 0.02161 0.66043 0.37201 0.0
H839 H 0.9711 0.61127 0.43347 0.0
H840 H 0.04302 0.60876 0.61037 0.0
H841 H 0.05298 0.63901 0.67257 0.0
H842 H 0.08932 0.6534 0.61735 0.0
H843 H 0.09258 0.71998 0.61061 0.0
H844 H 0.0566 0.70588 0.66477 0.0
H845 H 0.04827 0.72133 0.59678 0.0
H846 H 0.92332 0.59437 0.50532 0.0
H847 H 0.88732 0.60913 0.57678 0.0
H848 H 0.99124 0.66596 0.68173 0.0
C849 C 0.07192 0.68783 0.49788 0.0
C850 C 0.06342 0.68972 0.44045 0.0
C851 C 0.02837 0.65976 0.41642 0.0
C852 C 0.99962 0.63132 0.45108 0.0
C853 C 1.00665 0.63304 0.5094 0.0
C854 C 0.04285 0.65957 0.53255 0.0
C855 C 0.04031 0.66217 0.59641 0.0
C856 C 0.0574 0.63946 0.62589 0.0
C857 C 0.06051 0.70484 0.61823 0.0
C858 C 0.99628 0.64107 0.60312 0.0
C859 C 0.97742 0.62173 0.55349 0.0
C860 C 0.93757 0.60805 0.54493 0.0
C861 C 0.91738 0.61707 0.58536 0.0
C862 C 0.9371 0.63938 0.63376 0.0
C863 C 0.97586 0.64875 0.64477 0.0
H864 H 0.36858 0.09775 1.03411 0.0
H865 H 0.35387 0.0248 0.88798 0.0
H866 H 0.36238 0.97949 0.94854 0.0
H867 H 0.43377 0.06399 0.12271 0.0
H868 H 0.41 0.06662 0.1866 0.0
H869 H 0.42158 0.1019 0.13091 0.0
H870 H 0.34908 0.08467 0.12782 0.0
H871 H 0.33764 0.05003 0.18308 0.0
H872 H 0.31128 0.03454 0.11667 0.0
H873 H 0.3458 0.93251 1.02143 0.0
H874 H 0.30398 0.88959 0.09738 0.0
H875 H 0.3319 0.99039 0.20188 0.0
C876 C 0.36874 0.07295 1.01495 0.0
C877 C 0.35988 0.06421 0.95705 0.0
C878 C 0.36013 0.03169 0.93268 0.0
C879 C 0.36565 1.00612 0.96667 0.0
C880 C 0.3714 0.01373 1.02478 0.0
C881 C 0.37395 0.04701 0.04871 0.0
C882 C 0.37123 0.04423 0.11273 0.0
C883 C 0.41155 0.07075 0.13982 0.0
C884 C 0.34043 0.05383 0.1363 0.0
C885 C 0.35916 1.0017 0.11984 0.0
C886 C 0.3622 0.9854 0.06915 0.0
C887 C 0.3446 0.94506 0.06177 0.0
C888 C 0.32054 0.9208 0.1049 0.0
C889 C 0.31465 0.93712 0.15465 0.0
C890 C 0.33663 0.97763 0.16413 0.0
H891 H 0.37493 0.33165 0.65841 0.0
H892 H 0.41367 0.26963 0.54897 0.0
H893 H 0.41811 0.31142 0.46901 0.0
H894 H 0.30804 0.32276 0.58121 0.0
H895 H 0.31032 0.36902 0.5915 0.0
H896 H 0.32988 0.35155 0.6444 0.0
H897 H 0.39728 0.41479 0.63731 0.0
H898 H 0.3776 0.43293 0.5842 0.0
H899 H 0.42114 0.4305 0.5694 0.0
H900 H 0.39622 0.33985 0.398 0.0
H901 H 0.34644 0.34631 0.34454 0.0
H902 H 0.31523 0.38618 0.49664 0.0
C903 C 0.38637 0.32841 0.61823 0.0
C904 C 0.39374 0.29752 0.6094 0.0
C905 C 0.40785 0.29326 0.55636 0.0
C906 C 0.41083 0.31721 0.51088 0.0
C907 C 0.39937 0.345 0.51924 0.0
C908 C 0.38784 0.35107 0.57216 0.0
C909 C 0.36659 0.37387 0.56775 0.0
C910 C 0.32636 0.35298 0.59786 0.0
C911 C 0.3922 0.4155 0.59102 0.0
C912 C 0.36261 0.37429 0.504 0.0
C913 C 0.38422 0.36023 0.47671 0.0
C914 C 0.38017 0.35196 0.41867 0.0
C915 C 0.35158 0.35548 0.38862 0.0
C916 C 0.32685 0.3662 0.41714 0.0
C917 C 0.33407 0.37803 0.47434 0.0
H918 H 0.051 0.35681 0.13078 0.0
H919 H 0.98128 0.27569 0.26235 0.0
H920 H 0.92153 0.26952 0.22013 0.0
H921 H 0.97319 0.39381 0.10253 0.0
H922 H 0.98609 0.39831 1.0284 0.0
H923 H 0.02323 0.41104 0.08205 0.0
H924 H 0.0424 0.36359 1.03603 0.0
H925 H 1.00603 0.35124 0.98281 0.0
H926 H 1.00525 0.31312 1.02548 0.0
H927 H 0.87283 0.25032 0.14762 0.0
H928 H 0.84353 0.22101 0.05558 0.0
H929 H 0.9397 0.31801 0.96943 0.0
C930 C 0.02311 0.33911 0.15161 0.0
C931 C 0.02023 0.31613 0.1986 0.0
C932 C 0.98383 0.29334 0.22581 0.0
C933 C 0.94979 0.29011 0.2025 0.0
C934 C 0.95289 0.31068 0.15296 0.0
C935 C 0.98899 0.336 0.12886 0.0
C936 C 0.98435 0.34822 0.07003 0.0
C937 C 0.99215 0.39033 0.07085 0.0
C938 C 1.01098 0.34362 1.02612 0.0
C939 C 0.94127 0.31961 0.06044 0.0
C940 C 0.92296 0.30017 0.11005 0.0
C941 C 0.88625 0.26619 0.10905 0.0
C942 C 0.86979 0.24949 0.05646 0.0
C943 C 0.89015 0.26703 1.00595 0.0
C944 C 0.92395 0.30422 1.00798 0.0
H945 H 0.76255 0.12174 0.54226 0.0
H946 H 0.68097 0.0481 0.6708 0.0
H947 H 0.63488 1.00705 0.59707 0.0
H948 H 0.67696 0.08729 0.41683 0.0
H949 H 0.71315 0.09057 0.36699 0.0
H950 H 0.72682 0.12682 0.42231 0.0
H951 H 0.78145 0.1134 0.45408 0.0
H952 H 0.76784 0.07729 0.40006 0.0
H953 H 0.76898 0.06435 0.47316 0.0
H954 H 0.61768 0.95983 0.52569 0.0
H955 H 0.62975 0.91606 0.46627 0.0
H956 H 0.72034 0.015 0.37576 0.0
C957 C 0.73395 0.09808 0.55411 0.0
C958 C 0.72541 0.08714 0.6113 0.0
C959 C 0.6882 0.05628 0.62671 0.0
C960 C 0.66156 0.03318 0.58491 0.0
C961 C 0.67281 0.04117 0.52809 0.0
C962 C 0.7077 0.07406 0.51227 0.0
C963 C 0.7182 0.07068 0.45142 0.0
C964 C 0.70815 0.09528 0.41208 0.0
C965 C 0.76162 0.08197 0.44448 0.0
C966 C 0.69019 0.02767 0.4415 0.0
C967 C 0.66199 0.0121 0.48391 0.0
C968 C 0.63863 0.97186 0.49137 0.0
C969 C 0.64619 0.94717 0.45825 0.0
C970 C 0.67658 0.9628 0.41782 0.0
C971 C 0.69688 1.003 0.4066 0.0
loop_
_geom_bond_atom_site_label_1
_geom_bond_atom_site_label_2
_geom_bond_distance
_geom_bond_site_symmetry_2
_ccdc_geom_bond_type
Cd0 N3 2.334 . S
Cd0 N29 2.304 . S
Cd0 O36 2.268 . S
Cd0 O39 2.273 . S
Cd0 O40 2.417 . S
Cd0 O41 2.330 . S
Cd1 N16 2.304 . S
Cd1 N20 2.334 . S
Cd1 O37 2.273 . S
Cd1 O38 2.268 . S
Cd1 O42 2.417 . S
Cd1 O43 2.330 . S
C2 N3 1.332 . S
C2 C6 1.381 . S
C2 H8 0.931 . S
N3 Cd0 2.334 . S
N3 C2 1.332 . S
N3 C7 1.328 . S
C4 C5 1.396 . S
C4 C7 1.378 . S
C4 H46 0.931 . S
C5 C4 1.396 . S
C5 C6 1.382 . S
C6 C2 1.381 . S
C6 C5 1.382 . S
C6 H47 0.930 . S
C7 N3 1.328 . S
C7 C4 1.378 . S
C7 H9 0.930 . S
H8 C2 0.931 . S
H9 C7 0.930 . S
C10 O36 1.238 . S
C10 O37 1.253 . S
C11 C12 1.379 . S
C11 N16 1.337 . S
C11 H17 0.929 . S
C12 C11 1.379 . S
C12 C13 1.380 . S
C12 H48 0.929 . S
C13 C12 1.380 . S
C13 C14 1.399 . S
C14 C13 1.399 . S
C14 C15 1.376 . S
C14 H49 0.931 . S
C15 C14 1.376 . S
C15 N16 1.338 . S
C15 H18 0.930 . S
N16 Cd1 2.304 . S
N16 C11 1.337 . S
N16 C15 1.338 . S
H17 C11 0.929 . S
H18 C15 0.930 . S
C19 N20 1.332 . S
C19 C23 1.381 . S
C19 H25 0.931 . S
N20 Cd1 2.334 . S
N20 C19 1.332 . S
N20 C24 1.328 . S
C21 C22 1.396 . S
C21 C24 1.378 . S
C21 H50 0.931 . S
C22 C21 1.396 . S
C22 C23 1.382 . S
C23 C19 1.381 . S
C23 C22 1.382 . S
C23 H51 0.930 . S
C24 N20 1.328 . S
C24 C21 1.378 . S
C24 H26 0.930 . S
H25 C19 0.931 . S
H26 C24 0.930 . S
C27 O38 1.238 . S
C27 O39 1.253 . S
C28 O40 1.239 . S
C28 O41 1.230 . S
N29 Cd0 2.304 . S
N29 C30 1.337 . S
N29 C34 1.338 . S
C30 N29 1.337 . S
C30 C31 1.379 . S
C30 H44 0.929 . S
C31 C30 1.379 . S
C31 C32 1.380 . S
C31 H52 0.929 . S
C32 C31 1.380 . S
C32 C33 1.399 . S
C33 C32 1.399 . S
C33 C34 1.376 . S
C33 H53 0.931 . S
C34 N29 1.338 . S
C34 C33 1.376 . S
C34 H45 0.930 . S
C35 O42 1.239 . S
C35 O43 1.230 . S
O36 Cd0 2.268 . S
O36 C10 1.238 . S
O37 Cd1 2.273 . S
O37 C10 1.253 . S
O38 Cd1 2.268 . S
O38 C27 1.238 . S
O39 Cd0 2.273 . S
O39 C27 1.253 . S
O40 Cd0 2.417 . S
O40 C28 1.239 . S
O41 Cd0 2.330 . S
O41 C28 1.230 . S
O42 Cd1 2.417 . S
O42 C35 1.239 . S
O43 Cd1 2.330 . S
O43 C35 1.230 . S
H44 C30 0.929 . S
H45 C34 0.930 . S
H46 C4 0.931 . S
H47 C6 0.930 . S
H48 C12 0.929 . S
H49 C14 0.931 . S
H50 C21 0.931 . S
H51 C23 0.930 . S
H52 C31 0.929 . S
H53 C33 0.931 . S
Cd54 N57 2.334 . S
Cd54 N83 2.304 . S
Cd54 O90 2.268 . S
Cd54 O93 2.273 . S
Cd54 O94 2.417 . S
Cd54 O95 2.330 . S
Cd55 N70 2.304 . S
Cd55 N74 2.334 . S
Cd55 O91 2.273 . S
Cd55 O92 2.268 . S
Cd55 O96 2.417 . S
Cd55 O97 2.330 . S
C56 N57 1.332 . S
C56 C60 1.381 . S
C56 H62 0.931 . S
N57 Cd54 2.334 . S
N57 C56 1.332 . S
N57 C61 1.328 . S
C58 C59 1.396 . S
C58 C61 1.378 . S
C58 H100 0.931 . S
C59 C58 1.396 . S
C59 C60 1.382 . S
C60 C56 1.381 . S
C60 C59 1.382 . S
C60 H101 0.930 . S
C61 N57 1.328 . S
C61 C58 1.378 . S
C61 H63 0.930 . S
H62 C56 0.931 . S
H63 C61 0.930 . S
C64 O90 1.238 . S
C64 O91 1.253 . S
C65 C66 1.379 . S
C65 N70 1.337 . S
C65 H71 0.929 . S
C66 C65 1.379 . S
C66 C67 1.380 . S
C66 H102 0.929 . S
C67 C66 1.380 . S
C67 C68 1.399 . S
C68 C67 1.399 . S
C68 C69 1.376 . S
C68 H103 0.931 . S
C69 C68 1.376 . S
C69 N70 1.338 . S
C69 H72 0.930 . S
N70 Cd55 2.304 . S
N70 C65 1.337 . S
N70 C69 1.338 . S
H71 C65 0.929 . S
H72 C69 0.930 . S
C73 N74 1.332 . S
C73 C77 1.381 . S
C73 H79 0.931 . S
N74 Cd55 2.334 . S
N74 C73 1.332 . S
N74 C78 1.328 . S
C75 C76 1.396 . S
C75 C78 1.378 . S
C75 H104 0.931 . S
C76 C75 1.396 . S
C76 C77 1.382 . S
C77 C73 1.381 . S
C77 C76 1.382 . S
C77 H105 0.930 . S
C78 N74 1.328 . S
C78 C75 1.378 . S
C78 H80 0.930 . S
H79 C73 0.931 . S
H80 C78 0.930 . S
C81 O92 1.238 . S
C81 O93 1.253 . S
C82 O94 1.239 . S
C82 O95 1.230 . S
N83 Cd54 2.304 . S
N83 C84 1.337 . S
N83 C88 1.338 . S
C84 N83 1.337 . S
C84 C85 1.379 . S
C84 H98 0.929 . S
C85 C84 1.379 . S
C85 C86 1.380 . S
C85 H106 0.929 . S
C86 C85 1.380 . S
C86 C87 1.399 . S
C87 C86 1.399 . S
C87 C88 1.376 . S
C87 H107 0.931 . S
C88 N83 1.338 . S
C88 C87 1.376 . S
C88 H99 0.930 . S
C89 O96 1.239 . S
C89 O97 1.230 . S
O90 Cd54 2.268 . S
O90 C64 1.238 . S
O91 Cd55 2.273 . S
O91 C64 1.253 . S
O92 Cd55 2.268 . S
O92 C81 1.238 . S
O93 Cd54 2.273 . S
O93 C81 1.253 . S
O94 Cd54 2.417 . S
O94 C82 1.239 . S
O95 Cd54 2.330 . S
O95 C82 1.230 . S
O96 Cd55 2.417 . S
O96 C89 1.239 . S
O97 Cd55 2.330 . S
O97 C89 1.230 . S
H98 C84 0.929 . S
H99 C88 0.930 . S
H100 C58 0.931 . S
H101 C60 0.930 . S
H102 C66 0.929 . S
H103 C68 0.931 . S
H104 C75 0.931 . S
H105 C77 0.930 . S
H106 C85 0.929 . S
H107 C87 0.931 . S
Cd108 N111 2.334 . S
Cd108 N137 2.304 . S
Cd108 O144 2.268 . S
Cd108 O147 2.273 . S
Cd108 O148 2.417 . S
Cd108 O149 2.330 . S
Cd109 N124 2.304 . S
Cd109 N128 2.334 . S
Cd109 O145 2.273 . S
Cd109 O146 2.268 . S
Cd109 O150 2.417 . S
Cd109 O151 2.330 . S
C110 N111 1.332 . S
C110 C114 1.381 . S
C110 H116 0.931 . S
N111 Cd108 2.334 . S
N111 C110 1.332 . S
N111 C115 1.328 . S
C112 C113 1.396 . S
C112 C115 1.378 . S
C112 H154 0.931 . S
C113 C112 1.396 . S
C113 C114 1.382 . S
C114 C110 1.381 . S
C114 C113 1.382 . S
C114 H155 0.930 . S
C115 N111 1.328 . S
C115 C112 1.378 . S
C115 H117 0.930 . S
H116 C110 0.931 . S
H117 C115 0.930 . S
C118 O144 1.238 . S
C118 O145 1.253 . S
C119 C120 1.379 . S
C119 N124 1.337 . S
C119 H125 0.929 . S
C120 C119 1.379 . S
C120 C121 1.380 . S
C120 H156 0.929 . S
C121 C120 1.380 . S
C121 C122 1.399 . S
C122 C121 1.399 . S
C122 C123 1.376 . S
C122 H157 0.931 . S
C123 C122 1.376 . S
C123 N124 1.338 . S
C123 H126 0.930 . S
N124 Cd109 2.304 . S
N124 C119 1.337 . S
N124 C123 1.338 . S
H125 C119 0.929 . S
H126 C123 0.930 . S
C127 N128 1.332 . S
C127 C131 1.381 . S
C127 H133 0.931 . S
N128 Cd109 2.334 . S
N128 C127 1.332 . S
N128 C132 1.328 . S
C129 C130 1.396 . S
C129 C132 1.378 . S
C129 H158 0.931 . S
C130 C129 1.396 . S
C130 C131 1.382 . S
C131 C127 1.381 . S
C131 C130 1.382 . S
C131 H159 0.930 . S
C132 N128 1.328 . S
C132 C129 1.378 . S
C132 H134 0.930 . S
H133 C127 0.931 . S
H134 C132 0.930 . S
C135 O146 1.238 . S
C135 O147 1.253 . S
C136 O148 1.239 . S
C136 O149 1.230 . S
N137 Cd108 2.304 . S
N137 C138 1.337 . S
N137 C142 1.338 . S
C138 N137 1.337 . S
C138 C139 1.379 . S
C138 H152 0.929 . S
C139 C138 1.379 . S
C139 C140 1.380 . S
C139 H160 0.929 . S
C140 C139 1.380 . S
C140 C141 1.399 . S
C141 C140 1.399 . S
C141 C142 1.376 . S
C141 H161 0.931 . S
C142 N137 1.338 . S
C142 C141 1.376 . S
C142 H153 0.930 . S
C143 O150 1.239 . S
C143 O151 1.230 . S
O144 Cd108 2.268 . S
O144 C118 1.238 . S
O145 Cd109 2.273 . S
O145 C118 1.253 . S
O146 Cd109 2.268 . S
O146 C135 1.238 . S
O147 Cd108 2.273 . S
O147 C135 1.253 . S
O148 Cd108 2.417 . S
O148 C136 1.239 . S
O149 Cd108 2.330 . S
O149 C136 1.230 . S
O150 Cd109 2.417 . S
O150 C143 1.239 . S
O151 Cd109 2.330 . S
O151 C143 1.230 . S
H152 C138 0.929 . S
H153 C142 0.930 . S
H154 C112 0.931 . S
H155 C114 0.930 . S
H156 C120 0.929 . S
H157 C122 0.931 . S
H158 C129 0.931 . S
H159 C131 0.930 . S
H160 C139 0.929 . S
H161 C141 0.931 . S
Cd162 N165 2.334 . S
Cd162 N191 2.304 . S
Cd162 O198 2.268 . S
Cd162 O201 2.273 . S
Cd162 O202 2.417 . S
Cd162 O203 2.330 . S
Cd163 N178 2.304 . S
Cd163 N182 2.334 . S
Cd163 O199 2.273 . S
Cd163 O200 2.268 . S
Cd163 O204 2.417 . S
Cd163 O205 2.330 . S
C164 N165 1.332 . S
C164 C168 1.381 . S
C164 H170 0.931 . S
N165 Cd162 2.334 . S
N165 C164 1.332 . S
N165 C169 1.328 . S
C166 C167 1.396 . S
C166 C169 1.378 . S
C166 H208 0.931 . S
C167 C166 1.396 . S
C167 C168 1.382 . S
C168 C164 1.381 . S
C168 C167 1.382 . S
C168 H209 0.930 . S
C169 N165 1.328 . S
C169 C166 1.378 . S
C169 H171 0.930 . S
H170 C164 0.931 . S
H171 C169 0.930 . S
C172 O198 1.238 . S
C172 O199 1.253 . S
C173 C174 1.379 . S
C173 N178 1.337 . S
C173 H179 0.929 . S
C174 C173 1.379 . S
C174 C175 1.380 . S
C174 H210 0.929 . S
C175 C174 1.380 . S
C175 C176 1.399 . S
C176 C175 1.399 . S
C176 C177 1.376 . S
C176 H211 0.931 . S
C177 C176 1.376 . S
C177 N178 1.338 . S
C177 H180 0.930 . S
N178 Cd163 2.304 . S
N178 C173 1.337 . S
N178 C177 1.338 . S
H179 C173 0.929 . S
H180 C177 0.930 . S
C181 N182 1.332 . S
C181 C185 1.381 . S
C181 H187 0.931 . S
N182 Cd163 2.334 . S
N182 C181 1.332 . S
N182 C186 1.328 . S
C183 C184 1.396 . S
C183 C186 1.378 . S
C183 H212 0.931 . S
C184 C183 1.396 . S
C184 C185 1.382 . S
C185 C181 1.381 . S
C185 C184 1.382 . S
C185 H213 0.930 . S
C186 N182 1.328 . S
C186 C183 1.378 . S
C186 H188 0.930 . S
H187 C181 0.931 . S
H188 C186 0.930 . S
C189 O200 1.238 . S
C189 O201 1.253 . S
C190 O202 1.239 . S
C190 O203 1.230 . S
N191 Cd162 2.304 . S
N191 C192 1.337 . S
N191 C196 1.338 . S
C192 N191 1.337 . S
C192 C193 1.379 . S
C192 H206 0.929 . S
C193 C192 1.379 . S
C193 C194 1.380 . S
C193 H214 0.929 . S
C194 C193 1.380 . S
C194 C195 1.399 . S
C195 C194 1.399 . S
C195 C196 1.376 . S
C195 H215 0.931 . S
C196 N191 1.338 . S
C196 C195 1.376 . S
C196 H207 0.930 . S
C197 O204 1.239 . S
C197 O205 1.230 . S
O198 Cd162 2.268 . S
O198 C172 1.238 . S
O199 Cd163 2.273 . S
O199 C172 1.253 . S
O200 Cd163 2.268 . S
O200 C189 1.238 . S
O201 Cd162 2.273 . S
O201 C189 1.253 . S
O202 Cd162 2.417 . S
O202 C190 1.239 . S
O203 Cd162 2.330 . S
O203 C190 1.230 . S
O204 Cd163 2.417 . S
O204 C197 1.239 . S
O205 Cd163 2.330 . S
O205 C197 1.230 . S
H206 C192 0.929 . S
H207 C196 0.930 . S
H208 C166 0.931 . S
H209 C168 0.930 . S
H210 C174 0.929 . S
H211 C176 0.931 . S
H212 C183 0.931 . S
H213 C185 0.930 . S
H214 C193 0.929 . S
H215 C195 0.931 . S
Cd216 N219 2.334 . S
Cd216 N245 2.304 . S
Cd216 O252 2.268 . S
Cd216 O255 2.273 . S
Cd216 O256 2.417 . S
Cd216 O257 2.330 . S
Cd217 N232 2.304 . S
Cd217 N236 2.334 . S
Cd217 O253 2.273 . S
Cd217 O254 2.268 . S
Cd217 O258 2.417 . S
Cd217 O259 2.330 . S
C218 N219 1.332 . S
C218 C222 1.381 . S
C218 H224 0.931 . S
N219 Cd216 2.334 . S
N219 C218 1.332 . S
N219 C223 1.328 . S
C220 C221 1.396 . S
C220 C223 1.378 . S
C220 H262 0.931 . S
C221 C220 1.396 . S
C221 C222 1.382 . S
C222 C218 1.381 . S
C222 C221 1.382 . S
C222 H263 0.930 . S
C223 N219 1.328 . S
C223 C220 1.378 . S
C223 H225 0.930 . S
H224 C218 0.931 . S
H225 C223 0.930 . S
C226 O252 1.238 . S
C226 O253 1.253 . S
C227 C228 1.379 . S
C227 N232 1.337 . S
C227 H233 0.929 . S
C228 C227 1.379 . S
C228 C229 1.380 . S
C228 H264 0.929 . S
C229 C228 1.380 . S
C229 C230 1.399 . S
C230 C229 1.399 . S
C230 C231 1.376 . S
C230 H265 0.931 . S
C231 C230 1.376 . S
C231 N232 1.338 . S
C231 H234 0.930 . S
N232 Cd217 2.304 . S
N232 C227 1.337 . S
N232 C231 1.338 . S
H233 C227 0.929 . S
H234 C231 0.930 . S
C235 N236 1.332 . S
C235 C239 1.381 . S
C235 H241 0.931 . S
N236 Cd217 2.334 . S
N236 C235 1.332 . S
N236 C240 1.328 . S
C237 C238 1.396 . S
C237 C240 1.378 . S
C237 H266 0.931 . S
C238 C237 1.396 . S
C238 C239 1.382 . S
C239 C235 1.381 . S
C239 C238 1.382 . S
C239 H267 0.930 . S
C240 N236 1.328 . S
C240 C237 1.378 . S
C240 H242 0.930 . S
H241 C235 0.931 . S
H242 C240 0.930 . S
C243 O254 1.238 . S
C243 O255 1.253 . S
C244 O256 1.239 . S
C244 O257 1.230 . S
N245 Cd216 2.304 . S
N245 C246 1.337 . S
N245 C250 1.338 . S
C246 N245 1.337 . S
C246 C247 1.379 . S
C246 H260 0.929 . S
C247 C246 1.379 . S
C247 C248 1.380 . S
C247 H268 0.929 . S
C248 C247 1.380 . S
C248 C249 1.399 . S
C249 C248 1.399 . S
C249 C250 1.376 . S
C249 H269 0.931 . S
C250 N245 1.338 . S
C250 C249 1.376 . S
C250 H261 0.930 . S
C251 O258 1.239 . S
C251 O259 1.230 . S
O252 Cd216 2.268 . S
O252 C226 1.238 . S
O253 Cd217 2.273 . S
O253 C226 1.253 . S
O254 Cd217 2.268 . S
O254 C243 1.238 . S
O255 Cd216 2.273 . S
O255 C243 1.253 . S
O256 Cd216 2.417 . S
O256 C244 1.239 . S
O257 Cd216 2.330 . S
O257 C244 1.230 . S
O258 Cd217 2.417 . S
O258 C251 1.239 . S
O259 Cd217 2.330 . S
O259 C251 1.230 . S
H260 C246 0.929 . S
H261 C250 0.930 . S
H262 C220 0.931 . S
H263 C222 0.930 . S
H264 C228 0.929 . S
H265 C230 0.931 . S
H266 C237 0.931 . S
H267 C239 0.930 . S
H268 C247 0.929 . S
H269 C249 0.931 . S
Cd270 N273 2.334 . S
Cd270 N299 2.304 . S
Cd270 O306 2.268 . S
Cd270 O309 2.273 . S
Cd270 O310 2.417 . S
Cd270 O311 2.330 . S
Cd271 N286 2.304 . S
Cd271 N290 2.334 . S
Cd271 O307 2.273 . S
Cd271 O308 2.268 . S
Cd271 O312 2.417 . S
Cd271 O313 2.330 . S
C272 N273 1.332 . S
C272 C276 1.381 . S
C272 H278 0.931 . S
N273 Cd270 2.334 . S
N273 C272 1.332 . S
N273 C277 1.328 . S
C274 C275 1.396 . S
C274 C277 1.378 . S
C274 H316 0.931 . S
C275 C274 1.396 . S
C275 C276 1.382 . S
C276 C272 1.381 . S
C276 C275 1.382 . S
C276 H317 0.930 . S
C277 N273 1.328 . S
C277 C274 1.378 . S
C277 H279 0.930 . S
H278 C272 0.931 . S
H279 C277 0.930 . S
C280 O306 1.238 . S
C280 O307 1.253 . S
C281 C282 1.379 . S
C281 N286 1.337 . S
C281 H287 0.929 . S
C282 C281 1.379 . S
C282 C283 1.380 . S
C282 H318 0.929 . S
C283 C282 1.380 . S
C283 C284 1.399 . S
C284 C283 1.399 . S
C284 C285 1.376 . S
C284 H319 0.931 . S
C285 C284 1.376 . S
C285 N286 1.338 . S
C285 H288 0.930 . S
N286 Cd271 2.304 . S
N286 C281 1.337 . S
N286 C285 1.338 . S
H287 C281 0.929 . S
H288 C285 0.930 . S
C289 N290 1.332 . S
C289 C293 1.381 . S
C289 H295 0.931 . S
N290 Cd271 2.334 . S
N290 C289 1.332 . S
N290 C294 1.328 . S
C291 C292 1.396 . S
C291 C294 1.378 . S
C291 H320 0.931 . S
C292 C291 1.396 . S
C292 C293 1.382 . S
C293 C289 1.381 . S
C293 C292 1.382 . S
C293 H321 0.930 . S
C294 N290 1.328 . S
C294 C291 1.378 . S
C294 H296 0.930 . S
H295 C289 0.931 . S
H296 C294 0.930 . S
C297 O308 1.238 . S
C297 O309 1.253 . S
C298 O310 1.239 . S
C298 O311 1.230 . S
N299 Cd270 2.304 . S
N299 C300 1.337 . S
N299 C304 1.338 . S
C300 N299 1.337 . S
C300 C301 1.379 . S
C300 H314 0.929 . S
C301 C300 1.379 . S
C301 C302 1.380 . S
C301 H322 0.929 . S
C302 C301 1.380 . S
C302 C303 1.399 . S
C303 C302 1.399 . S
C303 C304 1.376 . S
C303 H323 0.931 . S
C304 N299 1.338 . S
C304 C303 1.376 . S
C304 H315 0.930 . S
C305 O312 1.239 . S
C305 O313 1.230 . S
O306 Cd270 2.268 . S
O306 C280 1.238 . S
O307 Cd271 2.273 . S
O307 C280 1.253 . S
O308 Cd271 2.268 . S
O308 C297 1.238 . S
O309 Cd270 2.273 . S
O309 C297 1.253 . S
O310 Cd270 2.417 . S
O310 C298 1.239 . S
O311 Cd270 2.330 . S
O311 C298 1.230 . S
O312 Cd271 2.417 . S
O312 C305 1.239 . S
O313 Cd271 2.330 . S
O313 C305 1.230 . S
H314 C300 0.929 . S
H315 C304 0.930 . S
H316 C274 0.931 . S
H317 C276 0.930 . S
H318 C282 0.929 . S
H319 C284 0.931 . S
H320 C291 0.931 . S
H321 C293 0.930 . S
H322 C301 0.929 . S
H323 C303 0.931 . S
H324 C336 0.930 . S
H325 C338 0.930 . S
H326 C339 0.930 . S
H327 C343 0.959 . S
H328 C343 0.959 . S
H329 C343 0.961 . S
H330 C344 0.960 . S
H331 C344 0.961 . S
H332 C344 0.959 . S
H333 C347 0.929 . S
H334 C348 0.931 . S
H335 C350 0.930 . S
C336 H324 0.930 . S
C336 C337 1.399 . S
C336 C341 1.399 . S
C337 C336 1.399 . S
C337 C338 1.376 . S
C338 H325 0.930 . S
C338 C337 1.376 . S
C338 C339 1.388 . S
C339 H326 0.930 . S
C339 C338 1.388 . S
C339 C340 1.390 . S
C340 C339 1.390 . S
C340 C341 1.394 . S
C340 C346 1.465 . S
C341 C336 1.399 . S
C341 C340 1.394 . S
C341 C342 1.516 . S
C342 C341 1.516 . S
C342 C343 1.502 . S
C342 C344 1.561 . S
C342 C345 1.526 . S
C343 H327 0.959 . S
C343 H328 0.959 . S
C343 H329 0.961 . S
C343 C342 1.502 . S
C344 H330 0.960 . S
C344 H331 0.961 . S
C344 H332 0.959 . S
C344 C342 1.561 . S
C345 C342 1.526 . S
C345 C346 1.396 . S
C345 C350 1.390 . S
C346 C340 1.465 . S
C346 C345 1.396 . S
C346 C347 1.399 . S
C347 H333 0.929 . S
C347 C346 1.399 . S
C347 C348 1.385 . S
C348 H334 0.931 . S
C348 C347 1.385 . S
C348 C349 1.389 . S
C349 C348 1.389 . S
C349 C350 1.387 . S
C350 H335 0.930 . S
C350 C345 1.390 . S
C350 C349 1.387 . S
H351 C363 0.930 . S
H352 C365 0.930 . S
H353 C366 0.930 . S
H354 C370 0.959 . S
H355 C370 0.959 . S
H356 C370 0.961 . S
H357 C371 0.960 . S
H358 C371 0.961 . S
H359 C371 0.959 . S
H360 C374 0.929 . S
H361 C375 0.931 . S
H362 C377 0.930 . S
C363 H351 0.930 . S
C363 C364 1.399 . S
C363 C368 1.399 . S
C364 C363 1.399 . S
C364 C365 1.376 . S
C365 H352 0.930 . S
C365 C364 1.376 . S
C365 C366 1.388 . S
C366 H353 0.930 . S
C366 C365 1.388 . S
C366 C367 1.390 . S
C367 C366 1.390 . S
C367 C368 1.394 . S
C367 C373 1.465 . S
C368 C363 1.399 . S
C368 C367 1.394 . S
C368 C369 1.516 . S
C369 C368 1.516 . S
C369 C370 1.502 . S
C369 C371 1.561 . S
C369 C372 1.526 . S
C370 H354 0.959 . S
C370 H355 0.959 . S
C370 H356 0.961 . S
C370 C369 1.502 . S
C371 H357 0.960 . S
C371 H358 0.961 . S
C371 H359 0.959 . S
C371 C369 1.561 . S
C372 C369 1.526 . S
C372 C373 1.396 . S
C372 C377 1.390 . S
C373 C367 1.465 . S
C373 C372 1.396 . S
C373 C374 1.399 . S
C374 H360 0.929 . S
C374 C373 1.399 . S
C374 C375 1.385 . S
C375 H361 0.931 . S
C375 C374 1.385 . S
C375 C376 1.389 . S
C376 C375 1.389 . S
C376 C377 1.387 . S
C377 H362 0.930 . S
C377 C372 1.390 . S
C377 C376 1.387 . S
H378 C390 0.930 . S
H379 C392 0.930 . S
H380 C393 0.930 . S
H381 C397 0.959 . S
H382 C397 0.959 . S
H383 C397 0.961 . S
H384 C398 0.960 . S
H385 C398 0.961 . S
H386 C398 0.959 . S
H387 C401 0.929 . S
H388 C402 0.931 . S
H389 C404 0.930 . S
C390 H378 0.930 . S
C390 C391 1.399 . S
C390 C395 1.399 . S
C391 C390 1.399 . S
C391 C392 1.376 . S
C392 H379 0.930 . S
C392 C391 1.376 . S
C392 C393 1.388 . S
C393 H380 0.930 . S
C393 C392 1.388 . S
C393 C394 1.390 . S
C394 C393 1.390 . S
C394 C395 1.394 . S
C394 C400 1.465 . S
C395 C390 1.399 . S
C395 C394 1.394 . S
C395 C396 1.516 . S
C396 C395 1.516 . S
C396 C397 1.502 . S
C396 C398 1.561 . S
C396 C399 1.526 . S
C397 H381 0.959 . S
C397 H382 0.959 . S
C397 H383 0.961 . S
C397 C396 1.502 . S
C398 H384 0.960 . S
C398 H385 0.961 . S
C398 H386 0.959 . S
C398 C396 1.561 . S
C399 C396 1.526 . S
C399 C400 1.396 . S
C399 C404 1.390 . S
C400 C394 1.465 . S
C400 C399 1.396 . S
C400 C401 1.399 . S
C401 H387 0.929 . S
C401 C400 1.399 . S
C401 C402 1.385 . S
C402 H388 0.931 . S
C402 C401 1.385 . S
C402 C403 1.389 . S
C403 C402 1.389 . S
C403 C404 1.387 . S
C404 H389 0.930 . S
C404 C399 1.390 . S
C404 C403 1.387 . S
H405 C417 0.930 . S
H406 C419 0.930 . S
H407 C420 0.930 . S
H408 C424 0.959 . S
H409 C424 0.959 . S
H410 C424 0.961 . S
H411 C425 0.960 . S
H412 C425 0.961 . S
H413 C425 0.959 . S
H414 C428 0.929 . S
H415 C429 0.931 . S
H416 C431 0.930 . S
C417 H405 0.930 . S
C417 C418 1.399 . S
C417 C422 1.399 . S
C418 C417 1.399 . S
C418 C419 1.376 . S
C419 H406 0.930 . S
C419 C418 1.376 . S
C419 C420 1.388 . S
C420 H407 0.930 . S
C420 C419 1.388 . S
C420 C421 1.390 . S
C421 C420 1.390 . S
C421 C422 1.394 . S
C421 C427 1.465 . S
C422 C417 1.399 . S
C422 C421 1.394 . S
C422 C423 1.516 . S
C423 C422 1.516 . S
C423 C424 1.502 . S
C423 C425 1.561 . S
C423 C426 1.526 . S
C424 H408 0.959 . S
C424 H409 0.959 . S
C424 H410 0.961 . S
C424 C423 1.502 . S
C425 H411 0.960 . S
C425 H412 0.961 . S
C425 H413 0.959 . S
C425 C423 1.561 . S
C426 C423 1.526 . S
C426 C427 1.396 . S
C426 C431 1.390 . S
C427 C421 1.465 . S
C427 C426 1.396 . S
C427 C428 1.399 . S
C428 H414 0.929 . S
C428 C427 1.399 . S
C428 C429 1.385 . S
C429 H415 0.931 . S
C429 C428 1.385 . S
C429 C430 1.389 . S
C430 C429 1.389 . S
C430 C431 1.387 . S
C431 H416 0.930 . S
C431 C426 1.390 . S
C431 C430 1.387 . S
H432 C444 0.930 . S
H433 C446 0.930 . S
H434 C447 0.930 . S
H435 C451 0.959 . S
H436 C451 0.959 . S
H437 C451 0.961 . S
H438 C452 0.960 . S
H439 C452 0.961 . S
H440 C452 0.959 . S
H441 C455 0.929 . S
H442 C456 0.931 . S
H443 C458 0.930 . S
C444 H432 0.930 . S
C444 C445 1.399 . S
C444 C449 1.399 . S
C445 C444 1.399 . S
C445 C446 1.376 . S
C446 H433 0.930 . S
C446 C445 1.376 . S
C446 C447 1.388 . S
C447 H434 0.930 . S
C447 C446 1.388 . S
C447 C448 1.390 . S
C448 C447 1.390 . S
C448 C449 1.394 . S
C448 C454 1.465 . S
C449 C444 1.399 . S
C449 C448 1.394 . S
C449 C450 1.516 . S
C450 C449 1.516 . S
C450 C451 1.502 . S
C450 C452 1.561 . S
C450 C453 1.526 . S
C451 H435 0.959 . S
C451 H436 0.959 . S
C451 H437 0.961 . S
C451 C450 1.502 . S
C452 H438 0.960 . S
C452 H439 0.961 . S
C452 H440 0.959 . S
C452 C450 1.561 . S
C453 C450 1.526 . S
C453 C454 1.396 . S
C453 C458 1.390 . S
C454 C448 1.465 . S
C454 C453 1.396 . S
C454 C455 1.399 . S
C455 H441 0.929 . S
C455 C454 1.399 . S
C455 C456 1.385 . S
C456 H442 0.931 . S
C456 C455 1.385 . S
C456 C457 1.389 . S
C457 C456 1.389 . S
C457 C458 1.387 . S
C458 H443 0.930 . S
C458 C453 1.390 . S
C458 C457 1.387 . S
H459 C471 0.930 . S
H460 C473 0.930 . S
H461 C474 0.930 . S
H462 C478 0.959 . S
H463 C478 0.959 . S
H464 C478 0.961 . S
H465 C479 0.960 . S
H466 C479 0.961 . S
H467 C479 0.959 . S
H468 C482 0.929 . S
H469 C483 0.931 . S
H470 C485 0.930 . S
C471 H459 0.930 . S
C471 C472 1.399 . S
C471 C476 1.399 . S
C472 C471 1.399 . S
C472 C473 1.376 . S
C473 H460 0.930 . S
C473 C472 1.376 . S
C473 C474 1.388 . S
C474 H461 0.930 . S
C474 C473 1.388 . S
C474 C475 1.390 . S
C475 C474 1.390 . S
C475 C476 1.394 . S
C475 C481 1.465 . S
C476 C471 1.399 . S
C476 C475 1.394 . S
C476 C477 1.516 . S
C477 C476 1.516 . S
C477 C478 1.502 . S
C477 C479 1.561 . S
C477 C480 1.526 . S
C478 H462 0.959 . S
C478 H463 0.959 . S
C478 H464 0.961 . S
C478 C477 1.502 . S
C479 H465 0.960 . S
C479 H466 0.961 . S
C479 H467 0.959 . S
C479 C477 1.561 . S
C480 C477 1.526 . S
C480 C481 1.396 . S
C480 C485 1.390 . S
C481 C475 1.465 . S
C481 C480 1.396 . S
C481 C482 1.399 . S
C482 H468 0.929 . S
C482 C481 1.399 . S
C482 C483 1.385 . S
C483 H469 0.931 . S
C483 C482 1.385 . S
C483 C484 1.389 . S
C484 C483 1.389 . S
C484 C485 1.387 . S
C485 H470 0.930 . S
C485 C480 1.390 . S
C485 C484 1.387 . S
H486 C498 0.930 . S
H487 C500 0.930 . S
H488 C501 0.930 . S
H489 C505 0.959 . S
H490 C505 0.959 . S
H491 C505 0.961 . S
H492 C506 0.960 . S
H493 C506 0.961 . S
H494 C506 0.959 . S
H495 C509 0.929 . S
H496 C510 0.931 . S
H497 C512 0.930 . S
C498 H486 0.930 . S
C498 C499 1.399 . S
C498 C503 1.399 . S
C499 C498 1.399 . S
C499 C500 1.376 . S
C500 H487 0.930 . S
C500 C499 1.376 . S
C500 C501 1.388 . S
C501 H488 0.930 . S
C501 C500 1.388 . S
C501 C502 1.390 . S
C502 C501 1.390 . S
C502 C503 1.394 . S
C502 C508 1.465 . S
C503 C498 1.399 . S
C503 C502 1.394 . S
C503 C504 1.516 . S
C504 C503 1.516 . S
C504 C505 1.502 . S
C504 C506 1.561 . S
C504 C507 1.526 . S
C505 H489 0.959 . S
C505 H490 0.959 . S
C505 H491 0.961 . S
C505 C504 1.502 . S
C506 H492 0.960 . S
C506 H493 0.961 . S
C506 H494 0.959 . S
C506 C504 1.561 . S
C507 C504 1.526 . S
C507 C508 1.396 . S
C507 C512 1.390 1_545 S
C508 C502 1.465 . S
C508 C507 1.396 . S
C508 C509 1.399 . S
C509 H495 0.929 . S
C509 C508 1.399 . S
C509 C510 1.385 1_545 S
C510 H496 0.931 . S
C510 C509 1.385 1_565 S
C510 C511 1.389 . S
C511 C510 1.389 . S
C511 C512 1.387 . S
C512 H497 0.930 . S
C512 C507 1.390 1_565 S
C512 C511 1.387 . S
H513 C525 0.930 . S
H514 C527 0.930 . S
H515 C528 0.930 . S
H516 C532 0.959 . S
H517 C532 0.959 . S
H518 C532 0.961 . S
H519 C533 0.960 . S
H520 C533 0.961 . S
H521 C533 0.959 . S
H522 C536 0.929 . S
H523 C537 0.931 . S
H524 C539 0.930 . S
C525 H513 0.930 . S
C525 C526 1.399 1_455 S
C525 C530 1.399 . S
C526 C525 1.399 1_655 S
C526 C527 1.376 . S
C527 H514 0.930 . S
C527 C526 1.376 . S
C527 C528 1.388 . S
C528 H515 0.930 . S
C528 C527 1.388 . S
C528 C529 1.390 1_655 S
C529 C528 1.390 1_455 S
C529 C530 1.394 . S
C529 C535 1.465 . S
C530 C525 1.399 . S
C530 C529 1.394 . S
C530 C531 1.516 . S
C531 C530 1.516 . S
C531 C532 1.502 . S
C531 C533 1.561 . S
C531 C534 1.526 . S
C532 H516 0.959 . S
C532 H517 0.959 . S
C532 H518 0.961 . S
C532 C531 1.502 . S
C533 H519 0.960 . S
C533 H520 0.961 . S
C533 H521 0.959 . S
C533 C531 1.561 . S
C534 C531 1.526 . S
C534 C535 1.396 . S
C534 C539 1.390 . S
C535 C529 1.465 . S
C535 C534 1.396 . S
C535 C536 1.399 . S
C536 H522 0.929 . S
C536 C535 1.399 . S
C536 C537 1.385 . S
C537 H523 0.931 . S
C537 C536 1.385 . S
C537 C538 1.389 . S
C538 C537 1.389 . S
C538 C539 1.387 . S
C539 H524 0.930 . S
C539 C534 1.390 . S
C539 C538 1.387 . S
H540 C552 0.930 . S
H541 C554 0.930 . S
H542 C555 0.930 . S
H543 C559 0.959 . S
H544 C559 0.959 . S
H545 C559 0.961 . S
H546 C560 0.960 . S
H547 C560 0.961 . S
H548 C560 0.959 . S
H549 C563 0.929 . S
H550 C564 0.931 . S
H551 C566 0.930 . S
C552 H540 0.930 . S
C552 C553 1.399 1_655 S
C552 C557 1.399 . S
C553 C552 1.399 1_455 S
C553 C554 1.376 . S
C554 H541 0.930 . S
C554 C553 1.376 . S
C554 C555 1.388 . S
C555 H542 0.930 . S
C555 C554 1.388 . S
C555 C556 1.390 1_455 S
C556 C555 1.390 1_655 S
C556 C557 1.394 . S
C556 C562 1.465 . S
C557 C552 1.399 . S
C557 C556 1.394 . S
C557 C558 1.516 . S
C558 C557 1.516 . S
C558 C559 1.502 . S
C558 C560 1.561 . S
C558 C561 1.526 . S
C559 H543 0.959 . S
C559 H544 0.959 . S
C559 H545 0.961 . S
C559 C558 1.502 . S
C560 H546 0.960 . S
C560 H547 0.961 . S
C560 H548 0.959 . S
C560 C558 1.561 . S
C561 C558 1.526 . S
C561 C562 1.396 . S
C561 C566 1.390 1_545 S
C562 C556 1.465 . S
C562 C561 1.396 . S
C562 C563 1.399 . S
C563 H549 0.929 . S
C563 C562 1.399 . S
C563 C564 1.385 1_545 S
C564 H550 0.931 . S
C564 C563 1.385 1_565 S
C564 C565 1.389 . S
C565 C564 1.389 . S
C565 C566 1.387 . S
C566 H551 0.930 . S
C566 C561 1.390 1_565 S
C566 C565 1.387 . S
H567 C579 0.930 . S
H568 C581 0.930 . S
H569 C582 0.930 . S
H570 C586 0.959 . S
H571 C586 0.959 . S
H572 C586 0.961 1_545 S
H573 C587 0.960 . S
H574 C587 0.961 . S
H575 C587 0.959 . S
H576 C590 0.929 . S
H577 C591 0.931 . S
H578 C593 0.930 . S
C579 H567 0.930 . S
C579 C580 1.399 . S
C579 C584 1.399 1_545 S
C580 C579 1.399 . S
C580 C581 1.376 1_545 S
C581 H568 0.930 . S
C581 C580 1.376 1_565 S
C581 C582 1.388 . S
C582 H569 0.930 . S
C582 C581 1.388 . S
C582 C583 1.390 . S
C583 C582 1.390 . S
C583 C584 1.394 . S
C583 C589 1.465 . S
C584 C579 1.399 1_565 S
C584 C583 1.394 . S
C584 C585 1.516 . S
C585 C584 1.516 . S
C585 C586 1.502 . S
C585 C587 1.561 . S
C585 C588 1.526 . S
C586 H570 0.959 . S
C586 H571 0.959 . S
C586 H572 0.961 1_565 S
C586 C585 1.502 . S
C587 H573 0.960 . S
C587 H574 0.961 . S
C587 H575 0.959 . S
C587 C585 1.561 . S
C588 C585 1.526 . S
C588 C589 1.396 . S
C588 C593 1.390 . S
C589 C583 1.465 . S
C589 C588 1.396 . S
C589 C590 1.399 . S
C590 H576 0.929 . S
C590 C589 1.399 . S
C590 C591 1.385 . S
C591 H577 0.931 . S
C591 C590 1.385 . S
C591 C592 1.389 . S
C592 C591 1.389 . S
C592 C593 1.387 . S
C593 H578 0.930 . S
C593 C588 1.390 . S
C593 C592 1.387 . S
H594 C606 0.930 . S
H595 C608 0.930 . S
H596 C609 0.930 . S
H597 C613 0.959 . S
H598 C613 0.959 . S
H599 C613 0.961 . S
H600 C614 0.960 . S
H601 C614 0.961 . S
H602 C614 0.959 . S
H603 C617 0.929 . S
H604 C618 0.931 . S
H605 C620 0.930 . S
C606 H594 0.930 . S
C606 C607 1.399 . S
C606 C611 1.399 . S
C607 C606 1.399 . S
C607 C608 1.376 . S
C608 H595 0.930 . S
C608 C607 1.376 . S
C608 C609 1.388 . S
C609 H596 0.930 . S
C609 C608 1.388 . S
C609 C610 1.390 . S
C610 C609 1.390 . S
C610 C611 1.394 . S
C610 C616 1.465 . S
C611 C606 1.399 . S
C611 C610 1.394 . S
C611 C612 1.516 . S
C612 C611 1.516 . S
C612 C613 1.502 . S
C612 C614 1.561 . S
C612 C615 1.526 . S
C613 H597 0.959 . S
C613 H598 0.959 . S
C613 H599 0.961 . S
C613 C612 1.502 . S
C614 H600 0.960 . S
C614 H601 0.961 . S
C614 H602 0.959 . S
C614 C612 1.561 . S
C615 C612 1.526 . S
C615 C616 1.396 . S
C615 C620 1.390 . S
C616 C610 1.465 . S
C616 C615 1.396 . S
C616 C617 1.399 1_655 S
C617 H603 0.929 . S
C617 C616 1.399 1_455 S
C617 C618 1.385 . S
C618 H604 0.931 . S
C618 C617 1.385 . S
C618 C619 1.389 . S
C619 C618 1.389 . S
C619 C620 1.387 1_455 S
C620 H605 0.930 . S
C620 C615 1.390 . S
C620 C619 1.387 1_655 S
H621 C633 0.930 . S
H622 C635 0.930 . S
H623 C636 0.930 . S
H624 C640 0.959 . S
H625 C640 0.959 . S
H626 C640 0.961 . S
H627 C641 0.960 . S
H628 C641 0.961 . S
H629 C641 0.959 . S
H630 C644 0.929 . S
H631 C645 0.931 . S
H632 C647 0.930 . S
C633 H621 0.930 . S
C633 C634 1.399 1_565 S
C633 C638 1.399 . S
C634 C633 1.399 1_545 S
C634 C635 1.376 . S
C635 H622 0.930 . S
C635 C634 1.376 . S
C635 C636 1.388 . S
C636 H623 0.930 . S
C636 C635 1.388 . S
C636 C637 1.390 1_545 S
C637 C636 1.390 1_565 S
C637 C638 1.394 . S
C637 C643 1.465 . S
C638 C633 1.399 . S
C638 C637 1.394 . S
C638 C639 1.516 . S
C639 C638 1.516 . S
C639 C640 1.502 . S
C639 C641 1.561 . S
C639 C642 1.526 . S
C640 H624 0.959 . S
C640 H625 0.959 . S
C640 H626 0.961 . S
C640 C639 1.502 . S
C641 H627 0.960 . S
C641 H628 0.961 . S
C641 H629 0.959 . S
C641 C639 1.561 . S
C642 C639 1.526 . S
C642 C643 1.396 . S
C642 C647 1.390 1_455 S
C643 C637 1.465 . S
C643 C642 1.396 . S
C643 C644 1.399 . S
C644 H630 0.929 . S
C644 C643 1.399 . S
C644 C645 1.385 1_455 S
C645 H631 0.931 . S
C645 C644 1.385 1_655 S
C645 C646 1.389 . S
C646 C645 1.389 . S
C646 C647 1.387 . S
C647 H632 0.930 . S
C647 C642 1.390 1_655 S
C647 C646 1.387 . S
H648 C660 0.930 . S
H649 C662 0.930 . S
H650 C663 0.940 . S
H651 C667 0.959 . S
H652 C667 0.959 . S
H653 C667 0.961 . S
H654 C668 0.960 1_554 S
H655 C668 0.961 . S
H656 C668 0.959 . S
H657 C671 0.929 . S
H658 C672 0.931 . S
H659 C674 0.930 . S
C660 H648 0.930 . S
C660 C661 1.399 . S
C660 C665 1.399 . S
C661 C660 1.399 . S
C661 C662 1.376 . S
C662 H649 0.930 . S
C662 C661 1.376 . S
C662 C663 1.388 . S
C663 H650 0.940 . S
C663 C662 1.388 . S
C663 C664 1.390 . S
C664 C663 1.390 . S
C664 C665 1.394 . S
C664 C670 1.465 1_554 S
C665 C660 1.399 . S
C665 C664 1.394 . S
C665 C666 1.516 . S
C666 C665 1.516 . S
C666 C667 1.502 . S
C666 C668 1.561 1_554 S
C666 C669 1.526 1_554 S
C667 H651 0.959 . S
C667 H652 0.959 . S
C667 H653 0.961 . S
C667 C666 1.502 . S
C668 H654 0.960 1_556 S
C668 H655 0.961 . S
C668 H656 0.959 . S
C668 C666 1.561 1_556 S
C669 C666 1.526 1_556 S
C669 C670 1.396 . S
C669 C674 1.390 . S
C670 C664 1.465 1_556 S
C670 C669 1.396 . S
C670 C671 1.399 . S
C671 H657 0.929 . S
C671 C670 1.399 . S
C671 C672 1.385 . S
C672 H658 0.931 . S
C672 C671 1.385 . S
C672 C673 1.389 . S
C673 C672 1.389 . S
C673 C674 1.387 . S
C674 H659 0.930 . S
C674 C669 1.390 . S
C674 C673 1.387 . S
H675 C687 0.930 . S
H676 C689 0.930 . S
H677 C690 0.930 . S
H678 C694 0.959 . S
H679 C694 0.959 1_455 S
H680 C694 0.961 . S
H681 C695 0.960 . S
H682 C695 0.961 . S
H683 C695 0.959 . S
H684 C698 0.929 . S
H685 C699 0.931 . S
H686 C701 0.930 . S
C687 H675 0.930 . S
C687 C688 1.399 . S
C687 C692 1.399 . S
C688 C687 1.399 . S
C688 C689 1.376 . S
C689 H676 0.930 . S
C689 C688 1.376 . S
C689 C690 1.388 . S
C690 H677 0.930 . S
C690 C689 1.388 . S
C690 C691 1.390 . S
C691 C690 1.390 . S
C691 C692 1.394 . S
C691 C697 1.465 1_655 S
C692 C687 1.399 . S
C692 C691 1.394 . S
C692 C693 1.516 1_655 S
C693 C692 1.516 1_455 S
C693 C694 1.502 1_455 S
C693 C695 1.561 . S
C693 C696 1.526 . S
C694 H678 0.959 . S
C694 H679 0.959 1_655 S
C694 H680 0.961 . S
C694 C693 1.502 1_655 S
C695 H681 0.960 . S
C695 H682 0.961 . S
C695 H683 0.959 . S
C695 C693 1.561 . S
C696 C693 1.526 . S
C696 C697 1.396 . S
C696 C701 1.390 . S
C697 C691 1.465 1_455 S
C697 C696 1.396 . S
C697 C698 1.399 . S
C698 H684 0.929 . S
C698 C697 1.399 . S
C698 C699 1.385 . S
C699 H685 0.931 . S
C699 C698 1.385 . S
C699 C700 1.389 . S
C700 C699 1.389 . S
C700 C701 1.387 . S
C701 H686 0.930 . S
C701 C696 1.390 . S
C701 C700 1.387 . S
H702 C714 0.930 . S
H703 C716 0.930 . S
H704 C717 0.930 1_556 S
H705 C721 0.959 . S
H706 C721 0.959 . S
H707 C721 0.961 . S
H708 C722 0.952 1_565 S
H709 C722 0.961 . S
H710 C722 0.959 1_566 S
H711 C725 0.929 1_565 S
H712 C726 0.931 . S
H713 C728 0.930 . S
C714 H702 0.930 . S
C714 C715 1.399 . S
C714 C719 1.399 . S
C715 C714 1.399 . S
C715 C716 1.376 . S
C716 H703 0.930 . S
C716 C715 1.376 . S
C716 C717 1.388 . S
C717 H704 0.930 1_554 S
C717 C716 1.388 . S
C717 C718 1.390 . S
C718 C717 1.390 . S
C718 C719 1.394 . S
C718 C724 1.465 1_564 S
C719 C714 1.399 . S
C719 C718 1.394 . S
C719 C720 1.516 1_565 S
C720 C719 1.516 1_545 S
C720 C721 1.502 . S
C720 C722 1.561 . S
C720 C723 1.526 1_554 S
C721 H705 0.959 . S
C721 H706 0.959 . S
C721 H707 0.961 . S
C721 C720 1.502 . S
C722 H708 0.952 1_545 S
C722 H709 0.961 . S
C722 H710 0.959 1_544 S
C722 C720 1.561 . S
C723 C720 1.526 1_556 S
C723 C724 1.396 . S
C723 C728 1.390 . S
C724 C718 1.465 1_546 S
C724 C723 1.396 . S
C724 C725 1.399 . S
C725 H711 0.929 1_545 S
C725 C724 1.399 . S
C725 C726 1.385 . S
C726 H712 0.931 . S
C726 C725 1.385 . S
C726 C727 1.389 . S
C727 C726 1.389 . S
C727 C728 1.387 . S
C728 H713 0.930 . S
C728 C723 1.390 . S
C728 C727 1.387 . S
H729 C741 0.930 . S
H730 C743 0.930 . S
H731 C744 0.930 . S
H732 C748 0.959 . S
H733 C748 0.959 . S
H734 C748 0.961 . S
H735 C749 0.960 . S
H736 C749 0.961 . S
H737 C749 0.959 . S
H738 C752 0.929 . S
H739 C753 0.931 . S
H740 C755 0.930 . S
C741 H729 0.930 . S
C741 C742 1.399 . S
C741 C746 1.399 . S
C742 C741 1.399 . S
C742 C743 1.376 . S
C743 H730 0.930 . S
C743 C742 1.376 . S
C743 C744 1.388 . S
C744 H731 0.930 . S
C744 C743 1.388 . S
C744 C745 1.390 . S
C745 C744 1.390 . S
C745 C746 1.394 . S
C745 C751 1.465 . S
C746 C741 1.399 . S
C746 C745 1.394 . S
C746 C747 1.516 . S
C747 C746 1.516 . S
C747 C748 1.502 . S
C747 C749 1.561 . S
C747 C750 1.526 . S
C748 H732 0.959 . S
C748 H733 0.959 . S
C748 H734 0.961 . S
C748 C747 1.502 . S
C749 H735 0.960 . S
C749 H736 0.961 . S
C749 H737 0.959 . S
C749 C747 1.561 . S
C750 C747 1.526 . S
C750 C751 1.396 . S
C750 C755 1.390 . S
C751 C745 1.465 . S
C751 C750 1.396 . S
C751 C752 1.399 . S
C752 H738 0.929 . S
C752 C751 1.399 . S
C752 C753 1.385 . S
C753 H739 0.931 . S
C753 C752 1.385 . S
C753 C754 1.389 . S
C754 C753 1.389 . S
C754 C755 1.387 . S
C755 H740 0.930 . S
C755 C750 1.390 . S
C755 C754 1.387 . S
H756 C768 0.930 . S
H757 C770 0.930 . S
H758 C771 0.945 . S
H759 C775 0.959 . S
H760 C775 0.959 . S
H761 C775 0.961 . S
H762 C776 0.960 . S
H763 C776 0.961 . S
H764 C776 0.959 . S
H765 C779 0.948 . S
H766 C780 0.931 . S
H767 C782 0.930 . S
C768 H756 0.930 . S
C768 C769 1.399 . S
C768 C773 1.399 . S
C769 C768 1.399 . S
C769 C770 1.376 . S
C770 H757 0.930 . S
C770 C769 1.376 . S
C770 C771 1.371 1_655 S
C771 H758 0.945 . S
C771 C770 1.371 1_455 S
C771 C772 1.396 1_455 S
C772 C771 1.396 1_655 S
C772 C773 1.412 . S
C772 C778 1.447 1_656 S
C773 C768 1.399 . S
C773 C772 1.412 . S
C773 C774 1.516 1_556 S
C774 C773 1.516 1_554 S
C774 C775 1.502 . S
C774 C776 1.561 . S
C774 C777 1.526 1_655 S
C775 H759 0.959 . S
C775 H760 0.959 . S
C775 H761 0.961 . S
C775 C774 1.502 . S
C776 H762 0.960 . S
C776 H763 0.961 . S
C776 H764 0.959 . S
C776 C774 1.561 . S
C777 C774 1.526 1_455 S
C777 C778 1.396 . S
C777 C782 1.390 . S
C778 C772 1.447 1_454 S
C778 C777 1.396 . S
C778 C779 1.398 1_554 S
C779 H765 0.948 . S
C779 C778 1.398 1_556 S
C779 C780 1.367 1_556 S
C780 H766 0.931 . S
C780 C779 1.367 1_554 S
C780 C781 1.389 . S
C781 C780 1.389 . S
C781 C782 1.387 . S
C782 H767 0.930 . S
C782 C777 1.390 . S
C782 C781 1.387 . S
H783 C795 0.930 . S
H784 C797 0.930 . S
H785 C798 0.930 1_565 S
H786 C802 0.959 . S
H787 C802 0.959 . S
H788 C802 0.961 . S
H789 C803 0.960 . S
H790 C803 0.961 . S
H791 C803 0.959 . S
H792 C806 0.929 . S
H793 C807 0.931 . S
H794 C809 0.930 . S
C795 H783 0.930 . S
C795 C796 1.399 . S
C795 C800 1.399 . S
C796 C795 1.399 . S
C796 C797 1.376 . S
C797 H784 0.930 . S
C797 C796 1.376 . S
C797 C798 1.388 . S
C798 H785 0.930 1_545 S
C798 C797 1.388 . S
C798 C799 1.390 . S
C799 C798 1.390 . S
C799 C800 1.394 . S
C799 C805 1.465 1_545 S
C800 C795 1.399 . S
C800 C799 1.394 . S
C800 C801 1.516 . S
C801 C800 1.516 . S
C801 C802 1.502 . S
C801 C803 1.561 . S
C801 C804 1.526 1_545 S
C802 H786 0.959 . S
C802 H787 0.959 . S
C802 H788 0.961 . S
C802 C801 1.502 . S
C803 H789 0.960 . S
C803 H790 0.961 . S
C803 H791 0.959 . S
C803 C801 1.561 . S
C804 C801 1.526 1_565 S
C804 C805 1.396 . S
C804 C809 1.390 . S
C805 C799 1.465 1_565 S
C805 C804 1.396 . S
C805 C806 1.399 . S
C806 H792 0.929 . S
C806 C805 1.399 . S
C806 C807 1.385 . S
C807 H793 0.931 . S
C807 C806 1.385 . S
C807 C808 1.389 . S
C808 C807 1.389 . S
C808 C809 1.387 . S
C809 H794 0.930 . S
C809 C804 1.390 . S
C809 C808 1.387 . S
H810 C822 0.930 . S
H811 C824 0.930 . S
H812 C825 0.930 1_554 S
H813 C829 0.959 . S
H814 C829 0.959 . S
H815 C829 0.961 . S
H816 C830 0.960 . S
H817 C830 0.961 . S
H818 C830 0.959 1_554 S
H819 C833 0.929 . S
H820 C834 0.931 . S
H821 C836 0.930 . S
C822 H810 0.930 . S
C822 C823 1.399 . S
C822 C827 1.399 . S
C823 C822 1.399 . S
C823 C824 1.376 . S
C824 H811 0.930 . S
C824 C823 1.376 . S
C824 C825 1.388 . S
C825 H812 0.930 1_556 S
C825 C824 1.388 . S
C825 C826 1.390 . S
C826 C825 1.390 . S
C826 C827 1.394 . S
C826 C832 1.465 1_556 S
C827 C822 1.399 . S
C827 C826 1.394 . S
C827 C828 1.516 . S
C828 C827 1.516 . S
C828 C829 1.502 . S
C828 C830 1.561 . S
C828 C831 1.526 1_556 S
C829 H813 0.959 . S
C829 H814 0.959 . S
C829 H815 0.961 . S
C829 C828 1.502 . S
C830 H816 0.960 . S
C830 H817 0.961 . S
C830 H818 0.959 1_556 S
C830 C828 1.561 . S
C831 C828 1.526 1_554 S
C831 C832 1.396 . S
C831 C836 1.390 . S
C832 C826 1.465 1_554 S
C832 C831 1.396 . S
C832 C833 1.399 . S
C833 H819 0.929 . S
C833 C832 1.399 . S
C833 C834 1.385 . S
C834 H820 0.931 . S
C834 C833 1.385 . S
C834 C835 1.389 . S
C835 C834 1.389 . S
C835 C836 1.387 . S
C836 H821 0.930 . S
C836 C831 1.390 . S
C836 C835 1.387 . S
H837 C849 0.930 . S
H838 C851 0.930 . S
H839 C852 0.930 . S
H840 C856 0.959 . S
H841 C856 0.959 . S
H842 C856 0.961 . S
H843 C857 0.960 . S
H844 C857 0.961 . S
H845 C857 0.959 . S
H846 C860 0.929 . S
H847 C861 0.931 . S
H848 C863 0.930 . S
C849 H837 0.930 . S
C849 C850 1.399 . S
C849 C854 1.399 . S
C850 C849 1.399 . S
C850 C851 1.376 . S
C851 H838 0.930 . S
C851 C850 1.376 . S
C851 C852 1.388 1_455 S
C852 H839 0.930 . S
C852 C851 1.388 1_655 S
C852 C853 1.390 . S
C853 C852 1.390 . S
C853 C854 1.394 1_655 S
C853 C859 1.465 . S
C854 C849 1.399 . S
C854 C853 1.394 1_455 S
C854 C855 1.516 . S
C855 C854 1.516 . S
C855 C856 1.502 . S
C855 C857 1.561 . S
C855 C858 1.526 1_455 S
C856 H840 0.959 . S
C856 H841 0.959 . S
C856 H842 0.961 . S
C856 C855 1.502 . S
C857 H843 0.960 . S
C857 H844 0.961 . S
C857 H845 0.959 . S
C857 C855 1.561 . S
C858 C855 1.526 1_655 S
C858 C859 1.396 . S
C858 C863 1.390 . S
C859 C853 1.465 . S
C859 C858 1.396 . S
C859 C860 1.399 . S
C860 H846 0.929 . S
C860 C859 1.399 . S
C860 C861 1.385 . S
C861 H847 0.931 . S
C861 C860 1.385 . S
C861 C862 1.389 . S
C862 C861 1.389 . S
C862 C863 1.387 . S
C863 H848 0.930 . S
C863 C858 1.390 . S
C863 C862 1.387 . S
H864 C876 0.930 . S
H865 C878 0.930 . S
H866 C879 0.930 . S
H867 C883 0.959 . S
H868 C883 0.959 . S
H869 C883 0.961 . S
H870 C884 0.960 . S
H871 C884 0.961 . S
H872 C884 0.959 . S
H873 C887 0.929 1_556 S
H874 C888 0.931 . S
H875 C890 0.930 . S
C876 H864 0.930 . S
C876 C877 1.399 . S
C876 C881 1.399 . S
C877 C876 1.399 . S
C877 C878 1.376 . S
C878 H865 0.930 . S
C878 C877 1.376 . S
C878 C879 1.388 1_545 S
C879 H866 0.930 . S
C879 C878 1.388 1_565 S
C879 C880 1.391 1_565 S
C880 C879 1.391 1_545 S
C880 C881 1.401 . S
C880 C886 1.458 1_546 S
C881 C876 1.399 . S
C881 C880 1.401 . S
C881 C882 1.516 1_556 S
C882 C881 1.516 1_554 S
C882 C883 1.502 . S
C882 C884 1.561 . S
C882 C885 1.526 1_545 S
C883 H867 0.959 . S
C883 H868 0.959 . S
C883 H869 0.961 . S
C883 C882 1.502 . S
C884 H870 0.960 . S
C884 H871 0.961 . S
C884 H872 0.959 . S
C884 C882 1.561 . S
C885 C882 1.526 1_565 S
C885 C886 1.396 . S
C885 C890 1.390 . S
C886 C880 1.458 1_564 S
C886 C885 1.396 . S
C886 C887 1.399 . S
C887 H873 0.929 1_554 S
C887 C886 1.399 . S
C887 C888 1.385 . S
C888 H874 0.931 . S
C888 C887 1.385 . S
C888 C889 1.389 . S
C889 C888 1.389 . S
C889 C890 1.387 . S
C890 H875 0.930 . S
C890 C885 1.390 . S
C890 C889 1.387 . S
H891 C903 0.930 . S
H892 C905 0.930 . S
H893 C906 0.930 . S
H894 C910 0.959 . S
H895 C910 0.959 . S
H896 C910 0.961 . S
H897 C911 0.960 . S
H898 C911 0.961 . S
H899 C911 0.959 . S
H900 C914 0.929 . S
H901 C915 0.931 . S
H902 C917 0.930 . S
C903 H891 0.930 . S
C903 C904 1.399 . S
C903 C908 1.399 . S
C904 C903 1.399 . S
C904 C905 1.376 . S
C905 H892 0.930 . S
C905 C904 1.376 . S
C905 C906 1.388 . S
C906 H893 0.930 . S
C906 C905 1.388 . S
C906 C907 1.390 . S
C907 C906 1.390 . S
C907 C908 1.394 . S
C907 C913 1.465 . S
C908 C903 1.399 . S
C908 C907 1.394 . S
C908 C909 1.516 . S
C909 C908 1.516 . S
C909 C910 1.502 . S
C909 C911 1.561 . S
C909 C912 1.526 . S
C910 H894 0.959 . S
C910 H895 0.959 . S
C910 H896 0.961 . S
C910 C909 1.502 . S
C911 H897 0.960 . S
C911 H898 0.961 . S
C911 H899 0.959 . S
C911 C909 1.561 . S
C912 C909 1.526 . S
C912 C913 1.396 . S
C912 C917 1.390 . S
C913 C907 1.465 . S
C913 C912 1.396 . S
C913 C914 1.399 . S
C914 H900 0.929 . S
C914 C913 1.399 . S
C914 C915 1.385 . S
C915 H901 0.931 . S
C915 C914 1.385 . S
C915 C916 1.389 . S
C916 C915 1.389 . S
C916 C917 1.387 . S
C917 H902 0.930 . S
C917 C912 1.390 . S
C917 C916 1.387 . S
H918 C930 0.930 . S
H919 C932 0.930 . S
H920 C933 0.930 . S
H921 C937 0.959 . S
H922 C937 0.959 1_556 S
H923 C937 0.961 1_455 S
H924 C938 0.960 . S
H925 C938 0.961 . S
H926 C938 0.959 . S
H927 C941 0.929 . S
H928 C942 0.931 . S
H929 C944 0.930 . S
C930 H918 0.930 . S
C930 C931 1.399 . S
C930 C935 1.399 . S
C931 C930 1.399 . S
C931 C932 1.376 . S
C932 H919 0.930 . S
C932 C931 1.376 . S
C932 C933 1.388 . S
C933 H920 0.930 . S
C933 C932 1.388 . S
C933 C934 1.390 . S
C934 C933 1.390 . S
C934 C935 1.394 . S
C934 C940 1.465 1_454 S
C935 C930 1.399 . S
C935 C934 1.394 . S
C935 C936 1.516 1_554 S
C936 C935 1.516 1_556 S
C936 C937 1.502 1_456 S
C936 C938 1.561 . S
C936 C939 1.526 1_455 S
C937 H921 0.959 . S
C937 H922 0.959 1_554 S
C937 H923 0.961 1_655 S
C937 C936 1.502 1_654 S
C938 H924 0.960 . S
C938 H925 0.961 . S
C938 H926 0.959 . S
C938 C936 1.561 . S
C939 C936 1.526 1_655 S
C939 C940 1.396 . S
C939 C944 1.390 . S
C940 C934 1.465 1_656 S
C940 C939 1.396 . S
C940 C941 1.399 . S
C941 H927 0.929 . S
C941 C940 1.399 . S
C941 C942 1.385 . S
C942 H928 0.931 . S
C942 C941 1.385 . S
C942 C943 1.389 . S
C943 C942 1.389 . S
C943 C944 1.387 . S
C944 H929 0.930 . S
C944 C939 1.390 . S
C944 C943 1.387 . S
H945 C957 0.930 . S
H946 C959 0.930 . S
H947 C960 0.905 1_565 S
H948 C964 0.959 . S
H949 C964 0.959 . S
H950 C964 0.961 . S
H951 C965 0.960 . S
H952 C965 0.961 . S
H953 C965 0.959 . S
H954 C968 0.929 . S
H955 C969 0.931 . S
H956 C971 0.930 . S
C957 H945 0.930 . S
C957 C958 1.399 . S
C957 C962 1.399 . S
C958 C957 1.399 . S
C958 C959 1.376 . S
C959 H946 0.930 . S
C959 C958 1.376 . S
C959 C960 1.406 . S
C960 H947 0.905 1_545 S
C960 C959 1.406 . S
C960 C961 1.398 . S
C961 C960 1.398 . S
C961 C962 1.394 . S
C961 C967 1.465 1_545 S
C962 C957 1.399 . S
C962 C961 1.394 . S
C962 C963 1.516 . S
C963 C962 1.516 . S
C963 C964 1.502 . S
C963 C965 1.561 . S
C963 C966 1.526 1_545 S
C964 H948 0.959 . S
C964 H949 0.959 . S
C964 H950 0.961 . S
C964 C963 1.502 . S
C965 H951 0.960 . S
C965 H952 0.961 . S
C965 H953 0.959 . S
C965 C963 1.561 . S
C966 C963 1.526 1_565 S
C966 C967 1.396 . S
C966 C971 1.390 . S
C967 C961 1.465 1_565 S
C967 C966 1.396 . S
C967 C968 1.399 . S
C968 H954 0.929 . S
C968 C967 1.399 . S
C968 C969 1.385 . S
C969 H955 0.931 . S
C969 C968 1.385 . S
C969 C970 1.389 . S
C970 C969 1.389 . S
C970 C971 1.387 . S
C971 H956 0.930 . S
C971 C966 1.390 . S
C971 C970 1.387 . S
C337 C32 2.029 . S
C349 C229 2.016 . S
C364 C302 2.012 . S
C376 C67 2.028 . S
C391 C13 1.975 . S
C403 C140 1.996 . S
C418 C86 1.978 . S
C430 C175 1.974 . S
C445 C248 1.988 . S
C457 C121 1.974 . S
C472 C283 2.025 . S
C484 C194 2.005 . S
C499 C22 1.121 . S
C511 C221 1.142 . S
C526 C59 1.161 . S
C538 C292 1.150 . S
C553 C5 1.144 . S
C565 C130 1.157 . S
C580 C76 1.066 . S
C592 C167 1.057 . S
C607 C113 1.158 . S
C619 C238 1.145 . S
C634 C275 1.141 . S
C646 C184 1.155 . S
C661 C10 2.606 . S
C673 C280 2.583 . S
C688 C81 2.572 . S
C700 C27 2.581 . S
C715 C118 2.607 . S
C727 C64 2.577 . S
C742 C189 2.606 . S
C754 C135 2.581 . S
C769 C172 2.568 . S
C781 C226 2.603 . S
C796 C297 2.582 . S
C808 C243 2.606 . S
C823 C190 0.669 . S
C835 C136 0.668 . S
C850 C251 0.711 . S
C862 C197 0.711 . S
C877 C298 0.653 . S
C889 C244 0.654 . S
C904 C305 0.648 . S
C916 C35 0.648 . S
C931 C28 0.634 . S
C943 C82 0.635 . S
C958 C89 0.644 . S
C970 C143 0.645 . S
