# Generated by pormake.
# Topology sxb, (6)-cn, num edge types: 1
# Building blocks:
#     Node 0, Type 0, BuildingBlock: CUKXOW_clean_sbu_0, # of connection points: 6
#     Node 1, Type 0, BuildingBlock: CUKXOW_clean_sbu_0, # of connection points: 6
#     Node 2, Type 0, BuildingBlock: CUKXOW_clean_sbu_0, # of connection points: 6
#     Node 3, Type 0, BuildingBlock: CUKXOW_clean_sbu_0, # of connection points: 6
#     Edge 4, Type (0, 0), BuildingBlock: XUDNAN_clean_linker_2, # of connection points: 2
#     Edge 5, Type (0, 0), BuildingBlock: XUDNAN_clean_linker_2, # of connection points: 2
#     Edge 6, Type (0, 0), BuildingBlock: XUDNAN_clean_linker_2, # of connection points: 2
#     Edge 7, Type (0, 0), BuildingBlock: XUDNAN_clean_linker_2, # of connection points: 2
#     Edge 8, Type (0, 0), BuildingBlock: XUDNAN_clean_linker_2, # of connection points: 2
#     Edge 9, Type (0, 0), BuildingBlock: XUDNAN_clean_linker_2, # of connection points: 2
#     Edge 10, Type (0, 0), BuildingBlock: XUDNAN_clean_linker_2, # of connection points: 2
#     Edge 11, Type (0, 0), BuildingBlock: XUDNAN_clean_linker_2, # of connection points: 2
#     Edge 12, Type (0, 0), BuildingBlock: XUDNAN_clean_linker_2, # of connection points: 2
#     Edge 13, Type (0, 0), BuildingBlock: XUDNAN_clean_linker_2, # of connection points: 2
#     Edge 14, Type (0, 0), BuildingBlock: XUDNAN_clean_linker_2, # of connection points: 2
#     Edge 15, Type (0, 0), BuildingBlock: XUDNAN_clean_linker_2, # of connection points: 2
# Relax obj value: 0.017
# Max RMSD: 0.071
# Mean RMSD: 0.071
data_MOF--net-sxb--node1-CUKXOW_clean_sbu_0--edge1-XUDNAN_clean_linker_2
_symmetry_space_group_name_H-M    P1
_symmetry_Int_Tables_number       1
_symmetry_cell_setting            triclinic
loop_
_symmetry_equiv_pos_as_xyz
'x, y, z'
_cell_length_a     14.120311
_cell_length_b     33.276239
_cell_length_c     30.39761
_cell_angle_alpha  89.926754
_cell_angle_beta   101.85547
_cell_angle_gamma 89.990675
loop_
_atom_site_label
_atom_site_type_symbol
_atom_site_fract_x
_atom_site_fract_y
_atom_site_fract_z
_atom_type_partial_charge
Tb0 Tb 0.98559 0.03354 -0.00295 0.0
C1 C 0.98059 0.98835 0.9052 0.0
Tb2 Tb 1.0241 0.94349 -0.00066 0.0
O3 O 0.13073 0.04521 0.03458 0.0
O4 O 0.10598 -0.00412 0.99173 0.0
O5 O 0.95825 0.02114 0.92559 0.0
C6 C 0.09094 0.86921 0.9934 0.0
O7 O 1.01386 0.95513 0.92745 0.0
C8 C 0.84915 0.9638 0.00829 0.0
C9 C 1.03144 0.99022 0.08976 0.0
O10 O 1.00668 0.88237 0.97316 0.0
O11 O 0.13825 0.89797 0.01722 0.0
O12 O 0.89113 0.93062 0.02385 0.0
O13 O 0.90038 0.9812 0.98474 0.0
O14 O 0.0668 0.95927 0.07068 0.0
O15 O 0.98202 0.01968 0.06623 0.0
C16 C 0.92466 0.10917 0.98267 0.0
O17 O 1.00103 0.09395 0.97165 0.0
O18 O 0.88146 0.08164 0.0017 0.0
C19 C 0.16915 0.01356 0.02074 0.0
Tb20 Tb 0.11158 0.03612 0.51325 0.0
C21 C 0.06405 0.98686 0.59336 0.0
Tb22 Tb 0.05498 0.94464 0.49899 0.0
O23 O 0.96457 0.05148 0.52315 0.0
O24 O 0.98763 0.0015 0.48612 0.0
O25 O 0.11531 0.01699 0.5817 0.0
C26 C 0.95788 0.87591 0.48126 0.0
O27 O 1.02408 0.9582 0.56515 0.0
C28 C 0.24639 0.95441 0.51643 0.0
C29 C 0.09499 -0.00395 0.41712 0.0
O30 O 0.99418 0.88942 0.5212 0.0
O31 O 0.97573 0.90115 0.45151 0.0
O32 O 0.20249 0.92009 0.50823 0.0
O33 O 0.18026 0.97961 0.51735 0.0
O34 O 0.05211 0.96376 0.42997 0.0
O35 O 0.13128 0.02555 0.44502 0.0
C36 C 0.20583 0.10569 0.52404 0.0
O37 O 0.12482 0.09937 0.49569 0.0
O38 O 0.23349 0.07288 0.54616 0.0
C39 C 0.92501 0.0193 0.5031 0.0
Tb40 Tb 0.53264 0.54446 -0.00122 0.0
C41 C 0.53679 0.51206 0.90003 0.0
Tb42 Tb 0.57149 0.45216 0.98231 0.0
O43 O 0.68536 0.56498 0.00238 0.0
O44 O 0.64458 0.50636 0.99317 0.0
O45 O 0.51208 0.54114 0.92551 0.0
C46 C 0.66259 0.38245 0.97948 0.0
O47 O 0.56815 0.47612 0.91562 0.0
C48 C 0.38938 0.47468 0.96733 0.0
C49 C 0.57369 0.48454 0.08177 0.0
O50 O 0.57763 0.38644 0.98931 0.0
O51 O 0.69558 0.41751 0.97161 0.0
O52 O 0.42151 0.44411 0.94791 0.0
O53 O 0.45778 0.4885 -0.00297 0.0
O54 O 0.59576 0.45523 0.05569 0.0
O55 O 0.54206 0.52074 0.06651 0.0
C56 C 0.42164 0.60928 0.9964 0.0
O57 O 0.50562 0.60467 0.02338 0.0
O58 O 0.40137 0.57761 0.97139 0.0
C59 C 0.71644 0.52897 0.99592 0.0
Tb60 Tb 0.57749 0.53946 0.48261 0.0
C61 C 0.55041 0.51163 0.5783 0.0
Tb62 Tb 0.53824 0.44795 0.49856 0.0
O63 O 0.42771 0.5608 0.46747 0.0
O64 O 0.45811 0.50113 0.48046 0.0
O65 O 0.58205 0.54034 0.55449 0.0
C66 C 0.47389 0.37662 0.51889 0.0
O67 O 0.52295 0.47536 0.56208 0.0
C68 C 0.71864 0.46676 0.49593 0.0
C69 C 0.55428 0.47679 0.40274 0.0
O70 O 0.5532 0.39369 0.53955 0.0
O71 O 0.42993 0.39984 0.48662 0.0
O72 O 0.68286 0.43104 0.48737 0.0
O73 O 0.65688 0.48806 0.5096 0.0
O74 O 0.51338 0.45013 0.42557 0.0
O75 O 0.59721 0.51 0.4211 0.0
C76 C 0.65861 0.60985 0.47044 0.0
O77 O 0.61009 0.5874 0.4389 0.0
O78 O 0.66312 0.59241 0.50907 0.0
C79 C 0.38935 0.52587 0.47117 0.0
H80 H 0.45977 0.68317 0.03766 0.0
H81 H 0.24046 0.61533 0.94662 0.0
H82 H 0.1322 0.67405 0.93756 0.0
H83 H 0.29446 0.7398 0.09161 0.0
H84 H 0.36357 0.78565 0.09519 0.0
H85 H 0.42371 0.7378 0.09617 0.0
H86 H 0.49695 0.75989 0.02846 0.0
H87 H 0.43685 0.80775 0.02729 0.0
H88 H 0.41767 0.77689 0.97758 0.0
H89 H 0.04895 0.7394 0.93654 0.0
H90 H 0.99393 0.80892 0.94382 0.0
H91 H 0.26611 0.83644 0.03434 0.0
C92 C 0.38869 0.68077 0.01612 0.0
C93 C 0.35805 0.64474 0.99298 0.0
C94 C 0.26513 0.64267 0.96469 0.0
C95 C 0.20308 0.67584 0.95933 0.0
C96 C 0.23532 0.71102 0.98221 0.0
C97 C 0.32579 0.71392 0.01001 0.0
C98 C 0.34261 0.75586 0.02972 0.0
C99 C 0.35691 0.75469 0.08123 0.0
C100 C 0.42862 0.77629 0.01486 0.0
C101 C 0.24763 0.7759 0.00847 0.0
C102 C 0.18695 0.74931 0.98132 0.0
C103 C 0.09557 0.76053 0.95776 0.0
C104 C 0.06503 0.80006 0.96208 0.0
C105 C 0.12573 0.82788 0.98964 0.0
C106 C 0.21827 0.81566 0.01311 0.0
H107 H 0.60977 0.30633 0.00043 0.0
H108 H 0.83123 0.37302 0.95135 0.0
H109 H 0.91887 0.30992 0.94481 0.0
H110 H 0.77151 0.23579 0.06731 0.0
H111 H 0.68995 0.19376 0.05482 0.0
H112 H 0.64255 0.24403 0.05447 0.0
H113 H 0.54701 0.23369 0.9729 0.0
H114 H 0.5944 0.18341 0.97297 0.0
H115 H 0.61066 0.21853 0.92995 0.0
H116 H 0.98241 0.24056 0.94334 0.0
H117 H 1.02298 0.16845 0.95037 0.0
H118 H 0.76353 0.14579 0.00217 0.0
C119 C 0.67658 0.30749 0.98822 0.0
C120 C 0.71382 0.34438 0.97624 0.0
C121 C 0.80158 0.34497 0.96064 0.0
C122 C 0.85174 0.30933 0.95672 0.0
C123 C 0.81326 0.2734 0.96869 0.0
C124 C 0.72805 0.27209 0.98434 0.0
C125 C 0.70424 0.22941 0.99592 0.0
C126 C 0.70197 0.22554 0.04612 0.0
C127 C 0.60839 0.21545 0.96615 0.0
C128 C 0.78971 0.20709 0.98457 0.0
C129 C 0.85112 0.23311 0.96857 0.0
C130 C 0.93501 0.21985 0.95583 0.0
C131 C 0.95734 0.17887 0.95989 0.0
C132 C 0.89639 0.15173 0.97682 0.0
C133 C 0.81125 0.16599 0.9891 0.0
H134 H 0.1557 0.17665 0.47963 0.0
H135 H 0.37391 0.12111 0.58328 0.0
H136 H 0.46199 0.1856 0.59547 0.0
H137 H 0.31881 0.23745 0.4326 0.0
H138 H 0.23773 0.27977 0.42105 0.0
H139 H 0.18972 0.2297 0.4217 0.0
H140 H 0.09263 0.2517 0.48127 0.0
H141 H 0.14082 0.30182 0.48098 0.0
H142 H 0.15537 0.27423 0.533 0.0
H143 H 0.52683 0.25526 0.59599 0.0
H144 H 0.56967 0.32539 0.5822 0.0
H145 H 0.3111 0.33593 0.47732 0.0
C146 C 0.22182 0.17821 0.50499 0.0
C147 C 0.25802 0.14416 0.53077 0.0
C148 C 0.34495 0.14704 0.56341 0.0
C149 C 0.39528 0.18349 0.57061 0.0
C150 C 0.35756 0.21664 0.54482 0.0
C151 C 0.2731 0.21438 0.51253 0.0
C152 C 0.25012 0.25422 0.48845 0.0
C153 C 0.24908 0.25002 0.43796 0.0
C154 C 0.15403 0.27151 0.49641 0.0
C155 C 0.33538 0.27907 0.512 0.0
C156 C 0.39591 0.25685 0.54465 0.0
C157 C 0.48001 0.273 0.57058 0.0
C158 C 0.50364 0.31282 0.56254 0.0
C159 C 0.44367 0.33586 0.52872 0.0
C160 C 0.35802 0.3189 0.50344 0.0
H161 H 0.92876 0.81762 0.54052 0.0
H162 H 0.87327 0.84781 0.39864 0.0
H163 H 0.79144 0.78249 0.38043 0.0
H164 H 0.97946 0.71298 0.52742 0.0
H165 H 0.92163 0.69653 0.57192 0.0
H166 H 0.97451 0.74592 0.57394 0.0
H167 H 0.81057 0.77765 0.58091 0.0
H168 H 0.75728 0.72836 0.57908 0.0
H169 H 0.70339 0.76624 0.53927 0.0
H170 H 0.71739 0.71416 0.37759 0.0
H171 H 0.65265 0.64716 0.39038 0.0
H172 H 0.75718 0.66103 0.53408 0.0
C173 C 0.89895 0.81045 0.50568 0.0
C174 C 0.90693 0.83753 0.4709 0.0
C175 C 0.86765 0.8273 0.42569 0.0
C176 C 0.82122 0.79034 0.41504 0.0
C177 C 0.8151 0.76409 0.45006 0.0
C178 C 0.85268 0.77363 0.49446 0.0
C179 C 0.83684 0.73989 0.52563 0.0
C180 C 0.93389 0.72283 0.55123 0.0
C181 C 0.77321 0.75388 0.55813 0.0
C182 C 0.78415 0.70997 0.4918 0.0
C183 C 0.77256 0.72453 0.44841 0.0
C184 C 0.72595 0.70241 0.41139 0.0
C185 C 0.68957 0.66445 0.41897 0.0
C186 C 0.70013 0.64916 0.46316 0.0
C187 C 0.74838 0.67211 0.49996 0.0
H188 H 0.27335 0.95347 0.98836 0.0
H189 H 0.30422 0.06433 0.06529 0.0
H190 H 0.47974 0.06293 0.07 0.0
H191 H 0.4986 0.90761 0.05192 0.0
H192 H 0.52721 0.88364 0.00312 0.0
H193 H 0.40279 0.89253 0.0061 0.0
H194 H 0.37696 0.93131 0.93071 0.0
H195 H 0.50148 0.92291 0.92767 0.0
H196 H 0.45412 0.97336 0.92508 0.0
H197 H 0.64744 0.0538 0.06144 0.0
H198 H 0.80565 0.03225 0.04841 0.0
H199 H 0.67595 0.92441 0.98224 0.0
C200 C 0.3175 0.97709 0.00658 0.0
C201 C 0.27503 0.00921 0.02613 0.0
C202 C 0.33494 0.03955 0.04983 0.0
C203 C 0.43487 0.0391 0.05268 0.0
C204 C 0.47447 0.00768 0.03239 0.0
C205 C 0.41854 0.97673 0.01055 0.0
C206 C 0.48129 0.94639 0.99238 0.0
C207 C 0.47723 0.9051 0.01472 0.0
C208 C 0.45167 0.94333 0.9409 0.0
C209 C 0.58045 0.96571 0.00682 0.0
C210 C 0.57396 0.00127 0.02941 0.0
C211 C 0.65391 0.02581 0.04423 0.0
C212 C 0.74356 0.01353 0.03625 0.0
C213 C 0.75291 0.97692 0.01416 0.0
C214 C 0.67043 0.95253 -0.00056 0.0
H215 H 0.3723 0.02054 0.54044 0.0
H216 H 0.35158 0.9015 0.48072 0.0
H217 H 0.51824 0.90664 0.47036 0.0
H218 H 0.52548 0.06438 0.46922 0.0
H219 H 0.59909 0.09309 0.51372 0.0
H220 H 0.47535 0.0816 0.51583 0.0
H221 H 0.53214 0.04905 0.59404 0.0
H222 H 0.65614 0.06028 0.59222 0.0
H223 H 0.62094 0.00933 0.60112 0.0
H224 H 0.68339 0.92315 0.46424 0.0
H225 H 0.84661 0.94985 0.46681 0.0
H226 H 0.7751 0.0569 0.53431 0.0
C227 C 0.40287 -0.00415 0.52491 0.0
C228 C 0.34789 0.96069 0.51113 0.0
C229 C 0.39141 0.92877 0.49158 0.0
C230 C 0.48642 0.93135 0.48537 0.0
C231 C 0.53877 0.96598 0.49922 0.0
C232 C 0.49964 -0.00232 0.5189 0.0
C233 C 0.57515 0.03074 0.53177 0.0
C234 C 0.54177 0.06977 0.5061 0.0
C235 C 0.5974 0.03775 0.58283 0.0
C236 C 0.66185 0.01232 0.51624 0.0
C237 C 0.63795 0.97509 0.49721 0.0
C238 C 0.70347 0.95214 0.47941 0.0
C239 C 0.79643 0.96744 0.48119 0.0
C240 C 0.82448 0.00501 0.50127 0.0
C241 C 0.75597 0.02787 0.51901 0.0
H242 H 0.89979 0.5556 0.03645 0.0
H243 H 0.7474 0.47926 0.92961 0.0
H244 H 0.9012 0.46069 0.90953 0.0
H245 H 0.08663 0.59071 0.97834 0.0
H246 H 0.18279 0.58896 0.0276 0.0
H247 H 0.06006 0.59802 0.03328 0.0
H248 H 0.07041 0.53756 0.08773 0.0
H249 H 0.19329 0.52853 0.0823 0.0
H250 H 0.10479 0.48891 0.07014 0.0
H251 H 0.06856 0.45006 0.90009 0.0
H252 H 0.24391 0.44333 0.90542 0.0
H253 H 0.2971 0.52415 0.01988 0.0
C254 C 0.89927 0.53507 0.0088 0.0
C255 C 0.81118 0.51835 0.98496 0.0
C256 C 0.81339 0.4916 0.9491 0.0
C257 C 0.90072 0.48123 0.93705 0.0
C258 C 0.98618 0.49776 0.96127 0.0
C259 C 0.9869 0.52383 0.99668 0.0
C260 C 0.09048 0.53556 0.01818 0.0
C261 C 0.10588 0.58102 0.01409 0.0
C262 C 0.11624 0.52181 0.06751 0.0
C263 C 0.1472 0.51193 0.98926 0.0
C264 C 0.08478 0.49079 0.95639 0.0
C265 C 0.11827 0.46641 0.92569 0.0
C266 C 0.21823 0.4628 0.92902 0.0
C267 C 0.28446 0.48312 0.96301 0.0
C268 C 0.24829 0.50846 0.9933 0.0
H269 H 0.28664 0.45714 0.48852 0.0
H270 H 0.25478 0.58292 0.44964 0.0
H271 H 0.08223 0.57999 0.45042 0.0
H272 H 0.04919 0.42544 0.42126 0.0
H273 H 1.02576 0.3902 0.46283 0.0
H274 H 0.14852 0.40078 0.45822 0.0
H275 H 0.1905 0.42022 0.54226 0.0
H276 H 0.06787 0.40991 0.5472 0.0
H277 H 0.12052 0.45846 0.563 0.0
H278 H 0.919 0.56707 0.46076 0.0
H279 H 0.7638 0.54159 0.47381 0.0
H280 H 0.88753 0.423 0.50141 0.0
C281 C 0.24273 0.48373 0.47962 0.0
C282 C 0.28453 0.52031 0.46912 0.0
C283 C 0.22488 0.55459 0.45795 0.0
C284 C 0.12642 0.55334 0.45825 0.0
C285 C 0.08744 0.51739 0.46934 0.0
C286 C 0.14256 0.48294 0.47927 0.0
C287 C 0.08003 0.44853 0.49025 0.0
C288 C 0.07562 0.41421 0.45609 0.0
C289 C 0.11695 0.4334 0.53855 0.0
C290 C 0.98237 0.46951 0.48541 0.0
C291 C 0.98951 0.50931 0.47366 0.0
C292 C 0.91193 0.53582 0.46944 0.0
C293 C 0.82408 0.52129 0.47722 0.0
C294 C 0.81344 0.48067 0.48842 0.0
C295 C 0.89354 0.45423 0.4923 0.0
H296 H 0.04861 0.94015 0.34878 0.0
H297 H 0.15209 0.06242 0.37658 0.0
H298 H 0.15505 0.07186 0.29676 0.0
H299 H 0.19186 0.91905 0.26341 0.0
H300 H 0.09737 0.88996 0.22882 0.0
H301 H 0.10685 0.89162 0.28883 0.0
H302 H 0.92934 0.91618 0.27708 0.0
H303 H 0.9193 0.9146 0.2171 0.0
H304 H 0.89297 0.96049 0.24367 0.0
H305 H 0.13503 0.07077 0.21444 0.0
H306 H 0.10004 0.05785 0.13289 0.0
H307 H 1.01754 0.93539 0.15643 0.0
C308 C 0.07258 0.9688 0.33814 0.0
C309 C 0.10001 0.00055 0.36915 0.0
C310 C 0.13092 0.03756 0.35373 0.0
C311 C 0.13293 0.04328 0.30836 0.0
C312 C 0.10483 0.01162 0.27874 0.0
C313 C 0.07595 0.97498 0.29282 0.0
C314 C 0.04763 0.94633 0.25343 0.0
C315 C 0.11497 0.90956 0.25897 0.0
C316 C 0.94098 0.93367 0.24748 0.0
C317 C 0.06345 0.97298 0.21502 0.0
C318 C 0.09631 0.01052 0.23064 0.0
C319 C 0.11067 0.04135 0.20178 0.0
C320 C 0.09031 0.03379 0.15561 0.0
C321 C 0.0571 -0.00439 0.13874 0.0
C322 C 1.04466 0.96458 0.16877 0.0
H323 H 0.04816 0.93474 0.84891 0.0
H324 H 0.89245 0.04741 0.84947 0.0
H325 H 0.88923 0.05603 0.76911 0.0
H326 H 0.19766 0.96597 0.77646 0.0
H327 H 0.1946 0.91935 0.74608 0.0
H328 H 0.17764 0.91922 0.80318 0.0
H329 H 1.01397 0.88231 0.77823 0.0
H330 H 1.03075 0.88205 0.72101 0.0
H331 H 0.92255 0.90348 0.73406 0.0
H332 H 0.91734 0.05732 0.69221 0.0
H333 H 0.96643 0.04832 0.61951 0.0
H334 H 0.09702 0.9336 0.6646 0.0
C335 C 1.01174 0.96078 0.83189 0.0
C336 C 0.97086 0.99043 0.85575 0.0
C337 C 0.92481 0.02431 0.83225 0.0
C338 C 0.92224 0.02951 0.78643 0.0
C339 C 0.96515 0.00041 0.76421 0.0
C340 C 1.00804 0.96644 0.78575 0.0
C341 C 0.05225 0.94081 0.75381 0.0
C342 C 0.16204 0.93608 0.77091 0.0
C343 C 1.00185 0.89972 0.74634 0.0
C344 C 1.02967 0.9664 0.71153 0.0
C345 C 0.9792 0.0006 0.71854 0.0
C346 C 0.95543 0.03038 0.68596 0.0
C347 C 0.98402 0.02516 0.64498 0.0
C348 C 1.03482 0.99031 0.6368 0.0
C349 C 0.05707 0.96025 0.67016 0.0
H350 H 0.56916 0.53238 0.33847 0.0
H351 H 0.5411 0.40423 0.35915 0.0
H352 H 0.5492 0.39204 0.27965 0.0
H353 H 0.41929 0.53495 0.22755 0.0
H354 H 0.49101 0.57292 0.20744 0.0
H355 H 0.48573 0.57109 0.26609 0.0
H356 H 0.67282 0.56665 0.28724 0.0
H357 H 0.67873 0.5682 0.22863 0.0
H358 H 0.73428 0.52726 0.26351 0.0
H359 H 0.56557 0.39406 0.19852 0.0
H360 H 0.57229 0.41012 0.11997 0.0
H361 H 0.58122 0.53742 0.1518 0.0
C362 C 0.56499 0.50171 0.32634 0.0
C363 C 0.55517 0.46917 0.35498 0.0
C364 C 0.54846 0.42956 0.3377 0.0
C365 C 0.5535 0.42236 0.29272 0.0
C366 C 0.564 0.45516 0.26548 0.0
C367 C 0.56834 0.49408 0.2815 0.0
C368 C 0.57587 0.52419 0.24498 0.0
C369 C 0.48772 0.55244 0.23599 0.0
C370 C 0.6711 0.54797 0.25681 0.0
C371 C 0.57543 0.49613 0.2058 0.0
C372 C 0.5697 0.45643 0.21845 0.0
C373 C 0.56961 0.42504 0.1882 0.0
C374 C 0.57395 0.4345 0.14368 0.0
C375 C 0.57709 0.47506 0.12966 0.0
C376 C 0.57841 0.50616 0.16138 0.0
H377 H 0.5461 0.45739 0.64567 0.0
H378 H 0.54443 0.58539 0.6177 0.0
H379 H 0.53539 0.59959 0.69655 0.0
H380 H 0.38229 0.45917 0.72215 0.0
H381 H 0.44774 0.42136 0.75876 0.0
H382 H 0.45079 0.42137 0.69981 0.0
H383 H 0.63826 0.4239 0.71948 0.0
H384 H 0.63578 0.42383 0.77846 0.0
H385 H 0.69785 0.46341 0.75533 0.0
H386 H 0.52476 0.59959 0.77851 0.0
H387 H 0.52437 0.58558 0.85831 0.0
H388 H 0.53954 0.45761 0.8327 0.0
C389 C 0.54318 0.48843 0.65599 0.0
C390 C 0.54539 0.5203 0.62547 0.0
C391 C 0.54296 0.56049 0.64053 0.0
C392 C 0.53744 0.56885 0.68519 0.0
C393 C 0.53535 0.53669 0.7144 0.0
C394 C 0.53898 0.4973 0.70049 0.0
C395 C 0.5395 0.46822 0.73887 0.0
C396 C 0.44972 0.44093 0.72932 0.0
C397 C 0.63344 0.44339 0.7486 0.0
C398 C 0.53541 0.49739 0.77657 0.0
C399 C 0.53218 0.53673 0.76173 0.0
C400 C 0.52745 0.56889 0.79052 0.0
C401 C 0.52694 0.56062 0.83576 0.0
C402 C 0.53213 0.52051 0.85182 0.0
C403 C 0.53598 0.48861 0.8216 0.0
loop_
_geom_bond_atom_site_label_1
_geom_bond_atom_site_label_2
_geom_bond_distance
_geom_bond_site_symmetry_2
_ccdc_geom_bond_type
Tb0 O3 2.453 . S
Tb0 O4 2.596 1_545 S
Tb0 O5 2.374 1_454 S
Tb0 O13 2.343 1_454 S
Tb0 O15 2.353 . S
Tb0 O17 2.427 1_455 S
Tb0 O18 2.513 1_454 S
C1 O5 1.251 . S
C1 O7 1.263 1_545 S
Tb2 O4 2.343 1_656 S
Tb2 O7 2.353 . S
Tb2 O10 2.427 1_655 S
Tb2 O11 2.513 1_656 S
Tb2 O12 2.453 . S
Tb2 O13 2.596 1_565 S
Tb2 O14 2.374 1_656 S
O3 Tb0 2.453 . S
O3 C19 1.245 . S
O4 Tb0 2.596 1_565 S
O4 Tb2 2.343 1_454 S
O4 C19 1.259 1_565 S
O5 Tb0 2.374 1_656 S
O5 C1 1.251 . S
C6 O10 1.275 1_554 S
C6 O11 1.246 . S
O7 C1 1.263 1_565 S
O7 Tb2 2.353 . S
C8 O12 1.245 . S
C8 O13 1.259 1_565 S
C9 O14 1.250 . S
C9 O15 1.263 1_565 S
O10 Tb2 2.427 1_455 S
O10 C6 1.275 1_556 S
O11 Tb2 2.513 1_454 S
O11 C6 1.246 . S
O12 Tb2 2.453 . S
O12 C8 1.245 . S
O13 Tb0 2.343 1_656 S
O13 Tb2 2.596 1_545 S
O13 C8 1.259 1_545 S
O14 Tb2 2.374 1_454 S
O14 C9 1.250 . S
O15 Tb0 2.353 . S
O15 C9 1.263 1_545 S
C16 O17 1.275 1_556 S
C16 O18 1.246 . S
O17 Tb0 2.427 1_655 S
O17 C16 1.275 1_554 S
O18 Tb0 2.513 1_656 S
O18 C16 1.246 . S
C19 O3 1.245 . S
C19 O4 1.259 1_545 S
Tb20 O23 2.453 . S
Tb20 O24 2.596 1_545 S
Tb20 O25 2.374 1_655 S
Tb20 O33 2.343 1_655 S
Tb20 O35 2.353 . S
Tb20 O37 2.427 1_655 S
Tb20 O38 2.513 1_655 S
C21 O25 1.251 . S
C21 O27 1.263 1_545 S
Tb22 O24 2.343 1_455 S
Tb22 O27 2.353 . S
Tb22 O30 2.427 1_455 S
Tb22 O31 2.513 1_455 S
Tb22 O32 2.453 . S
Tb22 O33 2.596 1_565 S
Tb22 O34 2.374 1_455 S
O23 Tb20 2.453 . S
O23 C39 1.245 . S
O24 Tb20 2.596 1_565 S
O24 Tb22 2.343 1_655 S
O24 C39 1.259 1_565 S
O25 Tb20 2.374 1_455 S
O25 C21 1.251 . S
C26 O30 1.275 . S
C26 O31 1.246 . S
O27 C21 1.263 1_565 S
O27 Tb22 2.353 . S
C28 O32 1.245 . S
C28 O33 1.259 1_565 S
C29 O34 1.250 . S
C29 O35 1.263 1_565 S
O30 Tb22 2.427 1_655 S
O30 C26 1.275 . S
O31 Tb22 2.513 1_655 S
O31 C26 1.246 . S
O32 Tb22 2.453 . S
O32 C28 1.245 . S
O33 Tb20 2.343 1_455 S
O33 Tb22 2.596 1_545 S
O33 C28 1.259 1_545 S
O34 Tb22 2.374 1_655 S
O34 C29 1.250 . S
O35 Tb20 2.353 . S
O35 C29 1.263 1_545 S
C36 O37 1.275 . S
C36 O38 1.246 . S
O37 Tb20 2.427 1_455 S
O37 C36 1.275 . S
O38 Tb20 2.513 1_455 S
O38 C36 1.246 . S
C39 O23 1.245 . S
C39 O24 1.259 1_545 S
Tb40 O43 2.453 . S
Tb40 O44 2.596 . S
Tb40 O45 2.374 1_554 S
Tb40 O53 2.343 1_554 S
Tb40 O55 2.353 . S
Tb40 O57 2.427 . S
Tb40 O58 2.513 1_554 S
C41 O45 1.251 . S
C41 O47 1.263 . S
Tb42 O44 2.343 1_556 S
Tb42 O47 2.353 . S
Tb42 O50 2.427 . S
Tb42 O51 2.513 1_556 S
Tb42 O52 2.453 . S
Tb42 O53 2.596 . S
Tb42 O54 2.374 1_556 S
O43 Tb40 2.453 . S
O43 C59 1.245 . S
O44 Tb40 2.596 . S
O44 Tb42 2.343 1_554 S
O44 C59 1.259 . S
O45 Tb40 2.374 1_556 S
O45 C41 1.251 . S
C46 O50 1.275 1_554 S
C46 O51 1.246 . S
O47 C41 1.263 . S
O47 Tb42 2.353 . S
C48 O52 1.245 . S
C48 O53 1.259 . S
C49 O54 1.250 . S
C49 O55 1.263 . S
O50 Tb42 2.427 . S
O50 C46 1.275 1_556 S
O51 Tb42 2.513 1_554 S
O51 C46 1.246 . S
O52 Tb42 2.453 . S
O52 C48 1.245 . S
O53 Tb40 2.343 1_556 S
O53 Tb42 2.596 . S
O53 C48 1.259 . S
O54 Tb42 2.374 1_554 S
O54 C49 1.250 . S
O55 Tb40 2.353 . S
O55 C49 1.263 . S
C56 O57 1.275 1_556 S
C56 O58 1.246 . S
O57 Tb40 2.427 . S
O57 C56 1.275 1_554 S
O58 Tb40 2.513 1_556 S
O58 C56 1.246 . S
C59 O43 1.245 . S
C59 O44 1.259 . S
Tb60 O63 2.453 . S
Tb60 O64 2.596 . S
Tb60 O65 2.374 . S
Tb60 O73 2.343 . S
Tb60 O75 2.353 . S
Tb60 O77 2.427 . S
Tb60 O78 2.513 . S
C61 O65 1.251 . S
C61 O67 1.263 . S
Tb62 O64 2.343 . S
Tb62 O67 2.353 . S
Tb62 O70 2.427 . S
Tb62 O71 2.513 . S
Tb62 O72 2.453 . S
Tb62 O73 2.596 . S
Tb62 O74 2.374 . S
O63 Tb60 2.453 . S
O63 C79 1.245 . S
O64 Tb60 2.596 . S
O64 Tb62 2.343 . S
O64 C79 1.259 . S
O65 Tb60 2.374 . S
O65 C61 1.251 . S
C66 O70 1.275 . S
C66 O71 1.246 . S
O67 C61 1.263 . S
O67 Tb62 2.353 . S
C68 O72 1.245 . S
C68 O73 1.259 . S
C69 O74 1.250 . S
C69 O75 1.263 . S
O70 Tb62 2.427 . S
O70 C66 1.275 . S
O71 Tb62 2.513 . S
O71 C66 1.246 . S
O72 Tb62 2.453 . S
O72 C68 1.245 . S
O73 Tb60 2.343 . S
O73 Tb62 2.596 . S
O73 C68 1.259 . S
O74 Tb62 2.374 . S
O74 C69 1.250 . S
O75 Tb60 2.353 . S
O75 C69 1.263 . S
C76 O77 1.275 . S
C76 O78 1.246 . S
O77 Tb60 2.427 . S
O77 C76 1.275 . S
O78 Tb60 2.513 . S
O78 C76 1.246 . S
C79 O63 1.245 . S
C79 O64 1.259 . S
H80 C92 0.930 1_554 S
H81 C94 0.930 . S
H82 C95 0.930 . S
H83 C99 0.959 . S
H84 C99 0.959 . S
H85 C99 0.961 . S
H86 C100 0.960 . S
H87 C100 0.961 . S
H88 C100 0.959 . S
H89 C103 0.929 . S
H90 C104 0.931 . S
H91 C106 0.930 . S
C92 H80 0.930 1_556 S
C92 C93 1.399 . S
C92 C97 1.399 . S
C93 C92 1.399 . S
C93 C94 1.376 . S
C94 H81 0.930 . S
C94 C93 1.376 . S
C94 C95 1.388 . S
C95 H82 0.930 . S
C95 C94 1.388 . S
C95 C96 1.390 . S
C96 C95 1.390 . S
C96 C97 1.394 . S
C96 C102 1.465 . S
C97 C92 1.399 . S
C97 C96 1.394 . S
C97 C98 1.516 . S
C98 C97 1.516 . S
C98 C99 1.502 1_556 S
C98 C100 1.561 . S
C98 C101 1.526 . S
C99 H83 0.959 . S
C99 H84 0.959 . S
C99 H85 0.961 . S
C99 C98 1.502 1_554 S
C100 H86 0.960 . S
C100 H87 0.961 . S
C100 H88 0.959 . S
C100 C98 1.561 . S
C101 C98 1.526 . S
C101 C102 1.396 . S
C101 C106 1.390 1_556 S
C102 C96 1.465 . S
C102 C101 1.396 . S
C102 C103 1.399 . S
C103 H89 0.929 . S
C103 C102 1.399 . S
C103 C104 1.385 . S
C104 H90 0.931 . S
C104 C103 1.385 . S
C104 C105 1.389 1_556 S
C105 C104 1.389 1_554 S
C105 C106 1.387 . S
C106 H91 0.930 . S
C106 C101 1.390 1_554 S
C106 C105 1.387 . S
H107 C119 0.930 . S
H108 C121 0.930 . S
H109 C122 0.930 . S
H110 C126 0.959 . S
H111 C126 0.959 . S
H112 C126 0.961 . S
H113 C127 0.960 . S
H114 C127 0.961 . S
H115 C127 0.959 . S
H116 C130 0.929 . S
H117 C131 0.931 . S
H118 C133 0.930 . S
C119 H107 0.930 . S
C119 C120 1.399 1_556 S
C119 C124 1.399 . S
C120 C119 1.399 1_554 S
C120 C121 1.376 . S
C121 H108 0.930 . S
C121 C120 1.376 . S
C121 C122 1.388 . S
C122 H109 0.930 . S
C122 C121 1.388 . S
C122 C123 1.390 . S
C123 C122 1.390 . S
C123 C124 1.394 1_554 S
C123 C129 1.465 . S
C124 C119 1.399 . S
C124 C123 1.394 1_556 S
C124 C125 1.516 . S
C125 C124 1.516 . S
C125 C126 1.502 . S
C125 C127 1.561 . S
C125 C128 1.526 . S
C126 H110 0.959 . S
C126 H111 0.959 . S
C126 H112 0.961 . S
C126 C125 1.502 . S
C127 H113 0.960 . S
C127 H114 0.961 . S
C127 H115 0.959 . S
C127 C125 1.561 . S
C128 C125 1.526 . S
C128 C129 1.396 1_556 S
C128 C133 1.390 . S
C129 C123 1.465 . S
C129 C128 1.396 1_554 S
C129 C130 1.399 . S
C130 H116 0.929 . S
C130 C129 1.399 . S
C130 C131 1.385 . S
C131 H117 0.931 . S
C131 C130 1.385 . S
C131 C132 1.389 . S
C132 C131 1.389 . S
C132 C133 1.387 1_554 S
C133 H118 0.930 . S
C133 C128 1.390 . S
C133 C132 1.387 1_556 S
H134 C146 0.930 . S
H135 C148 0.930 . S
H136 C149 0.930 . S
H137 C153 0.959 . S
H138 C153 0.959 . S
H139 C153 0.961 . S
H140 C154 0.960 . S
H141 C154 0.961 . S
H142 C154 0.959 . S
H143 C157 0.929 . S
H144 C158 0.931 . S
H145 C160 0.930 . S
C146 H134 0.930 . S
C146 C147 1.399 . S
C146 C151 1.399 . S
C147 C146 1.399 . S
C147 C148 1.376 . S
C148 H135 0.930 . S
C148 C147 1.376 . S
C148 C149 1.388 . S
C149 H136 0.930 . S
C149 C148 1.388 . S
C149 C150 1.390 . S
C150 C149 1.390 . S
C150 C151 1.394 . S
C150 C156 1.465 . S
C151 C146 1.399 . S
C151 C150 1.394 . S
C151 C152 1.516 . S
C152 C151 1.516 . S
C152 C153 1.502 . S
C152 C154 1.561 . S
C152 C155 1.526 . S
C153 H137 0.959 . S
C153 H138 0.959 . S
C153 H139 0.961 . S
C153 C152 1.502 . S
C154 H140 0.960 . S
C154 H141 0.961 . S
C154 H142 0.959 . S
C154 C152 1.561 . S
C155 C152 1.526 . S
C155 C156 1.396 . S
C155 C160 1.390 . S
C156 C150 1.465 . S
C156 C155 1.396 . S
C156 C157 1.399 . S
C157 H143 0.929 . S
C157 C156 1.399 . S
C157 C158 1.385 . S
C158 H144 0.931 . S
C158 C157 1.385 . S
C158 C159 1.389 . S
C159 C158 1.389 . S
C159 C160 1.387 . S
C160 H145 0.930 . S
C160 C155 1.390 . S
C160 C159 1.387 . S
H161 C173 0.930 . S
H162 C175 0.930 . S
H163 C176 0.930 . S
H164 C180 0.959 . S
H165 C180 0.959 . S
H166 C180 0.961 . S
H167 C181 0.960 . S
H168 C181 0.961 . S
H169 C181 0.959 . S
H170 C184 0.929 . S
H171 C185 0.931 . S
H172 C187 0.930 . S
C173 H161 0.930 . S
C173 C174 1.399 . S
C173 C178 1.399 . S
C174 C173 1.399 . S
C174 C175 1.376 . S
C175 H162 0.930 . S
C175 C174 1.376 . S
C175 C176 1.388 . S
C176 H163 0.930 . S
C176 C175 1.388 . S
C176 C177 1.390 . S
C177 C176 1.390 . S
C177 C178 1.394 . S
C177 C183 1.465 . S
C178 C173 1.399 . S
C178 C177 1.394 . S
C178 C179 1.516 . S
C179 C178 1.516 . S
C179 C180 1.502 . S
C179 C181 1.561 . S
C179 C182 1.526 . S
C180 H164 0.959 . S
C180 H165 0.959 . S
C180 H166 0.961 . S
C180 C179 1.502 . S
C181 H167 0.960 . S
C181 H168 0.961 . S
C181 H169 0.959 . S
C181 C179 1.561 . S
C182 C179 1.526 . S
C182 C183 1.396 . S
C182 C187 1.390 . S
C183 C177 1.465 . S
C183 C182 1.396 . S
C183 C184 1.399 . S
C184 H170 0.929 . S
C184 C183 1.399 . S
C184 C185 1.385 . S
C185 H171 0.931 . S
C185 C184 1.385 . S
C185 C186 1.389 . S
C186 C185 1.389 . S
C186 C187 1.387 . S
C187 H172 0.930 . S
C187 C182 1.390 . S
C187 C186 1.387 . S
H188 C200 0.930 . S
H189 C202 0.930 . S
H190 C203 0.930 . S
H191 C207 0.959 . S
H192 C207 0.959 . S
H193 C207 0.961 . S
H194 C208 0.960 . S
H195 C208 0.961 . S
H196 C208 0.959 . S
H197 C211 0.929 . S
H198 C212 0.930 . S
H199 C214 0.930 . S
C200 H188 0.930 . S
C200 C201 1.399 . S
C200 C205 1.399 . S
C201 C200 1.399 . S
C201 C202 1.376 1_565 S
C202 H189 0.930 . S
C202 C201 1.376 1_545 S
C202 C203 1.388 . S
C203 H190 0.930 . S
C203 C202 1.388 . S
C203 C204 1.390 . S
C204 C203 1.390 . S
C204 C205 1.394 1_545 S
C204 C210 1.465 . S
C205 C200 1.399 . S
C205 C204 1.394 1_565 S
C205 C206 1.516 . S
C206 C205 1.516 . S
C206 C207 1.502 1_556 S
C206 C208 1.561 . S
C206 C209 1.526 . S
C207 H191 0.959 . S
C207 H192 0.959 . S
C207 H193 0.961 . S
C207 C206 1.502 1_554 S
C208 H194 0.960 . S
C208 H195 0.961 . S
C208 H196 0.959 . S
C208 C206 1.561 . S
C209 C206 1.526 . S
C209 C210 1.396 1_565 S
C209 C214 1.390 . S
C210 C204 1.465 . S
C210 C209 1.396 1_545 S
C210 C211 1.399 . S
C211 H197 0.929 . S
C211 C210 1.399 . S
C211 C212 1.387 1_556 S
C212 H198 0.930 . S
C212 C211 1.387 1_554 S
C212 C213 1.390 . S
C213 C212 1.390 . S
C213 C214 1.389 1_544 S
C214 H199 0.930 . S
C214 C209 1.390 . S
C214 C213 1.389 1_566 S
H215 C227 0.930 . S
H216 C229 0.930 . S
H217 C230 0.930 . S
H218 C234 0.959 . S
H219 C234 0.959 . S
H220 C234 0.961 . S
H221 C235 0.960 . S
H222 C235 0.961 . S
H223 C235 0.959 . S
H224 C238 0.929 . S
H225 C239 0.931 . S
H226 C241 0.930 . S
C227 H215 0.930 . S
C227 C228 1.399 . S
C227 C232 1.399 . S
C228 C227 1.399 . S
C228 C229 1.376 1_545 S
C229 H216 0.930 . S
C229 C228 1.376 1_565 S
C229 C230 1.388 . S
C230 H217 0.930 . S
C230 C229 1.388 . S
C230 C231 1.390 . S
C231 C230 1.390 . S
C231 C232 1.394 1_565 S
C231 C237 1.465 . S
C232 C227 1.399 . S
C232 C231 1.394 1_545 S
C232 C233 1.516 . S
C233 C232 1.516 . S
C233 C234 1.502 . S
C233 C235 1.561 . S
C233 C236 1.526 . S
C234 H218 0.959 . S
C234 H219 0.959 . S
C234 H220 0.961 . S
C234 C233 1.502 . S
C235 H221 0.960 . S
C235 H222 0.961 . S
C235 H223 0.959 . S
C235 C233 1.561 . S
C236 C233 1.526 . S
C236 C237 1.396 1_545 S
C236 C241 1.390 . S
C237 C231 1.465 . S
C237 C236 1.396 1_565 S
C237 C238 1.399 . S
C238 H224 0.929 . S
C238 C237 1.399 . S
C238 C239 1.385 . S
C239 H225 0.931 . S
C239 C238 1.385 . S
C239 C240 1.389 . S
C240 C239 1.389 . S
C240 C241 1.387 1_565 S
C241 H226 0.930 . S
C241 C236 1.390 . S
C241 C240 1.387 1_545 S
H242 C254 0.930 . S
H243 C256 0.930 . S
H244 C257 0.930 . S
H245 C261 0.959 . S
H246 C261 0.959 1_455 S
H247 C261 0.961 . S
H248 C262 0.960 1_655 S
H249 C262 0.961 . S
H250 C262 0.959 . S
H251 C265 0.929 . S
H252 C266 0.931 . S
H253 C268 0.927 1_556 S
C254 H242 0.930 . S
C254 C255 1.399 1_556 S
C254 C259 1.399 1_556 S
C255 C254 1.399 1_554 S
C255 C256 1.376 . S
C256 H243 0.930 . S
C256 C255 1.376 . S
C256 C257 1.388 . S
C257 H244 0.930 . S
C257 C256 1.388 . S
C257 C258 1.390 . S
C258 C257 1.390 . S
C258 C259 1.394 . S
C258 C264 1.465 1_655 S
C259 C254 1.399 1_554 S
C259 C258 1.394 . S
C259 C260 1.516 . S
C260 C259 1.516 . S
C260 C261 1.502 1_554 S
C260 C262 1.561 1_655 S
C260 C263 1.526 1_655 S
C261 H245 0.959 . S
C261 H246 0.959 1_655 S
C261 H247 0.961 . S
C261 C260 1.502 1_556 S
C262 H248 0.960 1_455 S
C262 H249 0.961 . S
C262 H250 0.959 . S
C262 C260 1.561 1_455 S
C263 C260 1.526 1_455 S
C263 C264 1.396 . S
C263 C268 1.397 . S
C264 C258 1.465 1_455 S
C264 C263 1.396 . S
C264 C265 1.399 . S
C265 H251 0.929 . S
C265 C264 1.399 . S
C265 C266 1.385 . S
C266 H252 0.931 . S
C266 C265 1.385 . S
C266 C267 1.389 . S
C267 C266 1.389 . S
C267 C268 1.383 . S
C268 H253 0.927 1_554 S
C268 C263 1.397 . S
C268 C267 1.383 . S
H269 C281 0.930 . S
H270 C283 0.930 . S
H271 C284 0.930 . S
H272 C288 0.959 . S
H273 C288 0.959 . S
H274 C288 0.961 1_455 S
H275 C289 0.960 . S
H276 C289 0.961 1_655 S
H277 C289 0.959 . S
H278 C292 0.929 . S
H279 C293 0.931 . S
H280 C295 0.930 . S
C281 H269 0.930 . S
C281 C282 1.399 . S
C281 C286 1.399 . S
C282 C281 1.399 . S
C282 C283 1.376 . S
C283 H270 0.930 . S
C283 C282 1.376 . S
C283 C284 1.388 . S
C284 H271 0.930 . S
C284 C283 1.388 . S
C284 C285 1.390 . S
C285 C284 1.390 . S
C285 C286 1.394 . S
C285 C291 1.465 1_455 S
C286 C281 1.399 . S
C286 C285 1.394 . S
C286 C287 1.516 . S
C287 C286 1.516 . S
C287 C288 1.502 1_455 S
C287 C289 1.561 . S
C287 C290 1.526 1_455 S
C288 H272 0.959 . S
C288 H273 0.959 . S
C288 H274 0.961 1_655 S
C288 C287 1.502 1_655 S
C289 H275 0.960 . S
C289 H276 0.961 1_455 S
C289 H277 0.959 . S
C289 C287 1.561 . S
C290 C287 1.526 1_655 S
C290 C291 1.396 . S
C290 C295 1.390 . S
C291 C285 1.465 1_655 S
C291 C290 1.396 . S
C291 C292 1.399 . S
C292 H278 0.929 . S
C292 C291 1.399 . S
C292 C293 1.385 . S
C293 H279 0.931 . S
C293 C292 1.385 . S
C293 C294 1.389 . S
C294 C293 1.389 . S
C294 C295 1.387 . S
C295 H280 0.930 . S
C295 C290 1.390 . S
C295 C294 1.387 . S
H296 C308 0.930 . S
H297 C310 0.930 . S
H298 C311 0.930 . S
H299 C315 0.959 . S
H300 C315 0.959 . S
H301 C315 0.961 . S
H302 C316 0.960 . S
H303 C316 0.961 . S
H304 C316 0.959 . S
H305 C319 0.929 . S
H306 C320 0.931 . S
H307 C322 0.930 . S
C308 H296 0.930 . S
C308 C309 1.399 1_465 S
C308 C313 1.399 . S
C309 C308 1.399 1_645 S
C309 C310 1.376 . S
C310 H297 0.930 . S
C310 C309 1.376 . S
C310 C311 1.388 . S
C311 H298 0.930 . S
C311 C310 1.388 . S
C311 C312 1.390 . S
C312 C311 1.390 . S
C312 C313 1.394 1_645 S
C312 C318 1.465 . S
C313 C308 1.399 . S
C313 C312 1.394 1_465 S
C313 C314 1.516 . S
C314 C313 1.516 . S
C314 C315 1.502 . S
C314 C316 1.561 1_455 S
C314 C317 1.526 . S
C315 H299 0.959 . S
C315 H300 0.959 . S
C315 H301 0.961 . S
C315 C314 1.502 . S
C316 H302 0.960 . S
C316 H303 0.961 . S
C316 H304 0.959 . S
C316 C314 1.561 1_655 S
C317 C314 1.526 . S
C317 C318 1.396 1_465 S
C317 C322 1.390 . S
C318 C312 1.465 . S
C318 C317 1.396 1_645 S
C318 C319 1.399 . S
C319 H305 0.929 . S
C319 C318 1.399 . S
C319 C320 1.385 . S
C320 H306 0.931 . S
C320 C319 1.385 . S
C320 C321 1.389 . S
C321 C320 1.389 . S
C321 C322 1.387 1_645 S
C322 H307 0.930 . S
C322 C317 1.390 . S
C322 C321 1.387 1_465 S
H323 C335 0.930 . S
H324 C337 0.930 . S
H325 C338 0.930 . S
H326 C342 0.959 . S
H327 C342 0.959 . S
H328 C342 0.961 . S
H329 C343 0.960 . S
H330 C343 0.961 . S
H331 C343 0.959 . S
H332 C346 0.929 . S
H333 C347 0.931 . S
H334 C349 0.930 . S
C335 H323 0.930 . S
C335 C336 1.399 1_465 S
C335 C340 1.399 . S
C336 C335 1.399 1_645 S
C336 C337 1.376 . S
C337 H324 0.930 . S
C337 C336 1.376 . S
C337 C338 1.388 . S
C338 H325 0.930 . S
C338 C337 1.388 . S
C338 C339 1.390 . S
C339 C338 1.390 . S
C339 C340 1.394 1_645 S
C339 C345 1.465 . S
C340 C335 1.399 . S
C340 C339 1.394 1_465 S
C340 C341 1.516 . S
C341 C340 1.516 . S
C341 C342 1.502 . S
C341 C343 1.561 1_455 S
C341 C344 1.526 . S
C342 H326 0.959 . S
C342 H327 0.959 . S
C342 H328 0.961 . S
C342 C341 1.502 . S
C343 H329 0.960 . S
C343 H330 0.961 . S
C343 H331 0.959 . S
C343 C341 1.561 1_655 S
C344 C341 1.526 . S
C344 C345 1.396 1_465 S
C344 C349 1.390 . S
C345 C339 1.465 . S
C345 C344 1.396 1_645 S
C345 C346 1.399 . S
C346 H332 0.929 . S
C346 C345 1.399 . S
C346 C347 1.385 . S
C347 H333 0.931 . S
C347 C346 1.385 . S
C347 C348 1.389 . S
C348 C347 1.389 . S
C348 C349 1.387 1_645 S
C349 H334 0.930 . S
C349 C344 1.390 . S
C349 C348 1.387 1_465 S
H350 C362 0.930 . S
H351 C364 0.930 . S
H352 C365 0.930 . S
H353 C369 0.959 . S
H354 C369 0.959 . S
H355 C369 0.961 . S
H356 C370 0.960 . S
H357 C370 0.961 . S
H358 C370 0.959 . S
H359 C373 0.929 . S
H360 C374 0.931 . S
H361 C376 0.930 . S
C362 H350 0.930 . S
C362 C363 1.399 . S
C362 C367 1.399 . S
C363 C362 1.399 . S
C363 C364 1.376 . S
C364 H351 0.930 . S
C364 C363 1.376 . S
C364 C365 1.388 . S
C365 H352 0.930 . S
C365 C364 1.388 . S
C365 C366 1.390 . S
C366 C365 1.390 . S
C366 C367 1.394 . S
C366 C372 1.465 . S
C367 C362 1.399 . S
C367 C366 1.394 . S
C367 C368 1.516 . S
C368 C367 1.516 . S
C368 C369 1.502 . S
C368 C370 1.561 . S
C368 C371 1.526 . S
C369 H353 0.959 . S
C369 H354 0.959 . S
C369 H355 0.961 . S
C369 C368 1.502 . S
C370 H356 0.960 . S
C370 H357 0.961 . S
C370 H358 0.959 . S
C370 C368 1.561 . S
C371 C368 1.526 . S
C371 C372 1.396 . S
C371 C376 1.390 . S
C372 C366 1.465 . S
C372 C371 1.396 . S
C372 C373 1.399 . S
C373 H359 0.929 . S
C373 C372 1.399 . S
C373 C374 1.385 . S
C374 H360 0.931 . S
C374 C373 1.385 . S
C374 C375 1.389 . S
C375 C374 1.389 . S
C375 C376 1.387 . S
C376 H361 0.930 . S
C376 C371 1.390 . S
C376 C375 1.387 . S
H377 C389 0.930 . S
H378 C391 0.930 . S
H379 C392 0.930 . S
H380 C396 0.959 . S
H381 C396 0.959 . S
H382 C396 0.961 . S
H383 C397 0.960 . S
H384 C397 0.961 . S
H385 C397 0.959 . S
H386 C400 0.929 . S
H387 C401 0.931 . S
H388 C403 0.930 . S
C389 H377 0.930 . S
C389 C390 1.399 . S
C389 C394 1.399 . S
C390 C389 1.399 . S
C390 C391 1.376 . S
C391 H378 0.930 . S
C391 C390 1.376 . S
C391 C392 1.388 . S
C392 H379 0.930 . S
C392 C391 1.388 . S
C392 C393 1.390 . S
C393 C392 1.390 . S
C393 C394 1.394 . S
C393 C399 1.465 . S
C394 C389 1.399 . S
C394 C393 1.394 . S
C394 C395 1.516 . S
C395 C394 1.516 . S
C395 C396 1.502 . S
C395 C397 1.561 . S
C395 C398 1.526 . S
C396 H380 0.959 . S
C396 H381 0.959 . S
C396 H382 0.961 . S
C396 C395 1.502 . S
C397 H383 0.960 . S
C397 H384 0.961 . S
C397 H385 0.959 . S
C397 C395 1.561 . S
C398 C395 1.526 . S
C398 C399 1.396 . S
C398 C403 1.390 . S
C399 C393 1.465 . S
C399 C398 1.396 . S
C399 C400 1.399 . S
C400 H386 0.929 . S
C400 C399 1.399 . S
C400 C401 1.385 . S
C401 H387 0.931 . S
C401 C400 1.385 . S
C401 C402 1.389 . S
C402 C401 1.389 . S
C402 C403 1.387 . S
C403 H388 0.930 . S
C403 C398 1.390 . S
C403 C402 1.387 . S
C93 C56 1.511 . S
C105 C6 1.440 . S
C120 C46 1.504 . S
C132 C16 1.461 1_554 S
C147 C36 1.455 . S
C159 C66 1.489 . S
C174 C26 1.503 . S
C186 C76 1.463 . S
C201 C19 1.748 1_566 S
C213 C8 1.804 1_544 S
C228 C28 1.737 1_545 S
C240 C39 1.814 1_565 S
C255 C59 1.801 . S
C267 C48 1.743 1_554 S
C282 C79 1.741 . S
C294 C68 1.814 . S
C309 C29 1.468 1_545 S
C321 C9 1.492 1_645 S
C336 C1 1.463 . S
C348 C21 1.490 1_655 S
C363 C69 1.489 . S
C375 C49 1.469 . S
C390 C61 1.465 . S
C402 C41 1.487 . S
