# Generated by pormake.
# Topology ulg, (4)-cn, num edge types: 1
# Building blocks:
#     Node 0, Type 0, BuildingBlock: CEKHIL_clean_sbu_0, # of connection points: 4
#     Node 1, Type 0, BuildingBlock: CEKHIL_clean_sbu_0, # of connection points: 4
#     Node 2, Type 0, BuildingBlock: CEKHIL_clean_sbu_0, # of connection points: 4
#     Node 3, Type 0, BuildingBlock: CEKHIL_clean_sbu_0, # of connection points: 4
#     Node 4, Type 0, BuildingBlock: CEKHIL_clean_sbu_0, # of connection points: 4
#     Node 5, Type 0, BuildingBlock: CEKHIL_clean_sbu_0, # of connection points: 4
#     Node 6, Type 0, BuildingBlock: CEKHIL_clean_sbu_0, # of connection points: 4
#     Node 7, Type 0, BuildingBlock: CEKHIL_clean_sbu_0, # of connection points: 4
#     Node 8, Type 0, BuildingBlock: CEKHIL_clean_sbu_0, # of connection points: 4
#     Node 9, Type 0, BuildingBlock: CEKHIL_clean_sbu_0, # of connection points: 4
#     Node 10, Type 0, BuildingBlock: CEKHIL_clean_sbu_0, # of connection points: 4
#     Node 11, Type 0, BuildingBlock: CEKHIL_clean_sbu_0, # of connection points: 4
#     Node 12, Type 0, BuildingBlock: CEKHIL_clean_sbu_0, # of connection points: 4
#     Node 13, Type 0, BuildingBlock: CEKHIL_clean_sbu_0, # of connection points: 4
#     Node 14, Type 0, BuildingBlock: CEKHIL_clean_sbu_0, # of connection points: 4
#     Node 15, Type 0, BuildingBlock: CEKHIL_clean_sbu_0, # of connection points: 4
#     Node 16, Type 0, BuildingBlock: CEKHIL_clean_sbu_0, # of connection points: 4
#     Node 17, Type 0, BuildingBlock: CEKHIL_clean_sbu_0, # of connection points: 4
#     Node 18, Type 0, BuildingBlock: CEKHIL_clean_sbu_0, # of connection points: 4
#     Node 19, Type 0, BuildingBlock: CEKHIL_clean_sbu_0, # of connection points: 4
#     Node 20, Type 0, BuildingBlock: CEKHIL_clean_sbu_0, # of connection points: 4
#     Node 21, Type 0, BuildingBlock: CEKHIL_clean_sbu_0, # of connection points: 4
#     Node 22, Type 0, BuildingBlock: CEKHIL_clean_sbu_0, # of connection points: 4
#     Node 23, Type 0, BuildingBlock: CEKHIL_clean_sbu_0, # of connection points: 4
#     Node 24, Type 0, BuildingBlock: CEKHIL_clean_sbu_0, # of connection points: 4
#     Node 25, Type 0, BuildingBlock: CEKHIL_clean_sbu_0, # of connection points: 4
#     Node 26, Type 0, BuildingBlock: CEKHIL_clean_sbu_0, # of connection points: 4
#     Node 27, Type 0, BuildingBlock: CEKHIL_clean_sbu_0, # of connection points: 4
#     Node 28, Type 0, BuildingBlock: CEKHIL_clean_sbu_0, # of connection points: 4
#     Node 29, Type 0, BuildingBlock: CEKHIL_clean_sbu_0, # of connection points: 4
#     Node 30, Type 0, BuildingBlock: CEKHIL_clean_sbu_0, # of connection points: 4
#     Node 31, Type 0, BuildingBlock: CEKHIL_clean_sbu_0, # of connection points: 4
#     Node 32, Type 0, BuildingBlock: CEKHIL_clean_sbu_0, # of connection points: 4
#     Node 33, Type 0, BuildingBlock: CEKHIL_clean_sbu_0, # of connection points: 4
#     Node 34, Type 0, BuildingBlock: CEKHIL_clean_sbu_0, # of connection points: 4
#     Node 35, Type 0, BuildingBlock: CEKHIL_clean_sbu_0, # of connection points: 4
#     Node 36, Type 0, BuildingBlock: CEKHIL_clean_sbu_0, # of connection points: 4
#     Node 37, Type 0, BuildingBlock: CEKHIL_clean_sbu_0, # of connection points: 4
#     Node 38, Type 0, BuildingBlock: CEKHIL_clean_sbu_0, # of connection points: 4
#     Node 39, Type 0, BuildingBlock: CEKHIL_clean_sbu_0, # of connection points: 4
#     Node 40, Type 0, BuildingBlock: CEKHIL_clean_sbu_0, # of connection points: 4
#     Node 41, Type 0, BuildingBlock: CEKHIL_clean_sbu_0, # of connection points: 4
#     Node 42, Type 0, BuildingBlock: CEKHIL_clean_sbu_0, # of connection points: 4
#     Node 43, Type 0, BuildingBlock: CEKHIL_clean_sbu_0, # of connection points: 4
#     Node 44, Type 0, BuildingBlock: CEKHIL_clean_sbu_0, # of connection points: 4
#     Node 45, Type 0, BuildingBlock: CEKHIL_clean_sbu_0, # of connection points: 4
#     Node 46, Type 0, BuildingBlock: CEKHIL_clean_sbu_0, # of connection points: 4
#     Node 47, Type 0, BuildingBlock: CEKHIL_clean_sbu_0, # of connection points: 4
#     Node 48, Type 0, BuildingBlock: CEKHIL_clean_sbu_0, # of connection points: 4
#     Node 49, Type 0, BuildingBlock: CEKHIL_clean_sbu_0, # of connection points: 4
#     Node 50, Type 0, BuildingBlock: CEKHIL_clean_sbu_0, # of connection points: 4
#     Node 51, Type 0, BuildingBlock: CEKHIL_clean_sbu_0, # of connection points: 4
#     Node 52, Type 0, BuildingBlock: CEKHIL_clean_sbu_0, # of connection points: 4
#     Node 53, Type 0, BuildingBlock: CEKHIL_clean_sbu_0, # of connection points: 4
#     Node 54, Type 0, BuildingBlock: CEKHIL_clean_sbu_0, # of connection points: 4
#     Node 55, Type 0, BuildingBlock: CEKHIL_clean_sbu_0, # of connection points: 4
#     Node 56, Type 0, BuildingBlock: CEKHIL_clean_sbu_0, # of connection points: 4
#     Node 57, Type 0, BuildingBlock: CEKHIL_clean_sbu_0, # of connection points: 4
#     Node 58, Type 0, BuildingBlock: CEKHIL_clean_sbu_0, # of connection points: 4
#     Node 59, Type 0, BuildingBlock: CEKHIL_clean_sbu_0, # of connection points: 4
#     Node 60, Type 0, BuildingBlock: CEKHIL_clean_sbu_0, # of connection points: 4
#     Node 61, Type 0, BuildingBlock: CEKHIL_clean_sbu_0, # of connection points: 4
#     Node 62, Type 0, BuildingBlock: CEKHIL_clean_sbu_0, # of connection points: 4
#     Node 63, Type 0, BuildingBlock: CEKHIL_clean_sbu_0, # of connection points: 4
#     Node 64, Type 0, BuildingBlock: CEKHIL_clean_sbu_0, # of connection points: 4
#     Node 65, Type 0, BuildingBlock: CEKHIL_clean_sbu_0, # of connection points: 4
#     Node 66, Type 0, BuildingBlock: CEKHIL_clean_sbu_0, # of connection points: 4
#     Node 67, Type 0, BuildingBlock: CEKHIL_clean_sbu_0, # of connection points: 4
#     Node 68, Type 0, BuildingBlock: CEKHIL_clean_sbu_0, # of connection points: 4
#     Node 69, Type 0, BuildingBlock: CEKHIL_clean_sbu_0, # of connection points: 4
#     Node 70, Type 0, BuildingBlock: CEKHIL_clean_sbu_0, # of connection points: 4
#     Node 71, Type 0, BuildingBlock: CEKHIL_clean_sbu_0, # of connection points: 4
#     Node 72, Type 0, BuildingBlock: CEKHIL_clean_sbu_0, # of connection points: 4
#     Node 73, Type 0, BuildingBlock: CEKHIL_clean_sbu_0, # of connection points: 4
#     Node 74, Type 0, BuildingBlock: CEKHIL_clean_sbu_0, # of connection points: 4
#     Node 75, Type 0, BuildingBlock: CEKHIL_clean_sbu_0, # of connection points: 4
#     Node 76, Type 0, BuildingBlock: CEKHIL_clean_sbu_0, # of connection points: 4
#     Node 77, Type 0, BuildingBlock: CEKHIL_clean_sbu_0, # of connection points: 4
#     Node 78, Type 0, BuildingBlock: CEKHIL_clean_sbu_0, # of connection points: 4
#     Node 79, Type 0, BuildingBlock: CEKHIL_clean_sbu_0, # of connection points: 4
#     Node 80, Type 0, BuildingBlock: CEKHIL_clean_sbu_0, # of connection points: 4
#     Node 81, Type 0, BuildingBlock: CEKHIL_clean_sbu_0, # of connection points: 4
#     Node 82, Type 0, BuildingBlock: CEKHIL_clean_sbu_0, # of connection points: 4
#     Node 83, Type 0, BuildingBlock: CEKHIL_clean_sbu_0, # of connection points: 4
#     Node 84, Type 0, BuildingBlock: CEKHIL_clean_sbu_0, # of connection points: 4
#     Node 85, Type 0, BuildingBlock: CEKHIL_clean_sbu_0, # of connection points: 4
#     Node 86, Type 0, BuildingBlock: CEKHIL_clean_sbu_0, # of connection points: 4
#     Node 87, Type 0, BuildingBlock: CEKHIL_clean_sbu_0, # of connection points: 4
#     Node 88, Type 0, BuildingBlock: CEKHIL_clean_sbu_0, # of connection points: 4
#     Node 89, Type 0, BuildingBlock: CEKHIL_clean_sbu_0, # of connection points: 4
#     Node 90, Type 0, BuildingBlock: CEKHIL_clean_sbu_0, # of connection points: 4
#     Node 91, Type 0, BuildingBlock: CEKHIL_clean_sbu_0, # of connection points: 4
#     Node 92, Type 0, BuildingBlock: CEKHIL_clean_sbu_0, # of connection points: 4
#     Node 93, Type 0, BuildingBlock: CEKHIL_clean_sbu_0, # of connection points: 4
#     Node 94, Type 0, BuildingBlock: CEKHIL_clean_sbu_0, # of connection points: 4
#     Node 95, Type 0, BuildingBlock: CEKHIL_clean_sbu_0, # of connection points: 4
#     Edge 96, Type (0, 0), BuildingBlock: AJUNOK_clean_linker_0, # of connection points: 2
#     Edge 97, Type (0, 0), BuildingBlock: AJUNOK_clean_linker_0, # of connection points: 2
#     Edge 98, Type (0, 0), BuildingBlock: AJUNOK_clean_linker_0, # of connection points: 2
#     Edge 99, Type (0, 0), BuildingBlock: AJUNOK_clean_linker_0, # of connection points: 2
#     Edge 100, Type (0, 0), BuildingBlock: AJUNOK_clean_linker_0, # of connection points: 2
#     Edge 101, Type (0, 0), BuildingBlock: AJUNOK_clean_linker_0, # of connection points: 2
#     Edge 102, Type (0, 0), BuildingBlock: AJUNOK_clean_linker_0, # of connection points: 2
#     Edge 103, Type (0, 0), BuildingBlock: AJUNOK_clean_linker_0, # of connection points: 2
#     Edge 104, Type (0, 0), BuildingBlock: AJUNOK_clean_linker_0, # of connection points: 2
#     Edge 105, Type (0, 0), BuildingBlock: AJUNOK_clean_linker_0, # of connection points: 2
#     Edge 106, Type (0, 0), BuildingBlock: AJUNOK_clean_linker_0, # of connection points: 2
#     Edge 107, Type (0, 0), BuildingBlock: AJUNOK_clean_linker_0, # of connection points: 2
#     Edge 108, Type (0, 0), BuildingBlock: AJUNOK_clean_linker_0, # of connection points: 2
#     Edge 109, Type (0, 0), BuildingBlock: AJUNOK_clean_linker_0, # of connection points: 2
#     Edge 110, Type (0, 0), BuildingBlock: AJUNOK_clean_linker_0, # of connection points: 2
#     Edge 111, Type (0, 0), BuildingBlock: AJUNOK_clean_linker_0, # of connection points: 2
#     Edge 112, Type (0, 0), BuildingBlock: AJUNOK_clean_linker_0, # of connection points: 2
#     Edge 113, Type (0, 0), BuildingBlock: AJUNOK_clean_linker_0, # of connection points: 2
#     Edge 114, Type (0, 0), BuildingBlock: AJUNOK_clean_linker_0, # of connection points: 2
#     Edge 115, Type (0, 0), BuildingBlock: AJUNOK_clean_linker_0, # of connection points: 2
#     Edge 116, Type (0, 0), BuildingBlock: AJUNOK_clean_linker_0, # of connection points: 2
#     Edge 117, Type (0, 0), BuildingBlock: AJUNOK_clean_linker_0, # of connection points: 2
#     Edge 118, Type (0, 0), BuildingBlock: AJUNOK_clean_linker_0, # of connection points: 2
#     Edge 119, Type (0, 0), BuildingBlock: AJUNOK_clean_linker_0, # of connection points: 2
#     Edge 120, Type (0, 0), BuildingBlock: AJUNOK_clean_linker_0, # of connection points: 2
#     Edge 121, Type (0, 0), BuildingBlock: AJUNOK_clean_linker_0, # of connection points: 2
#     Edge 122, Type (0, 0), BuildingBlock: AJUNOK_clean_linker_0, # of connection points: 2
#     Edge 123, Type (0, 0), BuildingBlock: AJUNOK_clean_linker_0, # of connection points: 2
#     Edge 124, Type (0, 0), BuildingBlock: AJUNOK_clean_linker_0, # of connection points: 2
#     Edge 125, Type (0, 0), BuildingBlock: AJUNOK_clean_linker_0, # of connection points: 2
#     Edge 126, Type (0, 0), BuildingBlock: AJUNOK_clean_linker_0, # of connection points: 2
#     Edge 127, Type (0, 0), BuildingBlock: AJUNOK_clean_linker_0, # of connection points: 2
#     Edge 128, Type (0, 0), BuildingBlock: AJUNOK_clean_linker_0, # of connection points: 2
#     Edge 129, Type (0, 0), BuildingBlock: AJUNOK_clean_linker_0, # of connection points: 2
#     Edge 130, Type (0, 0), BuildingBlock: AJUNOK_clean_linker_0, # of connection points: 2
#     Edge 131, Type (0, 0), BuildingBlock: AJUNOK_clean_linker_0, # of connection points: 2
#     Edge 132, Type (0, 0), BuildingBlock: AJUNOK_clean_linker_0, # of connection points: 2
#     Edge 133, Type (0, 0), BuildingBlock: AJUNOK_clean_linker_0, # of connection points: 2
#     Edge 134, Type (0, 0), BuildingBlock: AJUNOK_clean_linker_0, # of connection points: 2
#     Edge 135, Type (0, 0), BuildingBlock: AJUNOK_clean_linker_0, # of connection points: 2
#     Edge 136, Type (0, 0), BuildingBlock: AJUNOK_clean_linker_0, # of connection points: 2
#     Edge 137, Type (0, 0), BuildingBlock: AJUNOK_clean_linker_0, # of connection points: 2
#     Edge 138, Type (0, 0), BuildingBlock: AJUNOK_clean_linker_0, # of connection points: 2
#     Edge 139, Type (0, 0), BuildingBlock: AJUNOK_clean_linker_0, # of connection points: 2
#     Edge 140, Type (0, 0), BuildingBlock: AJUNOK_clean_linker_0, # of connection points: 2
#     Edge 141, Type (0, 0), BuildingBlock: AJUNOK_clean_linker_0, # of connection points: 2
#     Edge 142, Type (0, 0), BuildingBlock: AJUNOK_clean_linker_0, # of connection points: 2
#     Edge 143, Type (0, 0), BuildingBlock: AJUNOK_clean_linker_0, # of connection points: 2
#     Edge 144, Type (0, 0), BuildingBlock: AJUNOK_clean_linker_0, # of connection points: 2
#     Edge 145, Type (0, 0), BuildingBlock: AJUNOK_clean_linker_0, # of connection points: 2
#     Edge 146, Type (0, 0), BuildingBlock: AJUNOK_clean_linker_0, # of connection points: 2
#     Edge 147, Type (0, 0), BuildingBlock: AJUNOK_clean_linker_0, # of connection points: 2
#     Edge 148, Type (0, 0), BuildingBlock: AJUNOK_clean_linker_0, # of connection points: 2
#     Edge 149, Type (0, 0), BuildingBlock: AJUNOK_clean_linker_0, # of connection points: 2
#     Edge 150, Type (0, 0), BuildingBlock: AJUNOK_clean_linker_0, # of connection points: 2
#     Edge 151, Type (0, 0), BuildingBlock: AJUNOK_clean_linker_0, # of connection points: 2
#     Edge 152, Type (0, 0), BuildingBlock: AJUNOK_clean_linker_0, # of connection points: 2
#     Edge 153, Type (0, 0), BuildingBlock: AJUNOK_clean_linker_0, # of connection points: 2
#     Edge 154, Type (0, 0), BuildingBlock: AJUNOK_clean_linker_0, # of connection points: 2
#     Edge 155, Type (0, 0), BuildingBlock: AJUNOK_clean_linker_0, # of connection points: 2
#     Edge 156, Type (0, 0), BuildingBlock: AJUNOK_clean_linker_0, # of connection points: 2
#     Edge 157, Type (0, 0), BuildingBlock: AJUNOK_clean_linker_0, # of connection points: 2
#     Edge 158, Type (0, 0), BuildingBlock: AJUNOK_clean_linker_0, # of connection points: 2
#     Edge 159, Type (0, 0), BuildingBlock: AJUNOK_clean_linker_0, # of connection points: 2
#     Edge 160, Type (0, 0), BuildingBlock: AJUNOK_clean_linker_0, # of connection points: 2
#     Edge 161, Type (0, 0), BuildingBlock: AJUNOK_clean_linker_0, # of connection points: 2
#     Edge 162, Type (0, 0), BuildingBlock: AJUNOK_clean_linker_0, # of connection points: 2
#     Edge 163, Type (0, 0), BuildingBlock: AJUNOK_clean_linker_0, # of connection points: 2
#     Edge 164, Type (0, 0), BuildingBlock: AJUNOK_clean_linker_0, # of connection points: 2
#     Edge 165, Type (0, 0), BuildingBlock: AJUNOK_clean_linker_0, # of connection points: 2
#     Edge 166, Type (0, 0), BuildingBlock: AJUNOK_clean_linker_0, # of connection points: 2
#     Edge 167, Type (0, 0), BuildingBlock: AJUNOK_clean_linker_0, # of connection points: 2
#     Edge 168, Type (0, 0), BuildingBlock: AJUNOK_clean_linker_0, # of connection points: 2
#     Edge 169, Type (0, 0), BuildingBlock: AJUNOK_clean_linker_0, # of connection points: 2
#     Edge 170, Type (0, 0), BuildingBlock: AJUNOK_clean_linker_0, # of connection points: 2
#     Edge 171, Type (0, 0), BuildingBlock: AJUNOK_clean_linker_0, # of connection points: 2
#     Edge 172, Type (0, 0), BuildingBlock: AJUNOK_clean_linker_0, # of connection points: 2
#     Edge 173, Type (0, 0), BuildingBlock: AJUNOK_clean_linker_0, # of connection points: 2
#     Edge 174, Type (0, 0), BuildingBlock: AJUNOK_clean_linker_0, # of connection points: 2
#     Edge 175, Type (0, 0), BuildingBlock: AJUNOK_clean_linker_0, # of connection points: 2
#     Edge 176, Type (0, 0), BuildingBlock: AJUNOK_clean_linker_0, # of connection points: 2
#     Edge 177, Type (0, 0), BuildingBlock: AJUNOK_clean_linker_0, # of connection points: 2
#     Edge 178, Type (0, 0), BuildingBlock: AJUNOK_clean_linker_0, # of connection points: 2
#     Edge 179, Type (0, 0), BuildingBlock: AJUNOK_clean_linker_0, # of connection points: 2
#     Edge 180, Type (0, 0), BuildingBlock: AJUNOK_clean_linker_0, # of connection points: 2
#     Edge 181, Type (0, 0), BuildingBlock: AJUNOK_clean_linker_0, # of connection points: 2
#     Edge 182, Type (0, 0), BuildingBlock: AJUNOK_clean_linker_0, # of connection points: 2
#     Edge 183, Type (0, 0), BuildingBlock: AJUNOK_clean_linker_0, # of connection points: 2
#     Edge 184, Type (0, 0), BuildingBlock: AJUNOK_clean_linker_0, # of connection points: 2
#     Edge 185, Type (0, 0), BuildingBlock: AJUNOK_clean_linker_0, # of connection points: 2
#     Edge 186, Type (0, 0), BuildingBlock: AJUNOK_clean_linker_0, # of connection points: 2
#     Edge 187, Type (0, 0), BuildingBlock: AJUNOK_clean_linker_0, # of connection points: 2
#     Edge 188, Type (0, 0), BuildingBlock: AJUNOK_clean_linker_0, # of connection points: 2
#     Edge 189, Type (0, 0), BuildingBlock: AJUNOK_clean_linker_0, # of connection points: 2
#     Edge 190, Type (0, 0), BuildingBlock: AJUNOK_clean_linker_0, # of connection points: 2
#     Edge 191, Type (0, 0), BuildingBlock: AJUNOK_clean_linker_0, # of connection points: 2
#     Edge 192, Type (0, 0), BuildingBlock: AJUNOK_clean_linker_0, # of connection points: 2
#     Edge 193, Type (0, 0), BuildingBlock: AJUNOK_clean_linker_0, # of connection points: 2
#     Edge 194, Type (0, 0), BuildingBlock: AJUNOK_clean_linker_0, # of connection points: 2
#     Edge 195, Type (0, 0), BuildingBlock: AJUNOK_clean_linker_0, # of connection points: 2
#     Edge 196, Type (0, 0), BuildingBlock: AJUNOK_clean_linker_0, # of connection points: 2
#     Edge 197, Type (0, 0), BuildingBlock: AJUNOK_clean_linker_0, # of connection points: 2
#     Edge 198, Type (0, 0), BuildingBlock: AJUNOK_clean_linker_0, # of connection points: 2
#     Edge 199, Type (0, 0), BuildingBlock: AJUNOK_clean_linker_0, # of connection points: 2
#     Edge 200, Type (0, 0), BuildingBlock: AJUNOK_clean_linker_0, # of connection points: 2
#     Edge 201, Type (0, 0), BuildingBlock: AJUNOK_clean_linker_0, # of connection points: 2
#     Edge 202, Type (0, 0), BuildingBlock: AJUNOK_clean_linker_0, # of connection points: 2
#     Edge 203, Type (0, 0), BuildingBlock: AJUNOK_clean_linker_0, # of connection points: 2
#     Edge 204, Type (0, 0), BuildingBlock: AJUNOK_clean_linker_0, # of connection points: 2
#     Edge 205, Type (0, 0), BuildingBlock: AJUNOK_clean_linker_0, # of connection points: 2
#     Edge 206, Type (0, 0), BuildingBlock: AJUNOK_clean_linker_0, # of connection points: 2
#     Edge 207, Type (0, 0), BuildingBlock: AJUNOK_clean_linker_0, # of connection points: 2
#     Edge 208, Type (0, 0), BuildingBlock: AJUNOK_clean_linker_0, # of connection points: 2
#     Edge 209, Type (0, 0), BuildingBlock: AJUNOK_clean_linker_0, # of connection points: 2
#     Edge 210, Type (0, 0), BuildingBlock: AJUNOK_clean_linker_0, # of connection points: 2
#     Edge 211, Type (0, 0), BuildingBlock: AJUNOK_clean_linker_0, # of connection points: 2
#     Edge 212, Type (0, 0), BuildingBlock: AJUNOK_clean_linker_0, # of connection points: 2
#     Edge 213, Type (0, 0), BuildingBlock: AJUNOK_clean_linker_0, # of connection points: 2
#     Edge 214, Type (0, 0), BuildingBlock: AJUNOK_clean_linker_0, # of connection points: 2
#     Edge 215, Type (0, 0), BuildingBlock: AJUNOK_clean_linker_0, # of connection points: 2
#     Edge 216, Type (0, 0), BuildingBlock: AJUNOK_clean_linker_0, # of connection points: 2
#     Edge 217, Type (0, 0), BuildingBlock: AJUNOK_clean_linker_0, # of connection points: 2
#     Edge 218, Type (0, 0), BuildingBlock: AJUNOK_clean_linker_0, # of connection points: 2
#     Edge 219, Type (0, 0), BuildingBlock: AJUNOK_clean_linker_0, # of connection points: 2
#     Edge 220, Type (0, 0), BuildingBlock: AJUNOK_clean_linker_0, # of connection points: 2
#     Edge 221, Type (0, 0), BuildingBlock: AJUNOK_clean_linker_0, # of connection points: 2
#     Edge 222, Type (0, 0), BuildingBlock: AJUNOK_clean_linker_0, # of connection points: 2
#     Edge 223, Type (0, 0), BuildingBlock: AJUNOK_clean_linker_0, # of connection points: 2
#     Edge 224, Type (0, 0), BuildingBlock: AJUNOK_clean_linker_0, # of connection points: 2
#     Edge 225, Type (0, 0), BuildingBlock: AJUNOK_clean_linker_0, # of connection points: 2
#     Edge 226, Type (0, 0), BuildingBlock: AJUNOK_clean_linker_0, # of connection points: 2
#     Edge 227, Type (0, 0), BuildingBlock: AJUNOK_clean_linker_0, # of connection points: 2
#     Edge 228, Type (0, 0), BuildingBlock: AJUNOK_clean_linker_0, # of connection points: 2
#     Edge 229, Type (0, 0), BuildingBlock: AJUNOK_clean_linker_0, # of connection points: 2
#     Edge 230, Type (0, 0), BuildingBlock: AJUNOK_clean_linker_0, # of connection points: 2
#     Edge 231, Type (0, 0), BuildingBlock: AJUNOK_clean_linker_0, # of connection points: 2
#     Edge 232, Type (0, 0), BuildingBlock: AJUNOK_clean_linker_0, # of connection points: 2
#     Edge 233, Type (0, 0), BuildingBlock: AJUNOK_clean_linker_0, # of connection points: 2
#     Edge 234, Type (0, 0), BuildingBlock: AJUNOK_clean_linker_0, # of connection points: 2
#     Edge 235, Type (0, 0), BuildingBlock: AJUNOK_clean_linker_0, # of connection points: 2
#     Edge 236, Type (0, 0), BuildingBlock: AJUNOK_clean_linker_0, # of connection points: 2
#     Edge 237, Type (0, 0), BuildingBlock: AJUNOK_clean_linker_0, # of connection points: 2
#     Edge 238, Type (0, 0), BuildingBlock: AJUNOK_clean_linker_0, # of connection points: 2
#     Edge 239, Type (0, 0), BuildingBlock: AJUNOK_clean_linker_0, # of connection points: 2
#     Edge 240, Type (0, 0), BuildingBlock: AJUNOK_clean_linker_0, # of connection points: 2
#     Edge 241, Type (0, 0), BuildingBlock: AJUNOK_clean_linker_0, # of connection points: 2
#     Edge 242, Type (0, 0), BuildingBlock: AJUNOK_clean_linker_0, # of connection points: 2
#     Edge 243, Type (0, 0), BuildingBlock: AJUNOK_clean_linker_0, # of connection points: 2
#     Edge 244, Type (0, 0), BuildingBlock: AJUNOK_clean_linker_0, # of connection points: 2
#     Edge 245, Type (0, 0), BuildingBlock: AJUNOK_clean_linker_0, # of connection points: 2
#     Edge 246, Type (0, 0), BuildingBlock: AJUNOK_clean_linker_0, # of connection points: 2
#     Edge 247, Type (0, 0), BuildingBlock: AJUNOK_clean_linker_0, # of connection points: 2
#     Edge 248, Type (0, 0), BuildingBlock: AJUNOK_clean_linker_0, # of connection points: 2
#     Edge 249, Type (0, 0), BuildingBlock: AJUNOK_clean_linker_0, # of connection points: 2
#     Edge 250, Type (0, 0), BuildingBlock: AJUNOK_clean_linker_0, # of connection points: 2
#     Edge 251, Type (0, 0), BuildingBlock: AJUNOK_clean_linker_0, # of connection points: 2
#     Edge 252, Type (0, 0), BuildingBlock: AJUNOK_clean_linker_0, # of connection points: 2
#     Edge 253, Type (0, 0), BuildingBlock: AJUNOK_clean_linker_0, # of connection points: 2
#     Edge 254, Type (0, 0), BuildingBlock: AJUNOK_clean_linker_0, # of connection points: 2
#     Edge 255, Type (0, 0), BuildingBlock: AJUNOK_clean_linker_0, # of connection points: 2
#     Edge 256, Type (0, 0), BuildingBlock: AJUNOK_clean_linker_0, # of connection points: 2
#     Edge 257, Type (0, 0), BuildingBlock: AJUNOK_clean_linker_0, # of connection points: 2
#     Edge 258, Type (0, 0), BuildingBlock: AJUNOK_clean_linker_0, # of connection points: 2
#     Edge 259, Type (0, 0), BuildingBlock: AJUNOK_clean_linker_0, # of connection points: 2
#     Edge 260, Type (0, 0), BuildingBlock: AJUNOK_clean_linker_0, # of connection points: 2
#     Edge 261, Type (0, 0), BuildingBlock: AJUNOK_clean_linker_0, # of connection points: 2
#     Edge 262, Type (0, 0), BuildingBlock: AJUNOK_clean_linker_0, # of connection points: 2
#     Edge 263, Type (0, 0), BuildingBlock: AJUNOK_clean_linker_0, # of connection points: 2
#     Edge 264, Type (0, 0), BuildingBlock: AJUNOK_clean_linker_0, # of connection points: 2
#     Edge 265, Type (0, 0), BuildingBlock: AJUNOK_clean_linker_0, # of connection points: 2
#     Edge 266, Type (0, 0), BuildingBlock: AJUNOK_clean_linker_0, # of connection points: 2
#     Edge 267, Type (0, 0), BuildingBlock: AJUNOK_clean_linker_0, # of connection points: 2
#     Edge 268, Type (0, 0), BuildingBlock: AJUNOK_clean_linker_0, # of connection points: 2
#     Edge 269, Type (0, 0), BuildingBlock: AJUNOK_clean_linker_0, # of connection points: 2
#     Edge 270, Type (0, 0), BuildingBlock: AJUNOK_clean_linker_0, # of connection points: 2
#     Edge 271, Type (0, 0), BuildingBlock: AJUNOK_clean_linker_0, # of connection points: 2
#     Edge 272, Type (0, 0), BuildingBlock: AJUNOK_clean_linker_0, # of connection points: 2
#     Edge 273, Type (0, 0), BuildingBlock: AJUNOK_clean_linker_0, # of connection points: 2
#     Edge 274, Type (0, 0), BuildingBlock: AJUNOK_clean_linker_0, # of connection points: 2
#     Edge 275, Type (0, 0), BuildingBlock: AJUNOK_clean_linker_0, # of connection points: 2
#     Edge 276, Type (0, 0), BuildingBlock: AJUNOK_clean_linker_0, # of connection points: 2
#     Edge 277, Type (0, 0), BuildingBlock: AJUNOK_clean_linker_0, # of connection points: 2
#     Edge 278, Type (0, 0), BuildingBlock: AJUNOK_clean_linker_0, # of connection points: 2
#     Edge 279, Type (0, 0), BuildingBlock: AJUNOK_clean_linker_0, # of connection points: 2
#     Edge 280, Type (0, 0), BuildingBlock: AJUNOK_clean_linker_0, # of connection points: 2
#     Edge 281, Type (0, 0), BuildingBlock: AJUNOK_clean_linker_0, # of connection points: 2
#     Edge 282, Type (0, 0), BuildingBlock: AJUNOK_clean_linker_0, # of connection points: 2
#     Edge 283, Type (0, 0), BuildingBlock: AJUNOK_clean_linker_0, # of connection points: 2
#     Edge 284, Type (0, 0), BuildingBlock: AJUNOK_clean_linker_0, # of connection points: 2
#     Edge 285, Type (0, 0), BuildingBlock: AJUNOK_clean_linker_0, # of connection points: 2
#     Edge 286, Type (0, 0), BuildingBlock: AJUNOK_clean_linker_0, # of connection points: 2
#     Edge 287, Type (0, 0), BuildingBlock: AJUNOK_clean_linker_0, # of connection points: 2
# Relax obj value: 0.559
# Max RMSD: 0.157
# Mean RMSD: 0.157
data_MOF--net-ulg--node1-CEKHIL_clean_sbu_0--edge1-AJUNOK_clean_linker_0
_symmetry_space_group_name_H-M    P1
_symmetry_Int_Tables_number       1
_symmetry_cell_setting            triclinic
loop_
_symmetry_equiv_pos_as_xyz
'x, y, z'
_cell_length_a     67.604583
_cell_length_b     67.625165
_cell_length_c     67.599157
_cell_angle_alpha  90.029908
_cell_angle_beta   90.001649
_cell_angle_gamma 90.008161
loop_
_atom_site_label
_atom_site_type_symbol
_atom_site_fract_x
_atom_site_fract_y
_atom_site_fract_z
_atom_type_partial_charge
Co0 Co 0.06761 0.54279 0.1707 0.0
O1 O 0.04312 0.53688 0.18424 0.0
O2 O 0.05122 0.52581 0.15453 0.0
C3 C 0.08826 0.53763 0.19672 0.0
O4 O 0.09132 0.54451 0.15215 0.0
Co5 Co 0.09554 0.57704 0.18371 0.0
O6 O 0.11464 0.56403 0.1655 0.0
C7 C 0.05934 0.58588 0.16071 0.0
C8 C 0.03846 0.52626 0.1689 0.0
C9 C 0.10886 0.55187 0.15229 0.0
O10 O 0.05586 0.56731 0.15796 0.0
O11 O 0.07321 0.59238 0.17182 0.0
O12 O 0.08174 0.52275 0.18639 0.0
O13 O 0.08055 0.55443 0.19228 0.0
Co14 Co 0.71174 0.31752 0.42092 0.0
O15 O 0.71738 0.29339 0.43504 0.0
O16 O 0.729 0.30072 0.40537 0.0
C17 C 0.71676 0.33838 0.44687 0.0
O18 O 0.71023 0.34093 0.40193 0.0
Co19 Co 0.67743 0.34563 0.43321 0.0
O20 O 0.69057 0.3644 0.41483 0.0
C21 C 0.66874 0.30924 0.41037 0.0
C22 C 0.72842 0.28842 0.42014 0.0
C23 C 0.70281 0.35845 0.40177 0.0
O24 O 0.68734 0.30556 0.40806 0.0
O25 O 0.66215 0.32337 0.42108 0.0
O26 O 0.73166 0.33188 0.43659 0.0
O27 O 0.69993 0.33078 0.44226 0.0
Co28 Co 0.93655 0.96245 0.67009 0.0
O29 O 0.96063 0.96787 0.68445 0.0
O30 O 0.95343 0.98001 0.65496 0.0
C31 C 0.9156 0.96679 0.69607 0.0
O32 O 0.91326 0.96128 0.6509 0.0
Co33 Co 0.90798 0.92812 0.68145 0.0
O34 O 0.8892 0.9424 0.6639 0.0
C35 C 0.94501 0.91966 0.65944 0.0
C36 C 0.96569 0.97915 0.66975 0.0
C37 C 0.89543 0.95461 0.65096 0.0
O38 O 0.94864 0.93825 0.65701 0.0
O39 O 0.93071 0.91307 0.66994 0.0
O40 O 0.92205 0.982 0.68621 0.0
O41 O 0.92322 0.95015 0.69098 0.0
Co42 Co 0.29167 0.18599 0.91828 0.0
O43 O 0.28552 0.21013 0.9324 0.0
O44 O 0.27449 0.20259 0.90254 0.0
C45 C 0.28688 0.16494 0.94406 0.0
O46 O 0.29353 0.16281 0.89909 0.0
Co47 Co 0.32599 0.15777 0.93039 0.0
O48 O 0.31255 0.13893 0.91216 0.0
C49 C 0.33471 0.195 0.90904 0.0
C50 C 0.27485 0.21505 0.91718 0.0
C51 C 0.30045 0.14511 0.89908 0.0
O52 O 0.31615 0.19824 0.9059 0.0
O53 O 0.34117 0.18096 0.91999 0.0
O54 O 0.27185 0.17121 0.9338 0.0
O55 O 0.30357 0.17275 0.93945 0.0
Co56 Co 0.06795 0.46265 0.83542 0.0
O57 O 0.04361 0.46855 0.82148 0.0
O58 O 0.05122 0.47959 0.8513 0.0
C59 C 0.08878 0.46778 0.80944 0.0
O60 O 0.09125 0.46109 0.85451 0.0
Co61 Co 0.09703 0.42909 0.8231 0.0
O62 O 0.11562 0.4428 0.84133 0.0
C63 C 0.06043 0.4195 0.84547 0.0
C64 C 0.03868 0.47917 0.83674 0.0
C65 C 0.1091 0.45455 0.85455 0.0
O66 O 0.05613 0.43797 0.84784 0.0
O67 O 0.07492 0.41343 0.8349 0.0
O68 O 0.08232 0.48269 0.81978 0.0
O69 O 0.08127 0.45098 0.81411 0.0
Co70 Co 0.79452 0.31705 0.08521 0.0
O71 O 0.78924 0.2929 0.07093 0.0
O72 O 0.77803 0.29963 0.10091 0.0
C73 C 0.78848 0.33818 0.0598 0.0
O74 O 0.79577 0.34027 0.10442 0.0
Co75 Co 0.82782 0.34623 0.07249 0.0
O76 O 0.81445 0.36443 0.09133 0.0
C77 C 0.83798 0.31002 0.09479 0.0
C78 C 0.7786 0.2875 0.08598 0.0
C79 C 0.80266 0.358 0.10458 0.0
O80 O 0.81953 0.30575 0.0974 0.0
O81 O 0.84396 0.32418 0.08374 0.0
O82 O 0.77389 0.33103 0.0701 0.0
O83 O 0.80553 0.33086 0.06389 0.0
Co84 Co 0.93681 0.04116 0.33578 0.0
O85 O 0.9611 0.03518 0.3219 0.0
O86 O 0.95339 0.02415 0.3517 0.0
C87 C 0.91607 0.03599 0.30976 0.0
O88 O 0.91341 0.04291 0.35471 0.0
Co89 Co 0.9084 0.07513 0.32325 0.0
O90 O 0.8895 0.06172 0.34137 0.0
C91 C 0.94501 0.08425 0.34568 0.0
C92 C 0.96595 0.02454 0.33715 0.0
C93 C 0.89566 0.04974 0.35456 0.0
O94 O 0.94879 0.06572 0.3483 0.0
O95 O 0.93074 0.09059 0.335 0.0
O96 O 0.92241 0.02114 0.32023 0.0
O97 O 0.92365 0.05282 0.31433 0.0
Co98 Co 0.21241 0.18789 0.58372 0.0
O99 O 0.21882 0.21225 0.57014 0.0
O100 O 0.22928 0.20426 0.60007 0.0
C101 C 0.21786 0.16694 0.55798 0.0
O102 O 0.21019 0.1643 0.60234 0.0
Co103 Co 0.1781 0.16025 0.57015 0.0
O104 O 0.19068 0.14114 0.58866 0.0
C105 C 0.16913 0.19665 0.59268 0.0
C106 C 0.22927 0.21691 0.5856 0.0
C107 C 0.2027 0.14682 0.60205 0.0
O108 O 0.18768 0.19987 0.59595 0.0
O109 O 0.16276 0.18297 0.58124 0.0
O110 O 0.23262 0.17346 0.56848 0.0
O111 O 0.20107 0.1749 0.56202 0.0
Co112 Co 0.17007 0.0681 0.54311 0.0
O113 O 0.18432 0.04405 0.53728 0.0
O114 O 0.15443 0.05106 0.52609 0.0
C115 C 0.19577 0.08917 0.53779 0.0
O116 O 0.15088 0.09131 0.54491 0.0
Co117 Co 0.1828 0.09656 0.5771 0.0
O118 O 0.16382 0.11499 0.5643 0.0
C119 C 0.16041 0.06012 0.58638 0.0
C120 C 0.16932 0.03889 0.52644 0.0
C121 C 0.1506 0.10882 0.55234 0.0
O122 O 0.15776 0.05625 0.56784 0.0
O123 O 0.17157 0.07409 0.59264 0.0
O124 O 0.18539 0.08264 0.52295 0.0
O125 O 0.19138 0.08152 0.5546 0.0
Co126 Co 0.18594 0.4193 0.79168 0.0
O127 O 0.21039 0.4331 0.786 0.0
O128 O 0.20262 0.40341 0.7747 0.0
C129 C 0.16533 0.44546 0.78659 0.0
O130 O 0.16246 0.40042 0.79306 0.0
Co131 Co 0.15725 0.4316 0.82552 0.0
O132 O 0.13843 0.41355 0.81186 0.0
C133 C 0.19377 0.4091 0.83477 0.0
C134 C 0.21528 0.41785 0.77535 0.0
C135 C 0.14468 0.40048 0.79979 0.0
O136 O 0.19766 0.40657 0.81624 0.0
O137 O 0.17949 0.41978 0.8411 0.0
O138 O 0.17175 0.43509 0.77169 0.0
O139 O 0.17274 0.4407 0.80344 0.0
Co140 Co 0.83363 0.43752 0.04357 0.0
O141 O 0.8194 0.46146 0.03736 0.0
O142 O 0.84926 0.45416 0.02622 0.0
C143 C 0.80803 0.41628 0.0387 0.0
O144 O 0.85273 0.4143 0.04566 0.0
Co145 Co 0.82101 0.40993 0.0783 0.0
O146 O 0.83972 0.3911 0.06557 0.0
C147 C 0.84295 0.44682 0.08665 0.0
C148 C 0.83438 0.46636 0.02638 0.0
C149 C 0.85286 0.39689 0.05333 0.0
O150 O 0.84602 0.44986 0.06803 0.0
O151 O 0.83171 0.4331 0.09328 0.0
O152 O 0.81829 0.42265 0.02372 0.0
O153 O 0.81238 0.42431 0.05537 0.0
Co154 Co 0.81827 0.08492 0.29244 0.0
O155 O 0.79432 0.07035 0.28692 0.0
O156 O 0.80124 0.09999 0.27499 0.0
C157 C 0.83949 0.05921 0.28791 0.0
O158 O 0.84134 0.10434 0.29379 0.0
Co159 Co 0.84679 0.07358 0.32683 0.0
O160 O 0.86537 0.09165 0.31292 0.0
C161 C 0.80969 0.0954 0.33532 0.0
C162 C 0.78912 0.08508 0.27575 0.0
C163 C 0.85907 0.10456 0.30071 0.0
O164 O 0.80608 0.09776 0.31671 0.0
O165 O 0.82401 0.08494 0.34195 0.0
O166 O 0.83293 0.06911 0.27277 0.0
O167 O 0.83181 0.06408 0.30461 0.0
Co168 Co 0.17051 0.93734 0.46236 0.0
O169 O 0.18461 0.9615 0.46811 0.0
O170 O 0.15475 0.95436 0.4793 0.0
C171 C 0.1963 0.91646 0.46777 0.0
O172 O 0.15145 0.91401 0.46066 0.0
Co173 Co 0.18343 0.90875 0.42854 0.0
O174 O 0.16459 0.89026 0.44148 0.0
C175 C 0.16104 0.94513 0.41905 0.0
C176 C 0.16957 0.96661 0.47891 0.0
C177 C 0.15132 0.89642 0.45339 0.0
O178 O 0.15821 0.94902 0.43757 0.0
O179 O 0.1723 0.93121 0.4129 0.0
O180 O 0.18588 0.92297 0.48259 0.0
O181 O 0.19187 0.92402 0.45093 0.0
Co182 Co 0.31828 0.41914 0.71386 0.0
O183 O 0.29394 0.433 0.71978 0.0
O184 O 0.30162 0.40321 0.73083 0.0
C185 C 0.339 0.44518 0.71904 0.0
O186 O 0.34171 0.40022 0.71215 0.0
Co187 Co 0.34674 0.43174 0.67991 0.0
O188 O 0.36557 0.41346 0.69319 0.0
C189 C 0.31012 0.40936 0.67075 0.0
C190 C 0.28903 0.41772 0.73035 0.0
C191 C 0.35942 0.4003 0.70521 0.0
O192 O 0.30638 0.40662 0.68928 0.0
O193 O 0.32433 0.42015 0.66443 0.0
O194 O 0.33265 0.43473 0.7339 0.0
O195 O 0.33144 0.44059 0.70221 0.0
Co196 Co 0.83363 0.56735 0.96186 0.0
O197 O 0.81938 0.54323 0.96734 0.0
O198 O 0.84936 0.55006 0.97845 0.0
C199 C 0.80823 0.58855 0.96779 0.0
O200 O 0.85285 0.59055 0.96048 0.0
Co201 Co 0.82092 0.59644 0.92845 0.0
O202 O 0.83974 0.61469 0.94181 0.0
C203 C 0.84315 0.56011 0.91839 0.0
C204 C 0.83444 0.53794 0.97803 0.0
C205 C 0.85299 0.60828 0.95359 0.0
O206 O 0.84578 0.5559 0.93686 0.0
O207 O 0.83212 0.57428 0.9124 0.0
O208 O 0.81854 0.58147 0.98241 0.0
O209 O 0.81232 0.58112 0.95077 0.0
Co210 Co 0.68705 0.08386 0.21276 0.0
O211 O 0.71112 0.06952 0.21837 0.0
O212 O 0.70399 0.09922 0.23004 0.0
C213 C 0.666 0.05801 0.21758 0.0
O214 O 0.66387 0.10312 0.2114 0.0
Co215 Co 0.65845 0.0722 0.17861 0.0
O216 O 0.63978 0.09022 0.19248 0.0
C217 C 0.69535 0.09429 0.16981 0.0
C218 C 0.71624 0.08442 0.22938 0.0
C219 C 0.64609 0.10319 0.20463 0.0
O220 O 0.69914 0.0966 0.18839 0.0
O221 O 0.68094 0.08388 0.1633 0.0
O222 O 0.67251 0.06817 0.23257 0.0
O223 O 0.67357 0.06277 0.20079 0.0
Co224 Co 0.54208 0.17055 0.06682 0.0
O225 O 0.53599 0.18476 0.04282 0.0
O226 O 0.5248 0.15492 0.05007 0.0
C227 C 0.53704 0.19628 0.08794 0.0
O228 O 0.54406 0.15144 0.09008 0.0
Co229 Co 0.57645 0.18315 0.09486 0.0
O230 O 0.56369 0.16442 0.11355 0.0
C231 C 0.58512 0.16079 0.05811 0.0
C232 C 0.52506 0.16976 0.03785 0.0
C233 C 0.55158 0.15125 0.10757 0.0
O234 O 0.56654 0.15813 0.05452 0.0
O235 O 0.5916 0.17152 0.07228 0.0
O236 O 0.52215 0.1859 0.08155 0.0
O237 O 0.55379 0.1919 0.0801 0.0
Co238 Co 0.04247 0.83417 0.43711 0.0
O239 O 0.03697 0.82005 0.46131 0.0
O240 O 0.02562 0.84986 0.45426 0.0
C241 C 0.03679 0.80831 0.41627 0.0
O242 O 0.04391 0.85321 0.41373 0.0
Co243 Co 0.07599 0.82139 0.40818 0.0
O244 O 0.06278 0.84003 0.38975 0.0
C245 C 0.08573 0.84467 0.44411 0.0
C246 C 0.02613 0.83503 0.46649 0.0
C247 C 0.05097 0.8533 0.39604 0.0
O248 O 0.06727 0.84667 0.44867 0.0
O249 O 0.09183 0.83404 0.42969 0.0
O250 O 0.02213 0.81879 0.42299 0.0
O251 O 0.05377 0.8127 0.42361 0.0
Co252 Co 0.42051 0.29187 0.68698 0.0
O253 O 0.43473 0.286 0.71103 0.0
O254 O 0.40494 0.27463 0.70382 0.0
C255 C 0.44614 0.28683 0.66579 0.0
O256 O 0.40144 0.29363 0.66364 0.0
Co257 Co 0.43298 0.32627 0.65895 0.0
O258 O 0.41464 0.31307 0.64015 0.0
C259 C 0.41056 0.33491 0.69561 0.0
C260 C 0.41978 0.27504 0.71605 0.0
C261 C 0.40144 0.30097 0.64608 0.0
O262 O 0.40795 0.31633 0.69914 0.0
O263 O 0.42135 0.34146 0.68151 0.0
O264 O 0.43596 0.27191 0.67243 0.0
O265 O 0.44178 0.30359 0.67363 0.0
Co266 Co 0.96178 0.67004 0.93763 0.0
O267 O 0.96744 0.6842 0.9618 0.0
O268 O 0.97885 0.65445 0.95464 0.0
C269 C 0.96703 0.69581 0.91665 0.0
O270 O 0.96021 0.65096 0.91431 0.0
Co271 Co 0.92782 0.68267 0.90908 0.0
O272 O 0.94094 0.66396 0.89057 0.0
C273 C 0.91854 0.66016 0.94545 0.0
C274 C 0.97837 0.66926 0.96691 0.0
C275 C 0.95294 0.65079 0.89673 0.0
O276 O 0.93707 0.65754 0.94935 0.0
O277 O 0.91227 0.67133 0.93151 0.0
O278 O 0.9819 0.68552 0.92323 0.0
O279 O 0.95021 0.69132 0.92425 0.0
Co280 Co 0.085 0.71354 0.18731 0.0
O281 O 0.07084 0.71967 0.21136 0.0
O282 O 0.10063 0.73093 0.20401 0.0
C283 C 0.05931 0.71842 0.16613 0.0
O284 O 0.10398 0.71149 0.1639 0.0
Co285 Co 0.0723 0.67884 0.15968 0.0
O286 O 0.09059 0.6918 0.14068 0.0
C287 C 0.09482 0.67054 0.19633 0.0
C288 C 0.08581 0.73066 0.21628 0.0
C289 C 0.10384 0.70394 0.1464 0.0
O290 O 0.09755 0.68916 0.19962 0.0
O291 O 0.0839 0.66387 0.18238 0.0
O292 O 0.06953 0.73338 0.17261 0.0
O293 O 0.06366 0.70174 0.17412 0.0
Co294 Co 0.46404 0.83526 0.06818 0.0
O295 O 0.47049 0.82162 0.04386 0.0
O296 O 0.48111 0.85148 0.05191 0.0
C297 C 0.46916 0.8094 0.08906 0.0
O298 O 0.46178 0.85395 0.09174 0.0
Co299 Co 0.42967 0.822 0.09591 0.0
O300 O 0.44223 0.84052 0.11499 0.0
C301 C 0.42093 0.84466 0.05941 0.0
C302 C 0.48102 0.83702 0.03924 0.0
C303 C 0.45424 0.85386 0.10921 0.0
O304 O 0.4395 0.84762 0.05601 0.0
O305 O 0.41451 0.83362 0.07336 0.0
O306 O 0.48404 0.81986 0.08275 0.0
O307 O 0.45245 0.81365 0.08109 0.0
Co308 Co 0.4204 0.21226 0.81818 0.0
O309 O 0.43466 0.21733 0.79396 0.0
O310 O 0.40479 0.22877 0.8007 0.0
C311 C 0.44628 0.21822 0.83888 0.0
O312 O 0.40112 0.21133 0.8414 0.0
Co313 Co 0.43269 0.1796 0.84822 0.0
O314 O 0.41431 0.19374 0.86628 0.0
C315 C 0.41023 0.1689 0.81194 0.0
C316 C 0.41967 0.22806 0.78855 0.0
C317 C 0.40108 0.20527 0.85944 0.0
O318 O 0.4081 0.18723 0.80697 0.0
O319 O 0.42058 0.16325 0.82675 0.0
O320 O 0.43579 0.23281 0.83201 0.0
O321 O 0.44171 0.20111 0.83197 0.0
Co322 Co 0.58493 0.29213 0.31735 0.0
O323 O 0.57076 0.28652 0.29319 0.0
O324 O 0.60037 0.27477 0.30055 0.0
C325 C 0.55892 0.28748 0.33813 0.0
O326 O 0.60397 0.29355 0.3407 0.0
Co327 Co 0.57289 0.32643 0.34576 0.0
O328 O 0.59086 0.31262 0.36457 0.0
C329 C 0.59482 0.33508 0.30881 0.0
C330 C 0.58563 0.27542 0.28822 0.0
C331 C 0.60387 0.30042 0.35844 0.0
O332 O 0.59774 0.31651 0.30544 0.0
O333 O 0.58376 0.34158 0.32276 0.0
O334 O 0.56904 0.27238 0.3318 0.0
O335 O 0.56383 0.30418 0.33054 0.0
Co336 Co 0.0673 0.04285 0.67092 0.0
O337 O 0.04334 0.0369 0.68527 0.0
O338 O 0.05042 0.02566 0.65538 0.0
C339 C 0.08859 0.03792 0.69647 0.0
O340 O 0.09044 0.04466 0.65167 0.0
Co341 Co 0.09533 0.07731 0.6832 0.0
O342 O 0.114 0.06421 0.66459 0.0
C343 C 0.05822 0.08593 0.66172 0.0
C344 C 0.03824 0.02603 0.67027 0.0
C345 C 0.10798 0.05203 0.65151 0.0
O346 O 0.05506 0.06735 0.65858 0.0
O347 O 0.07214 0.09244 0.6728 0.0
O348 O 0.08209 0.02295 0.68627 0.0
O349 O 0.08071 0.05463 0.69206 0.0
Co350 Co 0.71342 0.81791 0.91951 0.0
O351 O 0.71917 0.79408 0.93418 0.0
O352 O 0.73076 0.8008 0.90437 0.0
C353 C 0.71817 0.83933 0.94503 0.0
O354 O 0.71194 0.84079 0.89994 0.0
Co355 Co 0.6792 0.84658 0.93095 0.0
O356 O 0.69316 0.86504 0.91273 0.0
C357 C 0.67037 0.80915 0.90992 0.0
C358 C 0.73025 0.78881 0.91939 0.0
C359 C 0.70525 0.85859 0.89978 0.0
O360 O 0.68895 0.80565 0.90706 0.0
O361 O 0.66393 0.82341 0.9206 0.0
O362 O 0.73322 0.83276 0.93499 0.0
O363 O 0.70145 0.83161 0.94036 0.0
Co364 Co 0.93644 0.46343 0.16989 0.0
O365 O 0.96083 0.4693 0.18363 0.0
O366 O 0.9528 0.48074 0.15407 0.0
C367 C 0.91591 0.46799 0.19613 0.0
O368 O 0.91288 0.46189 0.15115 0.0
Co369 Co 0.90836 0.42904 0.18213 0.0
O370 O 0.8892 0.44277 0.16445 0.0
C371 C 0.94515 0.42052 0.15991 0.0
C372 C 0.96551 0.48015 0.16848 0.0
C373 C 0.89516 0.45502 0.15141 0.0
O374 O 0.94837 0.4391 0.15695 0.0
O375 O 0.93131 0.41394 0.17105 0.0
O376 O 0.92206 0.48311 0.18593 0.0
O377 O 0.92356 0.45133 0.19117 0.0
Co378 Co 0.2925 0.68745 0.41956 0.0
O379 O 0.2866 0.71179 0.43342 0.0
O380 O 0.27537 0.70396 0.4037 0.0
C381 C 0.28768 0.66672 0.44559 0.0
O382 O 0.29402 0.66403 0.40066 0.0
Co383 Co 0.32666 0.6591 0.43176 0.0
O384 O 0.31279 0.64011 0.41399 0.0
C385 C 0.33556 0.69606 0.41001 0.0
C386 C 0.27587 0.71657 0.4182 0.0
C387 C 0.30067 0.64623 0.40091 0.0
O388 O 0.317 0.69938 0.40692 0.0
O389 O 0.34198 0.68207 0.42105 0.0
O390 O 0.27265 0.67303 0.43535 0.0
O391 O 0.30441 0.67436 0.44081 0.0
Co392 Co 0.06818 0.96212 0.33458 0.0
O393 O 0.0437 0.968 0.32098 0.0
O394 O 0.05161 0.97883 0.35083 0.0
C395 C 0.08881 0.9676 0.30858 0.0
O396 O 0.09169 0.96049 0.3533 0.0
Co397 Co 0.09667 0.92841 0.32153 0.0
O398 O 0.11543 0.94139 0.34013 0.0
C399 C 0.06054 0.91884 0.34432 0.0
C400 C 0.03891 0.97844 0.33641 0.0
C401 C 0.1093 0.95333 0.35336 0.0
O402 O 0.05663 0.93734 0.34702 0.0
O403 O 0.07447 0.91265 0.33307 0.0
O404 O 0.08233 0.98238 0.31908 0.0
O405 O 0.08128 0.95073 0.31301 0.0
Co406 Co 0.79328 0.81641 0.58364 0.0
O407 O 0.78711 0.79242 0.56942 0.0
O408 O 0.77622 0.79962 0.59941 0.0
C409 C 0.788 0.83782 0.55827 0.0
O410 O 0.79535 0.83963 0.60277 0.0
Co411 Co 0.82777 0.84416 0.57085 0.0
O412 O 0.81508 0.86292 0.58965 0.0
C413 C 0.83649 0.80741 0.59279 0.0
C414 C 0.77635 0.78742 0.58454 0.0
C415 C 0.80295 0.85708 0.60286 0.0
O416 O 0.81789 0.80421 0.59585 0.0
O417 O 0.84301 0.82121 0.5816 0.0
O418 O 0.77317 0.83112 0.56854 0.0
O419 O 0.80477 0.82982 0.5623 0.0
Co420 Co 0.93653 0.54207 0.83447 0.0
O421 O 0.96108 0.53616 0.82094 0.0
O422 O 0.95307 0.52529 0.85071 0.0
C423 C 0.91591 0.53657 0.80843 0.0
O424 O 0.91284 0.54379 0.85307 0.0
Co425 Co 0.90808 0.57581 0.82123 0.0
O426 O 0.88918 0.56276 0.83955 0.0
C427 C 0.94383 0.58532 0.84482 0.0
C428 C 0.9658 0.52563 0.83631 0.0
C429 C 0.8952 0.55092 0.85292 0.0
O430 O 0.94808 0.56682 0.84706 0.0
O431 O 0.92968 0.59152 0.83389 0.0
O432 O 0.9225 0.52182 0.81889 0.0
O433 O 0.92348 0.55345 0.81279 0.0
Co434 Co 0.21207 0.68709 0.08393 0.0
O435 O 0.2182 0.71158 0.07042 0.0
O436 O 0.22853 0.70367 0.10042 0.0
C437 C 0.21799 0.6662 0.05823 0.0
O438 O 0.21014 0.66358 0.10261 0.0
Co439 Co 0.17842 0.65868 0.07037 0.0
O440 O 0.19106 0.63994 0.08922 0.0
C441 C 0.16861 0.69461 0.09338 0.0
C442 C 0.22842 0.71636 0.086 0.0
C443 C 0.20288 0.64602 0.1026 0.0
O444 O 0.1871 0.69863 0.09605 0.0
O445 O 0.1625 0.68068 0.08209 0.0
O446 O 0.23259 0.67297 0.0688 0.0
O447 O 0.20105 0.67386 0.06219 0.0
Co448 Co 0.17122 0.56725 0.0438 0.0
O449 O 0.18529 0.54298 0.03828 0.0
O450 O 0.15545 0.55011 0.02704 0.0
C451 C 0.19702 0.58814 0.03826 0.0
O452 O 0.15216 0.59058 0.04514 0.0
Co453 Co 0.18391 0.59626 0.07731 0.0
O454 O 0.16522 0.61463 0.06397 0.0
C455 C 0.1615 0.55998 0.08718 0.0
C456 C 0.17022 0.5378 0.02755 0.0
C457 C 0.15201 0.60829 0.05209 0.0
O458 O 0.15884 0.55583 0.0687 0.0
O459 O 0.17265 0.57405 0.09321 0.0
O460 O 0.18667 0.58143 0.02348 0.0
O461 O 0.19255 0.58074 0.05516 0.0
Co462 Co 0.18762 0.92187 0.29385 0.0
O463 O 0.21216 0.93539 0.28796 0.0
O464 O 0.20438 0.90537 0.27757 0.0
C465 C 0.16682 0.94755 0.28768 0.0
O466 O 0.16406 0.90318 0.29557 0.0
Co467 Co 0.1589 0.93552 0.32718 0.0
O468 O 0.14027 0.91665 0.3144 0.0
C469 C 0.19469 0.91254 0.33741 0.0
C470 C 0.21705 0.91982 0.27779 0.0
C471 C 0.14642 0.90323 0.30267 0.0
O472 O 0.19889 0.90981 0.31896 0.0
O473 O 0.18073 0.92387 0.34335 0.0
O474 O 0.1737 0.93695 0.27316 0.0
O475 O 0.17431 0.94362 0.3047 0.0
Co476 Co 0.83501 0.93676 0.54251 0.0
O477 O 0.82119 0.96096 0.53621 0.0
O478 O 0.8511 0.95315 0.52548 0.0
C479 C 0.80923 0.91579 0.53745 0.0
O480 O 0.85385 0.91338 0.54468 0.0
Co481 Co 0.82202 0.90916 0.57701 0.0
O482 O 0.84071 0.89019 0.56448 0.0
C483 C 0.84409 0.94592 0.58562 0.0
C484 C 0.83657 0.96573 0.5257 0.0
C485 C 0.85392 0.89598 0.55232 0.0
O486 O 0.84733 0.94897 0.56705 0.0
O487 O 0.83277 0.9322 0.59213 0.0
O488 O 0.81965 0.92207 0.52253 0.0
O489 O 0.81354 0.92377 0.55415 0.0
Co490 Co 0.81837 0.58501 0.79312 0.0
O491 O 0.79372 0.57146 0.78767 0.0
O492 O 0.80155 0.60115 0.77651 0.0
C493 C 0.83869 0.55877 0.78755 0.0
O494 O 0.84202 0.60366 0.7943 0.0
Co495 Co 0.84759 0.57208 0.82633 0.0
O496 O 0.86632 0.58999 0.81234 0.0
C497 C 0.81157 0.59493 0.8365 0.0
C498 C 0.78881 0.58678 0.77715 0.0
C499 C 0.85996 0.60329 0.80059 0.0
O500 O 0.80727 0.5976 0.81806 0.0
O501 O 0.82566 0.58373 0.84241 0.0
O502 O 0.83215 0.56923 0.77277 0.0
O503 O 0.83152 0.56349 0.8045 0.0
Co504 Co 0.16906 0.43601 0.96377 0.0
O505 O 0.1837 0.45991 0.96942 0.0
O506 O 0.15409 0.45302 0.98139 0.0
C507 C 0.19479 0.4147 0.96807 0.0
O508 O 0.14957 0.41297 0.96239 0.0
Co509 Co 0.1803 0.4074 0.92934 0.0
O510 O 0.16233 0.38885 0.9434 0.0
C511 C 0.15869 0.44468 0.92093 0.0
C512 C 0.16903 0.46511 0.98068 0.0
C513 C 0.14941 0.39519 0.95558 0.0
O514 O 0.15624 0.44834 0.93953 0.0
O515 O 0.16907 0.43028 0.91436 0.0
O516 O 0.18494 0.42117 0.9833 0.0
O517 O 0.18985 0.42247 0.95146 0.0
Co518 Co 0.31914 0.91972 0.21479 0.0
O519 O 0.29484 0.93368 0.22066 0.0
O520 O 0.30253 0.90401 0.23201 0.0
C521 C 0.33988 0.94583 0.21969 0.0
O522 O 0.34253 0.90072 0.21327 0.0
Co523 Co 0.34765 0.93178 0.18075 0.0
O524 O 0.36652 0.91384 0.19442 0.0
C525 C 0.31099 0.90934 0.17177 0.0
C526 C 0.28999 0.91856 0.23149 0.0
C527 C 0.3603 0.90077 0.2065 0.0
O528 O 0.30715 0.90695 0.19034 0.0
O529 O 0.32532 0.9199 0.16535 0.0
O530 O 0.33355 0.9355 0.23465 0.0
O531 O 0.33234 0.94104 0.20289 0.0
Co532 Co 0.83482 0.06775 0.46303 0.0
O533 O 0.82112 0.04343 0.46918 0.0
O534 O 0.85097 0.05135 0.47999 0.0
C535 C 0.80901 0.08863 0.46825 0.0
O536 O 0.85354 0.09129 0.46098 0.0
Co537 Co 0.82173 0.0955 0.42867 0.0
O538 O 0.84024 0.11453 0.44134 0.0
C539 C 0.84444 0.05909 0.41992 0.0
C540 C 0.8365 0.0387 0.4797 0.0
C541 C 0.8535 0.10875 0.45344 0.0
O542 O 0.84728 0.0557 0.43849 0.0
O543 O 0.83343 0.07302 0.41341 0.0
O544 O 0.8194 0.08215 0.4831 0.0
O545 O 0.81326 0.08076 0.45146 0.0
Co546 Co 0.68644 0.58559 0.71442 0.0
O547 O 0.71074 0.57178 0.72066 0.0
O548 O 0.70291 0.60157 0.73159 0.0
C549 C 0.66565 0.55954 0.71941 0.0
O550 O 0.663 0.60448 0.71239 0.0
Co551 Co 0.65835 0.57283 0.68018 0.0
O552 O 0.63936 0.59112 0.69322 0.0
C553 C 0.69494 0.59543 0.67137 0.0
C554 C 0.71551 0.58706 0.73131 0.0
C555 C 0.64536 0.60435 0.70525 0.0
O556 O 0.69858 0.59811 0.68994 0.0
O557 O 0.68081 0.5846 0.66493 0.0
O558 O 0.67184 0.57003 0.73432 0.0
O559 O 0.67341 0.56409 0.70266 0.0
Co560 Co 0.54175 0.66999 0.56824 0.0
O561 O 0.53649 0.68437 0.54411 0.0
O562 O 0.5249 0.65458 0.55085 0.0
C563 C 0.53636 0.69575 0.58925 0.0
O564 O 0.54285 0.65064 0.59138 0.0
Co565 Co 0.57497 0.682 0.59794 0.0
O566 O 0.56079 0.66374 0.6161 0.0
C567 C 0.585 0.65974 0.56138 0.0
C568 C 0.52562 0.66947 0.53872 0.0
C569 C 0.54913 0.65055 0.60935 0.0
O570 O 0.56658 0.65755 0.55672 0.0
O571 O 0.59091 0.67016 0.57604 0.0
O572 O 0.52152 0.68556 0.58243 0.0
O573 O 0.55328 0.69107 0.58199 0.0
Co574 Co 0.04098 0.33422 0.93708 0.0
O575 O 0.03497 0.31988 0.96105 0.0
O576 O 0.0235 0.34962 0.95383 0.0
C577 C 0.0364 0.30861 0.9157 0.0
O578 O 0.04282 0.35343 0.9139 0.0
Co579 Co 0.07567 0.32223 0.90915 0.0
O580 O 0.06248 0.34059 0.89039 0.0
C581 C 0.08387 0.34448 0.94607 0.0
C582 C 0.02393 0.33479 0.96606 0.0
C583 C 0.05026 0.35364 0.89638 0.0
O584 O 0.06524 0.34691 0.94953 0.0
O585 O 0.09056 0.3339 0.93187 0.0
O586 O 0.02132 0.31864 0.92222 0.0
O587 O 0.05304 0.31312 0.9237 0.0
Co588 Co 0.42045 0.7922 0.18745 0.0
O589 O 0.43491 0.78593 0.2113 0.0
O590 O 0.40499 0.77479 0.20415 0.0
C591 C 0.4461 0.78765 0.16615 0.0
O592 O 0.40103 0.79413 0.16449 0.0
Co593 Co 0.43221 0.8267 0.15926 0.0
O594 O 0.41391 0.81318 0.14053 0.0
C595 C 0.41101 0.83517 0.19669 0.0
C596 C 0.41992 0.77497 0.21625 0.0
C597 C 0.40089 0.80106 0.14679 0.0
O598 O 0.40809 0.81657 0.19997 0.0
O599 O 0.42181 0.84172 0.18257 0.0
O600 O 0.43592 0.77255 0.17238 0.0
O601 O 0.44145 0.80427 0.17408 0.0
Co602 Co 0.96299 0.16943 0.43701 0.0
O603 O 0.96875 0.18324 0.46143 0.0
O604 O 0.97935 0.15322 0.45399 0.0
C605 C 0.96909 0.19536 0.41642 0.0
O606 O 0.96141 0.15042 0.41362 0.0
Co607 Co 0.93014 0.18251 0.4075 0.0
O608 O 0.94355 0.16391 0.3891 0.0
C609 C 0.91953 0.15987 0.44366 0.0
C610 C 0.97902 0.1678 0.4665 0.0
C611 C 0.95502 0.15051 0.3957 0.0
O612 O 0.93789 0.15745 0.4484 0.0
O613 O 0.91386 0.17044 0.42902 0.0
O614 O 0.98361 0.18459 0.42302 0.0
O615 O 0.95201 0.19106 0.42357 0.0
Co616 Co 0.08509 0.21256 0.68563 0.0
O617 O 0.07153 0.21784 0.71031 0.0
O618 O 0.10112 0.2293 0.70249 0.0
C619 C 0.05867 0.218 0.66549 0.0
O620 O 0.10374 0.21156 0.66187 0.0
Co621 Co 0.07232 0.17947 0.6562 0.0
O622 O 0.09008 0.19359 0.6375 0.0
C623 C 0.09553 0.1693 0.69209 0.0
C624 C 0.08673 0.22852 0.71522 0.0
C625 C 0.1034 0.20529 0.6439 0.0
O626 O 0.09788 0.18771 0.69668 0.0
O627 O 0.08469 0.16342 0.67772 0.0
O628 O 0.06907 0.23282 0.67203 0.0
O629 O 0.06358 0.20105 0.67252 0.0
Co630 Co 0.46112 0.33439 0.56737 0.0
O631 O 0.46631 0.32012 0.54317 0.0
O632 O 0.47782 0.34994 0.55003 0.0
C633 C 0.46664 0.30865 0.58826 0.0
O634 O 0.46012 0.35366 0.59053 0.0
Co635 Co 0.42795 0.32232 0.59702 0.0
O636 O 0.44213 0.34062 0.61521 0.0
C637 C 0.41779 0.34421 0.5604 0.0
C638 C 0.47709 0.3351 0.53782 0.0
C639 C 0.4539 0.35372 0.6085 0.0
O640 O 0.43622 0.34677 0.55602 0.0
O641 O 0.41189 0.33338 0.57478 0.0
O642 O 0.48144 0.3189 0.58146 0.0
O643 O 0.44968 0.31329 0.58108 0.0
Co644 Co 0.42075 0.71246 0.31855 0.0
O645 O 0.43478 0.71701 0.29408 0.0
O646 O 0.40524 0.72906 0.30106 0.0
C647 C 0.44695 0.71826 0.33892 0.0
O648 O 0.40172 0.71207 0.342 0.0
Co649 Co 0.43287 0.67986 0.34869 0.0
O650 O 0.41481 0.6943 0.36682 0.0
C651 C 0.40968 0.66922 0.31289 0.0
C652 C 0.41993 0.72793 0.28869 0.0
C653 C 0.40171 0.70602 0.36005 0.0
O654 O 0.40786 0.68753 0.30776 0.0
O655 O 0.42013 0.66349 0.32759 0.0
O656 O 0.43661 0.73292 0.33197 0.0
O657 O 0.44207 0.70115 0.33224 0.0
Co658 Co 0.58461 0.79128 0.81897 0.0
O659 O 0.57009 0.78595 0.79496 0.0
O660 O 0.59977 0.77406 0.80178 0.0
C661 C 0.55882 0.78637 0.84003 0.0
O662 O 0.60403 0.79242 0.84207 0.0
Co663 Co 0.57322 0.82528 0.84782 0.0
O664 O 0.5914 0.81137 0.86628 0.0
C665 C 0.5952 0.83423 0.81093 0.0
C666 C 0.58486 0.77489 0.78965 0.0
C667 C 0.60429 0.79919 0.85986 0.0
O668 O 0.59741 0.81567 0.80702 0.0
O669 O 0.58486 0.84073 0.82539 0.0
O670 O 0.56892 0.77141 0.83339 0.0
O671 O 0.56362 0.80321 0.83263 0.0
Co672 Co 0.56814 0.54156 0.66947 0.0
O673 O 0.54411 0.53601 0.68392 0.0
O674 O 0.55123 0.52401 0.65435 0.0
C675 C 0.58927 0.53728 0.69535 0.0
O676 O 0.59131 0.54285 0.65014 0.0
Co677 Co 0.59666 0.576 0.68077 0.0
O678 O 0.61534 0.56193 0.66292 0.0
C679 C 0.5595 0.58433 0.6589 0.0
C680 C 0.53898 0.52482 0.66916 0.0
C681 C 0.60907 0.54969 0.65002 0.0
O682 O 0.5559 0.56573 0.6565 0.0
O683 O 0.57385 0.59096 0.66933 0.0
O684 O 0.58283 0.52205 0.68548 0.0
O685 O 0.58156 0.55389 0.69033 0.0
Co686 Co 0.21237 0.3174 0.91948 0.0
O687 O 0.21843 0.29302 0.93321 0.0
O688 O 0.22927 0.30085 0.90337 0.0
C689 C 0.21768 0.3381 0.94553 0.0
O690 O 0.21055 0.34083 0.9006 0.0
Co691 Co 0.17847 0.34581 0.93225 0.0
O692 O 0.19158 0.36466 0.91386 0.0
C693 C 0.16922 0.30935 0.90965 0.0
C694 C 0.22893 0.28821 0.91783 0.0
C695 C 0.20355 0.3585 0.90065 0.0
O696 O 0.18774 0.30554 0.90701 0.0
O697 O 0.1629 0.32355 0.92046 0.0
O698 O 0.23248 0.33175 0.93498 0.0
O699 O 0.20083 0.33054 0.94104 0.0
Co700 Co 0.43691 0.96285 0.17059 0.0
O701 O 0.46142 0.96886 0.18418 0.0
O702 O 0.45343 0.97963 0.15437 0.0
C703 C 0.41636 0.9682 0.19672 0.0
O704 O 0.41342 0.96116 0.15177 0.0
Co705 Co 0.40786 0.92946 0.18342 0.0
O706 O 0.38911 0.94302 0.16526 0.0
C707 C 0.44414 0.9196 0.16063 0.0
C708 C 0.46615 0.97934 0.16876 0.0
C709 C 0.39556 0.95466 0.1519 0.0
O710 O 0.44854 0.93804 0.1582 0.0
O711 O 0.42971 0.91365 0.17135 0.0
O712 O 0.42273 0.98303 0.18623 0.0
O713 O 0.4238 0.95135 0.19211 0.0
Co714 Co 0.79235 0.18707 0.42021 0.0
O715 O 0.78668 0.211 0.4347 0.0
O716 O 0.775 0.204 0.40495 0.0
C717 C 0.7877 0.1659 0.4459 0.0
O718 O 0.79377 0.16403 0.40083 0.0
Co719 Co 0.82661 0.15851 0.43176 0.0
O720 O 0.81266 0.13991 0.41368 0.0
C721 C 0.83531 0.19582 0.41049 0.0
C722 C 0.77561 0.21614 0.41986 0.0
C723 C 0.8005 0.14625 0.40074 0.0
O724 O 0.81674 0.19923 0.4076 0.0
O725 O 0.84179 0.18166 0.42127 0.0
O726 O 0.7726 0.17235 0.43586 0.0
O727 O 0.8044 0.17359 0.44112 0.0
Co728 Co 0.56823 0.46212 0.33265 0.0
O729 O 0.54405 0.46782 0.31858 0.0
O730 O 0.5513 0.47906 0.34842 0.0
C731 C 0.58913 0.46759 0.3068 0.0
O732 O 0.59155 0.46055 0.35171 0.0
Co733 Co 0.59695 0.42842 0.32007 0.0
O734 O 0.61547 0.44155 0.3387 0.0
C735 C 0.56086 0.41897 0.34323 0.0
C736 C 0.539 0.47864 0.33364 0.0
C737 C 0.60919 0.45343 0.35191 0.0
O738 O 0.55644 0.43745 0.34516 0.0
O739 O 0.57531 0.41275 0.33271 0.0
O740 O 0.58251 0.48232 0.31726 0.0
O741 O 0.58165 0.45068 0.3112 0.0
Co742 Co 0.29267 0.3187 0.58484 0.0
O743 O 0.28675 0.29442 0.57082 0.0
O744 O 0.27591 0.30187 0.60076 0.0
C745 C 0.2873 0.3397 0.55911 0.0
O746 O 0.29431 0.34188 0.60402 0.0
Co747 Co 0.32623 0.34771 0.57247 0.0
O748 O 0.31269 0.36623 0.59093 0.0
C749 C 0.33597 0.31101 0.59439 0.0
C750 C 0.27625 0.28941 0.58613 0.0
C751 C 0.30092 0.3597 0.60413 0.0
O752 O 0.31748 0.30694 0.59705 0.0
O753 O 0.34204 0.32527 0.5835 0.0
O754 O 0.27246 0.33308 0.56945 0.0
O755 O 0.30415 0.33216 0.56355 0.0
Co756 Co 0.43662 0.04148 0.83508 0.0
O757 O 0.46099 0.03569 0.82123 0.0
O758 O 0.45309 0.02419 0.85079 0.0
C759 C 0.41587 0.03685 0.809 0.0
O760 O 0.41317 0.04296 0.85397 0.0
Co761 Co 0.40826 0.07571 0.82298 0.0
O762 O 0.38931 0.06199 0.84087 0.0
C763 C 0.4452 0.08446 0.84489 0.0
C764 C 0.46575 0.02478 0.83633 0.0
C765 C 0.39544 0.04981 0.85389 0.0
O766 O 0.44854 0.0659 0.84792 0.0
O767 O 0.43125 0.0909 0.83381 0.0
O768 O 0.42223 0.02174 0.81909 0.0
O769 O 0.42355 0.05353 0.81388 0.0
Co770 Co 0.71463 0.18608 0.08531 0.0
O771 O 0.72047 0.21012 0.07109 0.0
O772 O 0.73204 0.20282 0.1008 0.0
C773 C 0.71941 0.16523 0.0593 0.0
O774 O 0.71295 0.16281 0.10444 0.0
Co775 Co 0.68034 0.15779 0.07318 0.0
O776 O 0.69383 0.139 0.09132 0.0
C777 C 0.67171 0.19459 0.09554 0.0
C778 C 0.73155 0.21507 0.08599 0.0
C779 C 0.70594 0.14512 0.10442 0.0
O780 O 0.69029 0.19826 0.09803 0.0
O781 O 0.66518 0.18034 0.08492 0.0
O782 O 0.73441 0.17149 0.06961 0.0
O783 O 0.70267 0.17286 0.06407 0.0
Co784 Co 0.66944 0.06858 0.0405 0.0
O785 O 0.68334 0.04432 0.03449 0.0
O786 O 0.65376 0.05223 0.02301 0.0
C787 C 0.6956 0.08926 0.0361 0.0
O788 O 0.65054 0.09204 0.0422 0.0
Co789 Co 0.68155 0.09672 0.07496 0.0
O790 O 0.66374 0.11577 0.06135 0.0
C791 C 0.65926 0.05985 0.08336 0.0
C792 C 0.66827 0.03963 0.02351 0.0
C793 C 0.65066 0.10973 0.04918 0.0
O794 O 0.65655 0.0564 0.06476 0.0
O795 O 0.67003 0.07396 0.08993 0.0
O796 O 0.68546 0.08313 0.02092 0.0
O797 O 0.69065 0.08151 0.05272 0.0
Co798 Co 0.68703 0.41945 0.29243 0.0
O799 O 0.71157 0.43313 0.28689 0.0
O800 O 0.70394 0.40328 0.27595 0.0
C801 C 0.66646 0.44543 0.28665 0.0
O802 O 0.66352 0.40062 0.2937 0.0
Co803 Co 0.65762 0.43237 0.32548 0.0
O804 O 0.63905 0.41423 0.31155 0.0
C805 C 0.69384 0.40992 0.33589 0.0
C806 C 0.71656 0.41776 0.27646 0.0
C807 C 0.64556 0.40088 0.29994 0.0
O808 O 0.6982 0.40715 0.31747 0.0
O809 O 0.67962 0.42103 0.34167 0.0
O810 O 0.6732 0.43497 0.27195 0.0
O811 O 0.67368 0.44094 0.30363 0.0
Co812 Co 0.3342 0.43747 0.54122 0.0
O813 O 0.3207 0.46188 0.53496 0.0
O814 O 0.35044 0.45368 0.52412 0.0
C815 C 0.30803 0.41687 0.53611 0.0
O816 O 0.35272 0.41377 0.5433 0.0
Co817 Co 0.32094 0.40984 0.57559 0.0
O818 O 0.33923 0.39064 0.56293 0.0
C819 C 0.34427 0.44596 0.5843 0.0
C820 C 0.33607 0.46644 0.52436 0.0
C821 C 0.35252 0.39631 0.55082 0.0
O822 O 0.34687 0.44951 0.56571 0.0
O823 O 0.33327 0.432 0.5908 0.0
O824 O 0.31858 0.42307 0.52126 0.0
O825 O 0.31247 0.42469 0.55286 0.0
Co826 Co 0.31828 0.08427 0.79054 0.0
O827 O 0.29403 0.07068 0.78385 0.0
O828 O 0.30215 0.10057 0.77341 0.0
C829 C 0.33906 0.05831 0.78536 0.0
O830 O 0.34183 0.10292 0.79314 0.0
Co831 Co 0.34549 0.07078 0.82515 0.0
O832 O 0.36469 0.08955 0.81318 0.0
C833 C 0.3092 0.09382 0.83363 0.0
C834 C 0.2895 0.0861 0.77333 0.0
C835 C 0.35912 0.10289 0.80108 0.0
O836 O 0.30592 0.09661 0.81502 0.0
O837 O 0.32304 0.08275 0.84024 0.0
O838 O 0.33299 0.06899 0.77056 0.0
O839 O 0.33104 0.0625 0.80208 0.0
Co840 Co 0.67163 0.93764 0.96069 0.0
O841 O 0.68511 0.96219 0.96659 0.0
O842 O 0.65518 0.95426 0.97715 0.0
C843 C 0.69749 0.91698 0.96659 0.0
O844 O 0.65299 0.91405 0.95899 0.0
Co845 Co 0.68505 0.90883 0.92732 0.0
O846 O 0.66637 0.89016 0.94022 0.0
C847 C 0.6617 0.94458 0.91731 0.0
C848 C 0.66958 0.96698 0.97687 0.0
C849 C 0.65299 0.89639 0.95196 0.0
O850 O 0.65934 0.94902 0.93575 0.0
O851 O 0.67262 0.93033 0.91133 0.0
O852 O 0.68692 0.92372 0.9812 0.0
O853 O 0.69335 0.92444 0.9496 0.0
Co854 Co 0.81862 0.41983 0.21346 0.0
O855 O 0.7941 0.43329 0.2195 0.0
O856 O 0.80217 0.40351 0.23029 0.0
C857 C 0.83915 0.4459 0.21896 0.0
O858 O 0.84235 0.4013 0.21155 0.0
Co859 Co 0.84687 0.43332 0.17961 0.0
O860 O 0.86585 0.41493 0.19243 0.0
C861 C 0.81113 0.4097 0.1702 0.0
C862 C 0.78944 0.41791 0.23003 0.0
C863 C 0.85993 0.4015 0.20427 0.0
O864 O 0.80701 0.40731 0.18871 0.0
O865 O 0.82517 0.42075 0.16399 0.0
O866 O 0.8327 0.43536 0.23371 0.0
O867 O 0.83153 0.44156 0.20209 0.0
Co868 Co 0.33481 0.56864 0.46181 0.0
O869 O 0.32107 0.54423 0.46762 0.0
O870 O 0.35097 0.55189 0.47845 0.0
C871 C 0.309 0.58944 0.46751 0.0
O872 O 0.35363 0.59212 0.46013 0.0
Co873 Co 0.32172 0.59731 0.42822 0.0
O874 O 0.34039 0.61594 0.44117 0.0
C875 C 0.34492 0.56139 0.41851 0.0
C876 C 0.33644 0.5393 0.47806 0.0
C877 C 0.35372 0.60974 0.45298 0.0
O878 O 0.34719 0.55708 0.43699 0.0
O879 O 0.33407 0.57562 0.41238 0.0
O880 O 0.31946 0.58272 0.48219 0.0
O881 O 0.31323 0.58192 0.45056 0.0
Co882 Co 0.18757 0.08425 0.71035 0.0
O883 O 0.21203 0.0706 0.71615 0.0
O884 O 0.20447 0.10065 0.72661 0.0
C885 C 0.16671 0.05865 0.71658 0.0
O886 O 0.1641 0.10304 0.70863 0.0
Co887 Co 0.15877 0.07065 0.67705 0.0
O888 O 0.14026 0.08967 0.68976 0.0
C889 C 0.19459 0.09358 0.66679 0.0
C890 C 0.21703 0.08611 0.72635 0.0
C891 C 0.14648 0.10308 0.70148 0.0
O892 O 0.19884 0.09627 0.68524 0.0
O893 O 0.1806 0.08228 0.66085 0.0
O894 O 0.17366 0.06925 0.73108 0.0
O895 O 0.17416 0.06254 0.69953 0.0
Co896 Co 0.04091 0.1698 0.56924 0.0
O897 O 0.03539 0.18329 0.5446 0.0
O898 O 0.02425 0.1536 0.55251 0.0
C899 C 0.03525 0.19619 0.58942 0.0
O900 O 0.04215 0.15116 0.59293 0.0
Co901 Co 0.07398 0.18277 0.59852 0.0
O902 O 0.06018 0.1648 0.61725 0.0
C903 C 0.0842 0.15942 0.5627 0.0
C904 C 0.02483 0.16797 0.53977 0.0
C905 C 0.04849 0.15148 0.61086 0.0
O906 O 0.06579 0.15718 0.55803 0.0
O907 O 0.09007 0.17013 0.57716 0.0
O908 O 0.02055 0.18555 0.58297 0.0
O909 O 0.05225 0.19147 0.58235 0.0
Co910 Co 0.54324 0.83555 0.93678 0.0
O911 O 0.53792 0.82202 0.96143 0.0
O912 O 0.52671 0.85172 0.95365 0.0
C913 C 0.53752 0.80925 0.91659 0.0
O914 O 0.54433 0.85418 0.91308 0.0
Co915 Co 0.57611 0.82251 0.9072 0.0
O916 O 0.56201 0.84037 0.88858 0.0
C917 C 0.5866 0.84559 0.94311 0.0
C918 C 0.52739 0.83732 0.96636 0.0
C919 C 0.55045 0.85378 0.89507 0.0
O920 O 0.56823 0.84809 0.94778 0.0
O921 O 0.59232 0.83472 0.9287 0.0
O922 O 0.52279 0.81974 0.9232 0.0
O923 O 0.55452 0.81398 0.92361 0.0
Co924 Co 0.92248 0.29294 0.18786 0.0
O925 O 0.93643 0.28742 0.21217 0.0
O926 O 0.90656 0.27626 0.20491 0.0
C927 C 0.94837 0.28713 0.16714 0.0
O928 O 0.90357 0.29438 0.16439 0.0
Co929 Co 0.93547 0.32632 0.1589 0.0
O930 O 0.91687 0.3131 0.1404 0.0
C931 C 0.91213 0.33624 0.19474 0.0
C932 C 0.92131 0.27672 0.21725 0.0
C933 C 0.90356 0.30133 0.14668 0.0
O934 O 0.91005 0.3178 0.19932 0.0
O935 O 0.92281 0.34226 0.18033 0.0
O936 O 0.93783 0.27251 0.17386 0.0
O937 O 0.94404 0.30413 0.17445 0.0
Co938 Co 0.46332 0.67051 0.43606 0.0
O939 O 0.46847 0.68459 0.4604 0.0
O940 O 0.4802 0.65494 0.45327 0.0
C941 C 0.46868 0.69657 0.41547 0.0
O942 O 0.46234 0.65149 0.41257 0.0
Co943 Co 0.43006 0.68284 0.40657 0.0
O944 O 0.44439 0.66501 0.38809 0.0
C945 C 0.42007 0.66025 0.4429 0.0
C946 C 0.47941 0.66969 0.4656 0.0
C947 C 0.45611 0.65175 0.39457 0.0
O948 O 0.43851 0.65787 0.44738 0.0
O949 O 0.41414 0.67091 0.42842 0.0
O950 O 0.48354 0.68634 0.42216 0.0
O951 O 0.45176 0.69174 0.42262 0.0
Co952 Co 0.58378 0.7128 0.68704 0.0
O953 O 0.56947 0.71811 0.7112 0.0
O954 O 0.59915 0.7299 0.70416 0.0
C955 C 0.55786 0.71786 0.66614 0.0
O956 O 0.603 0.71169 0.66381 0.0
Co957 Co 0.57206 0.67897 0.6581 0.0
O958 O 0.59008 0.69299 0.63956 0.0
C959 C 0.59432 0.66978 0.6948 0.0
C960 C 0.58436 0.72909 0.71641 0.0
C961 C 0.60306 0.70507 0.64596 0.0
O962 O 0.59658 0.68831 0.69882 0.0
O963 O 0.58388 0.66341 0.68035 0.0
O964 O 0.56805 0.73277 0.67279 0.0
O965 O 0.56264 0.70098 0.67348 0.0
Co966 Co 0.96287 0.83423 0.5685 0.0
O967 O 0.96817 0.82004 0.54425 0.0
O968 O 0.97977 0.84976 0.5513 0.0
C969 C 0.96822 0.80826 0.58924 0.0
O970 O 0.96176 0.85341 0.59178 0.0
Co971 Co 0.92965 0.82204 0.59808 0.0
O972 O 0.94375 0.84023 0.61638 0.0
C973 C 0.91966 0.84455 0.56169 0.0
C974 C 0.97907 0.83496 0.53904 0.0
C975 C 0.95542 0.85345 0.60972 0.0
O976 O 0.93808 0.84677 0.55706 0.0
O977 O 0.91373 0.83403 0.57626 0.0
O978 O 0.98308 0.81852 0.58257 0.0
O979 O 0.95131 0.81304 0.58204 0.0
Co980 Co 0.92037 0.21309 0.31892 0.0
O981 O 0.93481 0.21842 0.29486 0.0
O982 O 0.90536 0.23069 0.30198 0.0
C983 C 0.94635 0.21738 0.33991 0.0
O984 O 0.90112 0.21202 0.34216 0.0
Co985 Co 0.93156 0.17879 0.3476 0.0
O986 O 0.91394 0.19312 0.36629 0.0
C987 C 0.90948 0.17031 0.31058 0.0
C988 C 0.92018 0.22977 0.28976 0.0
C989 C 0.90106 0.20535 0.35998 0.0
O990 O 0.90721 0.18891 0.30686 0.0
O991 O 0.91992 0.16372 0.32493 0.0
O992 O 0.93653 0.2326 0.33342 0.0
O993 O 0.94121 0.20073 0.33233 0.0
Co994 Co 0.08478 0.29153 0.81746 0.0
O995 O 0.07097 0.28518 0.79315 0.0
O996 O 0.10081 0.27443 0.80102 0.0
C997 C 0.05887 0.28663 0.83838 0.0
O998 O 0.10371 0.29357 0.84081 0.0
Co999 Co 0.07212 0.3258 0.84561 0.0
O1000 O 0.09039 0.31259 0.86458 0.0
C1001 C 0.09393 0.33465 0.80865 0.0
C1002 C 0.08632 0.27462 0.7884 0.0
C1003 C 0.10358 0.30056 0.8585 0.0
O1004 O 0.09712 0.3161 0.80534 0.0
O1005 O 0.08278 0.34103 0.82258 0.0
O1006 O 0.06925 0.27165 0.83216 0.0
O1007 O 0.06341 0.30331 0.83052 0.0
Co1008 Co 0.56837 0.04212 0.16884 0.0
O1009 O 0.54404 0.03646 0.18286 0.0
O1010 O 0.55143 0.02535 0.15301 0.0
C1011 C 0.58918 0.03669 0.19475 0.0
O1012 O 0.59166 0.04351 0.14972 0.0
Co1013 Co 0.59777 0.07539 0.18124 0.0
O1014 O 0.61621 0.06153 0.16299 0.0
C1015 C 0.56137 0.08536 0.1587 0.0
C1016 C 0.53898 0.02585 0.16764 0.0
C1017 C 0.60958 0.0499 0.14971 0.0
O1018 O 0.5568 0.06694 0.15645 0.0
O1019 O 0.57595 0.09129 0.16924 0.0
O1020 O 0.58253 0.02188 0.18438 0.0
O1021 O 0.58184 0.0536 0.19016 0.0
Co1022 Co 0.2126 0.81829 0.42052 0.0
O1023 O 0.21875 0.79385 0.43402 0.0
O1024 O 0.22955 0.80198 0.40423 0.0
C1025 C 0.21788 0.839 0.44646 0.0
O1026 O 0.21059 0.84199 0.40202 0.0
Co1027 Co 0.17819 0.84585 0.43393 0.0
O1028 O 0.19086 0.86504 0.41555 0.0
C1029 C 0.16943 0.8096 0.41108 0.0
C1030 C 0.22931 0.78924 0.41863 0.0
C1031 C 0.20301 0.85943 0.40226 0.0
O1032 O 0.188 0.80644 0.40796 0.0
O1033 O 0.16292 0.82317 0.42258 0.0
O1034 O 0.23271 0.83253 0.43604 0.0
O1035 O 0.20109 0.83115 0.44219 0.0
Co1036 Co 0.43643 0.46248 0.66929 0.0
O1037 O 0.4605 0.46785 0.68373 0.0
O1038 O 0.45347 0.47989 0.65416 0.0
C1039 C 0.41538 0.46699 0.69518 0.0
O1040 O 0.41321 0.4613 0.64999 0.0
Co1041 Co 0.4078 0.42819 0.6807 0.0
O1042 O 0.38918 0.44221 0.66275 0.0
C1043 C 0.4448 0.4196 0.65877 0.0
C1044 C 0.4657 0.47901 0.66898 0.0
C1045 C 0.39545 0.45445 0.64985 0.0
O1046 O 0.44843 0.43819 0.65632 0.0
O1047 O 0.43054 0.41303 0.66933 0.0
O1048 O 0.42193 0.48214 0.68528 0.0
O1049 O 0.42296 0.4503 0.69018 0.0
Co1050 Co 0.79421 0.68737 0.92163 0.0
O1051 O 0.78864 0.71166 0.9356 0.0
O1052 O 0.7775 0.7044 0.90573 0.0
C1053 C 0.78848 0.66661 0.94745 0.0
O1054 O 0.79567 0.66396 0.90268 0.0
Co1055 Co 0.82771 0.65849 0.93468 0.0
O1056 O 0.8146 0.64006 0.91584 0.0
C1057 C 0.83761 0.69454 0.91189 0.0
C1058 C 0.77792 0.71673 0.92049 0.0
C1059 C 0.80276 0.64631 0.90256 0.0
O1060 O 0.81914 0.69873 0.90928 0.0
O1061 O 0.84364 0.68054 0.92313 0.0
O1062 O 0.77379 0.67331 0.93699 0.0
O1063 O 0.80544 0.67399 0.94309 0.0
Co1064 Co 0.56789 0.96218 0.83385 0.0
O1065 O 0.54355 0.96833 0.82012 0.0
O1066 O 0.55151 0.97924 0.84995 0.0
C1067 C 0.58877 0.96713 0.80794 0.0
O1068 O 0.59147 0.96025 0.85254 0.0
Co1069 Co 0.59566 0.92773 0.82099 0.0
O1070 O 0.61479 0.94077 0.83912 0.0
C1071 C 0.5593 0.91919 0.84393 0.0
C1072 C 0.53885 0.97887 0.83549 0.0
C1073 C 0.60901 0.95289 0.85236 0.0
O1074 O 0.5558 0.93777 0.84652 0.0
O1075 O 0.57331 0.9126 0.83305 0.0
O1076 O 0.58235 0.98208 0.81824 0.0
O1077 O 0.58086 0.95042 0.81235 0.0
Co1078 Co 0.29186 0.81814 0.08642 0.0
O1079 O 0.2858 0.79396 0.07232 0.0
O1080 O 0.27476 0.80145 0.10218 0.0
C1081 C 0.28675 0.83903 0.06052 0.0
O1082 O 0.29369 0.84137 0.10559 0.0
Co1083 Co 0.32589 0.8466 0.07409 0.0
O1084 O 0.3127 0.8653 0.09259 0.0
C1085 C 0.33494 0.80984 0.09628 0.0
C1086 C 0.2751 0.78903 0.08751 0.0
C1087 C 0.30071 0.85904 0.10572 0.0
O1088 O 0.3164 0.80605 0.09885 0.0
O1089 O 0.34132 0.82414 0.08565 0.0
O1090 O 0.27188 0.83269 0.07096 0.0
O1091 O 0.30357 0.83142 0.06506 0.0
Co1092 Co 0.43793 0.54316 0.33404 0.0
O1093 O 0.46177 0.5372 0.31954 0.0
O1094 O 0.45495 0.52602 0.3495 0.0
C1095 C 0.41635 0.53797 0.30879 0.0
O1096 O 0.41483 0.54507 0.35336 0.0
Co1097 Co 0.40998 0.57763 0.32162 0.0
O1098 O 0.39134 0.56463 0.34029 0.0
C1099 C 0.44694 0.5863 0.34335 0.0
C1100 C 0.46697 0.52631 0.33448 0.0
C1101 C 0.39731 0.55251 0.35345 0.0
O1102 O 0.4502 0.56771 0.34631 0.0
O1103 O 0.433 0.59282 0.33231 0.0
O1104 O 0.42314 0.5231 0.31893 0.0
O1105 O 0.42432 0.55473 0.31288 0.0
Co1106 Co 0.7116 0.68646 0.58547 0.0
O1107 O 0.71725 0.71033 0.57083 0.0
O1108 O 0.72907 0.70349 0.60053 0.0
C1109 C 0.71611 0.66508 0.55989 0.0
O1110 O 0.71023 0.66352 0.605 0.0
Co1111 Co 0.67718 0.65792 0.57422 0.0
O1112 O 0.69104 0.63944 0.59248 0.0
C1113 C 0.66867 0.69535 0.59534 0.0
C1114 C 0.72843 0.71553 0.58556 0.0
C1115 C 0.70331 0.64581 0.60532 0.0
O1116 O 0.68727 0.69871 0.59814 0.0
O1117 O 0.6621 0.68118 0.58461 0.0
O1118 O 0.73126 0.67167 0.56976 0.0
O1119 O 0.69944 0.67283 0.56469 0.0
Co1120 Co 0.66931 0.56737 0.54122 0.0
O1121 O 0.68294 0.54311 0.53468 0.0
O1122 O 0.65305 0.55117 0.52414 0.0
C1123 C 0.69527 0.58814 0.53605 0.0
O1124 O 0.65063 0.5909 0.54364 0.0
Co1125 Co 0.68268 0.5949 0.57567 0.0
O1126 O 0.66399 0.614 0.56342 0.0
C1127 C 0.65985 0.55847 0.5843 0.0
C1128 C 0.66752 0.53852 0.52416 0.0
C1129 C 0.65068 0.60828 0.55134 0.0
O1130 O 0.65698 0.55508 0.56572 0.0
O1131 O 0.67087 0.57242 0.59079 0.0
O1132 O 0.68463 0.58201 0.52123 0.0
O1133 O 0.69102 0.5802 0.55279 0.0
Co1134 Co 0.68697 0.9186 0.79106 0.0
O1135 O 0.71118 0.93245 0.78462 0.0
O1136 O 0.7033 0.90259 0.77385 0.0
C1137 C 0.66601 0.94446 0.78624 0.0
O1138 O 0.66367 0.89964 0.79326 0.0
Co1139 Co 0.65918 0.93121 0.82558 0.0
O1140 O 0.64009 0.91291 0.81255 0.0
C1141 C 0.69613 0.90931 0.83409 0.0
C1142 C 0.71589 0.91711 0.77401 0.0
C1143 C 0.64608 0.89972 0.80046 0.0
O1144 O 0.69926 0.90623 0.8155 0.0
O1145 O 0.68228 0.92045 0.84066 0.0
O1146 O 0.67216 0.93407 0.77124 0.0
O1147 O 0.67396 0.93997 0.80291 0.0
Co1148 Co 0.33592 0.93629 0.04253 0.0
O1149 O 0.32191 0.96053 0.03661 0.0
O1150 O 0.3516 0.95283 0.02525 0.0
C1151 C 0.30991 0.91544 0.03791 0.0
O1152 O 0.35496 0.91296 0.04412 0.0
Co1153 Co 0.32391 0.90781 0.07672 0.0
O1154 O 0.34191 0.88898 0.06302 0.0
C1155 C 0.34587 0.9448 0.08548 0.0
C1156 C 0.33705 0.96537 0.02579 0.0
C1157 C 0.35497 0.89522 0.05093 0.0
O1158 O 0.34863 0.94839 0.06692 0.0
O1159 O 0.33519 0.93056 0.0919 0.0
O1160 O 0.32004 0.92174 0.0228 0.0
O1161 O 0.31476 0.92314 0.05459 0.0
Co1162 Co 0.31704 0.5846 0.29307 0.0
O1163 O 0.29306 0.57044 0.28676 0.0
O1164 O 0.3004 0.60032 0.27576 0.0
C1165 C 0.33824 0.55899 0.28811 0.0
O1166 O 0.34034 0.60363 0.29535 0.0
Co1167 Co 0.34446 0.57166 0.32785 0.0
O1168 O 0.36334 0.5905 0.31543 0.0
C1169 C 0.30772 0.59383 0.33617 0.0
C1170 C 0.28816 0.58548 0.27587 0.0
C1171 C 0.35767 0.60371 0.30321 0.0
O1172 O 0.30472 0.59694 0.31755 0.0
O1173 O 0.32133 0.58246 0.3428 0.0
O1174 O 0.33192 0.56932 0.27317 0.0
O1175 O 0.33017 0.56326 0.30478 0.0
Co1176 Co 0.66874 0.43623 0.46183 0.0
O1177 O 0.68258 0.46063 0.46746 0.0
O1178 O 0.65263 0.45316 0.4783 0.0
C1179 C 0.69458 0.41552 0.4676 0.0
O1180 O 0.64976 0.41287 0.46041 0.0
Co1181 Co 0.68154 0.40691 0.42867 0.0
O1182 O 0.66317 0.38842 0.44238 0.0
C1183 C 0.65956 0.44341 0.41841 0.0
C1184 C 0.6672 0.46569 0.47783 0.0
C1185 C 0.64986 0.39497 0.45403 0.0
O1186 O 0.65661 0.44759 0.43683 0.0
O1187 O 0.67062 0.42918 0.41257 0.0
O1188 O 0.68412 0.42223 0.48231 0.0
O1189 O 0.69016 0.42281 0.45063 0.0
Co1190 Co 0.81858 0.91851 0.71213 0.0
O1191 O 0.79411 0.93229 0.71768 0.0
O1192 O 0.80153 0.90233 0.72844 0.0
C1193 C 0.83907 0.94451 0.7183 0.0
O1194 O 0.842 0.89955 0.71073 0.0
Co1195 Co 0.84817 0.93155 0.67937 0.0
O1196 O 0.86655 0.91301 0.69286 0.0
C1197 C 0.81222 0.90861 0.66869 0.0
C1198 C 0.789 0.91689 0.72798 0.0
C1199 C 0.85993 0.89963 0.70436 0.0
O1200 O 0.80736 0.90636 0.68704 0.0
O1201 O 0.82684 0.91921 0.66301 0.0
O1202 O 0.83239 0.93376 0.7328 0.0
O1203 O 0.83204 0.94015 0.70118 0.0
Co1204 Co 0.33421 0.06694 0.96223 0.0
O1205 O 0.32067 0.04256 0.96864 0.0
O1206 O 0.35045 0.05081 0.97938 0.0
C1207 C 0.30826 0.08776 0.96717 0.0
O1208 O 0.35278 0.09057 0.96001 0.0
Co1209 Co 0.32103 0.09437 0.92762 0.0
O1210 O 0.33939 0.11359 0.94018 0.0
C1211 C 0.34401 0.05804 0.9192 0.0
C1212 C 0.33607 0.03805 0.97922 0.0
C1213 C 0.35266 0.10797 0.95235 0.0
O1214 O 0.34681 0.05476 0.93781 0.0
O1215 O 0.3329 0.07184 0.91259 0.0
O1216 O 0.31863 0.08147 0.98211 0.0
O1217 O 0.31259 0.07972 0.95049 0.0
Co1218 Co 0.18649 0.58537 0.21212 0.0
O1219 O 0.21064 0.571 0.21733 0.0
O1220 O 0.20391 0.60083 0.22888 0.0
C1221 C 0.16555 0.55964 0.21762 0.0
O1222 O 0.16339 0.60472 0.21114 0.0
Co1223 Co 0.15679 0.57333 0.17895 0.0
O1224 O 0.13868 0.5917 0.19313 0.0
C1225 C 0.19351 0.59502 0.16876 0.0
C1226 C 0.21603 0.58592 0.22818 0.0
C1227 C 0.14542 0.6048 0.20491 0.0
O1228 O 0.19787 0.5977 0.18719 0.0
O1229 O 0.17914 0.58416 0.16289 0.0
O1230 O 0.17235 0.56989 0.23243 0.0
O1231 O 0.17273 0.56429 0.20067 0.0
Co1232 Co 0.04308 0.67 0.06804 0.0
O1233 O 0.03745 0.68413 0.04384 0.0
O1234 O 0.02598 0.65439 0.05108 0.0
C1235 C 0.03798 0.69595 0.08886 0.0
O1236 O 0.04441 0.65094 0.09135 0.0
Co1237 Co 0.07678 0.68231 0.09705 0.0
O1238 O 0.06279 0.66427 0.11562 0.0
C1239 C 0.08628 0.65989 0.06055 0.0
C1240 C 0.02646 0.66918 0.03882 0.0
C1241 C 0.05089 0.6511 0.10923 0.0
O1242 O 0.06777 0.65739 0.05641 0.0
O1243 O 0.09244 0.67087 0.07471 0.0
O1244 O 0.02304 0.68569 0.08237 0.0
O1245 O 0.0548 0.69121 0.08142 0.0
Co1246 Co 0.54089 0.33484 0.43621 0.0
O1247 O 0.53491 0.32056 0.46016 0.0
O1248 O 0.52354 0.35036 0.45302 0.0
C1249 C 0.53597 0.3092 0.41502 0.0
O1250 O 0.54289 0.35395 0.4129 0.0
Co1251 Co 0.57548 0.32225 0.40837 0.0
O1252 O 0.56254 0.34072 0.38955 0.0
C1253 C 0.58388 0.34461 0.44514 0.0
C1254 C 0.52391 0.33547 0.46519 0.0
C1255 C 0.55044 0.35396 0.39541 0.0
O1256 O 0.56528 0.34735 0.44852 0.0
O1257 O 0.59048 0.33377 0.4311 0.0
O1258 O 0.52101 0.31942 0.42151 0.0
O1259 O 0.55269 0.31359 0.42294 0.0
Co1260 Co 0.92004 0.79034 0.68606 0.0
O1261 O 0.93379 0.78462 0.71049 0.0
O1262 O 0.90411 0.77333 0.70266 0.0
C1263 C 0.94627 0.78521 0.66557 0.0
O1264 O 0.90126 0.79182 0.66247 0.0
Co1265 Co 0.93256 0.82424 0.65759 0.0
O1266 O 0.91469 0.8106 0.6386 0.0
C1267 C 0.90994 0.83341 0.69407 0.0
C1268 C 0.91857 0.77392 0.71532 0.0
C1269 C 0.90152 0.79856 0.64468 0.0
O1270 O 0.90731 0.81488 0.69782 0.0
O1271 O 0.92072 0.83977 0.67987 0.0
O1272 O 0.93583 0.77034 0.6719 0.0
O1273 O 0.94153 0.80206 0.673 0.0
Co1274 Co 0.46153 0.17 0.93615 0.0
O1275 O 0.46658 0.18422 0.96041 0.0
O1276 O 0.47828 0.15449 0.95349 0.0
C1277 C 0.46709 0.19597 0.9155 0.0
O1278 O 0.46069 0.1508 0.91284 0.0
Co1279 Co 0.42862 0.18207 0.90622 0.0
O1280 O 0.44304 0.16402 0.88801 0.0
C1281 C 0.41826 0.15964 0.94257 0.0
C1282 C 0.4775 0.16933 0.9657 0.0
C1283 C 0.45464 0.15081 0.8948 0.0
O1284 O 0.43664 0.15745 0.94737 0.0
O1285 O 0.41248 0.17011 0.9279 0.0
O1286 O 0.48187 0.18571 0.92233 0.0
O1287 O 0.45009 0.19117 0.92249 0.0
Co1288 Co 0.58588 0.2119 0.18648 0.0
O1289 O 0.57128 0.21749 0.21039 0.0
O1290 O 0.60109 0.22912 0.20362 0.0
C1291 C 0.56036 0.21673 0.16512 0.0
O1292 O 0.60538 0.2105 0.16351 0.0
Co1293 Co 0.57434 0.17773 0.15773 0.0
O1294 O 0.59272 0.19154 0.13932 0.0
C1295 C 0.59549 0.16887 0.19506 0.0
C1296 C 0.58612 0.2285 0.21568 0.0
C1297 C 0.60566 0.20367 0.14576 0.0
O1298 O 0.59837 0.18743 0.19856 0.0
O1299 O 0.58472 0.16244 0.18086 0.0
O1300 O 0.57033 0.23177 0.17181 0.0
O1301 O 0.56501 0.19998 0.17278 0.0
Co1302 Co 0.96178 0.33487 0.0687 0.0
O1303 O 0.96666 0.32047 0.0445 0.0
O1304 O 0.97837 0.35026 0.05108 0.0
C1305 C 0.96751 0.3092 0.08965 0.0
O1306 O 0.96103 0.35423 0.09186 0.0
Co1307 Co 0.92885 0.32288 0.09866 0.0
O1308 O 0.9432 0.34121 0.11669 0.0
C1309 C 0.9184 0.34493 0.06222 0.0
C1310 C 0.97748 0.33534 0.03897 0.0
C1311 C 0.95488 0.35435 0.10987 0.0
O1312 O 0.9368 0.34734 0.05761 0.0
O1313 O 0.91258 0.33414 0.07666 0.0
O1314 O 0.98225 0.31934 0.08255 0.0
O1315 O 0.95048 0.31382 0.08262 0.0
Co1316 Co 0.92096 0.71169 0.81772 0.0
O1317 O 0.93459 0.71781 0.79333 0.0
O1318 O 0.90469 0.72846 0.80122 0.0
C1319 C 0.94665 0.71714 0.83871 0.0
O1320 O 0.9023 0.70972 0.84129 0.0
Co1321 Co 0.93426 0.67738 0.84543 0.0
O1322 O 0.9157 0.69006 0.86447 0.0
C1323 C 0.91179 0.66843 0.80904 0.0
C1324 C 0.91915 0.72821 0.78856 0.0
C1325 C 0.90244 0.7022 0.85876 0.0
O1326 O 0.90861 0.687 0.80589 0.0
O1327 O 0.92323 0.66197 0.82267 0.0
O1328 O 0.93627 0.73192 0.83205 0.0
O1329 O 0.94256 0.70033 0.83082 0.0
Co1330 Co 0.08502 0.79396 0.31831 0.0
O1331 O 0.07091 0.78888 0.29397 0.0
O1332 O 0.10062 0.77723 0.30097 0.0
C1333 C 0.05908 0.78841 0.33902 0.0
O1334 O 0.10408 0.79487 0.34171 0.0
Co1335 Co 0.07262 0.82713 0.3479 0.0
O1336 O 0.09071 0.81289 0.36624 0.0
C1337 C 0.09496 0.8373 0.31156 0.0
C1338 C 0.08585 0.77801 0.28868 0.0
C1339 C 0.10392 0.80114 0.35969 0.0
O1340 O 0.09758 0.81887 0.30719 0.0
O1341 O 0.08393 0.8432 0.32579 0.0
O1342 O 0.0693 0.77361 0.33214 0.0
O1343 O 0.0638 0.80537 0.3319 0.0
C1344 C 0.14287 0.5491 0.1383 0.0
C1345 C 0.12232 0.54803 0.13539 0.0
C1346 C 0.15588 0.55042 0.12224 0.0
C1347 C 0.14886 0.55087 0.10262 0.0
H1348 H 0.14889 0.55013 0.15311 0.0
H1349 H 0.17145 0.55274 0.12529 0.0
S1350 S 0.09654 0.54565 0.08697 0.0
N1351 N 0.09567 0.54504 0.11138 0.0
N1352 N 0.12017 0.54777 0.08116 0.0
C1353 C 0.12853 0.54778 0.09945 0.0
C1354 C 0.11522 0.54635 0.11586 0.0
C1355 C 0.70335 0.40499 0.37106 0.0
C1356 C 0.70309 0.39766 0.35155 0.0
C1357 C 0.70502 0.39226 0.3873 0.0
C1358 C 0.70659 0.3717 0.3847 0.0
H1359 H 0.70064 0.42053 0.37389 0.0
H1360 H 0.70383 0.39848 0.40202 0.0
S1361 S 0.70992 0.34532 0.33665 0.0
N1362 N 0.70712 0.36879 0.3305 0.0
N1363 N 0.71043 0.34482 0.36107 0.0
C1364 C 0.70852 0.36437 0.36528 0.0
C1365 C 0.70677 0.37739 0.34867 0.0
C1366 C 0.87719 0.95624 0.59814 0.0
C1367 C 0.85654 0.95571 0.60071 0.0
C1368 C 0.88993 0.95783 0.61451 0.0
C1369 C 0.88236 0.95879 0.6339 0.0
H1370 H 0.88357 0.9534 0.58371 0.0
H1371 H 0.90571 0.95646 0.61209 0.0
S1372 S 0.82955 0.96342 0.64781 0.0
N1373 N 0.82922 0.9604 0.62357 0.0
N1374 N 0.8531 0.96296 0.65429 0.0
C1375 C 0.86183 0.96058 0.63635 0.0
C1376 C 0.84892 0.95921 0.61974 0.0
C1377 C 0.29825 0.13981 0.86254 0.0
C1378 C 0.29654 0.13219 0.88185 0.0
C1379 C 0.29975 0.12711 0.84613 0.0
C1380 C 0.29948 0.10645 0.84859 0.0
H1381 H 0.3002 0.15555 0.86026 0.0
H1382 H 0.30313 0.13346 0.83181 0.0
S1383 S 0.28966 0.07956 0.89534 0.0
N1384 N 0.29066 0.10306 0.90197 0.0
N1385 N 0.29341 0.07921 0.87119 0.0
C1386 C 0.29535 0.09887 0.8675 0.0
C1387 C 0.29395 0.11174 0.88415 0.0
C1388 C 0.11369 0.45719 0.8912 0.0
C1389 C 0.12177 0.45833 0.87201 0.0
C1390 C 0.12599 0.45544 0.9079 0.0
C1391 C 0.14669 0.45497 0.90586 0.0
H1392 H 0.09785 0.45582 0.89319 0.0
H1393 H 0.11924 0.45241 0.92212 0.0
S1394 S 0.17494 0.46296 0.85957 0.0
N1395 N 0.15157 0.46256 0.85245 0.0
N1396 N 0.1746 0.45983 0.88379 0.0
C1397 C 0.1548 0.45864 0.88708 0.0
C1398 C 0.14236 0.46011 0.87013 0.0
C1399 C 0.79898 0.39159 0.11926 0.0
C1400 C 0.79879 0.37097 0.12183 0.0
C1401 C 0.80041 0.40437 0.1355 0.0
C1402 C 0.80184 0.39702 0.15494 0.0
H1403 H 0.7993 0.39788 0.10453 0.0
H1404 H 0.80207 0.42006 0.13267 0.0
S1405 S 0.79948 0.34431 0.1698 0.0
N1406 N 0.79789 0.34382 0.14542 0.0
N1407 N 0.80082 0.36791 0.17596 0.0
C1408 C 0.7997 0.37655 0.15785 0.0
C1409 C 0.79816 0.36348 0.14126 0.0
C1410 C 0.89025 0.04722 0.39105 0.0
C1411 C 0.88263 0.04589 0.3717 0.0
C1412 C 0.87755 0.04893 0.40743 0.0
C1413 C 0.8569 0.04926 0.4049 0.0
H1414 H 0.90603 0.04872 0.39341 0.0
H1415 H 0.88395 0.05199 0.42181 0.0
S1416 S 0.82983 0.04069 0.35799 0.0
N1417 N 0.85337 0.04108 0.35145 0.0
N1418 N 0.82954 0.04416 0.38217 0.0
C1419 C 0.84924 0.04549 0.38594 0.0
C1420 C 0.86211 0.0439 0.36932 0.0
C1421 C 0.20534 0.11271 0.61579 0.0
C1422 C 0.20636 0.13323 0.61888 0.0
C1423 C 0.20394 0.09955 0.63171 0.0
C1424 C 0.20349 0.10641 0.65139 0.0
H1425 H 0.20449 0.10682 0.60092 0.0
H1426 H 0.20168 0.08401 0.62852 0.0
S1427 S 0.20869 0.15859 0.66753 0.0
N1428 N 0.20929 0.15967 0.64313 0.0
N1429 N 0.20656 0.13491 0.67311 0.0
C1430 C 0.20654 0.12672 0.65475 0.0
C1431 C 0.20798 0.14016 0.63846 0.0
C1432 C 0.11912 0.15486 0.55228 0.0
C1433 C 0.09975 0.14723 0.55321 0.0
C1434 C 0.1355 0.14237 0.55026 0.0
C1435 C 0.13319 0.12175 0.54901 0.0
H1436 H 0.12175 0.17049 0.55469 0.0
H1437 H 0.15015 0.14883 0.55091 0.0
S1438 S 0.08551 0.09455 0.54795 0.0
N1439 N 0.07906 0.11798 0.55051 0.0
N1440 N 0.1099 0.09442 0.54655 0.0
C1441 C 0.11384 0.11408 0.54791 0.0
C1442 C 0.09708 0.12686 0.55002 0.0
C1443 C 0.1269 0.34749 0.79841 0.0
C1444 C 0.10622 0.34986 0.79888 0.0
C1445 C 0.13948 0.36398 0.79683 0.0
C1446 C 0.13173 0.38329 0.79577 0.0
H1447 H 0.13341 0.33314 0.80128 0.0
H1448 H 0.15528 0.36171 0.79825 0.0
S1449 S 0.07882 0.39667 0.79088 0.0
N1450 N 0.0787 0.37246 0.79412 0.0
N1451 N 0.10232 0.40336 0.79125 0.0
C1452 C 0.11119 0.38553 0.79387 0.0
C1453 C 0.09843 0.36881 0.79534 0.0
C1454 C 0.86718 0.36302 0.05091 0.0
C1455 C 0.86991 0.38358 0.04968 0.0
C1456 C 0.88333 0.35016 0.05254 0.0
C1457 C 0.90288 0.35737 0.05302 0.0
H1458 H 0.85242 0.35689 0.05177 0.0
H1459 H 0.88041 0.3346 0.055 0.0
S1460 S 0.91811 0.40972 0.0472 0.0
N1461 N 0.8937 0.41038 0.0465 0.0
N1462 N 0.92411 0.38617 0.04965 0.0
C1463 C 0.90589 0.37768 0.04971 0.0
C1464 C 0.88938 0.39082 0.04804 0.0
C1465 C 0.86404 0.14113 0.29807 0.0
C1466 C 0.87188 0.12187 0.2968 0.0
C1467 C 0.87655 0.15766 0.29993 0.0
C1468 C 0.89723 0.15535 0.30039 0.0
H1469 H 0.84822 0.1433 0.29947 0.0
H1470 H 0.86999 0.17194 0.30303 0.0
S1471 S 0.92488 0.10877 0.29209 0.0
N1472 N 0.90142 0.10195 0.29244 0.0
N1473 N 0.92486 0.13297 0.2954 0.0
C1474 C 0.9051 0.1365 0.29661 0.0
C1475 C 0.89244 0.11973 0.29501 0.0
C1476 C 0.12048 0.84994 0.45472 0.0
C1477 C 0.10102 0.85726 0.45347 0.0
C1478 C 0.13669 0.86273 0.45639 0.0
C1479 C 0.13408 0.88334 0.45696 0.0
H1480 H 0.12333 0.83429 0.45278 0.0
H1481 H 0.15144 0.85647 0.45599 0.0
S1482 S 0.08604 0.9099 0.45669 0.0
N1483 N 0.07993 0.88631 0.45496 0.0
N1484 N 0.11042 0.91042 0.45828 0.0
C1485 C 0.11462 0.89077 0.45769 0.0
C1486 C 0.09806 0.87769 0.45593 0.0
C1487 C 0.36482 0.36379 0.70777 0.0
C1488 C 0.37245 0.38314 0.70902 0.0
C1489 C 0.3775 0.3474 0.706 0.0
C1490 C 0.39816 0.34991 0.70556 0.0
H1491 H 0.34903 0.36145 0.70636 0.0
H1492 H 0.37108 0.33303 0.70298 0.0
S1493 S 0.4253 0.39683 0.7138 0.0
N1494 N 0.40177 0.40337 0.71356 0.0
N1495 N 0.42555 0.37264 0.71041 0.0
C1496 C 0.40584 0.36888 0.70924 0.0
C1497 C 0.39299 0.3855 0.71088 0.0
C1498 C 0.86761 0.64189 0.95747 0.0
C1499 C 0.87022 0.62127 0.9575 0.0
C1500 C 0.88382 0.65471 0.95615 0.0
C1501 C 0.90328 0.64742 0.95468 0.0
H1502 H 0.85287 0.64815 0.95724 0.0
H1503 H 0.88096 0.6704 0.95461 0.0
S1504 S 0.91823 0.59469 0.95664 0.0
N1505 N 0.89385 0.59416 0.9582 0.0
N1506 N 0.92435 0.61831 0.95549 0.0
C1507 C 0.90623 0.62692 0.95666 0.0
C1508 C 0.88966 0.61381 0.95808 0.0
C1509 C 0.6284 0.15617 0.20557 0.0
C1510 C 0.60773 0.15378 0.20506 0.0
C1511 C 0.64097 0.1397 0.20738 0.0
C1512 C 0.63321 0.12042 0.20865 0.0
H1513 H 0.63493 0.17048 0.20255 0.0
H1514 H 0.65678 0.14194 0.20596 0.0
S1515 S 0.58027 0.10711 0.21353 0.0
N1516 N 0.58017 0.13127 0.20997 0.0
N1517 N 0.60377 0.1004 0.21334 0.0
C1518 C 0.61265 0.1182 0.21054 0.0
C1519 C 0.59991 0.13489 0.20879 0.0
C1520 C 0.55137 0.12036 0.15399 0.0
C1521 C 0.55178 0.10089 0.14658 0.0
C1522 C 0.54958 0.13663 0.14133 0.0
C1523 C 0.548 0.13409 0.12075 0.0
H1524 H 0.5541 0.12314 0.16955 0.0
H1525 H 0.5507 0.15133 0.14761 0.0
S1526 S 0.54507 0.08613 0.09419 0.0
N1527 N 0.54794 0.07992 0.11764 0.0
N1528 N 0.54434 0.11054 0.09377 0.0
C1529 C 0.54621 0.11469 0.11335 0.0
C1530 C 0.54812 0.09805 0.1263 0.0
C1531 C 0.04793 0.86792 0.36236 0.0
C1532 C 0.04735 0.87053 0.38299 0.0
C1533 C 0.04977 0.8841 0.34958 0.0
C1534 C 0.05118 0.90355 0.35692 0.0
H1535 H 0.04823 0.85317 0.35609 0.0
H1536 H 0.0517 0.88122 0.33393 0.0
S1537 S 0.04784 0.91855 0.4096 0.0
N1538 N 0.0461 0.89419 0.41008 0.0
N1539 N 0.04969 0.92464 0.38601 0.0
C1540 C 0.04865 0.90652 0.37737 0.0
C1541 C 0.04674 0.88998 0.39043 0.0
C1542 C 0.37095 0.30085 0.59938 0.0
C1543 C 0.35142 0.30137 0.60662 0.0
C1544 C 0.38711 0.29891 0.61218 0.0
C1545 C 0.3844 0.29732 0.63273 0.0
H1546 H 0.37388 0.30359 0.58386 0.0
H1547 H 0.40187 0.29994 0.60603 0.0
S1548 S 0.33621 0.29447 0.65887 0.0
N1549 N 0.3302 0.29746 0.63538 0.0
N1550 N 0.36062 0.29365 0.6595 0.0
C1551 C 0.36493 0.29559 0.63996 0.0
C1552 C 0.3484 0.29762 0.62687 0.0
C1553 C 0.95616 0.63621 0.86302 0.0
C1554 C 0.95661 0.63357 0.88364 0.0
C1555 C 0.95452 0.62003 0.8502 0.0
C1556 C 0.95316 0.60056 0.85749 0.0
H1557 H 0.95583 0.65096 0.85679 0.0
H1558 H 0.95267 0.62291 0.83453 0.0
S1559 S 0.95617 0.58553 0.91014 0.0
N1560 N 0.9578 0.60989 0.9107 0.0
N1561 N 0.95451 0.57945 0.88653 0.0
C1562 C 0.95554 0.59758 0.87794 0.0
C1563 C 0.95728 0.61412 0.89105 0.0
C1564 C 0.13362 0.7044 0.09921 0.0
C1565 C 0.15328 0.70382 0.10611 0.0
C1566 C 0.11768 0.70616 0.11231 0.0
C1567 C 0.12072 0.70751 0.13284 0.0
H1568 H 0.13044 0.70192 0.08369 0.0
H1569 H 0.10282 0.70522 0.10639 0.0
S1570 S 0.16933 0.70963 0.15827 0.0
N1571 N 0.17495 0.70707 0.13463 0.0
N1572 N 0.14493 0.71056 0.15928 0.0
C1573 C 0.14031 0.70902 0.13978 0.0
C1574 C 0.15662 0.70716 0.12639 0.0
C1575 C 0.45394 0.88454 0.15582 0.0
C1576 C 0.45374 0.90405 0.14852 0.0
C1577 C 0.45579 0.86832 0.1431 0.0
C1578 C 0.45767 0.87094 0.12256 0.0
H1579 H 0.45102 0.8817 0.17133 0.0
H1580 H 0.45449 0.85359 0.14928 0.0
S1581 S 0.46138 0.91902 0.09632 0.0
N1582 N 0.45818 0.92513 0.11976 0.0
N1583 N 0.46193 0.8946 0.09578 0.0
C1584 C 0.4597 0.89037 0.1153 0.0
C1585 C 0.45772 0.90696 0.12832 0.0
C1586 C 0.34779 0.20552 0.87627 0.0
C1587 C 0.34986 0.20514 0.89698 0.0
C1588 C 0.36443 0.20754 0.86395 0.0
C1589 C 0.38358 0.20918 0.87201 0.0
H1590 H 0.33363 0.20222 0.86953 0.0
H1591 H 0.36246 0.20598 0.84812 0.0
S1592 S 0.39597 0.21445 0.92514 0.0
N1593 N 0.37186 0.21051 0.92487 0.0
N1594 N 0.40305 0.21432 0.90175 0.0
C1595 C 0.38543 0.21121 0.89259 0.0
C1596 C 0.36856 0.20922 0.90508 0.0
C1597 C 0.6566 0.29958 0.37699 0.0
C1598 C 0.6539 0.2995 0.39762 0.0
C1599 C 0.64033 0.29799 0.36411 0.0
C1600 C 0.62093 0.29637 0.37153 0.0
H1601 H 0.671 0.30287 0.37078 0.0
H1602 H 0.6428 0.29982 0.34838 0.0
S1603 S 0.60682 0.29005 0.42409 0.0
N1604 N 0.63097 0.29375 0.42468 0.0
N1605 N 0.60047 0.29082 0.40051 0.0
C1606 C 0.6184 0.29397 0.39199 0.0
C1607 C 0.63489 0.29548 0.40504 0.0
C1608 C 0.1418 0.04849 0.63728 0.0
C1609 C 0.12121 0.0481 0.63446 0.0
C1610 C 0.15477 0.0498 0.62119 0.0
C1611 C 0.14766 0.05088 0.60163 0.0
H1612 H 0.1479 0.04897 0.65209 0.0
H1613 H 0.17041 0.05162 0.62419 0.0
S1614 S 0.09513 0.04757 0.58617 0.0
N1615 N 0.09436 0.04645 0.61056 0.0
N1616 N 0.11878 0.04912 0.58027 0.0
C1617 C 0.12723 0.04846 0.5985 0.0
C1618 C 0.11397 0.04706 0.61496 0.0
C1619 C 0.7057 0.87614 0.84675 0.0
C1620 C 0.70595 0.89682 0.84909 0.0
C1621 C 0.70738 0.86356 0.86322 0.0
C1622 C 0.70929 0.87131 0.88245 0.0
H1623 H 0.70219 0.86969 0.8325 0.0
H1624 H 0.70537 0.84781 0.86105 0.0
S1625 S 0.71641 0.92403 0.89553 0.0
N1626 N 0.71229 0.92423 0.87144 0.0
N1627 N 0.71549 0.90058 0.90231 0.0
C1628 C 0.71194 0.89178 0.8846 0.0
C1629 C 0.7103 0.90454 0.86789 0.0
C1630 C 0.87633 0.45646 0.09881 0.0
C1631 C 0.8557 0.45644 0.10159 0.0
C1632 C 0.88927 0.45783 0.11503 0.0
C1633 C 0.88193 0.45915 0.13448 0.0
H1634 H 0.8825 0.45339 0.08433 0.0
H1635 H 0.90499 0.45608 0.11245 0.0
S1636 S 0.82944 0.46531 0.14892 0.0
N1637 N 0.82875 0.46189 0.12473 0.0
N1638 N 0.85306 0.46446 0.15515 0.0
C1639 C 0.86149 0.46151 0.13715 0.0
C1640 C 0.84837 0.46022 0.12069 0.0
C1641 C 0.29771 0.64034 0.36453 0.0
C1642 C 0.29632 0.63305 0.38399 0.0
C1643 C 0.29874 0.62737 0.34831 0.0
C1644 C 0.29833 0.60675 0.3511 0.0
H1645 H 0.29977 0.65602 0.36195 0.0
H1646 H 0.30189 0.63347 0.33383 0.0
S1647 S 0.2891 0.58073 0.39847 0.0
N1648 N 0.29046 0.60432 0.40468 0.0
N1649 N 0.29242 0.57994 0.37427 0.0
C1650 C 0.29449 0.59951 0.37021 0.0
C1651 C 0.29354 0.61267 0.38667 0.0
C1652 C 0.14297 0.95687 0.36799 0.0
C1653 C 0.12235 0.9571 0.37057 0.0
C1654 C 0.15575 0.95556 0.38423 0.0
C1655 C 0.1484 0.9543 0.40369 0.0
H1656 H 0.14924 0.95655 0.35325 0.0
H1657 H 0.17144 0.95387 0.38141 0.0
S1658 S 0.09566 0.95689 0.41855 0.0
N1659 N 0.09519 0.95824 0.39416 0.0
N1660 N 0.11926 0.95556 0.42471 0.0
C1661 C 0.12792 0.95649 0.40659 0.0
C1662 C 0.11486 0.95789 0.39 0.0
C1663 C 0.80276 0.90369 0.63353 0.0
C1664 C 0.80291 0.8964 0.65305 0.0
C1665 C 0.80104 0.89093 0.61731 0.0
C1666 C 0.79936 0.87039 0.61994 0.0
H1667 H 0.80556 0.91921 0.6307 0.0
H1668 H 0.80225 0.8971 0.60259 0.0
S1669 S 0.79575 0.84415 0.66802 0.0
N1670 N 0.79868 0.86762 0.67414 0.0
N1671 N 0.7953 0.84358 0.6436 0.0
C1672 C 0.79734 0.86311 0.63936 0.0
C1673 C 0.79912 0.87616 0.65595 0.0
C1674 C 0.86133 0.5483 0.86729 0.0
C1675 C 0.88193 0.54735 0.87001 0.0
C1676 C 0.84848 0.54998 0.88344 0.0
C1677 C 0.8557 0.55086 0.90297 0.0
H1678 H 0.85517 0.54898 0.85252 0.0
H1679 H 0.83287 0.55219 0.88051 0.0
S1680 S 0.90822 0.54643 0.91821 0.0
N1681 N 0.90884 0.54519 0.89382 0.0
N1682 N 0.88462 0.54852 0.9242 0.0
C1683 C 0.87608 0.54798 0.90601 0.0
C1684 C 0.88923 0.54622 0.8895 0.0
C1685 C 0.20365 0.59973 0.13375 0.0
C1686 C 0.2029 0.60724 0.15318 0.0
C1687 C 0.20533 0.61234 0.11742 0.0
C1688 C 0.20638 0.63295 0.11986 0.0
H1689 H 0.20133 0.5841 0.13105 0.0
H1690 H 0.20464 0.60598 0.10274 0.0
S1691 S 0.20804 0.65987 0.1677 0.0
N1692 N 0.20574 0.63639 0.17402 0.0
N1693 N 0.20904 0.66015 0.14329 0.0
C1694 C 0.20775 0.6405 0.13924 0.0
C1695 C 0.20601 0.62761 0.15593 0.0
C1696 C 0.1211 0.65468 0.05005 0.0
C1697 C 0.10164 0.64732 0.05122 0.0
C1698 C 0.13734 0.64192 0.04861 0.0
C1699 C 0.13479 0.6213 0.04821 0.0
H1700 H 0.12391 0.67035 0.0519 0.0
H1701 H 0.15207 0.64822 0.04906 0.0
S1702 S 0.08681 0.59463 0.04799 0.0
N1703 N 0.08063 0.61821 0.04957 0.0
N1704 N 0.1112 0.59417 0.0467 0.0
C1705 C 0.11536 0.61382 0.04728 0.0
C1706 C 0.09875 0.62687 0.0488 0.0
C1707 C 0.1127 0.88854 0.29991 0.0
C1708 C 0.13332 0.88602 0.29907 0.0
C1709 C 0.09999 0.87228 0.3015 0.0
C1710 C 0.10739 0.85282 0.30236 0.0
H1711 H 0.1064 0.90324 0.3005 0.0
H1712 H 0.08434 0.87506 0.30363 0.0
S1713 S 0.16003 0.83808 0.29788 0.0
N1714 N 0.16044 0.86247 0.2968 0.0
N1715 N 0.13649 0.83187 0.29991 0.0
C1716 C 0.1278 0.84998 0.2995 0.0
C1717 C 0.1408 0.86661 0.29786 0.0
C1718 C 0.88464 0.84943 0.5518 0.0
C1719 C 0.90415 0.85677 0.5522 0.0
C1720 C 0.86841 0.86216 0.55016 0.0
C1721 C 0.87102 0.88272 0.54876 0.0
H1722 H 0.88182 0.83386 0.5544 0.0
H1723 H 0.85368 0.85595 0.55119 0.0
S1724 S 0.91908 0.90913 0.54588 0.0
N1725 N 0.92522 0.88564 0.54854 0.0
N1726 N 0.89466 0.90964 0.54523 0.0
C1727 C 0.89045 0.89007 0.54697 0.0
C1728 C 0.90705 0.87705 0.5487 0.0
C1729 C 0.87836 0.65603 0.79992 0.0
C1730 C 0.899 0.65342 0.7996 0.0
C1731 C 0.86553 0.63974 0.79841 0.0
C1732 C 0.87299 0.62039 0.79656 0.0
H1733 H 0.87211 0.67039 0.80334 0.0
H1734 H 0.84981 0.64216 0.80044 0.0
S1735 S 0.92552 0.60654 0.7894 0.0
N1736 N 0.92607 0.63064 0.79337 0.0
N1737 N 0.90197 0.6001 0.7904 0.0
C1738 C 0.89343 0.61795 0.79389 0.0
C1739 C 0.90645 0.63447 0.79539 0.0
C1740 C 0.11286 0.39004 0.95856 0.0
C1741 C 0.13218 0.3823 0.95963 0.0
C1742 C 0.09638 0.37743 0.95681 0.0
C1743 C 0.09879 0.35677 0.95627 0.0
H1744 H 0.11059 0.40584 0.95721 0.0
H1745 H 0.08203 0.38393 0.95384 0.0
S1746 S 0.14562 0.32937 0.96397 0.0
N1747 N 0.1523 0.35286 0.96367 0.0
N1748 N 0.12138 0.32927 0.96094 0.0
C1749 C 0.11772 0.349 0.95988 0.0
C1750 C 0.13444 0.36175 0.96135 0.0
C1751 C 0.3781 0.84781 0.20729 0.0
C1752 C 0.39877 0.85021 0.20679 0.0
C1753 C 0.36551 0.86426 0.20912 0.0
C1754 C 0.37324 0.88356 0.2104 0.0
H1755 H 0.37159 0.83348 0.20424 0.0
H1756 H 0.3497 0.862 0.2077 0.0
S1757 S 0.42615 0.89693 0.21532 0.0
N1758 N 0.42629 0.87277 0.21174 0.0
N1759 N 0.40265 0.90361 0.21511 0.0
C1760 C 0.39379 0.88581 0.21229 0.0
C1761 C 0.40656 0.86912 0.21055 0.0
C1762 C 0.88431 0.15526 0.45302 0.0
C1763 C 0.9038 0.14789 0.45313 0.0
C1764 C 0.86803 0.1426 0.45484 0.0
C1765 C 0.87058 0.12209 0.45695 0.0
H1766 H 0.88154 0.17073 0.44991 0.0
H1767 H 0.85334 0.14881 0.45335 0.0
S1768 S 0.91855 0.09577 0.46153 0.0
N1769 N 0.92477 0.11915 0.45814 0.0
N1770 N 0.89413 0.09529 0.46178 0.0
C1771 C 0.88997 0.11479 0.45929 0.0
C1772 C 0.90662 0.12774 0.45736 0.0
C1773 C 0.63996 0.64088 0.70741 0.0
C1774 C 0.6323 0.62155 0.70878 0.0
C1775 C 0.6273 0.65726 0.70538 0.0
C1776 C 0.60665 0.65475 0.70476 0.0
H1777 H 0.65576 0.6432 0.70614 0.0
H1778 H 0.63375 0.6716 0.70233 0.0
S1779 S 0.57941 0.60796 0.71325 0.0
N1780 N 0.60294 0.60139 0.71327 0.0
N1781 N 0.5792 0.6321 0.70958 0.0
C1782 C 0.59892 0.63583 0.70851 0.0
C1783 C 0.61174 0.61922 0.71044 0.0
C1784 C 0.54866 0.59724 0.62616 0.0
C1785 C 0.54912 0.59931 0.64687 0.0
C1786 C 0.54668 0.6139 0.61386 0.0
C1787 C 0.54529 0.63306 0.62194 0.0
H1788 H 0.55187 0.58306 0.61942 0.0
H1789 H 0.54811 0.61192 0.59802 0.0
S1790 S 0.54056 0.64548 0.67513 0.0
N1791 N 0.54401 0.62131 0.67479 0.0
N1792 N 0.54083 0.65258 0.65176 0.0
C1793 C 0.54348 0.63493 0.64254 0.0
C1794 C 0.5452 0.61803 0.65498 0.0
C1795 C 0.0482 0.36829 0.86264 0.0
C1796 C 0.04659 0.3708 0.88322 0.0
C1797 C 0.05009 0.38458 0.85003 0.0
C1798 C 0.05062 0.40403 0.85749 0.0
H1799 H 0.04934 0.3536 0.85635 0.0
H1800 H 0.05286 0.38182 0.83447 0.0
S1801 S 0.04376 0.41871 0.90989 0.0
N1802 N 0.04292 0.3943 0.91025 0.0
N1803 N 0.04675 0.42496 0.88646 0.0
C1804 C 0.04687 0.40684 0.87775 0.0
C1805 C 0.04484 0.39019 0.89066 0.0
C1806 C 0.34779 0.80013 0.12933 0.0
C1807 C 0.35005 0.80006 0.10865 0.0
C1808 C 0.36433 0.79864 0.14185 0.0
C1809 C 0.38358 0.79714 0.13401 0.0
H1810 H 0.33351 0.80335 0.13585 0.0
H1811 H 0.36219 0.80044 0.15763 0.0
S1812 S 0.39658 0.79076 0.08118 0.0
N1813 N 0.37241 0.79436 0.08111 0.0
N1814 N 0.40345 0.79163 0.10461 0.0
C1815 C 0.3857 0.79473 0.11351 0.0
C1816 C 0.36891 0.79612 0.10082 0.0
C1817 C 0.9553 0.09727 0.37856 0.0
C1818 C 0.95498 0.09941 0.35787 0.0
C1819 C 0.95718 0.11388 0.39096 0.0
C1820 C 0.9587 0.13307 0.38299 0.0
H1821 H 0.95211 0.08305 0.38522 0.0
H1822 H 0.95567 0.11183 0.40678 0.0
S1823 S 0.96388 0.14571 0.32992 0.0
N1824 N 0.9602 0.12156 0.33009 0.0
N1825 N 0.96363 0.15269 0.35333 0.0
C1826 C 0.96067 0.13502 0.36242 0.0
C1827 C 0.95888 0.11818 0.34986 0.0
C1828 C 0.13993 0.20827 0.63848 0.0
C1829 C 0.12056 0.20928 0.63085 0.0
C1830 C 0.15637 0.2067 0.62581 0.0
C1831 C 0.1539 0.20625 0.60514 0.0
H1832 H 0.14229 0.2069 0.65428 0.0
H1833 H 0.17076 0.20388 0.63226 0.0
S1834 S 0.10691 0.2139 0.57795 0.0
N1835 N 0.10033 0.21343 0.60147 0.0
N1836 N 0.13115 0.21091 0.57774 0.0
C1837 C 0.13489 0.2097 0.59745 0.0
C1838 C 0.11822 0.21105 0.61029 0.0
C1839 C 0.45458 0.40686 0.6257 0.0
C1840 C 0.45481 0.40466 0.64639 0.0
C1841 C 0.45621 0.3903 0.61322 0.0
C1842 C 0.45803 0.37111 0.62111 0.0
H1843 H 0.45109 0.42106 0.61917 0.0
H1844 H 0.45421 0.39236 0.59745 0.0
S1845 S 0.46488 0.35839 0.67396 0.0
N1846 N 0.46097 0.3825 0.67397 0.0
N1847 N 0.46402 0.35144 0.65054 0.0
C1848 C 0.46065 0.36911 0.6416 0.0
C1849 C 0.45909 0.38591 0.65425 0.0
C1850 C 0.34854 0.70659 0.37718 0.0
C1851 C 0.35072 0.7061 0.39787 0.0
C1852 C 0.36511 0.7086 0.36476 0.0
C1853 C 0.38432 0.71011 0.37271 0.0
H1854 H 0.33431 0.7034 0.37051 0.0
H1855 H 0.36304 0.7071 0.34894 0.0
S1856 S 0.39706 0.71506 0.4258 0.0
N1857 N 0.37292 0.71124 0.42565 0.0
N1858 N 0.40399 0.71501 0.40236 0.0
C1859 C 0.38631 0.71203 0.39329 0.0
C1860 C 0.3695 0.71006 0.40587 0.0
C1861 C 0.65745 0.79844 0.87712 0.0
C1862 C 0.65523 0.79902 0.89781 0.0
C1863 C 0.64087 0.79652 0.86468 0.0
C1864 C 0.62165 0.7952 0.87259 0.0
H1865 H 0.6717 0.80151 0.87047 0.0
H1866 H 0.64298 0.79791 0.84885 0.0
S1867 S 0.60877 0.79053 0.92566 0.0
N1868 N 0.63293 0.79416 0.92555 0.0
N1869 N 0.60188 0.79058 0.90221 0.0
C1870 C 0.6196 0.79339 0.89317 0.0
C1871 C 0.63641 0.79524 0.90578 0.0
C1872 C 0.62689 0.54794 0.59701 0.0
C1873 C 0.64755 0.54856 0.59943 0.0
C1874 C 0.61428 0.54636 0.61351 0.0
C1875 C 0.62201 0.54556 0.63285 0.0
H1876 H 0.62038 0.55068 0.58262 0.0
H1877 H 0.59847 0.54762 0.61121 0.0
S1878 S 0.67496 0.54149 0.64638 0.0
N1879 N 0.67507 0.54421 0.6221 0.0
N1880 N 0.65146 0.54185 0.65304 0.0
C1881 C 0.64257 0.54394 0.63514 0.0
C1882 C 0.65533 0.54522 0.61842 0.0
C1883 C 0.2039 0.37611 0.84758 0.0
C1884 C 0.20359 0.39678 0.84991 0.0
C1885 C 0.20572 0.36358 0.86408 0.0
C1886 C 0.20718 0.37139 0.88335 0.0
H1887 H 0.20076 0.36957 0.83328 0.0
H1888 H 0.20423 0.34778 0.86189 0.0
S1889 S 0.21252 0.4243 0.89649 0.0
N1890 N 0.20886 0.42435 0.87233 0.0
N1891 N 0.21213 0.40084 0.90328 0.0
C1892 C 0.20916 0.39193 0.88551 0.0
C1893 C 0.20745 0.40462 0.86877 0.0
C1894 C 0.37859 0.95542 0.0986 0.0
C1895 C 0.35789 0.95492 0.10066 0.0
C1896 C 0.39089 0.95718 0.11528 0.0
C1897 C 0.38282 0.95831 0.13448 0.0
H1898 H 0.38533 0.95244 0.08437 0.0
H1899 H 0.40673 0.95586 0.11327 0.0
S1900 S 0.32967 0.96296 0.14697 0.0
N1901 N 0.32999 0.95978 0.12274 0.0
N1902 N 0.35304 0.96254 0.15407 0.0
C1903 C 0.36224 0.96005 0.13639 0.0
C1904 C 0.34978 0.95856 0.11945 0.0
C1905 C 0.79804 0.14113 0.36422 0.0
C1906 C 0.79639 0.13342 0.3835 0.0
C1907 C 0.79968 0.1285 0.34778 0.0
C1908 C 0.79965 0.10784 0.35019 0.0
H1909 H 0.79988 0.15689 0.36199 0.0
H1910 H 0.80305 0.13491 0.33348 0.0
S1911 S 0.78997 0.08069 0.39681 0.0
N1912 N 0.79072 0.10418 0.40352 0.0
N1913 N 0.79379 0.08046 0.37267 0.0
C1914 C 0.79552 0.10015 0.36905 0.0
C1915 C 0.79395 0.11295 0.38573 0.0
C1916 C 0.65519 0.45374 0.38342 0.0
C1917 C 0.64751 0.45292 0.40277 0.0
C1918 C 0.64274 0.45569 0.367 0.0
C1919 C 0.62211 0.45698 0.36928 0.0
H1920 H 0.67082 0.45125 0.38083 0.0
H1921 H 0.64922 0.45493 0.35237 0.0
S1922 S 0.59481 0.45858 0.41689 0.0
N1923 N 0.61821 0.45596 0.42339 0.0
N1924 N 0.59474 0.45977 0.39249 0.0
C1925 C 0.6144 0.45829 0.3886 0.0
C1926 C 0.62715 0.45626 0.40538 0.0
C1927 C 0.29873 0.36418 0.64079 0.0
C1928 C 0.29718 0.37228 0.62165 0.0
C1929 C 0.30033 0.37646 0.65751 0.0
C1930 C 0.30027 0.39716 0.65554 0.0
H1931 H 0.30047 0.34837 0.64271 0.0
H1932 H 0.30361 0.36974 0.67168 0.0
S1933 S 0.29094 0.42531 0.60947 0.0
N1934 N 0.29188 0.40199 0.60225 0.0
N1935 N 0.29449 0.425 0.63364 0.0
C1936 C 0.29627 0.40525 0.63682 0.0
C1937 C 0.29489 0.39282 0.61985 0.0
C1938 C 0.39 0.04698 0.89037 0.0
C1939 C 0.38241 0.04574 0.871 0.0
C1940 C 0.37727 0.04833 0.90676 0.0
C1941 C 0.35661 0.04832 0.90423 0.0
H1942 H 0.40576 0.04869 0.89274 0.0
H1943 H 0.38361 0.05141 0.92116 0.0
S1944 S 0.32972 0.03971 0.85723 0.0
N1945 N 0.35324 0.04075 0.85069 0.0
N1946 N 0.32937 0.04285 0.88146 0.0
C1947 C 0.34904 0.04457 0.88523 0.0
C1948 C 0.36193 0.04346 0.86859 0.0
C1949 C 0.70833 0.13981 0.14095 0.0
C1950 C 0.70966 0.13213 0.12162 0.0
C1951 C 0.70624 0.12718 0.15734 0.0
C1952 C 0.70551 0.10654 0.15484 0.0
H1953 H 0.7071 0.15562 0.14326 0.0
H1954 H 0.70319 0.13366 0.17169 0.0
S1955 S 0.71385 0.07923 0.10803 0.0
N1956 N 0.714 0.10275 0.10145 0.0
N1957 N 0.71022 0.07906 0.13219 0.0
C1958 C 0.70927 0.09878 0.13592 0.0
C1959 C 0.71126 0.11158 0.1193 0.0
C1960 C 0.59774 0.12786 0.04744 0.0
C1961 C 0.60023 0.1485 0.04817 0.0
C1962 C 0.61418 0.1152 0.0459 0.0
C1963 C 0.63356 0.12284 0.04525 0.0
H1964 H 0.5833 0.1214 0.05007 0.0
H1965 H 0.6118 0.09939 0.04703 0.0
S1966 S 0.64734 0.17573 0.04146 0.0
N1967 N 0.62306 0.17592 0.04407 0.0
N1968 N 0.6539 0.15221 0.04177 0.0
C1969 C 0.63596 0.14339 0.04375 0.0
C1970 C 0.61928 0.15621 0.04499 0.0
C1971 C 0.64053 0.36432 0.29769 0.0
C1972 C 0.63274 0.38357 0.29604 0.0
C1973 C 0.62798 0.34782 0.29924 0.0
C1974 C 0.6073 0.35011 0.29906 0.0
H1975 H 0.6563 0.36215 0.29956 0.0
H1976 H 0.63446 0.33355 0.30258 0.0
S1977 S 0.57992 0.39656 0.28935 0.0
N1978 N 0.60336 0.4034 0.2904 0.0
N1979 N 0.57982 0.37242 0.29305 0.0
C1980 C 0.59953 0.36893 0.29496 0.0
C1981 C 0.61224 0.38568 0.29358 0.0
C1982 C 0.36661 0.3623 0.549 0.0
C1983 C 0.36945 0.38281 0.54727 0.0
C1984 C 0.3827 0.34941 0.5508 0.0
C1985 C 0.40228 0.35652 0.551 0.0
H1986 H 0.35182 0.35627 0.55018 0.0
H1987 H 0.3797 0.33392 0.55363 0.0
S1988 S 0.41778 0.40861 0.54372 0.0
N1989 N 0.39337 0.40939 0.54321 0.0
N1990 N 0.42366 0.3851 0.54673 0.0
C1991 C 0.4054 0.37672 0.54715 0.0
C1992 C 0.38895 0.3899 0.54528 0.0
C1993 C 0.40561 0.13373 0.80243 0.0
C1994 C 0.39825 0.15322 0.8024 0.0
C1995 C 0.39298 0.11747 0.80031 0.0
C1996 C 0.37248 0.12003 0.79801 0.0
H1997 H 0.42107 0.13094 0.80564 0.0
H1998 H 0.39918 0.10277 0.80168 0.0
S1999 S 0.34616 0.16803 0.79388 0.0
N2000 N 0.36952 0.17421 0.79748 0.0
N2001 N 0.34569 0.14362 0.79332 0.0
C2002 C 0.36519 0.13944 0.79588 0.0
C2003 C 0.37812 0.15606 0.79809 0.0
C2004 C 0.63809 0.86275 0.95435 0.0
C2005 C 0.63572 0.88336 0.95559 0.0
C2006 C 0.6217 0.8502 0.95282 0.0
C2007 C 0.60229 0.85777 0.95234 0.0
H2008 H 0.65274 0.85635 0.95333 0.0
H2009 H 0.62433 0.83458 0.95038 0.0
S2010 S 0.58798 0.91038 0.95797 0.0
N2011 N 0.61239 0.91061 0.9587 0.0
N2012 N 0.58156 0.88693 0.95559 0.0
C2013 C 0.59963 0.87812 0.95559 0.0
C2014 C 0.61638 0.89096 0.95723 0.0
C2015 C 0.90674 0.37112 0.20487 0.0
C2016 C 0.89957 0.35157 0.20407 0.0
C2017 C 0.89385 0.38722 0.20659 0.0
C2018 C 0.87327 0.38444 0.20771 0.0
H2019 H 0.92232 0.37409 0.20255 0.0
H2020 H 0.89997 0.40201 0.20579 0.0
S2021 S 0.84715 0.33616 0.20884 0.0
N2022 N 0.87075 0.33025 0.2066 0.0
N2023 N 0.84646 0.36055 0.21008 0.0
C2024 C 0.86604 0.36493 0.20892 0.0
C2025 C 0.87923 0.34847 0.20708 0.0
C2026 C 0.38513 0.65581 0.45326 0.0
C2027 C 0.40451 0.64819 0.4525 0.0
C2028 C 0.36873 0.64333 0.45514 0.0
C2029 C 0.37105 0.62272 0.45646 0.0
H2030 H 0.38251 0.67143 0.45076 0.0
H2031 H 0.35409 0.64977 0.45427 0.0
S2032 S 0.41874 0.59556 0.45818 0.0
N2033 N 0.42519 0.61897 0.45556 0.0
N2034 N 0.39434 0.59542 0.45934 0.0
C2035 C 0.3904 0.61507 0.45783 0.0
C2036 C 0.40716 0.62785 0.45583 0.0
C2037 C 0.11286 0.11801 0.704 0.0
C2038 C 0.13348 0.1204 0.70497 0.0
C2039 C 0.10028 0.13436 0.70229 0.0
C2040 C 0.10783 0.15376 0.7014 0.0
H2041 H 0.10645 0.10335 0.70338 0.0
H2042 H 0.08462 0.13169 0.70007 0.0
S2043 S 0.16052 0.16817 0.70614 0.0
N2044 N 0.16076 0.14378 0.70732 0.0
N2045 N 0.13704 0.17454 0.70393 0.0
C2046 C 0.12823 0.15648 0.70437 0.0
C2047 C 0.1411 0.13977 0.70616 0.0
C2048 C 0.04593 0.11497 0.61613 0.0
C2049 C 0.04461 0.13429 0.62383 0.0
C2050 C 0.04777 0.09855 0.62875 0.0
C2051 C 0.04827 0.101 0.64942 0.0
H2052 H 0.04735 0.11267 0.60033 0.0
H2053 H 0.05082 0.08422 0.62226 0.0
S2054 S 0.03982 0.14779 0.67674 0.0
N2055 N 0.03995 0.1544 0.65323 0.0
N2056 N 0.04337 0.12362 0.67691 0.0
C2057 C 0.04452 0.11992 0.65718 0.0
C2058 C 0.04275 0.13658 0.64439 0.0
C2059 C 0.54924 0.90671 0.87708 0.0
C2060 C 0.54944 0.90423 0.85642 0.0
C2061 C 0.54769 0.89029 0.88975 0.0
C2062 C 0.54647 0.87094 0.88209 0.0
H2063 H 0.55229 0.92108 0.88349 0.0
H2064 H 0.54926 0.89263 0.90553 0.0
S2065 S 0.54113 0.85736 0.82924 0.0
N2066 N 0.54425 0.88157 0.82903 0.0
N2067 N 0.54186 0.85075 0.85275 0.0
C2068 C 0.54443 0.86861 0.86156 0.0
C2069 C 0.54572 0.88528 0.84874 0.0
C2070 C 0.88904 0.29813 0.11294 0.0
C2071 C 0.88639 0.29759 0.13356 0.0
C2072 C 0.87285 0.29972 0.10012 0.0
C2073 C 0.85337 0.30086 0.10741 0.0
H2074 H 0.90379 0.29856 0.10671 0.0
H2075 H 0.87573 0.30164 0.08446 0.0
S2076 S 0.83831 0.29755 0.16006 0.0
N2077 N 0.86269 0.29613 0.16061 0.0
N2078 N 0.83224 0.29922 0.13645 0.0
C2079 C 0.85039 0.29838 0.12785 0.0
C2080 C 0.86693 0.29674 0.14096 0.0
C2081 C 0.45908 0.61523 0.38913 0.0
C2082 C 0.46016 0.6346 0.38153 0.0
C2083 C 0.45738 0.59884 0.37642 0.0
C2084 C 0.45684 0.60135 0.35576 0.0
H2085 H 0.45773 0.61286 0.40492 0.0
H2086 H 0.45447 0.58445 0.38284 0.0
S2087 S 0.4646 0.64833 0.32863 0.0
N2088 N 0.46429 0.65486 0.35218 0.0
N2089 N 0.46149 0.62411 0.32838 0.0
C2090 C 0.46039 0.62034 0.3481 0.0
C2091 C 0.46189 0.63697 0.36097 0.0
C2092 C 0.65606 0.70586 0.6283 0.0
C2093 C 0.65368 0.70546 0.60762 0.0
C2094 C 0.6396 0.70771 0.64088 0.0
C2095 C 0.62031 0.70913 0.63312 0.0
H2096 H 0.67036 0.7027 0.6348 0.0
H2097 H 0.64182 0.70618 0.65668 0.0
S2098 S 0.60703 0.71434 0.58021 0.0
N2099 N 0.63119 0.71064 0.58009 0.0
N2100 N 0.60033 0.71408 0.6037 0.0
C2101 C 0.61811 0.71114 0.61258 0.0
C2102 C 0.6348 0.70936 0.59983 0.0
C2103 C 0.9558 0.90674 0.62666 0.0
C2104 C 0.95532 0.90465 0.64736 0.0
C2105 C 0.9578 0.89009 0.61433 0.0
C2106 C 0.9592 0.87092 0.62237 0.0
H2107 H 0.95261 0.92093 0.61995 0.0
H2108 H 0.9564 0.89209 0.59849 0.0
S2109 S 0.96389 0.85845 0.67553 0.0
N2110 N 0.96043 0.88262 0.67524 0.0
N2111 N 0.96364 0.85137 0.65215 0.0
C2112 C 0.96098 0.86903 0.64296 0.0
C2113 C 0.95923 0.88592 0.65544 0.0
C2114 C 0.86454 0.20837 0.36509 0.0
C2115 C 0.88384 0.20943 0.37288 0.0
C2116 C 0.84804 0.20656 0.37764 0.0
C2117 C 0.8504 0.2059 0.39831 0.0
H2118 H 0.86231 0.20707 0.34927 0.0
H2119 H 0.83371 0.20364 0.37108 0.0
S2120 S 0.89711 0.21386 0.42588 0.0
N2121 N 0.90386 0.21361 0.4024 0.0
N2122 N 0.8729 0.2106 0.42591 0.0
C2123 C 0.86931 0.20951 0.40616 0.0
C2124 C 0.88605 0.21112 0.39345 0.0
C2125 C 0.1401 0.29823 0.86382 0.0
C2126 C 0.12078 0.29678 0.87149 0.0
C2127 C 0.15653 0.29973 0.87648 0.0
C2128 C 0.15409 0.29974 0.89714 0.0
H2129 H 0.14239 0.29993 0.84805 0.0
H2130 H 0.17088 0.30287 0.87006 0.0
S2131 S 0.10732 0.29059 0.92423 0.0
N2132 N 0.10066 0.29139 0.90073 0.0
N2133 N 0.13149 0.29419 0.9245 0.0
C2134 C 0.13516 0.2959 0.90481 0.0
C2135 C 0.11848 0.29447 0.89198 0.0
C2136 C 0.62644 0.04936 0.09638 0.0
C2137 C 0.64715 0.04967 0.09842 0.0
C2138 C 0.61414 0.04753 0.11306 0.0
C2139 C 0.62221 0.04615 0.13223 0.0
H2140 H 0.61972 0.05255 0.08218 0.0
H2141 H 0.5983 0.04903 0.11108 0.0
S2142 S 0.67534 0.04102 0.14463 0.0
N2143 N 0.67503 0.0444 0.12044 0.0
N2144 N 0.65198 0.04152 0.15175 0.0
C2145 C 0.64279 0.04422 0.1341 0.0
C2146 C 0.65524 0.04578 0.11717 0.0
C2147 C 0.20405 0.90666 0.37252 0.0
C2148 C 0.20363 0.89977 0.35285 0.0
C2149 C 0.20552 0.89355 0.38847 0.0
C2150 C 0.20667 0.87302 0.38542 0.0
H2151 H 0.2017 0.9222 0.37568 0.0
H2152 H 0.20461 0.89945 0.40333 0.0
S2153 S 0.20911 0.84759 0.33681 0.0
N2154 N 0.20686 0.87124 0.33118 0.0
N2155 N 0.20974 0.84656 0.36122 0.0
C2156 C 0.20832 0.86607 0.36585 0.0
C2157 C 0.2068 0.87947 0.34953 0.0
C2158 C 0.37744 0.45605 0.59688 0.0
C2159 C 0.35677 0.45572 0.59937 0.0
C2160 C 0.39013 0.45756 0.61332 0.0
C2161 C 0.38249 0.45859 0.63269 0.0
H2162 H 0.38384 0.45316 0.58248 0.0
H2163 H 0.40591 0.4561 0.61097 0.0
S2164 S 0.32964 0.46339 0.64639 0.0
N2165 N 0.32941 0.46052 0.62213 0.0
N2166 N 0.35316 0.46277 0.65297 0.0
C2167 C 0.36195 0.46045 0.63505 0.0
C2168 C 0.34911 0.45923 0.61838 0.0
C2169 C 0.79979 0.61267 0.88776 0.0
C2170 C 0.79909 0.63329 0.88528 0.0
C2171 C 0.80141 0.59999 0.87147 0.0
C2172 C 0.80243 0.60741 0.85203 0.0
H2173 H 0.80028 0.60634 0.90246 0.0
H2174 H 0.80344 0.58433 0.87422 0.0
S2175 S 0.79837 0.6601 0.83739 0.0
N2176 N 0.79715 0.66047 0.86179 0.0
N2177 N 0.8003 0.63657 0.83113 0.0
C2178 C 0.79971 0.62784 0.84922 0.0
C2179 C 0.79805 0.64082 0.86588 0.0
C2180 C 0.64305 0.95542 0.86626 0.0
C2181 C 0.62252 0.9567 0.86922 0.0
C2182 C 0.65609 0.95405 0.88227 0.0
C2183 C 0.6491 0.95373 0.90191 0.0
H2184 H 0.64902 0.95425 0.85143 0.0
H2185 H 0.67163 0.95157 0.8792 0.0
S2186 S 0.5969 0.95956 0.91771 0.0
N2187 N 0.59596 0.96007 0.89329 0.0
N2188 N 0.62053 0.9572 0.92345 0.0
C2189 C 0.62882 0.95704 0.90514 0.0
C2190 C 0.61549 0.95854 0.88876 0.0
C2191 C 0.30069 0.8764 0.15891 0.0
C2192 C 0.30097 0.89708 0.15669 0.0
C2193 C 0.29873 0.86393 0.14235 0.0
C2194 C 0.29711 0.87182 0.12313 0.0
H2195 H 0.30396 0.8698 0.17314 0.0
H2196 H 0.30026 0.84812 0.14445 0.0
S2197 S 0.29176 0.92479 0.1103 0.0
N2198 N 0.29557 0.92473 0.13444 0.0
N2199 N 0.29205 0.90135 0.10339 0.0
C2200 C 0.29512 0.89236 0.1211 0.0
C2201 C 0.29697 0.90499 0.13789 0.0
C2202 C 0.35046 0.55119 0.38366 0.0
C2203 C 0.35756 0.55206 0.40323 0.0
C2204 C 0.36342 0.54962 0.3676 0.0
C2205 C 0.38399 0.54875 0.37046 0.0
H2206 H 0.33486 0.55338 0.38064 0.0
H2207 H 0.35736 0.55035 0.35279 0.0
S2208 S 0.40994 0.5475 0.41882 0.0
N2209 N 0.38631 0.54958 0.42466 0.0
N2210 N 0.41075 0.54641 0.39442 0.0
C2211 C 0.39117 0.54749 0.38998 0.0
C2212 C 0.37791 0.54916 0.40641 0.0
C2213 C 0.70483 0.62847 0.65848 0.0
C2214 C 0.70475 0.60778 0.65624 0.0
C2215 C 0.70624 0.64095 0.64189 0.0
C2216 C 0.70744 0.63308 0.62263 0.0
H2217 H 0.70178 0.63502 0.67279 0.0
H2218 H 0.70458 0.65674 0.64404 0.0
S2219 S 0.71315 0.58017 0.60963 0.0
N2220 N 0.71006 0.58019 0.63386 0.0
N2221 N 0.71225 0.60359 0.60274 0.0
C2222 C 0.70962 0.61256 0.62053 0.0
C2223 C 0.70846 0.59992 0.63735 0.0
C2224 C 0.63626 0.64217 0.54979 0.0
C2225 C 0.6336 0.62164 0.54797 0.0
C2226 C 0.62006 0.65491 0.5516 0.0
C2227 C 0.60053 0.64762 0.55178 0.0
H2228 H 0.651 0.64833 0.55105 0.0
H2229 H 0.62291 0.67042 0.5545 0.0
S2230 S 0.58549 0.59542 0.54441 0.0
N2231 N 0.6099 0.59485 0.54385 0.0
N2232 N 0.5794 0.61887 0.54749 0.0
C2233 C 0.59759 0.62741 0.5479 0.0
C2234 C 0.61416 0.61438 0.54597 0.0
C2235 C 0.62832 0.84677 0.80109 0.0
C2236 C 0.60766 0.84912 0.80094 0.0
C2237 C 0.64092 0.86319 0.79911 0.0
C2238 C 0.63318 0.88241 0.79702 0.0
H2239 H 0.63477 0.83255 0.80469 0.0
H2240 H 0.65669 0.86102 0.80096 0.0
S2241 S 0.58043 0.89543 0.79015 0.0
N2242 N 0.58023 0.8714 0.79457 0.0
N2243 N 0.60389 0.90222 0.79085 0.0
C2244 C 0.61269 0.88455 0.79457 0.0
C2245 C 0.59992 0.86788 0.79649 0.0
C2246 C 0.40805 0.8776 0.04917 0.0
C2247 C 0.40574 0.85693 0.0496 0.0
C2248 C 0.3915 0.89012 0.04775 0.0
C2249 C 0.37219 0.88231 0.04693 0.0
H2250 H 0.42242 0.88415 0.05193 0.0
H2251 H 0.39373 0.90593 0.04911 0.0
S2252 S 0.35892 0.82935 0.04232 0.0
N2253 N 0.38319 0.82934 0.04502 0.0
N2254 N 0.35214 0.85281 0.04295 0.0
C2255 C 0.36998 0.86176 0.04513 0.0
C2256 C 0.38678 0.84908 0.04625 0.0
C2257 C 0.39159 0.61803 0.30143 0.0
C2258 C 0.37104 0.62077 0.29985 0.0
C2259 C 0.40444 0.63416 0.30329 0.0
C2260 C 0.39725 0.6537 0.30366 0.0
H2261 H 0.39769 0.60326 0.3024 0.0
H2262 H 0.41997 0.63122 0.30596 0.0
S2263 S 0.345 0.66901 0.29718 0.0
N2264 N 0.34431 0.6446 0.29638 0.0
N2265 N 0.36853 0.67497 0.29998 0.0
C2266 C 0.37699 0.65675 0.30009 0.0
C2267 C 0.36385 0.64025 0.29818 0.0
C2268 C 0.59668 0.37767 0.45492 0.0
C2269 C 0.59887 0.35699 0.45508 0.0
C2270 C 0.61326 0.39014 0.45641 0.0
C2271 C 0.63249 0.38224 0.45792 0.0
H2272 H 0.58243 0.38423 0.45162 0.0
H2273 H 0.61116 0.40591 0.45457 0.0
S2274 S 0.64527 0.32936 0.46431 0.0
N2275 N 0.62109 0.3294 0.4609 0.0
N2276 N 0.65223 0.35275 0.46326 0.0
C2277 C 0.63452 0.36173 0.46032 0.0
C2278 C 0.61768 0.34912 0.45908 0.0
C2279 C 0.87701 0.84641 0.7042 0.0
C2280 C 0.89771 0.84854 0.70401 0.0
C2281 C 0.86462 0.86299 0.7062 0.0
C2282 C 0.8726 0.88216 0.70798 0.0
H2283 H 0.87036 0.83222 0.70083 0.0
H2284 H 0.8488 0.86097 0.70458 0.0
S2285 S 0.92563 0.89473 0.71362 0.0
N2286 N 0.92547 0.87062 0.70965 0.0
N2287 N 0.90223 0.90173 0.7133 0.0
C2288 C 0.89316 0.88409 0.71008 0.0
C2289 C 0.90571 0.86727 0.70816 0.0
C2290 C 0.36693 0.14193 0.9538 0.0
C2291 C 0.36964 0.12143 0.95583 0.0
C2292 C 0.3831 0.15472 0.952 0.0
C2293 C 0.40265 0.14751 0.95204 0.0
H2294 H 0.35218 0.14802 0.95236 0.0
H2295 H 0.38021 0.17019 0.94895 0.0
S2296 S 0.41783 0.09546 0.96013 0.0
N2297 N 0.39341 0.0948 0.96046 0.0
N2298 N 0.42385 0.1189 0.95684 0.0
C2299 C 0.40563 0.12736 0.95617 0.0
C2300 C 0.38909 0.11428 0.95808 0.0
C2301 C 0.14056 0.64137 0.20742 0.0
C2302 C 0.13275 0.62213 0.20914 0.0
C2303 C 0.12801 0.65789 0.20593 0.0
C2304 C 0.10732 0.65561 0.20622 0.0
H2305 H 0.15631 0.64351 0.20539 0.0
H2306 H 0.13448 0.67214 0.2025 0.0
S2307 S 0.07997 0.6091 0.21592 0.0
N2308 N 0.10341 0.60228 0.21499 0.0
N2309 N 0.07986 0.63325 0.21225 0.0
C2310 C 0.09956 0.63678 0.21039 0.0
C2311 C 0.11228 0.62003 0.21178 0.0
C2312 C 0.05 0.59828 0.12735 0.0
C2313 C 0.04976 0.60084 0.14801 0.0
C2314 C 0.0485 0.61462 0.1146 0.0
C2315 C 0.04681 0.63396 0.12216 0.0
H2316 H 0.05334 0.58393 0.12105 0.0
H2317 H 0.05046 0.61226 0.09886 0.0
S2318 S 0.04008 0.64769 0.17479 0.0
N2319 N 0.04381 0.62355 0.17521 0.0
N2320 N 0.04101 0.6542 0.15125 0.0
C2321 C 0.04425 0.63635 0.14262 0.0
C2322 C 0.04568 0.61977 0.15555 0.0
C2323 C 0.5503 0.38421 0.34858 0.0
C2324 C 0.5512 0.40377 0.35571 0.0
C2325 C 0.54829 0.36816 0.36148 0.0
C2326 C 0.54699 0.371 0.38205 0.0
H2327 H 0.55278 0.38118 0.33303 0.0
H2328 H 0.54907 0.35336 0.3554 0.0
S2329 S 0.5458 0.41935 0.40802 0.0
N2330 N 0.54841 0.42519 0.38444 0.0
N2331 N 0.5444 0.39497 0.40877 0.0
C2332 C 0.5458 0.39053 0.38922 0.0
C2333 C 0.54794 0.40695 0.37601 0.0
C2334 C 0.86508 0.79583 0.63891 0.0
C2335 C 0.8845 0.79457 0.63149 0.0
C2336 C 0.84881 0.79743 0.62604 0.0
C2337 C 0.85151 0.79773 0.6054 0.0
H2338 H 0.86256 0.79736 0.65467 0.0
H2339 H 0.83436 0.80042 0.63232 0.0
S2340 S 0.89873 0.78928 0.57882 0.0
N2341 N 0.90503 0.78974 0.60243 0.0
N2342 N 0.87454 0.79269 0.57828 0.0
C2343 C 0.87057 0.79405 0.59795 0.0
C2344 C 0.88707 0.79254 0.61099 0.0
C2345 C 0.4572 0.11419 0.89016 0.0
C2346 C 0.45862 0.13337 0.88216 0.0
C2347 C 0.45542 0.09755 0.87779 0.0
C2348 C 0.45516 0.09963 0.85709 0.0
H2349 H 0.45562 0.11217 0.90598 0.0
H2350 H 0.45225 0.08334 0.88447 0.0
S2351 S 0.464 0.14589 0.82906 0.0
N2352 N 0.46347 0.15294 0.85245 0.0
N2353 N 0.4605 0.12172 0.82928 0.0
C2354 C 0.45907 0.11839 0.84906 0.0
C2355 C 0.46066 0.13528 0.86158 0.0
C2356 C 0.65886 0.20459 0.12856 0.0
C2357 C 0.65669 0.20458 0.10787 0.0
C2358 C 0.64226 0.20619 0.14101 0.0
C2359 C 0.62305 0.20766 0.13308 0.0
H2360 H 0.67311 0.20133 0.13515 0.0
H2361 H 0.64434 0.20445 0.15681 0.0
S2362 S 0.6103 0.21371 0.08014 0.0
N2363 N 0.63449 0.21026 0.08022 0.0
N2364 N 0.60332 0.21282 0.10354 0.0
C2365 C 0.62104 0.20992 0.11256 0.0
C2366 C 0.63788 0.20856 0.09996 0.0
C2367 C 0.95487 0.40759 0.12682 0.0
C2368 C 0.9551 0.40551 0.14753 0.0
C2369 C 0.95675 0.39099 0.11442 0.0
C2370 C 0.95881 0.37186 0.1224 0.0
H2371 H 0.95123 0.42172 0.12021 0.0
H2372 H 0.95476 0.39295 0.09863 0.0
S2373 S 0.96575 0.35954 0.17534 0.0
N2374 N 0.96158 0.3836 0.17521 0.0
N2375 N 0.96486 0.35245 0.15197 0.0
C2376 C 0.96135 0.37002 0.14292 0.0
C2377 C 0.95961 0.38686 0.15548 0.0
C2378 C 0.87265 0.70399 0.90596 0.0
C2379 C 0.85299 0.70346 0.89905 0.0
C2380 C 0.88862 0.7052 0.89283 0.0
C2381 C 0.88559 0.70602 0.87228 0.0
H2382 H 0.87579 0.70188 0.92154 0.0
H2383 H 0.90347 0.70435 0.89876 0.0
S2384 S 0.83703 0.70804 0.84676 0.0
N2385 N 0.83136 0.70619 0.87045 0.0
N2386 N 0.86143 0.70865 0.84574 0.0
C2387 C 0.86603 0.70757 0.86529 0.0
C2388 C 0.8497 0.70629 0.8787 0.0
C2389 C 0.15687 0.80033 0.3777 0.0
C2390 C 0.15439 0.80007 0.39837 0.0
C2391 C 0.14047 0.79879 0.36498 0.0
C2392 C 0.12115 0.79707 0.37258 0.0
H2393 H 0.1712 0.80368 0.37135 0.0
H2394 H 0.14278 0.80073 0.34923 0.0
S2395 S 0.10765 0.79033 0.42528 0.0
N2396 N 0.1318 0.79401 0.42561 0.0
N2397 N 0.10104 0.7914 0.40178 0.0
C2398 C 0.11886 0.79457 0.39306 0.0
C2399 C 0.13549 0.79595 0.40595 0.0
C2400 C 0.13019 0.55696 0.22771 0.0
C2401 C 0.14666 0.54865 0.21816 0.0
C2402 C 0.1109 0.55155 0.22217 0.0
C2403 C 0.10747 0.53742 0.20722 0.0
H2404 H 0.13211 0.5692 0.23788 0.0
H2405 H 0.0986 0.55971 0.22843 0.0
S2406 S 0.14579 0.50898 0.18027 0.0
N2407 N 0.15842 0.52389 0.19494 0.0
N2408 N 0.12222 0.51338 0.18496 0.0
C2409 C 0.12383 0.52738 0.1993 0.0
C2410 C 0.14344 0.53313 0.20467 0.0
C2411 C 0.72565 0.37398 0.44803 0.0
C2412 C 0.71712 0.35753 0.45737 0.0
C2413 C 0.7199 0.39323 0.45321 0.0
C2414 C 0.70571 0.39667 0.46811 0.0
H2415 H 0.7351 0.372 0.43524 0.0
H2416 H 0.72527 0.4054 0.44428 0.0
S2417 S 0.68294 0.35859 0.50025 0.0
N2418 N 0.69654 0.34588 0.4844 0.0
N2419 N 0.68613 0.38213 0.49451 0.0
C2420 C 0.69912 0.38045 0.47926 0.0
C2421 C 0.7047 0.36082 0.47374 0.0
C2422 C 0.89381 0.95141 0.72131 0.0
C2423 C 0.89689 0.96669 0.70747 0.0
C2424 C 0.87468 0.94592 0.72725 0.0
C2425 C 0.85802 0.95536 0.71925 0.0
H2426 H 0.90617 0.9425 0.72627 0.0
H2427 H 0.87295 0.93283 0.73632 0.0
S2428 S 0.85819 0.99917 0.6863 0.0
N2429 N 0.88182 0.99352 0.68894 0.0
N2430 N 0.84583 0.98288 0.69968 0.0
C2431 C 0.86099 0.97213 0.70731 0.0
C2432 C 0.88048 0.97792 0.70152 0.0
C2433 C 0.27727 0.12944 0.94726 0.0
C2434 C 0.28693 0.14606 0.95513 0.0
C2435 C 0.28283 0.11025 0.95298 0.0
C2436 C 0.29791 0.10707 0.96703 0.0
H2437 H 0.26689 0.13113 0.93516 0.0
H2438 H 0.27642 0.09781 0.94517 0.0
S2439 S 0.32541 0.14589 0.99424 0.0
N2440 N 0.31057 0.15825 0.97928 0.0
N2441 N 0.32058 0.12226 0.9904 0.0
C2442 C 0.30606 0.12361 0.97656 0.0
C2443 C 0.30068 0.14311 0.97048 0.0
C2444 C 0.12965 0.44752 0.7778 0.0
C2445 C 0.1464 0.45642 0.78626 0.0
C2446 C 0.11056 0.4531 0.78376 0.0
C2447 C 0.10756 0.46792 0.79813 0.0
H2448 H 0.13127 0.43476 0.76824 0.0
H2449 H 0.09812 0.44454 0.77838 0.0
S2450 S 0.14657 0.49898 0.82087 0.0
N2451 N 0.15881 0.48301 0.80699 0.0
N2452 N 0.12288 0.49379 0.81782 0.0
C2453 C 0.1241 0.47865 0.80466 0.0
C2454 C 0.14356 0.47276 0.79884 0.0
C2455 C 0.80135 0.36137 0.03438 0.0
C2456 C 0.78764 0.35751 0.0496 0.0
C2457 C 0.80615 0.38081 0.02888 0.0
C2458 C 0.79771 0.39701 0.03876 0.0
H2459 H 0.80963 0.34932 0.02781 0.0
H2460 H 0.81804 0.38307 0.01836 0.0
S2461 S 0.75905 0.39492 0.07762 0.0
N2462 N 0.76386 0.37151 0.07261 0.0
N2463 N 0.7733 0.40802 0.06272 0.0
C2464 C 0.78265 0.39334 0.05265 0.0
C2465 C 0.77747 0.37356 0.05797 0.0
C2466 C 0.88033 0.02748 0.30814 0.0
C2467 C 0.89705 0.03571 0.29899 0.0
C2468 C 0.86123 0.03361 0.30275 0.0
C2469 C 0.85824 0.0479 0.28788 0.0
H2470 H 0.882 0.01797 0.32092 0.0
H2471 H 0.84882 0.02836 0.31142 0.0
S2472 S 0.8971 0.06999 0.2562 0.0
N2473 N 0.90938 0.05611 0.27213 0.0
N2474 N 0.87344 0.06723 0.26169 0.0
C2475 C 0.8747 0.05419 0.27692 0.0
C2476 C 0.89416 0.0482 0.28261 0.0
C2477 C 0.20382 0.14389 0.53296 0.0
C2478 C 0.21796 0.1475 0.54787 0.0
C2479 C 0.19835 0.12455 0.5277 0.0
C2480 C 0.20658 0.10819 0.53749 0.0
H2481 H 0.19574 0.15611 0.52648 0.0
H2482 H 0.18618 0.12253 0.51747 0.0
S2483 S 0.24613 0.10948 0.57548 0.0
N2484 N 0.24185 0.13299 0.57043 0.0
N2485 N 0.23119 0.09669 0.56098 0.0
C2486 C 0.22203 0.11156 0.55103 0.0
C2487 C 0.22786 0.13122 0.55611 0.0
C2488 C 0.19864 0.88099 0.47747 0.0
C2489 C 0.20708 0.89745 0.46804 0.0
C2490 C 0.20391 0.8617 0.47183 0.0
C2491 C 0.21806 0.85824 0.45691 0.0
H2492 H 0.18642 0.88294 0.48766 0.0
H2493 H 0.19566 0.84943 0.47803 0.0
S2494 S 0.24669 0.89649 0.4301 0.0
N2495 N 0.23188 0.90915 0.44484 0.0
N2496 N 0.24216 0.87294 0.43469 0.0
C2497 C 0.22818 0.87457 0.44904 0.0
C2498 C 0.22256 0.89419 0.4545 0.0
C2499 C 0.37481 0.44677 0.72729 0.0
C2500 C 0.35802 0.45597 0.71926 0.0
C2501 C 0.39385 0.45213 0.72098 0.0
C2502 C 0.39674 0.46704 0.7067 0.0
H2503 H 0.37321 0.43395 0.73677 0.0
H2504 H 0.4063 0.44342 0.72607 0.0
S2505 S 0.35772 0.49885 0.6851 0.0
N2506 N 0.34555 0.48291 0.69907 0.0
N2507 N 0.38139 0.4933 0.6876 0.0
C2508 C 0.38024 0.47805 0.70062 0.0
C2509 C 0.36082 0.47239 0.7068 0.0
C2510 C 0.78314 0.61191 0.95456 0.0
C2511 C 0.79813 0.60795 0.9685 0.0
C2512 C 0.77795 0.63138 0.94955 0.0
C2513 C 0.7879 0.64751 0.95805 0.0
H2514 H 0.77658 0.59989 0.94622 0.0
H2515 H 0.76769 0.63369 0.93745 0.0
S2516 S 0.82606 0.64521 0.99739 0.0
N2517 N 0.82087 0.62183 0.99261 0.0
N2518 N 0.81154 0.65839 0.98282 0.0
C2519 C 0.80147 0.64376 0.97339 0.0
C2520 C 0.80648 0.62396 0.97875 0.0
C2521 C 0.61116 0.05094 0.22047 0.0
C2522 C 0.60797 0.03626 0.206 0.0
C2523 C 0.63033 0.05628 0.22641 0.0
C2524 C 0.64695 0.04729 0.21781 0.0
H2525 H 0.59882 0.05957 0.22597 0.0
H2526 H 0.63212 0.06894 0.23608 0.0
S2527 S 0.64656 0.00494 0.18294 0.0
N2528 N 0.62294 0.01036 0.18609 0.0
N2529 N 0.65902 0.0207 0.19688 0.0
C2530 C 0.64391 0.03106 0.20513 0.0
C2531 C 0.62437 0.02541 0.19934 0.0
C2532 C 0.5351 0.20186 0.14296 0.0
C2533 C 0.54919 0.21688 0.14627 0.0
C2534 C 0.52891 0.1969 0.12378 0.0
C2535 C 0.53694 0.20654 0.10724 0.0
H2536 H 0.53006 0.19277 0.15516 0.0
H2537 H 0.51951 0.18407 0.12184 0.0
S2538 S 0.57112 0.24942 0.10804 0.0
N2539 N 0.56839 0.24346 0.13158 0.0
N2540 N 0.55724 0.23371 0.09545 0.0
C2541 C 0.54939 0.2229 0.11046 0.0
C2542 C 0.55539 0.22822 0.13003 0.0
C2543 C 0.02789 0.80774 0.38065 0.0
C2544 C 0.03613 0.798 0.39702 0.0
C2545 C 0.03379 0.80284 0.36136 0.0
C2546 C 0.0478 0.78781 0.35779 0.0
H2547 H 0.01863 0.82064 0.38278 0.0
H2548 H 0.02869 0.81208 0.3493 0.0
S2549 S 0.06976 0.75472 0.39552 0.0
N2550 N 0.05622 0.7705 0.40838 0.0
N2551 N 0.06686 0.76091 0.37205 0.0
C2552 C 0.05405 0.77627 0.37387 0.0
C2553 C 0.04833 0.7815 0.39355 0.0
C2554 C 0.4714 0.30072 0.64293 0.0
C2555 C 0.45643 0.28665 0.64646 0.0
C2556 C 0.47685 0.30605 0.62359 0.0
C2557 C 0.46718 0.29773 0.60719 0.0
H2558 H 0.47777 0.30887 0.65518 0.0
H2559 H 0.48706 0.31824 0.6216 0.0
S2560 S 0.42911 0.25827 0.60836 0.0
N2561 N 0.43397 0.26269 0.63189 0.0
N2562 N 0.44378 0.27307 0.59561 0.0
C2563 C 0.45363 0.28229 0.61052 0.0
C2564 C 0.44836 0.27662 0.63017 0.0
C2565 C 0.97169 0.70331 0.86184 0.0
C2566 C 0.95675 0.71738 0.85814 0.0
C2567 C 0.97704 0.69807 0.88123 0.0
C2568 C 0.9673 0.70646 0.89755 0.0
H2569 H 0.97815 0.69511 0.84967 0.0
H2570 H 0.9873 0.68595 0.88333 0.0
S2571 S 0.92918 0.74586 0.896 0.0
N2572 N 0.93417 0.74135 0.87251 0.0
N2573 N 0.94377 0.73111 0.90889 0.0
C2574 C 0.9537 0.72183 0.89408 0.0
C2575 C 0.94854 0.72743 0.87436 0.0
C2576 C 0.03384 0.70439 0.14356 0.0
C2577 C 0.04892 0.71841 0.14685 0.0
C2578 C 0.0282 0.6989 0.12431 0.0
C2579 C 0.03778 0.70699 0.10775 0.0
H2580 H 0.0275 0.69643 0.15593 0.0
H2581 H 0.01788 0.68677 0.12251 0.0
S2582 S 0.07609 0.74624 0.10827 0.0
N2583 N 0.07141 0.74208 0.13188 0.0
N2584 N 0.06125 0.73139 0.09577 0.0
C2585 C 0.05147 0.72237 0.11084 0.0
C2586 C 0.05693 0.72821 0.1304 0.0
C2587 C 0.45513 0.78381 0.11145 0.0
C2588 C 0.4691 0.79898 0.10833 0.0
C2589 C 0.4494 0.77817 0.13062 0.0
C2590 C 0.45719 0.78783 0.14728 0.0
H2591 H 0.44737 0.7774 0.09897 0.0
H2592 H 0.43736 0.76773 0.13226 0.0
S2593 S 0.49609 0.82651 0.14728 0.0
N2594 N 0.49232 0.82173 0.12362 0.0
N2595 N 0.4812 0.81156 0.15958 0.0
C2596 C 0.47247 0.80167 0.1444 0.0
C2597 C 0.47856 0.80713 0.12491 0.0
C2598 C 0.44785 0.22768 0.87435 0.0
C2599 C 0.4571 0.21916 0.85783 0.0
C2600 C 0.45302 0.22177 0.89356 0.0
C2601 C 0.46778 0.20742 0.89687 0.0
H2602 H 0.43505 0.23713 0.87243 0.0
H2603 H 0.44415 0.2271 0.9058 0.0
S2604 S 0.49979 0.18475 0.85862 0.0
N2605 N 0.48406 0.19857 0.84601 0.0
N2606 N 0.49408 0.18784 0.88218 0.0
C2607 C 0.47895 0.20097 0.88061 0.0
C2608 C 0.47348 0.20674 0.86103 0.0
C2609 C 0.55552 0.27782 0.37353 0.0
C2610 C 0.54771 0.28748 0.35689 0.0
C2611 C 0.54986 0.28351 0.3927 0.0
C2612 C 0.53595 0.29872 0.39582 0.0
H2613 H 0.56757 0.26739 0.37187 0.0
H2614 H 0.55765 0.27713 0.40517 0.0
S2615 S 0.50878 0.32611 0.35693 0.0
N2616 N 0.52365 0.31114 0.34461 0.0
N2617 N 0.51264 0.3214 0.38059 0.0
C2618 C 0.5264 0.30681 0.37927 0.0
C2619 C 0.53242 0.3013 0.35978 0.0
C2620 C 0.14345 0.03325 0.7037 0.0
C2621 C 0.14731 0.04853 0.71736 0.0
C2622 C 0.12401 0.02786 0.69872 0.0
C2623 C 0.10779 0.0379 0.70696 0.0
H2624 H 0.15553 0.02655 0.69557 0.0
H2625 H 0.12177 0.0173 0.68687 0.0
S2626 S 0.10981 0.07701 0.74538 0.0
N2627 N 0.13323 0.0718 0.74084 0.0
N2628 N 0.09674 0.06209 0.73111 0.0
C2629 C 0.11144 0.05185 0.72198 0.0
C2630 C 0.13121 0.05707 0.72731 0.0
C2631 C 0.72832 0.87468 0.94796 0.0
C2632 C 0.71826 0.85833 0.95588 0.0
C2633 C 0.72299 0.89403 0.95337 0.0
C2634 C 0.70772 0.89763 0.96712 0.0
H2635 H 0.73884 0.87267 0.93604 0.0
H2636 H 0.72968 0.90626 0.94547 0.0
S2637 S 0.67932 0.85963 0.9945 0.0
N2638 N 0.69415 0.84683 0.97989 0.0
N2639 N 0.68455 0.88313 0.99041 0.0
C2640 C 0.69922 0.88136 0.97678 0.0
C2641 C 0.70437 0.86169 0.97102 0.0
C2642 C 0.86135 0.47191 0.20549 0.0
C2643 C 0.85827 0.45655 0.21925 0.0
C2644 C 0.8805 0.47764 0.1998 0.0
C2645 C 0.89717 0.46789 0.20743 0.0
H2646 H 0.84885 0.47835 0.1978 0.0
H2647 H 0.8821 0.48818 0.18785 0.0
S2648 S 0.89727 0.42895 0.24604 0.0
N2649 N 0.8736 0.43368 0.2423 0.0
N2650 N 0.90954 0.44403 0.23125 0.0
C2651 C 0.89433 0.45395 0.22262 0.0
C2652 C 0.87487 0.44839 0.22867 0.0
C2653 C 0.27766 0.63137 0.44893 0.0
C2654 C 0.28766 0.64785 0.45667 0.0
C2655 C 0.2832 0.6121 0.45438 0.0
C2656 C 0.29862 0.60871 0.468 0.0
H2657 H 0.26703 0.63322 0.43707 0.0
H2658 H 0.27653 0.59976 0.44662 0.0
S2659 S 0.32691 0.64709 0.49499 0.0
N2660 N 0.31185 0.65968 0.48046 0.0
N2661 N 0.32185 0.62353 0.49104 0.0
C2662 C 0.30705 0.62511 0.47753 0.0
C2663 C 0.30168 0.64469 0.47173 0.0
C2664 C 0.12411 0.97803 0.30603 0.0
C2665 C 0.10788 0.96796 0.29784 0.0
C2666 C 0.14354 0.9728 0.30084 0.0
C2667 C 0.14739 0.95765 0.28703 0.0
H2668 H 0.12192 0.98845 0.31801 0.0
H2669 H 0.15565 0.97949 0.30896 0.0
S2670 S 0.10981 0.92927 0.25898 0.0
N2671 N 0.09678 0.94396 0.27351 0.0
N2672 N 0.13325 0.93456 0.2634 0.0
C2673 C 0.13125 0.94914 0.2771 0.0
C2674 C 0.11149 0.95419 0.28264 0.0
C2675 C 0.80176 0.86092 0.53317 0.0
C2676 C 0.78783 0.85728 0.54825 0.0
C2677 C 0.80694 0.88028 0.5277 0.0
C2678 C 0.79866 0.89663 0.53748 0.0
H2679 H 0.80986 0.84873 0.52664 0.0
H2680 H 0.81894 0.88235 0.51728 0.0
S2681 S 0.75976 0.89518 0.57614 0.0
N2682 N 0.76419 0.87169 0.57114 0.0
N2683 N 0.77431 0.90803 0.56132 0.0
C2684 C 0.78346 0.8932 0.55129 0.0
C2685 C 0.77792 0.87351 0.55657 0.0
C2686 C 0.87399 0.55562 0.7773 0.0
C2687 C 0.8575 0.5476 0.78706 0.0
C2688 C 0.89327 0.55013 0.7828 0.0
C2689 C 0.89668 0.5362 0.79794 0.0
H2690 H 0.87212 0.56773 0.76698 0.0
H2691 H 0.9056 0.5581 0.77637 0.0
S2692 S 0.85829 0.50841 0.82541 0.0
N2693 N 0.84569 0.52322 0.81063 0.0
N2694 N 0.88186 0.51257 0.82055 0.0
C2695 C 0.88029 0.52639 0.80606 0.0
C2696 C 0.86069 0.53222 0.80072 0.0
C2697 C 0.20457 0.64289 0.0331 0.0
C2698 C 0.21849 0.64674 0.04817 0.0
C2699 C 0.19941 0.62345 0.02785 0.0
C2700 C 0.20771 0.60723 0.03781 0.0
H2701 H 0.1964 0.65498 0.02649 0.0
H2702 H 0.18736 0.62124 0.01751 0.0
S2703 S 0.24675 0.60918 0.07631 0.0
N2704 N 0.24225 0.63261 0.0711 0.0
N2705 N 0.23218 0.59615 0.06166 0.0
C2706 C 0.22298 0.61085 0.0515 0.0
C2707 C 0.22849 0.63061 0.05658 0.0
C2708 C 0.2261 0.37387 0.94712 0.0
C2709 C 0.21803 0.35711 0.95634 0.0
C2710 C 0.22009 0.39294 0.9527 0.0
C2711 C 0.20606 0.39591 0.96785 0.0
H2712 H 0.2354 0.37224 0.93417 0.0
H2713 H 0.22518 0.40537 0.94397 0.0
S2714 S 0.18444 0.35694 0.99971 0.0
N2715 N 0.19804 0.34471 0.98348 0.0
N2716 N 0.18714 0.38061 0.99428 0.0
C2717 C 0.19992 0.3794 0.97883 0.0
C2718 C 0.20579 0.35995 0.97293 0.0
C2719 C 0.39464 0.95364 0.22249 0.0
C2720 C 0.3976 0.96842 0.20807 0.0
C2721 C 0.37555 0.94802 0.22844 0.0
C2722 C 0.35879 0.95681 0.21992 0.0
H2723 H 0.40709 0.94514 0.22791 0.0
H2724 H 0.37396 0.9353 0.23805 0.0
S2725 S 0.35853 0.99925 0.1852 0.0
N2726 N 0.38222 0.99415 0.18829 0.0
N2727 N 0.34632 0.98329 0.19911 0.0
C2728 C 0.36159 0.97312 0.2073 0.0
C2729 C 0.38104 0.97906 0.20149 0.0
C2730 C 0.7779 0.13048 0.449 0.0
C2731 C 0.78771 0.14701 0.45689 0.0
C2732 C 0.78347 0.11124 0.45452 0.0
C2733 C 0.79869 0.10792 0.46838 0.0
H2734 H 0.76742 0.13229 0.43701 0.0
H2735 H 0.77695 0.09887 0.44668 0.0
S2736 S 0.82656 0.14645 0.49562 0.0
N2737 N 0.81161 0.15896 0.48091 0.0
N2738 N 0.82162 0.12286 0.49166 0.0
C2739 C 0.80697 0.12437 0.47798 0.0
C2740 C 0.80159 0.14392 0.4721 0.0
C2741 C 0.61075 0.55242 0.72106 0.0
C2742 C 0.60795 0.53743 0.70683 0.0
C2743 C 0.62976 0.5579 0.7274 0.0
C2744 C 0.64662 0.54875 0.71944 0.0
H2745 H 0.59825 0.56109 0.7261 0.0
H2746 H 0.63128 0.57075 0.73686 0.0
S2747 S 0.64718 0.50582 0.6853 0.0
N2748 N 0.62348 0.51123 0.68777 0.0
N2749 N 0.65925 0.52184 0.69927 0.0
C2750 C 0.64391 0.5323 0.70697 0.0
C2751 C 0.62454 0.52651 0.70077 0.0
C2752 C 0.55069 0.72128 0.61137 0.0
C2753 C 0.53592 0.70693 0.60809 0.0
C2754 C 0.55609 0.72702 0.63058 0.0
C2755 C 0.54707 0.71834 0.64713 0.0
H2756 H 0.55935 0.72681 0.59907 0.0
H2757 H 0.56882 0.73658 0.63242 0.0
S2758 S 0.50444 0.68384 0.64652 0.0
N2759 N 0.50987 0.68712 0.62292 0.0
N2760 N 0.52033 0.69754 0.65907 0.0
C2761 C 0.53074 0.70582 0.64401 0.0
C2762 C 0.52503 0.70022 0.62443 0.0
C2763 C 0.05056 0.28311 0.89321 0.0
C2764 C 0.03652 0.29819 0.89641 0.0
C2765 C 0.05605 0.27733 0.874 0.0
C2766 C 0.04795 0.28676 0.85736 0.0
H2767 H 0.05851 0.27684 0.90564 0.0
H2768 H 0.06815 0.26697 0.87228 0.0
S2769 S 0.00879 0.32518 0.85764 0.0
N2770 N 0.01294 0.32064 0.88128 0.0
N2771 N 0.0236 0.31022 0.84524 0.0
C2772 C 0.03261 0.30052 0.86037 0.0
C2773 C 0.02678 0.30613 0.8799 0.0
C2774 C 0.97177 0.20215 0.36164 0.0
C2775 C 0.95778 0.21732 0.35861 0.0
C2776 C 0.97786 0.19675 0.38074 0.0
C2777 C 0.96988 0.20617 0.39744 0.0
H2778 H 0.97674 0.19326 0.34926 0.0
H2779 H 0.98705 0.18374 0.38245 0.0
S2780 S 0.93642 0.24961 0.39738 0.0
N2781 N 0.93903 0.24396 0.37375 0.0
N2782 N 0.95006 0.2335 0.40969 0.0
C2783 C 0.95775 0.22281 0.3945 0.0
C2784 C 0.95181 0.22852 0.37503 0.0
C2785 C 0.03246 0.20376 0.64408 0.0
C2786 C 0.04691 0.21851 0.647 0.0
C2787 C 0.02628 0.19832 0.62501 0.0
C2788 C 0.03461 0.20729 0.60825 0.0
H2789 H 0.02726 0.1951 0.65652 0.0
H2790 H 0.01676 0.18553 0.6234 0.0
S2791 S 0.0691 0.24993 0.60802 0.0
N2792 N 0.06635 0.24455 0.63169 0.0
N2793 N 0.05509 0.23404 0.59581 0.0
C2794 C 0.04712 0.22369 0.61107 0.0
C2795 C 0.05318 0.22942 0.6305 0.0
C2796 C 0.44876 0.72785 0.37432 0.0
C2797 C 0.45794 0.71933 0.35777 0.0
C2798 C 0.45419 0.72213 0.39352 0.0
C2799 C 0.46914 0.70796 0.39677 0.0
H2800 H 0.43585 0.73716 0.37248 0.0
H2801 H 0.44537 0.72743 0.40582 0.0
S2802 S 0.50113 0.68557 0.35834 0.0
N2803 N 0.48507 0.69906 0.3458 0.0
N2804 N 0.49558 0.68867 0.38194 0.0
C2805 C 0.48023 0.70155 0.38044 0.0
C2806 C 0.4745 0.70713 0.36088 0.0
C2807 C 0.55713 0.77749 0.87565 0.0
C2808 C 0.54803 0.78596 0.85903 0.0
C2809 C 0.55174 0.7834 0.8948 0.0
C2810 C 0.53693 0.79773 0.89796 0.0
H2811 H 0.56992 0.768 0.87387 0.0
H2812 H 0.56049 0.77808 0.90714 0.0
S2813 S 0.50517 0.82015 0.85937 0.0
N2814 N 0.52111 0.80642 0.84693 0.0
N2815 N 0.51069 0.81719 0.88299 0.0
C2816 C 0.52593 0.80416 0.88158 0.0
C2817 C 0.53162 0.79839 0.86205 0.0
C2818 C 0.62477 0.47651 0.30604 0.0
C2819 C 0.60838 0.46812 0.29645 0.0
C2820 C 0.64406 0.4707 0.30104 0.0
C2821 C 0.64762 0.45661 0.28607 0.0
H2822 H 0.62268 0.48586 0.31889 0.0
H2823 H 0.65616 0.47595 0.31016 0.0
S2824 S 0.60977 0.43419 0.25337 0.0
N2825 N 0.59694 0.44777 0.26915 0.0
N2826 N 0.63326 0.43726 0.25939 0.0
C2827 C 0.63148 0.45017 0.27469 0.0
C2828 C 0.61181 0.45582 0.28002 0.0
C2829 C 0.30185 0.3619 0.53372 0.0
C2830 C 0.287 0.35859 0.54799 0.0
C2831 C 0.30694 0.38109 0.52768 0.0
C2832 C 0.29759 0.39765 0.53601 0.0
H2833 H 0.31077 0.34967 0.52844 0.0
H2834 H 0.31967 0.38298 0.51812 0.0
S2835 S 0.25507 0.39692 0.57065 0.0
N2836 N 0.26079 0.37336 0.56764 0.0
N2837 N 0.27074 0.40949 0.55674 0.0
C2838 C 0.28134 0.39446 0.54862 0.0
C2839 C 0.2759 0.37489 0.55448 0.0
C2840 C 0.39407 0.05222 0.78376 0.0
C2841 C 0.39714 0.03695 0.79762 0.0
C2842 C 0.37498 0.05749 0.77755 0.0
C2843 C 0.35828 0.04789 0.78532 0.0
H2844 H 0.40638 0.06128 0.77894 0.0
H2845 H 0.37324 0.07049 0.76836 0.0
S2846 S 0.35843 0.00436 0.81863 0.0
N2847 N 0.38204 0.01016 0.8162 0.0
N2848 N 0.34609 0.02045 0.805 0.0
C2849 C 0.36125 0.03128 0.79748 0.0
C2850 C 0.38073 0.02567 0.8035 0.0
C2851 C 0.72756 0.12946 0.05719 0.0
C2852 C 0.71954 0.14638 0.04825 0.0
C2853 C 0.72133 0.11051 0.05142 0.0
C2854 C 0.70715 0.10787 0.03635 0.0
H2855 H 0.73697 0.13085 0.07009 0.0
H2856 H 0.72636 0.09793 0.05997 0.0
S2857 S 0.68556 0.14742 0.00521 0.0
N2858 N 0.69943 0.15932 0.02146 0.0
N2859 N 0.68812 0.12366 0.01029 0.0
C2860 C 0.70107 0.12456 0.02563 0.0
C2861 C 0.70715 0.14387 0.03172 0.0
C2862 C 0.95348 0.28389 0.11221 0.0
C2863 C 0.96832 0.29806 0.10848 0.0
C2864 C 0.94882 0.278 0.13156 0.0
C2865 C 0.95858 0.28644 0.14783 0.0
H2866 H 0.94422 0.27862 0.10023 0.0
H2867 H 0.93604 0.26859 0.13381 0.0
S2868 S 1.00136 0.32069 0.14589 0.0
N2869 N 0.99506 0.31756 0.12248 0.0
N2870 N 0.98588 0.30698 0.15892 0.0
C2871 C 0.97489 0.29884 0.14419 0.0
C2872 C 0.9799 0.30453 0.12446 0.0
C2873 C 0.94849 0.77628 0.62996 0.0
C2874 C 0.9573 0.78485 0.6467 0.0
C2875 C 0.954 0.78228 0.61087 0.0
C2876 C 0.96866 0.79681 0.60789 0.0
H2877 H 0.9358 0.76662 0.63159 0.0
H2878 H 0.94549 0.77683 0.59843 0.0
S2879 S 0.99967 0.81968 0.64685 0.0
N2880 N 0.9838 0.8057 0.6591 0.0
N2881 N 0.99445 0.81663 0.62316 0.0
C2882 C 0.97939 0.80338 0.6244 0.0
C2883 C 0.97358 0.79751 0.64386 0.0
C2884 C 0.61124 0.953 0.78246 0.0
C2885 C 0.60803 0.96709 0.7975 0.0
C2886 C 0.63045 0.94739 0.77682 0.0
C2887 C 0.64707 0.95542 0.78636 0.0
H2888 H 0.59882 0.94507 0.77615 0.0
H2889 H 0.63216 0.93526 0.76649 0.0
S2890 S 0.64681 0.99478 0.82459 0.0
N2891 N 0.62317 0.99072 0.81994 0.0
N2892 N 0.65921 0.97981 0.80978 0.0
C2893 C 0.64408 0.97082 0.80005 0.0
C2894 C 0.62455 0.9768 0.8055 0.0
C2895 C 0.27837 0.87478 0.05876 0.0
C2896 C 0.28649 0.85799 0.04965 0.0
C2897 C 0.28442 0.89382 0.05313 0.0
C2898 C 0.29853 0.89671 0.03804 0.0
H2899 H 0.26902 0.87322 0.07168 0.0
H2900 H 0.27932 0.90629 0.06181 0.0
S2901 S 0.32036 0.85757 0.00651 0.0
N2902 N 0.30664 0.84543 0.02269 0.0
N2903 N 0.31763 0.88127 0.0118 0.0
C2904 C 0.30473 0.88014 0.02717 0.0
C2905 C 0.29882 0.86074 0.03311 0.0
C2906 C 0.37377 0.55695 0.27842 0.0
C2907 C 0.35746 0.54854 0.28816 0.0
C2908 C 0.39315 0.5518 0.28383 0.0
C2909 C 0.39687 0.53779 0.29881 0.0
H2910 H 0.37164 0.56899 0.26807 0.0
H2911 H 0.40531 0.55999 0.27733 0.0
S2912 S 0.35909 0.50935 0.32649 0.0
N2913 N 0.34616 0.52399 0.31181 0.0
N2914 N 0.38256 0.51392 0.32151 0.0
C2915 C 0.38067 0.52776 0.30707 0.0
C2916 C 0.36095 0.53328 0.30187 0.0
C2917 C 0.70099 0.64315 0.53457 0.0
C2918 C 0.71609 0.6463 0.54861 0.0
C2919 C 0.69596 0.62404 0.52822 0.0
C2920 C 0.7056 0.60741 0.53606 0.0
H2921 H 0.6919 0.65541 0.52967 0.0
H2922 H 0.68307 0.62222 0.51886 0.0
S2923 S 0.74861 0.6078 0.57008 0.0
N2924 N 0.7427 0.63137 0.56758 0.0
N2925 N 0.73282 0.59538 0.55616 0.0
C2926 C 0.72202 0.61048 0.54847 0.0
C2927 C 0.72741 0.62997 0.55462 0.0
C2928 C 0.99331 0.49735 0.18587 0.0
C2929 C 0.98415 0.49177 0.16803 0.0
C2930 C 0.01066 0.50877 0.18598 0.0
C2931 C 0.0198 0.51469 0.16824 0.0
H2932 H 0.98689 0.4931 0.19992 0.0
H2933 H 0.01711 0.51273 0.20011 0.0
S2934 S 1.00192 0.50376 0.11749 0.0
N2935 N 0.9855 0.49312 0.13211 0.0
N2936 N 0.01838 0.5141 0.13231 0.0
C2937 C 0.0109 0.50907 0.15028 0.0
C2938 C 0.99301 0.49777 0.15017 0.0
C2939 C 0.7464 0.2611 0.40248 0.0
C2940 C 0.74032 0.26995 0.42033 0.0
C2941 C 0.7577 0.24363 0.40242 0.0
C2942 C 0.76375 0.23463 0.4202 0.0
H2943 H 0.74223 0.26758 0.38844 0.0
H2944 H 0.7619 0.23725 0.38833 0.0
S2945 S 0.75199 0.2521 0.47093 0.0
N2946 N 0.74124 0.26837 0.45626 0.0
N2947 N 0.76278 0.23594 0.45614 0.0
C2948 C 0.75792 0.24346 0.43813 0.0
C2949 C 0.74612 0.26099 0.4382 0.0
C2950 C 0.99315 0.99726 0.65241 0.0
C2951 C 0.98425 0.99094 0.67015 0.0
C2952 C 0.01069 0.00845 0.65253 0.0
C2953 C 0.01972 0.01419 0.67041 0.0
H2954 H 0.98664 0.99334 0.6383 0.0
H2955 H 0.01708 0.01285 0.63851 0.0
S2956 S 1.0022 1.00171 0.72094 0.0
N2957 N 0.98586 0.99127 0.70608 0.0
N2958 N 0.01842 0.01264 0.70632 0.0
C2959 C 0.01087 0.00811 0.68824 0.0
C2960 C 0.99326 0.9964 0.68811 0.0
C2961 C 0.24625 0.26021 0.93486 0.0
C2962 C 0.24043 0.26948 0.91715 0.0
C2963 C 0.25762 0.24282 0.9347 0.0
C2964 C 0.26325 0.23373 0.91683 0.0
H2965 H 0.24225 0.26659 0.94901 0.0
H2966 H 0.26179 0.2363 0.94873 0.0
S2967 S 0.25154 0.25185 0.86634 0.0
N2968 N 0.24119 0.26824 0.88121 0.0
N2969 N 0.26207 0.23532 0.88091 0.0
C2970 C 0.25736 0.24273 0.899 0.0
C2971 C 0.24611 0.26065 0.89916 0.0
C2972 C 0.01097 0.4966 0.81932 0.0
C2973 C 0.02 0.49079 0.83716 0.0
C2974 C 0.99368 0.50814 0.81922 0.0
C2975 C 0.98445 0.51397 0.83696 0.0
H2976 H 0.01747 0.49245 0.80527 0.0
H2977 H 0.98735 0.51227 0.8051 0.0
S2978 S 1.00193 0.5024 0.8877 0.0
N2979 N 0.01838 0.4918 0.87308 0.0
N2980 N 0.98565 0.51299 0.87289 0.0
C2981 C 0.99321 0.50811 0.85491 0.0
C2982 C 0.01104 0.49667 0.85501 0.0
C2983 C 0.76081 0.25997 0.10355 0.0
C2984 C 0.76697 0.26884 0.08574 0.0
C2985 C 0.74953 0.24248 0.10356 0.0
C2986 C 0.74356 0.23348 0.08575 0.0
H2987 H 0.76487 0.2665 0.11762 0.0
H2988 H 0.74523 0.23613 0.11762 0.0
S2989 S 0.75569 0.25082 0.03507 0.0
N2990 N 0.76632 0.26715 0.0498 0.0
N2991 N 0.74482 0.23469 0.04982 0.0
C2992 C 0.74954 0.24226 0.06785 0.0
C2993 C 0.76132 0.25981 0.06784 0.0
C2994 C 0.99368 0.00734 0.31963 0.0
C2995 C 0.98457 0.01289 0.33752 0.0
C2996 C 0.01101 0.9959 0.31944 0.0
C2997 C 0.0202 0.98993 0.33714 0.0
H2998 H 0.98722 0.01163 0.30561 0.0
H2999 H 0.01742 0.99198 0.30529 0.0
S3000 S 1.00247 1.00071 0.38797 0.0
N3001 N 0.98603 0.01143 0.37343 0.0
N3002 N 0.01886 0.99041 0.37308 0.0
C3003 C 0.01135 0.99549 0.35514 0.0
C3004 C 0.99348 0.00683 0.35533 0.0
C3005 C 0.24692 0.24469 0.56856 0.0
C3006 C 0.24116 0.2354 0.58628 0.0
C3007 C 0.25858 0.26189 0.56867 0.0
C3008 C 0.2646 0.27076 0.58652 0.0
H3009 H 0.24261 0.23849 0.55442 0.0
H3010 H 0.26264 0.26845 0.55463 0.0
S3011 S 0.25338 0.25244 0.63704 0.0
N3012 N 0.24252 0.23634 0.62222 0.0
N3013 N 0.26396 0.26891 0.62243 0.0
C3014 C 0.25885 0.26172 0.60437 0.0
C3015 C 0.24727 0.24398 0.60425 0.0
C3016 C 0.15182 0.01139 0.50842 0.0
C3017 C 0.1696 0.02042 0.51446 0.0
C3018 C 0.15188 0.99393 0.49704 0.0
C3019 C 0.16972 0.98513 0.49084 0.0
H3020 H 0.13773 0.01771 0.51271 0.0
H3021 H 0.13784 0.98742 0.4929 0.0
S3022 S 0.22032 0.00314 0.50238 0.0
N3023 N 0.20553 0.01921 0.51329 0.0
N3024 N 0.20564 0.98686 0.49163 0.0
C3025 C 0.18758 0.99415 0.49662 0.0
C3026 C 0.18752 0.01165 0.50849 0.0
C3027 C 0.26099 0.43502 0.74734 0.0
C3028 C 0.27021 0.41721 0.74173 0.0
C3029 C 0.24344 0.43505 0.75847 0.0
C3030 C 0.23415 0.41729 0.76406 0.0
H3031 H 0.26751 0.44909 0.74333 0.0
H3032 H 0.23696 0.44915 0.76247 0.0
S3033 S 0.2521 0.36662 0.75291 0.0
N3034 N 0.26873 0.38131 0.74269 0.0
N3035 N 0.23552 0.38137 0.76312 0.0
C3036 C 0.24311 0.39937 0.75841 0.0
C3037 C 0.2612 0.39933 0.7474 0.0
C3038 C 0.85197 0.49339 0.00784 0.0
C3039 C 0.83415 0.48458 0.01408 0.0
C3040 C 0.85198 0.51065 0.99622 0.0
C3041 C 0.83417 0.51947 0.98997 0.0
H3042 H 0.86603 0.48706 0.01219 0.0
H3043 H 0.86605 0.51703 0.99197 0.0
S3044 S 0.7835 0.50194 1.00188 0.0
N3045 N 0.79823 0.48595 0.01298 0.0
N3046 N 0.79824 0.51796 0.99085 0.0
C3047 C 0.81627 0.51064 0.99589 0.0
C3048 C 0.81626 0.49333 0.00802 0.0
C3049 C 0.7614 0.10234 0.258 0.0
C3050 C 0.77052 0.08462 0.26403 0.0
C3051 C 0.74378 0.10217 0.24693 0.0
C3052 C 0.73488 0.08429 0.24104 0.0
H3053 H 0.76778 0.11646 0.26207 0.0
H3054 H 0.73721 0.11618 0.24278 0.0
S3055 S 0.75304 0.03381 0.2527 0.0
N3056 N 0.76929 0.04869 0.26322 0.0
N3057 N 0.73659 0.04839 0.24208 0.0
C3058 C 0.74397 0.06648 0.24679 0.0
C3059 C 0.76167 0.06665 0.25838 0.0
C3060 C 0.50652 0.15206 0.01087 0.0
C3061 C 0.51298 0.16991 0.01946 0.0
C3062 C 0.4951 0.15195 0.99347 0.0
C3063 C 0.48928 0.1697 0.98426 0.0
H3064 H 0.51051 0.13804 0.0175 0.0
H3065 H 0.49065 0.13786 0.98728 0.0
S3066 S 0.50207 0.22043 1.00092 0.0
N3067 N 0.51266 0.20581 0.01735 0.0
N3068 N 0.4909 0.2056 0.98506 0.0
C3069 C 0.49546 0.18763 0.99282 0.0
C3070 C 0.50739 0.18774 0.01029 0.0
C3071 C 0.99696 0.85255 0.51154 0.0
C3072 C 0.99082 0.83474 0.52042 0.0
C3073 C 0.00825 0.85258 0.49404 0.0
C3074 C 0.01426 0.83478 0.48503 0.0
H3075 H 0.99285 0.8666 0.51805 0.0
H3076 H 0.0125 0.86664 0.48766 0.0
S3077 S 1.0023 0.78411 0.50249 0.0
N3078 N 0.99161 0.79883 0.51879 0.0
N3079 N 0.01313 0.79886 0.48633 0.0
C3080 C 0.00835 0.81689 0.49386 0.0
C3081 C 0.99655 0.81686 0.51142 0.0
C3082 C 0.40216 0.24571 0.76089 0.0
C3083 C 0.41995 0.23967 0.76987 0.0
C3084 C 0.40218 0.25698 0.74339 0.0
C3085 C 0.42 0.26306 0.73449 0.0
H3086 H 0.38808 0.24157 0.76733 0.0
H3087 H 0.38812 0.26118 0.73695 0.0
S3088 S 0.47064 0.25131 0.75221 0.0
N3089 N 0.45589 0.24058 0.76843 0.0
N3090 N 0.45593 0.26206 0.73597 0.0
C3091 C 0.43788 0.25721 0.7434 0.0
C3092 C 0.43786 0.24544 0.76096 0.0
C3093 C 0.00926 0.65169 0.01082 0.0
C3094 C 0.01431 0.66944 0.02048 0.0
C3095 C 0.99771 0.65173 0.99348 0.0
C3096 C 0.99033 0.66947 0.98543 0.0
H3097 H 0.01449 0.63768 0.01654 0.0
H3098 H 0.99441 0.63772 0.98644 0.0
S3099 S 0.99869 0.7199 0.00561 0.0
N3100 N 0.01077 0.70519 0.02088 0.0
N3101 N 0.98876 0.70527 0.98876 0.0
C3102 C 0.99504 0.68728 0.99517 0.0
C3103 C 0.00711 0.68727 0.01254 0.0
C3104 C 0.10342 0.76008 0.26116 0.0
C3105 C 0.08561 0.76634 0.27001 0.0
C3106 C 0.10341 0.74874 0.24368 0.0
C3107 C 0.0856 0.74279 0.23465 0.0
H3108 H 0.11748 0.7641 0.26771 0.0
H3109 H 0.11747 0.74436 0.23736 0.0
S3110 S 0.03495 0.75516 0.25194 0.0
N3111 N 0.04969 0.7658 0.26825 0.0
N3112 N 0.04968 0.7442 0.23585 0.0
C3113 C 0.06772 0.74888 0.24341 0.0
C3114 C 0.06772 0.76072 0.26094 0.0
C3115 C 0.49869 0.81993 0.01151 0.0
C3116 C 0.49284 0.83768 0.02071 0.0
C3117 C 0.51019 0.82001 0.99421 0.0
C3118 C 0.51595 0.83783 0.98513 0.0
H3119 H 0.49455 0.80582 0.01786 0.0
H3120 H 0.51431 0.80595 0.98772 0.0
S3121 S 0.50442 0.88838 0.00316 0.0
N3122 N 0.49386 0.8736 0.01948 0.0
N3123 N 0.51498 0.87373 0.9867 0.0
C3124 C 0.51012 0.85569 0.99409 0.0
C3125 C 0.49872 0.85562 0.01194 0.0
C3126 C 0.60346 0.24625 0.24337 0.0
C3127 C 0.58571 0.24028 0.23424 0.0
C3128 C 0.60334 0.25748 0.2609 0.0
C3129 C 0.58547 0.26359 0.26968 0.0
H3130 H 0.61757 0.24203 0.23705 0.0
H3131 H 0.61736 0.26158 0.26747 0.0
S3132 S 0.53493 0.25215 0.25148 0.0
N3133 N 0.54977 0.24137 0.23535 0.0
N3134 N 0.54956 0.2628 0.26788 0.0
C3135 C 0.56764 0.25788 0.26059 0.0
C3136 C 0.56775 0.24614 0.243 0.0
C3137 C 0.7486 0.76135 0.90228 0.0
C3138 C 0.74227 0.7704 0.91995 0.0
C3139 C 0.76005 0.74397 0.90254 0.0
C3140 C 0.76603 0.73525 0.92048 0.0
H3141 H 0.74449 0.7676 0.88811 0.0
H3142 H 0.7644 0.73743 0.88857 0.0
S3143 S 0.7537 0.75332 0.97087 0.0
N3144 N 0.74293 0.7693 0.95589 0.0
N3145 N 0.76474 0.73705 0.95639 0.0
C3146 C 0.75998 0.74428 0.93824 0.0
C3147 C 0.74802 0.76172 0.93797 0.0
C3148 C 0.2468 0.76142 0.43569 0.0
C3149 C 0.24106 0.77069 0.41795 0.0
C3150 C 0.25834 0.74416 0.4356 0.0
C3151 C 0.26424 0.7352 0.41776 0.0
H3152 H 0.24257 0.7677 0.44982 0.0
H3153 H 0.2624 0.73762 0.44965 0.0
S3154 S 0.25299 0.75341 0.36721 0.0
N3155 N 0.24228 0.76963 0.38202 0.0
N3156 N 0.26349 0.73692 0.38184 0.0
C3157 C 0.25848 0.7442 0.3999 0.0
C3158 C 0.24705 0.76201 0.39999 0.0
C3159 C 0.75839 0.76024 0.60245 0.0
C3160 C 0.76427 0.76904 0.58451 0.0
C3161 C 0.7469 0.74289 0.60269 0.0
C3162 C 0.74043 0.73396 0.58501 0.0
H3163 H 0.76288 0.76667 0.61642 0.0
H3164 H 0.74289 0.73656 0.61685 0.0
S3165 S 0.7515 0.75133 0.5341 0.0
N3166 N 0.76269 0.76747 0.5486 0.0
N3167 N 0.7408 0.73528 0.54907 0.0
C3168 C 0.74605 0.74273 0.56699 0.0
C3169 C 0.75805 0.76014 0.56674 0.0
C3170 C 0.2462 0.74426 0.06932 0.0
C3171 C 0.24001 0.73502 0.08691 0.0
C3172 C 0.25779 0.76151 0.0697 0.0
C3173 C 0.2633 0.77047 0.08768 0.0
H3174 H 0.24234 0.73796 0.0551 0.0
H3175 H 0.26224 0.768 0.05574 0.0
S3176 S 0.2506 0.75237 0.13793 0.0
N3177 N 0.24025 0.73616 0.12286 0.0
N3178 N 0.26155 0.76881 0.12356 0.0
C3179 C 0.25702 0.76151 0.10539 0.0
C3180 C 0.24553 0.74373 0.10501 0.0
C3181 C 0.15195 0.49271 0.99891 0.0
C3182 C 0.16961 0.48363 0.99258 0.0
C3183 C 0.15224 0.51026 0.01012 0.0
C3184 C 0.17019 0.51914 0.01587 0.0
H3185 H 0.13778 0.48635 0.99497 0.0
H3186 H 0.13828 0.5168 0.01448 0.0
S3187 S 0.22055 0.50108 0.00344 0.0
N3188 N 0.20555 0.48489 0.99298 0.0
N3189 N 0.20609 0.51744 0.01437 0.0
C3190 C 0.18793 0.51007 0.00983 0.0
C3191 C 0.18764 0.49246 0.9981 0.0
C3192 C 0.26223 0.93627 0.24852 0.0
C3193 C 0.27137 0.91833 0.24322 0.0
C3194 C 0.24492 0.93659 0.26002 0.0
C3195 C 0.2358 0.91897 0.26632 0.0
H3196 H 0.26862 0.95023 0.24397 0.0
H3197 H 0.23847 0.95078 0.26372 0.0
S3198 S 0.25367 0.86805 0.25631 0.0
N3199 N 0.27003 0.88246 0.2453 0.0
N3200 N 0.23726 0.88305 0.26643 0.0
C3201 C 0.2447 0.90092 0.26102 0.0
C3202 C 0.26254 0.9006 0.24962 0.0
C3203 C 0.81932 0.0108 0.49689 0.0
C3204 C 0.8371 0.02005 0.49128 0.0
C3205 C 0.81933 0.99343 0.50825 0.0
C3206 C 0.83713 0.98436 0.51409 0.0
H3207 H 0.80522 0.01716 0.49271 0.0
H3208 H 0.80525 0.98692 0.51225 0.0
S3209 S 0.88776 0.00247 0.50303 0.0
N3210 N 0.87303 0.01884 0.49248 0.0
N3211 N 0.87305 0.98593 0.51337 0.0
C3212 C 0.85503 0.99333 0.50843 0.0
C3213 C 0.85502 0.01125 0.49717 0.0
C3214 C 0.74333 0.56973 0.74865 0.0
C3215 C 0.73416 0.58754 0.743 0.0
C3216 C 0.76074 0.56965 0.76 0.0
C3217 C 0.76996 0.5874 0.76581 0.0
H3218 H 0.73688 0.55567 0.74446 0.0
H3219 H 0.76719 0.55554 0.76398 0.0
S3220 S 0.75207 0.63809 0.75476 0.0
N3221 N 0.73558 0.62345 0.74424 0.0
N3222 N 0.76855 0.62331 0.76508 0.0
C3223 C 0.76103 0.60533 0.76016 0.0
C3224 C 0.74308 0.6054 0.74892 0.0
C3225 C 0.49704 0.65206 0.49323 0.0
C3226 C 0.49102 0.66988 0.48431 0.0
C3227 C 0.50812 0.65201 0.51088 0.0
C3228 C 0.51402 0.66978 0.52001 0.0
H3229 H 0.493 0.63801 0.48666 0.0
H3230 H 0.51226 0.63793 0.51729 0.0
S3231 S 0.50234 0.72047 0.50245 0.0
N3232 N 0.49184 0.70579 0.48601 0.0
N3233 N 0.51295 0.7057 0.51873 0.0
C3234 C 0.50825 0.68769 0.51112 0.0
C3235 C 0.49667 0.68774 0.49341 0.0
C3236 C 0.99496 0.35266 0.01107 0.0
C3237 C 0.98895 0.33493 0.02019 0.0
C3238 C 0.00608 0.35252 0.99347 0.0
C3239 C 0.01204 0.33465 0.98458 0.0
H3240 H 0.99092 0.36677 0.01749 0.0
H3241 H 0.01027 0.36653 0.98694 0.0
S3242 S 1.00033 0.28415 0.00264 0.0
N3243 N 0.98977 0.299 0.01889 0.0
N3244 N 0.01097 0.29875 0.98622 0.0
C3245 C 0.00623 0.31683 0.99362 0.0
C3246 C 0.9946 0.31697 0.01129 0.0
C3247 C 0.40254 0.75912 0.24499 0.0
C3248 C 0.42013 0.76276 0.23448 0.0
C3249 C 0.40258 0.7478 0.26245 0.0
C3250 C 0.42012 0.73929 0.26981 0.0
H3251 H 0.3887 0.76536 0.23988 0.0
H3252 H 0.38872 0.7457 0.27021 0.0
S3253 S 0.46993 0.74339 0.24693 0.0
N3254 N 0.45542 0.75645 0.23227 0.0
N3255 N 0.45548 0.73483 0.26465 0.0
C3256 C 0.43773 0.74245 0.25911 0.0
C3257 C 0.43774 0.75429 0.24158 0.0
C3258 C 0.99651 0.18509 0.49424 0.0
C3259 C 0.99047 0.16729 0.48528 0.0
C3260 C 0.0079 0.18512 0.51162 0.0
C3261 C 0.01335 0.16736 0.52101 0.0
H3262 H 0.99267 0.19916 0.48762 0.0
H3263 H 0.01222 0.19922 0.5179 0.0
S3264 S 1.00102 0.11671 0.50377 0.0
N3265 N 0.99082 0.13139 0.48713 0.0
N3266 N 0.01175 0.13145 0.52004 0.0
C3267 C 0.00725 0.14945 0.51232 0.0
C3268 C 0.99596 0.14941 0.4944 0.0
C3269 C 0.06933 0.24561 0.74317 0.0
C3270 C 0.08717 0.23995 0.73403 0.0
C3271 C 0.06922 0.25705 0.76054 0.0
C3272 C 0.08695 0.26291 0.76975 0.0
H3273 H 0.05528 0.24146 0.73667 0.0
H3274 H 0.0551 0.26111 0.76692 0.0
S3275 S 0.1377 0.25161 0.75207 0.0
N3276 N 0.12308 0.24107 0.73557 0.0
N3277 N 0.12289 0.26204 0.76846 0.0
C3278 C 0.10491 0.25715 0.76092 0.0
C3279 C 0.10502 0.24583 0.743 0.0
C3280 C 0.49468 0.35279 0.51024 0.0
C3281 C 0.48864 0.33494 0.5191 0.0
C3282 C 0.50589 0.3529 0.49269 0.0
C3283 C 0.5119 0.33514 0.48362 0.0
H3284 H 0.49059 0.36682 0.51682 0.0
H3285 H 0.51011 0.36699 0.48636 0.0
S3286 S 0.50007 0.28439 0.50093 0.0
N3287 N 0.48944 0.29903 0.51733 0.0
N3288 N 0.5108 0.29922 0.48478 0.0
C3289 C 0.50603 0.3172 0.49239 0.0
C3290 C 0.49432 0.3171 0.51 0.0
C3291 C 0.60219 0.75744 0.76178 0.0
C3292 C 0.58445 0.76332 0.77096 0.0
C3293 C 0.60207 0.7465 0.74407 0.0
C3294 C 0.5842 0.7406 0.73515 0.0
H3295 H 0.61631 0.76152 0.76818 0.0
H3296 H 0.61609 0.74246 0.73745 0.0
S3297 S 0.53366 0.75188 0.75346 0.0
N3298 N 0.54851 0.76235 0.76978 0.0
N3299 N 0.54828 0.74146 0.7369 0.0
C3300 C 0.56636 0.7462 0.74431 0.0
C3301 C 0.56649 0.75766 0.76209 0.0
C3302 C 0.49352 0.49646 0.65153 0.0
C3303 C 0.48442 0.49057 0.66932 0.0
C3304 C 0.51125 0.50736 0.65158 0.0
C3305 C 0.52029 0.51323 0.66941 0.0
H3306 H 0.48702 0.49242 0.63745 0.0
H3307 H 0.51778 0.51143 0.63752 0.0
S3308 S 0.50227 0.50187 0.72002 0.0
N3309 N 0.48584 0.49145 0.70525 0.0
N3310 N 0.51875 0.5123 0.70533 0.0
C3311 C 0.51123 0.5076 0.68728 0.0
C3312 C 0.49342 0.49617 0.68723 0.0
C3313 C 0.49411 0.99695 0.18562 0.0
C3314 C 0.4848 0.99097 0.16798 0.0
C3315 C 0.51138 0.00852 0.18535 0.0
C3316 C 0.5203 0.01422 0.16741 0.0
H3317 H 0.48785 0.99291 0.19981 0.0
H3318 H 0.51795 0.01278 0.19933 0.0
S3319 S 0.502 1.0022 0.11705 0.0
N3320 N 0.48582 0.99169 0.13203 0.0
N3321 N 0.5185 0.01295 0.13151 0.0
C3322 C 0.51125 0.0082 0.14965 0.0
C3323 C 0.49346 0.99672 0.14993 0.0
C3324 C 0.49443 0.50809 0.35173 0.0
C3325 C 0.48535 0.51425 0.33402 0.0
C3326 C 0.51182 0.49666 0.35152 0.0
C3327 C 0.52051 0.49053 0.3336 0.0
H3328 H 0.48819 0.51234 0.36587 0.0
H3329 H 0.51839 0.49244 0.36551 0.0
S3330 S 0.50233 0.50237 0.28315 0.0
N3331 N 0.48637 0.51325 0.29807 0.0
N3332 N 0.51864 0.49149 0.29769 0.0
C3333 C 0.51144 0.49641 0.31581 0.0
C3334 C 0.49399 0.50834 0.31602 0.0
C3335 C 0.51231 0.99844 0.81872 0.0
C3336 C 0.52017 0.99036 0.83619 0.0
C3337 C 0.49492 0.0098 0.81899 0.0
C3338 C 0.48443 0.01314 0.83669 0.0
H3339 H 0.51983 0.99625 0.80473 0.0
H3340 H 0.48954 0.01579 0.80514 0.0
S3341 S 0.49844 0.9944 0.88639 0.0
N3342 N 0.51607 0.98616 0.87163 0.0
N3343 N 0.48311 0.00699 0.87214 0.0
C3344 C 0.49202 0.00487 0.85424 0.0
C3345 C 0.50996 0.99363 0.854 0.0
C3346 C 0.68634 0.99478 0.99473 0.0
C3347 C 0.66872 0.98568 0.98839 0.0
C3348 C 0.686 0.01202 0.00631 0.0
C3349 C 0.66805 0.02113 0.01164 0.0
H3350 H 0.70053 0.98834 0.99102 0.0
H3351 H 0.69997 0.0184 0.01091 0.0
S3352 S 0.61777 0.00349 0.9984 0.0
N3353 N 0.63279 0.98713 0.98823 0.0
N3354 N 0.63217 0.0198 0.00951 0.0
C3355 C 0.65032 0.01234 0.00518 0.0
C3356 C 0.65065 0.99455 0.9937 0.0
C3357 C 0.74435 0.43503 0.25906 0.0
C3358 C 0.73532 0.41724 0.26497 0.0
C3359 C 0.76163 0.43505 0.24753 0.0
C3360 C 0.77086 0.41729 0.24179 0.0
H3361 H 0.73784 0.44911 0.26309 0.0
H3362 H 0.76794 0.44915 0.24329 0.0
S3363 S 0.75342 0.36664 0.25375 0.0
N3364 N 0.73695 0.38133 0.26424 0.0
N3365 N 0.7697 0.38138 0.24305 0.0
C3366 C 0.76213 0.39938 0.24781 0.0
C3367 C 0.7443 0.39935 0.25924 0.0
C3368 C 0.31901 0.49417 0.50674 0.0
C3369 C 0.33675 0.485 0.51261 0.0
C3370 C 0.3191 0.51149 0.49528 0.0
C3371 C 0.33694 0.52059 0.48958 0.0
H3372 H 0.30489 0.4878 0.51082 0.0
H3373 H 0.30504 0.51794 0.49113 0.0
S3374 S 0.38748 0.50267 0.5013 0.0
N3375 N 0.37268 0.4863 0.51177 0.0
N3376 N 0.37285 0.5191 0.4907 0.0
C3377 C 0.3548 0.51167 0.49547 0.0
C3378 C 0.35471 0.49381 0.50683 0.0
C3379 C 0.24473 0.06892 0.7439 0.0
C3380 C 0.23572 0.0867 0.73791 0.0
C3381 C 0.26193 0.06893 0.75553 0.0
C3382 C 0.27109 0.08671 0.76132 0.0
H3383 H 0.23825 0.05483 0.73986 0.0
H3384 H 0.26821 0.05484 0.75985 0.0
S3385 S 0.25372 0.13732 0.74915 0.0
N3386 N 0.23733 0.12261 0.73857 0.0
N3387 N 0.26993 0.12262 0.75999 0.0
C3388 C 0.26241 0.10461 0.75521 0.0
C3389 C 0.24466 0.1046 0.74365 0.0
C3390 C 0.90306 0.24825 0.26239 0.0
C3391 C 0.92072 0.24162 0.27123 0.0
C3392 C 0.90333 0.25949 0.24487 0.0
C3393 C 0.92127 0.26496 0.23583 0.0
H3394 H 0.88891 0.24453 0.26891 0.0
H3395 H 0.88937 0.26411 0.2385 0.0
S3396 S 0.97163 0.2516 0.25319 0.0
N3397 N 0.95665 0.24138 0.26954 0.0
N3398 N 0.95715 0.26282 0.23705 0.0
C3399 C 0.93902 0.25859 0.24464 0.0
C3400 C 0.93874 0.24683 0.26221 0.0
C3401 C 0.68461 0.51075 0.50662 0.0
C3402 C 0.66686 0.52002 0.51232 0.0
C3403 C 0.68455 0.49345 0.49513 0.0
C3404 C 0.66672 0.48446 0.48924 0.0
H3405 H 0.69873 0.51703 0.51087 0.0
H3406 H 0.69861 0.48689 0.49114 0.0
S3407 S 0.61615 0.50272 0.50033 0.0
N3408 N 0.63093 0.51897 0.51102 0.0
N3409 N 0.6308 0.48619 0.48989 0.0
C3410 C 0.64885 0.4935 0.49491 0.0
C3411 C 0.64892 0.51134 0.5063 0.0
C3412 C 0.74378 0.93427 0.75665 0.0
C3413 C 0.73448 0.91652 0.76227 0.0
C3414 C 0.76115 0.93422 0.74524 0.0
C3415 C 0.77018 0.91641 0.73934 0.0
H3416 H 0.73748 0.94837 0.7609 0.0
H3417 H 0.76773 0.94828 0.7413 0.0
S3418 S 0.75187 0.86584 0.75028 0.0
N3419 N 0.73556 0.8806 0.76091 0.0
N3420 N 0.76844 0.88051 0.73994 0.0
C3421 C 0.76111 0.89854 0.74495 0.0
C3422 C 0.7432 0.89859 0.75626 0.0
C3423 C 0.31943 0.99296 0.00846 0.0
C3424 C 0.33734 0.98399 0.01412 0.0
C3425 C 0.31919 0.01023 0.99693 0.0
C3426 C 0.33686 0.0195 0.99098 0.0
H3427 H 0.30543 0.98642 0.0127 0.0
H3428 H 0.30502 0.01651 0.99288 0.0
S3429 S 0.38774 1.00219 1.00218 0.0
N3430 N 0.37324 0.9857 0.01288 0.0
N3431 N 0.3728 0.01843 0.99171 0.0
C3432 C 0.35489 0.01082 0.99672 0.0
C3433 C 0.35513 0.993 0.00814 0.0
C3434 C 0.24359 0.6033 0.24619 0.0
C3435 C 0.23464 0.58556 0.23994 0.0
C3436 C 0.26099 0.60321 0.25762 0.0
C3437 C 0.26984 0.58535 0.26367 0.0
H3438 H 0.23719 0.6174 0.24209 0.0
H3439 H 0.2674 0.61723 0.26199 0.0
S3440 S 0.25219 0.53481 0.25139 0.0
N3441 N 0.23607 0.54963 0.24061 0.0
N3442 N 0.26835 0.54944 0.26239 0.0
C3443 C 0.26097 0.56752 0.2576 0.0
C3444 C 0.24351 0.56762 0.24566 0.0
C3445 C 0.93615 0.74559 0.76062 0.0
C3446 C 0.91843 0.73972 0.76985 0.0
C3447 C 0.936 0.7569 0.7432 0.0
C3448 C 0.91814 0.76243 0.73405 0.0
H3449 H 0.95029 0.74165 0.76704 0.0
H3450 H 0.95004 0.7611 0.73671 0.0
S3451 S 0.86765 0.75063 0.75207 0.0
N3452 N 0.8825 0.74037 0.76853 0.0
N3453 N 0.88223 0.76115 0.73554 0.0
C3454 C 0.90031 0.75652 0.74301 0.0
C3455 C 0.90045 0.74532 0.76097 0.0
loop_
_geom_bond_atom_site_label_1
_geom_bond_atom_site_label_2
_geom_bond_distance
_geom_bond_site_symmetry_2
_ccdc_geom_bond_type
Co0 O1 2.216 . S
Co0 O2 2.091 . S
Co0 O4 2.004 . S
Co0 O10 2.021 . S
Co0 O12 2.137 . S
Co0 O13 2.244 . S
O1 Co0 2.216 . S
O1 C8 1.247 . S
O2 Co0 2.091 . S
O2 C8 1.261 . S
C3 O12 1.247 . S
C3 O13 1.272 . S
O4 Co0 2.004 . S
O4 C9 1.259 . S
Co5 O6 2.061 . S
Co5 O11 2.052 . S
Co5 O13 2.135 . S
O6 Co5 2.061 . S
O6 C9 1.235 . S
C7 O10 1.238 . S
C7 O11 1.241 . S
C8 O1 1.247 . S
C8 O2 1.261 . S
C9 O4 1.259 . S
C9 O6 1.235 . S
O10 Co0 2.021 . S
O10 C7 1.238 . S
O11 Co5 2.052 . S
O11 C7 1.241 . S
O12 Co0 2.137 . S
O12 C3 1.247 . S
O13 Co0 2.244 . S
O13 C3 1.272 . S
O13 Co5 2.135 . S
Co14 O15 2.216 . S
Co14 O16 2.091 . S
Co14 O18 2.004 . S
Co14 O24 2.021 . S
Co14 O26 2.137 . S
Co14 O27 2.244 . S
O15 Co14 2.216 . S
O15 C22 1.247 . S
O16 Co14 2.091 . S
O16 C22 1.261 . S
C17 O26 1.247 . S
C17 O27 1.272 . S
O18 Co14 2.004 . S
O18 C23 1.259 . S
Co19 O20 2.061 . S
Co19 O25 2.052 . S
Co19 O27 2.135 . S
O20 Co19 2.061 . S
O20 C23 1.235 . S
C21 O24 1.238 . S
C21 O25 1.241 . S
C22 O15 1.247 . S
C22 O16 1.261 . S
C23 O18 1.259 . S
C23 O20 1.235 . S
O24 Co14 2.021 . S
O24 C21 1.238 . S
O25 Co19 2.052 . S
O25 C21 1.241 . S
O26 Co14 2.137 . S
O26 C17 1.247 . S
O27 Co14 2.244 . S
O27 C17 1.272 . S
O27 Co19 2.135 . S
Co28 O29 2.216 . S
Co28 O30 2.091 1_565 S
Co28 O32 2.004 . S
Co28 O38 2.021 . S
Co28 O40 2.137 . S
Co28 O41 2.244 . S
O29 Co28 2.216 . S
O29 C36 1.247 . S
O30 Co28 2.091 1_545 S
O30 C36 1.261 1_545 S
C31 O40 1.247 . S
C31 O41 1.272 . S
O32 Co28 2.004 . S
O32 C37 1.259 . S
Co33 O34 2.061 . S
Co33 O39 2.052 . S
Co33 O41 2.135 . S
O34 Co33 2.061 . S
O34 C37 1.235 . S
C35 O38 1.238 . S
C35 O39 1.241 . S
C36 O29 1.247 . S
C36 O30 1.261 1_565 S
C37 O32 1.259 . S
C37 O34 1.235 . S
O38 Co28 2.021 . S
O38 C35 1.238 . S
O39 Co33 2.052 . S
O39 C35 1.241 . S
O40 Co28 2.137 . S
O40 C31 1.247 . S
O41 Co28 2.244 . S
O41 C31 1.272 . S
O41 Co33 2.135 . S
Co42 O43 2.216 . S
Co42 O44 2.091 . S
Co42 O46 2.004 . S
Co42 O52 2.021 . S
Co42 O54 2.137 . S
Co42 O55 2.244 . S
O43 Co42 2.216 . S
O43 C50 1.247 . S
O44 Co42 2.091 . S
O44 C50 1.261 . S
C45 O54 1.247 . S
C45 O55 1.272 . S
O46 Co42 2.004 . S
O46 C51 1.259 . S
Co47 O48 2.061 . S
Co47 O53 2.052 . S
Co47 O55 2.135 . S
O48 Co47 2.061 . S
O48 C51 1.235 . S
C49 O52 1.238 . S
C49 O53 1.241 . S
C50 O43 1.247 . S
C50 O44 1.261 . S
C51 O46 1.259 . S
C51 O48 1.235 . S
O52 Co42 2.021 . S
O52 C49 1.238 . S
O53 Co47 2.052 . S
O53 C49 1.241 . S
O54 Co42 2.137 . S
O54 C45 1.247 . S
O55 Co42 2.244 . S
O55 C45 1.272 . S
O55 Co47 2.135 . S
Co56 O57 2.216 . S
Co56 O58 2.091 . S
Co56 O60 2.004 . S
Co56 O66 2.021 . S
Co56 O68 2.137 . S
Co56 O69 2.244 . S
O57 Co56 2.216 . S
O57 C64 1.247 . S
O58 Co56 2.091 . S
O58 C64 1.261 . S
C59 O68 1.247 . S
C59 O69 1.272 . S
O60 Co56 2.004 . S
O60 C65 1.259 . S
Co61 O62 2.061 . S
Co61 O67 2.052 . S
Co61 O69 2.135 . S
O62 Co61 2.061 . S
O62 C65 1.235 . S
C63 O66 1.238 . S
C63 O67 1.241 . S
C64 O57 1.247 . S
C64 O58 1.261 . S
C65 O60 1.259 . S
C65 O62 1.235 . S
O66 Co56 2.021 . S
O66 C63 1.238 . S
O67 Co61 2.052 . S
O67 C63 1.241 . S
O68 Co56 2.137 . S
O68 C59 1.247 . S
O69 Co56 2.244 . S
O69 C59 1.272 . S
O69 Co61 2.135 . S
Co70 O71 2.216 . S
Co70 O72 2.091 . S
Co70 O74 2.004 . S
Co70 O80 2.021 . S
Co70 O82 2.137 . S
Co70 O83 2.244 . S
O71 Co70 2.216 . S
O71 C78 1.247 . S
O72 Co70 2.091 . S
O72 C78 1.261 . S
C73 O82 1.247 . S
C73 O83 1.272 . S
O74 Co70 2.004 . S
O74 C79 1.259 . S
Co75 O76 2.061 . S
Co75 O81 2.052 . S
Co75 O83 2.135 . S
O76 Co75 2.061 . S
O76 C79 1.235 . S
C77 O80 1.238 . S
C77 O81 1.241 . S
C78 O71 1.247 . S
C78 O72 1.261 . S
C79 O74 1.259 . S
C79 O76 1.235 . S
O80 Co70 2.021 . S
O80 C77 1.238 . S
O81 Co75 2.052 . S
O81 C77 1.241 . S
O82 Co70 2.137 . S
O82 C73 1.247 . S
O83 Co70 2.244 . S
O83 C73 1.272 . S
O83 Co75 2.135 . S
Co84 O85 2.216 . S
Co84 O86 2.091 1_545 S
Co84 O88 2.004 . S
Co84 O94 2.021 . S
Co84 O96 2.137 . S
Co84 O97 2.244 . S
O85 Co84 2.216 . S
O85 C92 1.247 . S
O86 Co84 2.091 1_565 S
O86 C92 1.261 1_565 S
C87 O96 1.247 . S
C87 O97 1.272 . S
O88 Co84 2.004 . S
O88 C93 1.259 . S
Co89 O90 2.061 . S
Co89 O95 2.052 . S
Co89 O97 2.135 . S
O90 Co89 2.061 . S
O90 C93 1.235 . S
C91 O94 1.238 . S
C91 O95 1.241 . S
C92 O85 1.247 . S
C92 O86 1.261 1_545 S
C93 O88 1.259 . S
C93 O90 1.235 . S
O94 Co84 2.021 . S
O94 C91 1.238 . S
O95 Co89 2.052 . S
O95 C91 1.241 . S
O96 Co84 2.137 . S
O96 C87 1.247 . S
O97 Co84 2.244 . S
O97 C87 1.272 . S
O97 Co89 2.135 . S
Co98 O99 2.216 . S
Co98 O100 2.091 . S
Co98 O102 2.004 . S
Co98 O108 2.021 . S
Co98 O110 2.137 . S
Co98 O111 2.244 . S
O99 Co98 2.216 . S
O99 C106 1.247 . S
O100 Co98 2.091 . S
O100 C106 1.261 . S
C101 O110 1.247 . S
C101 O111 1.272 . S
O102 Co98 2.004 . S
O102 C107 1.259 . S
Co103 O104 2.061 . S
Co103 O109 2.052 . S
Co103 O111 2.135 . S
O104 Co103 2.061 . S
O104 C107 1.235 . S
C105 O108 1.238 . S
C105 O109 1.241 . S
C106 O99 1.247 . S
C106 O100 1.261 . S
C107 O102 1.259 . S
C107 O104 1.235 . S
O108 Co98 2.021 . S
O108 C105 1.238 . S
O109 Co103 2.052 . S
O109 C105 1.241 . S
O110 Co98 2.137 . S
O110 C101 1.247 . S
O111 Co98 2.244 . S
O111 C101 1.272 . S
O111 Co103 2.135 . S
Co112 O113 2.216 . S
Co112 O114 2.091 . S
Co112 O116 2.004 . S
Co112 O122 2.021 . S
Co112 O124 2.137 . S
Co112 O125 2.244 . S
O113 Co112 2.216 . S
O113 C120 1.247 . S
O114 Co112 2.091 . S
O114 C120 1.261 . S
C115 O124 1.247 . S
C115 O125 1.272 . S
O116 Co112 2.004 . S
O116 C121 1.259 . S
Co117 O118 2.061 . S
Co117 O123 2.052 . S
Co117 O125 2.135 . S
O118 Co117 2.061 . S
O118 C121 1.235 . S
C119 O122 1.238 . S
C119 O123 1.241 . S
C120 O113 1.247 . S
C120 O114 1.261 . S
C121 O116 1.259 . S
C121 O118 1.235 . S
O122 Co112 2.021 . S
O122 C119 1.238 . S
O123 Co117 2.052 . S
O123 C119 1.241 . S
O124 Co112 2.137 . S
O124 C115 1.247 . S
O125 Co112 2.244 . S
O125 C115 1.272 . S
O125 Co117 2.135 . S
Co126 O127 2.216 . S
Co126 O128 2.091 . S
Co126 O130 2.004 . S
Co126 O136 2.021 . S
Co126 O138 2.137 . S
Co126 O139 2.244 . S
O127 Co126 2.216 . S
O127 C134 1.247 . S
O128 Co126 2.091 . S
O128 C134 1.261 . S
C129 O138 1.247 . S
C129 O139 1.272 . S
O130 Co126 2.004 . S
O130 C135 1.259 . S
Co131 O132 2.061 . S
Co131 O137 2.052 . S
Co131 O139 2.135 . S
O132 Co131 2.061 . S
O132 C135 1.235 . S
C133 O136 1.238 . S
C133 O137 1.241 . S
C134 O127 1.247 . S
C134 O128 1.261 . S
C135 O130 1.259 . S
C135 O132 1.235 . S
O136 Co126 2.021 . S
O136 C133 1.238 . S
O137 Co131 2.052 . S
O137 C133 1.241 . S
O138 Co126 2.137 . S
O138 C129 1.247 . S
O139 Co126 2.244 . S
O139 C129 1.272 . S
O139 Co131 2.135 . S
Co140 O141 2.216 . S
Co140 O142 2.091 1_554 S
Co140 O144 2.004 . S
Co140 O150 2.021 . S
Co140 O152 2.137 . S
Co140 O153 2.244 . S
O141 Co140 2.216 . S
O141 C148 1.247 . S
O142 Co140 2.091 1_556 S
O142 C148 1.261 1_556 S
C143 O152 1.247 . S
C143 O153 1.272 . S
O144 Co140 2.004 . S
O144 C149 1.259 . S
Co145 O146 2.061 . S
Co145 O151 2.052 . S
Co145 O153 2.135 . S
O146 Co145 2.061 . S
O146 C149 1.235 . S
C147 O150 1.238 . S
C147 O151 1.241 . S
C148 O141 1.247 . S
C148 O142 1.261 1_554 S
C149 O144 1.259 . S
C149 O146 1.235 . S
O150 Co140 2.021 . S
O150 C147 1.238 . S
O151 Co145 2.052 . S
O151 C147 1.241 . S
O152 Co140 2.137 . S
O152 C143 1.247 . S
O153 Co140 2.244 . S
O153 C143 1.272 . S
O153 Co145 2.135 . S
Co154 O155 2.216 . S
Co154 O156 2.091 . S
Co154 O158 2.004 . S
Co154 O164 2.021 . S
Co154 O166 2.137 . S
Co154 O167 2.244 . S
O155 Co154 2.216 . S
O155 C162 1.247 . S
O156 Co154 2.091 . S
O156 C162 1.261 . S
C157 O166 1.247 . S
C157 O167 1.272 . S
O158 Co154 2.004 . S
O158 C163 1.259 . S
Co159 O160 2.061 . S
Co159 O165 2.052 . S
Co159 O167 2.135 . S
O160 Co159 2.061 . S
O160 C163 1.235 . S
C161 O164 1.238 . S
C161 O165 1.241 . S
C162 O155 1.247 . S
C162 O156 1.261 . S
C163 O158 1.259 . S
C163 O160 1.235 . S
O164 Co154 2.021 . S
O164 C161 1.238 . S
O165 Co159 2.052 . S
O165 C161 1.241 . S
O166 Co154 2.137 . S
O166 C157 1.247 . S
O167 Co154 2.244 . S
O167 C157 1.272 . S
O167 Co159 2.135 . S
Co168 O169 2.216 . S
Co168 O170 2.091 . S
Co168 O172 2.004 . S
Co168 O178 2.021 . S
Co168 O180 2.137 . S
Co168 O181 2.244 . S
O169 Co168 2.216 . S
O169 C176 1.247 . S
O170 Co168 2.091 . S
O170 C176 1.261 . S
C171 O180 1.247 . S
C171 O181 1.272 . S
O172 Co168 2.004 . S
O172 C177 1.259 . S
Co173 O174 2.061 . S
Co173 O179 2.052 . S
Co173 O181 2.135 . S
O174 Co173 2.061 . S
O174 C177 1.235 . S
C175 O178 1.238 . S
C175 O179 1.241 . S
C176 O169 1.247 . S
C176 O170 1.261 . S
C177 O172 1.259 . S
C177 O174 1.235 . S
O178 Co168 2.021 . S
O178 C175 1.238 . S
O179 Co173 2.052 . S
O179 C175 1.241 . S
O180 Co168 2.137 . S
O180 C171 1.247 . S
O181 Co168 2.244 . S
O181 C171 1.272 . S
O181 Co173 2.135 . S
Co182 O183 2.216 . S
Co182 O184 2.091 . S
Co182 O186 2.004 . S
Co182 O192 2.021 . S
Co182 O194 2.137 . S
Co182 O195 2.244 . S
O183 Co182 2.216 . S
O183 C190 1.247 . S
O184 Co182 2.091 . S
O184 C190 1.261 . S
C185 O194 1.247 . S
C185 O195 1.272 . S
O186 Co182 2.004 . S
O186 C191 1.259 . S
Co187 O188 2.061 . S
Co187 O193 2.052 . S
Co187 O195 2.135 . S
O188 Co187 2.061 . S
O188 C191 1.235 . S
C189 O192 1.238 . S
C189 O193 1.241 . S
C190 O183 1.247 . S
C190 O184 1.261 . S
C191 O186 1.259 . S
C191 O188 1.235 . S
O192 Co182 2.021 . S
O192 C189 1.238 . S
O193 Co187 2.052 . S
O193 C189 1.241 . S
O194 Co182 2.137 . S
O194 C185 1.247 . S
O195 Co182 2.244 . S
O195 C185 1.272 . S
O195 Co187 2.135 . S
Co196 O197 2.216 . S
Co196 O198 2.091 1_556 S
Co196 O200 2.004 . S
Co196 O206 2.021 . S
Co196 O208 2.137 . S
Co196 O209 2.244 . S
O197 Co196 2.216 . S
O197 C204 1.247 . S
O198 Co196 2.091 1_554 S
O198 C204 1.261 1_554 S
C199 O208 1.247 . S
C199 O209 1.272 . S
O200 Co196 2.004 . S
O200 C205 1.259 . S
Co201 O202 2.061 . S
Co201 O207 2.052 . S
Co201 O209 2.135 . S
O202 Co201 2.061 . S
O202 C205 1.235 . S
C203 O206 1.238 . S
C203 O207 1.241 . S
C204 O197 1.247 . S
C204 O198 1.261 1_556 S
C205 O200 1.259 . S
C205 O202 1.235 . S
O206 Co196 2.021 . S
O206 C203 1.238 . S
O207 Co201 2.052 . S
O207 C203 1.241 . S
O208 Co196 2.137 . S
O208 C199 1.247 . S
O209 Co196 2.244 . S
O209 C199 1.272 . S
O209 Co201 2.135 . S
Co210 O211 2.216 . S
Co210 O212 2.091 . S
Co210 O214 2.004 . S
Co210 O220 2.021 . S
Co210 O222 2.137 . S
Co210 O223 2.244 . S
O211 Co210 2.216 . S
O211 C218 1.247 . S
O212 Co210 2.091 . S
O212 C218 1.261 . S
C213 O222 1.247 . S
C213 O223 1.272 . S
O214 Co210 2.004 . S
O214 C219 1.259 . S
Co215 O216 2.061 . S
Co215 O221 2.052 . S
Co215 O223 2.135 . S
O216 Co215 2.061 . S
O216 C219 1.235 . S
C217 O220 1.238 . S
C217 O221 1.241 . S
C218 O211 1.247 . S
C218 O212 1.261 . S
C219 O214 1.259 . S
C219 O216 1.235 . S
O220 Co210 2.021 . S
O220 C217 1.238 . S
O221 Co215 2.052 . S
O221 C217 1.241 . S
O222 Co210 2.137 . S
O222 C213 1.247 . S
O223 Co210 2.244 . S
O223 C213 1.272 . S
O223 Co215 2.135 . S
Co224 O225 2.216 . S
Co224 O226 2.091 . S
Co224 O228 2.004 . S
Co224 O234 2.021 . S
Co224 O236 2.137 . S
Co224 O237 2.244 . S
O225 Co224 2.216 . S
O225 C232 1.247 . S
O226 Co224 2.091 . S
O226 C232 1.261 . S
C227 O236 1.247 . S
C227 O237 1.272 . S
O228 Co224 2.004 . S
O228 C233 1.259 . S
Co229 O230 2.061 . S
Co229 O235 2.052 . S
Co229 O237 2.135 . S
O230 Co229 2.061 . S
O230 C233 1.235 . S
C231 O234 1.238 . S
C231 O235 1.241 . S
C232 O225 1.247 . S
C232 O226 1.261 . S
C233 O228 1.259 . S
C233 O230 1.235 . S
O234 Co224 2.021 . S
O234 C231 1.238 . S
O235 Co229 2.052 . S
O235 C231 1.241 . S
O236 Co224 2.137 . S
O236 C227 1.247 . S
O237 Co224 2.244 . S
O237 C227 1.272 . S
O237 Co229 2.135 . S
Co238 O239 2.216 . S
Co238 O240 2.091 1_455 S
Co238 O242 2.004 . S
Co238 O248 2.021 . S
Co238 O250 2.137 . S
Co238 O251 2.244 . S
O239 Co238 2.216 . S
O239 C246 1.247 . S
O240 Co238 2.091 1_655 S
O240 C246 1.261 1_655 S
C241 O250 1.247 . S
C241 O251 1.272 . S
O242 Co238 2.004 . S
O242 C247 1.259 . S
Co243 O244 2.061 . S
Co243 O249 2.052 . S
Co243 O251 2.135 . S
O244 Co243 2.061 . S
O244 C247 1.235 . S
C245 O248 1.238 . S
C245 O249 1.241 . S
C246 O239 1.247 . S
C246 O240 1.261 1_455 S
C247 O242 1.259 . S
C247 O244 1.235 . S
O248 Co238 2.021 . S
O248 C245 1.238 . S
O249 Co243 2.052 . S
O249 C245 1.241 . S
O250 Co238 2.137 . S
O250 C241 1.247 . S
O251 Co238 2.244 . S
O251 C241 1.272 . S
O251 Co243 2.135 . S
Co252 O253 2.216 . S
Co252 O254 2.091 . S
Co252 O256 2.004 . S
Co252 O262 2.021 . S
Co252 O264 2.137 . S
Co252 O265 2.244 . S
O253 Co252 2.216 . S
O253 C260 1.247 . S
O254 Co252 2.091 . S
O254 C260 1.261 . S
C255 O264 1.247 . S
C255 O265 1.272 . S
O256 Co252 2.004 . S
O256 C261 1.259 . S
Co257 O258 2.061 . S
Co257 O263 2.052 . S
Co257 O265 2.135 . S
O258 Co257 2.061 . S
O258 C261 1.235 . S
C259 O262 1.238 . S
C259 O263 1.241 . S
C260 O253 1.247 . S
C260 O254 1.261 . S
C261 O256 1.259 . S
C261 O258 1.235 . S
O262 Co252 2.021 . S
O262 C259 1.238 . S
O263 Co257 2.052 . S
O263 C259 1.241 . S
O264 Co252 2.137 . S
O264 C255 1.247 . S
O265 Co252 2.244 . S
O265 C255 1.272 . S
O265 Co257 2.135 . S
Co266 O267 2.216 . S
Co266 O268 2.091 1_655 S
Co266 O270 2.004 . S
Co266 O276 2.021 . S
Co266 O278 2.137 . S
Co266 O279 2.244 . S
O267 Co266 2.216 . S
O267 C274 1.247 . S
O268 Co266 2.091 1_455 S
O268 C274 1.261 1_455 S
C269 O278 1.247 . S
C269 O279 1.272 . S
O270 Co266 2.004 . S
O270 C275 1.259 . S
Co271 O272 2.061 . S
Co271 O277 2.052 . S
Co271 O279 2.135 . S
O272 Co271 2.061 . S
O272 C275 1.235 . S
C273 O276 1.238 . S
C273 O277 1.241 . S
C274 O267 1.247 . S
C274 O268 1.261 1_655 S
C275 O270 1.259 . S
C275 O272 1.235 . S
O276 Co266 2.021 . S
O276 C273 1.238 . S
O277 Co271 2.052 . S
O277 C273 1.241 . S
O278 Co266 2.137 . S
O278 C269 1.247 . S
O279 Co266 2.244 . S
O279 C269 1.272 . S
O279 Co271 2.135 . S
Co280 O281 2.216 . S
Co280 O282 2.091 . S
Co280 O284 2.004 . S
Co280 O290 2.021 . S
Co280 O292 2.137 . S
Co280 O293 2.244 . S
O281 Co280 2.216 . S
O281 C288 1.247 . S
O282 Co280 2.091 . S
O282 C288 1.261 . S
C283 O292 1.247 . S
C283 O293 1.272 . S
O284 Co280 2.004 . S
O284 C289 1.259 . S
Co285 O286 2.061 . S
Co285 O291 2.052 . S
Co285 O293 2.135 . S
O286 Co285 2.061 . S
O286 C289 1.235 . S
C287 O290 1.238 . S
C287 O291 1.241 . S
C288 O281 1.247 . S
C288 O282 1.261 . S
C289 O284 1.259 . S
C289 O286 1.235 . S
O290 Co280 2.021 . S
O290 C287 1.238 . S
O291 Co285 2.052 . S
O291 C287 1.241 . S
O292 Co280 2.137 . S
O292 C283 1.247 . S
O293 Co280 2.244 . S
O293 C283 1.272 . S
O293 Co285 2.135 . S
Co294 O295 2.216 . S
Co294 O296 2.091 . S
Co294 O298 2.004 . S
Co294 O304 2.021 . S
Co294 O306 2.137 . S
Co294 O307 2.244 . S
O295 Co294 2.216 . S
O295 C302 1.247 . S
O296 Co294 2.091 . S
O296 C302 1.261 . S
C297 O306 1.247 . S
C297 O307 1.272 . S
O298 Co294 2.004 . S
O298 C303 1.259 . S
Co299 O300 2.061 . S
Co299 O305 2.052 . S
Co299 O307 2.135 . S
O300 Co299 2.061 . S
O300 C303 1.235 . S
C301 O304 1.238 . S
C301 O305 1.241 . S
C302 O295 1.247 . S
C302 O296 1.261 . S
C303 O298 1.259 . S
C303 O300 1.235 . S
O304 Co294 2.021 . S
O304 C301 1.238 . S
O305 Co299 2.052 . S
O305 C301 1.241 . S
O306 Co294 2.137 . S
O306 C297 1.247 . S
O307 Co294 2.244 . S
O307 C297 1.272 . S
O307 Co299 2.135 . S
Co308 O309 2.216 . S
Co308 O310 2.091 . S
Co308 O312 2.004 . S
Co308 O318 2.021 . S
Co308 O320 2.137 . S
Co308 O321 2.244 . S
O309 Co308 2.216 . S
O309 C316 1.247 . S
O310 Co308 2.091 . S
O310 C316 1.261 . S
C311 O320 1.247 . S
C311 O321 1.272 . S
O312 Co308 2.004 . S
O312 C317 1.259 . S
Co313 O314 2.061 . S
Co313 O319 2.052 . S
Co313 O321 2.135 . S
O314 Co313 2.061 . S
O314 C317 1.235 . S
C315 O318 1.238 . S
C315 O319 1.241 . S
C316 O309 1.247 . S
C316 O310 1.261 . S
C317 O312 1.259 . S
C317 O314 1.235 . S
O318 Co308 2.021 . S
O318 C315 1.238 . S
O319 Co313 2.052 . S
O319 C315 1.241 . S
O320 Co308 2.137 . S
O320 C311 1.247 . S
O321 Co308 2.244 . S
O321 C311 1.272 . S
O321 Co313 2.135 . S
Co322 O323 2.216 . S
Co322 O324 2.091 . S
Co322 O326 2.004 . S
Co322 O332 2.021 . S
Co322 O334 2.137 . S
Co322 O335 2.244 . S
O323 Co322 2.216 . S
O323 C330 1.247 . S
O324 Co322 2.091 . S
O324 C330 1.261 . S
C325 O334 1.247 . S
C325 O335 1.272 . S
O326 Co322 2.004 . S
O326 C331 1.259 . S
Co327 O328 2.061 . S
Co327 O333 2.052 . S
Co327 O335 2.135 . S
O328 Co327 2.061 . S
O328 C331 1.235 . S
C329 O332 1.238 . S
C329 O333 1.241 . S
C330 O323 1.247 . S
C330 O324 1.261 . S
C331 O326 1.259 . S
C331 O328 1.235 . S
O332 Co322 2.021 . S
O332 C329 1.238 . S
O333 Co327 2.052 . S
O333 C329 1.241 . S
O334 Co322 2.137 . S
O334 C325 1.247 . S
O335 Co322 2.244 . S
O335 C325 1.272 . S
O335 Co327 2.135 . S
Co336 O337 2.216 . S
Co336 O338 2.091 1_545 S
Co336 O340 2.004 . S
Co336 O346 2.021 . S
Co336 O348 2.137 . S
Co336 O349 2.244 . S
O337 Co336 2.216 . S
O337 C344 1.247 . S
O338 Co336 2.091 1_565 S
O338 C344 1.261 1_565 S
C339 O348 1.247 . S
C339 O349 1.272 . S
O340 Co336 2.004 . S
O340 C345 1.259 . S
Co341 O342 2.061 . S
Co341 O347 2.052 . S
Co341 O349 2.135 . S
O342 Co341 2.061 . S
O342 C345 1.235 . S
C343 O346 1.238 . S
C343 O347 1.241 . S
C344 O337 1.247 . S
C344 O338 1.261 1_545 S
C345 O340 1.259 . S
C345 O342 1.235 . S
O346 Co336 2.021 . S
O346 C343 1.238 . S
O347 Co341 2.052 . S
O347 C343 1.241 . S
O348 Co336 2.137 . S
O348 C339 1.247 . S
O349 Co336 2.244 . S
O349 C339 1.272 . S
O349 Co341 2.135 . S
Co350 O351 2.216 . S
Co350 O352 2.091 . S
Co350 O354 2.004 . S
Co350 O360 2.021 . S
Co350 O362 2.137 . S
Co350 O363 2.244 . S
O351 Co350 2.216 . S
O351 C358 1.247 . S
O352 Co350 2.091 . S
O352 C358 1.261 . S
C353 O362 1.247 . S
C353 O363 1.272 . S
O354 Co350 2.004 . S
O354 C359 1.259 . S
Co355 O356 2.061 . S
Co355 O361 2.052 . S
Co355 O363 2.135 . S
O356 Co355 2.061 . S
O356 C359 1.235 . S
C357 O360 1.238 . S
C357 O361 1.241 . S
C358 O351 1.247 . S
C358 O352 1.261 . S
C359 O354 1.259 . S
C359 O356 1.235 . S
O360 Co350 2.021 . S
O360 C357 1.238 . S
O361 Co355 2.052 . S
O361 C357 1.241 . S
O362 Co350 2.137 . S
O362 C353 1.247 . S
O363 Co350 2.244 . S
O363 C353 1.272 . S
O363 Co355 2.135 . S
Co364 O365 2.216 . S
Co364 O366 2.091 . S
Co364 O368 2.004 . S
Co364 O374 2.021 . S
Co364 O376 2.137 . S
Co364 O377 2.244 . S
O365 Co364 2.216 . S
O365 C372 1.247 . S
O366 Co364 2.091 . S
O366 C372 1.261 . S
C367 O376 1.247 . S
C367 O377 1.272 . S
O368 Co364 2.004 . S
O368 C373 1.259 . S
Co369 O370 2.061 . S
Co369 O375 2.052 . S
Co369 O377 2.135 . S
O370 Co369 2.061 . S
O370 C373 1.235 . S
C371 O374 1.238 . S
C371 O375 1.241 . S
C372 O365 1.247 . S
C372 O366 1.261 . S
C373 O368 1.259 . S
C373 O370 1.235 . S
O374 Co364 2.021 . S
O374 C371 1.238 . S
O375 Co369 2.052 . S
O375 C371 1.241 . S
O376 Co364 2.137 . S
O376 C367 1.247 . S
O377 Co364 2.244 . S
O377 C367 1.272 . S
O377 Co369 2.135 . S
Co378 O379 2.216 . S
Co378 O380 2.091 . S
Co378 O382 2.004 . S
Co378 O388 2.021 . S
Co378 O390 2.137 . S
Co378 O391 2.244 . S
O379 Co378 2.216 . S
O379 C386 1.247 . S
O380 Co378 2.091 . S
O380 C386 1.261 . S
C381 O390 1.247 . S
C381 O391 1.272 . S
O382 Co378 2.004 . S
O382 C387 1.259 . S
Co383 O384 2.061 . S
Co383 O389 2.052 . S
Co383 O391 2.135 . S
O384 Co383 2.061 . S
O384 C387 1.235 . S
C385 O388 1.238 . S
C385 O389 1.241 . S
C386 O379 1.247 . S
C386 O380 1.261 . S
C387 O382 1.259 . S
C387 O384 1.235 . S
O388 Co378 2.021 . S
O388 C385 1.238 . S
O389 Co383 2.052 . S
O389 C385 1.241 . S
O390 Co378 2.137 . S
O390 C381 1.247 . S
O391 Co378 2.244 . S
O391 C381 1.272 . S
O391 Co383 2.135 . S
Co392 O393 2.216 . S
Co392 O394 2.091 1_565 S
Co392 O396 2.004 . S
Co392 O402 2.021 . S
Co392 O404 2.137 . S
Co392 O405 2.244 . S
O393 Co392 2.216 . S
O393 C400 1.247 . S
O394 Co392 2.091 1_545 S
O394 C400 1.261 1_545 S
C395 O404 1.247 . S
C395 O405 1.272 . S
O396 Co392 2.004 . S
O396 C401 1.259 . S
Co397 O398 2.061 . S
Co397 O403 2.052 . S
Co397 O405 2.135 . S
O398 Co397 2.061 . S
O398 C401 1.235 . S
C399 O402 1.238 . S
C399 O403 1.241 . S
C400 O393 1.247 . S
C400 O394 1.261 1_565 S
C401 O396 1.259 . S
C401 O398 1.235 . S
O402 Co392 2.021 . S
O402 C399 1.238 . S
O403 Co397 2.052 . S
O403 C399 1.241 . S
O404 Co392 2.137 . S
O404 C395 1.247 . S
O405 Co392 2.244 . S
O405 C395 1.272 . S
O405 Co397 2.135 . S
Co406 O407 2.216 . S
Co406 O408 2.091 . S
Co406 O410 2.004 . S
Co406 O416 2.021 . S
Co406 O418 2.137 . S
Co406 O419 2.244 . S
O407 Co406 2.216 . S
O407 C414 1.247 . S
O408 Co406 2.091 . S
O408 C414 1.261 . S
C409 O418 1.247 . S
C409 O419 1.272 . S
O410 Co406 2.004 . S
O410 C415 1.259 . S
Co411 O412 2.061 . S
Co411 O417 2.052 . S
Co411 O419 2.135 . S
O412 Co411 2.061 . S
O412 C415 1.235 . S
C413 O416 1.238 . S
C413 O417 1.241 . S
C414 O407 1.247 . S
C414 O408 1.261 . S
C415 O410 1.259 . S
C415 O412 1.235 . S
O416 Co406 2.021 . S
O416 C413 1.238 . S
O417 Co411 2.052 . S
O417 C413 1.241 . S
O418 Co406 2.137 . S
O418 C409 1.247 . S
O419 Co406 2.244 . S
O419 C409 1.272 . S
O419 Co411 2.135 . S
Co420 O421 2.216 . S
Co420 O422 2.091 . S
Co420 O424 2.004 . S
Co420 O430 2.021 . S
Co420 O432 2.137 . S
Co420 O433 2.244 . S
O421 Co420 2.216 . S
O421 C428 1.247 . S
O422 Co420 2.091 . S
O422 C428 1.261 . S
C423 O432 1.247 . S
C423 O433 1.272 . S
O424 Co420 2.004 . S
O424 C429 1.259 . S
Co425 O426 2.061 . S
Co425 O431 2.052 . S
Co425 O433 2.135 . S
O426 Co425 2.061 . S
O426 C429 1.235 . S
C427 O430 1.238 . S
C427 O431 1.241 . S
C428 O421 1.247 . S
C428 O422 1.261 . S
C429 O424 1.259 . S
C429 O426 1.235 . S
O430 Co420 2.021 . S
O430 C427 1.238 . S
O431 Co425 2.052 . S
O431 C427 1.241 . S
O432 Co420 2.137 . S
O432 C423 1.247 . S
O433 Co420 2.244 . S
O433 C423 1.272 . S
O433 Co425 2.135 . S
Co434 O435 2.216 . S
Co434 O436 2.091 . S
Co434 O438 2.004 . S
Co434 O444 2.021 . S
Co434 O446 2.137 . S
Co434 O447 2.244 . S
O435 Co434 2.216 . S
O435 C442 1.247 . S
O436 Co434 2.091 . S
O436 C442 1.261 . S
C437 O446 1.247 . S
C437 O447 1.272 . S
O438 Co434 2.004 . S
O438 C443 1.259 . S
Co439 O440 2.061 . S
Co439 O445 2.052 . S
Co439 O447 2.135 . S
O440 Co439 2.061 . S
O440 C443 1.235 . S
C441 O444 1.238 . S
C441 O445 1.241 . S
C442 O435 1.247 . S
C442 O436 1.261 . S
C443 O438 1.259 . S
C443 O440 1.235 . S
O444 Co434 2.021 . S
O444 C441 1.238 . S
O445 Co439 2.052 . S
O445 C441 1.241 . S
O446 Co434 2.137 . S
O446 C437 1.247 . S
O447 Co434 2.244 . S
O447 C437 1.272 . S
O447 Co439 2.135 . S
Co448 O449 2.216 . S
Co448 O450 2.091 1_554 S
Co448 O452 2.004 . S
Co448 O458 2.021 . S
Co448 O460 2.137 . S
Co448 O461 2.244 . S
O449 Co448 2.216 . S
O449 C456 1.247 . S
O450 Co448 2.091 1_556 S
O450 C456 1.261 1_556 S
C451 O460 1.247 . S
C451 O461 1.272 . S
O452 Co448 2.004 . S
O452 C457 1.259 . S
Co453 O454 2.061 . S
Co453 O459 2.052 . S
Co453 O461 2.135 . S
O454 Co453 2.061 . S
O454 C457 1.235 . S
C455 O458 1.238 . S
C455 O459 1.241 . S
C456 O449 1.247 . S
C456 O450 1.261 1_554 S
C457 O452 1.259 . S
C457 O454 1.235 . S
O458 Co448 2.021 . S
O458 C455 1.238 . S
O459 Co453 2.052 . S
O459 C455 1.241 . S
O460 Co448 2.137 . S
O460 C451 1.247 . S
O461 Co448 2.244 . S
O461 C451 1.272 . S
O461 Co453 2.135 . S
Co462 O463 2.216 . S
Co462 O464 2.091 . S
Co462 O466 2.004 . S
Co462 O472 2.021 . S
Co462 O474 2.137 . S
Co462 O475 2.244 . S
O463 Co462 2.216 . S
O463 C470 1.247 . S
O464 Co462 2.091 . S
O464 C470 1.261 . S
C465 O474 1.247 . S
C465 O475 1.272 . S
O466 Co462 2.004 . S
O466 C471 1.259 . S
Co467 O468 2.061 . S
Co467 O473 2.052 . S
Co467 O475 2.135 . S
O468 Co467 2.061 . S
O468 C471 1.235 . S
C469 O472 1.238 . S
C469 O473 1.241 . S
C470 O463 1.247 . S
C470 O464 1.261 . S
C471 O466 1.259 . S
C471 O468 1.235 . S
O472 Co462 2.021 . S
O472 C469 1.238 . S
O473 Co467 2.052 . S
O473 C469 1.241 . S
O474 Co462 2.137 . S
O474 C465 1.247 . S
O475 Co462 2.244 . S
O475 C465 1.272 . S
O475 Co467 2.135 . S
Co476 O477 2.216 . S
Co476 O478 2.091 . S
Co476 O480 2.004 . S
Co476 O486 2.021 . S
Co476 O488 2.137 . S
Co476 O489 2.244 . S
O477 Co476 2.216 . S
O477 C484 1.247 . S
O478 Co476 2.091 . S
O478 C484 1.261 . S
C479 O488 1.247 . S
C479 O489 1.272 . S
O480 Co476 2.004 . S
O480 C485 1.259 . S
Co481 O482 2.061 . S
Co481 O487 2.052 . S
Co481 O489 2.135 . S
O482 Co481 2.061 . S
O482 C485 1.235 . S
C483 O486 1.238 . S
C483 O487 1.241 . S
C484 O477 1.247 . S
C484 O478 1.261 . S
C485 O480 1.259 . S
C485 O482 1.235 . S
O486 Co476 2.021 . S
O486 C483 1.238 . S
O487 Co481 2.052 . S
O487 C483 1.241 . S
O488 Co476 2.137 . S
O488 C479 1.247 . S
O489 Co476 2.244 . S
O489 C479 1.272 . S
O489 Co481 2.135 . S
Co490 O491 2.216 . S
Co490 O492 2.091 . S
Co490 O494 2.004 . S
Co490 O500 2.021 . S
Co490 O502 2.137 . S
Co490 O503 2.244 . S
O491 Co490 2.216 . S
O491 C498 1.247 . S
O492 Co490 2.091 . S
O492 C498 1.261 . S
C493 O502 1.247 . S
C493 O503 1.272 . S
O494 Co490 2.004 . S
O494 C499 1.259 . S
Co495 O496 2.061 . S
Co495 O501 2.052 . S
Co495 O503 2.135 . S
O496 Co495 2.061 . S
O496 C499 1.235 . S
C497 O500 1.238 . S
C497 O501 1.241 . S
C498 O491 1.247 . S
C498 O492 1.261 . S
C499 O494 1.259 . S
C499 O496 1.235 . S
O500 Co490 2.021 . S
O500 C497 1.238 . S
O501 Co495 2.052 . S
O501 C497 1.241 . S
O502 Co490 2.137 . S
O502 C493 1.247 . S
O503 Co490 2.244 . S
O503 C493 1.272 . S
O503 Co495 2.135 . S
Co504 O505 2.216 . S
Co504 O506 2.091 1_556 S
Co504 O508 2.004 . S
Co504 O514 2.021 . S
Co504 O516 2.137 . S
Co504 O517 2.244 . S
O505 Co504 2.216 . S
O505 C512 1.247 . S
O506 Co504 2.091 1_554 S
O506 C512 1.261 1_554 S
C507 O516 1.247 . S
C507 O517 1.272 . S
O508 Co504 2.004 . S
O508 C513 1.259 . S
Co509 O510 2.061 . S
Co509 O515 2.052 . S
Co509 O517 2.135 . S
O510 Co509 2.061 . S
O510 C513 1.235 . S
C511 O514 1.238 . S
C511 O515 1.241 . S
C512 O505 1.247 . S
C512 O506 1.261 1_556 S
C513 O508 1.259 . S
C513 O510 1.235 . S
O514 Co504 2.021 . S
O514 C511 1.238 . S
O515 Co509 2.052 . S
O515 C511 1.241 . S
O516 Co504 2.137 . S
O516 C507 1.247 . S
O517 Co504 2.244 . S
O517 C507 1.272 . S
O517 Co509 2.135 . S
Co518 O519 2.216 . S
Co518 O520 2.091 . S
Co518 O522 2.004 . S
Co518 O528 2.021 . S
Co518 O530 2.137 . S
Co518 O531 2.244 . S
O519 Co518 2.216 . S
O519 C526 1.247 . S
O520 Co518 2.091 . S
O520 C526 1.261 . S
C521 O530 1.247 . S
C521 O531 1.272 . S
O522 Co518 2.004 . S
O522 C527 1.259 . S
Co523 O524 2.061 . S
Co523 O529 2.052 . S
Co523 O531 2.135 . S
O524 Co523 2.061 . S
O524 C527 1.235 . S
C525 O528 1.238 . S
C525 O529 1.241 . S
C526 O519 1.247 . S
C526 O520 1.261 . S
C527 O522 1.259 . S
C527 O524 1.235 . S
O528 Co518 2.021 . S
O528 C525 1.238 . S
O529 Co523 2.052 . S
O529 C525 1.241 . S
O530 Co518 2.137 . S
O530 C521 1.247 . S
O531 Co518 2.244 . S
O531 C521 1.272 . S
O531 Co523 2.135 . S
Co532 O533 2.216 . S
Co532 O534 2.091 . S
Co532 O536 2.004 . S
Co532 O542 2.021 . S
Co532 O544 2.137 . S
Co532 O545 2.244 . S
O533 Co532 2.216 . S
O533 C540 1.247 . S
O534 Co532 2.091 . S
O534 C540 1.261 . S
C535 O544 1.247 . S
C535 O545 1.272 . S
O536 Co532 2.004 . S
O536 C541 1.259 . S
Co537 O538 2.061 . S
Co537 O543 2.052 . S
Co537 O545 2.135 . S
O538 Co537 2.061 . S
O538 C541 1.235 . S
C539 O542 1.238 . S
C539 O543 1.241 . S
C540 O533 1.247 . S
C540 O534 1.261 . S
C541 O536 1.259 . S
C541 O538 1.235 . S
O542 Co532 2.021 . S
O542 C539 1.238 . S
O543 Co537 2.052 . S
O543 C539 1.241 . S
O544 Co532 2.137 . S
O544 C535 1.247 . S
O545 Co532 2.244 . S
O545 C535 1.272 . S
O545 Co537 2.135 . S
Co546 O547 2.216 . S
Co546 O548 2.091 . S
Co546 O550 2.004 . S
Co546 O556 2.021 . S
Co546 O558 2.137 . S
Co546 O559 2.244 . S
O547 Co546 2.216 . S
O547 C554 1.247 . S
O548 Co546 2.091 . S
O548 C554 1.261 . S
C549 O558 1.247 . S
C549 O559 1.272 . S
O550 Co546 2.004 . S
O550 C555 1.259 . S
Co551 O552 2.061 . S
Co551 O557 2.052 . S
Co551 O559 2.135 . S
O552 Co551 2.061 . S
O552 C555 1.235 . S
C553 O556 1.238 . S
C553 O557 1.241 . S
C554 O547 1.247 . S
C554 O548 1.261 . S
C555 O550 1.259 . S
C555 O552 1.235 . S
O556 Co546 2.021 . S
O556 C553 1.238 . S
O557 Co551 2.052 . S
O557 C553 1.241 . S
O558 Co546 2.137 . S
O558 C549 1.247 . S
O559 Co546 2.244 . S
O559 C549 1.272 . S
O559 Co551 2.135 . S
Co560 O561 2.216 . S
Co560 O562 2.091 . S
Co560 O564 2.004 . S
Co560 O570 2.021 . S
Co560 O572 2.137 . S
Co560 O573 2.244 . S
O561 Co560 2.216 . S
O561 C568 1.247 . S
O562 Co560 2.091 . S
O562 C568 1.261 . S
C563 O572 1.247 . S
C563 O573 1.272 . S
O564 Co560 2.004 . S
O564 C569 1.259 . S
Co565 O566 2.061 . S
Co565 O571 2.052 . S
Co565 O573 2.135 . S
O566 Co565 2.061 . S
O566 C569 1.235 . S
C567 O570 1.238 . S
C567 O571 1.241 . S
C568 O561 1.247 . S
C568 O562 1.261 . S
C569 O564 1.259 . S
C569 O566 1.235 . S
O570 Co560 2.021 . S
O570 C567 1.238 . S
O571 Co565 2.052 . S
O571 C567 1.241 . S
O572 Co560 2.137 . S
O572 C563 1.247 . S
O573 Co560 2.244 . S
O573 C563 1.272 . S
O573 Co565 2.135 . S
Co574 O575 2.216 . S
Co574 O576 2.091 1_455 S
Co574 O578 2.004 . S
Co574 O584 2.021 . S
Co574 O586 2.137 . S
Co574 O587 2.244 . S
O575 Co574 2.216 . S
O575 C582 1.247 . S
O576 Co574 2.091 1_655 S
O576 C582 1.261 1_655 S
C577 O586 1.247 . S
C577 O587 1.272 . S
O578 Co574 2.004 . S
O578 C583 1.259 . S
Co579 O580 2.061 . S
Co579 O585 2.052 . S
Co579 O587 2.135 . S
O580 Co579 2.061 . S
O580 C583 1.235 . S
C581 O584 1.238 . S
C581 O585 1.241 . S
C582 O575 1.247 . S
C582 O576 1.261 1_455 S
C583 O578 1.259 . S
C583 O580 1.235 . S
O584 Co574 2.021 . S
O584 C581 1.238 . S
O585 Co579 2.052 . S
O585 C581 1.241 . S
O586 Co574 2.137 . S
O586 C577 1.247 . S
O587 Co574 2.244 . S
O587 C577 1.272 . S
O587 Co579 2.135 . S
Co588 O589 2.216 . S
Co588 O590 2.091 . S
Co588 O592 2.004 . S
Co588 O598 2.021 . S
Co588 O600 2.137 . S
Co588 O601 2.244 . S
O589 Co588 2.216 . S
O589 C596 1.247 . S
O590 Co588 2.091 . S
O590 C596 1.261 . S
C591 O600 1.247 . S
C591 O601 1.272 . S
O592 Co588 2.004 . S
O592 C597 1.259 . S
Co593 O594 2.061 . S
Co593 O599 2.052 . S
Co593 O601 2.135 . S
O594 Co593 2.061 . S
O594 C597 1.235 . S
C595 O598 1.238 . S
C595 O599 1.241 . S
C596 O589 1.247 . S
C596 O590 1.261 . S
C597 O592 1.259 . S
C597 O594 1.235 . S
O598 Co588 2.021 . S
O598 C595 1.238 . S
O599 Co593 2.052 . S
O599 C595 1.241 . S
O600 Co588 2.137 . S
O600 C591 1.247 . S
O601 Co588 2.244 . S
O601 C591 1.272 . S
O601 Co593 2.135 . S
Co602 O603 2.216 . S
Co602 O604 2.091 1_655 S
Co602 O606 2.004 . S
Co602 O612 2.021 . S
Co602 O614 2.137 . S
Co602 O615 2.244 . S
O603 Co602 2.216 . S
O603 C610 1.247 . S
O604 Co602 2.091 1_455 S
O604 C610 1.261 1_455 S
C605 O614 1.247 . S
C605 O615 1.272 . S
O606 Co602 2.004 . S
O606 C611 1.259 . S
Co607 O608 2.061 . S
Co607 O613 2.052 . S
Co607 O615 2.135 . S
O608 Co607 2.061 . S
O608 C611 1.235 . S
C609 O612 1.238 . S
C609 O613 1.241 . S
C610 O603 1.247 . S
C610 O604 1.261 1_655 S
C611 O606 1.259 . S
C611 O608 1.235 . S
O612 Co602 2.021 . S
O612 C609 1.238 . S
O613 Co607 2.052 . S
O613 C609 1.241 . S
O614 Co602 2.137 . S
O614 C605 1.247 . S
O615 Co602 2.244 . S
O615 C605 1.272 . S
O615 Co607 2.135 . S
Co616 O617 2.216 . S
Co616 O618 2.091 . S
Co616 O620 2.004 . S
Co616 O626 2.021 . S
Co616 O628 2.137 . S
Co616 O629 2.244 . S
O617 Co616 2.216 . S
O617 C624 1.247 . S
O618 Co616 2.091 . S
O618 C624 1.261 . S
C619 O628 1.247 . S
C619 O629 1.272 . S
O620 Co616 2.004 . S
O620 C625 1.259 . S
Co621 O622 2.061 . S
Co621 O627 2.052 . S
Co621 O629 2.135 . S
O622 Co621 2.061 . S
O622 C625 1.235 . S
C623 O626 1.238 . S
C623 O627 1.241 . S
C624 O617 1.247 . S
C624 O618 1.261 . S
C625 O620 1.259 . S
C625 O622 1.235 . S
O626 Co616 2.021 . S
O626 C623 1.238 . S
O627 Co621 2.052 . S
O627 C623 1.241 . S
O628 Co616 2.137 . S
O628 C619 1.247 . S
O629 Co616 2.244 . S
O629 C619 1.272 . S
O629 Co621 2.135 . S
Co630 O631 2.216 . S
Co630 O632 2.091 . S
Co630 O634 2.004 . S
Co630 O640 2.021 . S
Co630 O642 2.137 . S
Co630 O643 2.244 . S
O631 Co630 2.216 . S
O631 C638 1.247 . S
O632 Co630 2.091 . S
O632 C638 1.261 . S
C633 O642 1.247 . S
C633 O643 1.272 . S
O634 Co630 2.004 . S
O634 C639 1.259 . S
Co635 O636 2.061 . S
Co635 O641 2.052 . S
Co635 O643 2.135 . S
O636 Co635 2.061 . S
O636 C639 1.235 . S
C637 O640 1.238 . S
C637 O641 1.241 . S
C638 O631 1.247 . S
C638 O632 1.261 . S
C639 O634 1.259 . S
C639 O636 1.235 . S
O640 Co630 2.021 . S
O640 C637 1.238 . S
O641 Co635 2.052 . S
O641 C637 1.241 . S
O642 Co630 2.137 . S
O642 C633 1.247 . S
O643 Co630 2.244 . S
O643 C633 1.272 . S
O643 Co635 2.135 . S
Co644 O645 2.216 . S
Co644 O646 2.091 . S
Co644 O648 2.004 . S
Co644 O654 2.021 . S
Co644 O656 2.137 . S
Co644 O657 2.244 . S
O645 Co644 2.216 . S
O645 C652 1.247 . S
O646 Co644 2.091 . S
O646 C652 1.261 . S
C647 O656 1.247 . S
C647 O657 1.272 . S
O648 Co644 2.004 . S
O648 C653 1.259 . S
Co649 O650 2.061 . S
Co649 O655 2.052 . S
Co649 O657 2.135 . S
O650 Co649 2.061 . S
O650 C653 1.235 . S
C651 O654 1.238 . S
C651 O655 1.241 . S
C652 O645 1.247 . S
C652 O646 1.261 . S
C653 O648 1.259 . S
C653 O650 1.235 . S
O654 Co644 2.021 . S
O654 C651 1.238 . S
O655 Co649 2.052 . S
O655 C651 1.241 . S
O656 Co644 2.137 . S
O656 C647 1.247 . S
O657 Co644 2.244 . S
O657 C647 1.272 . S
O657 Co649 2.135 . S
Co658 O659 2.216 . S
Co658 O660 2.091 . S
Co658 O662 2.004 . S
Co658 O668 2.021 . S
Co658 O670 2.137 . S
Co658 O671 2.244 . S
O659 Co658 2.216 . S
O659 C666 1.247 . S
O660 Co658 2.091 . S
O660 C666 1.261 . S
C661 O670 1.247 . S
C661 O671 1.272 . S
O662 Co658 2.004 . S
O662 C667 1.259 . S
Co663 O664 2.061 . S
Co663 O669 2.052 . S
Co663 O671 2.135 . S
O664 Co663 2.061 . S
O664 C667 1.235 . S
C665 O668 1.238 . S
C665 O669 1.241 . S
C666 O659 1.247 . S
C666 O660 1.261 . S
C667 O662 1.259 . S
C667 O664 1.235 . S
O668 Co658 2.021 . S
O668 C665 1.238 . S
O669 Co663 2.052 . S
O669 C665 1.241 . S
O670 Co658 2.137 . S
O670 C661 1.247 . S
O671 Co658 2.244 . S
O671 C661 1.272 . S
O671 Co663 2.135 . S
Co672 O673 2.216 . S
Co672 O674 2.091 . S
Co672 O676 2.004 . S
Co672 O682 2.021 . S
Co672 O684 2.137 . S
Co672 O685 2.244 . S
O673 Co672 2.216 . S
O673 C680 1.247 . S
O674 Co672 2.091 . S
O674 C680 1.261 . S
C675 O684 1.247 . S
C675 O685 1.272 . S
O676 Co672 2.004 . S
O676 C681 1.259 . S
Co677 O678 2.061 . S
Co677 O683 2.052 . S
Co677 O685 2.135 . S
O678 Co677 2.061 . S
O678 C681 1.235 . S
C679 O682 1.238 . S
C679 O683 1.241 . S
C680 O673 1.247 . S
C680 O674 1.261 . S
C681 O676 1.259 . S
C681 O678 1.235 . S
O682 Co672 2.021 . S
O682 C679 1.238 . S
O683 Co677 2.052 . S
O683 C679 1.241 . S
O684 Co672 2.137 . S
O684 C675 1.247 . S
O685 Co672 2.244 . S
O685 C675 1.272 . S
O685 Co677 2.135 . S
Co686 O687 2.216 . S
Co686 O688 2.091 . S
Co686 O690 2.004 . S
Co686 O696 2.021 . S
Co686 O698 2.137 . S
Co686 O699 2.244 . S
O687 Co686 2.216 . S
O687 C694 1.247 . S
O688 Co686 2.091 . S
O688 C694 1.261 . S
C689 O698 1.247 . S
C689 O699 1.272 . S
O690 Co686 2.004 . S
O690 C695 1.259 . S
Co691 O692 2.061 . S
Co691 O697 2.052 . S
Co691 O699 2.135 . S
O692 Co691 2.061 . S
O692 C695 1.235 . S
C693 O696 1.238 . S
C693 O697 1.241 . S
C694 O687 1.247 . S
C694 O688 1.261 . S
C695 O690 1.259 . S
C695 O692 1.235 . S
O696 Co686 2.021 . S
O696 C693 1.238 . S
O697 Co691 2.052 . S
O697 C693 1.241 . S
O698 Co686 2.137 . S
O698 C689 1.247 . S
O699 Co686 2.244 . S
O699 C689 1.272 . S
O699 Co691 2.135 . S
Co700 O701 2.216 . S
Co700 O702 2.091 1_565 S
Co700 O704 2.004 . S
Co700 O710 2.021 . S
Co700 O712 2.137 . S
Co700 O713 2.244 . S
O701 Co700 2.216 . S
O701 C708 1.247 . S
O702 Co700 2.091 1_545 S
O702 C708 1.261 1_545 S
C703 O712 1.247 . S
C703 O713 1.272 . S
O704 Co700 2.004 . S
O704 C709 1.259 . S
Co705 O706 2.061 . S
Co705 O711 2.052 . S
Co705 O713 2.135 . S
O706 Co705 2.061 . S
O706 C709 1.235 . S
C707 O710 1.238 . S
C707 O711 1.241 . S
C708 O701 1.247 . S
C708 O702 1.261 1_565 S
C709 O704 1.259 . S
C709 O706 1.235 . S
O710 Co700 2.021 . S
O710 C707 1.238 . S
O711 Co705 2.052 . S
O711 C707 1.241 . S
O712 Co700 2.137 . S
O712 C703 1.247 . S
O713 Co700 2.244 . S
O713 C703 1.272 . S
O713 Co705 2.135 . S
Co714 O715 2.216 . S
Co714 O716 2.091 . S
Co714 O718 2.004 . S
Co714 O724 2.021 . S
Co714 O726 2.137 . S
Co714 O727 2.244 . S
O715 Co714 2.216 . S
O715 C722 1.247 . S
O716 Co714 2.091 . S
O716 C722 1.261 . S
C717 O726 1.247 . S
C717 O727 1.272 . S
O718 Co714 2.004 . S
O718 C723 1.259 . S
Co719 O720 2.061 . S
Co719 O725 2.052 . S
Co719 O727 2.135 . S
O720 Co719 2.061 . S
O720 C723 1.235 . S
C721 O724 1.238 . S
C721 O725 1.241 . S
C722 O715 1.247 . S
C722 O716 1.261 . S
C723 O718 1.259 . S
C723 O720 1.235 . S
O724 Co714 2.021 . S
O724 C721 1.238 . S
O725 Co719 2.052 . S
O725 C721 1.241 . S
O726 Co714 2.137 . S
O726 C717 1.247 . S
O727 Co714 2.244 . S
O727 C717 1.272 . S
O727 Co719 2.135 . S
Co728 O729 2.216 . S
Co728 O730 2.091 . S
Co728 O732 2.004 . S
Co728 O738 2.021 . S
Co728 O740 2.137 . S
Co728 O741 2.244 . S
O729 Co728 2.216 . S
O729 C736 1.247 . S
O730 Co728 2.091 . S
O730 C736 1.261 . S
C731 O740 1.247 . S
C731 O741 1.272 . S
O732 Co728 2.004 . S
O732 C737 1.259 . S
Co733 O734 2.061 . S
Co733 O739 2.052 . S
Co733 O741 2.135 . S
O734 Co733 2.061 . S
O734 C737 1.235 . S
C735 O738 1.238 . S
C735 O739 1.241 . S
C736 O729 1.247 . S
C736 O730 1.261 . S
C737 O732 1.259 . S
C737 O734 1.235 . S
O738 Co728 2.021 . S
O738 C735 1.238 . S
O739 Co733 2.052 . S
O739 C735 1.241 . S
O740 Co728 2.137 . S
O740 C731 1.247 . S
O741 Co728 2.244 . S
O741 C731 1.272 . S
O741 Co733 2.135 . S
Co742 O743 2.216 . S
Co742 O744 2.091 . S
Co742 O746 2.004 . S
Co742 O752 2.021 . S
Co742 O754 2.137 . S
Co742 O755 2.244 . S
O743 Co742 2.216 . S
O743 C750 1.247 . S
O744 Co742 2.091 . S
O744 C750 1.261 . S
C745 O754 1.247 . S
C745 O755 1.272 . S
O746 Co742 2.004 . S
O746 C751 1.259 . S
Co747 O748 2.061 . S
Co747 O753 2.052 . S
Co747 O755 2.135 . S
O748 Co747 2.061 . S
O748 C751 1.235 . S
C749 O752 1.238 . S
C749 O753 1.241 . S
C750 O743 1.247 . S
C750 O744 1.261 . S
C751 O746 1.259 . S
C751 O748 1.235 . S
O752 Co742 2.021 . S
O752 C749 1.238 . S
O753 Co747 2.052 . S
O753 C749 1.241 . S
O754 Co742 2.137 . S
O754 C745 1.247 . S
O755 Co742 2.244 . S
O755 C745 1.272 . S
O755 Co747 2.135 . S
Co756 O757 2.216 . S
Co756 O758 2.091 1_545 S
Co756 O760 2.004 . S
Co756 O766 2.021 . S
Co756 O768 2.137 . S
Co756 O769 2.244 . S
O757 Co756 2.216 . S
O757 C764 1.247 . S
O758 Co756 2.091 1_565 S
O758 C764 1.261 1_565 S
C759 O768 1.247 . S
C759 O769 1.272 . S
O760 Co756 2.004 . S
O760 C765 1.259 . S
Co761 O762 2.061 . S
Co761 O767 2.052 . S
Co761 O769 2.135 . S
O762 Co761 2.061 . S
O762 C765 1.235 . S
C763 O766 1.238 . S
C763 O767 1.241 . S
C764 O757 1.247 . S
C764 O758 1.261 1_545 S
C765 O760 1.259 . S
C765 O762 1.235 . S
O766 Co756 2.021 . S
O766 C763 1.238 . S
O767 Co761 2.052 . S
O767 C763 1.241 . S
O768 Co756 2.137 . S
O768 C759 1.247 . S
O769 Co756 2.244 . S
O769 C759 1.272 . S
O769 Co761 2.135 . S
Co770 O771 2.216 . S
Co770 O772 2.091 . S
Co770 O774 2.004 . S
Co770 O780 2.021 . S
Co770 O782 2.137 . S
Co770 O783 2.244 . S
O771 Co770 2.216 . S
O771 C778 1.247 . S
O772 Co770 2.091 . S
O772 C778 1.261 . S
C773 O782 1.247 . S
C773 O783 1.272 . S
O774 Co770 2.004 . S
O774 C779 1.259 . S
Co775 O776 2.061 . S
Co775 O781 2.052 . S
Co775 O783 2.135 . S
O776 Co775 2.061 . S
O776 C779 1.235 . S
C777 O780 1.238 . S
C777 O781 1.241 . S
C778 O771 1.247 . S
C778 O772 1.261 . S
C779 O774 1.259 . S
C779 O776 1.235 . S
O780 Co770 2.021 . S
O780 C777 1.238 . S
O781 Co775 2.052 . S
O781 C777 1.241 . S
O782 Co770 2.137 . S
O782 C773 1.247 . S
O783 Co770 2.244 . S
O783 C773 1.272 . S
O783 Co775 2.135 . S
Co784 O785 2.216 . S
Co784 O786 2.091 1_554 S
Co784 O788 2.004 . S
Co784 O794 2.021 . S
Co784 O796 2.137 . S
Co784 O797 2.244 . S
O785 Co784 2.216 . S
O785 C792 1.247 . S
O786 Co784 2.091 1_556 S
O786 C792 1.261 1_556 S
C787 O796 1.247 . S
C787 O797 1.272 . S
O788 Co784 2.004 . S
O788 C793 1.259 . S
Co789 O790 2.061 . S
Co789 O795 2.052 . S
Co789 O797 2.135 . S
O790 Co789 2.061 . S
O790 C793 1.235 . S
C791 O794 1.238 . S
C791 O795 1.241 . S
C792 O785 1.247 . S
C792 O786 1.261 1_554 S
C793 O788 1.259 . S
C793 O790 1.235 . S
O794 Co784 2.021 . S
O794 C791 1.238 . S
O795 Co789 2.052 . S
O795 C791 1.241 . S
O796 Co784 2.137 . S
O796 C787 1.247 . S
O797 Co784 2.244 . S
O797 C787 1.272 . S
O797 Co789 2.135 . S
Co798 O799 2.216 . S
Co798 O800 2.091 . S
Co798 O802 2.004 . S
Co798 O808 2.021 . S
Co798 O810 2.137 . S
Co798 O811 2.244 . S
O799 Co798 2.216 . S
O799 C806 1.247 . S
O800 Co798 2.091 . S
O800 C806 1.261 . S
C801 O810 1.247 . S
C801 O811 1.272 . S
O802 Co798 2.004 . S
O802 C807 1.259 . S
Co803 O804 2.061 . S
Co803 O809 2.052 . S
Co803 O811 2.135 . S
O804 Co803 2.061 . S
O804 C807 1.235 . S
C805 O808 1.238 . S
C805 O809 1.241 . S
C806 O799 1.247 . S
C806 O800 1.261 . S
C807 O802 1.259 . S
C807 O804 1.235 . S
O808 Co798 2.021 . S
O808 C805 1.238 . S
O809 Co803 2.052 . S
O809 C805 1.241 . S
O810 Co798 2.137 . S
O810 C801 1.247 . S
O811 Co798 2.244 . S
O811 C801 1.272 . S
O811 Co803 2.135 . S
Co812 O813 2.216 . S
Co812 O814 2.091 . S
Co812 O816 2.004 . S
Co812 O822 2.021 . S
Co812 O824 2.137 . S
Co812 O825 2.244 . S
O813 Co812 2.216 . S
O813 C820 1.247 . S
O814 Co812 2.091 . S
O814 C820 1.261 . S
C815 O824 1.247 . S
C815 O825 1.272 . S
O816 Co812 2.004 . S
O816 C821 1.259 . S
Co817 O818 2.061 . S
Co817 O823 2.052 . S
Co817 O825 2.135 . S
O818 Co817 2.061 . S
O818 C821 1.235 . S
C819 O822 1.238 . S
C819 O823 1.241 . S
C820 O813 1.247 . S
C820 O814 1.261 . S
C821 O816 1.259 . S
C821 O818 1.235 . S
O822 Co812 2.021 . S
O822 C819 1.238 . S
O823 Co817 2.052 . S
O823 C819 1.241 . S
O824 Co812 2.137 . S
O824 C815 1.247 . S
O825 Co812 2.244 . S
O825 C815 1.272 . S
O825 Co817 2.135 . S
Co826 O827 2.216 . S
Co826 O828 2.091 . S
Co826 O830 2.004 . S
Co826 O836 2.021 . S
Co826 O838 2.137 . S
Co826 O839 2.244 . S
O827 Co826 2.216 . S
O827 C834 1.247 . S
O828 Co826 2.091 . S
O828 C834 1.261 . S
C829 O838 1.247 . S
C829 O839 1.272 . S
O830 Co826 2.004 . S
O830 C835 1.259 . S
Co831 O832 2.061 . S
Co831 O837 2.052 . S
Co831 O839 2.135 . S
O832 Co831 2.061 . S
O832 C835 1.235 . S
C833 O836 1.238 . S
C833 O837 1.241 . S
C834 O827 1.247 . S
C834 O828 1.261 . S
C835 O830 1.259 . S
C835 O832 1.235 . S
O836 Co826 2.021 . S
O836 C833 1.238 . S
O837 Co831 2.052 . S
O837 C833 1.241 . S
O838 Co826 2.137 . S
O838 C829 1.247 . S
O839 Co826 2.244 . S
O839 C829 1.272 . S
O839 Co831 2.135 . S
Co840 O841 2.216 . S
Co840 O842 2.091 1_556 S
Co840 O844 2.004 . S
Co840 O850 2.021 . S
Co840 O852 2.137 . S
Co840 O853 2.244 . S
O841 Co840 2.216 . S
O841 C848 1.247 . S
O842 Co840 2.091 1_554 S
O842 C848 1.261 1_554 S
C843 O852 1.247 . S
C843 O853 1.272 . S
O844 Co840 2.004 . S
O844 C849 1.259 . S
Co845 O846 2.061 . S
Co845 O851 2.052 . S
Co845 O853 2.135 . S
O846 Co845 2.061 . S
O846 C849 1.235 . S
C847 O850 1.238 . S
C847 O851 1.241 . S
C848 O841 1.247 . S
C848 O842 1.261 1_556 S
C849 O844 1.259 . S
C849 O846 1.235 . S
O850 Co840 2.021 . S
O850 C847 1.238 . S
O851 Co845 2.052 . S
O851 C847 1.241 . S
O852 Co840 2.137 . S
O852 C843 1.247 . S
O853 Co840 2.244 . S
O853 C843 1.272 . S
O853 Co845 2.135 . S
Co854 O855 2.216 . S
Co854 O856 2.091 . S
Co854 O858 2.004 . S
Co854 O864 2.021 . S
Co854 O866 2.137 . S
Co854 O867 2.244 . S
O855 Co854 2.216 . S
O855 C862 1.247 . S
O856 Co854 2.091 . S
O856 C862 1.261 . S
C857 O866 1.247 . S
C857 O867 1.272 . S
O858 Co854 2.004 . S
O858 C863 1.259 . S
Co859 O860 2.061 . S
Co859 O865 2.052 . S
Co859 O867 2.135 . S
O860 Co859 2.061 . S
O860 C863 1.235 . S
C861 O864 1.238 . S
C861 O865 1.241 . S
C862 O855 1.247 . S
C862 O856 1.261 . S
C863 O858 1.259 . S
C863 O860 1.235 . S
O864 Co854 2.021 . S
O864 C861 1.238 . S
O865 Co859 2.052 . S
O865 C861 1.241 . S
O866 Co854 2.137 . S
O866 C857 1.247 . S
O867 Co854 2.244 . S
O867 C857 1.272 . S
O867 Co859 2.135 . S
Co868 O869 2.216 . S
Co868 O870 2.091 . S
Co868 O872 2.004 . S
Co868 O878 2.021 . S
Co868 O880 2.137 . S
Co868 O881 2.244 . S
O869 Co868 2.216 . S
O869 C876 1.247 . S
O870 Co868 2.091 . S
O870 C876 1.261 . S
C871 O880 1.247 . S
C871 O881 1.272 . S
O872 Co868 2.004 . S
O872 C877 1.259 . S
Co873 O874 2.061 . S
Co873 O879 2.052 . S
Co873 O881 2.135 . S
O874 Co873 2.061 . S
O874 C877 1.235 . S
C875 O878 1.238 . S
C875 O879 1.241 . S
C876 O869 1.247 . S
C876 O870 1.261 . S
C877 O872 1.259 . S
C877 O874 1.235 . S
O878 Co868 2.021 . S
O878 C875 1.238 . S
O879 Co873 2.052 . S
O879 C875 1.241 . S
O880 Co868 2.137 . S
O880 C871 1.247 . S
O881 Co868 2.244 . S
O881 C871 1.272 . S
O881 Co873 2.135 . S
Co882 O883 2.216 . S
Co882 O884 2.091 . S
Co882 O886 2.004 . S
Co882 O892 2.021 . S
Co882 O894 2.137 . S
Co882 O895 2.244 . S
O883 Co882 2.216 . S
O883 C890 1.247 . S
O884 Co882 2.091 . S
O884 C890 1.261 . S
C885 O894 1.247 . S
C885 O895 1.272 . S
O886 Co882 2.004 . S
O886 C891 1.259 . S
Co887 O888 2.061 . S
Co887 O893 2.052 . S
Co887 O895 2.135 . S
O888 Co887 2.061 . S
O888 C891 1.235 . S
C889 O892 1.238 . S
C889 O893 1.241 . S
C890 O883 1.247 . S
C890 O884 1.261 . S
C891 O886 1.259 . S
C891 O888 1.235 . S
O892 Co882 2.021 . S
O892 C889 1.238 . S
O893 Co887 2.052 . S
O893 C889 1.241 . S
O894 Co882 2.137 . S
O894 C885 1.247 . S
O895 Co882 2.244 . S
O895 C885 1.272 . S
O895 Co887 2.135 . S
Co896 O897 2.216 . S
Co896 O898 2.091 1_455 S
Co896 O900 2.004 . S
Co896 O906 2.021 . S
Co896 O908 2.137 . S
Co896 O909 2.244 . S
O897 Co896 2.216 . S
O897 C904 1.247 . S
O898 Co896 2.091 1_655 S
O898 C904 1.261 1_655 S
C899 O908 1.247 . S
C899 O909 1.272 . S
O900 Co896 2.004 . S
O900 C905 1.259 . S
Co901 O902 2.061 . S
Co901 O907 2.052 . S
Co901 O909 2.135 . S
O902 Co901 2.061 . S
O902 C905 1.235 . S
C903 O906 1.238 . S
C903 O907 1.241 . S
C904 O897 1.247 . S
C904 O898 1.261 1_455 S
C905 O900 1.259 . S
C905 O902 1.235 . S
O906 Co896 2.021 . S
O906 C903 1.238 . S
O907 Co901 2.052 . S
O907 C903 1.241 . S
O908 Co896 2.137 . S
O908 C899 1.247 . S
O909 Co896 2.244 . S
O909 C899 1.272 . S
O909 Co901 2.135 . S
Co910 O911 2.216 . S
Co910 O912 2.091 . S
Co910 O914 2.004 . S
Co910 O920 2.021 . S
Co910 O922 2.137 . S
Co910 O923 2.244 . S
O911 Co910 2.216 . S
O911 C918 1.247 . S
O912 Co910 2.091 . S
O912 C918 1.261 . S
C913 O922 1.247 . S
C913 O923 1.272 . S
O914 Co910 2.004 . S
O914 C919 1.259 . S
Co915 O916 2.061 . S
Co915 O921 2.052 . S
Co915 O923 2.135 . S
O916 Co915 2.061 . S
O916 C919 1.235 . S
C917 O920 1.238 . S
C917 O921 1.241 . S
C918 O911 1.247 . S
C918 O912 1.261 . S
C919 O914 1.259 . S
C919 O916 1.235 . S
O920 Co910 2.021 . S
O920 C917 1.238 . S
O921 Co915 2.052 . S
O921 C917 1.241 . S
O922 Co910 2.137 . S
O922 C913 1.247 . S
O923 Co910 2.244 . S
O923 C913 1.272 . S
O923 Co915 2.135 . S
Co924 O925 2.216 . S
Co924 O926 2.091 . S
Co924 O928 2.004 . S
Co924 O934 2.021 . S
Co924 O936 2.137 . S
Co924 O937 2.244 . S
O925 Co924 2.216 . S
O925 C932 1.247 . S
O926 Co924 2.091 . S
O926 C932 1.261 . S
C927 O936 1.247 . S
C927 O937 1.272 . S
O928 Co924 2.004 . S
O928 C933 1.259 . S
Co929 O930 2.061 . S
Co929 O935 2.052 . S
Co929 O937 2.135 . S
O930 Co929 2.061 . S
O930 C933 1.235 . S
C931 O934 1.238 . S
C931 O935 1.241 . S
C932 O925 1.247 . S
C932 O926 1.261 . S
C933 O928 1.259 . S
C933 O930 1.235 . S
O934 Co924 2.021 . S
O934 C931 1.238 . S
O935 Co929 2.052 . S
O935 C931 1.241 . S
O936 Co924 2.137 . S
O936 C927 1.247 . S
O937 Co924 2.244 . S
O937 C927 1.272 . S
O937 Co929 2.135 . S
Co938 O939 2.216 . S
Co938 O940 2.091 . S
Co938 O942 2.004 . S
Co938 O948 2.021 . S
Co938 O950 2.137 . S
Co938 O951 2.244 . S
O939 Co938 2.216 . S
O939 C946 1.247 . S
O940 Co938 2.091 . S
O940 C946 1.261 . S
C941 O950 1.247 . S
C941 O951 1.272 . S
O942 Co938 2.004 . S
O942 C947 1.259 . S
Co943 O944 2.061 . S
Co943 O949 2.052 . S
Co943 O951 2.135 . S
O944 Co943 2.061 . S
O944 C947 1.235 . S
C945 O948 1.238 . S
C945 O949 1.241 . S
C946 O939 1.247 . S
C946 O940 1.261 . S
C947 O942 1.259 . S
C947 O944 1.235 . S
O948 Co938 2.021 . S
O948 C945 1.238 . S
O949 Co943 2.052 . S
O949 C945 1.241 . S
O950 Co938 2.137 . S
O950 C941 1.247 . S
O951 Co938 2.244 . S
O951 C941 1.272 . S
O951 Co943 2.135 . S
Co952 O953 2.216 . S
Co952 O954 2.091 . S
Co952 O956 2.004 . S
Co952 O962 2.021 . S
Co952 O964 2.137 . S
Co952 O965 2.244 . S
O953 Co952 2.216 . S
O953 C960 1.247 . S
O954 Co952 2.091 . S
O954 C960 1.261 . S
C955 O964 1.247 . S
C955 O965 1.272 . S
O956 Co952 2.004 . S
O956 C961 1.259 . S
Co957 O958 2.061 . S
Co957 O963 2.052 . S
Co957 O965 2.135 . S
O958 Co957 2.061 . S
O958 C961 1.235 . S
C959 O962 1.238 . S
C959 O963 1.241 . S
C960 O953 1.247 . S
C960 O954 1.261 . S
C961 O956 1.259 . S
C961 O958 1.235 . S
O962 Co952 2.021 . S
O962 C959 1.238 . S
O963 Co957 2.052 . S
O963 C959 1.241 . S
O964 Co952 2.137 . S
O964 C955 1.247 . S
O965 Co952 2.244 . S
O965 C955 1.272 . S
O965 Co957 2.135 . S
Co966 O967 2.216 . S
Co966 O968 2.091 1_655 S
Co966 O970 2.004 . S
Co966 O976 2.021 . S
Co966 O978 2.137 . S
Co966 O979 2.244 . S
O967 Co966 2.216 . S
O967 C974 1.247 . S
O968 Co966 2.091 1_455 S
O968 C974 1.261 1_455 S
C969 O978 1.247 . S
C969 O979 1.272 . S
O970 Co966 2.004 . S
O970 C975 1.259 . S
Co971 O972 2.061 . S
Co971 O977 2.052 . S
Co971 O979 2.135 . S
O972 Co971 2.061 . S
O972 C975 1.235 . S
C973 O976 1.238 . S
C973 O977 1.241 . S
C974 O967 1.247 . S
C974 O968 1.261 1_655 S
C975 O970 1.259 . S
C975 O972 1.235 . S
O976 Co966 2.021 . S
O976 C973 1.238 . S
O977 Co971 2.052 . S
O977 C973 1.241 . S
O978 Co966 2.137 . S
O978 C969 1.247 . S
O979 Co966 2.244 . S
O979 C969 1.272 . S
O979 Co971 2.135 . S
Co980 O981 2.216 . S
Co980 O982 2.091 . S
Co980 O984 2.004 . S
Co980 O990 2.021 . S
Co980 O992 2.137 . S
Co980 O993 2.244 . S
O981 Co980 2.216 . S
O981 C988 1.247 . S
O982 Co980 2.091 . S
O982 C988 1.261 . S
C983 O992 1.247 . S
C983 O993 1.272 . S
O984 Co980 2.004 . S
O984 C989 1.259 . S
Co985 O986 2.061 . S
Co985 O991 2.052 . S
Co985 O993 2.135 . S
O986 Co985 2.061 . S
O986 C989 1.235 . S
C987 O990 1.238 . S
C987 O991 1.241 . S
C988 O981 1.247 . S
C988 O982 1.261 . S
C989 O984 1.259 . S
C989 O986 1.235 . S
O990 Co980 2.021 . S
O990 C987 1.238 . S
O991 Co985 2.052 . S
O991 C987 1.241 . S
O992 Co980 2.137 . S
O992 C983 1.247 . S
O993 Co980 2.244 . S
O993 C983 1.272 . S
O993 Co985 2.135 . S
Co994 O995 2.216 . S
Co994 O996 2.091 . S
Co994 O998 2.004 . S
Co994 O1004 2.021 . S
Co994 O1006 2.137 . S
Co994 O1007 2.244 . S
O995 Co994 2.216 . S
O995 C1002 1.247 . S
O996 Co994 2.091 . S
O996 C1002 1.261 . S
C997 O1006 1.247 . S
C997 O1007 1.272 . S
O998 Co994 2.004 . S
O998 C1003 1.259 . S
Co999 O1000 2.061 . S
Co999 O1005 2.052 . S
Co999 O1007 2.135 . S
O1000 Co999 2.061 . S
O1000 C1003 1.235 . S
C1001 O1004 1.238 . S
C1001 O1005 1.241 . S
C1002 O995 1.247 . S
C1002 O996 1.261 . S
C1003 O998 1.259 . S
C1003 O1000 1.235 . S
O1004 Co994 2.021 . S
O1004 C1001 1.238 . S
O1005 Co999 2.052 . S
O1005 C1001 1.241 . S
O1006 Co994 2.137 . S
O1006 C997 1.247 . S
O1007 Co994 2.244 . S
O1007 C997 1.272 . S
O1007 Co999 2.135 . S
Co1008 O1009 2.216 . S
Co1008 O1010 2.091 1_545 S
Co1008 O1012 2.004 . S
Co1008 O1018 2.021 . S
Co1008 O1020 2.137 . S
Co1008 O1021 2.244 . S
O1009 Co1008 2.216 . S
O1009 C1016 1.247 . S
O1010 Co1008 2.091 1_565 S
O1010 C1016 1.261 1_565 S
C1011 O1020 1.247 . S
C1011 O1021 1.272 . S
O1012 Co1008 2.004 . S
O1012 C1017 1.259 . S
Co1013 O1014 2.061 . S
Co1013 O1019 2.052 . S
Co1013 O1021 2.135 . S
O1014 Co1013 2.061 . S
O1014 C1017 1.235 . S
C1015 O1018 1.238 . S
C1015 O1019 1.241 . S
C1016 O1009 1.247 . S
C1016 O1010 1.261 1_545 S
C1017 O1012 1.259 . S
C1017 O1014 1.235 . S
O1018 Co1008 2.021 . S
O1018 C1015 1.238 . S
O1019 Co1013 2.052 . S
O1019 C1015 1.241 . S
O1020 Co1008 2.137 . S
O1020 C1011 1.247 . S
O1021 Co1008 2.244 . S
O1021 C1011 1.272 . S
O1021 Co1013 2.135 . S
Co1022 O1023 2.216 . S
Co1022 O1024 2.091 . S
Co1022 O1026 2.004 . S
Co1022 O1032 2.021 . S
Co1022 O1034 2.137 . S
Co1022 O1035 2.244 . S
O1023 Co1022 2.216 . S
O1023 C1030 1.247 . S
O1024 Co1022 2.091 . S
O1024 C1030 1.261 . S
C1025 O1034 1.247 . S
C1025 O1035 1.272 . S
O1026 Co1022 2.004 . S
O1026 C1031 1.259 . S
Co1027 O1028 2.061 . S
Co1027 O1033 2.052 . S
Co1027 O1035 2.135 . S
O1028 Co1027 2.061 . S
O1028 C1031 1.235 . S
C1029 O1032 1.238 . S
C1029 O1033 1.241 . S
C1030 O1023 1.247 . S
C1030 O1024 1.261 . S
C1031 O1026 1.259 . S
C1031 O1028 1.235 . S
O1032 Co1022 2.021 . S
O1032 C1029 1.238 . S
O1033 Co1027 2.052 . S
O1033 C1029 1.241 . S
O1034 Co1022 2.137 . S
O1034 C1025 1.247 . S
O1035 Co1022 2.244 . S
O1035 C1025 1.272 . S
O1035 Co1027 2.135 . S
Co1036 O1037 2.216 . S
Co1036 O1038 2.091 . S
Co1036 O1040 2.004 . S
Co1036 O1046 2.021 . S
Co1036 O1048 2.137 . S
Co1036 O1049 2.244 . S
O1037 Co1036 2.216 . S
O1037 C1044 1.247 . S
O1038 Co1036 2.091 . S
O1038 C1044 1.261 . S
C1039 O1048 1.247 . S
C1039 O1049 1.272 . S
O1040 Co1036 2.004 . S
O1040 C1045 1.259 . S
Co1041 O1042 2.061 . S
Co1041 O1047 2.052 . S
Co1041 O1049 2.135 . S
O1042 Co1041 2.061 . S
O1042 C1045 1.235 . S
C1043 O1046 1.238 . S
C1043 O1047 1.241 . S
C1044 O1037 1.247 . S
C1044 O1038 1.261 . S
C1045 O1040 1.259 . S
C1045 O1042 1.235 . S
O1046 Co1036 2.021 . S
O1046 C1043 1.238 . S
O1047 Co1041 2.052 . S
O1047 C1043 1.241 . S
O1048 Co1036 2.137 . S
O1048 C1039 1.247 . S
O1049 Co1036 2.244 . S
O1049 C1039 1.272 . S
O1049 Co1041 2.135 . S
Co1050 O1051 2.216 . S
Co1050 O1052 2.091 . S
Co1050 O1054 2.004 . S
Co1050 O1060 2.021 . S
Co1050 O1062 2.137 . S
Co1050 O1063 2.244 . S
O1051 Co1050 2.216 . S
O1051 C1058 1.247 . S
O1052 Co1050 2.091 . S
O1052 C1058 1.261 . S
C1053 O1062 1.247 . S
C1053 O1063 1.272 . S
O1054 Co1050 2.004 . S
O1054 C1059 1.259 . S
Co1055 O1056 2.061 . S
Co1055 O1061 2.052 . S
Co1055 O1063 2.135 . S
O1056 Co1055 2.061 . S
O1056 C1059 1.235 . S
C1057 O1060 1.238 . S
C1057 O1061 1.241 . S
C1058 O1051 1.247 . S
C1058 O1052 1.261 . S
C1059 O1054 1.259 . S
C1059 O1056 1.235 . S
O1060 Co1050 2.021 . S
O1060 C1057 1.238 . S
O1061 Co1055 2.052 . S
O1061 C1057 1.241 . S
O1062 Co1050 2.137 . S
O1062 C1053 1.247 . S
O1063 Co1050 2.244 . S
O1063 C1053 1.272 . S
O1063 Co1055 2.135 . S
Co1064 O1065 2.216 . S
Co1064 O1066 2.091 1_565 S
Co1064 O1068 2.004 . S
Co1064 O1074 2.021 . S
Co1064 O1076 2.137 . S
Co1064 O1077 2.244 . S
O1065 Co1064 2.216 . S
O1065 C1072 1.247 . S
O1066 Co1064 2.091 1_545 S
O1066 C1072 1.261 1_545 S
C1067 O1076 1.247 . S
C1067 O1077 1.272 . S
O1068 Co1064 2.004 . S
O1068 C1073 1.259 . S
Co1069 O1070 2.061 . S
Co1069 O1075 2.052 . S
Co1069 O1077 2.135 . S
O1070 Co1069 2.061 . S
O1070 C1073 1.235 . S
C1071 O1074 1.238 . S
C1071 O1075 1.241 . S
C1072 O1065 1.247 . S
C1072 O1066 1.261 1_565 S
C1073 O1068 1.259 . S
C1073 O1070 1.235 . S
O1074 Co1064 2.021 . S
O1074 C1071 1.238 . S
O1075 Co1069 2.052 . S
O1075 C1071 1.241 . S
O1076 Co1064 2.137 . S
O1076 C1067 1.247 . S
O1077 Co1064 2.244 . S
O1077 C1067 1.272 . S
O1077 Co1069 2.135 . S
Co1078 O1079 2.216 . S
Co1078 O1080 2.091 . S
Co1078 O1082 2.004 . S
Co1078 O1088 2.021 . S
Co1078 O1090 2.137 . S
Co1078 O1091 2.244 . S
O1079 Co1078 2.216 . S
O1079 C1086 1.247 . S
O1080 Co1078 2.091 . S
O1080 C1086 1.261 . S
C1081 O1090 1.247 . S
C1081 O1091 1.272 . S
O1082 Co1078 2.004 . S
O1082 C1087 1.259 . S
Co1083 O1084 2.061 . S
Co1083 O1089 2.052 . S
Co1083 O1091 2.135 . S
O1084 Co1083 2.061 . S
O1084 C1087 1.235 . S
C1085 O1088 1.238 . S
C1085 O1089 1.241 . S
C1086 O1079 1.247 . S
C1086 O1080 1.261 . S
C1087 O1082 1.259 . S
C1087 O1084 1.235 . S
O1088 Co1078 2.021 . S
O1088 C1085 1.238 . S
O1089 Co1083 2.052 . S
O1089 C1085 1.241 . S
O1090 Co1078 2.137 . S
O1090 C1081 1.247 . S
O1091 Co1078 2.244 . S
O1091 C1081 1.272 . S
O1091 Co1083 2.135 . S
Co1092 O1093 2.216 . S
Co1092 O1094 2.091 . S
Co1092 O1096 2.004 . S
Co1092 O1102 2.021 . S
Co1092 O1104 2.137 . S
Co1092 O1105 2.244 . S
O1093 Co1092 2.216 . S
O1093 C1100 1.247 . S
O1094 Co1092 2.091 . S
O1094 C1100 1.261 . S
C1095 O1104 1.247 . S
C1095 O1105 1.272 . S
O1096 Co1092 2.004 . S
O1096 C1101 1.259 . S
Co1097 O1098 2.061 . S
Co1097 O1103 2.052 . S
Co1097 O1105 2.135 . S
O1098 Co1097 2.061 . S
O1098 C1101 1.235 . S
C1099 O1102 1.238 . S
C1099 O1103 1.241 . S
C1100 O1093 1.247 . S
C1100 O1094 1.261 . S
C1101 O1096 1.259 . S
C1101 O1098 1.235 . S
O1102 Co1092 2.021 . S
O1102 C1099 1.238 . S
O1103 Co1097 2.052 . S
O1103 C1099 1.241 . S
O1104 Co1092 2.137 . S
O1104 C1095 1.247 . S
O1105 Co1092 2.244 . S
O1105 C1095 1.272 . S
O1105 Co1097 2.135 . S
Co1106 O1107 2.216 . S
Co1106 O1108 2.091 . S
Co1106 O1110 2.004 . S
Co1106 O1116 2.021 . S
Co1106 O1118 2.137 . S
Co1106 O1119 2.244 . S
O1107 Co1106 2.216 . S
O1107 C1114 1.247 . S
O1108 Co1106 2.091 . S
O1108 C1114 1.261 . S
C1109 O1118 1.247 . S
C1109 O1119 1.272 . S
O1110 Co1106 2.004 . S
O1110 C1115 1.259 . S
Co1111 O1112 2.061 . S
Co1111 O1117 2.052 . S
Co1111 O1119 2.135 . S
O1112 Co1111 2.061 . S
O1112 C1115 1.235 . S
C1113 O1116 1.238 . S
C1113 O1117 1.241 . S
C1114 O1107 1.247 . S
C1114 O1108 1.261 . S
C1115 O1110 1.259 . S
C1115 O1112 1.235 . S
O1116 Co1106 2.021 . S
O1116 C1113 1.238 . S
O1117 Co1111 2.052 . S
O1117 C1113 1.241 . S
O1118 Co1106 2.137 . S
O1118 C1109 1.247 . S
O1119 Co1106 2.244 . S
O1119 C1109 1.272 . S
O1119 Co1111 2.135 . S
Co1120 O1121 2.216 . S
Co1120 O1122 2.091 . S
Co1120 O1124 2.004 . S
Co1120 O1130 2.021 . S
Co1120 O1132 2.137 . S
Co1120 O1133 2.244 . S
O1121 Co1120 2.216 . S
O1121 C1128 1.247 . S
O1122 Co1120 2.091 . S
O1122 C1128 1.261 . S
C1123 O1132 1.247 . S
C1123 O1133 1.272 . S
O1124 Co1120 2.004 . S
O1124 C1129 1.259 . S
Co1125 O1126 2.061 . S
Co1125 O1131 2.052 . S
Co1125 O1133 2.135 . S
O1126 Co1125 2.061 . S
O1126 C1129 1.235 . S
C1127 O1130 1.238 . S
C1127 O1131 1.241 . S
C1128 O1121 1.247 . S
C1128 O1122 1.261 . S
C1129 O1124 1.259 . S
C1129 O1126 1.235 . S
O1130 Co1120 2.021 . S
O1130 C1127 1.238 . S
O1131 Co1125 2.052 . S
O1131 C1127 1.241 . S
O1132 Co1120 2.137 . S
O1132 C1123 1.247 . S
O1133 Co1120 2.244 . S
O1133 C1123 1.272 . S
O1133 Co1125 2.135 . S
Co1134 O1135 2.216 . S
Co1134 O1136 2.091 . S
Co1134 O1138 2.004 . S
Co1134 O1144 2.021 . S
Co1134 O1146 2.137 . S
Co1134 O1147 2.244 . S
O1135 Co1134 2.216 . S
O1135 C1142 1.247 . S
O1136 Co1134 2.091 . S
O1136 C1142 1.261 . S
C1137 O1146 1.247 . S
C1137 O1147 1.272 . S
O1138 Co1134 2.004 . S
O1138 C1143 1.259 . S
Co1139 O1140 2.061 . S
Co1139 O1145 2.052 . S
Co1139 O1147 2.135 . S
O1140 Co1139 2.061 . S
O1140 C1143 1.235 . S
C1141 O1144 1.238 . S
C1141 O1145 1.241 . S
C1142 O1135 1.247 . S
C1142 O1136 1.261 . S
C1143 O1138 1.259 . S
C1143 O1140 1.235 . S
O1144 Co1134 2.021 . S
O1144 C1141 1.238 . S
O1145 Co1139 2.052 . S
O1145 C1141 1.241 . S
O1146 Co1134 2.137 . S
O1146 C1137 1.247 . S
O1147 Co1134 2.244 . S
O1147 C1137 1.272 . S
O1147 Co1139 2.135 . S
Co1148 O1149 2.216 . S
Co1148 O1150 2.091 1_554 S
Co1148 O1152 2.004 . S
Co1148 O1158 2.021 . S
Co1148 O1160 2.137 . S
Co1148 O1161 2.244 . S
O1149 Co1148 2.216 . S
O1149 C1156 1.247 . S
O1150 Co1148 2.091 1_556 S
O1150 C1156 1.261 1_556 S
C1151 O1160 1.247 . S
C1151 O1161 1.272 . S
O1152 Co1148 2.004 . S
O1152 C1157 1.259 . S
Co1153 O1154 2.061 . S
Co1153 O1159 2.052 . S
Co1153 O1161 2.135 . S
O1154 Co1153 2.061 . S
O1154 C1157 1.235 . S
C1155 O1158 1.238 . S
C1155 O1159 1.241 . S
C1156 O1149 1.247 . S
C1156 O1150 1.261 1_554 S
C1157 O1152 1.259 . S
C1157 O1154 1.235 . S
O1158 Co1148 2.021 . S
O1158 C1155 1.238 . S
O1159 Co1153 2.052 . S
O1159 C1155 1.241 . S
O1160 Co1148 2.137 . S
O1160 C1151 1.247 . S
O1161 Co1148 2.244 . S
O1161 C1151 1.272 . S
O1161 Co1153 2.135 . S
Co1162 O1163 2.216 . S
Co1162 O1164 2.091 . S
Co1162 O1166 2.004 . S
Co1162 O1172 2.021 . S
Co1162 O1174 2.137 . S
Co1162 O1175 2.244 . S
O1163 Co1162 2.216 . S
O1163 C1170 1.247 . S
O1164 Co1162 2.091 . S
O1164 C1170 1.261 . S
C1165 O1174 1.247 . S
C1165 O1175 1.272 . S
O1166 Co1162 2.004 . S
O1166 C1171 1.259 . S
Co1167 O1168 2.061 . S
Co1167 O1173 2.052 . S
Co1167 O1175 2.135 . S
O1168 Co1167 2.061 . S
O1168 C1171 1.235 . S
C1169 O1172 1.238 . S
C1169 O1173 1.241 . S
C1170 O1163 1.247 . S
C1170 O1164 1.261 . S
C1171 O1166 1.259 . S
C1171 O1168 1.235 . S
O1172 Co1162 2.021 . S
O1172 C1169 1.238 . S
O1173 Co1167 2.052 . S
O1173 C1169 1.241 . S
O1174 Co1162 2.137 . S
O1174 C1165 1.247 . S
O1175 Co1162 2.244 . S
O1175 C1165 1.272 . S
O1175 Co1167 2.135 . S
Co1176 O1177 2.216 . S
Co1176 O1178 2.091 . S
Co1176 O1180 2.004 . S
Co1176 O1186 2.021 . S
Co1176 O1188 2.137 . S
Co1176 O1189 2.244 . S
O1177 Co1176 2.216 . S
O1177 C1184 1.247 . S
O1178 Co1176 2.091 . S
O1178 C1184 1.261 . S
C1179 O1188 1.247 . S
C1179 O1189 1.272 . S
O1180 Co1176 2.004 . S
O1180 C1185 1.259 . S
Co1181 O1182 2.061 . S
Co1181 O1187 2.052 . S
Co1181 O1189 2.135 . S
O1182 Co1181 2.061 . S
O1182 C1185 1.235 . S
C1183 O1186 1.238 . S
C1183 O1187 1.241 . S
C1184 O1177 1.247 . S
C1184 O1178 1.261 . S
C1185 O1180 1.259 . S
C1185 O1182 1.235 . S
O1186 Co1176 2.021 . S
O1186 C1183 1.238 . S
O1187 Co1181 2.052 . S
O1187 C1183 1.241 . S
O1188 Co1176 2.137 . S
O1188 C1179 1.247 . S
O1189 Co1176 2.244 . S
O1189 C1179 1.272 . S
O1189 Co1181 2.135 . S
Co1190 O1191 2.216 . S
Co1190 O1192 2.091 . S
Co1190 O1194 2.004 . S
Co1190 O1200 2.021 . S
Co1190 O1202 2.137 . S
Co1190 O1203 2.244 . S
O1191 Co1190 2.216 . S
O1191 C1198 1.247 . S
O1192 Co1190 2.091 . S
O1192 C1198 1.261 . S
C1193 O1202 1.247 . S
C1193 O1203 1.272 . S
O1194 Co1190 2.004 . S
O1194 C1199 1.259 . S
Co1195 O1196 2.061 . S
Co1195 O1201 2.052 . S
Co1195 O1203 2.135 . S
O1196 Co1195 2.061 . S
O1196 C1199 1.235 . S
C1197 O1200 1.238 . S
C1197 O1201 1.241 . S
C1198 O1191 1.247 . S
C1198 O1192 1.261 . S
C1199 O1194 1.259 . S
C1199 O1196 1.235 . S
O1200 Co1190 2.021 . S
O1200 C1197 1.238 . S
O1201 Co1195 2.052 . S
O1201 C1197 1.241 . S
O1202 Co1190 2.137 . S
O1202 C1193 1.247 . S
O1203 Co1190 2.244 . S
O1203 C1193 1.272 . S
O1203 Co1195 2.135 . S
Co1204 O1205 2.216 . S
Co1204 O1206 2.091 1_556 S
Co1204 O1208 2.004 . S
Co1204 O1214 2.021 . S
Co1204 O1216 2.137 . S
Co1204 O1217 2.244 . S
O1205 Co1204 2.216 . S
O1205 C1212 1.247 . S
O1206 Co1204 2.091 1_554 S
O1206 C1212 1.261 1_554 S
C1207 O1216 1.247 . S
C1207 O1217 1.272 . S
O1208 Co1204 2.004 . S
O1208 C1213 1.259 . S
Co1209 O1210 2.061 . S
Co1209 O1215 2.052 . S
Co1209 O1217 2.135 . S
O1210 Co1209 2.061 . S
O1210 C1213 1.235 . S
C1211 O1214 1.238 . S
C1211 O1215 1.241 . S
C1212 O1205 1.247 . S
C1212 O1206 1.261 1_556 S
C1213 O1208 1.259 . S
C1213 O1210 1.235 . S
O1214 Co1204 2.021 . S
O1214 C1211 1.238 . S
O1215 Co1209 2.052 . S
O1215 C1211 1.241 . S
O1216 Co1204 2.137 . S
O1216 C1207 1.247 . S
O1217 Co1204 2.244 . S
O1217 C1207 1.272 . S
O1217 Co1209 2.135 . S
Co1218 O1219 2.216 . S
Co1218 O1220 2.091 . S
Co1218 O1222 2.004 . S
Co1218 O1228 2.021 . S
Co1218 O1230 2.137 . S
Co1218 O1231 2.244 . S
O1219 Co1218 2.216 . S
O1219 C1226 1.247 . S
O1220 Co1218 2.091 . S
O1220 C1226 1.261 . S
C1221 O1230 1.247 . S
C1221 O1231 1.272 . S
O1222 Co1218 2.004 . S
O1222 C1227 1.259 . S
Co1223 O1224 2.061 . S
Co1223 O1229 2.052 . S
Co1223 O1231 2.135 . S
O1224 Co1223 2.061 . S
O1224 C1227 1.235 . S
C1225 O1228 1.238 . S
C1225 O1229 1.241 . S
C1226 O1219 1.247 . S
C1226 O1220 1.261 . S
C1227 O1222 1.259 . S
C1227 O1224 1.235 . S
O1228 Co1218 2.021 . S
O1228 C1225 1.238 . S
O1229 Co1223 2.052 . S
O1229 C1225 1.241 . S
O1230 Co1218 2.137 . S
O1230 C1221 1.247 . S
O1231 Co1218 2.244 . S
O1231 C1221 1.272 . S
O1231 Co1223 2.135 . S
Co1232 O1233 2.216 . S
Co1232 O1234 2.091 1_455 S
Co1232 O1236 2.004 . S
Co1232 O1242 2.021 . S
Co1232 O1244 2.137 . S
Co1232 O1245 2.244 . S
O1233 Co1232 2.216 . S
O1233 C1240 1.247 . S
O1234 Co1232 2.091 1_655 S
O1234 C1240 1.261 1_655 S
C1235 O1244 1.247 . S
C1235 O1245 1.272 . S
O1236 Co1232 2.004 . S
O1236 C1241 1.259 . S
Co1237 O1238 2.061 . S
Co1237 O1243 2.052 . S
Co1237 O1245 2.135 . S
O1238 Co1237 2.061 . S
O1238 C1241 1.235 . S
C1239 O1242 1.238 . S
C1239 O1243 1.241 . S
C1240 O1233 1.247 . S
C1240 O1234 1.261 1_455 S
C1241 O1236 1.259 . S
C1241 O1238 1.235 . S
O1242 Co1232 2.021 . S
O1242 C1239 1.238 . S
O1243 Co1237 2.052 . S
O1243 C1239 1.241 . S
O1244 Co1232 2.137 . S
O1244 C1235 1.247 . S
O1245 Co1232 2.244 . S
O1245 C1235 1.272 . S
O1245 Co1237 2.135 . S
Co1246 O1247 2.216 . S
Co1246 O1248 2.091 . S
Co1246 O1250 2.004 . S
Co1246 O1256 2.021 . S
Co1246 O1258 2.137 . S
Co1246 O1259 2.244 . S
O1247 Co1246 2.216 . S
O1247 C1254 1.247 . S
O1248 Co1246 2.091 . S
O1248 C1254 1.261 . S
C1249 O1258 1.247 . S
C1249 O1259 1.272 . S
O1250 Co1246 2.004 . S
O1250 C1255 1.259 . S
Co1251 O1252 2.061 . S
Co1251 O1257 2.052 . S
Co1251 O1259 2.135 . S
O1252 Co1251 2.061 . S
O1252 C1255 1.235 . S
C1253 O1256 1.238 . S
C1253 O1257 1.241 . S
C1254 O1247 1.247 . S
C1254 O1248 1.261 . S
C1255 O1250 1.259 . S
C1255 O1252 1.235 . S
O1256 Co1246 2.021 . S
O1256 C1253 1.238 . S
O1257 Co1251 2.052 . S
O1257 C1253 1.241 . S
O1258 Co1246 2.137 . S
O1258 C1249 1.247 . S
O1259 Co1246 2.244 . S
O1259 C1249 1.272 . S
O1259 Co1251 2.135 . S
Co1260 O1261 2.216 . S
Co1260 O1262 2.091 . S
Co1260 O1264 2.004 . S
Co1260 O1270 2.021 . S
Co1260 O1272 2.137 . S
Co1260 O1273 2.244 . S
O1261 Co1260 2.216 . S
O1261 C1268 1.247 . S
O1262 Co1260 2.091 . S
O1262 C1268 1.261 . S
C1263 O1272 1.247 . S
C1263 O1273 1.272 . S
O1264 Co1260 2.004 . S
O1264 C1269 1.259 . S
Co1265 O1266 2.061 . S
Co1265 O1271 2.052 . S
Co1265 O1273 2.135 . S
O1266 Co1265 2.061 . S
O1266 C1269 1.235 . S
C1267 O1270 1.238 . S
C1267 O1271 1.241 . S
C1268 O1261 1.247 . S
C1268 O1262 1.261 . S
C1269 O1264 1.259 . S
C1269 O1266 1.235 . S
O1270 Co1260 2.021 . S
O1270 C1267 1.238 . S
O1271 Co1265 2.052 . S
O1271 C1267 1.241 . S
O1272 Co1260 2.137 . S
O1272 C1263 1.247 . S
O1273 Co1260 2.244 . S
O1273 C1263 1.272 . S
O1273 Co1265 2.135 . S
Co1274 O1275 2.216 . S
Co1274 O1276 2.091 . S
Co1274 O1278 2.004 . S
Co1274 O1284 2.021 . S
Co1274 O1286 2.137 . S
Co1274 O1287 2.244 . S
O1275 Co1274 2.216 . S
O1275 C1282 1.247 . S
O1276 Co1274 2.091 . S
O1276 C1282 1.261 . S
C1277 O1286 1.247 . S
C1277 O1287 1.272 . S
O1278 Co1274 2.004 . S
O1278 C1283 1.259 . S
Co1279 O1280 2.061 . S
Co1279 O1285 2.052 . S
Co1279 O1287 2.135 . S
O1280 Co1279 2.061 . S
O1280 C1283 1.235 . S
C1281 O1284 1.238 . S
C1281 O1285 1.241 . S
C1282 O1275 1.247 . S
C1282 O1276 1.261 . S
C1283 O1278 1.259 . S
C1283 O1280 1.235 . S
O1284 Co1274 2.021 . S
O1284 C1281 1.238 . S
O1285 Co1279 2.052 . S
O1285 C1281 1.241 . S
O1286 Co1274 2.137 . S
O1286 C1277 1.247 . S
O1287 Co1274 2.244 . S
O1287 C1277 1.272 . S
O1287 Co1279 2.135 . S
Co1288 O1289 2.216 . S
Co1288 O1290 2.091 . S
Co1288 O1292 2.004 . S
Co1288 O1298 2.021 . S
Co1288 O1300 2.137 . S
Co1288 O1301 2.244 . S
O1289 Co1288 2.216 . S
O1289 C1296 1.247 . S
O1290 Co1288 2.091 . S
O1290 C1296 1.261 . S
C1291 O1300 1.247 . S
C1291 O1301 1.272 . S
O1292 Co1288 2.004 . S
O1292 C1297 1.259 . S
Co1293 O1294 2.061 . S
Co1293 O1299 2.052 . S
Co1293 O1301 2.135 . S
O1294 Co1293 2.061 . S
O1294 C1297 1.235 . S
C1295 O1298 1.238 . S
C1295 O1299 1.241 . S
C1296 O1289 1.247 . S
C1296 O1290 1.261 . S
C1297 O1292 1.259 . S
C1297 O1294 1.235 . S
O1298 Co1288 2.021 . S
O1298 C1295 1.238 . S
O1299 Co1293 2.052 . S
O1299 C1295 1.241 . S
O1300 Co1288 2.137 . S
O1300 C1291 1.247 . S
O1301 Co1288 2.244 . S
O1301 C1291 1.272 . S
O1301 Co1293 2.135 . S
Co1302 O1303 2.216 . S
Co1302 O1304 2.091 1_655 S
Co1302 O1306 2.004 . S
Co1302 O1312 2.021 . S
Co1302 O1314 2.137 . S
Co1302 O1315 2.244 . S
O1303 Co1302 2.216 . S
O1303 C1310 1.247 . S
O1304 Co1302 2.091 1_455 S
O1304 C1310 1.261 1_455 S
C1305 O1314 1.247 . S
C1305 O1315 1.272 . S
O1306 Co1302 2.004 . S
O1306 C1311 1.259 . S
Co1307 O1308 2.061 . S
Co1307 O1313 2.052 . S
Co1307 O1315 2.135 . S
O1308 Co1307 2.061 . S
O1308 C1311 1.235 . S
C1309 O1312 1.238 . S
C1309 O1313 1.241 . S
C1310 O1303 1.247 . S
C1310 O1304 1.261 1_655 S
C1311 O1306 1.259 . S
C1311 O1308 1.235 . S
O1312 Co1302 2.021 . S
O1312 C1309 1.238 . S
O1313 Co1307 2.052 . S
O1313 C1309 1.241 . S
O1314 Co1302 2.137 . S
O1314 C1305 1.247 . S
O1315 Co1302 2.244 . S
O1315 C1305 1.272 . S
O1315 Co1307 2.135 . S
Co1316 O1317 2.216 . S
Co1316 O1318 2.091 . S
Co1316 O1320 2.004 . S
Co1316 O1326 2.021 . S
Co1316 O1328 2.137 . S
Co1316 O1329 2.244 . S
O1317 Co1316 2.216 . S
O1317 C1324 1.247 . S
O1318 Co1316 2.091 . S
O1318 C1324 1.261 . S
C1319 O1328 1.247 . S
C1319 O1329 1.272 . S
O1320 Co1316 2.004 . S
O1320 C1325 1.259 . S
Co1321 O1322 2.061 . S
Co1321 O1327 2.052 . S
Co1321 O1329 2.135 . S
O1322 Co1321 2.061 . S
O1322 C1325 1.235 . S
C1323 O1326 1.238 . S
C1323 O1327 1.241 . S
C1324 O1317 1.247 . S
C1324 O1318 1.261 . S
C1325 O1320 1.259 . S
C1325 O1322 1.235 . S
O1326 Co1316 2.021 . S
O1326 C1323 1.238 . S
O1327 Co1321 2.052 . S
O1327 C1323 1.241 . S
O1328 Co1316 2.137 . S
O1328 C1319 1.247 . S
O1329 Co1316 2.244 . S
O1329 C1319 1.272 . S
O1329 Co1321 2.135 . S
Co1330 O1331 2.216 . S
Co1330 O1332 2.091 . S
Co1330 O1334 2.004 . S
Co1330 O1340 2.021 . S
Co1330 O1342 2.137 . S
Co1330 O1343 2.244 . S
O1331 Co1330 2.216 . S
O1331 C1338 1.247 . S
O1332 Co1330 2.091 . S
O1332 C1338 1.261 . S
C1333 O1342 1.247 . S
C1333 O1343 1.272 . S
O1334 Co1330 2.004 . S
O1334 C1339 1.259 . S
Co1335 O1336 2.061 . S
Co1335 O1341 2.052 . S
Co1335 O1343 2.135 . S
O1336 Co1335 2.061 . S
O1336 C1339 1.235 . S
C1337 O1340 1.238 . S
C1337 O1341 1.241 . S
C1338 O1331 1.247 . S
C1338 O1332 1.261 . S
C1339 O1334 1.259 . S
C1339 O1336 1.235 . S
O1340 Co1330 2.021 . S
O1340 C1337 1.238 . S
O1341 Co1335 2.052 . S
O1341 C1337 1.241 . S
O1342 Co1330 2.137 . S
O1342 C1333 1.247 . S
O1343 Co1330 2.244 . S
O1343 C1333 1.272 . S
O1343 Co1335 2.135 . S
C1344 C1345 1.369 . S
C1344 C1346 1.419 . S
C1344 H1348 0.930 . S
C1345 C1344 1.369 . S
C1345 C1354 1.429 . S
C1346 C1344 1.419 . S
C1346 C1347 1.363 . S
C1346 H1349 0.929 . S
C1347 C1346 1.363 . S
C1347 C1353 1.428 . S
H1348 C1344 0.930 . S
H1349 C1346 0.929 . S
S1350 N1351 1.613 . S
S1350 N1352 1.610 . S
N1351 S1350 1.613 . S
N1351 C1354 1.350 . S
N1352 S1350 1.610 . S
N1352 C1353 1.351 . S
C1353 C1347 1.428 . S
C1353 N1352 1.351 . S
C1353 C1354 1.434 . S
C1354 C1345 1.429 . S
C1354 N1351 1.350 . S
C1354 C1353 1.434 . S
C1355 C1356 1.369 . S
C1355 C1357 1.419 . S
C1355 H1359 0.930 . S
C1356 C1355 1.369 . S
C1356 C1365 1.429 . S
C1357 C1355 1.419 . S
C1357 C1358 1.363 . S
C1357 H1360 0.929 . S
C1358 C1357 1.363 . S
C1358 C1364 1.428 . S
H1359 C1355 0.930 . S
H1360 C1357 0.929 . S
S1361 N1362 1.613 . S
S1361 N1363 1.610 . S
N1362 S1361 1.613 . S
N1362 C1365 1.350 . S
N1363 S1361 1.610 . S
N1363 C1364 1.351 . S
C1364 C1358 1.428 . S
C1364 N1363 1.351 . S
C1364 C1365 1.434 . S
C1365 C1356 1.429 . S
C1365 N1362 1.350 . S
C1365 C1364 1.434 . S
C1366 C1367 1.369 . S
C1366 C1368 1.419 . S
C1366 H1370 0.930 . S
C1367 C1366 1.369 . S
C1367 C1376 1.429 . S
C1368 C1366 1.419 . S
C1368 C1369 1.363 . S
C1368 H1371 0.929 . S
C1369 C1368 1.363 . S
C1369 C1375 1.428 . S
H1370 C1366 0.930 . S
H1371 C1368 0.929 . S
S1372 N1373 1.613 . S
S1372 N1374 1.610 . S
N1373 S1372 1.613 . S
N1373 C1376 1.350 . S
N1374 S1372 1.610 . S
N1374 C1375 1.351 . S
C1375 C1369 1.428 . S
C1375 N1374 1.351 . S
C1375 C1376 1.434 . S
C1376 C1367 1.429 . S
C1376 N1373 1.350 . S
C1376 C1375 1.434 . S
C1377 C1378 1.369 . S
C1377 C1379 1.419 . S
C1377 H1381 0.930 . S
C1378 C1377 1.369 . S
C1378 C1387 1.429 . S
C1379 C1377 1.419 . S
C1379 C1380 1.363 . S
C1379 H1382 0.929 . S
C1380 C1379 1.363 . S
C1380 C1386 1.428 . S
H1381 C1377 0.930 . S
H1382 C1379 0.929 . S
S1383 N1384 1.613 . S
S1383 N1385 1.610 . S
N1384 S1383 1.613 . S
N1384 C1387 1.350 . S
N1385 S1383 1.610 . S
N1385 C1386 1.351 . S
C1386 C1380 1.428 . S
C1386 N1385 1.351 . S
C1386 C1387 1.434 . S
C1387 C1378 1.429 . S
C1387 N1384 1.350 . S
C1387 C1386 1.434 . S
C1388 C1389 1.369 . S
C1388 C1390 1.419 . S
C1388 H1392 0.930 . S
C1389 C1388 1.369 . S
C1389 C1398 1.429 . S
C1390 C1388 1.419 . S
C1390 C1391 1.363 . S
C1390 H1393 0.929 . S
C1391 C1390 1.363 . S
C1391 C1397 1.428 . S
H1392 C1388 0.930 . S
H1393 C1390 0.929 . S
S1394 N1395 1.613 . S
S1394 N1396 1.610 . S
N1395 S1394 1.613 . S
N1395 C1398 1.350 . S
N1396 S1394 1.610 . S
N1396 C1397 1.351 . S
C1397 C1391 1.428 . S
C1397 N1396 1.351 . S
C1397 C1398 1.434 . S
C1398 C1389 1.429 . S
C1398 N1395 1.350 . S
C1398 C1397 1.434 . S
C1399 C1400 1.369 . S
C1399 C1401 1.419 . S
C1399 H1403 0.930 . S
C1400 C1399 1.369 . S
C1400 C1409 1.429 . S
C1401 C1399 1.419 . S
C1401 C1402 1.363 . S
C1401 H1404 0.929 . S
C1402 C1401 1.363 . S
C1402 C1408 1.428 . S
H1403 C1399 0.930 . S
H1404 C1401 0.929 . S
S1405 N1406 1.613 . S
S1405 N1407 1.610 . S
N1406 S1405 1.613 . S
N1406 C1409 1.350 . S
N1407 S1405 1.610 . S
N1407 C1408 1.351 . S
C1408 C1402 1.428 . S
C1408 N1407 1.351 . S
C1408 C1409 1.434 . S
C1409 C1400 1.429 . S
C1409 N1406 1.350 . S
C1409 C1408 1.434 . S
C1410 C1411 1.369 . S
C1410 C1412 1.419 . S
C1410 H1414 0.930 . S
C1411 C1410 1.369 . S
C1411 C1420 1.429 . S
C1412 C1410 1.419 . S
C1412 C1413 1.363 . S
C1412 H1415 0.929 . S
C1413 C1412 1.363 . S
C1413 C1419 1.428 . S
H1414 C1410 0.930 . S
H1415 C1412 0.929 . S
S1416 N1417 1.613 . S
S1416 N1418 1.610 . S
N1417 S1416 1.613 . S
N1417 C1420 1.350 . S
N1418 S1416 1.610 . S
N1418 C1419 1.351 . S
C1419 C1413 1.428 . S
C1419 N1418 1.351 . S
C1419 C1420 1.434 . S
C1420 C1411 1.429 . S
C1420 N1417 1.350 . S
C1420 C1419 1.434 . S
C1421 C1422 1.369 . S
C1421 C1423 1.419 . S
C1421 H1425 0.930 . S
C1422 C1421 1.369 . S
C1422 C1431 1.429 . S
C1423 C1421 1.419 . S
C1423 C1424 1.363 . S
C1423 H1426 0.929 . S
C1424 C1423 1.363 . S
C1424 C1430 1.428 . S
H1425 C1421 0.930 . S
H1426 C1423 0.929 . S
S1427 N1428 1.613 . S
S1427 N1429 1.610 . S
N1428 S1427 1.613 . S
N1428 C1431 1.350 . S
N1429 S1427 1.610 . S
N1429 C1430 1.351 . S
C1430 C1424 1.428 . S
C1430 N1429 1.351 . S
C1430 C1431 1.434 . S
C1431 C1422 1.429 . S
C1431 N1428 1.350 . S
C1431 C1430 1.434 . S
C1432 C1433 1.369 . S
C1432 C1434 1.419 . S
C1432 H1436 0.930 . S
C1433 C1432 1.369 . S
C1433 C1442 1.429 . S
C1434 C1432 1.419 . S
C1434 C1435 1.363 . S
C1434 H1437 0.929 . S
C1435 C1434 1.363 . S
C1435 C1441 1.428 . S
H1436 C1432 0.930 . S
H1437 C1434 0.929 . S
S1438 N1439 1.613 . S
S1438 N1440 1.610 . S
N1439 S1438 1.613 . S
N1439 C1442 1.350 . S
N1440 S1438 1.610 . S
N1440 C1441 1.351 . S
C1441 C1435 1.428 . S
C1441 N1440 1.351 . S
C1441 C1442 1.434 . S
C1442 C1433 1.429 . S
C1442 N1439 1.350 . S
C1442 C1441 1.434 . S
C1443 C1444 1.369 . S
C1443 C1445 1.419 . S
C1443 H1447 0.930 . S
C1444 C1443 1.369 . S
C1444 C1453 1.429 . S
C1445 C1443 1.419 . S
C1445 C1446 1.363 . S
C1445 H1448 0.929 . S
C1446 C1445 1.363 . S
C1446 C1452 1.428 . S
H1447 C1443 0.930 . S
H1448 C1445 0.929 . S
S1449 N1450 1.613 . S
S1449 N1451 1.610 . S
N1450 S1449 1.613 . S
N1450 C1453 1.350 . S
N1451 S1449 1.610 . S
N1451 C1452 1.351 . S
C1452 C1446 1.428 . S
C1452 N1451 1.351 . S
C1452 C1453 1.434 . S
C1453 C1444 1.429 . S
C1453 N1450 1.350 . S
C1453 C1452 1.434 . S
C1454 C1455 1.369 . S
C1454 C1456 1.419 . S
C1454 H1458 0.930 . S
C1455 C1454 1.369 . S
C1455 C1464 1.429 . S
C1456 C1454 1.419 . S
C1456 C1457 1.363 . S
C1456 H1459 0.929 . S
C1457 C1456 1.363 . S
C1457 C1463 1.428 . S
H1458 C1454 0.930 . S
H1459 C1456 0.929 . S
S1460 N1461 1.613 . S
S1460 N1462 1.610 . S
N1461 S1460 1.613 . S
N1461 C1464 1.350 . S
N1462 S1460 1.610 . S
N1462 C1463 1.351 . S
C1463 C1457 1.428 . S
C1463 N1462 1.351 . S
C1463 C1464 1.434 . S
C1464 C1455 1.429 . S
C1464 N1461 1.350 . S
C1464 C1463 1.434 . S
C1465 C1466 1.369 . S
C1465 C1467 1.419 . S
C1465 H1469 0.930 . S
C1466 C1465 1.369 . S
C1466 C1475 1.429 . S
C1467 C1465 1.419 . S
C1467 C1468 1.363 . S
C1467 H1470 0.929 . S
C1468 C1467 1.363 . S
C1468 C1474 1.428 . S
H1469 C1465 0.930 . S
H1470 C1467 0.929 . S
S1471 N1472 1.613 . S
S1471 N1473 1.610 . S
N1472 S1471 1.613 . S
N1472 C1475 1.350 . S
N1473 S1471 1.610 . S
N1473 C1474 1.351 . S
C1474 C1468 1.428 . S
C1474 N1473 1.351 . S
C1474 C1475 1.434 . S
C1475 C1466 1.429 . S
C1475 N1472 1.350 . S
C1475 C1474 1.434 . S
C1476 C1477 1.369 . S
C1476 C1478 1.419 . S
C1476 H1480 0.930 . S
C1477 C1476 1.369 . S
C1477 C1486 1.429 . S
C1478 C1476 1.419 . S
C1478 C1479 1.363 . S
C1478 H1481 0.929 . S
C1479 C1478 1.363 . S
C1479 C1485 1.428 . S
H1480 C1476 0.930 . S
H1481 C1478 0.929 . S
S1482 N1483 1.613 . S
S1482 N1484 1.610 . S
N1483 S1482 1.613 . S
N1483 C1486 1.350 . S
N1484 S1482 1.610 . S
N1484 C1485 1.351 . S
C1485 C1479 1.428 . S
C1485 N1484 1.351 . S
C1485 C1486 1.434 . S
C1486 C1477 1.429 . S
C1486 N1483 1.350 . S
C1486 C1485 1.434 . S
C1487 C1488 1.369 . S
C1487 C1489 1.419 . S
C1487 H1491 0.930 . S
C1488 C1487 1.369 . S
C1488 C1497 1.429 . S
C1489 C1487 1.419 . S
C1489 C1490 1.363 . S
C1489 H1492 0.929 . S
C1490 C1489 1.363 . S
C1490 C1496 1.428 . S
H1491 C1487 0.930 . S
H1492 C1489 0.929 . S
S1493 N1494 1.613 . S
S1493 N1495 1.610 . S
N1494 S1493 1.613 . S
N1494 C1497 1.350 . S
N1495 S1493 1.610 . S
N1495 C1496 1.351 . S
C1496 C1490 1.428 . S
C1496 N1495 1.351 . S
C1496 C1497 1.434 . S
C1497 C1488 1.429 . S
C1497 N1494 1.350 . S
C1497 C1496 1.434 . S
C1498 C1499 1.369 . S
C1498 C1500 1.419 . S
C1498 H1502 0.930 . S
C1499 C1498 1.369 . S
C1499 C1508 1.429 . S
C1500 C1498 1.419 . S
C1500 C1501 1.363 . S
C1500 H1503 0.929 . S
C1501 C1500 1.363 . S
C1501 C1507 1.428 . S
H1502 C1498 0.930 . S
H1503 C1500 0.929 . S
S1504 N1505 1.613 . S
S1504 N1506 1.610 . S
N1505 S1504 1.613 . S
N1505 C1508 1.350 . S
N1506 S1504 1.610 . S
N1506 C1507 1.351 . S
C1507 C1501 1.428 . S
C1507 N1506 1.351 . S
C1507 C1508 1.434 . S
C1508 C1499 1.429 . S
C1508 N1505 1.350 . S
C1508 C1507 1.434 . S
C1509 C1510 1.369 . S
C1509 C1511 1.419 . S
C1509 H1513 0.930 . S
C1510 C1509 1.369 . S
C1510 C1519 1.429 . S
C1511 C1509 1.419 . S
C1511 C1512 1.363 . S
C1511 H1514 0.929 . S
C1512 C1511 1.363 . S
C1512 C1518 1.428 . S
H1513 C1509 0.930 . S
H1514 C1511 0.929 . S
S1515 N1516 1.613 . S
S1515 N1517 1.610 . S
N1516 S1515 1.613 . S
N1516 C1519 1.350 . S
N1517 S1515 1.610 . S
N1517 C1518 1.351 . S
C1518 C1512 1.428 . S
C1518 N1517 1.351 . S
C1518 C1519 1.434 . S
C1519 C1510 1.429 . S
C1519 N1516 1.350 . S
C1519 C1518 1.434 . S
C1520 C1521 1.369 . S
C1520 C1522 1.419 . S
C1520 H1524 0.930 . S
C1521 C1520 1.369 . S
C1521 C1530 1.429 . S
C1522 C1520 1.419 . S
C1522 C1523 1.363 . S
C1522 H1525 0.929 . S
C1523 C1522 1.363 . S
C1523 C1529 1.428 . S
H1524 C1520 0.930 . S
H1525 C1522 0.929 . S
S1526 N1527 1.613 . S
S1526 N1528 1.610 . S
N1527 S1526 1.613 . S
N1527 C1530 1.350 . S
N1528 S1526 1.610 . S
N1528 C1529 1.351 . S
C1529 C1523 1.428 . S
C1529 N1528 1.351 . S
C1529 C1530 1.434 . S
C1530 C1521 1.429 . S
C1530 N1527 1.350 . S
C1530 C1529 1.434 . S
C1531 C1532 1.369 . S
C1531 C1533 1.419 . S
C1531 H1535 0.930 . S
C1532 C1531 1.369 . S
C1532 C1541 1.429 . S
C1533 C1531 1.419 . S
C1533 C1534 1.363 . S
C1533 H1536 0.929 . S
C1534 C1533 1.363 . S
C1534 C1540 1.428 . S
H1535 C1531 0.930 . S
H1536 C1533 0.929 . S
S1537 N1538 1.613 . S
S1537 N1539 1.610 . S
N1538 S1537 1.613 . S
N1538 C1541 1.350 . S
N1539 S1537 1.610 . S
N1539 C1540 1.351 . S
C1540 C1534 1.428 . S
C1540 N1539 1.351 . S
C1540 C1541 1.434 . S
C1541 C1532 1.429 . S
C1541 N1538 1.350 . S
C1541 C1540 1.434 . S
C1542 C1543 1.369 . S
C1542 C1544 1.419 . S
C1542 H1546 0.930 . S
C1543 C1542 1.369 . S
C1543 C1552 1.429 . S
C1544 C1542 1.419 . S
C1544 C1545 1.363 . S
C1544 H1547 0.929 . S
C1545 C1544 1.363 . S
C1545 C1551 1.428 . S
H1546 C1542 0.930 . S
H1547 C1544 0.929 . S
S1548 N1549 1.613 . S
S1548 N1550 1.610 . S
N1549 S1548 1.613 . S
N1549 C1552 1.350 . S
N1550 S1548 1.610 . S
N1550 C1551 1.351 . S
C1551 C1545 1.428 . S
C1551 N1550 1.351 . S
C1551 C1552 1.434 . S
C1552 C1543 1.429 . S
C1552 N1549 1.350 . S
C1552 C1551 1.434 . S
C1553 C1554 1.369 . S
C1553 C1555 1.419 . S
C1553 H1557 0.930 . S
C1554 C1553 1.369 . S
C1554 C1563 1.429 . S
C1555 C1553 1.419 . S
C1555 C1556 1.363 . S
C1555 H1558 0.929 . S
C1556 C1555 1.363 . S
C1556 C1562 1.428 . S
H1557 C1553 0.930 . S
H1558 C1555 0.929 . S
S1559 N1560 1.613 . S
S1559 N1561 1.610 . S
N1560 S1559 1.613 . S
N1560 C1563 1.350 . S
N1561 S1559 1.610 . S
N1561 C1562 1.351 . S
C1562 C1556 1.428 . S
C1562 N1561 1.351 . S
C1562 C1563 1.434 . S
C1563 C1554 1.429 . S
C1563 N1560 1.350 . S
C1563 C1562 1.434 . S
C1564 C1565 1.369 . S
C1564 C1566 1.419 . S
C1564 H1568 0.930 . S
C1565 C1564 1.369 . S
C1565 C1574 1.429 . S
C1566 C1564 1.419 . S
C1566 C1567 1.363 . S
C1566 H1569 0.929 . S
C1567 C1566 1.363 . S
C1567 C1573 1.428 . S
H1568 C1564 0.930 . S
H1569 C1566 0.929 . S
S1570 N1571 1.613 . S
S1570 N1572 1.610 . S
N1571 S1570 1.613 . S
N1571 C1574 1.350 . S
N1572 S1570 1.610 . S
N1572 C1573 1.351 . S
C1573 C1567 1.428 . S
C1573 N1572 1.351 . S
C1573 C1574 1.434 . S
C1574 C1565 1.429 . S
C1574 N1571 1.350 . S
C1574 C1573 1.434 . S
C1575 C1576 1.369 . S
C1575 C1577 1.419 . S
C1575 H1579 0.930 . S
C1576 C1575 1.369 . S
C1576 C1585 1.429 . S
C1577 C1575 1.419 . S
C1577 C1578 1.363 . S
C1577 H1580 0.929 . S
C1578 C1577 1.363 . S
C1578 C1584 1.428 . S
H1579 C1575 0.930 . S
H1580 C1577 0.929 . S
S1581 N1582 1.613 . S
S1581 N1583 1.610 . S
N1582 S1581 1.613 . S
N1582 C1585 1.350 . S
N1583 S1581 1.610 . S
N1583 C1584 1.351 . S
C1584 C1578 1.428 . S
C1584 N1583 1.351 . S
C1584 C1585 1.434 . S
C1585 C1576 1.429 . S
C1585 N1582 1.350 . S
C1585 C1584 1.434 . S
C1586 C1587 1.369 . S
C1586 C1588 1.419 . S
C1586 H1590 0.930 . S
C1587 C1586 1.369 . S
C1587 C1596 1.429 . S
C1588 C1586 1.419 . S
C1588 C1589 1.363 . S
C1588 H1591 0.929 . S
C1589 C1588 1.363 . S
C1589 C1595 1.428 . S
H1590 C1586 0.930 . S
H1591 C1588 0.929 . S
S1592 N1593 1.613 . S
S1592 N1594 1.610 . S
N1593 S1592 1.613 . S
N1593 C1596 1.350 . S
N1594 S1592 1.610 . S
N1594 C1595 1.351 . S
C1595 C1589 1.428 . S
C1595 N1594 1.351 . S
C1595 C1596 1.434 . S
C1596 C1587 1.429 . S
C1596 N1593 1.350 . S
C1596 C1595 1.434 . S
C1597 C1598 1.369 . S
C1597 C1599 1.419 . S
C1597 H1601 0.930 . S
C1598 C1597 1.369 . S
C1598 C1607 1.429 . S
C1599 C1597 1.419 . S
C1599 C1600 1.363 . S
C1599 H1602 0.929 . S
C1600 C1599 1.363 . S
C1600 C1606 1.428 . S
H1601 C1597 0.930 . S
H1602 C1599 0.929 . S
S1603 N1604 1.613 . S
S1603 N1605 1.610 . S
N1604 S1603 1.613 . S
N1604 C1607 1.350 . S
N1605 S1603 1.610 . S
N1605 C1606 1.351 . S
C1606 C1600 1.428 . S
C1606 N1605 1.351 . S
C1606 C1607 1.434 . S
C1607 C1598 1.429 . S
C1607 N1604 1.350 . S
C1607 C1606 1.434 . S
C1608 C1609 1.369 . S
C1608 C1610 1.419 . S
C1608 H1612 0.930 . S
C1609 C1608 1.369 . S
C1609 C1618 1.429 . S
C1610 C1608 1.419 . S
C1610 C1611 1.363 . S
C1610 H1613 0.929 . S
C1611 C1610 1.363 . S
C1611 C1617 1.428 . S
H1612 C1608 0.930 . S
H1613 C1610 0.929 . S
S1614 N1615 1.613 . S
S1614 N1616 1.610 . S
N1615 S1614 1.613 . S
N1615 C1618 1.350 . S
N1616 S1614 1.610 . S
N1616 C1617 1.351 . S
C1617 C1611 1.428 . S
C1617 N1616 1.351 . S
C1617 C1618 1.434 . S
C1618 C1609 1.429 . S
C1618 N1615 1.350 . S
C1618 C1617 1.434 . S
C1619 C1620 1.369 . S
C1619 C1621 1.419 . S
C1619 H1623 0.930 . S
C1620 C1619 1.369 . S
C1620 C1629 1.429 . S
C1621 C1619 1.419 . S
C1621 C1622 1.363 . S
C1621 H1624 0.929 . S
C1622 C1621 1.363 . S
C1622 C1628 1.428 . S
H1623 C1619 0.930 . S
H1624 C1621 0.929 . S
S1625 N1626 1.613 . S
S1625 N1627 1.610 . S
N1626 S1625 1.613 . S
N1626 C1629 1.350 . S
N1627 S1625 1.610 . S
N1627 C1628 1.351 . S
C1628 C1622 1.428 . S
C1628 N1627 1.351 . S
C1628 C1629 1.434 . S
C1629 C1620 1.429 . S
C1629 N1626 1.350 . S
C1629 C1628 1.434 . S
C1630 C1631 1.369 . S
C1630 C1632 1.419 . S
C1630 H1634 0.930 . S
C1631 C1630 1.369 . S
C1631 C1640 1.429 . S
C1632 C1630 1.419 . S
C1632 C1633 1.363 . S
C1632 H1635 0.929 . S
C1633 C1632 1.363 . S
C1633 C1639 1.428 . S
H1634 C1630 0.930 . S
H1635 C1632 0.929 . S
S1636 N1637 1.613 . S
S1636 N1638 1.610 . S
N1637 S1636 1.613 . S
N1637 C1640 1.350 . S
N1638 S1636 1.610 . S
N1638 C1639 1.351 . S
C1639 C1633 1.428 . S
C1639 N1638 1.351 . S
C1639 C1640 1.434 . S
C1640 C1631 1.429 . S
C1640 N1637 1.350 . S
C1640 C1639 1.434 . S
C1641 C1642 1.369 . S
C1641 C1643 1.419 . S
C1641 H1645 0.930 . S
C1642 C1641 1.369 . S
C1642 C1651 1.429 . S
C1643 C1641 1.419 . S
C1643 C1644 1.363 . S
C1643 H1646 0.929 . S
C1644 C1643 1.363 . S
C1644 C1650 1.428 . S
H1645 C1641 0.930 . S
H1646 C1643 0.929 . S
S1647 N1648 1.613 . S
S1647 N1649 1.610 . S
N1648 S1647 1.613 . S
N1648 C1651 1.350 . S
N1649 S1647 1.610 . S
N1649 C1650 1.351 . S
C1650 C1644 1.428 . S
C1650 N1649 1.351 . S
C1650 C1651 1.434 . S
C1651 C1642 1.429 . S
C1651 N1648 1.350 . S
C1651 C1650 1.434 . S
C1652 C1653 1.369 . S
C1652 C1654 1.419 . S
C1652 H1656 0.930 . S
C1653 C1652 1.369 . S
C1653 C1662 1.429 . S
C1654 C1652 1.419 . S
C1654 C1655 1.363 . S
C1654 H1657 0.929 . S
C1655 C1654 1.363 . S
C1655 C1661 1.428 . S
H1656 C1652 0.930 . S
H1657 C1654 0.929 . S
S1658 N1659 1.613 . S
S1658 N1660 1.610 . S
N1659 S1658 1.613 . S
N1659 C1662 1.350 . S
N1660 S1658 1.610 . S
N1660 C1661 1.351 . S
C1661 C1655 1.428 . S
C1661 N1660 1.351 . S
C1661 C1662 1.434 . S
C1662 C1653 1.429 . S
C1662 N1659 1.350 . S
C1662 C1661 1.434 . S
C1663 C1664 1.369 . S
C1663 C1665 1.419 . S
C1663 H1667 0.930 . S
C1664 C1663 1.369 . S
C1664 C1673 1.429 . S
C1665 C1663 1.419 . S
C1665 C1666 1.363 . S
C1665 H1668 0.929 . S
C1666 C1665 1.363 . S
C1666 C1672 1.428 . S
H1667 C1663 0.930 . S
H1668 C1665 0.929 . S
S1669 N1670 1.613 . S
S1669 N1671 1.610 . S
N1670 S1669 1.613 . S
N1670 C1673 1.350 . S
N1671 S1669 1.610 . S
N1671 C1672 1.351 . S
C1672 C1666 1.428 . S
C1672 N1671 1.351 . S
C1672 C1673 1.434 . S
C1673 C1664 1.429 . S
C1673 N1670 1.350 . S
C1673 C1672 1.434 . S
C1674 C1675 1.369 . S
C1674 C1676 1.419 . S
C1674 H1678 0.930 . S
C1675 C1674 1.369 . S
C1675 C1684 1.429 . S
C1676 C1674 1.419 . S
C1676 C1677 1.363 . S
C1676 H1679 0.929 . S
C1677 C1676 1.363 . S
C1677 C1683 1.428 . S
H1678 C1674 0.930 . S
H1679 C1676 0.929 . S
S1680 N1681 1.613 . S
S1680 N1682 1.610 . S
N1681 S1680 1.613 . S
N1681 C1684 1.350 . S
N1682 S1680 1.610 . S
N1682 C1683 1.351 . S
C1683 C1677 1.428 . S
C1683 N1682 1.351 . S
C1683 C1684 1.434 . S
C1684 C1675 1.429 . S
C1684 N1681 1.350 . S
C1684 C1683 1.434 . S
C1685 C1686 1.369 . S
C1685 C1687 1.419 . S
C1685 H1689 0.930 . S
C1686 C1685 1.369 . S
C1686 C1695 1.429 . S
C1687 C1685 1.419 . S
C1687 C1688 1.363 . S
C1687 H1690 0.929 . S
C1688 C1687 1.363 . S
C1688 C1694 1.428 . S
H1689 C1685 0.930 . S
H1690 C1687 0.929 . S
S1691 N1692 1.613 . S
S1691 N1693 1.610 . S
N1692 S1691 1.613 . S
N1692 C1695 1.350 . S
N1693 S1691 1.610 . S
N1693 C1694 1.351 . S
C1694 C1688 1.428 . S
C1694 N1693 1.351 . S
C1694 C1695 1.434 . S
C1695 C1686 1.429 . S
C1695 N1692 1.350 . S
C1695 C1694 1.434 . S
C1696 C1697 1.369 . S
C1696 C1698 1.419 . S
C1696 H1700 0.930 . S
C1697 C1696 1.369 . S
C1697 C1706 1.429 . S
C1698 C1696 1.419 . S
C1698 C1699 1.363 . S
C1698 H1701 0.929 . S
C1699 C1698 1.363 . S
C1699 C1705 1.428 . S
H1700 C1696 0.930 . S
H1701 C1698 0.929 . S
S1702 N1703 1.613 . S
S1702 N1704 1.610 . S
N1703 S1702 1.613 . S
N1703 C1706 1.350 . S
N1704 S1702 1.610 . S
N1704 C1705 1.351 . S
C1705 C1699 1.428 . S
C1705 N1704 1.351 . S
C1705 C1706 1.434 . S
C1706 C1697 1.429 . S
C1706 N1703 1.350 . S
C1706 C1705 1.434 . S
C1707 C1708 1.369 . S
C1707 C1709 1.419 . S
C1707 H1711 0.930 . S
C1708 C1707 1.369 . S
C1708 C1717 1.429 . S
C1709 C1707 1.419 . S
C1709 C1710 1.363 . S
C1709 H1712 0.929 . S
C1710 C1709 1.363 . S
C1710 C1716 1.428 . S
H1711 C1707 0.930 . S
H1712 C1709 0.929 . S
S1713 N1714 1.613 . S
S1713 N1715 1.610 . S
N1714 S1713 1.613 . S
N1714 C1717 1.350 . S
N1715 S1713 1.610 . S
N1715 C1716 1.351 . S
C1716 C1710 1.428 . S
C1716 N1715 1.351 . S
C1716 C1717 1.434 . S
C1717 C1708 1.429 . S
C1717 N1714 1.350 . S
C1717 C1716 1.434 . S
C1718 C1719 1.369 . S
C1718 C1720 1.419 . S
C1718 H1722 0.930 . S
C1719 C1718 1.369 . S
C1719 C1728 1.429 . S
C1720 C1718 1.419 . S
C1720 C1721 1.363 . S
C1720 H1723 0.929 . S
C1721 C1720 1.363 . S
C1721 C1727 1.428 . S
H1722 C1718 0.930 . S
H1723 C1720 0.929 . S
S1724 N1725 1.613 . S
S1724 N1726 1.610 . S
N1725 S1724 1.613 . S
N1725 C1728 1.350 . S
N1726 S1724 1.610 . S
N1726 C1727 1.351 . S
C1727 C1721 1.428 . S
C1727 N1726 1.351 . S
C1727 C1728 1.434 . S
C1728 C1719 1.429 . S
C1728 N1725 1.350 . S
C1728 C1727 1.434 . S
C1729 C1730 1.369 . S
C1729 C1731 1.419 . S
C1729 H1733 0.930 . S
C1730 C1729 1.369 . S
C1730 C1739 1.429 . S
C1731 C1729 1.419 . S
C1731 C1732 1.363 . S
C1731 H1734 0.929 . S
C1732 C1731 1.363 . S
C1732 C1738 1.428 . S
H1733 C1729 0.930 . S
H1734 C1731 0.929 . S
S1735 N1736 1.613 . S
S1735 N1737 1.610 . S
N1736 S1735 1.613 . S
N1736 C1739 1.350 . S
N1737 S1735 1.610 . S
N1737 C1738 1.351 . S
C1738 C1732 1.428 . S
C1738 N1737 1.351 . S
C1738 C1739 1.434 . S
C1739 C1730 1.429 . S
C1739 N1736 1.350 . S
C1739 C1738 1.434 . S
C1740 C1741 1.369 . S
C1740 C1742 1.419 . S
C1740 H1744 0.930 . S
C1741 C1740 1.369 . S
C1741 C1750 1.429 . S
C1742 C1740 1.419 . S
C1742 C1743 1.363 . S
C1742 H1745 0.929 . S
C1743 C1742 1.363 . S
C1743 C1749 1.428 . S
H1744 C1740 0.930 . S
H1745 C1742 0.929 . S
S1746 N1747 1.613 . S
S1746 N1748 1.610 1_554 S
N1747 S1746 1.613 . S
N1747 C1750 1.350 1_554 S
N1748 S1746 1.610 1_556 S
N1748 C1749 1.351 . S
C1749 C1743 1.428 . S
C1749 N1748 1.351 . S
C1749 C1750 1.434 . S
C1750 C1741 1.429 . S
C1750 N1747 1.350 1_556 S
C1750 C1749 1.434 . S
C1751 C1752 1.369 . S
C1751 C1753 1.419 . S
C1751 H1755 0.930 . S
C1752 C1751 1.369 . S
C1752 C1761 1.429 . S
C1753 C1751 1.419 . S
C1753 C1754 1.363 . S
C1753 H1756 0.929 . S
C1754 C1753 1.363 . S
C1754 C1760 1.428 . S
H1755 C1751 0.930 . S
H1756 C1753 0.929 . S
S1757 N1758 1.613 . S
S1757 N1759 1.610 . S
N1758 S1757 1.613 . S
N1758 C1761 1.350 . S
N1759 S1757 1.610 . S
N1759 C1760 1.351 . S
C1760 C1754 1.428 . S
C1760 N1759 1.351 . S
C1760 C1761 1.434 . S
C1761 C1752 1.429 . S
C1761 N1758 1.350 . S
C1761 C1760 1.434 . S
C1762 C1763 1.369 . S
C1762 C1764 1.419 . S
C1762 H1766 0.930 . S
C1763 C1762 1.369 . S
C1763 C1772 1.429 . S
C1764 C1762 1.419 . S
C1764 C1765 1.363 . S
C1764 H1767 0.929 . S
C1765 C1764 1.363 . S
C1765 C1771 1.428 . S
H1766 C1762 0.930 . S
H1767 C1764 0.929 . S
S1768 N1769 1.613 . S
S1768 N1770 1.610 . S
N1769 S1768 1.613 . S
N1769 C1772 1.350 . S
N1770 S1768 1.610 . S
N1770 C1771 1.351 . S
C1771 C1765 1.428 . S
C1771 N1770 1.351 . S
C1771 C1772 1.434 . S
C1772 C1763 1.429 . S
C1772 N1769 1.350 . S
C1772 C1771 1.434 . S
C1773 C1774 1.369 . S
C1773 C1775 1.419 . S
C1773 H1777 0.930 . S
C1774 C1773 1.369 . S
C1774 C1783 1.429 . S
C1775 C1773 1.419 . S
C1775 C1776 1.363 . S
C1775 H1778 0.929 . S
C1776 C1775 1.363 . S
C1776 C1782 1.428 . S
H1777 C1773 0.930 . S
H1778 C1775 0.929 . S
S1779 N1780 1.613 . S
S1779 N1781 1.610 . S
N1780 S1779 1.613 . S
N1780 C1783 1.350 . S
N1781 S1779 1.610 . S
N1781 C1782 1.351 . S
C1782 C1776 1.428 . S
C1782 N1781 1.351 . S
C1782 C1783 1.434 . S
C1783 C1774 1.429 . S
C1783 N1780 1.350 . S
C1783 C1782 1.434 . S
C1784 C1785 1.369 . S
C1784 C1786 1.419 . S
C1784 H1788 0.930 . S
C1785 C1784 1.369 . S
C1785 C1794 1.429 . S
C1786 C1784 1.419 . S
C1786 C1787 1.363 . S
C1786 H1789 0.929 . S
C1787 C1786 1.363 . S
C1787 C1793 1.428 . S
H1788 C1784 0.930 . S
H1789 C1786 0.929 . S
S1790 N1791 1.613 . S
S1790 N1792 1.610 . S
N1791 S1790 1.613 . S
N1791 C1794 1.350 . S
N1792 S1790 1.610 . S
N1792 C1793 1.351 . S
C1793 C1787 1.428 . S
C1793 N1792 1.351 . S
C1793 C1794 1.434 . S
C1794 C1785 1.429 . S
C1794 N1791 1.350 . S
C1794 C1793 1.434 . S
C1795 C1796 1.369 . S
C1795 C1797 1.419 . S
C1795 H1799 0.930 . S
C1796 C1795 1.369 . S
C1796 C1805 1.429 . S
C1797 C1795 1.419 . S
C1797 C1798 1.363 . S
C1797 H1800 0.929 . S
C1798 C1797 1.363 . S
C1798 C1804 1.428 . S
H1799 C1795 0.930 . S
H1800 C1797 0.929 . S
S1801 N1802 1.613 . S
S1801 N1803 1.610 . S
N1802 S1801 1.613 . S
N1802 C1805 1.350 . S
N1803 S1801 1.610 . S
N1803 C1804 1.351 . S
C1804 C1798 1.428 . S
C1804 N1803 1.351 . S
C1804 C1805 1.434 . S
C1805 C1796 1.429 . S
C1805 N1802 1.350 . S
C1805 C1804 1.434 . S
C1806 C1807 1.369 . S
C1806 C1808 1.419 . S
C1806 H1810 0.930 . S
C1807 C1806 1.369 . S
C1807 C1816 1.429 . S
C1808 C1806 1.419 . S
C1808 C1809 1.363 . S
C1808 H1811 0.929 . S
C1809 C1808 1.363 . S
C1809 C1815 1.428 . S
H1810 C1806 0.930 . S
H1811 C1808 0.929 . S
S1812 N1813 1.613 . S
S1812 N1814 1.610 . S
N1813 S1812 1.613 . S
N1813 C1816 1.350 . S
N1814 S1812 1.610 . S
N1814 C1815 1.351 . S
C1815 C1809 1.428 . S
C1815 N1814 1.351 . S
C1815 C1816 1.434 . S
C1816 C1807 1.429 . S
C1816 N1813 1.350 . S
C1816 C1815 1.434 . S
C1817 C1818 1.369 . S
C1817 C1819 1.419 . S
C1817 H1821 0.930 . S
C1818 C1817 1.369 . S
C1818 C1827 1.429 . S
C1819 C1817 1.419 . S
C1819 C1820 1.363 . S
C1819 H1822 0.929 . S
C1820 C1819 1.363 . S
C1820 C1826 1.428 . S
H1821 C1817 0.930 . S
H1822 C1819 0.929 . S
S1823 N1824 1.613 . S
S1823 N1825 1.610 . S
N1824 S1823 1.613 . S
N1824 C1827 1.350 . S
N1825 S1823 1.610 . S
N1825 C1826 1.351 . S
C1826 C1820 1.428 . S
C1826 N1825 1.351 . S
C1826 C1827 1.434 . S
C1827 C1818 1.429 . S
C1827 N1824 1.350 . S
C1827 C1826 1.434 . S
C1828 C1829 1.369 . S
C1828 C1830 1.419 . S
C1828 H1832 0.930 . S
C1829 C1828 1.369 . S
C1829 C1838 1.429 . S
C1830 C1828 1.419 . S
C1830 C1831 1.363 . S
C1830 H1833 0.929 . S
C1831 C1830 1.363 . S
C1831 C1837 1.428 . S
H1832 C1828 0.930 . S
H1833 C1830 0.929 . S
S1834 N1835 1.613 . S
S1834 N1836 1.610 . S
N1835 S1834 1.613 . S
N1835 C1838 1.350 . S
N1836 S1834 1.610 . S
N1836 C1837 1.351 . S
C1837 C1831 1.428 . S
C1837 N1836 1.351 . S
C1837 C1838 1.434 . S
C1838 C1829 1.429 . S
C1838 N1835 1.350 . S
C1838 C1837 1.434 . S
C1839 C1840 1.369 . S
C1839 C1841 1.419 . S
C1839 H1843 0.930 . S
C1840 C1839 1.369 . S
C1840 C1849 1.429 . S
C1841 C1839 1.419 . S
C1841 C1842 1.363 . S
C1841 H1844 0.929 . S
C1842 C1841 1.363 . S
C1842 C1848 1.428 . S
H1843 C1839 0.930 . S
H1844 C1841 0.929 . S
S1845 N1846 1.613 . S
S1845 N1847 1.610 . S
N1846 S1845 1.613 . S
N1846 C1849 1.350 . S
N1847 S1845 1.610 . S
N1847 C1848 1.351 . S
C1848 C1842 1.428 . S
C1848 N1847 1.351 . S
C1848 C1849 1.434 . S
C1849 C1840 1.429 . S
C1849 N1846 1.350 . S
C1849 C1848 1.434 . S
C1850 C1851 1.369 . S
C1850 C1852 1.419 . S
C1850 H1854 0.930 . S
C1851 C1850 1.369 . S
C1851 C1860 1.429 . S
C1852 C1850 1.419 . S
C1852 C1853 1.363 . S
C1852 H1855 0.929 . S
C1853 C1852 1.363 . S
C1853 C1859 1.428 . S
H1854 C1850 0.930 . S
H1855 C1852 0.929 . S
S1856 N1857 1.613 . S
S1856 N1858 1.610 . S
N1857 S1856 1.613 . S
N1857 C1860 1.350 . S
N1858 S1856 1.610 . S
N1858 C1859 1.351 . S
C1859 C1853 1.428 . S
C1859 N1858 1.351 . S
C1859 C1860 1.434 . S
C1860 C1851 1.429 . S
C1860 N1857 1.350 . S
C1860 C1859 1.434 . S
C1861 C1862 1.369 . S
C1861 C1863 1.419 . S
C1861 H1865 0.930 . S
C1862 C1861 1.369 . S
C1862 C1871 1.429 . S
C1863 C1861 1.419 . S
C1863 C1864 1.363 . S
C1863 H1866 0.929 . S
C1864 C1863 1.363 . S
C1864 C1870 1.428 . S
H1865 C1861 0.930 . S
H1866 C1863 0.929 . S
S1867 N1868 1.613 . S
S1867 N1869 1.610 . S
N1868 S1867 1.613 . S
N1868 C1871 1.350 . S
N1869 S1867 1.610 . S
N1869 C1870 1.351 . S
C1870 C1864 1.428 . S
C1870 N1869 1.351 . S
C1870 C1871 1.434 . S
C1871 C1862 1.429 . S
C1871 N1868 1.350 . S
C1871 C1870 1.434 . S
C1872 C1873 1.369 . S
C1872 C1874 1.419 . S
C1872 H1876 0.930 . S
C1873 C1872 1.369 . S
C1873 C1882 1.429 . S
C1874 C1872 1.419 . S
C1874 C1875 1.363 . S
C1874 H1877 0.929 . S
C1875 C1874 1.363 . S
C1875 C1881 1.428 . S
H1876 C1872 0.930 . S
H1877 C1874 0.929 . S
S1878 N1879 1.613 . S
S1878 N1880 1.610 . S
N1879 S1878 1.613 . S
N1879 C1882 1.350 . S
N1880 S1878 1.610 . S
N1880 C1881 1.351 . S
C1881 C1875 1.428 . S
C1881 N1880 1.351 . S
C1881 C1882 1.434 . S
C1882 C1873 1.429 . S
C1882 N1879 1.350 . S
C1882 C1881 1.434 . S
C1883 C1884 1.369 . S
C1883 C1885 1.419 . S
C1883 H1887 0.930 . S
C1884 C1883 1.369 . S
C1884 C1893 1.429 . S
C1885 C1883 1.419 . S
C1885 C1886 1.363 . S
C1885 H1888 0.929 . S
C1886 C1885 1.363 . S
C1886 C1892 1.428 . S
H1887 C1883 0.930 . S
H1888 C1885 0.929 . S
S1889 N1890 1.613 . S
S1889 N1891 1.610 . S
N1890 S1889 1.613 . S
N1890 C1893 1.350 . S
N1891 S1889 1.610 . S
N1891 C1892 1.351 . S
C1892 C1886 1.428 . S
C1892 N1891 1.351 . S
C1892 C1893 1.434 . S
C1893 C1884 1.429 . S
C1893 N1890 1.350 . S
C1893 C1892 1.434 . S
C1894 C1895 1.369 . S
C1894 C1896 1.419 . S
C1894 H1898 0.930 . S
C1895 C1894 1.369 . S
C1895 C1904 1.429 . S
C1896 C1894 1.419 . S
C1896 C1897 1.363 . S
C1896 H1899 0.929 . S
C1897 C1896 1.363 . S
C1897 C1903 1.428 . S
H1898 C1894 0.930 . S
H1899 C1896 0.929 . S
S1900 N1901 1.613 . S
S1900 N1902 1.610 . S
N1901 S1900 1.613 . S
N1901 C1904 1.350 . S
N1902 S1900 1.610 . S
N1902 C1903 1.351 . S
C1903 C1897 1.428 . S
C1903 N1902 1.351 . S
C1903 C1904 1.434 . S
C1904 C1895 1.429 . S
C1904 N1901 1.350 . S
C1904 C1903 1.434 . S
C1905 C1906 1.369 . S
C1905 C1907 1.419 . S
C1905 H1909 0.930 . S
C1906 C1905 1.369 . S
C1906 C1915 1.429 . S
C1907 C1905 1.419 . S
C1907 C1908 1.363 . S
C1907 H1910 0.929 . S
C1908 C1907 1.363 . S
C1908 C1914 1.428 . S
H1909 C1905 0.930 . S
H1910 C1907 0.929 . S
S1911 N1912 1.613 . S
S1911 N1913 1.610 . S
N1912 S1911 1.613 . S
N1912 C1915 1.350 . S
N1913 S1911 1.610 . S
N1913 C1914 1.351 . S
C1914 C1908 1.428 . S
C1914 N1913 1.351 . S
C1914 C1915 1.434 . S
C1915 C1906 1.429 . S
C1915 N1912 1.350 . S
C1915 C1914 1.434 . S
C1916 C1917 1.369 . S
C1916 C1918 1.419 . S
C1916 H1920 0.930 . S
C1917 C1916 1.369 . S
C1917 C1926 1.429 . S
C1918 C1916 1.419 . S
C1918 C1919 1.363 . S
C1918 H1921 0.929 . S
C1919 C1918 1.363 . S
C1919 C1925 1.428 . S
H1920 C1916 0.930 . S
H1921 C1918 0.929 . S
S1922 N1923 1.613 . S
S1922 N1924 1.610 . S
N1923 S1922 1.613 . S
N1923 C1926 1.350 . S
N1924 S1922 1.610 . S
N1924 C1925 1.351 . S
C1925 C1919 1.428 . S
C1925 N1924 1.351 . S
C1925 C1926 1.434 . S
C1926 C1917 1.429 . S
C1926 N1923 1.350 . S
C1926 C1925 1.434 . S
C1927 C1928 1.369 . S
C1927 C1929 1.419 . S
C1927 H1931 0.930 . S
C1928 C1927 1.369 . S
C1928 C1937 1.429 . S
C1929 C1927 1.419 . S
C1929 C1930 1.363 . S
C1929 H1932 0.929 . S
C1930 C1929 1.363 . S
C1930 C1936 1.428 . S
H1931 C1927 0.930 . S
H1932 C1929 0.929 . S
S1933 N1934 1.613 . S
S1933 N1935 1.610 . S
N1934 S1933 1.613 . S
N1934 C1937 1.350 . S
N1935 S1933 1.610 . S
N1935 C1936 1.351 . S
C1936 C1930 1.428 . S
C1936 N1935 1.351 . S
C1936 C1937 1.434 . S
C1937 C1928 1.429 . S
C1937 N1934 1.350 . S
C1937 C1936 1.434 . S
C1938 C1939 1.369 . S
C1938 C1940 1.419 . S
C1938 H1942 0.930 . S
C1939 C1938 1.369 . S
C1939 C1948 1.429 . S
C1940 C1938 1.419 . S
C1940 C1941 1.363 . S
C1940 H1943 0.929 . S
C1941 C1940 1.363 . S
C1941 C1947 1.428 . S
H1942 C1938 0.930 . S
H1943 C1940 0.929 . S
S1944 N1945 1.613 . S
S1944 N1946 1.610 . S
N1945 S1944 1.613 . S
N1945 C1948 1.350 . S
N1946 S1944 1.610 . S
N1946 C1947 1.351 . S
C1947 C1941 1.428 . S
C1947 N1946 1.351 . S
C1947 C1948 1.434 . S
C1948 C1939 1.429 . S
C1948 N1945 1.350 . S
C1948 C1947 1.434 . S
C1949 C1950 1.369 . S
C1949 C1951 1.419 . S
C1949 H1953 0.930 . S
C1950 C1949 1.369 . S
C1950 C1959 1.429 . S
C1951 C1949 1.419 . S
C1951 C1952 1.363 . S
C1951 H1954 0.929 . S
C1952 C1951 1.363 . S
C1952 C1958 1.428 . S
H1953 C1949 0.930 . S
H1954 C1951 0.929 . S
S1955 N1956 1.613 . S
S1955 N1957 1.610 . S
N1956 S1955 1.613 . S
N1956 C1959 1.350 . S
N1957 S1955 1.610 . S
N1957 C1958 1.351 . S
C1958 C1952 1.428 . S
C1958 N1957 1.351 . S
C1958 C1959 1.434 . S
C1959 C1950 1.429 . S
C1959 N1956 1.350 . S
C1959 C1958 1.434 . S
C1960 C1961 1.369 . S
C1960 C1962 1.419 . S
C1960 H1964 0.930 . S
C1961 C1960 1.369 . S
C1961 C1970 1.429 . S
C1962 C1960 1.419 . S
C1962 C1963 1.363 . S
C1962 H1965 0.929 . S
C1963 C1962 1.363 . S
C1963 C1969 1.428 . S
H1964 C1960 0.930 . S
H1965 C1962 0.929 . S
S1966 N1967 1.613 . S
S1966 N1968 1.610 . S
N1967 S1966 1.613 . S
N1967 C1970 1.350 . S
N1968 S1966 1.610 . S
N1968 C1969 1.351 . S
C1969 C1963 1.428 . S
C1969 N1968 1.351 . S
C1969 C1970 1.434 . S
C1970 C1961 1.429 . S
C1970 N1967 1.350 . S
C1970 C1969 1.434 . S
C1971 C1972 1.369 . S
C1971 C1973 1.419 . S
C1971 H1975 0.930 . S
C1972 C1971 1.369 . S
C1972 C1981 1.429 . S
C1973 C1971 1.419 . S
C1973 C1974 1.363 . S
C1973 H1976 0.929 . S
C1974 C1973 1.363 . S
C1974 C1980 1.428 . S
H1975 C1971 0.930 . S
H1976 C1973 0.929 . S
S1977 N1978 1.613 . S
S1977 N1979 1.610 . S
N1978 S1977 1.613 . S
N1978 C1981 1.350 . S
N1979 S1977 1.610 . S
N1979 C1980 1.351 . S
C1980 C1974 1.428 . S
C1980 N1979 1.351 . S
C1980 C1981 1.434 . S
C1981 C1972 1.429 . S
C1981 N1978 1.350 . S
C1981 C1980 1.434 . S
C1982 C1983 1.369 . S
C1982 C1984 1.419 . S
C1982 H1986 0.930 . S
C1983 C1982 1.369 . S
C1983 C1992 1.429 . S
C1984 C1982 1.419 . S
C1984 C1985 1.363 . S
C1984 H1987 0.929 . S
C1985 C1984 1.363 . S
C1985 C1991 1.428 . S
H1986 C1982 0.930 . S
H1987 C1984 0.929 . S
S1988 N1989 1.613 . S
S1988 N1990 1.610 . S
N1989 S1988 1.613 . S
N1989 C1992 1.350 . S
N1990 S1988 1.610 . S
N1990 C1991 1.351 . S
C1991 C1985 1.428 . S
C1991 N1990 1.351 . S
C1991 C1992 1.434 . S
C1992 C1983 1.429 . S
C1992 N1989 1.350 . S
C1992 C1991 1.434 . S
C1993 C1994 1.369 . S
C1993 C1995 1.419 . S
C1993 H1997 0.930 . S
C1994 C1993 1.369 . S
C1994 C2003 1.429 . S
C1995 C1993 1.419 . S
C1995 C1996 1.363 . S
C1995 H1998 0.929 . S
C1996 C1995 1.363 . S
C1996 C2002 1.428 . S
H1997 C1993 0.930 . S
H1998 C1995 0.929 . S
S1999 N2000 1.613 . S
S1999 N2001 1.610 . S
N2000 S1999 1.613 . S
N2000 C2003 1.350 . S
N2001 S1999 1.610 . S
N2001 C2002 1.351 . S
C2002 C1996 1.428 . S
C2002 N2001 1.351 . S
C2002 C2003 1.434 . S
C2003 C1994 1.429 . S
C2003 N2000 1.350 . S
C2003 C2002 1.434 . S
C2004 C2005 1.369 . S
C2004 C2006 1.419 . S
C2004 H2008 0.930 . S
C2005 C2004 1.369 . S
C2005 C2014 1.429 . S
C2006 C2004 1.419 . S
C2006 C2007 1.363 . S
C2006 H2009 0.929 . S
C2007 C2006 1.363 . S
C2007 C2013 1.428 . S
H2008 C2004 0.930 . S
H2009 C2006 0.929 . S
S2010 N2011 1.613 . S
S2010 N2012 1.610 . S
N2011 S2010 1.613 . S
N2011 C2014 1.350 . S
N2012 S2010 1.610 . S
N2012 C2013 1.351 . S
C2013 C2007 1.428 . S
C2013 N2012 1.351 . S
C2013 C2014 1.434 . S
C2014 C2005 1.429 . S
C2014 N2011 1.350 . S
C2014 C2013 1.434 . S
C2015 C2016 1.369 . S
C2015 C2017 1.419 . S
C2015 H2019 0.930 . S
C2016 C2015 1.369 . S
C2016 C2025 1.429 . S
C2017 C2015 1.419 . S
C2017 C2018 1.363 . S
C2017 H2020 0.929 . S
C2018 C2017 1.363 . S
C2018 C2024 1.428 . S
H2019 C2015 0.930 . S
H2020 C2017 0.929 . S
S2021 N2022 1.613 . S
S2021 N2023 1.610 . S
N2022 S2021 1.613 . S
N2022 C2025 1.350 . S
N2023 S2021 1.610 . S
N2023 C2024 1.351 . S
C2024 C2018 1.428 . S
C2024 N2023 1.351 . S
C2024 C2025 1.434 . S
C2025 C2016 1.429 . S
C2025 N2022 1.350 . S
C2025 C2024 1.434 . S
C2026 C2027 1.369 . S
C2026 C2028 1.419 . S
C2026 H2030 0.930 . S
C2027 C2026 1.369 . S
C2027 C2036 1.429 . S
C2028 C2026 1.419 . S
C2028 C2029 1.363 . S
C2028 H2031 0.929 . S
C2029 C2028 1.363 . S
C2029 C2035 1.428 . S
H2030 C2026 0.930 . S
H2031 C2028 0.929 . S
S2032 N2033 1.613 . S
S2032 N2034 1.610 . S
N2033 S2032 1.613 . S
N2033 C2036 1.350 . S
N2034 S2032 1.610 . S
N2034 C2035 1.351 . S
C2035 C2029 1.428 . S
C2035 N2034 1.351 . S
C2035 C2036 1.434 . S
C2036 C2027 1.429 . S
C2036 N2033 1.350 . S
C2036 C2035 1.434 . S
C2037 C2038 1.369 . S
C2037 C2039 1.419 . S
C2037 H2041 0.930 . S
C2038 C2037 1.369 . S
C2038 C2047 1.429 . S
C2039 C2037 1.419 . S
C2039 C2040 1.363 . S
C2039 H2042 0.929 . S
C2040 C2039 1.363 . S
C2040 C2046 1.428 . S
H2041 C2037 0.930 . S
H2042 C2039 0.929 . S
S2043 N2044 1.613 . S
S2043 N2045 1.610 . S
N2044 S2043 1.613 . S
N2044 C2047 1.350 . S
N2045 S2043 1.610 . S
N2045 C2046 1.351 . S
C2046 C2040 1.428 . S
C2046 N2045 1.351 . S
C2046 C2047 1.434 . S
C2047 C2038 1.429 . S
C2047 N2044 1.350 . S
C2047 C2046 1.434 . S
C2048 C2049 1.369 . S
C2048 C2050 1.419 . S
C2048 H2052 0.930 . S
C2049 C2048 1.369 . S
C2049 C2058 1.429 . S
C2050 C2048 1.419 . S
C2050 C2051 1.363 . S
C2050 H2053 0.929 . S
C2051 C2050 1.363 . S
C2051 C2057 1.428 . S
H2052 C2048 0.930 . S
H2053 C2050 0.929 . S
S2054 N2055 1.613 . S
S2054 N2056 1.610 . S
N2055 S2054 1.613 . S
N2055 C2058 1.350 . S
N2056 S2054 1.610 . S
N2056 C2057 1.351 . S
C2057 C2051 1.428 . S
C2057 N2056 1.351 . S
C2057 C2058 1.434 . S
C2058 C2049 1.429 . S
C2058 N2055 1.350 . S
C2058 C2057 1.434 . S
C2059 C2060 1.369 . S
C2059 C2061 1.419 . S
C2059 H2063 0.930 . S
C2060 C2059 1.369 . S
C2060 C2069 1.429 . S
C2061 C2059 1.419 . S
C2061 C2062 1.363 . S
C2061 H2064 0.929 . S
C2062 C2061 1.363 . S
C2062 C2068 1.428 . S
H2063 C2059 0.930 . S
H2064 C2061 0.929 . S
S2065 N2066 1.613 . S
S2065 N2067 1.610 . S
N2066 S2065 1.613 . S
N2066 C2069 1.350 . S
N2067 S2065 1.610 . S
N2067 C2068 1.351 . S
C2068 C2062 1.428 . S
C2068 N2067 1.351 . S
C2068 C2069 1.434 . S
C2069 C2060 1.429 . S
C2069 N2066 1.350 . S
C2069 C2068 1.434 . S
C2070 C2071 1.369 . S
C2070 C2072 1.419 . S
C2070 H2074 0.930 . S
C2071 C2070 1.369 . S
C2071 C2080 1.429 . S
C2072 C2070 1.419 . S
C2072 C2073 1.363 . S
C2072 H2075 0.929 . S
C2073 C2072 1.363 . S
C2073 C2079 1.428 . S
H2074 C2070 0.930 . S
H2075 C2072 0.929 . S
S2076 N2077 1.613 . S
S2076 N2078 1.610 . S
N2077 S2076 1.613 . S
N2077 C2080 1.350 . S
N2078 S2076 1.610 . S
N2078 C2079 1.351 . S
C2079 C2073 1.428 . S
C2079 N2078 1.351 . S
C2079 C2080 1.434 . S
C2080 C2071 1.429 . S
C2080 N2077 1.350 . S
C2080 C2079 1.434 . S
C2081 C2082 1.369 . S
C2081 C2083 1.419 . S
C2081 H2085 0.930 . S
C2082 C2081 1.369 . S
C2082 C2091 1.429 . S
C2083 C2081 1.419 . S
C2083 C2084 1.363 . S
C2083 H2086 0.929 . S
C2084 C2083 1.363 . S
C2084 C2090 1.428 . S
H2085 C2081 0.930 . S
H2086 C2083 0.929 . S
S2087 N2088 1.613 . S
S2087 N2089 1.610 . S
N2088 S2087 1.613 . S
N2088 C2091 1.350 . S
N2089 S2087 1.610 . S
N2089 C2090 1.351 . S
C2090 C2084 1.428 . S
C2090 N2089 1.351 . S
C2090 C2091 1.434 . S
C2091 C2082 1.429 . S
C2091 N2088 1.350 . S
C2091 C2090 1.434 . S
C2092 C2093 1.369 . S
C2092 C2094 1.419 . S
C2092 H2096 0.930 . S
C2093 C2092 1.369 . S
C2093 C2102 1.429 . S
C2094 C2092 1.419 . S
C2094 C2095 1.363 . S
C2094 H2097 0.929 . S
C2095 C2094 1.363 . S
C2095 C2101 1.428 . S
H2096 C2092 0.930 . S
H2097 C2094 0.929 . S
S2098 N2099 1.613 . S
S2098 N2100 1.610 . S
N2099 S2098 1.613 . S
N2099 C2102 1.350 . S
N2100 S2098 1.610 . S
N2100 C2101 1.351 . S
C2101 C2095 1.428 . S
C2101 N2100 1.351 . S
C2101 C2102 1.434 . S
C2102 C2093 1.429 . S
C2102 N2099 1.350 . S
C2102 C2101 1.434 . S
C2103 C2104 1.369 . S
C2103 C2105 1.419 . S
C2103 H2107 0.930 . S
C2104 C2103 1.369 . S
C2104 C2113 1.429 . S
C2105 C2103 1.419 . S
C2105 C2106 1.363 . S
C2105 H2108 0.929 . S
C2106 C2105 1.363 . S
C2106 C2112 1.428 . S
H2107 C2103 0.930 . S
H2108 C2105 0.929 . S
S2109 N2110 1.613 1_455 S
S2109 N2111 1.610 . S
N2110 S2109 1.613 1_655 S
N2110 C2113 1.350 . S
N2111 S2109 1.610 . S
N2111 C2112 1.351 1_455 S
C2112 C2106 1.428 . S
C2112 N2111 1.351 1_655 S
C2112 C2113 1.434 . S
C2113 C2104 1.429 . S
C2113 N2110 1.350 . S
C2113 C2112 1.434 . S
C2114 C2115 1.369 . S
C2114 C2116 1.419 . S
C2114 H2118 0.930 . S
C2115 C2114 1.369 . S
C2115 C2124 1.429 . S
C2116 C2114 1.419 . S
C2116 C2117 1.363 . S
C2116 H2119 0.929 . S
C2117 C2116 1.363 . S
C2117 C2123 1.428 . S
H2118 C2114 0.930 . S
H2119 C2116 0.929 . S
S2120 N2121 1.613 . S
S2120 N2122 1.610 . S
N2121 S2120 1.613 . S
N2121 C2124 1.350 . S
N2122 S2120 1.610 . S
N2122 C2123 1.351 . S
C2123 C2117 1.428 . S
C2123 N2122 1.351 . S
C2123 C2124 1.434 . S
C2124 C2115 1.429 . S
C2124 N2121 1.350 . S
C2124 C2123 1.434 . S
C2125 C2126 1.369 . S
C2125 C2127 1.419 . S
C2125 H2129 0.930 . S
C2126 C2125 1.369 . S
C2126 C2135 1.429 . S
C2127 C2125 1.419 . S
C2127 C2128 1.363 . S
C2127 H2130 0.929 . S
C2128 C2127 1.363 . S
C2128 C2134 1.428 . S
H2129 C2125 0.930 . S
H2130 C2127 0.929 . S
S2131 N2132 1.613 . S
S2131 N2133 1.610 . S
N2132 S2131 1.613 . S
N2132 C2135 1.350 . S
N2133 S2131 1.610 . S
N2133 C2134 1.351 . S
C2134 C2128 1.428 . S
C2134 N2133 1.351 . S
C2134 C2135 1.434 . S
C2135 C2126 1.429 . S
C2135 N2132 1.350 . S
C2135 C2134 1.434 . S
C2136 C2137 1.369 . S
C2136 C2138 1.419 . S
C2136 H2140 0.930 . S
C2137 C2136 1.369 . S
C2137 C2146 1.429 . S
C2138 C2136 1.419 . S
C2138 C2139 1.363 . S
C2138 H2141 0.929 . S
C2139 C2138 1.363 . S
C2139 C2145 1.428 . S
H2140 C2136 0.930 . S
H2141 C2138 0.929 . S
S2142 N2143 1.613 1_565 S
S2142 N2144 1.610 1_565 S
N2143 S2142 1.613 1_545 S
N2143 C2146 1.350 . S
N2144 S2142 1.610 1_545 S
N2144 C2145 1.351 . S
C2145 C2139 1.428 . S
C2145 N2144 1.351 . S
C2145 C2146 1.434 . S
C2146 C2137 1.429 . S
C2146 N2143 1.350 . S
C2146 C2145 1.434 . S
C2147 C2148 1.369 . S
C2147 C2149 1.419 . S
C2147 H2151 0.930 . S
C2148 C2147 1.369 . S
C2148 C2157 1.429 . S
C2149 C2147 1.419 . S
C2149 C2150 1.363 . S
C2149 H2152 0.929 . S
C2150 C2149 1.363 . S
C2150 C2156 1.428 . S
H2151 C2147 0.930 . S
H2152 C2149 0.929 . S
S2153 N2154 1.613 . S
S2153 N2155 1.610 . S
N2154 S2153 1.613 . S
N2154 C2157 1.350 . S
N2155 S2153 1.610 . S
N2155 C2156 1.351 . S
C2156 C2150 1.428 . S
C2156 N2155 1.351 . S
C2156 C2157 1.434 . S
C2157 C2148 1.429 . S
C2157 N2154 1.350 . S
C2157 C2156 1.434 . S
C2158 C2159 1.369 . S
C2158 C2160 1.419 . S
C2158 H2162 0.930 . S
C2159 C2158 1.369 . S
C2159 C2168 1.429 . S
C2160 C2158 1.419 . S
C2160 C2161 1.363 . S
C2160 H2163 0.929 . S
C2161 C2160 1.363 . S
C2161 C2167 1.428 . S
H2162 C2158 0.930 . S
H2163 C2160 0.929 . S
S2164 N2165 1.613 . S
S2164 N2166 1.610 . S
N2165 S2164 1.613 . S
N2165 C2168 1.350 . S
N2166 S2164 1.610 . S
N2166 C2167 1.351 . S
C2167 C2161 1.428 . S
C2167 N2166 1.351 . S
C2167 C2168 1.434 . S
C2168 C2159 1.429 . S
C2168 N2165 1.350 . S
C2168 C2167 1.434 . S
C2169 C2170 1.369 . S
C2169 C2171 1.419 . S
C2169 H2173 0.930 . S
C2170 C2169 1.369 . S
C2170 C2179 1.429 . S
C2171 C2169 1.419 . S
C2171 C2172 1.363 . S
C2171 H2174 0.929 . S
C2172 C2171 1.363 . S
C2172 C2178 1.428 . S
H2173 C2169 0.930 . S
H2174 C2171 0.929 . S
S2175 N2176 1.613 . S
S2175 N2177 1.610 . S
N2176 S2175 1.613 . S
N2176 C2179 1.350 . S
N2177 S2175 1.610 . S
N2177 C2178 1.351 . S
C2178 C2172 1.428 . S
C2178 N2177 1.351 . S
C2178 C2179 1.434 . S
C2179 C2170 1.429 . S
C2179 N2176 1.350 . S
C2179 C2178 1.434 . S
C2180 C2181 1.369 . S
C2180 C2182 1.419 . S
C2180 H2184 0.930 . S
C2181 C2180 1.369 . S
C2181 C2190 1.429 . S
C2182 C2180 1.419 . S
C2182 C2183 1.363 . S
C2182 H2185 0.929 . S
C2183 C2182 1.363 . S
C2183 C2189 1.428 . S
H2184 C2180 0.930 . S
H2185 C2182 0.929 . S
S2186 N2187 1.613 . S
S2186 N2188 1.610 . S
N2187 S2186 1.613 . S
N2187 C2190 1.350 . S
N2188 S2186 1.610 . S
N2188 C2189 1.351 . S
C2189 C2183 1.428 . S
C2189 N2188 1.351 . S
C2189 C2190 1.434 . S
C2190 C2181 1.429 . S
C2190 N2187 1.350 . S
C2190 C2189 1.434 . S
C2191 C2192 1.369 . S
C2191 C2193 1.419 . S
C2191 H2195 0.930 . S
C2192 C2191 1.369 . S
C2192 C2201 1.429 . S
C2193 C2191 1.419 . S
C2193 C2194 1.363 . S
C2193 H2196 0.929 . S
C2194 C2193 1.363 . S
C2194 C2200 1.428 . S
H2195 C2191 0.930 . S
H2196 C2193 0.929 . S
S2197 N2198 1.613 . S
S2197 N2199 1.610 . S
N2198 S2197 1.613 . S
N2198 C2201 1.350 . S
N2199 S2197 1.610 . S
N2199 C2200 1.351 . S
C2200 C2194 1.428 . S
C2200 N2199 1.351 . S
C2200 C2201 1.434 . S
C2201 C2192 1.429 . S
C2201 N2198 1.350 . S
C2201 C2200 1.434 . S
C2202 C2203 1.369 . S
C2202 C2204 1.419 . S
C2202 H2206 0.930 . S
C2203 C2202 1.369 . S
C2203 C2212 1.429 . S
C2204 C2202 1.419 . S
C2204 C2205 1.363 . S
C2204 H2207 0.929 . S
C2205 C2204 1.363 . S
C2205 C2211 1.428 . S
H2206 C2202 0.930 . S
H2207 C2204 0.929 . S
S2208 N2209 1.613 . S
S2208 N2210 1.610 . S
N2209 S2208 1.613 . S
N2209 C2212 1.350 . S
N2210 S2208 1.610 . S
N2210 C2211 1.351 . S
C2211 C2205 1.428 . S
C2211 N2210 1.351 . S
C2211 C2212 1.434 . S
C2212 C2203 1.429 . S
C2212 N2209 1.350 . S
C2212 C2211 1.434 . S
C2213 C2214 1.369 . S
C2213 C2215 1.419 . S
C2213 H2217 0.930 . S
C2214 C2213 1.369 . S
C2214 C2223 1.429 . S
C2215 C2213 1.419 . S
C2215 C2216 1.363 . S
C2215 H2218 0.929 . S
C2216 C2215 1.363 . S
C2216 C2222 1.428 . S
H2217 C2213 0.930 . S
H2218 C2215 0.929 . S
S2219 N2220 1.613 . S
S2219 N2221 1.610 . S
N2220 S2219 1.613 . S
N2220 C2223 1.350 . S
N2221 S2219 1.610 . S
N2221 C2222 1.351 . S
C2222 C2216 1.428 . S
C2222 N2221 1.351 . S
C2222 C2223 1.434 . S
C2223 C2214 1.429 . S
C2223 N2220 1.350 . S
C2223 C2222 1.434 . S
C2224 C2225 1.369 . S
C2224 C2226 1.419 . S
C2224 H2228 0.930 . S
C2225 C2224 1.369 . S
C2225 C2234 1.429 . S
C2226 C2224 1.419 . S
C2226 C2227 1.363 . S
C2226 H2229 0.929 . S
C2227 C2226 1.363 . S
C2227 C2233 1.428 . S
H2228 C2224 0.930 . S
H2229 C2226 0.929 . S
S2230 N2231 1.613 . S
S2230 N2232 1.610 . S
N2231 S2230 1.613 . S
N2231 C2234 1.350 . S
N2232 S2230 1.610 . S
N2232 C2233 1.351 . S
C2233 C2227 1.428 . S
C2233 N2232 1.351 . S
C2233 C2234 1.434 . S
C2234 C2225 1.429 . S
C2234 N2231 1.350 . S
C2234 C2233 1.434 . S
C2235 C2236 1.369 . S
C2235 C2237 1.419 . S
C2235 H2239 0.930 . S
C2236 C2235 1.369 . S
C2236 C2245 1.429 . S
C2237 C2235 1.419 . S
C2237 C2238 1.363 . S
C2237 H2240 0.929 . S
C2238 C2237 1.363 . S
C2238 C2244 1.428 . S
H2239 C2235 0.930 . S
H2240 C2237 0.929 . S
S2241 N2242 1.613 . S
S2241 N2243 1.610 . S
N2242 S2241 1.613 . S
N2242 C2245 1.350 . S
N2243 S2241 1.610 . S
N2243 C2244 1.351 . S
C2244 C2238 1.428 . S
C2244 N2243 1.351 . S
C2244 C2245 1.434 . S
C2245 C2236 1.429 . S
C2245 N2242 1.350 . S
C2245 C2244 1.434 . S
C2246 C2247 1.369 . S
C2246 C2248 1.419 . S
C2246 H2250 0.930 . S
C2247 C2246 1.369 . S
C2247 C2256 1.429 . S
C2248 C2246 1.419 . S
C2248 C2249 1.363 . S
C2248 H2251 0.929 . S
C2249 C2248 1.363 . S
C2249 C2255 1.428 . S
H2250 C2246 0.930 . S
H2251 C2248 0.929 . S
S2252 N2253 1.613 . S
S2252 N2254 1.610 . S
N2253 S2252 1.613 . S
N2253 C2256 1.350 . S
N2254 S2252 1.610 . S
N2254 C2255 1.351 . S
C2255 C2249 1.428 . S
C2255 N2254 1.351 . S
C2255 C2256 1.434 . S
C2256 C2247 1.429 . S
C2256 N2253 1.350 . S
C2256 C2255 1.434 . S
C2257 C2258 1.369 . S
C2257 C2259 1.419 . S
C2257 H2261 0.930 . S
C2258 C2257 1.369 . S
C2258 C2267 1.429 . S
C2259 C2257 1.419 . S
C2259 C2260 1.363 . S
C2259 H2262 0.929 . S
C2260 C2259 1.363 . S
C2260 C2266 1.428 . S
H2261 C2257 0.930 . S
H2262 C2259 0.929 . S
S2263 N2264 1.613 . S
S2263 N2265 1.610 . S
N2264 S2263 1.613 . S
N2264 C2267 1.350 . S
N2265 S2263 1.610 . S
N2265 C2266 1.351 . S
C2266 C2260 1.428 . S
C2266 N2265 1.351 . S
C2266 C2267 1.434 . S
C2267 C2258 1.429 . S
C2267 N2264 1.350 . S
C2267 C2266 1.434 . S
C2268 C2269 1.369 . S
C2268 C2270 1.419 . S
C2268 H2272 0.930 . S
C2269 C2268 1.369 . S
C2269 C2278 1.429 . S
C2270 C2268 1.419 . S
C2270 C2271 1.363 . S
C2270 H2273 0.929 . S
C2271 C2270 1.363 . S
C2271 C2277 1.428 . S
H2272 C2268 0.930 . S
H2273 C2270 0.929 . S
S2274 N2275 1.613 . S
S2274 N2276 1.610 . S
N2275 S2274 1.613 . S
N2275 C2278 1.350 . S
N2276 S2274 1.610 . S
N2276 C2277 1.351 . S
C2277 C2271 1.428 . S
C2277 N2276 1.351 . S
C2277 C2278 1.434 . S
C2278 C2269 1.429 . S
C2278 N2275 1.350 . S
C2278 C2277 1.434 . S
C2279 C2280 1.369 . S
C2279 C2281 1.419 . S
C2279 H2283 0.930 . S
C2280 C2279 1.369 . S
C2280 C2289 1.429 . S
C2281 C2279 1.419 . S
C2281 C2282 1.363 . S
C2281 H2284 0.929 . S
C2282 C2281 1.363 . S
C2282 C2288 1.428 . S
H2283 C2279 0.930 . S
H2284 C2281 0.929 . S
S2285 N2286 1.613 . S
S2285 N2287 1.610 . S
N2286 S2285 1.613 . S
N2286 C2289 1.350 . S
N2287 S2285 1.610 . S
N2287 C2288 1.351 . S
C2288 C2282 1.428 . S
C2288 N2287 1.351 . S
C2288 C2289 1.434 . S
C2289 C2280 1.429 . S
C2289 N2286 1.350 . S
C2289 C2288 1.434 . S
C2290 C2291 1.369 . S
C2290 C2292 1.419 . S
C2290 H2294 0.930 . S
C2291 C2290 1.369 . S
C2291 C2300 1.429 . S
C2292 C2290 1.419 . S
C2292 C2293 1.363 . S
C2292 H2295 0.929 . S
C2293 C2292 1.363 . S
C2293 C2299 1.428 . S
H2294 C2290 0.930 . S
H2295 C2292 0.929 . S
S2296 N2297 1.613 . S
S2296 N2298 1.610 . S
N2297 S2296 1.613 . S
N2297 C2300 1.350 . S
N2298 S2296 1.610 . S
N2298 C2299 1.351 . S
C2299 C2293 1.428 . S
C2299 N2298 1.351 . S
C2299 C2300 1.434 . S
C2300 C2291 1.429 . S
C2300 N2297 1.350 . S
C2300 C2299 1.434 . S
C2301 C2302 1.369 . S
C2301 C2303 1.419 . S
C2301 H2305 0.930 . S
C2302 C2301 1.369 . S
C2302 C2311 1.429 . S
C2303 C2301 1.419 . S
C2303 C2304 1.363 . S
C2303 H2306 0.929 . S
C2304 C2303 1.363 . S
C2304 C2310 1.428 . S
H2305 C2301 0.930 . S
H2306 C2303 0.929 . S
S2307 N2308 1.613 . S
S2307 N2309 1.610 . S
N2308 S2307 1.613 . S
N2308 C2311 1.350 . S
N2309 S2307 1.610 . S
N2309 C2310 1.351 . S
C2310 C2304 1.428 . S
C2310 N2309 1.351 . S
C2310 C2311 1.434 . S
C2311 C2302 1.429 . S
C2311 N2308 1.350 . S
C2311 C2310 1.434 . S
C2312 C2313 1.369 . S
C2312 C2314 1.419 . S
C2312 H2316 0.930 . S
C2313 C2312 1.369 . S
C2313 C2322 1.429 . S
C2314 C2312 1.419 . S
C2314 C2315 1.363 . S
C2314 H2317 0.929 . S
C2315 C2314 1.363 . S
C2315 C2321 1.428 . S
H2316 C2312 0.930 . S
H2317 C2314 0.929 . S
S2318 N2319 1.613 . S
S2318 N2320 1.610 . S
N2319 S2318 1.613 . S
N2319 C2322 1.350 . S
N2320 S2318 1.610 . S
N2320 C2321 1.351 . S
C2321 C2315 1.428 . S
C2321 N2320 1.351 . S
C2321 C2322 1.434 . S
C2322 C2313 1.429 . S
C2322 N2319 1.350 . S
C2322 C2321 1.434 . S
C2323 C2324 1.369 . S
C2323 C2325 1.419 . S
C2323 H2327 0.930 . S
C2324 C2323 1.369 . S
C2324 C2333 1.429 . S
C2325 C2323 1.419 . S
C2325 C2326 1.363 . S
C2325 H2328 0.929 . S
C2326 C2325 1.363 . S
C2326 C2332 1.428 . S
H2327 C2323 0.930 . S
H2328 C2325 0.929 . S
S2329 N2330 1.613 . S
S2329 N2331 1.610 . S
N2330 S2329 1.613 . S
N2330 C2333 1.350 . S
N2331 S2329 1.610 . S
N2331 C2332 1.351 . S
C2332 C2326 1.428 . S
C2332 N2331 1.351 . S
C2332 C2333 1.434 . S
C2333 C2324 1.429 . S
C2333 N2330 1.350 . S
C2333 C2332 1.434 . S
C2334 C2335 1.369 . S
C2334 C2336 1.419 . S
C2334 H2338 0.930 . S
C2335 C2334 1.369 . S
C2335 C2344 1.429 . S
C2336 C2334 1.419 . S
C2336 C2337 1.363 . S
C2336 H2339 0.929 . S
C2337 C2336 1.363 . S
C2337 C2343 1.428 . S
H2338 C2334 0.930 . S
H2339 C2336 0.929 . S
S2340 N2341 1.613 . S
S2340 N2342 1.610 . S
N2341 S2340 1.613 . S
N2341 C2344 1.350 . S
N2342 S2340 1.610 . S
N2342 C2343 1.351 . S
C2343 C2337 1.428 . S
C2343 N2342 1.351 . S
C2343 C2344 1.434 . S
C2344 C2335 1.429 . S
C2344 N2341 1.350 . S
C2344 C2343 1.434 . S
C2345 C2346 1.369 . S
C2345 C2347 1.419 . S
C2345 H2349 0.930 . S
C2346 C2345 1.369 . S
C2346 C2355 1.429 . S
C2347 C2345 1.419 . S
C2347 C2348 1.363 . S
C2347 H2350 0.929 . S
C2348 C2347 1.363 . S
C2348 C2354 1.428 . S
H2349 C2345 0.930 . S
H2350 C2347 0.929 . S
S2351 N2352 1.613 . S
S2351 N2353 1.610 . S
N2352 S2351 1.613 . S
N2352 C2355 1.350 . S
N2353 S2351 1.610 . S
N2353 C2354 1.351 . S
C2354 C2348 1.428 . S
C2354 N2353 1.351 . S
C2354 C2355 1.434 . S
C2355 C2346 1.429 . S
C2355 N2352 1.350 . S
C2355 C2354 1.434 . S
C2356 C2357 1.369 . S
C2356 C2358 1.419 . S
C2356 H2360 0.930 . S
C2357 C2356 1.369 . S
C2357 C2366 1.429 . S
C2358 C2356 1.419 . S
C2358 C2359 1.363 . S
C2358 H2361 0.929 . S
C2359 C2358 1.363 . S
C2359 C2365 1.428 . S
H2360 C2356 0.930 . S
H2361 C2358 0.929 . S
S2362 N2363 1.613 . S
S2362 N2364 1.610 . S
N2363 S2362 1.613 . S
N2363 C2366 1.350 . S
N2364 S2362 1.610 . S
N2364 C2365 1.351 . S
C2365 C2359 1.428 . S
C2365 N2364 1.351 . S
C2365 C2366 1.434 . S
C2366 C2357 1.429 . S
C2366 N2363 1.350 . S
C2366 C2365 1.434 . S
C2367 C2368 1.369 . S
C2367 C2369 1.419 . S
C2367 H2371 0.930 . S
C2368 C2367 1.369 . S
C2368 C2377 1.429 . S
C2369 C2367 1.419 . S
C2369 C2370 1.363 . S
C2369 H2372 0.929 . S
C2370 C2369 1.363 . S
C2370 C2376 1.428 . S
H2371 C2367 0.930 . S
H2372 C2369 0.929 . S
S2373 N2374 1.583 1_455 S
S2373 N2375 1.606 1_455 S
N2374 S2373 1.583 1_655 S
N2374 C2377 1.350 . S
N2375 S2373 1.606 1_655 S
N2375 C2376 1.351 . S
C2376 C2370 1.428 . S
C2376 N2375 1.351 . S
C2376 C2377 1.434 . S
C2377 C2368 1.429 . S
C2377 N2374 1.350 . S
C2377 C2376 1.434 . S
C2378 C2379 1.369 . S
C2378 C2380 1.419 . S
C2378 H2382 0.930 . S
C2379 C2378 1.369 . S
C2379 C2388 1.429 . S
C2380 C2378 1.419 . S
C2380 C2381 1.363 . S
C2380 H2383 0.929 . S
C2381 C2380 1.363 . S
C2381 C2387 1.428 . S
H2382 C2378 0.930 . S
H2383 C2380 0.929 . S
S2384 N2385 1.613 . S
S2384 N2386 1.610 . S
N2385 S2384 1.613 . S
N2385 C2388 1.350 . S
N2386 S2384 1.610 . S
N2386 C2387 1.351 . S
C2387 C2381 1.428 . S
C2387 N2386 1.351 . S
C2387 C2388 1.434 . S
C2388 C2379 1.429 . S
C2388 N2385 1.350 . S
C2388 C2387 1.434 . S
C2389 C2390 1.369 . S
C2389 C2391 1.419 . S
C2389 H2393 0.930 . S
C2390 C2389 1.369 . S
C2390 C2399 1.429 . S
C2391 C2389 1.419 . S
C2391 C2392 1.363 . S
C2391 H2394 0.929 . S
C2392 C2391 1.363 . S
C2392 C2398 1.428 . S
H2393 C2389 0.930 . S
H2394 C2391 0.929 . S
S2395 N2396 1.613 . S
S2395 N2397 1.610 . S
N2396 S2395 1.613 . S
N2396 C2399 1.350 . S
N2397 S2395 1.610 . S
N2397 C2398 1.351 . S
C2398 C2392 1.428 . S
C2398 N2397 1.351 . S
C2398 C2399 1.434 . S
C2399 C2390 1.429 . S
C2399 N2396 1.350 . S
C2399 C2398 1.434 . S
C2400 C2401 1.369 . S
C2400 C2402 1.419 . S
C2400 H2404 0.930 . S
C2401 C2400 1.369 . S
C2401 C2410 1.429 . S
C2402 C2400 1.419 . S
C2402 C2403 1.363 . S
C2402 H2405 0.929 . S
C2403 C2402 1.363 . S
C2403 C2409 1.428 . S
H2404 C2400 0.930 . S
H2405 C2402 0.929 . S
S2406 N2407 1.613 . S
S2406 N2408 1.610 . S
N2407 S2406 1.613 . S
N2407 C2410 1.350 . S
N2408 S2406 1.610 . S
N2408 C2409 1.351 . S
C2409 C2403 1.428 . S
C2409 N2408 1.351 . S
C2409 C2410 1.434 . S
C2410 C2401 1.429 . S
C2410 N2407 1.350 . S
C2410 C2409 1.434 . S
C2411 C2412 1.369 . S
C2411 C2413 1.419 . S
C2411 H2415 0.930 . S
C2412 C2411 1.369 . S
C2412 C2421 1.429 . S
C2413 C2411 1.419 . S
C2413 C2414 1.363 . S
C2413 H2416 0.929 . S
C2414 C2413 1.363 . S
C2414 C2420 1.428 . S
H2415 C2411 0.930 . S
H2416 C2413 0.929 . S
S2417 N2418 1.613 . S
S2417 N2419 1.610 . S
N2418 S2417 1.613 . S
N2418 C2421 1.350 . S
N2419 S2417 1.610 . S
N2419 C2420 1.351 . S
C2420 C2414 1.428 . S
C2420 N2419 1.351 . S
C2420 C2421 1.434 . S
C2421 C2412 1.429 . S
C2421 N2418 1.350 . S
C2421 C2420 1.434 . S
C2422 C2423 1.369 . S
C2422 C2424 1.419 . S
C2422 H2426 0.930 . S
C2423 C2422 1.369 . S
C2423 C2432 1.429 . S
C2424 C2422 1.419 . S
C2424 C2425 1.363 . S
C2424 H2427 0.929 . S
C2425 C2424 1.363 . S
C2425 C2431 1.428 . S
H2426 C2422 0.930 . S
H2427 C2424 0.929 . S
S2428 N2429 1.613 . S
S2428 N2430 1.610 . S
N2429 S2428 1.613 . S
N2429 C2432 1.350 . S
N2430 S2428 1.610 . S
N2430 C2431 1.351 . S
C2431 C2425 1.428 . S
C2431 N2430 1.351 . S
C2431 C2432 1.434 . S
C2432 C2423 1.429 . S
C2432 N2429 1.350 . S
C2432 C2431 1.434 . S
C2433 C2434 1.369 . S
C2433 C2435 1.419 . S
C2433 H2437 0.930 . S
C2434 C2433 1.369 . S
C2434 C2443 1.429 . S
C2435 C2433 1.419 . S
C2435 C2436 1.363 . S
C2435 H2438 0.929 . S
C2436 C2435 1.363 . S
C2436 C2442 1.428 . S
H2437 C2433 0.930 . S
H2438 C2435 0.929 . S
S2439 N2440 1.613 . S
S2439 N2441 1.610 . S
N2440 S2439 1.613 . S
N2440 C2443 1.350 . S
N2441 S2439 1.610 . S
N2441 C2442 1.351 . S
C2442 C2436 1.428 . S
C2442 N2441 1.351 . S
C2442 C2443 1.434 . S
C2443 C2434 1.429 . S
C2443 N2440 1.350 . S
C2443 C2442 1.434 . S
C2444 C2445 1.369 . S
C2444 C2446 1.419 . S
C2444 H2448 0.930 . S
C2445 C2444 1.369 . S
C2445 C2454 1.429 . S
C2446 C2444 1.419 . S
C2446 C2447 1.363 . S
C2446 H2449 0.929 . S
C2447 C2446 1.363 . S
C2447 C2453 1.428 . S
H2448 C2444 0.930 . S
H2449 C2446 0.929 . S
S2450 N2451 1.613 . S
S2450 N2452 1.610 . S
N2451 S2450 1.613 . S
N2451 C2454 1.350 . S
N2452 S2450 1.610 . S
N2452 C2453 1.351 . S
C2453 C2447 1.428 . S
C2453 N2452 1.351 . S
C2453 C2454 1.434 . S
C2454 C2445 1.429 . S
C2454 N2451 1.350 . S
C2454 C2453 1.434 . S
C2455 C2456 1.369 . S
C2455 C2457 1.419 . S
C2455 H2459 0.930 . S
C2456 C2455 1.369 . S
C2456 C2465 1.429 . S
C2457 C2455 1.419 . S
C2457 C2458 1.363 . S
C2457 H2460 0.929 . S
C2458 C2457 1.363 . S
C2458 C2464 1.428 . S
H2459 C2455 0.930 . S
H2460 C2457 0.929 . S
S2461 N2462 1.613 . S
S2461 N2463 1.610 . S
N2462 S2461 1.613 . S
N2462 C2465 1.350 . S
N2463 S2461 1.610 . S
N2463 C2464 1.351 . S
C2464 C2458 1.428 . S
C2464 N2463 1.351 . S
C2464 C2465 1.434 . S
C2465 C2456 1.429 . S
C2465 N2462 1.350 . S
C2465 C2464 1.434 . S
C2466 C2467 1.369 . S
C2466 C2468 1.419 . S
C2466 H2470 0.930 . S
C2467 C2466 1.369 . S
C2467 C2476 1.429 . S
C2468 C2466 1.419 . S
C2468 C2469 1.363 . S
C2468 H2471 0.929 . S
C2469 C2468 1.363 . S
C2469 C2475 1.428 . S
H2470 C2466 0.930 . S
H2471 C2468 0.929 . S
S2472 N2473 1.613 . S
S2472 N2474 1.610 . S
N2473 S2472 1.613 . S
N2473 C2476 1.350 . S
N2474 S2472 1.610 . S
N2474 C2475 1.351 . S
C2475 C2469 1.428 . S
C2475 N2474 1.351 . S
C2475 C2476 1.434 . S
C2476 C2467 1.429 . S
C2476 N2473 1.350 . S
C2476 C2475 1.434 . S
C2477 C2478 1.369 . S
C2477 C2479 1.419 . S
C2477 H2481 0.930 . S
C2478 C2477 1.369 . S
C2478 C2487 1.429 . S
C2479 C2477 1.419 . S
C2479 C2480 1.363 . S
C2479 H2482 0.929 . S
C2480 C2479 1.363 . S
C2480 C2486 1.428 . S
H2481 C2477 0.930 . S
H2482 C2479 0.929 . S
S2483 N2484 1.613 . S
S2483 N2485 1.610 . S
N2484 S2483 1.613 . S
N2484 C2487 1.350 . S
N2485 S2483 1.610 . S
N2485 C2486 1.351 . S
C2486 C2480 1.428 . S
C2486 N2485 1.351 . S
C2486 C2487 1.434 . S
C2487 C2478 1.429 . S
C2487 N2484 1.350 . S
C2487 C2486 1.434 . S
C2488 C2489 1.369 . S
C2488 C2490 1.419 . S
C2488 H2492 0.930 . S
C2489 C2488 1.369 . S
C2489 C2498 1.429 . S
C2490 C2488 1.419 . S
C2490 C2491 1.363 . S
C2490 H2493 0.929 . S
C2491 C2490 1.363 . S
C2491 C2497 1.428 . S
H2492 C2488 0.930 . S
H2493 C2490 0.929 . S
S2494 N2495 1.613 . S
S2494 N2496 1.610 . S
N2495 S2494 1.613 . S
N2495 C2498 1.350 . S
N2496 S2494 1.610 . S
N2496 C2497 1.351 . S
C2497 C2491 1.428 . S
C2497 N2496 1.351 . S
C2497 C2498 1.434 . S
C2498 C2489 1.429 . S
C2498 N2495 1.350 . S
C2498 C2497 1.434 . S
C2499 C2500 1.369 . S
C2499 C2501 1.419 . S
C2499 H2503 0.930 . S
C2500 C2499 1.369 . S
C2500 C2509 1.429 . S
C2501 C2499 1.419 . S
C2501 C2502 1.363 . S
C2501 H2504 0.929 . S
C2502 C2501 1.363 . S
C2502 C2508 1.428 . S
H2503 C2499 0.930 . S
H2504 C2501 0.929 . S
S2505 N2506 1.613 . S
S2505 N2507 1.610 . S
N2506 S2505 1.613 . S
N2506 C2509 1.350 . S
N2507 S2505 1.610 . S
N2507 C2508 1.351 . S
C2508 C2502 1.428 . S
C2508 N2507 1.351 . S
C2508 C2509 1.434 . S
C2509 C2500 1.429 . S
C2509 N2506 1.350 . S
C2509 C2508 1.434 . S
C2510 C2511 1.369 . S
C2510 C2512 1.419 . S
C2510 H2514 0.930 . S
C2511 C2510 1.369 . S
C2511 C2520 1.429 . S
C2512 C2510 1.419 . S
C2512 C2513 1.363 . S
C2512 H2515 0.929 . S
C2513 C2512 1.363 . S
C2513 C2519 1.428 . S
H2514 C2510 0.930 . S
H2515 C2512 0.929 . S
S2516 N2517 1.613 . S
S2516 N2518 1.610 . S
N2517 S2516 1.613 . S
N2517 C2520 1.350 . S
N2518 S2516 1.610 . S
N2518 C2519 1.351 . S
C2519 C2513 1.428 . S
C2519 N2518 1.351 . S
C2519 C2520 1.434 . S
C2520 C2511 1.429 . S
C2520 N2517 1.350 . S
C2520 C2519 1.434 . S
C2521 C2522 1.369 . S
C2521 C2523 1.419 . S
C2521 H2525 0.930 . S
C2522 C2521 1.369 . S
C2522 C2531 1.429 . S
C2523 C2521 1.419 . S
C2523 C2524 1.363 . S
C2523 H2526 0.929 . S
C2524 C2523 1.363 . S
C2524 C2530 1.428 . S
H2525 C2521 0.930 . S
H2526 C2523 0.929 . S
S2527 N2528 1.613 . S
S2527 N2529 1.610 . S
N2528 S2527 1.613 . S
N2528 C2531 1.350 . S
N2529 S2527 1.610 . S
N2529 C2530 1.351 . S
C2530 C2524 1.428 . S
C2530 N2529 1.351 . S
C2530 C2531 1.434 . S
C2531 C2522 1.429 . S
C2531 N2528 1.350 . S
C2531 C2530 1.434 . S
C2532 C2533 1.369 . S
C2532 C2534 1.419 . S
C2532 H2536 0.930 . S
C2533 C2532 1.369 . S
C2533 C2542 1.429 . S
C2534 C2532 1.419 . S
C2534 C2535 1.363 . S
C2534 H2537 0.929 . S
C2535 C2534 1.363 . S
C2535 C2541 1.428 . S
H2536 C2532 0.930 . S
H2537 C2534 0.929 . S
S2538 N2539 1.613 . S
S2538 N2540 1.610 . S
N2539 S2538 1.613 . S
N2539 C2542 1.350 . S
N2540 S2538 1.610 . S
N2540 C2541 1.351 . S
C2541 C2535 1.428 . S
C2541 N2540 1.351 . S
C2541 C2542 1.434 . S
C2542 C2533 1.429 . S
C2542 N2539 1.350 . S
C2542 C2541 1.434 . S
C2543 C2544 1.369 . S
C2543 C2545 1.419 . S
C2543 H2547 0.930 . S
C2544 C2543 1.369 . S
C2544 C2553 1.429 . S
C2545 C2543 1.419 . S
C2545 C2546 1.363 . S
C2545 H2548 0.929 . S
C2546 C2545 1.363 . S
C2546 C2552 1.428 . S
H2547 C2543 0.930 . S
H2548 C2545 0.929 . S
S2549 N2550 1.613 . S
S2549 N2551 1.610 . S
N2550 S2549 1.613 . S
N2550 C2553 1.350 . S
N2551 S2549 1.610 . S
N2551 C2552 1.351 . S
C2552 C2546 1.428 . S
C2552 N2551 1.351 . S
C2552 C2553 1.434 . S
C2553 C2544 1.429 . S
C2553 N2550 1.350 . S
C2553 C2552 1.434 . S
C2554 C2555 1.369 . S
C2554 C2556 1.419 . S
C2554 H2558 0.930 . S
C2555 C2554 1.369 . S
C2555 C2564 1.429 . S
C2556 C2554 1.419 . S
C2556 C2557 1.363 . S
C2556 H2559 0.929 . S
C2557 C2556 1.363 . S
C2557 C2563 1.428 . S
H2558 C2554 0.930 . S
H2559 C2556 0.929 . S
S2560 N2561 1.613 . S
S2560 N2562 1.610 . S
N2561 S2560 1.613 . S
N2561 C2564 1.350 . S
N2562 S2560 1.610 . S
N2562 C2563 1.351 . S
C2563 C2557 1.428 . S
C2563 N2562 1.351 . S
C2563 C2564 1.434 . S
C2564 C2555 1.429 . S
C2564 N2561 1.350 . S
C2564 C2563 1.434 . S
C2565 C2566 1.369 . S
C2565 C2567 1.419 . S
C2565 H2569 0.930 . S
C2566 C2565 1.369 . S
C2566 C2575 1.429 . S
C2567 C2565 1.419 . S
C2567 C2568 1.363 . S
C2567 H2570 0.929 . S
C2568 C2567 1.363 . S
C2568 C2574 1.428 . S
H2569 C2565 0.930 . S
H2570 C2567 0.929 . S
S2571 N2572 1.613 . S
S2571 N2573 1.610 . S
N2572 S2571 1.613 . S
N2572 C2575 1.350 . S
N2573 S2571 1.610 . S
N2573 C2574 1.351 . S
C2574 C2568 1.428 . S
C2574 N2573 1.351 . S
C2574 C2575 1.434 . S
C2575 C2566 1.429 . S
C2575 N2572 1.350 . S
C2575 C2574 1.434 . S
C2576 C2577 1.369 . S
C2576 C2578 1.419 . S
C2576 H2580 0.930 . S
C2577 C2576 1.369 . S
C2577 C2586 1.429 . S
C2578 C2576 1.419 . S
C2578 C2579 1.363 . S
C2578 H2581 0.929 . S
C2579 C2578 1.363 . S
C2579 C2585 1.428 . S
H2580 C2576 0.930 . S
H2581 C2578 0.929 . S
S2582 N2583 1.613 . S
S2582 N2584 1.610 . S
N2583 S2582 1.613 . S
N2583 C2586 1.350 . S
N2584 S2582 1.610 . S
N2584 C2585 1.351 . S
C2585 C2579 1.428 . S
C2585 N2584 1.351 . S
C2585 C2586 1.434 . S
C2586 C2577 1.429 . S
C2586 N2583 1.350 . S
C2586 C2585 1.434 . S
C2587 C2588 1.369 . S
C2587 C2589 1.419 . S
C2587 H2591 0.930 . S
C2588 C2587 1.369 . S
C2588 C2597 1.429 . S
C2589 C2587 1.419 . S
C2589 C2590 1.363 . S
C2589 H2592 0.929 . S
C2590 C2589 1.363 . S
C2590 C2596 1.428 . S
H2591 C2587 0.930 . S
H2592 C2589 0.929 . S
S2593 N2594 1.613 . S
S2593 N2595 1.610 . S
N2594 S2593 1.613 . S
N2594 C2597 1.350 . S
N2595 S2593 1.610 . S
N2595 C2596 1.351 . S
C2596 C2590 1.428 . S
C2596 N2595 1.351 . S
C2596 C2597 1.434 . S
C2597 C2588 1.429 . S
C2597 N2594 1.350 . S
C2597 C2596 1.434 . S
C2598 C2599 1.369 . S
C2598 C2600 1.419 . S
C2598 H2602 0.930 . S
C2599 C2598 1.369 . S
C2599 C2608 1.429 . S
C2600 C2598 1.419 . S
C2600 C2601 1.363 . S
C2600 H2603 0.929 . S
C2601 C2600 1.363 . S
C2601 C2607 1.428 . S
H2602 C2598 0.930 . S
H2603 C2600 0.929 . S
S2604 N2605 1.613 . S
S2604 N2606 1.610 . S
N2605 S2604 1.613 . S
N2605 C2608 1.350 . S
N2606 S2604 1.610 . S
N2606 C2607 1.351 . S
C2607 C2601 1.428 . S
C2607 N2606 1.351 . S
C2607 C2608 1.434 . S
C2608 C2599 1.429 . S
C2608 N2605 1.350 . S
C2608 C2607 1.434 . S
C2609 C2610 1.369 . S
C2609 C2611 1.419 . S
C2609 H2613 0.930 . S
C2610 C2609 1.369 . S
C2610 C2619 1.429 . S
C2611 C2609 1.419 . S
C2611 C2612 1.363 . S
C2611 H2614 0.929 . S
C2612 C2611 1.363 . S
C2612 C2618 1.428 . S
H2613 C2609 0.930 . S
H2614 C2611 0.929 . S
S2615 N2616 1.613 . S
S2615 N2617 1.610 . S
N2616 S2615 1.613 . S
N2616 C2619 1.350 . S
N2617 S2615 1.610 . S
N2617 C2618 1.351 . S
C2618 C2612 1.428 . S
C2618 N2617 1.351 . S
C2618 C2619 1.434 . S
C2619 C2610 1.429 . S
C2619 N2616 1.350 . S
C2619 C2618 1.434 . S
C2620 C2621 1.369 . S
C2620 C2622 1.419 . S
C2620 H2624 0.930 . S
C2621 C2620 1.369 . S
C2621 C2630 1.429 . S
C2622 C2620 1.419 . S
C2622 C2623 1.363 . S
C2622 H2625 0.929 . S
C2623 C2622 1.363 . S
C2623 C2629 1.428 . S
H2624 C2620 0.930 . S
H2625 C2622 0.929 . S
S2626 N2627 1.613 . S
S2626 N2628 1.610 . S
N2627 S2626 1.613 . S
N2627 C2630 1.350 . S
N2628 S2626 1.610 . S
N2628 C2629 1.351 . S
C2629 C2623 1.428 . S
C2629 N2628 1.351 . S
C2629 C2630 1.434 . S
C2630 C2621 1.429 . S
C2630 N2627 1.350 . S
C2630 C2629 1.434 . S
C2631 C2632 1.369 . S
C2631 C2633 1.419 . S
C2631 H2635 0.930 . S
C2632 C2631 1.369 . S
C2632 C2641 1.429 . S
C2633 C2631 1.419 . S
C2633 C2634 1.363 . S
C2633 H2636 0.929 . S
C2634 C2633 1.363 . S
C2634 C2640 1.428 . S
H2635 C2631 0.930 . S
H2636 C2633 0.929 . S
S2637 N2638 1.613 . S
S2637 N2639 1.610 . S
N2638 S2637 1.613 . S
N2638 C2641 1.350 . S
N2639 S2637 1.610 . S
N2639 C2640 1.351 . S
C2640 C2634 1.428 . S
C2640 N2639 1.351 . S
C2640 C2641 1.434 . S
C2641 C2632 1.429 . S
C2641 N2638 1.350 . S
C2641 C2640 1.434 . S
C2642 C2643 1.369 . S
C2642 C2644 1.419 . S
C2642 H2646 0.930 . S
C2643 C2642 1.369 . S
C2643 C2652 1.429 . S
C2644 C2642 1.419 . S
C2644 C2645 1.363 . S
C2644 H2647 0.929 . S
C2645 C2644 1.363 . S
C2645 C2651 1.428 . S
H2646 C2642 0.930 . S
H2647 C2644 0.929 . S
S2648 N2649 1.613 . S
S2648 N2650 1.610 . S
N2649 S2648 1.613 . S
N2649 C2652 1.350 . S
N2650 S2648 1.610 . S
N2650 C2651 1.351 . S
C2651 C2645 1.428 . S
C2651 N2650 1.351 . S
C2651 C2652 1.434 . S
C2652 C2643 1.429 . S
C2652 N2649 1.350 . S
C2652 C2651 1.434 . S
C2653 C2654 1.369 . S
C2653 C2655 1.419 . S
C2653 H2657 0.930 . S
C2654 C2653 1.369 . S
C2654 C2663 1.429 . S
C2655 C2653 1.419 . S
C2655 C2656 1.363 . S
C2655 H2658 0.929 . S
C2656 C2655 1.363 . S
C2656 C2662 1.428 . S
H2657 C2653 0.930 . S
H2658 C2655 0.929 . S
S2659 N2660 1.613 . S
S2659 N2661 1.610 . S
N2660 S2659 1.613 . S
N2660 C2663 1.350 . S
N2661 S2659 1.610 . S
N2661 C2662 1.351 . S
C2662 C2656 1.428 . S
C2662 N2661 1.351 . S
C2662 C2663 1.434 . S
C2663 C2654 1.429 . S
C2663 N2660 1.350 . S
C2663 C2662 1.434 . S
C2664 C2665 1.369 . S
C2664 C2666 1.419 . S
C2664 H2668 0.930 . S
C2665 C2664 1.369 . S
C2665 C2674 1.429 . S
C2666 C2664 1.419 . S
C2666 C2667 1.363 . S
C2666 H2669 0.929 . S
C2667 C2666 1.363 . S
C2667 C2673 1.428 . S
H2668 C2664 0.930 . S
H2669 C2666 0.929 . S
S2670 N2671 1.613 . S
S2670 N2672 1.610 . S
N2671 S2670 1.613 . S
N2671 C2674 1.350 . S
N2672 S2670 1.610 . S
N2672 C2673 1.351 . S
C2673 C2667 1.428 . S
C2673 N2672 1.351 . S
C2673 C2674 1.434 . S
C2674 C2665 1.429 . S
C2674 N2671 1.350 . S
C2674 C2673 1.434 . S
C2675 C2676 1.369 . S
C2675 C2677 1.419 . S
C2675 H2679 0.930 . S
C2676 C2675 1.369 . S
C2676 C2685 1.429 . S
C2677 C2675 1.419 . S
C2677 C2678 1.363 . S
C2677 H2680 0.929 . S
C2678 C2677 1.363 . S
C2678 C2684 1.428 . S
H2679 C2675 0.930 . S
H2680 C2677 0.929 . S
S2681 N2682 1.613 . S
S2681 N2683 1.610 . S
N2682 S2681 1.613 . S
N2682 C2685 1.350 . S
N2683 S2681 1.610 . S
N2683 C2684 1.351 . S
C2684 C2678 1.428 . S
C2684 N2683 1.351 . S
C2684 C2685 1.434 . S
C2685 C2676 1.429 . S
C2685 N2682 1.350 . S
C2685 C2684 1.434 . S
C2686 C2687 1.369 . S
C2686 C2688 1.419 . S
C2686 H2690 0.930 . S
C2687 C2686 1.369 . S
C2687 C2696 1.429 . S
C2688 C2686 1.419 . S
C2688 C2689 1.363 . S
C2688 H2691 0.929 . S
C2689 C2688 1.363 . S
C2689 C2695 1.428 . S
H2690 C2686 0.930 . S
H2691 C2688 0.929 . S
S2692 N2693 1.613 . S
S2692 N2694 1.610 . S
N2693 S2692 1.613 . S
N2693 C2696 1.350 . S
N2694 S2692 1.610 . S
N2694 C2695 1.351 . S
C2695 C2689 1.428 . S
C2695 N2694 1.351 . S
C2695 C2696 1.434 . S
C2696 C2687 1.429 . S
C2696 N2693 1.350 . S
C2696 C2695 1.434 . S
C2697 C2698 1.369 . S
C2697 C2699 1.419 . S
C2697 H2701 0.930 . S
C2698 C2697 1.369 . S
C2698 C2707 1.429 . S
C2699 C2697 1.419 . S
C2699 C2700 1.363 . S
C2699 H2702 0.929 . S
C2700 C2699 1.363 . S
C2700 C2706 1.428 . S
H2701 C2697 0.930 . S
H2702 C2699 0.929 . S
S2703 N2704 1.613 . S
S2703 N2705 1.610 . S
N2704 S2703 1.613 . S
N2704 C2707 1.350 . S
N2705 S2703 1.610 . S
N2705 C2706 1.351 . S
C2706 C2700 1.428 . S
C2706 N2705 1.351 . S
C2706 C2707 1.434 . S
C2707 C2698 1.429 . S
C2707 N2704 1.350 . S
C2707 C2706 1.434 . S
C2708 C2709 1.369 . S
C2708 C2710 1.419 . S
C2708 H2712 0.930 . S
C2709 C2708 1.369 . S
C2709 C2718 1.429 . S
C2710 C2708 1.419 . S
C2710 C2711 1.363 . S
C2710 H2713 0.929 . S
C2711 C2710 1.363 . S
C2711 C2717 1.428 . S
H2712 C2708 0.930 . S
H2713 C2710 0.929 . S
S2714 N2715 1.613 . S
S2714 N2716 1.610 . S
N2715 S2714 1.613 . S
N2715 C2718 1.350 . S
N2716 S2714 1.610 . S
N2716 C2717 1.351 . S
C2717 C2711 1.428 . S
C2717 N2716 1.351 . S
C2717 C2718 1.434 . S
C2718 C2709 1.429 . S
C2718 N2715 1.350 . S
C2718 C2717 1.434 . S
C2719 C2720 1.369 . S
C2719 C2721 1.419 . S
C2719 H2723 0.930 . S
C2720 C2719 1.369 . S
C2720 C2729 1.429 . S
C2721 C2719 1.419 . S
C2721 C2722 1.363 . S
C2721 H2724 0.929 . S
C2722 C2721 1.363 . S
C2722 C2728 1.428 . S
H2723 C2719 0.930 . S
H2724 C2721 0.929 . S
S2725 N2726 1.613 . S
S2725 N2727 1.610 . S
N2726 S2725 1.613 . S
N2726 C2729 1.350 . S
N2727 S2725 1.610 . S
N2727 C2728 1.351 . S
C2728 C2722 1.428 . S
C2728 N2727 1.351 . S
C2728 C2729 1.434 . S
C2729 C2720 1.429 . S
C2729 N2726 1.350 . S
C2729 C2728 1.434 . S
C2730 C2731 1.369 . S
C2730 C2732 1.419 . S
C2730 H2734 0.930 . S
C2731 C2730 1.369 . S
C2731 C2740 1.429 . S
C2732 C2730 1.419 . S
C2732 C2733 1.363 . S
C2732 H2735 0.929 . S
C2733 C2732 1.363 . S
C2733 C2739 1.428 . S
H2734 C2730 0.930 . S
H2735 C2732 0.929 . S
S2736 N2737 1.613 . S
S2736 N2738 1.610 . S
N2737 S2736 1.613 . S
N2737 C2740 1.350 . S
N2738 S2736 1.610 . S
N2738 C2739 1.351 . S
C2739 C2733 1.428 . S
C2739 N2738 1.351 . S
C2739 C2740 1.434 . S
C2740 C2731 1.429 . S
C2740 N2737 1.350 . S
C2740 C2739 1.434 . S
C2741 C2742 1.369 . S
C2741 C2743 1.419 . S
C2741 H2745 0.930 . S
C2742 C2741 1.369 . S
C2742 C2751 1.429 . S
C2743 C2741 1.419 . S
C2743 C2744 1.363 . S
C2743 H2746 0.929 . S
C2744 C2743 1.363 . S
C2744 C2750 1.428 . S
H2745 C2741 0.930 . S
H2746 C2743 0.929 . S
S2747 N2748 1.613 . S
S2747 N2749 1.610 . S
N2748 S2747 1.613 . S
N2748 C2751 1.350 . S
N2749 S2747 1.610 . S
N2749 C2750 1.351 . S
C2750 C2744 1.428 . S
C2750 N2749 1.351 . S
C2750 C2751 1.434 . S
C2751 C2742 1.429 . S
C2751 N2748 1.350 . S
C2751 C2750 1.434 . S
C2752 C2753 1.369 . S
C2752 C2754 1.419 . S
C2752 H2756 0.930 . S
C2753 C2752 1.369 . S
C2753 C2762 1.429 . S
C2754 C2752 1.419 . S
C2754 C2755 1.363 . S
C2754 H2757 0.929 . S
C2755 C2754 1.363 . S
C2755 C2761 1.428 . S
H2756 C2752 0.930 . S
H2757 C2754 0.929 . S
S2758 N2759 1.613 . S
S2758 N2760 1.610 . S
N2759 S2758 1.613 . S
N2759 C2762 1.350 . S
N2760 S2758 1.610 . S
N2760 C2761 1.351 . S
C2761 C2755 1.428 . S
C2761 N2760 1.351 . S
C2761 C2762 1.434 . S
C2762 C2753 1.429 . S
C2762 N2759 1.350 . S
C2762 C2761 1.434 . S
C2763 C2764 1.369 . S
C2763 C2765 1.419 . S
C2763 H2767 0.930 . S
C2764 C2763 1.369 . S
C2764 C2773 1.429 . S
C2765 C2763 1.419 . S
C2765 C2766 1.363 . S
C2765 H2768 0.929 . S
C2766 C2765 1.363 . S
C2766 C2772 1.428 . S
H2767 C2763 0.930 . S
H2768 C2765 0.929 . S
S2769 N2770 1.613 . S
S2769 N2771 1.610 . S
N2770 S2769 1.613 . S
N2770 C2773 1.350 . S
N2771 S2769 1.610 . S
N2771 C2772 1.351 . S
C2772 C2766 1.428 . S
C2772 N2771 1.351 . S
C2772 C2773 1.434 . S
C2773 C2764 1.429 . S
C2773 N2770 1.350 . S
C2773 C2772 1.434 . S
C2774 C2775 1.369 . S
C2774 C2776 1.419 . S
C2774 H2778 0.930 . S
C2775 C2774 1.369 . S
C2775 C2784 1.429 . S
C2776 C2774 1.419 . S
C2776 C2777 1.363 . S
C2776 H2779 0.929 . S
C2777 C2776 1.363 . S
C2777 C2783 1.428 . S
H2778 C2774 0.930 . S
H2779 C2776 0.929 . S
S2780 N2781 1.613 . S
S2780 N2782 1.610 . S
N2781 S2780 1.613 . S
N2781 C2784 1.350 . S
N2782 S2780 1.610 . S
N2782 C2783 1.351 . S
C2783 C2777 1.428 . S
C2783 N2782 1.351 . S
C2783 C2784 1.434 . S
C2784 C2775 1.429 . S
C2784 N2781 1.350 . S
C2784 C2783 1.434 . S
C2785 C2786 1.369 . S
C2785 C2787 1.419 . S
C2785 H2789 0.930 . S
C2786 C2785 1.369 . S
C2786 C2795 1.429 . S
C2787 C2785 1.419 . S
C2787 C2788 1.363 . S
C2787 H2790 0.929 . S
C2788 C2787 1.363 . S
C2788 C2794 1.428 . S
H2789 C2785 0.930 . S
H2790 C2787 0.929 . S
S2791 N2792 1.613 . S
S2791 N2793 1.610 . S
N2792 S2791 1.613 . S
N2792 C2795 1.350 . S
N2793 S2791 1.610 . S
N2793 C2794 1.351 . S
C2794 C2788 1.428 . S
C2794 N2793 1.351 . S
C2794 C2795 1.434 . S
C2795 C2786 1.429 . S
C2795 N2792 1.350 . S
C2795 C2794 1.434 . S
C2796 C2797 1.369 . S
C2796 C2798 1.419 . S
C2796 H2800 0.930 . S
C2797 C2796 1.369 . S
C2797 C2806 1.429 . S
C2798 C2796 1.419 . S
C2798 C2799 1.363 . S
C2798 H2801 0.929 . S
C2799 C2798 1.363 . S
C2799 C2805 1.428 . S
H2800 C2796 0.930 . S
H2801 C2798 0.929 . S
S2802 N2803 1.613 . S
S2802 N2804 1.610 . S
N2803 S2802 1.613 . S
N2803 C2806 1.350 . S
N2804 S2802 1.610 . S
N2804 C2805 1.351 . S
C2805 C2799 1.428 . S
C2805 N2804 1.351 . S
C2805 C2806 1.434 . S
C2806 C2797 1.429 . S
C2806 N2803 1.350 . S
C2806 C2805 1.434 . S
C2807 C2808 1.369 . S
C2807 C2809 1.419 . S
C2807 H2811 0.930 . S
C2808 C2807 1.369 . S
C2808 C2817 1.429 . S
C2809 C2807 1.419 . S
C2809 C2810 1.363 . S
C2809 H2812 0.929 . S
C2810 C2809 1.363 . S
C2810 C2816 1.428 . S
H2811 C2807 0.930 . S
H2812 C2809 0.929 . S
S2813 N2814 1.613 . S
S2813 N2815 1.610 . S
N2814 S2813 1.613 . S
N2814 C2817 1.350 . S
N2815 S2813 1.610 . S
N2815 C2816 1.351 . S
C2816 C2810 1.428 . S
C2816 N2815 1.351 . S
C2816 C2817 1.434 . S
C2817 C2808 1.429 . S
C2817 N2814 1.350 . S
C2817 C2816 1.434 . S
C2818 C2819 1.369 . S
C2818 C2820 1.419 . S
C2818 H2822 0.930 . S
C2819 C2818 1.369 . S
C2819 C2828 1.429 . S
C2820 C2818 1.419 . S
C2820 C2821 1.363 . S
C2820 H2823 0.929 . S
C2821 C2820 1.363 . S
C2821 C2827 1.428 . S
H2822 C2818 0.930 . S
H2823 C2820 0.929 . S
S2824 N2825 1.613 . S
S2824 N2826 1.610 . S
N2825 S2824 1.613 . S
N2825 C2828 1.350 . S
N2826 S2824 1.610 . S
N2826 C2827 1.351 . S
C2827 C2821 1.428 . S
C2827 N2826 1.351 . S
C2827 C2828 1.434 . S
C2828 C2819 1.429 . S
C2828 N2825 1.350 . S
C2828 C2827 1.434 . S
C2829 C2830 1.369 . S
C2829 C2831 1.419 . S
C2829 H2833 0.930 . S
C2830 C2829 1.369 . S
C2830 C2839 1.429 . S
C2831 C2829 1.419 . S
C2831 C2832 1.363 . S
C2831 H2834 0.929 . S
C2832 C2831 1.363 . S
C2832 C2838 1.428 . S
H2833 C2829 0.930 . S
H2834 C2831 0.929 . S
S2835 N2836 1.613 . S
S2835 N2837 1.610 . S
N2836 S2835 1.613 . S
N2836 C2839 1.350 . S
N2837 S2835 1.610 . S
N2837 C2838 1.351 . S
C2838 C2832 1.428 . S
C2838 N2837 1.351 . S
C2838 C2839 1.434 . S
C2839 C2830 1.429 . S
C2839 N2836 1.350 . S
C2839 C2838 1.434 . S
C2840 C2841 1.369 . S
C2840 C2842 1.419 . S
C2840 H2844 0.930 . S
C2841 C2840 1.369 . S
C2841 C2850 1.429 . S
C2842 C2840 1.419 . S
C2842 C2843 1.363 . S
C2842 H2845 0.929 . S
C2843 C2842 1.363 . S
C2843 C2849 1.428 . S
H2844 C2840 0.930 . S
H2845 C2842 0.929 . S
S2846 N2847 1.613 . S
S2846 N2848 1.610 . S
N2847 S2846 1.613 . S
N2847 C2850 1.350 . S
N2848 S2846 1.610 . S
N2848 C2849 1.351 . S
C2849 C2843 1.428 . S
C2849 N2848 1.351 . S
C2849 C2850 1.434 . S
C2850 C2841 1.429 . S
C2850 N2847 1.350 . S
C2850 C2849 1.434 . S
C2851 C2852 1.369 . S
C2851 C2853 1.419 . S
C2851 H2855 0.930 . S
C2852 C2851 1.369 . S
C2852 C2861 1.429 . S
C2853 C2851 1.419 . S
C2853 C2854 1.363 . S
C2853 H2856 0.929 . S
C2854 C2853 1.363 . S
C2854 C2860 1.428 . S
H2855 C2851 0.930 . S
H2856 C2853 0.929 . S
S2857 N2858 1.613 . S
S2857 N2859 1.610 . S
N2858 S2857 1.613 . S
N2858 C2861 1.350 . S
N2859 S2857 1.610 . S
N2859 C2860 1.351 . S
C2860 C2854 1.428 . S
C2860 N2859 1.351 . S
C2860 C2861 1.434 . S
C2861 C2852 1.429 . S
C2861 N2858 1.350 . S
C2861 C2860 1.434 . S
C2862 C2863 1.369 . S
C2862 C2864 1.419 . S
C2862 H2866 0.930 . S
C2863 C2862 1.369 . S
C2863 C2872 1.429 . S
C2864 C2862 1.419 . S
C2864 C2865 1.363 . S
C2864 H2867 0.929 . S
C2865 C2864 1.363 . S
C2865 C2871 1.428 . S
H2866 C2862 0.930 . S
H2867 C2864 0.929 . S
S2868 N2869 1.613 . S
S2868 N2870 1.610 . S
N2869 S2868 1.613 . S
N2869 C2872 1.350 . S
N2870 S2868 1.610 . S
N2870 C2871 1.351 . S
C2871 C2865 1.428 . S
C2871 N2870 1.351 . S
C2871 C2872 1.434 . S
C2872 C2863 1.429 . S
C2872 N2869 1.350 . S
C2872 C2871 1.434 . S
C2873 C2874 1.369 . S
C2873 C2875 1.419 . S
C2873 H2877 0.930 . S
C2874 C2873 1.369 . S
C2874 C2883 1.429 . S
C2875 C2873 1.419 . S
C2875 C2876 1.363 . S
C2875 H2878 0.929 . S
C2876 C2875 1.363 . S
C2876 C2882 1.428 . S
H2877 C2873 0.930 . S
H2878 C2875 0.929 . S
S2879 N2880 1.613 . S
S2879 N2881 1.610 . S
N2880 S2879 1.613 . S
N2880 C2883 1.350 . S
N2881 S2879 1.610 . S
N2881 C2882 1.351 . S
C2882 C2876 1.428 . S
C2882 N2881 1.351 . S
C2882 C2883 1.434 . S
C2883 C2874 1.429 . S
C2883 N2880 1.350 . S
C2883 C2882 1.434 . S
C2884 C2885 1.369 . S
C2884 C2886 1.419 . S
C2884 H2888 0.930 . S
C2885 C2884 1.369 . S
C2885 C2894 1.429 . S
C2886 C2884 1.419 . S
C2886 C2887 1.363 . S
C2886 H2889 0.929 . S
C2887 C2886 1.363 . S
C2887 C2893 1.428 . S
H2888 C2884 0.930 . S
H2889 C2886 0.929 . S
S2890 N2891 1.613 . S
S2890 N2892 1.610 . S
N2891 S2890 1.613 . S
N2891 C2894 1.350 . S
N2892 S2890 1.610 . S
N2892 C2893 1.351 . S
C2893 C2887 1.428 . S
C2893 N2892 1.351 . S
C2893 C2894 1.434 . S
C2894 C2885 1.429 . S
C2894 N2891 1.350 . S
C2894 C2893 1.434 . S
C2895 C2896 1.369 . S
C2895 C2897 1.419 . S
C2895 H2899 0.930 . S
C2896 C2895 1.369 . S
C2896 C2905 1.429 . S
C2897 C2895 1.419 . S
C2897 C2898 1.363 . S
C2897 H2900 0.929 . S
C2898 C2897 1.363 . S
C2898 C2904 1.428 . S
H2899 C2895 0.930 . S
H2900 C2897 0.929 . S
S2901 N2902 1.613 . S
S2901 N2903 1.610 . S
N2902 S2901 1.613 . S
N2902 C2905 1.350 . S
N2903 S2901 1.610 . S
N2903 C2904 1.351 . S
C2904 C2898 1.428 . S
C2904 N2903 1.351 . S
C2904 C2905 1.434 . S
C2905 C2896 1.429 . S
C2905 N2902 1.350 . S
C2905 C2904 1.434 . S
C2906 C2907 1.369 . S
C2906 C2908 1.419 . S
C2906 H2910 0.930 . S
C2907 C2906 1.369 . S
C2907 C2916 1.429 . S
C2908 C2906 1.419 . S
C2908 C2909 1.363 . S
C2908 H2911 0.929 . S
C2909 C2908 1.363 . S
C2909 C2915 1.428 . S
H2910 C2906 0.930 . S
H2911 C2908 0.929 . S
S2912 N2913 1.613 . S
S2912 N2914 1.610 . S
N2913 S2912 1.613 . S
N2913 C2916 1.350 . S
N2914 S2912 1.610 . S
N2914 C2915 1.351 . S
C2915 C2909 1.428 . S
C2915 N2914 1.351 . S
C2915 C2916 1.434 . S
C2916 C2907 1.429 . S
C2916 N2913 1.350 . S
C2916 C2915 1.434 . S
C2917 C2918 1.369 . S
C2917 C2919 1.419 . S
C2917 H2921 0.930 . S
C2918 C2917 1.369 . S
C2918 C2927 1.429 . S
C2919 C2917 1.419 . S
C2919 C2920 1.363 . S
C2919 H2922 0.929 . S
C2920 C2919 1.363 . S
C2920 C2926 1.428 . S
H2921 C2917 0.930 . S
H2922 C2919 0.929 . S
S2923 N2924 1.613 . S
S2923 N2925 1.610 . S
N2924 S2923 1.613 . S
N2924 C2927 1.350 . S
N2925 S2923 1.610 . S
N2925 C2926 1.351 . S
C2926 C2920 1.428 . S
C2926 N2925 1.351 . S
C2926 C2927 1.434 . S
C2927 C2918 1.429 . S
C2927 N2924 1.350 . S
C2927 C2926 1.434 . S
C2928 C2929 1.369 . S
C2928 C2930 1.419 1_655 S
C2928 H2932 0.930 . S
C2929 C2928 1.369 . S
C2929 C2938 1.429 . S
C2930 C2928 1.419 1_455 S
C2930 C2931 1.363 . S
C2930 H2933 0.929 . S
C2931 C2930 1.363 . S
C2931 C2937 1.428 . S
H2932 C2928 0.930 . S
H2933 C2930 0.929 . S
S2934 N2935 1.613 1_455 S
S2934 N2936 1.610 . S
N2935 S2934 1.613 1_655 S
N2935 C2938 1.350 . S
N2936 S2934 1.610 . S
N2936 C2937 1.351 . S
C2937 C2931 1.428 . S
C2937 N2936 1.351 . S
C2937 C2938 1.434 1_455 S
C2938 C2929 1.429 . S
C2938 N2935 1.350 . S
C2938 C2937 1.434 1_655 S
C2939 C2940 1.369 . S
C2939 C2941 1.419 . S
C2939 H2943 0.930 . S
C2940 C2939 1.369 . S
C2940 C2949 1.429 . S
C2941 C2939 1.419 . S
C2941 C2942 1.363 . S
C2941 H2944 0.929 . S
C2942 C2941 1.363 . S
C2942 C2948 1.428 . S
H2943 C2939 0.930 . S
H2944 C2941 0.929 . S
S2945 N2946 1.613 . S
S2945 N2947 1.610 . S
N2946 S2945 1.613 . S
N2946 C2949 1.350 . S
N2947 S2945 1.610 . S
N2947 C2948 1.351 . S
C2948 C2942 1.428 . S
C2948 N2947 1.351 . S
C2948 C2949 1.434 . S
C2949 C2940 1.429 . S
C2949 N2946 1.350 . S
C2949 C2948 1.434 . S
C2950 C2951 1.369 . S
C2950 C2952 1.419 1_655 S
C2950 H2954 0.930 . S
C2951 C2950 1.369 . S
C2951 C2960 1.429 1_545 S
C2952 C2950 1.419 1_455 S
C2952 C2953 1.363 1_545 S
C2952 H2955 0.929 . S
C2953 C2952 1.363 1_565 S
C2953 C2959 1.428 . S
H2954 C2950 0.930 . S
H2955 C2952 0.929 . S
S2956 N2957 1.613 . S
S2956 N2958 1.610 1_655 S
N2957 S2956 1.613 . S
N2957 C2960 1.350 . S
N2958 S2956 1.610 1_455 S
N2958 C2959 1.351 . S
C2959 C2953 1.428 . S
C2959 N2958 1.351 . S
C2959 C2960 1.434 1_455 S
C2960 C2951 1.429 1_565 S
C2960 N2957 1.350 . S
C2960 C2959 1.434 1_655 S
C2961 C2962 1.369 . S
C2961 C2963 1.419 . S
C2961 H2965 0.930 . S
C2962 C2961 1.369 . S
C2962 C2971 1.429 . S
C2963 C2961 1.419 . S
C2963 C2964 1.363 . S
C2963 H2966 0.929 . S
C2964 C2963 1.363 . S
C2964 C2970 1.428 . S
H2965 C2961 0.930 . S
H2966 C2963 0.929 . S
S2967 N2968 1.613 . S
S2967 N2969 1.610 . S
N2968 S2967 1.613 . S
N2968 C2971 1.350 . S
N2969 S2967 1.610 . S
N2969 C2970 1.351 . S
C2970 C2964 1.428 . S
C2970 N2969 1.351 . S
C2970 C2971 1.434 . S
C2971 C2962 1.429 . S
C2971 N2968 1.350 . S
C2971 C2970 1.434 . S
C2972 C2973 1.369 . S
C2972 C2974 1.419 1_455 S
C2972 H2976 0.930 . S
C2973 C2972 1.369 . S
C2973 C2982 1.429 . S
C2974 C2972 1.419 1_655 S
C2974 C2975 1.363 . S
C2974 H2977 0.929 . S
C2975 C2974 1.363 . S
C2975 C2981 1.428 . S
H2976 C2972 0.930 . S
H2977 C2974 0.929 . S
S2978 N2979 1.603 1_655 S
S2978 N2980 1.621 . S
N2979 S2978 1.603 1_455 S
N2979 C2982 1.350 . S
N2980 S2978 1.621 . S
N2980 C2981 1.351 . S
C2981 C2975 1.428 . S
C2981 N2980 1.351 . S
C2981 C2982 1.434 1_655 S
C2982 C2973 1.429 . S
C2982 N2979 1.350 . S
C2982 C2981 1.434 1_455 S
C2983 C2984 1.369 . S
C2983 C2985 1.419 . S
C2983 H2987 0.930 . S
C2984 C2983 1.369 . S
C2984 C2993 1.429 . S
C2985 C2983 1.419 . S
C2985 C2986 1.363 . S
C2985 H2988 0.929 . S
C2986 C2985 1.363 . S
C2986 C2992 1.428 . S
H2987 C2983 0.930 . S
H2988 C2985 0.929 . S
S2989 N2990 1.613 . S
S2989 N2991 1.610 . S
N2990 S2989 1.613 . S
N2990 C2993 1.350 . S
N2991 S2989 1.610 . S
N2991 C2992 1.351 . S
C2992 C2986 1.428 . S
C2992 N2991 1.351 . S
C2992 C2993 1.434 . S
C2993 C2984 1.429 . S
C2993 N2990 1.350 . S
C2993 C2992 1.434 . S
C2994 C2995 1.369 1_545 S
C2994 C2996 1.419 1_655 S
C2994 H2998 0.930 . S
C2995 C2994 1.369 1_565 S
C2995 C3004 1.429 . S
C2996 C2994 1.419 1_455 S
C2996 C2997 1.363 . S
C2996 H2999 0.929 . S
C2997 C2996 1.363 . S
C2997 C3003 1.428 1_545 S
H2998 C2994 0.930 . S
H2999 C2996 0.929 . S
S3000 N3001 1.613 1_455 S
S3000 N3002 1.610 . S
N3001 S3000 1.613 1_655 S
N3001 C3004 1.350 . S
N3002 S3000 1.610 . S
N3002 C3003 1.351 . S
C3003 C2997 1.428 1_565 S
C3003 N3002 1.351 . S
C3003 C3004 1.434 1_455 S
C3004 C2995 1.429 . S
C3004 N3001 1.350 . S
C3004 C3003 1.434 1_655 S
C3005 C3006 1.369 . S
C3005 C3007 1.419 . S
C3005 H3009 0.930 . S
C3006 C3005 1.369 . S
C3006 C3015 1.429 . S
C3007 C3005 1.419 . S
C3007 C3008 1.363 . S
C3007 H3010 0.929 . S
C3008 C3007 1.363 . S
C3008 C3014 1.428 . S
H3009 C3005 0.930 . S
H3010 C3007 0.929 . S
S3011 N3012 1.613 . S
S3011 N3013 1.610 . S
N3012 S3011 1.613 . S
N3012 C3015 1.350 . S
N3013 S3011 1.610 . S
N3013 C3014 1.351 . S
C3014 C3008 1.428 . S
C3014 N3013 1.351 . S
C3014 C3015 1.434 . S
C3015 C3006 1.429 . S
C3015 N3012 1.350 . S
C3015 C3014 1.434 . S
C3016 C3017 1.369 . S
C3016 C3018 1.419 1_545 S
C3016 H3020 0.930 . S
C3017 C3016 1.369 . S
C3017 C3026 1.429 . S
C3018 C3016 1.419 1_565 S
C3018 C3019 1.363 . S
C3018 H3021 0.929 . S
C3019 C3018 1.363 . S
C3019 C3025 1.428 . S
H3020 C3016 0.930 . S
H3021 C3018 0.929 . S
S3022 N3023 1.613 1_565 S
S3022 N3024 1.610 . S
N3023 S3022 1.613 1_545 S
N3023 C3026 1.350 . S
N3024 S3022 1.610 . S
N3024 C3025 1.351 . S
C3025 C3019 1.428 . S
C3025 N3024 1.351 . S
C3025 C3026 1.434 1_565 S
C3026 C3017 1.429 . S
C3026 N3023 1.350 . S
C3026 C3025 1.434 1_545 S
C3027 C3028 1.369 . S
C3027 C3029 1.419 . S
C3027 H3031 0.930 . S
C3028 C3027 1.369 . S
C3028 C3037 1.429 . S
C3029 C3027 1.419 . S
C3029 C3030 1.363 . S
C3029 H3032 0.929 . S
C3030 C3029 1.363 . S
C3030 C3036 1.428 . S
H3031 C3027 0.930 . S
H3032 C3029 0.929 . S
S3033 N3034 1.613 . S
S3033 N3035 1.610 . S
N3034 S3033 1.613 . S
N3034 C3037 1.350 . S
N3035 S3033 1.610 . S
N3035 C3036 1.351 . S
C3036 C3030 1.428 . S
C3036 N3035 1.351 . S
C3036 C3037 1.434 . S
C3037 C3028 1.429 . S
C3037 N3034 1.350 . S
C3037 C3036 1.434 . S
C3038 C3039 1.368 1_554 S
C3038 C3040 1.419 . S
C3038 H3042 0.930 . S
C3039 C3038 1.368 1_556 S
C3039 C3048 1.429 . S
C3040 C3038 1.419 . S
C3040 C3041 1.363 . S
C3040 H3043 0.929 . S
C3041 C3040 1.363 . S
C3041 C3047 1.424 1_554 S
H3042 C3038 0.930 . S
H3043 C3040 0.929 . S
S3044 N3045 1.613 . S
S3044 N3046 1.610 . S
N3045 S3044 1.613 . S
N3045 C3048 1.350 . S
N3046 S3044 1.610 . S
N3046 C3047 1.355 . S
C3047 C3041 1.424 1_556 S
C3047 N3046 1.355 . S
C3047 C3048 1.439 . S
C3048 C3039 1.429 . S
C3048 N3045 1.350 . S
C3048 C3047 1.439 . S
C3049 C3050 1.369 . S
C3049 C3051 1.419 . S
C3049 H3053 0.930 . S
C3050 C3049 1.369 . S
C3050 C3059 1.429 . S
C3051 C3049 1.419 . S
C3051 C3052 1.363 . S
C3051 H3054 0.929 . S
C3052 C3051 1.363 . S
C3052 C3058 1.428 . S
H3053 C3049 0.930 . S
H3054 C3051 0.929 . S
S3055 N3056 1.613 . S
S3055 N3057 1.610 . S
N3056 S3055 1.613 . S
N3056 C3059 1.350 . S
N3057 S3055 1.610 . S
N3057 C3058 1.351 . S
C3058 C3052 1.428 . S
C3058 N3057 1.351 . S
C3058 C3059 1.434 . S
C3059 C3050 1.429 . S
C3059 N3056 1.350 . S
C3059 C3058 1.434 . S
C3060 C3061 1.369 . S
C3060 C3062 1.419 1_554 S
C3060 H3064 0.930 . S
C3061 C3060 1.369 . S
C3061 C3070 1.429 . S
C3062 C3060 1.419 1_556 S
C3062 C3063 1.363 . S
C3062 H3065 0.929 . S
C3063 C3062 1.363 . S
C3063 C3069 1.428 . S
H3064 C3060 0.930 . S
H3065 C3062 0.929 . S
S3066 N3067 1.613 . S
S3066 N3068 1.610 1_554 S
N3067 S3066 1.613 . S
N3067 C3070 1.350 . S
N3068 S3066 1.610 1_556 S
N3068 C3069 1.351 . S
C3069 C3063 1.428 . S
C3069 N3068 1.351 . S
C3069 C3070 1.434 1_556 S
C3070 C3061 1.429 . S
C3070 N3067 1.350 . S
C3070 C3069 1.434 1_554 S
C3071 C3072 1.369 1_655 S
C3071 C3073 1.419 . S
C3071 H3075 0.930 . S
C3072 C3071 1.369 1_455 S
C3072 C3081 1.429 . S
C3073 C3071 1.419 . S
C3073 C3074 1.363 . S
C3073 H3076 0.929 . S
C3074 C3073 1.363 . S
C3074 C3080 1.428 1_655 S
H3075 C3071 0.930 . S
H3076 C3073 0.929 . S
S3077 N3078 1.613 . S
S3077 N3079 1.610 . S
N3078 S3077 1.613 . S
N3078 C3081 1.350 . S
N3079 S3077 1.610 . S
N3079 C3080 1.351 . S
C3080 C3074 1.428 1_455 S
C3080 N3079 1.351 . S
C3080 C3081 1.434 . S
C3081 C3072 1.429 . S
C3081 N3078 1.350 . S
C3081 C3080 1.434 . S
C3082 C3083 1.369 . S
C3082 C3084 1.419 . S
C3082 H3086 0.930 . S
C3083 C3082 1.369 . S
C3083 C3092 1.429 . S
C3084 C3082 1.419 . S
C3084 C3085 1.363 . S
C3084 H3087 0.929 . S
C3085 C3084 1.363 . S
C3085 C3091 1.428 . S
H3086 C3082 0.930 . S
H3087 C3084 0.929 . S
S3088 N3089 1.613 . S
S3088 N3090 1.610 . S
N3089 S3088 1.613 . S
N3089 C3092 1.350 . S
N3090 S3088 1.610 . S
N3090 C3091 1.351 . S
C3091 C3085 1.428 . S
C3091 N3090 1.351 . S
C3091 C3092 1.434 . S
C3092 C3083 1.429 . S
C3092 N3089 1.350 . S
C3092 C3091 1.434 . S
C3093 C3094 1.369 1_455 S
C3093 C3095 1.419 1_554 S
C3093 H3097 0.930 . S
C3094 C3093 1.369 1_655 S
C3094 C3103 1.429 . S
C3095 C3093 1.419 1_556 S
C3095 C3096 1.363 . S
C3095 H3098 0.929 . S
C3096 C3095 1.363 . S
C3096 C3102 1.428 1_455 S
H3097 C3093 0.930 . S
H3098 C3095 0.929 . S
S3099 N3100 1.613 1_556 S
S3099 N3101 1.610 . S
N3100 S3099 1.613 1_554 S
N3100 C3103 1.350 . S
N3101 S3099 1.610 . S
N3101 C3102 1.351 . S
C3102 C3096 1.428 1_655 S
C3102 N3101 1.351 . S
C3102 C3103 1.434 1_556 S
C3103 C3094 1.429 . S
C3103 N3100 1.350 . S
C3103 C3102 1.434 1_554 S
C3104 C3105 1.369 . S
C3104 C3106 1.419 . S
C3104 H3108 0.930 . S
C3105 C3104 1.369 . S
C3105 C3114 1.429 . S
C3106 C3104 1.419 . S
C3106 C3107 1.363 . S
C3106 H3109 0.929 . S
C3107 C3106 1.363 . S
C3107 C3113 1.428 . S
H3108 C3104 0.930 . S
H3109 C3106 0.929 . S
S3110 N3111 1.613 . S
S3110 N3112 1.610 . S
N3111 S3110 1.613 . S
N3111 C3114 1.350 . S
N3112 S3110 1.610 . S
N3112 C3113 1.351 . S
C3113 C3107 1.428 . S
C3113 N3112 1.351 . S
C3113 C3114 1.434 . S
C3114 C3105 1.429 . S
C3114 N3111 1.350 . S
C3114 C3113 1.434 . S
C3115 C3116 1.369 . S
C3115 C3117 1.419 1_554 S
C3115 H3119 0.930 . S
C3116 C3115 1.369 . S
C3116 C3125 1.429 . S
C3117 C3115 1.419 1_556 S
C3117 C3118 1.363 . S
C3117 H3120 0.929 . S
C3118 C3117 1.363 . S
C3118 C3124 1.428 . S
H3119 C3115 0.930 . S
H3120 C3117 0.929 . S
S3121 N3122 1.618 . S
S3121 N3123 1.606 1_554 S
N3122 S3121 1.618 . S
N3122 C3125 1.350 . S
N3123 S3121 1.606 1_556 S
N3123 C3124 1.351 . S
C3124 C3118 1.428 . S
C3124 N3123 1.351 . S
C3124 C3125 1.434 1_556 S
C3125 C3116 1.429 . S
C3125 N3122 1.350 . S
C3125 C3124 1.434 1_554 S
C3126 C3127 1.369 . S
C3126 C3128 1.419 . S
C3126 H3130 0.930 . S
C3127 C3126 1.369 . S
C3127 C3136 1.429 . S
C3128 C3126 1.419 . S
C3128 C3129 1.363 . S
C3128 H3131 0.929 . S
C3129 C3128 1.363 . S
C3129 C3135 1.428 . S
H3130 C3126 0.930 . S
H3131 C3128 0.929 . S
S3132 N3133 1.613 . S
S3132 N3134 1.610 . S
N3133 S3132 1.613 . S
N3133 C3136 1.350 . S
N3134 S3132 1.610 . S
N3134 C3135 1.351 . S
C3135 C3129 1.428 . S
C3135 N3134 1.351 . S
C3135 C3136 1.434 . S
C3136 C3127 1.429 . S
C3136 N3133 1.350 . S
C3136 C3135 1.434 . S
C3137 C3138 1.369 . S
C3137 C3139 1.419 . S
C3137 H3141 0.930 . S
C3138 C3137 1.369 . S
C3138 C3147 1.429 . S
C3139 C3137 1.419 . S
C3139 C3140 1.363 . S
C3139 H3142 0.929 . S
C3140 C3139 1.363 . S
C3140 C3146 1.428 . S
H3141 C3137 0.930 . S
H3142 C3139 0.929 . S
S3143 N3144 1.613 . S
S3143 N3145 1.610 . S
N3144 S3143 1.613 . S
N3144 C3147 1.350 . S
N3145 S3143 1.610 . S
N3145 C3146 1.351 . S
C3146 C3140 1.428 . S
C3146 N3145 1.351 . S
C3146 C3147 1.434 . S
C3147 C3138 1.429 . S
C3147 N3144 1.350 . S
C3147 C3146 1.434 . S
C3148 C3149 1.369 . S
C3148 C3150 1.419 . S
C3148 H3152 0.930 . S
C3149 C3148 1.369 . S
C3149 C3158 1.429 . S
C3150 C3148 1.419 . S
C3150 C3151 1.363 . S
C3150 H3153 0.929 . S
C3151 C3150 1.363 . S
C3151 C3157 1.428 . S
H3152 C3148 0.930 . S
H3153 C3150 0.929 . S
S3154 N3155 1.613 . S
S3154 N3156 1.610 . S
N3155 S3154 1.613 . S
N3155 C3158 1.350 . S
N3156 S3154 1.610 . S
N3156 C3157 1.351 . S
C3157 C3151 1.428 . S
C3157 N3156 1.351 . S
C3157 C3158 1.434 . S
C3158 C3149 1.429 . S
C3158 N3155 1.350 . S
C3158 C3157 1.434 . S
C3159 C3160 1.369 . S
C3159 C3161 1.419 . S
C3159 H3163 0.930 . S
C3160 C3159 1.369 . S
C3160 C3169 1.429 . S
C3161 C3159 1.419 . S
C3161 C3162 1.363 . S
C3161 H3164 0.929 . S
C3162 C3161 1.363 . S
C3162 C3168 1.428 . S
H3163 C3159 0.930 . S
H3164 C3161 0.929 . S
S3165 N3166 1.613 . S
S3165 N3167 1.610 . S
N3166 S3165 1.613 . S
N3166 C3169 1.350 . S
N3167 S3165 1.610 . S
N3167 C3168 1.351 . S
C3168 C3162 1.428 . S
C3168 N3167 1.351 . S
C3168 C3169 1.434 . S
C3169 C3160 1.429 . S
C3169 N3166 1.350 . S
C3169 C3168 1.434 . S
C3170 C3171 1.369 . S
C3170 C3172 1.419 . S
C3170 H3174 0.930 . S
C3171 C3170 1.369 . S
C3171 C3180 1.429 . S
C3172 C3170 1.419 . S
C3172 C3173 1.363 . S
C3172 H3175 0.929 . S
C3173 C3172 1.363 . S
C3173 C3179 1.428 . S
H3174 C3170 0.930 . S
H3175 C3172 0.929 . S
S3176 N3177 1.613 . S
S3176 N3178 1.610 . S
N3177 S3176 1.613 . S
N3177 C3180 1.350 . S
N3178 S3176 1.610 . S
N3178 C3179 1.351 . S
C3179 C3173 1.428 . S
C3179 N3178 1.351 . S
C3179 C3180 1.434 . S
C3180 C3171 1.429 . S
C3180 N3177 1.350 . S
C3180 C3179 1.434 . S
C3181 C3182 1.369 . S
C3181 C3183 1.419 . S
C3181 H3185 0.930 . S
C3182 C3181 1.369 . S
C3182 C3191 1.429 1_554 S
C3183 C3181 1.419 . S
C3183 C3184 1.363 1_554 S
C3183 H3186 0.929 . S
C3184 C3183 1.363 1_556 S
C3184 C3190 1.428 . S
H3185 C3181 0.930 . S
H3186 C3183 0.929 . S
S3187 N3188 1.613 . S
S3187 N3189 1.610 . S
N3188 S3187 1.613 . S
N3188 C3191 1.350 . S
N3189 S3187 1.610 . S
N3189 C3190 1.351 . S
C3190 C3184 1.428 . S
C3190 N3189 1.351 . S
C3190 C3191 1.434 . S
C3191 C3182 1.429 1_556 S
C3191 N3188 1.350 . S
C3191 C3190 1.434 . S
C3192 C3193 1.369 . S
C3192 C3194 1.419 . S
C3192 H3196 0.930 . S
C3193 C3192 1.369 . S
C3193 C3202 1.429 . S
C3194 C3192 1.419 . S
C3194 C3195 1.363 . S
C3194 H3197 0.929 . S
C3195 C3194 1.363 . S
C3195 C3201 1.428 . S
H3196 C3192 0.930 . S
H3197 C3194 0.929 . S
S3198 N3199 1.613 . S
S3198 N3200 1.610 . S
N3199 S3198 1.613 . S
N3199 C3202 1.350 . S
N3200 S3198 1.610 . S
N3200 C3201 1.351 . S
C3201 C3195 1.428 . S
C3201 N3200 1.351 . S
C3201 C3202 1.434 . S
C3202 C3193 1.429 . S
C3202 N3199 1.350 . S
C3202 C3201 1.434 . S
C3203 C3204 1.369 . S
C3203 C3205 1.419 1_545 S
C3203 H3207 0.930 . S
C3204 C3203 1.369 . S
C3204 C3213 1.429 . S
C3205 C3203 1.419 1_565 S
C3205 C3206 1.363 . S
C3205 H3208 0.929 . S
C3206 C3205 1.363 . S
C3206 C3212 1.428 . S
H3207 C3203 0.930 . S
H3208 C3205 0.929 . S
S3209 N3210 1.613 1_565 S
S3209 N3211 1.610 . S
N3210 S3209 1.613 1_545 S
N3210 C3213 1.350 . S
N3211 S3209 1.610 . S
N3211 C3212 1.351 . S
C3212 C3206 1.428 . S
C3212 N3211 1.351 . S
C3212 C3213 1.434 1_565 S
C3213 C3204 1.429 . S
C3213 N3210 1.350 . S
C3213 C3212 1.434 1_545 S
C3214 C3215 1.369 . S
C3214 C3216 1.419 . S
C3214 H3218 0.930 . S
C3215 C3214 1.369 . S
C3215 C3224 1.429 . S
C3216 C3214 1.419 . S
C3216 C3217 1.363 . S
C3216 H3219 0.929 . S
C3217 C3216 1.363 . S
C3217 C3223 1.428 . S
H3218 C3214 0.930 . S
H3219 C3216 0.929 . S
S3220 N3221 1.613 . S
S3220 N3222 1.610 . S
N3221 S3220 1.613 . S
N3221 C3224 1.350 . S
N3222 S3220 1.610 . S
N3222 C3223 1.351 . S
C3223 C3217 1.428 . S
C3223 N3222 1.351 . S
C3223 C3224 1.434 . S
C3224 C3215 1.429 . S
C3224 N3221 1.350 . S
C3224 C3223 1.434 . S
C3225 C3226 1.369 . S
C3225 C3227 1.419 . S
C3225 H3229 0.930 . S
C3226 C3225 1.369 . S
C3226 C3235 1.429 . S
C3227 C3225 1.419 . S
C3227 C3228 1.363 . S
C3227 H3230 0.929 . S
C3228 C3227 1.363 . S
C3228 C3234 1.428 . S
H3229 C3225 0.930 . S
H3230 C3227 0.929 . S
S3231 N3232 1.613 . S
S3231 N3233 1.610 . S
N3232 S3231 1.613 . S
N3232 C3235 1.350 . S
N3233 S3231 1.610 . S
N3233 C3234 1.351 . S
C3234 C3228 1.428 . S
C3234 N3233 1.351 . S
C3234 C3235 1.434 . S
C3235 C3226 1.429 . S
C3235 N3232 1.350 . S
C3235 C3234 1.434 . S
C3236 C3237 1.369 . S
C3236 C3238 1.419 1_554 S
C3236 H3240 0.930 . S
C3237 C3236 1.369 . S
C3237 C3246 1.429 1_455 S
C3238 C3236 1.419 1_556 S
C3238 C3239 1.363 1_455 S
C3238 H3241 0.929 . S
C3239 C3238 1.363 1_655 S
C3239 C3245 1.428 . S
H3240 C3236 0.930 . S
H3241 C3238 0.929 . S
S3242 N3243 1.613 . S
S3242 N3244 1.610 1_554 S
N3243 S3242 1.613 . S
N3243 C3246 1.350 . S
N3244 S3242 1.610 1_556 S
N3244 C3245 1.351 . S
C3245 C3239 1.428 . S
C3245 N3244 1.351 . S
C3245 C3246 1.434 1_556 S
C3246 C3237 1.429 1_655 S
C3246 N3243 1.350 . S
C3246 C3245 1.434 1_554 S
C3247 C3248 1.369 . S
C3247 C3249 1.419 . S
C3247 H3251 0.930 . S
C3248 C3247 1.369 . S
C3248 C3257 1.429 . S
C3249 C3247 1.419 . S
C3249 C3250 1.363 . S
C3249 H3252 0.929 . S
C3250 C3249 1.363 . S
C3250 C3256 1.428 . S
H3251 C3247 0.930 . S
H3252 C3249 0.929 . S
S3253 N3254 1.613 . S
S3253 N3255 1.610 . S
N3254 S3253 1.613 . S
N3254 C3257 1.350 . S
N3255 S3253 1.610 . S
N3255 C3256 1.351 . S
C3256 C3250 1.428 . S
C3256 N3255 1.351 . S
C3256 C3257 1.434 . S
C3257 C3248 1.429 . S
C3257 N3254 1.350 . S
C3257 C3256 1.434 . S
C3258 C3259 1.369 . S
C3258 C3260 1.419 . S
C3258 H3262 0.930 . S
C3259 C3258 1.369 . S
C3259 C3268 1.429 1_455 S
C3260 C3258 1.419 . S
C3260 C3261 1.363 1_455 S
C3260 H3263 0.929 . S
C3261 C3260 1.363 1_655 S
C3261 C3267 1.428 . S
H3262 C3258 0.930 . S
H3263 C3260 0.929 . S
S3264 N3265 1.613 . S
S3264 N3266 1.610 . S
N3265 S3264 1.613 . S
N3265 C3268 1.350 . S
N3266 S3264 1.610 . S
N3266 C3267 1.351 . S
C3267 C3261 1.428 . S
C3267 N3266 1.351 . S
C3267 C3268 1.434 . S
C3268 C3259 1.429 1_655 S
C3268 N3265 1.350 . S
C3268 C3267 1.434 . S
C3269 C3270 1.369 . S
C3269 C3271 1.419 . S
C3269 H3273 0.930 . S
C3270 C3269 1.369 . S
C3270 C3279 1.429 . S
C3271 C3269 1.419 . S
C3271 C3272 1.363 . S
C3271 H3274 0.929 . S
C3272 C3271 1.363 . S
C3272 C3278 1.428 . S
H3273 C3269 0.930 . S
H3274 C3271 0.929 . S
S3275 N3276 1.613 . S
S3275 N3277 1.610 . S
N3276 S3275 1.613 . S
N3276 C3279 1.350 . S
N3277 S3275 1.610 . S
N3277 C3278 1.351 . S
C3278 C3272 1.428 . S
C3278 N3277 1.351 . S
C3278 C3279 1.434 . S
C3279 C3270 1.429 . S
C3279 N3276 1.350 . S
C3279 C3278 1.434 . S
C3280 C3281 1.369 . S
C3280 C3282 1.419 . S
C3280 H3284 0.930 . S
C3281 C3280 1.369 . S
C3281 C3290 1.429 . S
C3282 C3280 1.419 . S
C3282 C3283 1.363 . S
C3282 H3285 0.929 . S
C3283 C3282 1.363 . S
C3283 C3289 1.428 . S
H3284 C3280 0.930 . S
H3285 C3282 0.929 . S
S3286 N3287 1.613 . S
S3286 N3288 1.610 . S
N3287 S3286 1.613 . S
N3287 C3290 1.350 . S
N3288 S3286 1.610 . S
N3288 C3289 1.351 . S
C3289 C3283 1.428 . S
C3289 N3288 1.351 . S
C3289 C3290 1.434 . S
C3290 C3281 1.429 . S
C3290 N3287 1.350 . S
C3290 C3289 1.434 . S
C3291 C3292 1.369 . S
C3291 C3293 1.419 . S
C3291 H3295 0.930 . S
C3292 C3291 1.369 . S
C3292 C3301 1.429 . S
C3293 C3291 1.419 . S
C3293 C3294 1.363 . S
C3293 H3296 0.929 . S
C3294 C3293 1.363 . S
C3294 C3300 1.428 . S
H3295 C3291 0.930 . S
H3296 C3293 0.929 . S
S3297 N3298 1.613 . S
S3297 N3299 1.610 . S
N3298 S3297 1.613 . S
N3298 C3301 1.350 . S
N3299 S3297 1.610 . S
N3299 C3300 1.351 . S
C3300 C3294 1.428 . S
C3300 N3299 1.351 . S
C3300 C3301 1.434 . S
C3301 C3292 1.429 . S
C3301 N3298 1.350 . S
C3301 C3300 1.434 . S
C3302 C3303 1.369 . S
C3302 C3304 1.419 . S
C3302 H3306 0.930 . S
C3303 C3302 1.369 . S
C3303 C3312 1.429 . S
C3304 C3302 1.419 . S
C3304 C3305 1.363 . S
C3304 H3307 0.929 . S
C3305 C3304 1.363 . S
C3305 C3311 1.428 . S
H3306 C3302 0.930 . S
H3307 C3304 0.929 . S
S3308 N3309 1.613 . S
S3308 N3310 1.610 . S
N3309 S3308 1.613 . S
N3309 C3312 1.350 . S
N3310 S3308 1.610 . S
N3310 C3311 1.351 . S
C3311 C3305 1.428 . S
C3311 N3310 1.351 . S
C3311 C3312 1.434 . S
C3312 C3303 1.429 . S
C3312 N3309 1.350 . S
C3312 C3311 1.434 . S
C3313 C3314 1.369 . S
C3313 C3315 1.419 . S
C3313 H3317 0.930 . S
C3314 C3313 1.369 . S
C3314 C3323 1.429 1_545 S
C3315 C3313 1.419 . S
C3315 C3316 1.363 1_545 S
C3315 H3318 0.929 . S
C3316 C3315 1.363 1_565 S
C3316 C3322 1.428 . S
H3317 C3313 0.930 . S
H3318 C3315 0.929 . S
S3319 N3320 1.613 . S
S3319 N3321 1.610 . S
N3320 S3319 1.613 . S
N3320 C3323 1.350 . S
N3321 S3319 1.610 . S
N3321 C3322 1.351 . S
C3322 C3316 1.428 . S
C3322 N3321 1.351 . S
C3322 C3323 1.434 . S
C3323 C3314 1.429 1_565 S
C3323 N3320 1.350 . S
C3323 C3322 1.434 . S
C3324 C3325 1.369 . S
C3324 C3326 1.419 . S
C3324 H3328 0.930 . S
C3325 C3324 1.369 . S
C3325 C3334 1.429 . S
C3326 C3324 1.419 . S
C3326 C3327 1.363 . S
C3326 H3329 0.929 . S
C3327 C3326 1.363 . S
C3327 C3333 1.428 . S
H3328 C3324 0.930 . S
H3329 C3326 0.929 . S
S3330 N3331 1.613 . S
S3330 N3332 1.610 . S
N3331 S3330 1.613 . S
N3331 C3334 1.350 . S
N3332 S3330 1.610 . S
N3332 C3333 1.351 . S
C3333 C3327 1.428 . S
C3333 N3332 1.351 . S
C3333 C3334 1.434 . S
C3334 C3325 1.429 . S
C3334 N3331 1.350 . S
C3334 C3333 1.434 . S
C3335 C3336 1.369 . S
C3335 C3337 1.419 . S
C3335 H3339 0.930 . S
C3336 C3335 1.369 . S
C3336 C3345 1.429 1_545 S
C3337 C3335 1.419 . S
C3337 C3338 1.363 1_545 S
C3337 H3340 0.929 . S
C3338 C3337 1.363 1_565 S
C3338 C3344 1.428 . S
H3339 C3335 0.930 . S
H3340 C3337 0.929 . S
S3341 N3342 1.613 . S
S3341 N3343 1.610 . S
N3342 S3341 1.613 . S
N3342 C3345 1.350 . S
N3343 S3341 1.610 . S
N3343 C3344 1.351 . S
C3344 C3338 1.428 . S
C3344 N3343 1.351 . S
C3344 C3345 1.434 . S
C3345 C3336 1.429 1_565 S
C3345 N3342 1.350 . S
C3345 C3344 1.434 . S
C3346 C3347 1.369 . S
C3346 C3348 1.419 1_565 S
C3346 H3350 0.930 . S
C3347 C3346 1.369 . S
C3347 C3356 1.429 1_554 S
C3348 C3346 1.419 1_545 S
C3348 C3349 1.363 1_554 S
C3348 H3351 0.929 . S
C3349 C3348 1.363 1_556 S
C3349 C3355 1.428 . S
H3350 C3346 0.930 . S
H3351 C3348 0.929 . S
S3352 N3353 1.613 . S
S3352 N3354 1.610 1_565 S
N3353 S3352 1.613 . S
N3353 C3356 1.350 . S
N3354 S3352 1.610 1_545 S
N3354 C3355 1.351 . S
C3355 C3349 1.428 . S
C3355 N3354 1.351 . S
C3355 C3356 1.434 1_545 S
C3356 C3347 1.429 1_556 S
C3356 N3353 1.350 . S
C3356 C3355 1.434 1_565 S
C3357 C3358 1.369 . S
C3357 C3359 1.419 . S
C3357 H3361 0.930 . S
C3358 C3357 1.369 . S
C3358 C3367 1.429 . S
C3359 C3357 1.419 . S
C3359 C3360 1.363 . S
C3359 H3362 0.929 . S
C3360 C3359 1.363 . S
C3360 C3366 1.428 . S
H3361 C3357 0.930 . S
H3362 C3359 0.929 . S
S3363 N3364 1.613 . S
S3363 N3365 1.610 . S
N3364 S3363 1.613 . S
N3364 C3367 1.350 . S
N3365 S3363 1.610 . S
N3365 C3366 1.351 . S
C3366 C3360 1.428 . S
C3366 N3365 1.351 . S
C3366 C3367 1.434 . S
C3367 C3358 1.429 . S
C3367 N3364 1.350 . S
C3367 C3366 1.434 . S
C3368 C3369 1.369 . S
C3368 C3370 1.419 . S
C3368 H3372 0.930 . S
C3369 C3368 1.369 . S
C3369 C3378 1.429 . S
C3370 C3368 1.419 . S
C3370 C3371 1.363 . S
C3370 H3373 0.929 . S
C3371 C3370 1.363 . S
C3371 C3377 1.428 . S
H3372 C3368 0.930 . S
H3373 C3370 0.929 . S
S3374 N3375 1.613 . S
S3374 N3376 1.610 . S
N3375 S3374 1.613 . S
N3375 C3378 1.350 . S
N3376 S3374 1.610 . S
N3376 C3377 1.351 . S
C3377 C3371 1.428 . S
C3377 N3376 1.351 . S
C3377 C3378 1.434 . S
C3378 C3369 1.429 . S
C3378 N3375 1.350 . S
C3378 C3377 1.434 . S
C3379 C3380 1.369 . S
C3379 C3381 1.419 . S
C3379 H3383 0.930 . S
C3380 C3379 1.369 . S
C3380 C3389 1.429 . S
C3381 C3379 1.419 . S
C3381 C3382 1.363 . S
C3381 H3384 0.929 . S
C3382 C3381 1.363 . S
C3382 C3388 1.428 . S
H3383 C3379 0.930 . S
H3384 C3381 0.929 . S
S3385 N3386 1.613 . S
S3385 N3387 1.610 . S
N3386 S3385 1.613 . S
N3386 C3389 1.350 . S
N3387 S3385 1.610 . S
N3387 C3388 1.351 . S
C3388 C3382 1.428 . S
C3388 N3387 1.351 . S
C3388 C3389 1.434 . S
C3389 C3380 1.429 . S
C3389 N3386 1.350 . S
C3389 C3388 1.434 . S
C3390 C3391 1.369 . S
C3390 C3392 1.419 . S
C3390 H3394 0.930 . S
C3391 C3390 1.369 . S
C3391 C3400 1.429 . S
C3392 C3390 1.419 . S
C3392 C3393 1.363 . S
C3392 H3395 0.929 . S
C3393 C3392 1.363 . S
C3393 C3399 1.428 . S
H3394 C3390 0.930 . S
H3395 C3392 0.929 . S
S3396 N3397 1.613 . S
S3396 N3398 1.610 . S
N3397 S3396 1.613 . S
N3397 C3400 1.350 . S
N3398 S3396 1.610 . S
N3398 C3399 1.351 . S
C3399 C3393 1.428 . S
C3399 N3398 1.351 . S
C3399 C3400 1.434 . S
C3400 C3391 1.429 . S
C3400 N3397 1.350 . S
C3400 C3399 1.434 . S
C3401 C3402 1.369 . S
C3401 C3403 1.419 . S
C3401 H3405 0.930 . S
C3402 C3401 1.369 . S
C3402 C3411 1.429 . S
C3403 C3401 1.419 . S
C3403 C3404 1.363 . S
C3403 H3406 0.929 . S
C3404 C3403 1.363 . S
C3404 C3410 1.428 . S
H3405 C3401 0.930 . S
H3406 C3403 0.929 . S
S3407 N3408 1.613 . S
S3407 N3409 1.610 . S
N3408 S3407 1.613 . S
N3408 C3411 1.350 . S
N3409 S3407 1.610 . S
N3409 C3410 1.351 . S
C3410 C3404 1.428 . S
C3410 N3409 1.351 . S
C3410 C3411 1.434 . S
C3411 C3402 1.429 . S
C3411 N3408 1.350 . S
C3411 C3410 1.434 . S
C3412 C3413 1.369 . S
C3412 C3414 1.419 . S
C3412 H3416 0.930 . S
C3413 C3412 1.369 . S
C3413 C3422 1.429 . S
C3414 C3412 1.419 . S
C3414 C3415 1.363 . S
C3414 H3417 0.929 . S
C3415 C3414 1.363 . S
C3415 C3421 1.428 . S
H3416 C3412 0.930 . S
H3417 C3414 0.929 . S
S3418 N3419 1.613 . S
S3418 N3420 1.610 . S
N3419 S3418 1.613 . S
N3419 C3422 1.350 . S
N3420 S3418 1.610 . S
N3420 C3421 1.351 . S
C3421 C3415 1.428 . S
C3421 N3420 1.351 . S
C3421 C3422 1.434 . S
C3422 C3413 1.429 . S
C3422 N3419 1.350 . S
C3422 C3421 1.434 . S
C3423 C3424 1.369 . S
C3423 C3425 1.419 1_565 S
C3423 H3427 0.930 . S
C3424 C3423 1.369 . S
C3424 C3433 1.429 1_556 S
C3425 C3423 1.419 1_545 S
C3425 C3426 1.363 1_556 S
C3425 H3428 0.929 . S
C3426 C3425 1.363 1_554 S
C3426 C3432 1.428 . S
H3427 C3423 0.930 . S
H3428 C3425 0.929 . S
S3429 N3430 1.613 . S
S3429 N3431 1.610 1_565 S
N3430 S3429 1.613 . S
N3430 C3433 1.350 . S
N3431 S3429 1.610 1_545 S
N3431 C3432 1.351 . S
C3432 C3426 1.428 . S
C3432 N3431 1.351 . S
C3432 C3433 1.434 1_545 S
C3433 C3424 1.429 1_554 S
C3433 N3430 1.350 . S
C3433 C3432 1.434 1_565 S
C3434 C3435 1.369 . S
C3434 C3436 1.419 . S
C3434 H3438 0.930 . S
C3435 C3434 1.369 . S
C3435 C3444 1.429 . S
C3436 C3434 1.419 . S
C3436 C3437 1.363 . S
C3436 H3439 0.929 . S
C3437 C3436 1.363 . S
C3437 C3443 1.428 . S
H3438 C3434 0.930 . S
H3439 C3436 0.929 . S
S3440 N3441 1.613 . S
S3440 N3442 1.610 . S
N3441 S3440 1.613 . S
N3441 C3444 1.350 . S
N3442 S3440 1.610 . S
N3442 C3443 1.351 . S
C3443 C3437 1.428 . S
C3443 N3442 1.351 . S
C3443 C3444 1.434 . S
C3444 C3435 1.429 . S
C3444 N3441 1.350 . S
C3444 C3443 1.434 . S
C3445 C3446 1.369 . S
C3445 C3447 1.419 . S
C3445 H3449 0.930 . S
C3446 C3445 1.369 . S
C3446 C3455 1.429 . S
C3447 C3445 1.419 . S
C3447 C3448 1.363 . S
C3447 H3450 0.929 . S
C3448 C3447 1.363 . S
C3448 C3454 1.428 . S
H3449 C3445 0.930 . S
H3450 C3447 0.929 . S
S3451 N3452 1.613 . S
S3451 N3453 1.610 . S
N3452 S3451 1.613 . S
N3452 C3455 1.350 . S
N3453 S3451 1.610 . S
N3453 C3454 1.351 . S
C3454 C3448 1.428 . S
C3454 N3453 1.351 . S
C3454 C3455 1.434 . S
C3455 C3446 1.429 . S
C3455 N3452 1.350 . S
C3455 C3454 1.434 . S
C1345 C9 1.290 . S
C1347 C455 1.357 . S
C1356 C805 1.357 . S
C1358 C23 1.286 . S
C1367 C483 1.356 . S
C1369 C37 1.290 . S
C1378 C51 1.287 . S
C1380 C833 1.353 . S
C1389 C65 1.282 . S
C1391 C511 1.350 . S
C1400 C79 1.278 . S
C1402 C861 1.351 . S
C1411 C93 1.286 . S
C1413 C539 1.352 . S
C1422 C107 1.277 . S
C1424 C889 1.350 . S
C1433 C903 1.357 . S
C1435 C121 1.286 . S
C1444 C1001 1.358 . S
C1446 C135 1.289 . S
C1455 C149 1.282 . S
C1457 C1309 1.354 . S
C1466 C163 1.282 . S
C1468 C987 1.350 . S
C1477 C245 1.352 . S
C1479 C177 1.280 . S
C1488 C191 1.284 . S
C1490 C259 1.351 . S
C1499 C205 1.277 . S
C1501 C273 1.350 . S
C1510 C1295 1.349 . S
C1512 C219 1.282 . S
C1521 C1015 1.354 . S
C1523 C233 1.282 . S
C1532 C247 1.279 . S
C1534 C399 1.352 . S
C1543 C749 1.349 . S
C1545 C261 1.278 . S
C1554 C275 1.287 . S
C1556 C427 1.356 . S
C1565 C441 1.348 . S
C1567 C289 1.279 . S
C1576 C707 1.356 . S
C1578 C303 1.284 . S
C1587 C49 1.352 . S
C1589 C317 1.286 . S
C1598 C21 1.355 . S
C1600 C331 1.289 . S
C1609 C345 1.290 . S
C1611 C119 1.357 . S
C1620 C1141 1.355 . S
C1622 C359 1.289 . S
C1631 C147 1.357 . S
C1633 C373 1.290 . S
C1642 C387 1.284 . S
C1644 C1169 1.351 . S
C1653 C401 1.285 . S
C1655 C175 1.355 . S
C1664 C1197 1.348 . S
C1666 C415 1.279 . S
C1675 C429 1.277 . S
C1677 C203 1.350 . S
C1686 C1225 1.357 . S
C1688 C443 1.287 . S
C1697 C1239 1.349 . S
C1699 C457 1.281 . S
C1708 C471 1.291 . S
C1710 C1337 1.356 . S
C1719 C973 1.350 . S
C1721 C485 1.279 . S
C1730 C1323 1.357 . S
C1732 C499 1.290 . S
C1741 C513 1.291 . S
C1743 C581 1.356 . S
C1752 C595 1.358 . S
C1754 C527 1.289 . S
C1763 C609 1.352 . S
C1765 C541 1.280 . S
C1774 C555 1.289 . S
C1776 C959 1.353 . S
C1785 C679 1.353 . S
C1787 C569 1.287 . S
C1796 C583 1.277 . S
C1798 C63 1.350 . S
C1807 C1085 1.351 . S
C1809 C597 1.285 . S
C1818 C91 1.350 . S
C1820 C611 1.283 . S
C1829 C625 1.285 . S
C1831 C105 1.351 . S
C1840 C1043 1.350 . S
C1842 C639 1.283 . S
C1851 C385 1.350 . S
C1853 C653 1.284 . S
C1862 C357 1.350 . S
C1864 C667 1.283 . S
C1873 C1127 1.358 . S
C1875 C681 1.288 . S
C1884 C133 1.352 . S
C1886 C695 1.286 . S
C1895 C1155 1.349 . S
C1897 C709 1.281 . S
C1906 C723 1.291 . S
C1908 C161 1.356 . S
C1917 C1183 1.357 . S
C1919 C737 1.287 . S
C1928 C751 1.279 . S
C1930 C189 1.349 . S
C1939 C765 1.288 . S
C1941 C1211 1.353 . S
C1950 C779 1.281 . S
C1952 C217 1.350 . S
C1961 C231 1.350 . S
C1963 C793 1.284 . S
C1972 C807 1.291 . S
C1974 C329 1.355 . S
C1983 C821 1.278 . S
C1985 C637 1.352 . S
C1994 C315 1.349 . S
C1996 C835 1.278 . S
C2005 C849 1.278 . S
C2007 C917 1.351 . S
C2016 C931 1.354 . S
C2018 C863 1.283 . S
C2027 C945 1.352 . S
C2029 C877 1.280 . S
C2038 C891 1.291 . S
C2040 C623 1.357 . S
C2049 C905 1.278 . S
C2051 C343 1.349 . S
C2060 C1071 1.348 . S
C2062 C919 1.281 . S
C2071 C933 1.279 . S
C2073 C77 1.352 . S
C2082 C947 1.291 . S
C2084 C1099 1.355 . S
C2093 C1113 1.350 . S
C2095 C961 1.283 . S
C2104 C35 1.358 . S
C2106 C975 1.289 . S
C2115 C989 1.280 . S
C2117 C721 1.350 . S
C2126 C1003 1.277 . S
C2128 C693 1.349 . S
C2137 C791 1.357 . S
C2139 C1017 1.290 . S
C2148 C469 1.348 . S
C2150 C1031 1.279 . S
C2159 C819 1.354 . S
C2161 C1045 1.288 . S
C2170 C1059 1.290 . S
C2172 C497 1.357 . S
C2181 C1073 1.288 . S
C2183 C847 1.356 . S
C2192 C525 1.357 . S
C2194 C1087 1.290 . S
C2203 C875 1.348 . S
C2205 C1101 1.279 . S
C2214 C553 1.352 . S
C2216 C1115 1.286 . S
C2225 C1129 1.281 . S
C2227 C567 1.353 . S
C2236 C665 1.357 . S
C2238 C1143 1.290 . S
C2247 C301 1.349 . S
C2249 C1157 1.281 . S
C2258 C1171 1.280 . S
C2260 C651 1.353 . S
C2269 C1253 1.357 . S
C2271 C1185 1.288 . S
C2280 C1267 1.358 . S
C2282 C1199 1.289 . S
C2291 C1213 1.278 . S
C2293 C1281 1.351 . S
C2302 C1227 1.281 . S
C2304 C287 1.350 . S
C2313 C7 1.351 . S
C2315 C1241 1.285 . S
C2324 C735 1.351 . S
C2326 C1255 1.279 . S
C2335 C1269 1.280 . S
C2337 C413 1.350 . S
C2346 C1283 1.279 . S
C2348 C763 1.349 . S
C2357 C777 1.358 . S
C2359 C1297 1.288 . S
C2368 C371 1.357 . S
C2370 C1311 1.290 . S
C2379 C1057 1.353 . S
C2381 C1325 1.281 . S
C2390 C1029 1.357 . S
C2392 C1339 1.290 . S
C2401 C1221 1.373 . S
C2403 C3 1.374 . S
C2412 C17 1.374 . S
C2414 C1179 1.375 . S
C2423 C31 1.378 . S
C2425 C1193 1.377 . S
C2434 C45 1.374 . S
C2436 C1207 1.374 . S
C2445 C129 1.376 . S
C2447 C59 1.377 . S
C2456 C73 1.375 . S
C2458 C143 1.375 . S
C2467 C87 1.375 . S
C2469 C157 1.376 . S
C2478 C101 1.382 . S
C2480 C115 1.381 . S
C2489 C171 1.378 . S
C2491 C1025 1.379 . S
C2500 C185 1.380 . S
C2502 C1039 1.380 . S
C2511 C199 1.374 . S
C2513 C1053 1.375 . S
C2522 C1011 1.378 . S
C2524 C213 1.377 . S
C2533 C1291 1.374 . S
C2535 C227 1.375 . S
C2544 C241 1.381 . S
C2546 C1333 1.381 . S
C2555 C255 1.382 . S
C2557 C633 1.381 . S
C2566 C1319 1.374 . S
C2568 C269 1.375 . S
C2577 C283 1.382 . S
C2579 C1235 1.381 . S
C2588 C297 1.376 . S
C2590 C591 1.376 . S
C2599 C311 1.378 . S
C2601 C1277 1.378 . S
C2610 C325 1.375 . S
C2612 C1249 1.376 . S
C2621 C885 1.381 . S
C2623 C339 1.380 . S
C2632 C353 1.373 . S
C2634 C843 1.374 . S
C2643 C857 1.374 . S
C2645 C367 1.374 . S
C2654 C381 1.374 . S
C2656 C871 1.375 . S
C2665 C395 1.380 . S
C2667 C465 1.380 . S
C2676 C409 1.381 . S
C2678 C479 1.381 . S
C2687 C493 1.373 . S
C2689 C423 1.374 . S
C2698 C437 1.376 . S
C2700 C451 1.376 . S
C2709 C689 1.382 . S
C2711 C507 1.381 . S
C2720 C703 1.375 . S
C2722 C521 1.375 . S
C2731 C717 1.373 . S
C2733 C535 1.375 . S
C2742 C675 1.382 . S
C2744 C549 1.381 . S
C2753 C563 1.378 . S
C2755 C955 1.377 . S
C2764 C577 1.382 . S
C2766 C997 1.381 . S
C2775 C983 1.377 . S
C2777 C605 1.377 . S
C2786 C619 1.382 . S
C2788 C899 1.381 . S
C2797 C647 1.376 . S
C2799 C941 1.377 . S
C2808 C661 1.378 . S
C2810 C913 1.379 . S
C2819 C731 1.378 . S
C2821 C801 1.379 . S
C2830 C745 1.381 . S
C2832 C815 1.380 . S
C2841 C759 1.382 . S
C2843 C829 1.381 . S
C2852 C773 1.374 . S
C2854 C787 1.374 . S
C2863 C1305 1.381 . S
C2865 C927 1.380 . S
C2874 C1263 1.375 . S
C2876 C969 1.377 . S
C2885 C1067 1.382 . S
C2887 C1137 1.381 . S
C2896 C1081 1.373 . S
C2898 C1151 1.374 . S
C2907 C1165 1.379 . S
C2909 C1095 1.379 . S
C2918 C1109 1.376 . S
C2920 C1123 1.376 . S
C2929 C372 1.679 . S
C2931 C8 1.672 . S
C2940 C22 1.676 . S
C2942 C722 1.680 . S
C2951 C36 1.676 1_545 S
C2953 C344 1.680 1_565 S
C2962 C694 1.675 . S
C2964 C50 1.674 . S
C2973 C64 1.673 . S
C2975 C428 1.676 . S
C2984 C78 1.674 . S
C2986 C778 1.681 . S
C2995 C92 1.676 1_565 S
C2997 C400 1.673 1_545 S
C3006 C106 1.679 . S
C3008 C750 1.672 . S
C3017 C120 1.681 . S
C3019 C176 1.673 . S
C3028 C190 1.679 . S
C3030 C134 1.672 . S
C3039 C148 1.681 1_556 S
C3041 C204 1.677 1_554 S
C3050 C162 1.682 . S
C3052 C218 1.674 . S
C3061 C232 1.674 . S
C3063 C1282 1.681 . S
C3072 C974 1.681 1_455 S
C3074 C246 1.673 1_655 S
C3083 C316 1.681 . S
C3085 C260 1.673 . S
C3094 C1240 1.680 1_655 S
C3096 C274 1.673 1_455 S
C3105 C1338 1.680 . S
C3107 C288 1.678 . S
C3116 C302 1.672 . S
C3118 C918 1.676 . S
C3127 C1296 1.680 . S
C3129 C330 1.672 . S
C3138 C358 1.677 . S
C3140 C1058 1.680 . S
C3149 C1030 1.680 . S
C3151 C386 1.672 . S
C3160 C414 1.680 . S
C3162 C1114 1.677 . S
C3171 C442 1.674 . S
C3173 C1086 1.675 . S
C3182 C512 1.674 1_554 S
C3184 C456 1.680 1_556 S
C3193 C526 1.679 . S
C3195 C470 1.673 . S
C3204 C540 1.680 . S
C3206 C484 1.672 . S
C3215 C554 1.677 . S
C3217 C498 1.673 . S
C3226 C946 1.678 . S
C3228 C568 1.679 . S
C3237 C1310 1.678 1_455 S
C3239 C582 1.679 1_655 S
C3248 C596 1.680 . S
C3250 C652 1.672 . S
C3259 C610 1.673 1_455 S
C3261 C904 1.680 1_655 S
C3270 C624 1.672 . S
C3272 C1002 1.678 . S
C3281 C638 1.679 . S
C3283 C1254 1.679 . S
C3292 C666 1.681 . S
C3294 C960 1.673 . S
C3303 C1044 1.681 . S
C3305 C680 1.677 . S
C3314 C708 1.671 1_545 S
C3316 C1016 1.677 1_565 S
C3325 C1100 1.677 . S
C3327 C736 1.680 . S
C3336 C1072 1.673 1_545 S
C3338 C764 1.680 1_565 S
C3347 C848 1.672 1_554 S
C3349 C792 1.680 1_556 S
C3358 C806 1.671 . S
C3360 C862 1.680 . S
C3369 C820 1.673 . S
C3371 C876 1.680 . S
C3380 C890 1.679 . S
C3382 C834 1.672 . S
C3391 C988 1.674 . S
C3393 C932 1.681 . S
C3402 C1128 1.675 . S
C3404 C1184 1.673 . S
C3413 C1142 1.673 . S
C3415 C1198 1.676 . S
C3424 C1156 1.671 1_556 S
C3426 C1212 1.678 1_554 S
C3435 C1226 1.681 . S
C3437 C1170 1.673 . S
C3446 C1324 1.671 . S
C3448 C1268 1.679 . S
