# Generated by pormake.
# Topology wme, (6)-cn, num edge types: 1
# Building blocks:
#     Node 0, Type 0, BuildingBlock: VOLQOD_clean_sbu_1, # of connection points: 6
#     Node 1, Type 0, BuildingBlock: VOLQOD_clean_sbu_1, # of connection points: 6
#     Node 2, Type 0, BuildingBlock: VOLQOD_clean_sbu_1, # of connection points: 6
#     Node 3, Type 0, BuildingBlock: VOLQOD_clean_sbu_1, # of connection points: 6
#     Node 4, Type 0, BuildingBlock: VOLQOD_clean_sbu_1, # of connection points: 6
#     Node 5, Type 0, BuildingBlock: VOLQOD_clean_sbu_1, # of connection points: 6
#     Node 6, Type 0, BuildingBlock: VOLQOD_clean_sbu_1, # of connection points: 6
#     Node 7, Type 0, BuildingBlock: VOLQOD_clean_sbu_1, # of connection points: 6
#     Node 8, Type 0, BuildingBlock: VOLQOD_clean_sbu_1, # of connection points: 6
#     Node 9, Type 0, BuildingBlock: VOLQOD_clean_sbu_1, # of connection points: 6
#     Node 10, Type 0, BuildingBlock: VOLQOD_clean_sbu_1, # of connection points: 6
#     Node 11, Type 0, BuildingBlock: VOLQOD_clean_sbu_1, # of connection points: 6
#     Edge 12, Type (0, 0), BuildingBlock: AJUNOK_clean_linker_0, # of connection points: 2
#     Edge 13, Type (0, 0), BuildingBlock: AJUNOK_clean_linker_0, # of connection points: 2
#     Edge 14, Type (0, 0), BuildingBlock: AJUNOK_clean_linker_0, # of connection points: 2
#     Edge 15, Type (0, 0), BuildingBlock: AJUNOK_clean_linker_0, # of connection points: 2
#     Edge 16, Type (0, 0), BuildingBlock: AJUNOK_clean_linker_0, # of connection points: 2
#     Edge 17, Type (0, 0), BuildingBlock: AJUNOK_clean_linker_0, # of connection points: 2
#     Edge 18, Type (0, 0), BuildingBlock: AJUNOK_clean_linker_0, # of connection points: 2
#     Edge 19, Type (0, 0), BuildingBlock: AJUNOK_clean_linker_0, # of connection points: 2
#     Edge 20, Type (0, 0), BuildingBlock: AJUNOK_clean_linker_0, # of connection points: 2
#     Edge 21, Type (0, 0), BuildingBlock: AJUNOK_clean_linker_0, # of connection points: 2
#     Edge 22, Type (0, 0), BuildingBlock: AJUNOK_clean_linker_0, # of connection points: 2
#     Edge 23, Type (0, 0), BuildingBlock: AJUNOK_clean_linker_0, # of connection points: 2
#     Edge 24, Type (0, 0), BuildingBlock: AJUNOK_clean_linker_0, # of connection points: 2
#     Edge 25, Type (0, 0), BuildingBlock: AJUNOK_clean_linker_0, # of connection points: 2
#     Edge 26, Type (0, 0), BuildingBlock: AJUNOK_clean_linker_0, # of connection points: 2
#     Edge 27, Type (0, 0), BuildingBlock: AJUNOK_clean_linker_0, # of connection points: 2
#     Edge 28, Type (0, 0), BuildingBlock: AJUNOK_clean_linker_0, # of connection points: 2
#     Edge 29, Type (0, 0), BuildingBlock: AJUNOK_clean_linker_0, # of connection points: 2
#     Edge 30, Type (0, 0), BuildingBlock: AJUNOK_clean_linker_0, # of connection points: 2
#     Edge 31, Type (0, 0), BuildingBlock: AJUNOK_clean_linker_0, # of connection points: 2
#     Edge 32, Type (0, 0), BuildingBlock: AJUNOK_clean_linker_0, # of connection points: 2
#     Edge 33, Type (0, 0), BuildingBlock: AJUNOK_clean_linker_0, # of connection points: 2
#     Edge 34, Type (0, 0), BuildingBlock: AJUNOK_clean_linker_0, # of connection points: 2
#     Edge 35, Type (0, 0), BuildingBlock: AJUNOK_clean_linker_0, # of connection points: 2
#     Edge 36, Type (0, 0), BuildingBlock: AJUNOK_clean_linker_0, # of connection points: 2
#     Edge 37, Type (0, 0), BuildingBlock: AJUNOK_clean_linker_0, # of connection points: 2
#     Edge 38, Type (0, 0), BuildingBlock: AJUNOK_clean_linker_0, # of connection points: 2
#     Edge 39, Type (0, 0), BuildingBlock: AJUNOK_clean_linker_0, # of connection points: 2
#     Edge 40, Type (0, 0), BuildingBlock: AJUNOK_clean_linker_0, # of connection points: 2
#     Edge 41, Type (0, 0), BuildingBlock: AJUNOK_clean_linker_0, # of connection points: 2
#     Edge 42, Type (0, 0), BuildingBlock: AJUNOK_clean_linker_0, # of connection points: 2
#     Edge 43, Type (0, 0), BuildingBlock: AJUNOK_clean_linker_0, # of connection points: 2
#     Edge 44, Type (0, 0), BuildingBlock: AJUNOK_clean_linker_0, # of connection points: 2
#     Edge 45, Type (0, 0), BuildingBlock: AJUNOK_clean_linker_0, # of connection points: 2
#     Edge 46, Type (0, 0), BuildingBlock: AJUNOK_clean_linker_0, # of connection points: 2
#     Edge 47, Type (0, 0), BuildingBlock: AJUNOK_clean_linker_0, # of connection points: 2
# Relax obj value: 0.332
# Max RMSD: 0.236
# Mean RMSD: 0.236
data_MOF--net-wme--node1-VOLQOD_clean_sbu_1--edge1-AJUNOK_clean_linker_0
_symmetry_space_group_name_H-M    P1
_symmetry_Int_Tables_number       1
_symmetry_cell_setting            triclinic
loop_
_symmetry_equiv_pos_as_xyz
'x, y, z'
_cell_length_a     24.640044
_cell_length_b     24.778051
_cell_length_c     50.157808
_cell_angle_alpha  90.647215
_cell_angle_beta   89.166632
_cell_angle_gamma 120.02933
loop_
_atom_site_label
_atom_site_type_symbol
_atom_site_fract_x
_atom_site_fract_y
_atom_site_fract_z
_atom_type_partial_charge
O0 O 0.11112 0.35942 0.08169 0.0
Zn1 Zn 0.12414 0.28446 0.08246 0.0
O2 O 0.18117 0.2922 0.11146 0.0
Zn3 Zn 0.25119 0.28496 0.09732 0.0
Zn4 Zn 0.21153 0.37009 0.12986 0.0
Zn5 Zn 0.13776 0.22985 0.13797 0.0
O6 O 0.25485 0.21215 0.11304 0.0
O7 O 0.16422 0.1668 0.13541 0.0
O8 O 0.15297 0.26571 0.04657 0.0
O9 O 0.23601 0.25993 0.05934 0.0
O10 O 0.33186 0.36895 0.09779 0.0
O11 O 0.29879 0.42811 0.11807 0.0
O12 O 0.20471 0.36491 0.17015 0.0
O13 O 0.03626 0.21564 0.09114 0.0
O14 O 0.14913 0.26287 0.17507 0.0
O15 O 0.04667 0.18827 0.13183 0.0
C16 C 0.12219 0.39827 0.10062 0.0
C17 C 0.21206 0.16616 0.12598 0.0
C18 C 0.34093 0.42179 0.10591 0.0
C19 C 0.19749 0.25455 0.04158 0.0
C20 C 0.17566 0.31739 0.18504 0.0
C21 C 0.01243 0.18525 0.11254 0.0
O22 O 0.15813 0.40429 0.11969 0.0
O23 O 0.70407 0.13371 0.57357 0.0
Zn24 Zn 0.78831 0.13826 0.57867 0.0
O25 O 0.83166 0.19351 0.60863 0.0
Zn26 Zn 0.89984 0.27149 0.59568 0.0
Zn27 Zn 0.77211 0.2035 0.62959 0.0
Zn28 Zn 0.86377 0.15732 0.63188 0.0
O29 O -0.01564 0.28736 0.60903 0.0
O30 O 0.95364 0.19243 0.62483 0.0
O31 O 0.8451 0.16597 0.54495 0.0
O32 O 0.91168 0.26375 0.55696 0.0
O33 O 0.87742 0.33959 0.59963 0.0
O34 O 0.78597 0.28767 0.62129 0.0
O35 O 0.77321 0.18888 0.66945 0.0
O36 O 0.7629 0.05041 0.58941 0.0
O37 O 0.84946 0.16646 0.67024 0.0
O38 O 0.81685 0.06666 0.62655 0.0
C39 C 0.66688 0.12676 0.59294 0.0
C40 C -0.00354 0.24597 0.61732 0.0
C41 C 0.82725 0.33597 0.60906 0.0
C42 C 0.89151 0.22011 0.53978 0.0
C43 C 0.8081 0.1741 0.68226 0.0
C44 C 0.77698 0.02993 0.60981 0.0
O45 O 0.68657 0.14373 0.61656 0.0
O46 O 0.55767 0.70765 0.07623 0.0
Zn47 Zn 0.63582 0.79397 0.07853 0.0
O48 O 0.62927 0.84024 0.1097 0.0
Zn49 Zn 0.63171 0.91565 0.09823 0.0
Zn50 Zn 0.55504 0.78957 0.13039 0.0
Zn51 Zn 0.69624 0.8622 0.1336 0.0
O52 O 0.70497 -0.00665 0.11369 0.0
O53 O 0.75871 0.95094 0.12986 0.0
O54 O 0.65836 0.84714 0.044 0.0
O55 O 0.65263 0.92786 0.05995 0.0
O56 O 0.54661 0.90808 0.10204 0.0
O57 O 0.49326 0.81673 0.12297 0.0
O58 O 0.56759 0.7887 0.17046 0.0
O59 O 0.70134 0.76936 0.08573 0.0
O60 O 0.6708 0.84498 0.17158 0.0
O61 O 0.73412 0.81059 0.12582 0.0
C62 C 0.52388 0.67657 0.09612 0.0
C63 C 0.75501 -0.00173 0.12317 0.0
C64 C 0.49594 0.86395 0.11183 0.0
C65 C 0.66346 0.90075 0.04078 0.0
C66 C 0.61852 0.81311 0.18344 0.0
C67 C 0.73293 0.77622 0.10664 0.0
O68 O 0.52199 0.70289 0.11776 0.0
O69 O 0.79509 0.57976 0.58212 0.0
Zn70 Zn 0.79312 0.6607 0.58557 0.0
O71 O 0.73332 0.65304 0.61408 0.0
Zn72 Zn 0.6647 0.65943 0.59905 0.0
Zn73 Zn 0.69863 0.57546 0.63306 0.0
Zn74 Zn 0.7738 0.71742 0.64022 0.0
O75 O 0.65443 0.72783 0.61544 0.0
O76 O 0.74191 0.77618 0.6389 0.0
O77 O 0.77217 0.68784 0.55025 0.0
O78 O 0.68445 0.68681 0.56181 0.0
O79 O 0.58506 0.57731 0.59855 0.0
O80 O 0.60589 0.52458 0.62841 0.0
O81 O 0.72434 0.58415 0.67174 0.0
O82 O 0.88136 0.72534 0.59597 0.0
O83 O 0.77033 0.68643 0.67683 0.0
O84 O 0.86462 0.7648 0.63293 0.0
C85 C 0.76863 0.53143 0.59683 0.0
C86 C 0.69391 0.77445 0.62895 0.0
C87 C 0.56846 0.52903 0.61255 0.0
C88 C 0.72698 0.69715 0.54475 0.0
C89 C 0.75365 0.63282 0.68608 0.0
C90 C 0.90181 0.76283 0.6157 0.0
O91 O 0.73281 0.52667 0.61621 0.0
O92 O 0.21506 0.81036 0.08106 0.0
Zn93 Zn 0.12705 0.79967 0.08149 0.0
O94 O 0.07404 0.74048 0.10972 0.0
Zn95 Zn 0.00216 0.66813 0.09433 0.0
Zn96 Zn 0.12008 0.71296 0.13036 0.0
Zn97 Zn 0.04545 0.78006 0.13465 0.0
O98 O 0.92019 0.65791 0.10789 0.0
O99 O 0.95517 0.7475 0.12997 0.0
O100 O 0.0808 0.77468 0.0454 0.0
O101 O -0.0025 0.68419 0.05639 0.0
O102 O 0.00893 0.59019 0.09657 0.0
O103 O 0.09095 0.62386 0.12341 0.0
O104 O 0.12278 0.73017 0.16966 0.0
O105 O 0.14715 0.88717 0.0916 0.0
O106 O 0.06343 0.77332 0.17262 0.0
O107 O 0.09204 0.8709 0.12892 0.0
C108 C 0.24011 0.79734 0.10022 0.0
C109 C 0.91069 0.69796 0.11997 0.0
C110 C 0.04779 0.58118 0.10949 0.0
C111 C 0.02833 0.72663 0.03943 0.0
C112 C 0.09803 0.75556 0.18348 0.0
C113 C 0.13154 0.90772 0.11196 0.0
O114 O 0.20751 0.76194 0.11913 0.0
O115 O 0.3562 0.24781 0.57582 0.0
Zn116 Zn 0.28055 0.1593 0.57605 0.0
O117 O 0.28692 0.11266 0.60626 0.0
Zn118 Zn 0.28176 0.03524 0.5957 0.0
Zn119 Zn 0.36372 0.16028 0.62453 0.0
Zn120 Zn 0.22326 0.09709 0.63153 0.0
O121 O 0.20692 0.96064 0.61257 0.0
O122 O 0.15765 0.00875 0.62881 0.0
O123 O 0.26352 0.1075 0.54125 0.0
O124 O 0.26089 0.02323 0.55755 0.0
O125 O 0.36633 0.03935 0.59783 0.0
O126 O 0.42599 0.13892 0.60978 0.0
O127 O 0.35664 0.15209 0.66495 0.0
O128 O 0.21089 0.17946 0.58275 0.0
O129 O 0.25409 0.11201 0.66858 0.0
O130 O 0.18728 0.15152 0.62506 0.0
C131 C 0.38784 0.27628 0.59648 0.0
C132 C 0.15823 0.95913 0.62256 0.0
C133 C 0.42 0.08789 0.60097 0.0
C134 C 0.25472 0.05222 0.53822 0.0
C135 C 0.30729 0.13273 0.67925 0.0
C136 C 0.1836 0.17922 0.60458 0.0
O137 O 0.39127 0.24717 0.61646 0.0
O138 O 0.56811 0.84333 0.40071 0.0
Zn139 Zn 0.64474 0.83259 0.40084 0.0
O140 O 0.64052 0.77669 0.37154 0.0
Zn141 Zn 0.64721 0.70781 0.38555 0.0
Zn142 Zn 0.56415 0.74499 0.35213 0.0
Zn143 Zn 0.70572 0.82133 0.34608 0.0
O144 O 0.71872 0.7019 0.36874 0.0
O145 O 0.76838 0.79451 0.34884 0.0
O146 O 0.66404 0.80627 0.4367 0.0
O147 O 0.67313 0.72547 0.42308 0.0
O148 O 0.56329 0.62787 0.38563 0.0
O149 O 0.50505 0.65836 0.3638 0.0
O150 O 0.57349 0.74825 0.31178 0.0
O151 O 0.7127 0.92076 0.39308 0.0
O152 O 0.67643 0.80692 0.30858 0.0
O153 O 0.74538 0.91226 0.35265 0.0
C154 C 0.53295 0.83411 0.38072 0.0
C155 C 0.76638 0.74491 0.35667 0.0
C156 C 0.5108 0.61758 0.37669 0.0
C157 C 0.6778 0.76378 0.44111 0.0
C158 C 0.62314 0.77699 0.29768 0.0
C159 C 0.74524 0.94543 0.37214 0.0
O160 O 0.52976 0.79924 0.36133 0.0
O161 O 0.72275 0.56396 0.89511 0.0
Zn162 Zn 0.80984 0.6418 0.89436 0.0
O163 O 0.86296 0.63516 0.86586 0.0
Zn164 Zn 0.93638 0.63746 0.88094 0.0
Zn165 Zn 0.81707 0.56046 0.84516 0.0
Zn166 Zn 0.89003 0.70166 0.84101 0.0
O167 O 0.01773 0.70706 0.86586 0.0
O168 O -0.01968 0.75939 0.8444 0.0
O169 O 0.85596 0.66396 0.93045 0.0
O170 O 0.94299 0.66323 0.91862 0.0
O171 O 0.92849 0.55192 0.88006 0.0
O172 O 0.84691 0.5014 0.85302 0.0
O173 O 0.81462 0.57222 0.80544 0.0
O174 O 0.789 0.70863 0.88461 0.0
O175 O 0.8716 0.67469 0.80333 0.0
O176 O 0.84368 0.74625 0.84725 0.0
C177 C 0.69729 0.52444 0.87623 0.0
C178 C 0.02595 0.75512 0.85337 0.0
C179 C 0.88965 0.50294 0.86749 0.0
C180 C 0.91048 0.67282 0.93581 0.0
C181 C 0.83931 0.62226 0.79199 0.0
C182 C 0.80447 0.74429 0.86442 0.0
O183 O 0.7294 0.52174 0.85678 0.0
O184 O 0.12632 0.74081 0.39535 0.0
Zn185 Zn 0.13405 0.82647 0.39381 0.0
O186 O 0.19208 0.87754 0.36492 0.0
Zn187 Zn 0.26206 0.95285 0.37952 0.0
Zn188 Zn 0.22298 0.8319 0.3452 0.0
Zn189 Zn 0.15031 0.90024 0.33945 0.0
O190 O 0.27123 0.03083 0.36337 0.0
O191 O 0.18019 -0.01004 0.34235 0.0
O192 O 0.15852 0.87447 0.42937 0.0
O193 O 0.2438 0.96244 0.41718 0.0
O194 O 0.34155 0.9483 0.37896 0.0
O195 O 0.31274 0.86512 0.35287 0.0
O196 O 0.20744 0.82501 0.30572 0.0
O197 O 0.04554 0.80387 0.38463 0.0
O198 O 0.15755 0.87759 0.30195 0.0
O199 O 0.0595 0.85311 0.34636 0.0
C200 C 0.14156 0.71471 0.37699 0.0
C201 C 0.22951 0.03681 0.35125 0.0
C202 C 0.35339 0.90988 0.36686 0.0
C203 C 0.20292 0.92962 0.43458 0.0
C204 C 0.17907 0.84513 0.29156 0.0
C205 C 0.02363 0.81612 0.3642 0.0
O206 O 0.17639 0.74555 0.35752 0.0
O207 O 0.37343 0.11491 0.90041 0.0
Zn208 Zn 0.2952 0.12284 0.89812 0.0
O209 O 0.30364 0.17828 0.8684 0.0
Zn210 Zn 0.30405 0.25206 0.88156 0.0
Zn211 Zn 0.37703 0.20012 0.84742 0.0
Zn212 Zn 0.23618 0.13637 0.84442 0.0
O213 O 0.2311 0.25903 0.86764 0.0
O214 O 0.17466 0.16358 0.85047 0.0
O215 O 0.27111 0.15124 0.93327 0.0
O216 O 0.28388 0.24185 0.91986 0.0
O217 O 0.38995 0.32856 0.87788 0.0
O218 O 0.43994 0.28818 0.85523 0.0
O219 O 0.3638 0.18771 0.80739 0.0
O220 O 0.23094 0.03356 0.88858 0.0
O221 O 0.26134 0.14863 0.80633 0.0
O222 O 0.19814 0.04606 0.84946 0.0
C223 C 0.40783 0.11797 0.88052 0.0
C224 C 0.18007 0.215 0.85823 0.0
C225 C 0.43952 0.33354 0.86721 0.0
C226 C 0.26952 0.20141 0.93791 0.0
C227 C 0.31316 0.16613 0.79437 0.0
C228 C 0.19996 0.01104 0.86723 0.0
O229 O 0.40958 0.14602 0.85916 0.0
O230 O 0.22585 0.38858 0.40425 0.0
Zn231 Zn 0.13879 0.31132 0.40082 0.0
O232 O 0.09196 0.32165 0.37157 0.0
Zn233 Zn 0.01976 0.32427 0.38594 0.0
Zn234 Zn 0.14476 0.39431 0.35107 0.0
Zn235 Zn 0.06469 0.2552 0.3464 0.0
O236 O 0.93838 0.25079 0.37314 0.0
O237 O -0.02488 0.19624 0.35174 0.0
O238 O 0.08626 0.2861 0.43579 0.0
O239 O 0.0129 0.30898 0.42479 0.0
O240 O 0.0288 0.40924 0.38112 0.0
O241 O 0.11819 0.45653 0.35772 0.0
O242 O 0.1489 0.38095 0.31131 0.0
O243 O 0.16164 0.24645 0.39009 0.0
O244 O 0.08062 0.28047 0.30832 0.0
O245 O 0.1136 0.21342 0.35134 0.0
C246 C 0.25699 0.4254 0.3852 0.0
C247 C 0.92997 0.20114 0.36155 0.0
C248 C 0.07266 0.45727 0.36968 0.0
C249 C 0.03809 0.29081 0.44169 0.0
C250 C 0.11895 0.33179 0.29735 0.0
C251 C 0.15052 0.21407 0.36887 0.0
O252 O 0.23064 0.42825 0.3641 0.0
O253 O 0.82118 0.21892 0.89866 0.0
Zn254 Zn 0.80906 0.13104 0.89818 0.0
O255 O 0.75444 0.08096 0.86848 0.0
Zn256 Zn 0.68467 0.00358 0.88188 0.0
Zn257 Zn 0.72409 0.12717 0.84962 0.0
Zn258 Zn 0.80016 0.06277 0.84235 0.0
O259 O 0.68309 0.92787 0.8657 0.0
O260 O 0.77547 0.97392 0.84466 0.0
O261 O 0.7786 0.08364 0.93388 0.0
O262 O 0.69802 -0.0059 0.91994 0.0
O263 O 0.60328 0.00543 0.88058 0.0
O264 O 0.63604 0.09656 0.86033 0.0
O265 O 0.73138 0.12672 0.80936 0.0
O266 O 0.89787 0.15079 0.89042 0.0
O267 O 0.78877 0.08166 0.805 0.0
O268 O 0.89066 0.11417 0.84928 0.0
C269 C 0.81109 0.24583 0.87938 0.0
C270 C 0.7272 0.92526 0.85326 0.0
C271 C 0.59366 0.04817 0.87203 0.0
C272 C 0.7348 0.02762 0.93824 0.0
C273 C 0.76089 0.10759 0.7947 0.0
C274 C 0.92333 0.14528 0.86907 0.0
O275 O 0.77631 0.21513 0.86 0.0
C276 C 0.19366 0.01855 0.09641 0.0
C277 C 0.16162 -0.02436 0.117 0.0
C278 C 0.21695 0.08254 0.10036 0.0
C279 C 0.20888 0.10543 0.125 0.0
H280 H 0.198 0.00244 0.07676 0.0
H281 H 0.23677 0.11343 0.08342 0.0
S282 S 0.1401 0.01481 0.18675 0.0
N283 N 0.13222 0.96242 0.1642 0.0
N284 N 0.17489 0.08234 0.17112 0.0
C285 C 0.18196 0.06394 0.1463 0.0
C286 C 0.1585 -0.00094 0.14242 0.0
C287 C 0.12934 0.22196 0.6325 0.0
C288 C 0.14643 0.21116 0.60688 0.0
C289 C 0.08598 0.24216 0.63589 0.0
C290 C 0.05886 0.25336 0.61384 0.0
H291 H 0.14677 0.21133 0.65022 0.0
H292 H 0.06969 0.24409 0.65589 0.0
S293 S 0.09319 0.24075 0.54263 0.0
N294 N 0.13755 0.22001 0.55901 0.0
N295 N 0.05587 0.25841 0.56563 0.0
C296 C 0.07969 0.24868 0.58817 0.0
C297 C 0.1236 0.22745 0.58461 0.0
C298 C 0.85541 0.07304 0.14357 0.0
C299 C 0.81397 0.05777 0.12228 0.0
C300 C 0.91895 0.11643 0.14043 0.0
C301 C 0.94368 0.14556 0.11571 0.0
H302 H 0.83926 0.04834 0.16231 0.0
H303 H 0.9492 0.12486 0.1573 0.0
S304 S 0.85261 0.1252 0.05442 0.0
N305 N 0.80004 0.07798 0.07635 0.0
N306 N 0.92011 0.15995 0.07022 0.0
C307 C 0.90173 0.13381 0.09475 0.0
C308 C 0.83662 0.08982 0.09811 0.0
C309 C 0.72868 0.88002 0.64632 0.0
C310 C 0.6951 0.83417 0.62706 0.0
C311 C 0.75286 0.94294 0.64074 0.0
C312 C 0.74435 0.96253 0.61565 0.0
H313 H 0.74057 0.86753 0.66512 0.0
H314 H 0.78079 -0.02356 0.65595 0.0
S315 S 0.64876 0.85973 0.56033 0.0
N316 N 0.64614 0.81146 0.58341 0.0
N317 N 0.69152 0.93043 0.57293 0.0
C318 C 0.70522 0.91683 0.59723 0.0
C319 C 0.6803 0.85238 0.60299 0.0
C320 C 0.82975 0.71702 0.13931 0.0
C321 C 0.85045 0.69569 0.11765 0.0
C322 C 0.7889 0.73972 0.13556 0.0
C323 C 0.76775 0.74256 0.10992 0.0
H324 H 0.84916 0.72078 0.15895 0.0
H325 H 0.77657 0.75819 0.15282 0.0
S326 S 0.80078 0.68265 0.04734 0.0
N327 N 0.84112 0.67095 0.07031 0.0
N328 N 0.76388 0.71401 0.06311 0.0
C329 C 0.78323 0.71561 0.08848 0.0
C330 C 0.8247 0.69191 0.09241 0.0
C331 C -0.01025 0.85037 0.6399 0.0
C332 C -0.0302 0.80613 0.61908 0.0
C333 C 0.0524 0.89651 0.64224 0.0
C334 C 0.09789 0.90034 0.62398 0.0
H335 H 0.95649 0.85131 0.65399 0.0
H336 H 0.06471 0.93151 0.65772 0.0
S337 S 0.07247 0.7892 0.56895 0.0
N338 N 0.00208 0.7638 0.5821 0.0
N339 N 0.12063 0.85147 0.58647 0.0
C340 C 0.07992 0.85339 0.60449 0.0
C341 C 0.01562 0.80618 0.60199 0.0
C342 C 0.91375 0.75739 0.38214 0.0
C343 C 0.95519 0.78652 0.36057 0.0
C344 C 0.84963 0.73647 0.37982 0.0
C345 C 0.82541 0.74438 0.35594 0.0
H346 H 0.93128 0.75386 0.40134 0.0
H347 H 0.82001 0.71898 0.39741 0.0
S348 S 0.91081 0.80493 0.29209 0.0
N349 N 0.96481 0.81194 0.31318 0.0
N350 N 0.84464 0.77414 0.30941 0.0
C351 C 0.86494 0.76781 0.33362 0.0
C352 C 0.92988 0.78864 0.3358 0.0
C353 C 0.11376 0.83661 0.87921 0.0
C354 C 0.08635 0.8131 0.85429 0.0
C355 C 0.15315 0.90084 0.88318 0.0
C356 C 0.16653 0.94304 0.86219 0.0
H357 H 0.09991 0.80606 0.89627 0.0
H358 H 0.16984 0.91761 0.90312 0.0
S359 S 0.11904 0.90134 0.79148 0.0
N360 N 0.08381 0.83428 0.80745 0.0
N361 N 0.15942 0.95467 0.81426 0.0
C362 C 0.14544 0.91873 0.83641 0.0
C363 C 0.10512 0.85368 0.83258 0.0
C364 C 0.17262 0.14724 0.33856 0.0
C365 C 0.18227 0.17787 0.36336 0.0
C366 C 0.19564 0.10704 0.33339 0.0
C367 C 0.2292 0.09581 0.35276 0.0
H368 H 0.14455 0.15187 0.32332 0.0
H369 H 0.1829 0.08087 0.31484 0.0
S370 S 0.27879 0.17404 0.41862 0.0
N371 N 0.23653 0.20195 0.40581 0.0
N372 N 0.27954 0.12536 0.39605 0.0
C373 C 0.24515 0.13101 0.37648 0.0
C374 C 0.22143 0.1721 0.38186 0.0
C375 C 0.0827 0.19868 0.83813 0.0
C376 C 0.1221 0.21736 0.86027 0.0
C377 C 0.01904 0.17861 0.84114 0.0
C378 C -0.00774 0.17548 0.86652 0.0
H379 H 0.10041 0.19561 0.8186 0.0
H380 H -0.0098 0.16257 0.8235 0.0
S381 S 0.07758 0.22428 0.93054 0.0
N382 N 0.13197 0.23611 0.90802 0.0
N383 N 0.01166 0.19805 0.91392 0.0
C384 C 0.03225 0.19835 0.88861 0.0
C385 C 0.09744 0.2194 0.88542 0.0
C386 C 0.84887 0.10346 0.34141 0.0
C387 C 0.86965 0.14333 0.36361 0.0
C388 C 0.80616 0.04004 0.34437 0.0
C389 C 0.7832 0.01399 0.36971 0.0
H390 H 0.86916 0.12065 0.32186 0.0
H391 H 0.79343 0.01084 0.3267 0.0
S392 S 0.81917 0.10076 0.43389 0.0
N393 N 0.86091 0.15441 0.41141 0.0
N394 N 0.7802 0.03456 0.41718 0.0
C395 C 0.8 0.0544 0.39187 0.0
C396 C 0.84335 0.11937 0.38876 0.0
C397 C 0.74259 0.79365 0.88072 0.0
C398 C 0.77522 0.78303 0.85996 0.0
C399 C 0.72039 0.83537 0.87748 0.0
C400 C 0.73025 0.86767 0.8534 0.0
H401 H 0.73689 0.77211 0.90001 0.0
H402 H 0.69991 0.84602 0.89456 0.0
S403 S 0.80161 0.84773 0.79134 0.0
N404 N 0.80737 0.8014 0.81309 0.0
N405 N 0.76675 0.88056 0.80752 0.0
C406 C 0.75791 0.85362 0.83187 0.0
C407 C 0.78022 0.81114 0.83502 0.0
C408 C 0.05746 0.50271 0.08157 0.0
C409 C 0.04832 0.52255 0.10679 0.0
C410 C 0.07801 0.45915 0.0793 0.0
C411 C 0.09008 0.43492 0.10224 0.0
H412 H 0.05356 0.52454 0.06366 0.0
H413 H 0.08843 0.44767 0.0597 0.0
S414 S 0.0606 0.46324 0.17247 0.0
N415 N 0.04406 0.50871 0.15468 0.0
N416 N 0.08122 0.4262 0.15068 0.0
C417 C 0.07513 0.45021 0.12738 0.0
C418 C 0.05461 0.49432 0.1296 0.0
C419 C 0.55513 0.05815 0.60511 0.0
C420 C 0.60033 0.10512 0.58853 0.0
C421 C 0.49415 0.04863 0.60735 0.0
C422 C 0.47744 0.08703 0.59361 0.0
H423 H 0.56819 0.03121 0.61764 0.0
H424 H 0.46164 0.0145 0.62142 0.0
S425 S 0.57665 0.2124 0.54593 0.0
N426 N 0.62258 0.18638 0.55645 0.0
N427 N 0.50848 0.16992 0.56125 0.0
C428 C 0.52094 0.13145 0.57576 0.0
C429 C 0.58242 0.14012 0.57302 0.0
C430 C 0.44953 0.57519 0.07404 0.0
C431 C 0.48834 0.60794 0.09556 0.0
C432 C 0.40532 0.5114 0.07637 0.0
C433 C 0.39978 0.47897 0.10005 0.0
H434 H 0.44986 0.5998 0.05627 0.0
H435 H 0.37208 0.48859 0.06044 0.0
S436 S 0.49791 0.54132 0.16006 0.0
N437 N 0.5243 0.60146 0.13974 0.0
N438 N 0.44087 0.482 0.14395 0.0
C439 C 0.44203 0.50994 0.12062 0.0
C440 C 0.48662 0.57447 0.11837 0.0
C441 C 0.84525 0.49383 0.59277 0.0
C442 C 0.7828 0.4808 0.59372 0.0
C443 C 0.85974 0.44659 0.59729 0.0
C444 C 0.81214 0.38528 0.60308 0.0
H445 H 0.88322 0.5413 0.5902 0.0
H446 H 0.9085 0.45865 0.59731 0.0
S447 S 0.64045 0.32646 0.60325 0.0
N448 N 0.67295 0.40188 0.5976 0.0
N449 N 0.69934 0.31305 0.60586 0.0
C450 C 0.74922 0.37131 0.60219 0.0
C451 C 0.73477 0.41912 0.59753 0.0
C452 C 0.41151 0.85789 0.08322 0.0
C453 C 0.43693 0.86368 0.10874 0.0
C454 C 0.34796 0.83972 0.08019 0.0
C455 C 0.30874 0.82683 0.10266 0.0
H456 H 0.4396 0.863 0.06559 0.0
H457 H 0.32875 0.83202 0.06031 0.0
S458 S 0.35721 0.84707 0.17366 0.0
N459 N 0.42117 0.86298 0.15652 0.0
N460 N 0.30277 0.83096 0.15122 0.0
C461 C 0.33566 0.83815 0.12823 0.0
C462 C 0.39962 0.85595 0.13118 0.0
C463 C 0.499 0.4458 0.58119 0.0
C464 C 0.50934 0.47214 0.60694 0.0
C465 C 0.45519 0.38253 0.57706 0.0
C466 C 0.4209 0.34465 0.59864 0.0
H467 H 0.52886 0.4726 0.56467 0.0
H468 H 0.45197 0.36227 0.55748 0.0
S469 S 0.4212 0.39597 0.66854 0.0
N470 N 0.47561 0.45889 0.65318 0.0
N471 N 0.39168 0.34075 0.64552 0.0
C472 C 0.42596 0.37265 0.62379 0.0
C473 C 0.47081 0.43637 0.62796 0.0
C474 C 0.42643 0.89943 0.39698 0.0
C475 C 0.41229 0.91079 0.37129 0.0
C476 C 0.46904 0.87812 0.40044 0.0
C477 C 0.49793 0.86753 0.37824 0.0
H478 H 0.40053 0.90181 0.41416 0.0
H479 H 0.47587 0.86573 0.42026 0.0
S480 S 0.48574 0.90335 0.30758 0.0
N481 N 0.43663 0.91893 0.32403 0.0
N482 N 0.5177 0.88053 0.3303 0.0
C483 C 0.48872 0.88504 0.35282 0.0
C484 C 0.44549 0.90628 0.34939 0.0
C485 C 0.6027 0.45643 0.84991 0.0
C486 C 0.62865 0.48258 0.87489 0.0
C487 C 0.53979 0.41154 0.84742 0.0
C488 C 0.49981 0.39141 0.8697 0.0
H489 H 0.63159 0.46914 0.83202 0.0
H490 H 0.52287 0.39037 0.82804 0.0
S491 S 0.54151 0.44918 0.93908 0.0
N492 N 0.60781 0.48867 0.92207 0.0
N493 N 0.48817 0.40358 0.91723 0.0
C494 C 0.52338 0.41991 0.89452 0.0
C495 C 0.58821 0.46577 0.89716 0.0
C496 C 0.11504 0.61902 0.35128 0.0
C497 C 0.11489 0.64644 0.37604 0.0
C498 C 0.09598 0.55604 0.34916 0.0
C499 C 0.07535 0.51758 0.3716 0.0
H500 H 0.13178 0.64669 0.33329 0.0
H501 H 0.10017 0.53786 0.32995 0.0
S502 S 0.05938 0.5638 0.44052 0.0
N503 N 0.08725 0.62884 0.42317 0.0
N504 N 0.05107 0.50913 0.41906 0.0
C505 C 0.07061 0.54278 0.3962 0.0
C506 C 0.09049 0.60763 0.39845 0.0
C507 C 0.50097 0.04628 0.85406 0.0
C508 C 0.53353 0.0452 0.87647 0.0
C509 C 0.45713 0.066 0.85618 0.0
C510 C 0.44493 0.08622 0.88074 0.0
H511 H 0.5128 0.03617 0.83444 0.0
H512 H 0.43513 0.06863 0.83806 0.0
S513 S 0.51329 0.08513 0.94588 0.0
N514 N 0.54718 0.05994 0.92436 0.0
N515 N 0.4641 0.09744 0.92845 0.0
C516 C 0.47329 0.08027 0.90375 0.0
C517 C 0.51803 0.05977 0.90155 0.0
C518 C 0.35875 0.47583 0.36139 0.0
C519 C 0.32584 0.46418 0.38581 0.0
C520 C 0.42146 0.52219 0.35919 0.0
C521 C 0.45379 0.55786 0.3814 0.0
H522 H 0.33484 0.45133 0.3434 0.0
H523 H 0.44362 0.53294 0.33965 0.0
S524 S 0.39212 0.54108 0.45044 0.0
N525 N 0.33205 0.48792 0.43319 0.0
N526 N 0.45121 0.57555 0.42902 0.0
C527 C 0.42349 0.54341 0.40641 0.0
C528 C 0.35905 0.49611 0.40866 0.0
C529 C 0.87553 0.4165 0.89691 0.0
C530 C 0.88817 0.4437 0.87143 0.0
C531 C 0.85386 0.35247 0.8999 0.0
C532 C 0.8441 0.31441 0.87741 0.0
H533 H 0.8776 0.44366 0.91435 0.0
H534 H 0.84082 0.33207 0.91958 0.0
S535 S 0.88264 0.36685 0.80706 0.0
N536 N 0.89785 0.4303 0.82401 0.0
N537 N 0.85869 0.31081 0.82937 0.0
C538 C 0.8624 0.34274 0.85216 0.0
C539 C 0.88404 0.40729 0.84922 0.0
C540 C 0.11509 0.27373 0.2559 0.0
C541 C 0.13389 0.33132 0.26856 0.0
C542 C 0.13094 0.27036 0.22935 0.0
C543 C 0.16595 0.32438 0.21394 0.0
H544 H 0.08832 0.23034 0.26664 0.0
H545 H 0.11465 0.22449 0.22082 0.0
S546 S 0.22675 0.48725 0.23743 0.0
N547 N 0.19002 0.44411 0.26371 0.0
N548 N 0.21915 0.43784 0.21343 0.0
C549 C 0.18547 0.38259 0.22629 0.0
C550 C 0.16957 0.38603 0.25362 0.0
C551 C 0.76821 0.18262 0.72775 0.0
C552 C 0.79523 0.15668 0.71081 0.0
C553 C 0.75534 0.16521 0.75472 0.0
C554 C 0.76832 0.12065 0.76561 0.0
H555 H 0.75795 0.21735 0.72026 0.0
H556 H 0.73639 0.18789 0.76722 0.0
S557 S 0.83119 0.03266 0.72855 0.0
N558 N 0.82934 0.08015 0.70628 0.0
N559 N 0.80464 0.04715 0.75651 0.0
C560 C 0.79294 0.09259 0.7485 0.0
C561 C 0.80655 0.11068 0.72125 0.0
C562 C 0.56521 0.78406 0.22851 0.0
C563 C 0.61845 0.80073 0.21235 0.0
C564 C 0.56591 0.77395 0.25603 0.0
C565 C 0.61976 0.77987 0.26827 0.0
H566 H 0.52329 0.78027 0.21999 0.0
H567 H 0.52472 0.76345 0.2679 0.0
S568 S 0.76806 0.81334 0.23413 0.0
N569 N 0.72423 0.81628 0.21029 0.0
N570 N 0.72526 0.79722 0.26161 0.0
C571 C 0.67211 0.79356 0.25207 0.0
C572 C 0.67154 0.80402 0.22424 0.0
C573 C 0.74477 0.5748 0.72822 0.0
C574 C 0.77703 0.62878 0.71258 0.0
C575 C 0.76705 0.57129 0.75341 0.0
C576 C 0.82271 0.6214 0.76365 0.0
H577 H 0.70122 0.53573 0.72127 0.0
H578 H 0.73912 0.53006 0.76534 0.0
S579 S 0.93002 0.76887 0.72848 0.0
N580 N 0.87116 0.7305 0.70783 0.0
N581 N 0.91309 0.72358 0.75477 0.0
C582 C 0.8572 0.67403 0.74744 0.0
C583 C 0.83432 0.67785 0.72205 0.0
C584 C 0.09936 0.8134 0.22465 0.0
C585 C 0.1171 0.77399 0.21156 0.0
C586 C 0.12164 0.83774 0.24995 0.0
C587 C 0.16241 0.82347 0.26358 0.0
H588 H 0.06861 0.82674 0.21515 0.0
H589 H 0.10583 0.86743 0.25897 0.0
S590 S 0.22321 0.72202 0.23834 0.0
N591 N 0.17822 0.72164 0.21419 0.0
N592 N 0.21969 0.76694 0.26206 0.0
C593 C 0.18058 0.78392 0.25085 0.0
C594 C 0.15797 0.75919 0.22485 0.0
C595 C 0.36698 0.19008 0.74941 0.0
C596 C 0.31266 0.15582 0.76516 0.0
C597 C 0.36596 0.18098 0.72164 0.0
C598 C 0.31068 0.13703 0.70875 0.0
H599 H 0.41015 0.22512 0.75849 0.0
H600 H 0.40817 0.20987 0.71014 0.0
S601 S 0.15822 0.02938 0.74143 0.0
N602 N 0.20369 0.07212 0.766 0.0
N603 N 0.20206 0.05482 0.71425 0.0
C604 C 0.25698 0.10055 0.7245 0.0
C605 C 0.25787 0.11002 0.75256 0.0
C606 C 0.23962 0.17586 0.98636 0.0
C607 C 0.24762 0.2132 0.96408 0.0
C608 C 0.22093 0.18815 0.01122 0.0
C609 C 0.20775 0.23702 0.01456 0.0
H610 H 0.24937 0.13788 0.98479 0.0
H611 H 0.2176 0.15973 0.02812 0.0
S612 S 0.22105 0.34885 0.96315 0.0
N613 N 0.24107 0.30233 0.94753 0.0
N614 N 0.20373 0.32274 -0.006 0.0
C615 C 0.21369 0.27355 -0.00749 0.0
C616 C 0.23424 0.26236 0.96737 0.0
C617 C -0.00889 0.31356 0.48108 0.0
C618 C 0.00694 0.27276 0.46809 0.0
C619 C 0.95246 0.29512 0.50378 0.0
C620 C 0.92649 0.23445 0.5141 0.0
H621 H 0.00821 0.36011 0.4734 0.0
H622 H 0.94244 0.32874 0.51326 0.0
S623 S 0.95252 0.10921 0.48706 0.0
N624 N -0.00644 0.16877 0.4669 0.0
N625 N 0.91984 0.13352 0.50961 0.0
C626 C 0.94156 0.19284 0.50122 0.0
C627 C -0.01783 0.21218 0.47825 0.0
C628 C 0.69197 0.90573 -0.00803 0.0
C629 C 0.68478 0.93486 0.01489 0.0
C630 C 0.71045 0.93709 0.96743 0.0
C631 C 0.72398 -0.00074 0.96497 0.0
H632 H 0.68202 0.85796 -0.00721 0.0
H633 H 0.71345 0.91216 0.9501 0.0
S634 S 0.71212 0.09719 0.01829 0.0
N635 N 0.6923 0.03049 0.03302 0.0
N636 N 0.7287 0.08874 0.98708 0.0
C637 C 0.71856 0.02955 0.98765 0.0
C638 C 0.69848 -0.00248 0.01252 0.0
C639 C 0.68185 0.746 0.51571 0.0
C640 C 0.72203 0.721 0.51837 0.0
C641 C 0.67061 0.76365 0.49087 0.0
C642 C 0.69841 0.75613 0.46765 0.0
H643 H 0.65737 0.75057 0.5329 0.0
H644 H 0.63751 0.78022 0.48971 0.0
S645 S 0.81304 0.70032 0.46375 0.0
N646 N 0.79415 0.69542 0.49571 0.0
N647 N 0.77256 0.72784 0.44893 0.0
C648 C 0.74125 0.73441 0.4701 0.0
C649 C 0.75324 0.71709 0.49547 0.0
C650 C 0.90424 0.66503 0.98546 0.0
C651 C 0.93856 0.69439 0.9624 0.0
C652 C 0.93393 0.67682 0.0102 0.0
C653 C -0.00113 0.7193 0.01297 0.0
H654 H 0.85494 0.63036 0.98419 0.0
H655 H 0.90567 0.65118 0.02725 0.0
S656 S 0.10777 0.81344 0.95868 0.0
N657 N 0.03963 0.77107 0.94385 0.0
N658 N 0.09506 0.79421 -0.0095 0.0
C659 C 0.03285 0.75154 -0.00979 0.0
C660 C 0.00277 0.73878 0.96492 0.0
C661 C 0.22949 0.02196 0.46355 0.0
C662 C 0.20892 0.95782 0.46125 0.0
C663 C 0.24246 0.05203 0.48846 0.0
C664 C 0.23646 0.01922 0.51202 0.0
H665 H 0.2364 0.04931 0.44584 0.0
H666 H 0.25898 0.10157 0.48914 0.0
S667 S 0.18402 0.84989 0.51638 0.0
N668 N 0.18225 0.8623 0.48426 0.0
N669 N 0.20692 0.91766 0.53117 0.0
C670 C 0.21459 0.95441 0.50988 0.0
C671 C 0.20066 0.92397 0.48451 0.0
loop_
_geom_bond_atom_site_label_1
_geom_bond_atom_site_label_2
_geom_bond_distance
_geom_bond_site_symmetry_2
_ccdc_geom_bond_type
O0 Zn1 1.953 . S
O0 C16 1.225 . S
Zn1 O0 1.953 . S
Zn1 O2 1.949 . S
Zn1 O8 1.919 . S
Zn1 O13 1.924 . S
O2 Zn1 1.949 . S
O2 Zn3 1.923 . S
O2 Zn4 1.950 . S
O2 Zn5 1.945 . S
Zn3 O2 1.923 . S
Zn3 O6 1.933 . S
Zn3 O9 1.941 . S
Zn3 O10 1.965 . S
Zn4 O2 1.950 . S
Zn4 O11 1.938 . S
Zn4 O12 1.906 . S
Zn4 O22 1.953 . S
Zn5 O2 1.945 . S
Zn5 O7 1.932 . S
Zn5 O14 1.977 . S
Zn5 O15 1.910 . S
O6 Zn3 1.933 . S
O6 C17 1.226 . S
O7 Zn5 1.932 . S
O7 C17 1.307 . S
O8 Zn1 1.919 . S
O8 C19 1.253 . S
O9 Zn3 1.941 . S
O9 C19 1.283 . S
O10 Zn3 1.965 . S
O10 C18 1.303 . S
O11 Zn4 1.938 . S
O11 C18 1.247 . S
O12 Zn4 1.906 . S
O12 C20 1.304 . S
O13 Zn1 1.924 . S
O13 C21 1.311 . S
O14 Zn5 1.977 . S
O14 C20 1.272 . S
O15 Zn5 1.910 . S
O15 C21 1.231 . S
C16 O0 1.225 . S
C16 O22 1.298 . S
C17 O6 1.226 . S
C17 O7 1.307 . S
C18 O10 1.303 . S
C18 O11 1.247 . S
C19 O8 1.253 . S
C19 O9 1.283 . S
C20 O12 1.304 . S
C20 O14 1.272 . S
C21 O13 1.311 . S
C21 O15 1.231 . S
O22 Zn4 1.953 . S
O22 C16 1.298 . S
O23 Zn24 1.953 . S
O23 C39 1.225 . S
Zn24 O23 1.953 . S
Zn24 O25 1.949 . S
Zn24 O31 1.919 . S
Zn24 O36 1.924 . S
O25 Zn24 1.949 . S
O25 Zn26 1.923 . S
O25 Zn27 1.950 . S
O25 Zn28 1.945 . S
Zn26 O25 1.923 . S
Zn26 O29 1.933 1_655 S
Zn26 O32 1.941 . S
Zn26 O33 1.965 . S
Zn27 O25 1.950 . S
Zn27 O34 1.938 . S
Zn27 O35 1.906 . S
Zn27 O45 1.953 . S
Zn28 O25 1.945 . S
Zn28 O30 1.932 . S
Zn28 O37 1.977 . S
Zn28 O38 1.910 . S
O29 Zn26 1.933 1_455 S
O29 C40 1.226 . S
O30 Zn28 1.932 . S
O30 C40 1.307 1_655 S
O31 Zn24 1.919 . S
O31 C42 1.253 . S
O32 Zn26 1.941 . S
O32 C42 1.283 . S
O33 Zn26 1.965 . S
O33 C41 1.303 . S
O34 Zn27 1.938 . S
O34 C41 1.247 . S
O35 Zn27 1.906 . S
O35 C43 1.304 . S
O36 Zn24 1.924 . S
O36 C44 1.311 . S
O37 Zn28 1.977 . S
O37 C43 1.272 . S
O38 Zn28 1.910 . S
O38 C44 1.231 . S
C39 O23 1.225 . S
C39 O45 1.298 . S
C40 O29 1.226 . S
C40 O30 1.307 1_455 S
C41 O33 1.303 . S
C41 O34 1.247 . S
C42 O31 1.253 . S
C42 O32 1.283 . S
C43 O35 1.304 . S
C43 O37 1.272 . S
C44 O36 1.311 . S
C44 O38 1.231 . S
O45 Zn27 1.953 . S
O45 C39 1.298 . S
O46 Zn47 1.953 . S
O46 C62 1.225 . S
Zn47 O46 1.953 . S
Zn47 O48 1.949 . S
Zn47 O54 1.919 . S
Zn47 O59 1.924 . S
O48 Zn47 1.949 . S
O48 Zn49 1.923 . S
O48 Zn50 1.950 . S
O48 Zn51 1.945 . S
Zn49 O48 1.923 . S
Zn49 O52 1.933 1_565 S
Zn49 O55 1.941 . S
Zn49 O56 1.965 . S
Zn50 O48 1.950 . S
Zn50 O57 1.938 . S
Zn50 O58 1.906 . S
Zn50 O68 1.953 . S
Zn51 O48 1.945 . S
Zn51 O53 1.932 . S
Zn51 O60 1.977 . S
Zn51 O61 1.910 . S
O52 Zn49 1.933 1_545 S
O52 C63 1.226 . S
O53 Zn51 1.932 . S
O53 C63 1.307 1_565 S
O54 Zn47 1.919 . S
O54 C65 1.253 . S
O55 Zn49 1.941 . S
O55 C65 1.283 . S
O56 Zn49 1.965 . S
O56 C64 1.303 . S
O57 Zn50 1.938 . S
O57 C64 1.247 . S
O58 Zn50 1.906 . S
O58 C66 1.304 . S
O59 Zn47 1.924 . S
O59 C67 1.311 . S
O60 Zn51 1.977 . S
O60 C66 1.272 . S
O61 Zn51 1.910 . S
O61 C67 1.231 . S
C62 O46 1.225 . S
C62 O68 1.298 . S
C63 O52 1.226 . S
C63 O53 1.307 1_545 S
C64 O56 1.303 . S
C64 O57 1.247 . S
C65 O54 1.253 . S
C65 O55 1.283 . S
C66 O58 1.304 . S
C66 O60 1.272 . S
C67 O59 1.311 . S
C67 O61 1.231 . S
O68 Zn50 1.953 . S
O68 C62 1.298 . S
O69 Zn70 1.953 . S
O69 C85 1.225 . S
Zn70 O69 1.953 . S
Zn70 O71 1.949 . S
Zn70 O77 1.919 . S
Zn70 O82 1.924 . S
O71 Zn70 1.949 . S
O71 Zn72 1.923 . S
O71 Zn73 1.950 . S
O71 Zn74 1.945 . S
Zn72 O71 1.923 . S
Zn72 O75 1.933 . S
Zn72 O78 1.941 . S
Zn72 O79 1.965 . S
Zn73 O71 1.950 . S
Zn73 O80 1.938 . S
Zn73 O81 1.906 . S
Zn73 O91 1.953 . S
Zn74 O71 1.945 . S
Zn74 O76 1.932 . S
Zn74 O83 1.977 . S
Zn74 O84 1.910 . S
O75 Zn72 1.933 . S
O75 C86 1.226 . S
O76 Zn74 1.932 . S
O76 C86 1.307 . S
O77 Zn70 1.919 . S
O77 C88 1.253 . S
O78 Zn72 1.941 . S
O78 C88 1.283 . S
O79 Zn72 1.965 . S
O79 C87 1.303 . S
O80 Zn73 1.938 . S
O80 C87 1.247 . S
O81 Zn73 1.906 . S
O81 C89 1.304 . S
O82 Zn70 1.924 . S
O82 C90 1.311 . S
O83 Zn74 1.977 . S
O83 C89 1.272 . S
O84 Zn74 1.910 . S
O84 C90 1.231 . S
C85 O69 1.225 . S
C85 O91 1.298 . S
C86 O75 1.226 . S
C86 O76 1.307 . S
C87 O79 1.303 . S
C87 O80 1.247 . S
C88 O77 1.253 . S
C88 O78 1.283 . S
C89 O81 1.304 . S
C89 O83 1.272 . S
C90 O82 1.311 . S
C90 O84 1.231 . S
O91 Zn73 1.953 . S
O91 C85 1.298 . S
O92 Zn93 1.953 . S
O92 C108 1.225 . S
Zn93 O92 1.953 . S
Zn93 O94 1.949 . S
Zn93 O100 1.919 . S
Zn93 O105 1.924 . S
O94 Zn93 1.949 . S
O94 Zn95 1.923 . S
O94 Zn96 1.950 . S
O94 Zn97 1.945 . S
Zn95 O94 1.923 . S
Zn95 O98 1.933 1_455 S
Zn95 O101 1.941 . S
Zn95 O102 1.965 . S
Zn96 O94 1.950 . S
Zn96 O103 1.938 . S
Zn96 O104 1.906 . S
Zn96 O114 1.953 . S
Zn97 O94 1.945 . S
Zn97 O99 1.932 . S
Zn97 O106 1.977 . S
Zn97 O107 1.910 . S
O98 Zn95 1.933 1_655 S
O98 C109 1.226 . S
O99 Zn97 1.932 . S
O99 C109 1.307 1_455 S
O100 Zn93 1.919 . S
O100 C111 1.253 . S
O101 Zn95 1.941 . S
O101 C111 1.283 . S
O102 Zn95 1.965 . S
O102 C110 1.303 . S
O103 Zn96 1.938 . S
O103 C110 1.247 . S
O104 Zn96 1.906 . S
O104 C112 1.304 . S
O105 Zn93 1.924 . S
O105 C113 1.311 . S
O106 Zn97 1.977 . S
O106 C112 1.272 . S
O107 Zn97 1.910 . S
O107 C113 1.231 . S
C108 O92 1.225 . S
C108 O114 1.298 . S
C109 O98 1.226 . S
C109 O99 1.307 1_655 S
C110 O102 1.303 . S
C110 O103 1.247 . S
C111 O100 1.253 . S
C111 O101 1.283 . S
C112 O104 1.304 . S
C112 O106 1.272 . S
C113 O105 1.311 . S
C113 O107 1.231 . S
O114 Zn96 1.953 . S
O114 C108 1.298 . S
O115 Zn116 1.953 . S
O115 C131 1.225 . S
Zn116 O115 1.953 . S
Zn116 O117 1.949 . S
Zn116 O123 1.919 . S
Zn116 O128 1.924 . S
O117 Zn116 1.949 . S
O117 Zn118 1.923 . S
O117 Zn119 1.950 . S
O117 Zn120 1.945 . S
Zn118 O117 1.923 . S
Zn118 O121 1.933 1_545 S
Zn118 O124 1.941 . S
Zn118 O125 1.965 . S
Zn119 O117 1.950 . S
Zn119 O126 1.938 . S
Zn119 O127 1.906 . S
Zn119 O137 1.953 . S
Zn120 O117 1.945 . S
Zn120 O122 1.932 . S
Zn120 O129 1.977 . S
Zn120 O130 1.910 . S
O121 Zn118 1.933 1_565 S
O121 C132 1.226 . S
O122 Zn120 1.932 . S
O122 C132 1.307 1_545 S
O123 Zn116 1.919 . S
O123 C134 1.253 . S
O124 Zn118 1.941 . S
O124 C134 1.283 . S
O125 Zn118 1.965 . S
O125 C133 1.303 . S
O126 Zn119 1.938 . S
O126 C133 1.247 . S
O127 Zn119 1.906 . S
O127 C135 1.304 . S
O128 Zn116 1.924 . S
O128 C136 1.311 . S
O129 Zn120 1.977 . S
O129 C135 1.272 . S
O130 Zn120 1.910 . S
O130 C136 1.231 . S
C131 O115 1.225 . S
C131 O137 1.298 . S
C132 O121 1.226 . S
C132 O122 1.307 1_565 S
C133 O125 1.303 . S
C133 O126 1.247 . S
C134 O123 1.253 . S
C134 O124 1.283 . S
C135 O127 1.304 . S
C135 O129 1.272 . S
C136 O128 1.311 . S
C136 O130 1.231 . S
O137 Zn119 1.953 . S
O137 C131 1.298 . S
O138 Zn139 1.953 . S
O138 C154 1.225 . S
Zn139 O138 1.953 . S
Zn139 O140 1.949 . S
Zn139 O146 1.919 . S
Zn139 O151 1.924 . S
O140 Zn139 1.949 . S
O140 Zn141 1.923 . S
O140 Zn142 1.950 . S
O140 Zn143 1.945 . S
Zn141 O140 1.923 . S
Zn141 O144 1.933 . S
Zn141 O147 1.941 . S
Zn141 O148 1.965 . S
Zn142 O140 1.950 . S
Zn142 O149 1.938 . S
Zn142 O150 1.906 . S
Zn142 O160 1.953 . S
Zn143 O140 1.945 . S
Zn143 O145 1.932 . S
Zn143 O152 1.977 . S
Zn143 O153 1.910 . S
O144 Zn141 1.933 . S
O144 C155 1.226 . S
O145 Zn143 1.932 . S
O145 C155 1.307 . S
O146 Zn139 1.919 . S
O146 C157 1.253 . S
O147 Zn141 1.941 . S
O147 C157 1.283 . S
O148 Zn141 1.965 . S
O148 C156 1.303 . S
O149 Zn142 1.938 . S
O149 C156 1.247 . S
O150 Zn142 1.906 . S
O150 C158 1.304 . S
O151 Zn139 1.924 . S
O151 C159 1.311 . S
O152 Zn143 1.977 . S
O152 C158 1.272 . S
O153 Zn143 1.910 . S
O153 C159 1.231 . S
C154 O138 1.225 . S
C154 O160 1.298 . S
C155 O144 1.226 . S
C155 O145 1.307 . S
C156 O148 1.303 . S
C156 O149 1.247 . S
C157 O146 1.253 . S
C157 O147 1.283 . S
C158 O150 1.304 . S
C158 O152 1.272 . S
C159 O151 1.311 . S
C159 O153 1.231 . S
O160 Zn142 1.953 . S
O160 C154 1.298 . S
O161 Zn162 1.953 . S
O161 C177 1.225 . S
Zn162 O161 1.953 . S
Zn162 O163 1.949 . S
Zn162 O169 1.919 . S
Zn162 O174 1.924 . S
O163 Zn162 1.949 . S
O163 Zn164 1.923 . S
O163 Zn165 1.950 . S
O163 Zn166 1.945 . S
Zn164 O163 1.923 . S
Zn164 O167 1.933 1_655 S
Zn164 O170 1.941 . S
Zn164 O171 1.965 . S
Zn165 O163 1.950 . S
Zn165 O172 1.938 . S
Zn165 O173 1.906 . S
Zn165 O183 1.953 . S
Zn166 O163 1.945 . S
Zn166 O168 1.932 . S
Zn166 O175 1.977 . S
Zn166 O176 1.910 . S
O167 Zn164 1.933 1_455 S
O167 C178 1.226 . S
O168 Zn166 1.932 . S
O168 C178 1.307 1_655 S
O169 Zn162 1.919 . S
O169 C180 1.253 . S
O170 Zn164 1.941 . S
O170 C180 1.283 . S
O171 Zn164 1.965 . S
O171 C179 1.303 . S
O172 Zn165 1.938 . S
O172 C179 1.247 . S
O173 Zn165 1.906 . S
O173 C181 1.304 . S
O174 Zn162 1.924 . S
O174 C182 1.311 . S
O175 Zn166 1.977 . S
O175 C181 1.272 . S
O176 Zn166 1.910 . S
O176 C182 1.231 . S
C177 O161 1.225 . S
C177 O183 1.298 . S
C178 O167 1.226 . S
C178 O168 1.307 1_455 S
C179 O171 1.303 . S
C179 O172 1.247 . S
C180 O169 1.253 . S
C180 O170 1.283 . S
C181 O173 1.304 . S
C181 O175 1.272 . S
C182 O174 1.311 . S
C182 O176 1.231 . S
O183 Zn165 1.953 . S
O183 C177 1.298 . S
O184 Zn185 1.953 . S
O184 C200 1.225 . S
Zn185 O184 1.953 . S
Zn185 O186 1.949 . S
Zn185 O192 1.919 . S
Zn185 O197 1.924 . S
O186 Zn185 1.949 . S
O186 Zn187 1.923 . S
O186 Zn188 1.950 . S
O186 Zn189 1.945 . S
Zn187 O186 1.923 . S
Zn187 O190 1.933 1_565 S
Zn187 O193 1.941 . S
Zn187 O194 1.965 . S
Zn188 O186 1.950 . S
Zn188 O195 1.938 . S
Zn188 O196 1.906 . S
Zn188 O206 1.953 . S
Zn189 O186 1.945 . S
Zn189 O191 1.932 . S
Zn189 O198 1.977 . S
Zn189 O199 1.910 . S
O190 Zn187 1.933 1_545 S
O190 C201 1.226 . S
O191 Zn189 1.932 . S
O191 C201 1.307 1_565 S
O192 Zn185 1.919 . S
O192 C203 1.253 . S
O193 Zn187 1.941 . S
O193 C203 1.283 . S
O194 Zn187 1.965 . S
O194 C202 1.303 . S
O195 Zn188 1.938 . S
O195 C202 1.247 . S
O196 Zn188 1.906 . S
O196 C204 1.304 . S
O197 Zn185 1.924 . S
O197 C205 1.311 . S
O198 Zn189 1.977 . S
O198 C204 1.272 . S
O199 Zn189 1.910 . S
O199 C205 1.231 . S
C200 O184 1.225 . S
C200 O206 1.298 . S
C201 O190 1.226 . S
C201 O191 1.307 1_545 S
C202 O194 1.303 . S
C202 O195 1.247 . S
C203 O192 1.253 . S
C203 O193 1.283 . S
C204 O196 1.304 . S
C204 O198 1.272 . S
C205 O197 1.311 . S
C205 O199 1.231 . S
O206 Zn188 1.953 . S
O206 C200 1.298 . S
O207 Zn208 1.953 . S
O207 C223 1.225 . S
Zn208 O207 1.953 . S
Zn208 O209 1.949 . S
Zn208 O215 1.919 . S
Zn208 O220 1.924 . S
O209 Zn208 1.949 . S
O209 Zn210 1.923 . S
O209 Zn211 1.950 . S
O209 Zn212 1.945 . S
Zn210 O209 1.923 . S
Zn210 O213 1.933 . S
Zn210 O216 1.941 . S
Zn210 O217 1.965 . S
Zn211 O209 1.950 . S
Zn211 O218 1.938 . S
Zn211 O219 1.906 . S
Zn211 O229 1.953 . S
Zn212 O209 1.945 . S
Zn212 O214 1.932 . S
Zn212 O221 1.977 . S
Zn212 O222 1.910 . S
O213 Zn210 1.933 . S
O213 C224 1.226 . S
O214 Zn212 1.932 . S
O214 C224 1.307 . S
O215 Zn208 1.919 . S
O215 C226 1.253 . S
O216 Zn210 1.941 . S
O216 C226 1.283 . S
O217 Zn210 1.965 . S
O217 C225 1.303 . S
O218 Zn211 1.938 . S
O218 C225 1.247 . S
O219 Zn211 1.906 . S
O219 C227 1.304 . S
O220 Zn208 1.924 . S
O220 C228 1.311 . S
O221 Zn212 1.977 . S
O221 C227 1.272 . S
O222 Zn212 1.910 . S
O222 C228 1.231 . S
C223 O207 1.225 . S
C223 O229 1.298 . S
C224 O213 1.226 . S
C224 O214 1.307 . S
C225 O217 1.303 . S
C225 O218 1.247 . S
C226 O215 1.253 . S
C226 O216 1.283 . S
C227 O219 1.304 . S
C227 O221 1.272 . S
C228 O220 1.311 . S
C228 O222 1.231 . S
O229 Zn211 1.953 . S
O229 C223 1.298 . S
O230 Zn231 1.953 . S
O230 C246 1.225 . S
Zn231 O230 1.953 . S
Zn231 O232 1.949 . S
Zn231 O238 1.919 . S
Zn231 O243 1.924 . S
O232 Zn231 1.949 . S
O232 Zn233 1.923 . S
O232 Zn234 1.950 . S
O232 Zn235 1.945 . S
Zn233 O232 1.923 . S
Zn233 O236 1.933 1_455 S
Zn233 O239 1.941 . S
Zn233 O240 1.965 . S
Zn234 O232 1.950 . S
Zn234 O241 1.938 . S
Zn234 O242 1.906 . S
Zn234 O252 1.953 . S
Zn235 O232 1.945 . S
Zn235 O237 1.932 . S
Zn235 O244 1.977 . S
Zn235 O245 1.910 . S
O236 Zn233 1.933 1_655 S
O236 C247 1.226 . S
O237 Zn235 1.932 . S
O237 C247 1.307 1_455 S
O238 Zn231 1.919 . S
O238 C249 1.253 . S
O239 Zn233 1.941 . S
O239 C249 1.283 . S
O240 Zn233 1.965 . S
O240 C248 1.303 . S
O241 Zn234 1.938 . S
O241 C248 1.247 . S
O242 Zn234 1.906 . S
O242 C250 1.304 . S
O243 Zn231 1.924 . S
O243 C251 1.311 . S
O244 Zn235 1.977 . S
O244 C250 1.272 . S
O245 Zn235 1.910 . S
O245 C251 1.231 . S
C246 O230 1.225 . S
C246 O252 1.298 . S
C247 O236 1.226 . S
C247 O237 1.307 1_655 S
C248 O240 1.303 . S
C248 O241 1.247 . S
C249 O238 1.253 . S
C249 O239 1.283 . S
C250 O242 1.304 . S
C250 O244 1.272 . S
C251 O243 1.311 . S
C251 O245 1.231 . S
O252 Zn234 1.953 . S
O252 C246 1.298 . S
O253 Zn254 1.953 . S
O253 C269 1.225 . S
Zn254 O253 1.953 . S
Zn254 O255 1.949 . S
Zn254 O261 1.919 . S
Zn254 O266 1.924 . S
O255 Zn254 1.949 . S
O255 Zn256 1.923 . S
O255 Zn257 1.950 . S
O255 Zn258 1.945 . S
Zn256 O255 1.923 . S
Zn256 O259 1.933 1_545 S
Zn256 O262 1.941 . S
Zn256 O263 1.965 . S
Zn257 O255 1.950 . S
Zn257 O264 1.938 . S
Zn257 O265 1.906 . S
Zn257 O275 1.953 . S
Zn258 O255 1.945 . S
Zn258 O260 1.932 . S
Zn258 O267 1.977 . S
Zn258 O268 1.910 . S
O259 Zn256 1.933 1_565 S
O259 C270 1.226 . S
O260 Zn258 1.932 . S
O260 C270 1.307 1_545 S
O261 Zn254 1.919 . S
O261 C272 1.253 . S
O262 Zn256 1.941 . S
O262 C272 1.283 . S
O263 Zn256 1.965 . S
O263 C271 1.303 . S
O264 Zn257 1.938 . S
O264 C271 1.247 . S
O265 Zn257 1.906 . S
O265 C273 1.304 . S
O266 Zn254 1.924 . S
O266 C274 1.311 . S
O267 Zn258 1.977 . S
O267 C273 1.272 . S
O268 Zn258 1.910 . S
O268 C274 1.231 . S
C269 O253 1.225 . S
C269 O275 1.298 . S
C270 O259 1.226 . S
C270 O260 1.307 1_565 S
C271 O263 1.303 . S
C271 O264 1.247 . S
C272 O261 1.253 . S
C272 O262 1.283 . S
C273 O265 1.304 . S
C273 O267 1.272 . S
C274 O266 1.311 . S
C274 O268 1.231 . S
O275 Zn257 1.953 . S
O275 C269 1.298 . S
C276 C277 1.369 . S
C276 C278 1.419 . S
C276 H280 0.930 . S
C277 C276 1.369 . S
C277 C286 1.429 . S
C278 C276 1.419 . S
C278 C279 1.363 . S
C278 H281 0.929 . S
C279 C278 1.363 . S
C279 C285 1.428 . S
H280 C276 0.930 . S
H281 C278 0.929 . S
S282 N283 1.613 . S
S282 N284 1.610 . S
N283 S282 1.613 . S
N283 C286 1.350 . S
N284 S282 1.610 . S
N284 C285 1.351 . S
C285 C279 1.428 . S
C285 N284 1.351 . S
C285 C286 1.434 . S
C286 C277 1.429 . S
C286 N283 1.350 . S
C286 C285 1.434 . S
C287 C288 1.369 . S
C287 C289 1.419 . S
C287 H291 0.930 . S
C288 C287 1.369 . S
C288 C297 1.429 . S
C289 C287 1.419 . S
C289 C290 1.363 . S
C289 H292 0.929 . S
C290 C289 1.363 . S
C290 C296 1.428 . S
H291 C287 0.930 . S
H292 C289 0.929 . S
S293 N294 1.613 . S
S293 N295 1.610 . S
N294 S293 1.613 . S
N294 C297 1.350 . S
N295 S293 1.610 . S
N295 C296 1.351 . S
C296 C290 1.428 . S
C296 N295 1.351 . S
C296 C297 1.434 . S
C297 C288 1.429 . S
C297 N294 1.350 . S
C297 C296 1.434 . S
C298 C299 1.369 . S
C298 C300 1.419 . S
C298 H302 0.930 . S
C299 C298 1.369 . S
C299 C308 1.429 . S
C300 C298 1.419 . S
C300 C301 1.363 . S
C300 H303 0.929 . S
C301 C300 1.363 . S
C301 C307 1.428 . S
H302 C298 0.930 . S
H303 C300 0.929 . S
S304 N305 1.613 . S
S304 N306 1.610 . S
N305 S304 1.613 . S
N305 C308 1.350 . S
N306 S304 1.610 . S
N306 C307 1.351 . S
C307 C301 1.428 . S
C307 N306 1.351 . S
C307 C308 1.434 . S
C308 C299 1.429 . S
C308 N305 1.350 . S
C308 C307 1.434 . S
C309 C310 1.369 . S
C309 C311 1.419 . S
C309 H313 0.930 . S
C310 C309 1.369 . S
C310 C319 1.429 . S
C311 C309 1.419 . S
C311 C312 1.363 . S
C311 H314 0.932 . S
C312 C311 1.363 . S
C312 C318 1.428 . S
H313 C309 0.930 . S
H314 C311 0.932 . S
S315 N316 1.613 . S
S315 N317 1.610 . S
N316 S315 1.613 . S
N316 C319 1.350 . S
N317 S315 1.610 . S
N317 C318 1.351 . S
C318 C312 1.428 . S
C318 N317 1.351 . S
C318 C319 1.434 . S
C319 C310 1.429 . S
C319 N316 1.350 . S
C319 C318 1.434 . S
C320 C321 1.369 . S
C320 C322 1.419 . S
C320 H324 0.930 . S
C321 C320 1.369 . S
C321 C330 1.429 . S
C322 C320 1.419 . S
C322 C323 1.363 . S
C322 H325 0.929 . S
C323 C322 1.363 . S
C323 C329 1.428 . S
H324 C320 0.930 . S
H325 C322 0.929 . S
S326 N327 1.613 . S
S326 N328 1.610 . S
N327 S326 1.613 . S
N327 C330 1.350 . S
N328 S326 1.610 . S
N328 C329 1.351 . S
C329 C323 1.428 . S
C329 N328 1.351 . S
C329 C330 1.434 . S
C330 C321 1.429 . S
C330 N327 1.350 . S
C330 C329 1.434 . S
C331 C332 1.369 . S
C331 C333 1.419 . S
C331 H335 0.930 . S
C332 C331 1.369 . S
C332 C341 1.429 . S
C333 C331 1.419 . S
C333 C334 1.363 . S
C333 H336 0.929 . S
C334 C333 1.363 . S
C334 C340 1.428 . S
H335 C331 0.930 . S
H336 C333 0.929 . S
S337 N338 1.613 1_455 S
S337 N339 1.610 . S
N338 S337 1.613 1_655 S
N338 C341 1.350 1_655 S
N339 S337 1.610 . S
N339 C340 1.351 . S
C340 C334 1.428 . S
C340 N339 1.351 . S
C340 C341 1.434 . S
C341 C332 1.429 . S
C341 N338 1.350 1_455 S
C341 C340 1.434 . S
C342 C343 1.369 . S
C342 C344 1.419 . S
C342 H346 0.930 . S
C343 C342 1.369 . S
C343 C352 1.429 . S
C344 C342 1.419 . S
C344 C345 1.363 . S
C344 H347 0.929 . S
C345 C344 1.363 . S
C345 C351 1.428 . S
H346 C342 0.930 . S
H347 C344 0.929 . S
S348 N349 1.613 . S
S348 N350 1.610 . S
N349 S348 1.613 . S
N349 C352 1.350 . S
N350 S348 1.610 . S
N350 C351 1.351 . S
C351 C345 1.428 . S
C351 N350 1.351 . S
C351 C352 1.434 . S
C352 C343 1.429 . S
C352 N349 1.350 . S
C352 C351 1.434 . S
C353 C354 1.369 . S
C353 C355 1.419 . S
C353 H357 0.930 . S
C354 C353 1.369 . S
C354 C363 1.429 . S
C355 C353 1.419 . S
C355 C356 1.363 . S
C355 H358 0.929 . S
C356 C355 1.363 . S
C356 C362 1.428 . S
H357 C353 0.930 . S
H358 C355 0.929 . S
S359 N360 1.613 . S
S359 N361 1.610 . S
N360 S359 1.613 . S
N360 C363 1.350 . S
N361 S359 1.610 . S
N361 C362 1.351 . S
C362 C356 1.428 . S
C362 N361 1.351 . S
C362 C363 1.434 . S
C363 C354 1.429 . S
C363 N360 1.350 . S
C363 C362 1.434 . S
C364 C365 1.369 . S
C364 C366 1.419 . S
C364 H368 0.930 . S
C365 C364 1.369 . S
C365 C374 1.429 . S
C366 C364 1.419 . S
C366 C367 1.363 . S
C366 H369 0.929 . S
C367 C366 1.363 . S
C367 C373 1.428 . S
H368 C364 0.930 . S
H369 C366 0.929 . S
S370 N371 1.613 . S
S370 N372 1.610 . S
N371 S370 1.613 . S
N371 C374 1.350 . S
N372 S370 1.610 . S
N372 C373 1.351 . S
C373 C367 1.428 . S
C373 N372 1.351 . S
C373 C374 1.434 . S
C374 C365 1.429 . S
C374 N371 1.350 . S
C374 C373 1.434 . S
C375 C376 1.369 . S
C375 C377 1.419 . S
C375 H379 0.930 . S
C376 C375 1.369 . S
C376 C385 1.429 . S
C377 C375 1.419 . S
C377 C378 1.363 . S
C377 H380 0.929 . S
C378 C377 1.363 . S
C378 C384 1.428 . S
H379 C375 0.930 . S
H380 C377 0.929 . S
S381 N382 1.613 . S
S381 N383 1.610 . S
N382 S381 1.613 . S
N382 C385 1.350 . S
N383 S381 1.610 . S
N383 C384 1.351 . S
C384 C378 1.428 . S
C384 N383 1.351 . S
C384 C385 1.434 . S
C385 C376 1.429 . S
C385 N382 1.350 . S
C385 C384 1.434 . S
C386 C387 1.369 . S
C386 C388 1.419 . S
C386 H390 0.930 . S
C387 C386 1.369 . S
C387 C396 1.429 . S
C388 C386 1.419 . S
C388 C389 1.363 . S
C388 H391 0.929 . S
C389 C388 1.363 . S
C389 C395 1.428 . S
H390 C386 0.930 . S
H391 C388 0.929 . S
S392 N393 1.613 . S
S392 N394 1.610 . S
N393 S392 1.613 . S
N393 C396 1.350 . S
N394 S392 1.610 . S
N394 C395 1.351 . S
C395 C389 1.428 . S
C395 N394 1.351 . S
C395 C396 1.434 . S
C396 C387 1.429 . S
C396 N393 1.350 . S
C396 C395 1.434 . S
C397 C398 1.369 . S
C397 C399 1.419 . S
C397 H401 0.930 . S
C398 C397 1.369 . S
C398 C407 1.429 . S
C399 C397 1.419 . S
C399 C400 1.363 . S
C399 H402 0.929 . S
C400 C399 1.363 . S
C400 C406 1.428 . S
H401 C397 0.930 . S
H402 C399 0.929 . S
S403 N404 1.613 . S
S403 N405 1.610 . S
N404 S403 1.613 . S
N404 C407 1.350 . S
N405 S403 1.610 . S
N405 C406 1.351 . S
C406 C400 1.428 . S
C406 N405 1.351 . S
C406 C407 1.434 . S
C407 C398 1.429 . S
C407 N404 1.350 . S
C407 C406 1.434 . S
C408 C409 1.369 . S
C408 C410 1.419 . S
C408 H412 0.930 . S
C409 C408 1.369 . S
C409 C418 1.429 . S
C410 C408 1.419 . S
C410 C411 1.363 . S
C410 H413 0.929 . S
C411 C410 1.363 . S
C411 C417 1.428 . S
H412 C408 0.930 . S
H413 C410 0.929 . S
S414 N415 1.613 . S
S414 N416 1.610 . S
N415 S414 1.613 . S
N415 C418 1.350 . S
N416 S414 1.610 . S
N416 C417 1.351 . S
C417 C411 1.428 . S
C417 N416 1.351 . S
C417 C418 1.434 . S
C418 C409 1.429 . S
C418 N415 1.350 . S
C418 C417 1.434 . S
C419 C420 1.369 . S
C419 C421 1.419 . S
C419 H423 0.930 . S
C420 C419 1.369 . S
C420 C429 1.429 . S
C421 C419 1.419 . S
C421 C422 1.363 . S
C421 H424 0.929 . S
C422 C421 1.363 . S
C422 C428 1.428 . S
H423 C419 0.930 . S
H424 C421 0.929 . S
S425 N426 1.613 . S
S425 N427 1.610 . S
N426 S425 1.613 . S
N426 C429 1.350 . S
N427 S425 1.610 . S
N427 C428 1.351 . S
C428 C422 1.428 . S
C428 N427 1.351 . S
C428 C429 1.434 . S
C429 C420 1.429 . S
C429 N426 1.350 . S
C429 C428 1.434 . S
C430 C431 1.369 . S
C430 C432 1.419 . S
C430 H434 0.930 . S
C431 C430 1.369 . S
C431 C440 1.429 . S
C432 C430 1.419 . S
C432 C433 1.363 . S
C432 H435 0.929 . S
C433 C432 1.363 . S
C433 C439 1.428 . S
H434 C430 0.930 . S
H435 C432 0.929 . S
S436 N437 1.613 . S
S436 N438 1.610 . S
N437 S436 1.613 . S
N437 C440 1.350 . S
N438 S436 1.610 . S
N438 C439 1.351 . S
C439 C433 1.428 . S
C439 N438 1.351 . S
C439 C440 1.434 . S
C440 C431 1.429 . S
C440 N437 1.350 . S
C440 C439 1.434 . S
C441 C442 1.369 . S
C441 C443 1.419 . S
C441 H445 0.930 . S
C442 C441 1.369 . S
C442 C451 1.429 . S
C443 C441 1.419 . S
C443 C444 1.363 . S
C443 H446 0.929 . S
C444 C443 1.363 . S
C444 C450 1.428 . S
H445 C441 0.930 . S
H446 C443 0.929 . S
S447 N448 1.613 . S
S447 N449 1.610 . S
N448 S447 1.613 . S
N448 C451 1.350 . S
N449 S447 1.610 . S
N449 C450 1.351 . S
C450 C444 1.428 . S
C450 N449 1.351 . S
C450 C451 1.434 . S
C451 C442 1.429 . S
C451 N448 1.350 . S
C451 C450 1.434 . S
C452 C453 1.369 . S
C452 C454 1.419 . S
C452 H456 0.930 . S
C453 C452 1.369 . S
C453 C462 1.429 . S
C454 C452 1.419 . S
C454 C455 1.363 . S
C454 H457 0.929 . S
C455 C454 1.363 . S
C455 C461 1.428 . S
H456 C452 0.930 . S
H457 C454 0.929 . S
S458 N459 1.613 . S
S458 N460 1.610 . S
N459 S458 1.613 . S
N459 C462 1.350 . S
N460 S458 1.610 . S
N460 C461 1.351 . S
C461 C455 1.428 . S
C461 N460 1.351 . S
C461 C462 1.434 . S
C462 C453 1.429 . S
C462 N459 1.350 . S
C462 C461 1.434 . S
C463 C464 1.369 . S
C463 C465 1.419 . S
C463 H467 0.930 . S
C464 C463 1.369 . S
C464 C473 1.429 . S
C465 C463 1.419 . S
C465 C466 1.363 . S
C465 H468 0.929 . S
C466 C465 1.363 . S
C466 C472 1.428 . S
H467 C463 0.930 . S
H468 C465 0.929 . S
S469 N470 1.613 . S
S469 N471 1.610 . S
N470 S469 1.613 . S
N470 C473 1.350 . S
N471 S469 1.610 . S
N471 C472 1.351 . S
C472 C466 1.428 . S
C472 N471 1.351 . S
C472 C473 1.434 . S
C473 C464 1.429 . S
C473 N470 1.350 . S
C473 C472 1.434 . S
C474 C475 1.369 . S
C474 C476 1.419 . S
C474 H478 0.930 . S
C475 C474 1.369 . S
C475 C484 1.429 . S
C476 C474 1.419 . S
C476 C477 1.363 . S
C476 H479 0.929 . S
C477 C476 1.363 . S
C477 C483 1.428 . S
H478 C474 0.930 . S
H479 C476 0.929 . S
S480 N481 1.613 . S
S480 N482 1.610 . S
N481 S480 1.613 . S
N481 C484 1.350 . S
N482 S480 1.610 . S
N482 C483 1.351 . S
C483 C477 1.428 . S
C483 N482 1.351 . S
C483 C484 1.434 . S
C484 C475 1.429 . S
C484 N481 1.350 . S
C484 C483 1.434 . S
C485 C486 1.369 . S
C485 C487 1.419 . S
C485 H489 0.930 . S
C486 C485 1.369 . S
C486 C495 1.429 . S
C487 C485 1.419 . S
C487 C488 1.363 . S
C487 H490 0.929 . S
C488 C487 1.363 . S
C488 C494 1.428 . S
H489 C485 0.930 . S
H490 C487 0.929 . S
S491 N492 1.613 . S
S491 N493 1.610 . S
N492 S491 1.613 . S
N492 C495 1.350 . S
N493 S491 1.610 . S
N493 C494 1.351 . S
C494 C488 1.428 . S
C494 N493 1.351 . S
C494 C495 1.434 . S
C495 C486 1.429 . S
C495 N492 1.350 . S
C495 C494 1.434 . S
C496 C497 1.369 . S
C496 C498 1.419 . S
C496 H500 0.930 . S
C497 C496 1.369 . S
C497 C506 1.429 . S
C498 C496 1.419 . S
C498 C499 1.363 . S
C498 H501 0.929 . S
C499 C498 1.363 . S
C499 C505 1.428 . S
H500 C496 0.930 . S
H501 C498 0.929 . S
S502 N503 1.613 . S
S502 N504 1.610 . S
N503 S502 1.613 . S
N503 C506 1.350 . S
N504 S502 1.610 . S
N504 C505 1.351 . S
C505 C499 1.428 . S
C505 N504 1.351 . S
C505 C506 1.434 . S
C506 C497 1.429 . S
C506 N503 1.350 . S
C506 C505 1.434 . S
C507 C508 1.369 . S
C507 C509 1.419 . S
C507 H511 0.930 . S
C508 C507 1.369 . S
C508 C517 1.429 . S
C509 C507 1.419 . S
C509 C510 1.363 . S
C509 H512 0.929 . S
C510 C509 1.363 . S
C510 C516 1.428 . S
H511 C507 0.930 . S
H512 C509 0.929 . S
S513 N514 1.613 . S
S513 N515 1.610 . S
N514 S513 1.613 . S
N514 C517 1.350 . S
N515 S513 1.610 . S
N515 C516 1.351 . S
C516 C510 1.428 . S
C516 N515 1.351 . S
C516 C517 1.434 . S
C517 C508 1.429 . S
C517 N514 1.350 . S
C517 C516 1.434 . S
C518 C519 1.369 . S
C518 C520 1.419 . S
C518 H522 0.930 . S
C519 C518 1.369 . S
C519 C528 1.429 . S
C520 C518 1.419 . S
C520 C521 1.363 . S
C520 H523 0.929 . S
C521 C520 1.363 . S
C521 C527 1.428 . S
H522 C518 0.930 . S
H523 C520 0.929 . S
S524 N525 1.613 . S
S524 N526 1.610 . S
N525 S524 1.613 . S
N525 C528 1.350 . S
N526 S524 1.610 . S
N526 C527 1.351 . S
C527 C521 1.428 . S
C527 N526 1.351 . S
C527 C528 1.434 . S
C528 C519 1.429 . S
C528 N525 1.350 . S
C528 C527 1.434 . S
C529 C530 1.369 . S
C529 C531 1.419 . S
C529 H533 0.930 . S
C530 C529 1.369 . S
C530 C539 1.429 . S
C531 C529 1.419 . S
C531 C532 1.363 . S
C531 H534 0.929 . S
C532 C531 1.363 . S
C532 C538 1.428 . S
H533 C529 0.930 . S
H534 C531 0.929 . S
S535 N536 1.613 . S
S535 N537 1.610 . S
N536 S535 1.613 . S
N536 C539 1.350 . S
N537 S535 1.610 . S
N537 C538 1.351 . S
C538 C532 1.428 . S
C538 N537 1.351 . S
C538 C539 1.434 . S
C539 C530 1.429 . S
C539 N536 1.350 . S
C539 C538 1.434 . S
C540 C541 1.369 . S
C540 C542 1.419 . S
C540 H544 0.930 . S
C541 C540 1.369 . S
C541 C550 1.429 . S
C542 C540 1.419 . S
C542 C543 1.363 . S
C542 H545 0.929 . S
C543 C542 1.363 . S
C543 C549 1.428 . S
H544 C540 0.930 . S
H545 C542 0.929 . S
S546 N547 1.613 . S
S546 N548 1.610 . S
N547 S546 1.613 . S
N547 C550 1.350 . S
N548 S546 1.610 . S
N548 C549 1.351 . S
C549 C543 1.428 . S
C549 N548 1.351 . S
C549 C550 1.434 . S
C550 C541 1.429 . S
C550 N547 1.350 . S
C550 C549 1.434 . S
C551 C552 1.369 . S
C551 C553 1.419 . S
C551 H555 0.930 . S
C552 C551 1.369 . S
C552 C561 1.429 . S
C553 C551 1.419 . S
C553 C554 1.363 . S
C553 H556 0.929 . S
C554 C553 1.363 . S
C554 C560 1.428 . S
H555 C551 0.930 . S
H556 C553 0.929 . S
S557 N558 1.613 . S
S557 N559 1.610 . S
N558 S557 1.613 . S
N558 C561 1.350 . S
N559 S557 1.610 . S
N559 C560 1.351 . S
C560 C554 1.428 . S
C560 N559 1.351 . S
C560 C561 1.434 . S
C561 C552 1.429 . S
C561 N558 1.350 . S
C561 C560 1.434 . S
C562 C563 1.369 . S
C562 C564 1.419 . S
C562 H566 0.930 . S
C563 C562 1.369 . S
C563 C572 1.429 . S
C564 C562 1.419 . S
C564 C565 1.363 . S
C564 H567 0.929 . S
C565 C564 1.363 . S
C565 C571 1.428 . S
H566 C562 0.930 . S
H567 C564 0.929 . S
S568 N569 1.613 1_545 S
S568 N570 1.610 1_545 S
N569 S568 1.613 1_565 S
N569 C572 1.350 . S
N570 S568 1.610 1_565 S
N570 C571 1.351 . S
C571 C565 1.428 . S
C571 N570 1.351 . S
C571 C572 1.434 . S
C572 C563 1.429 . S
C572 N569 1.350 . S
C572 C571 1.434 . S
C573 C574 1.369 . S
C573 C575 1.419 . S
C573 H577 0.930 . S
C574 C573 1.369 . S
C574 C583 1.429 . S
C575 C573 1.419 . S
C575 C576 1.363 . S
C575 H578 0.929 . S
C576 C575 1.363 . S
C576 C582 1.428 . S
H577 C573 0.930 . S
H578 C575 0.929 . S
S579 N580 1.613 . S
S579 N581 1.610 . S
N580 S579 1.613 . S
N580 C583 1.350 . S
N581 S579 1.610 . S
N581 C582 1.351 . S
C582 C576 1.428 . S
C582 N581 1.351 . S
C582 C583 1.434 . S
C583 C574 1.429 . S
C583 N580 1.350 . S
C583 C582 1.434 . S
C584 C585 1.369 . S
C584 C586 1.419 . S
C584 H588 0.930 . S
C585 C584 1.369 . S
C585 C594 1.429 . S
C586 C584 1.419 . S
C586 C587 1.363 . S
C586 H589 0.929 . S
C587 C586 1.363 . S
C587 C593 1.428 . S
H588 C584 0.930 . S
H589 C586 0.929 . S
S590 N591 1.613 . S
S590 N592 1.610 . S
N591 S590 1.613 . S
N591 C594 1.350 . S
N592 S590 1.610 . S
N592 C593 1.351 . S
C593 C587 1.428 . S
C593 N592 1.351 . S
C593 C594 1.434 . S
C594 C585 1.429 . S
C594 N591 1.350 . S
C594 C593 1.434 . S
C595 C596 1.369 . S
C595 C597 1.419 . S
C595 H599 0.930 . S
C596 C595 1.369 . S
C596 C605 1.429 . S
C597 C595 1.419 . S
C597 C598 1.363 . S
C597 H600 0.929 . S
C598 C597 1.363 . S
C598 C604 1.428 . S
H599 C595 0.930 . S
H600 C597 0.929 . S
S601 N602 1.613 . S
S601 N603 1.610 . S
N602 S601 1.613 . S
N602 C605 1.350 . S
N603 S601 1.610 . S
N603 C604 1.351 . S
C604 C598 1.428 . S
C604 N603 1.351 . S
C604 C605 1.434 . S
C605 C596 1.429 . S
C605 N602 1.350 . S
C605 C604 1.434 . S
C606 C607 1.331 1_554 S
C606 C608 1.453 . S
C606 H610 0.935 . S
C607 C606 1.331 1_556 S
C607 C616 1.429 . S
C608 C606 1.453 . S
C608 C609 1.363 . S
C608 H611 0.929 . S
C609 C608 1.363 . S
C609 C615 1.428 1_554 S
H610 C606 0.935 . S
H611 C608 0.929 . S
S612 N613 1.613 . S
S612 N614 1.610 . S
N613 S612 1.613 . S
N613 C616 1.350 . S
N614 S612 1.610 . S
N614 C615 1.351 . S
C615 C609 1.428 1_556 S
C615 N614 1.351 . S
C615 C616 1.434 . S
C616 C607 1.429 . S
C616 N613 1.350 . S
C616 C615 1.434 . S
C617 C618 1.369 . S
C617 C619 1.419 . S
C617 H621 0.930 . S
C618 C617 1.369 . S
C618 C627 1.429 1_455 S
C619 C617 1.419 . S
C619 C620 1.363 1_455 S
C619 H622 0.929 . S
C620 C619 1.363 1_655 S
C620 C626 1.428 . S
H621 C617 0.930 . S
H622 C619 0.929 . S
S623 N624 1.613 . S
S623 N625 1.610 . S
N624 S623 1.613 . S
N624 C627 1.350 . S
N625 S623 1.610 . S
N625 C626 1.351 . S
C626 C620 1.428 . S
C626 N625 1.351 . S
C626 C627 1.434 . S
C627 C618 1.429 1_655 S
C627 N624 1.350 . S
C627 C626 1.434 . S
C628 C629 1.369 . S
C628 C630 1.419 1_554 S
C628 H632 0.930 . S
C629 C628 1.369 . S
C629 C638 1.429 1_565 S
C630 C628 1.419 1_556 S
C630 C631 1.363 1_565 S
C630 H633 0.929 . S
C631 C630 1.363 1_545 S
C631 C637 1.428 . S
H632 C628 0.930 . S
H633 C630 0.929 . S
S634 N635 1.613 . S
S634 N636 1.610 1_554 S
N635 S634 1.613 . S
N635 C638 1.350 . S
N636 S634 1.610 1_556 S
N636 C637 1.351 . S
C637 C631 1.428 . S
C637 N636 1.351 . S
C637 C638 1.434 1_556 S
C638 C629 1.429 1_545 S
C638 N635 1.350 . S
C638 C637 1.434 1_554 S
C639 C640 1.369 . S
C639 C641 1.419 . S
C639 H643 0.930 . S
C640 C639 1.369 . S
C640 C649 1.429 . S
C641 C639 1.419 . S
C641 C642 1.363 . S
C641 H644 0.929 . S
C642 C641 1.363 . S
C642 C648 1.428 . S
H643 C639 0.930 . S
H644 C641 0.929 . S
S645 N646 1.613 . S
S645 N647 1.610 . S
N646 S645 1.613 . S
N646 C649 1.350 . S
N647 S645 1.610 . S
N647 C648 1.351 . S
C648 C642 1.428 . S
C648 N647 1.351 . S
C648 C649 1.434 . S
C649 C640 1.429 . S
C649 N646 1.350 . S
C649 C648 1.434 . S
C650 C651 1.352 1_554 S
C650 C652 1.434 . S
C650 H654 0.932 . S
C651 C650 1.352 1_556 S
C651 C660 1.429 1_655 S
C652 C650 1.434 . S
C652 C653 1.363 1_655 S
C652 H655 0.929 . S
C653 C652 1.363 1_455 S
C653 C659 1.428 1_554 S
H654 C650 0.932 . S
H655 C652 0.929 . S
S656 N657 1.613 . S
S656 N658 1.610 . S
N657 S656 1.613 . S
N657 C660 1.350 . S
N658 S656 1.610 . S
N658 C659 1.351 . S
C659 C653 1.428 1_556 S
C659 N658 1.351 . S
C659 C660 1.434 . S
C660 C651 1.429 1_455 S
C660 N657 1.350 . S
C660 C659 1.434 . S
C661 C662 1.369 1_545 S
C661 C663 1.419 . S
C661 H665 0.930 . S
C662 C661 1.369 1_565 S
C662 C671 1.429 . S
C663 C661 1.419 . S
C663 C664 1.363 . S
C663 H666 0.929 . S
C664 C663 1.363 . S
C664 C670 1.428 1_545 S
H665 C661 0.930 . S
H666 C663 0.929 . S
S667 N668 1.613 . S
S667 N669 1.610 . S
N668 S667 1.613 . S
N668 C671 1.350 . S
N669 S667 1.610 . S
N669 C670 1.351 . S
C670 C664 1.428 1_565 S
C670 N669 1.351 . S
C670 C671 1.434 . S
C671 C662 1.429 . S
C671 N668 1.350 . S
C671 C670 1.434 . S
C277 C113 1.051 1_545 S
C279 C17 1.060 . S
C288 C136 1.057 . S
C290 C40 1.055 . S
C299 C63 1.050 . S
C301 C21 1.051 1_655 S
C310 C86 1.056 . S
C312 C44 1.056 1_565 S
C321 C109 1.051 . S
C323 C67 1.048 . S
C332 C90 1.047 1_455 S
C334 C132 1.052 . S
C343 C205 1.047 1_655 S
C345 C155 1.058 . S
C354 C178 1.059 . S
C356 C228 1.057 1_565 S
C365 C251 1.048 . S
C367 C201 1.052 . S
C376 C224 1.051 . S
C378 C274 1.052 1_455 S
C387 C247 1.051 . S
C389 C159 1.052 1_545 S
C398 C182 1.054 . S
C400 C270 1.061 . S
C409 C110 1.256 . S
C411 C16 1.249 . S
C420 C39 1.249 . S
C422 C133 1.256 . S
C431 C62 1.250 . S
C433 C18 1.258 . S
C442 C85 1.247 . S
C444 C41 1.256 . S
C453 C64 1.256 . S
C455 C108 1.249 . S
C464 C87 1.257 . S
C466 C131 1.249 . S
C475 C202 1.256 . S
C477 C154 1.248 . S
C486 C177 1.248 . S
C488 C225 1.256 . S
C497 C200 1.249 . S
C499 C248 1.257 . S
C508 C271 1.259 . S
C510 C223 1.252 . S
C519 C246 1.252 . S
C521 C156 1.258 . S
C530 C179 1.256 . S
C532 C269 1.249 . S
C541 C250 1.504 . S
C543 C20 1.511 . S
C552 C43 1.507 . S
C554 C273 1.510 . S
C563 C66 1.511 . S
C565 C158 1.507 . S
C574 C89 1.506 . S
C576 C181 1.511 . S
C585 C112 1.513 . S
C587 C204 1.505 . S
C596 C227 1.505 . S
C598 C135 1.512 . S
C607 C226 1.539 . S
C609 C19 1.540 . S
C618 C249 1.541 . S
C620 C42 1.542 . S
C629 C65 1.539 . S
C631 C272 1.540 . S
C640 C88 1.543 . S
C642 C157 1.542 . S
C651 C180 1.540 . S
C653 C111 1.541 . S
C662 C203 1.543 . S
C664 C134 1.542 . S
