# Generated by pormake.
# Topology lta, (4)-cn, num edge types: 1
# Building blocks:
#     Node 0, Type 0, BuildingBlock: GALJAG_clean_sbu_0, # of connection points: 4
#     Node 1, Type 0, BuildingBlock: GALJAG_clean_sbu_0, # of connection points: 4
#     Node 2, Type 0, BuildingBlock: GALJAG_clean_sbu_0, # of connection points: 4
#     Node 3, Type 0, BuildingBlock: GALJAG_clean_sbu_0, # of connection points: 4
#     Node 4, Type 0, BuildingBlock: GALJAG_clean_sbu_0, # of connection points: 4
#     Node 5, Type 0, BuildingBlock: GALJAG_clean_sbu_0, # of connection points: 4
#     Node 6, Type 0, BuildingBlock: GALJAG_clean_sbu_0, # of connection points: 4
#     Node 7, Type 0, BuildingBlock: GALJAG_clean_sbu_0, # of connection points: 4
#     Node 8, Type 0, BuildingBlock: GALJAG_clean_sbu_0, # of connection points: 4
#     Node 9, Type 0, BuildingBlock: GALJAG_clean_sbu_0, # of connection points: 4
#     Node 10, Type 0, BuildingBlock: GALJAG_clean_sbu_0, # of connection points: 4
#     Node 11, Type 0, BuildingBlock: GALJAG_clean_sbu_0, # of connection points: 4
#     Node 12, Type 0, BuildingBlock: GALJAG_clean_sbu_0, # of connection points: 4
#     Node 13, Type 0, BuildingBlock: GALJAG_clean_sbu_0, # of connection points: 4
#     Node 14, Type 0, BuildingBlock: GALJAG_clean_sbu_0, # of connection points: 4
#     Node 15, Type 0, BuildingBlock: GALJAG_clean_sbu_0, # of connection points: 4
#     Node 16, Type 0, BuildingBlock: GALJAG_clean_sbu_0, # of connection points: 4
#     Node 17, Type 0, BuildingBlock: GALJAG_clean_sbu_0, # of connection points: 4
#     Node 18, Type 0, BuildingBlock: GALJAG_clean_sbu_0, # of connection points: 4
#     Node 19, Type 0, BuildingBlock: GALJAG_clean_sbu_0, # of connection points: 4
#     Node 20, Type 0, BuildingBlock: GALJAG_clean_sbu_0, # of connection points: 4
#     Node 21, Type 0, BuildingBlock: GALJAG_clean_sbu_0, # of connection points: 4
#     Node 22, Type 0, BuildingBlock: GALJAG_clean_sbu_0, # of connection points: 4
#     Node 23, Type 0, BuildingBlock: GALJAG_clean_sbu_0, # of connection points: 4
#     Edge 24, Type (0, 0), BuildingBlock: EZIPEK_clean_linker_0, # of connection points: 2
#     Edge 25, Type (0, 0), BuildingBlock: EZIPEK_clean_linker_0, # of connection points: 2
#     Edge 26, Type (0, 0), BuildingBlock: EZIPEK_clean_linker_0, # of connection points: 2
#     Edge 27, Type (0, 0), BuildingBlock: EZIPEK_clean_linker_0, # of connection points: 2
#     Edge 28, Type (0, 0), BuildingBlock: EZIPEK_clean_linker_0, # of connection points: 2
#     Edge 29, Type (0, 0), BuildingBlock: EZIPEK_clean_linker_0, # of connection points: 2
#     Edge 30, Type (0, 0), BuildingBlock: EZIPEK_clean_linker_0, # of connection points: 2
#     Edge 31, Type (0, 0), BuildingBlock: EZIPEK_clean_linker_0, # of connection points: 2
#     Edge 32, Type (0, 0), BuildingBlock: EZIPEK_clean_linker_0, # of connection points: 2
#     Edge 33, Type (0, 0), BuildingBlock: EZIPEK_clean_linker_0, # of connection points: 2
#     Edge 34, Type (0, 0), BuildingBlock: EZIPEK_clean_linker_0, # of connection points: 2
#     Edge 35, Type (0, 0), BuildingBlock: EZIPEK_clean_linker_0, # of connection points: 2
#     Edge 36, Type (0, 0), BuildingBlock: EZIPEK_clean_linker_0, # of connection points: 2
#     Edge 37, Type (0, 0), BuildingBlock: EZIPEK_clean_linker_0, # of connection points: 2
#     Edge 38, Type (0, 0), BuildingBlock: EZIPEK_clean_linker_0, # of connection points: 2
#     Edge 39, Type (0, 0), BuildingBlock: EZIPEK_clean_linker_0, # of connection points: 2
#     Edge 40, Type (0, 0), BuildingBlock: EZIPEK_clean_linker_0, # of connection points: 2
#     Edge 41, Type (0, 0), BuildingBlock: EZIPEK_clean_linker_0, # of connection points: 2
#     Edge 42, Type (0, 0), BuildingBlock: EZIPEK_clean_linker_0, # of connection points: 2
#     Edge 43, Type (0, 0), BuildingBlock: EZIPEK_clean_linker_0, # of connection points: 2
#     Edge 44, Type (0, 0), BuildingBlock: EZIPEK_clean_linker_0, # of connection points: 2
#     Edge 45, Type (0, 0), BuildingBlock: EZIPEK_clean_linker_0, # of connection points: 2
#     Edge 46, Type (0, 0), BuildingBlock: EZIPEK_clean_linker_0, # of connection points: 2
#     Edge 47, Type (0, 0), BuildingBlock: EZIPEK_clean_linker_0, # of connection points: 2
#     Edge 48, Type (0, 0), BuildingBlock: EZIPEK_clean_linker_0, # of connection points: 2
#     Edge 49, Type (0, 0), BuildingBlock: EZIPEK_clean_linker_0, # of connection points: 2
#     Edge 50, Type (0, 0), BuildingBlock: EZIPEK_clean_linker_0, # of connection points: 2
#     Edge 51, Type (0, 0), BuildingBlock: EZIPEK_clean_linker_0, # of connection points: 2
#     Edge 52, Type (0, 0), BuildingBlock: EZIPEK_clean_linker_0, # of connection points: 2
#     Edge 53, Type (0, 0), BuildingBlock: EZIPEK_clean_linker_0, # of connection points: 2
#     Edge 54, Type (0, 0), BuildingBlock: EZIPEK_clean_linker_0, # of connection points: 2
#     Edge 55, Type (0, 0), BuildingBlock: EZIPEK_clean_linker_0, # of connection points: 2
#     Edge 56, Type (0, 0), BuildingBlock: EZIPEK_clean_linker_0, # of connection points: 2
#     Edge 57, Type (0, 0), BuildingBlock: EZIPEK_clean_linker_0, # of connection points: 2
#     Edge 58, Type (0, 0), BuildingBlock: EZIPEK_clean_linker_0, # of connection points: 2
#     Edge 59, Type (0, 0), BuildingBlock: EZIPEK_clean_linker_0, # of connection points: 2
#     Edge 60, Type (0, 0), BuildingBlock: EZIPEK_clean_linker_0, # of connection points: 2
#     Edge 61, Type (0, 0), BuildingBlock: EZIPEK_clean_linker_0, # of connection points: 2
#     Edge 62, Type (0, 0), BuildingBlock: EZIPEK_clean_linker_0, # of connection points: 2
#     Edge 63, Type (0, 0), BuildingBlock: EZIPEK_clean_linker_0, # of connection points: 2
#     Edge 64, Type (0, 0), BuildingBlock: EZIPEK_clean_linker_0, # of connection points: 2
#     Edge 65, Type (0, 0), BuildingBlock: EZIPEK_clean_linker_0, # of connection points: 2
#     Edge 66, Type (0, 0), BuildingBlock: EZIPEK_clean_linker_0, # of connection points: 2
#     Edge 67, Type (0, 0), BuildingBlock: EZIPEK_clean_linker_0, # of connection points: 2
#     Edge 68, Type (0, 0), BuildingBlock: EZIPEK_clean_linker_0, # of connection points: 2
#     Edge 69, Type (0, 0), BuildingBlock: EZIPEK_clean_linker_0, # of connection points: 2
#     Edge 70, Type (0, 0), BuildingBlock: EZIPEK_clean_linker_0, # of connection points: 2
#     Edge 71, Type (0, 0), BuildingBlock: EZIPEK_clean_linker_0, # of connection points: 2
# Relax obj value: 0.417
# Max RMSD: 0.230
# Mean RMSD: 0.230
data_MOF--net-lta--node1-GALJAG_clean_sbu_0--edge1-EZIPEK_clean_linker_0
_symmetry_space_group_name_H-M    P1
_symmetry_Int_Tables_number       1
_symmetry_cell_setting            triclinic
loop_
_symmetry_equiv_pos_as_xyz
'x, y, z'
_cell_length_a     41.55557
_cell_length_b     41.549153
_cell_length_c     41.569154
_cell_angle_alpha  89.944679
_cell_angle_beta   89.90164
_cell_angle_gamma 89.934982
loop_
_atom_site_label
_atom_site_type_symbol
_atom_site_fract_x
_atom_site_fract_y
_atom_site_fract_z
_atom_type_partial_charge
In0 In 0.11094 0.30508 0.48575 0.0
O1 O 0.11156 0.35088 0.51498 0.0
O2 O 0.11112 0.3064 0.54064 0.0
C3 C 0.12171 0.33816 0.43154 0.0
C4 C 0.16047 0.26423 0.48575 0.0
C5 C 0.04909 0.28733 0.48681 0.0
O6 O 0.12828 0.34902 0.45904 0.0
O7 O 0.11064 0.30987 0.431 0.0
O8 O 0.07098 0.26914 0.49729 0.0
O9 O 0.05838 0.31372 0.47522 0.0
C10 C 0.11173 0.33671 0.54178 0.0
O11 O 0.13359 0.25674 0.47393 0.0
O12 O 0.16251 0.29227 0.49699 0.0
In13 In 0.67795 0.12005 0.48704 0.0
O14 O 0.63159 0.12354 0.51529 0.0
O15 O 0.6751 0.11785 0.54191 0.0
C16 C 0.64973 0.12641 0.42951 0.0
C17 C 0.71318 0.17369 0.48868 0.0
C18 C 0.69918 0.05915 0.4879 0.0
O19 O 0.63448 0.12831 0.45564 0.0
O20 O 0.67959 0.12166 0.43204 0.0
O21 O 0.71721 0.08231 0.49554 0.0
O22 O 0.67105 0.06672 0.47964 0.0
C23 C 0.64489 0.12086 0.54238 0.0
O24 O 0.72488 0.14696 0.48033 0.0
O25 O 0.68381 0.17351 0.49608 0.0
In26 In 0.86584 0.67979 0.49329 0.0
O27 O 0.84103 0.72666 0.48086 0.0
O28 O 0.81204 0.68831 0.49877 0.0
C29 C 0.92527 0.70267 0.50231 0.0
C30 C 0.86298 0.64444 0.54723 0.0
C31 C 0.86612 0.65082 0.43569 0.0
O32 O 0.90077 0.71963 0.50818 0.0
O33 O 0.91978 0.67478 0.49189 0.0
O34 O 0.85521 0.63755 0.46069 0.0
O35 O 0.87611 0.67922 0.4393 0.0
C36 C 0.81343 0.71685 0.48864 0.0
O37 O 0.86448 0.63212 0.51958 0.0
O38 O 0.86238 0.6748 0.54796 0.0
In39 In 0.30397 0.86683 0.49221 0.0
O40 O 0.34593 0.87635 0.52525 0.0
O41 O 0.3152 0.8372 0.53752 0.0
C42 C 0.33825 0.85748 0.43795 0.0
C43 C 0.25158 0.8299 0.48789 0.0
C44 C 0.28977 0.92911 0.50123 0.0
O45 O 0.35014 0.85426 0.46561 0.0
O46 O 0.30874 0.86448 0.43747 0.0
O47 O 0.28386 0.90804 0.52225 0.0
O48 O 0.30163 0.91873 0.47532 0.0
C49 C 0.33962 0.85381 0.5445 0.0
O50 O 0.24979 0.86017 0.48904 0.0
O51 O 0.27965 0.81836 0.48868 0.0
In52 In 0.11936 0.68066 0.50126 0.0
O53 O 0.1536 0.6563 0.46553 0.0
O54 O 0.10461 0.6415 0.46637 0.0
C55 C 0.13056 0.6423 0.5521 0.0
C56 C 0.15377 0.73391 0.49144 0.0
C57 C 0.05986 0.70471 0.50783 0.0
O58 O 0.10408 0.64301 0.53751 0.0
O59 O 0.15159 0.66146 0.54156 0.0
O60 O 0.08082 0.70778 0.52952 0.0
O61 O 0.0695 0.69132 0.48238 0.0
C62 C 0.13214 0.6382 0.45419 0.0
O63 O 0.13571 0.72246 0.46992 0.0
O64 O 0.15364 0.71912 0.51794 0.0
In65 In 0.3087 0.12843 0.50696 0.0
O66 O 0.34858 0.14999 0.47628 0.0
O67 O 0.31889 0.11418 0.455 0.0
C68 C 0.33711 0.13732 0.56423 0.0
C69 C 0.2633 0.17292 0.49793 0.0
C70 C 0.29442 0.06593 0.5122 0.0
O71 O 0.3525 0.1344 0.5383 0.0
O72 O 0.30691 0.13633 0.56159 0.0
O73 O 0.27286 0.08733 0.51326 0.0
O74 O 0.32285 0.07612 0.50961 0.0
C75 C 0.34255 0.13288 0.45206 0.0
O76 O 0.25773 0.14331 0.49489 0.0
O77 O 0.29172 0.18027 0.50537 0.0
In78 In 0.85337 0.31695 0.49377 0.0
O79 O 0.8457 0.3622 0.46443 0.0
O80 O 0.86139 0.32011 0.43956 0.0
C81 C 0.84776 0.3502 0.54887 0.0
C82 C 0.80234 0.27787 0.49305 0.0
C83 C 0.91382 0.29438 0.49294 0.0
O84 O 0.84702 0.36334 0.52156 0.0
O85 O 0.85026 0.31995 0.54862 0.0
O86 O 0.89048 0.27777 0.48316 0.0
O87 O 0.90664 0.3218 0.50366 0.0
C88 C 0.85426 0.3496 0.43819 0.0
O89 O 0.82807 0.27077 0.50731 0.0
O90 O 0.8018 0.30505 0.47963 0.0
In91 In 0.67645 0.86369 0.48136 0.0
O92 O 0.72529 0.84027 0.4764 0.0
O93 O 0.68453 0.80973 0.48347 0.0
C94 C 0.69866 0.92427 0.48452 0.0
C95 C 0.64661 0.85763 0.42461 0.0
C96 C 0.64282 0.86136 0.53653 0.0
O97 O 0.71472 0.90086 0.4952 0.0
O98 O 0.67217 0.91708 0.47186 0.0
O99 O 0.63052 0.86993 0.51024 0.0
O100 O 0.67223 0.85414 0.53538 0.0
C101 C 0.71459 0.8121 0.48005 0.0
O102 O 0.63295 0.85189 0.4511 0.0
O103 O 0.67594 0.86526 0.42641 0.0
In104 In 0.49103 0.12741 0.3152 0.0
O105 O 0.49501 0.14965 0.26575 0.0
O106 O 0.48385 0.18064 0.30515 0.0
C107 C 0.48298 0.06611 0.29733 0.0
C108 C 0.5513 0.1311 0.33792 0.0
C109 C 0.4399 0.13146 0.35422 0.0
O110 O 0.47755 0.08904 0.27819 0.0
O111 O 0.49228 0.07405 0.325 0.0
O112 O 0.46831 0.12918 0.36454 0.0
O113 O 0.43697 0.13197 0.32402 0.0
C114 C 0.48874 0.17771 0.27538 0.0
O115 O 0.52732 0.14207 0.35289 0.0
O116 O 0.54529 0.11936 0.31065 0.0
In117 In 0.87132 0.4999 0.30685 0.0
O118 O 0.84679 0.4853 0.2604 0.0
O119 O 0.81844 0.50802 0.29671 0.0
C120 C 0.93147 0.5039 0.28418 0.0
C121 C 0.87017 0.55599 0.33843 0.0
C122 C 0.86469 0.44514 0.34033 0.0
O123 O 0.9076 0.51114 0.26691 0.0
O124 O 0.92499 0.49439 0.31221 0.0
O125 O 0.85415 0.47179 0.35023 0.0
O126 O 0.87812 0.44571 0.31311 0.0
C127 C 0.8196 0.49564 0.2691 0.0
O128 O 0.87452 0.52939 0.35232 0.0
O129 O 0.86669 0.55468 0.30833 0.0
In130 In 0.48824 0.86695 0.30575 0.0
O131 O 0.4939 0.85215 0.2536 0.0
O132 O 0.48863 0.81513 0.28892 0.0
C133 C 0.48151 0.92999 0.29372 0.0
C134 C 0.4339 0.8571 0.33967 0.0
C135 C 0.54671 0.86044 0.33235 0.0
O136 O 0.4738 0.90899 0.27328 0.0
O137 O 0.49218 0.91932 0.31995 0.0
O138 O 0.52159 0.84896 0.34494 0.0
O139 O 0.5427 0.87421 0.3056 0.0
C140 C 0.49228 0.82247 0.25971 0.0
O141 O 0.46072 0.8624 0.35265 0.0
O142 O 0.43432 0.85598 0.30938 0.0
In143 In 0.12521 0.49725 0.31041 0.0
O144 O 0.1089 0.46263 0.34916 0.0
O145 O 0.1469 0.44729 0.31828 0.0
C146 C 0.13644 0.54283 0.35487 0.0
C147 C 0.16763 0.49802 0.26213 0.0
C148 C 0.06581 0.50364 0.28575 0.0
O149 O 0.15289 0.51738 0.35329 0.0
O150 O 0.11512 0.5458 0.33358 0.0
O151 O 0.08888 0.52089 0.27624 0.0
O152 O 0.07295 0.48291 0.30662 0.0
C153 C 0.12868 0.44087 0.3417 0.0
O154 O 0.1452 0.47768 0.26364 0.0
O155 O 0.16871 0.51813 0.2848 0.0
In156 In 0.49406 0.86264 0.67021 0.0
O157 O 0.50827 0.84553 0.71982 0.0
O158 O 0.48936 0.81084 0.68702 0.0
C159 C 0.49093 0.92449 0.68846 0.0
C160 C 0.54849 0.85938 0.63556 0.0
C161 C 0.43828 0.85251 0.63904 0.0
O162 O 0.48005 0.90223 0.70592 0.0
O163 O 0.50306 0.91564 0.66222 0.0
O164 O 0.46524 0.84489 0.62743 0.0
O165 O 0.43919 0.86402 0.66708 0.0
C166 C 0.50021 0.81679 0.71469 0.0
O167 O 0.52143 0.86515 0.62325 0.0
O168 O 0.54848 0.85501 0.6656 0.0
In169 In 0.12625 0.48438 0.67527 0.0
O170 O 0.15379 0.49445 0.7208 0.0
O171 O 0.17958 0.47411 0.68121 0.0
C172 C 0.06781 0.48309 0.70255 0.0
C173 C 0.13442 0.53988 0.64348 0.0
C174 C 0.12123 0.43054 0.64035 0.0
O175 O 0.09152 0.46913 0.71527 0.0
O176 O 0.07379 0.4982 0.67701 0.0
O177 O 0.11519 0.45805 0.62913 0.0
O178 O 0.12987 0.42986 0.66942 0.0
C179 C 0.18016 0.48423 0.70978 0.0
O180 O 0.13746 0.51276 0.63022 0.0
O181 O 0.1282 0.53915 0.67319 0.0
In182 In 0.49625 0.12268 0.67738 0.0
O183 O 0.49472 0.14322 0.72771 0.0
O184 O 0.50474 0.17539 0.68899 0.0
C185 C 0.49435 0.06034 0.69315 0.0
C186 C 0.43752 0.13267 0.65282 0.0
C187 C 0.55001 0.12367 0.64146 0.0
O188 O 0.50607 0.08113 0.71183 0.0
O189 O 0.48342 0.07094 0.66695 0.0
O190 O 0.52311 0.1329 0.63099 0.0
O191 O 0.55023 0.11452 0.67037 0.0
C192 C 0.5007 0.17155 0.71876 0.0
O193 O 0.46283 0.13414 0.63613 0.0
O194 O 0.44162 0.12656 0.68226 0.0
In195 In 0.87313 0.49648 0.68349 0.0
O196 O 0.86235 0.5009 0.73681 0.0
O197 O 0.82288 0.5005 0.70397 0.0
C198 C 0.93325 0.48793 0.70503 0.0
C199 C 0.85956 0.44374 0.64849 0.0
C200 C 0.86815 0.54942 0.64646 0.0
O201 O 0.91092 0.4685 0.71176 0.0
O202 O 0.92493 0.51214 0.68873 0.0
O203 O 0.87149 0.52159 0.63506 0.0
O204 O 0.86729 0.55097 0.67671 0.0
C205 C 0.83228 0.5016 0.73278 0.0
O206 O 0.88631 0.45788 0.64717 0.0
O207 O 0.83968 0.45556 0.66811 0.0
In208 In 0.30696 0.49479 0.11529 0.0
O209 O 0.2549 0.49848 0.13139 0.0
O210 O 0.2913 0.49385 0.16736 0.0
C211 C 0.28959 0.49791 0.05323 0.0
C212 C 0.34822 0.54444 0.12053 0.0
C213 C 0.3307 0.43585 0.12622 0.0
O214 O 0.27653 0.5155 0.07425 0.0
O215 O 0.31068 0.47883 0.06359 0.0
O216 O 0.34591 0.46121 0.13298 0.0
O217 O 0.30279 0.44002 0.11504 0.0
C218 C 0.2618 0.49659 0.16087 0.0
O219 O 0.35555 0.51843 0.10691 0.0
O220 O 0.32001 0.54576 0.13156 0.0
In221 In 0.31508 0.4899 0.85697 0.0
O222 O 0.36132 0.46126 0.85776 0.0
O223 O 0.31738 0.4349 0.85935 0.0
C224 C 0.34382 0.54691 0.84863 0.0
C225 C 0.27847 0.48751 0.80441 0.0
C226 C 0.294 0.49295 0.91778 0.0
O227 O 0.35786 0.52054 0.84342 0.0
O228 O 0.31476 0.54484 0.85721 0.0
O229 O 0.27582 0.48422 0.89515 0.0
O230 O 0.32237 0.49999 0.90976 0.0
C231 C 0.34771 0.43426 0.85918 0.0
O232 O 0.267 0.49309 0.83192 0.0
O233 O 0.30846 0.48336 0.80316 0.0
In234 In 0.50082 0.30636 0.86822 0.0
O235 O 0.50867 0.25754 0.84538 0.0
O236 O 0.49362 0.29629 0.81517 0.0
C237 C 0.49839 0.28789 0.92985 0.0
C238 C 0.55782 0.33587 0.86315 0.0
C239 C 0.4451 0.33866 0.86391 0.0
O240 O 0.48979 0.26944 0.90739 0.0
O241 O 0.50878 0.31503 0.92122 0.0
O242 O 0.47167 0.35061 0.85549 0.0
O243 O 0.44627 0.31003 0.87392 0.0
C244 C 0.50121 0.26706 0.81759 0.0
O245 O 0.5315 0.35094 0.86372 0.0
O246 O 0.55572 0.30564 0.86494 0.0
In247 In 0.68475 0.48738 0.86998 0.0
O248 O 0.6524 0.51717 0.83701 0.0
O249 O 0.65509 0.53005 0.88652 0.0
C250 C 0.65518 0.43066 0.86212 0.0
C251 C 0.73438 0.49534 0.82983 0.0
C252 C 0.7013 0.48674 0.93218 0.0
O253 O 0.64248 0.45704 0.85413 0.0
O254 O 0.68355 0.43252 0.87271 0.0
O255 O 0.72116 0.49468 0.91061 0.0
O256 O 0.67375 0.47902 0.92239 0.0
C257 C 0.64313 0.5356 0.85925 0.0
O258 O 0.72484 0.51751 0.84818 0.0
O259 O 0.71929 0.46914 0.83202 0.0
In260 In 0.49551 0.67374 0.85752 0.0
O261 O 0.49706 0.72655 0.84339 0.0
O262 O 0.5036 0.69138 0.80664 0.0
C263 C 0.49426 0.69062 0.91996 0.0
C264 C 0.43961 0.64282 0.84972 0.0
C265 C 0.54369 0.63157 0.84954 0.0
O266 O 0.46943 0.69096 0.90266 0.0
O267 O 0.51994 0.6835 0.90552 0.0
O268 O 0.51478 0.6246 0.84371 0.0
O269 O 0.54864 0.6602 0.85825 0.0
C270 C 0.50151 0.7207 0.81396 0.0
O271 O 0.46186 0.63242 0.86748 0.0
O272 O 0.44523 0.66917 0.83567 0.0
In273 In 0.67518 0.49278 0.12933 0.0
O274 O 0.72426 0.5014 0.15063 0.0
O275 O 0.68847 0.48055 0.18106 0.0
C276 C 0.69476 0.4896 0.06797 0.0
C277 C 0.63599 0.44166 0.12975 0.0
C278 C 0.64933 0.55106 0.13967 0.0
O279 O 0.7095 0.47519 0.09018 0.0
O280 O 0.67067 0.50578 0.07667 0.0
O281 O 0.63427 0.52528 0.14516 0.0
O282 O 0.6779 0.54752 0.13002 0.0
C283 C 0.71695 0.49048 0.17793 0.0
O284 O 0.6257 0.47017 0.1286 0.0
O285 O 0.66617 0.43862 0.13087 0.0
In286 In 0.50242 0.67537 0.12136 0.0
O287 O 0.50917 0.72781 0.13502 0.0
O288 O 0.49057 0.69548 0.17045 0.0
C289 C 0.49966 0.68643 0.05787 0.0
C290 C 0.56052 0.65197 0.1389 0.0
C291 C 0.44989 0.63784 0.12521 0.0
O292 O 0.48877 0.70637 0.07801 0.0
O293 O 0.51211 0.66144 0.06969 0.0
O294 O 0.47775 0.62668 0.12063 0.0
O295 O 0.44845 0.66796 0.12859 0.0
C296 C 0.49912 0.72372 0.16339 0.0
O297 O 0.5343 0.64109 0.14968 0.0
O298 O 0.55714 0.6744 0.11878 0.0
In299 In 0.4818 0.31175 0.12569 0.0
O300 O 0.44906 0.35365 0.1369 0.0
O301 O 0.42695 0.30881 0.12556 0.0
C302 C 0.535 0.34824 0.12726 0.0
C303 C 0.48251 0.27365 0.17713 0.0
C304 C 0.48669 0.29028 0.0651 0.0
O305 O 0.5076 0.35963 0.12109 0.0
O306 O 0.53583 0.31842 0.1327 0.0
O307 O 0.4986 0.27495 0.08838 0.0
O308 O 0.47175 0.31557 0.07243 0.0
C309 C 0.42338 0.3382 0.1323 0.0
O310 O 0.47711 0.26303 0.14926 0.0
O311 O 0.48742 0.3035 0.17928 0.0
C312 C 0.10074 0.3915 0.36056 0.0
C313 C 0.12939 0.40987 0.35894 0.0
C314 C 0.15549 0.37267 0.3963 0.0
C315 C 0.12517 0.35845 0.40264 0.0
N316 N 0.06801 0.35522 0.39216 0.0
N317 N 0.18414 0.41915 0.37596 0.0
C318 C 0.09758 0.3676 0.38473 0.0
C319 C 0.15708 0.40048 0.37651 0.0
N320 N 0.07671 0.3968 0.33875 0.0
N321 N 0.18269 0.35937 0.40915 0.0
H322 H 0.18635 0.43973 0.36177 0.0
H323 H 0.20363 0.41554 0.39125 0.0
H324 H 0.18211 0.33867 0.4234 0.0
H325 H 0.20585 0.36683 0.40314 0.0
H326 H 0.05648 0.38216 0.33678 0.0
H327 H 0.07862 0.41387 0.32041 0.0
H328 H 0.04661 0.36412 0.38262 0.0
H329 H 0.06439 0.33755 0.40957 0.0
C330 C 0.62478 0.10022 0.38202 0.0
C331 C 0.63296 0.12884 0.39847 0.0
C332 C 0.59648 0.15973 0.36426 0.0
C333 C 0.58345 0.13042 0.35285 0.0
N334 N 0.5849 0.07226 0.35021 0.0
N335 N 0.62946 0.18631 0.4044 0.0
C336 C 0.59806 0.1005 0.36076 0.0
C337 C 0.62002 0.15888 0.38894 0.0
N338 N 0.64202 0.07272 0.38743 0.0
N339 N 0.58622 0.18819 0.3513 0.0
H340 H 0.64803 0.18647 0.42129 0.0
H341 H 0.61834 0.20856 0.40139 0.0
H342 H 0.56933 0.18914 0.33275 0.0
H343 H 0.59634 0.21043 0.35672 0.0
H344 H 0.63926 0.05176 0.37401 0.0
H345 H 0.66125 0.07177 0.40346 0.0
H346 H 0.5919 0.0497 0.35857 0.0
H347 H 0.56554 0.07116 0.33439 0.0
C348 C 0.89819 0.62248 0.39351 0.0
C349 C 0.86787 0.63338 0.40488 0.0
C350 C 0.84018 0.60114 0.36414 0.0
C351 C 0.86998 0.58635 0.35663 0.0
N352 N 0.9276 0.58334 0.36143 0.0
N353 N 0.81017 0.63588 0.40045 0.0
C354 C 0.89917 0.59755 0.37015 0.0
C355 C 0.83889 0.62386 0.38965 0.0
N356 N 0.92589 0.63557 0.40548 0.0
N357 N 0.81324 0.59306 0.34711 0.0
H358 H 0.80872 0.65405 0.41771 0.0
H359 H 0.78779 0.62746 0.39317 0.0
H360 H 0.81347 0.57607 0.32867 0.0
H361 H 0.79115 0.60461 0.34949 0.0
H362 H 0.94872 0.63082 0.39635 0.0
H363 H 0.9261 0.65311 0.42336 0.0
H364 H 0.94948 0.58743 0.37283 0.0
H365 H 0.92919 0.56631 0.34305 0.0
C366 C 0.3597 0.88003 0.38598 0.0
C367 C 0.35809 0.85437 0.40855 0.0
C368 C 0.40283 0.82712 0.38149 0.0
C369 C 0.40448 0.85286 0.35916 0.0
N370 N 0.37855 0.89829 0.33393 0.0
N371 N 0.37156 0.79968 0.42249 0.0
C372 C 0.38073 0.87734 0.35918 0.0
C373 C 0.37765 0.82665 0.40463 0.0
N374 N 0.34321 0.90804 0.39132 0.0
N375 N 0.42567 0.80342 0.38086 0.0
H376 H 0.35262 0.79832 0.43895 0.0
H377 H 0.38312 0.77774 0.41882 0.0
H378 H 0.44299 0.80175 0.36271 0.0
H379 H 0.42828 0.78625 0.39893 0.0
H380 H 0.34666 0.92881 0.3777 0.0
H381 H 0.32823 0.91177 0.41106 0.0
H382 H 0.35975 0.91468 0.3313 0.0
H383 H 0.39362 0.89715 0.31392 0.0
C384 C 0.16326 0.57419 0.60365 0.0
C385 C 0.13676 0.56999 0.62476 0.0
C386 C 0.11309 0.62 0.60474 0.0
C387 C 0.13593 0.62031 0.57944 0.0
N388 N 0.18156 0.59575 0.55281 0.0
N389 N 0.08407 0.58729 0.64299 0.0
C390 C 0.16107 0.5972 0.57853 0.0
C391 C 0.11118 0.5927 0.62511 0.0
N392 N 0.19063 0.55643 0.6079 0.0
N393 N 0.09343 0.64596 0.60944 0.0
H394 H 0.08086 0.56719 0.65761 0.0
H395 H 0.0634 0.60138 0.64105 0.0
H396 H 0.09504 0.66677 0.59544 0.0
H397 H 0.0782 0.64824 0.62925 0.0
H398 H 0.21176 0.56054 0.59502 0.0
H399 H 0.19326 0.53996 0.62669 0.0
H400 H 0.19781 0.57695 0.54933 0.0
H401 H 0.18066 0.61175 0.53353 0.0
C402 C 0.37515 0.1682 0.59829 0.0
C403 C 0.35422 0.14156 0.59496 0.0
C404 C 0.38309 0.11214 0.63678 0.0
C405 C 0.40562 0.13775 0.63826 0.0
N406 N 0.41794 0.19353 0.62888 0.0
N407 N 0.33088 0.09391 0.61817 0.0
C408 C 0.39982 0.16703 0.62181 0.0
C409 C 0.35554 0.11555 0.61689 0.0
N410 N 0.372 0.19398 0.5781 0.0
N411 N 0.38919 0.08375 0.65229 0.0
H412 H 0.31028 0.09625 0.60409 0.0
H413 H 0.32925 0.07576 0.63538 0.0
H414 H 0.40902 0.08027 0.66716 0.0
H415 H 0.37572 0.06293 0.64884 0.0
H416 H 0.38874 0.21253 0.57644 0.0
H417 H 0.35274 0.19623 0.56215 0.0
H418 H 0.41347 0.21635 0.61955 0.0
H419 H 0.43579 0.19321 0.64652 0.0
C420 C 0.87353 0.38954 0.62719 0.0
C421 C 0.85218 0.41612 0.62745 0.0
C422 C 0.8222 0.39241 0.58281 0.0
C423 C 0.84715 0.36953 0.57864 0.0
N424 N 0.89866 0.34795 0.59522 0.0
N425 N 0.80736 0.44466 0.60364 0.0
C426 C 0.8732 0.36811 0.60066 0.0
C427 C 0.82644 0.41787 0.60511 0.0
N428 N 0.89384 0.38463 0.65255 0.0
N429 N 0.79435 0.38958 0.5656 0.0
H430 H 0.80975 0.4642 0.61912 0.0
H431 H 0.79077 0.44867 0.58531 0.0
H432 H 0.79036 0.37078 0.54946 0.0
H433 H 0.7741 0.40379 0.56978 0.0
H434 H 0.90803 0.36409 0.65505 0.0
H435 H 0.89379 0.39945 0.6728 0.0
H436 H 0.91988 0.3488 0.6085 0.0
H437 H 0.89989 0.33214 0.57584 0.0
C438 C 0.59214 0.8306 0.60599 0.0
C439 C 0.57804 0.85999 0.61599 0.0
C440 C 0.61356 0.89021 0.57997 0.0
C441 C 0.62395 0.86068 0.56649 0.0
N442 N 0.62409 0.80266 0.56578 0.0
N443 N 0.57584 0.91792 0.61494 0.0
C444 C 0.61403 0.83077 0.57967 0.0
C445 C 0.5892 0.88991 0.60393 0.0
N446 N 0.58424 0.80265 0.62148 0.0
N447 N 0.62746 0.91838 0.57008 0.0
H448 H 0.55986 0.91859 0.6343 0.0
H449 H 0.57974 0.94036 0.60454 0.0
H450 H 0.64538 0.91923 0.55248 0.0
H451 H 0.62322 0.94062 0.58077 0.0
H452 H 0.59571 0.78075 0.61744 0.0
H453 H 0.56771 0.80182 0.64037 0.0
H454 H 0.61499 0.78011 0.57172 0.0
H455 H 0.64056 0.80191 0.54683 0.0
C456 C 0.38527 0.10414 0.42135 0.0
C457 C 0.3647 0.13123 0.42448 0.0
C458 C 0.39224 0.15823 0.37988 0.0
C459 C 0.41217 0.13072 0.37627 0.0
N460 N 0.42332 0.07499 0.38822 0.0
N461 N 0.34415 0.18136 0.40393 0.0
C462 C 0.4073 0.10287 0.39537 0.0
C463 C 0.3668 0.15749 0.40281 0.0
N464 N 0.38501 0.08039 0.44419 0.0
N465 N 0.3986 0.18547 0.36253 0.0
H466 H 0.32535 0.18146 0.42062 0.0
H467 H 0.34238 0.19962 0.38686 0.0
H468 H 0.41683 0.18673 0.34529 0.0
H469 H 0.3873 0.20746 0.36658 0.0
H470 H 0.40216 0.06215 0.44535 0.0
H471 H 0.36918 0.08017 0.46366 0.0
H472 H 0.41805 0.05291 0.39886 0.0
H473 H 0.43997 0.0732 0.36952 0.0
C474 C 0.82857 0.38215 0.39478 0.0
C475 C 0.85681 0.36878 0.40846 0.0
C476 C 0.89062 0.4019 0.37331 0.0
C477 C 0.86234 0.41584 0.3602 0.0
N478 N 0.80503 0.41449 0.35215 0.0
N479 N 0.9143 0.36044 0.40688 0.0
C480 C 0.83145 0.40442 0.36899 0.0
C481 C 0.88771 0.37662 0.39616 0.0
N482 N 0.79908 0.37402 0.40697 0.0
N483 N 0.92014 0.4144 0.36574 0.0
H484 H 0.91351 0.34328 0.42514 0.0
H485 H 0.9369 0.36231 0.39621 0.0
H486 H 0.92345 0.43277 0.34897 0.0
H487 H 0.94134 0.40814 0.37749 0.0
H488 H 0.7778 0.38577 0.40093 0.0
H489 H 0.796 0.35612 0.42433 0.0
H490 H 0.78206 0.40504 0.35529 0.0
H491 H 0.80658 0.43051 0.33286 0.0
C492 C 0.59016 0.82923 0.35938 0.0
C493 C 0.57795 0.85942 0.34922 0.0
C494 C 0.62039 0.887 0.37933 0.0
C495 C 0.6283 0.85734 0.39424 0.0
N496 N 0.62264 0.79982 0.39799 0.0
N497 N 0.58014 0.9176 0.35046 0.0
C498 C 0.61398 0.82824 0.38382 0.0
C499 C 0.59317 0.8885 0.35876 0.0
N500 N 0.57917 0.80167 0.34523 0.0
N501 N 0.6383 0.91388 0.38546 0.0
H502 H 0.56015 0.92012 0.33562 0.0
H503 H 0.58766 0.93941 0.36019 0.0
H504 H 0.65777 0.91405 0.4012 0.0
H505 H 0.63578 0.93533 0.37273 0.0
H506 H 0.58887 0.77897 0.34955 0.0
H507 H 0.56214 0.80191 0.32679 0.0
H508 H 0.61045 0.77824 0.39448 0.0
H509 H 0.64158 0.79812 0.41438 0.0
C510 C 0.13579 0.5808 0.43794 0.0
C511 C 0.13865 0.61368 0.42947 0.0
C512 C 0.14781 0.59892 0.37321 0.0
C513 C 0.14016 0.56657 0.38097 0.0
N514 N 0.12355 0.5268 0.42011 0.0
N515 N 0.14571 0.65499 0.38931 0.0
C516 C 0.13367 0.55737 0.41325 0.0
C517 C 0.1446 0.62306 0.39721 0.0
N518 N 0.13558 0.57201 0.46966 0.0
N519 N 0.15876 0.60634 0.34307 0.0
H520 H 0.14412 0.67333 0.40637 0.0
H521 H 0.14615 0.66342 0.36572 0.0
H522 H 0.16165 0.58908 0.32506 0.0
H523 H 0.16769 0.62887 0.33672 0.0
H524 H 0.13689 0.5482 0.4774 0.0
H525 H 0.13724 0.58867 0.48836 0.0
H526 H 0.11484 0.51987 0.44258 0.0
H527 H 0.12129 0.50882 0.40281 0.0
C528 C 0.37928 0.82191 0.5771 0.0
C529 C 0.35888 0.84902 0.57386 0.0
C530 C 0.38784 0.87721 0.61629 0.0
C531 C 0.40838 0.85005 0.61991 0.0
N532 N 0.41758 0.79346 0.61069 0.0
N533 N 0.33622 0.89666 0.5976 0.0
C534 C 0.4021 0.82132 0.60253 0.0
C535 C 0.36064 0.87469 0.59602 0.0
N536 N 0.37803 0.79759 0.55505 0.0
N537 N 0.39549 0.90617 0.62984 0.0
H538 H 0.31558 0.8947 0.58345 0.0
H539 H 0.3349 0.91447 0.61519 0.0
H540 H 0.4162 0.9101 0.64329 0.0
H541 H 0.38291 0.92731 0.62491 0.0
H542 H 0.39493 0.77909 0.55399 0.0
H543 H 0.36112 0.79694 0.53655 0.0
H544 H 0.41198 0.77119 0.6007 0.0
H545 H 0.4337 0.79209 0.62987 0.0
C546 C 0.14491 0.38276 0.61219 0.0
C547 C 0.11754 0.40142 0.62057 0.0
C548 C 0.08466 0.3727 0.58123 0.0
C549 C 0.11226 0.35486 0.57209 0.0
N550 N 0.16615 0.33662 0.58329 0.0
N551 N 0.06007 0.40896 0.61988 0.0
C552 C 0.14152 0.35763 0.58929 0.0
C553 C 0.08692 0.39467 0.60722 0.0
N554 N 0.17447 0.39048 0.62438 0.0
N555 N 0.05661 0.36921 0.56443 0.0
H556 H 0.06106 0.42497 0.63917 0.0
H557 H 0.03667 0.40296 0.61332 0.0
H558 H 0.05363 0.3519 0.5465 0.0
H559 H 0.03673 0.38422 0.56721 0.0
H560 H 0.19593 0.3804 0.61625 0.0
H561 H 0.17796 0.40858 0.64135 0.0
H562 H 0.18694 0.33531 0.59718 0.0
H563 H 0.16474 0.31854 0.56598 0.0
C564 C 0.5927 0.09345 0.61137 0.0
C565 C 0.57884 0.12325 0.62077 0.0
C566 C 0.61254 0.15212 0.58206 0.0
C567 C 0.626 0.1223 0.57232 0.0
N568 N 0.63504 0.06584 0.58194 0.0
N569 N 0.58051 0.18116 0.62139 0.0
C570 C 0.61827 0.09338 0.58862 0.0
C571 C 0.59036 0.15271 0.60805 0.0
N572 N 0.57998 0.06517 0.62246 0.0
N573 N 0.62043 0.17968 0.56587 0.0
H574 H 0.56459 0.18225 0.64081 0.0
H575 H 0.59014 0.20346 0.61526 0.0
H576 H 0.63816 0.18041 0.54807 0.0
H577 H 0.60856 0.20153 0.56901 0.0
H578 H 0.58656 0.04262 0.61377 0.0
H579 H 0.56102 0.06418 0.63887 0.0
H580 H 0.6328 0.04469 0.59521 0.0
H581 H 0.65327 0.06484 0.56469 0.0
C582 C 0.89647 0.58653 0.60913 0.0
C583 C 0.86782 0.57805 0.62554 0.0
C584 C 0.83793 0.61949 0.59606 0.0
C585 C 0.86543 0.62448 0.57645 0.0
N586 N 0.92111 0.61373 0.56376 0.0
N587 N 0.81117 0.58543 0.63543 0.0
C588 C 0.89488 0.60846 0.583 0.0
C589 C 0.83857 0.59463 0.61965 0.0
N590 N 0.92526 0.57407 0.61914 0.0
N591 N 0.81122 0.63827 0.59184 0.0
H592 H 0.81103 0.56787 0.65338 0.0
H593 H 0.78829 0.59387 0.62975 0.0
H594 H 0.80969 0.65595 0.57407 0.0
H595 H 0.79145 0.63804 0.60722 0.0
H596 H 0.94751 0.58149 0.61034 0.0
H597 H 0.92717 0.55814 0.63846 0.0
H598 H 0.94203 0.59997 0.56461 0.0
H599 H 0.92155 0.63116 0.54569 0.0
C600 C 0.35314 0.38555 0.10154 0.0
C601 C 0.34594 0.40394 0.12944 0.0
C602 C 0.38275 0.37118 0.16155 0.0
C603 C 0.39186 0.35457 0.1332 0.0
N604 N 0.37922 0.33851 0.07887 0.0
N605 N 0.3458 0.40876 0.18703 0.0
C606 C 0.37456 0.35901 0.10416 0.0
C607 C 0.35808 0.39479 0.15989 0.0
N608 N 0.34172 0.39496 0.07215 0.0
N609 N 0.39852 0.36496 0.18972 0.0
H610 H 0.32732 0.42579 0.18619 0.0
H611 H 0.35174 0.40165 0.21029 0.0
H612 H 0.41512 0.34622 0.19199 0.0
H613 H 0.39594 0.37873 0.21046 0.0
H614 H 0.34972 0.38536 0.05044 0.0
H615 H 0.32545 0.41376 0.06903 0.0
H616 H 0.36498 0.33859 0.05829 0.0
H617 H 0.39534 0.31933 0.07947 0.0
C618 C 0.40114 0.60946 0.81767 0.0
C619 C 0.40904 0.62528 0.84679 0.0
C620 C 0.36855 0.59431 0.87604 0.0
C621 C 0.36145 0.57756 0.84719 0.0
N622 N 0.36369 0.57467 0.78945 0.0
N623 N 0.39444 0.64034 0.90073 0.0
C624 C 0.37533 0.5871 0.81755 0.0
C625 C 0.39064 0.62024 0.875 0.0
N626 N 0.4195 0.61426 0.79078 0.0
N627 N 0.35605 0.58407 0.90472 0.0
H628 H 0.4103 0.65979 0.90032 0.0
H629 H 0.37977 0.63977 0.92106 0.0
H630 H 0.33965 0.56525 0.90662 0.0
H631 H 0.36352 0.5928 0.92696 0.0
H632 H 0.41738 0.60055 0.76994 0.0
H633 H 0.43821 0.63093 0.78981 0.0
H634 H 0.37082 0.58263 0.76678 0.0
H635 H 0.34457 0.55839 0.7889 0.0
C636 C 0.39931 0.36704 0.89107 0.0
C637 C 0.41504 0.3574 0.86229 0.0
C638 C 0.38141 0.3938 0.83059 0.0
C639 C 0.36652 0.40427 0.85943 0.0
N640 N 0.35489 0.3962 0.9156 0.0
N641 N 0.41599 0.35456 0.80447 0.0
C642 C 0.37321 0.38909 0.88918 0.0
C643 C 0.4044 0.36857 0.83192 0.0
N644 N 0.41069 0.35687 0.92022 0.0
N645 N 0.37421 0.40874 0.80216 0.0
H646 H 0.43252 0.33563 0.80488 0.0
H647 H 0.40725 0.35958 0.78156 0.0
H648 H 0.35606 0.42602 0.80012 0.0
H649 H 0.38697 0.40509 0.78091 0.0
H650 H 0.4027 0.3659 0.94217 0.0
H651 H 0.42972 0.34069 0.92263 0.0
H652 H 0.35648 0.38384 0.93732 0.0
H653 H 0.33607 0.41283 0.91497 0.0
C654 C 0.62904 0.38404 0.89021 0.0
C655 C 0.63676 0.40036 0.86113 0.0
C656 C 0.59719 0.36836 0.83174 0.0
C657 C 0.58866 0.35305 0.86098 0.0
N658 N 0.60149 0.33929 0.91575 0.0
N659 N 0.63513 0.40258 0.80332 0.0
C660 C 0.60655 0.35835 0.8894 0.0
C661 C 0.62305 0.39064 0.83152 0.0
N662 N 0.64109 0.39465 0.9189 0.0
N663 N 0.57985 0.36224 0.8045 0.0
H664 H 0.65449 0.41856 0.80264 0.0
H665 H 0.62808 0.39459 0.78069 0.0
H666 H 0.56203 0.34457 0.80354 0.0
H667 H 0.58216 0.37537 0.78329 0.0
H668 H 0.63318 0.38636 0.94119 0.0
H669 H 0.65752 0.41342 0.92081 0.0
H670 H 0.61593 0.33983 0.93618 0.0
H671 H 0.58453 0.32082 0.9161 0.0
C672 C 0.58816 0.55536 0.87208 0.0
C673 C 0.6173 0.55948 0.85483 0.0
C674 C 0.59656 0.60918 0.8308 0.0
C675 C 0.569 0.60676 0.85082 0.0
N676 N 0.54144 0.5811 0.89525 0.0
N677 N 0.65135 0.59164 0.82055 0.0
C678 C 0.56548 0.58077 0.8727 0.0
C679 C 0.62209 0.58669 0.83477 0.0
N680 N 0.58166 0.52675 0.88704 0.0
N681 N 0.59788 0.63237 0.80749 0.0
H682 H 0.67052 0.57558 0.82289 0.0
H683 H 0.65747 0.61273 0.80847 0.0
H684 H 0.57957 0.64921 0.804 0.0
H685 H 0.6158 0.63336 0.78998 0.0
H686 H 0.55932 0.52125 0.89701 0.0
H687 H 0.59745 0.50721 0.88669 0.0
H688 H 0.53999 0.5645 0.91399 0.0
H689 H 0.52472 0.59972 0.89734 0.0
C690 C 0.61748 0.59 0.17257 0.0
C691 C 0.63385 0.58286 0.14345 0.0
C692 C 0.61535 0.63393 0.12095 0.0
C693 C 0.59182 0.63569 0.14551 0.0
N694 N 0.57599 0.62149 0.19933 0.0
N695 N 0.64773 0.59809 0.0888 0.0
C696 C 0.59486 0.61573 0.17303 0.0
C697 C 0.63327 0.60514 0.1175 0.0
N698 N 0.62409 0.5725 0.19965 0.0
N699 N 0.62112 0.65975 0.10149 0.0
H700 H 0.66041 0.57692 0.08443 0.0
H701 H 0.64465 0.61218 0.06827 0.0
H702 H 0.61098 0.68228 0.10582 0.0
H703 H 0.63956 0.66012 0.08446 0.0
H704 H 0.61463 0.57763 0.22226 0.0
H705 H 0.64141 0.5543 0.20003 0.0
H706 H 0.57377 0.60577 0.21871 0.0
H707 H 0.56237 0.64251 0.20154 0.0
C708 C 0.36881 0.59927 0.10662 0.0
C709 C 0.37182 0.57054 0.12478 0.0
C710 C 0.42186 0.59025 0.14866 0.0
C711 C 0.42133 0.61671 0.12708 0.0
N712 N 0.3955 0.64581 0.08382 0.0
N713 N 0.40121 0.5375 0.16241 0.0
C714 C 0.39489 0.62141 0.10592 0.0
C715 C 0.39834 0.56571 0.14567 0.0
N716 N 0.34116 0.60524 0.08983 0.0
N717 N 0.4441 0.58934 0.17287 0.0
H718 H 0.38336 0.51986 0.16274 0.0
H719 H 0.42199 0.53076 0.17467 0.0
H720 H 0.46099 0.60754 0.17649 0.0
H721 H 0.44388 0.57236 0.1913 0.0
H722 H 0.33598 0.62727 0.07906 0.0
H723 H 0.32212 0.58897 0.08867 0.0
H724 H 0.3791 0.64792 0.06504 0.0
H725 H 0.41372 0.66296 0.08265 0.0
C726 C 0.59762 0.4077 0.0988 0.0
C727 C 0.61395 0.41402 0.12805 0.0
C728 C 0.58058 0.37459 0.15638 0.0
C729 C 0.56404 0.36851 0.12718 0.0
N730 N 0.56098 0.37305 0.06948 0.0
N731 N 0.62619 0.39959 0.18285 0.0
C732 C 0.57384 0.38322 0.09799 0.0
C733 C 0.60724 0.396 0.15623 0.0
N734 N 0.60456 0.42552 0.07197 0.0
N735 N 0.56963 0.36138 0.18449 0.0
H736 H 0.64523 0.41589 0.18389 0.0
H737 H 0.62472 0.38483 0.20303 0.0
H738 H 0.55031 0.34542 0.18556 0.0
H739 H 0.5782 0.36775 0.20711 0.0
H740 H 0.5909 0.42498 0.05102 0.0
H741 H 0.62336 0.44211 0.07105 0.0
H742 H 0.56926 0.38043 0.04702 0.0
H743 H 0.54365 0.35495 0.06808 0.0
C744 C -0.00091 0.28259 0.51967 0.0
C745 C 0.0147 0.27976 0.48946 0.0
C746 C 0.963 0.27904 0.4616 0.0
C747 C 0.94744 0.28332 0.49172 0.0
N748 N 0.94891 0.27977 0.54946 0.0
N749 N 0.01261 0.26664 0.4332 0.0
C750 C 0.96501 0.28191 0.52083 0.0
C751 C -0.0031 0.27499 0.46089 0.0
N752 N 0.01673 0.28793 0.54689 0.0
N753 N 0.94576 0.28095 0.43368 0.0
H754 H 0.03753 0.26353 0.43225 0.0
H755 H 0.00092 0.25997 0.41211 0.0
H756 H 0.92079 0.28304 0.43312 0.0
H757 H 0.95626 0.28223 0.41096 0.0
H758 H 0.00661 0.29434 0.56889 0.0
H759 H 0.04182 0.28774 0.54715 0.0
H760 H 0.96023 0.27591 0.57146 0.0
H761 H 0.92384 0.27876 0.5508 0.0
C762 C 0.71165 0.00823 0.51702 0.0
C763 C 0.70979 0.02536 0.48761 0.0
C764 C 0.71375 0.97513 0.45729 0.0
C765 C 0.70936 0.95799 0.48641 0.0
N766 N 0.70552 0.95692 0.54429 0.0
N767 N 0.71206 0.02669 0.42979 0.0
C768 C 0.70958 0.97408 0.5165 0.0
C769 C 0.71226 0.00924 0.4577 0.0
N770 N 0.71466 0.02471 0.5453 0.0
N771 N 0.7194 0.95854 0.42945 0.0
H772 H 0.71328 0.05178 0.42956 0.0
H773 H 0.7098 0.01661 0.40701 0.0
H774 H 0.72103 0.93347 0.42884 0.0
H775 H 0.72511 0.96937 0.4076 0.0
H776 H 0.71886 0.01375 0.56741 0.0
H777 H 0.71554 0.04977 0.54633 0.0
H778 H 0.70128 0.96735 0.56665 0.0
H779 H 0.70494 0.93185 0.5449 0.0
C780 C 0.9761 0.72968 0.48535 0.0
C781 C 0.95827 0.71314 0.50916 0.0
C782 C 0.00741 0.69764 0.53711 0.0
C783 C 0.0256 0.7129 0.51241 0.0
N784 N 0.02792 0.75115 0.46895 0.0
N785 N 0.95517 0.69094 0.56242 0.0
C786 C 0.01005 0.73163 0.4885 0.0
C787 C 0.97344 0.70058 0.53681 0.0
N788 N 0.9607 0.742 0.45905 0.0
N789 N 0.02206 0.67805 0.55913 0.0
H790 H 0.93012 0.69287 0.56251 0.0
H791 H 0.96485 0.68413 0.5845 0.0
H792 H 0.0468 0.67459 0.56032 0.0
H793 H 0.00945 0.66321 0.57492 0.0
H794 H 0.97265 0.75098 0.43893 0.0
H795 H 0.93568 0.74194 0.45687 0.0
H796 H 0.01792 0.76732 0.45264 0.0
H797 H 0.05284 0.75328 0.4713 0.0
C798 C 0.26892 0.01666 0.48843 0.0
C799 C 0.2875 0.03119 0.51309 0.0
C800 C 0.30584 0.97848 0.53144 0.0
C801 C 0.28647 0.96382 0.50752 0.0
N802 N 0.244 0.96788 0.46839 0.0
N803 N 0.31633 0.02617 0.56306 0.0
C804 C 0.26612 0.98261 0.48769 0.0
C805 C 0.30349 0.01209 0.53631 0.0
N806 N 0.25572 0.03506 0.46456 0.0
N807 N 0.32818 0.96082 0.54792 0.0
H808 H 0.3147 0.05084 0.56735 0.0
H809 H 0.32557 0.01312 0.58237 0.0
H810 H 0.33176 0.93633 0.54414 0.0
H811 H 0.34528 0.971 0.5631 0.0
H812 H 0.24525 0.02539 0.44399 0.0
H813 H 0.25729 0.06008 0.46394 0.0
H814 H 0.22633 0.98036 0.45573 0.0
H815 H 0.24139 0.94292 0.46743 0.0
C816 C 0.50011 0.98139 0.26883 0.0
C817 C 0.47751 0.96474 0.28825 0.0
C818 C 0.45221 0.01559 0.30356 0.0
C819 C 0.47806 0.03215 0.2889 0.0
N820 N 0.52673 0.03216 0.2574 0.0
N821 N 0.43214 0.96505 0.32453 0.0
C822 C 0.50175 0.0155 0.27088 0.0
C823 C 0.45331 0.98157 0.30548 0.0
N824 N 0.52029 0.96456 0.249 0.0
N825 N 0.42656 0.03257 0.3153 0.0
H826 H 0.43154 0.93999 0.32557 0.0
H827 H 0.41638 0.97607 0.34062 0.0
H828 H 0.42504 0.05759 0.31345 0.0
H829 H 0.40562 0.02193 0.32402 0.0
H830 H 0.53528 0.97534 0.23205 0.0
H831 H 0.52034 0.93949 0.24774 0.0
H832 H 0.54691 0.02127 0.24729 0.0
H833 H 0.52806 0.05723 0.25772 0.0
C834 C 0.9821 0.47857 0.26475 0.0
C835 C 0.96498 0.50673 0.27329 0.0
C836 C 0.01512 0.53627 0.28109 0.0
C837 C 0.03234 0.50742 0.27462 0.0
N838 N 0.03362 0.45464 0.25092 0.0
N839 N 0.96371 0.56417 0.27998 0.0
C840 C 0.01617 0.47971 0.26317 0.0
C841 C 0.9811 0.53631 0.27789 0.0
N842 N 0.96576 0.45051 0.25963 0.0
N843 N 0.0308 0.56269 0.29276 0.0
H844 H 0.93867 0.56458 0.27811 0.0
H845 H 0.97407 0.58696 0.28059 0.0
H846 H 0.05569 0.56394 0.29518 0.0
H847 H 0.01904 0.58288 0.30183 0.0
H848 H 0.97689 0.42819 0.25717 0.0
H849 H 0.94066 0.44947 0.2591 0.0
H850 H 0.02335 0.43465 0.23992 0.0
H851 H 0.05867 0.45534 0.24911 0.0
C852 C 0.52156 0.9739 0.70137 0.0
C853 C 0.49136 0.95847 0.69822 0.0
C854 C 0.46378 0.01013 0.70353 0.0
C855 C 0.4939 0.02576 0.70059 0.0
N856 N 0.55182 0.02347 0.69684 0.0
N857 N 0.43339 0.96087 0.69656 0.0
C858 C 0.523 0.00796 0.70021 0.0
C859 C 0.46227 0.9762 0.70002 0.0
N860 N 0.54873 0.95581 0.70572 0.0
N861 N 0.43681 0.02787 0.70997 0.0
H862 H 0.43133 0.93593 0.69502 0.0
H863 H 0.4116 0.97287 0.69356 0.0
H864 H 0.43756 0.05277 0.71323 0.0
H865 H 0.41444 0.01782 0.71507 0.0
H866 H 0.57116 0.96555 0.71106 0.0
H867 H 0.54823 0.93072 0.70699 0.0
H868 H 0.57344 0.0117 0.69212 0.0
H869 H 0.55399 0.04845 0.697 0.0
C870 C 0.98462 0.50792 0.72809 0.0
C871 C 0.96724 0.48239 0.71371 0.0
C872 C 0.01726 0.45198 0.70707 0.0
C873 C 0.03465 0.48023 0.71448 0.0
N874 N 0.03612 0.53477 0.73367 0.0
N875 N 0.96712 0.43028 0.68755 0.0
C876 C 0.01869 0.50801 0.72599 0.0
C877 C 0.9834 0.454 0.70343 0.0
N878 N 0.96843 0.53187 0.74382 0.0
N879 N 0.0332 0.42359 0.70244 0.0
H880 H 0.94246 0.4308 0.68344 0.0
H881 H 0.97848 0.41113 0.67601 0.0
H882 H 0.05813 0.42156 0.70437 0.0
H883 H 0.02156 0.40156 0.69982 0.0
H884 H 0.97977 0.54988 0.75698 0.0
H885 H 0.94342 0.53185 0.74627 0.0
H886 H 0.02582 0.55712 0.73843 0.0
H887 H 0.06125 0.53477 0.734 0.0
C888 C 0.28498 0.52589 0.96661 0.0
C889 C 0.28337 0.49546 0.95145 0.0
C890 C 0.27305 0.46984 0.0033 0.0
C891 C 0.28148 0.49902 0.01877 0.0
N892 N 0.29657 0.55512 0.0155 0.0
N893 N 0.27594 0.43797 0.95461 0.0
C894 C 0.28705 0.52741 0.00061 0.0
C895 C 0.27673 0.46729 0.96947 0.0
N896 N 0.28448 0.55324 0.94833 0.0
N897 N 0.26149 0.44469 0.0211 0.0
H898 H 0.27786 0.43521 0.92976 0.0
H899 H 0.27526 0.41621 0.96704 0.0
H900 H 0.25813 0.44621 0.04595 0.0
H901 H 0.25231 0.4237 0.01101 0.0
H902 H 0.28283 0.5763 0.958 0.0
H903 H 0.28237 0.55261 0.92331 0.0
H904 H 0.30481 0.57528 0.00309 0.0
H905 H 0.29836 0.55743 0.04037 0.0
C906 C 0.465 0.27662 0.97869 0.0
C907 C 0.49576 0.27933 0.96409 0.0
C908 C 0.52163 0.28236 0.01672 0.0
C909 C 0.4908 0.28064 0.03132 0.0
N910 N 0.43459 0.26734 0.02772 0.0
N911 N 0.55335 0.27539 0.96816 0.0
C912 C 0.46293 0.27475 0.01271 0.0
C913 C 0.52412 0.279 0.98287 0.0
N914 N 0.43778 0.27796 0.96031 0.0
N915 N 0.54816 0.28936 0.03481 0.0
H916 H 0.55564 0.27248 0.94331 0.0
H917 H 0.57481 0.27213 0.98063 0.0
H918 H 0.54754 0.2916 0.05977 0.0
H919 H 0.5705 0.295 0.02494 0.0
H920 H 0.41473 0.28031 0.96987 0.0
H921 H 0.43821 0.27865 0.93526 0.0
H922 H 0.41401 0.25996 0.01556 0.0
H923 H 0.4326 0.26564 0.05271 0.0
C924 C 0.70687 0.45734 0.98365 0.0
C925 C 0.70878 0.48682 0.9667 0.0
C926 C 0.71224 0.51627 0.0174 0.0
C927 C 0.70429 0.48754 0.03397 0.0
N928 N 0.69233 0.43064 0.03334 0.0
N929 N 0.71267 0.54475 0.96651 0.0
C930 C 0.70175 0.45784 0.01737 0.0
C931 C 0.71196 0.51643 0.98327 0.0
N932 N 0.70999 0.42896 0.96733 0.0
N933 N 0.7202 0.54326 0.03441 0.0
H934 H 0.7132 0.5458 0.94146 0.0
H935 H 0.71086 0.56727 0.97734 0.0
H936 H 0.72081 0.54369 0.05951 0.0
H937 H 0.72904 0.56418 0.02381 0.0
H938 H 0.7116 0.40662 0.97859 0.0
H939 H 0.71417 0.42812 0.94257 0.0
H940 H 0.68626 0.40928 0.02177 0.0
H941 H 0.68832 0.42989 0.05808 0.0
C942 C 0.47779 0.66626 0.97223 0.0
C943 C 0.49264 0.69198 0.95532 0.0
C944 C 0.51142 0.71523 0.00604 0.0
C945 C 0.49544 0.69018 0.02289 0.0
N946 N 0.45756 0.6462 0.02299 0.0
N947 N 0.51868 0.74368 0.95545 0.0
C948 C 0.47677 0.66706 0.00625 0.0
C949 C 0.50796 0.71737 0.97206 0.0
N950 N 0.46633 0.64007 0.95594 0.0
N951 N 0.53108 0.73594 0.02231 0.0
H952 H 0.51654 0.74577 0.93052 0.0
H953 H 0.52724 0.76446 0.96646 0.0
H954 H 0.53403 0.73517 0.04721 0.0
H955 H 0.54619 0.75244 0.01102 0.0
H956 H 0.45888 0.61896 0.96723 0.0
H957 H 0.46677 0.63809 0.93098 0.0
H958 H 0.44054 0.63141 0.01213 0.0
H959 H 0.45648 0.64568 0.04804 0.0
C960 C 0.19778 0.23202 0.51964 0.0
C961 C 0.18702 0.2411 0.48857 0.0
C962 C 0.22569 0.20446 0.46352 0.0
C963 C 0.23786 0.19712 0.49451 0.0
N964 N 0.23916 0.2066 0.5518 0.0
N965 N 0.19329 0.24044 0.4309 0.0
C966 C 0.22514 0.21188 0.5225 0.0
C967 C 0.20156 0.22846 0.46042 0.0
N968 N 0.18077 0.2412 0.54634 0.0
N969 N 0.23713 0.18841 0.43715 0.0
H970 H 0.17585 0.25825 0.42777 0.0
H971 H 0.20537 0.23472 0.40971 0.0
H972 H 0.25612 0.17199 0.43826 0.0
H973 H 0.22669 0.1899 0.41446 0.0
H974 H 0.18533 0.23245 0.56936 0.0
H975 H 0.16008 0.25538 0.5453 0.0
H976 H 0.23346 0.21974 0.57235 0.0
H977 H 0.25817 0.19059 0.55529 0.0
C978 C 0.74501 0.21547 0.46011 0.0
C979 C 0.73253 0.20318 0.48936 0.0
C980 C 0.75945 0.24578 0.51951 0.0
C981 C 0.77564 0.25493 0.49095 0.0
N982 N 0.7862 0.24754 0.43427 0.0
N983 N 0.72873 0.20473 0.5473 0.0
C984 C 0.7688 0.23983 0.46116 0.0
C985 C 0.73961 0.21804 0.5192 0.0
N986 N 0.73355 0.20428 0.43139 0.0
N987 N 0.76274 0.26399 0.5467 0.0
H988 H 0.71394 0.18448 0.54808 0.0
H989 H 0.73612 0.21232 0.56997 0.0
H990 H 0.77704 0.28461 0.5475 0.0
H991 H 0.74916 0.26046 0.56747 0.0
H992 H 0.73929 0.21458 0.40927 0.0
H993 H 0.7159 0.1865 0.42982 0.0
H994 H 0.78498 0.2346 0.41287 0.0
H995 H 0.80366 0.26554 0.43386 0.0
C996 C 0.76798 0.74694 0.51406 0.0
C997 C 0.7849 0.73758 0.48593 0.0
C998 C 0.75315 0.77481 0.45323 0.0
C999 C 0.73618 0.78411 0.48132 0.0
N1000 N 0.72233 0.77508 0.53706 0.0
N1001 N 0.78921 0.73631 0.42813 0.0
C1002 C 0.74176 0.76866 0.51125 0.0
C1003 C 0.77617 0.74966 0.45526 0.0
N1004 N 0.77828 0.73676 0.54363 0.0
N1005 N 0.74754 0.79036 0.42476 0.0
H1006 H 0.80579 0.71744 0.42884 0.0
H1007 H 0.78164 0.74183 0.40492 0.0
H1008 H 0.72929 0.80738 0.42188 0.0
H1009 H 0.76185 0.78756 0.40438 0.0
H1010 H 0.76945 0.74579 0.56526 0.0
H1011 H 0.79746 0.7209 0.54683 0.0
H1012 H 0.72283 0.76187 0.55835 0.0
H1013 H 0.70391 0.79211 0.53655 0.0
C1014 C 0.19928 0.76065 0.46228 0.0
C1015 C 0.17483 0.76185 0.48612 0.0
C1016 C 0.1989 0.81001 0.5096 0.0
C1017 C 0.22305 0.8091 0.48546 0.0
N1018 N 0.24096 0.78976 0.43376 0.0
N1019 N 0.14596 0.79209 0.52629 0.0
C1020 C 0.22151 0.78639 0.46011 0.0
C1021 C 0.17287 0.78807 0.50776 0.0
N1022 N 0.20267 0.73414 0.44309 0.0
N1023 N 0.20176 0.83028 0.53533 0.0
H1024 H 0.12625 0.77659 0.52503 0.0
H1025 H 0.14183 0.81244 0.54032 0.0
H1026 H 0.22071 0.84644 0.53805 0.0
H1027 H 0.18673 0.82924 0.55538 0.0
H1028 H 0.22243 0.73048 0.42808 0.0
H1029 H 0.18717 0.71447 0.44387 0.0
H1030 H 0.23871 0.77571 0.41315 0.0
H1031 H 0.25713 0.8088 0.43116 0.0
C1032 C 0.51633 0.21352 0.23632 0.0
C1033 C 0.48789 0.20518 0.2532 0.0
C1034 C 0.45781 0.247 0.22471 0.0
C1035 C 0.48507 0.25211 0.20491 0.0
N1036 N 0.53991 0.24007 0.19005 0.0
N1037 N 0.4309 0.21173 0.26262 0.0
C1038 C 0.51433 0.23544 0.21029 0.0
C1039 C 0.45847 0.2216 0.24754 0.0
N1040 N 0.54532 0.2012 0.24592 0.0
N1041 N 0.4314 0.26642 0.2216 0.0
H1042 H 0.43038 0.19319 0.27954 0.0
H1043 H 0.40809 0.22031 0.25682 0.0
H1044 H 0.42992 0.28474 0.20447 0.0
H1045 H 0.41202 0.26612 0.2375 0.0
H1046 H 0.56734 0.20875 0.23667 0.0
H1047 H 0.54766 0.18543 0.26534 0.0
H1048 H 0.56053 0.22582 0.1903 0.0
H1049 H 0.53986 0.25711 0.17159 0.0
C1050 C 0.77616 0.52284 0.23791 0.0
C1051 C 0.79124 0.49396 0.24816 0.0
C1052 C 0.75553 0.4621 0.21406 0.0
C1053 C 0.74001 0.49093 0.20454 0.0
N1054 N 0.72987 0.54747 0.21238 0.0
N1055 N 0.79137 0.43601 0.25196 0.0
C1056 C 0.74853 0.52094 0.21811 0.0
C1057 C 0.77976 0.46349 0.23801 0.0
N1058 N 0.78923 0.55205 0.2456 0.0
N1059 N 0.74797 0.43369 0.19932 0.0
H1060 H 0.80899 0.43619 0.26981 0.0
H1061 H 0.78166 0.41328 0.24795 0.0
H1062 H 0.72969 0.43166 0.18228 0.0
H1063 H 0.76108 0.41255 0.20244 0.0
H1064 H 0.78134 0.57373 0.23581 0.0
H1065 H 0.80978 0.5546 0.25973 0.0
H1066 H 0.73291 0.56933 0.22423 0.0
H1067 H 0.70935 0.5468 0.19795 0.0
C1068 C 0.52598 0.76544 0.19714 0.0
C1069 C 0.49732 0.75007 0.18688 0.0
C1070 C 0.46562 0.78121 0.2255 0.0
C1071 C 0.49395 0.79798 0.23433 0.0
N1072 N 0.55027 0.80965 0.22632 0.0
N1073 N 0.43938 0.74679 0.18653 0.0
C1074 C 0.52388 0.79132 0.2193 0.0
C1075 C 0.46697 0.75883 0.19981 0.0
N1076 N 0.55525 0.75414 0.18707 0.0
N1077 N 0.43749 0.78658 0.24179 0.0
H1078 H 0.43941 0.73071 0.16727 0.0
H1079 H 0.41641 0.75478 0.19258 0.0
H1080 H 0.43501 0.80415 0.25954 0.0
H1081 H 0.41707 0.77233 0.23919 0.0
H1082 H 0.5771 0.76193 0.19646 0.0
H1083 H 0.55784 0.73498 0.17109 0.0
H1084 H 0.57174 0.80849 0.21343 0.0
H1085 H 0.55016 0.82767 0.24378 0.0
C1086 C 0.21256 0.47102 0.23297 0.0
C1087 C 0.19151 0.4977 0.23604 0.0
C1088 C 0.21792 0.52466 0.19088 0.0
C1089 C 0.2371 0.49682 0.18617 0.0
N1090 N 0.24904 0.44132 0.19855 0.0
N1091 N 0.17016 0.54759 0.21533 0.0
C1092 C 0.23344 0.46934 0.20605 0.0
C1093 C 0.19306 0.52395 0.21429 0.0
N1094 N 0.21353 0.44793 0.25643 0.0
N1095 N 0.2243 0.55216 0.17391 0.0
H1096 H 0.15153 0.54787 0.23218 0.0
H1097 H 0.16798 0.56546 0.19788 0.0
H1098 H 0.24242 0.55366 0.15659 0.0
H1099 H 0.21348 0.57423 0.17885 0.0
H1100 H 0.23086 0.42983 0.25725 0.0
H1101 H 0.19883 0.44847 0.27677 0.0
H1102 H 0.24463 0.41955 0.21019 0.0
H1103 H 0.26429 0.43901 0.17873 0.0
C1104 C 0.47444 0.76619 0.78565 0.0
C1105 C 0.50182 0.74609 0.78932 0.0
C1106 C 0.52713 0.77075 0.74217 0.0
C1107 C 0.50093 0.79248 0.74024 0.0
N1108 N 0.45194 0.81462 0.76232 0.0
N1109 N 0.55633 0.73218 0.77481 0.0
C1110 C 0.47533 0.79143 0.76275 0.0
C1111 C 0.52877 0.74908 0.76854 0.0
N1112 N 0.44689 0.75999 0.80264 0.0
N1113 N 0.55018 0.77066 0.71865 0.0
H1114 H 0.55859 0.71651 0.79429 0.0
H1115 H 0.57786 0.7357 0.76247 0.0
H1116 H 0.55026 0.78702 0.69959 0.0
H1117 H 0.56794 0.75308 0.71674 0.0
H1118 H 0.42509 0.77157 0.79829 0.0
H1119 H 0.44477 0.74118 0.81912 0.0
H1120 H 0.43488 0.81732 0.78051 0.0
H1121 H 0.45088 0.83275 0.74497 0.0
C1122 C 0.2445 0.51619 0.76447 0.0
C1123 C 0.25806 0.48698 0.77571 0.0
C1124 C 0.22388 0.45578 0.73961 0.0
C1125 C 0.20966 0.48497 0.72908 0.0
N1126 N 0.21138 0.54271 0.72439 0.0
N1127 N 0.26684 0.42993 0.76955 0.0
C1128 C 0.22156 0.51518 0.73933 0.0
C1129 C 0.24994 0.45706 0.76159 0.0
N1130 N 0.25315 0.54474 0.77835 0.0
N1131 N 0.21119 0.42692 0.7302 0.0
H1132 H 0.28536 0.42984 0.78644 0.0
H1133 H 0.2643 0.40803 0.75769 0.0
H1134 H 0.19229 0.42497 0.71385 0.0
H1135 H 0.21794 0.40487 0.74 0.0
H1136 H 0.24134 0.56643 0.77409 0.0
H1137 H 0.27149 0.54656 0.79537 0.0
H1138 H 0.22118 0.56534 0.72867 0.0
H1139 H 0.19496 0.54256 0.70541 0.0
C1140 C 0.47102 0.20813 0.75565 0.0
C1141 C 0.50058 0.19857 0.74143 0.0
C1142 C 0.53039 0.23596 0.77555 0.0
C1143 C 0.50087 0.24524 0.78995 0.0
N1144 N 0.44285 0.24518 0.79098 0.0
N1145 N 0.5575 0.20625 0.73311 0.0
C1146 C 0.47105 0.23292 0.77907 0.0
C1147 C 0.53003 0.21352 0.74982 0.0
N1148 N 0.44305 0.19305 0.74706 0.0
N1149 N 0.55871 0.24813 0.78706 0.0
H1150 H 0.55833 0.18899 0.71494 0.0
H1151 H 0.57911 0.21858 0.73569 0.0
H1152 H 0.5597 0.26588 0.80477 0.0
H1153 H 0.58134 0.23982 0.78026 0.0
H1154 H 0.42132 0.19585 0.7592 0.0
H1155 H 0.44168 0.17646 0.72831 0.0
H1156 H 0.42024 0.23978 0.78178 0.0
H1157 H 0.44198 0.26262 0.809 0.0
C1158 C 0.78779 0.47817 0.80894 0.0
C1159 C 0.76126 0.4995 0.80719 0.0
C1160 C 0.78555 0.52654 0.76093 0.0
C1161 C 0.80941 0.50218 0.7598 0.0
N1162 N 0.83069 0.45178 0.77985 0.0
N1163 N 0.73232 0.54151 0.77918 0.0
C1164 C 0.8101 0.47728 0.78318 0.0
C1165 C 0.7595 0.52327 0.78274 0.0
N1166 N 0.79205 0.45927 0.83555 0.0
N1167 N 0.78819 0.55312 0.74168 0.0
H1168 H 0.71236 0.53952 0.79426 0.0
H1169 H 0.7284 0.55663 0.75958 0.0
H1170 H 0.80734 0.55656 0.72577 0.0
H1171 H 0.77321 0.57313 0.74375 0.0
H1172 H 0.81273 0.44565 0.83952 0.0
H1173 H 0.77641 0.45973 0.85522 0.0
H1174 H 0.82957 0.4313 0.79428 0.0
H1175 H 0.84696 0.44954 0.76087 0.0
loop_
_geom_bond_atom_site_label_1
_geom_bond_atom_site_label_2
_geom_bond_distance
_geom_bond_site_symmetry_2
_ccdc_geom_bond_type
In0 O1 2.294 . S
In0 O2 2.326 . S
In0 O6 2.266 . S
In0 O7 2.326 . S
In0 O8 2.266 . S
In0 O9 2.326 . S
In0 O11 2.294 . S
In0 O12 2.326 . S
O1 In0 2.294 . S
O1 C10 1.240 . S
O2 In0 2.326 . S
O2 C10 1.252 . S
C3 O6 1.252 . S
C3 O7 1.260 . S
C4 O11 1.240 . S
C4 O12 1.252 . S
C5 O8 1.252 . S
C5 O9 1.260 . S
O6 In0 2.266 . S
O6 C3 1.252 . S
O7 In0 2.326 . S
O7 C3 1.260 . S
O8 In0 2.266 . S
O8 C5 1.252 . S
O9 In0 2.326 . S
O9 C5 1.260 . S
C10 O1 1.240 . S
C10 O2 1.252 . S
O11 In0 2.294 . S
O11 C4 1.240 . S
O12 In0 2.326 . S
O12 C4 1.252 . S
In13 O14 2.294 . S
In13 O15 2.326 . S
In13 O19 2.266 . S
In13 O20 2.326 . S
In13 O21 2.266 . S
In13 O22 2.326 . S
In13 O24 2.294 . S
In13 O25 2.326 . S
O14 In13 2.294 . S
O14 C23 1.240 . S
O15 In13 2.326 . S
O15 C23 1.252 . S
C16 O19 1.252 . S
C16 O20 1.260 . S
C17 O24 1.240 . S
C17 O25 1.252 . S
C18 O21 1.252 . S
C18 O22 1.260 . S
O19 In13 2.266 . S
O19 C16 1.252 . S
O20 In13 2.326 . S
O20 C16 1.260 . S
O21 In13 2.266 . S
O21 C18 1.252 . S
O22 In13 2.326 . S
O22 C18 1.260 . S
C23 O14 1.240 . S
C23 O15 1.252 . S
O24 In13 2.294 . S
O24 C17 1.240 . S
O25 In13 2.326 . S
O25 C17 1.252 . S
In26 O27 2.294 . S
In26 O28 2.326 . S
In26 O32 2.266 . S
In26 O33 2.326 . S
In26 O34 2.266 . S
In26 O35 2.326 . S
In26 O37 2.294 . S
In26 O38 2.326 . S
O27 In26 2.294 . S
O27 C36 1.240 . S
O28 In26 2.326 . S
O28 C36 1.252 . S
C29 O32 1.252 . S
C29 O33 1.260 . S
C30 O37 1.240 . S
C30 O38 1.252 . S
C31 O34 1.252 . S
C31 O35 1.260 . S
O32 In26 2.266 . S
O32 C29 1.252 . S
O33 In26 2.326 . S
O33 C29 1.260 . S
O34 In26 2.266 . S
O34 C31 1.252 . S
O35 In26 2.326 . S
O35 C31 1.260 . S
C36 O27 1.240 . S
C36 O28 1.252 . S
O37 In26 2.294 . S
O37 C30 1.240 . S
O38 In26 2.326 . S
O38 C30 1.252 . S
In39 O40 2.294 . S
In39 O41 2.326 . S
In39 O45 2.266 . S
In39 O46 2.326 . S
In39 O47 2.266 . S
In39 O48 2.326 . S
In39 O50 2.294 . S
In39 O51 2.326 . S
O40 In39 2.294 . S
O40 C49 1.240 . S
O41 In39 2.326 . S
O41 C49 1.252 . S
C42 O45 1.252 . S
C42 O46 1.260 . S
C43 O50 1.240 . S
C43 O51 1.252 . S
C44 O47 1.252 . S
C44 O48 1.260 . S
O45 In39 2.266 . S
O45 C42 1.252 . S
O46 In39 2.326 . S
O46 C42 1.260 . S
O47 In39 2.266 . S
O47 C44 1.252 . S
O48 In39 2.326 . S
O48 C44 1.260 . S
C49 O40 1.240 . S
C49 O41 1.252 . S
O50 In39 2.294 . S
O50 C43 1.240 . S
O51 In39 2.326 . S
O51 C43 1.252 . S
In52 O53 2.294 . S
In52 O54 2.326 . S
In52 O58 2.266 . S
In52 O59 2.326 . S
In52 O60 2.266 . S
In52 O61 2.326 . S
In52 O63 2.294 . S
In52 O64 2.326 . S
O53 In52 2.294 . S
O53 C62 1.240 . S
O54 In52 2.326 . S
O54 C62 1.252 . S
C55 O58 1.252 . S
C55 O59 1.260 . S
C56 O63 1.240 . S
C56 O64 1.252 . S
C57 O60 1.252 . S
C57 O61 1.260 . S
O58 In52 2.266 . S
O58 C55 1.252 . S
O59 In52 2.326 . S
O59 C55 1.260 . S
O60 In52 2.266 . S
O60 C57 1.252 . S
O61 In52 2.326 . S
O61 C57 1.260 . S
C62 O53 1.240 . S
C62 O54 1.252 . S
O63 In52 2.294 . S
O63 C56 1.240 . S
O64 In52 2.326 . S
O64 C56 1.252 . S
In65 O66 2.294 . S
In65 O67 2.326 . S
In65 O71 2.266 . S
In65 O72 2.326 . S
In65 O73 2.266 . S
In65 O74 2.326 . S
In65 O76 2.294 . S
In65 O77 2.326 . S
O66 In65 2.294 . S
O66 C75 1.240 . S
O67 In65 2.326 . S
O67 C75 1.252 . S
C68 O71 1.252 . S
C68 O72 1.260 . S
C69 O76 1.240 . S
C69 O77 1.252 . S
C70 O73 1.252 . S
C70 O74 1.260 . S
O71 In65 2.266 . S
O71 C68 1.252 . S
O72 In65 2.326 . S
O72 C68 1.260 . S
O73 In65 2.266 . S
O73 C70 1.252 . S
O74 In65 2.326 . S
O74 C70 1.260 . S
C75 O66 1.240 . S
C75 O67 1.252 . S
O76 In65 2.294 . S
O76 C69 1.240 . S
O77 In65 2.326 . S
O77 C69 1.252 . S
In78 O79 2.294 . S
In78 O80 2.326 . S
In78 O84 2.266 . S
In78 O85 2.326 . S
In78 O86 2.266 . S
In78 O87 2.326 . S
In78 O89 2.294 . S
In78 O90 2.326 . S
O79 In78 2.294 . S
O79 C88 1.240 . S
O80 In78 2.326 . S
O80 C88 1.252 . S
C81 O84 1.252 . S
C81 O85 1.260 . S
C82 O89 1.240 . S
C82 O90 1.252 . S
C83 O86 1.252 . S
C83 O87 1.260 . S
O84 In78 2.266 . S
O84 C81 1.252 . S
O85 In78 2.326 . S
O85 C81 1.260 . S
O86 In78 2.266 . S
O86 C83 1.252 . S
O87 In78 2.326 . S
O87 C83 1.260 . S
C88 O79 1.240 . S
C88 O80 1.252 . S
O89 In78 2.294 . S
O89 C82 1.240 . S
O90 In78 2.326 . S
O90 C82 1.252 . S
In91 O92 2.294 . S
In91 O93 2.326 . S
In91 O97 2.266 . S
In91 O98 2.326 . S
In91 O99 2.266 . S
In91 O100 2.326 . S
In91 O102 2.294 . S
In91 O103 2.326 . S
O92 In91 2.294 . S
O92 C101 1.240 . S
O93 In91 2.326 . S
O93 C101 1.252 . S
C94 O97 1.252 . S
C94 O98 1.260 . S
C95 O102 1.240 . S
C95 O103 1.252 . S
C96 O99 1.252 . S
C96 O100 1.260 . S
O97 In91 2.266 . S
O97 C94 1.252 . S
O98 In91 2.326 . S
O98 C94 1.260 . S
O99 In91 2.266 . S
O99 C96 1.252 . S
O100 In91 2.326 . S
O100 C96 1.260 . S
C101 O92 1.240 . S
C101 O93 1.252 . S
O102 In91 2.294 . S
O102 C95 1.240 . S
O103 In91 2.326 . S
O103 C95 1.252 . S
In104 O105 2.294 . S
In104 O106 2.326 . S
In104 O110 2.266 . S
In104 O111 2.326 . S
In104 O112 2.266 . S
In104 O113 2.326 . S
In104 O115 2.294 . S
In104 O116 2.326 . S
O105 In104 2.294 . S
O105 C114 1.240 . S
O106 In104 2.326 . S
O106 C114 1.252 . S
C107 O110 1.252 . S
C107 O111 1.260 . S
C108 O115 1.240 . S
C108 O116 1.252 . S
C109 O112 1.252 . S
C109 O113 1.260 . S
O110 In104 2.266 . S
O110 C107 1.252 . S
O111 In104 2.326 . S
O111 C107 1.260 . S
O112 In104 2.266 . S
O112 C109 1.252 . S
O113 In104 2.326 . S
O113 C109 1.260 . S
C114 O105 1.240 . S
C114 O106 1.252 . S
O115 In104 2.294 . S
O115 C108 1.240 . S
O116 In104 2.326 . S
O116 C108 1.252 . S
In117 O118 2.294 . S
In117 O119 2.326 . S
In117 O123 2.266 . S
In117 O124 2.326 . S
In117 O125 2.266 . S
In117 O126 2.326 . S
In117 O128 2.294 . S
In117 O129 2.326 . S
O118 In117 2.294 . S
O118 C127 1.240 . S
O119 In117 2.326 . S
O119 C127 1.252 . S
C120 O123 1.252 . S
C120 O124 1.260 . S
C121 O128 1.240 . S
C121 O129 1.252 . S
C122 O125 1.252 . S
C122 O126 1.260 . S
O123 In117 2.266 . S
O123 C120 1.252 . S
O124 In117 2.326 . S
O124 C120 1.260 . S
O125 In117 2.266 . S
O125 C122 1.252 . S
O126 In117 2.326 . S
O126 C122 1.260 . S
C127 O118 1.240 . S
C127 O119 1.252 . S
O128 In117 2.294 . S
O128 C121 1.240 . S
O129 In117 2.326 . S
O129 C121 1.252 . S
In130 O131 2.294 . S
In130 O132 2.326 . S
In130 O136 2.266 . S
In130 O137 2.326 . S
In130 O138 2.266 . S
In130 O139 2.326 . S
In130 O141 2.294 . S
In130 O142 2.326 . S
O131 In130 2.294 . S
O131 C140 1.240 . S
O132 In130 2.326 . S
O132 C140 1.252 . S
C133 O136 1.252 . S
C133 O137 1.260 . S
C134 O141 1.240 . S
C134 O142 1.252 . S
C135 O138 1.252 . S
C135 O139 1.260 . S
O136 In130 2.266 . S
O136 C133 1.252 . S
O137 In130 2.326 . S
O137 C133 1.260 . S
O138 In130 2.266 . S
O138 C135 1.252 . S
O139 In130 2.326 . S
O139 C135 1.260 . S
C140 O131 1.240 . S
C140 O132 1.252 . S
O141 In130 2.294 . S
O141 C134 1.240 . S
O142 In130 2.326 . S
O142 C134 1.252 . S
In143 O144 2.294 . S
In143 O145 2.326 . S
In143 O149 2.266 . S
In143 O150 2.326 . S
In143 O151 2.266 . S
In143 O152 2.326 . S
In143 O154 2.294 . S
In143 O155 2.326 . S
O144 In143 2.294 . S
O144 C153 1.240 . S
O145 In143 2.326 . S
O145 C153 1.252 . S
C146 O149 1.252 . S
C146 O150 1.260 . S
C147 O154 1.240 . S
C147 O155 1.252 . S
C148 O151 1.252 . S
C148 O152 1.260 . S
O149 In143 2.266 . S
O149 C146 1.252 . S
O150 In143 2.326 . S
O150 C146 1.260 . S
O151 In143 2.266 . S
O151 C148 1.252 . S
O152 In143 2.326 . S
O152 C148 1.260 . S
C153 O144 1.240 . S
C153 O145 1.252 . S
O154 In143 2.294 . S
O154 C147 1.240 . S
O155 In143 2.326 . S
O155 C147 1.252 . S
In156 O157 2.294 . S
In156 O158 2.326 . S
In156 O162 2.266 . S
In156 O163 2.326 . S
In156 O164 2.266 . S
In156 O165 2.326 . S
In156 O167 2.294 . S
In156 O168 2.326 . S
O157 In156 2.294 . S
O157 C166 1.240 . S
O158 In156 2.326 . S
O158 C166 1.252 . S
C159 O162 1.252 . S
C159 O163 1.260 . S
C160 O167 1.240 . S
C160 O168 1.252 . S
C161 O164 1.252 . S
C161 O165 1.260 . S
O162 In156 2.266 . S
O162 C159 1.252 . S
O163 In156 2.326 . S
O163 C159 1.260 . S
O164 In156 2.266 . S
O164 C161 1.252 . S
O165 In156 2.326 . S
O165 C161 1.260 . S
C166 O157 1.240 . S
C166 O158 1.252 . S
O167 In156 2.294 . S
O167 C160 1.240 . S
O168 In156 2.326 . S
O168 C160 1.252 . S
In169 O170 2.294 . S
In169 O171 2.326 . S
In169 O175 2.266 . S
In169 O176 2.326 . S
In169 O177 2.266 . S
In169 O178 2.326 . S
In169 O180 2.294 . S
In169 O181 2.326 . S
O170 In169 2.294 . S
O170 C179 1.240 . S
O171 In169 2.326 . S
O171 C179 1.252 . S
C172 O175 1.252 . S
C172 O176 1.260 . S
C173 O180 1.240 . S
C173 O181 1.252 . S
C174 O177 1.252 . S
C174 O178 1.260 . S
O175 In169 2.266 . S
O175 C172 1.252 . S
O176 In169 2.326 . S
O176 C172 1.260 . S
O177 In169 2.266 . S
O177 C174 1.252 . S
O178 In169 2.326 . S
O178 C174 1.260 . S
C179 O170 1.240 . S
C179 O171 1.252 . S
O180 In169 2.294 . S
O180 C173 1.240 . S
O181 In169 2.326 . S
O181 C173 1.252 . S
In182 O183 2.294 . S
In182 O184 2.326 . S
In182 O188 2.266 . S
In182 O189 2.326 . S
In182 O190 2.266 . S
In182 O191 2.326 . S
In182 O193 2.294 . S
In182 O194 2.326 . S
O183 In182 2.294 . S
O183 C192 1.240 . S
O184 In182 2.326 . S
O184 C192 1.252 . S
C185 O188 1.252 . S
C185 O189 1.260 . S
C186 O193 1.240 . S
C186 O194 1.252 . S
C187 O190 1.252 . S
C187 O191 1.260 . S
O188 In182 2.266 . S
O188 C185 1.252 . S
O189 In182 2.326 . S
O189 C185 1.260 . S
O190 In182 2.266 . S
O190 C187 1.252 . S
O191 In182 2.326 . S
O191 C187 1.260 . S
C192 O183 1.240 . S
C192 O184 1.252 . S
O193 In182 2.294 . S
O193 C186 1.240 . S
O194 In182 2.326 . S
O194 C186 1.252 . S
In195 O196 2.294 . S
In195 O197 2.326 . S
In195 O201 2.266 . S
In195 O202 2.326 . S
In195 O203 2.266 . S
In195 O204 2.326 . S
In195 O206 2.294 . S
In195 O207 2.326 . S
O196 In195 2.294 . S
O196 C205 1.240 . S
O197 In195 2.326 . S
O197 C205 1.252 . S
C198 O201 1.252 . S
C198 O202 1.260 . S
C199 O206 1.240 . S
C199 O207 1.252 . S
C200 O203 1.252 . S
C200 O204 1.260 . S
O201 In195 2.266 . S
O201 C198 1.252 . S
O202 In195 2.326 . S
O202 C198 1.260 . S
O203 In195 2.266 . S
O203 C200 1.252 . S
O204 In195 2.326 . S
O204 C200 1.260 . S
C205 O196 1.240 . S
C205 O197 1.252 . S
O206 In195 2.294 . S
O206 C199 1.240 . S
O207 In195 2.326 . S
O207 C199 1.252 . S
In208 O209 2.294 . S
In208 O210 2.326 . S
In208 O214 2.266 . S
In208 O215 2.326 . S
In208 O216 2.266 . S
In208 O217 2.326 . S
In208 O219 2.294 . S
In208 O220 2.326 . S
O209 In208 2.294 . S
O209 C218 1.240 . S
O210 In208 2.326 . S
O210 C218 1.252 . S
C211 O214 1.252 . S
C211 O215 1.260 . S
C212 O219 1.240 . S
C212 O220 1.252 . S
C213 O216 1.252 . S
C213 O217 1.260 . S
O214 In208 2.266 . S
O214 C211 1.252 . S
O215 In208 2.326 . S
O215 C211 1.260 . S
O216 In208 2.266 . S
O216 C213 1.252 . S
O217 In208 2.326 . S
O217 C213 1.260 . S
C218 O209 1.240 . S
C218 O210 1.252 . S
O219 In208 2.294 . S
O219 C212 1.240 . S
O220 In208 2.326 . S
O220 C212 1.252 . S
In221 O222 2.294 . S
In221 O223 2.326 . S
In221 O227 2.266 . S
In221 O228 2.326 . S
In221 O229 2.266 . S
In221 O230 2.326 . S
In221 O232 2.294 . S
In221 O233 2.326 . S
O222 In221 2.294 . S
O222 C231 1.240 . S
O223 In221 2.326 . S
O223 C231 1.252 . S
C224 O227 1.252 . S
C224 O228 1.260 . S
C225 O232 1.240 . S
C225 O233 1.252 . S
C226 O229 1.252 . S
C226 O230 1.260 . S
O227 In221 2.266 . S
O227 C224 1.252 . S
O228 In221 2.326 . S
O228 C224 1.260 . S
O229 In221 2.266 . S
O229 C226 1.252 . S
O230 In221 2.326 . S
O230 C226 1.260 . S
C231 O222 1.240 . S
C231 O223 1.252 . S
O232 In221 2.294 . S
O232 C225 1.240 . S
O233 In221 2.326 . S
O233 C225 1.252 . S
In234 O235 2.294 . S
In234 O236 2.326 . S
In234 O240 2.266 . S
In234 O241 2.326 . S
In234 O242 2.266 . S
In234 O243 2.326 . S
In234 O245 2.294 . S
In234 O246 2.326 . S
O235 In234 2.294 . S
O235 C244 1.240 . S
O236 In234 2.326 . S
O236 C244 1.252 . S
C237 O240 1.252 . S
C237 O241 1.260 . S
C238 O245 1.240 . S
C238 O246 1.252 . S
C239 O242 1.252 . S
C239 O243 1.260 . S
O240 In234 2.266 . S
O240 C237 1.252 . S
O241 In234 2.326 . S
O241 C237 1.260 . S
O242 In234 2.266 . S
O242 C239 1.252 . S
O243 In234 2.326 . S
O243 C239 1.260 . S
C244 O235 1.240 . S
C244 O236 1.252 . S
O245 In234 2.294 . S
O245 C238 1.240 . S
O246 In234 2.326 . S
O246 C238 1.252 . S
In247 O248 2.294 . S
In247 O249 2.326 . S
In247 O253 2.266 . S
In247 O254 2.326 . S
In247 O255 2.266 . S
In247 O256 2.326 . S
In247 O258 2.294 . S
In247 O259 2.326 . S
O248 In247 2.294 . S
O248 C257 1.240 . S
O249 In247 2.326 . S
O249 C257 1.252 . S
C250 O253 1.252 . S
C250 O254 1.260 . S
C251 O258 1.240 . S
C251 O259 1.252 . S
C252 O255 1.252 . S
C252 O256 1.260 . S
O253 In247 2.266 . S
O253 C250 1.252 . S
O254 In247 2.326 . S
O254 C250 1.260 . S
O255 In247 2.266 . S
O255 C252 1.252 . S
O256 In247 2.326 . S
O256 C252 1.260 . S
C257 O248 1.240 . S
C257 O249 1.252 . S
O258 In247 2.294 . S
O258 C251 1.240 . S
O259 In247 2.326 . S
O259 C251 1.252 . S
In260 O261 2.294 . S
In260 O262 2.326 . S
In260 O266 2.266 . S
In260 O267 2.326 . S
In260 O268 2.266 . S
In260 O269 2.326 . S
In260 O271 2.294 . S
In260 O272 2.326 . S
O261 In260 2.294 . S
O261 C270 1.240 . S
O262 In260 2.326 . S
O262 C270 1.252 . S
C263 O266 1.252 . S
C263 O267 1.260 . S
C264 O271 1.240 . S
C264 O272 1.252 . S
C265 O268 1.252 . S
C265 O269 1.260 . S
O266 In260 2.266 . S
O266 C263 1.252 . S
O267 In260 2.326 . S
O267 C263 1.260 . S
O268 In260 2.266 . S
O268 C265 1.252 . S
O269 In260 2.326 . S
O269 C265 1.260 . S
C270 O261 1.240 . S
C270 O262 1.252 . S
O271 In260 2.294 . S
O271 C264 1.240 . S
O272 In260 2.326 . S
O272 C264 1.252 . S
In273 O274 2.294 . S
In273 O275 2.326 . S
In273 O279 2.266 . S
In273 O280 2.326 . S
In273 O281 2.266 . S
In273 O282 2.326 . S
In273 O284 2.294 . S
In273 O285 2.326 . S
O274 In273 2.294 . S
O274 C283 1.240 . S
O275 In273 2.326 . S
O275 C283 1.252 . S
C276 O279 1.252 . S
C276 O280 1.260 . S
C277 O284 1.240 . S
C277 O285 1.252 . S
C278 O281 1.252 . S
C278 O282 1.260 . S
O279 In273 2.266 . S
O279 C276 1.252 . S
O280 In273 2.326 . S
O280 C276 1.260 . S
O281 In273 2.266 . S
O281 C278 1.252 . S
O282 In273 2.326 . S
O282 C278 1.260 . S
C283 O274 1.240 . S
C283 O275 1.252 . S
O284 In273 2.294 . S
O284 C277 1.240 . S
O285 In273 2.326 . S
O285 C277 1.252 . S
In286 O287 2.294 . S
In286 O288 2.326 . S
In286 O292 2.266 . S
In286 O293 2.326 . S
In286 O294 2.266 . S
In286 O295 2.326 . S
In286 O297 2.294 . S
In286 O298 2.326 . S
O287 In286 2.294 . S
O287 C296 1.240 . S
O288 In286 2.326 . S
O288 C296 1.252 . S
C289 O292 1.252 . S
C289 O293 1.260 . S
C290 O297 1.240 . S
C290 O298 1.252 . S
C291 O294 1.252 . S
C291 O295 1.260 . S
O292 In286 2.266 . S
O292 C289 1.252 . S
O293 In286 2.326 . S
O293 C289 1.260 . S
O294 In286 2.266 . S
O294 C291 1.252 . S
O295 In286 2.326 . S
O295 C291 1.260 . S
C296 O287 1.240 . S
C296 O288 1.252 . S
O297 In286 2.294 . S
O297 C290 1.240 . S
O298 In286 2.326 . S
O298 C290 1.252 . S
In299 O300 2.294 . S
In299 O301 2.326 . S
In299 O305 2.266 . S
In299 O306 2.326 . S
In299 O307 2.266 . S
In299 O308 2.326 . S
In299 O310 2.294 . S
In299 O311 2.326 . S
O300 In299 2.294 . S
O300 C309 1.240 . S
O301 In299 2.326 . S
O301 C309 1.252 . S
C302 O305 1.252 . S
C302 O306 1.260 . S
C303 O310 1.240 . S
C303 O311 1.252 . S
C304 O307 1.252 . S
C304 O308 1.260 . S
O305 In299 2.266 . S
O305 C302 1.252 . S
O306 In299 2.326 . S
O306 C302 1.260 . S
O307 In299 2.266 . S
O307 C304 1.252 . S
O308 In299 2.326 . S
O308 C304 1.260 . S
C309 O300 1.240 . S
C309 O301 1.252 . S
O310 In299 2.294 . S
O310 C303 1.240 . S
O311 In299 2.326 . S
O311 C303 1.252 . S
C312 C313 1.363 . S
C312 C318 1.379 . S
C312 N320 1.356 . S
C313 C312 1.363 . S
C313 C319 1.363 . S
C314 C315 1.363 . S
C314 C319 1.379 . S
C314 N321 1.356 . S
C315 C314 1.363 . S
C315 C318 1.363 . S
N316 C318 1.356 . S
N316 H328 0.984 . S
N316 H329 0.985 . S
N317 C319 1.356 . S
N317 H322 0.984 . S
N317 H323 0.985 . S
C318 C312 1.379 . S
C318 C315 1.363 . S
C318 N316 1.356 . S
C319 C313 1.363 . S
C319 C314 1.379 . S
C319 N317 1.356 . S
N320 C312 1.356 . S
N320 H326 0.984 . S
N320 H327 0.984 . S
N321 C314 1.356 . S
N321 H324 0.984 . S
N321 H325 0.985 . S
H322 N317 0.984 . S
H323 N317 0.985 . S
H324 N321 0.984 . S
H325 N321 0.985 . S
H326 N320 0.984 . S
H327 N320 0.984 . S
H328 N316 0.984 . S
H329 N316 0.985 . S
C330 C331 1.363 . S
C330 C336 1.379 . S
C330 N338 1.356 . S
C331 C330 1.363 . S
C331 C337 1.363 . S
C332 C333 1.363 . S
C332 C337 1.379 . S
C332 N339 1.356 . S
C333 C332 1.363 . S
C333 C336 1.363 . S
N334 C336 1.356 . S
N334 H346 0.984 . S
N334 H347 0.985 . S
N335 C337 1.356 . S
N335 H340 0.984 . S
N335 H341 0.985 . S
C336 C330 1.379 . S
C336 C333 1.363 . S
C336 N334 1.356 . S
C337 C331 1.363 . S
C337 C332 1.379 . S
C337 N335 1.356 . S
N338 C330 1.356 . S
N338 H344 0.984 . S
N338 H345 0.984 . S
N339 C332 1.356 . S
N339 H342 0.984 . S
N339 H343 0.985 . S
H340 N335 0.984 . S
H341 N335 0.985 . S
H342 N339 0.984 . S
H343 N339 0.985 . S
H344 N338 0.984 . S
H345 N338 0.984 . S
H346 N334 0.984 . S
H347 N334 0.985 . S
C348 C349 1.363 . S
C348 C354 1.379 . S
C348 N356 1.356 . S
C349 C348 1.363 . S
C349 C355 1.363 . S
C350 C351 1.363 . S
C350 C355 1.379 . S
C350 N357 1.356 . S
C351 C350 1.363 . S
C351 C354 1.363 . S
N352 C354 1.356 . S
N352 H364 0.984 . S
N352 H365 0.985 . S
N353 C355 1.356 . S
N353 H358 0.984 . S
N353 H359 0.985 . S
C354 C348 1.379 . S
C354 C351 1.363 . S
C354 N352 1.356 . S
C355 C349 1.363 . S
C355 C350 1.379 . S
C355 N353 1.356 . S
N356 C348 1.356 . S
N356 H362 0.984 . S
N356 H363 0.984 . S
N357 C350 1.356 . S
N357 H360 0.984 . S
N357 H361 0.985 . S
H358 N353 0.984 . S
H359 N353 0.985 . S
H360 N357 0.984 . S
H361 N357 0.985 . S
H362 N356 0.984 . S
H363 N356 0.984 . S
H364 N352 0.984 . S
H365 N352 0.985 . S
C366 C367 1.363 . S
C366 C372 1.379 . S
C366 N374 1.356 . S
C367 C366 1.363 . S
C367 C373 1.363 . S
C368 C369 1.363 . S
C368 C373 1.379 . S
C368 N375 1.356 . S
C369 C368 1.363 . S
C369 C372 1.363 . S
N370 C372 1.356 . S
N370 H382 0.984 . S
N370 H383 0.985 . S
N371 C373 1.356 . S
N371 H376 0.984 . S
N371 H377 0.985 . S
C372 C366 1.379 . S
C372 C369 1.363 . S
C372 N370 1.356 . S
C373 C367 1.363 . S
C373 C368 1.379 . S
C373 N371 1.356 . S
N374 C366 1.356 . S
N374 H380 0.984 . S
N374 H381 0.984 . S
N375 C368 1.356 . S
N375 H378 0.984 . S
N375 H379 0.985 . S
H376 N371 0.984 . S
H377 N371 0.985 . S
H378 N375 0.984 . S
H379 N375 0.985 . S
H380 N374 0.984 . S
H381 N374 0.984 . S
H382 N370 0.984 . S
H383 N370 0.985 . S
C384 C385 1.363 . S
C384 C390 1.379 . S
C384 N392 1.356 . S
C385 C384 1.363 . S
C385 C391 1.363 . S
C386 C387 1.363 . S
C386 C391 1.379 . S
C386 N393 1.356 . S
C387 C386 1.363 . S
C387 C390 1.363 . S
N388 C390 1.356 . S
N388 H400 0.984 . S
N388 H401 0.985 . S
N389 C391 1.356 . S
N389 H394 0.984 . S
N389 H395 0.985 . S
C390 C384 1.379 . S
C390 C387 1.363 . S
C390 N388 1.356 . S
C391 C385 1.363 . S
C391 C386 1.379 . S
C391 N389 1.356 . S
N392 C384 1.356 . S
N392 H398 0.984 . S
N392 H399 0.984 . S
N393 C386 1.356 . S
N393 H396 0.984 . S
N393 H397 0.985 . S
H394 N389 0.984 . S
H395 N389 0.985 . S
H396 N393 0.984 . S
H397 N393 0.985 . S
H398 N392 0.984 . S
H399 N392 0.984 . S
H400 N388 0.984 . S
H401 N388 0.985 . S
C402 C403 1.363 . S
C402 C408 1.379 . S
C402 N410 1.356 . S
C403 C402 1.363 . S
C403 C409 1.363 . S
C404 C405 1.363 . S
C404 C409 1.379 . S
C404 N411 1.356 . S
C405 C404 1.363 . S
C405 C408 1.363 . S
N406 C408 1.356 . S
N406 H418 0.984 . S
N406 H419 0.985 . S
N407 C409 1.356 . S
N407 H412 0.984 . S
N407 H413 0.985 . S
C408 C402 1.379 . S
C408 C405 1.363 . S
C408 N406 1.356 . S
C409 C403 1.363 . S
C409 C404 1.379 . S
C409 N407 1.356 . S
N410 C402 1.356 . S
N410 H416 0.984 . S
N410 H417 0.984 . S
N411 C404 1.356 . S
N411 H414 0.984 . S
N411 H415 0.985 . S
H412 N407 0.984 . S
H413 N407 0.985 . S
H414 N411 0.984 . S
H415 N411 0.985 . S
H416 N410 0.984 . S
H417 N410 0.984 . S
H418 N406 0.984 . S
H419 N406 0.985 . S
C420 C421 1.363 . S
C420 C426 1.379 . S
C420 N428 1.356 . S
C421 C420 1.363 . S
C421 C427 1.363 . S
C422 C423 1.363 . S
C422 C427 1.379 . S
C422 N429 1.356 . S
C423 C422 1.363 . S
C423 C426 1.363 . S
N424 C426 1.356 . S
N424 H436 0.984 . S
N424 H437 0.985 . S
N425 C427 1.356 . S
N425 H430 0.984 . S
N425 H431 0.985 . S
C426 C420 1.379 . S
C426 C423 1.363 . S
C426 N424 1.356 . S
C427 C421 1.363 . S
C427 C422 1.379 . S
C427 N425 1.356 . S
N428 C420 1.356 . S
N428 H434 0.984 . S
N428 H435 0.984 . S
N429 C422 1.356 . S
N429 H432 0.984 . S
N429 H433 0.985 . S
H430 N425 0.984 . S
H431 N425 0.985 . S
H432 N429 0.984 . S
H433 N429 0.985 . S
H434 N428 0.984 . S
H435 N428 0.984 . S
H436 N424 0.984 . S
H437 N424 0.985 . S
C438 C439 1.363 . S
C438 C444 1.379 . S
C438 N446 1.356 . S
C439 C438 1.363 . S
C439 C445 1.363 . S
C440 C441 1.363 . S
C440 C445 1.379 . S
C440 N447 1.356 . S
C441 C440 1.363 . S
C441 C444 1.363 . S
N442 C444 1.356 . S
N442 H454 0.984 . S
N442 H455 0.985 . S
N443 C445 1.356 . S
N443 H448 0.984 . S
N443 H449 0.985 . S
C444 C438 1.379 . S
C444 C441 1.363 . S
C444 N442 1.356 . S
C445 C439 1.363 . S
C445 C440 1.379 . S
C445 N443 1.356 . S
N446 C438 1.356 . S
N446 H452 0.984 . S
N446 H453 0.984 . S
N447 C440 1.356 . S
N447 H450 0.984 . S
N447 H451 0.985 . S
H448 N443 0.984 . S
H449 N443 0.985 . S
H450 N447 0.984 . S
H451 N447 0.985 . S
H452 N446 0.984 . S
H453 N446 0.984 . S
H454 N442 0.984 . S
H455 N442 0.985 . S
C456 C457 1.363 . S
C456 C462 1.379 . S
C456 N464 1.356 . S
C457 C456 1.363 . S
C457 C463 1.363 . S
C458 C459 1.363 . S
C458 C463 1.379 . S
C458 N465 1.356 . S
C459 C458 1.363 . S
C459 C462 1.363 . S
N460 C462 1.356 . S
N460 H472 0.984 . S
N460 H473 0.985 . S
N461 C463 1.356 . S
N461 H466 0.984 . S
N461 H467 0.985 . S
C462 C456 1.379 . S
C462 C459 1.363 . S
C462 N460 1.356 . S
C463 C457 1.363 . S
C463 C458 1.379 . S
C463 N461 1.356 . S
N464 C456 1.356 . S
N464 H470 0.984 . S
N464 H471 0.984 . S
N465 C458 1.356 . S
N465 H468 0.984 . S
N465 H469 0.985 . S
H466 N461 0.984 . S
H467 N461 0.985 . S
H468 N465 0.984 . S
H469 N465 0.985 . S
H470 N464 0.984 . S
H471 N464 0.984 . S
H472 N460 0.984 . S
H473 N460 0.985 . S
C474 C475 1.363 . S
C474 C480 1.379 . S
C474 N482 1.356 . S
C475 C474 1.363 . S
C475 C481 1.363 . S
C476 C477 1.363 . S
C476 C481 1.379 . S
C476 N483 1.356 . S
C477 C476 1.363 . S
C477 C480 1.363 . S
N478 C480 1.356 . S
N478 H490 0.984 . S
N478 H491 0.985 . S
N479 C481 1.356 . S
N479 H484 0.984 . S
N479 H485 0.985 . S
C480 C474 1.379 . S
C480 C477 1.363 . S
C480 N478 1.356 . S
C481 C475 1.363 . S
C481 C476 1.379 . S
C481 N479 1.356 . S
N482 C474 1.356 . S
N482 H488 0.984 . S
N482 H489 0.984 . S
N483 C476 1.356 . S
N483 H486 0.984 . S
N483 H487 0.985 . S
H484 N479 0.984 . S
H485 N479 0.985 . S
H486 N483 0.984 . S
H487 N483 0.985 . S
H488 N482 0.984 . S
H489 N482 0.984 . S
H490 N478 0.984 . S
H491 N478 0.985 . S
C492 C493 1.363 . S
C492 C498 1.379 . S
C492 N500 1.356 . S
C493 C492 1.363 . S
C493 C499 1.363 . S
C494 C495 1.363 . S
C494 C499 1.379 . S
C494 N501 1.356 . S
C495 C494 1.363 . S
C495 C498 1.363 . S
N496 C498 1.356 . S
N496 H508 0.984 . S
N496 H509 0.985 . S
N497 C499 1.356 . S
N497 H502 0.984 . S
N497 H503 0.985 . S
C498 C492 1.379 . S
C498 C495 1.363 . S
C498 N496 1.356 . S
C499 C493 1.363 . S
C499 C494 1.379 . S
C499 N497 1.356 . S
N500 C492 1.356 . S
N500 H506 0.984 . S
N500 H507 0.984 . S
N501 C494 1.356 . S
N501 H504 0.984 . S
N501 H505 0.985 . S
H502 N497 0.984 . S
H503 N497 0.985 . S
H504 N501 0.984 . S
H505 N501 0.985 . S
H506 N500 0.984 . S
H507 N500 0.984 . S
H508 N496 0.984 . S
H509 N496 0.985 . S
C510 C511 1.363 . S
C510 C516 1.379 . S
C510 N518 1.356 . S
C511 C510 1.363 . S
C511 C517 1.363 . S
C512 C513 1.363 . S
C512 C517 1.379 . S
C512 N519 1.356 . S
C513 C512 1.363 . S
C513 C516 1.363 . S
N514 C516 1.356 . S
N514 H526 0.984 . S
N514 H527 0.985 . S
N515 C517 1.356 . S
N515 H520 0.984 . S
N515 H521 0.985 . S
C516 C510 1.379 . S
C516 C513 1.363 . S
C516 N514 1.356 . S
C517 C511 1.363 . S
C517 C512 1.379 . S
C517 N515 1.356 . S
N518 C510 1.356 . S
N518 H524 0.984 . S
N518 H525 0.984 . S
N519 C512 1.356 . S
N519 H522 0.984 . S
N519 H523 0.985 . S
H520 N515 0.984 . S
H521 N515 0.985 . S
H522 N519 0.984 . S
H523 N519 0.985 . S
H524 N518 0.984 . S
H525 N518 0.984 . S
H526 N514 0.984 . S
H527 N514 0.985 . S
C528 C529 1.363 . S
C528 C534 1.379 . S
C528 N536 1.356 . S
C529 C528 1.363 . S
C529 C535 1.363 . S
C530 C531 1.363 . S
C530 C535 1.379 . S
C530 N537 1.356 . S
C531 C530 1.363 . S
C531 C534 1.363 . S
N532 C534 1.356 . S
N532 H544 0.984 . S
N532 H545 0.985 . S
N533 C535 1.356 . S
N533 H538 0.984 . S
N533 H539 0.985 . S
C534 C528 1.379 . S
C534 C531 1.363 . S
C534 N532 1.356 . S
C535 C529 1.363 . S
C535 C530 1.379 . S
C535 N533 1.356 . S
N536 C528 1.356 . S
N536 H542 0.984 . S
N536 H543 0.984 . S
N537 C530 1.356 . S
N537 H540 0.984 . S
N537 H541 0.985 . S
H538 N533 0.984 . S
H539 N533 0.985 . S
H540 N537 0.984 . S
H541 N537 0.985 . S
H542 N536 0.984 . S
H543 N536 0.984 . S
H544 N532 0.984 . S
H545 N532 0.985 . S
C546 C547 1.363 . S
C546 C552 1.379 . S
C546 N554 1.356 . S
C547 C546 1.363 . S
C547 C553 1.363 . S
C548 C549 1.363 . S
C548 C553 1.379 . S
C548 N555 1.356 . S
C549 C548 1.363 . S
C549 C552 1.363 . S
N550 C552 1.356 . S
N550 H562 0.984 . S
N550 H563 0.985 . S
N551 C553 1.356 . S
N551 H556 0.984 . S
N551 H557 0.985 . S
C552 C546 1.379 . S
C552 C549 1.363 . S
C552 N550 1.356 . S
C553 C547 1.363 . S
C553 C548 1.379 . S
C553 N551 1.356 . S
N554 C546 1.356 . S
N554 H560 0.984 . S
N554 H561 0.984 . S
N555 C548 1.356 . S
N555 H558 0.984 . S
N555 H559 0.985 . S
H556 N551 0.984 . S
H557 N551 0.985 . S
H558 N555 0.984 . S
H559 N555 0.985 . S
H560 N554 0.984 . S
H561 N554 0.984 . S
H562 N550 0.984 . S
H563 N550 0.985 . S
C564 C565 1.363 . S
C564 C570 1.379 . S
C564 N572 1.356 . S
C565 C564 1.363 . S
C565 C571 1.363 . S
C566 C567 1.363 . S
C566 C571 1.379 . S
C566 N573 1.356 . S
C567 C566 1.363 . S
C567 C570 1.363 . S
N568 C570 1.356 . S
N568 H580 0.984 . S
N568 H581 0.985 . S
N569 C571 1.356 . S
N569 H574 0.984 . S
N569 H575 0.985 . S
C570 C564 1.379 . S
C570 C567 1.363 . S
C570 N568 1.356 . S
C571 C565 1.363 . S
C571 C566 1.379 . S
C571 N569 1.356 . S
N572 C564 1.356 . S
N572 H578 0.984 . S
N572 H579 0.984 . S
N573 C566 1.356 . S
N573 H576 0.984 . S
N573 H577 0.985 . S
H574 N569 0.984 . S
H575 N569 0.985 . S
H576 N573 0.984 . S
H577 N573 0.985 . S
H578 N572 0.984 . S
H579 N572 0.984 . S
H580 N568 0.984 . S
H581 N568 0.985 . S
C582 C583 1.363 . S
C582 C588 1.379 . S
C582 N590 1.356 . S
C583 C582 1.363 . S
C583 C589 1.363 . S
C584 C585 1.363 . S
C584 C589 1.379 . S
C584 N591 1.356 . S
C585 C584 1.363 . S
C585 C588 1.363 . S
N586 C588 1.356 . S
N586 H598 0.984 . S
N586 H599 0.985 . S
N587 C589 1.356 . S
N587 H592 0.984 . S
N587 H593 0.985 . S
C588 C582 1.379 . S
C588 C585 1.363 . S
C588 N586 1.356 . S
C589 C583 1.363 . S
C589 C584 1.379 . S
C589 N587 1.356 . S
N590 C582 1.356 . S
N590 H596 0.984 . S
N590 H597 0.984 . S
N591 C584 1.356 . S
N591 H594 0.984 . S
N591 H595 0.985 . S
H592 N587 0.984 . S
H593 N587 0.985 . S
H594 N591 0.984 . S
H595 N591 0.985 . S
H596 N590 0.984 . S
H597 N590 0.984 . S
H598 N586 0.984 . S
H599 N586 0.985 . S
C600 C601 1.363 . S
C600 C606 1.379 . S
C600 N608 1.356 . S
C601 C600 1.363 . S
C601 C607 1.363 . S
C602 C603 1.363 . S
C602 C607 1.379 . S
C602 N609 1.356 . S
C603 C602 1.363 . S
C603 C606 1.363 . S
N604 C606 1.356 . S
N604 H616 0.984 . S
N604 H617 0.985 . S
N605 C607 1.356 . S
N605 H610 0.984 . S
N605 H611 0.985 . S
C606 C600 1.379 . S
C606 C603 1.363 . S
C606 N604 1.356 . S
C607 C601 1.363 . S
C607 C602 1.379 . S
C607 N605 1.356 . S
N608 C600 1.356 . S
N608 H614 0.984 . S
N608 H615 0.984 . S
N609 C602 1.356 . S
N609 H612 0.984 . S
N609 H613 0.985 . S
H610 N605 0.984 . S
H611 N605 0.985 . S
H612 N609 0.984 . S
H613 N609 0.985 . S
H614 N608 0.984 . S
H615 N608 0.984 . S
H616 N604 0.984 . S
H617 N604 0.985 . S
C618 C619 1.363 . S
C618 C624 1.379 . S
C618 N626 1.356 . S
C619 C618 1.363 . S
C619 C625 1.363 . S
C620 C621 1.363 . S
C620 C625 1.379 . S
C620 N627 1.356 . S
C621 C620 1.363 . S
C621 C624 1.363 . S
N622 C624 1.356 . S
N622 H634 0.984 . S
N622 H635 0.985 . S
N623 C625 1.356 . S
N623 H628 0.984 . S
N623 H629 0.985 . S
C624 C618 1.379 . S
C624 C621 1.363 . S
C624 N622 1.356 . S
C625 C619 1.363 . S
C625 C620 1.379 . S
C625 N623 1.356 . S
N626 C618 1.356 . S
N626 H632 0.984 . S
N626 H633 0.984 . S
N627 C620 1.356 . S
N627 H630 0.984 . S
N627 H631 0.985 . S
H628 N623 0.984 . S
H629 N623 0.985 . S
H630 N627 0.984 . S
H631 N627 0.985 . S
H632 N626 0.984 . S
H633 N626 0.984 . S
H634 N622 0.984 . S
H635 N622 0.985 . S
C636 C637 1.363 . S
C636 C642 1.379 . S
C636 N644 1.356 . S
C637 C636 1.363 . S
C637 C643 1.363 . S
C638 C639 1.363 . S
C638 C643 1.379 . S
C638 N645 1.356 . S
C639 C638 1.363 . S
C639 C642 1.363 . S
N640 C642 1.356 . S
N640 H652 0.984 . S
N640 H653 0.985 . S
N641 C643 1.356 . S
N641 H646 0.984 . S
N641 H647 0.985 . S
C642 C636 1.379 . S
C642 C639 1.363 . S
C642 N640 1.356 . S
C643 C637 1.363 . S
C643 C638 1.379 . S
C643 N641 1.356 . S
N644 C636 1.356 . S
N644 H650 0.984 . S
N644 H651 0.984 . S
N645 C638 1.356 . S
N645 H648 0.984 . S
N645 H649 0.985 . S
H646 N641 0.984 . S
H647 N641 0.985 . S
H648 N645 0.984 . S
H649 N645 0.985 . S
H650 N644 0.984 . S
H651 N644 0.984 . S
H652 N640 0.984 . S
H653 N640 0.985 . S
C654 C655 1.363 . S
C654 C660 1.379 . S
C654 N662 1.356 . S
C655 C654 1.363 . S
C655 C661 1.363 . S
C656 C657 1.363 . S
C656 C661 1.379 . S
C656 N663 1.356 . S
C657 C656 1.363 . S
C657 C660 1.363 . S
N658 C660 1.356 . S
N658 H670 0.984 . S
N658 H671 0.985 . S
N659 C661 1.356 . S
N659 H664 0.984 . S
N659 H665 0.985 . S
C660 C654 1.379 . S
C660 C657 1.363 . S
C660 N658 1.356 . S
C661 C655 1.363 . S
C661 C656 1.379 . S
C661 N659 1.356 . S
N662 C654 1.356 . S
N662 H668 0.984 . S
N662 H669 0.984 . S
N663 C656 1.356 . S
N663 H666 0.984 . S
N663 H667 0.985 . S
H664 N659 0.984 . S
H665 N659 0.985 . S
H666 N663 0.984 . S
H667 N663 0.985 . S
H668 N662 0.984 . S
H669 N662 0.984 . S
H670 N658 0.984 . S
H671 N658 0.985 . S
C672 C673 1.363 . S
C672 C678 1.379 . S
C672 N680 1.356 . S
C673 C672 1.363 . S
C673 C679 1.363 . S
C674 C675 1.363 . S
C674 C679 1.379 . S
C674 N681 1.356 . S
C675 C674 1.363 . S
C675 C678 1.363 . S
N676 C678 1.356 . S
N676 H688 0.984 . S
N676 H689 0.985 . S
N677 C679 1.356 . S
N677 H682 0.984 . S
N677 H683 0.985 . S
C678 C672 1.379 . S
C678 C675 1.363 . S
C678 N676 1.356 . S
C679 C673 1.363 . S
C679 C674 1.379 . S
C679 N677 1.356 . S
N680 C672 1.356 . S
N680 H686 0.984 . S
N680 H687 0.984 . S
N681 C674 1.356 . S
N681 H684 0.984 . S
N681 H685 0.985 . S
H682 N677 0.984 . S
H683 N677 0.985 . S
H684 N681 0.984 . S
H685 N681 0.985 . S
H686 N680 0.984 . S
H687 N680 0.984 . S
H688 N676 0.984 . S
H689 N676 0.985 . S
C690 C691 1.363 . S
C690 C696 1.379 . S
C690 N698 1.356 . S
C691 C690 1.363 . S
C691 C697 1.363 . S
C692 C693 1.363 . S
C692 C697 1.379 . S
C692 N699 1.356 . S
C693 C692 1.363 . S
C693 C696 1.363 . S
N694 C696 1.356 . S
N694 H706 0.984 . S
N694 H707 0.985 . S
N695 C697 1.356 . S
N695 H700 0.984 . S
N695 H701 0.985 . S
C696 C690 1.379 . S
C696 C693 1.363 . S
C696 N694 1.356 . S
C697 C691 1.363 . S
C697 C692 1.379 . S
C697 N695 1.356 . S
N698 C690 1.356 . S
N698 H704 0.984 . S
N698 H705 0.984 . S
N699 C692 1.356 . S
N699 H702 0.984 . S
N699 H703 0.985 . S
H700 N695 0.984 . S
H701 N695 0.985 . S
H702 N699 0.984 . S
H703 N699 0.985 . S
H704 N698 0.984 . S
H705 N698 0.984 . S
H706 N694 0.984 . S
H707 N694 0.985 . S
C708 C709 1.363 . S
C708 C714 1.379 . S
C708 N716 1.356 . S
C709 C708 1.363 . S
C709 C715 1.363 . S
C710 C711 1.363 . S
C710 C715 1.379 . S
C710 N717 1.356 . S
C711 C710 1.363 . S
C711 C714 1.363 . S
N712 C714 1.356 . S
N712 H724 0.984 . S
N712 H725 0.985 . S
N713 C715 1.356 . S
N713 H718 0.984 . S
N713 H719 0.985 . S
C714 C708 1.379 . S
C714 C711 1.363 . S
C714 N712 1.356 . S
C715 C709 1.363 . S
C715 C710 1.379 . S
C715 N713 1.356 . S
N716 C708 1.356 . S
N716 H722 0.984 . S
N716 H723 0.984 . S
N717 C710 1.356 . S
N717 H720 0.984 . S
N717 H721 0.985 . S
H718 N713 0.984 . S
H719 N713 0.985 . S
H720 N717 0.984 . S
H721 N717 0.985 . S
H722 N716 0.984 . S
H723 N716 0.984 . S
H724 N712 0.984 . S
H725 N712 0.985 . S
C726 C727 1.363 . S
C726 C732 1.379 . S
C726 N734 1.356 . S
C727 C726 1.363 . S
C727 C733 1.363 . S
C728 C729 1.363 . S
C728 C733 1.379 . S
C728 N735 1.356 . S
C729 C728 1.363 . S
C729 C732 1.363 . S
N730 C732 1.356 . S
N730 H742 0.984 . S
N730 H743 0.985 . S
N731 C733 1.356 . S
N731 H736 0.984 . S
N731 H737 0.985 . S
C732 C726 1.379 . S
C732 C729 1.363 . S
C732 N730 1.356 . S
C733 C727 1.363 . S
C733 C728 1.379 . S
C733 N731 1.356 . S
N734 C726 1.356 . S
N734 H740 0.984 . S
N734 H741 0.984 . S
N735 C728 1.356 . S
N735 H738 0.984 . S
N735 H739 0.985 . S
H736 N731 0.984 . S
H737 N731 0.985 . S
H738 N735 0.984 . S
H739 N735 0.985 . S
H740 N734 0.984 . S
H741 N734 0.984 . S
H742 N730 0.984 . S
H743 N730 0.985 . S
C744 C745 1.363 . S
C744 C750 1.379 1_455 S
C744 N752 1.356 . S
C745 C744 1.363 . S
C745 C751 1.363 . S
C746 C747 1.363 . S
C746 C751 1.379 1_655 S
C746 N753 1.356 . S
C747 C746 1.363 . S
C747 C750 1.363 . S
N748 C750 1.356 . S
N748 H760 0.984 . S
N748 H761 0.985 . S
N749 C751 1.356 . S
N749 H754 0.984 . S
N749 H755 0.985 . S
C750 C744 1.379 1_655 S
C750 C747 1.363 . S
C750 N748 1.356 . S
C751 C745 1.363 . S
C751 C746 1.379 1_455 S
C751 N749 1.356 . S
N752 C744 1.356 . S
N752 H758 0.984 . S
N752 H759 0.984 . S
N753 C746 1.356 . S
N753 H756 0.984 . S
N753 H757 0.985 . S
H754 N749 0.984 . S
H755 N749 0.985 . S
H756 N753 0.984 . S
H757 N753 0.985 . S
H758 N752 0.984 . S
H759 N752 0.984 . S
H760 N748 0.984 . S
H761 N748 0.985 . S
C762 C763 1.363 . S
C762 C768 1.379 1_545 S
C762 N770 1.356 . S
C763 C762 1.363 . S
C763 C769 1.363 . S
C764 C765 1.363 . S
C764 C769 1.379 1_565 S
C764 N771 1.356 . S
C765 C764 1.363 . S
C765 C768 1.363 . S
N766 C768 1.356 . S
N766 H778 0.984 . S
N766 H779 0.985 . S
N767 C769 1.356 . S
N767 H772 0.984 . S
N767 H773 0.985 . S
C768 C762 1.379 1_565 S
C768 C765 1.363 . S
C768 N766 1.356 . S
C769 C763 1.363 . S
C769 C764 1.379 1_545 S
C769 N767 1.356 . S
N770 C762 1.356 . S
N770 H776 0.984 . S
N770 H777 0.984 . S
N771 C764 1.356 . S
N771 H774 0.984 . S
N771 H775 0.985 . S
H772 N767 0.984 . S
H773 N767 0.985 . S
H774 N771 0.984 . S
H775 N771 0.985 . S
H776 N770 0.984 . S
H777 N770 0.984 . S
H778 N766 0.984 . S
H779 N766 0.985 . S
C780 C781 1.363 . S
C780 C786 1.379 1_655 S
C780 N788 1.356 . S
C781 C780 1.363 . S
C781 C787 1.363 . S
C782 C783 1.363 . S
C782 C787 1.379 1_455 S
C782 N789 1.356 . S
C783 C782 1.363 . S
C783 C786 1.363 . S
N784 C786 1.356 . S
N784 H796 0.984 . S
N784 H797 0.985 . S
N785 C787 1.356 . S
N785 H790 0.984 . S
N785 H791 0.985 . S
C786 C780 1.379 1_455 S
C786 C783 1.363 . S
C786 N784 1.356 . S
C787 C781 1.363 . S
C787 C782 1.379 1_655 S
C787 N785 1.356 . S
N788 C780 1.356 . S
N788 H794 0.984 . S
N788 H795 0.984 . S
N789 C782 1.356 . S
N789 H792 0.984 . S
N789 H793 0.985 . S
H790 N785 0.984 . S
H791 N785 0.985 . S
H792 N789 0.984 . S
H793 N789 0.985 . S
H794 N788 0.984 . S
H795 N788 0.984 . S
H796 N784 0.984 . S
H797 N784 0.985 . S
C798 C799 1.363 . S
C798 C804 1.379 1_545 S
C798 N806 1.356 . S
C799 C798 1.363 . S
C799 C805 1.363 . S
C800 C801 1.363 . S
C800 C805 1.379 1_565 S
C800 N807 1.356 . S
C801 C800 1.363 . S
C801 C804 1.363 . S
N802 C804 1.356 . S
N802 H814 0.984 . S
N802 H815 0.985 . S
N803 C805 1.356 . S
N803 H808 0.984 . S
N803 H809 0.985 . S
C804 C798 1.379 1_565 S
C804 C801 1.363 . S
C804 N802 1.356 . S
C805 C799 1.363 . S
C805 C800 1.379 1_545 S
C805 N803 1.356 . S
N806 C798 1.356 . S
N806 H812 0.984 . S
N806 H813 0.984 . S
N807 C800 1.356 . S
N807 H810 0.984 . S
N807 H811 0.985 . S
H808 N803 0.984 . S
H809 N803 0.985 . S
H810 N807 0.984 . S
H811 N807 0.985 . S
H812 N806 0.984 . S
H813 N806 0.984 . S
H814 N802 0.984 . S
H815 N802 0.985 . S
C816 C817 1.363 . S
C816 C822 1.379 1_565 S
C816 N824 1.356 . S
C817 C816 1.363 . S
C817 C823 1.363 . S
C818 C819 1.363 . S
C818 C823 1.379 1_545 S
C818 N825 1.356 . S
C819 C818 1.363 . S
C819 C822 1.363 . S
N820 C822 1.356 . S
N820 H832 0.984 . S
N820 H833 0.985 . S
N821 C823 1.356 . S
N821 H826 0.984 . S
N821 H827 0.985 . S
C822 C816 1.379 1_545 S
C822 C819 1.363 . S
C822 N820 1.356 . S
C823 C817 1.363 . S
C823 C818 1.379 1_565 S
C823 N821 1.356 . S
N824 C816 1.356 . S
N824 H830 0.984 . S
N824 H831 0.984 . S
N825 C818 1.356 . S
N825 H828 0.984 . S
N825 H829 0.985 . S
H826 N821 0.984 . S
H827 N821 0.985 . S
H828 N825 0.984 . S
H829 N825 0.985 . S
H830 N824 0.984 . S
H831 N824 0.984 . S
H832 N820 0.984 . S
H833 N820 0.985 . S
C834 C835 1.363 . S
C834 C840 1.379 1_655 S
C834 N842 1.356 . S
C835 C834 1.363 . S
C835 C841 1.363 . S
C836 C837 1.363 . S
C836 C841 1.379 1_455 S
C836 N843 1.356 . S
C837 C836 1.363 . S
C837 C840 1.363 . S
N838 C840 1.356 . S
N838 H850 0.984 . S
N838 H851 0.985 . S
N839 C841 1.356 . S
N839 H844 0.984 . S
N839 H845 0.985 . S
C840 C834 1.379 1_455 S
C840 C837 1.363 . S
C840 N838 1.356 . S
C841 C835 1.363 . S
C841 C836 1.379 1_655 S
C841 N839 1.356 . S
N842 C834 1.356 . S
N842 H848 0.984 . S
N842 H849 0.984 . S
N843 C836 1.356 . S
N843 H846 0.984 . S
N843 H847 0.985 . S
H844 N839 0.984 . S
H845 N839 0.985 . S
H846 N843 0.984 . S
H847 N843 0.985 . S
H848 N842 0.984 . S
H849 N842 0.984 . S
H850 N838 0.984 . S
H851 N838 0.985 . S
C852 C853 1.363 . S
C852 C858 1.379 1_565 S
C852 N860 1.356 . S
C853 C852 1.363 . S
C853 C859 1.363 . S
C854 C855 1.363 . S
C854 C859 1.379 1_545 S
C854 N861 1.356 . S
C855 C854 1.363 . S
C855 C858 1.363 . S
N856 C858 1.356 . S
N856 H868 0.984 . S
N856 H869 0.985 . S
N857 C859 1.356 . S
N857 H862 0.984 . S
N857 H863 0.985 . S
C858 C852 1.379 1_545 S
C858 C855 1.363 . S
C858 N856 1.356 . S
C859 C853 1.363 . S
C859 C854 1.379 1_565 S
C859 N857 1.356 . S
N860 C852 1.356 . S
N860 H866 0.984 . S
N860 H867 0.984 . S
N861 C854 1.356 . S
N861 H864 0.984 . S
N861 H865 0.985 . S
H862 N857 0.984 . S
H863 N857 0.985 . S
H864 N861 0.984 . S
H865 N861 0.985 . S
H866 N860 0.984 . S
H867 N860 0.984 . S
H868 N856 0.984 . S
H869 N856 0.985 . S
C870 C871 1.363 . S
C870 C876 1.379 1_655 S
C870 N878 1.356 . S
C871 C870 1.363 . S
C871 C877 1.363 . S
C872 C873 1.363 . S
C872 C877 1.379 1_455 S
C872 N879 1.356 . S
C873 C872 1.363 . S
C873 C876 1.363 . S
N874 C876 1.356 . S
N874 H886 0.984 . S
N874 H887 0.985 . S
N875 C877 1.356 . S
N875 H880 0.984 . S
N875 H881 0.985 . S
C876 C870 1.379 1_455 S
C876 C873 1.363 . S
C876 N874 1.356 . S
C877 C871 1.363 . S
C877 C872 1.379 1_655 S
C877 N875 1.356 . S
N878 C870 1.356 . S
N878 H884 0.984 . S
N878 H885 0.984 . S
N879 C872 1.356 . S
N879 H882 0.984 . S
N879 H883 0.985 . S
H880 N875 0.984 . S
H881 N875 0.985 . S
H882 N879 0.984 . S
H883 N879 0.985 . S
H884 N878 0.984 . S
H885 N878 0.984 . S
H886 N874 0.984 . S
H887 N874 0.985 . S
C888 C889 1.363 . S
C888 C894 1.379 1_556 S
C888 N896 1.356 . S
C889 C888 1.363 . S
C889 C895 1.363 . S
C890 C891 1.363 . S
C890 C895 1.379 1_554 S
C890 N897 1.356 . S
C891 C890 1.363 . S
C891 C894 1.363 . S
N892 C894 1.356 . S
N892 H904 0.984 . S
N892 H905 0.985 . S
N893 C895 1.356 . S
N893 H898 0.984 . S
N893 H899 0.985 . S
C894 C888 1.379 1_554 S
C894 C891 1.363 . S
C894 N892 1.356 . S
C895 C889 1.363 . S
C895 C890 1.379 1_556 S
C895 N893 1.356 . S
N896 C888 1.356 . S
N896 H902 0.984 . S
N896 H903 0.984 . S
N897 C890 1.356 . S
N897 H900 0.984 . S
N897 H901 0.985 . S
H898 N893 0.984 . S
H899 N893 0.985 . S
H900 N897 0.984 . S
H901 N897 0.985 . S
H902 N896 0.984 . S
H903 N896 0.984 . S
H904 N892 0.984 . S
H905 N892 0.985 . S
C906 C907 1.363 . S
C906 C912 1.379 1_556 S
C906 N914 1.356 . S
C907 C906 1.363 . S
C907 C913 1.363 . S
C908 C909 1.363 . S
C908 C913 1.379 1_554 S
C908 N915 1.356 . S
C909 C908 1.363 . S
C909 C912 1.363 . S
N910 C912 1.356 . S
N910 H922 0.984 . S
N910 H923 0.985 . S
N911 C913 1.356 . S
N911 H916 0.984 . S
N911 H917 0.985 . S
C912 C906 1.379 1_554 S
C912 C909 1.363 . S
C912 N910 1.356 . S
C913 C907 1.363 . S
C913 C908 1.379 1_556 S
C913 N911 1.356 . S
N914 C906 1.356 . S
N914 H920 0.984 . S
N914 H921 0.984 . S
N915 C908 1.356 . S
N915 H918 0.984 . S
N915 H919 0.985 . S
H916 N911 0.984 . S
H917 N911 0.985 . S
H918 N915 0.984 . S
H919 N915 0.985 . S
H920 N914 0.984 . S
H921 N914 0.984 . S
H922 N910 0.984 . S
H923 N910 0.985 . S
C924 C925 1.363 . S
C924 C930 1.379 1_556 S
C924 N932 1.356 . S
C925 C924 1.363 . S
C925 C931 1.363 . S
C926 C927 1.363 . S
C926 C931 1.379 1_554 S
C926 N933 1.356 . S
C927 C926 1.363 . S
C927 C930 1.363 . S
N928 C930 1.356 . S
N928 H940 0.984 . S
N928 H941 0.985 . S
N929 C931 1.356 . S
N929 H934 0.984 . S
N929 H935 0.985 . S
C930 C924 1.379 1_554 S
C930 C927 1.363 . S
C930 N928 1.356 . S
C931 C925 1.363 . S
C931 C926 1.379 1_556 S
C931 N929 1.356 . S
N932 C924 1.356 . S
N932 H938 0.984 . S
N932 H939 0.984 . S
N933 C926 1.356 . S
N933 H936 0.984 . S
N933 H937 0.985 . S
H934 N929 0.984 . S
H935 N929 0.985 . S
H936 N933 0.984 . S
H937 N933 0.985 . S
H938 N932 0.984 . S
H939 N932 0.984 . S
H940 N928 0.984 . S
H941 N928 0.985 . S
C942 C943 1.363 . S
C942 C948 1.379 1_556 S
C942 N950 1.356 . S
C943 C942 1.363 . S
C943 C949 1.363 . S
C944 C945 1.363 . S
C944 C949 1.379 1_554 S
C944 N951 1.356 . S
C945 C944 1.363 . S
C945 C948 1.363 . S
N946 C948 1.356 . S
N946 H958 0.984 . S
N946 H959 0.985 . S
N947 C949 1.356 . S
N947 H952 0.984 . S
N947 H953 0.985 . S
C948 C942 1.379 1_554 S
C948 C945 1.363 . S
C948 N946 1.356 . S
C949 C943 1.363 . S
C949 C944 1.379 1_556 S
C949 N947 1.356 . S
N950 C942 1.356 . S
N950 H956 0.984 . S
N950 H957 0.984 . S
N951 C944 1.356 . S
N951 H954 0.984 . S
N951 H955 0.985 . S
H952 N947 0.984 . S
H953 N947 0.985 . S
H954 N951 0.984 . S
H955 N951 0.985 . S
H956 N950 0.984 . S
H957 N950 0.984 . S
H958 N946 0.984 . S
H959 N946 0.985 . S
C960 C961 1.363 . S
C960 C966 1.379 . S
C960 N968 1.356 . S
C961 C960 1.363 . S
C961 C967 1.363 . S
C962 C963 1.363 . S
C962 C967 1.379 . S
C962 N969 1.356 . S
C963 C962 1.363 . S
C963 C966 1.363 . S
N964 C966 1.356 . S
N964 H976 0.984 . S
N964 H977 0.985 . S
N965 C967 1.356 . S
N965 H970 0.984 . S
N965 H971 0.985 . S
C966 C960 1.379 . S
C966 C963 1.363 . S
C966 N964 1.356 . S
C967 C961 1.363 . S
C967 C962 1.379 . S
C967 N965 1.356 . S
N968 C960 1.356 . S
N968 H974 0.984 . S
N968 H975 0.984 . S
N969 C962 1.356 . S
N969 H972 0.984 . S
N969 H973 0.985 . S
H970 N965 0.984 . S
H971 N965 0.985 . S
H972 N969 0.984 . S
H973 N969 0.985 . S
H974 N968 0.984 . S
H975 N968 0.984 . S
H976 N964 0.984 . S
H977 N964 0.985 . S
C978 C979 1.363 . S
C978 C984 1.379 . S
C978 N986 1.356 . S
C979 C978 1.363 . S
C979 C985 1.363 . S
C980 C981 1.363 . S
C980 C985 1.379 . S
C980 N987 1.356 . S
C981 C980 1.363 . S
C981 C984 1.363 . S
N982 C984 1.356 . S
N982 H994 0.984 . S
N982 H995 0.985 . S
N983 C985 1.356 . S
N983 H988 0.984 . S
N983 H989 0.985 . S
C984 C978 1.379 . S
C984 C981 1.363 . S
C984 N982 1.356 . S
C985 C979 1.363 . S
C985 C980 1.379 . S
C985 N983 1.356 . S
N986 C978 1.356 . S
N986 H992 0.984 . S
N986 H993 0.984 . S
N987 C980 1.356 . S
N987 H990 0.984 . S
N987 H991 0.985 . S
H988 N983 0.984 . S
H989 N983 0.985 . S
H990 N987 0.984 . S
H991 N987 0.985 . S
H992 N986 0.984 . S
H993 N986 0.984 . S
H994 N982 0.984 . S
H995 N982 0.985 . S
C996 C997 1.363 . S
C996 C1002 1.379 . S
C996 N1004 1.356 . S
C997 C996 1.363 . S
C997 C1003 1.363 . S
C998 C999 1.363 . S
C998 C1003 1.379 . S
C998 N1005 1.356 . S
C999 C998 1.363 . S
C999 C1002 1.363 . S
N1000 C1002 1.356 . S
N1000 H1012 0.984 . S
N1000 H1013 0.985 . S
N1001 C1003 1.356 . S
N1001 H1006 0.984 . S
N1001 H1007 0.985 . S
C1002 C996 1.379 . S
C1002 C999 1.363 . S
C1002 N1000 1.356 . S
C1003 C997 1.363 . S
C1003 C998 1.379 . S
C1003 N1001 1.356 . S
N1004 C996 1.356 . S
N1004 H1010 0.984 . S
N1004 H1011 0.984 . S
N1005 C998 1.356 . S
N1005 H1008 0.984 . S
N1005 H1009 0.985 . S
H1006 N1001 0.984 . S
H1007 N1001 0.985 . S
H1008 N1005 0.984 . S
H1009 N1005 0.985 . S
H1010 N1004 0.984 . S
H1011 N1004 0.984 . S
H1012 N1000 0.984 . S
H1013 N1000 0.985 . S
C1014 C1015 1.363 . S
C1014 C1020 1.379 . S
C1014 N1022 1.356 . S
C1015 C1014 1.363 . S
C1015 C1021 1.363 . S
C1016 C1017 1.363 . S
C1016 C1021 1.379 . S
C1016 N1023 1.356 . S
C1017 C1016 1.363 . S
C1017 C1020 1.363 . S
N1018 C1020 1.356 . S
N1018 H1030 0.984 . S
N1018 H1031 0.985 . S
N1019 C1021 1.356 . S
N1019 H1024 0.984 . S
N1019 H1025 0.985 . S
C1020 C1014 1.379 . S
C1020 C1017 1.363 . S
C1020 N1018 1.356 . S
C1021 C1015 1.363 . S
C1021 C1016 1.379 . S
C1021 N1019 1.356 . S
N1022 C1014 1.356 . S
N1022 H1028 0.984 . S
N1022 H1029 0.984 . S
N1023 C1016 1.356 . S
N1023 H1026 0.984 . S
N1023 H1027 0.985 . S
H1024 N1019 0.984 . S
H1025 N1019 0.985 . S
H1026 N1023 0.984 . S
H1027 N1023 0.985 . S
H1028 N1022 0.984 . S
H1029 N1022 0.984 . S
H1030 N1018 0.984 . S
H1031 N1018 0.985 . S
C1032 C1033 1.363 . S
C1032 C1038 1.379 . S
C1032 N1040 1.356 . S
C1033 C1032 1.363 . S
C1033 C1039 1.363 . S
C1034 C1035 1.363 . S
C1034 C1039 1.379 . S
C1034 N1041 1.356 . S
C1035 C1034 1.363 . S
C1035 C1038 1.363 . S
N1036 C1038 1.356 . S
N1036 H1048 0.984 . S
N1036 H1049 0.985 . S
N1037 C1039 1.356 . S
N1037 H1042 0.984 . S
N1037 H1043 0.985 . S
C1038 C1032 1.379 . S
C1038 C1035 1.363 . S
C1038 N1036 1.356 . S
C1039 C1033 1.363 . S
C1039 C1034 1.379 . S
C1039 N1037 1.356 . S
N1040 C1032 1.356 . S
N1040 H1046 0.984 . S
N1040 H1047 0.984 . S
N1041 C1034 1.356 . S
N1041 H1044 0.984 . S
N1041 H1045 0.985 . S
H1042 N1037 0.984 . S
H1043 N1037 0.985 . S
H1044 N1041 0.984 . S
H1045 N1041 0.985 . S
H1046 N1040 0.984 . S
H1047 N1040 0.984 . S
H1048 N1036 0.984 . S
H1049 N1036 0.985 . S
C1050 C1051 1.363 . S
C1050 C1056 1.379 . S
C1050 N1058 1.356 . S
C1051 C1050 1.363 . S
C1051 C1057 1.363 . S
C1052 C1053 1.363 . S
C1052 C1057 1.379 . S
C1052 N1059 1.356 . S
C1053 C1052 1.363 . S
C1053 C1056 1.363 . S
N1054 C1056 1.356 . S
N1054 H1066 0.984 . S
N1054 H1067 0.985 . S
N1055 C1057 1.356 . S
N1055 H1060 0.984 . S
N1055 H1061 0.985 . S
C1056 C1050 1.379 . S
C1056 C1053 1.363 . S
C1056 N1054 1.356 . S
C1057 C1051 1.363 . S
C1057 C1052 1.379 . S
C1057 N1055 1.356 . S
N1058 C1050 1.356 . S
N1058 H1064 0.984 . S
N1058 H1065 0.984 . S
N1059 C1052 1.356 . S
N1059 H1062 0.984 . S
N1059 H1063 0.985 . S
H1060 N1055 0.984 . S
H1061 N1055 0.985 . S
H1062 N1059 0.984 . S
H1063 N1059 0.985 . S
H1064 N1058 0.984 . S
H1065 N1058 0.984 . S
H1066 N1054 0.984 . S
H1067 N1054 0.985 . S
C1068 C1069 1.363 . S
C1068 C1074 1.379 . S
C1068 N1076 1.356 . S
C1069 C1068 1.363 . S
C1069 C1075 1.363 . S
C1070 C1071 1.363 . S
C1070 C1075 1.379 . S
C1070 N1077 1.356 . S
C1071 C1070 1.363 . S
C1071 C1074 1.363 . S
N1072 C1074 1.356 . S
N1072 H1084 0.984 . S
N1072 H1085 0.985 . S
N1073 C1075 1.356 . S
N1073 H1078 0.984 . S
N1073 H1079 0.985 . S
C1074 C1068 1.379 . S
C1074 C1071 1.363 . S
C1074 N1072 1.356 . S
C1075 C1069 1.363 . S
C1075 C1070 1.379 . S
C1075 N1073 1.356 . S
N1076 C1068 1.356 . S
N1076 H1082 0.984 . S
N1076 H1083 0.984 . S
N1077 C1070 1.356 . S
N1077 H1080 0.984 . S
N1077 H1081 0.985 . S
H1078 N1073 0.984 . S
H1079 N1073 0.985 . S
H1080 N1077 0.984 . S
H1081 N1077 0.985 . S
H1082 N1076 0.984 . S
H1083 N1076 0.984 . S
H1084 N1072 0.984 . S
H1085 N1072 0.985 . S
C1086 C1087 1.363 . S
C1086 C1092 1.379 . S
C1086 N1094 1.356 . S
C1087 C1086 1.363 . S
C1087 C1093 1.363 . S
C1088 C1089 1.363 . S
C1088 C1093 1.379 . S
C1088 N1095 1.356 . S
C1089 C1088 1.363 . S
C1089 C1092 1.363 . S
N1090 C1092 1.356 . S
N1090 H1102 0.984 . S
N1090 H1103 0.985 . S
N1091 C1093 1.356 . S
N1091 H1096 0.984 . S
N1091 H1097 0.985 . S
C1092 C1086 1.379 . S
C1092 C1089 1.363 . S
C1092 N1090 1.356 . S
C1093 C1087 1.363 . S
C1093 C1088 1.379 . S
C1093 N1091 1.356 . S
N1094 C1086 1.356 . S
N1094 H1100 0.984 . S
N1094 H1101 0.984 . S
N1095 C1088 1.356 . S
N1095 H1098 0.984 . S
N1095 H1099 0.985 . S
H1096 N1091 0.984 . S
H1097 N1091 0.985 . S
H1098 N1095 0.984 . S
H1099 N1095 0.985 . S
H1100 N1094 0.984 . S
H1101 N1094 0.984 . S
H1102 N1090 0.984 . S
H1103 N1090 0.985 . S
C1104 C1105 1.363 . S
C1104 C1110 1.379 . S
C1104 N1112 1.356 . S
C1105 C1104 1.363 . S
C1105 C1111 1.363 . S
C1106 C1107 1.363 . S
C1106 C1111 1.379 . S
C1106 N1113 1.356 . S
C1107 C1106 1.363 . S
C1107 C1110 1.363 . S
N1108 C1110 1.356 . S
N1108 H1120 0.984 . S
N1108 H1121 0.985 . S
N1109 C1111 1.356 . S
N1109 H1114 0.984 . S
N1109 H1115 0.985 . S
C1110 C1104 1.379 . S
C1110 C1107 1.363 . S
C1110 N1108 1.356 . S
C1111 C1105 1.363 . S
C1111 C1106 1.379 . S
C1111 N1109 1.356 . S
N1112 C1104 1.356 . S
N1112 H1118 0.984 . S
N1112 H1119 0.984 . S
N1113 C1106 1.356 . S
N1113 H1116 0.984 . S
N1113 H1117 0.985 . S
H1114 N1109 0.984 . S
H1115 N1109 0.985 . S
H1116 N1113 0.984 . S
H1117 N1113 0.985 . S
H1118 N1112 0.984 . S
H1119 N1112 0.984 . S
H1120 N1108 0.984 . S
H1121 N1108 0.985 . S
C1122 C1123 1.363 . S
C1122 C1128 1.379 . S
C1122 N1130 1.356 . S
C1123 C1122 1.363 . S
C1123 C1129 1.363 . S
C1124 C1125 1.363 . S
C1124 C1129 1.379 . S
C1124 N1131 1.356 . S
C1125 C1124 1.363 . S
C1125 C1128 1.363 . S
N1126 C1128 1.356 . S
N1126 H1138 0.984 . S
N1126 H1139 0.985 . S
N1127 C1129 1.356 . S
N1127 H1132 0.984 . S
N1127 H1133 0.985 . S
C1128 C1122 1.379 . S
C1128 C1125 1.363 . S
C1128 N1126 1.356 . S
C1129 C1123 1.363 . S
C1129 C1124 1.379 . S
C1129 N1127 1.356 . S
N1130 C1122 1.356 . S
N1130 H1136 0.984 . S
N1130 H1137 0.984 . S
N1131 C1124 1.356 . S
N1131 H1134 0.984 . S
N1131 H1135 0.985 . S
H1132 N1127 0.984 . S
H1133 N1127 0.985 . S
H1134 N1131 0.984 . S
H1135 N1131 0.985 . S
H1136 N1130 0.984 . S
H1137 N1130 0.984 . S
H1138 N1126 0.984 . S
H1139 N1126 0.985 . S
C1140 C1141 1.363 . S
C1140 C1146 1.379 . S
C1140 N1148 1.356 . S
C1141 C1140 1.363 . S
C1141 C1147 1.363 . S
C1142 C1143 1.363 . S
C1142 C1147 1.379 . S
C1142 N1149 1.356 . S
C1143 C1142 1.363 . S
C1143 C1146 1.363 . S
N1144 C1146 1.356 . S
N1144 H1156 0.984 . S
N1144 H1157 0.985 . S
N1145 C1147 1.356 . S
N1145 H1150 0.984 . S
N1145 H1151 0.985 . S
C1146 C1140 1.379 . S
C1146 C1143 1.363 . S
C1146 N1144 1.356 . S
C1147 C1141 1.363 . S
C1147 C1142 1.379 . S
C1147 N1145 1.356 . S
N1148 C1140 1.356 . S
N1148 H1154 0.984 . S
N1148 H1155 0.984 . S
N1149 C1142 1.356 . S
N1149 H1152 0.984 . S
N1149 H1153 0.985 . S
H1150 N1145 0.984 . S
H1151 N1145 0.985 . S
H1152 N1149 0.984 . S
H1153 N1149 0.985 . S
H1154 N1148 0.984 . S
H1155 N1148 0.984 . S
H1156 N1144 0.984 . S
H1157 N1144 0.985 . S
C1158 C1159 1.363 . S
C1158 C1164 1.379 . S
C1158 N1166 1.356 . S
C1159 C1158 1.363 . S
C1159 C1165 1.363 . S
C1160 C1161 1.363 . S
C1160 C1165 1.379 . S
C1160 N1167 1.356 . S
C1161 C1160 1.363 . S
C1161 C1164 1.363 . S
N1162 C1164 1.356 . S
N1162 H1174 0.984 . S
N1162 H1175 0.985 . S
N1163 C1165 1.356 . S
N1163 H1168 0.984 . S
N1163 H1169 0.985 . S
C1164 C1158 1.379 . S
C1164 C1161 1.363 . S
C1164 N1162 1.356 . S
C1165 C1159 1.363 . S
C1165 C1160 1.379 . S
C1165 N1163 1.356 . S
N1166 C1158 1.356 . S
N1166 H1172 0.984 . S
N1166 H1173 0.984 . S
N1167 C1160 1.356 . S
N1167 H1170 0.984 . S
N1167 H1171 0.985 . S
H1168 N1163 0.984 . S
H1169 N1163 0.985 . S
H1170 N1167 0.984 . S
H1171 N1167 0.985 . S
H1172 N1166 0.984 . S
H1173 N1166 0.984 . S
H1174 N1162 0.984 . S
H1175 N1162 0.985 . S
C313 C153 1.586 . S
C315 C3 1.602 . S
C331 C16 1.602 . S
C333 C108 1.586 . S
C349 C31 1.602 . S
C351 C121 1.586 . S
C367 C42 1.602 . S
C369 C134 1.586 . S
C385 C173 1.586 . S
C387 C55 1.602 . S
C403 C68 1.602 . S
C405 C186 1.586 . S
C421 C199 1.586 . S
C423 C81 1.602 . S
C439 C160 1.586 . S
C441 C96 1.602 . S
C457 C75 1.586 . S
C459 C109 1.602 . S
C475 C88 1.586 . S
C477 C122 1.602 . S
C493 C135 1.602 . S
C495 C95 1.586 . S
C511 C62 1.586 . S
C513 C146 1.602 . S
C529 C49 1.586 . S
C531 C161 1.602 . S
C547 C174 1.602 . S
C549 C10 1.586 . S
C565 C187 1.602 . S
C567 C23 1.586 . S
C583 C200 1.602 . S
C585 C30 1.586 . S
C601 C213 1.602 . S
C603 C309 1.586 . S
C619 C264 1.586 . S
C621 C224 1.602 . S
C637 C239 1.602 . S
C639 C231 1.586 . S
C655 C250 1.602 . S
C657 C238 1.586 . S
C673 C257 1.586 . S
C675 C265 1.602 . S
C691 C278 1.602 . S
C693 C290 1.586 . S
C709 C212 1.586 . S
C711 C291 1.602 . S
C727 C277 1.586 . S
C729 C302 1.602 . S
C745 C5 1.621 . S
C747 C83 1.621 . S
C763 C18 1.621 . S
C765 C94 1.621 . S
C781 C29 1.621 . S
C783 C57 1.621 . S
C799 C70 1.621 . S
C801 C44 1.621 . S
C817 C133 1.621 . S
C819 C107 1.621 . S
C835 C120 1.621 . S
C837 C148 1.621 . S
C853 C159 1.621 . S
C855 C185 1.621 . S
C871 C198 1.621 . S
C873 C172 1.621 . S
C889 C226 1.621 . S
C891 C211 1.621 . S
C907 C237 1.621 . S
C909 C304 1.621 . S
C925 C252 1.621 . S
C927 C276 1.621 . S
C943 C263 1.621 . S
C945 C289 1.621 . S
C961 C4 1.142 . S
C963 C69 1.142 . S
C979 C17 1.142 . S
C981 C82 1.142 . S
C997 C36 1.142 . S
C999 C101 1.142 . S
C1015 C56 1.142 . S
C1017 C43 1.142 . S
C1033 C114 1.142 . S
C1035 C303 1.142 . S
C1051 C127 1.142 . S
C1053 C283 1.142 . S
C1069 C296 1.142 . S
C1071 C140 1.142 . S
C1087 C147 1.142 . S
C1089 C218 1.142 . S
C1105 C270 1.142 . S
C1107 C166 1.142 . S
C1123 C225 1.142 . S
C1125 C179 1.142 . S
C1141 C192 1.142 . S
C1143 C244 1.142 . S
C1159 C251 1.142 . S
C1161 C205 1.142 . S
