# Generated by pormake.
# Topology umx, (4)-cn, num edge types: 1
# Building blocks:
#     Node 0, Type 0, BuildingBlock: NAWXER_clean_sbu_0, # of connection points: 4
#     Node 1, Type 0, BuildingBlock: NAWXER_clean_sbu_0, # of connection points: 4
#     Node 2, Type 0, BuildingBlock: NAWXER_clean_sbu_0, # of connection points: 4
#     Node 3, Type 0, BuildingBlock: NAWXER_clean_sbu_0, # of connection points: 4
#     Node 4, Type 0, BuildingBlock: NAWXER_clean_sbu_0, # of connection points: 4
#     Node 5, Type 0, BuildingBlock: NAWXER_clean_sbu_0, # of connection points: 4
#     Node 6, Type 0, BuildingBlock: NAWXER_clean_sbu_0, # of connection points: 4
#     Node 7, Type 0, BuildingBlock: NAWXER_clean_sbu_0, # of connection points: 4
#     Edge 8, Type (0, 0), BuildingBlock: KIFKEQ_clean_linker_1, # of connection points: 2
#     Edge 9, Type (0, 0), BuildingBlock: KIFKEQ_clean_linker_1, # of connection points: 2
#     Edge 10, Type (0, 0), BuildingBlock: KIFKEQ_clean_linker_1, # of connection points: 2
#     Edge 11, Type (0, 0), BuildingBlock: KIFKEQ_clean_linker_1, # of connection points: 2
#     Edge 12, Type (0, 0), BuildingBlock: KIFKEQ_clean_linker_1, # of connection points: 2
#     Edge 13, Type (0, 0), BuildingBlock: KIFKEQ_clean_linker_1, # of connection points: 2
#     Edge 14, Type (0, 0), BuildingBlock: KIFKEQ_clean_linker_1, # of connection points: 2
#     Edge 15, Type (0, 0), BuildingBlock: KIFKEQ_clean_linker_1, # of connection points: 2
#     Edge 16, Type (0, 0), BuildingBlock: KIFKEQ_clean_linker_1, # of connection points: 2
#     Edge 17, Type (0, 0), BuildingBlock: KIFKEQ_clean_linker_1, # of connection points: 2
#     Edge 18, Type (0, 0), BuildingBlock: KIFKEQ_clean_linker_1, # of connection points: 2
#     Edge 19, Type (0, 0), BuildingBlock: KIFKEQ_clean_linker_1, # of connection points: 2
#     Edge 20, Type (0, 0), BuildingBlock: KIFKEQ_clean_linker_1, # of connection points: 2
#     Edge 21, Type (0, 0), BuildingBlock: KIFKEQ_clean_linker_1, # of connection points: 2
#     Edge 22, Type (0, 0), BuildingBlock: KIFKEQ_clean_linker_1, # of connection points: 2
#     Edge 23, Type (0, 0), BuildingBlock: KIFKEQ_clean_linker_1, # of connection points: 2
# Relax obj value: 0.027
# Max RMSD: 0.221
# Mean RMSD: 0.220
data_MOF--net-umx--node1-NAWXER_clean_sbu_0--edge1-KIFKEQ_clean_linker_1
_symmetry_space_group_name_H-M    P1
_symmetry_Int_Tables_number       1
_symmetry_cell_setting            triclinic
loop_
_symmetry_equiv_pos_as_xyz
'x, y, z'
_cell_length_a     39.790672
_cell_length_b     39.856276
_cell_length_c     29.685285
_cell_angle_alpha  94.955014
_cell_angle_beta   95.497644
_cell_angle_gamma 89.98335
loop_
_atom_site_label
_atom_site_type_symbol
_atom_site_fract_x
_atom_site_fract_y
_atom_site_fract_z
_atom_type_partial_charge
C0 C 0.22302 0.39925 0.01793 0.0
C1 C 0.1169 0.45718 0.01889 0.0
O2 O 0.19298 0.38808 0.0131 0.0
Zn3 Zn 0.17055 0.42979 0.01724 0.0
O4 O 0.22838 0.43119 0.02295 0.0
Zn5 Zn 0.19654 0.47549 0.02642 0.0
O6 O 0.21017 0.49687 0.0861 0.0
O7 O 0.18319 0.44874 0.0873 0.0
O8 O 0.14143 0.4786 0.02331 0.0
O9 O 0.12308 0.42595 0.014 0.0
O10 O 0.17897 0.45166 0.95497 0.0
O11 O 0.20789 0.49856 0.97554 0.0
C12 C 0.19824 0.47473 0.1086 0.0
C13 C 0.1939 0.478 0.94434 0.0
C14 C 0.51334 0.19203 0.44942 0.0
C15 C 0.5165 0.19621 0.61403 0.0
O16 O 0.49148 0.20349 0.47506 0.0
Zn17 Zn 0.51554 0.19417 0.5316 0.0
O18 O 0.54062 0.1792 0.46704 0.0
Zn19 Zn 0.56234 0.17057 0.53487 0.0
O20 O 0.56721 0.12311 0.53253 0.0
O21 O 0.51408 0.13941 0.52817 0.0
O22 O 0.54294 0.18229 0.59957 0.0
O23 O 0.49405 0.20716 0.58579 0.0
O24 O 0.55896 0.22794 0.53622 0.0
O25 O 0.60342 0.19492 0.5412 0.0
C26 C 0.53603 0.11576 0.52919 0.0
C27 C 0.59115 0.2242 0.53998 0.0
C28 C 0.87658 0.5326 0.03917 0.0
C29 C 0.77107 0.59219 0.03461 0.0
O30 O 0.85159 0.51176 0.03178 0.0
Zn31 Zn 0.79663 0.51563 0.02697 0.0
O32 O 0.87105 0.56389 0.04557 0.0
Zn33 Zn 0.82329 0.56107 0.03749 0.0
O34 O 0.8112 0.54024 0.0988 0.0
O35 O 0.78446 0.49229 0.07734 0.0
O36 O 0.80119 0.60316 0.03914 0.0
O37 O 0.76547 0.5603 0.03017 0.0
O38 O 0.78329 0.495 0.96684 0.0
O39 O 0.81359 0.54138 0.96712 0.0
C40 C 0.79638 0.51371 0.10896 0.0
C41 C 0.79783 0.51601 0.94522 0.0
C42 C 0.47442 0.79176 0.45272 0.0
C43 C 0.48254 0.79975 0.61806 0.0
O44 O 0.44907 0.80734 0.46807 0.0
Zn45 Zn 0.43234 0.82151 0.53438 0.0
O46 O 0.49698 0.78034 0.4804 0.0
Zn47 Zn 0.47788 0.79576 0.53532 0.0
O48 O 0.43306 0.76412 0.53405 0.0
O49 O 0.39033 0.79944 0.53304 0.0
O50 O 0.50322 0.78679 0.59167 0.0
O51 O 0.45552 0.81335 0.60114 0.0
O52 O 0.42957 0.86905 0.53627 0.0
O53 O 0.48171 0.85032 0.53539 0.0
C54 C 0.40121 0.7696 0.53374 0.0
C55 C 0.46083 0.87493 0.53592 0.0
C56 C 0.1943 0.51148 0.44896 0.0
C57 C 0.19644 0.51757 0.61406 0.0
O58 O 0.17996 0.53812 0.46505 0.0
Zn59 Zn 0.16963 0.56045 0.53099 0.0
O60 O 0.20676 0.49071 0.47597 0.0
Zn61 Zn 0.19596 0.5153 0.53168 0.0
O62 O 0.1409 0.51107 0.52762 0.0
O63 O 0.12202 0.56306 0.52513 0.0
O64 O 0.21027 0.49614 0.58769 0.0
O65 O 0.18058 0.54249 0.5976 0.0
O66 O 0.19189 0.60259 0.53493 0.0
O67 O 0.22745 0.56017 0.5351 0.0
C68 C 0.11615 0.53181 0.52514 0.0
C69 C 0.22191 0.59195 0.53571 0.0
C70 C 0.40153 0.22109 0.01474 0.0
C71 C 0.45796 0.11432 0.01956 0.0
O72 O 0.43361 0.2259 0.02162 0.0
Zn73 Zn 0.4775 0.19329 0.02688 0.0
O74 O 0.3897 0.19136 1.01031 0.0
Zn75 Zn 0.43106 0.16836 0.01684 0.0
O76 O 0.4498 0.18087 0.08719 0.0
O77 O 0.49874 0.20665 0.08649 0.0
O78 O 0.42676 0.12082 0.01354 0.0
O79 O 0.47967 0.13856 0.02457 0.0
O80 O 0.50152 0.20361 0.97654 0.0
O81 O 0.45307 0.17747 0.95538 0.0
C82 C 0.47616 0.19532 0.10871 0.0
C83 C 0.48007 0.19133 0.94506 0.0
C84 C 0.79928 0.47886 0.60554 0.0
C85 C 0.79199 0.47602 0.44041 0.0
O86 O 0.78577 0.49998 0.57983 0.0
Zn87 Zn 0.79515 0.47662 0.52313 0.0
O88 O 0.81292 0.45225 0.58796 0.0
Zn89 Zn 0.81964 0.43045 0.51986 0.0
O90 O 0.867 0.42594 0.52099 0.0
O91 O 0.85023 0.47884 0.52594 0.0
O92 O 0.80659 0.44981 0.45495 0.0
O93 O 0.78101 0.49808 0.46868 0.0
O94 O 0.76208 0.43291 0.51945 0.0
O95 O 0.7958 0.38912 0.51492 0.0
C96 C 0.8741 0.45711 0.52438 0.0
C97 C 0.76631 0.40089 0.5163 0.0
C98 C 0.59192 0.76943 0.05243 0.0
C99 C 0.53292 0.875 0.04994 0.0
O100 O 0.6031 0.79939 0.05916 0.0
Zn101 Zn 0.56118 0.8216 0.05261 0.0
O102 O 0.55997 0.76406 0.04463 0.0
Zn103 Zn 0.51532 0.79559 0.04008 0.0
O104 O 0.49524 0.78261 0.97987 0.0
O105 O 0.54364 0.80989 0.98132 0.0
O106 O 0.51197 0.85016 0.04252 0.0
O107 O 0.56414 0.86938 0.05838 0.0
O108 O 0.53863 0.8106 0.11265 0.0
O109 O 0.49077 0.784 0.08967 0.0
C110 C 0.51791 0.79498 0.95871 0.0
C111 C 0.51167 0.79612 0.12192 0.0
H112 H 0.18016 0.4298 0.16673 0.0
H113 H 0.22135 0.52989 0.16438 0.0
H114 H 0.18093 0.43827 0.24917 0.0
H115 H 0.22234 0.53819 0.24694 0.0
H116 H 0.17654 0.55438 0.38401 0.0
H117 H 0.17966 0.54491 0.3024 0.0
H118 H 0.22038 0.44588 0.31956 0.0
H119 H 0.21706 0.45521 0.4015 0.0
C120 C 0.18961 0.45353 0.1838 0.0
C121 C 0.20056 0.47924 0.1589 0.0
C122 C 0.19022 0.45828 0.2311 0.0
C123 C 0.20158 0.48893 0.25456 0.0
C124 C 0.21306 0.51443 0.22976 0.0
C125 C 0.21267 0.5096 0.18247 0.0
C126 C 0.18619 0.53056 0.37049 0.0
C127 C 0.19649 0.50551 0.39934 0.0
C128 C 0.1882 0.52525 0.3237 0.0
C129 C 0.20036 0.49469 0.30452 0.0
C130 C 0.21066 0.4696 0.3333 0.0
C131 C 0.20888 0.475 0.38025 0.0
H132 H 0.46084 0.21765 0.65561 0.0
H133 H 0.56156 0.17909 0.68342 0.0
H134 H 0.45238 0.21812 0.73604 0.0
H135 H 0.55291 0.17926 0.76358 0.0
H136 H 0.53613 0.21492 0.91074 0.0
H137 H 0.54512 0.21838 0.83106 0.0
H138 H 0.446 0.17555 0.79064 0.0
H139 H 0.4368 0.17237 0.87013 0.0
C140 C 0.48122 0.20942 0.67886 0.0
C141 C 0.51183 0.19824 0.66307 0.0
C142 C 0.47629 0.20951 0.72488 0.0
C143 C 0.50193 0.1986 0.75609 0.0
C144 C 0.53279 0.18811 0.74044 0.0
C145 C 0.53766 0.18785 0.69444 0.0
C146 C 0.51624 0.20627 0.88487 0.0
C147 C 0.48577 0.19331 0.89681 0.0
C148 C 0.52145 0.20814 0.83923 0.0
C149 C 0.49624 0.19729 0.8046 0.0
C150 C 0.46573 0.18451 0.81657 0.0
C151 C 0.46058 0.18247 0.86214 0.0
H152 H 0.80846 0.4315 0.37087 0.0
H153 H 0.76979 0.53174 0.39866 0.0
H154 H 0.80747 0.44063 0.29064 0.0
H155 H 0.76854 0.5407 0.31816 0.0
H156 H 0.81412 0.55705 0.18393 0.0
H157 H 0.81058 0.54766 0.26338 0.0
H158 H 0.76812 0.44871 0.2229 0.0
H159 H 0.77192 0.45792 0.14328 0.0
C160 C 0.79949 0.4554 0.35984 0.0
C161 C 0.78932 0.48094 0.39126 0.0
C162 C 0.79875 0.46055 0.31377 0.0
C163 C 0.78802 0.49142 0.29805 0.0
C164 C 0.77731 0.51677 0.32932 0.0
C165 C 0.77784 0.51156 0.3754 0.0
C166 C 0.80395 0.5333 0.19189 0.0
C167 C 0.79342 0.50819 0.1572 0.0
C168 C 0.80171 0.52803 0.23746 0.0
C169 C 0.78905 0.49745 0.24946 0.0
C170 C 0.77829 0.47241 0.21477 0.0
C171 C 0.78034 0.47776 0.16914 0.0
H172 H 0.46357 0.77186 0.90108 0.0
H173 H 0.56351 0.81466 0.90252 0.0
H174 H 0.45606 0.77195 0.81862 0.0
H175 H 0.55579 0.81492 0.81994 0.0
H176 H 0.53945 0.77841 0.6668 0.0
H177 H 0.5489 0.77564 0.74903 0.0
H178 H 0.44938 0.81576 0.76399 0.0
H179 H 0.4398 0.81838 0.68215 0.0
C180 C 0.48401 0.78114 0.88383 0.0
C181 C 0.51409 0.79338 0.90844 0.0
C182 C 0.47961 0.78137 0.8366 0.0
C183 C 0.50526 0.79363 0.81285 0.0
C184 C 0.53567 0.80511 0.83728 0.0
C185 C 0.54 0.8051 0.88461 0.0
C186 C 0.51962 0.78666 0.68766 0.0
C187 C 0.48887 0.79859 0.66789 0.0
C188 C 0.52509 0.78519 0.73474 0.0
C189 C 0.49981 0.79533 0.76291 0.0
C190 C 0.46915 0.80733 0.74311 0.0
C191 C 0.46378 0.80904 0.6962 0.0
H192 H 0.75438 0.51593 0.65266 0.0
H193 H 0.84342 0.45465 0.67085 0.0
H194 H 0.75338 0.52453 0.73536 0.0
H195 H 0.84287 0.46427 0.75351 0.0
H196 H 0.84417 0.53849 0.89279 0.0
H197 H 0.84451 0.52905 0.81015 0.0
H198 H 0.75085 0.47348 0.80205 0.0
H199 H 0.75089 0.48191 0.88498 0.0
C200 C 0.77382 0.50451 0.6743 0.0
C201 C 0.79899 0.48462 0.65537 0.0
C202 C 0.77313 0.50933 0.72144 0.0
C203 C 0.79805 0.49502 0.75039 0.0
C204 C 0.82345 0.47552 0.73164 0.0
C205 C 0.82368 0.47 0.6845 0.0
C206 C 0.82363 0.52429 0.87339 0.0
C207 C 0.79748 0.51093 0.89526 0.0
C208 C 0.82394 0.51883 0.82628 0.0
C209 C 0.7977 0.50062 0.80014 0.0
C210 C 0.77129 0.48766 0.82173 0.0
C211 C 0.77138 0.49241 0.86902 0.0
H212 H 0.55481 0.81262 0.19766 0.0
H213 H 0.45432 0.77385 0.1548 0.0
H214 H 0.54468 0.80905 0.27668 0.0
H215 H 0.44431 0.77012 0.23425 0.0
H216 H 0.42949 0.81036 0.38374 0.0
H217 H 0.43776 0.80942 0.3032 0.0
H218 H 0.53619 0.76557 0.32948 0.0
H219 H 0.52813 0.76668 0.40997 0.0
C220 C 0.53056 0.80325 0.20506 0.0
C221 C 0.50535 0.79355 0.16988 0.0
C222 C 0.52486 0.80099 0.25038 0.0
C223 C 0.49375 0.78918 0.26168 0.0
C224 C 0.46846 0.77952 0.22657 0.0
C225 C 0.47426 0.78153 0.1811 0.0
C226 C 0.45279 0.80027 0.3723 0.0
C227 C 0.47823 0.78877 0.40337 0.0
C228 C 0.45744 0.79958 0.32611 0.0
C229 C 0.48771 0.78762 0.31007 0.0
C230 C 0.51277 0.77536 0.34094 0.0
C231 C 0.50805 0.77583 0.38703 0.0
H232 H 0.14921 0.45563 0.87259 0.0
H233 H 0.24061 0.51453 0.90717 0.0
H234 H 0.15039 0.4665 0.7927 0.0
H235 H 0.24222 0.52438 0.82694 0.0
H236 H 0.24338 0.48404 0.66629 0.0
H237 H 0.24346 0.47539 0.74719 0.0
H238 H 0.15076 0.53098 0.75274 0.0
H239 H 0.15108 0.54066 0.67237 0.0
C240 C 0.16962 0.47071 0.86309 0.0
C241 C 0.19478 0.48429 0.89608 0.0
C242 C 0.1702 0.47697 0.81753 0.0
C243 C 0.19641 0.4962 0.80402 0.0
C244 C 0.22182 0.50942 0.83674 0.0
C245 C 0.2208 0.50388 0.88251 0.0
C246 C 0.22316 0.4946 0.68488 0.0
C247 C 0.19727 0.51309 0.6631 0.0
C248 C 0.22329 0.48971 0.73103 0.0
C249 C 0.19708 0.5025 0.7558 0.0
C250 C 0.17117 0.52088 0.73413 0.0
C251 C 0.17148 0.5265 0.68832 0.0
H252 H 0.45675 0.2133 0.40038 0.0
H253 H 0.55697 0.17456 0.38574 0.0
H254 H 0.44748 0.2161 0.31835 0.0
H255 H 0.54749 0.17705 0.30375 0.0
H256 H 0.53142 0.21857 0.1647 0.0
H257 H 0.54005 0.21917 0.24725 0.0
H258 H 0.44033 0.17682 0.24895 0.0
H259 H 0.43148 0.17651 0.1665 0.0
C260 C 0.47679 0.20535 0.3797 0.0
C261 C 0.50759 0.19366 0.39963 0.0
C262 C 0.4714 0.20682 0.33268 0.0
C263 C 0.49676 0.19684 0.30459 0.0
C264 C 0.52761 0.18532 0.32454 0.0
C265 C 0.53294 0.18368 0.37151 0.0
C266 C 0.51123 0.20959 0.18268 0.0
C267 C 0.48078 0.19741 0.15897 0.0
C268 C 0.51628 0.20974 0.22995 0.0
C269 C 0.49093 0.1979 0.25458 0.0
C270 C 0.46022 0.18638 0.23097 0.0
C271 C 0.45523 0.18606 0.18369 0.0
H272 H 0.89805 0.4722 1.00225 0.0
H273 H 0.93418 0.5664 0.07325 0.0
H274 H 0.95608 0.45437 0.99582 0.0
H275 H 0.99218 0.5481 0.06868 0.0
H276 H 0.09161 0.52063 0.01194 0.0
H277 H 0.03326 0.53847 0.01649 0.0
H278 H 0.00497 0.43676 0.03815 0.0
H279 H 0.06269 0.41882 0.03159 0.0
C280 C 0.91842 0.48886 0.0171 0.0
C281 C 0.91161 0.52067 0.03819 0.0
C282 C 0.95171 0.47864 0.01355 0.0
C283 C 0.9789 0.49985 0.03161 0.0
C284 C 0.97194 0.53141 0.05353 0.0
C285 C 0.93868 0.54179 0.05652 0.0
C286 C 0.07283 0.50214 0.01748 0.0
C287 C 0.08169 0.46834 0.02122 0.0
C288 C 0.03943 0.51236 0.02041 0.0
C289 C 0.01434 0.48905 0.02775 0.0
C290 C 0.0234 0.45528 0.03162 0.0
C291 C 0.05661 0.44502 0.02811 0.0
H292 H 0.52131 0.89653 0.51196 0.0
H293 H 0.42692 0.93232 0.55811 0.0
H294 H 0.53943 0.95452 0.50758 0.0
H295 H 0.44546 0.99014 0.55571 0.0
H296 H 0.473 0.08903 0.50491 0.0
H297 H 0.4554 0.03046 0.50471 0.0
H298 H 0.55719 0.00411 0.55299 0.0
H299 H 0.57496 0.06226 0.55121 0.0
C300 C 0.50462 0.91681 0.52166 0.0
C301 C 0.4727 0.90992 0.53526 0.0
C302 C 0.51502 0.95006 0.51933 0.0
C303 C 0.49385 0.97708 0.53112 0.0
C304 C 0.46212 0.97003 0.54539 0.0
C305 C 0.45159 0.93685 0.54713 0.0
C306 C 0.4916 0.07065 0.51525 0.0
C307 C 0.52532 0.08023 0.52807 0.0
C308 C 0.4815 0.0371 0.51544 0.0
C309 C 0.50484 0.01251 0.52908 0.0
C310 C 0.53864 0.02219 0.5416 0.0
C311 C 0.5488 0.05561 0.54083 0.0
H312 H 0.05915 0.56565 0.49929 0.0
H313 H 0.09364 0.4713 0.54792 0.0
H314 H 0.00091 0.54735 0.4991 0.0
H315 H 0.03519 0.45339 0.54958 0.0
H316 H 0.92764 0.41848 0.50281 0.0
H317 H 0.98598 0.4361 0.50205 0.0
H318 H 0.95966 0.53758 0.54903 0.0
H319 H 0.90084 0.52012 0.54793 0.0
C320 C 0.05425 0.54102 0.51017 0.0
C321 C 0.08094 0.51988 0.5236 0.0
C322 C 0.02082 0.53063 0.51043 0.0
C323 C 0.01328 0.499 0.52467 0.0
C324 C 0.04006 0.47774 0.53784 0.0
C325 C 0.07356 0.488 0.53703 0.0
C326 C 0.9343 0.44457 0.51306 0.0
C327 C 0.90963 0.46796 0.52536 0.0
C328 C 0.96784 0.45463 0.51289 0.0
C329 C 0.97761 0.48826 0.5255 0.0
C330 C 0.95294 0.51159 0.53834 0.0
C331 C 0.91926 0.50158 0.53799 0.0
H332 H 0.56659 0.93285 0.08271 0.0
H333 H 0.47294 0.89591 1.0096 0.0
H334 H 0.54828 0.99052 0.07529 0.0
H335 H 0.45516 0.95358 1.00031 0.0
H336 H 0.41898 0.06032 0.03157 0.0
H337 H 0.43681 0.00278 0.04012 0.0
H338 H 0.53925 0.03079 0.02153 0.0
H339 H 0.52152 0.08889 0.01501 0.0
C340 C 0.54212 0.93709 0.06486 0.0
C341 C 0.52114 0.9099 0.04683 0.0
C342 C 0.53173 0.97016 0.06024 0.0
C343 C 0.50032 0.97679 0.03694 0.0
C344 C 0.47929 0.94948 0.01907 0.0
C345 C 0.4895 0.91639 0.02425 0.0
C346 C 0.44531 0.05419 0.02915 0.0
C347 C 0.46888 0.07914 0.02264 0.0
C348 C 0.45552 0.0211 0.03383 0.0
C349 C 0.48948 0.01203 0.0315 0.0
C350 C 0.51299 0.03697 0.02433 0.0
C351 C 0.50283 0.07022 0.02026 0.0
H352 H 0.28979 0.41151 1.00804 0.0
H353 H 0.21991 0.33266 0.02908 0.0
H354 H 0.33525 0.37006 1.00499 0.0
H355 H 0.26498 0.29195 0.02762 0.0
H356 H 0.33812 0.21968 0.97275 0.0
H357 H 0.29719 0.26473 0.9718 0.0
H358 H 0.37028 0.33197 0.05023 0.0
H359 H 0.41205 0.28671 0.04959 0.0
C360 C 0.28423 0.38545 0.01236 0.0
C361 C 0.25123 0.37523 0.01818 0.0
C362 C 0.31023 0.36178 1.01079 0.0
C363 C 0.3036 0.32762 0.01531 0.0
C364 C 0.27079 0.31785 0.02266 0.0
C365 C 0.24493 0.34127 0.02377 0.0
C366 C 0.34557 0.24411 0.98962 0.0
C367 C 0.37808 0.2496 0.01183 0.0
C368 C 0.32206 0.26992 0.98926 0.0
C369 C 0.33023 0.30174 0.01181 0.0
C370 C 0.36324 0.30773 0.03251 0.0
C371 C 0.38708 0.28185 0.03232 0.0
H372 H 0.70276 0.41497 0.54124 0.0
H373 H 0.76517 0.33383 0.49147 0.0
H374 H 0.65796 0.37421 0.54903 0.0
H375 H 0.72057 0.29366 0.4982 0.0
H376 H 0.65789 0.22661 0.56862 0.0
H377 H 0.6978 0.27165 0.56277 0.0
H378 H 0.61706 0.33245 0.50628 0.0
H379 H 0.57656 0.28725 0.51324 0.0
C380 C 0.70669 0.38857 0.53136 0.0
C381 C 0.73761 0.37749 0.51635 0.0
C382 C 0.68108 0.3653 0.53576 0.0
C383 C 0.68606 0.33071 0.5251 0.0
C384 C 0.71635 0.32004 0.50793 0.0
C385 C 0.74185 0.3431 0.50382 0.0
C386 C 0.64852 0.24966 0.55527 0.0
C387 C 0.61419 0.25326 0.54081 0.0
C388 C 0.67143 0.2754 0.55168 0.0
C389 C 0.66066 0.30527 0.5331 0.0
C390 C 0.62605 0.30966 0.52067 0.0
C391 C 0.60293 0.28382 0.52459 0.0
H392 H 0.77389 0.65898 0.02378 0.0
H393 H 0.70481 0.57992 0.04664 0.0
H394 H 0.72894 0.69982 0.02825 0.0
H395 H 0.65966 0.62135 0.0527 0.0
H396 H 0.58134 0.70433 0.01571 0.0
H397 H 0.62345 0.6597 1.01051 0.0
H398 H 0.69823 0.72652 0.08622 0.0
H399 H 0.6568 0.77106 0.08994 0.0
C400 C 0.74907 0.65034 0.02999 0.0
C401 C 0.74294 0.6163 0.03526 0.0
C402 C 0.72331 0.67382 0.03285 0.0
C403 C 0.69084 0.66396 0.04165 0.0
C404 C 0.68439 0.62971 0.04575 0.0
C405 C 0.71023 0.60604 0.04243 0.0
C406 C 0.60676 0.70927 0.03144 0.0
C407 C 0.61595 0.74127 0.05267 0.0
C408 C 0.63082 0.68373 0.0286 0.0
C409 C 0.66433 0.68976 0.04728 0.0
C410 C 0.67291 0.72133 0.07032 0.0
C411 C 0.64909 0.74683 0.07269 0.0
H412 H 0.40922 0.70199 0.51078 0.0
H413 H 0.33885 0.77477 0.56254 0.0
H414 H 0.36701 0.65723 0.51125 0.0
H415 H 0.29768 0.73043 0.56494 0.0
H416 H 0.21696 0.65604 0.51239 0.0
H417 H 0.2618 0.69687 0.51148 0.0
H418 H 0.33512 0.62438 0.55822 0.0
H419 H 0.2898 0.5826 0.55725 0.0
C420 C 0.3849 0.70831 0.52263 0.0
C421 C 0.37706 0.74188 0.53587 0.0
C422 C 0.36083 0.68272 0.52316 0.0
C423 C 0.32876 0.69034 0.53744 0.0
C424 C 0.3217 0.72378 0.55241 0.0
C425 C 0.34539 0.74923 0.55122 0.0
C426 C 0.24261 0.64873 0.5226 0.0
C427 C 0.24983 0.61624 0.53542 0.0
C428 C 0.26837 0.67224 0.52228 0.0
C429 C 0.30203 0.66413 0.53556 0.0
C430 C 0.30945 0.63138 0.54763 0.0
C431 C 0.28354 0.60754 0.54735 0.0
loop_
_geom_bond_atom_site_label_1
_geom_bond_atom_site_label_2
_geom_bond_distance
_geom_bond_site_symmetry_2
_ccdc_geom_bond_type
C0 O2 1.247 . S
C0 O4 1.258 . S
C1 O8 1.247 . S
C1 O9 1.258 . S
O2 C0 1.247 . S
O2 Zn3 2.028 . S
Zn3 O2 2.028 . S
Zn3 O7 2.035 . S
Zn3 O9 2.035 . S
Zn3 O10 2.028 1_554 S
O4 C0 1.258 . S
O4 Zn5 2.035 . S
Zn5 O4 2.035 . S
Zn5 O6 2.028 . S
Zn5 O8 2.028 . S
Zn5 O11 2.035 1_554 S
O6 Zn5 2.028 . S
O6 C12 1.247 . S
O7 Zn3 2.035 . S
O7 C12 1.258 . S
O8 C1 1.247 . S
O8 Zn5 2.028 . S
O9 C1 1.258 . S
O9 Zn3 2.035 . S
O10 Zn3 2.028 1_556 S
O10 C13 1.247 . S
O11 Zn5 2.035 1_556 S
O11 C13 1.258 . S
C12 O6 1.247 . S
C12 O7 1.258 . S
C13 O10 1.247 . S
C13 O11 1.258 . S
C14 O16 1.247 . S
C14 O18 1.258 . S
C15 O22 1.247 . S
C15 O23 1.258 . S
O16 C14 1.247 . S
O16 Zn17 2.028 . S
Zn17 O16 2.028 . S
Zn17 O21 2.035 . S
Zn17 O23 2.035 . S
Zn17 O24 2.028 . S
O18 C14 1.258 . S
O18 Zn19 2.035 . S
Zn19 O18 2.035 . S
Zn19 O20 2.028 . S
Zn19 O22 2.028 . S
Zn19 O25 2.035 . S
O20 Zn19 2.028 . S
O20 C26 1.247 . S
O21 Zn17 2.035 . S
O21 C26 1.258 . S
O22 C15 1.247 . S
O22 Zn19 2.028 . S
O23 C15 1.258 . S
O23 Zn17 2.035 . S
O24 Zn17 2.028 . S
O24 C27 1.247 . S
O25 Zn19 2.035 . S
O25 C27 1.258 . S
C26 O20 1.247 . S
C26 O21 1.258 . S
C27 O24 1.247 . S
C27 O25 1.258 . S
C28 O30 1.247 . S
C28 O32 1.258 . S
C29 O36 1.247 . S
C29 O37 1.258 . S
O30 C28 1.247 . S
O30 Zn31 2.028 . S
Zn31 O30 2.028 . S
Zn31 O35 2.035 . S
Zn31 O37 2.035 . S
Zn31 O38 2.028 1_554 S
O32 C28 1.258 . S
O32 Zn33 2.035 . S
Zn33 O32 2.035 . S
Zn33 O34 2.028 . S
Zn33 O36 2.028 . S
Zn33 O39 2.035 1_554 S
O34 Zn33 2.028 . S
O34 C40 1.247 . S
O35 Zn31 2.035 . S
O35 C40 1.258 . S
O36 C29 1.247 . S
O36 Zn33 2.028 . S
O37 C29 1.258 . S
O37 Zn31 2.035 . S
O38 Zn31 2.028 1_556 S
O38 C41 1.247 . S
O39 Zn33 2.035 1_556 S
O39 C41 1.258 . S
C40 O34 1.247 . S
C40 O35 1.258 . S
C41 O38 1.247 . S
C41 O39 1.258 . S
C42 O44 1.247 . S
C42 O46 1.258 . S
C43 O50 1.247 . S
C43 O51 1.258 . S
O44 C42 1.247 . S
O44 Zn45 2.028 . S
Zn45 O44 2.028 . S
Zn45 O49 2.035 . S
Zn45 O51 2.035 . S
Zn45 O52 2.028 . S
O46 C42 1.258 . S
O46 Zn47 2.035 . S
Zn47 O46 2.035 . S
Zn47 O48 2.028 . S
Zn47 O50 2.028 . S
Zn47 O53 2.035 . S
O48 Zn47 2.028 . S
O48 C54 1.247 . S
O49 Zn45 2.035 . S
O49 C54 1.258 . S
O50 C43 1.247 . S
O50 Zn47 2.028 . S
O51 C43 1.258 . S
O51 Zn45 2.035 . S
O52 Zn45 2.028 . S
O52 C55 1.247 . S
O53 Zn47 2.035 . S
O53 C55 1.258 . S
C54 O48 1.247 . S
C54 O49 1.258 . S
C55 O52 1.247 . S
C55 O53 1.258 . S
C56 O58 1.247 . S
C56 O60 1.258 . S
C57 O64 1.247 . S
C57 O65 1.258 . S
O58 C56 1.247 . S
O58 Zn59 2.028 . S
Zn59 O58 2.028 . S
Zn59 O63 2.035 . S
Zn59 O65 2.035 . S
Zn59 O66 2.028 . S
O60 C56 1.258 . S
O60 Zn61 2.035 . S
Zn61 O60 2.035 . S
Zn61 O62 2.028 . S
Zn61 O64 2.028 . S
Zn61 O67 2.035 . S
O62 Zn61 2.028 . S
O62 C68 1.247 . S
O63 Zn59 2.035 . S
O63 C68 1.258 . S
O64 C57 1.247 . S
O64 Zn61 2.028 . S
O65 C57 1.258 . S
O65 Zn59 2.035 . S
O66 Zn59 2.028 . S
O66 C69 1.247 . S
O67 Zn61 2.035 . S
O67 C69 1.258 . S
C68 O62 1.247 . S
C68 O63 1.258 . S
C69 O66 1.247 . S
C69 O67 1.258 . S
C70 O72 1.247 . S
C70 O74 1.258 . S
C71 O78 1.247 . S
C71 O79 1.258 . S
O72 C70 1.247 . S
O72 Zn73 2.028 . S
Zn73 O72 2.028 . S
Zn73 O77 2.035 . S
Zn73 O79 2.035 . S
Zn73 O80 2.028 1_554 S
O74 C70 1.258 . S
O74 Zn75 2.035 . S
Zn75 O74 2.035 . S
Zn75 O76 2.028 . S
Zn75 O78 2.028 . S
Zn75 O81 2.035 1_554 S
O76 Zn75 2.028 . S
O76 C82 1.247 . S
O77 Zn73 2.035 . S
O77 C82 1.258 . S
O78 C71 1.247 . S
O78 Zn75 2.028 . S
O79 C71 1.258 . S
O79 Zn73 2.035 . S
O80 Zn73 2.028 1_556 S
O80 C83 1.247 . S
O81 Zn75 2.035 1_556 S
O81 C83 1.258 . S
C82 O76 1.247 . S
C82 O77 1.258 . S
C83 O80 1.247 . S
C83 O81 1.258 . S
C84 O86 1.247 . S
C84 O88 1.258 . S
C85 O92 1.247 . S
C85 O93 1.258 . S
O86 C84 1.247 . S
O86 Zn87 2.028 . S
Zn87 O86 2.028 . S
Zn87 O91 2.035 . S
Zn87 O93 2.035 . S
Zn87 O94 2.028 . S
O88 C84 1.258 . S
O88 Zn89 2.035 . S
Zn89 O88 2.035 . S
Zn89 O90 2.028 . S
Zn89 O92 2.028 . S
Zn89 O95 2.035 . S
O90 Zn89 2.028 . S
O90 C96 1.247 . S
O91 Zn87 2.035 . S
O91 C96 1.258 . S
O92 C85 1.247 . S
O92 Zn89 2.028 . S
O93 C85 1.258 . S
O93 Zn87 2.035 . S
O94 Zn87 2.028 . S
O94 C97 1.247 . S
O95 Zn89 2.035 . S
O95 C97 1.258 . S
C96 O90 1.247 . S
C96 O91 1.258 . S
C97 O94 1.247 . S
C97 O95 1.258 . S
C98 O100 1.247 . S
C98 O102 1.258 . S
C99 O106 1.247 . S
C99 O107 1.258 . S
O100 C98 1.247 . S
O100 Zn101 2.028 . S
Zn101 O100 2.028 . S
Zn101 O105 2.035 1_554 S
Zn101 O107 2.035 . S
Zn101 O108 2.028 . S
O102 C98 1.258 . S
O102 Zn103 2.035 . S
Zn103 O102 2.035 . S
Zn103 O104 2.028 1_554 S
Zn103 O106 2.028 . S
Zn103 O109 2.035 . S
O104 Zn103 2.028 1_556 S
O104 C110 1.247 . S
O105 Zn101 2.035 1_556 S
O105 C110 1.258 . S
O106 C99 1.247 . S
O106 Zn103 2.028 . S
O107 C99 1.258 . S
O107 Zn101 2.035 . S
O108 Zn101 2.028 . S
O108 C111 1.247 . S
O109 Zn103 2.035 . S
O109 C111 1.258 . S
C110 O104 1.247 . S
C110 O105 1.258 . S
C111 O108 1.247 . S
C111 O109 1.258 . S
H112 C120 0.950 . S
H113 C125 0.950 . S
H114 C122 0.950 . S
H115 C124 0.950 . S
H116 C126 0.950 . S
H117 C128 0.950 . S
H118 C130 0.950 . S
H119 C131 0.950 . S
C120 H112 0.950 . S
C120 C121 1.386 . S
C120 C122 1.391 . S
C121 C120 1.386 . S
C121 C125 1.393 . S
C122 H114 0.950 . S
C122 C120 1.391 . S
C122 C123 1.400 . S
C123 C122 1.400 . S
C123 C124 1.398 . S
C123 C129 1.491 . S
C124 H115 0.950 . S
C124 C123 1.398 . S
C124 C125 1.391 . S
C125 H113 0.950 . S
C125 C121 1.393 . S
C125 C124 1.391 . S
C126 H116 0.950 . S
C126 C127 1.386 . S
C126 C128 1.391 . S
C127 C126 1.386 . S
C127 C131 1.393 . S
C128 H117 0.950 . S
C128 C126 1.391 . S
C128 C129 1.400 . S
C129 C123 1.491 . S
C129 C128 1.400 . S
C129 C130 1.398 . S
C130 H118 0.950 . S
C130 C129 1.398 . S
C130 C131 1.391 . S
C131 H119 0.950 . S
C131 C127 1.393 . S
C131 C130 1.391 . S
H132 C140 0.950 . S
H133 C145 0.950 . S
H134 C142 0.950 . S
H135 C144 0.950 . S
H136 C146 0.950 . S
H137 C148 0.950 . S
H138 C150 0.950 . S
H139 C151 0.950 . S
C140 H132 0.950 . S
C140 C141 1.386 . S
C140 C142 1.391 . S
C141 C140 1.386 . S
C141 C145 1.393 . S
C142 H134 0.950 . S
C142 C140 1.391 . S
C142 C143 1.400 . S
C143 C142 1.400 . S
C143 C144 1.398 . S
C143 C149 1.491 . S
C144 H135 0.950 . S
C144 C143 1.398 . S
C144 C145 1.391 . S
C145 H133 0.950 . S
C145 C141 1.393 . S
C145 C144 1.391 . S
C146 H136 0.950 . S
C146 C147 1.386 . S
C146 C148 1.391 . S
C147 C146 1.386 . S
C147 C151 1.393 . S
C148 H137 0.950 . S
C148 C146 1.391 . S
C148 C149 1.400 . S
C149 C143 1.491 . S
C149 C148 1.400 . S
C149 C150 1.398 . S
C150 H138 0.950 . S
C150 C149 1.398 . S
C150 C151 1.391 . S
C151 H139 0.950 . S
C151 C147 1.393 . S
C151 C150 1.391 . S
H152 C160 0.950 . S
H153 C165 0.950 . S
H154 C162 0.950 . S
H155 C164 0.950 . S
H156 C166 0.950 . S
H157 C168 0.950 . S
H158 C170 0.950 . S
H159 C171 0.950 . S
C160 H152 0.950 . S
C160 C161 1.386 . S
C160 C162 1.391 . S
C161 C160 1.386 . S
C161 C165 1.393 . S
C162 H154 0.950 . S
C162 C160 1.391 . S
C162 C163 1.400 . S
C163 C162 1.400 . S
C163 C164 1.398 . S
C163 C169 1.491 . S
C164 H155 0.950 . S
C164 C163 1.398 . S
C164 C165 1.391 . S
C165 H153 0.950 . S
C165 C161 1.393 . S
C165 C164 1.391 . S
C166 H156 0.950 . S
C166 C167 1.386 . S
C166 C168 1.391 . S
C167 C166 1.386 . S
C167 C171 1.393 . S
C168 H157 0.950 . S
C168 C166 1.391 . S
C168 C169 1.400 . S
C169 C163 1.491 . S
C169 C168 1.400 . S
C169 C170 1.398 . S
C170 H158 0.950 . S
C170 C169 1.398 . S
C170 C171 1.391 . S
C171 H159 0.950 . S
C171 C167 1.393 . S
C171 C170 1.391 . S
H172 C180 0.950 . S
H173 C185 0.950 . S
H174 C182 0.950 . S
H175 C184 0.950 . S
H176 C186 0.950 . S
H177 C188 0.950 . S
H178 C190 0.950 . S
H179 C191 0.950 . S
C180 H172 0.950 . S
C180 C181 1.386 . S
C180 C182 1.391 . S
C181 C180 1.386 . S
C181 C185 1.393 . S
C182 H174 0.950 . S
C182 C180 1.391 . S
C182 C183 1.400 . S
C183 C182 1.400 . S
C183 C184 1.398 . S
C183 C189 1.491 . S
C184 H175 0.950 . S
C184 C183 1.398 . S
C184 C185 1.391 . S
C185 H173 0.950 . S
C185 C181 1.393 . S
C185 C184 1.391 . S
C186 H176 0.950 . S
C186 C187 1.386 . S
C186 C188 1.391 . S
C187 C186 1.386 . S
C187 C191 1.393 . S
C188 H177 0.950 . S
C188 C186 1.391 . S
C188 C189 1.400 . S
C189 C183 1.491 . S
C189 C188 1.400 . S
C189 C190 1.398 . S
C190 H178 0.950 . S
C190 C189 1.398 . S
C190 C191 1.391 . S
C191 H179 0.950 . S
C191 C187 1.393 . S
C191 C190 1.391 . S
H192 C200 0.950 . S
H193 C205 0.950 . S
H194 C202 0.950 . S
H195 C204 0.950 . S
H196 C206 0.950 . S
H197 C208 0.950 . S
H198 C210 0.950 . S
H199 C211 0.950 . S
C200 H192 0.950 . S
C200 C201 1.386 . S
C200 C202 1.391 . S
C201 C200 1.386 . S
C201 C205 1.393 . S
C202 H194 0.950 . S
C202 C200 1.391 . S
C202 C203 1.400 . S
C203 C202 1.400 . S
C203 C204 1.398 . S
C203 C209 1.491 . S
C204 H195 0.950 . S
C204 C203 1.398 . S
C204 C205 1.391 . S
C205 H193 0.950 . S
C205 C201 1.393 . S
C205 C204 1.391 . S
C206 H196 0.950 . S
C206 C207 1.386 . S
C206 C208 1.391 . S
C207 C206 1.386 . S
C207 C211 1.393 . S
C208 H197 0.950 . S
C208 C206 1.391 . S
C208 C209 1.400 . S
C209 C203 1.491 . S
C209 C208 1.400 . S
C209 C210 1.398 . S
C210 H198 0.950 . S
C210 C209 1.398 . S
C210 C211 1.391 . S
C211 H199 0.950 . S
C211 C207 1.393 . S
C211 C210 1.391 . S
H212 C220 0.950 . S
H213 C225 0.950 . S
H214 C222 0.950 . S
H215 C224 0.950 . S
H216 C226 0.950 . S
H217 C228 0.950 . S
H218 C230 0.950 . S
H219 C231 0.950 . S
C220 H212 0.950 . S
C220 C221 1.386 . S
C220 C222 1.391 . S
C221 C220 1.386 . S
C221 C225 1.393 . S
C222 H214 0.950 . S
C222 C220 1.391 . S
C222 C223 1.400 . S
C223 C222 1.400 . S
C223 C224 1.398 . S
C223 C229 1.491 . S
C224 H215 0.950 . S
C224 C223 1.398 . S
C224 C225 1.391 . S
C225 H213 0.950 . S
C225 C221 1.393 . S
C225 C224 1.391 . S
C226 H216 0.950 . S
C226 C227 1.386 . S
C226 C228 1.391 . S
C227 C226 1.386 . S
C227 C231 1.393 . S
C228 H217 0.950 . S
C228 C226 1.391 . S
C228 C229 1.400 . S
C229 C223 1.491 . S
C229 C228 1.400 . S
C229 C230 1.398 . S
C230 H218 0.950 . S
C230 C229 1.398 . S
C230 C231 1.391 . S
C231 H219 0.950 . S
C231 C227 1.393 . S
C231 C230 1.391 . S
H232 C240 0.950 . S
H233 C245 0.950 . S
H234 C242 0.950 . S
H235 C244 0.950 . S
H236 C246 0.950 . S
H237 C248 0.950 . S
H238 C250 0.950 . S
H239 C251 0.950 . S
C240 H232 0.950 . S
C240 C241 1.386 . S
C240 C242 1.391 . S
C241 C240 1.386 . S
C241 C245 1.393 . S
C242 H234 0.950 . S
C242 C240 1.391 . S
C242 C243 1.400 . S
C243 C242 1.400 . S
C243 C244 1.398 . S
C243 C249 1.491 . S
C244 H235 0.950 . S
C244 C243 1.398 . S
C244 C245 1.391 . S
C245 H233 0.950 . S
C245 C241 1.393 . S
C245 C244 1.391 . S
C246 H236 0.950 . S
C246 C247 1.386 . S
C246 C248 1.391 . S
C247 C246 1.386 . S
C247 C251 1.393 . S
C248 H237 0.950 . S
C248 C246 1.391 . S
C248 C249 1.400 . S
C249 C243 1.491 . S
C249 C248 1.400 . S
C249 C250 1.398 . S
C250 H238 0.950 . S
C250 C249 1.398 . S
C250 C251 1.391 . S
C251 H239 0.950 . S
C251 C247 1.393 . S
C251 C250 1.391 . S
H252 C260 0.950 . S
H253 C265 0.950 . S
H254 C262 0.950 . S
H255 C264 0.950 . S
H256 C266 0.950 . S
H257 C268 0.950 . S
H258 C270 0.950 . S
H259 C271 0.950 . S
C260 H252 0.950 . S
C260 C261 1.386 . S
C260 C262 1.391 . S
C261 C260 1.386 . S
C261 C265 1.393 . S
C262 H254 0.950 . S
C262 C260 1.391 . S
C262 C263 1.400 . S
C263 C262 1.400 . S
C263 C264 1.398 . S
C263 C269 1.491 . S
C264 H255 0.950 . S
C264 C263 1.398 . S
C264 C265 1.391 . S
C265 H253 0.950 . S
C265 C261 1.393 . S
C265 C264 1.391 . S
C266 H256 0.950 . S
C266 C267 1.386 . S
C266 C268 1.391 . S
C267 C266 1.386 . S
C267 C271 1.393 . S
C268 H257 0.950 . S
C268 C266 1.391 . S
C268 C269 1.400 . S
C269 C263 1.491 . S
C269 C268 1.400 . S
C269 C270 1.398 . S
C270 H258 0.950 . S
C270 C269 1.398 . S
C270 C271 1.391 . S
C271 H259 0.950 . S
C271 C267 1.393 . S
C271 C270 1.391 . S
H272 C280 0.950 . S
H273 C285 0.950 . S
H274 C282 0.950 . S
H275 C284 0.950 . S
H276 C286 0.950 . S
H277 C288 0.950 . S
H278 C290 0.950 . S
H279 C291 0.950 . S
C280 H272 0.950 . S
C280 C281 1.386 1_556 S
C280 C282 1.391 . S
C281 C280 1.386 1_554 S
C281 C285 1.393 . S
C282 H274 0.950 . S
C282 C280 1.391 . S
C282 C283 1.400 1_556 S
C283 C282 1.400 1_554 S
C283 C284 1.398 . S
C283 C289 1.491 1_655 S
C284 H275 0.950 . S
C284 C283 1.398 . S
C284 C285 1.391 . S
C285 H273 0.950 . S
C285 C281 1.393 . S
C285 C284 1.391 . S
C286 H276 0.950 . S
C286 C287 1.386 . S
C286 C288 1.391 . S
C287 C286 1.386 . S
C287 C291 1.393 1_554 S
C288 H277 0.950 . S
C288 C286 1.391 . S
C288 C289 1.400 . S
C289 C283 1.491 1_455 S
C289 C288 1.400 . S
C289 C290 1.398 1_554 S
C290 H278 0.950 . S
C290 C289 1.398 1_556 S
C290 C291 1.391 . S
C291 H279 0.950 . S
C291 C287 1.393 1_556 S
C291 C290 1.391 . S
H292 C300 0.950 . S
H293 C305 0.950 . S
H294 C302 0.950 . S
H295 C304 0.950 . S
H296 C306 0.950 . S
H297 C308 0.950 . S
H298 C310 0.950 . S
H299 C311 0.950 . S
C300 H292 0.950 . S
C300 C301 1.386 . S
C300 C302 1.391 . S
C301 C300 1.386 . S
C301 C305 1.393 . S
C302 H294 0.950 . S
C302 C300 1.391 . S
C302 C303 1.400 . S
C303 C302 1.400 . S
C303 C304 1.398 . S
C303 C309 1.491 1_565 S
C304 H295 0.950 . S
C304 C303 1.398 . S
C304 C305 1.391 . S
C305 H293 0.950 . S
C305 C301 1.393 . S
C305 C304 1.391 . S
C306 H296 0.950 . S
C306 C307 1.386 . S
C306 C308 1.391 . S
C307 C306 1.386 . S
C307 C311 1.393 . S
C308 H297 0.950 . S
C308 C306 1.391 . S
C308 C309 1.400 . S
C309 C303 1.491 1_545 S
C309 C308 1.400 . S
C309 C310 1.398 . S
C310 H298 0.950 . S
C310 C309 1.398 . S
C310 C311 1.391 . S
C311 H299 0.950 . S
C311 C307 1.393 . S
C311 C310 1.391 . S
H312 C320 0.950 . S
H313 C325 0.950 . S
H314 C322 0.950 . S
H315 C324 0.950 . S
H316 C326 0.950 . S
H317 C328 0.950 . S
H318 C330 0.950 . S
H319 C331 0.950 . S
C320 H312 0.950 . S
C320 C321 1.386 . S
C320 C322 1.391 . S
C321 C320 1.386 . S
C321 C325 1.393 . S
C322 H314 0.950 . S
C322 C320 1.391 . S
C322 C323 1.400 . S
C323 C322 1.400 . S
C323 C324 1.398 . S
C323 C329 1.491 1_455 S
C324 H315 0.950 . S
C324 C323 1.398 . S
C324 C325 1.391 . S
C325 H313 0.950 . S
C325 C321 1.393 . S
C325 C324 1.391 . S
C326 H316 0.950 . S
C326 C327 1.386 . S
C326 C328 1.391 . S
C327 C326 1.386 . S
C327 C331 1.393 . S
C328 H317 0.950 . S
C328 C326 1.391 . S
C328 C329 1.400 . S
C329 C323 1.491 1_655 S
C329 C328 1.400 . S
C329 C330 1.398 . S
C330 H318 0.950 . S
C330 C329 1.398 . S
C330 C331 1.391 . S
C331 H319 0.950 . S
C331 C327 1.393 . S
C331 C330 1.391 . S
H332 C340 0.950 . S
H333 C345 0.950 . S
H334 C342 0.950 . S
H335 C344 0.950 . S
H336 C346 0.950 . S
H337 C348 0.950 . S
H338 C350 0.950 . S
H339 C351 0.950 . S
C340 H332 0.950 . S
C340 C341 1.386 1_556 S
C340 C342 1.391 . S
C341 C340 1.386 1_554 S
C341 C345 1.393 . S
C342 H334 0.950 . S
C342 C340 1.391 . S
C342 C343 1.400 1_556 S
C343 C342 1.400 1_554 S
C343 C344 1.398 . S
C343 C349 1.491 1_565 S
C344 H335 0.950 . S
C344 C343 1.398 . S
C344 C345 1.391 . S
C345 H333 0.950 . S
C345 C341 1.393 . S
C345 C344 1.391 . S
C346 H336 0.950 . S
C346 C347 1.386 . S
C346 C348 1.391 . S
C347 C346 1.386 . S
C347 C351 1.393 1_554 S
C348 H337 0.950 . S
C348 C346 1.391 . S
C348 C349 1.400 . S
C349 C343 1.491 1_545 S
C349 C348 1.400 . S
C349 C350 1.398 1_554 S
C350 H338 0.950 . S
C350 C349 1.398 1_556 S
C350 C351 1.391 . S
C351 H339 0.950 . S
C351 C347 1.393 1_556 S
C351 C350 1.391 . S
H352 C360 0.950 . S
H353 C365 0.950 . S
H354 C362 0.950 . S
H355 C364 0.950 . S
H356 C366 0.950 . S
H357 C368 0.950 . S
H358 C370 0.950 . S
H359 C371 0.950 . S
C360 H352 0.950 . S
C360 C361 1.386 . S
C360 C362 1.391 . S
C361 C360 1.386 . S
C361 C365 1.393 1_554 S
C362 H354 0.950 . S
C362 C360 1.391 . S
C362 C363 1.400 . S
C363 C362 1.400 . S
C363 C364 1.398 1_554 S
C363 C369 1.491 . S
C364 H355 0.950 . S
C364 C363 1.398 1_556 S
C364 C365 1.391 . S
C365 H353 0.950 . S
C365 C361 1.393 1_556 S
C365 C364 1.391 . S
C366 H356 0.950 . S
C366 C367 1.386 1_556 S
C366 C368 1.391 . S
C367 C366 1.386 1_554 S
C367 C371 1.393 . S
C368 H357 0.950 . S
C368 C366 1.391 . S
C368 C369 1.400 1_556 S
C369 C363 1.491 . S
C369 C368 1.400 1_554 S
C369 C370 1.398 . S
C370 H358 0.950 . S
C370 C369 1.398 . S
C370 C371 1.391 . S
C371 H359 0.950 . S
C371 C367 1.393 . S
C371 C370 1.391 . S
H372 C380 0.950 . S
H373 C385 0.950 . S
H374 C382 0.950 . S
H375 C384 0.950 . S
H376 C386 0.950 . S
H377 C388 0.950 . S
H378 C390 0.950 . S
H379 C391 0.950 . S
C380 H372 0.950 . S
C380 C381 1.386 . S
C380 C382 1.391 . S
C381 C380 1.386 . S
C381 C385 1.393 . S
C382 H374 0.950 . S
C382 C380 1.391 . S
C382 C383 1.400 . S
C383 C382 1.400 . S
C383 C384 1.398 . S
C383 C389 1.491 . S
C384 H375 0.950 . S
C384 C383 1.398 . S
C384 C385 1.391 . S
C385 H373 0.950 . S
C385 C381 1.393 . S
C385 C384 1.391 . S
C386 H376 0.950 . S
C386 C387 1.386 . S
C386 C388 1.391 . S
C387 C386 1.386 . S
C387 C391 1.393 . S
C388 H377 0.950 . S
C388 C386 1.391 . S
C388 C389 1.400 . S
C389 C383 1.491 . S
C389 C388 1.400 . S
C389 C390 1.398 . S
C390 H378 0.950 . S
C390 C389 1.398 . S
C390 C391 1.391 . S
C391 H379 0.950 . S
C391 C387 1.393 . S
C391 C390 1.391 . S
H392 C400 0.950 . S
H393 C405 0.950 . S
H394 C402 0.950 . S
H395 C404 0.950 . S
H396 C406 0.950 . S
H397 C408 0.950 . S
H398 C410 0.950 . S
H399 C411 0.950 . S
C400 H392 0.950 . S
C400 C401 1.386 . S
C400 C402 1.391 . S
C401 C400 1.386 . S
C401 C405 1.393 . S
C402 H394 0.950 . S
C402 C400 1.391 . S
C402 C403 1.400 . S
C403 C402 1.400 . S
C403 C404 1.398 . S
C403 C409 1.491 . S
C404 H395 0.950 . S
C404 C403 1.398 . S
C404 C405 1.391 . S
C405 H393 0.950 . S
C405 C401 1.393 . S
C405 C404 1.391 . S
C406 H396 0.950 . S
C406 C407 1.386 . S
C406 C408 1.391 . S
C407 C406 1.386 . S
C407 C411 1.393 . S
C408 H397 0.950 . S
C408 C406 1.391 . S
C408 C409 1.400 . S
C409 C403 1.491 . S
C409 C408 1.400 . S
C409 C410 1.398 . S
C410 H398 0.950 . S
C410 C409 1.398 . S
C410 C411 1.391 . S
C411 H399 0.950 . S
C411 C407 1.393 . S
C411 C410 1.391 . S
H412 C420 0.950 . S
H413 C425 0.950 . S
H414 C422 0.950 . S
H415 C424 0.950 . S
H416 C426 0.950 . S
H417 C428 0.950 . S
H418 C430 0.950 . S
H419 C431 0.950 . S
C420 H412 0.950 . S
C420 C421 1.386 . S
C420 C422 1.391 . S
C421 C420 1.386 . S
C421 C425 1.393 . S
C422 H414 0.950 . S
C422 C420 1.391 . S
C422 C423 1.400 . S
C423 C422 1.400 . S
C423 C424 1.398 . S
C423 C429 1.491 . S
C424 H415 0.950 . S
C424 C423 1.398 . S
C424 C425 1.391 . S
C425 H413 0.950 . S
C425 C421 1.393 . S
C425 C424 1.391 . S
C426 H416 0.950 . S
C426 C427 1.386 . S
C426 C428 1.391 . S
C427 C426 1.386 . S
C427 C431 1.393 . S
C428 H417 0.950 . S
C428 C426 1.391 . S
C428 C429 1.400 . S
C429 C423 1.491 . S
C429 C428 1.400 . S
C429 C430 1.398 . S
C430 H418 0.950 . S
C430 C429 1.398 . S
C430 C431 1.391 . S
C431 H419 0.950 . S
C431 C427 1.393 . S
C431 C430 1.391 . S
C121 C12 1.539 . S
C127 C56 1.535 . S
C141 C15 1.562 . S
C147 C83 1.554 . S
C161 C85 1.557 . S
C167 C40 1.548 . S
C181 C110 1.546 . S
C187 C43 1.540 . S
C201 C84 1.541 . S
C207 C41 1.544 . S
C221 C111 1.549 . S
C227 C42 1.558 . S
C241 C13 1.546 . S
C247 C57 1.555 . S
C261 C14 1.541 . S
C267 C82 1.547 . S
C281 C28 1.965 . S
C287 C1 1.965 . S
C301 C55 1.980 . S
C307 C26 1.980 . S
C321 C68 1.985 . S
C327 C96 1.982 . S
C341 C99 1.983 . S
C347 C71 1.980 . S
C361 C0 1.905 . S
C367 C70 1.920 . S
C381 C97 1.900 . S
C387 C27 1.912 . S
C401 C29 1.911 . S
C407 C98 1.912 . S
C421 C54 1.909 . S
C427 C69 1.906 . S
