# Generated by pormake.
# Topology wjf, (4)-cn, num edge types: 1
# Building blocks:
#     Node 0, Type 0, BuildingBlock: GALJAG_clean_sbu_0, # of connection points: 4
#     Node 1, Type 0, BuildingBlock: GALJAG_clean_sbu_0, # of connection points: 4
#     Node 2, Type 0, BuildingBlock: GALJAG_clean_sbu_0, # of connection points: 4
#     Node 3, Type 0, BuildingBlock: GALJAG_clean_sbu_0, # of connection points: 4
#     Node 4, Type 0, BuildingBlock: GALJAG_clean_sbu_0, # of connection points: 4
#     Node 5, Type 0, BuildingBlock: GALJAG_clean_sbu_0, # of connection points: 4
#     Node 6, Type 0, BuildingBlock: GALJAG_clean_sbu_0, # of connection points: 4
#     Node 7, Type 0, BuildingBlock: GALJAG_clean_sbu_0, # of connection points: 4
#     Node 8, Type 0, BuildingBlock: GALJAG_clean_sbu_0, # of connection points: 4
#     Node 9, Type 0, BuildingBlock: GALJAG_clean_sbu_0, # of connection points: 4
#     Node 10, Type 0, BuildingBlock: GALJAG_clean_sbu_0, # of connection points: 4
#     Node 11, Type 0, BuildingBlock: GALJAG_clean_sbu_0, # of connection points: 4
#     Edge 12, Type (0, 0), BuildingBlock: MIFKUJ_clean_linker_0, # of connection points: 2
#     Edge 13, Type (0, 0), BuildingBlock: MIFKUJ_clean_linker_0, # of connection points: 2
#     Edge 14, Type (0, 0), BuildingBlock: MIFKUJ_clean_linker_0, # of connection points: 2
#     Edge 15, Type (0, 0), BuildingBlock: MIFKUJ_clean_linker_0, # of connection points: 2
#     Edge 16, Type (0, 0), BuildingBlock: MIFKUJ_clean_linker_0, # of connection points: 2
#     Edge 17, Type (0, 0), BuildingBlock: MIFKUJ_clean_linker_0, # of connection points: 2
#     Edge 18, Type (0, 0), BuildingBlock: MIFKUJ_clean_linker_0, # of connection points: 2
#     Edge 19, Type (0, 0), BuildingBlock: MIFKUJ_clean_linker_0, # of connection points: 2
#     Edge 20, Type (0, 0), BuildingBlock: MIFKUJ_clean_linker_0, # of connection points: 2
#     Edge 21, Type (0, 0), BuildingBlock: MIFKUJ_clean_linker_0, # of connection points: 2
#     Edge 22, Type (0, 0), BuildingBlock: MIFKUJ_clean_linker_0, # of connection points: 2
#     Edge 23, Type (0, 0), BuildingBlock: MIFKUJ_clean_linker_0, # of connection points: 2
#     Edge 24, Type (0, 0), BuildingBlock: MIFKUJ_clean_linker_0, # of connection points: 2
#     Edge 25, Type (0, 0), BuildingBlock: MIFKUJ_clean_linker_0, # of connection points: 2
#     Edge 26, Type (0, 0), BuildingBlock: MIFKUJ_clean_linker_0, # of connection points: 2
#     Edge 27, Type (0, 0), BuildingBlock: MIFKUJ_clean_linker_0, # of connection points: 2
#     Edge 28, Type (0, 0), BuildingBlock: MIFKUJ_clean_linker_0, # of connection points: 2
#     Edge 29, Type (0, 0), BuildingBlock: MIFKUJ_clean_linker_0, # of connection points: 2
#     Edge 30, Type (0, 0), BuildingBlock: MIFKUJ_clean_linker_0, # of connection points: 2
#     Edge 31, Type (0, 0), BuildingBlock: MIFKUJ_clean_linker_0, # of connection points: 2
#     Edge 32, Type (0, 0), BuildingBlock: MIFKUJ_clean_linker_0, # of connection points: 2
#     Edge 33, Type (0, 0), BuildingBlock: MIFKUJ_clean_linker_0, # of connection points: 2
#     Edge 34, Type (0, 0), BuildingBlock: MIFKUJ_clean_linker_0, # of connection points: 2
#     Edge 35, Type (0, 0), BuildingBlock: MIFKUJ_clean_linker_0, # of connection points: 2
# Relax obj value: 0.086
# Max RMSD: 0.104
# Mean RMSD: 0.104
data_MOF--net-wjf--node1-GALJAG_clean_sbu_0--edge1-MIFKUJ_clean_linker_0
_symmetry_space_group_name_H-M    P1
_symmetry_Int_Tables_number       1
_symmetry_cell_setting            triclinic
loop_
_symmetry_equiv_pos_as_xyz
'x, y, z'
_cell_length_a     64.266864
_cell_length_b     64.262191
_cell_length_c     36.832512
_cell_angle_alpha  90.012982
_cell_angle_beta   89.969685
_cell_angle_gamma 120.01314
loop_
_atom_site_label
_atom_site_type_symbol
_atom_site_fract_x
_atom_site_fract_y
_atom_site_fract_z
_atom_type_partial_charge
In0 In 0.3267 0.37287 0.09517 0.0
O1 O 0.31915 0.39605 0.05654 0.0
O2 O 0.29229 0.37442 0.09514 0.0
C3 C 0.37276 0.40798 0.10336 0.0
C4 C 0.31959 0.3424 0.03985 0.0
C5 C 0.31556 0.35543 0.16339 0.0
O6 O 0.35578 0.41232 0.09963 0.0
O7 O 0.36646 0.38597 0.10318 0.0
O8 O 0.32033 0.34478 0.13876 0.0
O9 O 0.31624 0.3745 0.15342 0.0
C10 C 0.29836 0.38901 0.06899 0.0
O11 O 0.30269 0.34006 0.05999 0.0
O12 O 0.34007 0.35915 0.04894 0.0
In13 In 0.95476 0.32277 0.4227 0.0
O14 O 0.97547 0.31186 0.38336 0.0
O15 O 0.97153 0.34185 0.36994 0.0
C16 C 0.96333 0.30844 0.48719 0.0
C17 C 0.91081 0.28885 0.40086 0.0
C18 C 0.96296 0.36751 0.43527 0.0
O19 O 0.97951 0.31881 0.4635 0.0
O20 O 0.94297 0.30495 0.47797 0.0
O21 O 0.94345 0.35114 0.42214 0.0
O22 O 0.97815 0.36114 0.44272 0.0
C23 C 0.9793 0.32812 0.36063 0.0
O24 O 0.91408 0.3067 0.41958 0.0
O25 O 0.92958 0.28799 0.39387 0.0
In26 In 0.62454 0.96157 0.73625 0.0
O27 O 0.59979 0.92165 0.72499 0.0
O28 O 0.63757 0.93527 0.72631 0.0
C29 C 0.59083 0.9743 0.74455 0.0
C30 C 0.64545 0.98073 0.67212 0.0
C31 C 0.64275 0.97005 0.80379 0.0
O32 O 0.58564 0.95283 0.73912 0.0
O33 O 0.61304 0.98934 0.74578 0.0
O34 O 0.65254 0.98517 0.77847 0.0
O35 O 0.62413 0.95083 0.79476 0.0
C36 C 0.61688 0.91741 0.72134 0.0
O37 O 0.65771 0.98439 0.70067 0.0
O38 O 0.62304 0.96855 0.67664 0.0
In39 In 0.66873 0.61961 0.0796 0.0
O40 O 0.6755 0.64973 0.03955 0.0
O41 O 0.65769 0.61355 0.02079 0.0
C42 C 0.68028 0.64124 0.14477 0.0
C43 C 0.70523 0.612 0.06425 0.0
C44 C 0.62226 0.58757 0.09212 0.0
O45 O 0.67907 0.65192 0.1167 0.0
O46 O 0.67592 0.62003 0.13963 0.0
O47 O 0.63819 0.58156 0.08988 0.0
O48 O 0.62986 0.60977 0.08826 0.0
C49 C 0.66612 0.63543 0.01315 0.0
O50 O 0.68412 0.59487 0.06944 0.0
O51 O 0.70789 0.63268 0.06816 0.0
In52 In 0.04996 0.66464 0.40971 0.0
O53 O 0.08798 0.67682 0.39083 0.0
O54 O 0.08157 0.70237 0.41799 0.0
C55 C 0.03554 0.61736 0.41085 0.0
C56 C 0.03282 0.67167 0.34669 0.0
C57 C 0.03917 0.67259 0.47719 0.0
O58 O 0.0569 0.63348 0.41721 0.0
O59 O 0.02145 0.62508 0.40342 0.0
O60 O 0.03324 0.6799 0.44931 0.0
O61 O 0.05032 0.66151 0.47071 0.0
C62 C 0.09644 0.69812 0.402 0.0
O63 O 0.02048 0.66585 0.37552 0.0
O64 O 0.05332 0.67391 0.35005 0.0
In65 In 0.37505 0.0537 0.7608 0.0
O66 O 0.34733 0.03007 0.71776 0.0
O67 O 0.38057 0.05973 0.70033 0.0
C68 C 0.35119 0.03724 0.82399 0.0
C69 C 0.38016 0.09755 0.75602 0.0
C70 C 0.40966 0.04181 0.76636 0.0
O71 O 0.34369 0.02549 0.79478 0.0
O72 O 0.37036 0.05712 0.82105 0.0
O73 O 0.41374 0.06288 0.77212 0.0
O74 O 0.38824 0.0269 0.75808 0.0
C75 C 0.36036 0.0424 0.69148 0.0
O76 O 0.39798 0.09442 0.7595 0.0
O77 O 0.35985 0.07858 0.75639 0.0
In78 In 0.62585 0.6733 0.57386 0.0
O79 O 0.60137 0.68915 0.5835 0.0
O80 O 0.63908 0.71251 0.58652 0.0
C81 C 0.58978 0.62814 0.5638 0.0
C82 C 0.64436 0.66905 0.63745 0.0
C83 C 0.64611 0.68243 0.50752 0.0
O84 O 0.58629 0.6451 0.57311 0.0
O85 O 0.61157 0.63406 0.55917 0.0
O86 O 0.6566 0.6803 0.53505 0.0
O87 O 0.62577 0.68011 0.51366 0.0
C88 C 0.61848 0.71018 0.58899 0.0
O89 O 0.65717 0.68454 0.61405 0.0
O90 O 0.6228 0.6557 0.62834 0.0
In91 In 0.95239 0.62078 0.90983 0.0
O92 O 0.91192 0.59618 0.91094 0.0
O93 O 0.92569 0.634 0.9079 0.0
C94 C 0.96556 0.587 0.91047 0.0
C95 C 0.96484 0.63945 0.97723 0.0
C96 C 0.96628 0.64035 0.84328 0.0
O97 O 0.94388 0.58186 0.90941 0.0
O98 O 0.98061 0.6092 0.91153 0.0
O99 O 0.97468 0.65277 0.87179 0.0
O100 O 0.95122 0.61851 0.8487 0.0
C101 C 0.90745 0.61322 0.91 0.0
O102 O 0.97861 0.64919 0.95034 0.0
O103 O 0.94546 0.62058 0.96995 0.0
In104 In 0.33414 0.95629 0.25614 0.0
O105 O 0.32096 0.91789 0.27365 0.0
O106 O 0.29485 0.92703 0.25625 0.0
C107 C 0.38106 0.96979 0.24854 0.0
C108 C 0.33042 0.97435 0.32053 0.0
C109 C 0.32256 0.96475 0.18957 0.0
O110 O 0.36451 0.94817 0.2469 0.0
O111 O 0.37399 0.98459 0.25411 0.0
O112 O 0.32464 0.97783 0.21652 0.0
O113 O 0.32621 0.94762 0.19638 0.0
C114 C 0.29906 0.91107 0.26828 0.0
O115 O 0.33201 0.98503 0.29097 0.0
O116 O 0.33086 0.95509 0.31735 0.0
In117 In 0.36705 0.33648 0.60088 0.0
O118 O 0.39236 0.32182 0.61032 0.0
O119 O 0.35478 0.29695 0.60706 0.0
C120 C 0.40166 0.38243 0.58953 0.0
C121 C 0.34933 0.33406 0.66806 0.0
C122 C 0.34371 0.32729 0.53697 0.0
O123 O 0.4051 0.36494 0.58463 0.0
O124 O 0.38082 0.37672 0.60017 0.0
O125 O 0.33796 0.33557 0.56385 0.0
O126 O 0.36081 0.32344 0.54268 0.0
C127 C 0.37564 0.30018 0.61189 0.0
O128 O 0.3358 0.32655 0.64052 0.0
O129 O 0.37143 0.34337 0.66126 0.0
In130 In 0.04722 0.37276 0.91508 0.0
O131 O 0.02939 0.3432 0.95842 0.0
O132 O 0.0421 0.37942 0.97394 0.0
C133 C 0.03144 0.34784 0.8526 0.0
C134 C 0.09282 0.38229 0.92183 0.0
C135 C 0.03468 0.40643 0.90376 0.0
O136 O 0.01896 0.3414 0.88125 0.0
O137 O 0.05166 0.36658 0.85571 0.0
O138 O 0.05633 0.41139 0.9047 0.0
O139 O 0.01942 0.38446 0.90796 0.0
C140 C 0.03212 0.35773 0.98355 0.0
O141 O 0.08764 0.39867 0.91767 0.0
O142 O 0.07503 0.36122 0.92236 0.0
In143 In 0.67342 0.03958 0.2449 0.0
O144 O 0.68353 0.07433 0.27504 0.0
O145 O 0.70976 0.0734 0.24076 0.0
C146 C 0.62814 0.0311 0.23699 0.0
C147 C 0.67976 0.01849 0.30408 0.0
C148 C 0.68092 0.02713 0.17837 0.0
O149 O 0.64598 0.05208 0.23926 0.0
O150 O 0.63319 0.01452 0.23849 0.0
O151 O 0.67471 0.01294 0.20504 0.0
O152 O 0.68367 0.04752 0.18547 0.0
C153 C 0.70465 0.08538 0.26249 0.0
O154 O 0.69645 0.0304 0.28183 0.0
O155 O 0.65986 0.01654 0.29573 0.0
H156 H 0.32284 0.32126 0.19557 0.0
H157 H 0.31988 0.31166 0.26035 0.0
H158 H 0.29481 0.36151 0.28166 0.0
H159 H 0.29842 0.37165 0.21723 0.0
H160 H 0.33 0.37012 0.32511 0.0
H161 H 0.25756 0.29935 0.29015 0.0
H162 H 0.23215 0.26274 0.25455 0.0
H163 H 0.27467 0.23211 0.29003 0.0
H164 H 0.30056 0.26868 0.32547 0.0
H165 H 0.31459 0.34402 0.51267 0.0
H166 H 0.30183 0.34378 0.44985 0.0
H167 H 0.33592 0.30359 0.41678 0.0
H168 H 0.34877 0.30383 0.47928 0.0
H169 H 0.29193 0.28903 0.38097 0.0
H170 H 0.3667 0.36147 0.40901 0.0
H171 H 0.39258 0.39803 0.44447 0.0
H172 H 0.34519 0.42533 0.42113 0.0
H173 H 0.31884 0.38873 0.38593 0.0
C174 C 0.31635 0.32986 0.21405 0.0
C175 C 0.31101 0.3473 0.20148 0.0
C176 C 0.31453 0.32428 0.25103 0.0
C177 C 0.30697 0.33577 0.27588 0.0
C178 C 0.30073 0.35247 0.26303 0.0
C179 C 0.30278 0.35822 0.2262 0.0
C180 C 0.30767 0.33206 0.31553 0.0
C181 C 0.32118 0.35239 0.33736 0.0
C182 C 0.2967 0.30891 0.33146 0.0
C183 C 0.28112 0.28685 0.31025 0.0
C184 C 0.26161 0.28488 0.29015 0.0
C185 C 0.2471 0.26412 0.27004 0.0
C186 C 0.25182 0.24513 0.26997 0.0
C187 C 0.27104 0.24684 0.29009 0.0
C188 C 0.28562 0.26757 0.31024 0.0
C189 C 0.31893 0.33473 0.49211 0.0
C190 C 0.33287 0.32417 0.50069 0.0
C191 C 0.31167 0.33463 0.45631 0.0
C192 C 0.31815 0.32385 0.42874 0.0
C193 C 0.33073 0.31197 0.43771 0.0
C194 C 0.33816 0.31225 0.47337 0.0
C195 C 0.31413 0.32706 0.39013 0.0
C196 C 0.30024 0.30671 0.36859 0.0
C197 C 0.32474 0.35018 0.37431 0.0
C198 C 0.34066 0.37225 0.39523 0.0
C199 C 0.3617 0.37518 0.4117 0.0
C200 C 0.37647 0.39592 0.4317 0.0
C201 C 0.37049 0.41395 0.43516 0.0
C202 C 0.34977 0.41132 0.4185 0.0
C203 C 0.33492 0.39059 0.39851 0.0
H204 H 0.38193 0.42999 0.45068 0.0
H205 H 0.24056 0.22907 0.25437 0.0
H206 H 0.00686 0.32157 0.51792 0.0
H207 H 0.01487 0.3181 0.58183 0.0
H208 H 0.93869 0.27969 0.60382 0.0
H209 H 0.93061 0.28359 0.54011 0.0
H210 H 0.96054 0.31574 0.64844 0.0
H211 H 0.97297 0.25204 0.61142 0.0
H212 H 0.98912 0.23129 0.5746 0.0
H213 H 0.06089 0.2834 0.60666 0.0
H214 H 0.04522 0.30468 0.64328 0.0
H215 H 0.98592 0.31249 0.83503 0.0
H216 H 0.97092 0.29579 0.77449 0.0
H217 H 0.0423 0.33884 0.73059 0.0
H218 H 0.05736 0.35552 0.79076 0.0
H219 H 0.01772 0.29301 0.69992 0.0
H220 H 0.0049 0.35978 0.72731 0.0
H221 H 0.98889 0.38083 0.76379 0.0
H222 H 0.91714 0.32188 0.74891 0.0
H223 H 0.93279 0.30032 0.71275 0.0
C224 C 0.99182 0.31195 0.53624 0.0
C225 C 0.96813 0.30302 0.52414 0.0
C226 C 0.9964 0.30985 0.57275 0.0
C227 C 0.97736 0.29852 0.59764 0.0
C228 C 0.95365 0.28852 0.58513 0.0
C229 C 0.94907 0.29075 0.54872 0.0
C230 C 0.98231 0.29962 0.63715 0.0
C231 C 0.97256 0.31016 0.6598 0.0
C232 C 0.99835 0.29279 0.65193 0.0
C233 C 0.00791 0.28006 0.62993 0.0
C234 C 0.99222 0.25919 0.61041 0.0
C235 C 0.00129 0.24731 0.58961 0.0
C236 C 0.02602 0.25604 0.58825 0.0
C237 C 0.04174 0.27666 0.60774 0.0
C238 C 0.03276 0.28862 0.62857 0.0
C239 C 0.99845 0.31806 0.81256 0.0
C240 C 0.02273 0.33548 0.81745 0.0
C241 C 0.98988 0.30852 0.77805 0.0
C242 C 0.0055 0.31625 0.74809 0.0
C243 C 0.02998 0.33261 0.75338 0.0
C244 C 0.03851 0.34224 0.78773 0.0
C245 C 0.99618 0.30936 0.71067 0.0
C246 C 0.00522 0.29793 0.68851 0.0
C247 C 0.97944 0.31531 0.69622 0.0
C248 C 0.97003 0.32832 0.71775 0.0
C249 C 0.98573 0.35123 0.73208 0.0
C250 C 0.97672 0.36326 0.75265 0.0
C251 C 0.95202 0.35266 0.75877 0.0
C252 C 0.93627 0.33004 0.74423 0.0
C253 C 0.9452 0.31791 0.72369 0.0
H254 H 0.94508 0.36201 0.77469 0.0
H255 H 0.03301 0.24682 0.57213 0.0
H256 H 0.62626 0.9387 0.86026 0.0
H257 H 0.63721 0.9473 0.92415 0.0
H258 H 0.68894 0.02074 0.89714 0.0
H259 H 0.67831 0.01212 0.83278 0.0
H260 H 0.70585 0.00332 0.94994 0.0
H261 H 0.63527 0.00801 0.92762 0.0
H262 H 0.59428 0.99471 0.90555 0.0
H263 H 0.56598 0.93403 0.97747 0.0
H264 H 0.60688 0.94679 -0.00038 0.0
H265 H 0.70342 0.05648 0.12098 0.0
H266 H 0.70175 0.04474 0.05734 0.0
H267 H 0.65992 0.97006 0.08769 0.0
H268 H 0.66194 0.98166 0.1516 0.0
H269 H 0.63897 0.98734 0.03379 0.0
H270 H 0.71206 0.98666 0.05871 0.0
H271 H 0.7536 0.00363 0.08098 0.0
H272 H 0.77769 0.06142 0.00419 0.0
H273 H 0.73622 0.04499 0.98181 0.0
C274 C 0.64017 0.95662 0.86784 0.0
C275 C 0.65127 0.97483 0.84165 0.0
C276 C 0.64636 0.96151 0.90434 0.0
C277 C 0.66358 0.98475 0.91538 0.0
C278 C 0.67556 0.0027 0.88912 0.0
C279 C 0.66943 0.99778 0.85245 0.0
C280 C 0.66791 0.99052 0.9545 0.0
C281 C 0.69129 3e-05 0.96826 0.0
C282 C 0.64883 0.98605 0.97835 0.0
C283 C 0.62419 0.97821 0.96498 0.0
C284 C 0.62034 0.9917 0.93848 0.0
C285 C 0.59712 0.98429 0.92601 0.0
C286 C 0.57755 0.9635 0.94002 0.0
C287 C 0.58117 0.95011 0.96659 0.0
C288 C 0.60436 0.95743 0.97914 0.0
C289 C 0.69428 0.03755 0.11415 0.0
C290 C 0.68272 0.01995 0.14107 0.0
C291 C 0.69342 0.03089 0.07788 0.0
C292 C 0.68073 0.00657 0.06801 0.0
C293 C 0.66986 0.98892 0.09496 0.0
C294 C 0.67108 0.99556 0.13136 0.0
C295 C 0.67681 -0.00016 0.02928 0.0
C296 C 0.65348 0.99034 0.01554 0.0
C297 C 0.69601 0.00482 0.00546 0.0
C298 C 0.72098 0.01471 0.01882 0.0
C299 C 0.72617 0.00311 0.0468 0.0
C300 C 0.74972 0.0126 0.05939 0.0
C301 C 0.76826 0.03362 0.04407 0.0
C302 C 0.76331 0.04515 0.01606 0.0
C303 C 0.73978 0.03574 0.00338 0.0
H304 H 0.78648 0.04094 0.05386 0.0
H305 H 0.55958 0.9578 0.93036 0.0
H306 H 0.67249 0.61783 0.20879 0.0
H307 H 0.67592 0.63398 0.26953 0.0
H308 H 0.70278 0.70503 0.22478 0.0
H309 H 0.69813 0.68851 0.1633 0.0
H310 H 0.70845 0.66349 0.31167 0.0
H311 H 0.68449 0.73611 0.27811 0.0
H312 H 0.66381 0.74627 0.23082 0.0
H313 H 0.61925 0.67144 0.20517 0.0
H314 H 0.6395 0.66086 0.25254 0.0
H315 H 0.69304 0.70068 0.48683 0.0
H316 H 0.70831 0.70427 0.42469 0.0
H317 H 0.63594 0.67377 0.38345 0.0
H318 H 0.62106 0.67168 0.44479 0.0
H319 H 0.66298 0.70522 0.33903 0.0
H320 H 0.66683 0.6402 0.40107 0.0
H321 H 0.68068 0.62297 0.44876 0.0
H322 H 0.75401 0.67066 0.41788 0.0
H323 H 0.74057 0.68833 0.37023 0.0
C324 C 0.6793 0.63694 0.21184 0.0
C325 C 0.6848 0.65189 0.18136 0.0
C326 C 0.6814 0.64621 0.24665 0.0
C327 C 0.68938 0.67071 0.25184 0.0
C328 C 0.69615 0.68598 0.22146 0.0
C329 C 0.69356 0.67657 0.1864 0.0
C330 C 0.68876 0.67941 0.28896 0.0
C331 C 0.69873 0.67286 0.31761 0.0
C332 C 0.67608 0.69163 0.29687 0.0
C333 C 0.66374 0.69776 0.26844 0.0
C334 C 0.67027 0.72185 0.26236 0.0
C335 C 0.65862 0.72768 0.23557 0.0
C336 C 0.6403 0.70952 0.2149 0.0
C337 C 0.63351 0.68549 0.22108 0.0
C338 C 0.64508 0.67957 0.24787 0.0
C339 C 0.68054 0.69504 0.46432 0.0
C340 C 0.65589 0.68578 0.47048 0.0
C341 C 0.68923 0.697 0.42888 0.0
C342 C 0.67325 0.68894 0.39929 0.0
C343 C 0.64871 0.68027 0.40564 0.0
C344 C 0.64017 0.67893 0.44079 0.0
C345 C 0.68134 0.68791 0.36186 0.0
C346 C 0.67316 0.69631 0.3331 0.0
C347 C 0.69466 0.67636 0.35391 0.0
C348 C 0.70273 0.66578 0.38249 0.0
C349 C 0.68591 0.6471 0.40464 0.0
C350 C 0.69368 0.63725 0.43162 0.0
C351 C 0.71822 0.64578 0.43643 0.0
C352 C 0.73502 0.66412 0.41419 0.0
C353 C 0.72734 0.67406 0.3872 0.0
H354 H 0.7242 0.63813 0.45733 0.0
H355 H 0.63132 0.71407 0.19416 0.0
H356 H 0.95061 0.61573 0.78011 0.0
H357 H 0.96396 0.6303 0.71881 0.0
H358 H 0.01141 0.70149 0.76049 0.0
H359 H 0.99838 0.68673 0.82261 0.0
H360 H 0.96263 0.66225 0.67586 0.0
H361 H 0.06196 0.72688 0.70604 0.0
H362 H 0.0924 0.73458 0.75301 0.0
H363 H 0.05511 0.65975 0.78157 0.0
H364 H 0.02464 0.6516 0.73452 0.0
H365 H 0.0177 0.69806 0.50028 0.0
H366 H 0.00727 0.70231 0.56299 0.0
H367 H 0.03677 0.65883 0.60069 0.0
H368 H 0.04769 0.65512 0.53884 0.0
H369 H 0.04862 0.69425 0.64604 0.0
H370 H 0.97533 0.63547 0.58467 0.0
H371 H 0.944 0.62217 0.53748 0.0
H372 H 0.92766 0.67642 0.57105 0.0
H373 H 0.9591 0.69019 0.61821 0.0
C374 C 0.9638 0.63454 0.77634 0.0
C375 C 0.97362 0.65005 0.80621 0.0
C376 C 0.97129 0.6429 0.74118 0.0
C377 C 0.98876 0.66696 0.73499 0.0
C378 C 0.99807 0.68278 0.76466 0.0
C379 C 0.99062 0.67435 0.80008 0.0
C380 C 0.99805 0.67458 0.69757 0.0
C381 C 0.98151 0.66962 0.66937 0.0
C382 C 0.02263 0.6841 0.68901 0.0
C383 C 0.0409 0.68873 0.71716 0.0
C384 C 0.06031 0.71209 0.72235 0.0
C385 C 0.07755 0.71653 0.74896 0.0
C386 C 0.07563 0.69769 0.77037 0.0
C387 C 0.05652 0.67435 0.76509 0.0
C388 C 0.03925 0.66982 0.73849 0.0
C389 C 0.02208 0.6896 0.52207 0.0
C390 C 0.03337 0.67614 0.51467 0.0
C391 C 0.01611 0.69202 0.55783 0.0
C392 C 0.02111 0.68077 0.58655 0.0
C393 C 0.03287 0.66782 0.57909 0.0
C394 C 0.03897 0.66557 0.54361 0.0
C395 C 0.01306 0.68101 0.62426 0.0
C396 C 0.02986 0.68761 0.65253 0.0
C397 C 0.98861 0.67231 0.63286 0.0
C398 C 0.96974 0.66404 0.60458 0.0
C399 C 0.96516 0.64466 0.58179 0.0
C400 C 0.94737 0.63702 0.55509 0.0
C401 C 0.9339 0.6485 0.55118 0.0
C402 C 0.93815 0.66759 0.57404 0.0
C403 C 0.95594 0.67531 0.60076 0.0
H404 H 0.92014 0.64256 0.5305 0.0
H405 H 0.08899 0.70116 0.79097 0.0
H406 H 0.32794 0.00672 0.16235 0.0
H407 H 0.32421 0.01561 0.09889 0.0
H408 H 0.30118 0.9421 0.06994 0.0
H409 H 0.30597 0.93352 0.13298 0.0
H410 H 0.33402 0.96937 0.02644 0.0
H411 H 0.26269 0.96703 0.06718 0.0
H412 H 0.23721 0.97644 0.10597 0.0
H413 H 0.2795 0.05105 0.0775 0.0
H414 H 0.30547 0.04215 0.03892 0.0
H415 H 0.31884 0.9908 0.8423 0.0
H416 H 0.30493 0.97502 0.90364 0.0
H417 H 0.34384 0.04695 0.94693 0.0
H418 H 0.35803 0.06277 0.88597 0.0
H419 H 0.29739 0.01631 0.9805 0.0
H420 H 0.3714 0.01746 0.94689 0.0
H421 H 0.39569 0.00701 0.90708 0.0
H422 H 0.3452 0.93194 0.92194 0.0
H423 H 0.32041 0.942 0.96142 0.0
C424 C 0.32174 0.99241 0.14248 0.0
C425 C 0.31741 0.9695 0.15245 0.0
C426 C 0.31945 0.99744 0.10623 0.0
C427 C 0.31221 0.97947 0.07953 0.0
C428 C 0.30687 0.95629 0.08993 0.0
C429 C 0.30959 0.9514 0.12597 0.0
C430 C 0.31247 0.98536 0.04043 0.0
C431 C 0.32547 0.97913 0.01641 0.0
C432 C 0.30171 0.99846 0.02716 0.0
C433 C 0.28615 0.00393 0.05036 0.0
C434 C 0.26668 0.98547 0.0694 0.0
C435 C 0.25213 0.99071 0.09131 0.0
C436 C 0.25676 0.01433 0.09425 0.0
C437 C 0.27594 0.03276 0.07522 0.0
C438 C 0.29056 0.02762 0.05328 0.0
C439 C 0.32399 0.00326 0.86482 0.0
C440 C 0.3397 0.02796 0.85954 0.0
C441 C 0.31604 0.99424 0.89976 0.0
C442 C 0.32349 0.00985 0.92972 0.0
C443 C 0.33785 0.03466 0.92411 0.0
C444 C 0.34605 0.04363 0.88934 0.0
C445 C 0.31891 0.00033 0.96719 0.0
C446 C 0.30536 0.00605 0.99075 0.0
C447 C 0.32889 0.98651 0.98009 0.0
C448 C 0.34392 0.98048 0.95672 0.0
C449 C 0.36539 0.99874 0.94142 0.0
C450 C 0.37925 0.99289 0.91896 0.0
C451 C 0.37195 0.96883 0.91189 0.0
C452 C 0.3508 0.95057 0.92737 0.0
C453 C 0.33684 0.95633 0.9498 0.0
H454 H 0.38271 0.96433 0.89449 0.0
H455 H 0.24547 0.01835 0.11123 0.0
H456 H 0.10785 0.34974 0.92888 0.0
H457 H 0.14785 0.35764 0.94595 0.0
H458 H 0.17378 0.43388 0.9452 0.0
H459 H 0.13361 0.42609 0.92837 0.0
H460 H 0.19357 0.38295 0.91877 0.0
H461 H 0.20964 0.45683 0.02139 0.0
H462 H 0.18656 0.47123 0.05646 0.0
H463 H 0.12524 0.4 0.05676 0.0
H464 H 0.1481 0.38511 0.02237 0.0
H465 H 0.3047 0.41502 0.00703 0.0
H466 H 0.27444 0.42109 0.9758 0.0
H467 H 0.22371 0.38281 0.06155 0.0
H468 H 0.25378 0.37698 0.09294 0.0
H469 H 0.22045 0.42078 0.04001 0.0
H470 H 0.22513 0.35482 0.9843 0.0
H471 H 0.24561 0.33637 0.95228 0.0
H472 H 0.26102 0.3847 0.86269 0.0
H473 H 0.241 0.40374 0.89451 0.0
C474 C 0.12214 0.36821 0.93184 0.0
C475 C 0.11758 0.3873 0.92777 0.0
C476 C 0.14502 0.37269 0.94133 0.0
C477 C 0.16368 0.39632 0.9471 0.0
C478 C 0.15953 0.41551 0.9411 0.0
C479 C 0.13661 0.41103 0.93154 0.0
C480 C 0.18653 0.40043 0.96311 0.0
C481 C 0.1997 0.39153 0.94502 0.0
C482 C 0.19427 0.41135 0.99757 0.0
C483 C 0.18048 0.41997 0.01888 0.0
C484 C 0.19126 0.44425 0.02907 0.0
C485 C 0.17822 0.45248 0.04886 0.0
C486 C 0.15442 0.43655 0.05874 0.0
C487 C 0.14365 0.41232 0.04904 0.0
C488 C 0.15663 0.40398 0.02939 0.0
C489 C 0.28721 0.40828 0.01946 0.0
C490 C 0.2815 0.3954 0.05227 0.0
C491 C 0.26995 0.41167 0.00154 0.0
C492 C 0.24679 0.40216 0.0162 0.0
C493 C 0.24149 0.39031 0.0498 0.0
C494 C 0.25867 0.38692 0.06765 0.0
C495 C 0.22738 0.40303 0.99593 0.0
C496 C 0.21481 0.41284 0.01326 0.0
C497 C 0.2199 0.39243 0.96117 0.0
C498 C 0.23186 0.38092 0.94201 0.0
C499 C 0.23308 0.36166 0.95792 0.0
C500 C 0.24457 0.35108 0.93979 0.0
C501 C 0.25468 0.35941 0.90553 0.0
C502 C 0.25325 0.37831 0.88928 0.0
C503 C 0.24184 0.38901 0.90736 0.0
H504 H 0.26355 0.35119 0.89154 0.0
H505 H 0.14434 0.44296 0.07398 0.0
H506 H 0.90144 0.25491 0.34973 0.0
H507 H 0.86232 0.22485 0.32609 0.0
H508 H 0.8274 0.25135 0.39718 0.0
H509 H 0.86675 0.28185 0.42088 0.0
H510 H 0.80748 0.19999 0.39728 0.0
H511 H 0.8286 0.26425 0.31334 0.0
H512 H 0.85511 0.29641 0.271 0.0
H513 H 0.85923 0.24452 0.20252 0.0
H514 H 0.83307 0.21208 0.24473 0.0
H515 H 0.69877 0.11423 0.31106 0.0
H516 H 0.7299 0.15331 0.33416 0.0
H517 H 0.78204 0.15027 0.26381 0.0
H518 H 0.75106 0.11161 0.24024 0.0
H519 H 0.78878 0.19462 0.26573 0.0
H520 H 0.77586 0.13279 0.35249 0.0
H521 H 0.75207 0.09947 0.39489 0.0
H522 H 0.73526 0.1454 0.45785 0.0
H523 H 0.75868 0.17891 0.41546 0.0
C524 C 0.88545 0.25437 0.36035 0.0
C525 C 0.88707 0.27066 0.38714 0.0
C526 C 0.86316 0.23729 0.34669 0.0
C527 C 0.84209 0.23612 0.35968 0.0
C528 C 0.84355 0.25214 0.38676 0.0
C529 C 0.86596 0.26949 0.40019 0.0
C530 C 0.81863 0.21754 0.34535 0.0
C531 C 0.803 0.19907 0.3687 0.0
C532 C 0.81325 0.21624 0.30793 0.0
C533 C 0.82891 0.23572 0.28233 0.0
C534 C 0.83529 0.2597 0.28939 0.0
C535 C 0.85023 0.27798 0.26538 0.0
C536 C 0.85881 0.27249 0.23407 0.0
C537 C 0.85252 0.24873 0.22675 0.0
C538 C 0.83761 0.23038 0.25069 0.0
C539 C 0.71682 0.12209 0.30023 0.0
C540 C 0.72258 0.10984 0.27408 0.0
C541 C 0.73456 0.14434 0.3135 0.0
C542 C 0.75832 0.15452 0.301 0.0
C543 C 0.76382 0.14274 0.2738 0.0
C544 C 0.74612 0.1206 0.26047 0.0
C545 C 0.77792 0.17668 0.31746 0.0
C546 C 0.79287 0.19582 0.29449 0.0
C547 C 0.7829 0.17841 0.35514 0.0
C548 C 0.76873 0.15825 0.38053 0.0
C549 C 0.76689 0.13572 0.37518 0.0
C550 C 0.75352 0.11681 0.39924 0.0
C551 C 0.74209 0.12029 0.42898 0.0
C552 C 0.74406 0.14271 0.43475 0.0
C553 C 0.75738 0.16166 0.41071 0.0
H554 H 0.73178 0.10565 0.44762 0.0
H555 H 0.8703 0.28665 0.21545 0.0
H556 H 0.65134 0.90558 0.70915 0.0
H557 H 0.64616 0.86833 0.68336 0.0
H558 H 0.56941 0.83913 0.67972 0.0
H559 H 0.57445 0.87656 0.70576 0.0
H560 H 0.58306 0.80626 0.70433 0.0
H561 H 0.59847 0.85875 0.60394 0.0
H562 H 0.61955 0.89674 0.56967 0.0
H563 H 0.68408 0.89242 0.56975 0.0
H564 H 0.66351 0.85458 0.60453 0.0
H565 H 0.57595 0.70983 0.59685 0.0
H566 H 0.5705 0.74343 0.61562 0.0
H567 H 0.64744 0.78938 0.62245 0.0
H568 H 0.65299 0.75616 0.60324 0.0
H569 H 0.62689 0.81208 0.59033 0.0
H570 H 0.61303 0.76313 0.69802 0.0
H571 H 0.59249 0.7256 0.73356 0.0
H572 H 0.52517 0.72362 0.71983 0.0
H573 H 0.5453 0.761 0.68381 0.0
C574 C 0.63332 0.89118 0.70319 0.0
C575 C 0.6133 0.894 0.70924 0.0
C576 C 0.63041 0.86997 0.6883 0.0
C577 C 0.60745 0.85122 0.67909 0.0
C578 C 0.58728 0.85352 0.68648 0.0
C579 C 0.59019 0.87485 0.70132 0.0
C580 C 0.60488 0.82952 0.66111 0.0
C581 C 0.59219 0.80737 0.679 0.0
C582 C 0.61701 0.83116 0.62825 0.0
C583 C 0.62946 0.85387 0.60706 0.0
C584 C 0.61721 0.86598 0.59688 0.0
C585 C 0.62906 0.88748 0.57732 0.0
C586 C 0.65314 0.89701 0.56757 0.0
C587 C 0.66542 0.88502 0.57732 0.0
C588 C 0.65366 0.86352 0.59692 0.0
C589 C 0.59167 0.72716 0.60215 0.0
C590 C 0.61489 0.7304 0.59874 0.0
C591 C 0.58853 0.74628 0.61295 0.0
C592 C 0.60857 0.76881 0.62071 0.0
C593 C 0.63174 0.77214 0.61652 0.0
C594 C 0.63488 0.75313 0.60567 0.0
C595 C 0.60573 0.78895 0.63416 0.0
C596 C 0.61738 0.81084 0.61531 0.0
C597 C 0.59266 0.78707 0.66613 0.0
C598 C 0.58061 0.76467 0.68787 0.0
C599 C 0.59382 0.75458 0.70235 0.0
C600 C 0.58226 0.73336 0.72262 0.0
C601 C 0.55753 0.72219 0.72885 0.0
C602 C 0.54432 0.73226 0.71492 0.0
C603 C 0.55579 0.75346 0.69459 0.0
H604 H 0.54861 0.70577 0.74454 0.0
H605 H 0.66228 0.91365 0.55241 0.0
H606 H 0.75048 0.64663 0.04649 0.0
H607 H 0.78122 0.64136 0.01603 0.0
H608 H 0.73513 0.5644 0.01993 0.0
H609 H 0.70397 0.56951 0.05044 0.0
H610 H 0.78546 0.58228 0.03745 0.0
H611 H 0.73649 0.58853 0.94464 0.0
H612 H 0.71508 0.60675 0.91485 0.0
H613 H 0.78184 0.67243 0.89933 0.0
H614 H 0.80362 0.65476 0.92961 0.0
H615 H 0.86588 0.57062 0.92013 0.0
H616 H 0.82722 0.56518 0.94053 0.0
H617 H 0.8558 0.64182 0.935 0.0
H618 H 0.89427 0.64734 0.91405 0.0
H619 H 0.80946 0.61783 0.91424 0.0
H620 H 0.85733 0.61567 0.01358 0.0
H621 H 0.88048 0.60058 0.04666 0.0
H622 H 0.81777 0.53041 0.05271 0.0
H623 H 0.79434 0.54504 0.01916 0.0
C624 C 0.74695 0.62855 0.04134 0.0
C625 C 0.72478 0.60846 0.05058 0.0
C626 C 0.7645 0.6256 0.02382 0.0
C627 C 0.7602 0.60252 0.01529 0.0
C628 C 0.73862 0.58234 0.02617 0.0
C629 C 0.72091 0.58529 0.04357 0.0
C630 C 0.77806 0.59984 0.99374 0.0
C631 C 0.79038 0.58951 0.01018 0.0
C632 C 0.78467 0.6098 0.95851 0.0
C633 C 0.77168 0.62035 0.93962 0.0
C634 C 0.7466 0.60691 0.93508 0.0
C635 C 0.73439 0.61714 0.91809 0.0
C636 C 0.74709 0.64074 0.90525 0.0
C637 C 0.77203 0.65415 0.90929 0.0
C638 C 0.78432 0.64402 0.92633 0.0
C639 C 0.86373 0.58624 0.92251 0.0
C640 C 0.88313 0.60943 0.91595 0.0
C641 C 0.84169 0.58311 0.93427 0.0
C642 C 0.83884 0.60314 0.93989 0.0
C643 C 0.85767 0.62613 0.93093 0.0
C644 C 0.87966 0.62926 0.91906 0.0
C645 C 0.81719 0.6006 0.95814 0.0
C646 C 0.80419 0.61005 0.94114 0.0
C647 C 0.81017 0.59014 0.99308 0.0
C648 C 0.82417 0.58136 0.01348 0.0
C649 C 0.84853 0.59698 0.02172 0.0
C650 C 0.8617 0.58852 0.04059 0.0
C651 C 0.85062 0.56453 0.05168 0.0
C652 C 0.82634 0.54898 0.04403 0.0
C653 C 0.81311 0.55734 0.02509 0.0
H654 H 0.86084 0.55802 0.06629 0.0
H655 H 0.7376 0.64863 0.89213 0.0
H656 H 0.12281 0.74166 0.4348 0.0
H657 H 0.16011 0.77584 0.41236 0.0
H658 H 0.16092 0.73256 0.32327 0.0
H659 H 0.12445 0.69805 0.34681 0.0
H660 H 0.20441 0.76197 0.34061 0.0
H661 H 0.13606 0.76995 0.31495 0.0
H662 H 0.0991 0.77115 0.3286 0.0
H663 H 0.13898 0.83208 0.39824 0.0
H664 H 0.17614 0.83104 0.38536 0.0
H665 H 0.25301 0.88787 0.24341 0.0
H666 H 0.22022 0.84874 0.263 0.0
H667 H 0.26852 0.84162 0.3368 0.0
H668 H 0.30153 0.88002 0.31569 0.0
H669 H 0.19954 0.83595 0.32288 0.0
H670 H 0.25034 0.78432 0.35707 0.0
H671 H 0.28423 0.78058 0.33333 0.0
H672 H 0.27463 0.80303 0.2279 0.0
H673 H 0.2405 0.80659 0.25086 0.0
C674 C 0.1313 0.73936 0.41091 0.0
C675 C 0.12072 0.71737 0.3923 0.0
C676 C 0.15249 0.75889 0.39797 0.0
C677 C 0.16292 0.75696 0.36551 0.0
C678 C 0.15315 0.73454 0.34823 0.0
C679 C 0.1323 0.71484 0.36169 0.0
C680 C 0.18277 0.77861 0.3481 0.0
C681 C 0.20341 0.77818 0.33677 0.0
C682 C 0.18109 0.79946 0.34182 0.0
C683 C 0.15883 0.80028 0.34945 0.0
C684 C 0.13691 0.78352 0.33334 0.0
C685 C 0.11593 0.78417 0.34092 0.0
C686 C 0.11668 0.80164 0.36434 0.0
C687 C 0.13843 0.81854 0.38015 0.0
C688 C 0.15946 0.81794 0.37269 0.0
C689 C 0.25664 0.8777 0.26336 0.0
C690 C 0.27973 0.88683 0.278 0.0
C691 C 0.23791 0.85541 0.27464 0.0
C692 C 0.24187 0.84208 0.30124 0.0
C693 C 0.26507 0.8512 0.31562 0.0
C694 C 0.28391 0.87322 0.30371 0.0
C695 C 0.22144 0.81952 0.31565 0.0
C696 C 0.20064 0.81978 0.32656 0.0
C697 C 0.22257 0.79819 0.31993 0.0
C698 C 0.243 0.79595 0.30582 0.0
C699 C 0.2554 0.78837 0.32879 0.0
C700 C 0.27467 0.7863 0.31548 0.0
C701 C 0.28162 0.79164 0.27917 0.0
C702 C 0.26928 0.79899 0.25606 0.0
C703 C 0.25 0.80107 0.26923 0.0
H704 H 0.29655 0.79003 0.26891 0.0
H705 H 0.10042 0.80212 0.37019 0.0
H706 H 0.34453 0.10729 0.74093 0.0
H707 H 0.34899 0.14447 0.71596 0.0
H708 H 0.42604 0.17814 0.72513 0.0
H709 H 0.42177 0.14079 0.75009 0.0
H710 H 0.40542 0.20823 0.74456 0.0
H711 H 0.40607 0.1587 0.64789 0.0
H712 H 0.39106 0.12044 0.61487 0.0
H713 H 0.32387 0.11777 0.59577 0.0
H714 H 0.33832 0.15581 0.62927 0.0
H715 H 0.41826 0.30283 0.62924 0.0
H716 H 0.42407 0.2702 0.65172 0.0
H717 H 0.34817 0.22037 0.6396 0.0
H718 H 0.3423 0.25271 0.61674 0.0
H719 H 0.37448 0.20033 0.6188 0.0
H720 H 0.37132 0.24615 0.72095 0.0
H721 H 0.38441 0.28303 0.75693 0.0
H722 H 0.45497 0.29189 0.76709 0.0
H723 H 0.44234 0.2552 0.73073 0.0
C724 C 0.36242 0.12272 0.7383 0.0
C725 C 0.38282 0.12111 0.74712 0.0
C726 C 0.36492 0.1439 0.72395 0.0
C727 C 0.38784 0.16381 0.71826 0.0
C728 C 0.40823 0.16285 0.72924 0.0
C729 C 0.40574 0.14155 0.74345 0.0
C730 C 0.39027 0.18484 0.69843 0.0
C731 C 0.39915 0.20674 0.71682 0.0
C732 C 0.38178 0.1826 0.66241 0.0
C733 C 0.37324 0.16004 0.64134 0.0
C734 C 0.38804 0.14989 0.63685 0.0
C735 C 0.37964 0.12824 0.61804 0.0
C736 C 0.35651 0.11665 0.60331 0.0
C737 C 0.34178 0.12676 0.60722 0.0
C738 C 0.35008 0.14838 0.62609 0.0
C739 C 0.40289 0.28484 0.6309 0.0
C740 C 0.3798 0.2803 0.62154 0.0
C741 C 0.40622 0.26627 0.64385 0.0
C742 C 0.38649 0.24297 0.64776 0.0
C743 C 0.36363 0.23824 0.63681 0.0
C744 C 0.3603 0.25674 0.62387 0.0
C745 C 0.38916 0.2237 0.66517 0.0
C746 C 0.38122 0.20205 0.64629 0.0
C747 C 0.39842 0.22615 0.70079 0.0
C748 C 0.40598 0.24812 0.72277 0.0
C749 C 0.38967 0.25608 0.73062 0.0
C750 C 0.397 0.27692 0.75112 0.0
C751 C 0.42053 0.28983 0.76419 0.0
C752 C 0.43676 0.28189 0.75688 0.0
C753 C 0.42953 0.26108 0.73634 0.0
H754 H 0.42617 0.30596 0.78006 0.0
H755 H 0.35003 0.09987 0.58881 0.0
H756 H 0.30266 0.31511 0.69157 0.0
H757 H 0.28834 0.30719 0.7548 0.0
H758 H 0.36137 0.33683 0.7921 0.0
H759 H 0.3757 0.34485 0.72969 0.0
H760 H 0.33009 0.29248 0.82282 0.0
H761 H 0.33366 0.36858 0.79632 0.0
H762 H 0.32203 0.3951 0.76491 0.0
H763 H 0.24869 0.34952 0.79775 0.0
H764 H 0.25983 0.32246 0.82876 0.0
H765 H 0.35303 0.34066 0.9969 0.0
H766 H 0.3482 0.32792 0.9337 0.0
H767 H 0.27239 0.30372 0.93972 0.0
H768 H 0.27719 0.31663 0.00329 0.0
H769 H 0.29295 0.33429 0.88512 0.0
H770 H 0.29102 0.26327 0.92265 0.0
H771 H 0.3027 0.23756 0.95631 0.0
H772 H 0.37183 0.27274 0.90452 0.0
H773 H 0.36074 0.29894 0.87095 0.0
C774 C 0.31561 0.32009 0.71336 0.0
C775 C 0.34029 0.33063 0.70573 0.0
C776 C 0.30741 0.31553 0.74936 0.0
C777 C 0.32381 0.32132 0.77803 0.0
C778 C 0.34841 0.33206 0.77034 0.0
C779 C 0.35658 0.33677 0.73463 0.0
C780 C 0.31585 0.31629 0.81635 0.0
C781 C 0.32191 0.30156 0.83654 0.0
C782 C 0.30422 0.3273 0.83378 0.0
C783 C 0.29749 0.34324 0.81425 0.0
C784 C 0.31499 0.364 0.79635 0.0
C785 C 0.3085 0.37917 0.77872 0.0
C786 C 0.28461 0.37392 0.77915 0.0
C787 C 0.26716 0.35349 0.79724 0.0
C788 C 0.27355 0.33821 0.8148 0.0
C789 C 0.3352 0.33197 0.98511 0.0
C790 C 0.31552 0.32969 0.00494 0.0
C791 C 0.33242 0.32457 0.94898 0.0
C792 C 0.30989 0.31473 0.93198 0.0
C793 C 0.2899 0.31116 0.95236 0.0
C794 C 0.29265 0.31843 0.9887 0.0
C795 C 0.30828 0.3114 0.89203 0.0
C796 C 0.30039 0.32452 0.87141 0.0
C797 C 0.31817 0.29885 0.87418 0.0
C798 C 0.32504 0.28315 0.89434 0.0
C799 C 0.30878 0.26566 0.91861 0.0
C800 C 0.31529 0.25097 0.93766 0.0
C801 C 0.338 0.25353 0.93258 0.0
C802 C 0.35424 0.27076 0.90841 0.0
C803 C 0.34783 0.28551 0.88931 0.0
H804 H 0.34301 0.24213 0.94735 0.0
H805 H 0.27964 0.38574 0.76559 0.0
H806 H 0.99413 0.36472 0.31251 0.0
H807 H 0.00316 0.36424 0.24834 0.0
H808 H 0.9949 0.29376 0.26085 0.0
H809 H 0.986 0.2942 0.32569 0.0
H810 H 0.0326 0.32423 0.21224 0.0
H811 H 0.9492 0.29509 0.22952 0.0
H812 H 0.91376 0.2951 0.25513 0.0
H813 H 0.93448 0.36226 0.20229 0.0
H814 H 0.9703 0.36287 0.17687 0.0
H815 H 0.02049 0.31481 0.01594 0.0
H816 H 0.01084 0.30419 0.08034 0.0
H817 H 0.01794 0.37355 0.10073 0.0
H818 H 0.02778 0.38431 0.03698 0.0
H819 H 0.97655 0.33481 0.13187 0.0
H820 H 0.06275 0.36536 0.12179 0.0
H821 H 0.09832 0.365 0.09743 0.0
H822 H 0.0708 0.29293 0.1363 0.0
H823 H 0.0349 0.29277 0.16054 0.0
C824 C 0.99468 0.34929 0.30183 0.0
C825 C 0.98911 0.32938 0.32396 0.0
C826 C -0.00022 0.34902 0.26514 0.0
C827 C -0.00081 0.32875 0.24977 0.0
C828 C 0.99531 0.3095 0.27224 0.0
C829 C 0.99026 0.30979 0.30921 0.0
C830 C 0.00075 0.3273 0.20984 0.0
C831 C 0.02008 0.32602 0.19457 0.0
C832 C 0.98435 0.32959 0.18687 0.0
C833 C 0.96254 0.32909 0.20146 0.0
C834 C 0.94628 0.30994 0.22353 0.0
C835 C 0.92612 0.30983 0.23801 0.0
C836 C 0.9219 0.32869 0.2304 0.0
C837 C 0.93778 0.34766 0.20818 0.0
C838 C 0.95801 0.34788 0.19368 0.0
C839 C 0.01982 0.32767 0.03419 0.0
C840 C 0.02492 0.35039 0.02155 0.0
C841 C 0.0144 0.32163 0.07089 0.0
C842 C 0.01378 0.33815 0.09521 0.0
C843 C 0.0183 0.36056 0.08236 0.0
C844 C 0.02399 0.3667 0.04596 0.0
C845 C 0.00886 0.3326 0.13433 0.0
C846 C 0.98879 0.3325 0.14945 0.0
C847 C 0.02442 0.32879 0.157 0.0
C848 C 0.04602 0.32894 0.14255 0.0
C849 C 0.06419 0.34936 0.12484 0.0
C850 C 0.08443 0.34927 0.11112 0.0
C851 C 0.08678 0.32893 0.11518 0.0
C852 C 0.06893 0.30866 0.1331 0.0
C853 C 0.04864 0.30865 0.14685 0.0
H854 H 0.10247 0.3289 0.10454 0.0
H855 H 0.90629 0.3286 0.24168 0.0
H856 H 0.69326 0.00558 0.653 0.0
H857 H 0.70984 0.01221 0.59103 0.0
H858 H 0.63795 0.97665 0.54736 0.0
H859 H 0.62141 0.97031 0.60838 0.0
H860 H 0.6681 0.95886 0.52122 0.0
H861 H 0.66909 0.03453 0.54466 0.0
H862 H 0.68276 0.07287 0.57683 0.0
H863 H 0.75598 0.09511 0.54987 0.0
H864 H 0.74274 0.0567 0.518 0.0
H865 H 0.64573 0.98613 0.34947 0.0
H866 H 0.65106 0.97823 0.41246 0.0
H867 H 0.7277 0.02512 0.40246 0.0
H868 H 0.72241 0.03308 0.33894 0.0
H869 H 0.70943 0.03775 0.45865 0.0
H870 H 0.70654 0.96663 0.42052 0.0
H871 H 0.69294 0.92875 0.38716 0.0
H872 H 0.62454 0.89758 0.44085 0.0
H873 H 0.63751 0.93538 0.47407 0.0
C874 C 0.68108 -0.00049 0.63008 0.0
C875 C 0.65606 0.98742 0.63549 0.0
C876 C 0.69055 0.00321 0.59484 0.0
C877 C 0.67505 0.99466 0.56481 0.0
C878 C 0.65016 0.98315 0.57026 0.0
C879 C 0.64076 0.97969 0.60517 0.0
C880 C 0.68415 0.99715 0.52731 0.0
C881 C 0.67725 0.97607 0.5074 0.0
C882 C 0.69708 0.0197 0.50995 0.0
C883 C 0.70497 0.04258 0.52954 0.0
C884 C 0.68813 0.04746 0.54602 0.0
C885 C 0.69579 0.06923 0.56409 0.0
C886 C 0.72023 0.08637 0.56555 0.0
C887 C 0.73706 0.08179 0.54885 0.0
C888 C 0.72949 0.06001 0.53081 0.0
C889 C 0.66378 0.99426 0.36038 0.0
C890 C 0.68364 0.01026 0.33943 0.0
C891 C 0.66684 0.98964 0.39634 0.0
C892 C 0.68981 0.00097 0.41211 0.0
C893 C 0.70985 0.01609 0.39072 0.0
C894 C 0.70681 0.02054 0.35447 0.0
C895 C 0.69201 0.99929 0.45189 0.0
C896 C 0.70108 0.0205 0.4724 0.0
C897 C 0.68109 0.97682 0.46983 0.0
C898 C 0.67302 0.95397 0.44975 0.0
C899 C 0.68852 0.95178 0.42502 0.0
C900 C 0.68093 0.93029 0.40615 0.0
C901 C 0.65789 0.91078 0.41186 0.0
C902 C 0.64239 0.91271 0.43647 0.0
C903 C 0.64988 0.93417 0.45538 0.0
H904 H 0.65205 0.89415 0.39724 0.0
H905 H 0.72612 0.10324 0.5795 0.0
H906 H 0.68225 0.7046 0.67507 0.0
H907 H 0.69082 0.70416 0.73996 0.0
H908 H 0.63389 0.63022 0.74682 0.0
H909 H 0.62488 0.63085 0.68272 0.0
H910 H 0.628 0.65627 0.79604 0.0
H911 H 0.69483 0.64803 0.7532 0.0
H912 H 0.73228 0.66019 0.71926 0.0
H913 H 0.76779 0.72641 0.77896 0.0
H914 H 0.73043 0.71477 0.81295 0.0
H915 H 0.64145 0.6072 0.95625 0.0
H916 H 0.64227 0.61909 0.89327 0.0
H917 H 0.69141 0.693 0.92144 0.0
H918 H 0.69065 0.68114 0.98521 0.0
H919 H 0.7043 0.67553 0.85727 0.0
H920 H 0.63773 0.68045 0.90513 0.0
H921 H 0.60028 0.66647 0.93996 0.0
H922 H 0.56411 0.60484 0.87045 0.0
H923 H 0.60144 0.61825 0.83552 0.0
C924 C 0.67198 0.68814 0.69037 0.0
C925 C 0.6528 0.66781 0.6741 0.0
C926 C 0.67687 0.6879 0.72739 0.0
C927 C 0.66288 0.66719 0.74829 0.0
C928 C 0.64474 0.64647 0.73132 0.0
C929 C 0.63966 0.64682 0.69467 0.0
C930 C 0.66538 0.66732 0.78832 0.0
C931 C 0.64469 0.66035 0.80933 0.0
C932 C 0.68736 0.67364 0.80585 0.0
C933 C 0.70975 0.68067 0.78526 0.0
C934 C 0.71055 0.66529 0.75883 0.0
C935 C 0.73178 0.67207 0.73965 0.0
C936 C 0.75237 0.6941 0.74685 0.0
C937 C 0.7518 0.70938 0.77334 0.0
C938 C 0.73062 0.7027 0.79258 0.0
C939 C 0.65234 0.62603 0.9492 0.0
C940 C 0.66587 0.64329 0.97565 0.0
C941 C 0.65279 0.63278 0.91319 0.0
C942 C 0.66679 0.65691 0.90284 0.0
C943 C 0.68048 0.67428 0.92904 0.0
C944 C 0.67989 0.66753 0.96537 0.0
C945 C 0.66671 0.6635 0.86444 0.0
C946 C 0.68778 0.67186 0.84386 0.0
C947 C 0.64504 0.65833 0.8471 0.0
C948 C 0.62244 0.65032 0.86781 0.0
C949 C 0.62184 0.66384 0.89741 0.0
C950 C 0.60062 0.65603 0.91715 0.0
C951 C 0.57984 0.63477 0.90745 0.0
C952 C 0.58022 0.62131 0.87793 0.0
C953 C 0.6014 0.62903 0.85811 0.0
H954 H 0.56343 0.62875 0.92278 0.0
H955 H 0.76879 0.69931 0.73198 0.0
H956 H 0.05927 0.69141 0.28598 0.0
H957 H 0.0448 0.6915 0.22491 0.0
H958 H 0.972 0.65776 0.26496 0.0
H959 H 0.98648 0.65753 0.32663 0.0
H960 H 0.97683 0.63385 0.20769 0.0
H961 H 0.99891 0.71495 0.23361 0.0
H962 H 0.02521 0.75641 0.25513 0.0
H963 H 0.07715 0.76717 0.17309 0.0
H964 H 0.05133 0.72566 0.15138 0.0
H965 H 0.93349 0.63019 0.03233 0.0
H966 H 0.94267 0.64145 0.09602 0.0
H967 H 0.01846 0.67979 0.07107 0.0
H968 H 0.00922 0.6693 0.00666 0.0
H969 H 0.0085 0.70295 0.12263 0.0
H970 H 0.99007 0.62126 0.1029 0.0
H971 H 0.96522 0.5795 0.08152 0.0
H972 H 0.90805 0.56976 0.15262 0.0
H973 H 0.93247 0.61158 0.17411 0.0
C974 C 0.04019 0.68434 0.28195 0.0
C975 C 0.02396 0.67433 0.31101 0.0
C976 C 0.03197 0.68457 0.24703 0.0
C977 C 0.00734 0.67481 0.24039 0.0
C978 C 0.9911 0.66548 0.26957 0.0
C979 C -0.00063 0.66541 0.30473 0.0
C980 C 0.99865 0.67228 0.20247 0.0
C981 C 0.98328 0.64904 0.18931 0.0
C982 C 0.00769 0.69202 0.17825 0.0
C983 C 0.02322 0.7171 0.19101 0.0
C984 C 0.01601 0.72609 0.22031 0.0
C985 C 0.03083 0.74962 0.23251 0.0
C986 C 0.05285 0.7644 0.21553 0.0
C987 C 0.06008 0.7557 0.18622 0.0
C988 C 0.04534 0.73218 0.17392 0.0
C989 C 0.95211 0.64128 0.04034 0.0
C990 C 0.9707 0.64862 0.01473 0.0
C991 C 0.95733 0.64766 0.07676 0.0
C992 C 0.98127 0.66096 0.0885 0.0
C993 C -0.00015 0.6694 0.06265 0.0
C994 C 0.99459 0.66337 0.02593 0.0
C995 C 0.98688 0.66451 0.1279 0.0
C996 C 0.00173 0.68786 0.14122 0.0
C997 C 0.97757 0.64484 0.15234 0.0
C998 C 0.96299 0.6196 0.13984 0.0
C999 C 0.97214 0.61024 0.11382 0.0
C1000 C 0.95815 0.58657 0.1017 0.0
C1001 C 0.93505 0.57201 0.11563 0.0
C1002 C 0.92593 0.58107 0.14182 0.0
C1003 C 0.93985 0.60474 0.15401 0.0
H1004 H 0.92423 0.55369 0.10619 0.0
H1005 H 0.0643 0.7826 0.22504 0.0
H1006 H 0.31189 0.94842 0.38191 0.0
H1007 H 0.31271 0.96343 0.44314 0.0
H1008 H 0.34706 0.036 0.40219 0.0
H1009 H 0.34577 0.02094 0.34029 0.0
H1010 H 0.3712 0.02616 0.46195 0.0
H1011 H 0.29421 0.01598 0.43053 0.0
H1012 H 0.25281 0.99394 0.40685 0.0
H1013 H 0.23357 0.94012 0.48929 0.0
H1014 H 0.27496 0.96164 0.51317 0.0
H1015 H 0.37739 0.0737 0.63521 0.0
H1016 H 0.3681 0.06506 0.57085 0.0
H1017 H 0.31815 0.99081 0.59651 0.0
H1018 H 0.32672 -0.00029 0.66139 0.0
H1019 H 0.30123 0.00473 0.54215 0.0
H1020 H 0.3762 0.00943 0.56925 0.0
H1021 H 0.41741 0.02768 0.59345 0.0
H1022 H 0.4405 0.08691 0.5196 0.0
H1023 H 0.39929 0.06919 0.49537 0.0
C1024 C 0.31929 0.96755 0.38584 0.0
C1025 C 0.32884 0.98356 0.35647 0.0
C1026 C 0.31965 0.97607 0.42078 0.0
C1027 C 0.32986 0.00078 0.42708 0.0
C1028 C 0.33899 0.01684 0.39772 0.0
C1029 C 0.3382 0.00825 0.36249 0.0
C1030 C 0.33272 0.00966 0.46482 0.0
C1031 C 0.35597 0.02203 0.47933 0.0
C1032 C 0.31272 0.00329 0.48765 0.0
C1033 C 0.28776 0.99035 0.47347 0.0
C1034 C 0.28121 0.99934 0.44344 0.0
C1035 C 0.25773 0.98696 0.43001 0.0
C1036 C 0.24058 0.96562 0.44651 0.0
C1037 C 0.24687 0.95664 0.47653 0.0
C1038 C 0.27033 0.96895 0.49005 0.0
C1039 C 0.36427 0.05557 0.62714 0.0
C1040 C 0.35302 0.03725 0.65313 0.0
C1041 C 0.35901 0.05064 0.59035 0.0
C1042 C 0.34288 0.02716 0.57874 0.0
C1043 C 0.33075 0.00905 0.60483 0.0
C1044 C 0.3357 0.01409 0.64183 0.0
C1045 C 0.33978 0.02128 0.53941 0.0
C1046 C 0.31651 0.00929 0.52467 0.0
C1047 C 0.35976 0.02748 0.51644 0.0
C1048 C 0.3846 0.03812 0.53078 0.0
C1049 C 0.39002 0.02644 0.55836 0.0
C1050 C 0.41339 0.03667 0.57205 0.0
C1051 C 0.43155 0.05846 0.55812 0.0
C1052 C 0.4264 0.07005 0.5304 0.0
C1053 C 0.40304 0.05992 0.51667 0.0
H1054 H 0.44963 0.06635 0.56875 0.0
H1055 H 0.22241 0.95606 0.43607 0.0
H1056 H 0.39061 0.45647 0.10549 0.0
H1057 H 0.43285 0.48811 0.10803 0.0
H1058 H 0.45431 0.43434 0.11009 0.0
H1059 H 0.41214 0.40264 0.10822 0.0
H1060 H 0.48029 0.46989 0.15726 0.0
H1061 H 0.45673 0.46375 0.03184 0.0
H1062 H 0.43174 0.46342 0.9808 0.0
H1063 H 0.44894 0.53544 0.00683 0.0
H1064 H 0.47378 0.53607 0.05835 0.0
H1065 H 0.6016 0.53896 0.09946 0.0
H1066 H 0.55885 0.50961 0.10595 0.0
H1067 H 0.54226 0.5669 0.10399 0.0
H1068 H 0.58498 0.59634 0.09699 0.0
H1069 H 0.51343 0.53102 0.05927 0.0
H1070 H 0.53913 0.53786 0.18284 0.0
H1071 H 0.56439 0.53798 0.2333 0.0
H1072 H 0.54356 0.46458 0.21038 0.0
H1073 H 0.51843 0.46411 0.15944 0.0
C1074 C 0.40434 0.45141 0.10668 0.0
C1075 C 0.39812 0.42711 0.10645 0.0
C1076 C 0.42845 0.46949 0.10801 0.0
C1077 C 0.44672 0.46356 0.10878 0.0
C1078 C 0.4405 0.4393 0.10948 0.0
C1079 C 0.41641 0.42122 0.10829 0.0
C1080 C 0.47236 0.4826 0.10798 0.0
C1081 C 0.48761 0.48313 0.13566 0.0
C1082 C 0.48175 0.50018 0.08023 0.0
C1083 C 0.4669 0.49986 0.04918 0.0
C1084 C 0.45503 0.47945 0.02685 0.0
C1085 C 0.44092 0.47922 0.99781 0.0
C1086 C 0.4387 0.49937 0.99064 0.0
C1087 C 0.45064 0.51982 0.01245 0.0
C1088 C 0.46475 0.52014 0.04156 0.0
C1089 C 0.58885 0.54531 0.10065 0.0
C1090 C 0.5966 0.56992 0.09773 0.0
C1091 C 0.56445 0.52854 0.10452 0.0
C1092 C 0.5474 0.5361 0.1058 0.0
C1093 C 0.55513 0.5607 0.10311 0.0
C1094 C 0.57953 0.57748 0.09921 0.0
C1095 C 0.52143 0.51826 0.10845 0.0
C1096 C 0.5061 0.51792 0.08105 0.0
C1097 C 0.51201 0.50083 0.13641 0.0
C1098 C 0.52706 0.50103 0.16711 0.0
C1099 C 0.54008 0.5218 0.18838 0.0
C1100 C 0.55435 0.52192 0.2171 0.0
C1101 C 0.55562 0.50132 0.22499 0.0
C1102 C 0.54258 0.48053 0.20422 0.0
C1103 C 0.52829 0.48032 0.17544 0.0
H1104 H 0.56668 0.50145 0.24724 0.0
H1105 H 0.42777 0.49916 0.96814 0.0
H1106 H 0.99141 0.57948 0.3939 0.0
H1107 H 0.97797 0.53665 0.39973 0.0
H1108 H 0.04792 0.5542 0.44012 0.0
H1109 H 0.06161 0.59698 0.4335 0.0
H1110 H 0.03249 0.51892 0.3923 0.0
H1111 H 0.99901 0.53615 0.49725 0.0
H1112 H 0.97542 0.55106 0.52955 0.0
H1113 H 0.91177 0.50012 0.47274 0.0
H1114 H 0.93506 0.48512 0.43973 0.0
H1115 H 0.00399 0.40575 0.46129 0.0
H1116 H 0.01497 0.44808 0.4598 0.0
H1117 H 0.94582 0.42849 0.41383 0.0
H1118 H 0.93457 0.38606 0.41569 0.0
H1119 H 0.96004 0.46441 0.46417 0.0
H1120 H 0.99345 0.44729 0.35932 0.0
H1121 H 0.01688 0.43216 0.32712 0.0
H1122 H 0.08066 0.48303 0.38374 0.0
H1123 H 0.05751 0.49821 0.41671 0.0
C1124 C 0.00392 0.57417 0.40392 0.0
C1125 C 0.02753 0.59153 0.41333 0.0
C1126 C 0.99619 0.54972 0.40743 0.0
C1127 C 0.01184 0.54224 0.42088 0.0
C1128 C 0.03553 0.55957 0.42976 0.0
C1129 C 0.04331 0.584 0.42601 0.0
C1130 C 0.00367 0.51636 0.42546 0.0
C1131 C 0.01684 0.50709 0.40843 0.0
C1132 C 0.98289 0.50079 0.44576 0.0
C1133 C 0.96883 0.50967 0.46578 0.0
C1134 C 0.98002 0.52824 0.49146 0.0
C1135 C 0.9667 0.53669 0.50993 0.0
C1136 C 0.94213 0.52658 0.50314 0.0
C1137 C 0.93081 0.50795 0.47794 0.0
C1138 C 0.94406 0.49945 0.45937 0.0
C1139 C 0.99101 0.41044 0.45131 0.0
C1140 C 0.96851 0.39266 0.43832 0.0
C1141 C 0.99733 0.43461 0.45036 0.0
C1142 C 0.98135 0.44141 0.43612 0.0
C1143 C 0.95843 0.4236 0.42479 0.0
C1144 C 0.95206 0.3994 0.42581 0.0
C1145 C 0.98902 0.46713 0.43132 0.0
C1146 C 0.97572 0.47631 0.44814 0.0
C1147 C 0.00968 0.48265 0.41082 0.0
C1148 C 0.0237 0.47373 0.39073 0.0
C1149 C 0.01243 0.45513 0.36509 0.0
C1150 C 0.02567 0.44656 0.34668 0.0
C1151 C 0.05023 0.45659 0.35344 0.0
C1152 C 0.06163 0.47526 0.37856 0.0
C1153 C 0.04846 0.48386 0.3971 0.0
H1154 H 0.06045 0.44993 0.33916 0.0
H1155 H 0.93184 0.53315 0.51745 0.0
H1156 H 0.59744 0.01803 0.76476 0.0
H1157 H 0.56675 0.02974 0.77104 0.0
H1158 H 0.512 0.95831 0.73991 0.0
H1159 H 0.54257 0.94644 0.7337 0.0
H1160 H 0.50875 0.99445 0.70324 0.0
H1161 H 0.51665 0.97347 0.82541 0.0
H1162 H 0.53894 0.97518 0.88085 0.0
H1163 H 0.56298 0.05036 0.89222 0.0
H1164 H 0.54117 0.0492 0.83643 0.0
H1165 H 0.40484 0.99816 0.75145 0.0
H1166 H 0.43632 0.98745 0.75039 0.0
H1167 H 0.48856 0.05947 0.78319 0.0
H1168 H 0.45701 0.07035 0.78447 0.0
H1169 H 0.49398 0.02425 0.81927 0.0
H1170 H 0.48594 0.04521 0.69731 0.0
H1171 H 0.46421 0.04366 0.64127 0.0
H1172 H 0.44091 0.96869 0.62916 0.0
H1173 H 0.46217 0.96969 0.68547 0.0
C1174 C 0.57885 0.00482 0.75933 0.0
C1175 C 0.57235 0.98132 0.74877 0.0
C1176 C 0.56136 0.01151 0.76303 0.0
C1177 C 0.53714 0.99484 0.75612 0.0
C1178 C 0.53063 0.97141 0.74537 0.0
C1179 C 0.54807 0.96465 0.74196 0.0
C1180 C 0.5186 0.00192 0.75959 0.0
C1181 C 0.50529 0.00067 0.72869 0.0
C1182 C 0.51461 0.01061 0.79264 0.0
C1183 C 0.52748 0.0113 0.8265 0.0
C1184 C 0.52685 0.99042 0.83955 0.0
C1185 C 0.53937 0.99128 0.87107 0.0
C1186 C 0.55242 0.01288 0.88999 0.0
C1187 C 0.5529 0.03364 0.8775 0.0
C1188 C 0.54044 0.03289 0.84594 0.0
C1189 C 0.42299 0.0117 0.75866 0.0
C1190 C 0.42853 0.03515 0.76779 0.0
C1191 C 0.44095 0.00556 0.75797 0.0
C1192 C 0.46478 0.02276 0.76629 0.0
C1193 C 0.47026 0.04598 0.7766 0.0
C1194 C 0.45227 0.05217 0.7772 0.0
C1195 C 0.484 0.01659 0.76295 0.0
C1196 C 0.49747 0.01806 0.79381 0.0
C1197 C 0.48819 0.00812 0.72983 0.0
C1198 C 0.47547 0.00748 0.69583 0.0
C1199 C 0.47601 0.02834 0.68287 0.0
C1200 C 0.46381 0.02757 0.65103 0.0
C1201 C 0.45115 0.00608 0.63171 0.0
C1202 C 0.45071 0.98532 0.64417 0.0
C1203 C 0.46284 0.98598 0.67604 0.0
H1204 H 0.44175 0.00552 0.60704 0.0
H1205 H 0.56212 0.0135 0.91437 0.0
H1206 H 0.5426 0.61067 0.58033 0.0
H1207 H 0.51046 0.56867 0.58087 0.0
H1208 H 0.55997 0.54684 0.54202 0.0
H1209 H 0.59233 0.58892 0.54143 0.0
H1210 H 0.51456 0.52221 0.50839 0.0
H1211 H 0.54821 0.54166 0.62816 0.0
H1212 H 0.56191 0.56557 0.68442 0.0
H1213 H 0.49047 0.55244 0.70406 0.0
H1214 H 0.47641 0.52875 0.64755 0.0
H1215 H 0.44665 0.39893 0.56177 0.0
H1216 H 0.47825 0.44084 0.55355 0.0
H1217 H 0.43109 0.46462 0.59614 0.0
H1218 H 0.39944 0.4228 0.60446 0.0
H1219 H 0.4758 0.48816 0.62707 0.0
H1220 H 0.44199 0.46845 0.50746 0.0
H1221 H 0.42829 0.44459 0.45116 0.0
H1222 H 0.49975 0.45785 0.43132 0.0
H1223 H 0.51384 0.48157 0.48779 0.0
C1224 C 0.54661 0.59696 0.57155 0.0
C1225 C 0.57 0.60303 0.56107 0.0
C1226 C 0.52825 0.57299 0.57195 0.0
C1227 C 0.53294 0.55468 0.56185 0.0
C1228 C 0.55604 0.56074 0.54995 0.0
C1229 C 0.57448 0.58474 0.54975 0.0
C1230 C 0.51399 0.52918 0.56546 0.0
C1231 C 0.50626 0.51463 0.53437 0.0
C1232 C 0.50295 0.51952 0.5993 0.0
C1233 C 0.51131 0.53364 0.63342 0.0
C1234 C 0.53546 0.54404 0.6443 0.0
C1235 C 0.54329 0.55753 0.67627 0.0
C1236 C 0.52709 0.56058 0.69775 0.0
C1237 C 0.50301 0.55009 0.68735 0.0
C1238 C 0.49509 0.53662 0.65537 0.0
C1239 C 0.443 0.4131 0.56925 0.0
C1240 C 0.4206 0.40763 0.58377 0.0
C1241 C 0.46102 0.43701 0.56441 0.0
C1242 C 0.45693 0.4558 0.57403 0.0
C1243 C 0.43458 0.45036 0.58853 0.0
C1244 C 0.41652 0.42648 0.59318 0.0
C1245 C 0.47618 0.48116 0.56994 0.0
C1246 C 0.48404 0.49569 0.60103 0.0
C1247 C 0.48731 0.49076 0.53611 0.0
C1248 C 0.47892 0.47658 0.50206 0.0
C1249 C 0.45474 0.46611 0.49126 0.0
C1250 C 0.44691 0.45264 0.45929 0.0
C1251 C 0.46311 0.44963 0.43774 0.0
C1252 C 0.48721 0.46016 0.44807 0.0
C1253 C 0.49514 0.47365 0.48004 0.0
H1254 H 0.457 0.43919 0.413 0.0
H1255 H 0.53318 0.57102 0.7225 0.0
H1256 H 0.01102 0.59395 0.90683 0.0
H1257 H 0.02281 0.5632 0.90391 0.0
H1258 H 0.94828 0.50768 0.90908 0.0
H1259 H 0.93635 0.53833 0.91217 0.0
H1260 H 0.97667 0.49877 0.9545 0.0
H1261 H 0.97713 0.52071 0.82975 0.0
H1262 H 0.98843 0.54872 0.7781 0.0
H1263 H 0.06285 0.57121 0.795 0.0
H1264 H 0.05201 0.54356 0.84712 0.0
H1265 H 0.9894 0.39992 0.90362 0.0
H1266 H 0.97794 0.43091 0.90276 0.0
H1267 H 0.05263 0.48585 0.89601 0.0
H1268 H 0.06423 0.45489 0.89651 0.0
H1269 H 0.02448 0.49532 0.8512 0.0
H1270 H 0.02437 0.47386 0.97585 0.0
H1271 H 0.01347 0.44626 0.02798 0.0
H1272 H 0.9389 0.42344 0.01193 0.0
H1273 H 0.94934 0.45066 0.95933 0.0
C1274 C 0.99715 0.57519 0.90742 0.0
C1275 C 0.97276 0.56851 0.90963 0.0
C1276 C 0.00391 0.55766 0.9056 0.0
C1277 C 0.98639 0.53319 0.90591 0.0
C1278 C 0.96205 0.52648 0.90874 0.0
C1279 C 0.95528 0.544 0.91041 0.0
C1280 C 0.99344 0.51454 0.9034 0.0
C1281 C 0.98684 0.4978 0.93169 0.0
C1282 C 0.00722 0.5137 0.87404 0.0
C1283 C 0.01377 0.53023 0.84257 0.0
C1284 C 0.99592 0.53176 0.82264 0.0
C1285 C 0.00224 0.54755 0.79325 0.0
C1286 C 0.02635 0.56178 0.78334 0.0
C1287 C 0.04418 0.5602 0.80274 0.0
C1288 C 0.03796 0.54446 0.8322 0.0
C1289 C 0.00337 0.41859 0.90165 0.0
C1290 C 0.02772 0.42502 0.90038 0.0
C1291 C 0.99681 0.43627 0.90129 0.0
C1292 C 0.01447 0.46068 0.89986 0.0
C1293 C 0.03874 0.46711 0.89724 0.0
C1294 C 0.04533 0.44942 0.89761 0.0
C1295 C 0.00761 0.47948 0.90223 0.0
C1296 C 0.01429 0.49627 0.87398 0.0
C1297 C 0.99395 0.48043 0.93169 0.0
C1298 C 0.98762 0.46412 0.96342 0.0
C1299 C 0.00563 0.46281 0.98325 0.0
C1300 C -0.00046 0.44726 0.01291 0.0
C1301 C 0.9755 0.43306 0.0232 0.0
C1302 C 0.95751 0.43443 0.0039 0.0
C1303 C 0.96351 0.44992 0.97417 0.0
H1304 H 0.97082 0.42103 0.04618 0.0
H1305 H 0.0312 0.574 0.76057 0.0
H1306 H 0.58744 0.98751 0.23053 0.0
H1307 H 0.54597 0.97915 0.22834 0.0
H1308 H 0.57091 0.0551 0.23459 0.0
H1309 H 0.61254 0.0636 0.23715 0.0
H1310 H 0.53463 0.02945 0.2819 0.0
H1311 H 0.54946 0.02548 0.15556 0.0
H1312 H 0.56247 0.01228 0.10157 0.0
H1313 H 0.50847 0.93907 0.12247 0.0
H1314 H 0.49535 0.95179 0.17691 0.0
H1315 H 0.41948 0.01536 0.24857 0.0
H1316 H 0.46198 0.02748 0.24279 0.0
H1317 H 0.44296 0.95306 0.23408 0.0
H1318 H 0.4004 0.94084 0.23919 0.0
H1319 H 0.47698 0.98033 0.18544 0.0
H1320 H 0.46398 0.98374 0.31352 0.0
H1321 H 0.45105 0.99646 0.36812 0.0
H1322 H 0.50175 0.07032 0.34435 0.0
H1323 H 0.51476 0.05804 0.2893 0.0
C1324 C 0.58411 0.00244 0.2312 0.0
C1325 C 0.6032 0.02621 0.23399 0.0
C1326 C 0.56042 0.99765 0.22978 0.0
C1327 C 0.5554 0.01653 0.23094 0.0
C1328 C 0.57444 0.04029 0.23357 0.0
C1329 C 0.59817 0.04511 0.23493 0.0
C1330 C 0.53019 0.01129 0.23089 0.0
C1331 C 0.52211 0.01909 0.26048 0.0
C1332 C 0.51379 0.99729 0.20334 0.0
C1333 C 0.52156 0.98958 0.1705 0.0
C1334 C 0.54048 0.00655 0.14881 0.0
C1335 C 0.54785 0.99915 0.1181 0.0
C1336 C 0.53634 0.97485 0.10864 0.0
C1337 C 0.51739 0.95789 0.12984 0.0
C1338 C 0.50996 0.96518 0.16061 0.0
C1339 C 0.42437 0.00159 0.24536 0.0
C1340 C 0.40667 0.97715 0.24452 0.0
C1341 C 0.44864 0.00854 0.24216 0.0
C1342 C 0.45563 0.99115 0.23844 0.0
C1343 C 0.43795 0.96676 0.23695 0.0
C1344 C 0.41367 0.95981 0.24001 0.0
C1345 C 0.48139 0.99832 0.2366 0.0
C1346 C 0.48955 0.99087 0.20669 0.0
C1347 C 0.49788 0.01258 0.26391 0.0
C1348 C 0.49016 0.01999 0.29709 0.0
C1349 C 0.47224 0.0027 0.31978 0.0
C1350 C 0.46492 0.00983 0.35084 0.0
C1351 C 0.47552 0.03419 0.35964 0.0
C1352 C 0.49352 0.05146 0.33746 0.0
C1353 C 0.50089 0.04443 0.30634 0.0
H1354 H 0.46983 0.03968 0.38369 0.0
H1355 H 0.54208 0.96916 0.08485 0.0
loop_
_geom_bond_atom_site_label_1
_geom_bond_atom_site_label_2
_geom_bond_distance
_geom_bond_site_symmetry_2
_ccdc_geom_bond_type
In0 O1 2.294 . S
In0 O2 2.326 . S
In0 O6 2.266 . S
In0 O7 2.326 . S
In0 O8 2.266 . S
In0 O9 2.326 . S
In0 O11 2.294 . S
In0 O12 2.326 . S
O1 In0 2.294 . S
O1 C10 1.240 . S
O2 In0 2.326 . S
O2 C10 1.252 . S
C3 O6 1.252 . S
C3 O7 1.260 . S
C4 O11 1.240 . S
C4 O12 1.252 . S
C5 O8 1.252 . S
C5 O9 1.260 . S
O6 In0 2.266 . S
O6 C3 1.252 . S
O7 In0 2.326 . S
O7 C3 1.260 . S
O8 In0 2.266 . S
O8 C5 1.252 . S
O9 In0 2.326 . S
O9 C5 1.260 . S
C10 O1 1.240 . S
C10 O2 1.252 . S
O11 In0 2.294 . S
O11 C4 1.240 . S
O12 In0 2.326 . S
O12 C4 1.252 . S
In13 O14 2.294 . S
In13 O15 2.326 . S
In13 O19 2.266 . S
In13 O20 2.326 . S
In13 O21 2.266 . S
In13 O22 2.326 . S
In13 O24 2.294 . S
In13 O25 2.326 . S
O14 In13 2.294 . S
O14 C23 1.240 . S
O15 In13 2.326 . S
O15 C23 1.252 . S
C16 O19 1.252 . S
C16 O20 1.260 . S
C17 O24 1.240 . S
C17 O25 1.252 . S
C18 O21 1.252 . S
C18 O22 1.260 . S
O19 In13 2.266 . S
O19 C16 1.252 . S
O20 In13 2.326 . S
O20 C16 1.260 . S
O21 In13 2.266 . S
O21 C18 1.252 . S
O22 In13 2.326 . S
O22 C18 1.260 . S
C23 O14 1.240 . S
C23 O15 1.252 . S
O24 In13 2.294 . S
O24 C17 1.240 . S
O25 In13 2.326 . S
O25 C17 1.252 . S
In26 O27 2.294 . S
In26 O28 2.326 . S
In26 O32 2.266 . S
In26 O33 2.326 . S
In26 O34 2.266 . S
In26 O35 2.326 . S
In26 O37 2.294 . S
In26 O38 2.326 . S
O27 In26 2.294 . S
O27 C36 1.240 . S
O28 In26 2.326 . S
O28 C36 1.252 . S
C29 O32 1.252 . S
C29 O33 1.260 . S
C30 O37 1.240 . S
C30 O38 1.252 . S
C31 O34 1.252 . S
C31 O35 1.260 . S
O32 In26 2.266 . S
O32 C29 1.252 . S
O33 In26 2.326 . S
O33 C29 1.260 . S
O34 In26 2.266 . S
O34 C31 1.252 . S
O35 In26 2.326 . S
O35 C31 1.260 . S
C36 O27 1.240 . S
C36 O28 1.252 . S
O37 In26 2.294 . S
O37 C30 1.240 . S
O38 In26 2.326 . S
O38 C30 1.252 . S
In39 O40 2.294 . S
In39 O41 2.326 . S
In39 O45 2.266 . S
In39 O46 2.326 . S
In39 O47 2.266 . S
In39 O48 2.326 . S
In39 O50 2.294 . S
In39 O51 2.326 . S
O40 In39 2.294 . S
O40 C49 1.240 . S
O41 In39 2.326 . S
O41 C49 1.252 . S
C42 O45 1.252 . S
C42 O46 1.260 . S
C43 O50 1.240 . S
C43 O51 1.252 . S
C44 O47 1.252 . S
C44 O48 1.260 . S
O45 In39 2.266 . S
O45 C42 1.252 . S
O46 In39 2.326 . S
O46 C42 1.260 . S
O47 In39 2.266 . S
O47 C44 1.252 . S
O48 In39 2.326 . S
O48 C44 1.260 . S
C49 O40 1.240 . S
C49 O41 1.252 . S
O50 In39 2.294 . S
O50 C43 1.240 . S
O51 In39 2.326 . S
O51 C43 1.252 . S
In52 O53 2.294 . S
In52 O54 2.326 . S
In52 O58 2.266 . S
In52 O59 2.326 . S
In52 O60 2.266 . S
In52 O61 2.326 . S
In52 O63 2.294 . S
In52 O64 2.326 . S
O53 In52 2.294 . S
O53 C62 1.240 . S
O54 In52 2.326 . S
O54 C62 1.252 . S
C55 O58 1.252 . S
C55 O59 1.260 . S
C56 O63 1.240 . S
C56 O64 1.252 . S
C57 O60 1.252 . S
C57 O61 1.260 . S
O58 In52 2.266 . S
O58 C55 1.252 . S
O59 In52 2.326 . S
O59 C55 1.260 . S
O60 In52 2.266 . S
O60 C57 1.252 . S
O61 In52 2.326 . S
O61 C57 1.260 . S
C62 O53 1.240 . S
C62 O54 1.252 . S
O63 In52 2.294 . S
O63 C56 1.240 . S
O64 In52 2.326 . S
O64 C56 1.252 . S
In65 O66 2.294 . S
In65 O67 2.326 . S
In65 O71 2.266 . S
In65 O72 2.326 . S
In65 O73 2.266 . S
In65 O74 2.326 . S
In65 O76 2.294 . S
In65 O77 2.326 . S
O66 In65 2.294 . S
O66 C75 1.240 . S
O67 In65 2.326 . S
O67 C75 1.252 . S
C68 O71 1.252 . S
C68 O72 1.260 . S
C69 O76 1.240 . S
C69 O77 1.252 . S
C70 O73 1.252 . S
C70 O74 1.260 . S
O71 In65 2.266 . S
O71 C68 1.252 . S
O72 In65 2.326 . S
O72 C68 1.260 . S
O73 In65 2.266 . S
O73 C70 1.252 . S
O74 In65 2.326 . S
O74 C70 1.260 . S
C75 O66 1.240 . S
C75 O67 1.252 . S
O76 In65 2.294 . S
O76 C69 1.240 . S
O77 In65 2.326 . S
O77 C69 1.252 . S
In78 O79 2.294 . S
In78 O80 2.326 . S
In78 O84 2.266 . S
In78 O85 2.326 . S
In78 O86 2.266 . S
In78 O87 2.326 . S
In78 O89 2.294 . S
In78 O90 2.326 . S
O79 In78 2.294 . S
O79 C88 1.240 . S
O80 In78 2.326 . S
O80 C88 1.252 . S
C81 O84 1.252 . S
C81 O85 1.260 . S
C82 O89 1.240 . S
C82 O90 1.252 . S
C83 O86 1.252 . S
C83 O87 1.260 . S
O84 In78 2.266 . S
O84 C81 1.252 . S
O85 In78 2.326 . S
O85 C81 1.260 . S
O86 In78 2.266 . S
O86 C83 1.252 . S
O87 In78 2.326 . S
O87 C83 1.260 . S
C88 O79 1.240 . S
C88 O80 1.252 . S
O89 In78 2.294 . S
O89 C82 1.240 . S
O90 In78 2.326 . S
O90 C82 1.252 . S
In91 O92 2.294 . S
In91 O93 2.326 . S
In91 O97 2.266 . S
In91 O98 2.326 . S
In91 O99 2.266 . S
In91 O100 2.326 . S
In91 O102 2.294 . S
In91 O103 2.326 . S
O92 In91 2.294 . S
O92 C101 1.240 . S
O93 In91 2.326 . S
O93 C101 1.252 . S
C94 O97 1.252 . S
C94 O98 1.260 . S
C95 O102 1.240 . S
C95 O103 1.252 . S
C96 O99 1.252 . S
C96 O100 1.260 . S
O97 In91 2.266 . S
O97 C94 1.252 . S
O98 In91 2.326 . S
O98 C94 1.260 . S
O99 In91 2.266 . S
O99 C96 1.252 . S
O100 In91 2.326 . S
O100 C96 1.260 . S
C101 O92 1.240 . S
C101 O93 1.252 . S
O102 In91 2.294 . S
O102 C95 1.240 . S
O103 In91 2.326 . S
O103 C95 1.252 . S
In104 O105 2.294 . S
In104 O106 2.326 . S
In104 O110 2.266 . S
In104 O111 2.326 . S
In104 O112 2.266 . S
In104 O113 2.326 . S
In104 O115 2.294 . S
In104 O116 2.326 . S
O105 In104 2.294 . S
O105 C114 1.240 . S
O106 In104 2.326 . S
O106 C114 1.252 . S
C107 O110 1.252 . S
C107 O111 1.260 . S
C108 O115 1.240 . S
C108 O116 1.252 . S
C109 O112 1.252 . S
C109 O113 1.260 . S
O110 In104 2.266 . S
O110 C107 1.252 . S
O111 In104 2.326 . S
O111 C107 1.260 . S
O112 In104 2.266 . S
O112 C109 1.252 . S
O113 In104 2.326 . S
O113 C109 1.260 . S
C114 O105 1.240 . S
C114 O106 1.252 . S
O115 In104 2.294 . S
O115 C108 1.240 . S
O116 In104 2.326 . S
O116 C108 1.252 . S
In117 O118 2.294 . S
In117 O119 2.326 . S
In117 O123 2.266 . S
In117 O124 2.326 . S
In117 O125 2.266 . S
In117 O126 2.326 . S
In117 O128 2.294 . S
In117 O129 2.326 . S
O118 In117 2.294 . S
O118 C127 1.240 . S
O119 In117 2.326 . S
O119 C127 1.252 . S
C120 O123 1.252 . S
C120 O124 1.260 . S
C121 O128 1.240 . S
C121 O129 1.252 . S
C122 O125 1.252 . S
C122 O126 1.260 . S
O123 In117 2.266 . S
O123 C120 1.252 . S
O124 In117 2.326 . S
O124 C120 1.260 . S
O125 In117 2.266 . S
O125 C122 1.252 . S
O126 In117 2.326 . S
O126 C122 1.260 . S
C127 O118 1.240 . S
C127 O119 1.252 . S
O128 In117 2.294 . S
O128 C121 1.240 . S
O129 In117 2.326 . S
O129 C121 1.252 . S
In130 O131 2.294 . S
In130 O132 2.326 . S
In130 O136 2.266 . S
In130 O137 2.326 . S
In130 O138 2.266 . S
In130 O139 2.326 . S
In130 O141 2.294 . S
In130 O142 2.326 . S
O131 In130 2.294 . S
O131 C140 1.240 . S
O132 In130 2.326 . S
O132 C140 1.252 . S
C133 O136 1.252 . S
C133 O137 1.260 . S
C134 O141 1.240 . S
C134 O142 1.252 . S
C135 O138 1.252 . S
C135 O139 1.260 . S
O136 In130 2.266 . S
O136 C133 1.252 . S
O137 In130 2.326 . S
O137 C133 1.260 . S
O138 In130 2.266 . S
O138 C135 1.252 . S
O139 In130 2.326 . S
O139 C135 1.260 . S
C140 O131 1.240 . S
C140 O132 1.252 . S
O141 In130 2.294 . S
O141 C134 1.240 . S
O142 In130 2.326 . S
O142 C134 1.252 . S
In143 O144 2.294 . S
In143 O145 2.326 . S
In143 O149 2.266 . S
In143 O150 2.326 . S
In143 O151 2.266 . S
In143 O152 2.326 . S
In143 O154 2.294 . S
In143 O155 2.326 . S
O144 In143 2.294 . S
O144 C153 1.240 . S
O145 In143 2.326 . S
O145 C153 1.252 . S
C146 O149 1.252 . S
C146 O150 1.260 . S
C147 O154 1.240 . S
C147 O155 1.252 . S
C148 O151 1.252 . S
C148 O152 1.260 . S
O149 In143 2.266 . S
O149 C146 1.252 . S
O150 In143 2.326 . S
O150 C146 1.260 . S
O151 In143 2.266 . S
O151 C148 1.252 . S
O152 In143 2.326 . S
O152 C148 1.260 . S
C153 O144 1.240 . S
C153 O145 1.252 . S
O154 In143 2.294 . S
O154 C147 1.240 . S
O155 In143 2.326 . S
O155 C147 1.252 . S
H156 C174 0.951 . S
H157 C176 0.951 . S
H158 C178 0.950 . S
H159 C179 0.950 . S
H160 C181 0.950 . S
H161 C184 0.950 . S
H162 C185 0.950 . S
H163 C187 0.950 . S
H164 C188 0.950 . S
H165 C189 0.951 . S
H166 C191 0.951 . S
H167 C193 0.950 . S
H168 C194 0.950 . S
H169 C196 0.950 . S
H170 C199 0.950 . S
H171 C200 0.950 . S
H172 C202 0.950 . S
H173 C203 0.950 . S
C174 H156 0.951 . S
C174 C175 1.366 . S
C174 C176 1.388 . S
C175 C174 1.366 . S
C175 C179 1.385 . S
C176 H157 0.951 . S
C176 C174 1.388 . S
C176 C177 1.366 . S
C177 C176 1.366 . S
C177 C178 1.414 . S
C177 C180 1.499 . S
C178 H158 0.950 . S
C178 C177 1.414 . S
C178 C179 1.374 . S
C179 H159 0.950 . S
C179 C175 1.385 . S
C179 C178 1.374 . S
C180 C177 1.499 . S
C180 C181 1.373 . S
C180 C182 1.389 . S
C181 H160 0.950 . S
C181 C180 1.373 . S
C181 C197 1.377 . S
C182 C180 1.389 . S
C182 C183 1.524 . S
C182 C196 1.377 . S
C183 C182 1.524 . S
C183 C184 1.397 . S
C183 C188 1.363 . S
C184 H161 0.950 . S
C184 C183 1.397 . S
C184 C185 1.334 . S
C185 H162 0.950 . S
C185 C184 1.334 . S
C185 C186 1.287 . S
C186 C185 1.287 . S
C186 C187 1.524 . S
C186 H205 0.913 . S
C187 H163 0.950 . S
C187 C186 1.524 . S
C187 C188 1.415 . S
C188 H164 0.950 . S
C188 C183 1.363 . S
C188 C187 1.415 . S
C189 H165 0.951 . S
C189 C190 1.366 . S
C189 C191 1.388 . S
C190 C189 1.366 . S
C190 C194 1.385 . S
C191 H166 0.951 . S
C191 C189 1.388 . S
C191 C192 1.366 . S
C192 C191 1.366 . S
C192 C193 1.414 . S
C192 C195 1.499 . S
C193 H167 0.950 . S
C193 C192 1.414 . S
C193 C194 1.374 . S
C194 H168 0.950 . S
C194 C190 1.385 . S
C194 C193 1.374 . S
C195 C192 1.499 . S
C195 C196 1.373 . S
C195 C197 1.389 . S
C196 H169 0.950 . S
C196 C182 1.377 . S
C196 C195 1.373 . S
C197 C181 1.377 . S
C197 C195 1.389 . S
C197 C198 1.524 . S
C198 C197 1.524 . S
C198 C199 1.397 . S
C198 C203 1.363 . S
C199 H170 0.950 . S
C199 C198 1.397 . S
C199 C200 1.334 . S
C200 H171 0.950 . S
C200 C199 1.334 . S
C200 C201 1.287 . S
C201 C200 1.287 . S
C201 C202 1.524 . S
C201 H204 0.999 . S
C202 H172 0.950 . S
C202 C201 1.524 . S
C202 C203 1.415 . S
C203 H173 0.950 . S
C203 C198 1.363 . S
C203 C202 1.415 . S
H204 C201 0.999 . S
H205 C186 0.913 . S
H206 C224 0.951 . S
H207 C226 0.951 . S
H208 C228 0.950 . S
H209 C229 0.950 . S
H210 C231 0.950 . S
H211 C234 0.950 . S
H212 C235 0.950 . S
H213 C237 0.950 . S
H214 C238 0.950 . S
H215 C239 0.951 . S
H216 C241 0.951 . S
H217 C243 0.950 . S
H218 C244 0.950 . S
H219 C246 0.950 . S
H220 C249 0.950 . S
H221 C250 0.950 . S
H222 C252 0.950 . S
H223 C253 0.950 . S
C224 H206 0.951 . S
C224 C225 1.366 1_455 S
C224 C226 1.388 . S
C225 C224 1.366 1_655 S
C225 C229 1.385 . S
C226 H207 0.951 . S
C226 C224 1.388 . S
C226 C227 1.366 1_455 S
C227 C226 1.366 1_655 S
C227 C228 1.414 . S
C227 C230 1.499 . S
C228 H208 0.950 . S
C228 C227 1.414 . S
C228 C229 1.374 . S
C229 H209 0.950 . S
C229 C225 1.385 . S
C229 C228 1.374 . S
C230 C227 1.499 . S
C230 C231 1.373 . S
C230 C232 1.389 . S
C231 H210 0.950 . S
C231 C230 1.373 . S
C231 C247 1.377 1_655 S
C232 C230 1.389 . S
C232 C233 1.524 . S
C232 C246 1.377 1_655 S
C233 C232 1.524 . S
C233 C234 1.397 . S
C233 C238 1.363 1_655 S
C234 H211 0.950 . S
C234 C233 1.397 . S
C234 C235 1.334 . S
C235 H212 0.950 . S
C235 C234 1.334 . S
C235 C236 1.287 . S
C236 C235 1.287 . S
C236 C237 1.524 1_655 S
C236 H255 0.913 . S
C237 H213 0.950 . S
C237 C236 1.524 1_455 S
C237 C238 1.415 . S
C238 H214 0.950 . S
C238 C233 1.363 1_455 S
C238 C237 1.415 . S
C239 H215 0.951 . S
C239 C240 1.366 1_655 S
C239 C241 1.388 . S
C240 C239 1.366 1_455 S
C240 C244 1.385 . S
C241 H216 0.951 . S
C241 C239 1.388 . S
C241 C242 1.366 1_655 S
C242 C241 1.366 1_455 S
C242 C243 1.414 . S
C242 C245 1.499 . S
C243 H217 0.950 . S
C243 C242 1.414 . S
C243 C244 1.374 . S
C244 H218 0.950 . S
C244 C240 1.385 . S
C244 C243 1.374 . S
C245 C242 1.499 . S
C245 C246 1.373 . S
C245 C247 1.389 . S
C246 H219 0.950 . S
C246 C232 1.377 1_455 S
C246 C245 1.373 . S
C247 C231 1.377 1_455 S
C247 C245 1.389 . S
C247 C248 1.524 . S
C248 C247 1.524 . S
C248 C249 1.397 . S
C248 C253 1.363 1_455 S
C249 H220 0.950 . S
C249 C248 1.397 . S
C249 C250 1.334 . S
C250 H221 0.950 . S
C250 C249 1.334 . S
C250 C251 1.287 . S
C251 C250 1.287 . S
C251 C252 1.524 1_455 S
C251 H254 0.999 . S
C252 H222 0.950 . S
C252 C251 1.524 1_655 S
C252 C253 1.415 . S
C253 H223 0.950 . S
C253 C248 1.363 1_655 S
C253 C252 1.415 . S
H254 C251 0.999 . S
H255 C236 0.913 . S
H256 C274 0.951 . S
H257 C276 0.951 . S
H258 C278 0.950 . S
H259 C279 0.950 . S
H260 C281 0.950 . S
H261 C284 0.950 . S
H262 C285 0.950 . S
H263 C287 0.950 . S
H264 C288 0.950 . S
H265 C289 0.951 . S
H266 C291 0.951 . S
H267 C293 0.950 . S
H268 C294 0.950 . S
H269 C296 0.950 . S
H270 C299 0.950 . S
H271 C300 0.950 . S
H272 C302 0.950 . S
H273 C303 0.950 . S
C274 H256 0.951 . S
C274 C275 1.366 . S
C274 C276 1.388 . S
C275 C274 1.366 . S
C275 C279 1.385 1_565 S
C276 H257 0.951 . S
C276 C274 1.388 . S
C276 C277 1.366 . S
C277 C276 1.366 . S
C277 C278 1.414 1_565 S
C277 C280 1.499 . S
C278 H258 0.950 . S
C278 C277 1.414 1_545 S
C278 C279 1.374 . S
C279 H259 0.950 . S
C279 C275 1.385 1_545 S
C279 C278 1.374 . S
C280 C277 1.499 . S
C280 C281 1.373 . S
C280 C282 1.378 1_565 S
C281 H260 0.950 . S
C281 C280 1.373 . S
C281 C297 1.378 1_556 S
C282 C280 1.378 1_545 S
C282 C283 1.536 . S
C282 C296 1.378 1_556 S
C283 C282 1.536 . S
C283 C284 1.397 . S
C283 C288 1.363 1_545 S
C284 H261 0.950 . S
C284 C283 1.397 . S
C284 C285 1.334 . S
C285 H262 0.950 . S
C285 C284 1.334 . S
C285 C286 1.287 . S
C286 C285 1.287 . S
C286 C287 1.524 1_545 S
C286 H305 0.913 . S
C287 H263 0.950 . S
C287 C286 1.524 1_565 S
C287 C288 1.415 . S
C288 H264 0.950 . S
C288 C283 1.363 1_565 S
C288 C287 1.415 . S
C289 H265 0.951 . S
C289 C290 1.366 . S
C289 C291 1.388 . S
C290 C289 1.366 . S
C290 C294 1.385 1_545 S
C291 H266 0.951 . S
C291 C289 1.388 . S
C291 C292 1.366 . S
C292 C291 1.366 . S
C292 C293 1.414 1_545 S
C292 C295 1.499 . S
C293 H267 0.950 . S
C293 C292 1.414 1_565 S
C293 C294 1.374 . S
C294 H268 0.950 . S
C294 C290 1.385 1_565 S
C294 C293 1.374 . S
C295 C292 1.499 . S
C295 C296 1.373 . S
C295 C297 1.378 1_545 S
C296 H269 0.950 . S
C296 C282 1.378 1_554 S
C296 C295 1.373 . S
C297 C281 1.378 1_554 S
C297 C295 1.378 1_565 S
C297 C298 1.536 . S
C298 C297 1.536 . S
C298 C299 1.397 . S
C298 C303 1.363 1_565 S
C299 H270 0.950 . S
C299 C298 1.397 . S
C299 C300 1.334 . S
C300 H271 0.950 . S
C300 C299 1.334 . S
C300 C301 1.287 . S
C301 C300 1.287 . S
C301 C302 1.524 1_565 S
C301 H304 0.999 . S
C302 H272 0.950 . S
C302 C301 1.524 1_545 S
C302 C303 1.415 . S
C303 H273 0.950 . S
C303 C298 1.363 1_545 S
C303 C302 1.415 . S
H304 C301 0.999 . S
H305 C286 0.913 . S
H306 C324 0.951 . S
H307 C326 0.951 . S
H308 C328 0.950 . S
H309 C329 0.950 . S
H310 C331 0.950 . S
H311 C334 0.950 . S
H312 C335 0.950 . S
H313 C337 0.950 . S
H314 C338 0.950 . S
H315 C339 0.951 . S
H316 C341 0.951 . S
H317 C343 0.950 . S
H318 C344 0.950 . S
H319 C346 0.950 . S
H320 C349 0.950 . S
H321 C350 0.950 . S
H322 C352 0.950 . S
H323 C353 0.950 . S
C324 H306 0.951 . S
C324 C325 1.366 . S
C324 C326 1.388 . S
C325 C324 1.366 . S
C325 C329 1.385 . S
C326 H307 0.951 . S
C326 C324 1.388 . S
C326 C327 1.366 . S
C327 C326 1.366 . S
C327 C328 1.414 . S
C327 C330 1.499 . S
C328 H308 0.950 . S
C328 C327 1.414 . S
C328 C329 1.374 . S
C329 H309 0.950 . S
C329 C325 1.385 . S
C329 C328 1.374 . S
C330 C327 1.499 . S
C330 C331 1.373 . S
C330 C332 1.389 . S
C331 H310 0.950 . S
C331 C330 1.373 . S
C331 C347 1.377 . S
C332 C330 1.389 . S
C332 C333 1.524 . S
C332 C346 1.377 . S
C333 C332 1.524 . S
C333 C334 1.397 . S
C333 C338 1.363 . S
C334 H311 0.950 . S
C334 C333 1.397 . S
C334 C335 1.334 . S
C335 H312 0.950 . S
C335 C334 1.334 . S
C335 C336 1.287 . S
C336 C335 1.287 . S
C336 C337 1.524 . S
C336 H355 0.913 . S
C337 H313 0.950 . S
C337 C336 1.524 . S
C337 C338 1.415 . S
C338 H314 0.950 . S
C338 C333 1.363 . S
C338 C337 1.415 . S
C339 H315 0.951 . S
C339 C340 1.366 . S
C339 C341 1.388 . S
C340 C339 1.366 . S
C340 C344 1.385 . S
C341 H316 0.951 . S
C341 C339 1.388 . S
C341 C342 1.366 . S
C342 C341 1.366 . S
C342 C343 1.414 . S
C342 C345 1.499 . S
C343 H317 0.950 . S
C343 C342 1.414 . S
C343 C344 1.374 . S
C344 H318 0.950 . S
C344 C340 1.385 . S
C344 C343 1.374 . S
C345 C342 1.499 . S
C345 C346 1.373 . S
C345 C347 1.389 . S
C346 H319 0.950 . S
C346 C332 1.377 . S
C346 C345 1.373 . S
C347 C331 1.377 . S
C347 C345 1.389 . S
C347 C348 1.524 . S
C348 C347 1.524 . S
C348 C349 1.397 . S
C348 C353 1.363 . S
C349 H320 0.950 . S
C349 C348 1.397 . S
C349 C350 1.334 . S
C350 H321 0.950 . S
C350 C349 1.334 . S
C350 C351 1.287 . S
C351 C350 1.287 . S
C351 C352 1.524 . S
C351 H354 0.999 . S
C352 H322 0.950 . S
C352 C351 1.524 . S
C352 C353 1.415 . S
C353 H323 0.950 . S
C353 C348 1.363 . S
C353 C352 1.415 . S
H354 C351 0.999 . S
H355 C336 0.913 . S
H356 C374 0.919 1_455 S
H357 C376 0.956 . S
H358 C378 0.950 . S
H359 C379 0.950 . S
H360 C381 0.950 . S
H361 C384 0.950 . S
H362 C385 0.950 . S
H363 C387 0.950 . S
H364 C388 0.950 . S
H365 C389 0.919 1_655 S
H366 C391 0.956 . S
H367 C393 0.950 . S
H368 C394 0.950 . S
H369 C396 0.950 . S
H370 C399 0.950 . S
H371 C400 0.950 . S
H372 C402 0.950 . S
H373 C403 0.950 . S
C374 H356 0.919 1_655 S
C374 C375 1.366 . S
C374 C376 1.387 1_655 S
C375 C374 1.366 . S
C375 C379 1.385 . S
C376 H357 0.956 . S
C376 C374 1.387 1_455 S
C376 C377 1.361 1_455 S
C377 C376 1.361 1_655 S
C377 C378 1.414 . S
C377 C380 1.499 . S
C378 H358 0.950 . S
C378 C377 1.414 . S
C378 C379 1.374 . S
C379 H359 0.950 . S
C379 C375 1.385 . S
C379 C378 1.374 . S
C380 C377 1.499 . S
C380 C381 1.373 . S
C380 C382 1.389 1_655 S
C381 H360 0.950 . S
C381 C380 1.373 . S
C381 C397 1.377 . S
C382 C380 1.389 1_455 S
C382 C383 1.524 . S
C382 C396 1.377 . S
C383 C382 1.524 . S
C383 C384 1.397 . S
C383 C388 1.363 . S
C384 H361 0.950 . S
C384 C383 1.397 . S
C384 C385 1.334 . S
C385 H362 0.950 . S
C385 C384 1.334 . S
C385 C386 1.287 . S
C386 C385 1.287 . S
C386 C387 1.524 . S
C386 H405 0.913 . S
C387 H363 0.950 . S
C387 C386 1.524 . S
C387 C388 1.415 . S
C388 H364 0.950 . S
C388 C383 1.363 . S
C388 C387 1.415 . S
C389 H365 0.919 1_455 S
C389 C390 1.366 . S
C389 C391 1.387 1_455 S
C390 C389 1.366 . S
C390 C394 1.385 . S
C391 H366 0.956 . S
C391 C389 1.387 1_655 S
C391 C392 1.361 1_655 S
C392 C391 1.361 1_455 S
C392 C393 1.414 . S
C392 C395 1.499 . S
C393 H367 0.950 . S
C393 C392 1.414 . S
C393 C394 1.374 . S
C394 H368 0.950 . S
C394 C390 1.385 . S
C394 C393 1.374 . S
C395 C392 1.499 . S
C395 C396 1.373 . S
C395 C397 1.389 1_455 S
C396 H369 0.950 . S
C396 C382 1.377 . S
C396 C395 1.373 . S
C397 C381 1.377 . S
C397 C395 1.389 1_655 S
C397 C398 1.524 . S
C398 C397 1.524 . S
C398 C399 1.397 . S
C398 C403 1.363 . S
C399 H370 0.950 . S
C399 C398 1.397 . S
C399 C400 1.334 . S
C400 H371 0.950 . S
C400 C399 1.334 . S
C400 C401 1.287 . S
C401 C400 1.287 . S
C401 C402 1.524 . S
C401 H404 0.999 . S
C402 H372 0.950 . S
C402 C401 1.524 . S
C402 C403 1.415 . S
C403 H373 0.950 . S
C403 C398 1.363 . S
C403 C402 1.415 . S
H404 C401 0.999 . S
H405 C386 0.913 . S
H406 C424 0.951 . S
H407 C426 0.951 . S
H408 C428 0.950 . S
H409 C429 0.950 . S
H410 C431 0.950 . S
H411 C434 0.958 . S
H412 C435 0.950 1_565 S
H413 C437 0.950 . S
H414 C438 0.950 . S
H415 C439 0.951 . S
H416 C441 0.951 . S
H417 C443 0.950 . S
H418 C444 0.950 . S
H419 C446 0.950 . S
H420 C449 0.958 . S
H421 C450 0.950 1_545 S
H422 C452 0.950 . S
H423 C453 0.950 . S
C424 H406 0.951 . S
C424 C425 1.366 1_545 S
C424 C426 1.388 . S
C425 C424 1.366 1_565 S
C425 C429 1.385 . S
C426 H407 0.951 . S
C426 C424 1.388 . S
C426 C427 1.366 1_545 S
C427 C426 1.366 1_565 S
C427 C428 1.414 . S
C427 C430 1.499 . S
C428 H408 0.950 . S
C428 C427 1.414 . S
C428 C429 1.374 . S
C429 H409 0.950 . S
C429 C425 1.385 . S
C429 C428 1.374 . S
C430 C427 1.499 . S
C430 C431 1.373 . S
C430 C432 1.389 1_565 S
C431 H410 0.950 . S
C431 C430 1.373 . S
C431 C447 1.377 1_554 S
C432 C430 1.389 1_545 S
C432 C433 1.524 . S
C432 C446 1.377 1_554 S
C433 C432 1.524 . S
C433 C434 1.394 1_545 S
C433 C438 1.363 . S
C434 H411 0.958 . S
C434 C433 1.394 1_565 S
C434 C435 1.329 1_565 S
C435 H412 0.950 1_545 S
C435 C434 1.329 1_545 S
C435 C436 1.287 . S
C436 C435 1.287 . S
C436 C437 1.524 . S
C436 H455 0.913 . S
C437 H413 0.950 . S
C437 C436 1.524 . S
C437 C438 1.415 . S
C438 H414 0.950 . S
C438 C433 1.363 . S
C438 C437 1.415 . S
C439 H415 0.951 . S
C439 C440 1.366 1_565 S
C439 C441 1.388 . S
C440 C439 1.366 1_545 S
C440 C444 1.385 . S
C441 H416 0.951 . S
C441 C439 1.388 . S
C441 C442 1.366 1_565 S
C442 C441 1.366 1_545 S
C442 C443 1.414 . S
C442 C445 1.499 . S
C443 H417 0.950 . S
C443 C442 1.414 . S
C443 C444 1.374 . S
C444 H418 0.950 . S
C444 C440 1.385 . S
C444 C443 1.374 . S
C445 C442 1.499 . S
C445 C446 1.373 . S
C445 C447 1.389 1_545 S
C446 H419 0.950 . S
C446 C432 1.377 1_556 S
C446 C445 1.373 . S
C447 C431 1.377 1_556 S
C447 C445 1.389 1_565 S
C447 C448 1.524 . S
C448 C447 1.524 . S
C448 C449 1.394 1_565 S
C448 C453 1.363 . S
C449 H420 0.958 . S
C449 C448 1.394 1_545 S
C449 C450 1.329 1_545 S
C450 H421 0.950 1_565 S
C450 C449 1.329 1_565 S
C450 C451 1.287 . S
C451 C450 1.287 . S
C451 C452 1.524 . S
C451 H454 0.999 . S
C452 H422 0.950 . S
C452 C451 1.524 . S
C452 C453 1.415 . S
C453 H423 0.950 . S
C453 C448 1.363 . S
C453 C452 1.415 . S
H454 C451 0.999 . S
H455 C436 0.913 . S
H456 C474 0.951 1_554 S
H457 C476 0.951 1_554 S
H458 C478 0.950 . S
H459 C479 0.950 . S
H460 C481 0.950 . S
H461 C484 0.950 1_556 S
H462 C485 0.950 1_556 S
H463 C487 0.950 . S
H464 C488 0.950 . S
H465 C489 0.951 1_556 S
H466 C491 0.951 1_556 S
H467 C493 0.950 . S
H468 C494 0.950 . S
H469 C496 0.950 . S
H470 C499 0.950 1_554 S
H471 C500 0.950 1_554 S
H472 C502 0.950 . S
H473 C503 0.950 . S
C474 H456 0.951 1_556 S
C474 C475 1.366 . S
C474 C476 1.388 . S
C475 C474 1.366 . S
C475 C479 1.385 . S
C476 H457 0.951 1_556 S
C476 C474 1.388 . S
C476 C477 1.366 . S
C477 C476 1.366 . S
C477 C478 1.414 . S
C477 C480 1.499 . S
C478 H458 0.950 . S
C478 C477 1.414 . S
C478 C479 1.374 . S
C479 H459 0.950 . S
C479 C475 1.385 . S
C479 C478 1.374 . S
C480 C477 1.499 . S
C480 C481 1.373 . S
C480 C482 1.389 1_556 S
C481 H460 0.950 . S
C481 C480 1.373 . S
C481 C497 1.377 . S
C482 C480 1.389 1_554 S
C482 C483 1.524 . S
C482 C496 1.377 . S
C483 C482 1.524 . S
C483 C484 1.397 . S
C483 C488 1.363 . S
C484 H461 0.950 1_554 S
C484 C483 1.397 . S
C484 C485 1.334 . S
C485 H462 0.950 1_554 S
C485 C484 1.334 . S
C485 C486 1.287 . S
C486 C485 1.287 . S
C486 C487 1.524 . S
C486 H505 0.913 . S
C487 H463 0.950 . S
C487 C486 1.524 . S
C487 C488 1.415 . S
C488 H464 0.950 . S
C488 C483 1.363 . S
C488 C487 1.415 . S
C489 H465 0.951 1_554 S
C489 C490 1.366 . S
C489 C491 1.388 . S
C490 C489 1.366 . S
C490 C494 1.385 . S
C491 H466 0.951 1_554 S
C491 C489 1.388 . S
C491 C492 1.366 . S
C492 C491 1.366 . S
C492 C493 1.414 . S
C492 C495 1.499 . S
C493 H467 0.950 . S
C493 C492 1.414 . S
C493 C494 1.374 . S
C494 H468 0.950 . S
C494 C490 1.385 . S
C494 C493 1.374 . S
C495 C492 1.499 . S
C495 C496 1.373 . S
C495 C497 1.389 1_554 S
C496 H469 0.950 . S
C496 C482 1.377 . S
C496 C495 1.373 . S
C497 C481 1.377 . S
C497 C495 1.389 1_556 S
C497 C498 1.524 . S
C498 C497 1.524 . S
C498 C499 1.397 . S
C498 C503 1.363 . S
C499 H470 0.950 1_556 S
C499 C498 1.397 . S
C499 C500 1.334 . S
C500 H471 0.950 1_556 S
C500 C499 1.334 . S
C500 C501 1.287 . S
C501 C500 1.287 . S
C501 C502 1.524 . S
C501 H504 0.999 . S
C502 H472 0.950 . S
C502 C501 1.524 . S
C502 C503 1.415 . S
C503 H473 0.950 . S
C503 C498 1.363 . S
C503 C502 1.415 . S
H504 C501 0.999 . S
H505 C486 0.913 . S
H506 C524 0.951 . S
H507 C526 0.951 . S
H508 C528 0.950 . S
H509 C529 0.950 . S
H510 C531 0.950 . S
H511 C534 0.950 . S
H512 C535 0.950 . S
H513 C537 0.950 . S
H514 C538 0.950 . S
H515 C539 0.951 . S
H516 C541 0.951 . S
H517 C543 0.950 . S
H518 C544 0.950 . S
H519 C546 0.950 . S
H520 C549 0.950 . S
H521 C550 0.950 . S
H522 C552 0.950 . S
H523 C553 0.950 . S
C524 H506 0.951 . S
C524 C525 1.366 . S
C524 C526 1.388 . S
C525 C524 1.366 . S
C525 C529 1.385 . S
C526 H507 0.951 . S
C526 C524 1.388 . S
C526 C527 1.366 . S
C527 C526 1.366 . S
C527 C528 1.414 . S
C527 C530 1.499 . S
C528 H508 0.950 . S
C528 C527 1.414 . S
C528 C529 1.374 . S
C529 H509 0.950 . S
C529 C525 1.385 . S
C529 C528 1.374 . S
C530 C527 1.499 . S
C530 C531 1.373 . S
C530 C532 1.389 . S
C531 H510 0.950 . S
C531 C530 1.373 . S
C531 C547 1.377 . S
C532 C530 1.389 . S
C532 C533 1.524 . S
C532 C546 1.377 . S
C533 C532 1.524 . S
C533 C534 1.397 . S
C533 C538 1.363 . S
C534 H511 0.950 . S
C534 C533 1.397 . S
C534 C535 1.334 . S
C535 H512 0.950 . S
C535 C534 1.334 . S
C535 C536 1.287 . S
C536 C535 1.287 . S
C536 C537 1.524 . S
C536 H555 0.913 . S
C537 H513 0.950 . S
C537 C536 1.524 . S
C537 C538 1.415 . S
C538 H514 0.950 . S
C538 C533 1.363 . S
C538 C537 1.415 . S
C539 H515 0.951 . S
C539 C540 1.366 . S
C539 C541 1.388 . S
C540 C539 1.366 . S
C540 C544 1.385 . S
C541 H516 0.951 . S
C541 C539 1.388 . S
C541 C542 1.366 . S
C542 C541 1.366 . S
C542 C543 1.414 . S
C542 C545 1.499 . S
C543 H517 0.950 . S
C543 C542 1.414 . S
C543 C544 1.374 . S
C544 H518 0.950 . S
C544 C540 1.385 . S
C544 C543 1.374 . S
C545 C542 1.499 . S
C545 C546 1.373 . S
C545 C547 1.389 . S
C546 H519 0.950 . S
C546 C532 1.377 . S
C546 C545 1.373 . S
C547 C531 1.377 . S
C547 C545 1.389 . S
C547 C548 1.524 . S
C548 C547 1.524 . S
C548 C549 1.397 . S
C548 C553 1.363 . S
C549 H520 0.950 . S
C549 C548 1.397 . S
C549 C550 1.334 . S
C550 H521 0.950 . S
C550 C549 1.334 . S
C550 C551 1.287 . S
C551 C550 1.287 . S
C551 C552 1.524 . S
C551 H554 0.999 . S
C552 H522 0.950 . S
C552 C551 1.524 . S
C552 C553 1.415 . S
C553 H523 0.950 . S
C553 C548 1.363 . S
C553 C552 1.415 . S
H554 C551 0.999 . S
H555 C536 0.913 . S
H556 C574 0.951 . S
H557 C576 0.951 . S
H558 C578 0.950 . S
H559 C579 0.950 . S
H560 C581 0.950 . S
H561 C584 0.950 . S
H562 C585 0.950 . S
H563 C587 0.950 . S
H564 C588 0.950 . S
H565 C589 0.951 . S
H566 C591 0.951 . S
H567 C593 0.950 . S
H568 C594 0.950 . S
H569 C596 0.950 . S
H570 C599 0.950 . S
H571 C600 0.950 . S
H572 C602 0.950 . S
H573 C603 0.950 . S
C574 H556 0.951 . S
C574 C575 1.366 . S
C574 C576 1.388 . S
C575 C574 1.366 . S
C575 C579 1.385 . S
C576 H557 0.951 . S
C576 C574 1.388 . S
C576 C577 1.366 . S
C577 C576 1.366 . S
C577 C578 1.414 . S
C577 C580 1.499 . S
C578 H558 0.950 . S
C578 C577 1.414 . S
C578 C579 1.374 . S
C579 H559 0.950 . S
C579 C575 1.385 . S
C579 C578 1.374 . S
C580 C577 1.499 . S
C580 C581 1.373 . S
C580 C582 1.389 . S
C581 H560 0.950 . S
C581 C580 1.373 . S
C581 C597 1.377 . S
C582 C580 1.389 . S
C582 C583 1.524 . S
C582 C596 1.377 . S
C583 C582 1.524 . S
C583 C584 1.397 . S
C583 C588 1.363 . S
C584 H561 0.950 . S
C584 C583 1.397 . S
C584 C585 1.334 . S
C585 H562 0.950 . S
C585 C584 1.334 . S
C585 C586 1.287 . S
C586 C585 1.287 . S
C586 C587 1.524 . S
C586 H605 0.913 . S
C587 H563 0.950 . S
C587 C586 1.524 . S
C587 C588 1.415 . S
C588 H564 0.950 . S
C588 C583 1.363 . S
C588 C587 1.415 . S
C589 H565 0.951 . S
C589 C590 1.366 . S
C589 C591 1.388 . S
C590 C589 1.366 . S
C590 C594 1.385 . S
C591 H566 0.951 . S
C591 C589 1.388 . S
C591 C592 1.366 . S
C592 C591 1.366 . S
C592 C593 1.414 . S
C592 C595 1.499 . S
C593 H567 0.950 . S
C593 C592 1.414 . S
C593 C594 1.374 . S
C594 H568 0.950 . S
C594 C590 1.385 . S
C594 C593 1.374 . S
C595 C592 1.499 . S
C595 C596 1.373 . S
C595 C597 1.389 . S
C596 H569 0.950 . S
C596 C582 1.377 . S
C596 C595 1.373 . S
C597 C581 1.377 . S
C597 C595 1.389 . S
C597 C598 1.524 . S
C598 C597 1.524 . S
C598 C599 1.397 . S
C598 C603 1.363 . S
C599 H570 0.950 . S
C599 C598 1.397 . S
C599 C600 1.334 . S
C600 H571 0.950 . S
C600 C599 1.334 . S
C600 C601 1.287 . S
C601 C600 1.287 . S
C601 C602 1.524 . S
C601 H604 0.999 . S
C602 H572 0.950 . S
C602 C601 1.524 . S
C602 C603 1.415 . S
C603 H573 0.950 . S
C603 C598 1.363 . S
C603 C602 1.415 . S
H604 C601 0.999 . S
H605 C586 0.913 . S
H606 C624 0.951 . S
H607 C626 0.951 . S
H608 C628 0.950 1_556 S
H609 C629 0.950 . S
H610 C631 0.950 . S
H611 C634 0.950 1_556 S
H612 C635 0.950 . S
H613 C637 0.950 . S
H614 C638 0.950 . S
H615 C639 0.951 . S
H616 C641 0.951 . S
H617 C643 0.950 1_554 S
H618 C644 0.950 . S
H619 C646 0.950 . S
H620 C649 0.950 1_554 S
H621 C650 0.950 . S
H622 C652 0.950 . S
H623 C653 0.950 . S
C624 H606 0.951 . S
C624 C625 1.366 . S
C624 C626 1.388 . S
C625 C624 1.366 . S
C625 C629 1.385 . S
C626 H607 0.951 . S
C626 C624 1.388 . S
C626 C627 1.366 . S
C627 C626 1.366 . S
C627 C628 1.414 . S
C627 C630 1.499 . S
C628 H608 0.950 1_554 S
C628 C627 1.414 . S
C628 C629 1.374 . S
C629 H609 0.950 . S
C629 C625 1.385 . S
C629 C628 1.374 . S
C630 C627 1.499 . S
C630 C631 1.373 1_554 S
C630 C632 1.389 . S
C631 H610 0.950 . S
C631 C630 1.373 1_556 S
C631 C647 1.377 . S
C632 C630 1.389 . S
C632 C633 1.524 . S
C632 C646 1.377 . S
C633 C632 1.524 . S
C633 C634 1.397 . S
C633 C638 1.363 . S
C634 H611 0.950 1_554 S
C634 C633 1.397 . S
C634 C635 1.334 . S
C635 H612 0.950 . S
C635 C634 1.334 . S
C635 C636 1.287 . S
C636 C635 1.287 . S
C636 C637 1.524 . S
C636 H655 0.913 . S
C637 H613 0.950 . S
C637 C636 1.524 . S
C637 C638 1.415 . S
C638 H614 0.950 . S
C638 C633 1.363 . S
C638 C637 1.415 . S
C639 H615 0.951 . S
C639 C640 1.366 . S
C639 C641 1.388 . S
C640 C639 1.366 . S
C640 C644 1.385 . S
C641 H616 0.951 . S
C641 C639 1.388 . S
C641 C642 1.366 . S
C642 C641 1.366 . S
C642 C643 1.414 . S
C642 C645 1.499 . S
C643 H617 0.950 1_556 S
C643 C642 1.414 . S
C643 C644 1.374 . S
C644 H618 0.950 . S
C644 C640 1.385 . S
C644 C643 1.374 . S
C645 C642 1.499 . S
C645 C646 1.373 1_556 S
C645 C647 1.389 . S
C646 H619 0.950 . S
C646 C632 1.377 . S
C646 C645 1.373 1_554 S
C647 C631 1.377 . S
C647 C645 1.389 . S
C647 C648 1.524 . S
C648 C647 1.524 . S
C648 C649 1.397 . S
C648 C653 1.363 . S
C649 H620 0.950 1_556 S
C649 C648 1.397 . S
C649 C650 1.334 . S
C650 H621 0.950 . S
C650 C649 1.334 . S
C650 C651 1.287 . S
C651 C650 1.287 . S
C651 C652 1.524 . S
C651 H654 0.999 . S
C652 H622 0.950 . S
C652 C651 1.524 . S
C652 C653 1.415 . S
C653 H623 0.950 . S
C653 C648 1.363 . S
C653 C652 1.415 . S
H654 C651 0.999 . S
H655 C636 0.913 . S
H656 C674 0.951 . S
H657 C676 0.951 . S
H658 C678 0.950 . S
H659 C679 0.950 . S
H660 C681 0.950 . S
H661 C684 0.950 . S
H662 C685 0.950 . S
H663 C687 0.950 . S
H664 C688 0.950 . S
H665 C689 0.951 . S
H666 C691 0.951 . S
H667 C693 0.950 . S
H668 C694 0.950 . S
H669 C696 0.950 . S
H670 C699 0.950 . S
H671 C700 0.950 . S
H672 C702 0.950 . S
H673 C703 0.950 . S
C674 H656 0.951 . S
C674 C675 1.366 . S
C674 C676 1.388 . S
C675 C674 1.366 . S
C675 C679 1.385 . S
C676 H657 0.951 . S
C676 C674 1.388 . S
C676 C677 1.366 . S
C677 C676 1.366 . S
C677 C678 1.414 . S
C677 C680 1.499 . S
C678 H658 0.950 . S
C678 C677 1.414 . S
C678 C679 1.374 . S
C679 H659 0.950 . S
C679 C675 1.385 . S
C679 C678 1.374 . S
C680 C677 1.499 . S
C680 C681 1.373 . S
C680 C682 1.389 . S
C681 H660 0.950 . S
C681 C680 1.373 . S
C681 C697 1.377 . S
C682 C680 1.389 . S
C682 C683 1.524 . S
C682 C696 1.377 . S
C683 C682 1.524 . S
C683 C684 1.397 . S
C683 C688 1.363 . S
C684 H661 0.950 . S
C684 C683 1.397 . S
C684 C685 1.334 . S
C685 H662 0.950 . S
C685 C684 1.334 . S
C685 C686 1.287 . S
C686 C685 1.287 . S
C686 C687 1.524 . S
C686 H705 0.913 . S
C687 H663 0.950 . S
C687 C686 1.524 . S
C687 C688 1.415 . S
C688 H664 0.950 . S
C688 C683 1.363 . S
C688 C687 1.415 . S
C689 H665 0.951 . S
C689 C690 1.366 . S
C689 C691 1.388 . S
C690 C689 1.366 . S
C690 C694 1.385 . S
C691 H666 0.951 . S
C691 C689 1.388 . S
C691 C692 1.366 . S
C692 C691 1.366 . S
C692 C693 1.414 . S
C692 C695 1.499 . S
C693 H667 0.950 . S
C693 C692 1.414 . S
C693 C694 1.374 . S
C694 H668 0.950 . S
C694 C690 1.385 . S
C694 C693 1.374 . S
C695 C692 1.499 . S
C695 C696 1.373 . S
C695 C697 1.389 . S
C696 H669 0.950 . S
C696 C682 1.377 . S
C696 C695 1.373 . S
C697 C681 1.377 . S
C697 C695 1.389 . S
C697 C698 1.524 . S
C698 C697 1.524 . S
C698 C699 1.397 . S
C698 C703 1.363 . S
C699 H670 0.950 . S
C699 C698 1.397 . S
C699 C700 1.334 . S
C700 H671 0.950 . S
C700 C699 1.334 . S
C700 C701 1.287 . S
C701 C700 1.287 . S
C701 C702 1.524 . S
C701 H704 0.999 . S
C702 H672 0.950 . S
C702 C701 1.524 . S
C702 C703 1.415 . S
C703 H673 0.950 . S
C703 C698 1.363 . S
C703 C702 1.415 . S
H704 C701 0.999 . S
H705 C686 0.913 . S
H706 C724 0.951 . S
H707 C726 0.951 . S
H708 C728 0.950 . S
H709 C729 0.950 . S
H710 C731 0.950 . S
H711 C734 0.950 . S
H712 C735 0.950 . S
H713 C737 0.950 . S
H714 C738 0.950 . S
H715 C739 0.951 . S
H716 C741 0.951 . S
H717 C743 0.950 . S
H718 C744 0.950 . S
H719 C746 0.950 . S
H720 C749 0.950 . S
H721 C750 0.950 . S
H722 C752 0.950 . S
H723 C753 0.950 . S
C724 H706 0.951 . S
C724 C725 1.366 . S
C724 C726 1.388 . S
C725 C724 1.366 . S
C725 C729 1.385 . S
C726 H707 0.951 . S
C726 C724 1.388 . S
C726 C727 1.366 . S
C727 C726 1.366 . S
C727 C728 1.414 . S
C727 C730 1.499 . S
C728 H708 0.950 . S
C728 C727 1.414 . S
C728 C729 1.374 . S
C729 H709 0.950 . S
C729 C725 1.385 . S
C729 C728 1.374 . S
C730 C727 1.499 . S
C730 C731 1.373 . S
C730 C732 1.389 . S
C731 H710 0.950 . S
C731 C730 1.373 . S
C731 C747 1.377 . S
C732 C730 1.389 . S
C732 C733 1.524 . S
C732 C746 1.377 . S
C733 C732 1.524 . S
C733 C734 1.397 . S
C733 C738 1.363 . S
C734 H711 0.950 . S
C734 C733 1.397 . S
C734 C735 1.334 . S
C735 H712 0.950 . S
C735 C734 1.334 . S
C735 C736 1.287 . S
C736 C735 1.287 . S
C736 C737 1.524 . S
C736 H755 0.913 . S
C737 H713 0.950 . S
C737 C736 1.524 . S
C737 C738 1.415 . S
C738 H714 0.950 . S
C738 C733 1.363 . S
C738 C737 1.415 . S
C739 H715 0.951 . S
C739 C740 1.366 . S
C739 C741 1.388 . S
C740 C739 1.366 . S
C740 C744 1.385 . S
C741 H716 0.951 . S
C741 C739 1.388 . S
C741 C742 1.366 . S
C742 C741 1.366 . S
C742 C743 1.414 . S
C742 C745 1.499 . S
C743 H717 0.950 . S
C743 C742 1.414 . S
C743 C744 1.374 . S
C744 H718 0.950 . S
C744 C740 1.385 . S
C744 C743 1.374 . S
C745 C742 1.499 . S
C745 C746 1.373 . S
C745 C747 1.389 . S
C746 H719 0.950 . S
C746 C732 1.377 . S
C746 C745 1.373 . S
C747 C731 1.377 . S
C747 C745 1.389 . S
C747 C748 1.524 . S
C748 C747 1.524 . S
C748 C749 1.397 . S
C748 C753 1.363 . S
C749 H720 0.950 . S
C749 C748 1.397 . S
C749 C750 1.334 . S
C750 H721 0.950 . S
C750 C749 1.334 . S
C750 C751 1.287 . S
C751 C750 1.287 . S
C751 C752 1.524 . S
C751 H754 0.999 . S
C752 H722 0.950 . S
C752 C751 1.524 . S
C752 C753 1.415 . S
C753 H723 0.950 . S
C753 C748 1.363 . S
C753 C752 1.415 . S
H754 C751 0.999 . S
H755 C736 0.913 . S
H756 C774 0.951 . S
H757 C776 0.951 . S
H758 C778 0.950 . S
H759 C779 0.950 . S
H760 C781 0.950 . S
H761 C784 0.950 . S
H762 C785 0.950 . S
H763 C787 0.950 . S
H764 C788 0.950 . S
H765 C789 0.951 . S
H766 C791 0.951 . S
H767 C793 0.950 . S
H768 C794 0.950 . S
H769 C796 0.950 . S
H770 C799 0.950 . S
H771 C800 0.950 . S
H772 C802 0.950 . S
H773 C803 0.950 . S
C774 H756 0.951 . S
C774 C775 1.366 . S
C774 C776 1.388 . S
C775 C774 1.366 . S
C775 C779 1.385 . S
C776 H757 0.951 . S
C776 C774 1.388 . S
C776 C777 1.366 . S
C777 C776 1.366 . S
C777 C778 1.414 . S
C777 C780 1.499 . S
C778 H758 0.950 . S
C778 C777 1.414 . S
C778 C779 1.374 . S
C779 H759 0.950 . S
C779 C775 1.385 . S
C779 C778 1.374 . S
C780 C777 1.499 . S
C780 C781 1.373 . S
C780 C782 1.389 . S
C781 H760 0.950 . S
C781 C780 1.373 . S
C781 C797 1.377 . S
C782 C780 1.389 . S
C782 C783 1.524 . S
C782 C796 1.377 . S
C783 C782 1.524 . S
C783 C784 1.397 . S
C783 C788 1.363 . S
C784 H761 0.950 . S
C784 C783 1.397 . S
C784 C785 1.334 . S
C785 H762 0.950 . S
C785 C784 1.334 . S
C785 C786 1.287 . S
C786 C785 1.287 . S
C786 C787 1.524 . S
C786 H805 0.913 . S
C787 H763 0.950 . S
C787 C786 1.524 . S
C787 C788 1.415 . S
C788 H764 0.950 . S
C788 C783 1.363 . S
C788 C787 1.415 . S
C789 H765 0.951 . S
C789 C790 1.366 . S
C789 C791 1.388 . S
C790 C789 1.366 . S
C790 C794 1.385 . S
C791 H766 0.951 . S
C791 C789 1.388 . S
C791 C792 1.366 . S
C792 C791 1.366 . S
C792 C793 1.414 . S
C792 C795 1.499 . S
C793 H767 0.950 . S
C793 C792 1.414 . S
C793 C794 1.374 . S
C794 H768 0.950 . S
C794 C790 1.385 . S
C794 C793 1.374 . S
C795 C792 1.499 . S
C795 C796 1.373 . S
C795 C797 1.389 . S
C796 H769 0.950 . S
C796 C782 1.377 . S
C796 C795 1.373 . S
C797 C781 1.377 . S
C797 C795 1.389 . S
C797 C798 1.524 . S
C798 C797 1.524 . S
C798 C799 1.397 . S
C798 C803 1.363 . S
C799 H770 0.950 . S
C799 C798 1.397 . S
C799 C800 1.334 . S
C800 H771 0.950 . S
C800 C799 1.334 . S
C800 C801 1.287 . S
C801 C800 1.287 . S
C801 C802 1.524 . S
C801 H804 0.999 . S
C802 H772 0.950 . S
C802 C801 1.524 . S
C802 C803 1.415 . S
C803 H773 0.950 . S
C803 C798 1.363 . S
C803 C802 1.415 . S
H804 C801 0.999 . S
H805 C786 0.913 . S
H806 C824 0.952 . S
H807 C826 0.951 . S
H808 C828 0.950 . S
H809 C829 0.950 . S
H810 C831 0.950 . S
H811 C834 0.950 . S
H812 C835 0.950 . S
H813 C837 0.950 . S
H814 C838 0.950 1_455 S
H815 C839 0.952 . S
H816 C841 0.951 . S
H817 C843 0.950 . S
H818 C844 0.950 . S
H819 C846 0.950 . S
H820 C849 0.950 . S
H821 C850 0.950 . S
H822 C852 0.950 . S
H823 C853 0.950 1_655 S
C824 H806 0.952 . S
C824 C825 1.363 1_455 S
C824 C826 1.391 . S
C825 C824 1.363 1_655 S
C825 C829 1.385 . S
C826 H807 0.951 . S
C826 C824 1.391 . S
C826 C827 1.366 1_455 S
C827 C826 1.366 1_655 S
C827 C828 1.414 . S
C827 C830 1.499 . S
C828 H808 0.950 . S
C828 C827 1.414 . S
C828 C829 1.374 . S
C829 H809 0.950 . S
C829 C825 1.385 . S
C829 C828 1.374 . S
C830 C827 1.499 . S
C830 C831 1.373 1_655 S
C830 C832 1.389 . S
C831 H810 0.950 . S
C831 C830 1.373 1_455 S
C831 C847 1.377 . S
C832 C830 1.389 . S
C832 C833 1.524 . S
C832 C846 1.377 . S
C833 C832 1.524 . S
C833 C834 1.397 . S
C833 C838 1.363 . S
C834 H811 0.950 . S
C834 C833 1.397 . S
C834 C835 1.334 . S
C835 H812 0.950 . S
C835 C834 1.334 . S
C835 C836 1.287 . S
C836 C835 1.287 . S
C836 C837 1.524 . S
C836 H855 0.913 . S
C837 H813 0.950 . S
C837 C836 1.524 . S
C837 C838 1.415 . S
C838 H814 0.950 1_655 S
C838 C833 1.363 . S
C838 C837 1.415 . S
C839 H815 0.952 . S
C839 C840 1.363 1_655 S
C839 C841 1.391 . S
C840 C839 1.363 1_455 S
C840 C844 1.385 . S
C841 H816 0.951 . S
C841 C839 1.391 . S
C841 C842 1.366 1_655 S
C842 C841 1.366 1_455 S
C842 C843 1.414 . S
C842 C845 1.499 . S
C843 H817 0.950 . S
C843 C842 1.414 . S
C843 C844 1.374 . S
C844 H818 0.950 . S
C844 C840 1.385 . S
C844 C843 1.374 . S
C845 C842 1.499 . S
C845 C846 1.373 1_455 S
C845 C847 1.389 . S
C846 H819 0.950 . S
C846 C832 1.377 . S
C846 C845 1.373 1_655 S
C847 C831 1.377 . S
C847 C845 1.389 . S
C847 C848 1.524 . S
C848 C847 1.524 . S
C848 C849 1.397 . S
C848 C853 1.363 . S
C849 H820 0.950 . S
C849 C848 1.397 . S
C849 C850 1.334 . S
C850 H821 0.950 . S
C850 C849 1.334 . S
C850 C851 1.287 . S
C851 C850 1.287 . S
C851 C852 1.524 . S
C851 H854 0.999 . S
C852 H822 0.950 . S
C852 C851 1.524 . S
C852 C853 1.415 . S
C853 H823 0.950 1_455 S
C853 C848 1.363 . S
C853 C852 1.415 . S
H854 C851 0.999 . S
H855 C836 0.913 . S
H856 C874 0.951 . S
H857 C876 0.951 . S
H858 C878 0.950 . S
H859 C879 0.950 . S
H860 C881 0.950 . S
H861 C884 0.950 . S
H862 C885 0.950 . S
H863 C887 0.950 . S
H864 C888 0.950 . S
H865 C889 0.951 . S
H866 C891 0.951 . S
H867 C893 0.950 . S
H868 C894 0.950 . S
H869 C896 0.950 . S
H870 C899 0.950 . S
H871 C900 0.950 . S
H872 C902 0.950 . S
H873 C903 0.950 . S
C874 H856 0.951 . S
C874 C875 1.366 1_545 S
C874 C876 1.388 . S
C875 C874 1.366 1_565 S
C875 C879 1.385 . S
C876 H857 0.951 . S
C876 C874 1.388 . S
C876 C877 1.366 1_545 S
C877 C876 1.366 1_565 S
C877 C878 1.414 . S
C877 C880 1.499 . S
C878 H858 0.950 . S
C878 C877 1.414 . S
C878 C879 1.374 . S
C879 H859 0.950 . S
C879 C875 1.385 . S
C879 C878 1.374 . S
C880 C877 1.499 . S
C880 C881 1.373 . S
C880 C882 1.389 1_565 S
C881 H860 0.950 . S
C881 C880 1.373 . S
C881 C897 1.377 . S
C882 C880 1.389 1_545 S
C882 C883 1.524 . S
C882 C896 1.377 . S
C883 C882 1.524 . S
C883 C884 1.397 . S
C883 C888 1.363 . S
C884 H861 0.950 . S
C884 C883 1.397 . S
C884 C885 1.334 . S
C885 H862 0.950 . S
C885 C884 1.334 . S
C885 C886 1.287 . S
C886 C885 1.287 . S
C886 C887 1.524 . S
C886 H905 0.913 . S
C887 H863 0.950 . S
C887 C886 1.524 . S
C887 C888 1.415 . S
C888 H864 0.950 . S
C888 C883 1.363 . S
C888 C887 1.415 . S
C889 H865 0.951 . S
C889 C890 1.366 1_565 S
C889 C891 1.388 . S
C890 C889 1.366 1_545 S
C890 C894 1.385 . S
C891 H866 0.951 . S
C891 C889 1.388 . S
C891 C892 1.366 1_565 S
C892 C891 1.366 1_545 S
C892 C893 1.414 . S
C892 C895 1.499 . S
C893 H867 0.950 . S
C893 C892 1.414 . S
C893 C894 1.374 . S
C894 H868 0.950 . S
C894 C890 1.385 . S
C894 C893 1.374 . S
C895 C892 1.499 . S
C895 C896 1.373 . S
C895 C897 1.389 1_545 S
C896 H869 0.950 . S
C896 C882 1.377 . S
C896 C895 1.373 . S
C897 C881 1.377 . S
C897 C895 1.389 1_565 S
C897 C898 1.524 . S
C898 C897 1.524 . S
C898 C899 1.397 . S
C898 C903 1.363 . S
C899 H870 0.950 . S
C899 C898 1.397 . S
C899 C900 1.334 . S
C900 H871 0.950 . S
C900 C899 1.334 . S
C900 C901 1.287 . S
C901 C900 1.287 . S
C901 C902 1.524 . S
C901 H904 0.999 . S
C902 H872 0.950 . S
C902 C901 1.524 . S
C902 C903 1.415 . S
C903 H873 0.950 . S
C903 C898 1.363 . S
C903 C902 1.415 . S
H904 C901 0.999 . S
H905 C886 0.913 . S
H906 C924 0.951 . S
H907 C926 0.951 . S
H908 C928 0.950 . S
H909 C929 0.950 . S
H910 C931 0.950 . S
H911 C934 0.950 . S
H912 C935 0.950 . S
H913 C937 0.950 . S
H914 C938 0.950 . S
H915 C939 0.951 . S
H916 C941 0.951 . S
H917 C943 0.950 . S
H918 C944 0.950 . S
H919 C946 0.950 . S
H920 C949 0.950 . S
H921 C950 0.950 . S
H922 C952 0.950 . S
H923 C953 0.950 . S
C924 H906 0.951 . S
C924 C925 1.366 . S
C924 C926 1.388 . S
C925 C924 1.366 . S
C925 C929 1.385 . S
C926 H907 0.951 . S
C926 C924 1.388 . S
C926 C927 1.366 . S
C927 C926 1.366 . S
C927 C928 1.414 . S
C927 C930 1.499 . S
C928 H908 0.950 . S
C928 C927 1.414 . S
C928 C929 1.374 . S
C929 H909 0.950 . S
C929 C925 1.385 . S
C929 C928 1.374 . S
C930 C927 1.499 . S
C930 C931 1.373 . S
C930 C932 1.389 . S
C931 H910 0.950 . S
C931 C930 1.373 . S
C931 C947 1.377 . S
C932 C930 1.389 . S
C932 C933 1.524 . S
C932 C946 1.377 . S
C933 C932 1.524 . S
C933 C934 1.397 . S
C933 C938 1.363 . S
C934 H911 0.950 . S
C934 C933 1.397 . S
C934 C935 1.334 . S
C935 H912 0.950 . S
C935 C934 1.334 . S
C935 C936 1.287 . S
C936 C935 1.287 . S
C936 C937 1.524 . S
C936 H955 0.913 . S
C937 H913 0.950 . S
C937 C936 1.524 . S
C937 C938 1.415 . S
C938 H914 0.950 . S
C938 C933 1.363 . S
C938 C937 1.415 . S
C939 H915 0.951 . S
C939 C940 1.366 . S
C939 C941 1.388 . S
C940 C939 1.366 . S
C940 C944 1.385 . S
C941 H916 0.951 . S
C941 C939 1.388 . S
C941 C942 1.366 . S
C942 C941 1.366 . S
C942 C943 1.414 . S
C942 C945 1.499 . S
C943 H917 0.950 . S
C943 C942 1.414 . S
C943 C944 1.374 . S
C944 H918 0.950 . S
C944 C940 1.385 . S
C944 C943 1.374 . S
C945 C942 1.499 . S
C945 C946 1.373 . S
C945 C947 1.389 . S
C946 H919 0.950 . S
C946 C932 1.377 . S
C946 C945 1.373 . S
C947 C931 1.377 . S
C947 C945 1.389 . S
C947 C948 1.524 . S
C948 C947 1.524 . S
C948 C949 1.397 . S
C948 C953 1.363 . S
C949 H920 0.950 . S
C949 C948 1.397 . S
C949 C950 1.334 . S
C950 H921 0.950 . S
C950 C949 1.334 . S
C950 C951 1.287 . S
C951 C950 1.287 . S
C951 C952 1.524 . S
C951 H954 0.999 . S
C952 H922 0.950 . S
C952 C951 1.524 . S
C952 C953 1.415 . S
C953 H923 0.950 . S
C953 C948 1.363 . S
C953 C952 1.415 . S
H954 C951 0.999 . S
H955 C936 0.913 . S
H956 C974 0.951 . S
H957 C976 0.951 . S
H958 C978 0.950 . S
H959 C979 0.950 . S
H960 C981 0.950 . S
H961 C984 0.950 . S
H962 C985 0.950 . S
H963 C987 0.950 . S
H964 C988 0.950 . S
H965 C989 0.951 . S
H966 C991 0.951 . S
H967 C993 0.950 . S
H968 C994 0.950 . S
H969 C996 0.950 . S
H970 C999 0.950 . S
H971 C1000 0.950 . S
H972 C1002 0.950 . S
H973 C1003 0.950 . S
C974 H956 0.951 . S
C974 C975 1.366 . S
C974 C976 1.388 . S
C975 C974 1.366 . S
C975 C979 1.385 1_455 S
C976 H957 0.951 . S
C976 C974 1.388 . S
C976 C977 1.366 . S
C977 C976 1.366 . S
C977 C978 1.414 1_455 S
C977 C980 1.499 . S
C978 H958 0.950 . S
C978 C977 1.414 1_655 S
C978 C979 1.374 . S
C979 H959 0.950 . S
C979 C975 1.385 1_655 S
C979 C978 1.374 . S
C980 C977 1.499 . S
C980 C981 1.373 1_455 S
C980 C982 1.389 . S
C981 H960 0.950 . S
C981 C980 1.373 1_655 S
C981 C997 1.377 . S
C982 C980 1.389 . S
C982 C983 1.524 . S
C982 C996 1.377 . S
C983 C982 1.524 . S
C983 C984 1.397 . S
C983 C988 1.363 . S
C984 H961 0.950 . S
C984 C983 1.397 . S
C984 C985 1.334 . S
C985 H962 0.950 . S
C985 C984 1.334 . S
C985 C986 1.287 . S
C986 C985 1.287 . S
C986 C987 1.524 . S
C986 H1005 0.913 . S
C987 H963 0.950 . S
C987 C986 1.524 . S
C987 C988 1.415 . S
C988 H964 0.950 . S
C988 C983 1.363 . S
C988 C987 1.415 . S
C989 H965 0.951 . S
C989 C990 1.366 . S
C989 C991 1.388 . S
C990 C989 1.366 . S
C990 C994 1.385 1_655 S
C991 H966 0.951 . S
C991 C989 1.388 . S
C991 C992 1.366 . S
C992 C991 1.366 . S
C992 C993 1.414 1_655 S
C992 C995 1.499 . S
C993 H967 0.950 . S
C993 C992 1.414 1_455 S
C993 C994 1.374 . S
C994 H968 0.950 . S
C994 C990 1.385 1_455 S
C994 C993 1.374 . S
C995 C992 1.499 . S
C995 C996 1.373 1_655 S
C995 C997 1.389 . S
C996 H969 0.950 . S
C996 C982 1.377 . S
C996 C995 1.373 1_455 S
C997 C981 1.377 . S
C997 C995 1.389 . S
C997 C998 1.524 . S
C998 C997 1.524 . S
C998 C999 1.397 . S
C998 C1003 1.363 . S
C999 H970 0.950 . S
C999 C998 1.397 . S
C999 C1000 1.334 . S
C1000 H971 0.950 . S
C1000 C999 1.334 . S
C1000 C1001 1.287 . S
C1001 C1000 1.287 . S
C1001 C1002 1.524 . S
C1001 H1004 0.999 . S
C1002 H972 0.950 . S
C1002 C1001 1.524 . S
C1002 C1003 1.415 . S
C1003 H973 0.950 . S
C1003 C998 1.363 . S
C1003 C1002 1.415 . S
H1004 C1001 0.999 . S
H1005 C986 0.913 . S
H1006 C1024 0.951 . S
H1007 C1026 0.951 . S
H1008 C1028 0.950 . S
H1009 C1029 0.950 . S
H1010 C1031 0.950 . S
H1011 C1034 0.950 1_545 S
H1012 C1035 0.950 . S
H1013 C1037 0.950 . S
H1014 C1038 0.950 . S
H1015 C1039 0.951 . S
H1016 C1041 0.951 . S
H1017 C1043 0.950 . S
H1018 C1044 0.950 . S
H1019 C1046 0.950 . S
H1020 C1049 0.950 1_565 S
H1021 C1050 0.950 . S
H1022 C1052 0.950 . S
H1023 C1053 0.950 . S
C1024 H1006 0.951 . S
C1024 C1025 1.366 . S
C1024 C1026 1.388 . S
C1025 C1024 1.366 . S
C1025 C1029 1.385 1_565 S
C1026 H1007 0.951 . S
C1026 C1024 1.388 . S
C1026 C1027 1.366 . S
C1027 C1026 1.366 . S
C1027 C1028 1.414 1_565 S
C1027 C1030 1.499 . S
C1028 H1008 0.950 . S
C1028 C1027 1.414 1_545 S
C1028 C1029 1.374 . S
C1029 H1009 0.950 . S
C1029 C1025 1.385 1_545 S
C1029 C1028 1.374 . S
C1030 C1027 1.499 . S
C1030 C1031 1.373 1_565 S
C1030 C1032 1.389 . S
C1031 H1010 0.950 . S
C1031 C1030 1.373 1_545 S
C1031 C1047 1.377 . S
C1032 C1030 1.389 . S
C1032 C1033 1.524 . S
C1032 C1046 1.377 . S
C1033 C1032 1.524 . S
C1033 C1034 1.397 . S
C1033 C1038 1.363 . S
C1034 H1011 0.950 1_565 S
C1034 C1033 1.397 . S
C1034 C1035 1.334 . S
C1035 H1012 0.950 . S
C1035 C1034 1.334 . S
C1035 C1036 1.287 . S
C1036 C1035 1.287 . S
C1036 C1037 1.524 . S
C1036 H1055 0.913 . S
C1037 H1013 0.950 . S
C1037 C1036 1.524 . S
C1037 C1038 1.415 . S
C1038 H1014 0.950 . S
C1038 C1033 1.363 . S
C1038 C1037 1.415 . S
C1039 H1015 0.951 . S
C1039 C1040 1.366 . S
C1039 C1041 1.388 . S
C1040 C1039 1.366 . S
C1040 C1044 1.385 1_545 S
C1041 H1016 0.951 . S
C1041 C1039 1.388 . S
C1041 C1042 1.366 . S
C1042 C1041 1.366 . S
C1042 C1043 1.414 1_545 S
C1042 C1045 1.499 . S
C1043 H1017 0.950 . S
C1043 C1042 1.414 1_565 S
C1043 C1044 1.374 . S
C1044 H1018 0.950 . S
C1044 C1040 1.385 1_565 S
C1044 C1043 1.374 . S
C1045 C1042 1.499 . S
C1045 C1046 1.373 1_545 S
C1045 C1047 1.389 . S
C1046 H1019 0.950 . S
C1046 C1032 1.377 . S
C1046 C1045 1.373 1_565 S
C1047 C1031 1.377 . S
C1047 C1045 1.389 . S
C1047 C1048 1.524 . S
C1048 C1047 1.524 . S
C1048 C1049 1.397 . S
C1048 C1053 1.363 . S
C1049 H1020 0.950 1_545 S
C1049 C1048 1.397 . S
C1049 C1050 1.334 . S
C1050 H1021 0.950 . S
C1050 C1049 1.334 . S
C1050 C1051 1.287 . S
C1051 C1050 1.287 . S
C1051 C1052 1.524 . S
C1051 H1054 0.999 . S
C1052 H1022 0.950 . S
C1052 C1051 1.524 . S
C1052 C1053 1.415 . S
C1053 H1023 0.950 . S
C1053 C1048 1.363 . S
C1053 C1052 1.415 . S
H1054 C1051 0.999 . S
H1055 C1036 0.913 . S
H1056 C1074 0.951 . S
H1057 C1076 0.951 . S
H1058 C1078 0.950 . S
H1059 C1079 0.950 . S
H1060 C1081 0.950 . S
H1061 C1084 0.950 . S
H1062 C1085 0.950 . S
H1063 C1087 0.950 . S
H1064 C1088 0.950 . S
H1065 C1089 0.951 . S
H1066 C1091 0.951 . S
H1067 C1093 0.950 . S
H1068 C1094 0.950 . S
H1069 C1096 0.950 . S
H1070 C1099 0.950 . S
H1071 C1100 0.950 . S
H1072 C1102 0.950 . S
H1073 C1103 0.950 . S
C1074 H1056 0.951 . S
C1074 C1075 1.366 . S
C1074 C1076 1.388 . S
C1075 C1074 1.366 . S
C1075 C1079 1.385 . S
C1076 H1057 0.951 . S
C1076 C1074 1.388 . S
C1076 C1077 1.366 . S
C1077 C1076 1.366 . S
C1077 C1078 1.414 . S
C1077 C1080 1.499 . S
C1078 H1058 0.950 . S
C1078 C1077 1.414 . S
C1078 C1079 1.374 . S
C1079 H1059 0.950 . S
C1079 C1075 1.385 . S
C1079 C1078 1.374 . S
C1080 C1077 1.499 . S
C1080 C1081 1.373 . S
C1080 C1082 1.389 . S
C1081 H1060 0.950 . S
C1081 C1080 1.373 . S
C1081 C1097 1.377 . S
C1082 C1080 1.389 . S
C1082 C1083 1.524 . S
C1082 C1096 1.377 . S
C1083 C1082 1.524 . S
C1083 C1084 1.397 . S
C1083 C1088 1.363 . S
C1084 H1061 0.950 . S
C1084 C1083 1.397 . S
C1084 C1085 1.334 . S
C1085 H1062 0.950 . S
C1085 C1084 1.334 . S
C1085 C1086 1.287 . S
C1086 C1085 1.287 . S
C1086 C1087 1.524 . S
C1086 H1105 0.913 . S
C1087 H1063 0.950 . S
C1087 C1086 1.524 . S
C1087 C1088 1.415 . S
C1088 H1064 0.950 . S
C1088 C1083 1.363 . S
C1088 C1087 1.415 . S
C1089 H1065 0.951 . S
C1089 C1090 1.366 . S
C1089 C1091 1.388 . S
C1090 C1089 1.366 . S
C1090 C1094 1.385 . S
C1091 H1066 0.951 . S
C1091 C1089 1.388 . S
C1091 C1092 1.366 . S
C1092 C1091 1.366 . S
C1092 C1093 1.414 . S
C1092 C1095 1.499 . S
C1093 H1067 0.950 . S
C1093 C1092 1.414 . S
C1093 C1094 1.374 . S
C1094 H1068 0.950 . S
C1094 C1090 1.385 . S
C1094 C1093 1.374 . S
C1095 C1092 1.499 . S
C1095 C1096 1.373 . S
C1095 C1097 1.389 . S
C1096 H1069 0.950 . S
C1096 C1082 1.377 . S
C1096 C1095 1.373 . S
C1097 C1081 1.377 . S
C1097 C1095 1.389 . S
C1097 C1098 1.524 . S
C1098 C1097 1.524 . S
C1098 C1099 1.397 . S
C1098 C1103 1.363 . S
C1099 H1070 0.950 . S
C1099 C1098 1.397 . S
C1099 C1100 1.334 . S
C1100 H1071 0.950 . S
C1100 C1099 1.334 . S
C1100 C1101 1.287 . S
C1101 C1100 1.287 . S
C1101 C1102 1.524 . S
C1101 H1104 0.999 . S
C1102 H1072 0.950 . S
C1102 C1101 1.524 . S
C1102 C1103 1.415 . S
C1103 H1073 0.950 . S
C1103 C1098 1.363 . S
C1103 C1102 1.415 . S
H1104 C1101 0.999 . S
H1105 C1086 0.913 . S
H1106 C1124 0.951 1_655 S
H1107 C1126 0.956 . S
H1108 C1128 0.950 . S
H1109 C1129 0.950 . S
H1110 C1131 0.950 . S
H1111 C1134 0.950 . S
H1112 C1135 0.950 . S
H1113 C1137 0.950 . S
H1114 C1138 0.950 . S
H1115 C1139 0.951 1_455 S
H1116 C1141 0.956 . S
H1117 C1143 0.950 . S
H1118 C1144 0.950 . S
H1119 C1146 0.950 . S
H1120 C1149 0.950 . S
H1121 C1150 0.950 . S
H1122 C1152 0.950 . S
H1123 C1153 0.950 . S
C1124 H1106 0.951 1_455 S
C1124 C1125 1.366 . S
C1124 C1126 1.393 1_455 S
C1125 C1124 1.366 . S
C1125 C1129 1.385 . S
C1126 H1107 0.956 . S
C1126 C1124 1.393 1_655 S
C1126 C1127 1.355 1_655 S
C1127 C1126 1.355 1_455 S
C1127 C1128 1.414 . S
C1127 C1130 1.499 . S
C1128 H1108 0.950 . S
C1128 C1127 1.414 . S
C1128 C1129 1.374 . S
C1129 H1109 0.950 . S
C1129 C1125 1.385 . S
C1129 C1128 1.374 . S
C1130 C1127 1.499 . S
C1130 C1131 1.373 . S
C1130 C1132 1.389 1_455 S
C1131 H1110 0.950 . S
C1131 C1130 1.373 . S
C1131 C1147 1.377 . S
C1132 C1130 1.389 1_655 S
C1132 C1133 1.524 . S
C1132 C1146 1.377 . S
C1133 C1132 1.524 . S
C1133 C1134 1.397 . S
C1133 C1138 1.363 . S
C1134 H1111 0.950 . S
C1134 C1133 1.397 . S
C1134 C1135 1.334 . S
C1135 H1112 0.950 . S
C1135 C1134 1.334 . S
C1135 C1136 1.287 . S
C1136 C1135 1.287 . S
C1136 C1137 1.524 . S
C1136 H1155 0.913 . S
C1137 H1113 0.950 . S
C1137 C1136 1.524 . S
C1137 C1138 1.415 . S
C1138 H1114 0.950 . S
C1138 C1133 1.363 . S
C1138 C1137 1.415 . S
C1139 H1115 0.951 1_655 S
C1139 C1140 1.366 . S
C1139 C1141 1.393 1_655 S
C1140 C1139 1.366 . S
C1140 C1144 1.385 . S
C1141 H1116 0.956 . S
C1141 C1139 1.393 1_455 S
C1141 C1142 1.355 1_455 S
C1142 C1141 1.355 1_655 S
C1142 C1143 1.414 . S
C1142 C1145 1.499 . S
C1143 H1117 0.950 . S
C1143 C1142 1.414 . S
C1143 C1144 1.374 . S
C1144 H1118 0.950 . S
C1144 C1140 1.385 . S
C1144 C1143 1.374 . S
C1145 C1142 1.499 . S
C1145 C1146 1.373 . S
C1145 C1147 1.389 1_655 S
C1146 H1119 0.950 . S
C1146 C1132 1.377 . S
C1146 C1145 1.373 . S
C1147 C1131 1.377 . S
C1147 C1145 1.389 1_455 S
C1147 C1148 1.524 . S
C1148 C1147 1.524 . S
C1148 C1149 1.397 . S
C1148 C1153 1.363 . S
C1149 H1120 0.950 . S
C1149 C1148 1.397 . S
C1149 C1150 1.334 . S
C1150 H1121 0.950 . S
C1150 C1149 1.334 . S
C1150 C1151 1.287 . S
C1151 C1150 1.287 . S
C1151 C1152 1.524 . S
C1151 H1154 0.999 . S
C1152 H1122 0.950 . S
C1152 C1151 1.524 . S
C1152 C1153 1.415 . S
C1153 H1123 0.950 . S
C1153 C1148 1.363 . S
C1153 C1152 1.415 . S
H1154 C1151 0.999 . S
H1155 C1136 0.913 . S
H1156 C1174 0.951 . S
H1157 C1176 0.951 . S
H1158 C1178 0.950 . S
H1159 C1179 0.950 . S
H1160 C1181 0.950 . S
H1161 C1184 0.950 . S
H1162 C1185 0.950 . S
H1163 C1187 0.950 . S
H1164 C1188 0.950 . S
H1165 C1189 0.951 . S
H1166 C1191 0.951 . S
H1167 C1193 0.950 . S
H1168 C1194 0.950 . S
H1169 C1196 0.950 . S
H1170 C1199 0.950 . S
H1171 C1200 0.950 . S
H1172 C1202 0.950 . S
H1173 C1203 0.950 . S
C1174 H1156 0.951 . S
C1174 C1175 1.366 . S
C1174 C1176 1.388 . S
C1175 C1174 1.366 . S
C1175 C1179 1.385 . S
C1176 H1157 0.951 . S
C1176 C1174 1.388 . S
C1176 C1177 1.366 . S
C1177 C1176 1.366 . S
C1177 C1178 1.414 . S
C1177 C1180 1.499 . S
C1178 H1158 0.950 . S
C1178 C1177 1.414 . S
C1178 C1179 1.374 . S
C1179 H1159 0.950 . S
C1179 C1175 1.385 . S
C1179 C1178 1.374 . S
C1180 C1177 1.499 . S
C1180 C1181 1.373 1_565 S
C1180 C1182 1.389 . S
C1181 H1160 0.950 . S
C1181 C1180 1.373 1_545 S
C1181 C1197 1.377 . S
C1182 C1180 1.389 . S
C1182 C1183 1.524 . S
C1182 C1196 1.377 . S
C1183 C1182 1.524 . S
C1183 C1184 1.397 . S
C1183 C1188 1.363 . S
C1184 H1161 0.950 . S
C1184 C1183 1.397 . S
C1184 C1185 1.334 . S
C1185 H1162 0.950 . S
C1185 C1184 1.334 . S
C1185 C1186 1.287 . S
C1186 C1185 1.287 . S
C1186 C1187 1.524 . S
C1186 H1205 0.913 . S
C1187 H1163 0.950 . S
C1187 C1186 1.524 . S
C1187 C1188 1.415 . S
C1188 H1164 0.950 . S
C1188 C1183 1.363 . S
C1188 C1187 1.415 . S
C1189 H1165 0.951 . S
C1189 C1190 1.366 . S
C1189 C1191 1.388 . S
C1190 C1189 1.366 . S
C1190 C1194 1.385 . S
C1191 H1166 0.951 . S
C1191 C1189 1.388 . S
C1191 C1192 1.366 . S
C1192 C1191 1.366 . S
C1192 C1193 1.414 . S
C1192 C1195 1.499 . S
C1193 H1167 0.950 . S
C1193 C1192 1.414 . S
C1193 C1194 1.374 . S
C1194 H1168 0.950 . S
C1194 C1190 1.385 . S
C1194 C1193 1.374 . S
C1195 C1192 1.499 . S
C1195 C1196 1.373 1_545 S
C1195 C1197 1.389 . S
C1196 H1169 0.950 . S
C1196 C1182 1.377 . S
C1196 C1195 1.373 1_565 S
C1197 C1181 1.377 . S
C1197 C1195 1.389 . S
C1197 C1198 1.524 . S
C1198 C1197 1.524 . S
C1198 C1199 1.397 . S
C1198 C1203 1.363 . S
C1199 H1170 0.950 . S
C1199 C1198 1.397 . S
C1199 C1200 1.334 . S
C1200 H1171 0.950 . S
C1200 C1199 1.334 . S
C1200 C1201 1.287 . S
C1201 C1200 1.287 . S
C1201 C1202 1.524 . S
C1201 H1204 0.999 . S
C1202 H1172 0.950 . S
C1202 C1201 1.524 . S
C1202 C1203 1.415 . S
C1203 H1173 0.950 . S
C1203 C1198 1.363 . S
C1203 C1202 1.415 . S
H1204 C1201 0.999 . S
H1205 C1186 0.913 . S
H1206 C1224 0.951 . S
H1207 C1226 0.951 . S
H1208 C1228 0.950 . S
H1209 C1229 0.950 . S
H1210 C1231 0.950 . S
H1211 C1234 0.950 . S
H1212 C1235 0.950 . S
H1213 C1237 0.950 . S
H1214 C1238 0.950 . S
H1215 C1239 0.951 . S
H1216 C1241 0.951 . S
H1217 C1243 0.950 . S
H1218 C1244 0.950 . S
H1219 C1246 0.950 . S
H1220 C1249 0.950 . S
H1221 C1250 0.950 . S
H1222 C1252 0.950 . S
H1223 C1253 0.950 . S
C1224 H1206 0.951 . S
C1224 C1225 1.366 . S
C1224 C1226 1.388 . S
C1225 C1224 1.366 . S
C1225 C1229 1.385 . S
C1226 H1207 0.951 . S
C1226 C1224 1.388 . S
C1226 C1227 1.366 . S
C1227 C1226 1.366 . S
C1227 C1228 1.414 . S
C1227 C1230 1.499 . S
C1228 H1208 0.950 . S
C1228 C1227 1.414 . S
C1228 C1229 1.374 . S
C1229 H1209 0.950 . S
C1229 C1225 1.385 . S
C1229 C1228 1.374 . S
C1230 C1227 1.499 . S
C1230 C1231 1.373 . S
C1230 C1232 1.389 . S
C1231 H1210 0.950 . S
C1231 C1230 1.373 . S
C1231 C1247 1.377 . S
C1232 C1230 1.389 . S
C1232 C1233 1.524 . S
C1232 C1246 1.377 . S
C1233 C1232 1.524 . S
C1233 C1234 1.397 . S
C1233 C1238 1.363 . S
C1234 H1211 0.950 . S
C1234 C1233 1.397 . S
C1234 C1235 1.334 . S
C1235 H1212 0.950 . S
C1235 C1234 1.334 . S
C1235 C1236 1.287 . S
C1236 C1235 1.287 . S
C1236 C1237 1.524 . S
C1236 H1255 0.913 . S
C1237 H1213 0.950 . S
C1237 C1236 1.524 . S
C1237 C1238 1.415 . S
C1238 H1214 0.950 . S
C1238 C1233 1.363 . S
C1238 C1237 1.415 . S
C1239 H1215 0.951 . S
C1239 C1240 1.366 . S
C1239 C1241 1.388 . S
C1240 C1239 1.366 . S
C1240 C1244 1.385 . S
C1241 H1216 0.951 . S
C1241 C1239 1.388 . S
C1241 C1242 1.366 . S
C1242 C1241 1.366 . S
C1242 C1243 1.414 . S
C1242 C1245 1.499 . S
C1243 H1217 0.950 . S
C1243 C1242 1.414 . S
C1243 C1244 1.374 . S
C1244 H1218 0.950 . S
C1244 C1240 1.385 . S
C1244 C1243 1.374 . S
C1245 C1242 1.499 . S
C1245 C1246 1.373 . S
C1245 C1247 1.389 . S
C1246 H1219 0.950 . S
C1246 C1232 1.377 . S
C1246 C1245 1.373 . S
C1247 C1231 1.377 . S
C1247 C1245 1.389 . S
C1247 C1248 1.524 . S
C1248 C1247 1.524 . S
C1248 C1249 1.397 . S
C1248 C1253 1.363 . S
C1249 H1220 0.950 . S
C1249 C1248 1.397 . S
C1249 C1250 1.334 . S
C1250 H1221 0.950 . S
C1250 C1249 1.334 . S
C1250 C1251 1.287 . S
C1251 C1250 1.287 . S
C1251 C1252 1.524 . S
C1251 H1254 0.999 . S
C1252 H1222 0.950 . S
C1252 C1251 1.524 . S
C1252 C1253 1.415 . S
C1253 H1223 0.950 . S
C1253 C1248 1.363 . S
C1253 C1252 1.415 . S
H1254 C1251 0.999 . S
H1255 C1236 0.913 . S
H1256 C1274 0.951 1_455 S
H1257 C1276 0.951 . S
H1258 C1278 0.950 . S
H1259 C1279 0.950 . S
H1260 C1281 0.950 . S
H1261 C1284 0.950 . S
H1262 C1285 0.950 . S
H1263 C1287 0.950 . S
H1264 C1288 0.950 . S
H1265 C1289 0.951 1_655 S
H1266 C1291 0.951 . S
H1267 C1293 0.950 . S
H1268 C1294 0.950 . S
H1269 C1296 0.950 . S
H1270 C1299 0.950 . S
H1271 C1300 0.950 . S
H1272 C1302 0.950 . S
H1273 C1303 0.950 . S
C1274 H1256 0.951 1_655 S
C1274 C1275 1.366 . S
C1274 C1276 1.388 1_655 S
C1275 C1274 1.366 . S
C1275 C1279 1.385 . S
C1276 H1257 0.951 . S
C1276 C1274 1.388 1_455 S
C1276 C1277 1.366 1_455 S
C1277 C1276 1.366 1_655 S
C1277 C1278 1.414 . S
C1277 C1280 1.499 . S
C1278 H1258 0.950 . S
C1278 C1277 1.414 . S
C1278 C1279 1.374 . S
C1279 H1259 0.950 . S
C1279 C1275 1.385 . S
C1279 C1278 1.374 . S
C1280 C1277 1.499 . S
C1280 C1281 1.373 . S
C1280 C1282 1.389 . S
C1281 H1260 0.950 . S
C1281 C1280 1.373 . S
C1281 C1297 1.377 1_655 S
C1282 C1280 1.389 . S
C1282 C1283 1.524 . S
C1282 C1296 1.377 1_655 S
C1283 C1282 1.524 . S
C1283 C1284 1.397 . S
C1283 C1288 1.363 1_655 S
C1284 H1261 0.950 . S
C1284 C1283 1.397 . S
C1284 C1285 1.334 . S
C1285 H1262 0.950 . S
C1285 C1284 1.334 . S
C1285 C1286 1.287 . S
C1286 C1285 1.287 . S
C1286 C1287 1.524 1_655 S
C1286 H1305 0.913 . S
C1287 H1263 0.950 . S
C1287 C1286 1.524 1_455 S
C1287 C1288 1.415 . S
C1288 H1264 0.950 . S
C1288 C1283 1.363 1_455 S
C1288 C1287 1.415 . S
C1289 H1265 0.951 1_455 S
C1289 C1290 1.366 . S
C1289 C1291 1.388 1_455 S
C1290 C1289 1.366 . S
C1290 C1294 1.385 . S
C1291 H1266 0.951 . S
C1291 C1289 1.388 1_655 S
C1291 C1292 1.366 1_655 S
C1292 C1291 1.366 1_455 S
C1292 C1293 1.414 . S
C1292 C1295 1.499 . S
C1293 H1267 0.950 . S
C1293 C1292 1.414 . S
C1293 C1294 1.374 . S
C1294 H1268 0.950 . S
C1294 C1290 1.385 . S
C1294 C1293 1.374 . S
C1295 C1292 1.499 . S
C1295 C1296 1.373 . S
C1295 C1297 1.389 . S
C1296 H1269 0.950 . S
C1296 C1282 1.377 1_455 S
C1296 C1295 1.373 . S
C1297 C1281 1.377 1_455 S
C1297 C1295 1.389 . S
C1297 C1298 1.524 . S
C1298 C1297 1.524 . S
C1298 C1299 1.397 . S
C1298 C1303 1.363 1_456 S
C1299 H1270 0.950 . S
C1299 C1298 1.397 . S
C1299 C1300 1.334 1_556 S
C1300 H1271 0.950 . S
C1300 C1299 1.334 1_554 S
C1300 C1301 1.287 . S
C1301 C1300 1.287 . S
C1301 C1302 1.524 1_455 S
C1301 H1304 0.999 . S
C1302 H1272 0.950 . S
C1302 C1301 1.524 1_655 S
C1302 C1303 1.415 . S
C1303 H1273 0.950 . S
C1303 C1298 1.363 1_654 S
C1303 C1302 1.415 . S
H1304 C1301 0.999 . S
H1305 C1286 0.913 . S
H1306 C1324 0.951 . S
H1307 C1326 0.951 . S
H1308 C1328 0.950 . S
H1309 C1329 0.950 . S
H1310 C1331 0.950 . S
H1311 C1334 0.950 1_545 S
H1312 C1335 0.950 . S
H1313 C1337 0.950 . S
H1314 C1338 0.950 . S
H1315 C1339 0.951 . S
H1316 C1341 0.951 . S
H1317 C1343 0.950 . S
H1318 C1344 0.950 . S
H1319 C1346 0.950 . S
H1320 C1349 0.950 1_565 S
H1321 C1350 0.950 . S
H1322 C1352 0.950 . S
H1323 C1353 0.950 . S
C1324 H1306 0.951 . S
C1324 C1325 1.366 1_565 S
C1324 C1326 1.388 . S
C1325 C1324 1.366 1_545 S
C1325 C1329 1.385 . S
C1326 H1307 0.951 . S
C1326 C1324 1.388 . S
C1326 C1327 1.366 1_565 S
C1327 C1326 1.366 1_545 S
C1327 C1328 1.414 . S
C1327 C1330 1.499 . S
C1328 H1308 0.950 . S
C1328 C1327 1.414 . S
C1328 C1329 1.374 . S
C1329 H1309 0.950 . S
C1329 C1325 1.385 . S
C1329 C1328 1.374 . S
C1330 C1327 1.499 . S
C1330 C1331 1.373 . S
C1330 C1332 1.389 1_545 S
C1331 H1310 0.950 . S
C1331 C1330 1.373 . S
C1331 C1347 1.377 . S
C1332 C1330 1.389 1_565 S
C1332 C1333 1.524 . S
C1332 C1346 1.377 . S
C1333 C1332 1.524 . S
C1333 C1334 1.397 . S
C1333 C1338 1.363 . S
C1334 H1311 0.950 1_565 S
C1334 C1333 1.397 . S
C1334 C1335 1.334 . S
C1335 H1312 0.950 . S
C1335 C1334 1.334 . S
C1335 C1336 1.287 . S
C1336 C1335 1.287 . S
C1336 C1337 1.524 . S
C1336 H1355 0.913 . S
C1337 H1313 0.950 . S
C1337 C1336 1.524 . S
C1337 C1338 1.415 . S
C1338 H1314 0.950 . S
C1338 C1333 1.363 . S
C1338 C1337 1.415 . S
C1339 H1315 0.951 . S
C1339 C1340 1.366 1_545 S
C1339 C1341 1.388 . S
C1340 C1339 1.366 1_565 S
C1340 C1344 1.385 . S
C1341 H1316 0.951 . S
C1341 C1339 1.388 . S
C1341 C1342 1.366 1_545 S
C1342 C1341 1.366 1_565 S
C1342 C1343 1.414 . S
C1342 C1345 1.499 . S
C1343 H1317 0.950 . S
C1343 C1342 1.414 . S
C1343 C1344 1.374 . S
C1344 H1318 0.950 . S
C1344 C1340 1.385 . S
C1344 C1343 1.374 . S
C1345 C1342 1.499 . S
C1345 C1346 1.373 . S
C1345 C1347 1.389 1_565 S
C1346 H1319 0.950 . S
C1346 C1332 1.377 . S
C1346 C1345 1.373 . S
C1347 C1331 1.377 . S
C1347 C1345 1.389 1_545 S
C1347 C1348 1.524 . S
C1348 C1347 1.524 . S
C1348 C1349 1.397 . S
C1348 C1353 1.363 . S
C1349 H1320 0.950 1_545 S
C1349 C1348 1.397 . S
C1349 C1350 1.334 . S
C1350 H1321 0.950 . S
C1350 C1349 1.334 . S
C1350 C1351 1.287 . S
C1351 C1350 1.287 . S
C1351 C1352 1.524 . S
C1351 H1354 0.999 . S
C1352 H1322 0.950 . S
C1352 C1351 1.524 . S
C1352 C1353 1.415 . S
C1353 H1323 0.950 . S
C1353 C1348 1.363 . S
C1353 C1352 1.415 . S
H1354 C1351 0.999 . S
H1355 C1336 0.913 . S
C175 C5 1.362 . S
C190 C122 1.362 . S
C225 C16 1.362 . S
C240 C133 1.362 . S
C275 C31 1.362 . S
C290 C148 1.362 . S
C325 C42 1.362 . S
C340 C83 1.362 . S
C375 C96 1.362 . S
C390 C57 1.362 . S
C425 C109 1.362 . S
C440 C68 1.362 . S
C475 C134 1.639 . S
C490 C10 1.639 . S
C525 C17 1.639 . S
C540 C153 1.639 . S
C575 C36 1.639 . S
C590 C88 1.639 . S
C625 C43 1.639 . S
C640 C101 1.639 . S
C675 C62 1.639 . S
C690 C114 1.639 . S
C725 C69 1.639 . S
C740 C127 1.640 . S
C775 C121 0.935 . S
C790 C4 0.935 1_556 S
C825 C23 0.936 . S
C840 C140 0.935 1_554 S
C875 C30 0.935 . S
C890 C147 0.935 . S
C925 C82 0.935 . S
C940 C49 0.935 1_556 S
C975 C56 0.935 . S
C990 C95 0.936 1_554 S
C1025 C108 0.935 . S
C1040 C75 0.936 . S
C1075 C3 1.632 . S
C1090 C44 1.631 . S
C1125 C55 1.631 . S
C1140 C18 1.632 . S
C1175 C29 1.631 . S
C1190 C70 1.631 . S
C1225 C81 1.632 . S
C1240 C120 1.631 . S
C1275 C94 1.631 . S
C1290 C135 1.632 . S
C1325 C146 1.631 . S
C1340 C107 1.632 . S
