# Generated by pormake.
# Topology mer, (4)-cn, num edge types: 1
# Building blocks:
#     Node 0, Type 0, BuildingBlock: QUQFOY_clean_sbu_1, # of connection points: 4
#     Node 1, Type 0, BuildingBlock: QUQFOY_clean_sbu_1, # of connection points: 4
#     Node 2, Type 0, BuildingBlock: QUQFOY_clean_sbu_1, # of connection points: 4
#     Node 3, Type 0, BuildingBlock: QUQFOY_clean_sbu_1, # of connection points: 4
#     Node 4, Type 0, BuildingBlock: QUQFOY_clean_sbu_1, # of connection points: 4
#     Node 5, Type 0, BuildingBlock: QUQFOY_clean_sbu_1, # of connection points: 4
#     Node 6, Type 0, BuildingBlock: QUQFOY_clean_sbu_1, # of connection points: 4
#     Node 7, Type 0, BuildingBlock: QUQFOY_clean_sbu_1, # of connection points: 4
#     Node 8, Type 0, BuildingBlock: QUQFOY_clean_sbu_1, # of connection points: 4
#     Node 9, Type 0, BuildingBlock: QUQFOY_clean_sbu_1, # of connection points: 4
#     Node 10, Type 0, BuildingBlock: QUQFOY_clean_sbu_1, # of connection points: 4
#     Node 11, Type 0, BuildingBlock: QUQFOY_clean_sbu_1, # of connection points: 4
#     Node 12, Type 0, BuildingBlock: QUQFOY_clean_sbu_1, # of connection points: 4
#     Node 13, Type 0, BuildingBlock: QUQFOY_clean_sbu_1, # of connection points: 4
#     Node 14, Type 0, BuildingBlock: QUQFOY_clean_sbu_1, # of connection points: 4
#     Node 15, Type 0, BuildingBlock: QUQFOY_clean_sbu_1, # of connection points: 4
#     Node 16, Type 0, BuildingBlock: QUQFOY_clean_sbu_1, # of connection points: 4
#     Node 17, Type 0, BuildingBlock: QUQFOY_clean_sbu_1, # of connection points: 4
#     Node 18, Type 0, BuildingBlock: QUQFOY_clean_sbu_1, # of connection points: 4
#     Node 19, Type 0, BuildingBlock: QUQFOY_clean_sbu_1, # of connection points: 4
#     Node 20, Type 0, BuildingBlock: QUQFOY_clean_sbu_1, # of connection points: 4
#     Node 21, Type 0, BuildingBlock: QUQFOY_clean_sbu_1, # of connection points: 4
#     Node 22, Type 0, BuildingBlock: QUQFOY_clean_sbu_1, # of connection points: 4
#     Node 23, Type 0, BuildingBlock: QUQFOY_clean_sbu_1, # of connection points: 4
#     Node 24, Type 0, BuildingBlock: QUQFOY_clean_sbu_1, # of connection points: 4
#     Node 25, Type 0, BuildingBlock: QUQFOY_clean_sbu_1, # of connection points: 4
#     Node 26, Type 0, BuildingBlock: QUQFOY_clean_sbu_1, # of connection points: 4
#     Node 27, Type 0, BuildingBlock: QUQFOY_clean_sbu_1, # of connection points: 4
#     Node 28, Type 0, BuildingBlock: QUQFOY_clean_sbu_1, # of connection points: 4
#     Node 29, Type 0, BuildingBlock: QUQFOY_clean_sbu_1, # of connection points: 4
#     Node 30, Type 0, BuildingBlock: QUQFOY_clean_sbu_1, # of connection points: 4
#     Node 31, Type 0, BuildingBlock: QUQFOY_clean_sbu_1, # of connection points: 4
#     Edge 32, Type (0, 0), BuildingBlock: MIFKUJ_clean_linker_0, # of connection points: 2
#     Edge 33, Type (0, 0), BuildingBlock: MIFKUJ_clean_linker_0, # of connection points: 2
#     Edge 34, Type (0, 0), BuildingBlock: MIFKUJ_clean_linker_0, # of connection points: 2
#     Edge 35, Type (0, 0), BuildingBlock: MIFKUJ_clean_linker_0, # of connection points: 2
#     Edge 36, Type (0, 0), BuildingBlock: MIFKUJ_clean_linker_0, # of connection points: 2
#     Edge 37, Type (0, 0), BuildingBlock: MIFKUJ_clean_linker_0, # of connection points: 2
#     Edge 38, Type (0, 0), BuildingBlock: MIFKUJ_clean_linker_0, # of connection points: 2
#     Edge 39, Type (0, 0), BuildingBlock: MIFKUJ_clean_linker_0, # of connection points: 2
#     Edge 40, Type (0, 0), BuildingBlock: MIFKUJ_clean_linker_0, # of connection points: 2
#     Edge 41, Type (0, 0), BuildingBlock: MIFKUJ_clean_linker_0, # of connection points: 2
#     Edge 42, Type (0, 0), BuildingBlock: MIFKUJ_clean_linker_0, # of connection points: 2
#     Edge 43, Type (0, 0), BuildingBlock: MIFKUJ_clean_linker_0, # of connection points: 2
#     Edge 44, Type (0, 0), BuildingBlock: MIFKUJ_clean_linker_0, # of connection points: 2
#     Edge 45, Type (0, 0), BuildingBlock: MIFKUJ_clean_linker_0, # of connection points: 2
#     Edge 46, Type (0, 0), BuildingBlock: MIFKUJ_clean_linker_0, # of connection points: 2
#     Edge 47, Type (0, 0), BuildingBlock: MIFKUJ_clean_linker_0, # of connection points: 2
#     Edge 48, Type (0, 0), BuildingBlock: MIFKUJ_clean_linker_0, # of connection points: 2
#     Edge 49, Type (0, 0), BuildingBlock: MIFKUJ_clean_linker_0, # of connection points: 2
#     Edge 50, Type (0, 0), BuildingBlock: MIFKUJ_clean_linker_0, # of connection points: 2
#     Edge 51, Type (0, 0), BuildingBlock: MIFKUJ_clean_linker_0, # of connection points: 2
#     Edge 52, Type (0, 0), BuildingBlock: MIFKUJ_clean_linker_0, # of connection points: 2
#     Edge 53, Type (0, 0), BuildingBlock: MIFKUJ_clean_linker_0, # of connection points: 2
#     Edge 54, Type (0, 0), BuildingBlock: MIFKUJ_clean_linker_0, # of connection points: 2
#     Edge 55, Type (0, 0), BuildingBlock: MIFKUJ_clean_linker_0, # of connection points: 2
#     Edge 56, Type (0, 0), BuildingBlock: MIFKUJ_clean_linker_0, # of connection points: 2
#     Edge 57, Type (0, 0), BuildingBlock: MIFKUJ_clean_linker_0, # of connection points: 2
#     Edge 58, Type (0, 0), BuildingBlock: MIFKUJ_clean_linker_0, # of connection points: 2
#     Edge 59, Type (0, 0), BuildingBlock: MIFKUJ_clean_linker_0, # of connection points: 2
#     Edge 60, Type (0, 0), BuildingBlock: MIFKUJ_clean_linker_0, # of connection points: 2
#     Edge 61, Type (0, 0), BuildingBlock: MIFKUJ_clean_linker_0, # of connection points: 2
#     Edge 62, Type (0, 0), BuildingBlock: MIFKUJ_clean_linker_0, # of connection points: 2
#     Edge 63, Type (0, 0), BuildingBlock: MIFKUJ_clean_linker_0, # of connection points: 2
#     Edge 64, Type (0, 0), BuildingBlock: MIFKUJ_clean_linker_0, # of connection points: 2
#     Edge 65, Type (0, 0), BuildingBlock: MIFKUJ_clean_linker_0, # of connection points: 2
#     Edge 66, Type (0, 0), BuildingBlock: MIFKUJ_clean_linker_0, # of connection points: 2
#     Edge 67, Type (0, 0), BuildingBlock: MIFKUJ_clean_linker_0, # of connection points: 2
#     Edge 68, Type (0, 0), BuildingBlock: MIFKUJ_clean_linker_0, # of connection points: 2
#     Edge 69, Type (0, 0), BuildingBlock: MIFKUJ_clean_linker_0, # of connection points: 2
#     Edge 70, Type (0, 0), BuildingBlock: MIFKUJ_clean_linker_0, # of connection points: 2
#     Edge 71, Type (0, 0), BuildingBlock: MIFKUJ_clean_linker_0, # of connection points: 2
#     Edge 72, Type (0, 0), BuildingBlock: MIFKUJ_clean_linker_0, # of connection points: 2
#     Edge 73, Type (0, 0), BuildingBlock: MIFKUJ_clean_linker_0, # of connection points: 2
#     Edge 74, Type (0, 0), BuildingBlock: MIFKUJ_clean_linker_0, # of connection points: 2
#     Edge 75, Type (0, 0), BuildingBlock: MIFKUJ_clean_linker_0, # of connection points: 2
#     Edge 76, Type (0, 0), BuildingBlock: MIFKUJ_clean_linker_0, # of connection points: 2
#     Edge 77, Type (0, 0), BuildingBlock: MIFKUJ_clean_linker_0, # of connection points: 2
#     Edge 78, Type (0, 0), BuildingBlock: MIFKUJ_clean_linker_0, # of connection points: 2
#     Edge 79, Type (0, 0), BuildingBlock: MIFKUJ_clean_linker_0, # of connection points: 2
#     Edge 80, Type (0, 0), BuildingBlock: MIFKUJ_clean_linker_0, # of connection points: 2
#     Edge 81, Type (0, 0), BuildingBlock: MIFKUJ_clean_linker_0, # of connection points: 2
#     Edge 82, Type (0, 0), BuildingBlock: MIFKUJ_clean_linker_0, # of connection points: 2
#     Edge 83, Type (0, 0), BuildingBlock: MIFKUJ_clean_linker_0, # of connection points: 2
#     Edge 84, Type (0, 0), BuildingBlock: MIFKUJ_clean_linker_0, # of connection points: 2
#     Edge 85, Type (0, 0), BuildingBlock: MIFKUJ_clean_linker_0, # of connection points: 2
#     Edge 86, Type (0, 0), BuildingBlock: MIFKUJ_clean_linker_0, # of connection points: 2
#     Edge 87, Type (0, 0), BuildingBlock: MIFKUJ_clean_linker_0, # of connection points: 2
#     Edge 88, Type (0, 0), BuildingBlock: MIFKUJ_clean_linker_0, # of connection points: 2
#     Edge 89, Type (0, 0), BuildingBlock: MIFKUJ_clean_linker_0, # of connection points: 2
#     Edge 90, Type (0, 0), BuildingBlock: MIFKUJ_clean_linker_0, # of connection points: 2
#     Edge 91, Type (0, 0), BuildingBlock: MIFKUJ_clean_linker_0, # of connection points: 2
#     Edge 92, Type (0, 0), BuildingBlock: MIFKUJ_clean_linker_0, # of connection points: 2
#     Edge 93, Type (0, 0), BuildingBlock: MIFKUJ_clean_linker_0, # of connection points: 2
#     Edge 94, Type (0, 0), BuildingBlock: MIFKUJ_clean_linker_0, # of connection points: 2
#     Edge 95, Type (0, 0), BuildingBlock: MIFKUJ_clean_linker_0, # of connection points: 2
# Relax obj value: 0.010
# Max RMSD: 0.061
# Mean RMSD: 0.061
data_MOF--net-mer--node1-QUQFOY_clean_sbu_1--edge1-MIFKUJ_clean_linker_0
_symmetry_space_group_name_H-M    P1
_symmetry_Int_Tables_number       1
_symmetry_cell_setting            triclinic
loop_
_symmetry_equiv_pos_as_xyz
'x, y, z'
_cell_length_a     87.313368
_cell_length_b     87.279467
_cell_length_c     70.739292
_cell_angle_alpha  90.040167
_cell_angle_beta   89.909507
_cell_angle_gamma 89.993242
loop_
_atom_site_label
_atom_site_type_symbol
_atom_site_fract_x
_atom_site_fract_y
_atom_site_fract_z
_atom_type_partial_charge
O0 O 0.14454 0.26694 0.36167 0.0
Cd1 Cd 0.13304 0.28738 0.3654 0.0
Cd2 Cd 0.1093 0.26719 0.37192 0.0
O3 O 0.12512 0.25085 0.36338 0.0
O4 O 0.14705 0.30269 0.35354 0.0
O5 O 0.12388 0.29779 0.34255 0.0
C6 C 0.13675 0.30498 0.34082 0.0
C7 C 0.08383 0.26593 0.36152 0.0
C8 C 0.13932 0.25336 0.36076 0.0
C9 C 0.12002 0.28738 0.40445 0.0
O10 O 0.11185 0.27624 0.39873 0.0
O11 O 0.12895 0.29428 0.39304 0.0
O12 O 0.08932 0.25617 0.37337 0.0
O13 O 0.09303 0.27621 0.35488 0.0
O14 O 0.73434 0.14644 0.36301 0.0
Cd15 Cd 0.71417 0.13442 0.36643 0.0
Cd16 Cd 0.73425 0.11057 0.37119 0.0
O17 O 0.75022 0.12677 0.36268 0.0
O18 O 0.69787 0.1475 0.355 0.0
O19 O 0.70489 0.12518 0.34296 0.0
C20 C 0.69664 0.13743 0.34174 0.0
C21 C 0.7355 0.08533 0.35979 0.0
C22 C 0.74781 0.1411 0.36114 0.0
C23 C 0.71482 0.1203 0.40481 0.0
O24 O 0.72592 0.1124 0.39842 0.0
O25 O 0.7076 0.1294 0.39396 0.0
O26 O 0.74548 0.09064 0.37148 0.0
O27 O 0.725 0.09458 0.35388 0.0
O28 O 0.85913 0.73772 0.36238 0.0
Cd29 Cd 0.87075 0.71735 0.36616 0.0
Cd30 Cd 0.8946 0.73749 0.37145 0.0
O31 O 0.87877 0.75359 0.36232 0.0
O32 O 0.8568 0.70184 0.35465 0.0
O33 O 0.87982 0.70695 0.34322 0.0
C34 C 0.867 0.69964 0.34172 0.0
C35 C 0.92009 0.7386 0.36094 0.0
C36 C 0.86448 0.75117 0.36048 0.0
C37 C 0.88422 0.71802 0.40483 0.0
O38 O 0.89217 0.72916 0.39865 0.0
O39 O 0.8753 0.71077 0.39378 0.0
O40 O 0.91453 0.74864 0.37242 0.0
O41 O 0.91095 0.72811 0.35472 0.0
O42 O 0.26864 0.86001 0.36162 0.0
Cd43 Cd 0.28886 0.87191 0.36566 0.0
Cd44 Cd 0.26825 0.89491 0.37106 0.0
O45 O 0.25238 0.87932 0.36104 0.0
O46 O 0.30446 0.85774 0.35465 0.0
O47 O 0.29968 0.88065 0.34277 0.0
C48 C 0.30688 0.86774 0.34159 0.0
C49 C 0.26841 0.92032 0.36035 0.0
C50 C 0.25511 0.86507 0.35937 0.0
C51 C 0.28689 0.88434 0.40474 0.0
O52 O 0.27541 0.89178 0.39858 0.0
O53 O 0.29508 0.87643 0.39347 0.0
O54 O 0.25774 0.91521 0.37127 0.0
O55 O 0.27886 0.91079 0.35491 0.0
O56 O 0.14356 0.73925 0.64901 0.0
Cd57 Cd 0.13304 0.71826 0.64546 0.0
Cd58 Cd 0.10785 0.73737 0.64022 0.0
O59 O 0.12323 0.75426 0.64834 0.0
O60 O 0.14808 0.70336 0.65615 0.0
O61 O 0.12528 0.70738 0.66879 0.0
C62 C 0.13844 0.70063 0.66956 0.0
C63 C 0.08249 0.73793 0.65135 0.0
C64 C 0.1376 0.7525 0.65034 0.0
C65 C 0.11882 0.71796 0.60702 0.0
O66 O 0.11021 0.72857 0.61327 0.0
O67 O 0.12845 0.71147 0.61789 0.0
O68 O 0.08752 0.74786 0.63941 0.0
O69 O 0.09206 0.72785 0.65762 0.0
O70 O 0.27008 0.14675 0.64822 0.0
Cd71 Cd 0.29033 0.13482 0.64487 0.0
Cd72 Cd 0.27051 0.11086 0.64038 0.0
O73 O 0.25451 0.12687 0.64932 0.0
O74 O 0.30658 0.14763 0.65691 0.0
O75 O 0.29927 0.12515 0.66822 0.0
C76 C 0.30758 0.13734 0.66993 0.0
C77 C 0.26927 0.08551 0.65134 0.0
C78 C 0.25672 0.14125 0.65053 0.0
C79 C 0.28964 0.12078 0.60654 0.0
O80 O 0.27855 0.11292 0.61303 0.0
O81 O 0.297 0.12981 0.61736 0.0
O82 O 0.25926 0.09096 0.63981 0.0
O83 O 0.27982 0.09467 0.65733 0.0
O84 O 0.85878 0.26986 0.64725 0.0
Cd85 Cd 0.87147 0.28961 0.64373 0.0
Cd86 Cd 0.89438 0.26881 0.63883 0.0
O87 O 0.87792 0.25338 0.64806 0.0
O88 O 0.85917 0.30631 0.65567 0.0
O89 O 0.88144 0.29845 0.66697 0.0
C90 C 0.8695 0.30712 0.66866 0.0
C91 C 0.91982 0.26721 0.64934 0.0
C92 C 0.86367 0.25625 0.64945 0.0
C93 C 0.88487 0.28814 0.60511 0.0
O94 O 0.89227 0.2767 0.61144 0.0
O95 O 0.87641 0.29599 0.61613 0.0
O96 O 0.91401 0.2571 0.63817 0.0
O97 O 0.91093 0.27801 0.65534 0.0
O98 O 0.73418 0.8594 0.64566 0.0
Cd99 Cd 0.7142 0.87183 0.64309 0.0
Cd100 Cd 0.73438 0.8953 0.638 0.0
O101 O 0.75013 0.87897 0.64671 0.0
O102 O 0.69795 0.85927 0.65552 0.0
O103 O 0.70606 0.88145 0.66693 0.0
C104 C 0.69754 0.86942 0.66877 0.0
C105 C 0.73599 0.92062 0.64899 0.0
C106 C 0.74765 0.86463 0.64784 0.0
C107 C 0.71436 0.88596 0.60484 0.0
O108 O 0.72586 0.89347 0.61083 0.0
O109 O 0.70703 0.87714 0.61595 0.0
O110 O 0.74591 0.91503 0.63737 0.0
O111 O 0.72536 0.91159 0.6551 0.0
O112 O 0.85847 0.73518 0.64828 0.0
Cd113 Cd 0.87081 0.71519 0.64492 0.0
Cd114 Cd 0.89428 0.73554 0.64018 0.0
O115 O 0.87797 0.75122 0.64929 0.0
O116 O 0.85785 0.69868 0.65619 0.0
O117 O 0.87996 0.70598 0.66847 0.0
C118 C 0.86781 0.69756 0.66956 0.0
C119 C 0.91949 0.7365 0.65162 0.0
C120 C 0.86366 0.74867 0.65058 0.0
C121 C 0.88483 0.71627 0.60644 0.0
O122 O 0.89242 0.72761 0.61274 0.0
O123 O 0.87607 0.70872 0.61741 0.0
O124 O 0.91422 0.74677 0.64029 0.0
O125 O 0.91022 0.72586 0.65715 0.0
O126 O 0.26699 0.86174 0.64933 0.0
Cd127 Cd 0.28805 0.87188 0.6453 0.0
Cd128 Cd 0.26931 0.89706 0.63822 0.0
O129 O 0.25204 0.88193 0.64598 0.0
O130 O 0.30245 0.85695 0.65712 0.0
O131 O 0.29929 0.88051 0.6679 0.0
C132 C 0.30557 0.86718 0.66968 0.0
C133 C 0.26847 0.92249 0.64901 0.0
C134 C 0.25371 0.86772 0.64938 0.0
C135 C 0.28938 0.88494 0.60622 0.0
O136 O 0.27914 0.89427 0.61182 0.0
O137 O 0.29502 0.87513 0.61755 0.0
O138 O 0.25904 0.91745 0.63647 0.0
O139 O 0.27823 0.91291 0.65597 0.0
O140 O 0.14487 0.2693 0.64805 0.0
Cd141 Cd 0.13343 0.28975 0.64437 0.0
Cd142 Cd 0.10941 0.26954 0.63878 0.0
O143 O 0.12524 0.25342 0.64785 0.0
O144 O 0.14777 0.305 0.65567 0.0
O145 O 0.12475 0.3004 0.6674 0.0
C146 C 0.13774 0.30742 0.66873 0.0
C147 C 0.08385 0.26807 0.64898 0.0
C148 C 0.13952 0.25584 0.64978 0.0
C149 C 0.12006 0.28922 0.60564 0.0
O150 O 0.112 0.27812 0.61171 0.0
O151 O 0.129 0.29638 0.61676 0.0
O152 O 0.08959 0.25821 0.63742 0.0
O153 O 0.09282 0.27862 0.65542 0.0
O154 O 0.73299 0.14588 0.64873 0.0
Cd155 Cd 0.71292 0.13368 0.64554 0.0
Cd156 Cd 0.73335 0.11006 0.6404 0.0
O157 O 0.74912 0.12642 0.64902 0.0
O158 O 0.69657 0.14674 0.65697 0.0
O159 O 0.70371 0.12451 0.66912 0.0
C160 C 0.69539 0.13673 0.67029 0.0
C161 C 0.7354 0.08458 0.65073 0.0
C162 C 0.74652 0.14072 0.65055 0.0
C163 C 0.71363 0.11982 0.60706 0.0
O164 O 0.72488 0.11207 0.61327 0.0
O165 O 0.70628 0.12873 0.61805 0.0
O166 O 0.74514 0.0905 0.63916 0.0
O167 O 0.72471 0.09338 0.65722 0.0
O168 O 0.8586 0.27063 0.36088 0.0
Cd169 Cd 0.87091 0.29062 0.36438 0.0
Cd170 Cd 0.89444 0.27033 0.3691 0.0
O171 O 0.87816 0.25462 0.36023 0.0
O172 O 0.85847 0.30712 0.35233 0.0
O173 O 0.8809 0.29948 0.34117 0.0
C174 C 0.86887 0.308 0.3394 0.0
C175 C 0.91992 0.26838 0.35868 0.0
C176 C 0.86385 0.25714 0.3588 0.0
C177 C 0.88463 0.28965 0.40281 0.0
O178 O 0.89237 0.27845 0.39639 0.0
O179 O 0.87576 0.29713 0.39195 0.0
O180 O 0.91398 0.25849 0.37003 0.0
O181 O 0.91116 0.27919 0.35248 0.0
O182 O 0.73457 0.86108 0.36272 0.0
Cd183 Cd 0.71428 0.87301 0.36541 0.0
Cd184 Cd 0.73415 0.89696 0.37085 0.0
O185 O 0.75027 0.88088 0.36235 0.0
O186 O 0.69834 0.85976 0.35347 0.0
O187 O 0.70554 0.88207 0.34156 0.0
C188 C 0.6974 0.86974 0.34009 0.0
C189 C 0.73539 0.92224 0.35963 0.0
C190 C 0.748 0.86652 0.36091 0.0
C191 C 0.71409 0.88712 0.40381 0.0
O192 O 0.72539 0.89496 0.3979 0.0
O193 O 0.70705 0.87813 0.39263 0.0
O194 O 0.74526 0.91695 0.37148 0.0
O195 O 0.72501 0.91294 0.35349 0.0
O196 O 0.1453 0.73405 0.36305 0.0
Cd197 Cd 0.13301 0.71406 0.36637 0.0
Cd198 Cd 0.1094 0.73448 0.37117 0.0
O199 O 0.12583 0.75016 0.36246 0.0
O200 O 0.14576 0.69754 0.35477 0.0
O201 O 0.12356 0.70506 0.34288 0.0
C202 C 0.13565 0.69656 0.34154 0.0
C203 C 0.08399 0.73659 0.36065 0.0
C204 C 0.14014 0.74758 0.36105 0.0
C205 C 0.11898 0.7149 0.40475 0.0
O206 O 0.11121 0.72608 0.39837 0.0
O207 O 0.12801 0.70755 0.3939 0.0
O208 O 0.08988 0.74635 0.3722 0.0
O209 O 0.09277 0.72584 0.35429 0.0
O210 O 0.27056 0.1442 0.36208 0.0
Cd211 Cd 0.29104 0.13273 0.36563 0.0
Cd212 Cd 0.27124 0.1087 0.3709 0.0
O213 O 0.25488 0.1244 0.36219 0.0
O214 O 0.30653 0.14674 0.35412 0.0
O215 O 0.30123 0.12386 0.34243 0.0
C216 C 0.30858 0.13667 0.34101 0.0
C217 C 0.27056 0.08336 0.35984 0.0
C218 C 0.25714 0.13873 0.3604 0.0
C219 C 0.29051 0.11923 0.40429 0.0
O220 O 0.27952 0.11111 0.39807 0.0
O221 O 0.29767 0.12826 0.39325 0.0
O222 O 0.26043 0.08855 0.37146 0.0
O223 O 0.28092 0.09276 0.35387 0.0
O224 O 0.64652 0.76983 0.86279 0.0
Cd225 Cd 0.63591 0.79063 0.86646 0.0
Cd226 Cd 0.61058 0.77199 0.873 0.0
O227 O 0.62622 0.75493 0.86566 0.0
O228 O 0.64977 0.80601 0.85443 0.0
O229 O 0.62671 0.80057 0.84338 0.0
C230 C 0.63946 0.80798 0.84163 0.0
C231 C 0.58527 0.77063 0.86189 0.0
C232 C 0.64052 0.75657 0.86263 0.0
C233 C 0.62207 0.79215 0.90512 0.0
O234 O 0.61263 0.7821 0.89936 0.0
O235 O 0.6323 0.79749 0.89415 0.0
O236 O 0.59039 0.76129 0.87448 0.0
O237 O 0.59473 0.78055 0.85498 0.0
O238 O 0.23686 0.64621 0.86371 0.0
Cd239 Cd 0.21611 0.6352 0.86673 0.0
Cd240 Cd 0.23549 0.61061 0.87316 0.0
O241 O 0.25218 0.62614 0.86484 0.0
O242 O 0.20119 0.64952 0.85473 0.0
O243 O 0.20623 0.62651 0.84326 0.0
C244 C 0.1992 0.63947 0.84159 0.0
C245 C 0.23688 0.58501 0.86303 0.0
C246 C 0.25021 0.64047 0.86263 0.0
C247 C 0.21519 0.62171 0.90548 0.0
O248 O 0.22617 0.61329 0.89983 0.0
O249 O 0.20868 0.63094 0.89411 0.0
O250 O 0.24646 0.59061 0.87501 0.0
O251 O 0.22668 0.59415 0.85613 0.0
O252 O 0.36091 0.23656 0.86164 0.0
Cd253 Cd 0.37269 0.21626 0.86512 0.0
Cd254 Cd 0.39681 0.23608 0.87004 0.0
O255 O 0.38078 0.25219 0.86149 0.0
O256 O 0.35948 0.20002 0.8537 0.0
O257 O 0.38186 0.20685 0.84164 0.0
C258 C 0.36955 0.19868 0.84043 0.0
C259 C 0.42212 0.23735 0.8589 0.0
C260 C 0.36644 0.24996 0.85983 0.0
C261 C 0.38668 0.21678 0.90358 0.0
O262 O 0.3948 0.22773 0.89724 0.0
O263 O 0.37748 0.20972 0.8927 0.0
O264 O 0.41673 0.2473 0.87062 0.0
O265 O 0.41292 0.22686 0.85284 0.0
O266 O 0.77143 0.3599 0.86137 0.0
Cd267 Cd 0.79152 0.37209 0.86436 0.0
Cd268 Cd 0.77116 0.3958 0.86947 0.0
O269 O 0.75526 0.37934 0.86152 0.0
O270 O 0.80784 0.359 0.8529 0.0
O271 O 0.80067 0.3812 0.84071 0.0
C272 C 0.809 0.36899 0.83955 0.0
C273 C 0.76931 0.42105 0.85825 0.0
C274 C 0.75785 0.36505 0.85991 0.0
C275 C 0.79114 0.38635 0.90268 0.0
O276 O 0.77996 0.39421 0.89648 0.0
O277 O 0.79825 0.37718 0.89178 0.0
O278 O 0.75962 0.41554 0.8702 0.0
O279 O 0.77983 0.41196 0.85194 0.0
O280 O 0.64669 0.23529 0.14788 0.0
Cd281 Cd 0.63438 0.21522 0.14486 0.0
Cd282 Cd 0.61085 0.23546 0.13967 0.0
O283 O 0.62714 0.2513 0.14823 0.0
O284 O 0.64689 0.19887 0.15714 0.0
O285 O 0.62454 0.20667 0.16836 0.0
C286 C 0.63657 0.19815 0.17018 0.0
C287 C 0.58545 0.23723 0.15037 0.0
C288 C 0.64145 0.2488 0.1497 0.0
C289 C 0.62043 0.21555 0.10645 0.0
O290 O 0.61279 0.22693 0.11254 0.0
O291 O 0.62929 0.20825 0.11751 0.0
O292 O 0.59118 0.24706 0.13877 0.0
O293 O 0.5944 0.22661 0.15666 0.0
O294 O 0.77033 0.64452 0.1482 0.0
Cd295 Cd 0.79115 0.63383 0.14423 0.0
Cd296 Cd 0.77161 0.60911 0.13807 0.0
O297 O 0.75493 0.62453 0.14678 0.0
O298 O 0.80581 0.64874 0.1556 0.0
O299 O 0.80227 0.62544 0.16704 0.0
C300 C 0.80872 0.63872 0.16849 0.0
C301 C 0.77062 0.58363 0.1486 0.0
C302 C 0.75698 0.63881 0.14935 0.0
C303 C 0.79139 0.62049 0.10533 0.0
O304 O 0.78066 0.61186 0.11125 0.0
O305 O 0.79793 0.62983 0.11654 0.0
O306 O 0.76091 0.58894 0.13658 0.0
O307 O 0.78076 0.59297 0.15521 0.0
O308 O 0.36092 0.76812 0.15005 0.0
Cd309 Cd 0.37217 0.7886 0.14565 0.0
Cd310 Cd 0.39609 0.76836 0.13999 0.0
O311 O 0.3804 0.75207 0.14894 0.0
O312 O 0.35763 0.80384 0.15669 0.0
O313 O 0.38079 0.79987 0.16826 0.0
C314 C 0.36768 0.80668 0.16955 0.0
C315 C 0.42149 0.76768 0.15077 0.0
C316 C 0.36619 0.75459 0.1514 0.0
C317 C 0.38519 0.78752 0.10662 0.0
O318 O 0.39343 0.77662 0.11285 0.0
O319 O 0.37625 0.79476 0.11772 0.0
O320 O 0.41624 0.75757 0.13919 0.0
O321 O 0.41211 0.77803 0.15685 0.0
O322 O 0.23614 0.35891 0.14999 0.0
Cd323 Cd 0.21532 0.36949 0.14571 0.0
Cd324 Cd 0.23466 0.39449 0.14036 0.0
O325 O 0.25129 0.37912 0.14926 0.0
O326 O 0.2004 0.35487 0.15717 0.0
O327 O 0.20404 0.3783 0.16818 0.0
C328 C 0.1974 0.36512 0.16977 0.0
C329 C 0.23595 0.42018 0.15015 0.0
C330 C 0.2494 0.36479 0.15151 0.0
C331 C 0.21554 0.38299 0.10704 0.0
O332 O 0.226 0.39172 0.11338 0.0
O333 O 0.20895 0.37341 0.1179 0.0
O334 O 0.24573 0.41444 0.13849 0.0
O335 O 0.2256 0.41115 0.15694 0.0
O336 O 0.36036 0.23674 0.14872 0.0
Cd337 Cd 0.37171 0.21626 0.14461 0.0
Cd338 Cd 0.39608 0.23609 0.14008 0.0
O339 O 0.3803 0.25223 0.14931 0.0
O340 O 0.35759 0.20054 0.15543 0.0
O341 O 0.38034 0.20561 0.16759 0.0
C342 C 0.36753 0.19821 0.16859 0.0
C343 C 0.42156 0.23728 0.15054 0.0
C344 C 0.36595 0.25006 0.15094 0.0
C345 C 0.38561 0.21731 0.10611 0.0
O346 O 0.39378 0.22812 0.11271 0.0
O347 O 0.37639 0.21009 0.11684 0.0
O348 O 0.41595 0.24735 0.1392 0.0
O349 O 0.41249 0.22668 0.15664 0.0
O350 O 0.77107 0.35932 0.14654 0.0
Cd351 Cd 0.79127 0.37128 0.14316 0.0
Cd352 Cd 0.77135 0.39527 0.13828 0.0
O353 O 0.75527 0.37905 0.14657 0.0
O354 O 0.80755 0.35829 0.15478 0.0
O355 O 0.80043 0.38067 0.1666 0.0
C356 C 0.80872 0.36845 0.16795 0.0
C357 C 0.77001 0.4205 0.14966 0.0
C358 C 0.75761 0.36472 0.14824 0.0
C359 C 0.79101 0.38552 0.10486 0.0
O360 O 0.77999 0.39357 0.11117 0.0
O361 O 0.79796 0.37619 0.11567 0.0
O362 O 0.76013 0.41519 0.13785 0.0
O363 O 0.78044 0.41123 0.15574 0.0
O364 O 0.64538 0.76694 0.14953 0.0
Cd365 Cd 0.63317 0.78711 0.14608 0.0
Cd366 Cd 0.61015 0.76661 0.14105 0.0
O367 O 0.62582 0.75103 0.1514 0.0
O368 O 0.64659 0.80344 0.15694 0.0
O369 O 0.62444 0.79677 0.16968 0.0
C370 C 0.63678 0.80492 0.17046 0.0
C371 C 0.58465 0.76657 0.15155 0.0
C372 C 0.64015 0.75353 0.1524 0.0
C373 C 0.62028 0.78517 0.10728 0.0
O374 O 0.61333 0.77337 0.11339 0.0
O375 O 0.62784 0.79364 0.11856 0.0
O376 O 0.58998 0.75585 0.14085 0.0
O377 O 0.594 0.77719 0.1569 0.0
O378 O 0.23499 0.64537 0.14907 0.0
Cd379 Cd 0.21461 0.63377 0.14536 0.0
Cd380 Cd 0.23449 0.60985 0.13851 0.0
O381 O 0.25079 0.62569 0.14706 0.0
O382 O 0.19867 0.64681 0.1577 0.0
O383 O 0.20521 0.62393 0.1684 0.0
C384 C 0.19722 0.6363 0.17038 0.0
C385 C 0.23606 0.58428 0.14855 0.0
C386 C 0.24848 0.63991 0.14986 0.0
C387 C 0.21432 0.62082 0.10624 0.0
O388 O 0.22538 0.61248 0.11178 0.0
O389 O 0.20762 0.6298 0.11776 0.0
O390 O 0.24569 0.58998 0.13668 0.0
O391 O 0.22573 0.59331 0.15543 0.0
O392 O 0.36124 0.76875 0.86122 0.0
Cd393 Cd 0.37211 0.78945 0.86547 0.0
Cd394 Cd 0.39662 0.76979 0.8709 0.0
O395 O 0.38119 0.75325 0.86193 0.0
O396 O 0.3574 0.80446 0.85441 0.0
O397 O 0.38061 0.80068 0.84278 0.0
C398 C 0.36743 0.80735 0.8415 0.0
C399 C 0.42215 0.76914 0.86043 0.0
C400 C 0.36689 0.75538 0.85969 0.0
C401 C 0.38528 0.78882 0.90431 0.0
O402 O 0.39377 0.77812 0.89802 0.0
O403 O 0.37611 0.7958 0.89331 0.0
O404 O 0.41682 0.75911 0.87205 0.0
O405 O 0.41278 0.77939 0.85411 0.0
O406 O 0.2371 0.3598 0.86172 0.0
Cd407 Cd 0.21634 0.37057 0.86591 0.0
Cd408 Cd 0.2358 0.39531 0.87149 0.0
O409 O 0.25242 0.37987 0.86265 0.0
O410 O 0.20141 0.356 0.85442 0.0
O411 O 0.20527 0.37935 0.84331 0.0
C412 C 0.19859 0.36619 0.84172 0.0
C413 C 0.23697 0.42093 0.86148 0.0
C414 C 0.25042 0.36556 0.86032 0.0
C415 C 0.21652 0.38392 0.9047 0.0
O416 O 0.22712 0.39256 0.89848 0.0
O417 O 0.20984 0.37451 0.89372 0.0
O418 O 0.2468 0.4153 0.87311 0.0
O419 O 0.22662 0.41182 0.85487 0.0
O420 O 0.64572 0.23554 0.86394 0.0
Cd421 Cd 0.63302 0.21572 0.8668 0.0
Cd422 Cd 0.61009 0.23634 0.87253 0.0
O423 O 0.62661 0.25206 0.86424 0.0
O424 O 0.64536 0.19922 0.85446 0.0
O425 O 0.62316 0.20733 0.84323 0.0
C426 C 0.63508 0.19866 0.8414 0.0
C427 C 0.58503 0.23764 0.86074 0.0
C428 C 0.64084 0.24921 0.8625 0.0
C429 C 0.61924 0.21605 0.9054 0.0
O430 O 0.61177 0.22763 0.89959 0.0
O431 O 0.6279 0.2087 0.89411 0.0
O432 O 0.59018 0.2476 0.8726 0.0
O433 O 0.59436 0.22715 0.85491 0.0
O434 O 0.76861 0.64516 0.86259 0.0
Cd435 Cd 0.78907 0.63357 0.86562 0.0
Cd436 Cd 0.76951 0.60943 0.8721 0.0
O437 O 0.75302 0.6253 0.8642 0.0
O438 O 0.80491 0.64673 0.85324 0.0
O439 O 0.79814 0.624 0.84219 0.0
C440 C 0.80615 0.63637 0.84031 0.0
C441 C 0.76832 0.58414 0.86085 0.0
C442 C 0.75516 0.6396 0.86183 0.0
C443 C 0.78984 0.61997 0.9044 0.0
O444 O 0.7788 0.61163 0.8988 0.0
O445 O 0.79637 0.62918 0.893 0.0
O446 O 0.75868 0.5893 0.87312 0.0
O447 O 0.77845 0.59356 0.85435 0.0
H448 H 0.22635 0.13202 0.36016 0.0
H449 H 0.20499 0.15014 0.35812 0.0
H450 H 0.23697 0.18747 0.35187 0.0
H451 H 0.2583 0.16956 0.3541 0.0
H452 H 0.21629 0.1936 0.37859 0.0
H453 H 0.21529 0.1745 0.31467 0.0
H454 H 0.21379 0.15459 0.28998 0.0
H455 H 0.16966 0.14076 0.3107 0.0
H456 H 0.17099 0.16046 0.33568 0.0
H457 H 0.16987 0.25508 0.35283 0.0
H458 H 0.18826 0.23415 0.35084 0.0
H459 H 0.15201 0.20142 0.35999 0.0
H460 H 0.13336 0.2224 0.36185 0.0
H461 H 0.17318 0.19149 0.33304 0.0
H462 H 0.17376 0.21101 0.39622 0.0
H463 H 0.17512 0.23091 0.42092 0.0
H464 H 0.22007 0.24365 0.40188 0.0
H465 H 0.21888 0.22396 0.37688 0.0
C466 C 0.22883 0.14406 0.35813 0.0
C467 C 0.24407 0.14933 0.3574 0.0
C468 C 0.2166 0.15441 0.35691 0.0
C469 C 0.21937 0.17018 0.35481 0.0
C470 C 0.23454 0.17537 0.35357 0.0
C471 C 0.24674 0.16508 0.35482 0.0
C472 C 0.2066 0.18146 0.35495 0.0
C473 C 0.20697 0.19322 0.36847 0.0
C474 C 0.19414 0.18067 0.34218 0.0
C475 C 0.19332 0.16884 0.32717 0.0
C476 C 0.20533 0.16712 0.31406 0.0
C477 C 0.20449 0.1559 0.3 0.0
C478 C 0.19166 0.14639 0.29881 0.0
C479 C 0.17961 0.14812 0.31165 0.0
C480 C 0.18039 0.15932 0.32576 0.0
C481 C 0.16572 0.24344 0.35427 0.0
C482 C 0.15013 0.24045 0.35771 0.0
C483 C 0.17628 0.23148 0.35315 0.0
C484 C 0.17155 0.21624 0.35559 0.0
C485 C 0.15591 0.21311 0.35815 0.0
C486 C 0.14528 0.22512 0.35925 0.0
C487 C 0.18314 0.2038 0.35638 0.0
C488 C 0.18249 0.1918 0.34317 0.0
C489 C 0.19538 0.2043 0.36947 0.0
C490 C 0.19618 0.21609 0.38457 0.0
C491 C 0.18389 0.21813 0.39721 0.0
C492 C 0.18463 0.22936 0.41128 0.0
C493 C 0.19766 0.23856 0.41294 0.0
C494 C 0.20998 0.23652 0.40056 0.0
C495 C 0.20928 0.22532 0.38645 0.0
H496 H 0.19821 0.24725 0.42384 0.0
H497 H 0.19103 0.13771 0.2879 0.0
H498 H 0.74642 0.17188 0.35427 0.0
H499 H 0.76766 0.1898 0.35084 0.0
H500 H 0.79987 0.15272 0.35735 0.0
H501 H 0.7786 0.13463 0.36096 0.0
H502 H 0.80725 0.1772 0.37943 0.0
H503 H 0.79484 0.16889 0.31455 0.0
H504 H 0.77804 0.16697 0.28667 0.0
H505 H 0.76552 0.21429 0.29288 0.0
H506 H 0.78209 0.21644 0.32096 0.0
H507 H 0.8702 0.22633 0.35851 0.0
H508 H 0.85196 0.20514 0.35595 0.0
H509 H 0.81491 0.23745 0.34988 0.0
H510 H 0.83302 0.25866 0.35228 0.0
H511 H 0.81183 0.21342 0.32567 0.0
H512 H 0.82194 0.22106 0.39198 0.0
H513 H 0.8383 0.22328 0.42025 0.0
H514 H 0.8547 0.17743 0.41159 0.0
H515 H 0.8386 0.17501 0.38309 0.0
C516 C 0.758 0.16747 0.35484 0.0
C517 C 0.76078 0.15178 0.35789 0.0
C518 C 0.77015 0.17775 0.35279 0.0
C519 C 0.78536 0.17259 0.35366 0.0
C520 C 0.78821 0.15694 0.35658 0.0
C521 C 0.77604 0.14661 0.35857 0.0
C522 C 0.7982 0.18372 0.35229 0.0
C523 C 0.80845 0.18491 0.36749 0.0
C524 C 0.79957 0.19401 0.3369 0.0
C525 C 0.78963 0.19279 0.31996 0.0
C526 C 0.78842 0.17886 0.31006 0.0
C527 C 0.77895 0.17773 0.2942 0.0
C528 C 0.77069 0.19049 0.28803 0.0
C529 C 0.77191 0.20441 0.29768 0.0
C530 C 0.78136 0.20559 0.31356 0.0
C531 C 0.8582 0.22894 0.35644 0.0
C532 C 0.85308 0.24422 0.35573 0.0
C533 C 0.84777 0.21681 0.35506 0.0
C534 C 0.83205 0.21972 0.35294 0.0
C535 C 0.82699 0.23493 0.35153 0.0
C536 C 0.83737 0.24706 0.35298 0.0
C537 C 0.82073 0.20701 0.35291 0.0
C538 C 0.81076 0.20556 0.33747 0.0
C539 C 0.81958 0.19652 0.36811 0.0
C540 C 0.82921 0.19792 0.38528 0.0
C541 C 0.82914 0.2115 0.39601 0.0
C542 C 0.83834 0.21278 0.41209 0.0
C543 C 0.84757 0.20052 0.41767 0.0
C544 C 0.84757 0.18693 0.40722 0.0
C545 C 0.83841 0.18559 0.39111 0.0
H546 H 0.85469 0.20154 0.43013 0.0
H547 H 0.76336 0.1896 0.27575 0.0
H548 H 0.87123 0.78183 0.35707 0.0
H549 H 0.85316 0.80309 0.35337 0.0
H550 H 0.81554 0.77107 0.3526 0.0
H551 H 0.83344 0.74983 0.35594 0.0
H552 H 0.81113 0.79302 0.32694 0.0
H553 H 0.82543 0.7908 0.39292 0.0
H554 H 0.84354 0.79098 0.41965 0.0
H555 H 0.85923 0.83571 0.40341 0.0
H556 H 0.84133 0.8357 0.37643 0.0
H557 H 0.74703 0.83538 0.35709 0.0
H558 H 0.76844 0.81774 0.35345 0.0
H559 H 0.80002 0.85573 0.35378 0.0
H560 H 0.77858 0.87357 0.35775 0.0
H561 H 0.80962 0.83312 0.37667 0.0
H562 H 0.79233 0.83644 0.31286 0.0
H563 H 0.77323 0.83612 0.28722 0.0
H564 H 0.7625 0.78922 0.29979 0.0
H565 H 0.78136 0.78931 0.32571 0.0
C566 C 0.85912 0.77931 0.35594 0.0
C567 C 0.8538 0.76411 0.35695 0.0
C568 C 0.8488 0.79148 0.35389 0.0
C569 C 0.83296 0.7887 0.35294 0.0
C570 C 0.82769 0.77352 0.3533 0.0
C571 C 0.83797 0.76137 0.3553 0.0
C572 C 0.82173 0.80151 0.35235 0.0
C573 C 0.81076 0.80175 0.33786 0.0
C574 C 0.82145 0.81315 0.36632 0.0
C575 C 0.83218 0.81317 0.38254 0.0
C576 C 0.83283 0.80062 0.39497 0.0
C577 C 0.84304 0.8007 0.41017 0.0
C578 C 0.85257 0.81332 0.41319 0.0
C579 C 0.85187 0.82592 0.40103 0.0
C580 C 0.84169 0.82589 0.38579 0.0
C581 C 0.7585 0.84006 0.35626 0.0
C582 C 0.76105 0.85593 0.3577 0.0
C583 C 0.77075 0.82992 0.35408 0.0
C584 C 0.78585 0.83541 0.35309 0.0
C585 C 0.78847 0.85125 0.35443 0.0
C586 C 0.77619 0.86143 0.35665 0.0
C587 C 0.79884 0.82447 0.35146 0.0
C588 C 0.81014 0.82456 0.36555 0.0
C589 C 0.79937 0.81311 0.33716 0.0
C590 C 0.78821 0.81291 0.32132 0.0
C591 C 0.78584 0.82607 0.31023 0.0
C592 C 0.77506 0.82594 0.29564 0.0
C593 C 0.76663 0.81267 0.2919 0.0
C594 C 0.76903 0.79949 0.30271 0.0
C595 C 0.77978 0.79957 0.31733 0.0
H596 H 0.75827 0.8126 0.28063 0.0
H597 H 0.86046 0.81337 0.42497 0.0
H598 H 0.13384 0.77838 0.35856 0.0
H599 H 0.15224 0.79946 0.35599 0.0
H600 H 0.18939 0.76692 0.35407 0.0
H601 H 0.17119 0.74587 0.35682 0.0
H602 H 0.1948 0.78899 0.37943 0.0
H603 H 0.178 0.78662 0.31464 0.0
H604 H 0.15901 0.78687 0.28887 0.0
H605 H 0.14477 0.83209 0.30514 0.0
H606 H 0.16354 0.83203 0.33118 0.0
H607 H 0.25728 0.83421 0.35368 0.0
H608 H 0.23651 0.81563 0.35177 0.0
H609 H 0.20336 0.85209 0.35606 0.0
H610 H 0.22417 0.87091 0.35783 0.0
H611 H 0.19458 0.82959 0.33037 0.0
H612 H 0.21161 0.83235 0.39448 0.0
H613 H 0.23051 0.83232 0.42034 0.0
H614 H 0.2439 0.78647 0.40574 0.0
H615 H 0.22523 0.78631 0.3796 0.0
C616 C 0.14591 0.77571 0.3574 0.0
C617 C 0.15102 0.76041 0.35797 0.0
C618 C 0.15642 0.78778 0.35587 0.0
C619 C 0.1722 0.78478 0.35478 0.0
C620 C 0.17727 0.76952 0.35495 0.0
C621 C 0.16682 0.75748 0.35648 0.0
C622 C 0.18358 0.79744 0.35443 0.0
C623 C 0.19485 0.79775 0.36855 0.0
C624 C 0.18334 0.80919 0.34063 0.0
C625 C 0.17206 0.80925 0.32498 0.0
C626 C 0.17072 0.79657 0.31282 0.0
C627 C 0.16002 0.79668 0.29815 0.0
C628 C 0.15065 0.80947 0.29541 0.0
C629 C 0.15201 0.82219 0.3073 0.0
C630 C 0.16269 0.82212 0.32201 0.0
C631 C 0.24559 0.83836 0.35403 0.0
C632 C 0.24241 0.85407 0.35612 0.0
C633 C 0.23372 0.82769 0.35297 0.0
C634 C 0.2184 0.83245 0.35411 0.0
C635 C 0.21512 0.84817 0.35524 0.0
C636 C 0.22703 0.8589 0.35629 0.0
C637 C 0.20596 0.82087 0.35511 0.0
C638 C 0.19448 0.82083 0.34124 0.0
C639 C 0.20593 0.80936 0.36919 0.0
C640 C 0.21711 0.80937 0.38497 0.0
C641 C 0.21867 0.8223 0.39669 0.0
C642 C 0.22933 0.82232 0.41141 0.0
C643 C 0.23843 0.80942 0.41465 0.0
C644 C 0.23686 0.79646 0.4032 0.0
C645 C 0.22623 0.7964 0.38844 0.0
H646 H 0.24668 0.80945 0.42606 0.0
H647 H 0.14238 0.80954 0.28404 0.0
H648 H 0.16806 0.75242 0.65905 0.0
H649 H 0.18517 0.77433 0.66206 0.0
H650 H 0.14745 0.80505 0.65153 0.0
H651 H 0.13014 0.78306 0.64836 0.0
H652 H 0.17263 0.81213 0.63014 0.0
H653 H 0.16223 0.80279 0.6953 0.0
H654 H 0.15953 0.78732 0.72427 0.0
H655 H 0.20715 0.77525 0.72153 0.0
H656 H 0.21011 0.79046 0.69239 0.0
H657 H 0.22318 0.87525 0.64677 0.0
H658 H 0.20115 0.85805 0.65005 0.0
H659 H 0.23163 0.82044 0.66222 0.0
H660 H 0.25358 0.83748 0.65923 0.0
H661 H 0.20711 0.81966 0.68504 0.0
H662 H 0.21665 0.82562 0.61811 0.0
H663 H 0.21979 0.84024 0.58853 0.0
H664 H 0.17413 0.85798 0.59426 0.0
H665 H 0.17081 0.8436 0.62403 0.0
C666 C 0.16332 0.76382 0.65751 0.0
C667 C 0.14769 0.76596 0.65345 0.0
C668 C 0.17313 0.77636 0.65934 0.0
C669 C 0.16758 0.79135 0.6572 0.0
C670 C 0.15197 0.79358 0.6533 0.0
C671 C 0.14209 0.781 0.65156 0.0
C672 C 0.17832 0.80453 0.65822 0.0
C673 C 0.17993 0.81401 0.64231 0.0
C674 C 0.18806 0.8068 0.67397 0.0
C675 C 0.18636 0.7977 0.69157 0.0
C676 C 0.17211 0.79675 0.7008 0.0
C677 C 0.17053 0.78804 0.71726 0.0
C678 C 0.18315 0.78029 0.72472 0.0
C679 C 0.19738 0.78126 0.71574 0.0
C680 C 0.19902 0.78994 0.69926 0.0
C681 C 0.22518 0.86335 0.65032 0.0
C682 C 0.24018 0.85775 0.65262 0.0
C683 C 0.21257 0.85352 0.65211 0.0
C684 C 0.21474 0.83791 0.65619 0.0
C685 C 0.22966 0.83243 0.65908 0.0
C686 C 0.24222 0.84221 0.65728 0.0
C687 C 0.20164 0.82703 0.65681 0.0
C688 C 0.19961 0.81797 0.67301 0.0
C689 C 0.19158 0.82508 0.6413 0.0
C690 C 0.19355 0.8337 0.6234 0.0
C691 C 0.20733 0.83274 0.61314 0.0
C692 C 0.20913 0.84096 0.59633 0.0
C693 C 0.19719 0.85008 0.58955 0.0
C694 C 0.18339 0.85094 0.59955 0.0
C695 C 0.18154 0.84276 0.61638 0.0
H696 H 0.1986 0.85643 0.57653 0.0
H697 H 0.18191 0.77355 0.73747 0.0
H698 H 0.25745 0.17245 0.65388 0.0
H699 H 0.23588 0.18994 0.65741 0.0
H700 H 0.20468 0.15163 0.65826 0.0
H701 H 0.22626 0.13396 0.65443 0.0
H702 H 0.1947 0.17365 0.63489 0.0
H703 H 0.21218 0.17183 0.69868 0.0
H704 H 0.23105 0.17295 0.72454 0.0
H705 H 0.24138 0.21967 0.71046 0.0
H706 H 0.22273 0.21877 0.68433 0.0
H707 H 0.13282 0.22517 0.65352 0.0
H708 H 0.15095 0.20397 0.65736 0.0
H709 H 0.18852 0.23606 0.65728 0.0
H710 H 0.17058 0.25722 0.65384 0.0
H711 H 0.19303 0.21472 0.68336 0.0
H712 H 0.17829 0.21539 0.61738 0.0
H713 H 0.15996 0.21441 0.59091 0.0
H714 H 0.14486 0.16992 0.60892 0.0
H715 H 0.16299 0.17073 0.63565 0.0
C716 C 0.24603 0.16768 0.65497 0.0
C717 C 0.24362 0.15177 0.65388 0.0
C718 C 0.23369 0.17772 0.65709 0.0
C719 C 0.21865 0.17211 0.65833 0.0
C720 C 0.21618 0.15623 0.65739 0.0
C721 C 0.22855 0.14614 0.65526 0.0
C722 C 0.20554 0.18294 0.65972 0.0
C723 C 0.19416 0.18243 0.64573 0.0
C724 C 0.20495 0.19457 0.67366 0.0
C725 C 0.21612 0.19519 0.68946 0.0
C726 C 0.21855 0.18231 0.70101 0.0
C727 C 0.22919 0.18291 0.71574 0.0
C728 C 0.23742 0.19636 0.71912 0.0
C729 C 0.235 0.20926 0.70782 0.0
C730 C 0.22438 0.20871 0.69306 0.0
C731 C 0.14493 0.22772 0.65447 0.0
C732 C 0.15023 0.24292 0.65325 0.0
C733 C 0.15529 0.21557 0.65659 0.0
C734 C 0.17113 0.21839 0.65738 0.0
C735 C 0.17637 0.23358 0.65672 0.0
C736 C 0.16606 0.24569 0.65467 0.0
C737 C 0.1824 0.20563 0.65829 0.0
C738 C 0.19344 0.20578 0.67271 0.0
C739 C 0.18271 0.19371 0.64471 0.0
C740 C 0.17185 0.1932 0.62863 0.0
C741 C 0.17098 0.20545 0.61578 0.0
C742 C 0.16064 0.20492 0.60072 0.0
C743 C 0.15122 0.19213 0.59827 0.0
C744 C 0.15214 0.17983 0.61086 0.0
C745 C 0.16245 0.18032 0.62595 0.0
H746 H 0.14322 0.19174 0.58661 0.0
H747 H 0.24567 0.1968 0.73052 0.0
H748 H 0.74477 0.17166 0.65595 0.0
H749 H 0.76579 0.18997 0.65779 0.0
H750 H 0.79845 0.15309 0.65315 0.0
H751 H 0.7774 0.13455 0.6515 0.0
H752 H 0.80764 0.17499 0.67893 0.0
H753 H 0.79032 0.17359 0.61491 0.0
H754 H 0.77133 0.17435 0.58917 0.0
H755 H 0.7588 0.2202 0.60493 0.0
H756 H 0.77757 0.21963 0.63096 0.0
H757 H 0.86928 0.22529 0.65145 0.0
H758 H 0.85042 0.20462 0.65377 0.0
H759 H 0.81403 0.23797 0.65671 0.0
H760 H 0.83271 0.25863 0.65419 0.0
H761 H 0.80795 0.21641 0.63092 0.0
H762 H 0.82522 0.21733 0.69562 0.0
H763 H 0.8444 0.21625 0.72113 0.0
H764 H 0.85758 0.17103 0.70351 0.0
H765 H 0.8386 0.17193 0.67772 0.0
C766 C 0.75641 0.16737 0.65547 0.0
C767 C 0.75938 0.15162 0.65338 0.0
C768 C 0.76842 0.17789 0.65649 0.0
C769 C 0.78369 0.17293 0.65529 0.0
C770 C 0.78675 0.15717 0.65403 0.0
C771 C 0.7747 0.1466 0.65304 0.0
C772 C 0.79631 0.18433 0.6545 0.0
C773 C 0.80785 0.18393 0.66829 0.0
C774 C 0.79649 0.19608 0.64072 0.0
C775 C 0.78526 0.19652 0.62499 0.0
C776 C 0.78344 0.1838 0.61298 0.0
C777 C 0.77272 0.1842 0.59832 0.0
C778 C 0.76384 0.1973 0.59544 0.0
C779 C 0.76568 0.21005 0.60719 0.0
C780 C 0.77636 0.2097 0.62188 0.0
C781 C 0.85728 0.22823 0.6528 0.0
C782 C 0.85253 0.24365 0.65256 0.0
C783 C 0.84651 0.21639 0.65418 0.0
C784 C 0.8308 0.21974 0.65546 0.0
C785 C 0.82608 0.23511 0.65566 0.0
C786 C 0.8368 0.24692 0.65427 0.0
C787 C 0.81914 0.20732 0.65561 0.0
C788 C 0.80779 0.20748 0.64158 0.0
C789 C 0.81922 0.19534 0.6691 0.0
C790 C 0.8306 0.19477 0.68462 0.0
C791 C 0.83229 0.20721 0.69709 0.0
C792 C 0.84311 0.20662 0.71162 0.0
C793 C 0.85223 0.1936 0.71391 0.0
C794 C 0.85052 0.18112 0.7017 0.0
C795 C 0.83973 0.18166 0.68713 0.0
H796 H 0.8606 0.19316 0.72517 0.0
H797 H 0.75555 0.19759 0.58409 0.0
H798 H 0.83248 0.74717 0.65372 0.0
H799 H 0.81442 0.76834 0.65668 0.0
H800 H 0.85195 0.80044 0.6582 0.0
H801 H 0.87017 0.77928 0.65491 0.0
H802 H 0.80918 0.79012 0.68256 0.0
H803 H 0.84092 0.83318 0.63501 0.0
H804 H 0.85962 0.83338 0.6088 0.0
H805 H 0.84435 0.78882 0.59126 0.0
H806 H 0.82545 0.78845 0.61721 0.0
H807 H 0.77822 0.87127 0.65207 0.0
H808 H 0.79935 0.85315 0.65641 0.0
H809 H 0.76736 0.81552 0.65495 0.0
H810 H 0.74624 0.83345 0.65093 0.0
H811 H 0.80929 0.83071 0.63349 0.0
H812 H 0.77934 0.78662 0.68265 0.0
H813 H 0.7598 0.78645 0.70786 0.0
H814 H 0.77056 0.83314 0.72158 0.0
H815 H 0.79033 0.83353 0.69666 0.0
C816 C 0.83695 0.75871 0.65479 0.0
C817 C 0.85281 0.76151 0.6539 0.0
C818 C 0.82658 0.77082 0.65657 0.0
C819 C 0.83179 0.786 0.65744 0.0
C820 C 0.84764 0.78883 0.65726 0.0
C821 C 0.85805 0.77671 0.65544 0.0
C822 C 0.82054 0.79881 0.65774 0.0
C823 C 0.80915 0.79896 0.67178 0.0
C824 C 0.82072 0.81057 0.64396 0.0
C825 C 0.83193 0.81072 0.62819 0.0
C826 C 0.84155 0.82344 0.62553 0.0
C827 C 0.85217 0.82358 0.61072 0.0
C828 C 0.85321 0.81109 0.59842 0.0
C829 C 0.84358 0.79846 0.60085 0.0
C830 C 0.83292 0.79827 0.61561 0.0
C831 C 0.77567 0.85914 0.65284 0.0
C832 C 0.7605 0.85384 0.65119 0.0
C833 C 0.78777 0.8488 0.65527 0.0
C834 C 0.78494 0.83298 0.65623 0.0
C835 C 0.76982 0.82768 0.65462 0.0
C836 C 0.75774 0.83798 0.65222 0.0
C837 C 0.79777 0.82189 0.65812 0.0
C838 C 0.80944 0.82204 0.64447 0.0
C839 C 0.79782 0.81039 0.67224 0.0
C840 C 0.78625 0.81013 0.68766 0.0
C841 C 0.77762 0.79682 0.69113 0.0
C842 C 0.76648 0.79669 0.70535 0.0
C843 C 0.7639 0.80979 0.71628 0.0
C844 C 0.77253 0.82302 0.71307 0.0
C845 C 0.78369 0.8232 0.69888 0.0
H846 H 0.75525 0.80968 0.72725 0.0
H847 H 0.86145 0.81122 0.58698 0.0
H848 H 0.67098 0.7564 0.85392 0.0
H849 H 0.68791 0.73441 0.85071 0.0
H850 H 0.64996 0.70391 0.86114 0.0
H851 H 0.63283 0.72602 0.86465 0.0
H852 H 0.67465 0.69602 0.88187 0.0
H853 H 0.66527 0.70674 0.81698 0.0
H854 H 0.663 0.72266 0.78834 0.0
H855 H 0.71067 0.73436 0.79201 0.0
H856 H 0.71319 0.71868 0.82083 0.0
H857 H 0.72448 0.63265 0.86326 0.0
H858 H 0.70285 0.65037 0.86039 0.0
H859 H 0.73423 0.6878 0.8512 0.0
H860 H 0.75584 0.67023 0.85386 0.0
H861 H 0.71 0.68947 0.82747 0.0
H862 H 0.71829 0.6816 0.8944 0.0
H863 H 0.72066 0.6661 0.92338 0.0
H864 H 0.67489 0.6492 0.91576 0.0
H865 H 0.67233 0.66447 0.88658 0.0
C866 C 0.66614 0.74504 0.8554 0.0
C867 C 0.6505 0.74301 0.85954 0.0
C868 C 0.67586 0.73244 0.85345 0.0
C869 C 0.67019 0.71748 0.85545 0.0
C870 C 0.65457 0.71535 0.85946 0.0
C871 C 0.64479 0.728 0.8614 0.0
C872 C 0.68085 0.70422 0.85418 0.0
C873 C 0.68214 0.69437 0.86979 0.0
C874 C 0.69082 0.70221 0.83856 0.0
C875 C 0.68939 0.7116 0.82115 0.0
C876 C 0.67525 0.71279 0.81176 0.0
C877 C 0.67392 0.72176 0.79548 0.0
C878 C 0.68668 0.72953 0.78838 0.0
C879 C 0.7008 0.72833 0.79753 0.0
C880 C 0.70219 0.71939 0.81382 0.0
C881 C 0.72678 0.64463 0.86048 0.0
C882 C 0.74193 0.65001 0.85891 0.0
C883 C 0.7144 0.65475 0.85891 0.0
C884 C 0.71692 0.67045 0.85577 0.0
C885 C 0.732 0.67575 0.85363 0.0
C886 C 0.74436 0.66567 0.85523 0.0
C887 C 0.704 0.68153 0.85532 0.0
C888 C 0.70231 0.69096 0.83939 0.0
C889 C 0.69367 0.68317 0.87064 0.0
C890 C 0.69519 0.67402 0.88819 0.0
C891 C 0.70878 0.67448 0.89882 0.0
C892 C 0.71015 0.66576 0.9153 0.0
C893 C 0.69795 0.65663 0.92138 0.0
C894 C 0.68434 0.65625 0.91102 0.0
C895 C 0.68293 0.66494 0.89451 0.0
H896 H 0.69903 0.64989 0.93414 0.0
H897 H 0.68563 0.73648 0.77577 0.0
H898 H 0.24973 0.6712 0.85545 0.0
H899 H 0.27144 0.68847 0.8518 0.0
H900 H 0.30262 0.65059 0.85891 0.0
H901 H 0.28085 0.63312 0.86282 0.0
H902 H 0.31078 0.67529 0.88036 0.0
H903 H 0.29773 0.6664 0.81559 0.0
H904 H 0.28015 0.66447 0.78845 0.0
H905 H 0.26858 0.71205 0.79434 0.0
H906 H 0.28596 0.71423 0.82168 0.0
H907 H 0.37377 0.72463 0.86013 0.0
H908 H 0.35587 0.70313 0.85727 0.0
H909 H 0.31858 0.73485 0.84913 0.0
H910 H 0.33631 0.7563 0.85173 0.0
H911 H 0.31576 0.71072 0.82586 0.0
H912 H 0.32543 0.71909 0.89213 0.0
H913 H 0.34151 0.72167 0.92059 0.0
H914 H 0.35816 0.67579 0.91286 0.0
H915 H 0.34232 0.67302 0.88419 0.0
C916 C 0.26118 0.66646 0.85613 0.0
C917 C 0.26352 0.65074 0.85941 0.0
C918 C 0.2736 0.67637 0.85394 0.0
C919 C 0.28867 0.67081 0.85486 0.0
C920 C 0.29109 0.65512 0.85808 0.0
C921 C 0.27863 0.64515 0.86025 0.0
C922 C 0.30178 0.68157 0.85312 0.0
C923 C 0.31209 0.6828 0.86825 0.0
C924 C 0.30327 0.69161 0.83751 0.0
C925 C 0.29309 0.69045 0.82077 0.0
C926 C 0.29139 0.67644 0.81115 0.0
C927 C 0.28146 0.6753 0.79573 0.0
C928 C 0.27323 0.68812 0.7897 0.0
C929 C 0.27497 0.70212 0.79903 0.0
C930 C 0.28488 0.70333 0.81447 0.0
C931 C 0.36179 0.72702 0.85751 0.0
C932 C 0.35648 0.74221 0.85631 0.0
C933 C 0.35156 0.71472 0.85596 0.0
C934 C 0.33585 0.71738 0.85321 0.0
C935 C 0.33064 0.7325 0.85126 0.0
C936 C 0.34082 0.74477 0.85284 0.0
C937 C 0.32463 0.70457 0.85323 0.0
C938 C 0.31464 0.703 0.8378 0.0
C939 C 0.32334 0.6943 0.86864 0.0
C940 C 0.33284 0.69592 0.88589 0.0
C941 C 0.33262 0.7096 0.89641 0.0
C942 C 0.34167 0.71109 0.91259 0.0
C943 C 0.35089 0.69892 0.91849 0.0
C944 C 0.35104 0.68522 0.90825 0.0
C945 C 0.34202 0.68368 0.89204 0.0
H946 H 0.35789 0.70009 0.93103 0.0
H947 H 0.26551 0.6872 0.77779 0.0
H948 H 0.37342 0.28065 0.85923 0.0
H949 H 0.35562 0.30218 0.85601 0.0
H950 H 0.31798 0.27055 0.85021 0.0
H951 H 0.33562 0.24902 0.85323 0.0
H952 H 0.31559 0.29406 0.82536 0.0
H953 H 0.32535 0.28774 0.89215 0.0
H954 H 0.34168 0.28609 0.9205 0.0
H955 H 0.35848 0.33156 0.91016 0.0
H956 H 0.3424 0.33339 0.88158 0.0
H957 H 0.24982 0.33487 0.85287 0.0
H958 H 0.27145 0.31748 0.84941 0.0
H959 H 0.30279 0.35524 0.85647 0.0
H960 H 0.28108 0.37283 0.86021 0.0
H961 H 0.31082 0.33116 0.87822 0.0
H962 H 0.29839 0.33853 0.81333 0.0
H963 H 0.28165 0.34 0.78535 0.0
H964 H 0.26961 0.29262 0.79209 0.0
H965 H 0.28611 0.29091 0.82028 0.0
C966 C 0.36137 0.27827 0.85711 0.0
C967 C 0.35595 0.26309 0.85661 0.0
C968 C 0.35121 0.2906 0.85534 0.0
C969 C 0.33544 0.28798 0.85307 0.0
C970 C 0.33009 0.27285 0.85195 0.0
C971 C 0.3402 0.26054 0.85376 0.0
C972 C 0.32436 0.30089 0.8525 0.0
C973 C 0.31448 0.30214 0.83695 0.0
C974 C 0.32321 0.31169 0.8674 0.0
C975 C 0.33282 0.31063 0.88461 0.0
C976 C 0.33262 0.29733 0.89584 0.0
C977 C 0.34182 0.29637 0.91196 0.0
C978 C 0.35115 0.30869 0.91709 0.0
C979 C 0.35127 0.32201 0.90614 0.0
C980 C 0.34212 0.32302 0.88999 0.0
C981 C 0.26129 0.33956 0.85353 0.0
C982 C 0.26369 0.35528 0.85682 0.0
C983 C 0.27367 0.32958 0.85145 0.0
C984 C 0.28876 0.33506 0.85247 0.0
C985 C 0.29124 0.35077 0.85557 0.0
C986 C 0.27882 0.36081 0.85763 0.0
C987 C 0.30182 0.32417 0.85122 0.0
C988 C 0.31207 0.32328 0.86645 0.0
C989 C 0.3033 0.31368 0.83604 0.0
C990 C 0.29342 0.31462 0.81901 0.0
C991 C 0.29209 0.32845 0.80893 0.0
C992 C 0.28266 0.32932 0.79302 0.0
C993 C 0.27455 0.31642 0.78697 0.0
C994 C 0.2759 0.3026 0.7968 0.0
C995 C 0.2853 0.30167 0.81273 0.0
H996 H 0.26725 0.31712 0.77465 0.0
H997 H 0.35826 0.30793 0.92958 0.0
H998 H 0.63525 0.28021 0.86184 0.0
H999 H 0.65408 0.30092 0.8595 0.0
H1000 H 0.69035 0.26762 0.85435 0.0
H1001 H 0.67172 0.24692 0.85692 0.0
H1002 H 0.69725 0.28868 0.88018 0.0
H1003 H 0.67805 0.28901 0.81635 0.0
H1004 H 0.65816 0.29057 0.79172 0.0
H1005 H 0.6455 0.33543 0.81121 0.0
H1006 H 0.6652 0.33405 0.83613 0.0
H1007 H 0.7596 0.33418 0.85382 0.0
H1008 H 0.73862 0.31579 0.85244 0.0
H1009 H 0.70594 0.35244 0.85917 0.0
H1010 H 0.72693 0.37107 0.86033 0.0
H1011 H 0.69608 0.33105 0.83346 0.0
H1012 H 0.71543 0.33111 0.89668 0.0
H1013 H 0.7352 0.32976 0.92146 0.0
H1014 H 0.74717 0.28428 0.90357 0.0
H1015 H 0.7276 0.28544 0.87849 0.0
C1016 C 0.64722 0.27729 0.86003 0.0
C1017 C 0.65196 0.26188 0.85964 0.0
C1018 C 0.65797 0.28916 0.85863 0.0
C1019 C 0.67364 0.28584 0.85667 0.0
C1020 C 0.67833 0.27047 0.85591 0.0
C1021 C 0.66764 0.25863 0.85734 0.0
C1022 C 0.6853 0.29825 0.85633 0.0
C1023 C 0.69708 0.29783 0.8698 0.0
C1024 C 0.68481 0.3105 0.84321 0.0
C1025 C 0.67299 0.31135 0.82823 0.0
C1026 C 0.67094 0.29915 0.81548 0.0
C1027 C 0.65972 0.30001 0.80145 0.0
C1028 C 0.65054 0.31307 0.79994 0.0
C1029 C 0.6526 0.32531 0.81242 0.0
C1030 C 0.6638 0.3245 0.82649 0.0
C1031 C 0.74796 0.33841 0.85486 0.0
C1032 C 0.74498 0.35412 0.85738 0.0
C1033 C 0.73597 0.32784 0.85412 0.0
C1034 C 0.72072 0.33271 0.85604 0.0
C1035 C 0.71762 0.34843 0.85774 0.0
C1036 C 0.72965 0.35906 0.85844 0.0
C1037 C 0.70816 0.32124 0.85705 0.0
C1038 C 0.6962 0.3219 0.84384 0.0
C1039 C 0.70841 0.3092 0.87045 0.0
C1040 C 0.72014 0.30842 0.8856 0.0
C1041 C 0.72235 0.32087 0.89794 0.0
C1042 C 0.73351 0.32013 0.91205 0.0
C1043 C 0.74246 0.30696 0.91406 0.0
C1044 C 0.74024 0.29448 0.90199 0.0
C1045 C 0.72911 0.29517 0.88783 0.0
H1046 H 0.7511 0.30641 0.925 0.0
H1047 H 0.64186 0.31372 0.78906 0.0
H1048 H 0.63499 0.2796 0.15046 0.0
H1049 H 0.65317 0.30083 0.15327 0.0
H1050 H 0.69039 0.26861 0.1583 0.0
H1051 H 0.67235 0.24735 0.15568 0.0
H1052 H 0.69356 0.29216 0.18302 0.0
H1053 H 0.68283 0.28591 0.11651 0.0
H1054 H 0.66623 0.28438 0.0884 0.0
H1055 H 0.64989 0.33 0.099 0.0
H1056 H 0.66626 0.33171 0.12734 0.0
H1057 H 0.75885 0.33389 0.15478 0.0
H1058 H 0.73753 0.31608 0.15822 0.0
H1059 H 0.7055 0.35339 0.15239 0.0
H1060 H 0.72685 0.37138 0.14874 0.0
H1061 H 0.6977 0.32937 0.13026 0.0
H1062 H 0.7107 0.33655 0.19504 0.0
H1063 H 0.72766 0.33799 0.22281 0.0
H1064 H 0.73995 0.29072 0.21547 0.0
H1065 H 0.72323 0.28905 0.18748 0.0
C1066 C 0.64703 0.27702 0.15232 0.0
C1067 C 0.65221 0.26175 0.15272 0.0
C1068 C 0.65741 0.28918 0.15386 0.0
C1069 C 0.67316 0.28631 0.15578 0.0
C1070 C 0.67829 0.2711 0.15681 0.0
C1071 C 0.66795 0.25895 0.15523 0.0
C1072 C 0.68443 0.29908 0.15608 0.0
C1073 C 0.69454 0.30024 0.17143 0.0
C1074 C 0.68544 0.30988 0.14121 0.0
C1075 C 0.67562 0.30887 0.12417 0.0
C1076 C 0.6756 0.29556 0.11294 0.0
C1077 C 0.66625 0.29467 0.09695 0.0
C1078 C 0.65697 0.30706 0.09196 0.0
C1079 C 0.65706 0.32039 0.10291 0.0
C1080 C 0.66637 0.32134 0.11893 0.0
C1081 C 0.74729 0.33838 0.15437 0.0
C1082 C 0.74459 0.3541 0.15148 0.0
C1083 C 0.73509 0.32816 0.15643 0.0
C1084 C 0.7199 0.3334 0.15576 0.0
C1085 C 0.71713 0.3491 0.15301 0.0
C1086 C 0.72935 0.35937 0.15099 0.0
C1087 C 0.70701 0.32233 0.15706 0.0
C1088 C 0.6966 0.32145 0.14199 0.0
C1089 C 0.70574 0.31178 0.17219 0.0
C1090 C 0.71579 0.31271 0.18906 0.0
C1091 C 0.7171 0.32649 0.19926 0.0
C1092 C 0.72666 0.32735 0.21506 0.0
C1093 C 0.7349 0.31447 0.22088 0.0
C1094 C 0.73357 0.3007 0.21094 0.0
C1095 C 0.72403 0.29978 0.19512 0.0
H1096 H 0.7423 0.31515 0.23312 0.0
H1097 H 0.64975 0.30635 0.07957 0.0
H1098 H 0.75766 0.66961 0.15604 0.0
H1099 H 0.7361 0.68696 0.1602 0.0
H1100 H 0.70471 0.64902 0.15528 0.0
H1101 H 0.72634 0.63147 0.15076 0.0
H1102 H 0.69567 0.67259 0.13386 0.0
H1103 H 0.71067 0.66649 0.19804 0.0
H1104 H 0.72843 0.66557 0.22508 0.0
H1105 H 0.73993 0.71288 0.21647 0.0
H1106 H 0.7224 0.71404 0.1892 0.0
H1107 H 0.63355 0.72286 0.1551 0.0
H1108 H 0.65168 0.70162 0.15819 0.0
H1109 H 0.68917 0.73374 0.16026 0.0
H1110 H 0.67118 0.75502 0.15733 0.0
H1111 H 0.69282 0.71069 0.18584 0.0
H1112 H 0.68024 0.71556 0.11952 0.0
H1113 H 0.66275 0.71646 0.0922 0.0
H1114 H 0.64673 0.67115 0.10516 0.0
H1115 H 0.664 0.67007 0.13272 0.0
C1116 C 0.7462 0.66487 0.15598 0.0
C1117 C 0.74376 0.64911 0.15306 0.0
C1118 C 0.73386 0.67483 0.15848 0.0
C1119 C 0.71877 0.66929 0.15831 0.0
C1120 C 0.71626 0.65355 0.15554 0.0
C1121 C 0.72864 0.64353 0.15301 0.0
C1122 C 0.70571 0.68015 0.16006 0.0
C1123 C 0.69486 0.68069 0.14546 0.0
C1124 C 0.70478 0.69092 0.17501 0.0
C1125 C 0.71529 0.69031 0.19148 0.0
C1126 C 0.71706 0.67667 0.20182 0.0
C1127 C 0.72708 0.67611 0.21721 0.0
C1128 C 0.73532 0.68915 0.22247 0.0
C1129 C 0.73354 0.70279 0.21237 0.0
C1130 C 0.72355 0.70341 0.19697 0.0
C1131 C 0.64564 0.72543 0.1564 0.0
C1132 C 0.6509 0.74066 0.15584 0.0
C1133 C 0.65599 0.71326 0.1581 0.0
C1134 C 0.67179 0.71608 0.15923 0.0
C1135 C 0.67702 0.73128 0.15938 0.0
C1136 C 0.66671 0.74344 0.15764 0.0
C1137 C 0.683 0.70328 0.15949 0.0
C1138 C 0.69351 0.7024 0.17444 0.0
C1139 C 0.68361 0.69219 0.14489 0.0
C1140 C 0.67327 0.69281 0.1283 0.0
C1141 C 0.6729 0.70584 0.11663 0.0
C1142 C 0.66304 0.70638 0.10109 0.0
C1143 C 0.6536 0.69389 0.09698 0.0
C1144 C 0.65402 0.68082 0.10838 0.0
C1145 C 0.66385 0.68024 0.12396 0.0
H1146 H 0.64598 0.69432 0.08494 0.0
H1147 H 0.74307 0.6887 0.23438 0.0
H1148 H 0.24742 0.67002 0.16031 0.0
H1149 H 0.26869 0.68799 0.16285 0.0
H1150 H 0.30051 0.6519 0.14891 0.0
H1151 H 0.27924 0.63368 0.14666 0.0
H1152 H 0.31209 0.67075 0.17616 0.0
H1153 H 0.28922 0.67667 0.11517 0.0
H1154 H 0.2681 0.68044 0.09255 0.0
H1155 H 0.25783 0.72403 0.11773 0.0
H1156 H 0.27876 0.72042 0.14069 0.0
H1157 H 0.37179 0.72364 0.14879 0.0
H1158 H 0.35304 0.70281 0.15086 0.0
H1159 H 0.3175 0.73562 0.16351 0.0
H1160 H 0.33602 0.75641 0.16119 0.0
H1161 H 0.30892 0.7171 0.1358 0.0
H1162 H 0.33192 0.71078 0.19725 0.0
H1163 H 0.35325 0.70675 0.21951 0.0
H1164 H 0.36381 0.66383 0.19279 0.0
H1165 H 0.34266 0.6677 0.1702 0.0
C1166 C 0.25894 0.66583 0.15793 0.0
C1167 C 0.26159 0.65042 0.15307 0.0
C1168 C 0.2711 0.67615 0.15935 0.0
C1169 C 0.28617 0.67137 0.15571 0.0
C1170 C 0.28897 0.65586 0.15169 0.0
C1171 C 0.27678 0.64547 0.15037 0.0
C1172 C 0.29882 0.68277 0.15524 0.0
C1173 C 0.31152 0.6808 0.16716 0.0
C1174 C 0.29801 0.69595 0.14363 0.0
C1175 C 0.28548 0.69821 0.12975 0.0
C1176 C 0.28239 0.68701 0.11597 0.0
C1177 C 0.27047 0.68912 0.10307 0.0
C1178 C 0.26161 0.70245 0.10372 0.0
C1179 C 0.26469 0.71371 0.11725 0.0
C1180 C 0.2766 0.71164 0.1302 0.0
C1181 C 0.36003 0.72639 0.15227 0.0
C1182 C 0.3554 0.74172 0.1547 0.0
C1183 C 0.34932 0.71446 0.1535 0.0
C1184 C 0.33384 0.71764 0.15736 0.0
C1185 C 0.32935 0.73288 0.16041 0.0
C1186 C 0.33999 0.74477 0.15911 0.0
C1187 C 0.32206 0.70533 0.15706 0.0
C1188 C 0.30954 0.70708 0.14483 0.0
C1189 C 0.32311 0.69196 0.16831 0.0
C1190 C 0.33581 0.68961 0.18191 0.0
C1191 C 0.33887 0.70054 0.19602 0.0
C1192 C 0.35091 0.69828 0.20872 0.0
C1193 C 0.3599 0.68507 0.20753 0.0
C1194 C 0.35685 0.67407 0.19367 0.0
C1195 C 0.34483 0.67629 0.18093 0.0
H1196 H 0.36922 0.68333 0.21738 0.0
H1197 H 0.25238 0.70407 0.09373 0.0
H1198 H 0.24913 0.33382 0.15688 0.0
H1199 H 0.27091 0.31671 0.16062 0.0
H1200 H 0.30174 0.35527 0.15805 0.0
H1201 H 0.27988 0.37258 0.15393 0.0
H1202 H 0.31152 0.33253 0.13577 0.0
H1203 H 0.29549 0.33633 0.19992 0.0
H1204 H 0.27729 0.33613 0.22661 0.0
H1205 H 0.26649 0.28903 0.21526 0.0
H1206 H 0.28447 0.28899 0.18833 0.0
H1207 H 0.3732 0.28063 0.15411 0.0
H1208 H 0.35548 0.30217 0.15806 0.0
H1209 H 0.3174 0.27072 0.15957 0.0
H1210 H 0.33494 0.2492 0.15593 0.0
H1211 H 0.31398 0.29272 0.18569 0.0
H1212 H 0.32714 0.29031 0.11912 0.0
H1213 H 0.34492 0.29048 0.09199 0.0
H1214 H 0.36095 0.33513 0.10804 0.0
H1215 H 0.34339 0.33514 0.13542 0.0
C1216 C 0.26051 0.33874 0.15727 0.0
C1217 C 0.26272 0.35462 0.15511 0.0
C1218 C 0.27298 0.32892 0.15952 0.0
C1219 C 0.28798 0.3347 0.15988 0.0
C1220 C 0.29027 0.35055 0.1579 0.0
C1221 C 0.27775 0.36044 0.1556 0.0
C1222 C 0.30118 0.324 0.16135 0.0
C1223 C 0.31225 0.32405 0.14693 0.0
C1224 C 0.30203 0.31276 0.17574 0.0
C1225 C 0.29127 0.31269 0.19202 0.0
C1226 C 0.28916 0.32595 0.20304 0.0
C1227 C 0.2789 0.32588 0.21822 0.0
C1228 C 0.27072 0.31259 0.22261 0.0
C1229 C 0.27283 0.29932 0.21185 0.0
C1230 C 0.28308 0.29933 0.19664 0.0
C1231 C 0.36106 0.27829 0.15545 0.0
C1232 C 0.3555 0.26316 0.15458 0.0
C1233 C 0.35095 0.29063 0.15763 0.0
C1234 C 0.33509 0.28808 0.1589 0.0
C1235 C 0.32958 0.27298 0.15863 0.0
C1236 C 0.33965 0.26067 0.15646 0.0
C1237 C 0.32405 0.30103 0.15987 0.0
C1238 C 0.31339 0.30139 0.17474 0.0
C1239 C 0.32357 0.31264 0.1459 0.0
C1240 C 0.3341 0.31265 0.12943 0.0
C1241 C 0.33455 0.30011 0.11694 0.0
C1242 C 0.34457 0.30018 0.10151 0.0
C1243 C 0.3541 0.31278 0.09833 0.0
C1244 C 0.35359 0.32536 0.11055 0.0
C1245 C 0.3436 0.32534 0.12602 0.0
H1246 H 0.36184 0.31282 0.08637 0.0
H1247 H 0.26278 0.31256 0.23436 0.0
H1248 H 0.9401 0.24576 0.36768 0.0
H1249 H 0.96788 0.24608 0.3643 0.0
H1250 H 0.96541 0.29005 0.33673 0.0
H1251 H 0.93738 0.28976 0.3399 0.0
H1252 H 0.98768 0.2708 0.32069 0.0
H1253 H 0.97375 0.28933 0.38199 0.0
H1254 H 0.96034 0.28887 0.41269 0.0
H1255 H 0.983 0.24681 0.42708 0.0
H1256 H 0.99637 0.24689 0.39633 0.0
H1257 H 0.0674 0.28709 0.34107 0.0
H1258 H 0.03953 0.28802 0.33681 0.0
H1259 H 0.03503 0.24546 0.36729 0.0
H1260 H 0.06268 0.24455 0.37177 0.0
H1261 H 0.01612 0.26659 0.38113 0.0
H1262 H 0.02946 0.24769 0.31919 0.0
H1263 H 0.04274 0.24822 0.28841 0.0
H1264 H 0.02151 0.2913 0.27531 0.0
H1265 H 0.00825 0.29112 0.30614 0.0
C1266 C 0.9454 0.25543 0.36066 0.0
C1267 C 0.93652 0.26782 0.35423 0.0
C1268 C 0.96131 0.25561 0.35878 0.0
C1269 C 0.96875 0.26821 0.35057 0.0
C1270 C 0.9599 0.28024 0.34317 0.0
C1271 C 0.9439 0.28006 0.34502 0.0
C1272 C 0.98575 0.26914 0.35096 0.0
C1273 C 0.99393 0.27011 0.3339 0.0
C1274 C 0.9939 0.26809 0.3682 0.0
C1275 C 0.98596 0.26806 0.38678 0.0
C1276 C 0.97579 0.27993 0.39164 0.0
C1277 C 0.96821 0.27974 0.40906 0.0
C1278 C 0.97079 0.2678 0.42181 0.0
C1279 C 0.981 0.25604 0.41718 0.0
C1280 C 0.98859 0.25616 0.39977 0.0
C1281 C 0.06048 0.27783 0.34661 0.0
C1282 C 0.06727 0.26579 0.35684 0.0
C1283 C 0.04455 0.27835 0.34414 0.0
C1284 C 0.03516 0.2668 0.35174 0.0
C1285 C 0.04201 0.25454 0.36138 0.0
C1286 C 0.05785 0.25403 0.36389 0.0
C1287 C 0.01816 0.26783 0.35082 0.0
C1288 C 0.00993 0.26733 0.36788 0.0
C1289 C 0.01005 0.26936 0.33359 0.0
C1290 C 0.018 0.26948 0.31506 0.0
C1291 C 0.02773 0.25734 0.30982 0.0
C1292 C 0.03523 0.25757 0.29235 0.0
C1293 C 0.03301 0.26981 0.27993 0.0
C1294 C 0.02324 0.28184 0.28495 0.0
C1295 C 0.01572 0.28168 0.30242 0.0
H1296 H 0.03882 0.26996 0.26641 0.0
H1297 H 0.96491 0.26768 0.43529 0.0
H1298 H 0.71443 0.06939 0.33864 0.0
H1299 H 0.71381 0.0417 0.3327 0.0
H1300 H 0.75614 0.03642 0.36337 0.0
H1301 H 0.75695 0.06394 0.36909 0.0
H1302 H 0.75612 0.01853 0.33272 0.0
H1303 H 0.72115 0.02956 0.38417 0.0
H1304 H 0.69889 0.04213 0.39908 0.0
H1305 H 0.66917 0.02246 0.35727 0.0
H1306 H 0.69131 0.00994 0.34198 0.0
H1307 H 0.75677 0.94364 0.36911 0.0
H1308 H 0.75611 0.97111 0.36313 0.0
H1309 H 0.71382 0.96584 0.33235 0.0
H1310 H 0.71431 0.93817 0.33853 0.0
H1311 H 0.71194 0.98894 0.35749 0.0
H1312 H 0.74709 0.97462 0.30906 0.0
H1313 H 0.76961 0.96174 0.29524 0.0
H1314 H 0.79929 0.98729 0.33192 0.0
H1315 H 0.77693 1.00018 0.34616 0.0
C1316 C 0.7237 0.06235 0.3439 0.0
C1317 C 0.73569 0.06888 0.35444 0.0
C1318 C 0.72329 0.04651 0.34058 0.0
C1319 C 0.73483 0.03693 0.34779 0.0
C1320 C 0.7471 0.04354 0.35765 0.0
C1321 C 0.74752 0.05931 0.36097 0.0
C1322 C 0.73395 0.01995 0.34595 0.0
C1323 C 0.74649 0.01206 0.33818 0.0
C1324 C 0.7212 0.01147 0.35261 0.0
C1325 C 0.7079 0.01898 0.3618 0.0
C1326 C 0.70989 0.02802 0.37807 0.0
C1327 C 0.69729 0.03512 0.38661 0.0
C1328 C 0.68263 0.03314 0.37909 0.0
C1329 C 0.68054 0.02402 0.36305 0.0
C1330 C 0.6931 0.01692 0.35445 0.0
C1331 C 0.7474 0.94825 0.36086 0.0
C1332 C 0.73559 0.93868 0.35428 0.0
C1333 C 0.74708 0.96399 0.35737 0.0
C1334 C 0.735 0.97057 0.34711 0.0
C1335 C 0.72329 0.96103 0.34024 0.0
C1336 C 0.72362 0.94521 0.34372 0.0
C1337 C 0.73428 0.9875 0.34464 0.0
C1338 C 0.72146 0.99539 0.35165 0.0
C1339 C 0.7468 0.99597 0.33736 0.0
C1340 C 0.76031 0.98831 0.32875 0.0
C1341 C 0.75841 0.97742 0.31427 0.0
C1342 C 0.77115 0.97013 0.30634 0.0
C1343 C 0.78587 0.97368 0.31271 0.0
C1344 C 0.78788 0.98455 0.327 0.0
C1345 C 0.77518 0.99188 0.33498 0.0
H1346 H 0.79572 0.96801 0.30657 0.0
H1347 H 0.67289 0.03863 0.38572 0.0
H1348 H 0.06686 0.7161 0.33998 0.0
H1349 H 0.03892 0.71591 0.33614 0.0
H1350 H 0.03576 0.75818 0.36753 0.0
H1351 H 0.06347 0.7584 0.37151 0.0
H1352 H 0.01667 0.73679 0.38142 0.0
H1353 H 0.02951 0.75712 0.32004 0.0
H1354 H 0.04233 0.75713 0.28896 0.0
H1355 H 0.01993 0.71493 0.2745 0.0
H1356 H 0.00712 0.71457 0.30563 0.0
H1357 H 0.94116 0.76024 0.37053 0.0
H1358 H 0.96886 0.75908 0.36658 0.0
H1359 H 0.96459 0.71593 0.33735 0.0
H1360 H 0.93663 0.71706 0.34112 0.0
H1361 H 0.98723 0.73501 0.32152 0.0
H1362 H 0.97372 0.71506 0.38218 0.0
H1363 H 0.96079 0.7149 0.41319 0.0
H1364 H 0.98476 0.75587 0.4291 0.0
H1365 H 0.99766 0.75641 0.39805 0.0
C1366 C 0.06022 0.72547 0.3458 0.0
C1367 C 0.0674 0.73722 0.35613 0.0
C1368 C 0.04425 0.72535 0.34358 0.0
C1369 C 0.03523 0.73702 0.35159 0.0
C1370 C 0.04247 0.74901 0.36131 0.0
C1371 C 0.05835 0.74914 0.36352 0.0
C1372 C 0.01821 0.73638 0.35103 0.0
C1373 C 0.01026 0.73657 0.36829 0.0
C1374 C 0.00981 0.73552 0.33395 0.0
C1375 C 0.0175 0.73573 0.31525 0.0
C1376 C 0.02743 0.74777 0.31031 0.0
C1377 C 0.03467 0.74785 0.29267 0.0
C1378 C 0.03198 0.73601 0.27979 0.0
C1379 C 0.02202 0.72408 0.28451 0.0
C1380 C 0.01476 0.72394 0.30214 0.0
C1381 C 0.94604 0.75057 0.36304 0.0
C1382 C 0.93667 0.73866 0.35631 0.0
C1383 C 0.96191 0.74992 0.36082 0.0
C1384 C 0.96882 0.7373 0.35196 0.0
C1385 C 0.95949 0.72575 0.3443 0.0
C1386 C 0.94353 0.7264 0.3465 0.0
C1387 C 0.98579 0.73585 0.35189 0.0
C1388 C 0.99369 0.73516 0.3346 0.0
C1389 C 0.99422 0.73618 0.36897 0.0
C1390 C 0.98656 0.73585 0.38772 0.0
C1391 C 0.97615 0.7241 0.39224 0.0
C1392 C 0.96884 0.72393 0.40983 0.0
C1393 C 0.97193 0.73539 0.42309 0.0
C1394 C 0.98236 0.74702 0.4188 0.0
C1395 C 0.98969 0.74725 0.40121 0.0
H1396 H 0.96625 0.73524 0.43671 0.0
H1397 H 0.0376 0.7361 0.26614 0.0
H1398 H 0.29141 0.93596 0.34211 0.0
H1399 H 0.29294 0.96365 0.33643 0.0
H1400 H 0.2483 0.96953 0.36161 0.0
H1401 H 0.24664 0.94201 0.36718 0.0
H1402 H 0.25139 0.98723 0.33054 0.0
H1403 H 0.28066 0.97609 0.38688 0.0
H1404 H 0.30101 0.96334 0.40519 0.0
H1405 H 0.33511 0.9824 0.36826 0.0
H1406 H 0.31492 0.9951 0.34957 0.0
H1407 H 0.24834 0.06219 0.36687 0.0
H1408 H 0.24923 0.03468 0.36106 0.0
H1409 H 0.29381 0.03947 0.33539 0.0
H1410 H 0.29303 0.0672 0.34127 0.0
H1411 H 0.29315 0.01645 0.36152 0.0
H1412 H 0.26341 0.03085 0.30808 0.0
H1413 H 0.24267 0.04392 0.29084 0.0
H1414 H 0.2091 0.01905 0.32292 0.0
H1415 H 0.22964 0.00598 0.34055 0.0
C1416 C 0.28185 0.94314 0.34623 0.0
C1417 C 0.26894 0.93678 0.35519 0.0
C1418 C 0.28277 0.95897 0.34304 0.0
C1419 C 0.27079 0.9687 0.34877 0.0
C1420 C 0.25767 0.96227 0.35706 0.0
C1421 C 0.25678 0.94652 0.3603 0.0
C1422 C 0.27205 0.98564 0.34701 0.0
C1423 C 0.2605 0.99363 0.33736 0.0
C1424 C 0.28414 0.994 0.35547 0.0
C1425 C 0.29628 0.98637 0.36669 0.0
C1426 C 0.29249 0.97745 0.38257 0.0
C1427 C 0.30399 0.97026 0.39303 0.0
C1428 C 0.31934 0.97202 0.38785 0.0
C1429 C 0.32322 0.98102 0.37223 0.0
C1430 C 0.31175 0.98822 0.36169 0.0
C1431 C 0.25828 0.05747 0.35977 0.0
C1432 C 0.27062 0.06691 0.35453 0.0
C1433 C 0.25874 0.04171 0.35638 0.0
C1434 C 0.27153 0.035 0.34764 0.0
C1435 C 0.2838 0.04441 0.3421 0.0
C1436 C 0.28331 0.06025 0.34539 0.0
C1437 C 0.2723 0.01806 0.34539 0.0
C1438 C 0.28421 0.01007 0.35434 0.0
C1439 C 0.26049 0.00971 0.33635 0.0
C1440 C 0.24808 0.0175 0.32573 0.0
C1441 C 0.2516 0.02824 0.31156 0.0
C1442 C 0.23988 0.03564 0.3017 0.0
C1443 C 0.22458 0.03234 0.3058 0.0
C1444 C 0.22096 0.0216 0.31975 0.0
C1445 C 0.23264 0.01417 0.32967 0.0
H1446 H 0.21552 0.03808 0.29815 0.0
H1447 H 0.32824 0.96645 0.39598 0.0
H1448 H 0.06676 0.71579 0.67106 0.0
H1449 H 0.03906 0.7146 0.67684 0.0
H1450 H 0.03339 0.75822 0.64911 0.0
H1451 H 0.06091 0.75953 0.6434 0.0
H1452 H 0.01558 0.75632 0.68045 0.0
H1453 H 0.02688 0.725 0.62565 0.0
H1454 H 0.03965 0.70392 0.60855 0.0
H1455 H 0.02026 0.67131 0.6472 0.0
H1456 H 0.00754 0.69224 0.66469 0.0
H1457 H 0.94067 0.75865 0.64428 0.0
H1458 H 0.96814 0.75787 0.6502 0.0
H1459 H 0.96326 0.71368 0.67681 0.0
H1460 H 0.93559 0.71433 0.67073 0.0
H1461 H 0.98635 0.71366 0.65137 0.0
H1462 H 0.97185 0.74512 0.7033 0.0
H1463 H 0.95881 0.76642 0.71962 0.0
H1464 H 0.98394 0.79892 0.68623 0.0
H1465 H 0.99697 0.77782 0.6695 0.0
C1466 C 0.05963 0.72521 0.66642 0.0
C1467 C 0.06604 0.73772 0.65668 0.0
C1468 C 0.04379 0.72448 0.66966 0.0
C1469 C 0.03411 0.73625 0.66323 0.0
C1470 C 0.0406 0.74901 0.6542 0.0
C1471 C 0.05636 0.74971 0.65089 0.0
C1472 C 0.01716 0.73511 0.66501 0.0
C1473 C 0.00918 0.74702 0.67405 0.0
C1474 C 0.0088 0.72277 0.65711 0.0
C1475 C 0.01643 0.71019 0.64662 0.0
C1476 C 0.02545 0.71335 0.6306 0.0
C1477 C 0.03266 0.70143 0.62082 0.0
C1478 C 0.03081 0.68629 0.62682 0.0
C1479 C 0.02172 0.68304 0.64259 0.0
C1480 C 0.0145 0.69493 0.65244 0.0
C1481 C 0.94537 0.74883 0.65161 0.0
C1482 C 0.93591 0.73655 0.65704 0.0
C1483 C 0.96111 0.74843 0.65507 0.0
C1484 C 0.96779 0.73578 0.66412 0.0
C1485 C 0.95836 0.72359 0.66986 0.0
C1486 C 0.94254 0.724 0.66645 0.0
C1487 C 0.98473 0.73504 0.66646 0.0
C1488 C 0.99272 0.72281 0.65814 0.0
C1489 C 0.99309 0.74711 0.67498 0.0
C1490 C 0.98532 0.75986 0.68505 0.0
C1491 C 0.97452 0.75681 0.69933 0.0
C1492 C 0.96714 0.76885 0.70868 0.0
C1493 C 0.97053 0.78402 0.70395 0.0
C1494 C 0.98133 0.78717 0.68988 0.0
C1495 C 0.98873 0.77517 0.68048 0.0
H1496 H 0.9648 0.79332 0.7112 0.0
H1497 H 0.03639 0.67707 0.61923 0.0
H1498 H 0.2478 0.94427 0.63859 0.0
H1499 H 0.24873 0.97173 0.64478 0.0
H1500 H 0.28984 0.96563 0.67766 0.0
H1501 H 0.28907 0.93799 0.67134 0.0
H1502 H 0.24792 0.98906 0.6763 0.0
H1503 H 0.31289 0.99744 0.66964 0.0
H1504 H 0.33536 0.98495 0.65505 0.0
H1505 H 0.30669 0.96595 0.6117 0.0
H1506 H 0.28411 0.97848 0.62589 0.0
H1507 H 0.29015 0.06939 0.67257 0.0
H1508 H 0.29052 0.04168 0.67848 0.0
H1509 H 0.24856 0.03671 0.64694 0.0
H1510 H 0.24798 0.0642 0.64129 0.0
H1511 H 0.29276 0.01874 0.65355 0.0
H1512 H 0.22746 0.00761 0.66272 0.0
H1513 H 0.20489 0.02042 0.67655 0.0
H1514 H 0.23397 0.04551 0.71442 0.0
H1515 H 0.2567 0.0327 0.70101 0.0
C1516 C 0.25699 0.94871 0.64727 0.0
C1517 C 0.26842 0.93893 0.65437 0.0
C1518 C 0.25747 0.96443 0.65086 0.0
C1519 C 0.26942 0.97079 0.66153 0.0
C1520 C 0.2806 0.96101 0.6692 0.0
C1521 C 0.28011 0.94521 0.66564 0.0
C1522 C 0.27037 0.98772 0.66378 0.0
C1523 C 0.2577 0.99557 0.67129 0.0
C1524 C 0.28331 0.9962 0.65775 0.0
C1525 C 0.2968 0.98872 0.64898 0.0
C1526 C 0.3114 0.99061 0.65698 0.0
C1527 C 0.32415 0.98353 0.64877 0.0
C1528 C 0.32245 0.97461 0.6325 0.0
C1529 C 0.30799 0.9728 0.62435 0.0
C1530 C 0.29521 0.97988 0.63248 0.0
C1531 C 0.28089 0.06241 0.66716 0.0
C1532 C 0.26902 0.06903 0.65649 0.0
C1533 C 0.28114 0.04656 0.67048 0.0
C1534 C 0.26948 0.03709 0.66334 0.0
C1535 C 0.25753 0.04376 0.65295 0.0
C1536 C 0.25726 0.05953 0.64963 0.0
C1537 C 0.27013 0.02014 0.66565 0.0
C1538 C 0.28309 0.01227 0.65896 0.0
C1539 C 0.25744 0.01164 0.67241 0.0
C1540 C 0.2438 0.01925 0.68076 0.0
C1541 C 0.22904 0.01579 0.67407 0.0
C1542 C 0.21621 0.02307 0.68182 0.0
C1543 C 0.218 0.0338 0.69632 0.0
C1544 C 0.23261 0.03724 0.70314 0.0
C1545 C 0.24547 0.02999 0.69545 0.0
H1546 H 0.20806 0.03943 0.70229 0.0
H1547 H 0.33233 0.96913 0.62618 0.0
H1548 H 0.06332 0.24575 0.64002 0.0
H1549 H 0.03558 0.24632 0.64387 0.0
H1550 H 0.03875 0.29024 0.67153 0.0
H1551 H 0.06674 0.28967 0.66794 0.0
H1552 H 0.01663 0.27159 0.68797 0.0
H1553 H 0.02964 0.28924 0.62607 0.0
H1554 H 0.04248 0.28838 0.59502 0.0
H1555 H 0.01928 0.24635 0.58181 0.0
H1556 H 0.00647 0.24683 0.61291 0.0
H1557 H 0.93678 0.28857 0.66882 0.0
H1558 H 0.96471 0.2892 0.67251 0.0
H1559 H 0.96826 0.24589 0.64344 0.0
H1560 H 0.94054 0.24524 0.63958 0.0
H1561 H 0.98713 0.26678 0.62836 0.0
H1562 H 0.97465 0.24894 0.69103 0.0
H1563 H 0.96188 0.2501 0.72212 0.0
H1564 H 0.98376 0.29315 0.73372 0.0
H1565 H 0.99651 0.29234 0.70257 0.0
C1566 C 0.05818 0.25547 0.64714 0.0
C1567 C 0.06725 0.26774 0.6535 0.0
C1568 C 0.04229 0.25579 0.64928 0.0
C1569 C 0.03505 0.26845 0.65766 0.0
C1570 C 0.0441 0.28039 0.66494 0.0
C1571 C 0.06008 0.28005 0.66286 0.0
C1572 C 0.01804 0.26949 0.65768 0.0
C1573 C 0.01015 0.27077 0.67493 0.0
C1574 C 0.00959 0.26829 0.64068 0.0
C1575 C 0.01719 0.26801 0.62189 0.0
C1576 C 0.02736 0.27975 0.6166 0.0
C1577 C 0.03462 0.27934 0.59898 0.0
C1578 C 0.03173 0.2673 0.58646 0.0
C1579 C 0.02153 0.25566 0.59152 0.0
C1580 C 0.01425 0.25601 0.60914 0.0
C1581 C 0.9435 0.27907 0.66349 0.0
C1582 C 0.93642 0.26689 0.65382 0.0
C1583 C 0.95947 0.27944 0.66563 0.0
C1584 C 0.96861 0.2676 0.65823 0.0
C1585 C 0.96147 0.2552 0.64919 0.0
C1586 C 0.94558 0.25482 0.64704 0.0
C1587 C 0.98563 0.26846 0.65869 0.0
C1588 C 0.99355 0.26765 0.64144 0.0
C1589 C 0.99404 0.27017 0.67567 0.0
C1590 C 0.98639 0.27066 0.69438 0.0
C1591 C 0.97663 0.25872 0.70014 0.0
C1592 C 0.96942 0.2593 0.71778 0.0
C1593 C 0.97197 0.27171 0.72986 0.0
C1594 C 0.98177 0.28355 0.72433 0.0
C1595 C 0.989 0.28303 0.70669 0.0
H1596 H 0.96638 0.27214 0.74352 0.0
H1597 H 0.03736 0.267 0.57283 0.0
H1598 H 0.71483 0.0674 0.67124 0.0
H1599 H 0.71452 0.03943 0.67485 0.0
H1600 H 0.75681 0.0363 0.64348 0.0
H1601 H 0.75715 0.06404 0.63973 0.0
H1602 H 0.73547 0.01735 0.62943 0.0
H1603 H 0.75559 0.02972 0.69099 0.0
H1604 H 0.75556 0.04236 0.72218 0.0
H1605 H 0.7132 0.0201 0.73627 0.0
H1606 H 0.71287 0.00748 0.70505 0.0
H1607 H 0.75799 0.94144 0.63975 0.0
H1608 H 0.75721 0.96914 0.64397 0.0
H1609 H 0.71394 0.96526 0.67302 0.0
H1610 H 0.71468 0.93731 0.66898 0.0
H1611 H 0.73319 0.98757 0.68909 0.0
H1612 H 0.71339 0.9746 0.62818 0.0
H1613 H 0.71327 0.96185 0.59707 0.0
H1614 H 0.75454 0.98551 0.58164 0.0
H1615 H 0.75504 0.99824 0.61278 0.0
C1616 C 0.72418 0.06076 0.66538 0.0
C1617 C 0.73597 0.06796 0.65512 0.0
C1618 C 0.724 0.04478 0.66747 0.0
C1619 C 0.73564 0.03575 0.65941 0.0
C1620 C 0.74767 0.043 0.64975 0.0
C1621 C 0.74786 0.0589 0.64766 0.0
C1622 C 0.73492 0.01872 0.65982 0.0
C1623 C 0.73515 0.01086 0.6425 0.0
C1624 C 0.73394 0.01022 0.67684 0.0
C1625 C 0.73412 0.0178 0.6956 0.0
C1626 C 0.74619 0.02763 0.70067 0.0
C1627 C 0.74626 0.03477 0.71837 0.0
C1628 C 0.73436 0.03207 0.73118 0.0
C1629 C 0.7224 0.0222 0.72633 0.0
C1630 C 0.72227 0.01505 0.70864 0.0
C1631 C 0.74838 0.94641 0.64727 0.0
C1632 C 0.73632 0.93716 0.65386 0.0
C1633 C 0.74794 0.96228 0.64964 0.0
C1634 C 0.73539 0.9693 0.65852 0.0
C1635 C 0.7237 0.96008 0.66606 0.0
C1636 C 0.72414 0.94412 0.66371 0.0
C1637 C 0.73415 0.98629 0.65871 0.0
C1638 C 0.73345 0.9941 0.67605 0.0
C1639 C 0.73464 0.99482 0.6417 0.0
C1640 C 0.73432 0.98728 0.62289 0.0
C1641 C 0.7225 0.977 0.61821 0.0
C1642 C 0.72236 0.96979 0.60056 0.0
C1643 C 0.73391 0.97284 0.5874 0.0
C1644 C 0.74561 0.98315 0.59185 0.0
C1645 C 0.74582 0.99037 0.6095 0.0
H1646 H 0.73377 0.96725 0.57374 0.0
H1647 H 0.73444 0.0376 0.74488 0.0
H1648 H 0.56391 0.74924 0.87148 0.0
H1649 H 0.53646 0.74978 0.86532 0.0
H1650 H 0.54171 0.79198 0.83429 0.0
H1651 H 0.56937 0.79157 0.84054 0.0
H1652 H 0.51842 0.79364 0.85987 0.0
H1653 H 0.53325 0.75924 0.81089 0.0
H1654 H 0.54638 0.737 0.79673 0.0
H1655 H 0.52094 0.70662 0.8327 0.0
H1656 H 0.5078 0.72869 0.84729 0.0
H1657 H 0.43812 0.79064 0.83993 0.0
H1658 H 0.46587 0.79162 0.83449 0.0
H1659 H 0.47124 0.74905 0.86472 0.0
H1660 H 0.44367 0.74791 0.86999 0.0
H1661 H 0.48932 0.74952 0.83409 0.0
H1662 H 0.47771 0.78367 0.88608 0.0
H1663 H 0.4649 0.80561 0.90139 0.0
H1664 H 0.4846 0.83614 0.86046 0.0
H1665 H 0.49737 0.81433 0.84475 0.0
C1666 C 0.5593 0.75857 0.86315 0.0
C1667 C 0.56885 0.77036 0.85649 0.0
C1668 C 0.54357 0.75882 0.85956 0.0
C1669 C 0.53701 0.77084 0.84919 0.0
C1670 C 0.54653 0.78256 0.84227 0.0
C1671 C 0.56234 0.78227 0.84578 0.0
C1672 C 0.5201 0.77148 0.84662 0.0
C1673 C 0.51207 0.78415 0.85381 0.0
C1674 C 0.51178 0.75897 0.83906 0.0
C1675 C 0.5196 0.74564 0.83027 0.0
C1676 C 0.53053 0.74782 0.81588 0.0
C1677 C 0.53796 0.73525 0.80776 0.0
C1678 C 0.53452 0.72041 0.81383 0.0
C1679 C 0.5236 0.71812 0.82802 0.0
C1680 C 0.51614 0.73066 0.8362 0.0
C1681 C 0.4452 0.78141 0.84521 0.0
C1682 C 0.43868 0.76924 0.85548 0.0
C1683 C 0.46107 0.78201 0.84217 0.0
C1684 C 0.47068 0.77049 0.84938 0.0
C1685 C 0.46409 0.75808 0.85901 0.0
C1686 C 0.44829 0.75748 0.86207 0.0
C1687 C 0.48766 0.77152 0.84772 0.0
C1688 C 0.49569 0.75915 0.83978 0.0
C1689 C 0.49599 0.78426 0.85468 0.0
C1690 C 0.48832 0.79736 0.8641 0.0
C1691 C 0.4792 0.79505 0.88025 0.0
C1692 C 0.47197 0.80746 0.88902 0.0
C1693 C 0.47389 0.82225 0.88186 0.0
C1694 C 0.48309 0.82467 0.86596 0.0
C1695 C 0.49033 0.81229 0.85712 0.0
H1696 H 0.46829 0.83185 0.88867 0.0
H1697 H 0.54029 0.71069 0.80753 0.0
H1698 H 0.25933 0.44156 0.8699 0.0
H1699 H 0.2585 0.46931 0.86636 0.0
H1700 H 0.21411 0.46597 0.84004 0.0
H1701 H 0.21496 0.43796 0.84328 0.0
H1702 H 0.23215 0.4884 0.82338 0.0
H1703 H 0.21604 0.47472 0.88577 0.0
H1704 H 0.21779 0.46162 0.91656 0.0
H1705 H 0.25989 0.48513 0.92843 0.0
H1706 H 0.25851 0.49821 0.89757 0.0
H1707 H 0.21548 0.56814 0.84353 0.0
H1708 H 0.21482 0.54021 0.8396 0.0
H1709 H 0.25819 0.53655 0.86837 0.0
H1710 H 0.25879 0.56425 0.8726 0.0
H1711 H 0.23798 0.51747 0.88323 0.0
H1712 H 0.25441 0.53054 0.82008 0.0
H1713 H 0.25246 0.54354 0.78923 0.0
H1714 H 0.20932 0.52147 0.77895 0.0
H1715 H 0.21092 0.5085 0.80986 0.0
C1716 C 0.24945 0.44666 0.86314 0.0
C1717 C 0.23713 0.43754 0.85706 0.0
C1718 C 0.24898 0.46256 0.86116 0.0
C1719 C 0.23611 0.46976 0.85328 0.0
C1720 C 0.22412 0.46066 0.84625 0.0
C1721 C 0.22462 0.44467 0.84813 0.0
C1722 C 0.23493 0.48676 0.85355 0.0
C1723 C 0.23321 0.49478 0.83648 0.0
C1724 C 0.23642 0.4951 0.87063 0.0
C1725 C 0.23723 0.48735 0.88928 0.0
C1726 C 0.22572 0.47702 0.89489 0.0
C1727 C 0.22665 0.46961 0.91236 0.0
C1728 C 0.23896 0.47252 0.92443 0.0
C1729 C 0.25036 0.48288 0.91906 0.0
C1730 C 0.24951 0.49031 0.90159 0.0
C1731 C 0.22497 0.56139 0.84876 0.0
C1732 C 0.23715 0.56842 0.85846 0.0
C1733 C 0.2246 0.54542 0.84647 0.0
C1734 C 0.23647 0.53625 0.85369 0.0
C1735 C 0.24886 0.54335 0.86277 0.0
C1736 C 0.2492 0.55923 0.86513 0.0
C1737 C 0.23567 0.51921 0.85299 0.0
C1738 C 0.23689 0.51115 0.87009 0.0
C1739 C 0.23366 0.51091 0.83596 0.0
C1740 C 0.23271 0.51868 0.81737 0.0
C1741 C 0.24445 0.52856 0.81131 0.0
C1742 C 0.24342 0.5359 0.7938 0.0
C1743 C 0.23075 0.53337 0.78216 0.0
C1744 C 0.21911 0.52345 0.78799 0.0
C1745 C 0.22008 0.51609 0.8055 0.0
H1746 H 0.22998 0.53906 0.76861 0.0
H1747 H 0.23966 0.46677 0.93795 0.0
H1748 H 0.43827 0.21618 0.83806 0.0
H1749 H 0.46599 0.21563 0.83238 0.0
H1750 H 0.47089 0.25825 0.86269 0.0
H1751 H 0.44333 0.25898 0.86818 0.0
H1752 H 0.489 0.25798 0.83211 0.0
H1753 H 0.47767 0.2236 0.88398 0.0
H1754 H 0.46506 0.20147 0.89909 0.0
H1755 H 0.48512 0.1713 0.85797 0.0
H1756 H 0.49771 0.19329 0.84247 0.0
H1757 H 0.56356 0.25921 0.86946 0.0
H1758 H 0.53617 0.25848 0.86305 0.0
H1759 H 0.54178 0.2158 0.83303 0.0
H1760 H 0.56936 0.21636 0.83964 0.0
H1761 H 0.51851 0.21418 0.85791 0.0
H1762 H 0.53312 0.24876 0.80909 0.0
H1763 H 0.54604 0.27114 0.79502 0.0
H1764 H 0.52009 0.30124 0.83087 0.0
H1765 H 0.50717 0.27903 0.84537 0.0
C1766 C 0.44524 0.22553 0.84329 0.0
C1767 C 0.43859 0.23758 0.85367 0.0
C1768 C 0.46109 0.22516 0.84012 0.0
C1769 C 0.47057 0.23681 0.84731 0.0
C1770 C 0.46384 0.24913 0.857 0.0
C1771 C 0.44805 0.2495 0.86018 0.0
C1772 C 0.48755 0.23596 0.84567 0.0
C1773 C 0.49546 0.24843 0.83779 0.0
C1774 C 0.496 0.22331 0.85262 0.0
C1775 C 0.48846 0.2101 0.86194 0.0
C1776 C 0.47929 0.21226 0.87808 0.0
C1777 C 0.47216 0.19974 0.88672 0.0
C1778 C 0.47424 0.18499 0.87945 0.0
C1779 C 0.48349 0.18273 0.86355 0.0
C1780 C 0.49063 0.19521 0.85484 0.0
C1781 C 0.55905 0.24974 0.86128 0.0
C1782 C 0.56868 0.23784 0.85506 0.0
C1783 C 0.54335 0.24938 0.85754 0.0
C1784 C 0.53689 0.23717 0.84738 0.0
C1785 C 0.5465 0.22537 0.84084 0.0
C1786 C 0.56227 0.22574 0.84456 0.0
C1787 C 0.51999 0.23637 0.84473 0.0
C1788 C 0.51208 0.22361 0.85184 0.0
C1789 C 0.51155 0.24878 0.83714 0.0
C1790 C 0.51924 0.2622 0.8284 0.0
C1791 C 0.53024 0.26014 0.81407 0.0
C1792 C 0.53755 0.2728 0.806 0.0
C1793 C 0.5339 0.2876 0.81207 0.0
C1794 C 0.52291 0.28977 0.82619 0.0
C1795 C 0.51557 0.27714 0.83432 0.0
H1796 H 0.53958 0.29739 0.8058 0.0
H1797 H 0.46872 0.17532 0.88617 0.0
H1798 H 0.78962 0.4373 0.83628 0.0
H1799 H 0.78988 0.46505 0.83075 0.0
H1800 H 0.74847 0.46976 0.86358 0.0
H1801 H 0.74799 0.44219 0.86887 0.0
H1802 H 0.74741 0.48799 0.8335 0.0
H1803 H 0.78426 0.47658 0.88265 0.0
H1804 H 0.80711 0.46399 0.89597 0.0
H1805 H 0.83516 0.48431 0.85283 0.0
H1806 H 0.81242 0.49688 0.83912 0.0
H1807 H 0.74754 0.56244 0.87132 0.0
H1808 H 0.74823 0.53504 0.86488 0.0
H1809 H 0.78933 0.54096 0.83178 0.0
H1810 H 0.78883 0.56857 0.83841 0.0
H1811 H 0.79226 0.51756 0.85628 0.0
H1812 H 0.75528 0.53225 0.81028 0.0
H1813 H 0.73219 0.54516 0.79812 0.0
H1814 H 0.70407 0.51896 0.83603 0.0
H1815 H 0.72701 0.50603 0.84861 0.0
C1816 C 0.78046 0.44424 0.8421 0.0
C1817 C 0.76883 0.43752 0.85311 0.0
C1818 C 0.78067 0.46011 0.83901 0.0
C1819 C 0.7693 0.46955 0.84696 0.0
C1820 C 0.75737 0.46276 0.8573 0.0
C1821 C 0.75715 0.44695 0.86036 0.0
C1822 C 0.77004 0.48655 0.8454 0.0
C1823 C 0.75719 0.49446 0.83853 0.0
C1824 C 0.78297 0.49503 0.85148 0.0
C1825 C 0.79663 0.4875 0.85972 0.0
C1826 C 0.79529 0.47826 0.87592 0.0
C1827 C 0.80822 0.47115 0.88355 0.0
C1828 C 0.82257 0.4733 0.87521 0.0
C1829 C 0.82403 0.48262 0.85925 0.0
C1830 C 0.81113 0.48974 0.85154 0.0
C1831 C 0.75665 0.55799 0.86248 0.0
C1832 C 0.76813 0.56773 0.85536 0.0
C1833 C 0.75699 0.54228 0.85872 0.0
C1834 C 0.76873 0.53591 0.84765 0.0
C1835 C 0.78012 0.54562 0.84029 0.0
C1836 C 0.77978 0.5614 0.84403 0.0
C1837 C 0.76947 0.51902 0.8448 0.0
C1838 C 0.78258 0.51112 0.85087 0.0
C1839 C 0.75675 0.51055 0.83808 0.0
C1840 C 0.74289 0.51823 0.83046 0.0
C1841 C 0.74418 0.52931 0.81611 0.0
C1842 C 0.73112 0.53662 0.80913 0.0
C1843 C 0.71668 0.5329 0.81632 0.0
C1844 C 0.71527 0.52183 0.83047 0.0
C1845 C 0.7283 0.51449 0.83751 0.0
H1846 H 0.70658 0.53858 0.8109 0.0
H1847 H 0.83257 0.46779 0.88114 0.0
H1848 H 0.44234 0.25941 0.14173 0.0
H1849 H 0.47005 0.25854 0.14561 0.0
H1850 H 0.46632 0.21467 0.17323 0.0
H1851 H 0.43835 0.21552 0.16955 0.0
H1852 H 0.48869 0.23357 0.1897 0.0
H1853 H 0.4755 0.21508 0.12824 0.0
H1854 H 0.46261 0.2156 0.09726 0.0
H1855 H 0.48607 0.25728 0.08309 0.0
H1856 H 0.49894 0.25714 0.11411 0.0
H1857 H 0.56856 0.21619 0.1705 0.0
H1858 H 0.54063 0.21561 0.1744 0.0
H1859 H 0.53701 0.25845 0.14438 0.0
H1860 H 0.56471 0.25904 0.1403 0.0
H1861 H 0.51817 0.23731 0.12986 0.0
H1862 H 0.5307 0.25614 0.19206 0.0
H1863 H 0.54348 0.25546 0.22311 0.0
H1864 H 0.52154 0.21264 0.23578 0.0
H1865 H 0.50879 0.21297 0.20468 0.0
C1866 C 0.44734 0.24964 0.14885 0.0
C1867 C 0.43813 0.23745 0.15516 0.0
C1868 C 0.46322 0.24915 0.15103 0.0
C1869 C 0.47029 0.23642 0.15941 0.0
C1870 C 0.4611 0.22458 0.16665 0.0
C1871 C 0.44513 0.22507 0.16451 0.0
C1872 C 0.48727 0.2352 0.15938 0.0
C1873 C 0.49516 0.23415 0.17662 0.0
C1874 C 0.49572 0.23609 0.14232 0.0
C1875 C 0.48809 0.23617 0.12357 0.0
C1876 C 0.47783 0.22442 0.11857 0.0
C1877 C 0.47054 0.22464 0.101 0.0
C1878 C 0.47349 0.23649 0.08823 0.0
C1879 C 0.48378 0.24812 0.093 0.0
C1880 C 0.49109 0.24797 0.11057 0.0
C1881 C 0.56182 0.2256 0.165 0.0
C1882 C 0.56887 0.23762 0.155 0.0
C1883 C 0.54586 0.22526 0.16727 0.0
C1884 C 0.5367 0.23698 0.15965 0.0
C1885 C 0.54381 0.24924 0.15028 0.0
C1886 C 0.55969 0.24958 0.14801 0.0
C1887 C 0.51968 0.23612 0.16021 0.0
C1888 C 0.51175 0.23667 0.14298 0.0
C1889 C 0.51128 0.2347 0.17727 0.0
C1890 C 0.51893 0.23449 0.19596 0.0
C1891 C 0.52871 0.24651 0.2014 0.0
C1892 C 0.53592 0.2462 0.21902 0.0
C1893 C 0.53336 0.23399 0.23139 0.0
C1894 C 0.52354 0.22208 0.22618 0.0
C1895 C 0.51631 0.22233 0.20856 0.0
H1896 H 0.53895 0.23378 0.24503 0.0
H1897 H 0.46784 0.23664 0.07463 0.0
H1898 H 0.79137 0.56769 0.1702 0.0
H1899 H 0.79187 0.54 0.17617 0.0
H1900 H 0.75019 0.53467 0.14419 0.0
H1901 H 0.74951 0.56219 0.13838 0.0
H1902 H 0.74955 0.51711 0.1753 0.0
H1903 H 0.7853 0.52748 0.12448 0.0
H1904 H 0.80785 0.53978 0.10994 0.0
H1905 H 0.83684 0.52028 0.15261 0.0
H1906 H 0.81441 0.50801 0.16754 0.0
H1907 H 0.74878 0.44194 0.13987 0.0
H1908 H 0.74956 0.46944 0.14561 0.0
H1909 H 0.79157 0.46413 0.17695 0.0
H1910 H 0.79098 0.43642 0.17098 0.0
H1911 H 0.79387 0.48701 0.15181 0.0
H1912 H 0.75799 0.47335 0.19968 0.0
H1913 H 0.73521 0.46075 0.21322 0.0
H1914 H 0.70618 0.48619 0.17567 0.0
H1915 H 0.7288 0.49879 0.16171 0.0
C1916 C 0.78223 0.56063 0.16463 0.0
C1917 C 0.77044 0.56715 0.15373 0.0
C1918 C 0.78256 0.5448 0.16798 0.0
C1919 C 0.77115 0.53521 0.16045 0.0
C1920 C 0.75912 0.54181 0.15015 0.0
C1921 C 0.75878 0.55757 0.14678 0.0
C1922 C 0.7719 0.51826 0.16251 0.0
C1923 C 0.75922 0.51052 0.17012 0.0
C1924 C 0.78469 0.50965 0.15623 0.0
C1925 C 0.79816 0.517 0.14726 0.0
C1926 C 0.79647 0.52592 0.13085 0.0
C1927 C 0.80923 0.53287 0.12252 0.0
C1928 C 0.82376 0.53086 0.13038 0.0
C1929 C 0.82557 0.52186 0.14656 0.0
C1930 C 0.81284 0.5149 0.15496 0.0
C1931 C 0.75811 0.44655 0.1482 0.0
C1932 C 0.76982 0.43695 0.15497 0.0
C1933 C 0.7585 0.46231 0.15156 0.0
C1934 C 0.77053 0.46888 0.16191 0.0
C1935 C 0.78213 0.45932 0.16899 0.0
C1936 C 0.78175 0.44348 0.16563 0.0
C1937 C 0.77134 0.48582 0.16421 0.0
C1938 C 0.78432 0.49357 0.15738 0.0
C1939 C 0.75879 0.49445 0.17114 0.0
C1940 C 0.74512 0.48696 0.17958 0.0
C1941 C 0.74676 0.47619 0.19422 0.0
C1942 C 0.73387 0.46906 0.20198 0.0
C1943 C 0.71926 0.47265 0.19529 0.0
C1944 C 0.71751 0.48341 0.18084 0.0
C1945 C 0.73036 0.49058 0.17302 0.0
H1946 H 0.7093 0.46711 0.20131 0.0
H1947 H 0.83363 0.53624 0.12391 0.0
H1948 H 0.43751 0.78968 0.17032 0.0
H1949 H 0.46522 0.79053 0.17601 0.0
H1950 H 0.47035 0.74682 0.14823 0.0
H1951 H 0.44282 0.74584 0.14265 0.0
H1952 H 0.48808 0.74842 0.17945 0.0
H1953 H 0.47738 0.78014 0.12489 0.0
H1954 H 0.46497 0.8015 0.10799 0.0
H1955 H 0.48475 0.83363 0.14694 0.0
H1956 H 0.49712 0.81242 0.16422 0.0
H1957 H 0.56308 0.7449 0.14374 0.0
H1958 H 0.53559 0.74621 0.14934 0.0
H1959 H 0.54102 0.79033 0.17602 0.0
H1960 H 0.56873 0.78917 0.17023 0.0
H1961 H 0.51802 0.79075 0.15069 0.0
H1962 H 0.53189 0.75886 0.20241 0.0
H1963 H 0.54457 0.7373 0.21856 0.0
H1964 H 0.51908 0.70532 0.18486 0.0
H1965 H 0.5064 0.72669 0.16831 0.0
C1966 C 0.44453 0.78018 0.16563 0.0
C1967 C 0.43796 0.76773 0.15594 0.0
C1968 C 0.46037 0.78071 0.16882 0.0
C1969 C 0.4699 0.76881 0.16237 0.0
C1970 C 0.46325 0.75613 0.15335 0.0
C1971 C 0.44749 0.75562 0.1501 0.0
C1972 C 0.48686 0.7697 0.16416 0.0
C1973 C 0.49464 0.75765 0.17312 0.0
C1974 C 0.49542 0.78195 0.15636 0.0
C1975 C 0.48801 0.79469 0.14598 0.0
C1976 C 0.47897 0.79175 0.12994 0.0
C1977 C 0.47197 0.80383 0.12028 0.0
C1978 C 0.47403 0.81891 0.12643 0.0
C1979 C 0.48314 0.82194 0.14222 0.0
C1980 C 0.49015 0.8099 0.15195 0.0
C1981 C 0.5585 0.75483 0.151 0.0
C1982 C 0.56813 0.76693 0.15656 0.0
C1983 C 0.54274 0.75553 0.15428 0.0
C1984 C 0.53621 0.76829 0.1633 0.0
C1985 C 0.5458 0.78033 0.1691 0.0
C1986 C 0.56164 0.77963 0.16585 0.0
C1987 C 0.51928 0.76928 0.16561 0.0
C1988 C 0.51149 0.78166 0.15738 0.0
C1989 C 0.51071 0.75731 0.17406 0.0
C1990 C 0.51826 0.7444 0.18404 0.0
C1991 C 0.52906 0.74724 0.19835 0.0
C1992 C 0.53624 0.73504 0.20759 0.0
C1993 C 0.53265 0.71995 0.20272 0.0
C1994 C 0.52185 0.71702 0.18862 0.0
C1995 C 0.51465 0.72917 0.17932 0.0
H1996 H 0.53822 0.71053 0.20989 0.0
H1997 H 0.4686 0.82824 0.11892 0.0
H1998 H 0.21461 0.4372 0.16968 0.0
H1999 H 0.21379 0.46522 0.17291 0.0
H2000 H 0.25695 0.46867 0.14351 0.0
H2001 H 0.25778 0.4409 0.14006 0.0
H2002 H 0.23293 0.48772 0.18833 0.0
H2003 H 0.255 0.49736 0.11191 0.0
H2004 H 0.25459 0.48421 0.08103 0.0
H2005 H 0.21326 0.46078 0.09676 0.0
H2006 H 0.21329 0.47395 0.12761 0.0
H2007 H 0.2574 0.56337 0.13741 0.0
H2008 H 0.25678 0.53567 0.14154 0.0
H2009 H 0.21474 0.53956 0.17328 0.0
H2010 H 0.21536 0.56749 0.16935 0.0
H2011 H 0.23545 0.5167 0.12808 0.0
H2012 H 0.21265 0.50798 0.20379 0.0
H2013 H 0.21297 0.521 0.23477 0.0
H2014 H 0.25553 0.54277 0.22042 0.0
H2015 H 0.25555 0.52973 0.18949 0.0
C2016 C 0.22402 0.44393 0.16414 0.0
C2017 C 0.23617 0.43683 0.15442 0.0
C2018 C 0.22354 0.45993 0.16602 0.0
C2019 C 0.23518 0.46905 0.15816 0.0
C2020 C 0.24771 0.46189 0.1494 0.0
C2021 C 0.24817 0.44598 0.14747 0.0
C2022 C 0.23396 0.48604 0.15798 0.0
C2023 C 0.23324 0.49408 0.17516 0.0
C2024 C 0.23451 0.49434 0.14081 0.0
C2025 C 0.23424 0.48655 0.12214 0.0
C2026 C 0.24578 0.48946 0.10874 0.0
C2027 C 0.24562 0.48199 0.09125 0.0
C2028 C 0.23393 0.47163 0.08696 0.0
C2029 C 0.22234 0.46876 0.10013 0.0
C2030 C 0.22243 0.47621 0.11763 0.0
C2031 C 0.2481 0.5584 0.14549 0.0
C2032 C 0.23639 0.56767 0.15299 0.0
C2033 C 0.24775 0.54252 0.14779 0.0
C2034 C 0.23571 0.53549 0.15769 0.0
C2035 C 0.22422 0.54472 0.16574 0.0
C2036 C 0.22458 0.56069 0.16346 0.0
C2037 C 0.23486 0.51847 0.15844 0.0
C2038 C 0.23507 0.51039 0.14128 0.0
C2039 C 0.2338 0.51021 0.17563 0.0
C2040 C 0.23399 0.51802 0.19424 0.0
C2041 C 0.22209 0.51552 0.20728 0.0
C2042 C 0.22221 0.5229 0.22482 0.0
C2043 C 0.23423 0.53275 0.22953 0.0
C2044 C 0.24619 0.5352 0.21673 0.0
C2045 C 0.24612 0.52783 0.19917 0.0
H2046 H 0.23431 0.53846 0.24312 0.0
H2047 H 0.23384 0.46585 0.07342 0.0
H2048 H 0.10059 0.27649 0.43153 0.0
H2049 H 0.1008 0.28185 0.46529 0.0
H2050 H 0.13841 0.31328 0.45757 0.0
H2051 H 0.13841 0.30781 0.42353 0.0
H2052 H 0.14368 0.29394 0.48662 0.0
H2053 H 0.10288 0.32683 0.46848 0.0
H2054 H 0.07893 0.33422 0.4525 0.0
H2055 H 0.05414 0.30068 0.48469 0.0
H2056 H 0.07798 0.29292 0.50068 0.0
H2057 H 0.13823 0.30946 0.58589 0.0
H2058 H 0.13833 0.31406 0.5517 0.0
H2059 H 0.1009 0.28228 0.54503 0.0
H2060 H 0.10058 0.27777 0.579 0.0
H2061 H 0.09685 0.307 0.52303 0.0
H2062 H 0.13815 0.27157 0.53694 0.0
H2063 H 0.16208 0.26352 0.55255 0.0
H2064 H 0.18578 0.30176 0.52798 0.0
H2065 H 0.16192 0.31015 0.51242 0.0
C2066 C 0.10885 0.28467 0.4369 0.0
C2067 C 0.1195 0.29172 0.42476 0.0
C2068 C 0.10888 0.28779 0.45626 0.0
C2069 C 0.1195 0.29811 0.46398 0.0
C2070 C 0.13006 0.30533 0.45192 0.0
C2071 C 0.13001 0.30223 0.43246 0.0
C2072 C 0.11996 0.30058 0.4848 0.0
C2073 C 0.13353 0.29716 0.49455 0.0
C2074 C 0.10667 0.30455 0.49521 0.0
C2075 C 0.09226 0.30923 0.48571 0.0
C2076 C 0.09235 0.32095 0.47206 0.0
C2077 C 0.07878 0.32522 0.46302 0.0
C2078 C 0.06502 0.31791 0.46756 0.0
C2079 C 0.0648 0.30634 0.48119 0.0
C2080 C 0.07834 0.30201 0.49027 0.0
C2081 C 0.12991 0.30358 0.57717 0.0
C2082 C 0.11947 0.29316 0.58522 0.0
C2083 C 0.13003 0.30618 0.55761 0.0
C2084 C 0.11973 0.29838 0.54575 0.0
C2085 C 0.10895 0.28843 0.55386 0.0
C2086 C 0.10884 0.28582 0.57333 0.0
C2087 C 0.12043 0.29996 0.52482 0.0
C2088 C 0.10708 0.30411 0.51506 0.0
C2089 C 0.1339 0.29664 0.5144 0.0
C2090 C 0.14823 0.29159 0.52372 0.0
C2091 C 0.14844 0.27833 0.535 0.0
C2092 C 0.16199 0.27369 0.54381 0.0
C2093 C 0.17543 0.28215 0.54131 0.0
C2094 C 0.17535 0.29524 0.52994 0.0
C2095 C 0.16183 0.29994 0.52112 0.0
H2096 H 0.18591 0.27854 0.54814 0.0
H2097 H 0.05453 0.32123 0.46053 0.0
H2098 H 0.72477 0.09964 0.58102 0.0
H2099 H 0.72159 0.10033 0.54684 0.0
H2100 H 0.69141 0.13921 0.55209 0.0
H2101 H 0.69441 0.13853 0.58659 0.0
H2102 H 0.68197 0.11863 0.52391 0.0
H2103 H 0.72724 0.14587 0.54103 0.0
H2104 H 0.75184 0.14999 0.55733 0.0
H2105 H 0.77127 0.11144 0.52815 0.0
H2106 H 0.7467 0.10694 0.51188 0.0
H2107 H 0.69497 0.13839 0.42533 0.0
H2108 H 0.6915 0.13868 0.45976 0.0
H2109 H 0.72301 0.10087 0.46499 0.0
H2110 H 0.72663 0.10057 0.43086 0.0
H2111 H 0.7306 0.12403 0.48813 0.0
H2112 H 0.6844 0.0964 0.47197 0.0
H2113 H 0.65964 0.09278 0.45585 0.0
H2114 H 0.64189 0.13312 0.48288 0.0
H2115 H 0.66664 0.1371 0.49898 0.0
C2116 C 0.71729 0.10825 0.57501 0.0
C2117 C 0.70999 0.11915 0.58658 0.0
C2118 C 0.71551 0.10863 0.55542 0.0
C2119 C 0.7065 0.11999 0.54688 0.0
C2120 C 0.69848 0.13039 0.55839 0.0
C2121 C 0.70022 0.12999 0.5781 0.0
C2122 C 0.70641 0.12148 0.52595 0.0
C2123 C 0.69256 0.12005 0.51605 0.0
C2124 C 0.72023 0.12326 0.51571 0.0
C2125 C 0.73509 0.126 0.52534 0.0
C2126 C 0.73672 0.1382 0.53818 0.0
C2127 C 0.75067 0.14062 0.54741 0.0
C2128 C 0.7631 0.13096 0.5438 0.0
C2129 C 0.76163 0.1189 0.53093 0.0
C2130 C 0.7477 0.11643 0.52169 0.0
C2131 C 0.70098 0.13 0.4338 0.0
C2132 C 0.71116 0.11953 0.42531 0.0
C2133 C 0.69897 0.13017 0.45348 0.0
C2134 C 0.70702 0.11981 0.46498 0.0
C2135 C 0.71674 0.10903 0.45644 0.0
C2136 C 0.71877 0.10886 0.43687 0.0
C2137 C 0.70622 0.12067 0.48596 0.0
C2138 C 0.71997 0.12269 0.49592 0.0
C2139 C 0.69229 0.11954 0.49615 0.0
C2140 C 0.67742 0.11714 0.4865 0.0
C2141 C 0.67526 0.10457 0.47434 0.0
C2142 C 0.66122 0.10244 0.46524 0.0
C2143 C 0.64922 0.11274 0.4683 0.0
C2144 C 0.65121 0.12517 0.48051 0.0
C2145 C 0.66524 0.12736 0.48963 0.0
H2146 H 0.63836 0.11107 0.46124 0.0
H2147 H 0.77389 0.13285 0.55096 0.0
H2148 H 0.86725 0.69668 0.42447 0.0
H2149 H 0.86761 0.69177 0.4586 0.0
H2150 H 0.90303 0.72575 0.46548 0.0
H2151 H 0.90294 0.73054 0.43158 0.0
H2152 H 0.90887 0.70135 0.48695 0.0
H2153 H 0.86493 0.73376 0.47433 0.0
H2154 H 0.84035 0.74025 0.45918 0.0
H2155 H 0.81975 0.69999 0.48308 0.0
H2156 H 0.84429 0.69317 0.49819 0.0
H2157 H 0.90347 0.72918 0.57983 0.0
H2158 H 0.90354 0.72476 0.54585 0.0
H2159 H 0.86823 0.69059 0.55229 0.0
H2160 H 0.86793 0.69511 0.58651 0.0
H2161 H 0.86147 0.71015 0.52416 0.0
H2162 H 0.90481 0.68003 0.54082 0.0
H2163 H 0.92939 0.67417 0.55633 0.0
H2164 H 0.95125 0.71026 0.52514 0.0
H2165 H 0.92676 0.7165 0.50963 0.0
C2166 C 0.87522 0.703 0.43323 0.0
C2167 C 0.88499 0.71408 0.42525 0.0
C2168 C 0.87536 0.70023 0.45276 0.0
C2169 C 0.88523 0.70852 0.46466 0.0
C2170 C 0.89532 0.7192 0.45662 0.0
C2171 C 0.89519 0.72197 0.43718 0.0
C2172 C 0.88481 0.70662 0.48557 0.0
C2173 C 0.89852 0.70333 0.4951 0.0
C2174 C 0.87122 0.70874 0.49622 0.0
C2175 C 0.85648 0.71286 0.48718 0.0
C2176 C 0.85519 0.72623 0.47623 0.0
C2177 C 0.84126 0.72998 0.46767 0.0
C2178 C 0.82851 0.72051 0.47012 0.0
C2179 C 0.82965 0.7073 0.48117 0.0
C2180 C 0.84356 0.70348 0.48973 0.0
C2181 C 0.8958 0.72059 0.57412 0.0
C2182 C 0.88568 0.7125 0.58597 0.0
C2183 C 0.89592 0.71802 0.55464 0.0
C2184 C 0.88601 0.70721 0.54649 0.0
C2185 C 0.87602 0.69895 0.55826 0.0
C2186 C 0.8759 0.70151 0.57783 0.0
C2187 C 0.88563 0.70528 0.52558 0.0
C2188 C 0.87177 0.70787 0.51604 0.0
C2189 C 0.89911 0.70255 0.51492 0.0
C2190 C 0.9139 0.69879 0.52414 0.0
C2191 C 0.91483 0.68679 0.53736 0.0
C2192 C 0.92876 0.68339 0.54614 0.0
C2193 C 0.94187 0.69185 0.54175 0.0
C2194 C 0.94109 0.70372 0.52853 0.0
C2195 C 0.92719 0.70717 0.51972 0.0
H2196 H 0.95263 0.68921 0.54856 0.0
H2197 H 0.81773 0.72344 0.46349 0.0
H2198 H 0.28604 0.90816 0.58078 0.0
H2199 H 0.29002 0.9071 0.5466 0.0
H2200 H 0.3062 0.8606 0.55141 0.0
H2201 H 0.30243 0.86161 0.58577 0.0
H2202 H 0.31536 0.90024 0.52227 0.0
H2203 H 0.28752 0.8413 0.51459 0.0
H2204 H 0.27011 0.82404 0.53203 0.0
H2205 H 0.24819 0.86284 0.55783 0.0
H2206 H 0.26532 0.8803 0.54035 0.0
H2207 H 0.31324 0.87571 0.42333 0.0
H2208 H 0.31747 0.87502 0.45771 0.0
H2209 H 0.27155 0.89156 0.46695 0.0
H2210 H 0.26733 0.8926 0.43292 0.0
H2211 H 0.27994 0.86496 0.4889 0.0
H2212 H 0.29787 0.91582 0.47192 0.0
H2213 H 0.31425 0.93399 0.45447 0.0
H2214 H 0.35441 0.91294 0.47789 0.0
H2215 H 0.33825 0.89449 0.49528 0.0
C2216 C 0.2907 0.89778 0.57463 0.0
C2217 C 0.29382 0.88493 0.58598 0.0
C2218 C 0.29305 0.89724 0.5551 0.0
C2219 C 0.29832 0.88376 0.54647 0.0
C2220 C 0.3021 0.87111 0.55782 0.0
C2221 C 0.29996 0.87172 0.57744 0.0
C2222 C 0.29835 0.88257 0.52554 0.0
C2223 C 0.30778 0.89239 0.51496 0.0
C2224 C 0.28835 0.87242 0.516 0.0
C2225 C 0.27783 0.86207 0.52636 0.0
C2226 C 0.27895 0.84613 0.52396 0.0
C2227 C 0.26914 0.83632 0.53384 0.0
C2228 C 0.25809 0.84234 0.54609 0.0
C2229 C 0.25679 0.85819 0.5484 0.0
C2230 C 0.26656 0.86804 0.53853 0.0
C2231 C 0.30409 0.87926 0.43271 0.0
C2232 C 0.28997 0.88426 0.42537 0.0
C2233 C 0.30653 0.87886 0.45231 0.0
C2234 C 0.29479 0.88319 0.46483 0.0
C2235 C 0.28072 0.88812 0.45752 0.0
C2236 C 0.27838 0.88879 0.43804 0.0
C2237 C 0.29694 0.88264 0.48561 0.0
C2238 C 0.28784 0.87252 0.49617 0.0
C2239 C 0.30717 0.89257 0.4951 0.0
C2240 C 0.31687 0.90366 0.48469 0.0
C2241 C 0.3102 0.91497 0.47319 0.0
C2242 C 0.31944 0.92534 0.46335 0.0
C2243 C 0.33537 0.92459 0.46502 0.0
C2244 C 0.34208 0.91349 0.47658 0.0
C2245 C 0.33288 0.90308 0.48643 0.0
H2246 H 0.3425 0.93263 0.4574 0.0
H2247 H 0.25051 0.83473 0.55374 0.0
H2248 H 0.09771 0.72489 0.43016 0.0
H2249 H 0.09807 0.72203 0.46441 0.0
H2250 H 0.13892 0.69443 0.46041 0.0
H2251 H 0.1385 0.69703 0.42586 0.0
H2252 H 0.11934 0.68393 0.48838 0.0
H2253 H 0.14241 0.73144 0.47075 0.0
H2254 H 0.1443 0.75623 0.45421 0.0
H2255 H 0.10401 0.7722 0.48301 0.0
H2256 H 0.10175 0.74741 0.49953 0.0
H2257 H 0.13832 0.69946 0.58652 0.0
H2258 H 0.13859 0.69567 0.55215 0.0
H2259 H 0.09821 0.72382 0.54703 0.0
H2260 H 0.09793 0.72778 0.5811 0.0
H2261 H 0.12032 0.73315 0.5235 0.0
H2262 H 0.09707 0.68483 0.54049 0.0
H2263 H 0.0957 0.65996 0.55694 0.0
H2264 H 0.1373 0.64559 0.52973 0.0
H2265 H 0.13902 0.67047 0.51331 0.0
C2266 C 0.10669 0.71804 0.43648 0.0
C2267 C 0.11819 0.71135 0.42525 0.0
C2268 C 0.10689 0.71644 0.4561 0.0
C2269 C 0.1187 0.70829 0.46502 0.0
C2270 C 0.12974 0.70084 0.45383 0.0
C2271 C 0.12949 0.70235 0.43409 0.0
C2272 C 0.11996 0.70852 0.48598 0.0
C2273 C 0.11977 0.69467 0.49608 0.0
C2274 C 0.12045 0.72254 0.49605 0.0
C2275 C 0.12185 0.73752 0.48627 0.0
C2276 C 0.13389 0.7402 0.47346 0.0
C2277 C 0.13504 0.75426 0.4641 0.0
C2278 C 0.12426 0.76577 0.46753 0.0
C2279 C 0.11234 0.76327 0.48036 0.0
C2280 C 0.11113 0.74922 0.48974 0.0
C2281 C 0.12937 0.70466 0.57809 0.0
C2282 C 0.11817 0.71402 0.58659 0.0
C2283 C 0.12952 0.70245 0.55845 0.0
C2284 C 0.11842 0.70948 0.54699 0.0
C2285 C 0.10694 0.71835 0.55555 0.0
C2286 C 0.1068 0.72058 0.57508 0.0
C2287 C 0.1192 0.70859 0.526 0.0
C2288 C 0.11992 0.72238 0.51585 0.0
C2289 C 0.1193 0.69452 0.51599 0.0
C2290 C 0.11826 0.67957 0.52584 0.0
C2291 C 0.106 0.67642 0.53815 0.0
C2292 C 0.10514 0.66231 0.54744 0.0
C2293 C 0.11643 0.65122 0.54443 0.0
C2294 C 0.12857 0.6542 0.53208 0.0
C2295 C 0.12949 0.6683 0.52276 0.0
H2296 H 0.11575 0.64031 0.55163 0.0
H2297 H 0.12517 0.77664 0.46026 0.0
H2298 H 0.27806 0.10044 0.43099 0.0
H2299 H 0.28132 0.10163 0.46512 0.0
H2300 H 0.31399 0.13829 0.45874 0.0
H2301 H 0.31083 0.13719 0.42426 0.0
H2302 H 0.32205 0.11664 0.48741 0.0
H2303 H 0.27967 0.14811 0.47001 0.0
H2304 H 0.25557 0.15449 0.4537 0.0
H2305 H 0.23248 0.11833 0.48339 0.0
H2306 H 0.25652 0.11156 0.49966 0.0
H2307 H 0.31076 0.13755 0.58621 0.0
H2308 H 0.31424 0.13784 0.55177 0.0
H2309 H 0.27978 0.10276 0.54604 0.0
H2310 H 0.27621 0.1024 0.58016 0.0
H2311 H 0.27423 0.12705 0.5232 0.0
H2312 H 0.31726 0.09475 0.53918 0.0
H2313 H 0.34149 0.08845 0.55527 0.0
H2314 H 0.36342 0.12679 0.52855 0.0
H2315 H 0.33925 0.13345 0.5125 0.0
C2316 C 0.28609 0.10868 0.43673 0.0
C2317 C 0.29405 0.11885 0.42483 0.0
C2318 C 0.28792 0.10933 0.4563 0.0
C2319 C 0.29772 0.1202 0.46449 0.0
C2320 C 0.30634 0.12985 0.45269 0.0
C2321 C 0.30449 0.12922 0.433 0.0
C2322 C 0.29803 0.12197 0.48537 0.0
C2323 C 0.31167 0.11918 0.49527 0.0
C2324 C 0.28446 0.12517 0.49561 0.0
C2325 C 0.26993 0.12926 0.48594 0.0
C2326 C 0.26948 0.14144 0.47295 0.0
C2327 C 0.25583 0.14514 0.46373 0.0
C2328 C 0.24251 0.1368 0.46748 0.0
C2329 C 0.24281 0.12477 0.48049 0.0
C2330 C 0.25645 0.12101 0.48973 0.0
C2331 C 0.30408 0.12976 0.57763 0.0
C2332 C 0.29314 0.12002 0.58599 0.0
C2333 C 0.3061 0.12993 0.55794 0.0
C2334 C 0.29724 0.12035 0.54632 0.0
C2335 C 0.28668 0.11032 0.55471 0.0
C2336 C 0.28469 0.11011 0.57428 0.0
C2337 C 0.29814 0.12126 0.52536 0.0
C2338 C 0.28467 0.12465 0.5154 0.0
C2339 C 0.31188 0.11869 0.51517 0.0
C2340 C 0.3264 0.11471 0.52483 0.0
C2341 C 0.32721 0.10193 0.53688 0.0
C2342 C 0.34094 0.09827 0.54596 0.0
C2343 C 0.35397 0.10724 0.54299 0.0
C2344 C 0.35331 0.11987 0.53088 0.0
C2345 C 0.3396 0.12358 0.52178 0.0
H2346 H 0.3646 0.10439 0.55002 0.0
H2347 H 0.23194 0.13968 0.46033 0.0
H2348 H 0.90348 0.27676 0.42905 0.0
H2349 H 0.90263 0.2798 0.46324 0.0
H2350 H 0.86639 0.31306 0.45779 0.0
H2351 H 0.86716 0.31012 0.42326 0.0
H2352 H 0.88836 0.32061 0.48619 0.0
H2353 H 0.85623 0.27874 0.4687 0.0
H2354 H 0.84947 0.25484 0.45209 0.0
H2355 H 0.88553 0.23108 0.48107 0.0
H2356 H 0.89266 0.25492 0.49764 0.0
H2357 H 0.86841 0.30963 0.58508 0.0
H2358 H 0.86779 0.31303 0.55066 0.0
H2359 H 0.90188 0.27764 0.54428 0.0
H2360 H 0.90253 0.27411 0.5784 0.0
H2361 H 0.8776 0.27273 0.5216 0.0
H2362 H 0.91062 0.31527 0.53756 0.0
H2363 H 0.91737 0.33934 0.55382 0.0
H2364 H 0.87907 0.36191 0.52792 0.0
H2365 H 0.87198 0.3379 0.5117 0.0
C2366 C 0.89541 0.28487 0.43501 0.0
C2367 C 0.88526 0.29307 0.42337 0.0
C2368 C 0.89494 0.28658 0.45461 0.0
C2369 C 0.88429 0.29647 0.46307 0.0
C2370 C 0.87467 0.30532 0.45153 0.0
C2371 C 0.87511 0.3036 0.43181 0.0
C2372 C 0.8827 0.29667 0.48397 0.0
C2373 C 0.88575 0.31023 0.49397 0.0
C2374 C 0.8794 0.28308 0.49409 0.0
C2375 C 0.87505 0.26866 0.4843 0.0
C2376 C 0.86279 0.26845 0.47143 0.0
C2377 C 0.85888 0.25491 0.46204 0.0
C2378 C 0.86709 0.24146 0.46549 0.0
C2379 C 0.87919 0.24152 0.4784 0.0
C2380 C 0.88316 0.25504 0.48781 0.0
C2381 C 0.87592 0.30271 0.57636 0.0
C2382 C 0.88546 0.29153 0.58454 0.0
C2383 C 0.87556 0.30469 0.55668 0.0
C2384 C 0.88477 0.29556 0.54488 0.0
C2385 C 0.89461 0.28475 0.55308 0.0
C2386 C 0.89498 0.28278 0.57265 0.0
C2387 C 0.88374 0.29656 0.52394 0.0
C2388 C 0.88009 0.28318 0.51389 0.0
C2389 C 0.88641 0.31033 0.51386 0.0
C2390 C 0.89066 0.32475 0.5236 0.0
C2391 C 0.90356 0.32533 0.53547 0.0
C2392 C 0.90746 0.33897 0.54465 0.0
C2393 C 0.89862 0.35213 0.54196 0.0
C2394 C 0.88589 0.3517 0.53003 0.0
C2395 C 0.88193 0.33808 0.52083 0.0
H2396 H 0.90167 0.36268 0.54907 0.0
H2397 H 0.86404 0.23099 0.4582 0.0
H2398 H 0.69333 0.8687 0.58522 0.0
H2399 H 0.68833 0.86915 0.55113 0.0
H2400 H 0.72111 0.90572 0.54446 0.0
H2401 H 0.72603 0.90548 0.57835 0.0
H2402 H 0.69616 0.91062 0.52287 0.0
H2403 H 0.73079 0.86843 0.53573 0.0
H2404 H 0.73848 0.84421 0.55096 0.0
H2405 H 0.69947 0.82153 0.52685 0.0
H2406 H 0.69145 0.84569 0.51167 0.0
H2407 H 0.7254 0.9066 0.43057 0.0
H2408 H 0.72033 0.90657 0.46441 0.0
H2409 H 0.68819 0.8695 0.45732 0.0
H2410 H 0.69336 0.86931 0.42323 0.0
H2411 H 0.70773 0.86375 0.48577 0.0
H2412 H 0.67549 0.90534 0.4687 0.0
H2413 H 0.66834 0.92955 0.45311 0.0
H2414 H 0.70278 0.95348 0.48477 0.0
H2415 H 0.7103 0.92937 0.50036 0.0
C2416 C 0.69934 0.87695 0.57652 0.0
C2417 C 0.71017 0.88698 0.58453 0.0
C2418 C 0.69651 0.87715 0.55702 0.0
C2419 C 0.70448 0.88735 0.54519 0.0
C2420 C 0.71483 0.89775 0.55328 0.0
C2421 C 0.71768 0.89754 0.57269 0.0
C2422 C 0.70269 0.88687 0.52429 0.0
C2423 C 0.69873 0.90039 0.51474 0.0
C2424 C 0.70559 0.8734 0.51368 0.0
C2425 C 0.71042 0.85889 0.52277 0.0
C2426 C 0.72379 0.8583 0.53381 0.0
C2427 C 0.72822 0.84458 0.5424 0.0
C2428 C 0.71944 0.83135 0.53993 0.0
C2429 C 0.70624 0.8318 0.5288 0.0
C2430 C 0.70175 0.84549 0.52019 0.0
C2431 C 0.71711 0.89853 0.4361 0.0
C2432 C 0.7098 0.88794 0.42412 0.0
C2433 C 0.71416 0.89859 0.4555 0.0
C2434 C 0.70375 0.88814 0.46343 0.0
C2435 C 0.69622 0.8777 0.45151 0.0
C2436 C 0.69915 0.87765 0.43202 0.0
C2437 C 0.70158 0.88763 0.48429 0.0
C2438 C 0.70483 0.87392 0.49386 0.0
C2439 C 0.69804 0.90094 0.4949 0.0
C2440 C 0.69352 0.91551 0.48562 0.0
C2441 C 0.68162 0.91574 0.47225 0.0
C2442 C 0.67749 0.92946 0.46342 0.0
C2443 C 0.68512 0.94304 0.46793 0.0
C2444 C 0.69688 0.94295 0.4813 0.0
C2445 C 0.70106 0.92926 0.49015 0.0
H2446 H 0.6819 0.95365 0.46107 0.0
H2447 H 0.72289 0.82074 0.54659 0.0
H2448 H 0.61766 0.76438 0.07903 0.0
H2449 H 0.61826 0.7688 0.04511 0.0
H2450 H 0.62256 0.81747 0.05481 0.0
H2451 H 0.62298 0.81289 0.08904 0.0
H2452 H 0.601 0.78109 0.02247 0.0
H2453 H 0.63923 0.83517 0.01723 0.0
H2454 H 0.6607 0.84737 0.03417 0.0
H2455 H 0.67452 0.80362 0.05601 0.0
H2456 H 0.65325 0.79114 0.03903 0.0
H2457 H 0.59743 0.79983 0.92676 0.0
H2458 H 0.59677 0.80323 0.9611 0.0
H2459 H 0.64561 0.79557 0.96345 0.0
H2460 H 0.64638 0.79355 0.92896 0.0
H2461 H 0.63968 0.81327 0.98993 0.0
H2462 H 0.61647 0.76599 0.97061 0.0
H2463 H 0.59837 0.74945 0.95329 0.0
H2464 H 0.56048 0.77189 0.98043 0.0
H2465 H 0.57836 0.78869 0.99774 0.0
C2466 C 0.61877 0.77604 0.07396 0.0
C2467 C 0.62027 0.78829 0.0867 0.0
C2468 C 0.61907 0.77858 0.0545 0.0
C2469 C 0.62054 0.79348 0.0472 0.0
C2470 C 0.62176 0.80582 0.05995 0.0
C2471 C 0.62189 0.80322 0.07953 0.0
C2472 C 0.62057 0.79583 0.02627 0.0
C2473 C 0.60948 0.78816 0.01543 0.0
C2474 C 0.63168 0.80489 0.01684 0.0
C2475 C 0.64453 0.81227 0.02706 0.0
C2476 C 0.64687 0.82816 0.02563 0.0
C2477 C 0.659 0.83512 0.03524 0.0
C2478 C 0.66893 0.82629 0.04622 0.0
C2479 C 0.66678 0.81046 0.04757 0.0
C2480 C 0.65468 0.80344 0.03797 0.0
C2481 C 0.60804 0.79926 0.93464 0.0
C2482 C 0.62194 0.79639 0.92531 0.0
C2483 C 0.60766 0.80104 0.95429 0.0
C2484 C 0.62106 0.79913 0.96509 0.0
C2485 C 0.63508 0.79704 0.95559 0.0
C2486 C 0.63553 0.79586 0.93586 0.0
C2487 C 0.62036 0.7982 0.98618 0.0
C2488 C 0.63119 0.80625 0.99703 0.0
C2489 C 0.60952 0.78882 0.99562 0.0
C2490 C 0.59874 0.7787 0.9853 0.0
C2491 C 0.60427 0.76745 0.97279 0.0
C2492 C 0.59406 0.75802 0.96299 0.0
C2493 C 0.57828 0.75965 0.96571 0.0
C2494 C 0.5727 0.77067 0.9783 0.0
C2495 C 0.58286 0.78014 0.98812 0.0
H2496 H 0.57039 0.75234 0.95811 0.0
H2497 H 0.67831 0.8317 0.05365 0.0
H2498 H 0.19586 0.64116 0.92476 0.0
H2499 H 0.19055 0.6414 0.95883 0.0
H2500 H 0.21923 0.6016 0.966 0.0
H2501 H 0.22445 0.60117 0.93217 0.0
H2502 H 0.19369 0.59948 0.9874 0.0
H2503 H 0.23279 0.63758 0.9745 0.0
H2504 H 0.24316 0.66076 0.95921 0.0
H2505 H 0.20675 0.68766 0.98307 0.0
H2506 H 0.19605 0.66457 0.99831 0.0
H2507 H 0.22375 0.60054 0.07925 0.0
H2508 H 0.21855 0.60116 0.04546 0.0
H2509 H 0.18995 0.64099 0.05309 0.0
H2510 H 0.19522 0.64053 0.08716 0.0
H2511 H 0.21023 0.64487 0.02435 0.0
H2512 H 0.17373 0.60705 0.04169 0.0
H2513 H 0.16404 0.58377 0.05739 0.0
H2514 H 0.19564 0.55621 0.02558 0.0
H2515 H 0.20569 0.57934 0.00987 0.0
C2516 C 0.20088 0.63235 0.93357 0.0
C2517 C 0.21068 0.62122 0.92572 0.0
C2518 C 0.19789 0.63255 0.95305 0.0
C2519 C 0.20463 0.62161 0.96501 0.0
C2520 C 0.21389 0.61015 0.95708 0.0
C2521 C 0.21692 0.60998 0.9377 0.0
C2522 C 0.20277 0.62237 0.9859 0.0
C2523 C 0.19733 0.60938 0.99549 0.0
C2524 C 0.20709 0.63547 0.99646 0.0
C2525 C 0.21352 0.64933 0.98733 0.0
C2526 C 0.22693 0.64841 0.97635 0.0
C2527 C 0.23288 0.66154 0.96772 0.0
C2528 C 0.22559 0.67566 0.97011 0.0
C2529 C 0.21236 0.6767 0.98119 0.0
C2530 C 0.20635 0.6636 0.98983 0.0
C2531 C 0.21621 0.60937 0.07384 0.0
C2532 C 0.20992 0.62051 0.08596 0.0
C2533 C 0.21318 0.60965 0.05448 0.0
C2534 C 0.20373 0.62103 0.04672 0.0
C2535 C 0.19722 0.63206 0.05878 0.0
C2536 C 0.2002 0.63174 0.07825 0.0
C2537 C 0.20154 0.6218 0.02589 0.0
C2538 C 0.20625 0.63507 0.01629 0.0
C2539 C 0.19658 0.60895 0.01533 0.0
C2540 C 0.19053 0.59496 0.02468 0.0
C2541 C 0.17869 0.59604 0.03813 0.0
C2542 C 0.17312 0.58286 0.04702 0.0
C2543 C 0.17923 0.56853 0.0425 0.0
C2544 C 0.19091 0.56733 0.02906 0.0
C2545 C 0.19654 0.58047 0.02014 0.0
H2546 H 0.1749 0.55834 0.0494 0.0
H2547 H 0.23022 0.68581 0.96343 0.0
H2548 H 0.3669 0.19842 0.08515 0.0
H2549 H 0.36671 0.19531 0.05068 0.0
H2550 H 0.40566 0.22548 0.04615 0.0
H2551 H 0.40583 0.22878 0.08033 0.0
H2552 H 0.38337 0.23403 0.02268 0.0
H2553 H 0.40862 0.18653 0.03886 0.0
H2554 H 0.41102 0.16157 0.05488 0.0
H2555 H 0.3701 0.14576 0.02748 0.0
H2556 H 0.36736 0.17072 0.01148 0.0
H2557 H 0.40732 0.22724 0.92944 0.0
H2558 H 0.40659 0.22419 0.96365 0.0
H2559 H 0.36658 0.19551 0.9588 0.0
H2560 H 0.36731 0.19836 0.92428 0.0
H2561 H 0.38657 0.18527 0.98676 0.0
H2562 H 0.36167 0.23195 0.96971 0.0
H2563 H 0.35888 0.2568 0.9535 0.0
H2564 H 0.39825 0.27414 0.98285 0.0
H2565 H 0.40142 0.24931 0.99903 0.0
C2566 C 0.37555 0.20422 0.07682 0.0
C2567 C 0.38632 0.21393 0.08554 0.0
C2568 C 0.37544 0.20241 0.05712 0.0
C2569 C 0.38617 0.21017 0.0458 0.0
C2570 C 0.39721 0.21945 0.05455 0.0
C2571 C 0.3973 0.22129 0.07415 0.0
C2572 C 0.3855 0.2095 0.02479 0.0
C2573 C 0.38424 0.22336 0.01486 0.0
C2574 C 0.38604 0.19555 0.01454 0.0
C2575 C 0.38769 0.18055 0.02414 0.0
C2576 C 0.40006 0.17778 0.03638 0.0
C2577 C 0.4015 0.16362 0.04543 0.0
C2578 C 0.39069 0.1521 0.04225 0.0
C2579 C 0.37845 0.1547 0.02996 0.0
C2580 C 0.37696 0.16885 0.02088 0.0
C2581 C 0.39844 0.22012 0.93556 0.0
C2582 C 0.38726 0.2132 0.92409 0.0
C2583 C 0.39803 0.21841 0.95516 0.0
C2584 C 0.38636 0.20987 0.96382 0.0
C2585 C 0.37565 0.20222 0.95241 0.0
C2586 C 0.37608 0.20388 0.93269 0.0
C2587 C 0.38492 0.20983 0.98477 0.0
C2588 C 0.38564 0.1959 0.99464 0.0
C2589 C 0.3838 0.22371 0.99505 0.0
C2590 C 0.38185 0.23872 0.98547 0.0
C2591 C 0.3698 0.24103 0.97261 0.0
C2592 C 0.36814 0.25511 0.96344 0.0
C2593 C 0.3784 0.26703 0.96711 0.0
C2594 C 0.39032 0.26489 0.98001 0.0
C2595 C 0.39204 0.25082 0.9892 0.0
H2596 H 0.37709 0.27792 0.95999 0.0
H2597 H 0.39182 0.14115 0.04927 0.0
H2598 H 0.78201 0.40734 0.07966 0.0
H2599 H 0.78548 0.40731 0.04548 0.0
H2600 H 0.81183 0.36563 0.04926 0.0
H2601 H 0.80863 0.36571 0.08374 0.0
H2602 H 0.82339 0.38524 0.02203 0.0
H2603 H 0.77487 0.36339 0.038 0.0
H2604 H 0.74973 0.36214 0.05387 0.0
H2605 H 0.73561 0.4032 0.02539 0.0
H2606 H 0.76075 0.40482 0.00956 0.0
H2607 H 0.80941 0.367 0.92349 0.0
H2608 H 0.81271 0.36683 0.95791 0.0
H2609 H 0.78481 0.40746 0.96238 0.0
H2610 H 0.78127 0.40757 0.92823 0.0
H2611 H 0.77486 0.3859 0.98564 0.0
H2612 H 0.82408 0.40783 0.97009 0.0
H2613 H 0.84928 0.40859 0.95431 0.0
H2614 H 0.86202 0.36654 0.98155 0.0
H2615 H 0.83681 0.36543 0.99731 0.0
C2616 C 0.78871 0.39824 0.07331 0.0
C2617 C 0.79487 0.38641 0.08444 0.0
C2618 C 0.79066 0.39823 0.05373 0.0
C2619 C 0.79864 0.3863 0.04476 0.0
C2620 C 0.80556 0.37492 0.05588 0.0
C2621 C 0.8037 0.37497 0.07558 0.0
C2622 C 0.79876 0.3853 0.02377 0.0
C2623 C 0.81279 0.38518 0.01404 0.0
C2624 C 0.78494 0.3853 0.01334 0.0
C2625 C 0.76974 0.38429 0.02271 0.0
C2626 C 0.76644 0.37221 0.03522 0.0
C2627 C 0.75219 0.37143 0.0442 0.0
C2628 C 0.74109 0.3826 0.04067 0.0
C2629 C 0.74422 0.39456 0.02812 0.0
C2630 C 0.75846 0.39541 0.01913 0.0
C2631 C 0.8042 0.37604 0.93179 0.0
C2632 C 0.79498 0.38723 0.9231 0.0
C2633 C 0.80612 0.37594 0.95147 0.0
C2634 C 0.79899 0.38713 0.96277 0.0
C2635 C 0.79034 0.39866 0.95399 0.0
C2636 C 0.78835 0.39871 0.93443 0.0
C2637 C 0.79948 0.38634 0.98377 0.0
C2638 C 0.78549 0.38596 0.99356 0.0
C2639 C 0.81334 0.38578 0.99415 0.0
C2640 C 0.8285 0.38646 0.98471 0.0
C2641 C 0.8322 0.39868 0.97259 0.0
C2642 C 0.8465 0.39919 0.96368 0.0
C2643 C 0.85722 0.3876 0.96688 0.0
C2644 C 0.85369 0.3755 0.97906 0.0
C2645 C 0.83941 0.37493 0.98799 0.0
H2646 H 0.86828 0.38801 0.95997 0.0
H2647 H 0.73007 0.38198 0.04764 0.0
H2648 H 0.63698 0.19384 0.08684 0.0
H2649 H 0.63646 0.18884 0.05272 0.0
H2650 H 0.60143 0.22325 0.04595 0.0
H2651 H 0.60168 0.22811 0.07982 0.0
H2652 H 0.5953 0.19896 0.02438 0.0
H2653 H 0.63969 0.23081 0.03731 0.0
H2654 H 0.66438 0.23683 0.05251 0.0
H2655 H 0.68435 0.1964 0.02815 0.0
H2656 H 0.65971 0.19005 0.013 0.0
H2657 H 0.60079 0.2285 0.93256 0.0
H2658 H 0.60075 0.22327 0.96633 0.0
H2659 H 0.63565 0.18886 0.95846 0.0
H2660 H 0.63594 0.19421 0.92442 0.0
H2661 H 0.64273 0.2077 0.98723 0.0
H2662 H 0.59903 0.17842 0.96989 0.0
H2663 H 0.57436 0.17312 0.95429 0.0
H2664 H 0.55295 0.20888 0.98659 0.0
H2665 H 0.57754 0.21456 1.0022 0.0
C2666 C 0.62905 0.20022 0.0781 0.0
C2667 C 0.61945 0.21145 0.08609 0.0
C2668 C 0.62881 0.19739 0.05858 0.0
C2669 C 0.61902 0.2058 0.04671 0.0
C2670 C 0.60908 0.21661 0.05478 0.0
C2671 C 0.6093 0.21942 0.0742 0.0
C2672 C 0.61942 0.20396 0.02579 0.0
C2673 C 0.60566 0.2009 0.01625 0.0
C2674 C 0.63302 0.20602 0.01516 0.0
C2675 C 0.64783 0.20986 0.02423 0.0
C2676 C 0.64932 0.22315 0.03533 0.0
C2677 C 0.66331 0.22663 0.04391 0.0
C2678 C 0.67592 0.21697 0.04135 0.0
C2679 C 0.67457 0.20385 0.03016 0.0
C2680 C 0.6606 0.2003 0.02157 0.0
C2681 C 0.60837 0.21969 0.9379 0.0
C2682 C 0.61838 0.21178 0.92571 0.0
C2683 C 0.60827 0.21665 0.95727 0.0
C2684 C 0.61807 0.20554 0.96496 0.0
C2685 C 0.62794 0.19744 0.95284 0.0
C2686 C 0.62805 0.20047 0.93338 0.0
C2687 C 0.61851 0.20315 0.98579 0.0
C2688 C 0.63242 0.20542 0.99533 0.0
C2689 C 0.60503 0.2004 0.99641 0.0
C2690 C 0.59017 0.19696 0.98715 0.0
C2691 C 0.58908 0.18522 0.97359 0.0
C2692 C 0.57511 0.18214 0.96475 0.0
C2693 C 0.5621 0.19067 0.96943 0.0
C2694 C 0.56304 0.20228 0.98299 0.0
C2695 C 0.57699 0.20542 0.99186 0.0
H2696 H 0.55129 0.18827 0.96257 0.0
H2697 H 0.68674 0.21969 0.04801 0.0
H2698 H 0.78188 0.5999 0.07878 0.0
H2699 H 0.78681 0.60021 0.04491 0.0
H2700 H 0.81517 0.64032 0.05148 0.0
H2701 H 0.81015 0.64018 0.08563 0.0
H2702 H 0.79485 0.64379 0.02296 0.0
H2703 H 0.83145 0.60615 0.04047 0.0
H2704 H 0.8412 0.58303 0.05645 0.0
H2705 H 0.80945 0.55516 0.02541 0.0
H2706 H 0.79935 0.57814 0.00943 0.0
H2707 H 0.8093 0.63934 0.92349 0.0
H2708 H 0.81457 0.63972 0.95752 0.0
H2709 H 0.78569 0.60011 0.96508 0.0
H2710 H 0.78048 0.59956 0.93125 0.0
H2711 H 0.81129 0.59806 0.98651 0.0
H2712 H 0.7722 0.63604 0.97331 0.0
H2713 H 0.76181 0.65908 0.95775 0.0
H2714 H 0.79821 0.6862 0.98108 0.0
H2715 H 0.80893 0.66326 0.99659 0.0
C2716 C 0.78931 0.60872 0.07313 0.0
C2717 C 0.7956 0.62003 0.08498 0.0
C2718 C 0.79219 0.60883 0.05371 0.0
C2719 C 0.80149 0.6202 0.04563 0.0
C2720 C 0.808 0.6314 0.05742 0.0
C2721 C 0.80516 0.63127 0.07694 0.0
C2722 C 0.80356 0.62075 0.02476 0.0
C2723 C 0.79881 0.63392 0.01501 0.0
C2724 C 0.80849 0.60779 0.01433 0.0
C2725 C 0.81458 0.5939 0.02383 0.0
C2726 C 0.82647 0.59511 0.03714 0.0
C2727 C 0.83207 0.58202 0.04619 0.0
C2728 C 0.82593 0.56764 0.04197 0.0
C2729 C 0.8142 0.56631 0.02866 0.0
C2730 C 0.80855 0.57936 0.01958 0.0
C2731 C 0.80423 0.6306 0.93236 0.0
C2732 C 0.79437 0.61949 0.92462 0.0
C2733 C 0.80721 0.63087 0.95183 0.0
C2734 C 0.80039 0.62004 0.96389 0.0
C2735 C 0.79108 0.60859 0.95607 0.0
C2736 C 0.78806 0.60833 0.93669 0.0
C2737 C 0.80222 0.62095 0.98477 0.0
C2738 C 0.80767 0.60804 0.9945 0.0
C2739 C 0.79791 0.63413 0.99518 0.0
C2740 C 0.79147 0.64791 0.9859 0.0
C2741 C 0.77806 0.6469 0.97499 0.0
C2742 C 0.7721 0.65994 0.9662 0.0
C2743 C 0.77938 0.67409 0.96837 0.0
C2744 C 0.79261 0.67523 0.97937 0.0
C2745 C 0.79863 0.66221 0.98817 0.0
H2746 H 0.77475 0.68417 0.96156 0.0
H2747 H 0.83028 0.55753 0.04899 0.0
H2748 H 0.40426 0.7767 0.93097 0.0
H2749 H 0.40286 0.77974 0.96513 0.0
H2750 H 0.36535 0.81146 0.95893 0.0
H2751 H 0.36667 0.80851 0.92442 0.0
H2752 H 0.38676 0.81999 0.98765 0.0
H2753 H 0.35641 0.77691 0.97002 0.0
H2754 H 0.35064 0.75274 0.95343 0.0
H2755 H 0.38736 0.73038 0.98283 0.0
H2756 H 0.39352 0.75449 0.99938 0.0
H2757 H 0.36745 0.80811 0.08677 0.0
H2758 H 0.36641 0.81148 0.05234 0.0
H2759 H 0.40221 0.77786 0.04558 0.0
H2760 H 0.40331 0.7744 0.07968 0.0
H2761 H 0.37783 0.77178 0.02315 0.0
H2762 H 0.40916 0.81569 0.03897 0.0
H2763 H 0.41488 0.84003 0.0552 0.0
H2764 H 0.3756 0.8609 0.02939 0.0
H2765 H 0.36952 0.8366 0.01319 0.0
C2766 C 0.39579 0.78447 0.93675 0.0
C2767 C 0.38546 0.79224 0.92489 0.0
C2768 C 0.395 0.78617 0.95634 0.0
C2769 C 0.38385 0.79563 0.96458 0.0
C2770 C 0.37401 0.80405 0.95284 0.0
C2771 C 0.37477 0.80233 0.93313 0.0
C2772 C 0.38207 0.79584 0.98546 0.0
C2773 C 0.38453 0.80952 0.99544 0.0
C2774 C 0.37925 0.78215 0.99561 0.0
C2775 C 0.3755 0.76756 0.98584 0.0
C2776 C 0.36333 0.76687 0.97285 0.0
C2777 C 0.35998 0.75318 0.96347 0.0
C2778 C 0.36865 0.74004 0.96705 0.0
C2779 C 0.38066 0.74057 0.98006 0.0
C2780 C 0.38408 0.75425 0.98946 0.0
C2781 C 0.37523 0.80158 0.07795 0.0
C2782 C 0.38541 0.79092 0.08603 0.0
C2783 C 0.37463 0.80353 0.05828 0.0
C2784 C 0.38421 0.79488 0.04637 0.0
C2785 C 0.39464 0.78459 0.05447 0.0
C2786 C 0.39528 0.78266 0.07403 0.0
C2787 C 0.38302 0.79584 0.02544 0.0
C2788 C 0.3799 0.78231 0.01541 0.0
C2789 C 0.38514 0.80968 0.01533 0.0
C2790 C 0.38878 0.82428 0.02506 0.0
C2791 C 0.40166 0.82543 0.03689 0.0
C2792 C 0.40498 0.83923 0.04605 0.0
C2793 C 0.39558 0.85199 0.04337 0.0
C2794 C 0.38285 0.851 0.03148 0.0
C2795 C 0.37947 0.83722 0.0223 0.0
H2796 H 0.39817 0.86267 0.05047 0.0
H2797 H 0.36603 0.72945 0.95976 0.0
H2798 H 0.19897 0.36368 0.92529 0.0
H2799 H 0.19562 0.36307 0.95972 0.0
H2800 H 0.22229 0.40446 0.96478 0.0
H2801 H 0.22586 0.40504 0.93064 0.0
H2802 H 0.23272 0.38297 0.98792 0.0
H2803 H 0.18313 0.40382 0.97215 0.0
H2804 H 0.15804 0.4041 0.9562 0.0
H2805 H 0.14605 0.36164 0.98304 0.0
H2806 H 0.17116 0.36101 0.99897 0.0
H2807 H 0.22399 0.40485 0.0816 0.0
H2808 H 0.22086 0.40438 0.0474 0.0
H2809 H 0.19605 0.36179 0.05148 0.0
H2810 H 0.19894 0.36228 0.086 0.0
H2811 H 0.18395 0.38111 0.02393 0.0
H2812 H 0.23291 0.36058 0.04043 0.0
H2813 H 0.25793 0.36009 0.05653 0.0
H2814 H 0.27115 0.40142 0.02793 0.0
H2815 H 0.24611 0.40228 0.01186 0.0
C2816 C 0.20393 0.37277 0.93373 0.0
C2817 C 0.21278 0.38434 0.92519 0.0
C2818 C 0.20197 0.37242 0.95341 0.0
C2819 C 0.20872 0.38372 0.96487 0.0
C2820 C 0.21706 0.39557 0.95627 0.0
C2821 C 0.21906 0.39589 0.9367 0.0
C2822 C 0.20811 0.38279 0.98586 0.0
C2823 C 0.22203 0.38274 0.99576 0.0
C2824 C 0.19419 0.3819 0.99613 0.0
C2825 C 0.17909 0.38228 0.98658 0.0
C2826 C 0.1752 0.39447 0.97452 0.0
C2827 C 0.16096 0.39471 0.96551 0.0
C2828 C 0.15048 0.38287 0.96856 0.0
C2829 C 0.15419 0.37079 0.98067 0.0
C2830 C 0.16842 0.37049 0.9897 0.0
C2831 C 0.21771 0.39544 0.07531 0.0
C2832 C 0.21189 0.38349 0.08656 0.0
C2833 C 0.21594 0.39519 0.05572 0.0
C2834 C 0.20849 0.3829 0.04684 0.0
C2835 C 0.20191 0.37135 0.05804 0.0
C2836 C 0.20359 0.37164 0.07776 0.0
C2837 C 0.20855 0.38177 0.02586 0.0
C2838 C 0.1946 0.38129 0.01602 0.0
C2839 C 0.22245 0.38211 0.01554 0.0
C2840 C 0.23758 0.38156 0.02505 0.0
C2841 C 0.24112 0.36962 0.03767 0.0
C2842 C 0.25531 0.36927 0.04678 0.0
C2843 C 0.26611 0.38073 0.04329 0.0
C2844 C 0.26276 0.39255 0.03063 0.0
C2845 C 0.24858 0.39297 0.0215 0.0
H2846 H 0.27709 0.38044 0.05036 0.0
H2847 H 0.13946 0.38307 0.96158 0.0
H2848 H 0.18927 0.33678 0.18212 0.0
H2849 H 0.17537 0.33009 0.21074 0.0
H2850 H 0.16899 0.37808 0.22335 0.0
H2851 H 0.18377 0.38483 0.19504 0.0
H2852 H 0.17604 0.36525 0.25366 0.0
H2853 H 0.13846 0.353 0.2083 0.0
H2854 H 0.12746 0.34189 0.17928 0.0
H2855 H 0.13779 0.29661 0.19923 0.0
H2856 H 0.14904 0.30744 0.22827 0.0
H2857 H 0.11681 0.31576 0.31386 0.0
H2858 H 0.1232 0.3301 0.2851 0.0
H2859 H 0.17098 0.32917 0.30062 0.0
H2860 H 0.16459 0.31562 0.32958 0.0
H2861 H 0.13811 0.32301 0.25597 0.0
H2862 H 0.19132 0.35739 0.28302 0.0
H2863 H 0.19941 0.37105 0.31186 0.0
H2864 H 0.15239 0.37698 0.32817 0.0
H2865 H 0.144 0.36355 0.29932 0.0
C2866 C 0.18476 0.34594 0.19084 0.0
C2867 C 0.18758 0.36135 0.18625 0.0
C2868 C 0.17668 0.34209 0.20721 0.0
C2869 C 0.17078 0.35354 0.21916 0.0
C2870 C 0.17335 0.36899 0.21441 0.0
C2871 C 0.18175 0.37286 0.19817 0.0
C2872 C 0.16285 0.34926 0.23714 0.0
C2873 C 0.16765 0.35611 0.25411 0.0
C2874 C 0.15148 0.33767 0.23785 0.0
C2875 C 0.14467 0.33106 0.22044 0.0
C2876 C 0.13847 0.34068 0.20646 0.0
C2877 C 0.13218 0.33443 0.19001 0.0
C2878 C 0.13195 0.31856 0.1874 0.0
C2879 C 0.13797 0.3089 0.20127 0.0
C2880 C 0.14428 0.31509 0.21774 0.0
C2881 C 0.12863 0.31888 0.31127 0.0
C2882 C 0.14017 0.31464 0.32408 0.0
C2883 C 0.13229 0.32702 0.29478 0.0
C2884 C 0.14757 0.33097 0.2907 0.0
C2885 C 0.15905 0.32674 0.30358 0.0
C2886 C 0.15538 0.31887 0.32016 0.0
C2887 C 0.15178 0.33858 0.2725 0.0
C2888 C 0.1463 0.33234 0.2555 0.0
C2889 C 0.16207 0.35113 0.27172 0.0
C2890 C 0.16704 0.35937 0.28904 0.0
C2891 C 0.1827 0.36169 0.2927 0.0
C2892 C 0.18734 0.36937 0.30907 0.0
C2893 C 0.17642 0.37485 0.32186 0.0
C2894 C 0.16084 0.37269 0.31828 0.0
C2895 C 0.15614 0.36502 0.30193 0.0
H2896 H 0.18004 0.38078 0.33453 0.0
H2897 H 0.12708 0.31375 0.17465 0.0
H2898 H 0.62197 0.20032 0.20435 0.0
H2899 H 0.62903 0.18754 0.23393 0.0
H2900 H 0.66423 0.16227 0.20459 0.0
H2901 H 0.65739 0.17514 0.17505 0.0
H2902 H 0.64731 0.14461 0.23243 0.0
H2903 H 0.67494 0.19248 0.22589 0.0
H2904 H 0.67687 0.22038 0.22093 0.0
H2905 H 0.64907 0.22832 0.27009 0.0
H2906 H 0.64678 0.20043 0.27517 0.0
H2907 H 0.69855 0.12437 0.30663 0.0
H2908 H 0.68523 0.13239 0.27792 0.0
H2909 H 0.65945 0.16554 0.31024 0.0
H2910 H 0.67326 0.15802 0.33877 0.0
H2911 H 0.66963 0.17887 0.28112 0.0
H2912 H 0.64325 0.13151 0.28977 0.0
H2913 H 0.6404 0.10373 0.29496 0.0
H2914 H 0.66419 0.09462 0.24298 0.0
H2915 H 0.66736 0.12236 0.23759 0.0
C2916 C 0.63102 0.19183 0.20412 0.0
C2917 C 0.63919 0.18881 0.18738 0.0
C2918 C 0.63506 0.18457 0.22104 0.0
C2919 C 0.64722 0.17403 0.22147 0.0
C2920 C 0.6548 0.17034 0.20457 0.0
C2921 C 0.65091 0.17775 0.18771 0.0
C2922 C 0.65292 0.16787 0.23972 0.0
C2923 C 0.65229 0.15204 0.24308 0.0
C2924 C 0.65908 0.17763 0.25374 0.0
C2925 C 0.66054 0.19438 0.25077 0.0
C2926 C 0.66912 0.20018 0.23554 0.0
C2927 C 0.67031 0.21599 0.23272 0.0
C2928 C 0.66306 0.22612 0.24515 0.0
C2929 C 0.65465 0.22046 0.26046 0.0
C2930 C 0.65341 0.20466 0.26331 0.0
C2931 C 0.68984 0.13317 0.30766 0.0
C2932 C 0.68697 0.14058 0.32496 0.0
C2933 C 0.68216 0.13773 0.29122 0.0
C2934 C 0.67118 0.14953 0.29182 0.0
C2935 C 0.66789 0.15647 0.3093 0.0
C2936 C 0.67575 0.15211 0.32565 0.0
C2937 C 0.66402 0.15547 0.27411 0.0
C2938 C 0.66448 0.17134 0.27072 0.0
C2939 C 0.65756 0.14572 0.2602 0.0
C2940 C 0.65565 0.12902 0.26336 0.0
C2941 C 0.64797 0.12359 0.27951 0.0
C2942 C 0.64628 0.10784 0.28248 0.0
C2943 C 0.65215 0.09741 0.26933 0.0
C2944 C 0.65967 0.10271 0.25316 0.0
C2945 C 0.6614 0.11845 0.25013 0.0
H2946 H 0.65083 0.08523 0.27166 0.0
H2947 H 0.66399 0.23835 0.24295 0.0
H2948 H 0.82267 0.61968 0.19423 0.0
H2949 H 0.83622 0.62719 0.22313 0.0
H2950 H 0.82822 0.67481 0.20993 0.0
H2951 H 0.81562 0.6674 0.1807 0.0
H2952 H 0.85404 0.67358 0.22459 0.0
H2953 H 0.80529 0.65212 0.24251 0.0
H2954 H 0.78529 0.6322 0.24425 0.0
H2955 H 0.81671 0.60187 0.27211 0.0
H2956 H 0.83695 0.62157 0.27033 0.0
H2957 H 0.8391 0.68887 0.33097 0.0
H2958 H 0.83238 0.67601 0.30162 0.0
H2959 H 0.88001 0.67534 0.2852 0.0
H2960 H 0.88672 0.68901 0.31433 0.0
H2961 H 0.83698 0.65085 0.28529 0.0
H2962 H 0.88346 0.67795 0.23764 0.0
H2963 H 0.89945 0.70125 0.23611 0.0
H2964 H 0.86577 0.72605 0.26815 0.0
H2965 H 0.84952 0.70296 0.26968 0.0
C2966 C 0.82402 0.63174 0.19741 0.0
C2967 C 0.81804 0.64294 0.1852 0.0
C2968 C 0.83167 0.63604 0.21402 0.0
C2969 C 0.83303 0.6516 0.21903 0.0
C2970 C 0.82743 0.66274 0.20649 0.0
C2971 C 0.82015 0.65848 0.18974 0.0
C2972 C 0.83966 0.65646 0.23756 0.0
C2973 C 0.85035 0.66851 0.23784 0.0
C2974 C 0.8348 0.65008 0.255 0.0
C2975 C 0.82267 0.63823 0.25608 0.0
C2976 C 0.80795 0.64116 0.24889 0.0
C2977 C 0.79657 0.62992 0.2499 0.0
C2978 C 0.79974 0.61576 0.25823 0.0
C2979 C 0.81428 0.61283 0.26562 0.0
C2980 C 0.82571 0.62403 0.26462 0.0
C2981 C 0.8482 0.68588 0.32122 0.0
C2982 C 0.86344 0.69009 0.32494 0.0
C2983 C 0.84433 0.67845 0.3044 0.0
C2984 C 0.85562 0.67486 0.29094 0.0
C2985 C 0.87101 0.67829 0.2951 0.0
C2986 C 0.87486 0.68602 0.31182 0.0
C2987 C 0.85101 0.66823 0.27232 0.0
C2988 C 0.84081 0.65578 0.27203 0.0
C2989 C 0.85576 0.67472 0.2549 0.0
C2990 C 0.8654 0.68868 0.25398 0.0
C2991 C 0.87947 0.68839 0.24433 0.0
C2992 C 0.88857 0.70156 0.24346 0.0
C2993 C 0.88366 0.7151 0.2521 0.0
C2994 C 0.8696 0.71553 0.26154 0.0
C2995 C 0.86045 0.70241 0.26243 0.0
H2996 H 0.89072 0.72528 0.25142 0.0
H2997 H 0.79092 0.60707 0.259 0.0
H2998 H 0.38694 0.81987 0.19566 0.0
H2999 H 0.37964 0.83385 0.22439 0.0
H3000 H 0.33193 0.82815 0.21008 0.0
H3001 H 0.33918 0.81508 0.18105 0.0
H3002 H 0.3342 0.85393 0.22488 0.0
H3003 H 0.35284 0.80414 0.243 0.0
H3004 H 0.37164 0.78311 0.24512 0.0
H3005 H 0.40308 0.81287 0.27391 0.0
H3006 H 0.38451 0.83413 0.27177 0.0
H3007 H 0.31672 0.83946 0.33092 0.0
H3008 H 0.32967 0.83226 0.30179 0.0
H3009 H 0.33244 0.87987 0.28562 0.0
H3010 H 0.31862 0.88708 0.31449 0.0
H3011 H 0.35505 0.83568 0.286 0.0
H3012 H 0.33115 0.88357 0.23807 0.0
H3013 H 0.30874 0.90074 0.23607 0.0
H3014 H 0.28169 0.86826 0.26716 0.0
H3015 H 0.30388 0.85084 0.26914 0.0
C3016 C 0.37492 0.82182 0.19856 0.0
C3017 C 0.36365 0.81633 0.1861 0.0
C3018 C 0.37073 0.82972 0.21506 0.0
C3019 C 0.35518 0.83184 0.21972 0.0
C3020 C 0.34399 0.82675 0.20692 0.0
C3021 C 0.34817 0.81921 0.19027 0.0
C3022 C 0.35036 0.8387 0.23817 0.0
C3023 C 0.33886 0.84998 0.23822 0.0
C3024 C 0.3562 0.8335 0.25572 0.0
C3025 C 0.36738 0.82076 0.25701 0.0
C3026 C 0.36381 0.80622 0.24966 0.0
C3027 C 0.37441 0.79426 0.25088 0.0
C3028 C 0.38857 0.79667 0.25958 0.0
C3029 C 0.39212 0.81104 0.26713 0.0
C3030 C 0.38157 0.82304 0.26593 0.0
C3031 C 0.32018 0.84845 0.32127 0.0
C3032 C 0.31652 0.86385 0.32498 0.0
C3033 C 0.32766 0.8443 0.30457 0.0
C3034 C 0.33188 0.85545 0.29122 0.0
C3035 C 0.32899 0.87097 0.2954 0.0
C3036 C 0.32119 0.87511 0.31198 0.0
C3037 C 0.33859 0.85058 0.27271 0.0
C3038 C 0.35053 0.83977 0.27265 0.0
C3039 C 0.33265 0.85567 0.25517 0.0
C3040 C 0.31922 0.86602 0.25396 0.0
C3041 C 0.3204 0.8801 0.24445 0.0
C3042 C 0.30775 0.88987 0.24332 0.0
C3043 C 0.29382 0.88562 0.25155 0.0
C3044 C 0.2925 0.87157 0.26086 0.0
C3045 C 0.30511 0.86175 0.262 0.0
H3046 H 0.28404 0.89321 0.25067 0.0
H3047 H 0.39676 0.7874 0.26052 0.0
H3048 H 0.19312 0.6213 0.81073 0.0
H3049 H 0.18115 0.62915 0.78089 0.0
H3050 H 0.17336 0.67431 0.8037 0.0
H3051 H 0.18518 0.6666 0.83345 0.0
H3052 H 0.15226 0.64185 0.77058 0.0
H3053 H 0.18426 0.69982 0.76945 0.0
H3054 H 0.20822 0.71113 0.78157 0.0
H3055 H 0.22932 0.66669 0.78198 0.0
H3056 H 0.20557 0.65516 0.76962 0.0
H3057 H 0.12182 0.69419 0.70162 0.0
H3058 H 0.13077 0.68095 0.73009 0.0
H3059 H 0.1743 0.67239 0.7032 0.0
H3060 H 0.16552 0.68563 0.67485 0.0
H3061 H 0.17833 0.68456 0.73725 0.0
H3062 H 0.14916 0.64333 0.71113 0.0
H3063 H 0.12632 0.63073 0.69781 0.0
H3064 H 0.10157 0.63925 0.74925 0.0
H3065 H 0.12421 0.65211 0.7628 0.0
C3066 C 0.18863 0.63282 0.8095 0.0
C3067 C 0.19021 0.64335 0.82445 0.0
C3068 C 0.18176 0.63728 0.79245 0.0
C3069 C 0.17653 0.65236 0.79001 0.0
C3070 C 0.17746 0.66265 0.80522 0.0
C3071 C 0.18421 0.6582 0.82224 0.0
C3072 C 0.17109 0.65777 0.77127 0.0
C3073 C 0.15793 0.65119 0.76327 0.0
C3074 C 0.17866 0.66976 0.76157 0.0
C3075 C 0.19307 0.67661 0.76879 0.0
C3076 C 0.19403 0.69247 0.77206 0.0
C3077 C 0.20757 0.69892 0.77898 0.0
C3078 C 0.22027 0.68962 0.7826 0.0
C3079 C 0.21946 0.67387 0.77925 0.0
C3080 C 0.20596 0.66737 0.77231 0.0
C3081 C 0.13321 0.68928 0.70167 0.0
C3082 C 0.14296 0.69103 0.68596 0.0
C3083 C 0.13831 0.68168 0.71795 0.0
C3084 C 0.15323 0.67566 0.71881 0.0
C3085 C 0.16277 0.67698 0.70292 0.0
C3086 C 0.1577 0.68453 0.68667 0.0
C3087 C 0.15928 0.66886 0.7366 0.0
C3088 C 0.1726 0.67522 0.74449 0.0
C3089 C 0.15197 0.65653 0.746 0.0
C3090 C 0.13834 0.64881 0.73791 0.0
C3091 C 0.13881 0.64264 0.71955 0.0
C3092 C 0.12591 0.63542 0.71197 0.0
C3093 C 0.11249 0.63422 0.72266 0.0
C3094 C 0.11196 0.64021 0.74098 0.0
C3095 C 0.12483 0.64744 0.74862 0.0
H3096 H 0.10252 0.62863 0.71677 0.0
H3097 H 0.23074 0.69463 0.78796 0.0
H3098 H 0.33022 0.15862 0.67458 0.0
H3099 H 0.3433 0.16559 0.70392 0.0
H3100 H 0.31887 0.12999 0.73353 0.0
H3101 H 0.30588 0.12279 0.70414 0.0
H3102 H 0.31642 0.15957 0.75002 0.0
H3103 H 0.35561 0.12551 0.72725 0.0
H3104 H 0.37405 0.11552 0.70386 0.0
H3105 H 0.39732 0.15885 0.70313 0.0
H3106 H 0.37888 0.16918 0.72632 0.0
H3107 H 0.34994 0.17445 0.83802 0.0
H3108 H 0.342 0.16074 0.80955 0.0
H3109 H 0.37305 0.18816 0.77619 0.0
H3110 H 0.38159 0.20135 0.80486 0.0
H3111 H 0.3724 0.1611 0.76178 0.0
H3112 H 0.33336 0.19641 0.78075 0.0
H3113 H 0.3147 0.20851 0.8023 0.0
H3114 H 0.29081 0.16574 0.80786 0.0
H3115 H 0.30946 0.15333 0.78653 0.0
C3116 C 0.32783 0.15208 0.68726 0.0
C3117 C 0.31699 0.14016 0.68703 0.0
C3118 C 0.33535 0.15606 0.70401 0.0
C3119 C 0.33208 0.1483 0.72091 0.0
C3120 C 0.32159 0.13611 0.72063 0.0
C3121 C 0.31422 0.13196 0.70381 0.0
C3122 C 0.33867 0.15374 0.73907 0.0
C3123 C 0.32864 0.15963 0.75277 0.0
C3124 C 0.35464 0.15437 0.74231 0.0
C3125 C 0.36578 0.14816 0.72841 0.0
C3126 C 0.36458 0.13296 0.72199 0.0
C3127 C 0.37505 0.12722 0.70878 0.0
C3128 C 0.38682 0.13656 0.70198 0.0
C3129 C 0.38818 0.15164 0.7084 0.0
C3130 C 0.37774 0.15743 0.72159 0.0
C3131 C 0.35526 0.17737 0.82465 0.0
C3132 C 0.36631 0.18905 0.82365 0.0
C3133 C 0.35063 0.16961 0.80834 0.0
C3134 C 0.35657 0.17369 0.79055 0.0
C3135 C 0.36819 0.18483 0.78968 0.0
C3136 C 0.37308 0.19237 0.80609 0.0
C3137 C 0.35014 0.16693 0.77286 0.0
C3138 C 0.36017 0.1609 0.75917 0.0
C3139 C 0.33414 0.16648 0.76939 0.0
C3140 C 0.3229 0.17391 0.78221 0.0
C3141 C 0.32419 0.18956 0.78668 0.0
C3142 C 0.31361 0.19648 0.79884 0.0
C3143 C 0.3016 0.18789 0.80649 0.0
C3144 C 0.30013 0.17237 0.80195 0.0
C3145 C 0.3107 0.16539 0.78982 0.0
H3146 H 0.29342 0.19326 0.81589 0.0
H3147 H 0.39492 0.1321 0.69176 0.0
H3148 H 0.88434 0.30553 0.70267 0.0
H3149 H 0.87732 0.31861 0.73211 0.0
H3150 H 0.84175 0.3432 0.70277 0.0
H3151 H 0.84857 0.33007 0.67336 0.0
H3152 H 0.85824 0.36134 0.73005 0.0
H3153 H 0.83174 0.31273 0.72477 0.0
H3154 H 0.83047 0.28472 0.7204 0.0
H3155 H 0.85865 0.27818 0.76943 0.0
H3156 H 0.86027 0.30618 0.77392 0.0
H3157 H 0.80676 0.3815 0.80421 0.0
H3158 H 0.82021 0.37337 0.77558 0.0
H3159 H 0.84674 0.34124 0.80839 0.0
H3160 H 0.83279 0.34885 0.83685 0.0
H3161 H 0.83691 0.32727 0.77964 0.0
H3162 H 0.86214 0.3754 0.78708 0.0
H3163 H 0.8643 0.40333 0.79166 0.0
H3164 H 0.84016 0.41105 0.73969 0.0
H3165 H 0.83768 0.38316 0.73491 0.0
C3166 C 0.87523 0.31394 0.7024 0.0
C3167 C 0.86695 0.31669 0.6857 0.0
C3168 C 0.8712 0.32137 0.71924 0.0
C3169 C 0.85893 0.33179 0.71965 0.0
C3170 C 0.85126 0.33522 0.70277 0.0
C3171 C 0.85514 0.32766 0.68599 0.0
C3172 C 0.85322 0.33807 0.73786 0.0
C3173 C 0.85349 0.35395 0.7409 0.0
C3174 C 0.84735 0.32837 0.75215 0.0
C3175 C 0.84627 0.31154 0.74954 0.0
C3176 C 0.83777 0.30532 0.73452 0.0
C3177 C 0.83697 0.28945 0.73204 0.0
C3178 C 0.84451 0.27968 0.74459 0.0
C3179 C 0.85284 0.28576 0.75969 0.0
C3180 C 0.8537 0.30163 0.76222 0.0
C3181 C 0.81566 0.3729 0.80536 0.0
C3182 C 0.8187 0.3658 0.82278 0.0
C3183 C 0.82341 0.36828 0.78896 0.0
C3184 C 0.83465 0.35673 0.78973 0.0
C3185 C 0.8381 0.35011 0.80732 0.0
C3186 C 0.83016 0.35451 0.82362 0.0
C3187 C 0.84192 0.3507 0.7721 0.0
C3188 C 0.84185 0.33478 0.76904 0.0
C3189 C 0.84812 0.3604 0.75793 0.0
C3190 C 0.84961 0.37718 0.76072 0.0
C3191 C 0.85719 0.38305 0.77669 0.0
C3192 C 0.85849 0.39888 0.77931 0.0
C3193 C 0.85234 0.40895 0.76599 0.0
C3194 C 0.84491 0.40323 0.75 0.0
C3195 C 0.84357 0.38741 0.74732 0.0
H3196 H 0.85335 0.4212 0.76805 0.0
H3197 H 0.84387 0.26739 0.74265 0.0
H3198 H 0.70132 0.88272 0.70347 0.0
H3199 H 0.68933 0.87498 0.73333 0.0
H3200 H 0.66185 0.84179 0.70361 0.0
H3201 H 0.67398 0.84924 0.67375 0.0
H3202 H 0.64589 0.859 0.73345 0.0
H3203 H 0.69149 0.82867 0.72235 0.0
H3204 H 0.71895 0.82506 0.71542 0.0
H3205 H 0.73072 0.85049 0.76531 0.0
H3206 H 0.70331 0.85444 0.77238 0.0
H3207 H 0.62517 0.80738 0.80722 0.0
H3208 H 0.63307 0.82054 0.77831 0.0
H3209 H 0.66906 0.84346 0.8091 0.0
H3210 H 0.66161 0.82979 0.83779 0.0
H3211 H 0.68052 0.83298 0.77876 0.0
H3212 H 0.63538 0.86222 0.79156 0.0
H3213 H 0.60808 0.86664 0.79868 0.0
H3214 H 0.59542 0.84477 0.74661 0.0
H3215 H 0.62264 0.84004 0.73928 0.0
C3216 C 0.69251 0.87399 0.70323 0.0
C3217 C 0.68864 0.86654 0.68626 0.0
C3218 C 0.68571 0.86955 0.72031 0.0
C3219 C 0.67478 0.85775 0.72067 0.0
C3220 C 0.67025 0.85092 0.70362 0.0
C3221 C 0.67722 0.85517 0.68659 0.0
C3222 C 0.66898 0.85168 0.73892 0.0
C3223 C 0.65339 0.85321 0.74335 0.0
C3224 C 0.67887 0.84444 0.75196 0.0
C3225 C 0.69535 0.84201 0.74777 0.0
C3226 C 0.69993 0.83362 0.73174 0.0
C3227 C 0.71549 0.83148 0.72781 0.0
C3228 C 0.72657 0.83759 0.73988 0.0
C3229 C 0.72212 0.8458 0.75595 0.0
C3230 C 0.70658 0.84798 0.75993 0.0
C3231 C 0.6346 0.81542 0.80788 0.0
C3232 C 0.64277 0.81753 0.82479 0.0
C3233 C 0.6391 0.82301 0.79133 0.0
C3234 C 0.65162 0.83315 0.79144 0.0
C3235 C 0.65941 0.83567 0.80854 0.0
C3236 C 0.65509 0.82789 0.82498 0.0
C3237 C 0.6573 0.84032 0.77359 0.0
C3238 C 0.67293 0.83892 0.76909 0.0
C3239 C 0.64744 0.84781 0.76062 0.0
C3240 C 0.63105 0.85066 0.76496 0.0
C3241 C 0.62677 0.85826 0.78169 0.0
C3242 C 0.61131 0.86083 0.78575 0.0
C3243 C 0.60002 0.85596 0.77313 0.0
C3244 C 0.60417 0.84853 0.75639 0.0
C3245 C 0.61962 0.84591 0.75226 0.0
H3246 H 0.58806 0.85796 0.7763 0.0
H3247 H 0.73861 0.83592 0.73682 0.0
H3248 H 0.88034 0.69976 0.70488 0.0
H3249 H 0.87219 0.68632 0.73348 0.0
H3250 H 0.84008 0.6598 0.70063 0.0
H3251 H 0.8477 0.67374 0.6722 0.0
H3252 H 0.8261 0.66965 0.72941 0.0
H3253 H 0.87418 0.64436 0.72191 0.0
H3254 H 0.90209 0.64214 0.71731 0.0
H3255 H 0.90983 0.66629 0.76932 0.0
H3256 H 0.88196 0.66884 0.77412 0.0
H3257 H 0.80479 0.62164 0.80617 0.0
H3258 H 0.81775 0.62896 0.77676 0.0
H3259 H 0.84158 0.66499 0.80626 0.0
H3260 H 0.82852 0.65791 0.83563 0.0
H3261 H 0.86011 0.64832 0.77895 0.0
H3262 H 0.81149 0.67482 0.78428 0.0
H3263 H 0.78349 0.67609 0.78862 0.0
H3264 H 0.77704 0.64788 0.73952 0.0
H3265 H 0.80504 0.64625 0.73506 0.0
C3266 C 0.87174 0.69087 0.70371 0.0
C3267 C 0.86465 0.68783 0.68629 0.0
C3268 C 0.86711 0.68312 0.72009 0.0
C3269 C 0.85556 0.67189 0.71931 0.0
C3270 C 0.84895 0.66843 0.70171 0.0
C3271 C 0.85336 0.67637 0.68542 0.0
C3272 C 0.84951 0.66463 0.73693 0.0
C3273 C 0.8336 0.66471 0.74 0.0
C3274 C 0.85919 0.65843 0.75109 0.0
C3275 C 0.87597 0.6569 0.74828 0.0
C3276 C 0.88183 0.6493 0.7323 0.0
C3277 C 0.89765 0.64796 0.72967 0.0
C3278 C 0.90773 0.6541 0.74299 0.0
C3279 C 0.90201 0.66156 0.759 0.0
C3280 C 0.8862 0.66293 0.7617 0.0
C3281 C 0.81299 0.63094 0.80647 0.0
C3282 C 0.81556 0.63925 0.82321 0.0
C3283 C 0.82036 0.63513 0.78965 0.0
C3284 C 0.83055 0.64758 0.78932 0.0
C3285 C 0.83378 0.65534 0.80622 0.0
C3286 C 0.82626 0.65131 0.82297 0.0
C3287 C 0.83686 0.65335 0.77114 0.0
C3288 C 0.85274 0.65307 0.76811 0.0
C3289 C 0.82718 0.65921 0.75687 0.0
C3290 C 0.81035 0.66026 0.75947 0.0
C3291 C 0.8041 0.66877 0.77451 0.0
C3292 C 0.78824 0.66958 0.77697 0.0
C3293 C 0.77849 0.66203 0.76439 0.0
C3294 C 0.7846 0.65369 0.74928 0.0
C3295 C 0.80047 0.65283 0.74677 0.0
H3296 H 0.76621 0.66267 0.76631 0.0
H3297 H 0.91997 0.65306 0.74093 0.0
H3298 H 0.33894 0.81655 0.83094 0.0
H3299 H 0.33147 0.8294 0.80189 0.0
H3300 H 0.37899 0.83329 0.78565 0.0
H3301 H 0.3865 0.81961 0.81445 0.0
H3302 H 0.33447 0.855 0.7862 0.0
H3303 H 0.38265 0.83183 0.73806 0.0
H3304 H 0.40024 0.80973 0.73601 0.0
H3305 H 0.36832 0.78214 0.76726 0.0
H3306 H 0.35049 0.80401 0.76929 0.0
H3307 H 0.31864 0.88658 0.69574 0.0
H3308 H 0.33255 0.87944 0.72451 0.0
H3309 H 0.32689 0.83163 0.7105 0.0
H3310 H 0.3138 0.8387 0.68146 0.0
H3311 H 0.35293 0.83428 0.72499 0.0
H3312 H 0.30295 0.85232 0.74326 0.0
H3313 H 0.28169 0.87086 0.74544 0.0
H3314 H 0.31102 0.90272 0.77421 0.0
H3315 H 0.33251 0.88441 0.772 0.0
C3316 C 0.34785 0.82024 0.82129 0.0
C3317 C 0.36332 0.81693 0.82495 0.0
C3318 C 0.34355 0.82766 0.80464 0.0
C3319 C 0.35461 0.83215 0.79131 0.0
C3320 C 0.37017 0.82963 0.79544 0.0
C3321 C 0.37448 0.8219 0.81198 0.0
C3322 C 0.3496 0.83875 0.77284 0.0
C3323 C 0.33861 0.85052 0.77283 0.0
C3324 C 0.35476 0.83284 0.75527 0.0
C3325 C 0.36535 0.8196 0.75403 0.0
C3326 C 0.37939 0.82103 0.74446 0.0
C3327 C 0.3894 0.80855 0.7433 0.0
C3328 C 0.38543 0.79456 0.75157 0.0
C3329 C 0.37141 0.793 0.76093 0.0
C3330 C 0.36136 0.80543 0.76211 0.0
C3331 C 0.32056 0.87456 0.69871 0.0
C3332 C 0.31507 0.86322 0.68634 0.0
C3333 C 0.32843 0.87047 0.71524 0.0
C3334 C 0.33057 0.85495 0.71996 0.0
C3335 C 0.32547 0.84368 0.70727 0.0
C3336 C 0.31791 0.84775 0.69063 0.0
C3337 C 0.3375 0.85025 0.73836 0.0
C3338 C 0.34894 0.83892 0.73835 0.0
C3339 C 0.33224 0.85606 0.75593 0.0
C3340 C 0.31937 0.86709 0.75726 0.0
C3341 C 0.30488 0.86332 0.74993 0.0
C3342 C 0.2928 0.87378 0.75119 0.0
C3343 C 0.29502 0.88798 0.7599 0.0
C3344 C 0.30933 0.89173 0.76743 0.0
C3345 C 0.32146 0.88132 0.76618 0.0
H3346 H 0.28565 0.89606 0.76087 0.0
H3347 H 0.3932 0.78492 0.75067 0.0
H3348 H 0.16607 0.31687 0.67958 0.0
H3349 H 0.1733 0.32947 0.7089 0.0
H3350 H 0.12569 0.33254 0.72504 0.0
H3351 H 0.11844 0.31907 0.69596 0.0
H3352 H 0.17001 0.35478 0.72502 0.0
H3353 H 0.12188 0.33071 0.77256 0.0
H3354 H 0.10454 0.3084 0.77421 0.0
H3355 H 0.13689 0.28143 0.74274 0.0
H3356 H 0.15446 0.30352 0.7411 0.0
H3357 H 0.18554 0.38574 0.81584 0.0
H3358 H 0.17168 0.37874 0.78697 0.0
H3359 H 0.17731 0.33086 0.80057 0.0
H3360 H 0.19029 0.33779 0.82974 0.0
H3361 H 0.15149 0.33341 0.78582 0.0
H3362 H 0.2014 0.35195 0.76805 0.0
H3363 H 0.22254 0.37065 0.76624 0.0
H3364 H 0.19307 0.40255 0.73781 0.0
H3365 H 0.1717 0.38409 0.73965 0.0
C3366 C 0.15709 0.32033 0.68927 0.0
C3367 C 0.14168 0.31684 0.68549 0.0
C3368 C 0.16125 0.32761 0.70608 0.0
C3369 C 0.15011 0.3318 0.71946 0.0
C3370 C 0.13458 0.3291 0.71523 0.0
C3371 C 0.13042 0.32149 0.69853 0.0
C3372 C 0.15498 0.33829 0.73806 0.0
C3373 C 0.16586 0.35016 0.7383 0.0
C3374 C 0.14981 0.33219 0.75551 0.0
C3375 C 0.13937 0.31882 0.7565 0.0
C3376 C 0.12528 0.32001 0.76603 0.0
C3377 C 0.11542 0.3074 0.76696 0.0
C3378 C 0.11958 0.29353 0.75852 0.0
C3379 C 0.13365 0.2922 0.7492 0.0
C3380 C 0.14355 0.30476 0.74825 0.0
C3381 C 0.18361 0.37373 0.81276 0.0
C3382 C 0.18906 0.36233 0.82505 0.0
C3383 C 0.17578 0.36973 0.79618 0.0
C3384 C 0.17366 0.35423 0.79128 0.0
C3385 C 0.17871 0.34289 0.80392 0.0
C3386 C 0.1862 0.34688 0.82063 0.0
C3387 C 0.16684 0.34962 0.77277 0.0
C3388 C 0.1555 0.33818 0.77255 0.0
C3389 C 0.17212 0.35561 0.75531 0.0
C3390 C 0.18492 0.36673 0.7542 0.0
C3391 C 0.19941 0.363 0.76153 0.0
C3392 C 0.21143 0.37354 0.76048 0.0
C3393 C 0.20913 0.3878 0.75197 0.0
C3394 C 0.19482 0.39152 0.74444 0.0
C3395 C 0.18275 0.38102 0.74548 0.0
H3396 H 0.21845 0.39595 0.75116 0.0
H3397 H 0.11193 0.28379 0.75925 0.0
H3398 H 0.67138 0.1566 0.67291 0.0
H3399 H 0.65776 0.16455 0.70146 0.0
H3400 H 0.68464 0.13288 0.73446 0.0
H3401 H 0.6978 0.12437 0.70572 0.0
H3402 H 0.65727 0.13391 0.74868 0.0
H3403 H 0.69373 0.17212 0.73055 0.0
H3404 H 0.70644 0.19059 0.70933 0.0
H3405 H 0.66439 0.21572 0.70385 0.0
H3406 H 0.65138 0.19726 0.72486 0.0
H3407 H 0.6556 0.17537 0.83649 0.0
H3408 H 0.66225 0.16231 0.80698 0.0
H3409 H 0.62759 0.18816 0.77761 0.0
H3410 H 0.62071 0.20114 0.80718 0.0
H3411 H 0.65724 0.18984 0.76132 0.0
H3412 H 0.62195 0.1515 0.78316 0.0
H3413 H 0.61123 0.13316 0.80614 0.0
H3414 H 0.65379 0.10851 0.80684 0.0
H3415 H 0.66485 0.12684 0.78406 0.0
C3416 C 0.67421 0.15115 0.68621 0.0
C3417 C 0.68575 0.13995 0.68709 0.0
C3418 C 0.66648 0.15578 0.70256 0.0
C3419 C 0.67044 0.14965 0.72027 0.0
C3420 C 0.68141 0.13787 0.72103 0.0
C3421 C 0.68894 0.13301 0.70458 0.0
C3422 C 0.66378 0.15611 0.73801 0.0
C3423 C 0.65739 0.14613 0.75148 0.0
C3424 C 0.66375 0.17209 0.74172 0.0
C3425 C 0.67154 0.18322 0.7291 0.0
C3426 C 0.68717 0.18152 0.7247 0.0
C3427 C 0.69443 0.19199 0.71273 0.0
C3428 C 0.68622 0.20429 0.7052 0.0
C3429 C 0.67073 0.20617 0.70967 0.0
C3430 C 0.66341 0.19571 0.72161 0.0
C3431 C 0.64919 0.17808 0.82383 0.0
C3432 C 0.63764 0.18931 0.82417 0.0
C3433 C 0.65299 0.17057 0.80698 0.0
C3434 C 0.64541 0.17425 0.7901 0.0
C3435 C 0.63356 0.18513 0.79049 0.0
C3436 C 0.6296 0.19249 0.80741 0.0
C3437 C 0.65072 0.16766 0.77186 0.0
C3438 C 0.65697 0.17764 0.75837 0.0
C3439 C 0.65091 0.1517 0.76838 0.0
C3440 C 0.64427 0.14063 0.78202 0.0
C3441 C 0.62907 0.14224 0.78833 0.0
C3442 C 0.62292 0.13183 0.8013 0.0
C3443 C 0.63183 0.1197 0.80797 0.0
C3444 C 0.6469 0.11792 0.80166 0.0
C3445 C 0.65311 0.12831 0.78871 0.0
H3446 H 0.62705 0.11165 0.81801 0.0
H3447 H 0.69186 0.21239 0.69594 0.0
H3448 H 0.80638 0.38134 0.2031 0.0
H3449 H 0.81974 0.37349 0.23184 0.0
H3450 H 0.84638 0.34105 0.19949 0.0
H3451 H 0.83252 0.34836 0.17093 0.0
H3452 H 0.8364 0.32736 0.22839 0.0
H3453 H 0.8617 0.37543 0.22042 0.0
H3454 H 0.86386 0.40331 0.21552 0.0
H3455 H 0.83955 0.41147 0.26737 0.0
H3456 H 0.83706 0.38362 0.27246 0.0
H3457 H 0.88383 0.30635 0.30542 0.0
H3458 H 0.87681 0.31924 0.2759 0.0
H3459 H 0.84102 0.34377 0.30508 0.0
H3460 H 0.84782 0.33081 0.33457 0.0
H3461 H 0.85762 0.36185 0.27758 0.0
H3462 H 0.83107 0.31331 0.28343 0.0
H3463 H 0.82975 0.28535 0.28812 0.0
H3464 H 0.85806 0.27834 0.23918 0.0
H3465 H 0.85973 0.3063 0.23437 0.0
C3466 C 0.81528 0.37273 0.20207 0.0
C3467 C 0.81838 0.36545 0.18475 0.0
C3468 C 0.82299 0.36827 0.21854 0.0
C3469 C 0.83423 0.35672 0.21793 0.0
C3470 C 0.83774 0.34992 0.20044 0.0
C3471 C 0.82985 0.35416 0.18407 0.0
C3472 C 0.84143 0.35085 0.23565 0.0
C3473 C 0.84132 0.33496 0.2389 0.0
C3474 C 0.84758 0.36067 0.24971 0.0
C3475 C 0.84908 0.37743 0.24673 0.0
C3476 C 0.85671 0.38316 0.23071 0.0
C3477 C 0.85802 0.39896 0.22791 0.0
C3478 C 0.85182 0.40915 0.24111 0.0
C3479 C 0.84433 0.40356 0.25715 0.0
C3480 C 0.84299 0.38777 0.26001 0.0
C3481 C 0.87466 0.31471 0.30564 0.0
C3482 C 0.86631 0.31748 0.32231 0.0
C3483 C 0.87064 0.32204 0.28875 0.0
C3484 C 0.85832 0.33238 0.28829 0.0
C3485 C 0.85057 0.33585 0.30514 0.0
C3486 C 0.85444 0.32838 0.32196 0.0
C3487 C 0.85261 0.33851 0.27003 0.0
C3488 C 0.8529 0.35437 0.26681 0.0
C3489 C 0.84677 0.32869 0.25586 0.0
C3490 C 0.84568 0.31189 0.25867 0.0
C3491 C 0.83712 0.30581 0.27377 0.0
C3492 C 0.83629 0.28997 0.27643 0.0
C3493 C 0.84385 0.28008 0.26399 0.0
C3494 C 0.85223 0.28602 0.24883 0.0
C3495 C 0.85312 0.30186 0.24612 0.0
H3496 H 0.84319 0.26781 0.26608 0.0
H3497 H 0.85284 0.42138 0.23891 0.0
H3498 H 0.62351 0.80433 0.20556 0.0
H3499 H 0.63184 0.81807 0.23386 0.0
H3500 H 0.66629 0.84159 0.20106 0.0
H3501 H 0.6584 0.82742 0.17293 0.0
H3502 H 0.67886 0.83169 0.23111 0.0
H3503 H 0.63281 0.85974 0.21973 0.0
H3504 H 0.60527 0.86349 0.21364 0.0
H3505 H 0.59433 0.84202 0.26656 0.0
H3506 H 0.62181 0.83795 0.27286 0.0
H3507 H 0.70026 0.88267 0.30504 0.0
H3508 H 0.68786 0.87433 0.2757 0.0
H3509 H 0.66175 0.84086 0.30684 0.0
H3510 H 0.67429 0.84892 0.33616 0.0
H3511 H 0.64476 0.85743 0.27746 0.0
H3512 H 0.69126 0.82824 0.2871 0.0
H3513 H 0.71895 0.82531 0.29297 0.0
H3514 H 0.72896 0.85045 0.24228 0.0
H3515 H 0.70131 0.85372 0.23627 0.0
C3516 C 0.63269 0.81262 0.20432 0.0
C3517 C 0.6403 0.81477 0.18699 0.0
C3518 C 0.63743 0.82054 0.22053 0.0
C3519 C 0.64965 0.83102 0.21967 0.0
C3520 C 0.65688 0.83355 0.20218 0.0
C3521 C 0.65231 0.82548 0.18606 0.0
C3522 C 0.65561 0.83855 0.23715 0.0
C3523 C 0.67138 0.83756 0.241 0.0
C3524 C 0.64591 0.84597 0.2504 0.0
C3525 C 0.62937 0.84842 0.24668 0.0
C3526 C 0.62453 0.85571 0.23 0.0
C3527 C 0.60893 0.85792 0.22653 0.0
C3528 C 0.59805 0.85297 0.23968 0.0
C3529 C 0.60276 0.84584 0.25637 0.0
C3530 C 0.61835 0.84359 0.25991 0.0
C3531 C 0.69167 0.87374 0.3057 0.0
C3532 C 0.6883 0.86641 0.32291 0.0
C3533 C 0.68464 0.86896 0.28892 0.0
C3534 C 0.67396 0.85692 0.28911 0.0
C3535 C 0.66994 0.85018 0.30641 0.0
C3536 C 0.67715 0.85477 0.32313 0.0
C3537 C 0.66787 0.85057 0.27115 0.0
C3538 C 0.65215 0.8517 0.26733 0.0
C3539 C 0.6776 0.84341 0.25781 0.0
C3540 C 0.69422 0.84139 0.26136 0.0
C3541 C 0.69937 0.83327 0.27731 0.0
C3542 C 0.71505 0.83152 0.28064 0.0
C3543 C 0.72571 0.83773 0.26804 0.0
C3544 C 0.7207 0.84567 0.25205 0.0
C3545 C 0.70502 0.84747 0.24867 0.0
H3546 H 0.73785 0.83636 0.27064 0.0
H3547 H 0.58598 0.85468 0.23696 0.0
H3548 H 0.12364 0.69975 0.3061 0.0
H3549 H 0.13162 0.68641 0.27733 0.0
H3550 H 0.16217 0.65808 0.31015 0.0
H3551 H 0.15479 0.67197 0.33875 0.0
H3552 H 0.17693 0.66762 0.28202 0.0
H3553 H 0.12756 0.64452 0.28753 0.0
H3554 H 0.09949 0.64361 0.29134 0.0
H3555 H 0.09387 0.66909 0.23992 0.0
H3556 H 0.12191 0.67033 0.23592 0.0
H3557 H 0.19773 0.62077 0.20401 0.0
H3558 H 0.18458 0.62781 0.23342 0.0
H3559 H 0.16212 0.66511 0.20472 0.0
H3560 H 0.17532 0.65827 0.17537 0.0
H3561 H 0.14281 0.64888 0.23099 0.0
H3562 H 0.19266 0.67321 0.22774 0.0
H3563 H 0.22076 0.67327 0.22412 0.0
H3564 H 0.2251 0.64377 0.27237 0.0
H3565 H 0.19699 0.64336 0.2761 0.0
C3566 C 0.13185 0.69048 0.30721 0.0
C3567 C 0.1386 0.68691 0.32468 0.0
C3568 C 0.13637 0.68279 0.29073 0.0
C3569 C 0.14744 0.67107 0.29146 0.0
C3570 C 0.15368 0.66709 0.3091 0.0
C3571 C 0.1494 0.67499 0.32549 0.0
C3572 C 0.15344 0.66384 0.27378 0.0
C3573 C 0.16939 0.66323 0.27111 0.0
C3574 C 0.14373 0.65838 0.25919 0.0
C3575 C 0.12685 0.65762 0.26151 0.0
C3576 C 0.12034 0.65002 0.2771 0.0
C3577 C 0.10443 0.64943 0.27928 0.0
C3578 C 0.09491 0.65631 0.2659 0.0
C3579 C 0.10127 0.66377 0.25028 0.0
C3580 C 0.11717 0.6644 0.24803 0.0
C3581 C 0.18977 0.63029 0.20387 0.0
C3582 C 0.18764 0.63903 0.18739 0.0
C3583 C 0.18231 0.63432 0.22069 0.0
C3584 C 0.17246 0.64705 0.22127 0.0
C3585 C 0.16965 0.65524 0.20458 0.0
C3586 C 0.17725 0.65135 0.18783 0.0
C3587 C 0.16614 0.65266 0.23952 0.0
C3588 C 0.15021 0.65306 0.24217 0.0
C3589 C 0.17584 0.65778 0.25422 0.0
C3590 C 0.19273 0.65811 0.25206 0.0
C3591 C 0.19961 0.66664 0.23748 0.0
C3592 C 0.21553 0.66675 0.23542 0.0
C3593 C 0.22471 0.65849 0.24797 0.0
C3594 C 0.21798 0.65014 0.26264 0.0
C3595 C 0.20205 0.64996 0.26473 0.0
H3596 H 0.23704 0.6586 0.24636 0.0
H3597 H 0.0826 0.65584 0.26762 0.0
H3598 H 0.32314 0.16359 0.3332 0.0
H3599 H 0.3353 0.17121 0.30358 0.0
H3600 H 0.3273 0.12617 0.28061 0.0
H3601 H 0.31495 0.1184 0.3103 0.0
H3602 H 0.35668 0.13941 0.2704 0.0
H3603 H 0.30284 0.15151 0.26965 0.0
H3604 H 0.27906 0.16267 0.28252 0.0
H3605 H 0.29953 0.2074 0.28197 0.0
H3606 H 0.32353 0.19645 0.26936 0.0
H3607 H 0.34135 0.1818 0.1743 0.0
H3608 H 0.33342 0.16832 0.20288 0.0
H3609 H 0.37668 0.1791 0.22905 0.0
H3610 H 0.38477 0.19262 0.20034 0.0
H3611 H 0.32927 0.1811 0.23684 0.0
H3612 H 0.38439 0.15074 0.26238 0.0
H3613 H 0.40751 0.13867 0.2489 0.0
H3614 H 0.38311 0.12869 0.1977 0.0
H3615 H 0.35979 0.14051 0.21096 0.0
C3616 C 0.32417 0.15518 0.322 0.0
C3617 C 0.31794 0.1404 0.32409 0.0
C3618 C 0.33113 0.15958 0.30506 0.0
C3619 C 0.33207 0.14931 0.28984 0.0
C3620 C 0.32669 0.13427 0.2922 0.0
C3621 C 0.3196 0.12986 0.30915 0.0
C3622 C 0.3374 0.15477 0.27106 0.0
C3623 C 0.35073 0.14853 0.26303 0.0
C3624 C 0.32949 0.16651 0.26133 0.0
C3625 C 0.31502 0.17314 0.26873 0.0
C3626 C 0.30231 0.16371 0.27241 0.0
C3627 C 0.28878 0.17 0.27964 0.0
C3628 C 0.2878 0.18573 0.2831 0.0
C3629 C 0.30032 0.19521 0.2793 0.0
C3630 C 0.31388 0.18897 0.2721 0.0
C3631 C 0.34931 0.18113 0.186 0.0
C3632 C 0.36369 0.18836 0.18504 0.0
C3633 C 0.34472 0.17344 0.20238 0.0
C3634 C 0.35442 0.1727 0.21815 0.0
C3635 C 0.36904 0.17939 0.21701 0.0
C3636 C 0.37364 0.18714 0.20059 0.0
C3637 C 0.34873 0.16592 0.23615 0.0
C3638 C 0.33529 0.17197 0.24411 0.0
C3639 C 0.35648 0.15393 0.24565 0.0
C3640 C 0.37039 0.14665 0.2376 0.0
C3641 C 0.38394 0.14592 0.24827 0.0
C3642 C 0.39709 0.13913 0.24067 0.0
C3643 C 0.39679 0.13296 0.22243 0.0
C3644 C 0.38334 0.13353 0.21179 0.0
C3645 C 0.37016 0.1403 0.21933 0.0
H3646 H 0.40698 0.12772 0.21657 0.0
H3647 H 0.27732 0.19057 0.2887 0.0
loop_
_geom_bond_atom_site_label_1
_geom_bond_atom_site_label_2
_geom_bond_distance
_geom_bond_site_symmetry_2
_ccdc_geom_bond_type
O0 Cd1 2.223 . S
O0 C8 1.315 . S
Cd1 O0 2.223 . S
Cd1 O4 2.297 . S
Cd1 O5 2.439 . S
Cd1 O11 2.240 . S
Cd2 O3 2.240 . S
Cd2 O10 2.223 . S
Cd2 O12 2.297 . S
Cd2 O13 2.439 . S
O3 Cd2 2.240 . S
O3 C8 1.279 . S
O4 Cd1 2.297 . S
O4 C6 1.247 . S
O5 Cd1 2.439 . S
O5 C6 1.208 . S
C6 O4 1.247 . S
C6 O5 1.208 . S
C7 O12 1.247 . S
C7 O13 1.208 . S
C8 O0 1.315 . S
C8 O3 1.279 . S
C9 O10 1.315 . S
C9 O11 1.279 . S
O10 Cd2 2.223 . S
O10 C9 1.315 . S
O11 Cd1 2.240 . S
O11 C9 1.279 . S
O12 Cd2 2.297 . S
O12 C7 1.247 . S
O13 Cd2 2.439 . S
O13 C7 1.208 . S
O14 Cd15 2.223 . S
O14 C22 1.315 . S
Cd15 O14 2.223 . S
Cd15 O18 2.297 . S
Cd15 O19 2.439 . S
Cd15 O25 2.240 . S
Cd16 O17 2.240 . S
Cd16 O24 2.223 . S
Cd16 O26 2.297 . S
Cd16 O27 2.439 . S
O17 Cd16 2.240 . S
O17 C22 1.279 . S
O18 Cd15 2.297 . S
O18 C20 1.247 . S
O19 Cd15 2.439 . S
O19 C20 1.208 . S
C20 O18 1.247 . S
C20 O19 1.208 . S
C21 O26 1.247 . S
C21 O27 1.208 . S
C22 O14 1.315 . S
C22 O17 1.279 . S
C23 O24 1.315 . S
C23 O25 1.279 . S
O24 Cd16 2.223 . S
O24 C23 1.315 . S
O25 Cd15 2.240 . S
O25 C23 1.279 . S
O26 Cd16 2.297 . S
O26 C21 1.247 . S
O27 Cd16 2.439 . S
O27 C21 1.208 . S
O28 Cd29 2.223 . S
O28 C36 1.315 . S
Cd29 O28 2.223 . S
Cd29 O32 2.297 . S
Cd29 O33 2.439 . S
Cd29 O39 2.240 . S
Cd30 O31 2.240 . S
Cd30 O38 2.223 . S
Cd30 O40 2.297 . S
Cd30 O41 2.439 . S
O31 Cd30 2.240 . S
O31 C36 1.279 . S
O32 Cd29 2.297 . S
O32 C34 1.247 . S
O33 Cd29 2.439 . S
O33 C34 1.208 . S
C34 O32 1.247 . S
C34 O33 1.208 . S
C35 O40 1.247 . S
C35 O41 1.208 . S
C36 O28 1.315 . S
C36 O31 1.279 . S
C37 O38 1.315 . S
C37 O39 1.279 . S
O38 Cd30 2.223 . S
O38 C37 1.315 . S
O39 Cd29 2.240 . S
O39 C37 1.279 . S
O40 Cd30 2.297 . S
O40 C35 1.247 . S
O41 Cd30 2.439 . S
O41 C35 1.208 . S
O42 Cd43 2.223 . S
O42 C50 1.315 . S
Cd43 O42 2.223 . S
Cd43 O46 2.297 . S
Cd43 O47 2.439 . S
Cd43 O53 2.240 . S
Cd44 O45 2.240 . S
Cd44 O52 2.223 . S
Cd44 O54 2.297 . S
Cd44 O55 2.439 . S
O45 Cd44 2.240 . S
O45 C50 1.279 . S
O46 Cd43 2.297 . S
O46 C48 1.247 . S
O47 Cd43 2.439 . S
O47 C48 1.208 . S
C48 O46 1.247 . S
C48 O47 1.208 . S
C49 O54 1.247 . S
C49 O55 1.208 . S
C50 O42 1.315 . S
C50 O45 1.279 . S
C51 O52 1.315 . S
C51 O53 1.279 . S
O52 Cd44 2.223 . S
O52 C51 1.315 . S
O53 Cd43 2.240 . S
O53 C51 1.279 . S
O54 Cd44 2.297 . S
O54 C49 1.247 . S
O55 Cd44 2.439 . S
O55 C49 1.208 . S
O56 Cd57 2.223 . S
O56 C64 1.315 . S
Cd57 O56 2.223 . S
Cd57 O60 2.297 . S
Cd57 O61 2.439 . S
Cd57 O67 2.240 . S
Cd58 O59 2.240 . S
Cd58 O66 2.223 . S
Cd58 O68 2.297 . S
Cd58 O69 2.439 . S
O59 Cd58 2.240 . S
O59 C64 1.279 . S
O60 Cd57 2.297 . S
O60 C62 1.247 . S
O61 Cd57 2.439 . S
O61 C62 1.208 . S
C62 O60 1.247 . S
C62 O61 1.208 . S
C63 O68 1.247 . S
C63 O69 1.208 . S
C64 O56 1.315 . S
C64 O59 1.279 . S
C65 O66 1.315 . S
C65 O67 1.279 . S
O66 Cd58 2.223 . S
O66 C65 1.315 . S
O67 Cd57 2.240 . S
O67 C65 1.279 . S
O68 Cd58 2.297 . S
O68 C63 1.247 . S
O69 Cd58 2.439 . S
O69 C63 1.208 . S
O70 Cd71 2.223 . S
O70 C78 1.315 . S
Cd71 O70 2.223 . S
Cd71 O74 2.297 . S
Cd71 O75 2.439 . S
Cd71 O81 2.240 . S
Cd72 O73 2.240 . S
Cd72 O80 2.223 . S
Cd72 O82 2.297 . S
Cd72 O83 2.439 . S
O73 Cd72 2.240 . S
O73 C78 1.279 . S
O74 Cd71 2.297 . S
O74 C76 1.247 . S
O75 Cd71 2.439 . S
O75 C76 1.208 . S
C76 O74 1.247 . S
C76 O75 1.208 . S
C77 O82 1.247 . S
C77 O83 1.208 . S
C78 O70 1.315 . S
C78 O73 1.279 . S
C79 O80 1.315 . S
C79 O81 1.279 . S
O80 Cd72 2.223 . S
O80 C79 1.315 . S
O81 Cd71 2.240 . S
O81 C79 1.279 . S
O82 Cd72 2.297 . S
O82 C77 1.247 . S
O83 Cd72 2.439 . S
O83 C77 1.208 . S
O84 Cd85 2.223 . S
O84 C92 1.315 . S
Cd85 O84 2.223 . S
Cd85 O88 2.297 . S
Cd85 O89 2.439 . S
Cd85 O95 2.240 . S
Cd86 O87 2.240 . S
Cd86 O94 2.223 . S
Cd86 O96 2.297 . S
Cd86 O97 2.439 . S
O87 Cd86 2.240 . S
O87 C92 1.279 . S
O88 Cd85 2.297 . S
O88 C90 1.247 . S
O89 Cd85 2.439 . S
O89 C90 1.208 . S
C90 O88 1.247 . S
C90 O89 1.208 . S
C91 O96 1.247 . S
C91 O97 1.208 . S
C92 O84 1.315 . S
C92 O87 1.279 . S
C93 O94 1.315 . S
C93 O95 1.279 . S
O94 Cd86 2.223 . S
O94 C93 1.315 . S
O95 Cd85 2.240 . S
O95 C93 1.279 . S
O96 Cd86 2.297 . S
O96 C91 1.247 . S
O97 Cd86 2.439 . S
O97 C91 1.208 . S
O98 Cd99 2.223 . S
O98 C106 1.315 . S
Cd99 O98 2.223 . S
Cd99 O102 2.297 . S
Cd99 O103 2.439 . S
Cd99 O109 2.240 . S
Cd100 O101 2.240 . S
Cd100 O108 2.223 . S
Cd100 O110 2.297 . S
Cd100 O111 2.439 . S
O101 Cd100 2.240 . S
O101 C106 1.279 . S
O102 Cd99 2.297 . S
O102 C104 1.247 . S
O103 Cd99 2.439 . S
O103 C104 1.208 . S
C104 O102 1.247 . S
C104 O103 1.208 . S
C105 O110 1.247 . S
C105 O111 1.208 . S
C106 O98 1.315 . S
C106 O101 1.279 . S
C107 O108 1.315 . S
C107 O109 1.279 . S
O108 Cd100 2.223 . S
O108 C107 1.315 . S
O109 Cd99 2.240 . S
O109 C107 1.279 . S
O110 Cd100 2.297 . S
O110 C105 1.247 . S
O111 Cd100 2.439 . S
O111 C105 1.208 . S
O112 Cd113 2.223 . S
O112 C120 1.315 . S
Cd113 O112 2.223 . S
Cd113 O116 2.297 . S
Cd113 O117 2.439 . S
Cd113 O123 2.240 . S
Cd114 O115 2.240 . S
Cd114 O122 2.223 . S
Cd114 O124 2.297 . S
Cd114 O125 2.439 . S
O115 Cd114 2.240 . S
O115 C120 1.279 . S
O116 Cd113 2.297 . S
O116 C118 1.247 . S
O117 Cd113 2.439 . S
O117 C118 1.208 . S
C118 O116 1.247 . S
C118 O117 1.208 . S
C119 O124 1.247 . S
C119 O125 1.208 . S
C120 O112 1.315 . S
C120 O115 1.279 . S
C121 O122 1.315 . S
C121 O123 1.279 . S
O122 Cd114 2.223 . S
O122 C121 1.315 . S
O123 Cd113 2.240 . S
O123 C121 1.279 . S
O124 Cd114 2.297 . S
O124 C119 1.247 . S
O125 Cd114 2.439 . S
O125 C119 1.208 . S
O126 Cd127 2.223 . S
O126 C134 1.315 . S
Cd127 O126 2.223 . S
Cd127 O130 2.297 . S
Cd127 O131 2.439 . S
Cd127 O137 2.240 . S
Cd128 O129 2.240 . S
Cd128 O136 2.223 . S
Cd128 O138 2.297 . S
Cd128 O139 2.439 . S
O129 Cd128 2.240 . S
O129 C134 1.279 . S
O130 Cd127 2.297 . S
O130 C132 1.247 . S
O131 Cd127 2.439 . S
O131 C132 1.208 . S
C132 O130 1.247 . S
C132 O131 1.208 . S
C133 O138 1.247 . S
C133 O139 1.208 . S
C134 O126 1.315 . S
C134 O129 1.279 . S
C135 O136 1.315 . S
C135 O137 1.279 . S
O136 Cd128 2.223 . S
O136 C135 1.315 . S
O137 Cd127 2.240 . S
O137 C135 1.279 . S
O138 Cd128 2.297 . S
O138 C133 1.247 . S
O139 Cd128 2.439 . S
O139 C133 1.208 . S
O140 Cd141 2.223 . S
O140 C148 1.315 . S
Cd141 O140 2.223 . S
Cd141 O144 2.297 . S
Cd141 O145 2.439 . S
Cd141 O151 2.240 . S
Cd142 O143 2.240 . S
Cd142 O150 2.223 . S
Cd142 O152 2.297 . S
Cd142 O153 2.439 . S
O143 Cd142 2.240 . S
O143 C148 1.279 . S
O144 Cd141 2.297 . S
O144 C146 1.247 . S
O145 Cd141 2.439 . S
O145 C146 1.208 . S
C146 O144 1.247 . S
C146 O145 1.208 . S
C147 O152 1.247 . S
C147 O153 1.208 . S
C148 O140 1.315 . S
C148 O143 1.279 . S
C149 O150 1.315 . S
C149 O151 1.279 . S
O150 Cd142 2.223 . S
O150 C149 1.315 . S
O151 Cd141 2.240 . S
O151 C149 1.279 . S
O152 Cd142 2.297 . S
O152 C147 1.247 . S
O153 Cd142 2.439 . S
O153 C147 1.208 . S
O154 Cd155 2.223 . S
O154 C162 1.315 . S
Cd155 O154 2.223 . S
Cd155 O158 2.297 . S
Cd155 O159 2.439 . S
Cd155 O165 2.240 . S
Cd156 O157 2.240 . S
Cd156 O164 2.223 . S
Cd156 O166 2.297 . S
Cd156 O167 2.439 . S
O157 Cd156 2.240 . S
O157 C162 1.279 . S
O158 Cd155 2.297 . S
O158 C160 1.247 . S
O159 Cd155 2.439 . S
O159 C160 1.208 . S
C160 O158 1.247 . S
C160 O159 1.208 . S
C161 O166 1.247 . S
C161 O167 1.208 . S
C162 O154 1.315 . S
C162 O157 1.279 . S
C163 O164 1.315 . S
C163 O165 1.279 . S
O164 Cd156 2.223 . S
O164 C163 1.315 . S
O165 Cd155 2.240 . S
O165 C163 1.279 . S
O166 Cd156 2.297 . S
O166 C161 1.247 . S
O167 Cd156 2.439 . S
O167 C161 1.208 . S
O168 Cd169 2.223 . S
O168 C176 1.315 . S
Cd169 O168 2.223 . S
Cd169 O172 2.297 . S
Cd169 O173 2.439 . S
Cd169 O179 2.240 . S
Cd170 O171 2.240 . S
Cd170 O178 2.223 . S
Cd170 O180 2.297 . S
Cd170 O181 2.439 . S
O171 Cd170 2.240 . S
O171 C176 1.279 . S
O172 Cd169 2.297 . S
O172 C174 1.247 . S
O173 Cd169 2.439 . S
O173 C174 1.208 . S
C174 O172 1.247 . S
C174 O173 1.208 . S
C175 O180 1.247 . S
C175 O181 1.208 . S
C176 O168 1.315 . S
C176 O171 1.279 . S
C177 O178 1.315 . S
C177 O179 1.279 . S
O178 Cd170 2.223 . S
O178 C177 1.315 . S
O179 Cd169 2.240 . S
O179 C177 1.279 . S
O180 Cd170 2.297 . S
O180 C175 1.247 . S
O181 Cd170 2.439 . S
O181 C175 1.208 . S
O182 Cd183 2.223 . S
O182 C190 1.315 . S
Cd183 O182 2.223 . S
Cd183 O186 2.297 . S
Cd183 O187 2.439 . S
Cd183 O193 2.240 . S
Cd184 O185 2.240 . S
Cd184 O192 2.223 . S
Cd184 O194 2.297 . S
Cd184 O195 2.439 . S
O185 Cd184 2.240 . S
O185 C190 1.279 . S
O186 Cd183 2.297 . S
O186 C188 1.247 . S
O187 Cd183 2.439 . S
O187 C188 1.208 . S
C188 O186 1.247 . S
C188 O187 1.208 . S
C189 O194 1.247 . S
C189 O195 1.208 . S
C190 O182 1.315 . S
C190 O185 1.279 . S
C191 O192 1.315 . S
C191 O193 1.279 . S
O192 Cd184 2.223 . S
O192 C191 1.315 . S
O193 Cd183 2.240 . S
O193 C191 1.279 . S
O194 Cd184 2.297 . S
O194 C189 1.247 . S
O195 Cd184 2.439 . S
O195 C189 1.208 . S
O196 Cd197 2.223 . S
O196 C204 1.315 . S
Cd197 O196 2.223 . S
Cd197 O200 2.297 . S
Cd197 O201 2.439 . S
Cd197 O207 2.240 . S
Cd198 O199 2.240 . S
Cd198 O206 2.223 . S
Cd198 O208 2.297 . S
Cd198 O209 2.439 . S
O199 Cd198 2.240 . S
O199 C204 1.279 . S
O200 Cd197 2.297 . S
O200 C202 1.247 . S
O201 Cd197 2.439 . S
O201 C202 1.208 . S
C202 O200 1.247 . S
C202 O201 1.208 . S
C203 O208 1.247 . S
C203 O209 1.208 . S
C204 O196 1.315 . S
C204 O199 1.279 . S
C205 O206 1.315 . S
C205 O207 1.279 . S
O206 Cd198 2.223 . S
O206 C205 1.315 . S
O207 Cd197 2.240 . S
O207 C205 1.279 . S
O208 Cd198 2.297 . S
O208 C203 1.247 . S
O209 Cd198 2.439 . S
O209 C203 1.208 . S
O210 Cd211 2.223 . S
O210 C218 1.315 . S
Cd211 O210 2.223 . S
Cd211 O214 2.297 . S
Cd211 O215 2.439 . S
Cd211 O221 2.240 . S
Cd212 O213 2.240 . S
Cd212 O220 2.223 . S
Cd212 O222 2.297 . S
Cd212 O223 2.439 . S
O213 Cd212 2.240 . S
O213 C218 1.279 . S
O214 Cd211 2.297 . S
O214 C216 1.247 . S
O215 Cd211 2.439 . S
O215 C216 1.208 . S
C216 O214 1.247 . S
C216 O215 1.208 . S
C217 O222 1.247 . S
C217 O223 1.208 . S
C218 O210 1.315 . S
C218 O213 1.279 . S
C219 O220 1.315 . S
C219 O221 1.279 . S
O220 Cd212 2.223 . S
O220 C219 1.315 . S
O221 Cd211 2.240 . S
O221 C219 1.279 . S
O222 Cd212 2.297 . S
O222 C217 1.247 . S
O223 Cd212 2.439 . S
O223 C217 1.208 . S
O224 Cd225 2.223 . S
O224 C232 1.315 . S
Cd225 O224 2.223 . S
Cd225 O228 2.297 . S
Cd225 O229 2.439 . S
Cd225 O235 2.240 . S
Cd226 O227 2.240 . S
Cd226 O234 2.223 . S
Cd226 O236 2.297 . S
Cd226 O237 2.439 . S
O227 Cd226 2.240 . S
O227 C232 1.279 . S
O228 Cd225 2.297 . S
O228 C230 1.247 . S
O229 Cd225 2.439 . S
O229 C230 1.208 . S
C230 O228 1.247 . S
C230 O229 1.208 . S
C231 O236 1.247 . S
C231 O237 1.208 . S
C232 O224 1.315 . S
C232 O227 1.279 . S
C233 O234 1.315 . S
C233 O235 1.279 . S
O234 Cd226 2.223 . S
O234 C233 1.315 . S
O235 Cd225 2.240 . S
O235 C233 1.279 . S
O236 Cd226 2.297 . S
O236 C231 1.247 . S
O237 Cd226 2.439 . S
O237 C231 1.208 . S
O238 Cd239 2.223 . S
O238 C246 1.315 . S
Cd239 O238 2.223 . S
Cd239 O242 2.297 . S
Cd239 O243 2.439 . S
Cd239 O249 2.240 . S
Cd240 O241 2.240 . S
Cd240 O248 2.223 . S
Cd240 O250 2.297 . S
Cd240 O251 2.439 . S
O241 Cd240 2.240 . S
O241 C246 1.279 . S
O242 Cd239 2.297 . S
O242 C244 1.247 . S
O243 Cd239 2.439 . S
O243 C244 1.208 . S
C244 O242 1.247 . S
C244 O243 1.208 . S
C245 O250 1.247 . S
C245 O251 1.208 . S
C246 O238 1.315 . S
C246 O241 1.279 . S
C247 O248 1.315 . S
C247 O249 1.279 . S
O248 Cd240 2.223 . S
O248 C247 1.315 . S
O249 Cd239 2.240 . S
O249 C247 1.279 . S
O250 Cd240 2.297 . S
O250 C245 1.247 . S
O251 Cd240 2.439 . S
O251 C245 1.208 . S
O252 Cd253 2.223 . S
O252 C260 1.315 . S
Cd253 O252 2.223 . S
Cd253 O256 2.297 . S
Cd253 O257 2.439 . S
Cd253 O263 2.240 . S
Cd254 O255 2.240 . S
Cd254 O262 2.223 . S
Cd254 O264 2.297 . S
Cd254 O265 2.439 . S
O255 Cd254 2.240 . S
O255 C260 1.279 . S
O256 Cd253 2.297 . S
O256 C258 1.247 . S
O257 Cd253 2.439 . S
O257 C258 1.208 . S
C258 O256 1.247 . S
C258 O257 1.208 . S
C259 O264 1.247 . S
C259 O265 1.208 . S
C260 O252 1.315 . S
C260 O255 1.279 . S
C261 O262 1.315 . S
C261 O263 1.279 . S
O262 Cd254 2.223 . S
O262 C261 1.315 . S
O263 Cd253 2.240 . S
O263 C261 1.279 . S
O264 Cd254 2.297 . S
O264 C259 1.247 . S
O265 Cd254 2.439 . S
O265 C259 1.208 . S
O266 Cd267 2.223 . S
O266 C274 1.315 . S
Cd267 O266 2.223 . S
Cd267 O270 2.297 . S
Cd267 O271 2.439 . S
Cd267 O277 2.240 . S
Cd268 O269 2.240 . S
Cd268 O276 2.223 . S
Cd268 O278 2.297 . S
Cd268 O279 2.439 . S
O269 Cd268 2.240 . S
O269 C274 1.279 . S
O270 Cd267 2.297 . S
O270 C272 1.247 . S
O271 Cd267 2.439 . S
O271 C272 1.208 . S
C272 O270 1.247 . S
C272 O271 1.208 . S
C273 O278 1.247 . S
C273 O279 1.208 . S
C274 O266 1.315 . S
C274 O269 1.279 . S
C275 O276 1.315 . S
C275 O277 1.279 . S
O276 Cd268 2.223 . S
O276 C275 1.315 . S
O277 Cd267 2.240 . S
O277 C275 1.279 . S
O278 Cd268 2.297 . S
O278 C273 1.247 . S
O279 Cd268 2.439 . S
O279 C273 1.208 . S
O280 Cd281 2.223 . S
O280 C288 1.315 . S
Cd281 O280 2.223 . S
Cd281 O284 2.297 . S
Cd281 O285 2.439 . S
Cd281 O291 2.240 . S
Cd282 O283 2.240 . S
Cd282 O290 2.223 . S
Cd282 O292 2.297 . S
Cd282 O293 2.439 . S
O283 Cd282 2.240 . S
O283 C288 1.279 . S
O284 Cd281 2.297 . S
O284 C286 1.247 . S
O285 Cd281 2.439 . S
O285 C286 1.208 . S
C286 O284 1.247 . S
C286 O285 1.208 . S
C287 O292 1.247 . S
C287 O293 1.208 . S
C288 O280 1.315 . S
C288 O283 1.279 . S
C289 O290 1.315 . S
C289 O291 1.279 . S
O290 Cd282 2.223 . S
O290 C289 1.315 . S
O291 Cd281 2.240 . S
O291 C289 1.279 . S
O292 Cd282 2.297 . S
O292 C287 1.247 . S
O293 Cd282 2.439 . S
O293 C287 1.208 . S
O294 Cd295 2.223 . S
O294 C302 1.315 . S
Cd295 O294 2.223 . S
Cd295 O298 2.297 . S
Cd295 O299 2.439 . S
Cd295 O305 2.240 . S
Cd296 O297 2.240 . S
Cd296 O304 2.223 . S
Cd296 O306 2.297 . S
Cd296 O307 2.439 . S
O297 Cd296 2.240 . S
O297 C302 1.279 . S
O298 Cd295 2.297 . S
O298 C300 1.247 . S
O299 Cd295 2.439 . S
O299 C300 1.208 . S
C300 O298 1.247 . S
C300 O299 1.208 . S
C301 O306 1.247 . S
C301 O307 1.208 . S
C302 O294 1.315 . S
C302 O297 1.279 . S
C303 O304 1.315 . S
C303 O305 1.279 . S
O304 Cd296 2.223 . S
O304 C303 1.315 . S
O305 Cd295 2.240 . S
O305 C303 1.279 . S
O306 Cd296 2.297 . S
O306 C301 1.247 . S
O307 Cd296 2.439 . S
O307 C301 1.208 . S
O308 Cd309 2.223 . S
O308 C316 1.315 . S
Cd309 O308 2.223 . S
Cd309 O312 2.297 . S
Cd309 O313 2.439 . S
Cd309 O319 2.240 . S
Cd310 O311 2.240 . S
Cd310 O318 2.223 . S
Cd310 O320 2.297 . S
Cd310 O321 2.439 . S
O311 Cd310 2.240 . S
O311 C316 1.279 . S
O312 Cd309 2.297 . S
O312 C314 1.247 . S
O313 Cd309 2.439 . S
O313 C314 1.208 . S
C314 O312 1.247 . S
C314 O313 1.208 . S
C315 O320 1.247 . S
C315 O321 1.208 . S
C316 O308 1.315 . S
C316 O311 1.279 . S
C317 O318 1.315 . S
C317 O319 1.279 . S
O318 Cd310 2.223 . S
O318 C317 1.315 . S
O319 Cd309 2.240 . S
O319 C317 1.279 . S
O320 Cd310 2.297 . S
O320 C315 1.247 . S
O321 Cd310 2.439 . S
O321 C315 1.208 . S
O322 Cd323 2.223 . S
O322 C330 1.315 . S
Cd323 O322 2.223 . S
Cd323 O326 2.297 . S
Cd323 O327 2.439 . S
Cd323 O333 2.240 . S
Cd324 O325 2.240 . S
Cd324 O332 2.223 . S
Cd324 O334 2.297 . S
Cd324 O335 2.439 . S
O325 Cd324 2.240 . S
O325 C330 1.279 . S
O326 Cd323 2.297 . S
O326 C328 1.247 . S
O327 Cd323 2.439 . S
O327 C328 1.208 . S
C328 O326 1.247 . S
C328 O327 1.208 . S
C329 O334 1.247 . S
C329 O335 1.208 . S
C330 O322 1.315 . S
C330 O325 1.279 . S
C331 O332 1.315 . S
C331 O333 1.279 . S
O332 Cd324 2.223 . S
O332 C331 1.315 . S
O333 Cd323 2.240 . S
O333 C331 1.279 . S
O334 Cd324 2.297 . S
O334 C329 1.247 . S
O335 Cd324 2.439 . S
O335 C329 1.208 . S
O336 Cd337 2.223 . S
O336 C344 1.315 . S
Cd337 O336 2.223 . S
Cd337 O340 2.297 . S
Cd337 O341 2.439 . S
Cd337 O347 2.240 . S
Cd338 O339 2.240 . S
Cd338 O346 2.223 . S
Cd338 O348 2.297 . S
Cd338 O349 2.439 . S
O339 Cd338 2.240 . S
O339 C344 1.279 . S
O340 Cd337 2.297 . S
O340 C342 1.247 . S
O341 Cd337 2.439 . S
O341 C342 1.208 . S
C342 O340 1.247 . S
C342 O341 1.208 . S
C343 O348 1.247 . S
C343 O349 1.208 . S
C344 O336 1.315 . S
C344 O339 1.279 . S
C345 O346 1.315 . S
C345 O347 1.279 . S
O346 Cd338 2.223 . S
O346 C345 1.315 . S
O347 Cd337 2.240 . S
O347 C345 1.279 . S
O348 Cd338 2.297 . S
O348 C343 1.247 . S
O349 Cd338 2.439 . S
O349 C343 1.208 . S
O350 Cd351 2.223 . S
O350 C358 1.315 . S
Cd351 O350 2.223 . S
Cd351 O354 2.297 . S
Cd351 O355 2.439 . S
Cd351 O361 2.240 . S
Cd352 O353 2.240 . S
Cd352 O360 2.223 . S
Cd352 O362 2.297 . S
Cd352 O363 2.439 . S
O353 Cd352 2.240 . S
O353 C358 1.279 . S
O354 Cd351 2.297 . S
O354 C356 1.247 . S
O355 Cd351 2.439 . S
O355 C356 1.208 . S
C356 O354 1.247 . S
C356 O355 1.208 . S
C357 O362 1.247 . S
C357 O363 1.208 . S
C358 O350 1.315 . S
C358 O353 1.279 . S
C359 O360 1.315 . S
C359 O361 1.279 . S
O360 Cd352 2.223 . S
O360 C359 1.315 . S
O361 Cd351 2.240 . S
O361 C359 1.279 . S
O362 Cd352 2.297 . S
O362 C357 1.247 . S
O363 Cd352 2.439 . S
O363 C357 1.208 . S
O364 Cd365 2.223 . S
O364 C372 1.315 . S
Cd365 O364 2.223 . S
Cd365 O368 2.297 . S
Cd365 O369 2.439 . S
Cd365 O375 2.240 . S
Cd366 O367 2.240 . S
Cd366 O374 2.223 . S
Cd366 O376 2.297 . S
Cd366 O377 2.439 . S
O367 Cd366 2.240 . S
O367 C372 1.279 . S
O368 Cd365 2.297 . S
O368 C370 1.247 . S
O369 Cd365 2.439 . S
O369 C370 1.208 . S
C370 O368 1.247 . S
C370 O369 1.208 . S
C371 O376 1.247 . S
C371 O377 1.208 . S
C372 O364 1.315 . S
C372 O367 1.279 . S
C373 O374 1.315 . S
C373 O375 1.279 . S
O374 Cd366 2.223 . S
O374 C373 1.315 . S
O375 Cd365 2.240 . S
O375 C373 1.279 . S
O376 Cd366 2.297 . S
O376 C371 1.247 . S
O377 Cd366 2.439 . S
O377 C371 1.208 . S
O378 Cd379 2.223 . S
O378 C386 1.315 . S
Cd379 O378 2.223 . S
Cd379 O382 2.297 . S
Cd379 O383 2.439 . S
Cd379 O389 2.240 . S
Cd380 O381 2.240 . S
Cd380 O388 2.223 . S
Cd380 O390 2.297 . S
Cd380 O391 2.439 . S
O381 Cd380 2.240 . S
O381 C386 1.279 . S
O382 Cd379 2.297 . S
O382 C384 1.247 . S
O383 Cd379 2.439 . S
O383 C384 1.208 . S
C384 O382 1.247 . S
C384 O383 1.208 . S
C385 O390 1.247 . S
C385 O391 1.208 . S
C386 O378 1.315 . S
C386 O381 1.279 . S
C387 O388 1.315 . S
C387 O389 1.279 . S
O388 Cd380 2.223 . S
O388 C387 1.315 . S
O389 Cd379 2.240 . S
O389 C387 1.279 . S
O390 Cd380 2.297 . S
O390 C385 1.247 . S
O391 Cd380 2.439 . S
O391 C385 1.208 . S
O392 Cd393 2.223 . S
O392 C400 1.315 . S
Cd393 O392 2.223 . S
Cd393 O396 2.297 . S
Cd393 O397 2.439 . S
Cd393 O403 2.240 . S
Cd394 O395 2.240 . S
Cd394 O402 2.223 . S
Cd394 O404 2.297 . S
Cd394 O405 2.439 . S
O395 Cd394 2.240 . S
O395 C400 1.279 . S
O396 Cd393 2.297 . S
O396 C398 1.247 . S
O397 Cd393 2.439 . S
O397 C398 1.208 . S
C398 O396 1.247 . S
C398 O397 1.208 . S
C399 O404 1.247 . S
C399 O405 1.208 . S
C400 O392 1.315 . S
C400 O395 1.279 . S
C401 O402 1.315 . S
C401 O403 1.279 . S
O402 Cd394 2.223 . S
O402 C401 1.315 . S
O403 Cd393 2.240 . S
O403 C401 1.279 . S
O404 Cd394 2.297 . S
O404 C399 1.247 . S
O405 Cd394 2.439 . S
O405 C399 1.208 . S
O406 Cd407 2.223 . S
O406 C414 1.315 . S
Cd407 O406 2.223 . S
Cd407 O410 2.297 . S
Cd407 O411 2.439 . S
Cd407 O417 2.240 . S
Cd408 O409 2.240 . S
Cd408 O416 2.223 . S
Cd408 O418 2.297 . S
Cd408 O419 2.439 . S
O409 Cd408 2.240 . S
O409 C414 1.279 . S
O410 Cd407 2.297 . S
O410 C412 1.247 . S
O411 Cd407 2.439 . S
O411 C412 1.208 . S
C412 O410 1.247 . S
C412 O411 1.208 . S
C413 O418 1.247 . S
C413 O419 1.208 . S
C414 O406 1.315 . S
C414 O409 1.279 . S
C415 O416 1.315 . S
C415 O417 1.279 . S
O416 Cd408 2.223 . S
O416 C415 1.315 . S
O417 Cd407 2.240 . S
O417 C415 1.279 . S
O418 Cd408 2.297 . S
O418 C413 1.247 . S
O419 Cd408 2.439 . S
O419 C413 1.208 . S
O420 Cd421 2.223 . S
O420 C428 1.315 . S
Cd421 O420 2.223 . S
Cd421 O424 2.297 . S
Cd421 O425 2.439 . S
Cd421 O431 2.240 . S
Cd422 O423 2.240 . S
Cd422 O430 2.223 . S
Cd422 O432 2.297 . S
Cd422 O433 2.439 . S
O423 Cd422 2.240 . S
O423 C428 1.279 . S
O424 Cd421 2.297 . S
O424 C426 1.247 . S
O425 Cd421 2.439 . S
O425 C426 1.208 . S
C426 O424 1.247 . S
C426 O425 1.208 . S
C427 O432 1.247 . S
C427 O433 1.208 . S
C428 O420 1.315 . S
C428 O423 1.279 . S
C429 O430 1.315 . S
C429 O431 1.279 . S
O430 Cd422 2.223 . S
O430 C429 1.315 . S
O431 Cd421 2.240 . S
O431 C429 1.279 . S
O432 Cd422 2.297 . S
O432 C427 1.247 . S
O433 Cd422 2.439 . S
O433 C427 1.208 . S
O434 Cd435 2.223 . S
O434 C442 1.315 . S
Cd435 O434 2.223 . S
Cd435 O438 2.297 . S
Cd435 O439 2.439 . S
Cd435 O445 2.240 . S
Cd436 O437 2.240 . S
Cd436 O444 2.223 . S
Cd436 O446 2.297 . S
Cd436 O447 2.439 . S
O437 Cd436 2.240 . S
O437 C442 1.279 . S
O438 Cd435 2.297 . S
O438 C440 1.247 . S
O439 Cd435 2.439 . S
O439 C440 1.208 . S
C440 O438 1.247 . S
C440 O439 1.208 . S
C441 O446 1.247 . S
C441 O447 1.208 . S
C442 O434 1.315 . S
C442 O437 1.279 . S
C443 O444 1.315 . S
C443 O445 1.279 . S
O444 Cd436 2.223 . S
O444 C443 1.315 . S
O445 Cd435 2.240 . S
O445 C443 1.279 . S
O446 Cd436 2.297 . S
O446 C441 1.247 . S
O447 Cd436 2.439 . S
O447 C441 1.208 . S
H448 C466 0.951 . S
H449 C468 0.951 . S
H450 C470 0.950 . S
H451 C471 0.950 . S
H452 C473 0.950 . S
H453 C476 0.950 . S
H454 C477 0.950 . S
H455 C479 0.950 . S
H456 C480 0.950 . S
H457 C481 0.951 . S
H458 C483 0.951 . S
H459 C485 0.950 . S
H460 C486 0.950 . S
H461 C488 0.950 . S
H462 C491 0.950 . S
H463 C492 0.950 . S
H464 C494 0.950 . S
H465 C495 0.950 . S
C466 H448 0.951 . S
C466 C467 1.366 . S
C466 C468 1.388 . S
C467 C466 1.366 . S
C467 C471 1.385 . S
C468 H449 0.951 . S
C468 C466 1.388 . S
C468 C469 1.366 . S
C469 C468 1.366 . S
C469 C470 1.414 . S
C469 C472 1.499 . S
C470 H450 0.950 . S
C470 C469 1.414 . S
C470 C471 1.374 . S
C471 H451 0.950 . S
C471 C467 1.385 . S
C471 C470 1.374 . S
C472 C469 1.499 . S
C472 C473 1.373 . S
C472 C474 1.389 . S
C473 H452 0.950 . S
C473 C472 1.373 . S
C473 C489 1.377 . S
C474 C472 1.389 . S
C474 C475 1.524 . S
C474 C488 1.377 . S
C475 C474 1.524 . S
C475 C476 1.397 . S
C475 C480 1.363 . S
C476 H453 0.950 . S
C476 C475 1.397 . S
C476 C477 1.334 . S
C477 H454 0.950 . S
C477 C476 1.334 . S
C477 C478 1.287 . S
C478 C477 1.287 . S
C478 C479 1.524 . S
C478 H497 0.913 . S
C479 H455 0.950 . S
C479 C478 1.524 . S
C479 C480 1.415 . S
C480 H456 0.950 . S
C480 C475 1.363 . S
C480 C479 1.415 . S
C481 H457 0.951 . S
C481 C482 1.366 . S
C481 C483 1.388 . S
C482 C481 1.366 . S
C482 C486 1.385 . S
C483 H458 0.951 . S
C483 C481 1.388 . S
C483 C484 1.366 . S
C484 C483 1.366 . S
C484 C485 1.414 . S
C484 C487 1.499 . S
C485 H459 0.950 . S
C485 C484 1.414 . S
C485 C486 1.374 . S
C486 H460 0.950 . S
C486 C482 1.385 . S
C486 C485 1.374 . S
C487 C484 1.499 . S
C487 C488 1.373 . S
C487 C489 1.389 . S
C488 H461 0.950 . S
C488 C474 1.377 . S
C488 C487 1.373 . S
C489 C473 1.377 . S
C489 C487 1.389 . S
C489 C490 1.524 . S
C490 C489 1.524 . S
C490 C491 1.397 . S
C490 C495 1.363 . S
C491 H462 0.950 . S
C491 C490 1.397 . S
C491 C492 1.334 . S
C492 H463 0.950 . S
C492 C491 1.334 . S
C492 C493 1.287 . S
C493 C492 1.287 . S
C493 C494 1.524 . S
C493 H496 0.999 . S
C494 H464 0.950 . S
C494 C493 1.524 . S
C494 C495 1.415 . S
C495 H465 0.950 . S
C495 C490 1.363 . S
C495 C494 1.415 . S
H496 C493 0.999 . S
H497 C478 0.913 . S
H498 C516 0.951 . S
H499 C518 0.951 . S
H500 C520 0.950 . S
H501 C521 0.950 . S
H502 C523 0.950 . S
H503 C526 0.950 . S
H504 C527 0.950 . S
H505 C529 0.950 . S
H506 C530 0.950 . S
H507 C531 0.951 . S
H508 C533 0.951 . S
H509 C535 0.950 . S
H510 C536 0.950 . S
H511 C538 0.950 . S
H512 C541 0.950 . S
H513 C542 0.950 . S
H514 C544 0.950 . S
H515 C545 0.950 . S
C516 H498 0.951 . S
C516 C517 1.366 . S
C516 C518 1.388 . S
C517 C516 1.366 . S
C517 C521 1.385 . S
C518 H499 0.951 . S
C518 C516 1.388 . S
C518 C519 1.366 . S
C519 C518 1.366 . S
C519 C520 1.414 . S
C519 C522 1.499 . S
C520 H500 0.950 . S
C520 C519 1.414 . S
C520 C521 1.374 . S
C521 H501 0.950 . S
C521 C517 1.385 . S
C521 C520 1.374 . S
C522 C519 1.499 . S
C522 C523 1.373 . S
C522 C524 1.389 . S
C523 H502 0.950 . S
C523 C522 1.373 . S
C523 C539 1.377 . S
C524 C522 1.389 . S
C524 C525 1.524 . S
C524 C538 1.377 . S
C525 C524 1.524 . S
C525 C526 1.397 . S
C525 C530 1.363 . S
C526 H503 0.950 . S
C526 C525 1.397 . S
C526 C527 1.334 . S
C527 H504 0.950 . S
C527 C526 1.334 . S
C527 C528 1.287 . S
C528 C527 1.287 . S
C528 C529 1.524 . S
C528 H547 0.913 . S
C529 H505 0.950 . S
C529 C528 1.524 . S
C529 C530 1.415 . S
C530 H506 0.950 . S
C530 C525 1.363 . S
C530 C529 1.415 . S
C531 H507 0.951 . S
C531 C532 1.366 . S
C531 C533 1.388 . S
C532 C531 1.366 . S
C532 C536 1.385 . S
C533 H508 0.951 . S
C533 C531 1.388 . S
C533 C534 1.366 . S
C534 C533 1.366 . S
C534 C535 1.414 . S
C534 C537 1.499 . S
C535 H509 0.950 . S
C535 C534 1.414 . S
C535 C536 1.374 . S
C536 H510 0.950 . S
C536 C532 1.385 . S
C536 C535 1.374 . S
C537 C534 1.499 . S
C537 C538 1.373 . S
C537 C539 1.389 . S
C538 H511 0.950 . S
C538 C524 1.377 . S
C538 C537 1.373 . S
C539 C523 1.377 . S
C539 C537 1.389 . S
C539 C540 1.524 . S
C540 C539 1.524 . S
C540 C541 1.397 . S
C540 C545 1.363 . S
C541 H512 0.950 . S
C541 C540 1.397 . S
C541 C542 1.334 . S
C542 H513 0.950 . S
C542 C541 1.334 . S
C542 C543 1.287 . S
C543 C542 1.287 . S
C543 C544 1.524 . S
C543 H546 0.999 . S
C544 H514 0.950 . S
C544 C543 1.524 . S
C544 C545 1.415 . S
C545 H515 0.950 . S
C545 C540 1.363 . S
C545 C544 1.415 . S
H546 C543 0.999 . S
H547 C528 0.913 . S
H548 C566 0.951 . S
H549 C568 0.951 . S
H550 C570 0.950 . S
H551 C571 0.950 . S
H552 C573 0.950 . S
H553 C576 0.950 . S
H554 C577 0.950 . S
H555 C579 0.950 . S
H556 C580 0.950 . S
H557 C581 0.951 . S
H558 C583 0.951 . S
H559 C585 0.950 . S
H560 C586 0.950 . S
H561 C588 0.950 . S
H562 C591 0.950 . S
H563 C592 0.950 . S
H564 C594 0.950 . S
H565 C595 0.950 . S
C566 H548 0.951 . S
C566 C567 1.366 . S
C566 C568 1.388 . S
C567 C566 1.366 . S
C567 C571 1.385 . S
C568 H549 0.951 . S
C568 C566 1.388 . S
C568 C569 1.366 . S
C569 C568 1.366 . S
C569 C570 1.414 . S
C569 C572 1.499 . S
C570 H550 0.950 . S
C570 C569 1.414 . S
C570 C571 1.374 . S
C571 H551 0.950 . S
C571 C567 1.385 . S
C571 C570 1.374 . S
C572 C569 1.499 . S
C572 C573 1.373 . S
C572 C574 1.389 . S
C573 H552 0.950 . S
C573 C572 1.373 . S
C573 C589 1.377 . S
C574 C572 1.389 . S
C574 C575 1.524 . S
C574 C588 1.377 . S
C575 C574 1.524 . S
C575 C576 1.397 . S
C575 C580 1.363 . S
C576 H553 0.950 . S
C576 C575 1.397 . S
C576 C577 1.334 . S
C577 H554 0.950 . S
C577 C576 1.334 . S
C577 C578 1.287 . S
C578 C577 1.287 . S
C578 C579 1.524 . S
C578 H597 0.913 . S
C579 H555 0.950 . S
C579 C578 1.524 . S
C579 C580 1.415 . S
C580 H556 0.950 . S
C580 C575 1.363 . S
C580 C579 1.415 . S
C581 H557 0.951 . S
C581 C582 1.366 . S
C581 C583 1.388 . S
C582 C581 1.366 . S
C582 C586 1.385 . S
C583 H558 0.951 . S
C583 C581 1.388 . S
C583 C584 1.366 . S
C584 C583 1.366 . S
C584 C585 1.414 . S
C584 C587 1.499 . S
C585 H559 0.950 . S
C585 C584 1.414 . S
C585 C586 1.374 . S
C586 H560 0.950 . S
C586 C582 1.385 . S
C586 C585 1.374 . S
C587 C584 1.499 . S
C587 C588 1.373 . S
C587 C589 1.389 . S
C588 H561 0.950 . S
C588 C574 1.377 . S
C588 C587 1.373 . S
C589 C573 1.377 . S
C589 C587 1.389 . S
C589 C590 1.524 . S
C590 C589 1.524 . S
C590 C591 1.397 . S
C590 C595 1.363 . S
C591 H562 0.950 . S
C591 C590 1.397 . S
C591 C592 1.334 . S
C592 H563 0.950 . S
C592 C591 1.334 . S
C592 C593 1.287 . S
C593 C592 1.287 . S
C593 C594 1.524 . S
C593 H596 0.999 . S
C594 H564 0.950 . S
C594 C593 1.524 . S
C594 C595 1.415 . S
C595 H565 0.950 . S
C595 C590 1.363 . S
C595 C594 1.415 . S
H596 C593 0.999 . S
H597 C578 0.913 . S
H598 C616 0.951 . S
H599 C618 0.951 . S
H600 C620 0.950 . S
H601 C621 0.950 . S
H602 C623 0.950 . S
H603 C626 0.950 . S
H604 C627 0.950 . S
H605 C629 0.950 . S
H606 C630 0.950 . S
H607 C631 0.951 . S
H608 C633 0.951 . S
H609 C635 0.950 . S
H610 C636 0.950 . S
H611 C638 0.950 . S
H612 C641 0.950 . S
H613 C642 0.950 . S
H614 C644 0.950 . S
H615 C645 0.950 . S
C616 H598 0.951 . S
C616 C617 1.366 . S
C616 C618 1.388 . S
C617 C616 1.366 . S
C617 C621 1.385 . S
C618 H599 0.951 . S
C618 C616 1.388 . S
C618 C619 1.366 . S
C619 C618 1.366 . S
C619 C620 1.414 . S
C619 C622 1.499 . S
C620 H600 0.950 . S
C620 C619 1.414 . S
C620 C621 1.374 . S
C621 H601 0.950 . S
C621 C617 1.385 . S
C621 C620 1.374 . S
C622 C619 1.499 . S
C622 C623 1.373 . S
C622 C624 1.389 . S
C623 H602 0.950 . S
C623 C622 1.373 . S
C623 C639 1.377 . S
C624 C622 1.389 . S
C624 C625 1.524 . S
C624 C638 1.377 . S
C625 C624 1.524 . S
C625 C626 1.397 . S
C625 C630 1.363 . S
C626 H603 0.950 . S
C626 C625 1.397 . S
C626 C627 1.334 . S
C627 H604 0.950 . S
C627 C626 1.334 . S
C627 C628 1.287 . S
C628 C627 1.287 . S
C628 C629 1.524 . S
C628 H647 0.913 . S
C629 H605 0.950 . S
C629 C628 1.524 . S
C629 C630 1.415 . S
C630 H606 0.950 . S
C630 C625 1.363 . S
C630 C629 1.415 . S
C631 H607 0.951 . S
C631 C632 1.366 . S
C631 C633 1.388 . S
C632 C631 1.366 . S
C632 C636 1.385 . S
C633 H608 0.951 . S
C633 C631 1.388 . S
C633 C634 1.366 . S
C634 C633 1.366 . S
C634 C635 1.414 . S
C634 C637 1.499 . S
C635 H609 0.950 . S
C635 C634 1.414 . S
C635 C636 1.374 . S
C636 H610 0.950 . S
C636 C632 1.385 . S
C636 C635 1.374 . S
C637 C634 1.499 . S
C637 C638 1.373 . S
C637 C639 1.389 . S
C638 H611 0.950 . S
C638 C624 1.377 . S
C638 C637 1.373 . S
C639 C623 1.377 . S
C639 C637 1.389 . S
C639 C640 1.524 . S
C640 C639 1.524 . S
C640 C641 1.397 . S
C640 C645 1.363 . S
C641 H612 0.950 . S
C641 C640 1.397 . S
C641 C642 1.334 . S
C642 H613 0.950 . S
C642 C641 1.334 . S
C642 C643 1.287 . S
C643 C642 1.287 . S
C643 C644 1.524 . S
C643 H646 0.999 . S
C644 H614 0.950 . S
C644 C643 1.524 . S
C644 C645 1.415 . S
C645 H615 0.950 . S
C645 C640 1.363 . S
C645 C644 1.415 . S
H646 C643 0.999 . S
H647 C628 0.913 . S
H648 C666 0.951 . S
H649 C668 0.951 . S
H650 C670 0.950 . S
H651 C671 0.950 . S
H652 C673 0.950 . S
H653 C676 0.950 . S
H654 C677 0.950 . S
H655 C679 0.950 . S
H656 C680 0.950 . S
H657 C681 0.951 . S
H658 C683 0.951 . S
H659 C685 0.950 . S
H660 C686 0.950 . S
H661 C688 0.950 . S
H662 C691 0.950 . S
H663 C692 0.950 . S
H664 C694 0.950 . S
H665 C695 0.950 . S
C666 H648 0.951 . S
C666 C667 1.366 . S
C666 C668 1.388 . S
C667 C666 1.366 . S
C667 C671 1.385 . S
C668 H649 0.951 . S
C668 C666 1.388 . S
C668 C669 1.366 . S
C669 C668 1.366 . S
C669 C670 1.414 . S
C669 C672 1.499 . S
C670 H650 0.950 . S
C670 C669 1.414 . S
C670 C671 1.374 . S
C671 H651 0.950 . S
C671 C667 1.385 . S
C671 C670 1.374 . S
C672 C669 1.499 . S
C672 C673 1.373 . S
C672 C674 1.389 . S
C673 H652 0.950 . S
C673 C672 1.373 . S
C673 C689 1.377 . S
C674 C672 1.389 . S
C674 C675 1.524 . S
C674 C688 1.377 . S
C675 C674 1.524 . S
C675 C676 1.397 . S
C675 C680 1.363 . S
C676 H653 0.950 . S
C676 C675 1.397 . S
C676 C677 1.334 . S
C677 H654 0.950 . S
C677 C676 1.334 . S
C677 C678 1.287 . S
C678 C677 1.287 . S
C678 C679 1.524 . S
C678 H697 0.913 . S
C679 H655 0.950 . S
C679 C678 1.524 . S
C679 C680 1.415 . S
C680 H656 0.950 . S
C680 C675 1.363 . S
C680 C679 1.415 . S
C681 H657 0.951 . S
C681 C682 1.366 . S
C681 C683 1.388 . S
C682 C681 1.366 . S
C682 C686 1.385 . S
C683 H658 0.951 . S
C683 C681 1.388 . S
C683 C684 1.366 . S
C684 C683 1.366 . S
C684 C685 1.414 . S
C684 C687 1.499 . S
C685 H659 0.950 . S
C685 C684 1.414 . S
C685 C686 1.374 . S
C686 H660 0.950 . S
C686 C682 1.385 . S
C686 C685 1.374 . S
C687 C684 1.499 . S
C687 C688 1.373 . S
C687 C689 1.389 . S
C688 H661 0.950 . S
C688 C674 1.377 . S
C688 C687 1.373 . S
C689 C673 1.377 . S
C689 C687 1.389 . S
C689 C690 1.524 . S
C690 C689 1.524 . S
C690 C691 1.397 . S
C690 C695 1.363 . S
C691 H662 0.950 . S
C691 C690 1.397 . S
C691 C692 1.334 . S
C692 H663 0.950 . S
C692 C691 1.334 . S
C692 C693 1.287 . S
C693 C692 1.287 . S
C693 C694 1.524 . S
C693 H696 0.999 . S
C694 H664 0.950 . S
C694 C693 1.524 . S
C694 C695 1.415 . S
C695 H665 0.950 . S
C695 C690 1.363 . S
C695 C694 1.415 . S
H696 C693 0.999 . S
H697 C678 0.913 . S
H698 C716 0.951 . S
H699 C718 0.951 . S
H700 C720 0.950 . S
H701 C721 0.950 . S
H702 C723 0.950 . S
H703 C726 0.950 . S
H704 C727 0.950 . S
H705 C729 0.950 . S
H706 C730 0.950 . S
H707 C731 0.951 . S
H708 C733 0.951 . S
H709 C735 0.950 . S
H710 C736 0.950 . S
H711 C738 0.950 . S
H712 C741 0.950 . S
H713 C742 0.950 . S
H714 C744 0.950 . S
H715 C745 0.950 . S
C716 H698 0.951 . S
C716 C717 1.366 . S
C716 C718 1.388 . S
C717 C716 1.366 . S
C717 C721 1.385 . S
C718 H699 0.951 . S
C718 C716 1.388 . S
C718 C719 1.366 . S
C719 C718 1.366 . S
C719 C720 1.414 . S
C719 C722 1.499 . S
C720 H700 0.950 . S
C720 C719 1.414 . S
C720 C721 1.374 . S
C721 H701 0.950 . S
C721 C717 1.385 . S
C721 C720 1.374 . S
C722 C719 1.499 . S
C722 C723 1.373 . S
C722 C724 1.389 . S
C723 H702 0.950 . S
C723 C722 1.373 . S
C723 C739 1.377 . S
C724 C722 1.389 . S
C724 C725 1.524 . S
C724 C738 1.377 . S
C725 C724 1.524 . S
C725 C726 1.397 . S
C725 C730 1.363 . S
C726 H703 0.950 . S
C726 C725 1.397 . S
C726 C727 1.334 . S
C727 H704 0.950 . S
C727 C726 1.334 . S
C727 C728 1.287 . S
C728 C727 1.287 . S
C728 C729 1.524 . S
C728 H747 0.913 . S
C729 H705 0.950 . S
C729 C728 1.524 . S
C729 C730 1.415 . S
C730 H706 0.950 . S
C730 C725 1.363 . S
C730 C729 1.415 . S
C731 H707 0.951 . S
C731 C732 1.366 . S
C731 C733 1.388 . S
C732 C731 1.366 . S
C732 C736 1.385 . S
C733 H708 0.951 . S
C733 C731 1.388 . S
C733 C734 1.366 . S
C734 C733 1.366 . S
C734 C735 1.414 . S
C734 C737 1.499 . S
C735 H709 0.950 . S
C735 C734 1.414 . S
C735 C736 1.374 . S
C736 H710 0.950 . S
C736 C732 1.385 . S
C736 C735 1.374 . S
C737 C734 1.499 . S
C737 C738 1.373 . S
C737 C739 1.389 . S
C738 H711 0.950 . S
C738 C724 1.377 . S
C738 C737 1.373 . S
C739 C723 1.377 . S
C739 C737 1.389 . S
C739 C740 1.524 . S
C740 C739 1.524 . S
C740 C741 1.397 . S
C740 C745 1.363 . S
C741 H712 0.950 . S
C741 C740 1.397 . S
C741 C742 1.334 . S
C742 H713 0.950 . S
C742 C741 1.334 . S
C742 C743 1.287 . S
C743 C742 1.287 . S
C743 C744 1.524 . S
C743 H746 0.999 . S
C744 H714 0.950 . S
C744 C743 1.524 . S
C744 C745 1.415 . S
C745 H715 0.950 . S
C745 C740 1.363 . S
C745 C744 1.415 . S
H746 C743 0.999 . S
H747 C728 0.913 . S
H748 C766 0.951 . S
H749 C768 0.951 . S
H750 C770 0.950 . S
H751 C771 0.950 . S
H752 C773 0.950 . S
H753 C776 0.950 . S
H754 C777 0.950 . S
H755 C779 0.950 . S
H756 C780 0.950 . S
H757 C781 0.951 . S
H758 C783 0.951 . S
H759 C785 0.950 . S
H760 C786 0.950 . S
H761 C788 0.950 . S
H762 C791 0.950 . S
H763 C792 0.950 . S
H764 C794 0.950 . S
H765 C795 0.950 . S
C766 H748 0.951 . S
C766 C767 1.366 . S
C766 C768 1.388 . S
C767 C766 1.366 . S
C767 C771 1.385 . S
C768 H749 0.951 . S
C768 C766 1.388 . S
C768 C769 1.366 . S
C769 C768 1.366 . S
C769 C770 1.414 . S
C769 C772 1.499 . S
C770 H750 0.950 . S
C770 C769 1.414 . S
C770 C771 1.374 . S
C771 H751 0.950 . S
C771 C767 1.385 . S
C771 C770 1.374 . S
C772 C769 1.499 . S
C772 C773 1.373 . S
C772 C774 1.389 . S
C773 H752 0.950 . S
C773 C772 1.373 . S
C773 C789 1.377 . S
C774 C772 1.389 . S
C774 C775 1.524 . S
C774 C788 1.377 . S
C775 C774 1.524 . S
C775 C776 1.397 . S
C775 C780 1.363 . S
C776 H753 0.950 . S
C776 C775 1.397 . S
C776 C777 1.334 . S
C777 H754 0.950 . S
C777 C776 1.334 . S
C777 C778 1.287 . S
C778 C777 1.287 . S
C778 C779 1.524 . S
C778 H797 0.913 . S
C779 H755 0.950 . S
C779 C778 1.524 . S
C779 C780 1.415 . S
C780 H756 0.950 . S
C780 C775 1.363 . S
C780 C779 1.415 . S
C781 H757 0.951 . S
C781 C782 1.366 . S
C781 C783 1.388 . S
C782 C781 1.366 . S
C782 C786 1.385 . S
C783 H758 0.951 . S
C783 C781 1.388 . S
C783 C784 1.366 . S
C784 C783 1.366 . S
C784 C785 1.414 . S
C784 C787 1.499 . S
C785 H759 0.950 . S
C785 C784 1.414 . S
C785 C786 1.374 . S
C786 H760 0.950 . S
C786 C782 1.385 . S
C786 C785 1.374 . S
C787 C784 1.499 . S
C787 C788 1.373 . S
C787 C789 1.389 . S
C788 H761 0.950 . S
C788 C774 1.377 . S
C788 C787 1.373 . S
C789 C773 1.377 . S
C789 C787 1.389 . S
C789 C790 1.524 . S
C790 C789 1.524 . S
C790 C791 1.397 . S
C790 C795 1.363 . S
C791 H762 0.950 . S
C791 C790 1.397 . S
C791 C792 1.334 . S
C792 H763 0.950 . S
C792 C791 1.334 . S
C792 C793 1.287 . S
C793 C792 1.287 . S
C793 C794 1.524 . S
C793 H796 0.999 . S
C794 H764 0.950 . S
C794 C793 1.524 . S
C794 C795 1.415 . S
C795 H765 0.950 . S
C795 C790 1.363 . S
C795 C794 1.415 . S
H796 C793 0.999 . S
H797 C778 0.913 . S
H798 C816 0.951 . S
H799 C818 0.951 . S
H800 C820 0.950 . S
H801 C821 0.950 . S
H802 C823 0.950 . S
H803 C826 0.950 . S
H804 C827 0.950 . S
H805 C829 0.950 . S
H806 C830 0.950 . S
H807 C831 0.951 . S
H808 C833 0.951 . S
H809 C835 0.950 . S
H810 C836 0.950 . S
H811 C838 0.950 . S
H812 C841 0.950 . S
H813 C842 0.950 . S
H814 C844 0.950 . S
H815 C845 0.950 . S
C816 H798 0.951 . S
C816 C817 1.366 . S
C816 C818 1.388 . S
C817 C816 1.366 . S
C817 C821 1.385 . S
C818 H799 0.951 . S
C818 C816 1.388 . S
C818 C819 1.366 . S
C819 C818 1.366 . S
C819 C820 1.414 . S
C819 C822 1.499 . S
C820 H800 0.950 . S
C820 C819 1.414 . S
C820 C821 1.374 . S
C821 H801 0.950 . S
C821 C817 1.385 . S
C821 C820 1.374 . S
C822 C819 1.499 . S
C822 C823 1.373 . S
C822 C824 1.389 . S
C823 H802 0.950 . S
C823 C822 1.373 . S
C823 C839 1.377 . S
C824 C822 1.389 . S
C824 C825 1.524 . S
C824 C838 1.377 . S
C825 C824 1.524 . S
C825 C826 1.397 . S
C825 C830 1.363 . S
C826 H803 0.950 . S
C826 C825 1.397 . S
C826 C827 1.334 . S
C827 H804 0.950 . S
C827 C826 1.334 . S
C827 C828 1.287 . S
C828 C827 1.287 . S
C828 C829 1.524 . S
C828 H847 0.913 . S
C829 H805 0.950 . S
C829 C828 1.524 . S
C829 C830 1.415 . S
C830 H806 0.950 . S
C830 C825 1.363 . S
C830 C829 1.415 . S
C831 H807 0.951 . S
C831 C832 1.366 . S
C831 C833 1.388 . S
C832 C831 1.366 . S
C832 C836 1.385 . S
C833 H808 0.951 . S
C833 C831 1.388 . S
C833 C834 1.366 . S
C834 C833 1.366 . S
C834 C835 1.414 . S
C834 C837 1.499 . S
C835 H809 0.950 . S
C835 C834 1.414 . S
C835 C836 1.374 . S
C836 H810 0.950 . S
C836 C832 1.385 . S
C836 C835 1.374 . S
C837 C834 1.499 . S
C837 C838 1.373 . S
C837 C839 1.389 . S
C838 H811 0.950 . S
C838 C824 1.377 . S
C838 C837 1.373 . S
C839 C823 1.377 . S
C839 C837 1.389 . S
C839 C840 1.524 . S
C840 C839 1.524 . S
C840 C841 1.397 . S
C840 C845 1.363 . S
C841 H812 0.950 . S
C841 C840 1.397 . S
C841 C842 1.334 . S
C842 H813 0.950 . S
C842 C841 1.334 . S
C842 C843 1.287 . S
C843 C842 1.287 . S
C843 C844 1.524 . S
C843 H846 0.999 . S
C844 H814 0.950 . S
C844 C843 1.524 . S
C844 C845 1.415 . S
C845 H815 0.950 . S
C845 C840 1.363 . S
C845 C844 1.415 . S
H846 C843 0.999 . S
H847 C828 0.913 . S
H848 C866 0.951 . S
H849 C868 0.951 . S
H850 C870 0.950 . S
H851 C871 0.950 . S
H852 C873 0.950 . S
H853 C876 0.950 . S
H854 C877 0.950 . S
H855 C879 0.950 . S
H856 C880 0.950 . S
H857 C881 0.951 . S
H858 C883 0.951 . S
H859 C885 0.950 . S
H860 C886 0.950 . S
H861 C888 0.950 . S
H862 C891 0.950 . S
H863 C892 0.950 . S
H864 C894 0.950 . S
H865 C895 0.950 . S
C866 H848 0.951 . S
C866 C867 1.366 . S
C866 C868 1.388 . S
C867 C866 1.366 . S
C867 C871 1.385 . S
C868 H849 0.951 . S
C868 C866 1.388 . S
C868 C869 1.366 . S
C869 C868 1.366 . S
C869 C870 1.414 . S
C869 C872 1.499 . S
C870 H850 0.950 . S
C870 C869 1.414 . S
C870 C871 1.374 . S
C871 H851 0.950 . S
C871 C867 1.385 . S
C871 C870 1.374 . S
C872 C869 1.499 . S
C872 C873 1.373 . S
C872 C874 1.389 . S
C873 H852 0.950 . S
C873 C872 1.373 . S
C873 C889 1.377 . S
C874 C872 1.389 . S
C874 C875 1.524 . S
C874 C888 1.377 . S
C875 C874 1.524 . S
C875 C876 1.397 . S
C875 C880 1.363 . S
C876 H853 0.950 . S
C876 C875 1.397 . S
C876 C877 1.334 . S
C877 H854 0.950 . S
C877 C876 1.334 . S
C877 C878 1.287 . S
C878 C877 1.287 . S
C878 C879 1.524 . S
C878 H897 0.913 . S
C879 H855 0.950 . S
C879 C878 1.524 . S
C879 C880 1.415 . S
C880 H856 0.950 . S
C880 C875 1.363 . S
C880 C879 1.415 . S
C881 H857 0.951 . S
C881 C882 1.366 . S
C881 C883 1.388 . S
C882 C881 1.366 . S
C882 C886 1.385 . S
C883 H858 0.951 . S
C883 C881 1.388 . S
C883 C884 1.366 . S
C884 C883 1.366 . S
C884 C885 1.414 . S
C884 C887 1.499 . S
C885 H859 0.950 . S
C885 C884 1.414 . S
C885 C886 1.374 . S
C886 H860 0.950 . S
C886 C882 1.385 . S
C886 C885 1.374 . S
C887 C884 1.499 . S
C887 C888 1.373 . S
C887 C889 1.389 . S
C888 H861 0.950 . S
C888 C874 1.377 . S
C888 C887 1.373 . S
C889 C873 1.377 . S
C889 C887 1.389 . S
C889 C890 1.524 . S
C890 C889 1.524 . S
C890 C891 1.397 . S
C890 C895 1.363 . S
C891 H862 0.950 . S
C891 C890 1.397 . S
C891 C892 1.334 . S
C892 H863 0.950 . S
C892 C891 1.334 . S
C892 C893 1.287 . S
C893 C892 1.287 . S
C893 C894 1.524 . S
C893 H896 0.999 . S
C894 H864 0.950 . S
C894 C893 1.524 . S
C894 C895 1.415 . S
C895 H865 0.950 . S
C895 C890 1.363 . S
C895 C894 1.415 . S
H896 C893 0.999 . S
H897 C878 0.913 . S
H898 C916 0.951 . S
H899 C918 0.951 . S
H900 C920 0.950 . S
H901 C921 0.950 . S
H902 C923 0.950 . S
H903 C926 0.950 . S
H904 C927 0.950 . S
H905 C929 0.950 . S
H906 C930 0.950 . S
H907 C931 0.951 . S
H908 C933 0.951 . S
H909 C935 0.950 . S
H910 C936 0.950 . S
H911 C938 0.950 . S
H912 C941 0.950 . S
H913 C942 0.950 . S
H914 C944 0.950 . S
H915 C945 0.950 . S
C916 H898 0.951 . S
C916 C917 1.366 . S
C916 C918 1.388 . S
C917 C916 1.366 . S
C917 C921 1.385 . S
C918 H899 0.951 . S
C918 C916 1.388 . S
C918 C919 1.366 . S
C919 C918 1.366 . S
C919 C920 1.414 . S
C919 C922 1.499 . S
C920 H900 0.950 . S
C920 C919 1.414 . S
C920 C921 1.374 . S
C921 H901 0.950 . S
C921 C917 1.385 . S
C921 C920 1.374 . S
C922 C919 1.499 . S
C922 C923 1.373 . S
C922 C924 1.389 . S
C923 H902 0.950 . S
C923 C922 1.373 . S
C923 C939 1.377 . S
C924 C922 1.389 . S
C924 C925 1.524 . S
C924 C938 1.377 . S
C925 C924 1.524 . S
C925 C926 1.397 . S
C925 C930 1.363 . S
C926 H903 0.950 . S
C926 C925 1.397 . S
C926 C927 1.334 . S
C927 H904 0.950 . S
C927 C926 1.334 . S
C927 C928 1.287 . S
C928 C927 1.287 . S
C928 C929 1.524 . S
C928 H947 0.913 . S
C929 H905 0.950 . S
C929 C928 1.524 . S
C929 C930 1.415 . S
C930 H906 0.950 . S
C930 C925 1.363 . S
C930 C929 1.415 . S
C931 H907 0.951 . S
C931 C932 1.366 . S
C931 C933 1.388 . S
C932 C931 1.366 . S
C932 C936 1.385 . S
C933 H908 0.951 . S
C933 C931 1.388 . S
C933 C934 1.366 . S
C934 C933 1.366 . S
C934 C935 1.414 . S
C934 C937 1.499 . S
C935 H909 0.950 . S
C935 C934 1.414 . S
C935 C936 1.374 . S
C936 H910 0.950 . S
C936 C932 1.385 . S
C936 C935 1.374 . S
C937 C934 1.499 . S
C937 C938 1.373 . S
C937 C939 1.389 . S
C938 H911 0.950 . S
C938 C924 1.377 . S
C938 C937 1.373 . S
C939 C923 1.377 . S
C939 C937 1.389 . S
C939 C940 1.524 . S
C940 C939 1.524 . S
C940 C941 1.397 . S
C940 C945 1.363 . S
C941 H912 0.950 . S
C941 C940 1.397 . S
C941 C942 1.334 . S
C942 H913 0.950 . S
C942 C941 1.334 . S
C942 C943 1.287 . S
C943 C942 1.287 . S
C943 C944 1.524 . S
C943 H946 0.999 . S
C944 H914 0.950 . S
C944 C943 1.524 . S
C944 C945 1.415 . S
C945 H915 0.950 . S
C945 C940 1.363 . S
C945 C944 1.415 . S
H946 C943 0.999 . S
H947 C928 0.913 . S
H948 C966 0.951 . S
H949 C968 0.951 . S
H950 C970 0.950 . S
H951 C971 0.950 . S
H952 C973 0.950 . S
H953 C976 0.950 . S
H954 C977 0.950 . S
H955 C979 0.950 . S
H956 C980 0.950 . S
H957 C981 0.951 . S
H958 C983 0.951 . S
H959 C985 0.950 . S
H960 C986 0.950 . S
H961 C988 0.950 . S
H962 C991 0.950 . S
H963 C992 0.950 . S
H964 C994 0.950 . S
H965 C995 0.950 . S
C966 H948 0.951 . S
C966 C967 1.366 . S
C966 C968 1.388 . S
C967 C966 1.366 . S
C967 C971 1.385 . S
C968 H949 0.951 . S
C968 C966 1.388 . S
C968 C969 1.366 . S
C969 C968 1.366 . S
C969 C970 1.414 . S
C969 C972 1.499 . S
C970 H950 0.950 . S
C970 C969 1.414 . S
C970 C971 1.374 . S
C971 H951 0.950 . S
C971 C967 1.385 . S
C971 C970 1.374 . S
C972 C969 1.499 . S
C972 C973 1.373 . S
C972 C974 1.389 . S
C973 H952 0.950 . S
C973 C972 1.373 . S
C973 C989 1.377 . S
C974 C972 1.389 . S
C974 C975 1.524 . S
C974 C988 1.377 . S
C975 C974 1.524 . S
C975 C976 1.397 . S
C975 C980 1.363 . S
C976 H953 0.950 . S
C976 C975 1.397 . S
C976 C977 1.334 . S
C977 H954 0.950 . S
C977 C976 1.334 . S
C977 C978 1.287 . S
C978 C977 1.287 . S
C978 C979 1.524 . S
C978 H997 0.913 . S
C979 H955 0.950 . S
C979 C978 1.524 . S
C979 C980 1.415 . S
C980 H956 0.950 . S
C980 C975 1.363 . S
C980 C979 1.415 . S
C981 H957 0.951 . S
C981 C982 1.366 . S
C981 C983 1.388 . S
C982 C981 1.366 . S
C982 C986 1.385 . S
C983 H958 0.951 . S
C983 C981 1.388 . S
C983 C984 1.366 . S
C984 C983 1.366 . S
C984 C985 1.414 . S
C984 C987 1.499 . S
C985 H959 0.950 . S
C985 C984 1.414 . S
C985 C986 1.374 . S
C986 H960 0.950 . S
C986 C982 1.385 . S
C986 C985 1.374 . S
C987 C984 1.499 . S
C987 C988 1.373 . S
C987 C989 1.389 . S
C988 H961 0.950 . S
C988 C974 1.377 . S
C988 C987 1.373 . S
C989 C973 1.377 . S
C989 C987 1.389 . S
C989 C990 1.524 . S
C990 C989 1.524 . S
C990 C991 1.397 . S
C990 C995 1.363 . S
C991 H962 0.950 . S
C991 C990 1.397 . S
C991 C992 1.334 . S
C992 H963 0.950 . S
C992 C991 1.334 . S
C992 C993 1.287 . S
C993 C992 1.287 . S
C993 C994 1.524 . S
C993 H996 0.999 . S
C994 H964 0.950 . S
C994 C993 1.524 . S
C994 C995 1.415 . S
C995 H965 0.950 . S
C995 C990 1.363 . S
C995 C994 1.415 . S
H996 C993 0.999 . S
H997 C978 0.913 . S
H998 C1016 0.951 . S
H999 C1018 0.951 . S
H1000 C1020 0.950 . S
H1001 C1021 0.950 . S
H1002 C1023 0.950 . S
H1003 C1026 0.950 . S
H1004 C1027 0.950 . S
H1005 C1029 0.950 . S
H1006 C1030 0.950 . S
H1007 C1031 0.951 . S
H1008 C1033 0.951 . S
H1009 C1035 0.950 . S
H1010 C1036 0.950 . S
H1011 C1038 0.950 . S
H1012 C1041 0.950 . S
H1013 C1042 0.950 . S
H1014 C1044 0.950 . S
H1015 C1045 0.950 . S
C1016 H998 0.951 . S
C1016 C1017 1.366 . S
C1016 C1018 1.388 . S
C1017 C1016 1.366 . S
C1017 C1021 1.385 . S
C1018 H999 0.951 . S
C1018 C1016 1.388 . S
C1018 C1019 1.366 . S
C1019 C1018 1.366 . S
C1019 C1020 1.414 . S
C1019 C1022 1.499 . S
C1020 H1000 0.950 . S
C1020 C1019 1.414 . S
C1020 C1021 1.374 . S
C1021 H1001 0.950 . S
C1021 C1017 1.385 . S
C1021 C1020 1.374 . S
C1022 C1019 1.499 . S
C1022 C1023 1.373 . S
C1022 C1024 1.389 . S
C1023 H1002 0.950 . S
C1023 C1022 1.373 . S
C1023 C1039 1.377 . S
C1024 C1022 1.389 . S
C1024 C1025 1.524 . S
C1024 C1038 1.377 . S
C1025 C1024 1.524 . S
C1025 C1026 1.397 . S
C1025 C1030 1.363 . S
C1026 H1003 0.950 . S
C1026 C1025 1.397 . S
C1026 C1027 1.334 . S
C1027 H1004 0.950 . S
C1027 C1026 1.334 . S
C1027 C1028 1.287 . S
C1028 C1027 1.287 . S
C1028 C1029 1.524 . S
C1028 H1047 0.913 . S
C1029 H1005 0.950 . S
C1029 C1028 1.524 . S
C1029 C1030 1.415 . S
C1030 H1006 0.950 . S
C1030 C1025 1.363 . S
C1030 C1029 1.415 . S
C1031 H1007 0.951 . S
C1031 C1032 1.366 . S
C1031 C1033 1.388 . S
C1032 C1031 1.366 . S
C1032 C1036 1.385 . S
C1033 H1008 0.951 . S
C1033 C1031 1.388 . S
C1033 C1034 1.366 . S
C1034 C1033 1.366 . S
C1034 C1035 1.414 . S
C1034 C1037 1.499 . S
C1035 H1009 0.950 . S
C1035 C1034 1.414 . S
C1035 C1036 1.374 . S
C1036 H1010 0.950 . S
C1036 C1032 1.385 . S
C1036 C1035 1.374 . S
C1037 C1034 1.499 . S
C1037 C1038 1.373 . S
C1037 C1039 1.389 . S
C1038 H1011 0.950 . S
C1038 C1024 1.377 . S
C1038 C1037 1.373 . S
C1039 C1023 1.377 . S
C1039 C1037 1.389 . S
C1039 C1040 1.524 . S
C1040 C1039 1.524 . S
C1040 C1041 1.397 . S
C1040 C1045 1.363 . S
C1041 H1012 0.950 . S
C1041 C1040 1.397 . S
C1041 C1042 1.334 . S
C1042 H1013 0.950 . S
C1042 C1041 1.334 . S
C1042 C1043 1.287 . S
C1043 C1042 1.287 . S
C1043 C1044 1.524 . S
C1043 H1046 0.999 . S
C1044 H1014 0.950 . S
C1044 C1043 1.524 . S
C1044 C1045 1.415 . S
C1045 H1015 0.950 . S
C1045 C1040 1.363 . S
C1045 C1044 1.415 . S
H1046 C1043 0.999 . S
H1047 C1028 0.913 . S
H1048 C1066 0.951 . S
H1049 C1068 0.951 . S
H1050 C1070 0.950 . S
H1051 C1071 0.950 . S
H1052 C1073 0.950 . S
H1053 C1076 0.950 . S
H1054 C1077 0.950 . S
H1055 C1079 0.950 . S
H1056 C1080 0.950 . S
H1057 C1081 0.951 . S
H1058 C1083 0.951 . S
H1059 C1085 0.950 . S
H1060 C1086 0.950 . S
H1061 C1088 0.950 . S
H1062 C1091 0.950 . S
H1063 C1092 0.950 . S
H1064 C1094 0.950 . S
H1065 C1095 0.950 . S
C1066 H1048 0.951 . S
C1066 C1067 1.366 . S
C1066 C1068 1.388 . S
C1067 C1066 1.366 . S
C1067 C1071 1.385 . S
C1068 H1049 0.951 . S
C1068 C1066 1.388 . S
C1068 C1069 1.366 . S
C1069 C1068 1.366 . S
C1069 C1070 1.414 . S
C1069 C1072 1.499 . S
C1070 H1050 0.950 . S
C1070 C1069 1.414 . S
C1070 C1071 1.374 . S
C1071 H1051 0.950 . S
C1071 C1067 1.385 . S
C1071 C1070 1.374 . S
C1072 C1069 1.499 . S
C1072 C1073 1.373 . S
C1072 C1074 1.389 . S
C1073 H1052 0.950 . S
C1073 C1072 1.373 . S
C1073 C1089 1.377 . S
C1074 C1072 1.389 . S
C1074 C1075 1.524 . S
C1074 C1088 1.377 . S
C1075 C1074 1.524 . S
C1075 C1076 1.397 . S
C1075 C1080 1.363 . S
C1076 H1053 0.950 . S
C1076 C1075 1.397 . S
C1076 C1077 1.334 . S
C1077 H1054 0.950 . S
C1077 C1076 1.334 . S
C1077 C1078 1.287 . S
C1078 C1077 1.287 . S
C1078 C1079 1.524 . S
C1078 H1097 0.913 . S
C1079 H1055 0.950 . S
C1079 C1078 1.524 . S
C1079 C1080 1.415 . S
C1080 H1056 0.950 . S
C1080 C1075 1.363 . S
C1080 C1079 1.415 . S
C1081 H1057 0.951 . S
C1081 C1082 1.366 . S
C1081 C1083 1.388 . S
C1082 C1081 1.366 . S
C1082 C1086 1.385 . S
C1083 H1058 0.951 . S
C1083 C1081 1.388 . S
C1083 C1084 1.366 . S
C1084 C1083 1.366 . S
C1084 C1085 1.414 . S
C1084 C1087 1.499 . S
C1085 H1059 0.950 . S
C1085 C1084 1.414 . S
C1085 C1086 1.374 . S
C1086 H1060 0.950 . S
C1086 C1082 1.385 . S
C1086 C1085 1.374 . S
C1087 C1084 1.499 . S
C1087 C1088 1.373 . S
C1087 C1089 1.389 . S
C1088 H1061 0.950 . S
C1088 C1074 1.377 . S
C1088 C1087 1.373 . S
C1089 C1073 1.377 . S
C1089 C1087 1.389 . S
C1089 C1090 1.524 . S
C1090 C1089 1.524 . S
C1090 C1091 1.397 . S
C1090 C1095 1.363 . S
C1091 H1062 0.950 . S
C1091 C1090 1.397 . S
C1091 C1092 1.334 . S
C1092 H1063 0.950 . S
C1092 C1091 1.334 . S
C1092 C1093 1.287 . S
C1093 C1092 1.287 . S
C1093 C1094 1.524 . S
C1093 H1096 0.999 . S
C1094 H1064 0.950 . S
C1094 C1093 1.524 . S
C1094 C1095 1.415 . S
C1095 H1065 0.950 . S
C1095 C1090 1.363 . S
C1095 C1094 1.415 . S
H1096 C1093 0.999 . S
H1097 C1078 0.913 . S
H1098 C1116 0.951 . S
H1099 C1118 0.951 . S
H1100 C1120 0.950 . S
H1101 C1121 0.950 . S
H1102 C1123 0.950 . S
H1103 C1126 0.950 . S
H1104 C1127 0.950 . S
H1105 C1129 0.950 . S
H1106 C1130 0.950 . S
H1107 C1131 0.951 . S
H1108 C1133 0.951 . S
H1109 C1135 0.950 . S
H1110 C1136 0.950 . S
H1111 C1138 0.950 . S
H1112 C1141 0.950 . S
H1113 C1142 0.950 . S
H1114 C1144 0.950 . S
H1115 C1145 0.950 . S
C1116 H1098 0.951 . S
C1116 C1117 1.366 . S
C1116 C1118 1.388 . S
C1117 C1116 1.366 . S
C1117 C1121 1.385 . S
C1118 H1099 0.951 . S
C1118 C1116 1.388 . S
C1118 C1119 1.366 . S
C1119 C1118 1.366 . S
C1119 C1120 1.414 . S
C1119 C1122 1.499 . S
C1120 H1100 0.950 . S
C1120 C1119 1.414 . S
C1120 C1121 1.374 . S
C1121 H1101 0.950 . S
C1121 C1117 1.385 . S
C1121 C1120 1.374 . S
C1122 C1119 1.499 . S
C1122 C1123 1.373 . S
C1122 C1124 1.389 . S
C1123 H1102 0.950 . S
C1123 C1122 1.373 . S
C1123 C1139 1.377 . S
C1124 C1122 1.389 . S
C1124 C1125 1.524 . S
C1124 C1138 1.377 . S
C1125 C1124 1.524 . S
C1125 C1126 1.397 . S
C1125 C1130 1.363 . S
C1126 H1103 0.950 . S
C1126 C1125 1.397 . S
C1126 C1127 1.334 . S
C1127 H1104 0.950 . S
C1127 C1126 1.334 . S
C1127 C1128 1.287 . S
C1128 C1127 1.287 . S
C1128 C1129 1.524 . S
C1128 H1147 0.913 . S
C1129 H1105 0.950 . S
C1129 C1128 1.524 . S
C1129 C1130 1.415 . S
C1130 H1106 0.950 . S
C1130 C1125 1.363 . S
C1130 C1129 1.415 . S
C1131 H1107 0.951 . S
C1131 C1132 1.366 . S
C1131 C1133 1.388 . S
C1132 C1131 1.366 . S
C1132 C1136 1.385 . S
C1133 H1108 0.951 . S
C1133 C1131 1.388 . S
C1133 C1134 1.366 . S
C1134 C1133 1.366 . S
C1134 C1135 1.414 . S
C1134 C1137 1.499 . S
C1135 H1109 0.950 . S
C1135 C1134 1.414 . S
C1135 C1136 1.374 . S
C1136 H1110 0.950 . S
C1136 C1132 1.385 . S
C1136 C1135 1.374 . S
C1137 C1134 1.499 . S
C1137 C1138 1.373 . S
C1137 C1139 1.389 . S
C1138 H1111 0.950 . S
C1138 C1124 1.377 . S
C1138 C1137 1.373 . S
C1139 C1123 1.377 . S
C1139 C1137 1.389 . S
C1139 C1140 1.524 . S
C1140 C1139 1.524 . S
C1140 C1141 1.397 . S
C1140 C1145 1.363 . S
C1141 H1112 0.950 . S
C1141 C1140 1.397 . S
C1141 C1142 1.334 . S
C1142 H1113 0.950 . S
C1142 C1141 1.334 . S
C1142 C1143 1.287 . S
C1143 C1142 1.287 . S
C1143 C1144 1.524 . S
C1143 H1146 0.999 . S
C1144 H1114 0.950 . S
C1144 C1143 1.524 . S
C1144 C1145 1.415 . S
C1145 H1115 0.950 . S
C1145 C1140 1.363 . S
C1145 C1144 1.415 . S
H1146 C1143 0.999 . S
H1147 C1128 0.913 . S
H1148 C1166 0.951 . S
H1149 C1168 0.951 . S
H1150 C1170 0.950 . S
H1151 C1171 0.950 . S
H1152 C1173 0.950 . S
H1153 C1176 0.950 . S
H1154 C1177 0.950 . S
H1155 C1179 0.950 . S
H1156 C1180 0.950 . S
H1157 C1181 0.951 . S
H1158 C1183 0.951 . S
H1159 C1185 0.950 . S
H1160 C1186 0.950 . S
H1161 C1188 0.950 . S
H1162 C1191 0.950 . S
H1163 C1192 0.950 . S
H1164 C1194 0.950 . S
H1165 C1195 0.950 . S
C1166 H1148 0.951 . S
C1166 C1167 1.366 . S
C1166 C1168 1.388 . S
C1167 C1166 1.366 . S
C1167 C1171 1.385 . S
C1168 H1149 0.951 . S
C1168 C1166 1.388 . S
C1168 C1169 1.366 . S
C1169 C1168 1.366 . S
C1169 C1170 1.414 . S
C1169 C1172 1.499 . S
C1170 H1150 0.950 . S
C1170 C1169 1.414 . S
C1170 C1171 1.374 . S
C1171 H1151 0.950 . S
C1171 C1167 1.385 . S
C1171 C1170 1.374 . S
C1172 C1169 1.499 . S
C1172 C1173 1.373 . S
C1172 C1174 1.389 . S
C1173 H1152 0.950 . S
C1173 C1172 1.373 . S
C1173 C1189 1.377 . S
C1174 C1172 1.389 . S
C1174 C1175 1.524 . S
C1174 C1188 1.377 . S
C1175 C1174 1.524 . S
C1175 C1176 1.397 . S
C1175 C1180 1.363 . S
C1176 H1153 0.950 . S
C1176 C1175 1.397 . S
C1176 C1177 1.334 . S
C1177 H1154 0.950 . S
C1177 C1176 1.334 . S
C1177 C1178 1.287 . S
C1178 C1177 1.287 . S
C1178 C1179 1.524 . S
C1178 H1197 0.913 . S
C1179 H1155 0.950 . S
C1179 C1178 1.524 . S
C1179 C1180 1.415 . S
C1180 H1156 0.950 . S
C1180 C1175 1.363 . S
C1180 C1179 1.415 . S
C1181 H1157 0.951 . S
C1181 C1182 1.366 . S
C1181 C1183 1.388 . S
C1182 C1181 1.366 . S
C1182 C1186 1.385 . S
C1183 H1158 0.951 . S
C1183 C1181 1.388 . S
C1183 C1184 1.366 . S
C1184 C1183 1.366 . S
C1184 C1185 1.414 . S
C1184 C1187 1.499 . S
C1185 H1159 0.950 . S
C1185 C1184 1.414 . S
C1185 C1186 1.374 . S
C1186 H1160 0.950 . S
C1186 C1182 1.385 . S
C1186 C1185 1.374 . S
C1187 C1184 1.499 . S
C1187 C1188 1.373 . S
C1187 C1189 1.389 . S
C1188 H1161 0.950 . S
C1188 C1174 1.377 . S
C1188 C1187 1.373 . S
C1189 C1173 1.377 . S
C1189 C1187 1.389 . S
C1189 C1190 1.524 . S
C1190 C1189 1.524 . S
C1190 C1191 1.397 . S
C1190 C1195 1.363 . S
C1191 H1162 0.950 . S
C1191 C1190 1.397 . S
C1191 C1192 1.334 . S
C1192 H1163 0.950 . S
C1192 C1191 1.334 . S
C1192 C1193 1.287 . S
C1193 C1192 1.287 . S
C1193 C1194 1.524 . S
C1193 H1196 0.999 . S
C1194 H1164 0.950 . S
C1194 C1193 1.524 . S
C1194 C1195 1.415 . S
C1195 H1165 0.950 . S
C1195 C1190 1.363 . S
C1195 C1194 1.415 . S
H1196 C1193 0.999 . S
H1197 C1178 0.913 . S
H1198 C1216 0.951 . S
H1199 C1218 0.951 . S
H1200 C1220 0.950 . S
H1201 C1221 0.950 . S
H1202 C1223 0.950 . S
H1203 C1226 0.950 . S
H1204 C1227 0.950 . S
H1205 C1229 0.950 . S
H1206 C1230 0.950 . S
H1207 C1231 0.951 . S
H1208 C1233 0.951 . S
H1209 C1235 0.950 . S
H1210 C1236 0.950 . S
H1211 C1238 0.950 . S
H1212 C1241 0.950 . S
H1213 C1242 0.950 . S
H1214 C1244 0.950 . S
H1215 C1245 0.950 . S
C1216 H1198 0.951 . S
C1216 C1217 1.366 . S
C1216 C1218 1.388 . S
C1217 C1216 1.366 . S
C1217 C1221 1.385 . S
C1218 H1199 0.951 . S
C1218 C1216 1.388 . S
C1218 C1219 1.366 . S
C1219 C1218 1.366 . S
C1219 C1220 1.414 . S
C1219 C1222 1.499 . S
C1220 H1200 0.950 . S
C1220 C1219 1.414 . S
C1220 C1221 1.374 . S
C1221 H1201 0.950 . S
C1221 C1217 1.385 . S
C1221 C1220 1.374 . S
C1222 C1219 1.499 . S
C1222 C1223 1.373 . S
C1222 C1224 1.389 . S
C1223 H1202 0.950 . S
C1223 C1222 1.373 . S
C1223 C1239 1.377 . S
C1224 C1222 1.389 . S
C1224 C1225 1.524 . S
C1224 C1238 1.377 . S
C1225 C1224 1.524 . S
C1225 C1226 1.397 . S
C1225 C1230 1.363 . S
C1226 H1203 0.950 . S
C1226 C1225 1.397 . S
C1226 C1227 1.334 . S
C1227 H1204 0.950 . S
C1227 C1226 1.334 . S
C1227 C1228 1.287 . S
C1228 C1227 1.287 . S
C1228 C1229 1.524 . S
C1228 H1247 0.913 . S
C1229 H1205 0.950 . S
C1229 C1228 1.524 . S
C1229 C1230 1.415 . S
C1230 H1206 0.950 . S
C1230 C1225 1.363 . S
C1230 C1229 1.415 . S
C1231 H1207 0.951 . S
C1231 C1232 1.366 . S
C1231 C1233 1.388 . S
C1232 C1231 1.366 . S
C1232 C1236 1.385 . S
C1233 H1208 0.951 . S
C1233 C1231 1.388 . S
C1233 C1234 1.366 . S
C1234 C1233 1.366 . S
C1234 C1235 1.414 . S
C1234 C1237 1.499 . S
C1235 H1209 0.950 . S
C1235 C1234 1.414 . S
C1235 C1236 1.374 . S
C1236 H1210 0.950 . S
C1236 C1232 1.385 . S
C1236 C1235 1.374 . S
C1237 C1234 1.499 . S
C1237 C1238 1.373 . S
C1237 C1239 1.389 . S
C1238 H1211 0.950 . S
C1238 C1224 1.377 . S
C1238 C1237 1.373 . S
C1239 C1223 1.377 . S
C1239 C1237 1.389 . S
C1239 C1240 1.524 . S
C1240 C1239 1.524 . S
C1240 C1241 1.397 . S
C1240 C1245 1.363 . S
C1241 H1212 0.950 . S
C1241 C1240 1.397 . S
C1241 C1242 1.334 . S
C1242 H1213 0.950 . S
C1242 C1241 1.334 . S
C1242 C1243 1.287 . S
C1243 C1242 1.287 . S
C1243 C1244 1.524 . S
C1243 H1246 0.999 . S
C1244 H1214 0.950 . S
C1244 C1243 1.524 . S
C1244 C1245 1.415 . S
C1245 H1215 0.950 . S
C1245 C1240 1.363 . S
C1245 C1244 1.415 . S
H1246 C1243 0.999 . S
H1247 C1228 0.913 . S
H1248 C1266 0.951 . S
H1249 C1268 0.951 . S
H1250 C1270 0.950 . S
H1251 C1271 0.950 . S
H1252 C1273 0.950 . S
H1253 C1276 0.950 . S
H1254 C1277 0.950 . S
H1255 C1279 0.950 . S
H1256 C1280 0.950 . S
H1257 C1281 0.951 . S
H1258 C1283 0.951 . S
H1259 C1285 0.950 . S
H1260 C1286 0.950 . S
H1261 C1288 0.950 . S
H1262 C1291 0.950 . S
H1263 C1292 0.950 . S
H1264 C1294 0.950 . S
H1265 C1295 0.950 . S
C1266 H1248 0.951 . S
C1266 C1267 1.366 . S
C1266 C1268 1.388 . S
C1267 C1266 1.366 . S
C1267 C1271 1.385 . S
C1268 H1249 0.951 . S
C1268 C1266 1.388 . S
C1268 C1269 1.366 . S
C1269 C1268 1.366 . S
C1269 C1270 1.414 . S
C1269 C1272 1.499 . S
C1270 H1250 0.950 . S
C1270 C1269 1.414 . S
C1270 C1271 1.374 . S
C1271 H1251 0.950 . S
C1271 C1267 1.385 . S
C1271 C1270 1.374 . S
C1272 C1269 1.499 . S
C1272 C1273 1.373 . S
C1272 C1274 1.389 . S
C1273 H1252 0.950 . S
C1273 C1272 1.373 . S
C1273 C1289 1.377 1_655 S
C1274 C1272 1.389 . S
C1274 C1275 1.524 . S
C1274 C1288 1.377 1_655 S
C1275 C1274 1.524 . S
C1275 C1276 1.397 . S
C1275 C1280 1.363 . S
C1276 H1253 0.950 . S
C1276 C1275 1.397 . S
C1276 C1277 1.334 . S
C1277 H1254 0.950 . S
C1277 C1276 1.334 . S
C1277 C1278 1.287 . S
C1278 C1277 1.287 . S
C1278 C1279 1.524 . S
C1278 H1297 0.913 . S
C1279 H1255 0.950 . S
C1279 C1278 1.524 . S
C1279 C1280 1.415 . S
C1280 H1256 0.950 . S
C1280 C1275 1.363 . S
C1280 C1279 1.415 . S
C1281 H1257 0.951 . S
C1281 C1282 1.366 . S
C1281 C1283 1.388 . S
C1282 C1281 1.366 . S
C1282 C1286 1.385 . S
C1283 H1258 0.951 . S
C1283 C1281 1.388 . S
C1283 C1284 1.366 . S
C1284 C1283 1.366 . S
C1284 C1285 1.414 . S
C1284 C1287 1.499 . S
C1285 H1259 0.950 . S
C1285 C1284 1.414 . S
C1285 C1286 1.374 . S
C1286 H1260 0.950 . S
C1286 C1282 1.385 . S
C1286 C1285 1.374 . S
C1287 C1284 1.499 . S
C1287 C1288 1.373 . S
C1287 C1289 1.389 . S
C1288 H1261 0.950 . S
C1288 C1274 1.377 1_455 S
C1288 C1287 1.373 . S
C1289 C1273 1.377 1_455 S
C1289 C1287 1.389 . S
C1289 C1290 1.524 . S
C1290 C1289 1.524 . S
C1290 C1291 1.397 . S
C1290 C1295 1.363 . S
C1291 H1262 0.950 . S
C1291 C1290 1.397 . S
C1291 C1292 1.334 . S
C1292 H1263 0.950 . S
C1292 C1291 1.334 . S
C1292 C1293 1.287 . S
C1293 C1292 1.287 . S
C1293 C1294 1.524 . S
C1293 H1296 0.999 . S
C1294 H1264 0.950 . S
C1294 C1293 1.524 . S
C1294 C1295 1.415 . S
C1295 H1265 0.950 . S
C1295 C1290 1.363 . S
C1295 C1294 1.415 . S
H1296 C1293 0.999 . S
H1297 C1278 0.913 . S
H1298 C1316 0.951 . S
H1299 C1318 0.951 . S
H1300 C1320 0.950 . S
H1301 C1321 0.950 . S
H1302 C1323 0.950 . S
H1303 C1326 0.950 . S
H1304 C1327 0.950 . S
H1305 C1329 0.950 . S
H1306 C1330 0.950 . S
H1307 C1331 0.951 . S
H1308 C1333 0.951 . S
H1309 C1335 0.950 . S
H1310 C1336 0.950 . S
H1311 C1338 0.950 . S
H1312 C1341 0.950 . S
H1313 C1342 0.950 . S
H1314 C1344 0.950 . S
H1315 C1345 0.950 . S
C1316 H1298 0.951 . S
C1316 C1317 1.366 . S
C1316 C1318 1.388 . S
C1317 C1316 1.366 . S
C1317 C1321 1.385 . S
C1318 H1299 0.951 . S
C1318 C1316 1.388 . S
C1318 C1319 1.366 . S
C1319 C1318 1.366 . S
C1319 C1320 1.414 . S
C1319 C1322 1.499 . S
C1320 H1300 0.950 . S
C1320 C1319 1.414 . S
C1320 C1321 1.374 . S
C1321 H1301 0.950 . S
C1321 C1317 1.385 . S
C1321 C1320 1.374 . S
C1322 C1319 1.499 . S
C1322 C1323 1.373 . S
C1322 C1324 1.389 . S
C1323 H1302 0.950 . S
C1323 C1322 1.373 . S
C1323 C1339 1.377 1_545 S
C1324 C1322 1.389 . S
C1324 C1325 1.524 . S
C1324 C1338 1.377 1_545 S
C1325 C1324 1.524 . S
C1325 C1326 1.397 . S
C1325 C1330 1.363 . S
C1326 H1303 0.950 . S
C1326 C1325 1.397 . S
C1326 C1327 1.334 . S
C1327 H1304 0.950 . S
C1327 C1326 1.334 . S
C1327 C1328 1.287 . S
C1328 C1327 1.287 . S
C1328 C1329 1.524 . S
C1328 H1347 0.913 . S
C1329 H1305 0.950 . S
C1329 C1328 1.524 . S
C1329 C1330 1.415 . S
C1330 H1306 0.950 . S
C1330 C1325 1.363 . S
C1330 C1329 1.415 . S
C1331 H1307 0.951 . S
C1331 C1332 1.366 . S
C1331 C1333 1.388 . S
C1332 C1331 1.366 . S
C1332 C1336 1.385 . S
C1333 H1308 0.951 . S
C1333 C1331 1.388 . S
C1333 C1334 1.366 . S
C1334 C1333 1.366 . S
C1334 C1335 1.414 . S
C1334 C1337 1.499 . S
C1335 H1309 0.950 . S
C1335 C1334 1.414 . S
C1335 C1336 1.374 . S
C1336 H1310 0.950 . S
C1336 C1332 1.385 . S
C1336 C1335 1.374 . S
C1337 C1334 1.499 . S
C1337 C1338 1.373 . S
C1337 C1339 1.389 . S
C1338 H1311 0.950 . S
C1338 C1324 1.377 1_565 S
C1338 C1337 1.373 . S
C1339 C1323 1.377 1_565 S
C1339 C1337 1.389 . S
C1339 C1340 1.524 . S
C1340 C1339 1.524 . S
C1340 C1341 1.397 . S
C1340 C1345 1.363 . S
C1341 H1312 0.950 . S
C1341 C1340 1.397 . S
C1341 C1342 1.334 . S
C1342 H1313 0.950 . S
C1342 C1341 1.334 . S
C1342 C1343 1.287 . S
C1343 C1342 1.287 . S
C1343 C1344 1.524 . S
C1343 H1346 0.999 . S
C1344 H1314 0.950 . S
C1344 C1343 1.524 . S
C1344 C1345 1.415 . S
C1345 H1315 0.950 . S
C1345 C1340 1.363 . S
C1345 C1344 1.415 . S
H1346 C1343 0.999 . S
H1347 C1328 0.913 . S
H1348 C1366 0.951 . S
H1349 C1368 0.951 . S
H1350 C1370 0.950 . S
H1351 C1371 0.950 . S
H1352 C1373 0.950 . S
H1353 C1376 0.950 . S
H1354 C1377 0.950 . S
H1355 C1379 0.950 . S
H1356 C1380 0.950 . S
H1357 C1381 0.951 . S
H1358 C1383 0.951 . S
H1359 C1385 0.950 . S
H1360 C1386 0.950 . S
H1361 C1388 0.950 . S
H1362 C1391 0.950 . S
H1363 C1392 0.950 . S
H1364 C1394 0.950 . S
H1365 C1395 0.950 . S
C1366 H1348 0.951 . S
C1366 C1367 1.366 . S
C1366 C1368 1.388 . S
C1367 C1366 1.366 . S
C1367 C1371 1.385 . S
C1368 H1349 0.951 . S
C1368 C1366 1.388 . S
C1368 C1369 1.366 . S
C1369 C1368 1.366 . S
C1369 C1370 1.414 . S
C1369 C1372 1.499 . S
C1370 H1350 0.950 . S
C1370 C1369 1.414 . S
C1370 C1371 1.374 . S
C1371 H1351 0.950 . S
C1371 C1367 1.385 . S
C1371 C1370 1.374 . S
C1372 C1369 1.499 . S
C1372 C1373 1.373 . S
C1372 C1374 1.389 . S
C1373 H1352 0.950 . S
C1373 C1372 1.373 . S
C1373 C1389 1.377 1_455 S
C1374 C1372 1.389 . S
C1374 C1375 1.524 . S
C1374 C1388 1.377 1_455 S
C1375 C1374 1.524 . S
C1375 C1376 1.397 . S
C1375 C1380 1.363 . S
C1376 H1353 0.950 . S
C1376 C1375 1.397 . S
C1376 C1377 1.334 . S
C1377 H1354 0.950 . S
C1377 C1376 1.334 . S
C1377 C1378 1.287 . S
C1378 C1377 1.287 . S
C1378 C1379 1.524 . S
C1378 H1397 0.913 . S
C1379 H1355 0.950 . S
C1379 C1378 1.524 . S
C1379 C1380 1.415 . S
C1380 H1356 0.950 . S
C1380 C1375 1.363 . S
C1380 C1379 1.415 . S
C1381 H1357 0.951 . S
C1381 C1382 1.366 . S
C1381 C1383 1.388 . S
C1382 C1381 1.366 . S
C1382 C1386 1.385 . S
C1383 H1358 0.951 . S
C1383 C1381 1.388 . S
C1383 C1384 1.366 . S
C1384 C1383 1.366 . S
C1384 C1385 1.414 . S
C1384 C1387 1.499 . S
C1385 H1359 0.950 . S
C1385 C1384 1.414 . S
C1385 C1386 1.374 . S
C1386 H1360 0.950 . S
C1386 C1382 1.385 . S
C1386 C1385 1.374 . S
C1387 C1384 1.499 . S
C1387 C1388 1.373 . S
C1387 C1389 1.389 . S
C1388 H1361 0.950 . S
C1388 C1374 1.377 1_655 S
C1388 C1387 1.373 . S
C1389 C1373 1.377 1_655 S
C1389 C1387 1.389 . S
C1389 C1390 1.524 . S
C1390 C1389 1.524 . S
C1390 C1391 1.397 . S
C1390 C1395 1.363 . S
C1391 H1362 0.950 . S
C1391 C1390 1.397 . S
C1391 C1392 1.334 . S
C1392 H1363 0.950 . S
C1392 C1391 1.334 . S
C1392 C1393 1.287 . S
C1393 C1392 1.287 . S
C1393 C1394 1.524 . S
C1393 H1396 0.999 . S
C1394 H1364 0.950 . S
C1394 C1393 1.524 . S
C1394 C1395 1.415 . S
C1395 H1365 0.950 . S
C1395 C1390 1.363 . S
C1395 C1394 1.415 . S
H1396 C1393 0.999 . S
H1397 C1378 0.913 . S
H1398 C1416 0.951 . S
H1399 C1418 0.951 . S
H1400 C1420 0.950 . S
H1401 C1421 0.950 . S
H1402 C1423 0.950 . S
H1403 C1426 0.950 . S
H1404 C1427 0.950 . S
H1405 C1429 0.950 . S
H1406 C1430 0.950 . S
H1407 C1431 0.951 . S
H1408 C1433 0.951 . S
H1409 C1435 0.950 . S
H1410 C1436 0.950 . S
H1411 C1438 0.950 . S
H1412 C1441 0.950 . S
H1413 C1442 0.950 . S
H1414 C1444 0.950 . S
H1415 C1445 0.950 . S
C1416 H1398 0.951 . S
C1416 C1417 1.366 . S
C1416 C1418 1.388 . S
C1417 C1416 1.366 . S
C1417 C1421 1.385 . S
C1418 H1399 0.951 . S
C1418 C1416 1.388 . S
C1418 C1419 1.366 . S
C1419 C1418 1.366 . S
C1419 C1420 1.414 . S
C1419 C1422 1.499 . S
C1420 H1400 0.950 . S
C1420 C1419 1.414 . S
C1420 C1421 1.374 . S
C1421 H1401 0.950 . S
C1421 C1417 1.385 . S
C1421 C1420 1.374 . S
C1422 C1419 1.499 . S
C1422 C1423 1.373 . S
C1422 C1424 1.389 . S
C1423 H1402 0.950 . S
C1423 C1422 1.373 . S
C1423 C1439 1.377 1_565 S
C1424 C1422 1.389 . S
C1424 C1425 1.524 . S
C1424 C1438 1.377 1_565 S
C1425 C1424 1.524 . S
C1425 C1426 1.397 . S
C1425 C1430 1.363 . S
C1426 H1403 0.950 . S
C1426 C1425 1.397 . S
C1426 C1427 1.334 . S
C1427 H1404 0.950 . S
C1427 C1426 1.334 . S
C1427 C1428 1.287 . S
C1428 C1427 1.287 . S
C1428 C1429 1.524 . S
C1428 H1447 0.913 . S
C1429 H1405 0.950 . S
C1429 C1428 1.524 . S
C1429 C1430 1.415 . S
C1430 H1406 0.950 . S
C1430 C1425 1.363 . S
C1430 C1429 1.415 . S
C1431 H1407 0.951 . S
C1431 C1432 1.366 . S
C1431 C1433 1.388 . S
C1432 C1431 1.366 . S
C1432 C1436 1.385 . S
C1433 H1408 0.951 . S
C1433 C1431 1.388 . S
C1433 C1434 1.366 . S
C1434 C1433 1.366 . S
C1434 C1435 1.414 . S
C1434 C1437 1.499 . S
C1435 H1409 0.950 . S
C1435 C1434 1.414 . S
C1435 C1436 1.374 . S
C1436 H1410 0.950 . S
C1436 C1432 1.385 . S
C1436 C1435 1.374 . S
C1437 C1434 1.499 . S
C1437 C1438 1.373 . S
C1437 C1439 1.389 . S
C1438 H1411 0.950 . S
C1438 C1424 1.377 1_545 S
C1438 C1437 1.373 . S
C1439 C1423 1.377 1_545 S
C1439 C1437 1.389 . S
C1439 C1440 1.524 . S
C1440 C1439 1.524 . S
C1440 C1441 1.397 . S
C1440 C1445 1.363 . S
C1441 H1412 0.950 . S
C1441 C1440 1.397 . S
C1441 C1442 1.334 . S
C1442 H1413 0.950 . S
C1442 C1441 1.334 . S
C1442 C1443 1.287 . S
C1443 C1442 1.287 . S
C1443 C1444 1.524 . S
C1443 H1446 0.999 . S
C1444 H1414 0.950 . S
C1444 C1443 1.524 . S
C1444 C1445 1.415 . S
C1445 H1415 0.950 . S
C1445 C1440 1.363 . S
C1445 C1444 1.415 . S
H1446 C1443 0.999 . S
H1447 C1428 0.913 . S
H1448 C1466 0.951 . S
H1449 C1468 0.951 . S
H1450 C1470 0.950 . S
H1451 C1471 0.950 . S
H1452 C1473 0.950 . S
H1453 C1476 0.950 . S
H1454 C1477 0.950 . S
H1455 C1479 0.950 . S
H1456 C1480 0.950 . S
H1457 C1481 0.951 . S
H1458 C1483 0.951 . S
H1459 C1485 0.950 . S
H1460 C1486 0.950 . S
H1461 C1488 0.950 . S
H1462 C1491 0.950 . S
H1463 C1492 0.950 . S
H1464 C1494 0.950 . S
H1465 C1495 0.950 . S
C1466 H1448 0.951 . S
C1466 C1467 1.366 . S
C1466 C1468 1.388 . S
C1467 C1466 1.366 . S
C1467 C1471 1.385 . S
C1468 H1449 0.951 . S
C1468 C1466 1.388 . S
C1468 C1469 1.366 . S
C1469 C1468 1.366 . S
C1469 C1470 1.414 . S
C1469 C1472 1.499 . S
C1470 H1450 0.950 . S
C1470 C1469 1.414 . S
C1470 C1471 1.374 . S
C1471 H1451 0.950 . S
C1471 C1467 1.385 . S
C1471 C1470 1.374 . S
C1472 C1469 1.499 . S
C1472 C1473 1.373 . S
C1472 C1474 1.389 . S
C1473 H1452 0.950 . S
C1473 C1472 1.373 . S
C1473 C1489 1.377 1_455 S
C1474 C1472 1.389 . S
C1474 C1475 1.524 . S
C1474 C1488 1.377 1_455 S
C1475 C1474 1.524 . S
C1475 C1476 1.397 . S
C1475 C1480 1.363 . S
C1476 H1453 0.950 . S
C1476 C1475 1.397 . S
C1476 C1477 1.334 . S
C1477 H1454 0.950 . S
C1477 C1476 1.334 . S
C1477 C1478 1.287 . S
C1478 C1477 1.287 . S
C1478 C1479 1.524 . S
C1478 H1497 0.913 . S
C1479 H1455 0.950 . S
C1479 C1478 1.524 . S
C1479 C1480 1.415 . S
C1480 H1456 0.950 . S
C1480 C1475 1.363 . S
C1480 C1479 1.415 . S
C1481 H1457 0.951 . S
C1481 C1482 1.366 . S
C1481 C1483 1.388 . S
C1482 C1481 1.366 . S
C1482 C1486 1.385 . S
C1483 H1458 0.951 . S
C1483 C1481 1.388 . S
C1483 C1484 1.366 . S
C1484 C1483 1.366 . S
C1484 C1485 1.414 . S
C1484 C1487 1.499 . S
C1485 H1459 0.950 . S
C1485 C1484 1.414 . S
C1485 C1486 1.374 . S
C1486 H1460 0.950 . S
C1486 C1482 1.385 . S
C1486 C1485 1.374 . S
C1487 C1484 1.499 . S
C1487 C1488 1.373 . S
C1487 C1489 1.389 . S
C1488 H1461 0.950 . S
C1488 C1474 1.377 1_655 S
C1488 C1487 1.373 . S
C1489 C1473 1.377 1_655 S
C1489 C1487 1.389 . S
C1489 C1490 1.524 . S
C1490 C1489 1.524 . S
C1490 C1491 1.397 . S
C1490 C1495 1.363 . S
C1491 H1462 0.950 . S
C1491 C1490 1.397 . S
C1491 C1492 1.334 . S
C1492 H1463 0.950 . S
C1492 C1491 1.334 . S
C1492 C1493 1.287 . S
C1493 C1492 1.287 . S
C1493 C1494 1.524 . S
C1493 H1496 0.999 . S
C1494 H1464 0.950 . S
C1494 C1493 1.524 . S
C1494 C1495 1.415 . S
C1495 H1465 0.950 . S
C1495 C1490 1.363 . S
C1495 C1494 1.415 . S
H1496 C1493 0.999 . S
H1497 C1478 0.913 . S
H1498 C1516 0.951 . S
H1499 C1518 0.951 . S
H1500 C1520 0.950 . S
H1501 C1521 0.950 . S
H1502 C1523 0.950 . S
H1503 C1526 0.950 . S
H1504 C1527 0.950 . S
H1505 C1529 0.950 . S
H1506 C1530 0.950 . S
H1507 C1531 0.951 . S
H1508 C1533 0.951 . S
H1509 C1535 0.950 . S
H1510 C1536 0.950 . S
H1511 C1538 0.950 . S
H1512 C1541 0.950 . S
H1513 C1542 0.950 . S
H1514 C1544 0.950 . S
H1515 C1545 0.950 . S
C1516 H1498 0.951 . S
C1516 C1517 1.366 . S
C1516 C1518 1.388 . S
C1517 C1516 1.366 . S
C1517 C1521 1.385 . S
C1518 H1499 0.951 . S
C1518 C1516 1.388 . S
C1518 C1519 1.366 . S
C1519 C1518 1.366 . S
C1519 C1520 1.414 . S
C1519 C1522 1.499 . S
C1520 H1500 0.950 . S
C1520 C1519 1.414 . S
C1520 C1521 1.374 . S
C1521 H1501 0.950 . S
C1521 C1517 1.385 . S
C1521 C1520 1.374 . S
C1522 C1519 1.499 . S
C1522 C1523 1.373 . S
C1522 C1524 1.389 . S
C1523 H1502 0.950 . S
C1523 C1522 1.373 . S
C1523 C1539 1.377 1_565 S
C1524 C1522 1.389 . S
C1524 C1525 1.524 . S
C1524 C1538 1.377 1_565 S
C1525 C1524 1.524 . S
C1525 C1526 1.397 . S
C1525 C1530 1.363 . S
C1526 H1503 0.950 . S
C1526 C1525 1.397 . S
C1526 C1527 1.334 . S
C1527 H1504 0.950 . S
C1527 C1526 1.334 . S
C1527 C1528 1.287 . S
C1528 C1527 1.287 . S
C1528 C1529 1.524 . S
C1528 H1547 0.913 . S
C1529 H1505 0.950 . S
C1529 C1528 1.524 . S
C1529 C1530 1.415 . S
C1530 H1506 0.950 . S
C1530 C1525 1.363 . S
C1530 C1529 1.415 . S
C1531 H1507 0.951 . S
C1531 C1532 1.366 . S
C1531 C1533 1.388 . S
C1532 C1531 1.366 . S
C1532 C1536 1.385 . S
C1533 H1508 0.951 . S
C1533 C1531 1.388 . S
C1533 C1534 1.366 . S
C1534 C1533 1.366 . S
C1534 C1535 1.414 . S
C1534 C1537 1.499 . S
C1535 H1509 0.950 . S
C1535 C1534 1.414 . S
C1535 C1536 1.374 . S
C1536 H1510 0.950 . S
C1536 C1532 1.385 . S
C1536 C1535 1.374 . S
C1537 C1534 1.499 . S
C1537 C1538 1.373 . S
C1537 C1539 1.389 . S
C1538 H1511 0.950 . S
C1538 C1524 1.377 1_545 S
C1538 C1537 1.373 . S
C1539 C1523 1.377 1_545 S
C1539 C1537 1.389 . S
C1539 C1540 1.524 . S
C1540 C1539 1.524 . S
C1540 C1541 1.397 . S
C1540 C1545 1.363 . S
C1541 H1512 0.950 . S
C1541 C1540 1.397 . S
C1541 C1542 1.334 . S
C1542 H1513 0.950 . S
C1542 C1541 1.334 . S
C1542 C1543 1.287 . S
C1543 C1542 1.287 . S
C1543 C1544 1.524 . S
C1543 H1546 0.999 . S
C1544 H1514 0.950 . S
C1544 C1543 1.524 . S
C1544 C1545 1.415 . S
C1545 H1515 0.950 . S
C1545 C1540 1.363 . S
C1545 C1544 1.415 . S
H1546 C1543 0.999 . S
H1547 C1528 0.913 . S
H1548 C1566 0.951 . S
H1549 C1568 0.951 . S
H1550 C1570 0.950 . S
H1551 C1571 0.950 . S
H1552 C1573 0.950 . S
H1553 C1576 0.950 . S
H1554 C1577 0.950 . S
H1555 C1579 0.950 . S
H1556 C1580 0.950 . S
H1557 C1581 0.951 . S
H1558 C1583 0.951 . S
H1559 C1585 0.950 . S
H1560 C1586 0.950 . S
H1561 C1588 0.950 . S
H1562 C1591 0.950 . S
H1563 C1592 0.950 . S
H1564 C1594 0.950 . S
H1565 C1595 0.950 . S
C1566 H1548 0.951 . S
C1566 C1567 1.366 . S
C1566 C1568 1.388 . S
C1567 C1566 1.366 . S
C1567 C1571 1.385 . S
C1568 H1549 0.951 . S
C1568 C1566 1.388 . S
C1568 C1569 1.366 . S
C1569 C1568 1.366 . S
C1569 C1570 1.414 . S
C1569 C1572 1.499 . S
C1570 H1550 0.950 . S
C1570 C1569 1.414 . S
C1570 C1571 1.374 . S
C1571 H1551 0.950 . S
C1571 C1567 1.385 . S
C1571 C1570 1.374 . S
C1572 C1569 1.499 . S
C1572 C1573 1.373 . S
C1572 C1574 1.389 . S
C1573 H1552 0.950 . S
C1573 C1572 1.373 . S
C1573 C1589 1.377 1_455 S
C1574 C1572 1.389 . S
C1574 C1575 1.524 . S
C1574 C1588 1.377 1_455 S
C1575 C1574 1.524 . S
C1575 C1576 1.397 . S
C1575 C1580 1.363 . S
C1576 H1553 0.950 . S
C1576 C1575 1.397 . S
C1576 C1577 1.334 . S
C1577 H1554 0.950 . S
C1577 C1576 1.334 . S
C1577 C1578 1.287 . S
C1578 C1577 1.287 . S
C1578 C1579 1.524 . S
C1578 H1597 0.913 . S
C1579 H1555 0.950 . S
C1579 C1578 1.524 . S
C1579 C1580 1.415 . S
C1580 H1556 0.950 . S
C1580 C1575 1.363 . S
C1580 C1579 1.415 . S
C1581 H1557 0.951 . S
C1581 C1582 1.366 . S
C1581 C1583 1.388 . S
C1582 C1581 1.366 . S
C1582 C1586 1.385 . S
C1583 H1558 0.951 . S
C1583 C1581 1.388 . S
C1583 C1584 1.366 . S
C1584 C1583 1.366 . S
C1584 C1585 1.414 . S
C1584 C1587 1.499 . S
C1585 H1559 0.950 . S
C1585 C1584 1.414 . S
C1585 C1586 1.374 . S
C1586 H1560 0.950 . S
C1586 C1582 1.385 . S
C1586 C1585 1.374 . S
C1587 C1584 1.499 . S
C1587 C1588 1.373 . S
C1587 C1589 1.389 . S
C1588 H1561 0.950 . S
C1588 C1574 1.377 1_655 S
C1588 C1587 1.373 . S
C1589 C1573 1.377 1_655 S
C1589 C1587 1.389 . S
C1589 C1590 1.524 . S
C1590 C1589 1.524 . S
C1590 C1591 1.397 . S
C1590 C1595 1.363 . S
C1591 H1562 0.950 . S
C1591 C1590 1.397 . S
C1591 C1592 1.334 . S
C1592 H1563 0.950 . S
C1592 C1591 1.334 . S
C1592 C1593 1.287 . S
C1593 C1592 1.287 . S
C1593 C1594 1.524 . S
C1593 H1596 0.999 . S
C1594 H1564 0.950 . S
C1594 C1593 1.524 . S
C1594 C1595 1.415 . S
C1595 H1565 0.950 . S
C1595 C1590 1.363 . S
C1595 C1594 1.415 . S
H1596 C1593 0.999 . S
H1597 C1578 0.913 . S
H1598 C1616 0.951 . S
H1599 C1618 0.951 . S
H1600 C1620 0.950 . S
H1601 C1621 0.950 . S
H1602 C1623 0.950 . S
H1603 C1626 0.950 . S
H1604 C1627 0.950 . S
H1605 C1629 0.950 . S
H1606 C1630 0.950 . S
H1607 C1631 0.951 . S
H1608 C1633 0.951 . S
H1609 C1635 0.950 . S
H1610 C1636 0.950 . S
H1611 C1638 0.950 . S
H1612 C1641 0.950 . S
H1613 C1642 0.950 . S
H1614 C1644 0.950 . S
H1615 C1645 0.950 . S
C1616 H1598 0.951 . S
C1616 C1617 1.366 . S
C1616 C1618 1.388 . S
C1617 C1616 1.366 . S
C1617 C1621 1.385 . S
C1618 H1599 0.951 . S
C1618 C1616 1.388 . S
C1618 C1619 1.366 . S
C1619 C1618 1.366 . S
C1619 C1620 1.414 . S
C1619 C1622 1.499 . S
C1620 H1600 0.950 . S
C1620 C1619 1.414 . S
C1620 C1621 1.374 . S
C1621 H1601 0.950 . S
C1621 C1617 1.385 . S
C1621 C1620 1.374 . S
C1622 C1619 1.499 . S
C1622 C1623 1.373 . S
C1622 C1624 1.389 . S
C1623 H1602 0.950 . S
C1623 C1622 1.373 . S
C1623 C1639 1.377 1_545 S
C1624 C1622 1.389 . S
C1624 C1625 1.524 . S
C1624 C1638 1.377 1_545 S
C1625 C1624 1.524 . S
C1625 C1626 1.397 . S
C1625 C1630 1.363 . S
C1626 H1603 0.950 . S
C1626 C1625 1.397 . S
C1626 C1627 1.334 . S
C1627 H1604 0.950 . S
C1627 C1626 1.334 . S
C1627 C1628 1.287 . S
C1628 C1627 1.287 . S
C1628 C1629 1.524 . S
C1628 H1647 0.913 . S
C1629 H1605 0.950 . S
C1629 C1628 1.524 . S
C1629 C1630 1.415 . S
C1630 H1606 0.950 . S
C1630 C1625 1.363 . S
C1630 C1629 1.415 . S
C1631 H1607 0.951 . S
C1631 C1632 1.366 . S
C1631 C1633 1.388 . S
C1632 C1631 1.366 . S
C1632 C1636 1.385 . S
C1633 H1608 0.951 . S
C1633 C1631 1.388 . S
C1633 C1634 1.366 . S
C1634 C1633 1.366 . S
C1634 C1635 1.414 . S
C1634 C1637 1.499 . S
C1635 H1609 0.950 . S
C1635 C1634 1.414 . S
C1635 C1636 1.374 . S
C1636 H1610 0.950 . S
C1636 C1632 1.385 . S
C1636 C1635 1.374 . S
C1637 C1634 1.499 . S
C1637 C1638 1.373 . S
C1637 C1639 1.389 . S
C1638 H1611 0.950 . S
C1638 C1624 1.377 1_565 S
C1638 C1637 1.373 . S
C1639 C1623 1.377 1_565 S
C1639 C1637 1.389 . S
C1639 C1640 1.524 . S
C1640 C1639 1.524 . S
C1640 C1641 1.397 . S
C1640 C1645 1.363 . S
C1641 H1612 0.950 . S
C1641 C1640 1.397 . S
C1641 C1642 1.334 . S
C1642 H1613 0.950 . S
C1642 C1641 1.334 . S
C1642 C1643 1.287 . S
C1643 C1642 1.287 . S
C1643 C1644 1.524 . S
C1643 H1646 0.999 . S
C1644 H1614 0.950 . S
C1644 C1643 1.524 . S
C1644 C1645 1.415 . S
C1645 H1615 0.950 . S
C1645 C1640 1.363 . S
C1645 C1644 1.415 . S
H1646 C1643 0.999 . S
H1647 C1628 0.913 . S
H1648 C1666 0.951 . S
H1649 C1668 0.951 . S
H1650 C1670 0.950 . S
H1651 C1671 0.950 . S
H1652 C1673 0.950 . S
H1653 C1676 0.950 . S
H1654 C1677 0.950 . S
H1655 C1679 0.950 . S
H1656 C1680 0.950 . S
H1657 C1681 0.951 . S
H1658 C1683 0.951 . S
H1659 C1685 0.950 . S
H1660 C1686 0.950 . S
H1661 C1688 0.950 . S
H1662 C1691 0.950 . S
H1663 C1692 0.950 . S
H1664 C1694 0.950 . S
H1665 C1695 0.950 . S
C1666 H1648 0.951 . S
C1666 C1667 1.366 . S
C1666 C1668 1.388 . S
C1667 C1666 1.366 . S
C1667 C1671 1.385 . S
C1668 H1649 0.951 . S
C1668 C1666 1.388 . S
C1668 C1669 1.366 . S
C1669 C1668 1.366 . S
C1669 C1670 1.414 . S
C1669 C1672 1.499 . S
C1670 H1650 0.950 . S
C1670 C1669 1.414 . S
C1670 C1671 1.374 . S
C1671 H1651 0.950 . S
C1671 C1667 1.385 . S
C1671 C1670 1.374 . S
C1672 C1669 1.499 . S
C1672 C1673 1.373 . S
C1672 C1674 1.389 . S
C1673 H1652 0.950 . S
C1673 C1672 1.373 . S
C1673 C1689 1.377 . S
C1674 C1672 1.389 . S
C1674 C1675 1.524 . S
C1674 C1688 1.377 . S
C1675 C1674 1.524 . S
C1675 C1676 1.397 . S
C1675 C1680 1.363 . S
C1676 H1653 0.950 . S
C1676 C1675 1.397 . S
C1676 C1677 1.334 . S
C1677 H1654 0.950 . S
C1677 C1676 1.334 . S
C1677 C1678 1.287 . S
C1678 C1677 1.287 . S
C1678 C1679 1.524 . S
C1678 H1697 0.913 . S
C1679 H1655 0.950 . S
C1679 C1678 1.524 . S
C1679 C1680 1.415 . S
C1680 H1656 0.950 . S
C1680 C1675 1.363 . S
C1680 C1679 1.415 . S
C1681 H1657 0.951 . S
C1681 C1682 1.366 . S
C1681 C1683 1.388 . S
C1682 C1681 1.366 . S
C1682 C1686 1.385 . S
C1683 H1658 0.951 . S
C1683 C1681 1.388 . S
C1683 C1684 1.366 . S
C1684 C1683 1.366 . S
C1684 C1685 1.414 . S
C1684 C1687 1.499 . S
C1685 H1659 0.950 . S
C1685 C1684 1.414 . S
C1685 C1686 1.374 . S
C1686 H1660 0.950 . S
C1686 C1682 1.385 . S
C1686 C1685 1.374 . S
C1687 C1684 1.499 . S
C1687 C1688 1.373 . S
C1687 C1689 1.389 . S
C1688 H1661 0.950 . S
C1688 C1674 1.377 . S
C1688 C1687 1.373 . S
C1689 C1673 1.377 . S
C1689 C1687 1.389 . S
C1689 C1690 1.524 . S
C1690 C1689 1.524 . S
C1690 C1691 1.397 . S
C1690 C1695 1.363 . S
C1691 H1662 0.950 . S
C1691 C1690 1.397 . S
C1691 C1692 1.334 . S
C1692 H1663 0.950 . S
C1692 C1691 1.334 . S
C1692 C1693 1.287 . S
C1693 C1692 1.287 . S
C1693 C1694 1.524 . S
C1693 H1696 0.999 . S
C1694 H1664 0.950 . S
C1694 C1693 1.524 . S
C1694 C1695 1.415 . S
C1695 H1665 0.950 . S
C1695 C1690 1.363 . S
C1695 C1694 1.415 . S
H1696 C1693 0.999 . S
H1697 C1678 0.913 . S
H1698 C1716 0.951 . S
H1699 C1718 0.951 . S
H1700 C1720 0.950 . S
H1701 C1721 0.950 . S
H1702 C1723 0.950 . S
H1703 C1726 0.950 . S
H1704 C1727 0.950 . S
H1705 C1729 0.950 . S
H1706 C1730 0.950 . S
H1707 C1731 0.951 . S
H1708 C1733 0.951 . S
H1709 C1735 0.950 . S
H1710 C1736 0.950 . S
H1711 C1738 0.950 . S
H1712 C1741 0.950 . S
H1713 C1742 0.950 . S
H1714 C1744 0.950 . S
H1715 C1745 0.950 . S
C1716 H1698 0.951 . S
C1716 C1717 1.366 . S
C1716 C1718 1.388 . S
C1717 C1716 1.366 . S
C1717 C1721 1.385 . S
C1718 H1699 0.951 . S
C1718 C1716 1.388 . S
C1718 C1719 1.366 . S
C1719 C1718 1.366 . S
C1719 C1720 1.414 . S
C1719 C1722 1.499 . S
C1720 H1700 0.950 . S
C1720 C1719 1.414 . S
C1720 C1721 1.374 . S
C1721 H1701 0.950 . S
C1721 C1717 1.385 . S
C1721 C1720 1.374 . S
C1722 C1719 1.499 . S
C1722 C1723 1.373 . S
C1722 C1724 1.389 . S
C1723 H1702 0.950 . S
C1723 C1722 1.373 . S
C1723 C1739 1.377 . S
C1724 C1722 1.389 . S
C1724 C1725 1.524 . S
C1724 C1738 1.377 . S
C1725 C1724 1.524 . S
C1725 C1726 1.397 . S
C1725 C1730 1.363 . S
C1726 H1703 0.950 . S
C1726 C1725 1.397 . S
C1726 C1727 1.334 . S
C1727 H1704 0.950 . S
C1727 C1726 1.334 . S
C1727 C1728 1.287 . S
C1728 C1727 1.287 . S
C1728 C1729 1.524 . S
C1728 H1747 0.913 . S
C1729 H1705 0.950 . S
C1729 C1728 1.524 . S
C1729 C1730 1.415 . S
C1730 H1706 0.950 . S
C1730 C1725 1.363 . S
C1730 C1729 1.415 . S
C1731 H1707 0.951 . S
C1731 C1732 1.366 . S
C1731 C1733 1.388 . S
C1732 C1731 1.366 . S
C1732 C1736 1.385 . S
C1733 H1708 0.951 . S
C1733 C1731 1.388 . S
C1733 C1734 1.366 . S
C1734 C1733 1.366 . S
C1734 C1735 1.414 . S
C1734 C1737 1.499 . S
C1735 H1709 0.950 . S
C1735 C1734 1.414 . S
C1735 C1736 1.374 . S
C1736 H1710 0.950 . S
C1736 C1732 1.385 . S
C1736 C1735 1.374 . S
C1737 C1734 1.499 . S
C1737 C1738 1.373 . S
C1737 C1739 1.389 . S
C1738 H1711 0.950 . S
C1738 C1724 1.377 . S
C1738 C1737 1.373 . S
C1739 C1723 1.377 . S
C1739 C1737 1.389 . S
C1739 C1740 1.524 . S
C1740 C1739 1.524 . S
C1740 C1741 1.397 . S
C1740 C1745 1.363 . S
C1741 H1712 0.950 . S
C1741 C1740 1.397 . S
C1741 C1742 1.334 . S
C1742 H1713 0.950 . S
C1742 C1741 1.334 . S
C1742 C1743 1.287 . S
C1743 C1742 1.287 . S
C1743 C1744 1.524 . S
C1743 H1746 0.999 . S
C1744 H1714 0.950 . S
C1744 C1743 1.524 . S
C1744 C1745 1.415 . S
C1745 H1715 0.950 . S
C1745 C1740 1.363 . S
C1745 C1744 1.415 . S
H1746 C1743 0.999 . S
H1747 C1728 0.913 . S
H1748 C1766 0.951 . S
H1749 C1768 0.951 . S
H1750 C1770 0.950 . S
H1751 C1771 0.950 . S
H1752 C1773 0.950 . S
H1753 C1776 0.950 . S
H1754 C1777 0.950 . S
H1755 C1779 0.950 . S
H1756 C1780 0.950 . S
H1757 C1781 0.951 . S
H1758 C1783 0.951 . S
H1759 C1785 0.950 . S
H1760 C1786 0.950 . S
H1761 C1788 0.950 . S
H1762 C1791 0.950 . S
H1763 C1792 0.950 . S
H1764 C1794 0.950 . S
H1765 C1795 0.950 . S
C1766 H1748 0.951 . S
C1766 C1767 1.366 . S
C1766 C1768 1.388 . S
C1767 C1766 1.366 . S
C1767 C1771 1.385 . S
C1768 H1749 0.951 . S
C1768 C1766 1.388 . S
C1768 C1769 1.366 . S
C1769 C1768 1.366 . S
C1769 C1770 1.414 . S
C1769 C1772 1.499 . S
C1770 H1750 0.950 . S
C1770 C1769 1.414 . S
C1770 C1771 1.374 . S
C1771 H1751 0.950 . S
C1771 C1767 1.385 . S
C1771 C1770 1.374 . S
C1772 C1769 1.499 . S
C1772 C1773 1.373 . S
C1772 C1774 1.389 . S
C1773 H1752 0.950 . S
C1773 C1772 1.373 . S
C1773 C1789 1.377 . S
C1774 C1772 1.389 . S
C1774 C1775 1.524 . S
C1774 C1788 1.377 . S
C1775 C1774 1.524 . S
C1775 C1776 1.397 . S
C1775 C1780 1.363 . S
C1776 H1753 0.950 . S
C1776 C1775 1.397 . S
C1776 C1777 1.334 . S
C1777 H1754 0.950 . S
C1777 C1776 1.334 . S
C1777 C1778 1.287 . S
C1778 C1777 1.287 . S
C1778 C1779 1.524 . S
C1778 H1797 0.913 . S
C1779 H1755 0.950 . S
C1779 C1778 1.524 . S
C1779 C1780 1.415 . S
C1780 H1756 0.950 . S
C1780 C1775 1.363 . S
C1780 C1779 1.415 . S
C1781 H1757 0.951 . S
C1781 C1782 1.366 . S
C1781 C1783 1.388 . S
C1782 C1781 1.366 . S
C1782 C1786 1.385 . S
C1783 H1758 0.951 . S
C1783 C1781 1.388 . S
C1783 C1784 1.366 . S
C1784 C1783 1.366 . S
C1784 C1785 1.414 . S
C1784 C1787 1.499 . S
C1785 H1759 0.950 . S
C1785 C1784 1.414 . S
C1785 C1786 1.374 . S
C1786 H1760 0.950 . S
C1786 C1782 1.385 . S
C1786 C1785 1.374 . S
C1787 C1784 1.499 . S
C1787 C1788 1.373 . S
C1787 C1789 1.389 . S
C1788 H1761 0.950 . S
C1788 C1774 1.377 . S
C1788 C1787 1.373 . S
C1789 C1773 1.377 . S
C1789 C1787 1.389 . S
C1789 C1790 1.524 . S
C1790 C1789 1.524 . S
C1790 C1791 1.397 . S
C1790 C1795 1.363 . S
C1791 H1762 0.950 . S
C1791 C1790 1.397 . S
C1791 C1792 1.334 . S
C1792 H1763 0.950 . S
C1792 C1791 1.334 . S
C1792 C1793 1.287 . S
C1793 C1792 1.287 . S
C1793 C1794 1.524 . S
C1793 H1796 0.999 . S
C1794 H1764 0.950 . S
C1794 C1793 1.524 . S
C1794 C1795 1.415 . S
C1795 H1765 0.950 . S
C1795 C1790 1.363 . S
C1795 C1794 1.415 . S
H1796 C1793 0.999 . S
H1797 C1778 0.913 . S
H1798 C1816 0.951 . S
H1799 C1818 0.951 . S
H1800 C1820 0.950 . S
H1801 C1821 0.950 . S
H1802 C1823 0.950 . S
H1803 C1826 0.950 . S
H1804 C1827 0.950 . S
H1805 C1829 0.950 . S
H1806 C1830 0.950 . S
H1807 C1831 0.951 . S
H1808 C1833 0.951 . S
H1809 C1835 0.950 . S
H1810 C1836 0.950 . S
H1811 C1838 0.950 . S
H1812 C1841 0.950 . S
H1813 C1842 0.950 . S
H1814 C1844 0.950 . S
H1815 C1845 0.950 . S
C1816 H1798 0.951 . S
C1816 C1817 1.366 . S
C1816 C1818 1.388 . S
C1817 C1816 1.366 . S
C1817 C1821 1.385 . S
C1818 H1799 0.951 . S
C1818 C1816 1.388 . S
C1818 C1819 1.366 . S
C1819 C1818 1.366 . S
C1819 C1820 1.414 . S
C1819 C1822 1.499 . S
C1820 H1800 0.950 . S
C1820 C1819 1.414 . S
C1820 C1821 1.374 . S
C1821 H1801 0.950 . S
C1821 C1817 1.385 . S
C1821 C1820 1.374 . S
C1822 C1819 1.499 . S
C1822 C1823 1.373 . S
C1822 C1824 1.389 . S
C1823 H1802 0.950 . S
C1823 C1822 1.373 . S
C1823 C1839 1.377 . S
C1824 C1822 1.389 . S
C1824 C1825 1.524 . S
C1824 C1838 1.377 . S
C1825 C1824 1.524 . S
C1825 C1826 1.397 . S
C1825 C1830 1.363 . S
C1826 H1803 0.950 . S
C1826 C1825 1.397 . S
C1826 C1827 1.334 . S
C1827 H1804 0.950 . S
C1827 C1826 1.334 . S
C1827 C1828 1.287 . S
C1828 C1827 1.287 . S
C1828 C1829 1.524 . S
C1828 H1847 0.913 . S
C1829 H1805 0.950 . S
C1829 C1828 1.524 . S
C1829 C1830 1.415 . S
C1830 H1806 0.950 . S
C1830 C1825 1.363 . S
C1830 C1829 1.415 . S
C1831 H1807 0.951 . S
C1831 C1832 1.366 . S
C1831 C1833 1.388 . S
C1832 C1831 1.366 . S
C1832 C1836 1.385 . S
C1833 H1808 0.951 . S
C1833 C1831 1.388 . S
C1833 C1834 1.366 . S
C1834 C1833 1.366 . S
C1834 C1835 1.414 . S
C1834 C1837 1.499 . S
C1835 H1809 0.950 . S
C1835 C1834 1.414 . S
C1835 C1836 1.374 . S
C1836 H1810 0.950 . S
C1836 C1832 1.385 . S
C1836 C1835 1.374 . S
C1837 C1834 1.499 . S
C1837 C1838 1.373 . S
C1837 C1839 1.389 . S
C1838 H1811 0.950 . S
C1838 C1824 1.377 . S
C1838 C1837 1.373 . S
C1839 C1823 1.377 . S
C1839 C1837 1.389 . S
C1839 C1840 1.524 . S
C1840 C1839 1.524 . S
C1840 C1841 1.397 . S
C1840 C1845 1.363 . S
C1841 H1812 0.950 . S
C1841 C1840 1.397 . S
C1841 C1842 1.334 . S
C1842 H1813 0.950 . S
C1842 C1841 1.334 . S
C1842 C1843 1.287 . S
C1843 C1842 1.287 . S
C1843 C1844 1.524 . S
C1843 H1846 0.999 . S
C1844 H1814 0.950 . S
C1844 C1843 1.524 . S
C1844 C1845 1.415 . S
C1845 H1815 0.950 . S
C1845 C1840 1.363 . S
C1845 C1844 1.415 . S
H1846 C1843 0.999 . S
H1847 C1828 0.913 . S
H1848 C1866 0.951 . S
H1849 C1868 0.951 . S
H1850 C1870 0.950 . S
H1851 C1871 0.950 . S
H1852 C1873 0.950 . S
H1853 C1876 0.950 . S
H1854 C1877 0.950 . S
H1855 C1879 0.950 . S
H1856 C1880 0.950 . S
H1857 C1881 0.951 . S
H1858 C1883 0.951 . S
H1859 C1885 0.950 . S
H1860 C1886 0.950 . S
H1861 C1888 0.950 . S
H1862 C1891 0.950 . S
H1863 C1892 0.950 . S
H1864 C1894 0.950 . S
H1865 C1895 0.950 . S
C1866 H1848 0.951 . S
C1866 C1867 1.366 . S
C1866 C1868 1.388 . S
C1867 C1866 1.366 . S
C1867 C1871 1.385 . S
C1868 H1849 0.951 . S
C1868 C1866 1.388 . S
C1868 C1869 1.366 . S
C1869 C1868 1.366 . S
C1869 C1870 1.414 . S
C1869 C1872 1.499 . S
C1870 H1850 0.950 . S
C1870 C1869 1.414 . S
C1870 C1871 1.374 . S
C1871 H1851 0.950 . S
C1871 C1867 1.385 . S
C1871 C1870 1.374 . S
C1872 C1869 1.499 . S
C1872 C1873 1.373 . S
C1872 C1874 1.389 . S
C1873 H1852 0.950 . S
C1873 C1872 1.373 . S
C1873 C1889 1.377 . S
C1874 C1872 1.389 . S
C1874 C1875 1.524 . S
C1874 C1888 1.377 . S
C1875 C1874 1.524 . S
C1875 C1876 1.397 . S
C1875 C1880 1.363 . S
C1876 H1853 0.950 . S
C1876 C1875 1.397 . S
C1876 C1877 1.334 . S
C1877 H1854 0.950 . S
C1877 C1876 1.334 . S
C1877 C1878 1.287 . S
C1878 C1877 1.287 . S
C1878 C1879 1.524 . S
C1878 H1897 0.913 . S
C1879 H1855 0.950 . S
C1879 C1878 1.524 . S
C1879 C1880 1.415 . S
C1880 H1856 0.950 . S
C1880 C1875 1.363 . S
C1880 C1879 1.415 . S
C1881 H1857 0.951 . S
C1881 C1882 1.366 . S
C1881 C1883 1.388 . S
C1882 C1881 1.366 . S
C1882 C1886 1.385 . S
C1883 H1858 0.951 . S
C1883 C1881 1.388 . S
C1883 C1884 1.366 . S
C1884 C1883 1.366 . S
C1884 C1885 1.414 . S
C1884 C1887 1.499 . S
C1885 H1859 0.950 . S
C1885 C1884 1.414 . S
C1885 C1886 1.374 . S
C1886 H1860 0.950 . S
C1886 C1882 1.385 . S
C1886 C1885 1.374 . S
C1887 C1884 1.499 . S
C1887 C1888 1.373 . S
C1887 C1889 1.389 . S
C1888 H1861 0.950 . S
C1888 C1874 1.377 . S
C1888 C1887 1.373 . S
C1889 C1873 1.377 . S
C1889 C1887 1.389 . S
C1889 C1890 1.524 . S
C1890 C1889 1.524 . S
C1890 C1891 1.397 . S
C1890 C1895 1.363 . S
C1891 H1862 0.950 . S
C1891 C1890 1.397 . S
C1891 C1892 1.334 . S
C1892 H1863 0.950 . S
C1892 C1891 1.334 . S
C1892 C1893 1.287 . S
C1893 C1892 1.287 . S
C1893 C1894 1.524 . S
C1893 H1896 0.999 . S
C1894 H1864 0.950 . S
C1894 C1893 1.524 . S
C1894 C1895 1.415 . S
C1895 H1865 0.950 . S
C1895 C1890 1.363 . S
C1895 C1894 1.415 . S
H1896 C1893 0.999 . S
H1897 C1878 0.913 . S
H1898 C1916 0.951 . S
H1899 C1918 0.951 . S
H1900 C1920 0.950 . S
H1901 C1921 0.950 . S
H1902 C1923 0.950 . S
H1903 C1926 0.950 . S
H1904 C1927 0.950 . S
H1905 C1929 0.950 . S
H1906 C1930 0.950 . S
H1907 C1931 0.951 . S
H1908 C1933 0.951 . S
H1909 C1935 0.950 . S
H1910 C1936 0.950 . S
H1911 C1938 0.950 . S
H1912 C1941 0.950 . S
H1913 C1942 0.950 . S
H1914 C1944 0.950 . S
H1915 C1945 0.950 . S
C1916 H1898 0.951 . S
C1916 C1917 1.366 . S
C1916 C1918 1.388 . S
C1917 C1916 1.366 . S
C1917 C1921 1.385 . S
C1918 H1899 0.951 . S
C1918 C1916 1.388 . S
C1918 C1919 1.366 . S
C1919 C1918 1.366 . S
C1919 C1920 1.414 . S
C1919 C1922 1.499 . S
C1920 H1900 0.950 . S
C1920 C1919 1.414 . S
C1920 C1921 1.374 . S
C1921 H1901 0.950 . S
C1921 C1917 1.385 . S
C1921 C1920 1.374 . S
C1922 C1919 1.499 . S
C1922 C1923 1.373 . S
C1922 C1924 1.389 . S
C1923 H1902 0.950 . S
C1923 C1922 1.373 . S
C1923 C1939 1.377 . S
C1924 C1922 1.389 . S
C1924 C1925 1.524 . S
C1924 C1938 1.377 . S
C1925 C1924 1.524 . S
C1925 C1926 1.397 . S
C1925 C1930 1.363 . S
C1926 H1903 0.950 . S
C1926 C1925 1.397 . S
C1926 C1927 1.334 . S
C1927 H1904 0.950 . S
C1927 C1926 1.334 . S
C1927 C1928 1.287 . S
C1928 C1927 1.287 . S
C1928 C1929 1.524 . S
C1928 H1947 0.913 . S
C1929 H1905 0.950 . S
C1929 C1928 1.524 . S
C1929 C1930 1.415 . S
C1930 H1906 0.950 . S
C1930 C1925 1.363 . S
C1930 C1929 1.415 . S
C1931 H1907 0.951 . S
C1931 C1932 1.366 . S
C1931 C1933 1.388 . S
C1932 C1931 1.366 . S
C1932 C1936 1.385 . S
C1933 H1908 0.951 . S
C1933 C1931 1.388 . S
C1933 C1934 1.366 . S
C1934 C1933 1.366 . S
C1934 C1935 1.414 . S
C1934 C1937 1.499 . S
C1935 H1909 0.950 . S
C1935 C1934 1.414 . S
C1935 C1936 1.374 . S
C1936 H1910 0.950 . S
C1936 C1932 1.385 . S
C1936 C1935 1.374 . S
C1937 C1934 1.499 . S
C1937 C1938 1.373 . S
C1937 C1939 1.389 . S
C1938 H1911 0.950 . S
C1938 C1924 1.377 . S
C1938 C1937 1.373 . S
C1939 C1923 1.377 . S
C1939 C1937 1.389 . S
C1939 C1940 1.524 . S
C1940 C1939 1.524 . S
C1940 C1941 1.397 . S
C1940 C1945 1.363 . S
C1941 H1912 0.950 . S
C1941 C1940 1.397 . S
C1941 C1942 1.334 . S
C1942 H1913 0.950 . S
C1942 C1941 1.334 . S
C1942 C1943 1.287 . S
C1943 C1942 1.287 . S
C1943 C1944 1.524 . S
C1943 H1946 0.999 . S
C1944 H1914 0.950 . S
C1944 C1943 1.524 . S
C1944 C1945 1.415 . S
C1945 H1915 0.950 . S
C1945 C1940 1.363 . S
C1945 C1944 1.415 . S
H1946 C1943 0.999 . S
H1947 C1928 0.913 . S
H1948 C1966 0.951 . S
H1949 C1968 0.951 . S
H1950 C1970 0.950 . S
H1951 C1971 0.950 . S
H1952 C1973 0.950 . S
H1953 C1976 0.950 . S
H1954 C1977 0.950 . S
H1955 C1979 0.950 . S
H1956 C1980 0.950 . S
H1957 C1981 0.951 . S
H1958 C1983 0.951 . S
H1959 C1985 0.950 . S
H1960 C1986 0.950 . S
H1961 C1988 0.950 . S
H1962 C1991 0.950 . S
H1963 C1992 0.950 . S
H1964 C1994 0.950 . S
H1965 C1995 0.950 . S
C1966 H1948 0.951 . S
C1966 C1967 1.366 . S
C1966 C1968 1.388 . S
C1967 C1966 1.366 . S
C1967 C1971 1.385 . S
C1968 H1949 0.951 . S
C1968 C1966 1.388 . S
C1968 C1969 1.366 . S
C1969 C1968 1.366 . S
C1969 C1970 1.414 . S
C1969 C1972 1.499 . S
C1970 H1950 0.950 . S
C1970 C1969 1.414 . S
C1970 C1971 1.374 . S
C1971 H1951 0.950 . S
C1971 C1967 1.385 . S
C1971 C1970 1.374 . S
C1972 C1969 1.499 . S
C1972 C1973 1.373 . S
C1972 C1974 1.389 . S
C1973 H1952 0.950 . S
C1973 C1972 1.373 . S
C1973 C1989 1.377 . S
C1974 C1972 1.389 . S
C1974 C1975 1.524 . S
C1974 C1988 1.377 . S
C1975 C1974 1.524 . S
C1975 C1976 1.397 . S
C1975 C1980 1.363 . S
C1976 H1953 0.950 . S
C1976 C1975 1.397 . S
C1976 C1977 1.334 . S
C1977 H1954 0.950 . S
C1977 C1976 1.334 . S
C1977 C1978 1.287 . S
C1978 C1977 1.287 . S
C1978 C1979 1.524 . S
C1978 H1997 0.913 . S
C1979 H1955 0.950 . S
C1979 C1978 1.524 . S
C1979 C1980 1.415 . S
C1980 H1956 0.950 . S
C1980 C1975 1.363 . S
C1980 C1979 1.415 . S
C1981 H1957 0.951 . S
C1981 C1982 1.366 . S
C1981 C1983 1.388 . S
C1982 C1981 1.366 . S
C1982 C1986 1.385 . S
C1983 H1958 0.951 . S
C1983 C1981 1.388 . S
C1983 C1984 1.366 . S
C1984 C1983 1.366 . S
C1984 C1985 1.414 . S
C1984 C1987 1.499 . S
C1985 H1959 0.950 . S
C1985 C1984 1.414 . S
C1985 C1986 1.374 . S
C1986 H1960 0.950 . S
C1986 C1982 1.385 . S
C1986 C1985 1.374 . S
C1987 C1984 1.499 . S
C1987 C1988 1.373 . S
C1987 C1989 1.389 . S
C1988 H1961 0.950 . S
C1988 C1974 1.377 . S
C1988 C1987 1.373 . S
C1989 C1973 1.377 . S
C1989 C1987 1.389 . S
C1989 C1990 1.524 . S
C1990 C1989 1.524 . S
C1990 C1991 1.397 . S
C1990 C1995 1.363 . S
C1991 H1962 0.950 . S
C1991 C1990 1.397 . S
C1991 C1992 1.334 . S
C1992 H1963 0.950 . S
C1992 C1991 1.334 . S
C1992 C1993 1.287 . S
C1993 C1992 1.287 . S
C1993 C1994 1.524 . S
C1993 H1996 0.999 . S
C1994 H1964 0.950 . S
C1994 C1993 1.524 . S
C1994 C1995 1.415 . S
C1995 H1965 0.950 . S
C1995 C1990 1.363 . S
C1995 C1994 1.415 . S
H1996 C1993 0.999 . S
H1997 C1978 0.913 . S
H1998 C2016 0.951 . S
H1999 C2018 0.951 . S
H2000 C2020 0.950 . S
H2001 C2021 0.950 . S
H2002 C2023 0.950 . S
H2003 C2026 0.950 . S
H2004 C2027 0.950 . S
H2005 C2029 0.950 . S
H2006 C2030 0.950 . S
H2007 C2031 0.951 . S
H2008 C2033 0.951 . S
H2009 C2035 0.950 . S
H2010 C2036 0.950 . S
H2011 C2038 0.950 . S
H2012 C2041 0.950 . S
H2013 C2042 0.950 . S
H2014 C2044 0.950 . S
H2015 C2045 0.950 . S
C2016 H1998 0.951 . S
C2016 C2017 1.366 . S
C2016 C2018 1.388 . S
C2017 C2016 1.366 . S
C2017 C2021 1.385 . S
C2018 H1999 0.951 . S
C2018 C2016 1.388 . S
C2018 C2019 1.366 . S
C2019 C2018 1.366 . S
C2019 C2020 1.414 . S
C2019 C2022 1.499 . S
C2020 H2000 0.950 . S
C2020 C2019 1.414 . S
C2020 C2021 1.374 . S
C2021 H2001 0.950 . S
C2021 C2017 1.385 . S
C2021 C2020 1.374 . S
C2022 C2019 1.499 . S
C2022 C2023 1.373 . S
C2022 C2024 1.389 . S
C2023 H2002 0.950 . S
C2023 C2022 1.373 . S
C2023 C2039 1.377 . S
C2024 C2022 1.389 . S
C2024 C2025 1.524 . S
C2024 C2038 1.377 . S
C2025 C2024 1.524 . S
C2025 C2026 1.397 . S
C2025 C2030 1.363 . S
C2026 H2003 0.950 . S
C2026 C2025 1.397 . S
C2026 C2027 1.334 . S
C2027 H2004 0.950 . S
C2027 C2026 1.334 . S
C2027 C2028 1.287 . S
C2028 C2027 1.287 . S
C2028 C2029 1.524 . S
C2028 H2047 0.913 . S
C2029 H2005 0.950 . S
C2029 C2028 1.524 . S
C2029 C2030 1.415 . S
C2030 H2006 0.950 . S
C2030 C2025 1.363 . S
C2030 C2029 1.415 . S
C2031 H2007 0.951 . S
C2031 C2032 1.366 . S
C2031 C2033 1.388 . S
C2032 C2031 1.366 . S
C2032 C2036 1.385 . S
C2033 H2008 0.951 . S
C2033 C2031 1.388 . S
C2033 C2034 1.366 . S
C2034 C2033 1.366 . S
C2034 C2035 1.414 . S
C2034 C2037 1.499 . S
C2035 H2009 0.950 . S
C2035 C2034 1.414 . S
C2035 C2036 1.374 . S
C2036 H2010 0.950 . S
C2036 C2032 1.385 . S
C2036 C2035 1.374 . S
C2037 C2034 1.499 . S
C2037 C2038 1.373 . S
C2037 C2039 1.389 . S
C2038 H2011 0.950 . S
C2038 C2024 1.377 . S
C2038 C2037 1.373 . S
C2039 C2023 1.377 . S
C2039 C2037 1.389 . S
C2039 C2040 1.524 . S
C2040 C2039 1.524 . S
C2040 C2041 1.397 . S
C2040 C2045 1.363 . S
C2041 H2012 0.950 . S
C2041 C2040 1.397 . S
C2041 C2042 1.334 . S
C2042 H2013 0.950 . S
C2042 C2041 1.334 . S
C2042 C2043 1.287 . S
C2043 C2042 1.287 . S
C2043 C2044 1.524 . S
C2043 H2046 0.999 . S
C2044 H2014 0.950 . S
C2044 C2043 1.524 . S
C2044 C2045 1.415 . S
C2045 H2015 0.950 . S
C2045 C2040 1.363 . S
C2045 C2044 1.415 . S
H2046 C2043 0.999 . S
H2047 C2028 0.913 . S
H2048 C2066 0.951 . S
H2049 C2068 0.951 . S
H2050 C2070 0.950 . S
H2051 C2071 0.950 . S
H2052 C2073 0.950 . S
H2053 C2076 0.950 . S
H2054 C2077 0.950 . S
H2055 C2079 0.950 . S
H2056 C2080 0.950 . S
H2057 C2081 0.951 . S
H2058 C2083 0.951 . S
H2059 C2085 0.950 . S
H2060 C2086 0.950 . S
H2061 C2088 0.950 . S
H2062 C2091 0.950 . S
H2063 C2092 0.950 . S
H2064 C2094 0.950 . S
H2065 C2095 0.950 . S
C2066 H2048 0.951 . S
C2066 C2067 1.366 . S
C2066 C2068 1.388 . S
C2067 C2066 1.366 . S
C2067 C2071 1.385 . S
C2068 H2049 0.951 . S
C2068 C2066 1.388 . S
C2068 C2069 1.366 . S
C2069 C2068 1.366 . S
C2069 C2070 1.414 . S
C2069 C2072 1.499 . S
C2070 H2050 0.950 . S
C2070 C2069 1.414 . S
C2070 C2071 1.374 . S
C2071 H2051 0.950 . S
C2071 C2067 1.385 . S
C2071 C2070 1.374 . S
C2072 C2069 1.499 . S
C2072 C2073 1.373 . S
C2072 C2074 1.389 . S
C2073 H2052 0.950 . S
C2073 C2072 1.373 . S
C2073 C2089 1.377 . S
C2074 C2072 1.389 . S
C2074 C2075 1.524 . S
C2074 C2088 1.377 . S
C2075 C2074 1.524 . S
C2075 C2076 1.397 . S
C2075 C2080 1.363 . S
C2076 H2053 0.950 . S
C2076 C2075 1.397 . S
C2076 C2077 1.334 . S
C2077 H2054 0.950 . S
C2077 C2076 1.334 . S
C2077 C2078 1.287 . S
C2078 C2077 1.287 . S
C2078 C2079 1.524 . S
C2078 H2097 0.913 . S
C2079 H2055 0.950 . S
C2079 C2078 1.524 . S
C2079 C2080 1.415 . S
C2080 H2056 0.950 . S
C2080 C2075 1.363 . S
C2080 C2079 1.415 . S
C2081 H2057 0.951 . S
C2081 C2082 1.366 . S
C2081 C2083 1.388 . S
C2082 C2081 1.366 . S
C2082 C2086 1.385 . S
C2083 H2058 0.951 . S
C2083 C2081 1.388 . S
C2083 C2084 1.366 . S
C2084 C2083 1.366 . S
C2084 C2085 1.414 . S
C2084 C2087 1.499 . S
C2085 H2059 0.950 . S
C2085 C2084 1.414 . S
C2085 C2086 1.374 . S
C2086 H2060 0.950 . S
C2086 C2082 1.385 . S
C2086 C2085 1.374 . S
C2087 C2084 1.499 . S
C2087 C2088 1.373 . S
C2087 C2089 1.389 . S
C2088 H2061 0.950 . S
C2088 C2074 1.377 . S
C2088 C2087 1.373 . S
C2089 C2073 1.377 . S
C2089 C2087 1.389 . S
C2089 C2090 1.524 . S
C2090 C2089 1.524 . S
C2090 C2091 1.397 . S
C2090 C2095 1.363 . S
C2091 H2062 0.950 . S
C2091 C2090 1.397 . S
C2091 C2092 1.334 . S
C2092 H2063 0.950 . S
C2092 C2091 1.334 . S
C2092 C2093 1.287 . S
C2093 C2092 1.287 . S
C2093 C2094 1.524 . S
C2093 H2096 0.999 . S
C2094 H2064 0.950 . S
C2094 C2093 1.524 . S
C2094 C2095 1.415 . S
C2095 H2065 0.950 . S
C2095 C2090 1.363 . S
C2095 C2094 1.415 . S
H2096 C2093 0.999 . S
H2097 C2078 0.913 . S
H2098 C2116 0.951 . S
H2099 C2118 0.951 . S
H2100 C2120 0.950 . S
H2101 C2121 0.950 . S
H2102 C2123 0.950 . S
H2103 C2126 0.950 . S
H2104 C2127 0.950 . S
H2105 C2129 0.950 . S
H2106 C2130 0.950 . S
H2107 C2131 0.951 . S
H2108 C2133 0.951 . S
H2109 C2135 0.950 . S
H2110 C2136 0.950 . S
H2111 C2138 0.950 . S
H2112 C2141 0.950 . S
H2113 C2142 0.950 . S
H2114 C2144 0.950 . S
H2115 C2145 0.950 . S
C2116 H2098 0.951 . S
C2116 C2117 1.366 . S
C2116 C2118 1.388 . S
C2117 C2116 1.366 . S
C2117 C2121 1.385 . S
C2118 H2099 0.951 . S
C2118 C2116 1.388 . S
C2118 C2119 1.366 . S
C2119 C2118 1.366 . S
C2119 C2120 1.414 . S
C2119 C2122 1.499 . S
C2120 H2100 0.950 . S
C2120 C2119 1.414 . S
C2120 C2121 1.374 . S
C2121 H2101 0.950 . S
C2121 C2117 1.385 . S
C2121 C2120 1.374 . S
C2122 C2119 1.499 . S
C2122 C2123 1.373 . S
C2122 C2124 1.389 . S
C2123 H2102 0.950 . S
C2123 C2122 1.373 . S
C2123 C2139 1.377 . S
C2124 C2122 1.389 . S
C2124 C2125 1.524 . S
C2124 C2138 1.377 . S
C2125 C2124 1.524 . S
C2125 C2126 1.397 . S
C2125 C2130 1.363 . S
C2126 H2103 0.950 . S
C2126 C2125 1.397 . S
C2126 C2127 1.334 . S
C2127 H2104 0.950 . S
C2127 C2126 1.334 . S
C2127 C2128 1.287 . S
C2128 C2127 1.287 . S
C2128 C2129 1.524 . S
C2128 H2147 0.913 . S
C2129 H2105 0.950 . S
C2129 C2128 1.524 . S
C2129 C2130 1.415 . S
C2130 H2106 0.950 . S
C2130 C2125 1.363 . S
C2130 C2129 1.415 . S
C2131 H2107 0.951 . S
C2131 C2132 1.366 . S
C2131 C2133 1.388 . S
C2132 C2131 1.366 . S
C2132 C2136 1.385 . S
C2133 H2108 0.951 . S
C2133 C2131 1.388 . S
C2133 C2134 1.366 . S
C2134 C2133 1.366 . S
C2134 C2135 1.414 . S
C2134 C2137 1.499 . S
C2135 H2109 0.950 . S
C2135 C2134 1.414 . S
C2135 C2136 1.374 . S
C2136 H2110 0.950 . S
C2136 C2132 1.385 . S
C2136 C2135 1.374 . S
C2137 C2134 1.499 . S
C2137 C2138 1.373 . S
C2137 C2139 1.389 . S
C2138 H2111 0.950 . S
C2138 C2124 1.377 . S
C2138 C2137 1.373 . S
C2139 C2123 1.377 . S
C2139 C2137 1.389 . S
C2139 C2140 1.524 . S
C2140 C2139 1.524 . S
C2140 C2141 1.397 . S
C2140 C2145 1.363 . S
C2141 H2112 0.950 . S
C2141 C2140 1.397 . S
C2141 C2142 1.334 . S
C2142 H2113 0.950 . S
C2142 C2141 1.334 . S
C2142 C2143 1.287 . S
C2143 C2142 1.287 . S
C2143 C2144 1.524 . S
C2143 H2146 0.999 . S
C2144 H2114 0.950 . S
C2144 C2143 1.524 . S
C2144 C2145 1.415 . S
C2145 H2115 0.950 . S
C2145 C2140 1.363 . S
C2145 C2144 1.415 . S
H2146 C2143 0.999 . S
H2147 C2128 0.913 . S
H2148 C2166 0.951 . S
H2149 C2168 0.951 . S
H2150 C2170 0.950 . S
H2151 C2171 0.950 . S
H2152 C2173 0.950 . S
H2153 C2176 0.950 . S
H2154 C2177 0.950 . S
H2155 C2179 0.950 . S
H2156 C2180 0.950 . S
H2157 C2181 0.951 . S
H2158 C2183 0.951 . S
H2159 C2185 0.950 . S
H2160 C2186 0.950 . S
H2161 C2188 0.950 . S
H2162 C2191 0.950 . S
H2163 C2192 0.950 . S
H2164 C2194 0.950 . S
H2165 C2195 0.950 . S
C2166 H2148 0.951 . S
C2166 C2167 1.366 . S
C2166 C2168 1.388 . S
C2167 C2166 1.366 . S
C2167 C2171 1.385 . S
C2168 H2149 0.951 . S
C2168 C2166 1.388 . S
C2168 C2169 1.366 . S
C2169 C2168 1.366 . S
C2169 C2170 1.414 . S
C2169 C2172 1.499 . S
C2170 H2150 0.950 . S
C2170 C2169 1.414 . S
C2170 C2171 1.374 . S
C2171 H2151 0.950 . S
C2171 C2167 1.385 . S
C2171 C2170 1.374 . S
C2172 C2169 1.499 . S
C2172 C2173 1.373 . S
C2172 C2174 1.389 . S
C2173 H2152 0.950 . S
C2173 C2172 1.373 . S
C2173 C2189 1.377 . S
C2174 C2172 1.389 . S
C2174 C2175 1.524 . S
C2174 C2188 1.377 . S
C2175 C2174 1.524 . S
C2175 C2176 1.397 . S
C2175 C2180 1.363 . S
C2176 H2153 0.950 . S
C2176 C2175 1.397 . S
C2176 C2177 1.334 . S
C2177 H2154 0.950 . S
C2177 C2176 1.334 . S
C2177 C2178 1.287 . S
C2178 C2177 1.287 . S
C2178 C2179 1.524 . S
C2178 H2197 0.913 . S
C2179 H2155 0.950 . S
C2179 C2178 1.524 . S
C2179 C2180 1.415 . S
C2180 H2156 0.950 . S
C2180 C2175 1.363 . S
C2180 C2179 1.415 . S
C2181 H2157 0.951 . S
C2181 C2182 1.366 . S
C2181 C2183 1.388 . S
C2182 C2181 1.366 . S
C2182 C2186 1.385 . S
C2183 H2158 0.951 . S
C2183 C2181 1.388 . S
C2183 C2184 1.366 . S
C2184 C2183 1.366 . S
C2184 C2185 1.414 . S
C2184 C2187 1.499 . S
C2185 H2159 0.950 . S
C2185 C2184 1.414 . S
C2185 C2186 1.374 . S
C2186 H2160 0.950 . S
C2186 C2182 1.385 . S
C2186 C2185 1.374 . S
C2187 C2184 1.499 . S
C2187 C2188 1.373 . S
C2187 C2189 1.389 . S
C2188 H2161 0.950 . S
C2188 C2174 1.377 . S
C2188 C2187 1.373 . S
C2189 C2173 1.377 . S
C2189 C2187 1.389 . S
C2189 C2190 1.524 . S
C2190 C2189 1.524 . S
C2190 C2191 1.397 . S
C2190 C2195 1.363 . S
C2191 H2162 0.950 . S
C2191 C2190 1.397 . S
C2191 C2192 1.334 . S
C2192 H2163 0.950 . S
C2192 C2191 1.334 . S
C2192 C2193 1.287 . S
C2193 C2192 1.287 . S
C2193 C2194 1.524 . S
C2193 H2196 0.999 . S
C2194 H2164 0.950 . S
C2194 C2193 1.524 . S
C2194 C2195 1.415 . S
C2195 H2165 0.950 . S
C2195 C2190 1.363 . S
C2195 C2194 1.415 . S
H2196 C2193 0.999 . S
H2197 C2178 0.913 . S
H2198 C2216 0.951 . S
H2199 C2218 0.951 . S
H2200 C2220 0.950 . S
H2201 C2221 0.950 . S
H2202 C2223 0.950 . S
H2203 C2226 0.950 . S
H2204 C2227 0.950 . S
H2205 C2229 0.950 . S
H2206 C2230 0.950 . S
H2207 C2231 0.951 . S
H2208 C2233 0.951 . S
H2209 C2235 0.950 . S
H2210 C2236 0.950 . S
H2211 C2238 0.950 . S
H2212 C2241 0.950 . S
H2213 C2242 0.950 . S
H2214 C2244 0.950 . S
H2215 C2245 0.950 . S
C2216 H2198 0.951 . S
C2216 C2217 1.366 . S
C2216 C2218 1.388 . S
C2217 C2216 1.366 . S
C2217 C2221 1.385 . S
C2218 H2199 0.951 . S
C2218 C2216 1.388 . S
C2218 C2219 1.366 . S
C2219 C2218 1.366 . S
C2219 C2220 1.414 . S
C2219 C2222 1.499 . S
C2220 H2200 0.950 . S
C2220 C2219 1.414 . S
C2220 C2221 1.374 . S
C2221 H2201 0.950 . S
C2221 C2217 1.385 . S
C2221 C2220 1.374 . S
C2222 C2219 1.499 . S
C2222 C2223 1.373 . S
C2222 C2224 1.389 . S
C2223 H2202 0.950 . S
C2223 C2222 1.373 . S
C2223 C2239 1.377 . S
C2224 C2222 1.389 . S
C2224 C2225 1.524 . S
C2224 C2238 1.377 . S
C2225 C2224 1.524 . S
C2225 C2226 1.397 . S
C2225 C2230 1.363 . S
C2226 H2203 0.950 . S
C2226 C2225 1.397 . S
C2226 C2227 1.334 . S
C2227 H2204 0.950 . S
C2227 C2226 1.334 . S
C2227 C2228 1.287 . S
C2228 C2227 1.287 . S
C2228 C2229 1.524 . S
C2228 H2247 0.913 . S
C2229 H2205 0.950 . S
C2229 C2228 1.524 . S
C2229 C2230 1.415 . S
C2230 H2206 0.950 . S
C2230 C2225 1.363 . S
C2230 C2229 1.415 . S
C2231 H2207 0.951 . S
C2231 C2232 1.366 . S
C2231 C2233 1.388 . S
C2232 C2231 1.366 . S
C2232 C2236 1.385 . S
C2233 H2208 0.951 . S
C2233 C2231 1.388 . S
C2233 C2234 1.366 . S
C2234 C2233 1.366 . S
C2234 C2235 1.414 . S
C2234 C2237 1.499 . S
C2235 H2209 0.950 . S
C2235 C2234 1.414 . S
C2235 C2236 1.374 . S
C2236 H2210 0.950 . S
C2236 C2232 1.385 . S
C2236 C2235 1.374 . S
C2237 C2234 1.499 . S
C2237 C2238 1.373 . S
C2237 C2239 1.389 . S
C2238 H2211 0.950 . S
C2238 C2224 1.377 . S
C2238 C2237 1.373 . S
C2239 C2223 1.377 . S
C2239 C2237 1.389 . S
C2239 C2240 1.524 . S
C2240 C2239 1.524 . S
C2240 C2241 1.397 . S
C2240 C2245 1.363 . S
C2241 H2212 0.950 . S
C2241 C2240 1.397 . S
C2241 C2242 1.334 . S
C2242 H2213 0.950 . S
C2242 C2241 1.334 . S
C2242 C2243 1.287 . S
C2243 C2242 1.287 . S
C2243 C2244 1.524 . S
C2243 H2246 0.999 . S
C2244 H2214 0.950 . S
C2244 C2243 1.524 . S
C2244 C2245 1.415 . S
C2245 H2215 0.950 . S
C2245 C2240 1.363 . S
C2245 C2244 1.415 . S
H2246 C2243 0.999 . S
H2247 C2228 0.913 . S
H2248 C2266 0.951 . S
H2249 C2268 0.951 . S
H2250 C2270 0.950 . S
H2251 C2271 0.950 . S
H2252 C2273 0.950 . S
H2253 C2276 0.950 . S
H2254 C2277 0.950 . S
H2255 C2279 0.950 . S
H2256 C2280 0.950 . S
H2257 C2281 0.951 . S
H2258 C2283 0.951 . S
H2259 C2285 0.950 . S
H2260 C2286 0.950 . S
H2261 C2288 0.950 . S
H2262 C2291 0.950 . S
H2263 C2292 0.950 . S
H2264 C2294 0.950 . S
H2265 C2295 0.950 . S
C2266 H2248 0.951 . S
C2266 C2267 1.366 . S
C2266 C2268 1.388 . S
C2267 C2266 1.366 . S
C2267 C2271 1.385 . S
C2268 H2249 0.951 . S
C2268 C2266 1.388 . S
C2268 C2269 1.366 . S
C2269 C2268 1.366 . S
C2269 C2270 1.414 . S
C2269 C2272 1.499 . S
C2270 H2250 0.950 . S
C2270 C2269 1.414 . S
C2270 C2271 1.374 . S
C2271 H2251 0.950 . S
C2271 C2267 1.385 . S
C2271 C2270 1.374 . S
C2272 C2269 1.499 . S
C2272 C2273 1.373 . S
C2272 C2274 1.389 . S
C2273 H2252 0.950 . S
C2273 C2272 1.373 . S
C2273 C2289 1.377 . S
C2274 C2272 1.389 . S
C2274 C2275 1.524 . S
C2274 C2288 1.377 . S
C2275 C2274 1.524 . S
C2275 C2276 1.397 . S
C2275 C2280 1.363 . S
C2276 H2253 0.950 . S
C2276 C2275 1.397 . S
C2276 C2277 1.334 . S
C2277 H2254 0.950 . S
C2277 C2276 1.334 . S
C2277 C2278 1.287 . S
C2278 C2277 1.287 . S
C2278 C2279 1.524 . S
C2278 H2297 0.913 . S
C2279 H2255 0.950 . S
C2279 C2278 1.524 . S
C2279 C2280 1.415 . S
C2280 H2256 0.950 . S
C2280 C2275 1.363 . S
C2280 C2279 1.415 . S
C2281 H2257 0.951 . S
C2281 C2282 1.366 . S
C2281 C2283 1.388 . S
C2282 C2281 1.366 . S
C2282 C2286 1.385 . S
C2283 H2258 0.951 . S
C2283 C2281 1.388 . S
C2283 C2284 1.366 . S
C2284 C2283 1.366 . S
C2284 C2285 1.414 . S
C2284 C2287 1.499 . S
C2285 H2259 0.950 . S
C2285 C2284 1.414 . S
C2285 C2286 1.374 . S
C2286 H2260 0.950 . S
C2286 C2282 1.385 . S
C2286 C2285 1.374 . S
C2287 C2284 1.499 . S
C2287 C2288 1.373 . S
C2287 C2289 1.389 . S
C2288 H2261 0.950 . S
C2288 C2274 1.377 . S
C2288 C2287 1.373 . S
C2289 C2273 1.377 . S
C2289 C2287 1.389 . S
C2289 C2290 1.524 . S
C2290 C2289 1.524 . S
C2290 C2291 1.397 . S
C2290 C2295 1.363 . S
C2291 H2262 0.950 . S
C2291 C2290 1.397 . S
C2291 C2292 1.334 . S
C2292 H2263 0.950 . S
C2292 C2291 1.334 . S
C2292 C2293 1.287 . S
C2293 C2292 1.287 . S
C2293 C2294 1.524 . S
C2293 H2296 0.999 . S
C2294 H2264 0.950 . S
C2294 C2293 1.524 . S
C2294 C2295 1.415 . S
C2295 H2265 0.950 . S
C2295 C2290 1.363 . S
C2295 C2294 1.415 . S
H2296 C2293 0.999 . S
H2297 C2278 0.913 . S
H2298 C2316 0.951 . S
H2299 C2318 0.951 . S
H2300 C2320 0.950 . S
H2301 C2321 0.950 . S
H2302 C2323 0.950 . S
H2303 C2326 0.950 . S
H2304 C2327 0.950 . S
H2305 C2329 0.950 . S
H2306 C2330 0.950 . S
H2307 C2331 0.951 . S
H2308 C2333 0.951 . S
H2309 C2335 0.950 . S
H2310 C2336 0.950 . S
H2311 C2338 0.950 . S
H2312 C2341 0.950 . S
H2313 C2342 0.950 . S
H2314 C2344 0.950 . S
H2315 C2345 0.950 . S
C2316 H2298 0.951 . S
C2316 C2317 1.366 . S
C2316 C2318 1.388 . S
C2317 C2316 1.366 . S
C2317 C2321 1.385 . S
C2318 H2299 0.951 . S
C2318 C2316 1.388 . S
C2318 C2319 1.366 . S
C2319 C2318 1.366 . S
C2319 C2320 1.414 . S
C2319 C2322 1.499 . S
C2320 H2300 0.950 . S
C2320 C2319 1.414 . S
C2320 C2321 1.374 . S
C2321 H2301 0.950 . S
C2321 C2317 1.385 . S
C2321 C2320 1.374 . S
C2322 C2319 1.499 . S
C2322 C2323 1.373 . S
C2322 C2324 1.389 . S
C2323 H2302 0.950 . S
C2323 C2322 1.373 . S
C2323 C2339 1.377 . S
C2324 C2322 1.389 . S
C2324 C2325 1.524 . S
C2324 C2338 1.377 . S
C2325 C2324 1.524 . S
C2325 C2326 1.397 . S
C2325 C2330 1.363 . S
C2326 H2303 0.950 . S
C2326 C2325 1.397 . S
C2326 C2327 1.334 . S
C2327 H2304 0.950 . S
C2327 C2326 1.334 . S
C2327 C2328 1.287 . S
C2328 C2327 1.287 . S
C2328 C2329 1.524 . S
C2328 H2347 0.913 . S
C2329 H2305 0.950 . S
C2329 C2328 1.524 . S
C2329 C2330 1.415 . S
C2330 H2306 0.950 . S
C2330 C2325 1.363 . S
C2330 C2329 1.415 . S
C2331 H2307 0.951 . S
C2331 C2332 1.366 . S
C2331 C2333 1.388 . S
C2332 C2331 1.366 . S
C2332 C2336 1.385 . S
C2333 H2308 0.951 . S
C2333 C2331 1.388 . S
C2333 C2334 1.366 . S
C2334 C2333 1.366 . S
C2334 C2335 1.414 . S
C2334 C2337 1.499 . S
C2335 H2309 0.950 . S
C2335 C2334 1.414 . S
C2335 C2336 1.374 . S
C2336 H2310 0.950 . S
C2336 C2332 1.385 . S
C2336 C2335 1.374 . S
C2337 C2334 1.499 . S
C2337 C2338 1.373 . S
C2337 C2339 1.389 . S
C2338 H2311 0.950 . S
C2338 C2324 1.377 . S
C2338 C2337 1.373 . S
C2339 C2323 1.377 . S
C2339 C2337 1.389 . S
C2339 C2340 1.524 . S
C2340 C2339 1.524 . S
C2340 C2341 1.397 . S
C2340 C2345 1.363 . S
C2341 H2312 0.950 . S
C2341 C2340 1.397 . S
C2341 C2342 1.334 . S
C2342 H2313 0.950 . S
C2342 C2341 1.334 . S
C2342 C2343 1.287 . S
C2343 C2342 1.287 . S
C2343 C2344 1.524 . S
C2343 H2346 0.999 . S
C2344 H2314 0.950 . S
C2344 C2343 1.524 . S
C2344 C2345 1.415 . S
C2345 H2315 0.950 . S
C2345 C2340 1.363 . S
C2345 C2344 1.415 . S
H2346 C2343 0.999 . S
H2347 C2328 0.913 . S
H2348 C2366 0.951 . S
H2349 C2368 0.951 . S
H2350 C2370 0.950 . S
H2351 C2371 0.950 . S
H2352 C2373 0.950 . S
H2353 C2376 0.950 . S
H2354 C2377 0.950 . S
H2355 C2379 0.950 . S
H2356 C2380 0.950 . S
H2357 C2381 0.951 . S
H2358 C2383 0.951 . S
H2359 C2385 0.950 . S
H2360 C2386 0.950 . S
H2361 C2388 0.950 . S
H2362 C2391 0.950 . S
H2363 C2392 0.950 . S
H2364 C2394 0.950 . S
H2365 C2395 0.950 . S
C2366 H2348 0.951 . S
C2366 C2367 1.366 . S
C2366 C2368 1.388 . S
C2367 C2366 1.366 . S
C2367 C2371 1.385 . S
C2368 H2349 0.951 . S
C2368 C2366 1.388 . S
C2368 C2369 1.366 . S
C2369 C2368 1.366 . S
C2369 C2370 1.414 . S
C2369 C2372 1.499 . S
C2370 H2350 0.950 . S
C2370 C2369 1.414 . S
C2370 C2371 1.374 . S
C2371 H2351 0.950 . S
C2371 C2367 1.385 . S
C2371 C2370 1.374 . S
C2372 C2369 1.499 . S
C2372 C2373 1.373 . S
C2372 C2374 1.389 . S
C2373 H2352 0.950 . S
C2373 C2372 1.373 . S
C2373 C2389 1.377 . S
C2374 C2372 1.389 . S
C2374 C2375 1.524 . S
C2374 C2388 1.377 . S
C2375 C2374 1.524 . S
C2375 C2376 1.397 . S
C2375 C2380 1.363 . S
C2376 H2353 0.950 . S
C2376 C2375 1.397 . S
C2376 C2377 1.334 . S
C2377 H2354 0.950 . S
C2377 C2376 1.334 . S
C2377 C2378 1.287 . S
C2378 C2377 1.287 . S
C2378 C2379 1.524 . S
C2378 H2397 0.913 . S
C2379 H2355 0.950 . S
C2379 C2378 1.524 . S
C2379 C2380 1.415 . S
C2380 H2356 0.950 . S
C2380 C2375 1.363 . S
C2380 C2379 1.415 . S
C2381 H2357 0.951 . S
C2381 C2382 1.366 . S
C2381 C2383 1.388 . S
C2382 C2381 1.366 . S
C2382 C2386 1.385 . S
C2383 H2358 0.951 . S
C2383 C2381 1.388 . S
C2383 C2384 1.366 . S
C2384 C2383 1.366 . S
C2384 C2385 1.414 . S
C2384 C2387 1.499 . S
C2385 H2359 0.950 . S
C2385 C2384 1.414 . S
C2385 C2386 1.374 . S
C2386 H2360 0.950 . S
C2386 C2382 1.385 . S
C2386 C2385 1.374 . S
C2387 C2384 1.499 . S
C2387 C2388 1.373 . S
C2387 C2389 1.389 . S
C2388 H2361 0.950 . S
C2388 C2374 1.377 . S
C2388 C2387 1.373 . S
C2389 C2373 1.377 . S
C2389 C2387 1.389 . S
C2389 C2390 1.524 . S
C2390 C2389 1.524 . S
C2390 C2391 1.397 . S
C2390 C2395 1.363 . S
C2391 H2362 0.950 . S
C2391 C2390 1.397 . S
C2391 C2392 1.334 . S
C2392 H2363 0.950 . S
C2392 C2391 1.334 . S
C2392 C2393 1.287 . S
C2393 C2392 1.287 . S
C2393 C2394 1.524 . S
C2393 H2396 0.999 . S
C2394 H2364 0.950 . S
C2394 C2393 1.524 . S
C2394 C2395 1.415 . S
C2395 H2365 0.950 . S
C2395 C2390 1.363 . S
C2395 C2394 1.415 . S
H2396 C2393 0.999 . S
H2397 C2378 0.913 . S
H2398 C2416 0.951 . S
H2399 C2418 0.951 . S
H2400 C2420 0.950 . S
H2401 C2421 0.950 . S
H2402 C2423 0.950 . S
H2403 C2426 0.950 . S
H2404 C2427 0.950 . S
H2405 C2429 0.950 . S
H2406 C2430 0.950 . S
H2407 C2431 0.951 . S
H2408 C2433 0.951 . S
H2409 C2435 0.950 . S
H2410 C2436 0.950 . S
H2411 C2438 0.950 . S
H2412 C2441 0.950 . S
H2413 C2442 0.950 . S
H2414 C2444 0.950 . S
H2415 C2445 0.950 . S
C2416 H2398 0.951 . S
C2416 C2417 1.366 . S
C2416 C2418 1.388 . S
C2417 C2416 1.366 . S
C2417 C2421 1.385 . S
C2418 H2399 0.951 . S
C2418 C2416 1.388 . S
C2418 C2419 1.366 . S
C2419 C2418 1.366 . S
C2419 C2420 1.414 . S
C2419 C2422 1.499 . S
C2420 H2400 0.950 . S
C2420 C2419 1.414 . S
C2420 C2421 1.374 . S
C2421 H2401 0.950 . S
C2421 C2417 1.385 . S
C2421 C2420 1.374 . S
C2422 C2419 1.499 . S
C2422 C2423 1.373 . S
C2422 C2424 1.389 . S
C2423 H2402 0.950 . S
C2423 C2422 1.373 . S
C2423 C2439 1.377 . S
C2424 C2422 1.389 . S
C2424 C2425 1.524 . S
C2424 C2438 1.377 . S
C2425 C2424 1.524 . S
C2425 C2426 1.397 . S
C2425 C2430 1.363 . S
C2426 H2403 0.950 . S
C2426 C2425 1.397 . S
C2426 C2427 1.334 . S
C2427 H2404 0.950 . S
C2427 C2426 1.334 . S
C2427 C2428 1.287 . S
C2428 C2427 1.287 . S
C2428 C2429 1.524 . S
C2428 H2447 0.913 . S
C2429 H2405 0.950 . S
C2429 C2428 1.524 . S
C2429 C2430 1.415 . S
C2430 H2406 0.950 . S
C2430 C2425 1.363 . S
C2430 C2429 1.415 . S
C2431 H2407 0.951 . S
C2431 C2432 1.366 . S
C2431 C2433 1.388 . S
C2432 C2431 1.366 . S
C2432 C2436 1.385 . S
C2433 H2408 0.951 . S
C2433 C2431 1.388 . S
C2433 C2434 1.366 . S
C2434 C2433 1.366 . S
C2434 C2435 1.414 . S
C2434 C2437 1.499 . S
C2435 H2409 0.950 . S
C2435 C2434 1.414 . S
C2435 C2436 1.374 . S
C2436 H2410 0.950 . S
C2436 C2432 1.385 . S
C2436 C2435 1.374 . S
C2437 C2434 1.499 . S
C2437 C2438 1.373 . S
C2437 C2439 1.389 . S
C2438 H2411 0.950 . S
C2438 C2424 1.377 . S
C2438 C2437 1.373 . S
C2439 C2423 1.377 . S
C2439 C2437 1.389 . S
C2439 C2440 1.524 . S
C2440 C2439 1.524 . S
C2440 C2441 1.397 . S
C2440 C2445 1.363 . S
C2441 H2412 0.950 . S
C2441 C2440 1.397 . S
C2441 C2442 1.334 . S
C2442 H2413 0.950 . S
C2442 C2441 1.334 . S
C2442 C2443 1.287 . S
C2443 C2442 1.287 . S
C2443 C2444 1.524 . S
C2443 H2446 0.999 . S
C2444 H2414 0.950 . S
C2444 C2443 1.524 . S
C2444 C2445 1.415 . S
C2445 H2415 0.950 . S
C2445 C2440 1.363 . S
C2445 C2444 1.415 . S
H2446 C2443 0.999 . S
H2447 C2428 0.913 . S
H2448 C2466 0.951 . S
H2449 C2468 0.951 . S
H2450 C2470 0.950 . S
H2451 C2471 0.950 . S
H2452 C2473 0.950 . S
H2453 C2476 0.950 . S
H2454 C2477 0.950 . S
H2455 C2479 0.950 . S
H2456 C2480 0.950 . S
H2457 C2481 0.951 . S
H2458 C2483 0.951 . S
H2459 C2485 0.950 . S
H2460 C2486 0.950 . S
H2461 C2488 0.950 . S
H2462 C2491 0.950 . S
H2463 C2492 0.950 . S
H2464 C2494 0.950 . S
H2465 C2495 0.950 . S
C2466 H2448 0.951 . S
C2466 C2467 1.366 . S
C2466 C2468 1.388 . S
C2467 C2466 1.366 . S
C2467 C2471 1.385 . S
C2468 H2449 0.951 . S
C2468 C2466 1.388 . S
C2468 C2469 1.366 . S
C2469 C2468 1.366 . S
C2469 C2470 1.414 . S
C2469 C2472 1.499 . S
C2470 H2450 0.950 . S
C2470 C2469 1.414 . S
C2470 C2471 1.374 . S
C2471 H2451 0.950 . S
C2471 C2467 1.385 . S
C2471 C2470 1.374 . S
C2472 C2469 1.499 . S
C2472 C2473 1.373 . S
C2472 C2474 1.389 . S
C2473 H2452 0.950 . S
C2473 C2472 1.373 . S
C2473 C2489 1.377 1_554 S
C2474 C2472 1.389 . S
C2474 C2475 1.524 . S
C2474 C2488 1.377 1_554 S
C2475 C2474 1.524 . S
C2475 C2476 1.397 . S
C2475 C2480 1.363 . S
C2476 H2453 0.950 . S
C2476 C2475 1.397 . S
C2476 C2477 1.334 . S
C2477 H2454 0.950 . S
C2477 C2476 1.334 . S
C2477 C2478 1.287 . S
C2478 C2477 1.287 . S
C2478 C2479 1.524 . S
C2478 H2497 0.913 . S
C2479 H2455 0.950 . S
C2479 C2478 1.524 . S
C2479 C2480 1.415 . S
C2480 H2456 0.950 . S
C2480 C2475 1.363 . S
C2480 C2479 1.415 . S
C2481 H2457 0.951 . S
C2481 C2482 1.366 . S
C2481 C2483 1.388 . S
C2482 C2481 1.366 . S
C2482 C2486 1.385 . S
C2483 H2458 0.951 . S
C2483 C2481 1.388 . S
C2483 C2484 1.366 . S
C2484 C2483 1.366 . S
C2484 C2485 1.414 . S
C2484 C2487 1.499 . S
C2485 H2459 0.950 . S
C2485 C2484 1.414 . S
C2485 C2486 1.374 . S
C2486 H2460 0.950 . S
C2486 C2482 1.385 . S
C2486 C2485 1.374 . S
C2487 C2484 1.499 . S
C2487 C2488 1.373 . S
C2487 C2489 1.389 . S
C2488 H2461 0.950 . S
C2488 C2474 1.377 1_556 S
C2488 C2487 1.373 . S
C2489 C2473 1.377 1_556 S
C2489 C2487 1.389 . S
C2489 C2490 1.524 . S
C2490 C2489 1.524 . S
C2490 C2491 1.397 . S
C2490 C2495 1.363 . S
C2491 H2462 0.950 . S
C2491 C2490 1.397 . S
C2491 C2492 1.334 . S
C2492 H2463 0.950 . S
C2492 C2491 1.334 . S
C2492 C2493 1.287 . S
C2493 C2492 1.287 . S
C2493 C2494 1.524 . S
C2493 H2496 0.999 . S
C2494 H2464 0.950 . S
C2494 C2493 1.524 . S
C2494 C2495 1.415 . S
C2495 H2465 0.950 . S
C2495 C2490 1.363 . S
C2495 C2494 1.415 . S
H2496 C2493 0.999 . S
H2497 C2478 0.913 . S
H2498 C2516 0.951 . S
H2499 C2518 0.951 . S
H2500 C2520 0.950 . S
H2501 C2521 0.950 . S
H2502 C2523 0.950 . S
H2503 C2526 0.950 . S
H2504 C2527 0.950 . S
H2505 C2529 0.950 . S
H2506 C2530 0.950 . S
H2507 C2531 0.951 . S
H2508 C2533 0.951 . S
H2509 C2535 0.950 . S
H2510 C2536 0.950 . S
H2511 C2538 0.950 . S
H2512 C2541 0.950 . S
H2513 C2542 0.950 . S
H2514 C2544 0.950 . S
H2515 C2545 0.950 . S
C2516 H2498 0.951 . S
C2516 C2517 1.366 . S
C2516 C2518 1.388 . S
C2517 C2516 1.366 . S
C2517 C2521 1.385 . S
C2518 H2499 0.951 . S
C2518 C2516 1.388 . S
C2518 C2519 1.366 . S
C2519 C2518 1.366 . S
C2519 C2520 1.414 . S
C2519 C2522 1.499 . S
C2520 H2500 0.950 . S
C2520 C2519 1.414 . S
C2520 C2521 1.374 . S
C2521 H2501 0.950 . S
C2521 C2517 1.385 . S
C2521 C2520 1.374 . S
C2522 C2519 1.499 . S
C2522 C2523 1.373 . S
C2522 C2524 1.389 . S
C2523 H2502 0.950 . S
C2523 C2522 1.373 . S
C2523 C2539 1.377 1_556 S
C2524 C2522 1.389 . S
C2524 C2525 1.524 . S
C2524 C2538 1.377 1_556 S
C2525 C2524 1.524 . S
C2525 C2526 1.397 . S
C2525 C2530 1.363 . S
C2526 H2503 0.950 . S
C2526 C2525 1.397 . S
C2526 C2527 1.334 . S
C2527 H2504 0.950 . S
C2527 C2526 1.334 . S
C2527 C2528 1.287 . S
C2528 C2527 1.287 . S
C2528 C2529 1.524 . S
C2528 H2547 0.913 . S
C2529 H2505 0.950 . S
C2529 C2528 1.524 . S
C2529 C2530 1.415 . S
C2530 H2506 0.950 . S
C2530 C2525 1.363 . S
C2530 C2529 1.415 . S
C2531 H2507 0.951 . S
C2531 C2532 1.366 . S
C2531 C2533 1.388 . S
C2532 C2531 1.366 . S
C2532 C2536 1.385 . S
C2533 H2508 0.951 . S
C2533 C2531 1.388 . S
C2533 C2534 1.366 . S
C2534 C2533 1.366 . S
C2534 C2535 1.414 . S
C2534 C2537 1.499 . S
C2535 H2509 0.950 . S
C2535 C2534 1.414 . S
C2535 C2536 1.374 . S
C2536 H2510 0.950 . S
C2536 C2532 1.385 . S
C2536 C2535 1.374 . S
C2537 C2534 1.499 . S
C2537 C2538 1.373 . S
C2537 C2539 1.389 . S
C2538 H2511 0.950 . S
C2538 C2524 1.377 1_554 S
C2538 C2537 1.373 . S
C2539 C2523 1.377 1_554 S
C2539 C2537 1.389 . S
C2539 C2540 1.524 . S
C2540 C2539 1.524 . S
C2540 C2541 1.397 . S
C2540 C2545 1.363 . S
C2541 H2512 0.950 . S
C2541 C2540 1.397 . S
C2541 C2542 1.334 . S
C2542 H2513 0.950 . S
C2542 C2541 1.334 . S
C2542 C2543 1.287 . S
C2543 C2542 1.287 . S
C2543 C2544 1.524 . S
C2543 H2546 0.999 . S
C2544 H2514 0.950 . S
C2544 C2543 1.524 . S
C2544 C2545 1.415 . S
C2545 H2515 0.950 . S
C2545 C2540 1.363 . S
C2545 C2544 1.415 . S
H2546 C2543 0.999 . S
H2547 C2528 0.913 . S
H2548 C2566 0.951 . S
H2549 C2568 0.951 . S
H2550 C2570 0.950 . S
H2551 C2571 0.950 . S
H2552 C2573 0.950 . S
H2553 C2576 0.950 . S
H2554 C2577 0.950 . S
H2555 C2579 0.950 . S
H2556 C2580 0.950 . S
H2557 C2581 0.951 . S
H2558 C2583 0.951 . S
H2559 C2585 0.950 . S
H2560 C2586 0.950 . S
H2561 C2588 0.950 . S
H2562 C2591 0.950 . S
H2563 C2592 0.950 . S
H2564 C2594 0.950 . S
H2565 C2595 0.950 . S
C2566 H2548 0.951 . S
C2566 C2567 1.366 . S
C2566 C2568 1.388 . S
C2567 C2566 1.366 . S
C2567 C2571 1.385 . S
C2568 H2549 0.951 . S
C2568 C2566 1.388 . S
C2568 C2569 1.366 . S
C2569 C2568 1.366 . S
C2569 C2570 1.414 . S
C2569 C2572 1.499 . S
C2570 H2550 0.950 . S
C2570 C2569 1.414 . S
C2570 C2571 1.374 . S
C2571 H2551 0.950 . S
C2571 C2567 1.385 . S
C2571 C2570 1.374 . S
C2572 C2569 1.499 . S
C2572 C2573 1.373 . S
C2572 C2574 1.389 . S
C2573 H2552 0.950 . S
C2573 C2572 1.373 . S
C2573 C2589 1.377 1_554 S
C2574 C2572 1.389 . S
C2574 C2575 1.524 . S
C2574 C2588 1.377 1_554 S
C2575 C2574 1.524 . S
C2575 C2576 1.397 . S
C2575 C2580 1.363 . S
C2576 H2553 0.950 . S
C2576 C2575 1.397 . S
C2576 C2577 1.334 . S
C2577 H2554 0.950 . S
C2577 C2576 1.334 . S
C2577 C2578 1.287 . S
C2578 C2577 1.287 . S
C2578 C2579 1.524 . S
C2578 H2597 0.913 . S
C2579 H2555 0.950 . S
C2579 C2578 1.524 . S
C2579 C2580 1.415 . S
C2580 H2556 0.950 . S
C2580 C2575 1.363 . S
C2580 C2579 1.415 . S
C2581 H2557 0.951 . S
C2581 C2582 1.366 . S
C2581 C2583 1.388 . S
C2582 C2581 1.366 . S
C2582 C2586 1.385 . S
C2583 H2558 0.951 . S
C2583 C2581 1.388 . S
C2583 C2584 1.366 . S
C2584 C2583 1.366 . S
C2584 C2585 1.414 . S
C2584 C2587 1.499 . S
C2585 H2559 0.950 . S
C2585 C2584 1.414 . S
C2585 C2586 1.374 . S
C2586 H2560 0.950 . S
C2586 C2582 1.385 . S
C2586 C2585 1.374 . S
C2587 C2584 1.499 . S
C2587 C2588 1.373 . S
C2587 C2589 1.389 . S
C2588 H2561 0.950 . S
C2588 C2574 1.377 1_556 S
C2588 C2587 1.373 . S
C2589 C2573 1.377 1_556 S
C2589 C2587 1.389 . S
C2589 C2590 1.524 . S
C2590 C2589 1.524 . S
C2590 C2591 1.397 . S
C2590 C2595 1.363 . S
C2591 H2562 0.950 . S
C2591 C2590 1.397 . S
C2591 C2592 1.334 . S
C2592 H2563 0.950 . S
C2592 C2591 1.334 . S
C2592 C2593 1.287 . S
C2593 C2592 1.287 . S
C2593 C2594 1.524 . S
C2593 H2596 0.999 . S
C2594 H2564 0.950 . S
C2594 C2593 1.524 . S
C2594 C2595 1.415 . S
C2595 H2565 0.950 . S
C2595 C2590 1.363 . S
C2595 C2594 1.415 . S
H2596 C2593 0.999 . S
H2597 C2578 0.913 . S
H2598 C2616 0.951 . S
H2599 C2618 0.951 . S
H2600 C2620 0.950 . S
H2601 C2621 0.950 . S
H2602 C2623 0.950 . S
H2603 C2626 0.950 . S
H2604 C2627 0.950 . S
H2605 C2629 0.950 . S
H2606 C2630 0.950 . S
H2607 C2631 0.951 . S
H2608 C2633 0.951 . S
H2609 C2635 0.950 . S
H2610 C2636 0.950 . S
H2611 C2638 0.950 . S
H2612 C2641 0.950 . S
H2613 C2642 0.950 . S
H2614 C2644 0.950 . S
H2615 C2645 0.950 . S
C2616 H2598 0.951 . S
C2616 C2617 1.366 . S
C2616 C2618 1.388 . S
C2617 C2616 1.366 . S
C2617 C2621 1.385 . S
C2618 H2599 0.951 . S
C2618 C2616 1.388 . S
C2618 C2619 1.366 . S
C2619 C2618 1.366 . S
C2619 C2620 1.414 . S
C2619 C2622 1.499 . S
C2620 H2600 0.950 . S
C2620 C2619 1.414 . S
C2620 C2621 1.374 . S
C2621 H2601 0.950 . S
C2621 C2617 1.385 . S
C2621 C2620 1.374 . S
C2622 C2619 1.499 . S
C2622 C2623 1.373 . S
C2622 C2624 1.389 . S
C2623 H2602 0.950 . S
C2623 C2622 1.373 . S
C2623 C2639 1.377 1_554 S
C2624 C2622 1.389 . S
C2624 C2625 1.524 . S
C2624 C2638 1.377 1_554 S
C2625 C2624 1.524 . S
C2625 C2626 1.397 . S
C2625 C2630 1.363 . S
C2626 H2603 0.950 . S
C2626 C2625 1.397 . S
C2626 C2627 1.334 . S
C2627 H2604 0.950 . S
C2627 C2626 1.334 . S
C2627 C2628 1.287 . S
C2628 C2627 1.287 . S
C2628 C2629 1.524 . S
C2628 H2647 0.913 . S
C2629 H2605 0.950 . S
C2629 C2628 1.524 . S
C2629 C2630 1.415 . S
C2630 H2606 0.950 . S
C2630 C2625 1.363 . S
C2630 C2629 1.415 . S
C2631 H2607 0.951 . S
C2631 C2632 1.366 . S
C2631 C2633 1.388 . S
C2632 C2631 1.366 . S
C2632 C2636 1.385 . S
C2633 H2608 0.951 . S
C2633 C2631 1.388 . S
C2633 C2634 1.366 . S
C2634 C2633 1.366 . S
C2634 C2635 1.414 . S
C2634 C2637 1.499 . S
C2635 H2609 0.950 . S
C2635 C2634 1.414 . S
C2635 C2636 1.374 . S
C2636 H2610 0.950 . S
C2636 C2632 1.385 . S
C2636 C2635 1.374 . S
C2637 C2634 1.499 . S
C2637 C2638 1.373 . S
C2637 C2639 1.389 . S
C2638 H2611 0.950 . S
C2638 C2624 1.377 1_556 S
C2638 C2637 1.373 . S
C2639 C2623 1.377 1_556 S
C2639 C2637 1.389 . S
C2639 C2640 1.524 . S
C2640 C2639 1.524 . S
C2640 C2641 1.397 . S
C2640 C2645 1.363 . S
C2641 H2612 0.950 . S
C2641 C2640 1.397 . S
C2641 C2642 1.334 . S
C2642 H2613 0.950 . S
C2642 C2641 1.334 . S
C2642 C2643 1.287 . S
C2643 C2642 1.287 . S
C2643 C2644 1.524 . S
C2643 H2646 0.999 . S
C2644 H2614 0.950 . S
C2644 C2643 1.524 . S
C2644 C2645 1.415 . S
C2645 H2615 0.950 . S
C2645 C2640 1.363 . S
C2645 C2644 1.415 . S
H2646 C2643 0.999 . S
H2647 C2628 0.913 . S
H2648 C2666 0.951 . S
H2649 C2668 0.951 . S
H2650 C2670 0.950 . S
H2651 C2671 0.950 . S
H2652 C2673 0.950 . S
H2653 C2676 0.950 . S
H2654 C2677 0.950 . S
H2655 C2679 0.950 . S
H2656 C2680 0.950 . S
H2657 C2681 0.951 . S
H2658 C2683 0.951 . S
H2659 C2685 0.950 . S
H2660 C2686 0.950 . S
H2661 C2688 0.950 . S
H2662 C2691 0.950 . S
H2663 C2692 0.950 . S
H2664 C2694 0.950 . S
H2665 C2695 0.950 . S
C2666 H2648 0.951 . S
C2666 C2667 1.366 . S
C2666 C2668 1.388 . S
C2667 C2666 1.366 . S
C2667 C2671 1.385 . S
C2668 H2649 0.951 . S
C2668 C2666 1.388 . S
C2668 C2669 1.366 . S
C2669 C2668 1.366 . S
C2669 C2670 1.414 . S
C2669 C2672 1.499 . S
C2670 H2650 0.950 . S
C2670 C2669 1.414 . S
C2670 C2671 1.374 . S
C2671 H2651 0.950 . S
C2671 C2667 1.385 . S
C2671 C2670 1.374 . S
C2672 C2669 1.499 . S
C2672 C2673 1.373 . S
C2672 C2674 1.389 . S
C2673 H2652 0.950 . S
C2673 C2672 1.373 . S
C2673 C2689 1.377 1_554 S
C2674 C2672 1.389 . S
C2674 C2675 1.524 . S
C2674 C2688 1.377 1_554 S
C2675 C2674 1.524 . S
C2675 C2676 1.397 . S
C2675 C2680 1.363 . S
C2676 H2653 0.950 . S
C2676 C2675 1.397 . S
C2676 C2677 1.334 . S
C2677 H2654 0.950 . S
C2677 C2676 1.334 . S
C2677 C2678 1.287 . S
C2678 C2677 1.287 . S
C2678 C2679 1.524 . S
C2678 H2697 0.913 . S
C2679 H2655 0.950 . S
C2679 C2678 1.524 . S
C2679 C2680 1.415 . S
C2680 H2656 0.950 . S
C2680 C2675 1.363 . S
C2680 C2679 1.415 . S
C2681 H2657 0.951 . S
C2681 C2682 1.366 . S
C2681 C2683 1.388 . S
C2682 C2681 1.366 . S
C2682 C2686 1.385 . S
C2683 H2658 0.951 . S
C2683 C2681 1.388 . S
C2683 C2684 1.366 . S
C2684 C2683 1.366 . S
C2684 C2685 1.414 . S
C2684 C2687 1.499 . S
C2685 H2659 0.950 . S
C2685 C2684 1.414 . S
C2685 C2686 1.374 . S
C2686 H2660 0.950 . S
C2686 C2682 1.385 . S
C2686 C2685 1.374 . S
C2687 C2684 1.499 . S
C2687 C2688 1.373 . S
C2687 C2689 1.389 . S
C2688 H2661 0.950 . S
C2688 C2674 1.377 1_556 S
C2688 C2687 1.373 . S
C2689 C2673 1.377 1_556 S
C2689 C2687 1.389 . S
C2689 C2690 1.524 . S
C2690 C2689 1.524 . S
C2690 C2691 1.397 . S
C2690 C2695 1.363 . S
C2691 H2662 0.950 . S
C2691 C2690 1.397 . S
C2691 C2692 1.334 . S
C2692 H2663 0.950 . S
C2692 C2691 1.334 . S
C2692 C2693 1.287 . S
C2693 C2692 1.287 . S
C2693 C2694 1.524 . S
C2693 H2696 0.999 . S
C2694 H2664 0.950 . S
C2694 C2693 1.524 . S
C2694 C2695 1.415 . S
C2695 H2665 0.950 . S
C2695 C2690 1.363 . S
C2695 C2694 1.415 . S
H2696 C2693 0.999 . S
H2697 C2678 0.913 . S
H2698 C2716 0.951 . S
H2699 C2718 0.951 . S
H2700 C2720 0.950 . S
H2701 C2721 0.950 . S
H2702 C2723 0.950 . S
H2703 C2726 0.950 . S
H2704 C2727 0.950 . S
H2705 C2729 0.950 . S
H2706 C2730 0.950 . S
H2707 C2731 0.951 . S
H2708 C2733 0.951 . S
H2709 C2735 0.950 . S
H2710 C2736 0.950 . S
H2711 C2738 0.950 . S
H2712 C2741 0.950 . S
H2713 C2742 0.950 . S
H2714 C2744 0.950 . S
H2715 C2745 0.950 . S
C2716 H2698 0.951 . S
C2716 C2717 1.366 . S
C2716 C2718 1.388 . S
C2717 C2716 1.366 . S
C2717 C2721 1.385 . S
C2718 H2699 0.951 . S
C2718 C2716 1.388 . S
C2718 C2719 1.366 . S
C2719 C2718 1.366 . S
C2719 C2720 1.414 . S
C2719 C2722 1.499 . S
C2720 H2700 0.950 . S
C2720 C2719 1.414 . S
C2720 C2721 1.374 . S
C2721 H2701 0.950 . S
C2721 C2717 1.385 . S
C2721 C2720 1.374 . S
C2722 C2719 1.499 . S
C2722 C2723 1.373 . S
C2722 C2724 1.389 . S
C2723 H2702 0.950 . S
C2723 C2722 1.373 . S
C2723 C2739 1.377 1_554 S
C2724 C2722 1.389 . S
C2724 C2725 1.524 . S
C2724 C2738 1.377 1_554 S
C2725 C2724 1.524 . S
C2725 C2726 1.397 . S
C2725 C2730 1.363 . S
C2726 H2703 0.950 . S
C2726 C2725 1.397 . S
C2726 C2727 1.334 . S
C2727 H2704 0.950 . S
C2727 C2726 1.334 . S
C2727 C2728 1.287 . S
C2728 C2727 1.287 . S
C2728 C2729 1.524 . S
C2728 H2747 0.913 . S
C2729 H2705 0.950 . S
C2729 C2728 1.524 . S
C2729 C2730 1.415 . S
C2730 H2706 0.950 . S
C2730 C2725 1.363 . S
C2730 C2729 1.415 . S
C2731 H2707 0.951 . S
C2731 C2732 1.366 . S
C2731 C2733 1.388 . S
C2732 C2731 1.366 . S
C2732 C2736 1.385 . S
C2733 H2708 0.951 . S
C2733 C2731 1.388 . S
C2733 C2734 1.366 . S
C2734 C2733 1.366 . S
C2734 C2735 1.414 . S
C2734 C2737 1.499 . S
C2735 H2709 0.950 . S
C2735 C2734 1.414 . S
C2735 C2736 1.374 . S
C2736 H2710 0.950 . S
C2736 C2732 1.385 . S
C2736 C2735 1.374 . S
C2737 C2734 1.499 . S
C2737 C2738 1.373 . S
C2737 C2739 1.389 . S
C2738 H2711 0.950 . S
C2738 C2724 1.377 1_556 S
C2738 C2737 1.373 . S
C2739 C2723 1.377 1_556 S
C2739 C2737 1.389 . S
C2739 C2740 1.524 . S
C2740 C2739 1.524 . S
C2740 C2741 1.397 . S
C2740 C2745 1.363 . S
C2741 H2712 0.950 . S
C2741 C2740 1.397 . S
C2741 C2742 1.334 . S
C2742 H2713 0.950 . S
C2742 C2741 1.334 . S
C2742 C2743 1.287 . S
C2743 C2742 1.287 . S
C2743 C2744 1.524 . S
C2743 H2746 0.999 . S
C2744 H2714 0.950 . S
C2744 C2743 1.524 . S
C2744 C2745 1.415 . S
C2745 H2715 0.950 . S
C2745 C2740 1.363 . S
C2745 C2744 1.415 . S
H2746 C2743 0.999 . S
H2747 C2728 0.913 . S
H2748 C2766 0.951 . S
H2749 C2768 0.951 . S
H2750 C2770 0.950 . S
H2751 C2771 0.950 . S
H2752 C2773 0.950 . S
H2753 C2776 0.950 . S
H2754 C2777 0.950 . S
H2755 C2779 0.950 . S
H2756 C2780 0.950 . S
H2757 C2781 0.951 . S
H2758 C2783 0.951 . S
H2759 C2785 0.950 . S
H2760 C2786 0.950 . S
H2761 C2788 0.950 . S
H2762 C2791 0.950 . S
H2763 C2792 0.950 . S
H2764 C2794 0.950 . S
H2765 C2795 0.950 . S
C2766 H2748 0.951 . S
C2766 C2767 1.366 . S
C2766 C2768 1.388 . S
C2767 C2766 1.366 . S
C2767 C2771 1.385 . S
C2768 H2749 0.951 . S
C2768 C2766 1.388 . S
C2768 C2769 1.366 . S
C2769 C2768 1.366 . S
C2769 C2770 1.414 . S
C2769 C2772 1.499 . S
C2770 H2750 0.950 . S
C2770 C2769 1.414 . S
C2770 C2771 1.374 . S
C2771 H2751 0.950 . S
C2771 C2767 1.385 . S
C2771 C2770 1.374 . S
C2772 C2769 1.499 . S
C2772 C2773 1.373 . S
C2772 C2774 1.389 . S
C2773 H2752 0.950 . S
C2773 C2772 1.373 . S
C2773 C2789 1.377 1_556 S
C2774 C2772 1.389 . S
C2774 C2775 1.524 . S
C2774 C2788 1.377 1_556 S
C2775 C2774 1.524 . S
C2775 C2776 1.397 . S
C2775 C2780 1.363 . S
C2776 H2753 0.950 . S
C2776 C2775 1.397 . S
C2776 C2777 1.334 . S
C2777 H2754 0.950 . S
C2777 C2776 1.334 . S
C2777 C2778 1.287 . S
C2778 C2777 1.287 . S
C2778 C2779 1.524 . S
C2778 H2797 0.913 . S
C2779 H2755 0.950 . S
C2779 C2778 1.524 . S
C2779 C2780 1.415 . S
C2780 H2756 0.950 . S
C2780 C2775 1.363 . S
C2780 C2779 1.415 . S
C2781 H2757 0.951 . S
C2781 C2782 1.366 . S
C2781 C2783 1.388 . S
C2782 C2781 1.366 . S
C2782 C2786 1.385 . S
C2783 H2758 0.951 . S
C2783 C2781 1.388 . S
C2783 C2784 1.366 . S
C2784 C2783 1.366 . S
C2784 C2785 1.414 . S
C2784 C2787 1.499 . S
C2785 H2759 0.950 . S
C2785 C2784 1.414 . S
C2785 C2786 1.374 . S
C2786 H2760 0.950 . S
C2786 C2782 1.385 . S
C2786 C2785 1.374 . S
C2787 C2784 1.499 . S
C2787 C2788 1.373 . S
C2787 C2789 1.389 . S
C2788 H2761 0.950 . S
C2788 C2774 1.377 1_554 S
C2788 C2787 1.373 . S
C2789 C2773 1.377 1_554 S
C2789 C2787 1.389 . S
C2789 C2790 1.524 . S
C2790 C2789 1.524 . S
C2790 C2791 1.397 . S
C2790 C2795 1.363 . S
C2791 H2762 0.950 . S
C2791 C2790 1.397 . S
C2791 C2792 1.334 . S
C2792 H2763 0.950 . S
C2792 C2791 1.334 . S
C2792 C2793 1.287 . S
C2793 C2792 1.287 . S
C2793 C2794 1.524 . S
C2793 H2796 0.999 . S
C2794 H2764 0.950 . S
C2794 C2793 1.524 . S
C2794 C2795 1.415 . S
C2795 H2765 0.950 . S
C2795 C2790 1.363 . S
C2795 C2794 1.415 . S
H2796 C2793 0.999 . S
H2797 C2778 0.913 . S
H2798 C2816 0.951 . S
H2799 C2818 0.951 . S
H2800 C2820 0.950 . S
H2801 C2821 0.950 . S
H2802 C2823 0.950 . S
H2803 C2826 0.950 . S
H2804 C2827 0.950 . S
H2805 C2829 0.950 . S
H2806 C2830 0.950 . S
H2807 C2831 0.951 . S
H2808 C2833 0.951 . S
H2809 C2835 0.950 . S
H2810 C2836 0.950 . S
H2811 C2838 0.950 . S
H2812 C2841 0.950 . S
H2813 C2842 0.950 . S
H2814 C2844 0.950 . S
H2815 C2845 0.950 . S
C2816 H2798 0.951 . S
C2816 C2817 1.366 . S
C2816 C2818 1.388 . S
C2817 C2816 1.366 . S
C2817 C2821 1.385 . S
C2818 H2799 0.951 . S
C2818 C2816 1.388 . S
C2818 C2819 1.366 . S
C2819 C2818 1.366 . S
C2819 C2820 1.414 . S
C2819 C2822 1.499 . S
C2820 H2800 0.950 . S
C2820 C2819 1.414 . S
C2820 C2821 1.374 . S
C2821 H2801 0.950 . S
C2821 C2817 1.385 . S
C2821 C2820 1.374 . S
C2822 C2819 1.499 . S
C2822 C2823 1.373 . S
C2822 C2824 1.389 . S
C2823 H2802 0.950 . S
C2823 C2822 1.373 . S
C2823 C2839 1.377 1_556 S
C2824 C2822 1.389 . S
C2824 C2825 1.524 . S
C2824 C2838 1.377 1_556 S
C2825 C2824 1.524 . S
C2825 C2826 1.397 . S
C2825 C2830 1.363 . S
C2826 H2803 0.950 . S
C2826 C2825 1.397 . S
C2826 C2827 1.334 . S
C2827 H2804 0.950 . S
C2827 C2826 1.334 . S
C2827 C2828 1.287 . S
C2828 C2827 1.287 . S
C2828 C2829 1.524 . S
C2828 H2847 0.913 . S
C2829 H2805 0.950 . S
C2829 C2828 1.524 . S
C2829 C2830 1.415 . S
C2830 H2806 0.950 . S
C2830 C2825 1.363 . S
C2830 C2829 1.415 . S
C2831 H2807 0.951 . S
C2831 C2832 1.366 . S
C2831 C2833 1.388 . S
C2832 C2831 1.366 . S
C2832 C2836 1.385 . S
C2833 H2808 0.951 . S
C2833 C2831 1.388 . S
C2833 C2834 1.366 . S
C2834 C2833 1.366 . S
C2834 C2835 1.414 . S
C2834 C2837 1.499 . S
C2835 H2809 0.950 . S
C2835 C2834 1.414 . S
C2835 C2836 1.374 . S
C2836 H2810 0.950 . S
C2836 C2832 1.385 . S
C2836 C2835 1.374 . S
C2837 C2834 1.499 . S
C2837 C2838 1.373 . S
C2837 C2839 1.389 . S
C2838 H2811 0.950 . S
C2838 C2824 1.377 1_554 S
C2838 C2837 1.373 . S
C2839 C2823 1.377 1_554 S
C2839 C2837 1.389 . S
C2839 C2840 1.524 . S
C2840 C2839 1.524 . S
C2840 C2841 1.397 . S
C2840 C2845 1.363 . S
C2841 H2812 0.950 . S
C2841 C2840 1.397 . S
C2841 C2842 1.334 . S
C2842 H2813 0.950 . S
C2842 C2841 1.334 . S
C2842 C2843 1.287 . S
C2843 C2842 1.287 . S
C2843 C2844 1.524 . S
C2843 H2846 0.999 . S
C2844 H2814 0.950 . S
C2844 C2843 1.524 . S
C2844 C2845 1.415 . S
C2845 H2815 0.950 . S
C2845 C2840 1.363 . S
C2845 C2844 1.415 . S
H2846 C2843 0.999 . S
H2847 C2828 0.913 . S
H2848 C2866 0.951 . S
H2849 C2868 0.951 . S
H2850 C2870 0.950 . S
H2851 C2871 0.950 . S
H2852 C2873 0.950 . S
H2853 C2876 0.950 . S
H2854 C2877 0.950 . S
H2855 C2879 0.950 . S
H2856 C2880 0.950 . S
H2857 C2881 0.951 . S
H2858 C2883 0.951 . S
H2859 C2885 0.950 . S
H2860 C2886 0.950 . S
H2861 C2888 0.950 . S
H2862 C2891 0.950 . S
H2863 C2892 0.950 . S
H2864 C2894 0.950 . S
H2865 C2895 0.950 . S
C2866 H2848 0.951 . S
C2866 C2867 1.366 . S
C2866 C2868 1.388 . S
C2867 C2866 1.366 . S
C2867 C2871 1.385 . S
C2868 H2849 0.951 . S
C2868 C2866 1.388 . S
C2868 C2869 1.366 . S
C2869 C2868 1.366 . S
C2869 C2870 1.414 . S
C2869 C2872 1.499 . S
C2870 H2850 0.950 . S
C2870 C2869 1.414 . S
C2870 C2871 1.374 . S
C2871 H2851 0.950 . S
C2871 C2867 1.385 . S
C2871 C2870 1.374 . S
C2872 C2869 1.499 . S
C2872 C2873 1.373 . S
C2872 C2874 1.389 . S
C2873 H2852 0.950 . S
C2873 C2872 1.373 . S
C2873 C2889 1.377 . S
C2874 C2872 1.389 . S
C2874 C2875 1.524 . S
C2874 C2888 1.377 . S
C2875 C2874 1.524 . S
C2875 C2876 1.397 . S
C2875 C2880 1.363 . S
C2876 H2853 0.950 . S
C2876 C2875 1.397 . S
C2876 C2877 1.334 . S
C2877 H2854 0.950 . S
C2877 C2876 1.334 . S
C2877 C2878 1.287 . S
C2878 C2877 1.287 . S
C2878 C2879 1.524 . S
C2878 H2897 0.913 . S
C2879 H2855 0.950 . S
C2879 C2878 1.524 . S
C2879 C2880 1.415 . S
C2880 H2856 0.950 . S
C2880 C2875 1.363 . S
C2880 C2879 1.415 . S
C2881 H2857 0.951 . S
C2881 C2882 1.366 . S
C2881 C2883 1.388 . S
C2882 C2881 1.366 . S
C2882 C2886 1.385 . S
C2883 H2858 0.951 . S
C2883 C2881 1.388 . S
C2883 C2884 1.366 . S
C2884 C2883 1.366 . S
C2884 C2885 1.414 . S
C2884 C2887 1.499 . S
C2885 H2859 0.950 . S
C2885 C2884 1.414 . S
C2885 C2886 1.374 . S
C2886 H2860 0.950 . S
C2886 C2882 1.385 . S
C2886 C2885 1.374 . S
C2887 C2884 1.499 . S
C2887 C2888 1.373 . S
C2887 C2889 1.389 . S
C2888 H2861 0.950 . S
C2888 C2874 1.377 . S
C2888 C2887 1.373 . S
C2889 C2873 1.377 . S
C2889 C2887 1.389 . S
C2889 C2890 1.524 . S
C2890 C2889 1.524 . S
C2890 C2891 1.397 . S
C2890 C2895 1.363 . S
C2891 H2862 0.950 . S
C2891 C2890 1.397 . S
C2891 C2892 1.334 . S
C2892 H2863 0.950 . S
C2892 C2891 1.334 . S
C2892 C2893 1.287 . S
C2893 C2892 1.287 . S
C2893 C2894 1.524 . S
C2893 H2896 0.999 . S
C2894 H2864 0.950 . S
C2894 C2893 1.524 . S
C2894 C2895 1.415 . S
C2895 H2865 0.950 . S
C2895 C2890 1.363 . S
C2895 C2894 1.415 . S
H2896 C2893 0.999 . S
H2897 C2878 0.913 . S
H2898 C2916 0.951 . S
H2899 C2918 0.951 . S
H2900 C2920 0.950 . S
H2901 C2921 0.950 . S
H2902 C2923 0.950 . S
H2903 C2926 0.950 . S
H2904 C2927 0.950 . S
H2905 C2929 0.950 . S
H2906 C2930 0.950 . S
H2907 C2931 0.951 . S
H2908 C2933 0.951 . S
H2909 C2935 0.950 . S
H2910 C2936 0.950 . S
H2911 C2938 0.950 . S
H2912 C2941 0.950 . S
H2913 C2942 0.950 . S
H2914 C2944 0.950 . S
H2915 C2945 0.950 . S
C2916 H2898 0.951 . S
C2916 C2917 1.366 . S
C2916 C2918 1.388 . S
C2917 C2916 1.366 . S
C2917 C2921 1.385 . S
C2918 H2899 0.951 . S
C2918 C2916 1.388 . S
C2918 C2919 1.366 . S
C2919 C2918 1.366 . S
C2919 C2920 1.414 . S
C2919 C2922 1.499 . S
C2920 H2900 0.950 . S
C2920 C2919 1.414 . S
C2920 C2921 1.374 . S
C2921 H2901 0.950 . S
C2921 C2917 1.385 . S
C2921 C2920 1.374 . S
C2922 C2919 1.499 . S
C2922 C2923 1.373 . S
C2922 C2924 1.389 . S
C2923 H2902 0.950 . S
C2923 C2922 1.373 . S
C2923 C2939 1.377 . S
C2924 C2922 1.389 . S
C2924 C2925 1.524 . S
C2924 C2938 1.377 . S
C2925 C2924 1.524 . S
C2925 C2926 1.397 . S
C2925 C2930 1.363 . S
C2926 H2903 0.950 . S
C2926 C2925 1.397 . S
C2926 C2927 1.334 . S
C2927 H2904 0.950 . S
C2927 C2926 1.334 . S
C2927 C2928 1.287 . S
C2928 C2927 1.287 . S
C2928 C2929 1.524 . S
C2928 H2947 0.913 . S
C2929 H2905 0.950 . S
C2929 C2928 1.524 . S
C2929 C2930 1.415 . S
C2930 H2906 0.950 . S
C2930 C2925 1.363 . S
C2930 C2929 1.415 . S
C2931 H2907 0.951 . S
C2931 C2932 1.366 . S
C2931 C2933 1.388 . S
C2932 C2931 1.366 . S
C2932 C2936 1.385 . S
C2933 H2908 0.951 . S
C2933 C2931 1.388 . S
C2933 C2934 1.366 . S
C2934 C2933 1.366 . S
C2934 C2935 1.414 . S
C2934 C2937 1.499 . S
C2935 H2909 0.950 . S
C2935 C2934 1.414 . S
C2935 C2936 1.374 . S
C2936 H2910 0.950 . S
C2936 C2932 1.385 . S
C2936 C2935 1.374 . S
C2937 C2934 1.499 . S
C2937 C2938 1.373 . S
C2937 C2939 1.389 . S
C2938 H2911 0.950 . S
C2938 C2924 1.377 . S
C2938 C2937 1.373 . S
C2939 C2923 1.377 . S
C2939 C2937 1.389 . S
C2939 C2940 1.524 . S
C2940 C2939 1.524 . S
C2940 C2941 1.397 . S
C2940 C2945 1.363 . S
C2941 H2912 0.950 . S
C2941 C2940 1.397 . S
C2941 C2942 1.334 . S
C2942 H2913 0.950 . S
C2942 C2941 1.334 . S
C2942 C2943 1.287 . S
C2943 C2942 1.287 . S
C2943 C2944 1.524 . S
C2943 H2946 0.999 . S
C2944 H2914 0.950 . S
C2944 C2943 1.524 . S
C2944 C2945 1.415 . S
C2945 H2915 0.950 . S
C2945 C2940 1.363 . S
C2945 C2944 1.415 . S
H2946 C2943 0.999 . S
H2947 C2928 0.913 . S
H2948 C2966 0.951 . S
H2949 C2968 0.951 . S
H2950 C2970 0.950 . S
H2951 C2971 0.950 . S
H2952 C2973 0.950 . S
H2953 C2976 0.950 . S
H2954 C2977 0.950 . S
H2955 C2979 0.950 . S
H2956 C2980 0.950 . S
H2957 C2981 0.951 . S
H2958 C2983 0.951 . S
H2959 C2985 0.950 . S
H2960 C2986 0.950 . S
H2961 C2988 0.950 . S
H2962 C2991 0.950 . S
H2963 C2992 0.950 . S
H2964 C2994 0.950 . S
H2965 C2995 0.950 . S
C2966 H2948 0.951 . S
C2966 C2967 1.366 . S
C2966 C2968 1.388 . S
C2967 C2966 1.366 . S
C2967 C2971 1.385 . S
C2968 H2949 0.951 . S
C2968 C2966 1.388 . S
C2968 C2969 1.366 . S
C2969 C2968 1.366 . S
C2969 C2970 1.414 . S
C2969 C2972 1.499 . S
C2970 H2950 0.950 . S
C2970 C2969 1.414 . S
C2970 C2971 1.374 . S
C2971 H2951 0.950 . S
C2971 C2967 1.385 . S
C2971 C2970 1.374 . S
C2972 C2969 1.499 . S
C2972 C2973 1.373 . S
C2972 C2974 1.389 . S
C2973 H2952 0.950 . S
C2973 C2972 1.373 . S
C2973 C2989 1.377 . S
C2974 C2972 1.389 . S
C2974 C2975 1.524 . S
C2974 C2988 1.377 . S
C2975 C2974 1.524 . S
C2975 C2976 1.397 . S
C2975 C2980 1.363 . S
C2976 H2953 0.950 . S
C2976 C2975 1.397 . S
C2976 C2977 1.334 . S
C2977 H2954 0.950 . S
C2977 C2976 1.334 . S
C2977 C2978 1.287 . S
C2978 C2977 1.287 . S
C2978 C2979 1.524 . S
C2978 H2997 0.913 . S
C2979 H2955 0.950 . S
C2979 C2978 1.524 . S
C2979 C2980 1.415 . S
C2980 H2956 0.950 . S
C2980 C2975 1.363 . S
C2980 C2979 1.415 . S
C2981 H2957 0.951 . S
C2981 C2982 1.366 . S
C2981 C2983 1.388 . S
C2982 C2981 1.366 . S
C2982 C2986 1.385 . S
C2983 H2958 0.951 . S
C2983 C2981 1.388 . S
C2983 C2984 1.366 . S
C2984 C2983 1.366 . S
C2984 C2985 1.414 . S
C2984 C2987 1.499 . S
C2985 H2959 0.950 . S
C2985 C2984 1.414 . S
C2985 C2986 1.374 . S
C2986 H2960 0.950 . S
C2986 C2982 1.385 . S
C2986 C2985 1.374 . S
C2987 C2984 1.499 . S
C2987 C2988 1.373 . S
C2987 C2989 1.389 . S
C2988 H2961 0.950 . S
C2988 C2974 1.377 . S
C2988 C2987 1.373 . S
C2989 C2973 1.377 . S
C2989 C2987 1.389 . S
C2989 C2990 1.524 . S
C2990 C2989 1.524 . S
C2990 C2991 1.397 . S
C2990 C2995 1.363 . S
C2991 H2962 0.950 . S
C2991 C2990 1.397 . S
C2991 C2992 1.334 . S
C2992 H2963 0.950 . S
C2992 C2991 1.334 . S
C2992 C2993 1.287 . S
C2993 C2992 1.287 . S
C2993 C2994 1.524 . S
C2993 H2996 0.999 . S
C2994 H2964 0.950 . S
C2994 C2993 1.524 . S
C2994 C2995 1.415 . S
C2995 H2965 0.950 . S
C2995 C2990 1.363 . S
C2995 C2994 1.415 . S
H2996 C2993 0.999 . S
H2997 C2978 0.913 . S
H2998 C3016 0.951 . S
H2999 C3018 0.951 . S
H3000 C3020 0.950 . S
H3001 C3021 0.950 . S
H3002 C3023 0.950 . S
H3003 C3026 0.950 . S
H3004 C3027 0.950 . S
H3005 C3029 0.950 . S
H3006 C3030 0.950 . S
H3007 C3031 0.951 . S
H3008 C3033 0.951 . S
H3009 C3035 0.950 . S
H3010 C3036 0.950 . S
H3011 C3038 0.950 . S
H3012 C3041 0.950 . S
H3013 C3042 0.950 . S
H3014 C3044 0.950 . S
H3015 C3045 0.950 . S
C3016 H2998 0.951 . S
C3016 C3017 1.366 . S
C3016 C3018 1.388 . S
C3017 C3016 1.366 . S
C3017 C3021 1.385 . S
C3018 H2999 0.951 . S
C3018 C3016 1.388 . S
C3018 C3019 1.366 . S
C3019 C3018 1.366 . S
C3019 C3020 1.414 . S
C3019 C3022 1.499 . S
C3020 H3000 0.950 . S
C3020 C3019 1.414 . S
C3020 C3021 1.374 . S
C3021 H3001 0.950 . S
C3021 C3017 1.385 . S
C3021 C3020 1.374 . S
C3022 C3019 1.499 . S
C3022 C3023 1.373 . S
C3022 C3024 1.389 . S
C3023 H3002 0.950 . S
C3023 C3022 1.373 . S
C3023 C3039 1.377 . S
C3024 C3022 1.389 . S
C3024 C3025 1.524 . S
C3024 C3038 1.377 . S
C3025 C3024 1.524 . S
C3025 C3026 1.397 . S
C3025 C3030 1.363 . S
C3026 H3003 0.950 . S
C3026 C3025 1.397 . S
C3026 C3027 1.334 . S
C3027 H3004 0.950 . S
C3027 C3026 1.334 . S
C3027 C3028 1.287 . S
C3028 C3027 1.287 . S
C3028 C3029 1.524 . S
C3028 H3047 0.913 . S
C3029 H3005 0.950 . S
C3029 C3028 1.524 . S
C3029 C3030 1.415 . S
C3030 H3006 0.950 . S
C3030 C3025 1.363 . S
C3030 C3029 1.415 . S
C3031 H3007 0.951 . S
C3031 C3032 1.366 . S
C3031 C3033 1.388 . S
C3032 C3031 1.366 . S
C3032 C3036 1.385 . S
C3033 H3008 0.951 . S
C3033 C3031 1.388 . S
C3033 C3034 1.366 . S
C3034 C3033 1.366 . S
C3034 C3035 1.414 . S
C3034 C3037 1.499 . S
C3035 H3009 0.950 . S
C3035 C3034 1.414 . S
C3035 C3036 1.374 . S
C3036 H3010 0.950 . S
C3036 C3032 1.385 . S
C3036 C3035 1.374 . S
C3037 C3034 1.499 . S
C3037 C3038 1.373 . S
C3037 C3039 1.389 . S
C3038 H3011 0.950 . S
C3038 C3024 1.377 . S
C3038 C3037 1.373 . S
C3039 C3023 1.377 . S
C3039 C3037 1.389 . S
C3039 C3040 1.524 . S
C3040 C3039 1.524 . S
C3040 C3041 1.397 . S
C3040 C3045 1.363 . S
C3041 H3012 0.950 . S
C3041 C3040 1.397 . S
C3041 C3042 1.334 . S
C3042 H3013 0.950 . S
C3042 C3041 1.334 . S
C3042 C3043 1.287 . S
C3043 C3042 1.287 . S
C3043 C3044 1.524 . S
C3043 H3046 0.999 . S
C3044 H3014 0.950 . S
C3044 C3043 1.524 . S
C3044 C3045 1.415 . S
C3045 H3015 0.950 . S
C3045 C3040 1.363 . S
C3045 C3044 1.415 . S
H3046 C3043 0.999 . S
H3047 C3028 0.913 . S
H3048 C3066 0.951 . S
H3049 C3068 0.951 . S
H3050 C3070 0.950 . S
H3051 C3071 0.950 . S
H3052 C3073 0.950 . S
H3053 C3076 0.950 . S
H3054 C3077 0.950 . S
H3055 C3079 0.950 . S
H3056 C3080 0.950 . S
H3057 C3081 0.951 . S
H3058 C3083 0.951 . S
H3059 C3085 0.950 . S
H3060 C3086 0.950 . S
H3061 C3088 0.950 . S
H3062 C3091 0.950 . S
H3063 C3092 0.950 . S
H3064 C3094 0.950 . S
H3065 C3095 0.950 . S
C3066 H3048 0.951 . S
C3066 C3067 1.366 . S
C3066 C3068 1.388 . S
C3067 C3066 1.366 . S
C3067 C3071 1.385 . S
C3068 H3049 0.951 . S
C3068 C3066 1.388 . S
C3068 C3069 1.366 . S
C3069 C3068 1.366 . S
C3069 C3070 1.414 . S
C3069 C3072 1.499 . S
C3070 H3050 0.950 . S
C3070 C3069 1.414 . S
C3070 C3071 1.374 . S
C3071 H3051 0.950 . S
C3071 C3067 1.385 . S
C3071 C3070 1.374 . S
C3072 C3069 1.499 . S
C3072 C3073 1.373 . S
C3072 C3074 1.389 . S
C3073 H3052 0.950 . S
C3073 C3072 1.373 . S
C3073 C3089 1.377 . S
C3074 C3072 1.389 . S
C3074 C3075 1.524 . S
C3074 C3088 1.377 . S
C3075 C3074 1.524 . S
C3075 C3076 1.397 . S
C3075 C3080 1.363 . S
C3076 H3053 0.950 . S
C3076 C3075 1.397 . S
C3076 C3077 1.334 . S
C3077 H3054 0.950 . S
C3077 C3076 1.334 . S
C3077 C3078 1.287 . S
C3078 C3077 1.287 . S
C3078 C3079 1.524 . S
C3078 H3097 0.913 . S
C3079 H3055 0.950 . S
C3079 C3078 1.524 . S
C3079 C3080 1.415 . S
C3080 H3056 0.950 . S
C3080 C3075 1.363 . S
C3080 C3079 1.415 . S
C3081 H3057 0.951 . S
C3081 C3082 1.366 . S
C3081 C3083 1.388 . S
C3082 C3081 1.366 . S
C3082 C3086 1.385 . S
C3083 H3058 0.951 . S
C3083 C3081 1.388 . S
C3083 C3084 1.366 . S
C3084 C3083 1.366 . S
C3084 C3085 1.414 . S
C3084 C3087 1.499 . S
C3085 H3059 0.950 . S
C3085 C3084 1.414 . S
C3085 C3086 1.374 . S
C3086 H3060 0.950 . S
C3086 C3082 1.385 . S
C3086 C3085 1.374 . S
C3087 C3084 1.499 . S
C3087 C3088 1.373 . S
C3087 C3089 1.389 . S
C3088 H3061 0.950 . S
C3088 C3074 1.377 . S
C3088 C3087 1.373 . S
C3089 C3073 1.377 . S
C3089 C3087 1.389 . S
C3089 C3090 1.524 . S
C3090 C3089 1.524 . S
C3090 C3091 1.397 . S
C3090 C3095 1.363 . S
C3091 H3062 0.950 . S
C3091 C3090 1.397 . S
C3091 C3092 1.334 . S
C3092 H3063 0.950 . S
C3092 C3091 1.334 . S
C3092 C3093 1.287 . S
C3093 C3092 1.287 . S
C3093 C3094 1.524 . S
C3093 H3096 0.999 . S
C3094 H3064 0.950 . S
C3094 C3093 1.524 . S
C3094 C3095 1.415 . S
C3095 H3065 0.950 . S
C3095 C3090 1.363 . S
C3095 C3094 1.415 . S
H3096 C3093 0.999 . S
H3097 C3078 0.913 . S
H3098 C3116 0.951 . S
H3099 C3118 0.951 . S
H3100 C3120 0.950 . S
H3101 C3121 0.950 . S
H3102 C3123 0.950 . S
H3103 C3126 0.950 . S
H3104 C3127 0.950 . S
H3105 C3129 0.950 . S
H3106 C3130 0.950 . S
H3107 C3131 0.951 . S
H3108 C3133 0.951 . S
H3109 C3135 0.950 . S
H3110 C3136 0.950 . S
H3111 C3138 0.950 . S
H3112 C3141 0.950 . S
H3113 C3142 0.950 . S
H3114 C3144 0.950 . S
H3115 C3145 0.950 . S
C3116 H3098 0.951 . S
C3116 C3117 1.366 . S
C3116 C3118 1.388 . S
C3117 C3116 1.366 . S
C3117 C3121 1.385 . S
C3118 H3099 0.951 . S
C3118 C3116 1.388 . S
C3118 C3119 1.366 . S
C3119 C3118 1.366 . S
C3119 C3120 1.414 . S
C3119 C3122 1.499 . S
C3120 H3100 0.950 . S
C3120 C3119 1.414 . S
C3120 C3121 1.374 . S
C3121 H3101 0.950 . S
C3121 C3117 1.385 . S
C3121 C3120 1.374 . S
C3122 C3119 1.499 . S
C3122 C3123 1.373 . S
C3122 C3124 1.389 . S
C3123 H3102 0.950 . S
C3123 C3122 1.373 . S
C3123 C3139 1.377 . S
C3124 C3122 1.389 . S
C3124 C3125 1.524 . S
C3124 C3138 1.377 . S
C3125 C3124 1.524 . S
C3125 C3126 1.397 . S
C3125 C3130 1.363 . S
C3126 H3103 0.950 . S
C3126 C3125 1.397 . S
C3126 C3127 1.334 . S
C3127 H3104 0.950 . S
C3127 C3126 1.334 . S
C3127 C3128 1.287 . S
C3128 C3127 1.287 . S
C3128 C3129 1.524 . S
C3128 H3147 0.913 . S
C3129 H3105 0.950 . S
C3129 C3128 1.524 . S
C3129 C3130 1.415 . S
C3130 H3106 0.950 . S
C3130 C3125 1.363 . S
C3130 C3129 1.415 . S
C3131 H3107 0.951 . S
C3131 C3132 1.366 . S
C3131 C3133 1.388 . S
C3132 C3131 1.366 . S
C3132 C3136 1.385 . S
C3133 H3108 0.951 . S
C3133 C3131 1.388 . S
C3133 C3134 1.366 . S
C3134 C3133 1.366 . S
C3134 C3135 1.414 . S
C3134 C3137 1.499 . S
C3135 H3109 0.950 . S
C3135 C3134 1.414 . S
C3135 C3136 1.374 . S
C3136 H3110 0.950 . S
C3136 C3132 1.385 . S
C3136 C3135 1.374 . S
C3137 C3134 1.499 . S
C3137 C3138 1.373 . S
C3137 C3139 1.389 . S
C3138 H3111 0.950 . S
C3138 C3124 1.377 . S
C3138 C3137 1.373 . S
C3139 C3123 1.377 . S
C3139 C3137 1.389 . S
C3139 C3140 1.524 . S
C3140 C3139 1.524 . S
C3140 C3141 1.397 . S
C3140 C3145 1.363 . S
C3141 H3112 0.950 . S
C3141 C3140 1.397 . S
C3141 C3142 1.334 . S
C3142 H3113 0.950 . S
C3142 C3141 1.334 . S
C3142 C3143 1.287 . S
C3143 C3142 1.287 . S
C3143 C3144 1.524 . S
C3143 H3146 0.999 . S
C3144 H3114 0.950 . S
C3144 C3143 1.524 . S
C3144 C3145 1.415 . S
C3145 H3115 0.950 . S
C3145 C3140 1.363 . S
C3145 C3144 1.415 . S
H3146 C3143 0.999 . S
H3147 C3128 0.913 . S
H3148 C3166 0.951 . S
H3149 C3168 0.951 . S
H3150 C3170 0.950 . S
H3151 C3171 0.950 . S
H3152 C3173 0.950 . S
H3153 C3176 0.950 . S
H3154 C3177 0.950 . S
H3155 C3179 0.950 . S
H3156 C3180 0.950 . S
H3157 C3181 0.951 . S
H3158 C3183 0.951 . S
H3159 C3185 0.950 . S
H3160 C3186 0.950 . S
H3161 C3188 0.950 . S
H3162 C3191 0.950 . S
H3163 C3192 0.950 . S
H3164 C3194 0.950 . S
H3165 C3195 0.950 . S
C3166 H3148 0.951 . S
C3166 C3167 1.366 . S
C3166 C3168 1.388 . S
C3167 C3166 1.366 . S
C3167 C3171 1.385 . S
C3168 H3149 0.951 . S
C3168 C3166 1.388 . S
C3168 C3169 1.366 . S
C3169 C3168 1.366 . S
C3169 C3170 1.414 . S
C3169 C3172 1.499 . S
C3170 H3150 0.950 . S
C3170 C3169 1.414 . S
C3170 C3171 1.374 . S
C3171 H3151 0.950 . S
C3171 C3167 1.385 . S
C3171 C3170 1.374 . S
C3172 C3169 1.499 . S
C3172 C3173 1.373 . S
C3172 C3174 1.389 . S
C3173 H3152 0.950 . S
C3173 C3172 1.373 . S
C3173 C3189 1.377 . S
C3174 C3172 1.389 . S
C3174 C3175 1.524 . S
C3174 C3188 1.377 . S
C3175 C3174 1.524 . S
C3175 C3176 1.397 . S
C3175 C3180 1.363 . S
C3176 H3153 0.950 . S
C3176 C3175 1.397 . S
C3176 C3177 1.334 . S
C3177 H3154 0.950 . S
C3177 C3176 1.334 . S
C3177 C3178 1.287 . S
C3178 C3177 1.287 . S
C3178 C3179 1.524 . S
C3178 H3197 0.913 . S
C3179 H3155 0.950 . S
C3179 C3178 1.524 . S
C3179 C3180 1.415 . S
C3180 H3156 0.950 . S
C3180 C3175 1.363 . S
C3180 C3179 1.415 . S
C3181 H3157 0.951 . S
C3181 C3182 1.366 . S
C3181 C3183 1.388 . S
C3182 C3181 1.366 . S
C3182 C3186 1.385 . S
C3183 H3158 0.951 . S
C3183 C3181 1.388 . S
C3183 C3184 1.366 . S
C3184 C3183 1.366 . S
C3184 C3185 1.414 . S
C3184 C3187 1.499 . S
C3185 H3159 0.950 . S
C3185 C3184 1.414 . S
C3185 C3186 1.374 . S
C3186 H3160 0.950 . S
C3186 C3182 1.385 . S
C3186 C3185 1.374 . S
C3187 C3184 1.499 . S
C3187 C3188 1.373 . S
C3187 C3189 1.389 . S
C3188 H3161 0.950 . S
C3188 C3174 1.377 . S
C3188 C3187 1.373 . S
C3189 C3173 1.377 . S
C3189 C3187 1.389 . S
C3189 C3190 1.524 . S
C3190 C3189 1.524 . S
C3190 C3191 1.397 . S
C3190 C3195 1.363 . S
C3191 H3162 0.950 . S
C3191 C3190 1.397 . S
C3191 C3192 1.334 . S
C3192 H3163 0.950 . S
C3192 C3191 1.334 . S
C3192 C3193 1.287 . S
C3193 C3192 1.287 . S
C3193 C3194 1.524 . S
C3193 H3196 0.999 . S
C3194 H3164 0.950 . S
C3194 C3193 1.524 . S
C3194 C3195 1.415 . S
C3195 H3165 0.950 . S
C3195 C3190 1.363 . S
C3195 C3194 1.415 . S
H3196 C3193 0.999 . S
H3197 C3178 0.913 . S
H3198 C3216 0.951 . S
H3199 C3218 0.951 . S
H3200 C3220 0.950 . S
H3201 C3221 0.950 . S
H3202 C3223 0.950 . S
H3203 C3226 0.950 . S
H3204 C3227 0.950 . S
H3205 C3229 0.950 . S
H3206 C3230 0.950 . S
H3207 C3231 0.951 . S
H3208 C3233 0.951 . S
H3209 C3235 0.950 . S
H3210 C3236 0.950 . S
H3211 C3238 0.950 . S
H3212 C3241 0.950 . S
H3213 C3242 0.950 . S
H3214 C3244 0.950 . S
H3215 C3245 0.950 . S
C3216 H3198 0.951 . S
C3216 C3217 1.366 . S
C3216 C3218 1.388 . S
C3217 C3216 1.366 . S
C3217 C3221 1.385 . S
C3218 H3199 0.951 . S
C3218 C3216 1.388 . S
C3218 C3219 1.366 . S
C3219 C3218 1.366 . S
C3219 C3220 1.414 . S
C3219 C3222 1.499 . S
C3220 H3200 0.950 . S
C3220 C3219 1.414 . S
C3220 C3221 1.374 . S
C3221 H3201 0.950 . S
C3221 C3217 1.385 . S
C3221 C3220 1.374 . S
C3222 C3219 1.499 . S
C3222 C3223 1.373 . S
C3222 C3224 1.389 . S
C3223 H3202 0.950 . S
C3223 C3222 1.373 . S
C3223 C3239 1.377 . S
C3224 C3222 1.389 . S
C3224 C3225 1.524 . S
C3224 C3238 1.377 . S
C3225 C3224 1.524 . S
C3225 C3226 1.397 . S
C3225 C3230 1.363 . S
C3226 H3203 0.950 . S
C3226 C3225 1.397 . S
C3226 C3227 1.334 . S
C3227 H3204 0.950 . S
C3227 C3226 1.334 . S
C3227 C3228 1.287 . S
C3228 C3227 1.287 . S
C3228 C3229 1.524 . S
C3228 H3247 0.913 . S
C3229 H3205 0.950 . S
C3229 C3228 1.524 . S
C3229 C3230 1.415 . S
C3230 H3206 0.950 . S
C3230 C3225 1.363 . S
C3230 C3229 1.415 . S
C3231 H3207 0.951 . S
C3231 C3232 1.366 . S
C3231 C3233 1.388 . S
C3232 C3231 1.366 . S
C3232 C3236 1.385 . S
C3233 H3208 0.951 . S
C3233 C3231 1.388 . S
C3233 C3234 1.366 . S
C3234 C3233 1.366 . S
C3234 C3235 1.414 . S
C3234 C3237 1.499 . S
C3235 H3209 0.950 . S
C3235 C3234 1.414 . S
C3235 C3236 1.374 . S
C3236 H3210 0.950 . S
C3236 C3232 1.385 . S
C3236 C3235 1.374 . S
C3237 C3234 1.499 . S
C3237 C3238 1.373 . S
C3237 C3239 1.389 . S
C3238 H3211 0.950 . S
C3238 C3224 1.377 . S
C3238 C3237 1.373 . S
C3239 C3223 1.377 . S
C3239 C3237 1.389 . S
C3239 C3240 1.524 . S
C3240 C3239 1.524 . S
C3240 C3241 1.397 . S
C3240 C3245 1.363 . S
C3241 H3212 0.950 . S
C3241 C3240 1.397 . S
C3241 C3242 1.334 . S
C3242 H3213 0.950 . S
C3242 C3241 1.334 . S
C3242 C3243 1.287 . S
C3243 C3242 1.287 . S
C3243 C3244 1.524 . S
C3243 H3246 0.999 . S
C3244 H3214 0.950 . S
C3244 C3243 1.524 . S
C3244 C3245 1.415 . S
C3245 H3215 0.950 . S
C3245 C3240 1.363 . S
C3245 C3244 1.415 . S
H3246 C3243 0.999 . S
H3247 C3228 0.913 . S
H3248 C3266 0.951 . S
H3249 C3268 0.951 . S
H3250 C3270 0.950 . S
H3251 C3271 0.950 . S
H3252 C3273 0.950 . S
H3253 C3276 0.950 . S
H3254 C3277 0.950 . S
H3255 C3279 0.950 . S
H3256 C3280 0.950 . S
H3257 C3281 0.951 . S
H3258 C3283 0.951 . S
H3259 C3285 0.950 . S
H3260 C3286 0.950 . S
H3261 C3288 0.950 . S
H3262 C3291 0.950 . S
H3263 C3292 0.950 . S
H3264 C3294 0.950 . S
H3265 C3295 0.950 . S
C3266 H3248 0.951 . S
C3266 C3267 1.366 . S
C3266 C3268 1.388 . S
C3267 C3266 1.366 . S
C3267 C3271 1.385 . S
C3268 H3249 0.951 . S
C3268 C3266 1.388 . S
C3268 C3269 1.366 . S
C3269 C3268 1.366 . S
C3269 C3270 1.414 . S
C3269 C3272 1.499 . S
C3270 H3250 0.950 . S
C3270 C3269 1.414 . S
C3270 C3271 1.374 . S
C3271 H3251 0.950 . S
C3271 C3267 1.385 . S
C3271 C3270 1.374 . S
C3272 C3269 1.499 . S
C3272 C3273 1.373 . S
C3272 C3274 1.389 . S
C3273 H3252 0.950 . S
C3273 C3272 1.373 . S
C3273 C3289 1.377 . S
C3274 C3272 1.389 . S
C3274 C3275 1.524 . S
C3274 C3288 1.377 . S
C3275 C3274 1.524 . S
C3275 C3276 1.397 . S
C3275 C3280 1.363 . S
C3276 H3253 0.950 . S
C3276 C3275 1.397 . S
C3276 C3277 1.334 . S
C3277 H3254 0.950 . S
C3277 C3276 1.334 . S
C3277 C3278 1.287 . S
C3278 C3277 1.287 . S
C3278 C3279 1.524 . S
C3278 H3297 0.913 . S
C3279 H3255 0.950 . S
C3279 C3278 1.524 . S
C3279 C3280 1.415 . S
C3280 H3256 0.950 . S
C3280 C3275 1.363 . S
C3280 C3279 1.415 . S
C3281 H3257 0.951 . S
C3281 C3282 1.366 . S
C3281 C3283 1.388 . S
C3282 C3281 1.366 . S
C3282 C3286 1.385 . S
C3283 H3258 0.951 . S
C3283 C3281 1.388 . S
C3283 C3284 1.366 . S
C3284 C3283 1.366 . S
C3284 C3285 1.414 . S
C3284 C3287 1.499 . S
C3285 H3259 0.950 . S
C3285 C3284 1.414 . S
C3285 C3286 1.374 . S
C3286 H3260 0.950 . S
C3286 C3282 1.385 . S
C3286 C3285 1.374 . S
C3287 C3284 1.499 . S
C3287 C3288 1.373 . S
C3287 C3289 1.389 . S
C3288 H3261 0.950 . S
C3288 C3274 1.377 . S
C3288 C3287 1.373 . S
C3289 C3273 1.377 . S
C3289 C3287 1.389 . S
C3289 C3290 1.524 . S
C3290 C3289 1.524 . S
C3290 C3291 1.397 . S
C3290 C3295 1.363 . S
C3291 H3262 0.950 . S
C3291 C3290 1.397 . S
C3291 C3292 1.334 . S
C3292 H3263 0.950 . S
C3292 C3291 1.334 . S
C3292 C3293 1.287 . S
C3293 C3292 1.287 . S
C3293 C3294 1.524 . S
C3293 H3296 0.999 . S
C3294 H3264 0.950 . S
C3294 C3293 1.524 . S
C3294 C3295 1.415 . S
C3295 H3265 0.950 . S
C3295 C3290 1.363 . S
C3295 C3294 1.415 . S
H3296 C3293 0.999 . S
H3297 C3278 0.913 . S
H3298 C3316 0.951 . S
H3299 C3318 0.951 . S
H3300 C3320 0.950 . S
H3301 C3321 0.950 . S
H3302 C3323 0.950 . S
H3303 C3326 0.950 . S
H3304 C3327 0.950 . S
H3305 C3329 0.950 . S
H3306 C3330 0.950 . S
H3307 C3331 0.951 . S
H3308 C3333 0.951 . S
H3309 C3335 0.950 . S
H3310 C3336 0.950 . S
H3311 C3338 0.950 . S
H3312 C3341 0.950 . S
H3313 C3342 0.950 . S
H3314 C3344 0.950 . S
H3315 C3345 0.950 . S
C3316 H3298 0.951 . S
C3316 C3317 1.366 . S
C3316 C3318 1.388 . S
C3317 C3316 1.366 . S
C3317 C3321 1.385 . S
C3318 H3299 0.951 . S
C3318 C3316 1.388 . S
C3318 C3319 1.366 . S
C3319 C3318 1.366 . S
C3319 C3320 1.414 . S
C3319 C3322 1.499 . S
C3320 H3300 0.950 . S
C3320 C3319 1.414 . S
C3320 C3321 1.374 . S
C3321 H3301 0.950 . S
C3321 C3317 1.385 . S
C3321 C3320 1.374 . S
C3322 C3319 1.499 . S
C3322 C3323 1.373 . S
C3322 C3324 1.389 . S
C3323 H3302 0.950 . S
C3323 C3322 1.373 . S
C3323 C3339 1.377 . S
C3324 C3322 1.389 . S
C3324 C3325 1.524 . S
C3324 C3338 1.377 . S
C3325 C3324 1.524 . S
C3325 C3326 1.397 . S
C3325 C3330 1.363 . S
C3326 H3303 0.950 . S
C3326 C3325 1.397 . S
C3326 C3327 1.334 . S
C3327 H3304 0.950 . S
C3327 C3326 1.334 . S
C3327 C3328 1.287 . S
C3328 C3327 1.287 . S
C3328 C3329 1.524 . S
C3328 H3347 0.913 . S
C3329 H3305 0.950 . S
C3329 C3328 1.524 . S
C3329 C3330 1.415 . S
C3330 H3306 0.950 . S
C3330 C3325 1.363 . S
C3330 C3329 1.415 . S
C3331 H3307 0.951 . S
C3331 C3332 1.366 . S
C3331 C3333 1.388 . S
C3332 C3331 1.366 . S
C3332 C3336 1.385 . S
C3333 H3308 0.951 . S
C3333 C3331 1.388 . S
C3333 C3334 1.366 . S
C3334 C3333 1.366 . S
C3334 C3335 1.414 . S
C3334 C3337 1.499 . S
C3335 H3309 0.950 . S
C3335 C3334 1.414 . S
C3335 C3336 1.374 . S
C3336 H3310 0.950 . S
C3336 C3332 1.385 . S
C3336 C3335 1.374 . S
C3337 C3334 1.499 . S
C3337 C3338 1.373 . S
C3337 C3339 1.389 . S
C3338 H3311 0.950 . S
C3338 C3324 1.377 . S
C3338 C3337 1.373 . S
C3339 C3323 1.377 . S
C3339 C3337 1.389 . S
C3339 C3340 1.524 . S
C3340 C3339 1.524 . S
C3340 C3341 1.397 . S
C3340 C3345 1.363 . S
C3341 H3312 0.950 . S
C3341 C3340 1.397 . S
C3341 C3342 1.334 . S
C3342 H3313 0.950 . S
C3342 C3341 1.334 . S
C3342 C3343 1.287 . S
C3343 C3342 1.287 . S
C3343 C3344 1.524 . S
C3343 H3346 0.999 . S
C3344 H3314 0.950 . S
C3344 C3343 1.524 . S
C3344 C3345 1.415 . S
C3345 H3315 0.950 . S
C3345 C3340 1.363 . S
C3345 C3344 1.415 . S
H3346 C3343 0.999 . S
H3347 C3328 0.913 . S
H3348 C3366 0.951 . S
H3349 C3368 0.951 . S
H3350 C3370 0.950 . S
H3351 C3371 0.950 . S
H3352 C3373 0.950 . S
H3353 C3376 0.950 . S
H3354 C3377 0.950 . S
H3355 C3379 0.950 . S
H3356 C3380 0.950 . S
H3357 C3381 0.951 . S
H3358 C3383 0.951 . S
H3359 C3385 0.950 . S
H3360 C3386 0.950 . S
H3361 C3388 0.950 . S
H3362 C3391 0.950 . S
H3363 C3392 0.950 . S
H3364 C3394 0.950 . S
H3365 C3395 0.950 . S
C3366 H3348 0.951 . S
C3366 C3367 1.366 . S
C3366 C3368 1.388 . S
C3367 C3366 1.366 . S
C3367 C3371 1.385 . S
C3368 H3349 0.951 . S
C3368 C3366 1.388 . S
C3368 C3369 1.366 . S
C3369 C3368 1.366 . S
C3369 C3370 1.414 . S
C3369 C3372 1.499 . S
C3370 H3350 0.950 . S
C3370 C3369 1.414 . S
C3370 C3371 1.374 . S
C3371 H3351 0.950 . S
C3371 C3367 1.385 . S
C3371 C3370 1.374 . S
C3372 C3369 1.499 . S
C3372 C3373 1.373 . S
C3372 C3374 1.389 . S
C3373 H3352 0.950 . S
C3373 C3372 1.373 . S
C3373 C3389 1.377 . S
C3374 C3372 1.389 . S
C3374 C3375 1.524 . S
C3374 C3388 1.377 . S
C3375 C3374 1.524 . S
C3375 C3376 1.397 . S
C3375 C3380 1.363 . S
C3376 H3353 0.950 . S
C3376 C3375 1.397 . S
C3376 C3377 1.334 . S
C3377 H3354 0.950 . S
C3377 C3376 1.334 . S
C3377 C3378 1.287 . S
C3378 C3377 1.287 . S
C3378 C3379 1.524 . S
C3378 H3397 0.913 . S
C3379 H3355 0.950 . S
C3379 C3378 1.524 . S
C3379 C3380 1.415 . S
C3380 H3356 0.950 . S
C3380 C3375 1.363 . S
C3380 C3379 1.415 . S
C3381 H3357 0.951 . S
C3381 C3382 1.366 . S
C3381 C3383 1.388 . S
C3382 C3381 1.366 . S
C3382 C3386 1.385 . S
C3383 H3358 0.951 . S
C3383 C3381 1.388 . S
C3383 C3384 1.366 . S
C3384 C3383 1.366 . S
C3384 C3385 1.414 . S
C3384 C3387 1.499 . S
C3385 H3359 0.950 . S
C3385 C3384 1.414 . S
C3385 C3386 1.374 . S
C3386 H3360 0.950 . S
C3386 C3382 1.385 . S
C3386 C3385 1.374 . S
C3387 C3384 1.499 . S
C3387 C3388 1.373 . S
C3387 C3389 1.389 . S
C3388 H3361 0.950 . S
C3388 C3374 1.377 . S
C3388 C3387 1.373 . S
C3389 C3373 1.377 . S
C3389 C3387 1.389 . S
C3389 C3390 1.524 . S
C3390 C3389 1.524 . S
C3390 C3391 1.397 . S
C3390 C3395 1.363 . S
C3391 H3362 0.950 . S
C3391 C3390 1.397 . S
C3391 C3392 1.334 . S
C3392 H3363 0.950 . S
C3392 C3391 1.334 . S
C3392 C3393 1.287 . S
C3393 C3392 1.287 . S
C3393 C3394 1.524 . S
C3393 H3396 0.999 . S
C3394 H3364 0.950 . S
C3394 C3393 1.524 . S
C3394 C3395 1.415 . S
C3395 H3365 0.950 . S
C3395 C3390 1.363 . S
C3395 C3394 1.415 . S
H3396 C3393 0.999 . S
H3397 C3378 0.913 . S
H3398 C3416 0.951 . S
H3399 C3418 0.951 . S
H3400 C3420 0.950 . S
H3401 C3421 0.950 . S
H3402 C3423 0.950 . S
H3403 C3426 0.950 . S
H3404 C3427 0.950 . S
H3405 C3429 0.950 . S
H3406 C3430 0.950 . S
H3407 C3431 0.951 . S
H3408 C3433 0.951 . S
H3409 C3435 0.950 . S
H3410 C3436 0.950 . S
H3411 C3438 0.950 . S
H3412 C3441 0.950 . S
H3413 C3442 0.950 . S
H3414 C3444 0.950 . S
H3415 C3445 0.950 . S
C3416 H3398 0.951 . S
C3416 C3417 1.366 . S
C3416 C3418 1.388 . S
C3417 C3416 1.366 . S
C3417 C3421 1.385 . S
C3418 H3399 0.951 . S
C3418 C3416 1.388 . S
C3418 C3419 1.366 . S
C3419 C3418 1.366 . S
C3419 C3420 1.414 . S
C3419 C3422 1.499 . S
C3420 H3400 0.950 . S
C3420 C3419 1.414 . S
C3420 C3421 1.374 . S
C3421 H3401 0.950 . S
C3421 C3417 1.385 . S
C3421 C3420 1.374 . S
C3422 C3419 1.499 . S
C3422 C3423 1.373 . S
C3422 C3424 1.389 . S
C3423 H3402 0.950 . S
C3423 C3422 1.373 . S
C3423 C3439 1.377 . S
C3424 C3422 1.389 . S
C3424 C3425 1.524 . S
C3424 C3438 1.377 . S
C3425 C3424 1.524 . S
C3425 C3426 1.397 . S
C3425 C3430 1.363 . S
C3426 H3403 0.950 . S
C3426 C3425 1.397 . S
C3426 C3427 1.334 . S
C3427 H3404 0.950 . S
C3427 C3426 1.334 . S
C3427 C3428 1.287 . S
C3428 C3427 1.287 . S
C3428 C3429 1.524 . S
C3428 H3447 0.913 . S
C3429 H3405 0.950 . S
C3429 C3428 1.524 . S
C3429 C3430 1.415 . S
C3430 H3406 0.950 . S
C3430 C3425 1.363 . S
C3430 C3429 1.415 . S
C3431 H3407 0.951 . S
C3431 C3432 1.366 . S
C3431 C3433 1.388 . S
C3432 C3431 1.366 . S
C3432 C3436 1.385 . S
C3433 H3408 0.951 . S
C3433 C3431 1.388 . S
C3433 C3434 1.366 . S
C3434 C3433 1.366 . S
C3434 C3435 1.414 . S
C3434 C3437 1.499 . S
C3435 H3409 0.950 . S
C3435 C3434 1.414 . S
C3435 C3436 1.374 . S
C3436 H3410 0.950 . S
C3436 C3432 1.385 . S
C3436 C3435 1.374 . S
C3437 C3434 1.499 . S
C3437 C3438 1.373 . S
C3437 C3439 1.389 . S
C3438 H3411 0.950 . S
C3438 C3424 1.377 . S
C3438 C3437 1.373 . S
C3439 C3423 1.377 . S
C3439 C3437 1.389 . S
C3439 C3440 1.524 . S
C3440 C3439 1.524 . S
C3440 C3441 1.397 . S
C3440 C3445 1.363 . S
C3441 H3412 0.950 . S
C3441 C3440 1.397 . S
C3441 C3442 1.334 . S
C3442 H3413 0.950 . S
C3442 C3441 1.334 . S
C3442 C3443 1.287 . S
C3443 C3442 1.287 . S
C3443 C3444 1.524 . S
C3443 H3446 0.999 . S
C3444 H3414 0.950 . S
C3444 C3443 1.524 . S
C3444 C3445 1.415 . S
C3445 H3415 0.950 . S
C3445 C3440 1.363 . S
C3445 C3444 1.415 . S
H3446 C3443 0.999 . S
H3447 C3428 0.913 . S
H3448 C3466 0.951 . S
H3449 C3468 0.951 . S
H3450 C3470 0.950 . S
H3451 C3471 0.950 . S
H3452 C3473 0.950 . S
H3453 C3476 0.950 . S
H3454 C3477 0.950 . S
H3455 C3479 0.950 . S
H3456 C3480 0.950 . S
H3457 C3481 0.951 . S
H3458 C3483 0.951 . S
H3459 C3485 0.950 . S
H3460 C3486 0.950 . S
H3461 C3488 0.950 . S
H3462 C3491 0.950 . S
H3463 C3492 0.950 . S
H3464 C3494 0.950 . S
H3465 C3495 0.950 . S
C3466 H3448 0.951 . S
C3466 C3467 1.366 . S
C3466 C3468 1.388 . S
C3467 C3466 1.366 . S
C3467 C3471 1.385 . S
C3468 H3449 0.951 . S
C3468 C3466 1.388 . S
C3468 C3469 1.366 . S
C3469 C3468 1.366 . S
C3469 C3470 1.414 . S
C3469 C3472 1.499 . S
C3470 H3450 0.950 . S
C3470 C3469 1.414 . S
C3470 C3471 1.374 . S
C3471 H3451 0.950 . S
C3471 C3467 1.385 . S
C3471 C3470 1.374 . S
C3472 C3469 1.499 . S
C3472 C3473 1.373 . S
C3472 C3474 1.389 . S
C3473 H3452 0.950 . S
C3473 C3472 1.373 . S
C3473 C3489 1.377 . S
C3474 C3472 1.389 . S
C3474 C3475 1.524 . S
C3474 C3488 1.377 . S
C3475 C3474 1.524 . S
C3475 C3476 1.397 . S
C3475 C3480 1.363 . S
C3476 H3453 0.950 . S
C3476 C3475 1.397 . S
C3476 C3477 1.334 . S
C3477 H3454 0.950 . S
C3477 C3476 1.334 . S
C3477 C3478 1.287 . S
C3478 C3477 1.287 . S
C3478 C3479 1.524 . S
C3478 H3497 0.913 . S
C3479 H3455 0.950 . S
C3479 C3478 1.524 . S
C3479 C3480 1.415 . S
C3480 H3456 0.950 . S
C3480 C3475 1.363 . S
C3480 C3479 1.415 . S
C3481 H3457 0.951 . S
C3481 C3482 1.366 . S
C3481 C3483 1.388 . S
C3482 C3481 1.366 . S
C3482 C3486 1.385 . S
C3483 H3458 0.951 . S
C3483 C3481 1.388 . S
C3483 C3484 1.366 . S
C3484 C3483 1.366 . S
C3484 C3485 1.414 . S
C3484 C3487 1.499 . S
C3485 H3459 0.950 . S
C3485 C3484 1.414 . S
C3485 C3486 1.374 . S
C3486 H3460 0.950 . S
C3486 C3482 1.385 . S
C3486 C3485 1.374 . S
C3487 C3484 1.499 . S
C3487 C3488 1.373 . S
C3487 C3489 1.389 . S
C3488 H3461 0.950 . S
C3488 C3474 1.377 . S
C3488 C3487 1.373 . S
C3489 C3473 1.377 . S
C3489 C3487 1.389 . S
C3489 C3490 1.524 . S
C3490 C3489 1.524 . S
C3490 C3491 1.397 . S
C3490 C3495 1.363 . S
C3491 H3462 0.950 . S
C3491 C3490 1.397 . S
C3491 C3492 1.334 . S
C3492 H3463 0.950 . S
C3492 C3491 1.334 . S
C3492 C3493 1.287 . S
C3493 C3492 1.287 . S
C3493 C3494 1.524 . S
C3493 H3496 0.999 . S
C3494 H3464 0.950 . S
C3494 C3493 1.524 . S
C3494 C3495 1.415 . S
C3495 H3465 0.950 . S
C3495 C3490 1.363 . S
C3495 C3494 1.415 . S
H3496 C3493 0.999 . S
H3497 C3478 0.913 . S
H3498 C3516 0.951 . S
H3499 C3518 0.951 . S
H3500 C3520 0.950 . S
H3501 C3521 0.950 . S
H3502 C3523 0.950 . S
H3503 C3526 0.950 . S
H3504 C3527 0.950 . S
H3505 C3529 0.950 . S
H3506 C3530 0.950 . S
H3507 C3531 0.951 . S
H3508 C3533 0.951 . S
H3509 C3535 0.950 . S
H3510 C3536 0.950 . S
H3511 C3538 0.950 . S
H3512 C3541 0.950 . S
H3513 C3542 0.950 . S
H3514 C3544 0.950 . S
H3515 C3545 0.950 . S
C3516 H3498 0.951 . S
C3516 C3517 1.366 . S
C3516 C3518 1.388 . S
C3517 C3516 1.366 . S
C3517 C3521 1.385 . S
C3518 H3499 0.951 . S
C3518 C3516 1.388 . S
C3518 C3519 1.366 . S
C3519 C3518 1.366 . S
C3519 C3520 1.414 . S
C3519 C3522 1.499 . S
C3520 H3500 0.950 . S
C3520 C3519 1.414 . S
C3520 C3521 1.374 . S
C3521 H3501 0.950 . S
C3521 C3517 1.385 . S
C3521 C3520 1.374 . S
C3522 C3519 1.499 . S
C3522 C3523 1.373 . S
C3522 C3524 1.389 . S
C3523 H3502 0.950 . S
C3523 C3522 1.373 . S
C3523 C3539 1.377 . S
C3524 C3522 1.389 . S
C3524 C3525 1.524 . S
C3524 C3538 1.377 . S
C3525 C3524 1.524 . S
C3525 C3526 1.397 . S
C3525 C3530 1.363 . S
C3526 H3503 0.950 . S
C3526 C3525 1.397 . S
C3526 C3527 1.334 . S
C3527 H3504 0.950 . S
C3527 C3526 1.334 . S
C3527 C3528 1.287 . S
C3528 C3527 1.287 . S
C3528 C3529 1.524 . S
C3528 H3547 0.913 . S
C3529 H3505 0.950 . S
C3529 C3528 1.524 . S
C3529 C3530 1.415 . S
C3530 H3506 0.950 . S
C3530 C3525 1.363 . S
C3530 C3529 1.415 . S
C3531 H3507 0.951 . S
C3531 C3532 1.366 . S
C3531 C3533 1.388 . S
C3532 C3531 1.366 . S
C3532 C3536 1.385 . S
C3533 H3508 0.951 . S
C3533 C3531 1.388 . S
C3533 C3534 1.366 . S
C3534 C3533 1.366 . S
C3534 C3535 1.414 . S
C3534 C3537 1.499 . S
C3535 H3509 0.950 . S
C3535 C3534 1.414 . S
C3535 C3536 1.374 . S
C3536 H3510 0.950 . S
C3536 C3532 1.385 . S
C3536 C3535 1.374 . S
C3537 C3534 1.499 . S
C3537 C3538 1.373 . S
C3537 C3539 1.389 . S
C3538 H3511 0.950 . S
C3538 C3524 1.377 . S
C3538 C3537 1.373 . S
C3539 C3523 1.377 . S
C3539 C3537 1.389 . S
C3539 C3540 1.524 . S
C3540 C3539 1.524 . S
C3540 C3541 1.397 . S
C3540 C3545 1.363 . S
C3541 H3512 0.950 . S
C3541 C3540 1.397 . S
C3541 C3542 1.334 . S
C3542 H3513 0.950 . S
C3542 C3541 1.334 . S
C3542 C3543 1.287 . S
C3543 C3542 1.287 . S
C3543 C3544 1.524 . S
C3543 H3546 0.999 . S
C3544 H3514 0.950 . S
C3544 C3543 1.524 . S
C3544 C3545 1.415 . S
C3545 H3515 0.950 . S
C3545 C3540 1.363 . S
C3545 C3544 1.415 . S
H3546 C3543 0.999 . S
H3547 C3528 0.913 . S
H3548 C3566 0.951 . S
H3549 C3568 0.951 . S
H3550 C3570 0.950 . S
H3551 C3571 0.950 . S
H3552 C3573 0.950 . S
H3553 C3576 0.950 . S
H3554 C3577 0.950 . S
H3555 C3579 0.950 . S
H3556 C3580 0.950 . S
H3557 C3581 0.951 . S
H3558 C3583 0.951 . S
H3559 C3585 0.950 . S
H3560 C3586 0.950 . S
H3561 C3588 0.950 . S
H3562 C3591 0.950 . S
H3563 C3592 0.950 . S
H3564 C3594 0.950 . S
H3565 C3595 0.950 . S
C3566 H3548 0.951 . S
C3566 C3567 1.366 . S
C3566 C3568 1.388 . S
C3567 C3566 1.366 . S
C3567 C3571 1.385 . S
C3568 H3549 0.951 . S
C3568 C3566 1.388 . S
C3568 C3569 1.366 . S
C3569 C3568 1.366 . S
C3569 C3570 1.414 . S
C3569 C3572 1.499 . S
C3570 H3550 0.950 . S
C3570 C3569 1.414 . S
C3570 C3571 1.374 . S
C3571 H3551 0.950 . S
C3571 C3567 1.385 . S
C3571 C3570 1.374 . S
C3572 C3569 1.499 . S
C3572 C3573 1.373 . S
C3572 C3574 1.389 . S
C3573 H3552 0.950 . S
C3573 C3572 1.373 . S
C3573 C3589 1.377 . S
C3574 C3572 1.389 . S
C3574 C3575 1.524 . S
C3574 C3588 1.377 . S
C3575 C3574 1.524 . S
C3575 C3576 1.397 . S
C3575 C3580 1.363 . S
C3576 H3553 0.950 . S
C3576 C3575 1.397 . S
C3576 C3577 1.334 . S
C3577 H3554 0.950 . S
C3577 C3576 1.334 . S
C3577 C3578 1.287 . S
C3578 C3577 1.287 . S
C3578 C3579 1.524 . S
C3578 H3597 0.913 . S
C3579 H3555 0.950 . S
C3579 C3578 1.524 . S
C3579 C3580 1.415 . S
C3580 H3556 0.950 . S
C3580 C3575 1.363 . S
C3580 C3579 1.415 . S
C3581 H3557 0.951 . S
C3581 C3582 1.366 . S
C3581 C3583 1.388 . S
C3582 C3581 1.366 . S
C3582 C3586 1.385 . S
C3583 H3558 0.951 . S
C3583 C3581 1.388 . S
C3583 C3584 1.366 . S
C3584 C3583 1.366 . S
C3584 C3585 1.414 . S
C3584 C3587 1.499 . S
C3585 H3559 0.950 . S
C3585 C3584 1.414 . S
C3585 C3586 1.374 . S
C3586 H3560 0.950 . S
C3586 C3582 1.385 . S
C3586 C3585 1.374 . S
C3587 C3584 1.499 . S
C3587 C3588 1.373 . S
C3587 C3589 1.389 . S
C3588 H3561 0.950 . S
C3588 C3574 1.377 . S
C3588 C3587 1.373 . S
C3589 C3573 1.377 . S
C3589 C3587 1.389 . S
C3589 C3590 1.524 . S
C3590 C3589 1.524 . S
C3590 C3591 1.397 . S
C3590 C3595 1.363 . S
C3591 H3562 0.950 . S
C3591 C3590 1.397 . S
C3591 C3592 1.334 . S
C3592 H3563 0.950 . S
C3592 C3591 1.334 . S
C3592 C3593 1.287 . S
C3593 C3592 1.287 . S
C3593 C3594 1.524 . S
C3593 H3596 0.999 . S
C3594 H3564 0.950 . S
C3594 C3593 1.524 . S
C3594 C3595 1.415 . S
C3595 H3565 0.950 . S
C3595 C3590 1.363 . S
C3595 C3594 1.415 . S
H3596 C3593 0.999 . S
H3597 C3578 0.913 . S
H3598 C3616 0.951 . S
H3599 C3618 0.951 . S
H3600 C3620 0.950 . S
H3601 C3621 0.950 . S
H3602 C3623 0.950 . S
H3603 C3626 0.950 . S
H3604 C3627 0.950 . S
H3605 C3629 0.950 . S
H3606 C3630 0.950 . S
H3607 C3631 0.951 . S
H3608 C3633 0.951 . S
H3609 C3635 0.950 . S
H3610 C3636 0.950 . S
H3611 C3638 0.950 . S
H3612 C3641 0.950 . S
H3613 C3642 0.950 . S
H3614 C3644 0.950 . S
H3615 C3645 0.950 . S
C3616 H3598 0.951 . S
C3616 C3617 1.366 . S
C3616 C3618 1.388 . S
C3617 C3616 1.366 . S
C3617 C3621 1.385 . S
C3618 H3599 0.951 . S
C3618 C3616 1.388 . S
C3618 C3619 1.366 . S
C3619 C3618 1.366 . S
C3619 C3620 1.414 . S
C3619 C3622 1.499 . S
C3620 H3600 0.950 . S
C3620 C3619 1.414 . S
C3620 C3621 1.374 . S
C3621 H3601 0.950 . S
C3621 C3617 1.385 . S
C3621 C3620 1.374 . S
C3622 C3619 1.499 . S
C3622 C3623 1.373 . S
C3622 C3624 1.389 . S
C3623 H3602 0.950 . S
C3623 C3622 1.373 . S
C3623 C3639 1.377 . S
C3624 C3622 1.389 . S
C3624 C3625 1.524 . S
C3624 C3638 1.377 . S
C3625 C3624 1.524 . S
C3625 C3626 1.397 . S
C3625 C3630 1.363 . S
C3626 H3603 0.950 . S
C3626 C3625 1.397 . S
C3626 C3627 1.334 . S
C3627 H3604 0.950 . S
C3627 C3626 1.334 . S
C3627 C3628 1.287 . S
C3628 C3627 1.287 . S
C3628 C3629 1.524 . S
C3628 H3647 0.913 . S
C3629 H3605 0.950 . S
C3629 C3628 1.524 . S
C3629 C3630 1.415 . S
C3630 H3606 0.950 . S
C3630 C3625 1.363 . S
C3630 C3629 1.415 . S
C3631 H3607 0.951 . S
C3631 C3632 1.366 . S
C3631 C3633 1.388 . S
C3632 C3631 1.366 . S
C3632 C3636 1.385 . S
C3633 H3608 0.951 . S
C3633 C3631 1.388 . S
C3633 C3634 1.366 . S
C3634 C3633 1.366 . S
C3634 C3635 1.414 . S
C3634 C3637 1.499 . S
C3635 H3609 0.950 . S
C3635 C3634 1.414 . S
C3635 C3636 1.374 . S
C3636 H3610 0.950 . S
C3636 C3632 1.385 . S
C3636 C3635 1.374 . S
C3637 C3634 1.499 . S
C3637 C3638 1.373 . S
C3637 C3639 1.389 . S
C3638 H3611 0.950 . S
C3638 C3624 1.377 . S
C3638 C3637 1.373 . S
C3639 C3623 1.377 . S
C3639 C3637 1.389 . S
C3639 C3640 1.524 . S
C3640 C3639 1.524 . S
C3640 C3641 1.397 . S
C3640 C3645 1.363 . S
C3641 H3612 0.950 . S
C3641 C3640 1.397 . S
C3641 C3642 1.334 . S
C3642 H3613 0.950 . S
C3642 C3641 1.334 . S
C3642 C3643 1.287 . S
C3643 C3642 1.287 . S
C3643 C3644 1.524 . S
C3643 H3646 0.999 . S
C3644 H3614 0.950 . S
C3644 C3643 1.524 . S
C3644 C3645 1.415 . S
C3645 H3615 0.950 . S
C3645 C3640 1.363 . S
C3645 C3644 1.415 . S
H3646 C3643 0.999 . S
H3647 C3628 0.913 . S
C467 C218 1.522 . S
C482 C8 1.522 . S
C517 C22 1.522 . S
C532 C176 1.522 . S
C567 C36 1.521 . S
C582 C190 1.522 . S
C617 C204 1.522 . S
C632 C50 1.522 . S
C667 C64 1.522 . S
C682 C134 1.522 . S
C717 C78 1.522 . S
C732 C148 1.521 . S
C767 C162 1.522 . S
C782 C92 1.522 . S
C817 C120 1.521 . S
C832 C106 1.522 . S
C867 C232 1.522 . S
C882 C442 1.522 . S
C917 C246 1.522 . S
C932 C400 1.522 . S
C967 C260 1.521 . S
C982 C414 1.522 . S
C1017 C428 1.522 . S
C1032 C274 1.522 . S
C1067 C288 1.522 . S
C1082 C358 1.522 . S
C1117 C302 1.522 . S
C1132 C372 1.521 . S
C1167 C386 1.522 . S
C1182 C316 1.521 . S
C1217 C330 1.522 . S
C1232 C344 1.521 . S
C1267 C175 1.458 . S
C1282 C7 1.458 . S
C1317 C21 1.458 . S
C1332 C189 1.458 . S
C1367 C203 1.458 . S
C1382 C35 1.458 . S
C1417 C49 1.458 . S
C1432 C217 1.458 . S
C1467 C63 1.458 . S
C1482 C119 1.458 . S
C1517 C133 1.458 . S
C1532 C77 1.459 . S
C1567 C147 1.458 . S
C1582 C91 1.458 . S
C1617 C161 1.458 . S
C1632 C105 1.458 . S
C1667 C231 1.458 . S
C1682 C399 1.458 . S
C1717 C413 1.459 . S
C1732 C245 1.458 . S
C1767 C259 1.458 . S
C1782 C427 1.458 . S
C1817 C273 1.458 . S
C1832 C441 1.459 . S
C1867 C343 1.458 . S
C1882 C287 1.458 . S
C1917 C301 1.458 . S
C1932 C357 1.458 . S
C1967 C315 1.458 . S
C1982 C371 1.458 . S
C2017 C329 1.459 . S
C2032 C385 1.458 . S
C2067 C9 1.366 . S
C2082 C149 1.365 . S
C2117 C163 1.366 . S
C2132 C23 1.365 . S
C2167 C37 1.365 . S
C2182 C121 1.366 . S
C2217 C135 1.365 . S
C2232 C51 1.366 . S
C2267 C205 1.366 . S
C2282 C65 1.365 . S
C2317 C219 1.365 . S
C2332 C79 1.366 . S
C2367 C177 1.365 . S
C2382 C93 1.366 . S
C2417 C107 1.365 . S
C2432 C191 1.366 . S
C2467 C373 1.365 . S
C2482 C233 1.366 . S
C2517 C247 1.366 . S
C2532 C387 1.366 . S
C2567 C345 1.365 . S
C2582 C261 1.366 . S
C2617 C359 1.366 . S
C2632 C275 1.365 . S
C2667 C289 1.365 . S
C2682 C429 1.366 . S
C2717 C303 1.366 . S
C2732 C443 1.366 . S
C2767 C401 1.365 . S
C2782 C317 1.366 . S
C2817 C415 1.365 . S
C2832 C331 1.366 . S
C2867 C328 1.362 . S
C2882 C6 1.362 . S
C2917 C286 1.362 . S
C2932 C20 1.361 . S
C2967 C300 1.361 . S
C2982 C34 1.361 . S
C3017 C314 1.361 . S
C3032 C48 1.361 . S
C3067 C244 1.362 . S
C3082 C62 1.362 . S
C3117 C76 1.362 . S
C3132 C258 1.362 . S
C3167 C90 1.361 . S
C3182 C272 1.361 . S
C3217 C104 1.361 . S
C3232 C230 1.361 . S
C3267 C118 1.361 . S
C3282 C440 1.362 . S
C3317 C398 1.361 . S
C3332 C132 1.361 . S
C3367 C146 1.361 . S
C3382 C412 1.361 . S
C3417 C160 1.362 . S
C3432 C426 1.362 . S
C3467 C356 1.361 . S
C3482 C174 1.361 . S
C3517 C370 1.361 . S
C3532 C188 1.362 . S
C3567 C202 1.361 . S
C3582 C384 1.361 . S
C3617 C216 1.361 . S
C3632 C342 1.361 . S
