# Generated by pormake.
# Topology yfw, (5)-cn, num edge types: 1
# Building blocks:
#     Node 0, Type 0, BuildingBlock: BEQFEK_clean_sbu_0, # of connection points: 5
#     Node 1, Type 0, BuildingBlock: BEQFEK_clean_sbu_0, # of connection points: 5
#     Node 2, Type 0, BuildingBlock: BEQFEK_clean_sbu_0, # of connection points: 5
#     Node 3, Type 0, BuildingBlock: BEQFEK_clean_sbu_0, # of connection points: 5
#     Node 4, Type 0, BuildingBlock: BEQFEK_clean_sbu_0, # of connection points: 5
#     Node 5, Type 0, BuildingBlock: BEQFEK_clean_sbu_0, # of connection points: 5
#     Node 6, Type 0, BuildingBlock: BEQFEK_clean_sbu_0, # of connection points: 5
#     Node 7, Type 0, BuildingBlock: BEQFEK_clean_sbu_0, # of connection points: 5
#     Node 8, Type 0, BuildingBlock: BEQFEK_clean_sbu_0, # of connection points: 5
#     Node 9, Type 0, BuildingBlock: BEQFEK_clean_sbu_0, # of connection points: 5
#     Node 10, Type 0, BuildingBlock: BEQFEK_clean_sbu_0, # of connection points: 5
#     Node 11, Type 0, BuildingBlock: BEQFEK_clean_sbu_0, # of connection points: 5
#     Node 12, Type 0, BuildingBlock: BEQFEK_clean_sbu_0, # of connection points: 5
#     Node 13, Type 0, BuildingBlock: BEQFEK_clean_sbu_0, # of connection points: 5
#     Node 14, Type 0, BuildingBlock: BEQFEK_clean_sbu_0, # of connection points: 5
#     Node 15, Type 0, BuildingBlock: BEQFEK_clean_sbu_0, # of connection points: 5
#     Edge 16, Type (0, 0), BuildingBlock: KIFKEQ_clean_linker_1, # of connection points: 2
#     Edge 17, Type (0, 0), BuildingBlock: KIFKEQ_clean_linker_1, # of connection points: 2
#     Edge 18, Type (0, 0), BuildingBlock: KIFKEQ_clean_linker_1, # of connection points: 2
#     Edge 19, Type (0, 0), BuildingBlock: KIFKEQ_clean_linker_1, # of connection points: 2
#     Edge 20, Type (0, 0), BuildingBlock: KIFKEQ_clean_linker_1, # of connection points: 2
#     Edge 21, Type (0, 0), BuildingBlock: KIFKEQ_clean_linker_1, # of connection points: 2
#     Edge 22, Type (0, 0), BuildingBlock: KIFKEQ_clean_linker_1, # of connection points: 2
#     Edge 23, Type (0, 0), BuildingBlock: KIFKEQ_clean_linker_1, # of connection points: 2
#     Edge 24, Type (0, 0), BuildingBlock: KIFKEQ_clean_linker_1, # of connection points: 2
#     Edge 25, Type (0, 0), BuildingBlock: KIFKEQ_clean_linker_1, # of connection points: 2
#     Edge 26, Type (0, 0), BuildingBlock: KIFKEQ_clean_linker_1, # of connection points: 2
#     Edge 27, Type (0, 0), BuildingBlock: KIFKEQ_clean_linker_1, # of connection points: 2
#     Edge 28, Type (0, 0), BuildingBlock: KIFKEQ_clean_linker_1, # of connection points: 2
#     Edge 29, Type (0, 0), BuildingBlock: KIFKEQ_clean_linker_1, # of connection points: 2
#     Edge 30, Type (0, 0), BuildingBlock: KIFKEQ_clean_linker_1, # of connection points: 2
#     Edge 31, Type (0, 0), BuildingBlock: KIFKEQ_clean_linker_1, # of connection points: 2
#     Edge 32, Type (0, 0), BuildingBlock: KIFKEQ_clean_linker_1, # of connection points: 2
#     Edge 33, Type (0, 0), BuildingBlock: KIFKEQ_clean_linker_1, # of connection points: 2
#     Edge 34, Type (0, 0), BuildingBlock: KIFKEQ_clean_linker_1, # of connection points: 2
#     Edge 35, Type (0, 0), BuildingBlock: KIFKEQ_clean_linker_1, # of connection points: 2
#     Edge 36, Type (0, 0), BuildingBlock: KIFKEQ_clean_linker_1, # of connection points: 2
#     Edge 37, Type (0, 0), BuildingBlock: KIFKEQ_clean_linker_1, # of connection points: 2
#     Edge 38, Type (0, 0), BuildingBlock: KIFKEQ_clean_linker_1, # of connection points: 2
#     Edge 39, Type (0, 0), BuildingBlock: KIFKEQ_clean_linker_1, # of connection points: 2
#     Edge 40, Type (0, 0), BuildingBlock: KIFKEQ_clean_linker_1, # of connection points: 2
#     Edge 41, Type (0, 0), BuildingBlock: KIFKEQ_clean_linker_1, # of connection points: 2
#     Edge 42, Type (0, 0), BuildingBlock: KIFKEQ_clean_linker_1, # of connection points: 2
#     Edge 43, Type (0, 0), BuildingBlock: KIFKEQ_clean_linker_1, # of connection points: 2
#     Edge 44, Type (0, 0), BuildingBlock: KIFKEQ_clean_linker_1, # of connection points: 2
#     Edge 45, Type (0, 0), BuildingBlock: KIFKEQ_clean_linker_1, # of connection points: 2
#     Edge 46, Type (0, 0), BuildingBlock: KIFKEQ_clean_linker_1, # of connection points: 2
#     Edge 47, Type (0, 0), BuildingBlock: KIFKEQ_clean_linker_1, # of connection points: 2
#     Edge 48, Type (0, 0), BuildingBlock: KIFKEQ_clean_linker_1, # of connection points: 2
#     Edge 49, Type (0, 0), BuildingBlock: KIFKEQ_clean_linker_1, # of connection points: 2
#     Edge 50, Type (0, 0), BuildingBlock: KIFKEQ_clean_linker_1, # of connection points: 2
#     Edge 51, Type (0, 0), BuildingBlock: KIFKEQ_clean_linker_1, # of connection points: 2
#     Edge 52, Type (0, 0), BuildingBlock: KIFKEQ_clean_linker_1, # of connection points: 2
#     Edge 53, Type (0, 0), BuildingBlock: KIFKEQ_clean_linker_1, # of connection points: 2
#     Edge 54, Type (0, 0), BuildingBlock: KIFKEQ_clean_linker_1, # of connection points: 2
#     Edge 55, Type (0, 0), BuildingBlock: KIFKEQ_clean_linker_1, # of connection points: 2
# Relax obj value: 0.076
# Max RMSD: 0.124
# Mean RMSD: 0.124
data_MOF--net-yfw--node1-BEQFEK_clean_sbu_0--edge1-KIFKEQ_clean_linker_1
_symmetry_space_group_name_H-M    P1
_symmetry_Int_Tables_number       1
_symmetry_cell_setting            triclinic
loop_
_symmetry_equiv_pos_as_xyz
'x, y, z'
_cell_length_a     56.334785
_cell_length_b     56.382965
_cell_length_c     28.313084
_cell_angle_alpha  89.980035
_cell_angle_beta   90.0153
_cell_angle_gamma 90.002188
loop_
_atom_site_label
_atom_site_type_symbol
_atom_site_fract_x
_atom_site_fract_y
_atom_site_fract_z
_atom_type_partial_charge
Co0 Co 0.12159 0.06487 0.01912 0.0
Co1 Co 0.17643 0.07621 0.0214 0.0
C2 C 0.1383 0.11294 0.0436 0.0
O3 O 0.12086 0.09914 0.03512 0.0
O4 O 0.1597 0.10589 0.0394 0.0
C5 C 0.07044 0.05703 0.99319 0.0
O6 O 0.07022 0.07686 0.96884 0.0
C7 C 0.21841 0.09816 0.97841 0.0
C8 C 0.24771 0.08147 0.01821 0.0
C9 C 0.24293 0.09692 0.98141 0.0
N10 N 0.20909 0.08381 0.0115 0.0
N11 N 0.2267 0.0741 0.03556 0.0
C12 C 0.20401 0.11338 0.94593 0.0
H13 H 0.18488 0.10888 0.94856 0.0
H14 H 0.21011 0.11133 0.90894 0.0
H15 H 0.20657 0.13226 0.9558 0.0
C16 C 0.1345 0.04833 0.92298 0.0
N17 N 0.14004 0.05867 0.96444 0.0
N18 N 0.16318 0.06195 0.96639 0.0
C19 C 0.17312 0.05303 0.92682 0.0
C20 C 0.15523 0.04458 0.89784 0.0
C21 C 0.11014 0.04016 0.90961 0.0
H22 H 0.10301 0.02851 0.93778 0.0
H23 H 0.09834 0.05578 0.90611 0.0
H24 H 0.11014 0.03021 0.87582 0.0
O25 O 0.13539 0.04755 0.07316 0.0
O26 O 0.17422 0.05398 0.07505 0.0
H27 H 0.20906 0.0489 0.95116 0.0
H28 H 0.20367 0.03693 0.89316 0.0
C29 C 0.19927 0.05158 0.91766 0.0
H30 H 0.20525 0.06826 0.90084 0.0
H31 H 0.2244 0.062 0.06304 0.0
O32 O 0.0893 0.0506 0.0143 0.0
C33 C 0.15568 0.04416 0.0917 0.0
Co34 Co 0.93967 0.62083 0.27769 0.0
Co35 Co 0.92161 0.67366 0.26952 0.0
C36 C 0.8884 0.63537 0.29685 0.0
O37 O 0.90512 0.62002 0.29509 0.0
O38 O 0.89194 0.65707 0.28617 0.0
C39 C 0.94796 0.5704 0.2515 0.0
O40 O 0.92914 0.57135 0.22416 0.0
C41 C 0.90028 0.71847 0.23265 0.0
C42 C 0.9304 0.74264 0.24638 0.0
C43 C 0.9085 0.74133 0.22445 0.0
N44 N 0.91702 0.70665 0.25721 0.0
N45 N 0.93456 0.7215 0.26651 0.0
C46 C 0.87838 0.70732 0.21264 0.0
H47 H 0.87941 0.6877 0.2149 0.0
H48 H 0.87582 0.71292 0.17539 0.0
H49 H 0.86277 0.7135 0.2331 0.0
C50 C 0.95799 0.632 0.18217 0.0
N51 N 0.94522 0.63751 0.22088 0.0
N52 N 0.9368 0.65918 0.21645 0.0
C53 C 0.94319 0.66775 0.17378 0.0
C54 C 0.95698 0.65092 0.1509 0.0
C55 C 0.97315 0.6103 0.17772 0.0
H56 H 0.981 0.60573 0.21243 0.0
H57 H 0.96202 0.59527 0.16554 0.0
H58 H 0.98774 0.61301 0.15198 0.0
O59 O 0.95723 0.63659 0.32802 0.0
O60 O 0.94272 0.67318 0.326 0.0
H61 H 0.94415 0.70569 0.17351 0.0
H62 H 0.93916 0.69278 0.11597 0.0
C63 C 0.93526 0.69109 0.15417 0.0
H64 H 0.91587 0.69271 0.15857 0.0
H65 H 0.95019 0.7167 0.28384 0.0
O66 O 0.95388 0.58854 0.27541 0.0
C67 C 0.95621 0.65755 0.34406 0.0
Co68 Co 0.37815 0.43859 0.51802 0.0
Co69 Co 0.32447 0.42235 0.52124 0.0
C70 C 0.36497 0.38873 0.54175 0.0
O71 O 0.38079 0.40459 0.5353 0.0
O72 O 0.34297 0.39329 0.53631 0.0
C73 C 0.42829 0.44751 0.48857 0.0
O74 O 0.42759 0.42826 0.46249 0.0
C75 C 0.28248 0.3999 0.47877 0.0
C76 C 0.25345 0.4149 0.52183 0.0
C77 C 0.25799 0.4006 0.48317 0.0
N78 N 0.292 0.41351 0.51285 0.0
N79 N 0.27455 0.42215 0.53889 0.0
C80 C 0.29668 0.38604 0.44367 0.0
H81 H 0.31553 0.39176 0.44406 0.0
H82 H 0.28918 0.388 0.40768 0.0
H83 H 0.29577 0.36695 0.45306 0.0
C84 C 0.36332 0.45449 0.42265 0.0
N85 N 0.35895 0.44339 0.46388 0.0
N86 N 0.33611 0.43842 0.46655 0.0
C87 C 0.32517 0.44711 0.42776 0.0
C88 C 0.34213 0.45699 0.39852 0.0
C89 C 0.38686 0.46449 0.40848 0.0
H90 H 0.39397 0.47563 0.43746 0.0
H91 H 0.39941 0.44973 0.40193 0.0
H92 H 0.38551 0.47543 0.376 0.0
O93 O 0.36365 0.45574 0.57128 0.0
O94 O 0.32616 0.44365 0.5764 0.0
H95 H 0.28934 0.44867 0.45392 0.0
H96 H 0.29365 0.46283 0.39758 0.0
C97 C 0.29891 0.44754 0.41985 0.0
H98 H 0.29357 0.43125 0.40084 0.0
H99 H 0.277 0.43361 0.5674 0.0
O100 O 0.41009 0.45368 0.51212 0.0
C101 C 0.34341 0.45617 0.59116 0.0
Co102 Co 0.56562 0.88232 0.76603 0.0
Co103 Co 0.57745 0.8276 0.76839 0.0
C104 C 0.61422 0.86581 0.7891 0.0
O105 O 0.59971 0.88283 0.78181 0.0
O106 O 0.60789 0.84416 0.7845 0.0
C107 C 0.55739 0.93388 0.74245 0.0
O108 O 0.5783 0.93557 0.72216 0.0
C109 C 0.59697 0.78386 0.72669 0.0
C110 C 0.57383 0.75688 0.75959 0.0
C111 C 0.59138 0.75991 0.72593 0.0
N112 N 0.58308 0.79454 0.75896 0.0
N113 N 0.56972 0.77819 0.77928 0.0
C114 C 0.61309 0.79677 0.69353 0.0
H115 H 0.60999 0.81619 0.69547 0.0
H116 H 0.61037 0.79038 0.65684 0.0
H117 H 0.63177 0.79299 0.70337 0.0
C118 C 0.54853 0.86944 0.67115 0.0
N119 N 0.55942 0.86379 0.7119 0.0
N120 N 0.56266 0.84069 0.71369 0.0
C121 C 0.55307 0.83082 0.67462 0.0
C122 C 0.54399 0.84875 0.64634 0.0
C123 C 0.54277 0.89425 0.65633 0.0
H124 H 0.52795 0.9011 0.67824 0.0
H125 H 0.5585 0.90565 0.66205 0.0
H126 H 0.53777 0.89525 0.6185 0.0
O127 O 0.54861 0.86898 0.8205 0.0
O128 O 0.55584 0.83039 0.82314 0.0
H129 H 0.54625 0.79588 0.7017 0.0
H130 H 0.53427 0.80119 0.64371 0.0
C131 C 0.54954 0.80474 0.66744 0.0
H132 H 0.56565 0.79709 0.65099 0.0
H133 H 0.55672 0.78181 0.80452 0.0
O134 O 0.55082 0.91429 0.7604 0.0
C135 C 0.54579 0.8488 0.83967 0.0
Co136 Co 0.8777 0.06178 0.51753 0.0
Co137 Co 0.8239 0.07757 0.52166 0.0
C138 C 0.86447 0.11183 0.53857 0.0
O139 O 0.88037 0.09598 0.53252 0.0
O140 O 0.84241 0.10706 0.53435 0.0
C141 C 0.92937 0.05373 0.50018 0.0
O142 O 0.93221 0.0767 0.49486 0.0
C143 C 0.78071 0.09877 0.48069 0.0
C144 C 0.75286 0.07971 0.52032 0.0
C145 C 0.75619 0.09556 0.48343 0.0
N146 N 0.79109 0.08495 0.5135 0.0
N147 N 0.77431 0.07391 0.53752 0.0
C148 C 0.79433 0.11492 0.44865 0.0
H149 H 0.81163 0.11965 0.46484 0.0
H150 H 0.79801 0.10578 0.41478 0.0
H151 H 0.78401 0.13128 0.44127 0.0
C152 C 0.86257 0.04436 0.42497 0.0
N153 N 0.85811 0.05651 0.46478 0.0
N154 N 0.83524 0.06106 0.46752 0.0
C155 C 0.82426 0.05107 0.43006 0.0
C156 C 0.84127 0.04032 0.40185 0.0
C157 C 0.8868 0.03648 0.41006 0.0
H158 H 0.89983 0.05077 0.41724 0.0
H159 H 0.88732 0.03205 0.37189 0.0
H160 H 0.89198 0.02061 0.43084 0.0
O161 O 0.864 0.04541 0.57247 0.0
O162 O 0.82645 0.05712 0.57807 0.0
H163 H 0.78951 0.04678 0.46022 0.0
H164 H 0.79332 0.03265 0.40364 0.0
C165 C 0.79792 0.04849 0.42504 0.0
H166 H 0.79062 0.0643 0.40691 0.0
H167 H 0.77755 0.0617 0.56446 0.0
O168 O 0.90883 0.04549 0.50886 0.0
C169 C 0.84398 0.04508 0.59312 0.0
Co170 Co 0.93646 0.37885 0.77928 0.0
Co171 Co 0.92276 0.32478 0.76738 0.0
C172 C 0.88633 0.36021 0.79505 0.0
O173 O 0.90145 0.37714 0.79307 0.0
O174 O 0.89206 0.33887 0.78536 0.0
C175 C 0.94345 0.42968 0.75388 0.0
O176 O 0.92721 0.42734 0.72089 0.0
C177 C 0.90412 0.27909 0.72876 0.0
C178 C 0.9362 0.25699 0.73819 0.0
C179 C 0.91369 0.25694 0.7186 0.0
N180 N 0.9206 0.29179 0.75223 0.0
N181 N 0.93941 0.27819 0.75877 0.0
C182 C 0.88103 0.28894 0.71153 0.0
H183 H 0.88101 0.30859 0.71375 0.0
H184 H 0.87767 0.28324 0.67459 0.0
H185 H 0.86646 0.28193 0.73387 0.0
C186 C 0.9577 0.36982 0.68471 0.0
N187 N 0.94446 0.36326 0.72219 0.0
N188 N 0.93697 0.34138 0.71583 0.0
C189 C 0.94411 0.33384 0.67294 0.0
C190 C 0.95777 0.35144 0.65208 0.0
C191 C 0.97249 0.39187 0.68292 0.0
H192 H 0.97833 0.3969 0.71892 0.0
H193 H 0.96182 0.40652 0.66769 0.0
H194 H 0.98843 0.38927 0.66047 0.0
O195 O 0.95366 0.36362 0.83104 0.0
O196 O 0.94356 0.32569 0.82407 0.0
H197 H 0.9471 0.29613 0.66702 0.0
H198 H 0.93959 0.31079 0.6123 0.0
C199 C 0.93678 0.31083 0.65105 0.0
H200 H 0.91768 0.30787 0.65755 0.0
H201 H 0.95506 0.28389 0.77491 0.0
O202 O 0.94847 0.41211 0.78019 0.0
C203 C 0.95473 0.34225 0.84486 0.0
Co204 Co 0.62232 0.43773 0.02804 0.0
Co205 Co 0.67621 0.42264 0.024 0.0
C206 C 0.63714 0.38721 0.04153 0.0
O207 O 0.62091 0.40288 0.03758 0.0
O208 O 0.659 0.39251 0.0366 0.0
C209 C 0.57281 0.44648 -0.0021 0.0
O210 O 0.57542 0.42929 0.96703 0.0
C211 C 0.71876 0.39994 0.98345 0.0
C212 C 0.74746 0.42085 0.01647 0.0
C213 C 0.74317 0.40282 0.98447 0.0
N214 N 0.70897 0.41577 0.01315 0.0
N215 N 0.72627 0.42798 0.03327 0.0
C216 C 0.70497 0.38219 0.95533 0.0
H217 H 0.68586 0.38696 0.95447 0.0
H218 H 0.71206 0.38093 0.91887 0.0
H219 H 0.70693 0.36448 0.97202 0.0
C220 C 0.63547 0.46013 0.93691 0.0
N221 N 0.64067 0.44654 0.97464 0.0
N222 N 0.66298 0.43967 0.97186 0.0
C223 C 0.67248 0.44828 0.93153 0.0
C224 C 0.65528 0.46141 0.90801 0.0
C225 C 0.61288 0.47382 0.93104 0.0
H226 H 0.60678 0.48058 0.9657 0.0
H227 H 0.59907 0.46204 0.91598 0.0
H228 H 0.61531 0.48914 0.9069 0.0
O229 O 0.63644 0.45136 0.08489 0.0
O230 O 0.67477 0.4424 0.08237 0.0
H231 H 0.71009 0.44828 0.94296 0.0
H232 H 0.70176 0.45255 0.88192 0.0
C233 C 0.69723 0.44323 0.91508 0.0
H234 H 0.69895 0.42404 0.90809 0.0
H235 H 0.72359 0.44167 0.05747 0.0
O236 O 0.58988 0.4517 0.02536 0.0
C237 C 0.65715 0.45226 0.10258 0.0
Co238 Co 0.56266 0.12036 0.26408 0.0
Co239 Co 0.57858 0.17414 0.26562 0.0
C240 C 0.61266 0.13466 0.28784 0.0
O241 O 0.59677 0.11874 0.28235 0.0
O242 O 0.60814 0.15659 0.28119 0.0
C243 C 0.55345 0.06992 0.2351 0.0
O244 O 0.57239 0.0701 0.20807 0.0
C245 C 0.60128 0.21839 0.2307 0.0
C246 C 0.57619 0.24493 0.25897 0.0
C247 C 0.59594 0.24254 0.23019 0.0
N248 N 0.58491 0.2072 0.2573 0.0
N249 N 0.5703 0.22327 0.27477 0.0
C250 C 0.62178 0.20609 0.20764 0.0
H251 H 0.62673 0.19003 0.22795 0.0
H252 H 0.61676 0.20039 0.17154 0.0
H253 H 0.6373 0.21816 0.20512 0.0
C254 C 0.54686 0.13428 0.16804 0.0
N255 N 0.55777 0.13906 0.20929 0.0
N256 N 0.56343 0.16175 0.21049 0.0
C257 C 0.55588 0.17212 0.17016 0.0
C258 C 0.5455 0.15498 0.14194 0.0
C259 C 0.53582 0.11096 0.15566 0.0
H260 H 0.52525 0.10435 0.18594 0.0
H261 H 0.55004 0.09798 0.14779 0.0
H262 H 0.52405 0.1124 0.12436 0.0
O263 O 0.5449 0.13449 0.31657 0.0
O264 O 0.55712 0.17185 0.32098 0.0
H265 H 0.55134 0.20854 0.18976 0.0
H266 H 0.54737 0.20298 0.12752 0.0
C267 C 0.55775 0.19803 0.15927 0.0
H268 H 0.57652 0.20259 0.15243 0.0
H269 H 0.55566 0.21932 0.29594 0.0
O270 O 0.54795 0.08831 0.25867 0.0
C271 C 0.54451 0.15476 0.33609 0.0
Co272 Co 0.62102 0.56447 0.52209 0.0
Co273 Co 0.67474 0.58062 0.52498 0.0
C274 C 0.63455 0.61505 0.54045 0.0
O275 O 0.61882 0.59891 0.53594 0.0
O276 O 0.65661 0.61049 0.53568 0.0
C277 C 0.57066 0.55626 0.49346 0.0
O278 O 0.57113 0.57625 0.46962 0.0
C279 C 0.71858 0.60112 0.48469 0.0
C280 C 0.74581 0.58176 0.52552 0.0
C281 C 0.74302 0.59756 0.48839 0.0
N282 N 0.70771 0.58751 0.51723 0.0
N283 N 0.72413 0.57631 0.54196 0.0
C284 C 0.70555 0.61747 0.45209 0.0
H285 H 0.68826 0.62264 0.46776 0.0
H286 H 0.70189 0.60833 0.41822 0.0
H287 H 0.71629 0.63357 0.44479 0.0
C288 C 0.63651 0.54524 0.43014 0.0
N289 N 0.64061 0.55816 0.46925 0.0
N290 N 0.66341 0.56324 0.47171 0.0
C291 C 0.67463 0.55296 0.43483 0.0
C292 C 0.65791 0.54144 0.40719 0.0
C293 C 0.61249 0.53663 0.41542 0.0
H294 H 0.59996 0.55174 0.41545 0.0
H295 H 0.61264 0.52884 0.37949 0.0
H296 H 0.60608 0.52321 0.44111 0.0
O297 O 0.6347 0.54834 0.57757 0.0
O298 O 0.67197 0.56101 0.58259 0.0
H299 H 0.70596 0.53519 0.40845 0.0
H300 H 0.70805 0.56687 0.41201 0.0
C301 C 0.70102 0.55089 0.42993 0.0
H302 H 0.7094 0.54922 0.46514 0.0
H303 H 0.72049 0.56423 0.56894 0.0
O304 O 0.58906 0.54943 0.51563 0.0
C305 C 0.65474 0.54873 0.59819 0.0
Co306 Co 0.43404 0.11954 0.76731 0.0
Co307 Co 0.42309 0.17447 0.76454 0.0
C308 C 0.38535 0.13898 0.7885 0.0
O309 O 0.39936 0.12145 0.78198 0.0
O310 O 0.3923 0.16034 0.78299 0.0
C311 C 0.44088 0.06966 0.7347 0.0
O312 O 0.42591 0.07348 0.69995 0.0
C313 C 0.40357 0.22121 0.73364 0.0
C314 C 0.43495 0.24381 0.74656 0.0
C315 C 0.41228 0.24414 0.72762 0.0
N316 N 0.4207 0.20792 0.75377 0.0
N317 N 0.43917 0.22172 0.76217 0.0
C318 C 0.37939 0.21208 0.7213 0.0
H319 H 0.37389 0.19821 0.74677 0.0
H320 H 0.37975 0.20399 0.68562 0.0
H321 H 0.36617 0.22667 0.72146 0.0
C322 C 0.45511 0.13139 0.67368 0.0
N323 N 0.44241 0.13702 0.71246 0.0
N324 N 0.436 0.15944 0.70981 0.0
C325 C 0.44331 0.16837 0.66806 0.0
C326 C 0.45581 0.15097 0.64396 0.0
C327 C 0.46935 0.10912 0.66834 0.0
H328 H 0.4749 0.10239 0.7034 0.0
H329 H 0.45847 0.0955 0.65022 0.0
H330 H 0.48547 0.11232 0.64674 0.0
O331 O 0.45158 0.13236 0.82088 0.0
O332 O 0.44528 0.17112 0.81899 0.0
H333 H 0.44888 0.20589 0.66937 0.0
H334 H 0.4404 0.19451 0.61212 0.0
C335 C 0.4376 0.19278 0.65072 0.0
H336 H 0.41877 0.19676 0.65805 0.0
H337 H 0.45508 0.2158 0.77693 0.0
O338 O 0.44523 0.08608 0.76419 0.0
C339 C 0.45496 0.15298 0.83757 0.0
Co340 Co 0.88156 0.93578 0.02524 0.0
Co341 Co 0.82741 0.92116 0.01894 0.0
C342 C 0.86509 0.88517 0.03803 0.0
O343 O 0.88148 0.90077 0.03494 0.0
O344 O 0.8433 0.89057 0.03222 0.0
C345 C 0.93078 0.94467 0.99306 0.0
O346 O 0.92694 0.9295 0.95869 0.0
C347 C 0.78166 0.90029 0.985 0.0
C348 C 0.75765 0.93023 0.0009 0.0
C349 C 0.75833 0.9081 0.97973 0.0
N350 N 0.79416 0.91745 0.00698 0.0
N351 N 0.77954 0.93504 0.01705 0.0
C352 C 0.79187 0.87692 0.97033 0.0
H353 H 0.8063 0.87162 0.99472 0.0
H354 H 0.7995 0.87843 0.93436 0.0
H355 H 0.77795 0.86299 0.97004 0.0
C356 C 0.869 0.95886 0.93417 0.0
N357 N 0.86378 0.94494 0.97145 0.0
N358 N 0.84185 0.93715 0.96709 0.0
C359 C 0.8329 0.94487 0.92567 0.0
C360 C 0.84974 0.95901 0.90363 0.0
C361 C 0.89066 0.97415 0.93066 0.0
H362 H 0.89679 0.97941 0.96633 0.0
H363 H 0.90497 0.96419 0.91254 0.0
H364 H 0.88694 0.99043 0.90987 0.0
O365 O 0.86756 0.95008 0.08125 0.0
O366 O 0.82931 0.94101 0.07714 0.0
H367 H 0.79504 0.94758 0.92487 0.0
H368 H 0.8079 0.94109 0.86785 0.0
C369 C 0.80926 0.93768 0.90632 0.0
H370 H 0.8066 0.9185 0.91212 0.0
H371 H 0.78473 0.95077 0.0335 0.0
O372 O 0.91452 0.94867 0.02314 0.0
C373 C 0.84666 0.95103 0.09791 0.0
Co374 Co 0.0654 0.3774 0.26745 0.0
Co375 Co 0.07797 0.32297 0.2728 0.0
C376 C 0.11434 0.36167 0.29071 0.0
O377 O 0.09996 0.37875 0.28301 0.0
O378 O 0.10774 0.34012 0.28714 0.0
C379 C 0.05949 0.42975 0.2573 0.0
O380 O 0.08238 0.43253 0.26425 0.0
C381 C 0.09984 0.28019 0.23349 0.0
C382 C 0.08183 0.25169 0.27327 0.0
C383 C 0.0979 0.25576 0.23719 0.0
N384 N 0.08529 0.29014 0.26545 0.0
N385 N 0.07482 0.27301 0.2896 0.0
C386 C 0.11567 0.29394 0.20105 0.0
H387 H 0.11037 0.3129 0.20016 0.0
H388 H 0.11528 0.28641 0.1649 0.0
H389 H 0.1342 0.29266 0.21409 0.0
C390 C 0.04822 0.36294 0.17364 0.0
N391 N 0.05917 0.35793 0.21467 0.0
N392 N 0.06295 0.33493 0.21743 0.0
C393 C 0.05393 0.32448 0.17844 0.0
C394 C 0.04457 0.34193 0.14928 0.0
C395 C 0.03926 0.3871 0.16074 0.0
H396 H 0.02542 0.3925 0.18644 0.0
H397 H 0.05403 0.40008 0.16304 0.0
H398 H 0.03144 0.38761 0.12484 0.0
O399 O 0.04813 0.36487 0.32262 0.0
O400 O 0.05686 0.32651 0.32809 0.0
H401 H 0.05083 0.28849 0.20271 0.0
H402 H 0.04067 0.29293 0.14301 0.0
C403 C 0.05409 0.2983 0.16943 0.0
H404 H 0.07163 0.2932 0.15516 0.0
H405 H 0.06234 0.27586 0.3162 0.0
O406 O 0.05067 0.40902 0.25711 0.0
C407 C 0.04615 0.34489 0.34311 0.0
Co408 Co 0.38078 0.5635 0.02214 0.0
Co409 Co 0.32671 0.57862 0.01926 0.0
C410 C 0.36459 0.61374 0.042 0.0
O411 O 0.38064 0.59792 0.03716 0.0
O412 O 0.34267 0.60901 0.03544 0.0
C413 C 0.43066 0.5556 0.9906 0.0
O414 O 0.42777 0.5719 0.95793 0.0
C415 C 0.28021 0.59923 0.98811 0.0
C416 C 0.25694 0.56866 0.00369 0.0
C417 C 0.257 0.59098 0.98328 0.0
N418 N 0.29325 0.58213 0.00903 0.0
N419 N 0.27905 0.56417 0.01898 0.0
C420 C 0.28979 0.62299 0.97415 0.0
H421 H 0.30454 0.62817 -0.00208 0.0
H422 H 0.29684 0.62221 0.93764 0.0
H423 H 0.2756 0.63663 0.97547 0.0
C424 C 0.36792 0.54383 0.92853 0.0
N425 N 0.36285 0.55652 0.96753 0.0
N426 N 0.3408 0.56417 0.96494 0.0
C427 C 0.33154 0.55745 0.92308 0.0
C428 C 0.34835 0.54424 0.89881 0.0
C429 C 0.38979 0.52904 0.9226 0.0
H430 H 0.39604 0.52251 0.95736 0.0
H431 H 0.40394 0.53993 0.90616 0.0
H432 H 0.38634 0.51354 0.89943 0.0
O433 O 0.36707 0.54666 0.07529 0.0
O434 O 0.32914 0.55697 0.075 0.0
H435 H 0.29373 0.55414 0.92487 0.0
H436 H 0.30544 0.56145 0.86724 0.0
C437 C 0.30745 0.56444 0.90572 0.0
H438 H 0.30464 0.58351 0.91251 0.0
H439 H 0.28468 0.54837 0.03458 0.0
O440 O 0.4137 0.55078 0.0186 0.0
C441 C 0.3464 0.54548 0.09287 0.0
Co442 Co 0.43311 0.88115 0.26686 0.0
Co443 Co 0.42364 0.826 0.26791 0.0
C444 C 0.38493 0.862 0.28725 0.0
O445 O 0.39845 0.8798 0.27991 0.0
O446 O 0.39261 0.84077 0.28372 0.0
C447 C 0.4392 0.93197 0.23759 0.0
O448 O 0.42121 0.9301 0.2083 0.0
C449 C 0.40411 0.78102 0.23171 0.0
C450 C 0.43175 0.75588 0.25543 0.0
C451 C 0.41138 0.75758 0.22829 0.0
N452 N 0.41981 0.79271 0.25892 0.0
N453 N 0.43588 0.77742 0.27405 0.0
C454 C 0.38446 0.79272 0.20489 0.0
H455 H 0.38712 0.81222 0.20371 0.0
H456 H 0.38337 0.78549 0.16848 0.0
H457 H 0.36737 0.78891 0.22285 0.0
C458 C 0.45271 0.86883 0.17236 0.0
N459 N 0.44155 0.863 0.21285 0.0
N460 N 0.43774 0.83992 0.21332 0.0
C461 C 0.44649 0.83042 0.17315 0.0
C462 C 0.456 0.84845 0.14593 0.0
C463 C 0.46212 0.89297 0.16096 0.0
H464 H 0.47105 0.90056 0.19238 0.0
H465 H 0.44717 0.90464 0.15068 0.0
H466 H 0.47502 0.89241 0.13137 0.0
O467 O 0.44981 0.86873 0.3227 0.0
O468 O 0.4449 0.82975 0.32286 0.0
H469 H 0.45339 0.79409 0.19045 0.0
H470 H 0.45608 0.80064 0.12834 0.0
C471 C 0.44594 0.8046 0.16091 0.0
H472 H 0.42735 0.79911 0.15484 0.0
H473 H 0.45053 0.78201 0.29465 0.0
O474 O 0.44531 0.91428 0.26262 0.0
C475 C 0.45355 0.84848 0.34096 0.0
Co476 Co 0.12142 0.9343 0.51934 0.0
Co477 Co 0.17632 0.92347 0.52133 0.0
C478 C 0.13839 0.88651 0.54454 0.0
O479 O 0.12073 0.90005 0.53609 0.0
O480 O 0.15969 0.89382 0.5399 0.0
C481 C 0.06952 0.94114 0.49861 0.0
O482 O 0.06779 0.91902 0.48441 0.0
C483 C 0.21809 0.9018 0.47743 0.0
C484 C 0.24755 0.91817 0.51729 0.0
C485 C 0.24261 0.90298 0.48015 0.0
N486 N 0.20891 0.91594 0.511 0.0
N487 N 0.22662 0.92547 0.53507 0.0
C488 C 0.20356 0.88679 0.44482 0.0
H489 H 0.18436 0.89068 0.44904 0.0
H490 H 0.20893 0.88974 0.40763 0.0
H491 H 0.20684 0.86781 0.45298 0.0
C492 C 0.13381 0.95004 0.42283 0.0
N493 N 0.1397 0.9401 0.46445 0.0
N494 N 0.1629 0.93742 0.46639 0.0
C495 C 0.17258 0.94653 0.42674 0.0
C496 C 0.15444 0.95439 0.39766 0.0
C497 C 0.10913 0.95722 0.40951 0.0
H498 H 0.10281 0.97105 0.43434 0.0
H499 H 0.09718 0.94167 0.41261 0.0
H500 H 0.10825 0.96434 0.37303 0.0
O501 O 0.13527 0.95191 0.57314 0.0
O502 O 0.17417 0.94583 0.57452 0.0
H503 H 0.20841 0.95127 0.45139 0.0
H504 H 0.20268 0.96394 0.39409 0.0
C505 C 0.19868 0.94881 0.41775 0.0
H506 H 0.20512 0.93256 0.39999 0.0
H507 H 0.22442 0.93738 0.56289 0.0
O508 O 0.08939 0.94902 0.51294 0.0
C509 C 0.15561 0.95552 0.59134 0.0
Co510 Co 0.06244 0.62275 0.76915 0.0
Co511 Co 0.07902 0.67623 0.77307 0.0
C512 C 0.11238 0.6358 0.79454 0.0
O513 O 0.09648 0.62001 0.78775 0.0
O514 O 0.10792 0.65779 0.78882 0.0
C515 C 0.05342 0.57134 0.77443 0.0
O516 O 0.07288 0.56978 0.79982 0.0
C517 C 0.10286 0.71859 0.7354 0.0
C518 C 0.08415 0.74734 0.77304 0.0
C519 C 0.10101 0.74305 0.73855 0.0
N520 N 0.08749 0.70884 0.7661 0.0
N521 N 0.07666 0.72614 0.78908 0.0
C522 C 0.11923 0.70462 0.70445 0.0
H523 H 0.11321 0.68592 0.70178 0.0
H524 H 0.12051 0.71267 0.66881 0.0
H525 H 0.13726 0.70486 0.72024 0.0
C526 C 0.04686 0.63756 0.6747 0.0
N527 N 0.05814 0.64215 0.71556 0.0
N528 N 0.0639 0.66476 0.71721 0.0
C529 C 0.05606 0.6754 0.67736 0.0
C530 C 0.04524 0.65844 0.64904 0.0
C531 C 0.03553 0.61421 0.66337 0.0
H532 H 0.02205 0.61009 0.69071 0.0
H533 H 0.0492 0.60004 0.6643 0.0
H534 H 0.02665 0.61423 0.62846 0.0
O535 O 0.04473 0.6365 0.82215 0.0
O536 O 0.05702 0.67389 0.82756 0.0
H537 H 0.05519 0.71194 0.69869 0.0
H538 H 0.04695 0.70727 0.63789 0.0
C539 C 0.0588 0.70127 0.66664 0.0
H540 H 0.07719 0.70457 0.65476 0.0
H541 H 0.06349 0.72349 0.81444 0.0
O542 O 0.04715 0.59137 0.75809 0.0
C543 C 0.04432 0.6567 0.84209 0.0
H544 H 0.94932 0.96909 0.06744 0.0
H545 H 0.96059 0.95475 0.91928 0.0
H546 H 0.98297 0.99639 0.06714 0.0
H547 H 0.99419 0.98236 0.91897 0.0
H548 H 0.03287 0.05595 0.93147 0.0
H549 H 0.99964 0.02784 0.93084 0.0
H550 H 0.02791 0.99376 0.05524 0.0
H551 H 0.06111 0.02152 0.05571 0.0
C552 C 0.95909 0.97165 0.03488 0.0
C553 C 0.95237 0.95968 0.99343 0.0
C554 C 0.97836 0.98726 0.03475 0.0
C555 C 0.99112 0.99157 0.99299 0.0
C556 C 0.98453 0.97951 0.95156 0.0
C557 C 0.96546 0.96354 0.95187 0.0
C558 C 0.0319 0.04254 0.95879 0.0
C559 C 0.04959 0.041 0.99368 0.0
C560 C 0.01301 0.02635 0.95819 0.0
C561 C 0.01125 0.0086 0.99294 0.0
C562 C 0.02874 0.00732 0.02817 0.0
C563 C 0.04778 0.0232 0.02833 0.0
H564 H 0.9442 0.52993 0.198 0.0
H565 H 0.98789 0.56338 0.30433 0.0
H566 H 0.9716 0.49636 0.19571 0.0
H567 H 0.01484 0.52976 0.30277 0.0
H568 H 0.07119 0.47703 0.25781 0.0
H569 H 0.04426 0.51091 0.25373 0.0
H570 H 0.98451 0.46319 0.24292 0.0
H571 H 0.01134 0.42947 0.24577 0.0
C572 C 0.95952 0.53006 0.22114 0.0
C573 C 0.96379 0.54936 0.25137 0.0
C574 C 0.97521 0.51079 0.2199 0.0
C575 C 0.99554 0.51038 0.24889 0.0
C576 C 0.99965 0.52963 0.27932 0.0
C577 C 0.98402 0.54885 0.28051 0.0
C578 C 0.05233 0.47379 0.25422 0.0
C579 C 0.04347 0.45052 0.25237 0.0
C580 C 0.03686 0.49321 0.25218 0.0
C581 C 0.01216 0.4898 0.24831 0.0
C582 C 0.0034 0.46652 0.24539 0.0
C583 C 0.01884 0.44714 0.24733 0.0
H584 H 0.5577 0.52326 0.55874 0.0
H585 H 0.53588 0.554 0.4259 0.0
H586 H 0.52332 0.49681 0.55689 0.0
H587 H 0.5017 0.52699 0.42362 0.0
H588 H 0.46255 0.45188 0.4204 0.0
H589 H 0.49681 0.47882 0.42058 0.0
H590 H 0.47637 0.50456 0.55814 0.0
H591 H 0.44191 0.4782 0.55762 0.0
C592 C 0.54557 0.52434 0.52912 0.0
C593 C 0.54942 0.54077 0.49256 0.0
C594 C 0.52591 0.50923 0.52814 0.0
C595 C 0.50996 0.50985 0.49006 0.0
C596 C 0.51385 0.52611 0.45324 0.0
C597 C 0.53327 0.54164 0.45474 0.0
C598 C 0.46544 0.46324 0.4507 0.0
C599 C 0.44959 0.4629 0.48903 0.0
C600 C 0.48491 0.47874 0.45063 0.0
C601 C 0.48915 0.49374 0.48936 0.0
C602 C 0.47351 0.49312 0.52793 0.0
C603 C 0.4538 0.47807 0.52755 0.0
H604 H 0.55698 0.97244 0.68322 0.0
H605 H 0.51907 0.94035 0.79945 0.0
H606 H 0.52736 0.00432 0.68025 0.0
H607 H 0.48982 0.97222 0.79673 0.0
H608 H 0.4628 0.05021 0.811 0.0
H609 H 0.49082 0.01719 0.81227 0.0
H610 H 0.48171 0.0079 0.66205 0.0
H611 H 0.45329 0.04087 0.66079 0.0
C612 C 0.54247 0.97229 0.7083 0.0
C613 C 0.54041 0.95393 0.74165 0.0
C614 C 0.52543 0.99038 0.7063 0.0
C615 C 0.50628 0.99066 0.73818 0.0
C616 C 0.50444 0.97248 0.77186 0.0
C617 C 0.52118 0.95424 0.77333 0.0
C618 C 0.46653 0.04094 0.77833 0.0
C619 C 0.45576 0.04804 0.73584 0.0
C620 C 0.48257 0.02204 0.77908 0.0
C621 C 0.48852 0.0101 0.73722 0.0
C622 C 0.47755 0.01696 0.69475 0.0
C623 C 0.46112 0.03563 0.69414 0.0
H624 H 0.02485 0.93235 0.46358 0.0
H625 H 0.06727 0.98693 0.52951 0.0
H626 H 0.99117 0.9596 0.46041 0.0
H627 H 0.03361 0.01381 0.52754 0.0
H628 H 0.9758 0.06423 0.4793 0.0
H629 H 0.00938 0.03695 0.4757 0.0
H630 H 0.96289 0.97863 0.51105 0.0
H631 H 0.92933 0.0057 0.5133 0.0
C632 C 0.02698 0.95009 0.47758 0.0
C633 C 0.04878 0.95739 0.49684 0.0
C634 C 0.00763 0.96572 0.47595 0.0
C635 C 0.00962 0.98899 0.49366 0.0
C636 C 0.03148 0.99622 0.51281 0.0
C637 C 0.05078 0.98067 0.51429 0.0
C638 C 0.97274 0.04558 0.48609 0.0
C639 C 0.94986 0.03722 0.49679 0.0
C640 C 0.99203 0.02992 0.48429 0.0
C641 C 0.98893 0.00553 0.49328 0.0
C642 C 0.96596 0.99719 0.50331 0.0
C643 C 0.94669 0.0128 0.50495 0.0
H644 H 0.94627 0.4665 0.69064 0.0
H645 H 0.97437 0.44189 0.8239 0.0
H646 H 0.97326 0.50036 0.69306 0.0
H647 H 0.0007 0.47598 0.82714 0.0
H648 H 0.06236 0.52505 0.79796 0.0
H649 H 0.03558 0.49126 0.79142 0.0
H650 H 0.98161 0.53686 0.73195 0.0
H651 H 0.00867 0.57039 0.73694 0.0
C652 C 0.95795 0.46849 0.72077 0.0
C653 C 0.95818 0.45144 0.75699 0.0
C654 C 0.97343 0.48794 0.72223 0.0
C655 C 0.98939 0.49088 0.76011 0.0
C656 C 0.98912 0.47408 0.79685 0.0
C657 C 0.97381 0.4546 0.79522 0.0
C658 C 0.04485 0.52782 0.78318 0.0
C659 C 0.03768 0.55046 0.76812 0.0
C660 C 0.02937 0.50847 0.77976 0.0
C661 C 0.00626 0.51129 0.76157 0.0
C662 C 0.99931 0.53388 0.74567 0.0
C663 C 0.01484 0.55319 0.74875 0.0
H664 H 0.55838 0.47745 0.06596 0.0
H665 H 0.53916 0.45051 0.92833 0.0
H666 H 0.52462 0.50448 0.0637 0.0
H667 H 0.50529 0.47774 0.92612 0.0
H668 H 0.46419 0.54955 0.92134 0.0
H669 H 0.49842 0.52273 0.92276 0.0
H670 H 0.48005 0.50119 0.06443 0.0
H671 H 0.44595 0.52777 0.06308 0.0
C672 C 0.54688 0.47721 0.0353 0.0
C673 C 0.5514 0.46175 -0.00261 0.0
C674 C 0.52751 0.49267 0.03408 0.0
C675 C 0.51237 0.49328 0.99468 0.0
C676 C 0.51682 0.47781 0.95675 0.0
C677 C 0.53605 0.46207 0.95823 0.0
C678 C 0.46761 0.53925 0.95291 0.0
C679 C 0.45239 0.54083 0.99213 0.0
C680 C 0.48706 0.52374 0.95354 0.0
C681 C 0.49185 0.50982 0.99366 0.0
C682 C 0.47689 0.51179 0.03314 0.0
C683 C 0.45733 0.52699 0.03228 0.0
H684 H 0.44518 0.96478 0.16705 0.0
H685 H 0.46824 0.94703 0.3082 0.0
H686 H 0.47326 0.99805 0.16573 0.0
H687 H 0.49591 0.98035 0.30703 0.0
H688 H 0.521 0.05871 0.3027 0.0
H689 H 0.49267 0.02598 0.30281 0.0
H690 H 0.51992 0.00213 0.16855 0.0
H691 H 0.54867 0.03484 0.16861 0.0
C692 C 0.45599 0.96817 0.19796 0.0
C693 C 0.45445 0.95336 0.23779 0.0
C694 C 0.4722 0.98704 0.19701 0.0
C695 C 0.48679 0.9917 0.23623 0.0
C696 C 0.48481 0.97722 0.2764 0.0
C697 C 0.46898 0.95815 0.27702 0.0
C698 C 0.52107 0.04643 0.27327 0.0
C699 C 0.53715 0.0493 0.23572 0.0
C700 C 0.50485 0.02769 0.27341 0.0
C701 C 0.50405 0.01159 0.23563 0.0
C702 C 0.52006 0.01443 0.19794 0.0
C703 C 0.53662 0.03299 0.19819 0.0
H704 H 0.17499 0.99692 0.37876 0.0
H705 H 0.13814 0.93841 0.31368 0.0
H706 H 0.17726 0.01709 0.30233 0.0
H707 H 0.14039 0.9584 0.237 0.0
H708 H 0.12075 0.01686 0.13 0.0
H709 H 0.12213 0.99399 0.20259 0.0
H710 H 0.19549 0.01395 0.2225 0.0
H711 H 0.1941 0.03728 0.14972 0.0
C712 C 0.16772 0.98829 0.34777 0.0
C713 C 0.15656 0.96616 0.35153 0.0
C714 C 0.16906 0.99974 0.30414 0.0
C715 C 0.15906 0.98928 0.26371 0.0
C716 C 0.14808 0.96696 0.26764 0.0
C717 C 0.14682 0.95552 0.31126 0.0
C718 C 0.13726 0.01632 0.1496 0.0
C719 C 0.1573 0.02902 0.13419 0.0
C720 C 0.13807 0.00305 0.19107 0.0
C721 C 0.15891 0.0022 0.21819 0.0
C722 C 0.17912 0.0145 0.20244 0.0
C723 C 0.17836 0.02773 0.16069 0.0
H724 H 0.05428 0.6343 0.56858 0.0
H725 H 0.0098 0.68938 0.62614 0.0
H726 H 0.03348 0.63706 0.49369 0.0
H727 H 0.99055 0.69426 0.54972 0.0
H728 H 0.9406 0.67453 0.4279 0.0
H729 H 0.96315 0.67712 0.50113 0.0
H730 H 0.02693 0.65722 0.42537 0.0
H731 H 0.00362 0.65265 0.35351 0.0
C732 C 0.04032 0.64738 0.56464 0.0
C733 C 0.03372 0.66174 0.60274 0.0
C734 C 0.02858 0.64929 0.52147 0.0
C735 C 0.01032 0.66607 0.51506 0.0
C736 C 0.00422 0.68089 0.55322 0.0
C737 C 0.01554 0.67845 0.59683 0.0
C738 C 0.95952 0.67106 0.42719 0.0
C739 C 0.97049 0.66329 0.38565 0.0
C740 C 0.97255 0.67264 0.46904 0.0
C741 C 0.99696 0.66707 0.46968 0.0
C742 C 0.00809 0.66087 0.42688 0.0
C743 C 0.99487 0.65855 0.38551 0.0
H744 H 0.31894 0.44537 0.67105 0.0
H745 H 0.36173 0.49987 0.60632 0.0
H746 H 0.31899 0.46737 0.74508 0.0
H747 H 0.36035 0.52293 0.67882 0.0
H748 H 0.38034 0.54366 0.82717 0.0
H749 H 0.3774 0.52295 0.75231 0.0
H750 H 0.30671 0.49928 0.78958 0.0
H751 H 0.31095 0.518 0.86656 0.0
C752 C 0.32781 0.46241 0.67249 0.0
C753 C 0.34051 0.4709 0.63345 0.0
C754 C 0.32778 0.47513 0.71481 0.0
C755 C 0.33995 0.49689 0.71838 0.0
C756 C 0.35145 0.50592 0.67808 0.0
C757 C 0.35205 0.49287 0.63632 0.0
C758 C 0.36433 0.53376 0.81946 0.0
C759 C 0.34587 0.53247 0.8525 0.0
C760 C 0.3624 0.52221 0.77614 0.0
C761 C 0.34168 0.50955 0.76435 0.0
C762 C 0.32306 0.50857 0.79743 0.0
C763 C 0.32529 0.51963 0.84129 0.0
H764 H 0.49552 0.82308 0.12408 0.0
H765 H 0.44284 0.86986 0.06466 0.0
H766 H 0.51601 0.82154 0.0479 0.0
H767 H 0.46289 0.8681 0.98816 0.0
H768 H 0.52232 0.88474 0.8837 0.0
H769 H 0.49969 0.88307 0.95635 0.0
H770 H 0.51263 0.80768 0.96604 0.0
H771 H 0.53595 0.80939 0.89329 0.0
C772 C 0.48821 0.83271 0.09433 0.0
C773 C 0.4677 0.84652 0.09968 0.0
C774 C 0.49981 0.83178 0.0508 0.0
C775 C 0.49107 0.84472 0.01205 0.0
C776 C 0.47023 0.85819 0.0175 0.0
C777 C 0.45872 0.85916 0.06104 0.0
C778 C 0.52031 0.86773 0.90105 0.0
C779 C 0.53103 0.84719 0.88271 0.0
C780 C 0.50716 0.86677 0.94261 0.0
C781 C 0.5043 0.84524 0.96685 0.0
C782 C 0.51473 0.82458 0.94832 0.0
C783 C 0.52797 0.82554 0.90657 0.0
H784 H 0.8192 0.05646 0.67243 0.0
H785 H 0.86391 0.00242 0.61142 0.0
H786 H 0.81995 0.03567 0.74793 0.0
H787 H 0.86333 0.98059 0.68544 0.0
H788 H 0.88282 0.96146 0.83411 0.0
H789 H 0.8801 0.98227 0.75931 0.0
H790 H 0.80834 0.00371 0.79355 0.0
H791 H 0.81225 0.98488 0.87057 0.0
C792 C 0.82868 0.03979 0.67503 0.0
C793 C 0.84166 0.03107 0.63654 0.0
C794 C 0.82907 0.02778 0.71819 0.0
C795 C 0.84198 0.00652 0.7232 0.0
C796 C 0.85385 0.99726 0.68356 0.0
C797 C 0.85399 0.0096 0.64094 0.0
C798 C 0.86665 0.97098 0.82588 0.0
C799 C 0.84772 0.97149 0.85795 0.0
C800 C 0.86485 0.98256 0.78255 0.0
C801 C 0.84384 0.99446 0.76979 0.0
C802 C 0.82488 0.99495 0.80214 0.0
C803 C 0.82695 0.98384 0.84601 0.0
H804 H 0.0025 0.34087 0.85314 0.0
H805 H 0.93748 0.33307 0.93171 0.0
H806 H 0.02542 0.33706 0.92602 0.0
H807 H 0.95993 0.3309 0.0052 0.0
H808 H 0.00552 0.31506 0.13048 0.0
H809 H 0.98525 0.31046 0.05498 0.0
H810 H 0.03461 0.35993 0.99143 0.0
H811 H 0.05594 0.36263 0.06605 0.0
C812 C 0.99324 0.33812 0.88624 0.0
C813 C 0.96843 0.33704 0.88737 0.0
C814 C 0.00625 0.33624 0.92803 0.0
C815 C 0.99459 0.33395 0.97181 0.0
C816 C 0.96963 0.33223 0.97231 0.0
C817 C 0.9567 0.33358 0.93035 0.0
C818 C 0.01231 0.32439 0.09988 0.0
C819 C 0.03241 0.33892 0.10359 0.0
C820 C 1.0005 0.32209 0.05678 0.0
C821 C 0.0082 0.33482 0.01683 0.0
C822 C 0.0284 0.3494 0.02092 0.0
C823 C 0.04048 0.35125 0.06378 0.0
H824 H 0.64339 0.49608 0.39324 0.0
H825 H 0.68258 0.55303 0.32779 0.0
H826 H 0.6464 0.47287 0.32062 0.0
H827 H 0.68595 0.52961 0.25499 0.0
H828 H 0.69829 0.46884 0.14342 0.0
H829 H 0.70207 0.48911 0.21996 0.0
H830 H 0.62649 0.48251 0.24132 0.0
H831 H 0.62259 0.46269 0.16574 0.0
C832 C 0.65277 0.50351 0.36329 0.0
C833 C 0.66223 0.52648 0.36536 0.0
C834 C 0.6546 0.49024 0.32198 0.0
C835 C 0.66618 0.49961 0.28221 0.0
C836 C 0.67702 0.52199 0.28529 0.0
C837 C 0.67502 0.53538 0.32668 0.0
C838 C 0.68255 0.4717 0.16465 0.0
C839 C 0.66015 0.46425 0.14853 0.0
C840 C 0.68472 0.48331 0.2082 0.0
C841 C 0.66459 0.48713 0.2365 0.0
C842 C 0.64233 0.47948 0.22046 0.0
C843 C 0.6401 0.4683 0.17694 0.0
H844 H 0.55581 0.17892 0.41611 0.0
H845 H 0.50061 0.13693 0.35166 0.0
H846 H 0.53407 0.17883 0.49049 0.0
H847 H 0.4778 0.13831 0.42448 0.0
H848 H 0.45613 0.11891 0.57233 0.0
H849 H 0.47725 0.12136 0.49781 0.0
H850 H 0.50269 0.19127 0.53579 0.0
H851 H 0.48363 0.18743 0.61246 0.0
C852 C 0.53866 0.17024 0.41768 0.0
C853 C 0.52989 0.15779 0.37857 0.0
C854 C 0.52609 0.17023 0.46023 0.0
C855 C 0.50419 0.15828 0.46401 0.0
C856 C 0.49491 0.14702 0.42365 0.0
C857 C 0.50781 0.14645 0.38167 0.0
C858 C 0.46654 0.13462 0.5649 0.0
C859 C 0.46814 0.15301 0.59802 0.0
C860 C 0.47832 0.13629 0.52173 0.0
C861 C 0.49154 0.15668 0.51012 0.0
C862 C 0.49296 0.17517 0.5434 0.0
C863 C 0.48167 0.17318 0.58712 0.0
H864 H 0.68954 0.49224 0.87741 0.0
H865 H 0.62423 0.45838 0.83539 0.0
H866 H 0.69224 0.51136 0.80045 0.0
H867 H 0.62518 0.47946 0.76081 0.0
H868 H 0.63914 0.50415 0.61485 0.0
H869 H 0.64183 0.48178 0.68805 0.0
H870 H 0.67773 0.54112 0.754 0.0
H871 H 0.67675 0.56241 0.67913 0.0
C872 C 0.67582 0.48884 0.85149 0.0
C873 C 0.65695 0.47349 0.86182 0.0
C874 C 0.67706 0.50017 0.80766 0.0
C875 C 0.65899 0.49699 0.77383 0.0
C876 C 0.63985 0.48193 0.785 0.0
C877 C 0.63903 0.4701 0.82817 0.0
C878 C 0.64785 0.51217 0.64502 0.0
C879 C 0.65769 0.53491 0.64171 0.0
C880 C 0.64919 0.4995 0.68722 0.0
C881 C 0.65964 0.50968 0.72764 0.0
C882 C 0.66987 0.53242 0.72375 0.0
C883 C 0.6692 0.54476 0.68096 0.0
H884 H 0.50706 0.18184 0.11921 0.0
H885 H 0.55921 0.13429 0.0605 0.0
H886 H 0.4868 0.18365 0.04272 0.0
H887 H 0.53946 0.13638 0.98373 0.0
H888 H 0.4789 0.11793 0.88326 0.0
H889 H 0.50231 0.12088 0.95463 0.0
H890 H 0.48947 0.1964 0.95954 0.0
H891 H 0.46534 0.19341 0.88787 0.0
C892 C 0.51438 0.17219 0.08949 0.0
C893 C 0.53456 0.15795 0.09519 0.0
C894 C 0.5029 0.17328 0.04579 0.0
C895 C 0.51148 0.16007 0.00729 0.0
C896 C 0.53223 0.14648 0.01292 0.0
C897 C 0.54358 0.14533 0.0566 0.0
C898 C 0.48108 0.13525 0.89924 0.0
C899 C 0.47014 0.15544 0.87988 0.0
C900 C 0.49472 0.13695 0.94005 0.0
C901 C 0.49787 0.15889 0.96257 0.0
C902 C 0.48721 0.17922 0.94306 0.0
C903 C 0.47349 0.17752 0.90197 0.0
H904 H 0.81595 0.05105 0.32264 0.0
H905 H 0.8576 0.9957 0.38761 0.0
H906 H 0.8138 0.02773 0.24947 0.0
H907 H 0.85573 0.97262 0.3148 0.0
H908 H 0.88057 0.96357 0.16107 0.0
H909 H 0.8755 0.98352 0.2362 0.0
H910 H 0.79976 0.98659 0.21365 0.0
H911 H 0.80474 0.96624 0.13752 0.0
C912 C 0.82429 0.03375 0.32136 0.0
C913 C 0.83743 0.02531 0.35998 0.0
C914 C 0.82299 0.02043 0.27977 0.0
C915 C 0.83489 0.99859 0.27653 0.0
C916 C 0.84675 0.98959 0.31628 0.0
C917 C 0.84793 0.0028 0.35772 0.0
C918 C 0.86278 0.96845 0.17188 0.0
C919 C 0.84303 0.96333 0.14333 0.0
C920 C 0.85989 0.97972 0.21512 0.0
C921 C 0.83723 0.98635 0.23075 0.0
C922 C 0.8174 0.98157 0.2022 0.0
C923 C 0.82026 0.96992 0.15889 0.0
H924 H 0.00489 0.36778 0.36159 0.0
H925 H 0.05593 0.31964 0.42254 0.0
H926 H 0.98281 0.36826 0.43537 0.0
H927 H 0.03514 0.32147 0.49778 0.0
H928 H 0.9837 0.31434 0.61827 0.0
H929 H 0.00302 0.31097 0.54203 0.0
H930 H 0.98328 0.38347 0.51021 0.0
H931 H 0.96166 0.38563 0.58437 0.0
C932 C 0.01137 0.35736 0.39106 0.0
C933 C 0.03199 0.34362 0.38659 0.0
C934 C 0.99892 0.35784 0.43361 0.0
C935 C 0.00725 0.34517 0.47315 0.0
C936 C 0.02782 0.33115 0.46815 0.0
C937 C 0.03987 0.33014 0.42509 0.0
C938 C 0.98307 0.32935 0.59443 0.0
C939 C 0.97084 0.3501 0.60685 0.0
C940 C 0.99456 0.3276 0.55095 0.0
C941 C 0.99477 0.3469 0.51943 0.0
C942 C 0.98307 0.36796 0.53274 0.0
C943 C 0.97101 0.36942 0.57571 0.0
H944 H 0.30618 0.54059 0.14722 0.0
H945 H 0.37898 0.51695 0.135 0.0
H946 H 0.30189 0.51713 0.2196 0.0
H947 H 0.3748 0.49422 0.20687 0.0
H948 H 0.35742 0.44011 0.31502 0.0
H949 H 0.35503 0.4595 0.23795 0.0
H950 H 0.31764 0.51838 0.30149 0.0
H951 H 0.31966 0.49848 0.3784 0.0
C952 C 0.32118 0.53035 0.15976 0.0
C953 C 0.34292 0.5307 0.1354 0.0
C954 C 0.31875 0.51703 0.20122 0.0
C955 C 0.33798 0.50375 0.21872 0.0
C956 C 0.35952 0.50389 0.19388 0.0
C957 C 0.36195 0.51714 0.15277 0.0
C958 C 0.34841 0.45703 0.31206 0.0
C959 C 0.33868 0.46792 0.352 0.0
C960 C 0.3471 0.46816 0.26822 0.0
C961 C 0.3363 0.49054 0.26379 0.0
C962 C 0.32581 0.50103 0.30372 0.0
C963 C 0.32703 0.48977 0.34762 0.0
H964 H 0.46758 0.88512 0.39688 0.0
H965 H 0.47106 0.80871 0.38482 0.0
H966 H 0.48918 0.88317 0.47104 0.0
H967 H 0.4929 0.80691 0.45962 0.0
H968 H 0.5556 0.82336 0.56776 0.0
H969 H 0.5335 0.82142 0.49309 0.0
H970 H 0.47922 0.86656 0.55243 0.0
H971 H 0.501 0.86808 0.6269 0.0
C972 C 0.47303 0.86789 0.40991 0.0
C973 C 0.46752 0.84705 0.38502 0.0
C974 C 0.48528 0.8668 0.45254 0.0
C975 C 0.49248 0.84488 0.47109 0.0
C976 C 0.48753 0.82402 0.44588 0.0
C977 C 0.47498 0.82507 0.40328 0.0
C978 C 0.5388 0.83259 0.56477 0.0
C979 C 0.53014 0.84624 0.60245 0.0
C980 C 0.52619 0.83146 0.52228 0.0
C981 C 0.50487 0.8441 0.51701 0.0
C982 C 0.49585 0.85702 0.55539 0.0
C983 C 0.50831 0.85796 0.59783 0.0
H984 H 0.12039 0.98175 0.63159 0.0
H985 H 0.19456 0.96352 0.64729 0.0
H986 H 0.12209 0.00458 0.70418 0.0
H987 H 0.19626 0.98683 0.71998 0.0
H988 H 0.17743 0.00304 0.8774 0.0
H989 H 0.17944 0.98314 0.80068 0.0
H990 H 0.13961 0.0406 0.73784 0.0
H991 H 0.1376 0.06028 0.81479 0.0
C992 C 0.13714 0.98278 0.65028 0.0
C993 C 0.15732 0.97069 0.63376 0.0
C994 C 0.13813 0.99603 0.69175 0.0
C995 C 0.1593 0.99748 0.71773 0.0
C996 C 0.17964 0.98581 0.70084 0.0
C997 C 0.17868 0.97258 0.65913 0.0
C998 C 0.1695 0.01149 0.84686 0.0
C999 C 0.15756 0.03317 0.85141 0.0
C1000 C 0.17067 0.00019 0.80306 0.0
C1001 C 0.15972 0.01036 0.76328 0.0
C1002 C 0.14803 0.03226 0.76797 0.0
C1003 C 0.14692 0.04354 0.81175 0.0
H1004 H 0.95855 0.61835 0.08026 0.0
H1005 H 0.98282 0.68837 0.11821 0.0
H1006 H 0.97912 0.62143 0.00506 0.0
H1007 H 0.00145 0.69264 0.04117 0.0
H1008 H 0.05501 0.68149 0.92166 0.0
H1009 H 0.03345 0.68093 -0.00377 0.0
H1010 H 0.97832 0.63848 0.93129 0.0
H1011 H 0.00092 0.6377 0.85814 0.0
C1012 C 0.96812 0.63451 0.07216 0.0
C1013 C 0.96901 0.65316 0.10478 0.0
C1014 C 0.9796 0.6365 0.02871 0.0
C1015 C 0.9918 0.65744 0.01648 0.0
C1016 C 0.99251 0.67615 0.04932 0.0
C1017 C 0.98151 0.67388 0.09323 0.0
C1018 C 0.03813 0.67231 0.92346 0.0
C1019 C 0.02965 0.65949 0.88456 0.0
C1020 C 0.02568 0.67202 0.96611 0.0
C1021 C 0.00419 0.65938 0.97023 0.0
C1022 C 0.99514 0.64775 0.93011 0.0
C1023 C 0.00791 0.64751 0.88797 0.0
H1024 H 0.09003 0.25245 0.14277 0.0
H1025 H 0.12458 0.2173 0.25933 0.0
H1026 H 0.10107 0.21965 0.09035 0.0
H1027 H 0.13594 0.18461 0.20686 0.0
H1028 H 0.17022 0.14189 0.08752 0.0
H1029 H 0.16215 0.17831 0.13096 0.0
H1030 H 0.08846 0.17448 0.09013 0.0
H1031 H 0.09632 0.13766 0.04704 0.0
C1032 C 0.10053 0.23798 0.15677 0.0
C1033 C 0.10693 0.2375 0.2047 0.0
C1034 C 0.1066 0.21916 0.12698 0.0
C1035 C 0.11942 0.19972 0.14458 0.0
C1036 C 0.12629 0.19955 0.19233 0.0
C1037 C 0.11981 0.21816 0.22229 0.0
C1038 C 0.15234 0.14892 0.0871 0.0
C1039 C 0.13386 0.13675 0.06399 0.0
C1040 C 0.14774 0.16973 0.11222 0.0
C1041 C 0.12469 0.17906 0.11408 0.0
C1042 C 0.10642 0.16765 0.08904 0.0
C1043 C 0.11092 0.14657 0.06451 0.0
H1044 H 0.84643 0.65991 0.2927 0.0
H1045 H 0.87783 0.59564 0.34789 0.0
H1046 H 0.80989 0.65142 0.33637 0.0
H1047 H 0.84147 0.58748 0.39172 0.0
H1048 H 0.78917 0.60271 0.5132 0.0
H1049 H 0.82302 0.61092 0.46226 0.0
H1050 H 0.7761 0.61848 0.3428 0.0
H1051 H 0.74221 0.60923 0.3931 0.0
C1052 C 0.84543 0.64382 0.31355 0.0
C1053 C 0.86511 0.62853 0.31705 0.0
C1054 C 0.82452 0.63899 0.33844 0.0
C1055 C 0.82305 0.61899 0.36783 0.0
C1056 C 0.8423 0.60319 0.36974 0.0
C1057 C 0.86304 0.60779 0.34434 0.0
C1058 C 0.78596 0.60628 0.47615 0.0
C1059 C 0.76279 0.60571 0.45766 0.0
C1060 C 0.80538 0.61087 0.44699 0.0
C1061 C 0.80213 0.61519 0.39862 0.0
C1062 C 0.77901 0.61538 0.38012 0.0
C1063 C 0.75953 0.61041 0.40924 0.0
H1064 H 0.40892 0.37492 0.57236 0.0
H1065 H 0.33676 0.34985 0.55735 0.0
H1066 H 0.41901 0.33911 0.6161 0.0
H1067 H 0.34697 0.31405 0.60145 0.0
H1068 H 0.38438 0.24335 0.64753 0.0
H1069 H 0.3725 0.27715 0.59913 0.0
H1070 H 0.40774 0.32451 0.69627 0.0
H1071 H 0.4192 0.29083 0.74518 0.0
C1072 C 0.39528 0.36165 0.57775 0.0
C1073 C 0.37196 0.3654 0.56165 0.0
C1074 C 0.40103 0.34122 0.60321 0.0
C1075 C 0.38367 0.32398 0.61288 0.0
C1076 C 0.3607 0.32705 0.59458 0.0
C1077 C 0.35488 0.34759 0.56936 0.0
C1078 C 0.38888 0.26098 0.65953 0.0
C1079 C 0.40231 0.26442 0.70086 0.0
C1080 C 0.38232 0.28034 0.6314 0.0
C1081 C 0.38939 0.30344 0.64366 0.0
C1082 C 0.40237 0.30688 0.68547 0.0
C1083 C 0.40877 0.28761 0.71367 0.0
H1084 H 0.6308 0.90885 0.81849 0.0
H1085 H 0.65112 0.83511 0.8066 0.0
H1086 H 0.66666 0.91684 0.86359 0.0
H1087 H 0.68728 0.84338 0.85176 0.0
H1088 H 0.75991 0.88114 0.89815 0.0
H1089 H 0.72637 0.86948 0.8486 0.0
H1090 H 0.67817 0.90249 0.94705 0.0
H1091 H 0.71146 0.91346 -0.00258 0.0
C1092 C 0.64307 0.89439 0.82474 0.0
C1093 C 0.6379 0.87126 0.80928 0.0
C1094 C 0.66354 0.89898 0.85091 0.0
C1095 C 0.67948 0.88064 0.86179 0.0
C1096 C 0.6752 0.8578 0.84394 0.0
C1097 C 0.6545 0.85311 0.81813 0.0
C1098 C 0.74216 0.88511 0.91028 0.0
C1099 C 0.73837 0.89788 0.95232 0.0
C1100 C 0.72297 0.87868 0.88149 0.0
C1101 C 0.69976 0.88533 0.89378 0.0
C1102 C 0.69594 0.89745 0.9364 0.0
C1103 C 0.715 0.9036 0.96533 0.0
H1104 H 0.93834 0.2359 0.64851 0.0
H1105 H 0.86944 0.23668 0.71489 0.0
H1106 H 0.92586 0.20352 0.59759 0.0
H1107 H 0.85701 0.20337 0.66518 0.0
H1108 H 0.83648 0.15124 0.55061 0.0
H1109 H 0.84742 0.18858 0.58835 0.0
H1110 H 0.91912 0.16278 0.60624 0.0
H1111 H 0.90848 0.12607 0.56721 0.0
C1112 C 0.92046 0.22905 0.65215 0.0
C1113 C 0.90488 0.23861 0.68578 0.0
C1114 C 0.91332 0.21041 0.62313 0.0
C1115 C 0.89054 0.2005 0.62765 0.0
C1116 C 0.87462 0.21067 0.66032 0.0
C1117 C 0.8817 0.22968 0.68896 0.0
C1118 C 0.85468 0.15373 0.56194 0.0
C1119 C 0.87159 0.1356 0.55595 0.0
C1120 C 0.86089 0.17507 0.58396 0.0
C1121 C 0.88412 0.17873 0.60068 0.0
C1122 C 0.90115 0.16085 0.59323 0.0
C1123 C 0.89501 0.13966 0.57093 0.0
H1124 H 0.85574 0.32825 0.83403 0.0
H1125 H 0.86293 0.40278 0.80102 0.0
H1126 H 0.81886 0.33652 0.8762 0.0
H1127 H 0.82558 0.41081 0.8424 0.0
H1128 H 0.74588 0.40891 0.88965 0.0
H1129 H 0.77879 0.39735 0.83757 0.0
H1130 H 0.81381 0.36361 0.95538 0.0
H1131 H 0.78124 0.37579 0.00758 0.0
C1132 C 0.84921 0.34632 0.83484 0.0
C1133 C 0.86234 0.36491 0.81433 0.0
C1134 C 0.82816 0.351 0.85918 0.0
C1135 C 0.81952 0.37426 0.86255 0.0
C1136 C 0.83189 0.39269 0.84001 0.0
C1137 C 0.85326 0.3881 0.8165 0.0
C1138 C 0.76042 0.39859 0.90399 0.0
C1139 C 0.76104 0.39286 0.95223 0.0
C1140 C 0.77924 0.39217 0.87441 0.0
C1141 C 0.7987 0.37956 0.89257 0.0
C1142 C 0.79887 0.37314 0.94054 0.0
C1143 C 0.78032 0.38005 0.9703 0.0
H1144 H 0.61629 0.2404 0.14113 0.0
H1145 H 0.59618 0.2893 0.25167 0.0
H1146 H 0.62706 0.2738 0.09051 0.0
H1147 H 0.60604 0.3225 0.20025 0.0
H1148 H 0.59456 0.37271 0.07742 0.0
H1149 H 0.58642 0.3363 0.12077 0.0
H1150 H 0.65707 0.31102 0.09052 0.0
H1151 H 0.66553 0.3477 0.04729 0.0
C1152 C 0.61483 0.25812 0.15532 0.0
C1153 C 0.60575 0.26209 0.20098 0.0
C1154 C 0.6207 0.27726 0.12595 0.0
C1155 C 0.61709 0.30065 0.14134 0.0
C1156 C 0.60866 0.30461 0.1873 0.0
C1157 C 0.60315 0.28558 0.21678 0.0
C1158 C 0.60827 0.35927 0.07908 0.0
C1159 C 0.6308 0.36328 0.05927 0.0
C1160 C 0.60363 0.33849 0.10425 0.0
C1161 C 0.62127 0.3211 0.10958 0.0
C1162 C 0.64323 0.32424 0.08701 0.0
C1163 C 0.64802 0.34523 0.06231 0.0
H1164 H 0.62408 0.09375 0.33403 0.0
H1165 H 0.65376 0.16075 0.28897 0.0
H1166 H 0.66012 0.08549 0.3789 0.0
H1167 H 0.69006 0.1521 0.33347 0.0
H1168 H 0.75812 0.10825 0.38858 0.0
H1169 H 0.72485 0.1182 0.33716 0.0
H1170 H 0.67652 0.10924 0.45387 0.0
H1171 H 0.70974 0.10049 0.50613 0.0
C1172 C 0.63846 0.10649 0.33282 0.0
C1173 C 0.63597 0.12799 0.30815 0.0
C1174 C 0.65901 0.1018 0.35879 0.0
C1175 C 0.67766 0.1183 0.35996 0.0
C1176 C 0.67587 0.13914 0.33309 0.0
C1177 C 0.6551 0.14406 0.30773 0.0
C1178 C 0.74064 0.1093 0.40399 0.0
C1179 C 0.7368 0.10405 0.45204 0.0
C1180 C 0.72152 0.11467 0.37419 0.0
C1181 C 0.6982 0.11428 0.39157 0.0
C1182 C 0.69436 0.1094 0.43953 0.0
C1183 C 0.71342 0.10448 0.46942 0.0
H1184 H 0.56211 0.73596 0.66758 0.0
H1185 H 0.63584 0.74372 0.70508 0.0
H1186 H 0.57214 0.70396 0.61347 0.0
H1187 H 0.64605 0.71053 0.65328 0.0
H1188 H 0.66073 0.65613 0.54107 0.0
H1189 H 0.65031 0.69376 0.5782 0.0
H1190 H 0.58222 0.66453 0.61826 0.0
H1191 H 0.59215 0.62772 0.57922 0.0
C1192 C 0.58052 0.73066 0.66414 0.0
C1193 C 0.59822 0.74201 0.69059 0.0
C1194 C 0.58631 0.71221 0.63342 0.0
C1195 C 0.60989 0.70418 0.62943 0.0
C1196 C 0.62773 0.71626 0.65486 0.0
C1197 C 0.62194 0.73517 0.68483 0.0
C1198 C 0.64337 0.65797 0.55708 0.0
C1199 C 0.6273 0.63888 0.55722 0.0
C1200 C 0.63746 0.67949 0.5788 0.0
C1201 C 0.61546 0.68231 0.60176 0.0
C1202 C 0.59915 0.66339 0.60035 0.0
C1203 C 0.6049 0.64208 0.57804 0.0
H1204 H 0.36056 0.09713 0.79132 0.0
H1205 H 0.35606 0.17098 0.83143 0.0
H1206 H 0.32355 0.08922 0.83371 0.0
H1207 H 0.31938 0.16285 0.87431 0.0
H1208 H 0.28091 0.12437 0.0031 0.0
H1209 H 0.31318 0.13653 0.95028 0.0
H1210 H 0.27827 0.10148 0.83387 0.0
H1211 H 0.24587 0.08964 0.88667 0.0
C1212 C 0.35153 0.11172 0.80854 0.0
C1213 C 0.36135 0.13465 0.80817 0.0
C1214 C 0.33033 0.1072 0.83266 0.0
C1215 C 0.31876 0.12542 0.85748 0.0
C1216 C 0.32807 0.14848 0.85569 0.0
C1217 C 0.34901 0.15311 0.83091 0.0
C1218 C 0.27996 0.11976 0.96601 0.0
C1219 C 0.26079 0.10654 0.9486 0.0
C1220 C 0.29833 0.12671 0.93583 0.0
C1221 C 0.29811 0.12 0.88801 0.0
C1222 C 0.27879 0.10693 0.87054 0.0
C1223 C 0.26019 0.10039 0.90056 0.0
H1224 H 0.83542 0.84693 0.04938 0.0
H1225 H 0.90855 0.86876 0.06544 0.0
H1226 H 0.84463 0.80921 0.08744 0.0
H1227 H 0.91749 0.83167 0.10467 0.0
H1228 H 0.93346 0.7589 0.15135 0.0
H1229 H 0.9221 0.79045 0.09726 0.0
H1230 H 0.85356 0.79507 0.1655 0.0
H1231 H 0.86482 0.76248 0.21834 0.0
C1232 C 0.85351 0.84361 0.06049 0.0
C1233 C 0.87122 0.86097 0.0545 0.0
C1234 C 0.85873 0.82205 0.08271 0.0
C1235 C 0.88176 0.8174 0.0995 0.0
C1236 C 0.89963 0.83439 0.09165 0.0
C1237 C 0.89446 0.85582 0.06924 0.0
C1238 C 0.91586 0.76652 0.15432 0.0
C1239 C 0.90007 0.75861 0.18922 0.0
C1240 C 0.90937 0.78467 0.12352 0.0
C1241 C 0.88709 0.79568 0.12752 0.0
C1242 C 0.87082 0.78691 0.16115 0.0
C1243 C 0.87724 0.76837 0.19159 0.0
H1244 H 0.25342 0.41225 0.39045 0.0
H1245 H 0.221 0.37136 0.50186 0.0
H1246 H 0.22044 0.40217 0.33752 0.0
H1247 H 0.1882 0.36092 0.44884 0.0
H1248 H 0.1459 0.32965 0.32649 0.0
H1249 H 0.1826 0.33776 0.36883 0.0
H1250 H 0.17434 0.41256 0.34127 0.0
H1251 H 0.13714 0.40464 0.29927 0.0
C1252 C 0.23954 0.40058 0.4031 0.0
C1253 C 0.23986 0.39211 0.44975 0.0
C1254 C 0.2206 0.39506 0.37307 0.0
C1255 C 0.2019 0.38071 0.38911 0.0
C1256 C 0.20257 0.3718 0.43548 0.0
C1257 C 0.22125 0.37772 0.46575 0.0
C1258 C 0.15197 0.34784 0.32871 0.0
C1259 C 0.13839 0.36655 0.30975 0.0
C1260 C 0.17297 0.35243 0.35319 0.0
C1261 C 0.18114 0.37575 0.35858 0.0
C1262 C 0.1684 0.39438 0.33743 0.0
C1263 C 0.14711 0.38985 0.31349 0.0
H1264 H 0.36664 0.73962 0.21674 0.0
H1265 H 0.43818 0.73505 0.16353 0.0
H1266 H 0.35489 0.70661 0.16556 0.0
H1267 H 0.42645 0.70325 0.11044 0.0
H1268 H 0.40766 0.62694 0.07685 0.0
H1269 H 0.41786 0.66328 0.11712 0.0
H1270 H 0.34766 0.69101 0.08925 0.0
H1271 H 0.33702 0.65379 0.05054 0.0
C1272 C 0.37968 0.73178 0.19336 0.0
C1273 C 0.40334 0.73945 0.19443 0.0
C1274 C 0.37298 0.71301 0.16378 0.0
C1275 C 0.3898 0.70192 0.13419 0.0
C1276 C 0.41316 0.71075 0.13367 0.0
C1277 C 0.4199 0.72906 0.16388 0.0
C1278 C 0.39442 0.64085 0.07866 0.0
C1279 C 0.37147 0.63734 0.06056 0.0
C1280 C 0.40034 0.66188 0.10165 0.0
C1281 C 0.38362 0.68026 0.10659 0.0
C1282 C 0.36089 0.67714 0.08686 0.0
C1283 C 0.35484 0.65587 0.06427 0.0
H1284 H 0.24502 0.91021 0.38529 0.0
H1285 H 0.28081 0.87574 0.50119 0.0
H1286 H 0.27716 0.8984 0.33187 0.0
H1287 H 0.31284 0.86367 0.44779 0.0
H1288 H 0.35592 0.82964 0.32992 0.0
H1289 H 0.31907 0.83739 0.37239 0.0
H1290 H 0.32214 0.91088 0.33036 0.0
H1291 H 0.3593 0.90336 0.28828 0.0
C1292 C 0.25944 0.89951 0.39894 0.0
C1293 C 0.26033 0.89342 0.44701 0.0
C1294 C 0.27789 0.893 0.36857 0.0
C1295 C 0.29736 0.88003 0.38571 0.0
C1296 C 0.29787 0.87339 0.43357 0.0
C1297 C 0.27964 0.8803 0.46409 0.0
C1298 C 0.34858 0.84739 0.32893 0.0
C1299 C 0.36069 0.86595 0.30599 0.0
C1300 C 0.32753 0.8518 0.35348 0.0
C1301 C 0.31791 0.87473 0.35488 0.0
C1302 C 0.32917 0.893 0.32963 0.0
C1303 C 0.35046 0.8887 0.30569 0.0
H1304 H 0.0968 0.86112 0.54936 0.0
H1305 H 0.17107 0.85809 0.58758 0.0
H1306 H 0.08994 0.82402 0.59233 0.0
H1307 H 0.16398 0.82143 0.63093 0.0
H1308 H 0.12745 0.78173 0.76032 0.0
H1309 H 0.13813 0.81461 0.7077 0.0
H1310 H 0.10381 0.77887 0.59144 0.0
H1311 H 0.09355 0.74584 0.64396 0.0
C1312 C 0.11168 0.85243 0.56633 0.0
C1313 C 0.13444 0.86266 0.56518 0.0
C1314 C 0.10776 0.83119 0.59078 0.0
C1315 C 0.12643 0.82004 0.61513 0.0
C1316 C 0.14928 0.8298 0.61271 0.0
C1317 C 0.1533 0.85075 0.58765 0.0
C1318 C 0.12274 0.78073 0.72326 0.0
C1319 C 0.11019 0.76115 0.7058 0.0
C1320 C 0.12879 0.79947 0.69324 0.0
C1321 C 0.1218 0.79919 0.64556 0.0
C1322 C 0.10942 0.77945 0.62802 0.0
C1323 C 0.1038 0.7605 0.65787 0.0
H1324 H 0.21026 0.58512 0.00214 0.0
H1325 H 0.25781 0.61752 0.90135 0.0
H1326 H 0.17652 0.59579 0.95265 0.0
H1327 H 0.22397 0.62855 0.85224 0.0
H1328 H 0.1517 0.6637 0.80705 0.0
H1329 H 0.18743 0.65416 0.85194 0.0
H1330 H 0.16136 0.58302 0.87412 0.0
H1331 H 0.12555 0.59249 0.82961 0.0
C1332 C 0.21349 0.59487 0.96979 0.0
C1333 C 0.23673 0.60083 0.95624 0.0
C1334 C 0.19418 0.60079 0.94124 0.0
C1335 C 0.19762 0.61279 0.89831 0.0
C1336 C 0.22077 0.61946 0.88533 0.0
C1337 C 0.24016 0.61339 0.91386 0.0
C1338 C 0.15371 0.64591 0.82092 0.0
C1339 C 0.13562 0.62892 0.81502 0.0
C1340 C 0.17422 0.64046 0.84657 0.0
C1341 C 0.17702 0.61797 0.86718 0.0
C1342 C 0.15948 0.60066 0.85942 0.0
C1343 C 0.13905 0.60603 0.83349 0.0
loop_
_geom_bond_atom_site_label_1
_geom_bond_atom_site_label_2
_geom_bond_distance
_geom_bond_site_symmetry_2
_ccdc_geom_bond_type
Co0 O3 1.970 . S
Co0 N17 1.989 1_554 S
Co0 O25 1.967 . S
Co0 O32 1.920 . S
Co1 O4 1.966 . S
Co1 N10 2.022 . S
Co1 N18 1.993 1_554 S
Co1 O26 1.941 . S
C2 O3 1.258 . S
C2 O4 1.263 . S
O3 Co0 1.970 . S
O3 C2 1.258 . S
O4 Co1 1.966 . S
O4 C2 1.263 . S
C5 O6 1.235 1_554 S
C5 O32 1.289 . S
O6 C5 1.235 1_556 S
C7 C9 1.400 . S
C7 N10 1.351 1_556 S
C7 C12 1.501 . S
C8 C9 1.387 . S
C8 N11 1.341 . S
C9 C7 1.400 . S
C9 C8 1.387 . S
N10 Co1 2.022 . S
N10 C7 1.351 1_554 S
N10 N11 1.365 1_554 S
N11 C8 1.341 . S
N11 N10 1.365 1_556 S
N11 H31 0.862 1_556 S
C12 C7 1.501 . S
C12 H13 0.961 1_556 S
C12 H14 0.961 . S
C12 H15 0.960 1_556 S
H13 C12 0.961 1_554 S
H14 C12 0.961 . S
H15 C12 0.960 1_554 S
C16 N17 1.342 . S
C16 C20 1.401 . S
C16 C21 1.499 . S
N17 Co0 1.989 1_556 S
N17 C16 1.342 . S
N17 N18 1.388 . S
N18 Co1 1.993 1_556 S
N18 N17 1.388 . S
N18 C19 1.346 . S
C19 N18 1.346 . S
C19 C20 1.396 . S
C19 C29 1.510 . S
C20 C16 1.401 . S
C20 C19 1.396 . S
C21 C16 1.499 . S
C21 H22 0.959 . S
C21 H23 0.960 . S
C21 H24 0.961 1_545 S
H22 C21 0.959 . S
H23 C21 0.960 . S
H24 C21 0.961 1_565 S
O25 Co0 1.967 . S
O25 C33 1.258 . S
O26 Co1 1.941 . S
O26 C33 1.266 . S
H27 C29 0.959 . S
H28 C29 0.961 . S
C29 C19 1.510 . S
C29 H27 0.959 . S
C29 H28 0.961 . S
C29 H30 0.960 . S
H30 C29 0.960 . S
H31 N11 0.862 1_554 S
O32 Co0 1.920 . S
O32 C5 1.289 . S
C33 O25 1.258 . S
C33 O26 1.266 . S
Co34 O37 1.970 . S
Co34 N51 1.989 . S
Co34 O59 1.967 . S
Co34 O66 1.920 . S
Co35 O38 1.966 . S
Co35 N44 2.022 . S
Co35 N52 1.993 . S
Co35 O60 1.941 . S
C36 O37 1.258 . S
C36 O38 1.263 . S
O37 Co34 1.970 . S
O37 C36 1.258 . S
O38 Co35 1.966 . S
O38 C36 1.263 . S
C39 O40 1.235 . S
C39 O66 1.289 . S
O40 C39 1.235 . S
C41 C43 1.400 . S
C41 N44 1.351 . S
C41 C46 1.501 . S
C42 C43 1.387 . S
C42 N45 1.341 . S
C43 C41 1.400 . S
C43 C42 1.387 . S
N44 Co35 2.022 . S
N44 C41 1.351 . S
N44 N45 1.365 . S
N45 C42 1.341 . S
N45 N44 1.365 . S
N45 H65 0.862 . S
C46 C41 1.501 . S
C46 H47 0.961 . S
C46 H48 0.961 . S
C46 H49 0.960 . S
H47 C46 0.961 . S
H48 C46 0.961 . S
H49 C46 0.960 . S
C50 N51 1.342 . S
C50 C54 1.401 . S
C50 C55 1.499 . S
N51 Co34 1.989 . S
N51 C50 1.342 . S
N51 N52 1.388 . S
N52 Co35 1.993 . S
N52 N51 1.388 . S
N52 C53 1.346 . S
C53 N52 1.346 . S
C53 C54 1.396 . S
C53 C63 1.510 . S
C54 C50 1.401 . S
C54 C53 1.396 . S
C55 C50 1.499 . S
C55 H56 0.959 . S
C55 H57 0.960 . S
C55 H58 0.961 1_655 S
H56 C55 0.959 . S
H57 C55 0.960 . S
H58 C55 0.961 1_455 S
O59 Co34 1.967 . S
O59 C67 1.258 . S
O60 Co35 1.941 . S
O60 C67 1.266 . S
H61 C63 0.959 . S
H62 C63 0.961 . S
C63 C53 1.510 . S
C63 H61 0.959 . S
C63 H62 0.961 . S
C63 H64 0.960 . S
H64 C63 0.960 . S
H65 N45 0.862 . S
O66 Co34 1.920 . S
O66 C39 1.289 . S
C67 O59 1.258 . S
C67 O60 1.266 . S
Co68 O71 1.970 . S
Co68 N85 1.989 . S
Co68 O93 1.967 . S
Co68 O100 1.920 . S
Co69 O72 1.966 . S
Co69 N78 2.022 . S
Co69 N86 1.993 . S
Co69 O94 1.941 . S
C70 O71 1.258 . S
C70 O72 1.263 . S
O71 Co68 1.970 . S
O71 C70 1.258 . S
O72 Co69 1.966 . S
O72 C70 1.263 . S
C73 O74 1.235 . S
C73 O100 1.289 . S
O74 C73 1.235 . S
C75 C77 1.400 . S
C75 N78 1.351 . S
C75 C80 1.501 . S
C76 C77 1.387 . S
C76 N79 1.341 . S
C77 C75 1.400 . S
C77 C76 1.387 . S
N78 Co69 2.022 . S
N78 C75 1.351 . S
N78 N79 1.365 . S
N79 C76 1.341 . S
N79 N78 1.365 . S
N79 H99 0.862 . S
C80 C75 1.501 . S
C80 H81 0.961 . S
C80 H82 0.961 . S
C80 H83 0.960 . S
H81 C80 0.961 . S
H82 C80 0.961 . S
H83 C80 0.960 . S
C84 N85 1.342 . S
C84 C88 1.401 . S
C84 C89 1.499 . S
N85 Co68 1.989 . S
N85 C84 1.342 . S
N85 N86 1.388 . S
N86 Co69 1.993 . S
N86 N85 1.388 . S
N86 C87 1.346 . S
C87 N86 1.346 . S
C87 C88 1.396 . S
C87 C97 1.510 . S
C88 C84 1.401 . S
C88 C87 1.396 . S
C89 C84 1.499 . S
C89 H90 0.959 . S
C89 H91 0.960 . S
C89 H92 0.961 . S
H90 C89 0.959 . S
H91 C89 0.960 . S
H92 C89 0.961 . S
O93 Co68 1.967 . S
O93 C101 1.258 . S
O94 Co69 1.941 . S
O94 C101 1.266 . S
H95 C97 0.959 . S
H96 C97 0.961 . S
C97 C87 1.510 . S
C97 H95 0.959 . S
C97 H96 0.961 . S
C97 H98 0.960 . S
H98 C97 0.960 . S
H99 N79 0.862 . S
O100 Co68 1.920 . S
O100 C73 1.289 . S
C101 O93 1.258 . S
C101 O94 1.266 . S
Co102 O105 1.970 . S
Co102 N119 1.989 . S
Co102 O127 1.967 . S
Co102 O134 1.920 . S
Co103 O106 1.966 . S
Co103 N112 2.022 . S
Co103 N120 1.993 . S
Co103 O128 1.941 . S
C104 O105 1.258 . S
C104 O106 1.263 . S
O105 Co102 1.970 . S
O105 C104 1.258 . S
O106 Co103 1.966 . S
O106 C104 1.263 . S
C107 O108 1.235 . S
C107 O134 1.289 . S
O108 C107 1.235 . S
C109 C111 1.400 . S
C109 N112 1.351 . S
C109 C114 1.501 . S
C110 C111 1.387 . S
C110 N113 1.341 . S
C111 C109 1.400 . S
C111 C110 1.387 . S
N112 Co103 2.022 . S
N112 C109 1.351 . S
N112 N113 1.365 . S
N113 C110 1.341 . S
N113 N112 1.365 . S
N113 H133 0.862 . S
C114 C109 1.501 . S
C114 H115 0.961 . S
C114 H116 0.961 . S
C114 H117 0.960 . S
H115 C114 0.961 . S
H116 C114 0.961 . S
H117 C114 0.960 . S
C118 N119 1.342 . S
C118 C122 1.401 . S
C118 C123 1.499 . S
N119 Co102 1.989 . S
N119 C118 1.342 . S
N119 N120 1.388 . S
N120 Co103 1.993 . S
N120 N119 1.388 . S
N120 C121 1.346 . S
C121 N120 1.346 . S
C121 C122 1.396 . S
C121 C131 1.510 . S
C122 C118 1.401 . S
C122 C121 1.396 . S
C123 C118 1.499 . S
C123 H124 0.959 . S
C123 H125 0.960 . S
C123 H126 0.961 . S
H124 C123 0.959 . S
H125 C123 0.960 . S
H126 C123 0.961 . S
O127 Co102 1.967 . S
O127 C135 1.258 . S
O128 Co103 1.941 . S
O128 C135 1.266 . S
H129 C131 0.959 . S
H130 C131 0.961 . S
C131 C121 1.510 . S
C131 H129 0.959 . S
C131 H130 0.961 . S
C131 H132 0.960 . S
H132 C131 0.960 . S
H133 N113 0.862 . S
O134 Co102 1.920 . S
O134 C107 1.289 . S
C135 O127 1.258 . S
C135 O128 1.266 . S
Co136 O139 1.970 . S
Co136 N153 1.989 . S
Co136 O161 1.967 . S
Co136 O168 1.920 . S
Co137 O140 1.966 . S
Co137 N146 2.022 . S
Co137 N154 1.993 . S
Co137 O162 1.941 . S
C138 O139 1.258 . S
C138 O140 1.263 . S
O139 Co136 1.970 . S
O139 C138 1.258 . S
O140 Co137 1.966 . S
O140 C138 1.263 . S
C141 O142 1.235 . S
C141 O168 1.289 . S
O142 C141 1.235 . S
C143 C145 1.400 . S
C143 N146 1.351 . S
C143 C148 1.501 . S
C144 C145 1.387 . S
C144 N147 1.341 . S
C145 C143 1.400 . S
C145 C144 1.387 . S
N146 Co137 2.022 . S
N146 C143 1.351 . S
N146 N147 1.365 . S
N147 C144 1.341 . S
N147 N146 1.365 . S
N147 H167 0.862 . S
C148 C143 1.501 . S
C148 H149 0.961 . S
C148 H150 0.961 . S
C148 H151 0.960 . S
H149 C148 0.961 . S
H150 C148 0.961 . S
H151 C148 0.960 . S
C152 N153 1.342 . S
C152 C156 1.401 . S
C152 C157 1.499 . S
N153 Co136 1.989 . S
N153 C152 1.342 . S
N153 N154 1.388 . S
N154 Co137 1.993 . S
N154 N153 1.388 . S
N154 C155 1.346 . S
C155 N154 1.346 . S
C155 C156 1.396 . S
C155 C165 1.510 . S
C156 C152 1.401 . S
C156 C155 1.396 . S
C157 C152 1.499 . S
C157 H158 0.959 . S
C157 H159 0.960 . S
C157 H160 0.961 1_545 S
H158 C157 0.959 . S
H159 C157 0.960 . S
H160 C157 0.961 1_565 S
O161 Co136 1.967 . S
O161 C169 1.258 . S
O162 Co137 1.941 . S
O162 C169 1.266 . S
H163 C165 0.959 . S
H164 C165 0.961 . S
C165 C155 1.510 . S
C165 H163 0.959 . S
C165 H164 0.961 . S
C165 H166 0.960 . S
H166 C165 0.960 . S
H167 N147 0.862 . S
O168 Co136 1.920 . S
O168 C141 1.289 . S
C169 O161 1.258 . S
C169 O162 1.266 . S
Co170 O173 1.970 . S
Co170 N187 1.989 . S
Co170 O195 1.967 . S
Co170 O202 1.920 . S
Co171 O174 1.966 . S
Co171 N180 2.022 . S
Co171 N188 1.993 . S
Co171 O196 1.941 . S
C172 O173 1.258 . S
C172 O174 1.263 . S
O173 Co170 1.970 . S
O173 C172 1.258 . S
O174 Co171 1.966 . S
O174 C172 1.263 . S
C175 O176 1.235 . S
C175 O202 1.289 . S
O176 C175 1.235 . S
C177 C179 1.400 . S
C177 N180 1.351 . S
C177 C182 1.501 . S
C178 C179 1.387 . S
C178 N181 1.341 . S
C179 C177 1.400 . S
C179 C178 1.387 . S
N180 Co171 2.022 . S
N180 C177 1.351 . S
N180 N181 1.365 . S
N181 C178 1.341 . S
N181 N180 1.365 . S
N181 H201 0.862 . S
C182 C177 1.501 . S
C182 H183 0.961 . S
C182 H184 0.961 . S
C182 H185 0.960 . S
H183 C182 0.961 . S
H184 C182 0.961 . S
H185 C182 0.960 . S
C186 N187 1.342 . S
C186 C190 1.401 . S
C186 C191 1.499 . S
N187 Co170 1.989 . S
N187 C186 1.342 . S
N187 N188 1.388 . S
N188 Co171 1.993 . S
N188 N187 1.388 . S
N188 C189 1.346 . S
C189 N188 1.346 . S
C189 C190 1.396 . S
C189 C199 1.510 . S
C190 C186 1.401 . S
C190 C189 1.396 . S
C191 C186 1.499 . S
C191 H192 0.959 . S
C191 H193 0.960 . S
C191 H194 0.961 1_655 S
H192 C191 0.959 . S
H193 C191 0.960 . S
H194 C191 0.961 1_455 S
O195 Co170 1.967 . S
O195 C203 1.258 . S
O196 Co171 1.941 . S
O196 C203 1.266 . S
H197 C199 0.959 . S
H198 C199 0.961 . S
C199 C189 1.510 . S
C199 H197 0.959 . S
C199 H198 0.961 . S
C199 H200 0.960 . S
H200 C199 0.960 . S
H201 N181 0.862 . S
O202 Co170 1.920 . S
O202 C175 1.289 . S
C203 O195 1.258 . S
C203 O196 1.266 . S
Co204 O207 1.970 . S
Co204 N221 1.989 1_554 S
Co204 O229 1.967 . S
Co204 O236 1.920 . S
Co205 O208 1.966 . S
Co205 N214 2.022 . S
Co205 N222 1.993 1_554 S
Co205 O230 1.941 . S
C206 O207 1.258 . S
C206 O208 1.263 . S
O207 Co204 1.970 . S
O207 C206 1.258 . S
O208 Co205 1.966 . S
O208 C206 1.263 . S
C209 O210 1.235 1_554 S
C209 O236 1.289 . S
O210 C209 1.235 1_556 S
C211 C213 1.400 . S
C211 N214 1.351 1_556 S
C211 C216 1.501 . S
C212 C213 1.387 . S
C212 N215 1.341 . S
C213 C211 1.400 . S
C213 C212 1.387 . S
N214 Co205 2.022 . S
N214 C211 1.351 1_554 S
N214 N215 1.365 1_554 S
N215 C212 1.341 . S
N215 N214 1.365 1_556 S
N215 H235 0.862 1_556 S
C216 C211 1.501 . S
C216 H217 0.961 1_556 S
C216 H218 0.961 . S
C216 H219 0.960 1_556 S
H217 C216 0.961 1_554 S
H218 C216 0.961 . S
H219 C216 0.960 1_554 S
C220 N221 1.342 . S
C220 C224 1.401 . S
C220 C225 1.499 . S
N221 Co204 1.989 1_556 S
N221 C220 1.342 . S
N221 N222 1.388 . S
N222 Co205 1.993 1_556 S
N222 N221 1.388 . S
N222 C223 1.346 . S
C223 N222 1.346 . S
C223 C224 1.396 . S
C223 C233 1.510 . S
C224 C220 1.401 . S
C224 C223 1.396 . S
C225 C220 1.499 . S
C225 H226 0.959 . S
C225 H227 0.960 . S
C225 H228 0.961 . S
H226 C225 0.959 . S
H227 C225 0.960 . S
H228 C225 0.961 . S
O229 Co204 1.967 . S
O229 C237 1.258 . S
O230 Co205 1.941 . S
O230 C237 1.266 . S
H231 C233 0.959 . S
H232 C233 0.961 . S
C233 C223 1.510 . S
C233 H231 0.959 . S
C233 H232 0.961 . S
C233 H234 0.960 . S
H234 C233 0.960 . S
H235 N215 0.862 1_554 S
O236 Co204 1.920 . S
O236 C209 1.289 . S
C237 O229 1.258 . S
C237 O230 1.266 . S
Co238 O241 1.970 . S
Co238 N255 1.989 . S
Co238 O263 1.967 . S
Co238 O270 1.920 . S
Co239 O242 1.966 . S
Co239 N248 2.022 . S
Co239 N256 1.993 . S
Co239 O264 1.941 . S
C240 O241 1.258 . S
C240 O242 1.263 . S
O241 Co238 1.970 . S
O241 C240 1.258 . S
O242 Co239 1.966 . S
O242 C240 1.263 . S
C243 O244 1.235 . S
C243 O270 1.289 . S
O244 C243 1.235 . S
C245 C247 1.400 . S
C245 N248 1.351 . S
C245 C250 1.501 . S
C246 C247 1.387 . S
C246 N249 1.341 . S
C247 C245 1.400 . S
C247 C246 1.387 . S
N248 Co239 2.022 . S
N248 C245 1.351 . S
N248 N249 1.365 . S
N249 C246 1.341 . S
N249 N248 1.365 . S
N249 H269 0.862 . S
C250 C245 1.501 . S
C250 H251 0.961 . S
C250 H252 0.961 . S
C250 H253 0.960 . S
H251 C250 0.961 . S
H252 C250 0.961 . S
H253 C250 0.960 . S
C254 N255 1.342 . S
C254 C258 1.401 . S
C254 C259 1.499 . S
N255 Co238 1.989 . S
N255 C254 1.342 . S
N255 N256 1.388 . S
N256 Co239 1.993 . S
N256 N255 1.388 . S
N256 C257 1.346 . S
C257 N256 1.346 . S
C257 C258 1.396 . S
C257 C267 1.510 . S
C258 C254 1.401 . S
C258 C257 1.396 . S
C259 C254 1.499 . S
C259 H260 0.959 . S
C259 H261 0.960 . S
C259 H262 0.961 . S
H260 C259 0.959 . S
H261 C259 0.960 . S
H262 C259 0.961 . S
O263 Co238 1.967 . S
O263 C271 1.258 . S
O264 Co239 1.941 . S
O264 C271 1.266 . S
H265 C267 0.959 . S
H266 C267 0.961 . S
C267 C257 1.510 . S
C267 H265 0.959 . S
C267 H266 0.961 . S
C267 H268 0.960 . S
H268 C267 0.960 . S
H269 N249 0.862 . S
O270 Co238 1.920 . S
O270 C243 1.289 . S
C271 O263 1.258 . S
C271 O264 1.266 . S
Co272 O275 1.970 . S
Co272 N289 1.989 . S
Co272 O297 1.967 . S
Co272 O304 1.920 . S
Co273 O276 1.966 . S
Co273 N282 2.022 . S
Co273 N290 1.993 . S
Co273 O298 1.941 . S
C274 O275 1.258 . S
C274 O276 1.263 . S
O275 Co272 1.970 . S
O275 C274 1.258 . S
O276 Co273 1.966 . S
O276 C274 1.263 . S
C277 O278 1.235 . S
C277 O304 1.289 . S
O278 C277 1.235 . S
C279 C281 1.400 . S
C279 N282 1.351 . S
C279 C284 1.501 . S
C280 C281 1.387 . S
C280 N283 1.341 . S
C281 C279 1.400 . S
C281 C280 1.387 . S
N282 Co273 2.022 . S
N282 C279 1.351 . S
N282 N283 1.365 . S
N283 C280 1.341 . S
N283 N282 1.365 . S
N283 H303 0.862 . S
C284 C279 1.501 . S
C284 H285 0.961 . S
C284 H286 0.961 . S
C284 H287 0.960 . S
H285 C284 0.961 . S
H286 C284 0.961 . S
H287 C284 0.960 . S
C288 N289 1.342 . S
C288 C292 1.401 . S
C288 C293 1.499 . S
N289 Co272 1.989 . S
N289 C288 1.342 . S
N289 N290 1.388 . S
N290 Co273 1.993 . S
N290 N289 1.388 . S
N290 C291 1.346 . S
C291 N290 1.346 . S
C291 C292 1.396 . S
C291 C301 1.510 . S
C292 C288 1.401 . S
C292 C291 1.396 . S
C293 C288 1.499 . S
C293 H294 0.959 . S
C293 H295 0.960 . S
C293 H296 0.961 . S
H294 C293 0.959 . S
H295 C293 0.960 . S
H296 C293 0.961 . S
O297 Co272 1.967 . S
O297 C305 1.258 . S
O298 Co273 1.941 . S
O298 C305 1.266 . S
H299 C301 0.959 . S
H300 C301 0.961 . S
C301 C291 1.510 . S
C301 H299 0.959 . S
C301 H300 0.961 . S
C301 H302 0.960 . S
H302 C301 0.960 . S
H303 N283 0.862 . S
O304 Co272 1.920 . S
O304 C277 1.289 . S
C305 O297 1.258 . S
C305 O298 1.266 . S
Co306 O309 1.970 . S
Co306 N323 1.989 . S
Co306 O331 1.967 . S
Co306 O338 1.920 . S
Co307 O310 1.966 . S
Co307 N316 2.022 . S
Co307 N324 1.993 . S
Co307 O332 1.941 . S
C308 O309 1.258 . S
C308 O310 1.263 . S
O309 Co306 1.970 . S
O309 C308 1.258 . S
O310 Co307 1.966 . S
O310 C308 1.263 . S
C311 O312 1.235 . S
C311 O338 1.289 . S
O312 C311 1.235 . S
C313 C315 1.400 . S
C313 N316 1.351 . S
C313 C318 1.501 . S
C314 C315 1.387 . S
C314 N317 1.341 . S
C315 C313 1.400 . S
C315 C314 1.387 . S
N316 Co307 2.022 . S
N316 C313 1.351 . S
N316 N317 1.365 . S
N317 C314 1.341 . S
N317 N316 1.365 . S
N317 H337 0.862 . S
C318 C313 1.501 . S
C318 H319 0.961 . S
C318 H320 0.961 . S
C318 H321 0.960 . S
H319 C318 0.961 . S
H320 C318 0.961 . S
H321 C318 0.960 . S
C322 N323 1.342 . S
C322 C326 1.401 . S
C322 C327 1.499 . S
N323 Co306 1.989 . S
N323 C322 1.342 . S
N323 N324 1.388 . S
N324 Co307 1.993 . S
N324 N323 1.388 . S
N324 C325 1.346 . S
C325 N324 1.346 . S
C325 C326 1.396 . S
C325 C335 1.510 . S
C326 C322 1.401 . S
C326 C325 1.396 . S
C327 C322 1.499 . S
C327 H328 0.959 . S
C327 H329 0.960 . S
C327 H330 0.961 . S
H328 C327 0.959 . S
H329 C327 0.960 . S
H330 C327 0.961 . S
O331 Co306 1.967 . S
O331 C339 1.258 . S
O332 Co307 1.941 . S
O332 C339 1.266 . S
H333 C335 0.959 . S
H334 C335 0.961 . S
C335 C325 1.510 . S
C335 H333 0.959 . S
C335 H334 0.961 . S
C335 H336 0.960 . S
H336 C335 0.960 . S
H337 N317 0.862 . S
O338 Co306 1.920 . S
O338 C311 1.289 . S
C339 O331 1.258 . S
C339 O332 1.266 . S
Co340 O343 1.970 . S
Co340 N357 1.989 1_554 S
Co340 O365 1.967 . S
Co340 O372 1.920 . S
Co341 O344 1.966 . S
Co341 N350 2.022 . S
Co341 N358 1.993 1_554 S
Co341 O366 1.941 . S
C342 O343 1.258 . S
C342 O344 1.263 . S
O343 Co340 1.970 . S
O343 C342 1.258 . S
O344 Co341 1.966 . S
O344 C342 1.263 . S
C345 O346 1.235 1_554 S
C345 O372 1.289 . S
O346 C345 1.235 1_556 S
C347 C349 1.400 . S
C347 N350 1.351 1_556 S
C347 C352 1.501 . S
C348 C349 1.387 . S
C348 N351 1.341 . S
C349 C347 1.400 . S
C349 C348 1.387 . S
N350 Co341 2.022 . S
N350 C347 1.351 1_554 S
N350 N351 1.365 1_554 S
N351 C348 1.341 . S
N351 N350 1.365 1_556 S
N351 H371 0.862 1_556 S
C352 C347 1.501 . S
C352 H353 0.961 1_556 S
C352 H354 0.961 . S
C352 H355 0.960 1_556 S
H353 C352 0.961 1_554 S
H354 C352 0.961 . S
H355 C352 0.960 1_554 S
C356 N357 1.342 . S
C356 C360 1.401 . S
C356 C361 1.499 . S
N357 Co340 1.989 1_556 S
N357 C356 1.342 . S
N357 N358 1.388 . S
N358 Co341 1.993 1_556 S
N358 N357 1.388 . S
N358 C359 1.346 . S
C359 N358 1.346 . S
C359 C360 1.396 . S
C359 C369 1.510 . S
C360 C356 1.401 . S
C360 C359 1.396 . S
C361 C356 1.499 . S
C361 H362 0.959 . S
C361 H363 0.960 . S
C361 H364 0.961 1_565 S
H362 C361 0.959 . S
H363 C361 0.960 . S
H364 C361 0.961 1_545 S
O365 Co340 1.967 . S
O365 C373 1.258 . S
O366 Co341 1.941 . S
O366 C373 1.266 . S
H367 C369 0.959 . S
H368 C369 0.961 . S
C369 C359 1.510 . S
C369 H367 0.959 . S
C369 H368 0.961 . S
C369 H370 0.960 . S
H370 C369 0.960 . S
H371 N351 0.862 1_554 S
O372 Co340 1.920 . S
O372 C345 1.289 . S
C373 O365 1.258 . S
C373 O366 1.266 . S
Co374 O377 1.970 . S
Co374 N391 1.989 . S
Co374 O399 1.967 . S
Co374 O406 1.920 . S
Co375 O378 1.966 . S
Co375 N384 2.022 . S
Co375 N392 1.993 . S
Co375 O400 1.941 . S
C376 O377 1.258 . S
C376 O378 1.263 . S
O377 Co374 1.970 . S
O377 C376 1.258 . S
O378 Co375 1.966 . S
O378 C376 1.263 . S
C379 O380 1.235 . S
C379 O406 1.289 . S
O380 C379 1.235 . S
C381 C383 1.400 . S
C381 N384 1.351 . S
C381 C386 1.501 . S
C382 C383 1.387 . S
C382 N385 1.341 . S
C383 C381 1.400 . S
C383 C382 1.387 . S
N384 Co375 2.022 . S
N384 C381 1.351 . S
N384 N385 1.365 . S
N385 C382 1.341 . S
N385 N384 1.365 . S
N385 H405 0.862 . S
C386 C381 1.501 . S
C386 H387 0.961 . S
C386 H388 0.961 . S
C386 H389 0.960 . S
H387 C386 0.961 . S
H388 C386 0.961 . S
H389 C386 0.960 . S
C390 N391 1.342 . S
C390 C394 1.401 . S
C390 C395 1.499 . S
N391 Co374 1.989 . S
N391 C390 1.342 . S
N391 N392 1.388 . S
N392 Co375 1.993 . S
N392 N391 1.388 . S
N392 C393 1.346 . S
C393 N392 1.346 . S
C393 C394 1.396 . S
C393 C403 1.510 . S
C394 C390 1.401 . S
C394 C393 1.396 . S
C395 C390 1.499 . S
C395 H396 0.959 . S
C395 H397 0.960 . S
C395 H398 0.961 1_455 S
H396 C395 0.959 . S
H397 C395 0.960 . S
H398 C395 0.961 1_655 S
O399 Co374 1.967 . S
O399 C407 1.258 . S
O400 Co375 1.941 . S
O400 C407 1.266 . S
H401 C403 0.959 . S
H402 C403 0.961 . S
C403 C393 1.510 . S
C403 H401 0.959 . S
C403 H402 0.961 . S
C403 H404 0.960 . S
H404 C403 0.960 . S
H405 N385 0.862 . S
O406 Co374 1.920 . S
O406 C379 1.289 . S
C407 O399 1.258 . S
C407 O400 1.266 . S
Co408 O411 1.970 . S
Co408 N425 1.989 1_554 S
Co408 O433 1.967 . S
Co408 O440 1.920 . S
Co409 O412 1.966 . S
Co409 N418 2.022 . S
Co409 N426 1.993 1_554 S
Co409 O434 1.941 . S
C410 O411 1.258 . S
C410 O412 1.263 . S
O411 Co408 1.970 . S
O411 C410 1.258 . S
O412 Co409 1.966 . S
O412 C410 1.263 . S
C413 O414 1.235 1_554 S
C413 O440 1.289 . S
O414 C413 1.235 1_556 S
C415 C417 1.400 . S
C415 N418 1.351 1_556 S
C415 C420 1.501 . S
C416 C417 1.387 . S
C416 N419 1.341 . S
C417 C415 1.400 . S
C417 C416 1.387 . S
N418 Co409 2.022 . S
N418 C415 1.351 1_554 S
N418 N419 1.365 1_554 S
N419 C416 1.341 . S
N419 N418 1.365 1_556 S
N419 H439 0.862 1_556 S
C420 C415 1.501 . S
C420 H421 0.961 1_556 S
C420 H422 0.961 . S
C420 H423 0.960 1_556 S
H421 C420 0.961 1_554 S
H422 C420 0.961 . S
H423 C420 0.960 1_554 S
C424 N425 1.342 . S
C424 C428 1.401 . S
C424 C429 1.499 . S
N425 Co408 1.989 1_556 S
N425 C424 1.342 . S
N425 N426 1.388 . S
N426 Co409 1.993 1_556 S
N426 N425 1.388 . S
N426 C427 1.346 . S
C427 N426 1.346 . S
C427 C428 1.396 . S
C427 C437 1.510 . S
C428 C424 1.401 . S
C428 C427 1.396 . S
C429 C424 1.499 . S
C429 H430 0.959 . S
C429 H431 0.960 . S
C429 H432 0.961 . S
H430 C429 0.959 . S
H431 C429 0.960 . S
H432 C429 0.961 . S
O433 Co408 1.967 . S
O433 C441 1.258 . S
O434 Co409 1.941 . S
O434 C441 1.266 . S
H435 C437 0.959 . S
H436 C437 0.961 . S
C437 C427 1.510 . S
C437 H435 0.959 . S
C437 H436 0.961 . S
C437 H438 0.960 . S
H438 C437 0.960 . S
H439 N419 0.862 1_554 S
O440 Co408 1.920 . S
O440 C413 1.289 . S
C441 O433 1.258 . S
C441 O434 1.266 . S
Co442 O445 1.970 . S
Co442 N459 1.989 . S
Co442 O467 1.967 . S
Co442 O474 1.920 . S
Co443 O446 1.966 . S
Co443 N452 2.022 . S
Co443 N460 1.993 . S
Co443 O468 1.941 . S
C444 O445 1.258 . S
C444 O446 1.263 . S
O445 Co442 1.970 . S
O445 C444 1.258 . S
O446 Co443 1.966 . S
O446 C444 1.263 . S
C447 O448 1.235 . S
C447 O474 1.289 . S
O448 C447 1.235 . S
C449 C451 1.400 . S
C449 N452 1.351 . S
C449 C454 1.501 . S
C450 C451 1.387 . S
C450 N453 1.341 . S
C451 C449 1.400 . S
C451 C450 1.387 . S
N452 Co443 2.022 . S
N452 C449 1.351 . S
N452 N453 1.365 . S
N453 C450 1.341 . S
N453 N452 1.365 . S
N453 H473 0.862 . S
C454 C449 1.501 . S
C454 H455 0.961 . S
C454 H456 0.961 . S
C454 H457 0.960 . S
H455 C454 0.961 . S
H456 C454 0.961 . S
H457 C454 0.960 . S
C458 N459 1.342 . S
C458 C462 1.401 . S
C458 C463 1.499 . S
N459 Co442 1.989 . S
N459 C458 1.342 . S
N459 N460 1.388 . S
N460 Co443 1.993 . S
N460 N459 1.388 . S
N460 C461 1.346 . S
C461 N460 1.346 . S
C461 C462 1.396 . S
C461 C471 1.510 . S
C462 C458 1.401 . S
C462 C461 1.396 . S
C463 C458 1.499 . S
C463 H464 0.959 . S
C463 H465 0.960 . S
C463 H466 0.961 . S
H464 C463 0.959 . S
H465 C463 0.960 . S
H466 C463 0.961 . S
O467 Co442 1.967 . S
O467 C475 1.258 . S
O468 Co443 1.941 . S
O468 C475 1.266 . S
H469 C471 0.959 . S
H470 C471 0.961 . S
C471 C461 1.510 . S
C471 H469 0.959 . S
C471 H470 0.961 . S
C471 H472 0.960 . S
H472 C471 0.960 . S
H473 N453 0.862 . S
O474 Co442 1.920 . S
O474 C447 1.289 . S
C475 O467 1.258 . S
C475 O468 1.266 . S
Co476 O479 1.970 . S
Co476 N493 1.989 . S
Co476 O501 1.967 . S
Co476 O508 1.920 . S
Co477 O480 1.966 . S
Co477 N486 2.022 . S
Co477 N494 1.993 . S
Co477 O502 1.941 . S
C478 O479 1.258 . S
C478 O480 1.263 . S
O479 Co476 1.970 . S
O479 C478 1.258 . S
O480 Co477 1.966 . S
O480 C478 1.263 . S
C481 O482 1.235 . S
C481 O508 1.289 . S
O482 C481 1.235 . S
C483 C485 1.400 . S
C483 N486 1.351 . S
C483 C488 1.501 . S
C484 C485 1.387 . S
C484 N487 1.341 . S
C485 C483 1.400 . S
C485 C484 1.387 . S
N486 Co477 2.022 . S
N486 C483 1.351 . S
N486 N487 1.365 . S
N487 C484 1.341 . S
N487 N486 1.365 . S
N487 H507 0.862 . S
C488 C483 1.501 . S
C488 H489 0.961 . S
C488 H490 0.961 . S
C488 H491 0.960 . S
H489 C488 0.961 . S
H490 C488 0.961 . S
H491 C488 0.960 . S
C492 N493 1.342 . S
C492 C496 1.401 . S
C492 C497 1.499 . S
N493 Co476 1.989 . S
N493 C492 1.342 . S
N493 N494 1.388 . S
N494 Co477 1.993 . S
N494 N493 1.388 . S
N494 C495 1.346 . S
C495 N494 1.346 . S
C495 C496 1.396 . S
C495 C505 1.510 . S
C496 C492 1.401 . S
C496 C495 1.396 . S
C497 C492 1.499 . S
C497 H498 0.959 . S
C497 H499 0.960 . S
C497 H500 0.961 1_565 S
H498 C497 0.959 . S
H499 C497 0.960 . S
H500 C497 0.961 1_545 S
O501 Co476 1.967 . S
O501 C509 1.258 . S
O502 Co477 1.941 . S
O502 C509 1.266 . S
H503 C505 0.959 . S
H504 C505 0.961 . S
C505 C495 1.510 . S
C505 H503 0.959 . S
C505 H504 0.961 . S
C505 H506 0.960 . S
H506 C505 0.960 . S
H507 N487 0.862 . S
O508 Co476 1.920 . S
O508 C481 1.289 . S
C509 O501 1.258 . S
C509 O502 1.266 . S
Co510 O513 1.970 . S
Co510 N527 1.989 . S
Co510 O535 1.967 . S
Co510 O542 1.920 . S
Co511 O514 1.966 . S
Co511 N520 2.022 . S
Co511 N528 1.993 . S
Co511 O536 1.941 . S
C512 O513 1.258 . S
C512 O514 1.263 . S
O513 Co510 1.970 . S
O513 C512 1.258 . S
O514 Co511 1.966 . S
O514 C512 1.263 . S
C515 O516 1.235 . S
C515 O542 1.289 . S
O516 C515 1.235 . S
C517 C519 1.400 . S
C517 N520 1.351 . S
C517 C522 1.501 . S
C518 C519 1.387 . S
C518 N521 1.341 . S
C519 C517 1.400 . S
C519 C518 1.387 . S
N520 Co511 2.022 . S
N520 C517 1.351 . S
N520 N521 1.365 . S
N521 C518 1.341 . S
N521 N520 1.365 . S
N521 H541 0.862 . S
C522 C517 1.501 . S
C522 H523 0.961 . S
C522 H524 0.961 . S
C522 H525 0.960 . S
H523 C522 0.961 . S
H524 C522 0.961 . S
H525 C522 0.960 . S
C526 N527 1.342 . S
C526 C530 1.401 . S
C526 C531 1.499 . S
N527 Co510 1.989 . S
N527 C526 1.342 . S
N527 N528 1.388 . S
N528 Co511 1.993 . S
N528 N527 1.388 . S
N528 C529 1.346 . S
C529 N528 1.346 . S
C529 C530 1.396 . S
C529 C539 1.510 . S
C530 C526 1.401 . S
C530 C529 1.396 . S
C531 C526 1.499 . S
C531 H532 0.959 . S
C531 H533 0.960 . S
C531 H534 0.961 1_455 S
H532 C531 0.959 . S
H533 C531 0.960 . S
H534 C531 0.961 1_655 S
O535 Co510 1.967 . S
O535 C543 1.258 . S
O536 Co511 1.941 . S
O536 C543 1.266 . S
H537 C539 0.959 . S
H538 C539 0.961 . S
C539 C529 1.510 . S
C539 H537 0.959 . S
C539 H538 0.961 . S
C539 H540 0.960 . S
H540 C539 0.960 . S
H541 N521 0.862 . S
O542 Co510 1.920 . S
O542 C515 1.289 . S
C543 O535 1.258 . S
C543 O536 1.266 . S
H544 C552 0.950 . S
H545 C557 0.950 . S
H546 C554 0.950 . S
H547 C556 0.950 1_545 S
H548 C558 0.950 . S
H549 C560 0.950 . S
H550 C562 0.950 1_565 S
H551 C563 0.950 . S
C552 H544 0.950 . S
C552 C553 1.386 . S
C552 C554 1.391 . S
C553 C552 1.386 . S
C553 C557 1.393 1_554 S
C554 H546 0.950 . S
C554 C552 1.391 . S
C554 C555 1.400 . S
C555 C554 1.400 . S
C555 C556 1.398 1_554 S
C555 C561 1.491 1_665 S
C556 H547 0.950 1_565 S
C556 C555 1.398 1_556 S
C556 C557 1.391 . S
C557 H545 0.950 . S
C557 C553 1.393 1_556 S
C557 C556 1.391 . S
C558 H548 0.950 . S
C558 C559 1.386 1_556 S
C558 C560 1.391 . S
C559 C558 1.386 1_554 S
C559 C563 1.393 . S
C560 H549 0.950 . S
C560 C558 1.391 . S
C560 C561 1.400 1_556 S
C561 C555 1.491 1_445 S
C561 C560 1.400 1_554 S
C561 C562 1.398 . S
C562 H550 0.950 1_545 S
C562 C561 1.398 . S
C562 C563 1.391 . S
C563 H551 0.950 . S
C563 C559 1.393 . S
C563 C562 1.391 . S
H564 C572 0.950 . S
H565 C577 0.940 1_455 S
H566 C574 0.950 . S
H567 C576 0.950 . S
H568 C578 0.950 . S
H569 C580 0.950 . S
H570 C582 0.950 . S
H571 C583 0.940 1_655 S
C572 H564 0.950 . S
C572 C573 1.386 . S
C572 C574 1.391 . S
C573 C572 1.386 . S
C573 C577 1.393 . S
C574 H566 0.950 . S
C574 C572 1.391 . S
C574 C575 1.400 . S
C575 C574 1.400 . S
C575 C576 1.398 1_655 S
C575 C581 1.491 1_655 S
C576 H567 0.950 . S
C576 C575 1.398 1_455 S
C576 C577 1.391 1_455 S
C577 H565 0.940 1_655 S
C577 C573 1.393 . S
C577 C576 1.391 1_655 S
C578 H568 0.950 . S
C578 C579 1.386 . S
C578 C580 1.391 . S
C579 C578 1.386 . S
C579 C583 1.393 . S
C580 H569 0.950 . S
C580 C578 1.391 . S
C580 C581 1.400 . S
C581 C575 1.491 1_455 S
C581 C580 1.400 . S
C581 C582 1.398 1_455 S
C582 H570 0.950 . S
C582 C581 1.398 1_655 S
C582 C583 1.391 1_655 S
C583 H571 0.940 1_455 S
C583 C579 1.393 . S
C583 C582 1.391 1_455 S
H584 C592 0.950 . S
H585 C597 0.950 . S
H586 C594 0.950 . S
H587 C596 0.950 . S
H588 C598 0.950 . S
H589 C600 0.950 . S
H590 C602 0.950 . S
H591 C603 0.950 . S
C592 H584 0.950 . S
C592 C593 1.386 . S
C592 C594 1.391 . S
C593 C592 1.386 . S
C593 C597 1.393 . S
C594 H586 0.950 . S
C594 C592 1.391 . S
C594 C595 1.400 . S
C595 C594 1.400 . S
C595 C596 1.398 . S
C595 C601 1.491 . S
C596 H587 0.950 . S
C596 C595 1.398 . S
C596 C597 1.391 . S
C597 H585 0.950 . S
C597 C593 1.393 . S
C597 C596 1.391 . S
C598 H588 0.950 . S
C598 C599 1.386 . S
C598 C600 1.391 . S
C599 C598 1.386 . S
C599 C603 1.393 . S
C600 H589 0.950 . S
C600 C598 1.391 . S
C600 C601 1.400 . S
C601 C595 1.491 . S
C601 C600 1.400 . S
C601 C602 1.398 . S
C602 H590 0.950 . S
C602 C601 1.398 . S
C602 C603 1.391 . S
C603 H591 0.950 . S
C603 C599 1.393 . S
C603 C602 1.391 . S
H604 C612 0.950 . S
H605 C617 0.950 . S
H606 C614 0.950 . S
H607 C616 0.950 . S
H608 C618 0.950 . S
H609 C620 0.950 . S
H610 C622 0.950 . S
H611 C623 0.950 . S
C612 H604 0.950 . S
C612 C613 1.386 . S
C612 C614 1.391 . S
C613 C612 1.386 . S
C613 C617 1.393 . S
C614 H606 0.950 . S
C614 C612 1.391 . S
C614 C615 1.400 . S
C615 C614 1.400 . S
C615 C616 1.398 . S
C615 C621 1.491 1_565 S
C616 H607 0.950 . S
C616 C615 1.398 . S
C616 C617 1.391 . S
C617 H605 0.950 . S
C617 C613 1.393 . S
C617 C616 1.391 . S
C618 H608 0.950 . S
C618 C619 1.386 . S
C618 C620 1.391 . S
C619 C618 1.386 . S
C619 C623 1.393 . S
C620 H609 0.950 . S
C620 C618 1.391 . S
C620 C621 1.400 . S
C621 C615 1.491 1_545 S
C621 C620 1.400 . S
C621 C622 1.398 . S
C622 H610 0.950 . S
C622 C621 1.398 . S
C622 C623 1.391 . S
C623 H611 0.950 . S
C623 C619 1.393 . S
C623 C622 1.391 . S
H624 C632 0.950 . S
H625 C637 0.950 1_545 S
H626 C634 0.966 . S
H627 C636 0.950 . S
H628 C638 0.950 . S
H629 C640 0.966 . S
H630 C642 0.950 . S
H631 C643 0.950 1_565 S
C632 H624 0.950 . S
C632 C633 1.386 . S
C632 C634 1.391 . S
C633 C632 1.386 . S
C633 C637 1.393 . S
C634 H626 0.966 . S
C634 C632 1.391 . S
C634 C635 1.400 . S
C635 C634 1.400 . S
C635 C636 1.398 1_565 S
C635 C641 1.491 1_465 S
C636 H627 0.950 . S
C636 C635 1.398 1_545 S
C636 C637 1.391 1_545 S
C637 H625 0.950 1_565 S
C637 C633 1.393 . S
C637 C636 1.391 1_565 S
C638 H628 0.950 . S
C638 C639 1.386 . S
C638 C640 1.391 . S
C639 C638 1.386 . S
C639 C643 1.393 . S
C640 H629 0.966 . S
C640 C638 1.391 . S
C640 C641 1.400 . S
C641 C635 1.491 1_645 S
C641 C640 1.400 . S
C641 C642 1.398 1_545 S
C642 H630 0.950 . S
C642 C641 1.398 1_565 S
C642 C643 1.391 1_565 S
C643 H631 0.950 1_545 S
C643 C639 1.393 . S
C643 C642 1.391 1_545 S
H644 C652 0.950 . S
H645 C657 0.950 . S
H646 C654 0.950 . S
H647 C656 0.950 . S
H648 C658 0.950 . S
H649 C660 0.950 . S
H650 C662 0.950 . S
H651 C663 0.950 . S
C652 H644 0.950 . S
C652 C653 1.386 . S
C652 C654 1.391 . S
C653 C652 1.386 . S
C653 C657 1.393 . S
C654 H646 0.950 . S
C654 C652 1.391 . S
C654 C655 1.400 . S
C655 C654 1.400 . S
C655 C656 1.398 1_655 S
C655 C661 1.491 1_655 S
C656 H647 0.950 . S
C656 C655 1.398 1_455 S
C656 C657 1.391 1_455 S
C657 H645 0.950 . S
C657 C653 1.393 . S
C657 C656 1.391 1_655 S
C658 H648 0.950 . S
C658 C659 1.386 . S
C658 C660 1.391 . S
C659 C658 1.386 . S
C659 C663 1.393 . S
C660 H649 0.950 . S
C660 C658 1.391 . S
C660 C661 1.400 . S
C661 C655 1.491 1_455 S
C661 C660 1.400 . S
C661 C662 1.398 1_455 S
C662 H650 0.950 . S
C662 C661 1.398 1_655 S
C662 C663 1.391 1_655 S
C663 H651 0.950 . S
C663 C659 1.393 . S
C663 C662 1.391 1_455 S
H664 C672 0.950 . S
H665 C677 0.950 . S
H666 C674 0.950 . S
H667 C676 0.950 . S
H668 C678 0.950 . S
H669 C680 0.950 . S
H670 C682 0.950 . S
H671 C683 0.950 . S
C672 H664 0.950 . S
C672 C673 1.386 . S
C672 C674 1.391 . S
C673 C672 1.386 . S
C673 C677 1.393 1_554 S
C674 H666 0.950 . S
C674 C672 1.391 . S
C674 C675 1.400 . S
C675 C674 1.400 . S
C675 C676 1.398 1_554 S
C675 C681 1.491 . S
C676 H667 0.950 . S
C676 C675 1.398 1_556 S
C676 C677 1.391 . S
C677 H665 0.950 . S
C677 C673 1.393 1_556 S
C677 C676 1.391 . S
C678 H668 0.950 . S
C678 C679 1.386 1_556 S
C678 C680 1.391 . S
C679 C678 1.386 1_554 S
C679 C683 1.393 . S
C680 H669 0.950 . S
C680 C678 1.391 . S
C680 C681 1.400 1_556 S
C681 C675 1.491 . S
C681 C680 1.400 1_554 S
C681 C682 1.398 . S
C682 H670 0.950 . S
C682 C681 1.398 . S
C682 C683 1.391 . S
C683 H671 0.950 . S
C683 C679 1.393 . S
C683 C682 1.391 . S
H684 C692 0.950 . S
H685 C697 0.950 . S
H686 C694 0.950 . S
H687 C696 0.950 . S
H688 C698 0.950 . S
H689 C700 0.950 . S
H690 C702 0.950 . S
H691 C703 0.950 . S
C692 H684 0.950 . S
C692 C693 1.386 . S
C692 C694 1.391 . S
C693 C692 1.386 . S
C693 C697 1.393 . S
C694 H686 0.950 . S
C694 C692 1.391 . S
C694 C695 1.400 . S
C695 C694 1.400 . S
C695 C696 1.398 . S
C695 C701 1.491 1_565 S
C696 H687 0.950 . S
C696 C695 1.398 . S
C696 C697 1.391 . S
C697 H685 0.950 . S
C697 C693 1.393 . S
C697 C696 1.391 . S
C698 H688 0.950 . S
C698 C699 1.386 . S
C698 C700 1.391 . S
C699 C698 1.386 . S
C699 C703 1.393 . S
C700 H689 0.950 . S
C700 C698 1.391 . S
C700 C701 1.400 . S
C701 C695 1.491 1_545 S
C701 C700 1.400 . S
C701 C702 1.398 . S
C702 H690 0.950 . S
C702 C701 1.398 . S
C702 C703 1.391 . S
C703 H691 0.950 . S
C703 C699 1.393 . S
C703 C702 1.391 . S
H704 C712 0.950 . S
H705 C717 0.950 . S
H706 C714 0.950 . S
H707 C716 0.950 1_545 S
H708 C718 0.950 . S
H709 C720 0.950 . S
H710 C722 0.950 . S
H711 C723 0.950 . S
C712 H704 0.950 . S
C712 C713 1.386 . S
C712 C714 1.391 . S
C713 C712 1.386 . S
C713 C717 1.393 . S
C714 H706 0.950 . S
C714 C712 1.391 . S
C714 C715 1.393 1_565 S
C715 C714 1.393 1_545 S
C715 C716 1.396 1_545 S
C715 C721 1.501 . S
C716 H707 0.950 1_565 S
C716 C715 1.396 1_565 S
C716 C717 1.391 . S
C717 H705 0.950 . S
C717 C713 1.393 . S
C717 C716 1.391 . S
C718 H708 0.950 . S
C718 C719 1.386 . S
C718 C720 1.391 . S
C719 C718 1.386 . S
C719 C723 1.393 . S
C720 H709 0.950 . S
C720 C718 1.391 . S
C720 C721 1.400 . S
C721 C715 1.501 . S
C721 C720 1.400 . S
C721 C722 1.398 . S
C722 H710 0.950 . S
C722 C721 1.398 . S
C722 C723 1.391 . S
C723 H711 0.950 . S
C723 C719 1.393 . S
C723 C722 1.391 . S
H724 C732 0.950 . S
H725 C737 0.950 . S
H726 C734 0.950 . S
H727 C736 0.950 . S
H728 C738 0.950 . S
H729 C740 0.950 . S
H730 C742 0.950 1_455 S
H731 C743 0.950 . S
C732 H724 0.950 . S
C732 C733 1.386 . S
C732 C734 1.391 . S
C733 C732 1.386 . S
C733 C737 1.393 . S
C734 H726 0.950 . S
C734 C732 1.391 . S
C734 C735 1.400 1_455 S
C735 C734 1.400 1_655 S
C735 C736 1.398 . S
C735 C741 1.491 . S
C736 H727 0.950 . S
C736 C735 1.398 . S
C736 C737 1.391 1_655 S
C737 H725 0.950 . S
C737 C733 1.393 . S
C737 C736 1.391 1_455 S
C738 H728 0.950 . S
C738 C739 1.386 . S
C738 C740 1.391 . S
C739 C738 1.386 . S
C739 C743 1.393 . S
C740 H729 0.950 . S
C740 C738 1.391 . S
C740 C741 1.400 . S
C741 C735 1.491 . S
C741 C740 1.400 . S
C741 C742 1.398 . S
C742 H730 0.950 1_655 S
C742 C741 1.398 . S
C742 C743 1.391 . S
C743 H731 0.950 . S
C743 C739 1.393 . S
C743 C742 1.391 . S
H744 C752 0.950 . S
H745 C757 0.950 . S
H746 C754 0.950 . S
H747 C756 0.950 . S
H748 C758 0.950 . S
H749 C760 0.950 . S
H750 C762 0.950 . S
H751 C763 0.950 . S
C752 H744 0.950 . S
C752 C753 1.386 . S
C752 C754 1.391 . S
C753 C752 1.386 . S
C753 C757 1.393 . S
C754 H746 0.950 . S
C754 C752 1.391 . S
C754 C755 1.400 . S
C755 C754 1.400 . S
C755 C756 1.398 . S
C755 C761 1.491 . S
C756 H747 0.950 . S
C756 C755 1.398 . S
C756 C757 1.391 . S
C757 H745 0.950 . S
C757 C753 1.393 . S
C757 C756 1.391 . S
C758 H748 0.950 . S
C758 C759 1.386 . S
C758 C760 1.391 . S
C759 C758 1.386 . S
C759 C763 1.393 . S
C760 H749 0.950 . S
C760 C758 1.391 . S
C760 C761 1.400 . S
C761 C755 1.491 . S
C761 C760 1.400 . S
C761 C762 1.398 . S
C762 H750 0.950 . S
C762 C761 1.398 . S
C762 C763 1.391 . S
C763 H751 0.950 . S
C763 C759 1.393 . S
C763 C762 1.391 . S
H764 C772 0.950 . S
H765 C777 0.950 . S
H766 C774 0.950 . S
H767 C776 0.950 . S
H768 C778 0.950 . S
H769 C780 0.950 . S
H770 C782 0.950 . S
H771 C783 0.950 . S
C772 H764 0.950 . S
C772 C773 1.386 . S
C772 C774 1.391 . S
C773 C772 1.386 . S
C773 C777 1.393 . S
C774 H766 0.950 . S
C774 C772 1.391 . S
C774 C775 1.400 . S
C775 C774 1.400 . S
C775 C776 1.398 . S
C775 C781 1.491 1_554 S
C776 H767 0.950 . S
C776 C775 1.398 . S
C776 C777 1.391 . S
C777 H765 0.950 . S
C777 C773 1.393 . S
C777 C776 1.391 . S
C778 H768 0.950 . S
C778 C779 1.386 . S
C778 C780 1.391 . S
C779 C778 1.386 . S
C779 C783 1.393 . S
C780 H769 0.950 . S
C780 C778 1.391 . S
C780 C781 1.400 . S
C781 C775 1.491 1_556 S
C781 C780 1.400 . S
C781 C782 1.398 . S
C782 H770 0.950 . S
C782 C781 1.398 . S
C782 C783 1.391 . S
C783 H771 0.950 . S
C783 C779 1.393 . S
C783 C782 1.391 . S
H784 C792 0.950 . S
H785 C797 0.950 . S
H786 C794 0.950 . S
H787 C796 0.950 1_565 S
H788 C798 0.950 . S
H789 C800 0.950 . S
H790 C802 0.950 . S
H791 C803 0.956 . S
C792 H784 0.950 . S
C792 C793 1.386 . S
C792 C794 1.391 . S
C793 C792 1.386 . S
C793 C797 1.393 . S
C794 H786 0.950 . S
C794 C792 1.391 . S
C794 C795 1.400 . S
C795 C794 1.400 . S
C795 C796 1.398 . S
C795 C801 1.491 . S
C796 H787 0.950 1_545 S
C796 C795 1.398 . S
C796 C797 1.391 . S
C797 H785 0.950 . S
C797 C793 1.393 . S
C797 C796 1.391 . S
C798 H788 0.950 . S
C798 C799 1.386 . S
C798 C800 1.391 . S
C799 C798 1.386 . S
C799 C803 1.393 . S
C800 H789 0.950 . S
C800 C798 1.391 . S
C800 C801 1.400 1_565 S
C801 C795 1.491 . S
C801 C800 1.400 1_545 S
C801 C802 1.398 . S
C802 H790 0.950 . S
C802 C801 1.398 . S
C802 C803 1.391 1_545 S
C803 H791 0.956 . S
C803 C799 1.393 . S
C803 C802 1.391 1_565 S
H804 C812 0.950 . S
H805 C817 0.950 . S
H806 C814 0.950 1_455 S
H807 C816 0.950 . S
H808 C818 0.950 1_655 S
H809 C820 0.950 . S
H810 C822 0.950 . S
H811 C823 0.950 . S
C812 H804 0.950 . S
C812 C813 1.386 . S
C812 C814 1.391 . S
C813 C812 1.386 . S
C813 C817 1.393 . S
C814 H806 0.950 1_655 S
C814 C812 1.391 . S
C814 C815 1.400 . S
C815 C814 1.400 . S
C815 C816 1.398 . S
C815 C821 1.501 1_556 S
C816 H807 0.950 . S
C816 C815 1.398 . S
C816 C817 1.391 . S
C817 H805 0.950 . S
C817 C813 1.393 . S
C817 C816 1.391 . S
C818 H808 0.950 1_455 S
C818 C819 1.386 . S
C818 C820 1.391 1_455 S
C819 C818 1.386 . S
C819 C823 1.393 . S
C820 H809 0.950 . S
C820 C818 1.391 1_655 S
C820 C821 1.407 . S
C821 C815 1.501 1_554 S
C821 C820 1.407 . S
C821 C822 1.381 1_655 S
C822 H810 0.950 . S
C822 C821 1.381 1_455 S
C822 C823 1.391 . S
C823 H811 0.950 . S
C823 C819 1.393 . S
C823 C822 1.391 . S
H824 C832 0.950 . S
H825 C837 0.950 . S
H826 C834 0.950 . S
H827 C836 0.950 . S
H828 C838 0.950 . S
H829 C840 0.950 . S
H830 C842 0.950 . S
H831 C843 0.950 . S
C832 H824 0.950 . S
C832 C833 1.386 . S
C832 C834 1.391 . S
C833 C832 1.386 . S
C833 C837 1.393 . S
C834 H826 0.950 . S
C834 C832 1.391 . S
C834 C835 1.400 . S
C835 C834 1.400 . S
C835 C836 1.398 . S
C835 C841 1.491 . S
C836 H827 0.950 . S
C836 C835 1.398 . S
C836 C837 1.391 . S
C837 H825 0.950 . S
C837 C833 1.393 . S
C837 C836 1.391 . S
C838 H828 0.950 . S
C838 C839 1.386 . S
C838 C840 1.391 . S
C839 C838 1.386 . S
C839 C843 1.393 . S
C840 H829 0.950 . S
C840 C838 1.391 . S
C840 C841 1.400 . S
C841 C835 1.491 . S
C841 C840 1.400 . S
C841 C842 1.398 . S
C842 H830 0.950 . S
C842 C841 1.398 . S
C842 C843 1.391 . S
C843 H831 0.950 . S
C843 C839 1.393 . S
C843 C842 1.391 . S
H844 C852 0.950 . S
H845 C857 0.950 . S
H846 C854 0.950 . S
H847 C856 0.950 . S
H848 C858 0.950 . S
H849 C860 0.950 . S
H850 C862 0.950 . S
H851 C863 0.950 . S
C852 H844 0.950 . S
C852 C853 1.386 . S
C852 C854 1.391 . S
C853 C852 1.386 . S
C853 C857 1.393 . S
C854 H846 0.950 . S
C854 C852 1.391 . S
C854 C855 1.400 . S
C855 C854 1.400 . S
C855 C856 1.398 . S
C855 C861 1.491 . S
C856 H847 0.950 . S
C856 C855 1.398 . S
C856 C857 1.391 . S
C857 H845 0.950 . S
C857 C853 1.393 . S
C857 C856 1.391 . S
C858 H848 0.950 . S
C858 C859 1.386 . S
C858 C860 1.391 . S
C859 C858 1.386 . S
C859 C863 1.393 . S
C860 H849 0.950 . S
C860 C858 1.391 . S
C860 C861 1.400 . S
C861 C855 1.491 . S
C861 C860 1.400 . S
C861 C862 1.398 . S
C862 H850 0.950 . S
C862 C861 1.398 . S
C862 C863 1.391 . S
C863 H851 0.950 . S
C863 C859 1.393 . S
C863 C862 1.391 . S
H864 C872 0.950 . S
H865 C877 0.950 . S
H866 C874 0.950 . S
H867 C876 0.950 . S
H868 C878 0.950 . S
H869 C880 0.950 . S
H870 C882 0.950 . S
H871 C883 0.950 . S
C872 H864 0.950 . S
C872 C873 1.386 . S
C872 C874 1.391 . S
C873 C872 1.386 . S
C873 C877 1.393 . S
C874 H866 0.950 . S
C874 C872 1.391 . S
C874 C875 1.400 . S
C875 C874 1.400 . S
C875 C876 1.398 . S
C875 C881 1.491 . S
C876 H867 0.950 . S
C876 C875 1.398 . S
C876 C877 1.391 . S
C877 H865 0.950 . S
C877 C873 1.393 . S
C877 C876 1.391 . S
C878 H868 0.950 . S
C878 C879 1.386 . S
C878 C880 1.391 . S
C879 C878 1.386 . S
C879 C883 1.393 . S
C880 H869 0.950 . S
C880 C878 1.391 . S
C880 C881 1.400 . S
C881 C875 1.491 . S
C881 C880 1.400 . S
C881 C882 1.398 . S
C882 H870 0.950 . S
C882 C881 1.398 . S
C882 C883 1.391 . S
C883 H871 0.950 . S
C883 C879 1.393 . S
C883 C882 1.391 . S
H884 C892 0.950 . S
H885 C897 0.950 . S
H886 C894 0.950 . S
H887 C896 0.950 . S
H888 C898 0.950 . S
H889 C900 0.950 . S
H890 C902 0.950 . S
H891 C903 0.950 . S
C892 H884 0.950 . S
C892 C893 1.386 . S
C892 C894 1.391 . S
C893 C892 1.386 . S
C893 C897 1.393 . S
C894 H886 0.950 . S
C894 C892 1.391 . S
C894 C895 1.400 . S
C895 C894 1.400 . S
C895 C896 1.398 . S
C895 C901 1.491 1_554 S
C896 H887 0.950 . S
C896 C895 1.398 . S
C896 C897 1.391 . S
C897 H885 0.950 . S
C897 C893 1.393 . S
C897 C896 1.391 . S
C898 H888 0.950 . S
C898 C899 1.386 . S
C898 C900 1.391 . S
C899 C898 1.386 . S
C899 C903 1.393 . S
C900 H889 0.950 . S
C900 C898 1.391 . S
C900 C901 1.400 . S
C901 C895 1.491 1_556 S
C901 C900 1.400 . S
C901 C902 1.398 . S
C902 H890 0.950 . S
C902 C901 1.398 . S
C902 C903 1.391 . S
C903 H891 0.950 . S
C903 C899 1.393 . S
C903 C902 1.391 . S
H904 C912 0.950 . S
H905 C917 0.950 . S
H906 C914 0.950 . S
H907 C916 0.950 . S
H908 C918 0.950 . S
H909 C920 0.950 . S
H910 C922 0.950 . S
H911 C923 0.950 1_545 S
C912 H904 0.950 . S
C912 C913 1.386 . S
C912 C914 1.391 . S
C913 C912 1.386 . S
C913 C917 1.393 1_545 S
C914 H906 0.950 . S
C914 C912 1.391 . S
C914 C915 1.362 1_545 S
C915 C914 1.362 1_565 S
C915 C916 1.421 . S
C915 C921 1.506 . S
C916 H907 0.950 . S
C916 C915 1.421 . S
C916 C917 1.391 . S
C917 H905 0.950 . S
C917 C913 1.393 1_565 S
C917 C916 1.391 . S
C918 H908 0.950 . S
C918 C919 1.386 . S
C918 C920 1.391 . S
C919 C918 1.386 . S
C919 C923 1.393 . S
C920 H909 0.950 . S
C920 C918 1.391 . S
C920 C921 1.400 . S
C921 C915 1.506 . S
C921 C920 1.400 . S
C921 C922 1.398 1_565 S
C922 H910 0.950 . S
C922 C921 1.398 1_545 S
C922 C923 1.391 1_545 S
C923 H911 0.950 1_565 S
C923 C919 1.393 . S
C923 C922 1.391 1_565 S
H924 C932 0.950 . S
H925 C937 0.950 . S
H926 C934 0.950 . S
H927 C936 0.950 . S
H928 C938 0.950 . S
H929 C940 0.950 . S
H930 C942 0.950 . S
H931 C943 0.950 . S
C932 H924 0.950 . S
C932 C933 1.386 . S
C932 C934 1.391 . S
C933 C932 1.386 . S
C933 C937 1.393 . S
C934 H926 0.950 . S
C934 C932 1.391 . S
C934 C935 1.400 . S
C935 C934 1.400 . S
C935 C936 1.398 . S
C935 C941 1.491 . S
C936 H927 0.950 . S
C936 C935 1.398 . S
C936 C937 1.391 . S
C937 H925 0.950 . S
C937 C933 1.393 . S
C937 C936 1.391 . S
C938 H928 0.950 . S
C938 C939 1.386 . S
C938 C940 1.391 1_655 S
C939 C938 1.386 . S
C939 C943 1.393 . S
C940 H929 0.950 . S
C940 C938 1.391 1_455 S
C940 C941 1.400 . S
C941 C935 1.491 . S
C941 C940 1.400 . S
C941 C942 1.398 1_455 S
C942 H930 0.950 . S
C942 C941 1.398 1_655 S
C942 C943 1.391 . S
C943 H931 0.950 . S
C943 C939 1.393 . S
C943 C942 1.391 . S
H944 C952 0.950 . S
H945 C957 0.950 . S
H946 C954 0.950 . S
H947 C956 0.950 . S
H948 C958 0.950 . S
H949 C960 0.950 . S
H950 C962 0.950 . S
H951 C963 0.950 . S
C952 H944 0.950 . S
C952 C953 1.386 . S
C952 C954 1.391 . S
C953 C952 1.386 . S
C953 C957 1.393 . S
C954 H946 0.950 . S
C954 C952 1.391 . S
C954 C955 1.400 . S
C955 C954 1.400 . S
C955 C956 1.398 . S
C955 C961 1.491 . S
C956 H947 0.950 . S
C956 C955 1.398 . S
C956 C957 1.391 . S
C957 H945 0.950 . S
C957 C953 1.393 . S
C957 C956 1.391 . S
C958 H948 0.950 . S
C958 C959 1.386 . S
C958 C960 1.391 . S
C959 C958 1.386 . S
C959 C963 1.393 . S
C960 H949 0.950 . S
C960 C958 1.391 . S
C960 C961 1.400 . S
C961 C955 1.491 . S
C961 C960 1.400 . S
C961 C962 1.398 . S
C962 H950 0.950 . S
C962 C961 1.398 . S
C962 C963 1.391 . S
C963 H951 0.950 . S
C963 C959 1.393 . S
C963 C962 1.391 . S
H964 C972 0.950 . S
H965 C977 0.950 . S
H966 C974 0.950 . S
H967 C976 0.950 . S
H968 C978 0.950 . S
H969 C980 0.950 . S
H970 C982 0.950 . S
H971 C983 0.950 . S
C972 H964 0.950 . S
C972 C973 1.386 . S
C972 C974 1.391 . S
C973 C972 1.386 . S
C973 C977 1.393 . S
C974 H966 0.950 . S
C974 C972 1.391 . S
C974 C975 1.400 . S
C975 C974 1.400 . S
C975 C976 1.398 . S
C975 C981 1.491 . S
C976 H967 0.950 . S
C976 C975 1.398 . S
C976 C977 1.391 . S
C977 H965 0.950 . S
C977 C973 1.393 . S
C977 C976 1.391 . S
C978 H968 0.950 . S
C978 C979 1.386 . S
C978 C980 1.391 . S
C979 C978 1.386 . S
C979 C983 1.393 . S
C980 H969 0.950 . S
C980 C978 1.391 . S
C980 C981 1.400 . S
C981 C975 1.491 . S
C981 C980 1.400 . S
C981 C982 1.398 . S
C982 H970 0.950 . S
C982 C981 1.398 . S
C982 C983 1.391 . S
C983 H971 0.950 . S
C983 C979 1.393 . S
C983 C982 1.391 . S
H984 C992 0.950 . S
H985 C997 0.950 . S
H986 C994 0.950 . S
H987 C996 0.950 . S
H988 C998 0.950 . S
H989 C1000 0.950 . S
H990 C1002 0.950 1_565 S
H991 C1003 0.950 . S
C992 H984 0.950 . S
C992 C993 1.386 . S
C992 C994 1.391 . S
C993 C992 1.386 . S
C993 C997 1.393 . S
C994 H986 0.950 . S
C994 C992 1.391 . S
C994 C995 1.400 . S
C995 C994 1.400 . S
C995 C996 1.398 . S
C995 C1001 1.501 . S
C996 H987 0.950 . S
C996 C995 1.398 . S
C996 C997 1.391 . S
C997 H985 0.950 . S
C997 C993 1.393 . S
C997 C996 1.391 . S
C998 H988 0.950 . S
C998 C999 1.386 . S
C998 C1000 1.391 . S
C999 C998 1.386 . S
C999 C1003 1.393 . S
C1000 H989 0.950 . S
C1000 C998 1.391 . S
C1000 C1001 1.392 1_545 S
C1001 C995 1.501 . S
C1001 C1000 1.392 1_565 S
C1001 C1002 1.397 1_565 S
C1002 H990 0.950 1_545 S
C1002 C1001 1.397 1_545 S
C1002 C1003 1.391 . S
C1003 H991 0.950 . S
C1003 C999 1.393 . S
C1003 C1002 1.391 . S
H1004 C1012 0.950 . S
H1005 C1017 0.950 . S
H1006 C1014 0.950 . S
H1007 C1016 0.950 . S
H1008 C1018 0.950 . S
H1009 C1020 0.950 . S
H1010 C1022 0.950 . S
H1011 C1023 0.950 1_655 S
C1012 H1004 0.950 . S
C1012 C1013 1.386 . S
C1012 C1014 1.391 . S
C1013 C1012 1.386 . S
C1013 C1017 1.393 1_655 S
C1014 H1006 0.950 . S
C1014 C1012 1.391 . S
C1014 C1015 1.400 1_655 S
C1015 C1014 1.400 1_455 S
C1015 C1016 1.398 . S
C1015 C1021 1.491 1_554 S
C1016 H1007 0.950 . S
C1016 C1015 1.398 . S
C1016 C1017 1.391 . S
C1017 H1005 0.950 . S
C1017 C1013 1.393 1_455 S
C1017 C1016 1.391 . S
C1018 H1008 0.950 . S
C1018 C1019 1.386 . S
C1018 C1020 1.391 . S
C1019 C1018 1.386 . S
C1019 C1023 1.393 . S
C1020 H1009 0.950 . S
C1020 C1018 1.391 . S
C1020 C1021 1.400 . S
C1021 C1015 1.491 1_556 S
C1021 C1020 1.400 . S
C1021 C1022 1.398 1_455 S
C1022 H1010 0.950 . S
C1022 C1021 1.398 1_655 S
C1022 C1023 1.391 1_655 S
C1023 H1011 0.950 1_455 S
C1023 C1019 1.393 . S
C1023 C1022 1.391 1_455 S
H1024 C1032 0.950 . S
H1025 C1037 0.950 . S
H1026 C1034 0.950 . S
H1027 C1036 0.950 . S
H1028 C1038 0.950 . S
H1029 C1040 0.950 . S
H1030 C1042 0.950 . S
H1031 C1043 0.950 . S
C1032 H1024 0.950 . S
C1032 C1033 1.386 . S
C1032 C1034 1.391 . S
C1033 C1032 1.386 . S
C1033 C1037 1.393 . S
C1034 H1026 0.950 . S
C1034 C1032 1.391 . S
C1034 C1035 1.400 . S
C1035 C1034 1.400 . S
C1035 C1036 1.398 . S
C1035 C1041 1.491 . S
C1036 H1027 0.950 . S
C1036 C1035 1.398 . S
C1036 C1037 1.391 . S
C1037 H1025 0.950 . S
C1037 C1033 1.393 . S
C1037 C1036 1.391 . S
C1038 H1028 0.950 . S
C1038 C1039 1.386 . S
C1038 C1040 1.391 . S
C1039 C1038 1.386 . S
C1039 C1043 1.393 . S
C1040 H1029 0.950 . S
C1040 C1038 1.391 . S
C1040 C1041 1.400 . S
C1041 C1035 1.491 . S
C1041 C1040 1.400 . S
C1041 C1042 1.398 . S
C1042 H1030 0.950 . S
C1042 C1041 1.398 . S
C1042 C1043 1.391 . S
C1043 H1031 0.950 . S
C1043 C1039 1.393 . S
C1043 C1042 1.391 . S
H1044 C1052 0.950 . S
H1045 C1057 0.950 . S
H1046 C1054 0.950 . S
H1047 C1056 0.950 . S
H1048 C1058 0.950 . S
H1049 C1060 0.950 . S
H1050 C1062 0.950 . S
H1051 C1063 0.950 . S
C1052 H1044 0.950 . S
C1052 C1053 1.386 . S
C1052 C1054 1.391 . S
C1053 C1052 1.386 . S
C1053 C1057 1.393 . S
C1054 H1046 0.950 . S
C1054 C1052 1.391 . S
C1054 C1055 1.400 . S
C1055 C1054 1.400 . S
C1055 C1056 1.398 . S
C1055 C1061 1.491 . S
C1056 H1047 0.950 . S
C1056 C1055 1.398 . S
C1056 C1057 1.391 . S
C1057 H1045 0.950 . S
C1057 C1053 1.393 . S
C1057 C1056 1.391 . S
C1058 H1048 0.950 . S
C1058 C1059 1.386 . S
C1058 C1060 1.391 . S
C1059 C1058 1.386 . S
C1059 C1063 1.393 . S
C1060 H1049 0.950 . S
C1060 C1058 1.391 . S
C1060 C1061 1.400 . S
C1061 C1055 1.491 . S
C1061 C1060 1.400 . S
C1061 C1062 1.398 . S
C1062 H1050 0.950 . S
C1062 C1061 1.398 . S
C1062 C1063 1.391 . S
C1063 H1051 0.950 . S
C1063 C1059 1.393 . S
C1063 C1062 1.391 . S
H1064 C1072 0.950 . S
H1065 C1077 0.950 . S
H1066 C1074 0.950 . S
H1067 C1076 0.950 . S
H1068 C1078 0.950 . S
H1069 C1080 0.950 . S
H1070 C1082 0.950 . S
H1071 C1083 0.950 . S
C1072 H1064 0.950 . S
C1072 C1073 1.386 . S
C1072 C1074 1.391 . S
C1073 C1072 1.386 . S
C1073 C1077 1.393 . S
C1074 H1066 0.950 . S
C1074 C1072 1.391 . S
C1074 C1075 1.400 . S
C1075 C1074 1.400 . S
C1075 C1076 1.398 . S
C1075 C1081 1.491 . S
C1076 H1067 0.950 . S
C1076 C1075 1.398 . S
C1076 C1077 1.391 . S
C1077 H1065 0.950 . S
C1077 C1073 1.393 . S
C1077 C1076 1.391 . S
C1078 H1068 0.950 . S
C1078 C1079 1.386 . S
C1078 C1080 1.391 . S
C1079 C1078 1.386 . S
C1079 C1083 1.393 . S
C1080 H1069 0.950 . S
C1080 C1078 1.391 . S
C1080 C1081 1.400 . S
C1081 C1075 1.491 . S
C1081 C1080 1.400 . S
C1081 C1082 1.398 . S
C1082 H1070 0.950 . S
C1082 C1081 1.398 . S
C1082 C1083 1.391 . S
C1083 H1071 0.950 . S
C1083 C1079 1.393 . S
C1083 C1082 1.391 . S
H1084 C1092 0.950 . S
H1085 C1097 0.950 . S
H1086 C1094 0.950 . S
H1087 C1096 0.950 . S
H1088 C1098 0.950 . S
H1089 C1100 0.950 . S
H1090 C1102 0.950 . S
H1091 C1103 0.950 . S
C1092 H1084 0.950 . S
C1092 C1093 1.386 . S
C1092 C1094 1.391 . S
C1093 C1092 1.386 . S
C1093 C1097 1.393 . S
C1094 H1086 0.950 . S
C1094 C1092 1.391 . S
C1094 C1095 1.400 . S
C1095 C1094 1.400 . S
C1095 C1096 1.398 . S
C1095 C1101 1.491 . S
C1096 H1087 0.950 . S
C1096 C1095 1.398 . S
C1096 C1097 1.391 . S
C1097 H1085 0.950 . S
C1097 C1093 1.393 . S
C1097 C1096 1.391 . S
C1098 H1088 0.950 . S
C1098 C1099 1.386 . S
C1098 C1100 1.391 . S
C1099 C1098 1.386 . S
C1099 C1103 1.393 . S
C1100 H1089 0.950 . S
C1100 C1098 1.391 . S
C1100 C1101 1.400 . S
C1101 C1095 1.491 . S
C1101 C1100 1.400 . S
C1101 C1102 1.398 . S
C1102 H1090 0.950 . S
C1102 C1101 1.398 . S
C1102 C1103 1.391 . S
C1103 H1091 0.950 . S
C1103 C1099 1.393 . S
C1103 C1102 1.391 . S
H1104 C1112 0.950 . S
H1105 C1117 0.950 . S
H1106 C1114 0.950 . S
H1107 C1116 0.950 . S
H1108 C1118 0.950 . S
H1109 C1120 0.950 . S
H1110 C1122 0.950 . S
H1111 C1123 0.950 . S
C1112 H1104 0.950 . S
C1112 C1113 1.386 . S
C1112 C1114 1.391 . S
C1113 C1112 1.386 . S
C1113 C1117 1.393 . S
C1114 H1106 0.950 . S
C1114 C1112 1.391 . S
C1114 C1115 1.400 . S
C1115 C1114 1.400 . S
C1115 C1116 1.398 . S
C1115 C1121 1.491 . S
C1116 H1107 0.950 . S
C1116 C1115 1.398 . S
C1116 C1117 1.391 . S
C1117 H1105 0.950 . S
C1117 C1113 1.393 . S
C1117 C1116 1.391 . S
C1118 H1108 0.950 . S
C1118 C1119 1.386 . S
C1118 C1120 1.391 . S
C1119 C1118 1.386 . S
C1119 C1123 1.393 . S
C1120 H1109 0.950 . S
C1120 C1118 1.391 . S
C1120 C1121 1.400 . S
C1121 C1115 1.491 . S
C1121 C1120 1.400 . S
C1121 C1122 1.398 . S
C1122 H1110 0.950 . S
C1122 C1121 1.398 . S
C1122 C1123 1.391 . S
C1123 H1111 0.950 . S
C1123 C1119 1.393 . S
C1123 C1122 1.391 . S
H1124 C1132 0.950 . S
H1125 C1137 0.950 . S
H1126 C1134 0.950 . S
H1127 C1136 0.950 . S
H1128 C1138 0.950 . S
H1129 C1140 0.950 . S
H1130 C1142 0.950 . S
H1131 C1143 0.973 . S
C1132 H1124 0.950 . S
C1132 C1133 1.386 . S
C1132 C1134 1.391 . S
C1133 C1132 1.386 . S
C1133 C1137 1.393 . S
C1134 H1126 0.950 . S
C1134 C1132 1.391 . S
C1134 C1135 1.400 . S
C1135 C1134 1.400 . S
C1135 C1136 1.398 . S
C1135 C1141 1.491 . S
C1136 H1127 0.950 . S
C1136 C1135 1.398 . S
C1136 C1137 1.391 . S
C1137 H1125 0.950 . S
C1137 C1133 1.393 . S
C1137 C1136 1.391 . S
C1138 H1128 0.950 . S
C1138 C1139 1.386 . S
C1138 C1140 1.391 . S
C1139 C1138 1.386 . S
C1139 C1143 1.393 . S
C1140 H1129 0.950 . S
C1140 C1138 1.391 . S
C1140 C1141 1.400 . S
C1141 C1135 1.491 . S
C1141 C1140 1.400 . S
C1141 C1142 1.398 . S
C1142 H1130 0.950 . S
C1142 C1141 1.398 . S
C1142 C1143 1.391 . S
C1143 H1131 0.973 . S
C1143 C1139 1.393 . S
C1143 C1142 1.391 . S
H1144 C1152 0.950 . S
H1145 C1157 0.950 . S
H1146 C1154 0.950 . S
H1147 C1156 0.950 . S
H1148 C1158 0.950 . S
H1149 C1160 0.950 . S
H1150 C1162 0.950 . S
H1151 C1163 0.950 . S
C1152 H1144 0.950 . S
C1152 C1153 1.386 . S
C1152 C1154 1.391 . S
C1153 C1152 1.386 . S
C1153 C1157 1.393 . S
C1154 H1146 0.950 . S
C1154 C1152 1.391 . S
C1154 C1155 1.400 . S
C1155 C1154 1.400 . S
C1155 C1156 1.398 . S
C1155 C1161 1.491 . S
C1156 H1147 0.950 . S
C1156 C1155 1.398 . S
C1156 C1157 1.391 . S
C1157 H1145 0.950 . S
C1157 C1153 1.393 . S
C1157 C1156 1.391 . S
C1158 H1148 0.950 . S
C1158 C1159 1.386 . S
C1158 C1160 1.391 . S
C1159 C1158 1.386 . S
C1159 C1163 1.393 . S
C1160 H1149 0.950 . S
C1160 C1158 1.391 . S
C1160 C1161 1.400 . S
C1161 C1155 1.491 . S
C1161 C1160 1.400 . S
C1161 C1162 1.398 . S
C1162 H1150 0.950 . S
C1162 C1161 1.398 . S
C1162 C1163 1.391 . S
C1163 H1151 0.950 . S
C1163 C1159 1.393 . S
C1163 C1162 1.391 . S
H1164 C1172 0.950 . S
H1165 C1177 0.950 . S
H1166 C1174 0.950 . S
H1167 C1176 0.950 . S
H1168 C1178 0.950 . S
H1169 C1180 0.950 . S
H1170 C1182 0.950 . S
H1171 C1183 0.950 . S
C1172 H1164 0.950 . S
C1172 C1173 1.386 . S
C1172 C1174 1.391 . S
C1173 C1172 1.386 . S
C1173 C1177 1.393 . S
C1174 H1166 0.950 . S
C1174 C1172 1.391 . S
C1174 C1175 1.400 . S
C1175 C1174 1.400 . S
C1175 C1176 1.398 . S
C1175 C1181 1.491 . S
C1176 H1167 0.950 . S
C1176 C1175 1.398 . S
C1176 C1177 1.391 . S
C1177 H1165 0.950 . S
C1177 C1173 1.393 . S
C1177 C1176 1.391 . S
C1178 H1168 0.950 . S
C1178 C1179 1.386 . S
C1178 C1180 1.391 . S
C1179 C1178 1.386 . S
C1179 C1183 1.393 . S
C1180 H1169 0.950 . S
C1180 C1178 1.391 . S
C1180 C1181 1.400 . S
C1181 C1175 1.491 . S
C1181 C1180 1.400 . S
C1181 C1182 1.398 . S
C1182 H1170 0.950 . S
C1182 C1181 1.398 . S
C1182 C1183 1.391 . S
C1183 H1171 0.950 . S
C1183 C1179 1.393 . S
C1183 C1182 1.391 . S
H1184 C1192 0.950 . S
H1185 C1197 0.950 . S
H1186 C1194 0.950 . S
H1187 C1196 0.950 . S
H1188 C1198 0.950 . S
H1189 C1200 0.950 . S
H1190 C1202 0.950 . S
H1191 C1203 0.950 . S
C1192 H1184 0.950 . S
C1192 C1193 1.386 . S
C1192 C1194 1.391 . S
C1193 C1192 1.386 . S
C1193 C1197 1.393 . S
C1194 H1186 0.950 . S
C1194 C1192 1.391 . S
C1194 C1195 1.400 . S
C1195 C1194 1.400 . S
C1195 C1196 1.398 . S
C1195 C1201 1.491 . S
C1196 H1187 0.950 . S
C1196 C1195 1.398 . S
C1196 C1197 1.391 . S
C1197 H1185 0.950 . S
C1197 C1193 1.393 . S
C1197 C1196 1.391 . S
C1198 H1188 0.950 . S
C1198 C1199 1.386 . S
C1198 C1200 1.391 . S
C1199 C1198 1.386 . S
C1199 C1203 1.393 . S
C1200 H1189 0.950 . S
C1200 C1198 1.391 . S
C1200 C1201 1.400 . S
C1201 C1195 1.491 . S
C1201 C1200 1.400 . S
C1201 C1202 1.398 . S
C1202 H1190 0.950 . S
C1202 C1201 1.398 . S
C1202 C1203 1.391 . S
C1203 H1191 0.950 . S
C1203 C1199 1.393 . S
C1203 C1202 1.391 . S
H1204 C1212 0.950 . S
H1205 C1217 0.950 . S
H1206 C1214 0.950 . S
H1207 C1216 0.950 . S
H1208 C1218 0.950 . S
H1209 C1220 0.950 . S
H1210 C1222 0.950 . S
H1211 C1223 0.950 . S
C1212 H1204 0.950 . S
C1212 C1213 1.386 . S
C1212 C1214 1.391 . S
C1213 C1212 1.386 . S
C1213 C1217 1.393 . S
C1214 H1206 0.950 . S
C1214 C1212 1.391 . S
C1214 C1215 1.400 . S
C1215 C1214 1.400 . S
C1215 C1216 1.398 . S
C1215 C1221 1.491 . S
C1216 H1207 0.950 . S
C1216 C1215 1.398 . S
C1216 C1217 1.391 . S
C1217 H1205 0.950 . S
C1217 C1213 1.393 . S
C1217 C1216 1.391 . S
C1218 H1208 0.950 . S
C1218 C1219 1.386 . S
C1218 C1220 1.391 . S
C1219 C1218 1.386 . S
C1219 C1223 1.393 . S
C1220 H1209 0.950 . S
C1220 C1218 1.391 . S
C1220 C1221 1.400 . S
C1221 C1215 1.491 . S
C1221 C1220 1.400 . S
C1221 C1222 1.398 . S
C1222 H1210 0.950 . S
C1222 C1221 1.398 . S
C1222 C1223 1.391 . S
C1223 H1211 0.950 . S
C1223 C1219 1.393 . S
C1223 C1222 1.391 . S
H1224 C1232 0.950 . S
H1225 C1237 0.950 . S
H1226 C1234 0.950 . S
H1227 C1236 0.950 . S
H1228 C1238 0.950 . S
H1229 C1240 0.950 . S
H1230 C1242 0.950 . S
H1231 C1243 0.950 . S
C1232 H1224 0.950 . S
C1232 C1233 1.386 . S
C1232 C1234 1.391 . S
C1233 C1232 1.386 . S
C1233 C1237 1.393 . S
C1234 H1226 0.950 . S
C1234 C1232 1.391 . S
C1234 C1235 1.400 . S
C1235 C1234 1.400 . S
C1235 C1236 1.398 . S
C1235 C1241 1.491 . S
C1236 H1227 0.950 . S
C1236 C1235 1.398 . S
C1236 C1237 1.391 . S
C1237 H1225 0.950 . S
C1237 C1233 1.393 . S
C1237 C1236 1.391 . S
C1238 H1228 0.950 . S
C1238 C1239 1.386 . S
C1238 C1240 1.391 . S
C1239 C1238 1.386 . S
C1239 C1243 1.393 . S
C1240 H1229 0.950 . S
C1240 C1238 1.391 . S
C1240 C1241 1.400 . S
C1241 C1235 1.491 . S
C1241 C1240 1.400 . S
C1241 C1242 1.398 . S
C1242 H1230 0.950 . S
C1242 C1241 1.398 . S
C1242 C1243 1.391 . S
C1243 H1231 0.950 . S
C1243 C1239 1.393 . S
C1243 C1242 1.391 . S
H1244 C1252 0.950 . S
H1245 C1257 0.950 . S
H1246 C1254 0.950 . S
H1247 C1256 0.950 . S
H1248 C1258 0.950 . S
H1249 C1260 0.950 . S
H1250 C1262 0.950 . S
H1251 C1263 0.950 . S
C1252 H1244 0.950 . S
C1252 C1253 1.386 . S
C1252 C1254 1.391 . S
C1253 C1252 1.386 . S
C1253 C1257 1.393 . S
C1254 H1246 0.950 . S
C1254 C1252 1.391 . S
C1254 C1255 1.400 . S
C1255 C1254 1.400 . S
C1255 C1256 1.398 . S
C1255 C1261 1.491 . S
C1256 H1247 0.950 . S
C1256 C1255 1.398 . S
C1256 C1257 1.391 . S
C1257 H1245 0.950 . S
C1257 C1253 1.393 . S
C1257 C1256 1.391 . S
C1258 H1248 0.950 . S
C1258 C1259 1.386 . S
C1258 C1260 1.391 . S
C1259 C1258 1.386 . S
C1259 C1263 1.393 . S
C1260 H1249 0.950 . S
C1260 C1258 1.391 . S
C1260 C1261 1.400 . S
C1261 C1255 1.491 . S
C1261 C1260 1.400 . S
C1261 C1262 1.398 . S
C1262 H1250 0.950 . S
C1262 C1261 1.398 . S
C1262 C1263 1.391 . S
C1263 H1251 0.950 . S
C1263 C1259 1.393 . S
C1263 C1262 1.391 . S
H1264 C1272 0.950 . S
H1265 C1277 0.950 . S
H1266 C1274 0.950 . S
H1267 C1276 0.950 . S
H1268 C1278 0.950 . S
H1269 C1280 0.950 . S
H1270 C1282 0.950 . S
H1271 C1283 0.950 . S
C1272 H1264 0.950 . S
C1272 C1273 1.386 . S
C1272 C1274 1.391 . S
C1273 C1272 1.386 . S
C1273 C1277 1.393 . S
C1274 H1266 0.950 . S
C1274 C1272 1.391 . S
C1274 C1275 1.400 . S
C1275 C1274 1.400 . S
C1275 C1276 1.398 . S
C1275 C1281 1.491 . S
C1276 H1267 0.950 . S
C1276 C1275 1.398 . S
C1276 C1277 1.391 . S
C1277 H1265 0.950 . S
C1277 C1273 1.393 . S
C1277 C1276 1.391 . S
C1278 H1268 0.950 . S
C1278 C1279 1.386 . S
C1278 C1280 1.391 . S
C1279 C1278 1.386 . S
C1279 C1283 1.393 . S
C1280 H1269 0.950 . S
C1280 C1278 1.391 . S
C1280 C1281 1.400 . S
C1281 C1275 1.491 . S
C1281 C1280 1.400 . S
C1281 C1282 1.398 . S
C1282 H1270 0.950 . S
C1282 C1281 1.398 . S
C1282 C1283 1.391 . S
C1283 H1271 0.950 . S
C1283 C1279 1.393 . S
C1283 C1282 1.391 . S
H1284 C1292 0.950 . S
H1285 C1297 0.950 . S
H1286 C1294 0.950 . S
H1287 C1296 0.950 . S
H1288 C1298 0.950 . S
H1289 C1300 0.950 . S
H1290 C1302 0.950 . S
H1291 C1303 0.950 . S
C1292 H1284 0.950 . S
C1292 C1293 1.386 . S
C1292 C1294 1.391 . S
C1293 C1292 1.386 . S
C1293 C1297 1.393 . S
C1294 H1286 0.950 . S
C1294 C1292 1.391 . S
C1294 C1295 1.400 . S
C1295 C1294 1.400 . S
C1295 C1296 1.398 . S
C1295 C1301 1.491 . S
C1296 H1287 0.950 . S
C1296 C1295 1.398 . S
C1296 C1297 1.391 . S
C1297 H1285 0.950 . S
C1297 C1293 1.393 . S
C1297 C1296 1.391 . S
C1298 H1288 0.950 . S
C1298 C1299 1.386 . S
C1298 C1300 1.391 . S
C1299 C1298 1.386 . S
C1299 C1303 1.393 . S
C1300 H1289 0.950 . S
C1300 C1298 1.391 . S
C1300 C1301 1.400 . S
C1301 C1295 1.491 . S
C1301 C1300 1.400 . S
C1301 C1302 1.398 . S
C1302 H1290 0.950 . S
C1302 C1301 1.398 . S
C1302 C1303 1.391 . S
C1303 H1291 0.950 . S
C1303 C1299 1.393 . S
C1303 C1302 1.391 . S
H1304 C1312 0.950 . S
H1305 C1317 0.950 . S
H1306 C1314 0.950 . S
H1307 C1316 0.950 . S
H1308 C1318 0.950 . S
H1309 C1320 0.950 . S
H1310 C1322 0.950 . S
H1311 C1323 0.950 . S
C1312 H1304 0.950 . S
C1312 C1313 1.386 . S
C1312 C1314 1.391 . S
C1313 C1312 1.386 . S
C1313 C1317 1.393 . S
C1314 H1306 0.950 . S
C1314 C1312 1.391 . S
C1314 C1315 1.400 . S
C1315 C1314 1.400 . S
C1315 C1316 1.398 . S
C1315 C1321 1.491 . S
C1316 H1307 0.950 . S
C1316 C1315 1.398 . S
C1316 C1317 1.391 . S
C1317 H1305 0.950 . S
C1317 C1313 1.393 . S
C1317 C1316 1.391 . S
C1318 H1308 0.950 . S
C1318 C1319 1.386 . S
C1318 C1320 1.391 . S
C1319 C1318 1.386 . S
C1319 C1323 1.393 . S
C1320 H1309 0.950 . S
C1320 C1318 1.391 . S
C1320 C1321 1.400 . S
C1321 C1315 1.491 . S
C1321 C1320 1.400 . S
C1321 C1322 1.398 . S
C1322 H1310 0.950 . S
C1322 C1321 1.398 . S
C1322 C1323 1.391 . S
C1323 H1311 0.950 . S
C1323 C1319 1.393 . S
C1323 C1322 1.391 . S
H1324 C1332 0.950 . S
H1325 C1337 0.950 . S
H1326 C1334 0.950 . S
H1327 C1336 0.950 . S
H1328 C1338 0.950 . S
H1329 C1340 0.950 . S
H1330 C1342 0.950 . S
H1331 C1343 0.950 . S
C1332 H1324 0.950 . S
C1332 C1333 1.386 . S
C1332 C1334 1.391 . S
C1333 C1332 1.386 . S
C1333 C1337 1.393 . S
C1334 H1326 0.950 . S
C1334 C1332 1.391 . S
C1334 C1335 1.400 . S
C1335 C1334 1.400 . S
C1335 C1336 1.398 . S
C1335 C1341 1.491 . S
C1336 H1327 0.950 . S
C1336 C1335 1.398 . S
C1336 C1337 1.391 . S
C1337 H1325 0.950 . S
C1337 C1333 1.393 . S
C1337 C1336 1.391 . S
C1338 H1328 0.950 . S
C1338 C1339 1.386 . S
C1338 C1340 1.391 . S
C1339 C1338 1.386 . S
C1339 C1343 1.393 . S
C1340 H1329 0.950 . S
C1340 C1338 1.391 . S
C1340 C1341 1.400 . S
C1341 C1335 1.491 . S
C1341 C1340 1.400 . S
C1341 C1342 1.398 . S
C1342 H1330 0.950 . S
C1342 C1341 1.398 . S
C1342 C1343 1.391 . S
C1343 H1331 0.950 . S
C1343 C1339 1.393 . S
C1343 C1342 1.391 . S
C553 C345 1.749 . S
C559 C5 1.754 . S
C573 C39 1.748 . S
C579 C379 1.755 . S
C593 C277 1.753 . S
C599 C73 1.750 . S
C613 C107 1.753 . S
C619 C311 1.749 . S
C633 C481 1.755 . S
C639 C141 1.747 . S
C653 C175 1.755 . S
C659 C515 1.748 . S
C673 C209 1.751 . S
C679 C413 1.751 . S
C693 C447 1.753 . S
C699 C243 1.749 . S
C713 C496 1.036 . S
C719 C33 1.041 . S
C733 C530 1.051 . S
C739 C67 1.053 . S
C753 C101 1.037 . S
C759 C428 1.041 . S
C773 C462 1.047 . S
C779 C135 1.038 . S
C793 C169 1.053 . S
C799 C360 1.051 . S
C813 C203 1.037 . S
C819 C394 1.039 . S
C833 C292 1.036 . S
C839 C237 1.045 . S
C853 C271 1.054 . S
C859 C326 1.048 . S
C873 C224 1.039 . S
C879 C305 1.037 . S
C893 C258 1.038 . S
C899 C339 1.037 . S
C913 C156 1.039 . S
C919 C373 1.049 . S
C933 C407 1.053 . S
C939 C190 1.050 . S
C953 C441 1.050 . S
C959 C88 1.053 . S
C973 C475 1.050 . S
C979 C122 1.040 . S
C993 C509 1.041 . S
C999 C20 1.036 . S
C1013 C54 1.050 . S
C1019 C543 1.041 . S
C1033 C383 1.571 . S
C1039 C2 1.619 . S
C1053 C36 1.620 . S
C1059 C281 1.569 . S
C1073 C70 1.623 . S
C1079 C315 1.545 . S
C1093 C104 1.622 . S
C1099 C349 1.547 . S
C1113 C179 1.550 . S
C1119 C138 1.624 . S
C1133 C172 1.619 . S
C1139 C213 1.571 . S
C1153 C247 1.545 . S
C1159 C206 1.623 . S
C1173 C240 1.623 . S
C1179 C145 1.557 . S
C1193 C111 1.565 . S
C1199 C274 1.618 . S
C1213 C308 1.618 . S
C1219 C9 1.570 . S
C1233 C342 1.624 . S
C1239 C43 1.550 . S
C1253 C77 1.570 . S
C1259 C376 1.619 . S
C1273 C451 1.557 . S
C1279 C410 1.619 . S
C1293 C485 1.546 . S
C1299 C444 1.624 . S
C1313 C478 1.623 . S
C1319 C519 1.545 . S
C1333 C417 1.569 . S
C1339 C512 1.620 . S
