# Generated by pormake.
# Topology can, (4)-cn, num edge types: 1
# Building blocks:
#     Node 0, Type 0, BuildingBlock: CEKHIL_clean_sbu_0, # of connection points: 4
#     Node 1, Type 0, BuildingBlock: CEKHIL_clean_sbu_0, # of connection points: 4
#     Node 2, Type 0, BuildingBlock: CEKHIL_clean_sbu_0, # of connection points: 4
#     Node 3, Type 0, BuildingBlock: CEKHIL_clean_sbu_0, # of connection points: 4
#     Node 4, Type 0, BuildingBlock: CEKHIL_clean_sbu_0, # of connection points: 4
#     Node 5, Type 0, BuildingBlock: CEKHIL_clean_sbu_0, # of connection points: 4
#     Node 6, Type 0, BuildingBlock: CEKHIL_clean_sbu_0, # of connection points: 4
#     Node 7, Type 0, BuildingBlock: CEKHIL_clean_sbu_0, # of connection points: 4
#     Node 8, Type 0, BuildingBlock: CEKHIL_clean_sbu_0, # of connection points: 4
#     Node 9, Type 0, BuildingBlock: CEKHIL_clean_sbu_0, # of connection points: 4
#     Node 10, Type 0, BuildingBlock: CEKHIL_clean_sbu_0, # of connection points: 4
#     Node 11, Type 0, BuildingBlock: CEKHIL_clean_sbu_0, # of connection points: 4
#     Edge 12, Type (0, 0), BuildingBlock: EYOCIG_clean_linker_4, # of connection points: 2
#     Edge 13, Type (0, 0), BuildingBlock: EYOCIG_clean_linker_4, # of connection points: 2
#     Edge 14, Type (0, 0), BuildingBlock: EYOCIG_clean_linker_4, # of connection points: 2
#     Edge 15, Type (0, 0), BuildingBlock: EYOCIG_clean_linker_4, # of connection points: 2
#     Edge 16, Type (0, 0), BuildingBlock: EYOCIG_clean_linker_4, # of connection points: 2
#     Edge 17, Type (0, 0), BuildingBlock: EYOCIG_clean_linker_4, # of connection points: 2
#     Edge 18, Type (0, 0), BuildingBlock: EYOCIG_clean_linker_4, # of connection points: 2
#     Edge 19, Type (0, 0), BuildingBlock: EYOCIG_clean_linker_4, # of connection points: 2
#     Edge 20, Type (0, 0), BuildingBlock: EYOCIG_clean_linker_4, # of connection points: 2
#     Edge 21, Type (0, 0), BuildingBlock: EYOCIG_clean_linker_4, # of connection points: 2
#     Edge 22, Type (0, 0), BuildingBlock: EYOCIG_clean_linker_4, # of connection points: 2
#     Edge 23, Type (0, 0), BuildingBlock: EYOCIG_clean_linker_4, # of connection points: 2
#     Edge 24, Type (0, 0), BuildingBlock: EYOCIG_clean_linker_4, # of connection points: 2
#     Edge 25, Type (0, 0), BuildingBlock: EYOCIG_clean_linker_4, # of connection points: 2
#     Edge 26, Type (0, 0), BuildingBlock: EYOCIG_clean_linker_4, # of connection points: 2
#     Edge 27, Type (0, 0), BuildingBlock: EYOCIG_clean_linker_4, # of connection points: 2
#     Edge 28, Type (0, 0), BuildingBlock: EYOCIG_clean_linker_4, # of connection points: 2
#     Edge 29, Type (0, 0), BuildingBlock: EYOCIG_clean_linker_4, # of connection points: 2
#     Edge 30, Type (0, 0), BuildingBlock: EYOCIG_clean_linker_4, # of connection points: 2
#     Edge 31, Type (0, 0), BuildingBlock: EYOCIG_clean_linker_4, # of connection points: 2
#     Edge 32, Type (0, 0), BuildingBlock: EYOCIG_clean_linker_4, # of connection points: 2
#     Edge 33, Type (0, 0), BuildingBlock: EYOCIG_clean_linker_4, # of connection points: 2
#     Edge 34, Type (0, 0), BuildingBlock: EYOCIG_clean_linker_4, # of connection points: 2
#     Edge 35, Type (0, 0), BuildingBlock: EYOCIG_clean_linker_4, # of connection points: 2
# Relax obj value: 0.060
# Max RMSD: 0.044
# Mean RMSD: 0.044
data_MOF--net-can--node1-CEKHIL_clean_sbu_0--edge1-EYOCIG_clean_linker_4
_symmetry_space_group_name_H-M    P1
_symmetry_Int_Tables_number       1
_symmetry_cell_setting            triclinic
loop_
_symmetry_equiv_pos_as_xyz
'x, y, z'
_cell_length_a     42.847908
_cell_length_b     42.835423
_cell_length_c     21.442008
_cell_angle_alpha  90.016823
_cell_angle_beta   89.984818
_cell_angle_gamma 119.99776
loop_
_atom_site_label
_atom_site_type_symbol
_atom_site_fract_x
_atom_site_fract_y
_atom_site_fract_z
_atom_type_partial_charge
Co0 Co 0.07604 0.39596 0.26497 0.0
O1 O 0.0931 0.36197 0.2699 0.0
O2 O 0.12559 0.41871 0.23809 0.0
C3 C 0.05039 0.38359 0.35992 0.0
O4 O 0.06936 0.43973 0.25648 0.0
Co5 Co 0.99488 0.37222 0.26955 0.0
O6 O 0.01193 0.42446 0.27672 0.0
C7 C 0.02635 0.36379 0.15277 0.0
C8 C 0.12386 0.3883 0.25126 0.0
C9 C 0.04453 0.44779 0.26503 0.0
O10 O 0.05812 0.38015 0.17688 0.0
O11 O 0.99761 0.35601 0.18287 0.0
O12 O 0.08472 0.40553 0.35395 0.0
O13 O 0.03298 0.36775 0.30975 0.0
Co14 Co 0.68814 0.07207 0.76532 0.0
O15 O 0.73921 0.08926 0.76953 0.0
O16 O 0.71468 0.12158 0.73816 0.0
C17 C 0.67532 0.0466 0.86037 0.0
O18 O 0.63769 0.06528 0.75758 0.0
Co19 Co 0.6308 0.99083 0.7707 0.0
O20 O 0.59567 0.0079 0.77864 0.0
C21 C 0.66997 0.02218 0.65325 0.0
C22 C 0.74345 0.11996 0.75095 0.0
C23 C 0.60488 0.04048 0.76676 0.0
O24 O 0.68561 0.05399 0.67723 0.0
O25 O 0.64914 0.99348 0.68359 0.0
O26 O 0.68765 0.08092 0.85431 0.0
O27 O 0.67355 0.02911 0.81019 0.0
Co28 Co 0.62416 0.68438 0.26556 0.0
O29 O 0.65814 0.73543 0.26991 0.0
O30 O 0.60139 0.71104 0.2381 0.0
C31 C 0.63657 0.67154 0.36075 0.0
O32 O 0.5804 0.63391 0.25757 0.0
Co33 Co 0.64787 0.62695 0.27121 0.0
O34 O 0.59565 0.59183 0.27877 0.0
C35 C 0.65634 0.66642 0.15393 0.0
C36 C 0.63179 0.73976 0.25106 0.0
C37 C 0.57233 0.60106 0.26672 0.0
O38 O 0.63994 0.68189 0.17764 0.0
O39 O 0.66414 0.64559 0.18441 0.0
O40 O 0.61462 0.68389 0.35445 0.0
O41 O 0.65238 0.66973 0.31072 0.0
Co42 Co 0.94755 0.62019 0.7651 0.0
O43 O 0.93039 0.6541 0.76948 0.0
O44 O 0.89812 0.59733 0.73759 0.0
C45 C 0.97275 0.63263 0.86031 0.0
O46 O 0.9544 0.57651 0.75708 0.0
Co47 Co 0.02874 0.64413 0.77087 0.0
O48 O 0.01177 0.59192 0.77828 0.0
C49 C 0.99769 0.65249 0.65357 0.0
C50 C 0.89974 0.62771 0.75059 0.0
C51 C 0.97924 0.56853 0.76619 0.0
O52 O 0.96582 0.63601 0.67725 0.0
O53 O 0.02633 0.66037 0.68408 0.0
O54 O 0.93847 0.61061 0.85396 0.0
O55 O 0.99037 0.64848 0.81031 0.0
Co56 Co 0.3348 0.94351 0.26555 0.0
O57 O 0.28384 0.92682 0.27027 0.0
O58 O 0.30779 0.89417 0.23769 0.0
C59 C 0.34792 0.96849 0.36098 0.0
O60 O 0.38508 0.94982 0.25705 0.0
Co61 Co 0.39264 0.02448 0.27169 0.0
O62 O 0.42748 1.00699 0.27851 0.0
C63 C 0.35298 0.99399 0.15438 0.0
C64 C 0.27924 0.89609 0.25103 0.0
C65 C 0.418 0.97441 0.2661 0.0
O66 O 0.3373 0.96206 0.17788 0.0
O67 O 0.37403 0.0225 0.185 0.0
O68 O 0.33533 0.93416 0.3543 0.0
O69 O 0.3498 0.98632 0.31119 0.0
Co70 Co 0.39954 0.33122 0.76585 0.0
O71 O 0.3654 0.28018 0.77044 0.0
O72 O 0.42213 0.30429 0.73872 0.0
C73 C 0.38719 0.34439 0.86091 0.0
O74 O 0.44344 0.38161 0.75767 0.0
Co75 Co 0.37611 0.38889 0.77091 0.0
O76 O 0.42836 0.42387 0.77843 0.0
C77 C 0.36766 0.34922 0.65383 0.0
C78 C 0.39166 0.27565 0.75172 0.0
C79 C 0.45161 0.41451 0.76657 0.0
O80 O 0.38386 0.33361 0.6778 0.0
O81 O 0.35997 0.37022 0.68409 0.0
O82 O 0.40901 0.33186 0.85482 0.0
O83 O 0.37144 0.34614 0.81078 0.0
Co84 Co 0.62338 0.94298 0.23625 0.0
O85 O 0.65756 0.92616 0.23193 0.0
O86 O 0.60079 0.89351 0.26355 0.0
C87 C 0.63583 0.96833 0.14111 0.0
O88 O 0.57947 0.94942 0.24418 0.0
Co89 Co 0.64674 0.02404 0.23072 0.0
O90 O 0.59448 1.00671 0.22314 0.0
C91 C 0.65516 0.99305 0.34808 0.0
C92 C 0.63128 0.89539 0.25065 0.0
C93 C 0.57126 0.97411 0.23512 0.0
O94 O 0.63899 0.96119 0.32425 0.0
O95 O 0.66283 0.02167 0.31764 0.0
O96 O 0.61398 0.93399 0.14731 0.0
O97 O 0.65152 0.98593 0.19121 0.0
Co98 Co 0.6884 0.61998 0.73679 0.0
O99 O 0.73943 0.65399 0.73204 0.0
O100 O 0.71516 0.59722 0.76382 0.0
C101 C 0.67531 0.63239 0.64178 0.0
O102 O 0.63798 0.57619 0.74512 0.0
Co103 Co 0.63096 0.64367 0.73188 0.0
O104 O 0.5958 0.59142 0.7247 0.0
C105 C 0.67071 0.65211 0.8488 0.0
C106 C 0.74383 0.62764 0.75071 0.0
C107 C 0.60509 0.56811 0.73648 0.0
O108 O 0.68616 0.63575 0.82481 0.0
O109 O 0.64977 0.65988 0.81859 0.0
O110 O 0.68768 0.61044 0.64785 0.0
O111 O 0.67363 0.6482 0.69192 0.0
Co112 Co 0.07588 0.6847 0.23641 0.0
O113 O 0.09271 0.73569 0.23196 0.0
O114 O 0.12537 0.71157 0.26352 0.0
C115 C 0.05043 0.67168 0.14141 0.0
O116 O 0.06936 0.63429 0.24441 0.0
Co117 Co 0.99477 0.62713 0.2313 0.0
O118 O 0.012 0.59211 0.22364 0.0
C119 C 0.02602 0.66675 0.34838 0.0
C120 C 0.12349 0.74019 0.25061 0.0
C121 C 0.04459 0.60141 0.23545 0.0
O122 O 0.05782 0.68226 0.32443 0.0
O123 O 0.99733 0.64583 0.31812 0.0
O124 O 0.08476 0.68415 0.14748 0.0
O125 O 0.0329 0.66988 0.19155 0.0
Co126 Co 0.39944 0.07191 0.73705 0.0
O127 O 0.3653 0.08879 0.7322 0.0
O128 O 0.42205 0.1215 0.76372 0.0
C129 C 0.38696 0.04608 0.64228 0.0
O130 O 0.4434 0.06554 0.74546 0.0
Co131 Co 0.37631 0.9909 0.73285 0.0
O132 O 0.42857 0.00815 0.72591 0.0
C133 C 0.36743 0.02234 0.8493 0.0
C134 C 0.39157 0.11962 0.75072 0.0
C135 C 0.4517 0.04086 0.73727 0.0
O136 O 0.38379 0.0541 0.82517 0.0
O137 O 0.35979 0.99359 0.81929 0.0
O138 O 0.40881 0.08045 0.64806 0.0
O139 O 0.37131 0.0287 0.69257 0.0
Co140 Co 0.33521 0.39591 0.23706 0.0
O141 O 0.28416 0.36194 0.23236 0.0
O142 O 0.30847 0.41864 0.2645 0.0
C143 C 0.34826 0.38367 0.14181 0.0
O144 O 0.38568 0.43965 0.24544 0.0
Co145 Co 0.39258 0.37211 0.23148 0.0
O146 O 0.42775 0.42435 0.22447 0.0
C147 C 0.35305 0.36365 0.34873 0.0
C148 C 0.27977 0.38825 0.2513 0.0
C149 C 0.41854 0.44769 0.23658 0.0
O150 O 0.33752 0.37998 0.32495 0.0
O151 O 0.37395 0.35591 0.31829 0.0
O152 O 0.3359 0.40562 0.14818 0.0
O153 O 0.34993 0.36775 0.19179 0.0
Co154 Co 0.94716 0.33138 0.73626 0.0
O155 O 0.92994 0.28029 0.73152 0.0
O156 O 0.89774 0.30475 0.76391 0.0
C157 C 0.9723 0.34436 0.64091 0.0
O158 O 0.95406 0.38191 0.74473 0.0
Co159 Co 0.02837 0.38858 0.7304 0.0
O160 O 1.01143 0.42386 0.72348 0.0
C161 C 0.99741 0.3491 0.8477 0.0
C162 C 0.89931 0.276 0.75062 0.0
C163 C 0.97893 0.41474 0.73575 0.0
O164 O 0.96552 0.33366 0.82406 0.0
O165 O 0.02602 0.36993 0.81716 0.0
O166 O 0.93802 0.33208 0.64743 0.0
O167 O 0.98994 0.34598 0.69078 0.0
C168 C 0.01637 0.34935 0.03233 0.0
C169 C 0.02268 0.35655 0.08694 0.0
C170 C 1.00781 0.34502 0.96809 0.0
C171 C 1.00137 0.34579 0.9135 0.0
C172 C 0.66948 1.00339 0.4685 0.0
C173 C 0.66235 0.99696 0.4139 0.0
C174 C 0.67383 0.012 0.53271 0.0
C175 C 0.6732 0.01838 0.58737 0.0
C176 C 0.67079 0.67064 0.03353 0.0
C177 C 0.66361 0.66978 0.08814 0.0
C178 C 0.67503 0.66643 0.96925 0.0
C179 C 0.67416 0.6593 0.91462 0.0
C180 C 0.01611 0.67105 0.46886 0.0
C181 C 0.02228 0.67016 0.4142 0.0
C182 C 1.00781 0.66687 0.53317 0.0
C183 C 1.00158 0.65973 0.5878 0.0
C184 C 0.3529 0.01262 0.9697 0.0
C185 C 0.36011 0.01872 0.91507 0.0
C186 C 0.34872 1.00436 0.03404 0.0
C187 C 0.34964 0.99806 0.08864 0.0
C188 C 0.34898 0.34927 0.46915 0.0
C189 C 0.34972 0.35643 0.41455 0.0
C190 C 0.35329 0.345 0.53338 0.0
C191 C 0.36045 0.3458 0.588 0.0
C192 C 1.00359 0.6462 0.97105 0.0
C193 C 0.98979 0.6402 0.92025 0.0
C194 C 0.01939 0.65416 0.03085 0.0
C195 C 0.03326 0.66207 0.0816 0.0
C196 C 0.36533 0.99904 0.47199 0.0
C197 C 0.35745 0.98534 0.42109 0.0
C198 C 0.37325 0.01482 0.53185 0.0
C199 C 0.37926 0.02874 0.58258 0.0
C200 C 0.37379 0.36222 0.9714 0.0
C201 C 0.37971 0.35415 0.92072 0.0
C202 C 0.36584 0.37025 0.03113 0.0
C203 C 0.35788 0.3762 0.08187 0.0
C204 C 1.00317 0.36199 0.53012 0.0
C205 C 0.98931 0.35401 0.5809 0.0
C206 C 0.01911 0.37 0.47037 0.0
C207 C 0.0331 0.37599 0.4197 0.0
C208 C 0.65758 0.01536 0.9708 0.0
C209 C 0.6656 0.02935 0.92015 0.0
C210 C 0.64951 0.99938 0.03049 0.0
C211 C 0.64344 0.98545 0.08121 0.0
C212 C 0.65001 0.65405 0.47145 0.0
C213 C 0.64407 0.66196 0.42067 0.0
C214 C 0.6579 0.64607 0.53122 0.0
C215 C 0.66577 0.64004 0.58195 0.0
C216 C 0.05715 0.54731 0.24695 0.0
C217 C 0.05332 0.57328 0.24234 0.0
C218 C 0.0571 0.51444 0.25316 0.0
C219 C 0.05324 0.48464 0.25797 0.0
C220 C 0.51837 0.05367 0.74926 0.0
C221 C 0.48861 0.04985 0.74442 0.0
C222 C 0.55103 0.05336 0.75548 0.0
C223 C 0.57678 0.04921 0.76004 0.0
C224 C 0.50566 0.547 0.25508 0.0
C225 C 0.53549 0.5729 0.25976 0.0
C226 C 0.47275 0.51423 0.24876 0.0
C227 C 0.44673 0.4845 0.24384 0.0
C228 C 0.96682 0.50192 0.7544 0.0
C229 C 0.97067 0.53172 0.75916 0.0
C230 C 0.96672 0.46903 0.74801 0.0
C231 C 0.97042 0.44301 0.74306 0.0
C232 C 0.47181 0.9615 0.25354 0.0
C233 C 0.44597 0.96549 0.25861 0.0
C234 C 0.5046 0.96143 0.24703 0.0
C235 C 0.5344 0.96531 0.24224 0.0
C236 C 0.55106 0.50144 0.74846 0.0
C237 C 0.57697 0.53126 0.7436 0.0
C238 C 0.51826 0.46856 0.75478 0.0
C239 C 0.48847 0.44261 0.75952 0.0
C240 C 0.18275 0.38311 0.25074 0.0
C241 C 0.15561 0.38502 0.25123 0.0
C242 C 0.21571 0.3831 0.25214 0.0
C243 C 0.24476 0.38501 0.25151 0.0
C244 C 0.84034 0.21198 0.75151 0.0
C245 C 0.86749 0.24102 0.75087 0.0
C246 C 0.8074 0.17899 0.75013 0.0
C247 C 0.7784 0.1518 0.75074 0.0
C248 C 0.63686 0.80377 0.2501 0.0
C249 C 0.63501 0.77475 0.25079 0.0
C250 C 0.63674 0.83666 0.25146 0.0
C251 C 0.6347 0.86373 0.25084 0.0
C252 C 0.84082 0.63279 0.74969 0.0
C253 C 0.86795 0.63088 0.75033 0.0
C254 C 0.80788 0.63281 0.75116 0.0
C255 C 0.77884 0.63091 0.75071 0.0
C256 C 0.21507 0.83738 0.25004 0.0
C257 C 0.24414 0.86447 0.25078 0.0
C258 C 0.18217 0.80439 0.25138 0.0
C259 C 0.15513 0.77527 0.25078 0.0
C260 C 0.38626 0.21145 0.75059 0.0
C261 C 0.38823 0.24054 0.75137 0.0
C262 C 0.38623 0.17846 0.75169 0.0
C263 C 0.38815 0.15131 0.75097 0.0
loop_
_geom_bond_atom_site_label_1
_geom_bond_atom_site_label_2
_geom_bond_distance
_geom_bond_site_symmetry_2
_ccdc_geom_bond_type
Co0 O1 2.216 . S
Co0 O2 2.091 . S
Co0 O4 2.004 . S
Co0 O10 2.021 . S
Co0 O12 2.137 . S
Co0 O13 2.244 . S
O1 Co0 2.216 . S
O1 C8 1.247 . S
O2 Co0 2.091 . S
O2 C8 1.261 . S
C3 O12 1.247 . S
C3 O13 1.272 . S
O4 Co0 2.004 . S
O4 C9 1.259 . S
Co5 O6 2.061 1_655 S
Co5 O11 2.052 . S
Co5 O13 2.135 1_655 S
O6 Co5 2.061 1_455 S
O6 C9 1.235 . S
C7 O10 1.238 . S
C7 O11 1.241 1_455 S
C8 O1 1.247 . S
C8 O2 1.261 . S
C9 O4 1.259 . S
C9 O6 1.235 . S
O10 Co0 2.021 . S
O10 C7 1.238 . S
O11 Co5 2.052 . S
O11 C7 1.241 1_655 S
O12 Co0 2.137 . S
O12 C3 1.247 . S
O13 Co0 2.244 . S
O13 C3 1.272 . S
O13 Co5 2.135 1_455 S
Co14 O15 2.216 . S
Co14 O16 2.091 . S
Co14 O18 2.004 . S
Co14 O24 2.021 . S
Co14 O26 2.137 . S
Co14 O27 2.244 . S
O15 Co14 2.216 . S
O15 C22 1.247 . S
O16 Co14 2.091 . S
O16 C22 1.261 . S
C17 O26 1.247 . S
C17 O27 1.272 . S
O18 Co14 2.004 . S
O18 C23 1.259 . S
Co19 O20 2.061 1_565 S
Co19 O25 2.052 . S
Co19 O27 2.135 1_565 S
O20 Co19 2.061 1_545 S
O20 C23 1.235 . S
C21 O24 1.238 . S
C21 O25 1.241 1_545 S
C22 O15 1.247 . S
C22 O16 1.261 . S
C23 O18 1.259 . S
C23 O20 1.235 . S
O24 Co14 2.021 . S
O24 C21 1.238 . S
O25 Co19 2.052 . S
O25 C21 1.241 1_565 S
O26 Co14 2.137 . S
O26 C17 1.247 . S
O27 Co14 2.244 . S
O27 C17 1.272 . S
O27 Co19 2.135 1_545 S
Co28 O29 2.216 . S
Co28 O30 2.091 . S
Co28 O32 2.004 . S
Co28 O38 2.021 . S
Co28 O40 2.137 . S
Co28 O41 2.244 . S
O29 Co28 2.216 . S
O29 C36 1.247 . S
O30 Co28 2.091 . S
O30 C36 1.261 . S
C31 O40 1.247 . S
C31 O41 1.272 . S
O32 Co28 2.004 . S
O32 C37 1.259 . S
Co33 O34 2.061 . S
Co33 O39 2.052 . S
Co33 O41 2.135 . S
O34 Co33 2.061 . S
O34 C37 1.235 . S
C35 O38 1.238 . S
C35 O39 1.241 . S
C36 O29 1.247 . S
C36 O30 1.261 . S
C37 O32 1.259 . S
C37 O34 1.235 . S
O38 Co28 2.021 . S
O38 C35 1.238 . S
O39 Co33 2.052 . S
O39 C35 1.241 . S
O40 Co28 2.137 . S
O40 C31 1.247 . S
O41 Co28 2.244 . S
O41 C31 1.272 . S
O41 Co33 2.135 . S
Co42 O43 2.216 . S
Co42 O44 2.091 . S
Co42 O46 2.004 . S
Co42 O52 2.021 . S
Co42 O54 2.137 . S
Co42 O55 2.244 . S
O43 Co42 2.216 . S
O43 C50 1.247 . S
O44 Co42 2.091 . S
O44 C50 1.261 . S
C45 O54 1.247 . S
C45 O55 1.272 . S
O46 Co42 2.004 . S
O46 C51 1.259 . S
Co47 O48 2.061 1_455 S
Co47 O53 2.052 . S
Co47 O55 2.135 1_455 S
O48 Co47 2.061 1_655 S
O48 C51 1.235 . S
C49 O52 1.238 . S
C49 O53 1.241 1_655 S
C50 O43 1.247 . S
C50 O44 1.261 . S
C51 O46 1.259 . S
C51 O48 1.235 . S
O52 Co42 2.021 . S
O52 C49 1.238 . S
O53 Co47 2.052 . S
O53 C49 1.241 1_455 S
O54 Co42 2.137 . S
O54 C45 1.247 . S
O55 Co42 2.244 . S
O55 C45 1.272 . S
O55 Co47 2.135 1_655 S
Co56 O57 2.216 . S
Co56 O58 2.091 . S
Co56 O60 2.004 . S
Co56 O66 2.021 . S
Co56 O68 2.137 . S
Co56 O69 2.244 . S
O57 Co56 2.216 . S
O57 C64 1.247 . S
O58 Co56 2.091 . S
O58 C64 1.261 . S
C59 O68 1.247 . S
C59 O69 1.272 . S
O60 Co56 2.004 . S
O60 C65 1.259 . S
Co61 O62 2.061 1_545 S
Co61 O67 2.052 . S
Co61 O69 2.135 1_545 S
O62 Co61 2.061 1_565 S
O62 C65 1.235 . S
C63 O66 1.238 . S
C63 O67 1.241 1_565 S
C64 O57 1.247 . S
C64 O58 1.261 . S
C65 O60 1.259 . S
C65 O62 1.235 . S
O66 Co56 2.021 . S
O66 C63 1.238 . S
O67 Co61 2.052 . S
O67 C63 1.241 1_545 S
O68 Co56 2.137 . S
O68 C59 1.247 . S
O69 Co56 2.244 . S
O69 C59 1.272 . S
O69 Co61 2.135 1_565 S
Co70 O71 2.216 . S
Co70 O72 2.091 . S
Co70 O74 2.004 . S
Co70 O80 2.021 . S
Co70 O82 2.137 . S
Co70 O83 2.244 . S
O71 Co70 2.216 . S
O71 C78 1.247 . S
O72 Co70 2.091 . S
O72 C78 1.261 . S
C73 O82 1.247 . S
C73 O83 1.272 . S
O74 Co70 2.004 . S
O74 C79 1.259 . S
Co75 O76 2.061 . S
Co75 O81 2.052 . S
Co75 O83 2.135 . S
O76 Co75 2.061 . S
O76 C79 1.235 . S
C77 O80 1.238 . S
C77 O81 1.241 . S
C78 O71 1.247 . S
C78 O72 1.261 . S
C79 O74 1.259 . S
C79 O76 1.235 . S
O80 Co70 2.021 . S
O80 C77 1.238 . S
O81 Co75 2.052 . S
O81 C77 1.241 . S
O82 Co70 2.137 . S
O82 C73 1.247 . S
O83 Co70 2.244 . S
O83 C73 1.272 . S
O83 Co75 2.135 . S
Co84 O85 2.216 . S
Co84 O86 2.091 . S
Co84 O88 2.004 . S
Co84 O94 2.021 . S
Co84 O96 2.137 . S
Co84 O97 2.244 . S
O85 Co84 2.216 . S
O85 C92 1.247 . S
O86 Co84 2.091 . S
O86 C92 1.261 . S
C87 O96 1.247 . S
C87 O97 1.272 . S
O88 Co84 2.004 . S
O88 C93 1.259 . S
Co89 O90 2.061 1_545 S
Co89 O95 2.052 . S
Co89 O97 2.135 1_545 S
O90 Co89 2.061 1_565 S
O90 C93 1.235 . S
C91 O94 1.238 . S
C91 O95 1.241 1_565 S
C92 O85 1.247 . S
C92 O86 1.261 . S
C93 O88 1.259 . S
C93 O90 1.235 . S
O94 Co84 2.021 . S
O94 C91 1.238 . S
O95 Co89 2.052 . S
O95 C91 1.241 1_545 S
O96 Co84 2.137 . S
O96 C87 1.247 . S
O97 Co84 2.244 . S
O97 C87 1.272 . S
O97 Co89 2.135 1_565 S
Co98 O99 2.216 . S
Co98 O100 2.091 . S
Co98 O102 2.004 . S
Co98 O108 2.021 . S
Co98 O110 2.137 . S
Co98 O111 2.244 . S
O99 Co98 2.216 . S
O99 C106 1.247 . S
O100 Co98 2.091 . S
O100 C106 1.261 . S
C101 O110 1.247 . S
C101 O111 1.272 . S
O102 Co98 2.004 . S
O102 C107 1.259 . S
Co103 O104 2.061 . S
Co103 O109 2.052 . S
Co103 O111 2.135 . S
O104 Co103 2.061 . S
O104 C107 1.235 . S
C105 O108 1.238 . S
C105 O109 1.241 . S
C106 O99 1.247 . S
C106 O100 1.261 . S
C107 O102 1.259 . S
C107 O104 1.235 . S
O108 Co98 2.021 . S
O108 C105 1.238 . S
O109 Co103 2.052 . S
O109 C105 1.241 . S
O110 Co98 2.137 . S
O110 C101 1.247 . S
O111 Co98 2.244 . S
O111 C101 1.272 . S
O111 Co103 2.135 . S
Co112 O113 2.216 . S
Co112 O114 2.091 . S
Co112 O116 2.004 . S
Co112 O122 2.021 . S
Co112 O124 2.137 . S
Co112 O125 2.244 . S
O113 Co112 2.216 . S
O113 C120 1.247 . S
O114 Co112 2.091 . S
O114 C120 1.261 . S
C115 O124 1.247 . S
C115 O125 1.272 . S
O116 Co112 2.004 . S
O116 C121 1.259 . S
Co117 O118 2.061 1_655 S
Co117 O123 2.052 . S
Co117 O125 2.135 1_655 S
O118 Co117 2.061 1_455 S
O118 C121 1.235 . S
C119 O122 1.238 . S
C119 O123 1.241 1_455 S
C120 O113 1.247 . S
C120 O114 1.261 . S
C121 O116 1.259 . S
C121 O118 1.235 . S
O122 Co112 2.021 . S
O122 C119 1.238 . S
O123 Co117 2.052 . S
O123 C119 1.241 1_655 S
O124 Co112 2.137 . S
O124 C115 1.247 . S
O125 Co112 2.244 . S
O125 C115 1.272 . S
O125 Co117 2.135 1_455 S
Co126 O127 2.216 . S
Co126 O128 2.091 . S
Co126 O130 2.004 . S
Co126 O136 2.021 . S
Co126 O138 2.137 . S
Co126 O139 2.244 . S
O127 Co126 2.216 . S
O127 C134 1.247 . S
O128 Co126 2.091 . S
O128 C134 1.261 . S
C129 O138 1.247 . S
C129 O139 1.272 . S
O130 Co126 2.004 . S
O130 C135 1.259 . S
Co131 O132 2.061 1_565 S
Co131 O137 2.052 . S
Co131 O139 2.135 1_565 S
O132 Co131 2.061 1_545 S
O132 C135 1.235 . S
C133 O136 1.238 . S
C133 O137 1.241 1_545 S
C134 O127 1.247 . S
C134 O128 1.261 . S
C135 O130 1.259 . S
C135 O132 1.235 . S
O136 Co126 2.021 . S
O136 C133 1.238 . S
O137 Co131 2.052 . S
O137 C133 1.241 1_565 S
O138 Co126 2.137 . S
O138 C129 1.247 . S
O139 Co126 2.244 . S
O139 C129 1.272 . S
O139 Co131 2.135 1_545 S
Co140 O141 2.216 . S
Co140 O142 2.091 . S
Co140 O144 2.004 . S
Co140 O150 2.021 . S
Co140 O152 2.137 . S
Co140 O153 2.244 . S
O141 Co140 2.216 . S
O141 C148 1.247 . S
O142 Co140 2.091 . S
O142 C148 1.261 . S
C143 O152 1.247 . S
C143 O153 1.272 . S
O144 Co140 2.004 . S
O144 C149 1.259 . S
Co145 O146 2.061 . S
Co145 O151 2.052 . S
Co145 O153 2.135 . S
O146 Co145 2.061 . S
O146 C149 1.235 . S
C147 O150 1.238 . S
C147 O151 1.241 . S
C148 O141 1.247 . S
C148 O142 1.261 . S
C149 O144 1.259 . S
C149 O146 1.235 . S
O150 Co140 2.021 . S
O150 C147 1.238 . S
O151 Co145 2.052 . S
O151 C147 1.241 . S
O152 Co140 2.137 . S
O152 C143 1.247 . S
O153 Co140 2.244 . S
O153 C143 1.272 . S
O153 Co145 2.135 . S
Co154 O155 2.216 . S
Co154 O156 2.091 . S
Co154 O158 2.004 . S
Co154 O164 2.021 . S
Co154 O166 2.137 . S
Co154 O167 2.244 . S
O155 Co154 2.216 . S
O155 C162 1.247 . S
O156 Co154 2.091 . S
O156 C162 1.261 . S
C157 O166 1.247 . S
C157 O167 1.272 . S
O158 Co154 2.004 . S
O158 C163 1.259 . S
Co159 O160 2.061 1_455 S
Co159 O165 2.052 . S
Co159 O167 2.135 1_455 S
O160 Co159 2.061 1_655 S
O160 C163 1.235 . S
C161 O164 1.238 . S
C161 O165 1.241 1_655 S
C162 O155 1.247 . S
C162 O156 1.261 . S
C163 O158 1.259 . S
C163 O160 1.235 . S
O164 Co154 2.021 . S
O164 C161 1.238 . S
O165 Co159 2.052 . S
O165 C161 1.241 1_455 S
O166 Co154 2.137 . S
O166 C157 1.247 . S
O167 Co154 2.244 . S
O167 C157 1.272 . S
O167 Co159 2.135 1_655 S
C168 C169 1.170 . S
C168 C170 1.374 1_454 S
C169 C168 1.170 . S
C170 C168 1.374 1_656 S
C170 C171 1.179 . S
C171 C170 1.179 . S
C172 C173 1.170 . S
C172 C174 1.380 1_565 S
C173 C172 1.170 . S
C174 C172 1.380 1_545 S
C174 C175 1.170 . S
C175 C174 1.170 . S
C176 C177 1.170 . S
C176 C178 1.380 1_554 S
C177 C176 1.170 . S
C178 C176 1.380 1_556 S
C178 C179 1.170 . S
C179 C178 1.170 . S
C180 C181 1.170 . S
C180 C182 1.376 1_455 S
C181 C180 1.170 . S
C182 C180 1.376 1_655 S
C182 C183 1.175 . S
C183 C182 1.175 . S
C184 C185 1.170 . S
C184 C186 1.376 1_546 S
C185 C184 1.170 . S
C186 C184 1.376 1_564 S
C186 C187 1.176 . S
C187 C186 1.176 . S
C188 C189 1.170 . S
C188 C190 1.380 . S
C189 C188 1.170 . S
C190 C188 1.380 . S
C190 C191 1.170 . S
C191 C190 1.170 . S
C192 C193 1.170 . S
C192 C194 1.380 1_656 S
C193 C192 1.170 . S
C194 C192 1.380 1_454 S
C194 C195 1.170 . S
C195 C194 1.170 . S
C196 C197 1.170 . S
C196 C198 1.377 1_565 S
C197 C196 1.170 . S
C198 C196 1.377 1_545 S
C198 C199 1.174 . S
C199 C198 1.174 . S
C200 C201 1.170 . S
C200 C202 1.380 1_556 S
C201 C200 1.170 . S
C202 C200 1.380 1_554 S
C202 C203 1.170 . S
C203 C202 1.170 . S
C204 C205 1.170 . S
C204 C206 1.380 1_655 S
C205 C204 1.170 . S
C206 C204 1.380 1_455 S
C206 C207 1.170 . S
C207 C206 1.170 . S
C208 C209 1.173 . S
C208 C210 1.378 1_546 S
C209 C208 1.173 . S
C210 C208 1.378 1_564 S
C210 C211 1.170 . S
C211 C210 1.170 . S
C212 C213 1.170 . S
C212 C214 1.380 . S
C213 C212 1.170 . S
C214 C212 1.380 . S
C214 C215 1.170 . S
C215 C214 1.170 . S
C216 C217 1.170 . S
C216 C218 1.380 . S
C217 C216 1.170 . S
C218 C216 1.380 . S
C218 C219 1.170 . S
C219 C218 1.170 . S
C220 C221 1.170 . S
C220 C222 1.380 . S
C221 C220 1.170 . S
C222 C220 1.380 . S
C222 C223 1.170 . S
C223 C222 1.170 . S
C224 C225 1.170 . S
C224 C226 1.380 . S
C225 C224 1.170 . S
C226 C224 1.380 . S
C226 C227 1.170 . S
C227 C226 1.170 . S
C228 C229 1.170 . S
C228 C230 1.380 . S
C229 C228 1.170 . S
C230 C228 1.380 . S
C230 C231 1.170 . S
C231 C230 1.170 . S
C232 C233 1.170 . S
C232 C234 1.380 . S
C233 C232 1.170 . S
C234 C232 1.380 . S
C234 C235 1.170 . S
C235 C234 1.170 . S
C236 C237 1.170 . S
C236 C238 1.380 . S
C237 C236 1.170 . S
C238 C236 1.380 . S
C238 C239 1.170 . S
C239 C238 1.170 . S
C240 C241 1.170 . S
C240 C242 1.380 . S
C241 C240 1.170 . S
C242 C240 1.380 . S
C242 C243 1.170 . S
C243 C242 1.170 . S
C244 C245 1.170 . S
C244 C246 1.380 . S
C245 C244 1.170 . S
C246 C244 1.380 . S
C246 C247 1.170 . S
C247 C246 1.170 . S
C248 C249 1.170 . S
C248 C250 1.380 . S
C249 C248 1.170 . S
C250 C248 1.380 . S
C250 C251 1.170 . S
C251 C250 1.170 . S
C252 C253 1.170 . S
C252 C254 1.380 . S
C253 C252 1.170 . S
C254 C252 1.380 . S
C254 C255 1.170 . S
C255 C254 1.170 . S
C256 C257 1.170 . S
C256 C258 1.380 . S
C257 C256 1.170 . S
C258 C256 1.380 . S
C258 C259 1.170 . S
C259 C258 1.170 . S
C260 C261 1.170 . S
C260 C262 1.380 . S
C261 C260 1.170 . S
C262 C260 1.380 . S
C262 C263 1.170 . S
C263 C262 1.170 . S
C169 C7 1.383 . S
C171 C161 1.364 . S
C173 C91 1.372 . S
C175 C21 1.364 . S
C177 C35 1.380 . S
C179 C105 1.394 . S
C181 C119 1.390 . S
C183 C49 1.370 . S
C185 C133 1.387 . S
C187 C63 1.366 . S
C189 C147 1.364 . S
C191 C77 1.371 . S
C193 C45 1.372 . S
C195 C115 1.350 . S
C197 C59 1.343 . S
C199 C129 1.371 . S
C201 C73 1.353 . S
C203 C143 1.357 . S
C205 C157 1.350 . S
C207 C3 1.361 . S
C209 C17 1.374 . S
C211 C87 1.344 . S
C213 C31 1.366 . S
C215 C101 1.357 . S
C217 C121 1.625 . S
C219 C9 1.623 . S
C221 C135 1.622 . S
C223 C23 1.624 . S
C225 C37 1.628 . S
C227 C149 1.626 . S
C229 C51 1.620 . S
C231 C163 1.620 . S
C233 C65 1.634 . S
C235 C93 1.634 . S
C237 C107 1.631 . S
C239 C79 1.633 . S
C241 C8 1.598 . S
C243 C148 1.598 . S
C245 C162 1.598 . S
C247 C22 1.599 . S
C249 C36 1.600 . S
C251 C92 1.599 . S
C253 C50 1.598 . S
C255 C106 1.598 . S
C257 C64 1.614 . S
C259 C120 1.614 . S
C261 C78 1.605 . S
C263 C134 1.607 . S
