# Generated by pormake.
# Topology rob, (6)-cn, num edge types: 1
# Building blocks:
#     Node 0, Type 0, BuildingBlock: BETDAH_clean_sbu_0, # of connection points: 6
#     Node 1, Type 0, BuildingBlock: BETDAH_clean_sbu_0, # of connection points: 6
#     Node 2, Type 0, BuildingBlock: BETDAH_clean_sbu_0, # of connection points: 6
#     Node 3, Type 0, BuildingBlock: BETDAH_clean_sbu_0, # of connection points: 6
#     Edge 4, Type (0, 0), BuildingBlock: XUDNAN_clean_linker_2, # of connection points: 2
#     Edge 5, Type (0, 0), BuildingBlock: XUDNAN_clean_linker_2, # of connection points: 2
#     Edge 6, Type (0, 0), BuildingBlock: XUDNAN_clean_linker_2, # of connection points: 2
#     Edge 7, Type (0, 0), BuildingBlock: XUDNAN_clean_linker_2, # of connection points: 2
#     Edge 8, Type (0, 0), BuildingBlock: XUDNAN_clean_linker_2, # of connection points: 2
#     Edge 9, Type (0, 0), BuildingBlock: XUDNAN_clean_linker_2, # of connection points: 2
#     Edge 10, Type (0, 0), BuildingBlock: XUDNAN_clean_linker_2, # of connection points: 2
#     Edge 11, Type (0, 0), BuildingBlock: XUDNAN_clean_linker_2, # of connection points: 2
#     Edge 12, Type (0, 0), BuildingBlock: XUDNAN_clean_linker_2, # of connection points: 2
#     Edge 13, Type (0, 0), BuildingBlock: XUDNAN_clean_linker_2, # of connection points: 2
#     Edge 14, Type (0, 0), BuildingBlock: XUDNAN_clean_linker_2, # of connection points: 2
#     Edge 15, Type (0, 0), BuildingBlock: XUDNAN_clean_linker_2, # of connection points: 2
# Relax obj value: 0.149
# Max RMSD: 0.195
# Mean RMSD: 0.195
data_MOF--net-rob--node1-BETDAH_clean_sbu_0--edge1-XUDNAN_clean_linker_2
_symmetry_space_group_name_H-M    P1
_symmetry_Int_Tables_number       1
_symmetry_cell_setting            triclinic
loop_
_symmetry_equiv_pos_as_xyz
'x, y, z'
_cell_length_a     16.259242
_cell_length_b     23.470394
_cell_length_c     37.117606
_cell_angle_alpha  90.067404
_cell_angle_beta   126.10993
_cell_angle_gamma 89.787205
loop_
_atom_site_label
_atom_site_type_symbol
_atom_site_fract_x
_atom_site_fract_y
_atom_site_fract_z
_atom_type_partial_charge
Ho0 Ho 0.1846 0.28531 0.00413 0.0
Ho1 Ho 0.36114 0.23665 0.00357 0.0
C2 C 0.40066 0.24969 0.09667 0.0
C3 C 0.05052 0.30487 0.01943 0.0
C4 C 0.04081 0.30258 0.05664 0.0
C5 C 0.08837 0.25994 0.08961 0.0
C6 C 0.07365 0.25786 0.12327 0.0
C7 C 1.01183 0.2985 0.12476 0.0
C8 C 0.96566 0.34144 0.09198 0.0
C9 C 0.98 0.34338 0.05835 0.0
C10 C 0.30818 0.36232 0.00353 0.0
C11 C 0.14128 0.26946 0.91071 0.0
C12 C 0.49069 0.223 0.98488 0.0
C13 C 0.485 0.21841 0.94332 0.0
C14 C 0.51228 0.26481 0.92841 0.0
C15 C 0.50561 0.26112 0.88897 0.0
C16 C 0.47174 0.21083 0.86343 0.0
C17 C 0.44697 0.16401 0.87906 0.0
C18 C 0.45349 0.16771 0.91835 0.0
C19 C 0.2516 0.15764 0.01042 0.0
O20 O 0.30086 0.25537 0.07429 0.0
O21 O 0.44674 0.24909 0.07686 0.0
O22 O 0.11037 0.34407 0.02178 0.0
O23 O 0.05873 0.25633 0.00438 0.0
O24 O 0.21079 0.37014 0.98224 0.0
O25 O 0.3334 0.31633 0.02483 0.0
O26 O 0.23965 0.2594 0.93243 0.0
O27 O 0.09696 0.27597 0.93085 0.0
O28 O 0.45346 0.18084 0.99416 0.0
O29 O 0.46861 0.27268 0.9933 0.0
O30 O 0.34822 0.15325 0.0283 0.0
O31 O 0.21488 0.20194 0.98613 0.0
H32 H 0.13562 0.22786 0.08901 0.0
H33 H 0.10831 0.22358 0.14743 0.0
H34 H 0.91825 0.37367 0.09231 0.0
H35 H 0.94266 0.37666 0.03334 0.0
H36 H 0.53782 0.30434 0.94702 0.0
H37 H 0.5244 0.29825 0.87791 0.0
H38 H 0.42236 0.12418 0.86088 0.0
H39 H 0.43319 0.13075 0.92895 0.0
Ho40 Ho 0.68312 0.78491 1.00078 0.0
Ho41 Ho 0.85481 0.73495 0.99865 0.0
C42 C 0.90162 0.74648 0.09369 0.0
C43 C 0.55423 0.80086 0.01953 0.0
C44 C 0.56078 0.80718 0.06108 0.0
C45 C 0.52907 0.76269 0.07563 0.0
C46 C 0.53729 0.76767 0.11532 0.0
C47 C 0.57716 0.81737 0.14136 0.0
C48 C 0.6063 0.86238 0.12608 0.0
C49 C 0.59833 0.85737 0.08656 0.0
C50 C 0.81037 0.86182 0.00294 0.0
C51 C 0.64296 0.77853 0.90758 0.0
C52 C 0.97874 0.71547 0.97787 0.0
C53 C 0.97742 0.72633 0.93801 0.0
C54 C 0.99625 0.78096 0.92887 0.0
C55 C 0.9991 0.79001 0.89234 0.0
C56 C 0.98323 0.74477 0.86395 0.0
C57 C 0.96142 0.69053 0.87231 0.0
C58 C 0.95914 0.68138 0.90903 0.0
C59 C 0.74271 0.6571 0.00477 0.0
O60 O 0.80377 0.75922 0.0722 0.0
O61 O 0.9449 0.7403 0.07286 0.0
O62 O 0.59101 0.84214 0.0093 0.0
O63 O 0.57652 0.7506 0.01215 0.0
O64 O 0.71375 0.87133 0.98275 0.0
O65 O 0.8335 0.81451 0.02248 0.0
O66 O 0.74231 0.77161 0.93043 0.0
O67 O 0.59605 0.77773 0.92693 0.0
O68 O 0.91388 0.6778 0.97309 0.0
O69 O 0.98655 0.75966 1.00134 0.0
O70 O 0.83944 0.65241 0.02326 0.0
O71 O 0.70703 0.70157 0.98058 0.0
H72 H 0.49902 0.72363 0.05657 0.0
H73 H 0.51493 0.73197 0.12619 0.0
H74 H 0.63556 0.90174 0.14473 0.0
H75 H 0.62238 0.89285 0.07624 0.0
H76 H 1.01012 0.81674 0.95022 0.0
H77 H 1.0147 0.83252 0.88653 0.0
H78 H 0.94977 0.65465 0.85141 0.0
H79 H 0.94466 0.63876 0.91516 0.0
Ho80 Ho 0.37227 0.79852 0.51085 0.0
Ho81 Ho 0.18533 0.73786 0.49333 0.0
C82 C 0.19411 0.74855 0.41186 0.0
C83 C 0.522 0.82871 0.50849 0.0
C84 C 0.54176 0.82581 0.47438 0.0
C85 C 0.51029 0.77906 0.44533 0.0
C86 C 0.52572 0.77864 0.4119 0.0
C87 C 0.57336 0.82487 0.40699 0.0
C88 C 0.60417 0.87161 0.43613 0.0
C89 C 0.58859 0.87199 0.46938 0.0
C90 C 0.22526 0.86842 0.49913 0.0
C91 C 0.36404 0.78822 0.59195 0.0
C92 C 0.0375 0.70956 0.49763 0.0
C93 C 1.01735 0.72247 0.53091 0.0
C94 C 0.03775 0.77671 0.55045 0.0
C95 C 0.03131 0.78655 0.58591 0.0
C96 C 1.00519 0.74233 0.60308 0.0
C97 C 0.98035 0.68872 0.58212 0.0
C98 C 0.98661 0.67892 0.54648 0.0
C99 C 0.33283 0.66804 0.5055 0.0
O100 O 0.29072 0.76201 0.44172 0.0
O101 O 0.12916 0.74398 0.42214 0.0
O102 O 0.44895 0.86332 0.49942 0.0
O103 O 0.52011 0.78048 0.52566 0.0
O104 O 0.32195 0.87903 0.52629 0.0
O105 O 0.21135 0.82312 0.47769 0.0
O106 O 0.26643 0.77727 0.56163 0.0
O107 O 0.42956 0.79019 0.58193 0.0
O108 O 0.11656 0.67697 0.51198 0.0
O109 O 0.03203 0.75219 0.47354 0.0
O110 O 0.23616 0.65717 0.47838 0.0
O111 O 0.34626 0.7134 0.52679 0.0
H112 H 0.47368 0.74291 0.44843 0.0
H113 H 0.50171 0.74178 0.39037 0.0
H114 H 0.63933 0.90847 0.43293 0.0
H115 H 0.61238 0.90877 0.49102 0.0
H116 H 0.06188 0.81119 0.5393 0.0
H117 H 0.04924 0.82868 0.60058 0.0
H118 H 0.9607 0.65356 0.59456 0.0
H119 H 0.97102 0.63665 0.53212 0.0
Ho120 Ho 0.88301 0.27818 0.51816 0.0
Ho121 Ho 0.66986 0.25124 0.49091 0.0
C122 C 0.68907 0.2647 0.41323 0.0
C123 C 0.03578 0.28139 0.5137 0.0
C124 C 0.03409 0.28756 0.4734 0.0
C125 C 0.09236 0.2514 0.46628 0.0
C126 C 0.08169 0.25328 0.42581 0.0
C127 C 1.01208 0.29122 0.39155 0.0
C128 C 0.95647 0.32847 0.39959 0.0
C129 C 0.96681 0.32644 0.4397 0.0
C130 C 0.77966 0.36954 0.51685 0.0
C131 C 0.86219 0.26682 0.59539 0.0
C132 C 0.51088 0.24466 0.49105 0.0
C133 C 0.49438 0.24186 0.52643 0.0
C134 C 0.52503 0.28585 0.55776 0.0
C135 C 0.51182 0.28065 0.5918 0.0
C136 C 0.46708 0.23152 0.59513 0.0
C137 C 0.4366 0.18778 0.56359 0.0
C138 C 0.44963 0.19304 0.52971 0.0
C139 C 0.7748 0.16042 0.49214 0.0
O140 O 0.7876 0.26331 0.44489 0.0
O141 O 0.62144 0.26904 0.42196 0.0
O142 O 1.00494 0.32553 0.52437 0.0
O143 O 0.9985 0.23383 0.51659 0.0
O144 O 0.87751 0.36269 0.54441 0.0
O145 O 0.741 0.32934 0.4885 0.0
O146 O 0.76371 0.26997 0.56363 0.0
O147 O 0.92984 0.25987 0.58682 0.0
O148 O 0.55555 0.20036 0.48818 0.0
O149 O 0.54371 0.29258 0.48588 0.0
O150 O 0.6773 0.16766 0.46383 0.0
O151 O 0.81207 0.20027 0.5207 0.0
H152 H 0.14409 0.22065 0.49151 0.0
H153 H 0.12535 0.22367 0.42082 0.0
H154 H 0.90362 0.35906 0.37458 0.0
H155 H 0.91988 0.35456 0.44379 0.0
H156 H 0.5595 0.32423 0.55612 0.0
H157 H 0.53534 0.31549 0.61507 0.0
H158 H 0.40365 0.14879 0.56531 0.0
H159 H 0.42554 0.15838 0.5062 0.0
H160 H 0.53174 0.63973 0.95839 0.0
H161 H 0.8289 0.57406 0.06601 0.0
H162 H 0.74826 0.49504 0.077 0.0
H163 H 0.40287 0.6001 0.01026 0.0
H164 H 0.28575 0.5798 0.95827 0.0
H165 H 0.36508 0.63397 0.95903 0.0
H166 H 0.37186 0.57671 0.90119 0.0
H167 H 0.29304 0.52223 0.90042 0.0
H168 H 0.41514 0.50372 0.913 0.0
H169 H 0.64266 0.42066 0.07506 0.0
H170 H 0.51203 0.35463 0.06273 0.0
H171 H 0.2757 0.46409 0.95752 0.0
C172 C 0.57924 0.60898 0.9845 0.0
C173 C 0.68697 0.6131 0.01119 0.0
C174 C 0.74653 0.57185 0.04489 0.0
C175 C 0.70146 0.52664 0.05156 0.0
C176 C 0.59604 0.52292 0.02447 0.0
C177 C 0.53493 0.56287 0.99183 0.0
C178 C 0.42306 0.54697 0.96735 0.0
C179 C 0.3658 0.59294 0.97414 0.0
C180 C 0.37283 0.53681 0.91753 0.0
C181 C 0.43205 0.49162 0.99103 0.0
C182 C 0.53309 0.47911 0.02382 0.0
C183 C 0.56309 0.43009 0.04974 0.0
C184 C 0.48801 0.39265 0.04231 0.0
C185 C 0.3835 0.40404 0.00923 0.0
C186 C 0.35499 0.45442 0.98321 0.0
H187 H 0.31226 0.57019 0.45986 0.0
H188 H 0.53838 0.67902 0.56813 0.0
H189 H 0.67487 0.61529 0.58113 0.0
H190 H 0.43836 0.43623 0.51205 0.0
H191 H 0.40323 0.40325 0.46095 0.0
H192 H 0.32294 0.45761 0.45962 0.0
H193 H 0.33455 0.516 0.40355 0.0
H194 H 0.41483 0.46172 0.40478 0.0
H195 H 0.45785 0.53453 0.41767 0.0
H196 H 0.78614 0.53913 0.58371 0.0
H197 H 0.8672 0.45649 0.57558 0.0
H198 H 0.57142 0.3957 0.46437 0.0
C199 C 0.39059 0.58058 0.48626 0.0
C200 C 0.41477 0.62986 0.51292 0.0
C201 C 0.51807 0.64192 0.54712 0.0
C202 C 0.59608 0.60579 0.55481 0.0
C203 C 0.56973 0.55757 0.52805 0.0
C204 C 0.46958 0.5448 0.49442 0.0
C205 C 0.4625 0.48994 0.47073 0.0
C206 C 0.40323 0.44406 0.47617 0.0
C207 C 0.41461 0.50124 0.42124 0.0
C208 C 0.57439 0.47395 0.49623 0.0
C209 C 0.63447 0.5136 0.52924 0.0
C210 C 0.73983 0.50799 0.55788 0.0
C211 C 0.78518 0.46071 0.5529 0.0
C212 C 0.72596 0.41929 0.51937 0.0
C213 C 0.61885 0.42633 0.49043 0.0
H214 H 0.04101 0.14129 0.96439 0.0
H215 H 0.33711 0.07164 0.06931 0.0
H216 H 0.25495 0.99161 0.0786 0.0
H217 H 0.91308 0.09888 0.01588 0.0
H218 H 0.79489 0.08078 0.96356 0.0
H219 H 0.87554 0.13504 0.96546 0.0
H220 H 0.87922 0.08051 0.90577 0.0
H221 H 0.79911 0.02593 0.90388 0.0
H222 H 0.9202 1.00711 0.91552 0.0
H223 H 0.147 0.91668 0.07494 0.0
H224 H 1.01425 0.85109 0.06123 0.0
H225 H 0.78119 0.96552 0.95991 0.0
C226 C 0.08802 0.10942 0.98955 0.0
C227 C 0.1958 0.11272 0.016 0.0
C228 C 0.2547 0.07005 0.04844 0.0
C229 C 0.20875 0.02427 0.05409 0.0
C230 C 0.10316 0.02143 0.02723 0.0
C231 C 0.04286 0.06279 0.99582 0.0
C232 C 0.93062 0.04783 0.97127 0.0
C233 C 0.87526 0.09334 0.97954 0.0
C234 C 0.87928 0.03987 0.92113 0.0
C235 C 0.93832 0.99146 0.99354 0.0
C236 C 0.03908 0.9775 0.02565 0.0
C237 C 0.06767 0.92724 0.05015 0.0
C238 C 0.99145 0.89008 0.04195 0.0
C239 C 0.88725 0.90308 0.00962 0.0
C240 C 0.86023 0.95464 0.98506 0.0
H241 H 0.98365 0.1352 0.54493 0.0
H242 H 0.68871 0.0725 0.43437 0.0
H243 H 0.77126 0.9908 0.42613 0.0
H244 H 0.11357 0.09754 0.49502 0.0
H245 H 0.23088 0.07897 0.5477 0.0
H246 H 0.14609 0.13097 0.54553 0.0
H247 H 0.1438 0.07108 0.60372 0.0
H248 H 0.22543 1.01829 0.6044 0.0
H249 H 0.10414 0.99764 0.59154 0.0
H250 H 0.88355 0.91801 0.42714 0.0
H251 H 0.01994 0.8564 0.4379 0.0
H252 H 0.24602 0.96509 0.54637 0.0
C253 C 0.93673 0.10437 0.51896 0.0
C254 C 0.8294 0.11075 0.49011 0.0
C255 C 0.77086 0.06891 0.45687 0.0
C256 C 0.81707 0.02216 0.45184 0.0
C257 C 0.92263 1.01756 0.48008 0.0
C258 C 0.98213 0.0574 0.51297 0.0
C259 C 0.09451 0.04287 0.53751 0.0
C260 C 0.1496 0.09038 0.53106 0.0
C261 C 0.1449 0.03181 0.58725 0.0
C262 C 0.08824 0.98847 0.51354 0.0
C263 C 0.98814 0.97491 0.48053 0.0
C264 C 0.96219 0.92757 0.45312 0.0
C265 C 0.04027 0.89282 0.45953 0.0
C266 C 0.14359 0.90548 0.49314 0.0
C267 C 0.16764 0.9541 0.52048 0.0
H268 H 0.50258 0.28575 0.33308 0.0
H269 H 0.80839 0.22216 0.39088 0.0
H270 H 0.76613 0.20902 0.31648 0.0
H271 H 0.37694 0.18921 0.23796 0.0
H272 H 0.2853 0.24161 0.19986 0.0
H273 H 0.33668 0.24477 0.25807 0.0
H274 H 0.39471 0.34847 0.26201 0.0
H275 H 0.34268 0.34585 0.20375 0.0
H276 H 0.47454 0.36421 0.2444 0.0
H277 H 0.69816 0.2094 0.23709 0.0
H278 H 0.59938 0.21568 0.15505 0.0
H279 H 0.33723 0.27601 0.14812 0.0
C280 C 0.56024 0.26903 0.32993 0.0
C281 C 0.65884 0.25591 0.36776 0.0
C282 C 0.73249 0.23366 0.36241 0.0
C283 C 0.70951 0.22579 0.32025 0.0
C284 C 0.61281 0.24053 0.28366 0.0
C285 C 0.53889 0.26114 0.28783 0.0
C286 C 0.44093 0.27338 0.2427 0.0
C287 C 0.35489 0.2349 0.23419 0.0
C288 C 0.41157 0.33675 0.23796 0.0
C289 C 0.47263 0.2575 0.21296 0.0
C290 C 0.57209 0.23869 0.23729 0.0
C291 C 0.61964 0.2235 0.21738 0.0
C292 C 0.5633 0.22736 0.17093 0.0
C293 C 0.46078 0.24582 0.14537 0.0
C294 C 0.4152 0.26101 0.16676 0.0
H295 H 0.45116 0.78082 0.16441 0.0
H296 H 0.73931 0.86439 0.21804 0.0
H297 H 0.77158 0.87066 0.29141 0.0
H298 H 0.38494 0.86624 0.22454 0.0
H299 H 0.32665 0.80862 0.23397 0.0
H300 H 0.32764 0.80776 0.18571 0.0
H301 H 0.41526 0.70875 0.20922 0.0
H302 H 0.41467 0.70961 0.25761 0.0
H303 H 0.53265 0.69952 0.26404 0.0
H304 H 0.77473 0.86757 0.35874 0.0
H305 H 0.74348 0.86237 0.4161 0.0
H306 H 0.44858 0.78575 0.31959 0.0
C307 C 0.52145 0.79994 0.19171 0.0
C308 C 0.59348 0.82153 0.18536 0.0
C309 C 0.68328 0.84734 0.22186 0.0
C310 C 0.70246 0.85098 0.26383 0.0
C311 C 0.6304 0.82931 0.26896 0.0
C312 C 0.54114 0.80478 0.23394 0.0
C313 C 0.4747 0.78725 0.24847 0.0
C314 C 0.37245 0.81941 0.22158 0.0
C315 C 0.4584 0.72243 0.24461 0.0
C316 C 0.54072 0.80608 0.29698 0.0
C317 C 0.63051 0.82964 0.30799 0.0
C318 C 0.70432 0.84992 0.35061 0.0
C319 C 0.68548 0.84708 0.38284 0.0
C320 C 0.59301 0.82453 0.3724 0.0
C321 C 0.52024 0.80309 0.32884 0.0
H322 H 0.70877 0.75928 0.8559 0.0
H323 H 0.44805 0.81997 0.84984 0.0
H324 H 0.35584 0.83812 0.76903 0.0
H325 H 0.68548 0.85787 0.77395 0.0
H326 H 0.72293 0.80448 0.7512 0.0
H327 H 0.77079 0.80121 0.80899 0.0
H328 H 0.70245 0.69844 0.79718 0.0
H329 H 0.65371 0.70175 0.73936 0.0
H330 H 0.56954 0.68469 0.75442 0.0
H331 H 0.29242 0.84839 0.68984 0.0
H332 H 0.2493 0.83687 0.61458 0.0
H333 H 0.55062 0.7677 0.67156 0.0
C334 C 0.63262 0.77701 0.83777 0.0
C335 C 0.58564 0.78871 0.8592 0.0
C336 C 0.48537 0.81081 0.83409 0.0
C337 C 0.43289 0.82165 0.78833 0.0
C338 C 0.4819 0.81001 0.76842 0.0
C339 C 0.57913 0.78764 0.7922 0.0
C340 C 0.61179 0.77493 0.76224 0.0
C341 C 0.70313 0.81186 0.77484 0.0
C342 C 0.63568 0.71116 0.76336 0.0
C343 C 0.51635 0.79238 0.71751 0.0
C344 C 0.44341 0.81352 0.72212 0.0
C345 C 0.34797 0.83102 0.68567 0.0
C346 C 0.32447 0.82442 0.64313 0.0
C347 C 0.39644 0.8009 0.63741 0.0
C348 C 0.4946 0.78614 0.67513 0.0
H349 H 0.59061 0.26731 0.68376 0.0
H350 H 0.30375 0.1834 0.58685 0.0
H351 H 0.2777 0.16713 0.6449 0.0
H352 H 0.66764 0.17957 0.77795 0.0
H353 H 0.71941 0.23731 0.81752 0.0
H354 H 0.71746 0.24178 0.76859 0.0
H355 H 0.61831 0.33702 0.74686 0.0
H356 H 0.62002 0.33291 0.79577 0.0
H357 H 0.50062 0.3402 0.74143 0.0
H358 H 0.28485 0.15629 0.71353 0.0
H359 H 0.31697 0.15873 0.78702 0.0
H360 H 0.59283 0.25571 0.84003 0.0
C361 C 0.52178 0.24605 0.67458 0.0
C362 C 0.45013 0.22557 0.63054 0.0
C363 C 0.36137 0.19785 0.62038 0.0
C364 C 0.34541 0.18882 0.65314 0.0
C365 C 0.41812 0.20851 0.69617 0.0
C366 C 0.50394 0.23722 0.70697 0.0
C367 C 0.56879 0.25492 0.7558 0.0
C368 C 0.67457 0.2267 0.78147 0.0
C369 C 0.5774 0.32014 0.76021 0.0
C370 C 0.50597 0.23144 0.77062 0.0
C371 C 0.41995 0.2044 0.73565 0.0
C372 C 0.35154 0.17777 0.74107 0.0
C373 C 0.37073 0.17922 0.78316 0.0
C374 C 0.45667 0.20793 0.81952 0.0
C375 C 0.5254 0.23421 0.81292 0.0
H376 H 0.84543 0.77553 0.14762 0.0
H377 H 0.09623 0.7039 0.15064 0.0
H378 H 0.19478 0.69184 0.23242 0.0
H379 H 1.00614 0.85386 0.24988 0.0
H380 H 0.9222 0.84469 0.26607 0.0
H381 H 0.87139 0.84625 0.20775 0.0
H382 H 0.78638 0.74808 0.19646 0.0
H383 H 0.83728 0.74575 0.25462 0.0
H384 H 0.86372 0.68845 0.2304 0.0
H385 H 0.26576 0.68901 0.31362 0.0
H386 H 0.30821 0.69946 0.38895 0.0
H387 H 1.01008 0.77271 0.33246 0.0
C388 C 0.92077 0.75682 0.16526 0.0
C389 C 0.96284 0.74009 0.14265 0.0
C390 C 0.06241 0.71685 0.16725 0.0
C391 C 0.11867 0.70962 0.21363 0.0
C392 C 0.07416 0.72601 0.2347 0.0
C393 C 0.97787 0.74959 0.21135 0.0
C394 C 0.94946 0.76671 0.24206 0.0
C395 C 0.93642 0.83173 0.24138 0.0
C396 C 0.85353 0.73535 0.23017 0.0
C397 C 0.04338 0.74713 0.28637 0.0
C398 C 0.11488 0.72439 0.28141 0.0
C399 C 0.21017 0.7064 0.31783 0.0
C400 C 0.23361 0.71271 0.36044 0.0
C401 C 0.16211 0.73667 0.36632 0.0
C402 C 0.06518 0.7532 0.32876 0.0
H403 H 0.15136 0.27745 0.37158 0.0
H404 H 0.82943 0.30442 0.3096 0.0
H405 H 0.79561 0.30635 0.23585 0.0
H406 H 0.16588 0.36958 0.29847 0.0
H407 H 0.25334 0.3249 0.29632 0.0
H408 H 0.25327 0.3237 0.34483 0.0
H409 H 0.2252 0.21457 0.33646 0.0
H410 H 0.22508 0.21559 0.28788 0.0
H411 H 0.11862 0.18576 0.28443 0.0
H412 H 0.79514 0.30816 0.16864 0.0
H413 H 0.82911 0.30959 0.11206 0.0
H414 H 0.1505 0.28116 0.21565 0.0
C415 C 0.07359 0.28305 0.34249 0.0
C416 C 0.99319 0.29077 0.34684 0.0
C417 C 0.8928 0.29889 0.30766 0.0
C418 C 0.8725 0.29981 0.26537 0.0
C419 C 0.95321 0.29258 0.26234 0.0
C420 C 0.05184 0.28434 0.29972 0.0
C421 C 0.12471 0.2791 0.28683 0.0
C422 C 0.20397 0.32719 0.30786 0.0
C423 C 0.17644 0.22024 0.29966 0.0
C424 C 0.05145 0.28587 0.23647 0.0
C425 C 0.95293 0.29357 0.22319 0.0
C426 C 0.87197 0.30209 0.17862 0.0
C427 C 0.89211 0.30311 0.14672 0.0
C428 C 0.99243 0.29554 0.15932 0.0
C429 C 0.07291 0.28638 0.20489 0.0
H430 H 0.04321 0.23751 0.67519 0.0
H431 H 0.74844 0.31694 0.61795 0.0
H432 H 0.7868 0.3255 0.69207 0.0
H433 H 0.04757 0.15681 0.75782 0.0
H434 H 0.18206 0.16609 0.7999 0.0
H435 H 0.13129 0.16731 0.74163 0.0
H436 H 0.21277 0.26771 0.75281 0.0
H437 H 0.26265 0.26562 0.81092 0.0
H438 H 0.18323 0.32425 0.77638 0.0
H439 H 0.85112 0.32125 0.77116 0.0
H440 H 0.94683 0.31086 0.85286 0.0
H441 H 0.20022 0.23681 0.85883 0.0
C442 C 0.98763 0.25731 0.67845 0.0
C443 C 0.89255 0.27563 0.64084 0.0
C444 C 0.82125 0.30135 0.64627 0.0
C445 C 0.84224 0.30682 0.68827 0.0
C446 C 0.93533 0.28698 0.7246 0.0
C447 C 1.00745 0.26335 0.72038 0.0
C448 C 0.10074 0.2447 0.76506 0.0
C449 C 0.11638 0.17989 0.76617 0.0
C450 C 0.19547 0.27752 0.77699 0.0
C451 C 0.06942 0.26178 0.79466 0.0
C452 C 0.97345 0.28567 0.77066 0.0
C453 C 0.92702 0.30314 0.79062 0.0
C454 C 0.9815 0.29684 0.83684 0.0
C455 C 0.08095 0.27358 0.86206 0.0
C456 C 0.1247 0.25545 0.84052 0.0
H457 H 0.8783 0.70144 0.62463 0.0
H458 H 0.15075 0.80155 0.67702 0.0
H459 H 0.16894 0.81583 0.74694 0.0
H460 H 0.78264 0.78376 0.67661 0.0
H461 H 0.73752 0.72224 0.68907 0.0
H462 H 0.74147 0.72153 0.64155 0.0
H463 H 0.85216 0.63018 0.6714 0.0
H464 H 0.84841 0.63038 0.71894 0.0
H465 H 0.96915 0.62964 0.72702 0.0
H466 H 0.16231 0.81763 0.81188 0.0
H467 H 0.13303 0.80515 0.86933 0.0
H468 H 0.86587 0.70293 0.77734 0.0
C469 C 0.94159 0.72649 0.65077 0.0
C470 C 1.01238 0.75119 0.64479 0.0
C471 C 0.09409 0.78351 0.68006 0.0
C472 C 0.10551 0.79156 0.72016 0.0
C473 C 0.03461 0.76699 0.72488 0.0
C474 C 0.95414 0.73508 0.69129 0.0
C475 C 0.89058 0.71224 0.70594 0.0
C476 C 0.7816 0.73639 0.67654 0.0
C477 C 0.8901 0.64672 0.70582 0.0
C478 C 0.94913 0.73571 0.75315 0.0
C479 C 0.03137 0.76751 0.76305 0.0
C480 C 0.09772 0.79319 0.80447 0.0
C481 C 0.08002 0.78613 0.83684 0.0
C482 C 0.99678 0.75345 0.82791 0.0
C483 C 0.9304 0.72798 0.78531 0.0
loop_
_geom_bond_atom_site_label_1
_geom_bond_atom_site_label_2
_geom_bond_distance
_geom_bond_site_symmetry_2
_ccdc_geom_bond_type
Ho0 C3 2.811 1_556 S
Ho0 O20 2.322 1_556 S
Ho0 O22 2.378 1_556 S
Ho0 O23 2.524 1_556 S
Ho0 O24 2.381 1_556 S
Ho0 O25 2.669 . S
Ho0 O27 2.346 . S
Ho0 O31 2.305 1_556 S
Ho1 C12 2.811 1_554 S
Ho1 O21 2.346 . S
Ho1 O25 2.305 1_554 S
Ho1 O26 2.322 1_554 S
Ho1 O28 2.378 1_554 S
Ho1 O29 2.524 1_554 S
Ho1 O30 2.381 1_554 S
Ho1 O31 2.669 . S
C2 O20 1.259 . S
C2 O21 1.268 . S
C3 Ho0 2.811 1_554 S
C3 C4 1.488 . S
C3 O22 1.215 . S
C3 O23 1.289 . S
C4 C3 1.488 . S
C4 C5 1.348 . S
C4 C9 1.413 . S
C5 C4 1.348 . S
C5 C6 1.442 . S
C5 H32 0.930 . S
C6 C5 1.442 . S
C6 C7 1.381 . S
C6 H33 0.931 . S
C7 C6 1.381 . S
C7 C8 1.321 . S
C8 C7 1.321 . S
C8 C9 1.403 . S
C8 H34 0.934 . S
C9 C4 1.413 . S
C9 C8 1.403 . S
C9 H35 0.930 . S
C10 O24 1.275 . S
C10 O25 1.256 1_554 S
C11 O26 1.259 . S
C11 O27 1.268 . S
C12 Ho1 2.811 1_556 S
C12 C13 1.488 . S
C12 O28 1.215 . S
C12 O29 1.289 . S
C13 C12 1.488 . S
C13 C14 1.348 . S
C13 C18 1.413 . S
C14 C13 1.348 . S
C14 C15 1.442 . S
C14 H36 0.930 . S
C15 C14 1.442 . S
C15 C16 1.381 . S
C15 H37 0.931 . S
C16 C15 1.381 . S
C16 C17 1.321 . S
C17 C16 1.321 . S
C17 C18 1.403 . S
C17 H38 0.934 . S
C18 C13 1.413 . S
C18 C17 1.403 . S
C18 H39 0.930 . S
C19 O30 1.275 . S
C19 O31 1.256 1_556 S
O20 Ho0 2.322 1_554 S
O20 C2 1.259 . S
O21 Ho1 2.346 . S
O21 C2 1.268 . S
O22 Ho0 2.378 1_554 S
O22 C3 1.215 . S
O23 Ho0 2.524 1_554 S
O23 C3 1.289 . S
O24 Ho0 2.381 1_554 S
O24 C10 1.275 . S
O25 Ho0 2.669 . S
O25 Ho1 2.305 1_556 S
O25 C10 1.256 1_556 S
O26 Ho1 2.322 1_556 S
O26 C11 1.259 . S
O27 Ho0 2.346 . S
O27 C11 1.268 . S
O28 Ho1 2.378 1_556 S
O28 C12 1.215 . S
O29 Ho1 2.524 1_556 S
O29 C12 1.289 . S
O30 Ho1 2.381 1_556 S
O30 C19 1.275 . S
O31 Ho0 2.305 1_554 S
O31 Ho1 2.669 . S
O31 C19 1.256 1_554 S
H32 C5 0.930 . S
H33 C6 0.931 . S
H34 C8 0.934 . S
H35 C9 0.930 . S
H36 C14 0.930 . S
H37 C15 0.931 . S
H38 C17 0.934 . S
H39 C18 0.930 . S
Ho40 C43 2.811 1_556 S
Ho40 O60 2.322 1_556 S
Ho40 O62 2.378 1_556 S
Ho40 O63 2.524 1_556 S
Ho40 O64 2.381 1_556 S
Ho40 O65 2.669 . S
Ho40 O67 2.346 . S
Ho40 O71 2.305 1_556 S
Ho41 C52 2.811 1_554 S
Ho41 O61 2.346 . S
Ho41 O65 2.305 1_554 S
Ho41 O66 2.322 1_554 S
Ho41 O68 2.378 1_554 S
Ho41 O69 2.524 1_554 S
Ho41 O70 2.381 1_554 S
Ho41 O71 2.669 . S
C42 O60 1.259 . S
C42 O61 1.268 . S
C43 Ho40 2.811 1_554 S
C43 C44 1.488 . S
C43 O62 1.215 . S
C43 O63 1.289 . S
C44 C43 1.488 . S
C44 C45 1.348 . S
C44 C49 1.413 . S
C45 C44 1.348 . S
C45 C46 1.442 . S
C45 H72 0.930 . S
C46 C45 1.442 . S
C46 C47 1.381 . S
C46 H73 0.931 . S
C47 C46 1.381 . S
C47 C48 1.321 . S
C48 C47 1.321 . S
C48 C49 1.403 . S
C48 H74 0.934 . S
C49 C44 1.413 . S
C49 C48 1.403 . S
C49 H75 0.930 . S
C50 O64 1.275 . S
C50 O65 1.256 1_554 S
C51 O66 1.259 . S
C51 O67 1.268 . S
C52 Ho41 2.811 1_556 S
C52 C53 1.488 . S
C52 O68 1.215 . S
C52 O69 1.289 . S
C53 C52 1.488 . S
C53 C54 1.348 . S
C53 C58 1.413 . S
C54 C53 1.348 . S
C54 C55 1.442 . S
C54 H76 0.930 . S
C55 C54 1.442 . S
C55 C56 1.381 . S
C55 H77 0.931 . S
C56 C55 1.381 . S
C56 C57 1.321 . S
C57 C56 1.321 . S
C57 C58 1.403 . S
C57 H78 0.934 . S
C58 C53 1.413 . S
C58 C57 1.403 . S
C58 H79 0.930 . S
C59 O70 1.275 . S
C59 O71 1.256 1_556 S
O60 Ho40 2.322 1_554 S
O60 C42 1.259 . S
O61 Ho41 2.346 . S
O61 C42 1.268 . S
O62 Ho40 2.378 1_554 S
O62 C43 1.215 . S
O63 Ho40 2.524 1_554 S
O63 C43 1.289 . S
O64 Ho40 2.381 1_554 S
O64 C50 1.275 . S
O65 Ho40 2.669 . S
O65 Ho41 2.305 1_556 S
O65 C50 1.256 1_556 S
O66 Ho41 2.322 1_556 S
O66 C51 1.259 . S
O67 Ho40 2.346 . S
O67 C51 1.268 . S
O68 Ho41 2.378 1_556 S
O68 C52 1.215 . S
O69 Ho41 2.524 1_556 S
O69 C52 1.289 . S
O70 Ho41 2.381 1_556 S
O70 C59 1.275 . S
O71 Ho40 2.305 1_554 S
O71 Ho41 2.669 . S
O71 C59 1.256 1_554 S
H72 C45 0.930 . S
H73 C46 0.931 . S
H74 C48 0.934 . S
H75 C49 0.930 . S
H76 C54 0.930 . S
H77 C55 0.931 . S
H78 C57 0.934 . S
H79 C58 0.930 . S
Ho80 C83 2.811 . S
Ho80 O100 2.322 . S
Ho80 O102 2.378 . S
Ho80 O103 2.524 . S
Ho80 O104 2.381 . S
Ho80 O105 2.669 . S
Ho80 O107 2.346 . S
Ho80 O111 2.305 . S
Ho81 C92 2.811 . S
Ho81 O101 2.346 . S
Ho81 O105 2.305 . S
Ho81 O106 2.322 . S
Ho81 O108 2.378 . S
Ho81 O109 2.524 . S
Ho81 O110 2.381 . S
Ho81 O111 2.669 . S
C82 O100 1.259 . S
C82 O101 1.268 . S
C83 Ho80 2.811 . S
C83 C84 1.488 . S
C83 O102 1.215 . S
C83 O103 1.289 . S
C84 C83 1.488 . S
C84 C85 1.348 . S
C84 C89 1.413 . S
C85 C84 1.348 . S
C85 C86 1.442 . S
C85 H112 0.930 . S
C86 C85 1.442 . S
C86 C87 1.381 . S
C86 H113 0.931 . S
C87 C86 1.381 . S
C87 C88 1.321 . S
C88 C87 1.321 . S
C88 C89 1.403 . S
C88 H114 0.934 . S
C89 C84 1.413 . S
C89 C88 1.403 . S
C89 H115 0.930 . S
C90 O104 1.275 . S
C90 O105 1.256 . S
C91 O106 1.259 . S
C91 O107 1.268 . S
C92 Ho81 2.811 . S
C92 C93 1.488 . S
C92 O108 1.215 . S
C92 O109 1.289 . S
C93 C92 1.488 . S
C93 C94 1.348 . S
C93 C98 1.413 . S
C94 C93 1.348 . S
C94 C95 1.442 . S
C94 H116 0.930 . S
C95 C94 1.442 . S
C95 C96 1.381 . S
C95 H117 0.931 . S
C96 C95 1.381 . S
C96 C97 1.321 . S
C97 C96 1.321 . S
C97 C98 1.403 . S
C97 H118 0.934 . S
C98 C93 1.413 . S
C98 C97 1.403 . S
C98 H119 0.930 . S
C99 O110 1.275 . S
C99 O111 1.256 . S
O100 Ho80 2.322 . S
O100 C82 1.259 . S
O101 Ho81 2.346 . S
O101 C82 1.268 . S
O102 Ho80 2.378 . S
O102 C83 1.215 . S
O103 Ho80 2.524 . S
O103 C83 1.289 . S
O104 Ho80 2.381 . S
O104 C90 1.275 . S
O105 Ho80 2.669 . S
O105 Ho81 2.305 . S
O105 C90 1.256 . S
O106 Ho81 2.322 . S
O106 C91 1.259 . S
O107 Ho80 2.346 . S
O107 C91 1.268 . S
O108 Ho81 2.378 . S
O108 C92 1.215 . S
O109 Ho81 2.524 . S
O109 C92 1.289 . S
O110 Ho81 2.381 . S
O110 C99 1.275 . S
O111 Ho80 2.305 . S
O111 Ho81 2.669 . S
O111 C99 1.256 . S
H112 C85 0.930 . S
H113 C86 0.931 . S
H114 C88 0.934 . S
H115 C89 0.930 . S
H116 C94 0.930 . S
H117 C95 0.931 . S
H118 C97 0.934 . S
H119 C98 0.930 . S
Ho120 C123 2.811 . S
Ho120 O140 2.322 . S
Ho120 O142 2.378 . S
Ho120 O143 2.524 . S
Ho120 O144 2.381 . S
Ho120 O145 2.669 . S
Ho120 O147 2.346 . S
Ho120 O151 2.305 . S
Ho121 C132 2.811 . S
Ho121 O141 2.346 . S
Ho121 O145 2.305 . S
Ho121 O146 2.322 . S
Ho121 O148 2.378 . S
Ho121 O149 2.524 . S
Ho121 O150 2.381 . S
Ho121 O151 2.669 . S
C122 O140 1.259 . S
C122 O141 1.268 . S
C123 Ho120 2.811 . S
C123 C124 1.488 . S
C123 O142 1.215 . S
C123 O143 1.289 . S
C124 C123 1.488 . S
C124 C125 1.348 . S
C124 C129 1.413 . S
C125 C124 1.348 . S
C125 C126 1.442 . S
C125 H152 0.930 . S
C126 C125 1.442 . S
C126 C127 1.381 . S
C126 H153 0.931 . S
C127 C126 1.381 . S
C127 C128 1.321 . S
C128 C127 1.321 . S
C128 C129 1.403 . S
C128 H154 0.934 . S
C129 C124 1.413 . S
C129 C128 1.403 . S
C129 H155 0.930 . S
C130 O144 1.275 . S
C130 O145 1.256 . S
C131 O146 1.259 . S
C131 O147 1.268 . S
C132 Ho121 2.811 . S
C132 C133 1.488 . S
C132 O148 1.215 . S
C132 O149 1.289 . S
C133 C132 1.488 . S
C133 C134 1.348 . S
C133 C138 1.413 . S
C134 C133 1.348 . S
C134 C135 1.442 . S
C134 H156 0.930 . S
C135 C134 1.442 . S
C135 C136 1.381 . S
C135 H157 0.931 . S
C136 C135 1.381 . S
C136 C137 1.321 . S
C137 C136 1.321 . S
C137 C138 1.403 . S
C137 H158 0.934 . S
C138 C133 1.413 . S
C138 C137 1.403 . S
C138 H159 0.930 . S
C139 O150 1.275 . S
C139 O151 1.256 . S
O140 Ho120 2.322 . S
O140 C122 1.259 . S
O141 Ho121 2.346 . S
O141 C122 1.268 . S
O142 Ho120 2.378 . S
O142 C123 1.215 . S
O143 Ho120 2.524 . S
O143 C123 1.289 . S
O144 Ho120 2.381 . S
O144 C130 1.275 . S
O145 Ho120 2.669 . S
O145 Ho121 2.305 . S
O145 C130 1.256 . S
O146 Ho121 2.322 . S
O146 C131 1.259 . S
O147 Ho120 2.346 . S
O147 C131 1.268 . S
O148 Ho121 2.378 . S
O148 C132 1.215 . S
O149 Ho121 2.524 . S
O149 C132 1.289 . S
O150 Ho121 2.381 . S
O150 C139 1.275 . S
O151 Ho120 2.305 . S
O151 Ho121 2.669 . S
O151 C139 1.256 . S
H152 C125 0.930 . S
H153 C126 0.931 . S
H154 C128 0.934 . S
H155 C129 0.930 . S
H156 C134 0.930 . S
H157 C135 0.931 . S
H158 C137 0.934 . S
H159 C138 0.930 . S
H160 C172 0.930 . S
H161 C174 0.930 . S
H162 C175 0.930 . S
H163 C179 0.959 . S
H164 C179 0.959 . S
H165 C179 0.961 . S
H166 C180 0.960 . S
H167 C180 0.961 . S
H168 C180 0.959 1_556 S
H169 C183 0.929 . S
H170 C184 0.931 . S
H171 C186 0.930 . S
C172 H160 0.930 . S
C172 C173 1.399 1_554 S
C172 C177 1.399 . S
C173 C172 1.399 1_556 S
C173 C174 1.376 . S
C174 H161 0.930 . S
C174 C173 1.376 . S
C174 C175 1.388 . S
C175 H162 0.930 . S
C175 C174 1.388 . S
C175 C176 1.390 . S
C176 C175 1.390 . S
C176 C177 1.394 1_556 S
C176 C182 1.465 . S
C177 C172 1.399 . S
C177 C176 1.394 1_554 S
C177 C178 1.516 . S
C178 C177 1.516 . S
C178 C179 1.502 . S
C178 C180 1.561 . S
C178 C181 1.526 . S
C179 H163 0.959 . S
C179 H164 0.959 . S
C179 H165 0.961 . S
C179 C178 1.502 . S
C180 H166 0.960 . S
C180 H167 0.961 . S
C180 H168 0.959 1_554 S
C180 C178 1.561 . S
C181 C178 1.526 . S
C181 C182 1.396 1_554 S
C181 C186 1.390 . S
C182 C176 1.465 . S
C182 C181 1.396 1_556 S
C182 C183 1.399 . S
C183 H169 0.929 . S
C183 C182 1.399 . S
C183 C184 1.385 . S
C184 H170 0.931 . S
C184 C183 1.385 . S
C184 C185 1.389 1_556 S
C185 C184 1.389 1_554 S
C185 C186 1.387 . S
C186 H171 0.930 . S
C186 C181 1.390 . S
C186 C185 1.387 . S
H187 C199 0.930 . S
H188 C201 0.930 . S
H189 C202 0.930 . S
H190 C206 0.959 . S
H191 C206 0.959 . S
H192 C206 0.961 . S
H193 C207 0.960 . S
H194 C207 0.961 . S
H195 C207 0.959 . S
H196 C210 0.929 . S
H197 C211 0.931 . S
H198 C213 0.930 . S
C199 H187 0.930 . S
C199 C200 1.399 . S
C199 C204 1.399 . S
C200 C199 1.399 . S
C200 C201 1.376 . S
C201 H188 0.930 . S
C201 C200 1.376 . S
C201 C202 1.388 . S
C202 H189 0.930 . S
C202 C201 1.388 . S
C202 C203 1.390 . S
C203 C202 1.390 . S
C203 C204 1.394 . S
C203 C209 1.465 . S
C204 C199 1.399 . S
C204 C203 1.394 . S
C204 C205 1.516 . S
C205 C204 1.516 . S
C205 C206 1.502 . S
C205 C207 1.561 . S
C205 C208 1.526 . S
C206 H190 0.959 . S
C206 H191 0.959 . S
C206 H192 0.961 . S
C206 C205 1.502 . S
C207 H193 0.960 . S
C207 H194 0.961 . S
C207 H195 0.959 . S
C207 C205 1.561 . S
C208 C205 1.526 . S
C208 C209 1.396 . S
C208 C213 1.390 . S
C209 C203 1.465 . S
C209 C208 1.396 . S
C209 C210 1.399 . S
C210 H196 0.929 . S
C210 C209 1.399 . S
C210 C211 1.385 . S
C211 H197 0.931 . S
C211 C210 1.385 . S
C211 C212 1.389 . S
C212 C211 1.389 . S
C212 C213 1.387 . S
C213 H198 0.930 . S
C213 C208 1.390 . S
C213 C212 1.387 . S
H214 C226 0.930 . S
H215 C228 0.930 . S
H216 C229 0.930 . S
H217 C233 0.959 . S
H218 C233 0.959 1_565 S
H219 C233 0.961 . S
H220 C234 0.960 1_455 S
H221 C234 0.961 . S
H222 C234 0.959 1_455 S
H223 C237 0.929 . S
H224 C238 0.931 . S
H225 C240 0.930 . S
C226 H214 0.930 . S
C226 C227 1.404 . S
C226 C231 1.399 . S
C227 C226 1.404 . S
C227 C228 1.364 1_556 S
C228 H215 0.930 . S
C228 C227 1.364 1_554 S
C228 C229 1.388 . S
C229 H216 0.930 . S
C229 C228 1.388 . S
C229 C230 1.390 . S
C230 C229 1.390 . S
C230 C231 1.394 1_554 S
C230 C236 1.465 1_545 S
C231 C226 1.399 . S
C231 C230 1.394 1_556 S
C231 C232 1.516 1_445 S
C232 C231 1.516 1_665 S
C232 C233 1.502 1_565 S
C232 C234 1.561 . S
C232 C235 1.526 . S
C233 H217 0.959 . S
C233 H218 0.959 1_545 S
C233 H219 0.961 . S
C233 C232 1.502 1_545 S
C234 H220 0.960 1_655 S
C234 H221 0.961 . S
C234 H222 0.959 1_655 S
C234 C232 1.561 . S
C235 C232 1.526 . S
C235 C236 1.396 1_656 S
C235 C240 1.390 . S
C236 C230 1.465 1_565 S
C236 C235 1.396 1_454 S
C236 C237 1.399 . S
C237 H223 0.929 . S
C237 C236 1.399 . S
C237 C238 1.385 1_455 S
C238 H224 0.931 . S
C238 C237 1.385 1_655 S
C238 C239 1.389 . S
C239 C238 1.389 . S
C239 C240 1.387 1_554 S
C240 H225 0.930 . S
C240 C235 1.390 . S
C240 C239 1.387 1_556 S
H241 C253 0.930 . S
H242 C255 0.930 . S
H243 C256 0.930 1_455 S
H244 C260 0.959 1_565 S
H245 C260 0.959 . S
H246 C260 0.961 . S
H247 C261 0.960 . S
H248 C261 0.961 . S
H249 C261 0.959 . S
H250 C264 0.929 . S
H251 C265 0.931 . S
H252 C267 0.930 . S
C253 H241 0.930 . S
C253 C254 1.399 . S
C253 C258 1.399 . S
C254 C253 1.399 . S
C254 C255 1.376 . S
C255 H242 0.930 . S
C255 C254 1.376 . S
C255 C256 1.388 . S
C256 H243 0.930 1_655 S
C256 C255 1.388 . S
C256 C257 1.390 . S
C257 C256 1.390 . S
C257 C258 1.394 . S
C257 C263 1.465 1_645 S
C258 C253 1.399 . S
C258 C257 1.394 . S
C258 C259 1.516 . S
C259 C258 1.516 . S
C259 C260 1.502 . S
C259 C261 1.561 1_655 S
C259 C262 1.526 1_645 S
C260 H244 0.959 1_545 S
C260 H245 0.959 . S
C260 H246 0.961 . S
C260 C259 1.502 . S
C261 H247 0.960 . S
C261 H248 0.961 . S
C261 H249 0.959 . S
C261 C259 1.561 1_455 S
C262 C259 1.526 1_465 S
C262 C263 1.396 . S
C262 C267 1.390 . S
C263 C257 1.465 1_465 S
C263 C262 1.396 . S
C263 C264 1.399 . S
C264 H250 0.929 . S
C264 C263 1.399 . S
C264 C265 1.385 . S
C265 H251 0.931 . S
C265 C264 1.385 . S
C265 C266 1.389 . S
C266 C265 1.389 . S
C266 C267 1.387 . S
C267 H252 0.930 . S
C267 C262 1.390 . S
C267 C266 1.387 . S
H268 C280 0.930 . S
H269 C282 0.930 . S
H270 C283 0.930 . S
H271 C287 0.959 . S
H272 C287 0.959 . S
H273 C287 0.961 . S
H274 C288 0.960 . S
H275 C288 0.961 . S
H276 C288 0.959 . S
H277 C291 0.929 . S
H278 C292 0.931 . S
H279 C294 0.930 . S
C280 H268 0.930 . S
C280 C281 1.399 . S
C280 C285 1.399 . S
C281 C280 1.399 . S
C281 C282 1.376 . S
C282 H269 0.930 . S
C282 C281 1.376 . S
C282 C283 1.388 . S
C283 H270 0.930 . S
C283 C282 1.388 . S
C283 C284 1.390 . S
C284 C283 1.390 . S
C284 C285 1.394 . S
C284 C290 1.465 . S
C285 C280 1.399 . S
C285 C284 1.394 . S
C285 C286 1.516 . S
C286 C285 1.516 . S
C286 C287 1.502 . S
C286 C288 1.561 . S
C286 C289 1.526 . S
C287 H271 0.959 . S
C287 H272 0.959 . S
C287 H273 0.961 . S
C287 C286 1.502 . S
C288 H274 0.960 . S
C288 H275 0.961 . S
C288 H276 0.959 . S
C288 C286 1.561 . S
C289 C286 1.526 . S
C289 C290 1.396 . S
C289 C294 1.390 . S
C290 C284 1.465 . S
C290 C289 1.396 . S
C290 C291 1.399 . S
C291 H277 0.929 . S
C291 C290 1.399 . S
C291 C292 1.385 . S
C292 H278 0.931 . S
C292 C291 1.385 . S
C292 C293 1.389 . S
C293 C292 1.389 . S
C293 C294 1.387 . S
C294 H279 0.930 . S
C294 C289 1.390 . S
C294 C293 1.387 . S
H295 C307 0.930 . S
H296 C309 0.930 . S
H297 C310 0.930 . S
H298 C314 0.959 . S
H299 C314 0.959 . S
H300 C314 0.961 . S
H301 C315 0.960 . S
H302 C315 0.961 . S
H303 C315 0.959 . S
H304 C318 0.929 . S
H305 C319 0.931 . S
H306 C321 0.930 . S
C307 H295 0.930 . S
C307 C308 1.399 . S
C307 C312 1.399 . S
C308 C307 1.399 . S
C308 C309 1.376 . S
C309 H296 0.930 . S
C309 C308 1.376 . S
C309 C310 1.388 . S
C310 H297 0.930 . S
C310 C309 1.388 . S
C310 C311 1.390 . S
C311 C310 1.390 . S
C311 C312 1.394 . S
C311 C317 1.465 . S
C312 C307 1.399 . S
C312 C311 1.394 . S
C312 C313 1.516 . S
C313 C312 1.516 . S
C313 C314 1.502 . S
C313 C315 1.561 . S
C313 C316 1.526 . S
C314 H298 0.959 . S
C314 H299 0.959 . S
C314 H300 0.961 . S
C314 C313 1.502 . S
C315 H301 0.960 . S
C315 H302 0.961 . S
C315 H303 0.959 . S
C315 C313 1.561 . S
C316 C313 1.526 . S
C316 C317 1.396 . S
C316 C321 1.390 . S
C317 C311 1.465 . S
C317 C316 1.396 . S
C317 C318 1.399 . S
C318 H304 0.929 . S
C318 C317 1.399 . S
C318 C319 1.385 . S
C319 H305 0.931 . S
C319 C318 1.385 . S
C319 C320 1.389 . S
C320 C319 1.389 . S
C320 C321 1.387 . S
C321 H306 0.930 . S
C321 C316 1.390 . S
C321 C320 1.387 . S
H322 C334 0.930 . S
H323 C336 0.930 . S
H324 C337 0.930 . S
H325 C341 0.959 . S
H326 C341 0.959 . S
H327 C341 0.961 . S
H328 C342 0.960 . S
H329 C342 0.961 . S
H330 C342 0.959 . S
H331 C345 0.929 . S
H332 C346 0.931 . S
H333 C348 0.930 . S
C334 H322 0.930 . S
C334 C335 1.399 . S
C334 C339 1.399 . S
C335 C334 1.399 . S
C335 C336 1.376 . S
C336 H323 0.930 . S
C336 C335 1.376 . S
C336 C337 1.388 . S
C337 H324 0.930 . S
C337 C336 1.388 . S
C337 C338 1.390 . S
C338 C337 1.390 . S
C338 C339 1.394 . S
C338 C344 1.465 . S
C339 C334 1.399 . S
C339 C338 1.394 . S
C339 C340 1.516 . S
C340 C339 1.516 . S
C340 C341 1.502 . S
C340 C342 1.561 . S
C340 C343 1.526 . S
C341 H325 0.959 . S
C341 H326 0.959 . S
C341 H327 0.961 . S
C341 C340 1.502 . S
C342 H328 0.960 . S
C342 H329 0.961 . S
C342 H330 0.959 . S
C342 C340 1.561 . S
C343 C340 1.526 . S
C343 C344 1.396 . S
C343 C348 1.390 . S
C344 C338 1.465 . S
C344 C343 1.396 . S
C344 C345 1.399 . S
C345 H331 0.929 . S
C345 C344 1.399 . S
C345 C346 1.385 . S
C346 H332 0.931 . S
C346 C345 1.385 . S
C346 C347 1.389 . S
C347 C346 1.389 . S
C347 C348 1.387 . S
C348 H333 0.930 . S
C348 C343 1.390 . S
C348 C347 1.387 . S
H349 C361 0.930 . S
H350 C363 0.930 . S
H351 C364 0.930 . S
H352 C368 0.959 . S
H353 C368 0.959 . S
H354 C368 0.961 . S
H355 C369 0.960 . S
H356 C369 0.961 . S
H357 C369 0.959 . S
H358 C372 0.929 . S
H359 C373 0.931 . S
H360 C375 0.930 . S
C361 H349 0.930 . S
C361 C362 1.399 . S
C361 C366 1.399 . S
C362 C361 1.399 . S
C362 C363 1.376 . S
C363 H350 0.930 . S
C363 C362 1.376 . S
C363 C364 1.388 . S
C364 H351 0.930 . S
C364 C363 1.388 . S
C364 C365 1.390 . S
C365 C364 1.390 . S
C365 C366 1.394 . S
C365 C371 1.465 . S
C366 C361 1.399 . S
C366 C365 1.394 . S
C366 C367 1.516 . S
C367 C366 1.516 . S
C367 C368 1.502 . S
C367 C369 1.561 . S
C367 C370 1.526 . S
C368 H352 0.959 . S
C368 H353 0.959 . S
C368 H354 0.961 . S
C368 C367 1.502 . S
C369 H355 0.960 . S
C369 H356 0.961 . S
C369 H357 0.959 . S
C369 C367 1.561 . S
C370 C367 1.526 . S
C370 C371 1.396 . S
C370 C375 1.390 . S
C371 C365 1.465 . S
C371 C370 1.396 . S
C371 C372 1.399 . S
C372 H358 0.929 . S
C372 C371 1.399 . S
C372 C373 1.385 . S
C373 H359 0.931 . S
C373 C372 1.385 . S
C373 C374 1.389 . S
C374 C373 1.389 . S
C374 C375 1.387 . S
C375 H360 0.930 . S
C375 C370 1.390 . S
C375 C374 1.387 . S
H376 C388 0.930 . S
H377 C390 0.930 . S
H378 C391 0.930 . S
H379 C395 0.959 . S
H380 C395 0.959 . S
H381 C395 0.961 . S
H382 C396 0.960 . S
H383 C396 0.961 . S
H384 C396 0.959 . S
H385 C399 0.929 . S
H386 C400 0.931 . S
H387 C402 0.930 . S
C388 H376 0.930 . S
C388 C389 1.399 . S
C388 C393 1.399 . S
C389 C388 1.399 . S
C389 C390 1.376 . S
C390 H377 0.930 . S
C390 C389 1.376 . S
C390 C391 1.388 1_655 S
C391 H378 0.930 . S
C391 C390 1.388 1_455 S
C391 C392 1.390 . S
C392 C391 1.390 . S
C392 C393 1.394 1_455 S
C392 C398 1.465 . S
C393 C388 1.399 . S
C393 C392 1.394 1_655 S
C393 C394 1.516 . S
C394 C393 1.516 . S
C394 C395 1.502 . S
C394 C396 1.561 1_655 S
C394 C397 1.526 1_655 S
C395 H379 0.959 . S
C395 H380 0.959 . S
C395 H381 0.961 . S
C395 C394 1.502 . S
C396 H382 0.960 . S
C396 H383 0.961 . S
C396 H384 0.959 . S
C396 C394 1.561 1_455 S
C397 C394 1.526 1_455 S
C397 C398 1.396 . S
C397 C402 1.390 . S
C398 C392 1.465 . S
C398 C397 1.396 . S
C398 C399 1.399 . S
C399 H385 0.929 . S
C399 C398 1.399 . S
C399 C400 1.385 . S
C400 H386 0.931 . S
C400 C399 1.385 . S
C400 C401 1.389 . S
C401 C400 1.389 . S
C401 C402 1.387 . S
C402 H387 0.930 . S
C402 C397 1.390 . S
C402 C401 1.387 . S
H403 C415 0.930 . S
H404 C417 0.930 . S
H405 C418 0.930 . S
H406 C422 0.959 . S
H407 C422 0.959 . S
H408 C422 0.961 . S
H409 C423 0.960 . S
H410 C423 0.960 1_455 S
H411 C423 0.959 . S
H412 C426 0.929 . S
H413 C427 0.931 . S
H414 C429 0.930 . S
C415 H403 0.930 . S
C415 C416 1.399 1_455 S
C415 C420 1.399 . S
C416 C415 1.399 1_655 S
C416 C417 1.376 . S
C417 H404 0.930 . S
C417 C416 1.376 . S
C417 C418 1.388 . S
C418 H405 0.930 . S
C418 C417 1.388 . S
C418 C419 1.390 . S
C419 C418 1.390 . S
C419 C420 1.394 1_655 S
C419 C425 1.465 . S
C420 C415 1.399 . S
C420 C419 1.394 1_455 S
C420 C421 1.516 . S
C421 C420 1.516 . S
C421 C422 1.502 . S
C421 C423 1.561 1_455 S
C421 C424 1.526 . S
C422 H406 0.959 . S
C422 H407 0.959 . S
C422 H408 0.961 . S
C422 C421 1.502 . S
C423 H409 0.960 . S
C423 H410 0.960 1_655 S
C423 H411 0.959 . S
C423 C421 1.561 1_655 S
C424 C421 1.526 . S
C424 C425 1.396 1_455 S
C424 C429 1.390 . S
C425 C419 1.465 . S
C425 C424 1.396 1_655 S
C425 C426 1.399 . S
C426 H412 0.929 . S
C426 C425 1.399 . S
C426 C427 1.385 . S
C427 H413 0.931 . S
C427 C426 1.385 . S
C427 C428 1.389 1_655 S
C428 C427 1.389 1_455 S
C428 C429 1.387 . S
C429 H414 0.930 . S
C429 C424 1.390 . S
C429 C428 1.387 . S
H430 C442 0.930 . S
H431 C444 0.930 . S
H432 C445 0.930 . S
H433 C449 0.959 . S
H434 C449 0.959 . S
H435 C449 0.961 . S
H436 C450 0.960 . S
H437 C450 0.961 . S
H438 C450 0.959 . S
H439 C453 0.929 . S
H440 C454 0.931 . S
H441 C456 0.930 . S
C442 H430 0.930 . S
C442 C443 1.399 . S
C442 C447 1.399 . S
C443 C442 1.399 . S
C443 C444 1.376 . S
C444 H431 0.930 . S
C444 C443 1.376 . S
C444 C445 1.388 . S
C445 H432 0.930 . S
C445 C444 1.388 . S
C445 C446 1.390 . S
C446 C445 1.390 . S
C446 C447 1.394 . S
C446 C452 1.465 1_655 S
C447 C442 1.399 . S
C447 C446 1.394 . S
C447 C448 1.516 1_655 S
C448 C447 1.516 1_455 S
C448 C449 1.502 1_455 S
C448 C450 1.561 . S
C448 C451 1.526 . S
C449 H433 0.959 . S
C449 H434 0.959 . S
C449 H435 0.961 . S
C449 C448 1.502 1_655 S
C450 H436 0.960 . S
C450 H437 0.961 . S
C450 H438 0.959 . S
C450 C448 1.561 . S
C451 C448 1.526 . S
C451 C452 1.396 . S
C451 C456 1.390 . S
C452 C446 1.465 1_455 S
C452 C451 1.396 . S
C452 C453 1.399 . S
C453 H439 0.929 . S
C453 C452 1.399 . S
C453 C454 1.385 . S
C454 H440 0.931 . S
C454 C453 1.385 . S
C454 C455 1.389 . S
C455 C454 1.389 . S
C455 C456 1.387 . S
C456 H441 0.930 . S
C456 C451 1.390 . S
C456 C455 1.387 . S
H457 C469 0.930 . S
H458 C471 0.930 . S
H459 C472 0.930 . S
H460 C476 0.959 . S
H461 C476 0.959 . S
H462 C476 0.961 . S
H463 C477 0.960 . S
H464 C477 0.961 . S
H465 C477 0.959 . S
H466 C480 0.929 . S
H467 C481 0.931 . S
H468 C483 0.930 . S
C469 H457 0.930 . S
C469 C470 1.399 1_655 S
C469 C474 1.399 . S
C470 C469 1.399 1_455 S
C470 C471 1.376 . S
C471 H458 0.930 . S
C471 C470 1.376 . S
C471 C472 1.388 . S
C472 H459 0.930 . S
C472 C471 1.388 . S
C472 C473 1.390 . S
C473 C472 1.390 . S
C473 C474 1.394 1_455 S
C473 C479 1.465 . S
C474 C469 1.399 . S
C474 C473 1.394 1_655 S
C474 C475 1.516 . S
C475 C474 1.516 . S
C475 C476 1.502 . S
C475 C477 1.561 1_655 S
C475 C478 1.526 . S
C476 H460 0.959 . S
C476 H461 0.959 . S
C476 H462 0.961 . S
C476 C475 1.502 . S
C477 H463 0.960 . S
C477 H464 0.961 . S
C477 H465 0.959 . S
C477 C475 1.561 1_455 S
C478 C475 1.526 . S
C478 C479 1.396 1_655 S
C478 C483 1.390 . S
C479 C473 1.465 . S
C479 C478 1.396 1_455 S
C479 C480 1.399 . S
C480 H466 0.929 . S
C480 C479 1.399 . S
C480 C481 1.385 . S
C481 H467 0.931 . S
C481 C480 1.385 . S
C481 C482 1.389 1_455 S
C482 C481 1.389 1_655 S
C482 C483 1.387 . S
C483 H468 0.930 . S
C483 C478 1.390 . S
C483 C482 1.387 . S
C173 C59 1.576 . S
C185 C10 1.577 . S
C200 C99 1.580 . S
C212 C130 1.572 . S
C227 C19 1.571 . S
C239 C50 1.581 . S
C254 C139 1.581 . S
C266 C90 1.571 . S
C281 C122 1.694 . S
C293 C2 1.694 . S
C308 C47 1.008 . S
C320 C87 1.039 . S
C335 C51 1.694 . S
C347 C91 1.698 . S
C362 C136 1.044 . S
C374 C16 1.022 . S
C389 C42 1.673 . S
C401 C82 1.665 . S
C416 C127 1.007 . S
C428 C7 1.039 . S
C443 C131 1.697 . S
C455 C11 1.700 . S
C470 C96 0.981 . S
C482 C56 1.009 . S
