# Generated by pormake.
# Topology sxb, (6)-cn, num edge types: 1
# Building blocks:
#     Node 0, Type 0, BuildingBlock: BETFEN_clean_sbu_0, # of connection points: 6
#     Node 1, Type 0, BuildingBlock: BETFEN_clean_sbu_0, # of connection points: 6
#     Node 2, Type 0, BuildingBlock: BETFEN_clean_sbu_0, # of connection points: 6
#     Node 3, Type 0, BuildingBlock: BETFEN_clean_sbu_0, # of connection points: 6
#     Edge 4, Type (0, 0), BuildingBlock: XUDNAN_clean_linker_2, # of connection points: 2
#     Edge 5, Type (0, 0), BuildingBlock: XUDNAN_clean_linker_2, # of connection points: 2
#     Edge 6, Type (0, 0), BuildingBlock: XUDNAN_clean_linker_2, # of connection points: 2
#     Edge 7, Type (0, 0), BuildingBlock: XUDNAN_clean_linker_2, # of connection points: 2
#     Edge 8, Type (0, 0), BuildingBlock: XUDNAN_clean_linker_2, # of connection points: 2
#     Edge 9, Type (0, 0), BuildingBlock: XUDNAN_clean_linker_2, # of connection points: 2
#     Edge 10, Type (0, 0), BuildingBlock: XUDNAN_clean_linker_2, # of connection points: 2
#     Edge 11, Type (0, 0), BuildingBlock: XUDNAN_clean_linker_2, # of connection points: 2
#     Edge 12, Type (0, 0), BuildingBlock: XUDNAN_clean_linker_2, # of connection points: 2
#     Edge 13, Type (0, 0), BuildingBlock: XUDNAN_clean_linker_2, # of connection points: 2
#     Edge 14, Type (0, 0), BuildingBlock: XUDNAN_clean_linker_2, # of connection points: 2
#     Edge 15, Type (0, 0), BuildingBlock: XUDNAN_clean_linker_2, # of connection points: 2
# Relax obj value: 0.423
# Max RMSD: 0.125
# Mean RMSD: 0.082
data_MOF--net-sxb--node1-BETFEN_clean_sbu_0--edge1-XUDNAN_clean_linker_2
_symmetry_space_group_name_H-M    P1
_symmetry_Int_Tables_number       1
_symmetry_cell_setting            triclinic
loop_
_symmetry_equiv_pos_as_xyz
'x, y, z'
_cell_length_a     16.573515
_cell_length_b     35.543042
_cell_length_c     30.356294
_cell_angle_alpha  93.040145
_cell_angle_beta   92.738359
_cell_angle_gamma 64.622704
loop_
_atom_site_label
_atom_site_type_symbol
_atom_site_fract_x
_atom_site_fract_y
_atom_site_fract_z
_atom_type_partial_charge
Pr0 Pr 1.01523 0.08474 0.01418 0.0
Pr1 Pr 0.17492 1.07505 0.01225 0.0
C2 C 0.86176 1.07719 0.00364 0.0
C3 C 0.82889 1.06914 0.95978 0.0
C4 C 0.83735 0.08958 0.92304 0.0
C5 C 0.82908 1.07521 0.88018 0.0
C6 C 0.80895 1.04079 0.87283 0.0
C7 C 0.79588 1.02172 0.90986 0.0
C8 C 0.80704 1.03537 0.95279 0.0
C9 C 1.05519 0.09257 0.92646 0.0
C10 C 1.01694 0.17403 0.0264 0.0
C11 C 0.3235 1.07702 0.98395 0.0
C12 C 0.36511 1.06115 0.9411 0.0
C13 C 0.36674 1.02405 0.92148 0.0
C14 C 0.39661 1.01162 0.87853 0.0
C15 C 0.42327 1.03657 0.85406 0.0
C16 C 0.42075 1.07385 0.8738 0.0
C17 C 0.39197 0.08597 0.91686 0.0
C18 C 0.14153 1.07142 0.1023 0.0
C19 C 0.16915 0.98675 0.01598 0.0
O20 O 0.86351 0.11338 0.01034 0.0
O21 O 0.93523 1.04675 0.01733 0.0
O22 O 0.10173 1.06244 0.95046 0.0
O23 O 0.99531 0.12127 0.94977 0.0
O24 O 0.09742 0.14985 0.01154 0.0
O25 O 0.96778 0.15545 0.03781 0.0
O26 O 0.24555 0.10878 0.98144 0.0
O27 O 0.32586 1.04938 0.01129 0.0
O28 O 1.08698 0.09751 0.07612 0.0
O29 O 0.21513 1.0481 0.08284 0.0
O30 O 1.09315 1.013 0.03355 0.0
O31 O 0.21415 1.00345 -0.0035 0.0
H32 H 0.8533 0.11601 0.92726 0.0
H33 H 0.83935 0.09095 0.85292 0.0
H34 H 0.77639 0.99629 0.906 0.0
H35 H 0.80107 1.0188 0.98049 0.0
H36 H 0.34401 1.00485 0.93911 0.0
H37 H 0.39874 0.98259 0.8644 0.0
H38 H 0.44347 0.0932 0.8564 0.0
H39 H 0.38962 0.11504 0.93106 0.0
Pr40 Pr 0.14057 1.032 0.51023 0.0
Pr41 Pr 1.0658 0.11643 0.51832 0.0
C42 C 0.23497 0.94989 0.52251 0.0
C43 C 0.21614 0.91825 0.54298 0.0
C44 C 0.25061 0.87759 0.5247 0.0
C45 C 0.2187 0.84955 0.53787 0.0
C46 C 0.15207 0.86193 0.56952 0.0
C47 C 0.12302 0.90161 0.59029 0.0
C48 C 0.15443 0.92972 0.57689 0.0
C49 C 0.10682 1.06536 0.42573 0.0
C50 C 0.91742 1.07266 0.51098 0.0
C51 C 0.97093 0.19978 0.51436 0.0
C52 C 0.98853 0.23688 0.5118 0.0
C53 C 0.98069 0.26236 0.54979 0.0
C54 C 1.00947 0.2939 0.55005 0.0
C55 C 1.0456 0.30093 0.51207 0.0
C56 C 1.04623 0.27772 0.47297 0.0
C57 C 1.01829 0.24584 0.47285 0.0
C58 C 0.10611 0.08143 0.6023 0.0
C59 C 0.28699 0.07856 0.51389 0.0
O60 O 0.24131 0.9787 0.54913 0.0
O61 O 0.18845 0.96474 0.4864 0.0
O62 O 0.14191 1.07733 0.45813 0.0
O63 O 1.08513 1.03622 0.43686 0.0
O64 O 0.93155 0.10601 0.50448 0.0
O65 O 0.98976 1.03754 0.51851 0.0
O66 O 0.98712 0.1745 0.47966 0.0
O67 O 0.9959 0.18013 0.55121 0.0
O68 O 1.06604 1.07113 0.57074 0.0
O69 O 0.13167 0.10871 0.58932 0.0
O70 O 0.27869 1.04303 0.51727 0.0
O71 O 0.21172 0.11302 0.51055 0.0
H72 H 0.29812 0.86835 0.49843 0.0
H73 H 0.24207 0.81904 0.52148 0.0
H74 H 1.07082 0.91208 0.6143 0.0
H75 H 0.12645 0.96116 0.59113 0.0
H76 H 0.95647 0.25655 0.58006 0.0
H77 H 1.0085 0.31092 0.58083 0.0
H78 H 1.0718 0.28306 0.4429 0.0
H79 H 1.0234 0.22728 0.44276 0.0
Pr80 Pr 0.52373 0.57405 0.01039 0.0
Pr81 Pr 0.67121 0.58722 0.02187 0.0
C82 C 0.38636 0.55466 -0.00961 0.0
C83 C 0.33487 0.56431 0.94827 0.0
C84 C 0.30506 0.53635 0.92743 0.0
C85 C 0.2663 0.54368 0.88482 0.0
C86 C 0.26014 0.57826 0.86133 0.0
C87 C 0.29414 0.60497 0.88221 0.0
C88 C 0.32729 0.59903 0.92551 0.0
C89 C 0.58103 0.58706 0.92853 0.0
C90 C 0.47666 0.67232 0.01977 0.0
C91 C 0.7919 0.61592 0.00561 0.0
C92 C 0.793 0.63516 0.96412 0.0
C93 C 0.86658 0.64187 0.95319 0.0
C94 C 0.87244 0.6533 0.91049 0.0
C95 C 0.80546 0.65746 0.87807 0.0
C96 C 0.72987 0.65272 0.88979 0.0
C97 C 0.72327 0.64223 0.93269 0.0
C98 C 0.62488 0.57477 0.10602 0.0
C99 C 0.71156 0.48859 0.02403 0.0
O100 O 0.37824 0.58656 0.01628 0.0
O101 O 0.46929 0.52762 0.98661 0.0
O102 O 0.63003 0.56283 0.95732 0.0
O103 O 0.50262 0.60861 0.94352 0.0
O104 O 0.56058 0.65667 0.00783 0.0
O105 O 0.44496 0.64572 0.02991 0.0
O106 O 0.72296 0.6369 0.02997 0.0
O107 O 0.80935 0.57648 0.00138 0.0
O108 O 0.56871 0.59583 0.07674 0.0
O109 O 0.70611 0.56083 0.09261 0.0
O110 O 0.62532 0.50545 0.03233 0.0
O111 O 0.74716 0.51372 0.01357 0.0
H112 H 0.31132 0.509 0.94414 0.0
H113 H 0.23927 0.52265 0.87115 0.0
H114 H 0.29396 0.63126 0.8658 0.0
H115 H 0.34765 0.62172 0.94108 0.0
H116 H 0.92124 0.63628 0.97682 0.0
H117 H 0.93259 0.65585 0.90192 0.0
H118 H 0.67824 0.65514 0.86532 0.0
H119 H 0.66575 0.63743 0.9407 0.0
Pr120 Pr 0.64552 0.53642 0.51804 0.0
Pr121 Pr 0.56017 0.62232 0.51697 0.0
C122 C 0.6931 0.4563 0.5358 0.0
C123 C 0.63882 0.43259 0.53733 0.0
C124 C 0.60475 0.42109 0.49823 0.0
C125 C 0.53828 0.40706 0.49988 0.0
C126 C 0.50469 0.40432 0.54059 0.0
C127 C 0.54307 0.41295 0.57975 0.0
C128 C 0.61008 0.42668 0.57814 0.0
C129 C 0.62057 0.56292 0.431 0.0
C130 C 0.41445 0.58042 0.51736 0.0
C131 C 0.51578 0.70266 0.5025 0.0
C132 C 0.57261 0.7252 0.50809 0.0
C133 C 0.555 0.75619 0.54167 0.0
C134 C 0.61879 0.771 0.55399 0.0
C135 C 0.70087 0.75525 0.53267 0.0
C136 C 0.71601 0.72614 0.49732 0.0
C137 C 0.65266 0.71124 0.48516 0.0
C138 C 0.58578 0.59563 0.60379 0.0
C139 C 0.79318 0.57639 0.51903 0.0
O140 O 0.67711 0.4856 0.56649 0.0
O141 O 0.70277 0.46804 0.49708 0.0
O142 O 0.56138 0.5767 0.46008 0.0
O143 O 0.69584 0.53562 0.44692 0.0
O144 O 0.41991 0.61568 0.50942 0.0
O145 O 0.49126 0.54719 0.52478 0.0
O146 O 0.53623 0.67411 0.47066 0.0
O147 O 0.49748 0.69044 0.53901 0.0
O148 O 0.64473 0.58221 0.57461 0.0
O149 O 0.51018 0.62267 0.58798 0.0
O150 O 0.78317 0.54222 0.526 0.0
O151 O 0.71843 0.61105 0.51188 0.0
H152 H 0.62572 0.42503 0.46622 0.0
H153 H 0.50965 0.40065 0.46918 0.0
H154 H 0.51929 0.41035 0.61156 0.0
H155 H 0.63588 0.43486 0.60881 0.0
H156 H 0.49387 0.76739 0.55986 0.0
H157 H 0.60475 0.79408 0.58081 0.0
H158 H 0.77876 0.71329 0.48038 0.0
H159 H 0.66883 0.68716 0.4593 0.0
H160 H 0.5135 0.73876 -0.00542 0.0
H161 H 0.3052 0.71351 0.04909 0.0
H162 H 0.20771 0.78894 0.05371 0.0
H163 H 0.47162 0.83369 0.06041 0.0
H164 H 0.49215 0.86043 0.01652 0.0
H165 H 0.54675 0.80436 0.01727 0.0
H166 H 0.48305 0.79968 0.93885 0.0
H167 H 0.4283 0.85574 0.93784 0.0
H168 H 0.36421 0.82584 0.92816 0.0
H169 H 0.13089 0.86853 0.05388 0.0
H170 H 1.08097 0.94422 0.04777 0.0
H171 H 0.3344 0.92125 -0.00845 0.0
C172 C 0.44735 0.74903 0.0075 0.0
C173 C 0.41806 0.71922 0.02156 0.0
C174 C 0.3304 0.73483 0.03803 0.0
C175 C 0.27405 0.77801 0.04084 0.0
C176 C 0.30477 0.80632 0.0269 0.0
C177 C 0.38936 0.79249 0.01033 0.0
C178 C 0.4051 0.82991 -0.0027 0.0
C179 C 0.48358 0.83223 0.02449 0.0
C180 C 0.42113 0.82765 0.94758 0.0
C181 C 0.31657 0.86679 0.00924 0.0
C182 C 0.25992 0.85225 0.0264 0.0
C183 C 0.17497 0.88001 0.04034 0.0
C184 C 0.14699 0.92334 0.03675 0.0
C185 C 0.20274 0.93967 0.0191 0.0
C186 C 0.2892 0.91042 0.0051 0.0
H187 H 0.6647 0.42197 0.03783 0.0
H188 H 0.8921 0.44744 0.01334 0.0
H189 H 0.99028 0.37235 0.01311 0.0
H190 H 0.78525 0.33411 0.11033 0.0
H191 H 0.72695 0.30396 0.08918 0.0
H192 H 0.67264 0.36005 0.08834 0.0
H193 H 0.64268 0.35591 0.0043 0.0
H194 H 0.69688 0.29982 0.00489 0.0
H195 H 0.73478 0.32712 0.96864 0.0
H196 H 1.06654 0.29372 0.01367 0.0
H197 H 0.11469 0.218 0.01524 0.0
H198 H 0.8428 0.23866 0.03993 0.0
C199 C 0.73524 0.41182 0.03269 0.0
C200 C 0.76961 0.44171 0.0257 0.0
C201 C 0.86276 0.42617 0.01884 0.0
C202 C 0.9197 0.38315 0.01864 0.0
C203 C 0.88404 0.35478 0.02536 0.0
C204 C 0.79394 0.36834 0.03234 0.0
C205 C 0.7738 0.33056 0.03819 0.0
C206 C 0.73748 0.33228 0.08425 0.0
C207 C 0.70811 0.32822 0.00184 0.0
C208 C 0.8663 0.29389 0.03326 0.0
C209 C 0.92857 0.30895 0.02588 0.0
C210 C 1.01811 0.28177 0.01958 0.0
C211 C 1.04502 0.23839 0.02055 0.0
C212 C 0.98361 0.22133 0.02793 0.0
C213 C 0.89243 0.25004 0.03459 0.0
H214 H 0.20333 0.28589 0.47462 0.0
H215 H 0.9981 0.37609 0.55796 0.0
H216 H 1.0928 0.41356 0.57334 0.0
H217 H 0.38538 0.27802 0.53854 0.0
H218 H 0.45617 0.2743 0.49368 0.0
H219 H 0.36899 0.25708 0.48523 0.0
H220 H 0.30111 0.3068 0.42033 0.0
H221 H 0.38941 0.32352 0.42784 0.0
H222 H 0.27438 0.36141 0.42878 0.0
H223 H 0.21792 0.43542 0.58683 0.0
H224 H 0.35593 0.44614 0.58931 0.0
H225 H 0.47467 0.34323 0.49432 0.0
C226 C 0.17652 0.31435 0.49484 0.0
C227 C 1.09325 0.32802 0.51511 0.0
C228 C 1.06215 0.36479 0.54244 0.0
C229 C 0.11528 0.38632 0.55126 0.0
C230 C 0.1986 0.37089 0.53207 0.0
C231 C 0.22814 0.33628 0.50366 0.0
C232 C 0.3215 0.32505 0.48851 0.0
C233 C 0.3868 0.28102 0.50233 0.0
C234 C 0.32157 0.32948 0.43839 0.0
C235 C 0.34093 0.35812 0.51376 0.0
C236 C 0.26943 0.38419 0.53882 0.0
C237 C 0.27379 0.41562 0.56683 0.0
C238 C 0.35268 0.42114 0.56841 0.0
C239 C 0.42538 0.39565 0.54177 0.0
C240 C 0.41944 0.36356 0.51446 0.0
H241 H 1.07962 0.83118 0.50385 0.0
H242 H 0.10353 0.84048 0.6464 0.0
H243 H 0.9965 0.8093 0.65301 0.0
H244 H 0.85058 0.86327 0.49956 0.0
H245 H 0.85034 0.82974 0.45291 0.0
H246 H 0.93761 0.84704 0.4598 0.0
H247 H 1.05511 0.77088 0.45613 0.0
H248 H 0.97033 0.75174 0.45105 0.0
H249 H 1.0538 0.73475 0.49507 0.0
H250 H 0.87587 0.78352 0.64317 0.0
H251 H 0.75455 0.7638 0.61802 0.0
H252 H 0.80867 0.77445 0.48192 0.0
C253 C 1.06494 0.82521 0.53647 0.0
C254 C 0.101 0.83725 0.57465 0.0
C255 C 1.07724 0.8308 0.61682 0.0
C256 C 1.01666 0.8132 0.62082 0.0
C257 C 0.98042 0.80268 0.5823 0.0
C258 C 1.00397 0.80841 0.54096 0.0
C259 C 0.95005 0.79831 0.50471 0.0
C260 C 0.89383 0.83689 0.47769 0.0
C261 C 1.01087 0.76172 0.47497 0.0
C262 C 0.89175 0.78621 0.53201 0.0
C263 C 0.91023 0.78877 0.57667 0.0
C264 C 0.86134 0.78111 0.60827 0.0
C265 C 0.79203 0.7704 0.59371 0.0
C266 C 0.77227 0.76769 0.54804 0.0
C267 C 0.82309 0.77568 0.517 0.0
H268 H 0.54796 0.95978 0.83242 0.0
H269 H 0.39589 0.08076 0.77911 0.0
H270 H 0.51652 1.06962 0.72987 0.0
H271 H 0.69903 0.95204 0.86269 0.0
H272 H 0.79676 0.90865 0.84169 0.0
H273 H 0.69091 0.90666 0.83709 0.0
H274 H 0.70976 0.89243 0.75377 0.0
H275 H 0.81631 0.8949 0.75861 0.0
H276 H 0.73179 0.92706 0.72024 0.0
H277 H 0.65239 1.07496 0.74095 0.0
H278 H 0.73829 0.08962 0.80039 0.0
H279 H 0.83936 0.96261 0.84134 0.0
C280 C 0.5387 0.98216 0.80767 0.0
C281 C 0.46598 1.02169 0.81079 0.0
C282 C 0.45311 1.05068 0.77824 0.0
C283 C 0.52176 1.04422 0.74973 0.0
C284 C 0.60326 1.00921 0.75508 0.0
C285 C 0.60939 0.97618 0.78009 0.0
C286 C 0.70678 0.94794 0.79008 0.0
C287 C 0.72419 0.92784 0.83568 0.0
C288 C 0.74324 0.91363 0.75349 0.0
C289 C 0.74549 0.97924 0.78614 0.0
C290 C 0.68909 1.01172 0.75982 0.0
C291 C 0.69638 1.04958 0.76108 0.0
C292 C 0.74583 1.05791 0.7956 0.0
C293 C 0.79128 1.02765 0.82724 0.0
C294 C 0.80102 0.9866 0.81848 0.0
H295 H 0.47383 1.01669 0.52363 0.0
H296 H 0.31384 0.14807 0.50136 0.0
H297 H 0.45043 0.15848 0.49837 0.0
H298 H 0.64913 1.03151 0.59334 0.0
H299 H 0.74126 0.9861 0.57144 0.0
H300 H 0.6314 0.9873 0.57184 0.0
H301 H 0.63721 0.971 0.48794 0.0
H302 H 0.74709 0.96974 0.48737 0.0
H303 H 0.65897 1.00399 0.45173 0.0
H304 H 0.60591 0.1568 0.49686 0.0
H305 H 0.76379 0.14353 0.49814 0.0
H306 H 0.83987 1.01321 0.52228 0.0
C307 C 0.46712 1.04773 0.51809 0.0
C308 C 0.37882 0.08155 0.51271 0.0
C309 C 0.37722 0.12123 0.50569 0.0
C310 C 0.4559 0.12763 0.50386 0.0
C311 C 0.54021 0.09428 0.50917 0.0
C312 C 0.54698 1.05492 0.51629 0.0
C313 C 0.64787 1.02494 0.52122 0.0
C314 C 0.66865 1.00634 0.56719 0.0
C315 C 0.67436 0.99034 0.48491 0.0
C316 C 0.69593 1.05348 0.51557 0.0
C317 C 0.63123 0.09336 0.50862 0.0
C318 C 0.65644 0.12556 0.50233 0.0
C319 C 0.74816 0.11747 0.50311 0.0
C320 C 0.81868 1.07722 0.51023 0.0
C321 C 0.79029 1.0446 0.51661 0.0
H322 H 0.84512 0.71386 0.83986 0.0
H323 H 0.81554 0.60041 0.81328 0.0
H324 H 0.92923 0.57861 0.75749 0.0
H325 H 0.9866 0.69444 0.71544 0.0
H326 H 1.04781 0.72018 0.74388 0.0
H327 H 0.92781 0.74203 0.7471 0.0
H328 H 0.94181 0.74349 0.83157 0.0
H329 H 1.06014 0.72253 0.82811 0.0
H330 H 1.0112 0.69632 0.85974 0.0
H331 H 1.08744 0.55012 0.75301 0.0
H332 H 0.22551 0.52742 0.79748 0.0
H333 H 0.17045 0.65626 0.82795 0.0
C334 C 0.8585 0.68626 0.81908 0.0
C335 C 0.82501 0.65821 0.83124 0.0
C336 C 0.84149 0.62218 0.80456 0.0
C337 C 0.90664 0.6096 0.77252 0.0
C338 C 0.95428 0.63345 0.76781 0.0
C339 C 0.92552 0.67327 0.78762 0.0
C340 C 0.99942 0.68763 0.78759 0.0
C341 C 0.98985 0.71246 0.74604 0.0
C342 C 1.00341 0.71385 0.82936 0.0
C343 C 1.07867 0.64544 0.78342 0.0
C344 C 1.05156 0.61581 0.76537 0.0
C345 C 0.10839 0.57326 0.76697 0.0
C346 C 0.18636 0.56047 0.79347 0.0
C347 C 0.20595 0.59008 0.81905 0.0
C348 C 0.15711 0.63267 0.80964 0.0
H349 H 0.22593 0.64078 0.51002 0.0
H350 H 0.39296 0.50881 0.5254 0.0
H351 H 0.25863 0.49624 0.52642 0.0
H352 H 1.04366 0.64783 0.58178 0.0
H353 H 0.95441 0.68304 0.5474 0.0
H354 H 1.06337 0.68289 0.54779 0.0
H355 H 1.06972 0.66859 0.46185 0.0
H356 H 0.95876 0.67121 0.46376 0.0
H357 H 1.04767 0.62602 0.4393 0.0
H358 H 0.1063 0.49538 0.52834 0.0
H359 H 0.95007 0.50633 0.52751 0.0
H360 H 0.86468 0.63865 0.51088 0.0
C361 C 0.23472 0.60915 0.51383 0.0
C362 C 0.3242 0.57589 0.51779 0.0
C363 C 0.32859 0.53535 0.5225 0.0
C364 C 0.25139 0.52767 0.52333 0.0
C365 C 0.16596 0.5605 0.51989 0.0
C366 C 0.15641 0.60064 0.51507 0.0
C367 C 1.05471 0.62973 0.51147 0.0
C368 C 1.02742 0.66287 0.54933 0.0
C369 C 1.03122 0.65016 0.46645 0.0
C370 C 1.00953 0.59977 0.5155 0.0
C371 C 1.07632 0.55997 0.52024 0.0
C372 C 1.05412 0.52656 0.52457 0.0
C373 C 0.96326 0.53332 0.52405 0.0
C374 C 0.89062 0.57341 0.51909 0.0
C375 C 0.91594 0.60731 0.51469 0.0
H376 H 1.03001 1.0454 0.35062 0.0
H377 H 0.20174 0.10469 0.39481 0.0
H378 H 0.2244 0.11491 0.31726 0.0
H379 H 0.15007 0.99108 0.25617 0.0
H380 H 1.05284 0.9996 0.2215 0.0
H381 H 1.04698 0.99832 0.28044 0.0
H382 H 0.91374 1.07138 0.28125 0.0
H383 H 0.919 1.07284 0.22223 0.0
H384 H 0.92538 0.11407 0.25729 0.0
H385 H 0.23822 0.11376 0.2346 0.0
H386 H 0.23376 0.10555 0.15308 0.0
H387 H 1.04669 1.05081 0.16121 0.0
C388 C 1.07172 1.06087 0.34393 0.0
C389 C 0.1144 1.07411 0.37894 0.0
C390 C 0.16822 0.09433 0.36872 0.0
C391 C 0.18161 0.10023 0.32468 0.0
C392 C 0.13963 0.08637 0.29095 0.0
C393 C 1.08473 1.06761 0.30001 0.0
C394 C 1.04756 1.05564 0.25749 0.0
C395 C 1.07611 1.00835 0.25369 0.0
C396 C 0.94535 0.07993 0.25439 0.0
C397 C 1.09206 1.06949 0.22312 0.0
C398 C 0.1449 0.08716 0.24323 0.0
C399 C 0.196 0.10056 0.21857 0.0
C400 C 0.19317 0.09578 0.17232 0.0
C401 C 0.13902 0.07816 0.15098 0.0
C402 C 1.08744 1.06506 0.17675 0.0
H403 H 0.17083 1.03664 0.86311 0.0
H404 H 0.92753 0.15087 0.87764 0.0
H405 H 0.90955 0.15565 0.79748 0.0
H406 H 0.25174 1.06927 0.77344 0.0
H407 H 0.29592 1.0203 0.74232 0.0
H408 H 0.28853 1.02082 0.80123 0.0
H409 H 0.19551 0.97902 0.79515 0.0
H410 H 0.20326 0.97651 0.73592 0.0
H411 H 1.09537 0.99696 0.76075 0.0
H412 H 0.91664 0.15102 0.71665 0.0
H413 H 0.95685 0.13936 0.63822 0.0
H414 H 0.19813 1.03017 0.67123 0.0
C415 C 0.11358 1.06237 0.84927 0.0
C416 C 1.05022 0.09319 0.87716 0.0
C417 C 0.97701 0.12669 0.8575 0.0
C418 C 0.96567 0.12969 0.81171 0.0
C419 C 1.02839 0.09915 0.78518 0.0
C420 C 0.10136 1.06619 0.80287 0.0
C421 C 0.16072 1.03922 0.76587 0.0
C422 C 0.25486 1.03736 0.77098 0.0
C423 C 0.16389 0.99532 0.76434 0.0
C424 C 0.11119 1.0631 0.7253 0.0
C425 C 1.03388 0.09703 0.73749 0.0
C426 C 0.97681 0.12444 0.70662 0.0
C427 C 0.99998 0.11756 0.66215 0.0
C428 C 1.07987 0.08381 0.64873 0.0
C429 C 0.13603 1.05594 0.68066 0.0
H430 H 0.73941 0.53194 0.36362 0.0
H431 H 0.46086 0.61084 0.38933 0.0
H432 H 0.43028 0.62164 0.30916 0.0
H433 H 0.76023 0.59142 0.27567 0.0
H434 H 0.83345 0.54612 0.24422 0.0
H435 H 0.83256 0.54469 0.30341 0.0
H436 H 0.79886 0.47987 0.29578 0.0
H437 H 0.79926 0.4812 0.23656 0.0
H438 H 0.70316 0.48232 0.26305 0.0
H439 H 0.43043 0.62297 0.22486 0.0
H440 H 0.46248 0.61691 0.14523 0.0
H441 H 0.74121 0.53766 0.17495 0.0
C442 C 0.67194 0.55155 0.35242 0.0
C443 C 0.60241 0.57048 0.38289 0.0
C444 C 0.51519 0.59599 0.36673 0.0
C445 C 0.4972 0.60223 0.32118 0.0
C446 C 0.56715 0.58287 0.292 0.0
C447 C 0.65292 0.55819 0.30709 0.0
C448 C 0.71653 0.54118 0.26903 0.0
C449 C 0.79002 0.5568 0.27335 0.0
C450 C 0.75681 0.4933 0.26594 0.0
C451 C 0.65339 0.56009 0.23012 0.0
C452 C 0.56738 0.58394 0.24396 0.0
C453 C 0.49764 0.60441 0.2138 0.0
C454 C 0.51641 0.60074 0.16856 0.0
C455 C 0.60431 0.5769 0.15368 0.0
C456 C 0.67327 0.55617 0.18512 0.0
H457 H 0.46781 0.62804 0.67116 0.0
H458 H 0.74527 0.54704 0.64539 0.0
H459 H 0.77585 0.53673 0.72568 0.0
H460 H 0.50759 0.67784 0.77071 0.0
H461 H 0.41054 0.68049 0.79758 0.0
H462 H 0.41091 0.68109 0.7383 0.0
H463 H 0.37315 0.61726 0.73194 0.0
H464 H 0.37206 0.61691 0.79117 0.0
H465 H 0.44351 0.57069 0.76047 0.0
H466 H 0.77487 0.53489 0.80993 0.0
H467 H 0.74251 0.54204 0.88965 0.0
H468 H 0.46625 0.62501 0.85975 0.0
C469 C 0.53502 0.60802 0.68235 0.0
C470 C 0.60423 0.58832 0.65188 0.0
C471 C 0.69119 0.56241 0.66802 0.0
C472 C 0.70915 0.55642 0.71362 0.0
C473 C 0.63942 0.57647 0.74278 0.0
C474 C 0.55401 0.60172 0.72769 0.0
C475 C 0.49072 0.61983 0.76573 0.0
C476 C 0.45273 0.66765 0.76821 0.0
C477 C 0.41545 0.60528 0.7621 0.0
C478 C 0.55364 0.60085 0.80463 0.0
C479 C 0.63914 0.57585 0.79082 0.0
C480 C 0.70816 0.5545 0.82098 0.0
C481 C 0.68924 0.55872 0.86622 0.0
C482 C 0.60202 0.58409 0.88099 0.0
C483 C 0.53379 0.60556 0.8496 0.0
loop_
_geom_bond_atom_site_label_1
_geom_bond_atom_site_label_2
_geom_bond_distance
_geom_bond_site_symmetry_2
_ccdc_geom_bond_type
Pr0 C2 2.880 1_565 S
Pr0 O20 2.562 1_566 S
Pr0 O21 2.490 . S
Pr0 O22 2.695 1_655 S
Pr0 O23 2.512 . S
Pr0 O25 2.437 1_565 S
Pr0 O28 2.436 1_566 S
Pr0 O30 2.438 1_655 S
Pr1 C11 2.880 1_545 S
Pr1 O22 2.436 1_544 S
Pr1 O24 2.438 1_455 S
Pr1 O26 2.562 1_544 S
Pr1 O27 2.490 . S
Pr1 O28 2.695 1_455 S
Pr1 O29 2.512 . S
Pr1 O31 2.437 1_545 S
C2 Pr0 2.880 1_545 S
C2 C3 1.491 . S
C2 O20 1.255 1_556 S
C2 O21 1.223 1_545 S
C3 C2 1.491 . S
C3 C4 1.392 . S
C3 C8 1.356 1_556 S
C4 C3 1.392 . S
C4 C5 1.368 . S
C4 H32 0.929 1_545 S
C5 C4 1.368 . S
C5 C6 1.386 . S
C5 H33 0.929 . S
C6 C5 1.386 . S
C6 C7 1.373 1_556 S
C7 C6 1.373 1_554 S
C7 C8 1.409 . S
C7 H34 0.931 . S
C8 C3 1.356 1_554 S
C8 C7 1.409 . S
C8 H35 0.930 . S
C9 O22 1.270 1_655 S
C9 O23 1.248 . S
C10 O24 1.267 1_556 S
C10 O25 1.278 . S
C11 Pr1 2.880 1_565 S
C11 C12 1.491 . S
C11 O26 1.253 1_554 S
C11 O27 1.226 1_565 S
C12 C11 1.491 . S
C12 C13 1.392 . S
C12 C17 1.356 1_554 S
C13 C12 1.392 . S
C13 C14 1.368 . S
C13 H36 0.929 1_565 S
C14 C13 1.368 . S
C14 C15 1.386 . S
C14 H37 0.929 . S
C15 C14 1.386 . S
C15 C16 1.373 1_554 S
C16 C15 1.373 1_556 S
C16 C17 1.409 . S
C16 H38 0.931 . S
C17 C12 1.356 1_556 S
C17 C16 1.409 . S
C17 H39 0.930 . S
C18 O28 1.270 1_455 S
C18 O29 1.248 . S
C19 O30 1.267 1_554 S
C19 O31 1.278 . S
O20 Pr0 2.562 1_544 S
O20 C2 1.255 1_554 S
O21 Pr0 2.490 . S
O21 C2 1.223 1_565 S
O22 Pr0 2.695 1_455 S
O22 Pr1 2.436 1_566 S
O22 C9 1.270 1_455 S
O23 Pr0 2.512 . S
O23 C9 1.248 . S
O24 Pr1 2.438 1_655 S
O24 C10 1.267 1_554 S
O25 Pr0 2.437 1_545 S
O25 C10 1.278 . S
O26 Pr1 2.562 1_566 S
O26 C11 1.253 1_556 S
O27 Pr1 2.490 . S
O27 C11 1.226 1_545 S
O28 Pr0 2.436 1_544 S
O28 Pr1 2.695 1_655 S
O28 C18 1.270 1_655 S
O29 Pr1 2.512 . S
O29 C18 1.248 . S
O30 Pr0 2.438 1_455 S
O30 C19 1.267 1_556 S
O31 Pr1 2.437 1_565 S
O31 C19 1.278 . S
H32 C4 0.929 1_565 S
H33 C5 0.929 . S
H34 C7 0.931 . S
H35 C8 0.930 . S
H36 C13 0.929 1_545 S
H37 C14 0.929 . S
H38 C16 0.931 . S
H39 C17 0.930 . S
Pr40 C42 2.880 1_455 S
Pr40 O60 2.562 1_455 S
Pr40 O61 2.490 1_455 S
Pr40 O62 2.695 1_565 S
Pr40 O63 2.512 . S
Pr40 O65 2.437 1_455 S
Pr40 O68 2.436 1_455 S
Pr40 O70 2.438 . S
Pr41 C51 2.880 1_655 S
Pr41 O62 2.436 1_655 S
Pr41 O64 2.438 . S
Pr41 O66 2.562 1_655 S
Pr41 O67 2.490 1_655 S
Pr41 O68 2.695 1_545 S
Pr41 O69 2.512 . S
Pr41 O71 2.437 1_655 S
C42 Pr40 2.880 1_655 S
C42 C43 1.491 . S
C42 O60 1.254 . S
C42 O61 1.225 . S
C43 C42 1.491 . S
C43 C44 1.392 . S
C43 C48 1.356 . S
C44 C43 1.392 . S
C44 C45 1.368 . S
C44 H72 0.929 . S
C45 C44 1.368 . S
C45 C46 1.386 . S
C45 H73 0.929 . S
C46 C45 1.386 . S
C46 C47 1.373 . S
C47 C46 1.373 . S
C47 C48 1.409 . S
C47 H74 0.931 . S
C48 C43 1.356 . S
C48 C47 1.409 . S
C48 H75 0.930 . S
C49 O62 1.270 1_565 S
C49 O63 1.248 . S
C50 O64 1.267 . S
C50 O65 1.278 1_545 S
C51 Pr41 2.880 1_455 S
C51 C52 1.491 . S
C51 O66 1.254 . S
C51 O67 1.225 . S
C52 C51 1.491 . S
C52 C53 1.392 . S
C52 C57 1.356 . S
C53 C52 1.392 . S
C53 C54 1.368 . S
C53 H76 0.929 . S
C54 C53 1.368 . S
C54 C55 1.386 . S
C54 H77 0.929 . S
C55 C54 1.386 . S
C55 C56 1.373 . S
C56 C55 1.373 . S
C56 C57 1.409 . S
C56 H78 0.931 . S
C57 C52 1.356 . S
C57 C56 1.409 . S
C57 H79 0.930 . S
C58 O68 1.270 1_545 S
C58 O69 1.248 . S
C59 O70 1.267 . S
C59 O71 1.278 1_565 S
O60 Pr40 2.562 1_655 S
O60 C42 1.254 . S
O61 Pr40 2.490 1_655 S
O61 C42 1.225 . S
O62 Pr40 2.695 1_545 S
O62 Pr41 2.436 1_455 S
O62 C49 1.270 1_545 S
O63 Pr40 2.512 . S
O63 C49 1.248 . S
O64 Pr41 2.438 . S
O64 C50 1.267 . S
O65 Pr40 2.437 1_655 S
O65 C50 1.278 1_565 S
O66 Pr41 2.562 1_455 S
O66 C51 1.254 . S
O67 Pr41 2.490 1_455 S
O67 C51 1.225 . S
O68 Pr40 2.436 1_655 S
O68 Pr41 2.695 1_565 S
O68 C58 1.270 1_565 S
O69 Pr41 2.512 . S
O69 C58 1.248 . S
O70 Pr40 2.438 . S
O70 C59 1.267 . S
O71 Pr41 2.437 1_455 S
O71 C59 1.278 1_545 S
H72 C44 0.929 . S
H73 C45 0.929 . S
H74 C47 0.931 . S
H75 C48 0.930 . S
H76 C53 0.929 . S
H77 C54 0.929 . S
H78 C56 0.931 . S
H79 C57 0.930 . S
Pr80 C82 2.880 . S
Pr80 O100 2.562 1_556 S
Pr80 O101 2.490 . S
Pr80 O102 2.695 . S
Pr80 O103 2.512 . S
Pr80 O105 2.437 . S
Pr80 O108 2.436 1_556 S
Pr80 O110 2.438 . S
Pr81 C91 2.880 . S
Pr81 O102 2.436 1_554 S
Pr81 O104 2.438 . S
Pr81 O106 2.562 1_554 S
Pr81 O107 2.490 . S
Pr81 O108 2.695 . S
Pr81 O109 2.512 . S
Pr81 O111 2.437 . S
C82 Pr80 2.880 . S
C82 C83 1.491 . S
C82 O100 1.254 1_556 S
C82 O101 1.225 . S
C83 C82 1.491 . S
C83 C84 1.392 . S
C83 C88 1.356 1_556 S
C84 C83 1.392 . S
C84 C85 1.368 . S
C84 H112 0.929 . S
C85 C84 1.368 . S
C85 C86 1.386 . S
C85 H113 0.929 . S
C86 C85 1.386 . S
C86 C87 1.373 1_556 S
C87 C86 1.373 1_554 S
C87 C88 1.409 . S
C87 H114 0.931 . S
C88 C83 1.356 1_554 S
C88 C87 1.409 . S
C88 H115 0.930 . S
C89 O102 1.270 . S
C89 O103 1.248 . S
C90 O104 1.267 1_556 S
C90 O105 1.278 . S
C91 Pr81 2.880 . S
C91 C92 1.491 . S
C91 O106 1.254 1_554 S
C91 O107 1.225 . S
C92 C91 1.491 . S
C92 C93 1.392 . S
C92 C97 1.356 1_554 S
C93 C92 1.392 . S
C93 C94 1.368 . S
C93 H116 0.929 . S
C94 C93 1.368 . S
C94 C95 1.386 . S
C94 H117 0.929 . S
C95 C94 1.386 . S
C95 C96 1.373 1_554 S
C96 C95 1.373 1_556 S
C96 C97 1.409 . S
C96 H118 0.931 . S
C97 C92 1.356 1_556 S
C97 C96 1.409 . S
C97 H119 0.930 . S
C98 O108 1.270 . S
C98 O109 1.248 . S
C99 O110 1.267 1_554 S
C99 O111 1.278 . S
O100 Pr80 2.562 1_554 S
O100 C82 1.254 1_554 S
O101 Pr80 2.490 . S
O101 C82 1.225 . S
O102 Pr80 2.695 . S
O102 Pr81 2.436 1_556 S
O102 C89 1.270 . S
O103 Pr80 2.512 . S
O103 C89 1.248 . S
O104 Pr81 2.438 . S
O104 C90 1.267 1_554 S
O105 Pr80 2.437 . S
O105 C90 1.278 . S
O106 Pr81 2.562 1_556 S
O106 C91 1.254 1_556 S
O107 Pr81 2.490 . S
O107 C91 1.225 . S
O108 Pr80 2.436 1_554 S
O108 Pr81 2.695 . S
O108 C98 1.270 . S
O109 Pr81 2.512 . S
O109 C98 1.248 . S
O110 Pr80 2.438 . S
O110 C99 1.267 1_556 S
O111 Pr81 2.437 . S
O111 C99 1.278 . S
H112 C84 0.929 . S
H113 C85 0.929 . S
H114 C87 0.931 . S
H115 C88 0.930 . S
H116 C93 0.929 . S
H117 C94 0.929 . S
H118 C96 0.931 . S
H119 C97 0.930 . S
Pr120 C122 2.880 . S
Pr120 O140 2.562 . S
Pr120 O141 2.490 . S
Pr120 O142 2.695 . S
Pr120 O143 2.512 . S
Pr120 O145 2.437 . S
Pr120 O148 2.436 . S
Pr120 O150 2.438 . S
Pr121 C131 2.880 . S
Pr121 O142 2.436 . S
Pr121 O144 2.438 . S
Pr121 O146 2.562 . S
Pr121 O147 2.490 . S
Pr121 O148 2.695 . S
Pr121 O149 2.512 . S
Pr121 O151 2.437 . S
C122 Pr120 2.880 . S
C122 C123 1.491 . S
C122 O140 1.254 . S
C122 O141 1.225 . S
C123 C122 1.491 . S
C123 C124 1.392 . S
C123 C128 1.356 . S
C124 C123 1.392 . S
C124 C125 1.368 . S
C124 H152 0.929 . S
C125 C124 1.368 . S
C125 C126 1.386 . S
C125 H153 0.929 . S
C126 C125 1.386 . S
C126 C127 1.373 . S
C127 C126 1.373 . S
C127 C128 1.409 . S
C127 H154 0.931 . S
C128 C123 1.356 . S
C128 C127 1.409 . S
C128 H155 0.930 . S
C129 O142 1.270 . S
C129 O143 1.248 . S
C130 O144 1.267 . S
C130 O145 1.278 . S
C131 Pr121 2.880 . S
C131 C132 1.491 . S
C131 O146 1.254 . S
C131 O147 1.225 . S
C132 C131 1.491 . S
C132 C133 1.392 . S
C132 C137 1.356 . S
C133 C132 1.392 . S
C133 C134 1.368 . S
C133 H156 0.929 . S
C134 C133 1.368 . S
C134 C135 1.386 . S
C134 H157 0.929 . S
C135 C134 1.386 . S
C135 C136 1.373 . S
C136 C135 1.373 . S
C136 C137 1.409 . S
C136 H158 0.931 . S
C137 C132 1.356 . S
C137 C136 1.409 . S
C137 H159 0.930 . S
C138 O148 1.270 . S
C138 O149 1.248 . S
C139 O150 1.267 . S
C139 O151 1.278 . S
O140 Pr120 2.562 . S
O140 C122 1.254 . S
O141 Pr120 2.490 . S
O141 C122 1.225 . S
O142 Pr120 2.695 . S
O142 Pr121 2.436 . S
O142 C129 1.270 . S
O143 Pr120 2.512 . S
O143 C129 1.248 . S
O144 Pr121 2.438 . S
O144 C130 1.267 . S
O145 Pr120 2.437 . S
O145 C130 1.278 . S
O146 Pr121 2.562 . S
O146 C131 1.254 . S
O147 Pr121 2.490 . S
O147 C131 1.225 . S
O148 Pr120 2.436 . S
O148 Pr121 2.695 . S
O148 C138 1.270 . S
O149 Pr121 2.512 . S
O149 C138 1.248 . S
O150 Pr120 2.438 . S
O150 C139 1.267 . S
O151 Pr121 2.437 . S
O151 C139 1.278 . S
H152 C124 0.929 . S
H153 C125 0.929 . S
H154 C127 0.931 . S
H155 C128 0.930 . S
H156 C133 0.929 . S
H157 C134 0.929 . S
H158 C136 0.931 . S
H159 C137 0.930 . S
H160 C172 0.930 . S
H161 C174 0.930 . S
H162 C175 0.930 . S
H163 C179 0.959 . S
H164 C179 0.959 . S
H165 C179 0.961 . S
H166 C180 0.960 . S
H167 C180 0.961 . S
H168 C180 0.959 . S
H169 C183 0.929 . S
H170 C184 0.931 . S
H171 C186 0.930 . S
C172 H160 0.930 . S
C172 C173 1.399 1_556 S
C172 C177 1.399 . S
C173 C172 1.399 1_554 S
C173 C174 1.376 . S
C174 H161 0.930 . S
C174 C173 1.376 . S
C174 C175 1.388 . S
C175 H162 0.930 . S
C175 C174 1.388 . S
C175 C176 1.390 . S
C176 C175 1.390 . S
C176 C177 1.394 1_554 S
C176 C182 1.465 . S
C177 C172 1.399 . S
C177 C176 1.394 1_556 S
C177 C178 1.516 . S
C178 C177 1.516 . S
C178 C179 1.502 . S
C178 C180 1.561 . S
C178 C181 1.526 . S
C179 H163 0.959 . S
C179 H164 0.959 . S
C179 H165 0.961 . S
C179 C178 1.502 . S
C180 H166 0.960 . S
C180 H167 0.961 . S
C180 H168 0.959 . S
C180 C178 1.561 . S
C181 C178 1.526 . S
C181 C182 1.396 1_556 S
C181 C186 1.390 . S
C182 C176 1.465 . S
C182 C181 1.396 1_554 S
C182 C183 1.399 . S
C183 H169 0.929 . S
C183 C182 1.399 . S
C183 C184 1.385 . S
C184 H170 0.931 . S
C184 C183 1.385 . S
C184 C185 1.389 . S
C185 C184 1.389 . S
C185 C186 1.387 1_554 S
C186 H171 0.930 . S
C186 C181 1.390 . S
C186 C185 1.387 1_556 S
H187 C199 0.930 . S
H188 C201 0.930 . S
H189 C202 0.930 . S
H190 C206 0.959 . S
H191 C206 0.959 . S
H192 C206 0.961 . S
H193 C207 0.960 . S
H194 C207 0.961 . S
H195 C207 0.959 . S
H196 C210 0.929 . S
H197 C211 0.931 . S
H198 C213 0.930 . S
C199 H187 0.930 . S
C199 C200 1.399 1_556 S
C199 C204 1.399 . S
C200 C199 1.399 1_554 S
C200 C201 1.376 . S
C201 H188 0.930 . S
C201 C200 1.376 . S
C201 C202 1.388 . S
C202 H189 0.930 . S
C202 C201 1.388 . S
C202 C203 1.390 . S
C203 C202 1.390 . S
C203 C204 1.394 1_554 S
C203 C209 1.465 . S
C204 C199 1.399 . S
C204 C203 1.394 1_556 S
C204 C205 1.516 . S
C205 C204 1.516 . S
C205 C206 1.502 . S
C205 C207 1.561 . S
C205 C208 1.526 . S
C206 H190 0.959 . S
C206 H191 0.959 . S
C206 H192 0.961 . S
C206 C205 1.502 . S
C207 H193 0.960 . S
C207 H194 0.961 . S
C207 H195 0.959 . S
C207 C205 1.561 . S
C208 C205 1.526 . S
C208 C209 1.396 1_556 S
C208 C213 1.390 . S
C209 C203 1.465 . S
C209 C208 1.396 1_554 S
C209 C210 1.399 . S
C210 H196 0.929 . S
C210 C209 1.399 . S
C210 C211 1.385 . S
C211 H197 0.931 . S
C211 C210 1.385 . S
C211 C212 1.389 . S
C212 C211 1.389 . S
C212 C213 1.387 1_554 S
C213 H198 0.930 . S
C213 C208 1.390 . S
C213 C212 1.387 1_556 S
H214 C226 0.930 . S
H215 C228 0.930 . S
H216 C229 0.930 . S
H217 C233 0.959 . S
H218 C233 0.959 . S
H219 C233 0.961 . S
H220 C234 0.960 . S
H221 C234 0.961 . S
H222 C234 0.959 . S
H223 C237 0.929 . S
H224 C238 0.931 . S
H225 C240 0.930 . S
C226 H214 0.930 . S
C226 C227 1.399 . S
C226 C231 1.399 . S
C227 C226 1.399 . S
C227 C228 1.376 . S
C228 H215 0.930 . S
C228 C227 1.376 . S
C228 C229 1.388 . S
C229 H216 0.930 . S
C229 C228 1.388 . S
C229 C230 1.390 . S
C230 C229 1.390 . S
C230 C231 1.394 . S
C230 C236 1.465 . S
C231 C226 1.399 . S
C231 C230 1.394 . S
C231 C232 1.516 . S
C232 C231 1.516 . S
C232 C233 1.502 . S
C232 C234 1.561 . S
C232 C235 1.526 . S
C233 H217 0.959 . S
C233 H218 0.959 . S
C233 H219 0.961 . S
C233 C232 1.502 . S
C234 H220 0.960 . S
C234 H221 0.961 . S
C234 H222 0.959 . S
C234 C232 1.561 . S
C235 C232 1.526 . S
C235 C236 1.396 . S
C235 C240 1.390 . S
C236 C230 1.465 . S
C236 C235 1.396 . S
C236 C237 1.399 . S
C237 H223 0.929 . S
C237 C236 1.399 . S
C237 C238 1.385 . S
C238 H224 0.931 . S
C238 C237 1.385 . S
C238 C239 1.389 . S
C239 C238 1.389 . S
C239 C240 1.387 . S
C240 H225 0.930 . S
C240 C235 1.390 . S
C240 C239 1.387 . S
H241 C253 0.930 . S
H242 C255 0.930 . S
H243 C256 0.930 . S
H244 C260 0.959 . S
H245 C260 0.959 . S
H246 C260 0.961 . S
H247 C261 0.960 . S
H248 C261 0.961 . S
H249 C261 0.959 . S
H250 C264 0.929 . S
H251 C265 0.931 . S
H252 C267 0.930 . S
C253 H241 0.930 . S
C253 C254 1.399 . S
C253 C258 1.399 . S
C254 C253 1.399 . S
C254 C255 1.376 . S
C255 H242 0.930 . S
C255 C254 1.376 . S
C255 C256 1.388 . S
C256 H243 0.930 . S
C256 C255 1.388 . S
C256 C257 1.390 . S
C257 C256 1.390 . S
C257 C258 1.394 . S
C257 C263 1.465 . S
C258 C253 1.399 . S
C258 C257 1.394 . S
C258 C259 1.516 . S
C259 C258 1.516 . S
C259 C260 1.502 . S
C259 C261 1.561 . S
C259 C262 1.526 . S
C260 H244 0.959 . S
C260 H245 0.959 . S
C260 H246 0.961 . S
C260 C259 1.502 . S
C261 H247 0.960 . S
C261 H248 0.961 . S
C261 H249 0.959 . S
C261 C259 1.561 . S
C262 C259 1.526 . S
C262 C263 1.396 . S
C262 C267 1.390 . S
C263 C257 1.465 . S
C263 C262 1.396 . S
C263 C264 1.399 . S
C264 H250 0.929 . S
C264 C263 1.399 . S
C264 C265 1.385 . S
C265 H251 0.931 . S
C265 C264 1.385 . S
C265 C266 1.389 . S
C266 C265 1.389 . S
C266 C267 1.387 . S
C267 H252 0.930 . S
C267 C262 1.390 . S
C267 C266 1.387 . S
H268 C280 0.930 . S
H269 C282 0.930 . S
H270 C283 0.930 . S
H271 C287 0.959 . S
H272 C287 0.959 . S
H273 C287 0.961 . S
H274 C288 0.960 . S
H275 C288 0.961 . S
H276 C288 0.959 . S
H277 C291 0.929 . S
H278 C292 0.931 . S
H279 C294 0.930 . S
C280 H268 0.930 . S
C280 C281 1.399 1_554 S
C280 C285 1.399 . S
C281 C280 1.399 1_556 S
C281 C282 1.376 . S
C282 H269 0.930 . S
C282 C281 1.376 . S
C282 C283 1.388 . S
C283 H270 0.930 . S
C283 C282 1.388 . S
C283 C284 1.390 . S
C284 C283 1.390 . S
C284 C285 1.394 1_556 S
C284 C290 1.465 1_565 S
C285 C280 1.399 . S
C285 C284 1.394 1_554 S
C285 C286 1.514 1_565 S
C286 C285 1.514 1_545 S
C286 C287 1.504 . S
C286 C288 1.559 1_545 S
C286 C289 1.528 . S
C287 H271 0.959 . S
C287 H272 0.959 . S
C287 H273 0.961 . S
C287 C286 1.504 . S
C288 H274 0.960 . S
C288 H275 0.961 . S
C288 H276 0.959 . S
C288 C286 1.559 1_565 S
C289 C286 1.528 . S
C289 C290 1.396 1_554 S
C289 C294 1.390 . S
C290 C284 1.465 1_545 S
C290 C289 1.396 1_556 S
C290 C291 1.399 . S
C291 H277 0.929 . S
C291 C290 1.399 . S
C291 C292 1.385 . S
C292 H278 0.931 . S
C292 C291 1.385 . S
C292 C293 1.389 . S
C293 C292 1.389 . S
C293 C294 1.387 1_556 S
C294 H279 0.930 . S
C294 C289 1.390 . S
C294 C293 1.387 1_554 S
H295 C307 0.930 . S
H296 C309 0.930 . S
H297 C310 0.930 . S
H298 C314 0.959 . S
H299 C314 0.959 . S
H300 C314 0.961 . S
H301 C315 0.960 . S
H302 C315 0.961 . S
H303 C315 0.959 1_545 S
H304 C318 0.929 . S
H305 C319 0.931 . S
H306 C321 0.930 . S
C307 H295 0.930 . S
C307 C308 1.399 1_565 S
C307 C312 1.399 . S
C308 C307 1.399 1_545 S
C308 C309 1.376 . S
C309 H296 0.930 . S
C309 C308 1.376 . S
C309 C310 1.388 . S
C310 H297 0.930 . S
C310 C309 1.388 . S
C310 C311 1.390 . S
C311 C310 1.390 . S
C311 C312 1.394 1_545 S
C311 C317 1.465 . S
C312 C307 1.399 . S
C312 C311 1.394 1_565 S
C312 C313 1.516 . S
C313 C312 1.516 . S
C313 C314 1.502 . S
C313 C315 1.561 . S
C313 C316 1.526 . S
C314 H298 0.959 . S
C314 H299 0.959 . S
C314 H300 0.961 . S
C314 C313 1.502 . S
C315 H301 0.960 . S
C315 H302 0.961 . S
C315 H303 0.959 1_565 S
C315 C313 1.561 . S
C316 C313 1.526 . S
C316 C317 1.396 1_565 S
C316 C321 1.390 . S
C317 C311 1.465 . S
C317 C316 1.396 1_545 S
C317 C318 1.399 . S
C318 H304 0.929 . S
C318 C317 1.399 . S
C318 C319 1.385 . S
C319 H305 0.931 . S
C319 C318 1.385 . S
C319 C320 1.389 . S
C320 C319 1.389 . S
C320 C321 1.387 1_545 S
C321 H306 0.930 . S
C321 C316 1.390 . S
C321 C320 1.387 1_565 S
H322 C334 0.930 . S
H323 C336 0.930 . S
H324 C337 0.930 . S
H325 C341 0.959 . S
H326 C341 0.959 . S
H327 C341 0.961 . S
H328 C342 0.960 . S
H329 C342 0.961 . S
H330 C342 0.959 . S
H331 C345 0.929 . S
H332 C346 0.931 . S
H333 C348 0.930 . S
C334 H322 0.930 . S
C334 C335 1.399 1_554 S
C334 C339 1.399 . S
C335 C334 1.399 1_556 S
C335 C336 1.376 . S
C336 H323 0.930 . S
C336 C335 1.376 . S
C336 C337 1.388 . S
C337 H324 0.930 . S
C337 C336 1.388 . S
C337 C338 1.390 . S
C338 C337 1.390 . S
C338 C339 1.394 1_556 S
C338 C344 1.465 1_655 S
C339 C334 1.399 . S
C339 C338 1.394 1_554 S
C339 C340 1.516 1_655 S
C340 C339 1.516 1_455 S
C340 C341 1.502 1_455 S
C340 C342 1.561 . S
C340 C343 1.526 . S
C341 H325 0.959 . S
C341 H326 0.959 . S
C341 H327 0.961 . S
C341 C340 1.502 1_655 S
C342 H328 0.960 . S
C342 H329 0.961 . S
C342 H330 0.959 . S
C342 C340 1.561 . S
C343 C340 1.526 . S
C343 C344 1.396 1_554 S
C343 C348 1.390 . S
C344 C338 1.465 1_455 S
C344 C343 1.396 1_556 S
C344 C345 1.399 . S
C345 H331 0.929 . S
C345 C344 1.399 . S
C345 C346 1.385 . S
C346 H332 0.931 . S
C346 C345 1.385 . S
C346 C347 1.389 . S
C347 C346 1.389 . S
C347 C348 1.387 1_556 S
C348 H333 0.930 . S
C348 C343 1.390 . S
C348 C347 1.387 1_554 S
H349 C361 0.930 . S
H350 C363 0.930 . S
H351 C364 0.930 . S
H352 C368 0.959 . S
H353 C368 0.959 . S
H354 C368 0.961 . S
H355 C369 0.960 1_455 S
H356 C369 0.961 . S
H357 C369 0.959 . S
H358 C372 0.929 . S
H359 C373 0.931 . S
H360 C375 0.930 . S
C361 H349 0.930 . S
C361 C362 1.399 . S
C361 C366 1.399 . S
C362 C361 1.399 . S
C362 C363 1.376 . S
C363 H350 0.930 . S
C363 C362 1.376 . S
C363 C364 1.388 . S
C364 H351 0.930 . S
C364 C363 1.388 . S
C364 C365 1.390 . S
C365 C364 1.390 . S
C365 C366 1.394 . S
C365 C371 1.465 1_455 S
C366 C361 1.399 . S
C366 C365 1.394 . S
C366 C367 1.516 1_455 S
C367 C366 1.516 1_655 S
C367 C368 1.502 . S
C367 C369 1.561 . S
C367 C370 1.526 . S
C368 H352 0.959 . S
C368 H353 0.959 . S
C368 H354 0.961 . S
C368 C367 1.502 . S
C369 H355 0.960 1_655 S
C369 H356 0.961 . S
C369 H357 0.959 . S
C369 C367 1.561 . S
C370 C367 1.526 . S
C370 C371 1.396 . S
C370 C375 1.390 . S
C371 C365 1.465 1_655 S
C371 C370 1.396 . S
C371 C372 1.399 . S
C372 H358 0.929 . S
C372 C371 1.399 . S
C372 C373 1.385 . S
C373 H359 0.931 . S
C373 C372 1.385 . S
C373 C374 1.389 . S
C374 C373 1.389 . S
C374 C375 1.387 . S
C375 H360 0.930 . S
C375 C370 1.390 . S
C375 C374 1.387 . S
H376 C388 0.930 . S
H377 C390 0.930 . S
H378 C391 0.930 . S
H379 C395 0.959 . S
H380 C395 0.959 . S
H381 C395 0.961 . S
H382 C396 0.960 . S
H383 C396 0.961 . S
H384 C396 0.959 . S
H385 C399 0.929 . S
H386 C400 0.931 . S
H387 C402 0.930 . S
C388 H376 0.930 . S
C388 C389 1.399 1_645 S
C388 C393 1.399 . S
C389 C388 1.399 1_465 S
C389 C390 1.376 . S
C390 H377 0.930 . S
C390 C389 1.376 . S
C390 C391 1.388 . S
C391 H378 0.930 . S
C391 C390 1.388 . S
C391 C392 1.390 . S
C392 C391 1.390 . S
C392 C393 1.394 1_465 S
C392 C398 1.465 . S
C393 C388 1.399 . S
C393 C392 1.394 1_645 S
C393 C394 1.516 . S
C394 C393 1.516 . S
C394 C395 1.502 . S
C394 C396 1.561 1_655 S
C394 C397 1.526 . S
C395 H379 0.959 . S
C395 H380 0.959 . S
C395 H381 0.961 . S
C395 C394 1.502 . S
C396 H382 0.960 . S
C396 H383 0.961 . S
C396 H384 0.959 . S
C396 C394 1.561 1_455 S
C397 C394 1.526 . S
C397 C398 1.396 1_645 S
C397 C402 1.390 . S
C398 C392 1.465 . S
C398 C397 1.396 1_465 S
C398 C399 1.399 . S
C399 H385 0.929 . S
C399 C398 1.399 . S
C399 C400 1.385 . S
C400 H386 0.931 . S
C400 C399 1.385 . S
C400 C401 1.389 . S
C401 C400 1.389 . S
C401 C402 1.387 1_465 S
C402 H387 0.930 . S
C402 C397 1.390 . S
C402 C401 1.387 1_645 S
H403 C415 0.930 . S
H404 C417 0.930 . S
H405 C418 0.930 . S
H406 C422 0.959 . S
H407 C422 0.959 . S
H408 C422 0.961 . S
H409 C423 0.960 . S
H410 C423 0.961 . S
H411 C423 0.959 1_655 S
H412 C426 0.929 . S
H413 C427 0.931 . S
H414 C429 0.930 . S
C415 H403 0.930 . S
C415 C416 1.399 1_465 S
C415 C420 1.399 . S
C416 C415 1.399 1_645 S
C416 C417 1.376 . S
C417 H404 0.930 . S
C417 C416 1.376 . S
C417 C418 1.388 . S
C418 H405 0.930 . S
C418 C417 1.388 . S
C418 C419 1.390 . S
C419 C418 1.390 . S
C419 C420 1.394 1_645 S
C419 C425 1.465 . S
C420 C415 1.399 . S
C420 C419 1.394 1_465 S
C420 C421 1.516 . S
C421 C420 1.516 . S
C421 C422 1.502 . S
C421 C423 1.561 . S
C421 C424 1.526 . S
C422 H406 0.959 . S
C422 H407 0.959 . S
C422 H408 0.961 . S
C422 C421 1.502 . S
C423 H409 0.960 . S
C423 H410 0.961 . S
C423 H411 0.959 1_455 S
C423 C421 1.561 . S
C424 C421 1.526 . S
C424 C425 1.396 1_465 S
C424 C429 1.390 . S
C425 C419 1.465 . S
C425 C424 1.396 1_645 S
C425 C426 1.399 . S
C426 H412 0.929 . S
C426 C425 1.399 . S
C426 C427 1.385 . S
C427 H413 0.931 . S
C427 C426 1.385 . S
C427 C428 1.389 . S
C428 C427 1.389 . S
C428 C429 1.387 1_645 S
C429 H414 0.930 . S
C429 C424 1.390 . S
C429 C428 1.387 1_465 S
H430 C442 0.930 . S
H431 C444 0.930 . S
H432 C445 0.930 . S
H433 C449 0.959 . S
H434 C449 0.959 . S
H435 C449 0.961 . S
H436 C450 0.960 . S
H437 C450 0.961 . S
H438 C450 0.959 . S
H439 C453 0.929 . S
H440 C454 0.931 . S
H441 C456 0.930 . S
C442 H430 0.930 . S
C442 C443 1.399 . S
C442 C447 1.399 . S
C443 C442 1.399 . S
C443 C444 1.376 . S
C444 H431 0.930 . S
C444 C443 1.376 . S
C444 C445 1.388 . S
C445 H432 0.930 . S
C445 C444 1.388 . S
C445 C446 1.390 . S
C446 C445 1.390 . S
C446 C447 1.394 . S
C446 C452 1.465 . S
C447 C442 1.399 . S
C447 C446 1.394 . S
C447 C448 1.516 . S
C448 C447 1.516 . S
C448 C449 1.502 . S
C448 C450 1.561 . S
C448 C451 1.526 . S
C449 H433 0.959 . S
C449 H434 0.959 . S
C449 H435 0.961 . S
C449 C448 1.502 . S
C450 H436 0.960 . S
C450 H437 0.961 . S
C450 H438 0.959 . S
C450 C448 1.561 . S
C451 C448 1.526 . S
C451 C452 1.396 . S
C451 C456 1.390 . S
C452 C446 1.465 . S
C452 C451 1.396 . S
C452 C453 1.399 . S
C453 H439 0.929 . S
C453 C452 1.399 . S
C453 C454 1.385 . S
C454 H440 0.931 . S
C454 C453 1.385 . S
C454 C455 1.389 . S
C455 C454 1.389 . S
C455 C456 1.387 . S
C456 H441 0.930 . S
C456 C451 1.390 . S
C456 C455 1.387 . S
H457 C469 0.930 . S
H458 C471 0.930 . S
H459 C472 0.930 . S
H460 C476 0.959 . S
H461 C476 0.959 . S
H462 C476 0.961 . S
H463 C477 0.960 . S
H464 C477 0.961 . S
H465 C477 0.959 . S
H466 C480 0.929 . S
H467 C481 0.931 . S
H468 C483 0.930 . S
C469 H457 0.930 . S
C469 C470 1.399 . S
C469 C474 1.399 . S
C470 C469 1.399 . S
C470 C471 1.376 . S
C471 H458 0.930 . S
C471 C470 1.376 . S
C471 C472 1.388 . S
C472 H459 0.930 . S
C472 C471 1.388 . S
C472 C473 1.390 . S
C473 C472 1.390 . S
C473 C474 1.394 . S
C473 C479 1.465 . S
C474 C469 1.399 . S
C474 C473 1.394 . S
C474 C475 1.516 . S
C475 C474 1.516 . S
C475 C476 1.502 . S
C475 C477 1.561 . S
C475 C478 1.526 . S
C476 H460 0.959 . S
C476 H461 0.959 . S
C476 H462 0.961 . S
C476 C475 1.502 . S
C477 H463 0.960 . S
C477 H464 0.961 . S
C477 H465 0.959 . S
C477 C475 1.561 . S
C478 C475 1.526 . S
C478 C479 1.396 . S
C478 C483 1.390 . S
C479 C473 1.465 . S
C479 C478 1.396 . S
C479 C480 1.399 . S
C480 H466 0.929 . S
C480 C479 1.399 . S
C480 C481 1.385 . S
C481 H467 0.931 . S
C481 C480 1.385 . S
C481 C482 1.389 . S
C482 C481 1.389 . S
C482 C483 1.387 . S
C483 H468 0.930 . S
C483 C478 1.390 . S
C483 C482 1.387 . S
C173 C90 3.584 1_554 S
C185 C19 3.564 . S
C200 C99 3.578 . S
C212 C10 3.571 1_554 S
C227 C55 0.246 . S
C239 C126 0.218 . S
C254 C46 0.289 . S
C266 C135 0.137 . S
C281 C15 0.998 1_556 S
C293 C6 0.931 . S
C308 C59 4.860 1_545 S
C320 C50 4.862 . S
C335 C95 1.000 1_556 S
C347 C86 0.929 . S
C362 C130 4.862 . S
C374 C139 4.858 . S
C389 C49 1.414 . S
C401 C18 1.448 1_565 S
C416 C9 1.432 1_545 S
C428 C58 1.414 . S
C443 C129 1.472 . S
C455 C98 1.442 . S
C470 C138 1.462 . S
C482 C89 1.415 . S
