# Generated by pormake.
# Topology lhb, (8)-cn, num edge types: 1
# Building blocks:
#     Node 0, Type 0, BuildingBlock: VETTIZ_charged_sbu_0, # of connection points: 8
#     Node 1, Type 0, BuildingBlock: VETTIZ_charged_sbu_0, # of connection points: 8
#     Node 2, Type 0, BuildingBlock: VETTIZ_charged_sbu_0, # of connection points: 8
#     Node 3, Type 0, BuildingBlock: VETTIZ_charged_sbu_0, # of connection points: 8
#     Node 4, Type 0, BuildingBlock: VETTIZ_charged_sbu_0, # of connection points: 8
#     Node 5, Type 0, BuildingBlock: VETTIZ_charged_sbu_0, # of connection points: 8
#     Node 6, Type 0, BuildingBlock: VETTIZ_charged_sbu_0, # of connection points: 8
#     Node 7, Type 0, BuildingBlock: VETTIZ_charged_sbu_0, # of connection points: 8
#     Edge 8, Type (0, 0), BuildingBlock: OJICUG_clean_linker_0, # of connection points: 2
#     Edge 9, Type (0, 0), BuildingBlock: OJICUG_clean_linker_0, # of connection points: 2
#     Edge 10, Type (0, 0), BuildingBlock: OJICUG_clean_linker_0, # of connection points: 2
#     Edge 11, Type (0, 0), BuildingBlock: OJICUG_clean_linker_0, # of connection points: 2
#     Edge 12, Type (0, 0), BuildingBlock: OJICUG_clean_linker_0, # of connection points: 2
#     Edge 13, Type (0, 0), BuildingBlock: OJICUG_clean_linker_0, # of connection points: 2
#     Edge 14, Type (0, 0), BuildingBlock: OJICUG_clean_linker_0, # of connection points: 2
#     Edge 15, Type (0, 0), BuildingBlock: OJICUG_clean_linker_0, # of connection points: 2
#     Edge 16, Type (0, 0), BuildingBlock: OJICUG_clean_linker_0, # of connection points: 2
#     Edge 17, Type (0, 0), BuildingBlock: OJICUG_clean_linker_0, # of connection points: 2
#     Edge 18, Type (0, 0), BuildingBlock: OJICUG_clean_linker_0, # of connection points: 2
#     Edge 19, Type (0, 0), BuildingBlock: OJICUG_clean_linker_0, # of connection points: 2
#     Edge 20, Type (0, 0), BuildingBlock: OJICUG_clean_linker_0, # of connection points: 2
#     Edge 21, Type (0, 0), BuildingBlock: OJICUG_clean_linker_0, # of connection points: 2
#     Edge 22, Type (0, 0), BuildingBlock: OJICUG_clean_linker_0, # of connection points: 2
#     Edge 23, Type (0, 0), BuildingBlock: OJICUG_clean_linker_0, # of connection points: 2
#     Edge 24, Type (0, 0), BuildingBlock: OJICUG_clean_linker_0, # of connection points: 2
#     Edge 25, Type (0, 0), BuildingBlock: OJICUG_clean_linker_0, # of connection points: 2
#     Edge 26, Type (0, 0), BuildingBlock: OJICUG_clean_linker_0, # of connection points: 2
#     Edge 27, Type (0, 0), BuildingBlock: OJICUG_clean_linker_0, # of connection points: 2
#     Edge 28, Type (0, 0), BuildingBlock: OJICUG_clean_linker_0, # of connection points: 2
#     Edge 29, Type (0, 0), BuildingBlock: OJICUG_clean_linker_0, # of connection points: 2
#     Edge 30, Type (0, 0), BuildingBlock: OJICUG_clean_linker_0, # of connection points: 2
#     Edge 31, Type (0, 0), BuildingBlock: OJICUG_clean_linker_0, # of connection points: 2
#     Edge 32, Type (0, 0), BuildingBlock: OJICUG_clean_linker_0, # of connection points: 2
#     Edge 33, Type (0, 0), BuildingBlock: OJICUG_clean_linker_0, # of connection points: 2
#     Edge 34, Type (0, 0), BuildingBlock: OJICUG_clean_linker_0, # of connection points: 2
#     Edge 35, Type (0, 0), BuildingBlock: OJICUG_clean_linker_0, # of connection points: 2
#     Edge 36, Type (0, 0), BuildingBlock: OJICUG_clean_linker_0, # of connection points: 2
#     Edge 37, Type (0, 0), BuildingBlock: OJICUG_clean_linker_0, # of connection points: 2
#     Edge 38, Type (0, 0), BuildingBlock: OJICUG_clean_linker_0, # of connection points: 2
#     Edge 39, Type (0, 0), BuildingBlock: OJICUG_clean_linker_0, # of connection points: 2
# Relax obj value: 0.196
# Max RMSD: 0.257
# Mean RMSD: 0.257
data_MOF--net-lhb--node1-VETTIZ_charged_sbu_0--edge1-OJICUG_clean_linker_0
_symmetry_space_group_name_H-M    P1
_symmetry_Int_Tables_number       1
_symmetry_cell_setting            triclinic
loop_
_symmetry_equiv_pos_as_xyz
'x, y, z'
_cell_length_a     23.884997
_cell_length_b     12.285976
_cell_length_c     38.37172
_cell_angle_alpha  90.193138
_cell_angle_beta   89.941128
_cell_angle_gamma 90.125375
loop_
_atom_site_label
_atom_site_type_symbol
_atom_site_fract_x
_atom_site_fract_y
_atom_site_fract_z
_atom_type_partial_charge
Fe0 Fe 0.94977 0.79725 1.00936 0.0
O1 O 0.96631 0.87919 1.05264 0.0
Fe2 Fe 0.03795 0.97802 1.051 0.0
Fe3 Fe 0.98125 0.80649 0.09847 0.0
O4 O 0.96965 0.88512 1.05005 0.0
O5 O 0.04933 0.91283 0.09808 0.0
O6 O 0.04731 0.90557 0.10003 0.0
Fe7 Fe 0.06279 -0.00349 0.14117 0.0
C8 C 0.86789 0.73359 1.06547 0.0
O9 O 0.96889 0.64817 1.03093 0.0
O10 O 0.02722 0.68937 1.07386 0.0
O11 O 0.13517 0.03671 0.11573 0.0
O12 O 0.11119 0.06721 1.05838 0.0
O13 O 0.08607 0.85315 1.0297 0.0
O14 O 0.02865 0.80208 0.9873 0.0
O15 O 0.01158 0.74292 0.1477 0.0
O16 O 0.08936 0.85095 0.15753 0.0
C17 C 0.07575 0.7958 1.00267 0.0
O18 O 0.03246 0.14082 0.12206 0.0
O19 O 0.9913 0.10226 1.07136 0.0
O20 O 0.87603 0.77914 1.03535 0.0
O21 O 0.90617 0.71914 0.08956 0.0
C22 C 0.00327 0.61949 1.05451 0.0
C23 C 0.05952 0.76518 0.16333 0.0
C24 C 0.93942 0.93178 0.15635 0.0
O25 O 0.9327 0.91874 0.12387 0.0
O26 O 0.98788 0.9576 0.16761 0.0
C27 C 0.14562 0.07065 0.08455 0.0
O28 O 0.01597 0.04139 1.00176 0.0
O29 O 0.93476 0.95017 0.98813 0.0
C30 C 0.00473 0.16898 0.09529 0.0
C31 C 0.96807 0.03349 0.98577 0.0
Fe32 Fe 0.15771 0.21908 0.26221 0.0
O33 O 0.17747 0.13912 0.30419 0.0
Fe34 Fe 0.18898 0.22237 0.35146 0.0
Fe35 Fe 0.24298 0.03969 0.3068 0.0
O36 O 0.17452 0.14544 0.30639 0.0
O37 O 0.25426 0.12075 0.35489 0.0
O38 O 0.25659 0.1126 0.35289 0.0
Fe39 Fe 0.26564 0.02836 0.39674 0.0
C40 C 0.16709 0.97285 0.24662 0.0
O41 O 0.23549 0.20126 0.23892 0.0
O42 O 0.29422 0.15442 0.28143 0.0
O43 O 0.29022 0.17239 0.41585 0.0
O44 O 0.21887 0.2908 0.40037 0.0
O45 O 0.23641 0.33564 0.32599 0.0
O46 O 0.18093 0.37224 0.28108 0.0
O47 O 0.31473 0.94612 0.31649 0.0
O48 O 0.33966 -0.01109 0.37309 0.0
C49 C 0.21407 0.40353 0.30532 0.0
O50 O 0.18937 0.06877 0.4208 0.0
O51 O 0.13892 0.11207 0.37591 0.0
O52 O 0.13783 0.06197 0.24561 0.0
O53 O 0.21729 0.96697 0.25968 0.0
C54 C 0.28423 0.20162 0.25236 0.0
C55 C 0.3501 0.95007 0.34238 0.0
C56 C 0.2093 0.85429 0.3506 0.0
O57 O 0.19221 0.92503 0.32929 0.0
O58 O 0.23838 0.8816 0.37684 0.0
C59 C 0.26363 0.26335 0.41848 0.0
O60 O 0.11484 0.31222 0.34167 0.0
O61 O 0.08453 0.24777 0.28804 0.0
C62 C 0.14314 0.10276 0.40846 0.0
C63 C 0.07658 0.29711 0.31758 0.0
Fe64 Fe 0.65288 0.72399 0.26171 0.0
O65 O 0.67618 0.64445 0.30297 0.0
Fe66 Fe 0.68899 0.72686 0.35017 0.0
Fe67 Fe 0.74275 0.54754 0.30388 0.0
O68 O 0.67328 0.65052 0.30521 0.0
O69 O 0.7554 0.62784 0.35203 0.0
O70 O 0.75831 0.62064 0.34975 0.0
Fe71 Fe 0.76953 0.53628 0.39355 0.0
C72 C 0.66257 0.47821 0.24618 0.0
O73 O 0.72843 0.70626 0.23624 0.0
O74 O 0.79117 0.66455 0.27691 0.0
O75 O 0.79376 0.68128 0.41231 0.0
O76 O 0.71964 0.79514 0.39876 0.0
O77 O 0.73438 0.84206 0.32426 0.0
O78 O 0.67689 0.8777 0.28013 0.0
O79 O 0.81633 0.45633 0.31213 0.0
O80 O 0.84271 0.49895 0.36854 0.0
C81 C 0.71114 0.90938 0.30378 0.0
O82 O 0.69379 0.57409 0.41904 0.0
O83 O 0.64073 0.61442 0.37505 0.0
O84 O 0.63281 0.56676 0.24574 0.0
O85 O 0.71397 0.47388 0.25754 0.0
C86 C 0.77832 0.70952 0.24783 0.0
C87 C 0.85254 0.46064 0.33766 0.0
C88 C 0.71248 0.36092 0.34837 0.0
O89 O 0.69415 0.43147 0.32744 0.0
O90 O 0.74267 0.38847 0.37409 0.0
C91 C 0.76566 0.77023 0.41591 0.0
O92 O 0.61401 0.81479 0.34231 0.0
O93 O 0.58148 0.75047 0.28929 0.0
C94 C 0.64634 0.60452 0.40749 0.0
C95 C 0.57463 0.79819 0.31914 0.0
Fe96 Fe 0.96045 0.50183 0.55044 0.0
O97 O 0.948 0.56856 0.59728 0.0
Fe98 Fe 0.04635 0.68481 0.50846 0.0
Fe99 Fe 0.93519 0.48647 0.64051 0.0
O100 O 0.02755 0.59824 0.54949 0.0
O101 O 0.03095 0.60497 0.55217 0.0
O102 O 0.95003 0.57598 0.59921 0.0
Fe103 Fe 0.01429 0.67967 0.59771 0.0
C104 C 0.85378 0.40477 0.58402 0.0
O105 O 0.00842 0.38054 0.57117 0.0
O106 O 0.96777 0.34262 0.62201 0.0
O107 O 0.08811 0.77115 0.58866 0.0
O108 O 0.11939 0.70973 0.53457 0.0
O109 O 0.06396 0.53127 0.48785 0.0
O110 O 0.98354 0.43752 0.50137 0.0
O111 O 0.00931 0.53219 0.66694 0.0
O112 O 0.06555 0.57357 0.62381 0.0
C113 C 0.03156 0.44646 0.48555 0.0
O114 O 0.9668 0.79289 0.57249 0.0
O115 O 0.02471 0.83389 0.52934 0.0
O116 O 0.88824 0.4092 0.55783 0.0
O117 O 0.86382 0.44049 0.61509 0.0
C118 C 0.99502 0.31386 0.59501 0.0
C119 C 0.058 0.55845 0.65608 0.0
C120 C 0.93413 0.71636 0.66275 0.0
O121 O 0.90521 0.63041 0.65595 0.0
O122 O 0.98134 0.74247 0.64678 0.0
C123 C 0.12651 0.75807 0.56445 0.0
O124 O 0.96788 0.67355 0.48628 0.0
O125 O 0.91092 0.62372 0.52893 0.0
C126 C 0.99029 0.86277 0.55298 0.0
C127 C 0.92089 0.68024 0.50179 0.0
Fe128 Fe 0.25772 0.92739 0.80519 0.0
O129 O 0.32336 0.82787 0.80436 0.0
Fe130 Fe 0.22923 0.93784 0.89472 0.0
Fe131 Fe 0.34778 0.74631 0.7635 0.0
O132 O 0.24068 0.85356 0.85066 0.0
O133 O 0.24351 0.84585 0.85302 0.0
O134 O 0.3261 0.82156 0.80659 0.0
Fe135 Fe 0.30983 0.74641 0.8515 0.0
C136 C 0.22202 0.7623 0.74917 0.0
O137 O 0.2875 0.00048 0.75934 0.0
O138 O 0.36727 0.90344 0.7469 0.0
O139 O 0.35769 0.85924 0.87664 0.0
O140 O 0.30432 0.89837 0.92063 0.0
O141 O 0.25724 0.08516 0.87587 0.0
O142 O 0.30688 0.04089 0.8297 0.0
O143 O 0.41876 0.72415 0.79148 0.0
O144 O 0.38511 0.65876 0.84401 0.0
C145 C 0.28828 0.11203 0.8505 0.0
O146 O 0.27819 0.679 0.89991 0.0
O147 O 0.20387 0.79327 0.91294 0.0
O148 O 0.20903 0.81436 0.77713 0.0
O149 O 0.27217 0.7572 0.73806 0.0
C150 C 0.33846 -0.00677 0.74746 0.0
C151 C 0.42502 0.67635 0.82125 0.0
C152 C 0.28948 0.56217 0.80549 0.0
O153 O 0.32474 0.59313 0.78238 0.0
O154 O 0.26509 0.63038 0.82532 0.0
C155 C 0.35187 0.86803 0.90911 0.0
O156 O 0.15677 0.97698 0.86934 0.0
O157 O 0.18459 0.02062 0.81336 0.0
C158 C 0.23174 0.70422 0.91669 0.0
C159 C 0.14772 0.01606 0.83856 0.0
Fe160 Fe 0.75506 0.42882 0.80669 0.0
O161 O 0.82106 0.33061 0.80388 0.0
Fe162 Fe 0.73324 0.44317 0.8967 0.0
Fe163 Fe 0.84095 0.24968 0.76196 0.0
O164 O 0.74233 0.35743 0.85297 0.0
O165 O 0.74474 0.3496 0.85497 0.0
O166 O 0.82418 0.32465 0.80612 0.0
Fe167 Fe 0.81045 0.24907 0.85135 0.0
C168 C 0.71415 0.26469 0.7526 0.0
O169 O 0.77944 0.50014 0.75931 0.0
O170 O 0.85943 0.40675 0.74496 0.0
O171 O 0.86035 0.36085 0.87548 0.0
O172 O 0.80982 0.40539 0.9204 0.0
O173 O 0.75978 0.58945 0.87645 0.0
O174 O 0.80565 0.54504 0.82869 0.0
O175 O 0.91469 0.22327 0.78754 0.0
O176 O 0.88483 0.16013 0.84132 0.0
C177 C 0.78876 0.61611 0.85012 0.0
O178 O 0.78128 0.18179 0.90049 0.0
O179 O 0.70952 0.2995 0.91615 0.0
O180 O 0.70409 0.31251 0.78168 0.0
O181 O 0.76287 0.26497 0.73906 0.0
C182 C 0.82941 0.49503 0.74589 0.0
C183 C 0.92297 0.17504 0.81713 0.0
C184 C 0.78555 0.06614 0.80547 0.0
O185 O 0.81865 0.0969 0.78117 0.0
O186 O 0.76324 0.13436 0.82622 0.0
C187 C 0.85619 0.372 0.908 0.0
O188 O 0.65888 0.48035 0.87344 0.0
O189 O 0.68319 0.52172 0.81669 0.0
C190 C 0.73656 0.20912 0.91878 0.0
C191 C 0.64818 0.51845 0.84279 0.0
Fe192 Fe 0.46041 -0.0035 0.5521 0.0
O193 O 0.44949 0.06454 0.59888 0.0
Fe194 Fe 0.54781 0.17635 0.50943 0.0
Fe195 Fe 0.43465 0.9832 0.64204 0.0
O196 O 0.52874 0.08986 0.55054 0.0
O197 O 0.53234 0.09596 0.55321 0.0
O198 O 0.45181 0.07158 0.6009 0.0
Fe199 Fe 0.51783 0.17105 0.59898 0.0
C200 C 0.35145 0.90903 0.58608 0.0
O201 O 0.50716 0.87412 0.57316 0.0
O202 O 0.46344 0.83619 0.62303 0.0
O203 O 0.59285 0.25838 0.58897 0.0
O204 O 0.62208 0.19726 0.53448 0.0
O205 O 0.56321 0.02236 0.48855 0.0
O206 O 0.48281 0.92965 0.50305 0.0
O207 O 0.50978 0.01892 0.66834 0.0
O208 O 0.56658 0.06192 0.62548 0.0
C209 C 0.53062 0.93772 0.48682 0.0
O210 O 0.4711 0.28597 0.57417 0.0
O211 O 0.52848 0.32675 0.53078 0.0
O212 O 0.38667 0.90782 0.56016 0.0
O213 O 0.36192 0.94603 0.61689 0.0
C214 C 0.49206 0.80725 0.59654 0.0
C215 C 0.55835 0.04684 0.65785 0.0
C216 C 0.44134 0.21423 0.66457 0.0
O217 O 0.40956 0.13185 0.65769 0.0
O218 O 0.48866 0.2359 0.64826 0.0
C219 C 0.63042 0.24478 0.56432 0.0
O220 O 0.46872 0.16945 0.48775 0.0
O221 O 0.41185 0.11977 0.53048 0.0
C222 C 0.49451 0.35576 0.5547 0.0
C223 C 0.42173 0.17605 0.50328 0.0
Fe224 Fe 0.45177 0.29281 1.00937 0.0
O225 O 0.46655 0.37332 1.05339 0.0
Fe226 Fe 0.53751 0.47543 1.05248 0.0
Fe227 Fe 0.48175 0.29838 0.09893 0.0
O228 O 0.47007 0.37961 1.05072 0.0
O229 O 0.54901 0.40741 0.09905 0.0
O230 O 0.54693 0.39993 0.10102 0.0
Fe231 Fe 0.56322 0.48916 0.14233 0.0
C232 C 0.36973 0.22225 1.0643 0.0
O233 O 0.472 0.14274 1.03032 0.0
O234 O 0.52916 0.1846 1.0737 0.0
O235 O 0.63563 0.52817 0.11716 0.0
O236 O 0.61028 0.5669 1.0607 0.0
O237 O 0.58721 0.35384 1.03055 0.0
O238 O 0.53092 0.30193 0.98776 0.0
O239 O 0.51163 0.23402 0.14795 0.0
O240 O 0.58947 0.34157 0.15774 0.0
C241 C 0.57785 0.29674 1.00335 0.0
O242 O 0.5336 0.63558 0.12358 0.0
O243 O 0.48966 0.59615 1.07394 0.0
O244 O 0.37764 0.26944 1.03445 0.0
O245 O 0.40739 0.20935 0.08885 0.0
C246 C 0.50591 0.11422 1.05422 0.0
C247 C 0.5588 0.25741 0.16419 0.0
C248 C 0.44024 0.42085 0.15823 0.0
O249 O 0.43216 0.40578 0.12583 0.0
O250 O 0.48844 0.45102 0.16872 0.0
C251 C 0.64566 0.56606 0.08647 0.0
O252 O 0.51474 0.54179 1.00363 0.0
O253 O 0.4352 0.44667 0.98885 0.0
C254 C 0.50501 0.66393 0.09711 0.0
C255 C 0.4671 0.53235 0.98733 0.0
C256 C 0.13534 0.70507 0.19984 0.0
C257 C 0.0765 0.71682 0.19692 0.0
H258 H 0.21169 0.78964 0.2138 0.0
C259 C 0.05095 0.77252 0.22461 0.0
H260 H 0.15718 0.6518 0.18188 0.0
C261 C 0.08069 0.85695 0.24117 0.0
C262 C 0.13851 0.87096 0.23482 0.0
H263 H 0.00597 0.7698 0.22728 0.0
H264 H 0.05808 0.91399 0.25751 0.0
C265 C 0.16667 0.78687 0.21705 0.0
C266 C 0.84775 0.83487 0.1676 0.0
C267 C 0.8965 0.88425 0.18092 0.0
H268 H 0.77408 0.74077 0.17759 0.0
C269 C 0.9059 0.87668 0.21721 0.0
H270 H 0.83832 0.83889 0.14004 0.0
C271 C 0.86916 0.81722 0.23904 0.0
C272 C 0.82109 0.76607 0.22533 0.0
H273 H 0.9422 0.91543 0.22873 0.0
H274 H 0.87784 0.81302 0.2667 0.0
C275 C 0.81083 0.77744 0.18931 0.0
C276 C 0.10119 0.2956 0.4814 0.0
C277 C 0.05448 0.34901 0.46735 0.0
H278 H 0.16145 0.16775 0.47584 0.0
C279 C 0.03192 0.30998 0.43591 0.0
H280 H 0.11902 0.32289 0.50588 0.0
C281 C 0.0585 0.22485 0.41755 0.0
C282 C 0.10703 0.17437 0.43091 0.0
H283 H 0.99539 0.34855 0.42479 0.0
H284 H 0.04219 0.20116 0.39231 0.0
C285 C 0.12578 0.2071 0.46406 0.0
C286 C 0.84495 0.86687 0.43855 0.0
C287 C 0.78901 0.83586 0.44469 0.0
H288 H 0.93108 0.8314 0.44945 0.0
C289 C 0.77727 0.79263 0.47788 0.0
H290 H 0.85583 0.90672 0.4143 0.0
C291 C 0.82015 0.74441 0.49763 0.0
C292 C 0.87599 0.74914 0.486 0.0
H293 H 0.73449 0.77731 0.48541 0.0
H294 H 0.80904 0.69727 0.52042 0.0
C295 C 0.88829 0.8194 0.458 0.0
C296 C 0.08965 0.71055 0.6962 0.0
C297 C 0.09937 0.60718 0.6812 0.0
H298 H 0.11852 0.83812 0.73036 0.0
C299 C 0.15019 0.55547 0.68902 0.0
H300 H 0.05329 0.75703 0.68936 0.0
C301 C 0.18933 0.60511 0.71161 0.0
C302 C 0.17831 0.70699 0.72745 0.0
H303 H 0.15991 0.47726 0.67742 0.0
H304 H 0.22845 0.56368 0.71672 0.0
C305 C 0.12767 0.75844 0.71962 0.0
C306 C 0.82832 0.68316 0.71785 0.0
C307 C 0.85722 0.59757 0.73419 0.0
H308 H 0.83617 0.82239 0.68454 0.0
C309 C 0.91502 0.61142 0.7399 0.0
H310 H 0.7832 0.68033 0.71525 0.0
C311 C 0.94409 0.69742 0.72408 0.0
C312 C 0.91772 0.75746 0.69764 0.0
H313 H 0.93823 0.55323 0.75532 0.0
H314 H 0.98891 0.69818 0.72673 0.0
C315 C 0.85886 0.76748 0.70142 0.0
C316 C 0.21923 0.68222 0.97859 0.0
C317 C 0.20763 0.63918 0.94528 0.0
H318 H 0.18742 0.77751 1.02137 0.0
C319 C 0.15164 0.60891 0.93894 0.0
H320 H 0.26197 0.69696 0.98625 0.0
C321 C 0.10828 0.65655 0.95851 0.0
C322 C 0.12055 0.72644 0.98674 0.0
H323 H 0.14081 0.56943 0.91456 0.0
H324 H 0.06552 0.64505 0.94986 0.0
C325 C 0.17633 0.73064 0.99843 0.0
C326 C 0.94149 0.25219 0.91735 0.0
C327 C 0.89285 0.30286 0.93065 0.0
H328 H 0.00476 0.12911 0.92486 0.0
C329 C 0.87433 0.27211 0.964 0.0
H330 H 0.95756 0.27439 0.89195 0.0
C331 C 0.89919 0.18498 0.9816 0.0
C332 C 0.94589 0.13106 0.96761 0.0
H333 H 0.83844 0.31142 0.97568 0.0
H334 H 0.88127 0.15854 1.00611 0.0
C335 C 0.96831 0.16835 0.93597 0.0
C336 C 0.65186 0.26226 0.7002 0.0
C337 C 0.66823 0.21389 0.73162 0.0
H338 H 0.60272 0.24979 0.65381 0.0
C339 C 0.64701 0.10946 0.73941 0.0
H340 H 0.66751 0.34219 0.6933 0.0
C341 C 0.61132 0.05413 0.71576 0.0
C342 C 0.59686 0.1014 0.68356 0.0
H343 H 0.65955 0.06912 0.76321 0.0
H344 H 0.59604 0.97369 0.72229 0.0
C345 C 0.61603 0.20771 0.67697 0.0
C346 C 0.45676 0.188 0.72464 0.0
C347 C 0.42918 0.25351 0.70017 0.0
H348 H 0.45007 0.03977 0.7539 0.0
C349 C 0.37122 0.26874 0.70621 0.0
H350 H 0.50204 0.1842 0.72462 0.0
C351 C 0.34016 0.18495 0.72239 0.0
C352 C 0.36828 0.09451 0.73642 0.0
H353 H 0.3486 0.32837 0.69103 0.0
H354 H 0.29487 0.18675 0.72134 0.0
C355 C 0.42694 0.10246 0.74036 0.0
C356 C 0.61238 0.15905 0.95914 0.0
C357 C 0.62351 0.22876 0.98761 0.0
H358 H 0.64646 0.0725 0.91553 0.0
C359 C 0.67896 0.23358 0.99989 0.0
H360 H 0.56991 0.14701 0.95001 0.0
C361 C 0.72267 0.18592 0.9805 0.0
C362 C 0.71223 0.14284 0.94701 0.0
H363 H 0.68921 0.28035 1.02301 0.0
H364 H 0.76514 0.20193 0.98861 0.0
C365 C 0.6565 0.11197 0.94005 0.0
C366 C 0.46591 0.66812 0.93762 0.0
C367 C 0.44384 0.62969 0.96923 0.0
H368 H 0.4545 0.77421 0.89369 0.0
C369 C 0.39652 0.68221 0.98312 0.0
H370 H 0.50287 0.63054 0.92659 0.0
C371 C 0.37076 0.7685 0.9654 0.0
C372 C 0.38894 0.79979 0.93203 0.0
H373 H 0.37892 0.65547 1.00768 0.0
H374 H 0.33474 0.80727 0.97708 0.0
C375 C 0.43831 0.75106 0.91897 0.0
C376 C 0.54518 0.27992 0.22459 0.0
C377 C 0.57233 0.21625 0.19928 0.0
H378 H 0.55186 0.42734 0.25457 0.0
C379 C 0.63062 0.20234 0.20439 0.0
H380 H 0.49987 0.28277 0.22519 0.0
C381 C 0.66169 0.28647 0.22057 0.0
C382 C 0.63342 0.37556 0.23555 0.0
H383 H 0.6531 0.1439 0.18851 0.0
H384 H 0.70693 0.2862 0.21873 0.0
C385 C 0.57497 0.36568 0.24037 0.0
C386 C 0.34618 0.205 0.19968 0.0
C387 C 0.3302 0.25243 0.23146 0.0
H388 H 0.39517 0.21817 0.15325 0.0
C389 C 0.35212 0.35602 0.23985 0.0
H390 H 0.33004 0.1257 0.19232 0.0
C391 C 0.38793 0.41163 0.21641 0.0
C392 C 0.40196 0.36544 0.18386 0.0
H393 H 0.33997 0.39561 0.26396 0.0
H394 H 0.40361 0.49155 0.22338 0.0
C395 C 0.38228 0.25966 0.17672 0.0
C396 C 0.53166 0.80236 0.43676 0.0
C397 C 0.55343 0.83989 0.4686 0.0
H398 H 0.54369 0.69787 0.39227 0.0
C399 C 0.6006 0.78708 0.48237 0.0
H400 H 0.49489 0.84042 0.42579 0.0
C401 C 0.62662 0.70147 0.46429 0.0
C402 C 0.6088 0.67119 0.43071 0.0
H403 H 0.61809 0.81349 0.50704 0.0
H404 H 0.66274 0.66288 0.47581 0.0
C405 C 0.5595 0.72008 0.41776 0.0
C406 C 0.38816 0.31237 0.4587 0.0
C407 C 0.37655 0.24439 0.48739 0.0
H408 H 0.35471 0.39726 0.41481 0.0
C409 C 0.32105 0.24138 0.49969 0.0
H410 H 0.43071 0.32298 0.44952 0.0
C411 C 0.27769 0.28903 0.48017 0.0
C412 C 0.28845 0.33017 0.44655 0.0
H413 H 0.31047 0.19604 0.52295 0.0
H414 H 0.23513 0.27468 0.48839 0.0
C415 C 0.34437 0.35936 0.43946 0.0
C416 C 0.97131 0.42724 1.04705 0.0
C417 C 0.00421 0.50401 1.06501 0.0
H418 H 0.94362 0.26246 1.04367 0.0
C419 C 0.03323 0.47127 0.09505 0.0
H420 H 0.94759 0.44985 1.02415 0.0
C421 C 0.03036 0.36353 0.10638 0.0
C422 C 0.99856 0.28621 0.08785 0.0
H423 H 0.05823 0.52872 0.10986 0.0
H424 H 0.05475 0.34024 0.12894 0.0
C425 C 0.96839 0.31989 1.05845 0.0
C426 C 0.17945 0.59595 0.29909 0.0
C427 C 0.21511 0.52051 0.31537 0.0
H428 H 0.1477 0.75891 0.29846 0.0
C429 C 0.24664 0.55515 0.34433 0.0
H430 H 0.15374 0.57199 0.27712 0.0
C431 C 0.24268 0.662 0.35666 0.0
C432 C 0.20722 0.73759 0.34035 0.0
H433 H 0.27409 0.49934 0.35784 0.0
H434 H 0.26845 0.68576 0.37863 0.0
C435 C 0.17549 0.70301 0.31151 0.0
C436 C 0.74886 0.06174 0.3406 0.0
C437 C 0.71362 0.02666 0.31339 0.0
H438 H 0.77521 0.19295 0.37344 0.0
C439 C 0.67604 0.10193 0.29882 0.0
H440 H 0.77796 0.00607 0.35278 0.0
C441 C 0.6738 0.20926 0.31122 0.0
C442 C 0.70921 0.24418 0.33832 0.0
H443 H 0.64744 0.07754 0.27833 0.0
H444 H 0.64433 0.26503 0.29959 0.0
C445 C 0.74663 0.16882 0.35291 0.0
C446 C 0.96454 0.01162 0.59497 0.0
C447 C 0.99025 0.9785 0.56372 0.0
H448 H 0.94745 0.14282 0.63014 0.0
C449 C 0.02153 0.05502 0.54466 0.0
H450 H 0.94092 0.95441 0.61063 0.0
C451 C 0.02628 0.16219 0.55626 0.0
C452 C -0.00038 0.19627 0.58702 0.0
H453 H 0.04264 0.03232 0.52072 0.0
H454 H 0.04962 0.21923 0.54057 0.0
C455 C 0.96924 0.1193 0.60653 0.0
C456 C 0.25485 0.30465 0.85538 0.0
C457 C 0.29175 0.22853 0.84045 0.0
H458 H 0.22386 0.46763 0.85545 0.0
C459 C 0.32671 0.26243 0.81303 0.0
H460 H 0.22668 0.28136 0.87621 0.0
C461 C 0.32445 0.36944 0.80061 0.0
C462 C 0.28729 0.44539 0.81545 0.0
H463 H 0.35572 0.20605 0.80108 0.0
H464 H 0.35258 0.39297 0.77978 0.0
C465 C 0.25258 0.41141 0.84303 0.0
C466 C 0.82347 0.76663 0.8114 0.0
C467 C 0.79121 0.73259 0.84004 0.0
H468 H 0.84603 0.89722 0.77731 0.0
C469 C 0.75566 0.80851 0.8563 0.0
H470 H 0.85137 0.71041 0.79842 0.0
C471 C 0.75211 0.91525 0.84411 0.0
C472 C 0.78417 0.94937 0.81535 0.0
H473 H 0.72949 0.78509 0.87811 0.0
H474 H 0.72456 0.97137 0.85756 0.0
C475 C 0.81992 0.87359 0.79912 0.0
C476 C 0.46577 0.61237 0.60676 0.0
C477 C 0.49789 0.68983 0.58864 0.0
H478 H 0.43818 0.44693 0.60976 0.0
C479 C 0.52866 0.6561 0.55933 0.0
H480 H 0.44094 0.63563 0.6292 0.0
C481 C 0.52622 0.54855 0.54772 0.0
C482 C 0.49317 0.47156 0.56534 0.0
H483 H 0.55368 0.71357 0.54481 0.0
H484 H 0.55049 0.52593 0.52497 0.0
C485 C 0.46339 0.50446 0.59521 0.0
C486 C 0.47028 0.81441 1.05922 0.0
C487 C 0.50015 0.78125 0.08885 0.0
H488 H 0.44991 0.94357 1.02441 0.0
C489 C 0.5324 0.85887 0.10696 0.0
H490 H 0.44525 0.75685 1.04465 0.0
C491 C 0.53566 0.9663 0.09518 0.0
C492 C 0.50666 -0.00137 1.06505 0.0
H493 H 0.55662 0.83609 0.12963 0.0
H494 H 0.56087 0.02394 0.10977 0.0
C495 C 0.47358 0.92145 1.04738 0.0
C496 C 0.28816 0.18674 0.10265 0.0
C497 C 0.31325 0.17981 1.06984 0.0
H498 H 0.21468 0.15974 0.13293 0.0
C499 C 0.28227 0.14017 1.04133 0.0
H500 H 0.31022 0.22134 0.12448 0.0
C501 C 0.22697 0.10708 1.04576 0.0
C502 C 0.20215 0.11287 1.07879 0.0
H503 H 0.30086 0.13456 1.01562 0.0
H504 H 0.20417 0.07501 1.02358 0.0
C505 C 0.23311 0.15321 0.10719 0.0
C506 C 0.79786 0.6336 0.10161 0.0
C507 C 0.81088 0.69232 1.07149 0.0
H508 H 0.73547 0.54762 0.12997 0.0
C509 C 0.76887 0.71022 1.04635 0.0
H510 H 0.82919 0.61817 0.12137 0.0
C511 C 0.71514 0.6693 1.05107 0.0
C512 C 0.70219 0.61028 0.08112 0.0
H513 H 0.77728 0.75565 1.02277 0.0
H514 H 0.68385 0.68431 1.03125 0.0
C515 C 0.744 0.59321 0.10643 0.0
C516 C 0.0076 0.41222 0.35022 0.0
C517 C 0.01944 0.33968 0.32303 0.0
H518 H 0.94567 0.50758 0.37607 0.0
C519 C 0.97594 0.30858 0.30013 0.0
H520 H 0.04017 0.43896 0.36793 0.0
C521 C 0.92184 0.34868 0.30445 0.0
C522 C 0.90988 0.41997 0.33193 0.0
H523 H 0.98339 0.25247 0.27881 0.0
H524 H 0.88933 0.3225 0.2866 0.0
C525 C 0.95335 0.4516 0.35473 0.0
C526 C 0.25801 0.85328 0.6092 0.0
C527 C 0.29416 0.86878 0.58051 0.0
H528 H 0.17624 0.8068 0.62666 0.0
C529 C 0.27409 0.85063 0.54676 0.0
H530 H 0.27224 0.86648 0.63567 0.0
C531 C 0.21906 0.81733 0.54174 0.0
C532 C 0.18307 0.801 0.57038 0.0
H533 H 0.30056 0.86325 0.52418 0.0
H534 H 0.20482 0.80428 0.51525 0.0
C535 C 0.20286 0.8199 0.60416 0.0
C536 C 0.77496 0.35176 0.54493 0.0
C537 C 0.79764 0.35951 0.57849 0.0
H538 H 0.7033 0.31173 0.51429 0.0
C539 C 0.76478 0.32997 0.60742 0.0
H540 H 0.79907 0.37518 0.52222 0.0
C541 C 0.71003 0.29462 0.60291 0.0
C542 C 0.68711 0.28762 0.56953 0.0
H543 H 0.78127 0.33407 0.63369 0.0
H544 H 0.68633 0.27062 0.62546 0.0
C545 C 0.72006 0.31614 0.54049 0.0
C546 C 0.02389 0.16358 0.79972 0.0
C547 C 0.98033 0.13363 0.82272 0.0
H548 H 0.11077 0.15005 0.78651 0.0
C549 C 0.99231 0.06359 0.85039 0.0
H550 H 0.01629 0.21765 0.77801 0.0
C551 C 0.0467 0.02568 0.8553 0.0
C552 C 0.09032 0.05623 0.83246 0.0
H553 H 0.95975 0.03768 0.8682 0.0
H554 H 0.05432 0.97158 0.87701 0.0
C555 C 0.07823 0.12494 0.80447 0.0
C556 C 0.58069 0.63775 0.81214 0.0
C557 C 0.59132 0.55991 0.8377 0.0
H558 H 0.52017 0.73787 0.78769 0.0
C559 C 0.54708 0.5219 0.85878 0.0
H560 H 0.61409 0.66917 0.79586 0.0
C561 C 0.49277 0.56021 0.85393 0.0
C562 C 0.48213 0.63793 0.82823 0.0
H563 H 0.5542 0.46113 0.87867 0.0
H564 H 0.45923 0.52805 0.86992 0.0
C565 C 0.52675 0.67697 0.80761 0.0
C566 C 0.47304 0.79947 0.30468 0.0
C567 C 0.51727 0.83616 0.3261 0.0
H568 H 0.3857 0.80679 0.29295 0.0
C569 C 0.50586 0.90985 0.35305 0.0
H570 H 0.48015 0.74183 0.28373 0.0
C571 C 0.45125 0.94601 0.35848 0.0
C572 C 0.40729 0.90993 0.33679 0.0
H573 H 0.53903 0.94029 0.36969 0.0
H574 H 0.44369 0.00363 0.37939 0.0
C575 C 0.41873 0.83647 0.30986 0.0
loop_
_geom_bond_atom_site_label_1
_geom_bond_atom_site_label_2
_geom_bond_distance
_geom_bond_site_symmetry_2
_ccdc_geom_bond_type
Fe0 O1 1.886 1_556 S
Fe0 O4 1.715 . S
Fe0 O9 2.077 . S
Fe0 O14 1.935 1_655 S
Fe0 O20 2.077 . S
Fe0 O29 1.935 . S
O1 Fe0 1.886 1_554 S
O1 Fe3 1.715 . S
Fe2 O4 1.886 1_445 S
Fe2 O5 1.715 . S
Fe2 O12 1.935 . S
Fe2 O13 2.077 . S
Fe2 O19 1.935 1_455 S
Fe2 O28 2.077 1_455 S
Fe3 O1 1.715 . S
Fe3 O6 1.886 1_665 S
Fe3 O10 1.935 1_655 S
Fe3 O15 2.077 1_655 S
Fe3 O21 1.935 . S
Fe3 O25 2.077 . S
O4 Fe0 1.715 . S
O4 Fe2 1.886 1_665 S
O5 Fe2 1.715 . S
O5 Fe7 1.886 1_556 S
O6 Fe3 1.886 1_445 S
O6 Fe7 1.715 . S
Fe7 O5 1.886 1_554 S
Fe7 O6 1.715 . S
Fe7 O11 2.077 . S
Fe7 O16 1.935 . S
Fe7 O18 2.077 . S
Fe7 O26 1.935 1_455 S
C8 O20 1.381 1_554 S
C8 O21 1.421 . S
O9 Fe0 2.077 . S
O9 C22 1.381 1_656 S
O10 Fe3 1.935 1_455 S
O10 C22 1.421 . S
O11 Fe7 2.077 . S
O11 C27 1.381 1_554 S
O12 Fe2 1.935 . S
O12 C27 1.421 . S
O13 Fe2 2.077 . S
O13 C17 1.381 1_545 S
O14 Fe0 1.935 1_455 S
O14 C17 1.421 . S
O15 Fe3 2.077 1_455 S
O15 C23 1.381 . S
O16 Fe7 1.935 . S
O16 C23 1.421 1_545 S
C17 O13 1.381 1_565 S
C17 O14 1.421 . S
O18 Fe7 2.077 . S
O18 C30 1.381 1_454 S
O19 Fe2 1.935 1_655 S
O19 C30 1.421 . S
O20 Fe0 2.077 . S
O20 C8 1.381 1_556 S
O21 Fe3 1.935 . S
O21 C8 1.421 . S
C22 O9 1.381 1_454 S
C22 O10 1.421 . S
C23 O15 1.381 . S
C23 O16 1.421 1_565 S
C24 O25 1.381 1_545 S
C24 O26 1.421 . S
O25 Fe3 2.077 . S
O25 C24 1.381 1_565 S
O26 Fe7 1.935 1_655 S
O26 C24 1.421 . S
C27 O11 1.381 1_556 S
C27 O12 1.421 . S
O28 Fe2 2.077 1_655 S
O28 C31 1.381 . S
O29 Fe0 1.935 . S
O29 C31 1.421 1_565 S
C30 O18 1.381 1_656 S
C30 O19 1.421 . S
C31 O28 1.381 . S
C31 O29 1.421 1_545 S
Fe32 O33 1.886 . S
Fe32 O36 1.715 . S
Fe32 O41 2.077 . S
Fe32 O46 1.935 . S
Fe32 O52 2.077 . S
Fe32 O61 1.935 . S
O33 Fe32 1.886 . S
O33 Fe35 1.715 . S
Fe34 O36 1.886 . S
Fe34 O37 1.715 . S
Fe34 O44 1.935 . S
Fe34 O45 2.077 . S
Fe34 O51 1.935 . S
Fe34 O60 2.077 . S
Fe35 O33 1.715 . S
Fe35 O38 1.886 . S
Fe35 O42 1.935 . S
Fe35 O47 2.077 . S
Fe35 O53 1.935 . S
Fe35 O57 2.077 1_545 S
O36 Fe32 1.715 . S
O36 Fe34 1.886 . S
O37 Fe34 1.715 . S
O37 Fe39 1.886 . S
O38 Fe35 1.886 . S
O38 Fe39 1.715 . S
Fe39 O37 1.886 . S
Fe39 O38 1.715 . S
Fe39 O43 2.077 . S
Fe39 O48 1.935 . S
Fe39 O50 2.077 . S
Fe39 O58 1.935 1_545 S
C40 O52 1.381 . S
C40 O53 1.421 . S
O41 Fe32 2.077 . S
O41 C54 1.381 . S
O42 Fe35 1.935 . S
O42 C54 1.421 . S
O43 Fe39 2.077 . S
O43 C59 1.381 . S
O44 Fe34 1.935 . S
O44 C59 1.421 . S
O45 Fe34 2.077 . S
O45 C49 1.381 . S
O46 Fe32 1.935 . S
O46 C49 1.421 . S
O47 Fe35 2.077 . S
O47 C55 1.381 . S
O48 Fe39 1.935 . S
O48 C55 1.421 . S
C49 O45 1.381 . S
C49 O46 1.421 . S
O50 Fe39 2.077 . S
O50 C62 1.381 . S
O51 Fe34 1.935 . S
O51 C62 1.421 . S
O52 Fe32 2.077 . S
O52 C40 1.381 . S
O53 Fe35 1.935 . S
O53 C40 1.421 . S
C54 O41 1.381 . S
C54 O42 1.421 . S
C55 O47 1.381 . S
C55 O48 1.421 . S
C56 O57 1.381 . S
C56 O58 1.421 . S
O57 Fe35 2.077 1_565 S
O57 C56 1.381 . S
O58 Fe39 1.935 1_565 S
O58 C56 1.421 . S
C59 O43 1.381 . S
C59 O44 1.421 . S
O60 Fe34 2.077 . S
O60 C63 1.381 . S
O61 Fe32 1.935 . S
O61 C63 1.421 . S
C62 O50 1.381 . S
C62 O51 1.421 . S
C63 O60 1.381 . S
C63 O61 1.421 . S
Fe64 O65 1.886 . S
Fe64 O68 1.715 . S
Fe64 O73 2.077 . S
Fe64 O78 1.935 1_565 S
Fe64 O84 2.077 . S
Fe64 O93 1.935 . S
O65 Fe64 1.886 . S
O65 Fe67 1.715 . S
Fe66 O68 1.886 . S
Fe66 O69 1.715 . S
Fe66 O76 1.935 . S
Fe66 O77 2.077 1_565 S
Fe66 O83 1.935 . S
Fe66 O92 2.077 . S
Fe67 O65 1.715 . S
Fe67 O70 1.886 . S
Fe67 O74 1.935 . S
Fe67 O79 2.077 . S
Fe67 O85 1.935 . S
Fe67 O89 2.077 . S
O68 Fe64 1.715 . S
O68 Fe66 1.886 . S
O69 Fe66 1.715 . S
O69 Fe71 1.886 . S
O70 Fe67 1.886 . S
O70 Fe71 1.715 . S
Fe71 O69 1.886 . S
Fe71 O70 1.715 . S
Fe71 O75 2.077 . S
Fe71 O80 1.935 . S
Fe71 O82 2.077 . S
Fe71 O90 1.935 . S
C72 O84 1.381 . S
C72 O85 1.421 . S
O73 Fe64 2.077 . S
O73 C86 1.381 . S
O74 Fe67 1.935 . S
O74 C86 1.421 . S
O75 Fe71 2.077 . S
O75 C91 1.381 . S
O76 Fe66 1.935 . S
O76 C91 1.421 . S
O77 Fe66 2.077 1_545 S
O77 C81 1.381 . S
O78 Fe64 1.935 1_545 S
O78 C81 1.421 . S
O79 Fe67 2.077 . S
O79 C87 1.381 . S
O80 Fe71 1.935 . S
O80 C87 1.421 . S
C81 O77 1.381 . S
C81 O78 1.421 . S
O82 Fe71 2.077 . S
O82 C94 1.381 . S
O83 Fe66 1.935 . S
O83 C94 1.421 . S
O84 Fe64 2.077 . S
O84 C72 1.381 . S
O85 Fe67 1.935 . S
O85 C72 1.421 . S
C86 O73 1.381 . S
C86 O74 1.421 . S
C87 O79 1.381 . S
C87 O80 1.421 . S
C88 O89 1.381 . S
C88 O90 1.421 . S
O89 Fe67 2.077 . S
O89 C88 1.381 . S
O90 Fe71 1.935 . S
O90 C88 1.421 . S
C91 O75 1.381 . S
C91 O76 1.421 . S
O92 Fe66 2.077 . S
O92 C95 1.381 . S
O93 Fe64 1.935 . S
O93 C95 1.421 . S
C94 O82 1.381 . S
C94 O83 1.421 . S
C95 O92 1.381 . S
C95 O93 1.421 . S
Fe96 O97 1.886 . S
Fe96 O100 1.715 . S
Fe96 O105 2.077 . S
Fe96 O110 1.935 1_655 S
Fe96 O116 2.077 . S
Fe96 O125 1.935 . S
O97 Fe96 1.886 . S
O97 Fe99 1.715 . S
Fe98 O100 1.886 1_455 S
Fe98 O101 1.715 . S
Fe98 O108 1.935 . S
Fe98 O109 2.077 . S
Fe98 O115 1.935 1_455 S
Fe98 O124 2.077 1_455 S
Fe99 O97 1.715 . S
Fe99 O102 1.886 1_655 S
Fe99 O106 1.935 1_655 S
Fe99 O111 2.077 1_655 S
Fe99 O117 1.935 . S
Fe99 O121 2.077 . S
O100 Fe96 1.715 . S
O100 Fe98 1.886 1_655 S
O101 Fe98 1.715 . S
O101 Fe103 1.886 . S
O102 Fe99 1.886 1_455 S
O102 Fe103 1.715 . S
Fe103 O101 1.886 . S
Fe103 O102 1.715 . S
Fe103 O107 2.077 . S
Fe103 O112 1.935 . S
Fe103 O114 2.077 . S
Fe103 O122 1.935 1_455 S
C104 O116 1.381 . S
C104 O117 1.421 . S
O105 Fe96 2.077 . S
O105 C118 1.381 1_655 S
O106 Fe99 1.935 1_455 S
O106 C118 1.421 . S
O107 Fe103 2.077 . S
O107 C123 1.381 . S
O108 Fe98 1.935 . S
O108 C123 1.421 . S
O109 Fe98 2.077 . S
O109 C113 1.381 . S
O110 Fe96 1.935 1_455 S
O110 C113 1.421 . S
O111 Fe99 2.077 1_455 S
O111 C119 1.381 . S
O112 Fe103 1.935 . S
O112 C119 1.421 . S
C113 O109 1.381 . S
C113 O110 1.421 . S
O114 Fe103 2.077 . S
O114 C126 1.381 1_455 S
O115 Fe98 1.935 1_655 S
O115 C126 1.421 . S
O116 Fe96 2.077 . S
O116 C104 1.381 . S
O117 Fe99 1.935 . S
O117 C104 1.421 . S
C118 O105 1.381 1_455 S
C118 O106 1.421 . S
C119 O111 1.381 . S
C119 O112 1.421 . S
C120 O121 1.381 . S
C120 O122 1.421 . S
O121 Fe99 2.077 . S
O121 C120 1.381 . S
O122 Fe103 1.935 1_655 S
O122 C120 1.421 . S
C123 O107 1.381 . S
C123 O108 1.421 . S
O124 Fe98 2.077 1_655 S
O124 C127 1.381 . S
O125 Fe96 1.935 . S
O125 C127 1.421 . S
C126 O114 1.381 1_655 S
C126 O115 1.421 . S
C127 O124 1.381 . S
C127 O125 1.421 . S
Fe128 O129 1.886 . S
Fe128 O132 1.715 . S
Fe128 O137 2.077 . S
Fe128 O142 1.935 1_565 S
Fe128 O148 2.077 . S
Fe128 O157 1.935 . S
O129 Fe128 1.886 . S
O129 Fe131 1.715 . S
Fe130 O132 1.886 . S
Fe130 O133 1.715 . S
Fe130 O140 1.935 . S
Fe130 O141 2.077 1_565 S
Fe130 O147 1.935 . S
Fe130 O156 2.077 . S
Fe131 O129 1.715 . S
Fe131 O134 1.886 . S
Fe131 O138 1.935 . S
Fe131 O143 2.077 . S
Fe131 O149 1.935 . S
Fe131 O153 2.077 . S
O132 Fe128 1.715 . S
O132 Fe130 1.886 . S
O133 Fe130 1.715 . S
O133 Fe135 1.886 . S
O134 Fe131 1.886 . S
O134 Fe135 1.715 . S
Fe135 O133 1.886 . S
Fe135 O134 1.715 . S
Fe135 O139 2.077 . S
Fe135 O144 1.935 . S
Fe135 O146 2.077 . S
Fe135 O154 1.935 . S
C136 O148 1.381 . S
C136 O149 1.421 . S
O137 Fe128 2.077 . S
O137 C150 1.381 . S
O138 Fe131 1.935 . S
O138 C150 1.421 . S
O139 Fe135 2.077 . S
O139 C155 1.381 . S
O140 Fe130 1.935 . S
O140 C155 1.421 . S
O141 Fe130 2.077 1_545 S
O141 C145 1.381 . S
O142 Fe128 1.935 1_545 S
O142 C145 1.421 . S
O143 Fe131 2.077 . S
O143 C151 1.381 . S
O144 Fe135 1.935 . S
O144 C151 1.421 . S
C145 O141 1.381 . S
C145 O142 1.421 . S
O146 Fe135 2.077 . S
O146 C158 1.381 . S
O147 Fe130 1.935 . S
O147 C158 1.421 . S
O148 Fe128 2.077 . S
O148 C136 1.381 . S
O149 Fe131 1.935 . S
O149 C136 1.421 . S
C150 O137 1.381 . S
C150 O138 1.421 . S
C151 O143 1.381 . S
C151 O144 1.421 . S
C152 O153 1.381 . S
C152 O154 1.421 . S
O153 Fe131 2.077 . S
O153 C152 1.381 . S
O154 Fe135 1.935 . S
O154 C152 1.421 . S
C155 O139 1.381 . S
C155 O140 1.421 . S
O156 Fe130 2.077 . S
O156 C159 1.381 . S
O157 Fe128 1.935 . S
O157 C159 1.421 . S
C158 O146 1.381 . S
C158 O147 1.421 . S
C159 O156 1.381 . S
C159 O157 1.421 . S
Fe160 O161 1.886 . S
Fe160 O164 1.715 . S
Fe160 O169 2.077 . S
Fe160 O174 1.935 . S
Fe160 O180 2.077 . S
Fe160 O189 1.935 . S
O161 Fe160 1.886 . S
O161 Fe163 1.715 . S
Fe162 O164 1.886 . S
Fe162 O165 1.715 . S
Fe162 O172 1.935 . S
Fe162 O173 2.077 . S
Fe162 O179 1.935 . S
Fe162 O188 2.077 . S
Fe163 O161 1.715 . S
Fe163 O166 1.886 . S
Fe163 O170 1.935 . S
Fe163 O175 2.077 . S
Fe163 O181 1.935 . S
Fe163 O185 2.077 1_545 S
O164 Fe160 1.715 . S
O164 Fe162 1.886 . S
O165 Fe162 1.715 . S
O165 Fe167 1.886 . S
O166 Fe163 1.886 . S
O166 Fe167 1.715 . S
Fe167 O165 1.886 . S
Fe167 O166 1.715 . S
Fe167 O171 2.077 . S
Fe167 O176 1.935 . S
Fe167 O178 2.077 . S
Fe167 O186 1.935 1_545 S
C168 O180 1.381 . S
C168 O181 1.421 . S
O169 Fe160 2.077 . S
O169 C182 1.381 . S
O170 Fe163 1.935 . S
O170 C182 1.421 . S
O171 Fe167 2.077 . S
O171 C187 1.381 . S
O172 Fe162 1.935 . S
O172 C187 1.421 . S
O173 Fe162 2.077 . S
O173 C177 1.381 . S
O174 Fe160 1.935 . S
O174 C177 1.421 . S
O175 Fe163 2.077 . S
O175 C183 1.381 . S
O176 Fe167 1.935 . S
O176 C183 1.421 . S
C177 O173 1.381 . S
C177 O174 1.421 . S
O178 Fe167 2.077 . S
O178 C190 1.381 . S
O179 Fe162 1.935 . S
O179 C190 1.421 . S
O180 Fe160 2.077 . S
O180 C168 1.381 . S
O181 Fe163 1.935 . S
O181 C168 1.421 . S
C182 O169 1.381 . S
C182 O170 1.421 . S
C183 O175 1.381 . S
C183 O176 1.421 . S
C184 O185 1.381 . S
C184 O186 1.421 . S
O185 Fe163 2.077 1_565 S
O185 C184 1.381 . S
O186 Fe167 1.935 1_565 S
O186 C184 1.421 . S
C187 O171 1.381 . S
C187 O172 1.421 . S
O188 Fe162 2.077 . S
O188 C191 1.381 . S
O189 Fe160 1.935 . S
O189 C191 1.421 . S
C190 O178 1.381 . S
C190 O179 1.421 . S
C191 O188 1.381 . S
C191 O189 1.421 . S
Fe192 O193 1.886 . S
Fe192 O196 1.715 . S
Fe192 O201 2.077 . S
Fe192 O206 1.935 . S
Fe192 O212 2.077 . S
Fe192 O221 1.935 . S
O193 Fe192 1.886 . S
O193 Fe195 1.715 . S
Fe194 O196 1.886 1_545 S
Fe194 O197 1.715 . S
Fe194 O204 1.935 . S
Fe194 O205 2.077 . S
Fe194 O211 1.935 . S
Fe194 O220 2.077 . S
Fe195 O193 1.715 . S
Fe195 O198 1.886 1_565 S
Fe195 O202 1.935 . S
Fe195 O207 2.077 . S
Fe195 O213 1.935 . S
Fe195 O217 2.077 . S
O196 Fe192 1.715 . S
O196 Fe194 1.886 1_565 S
O197 Fe194 1.715 . S
O197 Fe199 1.886 . S
O198 Fe195 1.886 1_545 S
O198 Fe199 1.715 . S
Fe199 O197 1.886 . S
Fe199 O198 1.715 . S
Fe199 O203 2.077 . S
Fe199 O208 1.935 . S
Fe199 O210 2.077 . S
Fe199 O218 1.935 . S
C200 O212 1.381 . S
C200 O213 1.421 . S
O201 Fe192 2.077 . S
O201 C214 1.381 . S
O202 Fe195 1.935 . S
O202 C214 1.421 . S
O203 Fe199 2.077 . S
O203 C219 1.381 . S
O204 Fe194 1.935 . S
O204 C219 1.421 . S
O205 Fe194 2.077 . S
O205 C209 1.381 1_545 S
O206 Fe192 1.935 . S
O206 C209 1.421 . S
O207 Fe195 2.077 . S
O207 C215 1.381 . S
O208 Fe199 1.935 . S
O208 C215 1.421 1_545 S
C209 O205 1.381 1_565 S
C209 O206 1.421 . S
O210 Fe199 2.077 . S
O210 C222 1.381 . S
O211 Fe194 1.935 . S
O211 C222 1.421 . S
O212 Fe192 2.077 . S
O212 C200 1.381 . S
O213 Fe195 1.935 . S
O213 C200 1.421 . S
C214 O201 1.381 . S
C214 O202 1.421 . S
C215 O207 1.381 . S
C215 O208 1.421 1_565 S
C216 O217 1.381 1_545 S
C216 O218 1.421 . S
O217 Fe195 2.077 . S
O217 C216 1.381 1_565 S
O218 Fe199 1.935 . S
O218 C216 1.421 . S
C219 O203 1.381 . S
C219 O204 1.421 . S
O220 Fe194 2.077 . S
O220 C223 1.381 . S
O221 Fe192 1.935 . S
O221 C223 1.421 1_565 S
C222 O210 1.381 . S
C222 O211 1.421 . S
C223 O220 1.381 . S
C223 O221 1.421 1_545 S
Fe224 O225 1.886 1_556 S
Fe224 O228 1.715 . S
Fe224 O233 2.077 . S
Fe224 O238 1.935 . S
Fe224 O244 2.077 . S
Fe224 O253 1.935 . S
O225 Fe224 1.886 1_554 S
O225 Fe227 1.715 . S
Fe226 O228 1.886 . S
Fe226 O229 1.715 . S
Fe226 O236 1.935 . S
Fe226 O237 2.077 . S
Fe226 O243 1.935 . S
Fe226 O252 2.077 . S
Fe227 O225 1.715 . S
Fe227 O230 1.886 . S
Fe227 O234 1.935 . S
Fe227 O239 2.077 . S
Fe227 O245 1.935 . S
Fe227 O249 2.077 . S
O228 Fe224 1.715 . S
O228 Fe226 1.886 . S
O229 Fe226 1.715 . S
O229 Fe231 1.886 1_556 S
O230 Fe227 1.886 . S
O230 Fe231 1.715 . S
Fe231 O229 1.886 1_554 S
Fe231 O230 1.715 . S
Fe231 O235 2.077 . S
Fe231 O240 1.935 . S
Fe231 O242 2.077 . S
Fe231 O250 1.935 . S
C232 O244 1.381 1_554 S
C232 O245 1.421 . S
O233 Fe224 2.077 . S
O233 C246 1.381 1_556 S
O234 Fe227 1.935 . S
O234 C246 1.421 . S
O235 Fe231 2.077 . S
O235 C251 1.381 1_554 S
O236 Fe226 1.935 . S
O236 C251 1.421 . S
O237 Fe226 2.077 . S
O237 C241 1.381 . S
O238 Fe224 1.935 . S
O238 C241 1.421 . S
O239 Fe227 2.077 . S
O239 C247 1.381 . S
O240 Fe231 1.935 . S
O240 C247 1.421 . S
C241 O237 1.381 . S
C241 O238 1.421 . S
O242 Fe231 2.077 . S
O242 C254 1.381 1_554 S
O243 Fe226 1.935 . S
O243 C254 1.421 . S
O244 Fe224 2.077 . S
O244 C232 1.381 1_556 S
O245 Fe227 1.935 . S
O245 C232 1.421 . S
C246 O233 1.381 1_554 S
C246 O234 1.421 . S
C247 O239 1.381 . S
C247 O240 1.421 . S
C248 O249 1.381 . S
C248 O250 1.421 . S
O249 Fe227 2.077 . S
O249 C248 1.381 . S
O250 Fe231 1.935 . S
O250 C248 1.421 . S
C251 O235 1.381 1_556 S
C251 O236 1.421 . S
O252 Fe226 2.077 . S
O252 C255 1.381 . S
O253 Fe224 1.935 . S
O253 C255 1.421 . S
C254 O242 1.381 1_556 S
C254 O243 1.421 . S
C255 O252 1.381 . S
C255 O253 1.421 . S
C256 C257 1.387 . S
C256 H260 0.950 . S
C256 C265 1.390 . S
C257 C256 1.387 . S
C257 C259 1.387 1_565 S
H258 C265 0.950 . S
C259 C257 1.387 1_545 S
C259 C261 1.390 . S
C259 H263 0.950 . S
H260 C256 0.950 . S
C261 C259 1.390 . S
C261 C262 1.387 . S
C261 H264 0.950 . S
C262 C261 1.387 . S
C262 C265 1.387 1_545 S
H263 C259 0.950 . S
H264 C261 0.950 . S
C265 C256 1.390 . S
C265 H258 0.950 . S
C265 C262 1.387 1_565 S
C266 C267 1.387 1_565 S
C266 H270 0.950 . S
C266 C275 1.390 . S
C267 C266 1.387 1_545 S
C267 C269 1.387 . S
H268 C275 0.950 . S
C269 C267 1.387 . S
C269 C271 1.390 . S
C269 H273 0.950 . S
H270 C266 0.950 . S
C271 C269 1.390 . S
C271 C272 1.387 1_545 S
C271 H274 0.950 . S
C272 C271 1.387 1_565 S
C272 C275 1.387 . S
H273 C269 0.950 . S
H274 C271 0.950 . S
C275 C266 1.390 . S
C275 H268 0.950 . S
C275 C272 1.387 . S
C276 C277 1.387 . S
C276 H280 0.950 . S
C276 C285 1.390 . S
C277 C276 1.387 . S
C277 C279 1.387 . S
H278 C285 0.950 . S
C279 C277 1.387 . S
C279 C281 1.390 . S
C279 H283 0.950 . S
H280 C276 0.950 . S
C281 C279 1.390 . S
C281 C282 1.387 . S
C281 H284 0.950 . S
C282 C281 1.387 . S
C282 C285 1.387 . S
H283 C279 0.950 . S
H284 C281 0.950 . S
C285 C276 1.390 . S
C285 H278 0.950 . S
C285 C282 1.387 . S
C286 C287 1.387 . S
C286 H290 0.950 . S
C286 C295 1.390 . S
C287 C286 1.387 . S
C287 C289 1.387 . S
H288 C295 0.950 . S
C289 C287 1.387 . S
C289 C291 1.390 . S
C289 H293 0.950 . S
H290 C286 0.950 . S
C291 C289 1.390 . S
C291 C292 1.387 . S
C291 H294 0.950 . S
C292 C291 1.387 . S
C292 C295 1.387 . S
H293 C289 0.950 . S
H294 C291 0.950 . S
C295 C286 1.390 . S
C295 H288 0.950 . S
C295 C292 1.387 . S
C296 C297 1.387 . S
C296 H300 0.950 . S
C296 C305 1.390 . S
C297 C296 1.387 . S
C297 C299 1.387 . S
H298 C305 0.950 . S
C299 C297 1.387 . S
C299 C301 1.390 . S
C299 H303 0.950 . S
H300 C296 0.950 . S
C301 C299 1.390 . S
C301 C302 1.387 . S
C301 H304 0.950 . S
C302 C301 1.387 . S
C302 C305 1.387 . S
H303 C299 0.950 . S
H304 C301 0.950 . S
C305 C296 1.390 . S
C305 H298 0.950 . S
C305 C302 1.387 . S
C306 C307 1.387 . S
C306 H310 0.950 . S
C306 C315 1.390 . S
C307 C306 1.387 . S
C307 C309 1.387 . S
H308 C315 0.950 . S
C309 C307 1.387 . S
C309 C311 1.390 . S
C309 H313 0.950 . S
H310 C306 0.950 . S
C311 C309 1.390 . S
C311 C312 1.387 . S
C311 H314 0.950 . S
C312 C311 1.387 . S
C312 C315 1.387 . S
H313 C309 0.950 . S
H314 C311 0.950 . S
C315 C306 1.390 . S
C315 H308 0.950 . S
C315 C312 1.387 . S
C316 C317 1.387 . S
C316 H320 0.950 . S
C316 C325 1.390 . S
C317 C316 1.387 . S
C317 C319 1.387 . S
H318 C325 0.950 . S
C319 C317 1.387 . S
C319 C321 1.390 . S
C319 H323 0.950 . S
H320 C316 0.950 . S
C321 C319 1.390 . S
C321 C322 1.387 . S
C321 H324 0.950 . S
C322 C321 1.387 . S
C322 C325 1.387 . S
H323 C319 0.950 . S
H324 C321 0.950 . S
C325 C316 1.390 . S
C325 H318 0.950 . S
C325 C322 1.387 . S
C326 C327 1.387 . S
C326 H330 0.950 . S
C326 C335 1.390 . S
C327 C326 1.387 . S
C327 C329 1.387 . S
H328 C335 0.950 . S
C329 C327 1.387 . S
C329 C331 1.390 . S
C329 H333 0.950 . S
H330 C326 0.950 . S
C331 C329 1.390 . S
C331 C332 1.387 . S
C331 H334 0.950 . S
C332 C331 1.387 . S
C332 C335 1.387 . S
H333 C329 0.950 . S
H334 C331 0.950 . S
C335 C326 1.390 . S
C335 H328 0.950 . S
C335 C332 1.387 . S
C336 C337 1.387 . S
C336 H340 0.950 . S
C336 C345 1.390 . S
C337 C336 1.387 . S
C337 C339 1.387 1_545 S
H338 C345 0.950 . S
C339 C337 1.387 1_565 S
C339 C341 1.390 . S
C339 H343 0.950 . S
H340 C336 0.950 . S
C341 C339 1.390 . S
C341 C342 1.387 . S
C341 H344 0.950 . S
C342 C341 1.387 . S
C342 C345 1.387 1_565 S
H343 C339 0.950 . S
H344 C341 0.950 . S
C345 C336 1.390 . S
C345 H338 0.950 . S
C345 C342 1.387 1_545 S
C346 C347 1.387 1_565 S
C346 H350 0.950 . S
C346 C355 1.390 . S
C347 C346 1.387 1_545 S
C347 C349 1.387 . S
H348 C355 0.950 . S
C349 C347 1.387 . S
C349 C351 1.390 . S
C349 H353 0.950 . S
H350 C346 0.950 . S
C351 C349 1.390 . S
C351 C352 1.387 1_545 S
C351 H354 0.950 . S
C352 C351 1.387 1_565 S
C352 C355 1.387 . S
H353 C349 0.950 . S
H354 C351 0.950 . S
C355 C346 1.390 . S
C355 H348 0.950 . S
C355 C352 1.387 . S
C356 C357 1.387 . S
C356 H360 0.950 . S
C356 C365 1.390 . S
C357 C356 1.387 . S
C357 C359 1.387 . S
H358 C365 0.950 . S
C359 C357 1.387 . S
C359 C361 1.390 . S
C359 H363 0.950 . S
H360 C356 0.950 . S
C361 C359 1.390 . S
C361 C362 1.387 . S
C361 H364 0.950 . S
C362 C361 1.387 . S
C362 C365 1.387 . S
H363 C359 0.950 . S
H364 C361 0.950 . S
C365 C356 1.390 . S
C365 H358 0.950 . S
C365 C362 1.387 . S
C366 C367 1.387 . S
C366 H370 0.950 . S
C366 C375 1.390 . S
C367 C366 1.387 . S
C367 C369 1.387 . S
H368 C375 0.950 . S
C369 C367 1.387 . S
C369 C371 1.390 . S
C369 H373 0.950 . S
H370 C366 0.950 . S
C371 C369 1.390 . S
C371 C372 1.387 . S
C371 H374 0.950 . S
C372 C371 1.387 . S
C372 C375 1.387 . S
H373 C369 0.950 . S
H374 C371 0.950 . S
C375 C366 1.390 . S
C375 H368 0.950 . S
C375 C372 1.387 . S
C376 C377 1.387 . S
C376 H380 0.950 . S
C376 C385 1.390 . S
C377 C376 1.387 . S
C377 C379 1.387 . S
H378 C385 0.950 . S
C379 C377 1.387 . S
C379 C381 1.390 . S
C379 H383 0.950 . S
H380 C376 0.950 . S
C381 C379 1.390 . S
C381 C382 1.387 . S
C381 H384 0.950 . S
C382 C381 1.387 . S
C382 C385 1.387 . S
H383 C379 0.950 . S
H384 C381 0.950 . S
C385 C376 1.390 . S
C385 H378 0.950 . S
C385 C382 1.387 . S
C386 C387 1.387 . S
C386 H390 0.950 . S
C386 C395 1.390 . S
C387 C386 1.387 . S
C387 C389 1.387 . S
H388 C395 0.950 . S
C389 C387 1.387 . S
C389 C391 1.390 . S
C389 H393 0.950 . S
H390 C386 0.950 . S
C391 C389 1.390 . S
C391 C392 1.387 . S
C391 H394 0.950 . S
C392 C391 1.387 . S
C392 C395 1.387 . S
H393 C389 0.950 . S
H394 C391 0.950 . S
C395 C386 1.390 . S
C395 H388 0.950 . S
C395 C392 1.387 . S
C396 C397 1.387 . S
C396 H400 0.950 . S
C396 C405 1.390 . S
C397 C396 1.387 . S
C397 C399 1.387 . S
H398 C405 0.950 . S
C399 C397 1.387 . S
C399 C401 1.390 . S
C399 H403 0.950 . S
H400 C396 0.950 . S
C401 C399 1.390 . S
C401 C402 1.387 . S
C401 H404 0.950 . S
C402 C401 1.387 . S
C402 C405 1.387 . S
H403 C399 0.950 . S
H404 C401 0.950 . S
C405 C396 1.390 . S
C405 H398 0.950 . S
C405 C402 1.387 . S
C406 C407 1.387 . S
C406 H410 0.950 . S
C406 C415 1.390 . S
C407 C406 1.387 . S
C407 C409 1.387 . S
H408 C415 0.950 . S
C409 C407 1.387 . S
C409 C411 1.390 . S
C409 H413 0.950 . S
H410 C406 0.950 . S
C411 C409 1.390 . S
C411 C412 1.387 . S
C411 H414 0.950 . S
C412 C411 1.387 . S
C412 C415 1.387 . S
H413 C409 0.950 . S
H414 C411 0.950 . S
C415 C406 1.390 . S
C415 H408 0.950 . S
C415 C412 1.387 . S
C416 C417 1.386 1_556 S
C416 H420 0.950 . S
C416 C425 1.390 1_455 S
C417 C416 1.386 1_554 S
C417 C419 1.389 . S
H418 C425 0.950 . S
C419 C417 1.389 . S
C419 C421 1.390 1_455 S
C419 H423 0.950 . S
H420 C416 0.950 . S
C421 C419 1.390 1_655 S
C421 C422 1.389 . S
C421 H424 0.950 . S
C422 C421 1.389 . S
C422 C425 1.386 1_554 S
H423 C419 0.950 . S
H424 C421 0.950 . S
C425 C416 1.390 1_655 S
C425 H418 0.950 . S
C425 C422 1.386 1_556 S
C426 C427 1.387 . S
C426 H430 0.950 . S
C426 C435 1.390 . S
C427 C426 1.387 . S
C427 C429 1.387 . S
H428 C435 0.950 . S
C429 C427 1.387 . S
C429 C431 1.390 . S
C429 H433 0.950 . S
H430 C426 0.950 . S
C431 C429 1.390 . S
C431 C432 1.387 . S
C431 H434 0.950 . S
C432 C431 1.387 . S
C432 C435 1.387 . S
H433 C429 0.950 . S
H434 C431 0.950 . S
C435 C426 1.390 . S
C435 H428 0.950 . S
C435 C432 1.387 . S
C436 C437 1.387 . S
C436 H440 0.950 . S
C436 C445 1.390 . S
C437 C436 1.387 . S
C437 C439 1.387 . S
H438 C445 0.950 . S
C439 C437 1.387 . S
C439 C441 1.390 . S
C439 H443 0.950 . S
H440 C436 0.950 . S
C441 C439 1.390 . S
C441 C442 1.387 . S
C441 H444 0.950 . S
C442 C441 1.387 . S
C442 C445 1.387 . S
H443 C439 0.950 . S
H444 C441 0.950 . S
C445 C436 1.390 . S
C445 H438 0.950 . S
C445 C442 1.387 . S
C446 C447 1.387 . S
C446 H450 0.950 . S
C446 C455 1.390 1_665 S
C447 C446 1.387 . S
C447 C449 1.387 . S
H448 C455 0.950 . S
C449 C447 1.387 . S
C449 C451 1.390 1_665 S
C449 H453 0.950 . S
H450 C446 0.950 . S
C451 C449 1.390 1_445 S
C451 C452 1.387 . S
C451 H454 0.950 . S
C452 C451 1.387 . S
C452 C455 1.387 . S
H453 C449 0.950 . S
H454 C451 0.950 . S
C455 C446 1.390 1_445 S
C455 H448 0.950 . S
C455 C452 1.387 . S
C456 C457 1.387 . S
C456 H460 0.950 . S
C456 C465 1.390 . S
C457 C456 1.387 . S
C457 C459 1.387 . S
H458 C465 0.950 . S
C459 C457 1.387 . S
C459 C461 1.390 . S
C459 H463 0.950 . S
H460 C456 0.950 . S
C461 C459 1.390 . S
C461 C462 1.387 . S
C461 H464 0.950 . S
C462 C461 1.387 . S
C462 C465 1.387 . S
H463 C459 0.950 . S
H464 C461 0.950 . S
C465 C456 1.390 . S
C465 H458 0.950 . S
C465 C462 1.387 . S
C466 C467 1.387 . S
C466 H470 0.950 . S
C466 C475 1.390 . S
C467 C466 1.387 . S
C467 C469 1.387 . S
H468 C475 0.950 . S
C469 C467 1.387 . S
C469 C471 1.390 . S
C469 H473 0.950 . S
H470 C466 0.950 . S
C471 C469 1.390 . S
C471 C472 1.387 . S
C471 H474 0.950 . S
C472 C471 1.387 . S
C472 C475 1.387 . S
H473 C469 0.950 . S
H474 C471 0.950 . S
C475 C466 1.390 . S
C475 H468 0.950 . S
C475 C472 1.387 . S
C476 C477 1.387 . S
C476 H480 0.950 . S
C476 C485 1.390 . S
C477 C476 1.387 . S
C477 C479 1.387 . S
H478 C485 0.950 . S
C479 C477 1.387 . S
C479 C481 1.390 . S
C479 H483 0.950 . S
H480 C476 0.950 . S
C481 C479 1.390 . S
C481 C482 1.387 . S
C481 H484 0.950 . S
C482 C481 1.387 . S
C482 C485 1.387 . S
H483 C479 0.950 . S
H484 C481 0.950 . S
C485 C476 1.390 . S
C485 H478 0.950 . S
C485 C482 1.387 . S
C486 C487 1.386 1_556 S
C486 H490 0.950 . S
C486 C495 1.390 1_565 S
C487 C486 1.386 1_554 S
C487 C489 1.389 . S
H488 C495 0.950 . S
C489 C487 1.389 . S
C489 C491 1.390 1_565 S
C489 H493 0.950 . S
H490 C486 0.950 . S
C491 C489 1.390 1_545 S
C491 C492 1.389 . S
C491 H494 0.950 . S
C492 C491 1.389 . S
C492 C495 1.386 1_554 S
H493 C489 0.950 . S
H494 C491 0.950 . S
C495 C486 1.390 1_545 S
C495 H488 0.950 . S
C495 C492 1.386 1_556 S
C496 C497 1.389 . S
C496 H500 0.950 . S
C496 C505 1.390 . S
C497 C496 1.389 . S
C497 C499 1.386 1_554 S
H498 C505 0.950 . S
C499 C497 1.386 1_556 S
C499 C501 1.390 . S
C499 H503 0.950 . S
H500 C496 0.950 . S
C501 C499 1.390 . S
C501 C502 1.386 1_556 S
C501 H504 0.950 . S
C502 C501 1.386 1_554 S
C502 C505 1.389 . S
H503 C499 0.950 . S
H504 C501 0.950 . S
C505 C496 1.390 . S
C505 H498 0.950 . S
C505 C502 1.389 . S
C506 C507 1.386 1_556 S
C506 H510 0.950 . S
C506 C515 1.390 . S
C507 C506 1.386 1_554 S
C507 C509 1.389 . S
H508 C515 0.950 . S
C509 C507 1.389 . S
C509 C511 1.390 . S
C509 H513 0.950 . S
H510 C506 0.950 . S
C511 C509 1.390 . S
C511 C512 1.389 . S
C511 H514 0.950 . S
C512 C511 1.389 . S
C512 C515 1.386 1_554 S
H513 C509 0.950 . S
H514 C511 0.950 . S
C515 C506 1.390 . S
C515 H508 0.950 . S
C515 C512 1.386 1_556 S
C516 C517 1.387 . S
C516 H520 0.950 . S
C516 C525 1.390 1_455 S
C517 C516 1.387 . S
C517 C519 1.387 . S
H518 C525 0.950 . S
C519 C517 1.387 . S
C519 C521 1.390 1_455 S
C519 H523 0.950 . S
H520 C516 0.950 . S
C521 C519 1.390 1_655 S
C521 C522 1.387 . S
C521 H524 0.950 . S
C522 C521 1.387 . S
C522 C525 1.387 . S
H523 C519 0.950 . S
H524 C521 0.950 . S
C525 C516 1.390 1_655 S
C525 H518 0.950 . S
C525 C522 1.387 . S
C526 C527 1.387 . S
C526 H530 0.950 . S
C526 C535 1.390 . S
C527 C526 1.387 . S
C527 C529 1.387 . S
H528 C535 0.950 . S
C529 C527 1.387 . S
C529 C531 1.390 . S
C529 H533 0.950 . S
H530 C526 0.950 . S
C531 C529 1.390 . S
C531 C532 1.387 . S
C531 H534 0.950 . S
C532 C531 1.387 . S
C532 C535 1.387 . S
H533 C529 0.950 . S
H534 C531 0.950 . S
C535 C526 1.390 . S
C535 H528 0.950 . S
C535 C532 1.387 . S
C536 C537 1.387 . S
C536 H540 0.950 . S
C536 C545 1.390 . S
C537 C536 1.387 . S
C537 C539 1.387 . S
H538 C545 0.950 . S
C539 C537 1.387 . S
C539 C541 1.390 . S
C539 H543 0.950 . S
H540 C536 0.950 . S
C541 C539 1.390 . S
C541 C542 1.387 . S
C541 H544 0.950 . S
C542 C541 1.387 . S
C542 C545 1.387 . S
H543 C539 0.950 . S
H544 C541 0.950 . S
C545 C536 1.390 . S
C545 H538 0.950 . S
C545 C542 1.387 . S
C546 C547 1.387 . S
C546 H550 0.950 . S
C546 C555 1.390 1_645 S
C547 C546 1.387 . S
C547 C549 1.387 . S
H548 C555 0.950 . S
C549 C547 1.387 . S
C549 C551 1.390 1_645 S
C549 H553 0.950 . S
H550 C546 0.950 . S
C551 C549 1.390 1_465 S
C551 C552 1.387 . S
C551 H554 0.950 . S
C552 C551 1.387 . S
C552 C555 1.387 . S
H553 C549 0.950 . S
H554 C551 0.950 . S
C555 C546 1.390 1_465 S
C555 H548 0.950 . S
C555 C552 1.387 . S
C556 C557 1.387 . S
C556 H560 0.950 . S
C556 C565 1.390 . S
C557 C556 1.387 . S
C557 C559 1.387 . S
H558 C565 0.950 . S
C559 C557 1.387 . S
C559 C561 1.390 . S
C559 H563 0.950 . S
H560 C556 0.950 . S
C561 C559 1.390 . S
C561 C562 1.387 . S
C561 H564 0.950 . S
C562 C561 1.387 . S
C562 C565 1.387 . S
H563 C559 0.950 . S
H564 C561 0.950 . S
C565 C556 1.390 . S
C565 H558 0.950 . S
C565 C562 1.387 . S
C566 C567 1.387 . S
C566 H570 0.950 . S
C566 C575 1.390 1_565 S
C567 C566 1.387 . S
C567 C569 1.387 . S
H568 C575 0.950 . S
C569 C567 1.387 . S
C569 C571 1.390 1_565 S
C569 H573 0.950 . S
H570 C566 0.950 . S
C571 C569 1.390 1_545 S
C571 C572 1.387 . S
C571 H574 0.950 . S
C572 C571 1.387 . S
C572 C575 1.387 . S
H573 C569 0.950 . S
H574 C571 0.950 . S
C575 C566 1.390 1_545 S
C575 H568 0.950 . S
C575 C572 1.387 . S
C257 C23 1.432 . S
C262 C40 1.676 . S
C267 C24 1.502 . S
C272 C86 1.721 . S
C277 C113 1.681 . S
C282 C62 1.432 . S
C287 C91 1.497 . S
C292 C127 1.718 . S
C297 C119 1.431 . S
C302 C136 1.679 . S
C307 C182 1.718 . S
C312 C120 1.503 . S
C317 C158 1.433 . S
C322 C17 1.678 . S
C327 C187 1.497 . S
C332 C31 1.717 . S
C337 C168 1.681 . S
C342 C215 1.434 . S
C347 C216 1.502 . S
C352 C150 1.720 . S
C357 C241 1.681 . S
C362 C190 1.434 . S
C367 C255 1.719 . S
C372 C155 1.500 . S
C377 C247 1.429 . S
C382 C72 1.678 . S
C387 C54 1.719 . S
C392 C248 1.500 . S
C397 C209 1.678 . S
C402 C94 1.433 . S
C407 C223 1.719 . S
C412 C59 1.499 . S
C417 C22 0.895 . S
C422 C30 0.895 1_554 S
C427 C49 0.904 . S
C432 C56 0.904 . S
C437 C81 0.895 . S
C442 C88 0.895 . S
C447 C126 0.904 . S
C452 C118 0.904 . S
C457 C145 0.895 . S
C462 C152 0.895 . S
C467 C177 0.904 . S
C472 C184 0.904 . S
C477 C214 0.904 . S
C482 C222 0.904 . S
C487 C254 0.895 1_554 S
C492 C246 0.895 . S
C497 C232 1.487 . S
C502 C27 1.484 1_554 S
C507 C8 1.489 . S
C512 C251 1.491 1_554 S
C517 C63 1.487 . S
C522 C87 1.487 . S
C527 C200 1.487 . S
C532 C123 1.484 . S
C537 C104 1.488 . S
C542 C219 1.491 . S
C547 C183 1.487 . S
C552 C159 1.487 . S
C557 C191 1.487 . S
C562 C151 1.487 . S
C567 C95 1.488 . S
C572 C55 1.488 . S
