# Generated by pormake.
# Topology umq, (4)-cn, num edge types: 1
# Building blocks:
#     Node 0, Type 0, BuildingBlock: KUFVIS_clean_sbu_0, # of connection points: 4
#     Node 1, Type 0, BuildingBlock: KUFVIS_clean_sbu_0, # of connection points: 4
#     Node 2, Type 0, BuildingBlock: KUFVIS_clean_sbu_0, # of connection points: 4
#     Node 3, Type 0, BuildingBlock: KUFVIS_clean_sbu_0, # of connection points: 4
#     Node 4, Type 0, BuildingBlock: KUFVIS_clean_sbu_0, # of connection points: 4
#     Node 5, Type 0, BuildingBlock: KUFVIS_clean_sbu_0, # of connection points: 4
#     Node 6, Type 0, BuildingBlock: KUFVIS_clean_sbu_0, # of connection points: 4
#     Node 7, Type 0, BuildingBlock: KUFVIS_clean_sbu_0, # of connection points: 4
#     Node 8, Type 0, BuildingBlock: KUFVIS_clean_sbu_0, # of connection points: 4
#     Node 9, Type 0, BuildingBlock: KUFVIS_clean_sbu_0, # of connection points: 4
#     Node 10, Type 0, BuildingBlock: KUFVIS_clean_sbu_0, # of connection points: 4
#     Node 11, Type 0, BuildingBlock: KUFVIS_clean_sbu_0, # of connection points: 4
#     Node 12, Type 0, BuildingBlock: KUFVIS_clean_sbu_0, # of connection points: 4
#     Node 13, Type 0, BuildingBlock: KUFVIS_clean_sbu_0, # of connection points: 4
#     Node 14, Type 0, BuildingBlock: KUFVIS_clean_sbu_0, # of connection points: 4
#     Node 15, Type 0, BuildingBlock: KUFVIS_clean_sbu_0, # of connection points: 4
#     Node 16, Type 0, BuildingBlock: KUFVIS_clean_sbu_0, # of connection points: 4
#     Node 17, Type 0, BuildingBlock: KUFVIS_clean_sbu_0, # of connection points: 4
#     Node 18, Type 0, BuildingBlock: KUFVIS_clean_sbu_0, # of connection points: 4
#     Node 19, Type 0, BuildingBlock: KUFVIS_clean_sbu_0, # of connection points: 4
#     Node 20, Type 0, BuildingBlock: KUFVIS_clean_sbu_0, # of connection points: 4
#     Node 21, Type 0, BuildingBlock: KUFVIS_clean_sbu_0, # of connection points: 4
#     Node 22, Type 0, BuildingBlock: KUFVIS_clean_sbu_0, # of connection points: 4
#     Node 23, Type 0, BuildingBlock: KUFVIS_clean_sbu_0, # of connection points: 4
#     Node 24, Type 0, BuildingBlock: KUFVIS_clean_sbu_0, # of connection points: 4
#     Node 25, Type 0, BuildingBlock: KUFVIS_clean_sbu_0, # of connection points: 4
#     Node 26, Type 0, BuildingBlock: KUFVIS_clean_sbu_0, # of connection points: 4
#     Node 27, Type 0, BuildingBlock: KUFVIS_clean_sbu_0, # of connection points: 4
#     Node 28, Type 0, BuildingBlock: KUFVIS_clean_sbu_0, # of connection points: 4
#     Node 29, Type 0, BuildingBlock: KUFVIS_clean_sbu_0, # of connection points: 4
#     Node 30, Type 0, BuildingBlock: KUFVIS_clean_sbu_0, # of connection points: 4
#     Node 31, Type 0, BuildingBlock: KUFVIS_clean_sbu_0, # of connection points: 4
#     Edge 32, Type (0, 0), BuildingBlock: ZUJKAS_clean_linker_0, # of connection points: 2
#     Edge 33, Type (0, 0), BuildingBlock: ZUJKAS_clean_linker_0, # of connection points: 2
#     Edge 34, Type (0, 0), BuildingBlock: ZUJKAS_clean_linker_0, # of connection points: 2
#     Edge 35, Type (0, 0), BuildingBlock: ZUJKAS_clean_linker_0, # of connection points: 2
#     Edge 36, Type (0, 0), BuildingBlock: ZUJKAS_clean_linker_0, # of connection points: 2
#     Edge 37, Type (0, 0), BuildingBlock: ZUJKAS_clean_linker_0, # of connection points: 2
#     Edge 38, Type (0, 0), BuildingBlock: ZUJKAS_clean_linker_0, # of connection points: 2
#     Edge 39, Type (0, 0), BuildingBlock: ZUJKAS_clean_linker_0, # of connection points: 2
#     Edge 40, Type (0, 0), BuildingBlock: ZUJKAS_clean_linker_0, # of connection points: 2
#     Edge 41, Type (0, 0), BuildingBlock: ZUJKAS_clean_linker_0, # of connection points: 2
#     Edge 42, Type (0, 0), BuildingBlock: ZUJKAS_clean_linker_0, # of connection points: 2
#     Edge 43, Type (0, 0), BuildingBlock: ZUJKAS_clean_linker_0, # of connection points: 2
#     Edge 44, Type (0, 0), BuildingBlock: ZUJKAS_clean_linker_0, # of connection points: 2
#     Edge 45, Type (0, 0), BuildingBlock: ZUJKAS_clean_linker_0, # of connection points: 2
#     Edge 46, Type (0, 0), BuildingBlock: ZUJKAS_clean_linker_0, # of connection points: 2
#     Edge 47, Type (0, 0), BuildingBlock: ZUJKAS_clean_linker_0, # of connection points: 2
#     Edge 48, Type (0, 0), BuildingBlock: ZUJKAS_clean_linker_0, # of connection points: 2
#     Edge 49, Type (0, 0), BuildingBlock: ZUJKAS_clean_linker_0, # of connection points: 2
#     Edge 50, Type (0, 0), BuildingBlock: ZUJKAS_clean_linker_0, # of connection points: 2
#     Edge 51, Type (0, 0), BuildingBlock: ZUJKAS_clean_linker_0, # of connection points: 2
#     Edge 52, Type (0, 0), BuildingBlock: ZUJKAS_clean_linker_0, # of connection points: 2
#     Edge 53, Type (0, 0), BuildingBlock: ZUJKAS_clean_linker_0, # of connection points: 2
#     Edge 54, Type (0, 0), BuildingBlock: ZUJKAS_clean_linker_0, # of connection points: 2
#     Edge 55, Type (0, 0), BuildingBlock: ZUJKAS_clean_linker_0, # of connection points: 2
#     Edge 56, Type (0, 0), BuildingBlock: ZUJKAS_clean_linker_0, # of connection points: 2
#     Edge 57, Type (0, 0), BuildingBlock: ZUJKAS_clean_linker_0, # of connection points: 2
#     Edge 58, Type (0, 0), BuildingBlock: ZUJKAS_clean_linker_0, # of connection points: 2
#     Edge 59, Type (0, 0), BuildingBlock: ZUJKAS_clean_linker_0, # of connection points: 2
#     Edge 60, Type (0, 0), BuildingBlock: ZUJKAS_clean_linker_0, # of connection points: 2
#     Edge 61, Type (0, 0), BuildingBlock: ZUJKAS_clean_linker_0, # of connection points: 2
#     Edge 62, Type (0, 0), BuildingBlock: ZUJKAS_clean_linker_0, # of connection points: 2
#     Edge 63, Type (0, 0), BuildingBlock: ZUJKAS_clean_linker_0, # of connection points: 2
#     Edge 64, Type (0, 0), BuildingBlock: ZUJKAS_clean_linker_0, # of connection points: 2
#     Edge 65, Type (0, 0), BuildingBlock: ZUJKAS_clean_linker_0, # of connection points: 2
#     Edge 66, Type (0, 0), BuildingBlock: ZUJKAS_clean_linker_0, # of connection points: 2
#     Edge 67, Type (0, 0), BuildingBlock: ZUJKAS_clean_linker_0, # of connection points: 2
#     Edge 68, Type (0, 0), BuildingBlock: ZUJKAS_clean_linker_0, # of connection points: 2
#     Edge 69, Type (0, 0), BuildingBlock: ZUJKAS_clean_linker_0, # of connection points: 2
#     Edge 70, Type (0, 0), BuildingBlock: ZUJKAS_clean_linker_0, # of connection points: 2
#     Edge 71, Type (0, 0), BuildingBlock: ZUJKAS_clean_linker_0, # of connection points: 2
#     Edge 72, Type (0, 0), BuildingBlock: ZUJKAS_clean_linker_0, # of connection points: 2
#     Edge 73, Type (0, 0), BuildingBlock: ZUJKAS_clean_linker_0, # of connection points: 2
#     Edge 74, Type (0, 0), BuildingBlock: ZUJKAS_clean_linker_0, # of connection points: 2
#     Edge 75, Type (0, 0), BuildingBlock: ZUJKAS_clean_linker_0, # of connection points: 2
#     Edge 76, Type (0, 0), BuildingBlock: ZUJKAS_clean_linker_0, # of connection points: 2
#     Edge 77, Type (0, 0), BuildingBlock: ZUJKAS_clean_linker_0, # of connection points: 2
#     Edge 78, Type (0, 0), BuildingBlock: ZUJKAS_clean_linker_0, # of connection points: 2
#     Edge 79, Type (0, 0), BuildingBlock: ZUJKAS_clean_linker_0, # of connection points: 2
#     Edge 80, Type (0, 0), BuildingBlock: ZUJKAS_clean_linker_0, # of connection points: 2
#     Edge 81, Type (0, 0), BuildingBlock: ZUJKAS_clean_linker_0, # of connection points: 2
#     Edge 82, Type (0, 0), BuildingBlock: ZUJKAS_clean_linker_0, # of connection points: 2
#     Edge 83, Type (0, 0), BuildingBlock: ZUJKAS_clean_linker_0, # of connection points: 2
#     Edge 84, Type (0, 0), BuildingBlock: ZUJKAS_clean_linker_0, # of connection points: 2
#     Edge 85, Type (0, 0), BuildingBlock: ZUJKAS_clean_linker_0, # of connection points: 2
#     Edge 86, Type (0, 0), BuildingBlock: ZUJKAS_clean_linker_0, # of connection points: 2
#     Edge 87, Type (0, 0), BuildingBlock: ZUJKAS_clean_linker_0, # of connection points: 2
#     Edge 88, Type (0, 0), BuildingBlock: ZUJKAS_clean_linker_0, # of connection points: 2
#     Edge 89, Type (0, 0), BuildingBlock: ZUJKAS_clean_linker_0, # of connection points: 2
#     Edge 90, Type (0, 0), BuildingBlock: ZUJKAS_clean_linker_0, # of connection points: 2
#     Edge 91, Type (0, 0), BuildingBlock: ZUJKAS_clean_linker_0, # of connection points: 2
#     Edge 92, Type (0, 0), BuildingBlock: ZUJKAS_clean_linker_0, # of connection points: 2
#     Edge 93, Type (0, 0), BuildingBlock: ZUJKAS_clean_linker_0, # of connection points: 2
#     Edge 94, Type (0, 0), BuildingBlock: ZUJKAS_clean_linker_0, # of connection points: 2
#     Edge 95, Type (0, 0), BuildingBlock: ZUJKAS_clean_linker_0, # of connection points: 2
# Relax obj value: 0.077
# Max RMSD: 0.056
# Mean RMSD: 0.056
data_MOF--net-umq--node1-KUFVIS_clean_sbu_0--edge1-ZUJKAS_clean_linker_0
_symmetry_space_group_name_H-M    P1
_symmetry_Int_Tables_number       1
_symmetry_cell_setting            triclinic
loop_
_symmetry_equiv_pos_as_xyz
'x, y, z'
_cell_length_a     85.612223
_cell_length_b     85.629719
_cell_length_c     56.774549
_cell_angle_alpha  89.987584
_cell_angle_beta   90.013066
_cell_angle_gamma 90.003401
loop_
_atom_site_label
_atom_site_type_symbol
_atom_site_fract_x
_atom_site_fract_y
_atom_site_fract_z
_atom_type_partial_charge
Mn0 Mn 0.24017 0.10131 0.17746 0.0
Mn1 Mn 0.22296 0.13004 0.14572 0.0
C2 C 0.22378 0.11907 0.19622 0.0
C3 C 0.24039 0.07569 0.19203 0.0
C4 C 0.25709 0.13074 0.16061 0.0
O5 O 0.24299 0.09393 0.14339 0.0
O6 O 0.22904 0.11253 0.12479 0.0
C7 C 0.19431 0.11331 0.13102 0.0
N8 N 0.20125 0.12593 0.14117 0.0
C9 C 0.17648 0.13872 0.14646 0.0
C10 C 0.16906 0.12593 0.13582 0.0
C11 C 0.17801 0.11314 0.12818 0.0
C12 C 0.19275 0.13824 0.14876 0.0
H13 H 0.20117 0.10347 0.12517 0.0
C14 C 0.23692 0.09982 0.12484 0.0
O15 O 0.25317 0.08368 0.18953 0.0
O16 O 0.22753 0.08243 0.18541 0.0
N17 N 0.21628 0.14788 0.16326 0.0
C18 C 0.2251 0.15866 0.17486 0.0
C19 C 0.21789 0.17202 0.18421 0.0
C20 C 0.20172 0.17419 0.18142 0.0
C21 C 0.19289 0.16293 0.16946 0.0
C22 C 0.20075 0.14996 0.16026 0.0
H23 H 0.23755 0.15713 0.17683 0.0
O24 O 0.23393 0.11102 0.20807 0.0
O25 O 0.22328 0.11635 0.17364 0.0
O26 O 0.25701 0.11813 0.1726 0.0
O27 O 0.24515 0.13578 0.14948 0.0
C28 C 0.17656 0.1639 0.16673 0.0
C29 C 0.16835 0.15177 0.15532 0.0
H30 H 0.15649 0.12573 0.13369 0.0
H31 H 0.17236 0.10318 0.12012 0.0
H32 H 0.22477 0.18064 0.19351 0.0
H33 H 0.19619 0.18447 0.18877 0.0
H34 H 0.17016 0.17377 0.17375 0.0
H35 H 0.15576 0.1525 0.15375 0.0
Mn36 Mn 0.90126 0.23898 0.17319 0.0
Mn37 Mn 0.87461 0.222 0.13754 0.0
C38 C 0.88238 0.2224 0.18904 0.0
C39 C 0.92602 0.23931 0.19082 0.0
C40 C 0.87256 0.25582 0.15349 0.0
O41 O 0.91053 0.24239 0.14027 0.0
O42 O 0.89307 0.22864 0.11912 0.0
C43 C 0.89282 0.19389 0.1246 0.0
N44 N 0.87952 0.20045 0.13325 0.0
C45 C 0.86683 0.17545 0.13553 0.0
C46 C 0.88034 0.16841 0.12647 0.0
C47 C 0.89344 0.17766 0.12118 0.0
C48 C 0.86703 0.19162 0.13904 0.0
H49 H 0.90283 0.201 0.12031 0.0
C50 C 0.90566 0.23658 0.12089 0.0
O51 O 0.918 0.25201 0.18775 0.0
O52 O 0.91981 0.22644 0.18317 0.0
N53 N 0.85593 0.21479 0.15239 0.0
C54 C 0.84402 0.22337 0.16167 0.0
C55 C 0.83001 0.21592 0.16788 0.0
C56 C 0.82827 0.19982 0.16397 0.0
C57 C 0.84071 0.19123 0.15446 0.0
C58 C 0.85443 0.19926 0.1488 0.0
H59 H 0.84512 0.23583 0.16406 0.0
O60 O 0.88983 0.23227 0.20224 0.0
O61 O 0.88655 0.22209 0.16702 0.0
O62 O 0.8846 0.25568 0.16675 0.0
O63 O 0.86825 0.24405 0.14127 0.0
C64 C 0.84 0.17503 0.15013 0.0
C65 C 0.85313 0.1671 0.14106 0.0
H66 H 0.8808 0.15591 0.12354 0.0
H67 H 0.90393 0.17231 0.11426 0.0
H68 H 0.82048 0.22262 0.17525 0.0
H69 H 0.81733 0.19419 0.16837 0.0
H70 H 0.82945 0.16852 0.15395 0.0
H71 H 0.85253 0.15461 0.13825 0.0
Mn72 Mn 0.76582 0.90762 0.17945 0.0
Mn73 Mn 0.78441 0.8786 0.15025 0.0
C74 C 0.78231 0.89081 0.19977 0.0
C75 C 0.76472 0.9335 0.19283 0.0
C76 C 0.75002 0.87735 0.16356 0.0
O77 O 0.76356 0.91409 0.14486 0.0
O78 O 0.77839 0.89542 0.12801 0.0
C79 C 0.81301 0.8956 0.13606 0.0
N80 N 0.80612 0.88315 0.14676 0.0
C81 C 0.83107 0.87137 0.15489 0.0
C82 C 0.83844 0.884 0.14375 0.0
C83 C 0.82937 0.8962 0.1344 0.0
C84 C 0.81473 0.87141 0.15599 0.0
H85 H 0.80606 0.90499 0.12889 0.0
C86 C 0.77019 0.90792 0.12696 0.0
O87 O 0.75217 0.92518 0.19009 0.0
O88 O 0.77783 0.92697 0.18696 0.0
N89 N 0.79107 0.86142 0.16935 0.0
C90 C 0.78221 0.85072 0.18107 0.0
C91 C 0.78952 0.83799 0.19212 0.0
C92 C 0.80581 0.83629 0.19075 0.0
C93 C 0.81467 0.84742 0.17853 0.0
C94 C 0.80674 0.85981 0.16775 0.0
H95 H 0.76967 0.85188 0.18199 0.0
O96 O 0.77174 0.89879 0.21085 0.0
O97 O 0.78311 0.89302 0.17713 0.0
O98 O 0.74952 0.89025 0.1748 0.0
O99 O 0.7623 0.8724 0.1532 0.0
C100 C 0.8311 0.84691 0.17709 0.0
C101 C 0.83929 0.85891 0.16534 0.0
H102 H 0.85105 0.88454 0.1425 0.0
H103 H 0.83498 0.90604 0.12592 0.0
H104 H 0.78261 0.82948 0.20161 0.0
H105 H 0.81141 0.82647 0.19932 0.0
H106 H 0.83756 0.83751 0.18536 0.0
H107 H 0.85193 0.85854 0.16474 0.0
Mn108 Mn 0.10258 0.76626 0.17656 0.0
Mn109 Mn 0.13037 0.78095 0.14048 0.0
C110 C 0.12122 0.78351 0.19117 0.0
C111 C 0.07761 0.76672 0.1935 0.0
C112 C 0.13232 0.74858 0.16151 0.0
O113 O 0.09365 0.76147 0.14391 0.0
O114 O 0.11316 0.77146 0.12208 0.0
C115 C 0.1112 0.80646 0.12038 0.0
N116 N 0.12441 0.8016 0.13156 0.0
C117 C 0.13519 0.82753 0.13086 0.0
C118 C 0.12172 0.83282 0.11928 0.0
C119 C 0.10963 0.82225 0.11416 0.0
C120 C 0.13594 0.81173 0.13706 0.0
H121 H 0.10197 0.79832 0.11618 0.0
C122 C 0.10006 0.76444 0.12414 0.0
O123 O 0.08566 0.75393 0.19193 0.0
O124 O 0.08392 0.77924 0.18477 0.0
N125 N 0.14806 0.79052 0.15502 0.0
C126 C 0.16029 0.78347 0.16613 0.0
C127 C 0.17354 0.79229 0.17196 0.0
C128 C 0.17424 0.80815 0.16581 0.0
C129 C 0.16152 0.81516 0.15436 0.0
C130 C 0.14861 0.80579 0.14907 0.0
H131 H 0.16 0.77117 0.17029 0.0
O132 O 0.11362 0.77423 0.20513 0.0
O133 O 0.11746 0.78279 0.16897 0.0
O134 O 0.11928 0.7491 0.17243 0.0
O135 O 0.13757 0.7599 0.1492 0.0
C136 C 0.16121 0.83102 0.1477 0.0
C137 C 0.14797 0.83726 0.13628 0.0
H138 H 0.12055 0.84496 0.1142 0.0
H139 H 0.09919 0.82625 0.10524 0.0
H140 H 0.18331 0.78682 0.18081 0.0
H141 H 0.18462 0.81484 0.16997 0.0
H142 H 0.17107 0.83856 0.1514 0.0
H143 H 0.1478 0.8495 0.13151 0.0
Mn144 Mn 0.23985 0.90444 0.33527 0.0
Mn145 Mn 0.2235 0.87775 0.37148 0.0
C146 C 0.22286 0.88569 0.32001 0.0
C147 C 0.23999 0.92929 0.31795 0.0
C148 C 0.25709 0.87582 0.35427 0.0
O149 O 0.24391 0.91354 0.36814 0.0
O150 O 0.23015 0.8963 0.38974 0.0
C151 C 0.19532 0.8956 0.38523 0.0
N152 N 0.20195 0.88237 0.37649 0.0
C153 C 0.17714 0.86924 0.37543 0.0
C154 C 0.17004 0.88267 0.38467 0.0
C155 C 0.17915 0.89596 0.38937 0.0
C156 C 0.19324 0.86971 0.37121 0.0
H157 H 0.20234 0.90577 0.38903 0.0
C158 C 0.23822 0.9088 0.38767 0.0
O159 O 0.25269 0.92117 0.32037 0.0
O160 O 0.22722 0.9231 0.32603 0.0
N161 N 0.21631 0.85902 0.35678 0.0
C162 C 0.22488 0.84731 0.34692 0.0
C163 C 0.21754 0.83319 0.34099 0.0
C164 C 0.20157 0.83114 0.34575 0.0
C165 C 0.19298 0.84339 0.3558 0.0
C166 C 0.20089 0.85724 0.36111 0.0
H167 H 0.23725 0.84864 0.34387 0.0
O168 O 0.23251 0.89314 0.30643 0.0
O169 O 0.22304 0.88976 0.34207 0.0
O170 O 0.25662 0.88774 0.34079 0.0
O171 O 0.24558 0.8716 0.36712 0.0
C172 C 0.1769 0.84238 0.36095 0.0
C173 C 0.16893 0.85538 0.37037 0.0
H174 H 0.1576 0.88292 0.38813 0.0
H175 H 0.17375 0.9064 0.39637 0.0
H176 H 0.22423 0.82381 0.33317 0.0
H177 H 0.19603 0.82012 0.34154 0.0
H178 H 0.1705 0.83173 0.35743 0.0
H179 H 0.15651 0.85457 0.37375 0.0
Mn180 Mn 0.09839 0.23988 0.32995 0.0
Mn181 Mn 0.12819 0.22263 0.35924 0.0
C182 C 0.11566 0.22377 0.30982 0.0
C183 C 0.07243 0.24002 0.31686 0.0
C184 C 0.1281 0.25691 0.34526 0.0
O185 O 0.09203 0.24225 0.36458 0.0
O186 O 0.11126 0.2282 0.38158 0.0
C187 C 0.11238 0.19353 0.37424 0.0
N188 N 0.12448 0.20079 0.3632 0.0
C189 C 0.13709 0.17624 0.35522 0.0
C190 C 0.12483 0.16849 0.36671 0.0
C191 C 0.11239 0.17718 0.37617 0.0
C192 C 0.13645 0.19255 0.35389 0.0
H193 H 0.10281 0.20018 0.3815 0.0
C194 C 0.0985 0.236 0.38257 0.0
O195 O 0.08036 0.25285 0.31923 0.0
O196 O 0.07939 0.22718 0.32292 0.0
N197 N 0.14549 0.21647 0.34003 0.0
C198 C 0.15575 0.22562 0.32793 0.0
C199 C 0.16861 0.2187 0.31667 0.0
C200 C 0.17089 0.20249 0.3182 0.0
C201 C 0.16022 0.19332 0.33083 0.0
C202 C 0.14767 0.20088 0.3418 0.0
H203 H 0.15414 0.23811 0.32686 0.0
O204 O 0.10727 0.23395 0.29859 0.0
O205 O 0.1136 0.22313 0.3325 0.0
O206 O 0.11519 0.2568 0.33402 0.0
O207 O 0.13354 0.24493 0.35586 0.0
C208 C 0.16133 0.17694 0.33249 0.0
C209 C 0.14974 0.1684 0.34462 0.0
H210 H 0.12476 0.15588 0.36816 0.0
H211 H 0.10284 0.17128 0.38493 0.0
H212 H 0.17677 0.22584 0.30688 0.0
H213 H 0.1808 0.19719 0.30944 0.0
H214 H 0.17086 0.17076 0.32409 0.0
H215 H 0.15056 0.15578 0.34539 0.0
Mn216 Mn 0.76389 0.10407 0.33796 0.0
Mn217 Mn 0.7808 0.13031 0.37432 0.0
C218 C 0.7807 0.12295 0.32268 0.0
C219 C 0.76361 0.07942 0.32001 0.0
C220 C 0.74703 0.13261 0.35802 0.0
O221 O 0.76023 0.09462 0.37069 0.0
O222 O 0.77425 0.11161 0.39235 0.0
C223 C 0.80902 0.11211 0.38684 0.0
N224 N 0.80238 0.12548 0.37858 0.0
C225 C 0.82733 0.1383 0.37656 0.0
C226 C 0.83444 0.12474 0.38532 0.0
C227 C 0.82526 0.11153 0.39027 0.0
C228 C 0.81115 0.13807 0.37308 0.0
H229 H 0.80196 0.102 0.39076 0.0
C230 C 0.76616 0.09914 0.39018 0.0
O231 O 0.75091 0.08746 0.32293 0.0
O232 O 0.77644 0.08555 0.32798 0.0
N233 N 0.78794 0.14914 0.35981 0.0
C234 C 0.77934 0.16102 0.35047 0.0
C235 C 0.78676 0.17506 0.34431 0.0
C236 C 0.80285 0.17685 0.34829 0.0
C237 C 0.81147 0.16444 0.35787 0.0
C238 C 0.80346 0.1507 0.36347 0.0
H239 H 0.7669 0.15987 0.34798 0.0
O240 O 0.77088 0.11566 0.30919 0.0
O241 O 0.78081 0.11863 0.34464 0.0
O242 O 0.74724 0.12079 0.34433 0.0
O243 O 0.75871 0.13664 0.37066 0.0
C244 C 0.82765 0.1652 0.36225 0.0
C245 C 0.83563 0.15206 0.37121 0.0
H246 H 0.84694 0.12431 0.38821 0.0
H247 H 0.83067 0.10099 0.39688 0.0
H248 H 0.78005 0.18456 0.33688 0.0
H249 H 0.80846 0.1878 0.34388 0.0
H250 H 0.83413 0.17578 0.35851 0.0
H251 H 0.84813 0.15269 0.37401 0.0
Mn252 Mn 0.90531 0.76749 0.33301 0.0
Mn253 Mn 0.87582 0.78449 0.36343 0.0
C254 C 0.88776 0.78373 0.31349 0.0
C255 C 0.93112 0.76739 0.31921 0.0
C256 C 0.87558 0.75041 0.34844 0.0
O257 O 0.91221 0.76488 0.36737 0.0
O258 O 0.89289 0.77831 0.38506 0.0
C259 C 0.89224 0.81306 0.37924 0.0
N260 N 0.87984 0.80617 0.36841 0.0
C261 C 0.86711 0.83095 0.36289 0.0
C262 C 0.87969 0.83832 0.37419 0.0
C263 C 0.89234 0.82934 0.38229 0.0
C264 C 0.86767 0.8147 0.36039 0.0
H265 H 0.90196 0.80618 0.38549 0.0
C266 C 0.90578 0.77074 0.38565 0.0
O267 O 0.92319 0.75457 0.32162 0.0
O268 O 0.92424 0.78022 0.32554 0.0
N269 N 0.85831 0.79126 0.34519 0.0
C270 C 0.8477 0.78249 0.33316 0.0
C271 C 0.83447 0.78972 0.32345 0.0
C272 C 0.83225 0.80587 0.3263 0.0
C273 C 0.84332 0.81466 0.33874 0.0
C274 C 0.85616 0.80677 0.34831 0.0
H275 H 0.84927 0.77005 0.33113 0.0
O276 O 0.89603 0.77358 0.30201 0.0
O277 O 0.89009 0.7843 0.33616 0.0
O278 O 0.88855 0.75053 0.33735 0.0
O279 O 0.87016 0.76234 0.35914 0.0
C280 C 0.84228 0.83097 0.34163 0.0
C281 C 0.85421 0.83912 0.35361 0.0
H282 H 0.87983 0.85088 0.37651 0.0
H283 H 0.90212 0.83495 0.39089 0.0
H284 H 0.82599 0.78287 0.31381 0.0
H285 H 0.82208 0.81143 0.31864 0.0
H286 H 0.83252 0.83739 0.33433 0.0
H287 H 0.85343 0.8517 0.35533 0.0
Mn288 Mn 0.7669 0.90406 0.83412 0.0
Mn289 Mn 0.78425 0.87484 0.86466 0.0
C290 C 0.78322 0.8866 0.81462 0.0
C291 C 0.7667 0.92984 0.82024 0.0
C292 C 0.75011 0.87426 0.84989 0.0
O293 O 0.76428 0.911 0.86843 0.0
O294 O 0.77802 0.89193 0.88622 0.0
C295 C 0.81276 0.89149 0.88017 0.0
N296 N 0.80592 0.87902 0.86944 0.0
C297 C 0.83079 0.86649 0.86376 0.0
C298 C 0.8381 0.87914 0.87493 0.0
C299 C 0.82905 0.89172 0.88306 0.0
C300 C 0.81452 0.86691 0.8614 0.0
H301 H 0.80582 0.90116 0.88645 0.0
C302 C 0.77028 0.90471 0.88673 0.0
O303 O 0.75389 0.92188 0.82265 0.0
O304 O 0.77954 0.923 0.82662 0.0
N305 N 0.79108 0.85733 0.84649 0.0
C306 C 0.78234 0.84666 0.83454 0.0
C307 C 0.78965 0.8335 0.82475 0.0
C308 C 0.80583 0.8314 0.82746 0.0
C309 C 0.81457 0.84254 0.83983 0.0
C310 C 0.80662 0.85532 0.84946 0.0
H311 H 0.76988 0.84813 0.83261 0.0
O312 O 0.77299 0.89478 0.80315 0.0
O313 O 0.78383 0.88898 0.83727 0.0
O314 O 0.75006 0.88716 0.83861 0.0
O315 O 0.76213 0.86903 0.8606 0.0
C316 C 0.83091 0.84164 0.84257 0.0
C317 C 0.83902 0.85364 0.85444 0.0
H318 H 0.85067 0.87938 0.87713 0.0
H319 H 0.83462 0.90156 0.89157 0.0
H320 H 0.78282 0.82496 0.81517 0.0
H321 H 0.81144 0.82129 0.81975 0.0
H322 H 0.83738 0.83193 0.83522 0.0
H323 H 0.85161 0.85298 0.85603 0.0
Mn324 Mn 0.10433 0.76646 0.83735 0.0
Mn325 Mn 0.13167 0.78245 0.87297 0.0
C326 C 0.12273 0.78375 0.82209 0.0
C327 C 0.07945 0.76612 0.82005 0.0
C328 C 0.13427 0.74965 0.85367 0.0
O329 O 0.09535 0.76216 0.87016 0.0
O330 O 0.11449 0.77318 0.89161 0.0
C331 C 0.11205 0.80815 0.89143 0.0
N332 N 0.12539 0.80322 0.8807 0.0
C333 C 0.13591 0.82925 0.88039 0.0
C334 C 0.1223 0.83464 0.89148 0.0
C335 C 0.11027 0.82405 0.89687 0.0
C336 C 0.13685 0.81335 0.87492 0.0
H337 H 0.10288 0.8 0.89586 0.0
C338 C 0.10157 0.76578 0.88984 0.0
O339 O 0.08771 0.75351 0.82237 0.0
O340 O 0.08547 0.77891 0.82831 0.0
N341 N 0.14931 0.79191 0.85816 0.0
C342 C 0.16169 0.78477 0.84759 0.0
C343 C 0.17491 0.79359 0.84161 0.0
C344 C 0.17542 0.80957 0.84708 0.0
C345 C 0.16254 0.81668 0.85796 0.0
C346 C 0.14967 0.80729 0.86342 0.0
H347 H 0.16155 0.77239 0.84399 0.0
O348 O 0.11536 0.77405 0.80852 0.0
O349 O 0.11888 0.78343 0.84427 0.0
O350 O 0.12132 0.74972 0.84247 0.0
O351 O 0.13922 0.76132 0.86552 0.0
C352 C 0.16203 0.83266 0.86389 0.0
C353 C 0.14864 0.83899 0.87476 0.0
H354 H 0.12097 0.84686 0.89598 0.0
H355 H 0.09973 0.82811 0.90543 0.0
H356 H 0.1848 0.78804 0.8332 0.0
H357 H 0.18578 0.81627 0.84284 0.0
H358 H 0.17185 0.84022 0.86004 0.0
H359 H 0.14832 0.85132 0.87897 0.0
Mn360 Mn 0.2395 0.10001 0.83346 0.0
Mn361 Mn 0.22166 0.12844 0.86498 0.0
C362 C 0.22283 0.1176 0.81486 0.0
C363 C 0.24031 0.07448 0.81852 0.0
C364 C 0.25553 0.13032 0.84934 0.0
O365 O 0.24248 0.09251 0.86747 0.0
O366 O 0.22915 0.11154 0.88593 0.0
C367 C 0.19445 0.10988 0.88087 0.0
N368 N 0.20035 0.12285 0.87021 0.0
C369 C 0.17468 0.1338 0.86547 0.0
C370 C 0.16832 0.12064 0.87663 0.0
C371 C 0.17825 0.10857 0.8842 0.0
C372 C 0.19089 0.13435 0.86239 0.0
H373 H 0.20205 0.10061 0.88677 0.0
C374 C 0.23691 0.09878 0.88607 0.0
O375 O 0.25291 0.08273 0.82119 0.0
O376 O 0.22731 0.08088 0.82522 0.0
N377 N 0.21353 0.14575 0.84756 0.0
C378 C 0.22147 0.15736 0.83633 0.0
C379 C 0.2132 0.17016 0.82713 0.0
C380 C 0.19694 0.17107 0.8301 0.0
C381 C 0.18906 0.15912 0.8421 0.0
C382 C 0.19789 0.14659 0.85067 0.0
H383 H 0.234 0.15686 0.83439 0.0
O384 O 0.23308 0.10977 0.8029 0.0
O385 O 0.22229 0.11468 0.83733 0.0
O386 O 0.2559 0.11724 0.83853 0.0
O387 O 0.24341 0.1354 0.86002 0.0
C388 C 0.17278 0.15911 0.84586 0.0
C389 C 0.16557 0.14637 0.85726 0.0
H390 H 0.15584 0.11964 0.87935 0.0
H391 H 0.17343 0.09834 0.8927 0.0
H392 H 0.21937 0.17935 0.81795 0.0
H393 H 0.19062 0.18098 0.82305 0.0
H394 H 0.16566 0.16877 0.83984 0.0
H395 H 0.15302 0.14637 0.85964 0.0
Mn396 Mn 0.90363 0.24132 0.83292 0.0
Mn397 Mn 0.87622 0.2245 0.86744 0.0
C398 C 0.88495 0.22491 0.81633 0.0
C399 C 0.92873 0.24132 0.81642 0.0
C400 C 0.87497 0.25851 0.85197 0.0
O401 O 0.91223 0.24458 0.86629 0.0
O402 O 0.89463 0.23042 0.88662 0.0
C403 C 0.89361 0.19577 0.87986 0.0
N404 N 0.88064 0.20275 0.87081 0.0
C405 C 0.86787 0.17797 0.8657 0.0
C406 C 0.88103 0.17051 0.87519 0.0
C407 C 0.89401 0.17944 0.88209 0.0
C408 C 0.86831 0.19424 0.86336 0.0
H409 H 0.90356 0.20262 0.88532 0.0
C410 C 0.90721 0.23844 0.88536 0.0
O411 O 0.92083 0.25413 0.81911 0.0
O412 O 0.92221 0.22855 0.82385 0.0
N413 N 0.85757 0.21798 0.85167 0.0
C414 C 0.84564 0.22699 0.8434 0.0
C415 C 0.83184 0.21983 0.83551 0.0
C416 C 0.83022 0.20354 0.83694 0.0
C417 C 0.84242 0.19456 0.84632 0.0
C418 C 0.85602 0.20231 0.85348 0.0
H419 H 0.84663 0.23954 0.84277 0.0
O420 O 0.89273 0.23462 0.8033 0.0
O421 O 0.88865 0.22472 0.83851 0.0
O422 O 0.88701 0.25813 0.8387 0.0
O423 O 0.87046 0.24682 0.86427 0.0
C424 C 0.84148 0.17827 0.84935 0.0
C425 C 0.85427 0.16994 0.85874 0.0
H426 H 0.88129 0.15793 0.87724 0.0
H427 H 0.90424 0.17377 0.88932 0.0
H428 H 0.82239 0.22687 0.82859 0.0
H429 H 0.8195 0.19807 0.83106 0.0
H430 H 0.83105 0.17197 0.84416 0.0
H431 H 0.85351 0.15738 0.86057 0.0
Mn432 Mn 0.76636 0.10094 0.67634 0.0
Mn433 Mn 0.78223 0.1273 0.63908 0.0
C434 C 0.78257 0.1206 0.69096 0.0
C435 C 0.76669 0.07645 0.69479 0.0
C436 C 0.74851 0.12867 0.65572 0.0
O437 O 0.76276 0.09103 0.64386 0.0
O438 O 0.77611 0.10825 0.62172 0.0
C439 C 0.81087 0.10966 0.62698 0.0
N440 N 0.80391 0.12298 0.6348 0.0
C441 C 0.82853 0.13646 0.63625 0.0
C442 C 0.83597 0.12293 0.62801 0.0
C443 C 0.82711 0.10943 0.62356 0.0
C444 C 0.81237 0.13587 0.63982 0.0
H445 H 0.80405 0.09932 0.62337 0.0
C446 C 0.76839 0.09559 0.62419 0.0
O447 O 0.75382 0.08421 0.69176 0.0
O448 O 0.77939 0.08281 0.68674 0.0
N449 N 0.78889 0.14657 0.65271 0.0
C450 C 0.77992 0.15855 0.66088 0.0
C451 C 0.78685 0.17309 0.66539 0.0
C452 C 0.80285 0.17523 0.66112 0.0
C453 C 0.81193 0.16265 0.65319 0.0
C454 C 0.80435 0.14848 0.64882 0.0
H455 H 0.76751 0.15714 0.66342 0.0
O456 O 0.77312 0.11308 0.70476 0.0
O457 O 0.78274 0.11601 0.66913 0.0
O458 O 0.74923 0.11703 0.66968 0.0
O459 O 0.75996 0.13301 0.64282 0.0
C460 C 0.82813 0.1637 0.64901 0.0
C461 C 0.83647 0.15053 0.64092 0.0
H462 H 0.84847 0.12277 0.62509 0.0
H463 H 0.83277 0.09892 0.6173 0.0
H464 H 0.77981 0.18272 0.67166 0.0
H465 H 0.80804 0.1866 0.66395 0.0
H466 H 0.83432 0.17454 0.65209 0.0
H467 H 0.84895 0.15141 0.6381 0.0
Mn468 Mn 0.90783 0.76632 0.67854 0.0
Mn469 Mn 0.87868 0.78467 0.64925 0.0
C470 C 0.89073 0.7825 0.69888 0.0
C471 C 0.9337 0.76569 0.6921 0.0
C472 C 0.87787 0.75019 0.66212 0.0
O473 O 0.91441 0.76427 0.64397 0.0
O474 O 0.8957 0.77906 0.62709 0.0
C475 C 0.89526 0.81363 0.63557 0.0
N476 N 0.8829 0.80647 0.64611 0.0
C477 C 0.87073 0.83117 0.65461 0.0
C478 C 0.88327 0.83881 0.64364 0.0
C479 C 0.89561 0.83 0.63417 0.0
C480 C 0.87101 0.81484 0.65542 0.0
H481 H 0.90476 0.80688 0.6283 0.0
C482 C 0.90826 0.77096 0.62608 0.0
O483 O 0.92563 0.75298 0.68928 0.0
O484 O 0.92693 0.77867 0.68619 0.0
N485 N 0.86134 0.79092 0.66831 0.0
C486 C 0.85078 0.78182 0.67989 0.0
C487 C 0.83796 0.78886 0.6911 0.0
C488 C 0.83604 0.80513 0.69005 0.0
C489 C 0.84701 0.81425 0.67793 0.0
C490 C 0.85951 0.80658 0.667 0.0
H491 H 0.85212 0.7693 0.6806 0.0
O492 O 0.89884 0.77201 0.70992 0.0
O493 O 0.89299 0.78342 0.67626 0.0
O494 O 0.89067 0.74979 0.67364 0.0
O495 O 0.87285 0.76246 0.6518 0.0
C496 C 0.84627 0.83067 0.67678 0.0
C497 C 0.85814 0.83913 0.66518 0.0
H498 H 0.88362 0.85144 0.64261 0.0
H499 H 0.90537 0.83582 0.62582 0.0
H500 H 0.82957 0.78175 0.70049 0.0
H501 H 0.82616 0.81052 0.69877 0.0
H502 H 0.83678 0.83692 0.68517 0.0
H503 H 0.8576 0.85176 0.66481 0.0
Mn504 Mn 0.24087 0.90327 0.67477 0.0
Mn505 Mn 0.2243 0.8764 0.63908 0.0
C506 C 0.22393 0.8846 0.69041 0.0
C507 C 0.24102 0.92817 0.69199 0.0
C508 C 0.25795 0.87446 0.656 0.0
O509 O 0.24472 0.91228 0.64177 0.0
O510 O 0.23104 0.89478 0.62056 0.0
C511 C 0.19622 0.89432 0.62508 0.0
N512 N 0.20278 0.88112 0.63408 0.0
C513 C 0.17788 0.86816 0.63547 0.0
C514 C 0.17085 0.88157 0.62602 0.0
C515 C 0.18004 0.89476 0.62101 0.0
C516 C 0.19399 0.86856 0.63962 0.0
H517 H 0.2033 0.9044 0.621 0.0
C518 C 0.23902 0.90735 0.62234 0.0
O519 O 0.25374 0.9201 0.68947 0.0
O520 O 0.22825 0.92193 0.68402 0.0
N521 N 0.21703 0.8578 0.65408 0.0
C522 C 0.22555 0.84609 0.66404 0.0
C523 C 0.21814 0.83205 0.67018 0.0
C524 C 0.20215 0.83008 0.66554 0.0
C525 C 0.1936 0.84234 0.65541 0.0
C526 C 0.20159 0.8561 0.64987 0.0
H527 H 0.23794 0.84736 0.66698 0.0
O528 O 0.23369 0.89207 0.7038 0.0
O529 O 0.224 0.88858 0.66831 0.0
O530 O 0.25764 0.88652 0.66918 0.0
O531 O 0.24634 0.87015 0.64345 0.0
C532 C 0.1775 0.84141 0.65037 0.0
C533 C 0.16959 0.8544 0.6408 0.0
H534 H 0.1584 0.88187 0.6226 0.0
H535 H 0.17469 0.90517 0.61381 0.0
H536 H 0.22479 0.82266 0.67806 0.0
H537 H 0.19655 0.81911 0.6699 0.0
H538 H 0.17104 0.83082 0.65408 0.0
H539 H 0.15715 0.85365 0.63749 0.0
Mn540 Mn 0.1006 0.2382 0.67555 0.0
Mn541 Mn 0.1295 0.2206 0.64471 0.0
C542 C 0.11813 0.22168 0.69455 0.0
C543 C 0.07495 0.23892 0.68998 0.0
C544 C 0.13099 0.25444 0.66046 0.0
O545 O 0.09337 0.24107 0.64138 0.0
O546 O 0.1128 0.22806 0.62337 0.0
C547 C 0.11122 0.19337 0.62816 0.0
N548 N 0.12405 0.19928 0.6392 0.0
C549 C 0.13506 0.17365 0.644 0.0
C550 C 0.12205 0.16727 0.63247 0.0
C551 C 0.11002 0.17717 0.62467 0.0
C552 C 0.13551 0.18985 0.64723 0.0
H553 H 0.102 0.20095 0.62205 0.0
C554 C 0.09994 0.23564 0.62292 0.0
O555 O 0.08316 0.25154 0.6874 0.0
O556 O 0.08146 0.22593 0.68347 0.0
N557 N 0.14666 0.21248 0.66249 0.0
C558 C 0.15814 0.22043 0.67401 0.0
C559 C 0.17088 0.21219 0.68341 0.0
C560 C 0.1719 0.19595 0.68035 0.0
C561 C 0.16009 0.18806 0.66804 0.0
C562 C 0.1476 0.19686 0.65929 0.0
H563 H 0.15757 0.23296 0.67603 0.0
O564 O 0.11013 0.2319 0.70631 0.0
O565 O 0.11543 0.22109 0.67202 0.0
O566 O 0.11775 0.25472 0.67079 0.0
O567 O 0.13633 0.24235 0.64998 0.0
C568 C 0.16019 0.1718 0.66415 0.0
C569 C 0.1476 0.16457 0.65242 0.0
H570 H 0.12114 0.1548 0.62962 0.0
H571 H 0.0999 0.17234 0.61588 0.0
H572 H 0.17997 0.21837 0.69283 0.0
H573 H 0.18178 0.18965 0.68756 0.0
H574 H 0.16983 0.1647 0.67032 0.0
H575 H 0.14768 0.15203 0.64993 0.0
Mn576 Mn 0.74112 0.60423 0.67305 0.0
Mn577 Mn 0.72496 0.63136 0.63735 0.0
C578 C 0.7244 0.62311 0.68866 0.0
C579 C 0.74109 0.5793 0.69019 0.0
C580 C 0.75859 0.63285 0.65443 0.0
O581 O 0.74491 0.59522 0.64002 0.0
O582 O 0.73149 0.61292 0.6188 0.0
C583 C 0.69668 0.6137 0.62345 0.0
N584 N 0.70338 0.62687 0.63231 0.0
C585 C 0.67862 0.64006 0.63369 0.0
C586 C 0.67145 0.62671 0.62429 0.0
C587 C 0.6805 0.61342 0.61938 0.0
C588 C 0.69472 0.63952 0.63782 0.0
H589 H 0.70365 0.60352 0.61954 0.0
C590 C 0.7393 0.60025 0.62059 0.0
O591 O 0.75386 0.5873 0.68767 0.0
O592 O 0.72834 0.58565 0.68229 0.0
N593 N 0.71786 0.65003 0.65234 0.0
C594 C 0.72648 0.66165 0.66234 0.0
C595 C 0.71919 0.67573 0.66858 0.0
C596 C 0.70322 0.67785 0.66396 0.0
C597 C 0.69457 0.66571 0.65369 0.0
C598 C 0.70244 0.65189 0.6481 0.0
H599 H 0.73886 0.66026 0.66529 0.0
O600 O 0.73402 0.61549 0.70208 0.0
O601 O 0.72445 0.61913 0.66656 0.0
O602 O 0.75806 0.62076 0.66754 0.0
O603 O 0.74708 0.63736 0.64182 0.0
C604 C 0.67849 0.66681 0.64859 0.0
C605 C 0.67046 0.6539 0.639 0.0
H606 H 0.659 0.62652 0.62088 0.0
H607 H 0.67505 0.60304 0.61227 0.0
H608 H 0.72592 0.68503 0.67654 0.0
H609 H 0.6977 0.68884 0.66843 0.0
H610 H 0.67213 0.67746 0.65229 0.0
H611 H 0.65803 0.65478 0.63567 0.0
Mn612 Mn 0.4054 0.73897 0.67687 0.0
Mn613 Mn 0.37722 0.72074 0.64535 0.0
C614 C 0.38775 0.72246 0.69561 0.0
C615 C 0.4309 0.73981 0.69199 0.0
C616 C 0.37518 0.75478 0.66011 0.0
O617 O 0.41303 0.74169 0.64288 0.0
O618 O 0.39424 0.72797 0.62445 0.0
C619 C 0.39584 0.69334 0.63046 0.0
N620 N 0.38282 0.69937 0.6408 0.0
C621 C 0.37184 0.67377 0.64613 0.0
C622 C 0.38506 0.66728 0.63532 0.0
C623 C 0.39716 0.6771 0.62761 0.0
C624 C 0.37127 0.69001 0.64873 0.0
H625 H 0.40514 0.70087 0.62443 0.0
C626 C 0.40694 0.73585 0.62433 0.0
O627 O 0.4227 0.75242 0.68908 0.0
O628 O 0.42447 0.7268 0.68545 0.0
N629 N 0.35979 0.71283 0.66275 0.0
C630 C 0.34812 0.72091 0.67361 0.0
C631 C 0.33528 0.71276 0.68289 0.0
C632 C 0.33438 0.69647 0.68039 0.0
C633 C 0.34639 0.68844 0.66876 0.0
C634 C 0.35896 0.69716 0.66009 0.0
H635 H 0.34862 0.73347 0.6752 0.0
O636 O 0.39553 0.73281 0.70745 0.0
O637 O 0.39078 0.72172 0.67319 0.0
O638 O 0.38814 0.7553 0.67128 0.0
O639 O 0.37025 0.74254 0.64958 0.0
C640 C 0.34642 0.67212 0.66549 0.0
C641 C 0.35922 0.66477 0.65445 0.0
H642 H 0.38607 0.65476 0.63297 0.0
H643 H 0.40744 0.67218 0.61937 0.0
H644 H 0.32604 0.71905 0.69179 0.0
H645 H 0.32443 0.69024 0.68751 0.0
H646 H 0.33673 0.66507 0.67161 0.0
H647 H 0.35923 0.65219 0.65245 0.0
Mn648 Mn 0.26522 0.40318 0.67958 0.0
Mn649 Mn 0.28277 0.37397 0.64928 0.0
C650 C 0.28159 0.38583 0.69922 0.0
C651 C 0.26464 0.4289 0.69366 0.0
C652 C 0.24875 0.373 0.66431 0.0
O653 O 0.26276 0.41024 0.6453 0.0
O654 O 0.27593 0.39079 0.62763 0.0
C655 C 0.31073 0.39114 0.63281 0.0
N656 N 0.3043 0.37863 0.64398 0.0
C657 C 0.32951 0.36673 0.64936 0.0
C658 C 0.33641 0.37946 0.63782 0.0
C659 C 0.32699 0.39175 0.62959 0.0
C660 C 0.31325 0.36678 0.65205 0.0
H661 H 0.3035 0.40057 0.62639 0.0
C662 C 0.2684 0.40369 0.62696 0.0
O663 O 0.25195 0.4208 0.69095 0.0
O664 O 0.27762 0.42224 0.68742 0.0
N665 N 0.29018 0.35669 0.66745 0.0
C666 C 0.28178 0.34578 0.67947 0.0
C667 C 0.28947 0.3328 0.68914 0.0
C668 C 0.30568 0.33114 0.68629 0.0
C669 C 0.31407 0.34248 0.67377 0.0
C670 C 0.30574 0.35505 0.66423 0.0
H671 H 0.26929 0.34693 0.68155 0.0
O672 O 0.27121 0.39389 0.71056 0.0
O673 O 0.28232 0.38823 0.67656 0.0
O674 O 0.2485 0.38616 0.67487 0.0
O675 O 0.26086 0.36769 0.65396 0.0
C676 C 0.3304 0.34197 0.67076 0.0
C677 C 0.33812 0.35413 0.65865 0.0
H678 H 0.34895 0.37998 0.63534 0.0
H679 H 0.33224 0.40163 0.62074 0.0
H680 H 0.2829 0.32408 0.69876 0.0
H681 H 0.3116 0.32118 0.69397 0.0
H682 H 0.33716 0.33243 0.67804 0.0
H683 H 0.35071 0.35374 0.6568 0.0
Mn684 Mn 0.60261 0.26506 0.67723 0.0
Mn685 Mn 0.63205 0.2819 0.64643 0.0
C686 C 0.61999 0.2817 0.69625 0.0
C687 C 0.57691 0.26454 0.69142 0.0
C688 C 0.63294 0.2483 0.66294 0.0
O689 O 0.59554 0.26204 0.64307 0.0
O690 O 0.61564 0.27395 0.62494 0.0
C691 C 0.61441 0.30896 0.62782 0.0
N692 N 0.62699 0.30313 0.63956 0.0
C693 C 0.63829 0.32873 0.6435 0.0
C694 C 0.62549 0.33502 0.63133 0.0
C695 C 0.61347 0.32509 0.62354 0.0
C696 C 0.63857 0.31258 0.64726 0.0
H697 H 0.6052 0.30134 0.62173 0.0
C698 C 0.60267 0.26653 0.62451 0.0
O699 O 0.58508 0.25188 0.68904 0.0
O700 O 0.58348 0.27749 0.6848 0.0
N701 N 0.64906 0.29019 0.66426 0.0
C702 C 0.66016 0.28235 0.67673 0.0
C703 C 0.67297 0.29056 0.68593 0.0
C704 C 0.67425 0.30673 0.68219 0.0
C705 C 0.66276 0.31453 0.66911 0.0
C706 C 0.65039 0.30568 0.66005 0.0
H707 H 0.65931 0.2699 0.67948 0.0
O708 O 0.61193 0.27149 0.70795 0.0
O709 O 0.6176 0.28208 0.67355 0.0
O710 O 0.61958 0.24825 0.67295 0.0
O711 O 0.63861 0.26029 0.6527 0.0
C712 C 0.66292 0.33076 0.66507 0.0
C713 C 0.65065 0.33787 0.65237 0.0
H714 H 0.62471 0.34745 0.62803 0.0
H715 H 0.60353 0.32986 0.61422 0.0
H716 H 0.68184 0.28444 0.69588 0.0
H717 H 0.68406 0.31306 0.68955 0.0
H718 H 0.67229 0.33793 0.67197 0.0
H719 H 0.65078 0.3504 0.6497 0.0
Mn720 Mn 0.74096 0.40695 0.82966 0.0
Mn721 Mn 0.72289 0.37785 0.85938 0.0
C722 C 0.72472 0.38974 0.80964 0.0
C723 C 0.74151 0.4328 0.81601 0.0
C724 C 0.75735 0.37719 0.84632 0.0
O725 O 0.74315 0.41364 0.86416 0.0
O726 O 0.72845 0.39499 0.88136 0.0
C727 C 0.69385 0.39427 0.87309 0.0
N728 N 0.70106 0.38192 0.86259 0.0
C729 C 0.67642 0.36958 0.85428 0.0
C730 C 0.66872 0.3821 0.86519 0.0
C731 C 0.67747 0.39452 0.87454 0.0
C732 C 0.69275 0.36996 0.8534 0.0
H733 H 0.70056 0.40383 0.88026 0.0
C734 C 0.73654 0.40757 0.88216 0.0
O735 O 0.75424 0.42474 0.81873 0.0
O736 O 0.72855 0.42602 0.82199 0.0
N737 N 0.7167 0.36041 0.84048 0.0
C738 C 0.72585 0.34988 0.82891 0.0
C739 C 0.71887 0.33699 0.81781 0.0
C740 C 0.7026 0.33496 0.81895 0.0
C741 C 0.69344 0.34592 0.83102 0.0
C742 C 0.70106 0.35848 0.84185 0.0
H743 H 0.73837 0.3513 0.82815 0.0
O744 O 0.73513 0.39783 0.7984 0.0
O745 O 0.72394 0.39207 0.83225 0.0
O746 O 0.75758 0.38989 0.83456 0.0
O747 O 0.74516 0.37214 0.85682 0.0
C748 C 0.67702 0.34507 0.83223 0.0
C749 C 0.66851 0.35692 0.8438 0.0
H750 H 0.65609 0.38237 0.86627 0.0
H751 H 0.67161 0.40427 0.88285 0.0
H752 H 0.72601 0.32861 0.80845 0.0
H753 H 0.69726 0.32502 0.81033 0.0
H754 H 0.67081 0.33553 0.82392 0.0
H755 H 0.65588 0.3563 0.84423 0.0
Mn756 Mn 0.6024 0.73959 0.83534 0.0
Mn757 Mn 0.62923 0.72314 0.87128 0.0
C758 C 0.62135 0.72293 0.8198 0.0
C759 C 0.57754 0.73969 0.81794 0.0
C760 C 0.63099 0.75683 0.85454 0.0
O761 O 0.59324 0.74333 0.86829 0.0
O762 O 0.61069 0.72965 0.88961 0.0
C763 C 0.61134 0.69488 0.88453 0.0
N764 N 0.6246 0.70156 0.87595 0.0
C765 C 0.63768 0.67674 0.87439 0.0
C766 C 0.62423 0.66958 0.88347 0.0
C767 C 0.61095 0.67867 0.88834 0.0
C768 C 0.63725 0.69287 0.87048 0.0
H769 H 0.60118 0.70187 0.88843 0.0
C770 C 0.5981 0.73759 0.88772 0.0
O771 O 0.58556 0.75242 0.82063 0.0
O772 O 0.58382 0.7269 0.82581 0.0
N773 N 0.648 0.71606 0.85656 0.0
C774 C 0.65979 0.72471 0.84708 0.0
C775 C 0.67392 0.71741 0.84111 0.0
C776 C 0.67591 0.70139 0.84548 0.0
C777 C 0.6636 0.69272 0.85522 0.0
C778 C 0.64975 0.7006 0.86058 0.0
H779 H 0.6585 0.73712 0.84434 0.0
O780 O 0.61379 0.73258 0.80638 0.0
O781 O 0.61724 0.72285 0.84185 0.0
O782 O 0.619 0.75643 0.8412 0.0
O783 O 0.63533 0.74525 0.86715 0.0
C784 C 0.66457 0.67659 0.86004 0.0
C785 C 0.65153 0.66856 0.86922 0.0
H786 H 0.62396 0.65712 0.8867 0.0
H787 H 0.6005 0.67323 0.89522 0.0
H788 H 0.68336 0.72416 0.83356 0.0
H789 H 0.68694 0.69587 0.84125 0.0
H790 H 0.67523 0.67021 0.85649 0.0
H791 H 0.65232 0.65611 0.87237 0.0
Mn792 Mn 0.26743 0.60035 0.83553 0.0
Mn793 Mn 0.28578 0.62828 0.86737 0.0
C794 C 0.28407 0.61796 0.81699 0.0
C795 C 0.26633 0.57497 0.82019 0.0
C796 C 0.2518 0.63059 0.85236 0.0
O797 O 0.26457 0.59263 0.86944 0.0
O798 O 0.27847 0.61118 0.88813 0.0
C799 C 0.3131 0.60941 0.88195 0.0
N800 N 0.30713 0.62255 0.87187 0.0
C801 C 0.3328 0.63339 0.86654 0.0
C802 C 0.33923 0.62007 0.87714 0.0
C803 C 0.32934 0.60797 0.88471 0.0
C804 C 0.31655 0.63409 0.86404 0.0
H805 H 0.30553 0.60011 0.8878 0.0
C806 C 0.27047 0.59856 0.88807 0.0
O807 O 0.25381 0.58329 0.82315 0.0
O808 O 0.27942 0.58122 0.82685 0.0
N809 N 0.29377 0.64575 0.85017 0.0
C810 C 0.28575 0.65752 0.83944 0.0
C811 C 0.29396 0.67036 0.83029 0.0
C812 C 0.31027 0.67115 0.83276 0.0
C813 C 0.31824 0.65904 0.84423 0.0
C814 C 0.30946 0.64648 0.85282 0.0
H815 H 0.27319 0.6571 0.83786 0.0
O816 O 0.2737 0.61027 0.80505 0.0
O817 O 0.28477 0.61485 0.8394 0.0
O818 O 0.25125 0.61768 0.84111 0.0
O819 O 0.264 0.63539 0.86313 0.0
C820 C 0.33458 0.65888 0.84741 0.0
C821 C 0.34186 0.64598 0.85829 0.0
H822 H 0.35174 0.61895 0.87941 0.0
H823 H 0.33422 0.5976 0.89275 0.0
H824 H 0.28772 0.67968 0.8215 0.0
H825 H 0.31655 0.6811 0.82573 0.0
H826 H 0.34168 0.66854 0.84134 0.0
H827 H 0.35445 0.64587 0.86022 0.0
Mn828 Mn 0.40546 0.26353 0.83265 0.0
Mn829 Mn 0.37644 0.28147 0.86279 0.0
C830 C 0.3885 0.28028 0.81311 0.0
C831 C 0.43127 0.26286 0.81896 0.0
C832 C 0.37523 0.24736 0.84801 0.0
O833 O 0.41211 0.26072 0.86706 0.0
O834 O 0.3933 0.27495 0.88469 0.0
C835 C 0.39351 0.30971 0.87834 0.0
N836 N 0.38105 0.30308 0.8673 0.0
C837 C 0.36938 0.32822 0.86022 0.0
C838 C 0.38203 0.33532 0.87171 0.0
C839 C 0.39417 0.32602 0.88071 0.0
C840 C 0.36935 0.31191 0.85843 0.0
H841 H 0.40286 0.30259 0.88527 0.0
C842 C 0.40589 0.26687 0.88531 0.0
O843 O 0.42306 0.2502 0.82128 0.0
O844 O 0.42469 0.27581 0.82545 0.0
N845 N 0.35925 0.28855 0.84408 0.0
C846 C 0.34851 0.27997 0.83197 0.0
C847 C 0.33584 0.28754 0.82118 0.0
C848 C 0.33422 0.30381 0.82321 0.0
C849 C 0.34537 0.31238 0.83586 0.0
C850 C 0.35771 0.30419 0.84633 0.0
H851 H 0.34962 0.26745 0.83051 0.0
O852 O 0.39648 0.26992 0.80159 0.0
O853 O 0.39079 0.28073 0.83577 0.0
O854 O 0.38818 0.24707 0.83684 0.0
O855 O 0.37022 0.25945 0.85878 0.0
C856 C 0.34493 0.32877 0.83799 0.0
C857 C 0.35696 0.33669 0.85009 0.0
H858 H 0.38261 0.3479 0.8735 0.0
H859 H 0.40402 0.33143 0.88947 0.0
H860 H 0.32731 0.28085 0.81138 0.0
H861 H 0.32445 0.30961 0.81482 0.0
H862 H 0.33557 0.33542 0.82997 0.0
H863 H 0.35666 0.34931 0.85123 0.0
Mn864 Mn 0.26489 0.40277 0.33689 0.0
Mn865 Mn 0.27958 0.37453 0.37221 0.0
C866 C 0.2818 0.384 0.32167 0.0
C867 C 0.26545 0.42778 0.32006 0.0
C868 C 0.24693 0.37322 0.35207 0.0
O869 O 0.26052 0.41157 0.36982 0.0
O870 O 0.27054 0.39174 0.39096 0.0
C871 C 0.30554 0.39321 0.392 0.0
N872 N 0.3004 0.38014 0.38076 0.0
C873 C 0.32612 0.36888 0.38109 0.0
C874 C 0.33172 0.3822 0.39272 0.0
C875 C 0.3214 0.39447 0.39804 0.0
C876 C 0.31028 0.36845 0.37504 0.0
H877 H 0.29759 0.40255 0.39639 0.0
C878 C 0.26361 0.40491 0.3894 0.0
O879 O 0.25259 0.41988 0.32196 0.0
O880 O 0.27799 0.42133 0.32849 0.0
N881 N 0.28875 0.35681 0.35723 0.0
C882 C 0.28142 0.34477 0.34608 0.0
C883 C 0.28997 0.33138 0.34001 0.0
C884 C 0.30585 0.33036 0.34599 0.0
C885 C 0.31314 0.34289 0.35751 0.0
C886 C 0.30404 0.35595 0.36299 0.0
H887 H 0.26909 0.3453 0.3421 0.0
O888 O 0.27245 0.39176 0.30801 0.0
O889 O 0.28131 0.38764 0.34391 0.0
O890 O 0.24757 0.38629 0.34126 0.0
O891 O 0.25832 0.36768 0.36395 0.0
C892 C 0.32903 0.34285 0.36407 0.0
C893 C 0.33557 0.35593 0.37551 0.0
H894 H 0.34391 0.38313 0.39768 0.0
H895 H 0.32563 0.40479 0.407 0.0
H896 H 0.28427 0.32177 0.33111 0.0
H897 H 0.31232 0.31988 0.34164 0.0
H898 H 0.33636 0.33285 0.36027 0.0
H899 H 0.34784 0.35584 0.38018 0.0
Mn900 Mn 0.59982 0.26823 0.33441 0.0
Mn901 Mn 0.62754 0.28653 0.36673 0.0
C902 C 0.6178 0.28455 0.31608 0.0
C903 C 0.57451 0.26742 0.31866 0.0
C904 C 0.62966 0.25237 0.35251 0.0
O905 O 0.59172 0.26568 0.36814 0.0
O906 O 0.6101 0.2796 0.38714 0.0
C907 C 0.60891 0.3142 0.38042 0.0
N908 N 0.62203 0.30798 0.37064 0.0
C909 C 0.63323 0.33346 0.36497 0.0
C910 C 0.6199 0.34015 0.37519 0.0
C911 C 0.60764 0.33047 0.38281 0.0
C912 C 0.63375 0.31718 0.36285 0.0
H913 H 0.59949 0.30679 0.38637 0.0
C914 C 0.59743 0.27169 0.38684 0.0
O915 O 0.58263 0.25479 0.32185 0.0
O916 O 0.58093 0.28044 0.3252 0.0
N917 N 0.6453 0.29415 0.34982 0.0
C918 C 0.65707 0.28588 0.33953 0.0
C919 C 0.67008 0.29385 0.33044 0.0
C920 C 0.67103 0.31017 0.33252 0.0
C921 C 0.6589 0.3184 0.34355 0.0
C922 C 0.64618 0.30984 0.35209 0.0
H923 H 0.65652 0.27332 0.33824 0.0
O924 O 0.61012 0.27419 0.30409 0.0
O925 O 0.61445 0.28542 0.33839 0.0
O926 O 0.61694 0.25187 0.34073 0.0
O927 O 0.63441 0.26463 0.3632 0.0
C928 C 0.65889 0.33476 0.34631 0.0
C929 C 0.64599 0.3423 0.35676 0.0
H930 H 0.61892 0.35269 0.37717 0.0
H931 H 0.59728 0.33554 0.3906 0.0
H932 H 0.67941 0.28742 0.322 0.0
H933 H 0.68111 0.31627 0.32554 0.0
H934 H 0.66868 0.34169 0.34026 0.0
H935 H 0.646 0.3549 0.3584 0.0
Mn936 Mn 0.74185 0.60195 0.33135 0.0
Mn937 Mn 0.72417 0.62995 0.36387 0.0
C938 C 0.72525 0.61984 0.31334 0.0
C939 C 0.74249 0.57659 0.31578 0.0
C940 C 0.75807 0.63186 0.34833 0.0
O941 O 0.74492 0.59403 0.36511 0.0
O942 O 0.7315 0.61269 0.38431 0.0
C943 C 0.69678 0.61139 0.37902 0.0
N944 N 0.7028 0.62445 0.36878 0.0
C945 C 0.67721 0.63557 0.364 0.0
C946 C 0.67073 0.62231 0.37472 0.0
C947 C 0.68056 0.61012 0.38211 0.0
C948 C 0.69344 0.6361 0.36117 0.0
H949 H 0.70431 0.60202 0.38478 0.0
C950 C 0.73934 0.59997 0.38395 0.0
O951 O 0.75514 0.58475 0.31854 0.0
O952 O 0.72954 0.58299 0.32271 0.0
N953 N 0.71621 0.64757 0.34696 0.0
C954 C 0.72427 0.65926 0.33612 0.0
C955 C 0.71611 0.67219 0.32712 0.0
C956 C 0.69983 0.67314 0.32988 0.0
C957 C 0.69183 0.66109 0.34148 0.0
C958 C 0.70056 0.64844 0.34988 0.0
H959 H 0.73681 0.65872 0.33432 0.0
O960 O 0.73542 0.6121 0.30111 0.0
O961 O 0.72474 0.61663 0.33573 0.0
O962 O 0.75831 0.61903 0.33685 0.0
O963 O 0.746 0.63681 0.3593 0.0
C964 C 0.67553 0.6611 0.34497 0.0
C965 C 0.6682 0.64827 0.35596 0.0
H966 H 0.65823 0.62133 0.37724 0.0
H967 H 0.67565 0.59981 0.39028 0.0
H968 H 0.72237 0.68146 0.31825 0.0
H969 H 0.69359 0.68314 0.32296 0.0
H970 H 0.66847 0.67084 0.33907 0.0
H971 H 0.65563 0.64828 0.35814 0.0
Mn972 Mn 0.40547 0.74146 0.33218 0.0
Mn973 Mn 0.37671 0.72298 0.3621 0.0
C974 C 0.38856 0.7248 0.31234 0.0
C975 C 0.43127 0.74252 0.31849 0.0
C976 C 0.37536 0.75732 0.3485 0.0
O977 O 0.41214 0.74392 0.36664 0.0
O978 O 0.39374 0.72901 0.38401 0.0
C979 C 0.39372 0.69437 0.37622 0.0
N980 N 0.38123 0.70126 0.36563 0.0
C981 C 0.3694 0.67633 0.35764 0.0
C982 C 0.38207 0.66895 0.36867 0.0
C983 C 0.39431 0.67802 0.3779 0.0
C984 C 0.36944 0.69266 0.35654 0.0
H985 H 0.40315 0.70131 0.38329 0.0
C986 C 0.40619 0.7373 0.38472 0.0
O987 O 0.42294 0.75507 0.32112 0.0
O988 O 0.42479 0.72943 0.3246 0.0
N989 N 0.35939 0.71633 0.34328 0.0
C990 C 0.34867 0.72518 0.33159 0.0
C991 C 0.33592 0.71788 0.32059 0.0
C992 C 0.33423 0.70159 0.32195 0.0
C993 C 0.34538 0.69273 0.33415 0.0
C994 C 0.35779 0.70066 0.34488 0.0
H995 H 0.34983 0.73772 0.33065 0.0
O996 O 0.39645 0.73532 0.30099 0.0
O997 O 0.39092 0.72416 0.33496 0.0
O998 O 0.3881 0.75774 0.33685 0.0
O999 O 0.37054 0.7451 0.35917 0.0
C1000 C 0.34487 0.67631 0.3356 0.0
C1001 C 0.35689 0.66811 0.34728 0.0
H1002 H 0.3826 0.65634 0.36992 0.0
H1003 H 0.40418 0.6724 0.38629 0.0
H1004 H 0.3274 0.72479 0.31113 0.0
H1005 H 0.32441 0.69599 0.31339 0.0
H1006 H 0.33545 0.66985 0.32737 0.0
H1007 H 0.35653 0.65547 0.34788 0.0
Mn1008 Mn 0.26639 0.59999 0.18007 0.0
Mn1009 Mn 0.28312 0.62948 0.1493 0.0
C1010 C 0.28276 0.61758 0.1993 0.0
C1011 C 0.26644 0.57417 0.19389 0.0
C1012 C 0.2492 0.62976 0.16512 0.0
O1013 O 0.26344 0.59311 0.14576 0.0
O1014 O 0.27672 0.61242 0.12781 0.0
C1015 C 0.31153 0.61303 0.13294 0.0
N1016 N 0.30475 0.62545 0.14386 0.0
C1017 C 0.3296 0.63815 0.14879 0.0
C1018 C 0.33685 0.62556 0.13739 0.0
C1019 C 0.32778 0.61291 0.12953 0.0
C1020 C 0.31338 0.63762 0.15166 0.0
H1021 H 0.30458 0.6033 0.12688 0.0
C1022 C 0.26912 0.59955 0.12736 0.0
O1023 O 0.25359 0.58209 0.19173 0.0
O1024 O 0.2792 0.58107 0.18725 0.0
N1025 N 0.29008 0.64701 0.16732 0.0
C1026 C 0.28142 0.65767 0.17943 0.0
C1027 C 0.28876 0.67092 0.1889 0.0
C1028 C 0.30489 0.67311 0.18574 0.0
C1029 C 0.31355 0.662 0.17317 0.0
C1030 C 0.30556 0.64915 0.16384 0.0
H1031 H 0.269 0.65612 0.18172 0.0
O1032 O 0.27274 0.60924 0.21094 0.0
O1033 O 0.28317 0.61525 0.17662 0.0
O1034 O 0.24938 0.61676 0.17613 0.0
O1035 O 0.26103 0.63515 0.15412 0.0
C1036 C 0.32984 0.66302 0.16992 0.0
C1037 C 0.33787 0.65107 0.15783 0.0
H1038 H 0.34939 0.62541 0.13479 0.0
H1039 H 0.3333 0.60311 0.12085 0.0
H1040 H 0.28199 0.67944 0.19859 0.0
H1041 H 0.31053 0.68328 0.19324 0.0
H1042 H 0.33634 0.6728 0.17703 0.0
H1043 H 0.35043 0.65183 0.15583 0.0
Mn1044 Mn 0.40312 0.26675 0.17542 0.0
Mn1045 Mn 0.37576 0.28278 0.13998 0.0
C1046 C 0.38413 0.28325 0.19125 0.0
C1047 C 0.4281 0.26693 0.19238 0.0
C1048 C 0.37471 0.24905 0.15665 0.0
O1049 O 0.41208 0.26318 0.14231 0.0
O1050 O 0.39427 0.27663 0.12131 0.0
C1051 C 0.39294 0.31139 0.12628 0.0
N1052 N 0.3799 0.30444 0.13514 0.0
C1053 C 0.36622 0.32893 0.13651 0.0
C1054 C 0.37943 0.33637 0.12714 0.0
C1055 C 0.39291 0.32757 0.12224 0.0
C1056 C 0.36708 0.31285 0.14065 0.0
H1057 H 0.40324 0.30462 0.12231 0.0
C1058 C 0.407 0.26889 0.12297 0.0
O1059 O 0.4202 0.25411 0.18981 0.0
O1060 O 0.42162 0.27965 0.18466 0.0
N1061 N 0.35701 0.2895 0.15512 0.0
C1062 C 0.34556 0.28065 0.16511 0.0
C1063 C 0.33133 0.28766 0.17131 0.0
C1064 C 0.32888 0.30358 0.16665 0.0
C1065 C 0.34086 0.31246 0.15642 0.0
C1066 C 0.35485 0.30489 0.1509 0.0
H1067 H 0.3472 0.2683 0.16804 0.0
O1068 O 0.39186 0.27365 0.20456 0.0
O1069 O 0.38805 0.28331 0.16913 0.0
O1070 O 0.38674 0.24968 0.16986 0.0
O1071 O 0.37009 0.26055 0.14413 0.0
C1072 C 0.33944 0.32851 0.15129 0.0
C1073 C 0.3522 0.3368 0.14175 0.0
H1074 H 0.37938 0.34881 0.12373 0.0
H1075 H 0.40318 0.33323 0.11513 0.0
H1076 H 0.32215 0.28074 0.17926 0.0
H1077 H 0.31777 0.30887 0.17108 0.0
H1078 H 0.32865 0.33465 0.15494 0.0
H1079 H 0.35107 0.34921 0.13841 0.0
Mn1080 Mn 0.73905 0.40485 0.17443 0.0
Mn1081 Mn 0.72011 0.37704 0.14314 0.0
C1082 C 0.72254 0.38735 0.19344 0.0
C1083 C 0.74051 0.43024 0.18973 0.0
C1084 C 0.75426 0.3745 0.15706 0.0
O1085 O 0.74148 0.41259 0.14046 0.0
O1086 O 0.72737 0.39403 0.12219 0.0
C1087 C 0.69282 0.39609 0.12898 0.0
N1088 N 0.69877 0.38296 0.13912 0.0
C1089 C 0.67307 0.37235 0.14504 0.0
C1090 C 0.66665 0.38569 0.13445 0.0
C1091 C 0.67657 0.39766 0.12654 0.0
C1092 C 0.68933 0.37153 0.14723 0.0
H1093 H 0.70042 0.40528 0.12278 0.0
C1094 C 0.7354 0.40663 0.12199 0.0
O1095 O 0.75294 0.42185 0.1864 0.0
O1096 O 0.7273 0.42406 0.18351 0.0
N1097 N 0.71213 0.35967 0.16059 0.0
C1098 C 0.72016 0.34784 0.17115 0.0
C1099 C 0.71193 0.33509 0.18053 0.0
C1100 C 0.69559 0.33444 0.17844 0.0
C1101 C 0.68761 0.34661 0.16712 0.0
C1102 C 0.69642 0.35908 0.15832 0.0
H1103 H 0.73274 0.34814 0.17242 0.0
O1104 O 0.73313 0.39494 0.20507 0.0
O1105 O 0.72156 0.39048 0.17106 0.0
O1106 O 0.75506 0.38742 0.16826 0.0
O1107 O 0.74185 0.36974 0.1468 0.0
C1108 C 0.67125 0.34691 0.16429 0.0
C1109 C 0.66397 0.35985 0.15352 0.0
H1110 H 0.65413 0.38689 0.13242 0.0
H1111 H 0.67171 0.40802 0.11846 0.0
H1112 H 0.71818 0.32572 0.18919 0.0
H1113 H 0.6893 0.32455 0.18563 0.0
H1114 H 0.66413 0.33731 0.17052 0.0
H1115 H 0.65137 0.36005 0.15183 0.0
Mn1116 Mn 0.60278 0.74165 0.17677 0.0
Mn1117 Mn 0.63075 0.72383 0.14434 0.0
C1118 C 0.62052 0.7249 0.19481 0.0
C1119 C 0.57741 0.7425 0.19222 0.0
C1120 C 0.63292 0.75764 0.16017 0.0
O1121 O 0.59493 0.7448 0.143 0.0
O1122 O 0.6136 0.73138 0.12384 0.0
C1123 C 0.61195 0.69668 0.12885 0.0
N1124 N 0.62505 0.70254 0.13922 0.0
C1125 C 0.63589 0.67682 0.14393 0.0
C1126 C 0.6226 0.67051 0.13308 0.0
C1127 C 0.61053 0.68048 0.12565 0.0
C1128 C 0.63658 0.69303 0.14686 0.0
H1129 H 0.60268 0.70432 0.12307 0.0
C1130 C 0.6009 0.73925 0.12417 0.0
O1131 O 0.58569 0.75508 0.18952 0.0
O1132 O 0.58371 0.72949 0.18532 0.0
N1133 N 0.64825 0.71565 0.16128 0.0
C1134 C 0.66002 0.72355 0.1722 0.0
C1135 C 0.67285 0.71524 0.18118 0.0
C1136 C 0.67363 0.69896 0.17835 0.0
C1137 C 0.66151 0.69112 0.16667 0.0
C1138 C 0.64897 0.7 0.15826 0.0
H1139 H 0.65961 0.73609 0.17407 0.0
O1140 O 0.61282 0.73512 0.20704 0.0
O1141 O 0.61735 0.72443 0.17241 0.0
O1142 O 0.62001 0.75798 0.17142 0.0
O1143 O 0.63782 0.74556 0.14918 0.0
C1144 C 0.66135 0.67482 0.16311 0.0
C1145 C 0.64847 0.66766 0.152 0.0
H1146 H 0.62149 0.65803 0.13047 0.0
H1147 H 0.60019 0.6757 0.11738 0.0
H1148 H 0.68217 0.72138 0.19012 0.0
H1149 H 0.68356 0.6926 0.18526 0.0
H1150 H 0.671 0.66766 0.16904 0.0
H1151 H 0.64836 0.6551 0.14975 0.0
H1152 H 0.34823 0.24321 0.13107 0.0
H1153 H 0.33143 0.22025 0.13273 0.0
H1154 H 0.36231 0.19899 0.18342 0.0
H1155 H 0.37922 0.22205 0.18213 0.0
H1156 H 0.33816 0.18857 0.12336 0.0
H1157 H 0.31942 0.19769 0.21624 0.0
H1158 H 0.32909 0.21272 0.19938 0.0
H1159 H 0.34012 0.19669 0.21115 0.0
C1160 C 0.35156 0.23366 0.14253 0.0
C1161 C 0.36509 0.23458 0.15657 0.0
C1162 C 0.34191 0.22052 0.14343 0.0
C1163 C 0.34549 0.208 0.15843 0.0
C1164 C 0.35918 0.20864 0.17203 0.0
H1165 H 0.28437 0.12698 0.18586 0.0
H1166 H 0.30748 0.14396 0.18539 0.0
C1167 C 0.36888 0.22181 0.17115 0.0
C1168 C 0.33468 0.19447 0.15984 0.0
H1169 H 0.30845 0.17635 0.19608 0.0
C1170 C 0.33177 0.18581 0.13932 0.0
C1171 C 0.32641 0.19082 0.18072 0.0
C1172 C 0.32877 0.2 0.20313 0.0
C1173 C 0.32056 0.17384 0.13895 0.0
C1174 C 0.31182 0.17063 0.15954 0.0
C1175 C 0.31517 0.17884 0.18033 0.0
C1176 C 0.29824 0.15985 0.15924 0.0
C1177 C 0.31803 0.16485 0.11642 0.0
C1178 C 0.28535 0.16323 0.14488 0.0
C1179 C 0.27217 0.15365 0.14514 0.0
C1180 C 0.27151 0.14042 0.15986 0.0
C1181 C 0.28449 0.137 0.17421 0.0
C1182 C 0.2977 0.14669 0.174 0.0
H1183 H 0.32854 0.16525 0.10494 0.0
H1184 H 0.31509 0.15246 0.12007 0.0
H1185 H 0.30818 0.17016 0.10654 0.0
H1186 H 0.28537 0.1735 0.13374 0.0
H1187 H 0.26243 0.15675 0.13391 0.0
H1188 H 0.87624 0.28332 0.1781 0.0
H1189 H 0.85794 0.30534 0.18007 0.0
H1190 H 0.82761 0.28222 0.13053 0.0
H1191 H 0.84563 0.26025 0.12841 0.0
H1192 H 0.84464 0.3251 0.14226 0.0
H1193 H 0.80026 0.29016 0.19022 0.0
H1194 H 0.82051 0.28436 0.18825 0.0
H1195 H 0.80752 0.2811 0.16386 0.0
C1196 C 0.86574 0.28297 0.16745 0.0
C1197 C 0.86239 0.2699 0.15323 0.0
C1198 C 0.85531 0.29557 0.16861 0.0
C1199 C 0.84133 0.29527 0.15573 0.0
C1200 C 0.83824 0.28256 0.14089 0.0
H1201 H 0.75736 0.34665 0.13397 0.0
H1202 H 0.77946 0.32877 0.13461 0.0
C1203 C 0.84862 0.27002 0.13966 0.0
C1204 C 0.82962 0.30792 0.15815 0.0
H1205 H 0.79185 0.31451 0.17458 0.0
C1206 C 0.83315 0.32289 0.14956 0.0
C1207 C 0.81469 0.30498 0.16781 0.0
C1208 C 0.81051 0.28933 0.17827 0.0
C1209 C 0.82182 0.33481 0.14935 0.0
C1210 C 0.80671 0.33168 0.15829 0.0
C1211 C 0.8034 0.31686 0.16759 0.0
C1212 C 0.79381 0.34326 0.15709 0.0
C1213 C 0.8259 0.35042 0.1387 0.0
C1214 C 0.79453 0.35743 0.16948 0.0
C1215 C 0.78185 0.36779 0.16913 0.0
C1216 C 0.76818 0.3641 0.15649 0.0
C1217 C 0.76764 0.34994 0.14391 0.0
C1218 C 0.78029 0.33966 0.14425 0.0
H1219 H 0.83688 0.34992 0.1283 0.0
H1220 H 0.81633 0.35461 0.1271 0.0
H1221 H 0.82749 0.35911 0.153 0.0
H1222 H 0.80475 0.36032 0.17985 0.0
H1223 H 0.78267 0.37853 0.17913 0.0
H1224 H 0.66147 0.76123 0.13919 0.0
H1225 H 0.67915 0.78344 0.14185 0.0
H1226 H 0.64582 0.80807 0.18489 0.0
H1227 H 0.62782 0.78585 0.18225 0.0
H1228 H 0.66036 0.82664 0.14837 0.0
H1229 H 0.70367 0.79443 0.20232 0.0
H1230 H 0.69813 0.78434 0.17588 0.0
H1231 H 0.68381 0.78776 0.19848 0.0
C1232 C 0.65778 0.77135 0.14917 0.0
C1233 C 0.6432 0.77164 0.16065 0.0
C1234 C 0.66797 0.78403 0.15074 0.0
C1235 C 0.66391 0.79728 0.1639 0.0
C1236 C 0.64921 0.7979 0.17478 0.0
H1237 H 0.72155 0.88182 0.18536 0.0
H1238 H 0.69944 0.86359 0.18669 0.0
C1239 C 0.63895 0.78517 0.17324 0.0
C1240 C 0.67524 0.81029 0.16643 0.0
H1241 H 0.71238 0.81821 0.18477 0.0
C1242 C 0.67166 0.82491 0.1566 0.0
C1243 C 0.68991 0.80801 0.17735 0.0
C1244 C 0.69409 0.79284 0.18932 0.0
C1245 C 0.68274 0.83707 0.15631 0.0
C1246 C 0.69765 0.83452 0.16633 0.0
C1247 C 0.70097 0.8201 0.17696 0.0
C1248 C 0.71044 0.84617 0.16461 0.0
C1249 C 0.6787 0.85228 0.14438 0.0
C1250 C 0.72393 0.84241 0.15185 0.0
C1251 C 0.73654 0.85272 0.15109 0.0
C1252 C 0.73602 0.86706 0.16322 0.0
C1253 C 0.72235 0.87093 0.17573 0.0
C1254 C 0.70967 0.86055 0.17645 0.0
H1255 H 0.66765 0.85149 0.1342 0.0
H1256 H 0.67733 0.86153 0.15791 0.0
H1257 H 0.68824 0.8559 0.13232 0.0
H1258 H 0.72477 0.83137 0.14262 0.0
H1259 H 0.74681 0.84926 0.14126 0.0
H1260 H 0.22131 0.62413 0.18806 0.0
H1261 H 0.19873 0.64172 0.19107 0.0
H1262 H 0.2223 0.67535 0.14718 0.0
H1263 H 0.24476 0.6581 0.14409 0.0
H1264 H 0.21021 0.68708 0.19151 0.0
H1265 H 0.16593 0.65427 0.13922 0.0
H1266 H 0.1766 0.64393 0.16169 0.0
H1267 H 0.18663 0.65078 0.13597 0.0
C1268 C 0.22162 0.63519 0.17884 0.0
C1269 C 0.23492 0.63965 0.16585 0.0
C1270 C 0.20868 0.64521 0.18054 0.0
C1271 C 0.20884 0.6598 0.16925 0.0
C1272 C 0.22195 0.66413 0.15601 0.0
H1273 H 0.16124 0.74388 0.14246 0.0
H1274 H 0.17831 0.7214 0.14709 0.0
C1275 C 0.2348 0.65419 0.15426 0.0
C1276 C 0.19581 0.67108 0.17191 0.0
H1277 H 0.15873 0.67914 0.15318 0.0
C1278 C 0.19888 0.68526 0.1834 0.0
C1279 C 0.18101 0.66862 0.16148 0.0
C1280 C 0.17724 0.65363 0.14876 0.0
C1281 C 0.18777 0.69728 0.18397 0.0
C1282 C 0.17329 0.69518 0.1724 0.0
C1283 C 0.16987 0.68072 0.16195 0.0
C1284 C 0.16232 0.70841 0.16911 0.0
C1285 C 0.19175 0.7123 0.1965 0.0
C1286 C 0.14743 0.70839 0.17944 0.0
C1287 C 0.13751 0.72133 0.17684 0.0
C1288 C 0.14231 0.73442 0.16365 0.0
C1289 C 0.15711 0.73411 0.15284 0.0
C1290 C 0.16696 0.72126 0.15553 0.0
H1291 H 0.20107 0.71053 0.20985 0.0
H1292 H 0.19605 0.72094 0.18346 0.0
H1293 H 0.18131 0.71729 0.20534 0.0
H1294 H 0.14361 0.69851 0.18988 0.0
H1295 H 0.12619 0.72112 0.18533 0.0
H1296 H 0.26195 0.84879 0.37891 0.0
H1297 H 0.28413 0.83104 0.3763 0.0
H1298 H 0.30644 0.86172 0.32641 0.0
H1299 H 0.28425 0.87973 0.32892 0.0
H1300 H 0.29414 0.81661 0.33322 0.0
H1301 H 0.34134 0.85155 0.37541 0.0
H1302 H 0.32089 0.85579 0.37993 0.0
H1303 H 0.33011 0.86091 0.35264 0.0
C1304 C 0.27162 0.85194 0.36757 0.0
C1305 C 0.27125 0.86575 0.35411 0.0
C1306 C 0.2843 0.84173 0.3661 0.0
C1307 C 0.29697 0.8451 0.3513 0.0
C1308 C 0.29687 0.85901 0.3382 0.0
H1309 H 0.37901 0.78527 0.3249 0.0
H1310 H 0.36073 0.80736 0.32395 0.0
C1311 C 0.28414 0.86926 0.3396 0.0
C1312 C 0.30971 0.83349 0.34866 0.0
H1313 H 0.34813 0.82652 0.36132 0.0
C1314 C 0.30596 0.81881 0.33925 0.0
C1315 C 0.32516 0.83645 0.35628 0.0
C1316 C 0.3297 0.85198 0.36678 0.0
C1317 C 0.31715 0.80689 0.33771 0.0
C1318 C 0.33244 0.8096 0.34626 0.0
C1319 C 0.33638 0.82446 0.35488 0.0
C1320 C 0.34407 0.79679 0.34775 0.0
C1321 C 0.31248 0.79144 0.32702 0.0
C1322 C 0.34096 0.78375 0.36192 0.0
C1323 C 0.3513 0.77117 0.36251 0.0
C1324 C 0.36511 0.77134 0.34902 0.0
C1325 C 0.36849 0.78469 0.33545 0.0
C1326 C 0.35806 0.79733 0.33488 0.0
H1327 H 0.30215 0.79269 0.31531 0.0
H1328 H 0.32223 0.78629 0.31673 0.0
H1329 H 0.30935 0.78318 0.34132 0.0
H1330 H 0.33038 0.78322 0.37236 0.0
H1331 H 0.34831 0.76119 0.37334 0.0
H1332 H 0.22048 0.37864 0.32554 0.0
H1333 H 0.19689 0.36239 0.32333 0.0
H1334 H 0.21705 0.33009 0.37301 0.0
H1335 H 0.24046 0.3461 0.37547 0.0
H1336 H 0.19488 0.3302 0.30999 0.0
H1337 H 0.17372 0.33947 0.40103 0.0
H1338 H 0.18779 0.35223 0.38715 0.0
H1339 H 0.19394 0.33399 0.39986 0.0
C1340 C 0.21984 0.36814 0.33613 0.0
C1341 C 0.23239 0.36376 0.35078 0.0
C1342 C 0.20636 0.35887 0.33481 0.0
C1343 C 0.20512 0.34518 0.34831 0.0
C1344 C 0.21762 0.34078 0.36282 0.0
H1345 H 0.15503 0.26213 0.36984 0.0
H1346 H 0.17164 0.2852 0.36915 0.0
C1347 C 0.23107 0.34994 0.36408 0.0
C1348 C 0.19114 0.335 0.34676 0.0
H1349 H 0.16389 0.31678 0.381 0.0
C1350 C 0.18786 0.32748 0.32536 0.0
C1351 C 0.18199 0.33153 0.36683 0.0
C1352 C 0.18442 0.33985 0.38997 0.0
C1353 C 0.17633 0.31581 0.32389 0.0
C1354 C 0.16777 0.31176 0.34432 0.0
C1355 C 0.17051 0.31986 0.3654 0.0
C1356 C 0.1571 0.29811 0.34485 0.0
C1357 C 0.17401 0.30728 0.30091 0.0
C1358 C 0.14324 0.29778 0.33161 0.0
C1359 C 0.13361 0.28453 0.33196 0.0
C1360 C 0.1377 0.27138 0.34557 0.0
C1361 C 0.15148 0.27196 0.35909 0.0
C1362 C 0.16101 0.28517 0.35877 0.0
H1363 H 0.18316 0.31025 0.28777 0.0
H1364 H 0.1741 0.29446 0.30383 0.0
H1365 H 0.16247 0.31045 0.2934 0.0
H1366 H 0.1399 0.30774 0.32098 0.0
H1367 H 0.12309 0.28452 0.32136 0.0
H1368 H 0.71985 0.12964 0.33234 0.0
H1369 H 0.69811 0.14824 0.33015 0.0
H1370 H 0.72073 0.17746 0.38167 0.0
H1371 H 0.74245 0.15914 0.384 0.0
H1372 H 0.67777 0.16121 0.36722 0.0
H1373 H 0.71433 0.20593 0.3229 0.0
H1374 H 0.71987 0.18561 0.32448 0.0
H1375 H 0.72267 0.19817 0.34948 0.0
C1376 C 0.72015 0.13995 0.34339 0.0
C1377 C 0.73302 0.1429 0.35822 0.0
C1378 C 0.7077 0.15056 0.34209 0.0
C1379 C 0.70795 0.16434 0.35547 0.0
C1380 C 0.72044 0.16701 0.37092 0.0
H1381 H 0.65691 0.24865 0.37703 0.0
H1382 H 0.67456 0.22638 0.37676 0.0
C1383 C 0.73283 0.15645 0.37228 0.0
C1384 C 0.69549 0.17627 0.35288 0.0
H1385 H 0.68971 0.21437 0.33745 0.0
C1386 C 0.68028 0.17279 0.36048 0.0
C1387 C 0.69882 0.19132 0.34395 0.0
C1388 C 0.71477 0.19549 0.33452 0.0
C1389 C 0.66847 0.18424 0.36041 0.0
C1390 C 0.67197 0.19945 0.35218 0.0
C1391 C 0.68706 0.20273 0.34389 0.0
C1392 C 0.66048 0.21245 0.35312 0.0
C1393 C 0.65256 0.18016 0.37001 0.0
C1394 C 0.64659 0.21204 0.33995 0.0
C1395 C 0.63635 0.22483 0.34009 0.0
C1396 C 0.63987 0.23831 0.35328 0.0
C1397 C 0.65374 0.23853 0.36664 0.0
C1398 C 0.6639 0.22578 0.36651 0.0
H1399 H 0.65271 0.16905 0.3801 0.0
H1400 H 0.64814 0.18961 0.38162 0.0
H1401 H 0.64424 0.17883 0.35515 0.0
H1402 H 0.64384 0.20199 0.32915 0.0
H1403 H 0.62585 0.22427 0.32948 0.0
H1404 H 0.78577 0.62739 0.32459 0.0
H1405 H 0.80874 0.6445 0.32439 0.0
H1406 H 0.78546 0.67609 0.37192 0.0
H1407 H 0.7626 0.65917 0.3724 0.0
H1408 H 0.81012 0.67629 0.31064 0.0
H1409 H 0.82791 0.669 0.40375 0.0
H1410 H 0.81475 0.65565 0.38915 0.0
H1411 H 0.80765 0.67394 0.40051 0.0
C1412 C 0.78558 0.6379 0.33518 0.0
C1413 C 0.77231 0.64182 0.34861 0.0
C1414 C 0.79872 0.64768 0.335 0.0
C1415 C 0.7989 0.66143 0.34844 0.0
C1416 C 0.78571 0.66536 0.36182 0.0
H1417 H 0.84803 0.74552 0.37159 0.0
H1418 H 0.83134 0.72254 0.37047 0.0
C1419 C 0.77259 0.65568 0.36195 0.0
C1420 C 0.81253 0.67215 0.34785 0.0
H1421 H 0.83821 0.69137 0.3836 0.0
C1422 C 0.81648 0.6794 0.32648 0.0
C1423 C 0.82083 0.67615 0.36854 0.0
C1424 C 0.81769 0.66816 0.39175 0.0
C1425 C 0.82788 0.69122 0.32552 0.0
C1426 C 0.83567 0.69571 0.34645 0.0
C1427 C 0.83219 0.68796 0.3676 0.0
C1428 C 0.84637 0.70934 0.34724 0.0
C1429 C 0.83091 0.69938 0.30242 0.0
C1430 C 0.86054 0.7095 0.33477 0.0
C1431 C 0.87022 0.72271 0.33535 0.0
C1432 C 0.86589 0.73599 0.34846 0.0
C1433 C 0.8518 0.73559 0.36124 0.0
C1434 C 0.8422 0.72242 0.36067 0.0
H1435 H 0.82206 0.69635 0.28886 0.0
H1436 H 0.83095 0.71225 0.30487 0.0
H1437 H 0.84257 0.69591 0.29569 0.0
H1438 H 0.86409 0.69942 0.32456 0.0
H1439 H 0.88098 0.72257 0.32534 0.0
H1440 H 0.72229 0.87881 0.8262 0.0
H1441 H 0.69972 0.86113 0.82491 0.0
H1442 H 0.72312 0.82966 0.87253 0.0
H1443 H 0.74561 0.84697 0.87381 0.0
H1444 H 0.71147 0.81534 0.83145 0.0
H1445 H 0.66623 0.85168 0.87574 0.0
H1446 H 0.67663 0.86048 0.85161 0.0
H1447 H 0.68686 0.85581 0.87829 0.0
C1448 C 0.72256 0.86821 0.8366 0.0
C1449 C 0.73583 0.86435 0.85008 0.0
C1450 C 0.70962 0.85815 0.8359 0.0
C1451 C 0.70971 0.84413 0.84876 0.0
C1452 C 0.7228 0.84042 0.86249 0.0
H1453 H 0.6579 0.7618 0.87946 0.0
H1454 H 0.6758 0.78383 0.87652 0.0
C1455 C 0.73567 0.85039 0.86319 0.0
C1456 C 0.69665 0.83276 0.84721 0.0
H1457 H 0.65867 0.8265 0.86329 0.0
C1458 C 0.6999 0.81783 0.83825 0.0
C1459 C 0.68153 0.83606 0.85593 0.0
C1460 C 0.67753 0.85183 0.8661 0.0
C1461 C 0.68858 0.806 0.83833 0.0
C1462 C 0.67366 0.80908 0.84795 0.0
C1463 C 0.67016 0.82417 0.85605 0.0
C1464 C 0.66198 0.79644 0.85093 0.0
C1465 C 0.69272 0.7902 0.82834 0.0
C1466 C 0.64798 0.79647 0.83809 0.0
C1467 C 0.63762 0.78383 0.83973 0.0
C1468 C 0.64106 0.77099 0.85437 0.0
C1469 C 0.65484 0.77139 0.8679 0.0
C1470 C 0.66516 0.78396 0.8662 0.0
H1471 H 0.70292 0.79088 0.81628 0.0
H1472 H 0.69578 0.78217 0.84298 0.0
H1473 H 0.68269 0.78509 0.81861 0.0
H1474 H 0.64529 0.80605 0.82629 0.0
H1475 H 0.62712 0.78398 0.82909 0.0
H1476 H 0.12906 0.72186 0.83031 0.0
H1477 H 0.14682 0.69945 0.82734 0.0
H1478 H 0.18029 0.72332 0.87116 0.0
H1479 H 0.16287 0.74566 0.87416 0.0
H1480 H 0.19253 0.71096 0.82811 0.0
H1481 H 0.15863 0.66687 0.87907 0.0
H1482 H 0.14862 0.67711 0.85586 0.0
H1483 H 0.15491 0.68757 0.88154 0.0
C1484 C 0.14015 0.7223 0.83946 0.0
C1485 C 0.14448 0.73562 0.85248 0.0
C1486 C 0.15025 0.70944 0.83782 0.0
C1487 C 0.16482 0.70969 0.84919 0.0
C1488 C 0.16909 0.72288 0.86229 0.0
H1489 H 0.24865 0.65917 0.87335 0.0
H1490 H 0.22672 0.67718 0.8707 0.0
C1491 C 0.15905 0.73566 0.86399 0.0
C1492 C 0.17607 0.6966 0.84688 0.0
H1493 H 0.18325 0.65914 0.86465 0.0
C1494 C 0.19045 0.69958 0.83591 0.0
C1495 C 0.17326 0.68174 0.85691 0.0
C1496 C 0.15807 0.67804 0.86915 0.0
C1497 C 0.20227 0.68826 0.83527 0.0
C1498 C 0.19977 0.67365 0.84627 0.0
C1499 C 0.18515 0.67039 0.85636 0.0
C1500 C 0.21259 0.66212 0.84878 0.0
C1501 C 0.21744 0.69209 0.82301 0.0
C1502 C 0.21171 0.6474 0.83798 0.0
C1503 C 0.22428 0.63696 0.83951 0.0
C1504 C 0.23791 0.64102 0.85202 0.0
C1505 C 0.23845 0.65561 0.86345 0.0
C1506 C 0.22593 0.666 0.86187 0.0
H1507 H 0.21594 0.70166 0.80998 0.0
H1508 H 0.22612 0.69599 0.83628 0.0
H1509 H 0.22223 0.68169 0.81383 0.0
H1510 H 0.20146 0.64415 0.82792 0.0
H1511 H 0.22342 0.62583 0.83054 0.0
H1512 H 0.3469 0.24389 0.8695 0.0
H1513 H 0.32911 0.2218 0.86738 0.0
H1514 H 0.36188 0.19689 0.82371 0.0
H1515 H 0.38001 0.21906 0.82579 0.0
H1516 H 0.31651 0.20949 0.82444 0.0
H1517 H 0.34932 0.16487 0.87596 0.0
H1518 H 0.3535 0.18549 0.87826 0.0
H1519 H 0.3596 0.17481 0.8527 0.0
C1520 C 0.3505 0.2337 0.85959 0.0
C1521 C 0.36497 0.23333 0.8478 0.0
C1522 C 0.34025 0.22107 0.85839 0.0
C1523 C 0.34419 0.20768 0.84552 0.0
C1524 C 0.3587 0.20705 0.83401 0.0
H1525 H 0.28388 0.12492 0.82775 0.0
H1526 H 0.30619 0.14282 0.82504 0.0
C1527 C 0.36902 0.21976 0.83515 0.0
C1528 C 0.33262 0.19485 0.84342 0.0
H1529 H 0.32454 0.15764 0.86153 0.0
C1530 C 0.31832 0.1981 0.83238 0.0
C1531 C 0.33506 0.17997 0.85362 0.0
C1532 C 0.35014 0.17599 0.86595 0.0
C1533 C 0.30624 0.18705 0.83178 0.0
C1534 C 0.30839 0.17243 0.84292 0.0
C1535 C 0.32291 0.16889 0.85312 0.0
C1536 C 0.2953 0.16117 0.84541 0.0
C1537 C 0.2912 0.19118 0.81939 0.0
C1538 C 0.28197 0.16541 0.85824 0.0
C1539 C 0.26925 0.15526 0.85986 0.0
C1540 C 0.26957 0.14056 0.84875 0.0
C1541 C 0.28317 0.13615 0.83646 0.0
C1542 C 0.29595 0.14635 0.83489 0.0
H1543 H 0.29296 0.20063 0.80624 0.0
H1544 H 0.28616 0.18085 0.81032 0.0
H1545 H 0.28259 0.19538 0.83255 0.0
H1546 H 0.28134 0.17667 0.86687 0.0
H1547 H 0.25906 0.15909 0.86959 0.0
H1548 H 0.84828 0.26388 0.87735 0.0
H1549 H 0.83123 0.28668 0.87581 0.0
H1550 H 0.86227 0.30868 0.82608 0.0
H1551 H 0.87939 0.2858 0.82723 0.0
H1552 H 0.83731 0.3183 0.88583 0.0
H1553 H 0.81983 0.30984 0.79228 0.0
H1554 H 0.82955 0.29481 0.80908 0.0
H1555 H 0.84046 0.31108 0.79777 0.0
C1556 C 0.85158 0.27356 0.86613 0.0
C1557 C 0.86522 0.2729 0.8523 0.0
C1558 C 0.84179 0.28661 0.86529 0.0
C1559 C 0.84534 0.29928 0.85057 0.0
C1560 C 0.85914 0.29891 0.83724 0.0
H1561 H 0.78511 0.38079 0.82223 0.0
H1562 H 0.80801 0.36354 0.82338 0.0
C1563 C 0.86898 0.28583 0.83804 0.0
C1564 C 0.83439 0.31272 0.84912 0.0
H1565 H 0.80881 0.33124 0.81227 0.0
C1566 C 0.83116 0.3212 0.8697 0.0
C1567 C 0.82644 0.31656 0.82803 0.0
C1568 C 0.8291 0.30756 0.80553 0.0
C1569 C 0.81999 0.33321 0.86989 0.0
C1570 C 0.81162 0.33666 0.84903 0.0
C1571 C 0.81525 0.32858 0.82823 0.0
C1572 C 0.79816 0.34761 0.84896 0.0
C1573 C 0.81714 0.34203 0.89249 0.0
C1574 C 0.785 0.34431 0.86277 0.0
C1575 C 0.77194 0.35406 0.86213 0.0
C1576 C 0.77167 0.36737 0.84755 0.0
C1577 C 0.78492 0.37072 0.83376 0.0
C1578 C 0.79802 0.36086 0.83436 0.0
H1579 H 0.82744 0.34144 0.90437 0.0
H1580 H 0.81437 0.35448 0.88896 0.0
H1581 H 0.80708 0.33672 0.90185 0.0
H1582 H 0.78471 0.33398 0.87379 0.0
H1583 H 0.76198 0.35101 0.87294 0.0
H1584 H 0.62706 0.22028 0.68528 0.0
H1585 H 0.64343 0.19672 0.68496 0.0
H1586 H 0.67682 0.2201 0.64041 0.0
H1587 H 0.66073 0.24351 0.64051 0.0
H1588 H 0.66742 0.18874 0.62557 0.0
H1589 H 0.68679 0.19219 0.71918 0.0
H1590 H 0.66618 0.19339 0.7131 0.0
H1591 H 0.67886 0.20888 0.70383 0.0
C1592 C 0.63789 0.2204 0.67542 0.0
C1593 C 0.64256 0.23385 0.66297 0.0
C1594 C 0.64724 0.20695 0.67533 0.0
C1595 C 0.66136 0.20673 0.66277 0.0
C1596 C 0.66595 0.22004 0.65021 0.0
H1597 H 0.74257 0.15478 0.62933 0.0
H1598 H 0.71974 0.17171 0.63101 0.0
C1599 C 0.65672 0.23345 0.65036 0.0
C1600 C 0.67157 0.19276 0.66247 0.0
H1601 H 0.69802 0.17263 0.69569 0.0
C1602 C 0.67398 0.18507 0.64096 0.0
C1603 C 0.68001 0.18796 0.68261 0.0
C1604 C 0.67797 0.19602 0.70603 0.0
C1605 C 0.68497 0.17299 0.63887 0.0
C1606 C 0.69403 0.16874 0.6587 0.0
C1607 C 0.6911 0.17594 0.68048 0.0
C1608 C 0.70741 0.15777 0.65681 0.0
C1609 C 0.68688 0.165 0.61536 0.0
C1610 C 0.70821 0.1444 0.67104 0.0
C1611 C 0.72135 0.13467 0.67024 0.0
C1612 C 0.73401 0.13822 0.65532 0.0
C1613 C 0.73304 0.15157 0.64091 0.0
C1614 C 0.71993 0.16125 0.64174 0.0
H1615 H 0.67603 0.16582 0.60467 0.0
H1616 H 0.69637 0.17083 0.60536 0.0
H1617 H 0.68998 0.1525 0.61755 0.0
H1618 H 0.69873 0.14156 0.68293 0.0
H1619 H 0.72169 0.12455 0.68166 0.0
H1620 H 0.76373 0.66015 0.63057 0.0
H1621 H 0.78615 0.67757 0.63354 0.0
H1622 H 0.80821 0.64595 0.68236 0.0
H1623 H 0.78579 0.62827 0.67946 0.0
H1624 H 0.79648 0.69139 0.67665 0.0
H1625 H 0.84317 0.65618 0.63377 0.0
H1626 H 0.82266 0.65219 0.62934 0.0
H1627 H 0.83192 0.64677 0.65647 0.0
C1628 C 0.77339 0.65672 0.64174 0.0
C1629 C 0.77288 0.64274 0.65479 0.0
C1630 C 0.78621 0.66675 0.64343 0.0
C1631 C 0.79889 0.66302 0.65803 0.0
C1632 C 0.79865 0.64895 0.67072 0.0
H1633 H 0.8814 0.72223 0.68582 0.0
H1634 H 0.86307 0.70014 0.68653 0.0
C1635 C 0.78577 0.63889 0.66909 0.0
C1636 C 0.81181 0.67442 0.66092 0.0
H1637 H 0.85033 0.68096 0.64845 0.0
C1638 C 0.80827 0.68907 0.6706 0.0
C1639 C 0.82723 0.6713 0.65328 0.0
C1640 C 0.83156 0.65581 0.64248 0.0
C1641 C 0.81963 0.70082 0.67237 0.0
C1642 C 0.83488 0.69796 0.66379 0.0
C1643 C 0.83862 0.68312 0.65492 0.0
C1644 C 0.84662 0.71068 0.66236 0.0
C1645 C 0.81516 0.71627 0.68324 0.0
C1646 C 0.84366 0.72368 0.64804 0.0
C1647 C 0.85402 0.73624 0.64758 0.0
C1648 C 0.86771 0.7361 0.66136 0.0
C1649 C 0.87098 0.72276 0.67504 0.0
C1650 C 0.86052 0.71013 0.67548 0.0
H1651 H 0.80477 0.71512 0.69484 0.0
H1652 H 0.82496 0.7212 0.69368 0.0
H1653 H 0.81222 0.72468 0.66903 0.0
H1654 H 0.83315 0.7242 0.63743 0.0
H1655 H 0.85112 0.74618 0.63664 0.0
H1656 H 0.2853 0.87822 0.68107 0.0
H1657 H 0.30733 0.85998 0.6835 0.0
H1658 H 0.28446 0.82934 0.63413 0.0
H1659 H 0.26248 0.8473 0.63157 0.0
H1660 H 0.2946 0.81506 0.67762 0.0
H1661 H 0.34177 0.84911 0.63371 0.0
H1662 H 0.33069 0.85875 0.65639 0.0
H1663 H 0.32132 0.85344 0.62929 0.0
C1664 C 0.28503 0.8677 0.67048 0.0
C1665 C 0.27204 0.86428 0.65614 0.0
C1666 C 0.29767 0.85732 0.67185 0.0
C1667 C 0.29756 0.84336 0.65888 0.0
C1668 C 0.28479 0.84007 0.64424 0.0
H1669 H 0.34743 0.75846 0.63692 0.0
H1670 H 0.32967 0.78063 0.63829 0.0
C1671 C 0.27222 0.85041 0.6428 0.0
C1672 C 0.31019 0.83161 0.66145 0.0
H1673 H 0.34829 0.82398 0.6476 0.0
C1674 C 0.30637 0.81705 0.67119 0.0
C1675 C 0.32557 0.83429 0.65328 0.0
C1676 C 0.33017 0.84969 0.64244 0.0
C1677 C 0.3174 0.80496 0.67254 0.0
C1678 C 0.33259 0.80738 0.66341 0.0
C1679 C 0.33662 0.82214 0.65446 0.0
C1680 C 0.34403 0.79439 0.66176 0.0
C1681 C 0.31265 0.78967 0.68366 0.0
C1682 C 0.35833 0.79498 0.67384 0.0
C1683 C 0.36867 0.78227 0.67301 0.0
C1684 C 0.36489 0.76879 0.65997 0.0
C1685 C 0.35074 0.76854 0.64732 0.0
C1686 C 0.34049 0.7812 0.64815 0.0
H1687 H 0.30259 0.79118 0.6958 0.0
H1688 H 0.30907 0.78139 0.66963 0.0
H1689 H 0.3225 0.78438 0.69359 0.0
H1690 H 0.36134 0.80511 0.68432 0.0
H1691 H 0.37946 0.78292 0.68292 0.0
H1692 H 0.12464 0.28302 0.68067 0.0
H1693 H 0.14219 0.30555 0.6839 0.0
H1694 H 0.17775 0.28036 0.6459 0.0
H1695 H 0.16049 0.25786 0.64267 0.0
H1696 H 0.18774 0.29413 0.68939 0.0
H1697 H 0.15664 0.33655 0.6316 0.0
H1698 H 0.1454 0.32698 0.65417 0.0
H1699 H 0.15306 0.31578 0.63011 0.0
C1700 C 0.13614 0.28231 0.6728 0.0
C1701 C 0.1411 0.26856 0.66138 0.0
C1702 C 0.14613 0.29524 0.6746 0.0
C1703 C 0.16122 0.29466 0.66498 0.0
C1704 C 0.16613 0.28106 0.6534 0.0
H1705 H 0.2455 0.344 0.64492 0.0
H1706 H 0.22325 0.32646 0.64736 0.0
C1707 C 0.15619 0.26819 0.65154 0.0
C1708 C 0.17232 0.30785 0.66773 0.0
H1709 H 0.18037 0.34484 0.64853 0.0
C1710 C 0.18606 0.30527 0.68064 0.0
C1711 C 0.17002 0.32242 0.65649 0.0
C1712 C 0.15555 0.32568 0.64217 0.0
C1713 C 0.19778 0.31668 0.68202 0.0
C1714 C 0.19584 0.33096 0.66984 0.0
C1715 C 0.18181 0.33386 0.6578 0.0
C1716 C 0.20889 0.34226 0.66767 0.0
C1717 C 0.2123 0.31325 0.69618 0.0
C1718 C 0.20804 0.35722 0.67772 0.0
C1719 C 0.22085 0.36742 0.67637 0.0
C1720 C 0.23465 0.36284 0.66475 0.0
C1721 C 0.23516 0.34799 0.65412 0.0
C1722 C 0.22245 0.33786 0.65555 0.0
H1723 H 0.21019 0.304 0.70953 0.0
H1724 H 0.22164 0.3091 0.68416 0.0
H1725 H 0.21657 0.32391 0.70527 0.0
H1726 H 0.19761 0.36085 0.68702 0.0
H1727 H 0.22001 0.37876 0.6847 0.0
H1728 H 0.21722 0.10076 0.08751 0.0
H1729 H 0.22167 0.09106 0.04785 0.0
H1730 H 0.26607 0.07202 0.06933 0.0
H1731 H 0.26158 0.08169 0.10968 0.0
H1732 H 0.26683 0.09232 0.02869 0.0
H1733 H 0.2215 0.04696 0.01869 0.0
H1734 H 0.21387 0.0643 0.03218 0.0
H1735 H 0.22871 0.05317 0.04714 0.0
C1736 C 0.22783 0.09426 0.08402 0.0
C1737 C 0.23906 0.092 0.10177 0.0
C1738 C 0.2303 0.08861 0.06132 0.0
C1739 C 0.2441 0.08063 0.05568 0.0
C1740 C 0.25525 0.078 0.07341 0.0
H1741 H 0.26082 0.07933 0.90079 0.0
H1742 H 0.26564 0.07014 0.94136 0.0
C1743 C 0.25266 0.08348 0.09642 0.0
C1744 C 0.24717 0.07671 0.03063 0.0
H1745 H 0.22857 0.06114 0.98295 0.0
C1746 C 0.25887 0.08504 0.01868 0.0
C1747 C 0.23682 0.06716 0.01763 0.0
C1748 C 0.22462 0.05726 0.02963 0.0
C1749 C 0.25936 0.0854 0.99391 0.0
C1750 C 0.24797 0.07709 0.98091 0.0
C1751 C 0.23727 0.06756 0.99292 0.0
C1752 C 0.24482 0.08082 0.95582 0.0
C1753 C 0.2711 0.09582 0.98183 0.0
C1754 C 0.23138 0.08943 0.95048 0.0
C1755 C 0.22867 0.09469 0.92765 0.0
C1756 C 0.23929 0.09136 0.90942 0.0
C1757 C 0.25243 0.08206 0.91446 0.0
C1758 C 0.25523 0.07689 0.9376 0.0
H1759 H 0.2788 0.10197 0.99456 0.0
H1760 H 0.27852 0.08872 0.9699 0.0
H1761 H 0.26495 0.10466 0.97092 0.0
H1762 H 0.22319 0.09259 0.96424 0.0
H1763 H 0.21836 0.1017 0.92443 0.0
H1764 H 0.92336 0.26441 0.90043 0.0
H1765 H 0.93332 0.26919 0.94055 0.0
H1766 H 0.91983 0.22253 0.96063 0.0
H1767 H 0.90986 0.21782 0.92121 0.0
H1768 H 0.91362 0.26745 0.98061 0.0
H1769 H 0.96306 0.22677 0.9908 0.0
H1770 H 0.95619 0.23326 0.9623 0.0
H1771 H 0.94669 0.21729 0.97721 0.0
C1772 C 0.92296 0.25507 0.91328 0.0
C1773 C 0.91583 0.24074 0.9077 0.0
C1774 C 0.9286 0.25782 0.93617 0.0
C1775 C 0.92753 0.24614 0.95351 0.0
C1776 C 0.92112 0.23161 0.94748 0.0
H1777 H 0.90711 0.21724 0.08329 0.0
H1778 H 0.91727 0.22289 0.04425 0.0
C1779 C 0.91531 0.22896 0.92491 0.0
C1780 C 0.931 0.24935 0.97868 0.0
H1781 H 0.94765 0.23174 0.02641 0.0
C1782 C 0.92149 0.26009 0.99066 0.0
C1783 C 0.94133 0.2398 0.99173 0.0
C1784 C 0.95251 0.22875 0.97978 0.0
C1785 C 0.92075 0.26025 0.01541 0.0
C1786 C 0.92991 0.24951 0.02841 0.0
C1787 C 0.94057 0.23991 0.01644 0.0
C1788 C 0.92616 0.24576 0.05331 0.0
C1789 C 0.90908 0.27081 0.02737 0.0
C1790 C 0.92825 0.25655 0.07172 0.0
C1791 C 0.92248 0.25327 0.09438 0.0
C1792 C 0.91441 0.23925 0.09873 0.0
C1793 C 0.91315 0.2282 0.08051 0.0
C1794 C 0.91901 0.23139 0.05815 0.0
H1795 H 0.90215 0.27776 0.01456 0.0
H1796 H 0.90093 0.26379 0.03829 0.0
H1797 H 0.91531 0.279 0.03924 0.0
H1798 H 0.93387 0.26766 0.06839 0.0
H1799 H 0.92358 0.26201 0.10806 0.0
H1800 H 0.78886 0.90107 0.92504 0.0
H1801 H 0.78454 0.91052 0.96485 0.0
H1802 H 0.74288 0.93446 0.94213 0.0
H1803 H 0.74715 0.92495 0.90165 0.0
H1804 H 0.78031 0.94258 0.98285 0.0
H1805 H 0.72898 0.90338 0.99615 0.0
H1806 H 0.7427 0.89997 0.97256 0.0
H1807 H 0.72954 0.91623 0.97101 0.0
C1808 C 0.77882 0.90846 0.92832 0.0
C1809 C 0.76826 0.91213 0.91015 0.0
C1810 C 0.77641 0.91391 0.95113 0.0
C1811 C 0.76334 0.92307 0.95649 0.0
C1812 C 0.753 0.9273 0.93834 0.0
H1813 H 0.74579 0.92572 0.11002 0.0
H1814 H 0.74185 0.93438 0.06904 0.0
C1815 C 0.75549 0.92193 0.91525 0.0
C1816 C 0.76046 0.92716 0.9815 0.0
H1817 H 0.74107 0.91352 0.02987 0.0
C1818 C 0.77143 0.93661 0.99309 0.0
C1819 C 0.74882 0.91944 0.99482 0.0
C1820 C 0.7368 0.90914 0.98317 0.0
C1821 C 0.77182 0.93756 0.01777 0.0
C1822 C 0.76115 0.92861 0.03117 0.0
C1823 C 0.74927 0.92033 0.01956 0.0
C1824 C 0.76393 0.92532 0.05651 0.0
C1825 C 0.78421 0.94745 0.02932 0.0
C1826 C 0.77761 0.91741 0.06299 0.0
C1827 C 0.77979 0.91236 0.08608 0.0
C1828 C 0.76835 0.91511 0.10336 0.0
C1829 C 0.75486 0.92354 0.09713 0.0
C1830 C 0.75258 0.92845 0.07376 0.0
H1831 H 0.78752 0.95747 0.01791 0.0
H1832 H 0.78022 0.95198 0.04663 0.0
H1833 H 0.79483 0.94027 0.03218 0.0
H1834 H 0.78638 0.91456 0.04993 0.0
H1835 H 0.79032 0.90592 0.09024 0.0
H1836 H 0.0702 0.76434 0.90128 0.0
H1837 H 0.05913 0.75957 0.94086 0.0
H1838 H 0.10551 0.75176 0.96803 0.0
H1839 H 0.11649 0.75657 0.9292 0.0
H1840 H 0.07993 0.72941 0.98338 0.0
H1841 H 0.06765 0.79283 0.99616 0.0
H1842 H 0.06113 0.78283 0.96998 0.0
H1843 H 0.08153 0.78659 0.97417 0.0
C1844 C 0.07793 0.76133 0.91568 0.0
C1845 C 0.0942 0.76096 0.91226 0.0
C1846 C 0.07163 0.75868 0.93822 0.0
C1847 C 0.08154 0.75539 0.95735 0.0
C1848 C 0.09766 0.75427 0.95354 0.0
H1849 H 0.11451 0.75095 0.08738 0.0
H1850 H 0.1041 0.74612 0.04818 0.0
C1851 C 0.10392 0.75709 0.93133 0.0
C1852 C 0.07581 0.75419 0.98192 0.0
H1853 H 0.07091 0.77748 0.03013 0.0
C1854 C 0.07737 0.73982 0.99356 0.0
C1855 C 0.07238 0.76775 0.99516 0.0
C1856 C 0.07054 0.78343 0.98339 0.0
C1857 C 0.07706 0.73892 0.01825 0.0
C1858 C 0.07547 0.75278 0.03158 0.0
C1859 C 0.0722 0.76687 0.0199 0.0
C1860 C 0.08057 0.75353 0.05655 0.0
C1861 C 0.07955 0.72329 0.02989 0.0
C1862 C 0.0708 0.75928 0.07448 0.0
C1863 C 0.07677 0.76194 0.09722 0.0
C1864 C 0.09266 0.75926 0.10198 0.0
C1865 C 0.10221 0.75309 0.08418 0.0
C1866 C 0.09623 0.75022 0.06179 0.0
H1867 H 0.07482 0.7137 0.01882 0.0
H1868 H 0.09227 0.72124 0.03209 0.0
H1869 H 0.07394 0.72283 0.04751 0.0
H1870 H 0.05873 0.76213 0.07071 0.0
H1871 H 0.06923 0.76688 0.11061 0.0
H1872 H 0.21809 0.91276 0.42382 0.0
H1873 H 0.22369 0.92281 0.46292 0.0
H1874 H 0.27065 0.93415 0.44139 0.0
H1875 H 0.26496 0.9241 0.40159 0.0
H1876 H 0.26875 0.91485 0.48153 0.0
H1877 H 0.23003 0.96567 0.4929 0.0
H1878 H 0.21966 0.94969 0.47978 0.0
H1879 H 0.23574 0.95852 0.46419 0.0
C1880 C 0.22949 0.91779 0.42713 0.0
C1881 C 0.24108 0.91767 0.40962 0.0
C1882 C 0.23265 0.92365 0.44951 0.0
C1883 C 0.24752 0.92946 0.45506 0.0
C1884 C 0.25903 0.92991 0.43739 0.0
H1885 H 0.2647 0.92487 0.60934 0.0
H1886 H 0.27034 0.93515 0.56963 0.0
C1887 C 0.25576 0.92423 0.41468 0.0
C1888 C 0.25121 0.93283 0.48012 0.0
H1889 H 0.23471 0.94992 0.52837 0.0
C1890 C 0.26178 0.92295 0.49178 0.0
C1891 C 0.24218 0.94345 0.49347 0.0
C1892 C 0.23139 0.95504 0.48186 0.0
C1893 C 0.26221 0.92215 0.51652 0.0
C1894 C 0.25191 0.9316 0.52983 0.0
C1895 C 0.24254 0.94262 0.51817 0.0
C1896 C 0.24824 0.92781 0.55474 0.0
C1897 C 0.27252 0.91013 0.52818 0.0
C1898 C 0.2338 0.92085 0.55967 0.0
C1899 C 0.23063 0.91497 0.58203 0.0
C1900 C 0.24176 0.91605 0.60016 0.0
C1901 C 0.25589 0.92392 0.59572 0.0
C1902 C 0.25915 0.9297 0.57305 0.0
H1903 H 0.27929 0.90318 0.5152 0.0
H1904 H 0.28086 0.91604 0.54018 0.0
H1905 H 0.26532 0.90203 0.53893 0.0
H1906 H 0.22522 0.91926 0.54584 0.0
H1907 H 0.2196 0.90908 0.58487 0.0
H1908 H 0.10416 0.21756 0.5843 0.0
H1909 H 0.09496 0.22205 0.54445 0.0
H1910 H 0.07026 0.2632 0.56742 0.0
H1911 H 0.07953 0.25873 0.60805 0.0
H1912 H 0.06302 0.22577 0.52616 0.0
H1913 H 0.10129 0.27788 0.51374 0.0
H1914 H 0.10489 0.26416 0.53727 0.0
H1915 H 0.08832 0.27692 0.5387 0.0
C1916 C 0.09666 0.22753 0.58109 0.0
C1917 C 0.0927 0.23788 0.59939 0.0
C1918 C 0.09136 0.23004 0.55823 0.0
C1919 C 0.08204 0.243 0.55292 0.0
C1920 C 0.07755 0.25316 0.57117 0.0
H1921 H 0.07983 0.2599 0.399 0.0
H1922 H 0.07095 0.26388 0.43987 0.0
C1923 C 0.08278 0.25056 0.59434 0.0
C1924 C 0.07805 0.24591 0.52786 0.0
H1925 H 0.09191 0.26545 0.47977 0.0
C1926 C 0.06893 0.23476 0.51605 0.0
C1927 C 0.0857 0.25766 0.51469 0.0
C1928 C 0.09565 0.26988 0.52658 0.0
C1929 C 0.06832 0.23429 0.49135 0.0
C1930 C 0.07723 0.24509 0.47815 0.0
C1931 C 0.08513 0.25715 0.48993 0.0
C1932 C 0.08086 0.24231 0.45292 0.0
C1933 C 0.05886 0.22165 0.47956 0.0
C1934 C 0.08934 0.22891 0.44678 0.0
C1935 C 0.09453 0.22672 0.42376 0.0
C1936 C 0.09133 0.23785 0.40619 0.0
C1937 C 0.08237 0.25106 0.41211 0.0
C1938 C 0.07733 0.25337 0.43541 0.0
H1939 H 0.04888 0.21799 0.49079 0.0
H1940 H 0.05433 0.22558 0.46222 0.0
H1941 H 0.06639 0.21127 0.47669 0.0
H1942 H 0.09247 0.22037 0.46005 0.0
H1943 H 0.10138 0.2164 0.41985 0.0
H1944 H 0.78815 0.09236 0.58742 0.0
H1945 H 0.78208 0.08284 0.54815 0.0
H1946 H 0.73611 0.06921 0.57145 0.0
H1947 H 0.74217 0.07894 0.61129 0.0
H1948 H 0.77155 0.05423 0.5283 0.0
H1949 H 0.72783 0.10225 0.51971 0.0
H1950 H 0.74161 0.10181 0.54374 0.0
H1951 H 0.72558 0.08832 0.5432 0.0
C1952 C 0.77685 0.08702 0.58441 0.0
C1953 C 0.76558 0.08653 0.60239 0.0
C1954 C 0.77341 0.08154 0.56191 0.0
C1955 C 0.75857 0.07553 0.55673 0.0
C1956 C 0.74758 0.07399 0.57501 0.0
H1957 H 0.73976 0.08325 0.40417 0.0
H1958 H 0.73468 0.07228 0.44361 0.0
C1959 C 0.75109 0.07941 0.59778 0.0
C1960 C 0.75457 0.07265 0.53163 0.0
H1961 H 0.73724 0.09106 0.48506 0.0
C1962 C 0.76367 0.06194 0.51888 0.0
C1963 C 0.74423 0.08265 0.5193 0.0
C1964 C 0.73425 0.09448 0.53204 0.0
C1965 C 0.76371 0.06191 0.49414 0.0
C1966 C 0.75457 0.073 0.48186 0.0
C1967 C 0.74428 0.0826 0.49453 0.0
C1968 C 0.75789 0.07707 0.45692 0.0
C1969 C 0.77428 0.05068 0.48136 0.0
C1970 C 0.77258 0.08328 0.45133 0.0
C1971 C 0.77538 0.08969 0.42918 0.0
C1972 C 0.76361 0.08996 0.41194 0.0
C1973 C 0.74909 0.08304 0.41704 0.0
C1974 C 0.74618 0.07682 0.43954 0.0
H1975 H 0.77598 0.0398 0.49171 0.0
H1976 H 0.76952 0.04761 0.46376 0.0
H1977 H 0.78591 0.05618 0.47891 0.0
H1978 H 0.78168 0.08393 0.46455 0.0
H1979 H 0.78667 0.09496 0.42584 0.0
H1980 H 0.92631 0.74674 0.6092 0.0
H1981 H 0.93507 0.74289 0.56827 0.0
H1982 H 0.91493 0.78725 0.54908 0.0
H1983 H 0.90619 0.79112 0.58937 0.0
H1984 H 0.91431 0.74191 0.52904 0.0
H1985 H 0.95785 0.78876 0.51721 0.0
H1986 H 0.95235 0.78145 0.54592 0.0
H1987 H 0.94053 0.79592 0.53132 0.0
C1988 C 0.92408 0.7558 0.59631 0.0
C1989 C 0.91553 0.76922 0.60252 0.0
C1990 C 0.92905 0.75356 0.57296 0.0
C1991 C 0.92585 0.76489 0.55569 0.0
C1992 C 0.91783 0.7785 0.56216 0.0
H1993 H 0.90186 0.78936 0.42381 0.0
H1994 H 0.9112 0.78521 0.46373 0.0
C1995 C 0.91272 0.78064 0.58523 0.0
C1996 C 0.92921 0.76213 0.53037 0.0
H1997 H 0.94318 0.78131 0.48207 0.0
C1998 C 0.92108 0.75016 0.51875 0.0
C1999 C 0.9381 0.77286 0.51699 0.0
C2000 C 0.94784 0.78537 0.52856 0.0
C2001 C 0.92029 0.74964 0.49401 0.0
C2002 C 0.92796 0.76131 0.48068 0.0
C2003 C 0.93725 0.7724 0.4923 0.0
C2004 C 0.92394 0.76409 0.45561 0.0
C2005 C 0.91015 0.7375 0.48233 0.0
C2006 C 0.92832 0.75374 0.43756 0.0
C2007 C 0.92302 0.75614 0.41439 0.0
C2008 C 0.91314 0.76882 0.40914 0.0
C2009 C 0.90932 0.77939 0.42721 0.0
C2010 C 0.9147 0.77708 0.45009 0.0
H2011 H 0.90441 0.72966 0.4953 0.0
H2012 H 0.90097 0.74328 0.47159 0.0
H2013 H 0.91735 0.73027 0.4703 0.0
H2014 H 0.93555 0.74369 0.44146 0.0
H2015 H 0.92615 0.7478 0.40086 0.0
H2016 H 0.719 0.59724 0.58447 0.0
H2017 H 0.7241 0.58726 0.54522 0.0
H2018 H 0.77073 0.57421 0.56618 0.0
H2019 H 0.76555 0.58421 0.60618 0.0
H2020 H 0.76938 0.59354 0.52604 0.0
H2021 H 0.72861 0.54431 0.51508 0.0
H2022 H 0.7189 0.56067 0.52826 0.0
H2023 H 0.73469 0.55125 0.54374 0.0
C2024 C 0.73021 0.59186 0.58102 0.0
C2025 C 0.74186 0.59148 0.59845 0.0
C2026 C 0.73309 0.58605 0.55854 0.0
C2027 C 0.74772 0.57976 0.55278 0.0
C2028 C 0.75928 0.57883 0.57034 0.0
H2029 H 0.76392 0.58118 0.39782 0.0
H2030 H 0.7693 0.57169 0.43806 0.0
C2031 C 0.7563 0.58448 0.59316 0.0
C2032 C 0.75113 0.57629 0.52765 0.0
H2033 H 0.73367 0.55993 0.47956 0.0
C2034 C 0.76203 0.58574 0.51588 0.0
C2035 C 0.74159 0.56606 0.51439 0.0
C2036 C 0.73041 0.55488 0.5261 0.0
C2037 C 0.76238 0.58649 0.49113 0.0
C2038 C 0.75164 0.57748 0.47794 0.0
C2039 C 0.74185 0.5669 0.48969 0.0
C2040 C 0.74813 0.58131 0.45301 0.0
C2041 C 0.77316 0.598 0.47929 0.0
C2042 C 0.73433 0.58946 0.44807 0.0
C2043 C 0.73132 0.59492 0.42541 0.0
C2044 C 0.74198 0.59224 0.40699 0.0
C2045 C 0.75548 0.58338 0.41163 0.0
C2046 C 0.7586 0.57803 0.43458 0.0
H2047 H 0.78062 0.60436 0.49211 0.0
H2048 H 0.78085 0.59177 0.46667 0.0
H2049 H 0.76622 0.60665 0.46913 0.0
H2050 H 0.72611 0.59212 0.46201 0.0
H2051 H 0.72075 0.6016 0.42247 0.0
H2052 H 0.4241 0.76182 0.40094 0.0
H2053 H 0.43346 0.76586 0.44155 0.0
H2054 H 0.41412 0.72132 0.46165 0.0
H2055 H 0.40474 0.71729 0.4217 0.0
H2056 H 0.41292 0.76619 0.48201 0.0
H2057 H 0.45823 0.72071 0.49109 0.0
H2058 H 0.4521 0.72827 0.46281 0.0
H2059 H 0.44087 0.71331 0.47731 0.0
C2060 C 0.42215 0.75278 0.41396 0.0
C2061 C 0.41365 0.73925 0.40812 0.0
C2062 C 0.42746 0.75512 0.43712 0.0
C2063 C 0.42468 0.74379 0.45453 0.0
C2064 C 0.41668 0.73009 0.44843 0.0
H2065 H 0.40451 0.71698 0.58625 0.0
H2066 H 0.41344 0.72187 0.54634 0.0
C2067 C 0.41121 0.72786 0.42556 0.0
C2068 C 0.42852 0.74657 0.47968 0.0
H2069 H 0.44423 0.72763 0.52696 0.0
C2070 C 0.42021 0.75815 0.49187 0.0
C2071 C 0.43809 0.7361 0.49245 0.0
C2072 C 0.44796 0.724 0.48019 0.0
C2073 C 0.4199 0.75846 0.51664 0.0
C2074 C 0.42828 0.747 0.52941 0.0
C2075 C 0.43777 0.73638 0.51716 0.0
C2076 C 0.42477 0.74378 0.55455 0.0
C2077 C 0.40949 0.7701 0.52894 0.0
C2078 C 0.42854 0.7543 0.5727 0.0
C2079 C 0.42346 0.75148 0.59587 0.0
C2080 C 0.41441 0.73818 0.60103 0.0
C2081 C 0.41132 0.72742 0.58291 0.0
C2082 C 0.41647 0.73015 0.56003 0.0
H2083 H 0.40304 0.77766 0.51635 0.0
H2084 H 0.40089 0.7639 0.54022 0.0
H2085 H 0.41666 0.77768 0.54054 0.0
H2086 H 0.43506 0.76483 0.56885 0.0
H2087 H 0.42601 0.75998 0.60945 0.0
H2088 H 0.26417 0.43604 0.40239 0.0
H2089 H 0.26078 0.44633 0.4427 0.0
H2090 H 0.24959 0.39997 0.46724 0.0
H2091 H 0.25276 0.38985 0.42758 0.0
H2092 H 0.23154 0.42314 0.48881 0.0
H2093 H 0.29522 0.43684 0.49131 0.0
H2094 H 0.28332 0.44605 0.46919 0.0
H2095 H 0.28687 0.42542 0.46779 0.0
C2096 C 0.26061 0.4282 0.41636 0.0
C2097 C 0.25892 0.41213 0.41197 0.0
C2098 C 0.25879 0.43404 0.43937 0.0
C2099 C 0.25516 0.42386 0.45807 0.0
C2100 C 0.25241 0.40806 0.45318 0.0
H2101 H 0.2816 0.39448 0.58564 0.0
H2102 H 0.27719 0.40471 0.54646 0.0
C2103 C 0.25431 0.40226 0.43048 0.0
C2104 C 0.25574 0.42875 0.48318 0.0
H2105 H 0.28234 0.43414 0.52724 0.0
C2106 C 0.24252 0.42606 0.49727 0.0
C2107 C 0.2701 0.43252 0.49414 0.0
C2108 C 0.28475 0.43534 0.47997 0.0
C2109 C 0.24361 0.4255 0.52198 0.0
C2110 C 0.25828 0.42797 0.53284 0.0
C2111 C 0.27112 0.43223 0.51884 0.0
C2112 C 0.26133 0.42296 0.55749 0.0
C2113 C 0.22942 0.42084 0.53609 0.0
C2114 C 0.254 0.42993 0.57701 0.0
C2115 C 0.25642 0.42396 0.5998 0.0
C2116 C 0.26622 0.41095 0.60337 0.0
C2117 C 0.27384 0.4044 0.58374 0.0
C2118 C 0.27142 0.41031 0.5612 0.0
H2119 H 0.21928 0.41793 0.5247 0.0
H2120 H 0.23213 0.41057 0.54731 0.0
H2121 H 0.226 0.43061 0.54785 0.0
H2122 H 0.24632 0.43984 0.57461 0.0
H2123 H 0.25044 0.42935 0.61451 0.0
H2124 H 0.57213 0.2599 0.61188 0.0
H2125 H 0.56209 0.25542 0.57169 0.0
H2126 H 0.60874 0.26045 0.54409 0.0
H2127 H 0.61872 0.26489 0.58349 0.0
H2128 H 0.56507 0.27675 0.53275 0.0
H2129 H 0.59295 0.22034 0.51212 0.0
H2130 H 0.58997 0.22701 0.542 0.0
H2131 H 0.60664 0.23355 0.52534 0.0
C2132 C 0.58022 0.25984 0.59722 0.0
C2133 C 0.59621 0.26282 0.6009 0.0
C2134 C 0.57448 0.25729 0.57432 0.0
C2135 C 0.58472 0.25733 0.55496 0.0
C2136 C 0.60066 0.26003 0.55877 0.0
H2137 H 0.59883 0.29069 0.42493 0.0
H2138 H 0.58984 0.28538 0.46464 0.0
C2139 C 0.60633 0.26273 0.58138 0.0
C2140 C 0.57907 0.25592 0.53033 0.0
H2141 H 0.58926 0.23811 0.47884 0.0
C2142 C 0.5699 0.268 0.52101 0.0
C2143 C 0.58508 0.24435 0.51502 0.0
C2144 C 0.59407 0.23048 0.5242 0.0
C2145 C 0.5681 0.26979 0.49655 0.0
C2146 C 0.57587 0.25937 0.48113 0.0
C2147 C 0.58349 0.24627 0.49057 0.0
C2148 C 0.57879 0.26337 0.45603 0.0
C2149 C 0.55861 0.28334 0.48744 0.0
C2150 C 0.57562 0.25275 0.43773 0.0
C2151 C 0.58083 0.25578 0.41471 0.0
C2152 C 0.58957 0.26932 0.40983 0.0
C2153 C 0.59217 0.28013 0.42805 0.0
C2154 C 0.58687 0.27719 0.45081 0.0
H2155 H 0.54884 0.28609 0.49963 0.0
H2156 H 0.56617 0.29385 0.48637 0.0
H2157 H 0.55377 0.28091 0.46967 0.0
H2158 H 0.56958 0.24191 0.44142 0.0
H2159 H 0.57874 0.24719 0.40107 0.0
H2160 H 0.71634 0.40598 0.91888 0.0
H2161 H 0.72027 0.41506 0.95901 0.0
H2162 H 0.76487 0.43454 0.93951 0.0
H2163 H 0.76094 0.42548 0.89874 0.0
H2164 H 0.76526 0.41374 0.97937 0.0
H2165 H 0.71955 0.45869 0.98963 0.0
H2166 H 0.71217 0.44144 0.97556 0.0
H2167 H 0.72704 0.45286 0.96118 0.0
C2168 C 0.72689 0.41244 0.92292 0.0
C2169 C 0.73835 0.41499 0.9056 0.0
C2170 C 0.72906 0.41773 0.94589 0.0
C2171 C 0.74276 0.42567 0.95221 0.0
C2172 C 0.75413 0.42859 0.93491 0.0
H2173 H 0.75942 0.42582 0.10705 0.0
H2174 H 0.76405 0.4351 0.06652 0.0
C2175 C 0.75185 0.42345 0.91166 0.0
C2176 C 0.74553 0.42924 0.97746 0.0
H2177 H 0.72659 0.44435 0.02516 0.0
C2178 C 0.75718 0.42087 0.98942 0.0
C2179 C 0.73502 0.4386 0.99048 0.0
C2180 C 0.72284 0.44854 0.9785 0.0
C2181 C 0.75755 0.42032 0.01418 0.0
C2182 C 0.74607 0.4285 0.02718 0.0
C2183 C 0.73535 0.43803 0.01519 0.0
C2184 C 0.74298 0.42479 0.05229 0.0
C2185 C 0.76929 0.40987 0.0262 0.0
C2186 C 0.72942 0.4164 0.0578 0.0
C2187 C 0.7268 0.41111 0.08064 0.0
C2188 C 0.73763 0.41417 0.0987 0.0
C2189 C 0.75087 0.42329 0.09351 0.0
C2190 C 0.75357 0.42851 0.07038 0.0
H2191 H 0.77682 0.40355 0.01343 0.0
H2192 H 0.77689 0.41698 0.03784 0.0
H2193 H 0.76317 0.40116 0.03739 0.0
H2194 H 0.72109 0.41341 0.04415 0.0
H2195 H 0.7164 0.40425 0.084 0.0
H2196 H 0.60304 0.72096 0.08536 0.0
H2197 H 0.59305 0.72607 0.04603 0.0
H2198 H 0.57148 0.76854 0.07053 0.0
H2199 H 0.58144 0.7634 0.11059 0.0
H2200 H 0.55964 0.73314 0.03003 0.0
H2201 H 0.60374 0.78004 0.01484 0.0
H2202 H 0.60687 0.76551 0.0374 0.0
H2203 H 0.59195 0.77997 0.04118 0.0
C2204 C 0.59602 0.73132 0.08259 0.0
C2205 C 0.59313 0.74184 0.10112 0.0
C2206 C 0.59027 0.73419 0.06006 0.0
C2207 C 0.58161 0.7477 0.05535 0.0
C2208 C 0.57819 0.75805 0.07386 0.0
H2209 H 0.58268 0.76415 0.90219 0.0
H2210 H 0.57312 0.76963 0.94233 0.0
C2211 C 0.58383 0.75508 0.09669 0.0
C2212 C 0.5773 0.75103 0.03055 0.0
H2213 H 0.59258 0.76827 0.9815 0.0
C2214 C 0.56645 0.74119 0.01945 0.0
C2215 C 0.58611 0.76161 0.0168 0.0
C2216 C 0.59785 0.77244 0.02799 0.0
C2217 C 0.56514 0.74075 0.9948 0.0
C2218 C 0.57519 0.7501 0.98093 0.0
C2219 C 0.58491 0.76105 0.99211 0.0
C2220 C 0.57817 0.74649 0.95571 0.0
C2221 C 0.55363 0.7296 0.98381 0.0
C2222 C 0.58398 0.73168 0.94985 0.0
C2223 C 0.58951 0.72863 0.92725 0.0
C2224 C 0.58935 0.74028 0.90983 0.0
C2225 C 0.58276 0.7549 0.9152 0.0
C2226 C 0.57737 0.75805 0.93811 0.0
H2227 H 0.54318 0.72815 0.99521 0.0
H2228 H 0.54982 0.73366 0.96614 0.0
H2229 H 0.55918 0.71796 0.9819 0.0
H2230 H 0.58511 0.72269 0.96317 0.0
H2231 H 0.59458 0.71728 0.92372 0.0
H2232 H 0.28757 0.60319 0.08895 0.0
H2233 H 0.28303 0.59397 0.04907 0.0
H2234 H 0.24121 0.57033 0.07184 0.0
H2235 H 0.24574 0.57959 0.11242 0.0
H2236 H 0.27813 0.5616 0.03104 0.0
H2237 H 0.22789 0.60218 0.01783 0.0
H2238 H 0.24184 0.60545 0.04117 0.0
H2239 H 0.22838 0.58947 0.04314 0.0
C2240 C 0.27746 0.59591 0.08567 0.0
C2241 C 0.26694 0.59223 0.10389 0.0
C2242 C 0.27492 0.59059 0.06281 0.0
C2243 C 0.26174 0.58158 0.05745 0.0
C2244 C 0.25142 0.57736 0.07563 0.0
H2245 H 0.24542 0.58098 0.90345 0.0
H2246 H 0.24069 0.57176 0.94401 0.0
C2247 C 0.25406 0.58258 0.09878 0.0
C2248 C 0.25877 0.57762 0.03241 0.0
H2249 H 0.24006 0.5922 0.98403 0.0
C2250 C 0.26947 0.56789 0.02079 0.0
C2251 C 0.24743 0.58576 0.01907 0.0
C2252 C 0.23568 0.59635 0.03077 0.0
C2253 C 0.26995 0.5671 0.9961 0.0
C2254 C 0.25965 0.57648 0.98271 0.0
C2255 C 0.24798 0.58504 0.99432 0.0
C2256 C 0.26283 0.58004 0.95755 0.0
C2257 C 0.2821 0.55692 0.98454 0.0
C2258 C 0.27678 0.58769 0.95176 0.0
C2259 C 0.27939 0.59307 0.92896 0.0
C2260 C 0.26813 0.59089 0.91122 0.0
C2261 C 0.25436 0.58269 0.9167 0.0
C2262 C 0.25163 0.57747 0.93983 0.0
H2263 H 0.28499 0.54669 0.99577 0.0
H2264 H 0.27809 0.5527 0.96705 0.0
H2265 H 0.29297 0.56378 0.98203 0.0
H2266 H 0.28545 0.59011 0.96519 0.0
H2267 H 0.29012 0.59933 0.92539 0.0
H2268 H 0.42548 0.24321 0.90016 0.0
H2269 H 0.43493 0.23862 0.9406 0.0
H2270 H 0.41211 0.28082 0.96356 0.0
H2271 H 0.40264 0.28542 0.92376 0.0
H2272 H 0.44534 0.27475 0.98067 0.0
H2273 H 0.40247 0.22666 0.99547 0.0
H2274 H 0.41459 0.22678 0.9695 0.0
H2275 H 0.39929 0.24091 0.97252 0.0
C2276 C 0.42268 0.25159 0.9138 0.0
C2277 C 0.41319 0.26461 0.90877 0.0
C2278 C 0.42804 0.24893 0.93686 0.0
C2279 C 0.42413 0.25935 0.95504 0.0
C2280 C 0.41525 0.27264 0.94978 0.0
H2281 H 0.4097 0.28931 0.08696 0.0
H2282 H 0.41929 0.28428 0.04747 0.0
C2283 C 0.40979 0.27521 0.92699 0.0
C2284 C 0.42824 0.25632 0.97999 0.0
H2285 H 0.41332 0.23858 0.02889 0.0
C2286 C 0.43872 0.2665 0.99119 0.0
C2287 C 0.4197 0.24547 0.99364 0.0
C2288 C 0.40834 0.23428 0.98234 0.0
C2289 C 0.43993 0.26696 0.01585 0.0
C2290 C 0.43014 0.25726 0.02962 0.0
C2291 C 0.42079 0.24605 0.01835 0.0
C2292 C 0.42702 0.26071 0.05484 0.0
C2293 C 0.45105 0.27846 0.02695 0.0
C2294 C 0.42823 0.24916 0.07238 0.0
C2295 C 0.42277 0.25209 0.09532 0.0
C2296 C 0.41571 0.26647 0.10076 0.0
C2297 C 0.41512 0.27814 0.08337 0.0
C2298 C 0.42072 0.2753 0.06075 0.0
H2299 H 0.46146 0.28028 0.01561 0.0
H2300 H 0.44511 0.2899 0.02892 0.0
H2301 H 0.45496 0.27446 0.04461 0.0
H2302 H 0.43287 0.23774 0.06811 0.0
H2303 H 0.42319 0.24283 0.10831 0.0
H2304 H 0.26555 0.05831 0.20617 0.0
H2305 H 0.26534 0.03312 0.22658 0.0
H2306 H 0.21499 0.03272 0.22445 0.0
H2307 H 0.21511 0.05771 0.2036 0.0
H2308 H 0.25282 0.02606 0.26922 0.0
H2309 H 0.22487 0.98941 0.20067 0.0
H2310 H 0.23236 0.00869 0.19453 0.0
H2311 H 0.21358 0.00632 0.20828 0.0
C2312 C 0.25443 0.05277 0.20977 0.0
C2313 C 0.24035 0.05999 0.20313 0.0
C2314 C 0.25433 0.03838 0.22151 0.0
C2315 C 0.24016 0.03087 0.22679 0.0
C2316 C 0.22609 0.03805 0.22009 0.0
H2317 H 0.21487 0.94763 0.30656 0.0
H2318 H 0.215 0.97248 0.2851 0.0
C2319 C 0.22618 0.0524 0.20826 0.0
C2320 C 0.2401 0.01594 0.24026 0.0
H2321 H 0.22737 0.97809 0.23879 0.0
C2322 C 0.24734 0.01555 0.26248 0.0
C2323 C 0.23292 1.0022 0.23154 0.0
C2324 C 0.22562 1.00158 0.20736 0.0
C2325 C 0.24737 1.00193 0.27632 0.0
C2326 C 0.24011 0.98825 0.26764 0.0
C2327 C 0.23286 0.98861 0.24546 0.0
C2328 C 0.24011 0.97338 0.28117 0.0
C2329 C 0.2549 1.00237 0.30034 0.0
C2330 C 0.25418 0.96558 0.28599 0.0
C2331 C 0.25415 0.95137 0.29819 0.0
C2332 C 0.24003 0.94465 0.30582 0.0
C2333 C 0.22595 0.95252 0.30104 0.0
C2334 C 0.226 0.9667 0.28872 0.0
H2335 H 0.25659 0.01452 0.30669 0.0
H2336 H 0.24775 0.9959 0.31342 0.0
H2337 H 0.26653 0.99668 0.29939 0.0
H2338 H 0.26519 0.97039 0.28001 0.0
H2339 H 0.26519 0.9456 0.30147 0.0
H2340 H 0.94418 0.21427 0.20314 0.0
H2341 H 0.96861 0.21447 0.22557 0.0
H2342 H 0.96693 0.26475 0.2289 0.0
H2343 H 0.94236 0.26463 0.20691 0.0
H2344 H 0.99694 0.2277 0.21597 0.0
H2345 H 0.97259 0.2535 0.29765 0.0
H2346 H 0.96036 0.24614 0.27426 0.0
H2347 H 0.96915 0.26517 0.27191 0.0
C2348 C 0.949 0.22538 0.20864 0.0
C2349 C 0.94125 0.23943 0.20336 0.0
C2350 C 0.96298 0.22547 0.22149 0.0
C2351 C 0.96947 0.2396 0.22937 0.0
C2352 C 0.96196 0.25367 0.22358 0.0
H2353 H 0.05486 0.26511 0.30292 0.0
H2354 H 0.02977 0.26476 0.28214 0.0
C2355 C 0.94796 0.25359 0.21082 0.0
C2356 C 0.98423 0.23962 0.24329 0.0
H2357 H 1.00026 0.25136 0.29558 0.0
C2358 C 0.99763 0.23279 0.23343 0.0
C2359 C 0.98515 0.24625 0.26612 0.0
C2360 C 0.97102 0.25305 0.27824 0.0
C2361 C 0.01197 0.23269 0.24552 0.0
C2362 C 0.0129 0.23942 0.26825 0.0
C2363 C 0.99952 0.24623 0.27815 0.0
C2364 C 0.02772 0.23958 0.28191 0.0
C2365 C 0.0261 0.22569 0.23366 0.0
C2366 C 0.03471 0.22556 0.28922 0.0
C2367 C 0.04902 0.22573 0.30119 0.0
C2368 C 0.05661 0.23993 0.30611 0.0
C2369 C 0.04934 0.25398 0.29938 0.0
C2370 C 0.03501 0.2538 0.28749 0.0
H2371 H 0.02433 0.22429 0.21439 0.0
H2372 H 0.0366 0.23305 0.23664 0.0
H2373 H 0.02842 0.21398 0.24127 0.0
H2374 H 0.02916 0.21447 0.28548 0.0
H2375 H 0.05426 0.2147 0.30616 0.0
H2376 H 0.78872 0.06125 0.30811 0.0
H2377 H 0.78866 0.03678 0.28579 0.0
H2378 H 0.73846 0.03877 0.28077 0.0
H2379 H 0.73839 0.06323 0.30315 0.0
H2380 H 0.7508 0.00888 0.29399 0.0
H2381 H 0.77991 0.03273 0.21429 0.0
H2382 H 0.7899 0.03634 0.2416 0.0
H2383 H 0.77114 0.04508 0.23642 0.0
C2384 C 0.77765 0.05648 0.30231 0.0
C2385 C 0.76356 0.06424 0.30735 0.0
C2386 C 0.77765 0.04254 0.28942 0.0
C2387 C 0.76357 0.03607 0.28129 0.0
C2388 C 0.74946 0.0436 0.28674 0.0
H2389 H 0.73898 0.95047 0.20573 0.0
H2390 H 0.73837 0.97553 0.22645 0.0
C2391 C 0.74945 0.05759 0.29954 0.0
C2392 C 0.76354 0.02138 0.26733 0.0
H2393 H 0.77597 0.00537 0.21547 0.0
C2394 C 0.75623 0.00811 0.27677 0.0
C2395 C 0.77068 0.02039 0.2449 0.0
C2396 C 0.77825 0.03441 0.23354 0.0
C2397 C 0.75615 0.99379 0.26464 0.0
C2398 C 0.76324 0.9928 0.24213 0.0
C2399 C 0.77051 0.00611 0.23267 0.0
C2400 C 0.7635 0.978 0.22833 0.0
C2401 C 0.74888 0.97975 0.27638 0.0
C2402 C 0.7778 0.97135 0.22152 0.0
C2403 C 0.77818 0.95712 0.20939 0.0
C2404 C 0.76425 0.94924 0.20376 0.0
C2405 C 0.74992 0.95617 0.20992 0.0
C2406 C 0.74956 0.97045 0.22196 0.0
H2407 H 0.74791 0.98134 0.29575 0.0
H2408 H 0.73692 0.978 0.26931 0.0
H2409 H 0.75577 0.96902 0.27287 0.0
H2410 H 0.78872 0.977 0.22607 0.0
H2411 H 0.78941 0.95213 0.2049 0.0
H2412 H 0.06094 0.742 0.21074 0.0
H2413 H 0.03609 0.74259 0.23197 0.0
H2414 H 0.03488 0.79277 0.22571 0.0
H2415 H 0.05956 0.79223 0.20397 0.0
H2416 H 0.02912 0.7564 0.27362 0.0
H2417 H 0.99157 0.78134 0.20346 0.0
H2418 H 0.01094 0.77399 0.19766 0.0
H2419 H 0.00832 0.79314 0.2101 0.0
C2420 C 0.05532 0.75316 0.21366 0.0
C2421 C 0.0622 0.76706 0.20552 0.0
C2422 C 0.04111 0.75348 0.22587 0.0
C2423 C 0.03346 0.7677 0.2302 0.0
C2424 C 0.04033 0.78162 0.22213 0.0
H2425 H 0.94902 0.79271 0.30745 0.0
H2426 H 0.97419 0.79284 0.28693 0.0
C2427 C 0.05451 0.7813 0.20979 0.0
C2428 C 0.0186 0.76795 0.24387 0.0
H2429 H 0.98037 0.77944 0.24164 0.0
C2430 C 0.01845 0.76138 0.26656 0.0
C2431 C 0.00465 0.77446 0.23472 0.0
C2432 C 0.00378 0.781 0.21007 0.0
C2433 C 0.00483 0.76131 0.28042 0.0
C2434 C 0.99092 0.76785 0.27128 0.0
C2435 C 0.99106 0.77449 0.24866 0.0
C2436 C 0.97601 0.76769 0.28472 0.0
C2437 C 0.00549 0.75447 0.30488 0.0
C2438 C 0.96866 0.75351 0.29032 0.0
C2439 C 0.95426 0.75339 0.30201 0.0
C2440 C 0.9469 0.76747 0.30833 0.0
C2441 C 0.95439 0.78166 0.30296 0.0
C2442 C 0.96876 0.78176 0.29116 0.0
H2443 H 0.01769 0.7534 0.31136 0.0
H2444 H 0.99874 0.76174 0.31749 0.0
H2445 H 1.00023 0.74263 0.30465 0.0
H2446 H 0.97391 0.74251 0.28521 0.0
H2447 H 0.94877 0.74227 0.30576 0.0
H2448 H 0.74162 0.94726 0.80576 0.0
H2449 H 0.74201 0.97239 0.78508 0.0
H2450 H 0.79229 0.97316 0.78913 0.0
H2451 H 0.79202 0.94804 0.80972 0.0
H2452 H 0.75529 1.00187 0.79919 0.0
H2453 H 0.78286 0.97842 0.71796 0.0
H2454 H 0.77398 0.96598 0.73988 0.0
H2455 H 0.79301 0.97416 0.74492 0.0
C2456 C 0.75276 0.95281 0.80237 0.0
C2457 C 0.76679 0.9456 0.8093 0.0
C2458 C 0.75296 0.96717 0.79054 0.0
C2459 C 0.76719 0.97453 0.78523 0.0
C2460 C 0.78119 0.96756 0.79267 0.0
H2461 H 0.79205 0.05873 0.70724 0.0
H2462 H 0.79219 0.03426 0.72964 0.0
C2463 C 0.781 0.95324 0.80458 0.0
C2464 C 0.76738 0.98943 0.77178 0.0
H2465 H 0.77929 0.00577 0.71986 0.0
C2466 C 0.7605 1.00273 0.78182 0.0
C2467 C 0.77423 0.99054 0.74916 0.0
C2468 C 0.78134 0.97651 0.73718 0.0
C2469 C 0.76049 0.01717 0.77001 0.0
C2470 C 0.76721 0.01826 0.74725 0.0
C2471 C 0.77414 0.00495 0.73727 0.0
C2472 C 0.76707 0.03306 0.73345 0.0
C2473 C 0.75359 0.0312 0.78227 0.0
C2474 C 0.75289 0.04039 0.72769 0.0
C2475 C 0.75279 0.05439 0.71498 0.0
C2476 C 0.76685 0.06129 0.70749 0.0
C2477 C 0.78101 0.05374 0.71277 0.0
C2478 C 0.78111 0.03976 0.72559 0.0
H2479 H 0.75317 0.02954 0.80167 0.0
H2480 H 0.7604 0.04193 0.77838 0.0
H2481 H 0.74144 0.03299 0.776 0.0
H2482 H 0.74188 0.03525 0.73298 0.0
H2483 H 0.74166 0.05982 0.71106 0.0
H2484 H 0.95095 0.74037 0.70622 0.0
H2485 H 0.97588 0.74048 0.72753 0.0
H2486 H 0.97683 0.79077 0.72465 0.0
H2487 H 0.95195 0.79079 0.70343 0.0
H2488 H 0.0057 0.75406 0.71462 0.0
H2489 H 0.98093 0.78044 0.79585 0.0
H2490 H 0.96886 0.77172 0.77331 0.0
H2491 H 0.97694 0.79087 0.76905 0.0
C2492 C 0.95652 0.75145 0.70997 0.0
C2493 C 0.94941 0.76558 0.70321 0.0
C2494 C 0.97076 0.75149 0.72217 0.0
C2495 C 0.97808 0.76564 0.72802 0.0
C2496 C 0.97125 0.77973 0.72069 0.0
H2497 H 0.06096 0.79108 0.80837 0.0
H2498 H 0.03657 0.7908 0.78578 0.0
C2499 C 0.95707 0.7797 0.70842 0.0
C2500 C 0.99279 0.7657 0.74197 0.0
H2501 H 0.00836 0.77725 0.79461 0.0
C2502 C 0.00629 0.75907 0.73215 0.0
C2503 C 0.99354 0.7723 0.7648 0.0
C2504 C 0.97929 0.77913 0.77654 0.0
C2505 C 0.0206 0.75912 0.74435 0.0
C2506 C 0.02134 0.76563 0.76728 0.0
C2507 C 0.00781 0.77226 0.77707 0.0
C2508 C 0.03603 0.7657 0.78139 0.0
C2509 C 0.03486 0.75256 0.73228 0.0
C2510 C 0.0437 0.75167 0.78693 0.0
C2511 C 0.05767 0.7518 0.79975 0.0
C2512 C 0.06419 0.76596 0.80757 0.0
C2513 C 0.05627 0.77997 0.80259 0.0
C2514 C 0.04232 0.77983 0.78966 0.0
H2515 H 0.0334 0.75227 0.71283 0.0
H2516 H 0.04544 0.75953 0.73652 0.0
H2517 H 0.0368 0.74041 0.73837 0.0
H2518 H 0.03888 0.74058 0.78134 0.0
H2519 H 0.0634 0.74079 0.80343 0.0
H2520 H 0.26616 0.94464 0.70848 0.0
H2521 H 0.26599 0.96931 0.73033 0.0
H2522 H 0.21579 0.97107 0.72522 0.0
H2523 H 0.21583 0.94638 0.7034 0.0
H2524 H 0.25346 0.99911 0.71656 0.0
H2525 H 0.2246 0.97561 0.79672 0.0
H2526 H 0.23346 0.96317 0.7748 0.0
H2527 H 0.21465 0.97176 0.76946 0.0
C2528 C 0.25508 0.95028 0.71195 0.0
C2529 C 0.241 0.9435 0.70426 0.0
C2530 C 0.25501 0.96439 0.72445 0.0
C2531 C 0.24087 0.97192 0.72972 0.0
C2532 C 0.22682 0.96532 0.72171 0.0
H2533 H 0.21545 0.05604 0.80647 0.0
H2534 H 0.21589 0.03127 0.78498 0.0
C2535 C 0.22688 0.95126 0.70911 0.0
C2536 C 0.24085 0.98671 0.74346 0.0
H2537 H 0.2286 1.00294 0.79527 0.0
C2538 C 0.24809 0.99995 0.73381 0.0
C2539 C 0.23378 0.98779 0.76594 0.0
C2540 C 0.22628 0.97382 0.77751 0.0
C2541 C 0.24819 0.01433 0.7458 0.0
C2542 C 0.2412 0.01541 0.76837 0.0
C2543 C 0.23397 1.00213 0.77802 0.0
C2544 C 0.24108 0.03024 0.78212 0.0
C2545 C 0.2554 0.02832 0.73384 0.0
C2546 C 0.2551 0.03777 0.78822 0.0
C2547 C 0.25487 0.05199 0.80042 0.0
C2548 C 0.24063 0.05889 0.80705 0.0
C2549 C 0.22663 0.05107 0.80162 0.0
C2550 C 0.22686 0.0369 0.78931 0.0
H2551 H 0.25617 0.02668 0.71446 0.0
H2552 H 0.24857 0.03909 0.73744 0.0
H2553 H 0.26742 0.03005 0.74064 0.0
H2554 H 0.26623 0.03269 0.78345 0.0
H2555 H 0.26587 0.05764 0.80446 0.0
H2556 H 0.94666 0.21598 0.80485 0.0
H2557 H 0.97149 0.21576 0.7834 0.0
H2558 H 0.97039 0.266 0.77902 0.0
H2559 H 0.94561 0.26635 0.80051 0.0
H2560 H 0.97719 0.22806 0.73739 0.0
H2561 H 0.01447 0.25655 0.80495 0.0
H2562 H 0.99568 0.24812 0.81183 0.0
H2563 H 0.99684 0.26688 0.79775 0.0
C2564 C 0.95177 0.227 0.79951 0.0
C2565 C 0.94417 0.24119 0.80448 0.0
C2566 C 0.96594 0.22684 0.7872 0.0
C2567 C 0.97289 0.24087 0.77981 0.0
C2568 C 0.96539 0.25505 0.78487 0.0
H2569 H 0.0581 0.26445 0.70401 0.0
H2570 H 0.03297 0.26481 0.72459 0.0
C2571 C 0.95118 0.25522 0.79709 0.0
C2572 C 0.98771 0.24062 0.76613 0.0
H2573 H 0.0258 0.25252 0.76739 0.0
C2574 C 0.98785 0.23334 0.74397 0.0
C2575 C 1.00157 0.24759 0.77469 0.0
C2576 C 1.00226 0.25513 0.79869 0.0
C2577 C 1.00139 0.23308 0.72995 0.0
C2578 C 0.01531 0.23998 0.73856 0.0
C2579 C 0.01515 0.24726 0.76075 0.0
C2580 C 0.03021 0.23969 0.72498 0.0
C2581 C 1.00054 0.22577 0.70581 0.0
C2582 C 0.03707 0.22546 0.71831 0.0
C2583 C 0.05139 0.22522 0.70639 0.0
C2584 C 0.05925 0.23922 0.70111 0.0
C2585 C 0.05234 0.25346 0.70772 0.0
C2586 C 0.03798 0.25368 0.71955 0.0
H2587 H 0.98833 0.22526 0.69921 0.0
H2588 H 0.00774 0.23234 0.69291 0.0
H2589 H 0.00503 0.21363 0.70676 0.0
H2590 H 0.03152 0.21449 0.72277 0.0
H2591 H 0.05645 0.21404 0.70177 0.0
H2592 H 0.76623 0.5627 0.70624 0.0
H2593 H 0.76614 0.53784 0.72749 0.0
H2594 H 0.71585 0.53654 0.72374 0.0
H2595 H 0.71586 0.56124 0.70202 0.0
H2596 H 0.75319 0.53069 0.76984 0.0
H2597 H 0.72695 0.49333 0.70059 0.0
H2598 H 0.73417 0.51272 0.69458 0.0
H2599 H 0.71525 0.51005 0.70779 0.0
C2600 C 0.75514 0.55705 0.70973 0.0
C2601 C 0.74105 0.56392 0.7023 0.0
C2602 C 0.75511 0.54284 0.72194 0.0
C2603 C 0.74101 0.53516 0.72696 0.0
C2604 C 0.72691 0.54202 0.71961 0.0
H2605 H 0.7164 0.45104 0.80464 0.0
H2606 H 0.71646 0.47618 0.78408 0.0
C2607 C 0.72693 0.5562 0.70729 0.0
C2608 C 0.74106 0.52026 0.74055 0.0
H2609 H 0.72938 0.48209 0.73871 0.0
C2610 C 0.74805 0.52005 0.76296 0.0
C2611 C 0.73436 0.50634 0.73163 0.0
C2612 C 0.72739 0.50553 0.70724 0.0
C2613 C 0.74829 0.50642 0.7768 0.0
C2614 C 0.74151 0.49256 0.76792 0.0
C2615 C 0.73452 0.49275 0.74554 0.0
C2616 C 0.74162 0.47768 0.78146 0.0
C2617 C 0.75552 0.50704 0.80101 0.0
C2618 C 0.75575 0.47015 0.78687 0.0
C2619 C 0.75576 0.45575 0.79862 0.0
C2620 C 0.74162 0.44858 0.80515 0.0
C2621 C 0.7275 0.45626 0.79997 0.0
C2622 C 0.72751 0.47061 0.78815 0.0
H2623 H 0.75682 0.51923 0.80741 0.0
H2624 H 0.74838 0.50038 0.81389 0.0
H2625 H 0.76731 0.50166 0.80037 0.0
H2626 H 0.76678 0.47525 0.78156 0.0
H2627 H 0.76683 0.45012 0.8022 0.0
H2628 H 0.55929 0.71455 0.80626 0.0
H2629 H 0.53454 0.71464 0.78457 0.0
H2630 H 0.53634 0.76486 0.78005 0.0
H2631 H 0.56106 0.76489 0.80177 0.0
H2632 H 0.5066 0.75244 0.79379 0.0
H2633 H 0.5297 0.72372 0.71327 0.0
H2634 H 0.53356 0.71363 0.74042 0.0
H2635 H 0.54227 0.7324 0.73521 0.0
C2636 C 0.55441 0.72562 0.8007 0.0
C2637 C 0.5622 0.73971 0.80568 0.0
C2638 C 0.5403 0.72564 0.78818 0.0
C2639 C 0.5337 0.73974 0.78038 0.0
C2640 C 0.54126 0.75384 0.78577 0.0
H2641 H 0.4478 0.76533 0.7062 0.0
H2642 H 0.47281 0.76558 0.72714 0.0
C2643 C 0.5554 0.75383 0.79819 0.0
C2644 C 0.51885 0.73983 0.76674 0.0
H2645 H 0.50239 0.72786 0.71493 0.0
C2646 C 0.50568 0.74712 0.77651 0.0
C2647 C 0.51766 0.73285 0.74421 0.0
C2648 C 0.53156 0.7253 0.73249 0.0
C2649 C 0.49127 0.74736 0.7646 0.0
C2650 C 0.49008 0.74045 0.74198 0.0
C2651 C 0.50328 0.73318 0.73221 0.0
C2652 C 0.47519 0.74042 0.72834 0.0
C2653 C 0.47735 0.75462 0.77668 0.0
C2654 C 0.46847 0.72624 0.72113 0.0
C2655 C 0.45428 0.72608 0.70887 0.0
C2656 C 0.44649 0.7401 0.7035 0.0
C2657 C 0.45343 0.75431 0.71018 0.0
C2658 C 0.46768 0.75447 0.72235 0.0
H2659 H 0.47906 0.75536 0.79605 0.0
H2660 H 0.47567 0.76667 0.76993 0.0
H2661 H 0.46654 0.74786 0.77313 0.0
H2662 H 0.47408 0.71525 0.72538 0.0
H2663 H 0.44927 0.71492 0.70398 0.0
H2664 H 0.28964 0.44717 0.70562 0.0
H2665 H 0.28935 0.47196 0.72705 0.0
H2666 H 0.239 0.471 0.72824 0.0
H2667 H 0.23919 0.44605 0.70724 0.0
H2668 H 0.27666 0.50049 0.71666 0.0
H2669 H 0.24921 0.47651 0.79747 0.0
H2670 H 0.25682 0.46418 0.77441 0.0
H2671 H 0.238 0.47326 0.77121 0.0
C2672 C 0.27849 0.45225 0.71035 0.0
C2673 C 0.26444 0.44456 0.70485 0.0
C2674 C 0.27835 0.46643 0.72263 0.0
C2675 C 0.26417 0.4732 0.72973 0.0
C2676 C 0.2501 0.46582 0.72352 0.0
H2677 H 0.24064 0.55878 0.80496 0.0
H2678 H 0.24012 0.53412 0.78305 0.0
C2679 C 0.25023 0.4516 0.71133 0.0
C2680 C 0.26414 0.48796 0.74359 0.0
H2681 H 0.25233 0.50403 0.79579 0.0
C2682 C 0.27139 0.50124 0.734 0.0
C2683 C 0.25728 0.48896 0.76625 0.0
C2684 C 0.25002 0.47494 0.77808 0.0
C2685 C 0.27175 0.5155 0.74626 0.0
C2686 C 0.26487 0.51648 0.76887 0.0
C2687 C 0.25757 0.50325 0.77844 0.0
C2688 C 0.26521 0.53114 0.78289 0.0
C2689 C 0.27927 0.52949 0.73474 0.0
C2690 C 0.27946 0.53746 0.79056 0.0
C2691 C 0.27979 0.5515 0.80317 0.0
C2692 C 0.26586 0.55951 0.8084 0.0
C2693 C 0.25157 0.55294 0.8012 0.0
C2694 C 0.25125 0.53885 0.78866 0.0
H2695 H 0.28065 0.52785 0.71544 0.0
H2696 H 0.27228 0.54021 0.7379 0.0
H2697 H 0.29105 0.53131 0.74244 0.0
H2698 H 0.29035 0.53156 0.78668 0.0
H2699 H 0.29099 0.55621 0.80849 0.0
H2700 H 0.44809 0.23756 0.80378 0.0
H2701 H 0.47293 0.23765 0.78237 0.0
H2702 H 0.47461 0.28788 0.78693 0.0
H2703 H 0.44977 0.28791 0.80825 0.0
H2704 H 0.4796 0.27566 0.74081 0.0
H2705 H 0.51743 0.2466 0.80715 0.0
H2706 H 0.4996 0.23649 0.80032 0.0
H2707 H 0.49881 0.25519 0.81461 0.0
C2708 C 0.45384 0.24862 0.80049 0.0
C2709 C 0.44696 0.26272 0.8078 0.0
C2710 C 0.46807 0.24864 0.78831 0.0
C2711 C 0.4757 0.26276 0.78322 0.0
C2712 C 0.46895 0.27684 0.79073 0.0
H2713 H 0.5586 0.2895 0.70357 0.0
H2714 H 0.53383 0.28909 0.72504 0.0
C2715 C 0.45477 0.27683 0.80299 0.0
C2716 C 0.49036 0.26292 0.76918 0.0
H2717 H 0.5284 0.25086 0.76942 0.0
C2718 C 0.4903 0.2703 0.74708 0.0
C2719 C 0.50427 0.25584 0.77734 0.0
C2720 C 0.50516 0.24818 0.80123 0.0
C2721 C 0.50369 0.27057 0.73275 0.0
C2722 C 0.51767 0.26359 0.74097 0.0
C2723 C 0.5177 0.2562 0.76308 0.0
C2724 C 0.53241 0.26388 0.72705 0.0
C2725 C 0.50262 0.278 0.7087 0.0
C2726 C 0.54005 0.24987 0.72131 0.0
C2727 C 0.5543 0.25008 0.70922 0.0
C2728 C 0.56125 0.26431 0.70264 0.0
C2729 C 0.5535 0.27833 0.70816 0.0
C2730 C 0.53928 0.27811 0.72036 0.0
H2731 H 0.49035 0.27859 0.7024 0.0
H2732 H 0.50718 0.29011 0.70966 0.0
H2733 H 0.50965 0.27146 0.69557 0.0
H2734 H 0.53503 0.23875 0.72634 0.0
H2735 H 0.55997 0.23907 0.70532 0.0
H2736 H 0.24147 0.55658 0.20823 0.0
H2737 H 0.24198 0.53153 0.22908 0.0
H2738 H 0.29227 0.53113 0.22553 0.0
H2739 H 0.29189 0.55619 0.20473 0.0
H2740 H 0.2556 0.5021 0.21524 0.0
H2741 H 0.2825 0.52601 0.29673 0.0
H2742 H 0.2736 0.53832 0.27465 0.0
H2743 H 0.29269 0.53025 0.26979 0.0
C2744 C 0.25265 0.55113 0.21175 0.0
C2745 C 0.26665 0.55843 0.20489 0.0
C2746 C 0.25291 0.53681 0.22369 0.0
C2747 C 0.26717 0.52958 0.2292 0.0
C2748 C 0.28115 0.53663 0.22183 0.0
H2749 H 0.29103 0.44562 0.30896 0.0
H2750 H 0.29159 0.47008 0.28654 0.0
C2751 C 0.2809 0.55091 0.2098 0.0
C2752 C 0.26739 0.51471 0.24276 0.0
H2753 H 0.27874 0.4987 0.29521 0.0
C2754 C 0.26064 0.50134 0.23274 0.0
C2755 C 0.27402 0.51374 0.26555 0.0
C2756 C 0.28102 0.52784 0.27748 0.0
C2757 C 0.2605 0.48697 0.24475 0.0
C2758 C 0.26694 0.48603 0.26772 0.0
C2759 C 0.27379 0.4994 0.27766 0.0
C2760 C 0.26654 0.47133 0.28178 0.0
C2761 C 0.25376 0.47287 0.23249 0.0
C2762 C 0.25226 0.46406 0.28709 0.0
C2763 C 0.25192 0.45006 0.29981 0.0
C2764 C 0.26584 0.4431 0.30778 0.0
C2765 C 0.2801 0.45064 0.30307 0.0
C2766 C 0.28044 0.46463 0.29023 0.0
H2767 H 0.25366 0.47438 0.21305 0.0
H2768 H 0.26047 0.46215 0.23681 0.0
H2769 H 0.24151 0.47116 0.23833 0.0
H2770 H 0.24135 0.4692 0.28135 0.0
H2771 H 0.24072 0.44464 0.30327 0.0
H2772 H 0.55615 0.29233 0.30672 0.0
H2773 H 0.53119 0.29201 0.28569 0.0
H2774 H 0.53283 0.24173 0.28273 0.0
H2775 H 0.55779 0.24193 0.30385 0.0
H2776 H 0.52545 0.27919 0.24018 0.0
H2777 H 0.48872 0.25102 0.30875 0.0
H2778 H 0.50747 0.25969 0.31526 0.0
H2779 H 0.50643 0.24081 0.30156 0.0
C2780 C 0.55114 0.28118 0.30181 0.0
C2781 C 0.55895 0.26715 0.30706 0.0
C2782 C 0.53689 0.28103 0.28972 0.0
C2783 C 0.53005 0.26685 0.28283 0.0
C2784 C 0.53775 0.2528 0.2882 0.0
H2785 H 0.44498 0.24185 0.20794 0.0
H2786 H 0.46995 0.24202 0.2289 0.0
C2787 C 0.55205 0.25294 0.30021 0.0
C2788 C 0.51517 0.26681 0.2693 0.0
H2789 H 0.47713 0.25479 0.27131 0.0
C2790 C 0.51486 0.27391 0.247 0.0
C2791 C 0.50139 0.25986 0.27818 0.0
C2792 C 0.50089 0.25252 0.30233 0.0
C2793 C 0.50122 0.27401 0.23317 0.0
C2794 C 0.48738 0.26715 0.24211 0.0
C2795 C 0.48772 0.26005 0.26443 0.0
C2796 C 0.47243 0.26716 0.22864 0.0
C2797 C 0.5019 0.28112 0.20887 0.0
C2798 C 0.46543 0.28125 0.22154 0.0
C2799 C 0.45118 0.28118 0.20938 0.0
C2800 C 0.44354 0.26703 0.20431 0.0
C2801 C 0.45056 0.25296 0.21149 0.0
C2802 C 0.46483 0.25303 0.22354 0.0
H2803 H 0.51408 0.28169 0.20214 0.0
H2804 H 0.49471 0.27435 0.19618 0.0
H2805 H 0.49729 0.29322 0.20959 0.0
H2806 H 0.47085 0.29233 0.22574 0.0
H2807 H 0.44604 0.29223 0.2043 0.0
H2808 H 0.76787 0.56002 0.30027 0.0
H2809 H 0.76792 0.53525 0.27862 0.0
H2810 H 0.71769 0.53337 0.28299 0.0
H2811 H 0.71751 0.55812 0.30454 0.0
H2812 H 0.75534 0.50532 0.29185 0.0
H2813 H 0.72693 0.52925 0.21163 0.0
H2814 H 0.73564 0.54157 0.23386 0.0
H2815 H 0.71676 0.53301 0.23872 0.0
C2816 C 0.75683 0.55431 0.29672 0.0
C2817 C 0.74268 0.5611 0.30405 0.0
C2818 C 0.75689 0.54015 0.28434 0.0
C2819 C 0.7428 0.53259 0.27886 0.0
C2820 C 0.72868 0.53914 0.28665 0.0
H2821 H 0.71611 0.44905 0.20242 0.0
H2822 H 0.71718 0.47377 0.22396 0.0
C2823 C 0.72862 0.55325 0.29911 0.0
C2824 C 0.74284 0.51786 0.26497 0.0
H2825 H 0.73042 0.50183 0.21312 0.0
C2826 C 0.74997 0.50455 0.27458 0.0
C2827 C 0.7358 0.51689 0.24246 0.0
C2828 C 0.72845 0.53095 0.2309 0.0
C2829 C 0.74992 0.49018 0.26255 0.0
C2830 C 0.74287 0.4892 0.24001 0.0
C2831 C 0.73583 0.50256 0.23036 0.0
C2832 C 0.7424 0.47435 0.22634 0.0
C2833 C 0.757 0.4761 0.27444 0.0
C2834 C 0.75623 0.46658 0.22 0.0
C2835 C 0.75565 0.45238 0.20774 0.0
C2836 C 0.74122 0.44576 0.20134 0.0
C2837 C 0.72742 0.45381 0.20709 0.0
C2838 C 0.72801 0.46795 0.21943 0.0
H2839 H 0.75798 0.47776 0.2938 0.0
H2840 H 0.74996 0.46545 0.27101 0.0
H2841 H 0.76894 0.47415 0.26741 0.0
H2842 H 0.7675 0.47146 0.22457 0.0
H2843 H 0.76651 0.44655 0.20347 0.0
H2844 H 0.44999 0.71779 0.30702 0.0
H2845 H 0.47497 0.71839 0.28606 0.0
H2846 H 0.47294 0.76866 0.28345 0.0
H2847 H 0.44797 0.76819 0.30448 0.0
H2848 H 0.48003 0.73159 0.24042 0.0
H2849 H 0.51743 0.75948 0.30846 0.0
H2850 H 0.49885 0.75058 0.31536 0.0
H2851 H 0.49952 0.76955 0.30188 0.0
C2852 C 0.45494 0.729 0.30226 0.0
C2853 C 0.44699 0.74295 0.3075 0.0
C2854 C 0.4692 0.72931 0.29021 0.0
C2855 C 0.47589 0.74356 0.28335 0.0
C2856 C 0.46812 0.75753 0.28888 0.0
H2857 H 0.56094 0.76805 0.20723 0.0
H2858 H 0.53595 0.76842 0.2282 0.0
C2859 C 0.45382 0.75724 0.30084 0.0
C2860 C 0.49062 0.74375 0.26949 0.0
H2861 H 0.52868 0.75575 0.27082 0.0
C2862 C 0.49069 0.73682 0.24708 0.0
C2863 C 0.50448 0.75068 0.27814 0.0
C2864 C 0.5052 0.7579 0.30235 0.0
C2865 C 0.50418 0.7368 0.23295 0.0
C2866 C 0.51812 0.74357 0.2417 0.0
C2867 C 0.51801 0.75057 0.26409 0.0
C2868 C 0.53299 0.74332 0.22809 0.0
C2869 C 0.50324 0.72984 0.20857 0.0
C2870 C 0.53971 0.7291 0.22106 0.0
C2871 C 0.55394 0.72886 0.20892 0.0
C2872 C 0.56186 0.74284 0.20379 0.0
C2873 C 0.55512 0.75708 0.21082 0.0
C2874 C 0.54085 0.75731 0.22287 0.0
H2875 H 0.49102 0.72951 0.202 0.0
H2876 H 0.51047 0.73654 0.19586 0.0
H2877 H 0.50764 0.71765 0.20912 0.0
H2878 H 0.53409 0.71813 0.22535 0.0
H2879 H 0.55887 0.71769 0.20397 0.0
H2880 H 0.19251 0.12063 0.18848 0.0
H2881 H 0.1738 0.13835 0.20661 0.0
H2882 H 0.20925 0.1528 0.25625 0.0
H2883 H 0.22852 0.13719 0.23498 0.0
H2884 H 0.15974 0.14228 0.24083 0.0
H2885 H 0.2056 0.17979 0.26182 0.0
H2886 H 0.19762 0.19449 0.24297 0.0
H2887 H 0.20452 0.17658 0.23047 0.0
C2888 C 0.19643 0.12833 0.20238 0.0
C2889 C 0.2122 0.12874 0.20882 0.0
C2890 C 0.18562 0.13816 0.21335 0.0
C2891 C 0.19013 0.14788 0.2322 0.0
C2892 C 0.20556 0.14659 0.24063 0.0
H2893 H 0.11593 0.19228 0.31519 0.0
H2894 H 0.13327 0.17356 0.29608 0.0
C2895 C 0.21657 0.13742 0.22872 0.0
C2896 C 0.17859 0.159 0.24297 0.0
H2897 H 0.17423 0.19581 0.26529 0.0
C2898 C 0.16298 0.15409 0.24565 0.0
C2899 C 0.18246 0.17457 0.24952 0.0
C2900 C 0.19842 0.18167 0.2458 0.0
C2901 C 0.15125 0.16417 0.25399 0.0
C2902 C 0.15535 0.17935 0.26177 0.0
C2903 C 0.17095 0.1842 0.25947 0.0
C2904 C 0.14389 0.19045 0.27249 0.0
C2905 C 0.13457 0.15847 0.25332 0.0
C2906 C 0.14408 0.20637 0.26621 0.0
C2907 C 0.13478 0.2172 0.27818 0.0
C2908 C 0.12508 0.21233 0.29666 0.0
C2909 C 0.12391 0.19636 0.30175 0.0
C2910 C 0.13353 0.18558 0.29028 0.0
H2911 H 0.13281 0.14993 0.23883 0.0
H2912 H 0.13183 0.15237 0.27006 0.0
H2913 H 0.12619 0.16822 0.25078 0.0
H2914 H 0.1517 0.21052 0.25232 0.0
H2915 H 0.13548 0.22944 0.27345 0.0
H2916 H 0.88244 0.19061 0.18523 0.0
H2917 H 0.8664 0.172 0.20757 0.0
H2918 H 0.84237 0.21041 0.2408 0.0
H2919 H 0.85858 0.22893 0.21878 0.0
H2920 H 0.85358 0.18884 0.27254 0.0
H2921 H 0.82117 0.1578 0.20153 0.0
H2922 H 0.84186 0.1605 0.19779 0.0
H2923 H 0.82905 0.17712 0.19776 0.0
C2924 C 0.87341 0.19501 0.19682 0.0
C2925 C 0.87142 0.21117 0.19986 0.0
C2926 C 0.86425 0.18439 0.20959 0.0
C2927 C 0.85296 0.18977 0.22565 0.0
C2928 C 0.85092 0.20595 0.22844 0.0
H2929 H 0.77476 0.14682 0.29277 0.0
H2930 H 0.79373 0.16276 0.27114 0.0
C2931 C 0.86013 0.21653 0.21583 0.0
C2932 C 0.84403 0.17878 0.24095 0.0
H2933 H 0.81597 0.15037 0.24025 0.0
C2934 C 0.84545 0.18033 0.26547 0.0
C2935 C 0.8335 0.16758 0.2318 0.0
C2936 C 0.83118 0.16556 0.20577 0.0
C2937 C 0.83626 0.17142 0.28098 0.0
C2938 C 0.82532 0.16065 0.27179 0.0
C2939 C 0.82431 0.15869 0.24731 0.0
C2940 C 0.81406 0.15199 0.28696 0.0
C2941 C 0.83772 0.17423 0.30699 0.0
C2942 C 0.81914 0.1407 0.30323 0.0
C2943 C 0.80827 0.13165 0.3157 0.0
C2944 C 0.79216 0.13381 0.3122 0.0
C2945 C 0.78712 0.14515 0.29607 0.0
C2946 C 0.79794 0.15421 0.28371 0.0
H2947 H 0.84555 0.1842 0.31118 0.0
H2948 H 0.82601 0.17668 0.31431 0.0
H2949 H 0.84241 0.16362 0.31567 0.0
H2950 H 0.83149 0.13846 0.30563 0.0
H2951 H 0.81244 0.12257 0.3274 0.0
H2952 H 0.88594 0.81494 0.32133 0.0
H2953 H 0.86831 0.83357 0.30284 0.0
H2954 H 0.85496 0.79829 0.25224 0.0
H2955 H 0.87044 0.77904 0.27383 0.0
H2956 H 0.86441 0.84786 0.26892 0.0
H2957 H 0.81294 0.80897 0.26457 0.0
H2958 H 0.83086 0.80226 0.27727 0.0
H2959 H 0.82802 0.80162 0.24582 0.0
C2960 C 0.8785 0.81103 0.30709 0.0
C2961 C 0.8783 0.79529 0.30049 0.0
C2962 C 0.86872 0.8218 0.29593 0.0
C2963 C 0.8593 0.81729 0.27674 0.0
C2964 C 0.86092 0.80194 0.26811 0.0
H2965 H 0.81385 0.89154 0.19511 0.0
H2966 H 0.83288 0.87452 0.2142 0.0
C2967 C 0.87 0.79095 0.28021 0.0
C2968 C 0.84806 0.82873 0.26598 0.0
H2969 H 0.81128 0.83271 0.24337 0.0
C2970 C 0.85269 0.84446 0.26384 0.0
C2971 C 0.83261 0.82465 0.25907 0.0
C2972 C 0.82581 0.8085 0.26205 0.0
C2973 C 0.84243 0.85611 0.25577 0.0
C2974 C 0.82736 0.85184 0.24772 0.0
C2975 C 0.8228 0.83612 0.24943 0.0
C2976 C 0.81608 0.86322 0.23723 0.0
C2977 C 0.8478 0.87288 0.25704 0.0
C2978 C 0.80012 0.86257 0.24326 0.0
C2979 C 0.78915 0.8717 0.23128 0.0
C2980 C 0.79391 0.88167 0.21308 0.0
C2981 C 0.80988 0.88333 0.20833 0.0
C2982 C 0.82082 0.87389 0.21979 0.0
H2983 H 0.85623 0.87459 0.2717 0.0
H2984 H 0.85394 0.87597 0.24048 0.0
H2985 H 0.83788 0.88104 0.2597 0.0
H2986 H 0.79607 0.85471 0.25689 0.0
H2987 H 0.7769 0.87062 0.23575 0.0
H2988 H 0.19122 0.88573 0.32622 0.0
H2989 H 0.17182 0.87001 0.30487 0.0
H2990 H 0.20896 0.84672 0.26746 0.0
H2991 H 0.22828 0.86246 0.28872 0.0
H2992 H 0.18533 0.85903 0.2382 0.0
H2993 H 0.15902 0.82393 0.31063 0.0
H2994 H 0.16171 0.84457 0.31508 0.0
H2995 H 0.17841 0.83197 0.31252 0.0
C2996 C 0.1952 0.87691 0.31395 0.0
C2997 C 0.21124 0.87495 0.30958 0.0
C2998 C 0.18412 0.86797 0.3017 0.0
C2999 C 0.18892 0.857 0.28474 0.0
C3000 C 0.20497 0.85503 0.28053 0.0
H3001 H 0.14481 0.77841 0.22186 0.0
H3002 H 0.16062 0.79787 0.24254 0.0
C3003 C 0.216 0.86397 0.29271 0.0
C3004 C 0.17739 0.84821 0.2702 0.0
H3005 H 0.1502 0.81905 0.27256 0.0
C3006 C 0.17755 0.85035 0.2457 0.0
C3007 C 0.16707 0.83706 0.27997 0.0
C3008 C 0.16644 0.83413 0.30601 0.0
C3009 C 0.16825 0.84118 0.23069 0.0
C3010 C 0.15851 0.82944 0.2404 0.0
C3011 C 0.1578 0.82786 0.265 0.0
C3012 C 0.14982 0.81785 0.22571 0.0
C3013 C 0.16956 0.84365 0.20456 0.0
C3014 C 0.1386 0.82249 0.209 0.0
C3015 C 0.12976 0.81128 0.19682 0.0
C3016 C 0.13192 0.79528 0.20126 0.0
C3017 C 0.14311 0.79067 0.21789 0.0
C3018 C 0.15209 0.8018 0.22975 0.0
H3019 H 0.17994 0.85075 0.19973 0.0
H3020 H 0.1704 0.83225 0.19566 0.0
H3021 H 0.15899 0.84974 0.19802 0.0
H3022 H 0.13625 0.83474 0.20597 0.0
H3023 H 0.12083 0.81512 0.18461 0.0
H3024 H 0.8911 0.81407 0.69452 0.0
H3025 H 0.87391 0.83281 0.71387 0.0
H3026 H 0.85454 0.79557 0.75619 0.0
H3027 H 0.87058 0.77668 0.73474 0.0
H3028 H 0.83237 0.81071 0.74324 0.0
H3029 H 0.87409 0.8558 0.77163 0.0
H3030 H 0.87529 0.85371 0.74036 0.0
H3031 H 0.88061 0.83758 0.7593 0.0
C3032 C 0.88293 0.80994 0.70769 0.0
C3033 C 0.88143 0.79393 0.71224 0.0
C3034 C 0.8734 0.82072 0.71931 0.0
C3035 C 0.86282 0.81578 0.73675 0.0
C3036 C 0.86232 0.79979 0.74256 0.0
H3037 H 0.8145 0.88496 0.82216 0.0
H3038 H 0.83316 0.86747 0.80344 0.0
C3039 C 0.87152 0.78897 0.7304 0.0
C3040 C 0.85141 0.8269 0.74754 0.0
H3041 H 0.84728 0.86377 0.76934 0.0
C3042 C 0.83574 0.8222 0.74944 0.0
C3043 C 0.85562 0.84195 0.75577 0.0
C3044 C 0.87236 0.84744 0.75688 0.0
C3045 C 0.82427 0.83183 0.7595 0.0
C3046 C 0.82826 0.84727 0.76653 0.0
C3047 C 0.84394 0.85205 0.76417 0.0
C3048 C 0.81679 0.85836 0.77753 0.0
C3049 C 0.80823 0.82483 0.76284 0.0
C3050 C 0.80138 0.85985 0.76911 0.0
C3051 C 0.79039 0.86884 0.78136 0.0
C3052 C 0.79478 0.87718 0.80157 0.0
C3053 C 0.81056 0.87748 0.80799 0.0
C3054 C 0.82134 0.86779 0.79669 0.0
H3055 H 0.80113 0.82702 0.74682 0.0
H3056 H 0.80889 0.81197 0.76524 0.0
H3057 H 0.80212 0.82975 0.77828 0.0
H3058 H 0.79768 0.85389 0.75328 0.0
H3059 H 0.77844 0.86919 0.77512 0.0
H3060 H 0.22928 0.86158 0.7221 0.0
H3061 H 0.2099 0.84612 0.7437 0.0
H3062 H 0.17283 0.86934 0.706 0.0
H3063 H 0.19229 0.88482 0.68435 0.0
H3064 H 0.18623 0.85907 0.77272 0.0
H3065 H 0.15991 0.82311 0.70126 0.0
H3066 H 0.17935 0.83101 0.69918 0.0
H3067 H 0.16274 0.84369 0.6963 0.0
C3068 C 0.217 0.86314 0.71813 0.0
C3069 C 0.21227 0.87402 0.70109 0.0
C3070 C 0.20593 0.85435 0.73049 0.0
C3071 C 0.18989 0.8564 0.72629 0.0
C3072 C 0.18512 0.86726 0.70917 0.0
H3073 H 0.12183 0.81546 0.82735 0.0
H3074 H 0.13706 0.83493 0.80537 0.0
C3075 C 0.19624 0.87605 0.69674 0.0
C3076 C 0.17834 0.84781 0.74105 0.0
H3077 H 0.15126 0.81852 0.73951 0.0
C3078 C 0.17848 0.85027 0.76548 0.0
C3079 C 0.16805 0.83652 0.73159 0.0
C3080 C 0.16739 0.83331 0.70562 0.0
C3081 C 0.16918 0.84127 0.78073 0.0
C3082 C 0.15951 0.82936 0.77136 0.0
C3083 C 0.15882 0.82747 0.74681 0.0
C3084 C 0.15092 0.8179 0.78639 0.0
C3085 C 0.17045 0.84409 0.80678 0.0
C3086 C 0.15342 0.80183 0.78297 0.0
C3087 C 0.14457 0.79077 0.79521 0.0
C3088 C 0.13326 0.7955 0.81157 0.0
C3089 C 0.13085 0.81154 0.81536 0.0
C3090 C 0.13958 0.82266 0.80283 0.0
H3091 H 0.18067 0.85147 0.81141 0.0
H3092 H 0.15975 0.85003 0.81317 0.0
H3093 H 0.17153 0.83281 0.81596 0.0
H3094 H 0.16204 0.79781 0.77039 0.0
H3095 H 0.14645 0.77847 0.79173 0.0
H3096 H 0.1175 0.19002 0.69111 0.0
H3097 H 0.13399 0.17117 0.71225 0.0
H3098 H 0.15704 0.20914 0.74814 0.0
H3099 H 0.14044 0.22792 0.72716 0.0
H3100 H 0.16574 0.16809 0.71163 0.0
H3101 H 0.14583 0.1804 0.8024 0.0
H3102 H 0.1354 0.18731 0.77678 0.0
H3103 H 0.15238 0.19758 0.78723 0.0
C3104 C 0.12617 0.19427 0.70344 0.0
C3105 C 0.12809 0.21037 0.70709 0.0
C3106 C 0.13549 0.18353 0.71561 0.0
C3107 C 0.14667 0.18872 0.73195 0.0
C3108 C 0.14833 0.20483 0.73594 0.0
H3109 H 0.22888 0.14024 0.78271 0.0
H3110 H 0.20995 0.15682 0.76198 0.0
C3111 C 0.13895 0.21555 0.72386 0.0
C3112 C 0.15698 0.17735 0.7442 0.0
H3113 H 0.16902 0.16525 0.79842 0.0
C3114 C 0.16645 0.16747 0.73058 0.0
C3115 C 0.15767 0.17626 0.76903 0.0
C3116 C 0.14716 0.18584 0.78473 0.0
C3117 C 0.17696 0.15696 0.74102 0.0
C3118 C 0.17816 0.15639 0.76585 0.0
C3119 C 0.1683 0.16586 0.77947 0.0
C3120 C 0.18963 0.14617 0.77804 0.0
C3121 C 0.18656 0.14646 0.72535 0.0
C3122 C 0.18453 0.13483 0.7942 0.0
C3123 C 0.19535 0.1255 0.80618 0.0
C3124 C 0.21143 0.12758 0.80256 0.0
C3125 C 0.21652 0.13862 0.786 0.0
C3126 C 0.20572 0.148 0.77408 0.0
H3127 H 0.18115 0.14511 0.70767 0.0
H3128 H 0.19831 0.15167 0.7229 0.0
H3129 H 0.18802 0.13471 0.73332 0.0
H3130 H 0.17218 0.1332 0.79752 0.0
H3131 H 0.19117 0.11669 0.81834 0.0
H3132 H 0.85716 0.23035 0.79512 0.0
H3133 H 0.84019 0.21147 0.77562 0.0
H3134 H 0.87447 0.17533 0.78821 0.0
H3135 H 0.89007 0.19386 0.81108 0.0
H3136 H 0.84225 0.19813 0.73934 0.0
H3137 H 0.84009 0.14888 0.80224 0.0
H3138 H 0.85074 0.16636 0.80893 0.0
H3139 H 0.85953 0.15138 0.79121 0.0
C3140 C 0.8607 0.21821 0.79442 0.0
C3141 C 0.87451 0.21336 0.80534 0.0
C3142 C 0.85112 0.20739 0.78298 0.0
C3143 C 0.8557 0.19163 0.78063 0.0
C3144 C 0.87005 0.18704 0.79063 0.0
H3145 H 0.81426 0.12145 0.6861 0.0
H3146 H 0.83268 0.13908 0.70616 0.0
C3147 C 0.87913 0.1977 0.80346 0.0
C3148 C 0.84588 0.18066 0.76622 0.0
H3149 H 0.82994 0.14393 0.76356 0.0
C3150 C 0.83939 0.18641 0.74515 0.0
C3151 C 0.84241 0.16499 0.77288 0.0
C3152 C 0.84847 0.1576 0.79515 0.0
C3153 C 0.82922 0.17742 0.73136 0.0
C3154 C 0.82579 0.16195 0.73803 0.0
C3155 C 0.83261 0.15585 0.75848 0.0
C3156 C 0.81473 0.15209 0.72442 0.0
C3157 C 0.82244 0.18442 0.70939 0.0
C3158 C 0.79858 0.15366 0.72793 0.0
C3159 C 0.7881 0.14369 0.71641 0.0
C3160 C 0.79358 0.13215 0.70092 0.0
C3161 C 0.80974 0.13062 0.69734 0.0
C3162 C 0.82025 0.14056 0.70894 0.0
H3163 H 0.82528 0.19701 0.70745 0.0
H3164 H 0.82728 0.17805 0.6941 0.0
H3165 H 0.80955 0.18304 0.70934 0.0
H3166 H 0.79411 0.16239 0.73997 0.0
H3167 H 0.7757 0.14489 0.71979 0.0
H3168 H 0.69274 0.62323 0.68302 0.0
H3169 H 0.67361 0.6391 0.70461 0.0
H3170 H 0.71119 0.66244 0.74099 0.0
H3171 H 0.73024 0.64643 0.71965 0.0
H3172 H 0.68861 0.65088 0.77094 0.0
H3173 H 0.65991 0.68459 0.69909 0.0
H3174 H 0.66279 0.66398 0.69469 0.0
H3175 H 0.67937 0.67682 0.69649 0.0
C3176 C 0.69687 0.63208 0.69514 0.0
C3177 C 0.71294 0.63394 0.69924 0.0
C3178 C 0.68594 0.64114 0.70749 0.0
C3179 C 0.69093 0.65219 0.72421 0.0
C3180 C 0.70703 0.65409 0.7281 0.0
H3181 H 0.64517 0.72944 0.79006 0.0
H3182 H 0.66175 0.7109 0.76872 0.0
C3183 C 0.71791 0.64498 0.71589 0.0
C3184 C 0.67955 0.66097 0.73906 0.0
H3185 H 0.65123 0.6891 0.73739 0.0
C3186 C 0.68034 0.65915 0.76359 0.0
C3187 C 0.66869 0.6717 0.72954 0.0
C3188 C 0.66755 0.67451 0.70349 0.0
C3189 C 0.671 0.66812 0.7788 0.0
C3190 C 0.6605 0.67924 0.7693 0.0
C3191 C 0.65932 0.68065 0.74474 0.0
C3192 C 0.65136 0.69028 0.78426 0.0
C3193 C 0.67317 0.66632 0.8049 0.0
C3194 C 0.64005 0.68492 0.80031 0.0
C3195 C 0.63068 0.69557 0.81272 0.0
C3196 C 0.63247 0.71172 0.80928 0.0
C3197 C 0.64377 0.71705 0.79329 0.0
C3198 C 0.6532 0.70646 0.78108 0.0
H3199 H 0.68318 0.65862 0.80941 0.0
H3200 H 0.67523 0.67795 0.81269 0.0
H3201 H 0.66246 0.66129 0.81284 0.0
H3202 H 0.63804 0.67254 0.80261 0.0
H3203 H 0.62166 0.69117 0.82433 0.0
H3204 H 0.27759 0.64095 0.78564 0.0
H3205 H 0.29624 0.65768 0.76464 0.0
H3206 H 0.33449 0.63372 0.79847 0.0
H3207 H 0.31578 0.61702 0.81953 0.0
H3208 H 0.33745 0.66606 0.79985 0.0
H3209 H 0.32438 0.64608 0.70924 0.0
H3210 H 0.3074 0.65241 0.72514 0.0
H3211 H 0.31799 0.6355 0.73502 0.0
C3212 C 0.28999 0.63929 0.78851 0.0
C3213 C 0.29532 0.62809 0.80467 0.0
C3214 C 0.30063 0.64876 0.77644 0.0
C3215 C 0.31677 0.64688 0.77984 0.0
C3216 C 0.32209 0.6354 0.7956 0.0
H3217 H 0.38872 0.69077 0.69286 0.0
H3218 H 0.37219 0.67197 0.71401 0.0
C3219 C 0.31144 0.62596 0.80773 0.0
C3220 C 0.32806 0.65718 0.76744 0.0
H3221 H 0.33985 0.66903 0.71298 0.0
C3222 C 0.33799 0.66669 0.78088 0.0
C3223 C 0.32898 0.6578 0.74259 0.0
C3224 C 0.31924 0.64729 0.72712 0.0
C3225 C 0.34846 0.67715 0.77023 0.0
C3226 C 0.34892 0.67823 0.74539 0.0
C3227 C 0.33934 0.66836 0.73195 0.0
C3228 C 0.35913 0.68959 0.73298 0.0
C3229 C 0.35904 0.68683 0.78568 0.0
C3230 C 0.35726 0.70571 0.73655 0.0
C3231 C 0.36663 0.71641 0.72441 0.0
C3232 C 0.37773 0.71117 0.70805 0.0
C3233 C 0.37986 0.69506 0.70483 0.0
C3234 C 0.37052 0.68435 0.71702 0.0
H3235 H 0.36035 0.68161 0.8035 0.0
H3236 H 0.3708 0.68812 0.77766 0.0
H3237 H 0.35392 0.69865 0.78782 0.0
H3238 H 0.34841 0.71004 0.74851 0.0
H3239 H 0.36498 0.72879 0.72741 0.0
H3240 H 0.36836 0.27528 0.77699 0.0
H3241 H 0.35245 0.29466 0.75631 0.0
H3242 H 0.37199 0.33098 0.8002 0.0
H3243 H 0.38903 0.31177 0.81886 0.0
H3244 H 0.33035 0.30968 0.77023 0.0
H3245 H 0.37234 0.35494 0.74315 0.0
H3246 H 0.37874 0.33647 0.7548 0.0
H3247 H 0.37348 0.35229 0.77435 0.0
C3248 C 0.36937 0.28748 0.78186 0.0
C3249 C 0.37928 0.29203 0.80026 0.0
C3250 C 0.36025 0.29857 0.77013 0.0
C3251 C 0.36083 0.31444 0.77661 0.0
C3252 C 0.37142 0.319 0.79428 0.0
H3253 H 0.27672 0.36853 0.7388 0.0
H3254 H 0.29589 0.35324 0.76082 0.0
C3255 C 0.38086 0.30794 0.8055 0.0
C3256 C 0.34948 0.3258 0.76625 0.0
H3257 H 0.34555 0.3629 0.74521 0.0
C3258 C 0.33378 0.32121 0.76428 0.0
C3259 C 0.35377 0.34091 0.75842 0.0
C3260 C 0.37053 0.34634 0.75756 0.0
C3261 C 0.32236 0.33101 0.75444 0.0
C3262 C 0.32645 0.34648 0.74767 0.0
C3263 C 0.34216 0.35115 0.75016 0.0
C3264 C 0.31507 0.35767 0.73669 0.0
C3265 C 0.30627 0.32414 0.75104 0.0
C3266 C 0.31969 0.36712 0.71758 0.0
C3267 C 0.30894 0.37679 0.70615 0.0
C3268 C 0.29314 0.37648 0.71243 0.0
C3269 C 0.28869 0.36818 0.73266 0.0
C3270 C 0.29964 0.35919 0.74501 0.0
H3271 H 0.29918 0.32634 0.76705 0.0
H3272 H 0.30022 0.32915 0.73561 0.0
H3273 H 0.30682 0.31128 0.74856 0.0
H3274 H 0.33153 0.36678 0.71093 0.0
H3275 H 0.31292 0.38423 0.69196 0.0
H3276 H 0.62171 0.31292 0.68788 0.0
H3277 H 0.63911 0.33179 0.7064 0.0
H3278 H 0.65252 0.29683 0.75746 0.0
H3279 H 0.63723 0.27739 0.73602 0.0
H3280 H 0.64289 0.34627 0.74033 0.0
H3281 H 0.67943 0.30015 0.76358 0.0
H3282 H 0.69452 0.30767 0.74501 0.0
H3283 H 0.67668 0.30093 0.73211 0.0
C3284 C 0.62909 0.30914 0.70227 0.0
C3285 C 0.62935 0.29344 0.70908 0.0
C3286 C 0.63874 0.32004 0.71341 0.0
C3287 C 0.64814 0.31568 0.73272 0.0
C3288 C 0.64659 0.30037 0.74152 0.0
H3289 H 0.69317 0.39024 0.8144 0.0
H3290 H 0.67422 0.37309 0.7954 0.0
C3291 C 0.63761 0.28927 0.72948 0.0
C3292 C 0.6593 0.32721 0.74346 0.0
H3293 H 0.69597 0.33134 0.7664 0.0
C3294 C 0.6546 0.34293 0.74553 0.0
C3295 C 0.67474 0.32321 0.75049 0.0
C3296 C 0.68165 0.30711 0.74744 0.0
C3297 C 0.66478 0.35461 0.75373 0.0
C3298 C 0.67984 0.35041 0.76191 0.0
C3299 C 0.68447 0.33471 0.76025 0.0
C3300 C 0.69107 0.36183 0.77243 0.0
C3301 C 0.65935 0.37136 0.75245 0.0
C3302 C 0.70703 0.36124 0.76642 0.0
C3303 C 0.71797 0.37044 0.77836 0.0
C3304 C 0.71317 0.38043 0.7965 0.0
C3305 C 0.69718 0.38202 0.80125 0.0
C3306 C 0.68628 0.3725 0.78983 0.0
H3307 H 0.65092 0.37305 0.73779 0.0
H3308 H 0.65319 0.37442 0.76902 0.0
H3309 H 0.66924 0.37956 0.74982 0.0
H3310 H 0.71113 0.35338 0.75282 0.0
H3311 H 0.73022 0.36942 0.77387 0.0
H3312 H 0.36123 0.27735 0.22293 0.0
H3313 H 0.34525 0.29635 0.24443 0.0
H3314 H 0.36775 0.33396 0.20695 0.0
H3315 H 0.38366 0.31488 0.18531 0.0
H3316 H 0.357 0.31987 0.27371 0.0
H3317 H 0.32169 0.3463 0.20162 0.0
H3318 H 0.3299 0.327 0.19957 0.0
H3319 H 0.34234 0.34384 0.197 0.0
C3320 C 0.36251 0.28967 0.21898 0.0
C3321 C 0.37331 0.29465 0.202 0.0
C3322 C 0.35343 0.30052 0.2313 0.0
C3323 C 0.3551 0.31661 0.22712 0.0
C3324 C 0.36591 0.32162 0.21009 0.0
H3325 H 0.31342 0.38417 0.32798 0.0
H3326 H 0.33288 0.36874 0.30638 0.0
C3327 C 0.37497 0.31073 0.19767 0.0
C3328 C 0.34619 0.32797 0.24179 0.0
H3329 H 0.31699 0.35512 0.23972 0.0
C3330 C 0.34831 0.32767 0.26629 0.0
C3331 C 0.33499 0.33829 0.23214 0.0
C3332 C 0.33197 0.33898 0.20612 0.0
C3333 C 0.3391 0.33687 0.2814 0.0
C3334 C 0.32738 0.34667 0.27178 0.0
C3335 C 0.3258 0.34749 0.2472 0.0
C3336 C 0.31586 0.35537 0.28656 0.0
C3337 C 0.34148 0.33532 0.30751 0.0
C3338 C 0.29979 0.35326 0.28252 0.0
C3339 C 0.28873 0.36227 0.29451 0.0
C3340 C 0.29346 0.37333 0.31126 0.0
C3341 C 0.30949 0.37535 0.31567 0.0
C3342 C 0.32061 0.36648 0.30336 0.0
H3343 H 0.34866 0.32497 0.31219 0.0
H3344 H 0.34744 0.34588 0.31436 0.0
H3345 H 0.33003 0.33427 0.31622 0.0
H3346 H 0.29577 0.34483 0.26965 0.0
H3347 H 0.27645 0.36069 0.29056 0.0
H3348 H 0.61703 0.31627 0.31822 0.0
H3349 H 0.63398 0.33477 0.29719 0.0
H3350 H 0.65794 0.29624 0.26418 0.0
H3351 H 0.641 0.27778 0.28524 0.0
H3352 H 0.66687 0.33717 0.29877 0.0
H3353 H 0.64596 0.32446 0.20842 0.0
H3354 H 0.63533 0.31849 0.23439 0.0
H3355 H 0.65198 0.30747 0.22461 0.0
C3356 C 0.62604 0.31182 0.30664 0.0
C3357 C 0.62811 0.29567 0.30383 0.0
C3358 C 0.63562 0.32235 0.29453 0.0
C3359 C 0.64716 0.31689 0.27901 0.0
C3360 C 0.64899 0.30072 0.27584 0.0
H3361 H 0.72903 0.36439 0.22486 0.0
H3362 H 0.71036 0.34794 0.24636 0.0
C3363 C 0.6394 0.2902 0.28794 0.0
C3364 C 0.65751 0.32805 0.26649 0.0
H3365 H 0.66887 0.33994 0.21185 0.0
C3366 C 0.66729 0.3378 0.27979 0.0
C3367 C 0.65787 0.32905 0.24165 0.0
C3368 C 0.64713 0.31943 0.22638 0.0
C3369 C 0.67774 0.34821 0.26897 0.0
C3370 C 0.67853 0.34878 0.2441 0.0
C3371 C 0.66841 0.33936 0.23082 0.0
C3372 C 0.68983 0.35894 0.23149 0.0
C3373 C 0.68771 0.35861 0.28426 0.0
C3374 C 0.68451 0.37044 0.21577 0.0
C3375 C 0.69517 0.37971 0.20336 0.0
C3376 C 0.71129 0.3774 0.2061 0.0
C3377 C 0.71662 0.36618 0.22223 0.0
C3378 C 0.70598 0.35688 0.23459 0.0
H3379 H 0.68272 0.35988 0.30223 0.0
H3380 H 0.69951 0.35338 0.28602 0.0
H3381 H 0.68901 0.3704 0.27634 0.0
H3382 H 0.67211 0.37225 0.21313 0.0
H3383 H 0.69082 0.38867 0.19159 0.0
H3384 H 0.69355 0.61907 0.31665 0.0
H3385 H 0.6747 0.63586 0.29605 0.0
H3386 H 0.71268 0.65968 0.26136 0.0
H3387 H 0.73148 0.64286 0.2819 0.0
H3388 H 0.67184 0.66817 0.2975 0.0
H3389 H 0.68395 0.64826 0.20657 0.0
H3390 H 0.69056 0.63763 0.23217 0.0
H3391 H 0.70109 0.65454 0.22212 0.0
C3392 C 0.69781 0.62801 0.30477 0.0
C3393 C 0.71391 0.63007 0.30134 0.0
C3394 C 0.68707 0.63749 0.29289 0.0
C3395 C 0.69227 0.64896 0.27701 0.0
C3396 C 0.70838 0.65078 0.27325 0.0
H3397 H 0.64356 0.73105 0.22626 0.0
H3398 H 0.66032 0.7122 0.2468 0.0
C3399 C 0.71911 0.64126 0.28508 0.0
C3400 C 0.68088 0.6593 0.26487 0.0
H3401 H 0.66854 0.67121 0.21069 0.0
C3402 C 0.6711 0.66881 0.27855 0.0
C3403 C 0.6797 0.65994 0.24004 0.0
C3404 C 0.68927 0.64944 0.22433 0.0
C3405 C 0.66052 0.67929 0.26815 0.0
C3406 C 0.65981 0.6804 0.24332 0.0
C3407 C 0.66924 0.67053 0.22964 0.0
C3408 C 0.6495 0.69182 0.23117 0.0
C3409 C 0.6501 0.68893 0.28388 0.0
C3410 C 0.63801 0.68666 0.2153 0.0
C3411 C 0.62857 0.69744 0.20341 0.0
C3412 C 0.63069 0.71353 0.20684 0.0
C3413 C 0.64191 0.71868 0.2231 0.0
C3414 C 0.65139 0.70793 0.23492 0.0
H3415 H 0.6489 0.68363 0.30165 0.0
H3416 H 0.65529 0.70072 0.28608 0.0
H3417 H 0.63828 0.69031 0.27607 0.0
H3418 H 0.63633 0.6743 0.21215 0.0
H3419 H 0.61962 0.69322 0.19152 0.0
H3420 H 0.27788 0.63493 0.23881 0.0
H3421 H 0.29691 0.65075 0.26026 0.0
H3422 H 0.33235 0.63785 0.20968 0.0
H3423 H 0.31396 0.6199 0.19128 0.0
H3424 H 0.34662 0.64204 0.24359 0.0
H3425 H 0.30697 0.6929 0.24775 0.0
H3426 H 0.29974 0.67773 0.26645 0.0
H3427 H 0.30056 0.67488 0.23501 0.0
C3428 C 0.28978 0.63554 0.23239 0.0
C3429 C 0.29422 0.62726 0.21215 0.0
C3430 C 0.30064 0.64482 0.24442 0.0
C3431 C 0.31595 0.64666 0.23576 0.0
C3432 C 0.32059 0.63727 0.2166 0.0
H3433 H 0.36812 0.72985 0.27656 0.0
H3434 H 0.35237 0.71043 0.25567 0.0
C3435 C 0.30995 0.6273 0.2055 0.0
C3436 C 0.32722 0.65808 0.24649 0.0
H3437 H 0.33058 0.69487 0.26926 0.0
C3438 C 0.34303 0.6537 0.24869 0.0
C3439 C 0.3229 0.67345 0.25342 0.0
C3440 C 0.30666 0.68003 0.25029 0.0
C3441 C 0.3545 0.66413 0.25686 0.0
C3442 C 0.34998 0.67912 0.26494 0.0
C3443 C 0.33419 0.68343 0.26318 0.0
C3444 C 0.36118 0.69059 0.27543 0.0
C3445 C 0.37136 0.65903 0.25566 0.0
C3446 C 0.37192 0.68603 0.29288 0.0
C3447 C 0.38127 0.69712 0.3042 0.0
C3448 C 0.37943 0.71306 0.29931 0.0
C3449 C 0.36934 0.71763 0.28115 0.0
C3450 C 0.36031 0.70651 0.2693 0.0
H3451 H 0.37323 0.65061 0.24104 0.0
H3452 H 0.37936 0.66907 0.25299 0.0
H3453 H 0.37452 0.65297 0.27227 0.0
H3454 H 0.37272 0.674 0.29854 0.0
H3455 H 0.38957 0.69329 0.31739 0.0
loop_
_geom_bond_atom_site_label_1
_geom_bond_atom_site_label_2
_geom_bond_distance
_geom_bond_site_symmetry_2
_ccdc_geom_bond_type
Mn0 O5 2.095 . S
Mn0 O15 2.162 . S
Mn0 O16 2.297 . S
Mn0 O24 2.385 . S
Mn0 O25 2.209 . S
Mn0 O26 2.094 . S
Mn1 O6 2.121 . S
Mn1 N8 2.257 . S
Mn1 N17 2.282 . S
Mn1 O25 2.215 . S
Mn1 O27 2.117 . S
C2 O24 1.234 . S
C2 O25 1.283 . S
C3 O15 1.281 . S
C3 O16 1.236 . S
C4 O26 1.240 . S
C4 O27 1.264 . S
O5 Mn0 2.095 . S
O5 C14 1.250 . S
O6 Mn1 2.121 . S
O6 C14 1.258 . S
C7 N8 1.326 . S
C7 C11 1.460 . S
C7 H13 0.929 . S
N8 Mn1 2.257 . S
N8 C7 1.326 . S
N8 C12 1.362 . S
C9 C10 1.258 . S
C9 C12 1.431 . S
C9 C29 1.449 . S
C10 C9 1.258 . S
C10 C11 1.477 . S
C10 H30 0.931 . S
C11 C7 1.460 . S
C11 C10 1.477 . S
C11 H31 0.930 . S
C12 N8 1.362 . S
C12 C9 1.431 . S
C12 C22 1.476 . S
H13 C7 0.929 . S
C14 O5 1.250 . S
C14 O6 1.258 . S
O15 Mn0 2.162 . S
O15 C3 1.281 . S
O16 Mn0 2.297 . S
O16 C3 1.236 . S
N17 Mn1 2.282 . S
N17 C18 1.328 . S
N17 C22 1.318 . S
C18 N17 1.328 . S
C18 C19 1.457 . S
C18 H23 0.929 . S
C19 C18 1.457 . S
C19 C20 1.291 . S
C19 H32 0.931 . S
C20 C19 1.291 . S
C20 C21 1.373 . S
C20 H33 0.929 . S
C21 C20 1.373 . S
C21 C22 1.396 . S
C21 C28 1.403 . S
C22 C12 1.476 . S
C22 N17 1.318 . S
C22 C21 1.396 . S
H23 C18 0.929 . S
O24 Mn0 2.385 . S
O24 C2 1.234 . S
O25 Mn0 2.209 . S
O25 Mn1 2.215 . S
O25 C2 1.283 . S
O26 Mn0 2.094 . S
O26 C4 1.240 . S
O27 Mn1 2.117 . S
O27 C4 1.264 . S
C28 C21 1.403 . S
C28 C29 1.399 . S
C28 H34 0.929 . S
C29 C9 1.449 . S
C29 C28 1.399 . S
C29 H35 0.930 . S
H30 C10 0.931 . S
H31 C11 0.930 . S
H32 C19 0.931 . S
H33 C20 0.929 . S
H34 C28 0.929 . S
H35 C29 0.930 . S
Mn36 O41 2.095 . S
Mn36 O51 2.162 . S
Mn36 O52 2.297 . S
Mn36 O60 2.385 . S
Mn36 O61 2.209 . S
Mn36 O62 2.094 . S
Mn37 O42 2.121 . S
Mn37 N44 2.257 . S
Mn37 N53 2.282 . S
Mn37 O61 2.215 . S
Mn37 O63 2.117 . S
C38 O60 1.234 . S
C38 O61 1.283 . S
C39 O51 1.281 . S
C39 O52 1.236 . S
C40 O62 1.240 . S
C40 O63 1.264 . S
O41 Mn36 2.095 . S
O41 C50 1.250 . S
O42 Mn37 2.121 . S
O42 C50 1.258 . S
C43 N44 1.326 . S
C43 C47 1.460 . S
C43 H49 0.929 . S
N44 Mn37 2.257 . S
N44 C43 1.326 . S
N44 C48 1.362 . S
C45 C46 1.258 . S
C45 C48 1.431 . S
C45 C65 1.449 . S
C46 C45 1.258 . S
C46 C47 1.477 . S
C46 H66 0.931 . S
C47 C43 1.460 . S
C47 C46 1.477 . S
C47 H67 0.930 . S
C48 N44 1.362 . S
C48 C45 1.431 . S
C48 C58 1.476 . S
H49 C43 0.929 . S
C50 O41 1.250 . S
C50 O42 1.258 . S
O51 Mn36 2.162 . S
O51 C39 1.281 . S
O52 Mn36 2.297 . S
O52 C39 1.236 . S
N53 Mn37 2.282 . S
N53 C54 1.328 . S
N53 C58 1.318 . S
C54 N53 1.328 . S
C54 C55 1.457 . S
C54 H59 0.929 . S
C55 C54 1.457 . S
C55 C56 1.291 . S
C55 H68 0.931 . S
C56 C55 1.291 . S
C56 C57 1.373 . S
C56 H69 0.929 . S
C57 C56 1.373 . S
C57 C58 1.396 . S
C57 C64 1.403 . S
C58 C48 1.476 . S
C58 N53 1.318 . S
C58 C57 1.396 . S
H59 C54 0.929 . S
O60 Mn36 2.385 . S
O60 C38 1.234 . S
O61 Mn36 2.209 . S
O61 Mn37 2.215 . S
O61 C38 1.283 . S
O62 Mn36 2.094 . S
O62 C40 1.240 . S
O63 Mn37 2.117 . S
O63 C40 1.264 . S
C64 C57 1.403 . S
C64 C65 1.399 . S
C64 H70 0.929 . S
C65 C45 1.449 . S
C65 C64 1.399 . S
C65 H71 0.930 . S
H66 C46 0.931 . S
H67 C47 0.930 . S
H68 C55 0.931 . S
H69 C56 0.929 . S
H70 C64 0.929 . S
H71 C65 0.930 . S
Mn72 O77 2.095 . S
Mn72 O87 2.162 . S
Mn72 O88 2.297 . S
Mn72 O96 2.385 . S
Mn72 O97 2.209 . S
Mn72 O98 2.094 . S
Mn73 O78 2.121 . S
Mn73 N80 2.257 . S
Mn73 N89 2.282 . S
Mn73 O97 2.215 . S
Mn73 O99 2.117 . S
C74 O96 1.234 . S
C74 O97 1.283 . S
C75 O87 1.281 . S
C75 O88 1.236 . S
C76 O98 1.240 . S
C76 O99 1.264 . S
O77 Mn72 2.095 . S
O77 C86 1.250 . S
O78 Mn73 2.121 . S
O78 C86 1.258 . S
C79 N80 1.326 . S
C79 C83 1.460 . S
C79 H85 0.929 . S
N80 Mn73 2.257 . S
N80 C79 1.326 . S
N80 C84 1.362 . S
C81 C82 1.258 . S
C81 C84 1.431 . S
C81 C101 1.449 . S
C82 C81 1.258 . S
C82 C83 1.477 . S
C82 H102 0.931 . S
C83 C79 1.460 . S
C83 C82 1.477 . S
C83 H103 0.930 . S
C84 N80 1.362 . S
C84 C81 1.431 . S
C84 C94 1.476 . S
H85 C79 0.929 . S
C86 O77 1.250 . S
C86 O78 1.258 . S
O87 Mn72 2.162 . S
O87 C75 1.281 . S
O88 Mn72 2.297 . S
O88 C75 1.236 . S
N89 Mn73 2.282 . S
N89 C90 1.328 . S
N89 C94 1.318 . S
C90 N89 1.328 . S
C90 C91 1.457 . S
C90 H95 0.929 . S
C91 C90 1.457 . S
C91 C92 1.291 . S
C91 H104 0.931 . S
C92 C91 1.291 . S
C92 C93 1.373 . S
C92 H105 0.929 . S
C93 C92 1.373 . S
C93 C94 1.396 . S
C93 C100 1.403 . S
C94 C84 1.476 . S
C94 N89 1.318 . S
C94 C93 1.396 . S
H95 C90 0.929 . S
O96 Mn72 2.385 . S
O96 C74 1.234 . S
O97 Mn72 2.209 . S
O97 Mn73 2.215 . S
O97 C74 1.283 . S
O98 Mn72 2.094 . S
O98 C76 1.240 . S
O99 Mn73 2.117 . S
O99 C76 1.264 . S
C100 C93 1.403 . S
C100 C101 1.399 . S
C100 H106 0.929 . S
C101 C81 1.449 . S
C101 C100 1.399 . S
C101 H107 0.930 . S
H102 C82 0.931 . S
H103 C83 0.930 . S
H104 C91 0.931 . S
H105 C92 0.929 . S
H106 C100 0.929 . S
H107 C101 0.930 . S
Mn108 O113 2.095 . S
Mn108 O123 2.162 . S
Mn108 O124 2.297 . S
Mn108 O132 2.385 . S
Mn108 O133 2.209 . S
Mn108 O134 2.094 . S
Mn109 O114 2.121 . S
Mn109 N116 2.257 . S
Mn109 N125 2.282 . S
Mn109 O133 2.215 . S
Mn109 O135 2.117 . S
C110 O132 1.234 . S
C110 O133 1.283 . S
C111 O123 1.281 . S
C111 O124 1.236 . S
C112 O134 1.240 . S
C112 O135 1.264 . S
O113 Mn108 2.095 . S
O113 C122 1.250 . S
O114 Mn109 2.121 . S
O114 C122 1.258 . S
C115 N116 1.326 . S
C115 C119 1.460 . S
C115 H121 0.929 . S
N116 Mn109 2.257 . S
N116 C115 1.326 . S
N116 C120 1.362 . S
C117 C118 1.258 . S
C117 C120 1.431 . S
C117 C137 1.449 . S
C118 C117 1.258 . S
C118 C119 1.477 . S
C118 H138 0.931 . S
C119 C115 1.460 . S
C119 C118 1.477 . S
C119 H139 0.930 . S
C120 N116 1.362 . S
C120 C117 1.431 . S
C120 C130 1.476 . S
H121 C115 0.929 . S
C122 O113 1.250 . S
C122 O114 1.258 . S
O123 Mn108 2.162 . S
O123 C111 1.281 . S
O124 Mn108 2.297 . S
O124 C111 1.236 . S
N125 Mn109 2.282 . S
N125 C126 1.328 . S
N125 C130 1.318 . S
C126 N125 1.328 . S
C126 C127 1.457 . S
C126 H131 0.929 . S
C127 C126 1.457 . S
C127 C128 1.291 . S
C127 H140 0.931 . S
C128 C127 1.291 . S
C128 C129 1.373 . S
C128 H141 0.929 . S
C129 C128 1.373 . S
C129 C130 1.396 . S
C129 C136 1.403 . S
C130 C120 1.476 . S
C130 N125 1.318 . S
C130 C129 1.396 . S
H131 C126 0.929 . S
O132 Mn108 2.385 . S
O132 C110 1.234 . S
O133 Mn108 2.209 . S
O133 Mn109 2.215 . S
O133 C110 1.283 . S
O134 Mn108 2.094 . S
O134 C112 1.240 . S
O135 Mn109 2.117 . S
O135 C112 1.264 . S
C136 C129 1.403 . S
C136 C137 1.399 . S
C136 H142 0.929 . S
C137 C117 1.449 . S
C137 C136 1.399 . S
C137 H143 0.930 . S
H138 C118 0.931 . S
H139 C119 0.930 . S
H140 C127 0.931 . S
H141 C128 0.929 . S
H142 C136 0.929 . S
H143 C137 0.930 . S
Mn144 O149 2.095 . S
Mn144 O159 2.162 . S
Mn144 O160 2.297 . S
Mn144 O168 2.385 . S
Mn144 O169 2.209 . S
Mn144 O170 2.094 . S
Mn145 O150 2.121 . S
Mn145 N152 2.257 . S
Mn145 N161 2.282 . S
Mn145 O169 2.215 . S
Mn145 O171 2.117 . S
C146 O168 1.234 . S
C146 O169 1.283 . S
C147 O159 1.281 . S
C147 O160 1.236 . S
C148 O170 1.240 . S
C148 O171 1.264 . S
O149 Mn144 2.095 . S
O149 C158 1.250 . S
O150 Mn145 2.121 . S
O150 C158 1.258 . S
C151 N152 1.326 . S
C151 C155 1.460 . S
C151 H157 0.929 . S
N152 Mn145 2.257 . S
N152 C151 1.326 . S
N152 C156 1.362 . S
C153 C154 1.258 . S
C153 C156 1.431 . S
C153 C173 1.449 . S
C154 C153 1.258 . S
C154 C155 1.477 . S
C154 H174 0.931 . S
C155 C151 1.460 . S
C155 C154 1.477 . S
C155 H175 0.930 . S
C156 N152 1.362 . S
C156 C153 1.431 . S
C156 C166 1.476 . S
H157 C151 0.929 . S
C158 O149 1.250 . S
C158 O150 1.258 . S
O159 Mn144 2.162 . S
O159 C147 1.281 . S
O160 Mn144 2.297 . S
O160 C147 1.236 . S
N161 Mn145 2.282 . S
N161 C162 1.328 . S
N161 C166 1.318 . S
C162 N161 1.328 . S
C162 C163 1.457 . S
C162 H167 0.929 . S
C163 C162 1.457 . S
C163 C164 1.291 . S
C163 H176 0.931 . S
C164 C163 1.291 . S
C164 C165 1.373 . S
C164 H177 0.929 . S
C165 C164 1.373 . S
C165 C166 1.396 . S
C165 C172 1.403 . S
C166 C156 1.476 . S
C166 N161 1.318 . S
C166 C165 1.396 . S
H167 C162 0.929 . S
O168 Mn144 2.385 . S
O168 C146 1.234 . S
O169 Mn144 2.209 . S
O169 Mn145 2.215 . S
O169 C146 1.283 . S
O170 Mn144 2.094 . S
O170 C148 1.240 . S
O171 Mn145 2.117 . S
O171 C148 1.264 . S
C172 C165 1.403 . S
C172 C173 1.399 . S
C172 H178 0.929 . S
C173 C153 1.449 . S
C173 C172 1.399 . S
C173 H179 0.930 . S
H174 C154 0.931 . S
H175 C155 0.930 . S
H176 C163 0.931 . S
H177 C164 0.929 . S
H178 C172 0.929 . S
H179 C173 0.930 . S
Mn180 O185 2.095 . S
Mn180 O195 2.162 . S
Mn180 O196 2.297 . S
Mn180 O204 2.385 . S
Mn180 O205 2.209 . S
Mn180 O206 2.094 . S
Mn181 O186 2.121 . S
Mn181 N188 2.257 . S
Mn181 N197 2.282 . S
Mn181 O205 2.215 . S
Mn181 O207 2.117 . S
C182 O204 1.234 . S
C182 O205 1.283 . S
C183 O195 1.281 . S
C183 O196 1.236 . S
C184 O206 1.240 . S
C184 O207 1.264 . S
O185 Mn180 2.095 . S
O185 C194 1.250 . S
O186 Mn181 2.121 . S
O186 C194 1.258 . S
C187 N188 1.326 . S
C187 C191 1.460 . S
C187 H193 0.929 . S
N188 Mn181 2.257 . S
N188 C187 1.326 . S
N188 C192 1.362 . S
C189 C190 1.258 . S
C189 C192 1.431 . S
C189 C209 1.449 . S
C190 C189 1.258 . S
C190 C191 1.477 . S
C190 H210 0.931 . S
C191 C187 1.460 . S
C191 C190 1.477 . S
C191 H211 0.930 . S
C192 N188 1.362 . S
C192 C189 1.431 . S
C192 C202 1.476 . S
H193 C187 0.929 . S
C194 O185 1.250 . S
C194 O186 1.258 . S
O195 Mn180 2.162 . S
O195 C183 1.281 . S
O196 Mn180 2.297 . S
O196 C183 1.236 . S
N197 Mn181 2.282 . S
N197 C198 1.328 . S
N197 C202 1.318 . S
C198 N197 1.328 . S
C198 C199 1.457 . S
C198 H203 0.929 . S
C199 C198 1.457 . S
C199 C200 1.291 . S
C199 H212 0.931 . S
C200 C199 1.291 . S
C200 C201 1.373 . S
C200 H213 0.929 . S
C201 C200 1.373 . S
C201 C202 1.396 . S
C201 C208 1.403 . S
C202 C192 1.476 . S
C202 N197 1.318 . S
C202 C201 1.396 . S
H203 C198 0.929 . S
O204 Mn180 2.385 . S
O204 C182 1.234 . S
O205 Mn180 2.209 . S
O205 Mn181 2.215 . S
O205 C182 1.283 . S
O206 Mn180 2.094 . S
O206 C184 1.240 . S
O207 Mn181 2.117 . S
O207 C184 1.264 . S
C208 C201 1.403 . S
C208 C209 1.399 . S
C208 H214 0.929 . S
C209 C189 1.449 . S
C209 C208 1.399 . S
C209 H215 0.930 . S
H210 C190 0.931 . S
H211 C191 0.930 . S
H212 C199 0.931 . S
H213 C200 0.929 . S
H214 C208 0.929 . S
H215 C209 0.930 . S
Mn216 O221 2.095 . S
Mn216 O231 2.162 . S
Mn216 O232 2.297 . S
Mn216 O240 2.385 . S
Mn216 O241 2.209 . S
Mn216 O242 2.094 . S
Mn217 O222 2.121 . S
Mn217 N224 2.257 . S
Mn217 N233 2.282 . S
Mn217 O241 2.215 . S
Mn217 O243 2.117 . S
C218 O240 1.234 . S
C218 O241 1.283 . S
C219 O231 1.281 . S
C219 O232 1.236 . S
C220 O242 1.240 . S
C220 O243 1.264 . S
O221 Mn216 2.095 . S
O221 C230 1.250 . S
O222 Mn217 2.121 . S
O222 C230 1.258 . S
C223 N224 1.326 . S
C223 C227 1.460 . S
C223 H229 0.929 . S
N224 Mn217 2.257 . S
N224 C223 1.326 . S
N224 C228 1.362 . S
C225 C226 1.258 . S
C225 C228 1.431 . S
C225 C245 1.449 . S
C226 C225 1.258 . S
C226 C227 1.477 . S
C226 H246 0.931 . S
C227 C223 1.460 . S
C227 C226 1.477 . S
C227 H247 0.930 . S
C228 N224 1.362 . S
C228 C225 1.431 . S
C228 C238 1.476 . S
H229 C223 0.929 . S
C230 O221 1.250 . S
C230 O222 1.258 . S
O231 Mn216 2.162 . S
O231 C219 1.281 . S
O232 Mn216 2.297 . S
O232 C219 1.236 . S
N233 Mn217 2.282 . S
N233 C234 1.328 . S
N233 C238 1.318 . S
C234 N233 1.328 . S
C234 C235 1.457 . S
C234 H239 0.929 . S
C235 C234 1.457 . S
C235 C236 1.291 . S
C235 H248 0.931 . S
C236 C235 1.291 . S
C236 C237 1.373 . S
C236 H249 0.929 . S
C237 C236 1.373 . S
C237 C238 1.396 . S
C237 C244 1.403 . S
C238 C228 1.476 . S
C238 N233 1.318 . S
C238 C237 1.396 . S
H239 C234 0.929 . S
O240 Mn216 2.385 . S
O240 C218 1.234 . S
O241 Mn216 2.209 . S
O241 Mn217 2.215 . S
O241 C218 1.283 . S
O242 Mn216 2.094 . S
O242 C220 1.240 . S
O243 Mn217 2.117 . S
O243 C220 1.264 . S
C244 C237 1.403 . S
C244 C245 1.399 . S
C244 H250 0.929 . S
C245 C225 1.449 . S
C245 C244 1.399 . S
C245 H251 0.930 . S
H246 C226 0.931 . S
H247 C227 0.930 . S
H248 C235 0.931 . S
H249 C236 0.929 . S
H250 C244 0.929 . S
H251 C245 0.930 . S
Mn252 O257 2.095 . S
Mn252 O267 2.162 . S
Mn252 O268 2.297 . S
Mn252 O276 2.385 . S
Mn252 O277 2.209 . S
Mn252 O278 2.094 . S
Mn253 O258 2.121 . S
Mn253 N260 2.257 . S
Mn253 N269 2.282 . S
Mn253 O277 2.215 . S
Mn253 O279 2.117 . S
C254 O276 1.234 . S
C254 O277 1.283 . S
C255 O267 1.281 . S
C255 O268 1.236 . S
C256 O278 1.240 . S
C256 O279 1.264 . S
O257 Mn252 2.095 . S
O257 C266 1.250 . S
O258 Mn253 2.121 . S
O258 C266 1.258 . S
C259 N260 1.326 . S
C259 C263 1.460 . S
C259 H265 0.929 . S
N260 Mn253 2.257 . S
N260 C259 1.326 . S
N260 C264 1.362 . S
C261 C262 1.258 . S
C261 C264 1.431 . S
C261 C281 1.449 . S
C262 C261 1.258 . S
C262 C263 1.477 . S
C262 H282 0.931 . S
C263 C259 1.460 . S
C263 C262 1.477 . S
C263 H283 0.930 . S
C264 N260 1.362 . S
C264 C261 1.431 . S
C264 C274 1.476 . S
H265 C259 0.929 . S
C266 O257 1.250 . S
C266 O258 1.258 . S
O267 Mn252 2.162 . S
O267 C255 1.281 . S
O268 Mn252 2.297 . S
O268 C255 1.236 . S
N269 Mn253 2.282 . S
N269 C270 1.328 . S
N269 C274 1.318 . S
C270 N269 1.328 . S
C270 C271 1.457 . S
C270 H275 0.929 . S
C271 C270 1.457 . S
C271 C272 1.291 . S
C271 H284 0.931 . S
C272 C271 1.291 . S
C272 C273 1.373 . S
C272 H285 0.929 . S
C273 C272 1.373 . S
C273 C274 1.396 . S
C273 C280 1.403 . S
C274 C264 1.476 . S
C274 N269 1.318 . S
C274 C273 1.396 . S
H275 C270 0.929 . S
O276 Mn252 2.385 . S
O276 C254 1.234 . S
O277 Mn252 2.209 . S
O277 Mn253 2.215 . S
O277 C254 1.283 . S
O278 Mn252 2.094 . S
O278 C256 1.240 . S
O279 Mn253 2.117 . S
O279 C256 1.264 . S
C280 C273 1.403 . S
C280 C281 1.399 . S
C280 H286 0.929 . S
C281 C261 1.449 . S
C281 C280 1.399 . S
C281 H287 0.930 . S
H282 C262 0.931 . S
H283 C263 0.930 . S
H284 C271 0.931 . S
H285 C272 0.929 . S
H286 C280 0.929 . S
H287 C281 0.930 . S
Mn288 O293 2.095 . S
Mn288 O303 2.162 . S
Mn288 O304 2.297 . S
Mn288 O312 2.385 . S
Mn288 O313 2.209 . S
Mn288 O314 2.094 . S
Mn289 O294 2.121 . S
Mn289 N296 2.257 . S
Mn289 N305 2.282 . S
Mn289 O313 2.215 . S
Mn289 O315 2.117 . S
C290 O312 1.234 . S
C290 O313 1.283 . S
C291 O303 1.281 . S
C291 O304 1.236 . S
C292 O314 1.240 . S
C292 O315 1.264 . S
O293 Mn288 2.095 . S
O293 C302 1.250 . S
O294 Mn289 2.121 . S
O294 C302 1.258 . S
C295 N296 1.326 . S
C295 C299 1.460 . S
C295 H301 0.929 . S
N296 Mn289 2.257 . S
N296 C295 1.326 . S
N296 C300 1.362 . S
C297 C298 1.258 . S
C297 C300 1.431 . S
C297 C317 1.449 . S
C298 C297 1.258 . S
C298 C299 1.477 . S
C298 H318 0.931 . S
C299 C295 1.460 . S
C299 C298 1.477 . S
C299 H319 0.930 . S
C300 N296 1.362 . S
C300 C297 1.431 . S
C300 C310 1.476 . S
H301 C295 0.929 . S
C302 O293 1.250 . S
C302 O294 1.258 . S
O303 Mn288 2.162 . S
O303 C291 1.281 . S
O304 Mn288 2.297 . S
O304 C291 1.236 . S
N305 Mn289 2.282 . S
N305 C306 1.328 . S
N305 C310 1.318 . S
C306 N305 1.328 . S
C306 C307 1.457 . S
C306 H311 0.929 . S
C307 C306 1.457 . S
C307 C308 1.291 . S
C307 H320 0.931 . S
C308 C307 1.291 . S
C308 C309 1.373 . S
C308 H321 0.929 . S
C309 C308 1.373 . S
C309 C310 1.396 . S
C309 C316 1.403 . S
C310 C300 1.476 . S
C310 N305 1.318 . S
C310 C309 1.396 . S
H311 C306 0.929 . S
O312 Mn288 2.385 . S
O312 C290 1.234 . S
O313 Mn288 2.209 . S
O313 Mn289 2.215 . S
O313 C290 1.283 . S
O314 Mn288 2.094 . S
O314 C292 1.240 . S
O315 Mn289 2.117 . S
O315 C292 1.264 . S
C316 C309 1.403 . S
C316 C317 1.399 . S
C316 H322 0.929 . S
C317 C297 1.449 . S
C317 C316 1.399 . S
C317 H323 0.930 . S
H318 C298 0.931 . S
H319 C299 0.930 . S
H320 C307 0.931 . S
H321 C308 0.929 . S
H322 C316 0.929 . S
H323 C317 0.930 . S
Mn324 O329 2.095 . S
Mn324 O339 2.162 . S
Mn324 O340 2.297 . S
Mn324 O348 2.385 . S
Mn324 O349 2.209 . S
Mn324 O350 2.094 . S
Mn325 O330 2.121 . S
Mn325 N332 2.257 . S
Mn325 N341 2.282 . S
Mn325 O349 2.215 . S
Mn325 O351 2.117 . S
C326 O348 1.234 . S
C326 O349 1.283 . S
C327 O339 1.281 . S
C327 O340 1.236 . S
C328 O350 1.240 . S
C328 O351 1.264 . S
O329 Mn324 2.095 . S
O329 C338 1.250 . S
O330 Mn325 2.121 . S
O330 C338 1.258 . S
C331 N332 1.326 . S
C331 C335 1.460 . S
C331 H337 0.929 . S
N332 Mn325 2.257 . S
N332 C331 1.326 . S
N332 C336 1.362 . S
C333 C334 1.258 . S
C333 C336 1.431 . S
C333 C353 1.449 . S
C334 C333 1.258 . S
C334 C335 1.477 . S
C334 H354 0.931 . S
C335 C331 1.460 . S
C335 C334 1.477 . S
C335 H355 0.930 . S
C336 N332 1.362 . S
C336 C333 1.431 . S
C336 C346 1.476 . S
H337 C331 0.929 . S
C338 O329 1.250 . S
C338 O330 1.258 . S
O339 Mn324 2.162 . S
O339 C327 1.281 . S
O340 Mn324 2.297 . S
O340 C327 1.236 . S
N341 Mn325 2.282 . S
N341 C342 1.328 . S
N341 C346 1.318 . S
C342 N341 1.328 . S
C342 C343 1.457 . S
C342 H347 0.929 . S
C343 C342 1.457 . S
C343 C344 1.291 . S
C343 H356 0.931 . S
C344 C343 1.291 . S
C344 C345 1.373 . S
C344 H357 0.929 . S
C345 C344 1.373 . S
C345 C346 1.396 . S
C345 C352 1.403 . S
C346 C336 1.476 . S
C346 N341 1.318 . S
C346 C345 1.396 . S
H347 C342 0.929 . S
O348 Mn324 2.385 . S
O348 C326 1.234 . S
O349 Mn324 2.209 . S
O349 Mn325 2.215 . S
O349 C326 1.283 . S
O350 Mn324 2.094 . S
O350 C328 1.240 . S
O351 Mn325 2.117 . S
O351 C328 1.264 . S
C352 C345 1.403 . S
C352 C353 1.399 . S
C352 H358 0.929 . S
C353 C333 1.449 . S
C353 C352 1.399 . S
C353 H359 0.930 . S
H354 C334 0.931 . S
H355 C335 0.930 . S
H356 C343 0.931 . S
H357 C344 0.929 . S
H358 C352 0.929 . S
H359 C353 0.930 . S
Mn360 O365 2.095 . S
Mn360 O375 2.162 . S
Mn360 O376 2.297 . S
Mn360 O384 2.385 . S
Mn360 O385 2.209 . S
Mn360 O386 2.094 . S
Mn361 O366 2.121 . S
Mn361 N368 2.257 . S
Mn361 N377 2.282 . S
Mn361 O385 2.215 . S
Mn361 O387 2.117 . S
C362 O384 1.234 . S
C362 O385 1.283 . S
C363 O375 1.281 . S
C363 O376 1.236 . S
C364 O386 1.240 . S
C364 O387 1.264 . S
O365 Mn360 2.095 . S
O365 C374 1.250 . S
O366 Mn361 2.121 . S
O366 C374 1.258 . S
C367 N368 1.326 . S
C367 C371 1.460 . S
C367 H373 0.929 . S
N368 Mn361 2.257 . S
N368 C367 1.326 . S
N368 C372 1.362 . S
C369 C370 1.258 . S
C369 C372 1.431 . S
C369 C389 1.449 . S
C370 C369 1.258 . S
C370 C371 1.477 . S
C370 H390 0.931 . S
C371 C367 1.460 . S
C371 C370 1.477 . S
C371 H391 0.930 . S
C372 N368 1.362 . S
C372 C369 1.431 . S
C372 C382 1.476 . S
H373 C367 0.929 . S
C374 O365 1.250 . S
C374 O366 1.258 . S
O375 Mn360 2.162 . S
O375 C363 1.281 . S
O376 Mn360 2.297 . S
O376 C363 1.236 . S
N377 Mn361 2.282 . S
N377 C378 1.328 . S
N377 C382 1.318 . S
C378 N377 1.328 . S
C378 C379 1.457 . S
C378 H383 0.929 . S
C379 C378 1.457 . S
C379 C380 1.291 . S
C379 H392 0.931 . S
C380 C379 1.291 . S
C380 C381 1.373 . S
C380 H393 0.929 . S
C381 C380 1.373 . S
C381 C382 1.396 . S
C381 C388 1.403 . S
C382 C372 1.476 . S
C382 N377 1.318 . S
C382 C381 1.396 . S
H383 C378 0.929 . S
O384 Mn360 2.385 . S
O384 C362 1.234 . S
O385 Mn360 2.209 . S
O385 Mn361 2.215 . S
O385 C362 1.283 . S
O386 Mn360 2.094 . S
O386 C364 1.240 . S
O387 Mn361 2.117 . S
O387 C364 1.264 . S
C388 C381 1.403 . S
C388 C389 1.399 . S
C388 H394 0.929 . S
C389 C369 1.449 . S
C389 C388 1.399 . S
C389 H395 0.930 . S
H390 C370 0.931 . S
H391 C371 0.930 . S
H392 C379 0.931 . S
H393 C380 0.929 . S
H394 C388 0.929 . S
H395 C389 0.930 . S
Mn396 O401 2.095 . S
Mn396 O411 2.162 . S
Mn396 O412 2.297 . S
Mn396 O420 2.385 . S
Mn396 O421 2.209 . S
Mn396 O422 2.094 . S
Mn397 O402 2.121 . S
Mn397 N404 2.257 . S
Mn397 N413 2.282 . S
Mn397 O421 2.215 . S
Mn397 O423 2.117 . S
C398 O420 1.234 . S
C398 O421 1.283 . S
C399 O411 1.281 . S
C399 O412 1.236 . S
C400 O422 1.240 . S
C400 O423 1.264 . S
O401 Mn396 2.095 . S
O401 C410 1.250 . S
O402 Mn397 2.121 . S
O402 C410 1.258 . S
C403 N404 1.326 . S
C403 C407 1.460 . S
C403 H409 0.929 . S
N404 Mn397 2.257 . S
N404 C403 1.326 . S
N404 C408 1.362 . S
C405 C406 1.258 . S
C405 C408 1.431 . S
C405 C425 1.449 . S
C406 C405 1.258 . S
C406 C407 1.477 . S
C406 H426 0.931 . S
C407 C403 1.460 . S
C407 C406 1.477 . S
C407 H427 0.930 . S
C408 N404 1.362 . S
C408 C405 1.431 . S
C408 C418 1.476 . S
H409 C403 0.929 . S
C410 O401 1.250 . S
C410 O402 1.258 . S
O411 Mn396 2.162 . S
O411 C399 1.281 . S
O412 Mn396 2.297 . S
O412 C399 1.236 . S
N413 Mn397 2.282 . S
N413 C414 1.328 . S
N413 C418 1.318 . S
C414 N413 1.328 . S
C414 C415 1.457 . S
C414 H419 0.929 . S
C415 C414 1.457 . S
C415 C416 1.291 . S
C415 H428 0.931 . S
C416 C415 1.291 . S
C416 C417 1.373 . S
C416 H429 0.929 . S
C417 C416 1.373 . S
C417 C418 1.396 . S
C417 C424 1.403 . S
C418 C408 1.476 . S
C418 N413 1.318 . S
C418 C417 1.396 . S
H419 C414 0.929 . S
O420 Mn396 2.385 . S
O420 C398 1.234 . S
O421 Mn396 2.209 . S
O421 Mn397 2.215 . S
O421 C398 1.283 . S
O422 Mn396 2.094 . S
O422 C400 1.240 . S
O423 Mn397 2.117 . S
O423 C400 1.264 . S
C424 C417 1.403 . S
C424 C425 1.399 . S
C424 H430 0.929 . S
C425 C405 1.449 . S
C425 C424 1.399 . S
C425 H431 0.930 . S
H426 C406 0.931 . S
H427 C407 0.930 . S
H428 C415 0.931 . S
H429 C416 0.929 . S
H430 C424 0.929 . S
H431 C425 0.930 . S
Mn432 O437 2.095 . S
Mn432 O447 2.162 . S
Mn432 O448 2.297 . S
Mn432 O456 2.385 . S
Mn432 O457 2.209 . S
Mn432 O458 2.094 . S
Mn433 O438 2.121 . S
Mn433 N440 2.257 . S
Mn433 N449 2.282 . S
Mn433 O457 2.215 . S
Mn433 O459 2.117 . S
C434 O456 1.234 . S
C434 O457 1.283 . S
C435 O447 1.281 . S
C435 O448 1.236 . S
C436 O458 1.240 . S
C436 O459 1.264 . S
O437 Mn432 2.095 . S
O437 C446 1.250 . S
O438 Mn433 2.121 . S
O438 C446 1.258 . S
C439 N440 1.326 . S
C439 C443 1.460 . S
C439 H445 0.929 . S
N440 Mn433 2.257 . S
N440 C439 1.326 . S
N440 C444 1.362 . S
C441 C442 1.258 . S
C441 C444 1.431 . S
C441 C461 1.449 . S
C442 C441 1.258 . S
C442 C443 1.477 . S
C442 H462 0.931 . S
C443 C439 1.460 . S
C443 C442 1.477 . S
C443 H463 0.930 . S
C444 N440 1.362 . S
C444 C441 1.431 . S
C444 C454 1.476 . S
H445 C439 0.929 . S
C446 O437 1.250 . S
C446 O438 1.258 . S
O447 Mn432 2.162 . S
O447 C435 1.281 . S
O448 Mn432 2.297 . S
O448 C435 1.236 . S
N449 Mn433 2.282 . S
N449 C450 1.328 . S
N449 C454 1.318 . S
C450 N449 1.328 . S
C450 C451 1.457 . S
C450 H455 0.929 . S
C451 C450 1.457 . S
C451 C452 1.291 . S
C451 H464 0.931 . S
C452 C451 1.291 . S
C452 C453 1.373 . S
C452 H465 0.929 . S
C453 C452 1.373 . S
C453 C454 1.396 . S
C453 C460 1.403 . S
C454 C444 1.476 . S
C454 N449 1.318 . S
C454 C453 1.396 . S
H455 C450 0.929 . S
O456 Mn432 2.385 . S
O456 C434 1.234 . S
O457 Mn432 2.209 . S
O457 Mn433 2.215 . S
O457 C434 1.283 . S
O458 Mn432 2.094 . S
O458 C436 1.240 . S
O459 Mn433 2.117 . S
O459 C436 1.264 . S
C460 C453 1.403 . S
C460 C461 1.399 . S
C460 H466 0.929 . S
C461 C441 1.449 . S
C461 C460 1.399 . S
C461 H467 0.930 . S
H462 C442 0.931 . S
H463 C443 0.930 . S
H464 C451 0.931 . S
H465 C452 0.929 . S
H466 C460 0.929 . S
H467 C461 0.930 . S
Mn468 O473 2.095 . S
Mn468 O483 2.162 . S
Mn468 O484 2.297 . S
Mn468 O492 2.385 . S
Mn468 O493 2.209 . S
Mn468 O494 2.094 . S
Mn469 O474 2.121 . S
Mn469 N476 2.257 . S
Mn469 N485 2.282 . S
Mn469 O493 2.215 . S
Mn469 O495 2.117 . S
C470 O492 1.234 . S
C470 O493 1.283 . S
C471 O483 1.281 . S
C471 O484 1.236 . S
C472 O494 1.240 . S
C472 O495 1.264 . S
O473 Mn468 2.095 . S
O473 C482 1.250 . S
O474 Mn469 2.121 . S
O474 C482 1.258 . S
C475 N476 1.326 . S
C475 C479 1.460 . S
C475 H481 0.929 . S
N476 Mn469 2.257 . S
N476 C475 1.326 . S
N476 C480 1.362 . S
C477 C478 1.258 . S
C477 C480 1.431 . S
C477 C497 1.449 . S
C478 C477 1.258 . S
C478 C479 1.477 . S
C478 H498 0.931 . S
C479 C475 1.460 . S
C479 C478 1.477 . S
C479 H499 0.930 . S
C480 N476 1.362 . S
C480 C477 1.431 . S
C480 C490 1.476 . S
H481 C475 0.929 . S
C482 O473 1.250 . S
C482 O474 1.258 . S
O483 Mn468 2.162 . S
O483 C471 1.281 . S
O484 Mn468 2.297 . S
O484 C471 1.236 . S
N485 Mn469 2.282 . S
N485 C486 1.328 . S
N485 C490 1.318 . S
C486 N485 1.328 . S
C486 C487 1.457 . S
C486 H491 0.929 . S
C487 C486 1.457 . S
C487 C488 1.291 . S
C487 H500 0.931 . S
C488 C487 1.291 . S
C488 C489 1.373 . S
C488 H501 0.929 . S
C489 C488 1.373 . S
C489 C490 1.396 . S
C489 C496 1.403 . S
C490 C480 1.476 . S
C490 N485 1.318 . S
C490 C489 1.396 . S
H491 C486 0.929 . S
O492 Mn468 2.385 . S
O492 C470 1.234 . S
O493 Mn468 2.209 . S
O493 Mn469 2.215 . S
O493 C470 1.283 . S
O494 Mn468 2.094 . S
O494 C472 1.240 . S
O495 Mn469 2.117 . S
O495 C472 1.264 . S
C496 C489 1.403 . S
C496 C497 1.399 . S
C496 H502 0.929 . S
C497 C477 1.449 . S
C497 C496 1.399 . S
C497 H503 0.930 . S
H498 C478 0.931 . S
H499 C479 0.930 . S
H500 C487 0.931 . S
H501 C488 0.929 . S
H502 C496 0.929 . S
H503 C497 0.930 . S
Mn504 O509 2.095 . S
Mn504 O519 2.162 . S
Mn504 O520 2.297 . S
Mn504 O528 2.385 . S
Mn504 O529 2.209 . S
Mn504 O530 2.094 . S
Mn505 O510 2.121 . S
Mn505 N512 2.257 . S
Mn505 N521 2.282 . S
Mn505 O529 2.215 . S
Mn505 O531 2.117 . S
C506 O528 1.234 . S
C506 O529 1.283 . S
C507 O519 1.281 . S
C507 O520 1.236 . S
C508 O530 1.240 . S
C508 O531 1.264 . S
O509 Mn504 2.095 . S
O509 C518 1.250 . S
O510 Mn505 2.121 . S
O510 C518 1.258 . S
C511 N512 1.326 . S
C511 C515 1.460 . S
C511 H517 0.929 . S
N512 Mn505 2.257 . S
N512 C511 1.326 . S
N512 C516 1.362 . S
C513 C514 1.258 . S
C513 C516 1.431 . S
C513 C533 1.449 . S
C514 C513 1.258 . S
C514 C515 1.477 . S
C514 H534 0.931 . S
C515 C511 1.460 . S
C515 C514 1.477 . S
C515 H535 0.930 . S
C516 N512 1.362 . S
C516 C513 1.431 . S
C516 C526 1.476 . S
H517 C511 0.929 . S
C518 O509 1.250 . S
C518 O510 1.258 . S
O519 Mn504 2.162 . S
O519 C507 1.281 . S
O520 Mn504 2.297 . S
O520 C507 1.236 . S
N521 Mn505 2.282 . S
N521 C522 1.328 . S
N521 C526 1.318 . S
C522 N521 1.328 . S
C522 C523 1.457 . S
C522 H527 0.929 . S
C523 C522 1.457 . S
C523 C524 1.291 . S
C523 H536 0.931 . S
C524 C523 1.291 . S
C524 C525 1.373 . S
C524 H537 0.929 . S
C525 C524 1.373 . S
C525 C526 1.396 . S
C525 C532 1.403 . S
C526 C516 1.476 . S
C526 N521 1.318 . S
C526 C525 1.396 . S
H527 C522 0.929 . S
O528 Mn504 2.385 . S
O528 C506 1.234 . S
O529 Mn504 2.209 . S
O529 Mn505 2.215 . S
O529 C506 1.283 . S
O530 Mn504 2.094 . S
O530 C508 1.240 . S
O531 Mn505 2.117 . S
O531 C508 1.264 . S
C532 C525 1.403 . S
C532 C533 1.399 . S
C532 H538 0.929 . S
C533 C513 1.449 . S
C533 C532 1.399 . S
C533 H539 0.930 . S
H534 C514 0.931 . S
H535 C515 0.930 . S
H536 C523 0.931 . S
H537 C524 0.929 . S
H538 C532 0.929 . S
H539 C533 0.930 . S
Mn540 O545 2.095 . S
Mn540 O555 2.162 . S
Mn540 O556 2.297 . S
Mn540 O564 2.385 . S
Mn540 O565 2.209 . S
Mn540 O566 2.094 . S
Mn541 O546 2.121 . S
Mn541 N548 2.257 . S
Mn541 N557 2.282 . S
Mn541 O565 2.215 . S
Mn541 O567 2.117 . S
C542 O564 1.234 . S
C542 O565 1.283 . S
C543 O555 1.281 . S
C543 O556 1.236 . S
C544 O566 1.240 . S
C544 O567 1.264 . S
O545 Mn540 2.095 . S
O545 C554 1.250 . S
O546 Mn541 2.121 . S
O546 C554 1.258 . S
C547 N548 1.326 . S
C547 C551 1.460 . S
C547 H553 0.929 . S
N548 Mn541 2.257 . S
N548 C547 1.326 . S
N548 C552 1.362 . S
C549 C550 1.258 . S
C549 C552 1.431 . S
C549 C569 1.449 . S
C550 C549 1.258 . S
C550 C551 1.477 . S
C550 H570 0.931 . S
C551 C547 1.460 . S
C551 C550 1.477 . S
C551 H571 0.930 . S
C552 N548 1.362 . S
C552 C549 1.431 . S
C552 C562 1.476 . S
H553 C547 0.929 . S
C554 O545 1.250 . S
C554 O546 1.258 . S
O555 Mn540 2.162 . S
O555 C543 1.281 . S
O556 Mn540 2.297 . S
O556 C543 1.236 . S
N557 Mn541 2.282 . S
N557 C558 1.328 . S
N557 C562 1.318 . S
C558 N557 1.328 . S
C558 C559 1.457 . S
C558 H563 0.929 . S
C559 C558 1.457 . S
C559 C560 1.291 . S
C559 H572 0.931 . S
C560 C559 1.291 . S
C560 C561 1.373 . S
C560 H573 0.929 . S
C561 C560 1.373 . S
C561 C562 1.396 . S
C561 C568 1.403 . S
C562 C552 1.476 . S
C562 N557 1.318 . S
C562 C561 1.396 . S
H563 C558 0.929 . S
O564 Mn540 2.385 . S
O564 C542 1.234 . S
O565 Mn540 2.209 . S
O565 Mn541 2.215 . S
O565 C542 1.283 . S
O566 Mn540 2.094 . S
O566 C544 1.240 . S
O567 Mn541 2.117 . S
O567 C544 1.264 . S
C568 C561 1.403 . S
C568 C569 1.399 . S
C568 H574 0.929 . S
C569 C549 1.449 . S
C569 C568 1.399 . S
C569 H575 0.930 . S
H570 C550 0.931 . S
H571 C551 0.930 . S
H572 C559 0.931 . S
H573 C560 0.929 . S
H574 C568 0.929 . S
H575 C569 0.930 . S
Mn576 O581 2.095 . S
Mn576 O591 2.162 . S
Mn576 O592 2.297 . S
Mn576 O600 2.385 . S
Mn576 O601 2.209 . S
Mn576 O602 2.094 . S
Mn577 O582 2.121 . S
Mn577 N584 2.257 . S
Mn577 N593 2.282 . S
Mn577 O601 2.215 . S
Mn577 O603 2.117 . S
C578 O600 1.234 . S
C578 O601 1.283 . S
C579 O591 1.281 . S
C579 O592 1.236 . S
C580 O602 1.240 . S
C580 O603 1.264 . S
O581 Mn576 2.095 . S
O581 C590 1.250 . S
O582 Mn577 2.121 . S
O582 C590 1.258 . S
C583 N584 1.326 . S
C583 C587 1.460 . S
C583 H589 0.929 . S
N584 Mn577 2.257 . S
N584 C583 1.326 . S
N584 C588 1.362 . S
C585 C586 1.258 . S
C585 C588 1.431 . S
C585 C605 1.449 . S
C586 C585 1.258 . S
C586 C587 1.477 . S
C586 H606 0.931 . S
C587 C583 1.460 . S
C587 C586 1.477 . S
C587 H607 0.930 . S
C588 N584 1.362 . S
C588 C585 1.431 . S
C588 C598 1.476 . S
H589 C583 0.929 . S
C590 O581 1.250 . S
C590 O582 1.258 . S
O591 Mn576 2.162 . S
O591 C579 1.281 . S
O592 Mn576 2.297 . S
O592 C579 1.236 . S
N593 Mn577 2.282 . S
N593 C594 1.328 . S
N593 C598 1.318 . S
C594 N593 1.328 . S
C594 C595 1.457 . S
C594 H599 0.929 . S
C595 C594 1.457 . S
C595 C596 1.291 . S
C595 H608 0.931 . S
C596 C595 1.291 . S
C596 C597 1.373 . S
C596 H609 0.929 . S
C597 C596 1.373 . S
C597 C598 1.396 . S
C597 C604 1.403 . S
C598 C588 1.476 . S
C598 N593 1.318 . S
C598 C597 1.396 . S
H599 C594 0.929 . S
O600 Mn576 2.385 . S
O600 C578 1.234 . S
O601 Mn576 2.209 . S
O601 Mn577 2.215 . S
O601 C578 1.283 . S
O602 Mn576 2.094 . S
O602 C580 1.240 . S
O603 Mn577 2.117 . S
O603 C580 1.264 . S
C604 C597 1.403 . S
C604 C605 1.399 . S
C604 H610 0.929 . S
C605 C585 1.449 . S
C605 C604 1.399 . S
C605 H611 0.930 . S
H606 C586 0.931 . S
H607 C587 0.930 . S
H608 C595 0.931 . S
H609 C596 0.929 . S
H610 C604 0.929 . S
H611 C605 0.930 . S
Mn612 O617 2.095 . S
Mn612 O627 2.162 . S
Mn612 O628 2.297 . S
Mn612 O636 2.385 . S
Mn612 O637 2.209 . S
Mn612 O638 2.094 . S
Mn613 O618 2.121 . S
Mn613 N620 2.257 . S
Mn613 N629 2.282 . S
Mn613 O637 2.215 . S
Mn613 O639 2.117 . S
C614 O636 1.234 . S
C614 O637 1.283 . S
C615 O627 1.281 . S
C615 O628 1.236 . S
C616 O638 1.240 . S
C616 O639 1.264 . S
O617 Mn612 2.095 . S
O617 C626 1.250 . S
O618 Mn613 2.121 . S
O618 C626 1.258 . S
C619 N620 1.326 . S
C619 C623 1.460 . S
C619 H625 0.929 . S
N620 Mn613 2.257 . S
N620 C619 1.326 . S
N620 C624 1.362 . S
C621 C622 1.258 . S
C621 C624 1.431 . S
C621 C641 1.449 . S
C622 C621 1.258 . S
C622 C623 1.477 . S
C622 H642 0.931 . S
C623 C619 1.460 . S
C623 C622 1.477 . S
C623 H643 0.930 . S
C624 N620 1.362 . S
C624 C621 1.431 . S
C624 C634 1.476 . S
H625 C619 0.929 . S
C626 O617 1.250 . S
C626 O618 1.258 . S
O627 Mn612 2.162 . S
O627 C615 1.281 . S
O628 Mn612 2.297 . S
O628 C615 1.236 . S
N629 Mn613 2.282 . S
N629 C630 1.328 . S
N629 C634 1.318 . S
C630 N629 1.328 . S
C630 C631 1.457 . S
C630 H635 0.929 . S
C631 C630 1.457 . S
C631 C632 1.291 . S
C631 H644 0.931 . S
C632 C631 1.291 . S
C632 C633 1.373 . S
C632 H645 0.929 . S
C633 C632 1.373 . S
C633 C634 1.396 . S
C633 C640 1.403 . S
C634 C624 1.476 . S
C634 N629 1.318 . S
C634 C633 1.396 . S
H635 C630 0.929 . S
O636 Mn612 2.385 . S
O636 C614 1.234 . S
O637 Mn612 2.209 . S
O637 Mn613 2.215 . S
O637 C614 1.283 . S
O638 Mn612 2.094 . S
O638 C616 1.240 . S
O639 Mn613 2.117 . S
O639 C616 1.264 . S
C640 C633 1.403 . S
C640 C641 1.399 . S
C640 H646 0.929 . S
C641 C621 1.449 . S
C641 C640 1.399 . S
C641 H647 0.930 . S
H642 C622 0.931 . S
H643 C623 0.930 . S
H644 C631 0.931 . S
H645 C632 0.929 . S
H646 C640 0.929 . S
H647 C641 0.930 . S
Mn648 O653 2.095 . S
Mn648 O663 2.162 . S
Mn648 O664 2.297 . S
Mn648 O672 2.385 . S
Mn648 O673 2.209 . S
Mn648 O674 2.094 . S
Mn649 O654 2.121 . S
Mn649 N656 2.257 . S
Mn649 N665 2.282 . S
Mn649 O673 2.215 . S
Mn649 O675 2.117 . S
C650 O672 1.234 . S
C650 O673 1.283 . S
C651 O663 1.281 . S
C651 O664 1.236 . S
C652 O674 1.240 . S
C652 O675 1.264 . S
O653 Mn648 2.095 . S
O653 C662 1.250 . S
O654 Mn649 2.121 . S
O654 C662 1.258 . S
C655 N656 1.326 . S
C655 C659 1.460 . S
C655 H661 0.929 . S
N656 Mn649 2.257 . S
N656 C655 1.326 . S
N656 C660 1.362 . S
C657 C658 1.258 . S
C657 C660 1.431 . S
C657 C677 1.449 . S
C658 C657 1.258 . S
C658 C659 1.477 . S
C658 H678 0.931 . S
C659 C655 1.460 . S
C659 C658 1.477 . S
C659 H679 0.930 . S
C660 N656 1.362 . S
C660 C657 1.431 . S
C660 C670 1.476 . S
H661 C655 0.929 . S
C662 O653 1.250 . S
C662 O654 1.258 . S
O663 Mn648 2.162 . S
O663 C651 1.281 . S
O664 Mn648 2.297 . S
O664 C651 1.236 . S
N665 Mn649 2.282 . S
N665 C666 1.328 . S
N665 C670 1.318 . S
C666 N665 1.328 . S
C666 C667 1.457 . S
C666 H671 0.929 . S
C667 C666 1.457 . S
C667 C668 1.291 . S
C667 H680 0.931 . S
C668 C667 1.291 . S
C668 C669 1.373 . S
C668 H681 0.929 . S
C669 C668 1.373 . S
C669 C670 1.396 . S
C669 C676 1.403 . S
C670 C660 1.476 . S
C670 N665 1.318 . S
C670 C669 1.396 . S
H671 C666 0.929 . S
O672 Mn648 2.385 . S
O672 C650 1.234 . S
O673 Mn648 2.209 . S
O673 Mn649 2.215 . S
O673 C650 1.283 . S
O674 Mn648 2.094 . S
O674 C652 1.240 . S
O675 Mn649 2.117 . S
O675 C652 1.264 . S
C676 C669 1.403 . S
C676 C677 1.399 . S
C676 H682 0.929 . S
C677 C657 1.449 . S
C677 C676 1.399 . S
C677 H683 0.930 . S
H678 C658 0.931 . S
H679 C659 0.930 . S
H680 C667 0.931 . S
H681 C668 0.929 . S
H682 C676 0.929 . S
H683 C677 0.930 . S
Mn684 O689 2.095 . S
Mn684 O699 2.162 . S
Mn684 O700 2.297 . S
Mn684 O708 2.385 . S
Mn684 O709 2.209 . S
Mn684 O710 2.094 . S
Mn685 O690 2.121 . S
Mn685 N692 2.257 . S
Mn685 N701 2.282 . S
Mn685 O709 2.215 . S
Mn685 O711 2.117 . S
C686 O708 1.234 . S
C686 O709 1.283 . S
C687 O699 1.281 . S
C687 O700 1.236 . S
C688 O710 1.240 . S
C688 O711 1.264 . S
O689 Mn684 2.095 . S
O689 C698 1.250 . S
O690 Mn685 2.121 . S
O690 C698 1.258 . S
C691 N692 1.326 . S
C691 C695 1.460 . S
C691 H697 0.929 . S
N692 Mn685 2.257 . S
N692 C691 1.326 . S
N692 C696 1.362 . S
C693 C694 1.258 . S
C693 C696 1.431 . S
C693 C713 1.449 . S
C694 C693 1.258 . S
C694 C695 1.477 . S
C694 H714 0.931 . S
C695 C691 1.460 . S
C695 C694 1.477 . S
C695 H715 0.930 . S
C696 N692 1.362 . S
C696 C693 1.431 . S
C696 C706 1.476 . S
H697 C691 0.929 . S
C698 O689 1.250 . S
C698 O690 1.258 . S
O699 Mn684 2.162 . S
O699 C687 1.281 . S
O700 Mn684 2.297 . S
O700 C687 1.236 . S
N701 Mn685 2.282 . S
N701 C702 1.328 . S
N701 C706 1.318 . S
C702 N701 1.328 . S
C702 C703 1.457 . S
C702 H707 0.929 . S
C703 C702 1.457 . S
C703 C704 1.291 . S
C703 H716 0.931 . S
C704 C703 1.291 . S
C704 C705 1.373 . S
C704 H717 0.929 . S
C705 C704 1.373 . S
C705 C706 1.396 . S
C705 C712 1.403 . S
C706 C696 1.476 . S
C706 N701 1.318 . S
C706 C705 1.396 . S
H707 C702 0.929 . S
O708 Mn684 2.385 . S
O708 C686 1.234 . S
O709 Mn684 2.209 . S
O709 Mn685 2.215 . S
O709 C686 1.283 . S
O710 Mn684 2.094 . S
O710 C688 1.240 . S
O711 Mn685 2.117 . S
O711 C688 1.264 . S
C712 C705 1.403 . S
C712 C713 1.399 . S
C712 H718 0.929 . S
C713 C693 1.449 . S
C713 C712 1.399 . S
C713 H719 0.930 . S
H714 C694 0.931 . S
H715 C695 0.930 . S
H716 C703 0.931 . S
H717 C704 0.929 . S
H718 C712 0.929 . S
H719 C713 0.930 . S
Mn720 O725 2.095 . S
Mn720 O735 2.162 . S
Mn720 O736 2.297 . S
Mn720 O744 2.385 . S
Mn720 O745 2.209 . S
Mn720 O746 2.094 . S
Mn721 O726 2.121 . S
Mn721 N728 2.257 . S
Mn721 N737 2.282 . S
Mn721 O745 2.215 . S
Mn721 O747 2.117 . S
C722 O744 1.234 . S
C722 O745 1.283 . S
C723 O735 1.281 . S
C723 O736 1.236 . S
C724 O746 1.240 . S
C724 O747 1.264 . S
O725 Mn720 2.095 . S
O725 C734 1.250 . S
O726 Mn721 2.121 . S
O726 C734 1.258 . S
C727 N728 1.326 . S
C727 C731 1.460 . S
C727 H733 0.929 . S
N728 Mn721 2.257 . S
N728 C727 1.326 . S
N728 C732 1.362 . S
C729 C730 1.258 . S
C729 C732 1.431 . S
C729 C749 1.449 . S
C730 C729 1.258 . S
C730 C731 1.477 . S
C730 H750 0.931 . S
C731 C727 1.460 . S
C731 C730 1.477 . S
C731 H751 0.930 . S
C732 N728 1.362 . S
C732 C729 1.431 . S
C732 C742 1.476 . S
H733 C727 0.929 . S
C734 O725 1.250 . S
C734 O726 1.258 . S
O735 Mn720 2.162 . S
O735 C723 1.281 . S
O736 Mn720 2.297 . S
O736 C723 1.236 . S
N737 Mn721 2.282 . S
N737 C738 1.328 . S
N737 C742 1.318 . S
C738 N737 1.328 . S
C738 C739 1.457 . S
C738 H743 0.929 . S
C739 C738 1.457 . S
C739 C740 1.291 . S
C739 H752 0.931 . S
C740 C739 1.291 . S
C740 C741 1.373 . S
C740 H753 0.929 . S
C741 C740 1.373 . S
C741 C742 1.396 . S
C741 C748 1.403 . S
C742 C732 1.476 . S
C742 N737 1.318 . S
C742 C741 1.396 . S
H743 C738 0.929 . S
O744 Mn720 2.385 . S
O744 C722 1.234 . S
O745 Mn720 2.209 . S
O745 Mn721 2.215 . S
O745 C722 1.283 . S
O746 Mn720 2.094 . S
O746 C724 1.240 . S
O747 Mn721 2.117 . S
O747 C724 1.264 . S
C748 C741 1.403 . S
C748 C749 1.399 . S
C748 H754 0.929 . S
C749 C729 1.449 . S
C749 C748 1.399 . S
C749 H755 0.930 . S
H750 C730 0.931 . S
H751 C731 0.930 . S
H752 C739 0.931 . S
H753 C740 0.929 . S
H754 C748 0.929 . S
H755 C749 0.930 . S
Mn756 O761 2.095 . S
Mn756 O771 2.162 . S
Mn756 O772 2.297 . S
Mn756 O780 2.385 . S
Mn756 O781 2.209 . S
Mn756 O782 2.094 . S
Mn757 O762 2.121 . S
Mn757 N764 2.257 . S
Mn757 N773 2.282 . S
Mn757 O781 2.215 . S
Mn757 O783 2.117 . S
C758 O780 1.234 . S
C758 O781 1.283 . S
C759 O771 1.281 . S
C759 O772 1.236 . S
C760 O782 1.240 . S
C760 O783 1.264 . S
O761 Mn756 2.095 . S
O761 C770 1.250 . S
O762 Mn757 2.121 . S
O762 C770 1.258 . S
C763 N764 1.326 . S
C763 C767 1.460 . S
C763 H769 0.929 . S
N764 Mn757 2.257 . S
N764 C763 1.326 . S
N764 C768 1.362 . S
C765 C766 1.258 . S
C765 C768 1.431 . S
C765 C785 1.449 . S
C766 C765 1.258 . S
C766 C767 1.477 . S
C766 H786 0.931 . S
C767 C763 1.460 . S
C767 C766 1.477 . S
C767 H787 0.930 . S
C768 N764 1.362 . S
C768 C765 1.431 . S
C768 C778 1.476 . S
H769 C763 0.929 . S
C770 O761 1.250 . S
C770 O762 1.258 . S
O771 Mn756 2.162 . S
O771 C759 1.281 . S
O772 Mn756 2.297 . S
O772 C759 1.236 . S
N773 Mn757 2.282 . S
N773 C774 1.328 . S
N773 C778 1.318 . S
C774 N773 1.328 . S
C774 C775 1.457 . S
C774 H779 0.929 . S
C775 C774 1.457 . S
C775 C776 1.291 . S
C775 H788 0.931 . S
C776 C775 1.291 . S
C776 C777 1.373 . S
C776 H789 0.929 . S
C777 C776 1.373 . S
C777 C778 1.396 . S
C777 C784 1.403 . S
C778 C768 1.476 . S
C778 N773 1.318 . S
C778 C777 1.396 . S
H779 C774 0.929 . S
O780 Mn756 2.385 . S
O780 C758 1.234 . S
O781 Mn756 2.209 . S
O781 Mn757 2.215 . S
O781 C758 1.283 . S
O782 Mn756 2.094 . S
O782 C760 1.240 . S
O783 Mn757 2.117 . S
O783 C760 1.264 . S
C784 C777 1.403 . S
C784 C785 1.399 . S
C784 H790 0.929 . S
C785 C765 1.449 . S
C785 C784 1.399 . S
C785 H791 0.930 . S
H786 C766 0.931 . S
H787 C767 0.930 . S
H788 C775 0.931 . S
H789 C776 0.929 . S
H790 C784 0.929 . S
H791 C785 0.930 . S
Mn792 O797 2.095 . S
Mn792 O807 2.162 . S
Mn792 O808 2.297 . S
Mn792 O816 2.385 . S
Mn792 O817 2.209 . S
Mn792 O818 2.094 . S
Mn793 O798 2.121 . S
Mn793 N800 2.257 . S
Mn793 N809 2.282 . S
Mn793 O817 2.215 . S
Mn793 O819 2.117 . S
C794 O816 1.234 . S
C794 O817 1.283 . S
C795 O807 1.281 . S
C795 O808 1.236 . S
C796 O818 1.240 . S
C796 O819 1.264 . S
O797 Mn792 2.095 . S
O797 C806 1.250 . S
O798 Mn793 2.121 . S
O798 C806 1.258 . S
C799 N800 1.326 . S
C799 C803 1.460 . S
C799 H805 0.929 . S
N800 Mn793 2.257 . S
N800 C799 1.326 . S
N800 C804 1.362 . S
C801 C802 1.258 . S
C801 C804 1.431 . S
C801 C821 1.449 . S
C802 C801 1.258 . S
C802 C803 1.477 . S
C802 H822 0.931 . S
C803 C799 1.460 . S
C803 C802 1.477 . S
C803 H823 0.930 . S
C804 N800 1.362 . S
C804 C801 1.431 . S
C804 C814 1.476 . S
H805 C799 0.929 . S
C806 O797 1.250 . S
C806 O798 1.258 . S
O807 Mn792 2.162 . S
O807 C795 1.281 . S
O808 Mn792 2.297 . S
O808 C795 1.236 . S
N809 Mn793 2.282 . S
N809 C810 1.328 . S
N809 C814 1.318 . S
C810 N809 1.328 . S
C810 C811 1.457 . S
C810 H815 0.929 . S
C811 C810 1.457 . S
C811 C812 1.291 . S
C811 H824 0.931 . S
C812 C811 1.291 . S
C812 C813 1.373 . S
C812 H825 0.929 . S
C813 C812 1.373 . S
C813 C814 1.396 . S
C813 C820 1.403 . S
C814 C804 1.476 . S
C814 N809 1.318 . S
C814 C813 1.396 . S
H815 C810 0.929 . S
O816 Mn792 2.385 . S
O816 C794 1.234 . S
O817 Mn792 2.209 . S
O817 Mn793 2.215 . S
O817 C794 1.283 . S
O818 Mn792 2.094 . S
O818 C796 1.240 . S
O819 Mn793 2.117 . S
O819 C796 1.264 . S
C820 C813 1.403 . S
C820 C821 1.399 . S
C820 H826 0.929 . S
C821 C801 1.449 . S
C821 C820 1.399 . S
C821 H827 0.930 . S
H822 C802 0.931 . S
H823 C803 0.930 . S
H824 C811 0.931 . S
H825 C812 0.929 . S
H826 C820 0.929 . S
H827 C821 0.930 . S
Mn828 O833 2.095 . S
Mn828 O843 2.162 . S
Mn828 O844 2.297 . S
Mn828 O852 2.385 . S
Mn828 O853 2.209 . S
Mn828 O854 2.094 . S
Mn829 O834 2.121 . S
Mn829 N836 2.257 . S
Mn829 N845 2.282 . S
Mn829 O853 2.215 . S
Mn829 O855 2.117 . S
C830 O852 1.234 . S
C830 O853 1.283 . S
C831 O843 1.281 . S
C831 O844 1.236 . S
C832 O854 1.240 . S
C832 O855 1.264 . S
O833 Mn828 2.095 . S
O833 C842 1.250 . S
O834 Mn829 2.121 . S
O834 C842 1.258 . S
C835 N836 1.326 . S
C835 C839 1.460 . S
C835 H841 0.929 . S
N836 Mn829 2.257 . S
N836 C835 1.326 . S
N836 C840 1.362 . S
C837 C838 1.258 . S
C837 C840 1.431 . S
C837 C857 1.449 . S
C838 C837 1.258 . S
C838 C839 1.477 . S
C838 H858 0.931 . S
C839 C835 1.460 . S
C839 C838 1.477 . S
C839 H859 0.930 . S
C840 N836 1.362 . S
C840 C837 1.431 . S
C840 C850 1.476 . S
H841 C835 0.929 . S
C842 O833 1.250 . S
C842 O834 1.258 . S
O843 Mn828 2.162 . S
O843 C831 1.281 . S
O844 Mn828 2.297 . S
O844 C831 1.236 . S
N845 Mn829 2.282 . S
N845 C846 1.328 . S
N845 C850 1.318 . S
C846 N845 1.328 . S
C846 C847 1.457 . S
C846 H851 0.929 . S
C847 C846 1.457 . S
C847 C848 1.291 . S
C847 H860 0.931 . S
C848 C847 1.291 . S
C848 C849 1.373 . S
C848 H861 0.929 . S
C849 C848 1.373 . S
C849 C850 1.396 . S
C849 C856 1.403 . S
C850 C840 1.476 . S
C850 N845 1.318 . S
C850 C849 1.396 . S
H851 C846 0.929 . S
O852 Mn828 2.385 . S
O852 C830 1.234 . S
O853 Mn828 2.209 . S
O853 Mn829 2.215 . S
O853 C830 1.283 . S
O854 Mn828 2.094 . S
O854 C832 1.240 . S
O855 Mn829 2.117 . S
O855 C832 1.264 . S
C856 C849 1.403 . S
C856 C857 1.399 . S
C856 H862 0.929 . S
C857 C837 1.449 . S
C857 C856 1.399 . S
C857 H863 0.930 . S
H858 C838 0.931 . S
H859 C839 0.930 . S
H860 C847 0.931 . S
H861 C848 0.929 . S
H862 C856 0.929 . S
H863 C857 0.930 . S
Mn864 O869 2.095 . S
Mn864 O879 2.162 . S
Mn864 O880 2.297 . S
Mn864 O888 2.385 . S
Mn864 O889 2.209 . S
Mn864 O890 2.094 . S
Mn865 O870 2.121 . S
Mn865 N872 2.257 . S
Mn865 N881 2.282 . S
Mn865 O889 2.215 . S
Mn865 O891 2.117 . S
C866 O888 1.234 . S
C866 O889 1.283 . S
C867 O879 1.281 . S
C867 O880 1.236 . S
C868 O890 1.240 . S
C868 O891 1.264 . S
O869 Mn864 2.095 . S
O869 C878 1.250 . S
O870 Mn865 2.121 . S
O870 C878 1.258 . S
C871 N872 1.326 . S
C871 C875 1.460 . S
C871 H877 0.929 . S
N872 Mn865 2.257 . S
N872 C871 1.326 . S
N872 C876 1.362 . S
C873 C874 1.258 . S
C873 C876 1.431 . S
C873 C893 1.449 . S
C874 C873 1.258 . S
C874 C875 1.477 . S
C874 H894 0.931 . S
C875 C871 1.460 . S
C875 C874 1.477 . S
C875 H895 0.930 . S
C876 N872 1.362 . S
C876 C873 1.431 . S
C876 C886 1.476 . S
H877 C871 0.929 . S
C878 O869 1.250 . S
C878 O870 1.258 . S
O879 Mn864 2.162 . S
O879 C867 1.281 . S
O880 Mn864 2.297 . S
O880 C867 1.236 . S
N881 Mn865 2.282 . S
N881 C882 1.328 . S
N881 C886 1.318 . S
C882 N881 1.328 . S
C882 C883 1.457 . S
C882 H887 0.929 . S
C883 C882 1.457 . S
C883 C884 1.291 . S
C883 H896 0.931 . S
C884 C883 1.291 . S
C884 C885 1.373 . S
C884 H897 0.929 . S
C885 C884 1.373 . S
C885 C886 1.396 . S
C885 C892 1.403 . S
C886 C876 1.476 . S
C886 N881 1.318 . S
C886 C885 1.396 . S
H887 C882 0.929 . S
O888 Mn864 2.385 . S
O888 C866 1.234 . S
O889 Mn864 2.209 . S
O889 Mn865 2.215 . S
O889 C866 1.283 . S
O890 Mn864 2.094 . S
O890 C868 1.240 . S
O891 Mn865 2.117 . S
O891 C868 1.264 . S
C892 C885 1.403 . S
C892 C893 1.399 . S
C892 H898 0.929 . S
C893 C873 1.449 . S
C893 C892 1.399 . S
C893 H899 0.930 . S
H894 C874 0.931 . S
H895 C875 0.930 . S
H896 C883 0.931 . S
H897 C884 0.929 . S
H898 C892 0.929 . S
H899 C893 0.930 . S
Mn900 O905 2.095 . S
Mn900 O915 2.162 . S
Mn900 O916 2.297 . S
Mn900 O924 2.385 . S
Mn900 O925 2.209 . S
Mn900 O926 2.094 . S
Mn901 O906 2.121 . S
Mn901 N908 2.257 . S
Mn901 N917 2.282 . S
Mn901 O925 2.215 . S
Mn901 O927 2.117 . S
C902 O924 1.234 . S
C902 O925 1.283 . S
C903 O915 1.281 . S
C903 O916 1.236 . S
C904 O926 1.240 . S
C904 O927 1.264 . S
O905 Mn900 2.095 . S
O905 C914 1.250 . S
O906 Mn901 2.121 . S
O906 C914 1.258 . S
C907 N908 1.326 . S
C907 C911 1.460 . S
C907 H913 0.929 . S
N908 Mn901 2.257 . S
N908 C907 1.326 . S
N908 C912 1.362 . S
C909 C910 1.258 . S
C909 C912 1.431 . S
C909 C929 1.449 . S
C910 C909 1.258 . S
C910 C911 1.477 . S
C910 H930 0.931 . S
C911 C907 1.460 . S
C911 C910 1.477 . S
C911 H931 0.930 . S
C912 N908 1.362 . S
C912 C909 1.431 . S
C912 C922 1.476 . S
H913 C907 0.929 . S
C914 O905 1.250 . S
C914 O906 1.258 . S
O915 Mn900 2.162 . S
O915 C903 1.281 . S
O916 Mn900 2.297 . S
O916 C903 1.236 . S
N917 Mn901 2.282 . S
N917 C918 1.328 . S
N917 C922 1.318 . S
C918 N917 1.328 . S
C918 C919 1.457 . S
C918 H923 0.929 . S
C919 C918 1.457 . S
C919 C920 1.291 . S
C919 H932 0.931 . S
C920 C919 1.291 . S
C920 C921 1.373 . S
C920 H933 0.929 . S
C921 C920 1.373 . S
C921 C922 1.396 . S
C921 C928 1.403 . S
C922 C912 1.476 . S
C922 N917 1.318 . S
C922 C921 1.396 . S
H923 C918 0.929 . S
O924 Mn900 2.385 . S
O924 C902 1.234 . S
O925 Mn900 2.209 . S
O925 Mn901 2.215 . S
O925 C902 1.283 . S
O926 Mn900 2.094 . S
O926 C904 1.240 . S
O927 Mn901 2.117 . S
O927 C904 1.264 . S
C928 C921 1.403 . S
C928 C929 1.399 . S
C928 H934 0.929 . S
C929 C909 1.449 . S
C929 C928 1.399 . S
C929 H935 0.930 . S
H930 C910 0.931 . S
H931 C911 0.930 . S
H932 C919 0.931 . S
H933 C920 0.929 . S
H934 C928 0.929 . S
H935 C929 0.930 . S
Mn936 O941 2.095 . S
Mn936 O951 2.162 . S
Mn936 O952 2.297 . S
Mn936 O960 2.385 . S
Mn936 O961 2.209 . S
Mn936 O962 2.094 . S
Mn937 O942 2.121 . S
Mn937 N944 2.257 . S
Mn937 N953 2.282 . S
Mn937 O961 2.215 . S
Mn937 O963 2.117 . S
C938 O960 1.234 . S
C938 O961 1.283 . S
C939 O951 1.281 . S
C939 O952 1.236 . S
C940 O962 1.240 . S
C940 O963 1.264 . S
O941 Mn936 2.095 . S
O941 C950 1.250 . S
O942 Mn937 2.121 . S
O942 C950 1.258 . S
C943 N944 1.326 . S
C943 C947 1.460 . S
C943 H949 0.929 . S
N944 Mn937 2.257 . S
N944 C943 1.326 . S
N944 C948 1.362 . S
C945 C946 1.258 . S
C945 C948 1.431 . S
C945 C965 1.449 . S
C946 C945 1.258 . S
C946 C947 1.477 . S
C946 H966 0.931 . S
C947 C943 1.460 . S
C947 C946 1.477 . S
C947 H967 0.930 . S
C948 N944 1.362 . S
C948 C945 1.431 . S
C948 C958 1.476 . S
H949 C943 0.929 . S
C950 O941 1.250 . S
C950 O942 1.258 . S
O951 Mn936 2.162 . S
O951 C939 1.281 . S
O952 Mn936 2.297 . S
O952 C939 1.236 . S
N953 Mn937 2.282 . S
N953 C954 1.328 . S
N953 C958 1.318 . S
C954 N953 1.328 . S
C954 C955 1.457 . S
C954 H959 0.929 . S
C955 C954 1.457 . S
C955 C956 1.291 . S
C955 H968 0.931 . S
C956 C955 1.291 . S
C956 C957 1.373 . S
C956 H969 0.929 . S
C957 C956 1.373 . S
C957 C958 1.396 . S
C957 C964 1.403 . S
C958 C948 1.476 . S
C958 N953 1.318 . S
C958 C957 1.396 . S
H959 C954 0.929 . S
O960 Mn936 2.385 . S
O960 C938 1.234 . S
O961 Mn936 2.209 . S
O961 Mn937 2.215 . S
O961 C938 1.283 . S
O962 Mn936 2.094 . S
O962 C940 1.240 . S
O963 Mn937 2.117 . S
O963 C940 1.264 . S
C964 C957 1.403 . S
C964 C965 1.399 . S
C964 H970 0.929 . S
C965 C945 1.449 . S
C965 C964 1.399 . S
C965 H971 0.930 . S
H966 C946 0.931 . S
H967 C947 0.930 . S
H968 C955 0.931 . S
H969 C956 0.929 . S
H970 C964 0.929 . S
H971 C965 0.930 . S
Mn972 O977 2.095 . S
Mn972 O987 2.162 . S
Mn972 O988 2.297 . S
Mn972 O996 2.385 . S
Mn972 O997 2.209 . S
Mn972 O998 2.094 . S
Mn973 O978 2.121 . S
Mn973 N980 2.257 . S
Mn973 N989 2.282 . S
Mn973 O997 2.215 . S
Mn973 O999 2.117 . S
C974 O996 1.234 . S
C974 O997 1.283 . S
C975 O987 1.281 . S
C975 O988 1.236 . S
C976 O998 1.240 . S
C976 O999 1.264 . S
O977 Mn972 2.095 . S
O977 C986 1.250 . S
O978 Mn973 2.121 . S
O978 C986 1.258 . S
C979 N980 1.326 . S
C979 C983 1.460 . S
C979 H985 0.929 . S
N980 Mn973 2.257 . S
N980 C979 1.326 . S
N980 C984 1.362 . S
C981 C982 1.258 . S
C981 C984 1.431 . S
C981 C1001 1.449 . S
C982 C981 1.258 . S
C982 C983 1.477 . S
C982 H1002 0.931 . S
C983 C979 1.460 . S
C983 C982 1.477 . S
C983 H1003 0.930 . S
C984 N980 1.362 . S
C984 C981 1.431 . S
C984 C994 1.476 . S
H985 C979 0.929 . S
C986 O977 1.250 . S
C986 O978 1.258 . S
O987 Mn972 2.162 . S
O987 C975 1.281 . S
O988 Mn972 2.297 . S
O988 C975 1.236 . S
N989 Mn973 2.282 . S
N989 C990 1.328 . S
N989 C994 1.318 . S
C990 N989 1.328 . S
C990 C991 1.457 . S
C990 H995 0.929 . S
C991 C990 1.457 . S
C991 C992 1.291 . S
C991 H1004 0.931 . S
C992 C991 1.291 . S
C992 C993 1.373 . S
C992 H1005 0.929 . S
C993 C992 1.373 . S
C993 C994 1.396 . S
C993 C1000 1.403 . S
C994 C984 1.476 . S
C994 N989 1.318 . S
C994 C993 1.396 . S
H995 C990 0.929 . S
O996 Mn972 2.385 . S
O996 C974 1.234 . S
O997 Mn972 2.209 . S
O997 Mn973 2.215 . S
O997 C974 1.283 . S
O998 Mn972 2.094 . S
O998 C976 1.240 . S
O999 Mn973 2.117 . S
O999 C976 1.264 . S
C1000 C993 1.403 . S
C1000 C1001 1.399 . S
C1000 H1006 0.929 . S
C1001 C981 1.449 . S
C1001 C1000 1.399 . S
C1001 H1007 0.930 . S
H1002 C982 0.931 . S
H1003 C983 0.930 . S
H1004 C991 0.931 . S
H1005 C992 0.929 . S
H1006 C1000 0.929 . S
H1007 C1001 0.930 . S
Mn1008 O1013 2.095 . S
Mn1008 O1023 2.162 . S
Mn1008 O1024 2.297 . S
Mn1008 O1032 2.385 . S
Mn1008 O1033 2.209 . S
Mn1008 O1034 2.094 . S
Mn1009 O1014 2.121 . S
Mn1009 N1016 2.257 . S
Mn1009 N1025 2.282 . S
Mn1009 O1033 2.215 . S
Mn1009 O1035 2.117 . S
C1010 O1032 1.234 . S
C1010 O1033 1.283 . S
C1011 O1023 1.281 . S
C1011 O1024 1.236 . S
C1012 O1034 1.240 . S
C1012 O1035 1.264 . S
O1013 Mn1008 2.095 . S
O1013 C1022 1.250 . S
O1014 Mn1009 2.121 . S
O1014 C1022 1.258 . S
C1015 N1016 1.326 . S
C1015 C1019 1.460 . S
C1015 H1021 0.929 . S
N1016 Mn1009 2.257 . S
N1016 C1015 1.326 . S
N1016 C1020 1.362 . S
C1017 C1018 1.258 . S
C1017 C1020 1.431 . S
C1017 C1037 1.449 . S
C1018 C1017 1.258 . S
C1018 C1019 1.477 . S
C1018 H1038 0.931 . S
C1019 C1015 1.460 . S
C1019 C1018 1.477 . S
C1019 H1039 0.930 . S
C1020 N1016 1.362 . S
C1020 C1017 1.431 . S
C1020 C1030 1.476 . S
H1021 C1015 0.929 . S
C1022 O1013 1.250 . S
C1022 O1014 1.258 . S
O1023 Mn1008 2.162 . S
O1023 C1011 1.281 . S
O1024 Mn1008 2.297 . S
O1024 C1011 1.236 . S
N1025 Mn1009 2.282 . S
N1025 C1026 1.328 . S
N1025 C1030 1.318 . S
C1026 N1025 1.328 . S
C1026 C1027 1.457 . S
C1026 H1031 0.929 . S
C1027 C1026 1.457 . S
C1027 C1028 1.291 . S
C1027 H1040 0.931 . S
C1028 C1027 1.291 . S
C1028 C1029 1.373 . S
C1028 H1041 0.929 . S
C1029 C1028 1.373 . S
C1029 C1030 1.396 . S
C1029 C1036 1.403 . S
C1030 C1020 1.476 . S
C1030 N1025 1.318 . S
C1030 C1029 1.396 . S
H1031 C1026 0.929 . S
O1032 Mn1008 2.385 . S
O1032 C1010 1.234 . S
O1033 Mn1008 2.209 . S
O1033 Mn1009 2.215 . S
O1033 C1010 1.283 . S
O1034 Mn1008 2.094 . S
O1034 C1012 1.240 . S
O1035 Mn1009 2.117 . S
O1035 C1012 1.264 . S
C1036 C1029 1.403 . S
C1036 C1037 1.399 . S
C1036 H1042 0.929 . S
C1037 C1017 1.449 . S
C1037 C1036 1.399 . S
C1037 H1043 0.930 . S
H1038 C1018 0.931 . S
H1039 C1019 0.930 . S
H1040 C1027 0.931 . S
H1041 C1028 0.929 . S
H1042 C1036 0.929 . S
H1043 C1037 0.930 . S
Mn1044 O1049 2.095 . S
Mn1044 O1059 2.162 . S
Mn1044 O1060 2.297 . S
Mn1044 O1068 2.385 . S
Mn1044 O1069 2.209 . S
Mn1044 O1070 2.094 . S
Mn1045 O1050 2.121 . S
Mn1045 N1052 2.257 . S
Mn1045 N1061 2.282 . S
Mn1045 O1069 2.215 . S
Mn1045 O1071 2.117 . S
C1046 O1068 1.234 . S
C1046 O1069 1.283 . S
C1047 O1059 1.281 . S
C1047 O1060 1.236 . S
C1048 O1070 1.240 . S
C1048 O1071 1.264 . S
O1049 Mn1044 2.095 . S
O1049 C1058 1.250 . S
O1050 Mn1045 2.121 . S
O1050 C1058 1.258 . S
C1051 N1052 1.326 . S
C1051 C1055 1.460 . S
C1051 H1057 0.929 . S
N1052 Mn1045 2.257 . S
N1052 C1051 1.326 . S
N1052 C1056 1.362 . S
C1053 C1054 1.258 . S
C1053 C1056 1.431 . S
C1053 C1073 1.449 . S
C1054 C1053 1.258 . S
C1054 C1055 1.477 . S
C1054 H1074 0.931 . S
C1055 C1051 1.460 . S
C1055 C1054 1.477 . S
C1055 H1075 0.930 . S
C1056 N1052 1.362 . S
C1056 C1053 1.431 . S
C1056 C1066 1.476 . S
H1057 C1051 0.929 . S
C1058 O1049 1.250 . S
C1058 O1050 1.258 . S
O1059 Mn1044 2.162 . S
O1059 C1047 1.281 . S
O1060 Mn1044 2.297 . S
O1060 C1047 1.236 . S
N1061 Mn1045 2.282 . S
N1061 C1062 1.328 . S
N1061 C1066 1.318 . S
C1062 N1061 1.328 . S
C1062 C1063 1.457 . S
C1062 H1067 0.929 . S
C1063 C1062 1.457 . S
C1063 C1064 1.291 . S
C1063 H1076 0.931 . S
C1064 C1063 1.291 . S
C1064 C1065 1.373 . S
C1064 H1077 0.929 . S
C1065 C1064 1.373 . S
C1065 C1066 1.396 . S
C1065 C1072 1.403 . S
C1066 C1056 1.476 . S
C1066 N1061 1.318 . S
C1066 C1065 1.396 . S
H1067 C1062 0.929 . S
O1068 Mn1044 2.385 . S
O1068 C1046 1.234 . S
O1069 Mn1044 2.209 . S
O1069 Mn1045 2.215 . S
O1069 C1046 1.283 . S
O1070 Mn1044 2.094 . S
O1070 C1048 1.240 . S
O1071 Mn1045 2.117 . S
O1071 C1048 1.264 . S
C1072 C1065 1.403 . S
C1072 C1073 1.399 . S
C1072 H1078 0.929 . S
C1073 C1053 1.449 . S
C1073 C1072 1.399 . S
C1073 H1079 0.930 . S
H1074 C1054 0.931 . S
H1075 C1055 0.930 . S
H1076 C1063 0.931 . S
H1077 C1064 0.929 . S
H1078 C1072 0.929 . S
H1079 C1073 0.930 . S
Mn1080 O1085 2.095 . S
Mn1080 O1095 2.162 . S
Mn1080 O1096 2.297 . S
Mn1080 O1104 2.385 . S
Mn1080 O1105 2.209 . S
Mn1080 O1106 2.094 . S
Mn1081 O1086 2.121 . S
Mn1081 N1088 2.257 . S
Mn1081 N1097 2.282 . S
Mn1081 O1105 2.215 . S
Mn1081 O1107 2.117 . S
C1082 O1104 1.234 . S
C1082 O1105 1.283 . S
C1083 O1095 1.281 . S
C1083 O1096 1.236 . S
C1084 O1106 1.240 . S
C1084 O1107 1.264 . S
O1085 Mn1080 2.095 . S
O1085 C1094 1.250 . S
O1086 Mn1081 2.121 . S
O1086 C1094 1.258 . S
C1087 N1088 1.326 . S
C1087 C1091 1.460 . S
C1087 H1093 0.929 . S
N1088 Mn1081 2.257 . S
N1088 C1087 1.326 . S
N1088 C1092 1.362 . S
C1089 C1090 1.258 . S
C1089 C1092 1.431 . S
C1089 C1109 1.449 . S
C1090 C1089 1.258 . S
C1090 C1091 1.477 . S
C1090 H1110 0.931 . S
C1091 C1087 1.460 . S
C1091 C1090 1.477 . S
C1091 H1111 0.930 . S
C1092 N1088 1.362 . S
C1092 C1089 1.431 . S
C1092 C1102 1.476 . S
H1093 C1087 0.929 . S
C1094 O1085 1.250 . S
C1094 O1086 1.258 . S
O1095 Mn1080 2.162 . S
O1095 C1083 1.281 . S
O1096 Mn1080 2.297 . S
O1096 C1083 1.236 . S
N1097 Mn1081 2.282 . S
N1097 C1098 1.328 . S
N1097 C1102 1.318 . S
C1098 N1097 1.328 . S
C1098 C1099 1.457 . S
C1098 H1103 0.929 . S
C1099 C1098 1.457 . S
C1099 C1100 1.291 . S
C1099 H1112 0.931 . S
C1100 C1099 1.291 . S
C1100 C1101 1.373 . S
C1100 H1113 0.929 . S
C1101 C1100 1.373 . S
C1101 C1102 1.396 . S
C1101 C1108 1.403 . S
C1102 C1092 1.476 . S
C1102 N1097 1.318 . S
C1102 C1101 1.396 . S
H1103 C1098 0.929 . S
O1104 Mn1080 2.385 . S
O1104 C1082 1.234 . S
O1105 Mn1080 2.209 . S
O1105 Mn1081 2.215 . S
O1105 C1082 1.283 . S
O1106 Mn1080 2.094 . S
O1106 C1084 1.240 . S
O1107 Mn1081 2.117 . S
O1107 C1084 1.264 . S
C1108 C1101 1.403 . S
C1108 C1109 1.399 . S
C1108 H1114 0.929 . S
C1109 C1089 1.449 . S
C1109 C1108 1.399 . S
C1109 H1115 0.930 . S
H1110 C1090 0.931 . S
H1111 C1091 0.930 . S
H1112 C1099 0.931 . S
H1113 C1100 0.929 . S
H1114 C1108 0.929 . S
H1115 C1109 0.930 . S
Mn1116 O1121 2.095 . S
Mn1116 O1131 2.162 . S
Mn1116 O1132 2.297 . S
Mn1116 O1140 2.385 . S
Mn1116 O1141 2.209 . S
Mn1116 O1142 2.094 . S
Mn1117 O1122 2.121 . S
Mn1117 N1124 2.257 . S
Mn1117 N1133 2.282 . S
Mn1117 O1141 2.215 . S
Mn1117 O1143 2.117 . S
C1118 O1140 1.234 . S
C1118 O1141 1.283 . S
C1119 O1131 1.281 . S
C1119 O1132 1.236 . S
C1120 O1142 1.240 . S
C1120 O1143 1.264 . S
O1121 Mn1116 2.095 . S
O1121 C1130 1.250 . S
O1122 Mn1117 2.121 . S
O1122 C1130 1.258 . S
C1123 N1124 1.326 . S
C1123 C1127 1.460 . S
C1123 H1129 0.929 . S
N1124 Mn1117 2.257 . S
N1124 C1123 1.326 . S
N1124 C1128 1.362 . S
C1125 C1126 1.258 . S
C1125 C1128 1.431 . S
C1125 C1145 1.449 . S
C1126 C1125 1.258 . S
C1126 C1127 1.477 . S
C1126 H1146 0.931 . S
C1127 C1123 1.460 . S
C1127 C1126 1.477 . S
C1127 H1147 0.930 . S
C1128 N1124 1.362 . S
C1128 C1125 1.431 . S
C1128 C1138 1.476 . S
H1129 C1123 0.929 . S
C1130 O1121 1.250 . S
C1130 O1122 1.258 . S
O1131 Mn1116 2.162 . S
O1131 C1119 1.281 . S
O1132 Mn1116 2.297 . S
O1132 C1119 1.236 . S
N1133 Mn1117 2.282 . S
N1133 C1134 1.328 . S
N1133 C1138 1.318 . S
C1134 N1133 1.328 . S
C1134 C1135 1.457 . S
C1134 H1139 0.929 . S
C1135 C1134 1.457 . S
C1135 C1136 1.291 . S
C1135 H1148 0.931 . S
C1136 C1135 1.291 . S
C1136 C1137 1.373 . S
C1136 H1149 0.929 . S
C1137 C1136 1.373 . S
C1137 C1138 1.396 . S
C1137 C1144 1.403 . S
C1138 C1128 1.476 . S
C1138 N1133 1.318 . S
C1138 C1137 1.396 . S
H1139 C1134 0.929 . S
O1140 Mn1116 2.385 . S
O1140 C1118 1.234 . S
O1141 Mn1116 2.209 . S
O1141 Mn1117 2.215 . S
O1141 C1118 1.283 . S
O1142 Mn1116 2.094 . S
O1142 C1120 1.240 . S
O1143 Mn1117 2.117 . S
O1143 C1120 1.264 . S
C1144 C1137 1.403 . S
C1144 C1145 1.399 . S
C1144 H1150 0.929 . S
C1145 C1125 1.449 . S
C1145 C1144 1.399 . S
C1145 H1151 0.930 . S
H1146 C1126 0.931 . S
H1147 C1127 0.930 . S
H1148 C1135 0.931 . S
H1149 C1136 0.929 . S
H1150 C1144 0.929 . S
H1151 C1145 0.930 . S
H1152 C1160 0.929 . S
H1153 C1162 0.930 . S
H1154 C1164 0.930 . S
H1155 C1167 0.929 . S
H1156 C1170 0.930 . S
H1157 C1172 0.960 . S
H1158 C1172 0.960 . S
H1159 C1172 0.960 . S
C1160 H1152 0.929 . S
C1160 C1161 1.377 . S
C1160 C1162 1.384 . S
C1161 C1160 1.377 . S
C1161 C1167 1.390 . S
C1162 H1153 0.930 . S
C1162 C1160 1.384 . S
C1162 C1163 1.372 . S
C1163 C1162 1.372 . S
C1163 C1164 1.400 . S
C1163 C1168 1.490 . S
C1164 H1154 0.930 . S
C1164 C1163 1.400 . S
C1164 C1167 1.386 . S
H1165 C1181 0.930 . S
H1166 C1182 0.931 . S
C1167 H1155 0.929 . S
C1167 C1161 1.390 . S
C1167 C1164 1.386 . S
C1168 C1163 1.490 . S
C1168 C1170 1.395 . S
C1168 C1171 1.403 . S
H1169 C1175 0.930 . S
C1170 H1156 0.930 . S
C1170 C1168 1.395 . S
C1170 C1173 1.403 . S
C1171 C1168 1.403 . S
C1171 C1172 1.524 . S
C1171 C1175 1.400 . S
C1172 H1157 0.960 . S
C1172 H1158 0.960 . S
C1172 H1159 0.960 . S
C1172 C1171 1.524 . S
C1173 C1170 1.403 . S
C1173 C1174 1.392 . S
C1173 C1177 1.495 . S
C1174 C1173 1.392 . S
C1174 C1175 1.385 . S
C1174 C1176 1.478 . S
C1175 H1169 0.930 . S
C1175 C1171 1.400 . S
C1175 C1174 1.385 . S
C1176 C1174 1.478 . S
C1176 C1178 1.381 . S
C1176 C1182 1.383 . S
C1177 C1173 1.495 . S
C1177 H1183 0.959 . S
C1177 H1184 0.961 . S
C1177 H1185 0.960 . S
C1178 C1176 1.381 . S
C1178 C1179 1.394 . S
C1178 H1186 0.930 . S
C1179 C1178 1.394 . S
C1179 C1180 1.383 . S
C1179 H1187 0.929 . S
C1180 C1179 1.383 . S
C1180 C1181 1.377 . S
C1181 H1165 0.930 . S
C1181 C1180 1.377 . S
C1181 C1182 1.379 . S
C1182 H1166 0.931 . S
C1182 C1176 1.383 . S
C1182 C1181 1.379 . S
H1183 C1177 0.959 . S
H1184 C1177 0.961 . S
H1185 C1177 0.960 . S
H1186 C1178 0.930 . S
H1187 C1179 0.929 . S
H1188 C1196 0.929 . S
H1189 C1198 0.930 . S
H1190 C1200 0.930 . S
H1191 C1203 0.929 . S
H1192 C1206 0.930 . S
H1193 C1208 0.960 . S
H1194 C1208 0.960 . S
H1195 C1208 0.960 . S
C1196 H1188 0.929 . S
C1196 C1197 1.377 . S
C1196 C1198 1.384 . S
C1197 C1196 1.377 . S
C1197 C1203 1.390 . S
C1198 H1189 0.930 . S
C1198 C1196 1.384 . S
C1198 C1199 1.372 . S
C1199 C1198 1.372 . S
C1199 C1200 1.400 . S
C1199 C1204 1.490 . S
C1200 H1190 0.930 . S
C1200 C1199 1.400 . S
C1200 C1203 1.386 . S
H1201 C1217 0.930 . S
H1202 C1218 0.931 . S
C1203 H1191 0.929 . S
C1203 C1197 1.390 . S
C1203 C1200 1.386 . S
C1204 C1199 1.490 . S
C1204 C1206 1.395 . S
C1204 C1207 1.403 . S
H1205 C1211 0.930 . S
C1206 H1192 0.930 . S
C1206 C1204 1.395 . S
C1206 C1209 1.403 . S
C1207 C1204 1.403 . S
C1207 C1208 1.524 . S
C1207 C1211 1.400 . S
C1208 H1193 0.960 . S
C1208 H1194 0.960 . S
C1208 H1195 0.960 . S
C1208 C1207 1.524 . S
C1209 C1206 1.403 . S
C1209 C1210 1.392 . S
C1209 C1213 1.495 . S
C1210 C1209 1.392 . S
C1210 C1211 1.385 . S
C1210 C1212 1.478 . S
C1211 H1205 0.930 . S
C1211 C1207 1.400 . S
C1211 C1210 1.385 . S
C1212 C1210 1.478 . S
C1212 C1214 1.381 . S
C1212 C1218 1.383 . S
C1213 C1209 1.495 . S
C1213 H1219 0.959 . S
C1213 H1220 0.961 . S
C1213 H1221 0.960 . S
C1214 C1212 1.381 . S
C1214 C1215 1.394 . S
C1214 H1222 0.930 . S
C1215 C1214 1.394 . S
C1215 C1216 1.383 . S
C1215 H1223 0.929 . S
C1216 C1215 1.383 . S
C1216 C1217 1.377 . S
C1217 H1201 0.930 . S
C1217 C1216 1.377 . S
C1217 C1218 1.379 . S
C1218 H1202 0.931 . S
C1218 C1212 1.383 . S
C1218 C1217 1.379 . S
H1219 C1213 0.959 . S
H1220 C1213 0.961 . S
H1221 C1213 0.960 . S
H1222 C1214 0.930 . S
H1223 C1215 0.929 . S
H1224 C1232 0.929 . S
H1225 C1234 0.930 . S
H1226 C1236 0.930 . S
H1227 C1239 0.929 . S
H1228 C1242 0.930 . S
H1229 C1244 0.960 . S
H1230 C1244 0.960 . S
H1231 C1244 0.960 . S
C1232 H1224 0.929 . S
C1232 C1233 1.377 . S
C1232 C1234 1.384 . S
C1233 C1232 1.377 . S
C1233 C1239 1.390 . S
C1234 H1225 0.930 . S
C1234 C1232 1.384 . S
C1234 C1235 1.372 . S
C1235 C1234 1.372 . S
C1235 C1236 1.400 . S
C1235 C1240 1.490 . S
C1236 H1226 0.930 . S
C1236 C1235 1.400 . S
C1236 C1239 1.386 . S
H1237 C1253 0.930 . S
H1238 C1254 0.931 . S
C1239 H1227 0.929 . S
C1239 C1233 1.390 . S
C1239 C1236 1.386 . S
C1240 C1235 1.490 . S
C1240 C1242 1.395 . S
C1240 C1243 1.403 . S
H1241 C1247 0.930 . S
C1242 H1228 0.930 . S
C1242 C1240 1.395 . S
C1242 C1245 1.403 . S
C1243 C1240 1.403 . S
C1243 C1244 1.524 . S
C1243 C1247 1.400 . S
C1244 H1229 0.960 . S
C1244 H1230 0.960 . S
C1244 H1231 0.960 . S
C1244 C1243 1.524 . S
C1245 C1242 1.403 . S
C1245 C1246 1.392 . S
C1245 C1249 1.495 . S
C1246 C1245 1.392 . S
C1246 C1247 1.385 . S
C1246 C1248 1.478 . S
C1247 H1241 0.930 . S
C1247 C1243 1.400 . S
C1247 C1246 1.385 . S
C1248 C1246 1.478 . S
C1248 C1250 1.381 . S
C1248 C1254 1.383 . S
C1249 C1245 1.495 . S
C1249 H1255 0.959 . S
C1249 H1256 0.961 . S
C1249 H1257 0.960 . S
C1250 C1248 1.381 . S
C1250 C1251 1.394 . S
C1250 H1258 0.930 . S
C1251 C1250 1.394 . S
C1251 C1252 1.383 . S
C1251 H1259 0.929 . S
C1252 C1251 1.383 . S
C1252 C1253 1.377 . S
C1253 H1237 0.930 . S
C1253 C1252 1.377 . S
C1253 C1254 1.379 . S
C1254 H1238 0.931 . S
C1254 C1248 1.383 . S
C1254 C1253 1.379 . S
H1255 C1249 0.959 . S
H1256 C1249 0.961 . S
H1257 C1249 0.960 . S
H1258 C1250 0.930 . S
H1259 C1251 0.929 . S
H1260 C1268 0.929 . S
H1261 C1270 0.930 . S
H1262 C1272 0.930 . S
H1263 C1275 0.929 . S
H1264 C1278 0.930 . S
H1265 C1280 0.960 . S
H1266 C1280 0.960 . S
H1267 C1280 0.960 . S
C1268 H1260 0.929 . S
C1268 C1269 1.377 . S
C1268 C1270 1.384 . S
C1269 C1268 1.377 . S
C1269 C1275 1.390 . S
C1270 H1261 0.930 . S
C1270 C1268 1.384 . S
C1270 C1271 1.372 . S
C1271 C1270 1.372 . S
C1271 C1272 1.400 . S
C1271 C1276 1.490 . S
C1272 H1262 0.930 . S
C1272 C1271 1.400 . S
C1272 C1275 1.386 . S
H1273 C1289 0.930 . S
H1274 C1290 0.931 . S
C1275 H1263 0.929 . S
C1275 C1269 1.390 . S
C1275 C1272 1.386 . S
C1276 C1271 1.490 . S
C1276 C1278 1.395 . S
C1276 C1279 1.403 . S
H1277 C1283 0.930 . S
C1278 H1264 0.930 . S
C1278 C1276 1.395 . S
C1278 C1281 1.403 . S
C1279 C1276 1.403 . S
C1279 C1280 1.524 . S
C1279 C1283 1.400 . S
C1280 H1265 0.960 . S
C1280 H1266 0.960 . S
C1280 H1267 0.960 . S
C1280 C1279 1.524 . S
C1281 C1278 1.403 . S
C1281 C1282 1.392 . S
C1281 C1285 1.495 . S
C1282 C1281 1.392 . S
C1282 C1283 1.385 . S
C1282 C1284 1.478 . S
C1283 H1277 0.930 . S
C1283 C1279 1.400 . S
C1283 C1282 1.385 . S
C1284 C1282 1.478 . S
C1284 C1286 1.381 . S
C1284 C1290 1.383 . S
C1285 C1281 1.495 . S
C1285 H1291 0.959 . S
C1285 H1292 0.961 . S
C1285 H1293 0.960 . S
C1286 C1284 1.381 . S
C1286 C1287 1.394 . S
C1286 H1294 0.930 . S
C1287 C1286 1.394 . S
C1287 C1288 1.383 . S
C1287 H1295 0.929 . S
C1288 C1287 1.383 . S
C1288 C1289 1.377 . S
C1289 H1273 0.930 . S
C1289 C1288 1.377 . S
C1289 C1290 1.379 . S
C1290 H1274 0.931 . S
C1290 C1284 1.383 . S
C1290 C1289 1.379 . S
H1291 C1285 0.959 . S
H1292 C1285 0.961 . S
H1293 C1285 0.960 . S
H1294 C1286 0.930 . S
H1295 C1287 0.929 . S
H1296 C1304 0.929 . S
H1297 C1306 0.930 . S
H1298 C1308 0.930 . S
H1299 C1311 0.929 . S
H1300 C1314 0.930 . S
H1301 C1316 0.960 . S
H1302 C1316 0.960 . S
H1303 C1316 0.960 . S
C1304 H1296 0.929 . S
C1304 C1305 1.377 . S
C1304 C1306 1.384 . S
C1305 C1304 1.377 . S
C1305 C1311 1.390 . S
C1306 H1297 0.930 . S
C1306 C1304 1.384 . S
C1306 C1307 1.372 . S
C1307 C1306 1.372 . S
C1307 C1308 1.400 . S
C1307 C1312 1.490 . S
C1308 H1298 0.930 . S
C1308 C1307 1.400 . S
C1308 C1311 1.386 . S
H1309 C1325 0.930 . S
H1310 C1326 0.931 . S
C1311 H1299 0.929 . S
C1311 C1305 1.390 . S
C1311 C1308 1.386 . S
C1312 C1307 1.490 . S
C1312 C1314 1.395 . S
C1312 C1315 1.403 . S
H1313 C1319 0.930 . S
C1314 H1300 0.930 . S
C1314 C1312 1.395 . S
C1314 C1317 1.403 . S
C1315 C1312 1.403 . S
C1315 C1316 1.524 . S
C1315 C1319 1.400 . S
C1316 H1301 0.960 . S
C1316 H1302 0.960 . S
C1316 H1303 0.960 . S
C1316 C1315 1.524 . S
C1317 C1314 1.403 . S
C1317 C1318 1.392 . S
C1317 C1321 1.495 . S
C1318 C1317 1.392 . S
C1318 C1319 1.385 . S
C1318 C1320 1.478 . S
C1319 H1313 0.930 . S
C1319 C1315 1.400 . S
C1319 C1318 1.385 . S
C1320 C1318 1.478 . S
C1320 C1322 1.381 . S
C1320 C1326 1.383 . S
C1321 C1317 1.495 . S
C1321 H1327 0.959 . S
C1321 H1328 0.961 . S
C1321 H1329 0.960 . S
C1322 C1320 1.381 . S
C1322 C1323 1.394 . S
C1322 H1330 0.930 . S
C1323 C1322 1.394 . S
C1323 C1324 1.383 . S
C1323 H1331 0.929 . S
C1324 C1323 1.383 . S
C1324 C1325 1.377 . S
C1325 H1309 0.930 . S
C1325 C1324 1.377 . S
C1325 C1326 1.379 . S
C1326 H1310 0.931 . S
C1326 C1320 1.383 . S
C1326 C1325 1.379 . S
H1327 C1321 0.959 . S
H1328 C1321 0.961 . S
H1329 C1321 0.960 . S
H1330 C1322 0.930 . S
H1331 C1323 0.929 . S
H1332 C1340 0.929 . S
H1333 C1342 0.930 . S
H1334 C1344 0.930 . S
H1335 C1347 0.929 . S
H1336 C1350 0.930 . S
H1337 C1352 0.960 . S
H1338 C1352 0.960 . S
H1339 C1352 0.960 . S
C1340 H1332 0.929 . S
C1340 C1341 1.377 . S
C1340 C1342 1.384 . S
C1341 C1340 1.377 . S
C1341 C1347 1.390 . S
C1342 H1333 0.930 . S
C1342 C1340 1.384 . S
C1342 C1343 1.372 . S
C1343 C1342 1.372 . S
C1343 C1344 1.400 . S
C1343 C1348 1.490 . S
C1344 H1334 0.930 . S
C1344 C1343 1.400 . S
C1344 C1347 1.386 . S
H1345 C1361 0.930 . S
H1346 C1362 0.931 . S
C1347 H1335 0.929 . S
C1347 C1341 1.390 . S
C1347 C1344 1.386 . S
C1348 C1343 1.490 . S
C1348 C1350 1.395 . S
C1348 C1351 1.403 . S
H1349 C1355 0.930 . S
C1350 H1336 0.930 . S
C1350 C1348 1.395 . S
C1350 C1353 1.403 . S
C1351 C1348 1.403 . S
C1351 C1352 1.524 . S
C1351 C1355 1.400 . S
C1352 H1337 0.960 . S
C1352 H1338 0.960 . S
C1352 H1339 0.960 . S
C1352 C1351 1.524 . S
C1353 C1350 1.403 . S
C1353 C1354 1.392 . S
C1353 C1357 1.495 . S
C1354 C1353 1.392 . S
C1354 C1355 1.385 . S
C1354 C1356 1.478 . S
C1355 H1349 0.930 . S
C1355 C1351 1.400 . S
C1355 C1354 1.385 . S
C1356 C1354 1.478 . S
C1356 C1358 1.381 . S
C1356 C1362 1.383 . S
C1357 C1353 1.495 . S
C1357 H1363 0.959 . S
C1357 H1364 0.961 . S
C1357 H1365 0.960 . S
C1358 C1356 1.381 . S
C1358 C1359 1.394 . S
C1358 H1366 0.930 . S
C1359 C1358 1.394 . S
C1359 C1360 1.383 . S
C1359 H1367 0.929 . S
C1360 C1359 1.383 . S
C1360 C1361 1.377 . S
C1361 H1345 0.930 . S
C1361 C1360 1.377 . S
C1361 C1362 1.379 . S
C1362 H1346 0.931 . S
C1362 C1356 1.383 . S
C1362 C1361 1.379 . S
H1363 C1357 0.959 . S
H1364 C1357 0.961 . S
H1365 C1357 0.960 . S
H1366 C1358 0.930 . S
H1367 C1359 0.929 . S
H1368 C1376 0.929 . S
H1369 C1378 0.930 . S
H1370 C1380 0.930 . S
H1371 C1383 0.929 . S
H1372 C1386 0.930 . S
H1373 C1388 0.960 . S
H1374 C1388 0.960 . S
H1375 C1388 0.960 . S
C1376 H1368 0.929 . S
C1376 C1377 1.377 . S
C1376 C1378 1.384 . S
C1377 C1376 1.377 . S
C1377 C1383 1.390 . S
C1378 H1369 0.930 . S
C1378 C1376 1.384 . S
C1378 C1379 1.372 . S
C1379 C1378 1.372 . S
C1379 C1380 1.400 . S
C1379 C1384 1.490 . S
C1380 H1370 0.930 . S
C1380 C1379 1.400 . S
C1380 C1383 1.386 . S
H1381 C1397 0.930 . S
H1382 C1398 0.931 . S
C1383 H1371 0.929 . S
C1383 C1377 1.390 . S
C1383 C1380 1.386 . S
C1384 C1379 1.490 . S
C1384 C1386 1.395 . S
C1384 C1387 1.403 . S
H1385 C1391 0.930 . S
C1386 H1372 0.930 . S
C1386 C1384 1.395 . S
C1386 C1389 1.403 . S
C1387 C1384 1.403 . S
C1387 C1388 1.524 . S
C1387 C1391 1.400 . S
C1388 H1373 0.960 . S
C1388 H1374 0.960 . S
C1388 H1375 0.960 . S
C1388 C1387 1.524 . S
C1389 C1386 1.403 . S
C1389 C1390 1.392 . S
C1389 C1393 1.495 . S
C1390 C1389 1.392 . S
C1390 C1391 1.385 . S
C1390 C1392 1.478 . S
C1391 H1385 0.930 . S
C1391 C1387 1.400 . S
C1391 C1390 1.385 . S
C1392 C1390 1.478 . S
C1392 C1394 1.381 . S
C1392 C1398 1.383 . S
C1393 C1389 1.495 . S
C1393 H1399 0.959 . S
C1393 H1400 0.961 . S
C1393 H1401 0.960 . S
C1394 C1392 1.381 . S
C1394 C1395 1.394 . S
C1394 H1402 0.930 . S
C1395 C1394 1.394 . S
C1395 C1396 1.383 . S
C1395 H1403 0.929 . S
C1396 C1395 1.383 . S
C1396 C1397 1.377 . S
C1397 H1381 0.930 . S
C1397 C1396 1.377 . S
C1397 C1398 1.379 . S
C1398 H1382 0.931 . S
C1398 C1392 1.383 . S
C1398 C1397 1.379 . S
H1399 C1393 0.959 . S
H1400 C1393 0.961 . S
H1401 C1393 0.960 . S
H1402 C1394 0.930 . S
H1403 C1395 0.929 . S
H1404 C1412 0.929 . S
H1405 C1414 0.930 . S
H1406 C1416 0.930 . S
H1407 C1419 0.929 . S
H1408 C1422 0.930 . S
H1409 C1424 0.960 . S
H1410 C1424 0.960 . S
H1411 C1424 0.960 . S
C1412 H1404 0.929 . S
C1412 C1413 1.377 . S
C1412 C1414 1.384 . S
C1413 C1412 1.377 . S
C1413 C1419 1.390 . S
C1414 H1405 0.930 . S
C1414 C1412 1.384 . S
C1414 C1415 1.372 . S
C1415 C1414 1.372 . S
C1415 C1416 1.400 . S
C1415 C1420 1.490 . S
C1416 H1406 0.930 . S
C1416 C1415 1.400 . S
C1416 C1419 1.386 . S
H1417 C1433 0.930 . S
H1418 C1434 0.931 . S
C1419 H1407 0.929 . S
C1419 C1413 1.390 . S
C1419 C1416 1.386 . S
C1420 C1415 1.490 . S
C1420 C1422 1.395 . S
C1420 C1423 1.403 . S
H1421 C1427 0.930 . S
C1422 H1408 0.930 . S
C1422 C1420 1.395 . S
C1422 C1425 1.403 . S
C1423 C1420 1.403 . S
C1423 C1424 1.524 . S
C1423 C1427 1.400 . S
C1424 H1409 0.960 . S
C1424 H1410 0.960 . S
C1424 H1411 0.960 . S
C1424 C1423 1.524 . S
C1425 C1422 1.403 . S
C1425 C1426 1.392 . S
C1425 C1429 1.495 . S
C1426 C1425 1.392 . S
C1426 C1427 1.385 . S
C1426 C1428 1.478 . S
C1427 H1421 0.930 . S
C1427 C1423 1.400 . S
C1427 C1426 1.385 . S
C1428 C1426 1.478 . S
C1428 C1430 1.381 . S
C1428 C1434 1.383 . S
C1429 C1425 1.495 . S
C1429 H1435 0.959 . S
C1429 H1436 0.961 . S
C1429 H1437 0.960 . S
C1430 C1428 1.381 . S
C1430 C1431 1.394 . S
C1430 H1438 0.930 . S
C1431 C1430 1.394 . S
C1431 C1432 1.383 . S
C1431 H1439 0.929 . S
C1432 C1431 1.383 . S
C1432 C1433 1.377 . S
C1433 H1417 0.930 . S
C1433 C1432 1.377 . S
C1433 C1434 1.379 . S
C1434 H1418 0.931 . S
C1434 C1428 1.383 . S
C1434 C1433 1.379 . S
H1435 C1429 0.959 . S
H1436 C1429 0.961 . S
H1437 C1429 0.960 . S
H1438 C1430 0.930 . S
H1439 C1431 0.929 . S
H1440 C1448 0.929 . S
H1441 C1450 0.930 . S
H1442 C1452 0.930 . S
H1443 C1455 0.929 . S
H1444 C1458 0.930 . S
H1445 C1460 0.960 . S
H1446 C1460 0.960 . S
H1447 C1460 0.960 . S
C1448 H1440 0.929 . S
C1448 C1449 1.377 . S
C1448 C1450 1.384 . S
C1449 C1448 1.377 . S
C1449 C1455 1.390 . S
C1450 H1441 0.930 . S
C1450 C1448 1.384 . S
C1450 C1451 1.372 . S
C1451 C1450 1.372 . S
C1451 C1452 1.400 . S
C1451 C1456 1.490 . S
C1452 H1442 0.930 . S
C1452 C1451 1.400 . S
C1452 C1455 1.386 . S
H1453 C1469 0.930 . S
H1454 C1470 0.931 . S
C1455 H1443 0.929 . S
C1455 C1449 1.390 . S
C1455 C1452 1.386 . S
C1456 C1451 1.490 . S
C1456 C1458 1.395 . S
C1456 C1459 1.403 . S
H1457 C1463 0.930 . S
C1458 H1444 0.930 . S
C1458 C1456 1.395 . S
C1458 C1461 1.403 . S
C1459 C1456 1.403 . S
C1459 C1460 1.524 . S
C1459 C1463 1.400 . S
C1460 H1445 0.960 . S
C1460 H1446 0.960 . S
C1460 H1447 0.960 . S
C1460 C1459 1.524 . S
C1461 C1458 1.403 . S
C1461 C1462 1.392 . S
C1461 C1465 1.495 . S
C1462 C1461 1.392 . S
C1462 C1463 1.385 . S
C1462 C1464 1.478 . S
C1463 H1457 0.930 . S
C1463 C1459 1.400 . S
C1463 C1462 1.385 . S
C1464 C1462 1.478 . S
C1464 C1466 1.381 . S
C1464 C1470 1.383 . S
C1465 C1461 1.495 . S
C1465 H1471 0.959 . S
C1465 H1472 0.961 . S
C1465 H1473 0.960 . S
C1466 C1464 1.381 . S
C1466 C1467 1.394 . S
C1466 H1474 0.930 . S
C1467 C1466 1.394 . S
C1467 C1468 1.383 . S
C1467 H1475 0.929 . S
C1468 C1467 1.383 . S
C1468 C1469 1.377 . S
C1469 H1453 0.930 . S
C1469 C1468 1.377 . S
C1469 C1470 1.379 . S
C1470 H1454 0.931 . S
C1470 C1464 1.383 . S
C1470 C1469 1.379 . S
H1471 C1465 0.959 . S
H1472 C1465 0.961 . S
H1473 C1465 0.960 . S
H1474 C1466 0.930 . S
H1475 C1467 0.929 . S
H1476 C1484 0.929 . S
H1477 C1486 0.930 . S
H1478 C1488 0.930 . S
H1479 C1491 0.929 . S
H1480 C1494 0.930 . S
H1481 C1496 0.960 . S
H1482 C1496 0.960 . S
H1483 C1496 0.960 . S
C1484 H1476 0.929 . S
C1484 C1485 1.377 . S
C1484 C1486 1.384 . S
C1485 C1484 1.377 . S
C1485 C1491 1.390 . S
C1486 H1477 0.930 . S
C1486 C1484 1.384 . S
C1486 C1487 1.372 . S
C1487 C1486 1.372 . S
C1487 C1488 1.400 . S
C1487 C1492 1.490 . S
C1488 H1478 0.930 . S
C1488 C1487 1.400 . S
C1488 C1491 1.386 . S
H1489 C1505 0.930 . S
H1490 C1506 0.931 . S
C1491 H1479 0.929 . S
C1491 C1485 1.390 . S
C1491 C1488 1.386 . S
C1492 C1487 1.490 . S
C1492 C1494 1.395 . S
C1492 C1495 1.403 . S
H1493 C1499 0.930 . S
C1494 H1480 0.930 . S
C1494 C1492 1.395 . S
C1494 C1497 1.403 . S
C1495 C1492 1.403 . S
C1495 C1496 1.524 . S
C1495 C1499 1.400 . S
C1496 H1481 0.960 . S
C1496 H1482 0.960 . S
C1496 H1483 0.960 . S
C1496 C1495 1.524 . S
C1497 C1494 1.403 . S
C1497 C1498 1.392 . S
C1497 C1501 1.495 . S
C1498 C1497 1.392 . S
C1498 C1499 1.385 . S
C1498 C1500 1.478 . S
C1499 H1493 0.930 . S
C1499 C1495 1.400 . S
C1499 C1498 1.385 . S
C1500 C1498 1.478 . S
C1500 C1502 1.381 . S
C1500 C1506 1.383 . S
C1501 C1497 1.495 . S
C1501 H1507 0.959 . S
C1501 H1508 0.961 . S
C1501 H1509 0.960 . S
C1502 C1500 1.381 . S
C1502 C1503 1.394 . S
C1502 H1510 0.930 . S
C1503 C1502 1.394 . S
C1503 C1504 1.383 . S
C1503 H1511 0.929 . S
C1504 C1503 1.383 . S
C1504 C1505 1.377 . S
C1505 H1489 0.930 . S
C1505 C1504 1.377 . S
C1505 C1506 1.379 . S
C1506 H1490 0.931 . S
C1506 C1500 1.383 . S
C1506 C1505 1.379 . S
H1507 C1501 0.959 . S
H1508 C1501 0.961 . S
H1509 C1501 0.960 . S
H1510 C1502 0.930 . S
H1511 C1503 0.929 . S
H1512 C1520 0.929 . S
H1513 C1522 0.930 . S
H1514 C1524 0.930 . S
H1515 C1527 0.929 . S
H1516 C1530 0.930 . S
H1517 C1532 0.960 . S
H1518 C1532 0.960 . S
H1519 C1532 0.960 . S
C1520 H1512 0.929 . S
C1520 C1521 1.377 . S
C1520 C1522 1.384 . S
C1521 C1520 1.377 . S
C1521 C1527 1.390 . S
C1522 H1513 0.930 . S
C1522 C1520 1.384 . S
C1522 C1523 1.372 . S
C1523 C1522 1.372 . S
C1523 C1524 1.400 . S
C1523 C1528 1.490 . S
C1524 H1514 0.930 . S
C1524 C1523 1.400 . S
C1524 C1527 1.386 . S
H1525 C1541 0.930 . S
H1526 C1542 0.931 . S
C1527 H1515 0.929 . S
C1527 C1521 1.390 . S
C1527 C1524 1.386 . S
C1528 C1523 1.490 . S
C1528 C1530 1.395 . S
C1528 C1531 1.403 . S
H1529 C1535 0.930 . S
C1530 H1516 0.930 . S
C1530 C1528 1.395 . S
C1530 C1533 1.403 . S
C1531 C1528 1.403 . S
C1531 C1532 1.524 . S
C1531 C1535 1.400 . S
C1532 H1517 0.960 . S
C1532 H1518 0.960 . S
C1532 H1519 0.960 . S
C1532 C1531 1.524 . S
C1533 C1530 1.403 . S
C1533 C1534 1.392 . S
C1533 C1537 1.495 . S
C1534 C1533 1.392 . S
C1534 C1535 1.385 . S
C1534 C1536 1.478 . S
C1535 H1529 0.930 . S
C1535 C1531 1.400 . S
C1535 C1534 1.385 . S
C1536 C1534 1.478 . S
C1536 C1538 1.381 . S
C1536 C1542 1.383 . S
C1537 C1533 1.495 . S
C1537 H1543 0.959 . S
C1537 H1544 0.961 . S
C1537 H1545 0.960 . S
C1538 C1536 1.381 . S
C1538 C1539 1.394 . S
C1538 H1546 0.930 . S
C1539 C1538 1.394 . S
C1539 C1540 1.383 . S
C1539 H1547 0.929 . S
C1540 C1539 1.383 . S
C1540 C1541 1.377 . S
C1541 H1525 0.930 . S
C1541 C1540 1.377 . S
C1541 C1542 1.379 . S
C1542 H1526 0.931 . S
C1542 C1536 1.383 . S
C1542 C1541 1.379 . S
H1543 C1537 0.959 . S
H1544 C1537 0.961 . S
H1545 C1537 0.960 . S
H1546 C1538 0.930 . S
H1547 C1539 0.929 . S
H1548 C1556 0.929 . S
H1549 C1558 0.930 . S
H1550 C1560 0.930 . S
H1551 C1563 0.929 . S
H1552 C1566 0.930 . S
H1553 C1568 0.960 . S
H1554 C1568 0.960 . S
H1555 C1568 0.960 . S
C1556 H1548 0.929 . S
C1556 C1557 1.377 . S
C1556 C1558 1.384 . S
C1557 C1556 1.377 . S
C1557 C1563 1.390 . S
C1558 H1549 0.930 . S
C1558 C1556 1.384 . S
C1558 C1559 1.372 . S
C1559 C1558 1.372 . S
C1559 C1560 1.400 . S
C1559 C1564 1.490 . S
C1560 H1550 0.930 . S
C1560 C1559 1.400 . S
C1560 C1563 1.386 . S
H1561 C1577 0.930 . S
H1562 C1578 0.931 . S
C1563 H1551 0.929 . S
C1563 C1557 1.390 . S
C1563 C1560 1.386 . S
C1564 C1559 1.490 . S
C1564 C1566 1.395 . S
C1564 C1567 1.403 . S
H1565 C1571 0.930 . S
C1566 H1552 0.930 . S
C1566 C1564 1.395 . S
C1566 C1569 1.403 . S
C1567 C1564 1.403 . S
C1567 C1568 1.524 . S
C1567 C1571 1.400 . S
C1568 H1553 0.960 . S
C1568 H1554 0.960 . S
C1568 H1555 0.960 . S
C1568 C1567 1.524 . S
C1569 C1566 1.403 . S
C1569 C1570 1.392 . S
C1569 C1573 1.495 . S
C1570 C1569 1.392 . S
C1570 C1571 1.385 . S
C1570 C1572 1.478 . S
C1571 H1565 0.930 . S
C1571 C1567 1.400 . S
C1571 C1570 1.385 . S
C1572 C1570 1.478 . S
C1572 C1574 1.381 . S
C1572 C1578 1.383 . S
C1573 C1569 1.495 . S
C1573 H1579 0.959 . S
C1573 H1580 0.961 . S
C1573 H1581 0.960 . S
C1574 C1572 1.381 . S
C1574 C1575 1.394 . S
C1574 H1582 0.930 . S
C1575 C1574 1.394 . S
C1575 C1576 1.383 . S
C1575 H1583 0.929 . S
C1576 C1575 1.383 . S
C1576 C1577 1.377 . S
C1577 H1561 0.930 . S
C1577 C1576 1.377 . S
C1577 C1578 1.379 . S
C1578 H1562 0.931 . S
C1578 C1572 1.383 . S
C1578 C1577 1.379 . S
H1579 C1573 0.959 . S
H1580 C1573 0.961 . S
H1581 C1573 0.960 . S
H1582 C1574 0.930 . S
H1583 C1575 0.929 . S
H1584 C1592 0.929 . S
H1585 C1594 0.930 . S
H1586 C1596 0.930 . S
H1587 C1599 0.929 . S
H1588 C1602 0.930 . S
H1589 C1604 0.960 . S
H1590 C1604 0.960 . S
H1591 C1604 0.960 . S
C1592 H1584 0.929 . S
C1592 C1593 1.377 . S
C1592 C1594 1.384 . S
C1593 C1592 1.377 . S
C1593 C1599 1.390 . S
C1594 H1585 0.930 . S
C1594 C1592 1.384 . S
C1594 C1595 1.372 . S
C1595 C1594 1.372 . S
C1595 C1596 1.400 . S
C1595 C1600 1.490 . S
C1596 H1586 0.930 . S
C1596 C1595 1.400 . S
C1596 C1599 1.386 . S
H1597 C1613 0.930 . S
H1598 C1614 0.931 . S
C1599 H1587 0.929 . S
C1599 C1593 1.390 . S
C1599 C1596 1.386 . S
C1600 C1595 1.490 . S
C1600 C1602 1.395 . S
C1600 C1603 1.403 . S
H1601 C1607 0.930 . S
C1602 H1588 0.930 . S
C1602 C1600 1.395 . S
C1602 C1605 1.403 . S
C1603 C1600 1.403 . S
C1603 C1604 1.524 . S
C1603 C1607 1.400 . S
C1604 H1589 0.960 . S
C1604 H1590 0.960 . S
C1604 H1591 0.960 . S
C1604 C1603 1.524 . S
C1605 C1602 1.403 . S
C1605 C1606 1.392 . S
C1605 C1609 1.495 . S
C1606 C1605 1.392 . S
C1606 C1607 1.385 . S
C1606 C1608 1.478 . S
C1607 H1601 0.930 . S
C1607 C1603 1.400 . S
C1607 C1606 1.385 . S
C1608 C1606 1.478 . S
C1608 C1610 1.381 . S
C1608 C1614 1.383 . S
C1609 C1605 1.495 . S
C1609 H1615 0.959 . S
C1609 H1616 0.961 . S
C1609 H1617 0.960 . S
C1610 C1608 1.381 . S
C1610 C1611 1.394 . S
C1610 H1618 0.930 . S
C1611 C1610 1.394 . S
C1611 C1612 1.383 . S
C1611 H1619 0.929 . S
C1612 C1611 1.383 . S
C1612 C1613 1.377 . S
C1613 H1597 0.930 . S
C1613 C1612 1.377 . S
C1613 C1614 1.379 . S
C1614 H1598 0.931 . S
C1614 C1608 1.383 . S
C1614 C1613 1.379 . S
H1615 C1609 0.959 . S
H1616 C1609 0.961 . S
H1617 C1609 0.960 . S
H1618 C1610 0.930 . S
H1619 C1611 0.929 . S
H1620 C1628 0.929 . S
H1621 C1630 0.930 . S
H1622 C1632 0.930 . S
H1623 C1635 0.929 . S
H1624 C1638 0.930 . S
H1625 C1640 0.960 . S
H1626 C1640 0.960 . S
H1627 C1640 0.960 . S
C1628 H1620 0.929 . S
C1628 C1629 1.377 . S
C1628 C1630 1.384 . S
C1629 C1628 1.377 . S
C1629 C1635 1.390 . S
C1630 H1621 0.930 . S
C1630 C1628 1.384 . S
C1630 C1631 1.372 . S
C1631 C1630 1.372 . S
C1631 C1632 1.400 . S
C1631 C1636 1.490 . S
C1632 H1622 0.930 . S
C1632 C1631 1.400 . S
C1632 C1635 1.386 . S
H1633 C1649 0.930 . S
H1634 C1650 0.931 . S
C1635 H1623 0.929 . S
C1635 C1629 1.390 . S
C1635 C1632 1.386 . S
C1636 C1631 1.490 . S
C1636 C1638 1.395 . S
C1636 C1639 1.403 . S
H1637 C1643 0.930 . S
C1638 H1624 0.930 . S
C1638 C1636 1.395 . S
C1638 C1641 1.403 . S
C1639 C1636 1.403 . S
C1639 C1640 1.524 . S
C1639 C1643 1.400 . S
C1640 H1625 0.960 . S
C1640 H1626 0.960 . S
C1640 H1627 0.960 . S
C1640 C1639 1.524 . S
C1641 C1638 1.403 . S
C1641 C1642 1.392 . S
C1641 C1645 1.495 . S
C1642 C1641 1.392 . S
C1642 C1643 1.385 . S
C1642 C1644 1.478 . S
C1643 H1637 0.930 . S
C1643 C1639 1.400 . S
C1643 C1642 1.385 . S
C1644 C1642 1.478 . S
C1644 C1646 1.381 . S
C1644 C1650 1.383 . S
C1645 C1641 1.495 . S
C1645 H1651 0.959 . S
C1645 H1652 0.961 . S
C1645 H1653 0.960 . S
C1646 C1644 1.381 . S
C1646 C1647 1.394 . S
C1646 H1654 0.930 . S
C1647 C1646 1.394 . S
C1647 C1648 1.383 . S
C1647 H1655 0.929 . S
C1648 C1647 1.383 . S
C1648 C1649 1.377 . S
C1649 H1633 0.930 . S
C1649 C1648 1.377 . S
C1649 C1650 1.379 . S
C1650 H1634 0.931 . S
C1650 C1644 1.383 . S
C1650 C1649 1.379 . S
H1651 C1645 0.959 . S
H1652 C1645 0.961 . S
H1653 C1645 0.960 . S
H1654 C1646 0.930 . S
H1655 C1647 0.929 . S
H1656 C1664 0.929 . S
H1657 C1666 0.930 . S
H1658 C1668 0.930 . S
H1659 C1671 0.929 . S
H1660 C1674 0.930 . S
H1661 C1676 0.960 . S
H1662 C1676 0.960 . S
H1663 C1676 0.960 . S
C1664 H1656 0.929 . S
C1664 C1665 1.377 . S
C1664 C1666 1.384 . S
C1665 C1664 1.377 . S
C1665 C1671 1.390 . S
C1666 H1657 0.930 . S
C1666 C1664 1.384 . S
C1666 C1667 1.372 . S
C1667 C1666 1.372 . S
C1667 C1668 1.400 . S
C1667 C1672 1.490 . S
C1668 H1658 0.930 . S
C1668 C1667 1.400 . S
C1668 C1671 1.386 . S
H1669 C1685 0.930 . S
H1670 C1686 0.931 . S
C1671 H1659 0.929 . S
C1671 C1665 1.390 . S
C1671 C1668 1.386 . S
C1672 C1667 1.490 . S
C1672 C1674 1.395 . S
C1672 C1675 1.403 . S
H1673 C1679 0.930 . S
C1674 H1660 0.930 . S
C1674 C1672 1.395 . S
C1674 C1677 1.403 . S
C1675 C1672 1.403 . S
C1675 C1676 1.524 . S
C1675 C1679 1.400 . S
C1676 H1661 0.960 . S
C1676 H1662 0.960 . S
C1676 H1663 0.960 . S
C1676 C1675 1.524 . S
C1677 C1674 1.403 . S
C1677 C1678 1.392 . S
C1677 C1681 1.495 . S
C1678 C1677 1.392 . S
C1678 C1679 1.385 . S
C1678 C1680 1.478 . S
C1679 H1673 0.930 . S
C1679 C1675 1.400 . S
C1679 C1678 1.385 . S
C1680 C1678 1.478 . S
C1680 C1682 1.381 . S
C1680 C1686 1.383 . S
C1681 C1677 1.495 . S
C1681 H1687 0.959 . S
C1681 H1688 0.961 . S
C1681 H1689 0.960 . S
C1682 C1680 1.381 . S
C1682 C1683 1.394 . S
C1682 H1690 0.930 . S
C1683 C1682 1.394 . S
C1683 C1684 1.383 . S
C1683 H1691 0.929 . S
C1684 C1683 1.383 . S
C1684 C1685 1.377 . S
C1685 H1669 0.930 . S
C1685 C1684 1.377 . S
C1685 C1686 1.379 . S
C1686 H1670 0.931 . S
C1686 C1680 1.383 . S
C1686 C1685 1.379 . S
H1687 C1681 0.959 . S
H1688 C1681 0.961 . S
H1689 C1681 0.960 . S
H1690 C1682 0.930 . S
H1691 C1683 0.929 . S
H1692 C1700 0.929 . S
H1693 C1702 0.930 . S
H1694 C1704 0.930 . S
H1695 C1707 0.929 . S
H1696 C1710 0.930 . S
H1697 C1712 0.960 . S
H1698 C1712 0.960 . S
H1699 C1712 0.960 . S
C1700 H1692 0.929 . S
C1700 C1701 1.377 . S
C1700 C1702 1.384 . S
C1701 C1700 1.377 . S
C1701 C1707 1.390 . S
C1702 H1693 0.930 . S
C1702 C1700 1.384 . S
C1702 C1703 1.372 . S
C1703 C1702 1.372 . S
C1703 C1704 1.400 . S
C1703 C1708 1.490 . S
C1704 H1694 0.930 . S
C1704 C1703 1.400 . S
C1704 C1707 1.386 . S
H1705 C1721 0.930 . S
H1706 C1722 0.931 . S
C1707 H1695 0.929 . S
C1707 C1701 1.390 . S
C1707 C1704 1.386 . S
C1708 C1703 1.490 . S
C1708 C1710 1.395 . S
C1708 C1711 1.403 . S
H1709 C1715 0.930 . S
C1710 H1696 0.930 . S
C1710 C1708 1.395 . S
C1710 C1713 1.403 . S
C1711 C1708 1.403 . S
C1711 C1712 1.524 . S
C1711 C1715 1.400 . S
C1712 H1697 0.960 . S
C1712 H1698 0.960 . S
C1712 H1699 0.960 . S
C1712 C1711 1.524 . S
C1713 C1710 1.403 . S
C1713 C1714 1.392 . S
C1713 C1717 1.495 . S
C1714 C1713 1.392 . S
C1714 C1715 1.385 . S
C1714 C1716 1.478 . S
C1715 H1709 0.930 . S
C1715 C1711 1.400 . S
C1715 C1714 1.385 . S
C1716 C1714 1.478 . S
C1716 C1718 1.381 . S
C1716 C1722 1.383 . S
C1717 C1713 1.495 . S
C1717 H1723 0.959 . S
C1717 H1724 0.961 . S
C1717 H1725 0.960 . S
C1718 C1716 1.381 . S
C1718 C1719 1.394 . S
C1718 H1726 0.930 . S
C1719 C1718 1.394 . S
C1719 C1720 1.383 . S
C1719 H1727 0.929 . S
C1720 C1719 1.383 . S
C1720 C1721 1.377 . S
C1721 H1705 0.930 . S
C1721 C1720 1.377 . S
C1721 C1722 1.379 . S
C1722 H1706 0.931 . S
C1722 C1716 1.383 . S
C1722 C1721 1.379 . S
H1723 C1717 0.959 . S
H1724 C1717 0.961 . S
H1725 C1717 0.960 . S
H1726 C1718 0.930 . S
H1727 C1719 0.929 . S
H1728 C1736 0.929 . S
H1729 C1738 0.930 . S
H1730 C1740 0.930 . S
H1731 C1743 0.929 . S
H1732 C1746 0.930 . S
H1733 C1748 0.960 . S
H1734 C1748 0.960 . S
H1735 C1748 0.960 . S
C1736 H1728 0.929 . S
C1736 C1737 1.377 . S
C1736 C1738 1.384 . S
C1737 C1736 1.377 . S
C1737 C1743 1.390 . S
C1738 H1729 0.930 . S
C1738 C1736 1.384 . S
C1738 C1739 1.372 . S
C1739 C1738 1.372 . S
C1739 C1740 1.400 . S
C1739 C1744 1.490 . S
C1740 H1730 0.930 . S
C1740 C1739 1.400 . S
C1740 C1743 1.386 . S
H1741 C1757 0.930 . S
H1742 C1758 0.931 . S
C1743 H1731 0.929 . S
C1743 C1737 1.390 . S
C1743 C1740 1.386 . S
C1744 C1739 1.490 . S
C1744 C1746 1.395 . S
C1744 C1747 1.403 . S
H1745 C1751 0.930 . S
C1746 H1732 0.930 . S
C1746 C1744 1.395 . S
C1746 C1749 1.403 1_554 S
C1747 C1744 1.403 . S
C1747 C1748 1.524 . S
C1747 C1751 1.400 1_554 S
C1748 H1733 0.960 . S
C1748 H1734 0.960 . S
C1748 H1735 0.960 . S
C1748 C1747 1.524 . S
C1749 C1746 1.403 1_556 S
C1749 C1750 1.392 . S
C1749 C1753 1.495 . S
C1750 C1749 1.392 . S
C1750 C1751 1.385 . S
C1750 C1752 1.478 . S
C1751 H1745 0.930 . S
C1751 C1747 1.400 1_556 S
C1751 C1750 1.385 . S
C1752 C1750 1.478 . S
C1752 C1754 1.381 . S
C1752 C1758 1.383 . S
C1753 C1749 1.495 . S
C1753 H1759 0.959 . S
C1753 H1760 0.961 . S
C1753 H1761 0.960 . S
C1754 C1752 1.381 . S
C1754 C1755 1.394 . S
C1754 H1762 0.930 . S
C1755 C1754 1.394 . S
C1755 C1756 1.383 . S
C1755 H1763 0.929 . S
C1756 C1755 1.383 . S
C1756 C1757 1.377 . S
C1757 H1741 0.930 . S
C1757 C1756 1.377 . S
C1757 C1758 1.379 . S
C1758 H1742 0.931 . S
C1758 C1752 1.383 . S
C1758 C1757 1.379 . S
H1759 C1753 0.959 . S
H1760 C1753 0.961 . S
H1761 C1753 0.960 . S
H1762 C1754 0.930 . S
H1763 C1755 0.929 . S
H1764 C1772 0.929 . S
H1765 C1774 0.930 . S
H1766 C1776 0.930 . S
H1767 C1779 0.929 . S
H1768 C1782 0.930 . S
H1769 C1784 0.960 . S
H1770 C1784 0.960 . S
H1771 C1784 0.960 . S
C1772 H1764 0.929 . S
C1772 C1773 1.377 . S
C1772 C1774 1.384 . S
C1773 C1772 1.377 . S
C1773 C1779 1.390 . S
C1774 H1765 0.930 . S
C1774 C1772 1.384 . S
C1774 C1775 1.372 . S
C1775 C1774 1.372 . S
C1775 C1776 1.400 . S
C1775 C1780 1.490 . S
C1776 H1766 0.930 . S
C1776 C1775 1.400 . S
C1776 C1779 1.386 . S
H1777 C1793 0.930 . S
H1778 C1794 0.931 . S
C1779 H1767 0.929 . S
C1779 C1773 1.390 . S
C1779 C1776 1.386 . S
C1780 C1775 1.490 . S
C1780 C1782 1.395 . S
C1780 C1783 1.403 . S
H1781 C1787 0.930 . S
C1782 H1768 0.930 . S
C1782 C1780 1.395 . S
C1782 C1785 1.403 1_556 S
C1783 C1780 1.403 . S
C1783 C1784 1.524 . S
C1783 C1787 1.400 1_556 S
C1784 H1769 0.960 . S
C1784 H1770 0.960 . S
C1784 H1771 0.960 . S
C1784 C1783 1.524 . S
C1785 C1782 1.403 1_554 S
C1785 C1786 1.392 . S
C1785 C1789 1.495 . S
C1786 C1785 1.392 . S
C1786 C1787 1.385 . S
C1786 C1788 1.478 . S
C1787 H1781 0.930 . S
C1787 C1783 1.400 1_554 S
C1787 C1786 1.385 . S
C1788 C1786 1.478 . S
C1788 C1790 1.381 . S
C1788 C1794 1.383 . S
C1789 C1785 1.495 . S
C1789 H1795 0.959 . S
C1789 H1796 0.961 . S
C1789 H1797 0.960 . S
C1790 C1788 1.381 . S
C1790 C1791 1.394 . S
C1790 H1798 0.930 . S
C1791 C1790 1.394 . S
C1791 C1792 1.383 . S
C1791 H1799 0.929 . S
C1792 C1791 1.383 . S
C1792 C1793 1.377 . S
C1793 H1777 0.930 . S
C1793 C1792 1.377 . S
C1793 C1794 1.379 . S
C1794 H1778 0.931 . S
C1794 C1788 1.383 . S
C1794 C1793 1.379 . S
H1795 C1789 0.959 . S
H1796 C1789 0.961 . S
H1797 C1789 0.960 . S
H1798 C1790 0.930 . S
H1799 C1791 0.929 . S
H1800 C1808 0.929 . S
H1801 C1810 0.930 . S
H1802 C1812 0.930 . S
H1803 C1815 0.929 . S
H1804 C1818 0.930 . S
H1805 C1820 0.960 . S
H1806 C1820 0.960 . S
H1807 C1820 0.960 . S
C1808 H1800 0.929 . S
C1808 C1809 1.377 . S
C1808 C1810 1.384 . S
C1809 C1808 1.377 . S
C1809 C1815 1.390 . S
C1810 H1801 0.930 . S
C1810 C1808 1.384 . S
C1810 C1811 1.372 . S
C1811 C1810 1.372 . S
C1811 C1812 1.400 . S
C1811 C1816 1.490 . S
C1812 H1802 0.930 . S
C1812 C1811 1.400 . S
C1812 C1815 1.386 . S
H1813 C1829 0.930 . S
H1814 C1830 0.931 . S
C1815 H1803 0.929 . S
C1815 C1809 1.390 . S
C1815 C1812 1.386 . S
C1816 C1811 1.490 . S
C1816 C1818 1.395 . S
C1816 C1819 1.403 . S
H1817 C1823 0.930 . S
C1818 H1804 0.930 . S
C1818 C1816 1.395 . S
C1818 C1821 1.403 1_556 S
C1819 C1816 1.403 . S
C1819 C1820 1.524 . S
C1819 C1823 1.400 1_556 S
C1820 H1805 0.960 . S
C1820 H1806 0.960 . S
C1820 H1807 0.960 . S
C1820 C1819 1.524 . S
C1821 C1818 1.403 1_554 S
C1821 C1822 1.392 . S
C1821 C1825 1.495 . S
C1822 C1821 1.392 . S
C1822 C1823 1.385 . S
C1822 C1824 1.478 . S
C1823 H1817 0.930 . S
C1823 C1819 1.400 1_554 S
C1823 C1822 1.385 . S
C1824 C1822 1.478 . S
C1824 C1826 1.381 . S
C1824 C1830 1.383 . S
C1825 C1821 1.495 . S
C1825 H1831 0.959 . S
C1825 H1832 0.961 . S
C1825 H1833 0.960 . S
C1826 C1824 1.381 . S
C1826 C1827 1.394 . S
C1826 H1834 0.930 . S
C1827 C1826 1.394 . S
C1827 C1828 1.383 . S
C1827 H1835 0.929 . S
C1828 C1827 1.383 . S
C1828 C1829 1.377 . S
C1829 H1813 0.930 . S
C1829 C1828 1.377 . S
C1829 C1830 1.379 . S
C1830 H1814 0.931 . S
C1830 C1824 1.383 . S
C1830 C1829 1.379 . S
H1831 C1825 0.959 . S
H1832 C1825 0.961 . S
H1833 C1825 0.960 . S
H1834 C1826 0.930 . S
H1835 C1827 0.929 . S
H1836 C1844 0.929 . S
H1837 C1846 0.930 . S
H1838 C1848 0.930 . S
H1839 C1851 0.929 . S
H1840 C1854 0.930 . S
H1841 C1856 0.960 . S
H1842 C1856 0.960 . S
H1843 C1856 0.960 . S
C1844 H1836 0.929 . S
C1844 C1845 1.377 . S
C1844 C1846 1.384 . S
C1845 C1844 1.377 . S
C1845 C1851 1.390 . S
C1846 H1837 0.930 . S
C1846 C1844 1.384 . S
C1846 C1847 1.372 . S
C1847 C1846 1.372 . S
C1847 C1848 1.400 . S
C1847 C1852 1.490 . S
C1848 H1838 0.930 . S
C1848 C1847 1.400 . S
C1848 C1851 1.386 . S
H1849 C1865 0.930 . S
H1850 C1866 0.931 . S
C1851 H1839 0.929 . S
C1851 C1845 1.390 . S
C1851 C1848 1.386 . S
C1852 C1847 1.490 . S
C1852 C1854 1.395 . S
C1852 C1855 1.403 . S
H1853 C1859 0.930 . S
C1854 H1840 0.930 . S
C1854 C1852 1.395 . S
C1854 C1857 1.403 1_556 S
C1855 C1852 1.403 . S
C1855 C1856 1.524 . S
C1855 C1859 1.400 1_556 S
C1856 H1841 0.960 . S
C1856 H1842 0.960 . S
C1856 H1843 0.960 . S
C1856 C1855 1.524 . S
C1857 C1854 1.403 1_554 S
C1857 C1858 1.392 . S
C1857 C1861 1.495 . S
C1858 C1857 1.392 . S
C1858 C1859 1.385 . S
C1858 C1860 1.478 . S
C1859 H1853 0.930 . S
C1859 C1855 1.400 1_554 S
C1859 C1858 1.385 . S
C1860 C1858 1.478 . S
C1860 C1862 1.381 . S
C1860 C1866 1.383 . S
C1861 C1857 1.495 . S
C1861 H1867 0.959 . S
C1861 H1868 0.961 . S
C1861 H1869 0.960 . S
C1862 C1860 1.381 . S
C1862 C1863 1.394 . S
C1862 H1870 0.930 . S
C1863 C1862 1.394 . S
C1863 C1864 1.383 . S
C1863 H1871 0.929 . S
C1864 C1863 1.383 . S
C1864 C1865 1.377 . S
C1865 H1849 0.930 . S
C1865 C1864 1.377 . S
C1865 C1866 1.379 . S
C1866 H1850 0.931 . S
C1866 C1860 1.383 . S
C1866 C1865 1.379 . S
H1867 C1861 0.959 . S
H1868 C1861 0.961 . S
H1869 C1861 0.960 . S
H1870 C1862 0.930 . S
H1871 C1863 0.929 . S
H1872 C1880 0.929 . S
H1873 C1882 0.930 . S
H1874 C1884 0.930 . S
H1875 C1887 0.929 . S
H1876 C1890 0.930 . S
H1877 C1892 0.960 . S
H1878 C1892 0.960 . S
H1879 C1892 0.960 . S
C1880 H1872 0.929 . S
C1880 C1881 1.377 . S
C1880 C1882 1.384 . S
C1881 C1880 1.377 . S
C1881 C1887 1.390 . S
C1882 H1873 0.930 . S
C1882 C1880 1.384 . S
C1882 C1883 1.372 . S
C1883 C1882 1.372 . S
C1883 C1884 1.400 . S
C1883 C1888 1.490 . S
C1884 H1874 0.930 . S
C1884 C1883 1.400 . S
C1884 C1887 1.386 . S
H1885 C1901 0.930 . S
H1886 C1902 0.931 . S
C1887 H1875 0.929 . S
C1887 C1881 1.390 . S
C1887 C1884 1.386 . S
C1888 C1883 1.490 . S
C1888 C1890 1.395 . S
C1888 C1891 1.403 . S
H1889 C1895 0.930 . S
C1890 H1876 0.930 . S
C1890 C1888 1.395 . S
C1890 C1893 1.403 . S
C1891 C1888 1.403 . S
C1891 C1892 1.524 . S
C1891 C1895 1.400 . S
C1892 H1877 0.960 . S
C1892 H1878 0.960 . S
C1892 H1879 0.960 . S
C1892 C1891 1.524 . S
C1893 C1890 1.403 . S
C1893 C1894 1.392 . S
C1893 C1897 1.495 . S
C1894 C1893 1.392 . S
C1894 C1895 1.385 . S
C1894 C1896 1.478 . S
C1895 H1889 0.930 . S
C1895 C1891 1.400 . S
C1895 C1894 1.385 . S
C1896 C1894 1.478 . S
C1896 C1898 1.381 . S
C1896 C1902 1.383 . S
C1897 C1893 1.495 . S
C1897 H1903 0.959 . S
C1897 H1904 0.961 . S
C1897 H1905 0.960 . S
C1898 C1896 1.381 . S
C1898 C1899 1.394 . S
C1898 H1906 0.930 . S
C1899 C1898 1.394 . S
C1899 C1900 1.383 . S
C1899 H1907 0.929 . S
C1900 C1899 1.383 . S
C1900 C1901 1.377 . S
C1901 H1885 0.930 . S
C1901 C1900 1.377 . S
C1901 C1902 1.379 . S
C1902 H1886 0.931 . S
C1902 C1896 1.383 . S
C1902 C1901 1.379 . S
H1903 C1897 0.959 . S
H1904 C1897 0.961 . S
H1905 C1897 0.960 . S
H1906 C1898 0.930 . S
H1907 C1899 0.929 . S
H1908 C1916 0.929 . S
H1909 C1918 0.930 . S
H1910 C1920 0.930 . S
H1911 C1923 0.929 . S
H1912 C1926 0.930 . S
H1913 C1928 0.960 . S
H1914 C1928 0.960 . S
H1915 C1928 0.960 . S
C1916 H1908 0.929 . S
C1916 C1917 1.377 . S
C1916 C1918 1.384 . S
C1917 C1916 1.377 . S
C1917 C1923 1.390 . S
C1918 H1909 0.930 . S
C1918 C1916 1.384 . S
C1918 C1919 1.372 . S
C1919 C1918 1.372 . S
C1919 C1920 1.400 . S
C1919 C1924 1.490 . S
C1920 H1910 0.930 . S
C1920 C1919 1.400 . S
C1920 C1923 1.386 . S
H1921 C1937 0.930 . S
H1922 C1938 0.931 . S
C1923 H1911 0.929 . S
C1923 C1917 1.390 . S
C1923 C1920 1.386 . S
C1924 C1919 1.490 . S
C1924 C1926 1.395 . S
C1924 C1927 1.403 . S
H1925 C1931 0.930 . S
C1926 H1912 0.930 . S
C1926 C1924 1.395 . S
C1926 C1929 1.403 . S
C1927 C1924 1.403 . S
C1927 C1928 1.524 . S
C1927 C1931 1.400 . S
C1928 H1913 0.960 . S
C1928 H1914 0.960 . S
C1928 H1915 0.960 . S
C1928 C1927 1.524 . S
C1929 C1926 1.403 . S
C1929 C1930 1.392 . S
C1929 C1933 1.495 . S
C1930 C1929 1.392 . S
C1930 C1931 1.385 . S
C1930 C1932 1.478 . S
C1931 H1925 0.930 . S
C1931 C1927 1.400 . S
C1931 C1930 1.385 . S
C1932 C1930 1.478 . S
C1932 C1934 1.381 . S
C1932 C1938 1.383 . S
C1933 C1929 1.495 . S
C1933 H1939 0.959 . S
C1933 H1940 0.961 . S
C1933 H1941 0.960 . S
C1934 C1932 1.381 . S
C1934 C1935 1.394 . S
C1934 H1942 0.930 . S
C1935 C1934 1.394 . S
C1935 C1936 1.383 . S
C1935 H1943 0.929 . S
C1936 C1935 1.383 . S
C1936 C1937 1.377 . S
C1937 H1921 0.930 . S
C1937 C1936 1.377 . S
C1937 C1938 1.379 . S
C1938 H1922 0.931 . S
C1938 C1932 1.383 . S
C1938 C1937 1.379 . S
H1939 C1933 0.959 . S
H1940 C1933 0.961 . S
H1941 C1933 0.960 . S
H1942 C1934 0.930 . S
H1943 C1935 0.929 . S
H1944 C1952 0.929 . S
H1945 C1954 0.930 . S
H1946 C1956 0.930 . S
H1947 C1959 0.929 . S
H1948 C1962 0.930 . S
H1949 C1964 0.960 . S
H1950 C1964 0.960 . S
H1951 C1964 0.960 . S
C1952 H1944 0.929 . S
C1952 C1953 1.377 . S
C1952 C1954 1.384 . S
C1953 C1952 1.377 . S
C1953 C1959 1.390 . S
C1954 H1945 0.930 . S
C1954 C1952 1.384 . S
C1954 C1955 1.372 . S
C1955 C1954 1.372 . S
C1955 C1956 1.400 . S
C1955 C1960 1.490 . S
C1956 H1946 0.930 . S
C1956 C1955 1.400 . S
C1956 C1959 1.386 . S
H1957 C1973 0.930 . S
H1958 C1974 0.931 . S
C1959 H1947 0.929 . S
C1959 C1953 1.390 . S
C1959 C1956 1.386 . S
C1960 C1955 1.490 . S
C1960 C1962 1.395 . S
C1960 C1963 1.403 . S
H1961 C1967 0.930 . S
C1962 H1948 0.930 . S
C1962 C1960 1.395 . S
C1962 C1965 1.403 . S
C1963 C1960 1.403 . S
C1963 C1964 1.524 . S
C1963 C1967 1.400 . S
C1964 H1949 0.960 . S
C1964 H1950 0.960 . S
C1964 H1951 0.960 . S
C1964 C1963 1.524 . S
C1965 C1962 1.403 . S
C1965 C1966 1.392 . S
C1965 C1969 1.495 . S
C1966 C1965 1.392 . S
C1966 C1967 1.385 . S
C1966 C1968 1.478 . S
C1967 H1961 0.930 . S
C1967 C1963 1.400 . S
C1967 C1966 1.385 . S
C1968 C1966 1.478 . S
C1968 C1970 1.381 . S
C1968 C1974 1.383 . S
C1969 C1965 1.495 . S
C1969 H1975 0.959 . S
C1969 H1976 0.961 . S
C1969 H1977 0.960 . S
C1970 C1968 1.381 . S
C1970 C1971 1.394 . S
C1970 H1978 0.930 . S
C1971 C1970 1.394 . S
C1971 C1972 1.383 . S
C1971 H1979 0.929 . S
C1972 C1971 1.383 . S
C1972 C1973 1.377 . S
C1973 H1957 0.930 . S
C1973 C1972 1.377 . S
C1973 C1974 1.379 . S
C1974 H1958 0.931 . S
C1974 C1968 1.383 . S
C1974 C1973 1.379 . S
H1975 C1969 0.959 . S
H1976 C1969 0.961 . S
H1977 C1969 0.960 . S
H1978 C1970 0.930 . S
H1979 C1971 0.929 . S
H1980 C1988 0.929 . S
H1981 C1990 0.930 . S
H1982 C1992 0.930 . S
H1983 C1995 0.929 . S
H1984 C1998 0.930 . S
H1985 C2000 0.960 . S
H1986 C2000 0.960 . S
H1987 C2000 0.960 . S
C1988 H1980 0.929 . S
C1988 C1989 1.377 . S
C1988 C1990 1.384 . S
C1989 C1988 1.377 . S
C1989 C1995 1.390 . S
C1990 H1981 0.930 . S
C1990 C1988 1.384 . S
C1990 C1991 1.372 . S
C1991 C1990 1.372 . S
C1991 C1992 1.400 . S
C1991 C1996 1.490 . S
C1992 H1982 0.930 . S
C1992 C1991 1.400 . S
C1992 C1995 1.386 . S
H1993 C2009 0.930 . S
H1994 C2010 0.931 . S
C1995 H1983 0.929 . S
C1995 C1989 1.390 . S
C1995 C1992 1.386 . S
C1996 C1991 1.490 . S
C1996 C1998 1.395 . S
C1996 C1999 1.403 . S
H1997 C2003 0.930 . S
C1998 H1984 0.930 . S
C1998 C1996 1.395 . S
C1998 C2001 1.403 . S
C1999 C1996 1.403 . S
C1999 C2000 1.524 . S
C1999 C2003 1.400 . S
C2000 H1985 0.960 . S
C2000 H1986 0.960 . S
C2000 H1987 0.960 . S
C2000 C1999 1.524 . S
C2001 C1998 1.403 . S
C2001 C2002 1.392 . S
C2001 C2005 1.495 . S
C2002 C2001 1.392 . S
C2002 C2003 1.385 . S
C2002 C2004 1.478 . S
C2003 H1997 0.930 . S
C2003 C1999 1.400 . S
C2003 C2002 1.385 . S
C2004 C2002 1.478 . S
C2004 C2006 1.381 . S
C2004 C2010 1.383 . S
C2005 C2001 1.495 . S
C2005 H2011 0.959 . S
C2005 H2012 0.961 . S
C2005 H2013 0.960 . S
C2006 C2004 1.381 . S
C2006 C2007 1.394 . S
C2006 H2014 0.930 . S
C2007 C2006 1.394 . S
C2007 C2008 1.383 . S
C2007 H2015 0.929 . S
C2008 C2007 1.383 . S
C2008 C2009 1.377 . S
C2009 H1993 0.930 . S
C2009 C2008 1.377 . S
C2009 C2010 1.379 . S
C2010 H1994 0.931 . S
C2010 C2004 1.383 . S
C2010 C2009 1.379 . S
H2011 C2005 0.959 . S
H2012 C2005 0.961 . S
H2013 C2005 0.960 . S
H2014 C2006 0.930 . S
H2015 C2007 0.929 . S
H2016 C2024 0.929 . S
H2017 C2026 0.930 . S
H2018 C2028 0.930 . S
H2019 C2031 0.929 . S
H2020 C2034 0.930 . S
H2021 C2036 0.960 . S
H2022 C2036 0.960 . S
H2023 C2036 0.960 . S
C2024 H2016 0.929 . S
C2024 C2025 1.377 . S
C2024 C2026 1.384 . S
C2025 C2024 1.377 . S
C2025 C2031 1.390 . S
C2026 H2017 0.930 . S
C2026 C2024 1.384 . S
C2026 C2027 1.372 . S
C2027 C2026 1.372 . S
C2027 C2028 1.400 . S
C2027 C2032 1.490 . S
C2028 H2018 0.930 . S
C2028 C2027 1.400 . S
C2028 C2031 1.386 . S
H2029 C2045 0.930 . S
H2030 C2046 0.931 . S
C2031 H2019 0.929 . S
C2031 C2025 1.390 . S
C2031 C2028 1.386 . S
C2032 C2027 1.490 . S
C2032 C2034 1.395 . S
C2032 C2035 1.403 . S
H2033 C2039 0.930 . S
C2034 H2020 0.930 . S
C2034 C2032 1.395 . S
C2034 C2037 1.403 . S
C2035 C2032 1.403 . S
C2035 C2036 1.524 . S
C2035 C2039 1.400 . S
C2036 H2021 0.960 . S
C2036 H2022 0.960 . S
C2036 H2023 0.960 . S
C2036 C2035 1.524 . S
C2037 C2034 1.403 . S
C2037 C2038 1.392 . S
C2037 C2041 1.495 . S
C2038 C2037 1.392 . S
C2038 C2039 1.385 . S
C2038 C2040 1.478 . S
C2039 H2033 0.930 . S
C2039 C2035 1.400 . S
C2039 C2038 1.385 . S
C2040 C2038 1.478 . S
C2040 C2042 1.381 . S
C2040 C2046 1.383 . S
C2041 C2037 1.495 . S
C2041 H2047 0.959 . S
C2041 H2048 0.961 . S
C2041 H2049 0.960 . S
C2042 C2040 1.381 . S
C2042 C2043 1.394 . S
C2042 H2050 0.930 . S
C2043 C2042 1.394 . S
C2043 C2044 1.383 . S
C2043 H2051 0.929 . S
C2044 C2043 1.383 . S
C2044 C2045 1.377 . S
C2045 H2029 0.930 . S
C2045 C2044 1.377 . S
C2045 C2046 1.379 . S
C2046 H2030 0.931 . S
C2046 C2040 1.383 . S
C2046 C2045 1.379 . S
H2047 C2041 0.959 . S
H2048 C2041 0.961 . S
H2049 C2041 0.960 . S
H2050 C2042 0.930 . S
H2051 C2043 0.929 . S
H2052 C2060 0.929 . S
H2053 C2062 0.930 . S
H2054 C2064 0.930 . S
H2055 C2067 0.929 . S
H2056 C2070 0.930 . S
H2057 C2072 0.960 . S
H2058 C2072 0.960 . S
H2059 C2072 0.960 . S
C2060 H2052 0.929 . S
C2060 C2061 1.377 . S
C2060 C2062 1.384 . S
C2061 C2060 1.377 . S
C2061 C2067 1.390 . S
C2062 H2053 0.930 . S
C2062 C2060 1.384 . S
C2062 C2063 1.372 . S
C2063 C2062 1.372 . S
C2063 C2064 1.400 . S
C2063 C2068 1.490 . S
C2064 H2054 0.930 . S
C2064 C2063 1.400 . S
C2064 C2067 1.386 . S
H2065 C2081 0.930 . S
H2066 C2082 0.931 . S
C2067 H2055 0.929 . S
C2067 C2061 1.390 . S
C2067 C2064 1.386 . S
C2068 C2063 1.490 . S
C2068 C2070 1.395 . S
C2068 C2071 1.403 . S
H2069 C2075 0.930 . S
C2070 H2056 0.930 . S
C2070 C2068 1.395 . S
C2070 C2073 1.403 . S
C2071 C2068 1.403 . S
C2071 C2072 1.524 . S
C2071 C2075 1.400 . S
C2072 H2057 0.960 . S
C2072 H2058 0.960 . S
C2072 H2059 0.960 . S
C2072 C2071 1.524 . S
C2073 C2070 1.403 . S
C2073 C2074 1.392 . S
C2073 C2077 1.495 . S
C2074 C2073 1.392 . S
C2074 C2075 1.385 . S
C2074 C2076 1.478 . S
C2075 H2069 0.930 . S
C2075 C2071 1.400 . S
C2075 C2074 1.385 . S
C2076 C2074 1.478 . S
C2076 C2078 1.381 . S
C2076 C2082 1.383 . S
C2077 C2073 1.495 . S
C2077 H2083 0.959 . S
C2077 H2084 0.961 . S
C2077 H2085 0.960 . S
C2078 C2076 1.381 . S
C2078 C2079 1.394 . S
C2078 H2086 0.930 . S
C2079 C2078 1.394 . S
C2079 C2080 1.383 . S
C2079 H2087 0.929 . S
C2080 C2079 1.383 . S
C2080 C2081 1.377 . S
C2081 H2065 0.930 . S
C2081 C2080 1.377 . S
C2081 C2082 1.379 . S
C2082 H2066 0.931 . S
C2082 C2076 1.383 . S
C2082 C2081 1.379 . S
H2083 C2077 0.959 . S
H2084 C2077 0.961 . S
H2085 C2077 0.960 . S
H2086 C2078 0.930 . S
H2087 C2079 0.929 . S
H2088 C2096 0.929 . S
H2089 C2098 0.930 . S
H2090 C2100 0.930 . S
H2091 C2103 0.929 . S
H2092 C2106 0.930 . S
H2093 C2108 0.960 . S
H2094 C2108 0.960 . S
H2095 C2108 0.960 . S
C2096 H2088 0.929 . S
C2096 C2097 1.377 . S
C2096 C2098 1.384 . S
C2097 C2096 1.377 . S
C2097 C2103 1.390 . S
C2098 H2089 0.930 . S
C2098 C2096 1.384 . S
C2098 C2099 1.372 . S
C2099 C2098 1.372 . S
C2099 C2100 1.400 . S
C2099 C2104 1.490 . S
C2100 H2090 0.930 . S
C2100 C2099 1.400 . S
C2100 C2103 1.386 . S
H2101 C2117 0.930 . S
H2102 C2118 0.931 . S
C2103 H2091 0.929 . S
C2103 C2097 1.390 . S
C2103 C2100 1.386 . S
C2104 C2099 1.490 . S
C2104 C2106 1.395 . S
C2104 C2107 1.403 . S
H2105 C2111 0.930 . S
C2106 H2092 0.930 . S
C2106 C2104 1.395 . S
C2106 C2109 1.403 . S
C2107 C2104 1.403 . S
C2107 C2108 1.524 . S
C2107 C2111 1.400 . S
C2108 H2093 0.960 . S
C2108 H2094 0.960 . S
C2108 H2095 0.960 . S
C2108 C2107 1.524 . S
C2109 C2106 1.403 . S
C2109 C2110 1.392 . S
C2109 C2113 1.495 . S
C2110 C2109 1.392 . S
C2110 C2111 1.385 . S
C2110 C2112 1.478 . S
C2111 H2105 0.930 . S
C2111 C2107 1.400 . S
C2111 C2110 1.385 . S
C2112 C2110 1.478 . S
C2112 C2114 1.381 . S
C2112 C2118 1.383 . S
C2113 C2109 1.495 . S
C2113 H2119 0.959 . S
C2113 H2120 0.961 . S
C2113 H2121 0.960 . S
C2114 C2112 1.381 . S
C2114 C2115 1.394 . S
C2114 H2122 0.930 . S
C2115 C2114 1.394 . S
C2115 C2116 1.383 . S
C2115 H2123 0.929 . S
C2116 C2115 1.383 . S
C2116 C2117 1.377 . S
C2117 H2101 0.930 . S
C2117 C2116 1.377 . S
C2117 C2118 1.379 . S
C2118 H2102 0.931 . S
C2118 C2112 1.383 . S
C2118 C2117 1.379 . S
H2119 C2113 0.959 . S
H2120 C2113 0.961 . S
H2121 C2113 0.960 . S
H2122 C2114 0.930 . S
H2123 C2115 0.929 . S
H2124 C2132 0.929 . S
H2125 C2134 0.930 . S
H2126 C2136 0.930 . S
H2127 C2139 0.929 . S
H2128 C2142 0.930 . S
H2129 C2144 0.960 . S
H2130 C2144 0.960 . S
H2131 C2144 0.960 . S
C2132 H2124 0.929 . S
C2132 C2133 1.377 . S
C2132 C2134 1.384 . S
C2133 C2132 1.377 . S
C2133 C2139 1.390 . S
C2134 H2125 0.930 . S
C2134 C2132 1.384 . S
C2134 C2135 1.372 . S
C2135 C2134 1.372 . S
C2135 C2136 1.400 . S
C2135 C2140 1.490 . S
C2136 H2126 0.930 . S
C2136 C2135 1.400 . S
C2136 C2139 1.386 . S
H2137 C2153 0.930 . S
H2138 C2154 0.931 . S
C2139 H2127 0.929 . S
C2139 C2133 1.390 . S
C2139 C2136 1.386 . S
C2140 C2135 1.490 . S
C2140 C2142 1.395 . S
C2140 C2143 1.403 . S
H2141 C2147 0.930 . S
C2142 H2128 0.930 . S
C2142 C2140 1.395 . S
C2142 C2145 1.403 . S
C2143 C2140 1.403 . S
C2143 C2144 1.524 . S
C2143 C2147 1.400 . S
C2144 H2129 0.960 . S
C2144 H2130 0.960 . S
C2144 H2131 0.960 . S
C2144 C2143 1.524 . S
C2145 C2142 1.403 . S
C2145 C2146 1.392 . S
C2145 C2149 1.495 . S
C2146 C2145 1.392 . S
C2146 C2147 1.385 . S
C2146 C2148 1.478 . S
C2147 H2141 0.930 . S
C2147 C2143 1.400 . S
C2147 C2146 1.385 . S
C2148 C2146 1.478 . S
C2148 C2150 1.381 . S
C2148 C2154 1.383 . S
C2149 C2145 1.495 . S
C2149 H2155 0.959 . S
C2149 H2156 0.961 . S
C2149 H2157 0.960 . S
C2150 C2148 1.381 . S
C2150 C2151 1.394 . S
C2150 H2158 0.930 . S
C2151 C2150 1.394 . S
C2151 C2152 1.383 . S
C2151 H2159 0.929 . S
C2152 C2151 1.383 . S
C2152 C2153 1.377 . S
C2153 H2137 0.930 . S
C2153 C2152 1.377 . S
C2153 C2154 1.379 . S
C2154 H2138 0.931 . S
C2154 C2148 1.383 . S
C2154 C2153 1.379 . S
H2155 C2149 0.959 . S
H2156 C2149 0.961 . S
H2157 C2149 0.960 . S
H2158 C2150 0.930 . S
H2159 C2151 0.929 . S
H2160 C2168 0.929 . S
H2161 C2170 0.930 . S
H2162 C2172 0.930 . S
H2163 C2175 0.929 . S
H2164 C2178 0.930 . S
H2165 C2180 0.960 . S
H2166 C2180 0.960 . S
H2167 C2180 0.960 . S
C2168 H2160 0.929 . S
C2168 C2169 1.377 . S
C2168 C2170 1.384 . S
C2169 C2168 1.377 . S
C2169 C2175 1.390 . S
C2170 H2161 0.930 . S
C2170 C2168 1.384 . S
C2170 C2171 1.372 . S
C2171 C2170 1.372 . S
C2171 C2172 1.400 . S
C2171 C2176 1.490 . S
C2172 H2162 0.930 . S
C2172 C2171 1.400 . S
C2172 C2175 1.386 . S
H2173 C2189 0.930 . S
H2174 C2190 0.931 . S
C2175 H2163 0.929 . S
C2175 C2169 1.390 . S
C2175 C2172 1.386 . S
C2176 C2171 1.490 . S
C2176 C2178 1.395 . S
C2176 C2179 1.403 . S
H2177 C2183 0.930 . S
C2178 H2164 0.930 . S
C2178 C2176 1.395 . S
C2178 C2181 1.403 1_556 S
C2179 C2176 1.403 . S
C2179 C2180 1.524 . S
C2179 C2183 1.400 1_556 S
C2180 H2165 0.960 . S
C2180 H2166 0.960 . S
C2180 H2167 0.960 . S
C2180 C2179 1.524 . S
C2181 C2178 1.403 1_554 S
C2181 C2182 1.392 . S
C2181 C2185 1.495 . S
C2182 C2181 1.392 . S
C2182 C2183 1.385 . S
C2182 C2184 1.478 . S
C2183 H2177 0.930 . S
C2183 C2179 1.400 1_554 S
C2183 C2182 1.385 . S
C2184 C2182 1.478 . S
C2184 C2186 1.381 . S
C2184 C2190 1.383 . S
C2185 C2181 1.495 . S
C2185 H2191 0.959 . S
C2185 H2192 0.961 . S
C2185 H2193 0.960 . S
C2186 C2184 1.381 . S
C2186 C2187 1.394 . S
C2186 H2194 0.930 . S
C2187 C2186 1.394 . S
C2187 C2188 1.383 . S
C2187 H2195 0.929 . S
C2188 C2187 1.383 . S
C2188 C2189 1.377 . S
C2189 H2173 0.930 . S
C2189 C2188 1.377 . S
C2189 C2190 1.379 . S
C2190 H2174 0.931 . S
C2190 C2184 1.383 . S
C2190 C2189 1.379 . S
H2191 C2185 0.959 . S
H2192 C2185 0.961 . S
H2193 C2185 0.960 . S
H2194 C2186 0.930 . S
H2195 C2187 0.929 . S
H2196 C2204 0.929 . S
H2197 C2206 0.930 . S
H2198 C2208 0.930 . S
H2199 C2211 0.929 . S
H2200 C2214 0.930 . S
H2201 C2216 0.960 . S
H2202 C2216 0.960 . S
H2203 C2216 0.960 . S
C2204 H2196 0.929 . S
C2204 C2205 1.377 . S
C2204 C2206 1.384 . S
C2205 C2204 1.377 . S
C2205 C2211 1.390 . S
C2206 H2197 0.930 . S
C2206 C2204 1.384 . S
C2206 C2207 1.372 . S
C2207 C2206 1.372 . S
C2207 C2208 1.400 . S
C2207 C2212 1.490 . S
C2208 H2198 0.930 . S
C2208 C2207 1.400 . S
C2208 C2211 1.386 . S
H2209 C2225 0.930 . S
H2210 C2226 0.931 . S
C2211 H2199 0.929 . S
C2211 C2205 1.390 . S
C2211 C2208 1.386 . S
C2212 C2207 1.490 . S
C2212 C2214 1.395 . S
C2212 C2215 1.403 . S
H2213 C2219 0.930 . S
C2214 H2200 0.930 . S
C2214 C2212 1.395 . S
C2214 C2217 1.403 1_554 S
C2215 C2212 1.403 . S
C2215 C2216 1.524 . S
C2215 C2219 1.400 1_554 S
C2216 H2201 0.960 . S
C2216 H2202 0.960 . S
C2216 H2203 0.960 . S
C2216 C2215 1.524 . S
C2217 C2214 1.403 1_556 S
C2217 C2218 1.392 . S
C2217 C2221 1.495 . S
C2218 C2217 1.392 . S
C2218 C2219 1.385 . S
C2218 C2220 1.478 . S
C2219 H2213 0.930 . S
C2219 C2215 1.400 1_556 S
C2219 C2218 1.385 . S
C2220 C2218 1.478 . S
C2220 C2222 1.381 . S
C2220 C2226 1.383 . S
C2221 C2217 1.495 . S
C2221 H2227 0.959 . S
C2221 H2228 0.961 . S
C2221 H2229 0.960 . S
C2222 C2220 1.381 . S
C2222 C2223 1.394 . S
C2222 H2230 0.930 . S
C2223 C2222 1.394 . S
C2223 C2224 1.383 . S
C2223 H2231 0.929 . S
C2224 C2223 1.383 . S
C2224 C2225 1.377 . S
C2225 H2209 0.930 . S
C2225 C2224 1.377 . S
C2225 C2226 1.379 . S
C2226 H2210 0.931 . S
C2226 C2220 1.383 . S
C2226 C2225 1.379 . S
H2227 C2221 0.959 . S
H2228 C2221 0.961 . S
H2229 C2221 0.960 . S
H2230 C2222 0.930 . S
H2231 C2223 0.929 . S
H2232 C2240 0.929 . S
H2233 C2242 0.930 . S
H2234 C2244 0.930 . S
H2235 C2247 0.929 . S
H2236 C2250 0.930 . S
H2237 C2252 0.960 . S
H2238 C2252 0.960 . S
H2239 C2252 0.960 . S
C2240 H2232 0.929 . S
C2240 C2241 1.377 . S
C2240 C2242 1.384 . S
C2241 C2240 1.377 . S
C2241 C2247 1.390 . S
C2242 H2233 0.930 . S
C2242 C2240 1.384 . S
C2242 C2243 1.372 . S
C2243 C2242 1.372 . S
C2243 C2244 1.400 . S
C2243 C2248 1.490 . S
C2244 H2234 0.930 . S
C2244 C2243 1.400 . S
C2244 C2247 1.386 . S
H2245 C2261 0.930 . S
H2246 C2262 0.931 . S
C2247 H2235 0.929 . S
C2247 C2241 1.390 . S
C2247 C2244 1.386 . S
C2248 C2243 1.490 . S
C2248 C2250 1.395 . S
C2248 C2251 1.403 . S
H2249 C2255 0.930 . S
C2250 H2236 0.930 . S
C2250 C2248 1.395 . S
C2250 C2253 1.403 1_554 S
C2251 C2248 1.403 . S
C2251 C2252 1.524 . S
C2251 C2255 1.400 1_554 S
C2252 H2237 0.960 . S
C2252 H2238 0.960 . S
C2252 H2239 0.960 . S
C2252 C2251 1.524 . S
C2253 C2250 1.403 1_556 S
C2253 C2254 1.392 . S
C2253 C2257 1.495 . S
C2254 C2253 1.392 . S
C2254 C2255 1.385 . S
C2254 C2256 1.478 . S
C2255 H2249 0.930 . S
C2255 C2251 1.400 1_556 S
C2255 C2254 1.385 . S
C2256 C2254 1.478 . S
C2256 C2258 1.381 . S
C2256 C2262 1.383 . S
C2257 C2253 1.495 . S
C2257 H2263 0.959 . S
C2257 H2264 0.961 . S
C2257 H2265 0.960 . S
C2258 C2256 1.381 . S
C2258 C2259 1.394 . S
C2258 H2266 0.930 . S
C2259 C2258 1.394 . S
C2259 C2260 1.383 . S
C2259 H2267 0.929 . S
C2260 C2259 1.383 . S
C2260 C2261 1.377 . S
C2261 H2245 0.930 . S
C2261 C2260 1.377 . S
C2261 C2262 1.379 . S
C2262 H2246 0.931 . S
C2262 C2256 1.383 . S
C2262 C2261 1.379 . S
H2263 C2257 0.959 . S
H2264 C2257 0.961 . S
H2265 C2257 0.960 . S
H2266 C2258 0.930 . S
H2267 C2259 0.929 . S
H2268 C2276 0.929 . S
H2269 C2278 0.930 . S
H2270 C2280 0.930 . S
H2271 C2283 0.929 . S
H2272 C2286 0.930 . S
H2273 C2288 0.960 . S
H2274 C2288 0.960 . S
H2275 C2288 0.960 . S
C2276 H2268 0.929 . S
C2276 C2277 1.377 . S
C2276 C2278 1.384 . S
C2277 C2276 1.377 . S
C2277 C2283 1.390 . S
C2278 H2269 0.930 . S
C2278 C2276 1.384 . S
C2278 C2279 1.372 . S
C2279 C2278 1.372 . S
C2279 C2280 1.400 . S
C2279 C2284 1.490 . S
C2280 H2270 0.930 . S
C2280 C2279 1.400 . S
C2280 C2283 1.386 . S
H2281 C2297 0.930 . S
H2282 C2298 0.931 . S
C2283 H2271 0.929 . S
C2283 C2277 1.390 . S
C2283 C2280 1.386 . S
C2284 C2279 1.490 . S
C2284 C2286 1.395 . S
C2284 C2287 1.403 . S
H2285 C2291 0.930 . S
C2286 H2272 0.930 . S
C2286 C2284 1.395 . S
C2286 C2289 1.403 1_556 S
C2287 C2284 1.403 . S
C2287 C2288 1.524 . S
C2287 C2291 1.400 1_556 S
C2288 H2273 0.960 . S
C2288 H2274 0.960 . S
C2288 H2275 0.960 . S
C2288 C2287 1.524 . S
C2289 C2286 1.403 1_554 S
C2289 C2290 1.392 . S
C2289 C2293 1.495 . S
C2290 C2289 1.392 . S
C2290 C2291 1.385 . S
C2290 C2292 1.478 . S
C2291 H2285 0.930 . S
C2291 C2287 1.400 1_554 S
C2291 C2290 1.385 . S
C2292 C2290 1.478 . S
C2292 C2294 1.381 . S
C2292 C2298 1.383 . S
C2293 C2289 1.495 . S
C2293 H2299 0.959 . S
C2293 H2300 0.961 . S
C2293 H2301 0.960 . S
C2294 C2292 1.381 . S
C2294 C2295 1.394 . S
C2294 H2302 0.930 . S
C2295 C2294 1.394 . S
C2295 C2296 1.383 . S
C2295 H2303 0.929 . S
C2296 C2295 1.383 . S
C2296 C2297 1.377 . S
C2297 H2281 0.930 . S
C2297 C2296 1.377 . S
C2297 C2298 1.379 . S
C2298 H2282 0.931 . S
C2298 C2292 1.383 . S
C2298 C2297 1.379 . S
H2299 C2293 0.959 . S
H2300 C2293 0.961 . S
H2301 C2293 0.960 . S
H2302 C2294 0.930 . S
H2303 C2295 0.929 . S
H2304 C2312 0.929 . S
H2305 C2314 0.930 . S
H2306 C2316 0.930 . S
H2307 C2319 0.929 . S
H2308 C2322 0.930 . S
H2309 C2324 0.960 . S
H2310 C2324 0.960 1_545 S
H2311 C2324 0.960 1_545 S
C2312 H2304 0.929 . S
C2312 C2313 1.377 . S
C2312 C2314 1.384 . S
C2313 C2312 1.377 . S
C2313 C2319 1.390 . S
C2314 H2305 0.930 . S
C2314 C2312 1.384 . S
C2314 C2315 1.372 . S
C2315 C2314 1.372 . S
C2315 C2316 1.400 . S
C2315 C2320 1.490 . S
C2316 H2306 0.930 . S
C2316 C2315 1.400 . S
C2316 C2319 1.386 . S
H2317 C2333 0.930 . S
H2318 C2334 0.931 . S
C2319 H2307 0.929 . S
C2319 C2313 1.390 . S
C2319 C2316 1.386 . S
C2320 C2315 1.490 . S
C2320 C2322 1.395 . S
C2320 C2323 1.366 1_545 S
H2321 C2327 0.930 . S
C2322 H2308 0.930 . S
C2322 C2320 1.395 . S
C2322 C2325 1.403 . S
C2323 C2320 1.366 1_565 S
C2323 C2324 1.530 . S
C2323 C2327 1.433 . S
C2324 H2309 0.960 . S
C2324 H2310 0.960 1_565 S
C2324 H2311 0.960 1_565 S
C2324 C2323 1.530 . S
C2325 C2322 1.403 . S
C2325 C2326 1.392 1_545 S
C2325 C2329 1.495 . S
C2326 C2325 1.392 1_565 S
C2326 C2327 1.385 . S
C2326 C2328 1.478 . S
C2327 H2321 0.930 . S
C2327 C2323 1.433 . S
C2327 C2326 1.385 . S
C2328 C2326 1.478 . S
C2328 C2330 1.381 . S
C2328 C2334 1.383 . S
C2329 C2325 1.495 . S
C2329 H2335 0.959 . S
C2329 H2336 0.946 1_545 S
C2329 H2337 0.956 1_545 S
C2330 C2328 1.381 . S
C2330 C2331 1.394 . S
C2330 H2338 0.930 . S
C2331 C2330 1.394 . S
C2331 C2332 1.383 . S
C2331 H2339 0.929 . S
C2332 C2331 1.383 . S
C2332 C2333 1.377 . S
C2333 H2317 0.930 . S
C2333 C2332 1.377 . S
C2333 C2334 1.379 . S
C2334 H2318 0.931 . S
C2334 C2328 1.383 . S
C2334 C2333 1.379 . S
H2335 C2329 0.959 . S
H2336 C2329 0.946 1_565 S
H2337 C2329 0.956 1_565 S
H2338 C2330 0.930 . S
H2339 C2331 0.929 . S
H2340 C2348 0.929 . S
H2341 C2350 0.930 . S
H2342 C2352 0.930 . S
H2343 C2355 0.929 . S
H2344 C2358 0.929 1_655 S
H2345 C2360 0.960 . S
H2346 C2360 0.960 . S
H2347 C2360 0.960 . S
C2348 H2340 0.929 . S
C2348 C2349 1.377 . S
C2348 C2350 1.384 . S
C2349 C2348 1.377 . S
C2349 C2355 1.390 . S
C2350 H2341 0.930 . S
C2350 C2348 1.384 . S
C2350 C2351 1.372 . S
C2351 C2350 1.372 . S
C2351 C2352 1.400 . S
C2351 C2356 1.490 . S
C2352 H2342 0.930 . S
C2352 C2351 1.400 . S
C2352 C2355 1.386 . S
H2353 C2369 0.930 . S
H2354 C2370 0.931 . S
C2355 H2343 0.929 . S
C2355 C2349 1.390 . S
C2355 C2352 1.386 . S
C2356 C2351 1.490 . S
C2356 C2358 1.377 1_655 S
C2356 C2359 1.403 . S
H2357 C2363 0.930 . S
C2358 H2344 0.929 1_455 S
C2358 C2356 1.377 1_455 S
C2358 C2361 1.422 . S
C2359 C2356 1.403 . S
C2359 C2360 1.524 . S
C2359 C2363 1.400 1_655 S
C2360 H2345 0.960 . S
C2360 H2346 0.960 . S
C2360 H2347 0.960 . S
C2360 C2359 1.524 . S
C2361 C2358 1.422 . S
C2361 C2362 1.392 . S
C2361 C2365 1.495 . S
C2362 C2361 1.392 . S
C2362 C2363 1.385 . S
C2362 C2364 1.478 . S
C2363 H2357 0.930 . S
C2363 C2359 1.400 1_455 S
C2363 C2362 1.385 . S
C2364 C2362 1.478 . S
C2364 C2366 1.381 . S
C2364 C2370 1.383 . S
C2365 C2361 1.495 . S
C2365 H2371 0.959 . S
C2365 H2372 0.961 . S
C2365 H2373 0.960 . S
C2366 C2364 1.381 . S
C2366 C2367 1.394 . S
C2366 H2374 0.930 . S
C2367 C2366 1.394 . S
C2367 C2368 1.383 . S
C2367 H2375 0.929 . S
C2368 C2367 1.383 . S
C2368 C2369 1.377 . S
C2369 H2353 0.930 . S
C2369 C2368 1.377 . S
C2369 C2370 1.379 . S
C2370 H2354 0.931 . S
C2370 C2364 1.383 . S
C2370 C2369 1.379 . S
H2371 C2365 0.959 . S
H2372 C2365 0.961 . S
H2373 C2365 0.960 . S
H2374 C2366 0.930 . S
H2375 C2367 0.929 . S
H2376 C2384 0.929 . S
H2377 C2386 0.930 . S
H2378 C2388 0.930 . S
H2379 C2391 0.929 . S
H2380 C2394 0.930 . S
H2381 C2396 0.960 . S
H2382 C2396 0.960 . S
H2383 C2396 0.960 . S
C2384 H2376 0.929 . S
C2384 C2385 1.377 . S
C2384 C2386 1.384 . S
C2385 C2384 1.377 . S
C2385 C2391 1.390 . S
C2386 H2377 0.930 . S
C2386 C2384 1.384 . S
C2386 C2387 1.372 . S
C2387 C2386 1.372 . S
C2387 C2388 1.400 . S
C2387 C2392 1.490 . S
C2388 H2378 0.930 . S
C2388 C2387 1.400 . S
C2388 C2391 1.386 . S
H2389 C2405 0.930 . S
H2390 C2406 0.931 . S
C2391 H2379 0.929 . S
C2391 C2385 1.390 . S
C2391 C2388 1.386 . S
C2392 C2387 1.490 . S
C2392 C2394 1.395 . S
C2392 C2395 1.403 . S
H2393 C2399 0.930 . S
C2394 H2380 0.930 . S
C2394 C2392 1.395 . S
C2394 C2397 1.403 1_545 S
C2395 C2392 1.403 . S
C2395 C2396 1.524 . S
C2395 C2399 1.400 1_545 S
C2396 H2381 0.960 . S
C2396 H2382 0.960 . S
C2396 H2383 0.960 . S
C2396 C2395 1.524 . S
C2397 C2394 1.403 1_565 S
C2397 C2398 1.392 . S
C2397 C2401 1.495 . S
C2398 C2397 1.392 . S
C2398 C2399 1.385 . S
C2398 C2400 1.478 . S
C2399 H2393 0.930 . S
C2399 C2395 1.400 1_565 S
C2399 C2398 1.385 . S
C2400 C2398 1.478 . S
C2400 C2402 1.381 . S
C2400 C2406 1.383 . S
C2401 C2397 1.495 . S
C2401 H2407 0.959 . S
C2401 H2408 0.961 . S
C2401 H2409 0.960 . S
C2402 C2400 1.381 . S
C2402 C2403 1.394 . S
C2402 H2410 0.930 . S
C2403 C2402 1.394 . S
C2403 C2404 1.383 . S
C2403 H2411 0.929 . S
C2404 C2403 1.383 . S
C2404 C2405 1.377 . S
C2405 H2389 0.930 . S
C2405 C2404 1.377 . S
C2405 C2406 1.379 . S
C2406 H2390 0.931 . S
C2406 C2400 1.383 . S
C2406 C2405 1.379 . S
H2407 C2401 0.959 . S
H2408 C2401 0.961 . S
H2409 C2401 0.960 . S
H2410 C2402 0.930 . S
H2411 C2403 0.929 . S
H2412 C2420 0.929 . S
H2413 C2422 0.930 . S
H2414 C2424 0.930 . S
H2415 C2427 0.929 . S
H2416 C2430 0.930 . S
H2417 C2432 0.960 . S
H2418 C2432 0.960 1_455 S
H2419 C2432 0.960 1_455 S
C2420 H2412 0.929 . S
C2420 C2421 1.377 . S
C2420 C2422 1.384 . S
C2421 C2420 1.377 . S
C2421 C2427 1.390 . S
C2422 H2413 0.930 . S
C2422 C2420 1.384 . S
C2422 C2423 1.372 . S
C2423 C2422 1.372 . S
C2423 C2424 1.400 . S
C2423 C2428 1.490 . S
C2424 H2414 0.930 . S
C2424 C2423 1.400 . S
C2424 C2427 1.386 . S
H2425 C2441 0.930 . S
H2426 C2442 0.931 . S
C2427 H2415 0.929 . S
C2427 C2421 1.390 . S
C2427 C2424 1.386 . S
C2428 C2423 1.490 . S
C2428 C2430 1.395 . S
C2428 C2431 1.360 1_455 S
H2429 C2435 0.930 . S
C2430 H2416 0.930 . S
C2430 C2428 1.395 . S
C2430 C2433 1.403 . S
C2431 C2428 1.360 1_655 S
C2431 C2432 1.531 . S
C2431 C2435 1.437 . S
C2432 H2417 0.960 . S
C2432 H2418 0.960 1_655 S
C2432 H2419 0.960 1_655 S
C2432 C2431 1.531 . S
C2433 C2430 1.403 . S
C2433 C2434 1.392 1_455 S
C2433 C2437 1.495 . S
C2434 C2433 1.392 1_655 S
C2434 C2435 1.385 . S
C2434 C2436 1.478 . S
C2435 H2429 0.930 . S
C2435 C2431 1.437 . S
C2435 C2434 1.385 . S
C2436 C2434 1.478 . S
C2436 C2438 1.381 . S
C2436 C2442 1.383 . S
C2437 C2433 1.495 . S
C2437 H2443 0.959 . S
C2437 H2444 0.962 . S
C2437 H2445 0.930 1_455 S
C2438 C2436 1.381 . S
C2438 C2439 1.394 . S
C2438 H2446 0.930 . S
C2439 C2438 1.394 . S
C2439 C2440 1.383 . S
C2439 H2447 0.929 . S
C2440 C2439 1.383 . S
C2440 C2441 1.377 . S
C2441 H2425 0.930 . S
C2441 C2440 1.377 . S
C2441 C2442 1.379 . S
C2442 H2426 0.931 . S
C2442 C2436 1.383 . S
C2442 C2441 1.379 . S
H2443 C2437 0.959 . S
H2444 C2437 0.962 . S
H2445 C2437 0.930 1_655 S
H2446 C2438 0.930 . S
H2447 C2439 0.929 . S
H2448 C2456 0.929 . S
H2449 C2458 0.930 . S
H2450 C2460 0.930 . S
H2451 C2463 0.929 . S
H2452 C2466 0.930 . S
H2453 C2468 0.960 . S
H2454 C2468 0.960 . S
H2455 C2468 0.960 . S
C2456 H2448 0.929 . S
C2456 C2457 1.377 . S
C2456 C2458 1.384 . S
C2457 C2456 1.377 . S
C2457 C2463 1.390 . S
C2458 H2449 0.930 . S
C2458 C2456 1.384 . S
C2458 C2459 1.372 . S
C2459 C2458 1.372 . S
C2459 C2460 1.400 . S
C2459 C2464 1.490 . S
C2460 H2450 0.930 . S
C2460 C2459 1.400 . S
C2460 C2463 1.386 . S
H2461 C2477 0.930 . S
H2462 C2478 0.931 . S
C2463 H2451 0.929 . S
C2463 C2457 1.390 . S
C2463 C2460 1.386 . S
C2464 C2459 1.490 . S
C2464 C2466 1.395 . S
C2464 C2467 1.403 . S
H2465 C2471 0.930 . S
C2466 H2452 0.930 . S
C2466 C2464 1.395 . S
C2466 C2469 1.403 1_565 S
C2467 C2464 1.403 . S
C2467 C2468 1.524 . S
C2467 C2471 1.400 1_565 S
C2468 H2453 0.960 . S
C2468 H2454 0.960 . S
C2468 H2455 0.960 . S
C2468 C2467 1.524 . S
C2469 C2466 1.403 1_545 S
C2469 C2470 1.392 . S
C2469 C2473 1.495 . S
C2470 C2469 1.392 . S
C2470 C2471 1.385 . S
C2470 C2472 1.478 . S
C2471 H2465 0.930 . S
C2471 C2467 1.400 1_545 S
C2471 C2470 1.385 . S
C2472 C2470 1.478 . S
C2472 C2474 1.381 . S
C2472 C2478 1.383 . S
C2473 C2469 1.495 . S
C2473 H2479 0.959 . S
C2473 H2480 0.961 . S
C2473 H2481 0.960 . S
C2474 C2472 1.381 . S
C2474 C2475 1.394 . S
C2474 H2482 0.930 . S
C2475 C2474 1.394 . S
C2475 C2476 1.383 . S
C2475 H2483 0.929 . S
C2476 C2475 1.383 . S
C2476 C2477 1.377 . S
C2477 H2461 0.930 . S
C2477 C2476 1.377 . S
C2477 C2478 1.379 . S
C2478 H2462 0.931 . S
C2478 C2472 1.383 . S
C2478 C2477 1.379 . S
H2479 C2473 0.959 . S
H2480 C2473 0.961 . S
H2481 C2473 0.960 . S
H2482 C2474 0.930 . S
H2483 C2475 0.929 . S
H2484 C2492 0.929 . S
H2485 C2494 0.930 . S
H2486 C2496 0.930 . S
H2487 C2499 0.929 . S
H2488 C2502 0.927 . S
H2489 C2504 0.960 . S
H2490 C2504 0.960 . S
H2491 C2504 0.960 . S
C2492 H2484 0.929 . S
C2492 C2493 1.377 . S
C2492 C2494 1.384 . S
C2493 C2492 1.377 . S
C2493 C2499 1.390 . S
C2494 H2485 0.930 . S
C2494 C2492 1.384 . S
C2494 C2495 1.372 . S
C2495 C2494 1.372 . S
C2495 C2496 1.400 . S
C2495 C2500 1.490 . S
C2496 H2486 0.930 . S
C2496 C2495 1.400 . S
C2496 C2499 1.386 . S
H2497 C2513 0.930 . S
H2498 C2514 0.931 . S
C2499 H2487 0.929 . S
C2499 C2493 1.390 . S
C2499 C2496 1.386 . S
C2500 C2495 1.490 . S
C2500 C2502 1.391 . S
C2500 C2503 1.403 . S
H2501 C2507 0.930 . S
C2502 H2488 0.927 . S
C2502 C2500 1.391 . S
C2502 C2505 1.407 1_655 S
C2503 C2500 1.403 . S
C2503 C2504 1.524 . S
C2503 C2507 1.400 1_655 S
C2504 H2489 0.960 . S
C2504 H2490 0.960 . S
C2504 H2491 0.960 . S
C2504 C2503 1.524 . S
C2505 C2502 1.407 1_455 S
C2505 C2506 1.392 . S
C2505 C2509 1.495 . S
C2506 C2505 1.392 . S
C2506 C2507 1.385 . S
C2506 C2508 1.478 . S
C2507 H2501 0.930 . S
C2507 C2503 1.400 1_455 S
C2507 C2506 1.385 . S
C2508 C2506 1.478 . S
C2508 C2510 1.381 . S
C2508 C2514 1.383 . S
C2509 C2505 1.495 . S
C2509 H2515 0.959 . S
C2509 H2516 0.961 . S
C2509 H2517 0.960 . S
C2510 C2508 1.381 . S
C2510 C2511 1.394 . S
C2510 H2518 0.930 . S
C2511 C2510 1.394 . S
C2511 C2512 1.383 . S
C2511 H2519 0.929 . S
C2512 C2511 1.383 . S
C2512 C2513 1.377 . S
C2513 H2497 0.930 . S
C2513 C2512 1.377 . S
C2513 C2514 1.379 . S
C2514 H2498 0.931 . S
C2514 C2508 1.383 . S
C2514 C2513 1.379 . S
H2515 C2509 0.959 . S
H2516 C2509 0.961 . S
H2517 C2509 0.960 . S
H2518 C2510 0.930 . S
H2519 C2511 0.929 . S
H2520 C2528 0.929 . S
H2521 C2530 0.930 . S
H2522 C2532 0.930 . S
H2523 C2535 0.929 . S
H2524 C2538 0.930 . S
H2525 C2540 0.960 . S
H2526 C2540 0.960 . S
H2527 C2540 0.960 . S
C2528 H2520 0.929 . S
C2528 C2529 1.377 . S
C2528 C2530 1.384 . S
C2529 C2528 1.377 . S
C2529 C2535 1.390 . S
C2530 H2521 0.930 . S
C2530 C2528 1.384 . S
C2530 C2531 1.372 . S
C2531 C2530 1.372 . S
C2531 C2532 1.400 . S
C2531 C2536 1.490 . S
C2532 H2522 0.930 . S
C2532 C2531 1.400 . S
C2532 C2535 1.386 . S
H2533 C2549 0.930 . S
H2534 C2550 0.931 . S
C2535 H2523 0.929 . S
C2535 C2529 1.390 . S
C2535 C2532 1.386 . S
C2536 C2531 1.490 . S
C2536 C2538 1.395 . S
C2536 C2539 1.403 . S
H2537 C2543 0.930 . S
C2538 H2524 0.930 . S
C2538 C2536 1.395 . S
C2538 C2541 1.403 1_565 S
C2539 C2536 1.403 . S
C2539 C2540 1.524 . S
C2539 C2543 1.400 1_565 S
C2540 H2525 0.960 . S
C2540 H2526 0.960 . S
C2540 H2527 0.960 . S
C2540 C2539 1.524 . S
C2541 C2538 1.403 1_545 S
C2541 C2542 1.392 . S
C2541 C2545 1.495 . S
C2542 C2541 1.392 . S
C2542 C2543 1.385 . S
C2542 C2544 1.478 . S
C2543 H2537 0.930 . S
C2543 C2539 1.400 1_545 S
C2543 C2542 1.385 . S
C2544 C2542 1.478 . S
C2544 C2546 1.381 . S
C2544 C2550 1.383 . S
C2545 C2541 1.495 . S
C2545 H2551 0.959 . S
C2545 H2552 0.961 . S
C2545 H2553 0.960 . S
C2546 C2544 1.381 . S
C2546 C2547 1.394 . S
C2546 H2554 0.930 . S
C2547 C2546 1.394 . S
C2547 C2548 1.383 . S
C2547 H2555 0.929 . S
C2548 C2547 1.383 . S
C2548 C2549 1.377 . S
C2549 H2533 0.930 . S
C2549 C2548 1.377 . S
C2549 C2550 1.379 . S
C2550 H2534 0.931 . S
C2550 C2544 1.383 . S
C2550 C2549 1.379 . S
H2551 C2545 0.959 . S
H2552 C2545 0.961 . S
H2553 C2545 0.960 . S
H2554 C2546 0.930 . S
H2555 C2547 0.929 . S
H2556 C2564 0.929 . S
H2557 C2566 0.930 . S
H2558 C2568 0.930 . S
H2559 C2571 0.929 . S
H2560 C2574 0.930 . S
H2561 C2576 0.960 . S
H2562 C2576 0.960 . S
H2563 C2576 0.960 . S
C2564 H2556 0.929 . S
C2564 C2565 1.377 . S
C2564 C2566 1.384 . S
C2565 C2564 1.377 . S
C2565 C2571 1.390 . S
C2566 H2557 0.930 . S
C2566 C2564 1.384 . S
C2566 C2567 1.372 . S
C2567 C2566 1.372 . S
C2567 C2568 1.400 . S
C2567 C2572 1.490 . S
C2568 H2558 0.930 . S
C2568 C2567 1.400 . S
C2568 C2571 1.386 . S
H2569 C2585 0.930 . S
H2570 C2586 0.931 . S
C2571 H2559 0.929 . S
C2571 C2565 1.390 . S
C2571 C2568 1.386 . S
C2572 C2567 1.490 . S
C2572 C2574 1.395 . S
C2572 C2575 1.403 . S
H2573 C2579 0.930 . S
C2574 H2560 0.930 . S
C2574 C2572 1.395 . S
C2574 C2577 1.403 1_655 S
C2575 C2572 1.403 . S
C2575 C2576 1.524 . S
C2575 C2579 1.400 1_655 S
C2576 H2561 0.960 . S
C2576 H2562 0.960 . S
C2576 H2563 0.960 . S
C2576 C2575 1.524 . S
C2577 C2574 1.403 1_455 S
C2577 C2578 1.392 . S
C2577 C2581 1.495 . S
C2578 C2577 1.392 . S
C2578 C2579 1.385 . S
C2578 C2580 1.478 . S
C2579 H2573 0.930 . S
C2579 C2575 1.400 1_455 S
C2579 C2578 1.385 . S
C2580 C2578 1.478 . S
C2580 C2582 1.381 . S
C2580 C2586 1.383 . S
C2581 C2577 1.495 . S
C2581 H2587 0.959 . S
C2581 H2588 0.961 . S
C2581 H2589 0.960 . S
C2582 C2580 1.381 . S
C2582 C2583 1.394 . S
C2582 H2590 0.930 . S
C2583 C2582 1.394 . S
C2583 C2584 1.383 . S
C2583 H2591 0.929 . S
C2584 C2583 1.383 . S
C2584 C2585 1.377 . S
C2585 H2569 0.930 . S
C2585 C2584 1.377 . S
C2585 C2586 1.379 . S
C2586 H2570 0.931 . S
C2586 C2580 1.383 . S
C2586 C2585 1.379 . S
H2587 C2581 0.959 . S
H2588 C2581 0.961 . S
H2589 C2581 0.960 . S
H2590 C2582 0.930 . S
H2591 C2583 0.929 . S
H2592 C2600 0.929 . S
H2593 C2602 0.930 . S
H2594 C2604 0.930 . S
H2595 C2607 0.929 . S
H2596 C2610 0.930 . S
H2597 C2612 0.960 . S
H2598 C2612 0.960 . S
H2599 C2612 0.960 . S
C2600 H2592 0.929 . S
C2600 C2601 1.377 . S
C2600 C2602 1.384 . S
C2601 C2600 1.377 . S
C2601 C2607 1.390 . S
C2602 H2593 0.930 . S
C2602 C2600 1.384 . S
C2602 C2603 1.372 . S
C2603 C2602 1.372 . S
C2603 C2604 1.400 . S
C2603 C2608 1.490 . S
C2604 H2594 0.930 . S
C2604 C2603 1.400 . S
C2604 C2607 1.386 . S
H2605 C2621 0.930 . S
H2606 C2622 0.931 . S
C2607 H2595 0.929 . S
C2607 C2601 1.390 . S
C2607 C2604 1.386 . S
C2608 C2603 1.490 . S
C2608 C2610 1.395 . S
C2608 C2611 1.403 . S
H2609 C2615 0.930 . S
C2610 H2596 0.930 . S
C2610 C2608 1.395 . S
C2610 C2613 1.403 . S
C2611 C2608 1.403 . S
C2611 C2612 1.524 . S
C2611 C2615 1.400 . S
C2612 H2597 0.960 . S
C2612 H2598 0.960 . S
C2612 H2599 0.960 . S
C2612 C2611 1.524 . S
C2613 C2610 1.403 . S
C2613 C2614 1.392 . S
C2613 C2617 1.495 . S
C2614 C2613 1.392 . S
C2614 C2615 1.385 . S
C2614 C2616 1.478 . S
C2615 H2609 0.930 . S
C2615 C2611 1.400 . S
C2615 C2614 1.385 . S
C2616 C2614 1.478 . S
C2616 C2618 1.381 . S
C2616 C2622 1.383 . S
C2617 C2613 1.495 . S
C2617 H2623 0.959 . S
C2617 H2624 0.961 . S
C2617 H2625 0.960 . S
C2618 C2616 1.381 . S
C2618 C2619 1.394 . S
C2618 H2626 0.930 . S
C2619 C2618 1.394 . S
C2619 C2620 1.383 . S
C2619 H2627 0.929 . S
C2620 C2619 1.383 . S
C2620 C2621 1.377 . S
C2621 H2605 0.930 . S
C2621 C2620 1.377 . S
C2621 C2622 1.379 . S
C2622 H2606 0.931 . S
C2622 C2616 1.383 . S
C2622 C2621 1.379 . S
H2623 C2617 0.959 . S
H2624 C2617 0.961 . S
H2625 C2617 0.960 . S
H2626 C2618 0.930 . S
H2627 C2619 0.929 . S
H2628 C2636 0.929 . S
H2629 C2638 0.930 . S
H2630 C2640 0.930 . S
H2631 C2643 0.929 . S
H2632 C2646 0.930 . S
H2633 C2648 0.960 . S
H2634 C2648 0.960 . S
H2635 C2648 0.960 . S
C2636 H2628 0.929 . S
C2636 C2637 1.377 . S
C2636 C2638 1.384 . S
C2637 C2636 1.377 . S
C2637 C2643 1.390 . S
C2638 H2629 0.930 . S
C2638 C2636 1.384 . S
C2638 C2639 1.372 . S
C2639 C2638 1.372 . S
C2639 C2640 1.400 . S
C2639 C2644 1.490 . S
C2640 H2630 0.930 . S
C2640 C2639 1.400 . S
C2640 C2643 1.386 . S
H2641 C2657 0.930 . S
H2642 C2658 0.931 . S
C2643 H2631 0.929 . S
C2643 C2637 1.390 . S
C2643 C2640 1.386 . S
C2644 C2639 1.490 . S
C2644 C2646 1.395 . S
C2644 C2647 1.403 . S
H2645 C2651 0.930 . S
C2646 H2632 0.930 . S
C2646 C2644 1.395 . S
C2646 C2649 1.403 . S
C2647 C2644 1.403 . S
C2647 C2648 1.524 . S
C2647 C2651 1.400 . S
C2648 H2633 0.960 . S
C2648 H2634 0.960 . S
C2648 H2635 0.960 . S
C2648 C2647 1.524 . S
C2649 C2646 1.403 . S
C2649 C2650 1.392 . S
C2649 C2653 1.495 . S
C2650 C2649 1.392 . S
C2650 C2651 1.385 . S
C2650 C2652 1.478 . S
C2651 H2645 0.930 . S
C2651 C2647 1.400 . S
C2651 C2650 1.385 . S
C2652 C2650 1.478 . S
C2652 C2654 1.381 . S
C2652 C2658 1.383 . S
C2653 C2649 1.495 . S
C2653 H2659 0.959 . S
C2653 H2660 0.961 . S
C2653 H2661 0.960 . S
C2654 C2652 1.381 . S
C2654 C2655 1.394 . S
C2654 H2662 0.930 . S
C2655 C2654 1.394 . S
C2655 C2656 1.383 . S
C2655 H2663 0.929 . S
C2656 C2655 1.383 . S
C2656 C2657 1.377 . S
C2657 H2641 0.930 . S
C2657 C2656 1.377 . S
C2657 C2658 1.379 . S
C2658 H2642 0.931 . S
C2658 C2652 1.383 . S
C2658 C2657 1.379 . S
H2659 C2653 0.959 . S
H2660 C2653 0.961 . S
H2661 C2653 0.960 . S
H2662 C2654 0.930 . S
H2663 C2655 0.929 . S
H2664 C2672 0.929 . S
H2665 C2674 0.930 . S
H2666 C2676 0.930 . S
H2667 C2679 0.929 . S
H2668 C2682 0.930 . S
H2669 C2684 0.960 . S
H2670 C2684 0.960 . S
H2671 C2684 0.960 . S
C2672 H2664 0.929 . S
C2672 C2673 1.377 . S
C2672 C2674 1.384 . S
C2673 C2672 1.377 . S
C2673 C2679 1.390 . S
C2674 H2665 0.930 . S
C2674 C2672 1.384 . S
C2674 C2675 1.372 . S
C2675 C2674 1.372 . S
C2675 C2676 1.400 . S
C2675 C2680 1.490 . S
C2676 H2666 0.930 . S
C2676 C2675 1.400 . S
C2676 C2679 1.386 . S
H2677 C2693 0.930 . S
H2678 C2694 0.931 . S
C2679 H2667 0.929 . S
C2679 C2673 1.390 . S
C2679 C2676 1.386 . S
C2680 C2675 1.490 . S
C2680 C2682 1.395 . S
C2680 C2683 1.403 . S
H2681 C2687 0.930 . S
C2682 H2668 0.930 . S
C2682 C2680 1.395 . S
C2682 C2685 1.403 . S
C2683 C2680 1.403 . S
C2683 C2684 1.524 . S
C2683 C2687 1.400 . S
C2684 H2669 0.960 . S
C2684 H2670 0.960 . S
C2684 H2671 0.960 . S
C2684 C2683 1.524 . S
C2685 C2682 1.403 . S
C2685 C2686 1.392 . S
C2685 C2689 1.495 . S
C2686 C2685 1.392 . S
C2686 C2687 1.385 . S
C2686 C2688 1.478 . S
C2687 H2681 0.930 . S
C2687 C2683 1.400 . S
C2687 C2686 1.385 . S
C2688 C2686 1.478 . S
C2688 C2690 1.381 . S
C2688 C2694 1.383 . S
C2689 C2685 1.495 . S
C2689 H2695 0.959 . S
C2689 H2696 0.961 . S
C2689 H2697 0.960 . S
C2690 C2688 1.381 . S
C2690 C2691 1.394 . S
C2690 H2698 0.930 . S
C2691 C2690 1.394 . S
C2691 C2692 1.383 . S
C2691 H2699 0.929 . S
C2692 C2691 1.383 . S
C2692 C2693 1.377 . S
C2693 H2677 0.930 . S
C2693 C2692 1.377 . S
C2693 C2694 1.379 . S
C2694 H2678 0.931 . S
C2694 C2688 1.383 . S
C2694 C2693 1.379 . S
H2695 C2689 0.959 . S
H2696 C2689 0.961 . S
H2697 C2689 0.960 . S
H2698 C2690 0.930 . S
H2699 C2691 0.929 . S
H2700 C2708 0.929 . S
H2701 C2710 0.930 . S
H2702 C2712 0.930 . S
H2703 C2715 0.929 . S
H2704 C2718 0.930 . S
H2705 C2720 0.960 . S
H2706 C2720 0.960 . S
H2707 C2720 0.960 . S
C2708 H2700 0.929 . S
C2708 C2709 1.377 . S
C2708 C2710 1.384 . S
C2709 C2708 1.377 . S
C2709 C2715 1.390 . S
C2710 H2701 0.930 . S
C2710 C2708 1.384 . S
C2710 C2711 1.372 . S
C2711 C2710 1.372 . S
C2711 C2712 1.400 . S
C2711 C2716 1.490 . S
C2712 H2702 0.930 . S
C2712 C2711 1.400 . S
C2712 C2715 1.386 . S
H2713 C2729 0.930 . S
H2714 C2730 0.931 . S
C2715 H2703 0.929 . S
C2715 C2709 1.390 . S
C2715 C2712 1.386 . S
C2716 C2711 1.490 . S
C2716 C2718 1.395 . S
C2716 C2719 1.403 . S
H2717 C2723 0.930 . S
C2718 H2704 0.930 . S
C2718 C2716 1.395 . S
C2718 C2721 1.403 . S
C2719 C2716 1.403 . S
C2719 C2720 1.524 . S
C2719 C2723 1.400 . S
C2720 H2705 0.960 . S
C2720 H2706 0.960 . S
C2720 H2707 0.960 . S
C2720 C2719 1.524 . S
C2721 C2718 1.403 . S
C2721 C2722 1.392 . S
C2721 C2725 1.495 . S
C2722 C2721 1.392 . S
C2722 C2723 1.385 . S
C2722 C2724 1.478 . S
C2723 H2717 0.930 . S
C2723 C2719 1.400 . S
C2723 C2722 1.385 . S
C2724 C2722 1.478 . S
C2724 C2726 1.381 . S
C2724 C2730 1.383 . S
C2725 C2721 1.495 . S
C2725 H2731 0.959 . S
C2725 H2732 0.961 . S
C2725 H2733 0.960 . S
C2726 C2724 1.381 . S
C2726 C2727 1.394 . S
C2726 H2734 0.930 . S
C2727 C2726 1.394 . S
C2727 C2728 1.383 . S
C2727 H2735 0.929 . S
C2728 C2727 1.383 . S
C2728 C2729 1.377 . S
C2729 H2713 0.930 . S
C2729 C2728 1.377 . S
C2729 C2730 1.379 . S
C2730 H2714 0.931 . S
C2730 C2724 1.383 . S
C2730 C2729 1.379 . S
H2731 C2725 0.959 . S
H2732 C2725 0.961 . S
H2733 C2725 0.960 . S
H2734 C2726 0.930 . S
H2735 C2727 0.929 . S
H2736 C2744 0.929 . S
H2737 C2746 0.930 . S
H2738 C2748 0.930 . S
H2739 C2751 0.929 . S
H2740 C2754 0.930 . S
H2741 C2756 0.960 . S
H2742 C2756 0.960 . S
H2743 C2756 0.960 . S
C2744 H2736 0.929 . S
C2744 C2745 1.377 . S
C2744 C2746 1.384 . S
C2745 C2744 1.377 . S
C2745 C2751 1.390 . S
C2746 H2737 0.930 . S
C2746 C2744 1.384 . S
C2746 C2747 1.372 . S
C2747 C2746 1.372 . S
C2747 C2748 1.400 . S
C2747 C2752 1.490 . S
C2748 H2738 0.930 . S
C2748 C2747 1.400 . S
C2748 C2751 1.386 . S
H2749 C2765 0.930 . S
H2750 C2766 0.931 . S
C2751 H2739 0.929 . S
C2751 C2745 1.390 . S
C2751 C2748 1.386 . S
C2752 C2747 1.490 . S
C2752 C2754 1.395 . S
C2752 C2755 1.403 . S
H2753 C2759 0.930 . S
C2754 H2740 0.930 . S
C2754 C2752 1.395 . S
C2754 C2757 1.403 . S
C2755 C2752 1.403 . S
C2755 C2756 1.524 . S
C2755 C2759 1.400 . S
C2756 H2741 0.960 . S
C2756 H2742 0.960 . S
C2756 H2743 0.960 . S
C2756 C2755 1.524 . S
C2757 C2754 1.403 . S
C2757 C2758 1.392 . S
C2757 C2761 1.495 . S
C2758 C2757 1.392 . S
C2758 C2759 1.385 . S
C2758 C2760 1.478 . S
C2759 H2753 0.930 . S
C2759 C2755 1.400 . S
C2759 C2758 1.385 . S
C2760 C2758 1.478 . S
C2760 C2762 1.381 . S
C2760 C2766 1.383 . S
C2761 C2757 1.495 . S
C2761 H2767 0.959 . S
C2761 H2768 0.961 . S
C2761 H2769 0.960 . S
C2762 C2760 1.381 . S
C2762 C2763 1.394 . S
C2762 H2770 0.930 . S
C2763 C2762 1.394 . S
C2763 C2764 1.383 . S
C2763 H2771 0.929 . S
C2764 C2763 1.383 . S
C2764 C2765 1.377 . S
C2765 H2749 0.930 . S
C2765 C2764 1.377 . S
C2765 C2766 1.379 . S
C2766 H2750 0.931 . S
C2766 C2760 1.383 . S
C2766 C2765 1.379 . S
H2767 C2761 0.959 . S
H2768 C2761 0.961 . S
H2769 C2761 0.960 . S
H2770 C2762 0.930 . S
H2771 C2763 0.929 . S
H2772 C2780 0.929 . S
H2773 C2782 0.930 . S
H2774 C2784 0.930 . S
H2775 C2787 0.929 . S
H2776 C2790 0.930 . S
H2777 C2792 0.960 . S
H2778 C2792 0.960 . S
H2779 C2792 0.960 . S
C2780 H2772 0.929 . S
C2780 C2781 1.377 . S
C2780 C2782 1.384 . S
C2781 C2780 1.377 . S
C2781 C2787 1.390 . S
C2782 H2773 0.930 . S
C2782 C2780 1.384 . S
C2782 C2783 1.372 . S
C2783 C2782 1.372 . S
C2783 C2784 1.400 . S
C2783 C2788 1.490 . S
C2784 H2774 0.930 . S
C2784 C2783 1.400 . S
C2784 C2787 1.386 . S
H2785 C2801 0.930 . S
H2786 C2802 0.931 . S
C2787 H2775 0.929 . S
C2787 C2781 1.390 . S
C2787 C2784 1.386 . S
C2788 C2783 1.490 . S
C2788 C2790 1.395 . S
C2788 C2791 1.403 . S
H2789 C2795 0.930 . S
C2790 H2776 0.930 . S
C2790 C2788 1.395 . S
C2790 C2793 1.403 . S
C2791 C2788 1.403 . S
C2791 C2792 1.524 . S
C2791 C2795 1.400 . S
C2792 H2777 0.960 . S
C2792 H2778 0.960 . S
C2792 H2779 0.960 . S
C2792 C2791 1.524 . S
C2793 C2790 1.403 . S
C2793 C2794 1.392 . S
C2793 C2797 1.495 . S
C2794 C2793 1.392 . S
C2794 C2795 1.385 . S
C2794 C2796 1.478 . S
C2795 H2789 0.930 . S
C2795 C2791 1.400 . S
C2795 C2794 1.385 . S
C2796 C2794 1.478 . S
C2796 C2798 1.381 . S
C2796 C2802 1.383 . S
C2797 C2793 1.495 . S
C2797 H2803 0.959 . S
C2797 H2804 0.961 . S
C2797 H2805 0.960 . S
C2798 C2796 1.381 . S
C2798 C2799 1.394 . S
C2798 H2806 0.930 . S
C2799 C2798 1.394 . S
C2799 C2800 1.383 . S
C2799 H2807 0.929 . S
C2800 C2799 1.383 . S
C2800 C2801 1.377 . S
C2801 H2785 0.930 . S
C2801 C2800 1.377 . S
C2801 C2802 1.379 . S
C2802 H2786 0.931 . S
C2802 C2796 1.383 . S
C2802 C2801 1.379 . S
H2803 C2797 0.959 . S
H2804 C2797 0.961 . S
H2805 C2797 0.960 . S
H2806 C2798 0.930 . S
H2807 C2799 0.929 . S
H2808 C2816 0.929 . S
H2809 C2818 0.930 . S
H2810 C2820 0.930 . S
H2811 C2823 0.929 . S
H2812 C2826 0.930 . S
H2813 C2828 0.960 . S
H2814 C2828 0.960 . S
H2815 C2828 0.960 . S
C2816 H2808 0.929 . S
C2816 C2817 1.377 . S
C2816 C2818 1.384 . S
C2817 C2816 1.377 . S
C2817 C2823 1.390 . S
C2818 H2809 0.930 . S
C2818 C2816 1.384 . S
C2818 C2819 1.372 . S
C2819 C2818 1.372 . S
C2819 C2820 1.400 . S
C2819 C2824 1.490 . S
C2820 H2810 0.930 . S
C2820 C2819 1.400 . S
C2820 C2823 1.386 . S
H2821 C2837 0.930 . S
H2822 C2838 0.931 . S
C2823 H2811 0.929 . S
C2823 C2817 1.390 . S
C2823 C2820 1.386 . S
C2824 C2819 1.490 . S
C2824 C2826 1.395 . S
C2824 C2827 1.403 . S
H2825 C2831 0.930 . S
C2826 H2812 0.930 . S
C2826 C2824 1.395 . S
C2826 C2829 1.403 . S
C2827 C2824 1.403 . S
C2827 C2828 1.524 . S
C2827 C2831 1.400 . S
C2828 H2813 0.960 . S
C2828 H2814 0.960 . S
C2828 H2815 0.960 . S
C2828 C2827 1.524 . S
C2829 C2826 1.403 . S
C2829 C2830 1.392 . S
C2829 C2833 1.495 . S
C2830 C2829 1.392 . S
C2830 C2831 1.385 . S
C2830 C2832 1.478 . S
C2831 H2825 0.930 . S
C2831 C2827 1.400 . S
C2831 C2830 1.385 . S
C2832 C2830 1.478 . S
C2832 C2834 1.381 . S
C2832 C2838 1.383 . S
C2833 C2829 1.495 . S
C2833 H2839 0.959 . S
C2833 H2840 0.961 . S
C2833 H2841 0.960 . S
C2834 C2832 1.381 . S
C2834 C2835 1.394 . S
C2834 H2842 0.930 . S
C2835 C2834 1.394 . S
C2835 C2836 1.383 . S
C2835 H2843 0.929 . S
C2836 C2835 1.383 . S
C2836 C2837 1.377 . S
C2837 H2821 0.930 . S
C2837 C2836 1.377 . S
C2837 C2838 1.379 . S
C2838 H2822 0.931 . S
C2838 C2832 1.383 . S
C2838 C2837 1.379 . S
H2839 C2833 0.959 . S
H2840 C2833 0.961 . S
H2841 C2833 0.960 . S
H2842 C2834 0.930 . S
H2843 C2835 0.929 . S
H2844 C2852 0.929 . S
H2845 C2854 0.930 . S
H2846 C2856 0.930 . S
H2847 C2859 0.929 . S
H2848 C2862 0.930 . S
H2849 C2864 0.960 . S
H2850 C2864 0.960 . S
H2851 C2864 0.960 . S
C2852 H2844 0.929 . S
C2852 C2853 1.377 . S
C2852 C2854 1.384 . S
C2853 C2852 1.377 . S
C2853 C2859 1.390 . S
C2854 H2845 0.930 . S
C2854 C2852 1.384 . S
C2854 C2855 1.372 . S
C2855 C2854 1.372 . S
C2855 C2856 1.400 . S
C2855 C2860 1.490 . S
C2856 H2846 0.930 . S
C2856 C2855 1.400 . S
C2856 C2859 1.386 . S
H2857 C2873 0.930 . S
H2858 C2874 0.931 . S
C2859 H2847 0.929 . S
C2859 C2853 1.390 . S
C2859 C2856 1.386 . S
C2860 C2855 1.490 . S
C2860 C2862 1.395 . S
C2860 C2863 1.403 . S
H2861 C2867 0.930 . S
C2862 H2848 0.930 . S
C2862 C2860 1.395 . S
C2862 C2865 1.403 . S
C2863 C2860 1.403 . S
C2863 C2864 1.524 . S
C2863 C2867 1.400 . S
C2864 H2849 0.960 . S
C2864 H2850 0.960 . S
C2864 H2851 0.960 . S
C2864 C2863 1.524 . S
C2865 C2862 1.403 . S
C2865 C2866 1.392 . S
C2865 C2869 1.495 . S
C2866 C2865 1.392 . S
C2866 C2867 1.385 . S
C2866 C2868 1.478 . S
C2867 H2861 0.930 . S
C2867 C2863 1.400 . S
C2867 C2866 1.385 . S
C2868 C2866 1.478 . S
C2868 C2870 1.381 . S
C2868 C2874 1.383 . S
C2869 C2865 1.495 . S
C2869 H2875 0.959 . S
C2869 H2876 0.961 . S
C2869 H2877 0.960 . S
C2870 C2868 1.381 . S
C2870 C2871 1.394 . S
C2870 H2878 0.930 . S
C2871 C2870 1.394 . S
C2871 C2872 1.383 . S
C2871 H2879 0.929 . S
C2872 C2871 1.383 . S
C2872 C2873 1.377 . S
C2873 H2857 0.930 . S
C2873 C2872 1.377 . S
C2873 C2874 1.379 . S
C2874 H2858 0.931 . S
C2874 C2868 1.383 . S
C2874 C2873 1.379 . S
H2875 C2869 0.959 . S
H2876 C2869 0.961 . S
H2877 C2869 0.960 . S
H2878 C2870 0.930 . S
H2879 C2871 0.929 . S
H2880 C2888 0.929 . S
H2881 C2890 0.930 . S
H2882 C2892 0.930 . S
H2883 C2895 0.929 . S
H2884 C2898 0.930 . S
H2885 C2900 0.960 . S
H2886 C2900 0.960 . S
H2887 C2900 0.960 . S
C2888 H2880 0.929 . S
C2888 C2889 1.377 . S
C2888 C2890 1.384 . S
C2889 C2888 1.377 . S
C2889 C2895 1.390 . S
C2890 H2881 0.930 . S
C2890 C2888 1.384 . S
C2890 C2891 1.372 . S
C2891 C2890 1.372 . S
C2891 C2892 1.400 . S
C2891 C2896 1.490 . S
C2892 H2882 0.930 . S
C2892 C2891 1.400 . S
C2892 C2895 1.386 . S
H2893 C2909 0.930 . S
H2894 C2910 0.931 . S
C2895 H2883 0.929 . S
C2895 C2889 1.390 . S
C2895 C2892 1.386 . S
C2896 C2891 1.490 . S
C2896 C2898 1.395 . S
C2896 C2899 1.403 . S
H2897 C2903 0.930 . S
C2898 H2884 0.930 . S
C2898 C2896 1.395 . S
C2898 C2901 1.403 . S
C2899 C2896 1.403 . S
C2899 C2900 1.524 . S
C2899 C2903 1.400 . S
C2900 H2885 0.960 . S
C2900 H2886 0.960 . S
C2900 H2887 0.960 . S
C2900 C2899 1.524 . S
C2901 C2898 1.403 . S
C2901 C2902 1.392 . S
C2901 C2905 1.495 . S
C2902 C2901 1.392 . S
C2902 C2903 1.385 . S
C2902 C2904 1.478 . S
C2903 H2897 0.930 . S
C2903 C2899 1.400 . S
C2903 C2902 1.385 . S
C2904 C2902 1.478 . S
C2904 C2906 1.381 . S
C2904 C2910 1.383 . S
C2905 C2901 1.495 . S
C2905 H2911 0.959 . S
C2905 H2912 0.961 . S
C2905 H2913 0.960 . S
C2906 C2904 1.381 . S
C2906 C2907 1.394 . S
C2906 H2914 0.930 . S
C2907 C2906 1.394 . S
C2907 C2908 1.383 . S
C2907 H2915 0.929 . S
C2908 C2907 1.383 . S
C2908 C2909 1.377 . S
C2909 H2893 0.930 . S
C2909 C2908 1.377 . S
C2909 C2910 1.379 . S
C2910 H2894 0.931 . S
C2910 C2904 1.383 . S
C2910 C2909 1.379 . S
H2911 C2905 0.959 . S
H2912 C2905 0.961 . S
H2913 C2905 0.960 . S
H2914 C2906 0.930 . S
H2915 C2907 0.929 . S
H2916 C2924 0.929 . S
H2917 C2926 0.930 . S
H2918 C2928 0.930 . S
H2919 C2931 0.929 . S
H2920 C2934 0.930 . S
H2921 C2936 0.960 . S
H2922 C2936 0.960 . S
H2923 C2936 0.960 . S
C2924 H2916 0.929 . S
C2924 C2925 1.377 . S
C2924 C2926 1.384 . S
C2925 C2924 1.377 . S
C2925 C2931 1.390 . S
C2926 H2917 0.930 . S
C2926 C2924 1.384 . S
C2926 C2927 1.372 . S
C2927 C2926 1.372 . S
C2927 C2928 1.400 . S
C2927 C2932 1.490 . S
C2928 H2918 0.930 . S
C2928 C2927 1.400 . S
C2928 C2931 1.386 . S
H2929 C2945 0.930 . S
H2930 C2946 0.931 . S
C2931 H2919 0.929 . S
C2931 C2925 1.390 . S
C2931 C2928 1.386 . S
C2932 C2927 1.490 . S
C2932 C2934 1.395 . S
C2932 C2935 1.403 . S
H2933 C2939 0.930 . S
C2934 H2920 0.930 . S
C2934 C2932 1.395 . S
C2934 C2937 1.403 . S
C2935 C2932 1.403 . S
C2935 C2936 1.524 . S
C2935 C2939 1.400 . S
C2936 H2921 0.960 . S
C2936 H2922 0.960 . S
C2936 H2923 0.960 . S
C2936 C2935 1.524 . S
C2937 C2934 1.403 . S
C2937 C2938 1.392 . S
C2937 C2941 1.495 . S
C2938 C2937 1.392 . S
C2938 C2939 1.385 . S
C2938 C2940 1.478 . S
C2939 H2933 0.930 . S
C2939 C2935 1.400 . S
C2939 C2938 1.385 . S
C2940 C2938 1.478 . S
C2940 C2942 1.381 . S
C2940 C2946 1.383 . S
C2941 C2937 1.495 . S
C2941 H2947 0.959 . S
C2941 H2948 0.961 . S
C2941 H2949 0.960 . S
C2942 C2940 1.381 . S
C2942 C2943 1.394 . S
C2942 H2950 0.930 . S
C2943 C2942 1.394 . S
C2943 C2944 1.383 . S
C2943 H2951 0.929 . S
C2944 C2943 1.383 . S
C2944 C2945 1.377 . S
C2945 H2929 0.930 . S
C2945 C2944 1.377 . S
C2945 C2946 1.379 . S
C2946 H2930 0.931 . S
C2946 C2940 1.383 . S
C2946 C2945 1.379 . S
H2947 C2941 0.959 . S
H2948 C2941 0.961 . S
H2949 C2941 0.960 . S
H2950 C2942 0.930 . S
H2951 C2943 0.929 . S
H2952 C2960 0.929 . S
H2953 C2962 0.930 . S
H2954 C2964 0.930 . S
H2955 C2967 0.929 . S
H2956 C2970 0.930 . S
H2957 C2972 0.960 . S
H2958 C2972 0.960 . S
H2959 C2972 0.960 . S
C2960 H2952 0.929 . S
C2960 C2961 1.377 . S
C2960 C2962 1.384 . S
C2961 C2960 1.377 . S
C2961 C2967 1.390 . S
C2962 H2953 0.930 . S
C2962 C2960 1.384 . S
C2962 C2963 1.372 . S
C2963 C2962 1.372 . S
C2963 C2964 1.400 . S
C2963 C2968 1.490 . S
C2964 H2954 0.930 . S
C2964 C2963 1.400 . S
C2964 C2967 1.386 . S
H2965 C2981 0.930 . S
H2966 C2982 0.931 . S
C2967 H2955 0.929 . S
C2967 C2961 1.390 . S
C2967 C2964 1.386 . S
C2968 C2963 1.490 . S
C2968 C2970 1.395 . S
C2968 C2971 1.403 . S
H2969 C2975 0.930 . S
C2970 H2956 0.930 . S
C2970 C2968 1.395 . S
C2970 C2973 1.403 . S
C2971 C2968 1.403 . S
C2971 C2972 1.524 . S
C2971 C2975 1.400 . S
C2972 H2957 0.960 . S
C2972 H2958 0.960 . S
C2972 H2959 0.960 . S
C2972 C2971 1.524 . S
C2973 C2970 1.403 . S
C2973 C2974 1.392 . S
C2973 C2977 1.495 . S
C2974 C2973 1.392 . S
C2974 C2975 1.385 . S
C2974 C2976 1.478 . S
C2975 H2969 0.930 . S
C2975 C2971 1.400 . S
C2975 C2974 1.385 . S
C2976 C2974 1.478 . S
C2976 C2978 1.381 . S
C2976 C2982 1.383 . S
C2977 C2973 1.495 . S
C2977 H2983 0.959 . S
C2977 H2984 0.961 . S
C2977 H2985 0.960 . S
C2978 C2976 1.381 . S
C2978 C2979 1.394 . S
C2978 H2986 0.930 . S
C2979 C2978 1.394 . S
C2979 C2980 1.383 . S
C2979 H2987 0.929 . S
C2980 C2979 1.383 . S
C2980 C2981 1.377 . S
C2981 H2965 0.930 . S
C2981 C2980 1.377 . S
C2981 C2982 1.379 . S
C2982 H2966 0.931 . S
C2982 C2976 1.383 . S
C2982 C2981 1.379 . S
H2983 C2977 0.959 . S
H2984 C2977 0.961 . S
H2985 C2977 0.960 . S
H2986 C2978 0.930 . S
H2987 C2979 0.929 . S
H2988 C2996 0.929 . S
H2989 C2998 0.930 . S
H2990 C3000 0.930 . S
H2991 C3003 0.929 . S
H2992 C3006 0.930 . S
H2993 C3008 0.960 . S
H2994 C3008 0.960 . S
H2995 C3008 0.960 . S
C2996 H2988 0.929 . S
C2996 C2997 1.377 . S
C2996 C2998 1.384 . S
C2997 C2996 1.377 . S
C2997 C3003 1.390 . S
C2998 H2989 0.930 . S
C2998 C2996 1.384 . S
C2998 C2999 1.372 . S
C2999 C2998 1.372 . S
C2999 C3000 1.400 . S
C2999 C3004 1.490 . S
C3000 H2990 0.930 . S
C3000 C2999 1.400 . S
C3000 C3003 1.386 . S
H3001 C3017 0.930 . S
H3002 C3018 0.931 . S
C3003 H2991 0.929 . S
C3003 C2997 1.390 . S
C3003 C3000 1.386 . S
C3004 C2999 1.490 . S
C3004 C3006 1.395 . S
C3004 C3007 1.403 . S
H3005 C3011 0.930 . S
C3006 H2992 0.930 . S
C3006 C3004 1.395 . S
C3006 C3009 1.403 . S
C3007 C3004 1.403 . S
C3007 C3008 1.524 . S
C3007 C3011 1.400 . S
C3008 H2993 0.960 . S
C3008 H2994 0.960 . S
C3008 H2995 0.960 . S
C3008 C3007 1.524 . S
C3009 C3006 1.403 . S
C3009 C3010 1.392 . S
C3009 C3013 1.495 . S
C3010 C3009 1.392 . S
C3010 C3011 1.385 . S
C3010 C3012 1.478 . S
C3011 H3005 0.930 . S
C3011 C3007 1.400 . S
C3011 C3010 1.385 . S
C3012 C3010 1.478 . S
C3012 C3014 1.381 . S
C3012 C3018 1.383 . S
C3013 C3009 1.495 . S
C3013 H3019 0.959 . S
C3013 H3020 0.961 . S
C3013 H3021 0.960 . S
C3014 C3012 1.381 . S
C3014 C3015 1.394 . S
C3014 H3022 0.930 . S
C3015 C3014 1.394 . S
C3015 C3016 1.383 . S
C3015 H3023 0.929 . S
C3016 C3015 1.383 . S
C3016 C3017 1.377 . S
C3017 H3001 0.930 . S
C3017 C3016 1.377 . S
C3017 C3018 1.379 . S
C3018 H3002 0.931 . S
C3018 C3012 1.383 . S
C3018 C3017 1.379 . S
H3019 C3013 0.959 . S
H3020 C3013 0.961 . S
H3021 C3013 0.960 . S
H3022 C3014 0.930 . S
H3023 C3015 0.929 . S
H3024 C3032 0.929 . S
H3025 C3034 0.930 . S
H3026 C3036 0.930 . S
H3027 C3039 0.929 . S
H3028 C3042 0.930 . S
H3029 C3044 0.960 . S
H3030 C3044 0.960 . S
H3031 C3044 0.960 . S
C3032 H3024 0.929 . S
C3032 C3033 1.377 . S
C3032 C3034 1.384 . S
C3033 C3032 1.377 . S
C3033 C3039 1.390 . S
C3034 H3025 0.930 . S
C3034 C3032 1.384 . S
C3034 C3035 1.372 . S
C3035 C3034 1.372 . S
C3035 C3036 1.400 . S
C3035 C3040 1.490 . S
C3036 H3026 0.930 . S
C3036 C3035 1.400 . S
C3036 C3039 1.386 . S
H3037 C3053 0.930 . S
H3038 C3054 0.931 . S
C3039 H3027 0.929 . S
C3039 C3033 1.390 . S
C3039 C3036 1.386 . S
C3040 C3035 1.490 . S
C3040 C3042 1.395 . S
C3040 C3043 1.403 . S
H3041 C3047 0.930 . S
C3042 H3028 0.930 . S
C3042 C3040 1.395 . S
C3042 C3045 1.403 . S
C3043 C3040 1.403 . S
C3043 C3044 1.524 . S
C3043 C3047 1.400 . S
C3044 H3029 0.960 . S
C3044 H3030 0.960 . S
C3044 H3031 0.960 . S
C3044 C3043 1.524 . S
C3045 C3042 1.403 . S
C3045 C3046 1.392 . S
C3045 C3049 1.495 . S
C3046 C3045 1.392 . S
C3046 C3047 1.385 . S
C3046 C3048 1.478 . S
C3047 H3041 0.930 . S
C3047 C3043 1.400 . S
C3047 C3046 1.385 . S
C3048 C3046 1.478 . S
C3048 C3050 1.381 . S
C3048 C3054 1.383 . S
C3049 C3045 1.495 . S
C3049 H3055 0.959 . S
C3049 H3056 0.961 . S
C3049 H3057 0.960 . S
C3050 C3048 1.381 . S
C3050 C3051 1.394 . S
C3050 H3058 0.930 . S
C3051 C3050 1.394 . S
C3051 C3052 1.383 . S
C3051 H3059 0.929 . S
C3052 C3051 1.383 . S
C3052 C3053 1.377 . S
C3053 H3037 0.930 . S
C3053 C3052 1.377 . S
C3053 C3054 1.379 . S
C3054 H3038 0.931 . S
C3054 C3048 1.383 . S
C3054 C3053 1.379 . S
H3055 C3049 0.959 . S
H3056 C3049 0.961 . S
H3057 C3049 0.960 . S
H3058 C3050 0.930 . S
H3059 C3051 0.929 . S
H3060 C3068 0.929 . S
H3061 C3070 0.930 . S
H3062 C3072 0.930 . S
H3063 C3075 0.929 . S
H3064 C3078 0.930 . S
H3065 C3080 0.960 . S
H3066 C3080 0.960 . S
H3067 C3080 0.960 . S
C3068 H3060 0.929 . S
C3068 C3069 1.377 . S
C3068 C3070 1.384 . S
C3069 C3068 1.377 . S
C3069 C3075 1.390 . S
C3070 H3061 0.930 . S
C3070 C3068 1.384 . S
C3070 C3071 1.372 . S
C3071 C3070 1.372 . S
C3071 C3072 1.400 . S
C3071 C3076 1.490 . S
C3072 H3062 0.930 . S
C3072 C3071 1.400 . S
C3072 C3075 1.386 . S
H3073 C3089 0.930 . S
H3074 C3090 0.931 . S
C3075 H3063 0.929 . S
C3075 C3069 1.390 . S
C3075 C3072 1.386 . S
C3076 C3071 1.490 . S
C3076 C3078 1.395 . S
C3076 C3079 1.403 . S
H3077 C3083 0.930 . S
C3078 H3064 0.930 . S
C3078 C3076 1.395 . S
C3078 C3081 1.403 . S
C3079 C3076 1.403 . S
C3079 C3080 1.524 . S
C3079 C3083 1.400 . S
C3080 H3065 0.960 . S
C3080 H3066 0.960 . S
C3080 H3067 0.960 . S
C3080 C3079 1.524 . S
C3081 C3078 1.403 . S
C3081 C3082 1.392 . S
C3081 C3085 1.495 . S
C3082 C3081 1.392 . S
C3082 C3083 1.385 . S
C3082 C3084 1.478 . S
C3083 H3077 0.930 . S
C3083 C3079 1.400 . S
C3083 C3082 1.385 . S
C3084 C3082 1.478 . S
C3084 C3086 1.381 . S
C3084 C3090 1.383 . S
C3085 C3081 1.495 . S
C3085 H3091 0.959 . S
C3085 H3092 0.961 . S
C3085 H3093 0.960 . S
C3086 C3084 1.381 . S
C3086 C3087 1.394 . S
C3086 H3094 0.930 . S
C3087 C3086 1.394 . S
C3087 C3088 1.383 . S
C3087 H3095 0.929 . S
C3088 C3087 1.383 . S
C3088 C3089 1.377 . S
C3089 H3073 0.930 . S
C3089 C3088 1.377 . S
C3089 C3090 1.379 . S
C3090 H3074 0.931 . S
C3090 C3084 1.383 . S
C3090 C3089 1.379 . S
H3091 C3085 0.959 . S
H3092 C3085 0.961 . S
H3093 C3085 0.960 . S
H3094 C3086 0.930 . S
H3095 C3087 0.929 . S
H3096 C3104 0.929 . S
H3097 C3106 0.930 . S
H3098 C3108 0.930 . S
H3099 C3111 0.929 . S
H3100 C3114 0.930 . S
H3101 C3116 0.960 . S
H3102 C3116 0.960 . S
H3103 C3116 0.960 . S
C3104 H3096 0.929 . S
C3104 C3105 1.377 . S
C3104 C3106 1.384 . S
C3105 C3104 1.377 . S
C3105 C3111 1.390 . S
C3106 H3097 0.930 . S
C3106 C3104 1.384 . S
C3106 C3107 1.372 . S
C3107 C3106 1.372 . S
C3107 C3108 1.400 . S
C3107 C3112 1.490 . S
C3108 H3098 0.930 . S
C3108 C3107 1.400 . S
C3108 C3111 1.386 . S
H3109 C3125 0.930 . S
H3110 C3126 0.931 . S
C3111 H3099 0.929 . S
C3111 C3105 1.390 . S
C3111 C3108 1.386 . S
C3112 C3107 1.490 . S
C3112 C3114 1.395 . S
C3112 C3115 1.403 . S
H3113 C3119 0.930 . S
C3114 H3100 0.930 . S
C3114 C3112 1.395 . S
C3114 C3117 1.403 . S
C3115 C3112 1.403 . S
C3115 C3116 1.524 . S
C3115 C3119 1.400 . S
C3116 H3101 0.960 . S
C3116 H3102 0.960 . S
C3116 H3103 0.960 . S
C3116 C3115 1.524 . S
C3117 C3114 1.403 . S
C3117 C3118 1.392 . S
C3117 C3121 1.495 . S
C3118 C3117 1.392 . S
C3118 C3119 1.385 . S
C3118 C3120 1.478 . S
C3119 H3113 0.930 . S
C3119 C3115 1.400 . S
C3119 C3118 1.385 . S
C3120 C3118 1.478 . S
C3120 C3122 1.381 . S
C3120 C3126 1.383 . S
C3121 C3117 1.495 . S
C3121 H3127 0.959 . S
C3121 H3128 0.961 . S
C3121 H3129 0.960 . S
C3122 C3120 1.381 . S
C3122 C3123 1.394 . S
C3122 H3130 0.930 . S
C3123 C3122 1.394 . S
C3123 C3124 1.383 . S
C3123 H3131 0.929 . S
C3124 C3123 1.383 . S
C3124 C3125 1.377 . S
C3125 H3109 0.930 . S
C3125 C3124 1.377 . S
C3125 C3126 1.379 . S
C3126 H3110 0.931 . S
C3126 C3120 1.383 . S
C3126 C3125 1.379 . S
H3127 C3121 0.959 . S
H3128 C3121 0.961 . S
H3129 C3121 0.960 . S
H3130 C3122 0.930 . S
H3131 C3123 0.929 . S
H3132 C3140 0.929 . S
H3133 C3142 0.930 . S
H3134 C3144 0.930 . S
H3135 C3147 0.929 . S
H3136 C3150 0.930 . S
H3137 C3152 0.960 . S
H3138 C3152 0.960 . S
H3139 C3152 0.960 . S
C3140 H3132 0.929 . S
C3140 C3141 1.377 . S
C3140 C3142 1.384 . S
C3141 C3140 1.377 . S
C3141 C3147 1.390 . S
C3142 H3133 0.930 . S
C3142 C3140 1.384 . S
C3142 C3143 1.372 . S
C3143 C3142 1.372 . S
C3143 C3144 1.400 . S
C3143 C3148 1.490 . S
C3144 H3134 0.930 . S
C3144 C3143 1.400 . S
C3144 C3147 1.386 . S
H3145 C3161 0.930 . S
H3146 C3162 0.931 . S
C3147 H3135 0.929 . S
C3147 C3141 1.390 . S
C3147 C3144 1.386 . S
C3148 C3143 1.490 . S
C3148 C3150 1.395 . S
C3148 C3151 1.403 . S
H3149 C3155 0.930 . S
C3150 H3136 0.930 . S
C3150 C3148 1.395 . S
C3150 C3153 1.403 . S
C3151 C3148 1.403 . S
C3151 C3152 1.524 . S
C3151 C3155 1.400 . S
C3152 H3137 0.960 . S
C3152 H3138 0.960 . S
C3152 H3139 0.960 . S
C3152 C3151 1.524 . S
C3153 C3150 1.403 . S
C3153 C3154 1.392 . S
C3153 C3157 1.495 . S
C3154 C3153 1.392 . S
C3154 C3155 1.385 . S
C3154 C3156 1.478 . S
C3155 H3149 0.930 . S
C3155 C3151 1.400 . S
C3155 C3154 1.385 . S
C3156 C3154 1.478 . S
C3156 C3158 1.381 . S
C3156 C3162 1.383 . S
C3157 C3153 1.495 . S
C3157 H3163 0.959 . S
C3157 H3164 0.961 . S
C3157 H3165 0.960 . S
C3158 C3156 1.381 . S
C3158 C3159 1.394 . S
C3158 H3166 0.930 . S
C3159 C3158 1.394 . S
C3159 C3160 1.383 . S
C3159 H3167 0.929 . S
C3160 C3159 1.383 . S
C3160 C3161 1.377 . S
C3161 H3145 0.930 . S
C3161 C3160 1.377 . S
C3161 C3162 1.379 . S
C3162 H3146 0.931 . S
C3162 C3156 1.383 . S
C3162 C3161 1.379 . S
H3163 C3157 0.959 . S
H3164 C3157 0.961 . S
H3165 C3157 0.960 . S
H3166 C3158 0.930 . S
H3167 C3159 0.929 . S
H3168 C3176 0.929 . S
H3169 C3178 0.930 . S
H3170 C3180 0.930 . S
H3171 C3183 0.929 . S
H3172 C3186 0.930 . S
H3173 C3188 0.960 . S
H3174 C3188 0.960 . S
H3175 C3188 0.960 . S
C3176 H3168 0.929 . S
C3176 C3177 1.377 . S
C3176 C3178 1.384 . S
C3177 C3176 1.377 . S
C3177 C3183 1.390 . S
C3178 H3169 0.930 . S
C3178 C3176 1.384 . S
C3178 C3179 1.372 . S
C3179 C3178 1.372 . S
C3179 C3180 1.400 . S
C3179 C3184 1.490 . S
C3180 H3170 0.930 . S
C3180 C3179 1.400 . S
C3180 C3183 1.386 . S
H3181 C3197 0.930 . S
H3182 C3198 0.931 . S
C3183 H3171 0.929 . S
C3183 C3177 1.390 . S
C3183 C3180 1.386 . S
C3184 C3179 1.490 . S
C3184 C3186 1.395 . S
C3184 C3187 1.403 . S
H3185 C3191 0.930 . S
C3186 H3172 0.930 . S
C3186 C3184 1.395 . S
C3186 C3189 1.403 . S
C3187 C3184 1.403 . S
C3187 C3188 1.524 . S
C3187 C3191 1.400 . S
C3188 H3173 0.960 . S
C3188 H3174 0.960 . S
C3188 H3175 0.960 . S
C3188 C3187 1.524 . S
C3189 C3186 1.403 . S
C3189 C3190 1.392 . S
C3189 C3193 1.495 . S
C3190 C3189 1.392 . S
C3190 C3191 1.385 . S
C3190 C3192 1.478 . S
C3191 H3185 0.930 . S
C3191 C3187 1.400 . S
C3191 C3190 1.385 . S
C3192 C3190 1.478 . S
C3192 C3194 1.381 . S
C3192 C3198 1.383 . S
C3193 C3189 1.495 . S
C3193 H3199 0.959 . S
C3193 H3200 0.961 . S
C3193 H3201 0.960 . S
C3194 C3192 1.381 . S
C3194 C3195 1.394 . S
C3194 H3202 0.930 . S
C3195 C3194 1.394 . S
C3195 C3196 1.383 . S
C3195 H3203 0.929 . S
C3196 C3195 1.383 . S
C3196 C3197 1.377 . S
C3197 H3181 0.930 . S
C3197 C3196 1.377 . S
C3197 C3198 1.379 . S
C3198 H3182 0.931 . S
C3198 C3192 1.383 . S
C3198 C3197 1.379 . S
H3199 C3193 0.959 . S
H3200 C3193 0.961 . S
H3201 C3193 0.960 . S
H3202 C3194 0.930 . S
H3203 C3195 0.929 . S
H3204 C3212 0.929 . S
H3205 C3214 0.930 . S
H3206 C3216 0.930 . S
H3207 C3219 0.929 . S
H3208 C3222 0.930 . S
H3209 C3224 0.960 . S
H3210 C3224 0.960 . S
H3211 C3224 0.960 . S
C3212 H3204 0.929 . S
C3212 C3213 1.377 . S
C3212 C3214 1.384 . S
C3213 C3212 1.377 . S
C3213 C3219 1.390 . S
C3214 H3205 0.930 . S
C3214 C3212 1.384 . S
C3214 C3215 1.372 . S
C3215 C3214 1.372 . S
C3215 C3216 1.400 . S
C3215 C3220 1.490 . S
C3216 H3206 0.930 . S
C3216 C3215 1.400 . S
C3216 C3219 1.386 . S
H3217 C3233 0.930 . S
H3218 C3234 0.931 . S
C3219 H3207 0.929 . S
C3219 C3213 1.390 . S
C3219 C3216 1.386 . S
C3220 C3215 1.490 . S
C3220 C3222 1.395 . S
C3220 C3223 1.403 . S
H3221 C3227 0.930 . S
C3222 H3208 0.930 . S
C3222 C3220 1.395 . S
C3222 C3225 1.403 . S
C3223 C3220 1.403 . S
C3223 C3224 1.524 . S
C3223 C3227 1.400 . S
C3224 H3209 0.960 . S
C3224 H3210 0.960 . S
C3224 H3211 0.960 . S
C3224 C3223 1.524 . S
C3225 C3222 1.403 . S
C3225 C3226 1.392 . S
C3225 C3229 1.495 . S
C3226 C3225 1.392 . S
C3226 C3227 1.385 . S
C3226 C3228 1.478 . S
C3227 H3221 0.930 . S
C3227 C3223 1.400 . S
C3227 C3226 1.385 . S
C3228 C3226 1.478 . S
C3228 C3230 1.381 . S
C3228 C3234 1.383 . S
C3229 C3225 1.495 . S
C3229 H3235 0.959 . S
C3229 H3236 0.961 . S
C3229 H3237 0.960 . S
C3230 C3228 1.381 . S
C3230 C3231 1.394 . S
C3230 H3238 0.930 . S
C3231 C3230 1.394 . S
C3231 C3232 1.383 . S
C3231 H3239 0.929 . S
C3232 C3231 1.383 . S
C3232 C3233 1.377 . S
C3233 H3217 0.930 . S
C3233 C3232 1.377 . S
C3233 C3234 1.379 . S
C3234 H3218 0.931 . S
C3234 C3228 1.383 . S
C3234 C3233 1.379 . S
H3235 C3229 0.959 . S
H3236 C3229 0.961 . S
H3237 C3229 0.960 . S
H3238 C3230 0.930 . S
H3239 C3231 0.929 . S
H3240 C3248 0.929 . S
H3241 C3250 0.930 . S
H3242 C3252 0.930 . S
H3243 C3255 0.929 . S
H3244 C3258 0.930 . S
H3245 C3260 0.960 . S
H3246 C3260 0.960 . S
H3247 C3260 0.960 . S
C3248 H3240 0.929 . S
C3248 C3249 1.377 . S
C3248 C3250 1.384 . S
C3249 C3248 1.377 . S
C3249 C3255 1.390 . S
C3250 H3241 0.930 . S
C3250 C3248 1.384 . S
C3250 C3251 1.372 . S
C3251 C3250 1.372 . S
C3251 C3252 1.400 . S
C3251 C3256 1.490 . S
C3252 H3242 0.930 . S
C3252 C3251 1.400 . S
C3252 C3255 1.386 . S
H3253 C3269 0.930 . S
H3254 C3270 0.931 . S
C3255 H3243 0.929 . S
C3255 C3249 1.390 . S
C3255 C3252 1.386 . S
C3256 C3251 1.490 . S
C3256 C3258 1.395 . S
C3256 C3259 1.403 . S
H3257 C3263 0.930 . S
C3258 H3244 0.930 . S
C3258 C3256 1.395 . S
C3258 C3261 1.403 . S
C3259 C3256 1.403 . S
C3259 C3260 1.524 . S
C3259 C3263 1.400 . S
C3260 H3245 0.960 . S
C3260 H3246 0.960 . S
C3260 H3247 0.960 . S
C3260 C3259 1.524 . S
C3261 C3258 1.403 . S
C3261 C3262 1.392 . S
C3261 C3265 1.495 . S
C3262 C3261 1.392 . S
C3262 C3263 1.385 . S
C3262 C3264 1.478 . S
C3263 H3257 0.930 . S
C3263 C3259 1.400 . S
C3263 C3262 1.385 . S
C3264 C3262 1.478 . S
C3264 C3266 1.381 . S
C3264 C3270 1.383 . S
C3265 C3261 1.495 . S
C3265 H3271 0.959 . S
C3265 H3272 0.961 . S
C3265 H3273 0.960 . S
C3266 C3264 1.381 . S
C3266 C3267 1.394 . S
C3266 H3274 0.930 . S
C3267 C3266 1.394 . S
C3267 C3268 1.383 . S
C3267 H3275 0.929 . S
C3268 C3267 1.383 . S
C3268 C3269 1.377 . S
C3269 H3253 0.930 . S
C3269 C3268 1.377 . S
C3269 C3270 1.379 . S
C3270 H3254 0.931 . S
C3270 C3264 1.383 . S
C3270 C3269 1.379 . S
H3271 C3265 0.959 . S
H3272 C3265 0.961 . S
H3273 C3265 0.960 . S
H3274 C3266 0.930 . S
H3275 C3267 0.929 . S
H3276 C3284 0.929 . S
H3277 C3286 0.930 . S
H3278 C3288 0.930 . S
H3279 C3291 0.929 . S
H3280 C3294 0.930 . S
H3281 C3296 0.960 . S
H3282 C3296 0.960 . S
H3283 C3296 0.960 . S
C3284 H3276 0.929 . S
C3284 C3285 1.377 . S
C3284 C3286 1.384 . S
C3285 C3284 1.377 . S
C3285 C3291 1.390 . S
C3286 H3277 0.930 . S
C3286 C3284 1.384 . S
C3286 C3287 1.372 . S
C3287 C3286 1.372 . S
C3287 C3288 1.400 . S
C3287 C3292 1.490 . S
C3288 H3278 0.930 . S
C3288 C3287 1.400 . S
C3288 C3291 1.386 . S
H3289 C3305 0.930 . S
H3290 C3306 0.931 . S
C3291 H3279 0.929 . S
C3291 C3285 1.390 . S
C3291 C3288 1.386 . S
C3292 C3287 1.490 . S
C3292 C3294 1.395 . S
C3292 C3295 1.403 . S
H3293 C3299 0.930 . S
C3294 H3280 0.930 . S
C3294 C3292 1.395 . S
C3294 C3297 1.403 . S
C3295 C3292 1.403 . S
C3295 C3296 1.524 . S
C3295 C3299 1.400 . S
C3296 H3281 0.960 . S
C3296 H3282 0.960 . S
C3296 H3283 0.960 . S
C3296 C3295 1.524 . S
C3297 C3294 1.403 . S
C3297 C3298 1.392 . S
C3297 C3301 1.495 . S
C3298 C3297 1.392 . S
C3298 C3299 1.385 . S
C3298 C3300 1.478 . S
C3299 H3293 0.930 . S
C3299 C3295 1.400 . S
C3299 C3298 1.385 . S
C3300 C3298 1.478 . S
C3300 C3302 1.381 . S
C3300 C3306 1.383 . S
C3301 C3297 1.495 . S
C3301 H3307 0.959 . S
C3301 H3308 0.961 . S
C3301 H3309 0.960 . S
C3302 C3300 1.381 . S
C3302 C3303 1.394 . S
C3302 H3310 0.930 . S
C3303 C3302 1.394 . S
C3303 C3304 1.383 . S
C3303 H3311 0.929 . S
C3304 C3303 1.383 . S
C3304 C3305 1.377 . S
C3305 H3289 0.930 . S
C3305 C3304 1.377 . S
C3305 C3306 1.379 . S
C3306 H3290 0.931 . S
C3306 C3300 1.383 . S
C3306 C3305 1.379 . S
H3307 C3301 0.959 . S
H3308 C3301 0.961 . S
H3309 C3301 0.960 . S
H3310 C3302 0.930 . S
H3311 C3303 0.929 . S
H3312 C3320 0.929 . S
H3313 C3322 0.930 . S
H3314 C3324 0.930 . S
H3315 C3327 0.929 . S
H3316 C3330 0.930 . S
H3317 C3332 0.960 . S
H3318 C3332 0.960 . S
H3319 C3332 0.960 . S
C3320 H3312 0.929 . S
C3320 C3321 1.377 . S
C3320 C3322 1.384 . S
C3321 C3320 1.377 . S
C3321 C3327 1.390 . S
C3322 H3313 0.930 . S
C3322 C3320 1.384 . S
C3322 C3323 1.372 . S
C3323 C3322 1.372 . S
C3323 C3324 1.400 . S
C3323 C3328 1.490 . S
C3324 H3314 0.930 . S
C3324 C3323 1.400 . S
C3324 C3327 1.386 . S
H3325 C3341 0.930 . S
H3326 C3342 0.931 . S
C3327 H3315 0.929 . S
C3327 C3321 1.390 . S
C3327 C3324 1.386 . S
C3328 C3323 1.490 . S
C3328 C3330 1.395 . S
C3328 C3331 1.403 . S
H3329 C3335 0.930 . S
C3330 H3316 0.930 . S
C3330 C3328 1.395 . S
C3330 C3333 1.403 . S
C3331 C3328 1.403 . S
C3331 C3332 1.524 . S
C3331 C3335 1.400 . S
C3332 H3317 0.960 . S
C3332 H3318 0.960 . S
C3332 H3319 0.960 . S
C3332 C3331 1.524 . S
C3333 C3330 1.403 . S
C3333 C3334 1.392 . S
C3333 C3337 1.495 . S
C3334 C3333 1.392 . S
C3334 C3335 1.385 . S
C3334 C3336 1.478 . S
C3335 H3329 0.930 . S
C3335 C3331 1.400 . S
C3335 C3334 1.385 . S
C3336 C3334 1.478 . S
C3336 C3338 1.381 . S
C3336 C3342 1.383 . S
C3337 C3333 1.495 . S
C3337 H3343 0.959 . S
C3337 H3344 0.961 . S
C3337 H3345 0.960 . S
C3338 C3336 1.381 . S
C3338 C3339 1.394 . S
C3338 H3346 0.930 . S
C3339 C3338 1.394 . S
C3339 C3340 1.383 . S
C3339 H3347 0.929 . S
C3340 C3339 1.383 . S
C3340 C3341 1.377 . S
C3341 H3325 0.930 . S
C3341 C3340 1.377 . S
C3341 C3342 1.379 . S
C3342 H3326 0.931 . S
C3342 C3336 1.383 . S
C3342 C3341 1.379 . S
H3343 C3337 0.959 . S
H3344 C3337 0.961 . S
H3345 C3337 0.960 . S
H3346 C3338 0.930 . S
H3347 C3339 0.929 . S
H3348 C3356 0.929 . S
H3349 C3358 0.930 . S
H3350 C3360 0.930 . S
H3351 C3363 0.929 . S
H3352 C3366 0.930 . S
H3353 C3368 0.960 . S
H3354 C3368 0.960 . S
H3355 C3368 0.960 . S
C3356 H3348 0.929 . S
C3356 C3357 1.377 . S
C3356 C3358 1.384 . S
C3357 C3356 1.377 . S
C3357 C3363 1.390 . S
C3358 H3349 0.930 . S
C3358 C3356 1.384 . S
C3358 C3359 1.372 . S
C3359 C3358 1.372 . S
C3359 C3360 1.400 . S
C3359 C3364 1.490 . S
C3360 H3350 0.930 . S
C3360 C3359 1.400 . S
C3360 C3363 1.386 . S
H3361 C3377 0.930 . S
H3362 C3378 0.931 . S
C3363 H3351 0.929 . S
C3363 C3357 1.390 . S
C3363 C3360 1.386 . S
C3364 C3359 1.490 . S
C3364 C3366 1.395 . S
C3364 C3367 1.403 . S
H3365 C3371 0.930 . S
C3366 H3352 0.930 . S
C3366 C3364 1.395 . S
C3366 C3369 1.403 . S
C3367 C3364 1.403 . S
C3367 C3368 1.524 . S
C3367 C3371 1.400 . S
C3368 H3353 0.960 . S
C3368 H3354 0.960 . S
C3368 H3355 0.960 . S
C3368 C3367 1.524 . S
C3369 C3366 1.403 . S
C3369 C3370 1.392 . S
C3369 C3373 1.495 . S
C3370 C3369 1.392 . S
C3370 C3371 1.385 . S
C3370 C3372 1.478 . S
C3371 H3365 0.930 . S
C3371 C3367 1.400 . S
C3371 C3370 1.385 . S
C3372 C3370 1.478 . S
C3372 C3374 1.381 . S
C3372 C3378 1.383 . S
C3373 C3369 1.495 . S
C3373 H3379 0.959 . S
C3373 H3380 0.961 . S
C3373 H3381 0.960 . S
C3374 C3372 1.381 . S
C3374 C3375 1.394 . S
C3374 H3382 0.930 . S
C3375 C3374 1.394 . S
C3375 C3376 1.383 . S
C3375 H3383 0.929 . S
C3376 C3375 1.383 . S
C3376 C3377 1.377 . S
C3377 H3361 0.930 . S
C3377 C3376 1.377 . S
C3377 C3378 1.379 . S
C3378 H3362 0.931 . S
C3378 C3372 1.383 . S
C3378 C3377 1.379 . S
H3379 C3373 0.959 . S
H3380 C3373 0.961 . S
H3381 C3373 0.960 . S
H3382 C3374 0.930 . S
H3383 C3375 0.929 . S
H3384 C3392 0.929 . S
H3385 C3394 0.930 . S
H3386 C3396 0.930 . S
H3387 C3399 0.929 . S
H3388 C3402 0.930 . S
H3389 C3404 0.960 . S
H3390 C3404 0.960 . S
H3391 C3404 0.960 . S
C3392 H3384 0.929 . S
C3392 C3393 1.377 . S
C3392 C3394 1.384 . S
C3393 C3392 1.377 . S
C3393 C3399 1.390 . S
C3394 H3385 0.930 . S
C3394 C3392 1.384 . S
C3394 C3395 1.372 . S
C3395 C3394 1.372 . S
C3395 C3396 1.400 . S
C3395 C3400 1.490 . S
C3396 H3386 0.930 . S
C3396 C3395 1.400 . S
C3396 C3399 1.386 . S
H3397 C3413 0.930 . S
H3398 C3414 0.931 . S
C3399 H3387 0.929 . S
C3399 C3393 1.390 . S
C3399 C3396 1.386 . S
C3400 C3395 1.490 . S
C3400 C3402 1.395 . S
C3400 C3403 1.403 . S
H3401 C3407 0.930 . S
C3402 H3388 0.930 . S
C3402 C3400 1.395 . S
C3402 C3405 1.403 . S
C3403 C3400 1.403 . S
C3403 C3404 1.524 . S
C3403 C3407 1.400 . S
C3404 H3389 0.960 . S
C3404 H3390 0.960 . S
C3404 H3391 0.960 . S
C3404 C3403 1.524 . S
C3405 C3402 1.403 . S
C3405 C3406 1.392 . S
C3405 C3409 1.495 . S
C3406 C3405 1.392 . S
C3406 C3407 1.385 . S
C3406 C3408 1.478 . S
C3407 H3401 0.930 . S
C3407 C3403 1.400 . S
C3407 C3406 1.385 . S
C3408 C3406 1.478 . S
C3408 C3410 1.381 . S
C3408 C3414 1.383 . S
C3409 C3405 1.495 . S
C3409 H3415 0.959 . S
C3409 H3416 0.961 . S
C3409 H3417 0.960 . S
C3410 C3408 1.381 . S
C3410 C3411 1.394 . S
C3410 H3418 0.930 . S
C3411 C3410 1.394 . S
C3411 C3412 1.383 . S
C3411 H3419 0.929 . S
C3412 C3411 1.383 . S
C3412 C3413 1.377 . S
C3413 H3397 0.930 . S
C3413 C3412 1.377 . S
C3413 C3414 1.379 . S
C3414 H3398 0.931 . S
C3414 C3408 1.383 . S
C3414 C3413 1.379 . S
H3415 C3409 0.959 . S
H3416 C3409 0.961 . S
H3417 C3409 0.960 . S
H3418 C3410 0.930 . S
H3419 C3411 0.929 . S
H3420 C3428 0.929 . S
H3421 C3430 0.930 . S
H3422 C3432 0.930 . S
H3423 C3435 0.929 . S
H3424 C3438 0.930 . S
H3425 C3440 0.960 . S
H3426 C3440 0.960 . S
H3427 C3440 0.960 . S
C3428 H3420 0.929 . S
C3428 C3429 1.377 . S
C3428 C3430 1.384 . S
C3429 C3428 1.377 . S
C3429 C3435 1.390 . S
C3430 H3421 0.930 . S
C3430 C3428 1.384 . S
C3430 C3431 1.372 . S
C3431 C3430 1.372 . S
C3431 C3432 1.400 . S
C3431 C3436 1.490 . S
C3432 H3422 0.930 . S
C3432 C3431 1.400 . S
C3432 C3435 1.386 . S
H3433 C3449 0.930 . S
H3434 C3450 0.931 . S
C3435 H3423 0.929 . S
C3435 C3429 1.390 . S
C3435 C3432 1.386 . S
C3436 C3431 1.490 . S
C3436 C3438 1.395 . S
C3436 C3439 1.403 . S
H3437 C3443 0.930 . S
C3438 H3424 0.930 . S
C3438 C3436 1.395 . S
C3438 C3441 1.403 . S
C3439 C3436 1.403 . S
C3439 C3440 1.524 . S
C3439 C3443 1.400 . S
C3440 H3425 0.960 . S
C3440 H3426 0.960 . S
C3440 H3427 0.960 . S
C3440 C3439 1.524 . S
C3441 C3438 1.403 . S
C3441 C3442 1.392 . S
C3441 C3445 1.495 . S
C3442 C3441 1.392 . S
C3442 C3443 1.385 . S
C3442 C3444 1.478 . S
C3443 H3437 0.930 . S
C3443 C3439 1.400 . S
C3443 C3442 1.385 . S
C3444 C3442 1.478 . S
C3444 C3446 1.381 . S
C3444 C3450 1.383 . S
C3445 C3441 1.495 . S
C3445 H3451 0.959 . S
C3445 H3452 0.961 . S
C3445 H3453 0.960 . S
C3446 C3444 1.381 . S
C3446 C3447 1.394 . S
C3446 H3454 0.930 . S
C3447 C3446 1.394 . S
C3447 C3448 1.383 . S
C3447 H3455 0.929 . S
C3448 C3447 1.383 . S
C3448 C3449 1.377 . S
C3449 H3433 0.930 . S
C3449 C3448 1.377 . S
C3449 C3450 1.379 . S
C3450 H3434 0.931 . S
C3450 C3444 1.383 . S
C3450 C3449 1.379 . S
H3451 C3445 0.959 . S
H3452 C3445 0.961 . S
H3453 C3445 0.960 . S
H3454 C3446 0.930 . S
H3455 C3447 0.929 . S
C1161 C1048 1.533 . S
C1180 C4 1.540 . S
C1197 C40 1.535 . S
C1216 C1084 1.544 . S
C1233 C1120 1.533 . S
C1252 C76 1.543 . S
C1269 C1012 1.537 . S
C1288 C112 1.519 . S
C1305 C148 1.537 . S
C1324 C976 1.520 . S
C1341 C868 1.538 . S
C1360 C184 1.534 . S
C1377 C220 1.534 . S
C1396 C904 1.545 . S
C1413 C940 1.538 . S
C1432 C256 1.528 . S
C1449 C292 1.537 . S
C1468 C760 1.519 . S
C1485 C328 1.537 . S
C1504 C796 1.519 . S
C1521 C832 1.536 . S
C1540 C364 1.519 . S
C1557 C400 1.533 . S
C1576 C724 1.536 . S
C1593 C688 1.538 . S
C1612 C436 1.529 . S
C1629 C580 1.538 . S
C1648 C472 1.521 . S
C1665 C508 1.537 . S
C1684 C616 1.519 . S
C1701 C544 1.537 . S
C1720 C652 1.519 . S
C1737 C14 1.265 . S
C1756 C374 1.220 . S
C1773 C410 1.266 . S
C1792 C50 1.221 . S
C1809 C302 1.254 . S
C1828 C86 1.293 . S
C1845 C338 1.264 . S
C1864 C122 1.275 . S
C1881 C158 1.266 . S
C1900 C518 1.222 . S
C1917 C554 1.252 . S
C1936 C194 1.285 . S
C1953 C446 1.259 . S
C1972 C230 1.291 . S
C1989 C482 1.262 . S
C2008 C266 1.219 . S
C2025 C590 1.268 . S
C2044 C950 1.236 . S
C2061 C986 1.266 . S
C2080 C626 1.222 . S
C2097 C878 1.260 . S
C2116 C662 1.290 . S
C2133 C698 1.265 . S
C2152 C914 1.271 . S
C2169 C734 1.267 . S
C2188 C1094 1.226 . S
C2205 C1130 1.253 . S
C2224 C770 1.292 . S
C2241 C1022 1.254 . S
C2260 C806 1.294 . S
C2277 C842 1.256 . S
C2296 C1058 1.295 . S
C2313 C3 1.404 . S
C2332 C147 1.408 . S
C2349 C39 1.405 . S
C2368 C183 1.398 . S
C2385 C219 1.406 . S
C2404 C75 1.394 . S
C2421 C111 1.404 . S
C2440 C255 1.407 . S
C2457 C291 1.405 . S
C2476 C435 1.395 . S
C2493 C471 1.403 . S
C2512 C327 1.395 . S
C2529 C507 1.405 . S
C2548 C363 1.395 . S
C2565 C399 1.405 . S
C2584 C543 1.407 . S
C2601 C579 1.405 . S
C2620 C723 1.401 . S
C2637 C759 1.406 . S
C2656 C615 1.395 . S
C2673 C651 1.406 . S
C2692 C795 1.396 . S
C2709 C831 1.403 . S
C2728 C687 1.409 . S
C2745 C1011 1.404 . S
C2764 C867 1.394 . S
C2781 C903 1.406 . S
C2800 C1047 1.404 . S
C2817 C939 1.404 . S
C2836 C1083 1.394 . S
C2853 C975 1.406 . S
C2872 C1119 1.410 . S
C2889 C2 1.319 . S
C2908 C182 1.331 . S
C2925 C38 1.321 . S
C2944 C218 1.326 . S
C2961 C254 1.315 . S
C2980 C74 1.317 . S
C2997 C146 1.321 . S
C3016 C110 1.328 . S
C3033 C470 1.320 . S
C3052 C290 1.302 . S
C3069 C506 1.315 . S
C3088 C326 1.327 . S
C3105 C542 1.319 . S
C3124 C362 1.304 . S
C3141 C398 1.319 . S
C3160 C434 1.308 . S
C3177 C578 1.321 . S
C3196 C758 1.329 . S
C3213 C794 1.314 . S
C3232 C614 1.304 . S
C3249 C830 1.317 . S
C3268 C650 1.300 . S
C3285 C686 1.318 . S
C3304 C722 1.329 . S
C3321 C1046 1.315 . S
C3340 C866 1.329 . S
C3357 C902 1.318 . S
C3376 C1082 1.313 . S
C3393 C938 1.315 . S
C3412 C1118 1.323 . S
C3429 C1010 1.315 . S
C3448 C974 1.330 . S
