# Generated by pormake.
# Topology wjk, (5)-cn, num edge types: 1
# Building blocks:
#     Node 0, Type 0, BuildingBlock: XOMCOT_clean_sbu_0, # of connection points: 5
#     Node 1, Type 0, BuildingBlock: XOMCOT_clean_sbu_0, # of connection points: 5
#     Node 2, Type 0, BuildingBlock: XOMCOT_clean_sbu_0, # of connection points: 5
#     Node 3, Type 0, BuildingBlock: XOMCOT_clean_sbu_0, # of connection points: 5
#     Node 4, Type 0, BuildingBlock: XOMCOT_clean_sbu_0, # of connection points: 5
#     Node 5, Type 0, BuildingBlock: XOMCOT_clean_sbu_0, # of connection points: 5
#     Node 6, Type 0, BuildingBlock: XOMCOT_clean_sbu_0, # of connection points: 5
#     Node 7, Type 0, BuildingBlock: XOMCOT_clean_sbu_0, # of connection points: 5
#     Node 8, Type 0, BuildingBlock: XOMCOT_clean_sbu_0, # of connection points: 5
#     Node 9, Type 0, BuildingBlock: XOMCOT_clean_sbu_0, # of connection points: 5
#     Node 10, Type 0, BuildingBlock: XOMCOT_clean_sbu_0, # of connection points: 5
#     Node 11, Type 0, BuildingBlock: XOMCOT_clean_sbu_0, # of connection points: 5
#     Edge 12, Type (0, 0), BuildingBlock: EZIPEK_clean_linker_0, # of connection points: 2
#     Edge 13, Type (0, 0), BuildingBlock: EZIPEK_clean_linker_0, # of connection points: 2
#     Edge 14, Type (0, 0), BuildingBlock: EZIPEK_clean_linker_0, # of connection points: 2
#     Edge 15, Type (0, 0), BuildingBlock: EZIPEK_clean_linker_0, # of connection points: 2
#     Edge 16, Type (0, 0), BuildingBlock: EZIPEK_clean_linker_0, # of connection points: 2
#     Edge 17, Type (0, 0), BuildingBlock: EZIPEK_clean_linker_0, # of connection points: 2
#     Edge 18, Type (0, 0), BuildingBlock: EZIPEK_clean_linker_0, # of connection points: 2
#     Edge 19, Type (0, 0), BuildingBlock: EZIPEK_clean_linker_0, # of connection points: 2
#     Edge 20, Type (0, 0), BuildingBlock: EZIPEK_clean_linker_0, # of connection points: 2
#     Edge 21, Type (0, 0), BuildingBlock: EZIPEK_clean_linker_0, # of connection points: 2
#     Edge 22, Type (0, 0), BuildingBlock: EZIPEK_clean_linker_0, # of connection points: 2
#     Edge 23, Type (0, 0), BuildingBlock: EZIPEK_clean_linker_0, # of connection points: 2
#     Edge 24, Type (0, 0), BuildingBlock: EZIPEK_clean_linker_0, # of connection points: 2
#     Edge 25, Type (0, 0), BuildingBlock: EZIPEK_clean_linker_0, # of connection points: 2
#     Edge 26, Type (0, 0), BuildingBlock: EZIPEK_clean_linker_0, # of connection points: 2
#     Edge 27, Type (0, 0), BuildingBlock: EZIPEK_clean_linker_0, # of connection points: 2
#     Edge 28, Type (0, 0), BuildingBlock: EZIPEK_clean_linker_0, # of connection points: 2
#     Edge 29, Type (0, 0), BuildingBlock: EZIPEK_clean_linker_0, # of connection points: 2
#     Edge 30, Type (0, 0), BuildingBlock: EZIPEK_clean_linker_0, # of connection points: 2
#     Edge 31, Type (0, 0), BuildingBlock: EZIPEK_clean_linker_0, # of connection points: 2
#     Edge 32, Type (0, 0), BuildingBlock: EZIPEK_clean_linker_0, # of connection points: 2
#     Edge 33, Type (0, 0), BuildingBlock: EZIPEK_clean_linker_0, # of connection points: 2
#     Edge 34, Type (0, 0), BuildingBlock: EZIPEK_clean_linker_0, # of connection points: 2
#     Edge 35, Type (0, 0), BuildingBlock: EZIPEK_clean_linker_0, # of connection points: 2
#     Edge 36, Type (0, 0), BuildingBlock: EZIPEK_clean_linker_0, # of connection points: 2
#     Edge 37, Type (0, 0), BuildingBlock: EZIPEK_clean_linker_0, # of connection points: 2
#     Edge 38, Type (0, 0), BuildingBlock: EZIPEK_clean_linker_0, # of connection points: 2
#     Edge 39, Type (0, 0), BuildingBlock: EZIPEK_clean_linker_0, # of connection points: 2
#     Edge 40, Type (0, 0), BuildingBlock: EZIPEK_clean_linker_0, # of connection points: 2
#     Edge 41, Type (0, 0), BuildingBlock: EZIPEK_clean_linker_0, # of connection points: 2
# Relax obj value: 0.598
# Max RMSD: 0.268
# Mean RMSD: 0.268
data_MOF--net-wjk--node1-XOMCOT_clean_sbu_0--edge1-EZIPEK_clean_linker_0
_symmetry_space_group_name_H-M    P1
_symmetry_Int_Tables_number       1
_symmetry_cell_setting            triclinic
loop_
_symmetry_equiv_pos_as_xyz
'x, y, z'
_cell_length_a     25.009146
_cell_length_b     24.824569
_cell_length_c     50.390272
_cell_angle_alpha  90.923916
_cell_angle_beta   89.377891
_cell_angle_gamma 119.58079
loop_
_atom_site_label
_atom_site_type_symbol
_atom_site_fract_x
_atom_site_fract_y
_atom_site_fract_z
_atom_type_partial_charge
Co0 Co 0.23937 0.32111 0.25568 0.0
C1 C 0.34727 0.44075 0.26452 0.0
C2 C 0.27298 0.45528 0.25342 0.0
C3 C 0.32768 0.51171 0.25303 0.0
N4 N 0.2855 0.41072 0.26082 0.0
N5 N 0.37427 0.50187 0.25981 0.0
H6 H 0.37336 0.41757 0.26824 0.0
H7 H 0.22859 0.44691 0.24667 0.0
C8 C 0.13746 0.28228 0.21445 0.0
O9 O 0.16196 0.25149 0.20318 0.0
N10 N 0.19887 0.23261 0.25043 0.0
C11 C 0.21869 0.19689 0.23803 0.0
C12 C 0.17931 0.13597 0.24413 0.0
C13 C 0.14734 0.19297 0.26314 0.0
N14 N 0.13573 0.13439 0.2605 0.0
C15 C 0.33949 0.32753 0.22704 0.0
C16 C 0.32663 0.38029 0.18157 0.0
C17 C 0.37399 0.36531 0.18279 0.0
C18 C 0.38233 0.34289 0.20695 0.0
C19 C 0.28556 0.36593 0.20283 0.0
N20 N 0.2897 0.33544 0.22433 0.0
H21 H 0.3459 0.30742 0.24466 0.0
H22 H 0.25077 0.37949 0.20194 0.0
H23 H 0.25981 0.21287 0.22627 0.0
H24 H 0.12 0.20687 0.27504 0.0
O25 O 0.29271 0.31335 0.28186 0.0
O26 O 0.20571 0.3089 0.29232 0.0
O27 O 0.16626 0.31947 0.23438 0.0
C28 C 0.25306 0.30489 0.30029 0.0
H29 H 0.33329 0.55557 0.24655 0.0
H30 H 0.18479 0.09656 0.23872 0.0
H31 H 0.31977 0.40073 0.16407 0.0
H32 H 0.41888 0.33234 0.21006 0.0
Co33 Co 0.96191 0.21923 0.61762 0.0
C34 C 0.95445 0.33405 0.61589 0.0
C35 C 0.90772 0.27579 0.58281 0.0
C36 C 0.92202 0.33597 0.57723 0.0
N37 N 0.93043 0.27465 0.60683 0.0
N38 N 0.95523 0.37342 0.5975 0.0
H39 H 0.98091 0.35107 0.63375 0.0
H40 H 0.88916 0.23784 0.56871 0.0
C41 C 0.8879 0.12448 0.57008 0.0
O42 O 0.92517 0.16317 0.55226 0.0
N43 N 0.99627 0.16851 0.62887 0.0
C44 C 0.04674 0.18697 0.64423 0.0
C45 C 0.06254 0.14133 0.6442 0.0
C46 C 0.9823 0.1119 0.61981 0.0
N47 N 1.0223 0.09516 0.62855 0.0
C48 C 0.06413 0.31654 0.59296 0.0
C49 C 0.10357 0.24728 0.56461 0.0
C50 C 0.14467 0.31008 0.56996 0.0
C51 C 0.1236 0.34502 0.58341 0.0
C52 C 0.04406 0.21971 0.57538 0.0
N53 N 1.0252 0.25412 0.59011 0.0
H54 H 0.05409 0.34462 0.60599 0.0
H55 H 1.01605 0.17008 0.57389 0.0
H56 H 0.07339 0.23202 0.65347 0.0
H57 H 0.94746 0.0854 0.60528 0.0
O58 O 1.01141 0.2786 0.64475 0.0
O59 O 0.91866 0.20328 0.65218 0.0
O60 O 0.89551 0.143 0.5948 0.0
C61 C 0.96814 0.25065 0.66194 0.0
H62 H 0.91594 0.35192 0.55822 0.0
H63 H 0.10292 0.14376 0.65307 0.0
H64 H 0.11915 0.21879 0.55439 0.0
H65 H 0.15452 0.39317 0.58857 0.0
Co66 Co 0.72231 0.93412 0.92992 0.0
C67 C 0.59113 0.88745 0.93788 0.0
C68 C 0.60696 0.84991 0.90245 0.0
C69 C 0.55213 0.85073 0.90007 0.0
N70 N 0.63358 0.8763 0.92584 0.0
N71 N 0.54533 0.88003 0.92153 0.0
H72 H 0.59969 0.91286 0.95616 0.0
H73 H 0.63028 0.8409 0.88625 0.0
C74 C 0.79375 0.88927 0.89022 0.0
O75 O 0.84241 0.94458 0.8907 0.0
N76 N 0.80729 0.99528 0.93479 0.0
C77 C 0.82689 0.05638 0.93815 0.0
C78 C 0.88718 0.08631 0.94577 0.0
C79 C 0.85522 0.98834 0.94159 0.0
N80 N 0.90496 0.04349 0.94703 0.0
C81 C 0.68018 1.01077 0.90868 0.0
C82 C 0.77755 0.07207 0.87485 0.0
C83 C 0.7464 0.10185 0.88525 0.0
C84 C 0.692 0.0673 0.89887 0.0
C85 C 0.75993 1.01196 0.88297 0.0
N86 N 0.71632 0.98512 0.90227 0.0
H87 H 0.64841 0.99453 0.92481 0.0
H88 H 0.78743 0.99211 0.87673 0.0
H89 H 0.79855 0.07746 0.93585 0.0
H90 H 0.8543 0.94429 0.94203 0.0
O91 O 0.70785 0.97684 0.95952 0.0
O92 O 0.72359 0.89904 0.96482 0.0
O93 O 0.74412 0.87909 0.90342 0.0
C94 C 0.71603 0.94264 0.97617 0.0
H95 H 0.52508 0.83982 0.88213 0.0
H96 H 0.91657 0.13566 0.94885 0.0
H97 H 0.81894 0.09717 0.86306 0.0
H98 H 0.66542 0.08825 0.90612 0.0
Co99 Co 0.80998 0.77173 0.28307 0.0
C100 C 0.67924 0.69754 0.26621 0.0
C101 C 0.73401 0.66062 0.24963 0.0
C102 C 0.67275 0.62014 0.24393 0.0
N103 N 0.73818 0.70923 0.26363 0.0
N104 N 0.63838 0.64327 0.25451 0.0
H105 H 0.66612 0.7267 0.27745 0.0
H106 H 0.77234 0.65322 0.24522 0.0
C107 C 0.90582 0.81382 0.23642 0.0
O108 O 0.89128 0.85612 0.23052 0.0
N109 N 0.88113 0.83176 0.30299 0.0
C110 C 0.89794 0.83164 0.32845 0.0
C111 C 0.95054 0.88701 0.33386 0.0
C112 C 0.92446 0.88602 0.29335 0.0
N113 N 0.96656 0.92044 0.31157 0.0
C114 C 0.79998 0.87786 0.28592 0.0
C115 C 0.74609 0.86747 0.23739 0.0
C116 C 0.74233 0.90579 0.25732 0.0
C117 C 0.77005 0.91089 0.28162 0.0
C118 C 0.77419 0.8321 0.24306 0.0
N119 N 0.80061 0.83741 0.26729 0.0
H120 H 0.81597 0.87946 0.30585 0.0
H121 H 0.77138 0.79792 0.22871 0.0
H122 H 0.87388 0.79503 0.34248 0.0
H123 H 0.92359 0.90248 0.27382 0.0
O124 O 0.75601 0.76523 0.31188 0.0
O125 O 0.79914 0.70771 0.30928 0.0
O126 O 0.87425 0.7731 0.25463 0.0
C127 C 0.76273 0.72264 0.32259 0.0
H128 H 0.65452 0.57558 0.23398 0.0
H129 H 0.97461 0.90183 0.35254 0.0
H130 H 0.72403 0.86193 0.21838 0.0
H131 H 0.76636 0.93838 0.29773 0.0
Co132 Co 0.10122 0.7779 0.58376 0.0
C133 C 0.11689 0.67723 0.60467 0.0
C134 C 0.18769 0.72838 0.57658 0.0
C135 C 0.18146 0.66994 0.57921 0.0
N136 N 0.14511 0.73237 0.59184 0.0
N137 N 0.13346 0.63619 0.59552 0.0
H138 H 0.07653 0.66222 0.61692 0.0
H139 H 0.21573 0.76179 0.56188 0.0
C140 C 0.20429 0.86881 0.5427 0.0
O141 O 0.19643 0.8229 0.52696 0.0
N142 N 0.05613 0.81925 0.57654 0.0
C143 C 0.99681 0.794 0.56927 0.0
C144 C 0.97892 0.838 0.57286 0.0
C145 C 0.07343 0.87711 0.58467 0.0
N146 N 0.02741 0.88966 0.58254 0.0
C147 C 0.03771 0.66581 0.55456 0.0
C148 C 0.03503 0.71402 0.50658 0.0
C149 C 0.99134 0.65122 0.51172 0.0
C150 C 1.00065 0.62626 0.53472 0.0
C151 C 0.06956 0.75275 0.52747 0.0
N152 N 0.07027 0.72857 0.55139 0.0
H153 H 0.03259 0.64526 0.57355 0.0
H154 H 0.09044 0.80216 0.52502 0.0
H155 H 0.96741 0.74567 0.56417 0.0
H156 H 0.11659 0.90721 0.59443 0.0
O157 O 0.03326 0.72245 0.60663 0.0
O158 O 0.11224 0.80937 0.62061 0.0
O159 O 0.17606 0.85479 0.5655 0.0
C160 C 0.05959 0.76063 0.62623 0.0
H161 H 0.2047 0.65127 0.56714 0.0
H162 H 0.93291 0.83119 0.57102 0.0
H163 H 0.03508 0.73623 0.48837 0.0
H164 H 0.97218 0.57817 0.53984 0.0
Co165 Co 0.29129 0.05541 0.93787 0.0
C166 C 0.39192 0.03055 0.94236 0.0
C167 C 0.43091 0.12765 0.93537 0.0
C168 C 0.47682 0.1113 0.93315 0.0
N169 N 0.37735 0.07646 0.94121 0.0
N170 N 0.45145 0.04977 0.93737 0.0
H171 H 0.35852 0.98202 0.9443 0.0
H172 H 0.43548 0.17216 0.9308 0.0
C173 C 0.27343 0.13866 0.89993 0.0
O174 O 0.23711 0.08595 0.8878 0.0
N175 N 0.20495 0.02776 0.93502 0.0
C176 C 0.16004 0.97653 0.92296 0.0
C177 C 0.10512 0.97531 0.9269 0.0
C178 C 0.17663 0.05619 0.94652 0.0
N179 N 0.11606 0.02516 0.94172 0.0
C180 C 0.27478 0.95908 0.90266 0.0
C181 C 0.35387 0.03466 0.86375 0.0
C182 C 0.33088 0.97071 0.86165 0.0
C183 C 0.29217 0.93326 0.8822 0.0
C184 C 0.33684 0.05888 0.88523 0.0
N185 N 0.29564 0.02102 0.90382 0.0
H186 H 0.24708 0.92924 0.91846 0.0
H187 H 0.36008 0.10851 0.88766 0.0
H188 H 0.16575 0.94277 0.91153 0.0
H189 H 0.19988 0.09925 0.95763 0.0
O190 O 0.26987 0.98401 0.9601 0.0
O191 O 0.28745 0.07462 0.97568 0.0
O192 O 0.30614 0.13826 0.91998 0.0
C193 C 0.27316 1.01758 0.98052 0.0
H194 H 0.52394 0.14128 0.92703 0.0
H195 H 0.0609 0.94185 0.91877 0.0
H196 H 0.38589 0.06615 0.84936 0.0
H197 H 0.27399 0.88379 0.88278 0.0
Co198 Co 0.72717 0.76263 0.48108 0.0
C199 C 0.60599 0.66011 0.46884 0.0
C200 C 0.60352 0.70523 0.5048 0.0
C201 C 0.55465 0.64496 0.50468 0.0
N202 N 0.63734 0.71434 0.48255 0.0
N203 N 0.55876 0.61563 0.48262 0.0
H204 H 0.62283 0.64894 0.45098 0.0
H205 H 0.61857 0.73616 0.52185 0.0
C206 C 0.77939 0.8765 0.52079 0.0
O207 O 0.82814 0.87024 0.52329 0.0
N208 N 0.81398 0.80495 0.47874 0.0
C209 C 0.84831 0.77706 0.4781 0.0
C210 C 0.90648 0.81894 0.46983 0.0
C211 C 0.85047 0.8627 0.47014 0.0
N212 N 0.90712 0.87216 0.46535 0.0
C213 C 0.71118 0.65139 0.50223 0.0
C214 C 0.78566 0.70086 0.54565 0.0
C215 C 0.78304 0.6493 0.53246 0.0
C216 C 0.73739 0.61936 0.51341 0.0
C217 C 0.75829 0.73196 0.53362 0.0
N218 N 0.7289 0.71101 0.50988 0.0
H219 H 0.68434 0.63101 0.48468 0.0
H220 H 0.76467 0.77406 0.54246 0.0
H221 H 0.83025 0.72804 0.48049 0.0
H222 H 0.83594 0.89665 0.46725 0.0
O223 O 0.72914 0.7097 0.45221 0.0
O224 O 0.72501 0.79413 0.4451 0.0
O225 O 0.73272 0.83555 0.50651 0.0
C226 C 0.72897 0.74727 0.43497 0.0
H227 H 0.52413 0.62227 0.52123 0.0
H228 H 0.94497 0.81126 0.46647 0.0
H229 H 0.81592 0.72213 0.56245 0.0
H230 H 0.73079 0.57746 0.50349 0.0
Co231 Co 0.96375 0.73091 0.78141 0.0
C232 C 0.95385 0.60719 0.78237 0.0
C233 C 0.90738 0.61924 0.81553 0.0
C234 C 0.92075 0.57263 0.82097 0.0
N235 N 0.93092 0.64347 0.7916 0.0
N236 N 0.95417 0.56821 0.8007 0.0
H237 H 0.9809 0.61716 0.76473 0.0
H238 H 0.88904 0.63883 0.82974 0.0
C239 C 0.89825 0.75363 0.832 0.0
O240 O 0.93895 0.75237 0.84782 0.0
N241 N 0.99804 0.81626 0.77103 0.0
C242 C 0.05275 0.85167 0.75888 0.0
C243 C 0.0641 0.91183 0.7582 0.0
C244 C 0.97682 0.85504 0.77728 0.0
N245 N 1.01619 0.9131 0.76989 0.0
C246 C 0.06696 0.73116 0.80233 0.0
C247 C 0.11577 0.84268 0.82874 0.0
C248 C 0.15404 0.81837 0.8212 0.0
C249 C 0.12837 0.76127 0.80864 0.0
C250 C 0.05375 0.81144 0.82104 0.0
N251 N 0.03013 0.75674 0.80713 0.0
H252 H 0.05404 0.69274 0.78936 0.0
H253 H 0.02721 0.83465 0.82367 0.0
H254 H 0.0842 0.83593 0.75249 0.0
H255 H 0.93607 0.84298 0.78873 0.0
O256 O 1.01058 0.72153 0.75242 0.0
O257 O 0.91794 0.7062 0.74735 0.0
O258 O 0.90084 0.74192 0.80683 0.0
C259 C 0.96704 0.71005 0.736 0.0
H260 H 0.91429 0.55047 0.83998 0.0
H261 H 0.10584 0.95201 0.75156 0.0
H262 H 0.13494 0.88795 0.83815 0.0
H263 H 0.15679 0.74228 0.8015 0.0
Co264 Co 0.23953 0.96385 0.13255 0.0
C265 C 0.34481 0.94548 0.13504 0.0
C266 C 0.29731 0.92333 0.17206 0.0
C267 C 0.3577 0.93774 0.17628 0.0
N268 N 0.2895 0.92995 0.14607 0.0
N269 N 0.38821 0.95499 0.15296 0.0
H270 H 0.35717 0.96094 0.11498 0.0
H271 H 0.26498 0.91844 0.18754 0.0
C272 C 0.12897 0.92711 0.17376 0.0
O273 O 0.12607 0.97711 0.16852 0.0
N274 N 0.19695 1.00243 0.1178 0.0
C275 C 0.22521 0.05684 0.10484 0.0
C276 C 0.18172 0.06976 0.09546 0.0
C277 C 0.13684 0.98064 0.11434 0.0
N278 N 0.12668 0.02257 0.10235 0.0
C279 C 0.34908 0.07597 0.14164 0.0
C280 C 0.29983 0.13242 0.17288 0.0
C281 C 0.3532 0.16906 0.15797 0.0
C282 C 0.37967 0.14004 0.14357 0.0
C283 C 0.26988 0.06763 0.16998 0.0
N284 N 0.29174 0.04056 0.15245 0.0
H285 H 0.3689 0.05659 0.12827 0.0
H286 H 0.22792 0.04058 0.18058 0.0
H287 H 0.27438 0.08614 0.10295 0.0
H288 H 0.10099 0.93697 0.12181 0.0
O289 O 0.28739 0.98902 0.10009 0.0
O290 O 0.20311 0.89975 0.10433 0.0
O291 O 0.17204 0.91863 0.16286 0.0
C292 C 0.24636 0.93896 0.08866 0.0
H293 H 0.3792 0.94352 0.19543 0.0
H294 H 0.18976 0.11288 0.08691 0.0
H295 H 0.27903 0.15373 0.18494 0.0
H296 H 0.42126 0.16675 0.13209 0.0
Co297 Co 0.30638 0.21145 0.44811 0.0
C298 C 0.41876 0.32556 0.44737 0.0
C299 C 0.43997 0.2565 0.45999 0.0
C300 C 0.48931 0.31513 0.46583 0.0
N301 N 0.39541 0.26343 0.44836 0.0
N302 N 0.4745 0.35823 0.45838 0.0
H303 H 0.39226 0.34735 0.44206 0.0
H304 H 0.43454 0.21283 0.46657 0.0
C305 C 0.26843 0.10661 0.48916 0.0
O306 O 0.22957 0.1241 0.49785 0.0
N307 N 0.21792 0.16794 0.44728 0.0
C308 C 0.18252 0.19454 0.44371 0.0
C309 C 0.12246 0.14946 0.44155 0.0
C310 C 0.17884 0.10668 0.446 0.0
N311 N 0.12071 0.09486 0.44322 0.0
C312 C 0.29436 0.30094 0.47956 0.0
C313 C 0.34721 0.28787 0.52499 0.0
C314 C 0.32934 0.33331 0.52472 0.0
C315 C 0.3043 0.34036 0.50095 0.0
C316 C 0.33737 0.25002 0.50277 0.0
N317 N 0.30808 0.25442 0.48086 0.0
H318 H 0.27909 0.3109 0.46142 0.0
H319 H 0.35592 0.21904 0.50299 0.0
H320 H 0.1984 0.2432 0.44182 0.0
H321 H 0.19191 0.07134 0.44749 0.0
O322 O 0.3035 0.26846 0.42254 0.0
O323 O 0.30609 0.18435 0.41083 0.0
O324 O 0.30533 0.13755 0.4696 0.0
C325 C 0.30272 0.23281 0.40347 0.0
H326 H 0.52994 0.32489 0.47698 0.0
H327 H 0.08285 0.15593 0.43998 0.0
H328 H 0.36921 0.2813 0.54192 0.0
H329 H 0.29086 0.37523 0.49854 0.0
Co330 Co 0.08512 0.30151 0.81535 0.0
C331 C 0.11314 0.423 0.79507 0.0
C332 C 0.17517 0.43427 0.82612 0.0
C333 C 0.17359 0.48905 0.82329 0.0
N334 N 0.13488 0.39142 0.80906 0.0
N335 N 0.13017 0.47989 0.80524 0.0
H336 H 0.0753 0.40105 0.78139 0.0
H337 H 0.19696 0.42416 0.84223 0.0
C338 C 0.15586 0.2544 0.85053 0.0
O339 O 0.10347 0.20429 0.85499 0.0
N340 N 0.03267 0.21363 0.81977 0.0
C341 C 0.97383 0.18268 0.82854 0.0
C342 C 0.94992 0.12039 0.82288 0.0
C343 C 0.04268 0.17048 0.80796 0.0
N344 N 0.99369 0.11375 0.80996 0.0
C345 C 0.02733 0.35781 0.84445 0.0
C346 C 0.99199 0.28032 0.88696 0.0
C347 C 0.95939 0.31079 0.88034 0.0
C348 C 0.98537 0.35851 0.8623 0.0
C349 C 0.04054 0.28756 0.87056 0.0
N350 N 0.05225 0.32002 0.84758 0.0
H351 H 0.03023 0.38002 0.82622 0.0
H352 H 0.06077 0.25938 0.87439 0.0
H353 H 0.94881 0.2039 0.83708 0.0
H354 H 0.08505 0.18045 0.79793 0.0
O355 O 1.02253 0.2965 0.79132 0.0
O356 O 0.1007 0.28469 0.7786 0.0
O357 O 0.15758 0.29856 0.83599 0.0
C358 C 0.0505 0.28526 0.77205 0.0
H359 H 0.19586 0.52902 0.83639 0.0
H360 H 0.90404 0.08329 0.8273 0.0
H361 H 0.97445 0.24437 0.90177 0.0
H362 H 0.96216 0.38413 0.85734 0.0
Co363 Co 0.78725 0.0774 0.12952 0.0
C364 C 0.67577 0.07905 0.12295 0.0
C365 C 0.74602 0.17327 0.1286 0.0
C366 C 0.68848 0.16918 0.13105 0.0
N367 N 0.73741 0.11602 0.12352 0.0
N368 N 0.64463 0.10908 0.1281 0.0
H369 H 0.65325 0.02908 0.12204 0.0
H370 H 0.79002 0.21358 0.13287 0.0
C371 C 0.89222 0.15218 0.16811 0.0
O372 O 0.8696 0.09943 0.1807 0.0
N373 N 0.83079 0.03345 0.13516 0.0
C374 C 0.81233 0.97761 0.14623 0.0
C375 C 0.85758 0.9622 0.14234 0.0
C376 C 0.8861 0.05082 0.12459 0.0
N377 N 0.90293 1.00835 0.12867 0.0
C378 C 0.69632 0.99254 0.16531 0.0
C379 C 0.71077 0.08049 0.20296 0.0
C380 C 0.66835 1.01811 0.208 0.0
C381 C 0.65882 0.97448 0.18771 0.0
C382 C 0.74839 0.09601 0.18068 0.0
N383 N 0.74369 0.05165 0.16299 0.0
H384 H 0.68684 0.95884 0.14966 0.0
H385 H 0.78015 0.14435 0.17734 0.0
H386 H 0.76936 0.94893 0.15611 0.0
H387 H 0.91309 0.09313 0.11372 0.0
O388 O 0.73099 1.00837 0.10653 0.0
O389 O 0.81494 0.08974 0.09227 0.0
O390 O 0.86203 0.15522 0.14767 0.0
C391 C 0.76686 0.0365 0.08668 0.0
H392 H 0.67981 0.2064 0.13677 0.0
H393 H 0.85755 0.92092 0.14897 0.0
H394 H 0.71759 0.11707 0.21677 0.0
H395 H 0.62499 0.92596 0.18939 0.0
C396 C 0.53628 0.60374 0.23309 0.0
C397 C 0.57158 0.61165 0.25614 0.0
C398 C 0.47576 0.55691 0.2821 0.0
C399 C 0.4404 0.54366 0.25862 0.0
N400 N 0.43787 0.5446 0.21089 0.0
N401 N 0.57476 0.58489 0.30149 0.0
C402 C 0.47089 0.56479 0.23383 0.0
C403 C 0.54122 0.58554 0.28044 0.0
N404 N 0.56549 0.63417 0.21053 0.0
N405 N 0.44638 0.54243 0.30608 0.0
H406 H 0.62227 0.60311 0.30047 0.0
H407 H 0.55511 0.5615 0.31902 0.0
H408 H 0.39868 0.52209 0.30773 0.0
H409 H 0.46933 0.55556 0.32418 0.0
H410 H 0.54233 0.63533 0.19369 0.0
H411 H 0.61313 0.66264 0.20957 0.0
H412 H 0.45805 0.55282 0.19213 0.0
H413 H 0.39049 0.51484 0.21067 0.0
C414 C 0.06228 0.53974 0.62003 0.0
C415 C 0.09252 0.56884 0.596 0.0
C416 C 0.03965 0.46609 0.57427 0.0
C417 C 1.00057 0.43964 0.5967 0.0
N418 N 0.96924 0.45777 0.63977 0.0
N419 N 0.08995 0.55769 0.54784 0.0
C420 C 1.01042 0.47845 0.61931 0.0
C421 C 0.07577 0.53165 0.57237 0.0
N422 N 0.08385 0.57007 0.64367 0.0
N423 N 0.04567 0.42955 0.55533 0.0
H424 H 0.10897 0.60488 0.54467 0.0
H425 H 0.07422 0.53117 0.53046 0.0
H426 H 0.02638 0.38184 0.55715 0.0
H427 H 0.07725 0.44798 0.53977 0.0
H428 H 0.06648 0.54932 0.66193 0.0
H429 H 0.12345 0.61339 0.64495 0.0
H430 H 0.9716 0.48596 0.65579 0.0
H431 H 0.92919 0.41476 0.63921 0.0
C432 C 0.49369 0.99912 0.90702 0.0
C433 C 0.47656 1.00838 0.93286 0.0
C434 C 0.48865 0.92108 0.94821 0.0
C435 C 0.51551 0.91829 0.92356 0.0
N436 N 0.55401 0.96719 0.88055 0.0
N437 N 0.46502 0.98279 0.97903 0.0
C438 C 0.52048 0.96027 0.90309 0.0
C439 C 0.47605 0.97044 0.95371 0.0
N440 N 0.48284 0.0261 0.8859 0.0
N441 N 0.47384 0.8753 0.96622 0.0
H442 H 0.45736 1.01958 0.98358 0.0
H443 H 0.46943 0.96074 0.9956 0.0
H444 H 0.48031 0.8375 0.96226 0.0
H445 H 0.4495 0.87144 0.98365 0.0
H446 H 0.48718 1.01505 0.86625 0.0
H447 H 0.46369 0.05485 0.88795 0.0
H448 H 0.56386 1.00189 0.86684 0.0
H449 H 0.57896 0.94482 0.87667 0.0
C450 C 0.53834 0.51023 0.49729 0.0
C451 C 0.53486 0.54947 0.47776 0.0
C452 C 0.50744 0.46562 0.44482 0.0
C453 C 0.50181 0.42389 0.46502 0.0
N454 N 0.49593 0.40487 0.51217 0.0
N455 N 0.50303 0.55805 0.43389 0.0
C456 C 0.51265 0.44559 0.49177 0.0
C457 C 0.51543 0.52502 0.45178 0.0
N458 N 0.56925 0.53418 0.5205 0.0
N459 N 0.506 0.44856 0.41884 0.0
H460 H 0.5058 0.60035 0.4388 0.0
H461 H 0.48386 0.54048 0.41531 0.0
H462 H 0.50262 0.40632 0.41326 0.0
H463 H 0.51473 0.47868 0.40316 0.0
H464 H 0.57733 0.50755 0.53396 0.0
H465 H 0.5935 0.58126 0.52493 0.0
H466 H 0.49706 0.41838 0.53196 0.0
H467 H 0.47479 0.35715 0.50936 0.0
C468 C 1.0119 0.51967 0.77945 0.0
C469 C 1.0001 0.54785 0.80186 0.0
C470 C 0.0725 0.52906 0.82736 0.0
C471 C 0.09096 0.5086 0.80408 0.0
N472 N 0.08774 0.50237 0.75627 0.0
N473 N 0.04333 0.60285 0.84327 0.0
C474 C 0.06361 0.50967 0.77956 0.0
C475 C 0.03767 0.55985 0.82466 0.0
N476 N 0.97276 0.50042 0.75837 0.0
N477 N 0.08333 0.51592 0.85225 0.0
H478 H 1.0252 0.63222 0.8408 0.0
H479 H 0.07376 0.61531 0.85916 0.0
H480 H 0.10006 0.48603 0.85613 0.0
H481 H 0.06647 0.52731 0.8692 0.0
H482 H 0.97666 0.47527 0.74243 0.0
H483 H 0.93278 0.50373 0.75828 0.0
H484 H 0.07243 0.50721 0.73776 0.0
H485 H 0.12746 0.49855 0.75564 0.0
C486 C 0.48017 0.98311 0.12492 0.0
C487 C 0.45383 0.99429 0.14796 0.0
C488 C 0.55528 0.08327 0.15867 0.0
C489 C 0.57902 0.07687 0.13379 0.0
N490 N 0.55736 0.0289 0.09044 0.0
N491 N 0.4645 0.07071 0.18131 0.0
C492 C 0.53904 0.02939 0.116 0.0
C493 C 0.49067 0.04885 0.16339 0.0
N494 N 0.44965 0.92745 0.11191 0.0
N495 N 0.59378 0.11924 0.17843 0.0
H496 H 0.41723 0.05169 0.18355 0.0
H497 H 0.48983 0.11297 0.19128 0.0
H498 H 0.64144 0.14203 0.17671 0.0
H499 H 0.57809 0.12041 0.19758 0.0
H500 H 0.4689 0.91506 0.09616 0.0
H501 H 0.40796 0.89139 0.11878 0.0
H502 H 0.52828 0.99814 0.07599 0.0
H503 H 0.59935 0.06368 0.08314 0.0
C504 C 0.2322 0.21195 0.36426 0.0
C505 C 0.29195 0.24563 0.37545 0.0
C506 C 0.32087 0.32403 0.34044 0.0
C507 C 0.26221 0.28874 0.32824 0.0
N508 N 0.16023 0.20011 0.32979 0.0
N509 N 0.39589 0.32898 0.37226 0.0
C510 C 0.21735 0.23316 0.34063 0.0
C511 C 0.33698 0.30036 0.36292 0.0
N512 N 0.18845 0.16083 0.37703 0.0
N513 N 0.35991 0.38226 0.33145 0.0
H514 H 0.40897 0.312 0.38828 0.0
H515 H 0.43282 0.3657 0.36283 0.0
H516 H 0.34764 0.40237 0.31642 0.0
H517 H 0.40112 0.41321 0.3406 0.0
H518 H 0.1417 0.13948 0.3729 0.0
H519 H 0.19905 0.14049 0.3925 0.0
H520 H 0.12927 0.15411 0.33412 0.0
H521 H 0.14291 0.21976 0.31692 0.0
C522 C 0.94101 0.23055 0.71168 0.0
C523 C 0.98155 0.26737 0.69125 0.0
C524 C 0.06504 0.31911 0.72416 0.0
C525 C 0.02705 0.27776 0.74407 0.0
N526 N 0.92727 0.19496 0.75727 0.0
N527 N 0.06853 0.36854 0.6829 0.0
C528 C 0.96426 0.23423 0.73801 0.0
C529 C 0.0399 0.31788 0.6988 0.0
N530 N 0.87952 0.19638 0.70648 0.0
N531 N 0.12531 0.3607 0.72934 0.0
H532 H 0.04743 0.37425 0.66637 0.0
H533 H 0.10825 0.40914 0.68829 0.0
H534 H 0.145 0.36816 0.74808 0.0
H535 H 0.15702 0.38539 0.7145 0.0
H536 H 0.84604 0.17067 0.72048 0.0
H537 H 0.86052 0.20031 0.68883 0.0
H538 H 0.88331 0.15807 0.75395 0.0
H539 H 0.94203 0.19585 0.77656 0.0
C540 C 0.72739 0.03394 0.04044 0.0
C541 C 0.75179 1.00986 0.059 0.0
C542 C 0.75414 0.9405 1.02397 0.0
C543 C 0.72327 0.95965 1.00577 0.0
N544 N 0.6603 1.0093 1.00299 0.0
N545 N 0.76718 0.92452 0.07023 0.0
C546 C 0.70418 1.00213 1.01578 0.0
C547 C 0.75804 0.95795 0.0514 0.0
N548 N 0.72439 0.08624 0.04646 0.0
N549 N 0.78364 0.90944 1.01552 0.0
H550 H 0.77068 0.93583 0.09039 0.0
H551 H 0.76609 0.88277 0.06588 0.0
H552 H 0.78786 0.89937 0.99582 0.0
H553 H 0.81102 0.90038 1.02811 0.0
H554 H 0.71302 0.10936 1.03245 0.0
H555 H 0.73793 0.10922 0.06474 0.0
H556 H 0.64187 0.03589 1.01068 0.0
H557 H 0.63521 0.98159 0.98713 0.0
C558 C 0.77843 0.72011 0.39612 0.0
C559 C 0.73278 0.7347 0.40563 0.0
C560 C 0.69138 0.71648 0.36016 0.0
C561 C 0.73968 0.70575 0.35082 0.0
N562 N 0.80779 0.66808 0.36265 0.0
N563 N 0.63523 0.72856 0.39749 0.0
C564 C 0.77598 0.69766 0.36972 0.0
C565 C 0.68603 0.72755 0.38784 0.0
N566 N 0.82704 0.73155 0.41169 0.0
N567 N 0.65051 0.71621 0.34235 0.0
H568 H 0.62967 0.73626 0.41746 0.0
H569 H 0.59629 0.71698 0.38623 0.0
H570 H 0.64797 0.70018 0.32293 0.0
H571 H 0.62011 0.73246 0.34658 0.0
H572 H 0.86481 0.72802 0.40503 0.0
H573 H 0.83305 0.75235 0.43007 0.0
H574 H 0.83163 0.6567 0.37625 0.0
H575 H 0.80283 0.6471 0.34408 0.0
C576 C 0.06395 0.73311 0.67394 0.0
C577 C 0.03262 0.74539 0.65379 0.0
C578 C 0.95031 0.72707 0.6863 0.0
C579 C 0.98038 0.71137 0.70624 0.0
N580 N 0.05042 0.67162 0.71234 0.0
N581 N 0.93476 0.73163 0.6392 0.0
C582 C 0.03285 0.70646 0.69811 0.0
C583 C 0.97229 0.73522 0.65942 0.0
N584 N 0.12263 0.7442 0.66994 0.0
N585 N 0.90217 0.73633 0.69249 0.0
H586 H 0.94855 0.73831 0.61941 0.0
H587 H 0.88828 0.71729 0.64195 0.0
H588 H 0.88059 0.72743 0.71084 0.0
H589 H 0.88538 0.75632 0.67928 0.0
H590 H 0.14926 0.74198 0.68522 0.0
H591 H 0.1464 0.75989 0.65211 0.0
H592 H 0.08521 0.66255 0.70626 0.0
H593 H 1.02349 0.6434 0.72755 0.0
C594 C 0.20276 0.95168 1.01747 0.0
C595 C 0.26326 0.99131 1.00777 0.0
C596 C 0.30423 0.96442 0.0462 0.0
C597 C 0.24592 0.93721 0.05883 0.0
N598 N 0.13713 0.90184 0.05546 0.0
N599 N 0.37273 0.03858 1.01415 0.0
C600 C 0.19413 0.92905 0.04405 0.0
C601 C 0.31435 0.99845 1.02248 0.0
N602 N 0.15359 0.93487 1.00118 0.0
N603 N 0.34964 0.95625 0.05679 0.0
H604 H 0.38206 0.06468 0.99699 0.0
H605 H 0.41153 0.04998 1.02553 0.0
H606 H 0.34096 0.92703 0.07285 0.0
H607 H 0.39219 0.97116 0.04769 0.0
H608 H 0.10893 0.90106 1.00592 0.0
H609 H 0.15818 0.95132 0.98192 0.0
H610 H 0.09937 0.90179 0.04696 0.0
H611 H 0.12733 0.87981 0.07366 0.0
C612 C 0.11764 0.05511 0.2937 0.0
C613 C 0.09462 0.08457 0.27707 0.0
C614 C 0.99342 0.02283 0.29648 0.0
C615 C 1.01286 0.98315 0.30719 0.0
N616 N 0.094 0.95987 0.31545 0.0
N617 N 1.00858 0.09266 0.26079 0.0
C618 C 0.07543 0.99922 0.3061 0.0
C619 C 0.03194 0.0681 0.27822 0.0
N620 N 0.17918 0.08165 0.29844 0.0
N621 N 0.93684 1.0146 0.303 0.0
H622 H 0.03512 0.12305 0.24587 0.0
H623 H 0.96182 0.07808 0.25945 0.0
H624 H 0.90875 0.98155 0.31682 0.0
H625 H 0.92119 0.04433 0.29694 0.0
H626 H 0.19743 0.06405 0.3121 0.0
H627 H 0.21094 0.12515 0.29128 0.0
H628 H 0.13813 0.96661 0.31228 0.0
H629 H 0.0642 0.91854 0.32482 0.0
C630 C 0.06605 0.05336 0.59588 0.0
C631 C 0.02778 0.04444 0.61823 0.0
C632 C 0.99422 0.93462 0.61841 0.0
C633 C 0.02712 0.942 0.59445 0.0
N634 N 0.09527 1.0059 0.56015 0.0
N635 N 0.95183 0.9786 0.64973 0.0
C636 C 0.06374 1.00095 0.58316 0.0
C637 C 0.99077 0.98553 0.6292 0.0
N638 N 0.10378 0.11193 0.58692 0.0
N639 N 0.96974 0.87992 0.63159 0.0
H640 H 0.95061 1.01612 0.65876 0.0
H641 H 0.91841 0.9357 0.65674 0.0
H642 H 0.97512 0.8432 0.62477 0.0
H643 H 0.95001 0.8731 0.65041 0.0
H644 H 0.13584 0.12303 0.57173 0.0
H645 H 0.10493 0.15074 0.59566 0.0
H646 H 0.12156 0.04693 0.54999 0.0
H647 H 0.09302 0.96755 0.5503 0.0
C648 C 0.03638 0.02643 0.9697 0.0
C649 C 0.07318 0.04622 0.94663 0.0
C650 C 1.00688 0.08068 0.92695 0.0
C651 C 0.96626 0.05422 0.94877 0.0
N652 N 0.9461 1.01563 0.99313 0.0
N653 N 0.10137 0.09896 0.90511 0.0
C654 C 0.98265 0.03181 0.97103 0.0
C655 C 0.06169 0.07727 0.92614 0.0
N656 N 0.05186 0.9999 0.98952 0.0
N657 N 0.9914 0.10604 0.90658 0.0
H658 H 0.14127 0.09574 0.90416 0.0
H659 H 0.09595 0.12032 0.88865 0.0
H660 H 0.94838 0.1024 0.90465 0.0
H661 H 1.02122 0.13213 0.89155 0.0
H662 H 1.02465 0.97903 1.00605 0.0
H663 H 0.09275 0.99834 0.98905 0.0
H664 H 0.95602 1.00126 1.01075 0.0
H665 H 0.90684 0.02028 0.99423 0.0
C666 C 0.97685 0.94524 0.43302 0.0
C667 C 0.9599 0.92922 0.45968 0.0
C668 C 0.04707 0.02453 0.47542 0.0
C669 C 0.06718 0.038 0.44878 0.0
N670 N 0.05775 1.01034 0.40253 0.0
N671 N 0.97961 0.94681 0.50649 0.0
C672 C 0.03381 0.99812 0.42758 0.0
C673 C 0.9952 0.96703 0.48102 0.0
N674 N 0.93777 0.91021 0.4132 0.0
N675 N 0.0769 0.0674 0.49507 0.0
H676 H 0.94169 0.90418 0.51111 0.0
H677 H 1.00624 0.97005 0.52293 0.0
H678 H 0.11632 0.10973 0.49166 0.0
H679 H 0.06015 0.06321 0.51436 0.0
H680 H 0.94413 0.92364 0.39346 0.0
H681 H 0.89613 0.87012 0.41693 0.0
H682 H 0.03807 0.98036 0.38641 0.0
H683 H 0.10034 0.04866 0.39844 0.0
C684 C 0.98257 0.98933 0.76369 0.0
C685 C 1.01318 0.96608 0.77916 0.0
C686 C 1.0174 0.03094 0.81677 0.0
C687 C 0.99183 0.05826 0.80064 0.0
N688 N 0.95356 0.06844 0.75866 0.0
N689 N 0.06815 0.96962 0.81859 0.0
C690 C 0.97508 0.03862 0.77403 0.0
C691 C 0.03299 0.98827 0.80526 0.0
N692 N 0.95998 0.96324 0.7394 0.0
N693 N 0.02606 0.0458 0.84315 0.0
H694 H 0.08183 0.9398 0.81011 0.0
H695 H 0.08846 0.98784 0.8369 0.0
H696 H 1.01441 0.07702 0.85181 0.0
H697 H 0.03925 0.02341 0.85672 0.0
H698 H 0.93207 0.97385 0.72798 0.0
H699 H 0.96697 0.92828 0.73122 0.0
H700 H 0.94652 0.06134 0.73829 0.0
H701 H 0.94513 0.10257 0.76648 0.0
C702 C 0.96798 0.99555 0.09571 0.0
C703 C 0.96044 1.01457 0.12138 0.0
C704 C 0.06765 0.05281 0.13176 0.0
C705 C 0.07329 0.02731 0.10717 0.0
N706 N 0.03244 0.97485 0.0658 0.0
N707 N 0.99921 0.06005 0.16424 0.0
C708 C 1.02449 0.9992 0.08901 0.0
C709 C 1.00941 0.04336 0.1395 0.0
N710 N 0.92125 0.97534 0.07782 0.0
N711 N 0.11802 0.08586 0.14751 0.0
H712 H 0.95689 0.05514 0.17004 0.0
H713 H 0.03114 0.07565 0.17956 0.0
H714 H 0.16122 0.09162 0.14307 0.0
H715 H 0.11838 0.11085 0.16434 0.0
H716 H 0.92486 0.96511 0.058 0.0
H717 H 0.87952 0.97268 0.08264 0.0
H718 H 0.9968 0.94711 0.05291 0.0
H719 H 0.07519 0.98085 0.05998 0.0
C720 C 1.0081 0.23289 0.16295 0.0
C721 C 0.95374 0.20471 0.17882 0.0
C722 C 1.02046 0.24207 0.21918 0.0
C723 C 0.07488 0.26876 0.20333 0.0
N724 N 0.11857 0.30416 0.16011 0.0
N725 N 0.90939 0.19951 0.22191 0.0
C726 C 0.06773 0.26878 0.17521 0.0
C727 C 0.96067 0.21513 0.20688 0.0
N728 N 1.00354 0.22268 0.13618 0.0
N729 N 1.02525 0.23876 0.24599 0.0
H730 H 0.86578 0.18134 0.21353 0.0
H731 H 0.91074 0.21043 0.24202 0.0
H732 H 0.06724 0.25969 0.25584 0.0
H733 H 0.98785 0.21229 0.25829 0.0
H734 H 0.0412 0.23374 0.12387 0.0
H735 H 0.96157 0.20049 0.12634 0.0
H736 H 0.11685 0.3114 0.13992 0.0
H737 H 0.16197 0.33154 0.16846 0.0
C738 C 0.81971 0.04756 0.53333 0.0
C739 C 0.84093 0.05746 0.56025 0.0
C740 C 0.79623 0.94249 0.56298 0.0
C741 C 0.7843 0.93435 0.53503 0.0
N742 N 0.78695 0.98182 0.49357 0.0
N743 N 0.82336 1.0077 0.60279 0.0
C744 C 0.79565 0.98759 0.52039 0.0
C745 C 0.82158 1.00295 0.57574 0.0
N746 N 0.81848 0.09502 0.52052 0.0
N747 N 0.78504 0.89181 0.57737 0.0
H748 H 0.835 0.0486 0.61303 0.0
H749 H 0.80582 0.96993 0.61539 0.0
H750 H 0.76047 0.84695 0.56962 0.0
H751 H 0.80165 0.89405 0.59644 0.0
H752 H 0.79881 0.09033 0.50192 0.0
H753 H 0.82976 0.13696 0.53 0.0
H754 H 0.80264 1.01946 0.48094 0.0
H755 H 0.76668 0.939 0.48377 0.0
C756 C 0.83728 0.76222 0.8723 0.0
C757 C 0.85291 0.77329 0.84469 0.0
C758 C 0.80906 0.84476 0.84596 0.0
C759 C 0.80108 0.83979 0.87416 0.0
N760 N 0.81091 0.79439 0.9142 0.0
N761 N 0.82349 0.80243 0.80428 0.0
C762 C 0.81515 0.79777 0.88717 0.0
C763 C 0.83011 0.80807 0.83118 0.0
N764 N 0.8391 0.71387 0.88397 0.0
N765 N 0.79851 0.8867 0.83317 0.0
H766 H 0.83048 0.77069 0.79324 0.0
H767 H 0.80279 0.82235 0.79335 0.0
H768 H 0.7792 0.91072 0.84268 0.0
H769 H 0.812 0.90011 0.81365 0.0
H770 H 0.82337 0.69893 0.90313 0.0
H771 H 0.84876 0.68335 0.87325 0.0
H772 H 0.82861 0.77216 0.92554 0.0
H773 H 0.79269 0.81714 0.9255 0.0
C774 C 1.01968 0.83637 0.17925 0.0
C775 C 0.07665 0.87955 0.19121 0.0
C776 C 1.02201 0.85412 0.23488 0.0
C777 C 0.96359 0.82047 0.2223 0.0
N778 N 0.90749 0.77914 0.18181 0.0
N779 N 0.13101 0.93063 0.23109 0.0
C780 C 0.96296 0.81087 0.19428 0.0
C781 C 0.07748 0.88797 0.21931 0.0
N782 N 1.01988 0.81992 0.15329 0.0
N783 N 1.02449 0.85351 0.26187 0.0
H784 H 0.17237 0.95356 0.2206 0.0
H785 H 0.13373 0.94539 0.25074 0.0
H786 H 0.98531 0.82725 0.27332 0.0
H787 H 0.06541 0.87269 0.2725 0.0
H788 H 0.98146 0.78538 0.14354 0.0
H789 H 0.06045 0.83686 0.14227 0.0
H790 H 0.90229 0.77663 0.16128 0.0
H791 H 0.86605 0.75717 0.19231 0.0
C792 C 0.25931 0.94731 0.50439 0.0
C793 C 0.23673 0.93615 0.53125 0.0
C794 C 0.2596 0.04658 0.53184 0.0
C795 C 0.26678 0.05107 0.50353 0.0
N796 N 0.2666 0.99868 0.4628 0.0
N797 N 0.22827 0.98464 0.57182 0.0
C798 C 0.26501 0.99958 0.48986 0.0
C799 C 0.24048 0.98859 0.54528 0.0
N800 N 0.28059 0.91111 0.49314 0.0
N801 N 0.27496 0.09929 0.5463 0.0
H802 H 0.23027 0.95189 0.58376 0.0
H803 H 0.21764 1.01493 0.58208 0.0
H804 H 0.29295 0.1427 0.53766 0.0
H805 H 0.27657 0.10169 0.56693 0.0
H806 H 0.30118 0.91962 0.47444 0.0
H807 H 0.28755 0.87988 0.50411 0.0
H808 H 0.25844 0.95937 0.45184 0.0
H809 H 0.27082 0.03506 0.4513 0.0
C810 C 0.27628 0.20405 0.86119 0.0
C811 C 0.27074 0.19479 0.88919 0.0
C812 C 0.21602 0.25572 0.89105 0.0
C813 C 0.21108 0.2538 0.86283 0.0
N814 N 0.2391 0.22787 0.82089 0.0
N815 N 0.24113 0.2188 0.93121 0.0
C816 C 0.24339 0.22981 0.84791 0.0
C817 C 0.24364 0.22419 0.90428 0.0
N818 N 0.31311 0.18739 0.84729 0.0
N819 N 0.19296 0.28717 0.90514 0.0
H820 H 0.26485 0.20066 0.9412 0.0
H821 H 0.2154 0.2313 0.94359 0.0
H822 H 0.17336 0.31043 0.89574 0.0
H823 H 0.19739 0.29453 0.92556 0.0
H824 H 0.3237 0.19655 0.82726 0.0
H825 H 0.33796 0.16959 0.85667 0.0
H826 H 0.25426 0.20403 0.80858 0.0
H827 H 0.21784 0.24861 0.81081 0.0
C828 C 0.45185 0.34518 0.16206 0.0
C829 C 0.40368 0.35798 0.15806 0.0
C830 C 0.34036 0.25598 0.1398 0.0
C831 C 0.37652 0.2362 0.1541 0.0
N832 N 0.47454 0.26451 0.17465 0.0
N833 N 0.33794 0.34523 0.12174 0.0
C834 C 0.4362 0.28167 0.1631 0.0
C835 C 0.36051 0.32009 0.1391 0.0
N836 N 0.50828 0.39267 0.1687 0.0
N837 N 0.2867 0.21438 0.12795 0.0
H838 H 0.35437 0.39296 0.12177 0.0
H839 H 0.30802 0.31994 0.10638 0.0
H840 H 0.27118 0.16717 0.12783 0.0
H841 H 0.25652 0.22682 0.11953 0.0
H842 H 0.54666 0.38738 0.17138 0.0
H843 H 0.51614 0.43811 0.16967 0.0
H844 H 0.51632 0.29599 0.18326 0.0
H845 H 0.46305 0.21837 0.17692 0.0
C846 C 0.2433 0.31146 0.57973 0.0
C847 C 0.21159 0.33692 0.56602 0.0
C848 C 0.30936 0.41105 0.54614 0.0
C849 C 0.3283 0.36697 0.54956 0.0
N850 N 0.33904 0.31349 0.58676 0.0
N851 N 0.21856 0.41959 0.53831 0.0
C852 C 0.30424 0.3299 0.57215 0.0
C853 C 0.2462 0.39112 0.55054 0.0
N854 N 0.21654 0.27156 0.60023 0.0
N855 N 0.34881 0.46616 0.53485 0.0
H856 H 0.17149 0.40366 0.53957 0.0
H857 H 0.24183 0.45622 0.52528 0.0
H858 H 0.39369 0.47679 0.52995 0.0
H859 H 0.33819 0.50141 0.53231 0.0
H860 H 0.23893 0.25154 0.60999 0.0
H861 H 0.17343 0.26059 0.60784 0.0
H862 H 0.38556 0.3299 0.58269 0.0
H863 H 0.38556 0.3299 0.58269 0.0
C864 C 0.86512 0.25768 0.90819 0.0
C865 C 0.89164 0.27653 0.88292 0.0
C866 C 0.7954 0.20045 0.86202 0.0
C867 C 0.77793 0.17014 0.88641 0.0
N868 N 0.78577 0.17634 0.93444 0.0
N869 N 0.88235 0.2717 0.83547 0.0
C870 C 0.80843 0.2017 0.91023 0.0
C871 C 0.85552 0.25113 0.85962 0.0
N872 N 0.8954 0.29269 0.92992 0.0
N873 N 0.75559 0.17771 0.84117 0.0
H874 H 0.86198 0.25207 0.81729 0.0
H875 H 0.86198 0.25207 0.81729 0.0
H876 H 0.71182 0.13914 0.8433 0.0
H877 H 0.76315 0.20015 0.8231 0.0
H878 H 0.87725 0.28429 0.94905 0.0
H879 H 0.93722 0.33383 0.92815 0.0
H880 H 0.81028 0.19242 0.95206 0.0
H881 H 0.74217 0.13855 0.93715 0.0
C882 C 0.73175 1.00173 0.25872 0.0
C883 C 0.70524 0.93668 0.25407 0.0
C884 C 0.61075 0.93367 0.23949 0.0
C885 C 0.64694 0.99794 0.23588 0.0
N886 N 0.70614 0.08344 0.26529 0.0
N887 N 0.61072 0.83819 0.25025 0.0
C888 C 0.69417 0.02816 0.25445 0.0
C889 C 0.64111 0.90114 0.24804 0.0
N890 N 0.79246 0.03866 0.26464 0.0
N891 N 0.55087 0.90508 0.23179 0.0
H892 H 0.63158 0.81434 0.25791 0.0
H893 H 0.56459 0.80991 0.24552 0.0
H894 H 0.5318 0.9311 0.22455 0.0
H895 H 0.52096 0.85761 0.23287 0.0
H896 H 0.81255 0.08674 0.26622 0.0
H897 H 0.82368 0.02241 0.26531 0.0
H898 H 0.74024 0.1065 0.27954 0.0
H899 H 0.6781 0.10244 0.26107 0.0
C900 C 0.83275 0.58188 0.52859 0.0
C901 C 0.83845 0.64218 0.52873 0.0
C902 C 0.91243 0.66886 0.49364 0.0
C903 C 0.92665 0.62369 0.50102 0.0
N904 N 0.87672 0.51718 0.51348 0.0
N905 N 0.91066 0.7498 0.51844 0.0
C906 C 0.87818 0.57272 0.5145 0.0
C907 C 0.88621 0.68829 0.5133 0.0
N908 N 0.78519 0.53512 0.54193 0.0
N909 N 0.93204 0.69959 0.47045 0.0
H910 H 0.8949 0.76777 0.53332 0.0
H911 H 0.95159 0.78195 0.50932 0.0
H912 H 0.9536 0.68662 0.45583 0.0
H913 H 0.9536 0.68662 0.45583 0.0
H914 H 0.77716 0.48986 0.54235 0.0
H915 H 0.75402 0.54276 0.55305 0.0
H916 H 0.84402 0.47748 0.52301 0.0
H917 H 0.90968 0.51212 0.50247 0.0
C918 C 0.31309 0.95558 0.81464 0.0
C919 C 0.33859 0.94227 0.83655 0.0
C920 C 0.25892 0.83568 0.83501 0.0
C921 C 0.22174 0.85621 0.82193 0.0
N922 N 0.22158 0.92805 0.7897 0.0
N923 N 0.36344 0.86497 0.84876 0.0
C924 C 0.25137 0.91368 0.80838 0.0
C925 C 0.32217 0.87969 0.83867 0.0
N926 N 0.34555 1.00861 0.80083 0.0
N927 N 0.23362 0.77902 0.84667 0.0
H928 H 0.408 0.89975 0.85347 0.0
H929 H 0.35462 0.81952 0.85046 0.0
H930 H 0.18659 0.74783 0.84682 0.0
H931 H 0.25903 0.76508 0.85806 0.0
H932 H 0.39176 0.03975 0.8048 0.0
H933 H 0.39176 0.03975 0.8048 0.0
H934 H 0.24266 0.97066 0.78011 0.0
H935 H 0.17711 0.89672 0.78342 0.0
loop_
_geom_bond_atom_site_label_1
_geom_bond_atom_site_label_2
_geom_bond_distance
_geom_bond_site_symmetry_2
_ccdc_geom_bond_type
Co0 N4 2.148 . S
Co0 N10 2.128 . S
Co0 N20 2.194 . S
Co0 O25 2.351 . S
Co0 O26 2.155 . S
Co0 O27 2.096 . S
C1 N4 1.301 . S
C1 N5 1.328 . S
C1 H6 0.930 . S
C2 C3 1.333 . S
C2 N4 1.317 . S
C2 H7 0.930 . S
C3 C2 1.333 . S
C3 N5 1.350 . S
C3 H29 0.931 . S
N4 Co0 2.148 . S
N4 C1 1.301 . S
N4 C2 1.317 . S
N5 C1 1.328 . S
N5 C3 1.350 . S
H6 C1 0.930 . S
H7 C2 0.930 . S
C8 O9 1.224 . S
C8 O27 1.247 . S
O9 C8 1.224 . S
N10 Co0 2.128 . S
N10 C11 1.355 . S
N10 C13 1.311 . S
C11 N10 1.355 . S
C11 C12 1.363 . S
C11 H23 0.929 . S
C12 C11 1.363 . S
C12 N14 1.375 . S
C12 H30 0.931 . S
C13 N10 1.311 . S
C13 N14 1.347 . S
C13 H24 0.929 . S
N14 C12 1.375 . S
N14 C13 1.347 . S
C15 C18 1.365 . S
C15 N20 1.328 . S
C15 H21 0.929 . S
C16 C17 1.362 . S
C16 C19 1.378 . S
C16 H31 0.929 . S
C17 C16 1.362 . S
C17 C18 1.366 . S
C18 C15 1.365 . S
C18 C17 1.366 . S
C18 H32 0.930 . S
C19 C16 1.378 . S
C19 N20 1.315 . S
C19 H22 0.930 . S
N20 Co0 2.194 . S
N20 C15 1.328 . S
N20 C19 1.315 . S
H21 C15 0.929 . S
H22 C19 0.930 . S
H23 C11 0.929 . S
H24 C13 0.929 . S
O25 Co0 2.351 . S
O25 C28 1.244 . S
O26 Co0 2.155 . S
O26 C28 1.240 . S
O27 Co0 2.096 . S
O27 C8 1.247 . S
C28 O25 1.244 . S
C28 O26 1.240 . S
H29 C3 0.931 . S
H30 C12 0.931 . S
H31 C16 0.929 . S
H32 C18 0.930 . S
Co33 N37 2.148 . S
Co33 N43 2.128 . S
Co33 N53 2.194 . S
Co33 O58 2.351 . S
Co33 O59 2.155 . S
Co33 O60 2.096 . S
C34 N37 1.301 . S
C34 N38 1.328 . S
C34 H39 0.930 . S
C35 C36 1.333 . S
C35 N37 1.317 . S
C35 H40 0.930 . S
C36 C35 1.333 . S
C36 N38 1.350 . S
C36 H62 0.931 . S
N37 Co33 2.148 . S
N37 C34 1.301 . S
N37 C35 1.317 . S
N38 C34 1.328 . S
N38 C36 1.350 . S
H39 C34 0.930 . S
H40 C35 0.930 . S
C41 O42 1.224 . S
C41 O60 1.247 . S
O42 C41 1.224 . S
N43 Co33 2.128 . S
N43 C44 1.355 . S
N43 C46 1.311 . S
C44 N43 1.355 . S
C44 C45 1.363 . S
C44 H56 0.929 1_655 S
C45 C44 1.363 . S
C45 N47 1.375 . S
C45 H63 0.931 1_655 S
C46 N43 1.311 . S
C46 N47 1.347 . S
C46 H57 0.929 . S
N47 C45 1.375 . S
N47 C46 1.347 . S
C48 C51 1.365 . S
C48 N53 1.328 1_455 S
C48 H54 0.929 . S
C49 C50 1.362 . S
C49 C52 1.378 1_455 S
C49 H64 0.929 . S
C50 C49 1.362 . S
C50 C51 1.366 . S
C51 C48 1.365 . S
C51 C50 1.366 . S
C51 H65 0.930 . S
C52 C49 1.378 1_655 S
C52 N53 1.315 . S
C52 H55 0.930 . S
N53 Co33 2.194 . S
N53 C48 1.328 1_655 S
N53 C52 1.315 . S
H54 C48 0.929 . S
H55 C52 0.930 . S
H56 C44 0.929 1_455 S
H57 C46 0.929 . S
O58 Co33 2.351 . S
O58 C61 1.244 . S
O59 Co33 2.155 . S
O59 C61 1.240 . S
O60 Co33 2.096 . S
O60 C41 1.247 . S
C61 O58 1.244 . S
C61 O59 1.240 . S
H62 C36 0.931 . S
H63 C45 0.931 1_455 S
H64 C49 0.929 . S
H65 C51 0.930 . S
Co66 N70 2.148 . S
Co66 N76 2.128 . S
Co66 N86 2.194 . S
Co66 O91 2.351 . S
Co66 O92 2.155 . S
Co66 O93 2.096 . S
C67 N70 1.301 . S
C67 N71 1.328 . S
C67 H72 0.930 . S
C68 C69 1.333 . S
C68 N70 1.317 . S
C68 H73 0.930 . S
C69 C68 1.333 . S
C69 N71 1.350 . S
C69 H95 0.931 . S
N70 Co66 2.148 . S
N70 C67 1.301 . S
N70 C68 1.317 . S
N71 C67 1.328 . S
N71 C69 1.350 . S
H72 C67 0.930 . S
H73 C68 0.930 . S
C74 O75 1.224 . S
C74 O93 1.247 . S
O75 C74 1.224 . S
N76 Co66 2.128 . S
N76 C77 1.355 . S
N76 C79 1.311 . S
C77 N76 1.355 . S
C77 C78 1.363 . S
C77 H89 0.929 1_565 S
C78 C77 1.363 . S
C78 N80 1.375 . S
C78 H96 0.931 1_565 S
C79 N76 1.311 . S
C79 N80 1.347 . S
C79 H90 0.929 . S
N80 C78 1.375 . S
N80 C79 1.347 . S
C81 C84 1.365 . S
C81 N86 1.328 1_545 S
C81 H87 0.929 . S
C82 C83 1.362 . S
C82 C85 1.378 1_545 S
C82 H97 0.929 . S
C83 C82 1.362 . S
C83 C84 1.366 . S
C84 C81 1.365 . S
C84 C83 1.366 . S
C84 H98 0.930 . S
C85 C82 1.378 1_565 S
C85 N86 1.315 . S
C85 H88 0.930 . S
N86 Co66 2.194 . S
N86 C81 1.328 1_565 S
N86 C85 1.315 . S
H87 C81 0.929 . S
H88 C85 0.930 . S
H89 C77 0.929 1_545 S
H90 C79 0.929 . S
O91 Co66 2.351 . S
O91 C94 1.244 . S
O92 Co66 2.155 . S
O92 C94 1.240 . S
O93 Co66 2.096 . S
O93 C74 1.247 . S
C94 O91 1.244 . S
C94 O92 1.240 . S
H95 C69 0.931 . S
H96 C78 0.931 1_545 S
H97 C82 0.929 . S
H98 C84 0.930 . S
Co99 N103 2.148 . S
Co99 N109 2.128 . S
Co99 N119 2.194 . S
Co99 O124 2.351 . S
Co99 O125 2.155 . S
Co99 O126 2.096 . S
C100 N103 1.301 . S
C100 N104 1.328 . S
C100 H105 0.930 . S
C101 C102 1.333 . S
C101 N103 1.317 . S
C101 H106 0.930 . S
C102 C101 1.333 . S
C102 N104 1.350 . S
C102 H128 0.931 . S
N103 Co99 2.148 . S
N103 C100 1.301 . S
N103 C101 1.317 . S
N104 C100 1.328 . S
N104 C102 1.350 . S
H105 C100 0.930 . S
H106 C101 0.930 . S
C107 O108 1.224 . S
C107 O126 1.247 . S
O108 C107 1.224 . S
N109 Co99 2.128 . S
N109 C110 1.355 . S
N109 C112 1.311 . S
C110 N109 1.355 . S
C110 C111 1.363 . S
C110 H122 0.929 . S
C111 C110 1.363 . S
C111 N113 1.375 . S
C111 H129 0.931 . S
C112 N109 1.311 . S
C112 N113 1.347 . S
C112 H123 0.929 . S
N113 C111 1.375 . S
N113 C112 1.347 . S
C114 C117 1.365 . S
C114 N119 1.328 . S
C114 H120 0.929 . S
C115 C116 1.362 . S
C115 C118 1.378 . S
C115 H130 0.929 . S
C116 C115 1.362 . S
C116 C117 1.366 . S
C117 C114 1.365 . S
C117 C116 1.366 . S
C117 H131 0.930 . S
C118 C115 1.378 . S
C118 N119 1.315 . S
C118 H121 0.930 . S
N119 Co99 2.194 . S
N119 C114 1.328 . S
N119 C118 1.315 . S
H120 C114 0.929 . S
H121 C118 0.930 . S
H122 C110 0.929 . S
H123 C112 0.929 . S
O124 Co99 2.351 . S
O124 C127 1.244 . S
O125 Co99 2.155 . S
O125 C127 1.240 . S
O126 Co99 2.096 . S
O126 C107 1.247 . S
C127 O124 1.244 . S
C127 O125 1.240 . S
H128 C102 0.931 . S
H129 C111 0.931 . S
H130 C115 0.929 . S
H131 C117 0.930 . S
Co132 N136 2.148 . S
Co132 N142 2.128 . S
Co132 N152 2.194 . S
Co132 O157 2.351 . S
Co132 O158 2.155 . S
Co132 O159 2.096 . S
C133 N136 1.301 . S
C133 N137 1.328 . S
C133 H138 0.930 . S
C134 C135 1.333 . S
C134 N136 1.317 . S
C134 H139 0.930 . S
C135 C134 1.333 . S
C135 N137 1.350 . S
C135 H161 0.931 . S
N136 Co132 2.148 . S
N136 C133 1.301 . S
N136 C134 1.317 . S
N137 C133 1.328 . S
N137 C135 1.350 . S
H138 C133 0.930 . S
H139 C134 0.930 . S
C140 O141 1.224 . S
C140 O159 1.247 . S
O141 C140 1.224 . S
N142 Co132 2.128 . S
N142 C143 1.355 . S
N142 C145 1.311 . S
C143 N142 1.355 . S
C143 C144 1.363 . S
C143 H155 0.929 1_455 S
C144 C143 1.363 . S
C144 N146 1.375 . S
C144 H162 0.931 1_455 S
C145 N142 1.311 . S
C145 N146 1.347 . S
C145 H156 0.929 . S
N146 C144 1.375 . S
N146 C145 1.347 . S
C147 C150 1.365 . S
C147 N152 1.328 1_655 S
C147 H153 0.929 . S
C148 C149 1.362 . S
C148 C151 1.378 1_655 S
C148 H163 0.929 . S
C149 C148 1.362 . S
C149 C150 1.366 . S
C150 C147 1.365 . S
C150 C149 1.366 . S
C150 H164 0.930 . S
C151 C148 1.378 1_455 S
C151 N152 1.315 . S
C151 H154 0.930 . S
N152 Co132 2.194 . S
N152 C147 1.328 1_455 S
N152 C151 1.315 . S
H153 C147 0.929 . S
H154 C151 0.930 . S
H155 C143 0.929 1_655 S
H156 C145 0.929 . S
O157 Co132 2.351 . S
O157 C160 1.244 . S
O158 Co132 2.155 . S
O158 C160 1.240 . S
O159 Co132 2.096 . S
O159 C140 1.247 . S
C160 O157 1.244 . S
C160 O158 1.240 . S
H161 C135 0.931 . S
H162 C144 0.931 1_655 S
H163 C148 0.929 . S
H164 C150 0.930 . S
Co165 N169 2.148 . S
Co165 N175 2.128 . S
Co165 N185 2.194 . S
Co165 O190 2.351 . S
Co165 O191 2.155 . S
Co165 O192 2.096 . S
C166 N169 1.301 . S
C166 N170 1.328 . S
C166 H171 0.930 . S
C167 C168 1.333 . S
C167 N169 1.317 . S
C167 H172 0.930 . S
C168 C167 1.333 . S
C168 N170 1.350 . S
C168 H194 0.931 . S
N169 Co165 2.148 . S
N169 C166 1.301 . S
N169 C167 1.317 . S
N170 C166 1.328 . S
N170 C168 1.350 . S
H171 C166 0.930 . S
H172 C167 0.930 . S
C173 O174 1.224 . S
C173 O192 1.247 . S
O174 C173 1.224 . S
N175 Co165 2.128 . S
N175 C176 1.355 . S
N175 C178 1.311 . S
C176 N175 1.355 . S
C176 C177 1.363 . S
C176 H188 0.929 1_545 S
C177 C176 1.363 . S
C177 N179 1.375 . S
C177 H195 0.931 1_545 S
C178 N175 1.311 . S
C178 N179 1.347 . S
C178 H189 0.929 . S
N179 C177 1.375 . S
N179 C178 1.347 . S
C180 C183 1.365 . S
C180 N185 1.328 1_565 S
C180 H186 0.929 . S
C181 C182 1.362 . S
C181 C184 1.378 1_565 S
C181 H196 0.929 . S
C182 C181 1.362 . S
C182 C183 1.366 . S
C183 C180 1.365 . S
C183 C182 1.366 . S
C183 H197 0.930 . S
C184 C181 1.378 1_545 S
C184 N185 1.315 . S
C184 H187 0.930 . S
N185 Co165 2.194 . S
N185 C180 1.328 1_545 S
N185 C184 1.315 . S
H186 C180 0.929 . S
H187 C184 0.930 . S
H188 C176 0.929 1_565 S
H189 C178 0.929 . S
O190 Co165 2.351 . S
O190 C193 1.244 . S
O191 Co165 2.155 . S
O191 C193 1.240 . S
O192 Co165 2.096 . S
O192 C173 1.247 . S
C193 O190 1.244 . S
C193 O191 1.240 . S
H194 C168 0.931 . S
H195 C177 0.931 1_565 S
H196 C181 0.929 . S
H197 C183 0.930 . S
Co198 N202 2.148 . S
Co198 N208 2.128 . S
Co198 N218 2.194 . S
Co198 O223 2.351 . S
Co198 O224 2.155 . S
Co198 O225 2.096 . S
C199 N202 1.301 . S
C199 N203 1.328 . S
C199 H204 0.930 . S
C200 C201 1.333 . S
C200 N202 1.317 . S
C200 H205 0.930 . S
C201 C200 1.333 . S
C201 N203 1.350 . S
C201 H227 0.931 . S
N202 Co198 2.148 . S
N202 C199 1.301 . S
N202 C200 1.317 . S
N203 C199 1.328 . S
N203 C201 1.350 . S
H204 C199 0.930 . S
H205 C200 0.930 . S
C206 O207 1.224 . S
C206 O225 1.247 . S
O207 C206 1.224 . S
N208 Co198 2.128 . S
N208 C209 1.355 . S
N208 C211 1.311 . S
C209 N208 1.355 . S
C209 C210 1.363 . S
C209 H221 0.929 . S
C210 C209 1.363 . S
C210 N212 1.375 . S
C210 H228 0.931 . S
C211 N208 1.311 . S
C211 N212 1.347 . S
C211 H222 0.929 . S
N212 C210 1.375 . S
N212 C211 1.347 . S
C213 C216 1.365 . S
C213 N218 1.328 . S
C213 H219 0.929 . S
C214 C215 1.362 . S
C214 C217 1.378 . S
C214 H229 0.929 . S
C215 C214 1.362 . S
C215 C216 1.366 . S
C216 C213 1.365 . S
C216 C215 1.366 . S
C216 H230 0.930 . S
C217 C214 1.378 . S
C217 N218 1.315 . S
C217 H220 0.930 . S
N218 Co198 2.194 . S
N218 C213 1.328 . S
N218 C217 1.315 . S
H219 C213 0.929 . S
H220 C217 0.930 . S
H221 C209 0.929 . S
H222 C211 0.929 . S
O223 Co198 2.351 . S
O223 C226 1.244 . S
O224 Co198 2.155 . S
O224 C226 1.240 . S
O225 Co198 2.096 . S
O225 C206 1.247 . S
C226 O223 1.244 . S
C226 O224 1.240 . S
H227 C201 0.931 . S
H228 C210 0.931 . S
H229 C214 0.929 . S
H230 C216 0.930 . S
Co231 N235 2.148 . S
Co231 N241 2.128 . S
Co231 N251 2.194 . S
Co231 O256 2.351 . S
Co231 O257 2.155 . S
Co231 O258 2.096 . S
C232 N235 1.301 . S
C232 N236 1.328 . S
C232 H237 0.930 . S
C233 C234 1.333 . S
C233 N235 1.317 . S
C233 H238 0.930 . S
C234 C233 1.333 . S
C234 N236 1.350 . S
C234 H260 0.931 . S
N235 Co231 2.148 . S
N235 C232 1.301 . S
N235 C233 1.317 . S
N236 C232 1.328 . S
N236 C234 1.350 . S
H237 C232 0.930 . S
H238 C233 0.930 . S
C239 O240 1.224 . S
C239 O258 1.247 . S
O240 C239 1.224 . S
N241 Co231 2.128 . S
N241 C242 1.355 . S
N241 C244 1.311 . S
C242 N241 1.355 . S
C242 C243 1.363 . S
C242 H254 0.929 1_655 S
C243 C242 1.363 . S
C243 N245 1.375 . S
C243 H261 0.931 1_655 S
C244 N241 1.311 . S
C244 N245 1.347 . S
C244 H255 0.929 . S
N245 C243 1.375 . S
N245 C244 1.347 . S
C246 C249 1.365 . S
C246 N251 1.328 1_455 S
C246 H252 0.929 . S
C247 C248 1.362 . S
C247 C250 1.378 1_455 S
C247 H262 0.929 . S
C248 C247 1.362 . S
C248 C249 1.366 . S
C249 C246 1.365 . S
C249 C248 1.366 . S
C249 H263 0.930 . S
C250 C247 1.378 1_655 S
C250 N251 1.315 . S
C250 H253 0.930 . S
N251 Co231 2.194 . S
N251 C246 1.328 1_655 S
N251 C250 1.315 . S
H252 C246 0.929 . S
H253 C250 0.930 . S
H254 C242 0.929 1_455 S
H255 C244 0.929 . S
O256 Co231 2.351 . S
O256 C259 1.244 . S
O257 Co231 2.155 . S
O257 C259 1.240 . S
O258 Co231 2.096 . S
O258 C239 1.247 . S
C259 O256 1.244 . S
C259 O257 1.240 . S
H260 C234 0.931 . S
H261 C243 0.931 1_455 S
H262 C247 0.929 . S
H263 C249 0.930 . S
Co264 N268 2.148 . S
Co264 N274 2.128 . S
Co264 N284 2.194 . S
Co264 O289 2.351 . S
Co264 O290 2.155 . S
Co264 O291 2.096 . S
C265 N268 1.301 . S
C265 N269 1.328 . S
C265 H270 0.930 . S
C266 C267 1.333 . S
C266 N268 1.317 . S
C266 H271 0.930 . S
C267 C266 1.333 . S
C267 N269 1.350 . S
C267 H293 0.931 . S
N268 Co264 2.148 . S
N268 C265 1.301 . S
N268 C266 1.317 . S
N269 C265 1.328 . S
N269 C267 1.350 . S
H270 C265 0.930 . S
H271 C266 0.930 . S
C272 O273 1.224 . S
C272 O291 1.247 . S
O273 C272 1.224 . S
N274 Co264 2.128 . S
N274 C275 1.355 . S
N274 C277 1.311 . S
C275 N274 1.355 . S
C275 C276 1.363 . S
C275 H287 0.929 1_565 S
C276 C275 1.363 . S
C276 N278 1.375 . S
C276 H294 0.931 1_565 S
C277 N274 1.311 . S
C277 N278 1.347 . S
C277 H288 0.929 . S
N278 C276 1.375 . S
N278 C277 1.347 . S
C279 C282 1.365 . S
C279 N284 1.328 1_545 S
C279 H285 0.929 . S
C280 C281 1.362 . S
C280 C283 1.378 1_545 S
C280 H295 0.929 . S
C281 C280 1.362 . S
C281 C282 1.366 . S
C282 C279 1.365 . S
C282 C281 1.366 . S
C282 H296 0.930 . S
C283 C280 1.378 1_565 S
C283 N284 1.315 . S
C283 H286 0.930 . S
N284 Co264 2.194 . S
N284 C279 1.328 1_565 S
N284 C283 1.315 . S
H285 C279 0.929 . S
H286 C283 0.930 . S
H287 C275 0.929 1_545 S
H288 C277 0.929 . S
O289 Co264 2.351 . S
O289 C292 1.244 . S
O290 Co264 2.155 . S
O290 C292 1.240 . S
O291 Co264 2.096 . S
O291 C272 1.247 . S
C292 O289 1.244 . S
C292 O290 1.240 . S
H293 C267 0.931 . S
H294 C276 0.931 1_545 S
H295 C280 0.929 . S
H296 C282 0.930 . S
Co297 N301 2.148 . S
Co297 N307 2.128 . S
Co297 N317 2.194 . S
Co297 O322 2.351 . S
Co297 O323 2.155 . S
Co297 O324 2.096 . S
C298 N301 1.301 . S
C298 N302 1.328 . S
C298 H303 0.930 . S
C299 C300 1.333 . S
C299 N301 1.317 . S
C299 H304 0.930 . S
C300 C299 1.333 . S
C300 N302 1.350 . S
C300 H326 0.931 . S
N301 Co297 2.148 . S
N301 C298 1.301 . S
N301 C299 1.317 . S
N302 C298 1.328 . S
N302 C300 1.350 . S
H303 C298 0.930 . S
H304 C299 0.930 . S
C305 O306 1.224 . S
C305 O324 1.247 . S
O306 C305 1.224 . S
N307 Co297 2.128 . S
N307 C308 1.355 . S
N307 C310 1.311 . S
C308 N307 1.355 . S
C308 C309 1.363 . S
C308 H320 0.929 . S
C309 C308 1.363 . S
C309 N311 1.375 . S
C309 H327 0.931 . S
C310 N307 1.311 . S
C310 N311 1.347 . S
C310 H321 0.929 . S
N311 C309 1.375 . S
N311 C310 1.347 . S
C312 C315 1.365 . S
C312 N317 1.328 . S
C312 H318 0.929 . S
C313 C314 1.362 . S
C313 C316 1.378 . S
C313 H328 0.929 . S
C314 C313 1.362 . S
C314 C315 1.366 . S
C315 C312 1.365 . S
C315 C314 1.366 . S
C315 H329 0.930 . S
C316 C313 1.378 . S
C316 N317 1.315 . S
C316 H319 0.930 . S
N317 Co297 2.194 . S
N317 C312 1.328 . S
N317 C316 1.315 . S
H318 C312 0.929 . S
H319 C316 0.930 . S
H320 C308 0.929 . S
H321 C310 0.929 . S
O322 Co297 2.351 . S
O322 C325 1.244 . S
O323 Co297 2.155 . S
O323 C325 1.240 . S
O324 Co297 2.096 . S
O324 C305 1.247 . S
C325 O322 1.244 . S
C325 O323 1.240 . S
H326 C300 0.931 . S
H327 C309 0.931 . S
H328 C313 0.929 . S
H329 C315 0.930 . S
Co330 N334 2.148 . S
Co330 N340 2.128 . S
Co330 N350 2.194 . S
Co330 O355 2.351 . S
Co330 O356 2.155 . S
Co330 O357 2.096 . S
C331 N334 1.301 . S
C331 N335 1.328 . S
C331 H336 0.930 . S
C332 C333 1.333 . S
C332 N334 1.317 . S
C332 H337 0.930 . S
C333 C332 1.333 . S
C333 N335 1.350 . S
C333 H359 0.931 . S
N334 Co330 2.148 . S
N334 C331 1.301 . S
N334 C332 1.317 . S
N335 C331 1.328 . S
N335 C333 1.350 . S
H336 C331 0.930 . S
H337 C332 0.930 . S
C338 O339 1.224 . S
C338 O357 1.247 . S
O339 C338 1.224 . S
N340 Co330 2.128 . S
N340 C341 1.355 . S
N340 C343 1.311 . S
C341 N340 1.355 . S
C341 C342 1.363 . S
C341 H353 0.929 1_455 S
C342 C341 1.363 . S
C342 N344 1.375 . S
C342 H360 0.931 1_455 S
C343 N340 1.311 . S
C343 N344 1.347 . S
C343 H354 0.929 . S
N344 C342 1.375 . S
N344 C343 1.347 . S
C345 C348 1.365 . S
C345 N350 1.328 1_655 S
C345 H351 0.929 . S
C346 C347 1.362 . S
C346 C349 1.378 1_655 S
C346 H361 0.929 . S
C347 C346 1.362 . S
C347 C348 1.366 . S
C348 C345 1.365 . S
C348 C347 1.366 . S
C348 H362 0.930 . S
C349 C346 1.378 1_455 S
C349 N350 1.315 . S
C349 H352 0.930 . S
N350 Co330 2.194 . S
N350 C345 1.328 1_455 S
N350 C349 1.315 . S
H351 C345 0.929 . S
H352 C349 0.930 . S
H353 C341 0.929 1_655 S
H354 C343 0.929 . S
O355 Co330 2.351 . S
O355 C358 1.244 . S
O356 Co330 2.155 . S
O356 C358 1.240 . S
O357 Co330 2.096 . S
O357 C338 1.247 . S
C358 O355 1.244 . S
C358 O356 1.240 . S
H359 C333 0.931 . S
H360 C342 0.931 1_655 S
H361 C346 0.929 . S
H362 C348 0.930 . S
Co363 N367 2.148 . S
Co363 N373 2.128 . S
Co363 N383 2.194 . S
Co363 O388 2.351 . S
Co363 O389 2.155 . S
Co363 O390 2.096 . S
C364 N367 1.301 . S
C364 N368 1.328 . S
C364 H369 0.930 . S
C365 C366 1.333 . S
C365 N367 1.317 . S
C365 H370 0.930 . S
C366 C365 1.333 . S
C366 N368 1.350 . S
C366 H392 0.931 . S
N367 Co363 2.148 . S
N367 C364 1.301 . S
N367 C365 1.317 . S
N368 C364 1.328 . S
N368 C366 1.350 . S
H369 C364 0.930 . S
H370 C365 0.930 . S
C371 O372 1.224 . S
C371 O390 1.247 . S
O372 C371 1.224 . S
N373 Co363 2.128 . S
N373 C374 1.355 . S
N373 C376 1.311 . S
C374 N373 1.355 . S
C374 C375 1.363 . S
C374 H386 0.929 1_545 S
C375 C374 1.363 . S
C375 N377 1.375 . S
C375 H393 0.931 1_545 S
C376 N373 1.311 . S
C376 N377 1.347 . S
C376 H387 0.929 . S
N377 C375 1.375 . S
N377 C376 1.347 . S
C378 C381 1.365 . S
C378 N383 1.328 1_565 S
C378 H384 0.929 . S
C379 C380 1.362 . S
C379 C382 1.378 1_565 S
C379 H394 0.929 . S
C380 C379 1.362 . S
C380 C381 1.366 . S
C381 C378 1.365 . S
C381 C380 1.366 . S
C381 H395 0.930 . S
C382 C379 1.378 1_545 S
C382 N383 1.315 . S
C382 H385 0.930 . S
N383 Co363 2.194 . S
N383 C378 1.328 1_545 S
N383 C382 1.315 . S
H384 C378 0.929 . S
H385 C382 0.930 . S
H386 C374 0.929 1_565 S
H387 C376 0.929 . S
O388 Co363 2.351 . S
O388 C391 1.244 . S
O389 Co363 2.155 . S
O389 C391 1.240 . S
O390 Co363 2.096 . S
O390 C371 1.247 . S
C391 O388 1.244 . S
C391 O389 1.240 . S
H392 C366 0.931 . S
H393 C375 0.931 1_565 S
H394 C379 0.929 . S
H395 C381 0.930 . S
C396 C397 1.363 . S
C396 C402 1.379 . S
C396 N404 1.356 . S
C397 C396 1.363 . S
C397 C403 1.363 . S
C398 C399 1.363 . S
C398 C403 1.379 . S
C398 N405 1.356 . S
C399 C398 1.363 . S
C399 C402 1.363 . S
N400 C402 1.356 . S
N400 H412 0.984 . S
N400 H413 0.985 . S
N401 C403 1.356 . S
N401 H406 0.984 . S
N401 H407 0.985 . S
C402 C396 1.379 . S
C402 C399 1.363 . S
C402 N400 1.356 . S
C403 C397 1.363 . S
C403 C398 1.379 . S
C403 N401 1.356 . S
N404 C396 1.356 . S
N404 H410 0.984 . S
N404 H411 0.984 . S
N405 C398 1.356 . S
N405 H408 0.984 . S
N405 H409 0.985 . S
H406 N401 0.984 . S
H407 N401 0.985 . S
H408 N405 0.984 . S
H409 N405 0.985 . S
H410 N404 0.984 . S
H411 N404 0.984 . S
H412 N400 0.984 . S
H413 N400 0.985 . S
C414 C415 1.363 . S
C414 C420 1.379 1_455 S
C414 N422 1.356 . S
C415 C414 1.363 . S
C415 C421 1.363 . S
C416 C417 1.363 . S
C416 C421 1.379 1_655 S
C416 N423 1.356 . S
C417 C416 1.363 . S
C417 C420 1.363 . S
N418 C420 1.356 . S
N418 H430 0.984 1_655 S
N418 H431 0.985 . S
N419 C421 1.356 . S
N419 H424 0.984 . S
N419 H425 0.985 1_455 S
C420 C414 1.379 1_655 S
C420 C417 1.363 . S
C420 N418 1.356 . S
C421 C415 1.363 . S
C421 C416 1.379 1_455 S
C421 N419 1.356 . S
N422 C414 1.356 . S
N422 H428 0.984 . S
N422 H429 0.984 . S
N423 C416 1.356 . S
N423 H426 0.984 . S
N423 H427 0.985 . S
H424 N419 0.984 . S
H425 N419 0.985 1_655 S
H426 N423 0.984 . S
H427 N423 0.985 . S
H428 N422 0.984 . S
H429 N422 0.984 . S
H430 N418 0.984 1_455 S
H431 N418 0.985 . S
C432 C433 1.363 . S
C432 C438 1.379 1_545 S
C432 N440 1.356 . S
C433 C432 1.363 . S
C433 C439 1.363 . S
C434 C435 1.363 . S
C434 C439 1.379 1_565 S
C434 N441 1.356 . S
C435 C434 1.363 . S
C435 C438 1.363 . S
N436 C438 1.356 . S
N436 H448 0.984 . S
N436 H449 0.985 . S
N437 C439 1.356 . S
N437 H442 0.984 . S
N437 H443 0.985 . S
C438 C432 1.379 1_565 S
C438 C435 1.363 . S
C438 N436 1.356 . S
C439 C433 1.363 . S
C439 C434 1.379 1_545 S
C439 N437 1.356 . S
N440 C432 1.356 . S
N440 H446 0.984 1_545 S
N440 H447 0.984 . S
N441 C434 1.356 . S
N441 H444 0.984 . S
N441 H445 0.985 1_565 S
H442 N437 0.984 . S
H443 N437 0.985 . S
H444 N441 0.984 . S
H445 N441 0.985 1_545 S
H446 N440 0.984 1_565 S
H447 N440 0.984 . S
H448 N436 0.984 . S
H449 N436 0.985 . S
C450 C451 1.363 . S
C450 C456 1.379 . S
C450 N458 1.356 . S
C451 C450 1.363 . S
C451 C457 1.363 . S
C452 C453 1.363 . S
C452 C457 1.379 . S
C452 N459 1.356 . S
C453 C452 1.363 . S
C453 C456 1.363 . S
N454 C456 1.356 . S
N454 H466 0.984 . S
N454 H467 0.985 . S
N455 C457 1.356 . S
N455 H460 0.984 . S
N455 H461 0.985 . S
C456 C450 1.379 . S
C456 C453 1.363 . S
C456 N454 1.356 . S
C457 C451 1.363 . S
C457 C452 1.379 . S
C457 N455 1.356 . S
N458 C450 1.356 . S
N458 H464 0.984 . S
N458 H465 0.984 . S
N459 C452 1.356 . S
N459 H462 0.984 . S
N459 H463 0.985 . S
H460 N455 0.984 . S
H461 N455 0.985 . S
H462 N459 0.984 . S
H463 N459 0.985 . S
H464 N458 0.984 . S
H465 N458 0.984 . S
H466 N454 0.984 . S
H467 N454 0.985 . S
C468 C469 1.363 . S
C468 C474 1.379 1_655 S
C468 N476 1.356 . S
C469 C468 1.363 . S
C469 C475 1.363 . S
C470 C471 1.363 . S
C470 C475 1.379 1_455 S
C470 N477 1.356 . S
C471 C470 1.363 . S
C471 C474 1.363 . S
N472 C474 1.356 . S
N472 H484 0.984 1_455 S
N472 H485 0.985 . S
N473 C475 1.356 . S
N473 H478 0.984 . S
N473 H479 0.985 1_655 S
C474 C468 1.379 1_455 S
C474 C471 1.363 . S
C474 N472 1.356 . S
C475 C469 1.363 . S
C475 C470 1.379 1_655 S
C475 N473 1.356 . S
N476 C468 1.356 . S
N476 H482 0.984 . S
N476 H483 0.984 . S
N477 C470 1.356 . S
N477 H480 0.984 . S
N477 H481 0.985 . S
H478 N473 0.984 . S
H479 N473 0.985 1_455 S
H480 N477 0.984 . S
H481 N477 0.985 . S
H482 N476 0.984 . S
H483 N476 0.984 . S
H484 N472 0.984 1_655 S
H485 N472 0.985 . S
C486 C487 1.363 . S
C486 C492 1.379 1_565 S
C486 N494 1.356 . S
C487 C486 1.363 . S
C487 C493 1.363 . S
C488 C489 1.363 . S
C488 C493 1.379 1_545 S
C488 N495 1.356 . S
C489 C488 1.363 . S
C489 C492 1.363 . S
N490 C492 1.356 . S
N490 H502 0.984 1_545 S
N490 H503 0.985 . S
N491 C493 1.356 . S
N491 H496 0.984 . S
N491 H497 0.985 1_565 S
C492 C486 1.379 1_545 S
C492 C489 1.363 . S
C492 N490 1.356 . S
C493 C487 1.363 . S
C493 C488 1.379 1_565 S
C493 N491 1.356 . S
N494 C486 1.356 . S
N494 H500 0.984 . S
N494 H501 0.984 . S
N495 C488 1.356 . S
N495 H498 0.984 . S
N495 H499 0.985 . S
H496 N491 0.984 . S
H497 N491 0.985 1_545 S
H498 N495 0.984 . S
H499 N495 0.985 . S
H500 N494 0.984 . S
H501 N494 0.984 . S
H502 N490 0.984 1_565 S
H503 N490 0.985 . S
C504 C505 1.363 . S
C504 C510 1.379 . S
C504 N512 1.356 . S
C505 C504 1.363 . S
C505 C511 1.363 . S
C506 C507 1.363 . S
C506 C511 1.379 . S
C506 N513 1.356 . S
C507 C506 1.363 . S
C507 C510 1.363 . S
N508 C510 1.356 . S
N508 H520 0.984 . S
N508 H521 0.985 . S
N509 C511 1.356 . S
N509 H514 0.984 . S
N509 H515 0.985 . S
C510 C504 1.379 . S
C510 C507 1.363 . S
C510 N508 1.356 . S
C511 C505 1.363 . S
C511 C506 1.379 . S
C511 N509 1.356 . S
N512 C504 1.356 . S
N512 H518 0.984 . S
N512 H519 0.984 . S
N513 C506 1.356 . S
N513 H516 0.984 . S
N513 H517 0.985 . S
H514 N509 0.984 . S
H515 N509 0.985 . S
H516 N513 0.984 . S
H517 N513 0.985 . S
H518 N512 0.984 . S
H519 N512 0.984 . S
H520 N508 0.984 . S
H521 N508 0.985 . S
C522 C523 1.363 . S
C522 C528 1.379 . S
C522 N530 1.356 . S
C523 C522 1.363 . S
C523 C529 1.363 1_655 S
C524 C525 1.363 . S
C524 C529 1.379 . S
C524 N531 1.356 . S
C525 C524 1.363 . S
C525 C528 1.363 1_455 S
N526 C528 1.356 . S
N526 H538 0.984 . S
N526 H539 0.985 1_655 S
N527 C529 1.356 . S
N527 H532 0.984 1_455 S
N527 H533 0.985 . S
C528 C522 1.379 . S
C528 C525 1.363 1_655 S
C528 N526 1.356 . S
C529 C523 1.363 1_455 S
C529 C524 1.379 . S
C529 N527 1.356 . S
N530 C522 1.356 . S
N530 H536 0.984 . S
N530 H537 0.984 . S
N531 C524 1.356 . S
N531 H534 0.984 . S
N531 H535 0.985 . S
H532 N527 0.984 1_655 S
H533 N527 0.985 . S
H534 N531 0.984 . S
H535 N531 0.985 . S
H536 N530 0.984 . S
H537 N530 0.984 . S
H538 N526 0.984 . S
H539 N526 0.985 1_455 S
C540 C541 1.363 . S
C540 C546 1.379 1_554 S
C540 N548 1.356 . S
C541 C540 1.363 . S
C541 C547 1.363 1_545 S
C542 C543 1.363 . S
C542 C547 1.379 1_556 S
C542 N549 1.356 . S
C543 C542 1.363 . S
C543 C546 1.363 1_565 S
N544 C546 1.356 . S
N544 H556 0.984 . S
N544 H557 0.985 1_545 S
N545 C547 1.356 . S
N545 H550 0.984 1_565 S
N545 H551 0.985 . S
C546 C540 1.379 1_556 S
C546 C543 1.363 1_545 S
C546 N544 1.356 . S
C547 C541 1.363 1_565 S
C547 C542 1.379 1_554 S
C547 N545 1.356 . S
N548 C540 1.356 . S
N548 H554 0.998 . S
N548 H555 0.984 . S
N549 C542 1.356 . S
N549 H552 0.984 . S
N549 H553 0.998 . S
H550 N545 0.984 1_545 S
H551 N545 0.985 . S
H552 N549 0.984 . S
H553 N549 0.998 . S
H554 N548 0.998 . S
H555 N548 0.984 . S
H556 N544 0.984 . S
H557 N544 0.985 1_565 S
C558 C559 1.363 . S
C558 C564 1.379 . S
C558 N566 1.356 . S
C559 C558 1.363 . S
C559 C565 1.363 . S
C560 C561 1.363 . S
C560 C565 1.379 . S
C560 N567 1.356 . S
C561 C560 1.363 . S
C561 C564 1.363 . S
N562 C564 1.356 . S
N562 H574 0.984 . S
N562 H575 0.985 . S
N563 C565 1.356 . S
N563 H568 0.984 . S
N563 H569 0.985 . S
C564 C558 1.379 . S
C564 C561 1.363 . S
C564 N562 1.356 . S
C565 C559 1.363 . S
C565 C560 1.379 . S
C565 N563 1.356 . S
N566 C558 1.356 . S
N566 H572 0.984 . S
N566 H573 0.984 . S
N567 C560 1.356 . S
N567 H570 0.984 . S
N567 H571 0.985 . S
H568 N563 0.984 . S
H569 N563 0.985 . S
H570 N567 0.984 . S
H571 N567 0.985 . S
H572 N566 0.984 . S
H573 N566 0.984 . S
H574 N562 0.984 . S
H575 N562 0.985 . S
C576 C577 1.363 . S
C576 C582 1.379 . S
C576 N584 1.356 . S
C577 C576 1.363 . S
C577 C583 1.363 1_455 S
C578 C579 1.363 . S
C578 C583 1.379 . S
C578 N585 1.356 . S
C579 C578 1.363 . S
C579 C582 1.363 1_655 S
N580 C582 1.356 . S
N580 H592 0.984 . S
N580 H593 0.985 1_455 S
N581 C583 1.356 . S
N581 H586 0.984 1_655 S
N581 H587 0.985 . S
C582 C576 1.379 . S
C582 C579 1.363 1_455 S
C582 N580 1.356 . S
C583 C577 1.363 1_655 S
C583 C578 1.379 . S
C583 N581 1.356 . S
N584 C576 1.356 . S
N584 H590 0.984 . S
N584 H591 0.984 . S
N585 C578 1.356 . S
N585 H588 0.984 . S
N585 H589 0.985 . S
H586 N581 0.984 1_455 S
H587 N581 0.985 . S
H588 N585 0.984 . S
H589 N585 0.985 . S
H590 N584 0.984 . S
H591 N584 0.984 . S
H592 N580 0.984 . S
H593 N580 0.985 1_655 S
C594 C595 1.363 . S
C594 C600 1.379 1_546 S
C594 N602 1.356 . S
C595 C594 1.363 . S
C595 C601 1.363 . S
C596 C597 1.363 . S
C596 C601 1.379 1_564 S
C596 N603 1.356 . S
C597 C596 1.363 . S
C597 C600 1.363 . S
N598 C600 1.356 . S
N598 H610 0.984 . S
N598 H611 0.985 . S
N599 C601 1.356 . S
N599 H604 0.984 . S
N599 H605 0.985 . S
C600 C594 1.379 1_564 S
C600 C597 1.363 . S
C600 N598 1.356 . S
C601 C595 1.363 . S
C601 C596 1.379 1_546 S
C601 N599 1.356 . S
N602 C594 1.356 . S
N602 H608 0.984 . S
N602 H609 0.984 . S
N603 C596 1.356 . S
N603 H606 0.984 . S
N603 H607 0.985 . S
H604 N599 0.984 . S
H605 N599 0.985 . S
H606 N603 0.984 . S
H607 N603 0.985 . S
H608 N602 0.984 . S
H609 N602 0.984 . S
H610 N598 0.984 . S
H611 N598 0.985 . S
C612 C613 1.363 . S
C612 C618 1.379 1_545 S
C612 N620 1.356 . S
C613 C612 1.363 . S
C613 C619 1.363 1_455 S
C614 C615 1.363 . S
C614 C619 1.379 1_565 S
C614 N621 1.356 . S
C615 C614 1.363 . S
C615 C618 1.363 1_655 S
N616 C618 1.356 . S
N616 H628 0.984 . S
N616 H629 0.985 . S
N617 C619 1.356 . S
N617 H622 0.984 . S
N617 H623 0.985 . S
C618 C612 1.379 1_565 S
C618 C615 1.363 1_455 S
C618 N616 1.356 . S
C619 C613 1.363 1_655 S
C619 C614 1.379 1_545 S
C619 N617 1.356 . S
N620 C612 1.356 . S
N620 H626 0.984 . S
N620 H627 0.984 . S
N621 C614 1.356 . S
N621 H624 0.984 . S
N621 H625 0.985 . S
H622 N617 0.984 . S
H623 N617 0.985 . S
H624 N621 0.984 . S
H625 N621 0.985 . S
H626 N620 0.984 . S
H627 N620 0.984 . S
H628 N616 0.984 . S
H629 N616 0.985 . S
C630 C631 1.363 1_565 S
C630 C636 1.379 1_655 S
C630 N638 1.356 . S
C631 C630 1.363 1_545 S
C631 C637 1.363 . S
C632 C633 1.363 1_545 S
C632 C637 1.379 1_455 S
C632 N639 1.356 . S
C633 C632 1.363 1_565 S
C633 C636 1.363 . S
N634 C636 1.356 . S
N634 H646 0.984 . S
N634 H647 0.985 . S
N635 C637 1.356 . S
N635 H640 0.984 . S
N635 H641 0.985 . S
C636 C630 1.379 1_455 S
C636 C633 1.363 . S
C636 N634 1.356 . S
C637 C631 1.363 . S
C637 C632 1.379 1_655 S
C637 N635 1.356 . S
N638 C630 1.356 . S
N638 H644 0.984 . S
N638 H645 0.984 . S
N639 C632 1.356 . S
N639 H642 0.984 . S
N639 H643 0.985 . S
H640 N635 0.984 . S
H641 N635 0.985 . S
H642 N639 0.984 . S
H643 N639 0.985 . S
H644 N638 0.984 . S
H645 N638 0.984 . S
H646 N634 0.984 . S
H647 N634 0.985 . S
C648 C649 1.363 . S
C648 C654 1.379 1_445 S
C648 N656 1.356 . S
C649 C648 1.363 . S
C649 C655 1.363 . S
C650 C651 1.363 . S
C650 C655 1.379 1_665 S
C650 N657 1.356 . S
C651 C650 1.363 . S
C651 C654 1.363 . S
N652 C654 1.356 . S
N652 H664 0.984 . S
N652 H665 0.985 . S
N653 C655 1.356 . S
N653 H658 0.984 . S
N653 H659 0.985 . S
C654 C648 1.379 1_665 S
C654 C651 1.363 . S
C654 N652 1.356 . S
C655 C649 1.363 . S
C655 C650 1.379 1_445 S
C655 N653 1.356 . S
N656 C648 1.356 . S
N656 H662 0.984 . S
N656 H663 0.984 . S
N657 C650 1.356 . S
N657 H660 0.984 . S
N657 H661 0.985 . S
H658 N653 0.984 . S
H659 N653 0.985 . S
H660 N657 0.984 . S
H661 N657 0.985 . S
H662 N656 0.984 . S
H663 N656 0.984 . S
H664 N652 0.984 . S
H665 N652 0.985 . S
C666 C667 1.363 . S
C666 C672 1.379 1_655 S
C666 N674 1.356 . S
C667 C666 1.363 . S
C667 C673 1.363 1_565 S
C668 C669 1.363 . S
C668 C673 1.379 1_455 S
C668 N675 1.356 . S
C669 C668 1.363 . S
C669 C672 1.363 1_545 S
N670 C672 1.356 . S
N670 H682 0.984 . S
N670 H683 0.985 . S
N671 C673 1.356 . S
N671 H676 0.984 . S
N671 H677 0.985 . S
C672 C666 1.379 1_455 S
C672 C669 1.363 1_565 S
C672 N670 1.356 . S
C673 C667 1.363 1_545 S
C673 C668 1.379 1_655 S
C673 N671 1.356 . S
N674 C666 1.356 . S
N674 H680 0.984 . S
N674 H681 0.984 . S
N675 C668 1.356 . S
N675 H678 0.984 . S
N675 H679 0.985 . S
H676 N671 0.984 . S
H677 N671 0.985 . S
H678 N675 0.984 . S
H679 N675 0.985 . S
H680 N674 0.984 . S
H681 N674 0.984 . S
H682 N670 0.984 . S
H683 N670 0.985 . S
C684 C685 1.363 . S
C684 C690 1.379 1_665 S
C684 N692 1.356 . S
C685 C684 1.363 . S
C685 C691 1.363 . S
C686 C687 1.363 . S
C686 C691 1.379 1_445 S
C686 N693 1.356 . S
C687 C686 1.363 . S
C687 C690 1.363 . S
N688 C690 1.356 . S
N688 H700 0.984 . S
N688 H701 0.985 . S
N689 C691 1.356 . S
N689 H694 0.984 . S
N689 H695 0.985 . S
C690 C684 1.379 1_445 S
C690 C687 1.363 . S
C690 N688 1.356 . S
C691 C685 1.363 . S
C691 C686 1.379 1_665 S
C691 N689 1.356 . S
N692 C684 1.356 . S
N692 H698 0.984 . S
N692 H699 0.984 . S
N693 C686 1.356 . S
N693 H696 0.984 . S
N693 H697 0.985 . S
H694 N689 0.984 . S
H695 N689 0.985 . S
H696 N693 0.984 . S
H697 N693 0.985 . S
H698 N692 0.984 . S
H699 N692 0.984 . S
H700 N688 0.984 . S
H701 N688 0.985 . S
C702 C703 1.363 . S
C702 C708 1.379 1_545 S
C702 N710 1.356 . S
C703 C702 1.363 . S
C703 C709 1.363 1_655 S
C704 C705 1.363 . S
C704 C709 1.379 1_565 S
C704 N711 1.356 . S
C705 C704 1.363 . S
C705 C708 1.363 1_455 S
N706 C708 1.356 . S
N706 H718 0.984 . S
N706 H719 0.985 . S
N707 C709 1.356 . S
N707 H712 0.984 . S
N707 H713 0.985 . S
C708 C702 1.379 1_565 S
C708 C705 1.363 1_655 S
C708 N706 1.356 . S
C709 C703 1.363 1_455 S
C709 C704 1.379 1_545 S
C709 N707 1.356 . S
N710 C702 1.356 . S
N710 H716 0.984 . S
N710 H717 0.984 . S
N711 C704 1.356 . S
N711 H714 0.984 . S
N711 H715 0.985 . S
H712 N707 0.984 . S
H713 N707 0.985 . S
H714 N711 0.984 . S
H715 N711 0.985 . S
H716 N710 0.984 . S
H717 N710 0.984 . S
H718 N706 0.984 . S
H719 N706 0.985 . S
C720 C721 1.363 1_455 S
C720 C726 1.379 . S
C720 N728 1.356 1_455 S
C721 C720 1.363 1_655 S
C721 C727 1.363 . S
C722 C723 1.363 1_655 S
C722 C727 1.379 . S
C722 N729 1.356 1_655 S
C723 C722 1.363 1_455 S
C723 C726 1.363 . S
N724 C726 1.356 . S
N724 H736 0.984 . S
N724 H737 0.985 . S
N725 C727 1.356 . S
N725 H730 0.984 . S
N725 H731 0.985 . S
C726 C720 1.379 . S
C726 C723 1.363 . S
C726 N724 1.356 . S
C727 C721 1.363 . S
C727 C722 1.379 . S
C727 N725 1.356 . S
N728 C720 1.356 1_655 S
N728 H734 0.984 1_655 S
N728 H735 0.984 . S
N729 C722 1.356 1_455 S
N729 H732 0.984 . S
N729 H733 0.985 1_455 S
H730 N725 0.984 . S
H731 N725 0.985 . S
H732 N729 0.984 . S
H733 N729 0.985 1_655 S
H734 N728 0.984 1_455 S
H735 N728 0.984 . S
H736 N724 0.984 . S
H737 N724 0.985 . S
C738 C739 1.363 . S
C738 C744 1.379 . S
C738 N746 1.356 . S
C739 C738 1.363 . S
C739 C745 1.363 1_545 S
C740 C741 1.363 . S
C740 C745 1.379 . S
C740 N747 1.356 . S
C741 C740 1.363 . S
C741 C744 1.363 1_565 S
N742 C744 1.356 1_565 S
N742 H754 0.984 1_565 S
N742 H755 0.985 . S
N743 C745 1.356 1_545 S
N743 H748 0.984 . S
N743 H749 0.985 1_545 S
C744 C738 1.379 . S
C744 C741 1.363 1_545 S
C744 N742 1.356 1_545 S
C745 C739 1.363 1_565 S
C745 C740 1.379 . S
C745 N743 1.356 1_565 S
N746 C738 1.356 . S
N746 H752 0.984 . S
N746 H753 0.984 . S
N747 C740 1.356 . S
N747 H750 0.984 . S
N747 H751 0.985 . S
H748 N743 0.984 . S
H749 N743 0.985 1_565 S
H750 N747 0.984 . S
H751 N747 0.985 . S
H752 N746 0.984 . S
H753 N746 0.984 . S
H754 N742 0.984 1_545 S
H755 N742 0.985 . S
C756 C757 1.363 . S
C756 C762 1.379 . S
C756 N764 1.356 . S
C757 C756 1.363 . S
C757 C763 1.363 . S
C758 C759 1.363 . S
C758 C763 1.379 . S
C758 N765 1.356 . S
C759 C758 1.363 . S
C759 C762 1.363 . S
N760 C762 1.356 . S
N760 H772 0.984 . S
N760 H773 0.985 . S
N761 C763 1.356 . S
N761 H766 0.984 . S
N761 H767 0.985 . S
C762 C756 1.379 . S
C762 C759 1.363 . S
C762 N760 1.356 . S
C763 C757 1.363 . S
C763 C758 1.379 . S
C763 N761 1.356 . S
N764 C756 1.356 . S
N764 H770 0.984 . S
N764 H771 0.984 . S
N765 C758 1.356 . S
N765 H768 0.984 . S
N765 H769 0.985 . S
H766 N761 0.984 . S
H767 N761 0.985 . S
H768 N765 0.984 . S
H769 N765 0.985 . S
H770 N764 0.984 . S
H771 N764 0.984 . S
H772 N760 0.984 . S
H773 N760 0.985 . S
C774 C775 1.363 1_655 S
C774 C780 1.379 . S
C774 N782 1.356 . S
C775 C774 1.363 1_455 S
C775 C781 1.363 . S
C776 C777 1.363 1_455 S
C776 C781 1.379 . S
C776 N783 1.356 . S
C777 C776 1.363 1_655 S
C777 C780 1.363 . S
N778 C780 1.356 . S
N778 H790 0.984 . S
N778 H791 0.985 . S
N779 C781 1.356 . S
N779 H784 0.984 . S
N779 H785 0.985 . S
C780 C774 1.379 . S
C780 C777 1.363 . S
C780 N778 1.356 . S
C781 C775 1.363 . S
C781 C776 1.379 . S
C781 N779 1.356 . S
N782 C774 1.356 . S
N782 H788 0.984 . S
N782 H789 0.984 1_655 S
N783 C776 1.356 . S
N783 H786 0.984 1_455 S
N783 H787 0.985 . S
H784 N779 0.984 . S
H785 N779 0.985 . S
H786 N783 0.984 1_655 S
H787 N783 0.985 . S
H788 N782 0.984 . S
H789 N782 0.984 1_455 S
H790 N778 0.984 . S
H791 N778 0.985 . S
C792 C793 1.363 . S
C792 C798 1.379 . S
C792 N800 1.356 . S
C793 C792 1.363 . S
C793 C799 1.363 1_565 S
C794 C795 1.363 . S
C794 C799 1.379 . S
C794 N801 1.356 . S
C795 C794 1.363 . S
C795 C798 1.363 1_545 S
N796 C798 1.356 1_545 S
N796 H808 0.984 1_545 S
N796 H809 0.985 . S
N797 C799 1.356 1_565 S
N797 H802 0.984 . S
N797 H803 0.985 1_565 S
C798 C792 1.379 . S
C798 C795 1.363 1_565 S
C798 N796 1.356 1_565 S
C799 C793 1.363 1_545 S
C799 C794 1.379 . S
C799 N797 1.356 1_545 S
N800 C792 1.356 . S
N800 H806 0.984 . S
N800 H807 0.984 . S
N801 C794 1.356 . S
N801 H804 0.984 . S
N801 H805 0.985 . S
H802 N797 0.984 . S
H803 N797 0.985 1_545 S
H804 N801 0.984 . S
H805 N801 0.985 . S
H806 N800 0.984 . S
H807 N800 0.984 . S
H808 N796 0.984 1_565 S
H809 N796 0.985 . S
C810 C811 1.363 . S
C810 C816 1.379 . S
C810 N818 1.356 . S
C811 C810 1.363 . S
C811 C817 1.363 . S
C812 C813 1.363 . S
C812 C817 1.379 . S
C812 N819 1.356 . S
C813 C812 1.363 . S
C813 C816 1.363 . S
N814 C816 1.356 . S
N814 H826 0.984 . S
N814 H827 0.985 . S
N815 C817 1.356 . S
N815 H820 0.984 . S
N815 H821 0.985 . S
C816 C810 1.379 . S
C816 C813 1.363 . S
C816 N814 1.356 . S
C817 C811 1.363 . S
C817 C812 1.379 . S
C817 N815 1.356 . S
N818 C810 1.356 . S
N818 H824 0.984 . S
N818 H825 0.984 . S
N819 C812 1.356 . S
N819 H822 0.984 . S
N819 H823 0.985 . S
H820 N815 0.984 . S
H821 N815 0.985 . S
H822 N819 0.984 . S
H823 N819 0.985 . S
H824 N818 0.984 . S
H825 N818 0.984 . S
H826 N814 0.984 . S
H827 N814 0.985 . S
C828 C829 1.363 . S
C828 C834 1.379 . S
C828 N836 1.356 . S
C829 C828 1.363 . S
C829 C835 1.363 . S
C830 C831 1.363 . S
C830 C835 1.379 . S
C830 N837 1.356 . S
C831 C830 1.363 . S
C831 C834 1.363 . S
N832 C834 1.356 . S
N832 H844 0.984 . S
N832 H845 0.985 . S
N833 C835 1.356 . S
N833 H838 0.984 . S
N833 H839 0.985 . S
C834 C828 1.379 . S
C834 C831 1.363 . S
C834 N832 1.356 . S
C835 C829 1.363 . S
C835 C830 1.379 . S
C835 N833 1.356 . S
N836 C828 1.356 . S
N836 H842 0.984 . S
N836 H843 0.984 . S
N837 C830 1.356 . S
N837 H840 0.984 . S
N837 H841 0.985 . S
H838 N833 0.984 . S
H839 N833 0.985 . S
H840 N837 0.984 . S
H841 N837 0.985 . S
H842 N836 0.984 . S
H843 N836 0.984 . S
H844 N832 0.984 . S
H845 N832 0.985 . S
C846 C847 1.363 . S
C846 C852 1.379 . S
C846 N854 1.356 . S
C847 C846 1.363 . S
C847 C853 1.363 . S
C848 C849 1.363 . S
C848 C853 1.379 . S
C848 N855 1.356 . S
C849 C848 1.363 . S
C849 C852 1.363 . S
N850 C852 1.356 . S
N850 H862 0.984 . S
N850 H863 0.985 . S
N851 C853 1.356 . S
N851 H856 0.984 . S
N851 H857 0.985 . S
C852 C846 1.379 . S
C852 C849 1.363 . S
C852 N850 1.356 . S
C853 C847 1.363 . S
C853 C848 1.379 . S
C853 N851 1.356 . S
N854 C846 1.356 . S
N854 H860 0.984 . S
N854 H861 0.984 . S
N855 C848 1.356 . S
N855 H858 0.984 . S
N855 H859 0.985 . S
H856 N851 0.984 . S
H857 N851 0.985 . S
H858 N855 0.984 . S
H859 N855 0.985 . S
H860 N854 0.984 . S
H861 N854 0.984 . S
H862 N850 0.984 . S
H863 N850 0.985 . S
C864 C865 1.363 . S
C864 C870 1.379 . S
C864 N872 1.356 . S
C865 C864 1.363 . S
C865 C871 1.363 . S
C866 C867 1.363 . S
C866 C871 1.379 . S
C866 N873 1.356 . S
C867 C866 1.363 . S
C867 C870 1.363 . S
N868 C870 1.356 . S
N868 H880 0.984 . S
N868 H881 0.985 . S
N869 C871 1.356 . S
N869 H874 0.984 . S
N869 H875 0.985 . S
C870 C864 1.379 . S
C870 C867 1.363 . S
C870 N868 1.356 . S
C871 C865 1.363 . S
C871 C866 1.379 . S
C871 N869 1.356 . S
N872 C864 1.356 . S
N872 H878 0.984 . S
N872 H879 0.984 . S
N873 C866 1.356 . S
N873 H876 0.984 . S
N873 H877 0.985 . S
H874 N869 0.984 . S
H875 N869 0.985 . S
H876 N873 0.984 . S
H877 N873 0.985 . S
H878 N872 0.984 . S
H879 N872 0.984 . S
H880 N868 0.984 . S
H881 N868 0.985 . S
C882 C883 1.363 . S
C882 C888 1.379 . S
C882 N890 1.356 . S
C883 C882 1.363 . S
C883 C889 1.363 . S
C884 C885 1.363 . S
C884 C889 1.379 . S
C884 N891 1.356 . S
C885 C884 1.363 . S
C885 C888 1.363 . S
N886 C888 1.356 . S
N886 H898 0.984 . S
N886 H899 0.985 . S
N887 C889 1.356 . S
N887 H892 0.984 . S
N887 H893 0.985 . S
C888 C882 1.379 . S
C888 C885 1.363 . S
C888 N886 1.356 . S
C889 C883 1.363 . S
C889 C884 1.379 . S
C889 N887 1.356 . S
N890 C882 1.356 . S
N890 H896 0.984 . S
N890 H897 0.984 . S
N891 C884 1.356 . S
N891 H894 0.984 . S
N891 H895 0.985 . S
H892 N887 0.984 . S
H893 N887 0.985 . S
H894 N891 0.984 . S
H895 N891 0.985 . S
H896 N890 0.984 . S
H897 N890 0.984 . S
H898 N886 0.984 . S
H899 N886 0.985 . S
C900 C901 1.363 . S
C900 C906 1.379 . S
C900 N908 1.356 . S
C901 C900 1.363 . S
C901 C907 1.363 . S
C902 C903 1.363 . S
C902 C907 1.379 . S
C902 N909 1.356 . S
C903 C902 1.363 . S
C903 C906 1.363 . S
N904 C906 1.356 . S
N904 H916 0.984 . S
N904 H917 0.985 . S
N905 C907 1.356 . S
N905 H910 0.984 . S
N905 H911 0.985 . S
C906 C900 1.379 . S
C906 C903 1.363 . S
C906 N904 1.356 . S
C907 C901 1.363 . S
C907 C902 1.379 . S
C907 N905 1.356 . S
N908 C900 1.356 . S
N908 H914 0.984 . S
N908 H915 0.984 . S
N909 C902 1.356 . S
N909 H912 0.984 . S
N909 H913 0.985 . S
H910 N905 0.984 . S
H911 N905 0.985 . S
H912 N909 0.984 . S
H913 N909 0.985 . S
H914 N908 0.984 . S
H915 N908 0.984 . S
H916 N904 0.984 . S
H917 N904 0.985 . S
C918 C919 1.363 . S
C918 C924 1.379 . S
C918 N926 1.356 . S
C919 C918 1.363 . S
C919 C925 1.363 . S
C920 C921 1.363 . S
C920 C925 1.379 . S
C920 N927 1.356 . S
C921 C920 1.363 . S
C921 C924 1.363 . S
N922 C924 1.356 . S
N922 H934 0.984 . S
N922 H935 0.985 . S
N923 C925 1.356 . S
N923 H928 0.984 . S
N923 H929 0.985 . S
C924 C918 1.379 . S
C924 C921 1.363 . S
C924 N922 1.356 . S
C925 C919 1.363 . S
C925 C920 1.379 . S
C925 N923 1.356 . S
N926 C918 1.356 . S
N926 H932 0.984 . S
N926 H933 0.984 . S
N927 C920 1.356 . S
N927 H930 0.984 . S
N927 H931 0.985 . S
H928 N923 0.984 . S
H929 N923 0.985 . S
H930 N927 0.984 . S
H931 N927 0.985 . S
H932 N926 0.984 . S
H933 N926 0.984 . S
H934 N922 0.984 . S
H935 N922 0.985 . S
C397 N104 2.051 . S
C399 N5 2.051 . S
C415 N137 2.051 . S
C417 N38 2.051 . S
C433 N170 2.051 . S
C435 N71 2.051 . S
C451 N203 2.051 . S
C453 N302 2.051 . S
C469 N236 2.051 . S
C471 N335 2.051 . S
C487 N269 2.051 . S
C489 N368 2.051 . S
C505 C325 1.842 . S
C507 C28 1.842 . S
C523 C61 1.842 . S
C525 C358 1.842 . S
C541 C391 1.842 . S
C543 C94 1.842 . S
C559 C226 1.842 . S
C561 C127 1.842 . S
C577 C160 1.842 . S
C579 C259 1.842 . S
C595 C193 1.842 . S
C597 C292 1.842 . S
C613 N14 1.122 . S
C615 N113 1.122 . S
C631 N47 1.122 . S
C633 N146 1.122 . S
C649 N179 1.122 . S
C651 N80 1.122 . S
C667 N212 1.122 . S
C669 N311 1.122 . S
C685 N245 1.122 . S
C687 N344 1.122 . S
C703 N377 1.122 . S
C705 N278 1.122 . S
C721 C371 1.910 . S
C723 C8 1.910 . S
C739 C41 1.910 . S
C741 C206 1.910 . S
C757 C239 1.910 . S
C759 C74 1.910 . S
C775 C272 1.910 . S
C777 C107 1.910 . S
C793 C140 1.910 . S
C795 C305 1.910 . S
C811 C173 1.910 . S
C813 C338 1.910 . S
C829 C17 0.394 . S
C831 C281 0.394 . S
C847 C50 0.394 . S
C849 C314 0.394 . S
C865 C347 0.394 . S
C867 C83 0.394 . S
C883 C116 0.394 . S
C885 C380 0.394 . S
C901 C215 0.394 . S
C903 C149 0.394 . S
C919 C182 0.394 . S
C921 C248 0.394 . S
