# Generated by pormake.
# Topology wka, (5)-cn, num edge types: 1
# Building blocks:
#     Node 0, Type 0, BuildingBlock: XOMCOT_clean_sbu_1, # of connection points: 5
#     Node 1, Type 0, BuildingBlock: XOMCOT_clean_sbu_1, # of connection points: 5
#     Node 2, Type 0, BuildingBlock: XOMCOT_clean_sbu_1, # of connection points: 5
#     Node 3, Type 0, BuildingBlock: XOMCOT_clean_sbu_1, # of connection points: 5
#     Node 4, Type 0, BuildingBlock: XOMCOT_clean_sbu_1, # of connection points: 5
#     Node 5, Type 0, BuildingBlock: XOMCOT_clean_sbu_1, # of connection points: 5
#     Node 6, Type 0, BuildingBlock: XOMCOT_clean_sbu_1, # of connection points: 5
#     Node 7, Type 0, BuildingBlock: XOMCOT_clean_sbu_1, # of connection points: 5
#     Node 8, Type 0, BuildingBlock: XOMCOT_clean_sbu_1, # of connection points: 5
#     Node 9, Type 0, BuildingBlock: XOMCOT_clean_sbu_1, # of connection points: 5
#     Node 10, Type 0, BuildingBlock: XOMCOT_clean_sbu_1, # of connection points: 5
#     Node 11, Type 0, BuildingBlock: XOMCOT_clean_sbu_1, # of connection points: 5
#     Edge 12, Type (0, 0), BuildingBlock: KIFKEQ_clean_linker_1, # of connection points: 2
#     Edge 13, Type (0, 0), BuildingBlock: KIFKEQ_clean_linker_1, # of connection points: 2
#     Edge 14, Type (0, 0), BuildingBlock: KIFKEQ_clean_linker_1, # of connection points: 2
#     Edge 15, Type (0, 0), BuildingBlock: KIFKEQ_clean_linker_1, # of connection points: 2
#     Edge 16, Type (0, 0), BuildingBlock: KIFKEQ_clean_linker_1, # of connection points: 2
#     Edge 17, Type (0, 0), BuildingBlock: KIFKEQ_clean_linker_1, # of connection points: 2
#     Edge 18, Type (0, 0), BuildingBlock: KIFKEQ_clean_linker_1, # of connection points: 2
#     Edge 19, Type (0, 0), BuildingBlock: KIFKEQ_clean_linker_1, # of connection points: 2
#     Edge 20, Type (0, 0), BuildingBlock: KIFKEQ_clean_linker_1, # of connection points: 2
#     Edge 21, Type (0, 0), BuildingBlock: KIFKEQ_clean_linker_1, # of connection points: 2
#     Edge 22, Type (0, 0), BuildingBlock: KIFKEQ_clean_linker_1, # of connection points: 2
#     Edge 23, Type (0, 0), BuildingBlock: KIFKEQ_clean_linker_1, # of connection points: 2
#     Edge 24, Type (0, 0), BuildingBlock: KIFKEQ_clean_linker_1, # of connection points: 2
#     Edge 25, Type (0, 0), BuildingBlock: KIFKEQ_clean_linker_1, # of connection points: 2
#     Edge 26, Type (0, 0), BuildingBlock: KIFKEQ_clean_linker_1, # of connection points: 2
#     Edge 27, Type (0, 0), BuildingBlock: KIFKEQ_clean_linker_1, # of connection points: 2
#     Edge 28, Type (0, 0), BuildingBlock: KIFKEQ_clean_linker_1, # of connection points: 2
#     Edge 29, Type (0, 0), BuildingBlock: KIFKEQ_clean_linker_1, # of connection points: 2
#     Edge 30, Type (0, 0), BuildingBlock: KIFKEQ_clean_linker_1, # of connection points: 2
#     Edge 31, Type (0, 0), BuildingBlock: KIFKEQ_clean_linker_1, # of connection points: 2
#     Edge 32, Type (0, 0), BuildingBlock: KIFKEQ_clean_linker_1, # of connection points: 2
#     Edge 33, Type (0, 0), BuildingBlock: KIFKEQ_clean_linker_1, # of connection points: 2
#     Edge 34, Type (0, 0), BuildingBlock: KIFKEQ_clean_linker_1, # of connection points: 2
#     Edge 35, Type (0, 0), BuildingBlock: KIFKEQ_clean_linker_1, # of connection points: 2
#     Edge 36, Type (0, 0), BuildingBlock: KIFKEQ_clean_linker_1, # of connection points: 2
#     Edge 37, Type (0, 0), BuildingBlock: KIFKEQ_clean_linker_1, # of connection points: 2
#     Edge 38, Type (0, 0), BuildingBlock: KIFKEQ_clean_linker_1, # of connection points: 2
#     Edge 39, Type (0, 0), BuildingBlock: KIFKEQ_clean_linker_1, # of connection points: 2
#     Edge 40, Type (0, 0), BuildingBlock: KIFKEQ_clean_linker_1, # of connection points: 2
#     Edge 41, Type (0, 0), BuildingBlock: KIFKEQ_clean_linker_1, # of connection points: 2
# Relax obj value: 0.231
# Max RMSD: 0.181
# Mean RMSD: 0.181
data_MOF--net-wka--node1-XOMCOT_clean_sbu_1--edge1-KIFKEQ_clean_linker_1
_symmetry_space_group_name_H-M    P1
_symmetry_Int_Tables_number       1
_symmetry_cell_setting            triclinic
loop_
_symmetry_equiv_pos_as_xyz
'x, y, z'
_cell_length_a     67.998358
_cell_length_b     67.949241
_cell_length_c     17.355992
_cell_angle_alpha  90.053026
_cell_angle_beta   89.958329
_cell_angle_gamma 120.00422
loop_
_atom_site_label
_atom_site_type_symbol
_atom_site_fract_x
_atom_site_fract_y
_atom_site_fract_z
_atom_type_partial_charge
C0 C 0.1503 0.45421 0.98978 0.0
C1 C 0.15544 0.45659 0.91239 0.0
N2 N 0.14278 0.4362 0.8781 0.0
N3 N 0.1344 0.43248 0.00396 0.0
C4 C 0.13043 0.4219 0.93533 0.0
H5 H 0.15732 0.46753 0.03275 0.0
Co6 Co 0.12035 0.42018 0.09719 0.0
C7 C 0.07172 0.39038 0.04773 0.0
O8 O 0.06431 0.39699 0.10668 0.0
N9 N 0.10714 0.40762 0.19246 0.0
C10 C 0.09043 0.38289 0.28817 0.0
C11 C 0.0909 0.38614 0.20987 0.0
C12 C 0.11711 0.41648 0.26083 0.0
N13 N 0.10706 0.40205 0.32014 0.0
O14 O 0.13297 0.40032 0.09801 0.0
H15 H 0.0813 0.37288 0.16848 0.0
H16 H 0.13258 0.43256 0.26641 0.0
O17 O 0.09302 0.39772 0.04005 0.0
C18 C 0.15402 0.41089 0.11552 0.0
O19 O 0.16453 0.43311 0.12241 0.0
N20 N 0.10985 0.44142 0.09981 0.0
C21 C 0.10338 0.47911 0.09979 0.0
C22 C 0.09364 0.4624 0.04227 0.0
C23 C 0.0974 0.44389 0.04255 0.0
C24 C 0.11967 0.45778 0.15504 0.0
C25 C 0.11621 0.47632 0.15733 0.0
H26 H 0.09149 0.43245 0.99394 0.0
H27 H 0.13164 0.45756 0.19473 0.0
H28 H 0.11812 0.40414 0.92722 0.0
H29 H 0.16735 0.47222 0.88378 0.0
H30 H 0.07977 0.36712 0.31831 0.0
H31 H 0.08431 0.46425 0.99499 0.0
H32 H 0.12434 0.48886 0.20244 0.0
C33 C 0.70795 0.1483 0.13505 0.0
C34 C 0.71045 0.1532 0.05758 0.0
N35 N 0.71634 0.13917 0.02257 0.0
N36 N 0.7122 0.13126 0.14865 0.0
C37 C 0.7175 0.12624 0.0793 0.0
H38 H 0.70261 0.15608 0.17845 0.0
Co39 Co 0.70843 0.11673 0.24235 0.0
C40 C 0.71406 0.07862 0.17875 0.0
O41 O 0.7341 0.08634 0.21071 0.0
N42 N 0.70481 0.10266 0.33612 0.0
C43 C 0.6939 0.07919 0.43588 0.0
C44 C 0.69274 0.08063 0.35695 0.0
C45 C 0.71309 0.1142 0.40223 0.0
N46 N 0.70662 0.10041 0.46413 0.0
O47 O 0.74086 0.12869 0.25031 0.0
H48 H 0.683 0.06666 0.31792 0.0
H49 H 0.7232 0.13254 0.40465 0.0
O50 O 0.70313 0.08917 0.18888 0.0
C51 C 0.75205 0.14996 0.26507 0.0
O52 O 0.74123 0.16143 0.26648 0.0
N53 N 0.67722 0.10683 0.23908 0.0
C54 C 0.63229 0.09757 0.23805 0.0
C55 C 0.64067 0.08998 0.17789 0.0
C56 C 0.66325 0.09483 0.17941 0.0
C57 C 0.66941 0.11452 0.29751 0.0
C58 C 0.64696 0.10982 0.29869 0.0
H59 H 0.66972 0.08975 0.13116 0.0
H60 H 0.68085 0.12489 0.3427 0.0
H61 H 0.72098 0.11255 0.06979 0.0
H62 H 0.70758 0.1657 0.02915 0.0
H63 H 0.68514 0.06384 0.46995 0.0
H64 H 0.62997 0.08066 0.12956 0.0
H65 H 0.64142 0.11655 0.34518 0.0
C66 C 0.57085 0.7047 0.32315 0.0
C67 C 0.56874 0.70794 0.24596 0.0
N68 N 0.58907 0.7152 0.21177 0.0
N69 N 0.59233 0.70974 0.33741 0.0
C70 C 0.60306 0.71642 0.26907 0.0
H71 H 0.55748 0.69853 0.36586 0.0
Co72 Co 0.60413 0.70692 0.43056 0.0
C73 C 0.63092 0.68535 0.37772 0.0
O74 O 0.6217 0.6702 0.433 0.0
N75 N 0.61622 0.70538 0.52587 0.0
C76 C 0.63975 0.7104 0.62271 0.0
C77 C 0.63647 0.70743 0.54445 0.0
C78 C 0.60832 0.70856 0.59337 0.0
N79 N 0.62196 0.71112 0.65354 0.0
O80 O 0.62463 0.7393 0.43381 0.0
H81 H 0.6491 0.70868 0.50401 0.0
H82 H 0.59334 0.71019 0.59735 0.0
O83 O 0.62629 0.70144 0.37293 0.0
C84 C 0.61436 0.75 0.45267 0.0
O85 O 0.59215 0.73859 0.45904 0.0
N86 N 0.58221 0.6752 0.43103 0.0
C87 C 0.5447 0.63086 0.42986 0.0
C88 C 0.55958 0.63923 0.36668 0.0
C89 C 0.57807 0.66149 0.36809 0.0
C90 C 0.56767 0.66729 0.49216 0.0
C91 C 0.54931 0.64518 0.49361 0.0
H92 H 0.58847 0.66799 0.31703 0.0
H93 H 0.56934 0.67831 0.53903 0.0
H94 H 0.62069 0.72143 0.2613 0.0
H95 H 0.55331 0.70481 0.21742 0.0
H96 H 0.65477 0.71322 0.65355 0.0
H97 H 0.55645 0.6291 0.31513 0.0
H98 H 0.53844 0.63964 0.54396 0.0
C99 C 0.87954 0.56555 0.51057 0.0
C100 C 0.87432 0.56324 0.43318 0.0
N101 N 0.88808 0.58324 0.39816 0.0
N102 N 0.89663 0.58682 0.52395 0.0
C103 C 0.90111 0.59726 0.45499 0.0
H104 H 0.87198 0.55238 0.55385 0.0
Co105 Co 0.91183 0.59818 0.61617 0.0
C106 C 0.96 0.62687 0.56428 0.0
O107 O 0.96635 0.61815 0.61995 0.0
N108 N 0.92629 0.60985 0.71163 0.0
C109 C 0.94378 0.63418 0.80804 0.0
C110 C 0.9426 0.63129 0.72936 0.0
C111 C 0.91721 0.60055 0.78069 0.0
N112 N 0.92758 0.6148 0.84018 0.0
O113 O 0.89926 0.61806 0.62402 0.0
H114 H 0.95167 0.64478 0.6882 0.0
H115 H 0.90193 0.58436 0.78712 0.0
O116 O 0.939 0.62116 0.5584 0.0
C117 C 0.88115 0.60765 0.66428 0.0
O118 O 0.87426 0.58661 0.68516 0.0
N119 N 0.92198 0.57664 0.61115 0.0
C120 C 0.92879 0.53919 0.60208 0.0
C121 C 0.93685 0.55578 0.5439 0.0
C122 C 0.93294 0.57415 0.54889 0.0
C123 C 0.91346 0.56022 0.66646 0.0
C124 C 0.91721 0.54187 0.66436 0.0
H125 H 0.93775 0.58568 0.50065 0.0
H126 H 0.90239 0.56031 0.71025 0.0
H127 H 0.91434 0.61459 0.4461 0.0
H128 H 0.86175 0.54785 0.40494 0.0
H129 H 0.95442 0.64991 0.8385 0.0
H130 H 0.94514 0.55405 0.49315 0.0
H131 H 0.9104 0.5295 0.71046 0.0
C132 C 0.32355 0.87412 0.66103 0.0
C133 C 0.32043 0.86871 0.58386 0.0
N134 N 0.31299 0.88158 0.54944 0.0
N135 N 0.31825 0.89042 0.675 0.0
C136 C 0.31153 0.89431 0.60651 0.0
H137 H 0.32981 0.86708 0.70394 0.0
Co138 Co 0.32083 0.90493 0.76819 0.0
C139 C 0.34108 0.95326 0.7173 0.0
O140 O 0.35603 0.95935 0.77329 0.0
N141 N 0.32214 0.9184 0.86363 0.0
C142 C 0.31591 0.93607 0.96061 0.0
C143 C 0.31876 0.93581 0.88228 0.0
C144 C 0.31985 0.90764 0.93121 0.0
N145 N 0.31656 0.91824 0.99142 0.0
O146 O 0.28838 0.89232 0.77185 0.0
H147 H 0.31647 0.94654 0.84181 0.0
H148 H 0.31921 0.89147 0.93525 0.0
O149 O 0.32548 0.93236 0.71114 0.0
C150 C 0.27806 0.87139 0.79124 0.0
O151 O 0.28987 0.86103 0.79885 0.0
N152 N 0.35274 0.91562 0.76769 0.0
C153 C 0.39785 0.92496 0.76438 0.0
C154 C 0.38862 0.93054 0.70159 0.0
C155 C 0.366 0.92559 0.70414 0.0
C156 C 0.36142 0.9095 0.82799 0.0
C157 C 0.38395 0.91443 0.82827 0.0
H158 H 0.35896 0.92907 0.65366 0.0
H159 H 0.35075 0.89967 0.87486 0.0
H160 H 0.30638 0.90682 0.5984 0.0
H161 H 0.32376 0.8565 0.55546 0.0
H162 H 0.31212 0.94762 0.99151 0.0
H163 H 0.39865 0.93832 0.65041 0.0
H164 H 0.39009 0.90897 0.87666 0.0
C165 C 0.45724 0.31369 0.81321 0.0
C166 C 0.45924 0.31021 0.73614 0.0
N167 N 0.43951 0.30495 0.70101 0.0
N168 N 0.43642 0.31075 0.82639 0.0
C169 C 0.42595 0.30518 0.75738 0.0
H170 H 0.47027 0.31855 0.85666 0.0
Co171 Co 0.42551 0.31464 0.91977 0.0
C172 C 0.40006 0.33732 0.86932 0.0
O173 O 0.41053 0.35248 0.92383 0.0
N174 N 0.41426 0.31719 0.0154 0.0
C175 C 0.39094 0.31243 0.11272 0.0
C176 C 0.39399 0.31506 0.03437 0.0
C177 C 0.42246 0.31446 0.08288 0.0
N178 N 0.40891 0.312 0.14325 0.0
O179 O 0.40456 0.28241 0.92574 0.0
H180 H 0.38117 0.31343 0.99415 0.0
H181 H 0.43752 0.31295 0.08671 0.0
O182 O 0.40324 0.32029 0.86372 0.0
C183 C 0.41464 0.27179 0.94759 0.0
O184 O 0.43678 0.28322 0.95632 0.0
N185 N 0.44791 0.34631 0.91688 0.0
C186 C 0.48417 0.39121 0.91111 0.0
C187 C 0.46962 0.38157 0.84785 0.0
C188 C 0.45177 0.35908 0.8516 0.0
C189 C 0.46247 0.35534 0.97773 0.0
C190 C 0.48033 0.37779 0.9767 0.0
H191 H 0.44127 0.35181 0.80116 0.0
H192 H 0.46112 0.34505 0.0265 0.0
H193 H 0.40898 0.30226 0.74813 0.0
H194 H 0.47419 0.31176 0.70825 0.0
H195 H 0.37591 0.30948 0.14384 0.0
H196 H 0.47217 0.39122 0.79549 0.0
H197 H 0.4917 0.38424 0.02568 0.0
C198 C 0.57061 0.87111 0.87245 0.0
C199 C 0.56929 0.86687 0.9505 0.0
N200 N 0.58959 0.8814 0.98182 0.0
N201 N 0.59164 0.88818 0.85537 0.0
C202 C 0.60286 0.8938 0.92296 0.0
H203 H 0.55686 0.86308 0.83136 0.0
Co204 Co 0.60178 0.90281 0.76156 0.0
C205 C 0.64552 0.94253 0.81789 0.0
O206 O 0.65808 0.9377 0.77292 0.0
N207 N 0.6117 0.91708 0.66791 0.0
C208 C 0.62508 0.94092 0.56911 0.0
C209 C 0.62213 0.93923 0.64787 0.0
C210 C 0.60824 0.90569 0.60134 0.0
N211 N 0.61618 0.91974 0.54037 0.0
O212 O 0.6227 0.89144 0.75166 0.0
H213 H 0.62669 0.95317 0.68736 0.0
H214 H 0.59965 0.88734 0.59767 0.0
O215 O 0.62392 0.93028 0.8155 0.0
C216 C 0.61286 0.87019 0.73688 0.0
O217 O 0.59057 0.85841 0.73696 0.0
N218 N 0.5801 0.9122 0.76663 0.0
C219 C 0.54454 0.9216 0.76665 0.0
C220 C 0.56075 0.92971 0.826 0.0
C221 C 0.57846 0.92482 0.82493 0.0
C222 C 0.56422 0.90379 0.70955 0.0
C223 C 0.54651 0.90854 0.70784 0.0
H224 H 0.59043 0.93063 0.87197 0.0
H225 H 0.5651 0.89301 0.66548 0.0
H226 H 0.62023 0.90731 0.92988 0.0
H227 H 0.55425 0.85512 0.98234 0.0
H228 H 0.63231 0.95637 0.53534 0.0
H229 H 0.5597 0.93968 0.8729 0.0
H230 H 0.53405 0.90146 0.66204 0.0
C231 C 0.70773 0.56805 -0.00143 0.0
C232 C 0.7105 0.56576 0.07607 0.0
N233 N 0.71628 0.58565 0.1112 0.0
N234 N 0.71152 0.58919 0.98526 0.0
C235 C 0.7171 0.59958 0.05441 0.0
H236 H 0.70254 0.55496 0.95512 0.0
Co237 Co 0.70772 0.60052 0.89301 0.0
C238 C 0.68796 0.62928 0.94268 0.0
O239 O 0.67354 0.62112 0.88496 0.0
N240 N 0.70487 0.6122 0.79769 0.0
C241 C 0.71289 0.63702 0.70205 0.0
C242 C 0.71147 0.63407 0.7807 0.0
C243 C 0.70323 0.60254 0.72812 0.0
N244 N 0.70795 0.61714 0.66918 0.0
O245 O 0.74011 0.62079 0.88643 0.0
H246 H 0.71707 0.64764 0.82242 0.0
H247 H 0.70076 0.58574 0.72046 0.0
O248 O 0.70285 0.62311 0.95067 0.0
C249 C 0.74783 0.61079 0.84407 0.0
O250 O 0.73365 0.59007 0.82008 0.0
N251 N 0.67633 0.57848 0.89645 0.0
C252 C 0.63279 0.53989 0.90141 0.0
C253 C 0.63958 0.5572 0.9568 0.0
C254 C 0.66157 0.57615 0.95419 0.0
C255 C 0.67023 0.56128 0.84483 0.0
C256 C 0.6485 0.54236 0.84453 0.0
H257 H 0.667 0.58817 0.0011 0.0
H258 H 0.6827 0.56131 0.80674 0.0
H259 H 0.72086 0.61681 0.06345 0.0
H260 H 0.70796 0.55047 0.10431 0.0
H261 H 0.71906 0.65298 0.67196 0.0
H262 H 0.62845 0.55563 0.00395 0.0
H263 H 0.64439 0.52943 0.80109 0.0
C264 C 0.15064 0.70112 0.18172 0.0
C265 C 0.15596 0.70425 0.25896 0.0
N266 N 0.14317 0.71185 0.29313 0.0
N267 N 0.13447 0.70655 0.16744 0.0
C268 C 0.13058 0.71337 0.23581 0.0
H269 H 0.15767 0.69477 0.13897 0.0
Co270 Co 0.12004 0.70414 0.07427 0.0
C271 C 0.07166 0.68324 0.12637 0.0
O272 O 0.06547 0.66823 0.07046 0.0
N273 N 0.10658 0.70298 0.97894 0.0
C274 C 0.08843 0.70863 0.88232 0.0
C275 C 0.08872 0.70563 0.96056 0.0
C276 C 0.11754 0.70585 0.91135 0.0
N277 N 0.10666 0.70878 0.85132 0.0
O278 O 0.13228 0.73658 0.07212 0.0
H279 H 0.0776 0.70726 0.00116 0.0
H280 H 0.13396 0.70709 0.90718 0.0
O281 O 0.09251 0.69896 0.13172 0.0
C282 C 0.15322 0.74702 0.05292 0.0
O283 O 0.16366 0.73529 0.04485 0.0
N284 N 0.1099 0.67236 0.07288 0.0
C285 C 0.10319 0.62808 0.07373 0.0
C286 C 0.09592 0.63611 0.13581 0.0
C287 C 0.09971 0.65839 0.13476 0.0
C288 C 0.11715 0.66472 0.01265 0.0
C289 C 0.11354 0.64265 0.01107 0.0
H290 H 0.09547 0.66471 0.18552 0.0
H291 H 0.12704 0.67598 0.96707 0.0
H292 H 0.11822 0.71873 0.24354 0.0
H293 H 0.16807 0.70084 0.28753 0.0
H294 H 0.0765 0.71187 0.85163 0.0
H295 H 0.08846 0.62574 0.18655 0.0
H296 H 0.11958 0.63736 0.96192 0.0
C297 C 0.45847 0.14679 0.34323 0.0
C298 C 0.4606 0.15213 0.42047 0.0
N299 N 0.4403 0.13899 0.45469 0.0
N300 N 0.43699 0.13028 0.32903 0.0
C301 C 0.4263 0.12617 0.39746 0.0
H302 H 0.4718 0.15408 0.3004 0.0
Co303 Co 0.42513 0.11583 0.23571 0.0
C304 C 0.39825 0.06736 0.28685 0.0
O305 O 0.40744 0.06156 0.23102 0.0
N306 N 0.41295 0.10235 0.14024 0.0
C307 C 0.38925 0.08401 0.04352 0.0
C308 C 0.39256 0.08431 0.12173 0.0
C309 C 0.4209 0.11341 0.07277 0.0
N310 N 0.40716 0.10242 0.01267 0.0
O311 O 0.40466 0.12771 0.23365 0.0
H312 H 0.37989 0.07303 0.16222 0.0
H313 H 0.43596 0.12995 0.06875 0.0
O314 O 0.40298 0.08809 0.29271 0.0
C315 C 0.41497 0.14868 0.21479 0.0
O316 O 0.43715 0.15936 0.20706 0.0
N317 N 0.44703 0.10603 0.23429 0.0
C318 C 0.48455 0.09926 0.23443 0.0
C319 C 0.46958 0.09244 0.29741 0.0
C320 C 0.4511 0.09621 0.29657 0.0
C321 C 0.46167 0.11299 0.17342 0.0
C322 C 0.48005 0.10929 0.17144 0.0
H323 H 0.44065 0.09211 0.34759 0.0
H324 H 0.46009 0.12258 0.12729 0.0
H325 H 0.40869 0.11349 0.40533 0.0
H326 H 0.47602 0.16451 0.44899 0.0
H327 H 0.37414 0.07193 0.01275 0.0
H328 H 0.47265 0.08522 0.34842 0.0
H329 H 0.49101 0.11488 0.12134 0.0
C330 C 0.32095 0.45567 0.5198 0.0
C331 C 0.31816 0.45782 0.59725 0.0
N332 N 0.31169 0.43767 0.63156 0.0
N333 N 0.31629 0.4343 0.50526 0.0
C334 C 0.31026 0.42364 0.57395 0.0
H335 H 0.32693 0.46907 0.47722 0.0
Co336 Co 0.32098 0.42386 0.41198 0.0
C337 C 0.32132 0.38128 0.46454 0.0
O338 O 0.30906 0.36825 0.40738 0.0
N339 N 0.32565 0.41392 0.31821 0.0
C340 C 0.33923 0.4043 0.21771 0.0
C341 C 0.34014 0.40682 0.2967 0.0
C342 C 0.31638 0.41582 0.25217 0.0
N343 N 0.32435 0.41015 0.1899 0.0
O344 O 0.28873 0.40269 0.40205 0.0
H345 H 0.35145 0.40472 0.33528 0.0
H346 H 0.30458 0.4221 0.2499 0.0
O347 O 0.32614 0.40197 0.46775 0.0
C348 C 0.27709 0.41233 0.38812 0.0
O349 O 0.28739 0.43463 0.38803 0.0
N350 N 0.352 0.44558 0.41771 0.0
C351 C 0.39676 0.48155 0.42033 0.0
C352 C 0.38863 0.46494 0.47842 0.0
C353 C 0.36614 0.44703 0.47609 0.0
C354 C 0.35956 0.46166 0.36129 0.0
C355 C 0.38193 0.47962 0.36095 0.0
H356 H 0.35997 0.43477 0.52241 0.0
H357 H 0.34799 0.46076 0.31686 0.0
H358 H 0.30601 0.4062 0.58208 0.0
H359 H 0.32141 0.47328 0.62608 0.0
H360 H 0.34968 0.39981 0.18323 0.0
H361 H 0.3995 0.46589 0.52558 0.0
H362 H 0.38731 0.49233 0.31601 0.0
C363 C 0.87974 0.31901 0.67126 0.0
C364 C 0.87437 0.31621 0.74847 0.0
N365 N 0.88662 0.30807 0.78309 0.0
N366 N 0.89536 0.31279 0.65745 0.0
C367 C 0.89892 0.30588 0.72613 0.0
H368 H 0.87317 0.32573 0.62823 0.0
Co369 Co 0.90976 0.3149 0.56443 0.0
C370 C 0.95775 0.33227 0.61598 0.0
O371 O 0.96535 0.34692 0.55885 0.0
N372 N 0.9231 0.3158 0.46923 0.0
C373 C 0.93954 0.30792 0.37231 0.0
C374 C 0.9393 0.31062 0.45074 0.0
C375 C 0.9129 0.31471 0.40138 0.0
N376 N 0.92281 0.31044 0.34126 0.0
O377 O 0.89594 0.28227 0.55986 0.0
H378 H 0.94901 0.3069 0.49137 0.0
H379 H 0.89742 0.31539 0.39703 0.0
O380 O 0.93642 0.31816 0.62208 0.0
C381 C 0.87494 0.2723 0.54178 0.0
O382 O 0.86484 0.28442 0.53636 0.0
N383 N 0.92181 0.34704 0.56595 0.0
C384 C 0.93235 0.39254 0.57345 0.0
C385 C 0.93829 0.38279 0.63372 0.0
C386 C 0.93269 0.36001 0.62921 0.0
C387 C 0.91561 0.35629 0.50766 0.0
C388 C 0.92109 0.37902 0.50946 0.0
H389 H 0.93613 0.35255 0.6786 0.0
H390 H 0.90512 0.34589 0.46133 0.0
H391 H 0.911 0.30017 0.7346 0.0
H392 H 0.86267 0.32028 0.77681 0.0
H393 H 0.95013 0.30284 0.34147 0.0
H394 H 0.94662 0.3925 0.68498 0.0
H395 H 0.91532 0.38553 0.46306 0.0
H396 H 0.13532 0.61785 0.02619 0.0
H397 H 0.06849 0.5873 0.12845 0.0
H398 H 0.13389 0.58152 0.02967 0.0
H399 H 0.0675 0.55078 0.13507 0.0
H400 H 0.06684 0.48427 0.06139 0.0
H401 H 0.06572 0.51973 0.05423 0.0
H402 H 0.13593 0.55728 0.12555 0.0
H403 H 0.13735 0.52237 0.12942 0.0
C404 C 0.1202 0.60333 0.04898 0.0
C405 C 0.10193 0.60554 0.07649 0.0
C406 C 0.11952 0.58249 0.05196 0.0
C407 C 0.10065 0.56321 0.08317 0.0
C408 C 0.08223 0.56526 0.11019 0.0
C409 C 0.0829 0.58623 0.10715 0.0
C410 C 0.08204 0.50014 0.07505 0.0
C411 C 0.10213 0.5004 0.09642 0.0
C412 C 0.08134 0.52042 0.07172 0.0
C413 C 0.10076 0.54138 0.08907 0.0
C414 C 0.12073 0.54153 0.1108 0.0
C415 C 0.12144 0.52139 0.11408 0.0
H416 H 0.52662 0.12956 0.17771 0.0
H417 H 0.49034 0.06498 0.29533 0.0
H418 H 0.56062 0.12643 0.17589 0.0
H419 H 0.52494 0.06228 0.29542 0.0
H420 H 0.60127 0.08461 0.35542 0.0
H421 H 0.56461 0.08325 0.35416 0.0
H422 H 0.57408 0.10191 0.11364 0.0
H423 H 0.61077 0.10354 0.11506 0.0
C424 C 0.52573 0.11451 0.20237 0.0
C425 C 0.50549 0.09734 0.23563 0.0
C426 C 0.54534 0.11278 0.2015 0.0
C427 C 0.5454 0.09399 0.23472 0.0
C428 C 0.52539 0.07699 0.26947 0.0
C429 C 0.50561 0.07859 0.26963 0.0
C430 C 0.59542 0.08826 0.30218 0.0
C431 C 0.60896 0.09428 0.23542 0.0
C432 C 0.57437 0.08731 0.30134 0.0
C433 C 0.56655 0.09263 0.23396 0.0
C434 C 0.57977 0.09795 0.16664 0.0
C435 C 0.60068 0.09867 0.16726 0.0
H436 H 0.42751 0.50054 0.3027 0.0
H437 H 0.41852 0.50807 0.54514 0.0
H438 H 0.46425 0.53576 0.30561 0.0
H439 H 0.45528 0.54311 0.54814 0.0
H440 H 0.50277 0.6188 0.48876 0.0
H441 H 0.46872 0.58165 0.48923 0.0
H442 H 0.50406 0.55377 0.36404 0.0
H443 H 0.53873 0.59104 0.36561 0.0
C444 C 0.43349 0.50961 0.35672 0.0
C445 C 0.42007 0.50159 0.42363 0.0
C446 C 0.45458 0.52967 0.35848 0.0
C447 C 0.46256 0.54226 0.42697 0.0
C448 C 0.44946 0.53387 0.49434 0.0
C449 C 0.42851 0.51371 0.49278 0.0
C450 C 0.50358 0.60475 0.4626 0.0
C451 C 0.52374 0.60798 0.42813 0.0
C452 C 0.48395 0.58342 0.46268 0.0
C453 C 0.48377 0.56474 0.42739 0.0
C454 C 0.50371 0.5679 0.39156 0.0
C455 C 0.52352 0.58928 0.39224 0.0
H456 H 0.94769 0.42588 0.46316 0.0
H457 H 0.92382 0.4116 0.69828 0.0
H458 H 0.94863 0.46236 0.47001 0.0
H459 H 0.925 0.44804 0.70525 0.0
H460 H 0.89751 0.49567 0.64362 0.0
H461 H 0.90118 0.46196 0.63956 0.0
H462 H 0.96791 0.501 0.5392 0.0
H463 H 0.96464 0.53529 0.54547 0.0
C464 C 0.94291 0.43066 0.51653 0.0
C465 C 0.93562 0.41583 0.58012 0.0
C466 C 0.94359 0.45158 0.52057 0.0
C467 C 0.93672 0.45796 0.58795 0.0
C468 C 0.93018 0.44347 0.65229 0.0
C469 C 0.92972 0.4227 0.64854 0.0
C470 C 0.9132 0.49733 0.62198 0.0
C471 C 0.93096 0.51842 0.59617 0.0
C472 C 0.91524 0.4779 0.61942 0.0
C473 C 0.93494 0.47888 0.59002 0.0
C474 C 0.95251 0.49975 0.56218 0.0
C475 C 0.95059 0.51936 0.56554 0.0
H476 H 0.41786 0.91467 0.64659 0.0
H477 H 0.43035 0.94238 0.87678 0.0
H478 H 0.45443 0.91623 0.64731 0.0
H479 H 0.46732 0.94467 0.87704 0.0
H480 H 0.51683 0.91715 0.88758 0.0
H481 H 0.48275 0.92043 0.88563 0.0
H482 H 0.49432 0.93907 0.64484 0.0
H483 H 0.528 0.93505 0.64668 0.0
C484 C 0.42868 0.92159 0.69671 0.0
C485 C 0.4212 0.92833 0.7617 0.0
C486 C 0.44972 0.92253 0.6972 0.0
C487 C 0.46391 0.93048 0.76245 0.0
C488 C 0.45671 0.938 0.82639 0.0
C489 C 0.43557 0.93682 0.82615 0.0
C490 C 0.51223 0.92224 0.83458 0.0
C491 C 0.52503 0.92573 0.76723 0.0
C492 C 0.4927 0.92419 0.83337 0.0
C493 C 0.4856 0.92992 0.76492 0.0
C494 C 0.49892 0.93416 0.69821 0.0
C495 C 0.5183 0.93197 0.69927 0.0
H496 H 0.6228 0.49634 0.86938 0.0
H497 H 0.59142 0.53498 0.94362 0.0
H498 H 0.58596 0.46193 0.86854 0.0
H499 H 0.55439 0.49998 0.94547 0.0
H500 H 0.4995 0.42474 0.02066 0.0
H501 H 0.53469 0.46159 0.01855 0.0
H502 H 0.54953 0.44682 0.79092 0.0
H503 H 0.51453 0.41004 0.79309 0.0
C504 C 0.60805 0.49763 0.88475 0.0
C505 C 0.61016 0.51867 0.90512 0.0
C506 C 0.5869 0.4778 0.88457 0.0
C507 C 0.56726 0.47831 0.90595 0.0
C508 C 0.56928 0.49911 0.92869 0.0
C509 C 0.5905 0.51912 0.9279 0.0
C510 C 0.51022 0.42948 0.96998 0.0
C511 C 0.50429 0.41446 0.90712 0.0
C512 C 0.53026 0.45061 0.96861 0.0
C513 C 0.5449 0.457 0.9048 0.0
C514 C 0.53865 0.44225 0.84116 0.0
C515 C 0.51852 0.42128 0.84213 0.0
H516 H 0.02779 0.35619 0.06011 0.0
H517 H 0.07932 0.39629 0.89302 0.0
H518 H 1.00026 0.33774 0.95703 0.0
H519 H 0.05172 0.37949 0.79004 0.0
H520 H 1.00162 0.34189 0.60491 0.0
H521 H 0.02906 0.35161 0.70858 0.0
H522 H 0.97721 0.34182 0.87402 0.0
H523 H 0.94969 0.33035 0.77052 0.0
C524 C 0.0332 0.36099 0.00101 0.0
C525 C 0.05573 0.37752 0.98459 0.0
C526 C 0.01733 0.35063 0.94155 0.0
C527 C 0.02335 0.35711 0.86398 0.0
C528 C 0.04619 0.37344 0.84804 0.0
C529 C 0.06218 0.38326 0.90739 0.0
C530 C 0.99609 0.34133 0.66384 0.0
C531 C 0.97349 0.33517 0.67964 0.0
C532 C 1.01192 0.34725 0.72362 0.0
C533 C 1.00579 0.34799 0.80085 0.0
C534 C 0.98284 0.34116 0.81629 0.0
C535 C 0.96689 0.33457 0.75662 0.0
H536 H 0.62531 0.9522 0.93676 0.0
H537 H 0.69004 0.97707 0.82364 0.0
H538 H 0.64215 0.98418 0.02502 0.0
H539 H 0.70696 1.00957 0.9116 0.0
H540 H 0.73409 0.05423 0.12978 0.0
H541 H 0.71812 0.02115 0.0444 0.0
H542 H 0.65634 0.02416 0.02562 0.0
H543 H 0.67194 0.05654 0.11217 0.0
C544 C 0.64311 0.96461 0.9301 0.0
C545 C 0.6562 0.96211 0.87226 0.0
C546 C 0.65282 0.98307 0.98087 0.0
C547 C 0.67592 0.9997 0.97527 0.0
C548 C 0.68916 0.99704 0.91819 0.0
C549 C 0.67942 0.97845 0.86739 0.0
C550 C 0.71706 0.04775 0.10772 0.0
C551 C 0.70436 0.05818 0.128 0.0
C552 C 0.70795 0.02887 0.05819 0.0
C553 C 0.68589 0.01987 0.0279 0.0
C554 C 0.67324 0.03032 0.0485 0.0
C555 C 0.68231 0.04912 0.09785 0.0
H556 H 0.6442 0.70611 0.23568 0.0
H557 H 0.64746 0.6561 0.38008 0.0
H558 H 0.66146 0.69623 0.13011 0.0
H559 H 0.66462 0.64624 0.27484 0.0
H560 H 0.65901 0.64621 0.93962 0.0
H561 H 0.64888 0.66313 0.04492 0.0
H562 H 0.69804 0.65909 0.19133 0.0
H563 H 0.70822 0.64213 0.08575 0.0
C564 C 0.64884 0.69324 0.24542 0.0
C565 C 0.64421 0.6818 0.31644 0.0
C566 C 0.65864 0.68748 0.18463 0.0
C567 C 0.66433 0.67032 0.19363 0.0
C568 C 0.66067 0.65966 0.26584 0.0
C569 C 0.65069 0.66526 0.32622 0.0
C570 C 0.66793 0.64919 0.99386 0.0
C571 C 0.68428 0.64248 0.00412 0.0
C572 C 0.66218 0.65904 0.0543 0.0
C573 C 0.6725 0.66235 0.12699 0.0
C574 C 0.68951 0.6565 0.13645 0.0
C575 C 0.69542 0.64683 0.07566 0.0
H576 H 0.95211 0.64026 0.42296 0.0
H577 H 1.00584 0.64382 0.56542 0.0
H578 H 0.97889 0.65743 0.31657 0.0
H579 H 0.03252 0.66097 0.45941 0.0
H580 H 0.02581 0.65425 0.12488 0.0
H581 H 0.9991 0.64449 0.23101 0.0
H582 H 0.05275 0.69427 0.37489 0.0
H583 H 0.07956 0.70405 0.26847 0.0
C584 C 0.96963 0.64491 0.43211 0.0
C585 C 0.97666 0.64033 0.50277 0.0
C586 C 0.985 0.6547 0.37086 0.0
C587 C 1.00787 0.66046 0.37908 0.0
C588 C 0.01512 0.65695 0.45101 0.0
C589 C 0.99973 0.64697 0.51185 0.0
C590 C 0.03191 0.66339 0.17873 0.0
C591 C 0.05498 0.67981 0.18807 0.0
C592 C 0.01651 0.65785 0.23962 0.0
C593 C 0.02375 0.66846 0.31184 0.0
C594 C 0.04663 0.68555 0.32035 0.0
C595 C 0.06202 0.69125 0.25909 0.0
H596 H 0.38195 0.02161 0.28295 0.0
H597 H 0.38434 0.07434 0.4285 0.0
H598 H 0.36452 0.99427 0.38701 0.0
H599 H 0.36675 0.04686 0.53287 0.0
H600 H 0.32104 0.94579 0.57401 0.0
H601 H 0.331 0.97317 0.46929 0.0
H602 H 0.37931 0.02645 0.61782 0.0
H603 H 0.36933 0.99921 0.72221 0.0
C604 C 0.37847 0.02735 0.33679 0.0
C605 C 0.3848 0.05031 0.34731 0.0
C606 C 0.36831 0.01157 0.39648 0.0
C607 C 0.36431 0.01833 0.46868 0.0
C608 C 0.36983 0.04111 0.47834 0.0
C609 C 0.37983 0.05688 0.41826 0.0
C610 C 0.33353 0.96337 0.58477 0.0
C611 C 0.3445 0.97017 0.65657 0.0
C612 C 0.33935 0.97909 0.52448 0.0
C613 C 0.3561 1.00204 0.53479 0.0
C614 C 0.36621 1.00901 0.6078 0.0
C615 C 0.36055 0.99329 0.66769 0.0
H616 H 0.36764 0.30747 0.76693 0.0
H617 H 0.40395 0.37798 0.8354 0.0
H618 H 0.34678 0.31627 0.67056 0.0
H619 H 0.38457 0.38703 0.73761 0.0
H620 H 0.32903 0.34521 0.45592 0.0
H621 H 0.34723 0.33334 0.55243 0.0
H622 H 0.35114 0.38505 0.70751 0.0
H623 H 0.33483 0.39779 0.60973 0.0
C624 C 0.3712 0.32482 0.76125 0.0
C625 C 0.38714 0.34192 0.80989 0.0
C626 C 0.35939 0.32995 0.70557 0.0
C627 C 0.36357 0.35238 0.69644 0.0
C628 C 0.38006 0.36942 0.74408 0.0
C629 C 0.39141 0.36424 0.80028 0.0
C630 C 0.33379 0.35396 0.51082 0.0
C631 C 0.33058 0.37256 0.52472 0.0
C632 C 0.34413 0.34707 0.56653 0.0
C633 C 0.35112 0.35838 0.63806 0.0
C634 C 0.34685 0.37631 0.65262 0.0
C635 C 0.33713 0.38351 0.59652 0.0
H636 H 0.1934 0.41562 0.06106 0.0
H637 H 0.14266 0.38194 0.23697 0.0
H638 H 0.21918 0.40652 0.12991 0.0
H639 H 0.16872 0.37329 0.30758 0.0
H640 H 0.24065 0.41372 0.44315 0.0
H641 H 0.20594 0.40403 0.37234 0.0
H642 H 0.22717 0.37598 0.18852 0.0
H643 H 0.26173 0.38516 0.26109 0.0
C644 C 0.18744 0.40539 0.11283 0.0
C645 C 0.16595 0.39912 0.14303 0.0
C646 C 0.2022 0.4002 0.15244 0.0
C647 C 0.19602 0.38921 0.22433 0.0
C648 C 0.17392 0.38169 0.25221 0.0
C649 C 0.15893 0.38642 0.21149 0.0
C650 C 0.23733 0.40446 0.38939 0.0
C651 C 0.25366 0.39987 0.3581 0.0
C652 C 0.21748 0.39894 0.34866 0.0
C653 C 0.21383 0.3893 0.27464 0.0
C654 C 0.2295 0.38335 0.24548 0.0
C655 C 0.24915 0.38839 0.28727 0.0
H656 H 0.76751 0.13863 0.39258 0.0
H657 H 0.78824 0.18817 0.21055 0.0
H658 H 0.80179 0.16443 0.46579 0.0
H659 H 0.82272 0.21362 0.28204 0.0
H660 H 0.8862 0.25475 0.4197 0.0
H661 H 0.86013 0.22019 0.34799 0.0
H662 H 0.80917 0.20314 0.52368 0.0
H663 H 0.83493 0.2379 0.59355 0.0
C664 C 0.77998 0.15452 0.36655 0.0
C665 C 0.77545 0.16132 0.29547 0.0
C666 C 0.79946 0.16938 0.40872 0.0
C667 C 0.81496 0.19107 0.37971 0.0
C668 C 0.81131 0.19694 0.30557 0.0
C669 C 0.7916 0.18236 0.26445 0.0
C670 C 0.86978 0.24306 0.44442 0.0
C671 C 0.86264 0.24873 0.51269 0.0
C672 C 0.8548 0.22342 0.4031 0.0
C673 C 0.8326 0.20891 0.43024 0.0
C674 C 0.82623 0.21376 0.50176 0.0
C675 C 0.84097 0.23363 0.54191 0.0
H676 H 0.64068 0.8827 0.61143 0.0
H677 H 0.61038 0.83145 0.78772 0.0
H678 H 0.64995 0.85766 0.53681 0.0
H679 H 0.62009 0.80673 0.71484 0.0
H680 H 0.64211 0.76592 0.57757 0.0
H681 H 0.65062 0.80009 0.65164 0.0
H682 H 0.62017 0.8201 0.47253 0.0
H683 H 0.61124 0.78577 0.40008 0.0
C684 C 0.63706 0.86657 0.63596 0.0
C685 C 0.6251 0.85908 0.70575 0.0
C686 C 0.64214 0.85214 0.59296 0.0
C687 C 0.63573 0.83018 0.61985 0.0
C688 C 0.62553 0.82361 0.69289 0.0
C689 C 0.62 0.83777 0.73481 0.0
C690 C 0.63826 0.77822 0.55258 0.0
C691 C 0.62639 0.77348 0.48255 0.0
C692 C 0.64288 0.79763 0.59529 0.0
C693 C 0.63605 0.81281 0.56801 0.0
C694 C 0.62595 0.80896 0.49474 0.0
C695 C 0.62088 0.78934 0.45304 0.0
H696 H 0.76154 0.61107 0.69868 0.0
H697 H 0.78731 0.63359 0.92808 0.0
H698 H 0.79887 0.61898 0.65608 0.0
H699 H 0.82514 0.64166 0.88549 0.0
H700 H 0.86499 0.60429 0.8079 0.0
H701 H 0.83698 0.61398 0.85226 0.0
H702 H 0.83963 0.6445 0.63142 0.0
H703 H 0.868 0.63463 0.58695 0.0
C704 C 0.77549 0.61847 0.7394 0.0
C705 C 0.77157 0.62165 0.8167 0.0
C706 C 0.79697 0.62314 0.71486 0.0
C707 C 0.81505 0.63078 0.76739 0.0
C708 C 0.81152 0.63561 0.84366 0.0
C709 C 0.78996 0.6312 0.86804 0.0
C710 C 0.86005 0.61364 0.76948 0.0
C711 C 0.8685 0.61856 0.69381 0.0
C712 C 0.84409 0.61937 0.79515 0.0
C713 C 0.83587 0.62991 0.7454 0.0
C714 C 0.84549 0.63624 0.67108 0.0
C715 C 0.86183 0.63075 0.64566 0.0
H716 H 0.24314 0.83278 0.73327 0.0
H717 H 0.26073 0.88179 0.91582 0.0
H718 H 0.20796 0.8067 0.80023 0.0
H719 H 0.22568 0.85543 0.98445 0.0
H720 H 0.14316 0.76399 0.92692 0.0
H721 H 0.1697 0.7989 0.85805 0.0
H722 H 0.2176 0.81734 0.04496 0.0
H723 H 0.19134 0.78228 0.11225 0.0
C724 C 0.23893 0.83832 0.78621 0.0
C725 C 0.25435 0.85942 0.81867 0.0
C726 C 0.21882 0.82338 0.82476 0.0
C727 C 0.21402 0.82897 0.89778 0.0
C728 C 0.22887 0.85068 0.9282 0.0
C729 C 0.24879 0.86586 0.88862 0.0
C730 C 0.15892 0.77608 0.95465 0.0
C731 C 0.16508 0.77074 0.02549 0.0
C732 C 0.17421 0.79591 0.91493 0.0
C733 C 0.19577 0.81089 0.94602 0.0
C734 C 0.20105 0.80636 0.01987 0.0
C735 C 0.18599 0.78632 0.05863 0.0
H736 H 0.3864 0.13747 0.09232 0.0
H737 H 0.41885 0.18753 0.27119 0.0
H738 H 0.37743 0.16349 0.02285 0.0
H739 H 0.40953 0.21329 0.20338 0.0
H740 H 0.4159 0.23556 0.88921 0.0
H741 H 0.40683 0.20075 0.95862 0.0
H742 H 0.37961 0.22147 0.14655 0.0
H743 H 0.38833 0.25617 0.07567 0.0
C744 C 0.39054 0.15356 0.11864 0.0
C745 C 0.40294 0.1604 0.18771 0.0
C746 C 0.38566 0.16855 0.07853 0.0
C747 C 0.39277 0.19047 0.10753 0.0
C748 C 0.40351 0.19645 0.1799 0.0
C749 C 0.40881 0.18169 0.21897 0.0
C750 C 0.40691 0.23207 0.94357 0.0
C751 C 0.40236 0.24824 0.97641 0.0
C752 C 0.40177 0.21217 0.98355 0.0
C753 C 0.39254 0.20835 0.05828 0.0
C754 C 0.38666 0.2239 0.08906 0.0
C755 C 0.3914 0.24362 0.04821 0.0
H756 H 0.08076 0.38077 0.44418 0.0
H757 H 0.14876 0.43193 0.3782 0.0
H758 H 0.09156 0.38843 0.5795 0.0
H759 H 0.15923 0.4399 0.51327 0.0
H760 H 0.12597 0.3946 0.81139 0.0
H761 H 0.11836 0.38553 0.67521 0.0
H762 H 0.14756 0.45682 0.62267 0.0
H763 H 0.15462 0.46601 0.75894 0.0
C764 C 0.09803 0.39346 0.45829 0.0
C765 C 0.11377 0.40586 0.40001 0.0
C766 C 0.10421 0.39785 0.53579 0.0
C767 C 0.1262 0.41483 0.55663 0.0
C768 C 0.14207 0.42694 0.49865 0.0
C769 C 0.13598 0.42242 0.42118 0.0
C770 C 0.13071 0.4084 0.7712 0.0
C771 C 0.14066 0.43106 0.79681 0.0
C772 C 0.12639 0.40316 0.69309 0.0
C773 C 0.13223 0.42046 0.63868 0.0
C774 C 0.14304 0.44316 0.6635 0.0
C775 C 0.14714 0.44841 0.74174 0.0
H776 H 0.69558 0.14901 0.90802 0.0
H777 H 0.74013 0.12204 0.95191 0.0
H778 H 0.69525 0.14068 0.77173 0.0
H779 H 0.73965 0.11354 0.81511 0.0
H780 H 0.70718 0.07573 0.58588 0.0
H781 H 0.71155 0.08669 0.72156 0.0
H782 H 0.71976 0.15184 0.65812 0.0
H783 H 0.71455 0.14065 0.52353 0.0
C784 C 0.70565 0.1417 0.88853 0.0
C785 C 0.71782 0.13613 0.94106 0.0
C786 C 0.70542 0.13687 0.81031 0.0
C787 C 0.71735 0.12636 0.78281 0.0
C788 C 0.73 0.12131 0.83488 0.0
C789 C 0.73028 0.1262 0.91317 0.0
C790 C 0.70986 0.09235 0.601 0.0
C791 C 0.71046 0.10725 0.54379 0.0
C792 C 0.71262 0.09873 0.67856 0.0
C793 C 0.71596 0.12012 0.7004 0.0
C794 C 0.717 0.13517 0.6431 0.0
C795 C 0.71427 0.12881 0.56576 0.0
H796 H 0.64139 0.70382 0.7786 0.0
H797 H 0.59471 0.72648 0.71103 0.0
H798 H 0.63427 0.70794 0.91343 0.0
H799 H 0.58718 0.72986 0.846 0.0
H800 H 0.55919 0.69957 0.0919 0.0
H801 H 0.56825 0.70139 0.95566 0.0
H802 H 0.63978 0.73886 0.00903 0.0
H803 H 0.63094 0.73779 0.14516 0.0
C804 C 0.62983 0.70992 0.79212 0.0
C805 C 0.61855 0.71464 0.73338 0.0
C806 C 0.62574 0.71224 0.8695 0.0
C807 C 0.61012 0.71915 0.88998 0.0
C808 C 0.5991 0.72424 0.83166 0.0
C809 C 0.60337 0.72216 0.75422 0.0
C810 C 0.57686 0.70864 0.07502 0.0
C811 C 0.59429 0.71826 0.13043 0.0
C812 C 0.58203 0.70962 0.9967 0.0
C813 C 0.60471 0.72007 0.97204 0.0
C814 C 0.62214 0.73038 0.02673 0.0
C815 C 0.617 0.72965 0.10491 0.0
H816 H 0.95394 0.63541 0.96476 0.0
H817 H 0.88553 0.58574 0.89747 0.0
H818 H 0.94262 0.62832 0.10004 0.0
H819 H 0.87451 0.57839 0.03213 0.0
H820 H 0.90758 0.62472 0.32919 0.0
H821 H 0.91658 0.63295 0.19318 0.0
H822 H 0.88386 0.56111 0.1445 0.0
H823 H 0.87533 0.55273 0.28069 0.0
C824 C 0.9365 0.62312 0.97863 0.0
C825 C 0.92078 0.61099 0.92002 0.0
C826 C 0.93002 0.61906 0.05605 0.0
C827 C 0.90771 0.60272 0.07645 0.0
C828 C 0.89191 0.59082 0.01803 0.0
C829 C 0.89833 0.59498 0.94073 0.0
C830 C 0.90235 0.61061 0.28985 0.0
C831 C 0.89094 0.58802 0.31658 0.0
C832 C 0.9075 0.61538 0.21182 0.0
C833 C 0.9011 0.59768 0.1585 0.0
C834 C 0.88888 0.57509 0.18437 0.0
C835 C 0.88391 0.57031 0.26256 0.0
H836 H 0.28941 0.89968 0.48239 0.0
H837 H 0.32972 0.86829 0.43017 0.0
H838 H 0.2883 0.90734 0.34614 0.0
H839 H 0.32792 0.87543 0.29385 0.0
H840 H 0.30298 0.87596 0.04856 0.0
H841 H 0.29976 0.86508 0.18346 0.0
H842 H 0.31877 0.93345 0.25129 0.0
H843 H 0.32267 0.94466 0.11649 0.0
C844 C 0.298 0.89433 0.44228 0.0
C845 C 0.30997 0.88364 0.46806 0.0
C846 C 0.29725 0.89867 0.36407 0.0
C847 C 0.30816 0.89213 0.30968 0.0
C848 C 0.31922 0.88051 0.33463 0.0
C849 C 0.32019 0.87639 0.41297 0.0
C850 C 0.30669 0.8888 0.09185 0.0
C851 C 0.31331 0.91132 0.07118 0.0
C852 C 0.30471 0.88247 0.16924 0.0
C853 C 0.30902 0.89842 0.22764 0.0
C854 C 0.31507 0.92074 0.2073 0.0
C855 C 0.31727 0.92714 0.12996 0.0
H856 H 0.46989 0.32015 0.58294 0.0
H857 H 0.39794 0.28375 0.63314 0.0
H858 H 0.4615 0.31912 0.44624 0.0
H859 H 0.38972 0.28336 0.49653 0.0
H860 H 0.43551 0.29583 0.1998 0.0
H861 H 0.44248 0.29162 0.33467 0.0
H862 H 0.39649 0.3149 0.40305 0.0
H863 H 0.38993 0.31978 0.26843 0.0
C864 C 0.4523 0.31161 0.56508 0.0
C865 C 0.43462 0.3023 0.61958 0.0
C866 C 0.44752 0.31108 0.48662 0.0
C867 C 0.42497 0.30137 0.46109 0.0
C868 C 0.40727 0.29129 0.51495 0.0
C869 C 0.41202 0.29162 0.59327 0.0
C870 C 0.42701 0.30028 0.24326 0.0
C871 C 0.41226 0.30835 0.22286 0.0
C872 C 0.43094 0.29772 0.32058 0.0
C873 C 0.42001 0.30291 0.37909 0.0
C874 C 0.40491 0.31048 0.35896 0.0
C875 C 0.40114 0.31325 0.28175 0.0
H876 H 0.61376 0.92257 0.04742 0.0
H877 H 0.5768 0.8508 0.09721 0.0
H878 H 0.62124 0.93105 0.1835 0.0
H879 H 0.58507 0.85906 0.2345 0.0
H880 H 0.58005 0.88397 0.47539 0.0
H881 H 0.57465 0.87376 0.33954 0.0
H882 H 0.64169 0.93019 0.29037 0.0
H883 H 0.64644 0.94084 0.42637 0.0
C884 C 0.60767 0.90858 0.0877 0.0
C885 C 0.59481 0.88602 0.06213 0.0
C886 C 0.61203 0.91341 0.16582 0.0
C887 C 0.60389 0.89575 0.22025 0.0
C888 C 0.59132 0.8731 0.19434 0.0
C889 C 0.58664 0.8683 0.11595 0.0
C890 C 0.59366 0.89401 0.4354 0.0
C891 C 0.61362 0.91322 0.46084 0.0
C892 C 0.59065 0.88812 0.35759 0.0
C893 C 0.60771 0.90115 0.30373 0.0
C894 C 0.62799 0.92003 0.32991 0.0
C895 C 0.6308 0.92613 0.40762 0.0
H896 H 0.69816 0.55508 0.22806 0.0
H897 H 0.73809 0.62707 0.18052 0.0
H898 H 0.69768 0.56337 0.36422 0.0
H899 H 0.7371 0.63524 0.31654 0.0
H900 H 0.70284 0.63827 0.54514 0.0
H901 H 0.70697 0.63114 0.40961 0.0
H902 H 0.72364 0.58006 0.47704 0.0
H903 H 0.71991 0.58738 0.61178 0.0
C904 C 0.70713 0.57264 0.24647 0.0
C905 C 0.71798 0.59038 0.19277 0.0
C906 C 0.70678 0.57738 0.32462 0.0
C907 C 0.71715 0.59996 0.35078 0.0
C908 C 0.72859 0.61769 0.29772 0.0
C909 C 0.72912 0.61296 0.21971 0.0
C910 C 0.70756 0.62567 0.53095 0.0
C911 C 0.7107 0.61319 0.58932 0.0
C912 C 0.70996 0.62161 0.45348 0.0
C913 C 0.71551 0.60495 0.43289 0.0
C914 C 0.71897 0.59272 0.4912 0.0
C915 C 0.71668 0.59685 0.5685 0.0
H916 H 0.12467 0.73521 0.35966 0.0
H917 H 0.15681 0.69568 0.41301 0.0
H918 H 0.11701 0.73652 0.49578 0.0
H919 H 0.14971 0.69773 0.54923 0.0
H920 H 0.14907 0.72325 0.79373 0.0
H921 H 0.15988 0.72637 0.65876 0.0
H922 H 0.0912 0.70594 0.59151 0.0
H923 H 0.08005 0.7021 0.72639 0.0
C924 C 0.13018 0.72683 0.39993 0.0
C925 C 0.14109 0.715 0.37446 0.0
C926 C 0.12585 0.7277 0.4781 0.0
C927 C 0.13262 0.71709 0.53281 0.0
C928 C 0.14444 0.7062 0.50818 0.0
C929 C 0.14855 0.70508 0.42988 0.0
C930 C 0.13615 0.71921 0.75059 0.0
C931 C 0.11356 0.71218 0.77149 0.0
C932 C 0.14243 0.72113 0.67314 0.0
C933 C 0.12637 0.71637 0.61487 0.0
C934 C 0.10399 0.70998 0.6354 0.0
C935 C 0.09762 0.70781 0.7128 0.0
H936 H 0.39845 0.12011 0.52111 0.0
H937 H 0.47015 0.15301 0.5745 0.0
H938 H 0.38954 0.11248 0.65727 0.0
H939 H 0.46104 0.14591 0.71077 0.0
H940 H 0.43474 0.14496 0.95527 0.0
H941 H 0.44234 0.1558 0.82033 0.0
H942 H 0.39468 0.08689 0.75283 0.0
H943 H 0.38747 0.07571 0.88765 0.0
C944 C 0.41236 0.1258 0.56143 0.0
C945 C 0.43508 0.1369 0.53599 0.0
C946 C 0.40719 0.12147 0.6396 0.0
C947 C 0.42459 0.12846 0.69431 0.0
C948 C 0.44729 0.14048 0.66971 0.0
C949 C 0.45249 0.14458 0.5914 0.0
C950 C 0.42596 0.13199 0.91207 0.0
C951 C 0.4106 0.10933 0.93288 0.0
C952 C 0.43028 0.1383 0.83465 0.0
C953 C 0.41912 0.12219 0.77634 0.0
C954 C 0.40332 0.09972 0.79677 0.0
C955 C 0.39918 0.09334 0.87414 0.0
H956 H 0.33055 0.46841 0.74782 0.0
H957 H 0.29029 0.39632 0.70187 0.0
H958 H 0.33144 0.4605 0.88352 0.0
H959 H 0.29162 0.3885 0.83818 0.0
H960 H 0.32678 0.38668 0.06744 0.0
H961 H 0.32147 0.39256 0.93178 0.0
H962 H 0.30637 0.44496 0.99683 0.0
H963 H 0.31229 0.43959 0.13145 0.0
C964 C 0.32154 0.45089 0.76642 0.0
C965 C 0.31042 0.43303 0.71317 0.0
C966 C 0.32213 0.44636 0.84452 0.0
C967 C 0.31169 0.42388 0.87142 0.0
C968 C 0.3001 0.406 0.81885 0.0
C969 C 0.29937 0.41052 0.74067 0.0
C970 C 0.32234 0.39944 0.05265 0.0
C971 C 0.32 0.41266 0.11031 0.0
C972 C 0.31906 0.40265 0.97513 0.0
C973 C 0.31354 0.41925 0.95377 0.0
C974 C 0.3108 0.43217 0.01151 0.0
C975 C 0.31396 0.4289 0.08882 0.0
H976 H 0.88122 0.2995 0.284 0.0
H977 H 0.94867 0.31486 0.21643 0.0
H978 H 0.8705 0.29677 0.1491 0.0
H979 H 0.93761 0.3115 0.0815 0.0
H980 H 0.90285 0.28295 0.85082 0.0
H981 H 0.91044 0.28175 0.98713 0.0
H982 H 0.88215 0.32472 0.03809 0.0
H983 H 0.8751 0.32658 0.90171 0.0
C984 C 0.89383 0.30239 0.24075 0.0
C985 C 0.91595 0.30763 0.26149 0.0
C986 C 0.88759 0.3007 0.16336 0.0
C987 C 0.90322 0.30393 0.10501 0.0
C988 C 0.92513 0.30864 0.12545 0.0
C989 C 0.93145 0.31055 0.20281 0.0
C990 C 0.8983 0.29225 0.89069 0.0
C991 C 0.88862 0.30514 0.86455 0.0
C992 C 0.9026 0.29147 0.96891 0.0
C993 C 0.89704 0.30328 0.02294 0.0
C994 C 0.88646 0.31532 -0.00239 0.0
C995 C 0.88237 0.31632 0.91926 0.0
loop_
_geom_bond_atom_site_label_1
_geom_bond_atom_site_label_2
_geom_bond_distance
_geom_bond_site_symmetry_2
_ccdc_geom_bond_type
C0 C1 1.351 . S
C0 N3 1.368 . S
C0 H5 0.931 . S
C1 C0 1.351 . S
C1 N2 1.373 . S
C1 H29 0.930 . S
N2 C1 1.373 . S
N2 C4 1.340 . S
N3 C0 1.368 . S
N3 C4 1.321 . S
N3 Co6 2.135 1_556 S
C4 N2 1.340 . S
C4 N3 1.321 . S
C4 H28 0.930 . S
H5 C0 0.931 . S
Co6 N3 2.135 1_554 S
Co6 N9 2.121 . S
Co6 O14 2.055 . S
Co6 O17 2.039 . S
Co6 N20 2.140 . S
C7 O8 1.227 1_554 S
C7 O17 1.265 . S
O8 C7 1.227 1_556 S
N9 Co6 2.121 . S
N9 C11 1.375 . S
N9 C12 1.313 . S
C10 C11 1.338 . S
C10 N13 1.377 . S
C10 H30 0.930 . S
C11 N9 1.375 . S
C11 C10 1.338 . S
C11 H15 0.931 . S
C12 N9 1.313 . S
C12 N13 1.344 . S
C12 H16 0.930 . S
N13 C10 1.377 . S
N13 C12 1.344 . S
O14 Co6 2.055 . S
O14 C18 1.253 . S
H15 C11 0.931 . S
H16 C12 0.930 . S
O17 Co6 2.039 . S
O17 C7 1.265 . S
C18 O14 1.253 . S
C18 O19 1.227 . S
O19 C18 1.227 . S
N20 Co6 2.140 . S
N20 C23 1.346 1_554 S
N20 C24 1.345 . S
C21 C22 1.387 1_554 S
C21 C25 1.391 . S
C22 C21 1.387 1_556 S
C22 C23 1.369 . S
C22 H31 0.929 . S
C23 N20 1.346 1_556 S
C23 C22 1.369 . S
C23 H26 0.928 . S
C24 N20 1.345 . S
C24 C25 1.371 . S
C24 H27 0.931 . S
C25 C21 1.391 . S
C25 C24 1.371 . S
C25 H32 0.930 . S
H26 C23 0.928 . S
H27 C24 0.931 . S
H28 C4 0.930 . S
H29 C1 0.930 . S
H30 C10 0.930 . S
H31 C22 0.929 . S
H32 C25 0.930 . S
C33 C34 1.351 . S
C33 N36 1.368 . S
C33 H38 0.931 . S
C34 C33 1.351 . S
C34 N35 1.373 1_554 S
C34 H62 0.930 1_554 S
N35 C34 1.373 1_556 S
N35 C37 1.340 1_556 S
N36 C33 1.368 . S
N36 C37 1.321 . S
N36 Co39 2.135 . S
C37 N35 1.340 1_554 S
C37 N36 1.321 . S
C37 H61 0.930 . S
H38 C33 0.931 . S
Co39 N36 2.135 . S
Co39 N42 2.121 . S
Co39 O47 2.055 . S
Co39 O50 2.039 . S
Co39 N53 2.140 . S
C40 O41 1.227 . S
C40 O50 1.265 . S
O41 C40 1.227 . S
N42 Co39 2.121 . S
N42 C44 1.375 . S
N42 C45 1.313 . S
C43 C44 1.338 . S
C43 N46 1.377 . S
C43 H63 0.930 . S
C44 N42 1.375 . S
C44 C43 1.338 . S
C44 H48 0.931 . S
C45 N42 1.313 . S
C45 N46 1.344 . S
C45 H49 0.930 . S
N46 C43 1.377 . S
N46 C45 1.344 . S
O47 Co39 2.055 . S
O47 C51 1.253 . S
H48 C44 0.931 . S
H49 C45 0.930 . S
O50 Co39 2.039 . S
O50 C40 1.265 . S
C51 O47 1.253 . S
C51 O52 1.227 . S
O52 C51 1.227 . S
N53 Co39 2.140 . S
N53 C56 1.346 . S
N53 C57 1.345 . S
C54 C55 1.387 . S
C54 C58 1.391 . S
C55 C54 1.387 . S
C55 C56 1.369 . S
C55 H64 0.929 . S
C56 N53 1.346 . S
C56 C55 1.369 . S
C56 H59 0.928 . S
C57 N53 1.345 . S
C57 C58 1.371 . S
C57 H60 0.931 . S
C58 C54 1.391 . S
C58 C57 1.371 . S
C58 H65 0.930 . S
H59 C56 0.928 . S
H60 C57 0.931 . S
H61 C37 0.930 . S
H62 C34 0.930 1_556 S
H63 C43 0.930 . S
H64 C55 0.929 . S
H65 C58 0.930 . S
C66 C67 1.351 . S
C66 N69 1.368 . S
C66 H71 0.931 . S
C67 C66 1.351 . S
C67 N68 1.373 . S
C67 H95 0.930 . S
N68 C67 1.373 . S
N68 C70 1.340 . S
N69 C66 1.368 . S
N69 C70 1.321 . S
N69 Co72 2.135 . S
C70 N68 1.340 . S
C70 N69 1.321 . S
C70 H94 0.930 . S
H71 C66 0.931 . S
Co72 N69 2.135 . S
Co72 N75 2.121 . S
Co72 O80 2.055 . S
Co72 O83 2.039 . S
Co72 N86 2.140 . S
C73 O74 1.227 . S
C73 O83 1.265 . S
O74 C73 1.227 . S
N75 Co72 2.121 . S
N75 C77 1.375 . S
N75 C78 1.313 . S
C76 C77 1.338 . S
C76 N79 1.377 . S
C76 H96 0.930 . S
C77 N75 1.375 . S
C77 C76 1.338 . S
C77 H81 0.931 . S
C78 N75 1.313 . S
C78 N79 1.344 . S
C78 H82 0.930 . S
N79 C76 1.377 . S
N79 C78 1.344 . S
O80 Co72 2.055 . S
O80 C84 1.253 . S
H81 C77 0.931 . S
H82 C78 0.930 . S
O83 Co72 2.039 . S
O83 C73 1.265 . S
C84 O80 1.253 . S
C84 O85 1.227 . S
O85 C84 1.227 . S
N86 Co72 2.140 . S
N86 C89 1.346 . S
N86 C90 1.345 . S
C87 C88 1.387 . S
C87 C91 1.391 . S
C88 C87 1.387 . S
C88 C89 1.369 . S
C88 H97 0.929 . S
C89 N86 1.346 . S
C89 C88 1.369 . S
C89 H92 0.928 . S
C90 N86 1.345 . S
C90 C91 1.371 . S
C90 H93 0.931 . S
C91 C87 1.391 . S
C91 C90 1.371 . S
C91 H98 0.930 . S
H92 C89 0.928 . S
H93 C90 0.931 . S
H94 C70 0.930 . S
H95 C67 0.930 . S
H96 C76 0.930 . S
H97 C88 0.929 . S
H98 C91 0.930 . S
C99 C100 1.351 . S
C99 N102 1.368 . S
C99 H104 0.931 . S
C100 C99 1.351 . S
C100 N101 1.373 . S
C100 H128 0.930 . S
N101 C100 1.373 . S
N101 C103 1.340 . S
N102 C99 1.368 . S
N102 C103 1.321 . S
N102 Co105 2.135 . S
C103 N101 1.340 . S
C103 N102 1.321 . S
C103 H127 0.930 . S
H104 C99 0.931 . S
Co105 N102 2.135 . S
Co105 N108 2.121 . S
Co105 O113 2.055 . S
Co105 O116 2.039 . S
Co105 N119 2.140 . S
C106 O107 1.227 . S
C106 O116 1.265 . S
O107 C106 1.227 . S
N108 Co105 2.121 . S
N108 C110 1.375 . S
N108 C111 1.313 . S
C109 C110 1.338 . S
C109 N112 1.377 . S
C109 H129 0.930 . S
C110 N108 1.375 . S
C110 C109 1.338 . S
C110 H114 0.931 . S
C111 N108 1.313 . S
C111 N112 1.344 . S
C111 H115 0.930 . S
N112 C109 1.377 . S
N112 C111 1.344 . S
O113 Co105 2.055 . S
O113 C117 1.253 . S
H114 C110 0.931 . S
H115 C111 0.930 . S
O116 Co105 2.039 . S
O116 C106 1.265 . S
C117 O113 1.253 . S
C117 O118 1.227 . S
O118 C117 1.227 . S
N119 Co105 2.140 . S
N119 C122 1.346 . S
N119 C123 1.345 . S
C120 C121 1.387 . S
C120 C124 1.391 . S
C121 C120 1.387 . S
C121 C122 1.369 . S
C121 H130 0.929 . S
C122 N119 1.346 . S
C122 C121 1.369 . S
C122 H125 0.928 . S
C123 N119 1.345 . S
C123 C124 1.371 . S
C123 H126 0.931 . S
C124 C120 1.391 . S
C124 C123 1.371 . S
C124 H131 0.930 . S
H125 C122 0.928 . S
H126 C123 0.931 . S
H127 C103 0.930 . S
H128 C100 0.930 . S
H129 C109 0.930 . S
H130 C121 0.929 . S
H131 C124 0.930 . S
C132 C133 1.351 . S
C132 N135 1.368 . S
C132 H137 0.931 . S
C133 C132 1.351 . S
C133 N134 1.373 . S
C133 H161 0.930 . S
N134 C133 1.373 . S
N134 C136 1.340 . S
N135 C132 1.368 . S
N135 C136 1.321 . S
N135 Co138 2.135 . S
C136 N134 1.340 . S
C136 N135 1.321 . S
C136 H160 0.930 . S
H137 C132 0.931 . S
Co138 N135 2.135 . S
Co138 N141 2.121 . S
Co138 O146 2.055 . S
Co138 O149 2.039 . S
Co138 N152 2.140 . S
C139 O140 1.227 . S
C139 O149 1.265 . S
O140 C139 1.227 . S
N141 Co138 2.121 . S
N141 C143 1.375 . S
N141 C144 1.313 . S
C142 C143 1.338 . S
C142 N145 1.377 . S
C142 H162 0.930 . S
C143 N141 1.375 . S
C143 C142 1.338 . S
C143 H147 0.931 . S
C144 N141 1.313 . S
C144 N145 1.344 . S
C144 H148 0.930 . S
N145 C142 1.377 . S
N145 C144 1.344 . S
O146 Co138 2.055 . S
O146 C150 1.253 . S
H147 C143 0.931 . S
H148 C144 0.930 . S
O149 Co138 2.039 . S
O149 C139 1.265 . S
C150 O146 1.253 . S
C150 O151 1.227 . S
O151 C150 1.227 . S
N152 Co138 2.140 . S
N152 C155 1.346 . S
N152 C156 1.345 . S
C153 C154 1.387 . S
C153 C157 1.391 . S
C154 C153 1.387 . S
C154 C155 1.369 . S
C154 H163 0.929 . S
C155 N152 1.346 . S
C155 C154 1.369 . S
C155 H158 0.928 . S
C156 N152 1.345 . S
C156 C157 1.371 . S
C156 H159 0.931 . S
C157 C153 1.391 . S
C157 C156 1.371 . S
C157 H164 0.930 . S
H158 C155 0.928 . S
H159 C156 0.931 . S
H160 C136 0.930 . S
H161 C133 0.930 . S
H162 C142 0.930 . S
H163 C154 0.929 . S
H164 C157 0.930 . S
C165 C166 1.351 . S
C165 N168 1.368 . S
C165 H170 0.931 . S
C166 C165 1.351 . S
C166 N167 1.373 . S
C166 H194 0.930 . S
N167 C166 1.373 . S
N167 C169 1.340 . S
N168 C165 1.368 . S
N168 C169 1.321 . S
N168 Co171 2.135 . S
C169 N167 1.340 . S
C169 N168 1.321 . S
C169 H193 0.930 . S
H170 C165 0.931 . S
Co171 N168 2.135 . S
Co171 N174 2.121 1_556 S
Co171 O179 2.055 . S
Co171 O182 2.039 . S
Co171 N185 2.140 . S
C172 O173 1.227 . S
C172 O182 1.265 . S
O173 C172 1.227 . S
N174 Co171 2.121 1_554 S
N174 C176 1.375 . S
N174 C177 1.313 . S
C175 C176 1.338 . S
C175 N178 1.377 . S
C175 H195 0.930 . S
C176 N174 1.375 . S
C176 C175 1.338 . S
C176 H180 0.931 1_554 S
C177 N174 1.313 . S
C177 N178 1.344 . S
C177 H181 0.930 . S
N178 C175 1.377 . S
N178 C177 1.344 . S
O179 Co171 2.055 . S
O179 C183 1.253 . S
H180 C176 0.931 1_556 S
H181 C177 0.930 . S
O182 Co171 2.039 . S
O182 C172 1.265 . S
C183 O179 1.253 . S
C183 O184 1.227 . S
O184 C183 1.227 . S
N185 Co171 2.140 . S
N185 C188 1.346 . S
N185 C189 1.345 . S
C186 C187 1.387 . S
C186 C190 1.391 . S
C187 C186 1.387 . S
C187 C188 1.369 . S
C187 H196 0.929 . S
C188 N185 1.346 . S
C188 C187 1.369 . S
C188 H191 0.928 . S
C189 N185 1.345 . S
C189 C190 1.371 . S
C189 H192 0.931 . S
C190 C186 1.391 . S
C190 C189 1.371 . S
C190 H197 0.932 . S
H191 C188 0.928 . S
H192 C189 0.931 . S
H193 C169 0.930 . S
H194 C166 0.930 . S
H195 C175 0.930 . S
H196 C187 0.929 . S
H197 C190 0.932 . S
C198 C199 1.351 . S
C198 N201 1.368 . S
C198 H203 0.931 . S
C199 C198 1.351 . S
C199 N200 1.373 1_556 S
C199 H227 0.930 1_556 S
N200 C199 1.373 1_554 S
N200 C202 1.340 1_554 S
N201 C198 1.368 . S
N201 C202 1.321 . S
N201 Co204 2.135 . S
C202 N200 1.340 1_556 S
C202 N201 1.321 . S
C202 H226 0.930 . S
H203 C198 0.931 . S
Co204 N201 2.135 . S
Co204 N207 2.121 . S
Co204 O212 2.055 . S
Co204 O215 2.039 . S
Co204 N218 2.140 . S
C205 O206 1.227 . S
C205 O215 1.265 . S
O206 C205 1.227 . S
N207 Co204 2.121 . S
N207 C209 1.375 . S
N207 C210 1.313 . S
C208 C209 1.338 . S
C208 N211 1.377 . S
C208 H228 0.930 . S
C209 N207 1.375 . S
C209 C208 1.338 . S
C209 H213 0.931 . S
C210 N207 1.313 . S
C210 N211 1.344 . S
C210 H214 0.930 . S
N211 C208 1.377 . S
N211 C210 1.344 . S
O212 Co204 2.055 . S
O212 C216 1.253 . S
H213 C209 0.931 . S
H214 C210 0.930 . S
O215 Co204 2.039 . S
O215 C205 1.265 . S
C216 O212 1.253 . S
C216 O217 1.227 . S
O217 C216 1.227 . S
N218 Co204 2.140 . S
N218 C221 1.346 . S
N218 C222 1.345 . S
C219 C220 1.387 . S
C219 C223 1.391 . S
C220 C219 1.387 . S
C220 C221 1.369 . S
C220 H229 0.929 . S
C221 N218 1.346 . S
C221 C220 1.369 . S
C221 H224 0.928 . S
C222 N218 1.345 . S
C222 C223 1.371 . S
C222 H225 0.931 . S
C223 C219 1.391 . S
C223 C222 1.371 . S
C223 H230 0.930 . S
H224 C221 0.928 . S
H225 C222 0.931 . S
H226 C202 0.930 . S
H227 C199 0.930 1_554 S
H228 C208 0.930 . S
H229 C220 0.929 . S
H230 C223 0.930 . S
C231 C232 1.351 . S
C231 N234 1.368 . S
C231 H236 0.931 . S
C232 C231 1.351 . S
C232 N233 1.373 . S
C232 H260 0.930 . S
N233 C232 1.373 . S
N233 C235 1.340 . S
N234 C231 1.368 . S
N234 C235 1.321 . S
N234 Co237 2.135 1_554 S
C235 N233 1.340 . S
C235 N234 1.321 . S
C235 H259 0.930 . S
H236 C231 0.931 . S
Co237 N234 2.135 1_556 S
Co237 N240 2.121 . S
Co237 O245 2.055 . S
Co237 O248 2.039 . S
Co237 N251 2.140 . S
C238 O239 1.227 . S
C238 O248 1.265 1_554 S
O239 C238 1.227 . S
N240 Co237 2.121 . S
N240 C242 1.375 . S
N240 C243 1.313 . S
C241 C242 1.338 . S
C241 N244 1.377 . S
C241 H261 0.930 . S
C242 N240 1.375 . S
C242 C241 1.338 . S
C242 H246 0.931 . S
C243 N240 1.313 . S
C243 N244 1.344 . S
C243 H247 0.930 . S
N244 C241 1.377 . S
N244 C243 1.344 . S
O245 Co237 2.055 . S
O245 C249 1.253 . S
H246 C242 0.931 . S
H247 C243 0.930 . S
O248 Co237 2.039 . S
O248 C238 1.265 1_556 S
C249 O245 1.253 . S
C249 O250 1.227 . S
O250 C249 1.227 . S
N251 Co237 2.140 . S
N251 C254 1.346 1_556 S
N251 C255 1.345 . S
C252 C253 1.387 1_556 S
C252 C256 1.391 . S
C253 C252 1.387 1_554 S
C253 C254 1.369 . S
C253 H262 0.929 . S
C254 N251 1.346 1_554 S
C254 C253 1.369 . S
C254 H257 0.928 . S
C255 N251 1.345 . S
C255 C256 1.371 . S
C255 H258 0.931 . S
C256 C252 1.391 . S
C256 C255 1.371 . S
C256 H263 0.930 . S
H257 C254 0.928 . S
H258 C255 0.931 . S
H259 C235 0.930 . S
H260 C232 0.930 . S
H261 C241 0.930 . S
H262 C253 0.929 . S
H263 C256 0.930 . S
C264 C265 1.351 . S
C264 N267 1.368 . S
C264 H269 0.931 . S
C265 C264 1.351 . S
C265 N266 1.373 . S
C265 H293 0.930 . S
N266 C265 1.373 . S
N266 C268 1.340 . S
N267 C264 1.368 . S
N267 C268 1.321 . S
N267 Co270 2.135 . S
C268 N266 1.340 . S
C268 N267 1.321 . S
C268 H292 0.930 . S
H269 C264 0.931 . S
Co270 N267 2.135 . S
Co270 N273 2.121 . S
Co270 O278 2.055 . S
Co270 O281 2.039 . S
Co270 N284 2.140 . S
C271 O272 1.227 . S
C271 O281 1.265 . S
O272 C271 1.227 . S
N273 Co270 2.121 . S
N273 C275 1.375 1_554 S
N273 C276 1.313 1_554 S
C274 C275 1.338 . S
C274 N277 1.377 . S
C274 H294 0.930 . S
C275 N273 1.375 1_556 S
C275 C274 1.338 . S
C275 H279 0.931 1_556 S
C276 N273 1.313 1_556 S
C276 N277 1.344 . S
C276 H280 0.930 . S
N277 C274 1.377 . S
N277 C276 1.344 . S
O278 Co270 2.055 . S
O278 C282 1.253 . S
H279 C275 0.931 1_554 S
H280 C276 0.930 . S
O281 Co270 2.039 . S
O281 C271 1.265 . S
C282 O278 1.253 . S
C282 O283 1.227 . S
O283 C282 1.227 . S
N284 Co270 2.140 . S
N284 C287 1.346 . S
N284 C288 1.345 . S
C285 C286 1.387 . S
C285 C289 1.391 . S
C286 C285 1.387 . S
C286 C287 1.369 . S
C286 H295 0.929 . S
C287 N284 1.346 . S
C287 C286 1.369 . S
C287 H290 0.928 . S
C288 N284 1.345 . S
C288 C289 1.371 . S
C288 H291 0.931 . S
C289 C285 1.391 . S
C289 C288 1.371 . S
C289 H296 0.930 . S
H290 C287 0.928 . S
H291 C288 0.931 . S
H292 C268 0.930 . S
H293 C265 0.930 . S
H294 C274 0.930 . S
H295 C286 0.929 . S
H296 C289 0.930 . S
C297 C298 1.351 . S
C297 N300 1.368 . S
C297 H302 0.931 . S
C298 C297 1.351 . S
C298 N299 1.373 . S
C298 H326 0.930 . S
N299 C298 1.373 . S
N299 C301 1.340 . S
N300 C297 1.368 . S
N300 C301 1.321 . S
N300 Co303 2.135 . S
C301 N299 1.340 . S
C301 N300 1.321 . S
C301 H325 0.930 . S
H302 C297 0.931 . S
Co303 N300 2.135 . S
Co303 N306 2.121 . S
Co303 O311 2.055 . S
Co303 O314 2.039 . S
Co303 N317 2.140 . S
C304 O305 1.227 . S
C304 O314 1.265 . S
O305 C304 1.227 . S
N306 Co303 2.121 . S
N306 C308 1.375 . S
N306 C309 1.313 . S
C307 C308 1.338 . S
C307 N310 1.377 . S
C307 H327 0.930 . S
C308 N306 1.375 . S
C308 C307 1.338 . S
C308 H312 0.931 . S
C309 N306 1.313 . S
C309 N310 1.344 . S
C309 H313 0.930 . S
N310 C307 1.377 . S
N310 C309 1.344 . S
O311 Co303 2.055 . S
O311 C315 1.253 . S
H312 C308 0.931 . S
H313 C309 0.930 . S
O314 Co303 2.039 . S
O314 C304 1.265 . S
C315 O311 1.253 . S
C315 O316 1.227 . S
O316 C315 1.227 . S
N317 Co303 2.140 . S
N317 C320 1.346 . S
N317 C321 1.345 . S
C318 C319 1.387 . S
C318 C322 1.391 . S
C319 C318 1.387 . S
C319 C320 1.369 . S
C319 H328 0.929 . S
C320 N317 1.346 . S
C320 C319 1.369 . S
C320 H323 0.928 . S
C321 N317 1.345 . S
C321 C322 1.371 . S
C321 H324 0.931 . S
C322 C318 1.391 . S
C322 C321 1.371 . S
C322 H329 0.930 . S
H323 C320 0.928 . S
H324 C321 0.931 . S
H325 C301 0.930 . S
H326 C298 0.930 . S
H327 C307 0.930 . S
H328 C319 0.929 . S
H329 C322 0.930 . S
C330 C331 1.351 . S
C330 N333 1.368 . S
C330 H335 0.931 . S
C331 C330 1.351 . S
C331 N332 1.373 . S
C331 H359 0.930 . S
N332 C331 1.373 . S
N332 C334 1.340 . S
N333 C330 1.368 . S
N333 C334 1.321 . S
N333 Co336 2.135 . S
C334 N332 1.340 . S
C334 N333 1.321 . S
C334 H358 0.930 . S
H335 C330 0.931 . S
Co336 N333 2.135 . S
Co336 N339 2.121 . S
Co336 O344 2.055 . S
Co336 O347 2.039 . S
Co336 N350 2.140 . S
C337 O338 1.227 . S
C337 O347 1.265 . S
O338 C337 1.227 . S
N339 Co336 2.121 . S
N339 C341 1.375 . S
N339 C342 1.313 . S
C340 C341 1.338 . S
C340 N343 1.377 . S
C340 H360 0.930 . S
C341 N339 1.375 . S
C341 C340 1.338 . S
C341 H345 0.931 . S
C342 N339 1.313 . S
C342 N343 1.344 . S
C342 H346 0.930 . S
N343 C340 1.377 . S
N343 C342 1.344 . S
O344 Co336 2.055 . S
O344 C348 1.253 . S
H345 C341 0.931 . S
H346 C342 0.930 . S
O347 Co336 2.039 . S
O347 C337 1.265 . S
C348 O344 1.253 . S
C348 O349 1.227 . S
O349 C348 1.227 . S
N350 Co336 2.140 . S
N350 C353 1.346 . S
N350 C354 1.345 . S
C351 C352 1.387 . S
C351 C355 1.391 . S
C352 C351 1.387 . S
C352 C353 1.369 . S
C352 H361 0.929 . S
C353 N350 1.346 . S
C353 C352 1.369 . S
C353 H356 0.928 . S
C354 N350 1.345 . S
C354 C355 1.371 . S
C354 H357 0.931 . S
C355 C351 1.391 . S
C355 C354 1.371 . S
C355 H362 0.930 . S
H356 C353 0.928 . S
H357 C354 0.931 . S
H358 C334 0.930 . S
H359 C331 0.930 . S
H360 C340 0.930 . S
H361 C352 0.929 . S
H362 C355 0.930 . S
C363 C364 1.351 . S
C363 N366 1.368 . S
C363 H368 0.931 . S
C364 C363 1.351 . S
C364 N365 1.373 . S
C364 H392 0.930 . S
N365 C364 1.373 . S
N365 C367 1.340 . S
N366 C363 1.368 . S
N366 C367 1.321 . S
N366 Co369 2.135 . S
C367 N365 1.340 . S
C367 N366 1.321 . S
C367 H391 0.930 . S
H368 C363 0.931 . S
Co369 N366 2.135 . S
Co369 N372 2.121 . S
Co369 O377 2.055 . S
Co369 O380 2.039 . S
Co369 N383 2.140 . S
C370 O371 1.227 . S
C370 O380 1.265 . S
O371 C370 1.227 . S
N372 Co369 2.121 . S
N372 C374 1.375 . S
N372 C375 1.313 . S
C373 C374 1.338 . S
C373 N376 1.377 . S
C373 H393 0.930 . S
C374 N372 1.375 . S
C374 C373 1.338 . S
C374 H378 0.931 . S
C375 N372 1.313 . S
C375 N376 1.344 . S
C375 H379 0.930 . S
N376 C373 1.377 . S
N376 C375 1.344 . S
O377 Co369 2.055 . S
O377 C381 1.253 . S
H378 C374 0.931 . S
H379 C375 0.930 . S
O380 Co369 2.039 . S
O380 C370 1.265 . S
C381 O377 1.253 . S
C381 O382 1.227 . S
O382 C381 1.227 . S
N383 Co369 2.140 . S
N383 C386 1.346 . S
N383 C387 1.345 . S
C384 C385 1.387 . S
C384 C388 1.391 . S
C385 C384 1.387 . S
C385 C386 1.369 . S
C385 H394 0.929 . S
C386 N383 1.346 . S
C386 C385 1.369 . S
C386 H389 0.928 . S
C387 N383 1.345 . S
C387 C388 1.371 . S
C387 H390 0.931 . S
C388 C384 1.391 . S
C388 C387 1.371 . S
C388 H395 0.930 . S
H389 C386 0.928 . S
H390 C387 0.931 . S
H391 C367 0.930 . S
H392 C364 0.930 . S
H393 C373 0.930 . S
H394 C385 0.929 . S
H395 C388 0.930 . S
H396 C404 0.950 . S
H397 C409 0.950 . S
H398 C406 0.950 . S
H399 C408 0.950 . S
H400 C410 0.950 . S
H401 C412 0.950 . S
H402 C414 0.950 . S
H403 C415 0.950 . S
C404 H396 0.950 . S
C404 C405 1.386 . S
C404 C406 1.391 . S
C405 C404 1.386 . S
C405 C409 1.393 . S
C406 H398 0.950 . S
C406 C404 1.391 . S
C406 C407 1.400 . S
C407 C406 1.400 . S
C407 C408 1.398 . S
C407 C413 1.491 . S
C408 H399 0.950 . S
C408 C407 1.398 . S
C408 C409 1.391 . S
C409 H397 0.950 . S
C409 C405 1.393 . S
C409 C408 1.391 . S
C410 H400 0.950 . S
C410 C411 1.386 . S
C410 C412 1.391 . S
C411 C410 1.386 . S
C411 C415 1.393 . S
C412 H401 0.950 . S
C412 C410 1.391 . S
C412 C413 1.400 . S
C413 C407 1.491 . S
C413 C412 1.400 . S
C413 C414 1.398 . S
C414 H402 0.950 . S
C414 C413 1.398 . S
C414 C415 1.391 . S
C415 H403 0.950 . S
C415 C411 1.393 . S
C415 C414 1.391 . S
H416 C424 0.950 . S
H417 C429 0.950 . S
H418 C426 0.950 . S
H419 C428 0.950 . S
H420 C430 0.950 . S
H421 C432 0.950 . S
H422 C434 0.950 . S
H423 C435 0.950 . S
C424 H416 0.950 . S
C424 C425 1.386 . S
C424 C426 1.391 . S
C425 C424 1.386 . S
C425 C429 1.393 . S
C426 H418 0.950 . S
C426 C424 1.391 . S
C426 C427 1.400 . S
C427 C426 1.400 . S
C427 C428 1.398 . S
C427 C433 1.491 . S
C428 H419 0.950 . S
C428 C427 1.398 . S
C428 C429 1.391 . S
C429 H417 0.950 . S
C429 C425 1.393 . S
C429 C428 1.391 . S
C430 H420 0.950 . S
C430 C431 1.386 . S
C430 C432 1.391 . S
C431 C430 1.386 . S
C431 C435 1.393 . S
C432 H421 0.950 . S
C432 C430 1.391 . S
C432 C433 1.400 . S
C433 C427 1.491 . S
C433 C432 1.400 . S
C433 C434 1.398 . S
C434 H422 0.950 . S
C434 C433 1.398 . S
C434 C435 1.391 . S
C435 H423 0.950 . S
C435 C431 1.393 . S
C435 C434 1.391 . S
H436 C444 0.950 . S
H437 C449 0.950 . S
H438 C446 0.950 . S
H439 C448 0.950 . S
H440 C450 0.950 . S
H441 C452 0.950 . S
H442 C454 0.950 . S
H443 C455 0.950 . S
C444 H436 0.950 . S
C444 C445 1.386 . S
C444 C446 1.391 . S
C445 C444 1.386 . S
C445 C449 1.393 . S
C446 H438 0.950 . S
C446 C444 1.391 . S
C446 C447 1.400 . S
C447 C446 1.400 . S
C447 C448 1.398 . S
C447 C453 1.491 . S
C448 H439 0.950 . S
C448 C447 1.398 . S
C448 C449 1.391 . S
C449 H437 0.950 . S
C449 C445 1.393 . S
C449 C448 1.391 . S
C450 H440 0.950 . S
C450 C451 1.386 . S
C450 C452 1.391 . S
C451 C450 1.386 . S
C451 C455 1.393 . S
C452 H441 0.950 . S
C452 C450 1.391 . S
C452 C453 1.400 . S
C453 C447 1.491 . S
C453 C452 1.400 . S
C453 C454 1.398 . S
C454 H442 0.950 . S
C454 C453 1.398 . S
C454 C455 1.391 . S
C455 H443 0.950 . S
C455 C451 1.393 . S
C455 C454 1.391 . S
H456 C464 0.950 . S
H457 C469 0.950 . S
H458 C466 0.950 . S
H459 C468 0.950 . S
H460 C470 0.950 . S
H461 C472 0.950 . S
H462 C474 0.950 . S
H463 C475 0.950 . S
C464 H456 0.950 . S
C464 C465 1.386 . S
C464 C466 1.391 . S
C465 C464 1.386 . S
C465 C469 1.393 . S
C466 H458 0.950 . S
C466 C464 1.391 . S
C466 C467 1.400 . S
C467 C466 1.400 . S
C467 C468 1.398 . S
C467 C473 1.491 . S
C468 H459 0.950 . S
C468 C467 1.398 . S
C468 C469 1.391 . S
C469 H457 0.950 . S
C469 C465 1.393 . S
C469 C468 1.391 . S
C470 H460 0.950 . S
C470 C471 1.386 . S
C470 C472 1.391 . S
C471 C470 1.386 . S
C471 C475 1.393 . S
C472 H461 0.950 . S
C472 C470 1.391 . S
C472 C473 1.400 . S
C473 C467 1.491 . S
C473 C472 1.400 . S
C473 C474 1.398 . S
C474 H462 0.950 . S
C474 C473 1.398 . S
C474 C475 1.391 . S
C475 H463 0.950 . S
C475 C471 1.393 . S
C475 C474 1.391 . S
H476 C484 0.950 . S
H477 C489 0.950 . S
H478 C486 0.950 . S
H479 C488 0.950 . S
H480 C490 0.950 . S
H481 C492 0.950 . S
H482 C494 0.950 . S
H483 C495 0.950 . S
C484 H476 0.950 . S
C484 C485 1.386 . S
C484 C486 1.391 . S
C485 C484 1.386 . S
C485 C489 1.393 . S
C486 H478 0.950 . S
C486 C484 1.391 . S
C486 C487 1.400 . S
C487 C486 1.400 . S
C487 C488 1.398 . S
C487 C493 1.491 . S
C488 H479 0.950 . S
C488 C487 1.398 . S
C488 C489 1.391 . S
C489 H477 0.950 . S
C489 C485 1.393 . S
C489 C488 1.391 . S
C490 H480 0.950 . S
C490 C491 1.386 . S
C490 C492 1.391 . S
C491 C490 1.386 . S
C491 C495 1.393 . S
C492 H481 0.950 . S
C492 C490 1.391 . S
C492 C493 1.400 . S
C493 C487 1.491 . S
C493 C492 1.400 . S
C493 C494 1.398 . S
C494 H482 0.950 . S
C494 C493 1.398 . S
C494 C495 1.391 . S
C495 H483 0.950 . S
C495 C491 1.393 . S
C495 C494 1.391 . S
H496 C504 0.950 . S
H497 C509 0.950 1_554 S
H498 C506 0.950 . S
H499 C508 0.950 . S
H500 C510 0.950 . S
H501 C512 0.950 . S
H502 C514 0.950 . S
H503 C515 0.950 . S
C504 H496 0.950 . S
C504 C505 1.386 . S
C504 C506 1.391 . S
C505 C504 1.386 . S
C505 C509 1.393 . S
C506 H498 0.950 . S
C506 C504 1.391 . S
C506 C507 1.400 . S
C507 C506 1.400 . S
C507 C508 1.398 . S
C507 C513 1.491 . S
C508 H499 0.950 . S
C508 C507 1.398 . S
C508 C509 1.391 . S
C509 H497 0.950 1_556 S
C509 C505 1.393 . S
C509 C508 1.391 . S
C510 H500 0.950 . S
C510 C511 1.386 . S
C510 C512 1.391 . S
C511 C510 1.386 . S
C511 C515 1.393 . S
C512 H501 0.950 . S
C512 C510 1.391 . S
C512 C513 1.400 . S
C513 C507 1.491 . S
C513 C512 1.400 . S
C513 C514 1.398 . S
C514 H502 0.950 . S
C514 C513 1.398 . S
C514 C515 1.391 . S
C515 H503 0.950 . S
C515 C511 1.393 . S
C515 C514 1.391 . S
H516 C524 0.950 1_554 S
H517 C529 0.950 . S
H518 C526 0.950 . S
H519 C528 0.950 . S
H520 C530 0.950 . S
H521 C532 0.950 . S
H522 C534 0.950 . S
H523 C535 0.950 . S
C524 H516 0.950 1_556 S
C524 C525 1.386 . S
C524 C526 1.391 . S
C525 C524 1.386 . S
C525 C529 1.393 . S
C526 H518 0.950 . S
C526 C524 1.391 . S
C526 C527 1.400 . S
C527 C526 1.400 . S
C527 C528 1.398 . S
C527 C533 1.491 1_455 S
C528 H519 0.950 . S
C528 C527 1.398 . S
C528 C529 1.391 . S
C529 H517 0.950 . S
C529 C525 1.393 . S
C529 C528 1.391 . S
C530 H520 0.950 . S
C530 C531 1.386 . S
C530 C532 1.391 . S
C531 C530 1.386 . S
C531 C535 1.393 . S
C532 H521 0.950 . S
C532 C530 1.391 . S
C532 C533 1.400 . S
C533 C527 1.491 1_655 S
C533 C532 1.400 . S
C533 C534 1.398 . S
C534 H522 0.950 . S
C534 C533 1.398 . S
C534 C535 1.391 . S
C535 H523 0.950 . S
C535 C531 1.393 . S
C535 C534 1.391 . S
H536 C544 0.950 . S
H537 C549 0.950 . S
H538 C546 0.950 1_554 S
H539 C548 0.950 1_545 S
H540 C550 0.950 . S
H541 C552 0.950 1_556 S
H542 C554 0.950 1_565 S
H543 C555 0.950 . S
C544 H536 0.950 . S
C544 C545 1.386 . S
C544 C546 1.391 . S
C545 C544 1.386 . S
C545 C549 1.393 . S
C546 H538 0.950 1_556 S
C546 C544 1.391 . S
C546 C547 1.400 . S
C547 C546 1.400 . S
C547 C548 1.398 . S
C547 C553 1.491 1_566 S
C548 H539 0.950 1_565 S
C548 C547 1.398 . S
C548 C549 1.391 . S
C549 H537 0.950 . S
C549 C545 1.393 . S
C549 C548 1.391 . S
C550 H540 0.950 . S
C550 C551 1.386 . S
C550 C552 1.391 . S
C551 C550 1.386 . S
C551 C555 1.393 . S
C552 H541 0.950 1_554 S
C552 C550 1.391 . S
C552 C553 1.400 . S
C553 C547 1.491 1_544 S
C553 C552 1.400 . S
C553 C554 1.398 . S
C554 H542 0.950 1_545 S
C554 C553 1.398 . S
C554 C555 1.391 . S
C555 H543 0.950 . S
C555 C551 1.393 . S
C555 C554 1.391 . S
H556 C564 0.950 . S
H557 C569 0.950 . S
H558 C566 0.950 . S
H559 C568 0.950 . S
H560 C570 0.950 . S
H561 C572 0.950 . S
H562 C574 0.950 . S
H563 C575 0.950 . S
C564 H556 0.950 . S
C564 C565 1.386 . S
C564 C566 1.391 . S
C565 C564 1.386 . S
C565 C569 1.393 . S
C566 H558 0.950 . S
C566 C564 1.391 . S
C566 C567 1.400 . S
C567 C566 1.400 . S
C567 C568 1.398 . S
C567 C573 1.491 . S
C568 H559 0.950 . S
C568 C567 1.398 . S
C568 C569 1.391 . S
C569 H557 0.950 . S
C569 C565 1.393 . S
C569 C568 1.391 . S
C570 H560 0.950 . S
C570 C571 1.386 . S
C570 C572 1.391 . S
C571 C570 1.386 . S
C571 C575 1.393 . S
C572 H561 0.950 . S
C572 C570 1.391 . S
C572 C573 1.400 . S
C573 C567 1.491 . S
C573 C572 1.400 . S
C573 C574 1.398 . S
C574 H562 0.950 . S
C574 C573 1.398 . S
C574 C575 1.391 . S
C575 H563 0.950 . S
C575 C571 1.393 . S
C575 C574 1.391 . S
H576 C584 0.950 . S
H577 C589 0.950 . S
H578 C586 0.950 . S
H579 C588 0.950 . S
H580 C590 0.950 . S
H581 C592 0.950 . S
H582 C594 0.950 . S
H583 C595 0.950 . S
C584 H576 0.950 . S
C584 C585 1.386 . S
C584 C586 1.391 . S
C585 C584 1.386 . S
C585 C589 1.393 . S
C586 H578 0.950 . S
C586 C584 1.391 . S
C586 C587 1.400 . S
C587 C586 1.400 . S
C587 C588 1.398 . S
C587 C593 1.491 1_655 S
C588 H579 0.950 . S
C588 C587 1.398 . S
C588 C589 1.391 . S
C589 H577 0.950 . S
C589 C585 1.393 . S
C589 C588 1.391 . S
C590 H580 0.950 . S
C590 C591 1.386 . S
C590 C592 1.391 . S
C591 C590 1.386 . S
C591 C595 1.393 . S
C592 H581 0.950 . S
C592 C590 1.391 . S
C592 C593 1.400 . S
C593 C587 1.491 1_455 S
C593 C592 1.400 . S
C593 C594 1.398 . S
C594 H582 0.950 . S
C594 C593 1.398 . S
C594 C595 1.391 . S
C595 H583 0.950 . S
C595 C591 1.393 . S
C595 C594 1.391 . S
H596 C604 0.950 . S
H597 C609 0.950 . S
H598 C606 0.950 . S
H599 C608 0.950 . S
H600 C610 0.950 . S
H601 C612 0.950 . S
H602 C614 0.950 . S
H603 C615 0.950 . S
C604 H596 0.950 . S
C604 C605 1.386 . S
C604 C606 1.391 . S
C605 C604 1.386 . S
C605 C609 1.393 . S
C606 H598 0.950 . S
C606 C604 1.391 . S
C606 C607 1.400 . S
C607 C606 1.400 . S
C607 C608 1.398 . S
C607 C613 1.491 1_545 S
C608 H599 0.950 . S
C608 C607 1.398 . S
C608 C609 1.391 . S
C609 H597 0.950 . S
C609 C605 1.393 . S
C609 C608 1.391 . S
C610 H600 0.950 . S
C610 C611 1.386 . S
C610 C612 1.391 . S
C611 C610 1.386 . S
C611 C615 1.393 . S
C612 H601 0.950 . S
C612 C610 1.391 . S
C612 C613 1.400 . S
C613 C607 1.491 1_565 S
C613 C612 1.400 . S
C613 C614 1.398 . S
C614 H602 0.950 . S
C614 C613 1.398 . S
C614 C615 1.391 . S
C615 H603 0.950 . S
C615 C611 1.393 . S
C615 C614 1.391 . S
H616 C624 0.950 . S
H617 C629 0.950 . S
H618 C626 0.950 . S
H619 C628 0.950 . S
H620 C630 0.950 . S
H621 C632 0.950 . S
H622 C634 0.950 . S
H623 C635 0.950 . S
C624 H616 0.950 . S
C624 C625 1.386 . S
C624 C626 1.391 . S
C625 C624 1.386 . S
C625 C629 1.393 . S
C626 H618 0.950 . S
C626 C624 1.391 . S
C626 C627 1.400 . S
C627 C626 1.400 . S
C627 C628 1.398 . S
C627 C633 1.491 . S
C628 H619 0.950 . S
C628 C627 1.398 . S
C628 C629 1.391 . S
C629 H617 0.950 . S
C629 C625 1.393 . S
C629 C628 1.391 . S
C630 H620 0.950 . S
C630 C631 1.386 . S
C630 C632 1.391 . S
C631 C630 1.386 . S
C631 C635 1.393 . S
C632 H621 0.950 . S
C632 C630 1.391 . S
C632 C633 1.400 . S
C633 C627 1.491 . S
C633 C632 1.400 . S
C633 C634 1.398 . S
C634 H622 0.950 . S
C634 C633 1.398 . S
C634 C635 1.391 . S
C635 H623 0.950 . S
C635 C631 1.393 . S
C635 C634 1.391 . S
H636 C644 0.950 . S
H637 C649 0.950 . S
H638 C646 0.950 . S
H639 C648 0.950 . S
H640 C650 0.950 . S
H641 C652 0.950 . S
H642 C654 0.950 . S
H643 C655 0.950 . S
C644 H636 0.950 . S
C644 C645 1.386 . S
C644 C646 1.391 . S
C645 C644 1.386 . S
C645 C649 1.393 . S
C646 H638 0.950 . S
C646 C644 1.391 . S
C646 C647 1.400 . S
C647 C646 1.400 . S
C647 C648 1.398 . S
C647 C653 1.491 . S
C648 H639 0.950 . S
C648 C647 1.398 . S
C648 C649 1.391 . S
C649 H637 0.950 . S
C649 C645 1.393 . S
C649 C648 1.391 . S
C650 H640 0.950 . S
C650 C651 1.386 . S
C650 C652 1.391 . S
C651 C650 1.386 . S
C651 C655 1.393 . S
C652 H641 0.950 . S
C652 C650 1.391 . S
C652 C653 1.400 . S
C653 C647 1.491 . S
C653 C652 1.400 . S
C653 C654 1.398 . S
C654 H642 0.950 . S
C654 C653 1.398 . S
C654 C655 1.391 . S
C655 H643 0.950 . S
C655 C651 1.393 . S
C655 C654 1.391 . S
H656 C664 0.950 . S
H657 C669 0.950 . S
H658 C666 0.950 . S
H659 C668 0.950 . S
H660 C670 0.950 . S
H661 C672 0.950 . S
H662 C674 0.950 . S
H663 C675 0.950 . S
C664 H656 0.950 . S
C664 C665 1.386 . S
C664 C666 1.391 . S
C665 C664 1.386 . S
C665 C669 1.393 . S
C666 H658 0.950 . S
C666 C664 1.391 . S
C666 C667 1.400 . S
C667 C666 1.400 . S
C667 C668 1.398 . S
C667 C673 1.491 . S
C668 H659 0.950 . S
C668 C667 1.398 . S
C668 C669 1.391 . S
C669 H657 0.950 . S
C669 C665 1.393 . S
C669 C668 1.391 . S
C670 H660 0.950 . S
C670 C671 1.386 . S
C670 C672 1.391 . S
C671 C670 1.386 . S
C671 C675 1.393 . S
C672 H661 0.950 . S
C672 C670 1.391 . S
C672 C673 1.400 . S
C673 C667 1.491 . S
C673 C672 1.400 . S
C673 C674 1.398 . S
C674 H662 0.950 . S
C674 C673 1.398 . S
C674 C675 1.391 . S
C675 H663 0.950 . S
C675 C671 1.393 . S
C675 C674 1.391 . S
H676 C684 0.950 . S
H677 C689 0.950 . S
H678 C686 0.950 . S
H679 C688 0.950 . S
H680 C690 0.950 . S
H681 C692 0.950 . S
H682 C694 0.950 . S
H683 C695 0.950 . S
C684 H676 0.950 . S
C684 C685 1.386 . S
C684 C686 1.391 . S
C685 C684 1.386 . S
C685 C689 1.393 . S
C686 H678 0.950 . S
C686 C684 1.391 . S
C686 C687 1.400 . S
C687 C686 1.400 . S
C687 C688 1.398 . S
C687 C693 1.491 . S
C688 H679 0.950 . S
C688 C687 1.398 . S
C688 C689 1.391 . S
C689 H677 0.950 . S
C689 C685 1.393 . S
C689 C688 1.391 . S
C690 H680 0.950 . S
C690 C691 1.386 . S
C690 C692 1.391 . S
C691 C690 1.386 . S
C691 C695 1.393 . S
C692 H681 0.950 . S
C692 C690 1.391 . S
C692 C693 1.400 . S
C693 C687 1.491 . S
C693 C692 1.400 . S
C693 C694 1.398 . S
C694 H682 0.950 . S
C694 C693 1.398 . S
C694 C695 1.391 . S
C695 H683 0.950 . S
C695 C691 1.393 . S
C695 C694 1.391 . S
H696 C704 0.950 . S
H697 C709 0.950 . S
H698 C706 0.950 . S
H699 C708 0.950 . S
H700 C710 0.950 . S
H701 C712 0.950 . S
H702 C714 0.950 . S
H703 C715 0.950 . S
C704 H696 0.950 . S
C704 C705 1.386 . S
C704 C706 1.391 . S
C705 C704 1.386 . S
C705 C709 1.393 . S
C706 H698 0.950 . S
C706 C704 1.391 . S
C706 C707 1.400 . S
C707 C706 1.400 . S
C707 C708 1.398 . S
C707 C713 1.491 . S
C708 H699 0.950 . S
C708 C707 1.398 . S
C708 C709 1.391 . S
C709 H697 0.950 . S
C709 C705 1.393 . S
C709 C708 1.391 . S
C710 H700 0.950 . S
C710 C711 1.386 . S
C710 C712 1.391 . S
C711 C710 1.386 . S
C711 C715 1.393 . S
C712 H701 0.950 . S
C712 C710 1.391 . S
C712 C713 1.400 . S
C713 C707 1.491 . S
C713 C712 1.400 . S
C713 C714 1.398 . S
C714 H702 0.950 . S
C714 C713 1.398 . S
C714 C715 1.391 . S
C715 H703 0.950 . S
C715 C711 1.393 . S
C715 C714 1.391 . S
H716 C724 0.950 . S
H717 C729 0.950 . S
H718 C726 0.950 . S
H719 C728 0.950 . S
H720 C730 0.950 . S
H721 C732 0.950 . S
H722 C734 0.950 . S
H723 C735 0.950 . S
C724 H716 0.950 . S
C724 C725 1.386 . S
C724 C726 1.391 . S
C725 C724 1.386 . S
C725 C729 1.393 . S
C726 H718 0.950 . S
C726 C724 1.391 . S
C726 C727 1.400 . S
C727 C726 1.400 . S
C727 C728 1.398 . S
C727 C733 1.491 . S
C728 H719 0.950 . S
C728 C727 1.398 . S
C728 C729 1.391 . S
C729 H717 0.950 . S
C729 C725 1.393 . S
C729 C728 1.391 . S
C730 H720 0.950 . S
C730 C731 1.386 . S
C730 C732 1.391 1_554 S
C731 C730 1.386 . S
C731 C735 1.393 1_554 S
C732 H721 0.950 . S
C732 C730 1.391 1_556 S
C732 C733 1.400 . S
C733 C727 1.491 . S
C733 C732 1.400 . S
C733 C734 1.398 . S
C734 H722 0.950 . S
C734 C733 1.398 . S
C734 C735 1.391 . S
C735 H723 0.950 . S
C735 C731 1.393 1_556 S
C735 C734 1.391 . S
H736 C744 0.950 . S
H737 C749 0.950 . S
H738 C746 0.950 . S
H739 C748 0.950 . S
H740 C750 0.950 . S
H741 C752 0.950 . S
H742 C754 0.950 . S
H743 C755 0.950 1_556 S
C744 H736 0.950 . S
C744 C745 1.386 . S
C744 C746 1.391 . S
C745 C744 1.386 . S
C745 C749 1.393 . S
C746 H738 0.950 . S
C746 C744 1.391 . S
C746 C747 1.400 . S
C747 C746 1.400 . S
C747 C748 1.398 . S
C747 C753 1.491 . S
C748 H739 0.950 . S
C748 C747 1.398 . S
C748 C749 1.391 . S
C749 H737 0.950 . S
C749 C745 1.393 . S
C749 C748 1.391 . S
C750 H740 0.950 . S
C750 C751 1.386 . S
C750 C752 1.391 1_556 S
C751 C750 1.386 . S
C751 C755 1.393 1_556 S
C752 H741 0.950 . S
C752 C750 1.391 1_554 S
C752 C753 1.400 . S
C753 C747 1.491 . S
C753 C752 1.400 . S
C753 C754 1.398 . S
C754 H742 0.950 . S
C754 C753 1.398 . S
C754 C755 1.391 . S
C755 H743 0.950 1_554 S
C755 C751 1.393 1_554 S
C755 C754 1.391 . S
H756 C764 0.950 . S
H757 C769 0.950 . S
H758 C766 0.950 . S
H759 C768 0.950 . S
H760 C770 0.950 . S
H761 C772 0.950 . S
H762 C774 0.950 . S
H763 C775 0.950 . S
C764 H756 0.950 . S
C764 C765 1.386 . S
C764 C766 1.391 . S
C765 C764 1.386 . S
C765 C769 1.393 . S
C766 H758 0.950 . S
C766 C764 1.391 . S
C766 C767 1.400 . S
C767 C766 1.400 . S
C767 C768 1.398 . S
C767 C773 1.491 . S
C768 H759 0.950 . S
C768 C767 1.398 . S
C768 C769 1.391 . S
C769 H757 0.950 . S
C769 C765 1.393 . S
C769 C768 1.391 . S
C770 H760 0.950 . S
C770 C771 1.386 . S
C770 C772 1.391 . S
C771 C770 1.386 . S
C771 C775 1.393 . S
C772 H761 0.950 . S
C772 C770 1.391 . S
C772 C773 1.400 . S
C773 C767 1.491 . S
C773 C772 1.400 . S
C773 C774 1.398 . S
C774 H762 0.950 . S
C774 C773 1.398 . S
C774 C775 1.391 . S
C775 H763 0.950 . S
C775 C771 1.393 . S
C775 C774 1.391 . S
H776 C784 0.950 . S
H777 C789 0.950 . S
H778 C786 0.950 . S
H779 C788 0.950 . S
H780 C790 0.950 . S
H781 C792 0.950 . S
H782 C794 0.950 . S
H783 C795 0.950 . S
C784 H776 0.950 . S
C784 C785 1.386 . S
C784 C786 1.391 . S
C785 C784 1.386 . S
C785 C789 1.393 . S
C786 H778 0.950 . S
C786 C784 1.391 . S
C786 C787 1.400 . S
C787 C786 1.400 . S
C787 C788 1.398 . S
C787 C793 1.491 . S
C788 H779 0.950 . S
C788 C787 1.398 . S
C788 C789 1.391 . S
C789 H777 0.950 . S
C789 C785 1.393 . S
C789 C788 1.391 . S
C790 H780 0.950 . S
C790 C791 1.386 . S
C790 C792 1.391 . S
C791 C790 1.386 . S
C791 C795 1.393 . S
C792 H781 0.950 . S
C792 C790 1.391 . S
C792 C793 1.400 . S
C793 C787 1.491 . S
C793 C792 1.400 . S
C793 C794 1.398 . S
C794 H782 0.950 . S
C794 C793 1.398 . S
C794 C795 1.391 . S
C795 H783 0.950 . S
C795 C791 1.393 . S
C795 C794 1.391 . S
H796 C804 0.950 . S
H797 C809 0.950 . S
H798 C806 0.950 . S
H799 C808 0.950 . S
H800 C810 0.950 . S
H801 C812 0.950 . S
H802 C814 0.950 . S
H803 C815 0.950 . S
C804 H796 0.950 . S
C804 C805 1.386 . S
C804 C806 1.391 . S
C805 C804 1.386 . S
C805 C809 1.393 . S
C806 H798 0.950 . S
C806 C804 1.391 . S
C806 C807 1.400 . S
C807 C806 1.400 . S
C807 C808 1.398 . S
C807 C813 1.491 . S
C808 H799 0.950 . S
C808 C807 1.398 . S
C808 C809 1.391 . S
C809 H797 0.950 . S
C809 C805 1.393 . S
C809 C808 1.391 . S
C810 H800 0.950 . S
C810 C811 1.386 . S
C810 C812 1.391 1_554 S
C811 C810 1.386 . S
C811 C815 1.393 . S
C812 H801 0.950 . S
C812 C810 1.391 1_556 S
C812 C813 1.400 . S
C813 C807 1.491 . S
C813 C812 1.400 . S
C813 C814 1.398 . S
C814 H802 0.950 . S
C814 C813 1.398 . S
C814 C815 1.391 1_556 S
C815 H803 0.950 . S
C815 C811 1.393 . S
C815 C814 1.391 1_554 S
H816 C824 0.950 . S
H817 C829 0.950 . S
H818 C826 0.945 1_554 S
H819 C828 0.952 . S
H820 C830 0.950 . S
H821 C832 0.950 . S
H822 C834 0.950 . S
H823 C835 0.950 . S
C824 H816 0.950 . S
C824 C825 1.386 . S
C824 C826 1.391 . S
C825 C824 1.386 . S
C825 C829 1.393 . S
C826 H818 0.945 1_556 S
C826 C824 1.391 . S
C826 C827 1.400 1_556 S
C827 C826 1.400 1_554 S
C827 C828 1.398 1_554 S
C827 C833 1.491 . S
C828 H819 0.952 . S
C828 C827 1.398 1_556 S
C828 C829 1.391 . S
C829 H817 0.950 . S
C829 C825 1.393 . S
C829 C828 1.391 . S
C830 H820 0.950 . S
C830 C831 1.386 . S
C830 C832 1.391 . S
C831 C830 1.386 . S
C831 C835 1.393 . S
C832 H821 0.950 . S
C832 C830 1.391 . S
C832 C833 1.400 . S
C833 C827 1.491 . S
C833 C832 1.400 . S
C833 C834 1.398 . S
C834 H822 0.950 . S
C834 C833 1.398 . S
C834 C835 1.391 . S
C835 H823 0.950 . S
C835 C831 1.393 . S
C835 C834 1.391 . S
H836 C844 0.950 . S
H837 C849 0.950 . S
H838 C846 0.950 . S
H839 C848 0.950 . S
H840 C850 0.950 . S
H841 C852 0.950 . S
H842 C854 0.950 . S
H843 C855 0.950 . S
C844 H836 0.950 . S
C844 C845 1.386 . S
C844 C846 1.391 . S
C845 C844 1.386 . S
C845 C849 1.393 . S
C846 H838 0.950 . S
C846 C844 1.391 . S
C846 C847 1.400 . S
C847 C846 1.400 . S
C847 C848 1.398 . S
C847 C853 1.491 . S
C848 H839 0.950 . S
C848 C847 1.398 . S
C848 C849 1.391 . S
C849 H837 0.950 . S
C849 C845 1.393 . S
C849 C848 1.391 . S
C850 H840 0.950 . S
C850 C851 1.386 . S
C850 C852 1.391 . S
C851 C850 1.386 . S
C851 C855 1.393 . S
C852 H841 0.950 . S
C852 C850 1.391 . S
C852 C853 1.400 . S
C853 C847 1.491 . S
C853 C852 1.400 . S
C853 C854 1.398 . S
C854 H842 0.950 . S
C854 C853 1.398 . S
C854 C855 1.391 . S
C855 H843 0.950 . S
C855 C851 1.393 . S
C855 C854 1.391 . S
H856 C864 0.950 . S
H857 C869 0.950 . S
H858 C866 0.950 . S
H859 C868 0.950 . S
H860 C870 0.950 . S
H861 C872 0.950 . S
H862 C874 0.950 . S
H863 C875 0.950 . S
C864 H856 0.950 . S
C864 C865 1.386 . S
C864 C866 1.391 . S
C865 C864 1.386 . S
C865 C869 1.393 . S
C866 H858 0.950 . S
C866 C864 1.391 . S
C866 C867 1.400 . S
C867 C866 1.400 . S
C867 C868 1.398 . S
C867 C873 1.491 . S
C868 H859 0.950 . S
C868 C867 1.398 . S
C868 C869 1.391 . S
C869 H857 0.950 . S
C869 C865 1.393 . S
C869 C868 1.391 . S
C870 H860 0.950 . S
C870 C871 1.386 . S
C870 C872 1.391 . S
C871 C870 1.386 . S
C871 C875 1.393 . S
C872 H861 0.950 . S
C872 C870 1.391 . S
C872 C873 1.400 . S
C873 C867 1.491 . S
C873 C872 1.400 . S
C873 C874 1.398 . S
C874 H862 0.950 . S
C874 C873 1.398 . S
C874 C875 1.391 . S
C875 H863 0.950 . S
C875 C871 1.393 . S
C875 C874 1.391 . S
H876 C884 0.950 . S
H877 C889 0.950 . S
H878 C886 0.950 . S
H879 C888 0.950 . S
H880 C890 0.950 . S
H881 C892 0.950 . S
H882 C894 0.950 . S
H883 C895 0.950 . S
C884 H876 0.950 . S
C884 C885 1.386 . S
C884 C886 1.391 . S
C885 C884 1.386 . S
C885 C889 1.393 . S
C886 H878 0.950 . S
C886 C884 1.391 . S
C886 C887 1.400 . S
C887 C886 1.400 . S
C887 C888 1.398 . S
C887 C893 1.491 . S
C888 H879 0.950 . S
C888 C887 1.398 . S
C888 C889 1.391 . S
C889 H877 0.950 . S
C889 C885 1.393 . S
C889 C888 1.391 . S
C890 H880 0.950 . S
C890 C891 1.386 . S
C890 C892 1.391 . S
C891 C890 1.386 . S
C891 C895 1.393 . S
C892 H881 0.950 . S
C892 C890 1.391 . S
C892 C893 1.400 . S
C893 C887 1.491 . S
C893 C892 1.400 . S
C893 C894 1.398 . S
C894 H882 0.950 . S
C894 C893 1.398 . S
C894 C895 1.391 . S
C895 H883 0.950 . S
C895 C891 1.393 . S
C895 C894 1.391 . S
H896 C904 0.950 . S
H897 C909 0.950 . S
H898 C906 0.950 . S
H899 C908 0.950 . S
H900 C910 0.950 . S
H901 C912 0.950 . S
H902 C914 0.950 . S
H903 C915 0.950 . S
C904 H896 0.950 . S
C904 C905 1.386 . S
C904 C906 1.391 . S
C905 C904 1.386 . S
C905 C909 1.393 . S
C906 H898 0.950 . S
C906 C904 1.391 . S
C906 C907 1.400 . S
C907 C906 1.400 . S
C907 C908 1.398 . S
C907 C913 1.491 . S
C908 H899 0.950 . S
C908 C907 1.398 . S
C908 C909 1.391 . S
C909 H897 0.950 . S
C909 C905 1.393 . S
C909 C908 1.391 . S
C910 H900 0.950 . S
C910 C911 1.386 . S
C910 C912 1.391 . S
C911 C910 1.386 . S
C911 C915 1.393 . S
C912 H901 0.950 . S
C912 C910 1.391 . S
C912 C913 1.400 . S
C913 C907 1.491 . S
C913 C912 1.400 . S
C913 C914 1.398 . S
C914 H902 0.950 . S
C914 C913 1.398 . S
C914 C915 1.391 . S
C915 H903 0.950 . S
C915 C911 1.393 . S
C915 C914 1.391 . S
H916 C924 0.950 . S
H917 C929 0.950 . S
H918 C926 0.950 . S
H919 C928 0.950 . S
H920 C930 0.950 . S
H921 C932 0.950 . S
H922 C934 0.950 . S
H923 C935 0.950 . S
C924 H916 0.950 . S
C924 C925 1.386 . S
C924 C926 1.391 . S
C925 C924 1.386 . S
C925 C929 1.393 . S
C926 H918 0.950 . S
C926 C924 1.391 . S
C926 C927 1.400 . S
C927 C926 1.400 . S
C927 C928 1.398 . S
C927 C933 1.491 . S
C928 H919 0.950 . S
C928 C927 1.398 . S
C928 C929 1.391 . S
C929 H917 0.950 . S
C929 C925 1.393 . S
C929 C928 1.391 . S
C930 H920 0.950 . S
C930 C931 1.386 . S
C930 C932 1.391 . S
C931 C930 1.386 . S
C931 C935 1.393 . S
C932 H921 0.950 . S
C932 C930 1.391 . S
C932 C933 1.400 . S
C933 C927 1.491 . S
C933 C932 1.400 . S
C933 C934 1.398 . S
C934 H922 0.950 . S
C934 C933 1.398 . S
C934 C935 1.391 . S
C935 H923 0.950 . S
C935 C931 1.393 . S
C935 C934 1.391 . S
H936 C944 0.950 . S
H937 C949 0.950 . S
H938 C946 0.950 . S
H939 C948 0.950 . S
H940 C950 0.950 . S
H941 C952 0.950 . S
H942 C954 0.950 . S
H943 C955 0.950 . S
C944 H936 0.950 . S
C944 C945 1.386 . S
C944 C946 1.391 . S
C945 C944 1.386 . S
C945 C949 1.393 . S
C946 H938 0.950 . S
C946 C944 1.391 . S
C946 C947 1.400 . S
C947 C946 1.400 . S
C947 C948 1.398 . S
C947 C953 1.491 . S
C948 H939 0.950 . S
C948 C947 1.398 . S
C948 C949 1.391 . S
C949 H937 0.950 . S
C949 C945 1.393 . S
C949 C948 1.391 . S
C950 H940 0.950 . S
C950 C951 1.386 . S
C950 C952 1.391 . S
C951 C950 1.386 . S
C951 C955 1.393 . S
C952 H941 0.950 . S
C952 C950 1.391 . S
C952 C953 1.400 . S
C953 C947 1.491 . S
C953 C952 1.400 . S
C953 C954 1.398 . S
C954 H942 0.950 . S
C954 C953 1.398 . S
C954 C955 1.391 . S
C955 H943 0.950 . S
C955 C951 1.393 . S
C955 C954 1.391 . S
H956 C964 0.950 . S
H957 C969 0.950 . S
H958 C966 0.950 . S
H959 C968 0.950 . S
H960 C970 0.950 . S
H961 C972 0.950 1_556 S
H962 C974 0.950 . S
H963 C975 0.950 . S
C964 H956 0.950 . S
C964 C965 1.386 . S
C964 C966 1.391 . S
C965 C964 1.386 . S
C965 C969 1.393 . S
C966 H958 0.950 . S
C966 C964 1.391 . S
C966 C967 1.400 . S
C967 C966 1.400 . S
C967 C968 1.398 . S
C967 C973 1.491 . S
C968 H959 0.950 . S
C968 C967 1.398 . S
C968 C969 1.391 . S
C969 H957 0.950 . S
C969 C965 1.393 . S
C969 C968 1.391 . S
C970 H960 0.950 . S
C970 C971 1.386 . S
C970 C972 1.391 . S
C971 C970 1.386 . S
C971 C975 1.393 . S
C972 H961 0.950 1_554 S
C972 C970 1.391 . S
C972 C973 1.400 1_554 S
C973 C967 1.491 . S
C973 C972 1.400 1_556 S
C973 C974 1.398 1_556 S
C974 H962 0.950 . S
C974 C973 1.398 1_554 S
C974 C975 1.391 . S
C975 H963 0.950 . S
C975 C971 1.393 . S
C975 C974 1.391 . S
H976 C984 0.950 . S
H977 C989 0.950 . S
H978 C986 0.950 . S
H979 C988 0.950 . S
H980 C990 0.950 . S
H981 C992 0.950 . S
H982 C994 0.950 . S
H983 C995 0.950 . S
C984 H976 0.950 . S
C984 C985 1.386 . S
C984 C986 1.391 . S
C985 C984 1.386 . S
C985 C989 1.393 . S
C986 H978 0.950 . S
C986 C984 1.391 . S
C986 C987 1.400 . S
C987 C986 1.400 . S
C987 C988 1.398 . S
C987 C993 1.491 . S
C988 H979 0.950 . S
C988 C987 1.398 . S
C988 C989 1.391 . S
C989 H977 0.950 . S
C989 C985 1.393 . S
C989 C988 1.391 . S
C990 H980 0.950 . S
C990 C991 1.386 . S
C990 C992 1.391 1_556 S
C991 C990 1.386 . S
C991 C995 1.393 . S
C992 H981 0.950 . S
C992 C990 1.391 1_554 S
C992 C993 1.400 . S
C993 C987 1.491 . S
C993 C992 1.400 . S
C993 C994 1.398 . S
C994 H982 0.950 . S
C994 C993 1.398 . S
C994 C995 1.391 1_554 S
C995 H983 0.950 . S
C995 C991 1.393 . S
C995 C994 1.391 1_556 S
C405 C285 1.620 . S
C411 C21 1.619 . S
C425 C318 1.621 . S
C431 C54 1.616 . S
C445 C351 1.619 . S
C451 C87 1.615 . S
C465 C384 1.619 . S
C471 C120 1.615 . S
C485 C153 1.615 . S
C491 C219 1.619 . S
C505 C252 1.620 . S
C511 C186 1.618 . S
C525 C7 1.254 1_556 S
C531 C370 1.266 . S
C545 C205 1.254 . S
C551 C40 1.231 . S
C565 C73 1.264 . S
C571 C238 1.258 . S
C585 C106 1.259 . S
C591 C271 1.264 . S
C605 C304 1.234 . S
C611 C139 1.232 . S
C625 C172 1.259 . S
C631 C337 1.263 . S
C645 C18 1.355 . S
C651 C348 1.360 . S
C665 C51 1.367 . S
C671 C381 1.358 . S
C685 C216 1.366 . S
C691 C84 1.358 . S
C705 C249 1.375 . S
C711 C117 1.369 . S
C725 C150 1.355 . S
C731 C282 1.358 . S
C745 C315 1.373 . S
C751 C183 1.376 . S
C765 N13 1.002 . S
C771 N2 1.002 . S
C785 N35 0.994 . S
C791 N46 0.995 . S
C805 N79 1.006 . S
C811 N68 1.006 . S
C825 N112 1.003 . S
C831 N101 1.002 . S
C845 N134 1.009 . S
C851 N145 1.009 1_554 S
C865 N167 1.000 . S
C871 N178 1.000 . S
C885 N200 1.006 . S
C891 N211 1.007 . S
C905 N233 0.999 . S
C911 N244 0.999 . S
C925 N266 1.009 . S
C931 N277 1.009 . S
C945 N299 1.003 . S
C951 N310 1.004 1_556 S
C965 N332 0.994 . S
C971 N343 0.995 . S
C985 N376 0.995 . S
C991 N365 0.994 . S
