# Generated by pormake.
# Topology wji, (4)-cn, num edge types: 1
# Building blocks:
#     Node 0, Type 0, BuildingBlock: NAHDIM_clean_sbu_0, # of connection points: 4
#     Node 1, Type 0, BuildingBlock: NAHDIM_clean_sbu_0, # of connection points: 4
#     Node 2, Type 0, BuildingBlock: NAHDIM_clean_sbu_0, # of connection points: 4
#     Node 3, Type 0, BuildingBlock: NAHDIM_clean_sbu_0, # of connection points: 4
#     Node 4, Type 0, BuildingBlock: NAHDIM_clean_sbu_0, # of connection points: 4
#     Node 5, Type 0, BuildingBlock: NAHDIM_clean_sbu_0, # of connection points: 4
#     Node 6, Type 0, BuildingBlock: NAHDIM_clean_sbu_0, # of connection points: 4
#     Node 7, Type 0, BuildingBlock: NAHDIM_clean_sbu_0, # of connection points: 4
#     Node 8, Type 0, BuildingBlock: NAHDIM_clean_sbu_0, # of connection points: 4
#     Node 9, Type 0, BuildingBlock: NAHDIM_clean_sbu_0, # of connection points: 4
#     Node 10, Type 0, BuildingBlock: NAHDIM_clean_sbu_0, # of connection points: 4
#     Node 11, Type 0, BuildingBlock: NAHDIM_clean_sbu_0, # of connection points: 4
#     Edge 12, Type (0, 0), BuildingBlock: KIFKEQ_clean_linker_1, # of connection points: 2
#     Edge 13, Type (0, 0), BuildingBlock: KIFKEQ_clean_linker_1, # of connection points: 2
#     Edge 14, Type (0, 0), BuildingBlock: KIFKEQ_clean_linker_1, # of connection points: 2
#     Edge 15, Type (0, 0), BuildingBlock: KIFKEQ_clean_linker_1, # of connection points: 2
#     Edge 16, Type (0, 0), BuildingBlock: KIFKEQ_clean_linker_1, # of connection points: 2
#     Edge 17, Type (0, 0), BuildingBlock: KIFKEQ_clean_linker_1, # of connection points: 2
#     Edge 18, Type (0, 0), BuildingBlock: KIFKEQ_clean_linker_1, # of connection points: 2
#     Edge 19, Type (0, 0), BuildingBlock: KIFKEQ_clean_linker_1, # of connection points: 2
#     Edge 20, Type (0, 0), BuildingBlock: KIFKEQ_clean_linker_1, # of connection points: 2
#     Edge 21, Type (0, 0), BuildingBlock: KIFKEQ_clean_linker_1, # of connection points: 2
#     Edge 22, Type (0, 0), BuildingBlock: KIFKEQ_clean_linker_1, # of connection points: 2
#     Edge 23, Type (0, 0), BuildingBlock: KIFKEQ_clean_linker_1, # of connection points: 2
#     Edge 24, Type (0, 0), BuildingBlock: KIFKEQ_clean_linker_1, # of connection points: 2
#     Edge 25, Type (0, 0), BuildingBlock: KIFKEQ_clean_linker_1, # of connection points: 2
#     Edge 26, Type (0, 0), BuildingBlock: KIFKEQ_clean_linker_1, # of connection points: 2
#     Edge 27, Type (0, 0), BuildingBlock: KIFKEQ_clean_linker_1, # of connection points: 2
#     Edge 28, Type (0, 0), BuildingBlock: KIFKEQ_clean_linker_1, # of connection points: 2
#     Edge 29, Type (0, 0), BuildingBlock: KIFKEQ_clean_linker_1, # of connection points: 2
#     Edge 30, Type (0, 0), BuildingBlock: KIFKEQ_clean_linker_1, # of connection points: 2
#     Edge 31, Type (0, 0), BuildingBlock: KIFKEQ_clean_linker_1, # of connection points: 2
#     Edge 32, Type (0, 0), BuildingBlock: KIFKEQ_clean_linker_1, # of connection points: 2
#     Edge 33, Type (0, 0), BuildingBlock: KIFKEQ_clean_linker_1, # of connection points: 2
#     Edge 34, Type (0, 0), BuildingBlock: KIFKEQ_clean_linker_1, # of connection points: 2
#     Edge 35, Type (0, 0), BuildingBlock: KIFKEQ_clean_linker_1, # of connection points: 2
# Relax obj value: 0.154
# Max RMSD: 0.090
# Mean RMSD: 0.090
data_MOF--net-wji--node1-NAHDIM_clean_sbu_0--edge1-KIFKEQ_clean_linker_1
_symmetry_space_group_name_H-M    P1
_symmetry_Int_Tables_number       1
_symmetry_cell_setting            triclinic
loop_
_symmetry_equiv_pos_as_xyz
'x, y, z'
_cell_length_a     58.707629
_cell_length_b     58.702548
_cell_length_c     23.476566
_cell_angle_alpha  90.048808
_cell_angle_beta   90.039811
_cell_angle_gamma 119.94982
loop_
_atom_site_label
_atom_site_type_symbol
_atom_site_fract_x
_atom_site_fract_y
_atom_site_fract_z
_atom_type_partial_charge
C0 C 0.42306 0.28721 0.47944 0.0
O1 O 0.4333 0.30941 0.50799 0.0
O2 O 0.449 0.34936 0.40145 0.0
Zn3 Zn 0.41188 0.3191 0.41292 0.0
O4 O 0.39703 0.32689 0.48183 0.0
C5 C 0.38464 0.33569 0.34277 0.0
O6 O 0.39393 0.35372 0.38291 0.0
O7 O 0.41237 0.28585 0.43141 0.0
C8 C 0.37298 0.3168 0.4952 0.0
O9 O 0.35473 0.29958 0.46113 0.0
C10 C 0.46029 0.36665 0.44014 0.0
O11 O 0.44782 0.3644 0.48806 0.0
O12 O 0.38971 0.317 0.34517 0.0
C13 C 0.13427 0.43587 0.64674 0.0
O14 O 0.1254 0.45017 0.67064 0.0
O15 O 0.09239 0.4545 0.57041 0.0
Zn16 Zn 0.08665 0.41899 0.59258 0.0
O17 O 0.06879 0.41025 0.66862 0.0
C18 C 0.03978 0.37505 0.54526 0.0
O19 O 0.03117 0.37396 0.59734 0.0
O20 O 0.12126 0.42064 0.60587 0.0
C21 C 0.0694 0.39283 0.69961 0.0
O22 O 0.08091 0.38009 0.68027 0.0
C23 C 0.07207 0.45642 0.56151 0.0
O24 O 0.04878 0.43524 0.56541 0.0
O25 O 0.06344 0.39211 0.53336 0.0
C26 C 0.71196 0.13814 0.81033 0.0
O27 O 0.68949 0.12911 0.83728 0.0
O28 O 0.6488 0.10233 0.74327 0.0
Zn29 Zn 0.67791 0.09356 0.75106 0.0
O30 O 0.67145 0.07142 0.82061 0.0
C31 C 0.65351 0.05151 0.678 0.0
O32 O 0.63594 0.04709 0.71754 0.0
O33 O 0.71265 0.12634 0.76541 0.0
C34 C 0.67848 0.05427 0.82515 0.0
O35 O 0.69 0.04985 0.78201 0.0
C36 C 0.63153 0.09644 0.78182 0.0
O37 O 0.63329 0.08549 0.82913 0.0
O38 O 0.67601 0.0721 0.68197 0.0
C39 C 0.56879 0.70608 0.97342 0.0
O40 O 0.55494 0.68286 -0.00275 0.0
O41 O 0.53941 0.64698 0.88643 0.0
Zn42 Zn 0.5771 0.67309 0.904 0.0
O43 O 0.58655 0.65988 0.97313 0.0
C44 C 0.59595 0.67094 0.78955 0.0
O45 O 0.57369 0.66867 0.77172 0.0
O46 O 0.58077 0.70782 0.92703 0.0
C47 C 0.60919 0.67381 0.99491 0.0
O48 O 0.62599 0.69603 0.97025 0.0
C49 C 0.53351 0.6233 0.87764 0.0
O50 O 0.55243 0.61752 0.87618 0.0
O51 O 0.60154 0.67446 0.84226 0.0
C52 C 0.85794 0.55972 0.14865 0.0
O53 O 0.87115 0.55137 0.17894 0.0
O54 O 0.8966 0.53509 0.07878 0.0
Zn55 Zn 0.90099 0.57147 0.08186 0.0
O56 O 0.92414 0.59182 0.14736 0.0
C57 C 0.94203 0.59672 0.00378 0.0
O58 O 0.95318 0.59071 0.04515 0.0
O59 O 0.86633 0.56903 0.09924 0.0
C60 C 0.93598 0.61676 0.14945 0.0
O61 O 0.93442 0.63007 0.10614 0.0
C62 C 0.90712 0.52717 0.11524 0.0
O63 O 0.92104 0.54292 0.15696 0.0
O64 O 0.91799 0.59037 0.0088 0.0
C65 C 0.27865 0.8437 0.27067 0.0
O66 O 0.29807 0.83982 0.25644 0.0
O67 O 0.34423 0.88958 0.2311 0.0
Zn68 Zn 0.31524 0.89806 0.24175 0.0
O69 O 0.32385 0.9217 0.30955 0.0
C70 C 0.33353 0.94057 0.16704 0.0
O71 O 0.35173 0.94947 0.2068 0.0
O72 O 0.28095 0.86616 0.26258 0.0
C73 C 0.31426 0.93673 0.31564 0.0
O74 O 0.29914 0.93774 0.27561 0.0
C75 C 0.3573 0.88856 0.27322 0.0
O76 O 0.35095 0.89196 0.32492 0.0
O77 O 0.31402 0.91739 0.17175 0.0
C78 C 0.70913 0.57173 0.33313 0.0
O79 O 0.68786 0.56532 0.30321 0.0
O80 O 0.64723 0.54616 0.41541 0.0
Zn81 Zn 0.67873 0.58264 0.40639 0.0
O82 O 0.67181 0.60099 0.34292 0.0
C83 C 0.67296 0.59438 0.52397 0.0
O84 O 0.66272 0.56893 0.53112 0.0
O85 O 0.71063 0.5802 0.38373 0.0
C86 C 0.65392 0.60704 0.34687 0.0
O87 O 0.63971 0.60106 0.39349 0.0
C88 C 0.63063 0.53497 0.37547 0.0
O89 O 0.63405 0.54726 0.32678 0.0
O90 O 0.68293 0.60447 0.47607 0.0
C91 C 0.14111 0.71179 0.53575 0.0
O92 O 0.14109 0.68957 0.5425 0.0
O93 O 0.08976 0.64756 0.55834 0.0
Zn94 Zn 0.0859 0.67992 0.56193 0.0
O95 O 0.06307 0.67864 0.49711 0.0
C96 C 0.04551 0.65873 0.64132 0.0
O97 O 0.03614 0.64192 0.59883 0.0
O98 O 0.12047 0.71273 0.54757 0.0
C99 C 0.04521 0.68482 0.49843 0.0
O100 O 0.0398 0.69269 0.54633 0.0
C101 C 0.07891 0.63034 0.5194 0.0
O102 O 0.06534 0.6339 0.47943 0.0
O103 O 0.06832 0.67882 0.63652 0.0
C104 C 0.42089 0.1311 0.66389 0.0
O105 O 0.42942 0.11778 0.63462 0.0
O106 O 0.44917 0.09757 0.74332 0.0
Zn107 Zn 0.41185 0.09004 0.73477 0.0
O108 O 0.39456 0.06545 0.66897 0.0
C109 C 0.38956 0.04962 0.81366 0.0
O110 O 0.3992 0.04061 0.77488 0.0
O111 O 0.41205 0.1234 0.71392 0.0
C112 C 0.37018 0.04877 0.66621 0.0
O113 O 0.35474 0.04615 0.70917 0.0
C114 C 0.46038 0.09096 0.70575 0.0
O115 O 0.44751 0.07919 0.65907 0.0
O116 O 0.39235 0.07238 0.80691 0.0
C117 C 0.28117 0.42275 0.83766 0.0
O118 O 0.30157 0.4268 0.80706 0.0
O119 O 0.34478 0.45065 0.92224 0.0
Zn120 Zn 0.31237 0.41477 0.91536 0.0
O121 O 0.31862 0.39461 0.8534 0.0
C122 C 0.32689 0.38975 0.99431 0.0
O123 O 0.34482 0.39733 0.95424 0.0
O124 O 0.28074 0.41742 0.89039 0.0
C125 C 0.33939 0.40532 0.82343 0.0
O126 O 0.35727 0.42991 0.83321 0.0
C127 C 0.34753 0.47254 0.90596 0.0
O128 O 0.32724 0.47351 0.88536 0.0
O129 O 0.30856 0.39522 0.98894 0.0
C130 C 0.87404 0.2775 0.01067 0.0
O131 O 0.89358 0.29571 0.98096 0.0
O132 O 0.90169 0.34051 0.10878 0.0
Zn133 Zn 0.90747 0.30955 0.09967 0.0
O134 O 0.93765 0.31993 0.04665 0.0
C135 C 0.91317 0.30841 0.22166 0.0
O136 O 0.89666 0.31738 0.22201 0.0
O137 O 0.87525 0.2787 0.06486 0.0
C138 C 0.95888 0.34176 0.0508 0.0
O139 O 0.96155 0.35811 0.09194 0.0
C140 C 0.90319 0.35457 0.06621 0.0
O141 O 0.90783 0.34828 0.01555 0.0
O142 O 0.91889 0.30189 0.17451 0.0
C143 C 0.57434 0.86143 0.16995 0.0
O144 O 0.56568 0.87472 0.14101 0.0
O145 O 0.54163 0.89069 0.24592 0.0
Zn146 Zn 0.57992 0.90048 0.24267 0.0
O147 O 0.59793 0.92629 0.17944 0.0
C148 C 0.59223 0.93634 0.32944 0.0
O149 O 0.57772 0.94113 0.2942 0.0
O150 O 0.58202 0.86832 0.22105 0.0
C151 C 0.62074 0.94641 0.1816 0.0
O152 O 0.63428 0.95239 0.22922 0.0
C153 C 0.53146 0.89882 0.20907 0.0
O154 O 0.54594 0.91336 0.16657 0.0
O155 O 0.59699 0.918 0.31723 0.0
H156 H 0.30184 0.38139 0.09764 0.0
H157 H 0.35763 0.36766 0.0058 0.0
H158 H 0.3102 0.36315 0.18388 0.0
H159 H 0.36613 0.34992 0.09125 0.0
H160 H 0.36791 0.37115 0.33139 0.0
H161 H 0.34846 0.37927 0.24798 0.0
H162 H 0.34833 0.31431 0.16107 0.0
H163 H 0.36828 0.30638 0.24461 0.0
C164 C 0.31557 0.37418 0.09566 0.0
C165 C 0.32929 0.37624 0.04516 0.0
C166 C 0.32044 0.36384 0.145 0.0
C167 C 0.33889 0.35516 0.14442 0.0
C168 C 0.35158 0.35611 0.09309 0.0
C169 C 0.34688 0.36656 0.04416 0.0
C170 C 0.36348 0.35838 0.29477 0.0
C171 C 0.37002 0.33837 0.2943 0.0
C172 C 0.35206 0.36289 0.24711 0.0
C173 C 0.34697 0.34753 0.19778 0.0
C174 C 0.35232 0.32667 0.19826 0.0
C175 C 0.36368 0.32209 0.24612 0.0
H176 H 0.04928 0.37536 0.43086 0.0
H177 H 0.98772 0.33884 0.5568 0.0
H178 H 0.01691 0.35367 0.35536 0.0
H179 H 0.95549 0.317 0.48132 0.0
H180 H 0.90701 0.32254 0.32898 0.0
H181 H 0.9371 0.33372 0.40913 0.0
H182 H 0.98499 0.31118 0.31127 0.0
H183 H 0.95501 0.30019 0.2307 0.0
C184 C 0.02895 0.36234 0.44251 0.0
C185 C 0.02106 0.3591 0.49982 0.0
C186 C 0.0104 0.34979 0.39924 0.0
C187 C 0.9836 0.33379 0.4124 0.0
C188 C 0.97594 0.32951 0.46983 0.0
C189 C 0.99446 0.34197 0.51306 0.0
C190 C 0.92367 0.31949 0.32485 0.0
C191 C 0.92873 0.31073 0.27323 0.0
C192 C 0.94088 0.3258 0.37092 0.0
C193 C 0.96357 0.32356 0.36633 0.0
C194 C 0.96787 0.31346 0.31577 0.0
C195 C 0.95058 0.307 0.26978 0.0
H196 H 0.63257 0.94203 0.39894 0.0
H197 H 0.57518 0.96701 0.37784 0.0
H198 H 0.64935 0.96957 0.48489 0.0
H199 H 0.59166 0.99397 0.46307 0.0
H200 H 0.60502 0.01096 0.65229 0.0
H201 H 0.59172 0.98227 0.56952 0.0
H202 H 0.67187 0.02146 0.50955 0.0
H203 H 0.68545 0.05071 0.59296 0.0
C204 C 0.62351 0.95327 0.41272 0.0
C205 C 0.60251 0.9523 0.38181 0.0
C206 C 0.6332 0.96911 0.46151 0.0
C207 C 0.62168 0.98374 0.48054 0.0
C208 C 0.60073 0.98269 0.44957 0.0
C209 C 0.59137 0.9673 0.40065 0.0
C210 C 0.61995 0.01347 0.62184 0.0
C211 C 0.64628 0.0333 0.62898 0.0
C212 C 0.61227 -0.00298 0.57438 0.0
C213 C 0.63075 -0.00022 0.53314 0.0
C214 C 0.65729 0.01891 0.541 0.0
C215 C 0.66499 0.0357 0.58844 0.0
H216 H 0.65729 0.58156 0.6346 0.0
H217 H 0.67698 0.64245 0.50916 0.0
H218 H 0.64281 0.60428 0.69973 0.0
H219 H 0.66229 0.66496 0.57424 0.0
H220 H 0.59286 0.6666 0.67331 0.0
H221 H 0.61629 0.65183 0.61102 0.0
H222 H 0.65911 0.64701 0.75567 0.0
H223 H 0.63593 0.66194 0.818 0.0
C224 C 0.65896 0.60001 0.62131 0.0
C225 C 0.66818 0.61012 0.56665 0.0
C226 C 0.65075 0.61305 0.65866 0.0
C227 C 0.65127 0.63628 0.64181 0.0
C228 C 0.66147 0.64697 0.58808 0.0
C229 C 0.67005 0.63414 0.55104 0.0
C230 C 0.60757 0.6628 0.6917 0.0
C231 C 0.6124 0.66531 0.75063 0.0
C232 C 0.62106 0.65445 0.656 0.0
C233 C 0.63941 0.64815 0.67863 0.0
C234 C 0.64491 0.65153 0.73721 0.0
C235 C 0.6317 0.66021 0.77278 0.0
H236 H 0.06121 0.68419 0.74424 0.0
H237 H 0.99436 0.62136 0.65748 0.0
H238 H 0.03585 0.67281 0.8327 0.0
H239 H 0.96929 0.60991 0.74553 0.0
H240 H 0.92401 0.6064 0.90401 0.0
H241 H 0.94893 0.62524 0.81645 0.0
H242 H 0.01911 0.63509 0.89879 0.0
H243 H 0.99444 0.61662 0.98611 0.0
C244 C 0.04107 0.66814 0.74391 0.0
C245 C 0.02987 0.65354 0.694 0.0
C246 C 0.02659 0.66156 0.79456 0.0
C247 C 0.00059 0.64041 0.79611 0.0
C248 C 0.98916 0.62648 0.74565 0.0
C249 C 0.00364 0.63292 0.69526 0.0
C250 C 0.94481 0.61284 0.90353 0.0
C251 C 0.95719 0.6098 0.95183 0.0
C252 C 0.95905 0.62354 0.85337 0.0
C253 C 0.98597 0.63158 0.85068 0.0
C254 C -0.00151 0.62937 0.89964 0.0
C255 C 0.98426 0.61856 0.94957 0.0
H256 H 0.37708 0.0651 0.91364 0.0
H257 H 0.37227 -0.0024 0.82823 0.0
H258 H 0.35878 0.03873 -8e-05 0.0
H259 H 0.3542 0.97148 0.91397 0.0
H260 H 0.30664 0.92552 0.06576 0.0
H261 H 0.31566 0.95217 0.97968 0.0
H262 H 0.3769 0.01928 0.06877 0.0
H263 H 0.36788 0.99286 0.15448 0.0
C264 C 0.37184 0.0446 0.91306 0.0
C265 C 0.37637 0.0335 0.86439 0.0
C266 C 0.36145 0.02955 0.96243 0.0
C267 C 0.3551 0.00305 0.96368 0.0
C268 C 0.35861 0.99173 0.91417 0.0
C269 C 0.36921 0.0068 0.86519 0.0
C270 C 0.32176 0.94606 0.06712 0.0
C271 C 0.33675 0.95701 0.11667 0.0
C272 C 0.32697 0.96127 0.01785 0.0
C273 C 0.34706 0.98777 0.01746 0.0
C274 C 0.36114 -0.001 0.06786 0.0
C275 C 0.35611 0.98377 0.11684 0.0
H276 H 0.61714 0.50398 0.4706 0.0
H277 H 0.59099 0.50677 0.29991 0.0
H278 H 0.57743 0.46168 0.48578 0.0
H279 H 0.55112 0.46485 0.31555 0.0
H280 H 0.49152 0.3788 0.34538 0.0
H281 H 0.53423 0.41805 0.32962 0.0
H282 H 0.53096 0.44607 0.49798 0.0
H283 H 0.48875 0.40678 0.51418 0.0
C284 C 0.60296 0.49556 0.43629 0.0
C285 C 0.60716 0.50881 0.38415 0.0
C286 C 0.58016 0.47138 0.44507 0.0
C287 C 0.56107 0.45994 0.40194 0.0
C288 C 0.56557 0.47295 0.3494 0.0
C289 C 0.58836 0.49709 0.3406 0.0
C290 C 0.50004 0.39326 0.37914 0.0
C291 C 0.48669 0.38971 0.43094 0.0
C292 C 0.52443 0.4158 0.37001 0.0
C293 C 0.53597 0.43521 0.41251 0.0
C294 C 0.52282 0.43135 0.46465 0.0
C295 C 0.49849 0.40887 0.47377 0.0
H296 H 0.03266 0.46648 0.53565 0.0
H297 H 0.11668 0.50482 0.56199 0.0
H298 H 0.03591 0.50911 0.52204 0.0
H299 H 0.11991 0.54756 0.54769 0.0
H300 H 0.10654 0.61724 0.5935 0.0
H301 H 0.10609 0.57552 0.59961 0.0
H302 H 0.05373 0.5463 0.45483 0.0
H303 H 0.05389 0.58782 0.44899 0.0
C304 C 0.05186 0.48399 0.53807 0.0
C305 C 0.0744 0.48226 0.55006 0.0
C306 C 0.05373 0.50842 0.52994 0.0
C307 C 0.07816 0.53168 0.53381 0.0
C308 C 0.10078 0.52997 0.54502 0.0
C309 C 0.09893 0.50549 0.55288 0.0
C310 C 0.09506 0.60197 0.56275 0.0
C311 C 0.08012 0.60579 0.52098 0.0
C312 C 0.09494 0.57814 0.56605 0.0
C313 C 0.07978 0.5576 0.52784 0.0
C314 C 0.06533 0.56165 0.48531 0.0
C315 C 0.06555 0.5855 0.48183 0.0
H316 H 0.48976 0.07914 0.6344 0.0
H317 H 0.49155 0.11256 0.79964 0.0
H318 H 0.53263 0.08366 0.65312 0.0
H319 H 0.53468 0.11747 0.81789 0.0
H320 H 0.59163 0.08613 0.85557 0.0
H321 H 0.5517 0.08771 0.83645 0.0
H322 H 0.57929 0.11601 0.66635 0.0
H323 H 0.61915 0.11402 0.6851 0.0
C324 C 0.4994 0.0877 0.67449 0.0
C325 C 0.48715 0.09532 0.71568 0.0
C326 C 0.52407 0.09046 0.68504 0.0
C327 C 0.53703 0.10087 0.73704 0.0
C328 C 0.52505 0.10908 0.7777 0.0
C329 C 0.50039 0.10636 0.76711 0.0
C330 C 0.58932 0.09291 0.81423 0.0
C331 C 0.6085 0.09978 0.77173 0.0
C332 C 0.56648 0.09397 0.80341 0.0
C333 C 0.56228 0.10188 0.74981 0.0
C334 C 0.58181 0.1095 0.70783 0.0
C335 C 0.60471 0.1085 0.7187 0.0
H336 H 0.48961 0.62745 0.8954 0.0
H337 H 0.51448 0.57118 0.85671 0.0
H338 H 0.4442 0.59173 0.90279 0.0
H339 H 0.46911 0.53563 0.86284 0.0
H340 H 0.39299 0.47711 0.94764 0.0
H341 H 0.43733 0.51417 0.93818 0.0
H342 H 0.40704 0.55784 0.84903 0.0
H343 H 0.36241 0.52082 0.85958 0.0
C344 C 0.48535 0.60751 0.88766 0.0
C345 C 0.50568 0.60213 0.87592 0.0
C346 C 0.45931 0.58705 0.89177 0.0
C347 C 0.45308 0.56081 0.88413 0.0
C348 C 0.47332 0.55558 0.87024 0.0
C349 C 0.49932 0.57599 0.86628 0.0
C350 C 0.39571 0.49467 0.92638 0.0
C351 C 0.37415 0.49597 0.90419 0.0
C352 C 0.42118 0.51584 0.92051 0.0
C353 C 0.42577 0.53882 0.89214 0.0
C354 C 0.40416 0.54045 0.87132 0.0
C355 C 0.37859 0.51922 0.8773 0.0
H356 H 0.90685 0.38931 0.98452 0.0
H357 H 0.89549 0.37433 0.16544 0.0
H358 H 0.90624 0.43014 -0.00238 0.0
H359 H 0.89438 0.41501 0.17834 0.0
H360 H 0.92778 0.50472 0.1847 0.0
H361 H 0.92507 0.46218 0.17341 0.0
H362 H 0.87735 0.44722 0.02267 0.0
H363 H 0.88046 0.49001 0.03329 0.0
C364 C 0.90397 0.39459 0.02704 0.0
C365 C 0.90131 0.37859 0.07396 0.0
C366 C 0.90347 0.41794 0.03449 0.0
C367 C 0.9003 0.42585 0.08903 0.0
C368 C 0.8972 0.40963 0.13586 0.0
C369 C 0.89768 0.38625 0.12841 0.0
C370 C 0.91662 0.49233 0.14925 0.0
C371 C 0.90444 0.50082 0.10975 0.0
C372 C 0.91492 0.46786 0.143 0.0
C373 C 0.90102 0.45132 0.0971 0.0
C374 C 0.8885 0.45964 0.05808 0.0
C375 C 0.89018 0.48412 0.06434 0.0
H376 H 0.37489 0.87973 0.1724 0.0
H377 H 0.39265 0.89109 0.35238 0.0
H378 H 0.41527 0.87861 0.15561 0.0
H379 H 0.43333 0.89062 0.33538 0.0
H380 H 0.49621 0.87017 0.29272 0.0
H381 H 0.45231 0.86399 0.30711 0.0
H382 H 0.46167 0.91023 0.15666 0.0
H383 H 0.50514 0.91586 0.14152 0.0
C384 C 0.38735 0.88187 0.20843 0.0
C385 C 0.38065 0.88569 0.26368 0.0
C386 C 0.41056 0.88136 0.19875 0.0
C387 C 0.42765 0.88474 0.24406 0.0
C388 C 0.4205 0.88768 0.29958 0.0
C389 C 0.39723 0.8881 0.30929 0.0
C390 C 0.48878 0.87881 0.26243 0.0
C391 C 0.50422 0.8936 0.21609 0.0
C392 C 0.46368 0.87538 0.27087 0.0
C393 C 0.4535 0.88668 0.23316 0.0
C394 C 0.46873 0.90094 0.1861 0.0
C395 C 0.49377 0.90432 0.17762 0.0
H396 H 0.30624 0.3544 0.79056 0.0
H397 H 0.38118 0.42291 0.75182 0.0
H398 H 0.31306 0.33025 0.71383 0.0
H399 H 0.38767 0.39903 0.67501 0.0
H400 H 0.4055 0.34344 0.58294 0.0
H401 H 0.39615 0.36258 0.665 0.0
H402 H 0.3159 0.33051 0.60785 0.0
H403 H 0.32516 0.31073 0.52561 0.0
C404 C 0.32412 0.3643 0.76569 0.0
C405 C 0.34324 0.39052 0.77734 0.0
C406 C 0.32793 0.35051 0.72166 0.0
C407 C 0.35096 0.36271 0.68878 0.0
C408 C 0.36994 0.38895 0.70034 0.0
C409 C 0.36615 0.40269 0.74416 0.0
C410 C 0.38579 0.34028 0.58796 0.0
C411 C 0.36613 0.32591 0.54746 0.0
C412 C 0.38048 0.35133 0.63489 0.0
C413 C 0.35544 0.34841 0.64225 0.0
C414 C 0.33537 0.33301 0.60324 0.0
C415 C 0.34067 0.32177 0.55616 0.0
H416 H 0.00141 0.39045 0.0316 0.0
H417 H 0.96179 0.31048 0.96889 0.0
H418 H 0.03181 0.40383 0.95114 0.0
H419 H 0.99197 0.3239 0.88871 0.0
H420 H 0.06198 0.35303 0.77116 0.0
H421 H 0.039 0.34151 0.86241 0.0
H422 H 0.02521 0.40694 0.84653 0.0
H423 H 0.04828 0.41861 0.75569 0.0
C424 C -0.00059 0.37569 0.00114 0.0
C425 C 0.97909 0.34948 0.00624 0.0
C426 C 0.01671 0.38337 0.95503 0.0
C427 C 0.01413 0.36491 0.91365 0.0
C428 C 0.99457 0.3385 0.92024 0.0
C429 C 0.97718 0.33087 0.96597 0.0
C430 C 0.05422 0.36507 0.78737 0.0
C431 C 0.05672 0.38658 0.75604 0.0
C432 C 0.04106 0.35845 0.83951 0.0
C433 C 0.03034 0.37333 0.86143 0.0
C434 C 0.03355 0.39531 0.83095 0.0
C435 C 0.04655 0.40183 0.77869 0.0
H436 H 0.66168 -0.00307 0.17454 0.0
H437 H 0.60494 0.93201 0.07219 0.0
H438 H 0.67872 0.02378 0.08839 0.0
H439 H 0.62216 0.9587 0.9866 0.0
H440 H 0.67715 0.00755 0.84136 0.0
H441 H 0.66588 0.98166 0.92912 0.0
H442 H 0.65714 0.04152 0.01682 0.0
H443 H 0.66807 0.06726 0.92931 0.0
C444 C 0.65302 0.98836 0.1337 0.0
C445 C 0.6319 0.96248 0.13003 0.0
C446 C 0.66272 0.0037 0.08461 0.0
C447 C 0.65175 0.9932 0.03111 0.0
C448 C 0.6311 0.96713 0.02734 0.0
C449 C 0.62114 0.95197 0.07637 0.0
C450 C 0.67303 0.01525 0.87951 0.0
C451 C 0.67328 0.03929 0.87849 0.0
C452 C 0.66655 0.00044 0.92953 0.0
C453 C 0.6607 0.00968 0.97948 0.0
C454 C 0.66181 0.03411 0.97893 0.0
C455 C 0.66786 0.0487 0.92878 0.0
H456 H 0.57698 0.6324 0.06262 0.0
H457 H 0.65705 0.69635 0.04767 0.0
H458 H 0.58844 0.61826 0.15025 0.0
H459 H 0.66842 0.6822 0.13574 0.0
H460 H 0.6824 0.62552 0.24926 0.0
H461 H 0.6719 0.64323 0.16595 0.0
H462 H 0.60241 0.63394 0.25032 0.0
H463 H 0.61276 0.61598 0.33387 0.0
C464 C 0.59701 0.64348 0.0781 0.0
C465 C 0.61616 0.66542 0.04813 0.0
C466 C 0.6035 0.63549 0.12851 0.0
C467 C 0.62928 0.64919 0.14976 0.0
C468 C 0.64842 0.6712 0.12 0.0
C469 C 0.6419 0.67931 0.06973 0.0
C470 C 0.66495 0.62739 0.25026 0.0
C471 C 0.64831 0.61923 0.298 0.0
C472 C 0.65906 0.63768 0.20266 0.0
C473 C 0.63633 0.63988 0.20172 0.0
C474 C 0.61993 0.63219 0.24981 0.0
C475 C 0.62592 0.62205 0.29766 0.0
H476 H 0.0606 0.68683 0.3888 0.0
H477 H 0.99423 0.67367 0.49206 0.0
H478 H 0.03307 0.67463 0.30363 0.0
H479 H 0.9665 0.66088 0.40655 0.0
H480 H 0.92848 0.59715 0.25672 0.0
H481 H 0.95427 0.61878 0.34168 0.0
H482 H 0.00318 0.68857 0.24342 0.0
H483 H 0.97694 0.66711 0.15813 0.0
C484 C 0.04021 0.6817 0.39308 0.0
C485 C 0.02942 0.68097 0.44689 0.0
C486 C 0.02456 0.67491 0.34438 0.0
C487 C -0.00224 0.66681 0.34885 0.0
C488 C 0.98716 0.66708 0.40231 0.0
C489 C 0.00299 0.67443 0.451 0.0
C490 C 0.94459 0.6172 0.25334 0.0
C491 C 0.9509 0.63044 0.20089 0.0
C492 C 0.95913 0.62962 0.302 0.0
C493 C 0.98053 0.65531 0.29886 0.0
C494 C 0.98665 0.66876 0.24668 0.0
C495 C 0.97171 0.6565 0.19811 0.0
H496 H 0.32748 0.92669 0.41977 0.0
H497 H 0.31402 0.98279 0.32838 0.0
H498 H 0.33817 0.95376 0.50569 0.0
H499 H 0.32547 0.0102 0.41427 0.0
H500 H 0.38955 0.06119 0.55881 0.0
H501 H 0.37314 0.03372 0.4735 0.0
H502 H 0.31107 0.97206 0.57232 0.0
H503 H 0.327 -0.00016 0.65778 0.0
C504 C 0.32681 0.94479 0.41813 0.0
C505 C 0.32004 0.95276 0.36753 0.0
C506 C 0.33273 0.9601 0.46725 0.0
C507 C 0.33251 0.98387 0.46617 0.0
C508 C 0.32567 0.99185 0.41578 0.0
C509 C 0.31913 0.97622 0.36692 0.0
C510 C 0.37228 0.04185 0.56222 0.0
C511 C 0.35954 0.03252 0.61475 0.0
C512 C 0.36286 0.02628 0.51348 0.0
C513 C 0.34092 0.00095 0.51678 0.0
C514 C 0.32803 0.99162 0.5691 0.0
C515 C 0.33709 0.00746 0.6177 0.0
H516 H 0.40423 0.23802 0.43332 0.0
H517 H 0.441 0.28409 0.58436 0.0
H518 H 0.40276 0.19977 0.47853 0.0
H519 H 0.43972 0.24612 0.62894 0.0
H520 H 0.40722 0.16514 0.71241 0.0
H521 H 0.40694 0.20247 0.66687 0.0
H522 H 0.43421 0.18574 0.51002 0.0
H523 H 0.43428 0.14848 0.55499 0.0
C524 C 0.41208 0.24002 0.47595 0.0
C525 C 0.42275 0.26408 0.50517 0.0
C526 C 0.41129 0.21817 0.50179 0.0
C527 C 0.42102 0.21995 0.55739 0.0
C528 C 0.43172 0.24403 0.58642 0.0
C529 C 0.43263 0.26585 0.56058 0.0
C530 C 0.41314 0.16945 0.66824 0.0
C531 C 0.42083 0.15391 0.6374 0.0
C532 C 0.41306 0.19085 0.64223 0.0
C533 C 0.42051 0.19697 0.58484 0.0
C534 C 0.42805 0.18132 0.55404 0.0
C535 C 0.42827 0.16008 0.58005 0.0
H536 H 0.27525 0.42863 0.72476 0.0
H537 H 0.23807 0.42097 0.888 0.0
H538 H 0.24017 0.43212 0.67807 0.0
H539 H 0.20264 0.42429 0.84074 0.0
H540 H 0.16195 0.46173 0.74157 0.0
H541 H 0.19711 0.45819 0.78815 0.0
H542 H 0.1926 0.4042 0.6576 0.0
H543 H 0.15742 0.40783 0.61053 0.0
C544 C 0.25955 0.42764 0.75076 0.0
C545 C 0.25946 0.42457 0.81019 0.0
C546 C 0.23936 0.42948 0.72383 0.0
C547 C 0.21866 0.42844 0.75569 0.0
C548 C 0.21851 0.42538 0.81517 0.0
C549 C 0.23869 0.42336 0.84218 0.0
C550 C 0.16854 0.44923 0.72248 0.0
C551 C 0.15691 0.43508 0.67223 0.0
C552 C 0.18853 0.44703 0.74954 0.0
C553 C 0.19747 0.43079 0.72677 0.0
C554 C 0.1862 0.417 0.67595 0.0
C555 C 0.16606 0.41907 0.64902 0.0
H556 H 0.86615 0.27069 0.89603 0.0
H557 H 0.82928 0.23708 0.05737 0.0
H558 H 0.82738 0.23759 0.84596 0.0
H559 H 0.79059 0.20354 0.00701 0.0
H560 H 0.71537 0.16775 0.90251 0.0
H561 H 0.75478 0.20108 0.95006 0.0
H562 H 0.8028 0.19058 0.82514 0.0
H563 H 0.76313 0.15736 0.77666 0.0
C564 C 0.84984 0.25612 0.92088 0.0
C565 C 0.85076 0.25659 0.98077 0.0
C566 C 0.82766 0.23704 0.89206 0.0
C567 C 0.80587 0.21799 0.92244 0.0
C568 C 0.80693 0.21822 0.98237 0.0
C569 C 0.82914 0.23732 0.01124 0.0
C570 C 0.73431 0.17262 0.88485 0.0
C571 C 0.73612 0.15985 0.83583 0.0
C572 C 0.75692 0.19159 0.91248 0.0
C573 C 0.78192 0.19826 0.89183 0.0
C574 C 0.78379 0.18597 0.84195 0.0
C575 C 0.7611 0.16694 0.81419 0.0
H576 H 0.56522 0.84732 0.05841 0.0
H577 H 0.58595 0.82576 0.21815 0.0
H578 H 0.56575 0.8107 0.01153 0.0
H579 H 0.58667 0.78896 0.17063 0.0
H580 H 0.55013 0.7084 0.07807 0.0
H581 H 0.55357 0.74667 0.12634 0.0
H582 H 0.59656 0.79538 0.98323 0.0
H583 H 0.59296 0.75689 0.93437 0.0
C584 C 0.57 0.83481 0.08357 0.0
C585 C 0.57541 0.83937 0.14216 0.0
C586 C 0.57051 0.81394 0.05647 0.0
C587 C 0.57631 0.797 0.08732 0.0
C588 C 0.58195 0.80162 0.14587 0.0
C589 C 0.58162 0.8227 0.17302 0.0
C590 C 0.56035 0.72725 0.05676 0.0
C591 C 0.57114 0.72958 0.00216 0.0
C592 C 0.56251 0.74922 0.08475 0.0
C593 C 0.57538 0.77402 0.05868 0.0
C594 C 0.58634 0.77644 0.00419 0.0
C595 C 0.58433 0.75444 0.97626 0.0
H596 H 0.75633 0.583 0.38107 0.0
H597 H 0.71111 0.55562 0.22549 0.0
H598 H 0.79221 0.57995 0.33565 0.0
H599 H 0.74662 0.55227 0.18075 0.0
H600 H 0.82729 0.57782 0.10113 0.0
H601 H 0.79155 0.581 0.14653 0.0
H602 H 0.80164 0.54613 0.29952 0.0
H603 H 0.83747 0.54325 0.25466 0.0
C604 C 0.75401 0.57626 0.33737 0.0
C605 C 0.73089 0.56958 0.30694 0.0
C606 C 0.77448 0.5744 0.31142 0.0
C607 C 0.77225 0.56593 0.25454 0.0
C608 C 0.7491 0.55922 0.22431 0.0
C609 C 0.72867 0.56099 0.2502 0.0
C610 C 0.82177 0.57071 0.14432 0.0
C611 C 0.83522 0.56029 0.17424 0.0
C612 C 0.80128 0.57248 0.1703 0.0
C613 C 0.79387 0.56392 0.22673 0.0
C614 C 0.80715 0.55326 0.25634 0.0
C615 C 0.82755 0.55142 0.23037 0.0
H616 H 0.19016 0.71948 0.51371 0.0
H617 H 0.14003 0.75253 0.48245 0.0
H618 H 0.22305 0.75171 0.44952 0.0
H619 H 0.17214 0.7838 0.41632 0.0
H620 H 0.24507 0.85153 0.33712 0.0
H621 H 0.21322 0.82124 0.40504 0.0
H622 H 0.23046 0.76093 0.35153 0.0
H623 H 0.26338 0.79184 0.28546 0.0
C624 C 0.18625 0.73374 0.49339 0.0
C625 C 0.16252 0.73346 0.50322 0.0
C626 C 0.20494 0.75202 0.45598 0.0
C627 C 0.20017 0.77019 0.4269 0.0
C628 C 0.17673 0.77037 0.43826 0.0
C629 C 0.15824 0.75236 0.47628 0.0
C630 C 0.24186 0.8317 0.33935 0.0
C631 C 0.25677 0.82407 0.30588 0.0
C632 C 0.22352 0.81427 0.37838 0.0
C633 C 0.21932 0.7886 0.38432 0.0
C634 C 0.2336 0.78071 0.34926 0.0
C635 C 0.25225 0.79831 0.31079 0.0
loop_
_geom_bond_atom_site_label_1
_geom_bond_atom_site_label_2
_geom_bond_distance
_geom_bond_site_symmetry_2
_ccdc_geom_bond_type
C0 O1 1.160 . S
C0 O7 1.185 . S
O1 C0 1.160 . S
O2 Zn3 1.899 . S
O2 C10 1.284 . S
Zn3 O2 1.899 . S
Zn3 O4 2.032 . S
Zn3 O7 2.086 . S
Zn3 O12 1.977 . S
O4 Zn3 2.032 . S
O4 C8 1.278 . S
C5 O6 1.203 . S
C5 O12 1.267 . S
O6 C5 1.203 . S
O7 C0 1.185 . S
O7 Zn3 2.086 . S
C8 O4 1.278 . S
C8 O9 1.211 . S
O9 C8 1.211 . S
C10 O2 1.284 . S
C10 O11 1.273 . S
O11 C10 1.273 . S
O12 Zn3 1.977 . S
O12 C5 1.267 . S
C13 O14 1.160 . S
C13 O20 1.185 . S
O14 C13 1.160 . S
O15 Zn16 1.899 . S
O15 C23 1.284 . S
Zn16 O15 1.899 . S
Zn16 O17 2.032 . S
Zn16 O20 2.086 . S
Zn16 O25 1.977 . S
O17 Zn16 2.032 . S
O17 C21 1.278 . S
C18 O19 1.203 . S
C18 O25 1.267 . S
O19 C18 1.203 . S
O20 C13 1.185 . S
O20 Zn16 2.086 . S
C21 O17 1.278 . S
C21 O22 1.211 . S
O22 C21 1.211 . S
C23 O15 1.284 . S
C23 O24 1.273 . S
O24 C23 1.273 . S
O25 Zn16 1.977 . S
O25 C18 1.267 . S
C26 O27 1.160 . S
C26 O33 1.185 . S
O27 C26 1.160 . S
O28 Zn29 1.899 . S
O28 C36 1.284 . S
Zn29 O28 1.899 . S
Zn29 O30 2.032 . S
Zn29 O33 2.086 . S
Zn29 O38 1.977 . S
O30 Zn29 2.032 . S
O30 C34 1.278 . S
C31 O32 1.203 . S
C31 O38 1.267 . S
O32 C31 1.203 . S
O33 C26 1.185 . S
O33 Zn29 2.086 . S
C34 O30 1.278 . S
C34 O35 1.211 . S
O35 C34 1.211 . S
C36 O28 1.284 . S
C36 O37 1.273 . S
O37 C36 1.273 . S
O38 Zn29 1.977 . S
O38 C31 1.267 . S
C39 O40 1.160 . S
C39 O46 1.185 . S
O40 C39 1.160 . S
O41 Zn42 1.899 . S
O41 C49 1.284 . S
Zn42 O41 1.899 . S
Zn42 O43 2.032 1_556 S
Zn42 O46 2.086 . S
Zn42 O51 1.977 . S
O43 Zn42 2.032 1_554 S
O43 C47 1.278 . S
C44 O45 1.203 . S
C44 O51 1.267 . S
O45 C44 1.203 . S
O46 C39 1.185 . S
O46 Zn42 2.086 . S
C47 O43 1.278 . S
C47 O48 1.211 1_554 S
O48 C47 1.211 1_556 S
C49 O41 1.284 . S
C49 O50 1.273 . S
O50 C49 1.273 . S
O51 Zn42 1.977 . S
O51 C44 1.267 . S
C52 O53 1.160 . S
C52 O59 1.185 . S
O53 C52 1.160 . S
O54 Zn55 1.899 . S
O54 C62 1.284 . S
Zn55 O54 1.899 . S
Zn55 O56 2.032 . S
Zn55 O59 2.086 . S
Zn55 O64 1.977 . S
O56 Zn55 2.032 . S
O56 C60 1.278 . S
C57 O58 1.203 1_556 S
C57 O64 1.267 1_556 S
O58 C57 1.203 1_554 S
O59 C52 1.185 . S
O59 Zn55 2.086 . S
C60 O56 1.278 . S
C60 O61 1.211 . S
O61 C60 1.211 . S
C62 O54 1.284 . S
C62 O63 1.273 . S
O63 C62 1.273 . S
O64 Zn55 1.977 . S
O64 C57 1.267 1_554 S
C65 O66 1.160 . S
C65 O72 1.185 . S
O66 C65 1.160 . S
O67 Zn68 1.899 . S
O67 C75 1.284 . S
Zn68 O67 1.899 . S
Zn68 O69 2.032 . S
Zn68 O72 2.086 . S
Zn68 O77 1.977 . S
O69 Zn68 2.032 . S
O69 C73 1.278 . S
C70 O71 1.203 . S
C70 O77 1.267 . S
O71 C70 1.203 . S
O72 C65 1.185 . S
O72 Zn68 2.086 . S
C73 O69 1.278 . S
C73 O74 1.211 . S
O74 C73 1.211 . S
C75 O67 1.284 . S
C75 O76 1.273 . S
O76 C75 1.273 . S
O77 Zn68 1.977 . S
O77 C70 1.267 . S
C78 O79 1.160 . S
C78 O85 1.185 . S
O79 C78 1.160 . S
O80 Zn81 1.899 . S
O80 C88 1.284 . S
Zn81 O80 1.899 . S
Zn81 O82 2.032 . S
Zn81 O85 2.086 . S
Zn81 O90 1.977 . S
O82 Zn81 2.032 . S
O82 C86 1.278 . S
C83 O84 1.203 . S
C83 O90 1.267 . S
O84 C83 1.203 . S
O85 C78 1.185 . S
O85 Zn81 2.086 . S
C86 O82 1.278 . S
C86 O87 1.211 . S
O87 C86 1.211 . S
C88 O80 1.284 . S
C88 O89 1.273 . S
O89 C88 1.273 . S
O90 Zn81 1.977 . S
O90 C83 1.267 . S
C91 O92 1.160 . S
C91 O98 1.185 . S
O92 C91 1.160 . S
O93 Zn94 1.899 . S
O93 C101 1.284 . S
Zn94 O93 1.899 . S
Zn94 O95 2.032 . S
Zn94 O98 2.086 . S
Zn94 O103 1.977 . S
O95 Zn94 2.032 . S
O95 C99 1.278 . S
C96 O97 1.203 . S
C96 O103 1.267 . S
O97 C96 1.203 . S
O98 C91 1.185 . S
O98 Zn94 2.086 . S
C99 O95 1.278 . S
C99 O100 1.211 . S
O100 C99 1.211 . S
C101 O93 1.284 . S
C101 O102 1.273 . S
O102 C101 1.273 . S
O103 Zn94 1.977 . S
O103 C96 1.267 . S
C104 O105 1.160 . S
C104 O111 1.185 . S
O105 C104 1.160 . S
O106 Zn107 1.899 . S
O106 C114 1.284 . S
Zn107 O106 1.899 . S
Zn107 O108 2.032 . S
Zn107 O111 2.086 . S
Zn107 O116 1.977 . S
O108 Zn107 2.032 . S
O108 C112 1.278 . S
C109 O110 1.203 . S
C109 O116 1.267 . S
O110 C109 1.203 . S
O111 C104 1.185 . S
O111 Zn107 2.086 . S
C112 O108 1.278 . S
C112 O113 1.211 . S
O113 C112 1.211 . S
C114 O106 1.284 . S
C114 O115 1.273 . S
O115 C114 1.273 . S
O116 Zn107 1.977 . S
O116 C109 1.267 . S
C117 O118 1.160 . S
C117 O124 1.185 . S
O118 C117 1.160 . S
O119 Zn120 1.899 . S
O119 C127 1.284 . S
Zn120 O119 1.899 . S
Zn120 O121 2.032 . S
Zn120 O124 2.086 . S
Zn120 O129 1.977 . S
O121 Zn120 2.032 . S
O121 C125 1.278 . S
C122 O123 1.203 1_554 S
C122 O129 1.267 1_554 S
O123 C122 1.203 1_556 S
O124 C117 1.185 . S
O124 Zn120 2.086 . S
C125 O121 1.278 . S
C125 O126 1.211 . S
O126 C125 1.211 . S
C127 O119 1.284 . S
C127 O128 1.273 . S
O128 C127 1.273 . S
O129 Zn120 1.977 . S
O129 C122 1.267 1_556 S
C130 O131 1.160 . S
C130 O137 1.185 . S
O131 C130 1.160 . S
O132 Zn133 1.899 . S
O132 C140 1.284 . S
Zn133 O132 1.899 . S
Zn133 O134 2.032 1_554 S
Zn133 O137 2.086 . S
Zn133 O142 1.977 . S
O134 Zn133 2.032 1_556 S
O134 C138 1.278 . S
C135 O136 1.203 . S
C135 O142 1.267 . S
O136 C135 1.203 . S
O137 C130 1.185 . S
O137 Zn133 2.086 . S
C138 O134 1.278 . S
C138 O139 1.211 1_556 S
O139 C138 1.211 1_554 S
C140 O132 1.284 . S
C140 O141 1.273 . S
O141 C140 1.273 . S
O142 Zn133 1.977 . S
O142 C135 1.267 . S
C143 O144 1.160 . S
C143 O150 1.185 . S
O144 C143 1.160 . S
O145 Zn146 1.899 . S
O145 C153 1.284 . S
Zn146 O145 1.899 . S
Zn146 O147 2.032 . S
Zn146 O150 2.086 . S
Zn146 O155 1.977 . S
O147 Zn146 2.032 . S
O147 C151 1.278 . S
C148 O149 1.203 . S
C148 O155 1.267 . S
O149 C148 1.203 . S
O150 C143 1.185 . S
O150 Zn146 2.086 . S
C151 O147 1.278 . S
C151 O152 1.211 . S
O152 C151 1.211 . S
C153 O145 1.284 . S
C153 O154 1.273 . S
O154 C153 1.273 . S
O155 Zn146 1.977 . S
O155 C148 1.267 . S
H156 C164 0.950 . S
H157 C169 0.950 . S
H158 C166 0.950 . S
H159 C168 0.950 . S
H160 C170 0.950 . S
H161 C172 0.950 . S
H162 C174 0.950 . S
H163 C175 0.950 . S
C164 H156 0.950 . S
C164 C165 1.386 . S
C164 C166 1.391 . S
C165 C164 1.386 . S
C165 C169 1.393 . S
C166 H158 0.950 . S
C166 C164 1.391 . S
C166 C167 1.400 . S
C167 C166 1.400 . S
C167 C168 1.398 . S
C167 C173 1.491 . S
C168 H159 0.950 . S
C168 C167 1.398 . S
C168 C169 1.391 . S
C169 H157 0.950 . S
C169 C165 1.393 . S
C169 C168 1.391 . S
C170 H160 0.950 . S
C170 C171 1.386 . S
C170 C172 1.391 . S
C171 C170 1.386 . S
C171 C175 1.393 . S
C172 H161 0.950 . S
C172 C170 1.391 . S
C172 C173 1.400 . S
C173 C167 1.491 . S
C173 C172 1.400 . S
C173 C174 1.398 . S
C174 H162 0.950 . S
C174 C173 1.398 . S
C174 C175 1.391 . S
C175 H163 0.950 . S
C175 C171 1.393 . S
C175 C174 1.391 . S
H176 C184 0.950 . S
H177 C189 0.950 . S
H178 C186 0.950 . S
H179 C188 0.950 1_655 S
H180 C190 0.950 . S
H181 C192 0.950 . S
H182 C194 0.950 1_455 S
H183 C195 0.950 . S
C184 H176 0.950 . S
C184 C185 1.386 . S
C184 C186 1.391 . S
C185 C184 1.386 . S
C185 C189 1.393 . S
C186 H178 0.950 . S
C186 C184 1.391 . S
C186 C187 1.400 . S
C187 C186 1.400 . S
C187 C188 1.398 . S
C187 C193 1.491 1_455 S
C188 H179 0.950 1_455 S
C188 C187 1.398 . S
C188 C189 1.391 . S
C189 H177 0.950 . S
C189 C185 1.393 . S
C189 C188 1.391 . S
C190 H180 0.950 . S
C190 C191 1.386 . S
C190 C192 1.391 . S
C191 C190 1.386 . S
C191 C195 1.393 . S
C192 H181 0.950 . S
C192 C190 1.391 . S
C192 C193 1.400 . S
C193 C187 1.491 1_655 S
C193 C192 1.400 . S
C193 C194 1.398 . S
C194 H182 0.950 1_655 S
C194 C193 1.398 . S
C194 C195 1.391 . S
C195 H183 0.950 . S
C195 C191 1.393 . S
C195 C194 1.391 . S
H196 C204 0.950 . S
H197 C209 0.950 . S
H198 C206 0.950 . S
H199 C208 0.950 1_545 S
H200 C210 0.950 . S
H201 C212 0.950 . S
H202 C214 0.950 1_565 S
H203 C215 0.950 . S
C204 H196 0.950 . S
C204 C205 1.386 . S
C204 C206 1.391 . S
C205 C204 1.386 . S
C205 C209 1.393 . S
C206 H198 0.950 . S
C206 C204 1.391 . S
C206 C207 1.400 . S
C207 C206 1.400 . S
C207 C208 1.398 . S
C207 C213 1.491 1_565 S
C208 H199 0.950 1_565 S
C208 C207 1.398 . S
C208 C209 1.391 . S
C209 H197 0.950 . S
C209 C205 1.393 . S
C209 C208 1.391 . S
C210 H200 0.950 . S
C210 C211 1.386 . S
C210 C212 1.391 . S
C211 C210 1.386 . S
C211 C215 1.393 . S
C212 H201 0.950 . S
C212 C210 1.391 . S
C212 C213 1.400 . S
C213 C207 1.491 1_545 S
C213 C212 1.400 . S
C213 C214 1.398 . S
C214 H202 0.950 1_545 S
C214 C213 1.398 . S
C214 C215 1.391 . S
C215 H203 0.950 . S
C215 C211 1.393 . S
C215 C214 1.391 . S
H216 C224 0.950 . S
H217 C229 0.950 . S
H218 C226 0.950 . S
H219 C228 0.950 . S
H220 C230 0.950 . S
H221 C232 0.950 . S
H222 C234 0.950 . S
H223 C235 0.950 . S
C224 H216 0.950 . S
C224 C225 1.386 . S
C224 C226 1.391 . S
C225 C224 1.386 . S
C225 C229 1.393 . S
C226 H218 0.950 . S
C226 C224 1.391 . S
C226 C227 1.400 . S
C227 C226 1.400 . S
C227 C228 1.398 . S
C227 C233 1.491 . S
C228 H219 0.950 . S
C228 C227 1.398 . S
C228 C229 1.391 . S
C229 H217 0.950 . S
C229 C225 1.393 . S
C229 C228 1.391 . S
C230 H220 0.950 . S
C230 C231 1.386 . S
C230 C232 1.391 . S
C231 C230 1.386 . S
C231 C235 1.393 . S
C232 H221 0.950 . S
C232 C230 1.391 . S
C232 C233 1.400 . S
C233 C227 1.491 . S
C233 C232 1.400 . S
C233 C234 1.398 . S
C234 H222 0.950 . S
C234 C233 1.398 . S
C234 C235 1.391 . S
C235 H223 0.950 . S
C235 C231 1.393 . S
C235 C234 1.391 . S
H236 C244 0.950 . S
H237 C249 0.950 . S
H238 C246 0.950 . S
H239 C248 0.950 1_655 S
H240 C250 0.950 . S
H241 C252 0.950 . S
H242 C254 0.950 1_455 S
H243 C255 0.950 . S
C244 H236 0.950 . S
C244 C245 1.386 . S
C244 C246 1.391 . S
C245 C244 1.386 . S
C245 C249 1.393 . S
C246 H238 0.950 . S
C246 C244 1.391 . S
C246 C247 1.400 . S
C247 C246 1.400 . S
C247 C248 1.398 . S
C247 C253 1.491 1_455 S
C248 H239 0.950 1_455 S
C248 C247 1.398 . S
C248 C249 1.391 . S
C249 H237 0.950 . S
C249 C245 1.393 . S
C249 C248 1.391 . S
C250 H240 0.950 . S
C250 C251 1.386 . S
C250 C252 1.391 . S
C251 C250 1.386 . S
C251 C255 1.393 . S
C252 H241 0.950 . S
C252 C250 1.391 . S
C252 C253 1.400 . S
C253 C247 1.491 1_655 S
C253 C252 1.400 . S
C253 C254 1.398 . S
C254 H242 0.950 1_655 S
C254 C253 1.398 . S
C254 C255 1.391 . S
C255 H243 0.950 . S
C255 C251 1.393 . S
C255 C254 1.391 . S
H256 C264 0.950 . S
H257 C269 0.950 . S
H258 C266 0.950 1_554 S
H259 C268 0.950 1_565 S
H260 C270 0.950 . S
H261 C272 0.950 1_556 S
H262 C274 0.950 1_545 S
H263 C275 0.950 . S
C264 H256 0.950 . S
C264 C265 1.386 . S
C264 C266 1.391 . S
C265 C264 1.386 . S
C265 C269 1.393 . S
C266 H258 0.950 1_556 S
C266 C264 1.391 . S
C266 C267 1.400 . S
C267 C266 1.400 . S
C267 C268 1.398 . S
C267 C273 1.491 1_546 S
C268 H259 0.950 1_545 S
C268 C267 1.398 . S
C268 C269 1.391 . S
C269 H257 0.950 . S
C269 C265 1.393 . S
C269 C268 1.391 . S
C270 H260 0.950 . S
C270 C271 1.386 . S
C270 C272 1.391 . S
C271 C270 1.386 . S
C271 C275 1.393 . S
C272 H261 0.950 1_554 S
C272 C270 1.391 . S
C272 C273 1.400 . S
C273 C267 1.491 1_564 S
C273 C272 1.400 . S
C273 C274 1.398 . S
C274 H262 0.950 1_565 S
C274 C273 1.398 . S
C274 C275 1.391 . S
C275 H263 0.950 . S
C275 C271 1.393 . S
C275 C274 1.391 . S
H276 C284 0.950 . S
H277 C289 0.950 . S
H278 C286 0.950 . S
H279 C288 0.950 . S
H280 C290 0.950 . S
H281 C292 0.950 . S
H282 C294 0.950 . S
H283 C295 0.950 . S
C284 H276 0.950 . S
C284 C285 1.386 . S
C284 C286 1.391 . S
C285 C284 1.386 . S
C285 C289 1.393 . S
C286 H278 0.950 . S
C286 C284 1.391 . S
C286 C287 1.400 . S
C287 C286 1.400 . S
C287 C288 1.398 . S
C287 C293 1.491 . S
C288 H279 0.950 . S
C288 C287 1.398 . S
C288 C289 1.391 . S
C289 H277 0.950 . S
C289 C285 1.393 . S
C289 C288 1.391 . S
C290 H280 0.950 . S
C290 C291 1.386 . S
C290 C292 1.391 . S
C291 C290 1.386 . S
C291 C295 1.393 . S
C292 H281 0.950 . S
C292 C290 1.391 . S
C292 C293 1.400 . S
C293 C287 1.491 . S
C293 C292 1.400 . S
C293 C294 1.398 . S
C294 H282 0.950 . S
C294 C293 1.398 . S
C294 C295 1.391 . S
C295 H283 0.950 . S
C295 C291 1.393 . S
C295 C294 1.391 . S
H296 C304 0.950 . S
H297 C309 0.950 . S
H298 C306 0.950 . S
H299 C308 0.950 . S
H300 C310 0.950 . S
H301 C312 0.950 . S
H302 C314 0.950 . S
H303 C315 0.950 . S
C304 H296 0.950 . S
C304 C305 1.386 . S
C304 C306 1.391 . S
C305 C304 1.386 . S
C305 C309 1.393 . S
C306 H298 0.950 . S
C306 C304 1.391 . S
C306 C307 1.400 . S
C307 C306 1.400 . S
C307 C308 1.398 . S
C307 C313 1.491 . S
C308 H299 0.950 . S
C308 C307 1.398 . S
C308 C309 1.391 . S
C309 H297 0.950 . S
C309 C305 1.393 . S
C309 C308 1.391 . S
C310 H300 0.950 . S
C310 C311 1.386 . S
C310 C312 1.391 . S
C311 C310 1.386 . S
C311 C315 1.393 . S
C312 H301 0.950 . S
C312 C310 1.391 . S
C312 C313 1.400 . S
C313 C307 1.491 . S
C313 C312 1.400 . S
C313 C314 1.398 . S
C314 H302 0.950 . S
C314 C313 1.398 . S
C314 C315 1.391 . S
C315 H303 0.950 . S
C315 C311 1.393 . S
C315 C314 1.391 . S
H316 C324 0.950 . S
H317 C329 0.950 . S
H318 C326 0.950 . S
H319 C328 0.950 . S
H320 C330 0.950 . S
H321 C332 0.950 . S
H322 C334 0.950 . S
H323 C335 0.950 . S
C324 H316 0.950 . S
C324 C325 1.386 . S
C324 C326 1.391 . S
C325 C324 1.386 . S
C325 C329 1.393 . S
C326 H318 0.950 . S
C326 C324 1.391 . S
C326 C327 1.400 . S
C327 C326 1.400 . S
C327 C328 1.398 . S
C327 C333 1.491 . S
C328 H319 0.950 . S
C328 C327 1.398 . S
C328 C329 1.391 . S
C329 H317 0.950 . S
C329 C325 1.393 . S
C329 C328 1.391 . S
C330 H320 0.950 . S
C330 C331 1.386 . S
C330 C332 1.391 . S
C331 C330 1.386 . S
C331 C335 1.393 . S
C332 H321 0.950 . S
C332 C330 1.391 . S
C332 C333 1.400 . S
C333 C327 1.491 . S
C333 C332 1.400 . S
C333 C334 1.398 . S
C334 H322 0.950 . S
C334 C333 1.398 . S
C334 C335 1.391 . S
C335 H323 0.950 . S
C335 C331 1.393 . S
C335 C334 1.391 . S
H336 C344 0.950 . S
H337 C349 0.950 . S
H338 C346 0.950 . S
H339 C348 0.950 . S
H340 C350 0.950 . S
H341 C352 0.950 . S
H342 C354 0.950 . S
H343 C355 0.950 . S
C344 H336 0.950 . S
C344 C345 1.386 . S
C344 C346 1.391 . S
C345 C344 1.386 . S
C345 C349 1.393 . S
C346 H338 0.950 . S
C346 C344 1.391 . S
C346 C347 1.400 . S
C347 C346 1.400 . S
C347 C348 1.398 . S
C347 C353 1.491 . S
C348 H339 0.950 . S
C348 C347 1.398 . S
C348 C349 1.391 . S
C349 H337 0.950 . S
C349 C345 1.393 . S
C349 C348 1.391 . S
C350 H340 0.950 . S
C350 C351 1.386 . S
C350 C352 1.391 . S
C351 C350 1.386 . S
C351 C355 1.393 . S
C352 H341 0.950 . S
C352 C350 1.391 . S
C352 C353 1.400 . S
C353 C347 1.491 . S
C353 C352 1.400 . S
C353 C354 1.398 . S
C354 H342 0.950 . S
C354 C353 1.398 . S
C354 C355 1.391 . S
C355 H343 0.950 . S
C355 C351 1.393 . S
C355 C354 1.391 . S
H356 C364 0.950 . S
H357 C369 0.950 . S
H358 C366 0.950 . S
H359 C368 0.950 . S
H360 C370 0.950 . S
H361 C372 0.950 . S
H362 C374 0.950 . S
H363 C375 0.950 . S
C364 H356 0.950 . S
C364 C365 1.386 . S
C364 C366 1.391 . S
C365 C364 1.386 . S
C365 C369 1.393 . S
C366 H358 0.950 . S
C366 C364 1.391 . S
C366 C367 1.400 . S
C367 C366 1.400 . S
C367 C368 1.398 . S
C367 C373 1.491 . S
C368 H359 0.950 . S
C368 C367 1.398 . S
C368 C369 1.391 . S
C369 H357 0.950 . S
C369 C365 1.393 . S
C369 C368 1.391 . S
C370 H360 0.950 . S
C370 C371 1.386 . S
C370 C372 1.391 . S
C371 C370 1.386 . S
C371 C375 1.393 . S
C372 H361 0.950 . S
C372 C370 1.391 . S
C372 C373 1.400 . S
C373 C367 1.491 . S
C373 C372 1.400 . S
C373 C374 1.398 . S
C374 H362 0.950 . S
C374 C373 1.398 . S
C374 C375 1.391 . S
C375 H363 0.950 . S
C375 C371 1.393 . S
C375 C374 1.391 . S
H376 C384 0.950 . S
H377 C389 0.950 . S
H378 C386 0.950 . S
H379 C388 0.950 . S
H380 C390 0.950 . S
H381 C392 0.950 . S
H382 C394 0.950 . S
H383 C395 0.950 . S
C384 H376 0.950 . S
C384 C385 1.386 . S
C384 C386 1.391 . S
C385 C384 1.386 . S
C385 C389 1.393 . S
C386 H378 0.950 . S
C386 C384 1.391 . S
C386 C387 1.400 . S
C387 C386 1.400 . S
C387 C388 1.398 . S
C387 C393 1.491 . S
C388 H379 0.950 . S
C388 C387 1.398 . S
C388 C389 1.391 . S
C389 H377 0.950 . S
C389 C385 1.393 . S
C389 C388 1.391 . S
C390 H380 0.950 . S
C390 C391 1.386 . S
C390 C392 1.391 . S
C391 C390 1.386 . S
C391 C395 1.393 . S
C392 H381 0.950 . S
C392 C390 1.391 . S
C392 C393 1.400 . S
C393 C387 1.491 . S
C393 C392 1.400 . S
C393 C394 1.398 . S
C394 H382 0.950 . S
C394 C393 1.398 . S
C394 C395 1.391 . S
C395 H383 0.950 . S
C395 C391 1.393 . S
C395 C394 1.391 . S
H396 C404 0.950 . S
H397 C409 0.950 . S
H398 C406 0.950 . S
H399 C408 0.950 . S
H400 C410 0.950 . S
H401 C412 0.950 . S
H402 C414 0.950 . S
H403 C415 0.950 . S
C404 H396 0.950 . S
C404 C405 1.386 . S
C404 C406 1.391 . S
C405 C404 1.386 . S
C405 C409 1.393 . S
C406 H398 0.950 . S
C406 C404 1.391 . S
C406 C407 1.400 . S
C407 C406 1.400 . S
C407 C408 1.398 . S
C407 C413 1.491 . S
C408 H399 0.950 . S
C408 C407 1.398 . S
C408 C409 1.391 . S
C409 H397 0.950 . S
C409 C405 1.393 . S
C409 C408 1.391 . S
C410 H400 0.950 . S
C410 C411 1.386 . S
C410 C412 1.391 . S
C411 C410 1.386 . S
C411 C415 1.393 . S
C412 H401 0.950 . S
C412 C410 1.391 . S
C412 C413 1.400 . S
C413 C407 1.491 . S
C413 C412 1.400 . S
C413 C414 1.398 . S
C414 H402 0.950 . S
C414 C413 1.398 . S
C414 C415 1.391 . S
C415 H403 0.950 . S
C415 C411 1.393 . S
C415 C414 1.391 . S
H416 C424 0.950 . S
H417 C429 0.950 . S
H418 C426 0.950 . S
H419 C428 0.950 . S
H420 C430 0.950 . S
H421 C432 0.950 . S
H422 C434 0.950 . S
H423 C435 0.950 . S
C424 H416 0.950 . S
C424 C425 1.386 . S
C424 C426 1.391 . S
C425 C424 1.386 . S
C425 C429 1.393 . S
C426 H418 0.950 . S
C426 C424 1.391 . S
C426 C427 1.400 . S
C427 C426 1.400 . S
C427 C428 1.398 . S
C427 C433 1.491 1_655 S
C428 H419 0.950 . S
C428 C427 1.398 . S
C428 C429 1.391 . S
C429 H417 0.950 . S
C429 C425 1.393 . S
C429 C428 1.391 . S
C430 H420 0.950 . S
C430 C431 1.386 . S
C430 C432 1.391 . S
C431 C430 1.386 . S
C431 C435 1.393 . S
C432 H421 0.950 . S
C432 C430 1.391 . S
C432 C433 1.400 . S
C433 C427 1.491 1_455 S
C433 C432 1.400 . S
C433 C434 1.398 . S
C434 H422 0.950 . S
C434 C433 1.398 . S
C434 C435 1.391 . S
C435 H423 0.950 . S
C435 C431 1.393 . S
C435 C434 1.391 . S
H436 C444 0.950 . S
H437 C449 0.950 . S
H438 C446 0.952 . S
H439 C448 0.950 1_556 S
H440 C450 0.950 . S
H441 C452 0.950 . S
H442 C454 0.950 1_554 S
H443 C455 0.950 . S
C444 H436 0.950 . S
C444 C445 1.386 . S
C444 C446 1.390 1_565 S
C445 C444 1.386 . S
C445 C449 1.393 . S
C446 H438 0.952 . S
C446 C444 1.390 1_545 S
C446 C447 1.399 1_545 S
C447 C446 1.399 1_565 S
C447 C448 1.398 . S
C447 C453 1.491 1_564 S
C448 H439 0.950 1_554 S
C448 C447 1.398 . S
C448 C449 1.391 . S
C449 H437 0.950 . S
C449 C445 1.393 . S
C449 C448 1.391 . S
C450 H440 0.950 . S
C450 C451 1.386 . S
C450 C452 1.391 1_545 S
C451 C450 1.386 . S
C451 C455 1.393 . S
C452 H441 0.950 . S
C452 C450 1.391 1_565 S
C452 C453 1.400 1_565 S
C453 C447 1.491 1_546 S
C453 C452 1.400 1_545 S
C453 C454 1.398 . S
C454 H442 0.950 1_556 S
C454 C453 1.398 . S
C454 C455 1.391 . S
C455 H443 0.950 . S
C455 C451 1.393 . S
C455 C454 1.391 . S
H456 C464 0.950 . S
H457 C469 0.950 . S
H458 C466 0.950 . S
H459 C468 0.950 . S
H460 C470 0.950 . S
H461 C472 0.950 . S
H462 C474 0.950 . S
H463 C475 0.950 . S
C464 H456 0.950 . S
C464 C465 1.386 . S
C464 C466 1.391 . S
C465 C464 1.386 . S
C465 C469 1.393 . S
C466 H458 0.950 . S
C466 C464 1.391 . S
C466 C467 1.400 . S
C467 C466 1.400 . S
C467 C468 1.398 . S
C467 C473 1.491 . S
C468 H459 0.950 . S
C468 C467 1.398 . S
C468 C469 1.391 . S
C469 H457 0.950 . S
C469 C465 1.393 . S
C469 C468 1.391 . S
C470 H460 0.950 . S
C470 C471 1.386 . S
C470 C472 1.391 . S
C471 C470 1.386 . S
C471 C475 1.393 . S
C472 H461 0.950 . S
C472 C470 1.391 . S
C472 C473 1.400 . S
C473 C467 1.491 . S
C473 C472 1.400 . S
C473 C474 1.398 . S
C474 H462 0.950 . S
C474 C473 1.398 . S
C474 C475 1.391 . S
C475 H463 0.950 . S
C475 C471 1.393 . S
C475 C474 1.391 . S
H476 C484 0.950 . S
H477 C489 0.950 . S
H478 C486 0.950 . S
H479 C488 0.950 1_655 S
H480 C490 0.950 . S
H481 C492 0.950 . S
H482 C494 0.950 1_455 S
H483 C495 0.950 . S
C484 H476 0.950 . S
C484 C485 1.386 . S
C484 C486 1.391 . S
C485 C484 1.386 . S
C485 C489 1.393 . S
C486 H478 0.950 . S
C486 C484 1.391 . S
C486 C487 1.400 . S
C487 C486 1.400 . S
C487 C488 1.398 . S
C487 C493 1.491 1_455 S
C488 H479 0.950 1_455 S
C488 C487 1.398 . S
C488 C489 1.391 . S
C489 H477 0.950 . S
C489 C485 1.393 . S
C489 C488 1.391 . S
C490 H480 0.950 . S
C490 C491 1.386 . S
C490 C492 1.391 . S
C491 C490 1.386 . S
C491 C495 1.393 . S
C492 H481 0.950 . S
C492 C490 1.391 . S
C492 C493 1.400 . S
C493 C487 1.491 1_655 S
C493 C492 1.400 . S
C493 C494 1.398 . S
C494 H482 0.950 1_655 S
C494 C493 1.398 . S
C494 C495 1.391 . S
C495 H483 0.950 . S
C495 C491 1.393 . S
C495 C494 1.391 . S
H496 C504 0.950 . S
H497 C509 0.950 . S
H498 C506 0.950 . S
H499 C508 0.972 . S
H500 C510 0.950 . S
H501 C512 0.950 . S
H502 C514 0.972 . S
H503 C515 0.950 . S
C504 H496 0.950 . S
C504 C505 1.386 . S
C504 C506 1.391 . S
C505 C504 1.386 . S
C505 C509 1.393 . S
C506 H498 0.950 . S
C506 C504 1.391 . S
C506 C507 1.400 . S
C507 C506 1.400 . S
C507 C508 1.390 1_565 S
C507 C513 1.491 1_565 S
C508 H499 0.972 . S
C508 C507 1.390 1_545 S
C508 C509 1.378 1_545 S
C509 H497 0.950 . S
C509 C505 1.393 . S
C509 C508 1.378 1_565 S
C510 H500 0.950 . S
C510 C511 1.386 . S
C510 C512 1.391 . S
C511 C510 1.386 . S
C511 C515 1.393 . S
C512 H501 0.950 . S
C512 C510 1.391 . S
C512 C513 1.400 . S
C513 C507 1.491 1_545 S
C513 C512 1.400 . S
C513 C514 1.390 1_545 S
C514 H502 0.972 . S
C514 C513 1.390 1_565 S
C514 C515 1.378 1_565 S
C515 H503 0.950 . S
C515 C511 1.393 . S
C515 C514 1.378 1_545 S
H516 C524 0.950 . S
H517 C529 0.950 . S
H518 C526 0.950 . S
H519 C528 0.950 . S
H520 C530 0.950 . S
H521 C532 0.950 . S
H522 C534 0.950 . S
H523 C535 0.950 . S
C524 H516 0.950 . S
C524 C525 1.386 . S
C524 C526 1.391 . S
C525 C524 1.386 . S
C525 C529 1.393 . S
C526 H518 0.950 . S
C526 C524 1.391 . S
C526 C527 1.400 . S
C527 C526 1.400 . S
C527 C528 1.398 . S
C527 C533 1.491 . S
C528 H519 0.950 . S
C528 C527 1.398 . S
C528 C529 1.391 . S
C529 H517 0.950 . S
C529 C525 1.393 . S
C529 C528 1.391 . S
C530 H520 0.950 . S
C530 C531 1.386 . S
C530 C532 1.391 . S
C531 C530 1.386 . S
C531 C535 1.393 . S
C532 H521 0.950 . S
C532 C530 1.391 . S
C532 C533 1.400 . S
C533 C527 1.491 . S
C533 C532 1.400 . S
C533 C534 1.398 . S
C534 H522 0.950 . S
C534 C533 1.398 . S
C534 C535 1.391 . S
C535 H523 0.950 . S
C535 C531 1.393 . S
C535 C534 1.391 . S
H536 C544 0.950 . S
H537 C549 0.950 . S
H538 C546 0.950 . S
H539 C548 0.950 . S
H540 C550 0.950 . S
H541 C552 0.950 . S
H542 C554 0.950 . S
H543 C555 0.950 . S
C544 H536 0.950 . S
C544 C545 1.386 . S
C544 C546 1.391 . S
C545 C544 1.386 . S
C545 C549 1.393 . S
C546 H538 0.950 . S
C546 C544 1.391 . S
C546 C547 1.400 . S
C547 C546 1.400 . S
C547 C548 1.398 . S
C547 C553 1.491 . S
C548 H539 0.950 . S
C548 C547 1.398 . S
C548 C549 1.391 . S
C549 H537 0.950 . S
C549 C545 1.393 . S
C549 C548 1.391 . S
C550 H540 0.950 . S
C550 C551 1.386 . S
C550 C552 1.391 . S
C551 C550 1.386 . S
C551 C555 1.393 . S
C552 H541 0.950 . S
C552 C550 1.391 . S
C552 C553 1.400 . S
C553 C547 1.491 . S
C553 C552 1.400 . S
C553 C554 1.398 . S
C554 H542 0.950 . S
C554 C553 1.398 . S
C554 C555 1.391 . S
C555 H543 0.950 . S
C555 C551 1.393 . S
C555 C554 1.391 . S
H556 C564 0.950 . S
H557 C569 0.950 . S
H558 C566 0.950 . S
H559 C568 0.950 1_554 S
H560 C570 0.950 . S
H561 C572 0.950 . S
H562 C574 0.950 . S
H563 C575 0.950 . S
C564 H556 0.950 . S
C564 C565 1.386 1_556 S
C564 C566 1.391 . S
C565 C564 1.386 1_554 S
C565 C569 1.393 . S
C566 H558 0.950 . S
C566 C564 1.391 . S
C566 C567 1.400 . S
C567 C566 1.400 . S
C567 C568 1.398 . S
C567 C573 1.491 . S
C568 H559 0.950 1_556 S
C568 C567 1.398 . S
C568 C569 1.391 1_556 S
C569 H557 0.950 . S
C569 C565 1.393 . S
C569 C568 1.391 1_554 S
C570 H560 0.950 . S
C570 C571 1.386 . S
C570 C572 1.391 . S
C571 C570 1.386 . S
C571 C575 1.393 . S
C572 H561 0.950 . S
C572 C570 1.391 . S
C572 C573 1.400 . S
C573 C567 1.491 . S
C573 C572 1.400 . S
C573 C574 1.398 . S
C574 H562 0.950 . S
C574 C573 1.398 . S
C574 C575 1.391 . S
C575 H563 0.950 . S
C575 C571 1.393 . S
C575 C574 1.391 . S
H576 C584 0.950 . S
H577 C589 0.950 . S
H578 C586 0.950 . S
H579 C588 0.950 . S
H580 C590 0.950 . S
H581 C592 0.950 . S
H582 C594 0.950 . S
H583 C595 0.950 . S
C584 H576 0.950 . S
C584 C585 1.386 . S
C584 C586 1.391 . S
C585 C584 1.386 . S
C585 C589 1.393 . S
C586 H578 0.950 . S
C586 C584 1.391 . S
C586 C587 1.400 . S
C587 C586 1.400 . S
C587 C588 1.398 . S
C587 C593 1.491 . S
C588 H579 0.950 . S
C588 C587 1.398 . S
C588 C589 1.391 . S
C589 H577 0.950 . S
C589 C585 1.393 . S
C589 C588 1.391 . S
C590 H580 0.950 . S
C590 C591 1.386 1_554 S
C590 C592 1.391 . S
C591 C590 1.386 1_556 S
C591 C595 1.393 . S
C592 H581 0.950 . S
C592 C590 1.391 . S
C592 C593 1.400 . S
C593 C587 1.491 . S
C593 C592 1.400 . S
C593 C594 1.398 . S
C594 H582 0.950 . S
C594 C593 1.398 . S
C594 C595 1.391 1_554 S
C595 H583 0.950 . S
C595 C591 1.393 . S
C595 C594 1.391 1_556 S
H596 C604 0.950 . S
H597 C609 0.950 . S
H598 C606 0.950 . S
H599 C608 0.950 . S
H600 C610 0.950 . S
H601 C612 0.950 . S
H602 C614 0.950 . S
H603 C615 0.950 . S
C604 H596 0.950 . S
C604 C605 1.386 . S
C604 C606 1.391 . S
C605 C604 1.386 . S
C605 C609 1.393 . S
C606 H598 0.950 . S
C606 C604 1.391 . S
C606 C607 1.400 . S
C607 C606 1.400 . S
C607 C608 1.398 . S
C607 C613 1.491 . S
C608 H599 0.950 . S
C608 C607 1.398 . S
C608 C609 1.391 . S
C609 H597 0.950 . S
C609 C605 1.393 . S
C609 C608 1.391 . S
C610 H600 0.950 . S
C610 C611 1.386 . S
C610 C612 1.391 . S
C611 C610 1.386 . S
C611 C615 1.393 . S
C612 H601 0.950 . S
C612 C610 1.391 . S
C612 C613 1.400 . S
C613 C607 1.491 . S
C613 C612 1.400 . S
C613 C614 1.398 . S
C614 H602 0.950 . S
C614 C613 1.398 . S
C614 C615 1.391 . S
C615 H603 0.950 . S
C615 C611 1.393 . S
C615 C614 1.391 . S
H616 C624 0.950 . S
H617 C629 0.950 . S
H618 C626 0.950 . S
H619 C628 0.950 . S
H620 C630 0.950 . S
H621 C632 0.950 . S
H622 C634 0.950 . S
H623 C635 0.950 . S
C624 H616 0.950 . S
C624 C625 1.386 . S
C624 C626 1.391 . S
C625 C624 1.386 . S
C625 C629 1.393 . S
C626 H618 0.950 . S
C626 C624 1.391 . S
C626 C627 1.400 . S
C627 C626 1.400 . S
C627 C628 1.398 . S
C627 C633 1.491 . S
C628 H619 0.950 . S
C628 C627 1.398 . S
C628 C629 1.391 . S
C629 H617 0.950 . S
C629 C625 1.393 . S
C629 C628 1.391 . S
C630 H620 0.950 . S
C630 C631 1.386 . S
C630 C632 1.391 . S
C631 C630 1.386 . S
C631 C635 1.393 . S
C632 H621 0.950 . S
C632 C630 1.391 . S
C632 C633 1.400 . S
C633 C627 1.491 . S
C633 C632 1.400 . S
C633 C634 1.398 . S
C634 H622 0.950 . S
C634 C633 1.398 . S
C634 C635 1.391 . S
C635 H623 0.950 . S
C635 C631 1.393 . S
C635 C634 1.391 . S
C165 C122 1.375 . S
C171 C5 1.364 . S
C185 C18 1.380 . S
C191 C135 1.361 . S
C205 C148 1.374 . S
C211 C31 1.364 . S
C225 C83 1.381 . S
C231 C44 1.361 . S
C245 C96 1.391 . S
C251 C57 1.362 . S
C265 C109 1.393 . S
C271 C70 1.368 . S
C285 C88 1.431 . S
C291 C10 1.449 . S
C305 C23 1.436 . S
C311 C101 1.434 . S
C325 C114 1.447 . S
C331 C36 1.430 . S
C345 C49 1.447 . S
C351 C127 1.449 . S
C365 C140 1.452 . S
C371 C62 1.442 . S
C385 C75 1.432 . S
C391 C153 1.450 . S
C405 C125 0.980 . S
C411 C8 0.984 . S
C425 C138 0.963 . S
C431 C21 0.959 . S
C445 C151 0.975 . S
C451 C34 0.967 . S
C465 C47 0.959 . S
C471 C86 0.960 . S
C485 C99 0.960 . S
C491 C60 0.966 . S
C505 C73 0.964 . S
C511 C112 0.972 . S
C525 C0 1.310 . S
C531 C104 1.331 . S
C545 C117 1.337 . S
C551 C13 1.327 . S
C565 C130 1.338 . S
C571 C26 1.321 . S
C585 C143 1.336 . S
C591 C39 1.327 . S
C605 C78 1.316 . S
C611 C52 1.337 . S
C625 C91 1.317 . S
C631 C65 1.312 . S
