# Generated by pormake.
# Topology cag, (4)-cn, num edge types: 1
# Building blocks:
#     Node 0, Type 0, BuildingBlock: QUQFOY_clean_sbu_3, # of connection points: 4
#     Node 1, Type 0, BuildingBlock: QUQFOY_clean_sbu_3, # of connection points: 4
#     Node 2, Type 0, BuildingBlock: QUQFOY_clean_sbu_3, # of connection points: 4
#     Node 3, Type 0, BuildingBlock: QUQFOY_clean_sbu_3, # of connection points: 4
#     Node 4, Type 0, BuildingBlock: QUQFOY_clean_sbu_3, # of connection points: 4
#     Node 5, Type 0, BuildingBlock: QUQFOY_clean_sbu_3, # of connection points: 4
#     Node 6, Type 0, BuildingBlock: QUQFOY_clean_sbu_3, # of connection points: 4
#     Node 7, Type 0, BuildingBlock: QUQFOY_clean_sbu_3, # of connection points: 4
#     Node 8, Type 0, BuildingBlock: QUQFOY_clean_sbu_3, # of connection points: 4
#     Node 9, Type 0, BuildingBlock: QUQFOY_clean_sbu_3, # of connection points: 4
#     Node 10, Type 0, BuildingBlock: QUQFOY_clean_sbu_3, # of connection points: 4
#     Node 11, Type 0, BuildingBlock: QUQFOY_clean_sbu_3, # of connection points: 4
#     Node 12, Type 0, BuildingBlock: QUQFOY_clean_sbu_3, # of connection points: 4
#     Node 13, Type 0, BuildingBlock: QUQFOY_clean_sbu_3, # of connection points: 4
#     Node 14, Type 0, BuildingBlock: QUQFOY_clean_sbu_3, # of connection points: 4
#     Node 15, Type 0, BuildingBlock: QUQFOY_clean_sbu_3, # of connection points: 4
#     Edge 16, Type (0, 0), BuildingBlock: MIFKUJ_clean_linker_0, # of connection points: 2
#     Edge 17, Type (0, 0), BuildingBlock: MIFKUJ_clean_linker_0, # of connection points: 2
#     Edge 18, Type (0, 0), BuildingBlock: MIFKUJ_clean_linker_0, # of connection points: 2
#     Edge 19, Type (0, 0), BuildingBlock: MIFKUJ_clean_linker_0, # of connection points: 2
#     Edge 20, Type (0, 0), BuildingBlock: MIFKUJ_clean_linker_0, # of connection points: 2
#     Edge 21, Type (0, 0), BuildingBlock: MIFKUJ_clean_linker_0, # of connection points: 2
#     Edge 22, Type (0, 0), BuildingBlock: MIFKUJ_clean_linker_0, # of connection points: 2
#     Edge 23, Type (0, 0), BuildingBlock: MIFKUJ_clean_linker_0, # of connection points: 2
#     Edge 24, Type (0, 0), BuildingBlock: MIFKUJ_clean_linker_0, # of connection points: 2
#     Edge 25, Type (0, 0), BuildingBlock: MIFKUJ_clean_linker_0, # of connection points: 2
#     Edge 26, Type (0, 0), BuildingBlock: MIFKUJ_clean_linker_0, # of connection points: 2
#     Edge 27, Type (0, 0), BuildingBlock: MIFKUJ_clean_linker_0, # of connection points: 2
#     Edge 28, Type (0, 0), BuildingBlock: MIFKUJ_clean_linker_0, # of connection points: 2
#     Edge 29, Type (0, 0), BuildingBlock: MIFKUJ_clean_linker_0, # of connection points: 2
#     Edge 30, Type (0, 0), BuildingBlock: MIFKUJ_clean_linker_0, # of connection points: 2
#     Edge 31, Type (0, 0), BuildingBlock: MIFKUJ_clean_linker_0, # of connection points: 2
#     Edge 32, Type (0, 0), BuildingBlock: MIFKUJ_clean_linker_0, # of connection points: 2
#     Edge 33, Type (0, 0), BuildingBlock: MIFKUJ_clean_linker_0, # of connection points: 2
#     Edge 34, Type (0, 0), BuildingBlock: MIFKUJ_clean_linker_0, # of connection points: 2
#     Edge 35, Type (0, 0), BuildingBlock: MIFKUJ_clean_linker_0, # of connection points: 2
#     Edge 36, Type (0, 0), BuildingBlock: MIFKUJ_clean_linker_0, # of connection points: 2
#     Edge 37, Type (0, 0), BuildingBlock: MIFKUJ_clean_linker_0, # of connection points: 2
#     Edge 38, Type (0, 0), BuildingBlock: MIFKUJ_clean_linker_0, # of connection points: 2
#     Edge 39, Type (0, 0), BuildingBlock: MIFKUJ_clean_linker_0, # of connection points: 2
#     Edge 40, Type (0, 0), BuildingBlock: MIFKUJ_clean_linker_0, # of connection points: 2
#     Edge 41, Type (0, 0), BuildingBlock: MIFKUJ_clean_linker_0, # of connection points: 2
#     Edge 42, Type (0, 0), BuildingBlock: MIFKUJ_clean_linker_0, # of connection points: 2
#     Edge 43, Type (0, 0), BuildingBlock: MIFKUJ_clean_linker_0, # of connection points: 2
#     Edge 44, Type (0, 0), BuildingBlock: MIFKUJ_clean_linker_0, # of connection points: 2
#     Edge 45, Type (0, 0), BuildingBlock: MIFKUJ_clean_linker_0, # of connection points: 2
#     Edge 46, Type (0, 0), BuildingBlock: MIFKUJ_clean_linker_0, # of connection points: 2
#     Edge 47, Type (0, 0), BuildingBlock: MIFKUJ_clean_linker_0, # of connection points: 2
# Relax obj value: 0.109
# Max RMSD: 0.143
# Mean RMSD: 0.143
data_MOF--net-cag--node1-QUQFOY_clean_sbu_3--edge1-MIFKUJ_clean_linker_0
_symmetry_space_group_name_H-M    P1
_symmetry_Int_Tables_number       1
_symmetry_cell_setting            triclinic
loop_
_symmetry_equiv_pos_as_xyz
'x, y, z'
_cell_length_a     57.739913
_cell_length_b     65.253754
_cell_length_c     54.763839
_cell_angle_alpha  90.068161
_cell_angle_beta   89.963629
_cell_angle_gamma 90.003704
loop_
_atom_site_label
_atom_site_type_symbol
_atom_site_fract_x
_atom_site_fract_y
_atom_site_fract_z
_atom_type_partial_charge
C0 C 0.33439 0.14834 0.05371 0.0
O1 O 0.33067 0.15329 0.03165 0.0
Cd2 Cd 0.2924 0.1528 0.01453 0.0
O3 O 0.31758 0.14376 0.06775 0.0
Cd4 Cd 0.27487 0.14166 0.06669 0.0
C5 C 0.27745 0.10303 0.02565 0.0
O6 O 0.268 0.17188 0.04212 0.0
O7 O 0.23835 0.15217 0.04746 0.0
O8 O 0.27365 0.15691 0.10721 0.0
C9 C 0.24639 0.16906 0.03979 0.0
O10 O 0.28245 0.11644 0.00962 0.0
C11 C 0.26273 0.14221 0.11708 0.0
O12 O 0.27487 0.10811 0.04789 0.0
O13 O 0.25727 0.12724 0.10342 0.0
C14 C 0.15107 0.84013 0.55115 0.0
O15 O 0.15384 0.83583 0.52871 0.0
Cd16 Cd 0.19128 0.83586 0.50949 0.0
O17 O 0.16847 0.84406 0.56464 0.0
Cd18 Cd 0.21102 0.8462 0.56166 0.0
C19 C 0.20663 0.8853 0.52124 0.0
O20 O 0.21649 0.81652 0.53585 0.0
O21 O 0.24675 0.83554 0.54078 0.0
O22 O 0.21442 0.83122 0.60223 0.0
C23 C 0.23801 0.81909 0.53254 0.0
O24 O 0.20147 0.8722 0.50488 0.0
C25 C 0.22522 0.84634 0.61139 0.0
O26 O 0.20973 0.8798 0.54325 0.0
O27 O 0.22972 0.86123 0.59727 0.0
C28 C 0.33699 0.84207 0.9362 0.0
O29 O 0.33199 0.83749 0.9581 0.0
Cd30 Cd 0.29297 0.83948 0.9732 0.0
O31 O 0.32112 0.84716 0.92127 0.0
Cd32 Cd 0.27865 0.85113 0.92014 0.0
C33 C 0.28075 0.88969 0.96123 0.0
O34 O 0.26865 0.82152 0.94454 0.0
O35 O 0.24073 0.84287 0.93794 0.0
O36 O 0.27756 0.83525 0.87994 0.0
C37 C 0.24723 0.8256 0.94603 0.0
O38 O 0.28409 0.8761 0.97752 0.0
C39 C 0.26881 0.85064 0.86921 0.0
O40 O 0.27941 0.88473 0.93882 0.0
O41 O 0.26444 0.86628 0.88225 0.0
C42 C 0.14839 0.14497 0.43864 0.0
O43 O 0.15186 0.14992 0.46077 0.0
Cd44 Cd 0.18981 0.14947 0.47864 0.0
O45 O 0.16533 0.14068 0.42464 0.0
Cd46 Cd 0.20806 0.13937 0.42546 0.0
C47 C 0.20588 0.10008 0.46564 0.0
O48 O 0.21418 0.16875 0.45148 0.0
O49 O 0.24444 0.15004 0.44498 0.0
O50 O 0.20995 0.15584 0.38567 0.0
C51 C 0.23582 0.16625 0.454 0.0
O52 O 0.20015 0.11305 0.48197 0.0
C53 C 0.21973 0.14087 0.37504 0.0
O54 O 0.20888 0.10566 0.44363 0.0
O55 O 0.22442 0.12528 0.38798 0.0
C56 C 0.57459 0.87138 0.86978 0.0
O57 O 0.57955 0.88536 0.85453 0.0
Cd58 Cd 0.61859 0.89757 0.84893 0.0
O59 O 0.59048 0.86284 0.88224 0.0
Cd60 Cd 0.63275 0.86429 0.88712 0.0
C61 C 0.63104 0.91364 0.90665 0.0
O62 O 0.64329 0.868 0.84414 0.0
O63 O 0.67096 0.87159 0.87035 0.0
O64 O 0.63494 0.82714 0.89238 0.0
C65 C 0.66478 0.87018 0.84821 0.0
O66 O 0.62738 0.91894 0.88463 0.0
C67 C 0.64345 0.8281 0.91373 0.0
O68 O 0.63251 0.89481 0.91235 0.0
O69 O 0.6468 0.84584 0.92258 0.0
C70 C 0.91213 0.11457 0.36679 0.0
O71 O 0.90634 0.1002 0.35237 0.0
Cd72 Cd 0.86652 0.09008 0.34695 0.0
O73 O 0.89674 0.12445 0.37859 0.0
Cd74 Cd 0.85439 0.12533 0.38334 0.0
C75 C 0.8529 0.07677 0.4053 0.0
O76 O 0.84416 0.12084 0.34036 0.0
O77 O 0.81596 0.11969 0.36626 0.0
O78 O 0.85665 0.1626 0.38782 0.0
C79 C 0.82251 0.12003 0.34417 0.0
O80 O 0.85593 0.07051 0.3835 0.0
C81 C 0.84597 0.163 0.4081 0.0
O82 O 0.85295 0.09582 0.41013 0.0
O83 O 0.83942 0.14592 0.41674 0.0
C84 C 0.57075 0.11465 0.12244 0.0
O85 O 0.5758 0.10162 0.1388 0.0
Cd86 Cd 0.61482 0.09028 0.14627 0.0
O87 O 0.58659 0.12264 0.10937 0.0
Cd88 Cd 0.62907 0.12087 0.10525 0.0
C89 C 0.62776 0.07039 0.09054 0.0
O90 O 0.63845 0.12071 0.14883 0.0
O91 O 0.66685 0.11536 0.12402 0.0
O92 O 0.62804 0.1571 0.09347 0.0
C93 C 0.66005 0.11846 0.1457 0.0
O94 O 0.62471 0.06648 0.11309 0.0
C95 C 0.64075 0.15464 0.07475 0.0
O96 O 0.62844 0.0888 0.08305 0.0
O97 O 0.64773 0.13657 0.07034 0.0
C98 C 0.91851 0.88264 0.6265 0.0
O99 O 0.91385 0.89598 0.64267 0.0
Cd100 Cd 0.87467 0.90721 0.65019 0.0
O101 O 0.90235 0.87435 0.61419 0.0
Cd102 Cd 0.85992 0.87543 0.61113 0.0
C103 C 0.85952 0.92535 0.59425 0.0
O104 O 0.85076 0.87706 0.65475 0.0
O105 O 0.82227 0.88147 0.62974 0.0
O106 O 0.85952 0.8385 0.60348 0.0
C107 C 0.82912 0.87901 0.65152 0.0
O108 O 0.86358 0.9299 0.61645 0.0
C109 C 0.84881 0.83989 0.5833 0.0
O110 O 0.85875 0.90673 0.58747 0.0
O111 O 0.84353 0.85777 0.57613 0.0
C112 C 0.84036 0.63922 0.04997 0.0
O113 O 0.83571 0.64177 0.0275 0.0
Cd114 Cd 0.79698 0.64282 0.01151 0.0
O115 O 0.82418 0.63689 0.06554 0.0
Cd116 Cd 0.78146 0.63521 0.06697 0.0
C117 C 0.77901 0.59488 0.02744 0.0
O118 O 0.77556 0.66368 0.03955 0.0
O119 O 0.74434 0.64831 0.05111 0.0
O120 O 0.78232 0.65208 0.10669 0.0
C121 C 0.75366 0.66279 0.03922 0.0
O122 O 0.78396 0.60731 0.01032 0.0
C123 C 0.77212 0.63768 0.11796 0.0
O124 O 0.77822 0.60091 0.04953 0.0
O125 O 0.76618 0.62214 0.10547 0.0
C126 C 0.65023 0.34735 0.54385 0.0
O127 O 0.65437 0.34638 0.52109 0.0
Cd128 Cd 0.69306 0.34726 0.50466 0.0
O129 O 0.66666 0.34952 0.55912 0.0
Cd130 Cd 0.7091 0.3537 0.55931 0.0
C131 C 0.70766 0.39549 0.52232 0.0
O132 O 0.71646 0.32591 0.53069 0.0
O133 O 0.74638 0.34336 0.54189 0.0
O134 O 0.70639 0.33779 0.59949 0.0
C135 C 0.73825 0.32825 0.53016 0.0
O136 O 0.70412 0.38337 0.50448 0.0
C137 C 0.71965 0.35058 0.60998 0.0
O138 O 0.70858 0.38873 0.54408 0.0
O139 O 0.72819 0.36469 0.59681 0.0
C140 C 0.83667 0.34058 0.93431 0.0
O141 O 0.83205 0.33457 0.95581 0.0
Cd142 Cd 0.79304 0.33271 0.97078 0.0
O143 O 0.8204 0.34501 0.91954 0.0
Cd144 Cd 0.77756 0.34525 0.91834 0.0
C145 C 0.77653 0.38236 0.96132 0.0
O146 O 0.771 0.31374 0.94098 0.0
O147 O 0.74094 0.3328 0.93537 0.0
O148 O 0.7816 0.33336 0.87634 0.0
C149 C 0.74925 0.3159 0.9426 0.0
O150 O 0.78103 0.36847 0.97692 0.0
C151 C 0.76725 0.34608 0.86749 0.0
O152 O 0.77555 0.37811 0.93868 0.0
O153 O 0.7577 0.35843 0.88233 0.0
C154 C 0.65307 0.65274 0.43909 0.0
O155 O 0.65666 0.65766 0.46121 0.0
Cd156 Cd 0.6945 0.65941 0.47924 0.0
O157 O 0.66998 0.64906 0.42478 0.0
Cd158 Cd 0.71278 0.64839 0.42548 0.0
C159 C 0.7119 0.61024 0.46773 0.0
O160 O 0.71797 0.67832 0.45098 0.0
O161 O 0.74899 0.66089 0.4436 0.0
O162 O 0.71451 0.66299 0.3845 0.0
C163 C 0.73974 0.67661 0.45313 0.0
O164 O 0.70605 0.62349 0.48368 0.0
C165 C 0.72506 0.64783 0.37512 0.0
O166 O 0.71447 0.6153 0.44547 0.0
O167 O 0.73004 0.63304 0.38923 0.0
C168 C 0.07388 0.37896 0.86983 0.0
O169 O 0.07905 0.39166 0.85315 0.0
Cd170 Cd 0.11843 0.40226 0.84601 0.0
O171 O 0.08969 0.37084 0.88278 0.0
Cd172 Cd 0.13221 0.3711 0.88645 0.0
C173 C 0.13227 0.42125 0.90217 0.0
O174 O 0.1418 0.37167 0.84286 0.0
O175 O 0.17012 0.37613 0.86805 0.0
O176 O 0.12939 0.33462 0.89637 0.0
C177 C 0.16344 0.37347 0.84625 0.0
O178 O 0.12857 0.42533 0.87978 0.0
C179 C 0.1421 0.33588 0.91523 0.0
O180 O 0.13309 0.40277 0.90945 0.0
O181 O 0.14995 0.35347 0.92064 0.0
C182 C 0.41877 0.60929 0.36855 0.0
O183 O 0.41428 0.59605 0.35222 0.0
Cd184 Cd 0.37519 0.58495 0.34446 0.0
O185 O 0.40245 0.61775 0.3805 0.0
Cd186 Cd 0.35982 0.61724 0.38194 0.0
C187 C 0.35958 0.56804 0.40089 0.0
O188 O 0.35155 0.61504 0.33804 0.0
O189 O 0.32279 0.61024 0.36259 0.0
O190 O 0.36128 0.65422 0.38964 0.0
C191 C 0.32988 0.61289 0.34094 0.0
O192 O 0.36384 0.56299 0.37888 0.0
C193 C 0.34763 0.65355 0.40781 0.0
O194 O 0.3586 0.58681 0.40701 0.0
O195 O 0.34008 0.63604 0.41399 0.0
C196 C 0.07742 0.61772 0.12256 0.0
O197 O 0.08365 0.60348 0.13693 0.0
Cd198 Cd 0.12357 0.59401 0.14308 0.0
O199 O 0.09241 0.62771 0.11036 0.0
Cd200 Cd 0.13462 0.62814 0.10433 0.0
C201 C 0.13568 0.57849 0.08531 0.0
O202 O 0.14548 0.6253 0.14731 0.0
O203 O 0.17338 0.62368 0.12114 0.0
O204 O 0.13117 0.66494 0.09594 0.0
C205 C 0.16708 0.62447 0.14329 0.0
O206 O 0.13385 0.57307 0.10755 0.0
C207 C 0.14276 0.66408 0.07622 0.0
O208 O 0.13492 0.59733 0.07945 0.0
O209 O 0.15033 0.64662 0.06984 0.0
C210 C 0.4162 0.37376 0.62291 0.0
O211 O 0.41115 0.38884 0.63657 0.0
Cd212 Cd 0.37189 0.39914 0.64505 0.0
O213 O 0.40036 0.36363 0.61218 0.0
Cd214 Cd 0.3579 0.36561 0.60838 0.0
C215 C 0.35744 0.41482 0.5884 0.0
O216 O 0.34876 0.36884 0.65205 0.0
O217 O 0.32033 0.3722 0.62682 0.0
O218 O 0.35893 0.3286 0.60041 0.0
C219 C 0.32711 0.3705 0.6487 0.0
O220 O 0.36002 0.42029 0.61054 0.0
C221 C 0.34551 0.32958 0.58208 0.0
O222 O 0.35791 0.39596 0.58258 0.0
O223 O 0.33836 0.34722 0.57596 0.0
H224 H 0.25688 0.20906 0.03185 0.0
H225 H 0.23257 0.23518 0.01287 0.0
H226 H 0.1783 0.19065 0.00233 0.0
H227 H 0.20247 0.16433 0.0218 0.0
H228 H 0.19126 0.21579 0.95961 0.0
H229 H 0.16765 0.22242 0.04303 0.0
H230 H 0.17375 0.22558 0.08743 0.0
H231 H 0.21024 0.28218 0.07662 0.0
H232 H 0.20467 0.2792 0.0321 0.0
H233 H 0.12251 0.29772 0.91331 0.0
H234 H 0.13387 0.26734 0.93664 0.0
H235 H 0.18723 0.30252 0.97262 0.0
H236 H 0.1754 0.33297 0.95014 0.0
H237 H 0.16768 0.27865 0.00425 0.0
H238 H 0.19801 0.26988 0.92247 0.0
H239 H 0.19541 0.26707 0.87763 0.0
H240 H 0.15001 0.21529 0.88472 0.0
H241 H 0.15213 0.21795 0.92963 0.0
C242 C 0.23976 0.2048 0.02554 0.0
C243 C 0.23155 0.18468 0.02828 0.0
C244 C 0.22589 0.21975 0.01481 0.0
C245 C 0.20366 0.2148 0.0064 0.0
C246 C 0.19541 0.19469 0.00883 0.0
C247 C 0.20919 0.17975 0.01996 0.0
C248 C 0.18948 0.23077 0.99458 0.0
C249 C 0.18556 0.22935 0.9694 0.0
C250 C 0.18263 0.24856 0.0074 0.0
C251 C 0.18586 0.25051 0.0342 0.0
C252 C 0.17713 0.23546 0.0501 0.0
C253 C 0.18046 0.23723 0.07529 0.0
C254 C 0.19241 0.25405 0.08484 0.0
C255 C 0.201 0.26916 0.0692 0.0
C256 C 0.19772 0.26745 0.04398 0.0
C257 C 0.13656 0.29896 0.92632 0.0
C258 C 0.14817 0.31767 0.92982 0.0
C259 C 0.14308 0.28159 0.93957 0.0
C260 C 0.16162 0.28257 0.95614 0.0
C261 C 0.17284 0.30138 0.95999 0.0
C262 C 0.16613 0.31877 0.94705 0.0
C263 C 0.17001 0.26402 0.96901 0.0
C264 C 0.17288 0.26494 0.99445 0.0
C265 C 0.17626 0.24589 0.95634 0.0
C266 C 0.17499 0.24427 0.92937 0.0
C267 C 0.18733 0.25799 0.91445 0.0
C268 C 0.18597 0.25641 0.88903 0.0
C269 C 0.17249 0.24105 0.87833 0.0
C270 C 0.1604 0.2272 0.89303 0.0
C271 C 0.16168 0.22874 0.91847 0.0
H272 H 0.17146 0.23985 0.85865 0.0
H273 H 0.19498 0.2554 0.10435 0.0
H274 H 0.31183 0.65719 0.43975 0.0
H275 H 0.29723 0.68845 0.45886 0.0
H276 H 0.35137 0.72349 0.42428 0.0
H277 H 0.36596 0.69219 0.40457 0.0
H278 H 0.34104 0.73108 0.47868 0.0
H279 H 0.30644 0.72979 0.39871 0.0
H280 H 0.28611 0.71339 0.36425 0.0
H281 H 0.22772 0.7009 0.41049 0.0
H282 H 0.24786 0.71694 0.44534 0.0
H283 H 0.28213 0.82328 0.51471 0.0
H284 H 0.3044 0.79793 0.49143 0.0
H285 H 0.24753 0.75524 0.49705 0.0
H286 H 0.22504 0.78062 0.51948 0.0
H287 H 0.26329 0.75504 0.45275 0.0
H288 H 0.29776 0.75213 0.5331 0.0
H289 H 0.3175 0.76624 0.56934 0.0
H290 H 0.37509 0.7846 0.5248 0.0
H291 H 0.35555 0.77081 0.48823 0.0
C292 C 0.32078 0.67149 0.43633 0.0
C293 C 0.33997 0.67228 0.42058 0.0
C294 C 0.3124 0.68931 0.44724 0.0
C295 C 0.32321 0.70817 0.44284 0.0
C296 C 0.34287 0.709 0.42784 0.0
C297 C 0.35109 0.69117 0.41657 0.0
C298 C 0.31306 0.72701 0.4532 0.0
C299 C 0.32427 0.73668 0.47276 0.0
C300 C 0.29102 0.73389 0.44566 0.0
C301 C 0.27875 0.72442 0.42468 0.0
C302 C 0.28934 0.72339 0.40158 0.0
C303 C 0.27784 0.71419 0.38197 0.0
C304 C 0.25566 0.70607 0.38519 0.0
C305 C 0.24491 0.70719 0.40802 0.0
C306 C 0.25635 0.71635 0.4277 0.0
C307 C 0.27443 0.80847 0.51096 0.0
C308 C 0.25185 0.80392 0.51888 0.0
C309 C 0.28719 0.79399 0.49775 0.0
C310 C 0.2777 0.77462 0.49266 0.0
C311 C 0.25518 0.77011 0.50065 0.0
C312 C 0.24236 0.78461 0.51354 0.0
C313 C 0.2909 0.75893 0.47885 0.0
C314 C 0.28025 0.74979 0.45853 0.0
C315 C 0.31332 0.75241 0.48594 0.0
C316 C 0.32508 0.76068 0.5079 0.0
C317 C 0.31455 0.75933 0.53101 0.0
C318 C 0.32572 0.76724 0.55162 0.0
C319 C 0.3475 0.77637 0.54937 0.0
C320 C 0.3582 0.77756 0.52651 0.0
C321 C 0.34709 0.7697 0.50584 0.0
H322 H 0.35612 0.78248 0.56534 0.0
H323 H 0.24678 0.69895 0.36999 0.0
H324 H 0.25344 0.78483 0.95283 0.0
H325 H 0.22722 0.76076 0.97288 0.0
H326 H 0.1785 0.8096 0.98619 0.0
H327 H 0.20454 0.83386 0.96551 0.0
H328 H 0.19236 0.78305 0.02858 0.0
H329 H 0.16069 0.77952 0.94822 0.0
H330 H 0.16208 0.77673 0.90335 0.0
H331 H 0.19371 0.71739 0.90915 0.0
H332 H 0.19285 0.71995 0.95407 0.0
H333 H 0.12464 0.70267 0.08154 0.0
H334 H 0.13425 0.73325 0.05762 0.0
H335 H 0.18225 0.69762 0.01452 0.0
H336 H 0.17221 0.66707 0.03769 0.0
H337 H 0.1596 0.72246 0.98602 0.0
H338 H 0.19935 0.72868 0.06389 0.0
H339 H 0.20155 0.73098 0.1088 0.0
H340 H 0.15817 0.78443 0.10776 0.0
H341 H 0.15551 0.78229 0.06283 0.0
C342 C 0.2371 0.79045 0.95991 0.0
C343 C 0.231 0.81119 0.95767 0.0
C344 C 0.22213 0.77668 0.97125 0.0
C345 C 0.20096 0.78346 0.98083 0.0
C346 C 0.19477 0.80416 0.97876 0.0
C347 C 0.2096 0.81792 0.96695 0.0
C348 C 0.18599 0.76874 0.99381 0.0
C349 C 0.1846 0.77005 0.0193 0.0
C350 C 0.17637 0.75168 0.98159 0.0
C351 C 0.17682 0.74999 0.95455 0.0
C352 C 0.16811 0.76594 0.93994 0.0
C353 C 0.16877 0.76439 0.91449 0.0
C354 C 0.17801 0.7469 0.9034 0.0
C355 C 0.18656 0.73092 0.91776 0.0
C356 C 0.18595 0.7324 0.94322 0.0
C357 C 0.13713 0.70139 0.06686 0.0
C358 C 0.14778 0.68252 0.06156 0.0
C359 C 0.14264 0.71886 0.05325 0.0
C360 C 0.15916 0.71777 0.03444 0.0
C361 C 0.16939 0.69883 0.02887 0.0
C362 C 0.16371 0.68138 0.04223 0.0
C363 C 0.1667 0.73631 0.02098 0.0
C364 C 0.16673 0.73572 -0.00465 0.0
C365 C 0.1754 0.75389 0.03311 0.0
C366 C 0.17698 0.75516 0.06007 0.0
C367 C 0.19014 0.74083 0.07327 0.0
C368 C 0.19149 0.74212 0.09871 0.0
C369 C 0.17993 0.7578 0.11113 0.0
C370 C 0.16706 0.77226 0.09812 0.0
C371 C 0.16562 0.77102 0.07267 0.0
H372 H 0.18101 0.75878 0.13083 0.0
H373 H 0.17851 0.74573 0.88369 0.0
H374 H 0.36422 0.291 0.58354 0.0
H375 H 0.34953 0.26011 0.56295 0.0
H376 H 0.29403 0.29552 0.53152 0.0
H377 H 0.30878 0.32639 0.55141 0.0
H378 H 0.28192 0.25707 0.55908 0.0
H379 H 0.33223 0.28481 0.49529 0.0
H380 H 0.36998 0.2963 0.47929 0.0
H381 H 0.39918 0.23713 0.4944 0.0
H382 H 0.36163 0.2254 0.51083 0.0
H383 H 0.22294 0.20428 0.46881 0.0
H384 H 0.24543 0.22882 0.49244 0.0
H385 H 0.30268 0.18635 0.49503 0.0
H386 H 0.28035 0.1618 0.47053 0.0
H387 H 0.31817 0.22383 0.48701 0.0
H388 H 0.26818 0.19386 0.54539 0.0
H389 H 0.23151 0.18113 0.56277 0.0
H390 H 0.20334 0.24201 0.56121 0.0
H391 H 0.23972 0.25507 0.54347 0.0
C392 C 0.34899 0.29217 0.57208 0.0
C393 C 0.33761 0.31106 0.56906 0.0
C394 C 0.34068 0.27458 0.56036 0.0
C395 C 0.32073 0.27566 0.54584 0.0
C396 C 0.30946 0.29448 0.54271 0.0
C397 C 0.31795 0.31208 0.55401 0.0
C398 C 0.3109 0.25715 0.53439 0.0
C399 C 0.28974 0.24979 0.54327 0.0
C400 C 0.32172 0.24726 0.51447 0.0
C401 C 0.34423 0.25433 0.5046 0.0
C402 C 0.34677 0.27433 0.49546 0.0
C403 C 0.36811 0.28087 0.48624 0.0
C404 C 0.38699 0.26748 0.48591 0.0
C405 C 0.38455 0.2475 0.49472 0.0
C406 C 0.36325 0.2409 0.50398 0.0
C407 C 0.24031 0.20012 0.4744 0.0
C408 C 0.24983 0.18106 0.46799 0.0
C409 C 0.25311 0.21413 0.48803 0.0
C410 C 0.27555 0.20923 0.49599 0.0
C411 C 0.28533 0.19037 0.48922 0.0
C412 C 0.27257 0.17637 0.47528 0.0
C413 C 0.28861 0.22411 0.51112 0.0
C414 C 0.31044 0.23078 0.50307 0.0
C415 C 0.27859 0.23316 0.53214 0.0
C416 C 0.25667 0.22542 0.54295 0.0
C417 C 0.25412 0.20452 0.5486 0.0
C418 C 0.23338 0.19724 0.55854 0.0
C419 C 0.2151 0.21075 0.56306 0.0
C420 C 0.21753 0.23157 0.55769 0.0
C421 C 0.23821 0.23892 0.54773 0.0
H422 H 0.19906 0.20509 0.57075 0.0
H423 H 0.4035 0.27256 0.47876 0.0
H424 H 0.70766 0.67194 0.04423 0.0
H425 H 0.68593 0.69857 0.02258 0.0
H426 H 0.74698 0.7134 0.98058 0.0
H427 H 0.76888 0.68751 0.0028 0.0
H428 H 0.72908 0.74654 -0.00402 0.0
H429 H 0.69906 0.68672 0.95627 0.0
H430 H 0.68056 0.65272 0.95371 0.0
H431 H 0.61906 0.67678 0.98728 0.0
H432 H 0.63732 0.71088 0.99032 0.0
H433 H 0.64841 0.78922 0.89598 0.0
H434 H 0.66401 0.75946 0.91758 0.0
H435 H 0.66854 0.79517 0.98379 0.0
H436 H 0.65374 0.82511 0.96211 0.0
H437 H 0.65306 0.73635 0.95558 0.0
H438 H 0.71751 0.78387 0.01353 0.0
H439 H 0.73845 0.81679 0.01147 0.0
H440 H 0.73574 0.81502 0.93314 0.0
H441 H 0.71507 0.78197 0.93474 0.0
C442 C 0.71634 0.68083 0.03025 0.0
C443 C 0.73995 0.67778 0.02526 0.0
C444 C 0.7039 0.69595 0.01781 0.0
C445 C 0.71478 0.70792 -0.00017 0.0
C446 C 0.73824 0.70447 0.99448 0.0
C447 C 0.75073 0.68965 0.00716 0.0
C448 C 0.70225 0.72474 0.98732 0.0
C449 C 0.71245 0.74426 0.98718 0.0
C450 C 0.68067 0.72177 0.97557 0.0
C451 C 0.66964 0.7013 0.97374 0.0
C452 C 0.68166 0.68472 0.96328 0.0
C453 C 0.6712 0.66544 0.96171 0.0
C454 C 0.64868 0.66257 0.97039 0.0
C455 C 0.63653 0.67901 0.9806 0.0
C456 C 0.64691 0.69832 0.98223 0.0
C457 C 0.65253 0.79065 0.9152 0.0
C458 C 0.65022 0.80954 0.92729 0.0
C459 C 0.66134 0.77362 0.92754 0.0
C460 C 0.66782 0.77521 0.95216 0.0
C461 C 0.66412 0.79373 0.96464 0.0
C462 C 0.65564 0.81081 0.95225 0.0
C463 C 0.67996 0.75803 0.96432 0.0
C464 C 0.66966 0.73854 0.96448 0.0
C465 C 0.70184 0.76081 0.97545 0.0
C466 C 0.71453 0.78057 0.97429 0.0
C467 C 0.72146 0.79048 -0.00412 0.0
C468 C 0.73327 0.80917 0.99479 0.0
C469 C 0.73835 0.81803 0.97219 0.0
C470 C 0.73172 0.80818 0.95063 0.0
C471 C 0.71994 0.78949 0.95162 0.0
H472 H 0.74747 0.8325 0.97139 0.0
H473 H 0.64061 0.64764 0.96916 0.0
H474 H 0.85609 0.20201 0.39316 0.0
H475 H 0.84512 0.23414 0.41326 0.0
H476 H 0.81259 0.19993 0.47129 0.0
H477 H 0.82371 0.1679 0.45158 0.0
H478 H 0.80286 0.24816 0.42196 0.0
H479 H 0.81543 0.22546 0.52416 0.0
H480 H 0.84257 0.20515 0.54908 0.0
H481 H 0.89571 0.21336 0.49509 0.0
H482 H 0.86902 0.23397 0.47001 0.0
H483 H 0.72491 0.29658 0.50093 0.0
H484 H 0.7497 0.27276 0.47862 0.0
H485 H 0.81036 0.30411 0.50546 0.0
H486 H 0.78559 0.32803 0.52807 0.0
H487 H 0.81442 0.26305 0.51 0.0
H488 H 0.7958 0.30984 0.44696 0.0
H489 H 0.77076 0.33165 0.42142 0.0
H490 H 0.73446 0.27841 0.39571 0.0
H491 H 0.75905 0.25629 0.42138 0.0
C492 C 0.84684 0.20136 0.41035 0.0
C493 C 0.84071 0.18244 0.42078 0.0
C494 C 0.84058 0.21971 0.42178 0.0
C495 C 0.82825 0.21942 0.44388 0.0
C496 C 0.82248 0.20053 0.45448 0.0
C497 C 0.82872 0.18222 0.4431 0.0
C498 C 0.81986 0.2387 0.4551 0.0
C499 C 0.80557 0.25154 0.44115 0.0
C500 C 0.82387 0.24337 0.47998 0.0
C501 C 0.84015 0.23117 0.49513 0.0
C502 C 0.83295 0.22304 0.51766 0.0
C503 C 0.84825 0.21145 0.53181 0.0
C504 C 0.87083 0.20793 0.52365 0.0
C505 C 0.87819 0.21604 0.50136 0.0
C506 C 0.86297 0.22766 0.48715 0.0
C507 C 0.74352 0.29849 0.50202 0.0
C508 C 0.75331 0.31418 0.51624 0.0
C509 C 0.75766 0.28493 0.48915 0.0
C510 C 0.78185 0.28684 0.49017 0.0
C511 C 0.79172 0.30246 0.50438 0.0
C512 C 0.77755 0.3161 0.51723 0.0
C513 C 0.79664 0.2719 0.4771 0.0
C514 C 0.81208 0.25988 0.49071 0.0
C515 C 0.79402 0.2682 0.4518 0.0
C516 C 0.77921 0.28141 0.43622 0.0
C517 C 0.78238 0.30279 0.43599 0.0
C518 C 0.76827 0.31521 0.42147 0.0
C519 C 0.75101 0.30642 0.40698 0.0
C520 C 0.74784 0.28519 0.40695 0.0
C521 C 0.76188 0.2727 0.42145 0.0
H522 H 0.74011 0.31606 0.39575 0.0
H523 H 0.88264 0.19894 0.53462 0.0
H524 H 0.70516 0.32008 0.96008 0.0
H525 H 0.6816 0.29388 0.98042 0.0
H526 H 0.73654 0.24984 0.9707 0.0
H527 H 0.76032 0.27597 0.95077 0.0
H528 H 0.68992 0.23568 0.9583 0.0
H529 H 0.73295 0.27047 0.02288 0.0
H530 H 0.74484 0.3011 0.04612 0.0
H531 H 0.67379 0.31364 0.0639 0.0
H532 H 0.66146 0.2832 0.04045 0.0
H533 H 0.67424 0.15481 0.03985 0.0
H534 H 0.6872 0.18361 0.01517 0.0
H535 H 0.6357 0.22237 0.04892 0.0
H536 H 0.6232 0.19362 0.0745 0.0
H537 H 0.67437 0.24189 0.04713 0.0
H538 H 0.63078 0.2055 0.98817 0.0
H539 H 0.61706 0.17584 0.9643 0.0
H540 H 0.68522 0.16754 0.9345 0.0
H541 H 0.69945 0.19697 0.95846 0.0
C542 C 0.71215 0.30478 0.96219 0.0
C543 C 0.7346 0.30005 0.95397 0.0
C544 C 0.6987 0.28988 0.97379 0.0
C545 C 0.70742 0.27002 0.97702 0.0
C546 C 0.72956 0.26512 0.96827 0.0
C547 C 0.74314 0.28006 0.95703 0.0
C548 C 0.69393 0.25441 0.99036 0.0
C549 C 0.68655 0.23691 0.97774 0.0
C550 C 0.68883 0.25654 0.01546 0.0
C551 C 0.69627 0.27472 0.02967 0.0
C552 C 0.71985 0.27986 0.03156 0.0
C553 C 0.72667 0.29717 0.04481 0.0
C554 C 0.71007 0.30935 0.05641 0.0
C555 C 0.68662 0.30421 0.05486 0.0
C556 C 0.67971 0.28694 0.0416 0.0
C557 C 0.66553 0.16942 0.04191 0.0
C558 C 0.64769 0.17197 0.05908 0.0
C559 C 0.67285 0.18586 0.02764 0.0
C560 C 0.66213 0.20509 0.02981 0.0
C561 C 0.64415 0.20765 0.04684 0.0
C562 C 0.63702 0.19123 0.06142 0.0
C563 C 0.67075 0.22268 0.01526 0.0
C564 C 0.67725 0.24066 0.02761 0.0
C565 C 0.67468 0.22112 0.98978 0.0
C566 C 0.66621 0.20339 0.97526 0.0
C567 C 0.64289 0.19727 0.97666 0.0
C568 C 0.63501 0.1805 0.96309 0.0
C569 C 0.65027 0.16979 0.94793 0.0
C570 C 0.67342 0.17585 0.94626 0.0
C571 C 0.6814 0.19259 0.95981 0.0
H572 H 0.64413 0.15682 0.93743 0.0
H573 H 0.71539 0.32274 0.06666 0.0
H574 H 0.82794 0.83877 0.53872 0.0
H575 H 0.81358 0.80869 0.51693 0.0
H576 H 0.83978 0.76954 0.57401 0.0
H577 H 0.8541 0.79964 0.59609 0.0
H578 H 0.83351 0.77401 0.49844 0.0
H579 H 0.79867 0.73186 0.58294 0.0
H580 H 0.78598 0.73947 0.62504 0.0
H581 H 0.76578 0.80007 0.60324 0.0
H582 H 0.77806 0.79272 0.56097 0.0
H583 H 0.78667 0.67746 0.46036 0.0
H584 H 0.80889 0.70303 0.48332 0.0
H585 H 0.74574 0.73543 0.50021 0.0
H586 H 0.72346 0.70995 0.47761 0.0
H587 H 0.77325 0.73234 0.53982 0.0
H588 H 0.78074 0.75187 0.45501 0.0
H589 H 0.79101 0.74632 0.41178 0.0
H590 H 0.86158 0.73451 0.4321 0.0
H591 H 0.85164 0.73974 0.47551 0.0
C592 C 0.83084 0.82375 0.54655 0.0
C593 C 0.84195 0.82157 0.56922 0.0
C594 C 0.82274 0.80658 0.53401 0.0
C595 C 0.82546 0.78695 0.54397 0.0
C596 C 0.83734 0.78461 0.56615 0.0
C597 C 0.84551 0.8018 0.5787 0.0
C598 C 0.8145 0.76918 0.5318 0.0
C599 C 0.8205 0.76475 0.50754 0.0
C600 C 0.79735 0.7573 0.54363 0.0
C601 C 0.78956 0.7618 0.56889 0.0
C602 C 0.79146 0.74678 0.58714 0.0
C603 C 0.78434 0.75105 0.61102 0.0
C604 C 0.77517 0.77027 0.61683 0.0
C605 C 0.77298 0.78522 0.59874 0.0
C606 C 0.78004 0.78102 0.57482 0.0
C607 C 0.77754 0.69001 0.46904 0.0
C608 C 0.75334 0.69175 0.46712 0.0
C609 C 0.79025 0.7046 0.48209 0.0
C610 C 0.77894 0.72115 0.49334 0.0
C611 C 0.75477 0.72273 0.49173 0.0
C612 C 0.74209 0.70821 0.47869 0.0
C613 C 0.79216 0.73722 0.50638 0.0
C614 C 0.78658 0.74133 0.53084 0.0
C615 C 0.80939 0.74903 0.49459 0.0
C616 C 0.81539 0.74596 0.46851 0.0
C617 C 0.79841 0.74793 0.45027 0.0
C618 C 0.80417 0.74487 0.42574 0.0
C619 C 0.82692 0.74 0.41921 0.0
C620 C 0.84396 0.73824 0.4372 0.0
C621 C 0.83827 0.74126 0.46176 0.0
H622 H 0.83135 0.73764 0.40021 0.0
H623 H 0.76971 0.77355 0.63534 0.0
H624 H 0.27019 0.0703 0.05575 0.0
H625 H 0.26912 0.0341 0.04469 0.0
H626 H 0.27935 0.04983 0.96898 0.0
H627 H 0.28037 0.08623 0.97982 0.0
H628 H 0.24571 0.01987 0.97576 0.0
H629 H 0.32405 0.03333 0.00103 0.0
H630 H 0.35444 0.04581 0.02895 0.0
H631 H 0.33176 0.00342 0.08391 0.0
H632 H 0.301 0.99088 0.05642 0.0
H633 H 0.27989 0.92289 0.93097 0.0
H634 H 0.27758 0.95894 0.94234 0.0
H635 H 0.27445 0.94215 0.01846 0.0
H636 H 0.27738 0.90594 0.00726 0.0
H637 H 0.30368 0.97274 0.01204 0.0
H638 H 0.22588 0.95861 0.98699 0.0
H639 H 0.19515 0.94609 0.95951 0.0
H640 H 0.21602 0.98948 0.90488 0.0
H641 H 0.24709 0.00208 0.93191 0.0
C642 C 0.27209 0.06613 0.0367 0.0
C643 C 0.27551 0.08118 0.01867 0.0
C644 C 0.27154 0.04541 0.03045 0.0
C645 C 0.27443 0.03932 0.00608 0.0
C646 C 0.27715 0.05427 0.98791 0.0
C647 C 0.27779 0.07504 0.99416 0.0
C648 C 0.27513 0.01731 -0.00031 0.0
C649 C 0.25854 0.00957 0.98343 0.0
C650 C 0.29152 0.00386 0.01024 0.0
C651 C 0.31008 0.01132 0.02676 0.0
C652 C 0.32542 0.02679 0.01914 0.0
C653 C 0.34274 0.03385 0.03488 0.0
C654 C 0.34499 0.02546 0.05821 0.0
C655 C 0.32997 0.00993 0.06584 0.0
C656 C 0.31261 0.00283 0.05019 0.0
C657 C 0.2786 0.92682 0.95015 0.0
C658 C 0.27875 0.91152 0.96822 0.0
C659 C 0.27717 0.94746 0.95661 0.0
C660 C 0.27549 0.95323 0.98123 0.0
C661 C 0.27567 0.93802 -0.00066 0.0
C662 C 0.27731 0.91734 0.9929 0.0
C663 C 0.27422 0.97519 0.98807 0.0
C664 C 0.29076 0.98296 0.00441 0.0
C665 C 0.2577 0.98863 0.97767 0.0
C666 C 0.23894 0.98116 0.96141 0.0
C667 C 0.22402 0.96538 0.96905 0.0
C668 C 0.20653 0.95828 0.95357 0.0
C669 C 0.20367 0.96695 0.93044 0.0
C670 C 0.21827 0.98277 0.92278 0.0
C671 C 0.23581 0.98991 0.93819 0.0
H672 H 0.19012 0.96143 0.91848 0.0
H673 H 0.35841 0.03094 0.07037 0.0
H674 H 0.20685 0.91766 0.55272 0.0
H675 H 0.20773 0.95407 0.54272 0.0
H676 H 0.21072 0.93937 0.466 0.0
H677 H 0.2096 0.90271 0.4758 0.0
H678 H 0.24299 0.97021 0.4819 0.0
H679 H 0.16199 0.95425 0.4861 0.0
H680 H 0.12621 0.94052 0.50442 0.0
H681 H 0.1336 0.98157 0.56524 0.0
H682 H 0.16966 0.99535 0.54746 0.0
H683 H 0.21532 0.06822 0.43482 0.0
H684 H 0.21707 0.03186 0.44468 0.0
H685 H 0.20369 0.04568 0.52045 0.0
H686 H 0.20145 0.08219 0.51068 0.0
H687 H 0.177 0.01496 0.50499 0.0
H688 H 0.2577 0.03124 0.5011 0.0
H689 H 0.29344 0.04528 0.48298 0.0
H690 H 0.28708 0.00385 0.42238 0.0
H691 H 0.25111 0.98975 0.43997 0.0
C692 C 0.20781 0.92211 0.5337 0.0
C693 C 0.20812 0.90729 0.51502 0.0
C694 C 0.20822 0.94293 0.52805 0.0
C695 C 0.20913 0.94932 0.50365 0.0
C696 C 0.20998 0.93464 0.48494 0.0
C697 C 0.20927 0.91376 0.49056 0.0
C698 C 0.20894 0.97141 0.49783 0.0
C699 C 0.22847 0.98 0.4866 0.0
C700 C 0.19019 0.98413 0.50464 0.0
C701 C 0.16867 0.97569 0.51555 0.0
C702 C 0.15614 0.9602 0.50351 0.0
C703 C 0.13577 0.95244 0.51377 0.0
C704 C 0.12765 0.96016 0.53599 0.0
C705 C 0.13992 0.97561 0.54803 0.0
C706 C 0.16032 0.98341 0.53787 0.0
C707 C 0.2129 0.0636 0.45364 0.0
C708 C 0.20824 0.07815 0.47198 0.0
C709 C 0.21402 0.04278 0.45925 0.0
C710 C 0.21076 0.03608 0.48333 0.0
C711 C 0.20629 0.05055 0.50174 0.0
C712 C 0.20508 0.0714 0.49613 0.0
C713 C 0.21113 0.01391 0.48908 0.0
C714 C 0.19159 0.00525 0.5003 0.0
C715 C 0.22993 0.00116 0.48236 0.0
C716 C 0.25159 0.00957 0.47175 0.0
C717 C 0.26382 0.02524 0.48381 0.0
C718 C 0.28414 0.03318 0.47365 0.0
C719 C 0.29249 0.0255 0.45151 0.0
C720 C 0.28057 0.00981 0.43952 0.0
C721 C 0.26023 0.00182 0.44958 0.0
H722 H 0.30823 0.03167 0.44368 0.0
H723 H 0.11179 0.95426 0.54379 0.0
H724 H 0.63817 0.90751 0.95544 0.0
H725 H 0.64012 0.93332 0.98765 0.0
H726 H 0.63039 0.9811 0.93428 0.0
H727 H 0.62863 0.95539 0.90179 0.0
H728 H 0.66434 0.9905 0.96768 0.0
H729 H 0.58561 0.96486 0.96885 0.0
H730 H 0.55568 0.93797 0.97163 0.0
H731 H 0.58082 0.9208 0.04249 0.0
H732 H 0.6111 0.94738 0.03998 0.0
H733 H 0.62915 0.07338 0.0409 0.0
H734 H 0.6324 0.04575 0.01121 0.0
H735 H 0.63572 0.00154 0.06963 0.0
H736 H 0.63186 0.02919 0.09963 0.0
H737 H 0.60721 0.98878 0.03538 0.0
H738 H 0.68431 0.01458 0.03623 0.0
H739 H 0.71518 0.04065 0.03448 0.0
H740 H 0.69496 0.05643 0.96145 0.0
H741 H 0.66374 0.03065 0.96287 0.0
C742 C 0.63652 0.92351 0.95048 0.0
C743 C 0.63309 0.92938 0.92602 0.0
C744 C 0.63758 0.93822 0.96895 0.0
C745 C 0.63511 0.95907 0.96337 0.0
C746 C 0.63227 0.96505 0.93895 0.0
C747 C 0.63121 0.95034 0.92043 0.0
C748 C 0.63507 0.97465 0.98304 0.0
C749 C 0.65171 0.99029 0.98236 0.0
C750 C 0.61907 0.97389 0.00261 0.0
C751 C 0.60077 0.95798 0.00412 0.0
C752 C 0.58487 0.95524 0.98494 0.0
C753 C 0.56782 0.94007 0.98648 0.0
C754 C 0.5664 0.92766 0.0072 0.0
C755 C 0.58197 0.93041 0.02644 0.0
C756 C 0.59906 0.94553 0.02497 0.0
C757 C 0.63068 0.05781 0.04751 0.0
C758 C 0.63029 0.0535 0.07267 0.0
C759 C 0.63267 0.04202 0.03047 0.0
C760 C 0.63468 0.0216 0.03819 0.0
C761 C 0.63427 0.01721 0.06329 0.0
C762 C 0.6321 0.03302 0.0804 0.0
C763 C 0.63632 0.00486 0.01993 0.0
C764 C 0.61997 0.98897 0.02084 0.0
C765 C 0.65275 0.00528 0.00072 0.0
C766 C 0.67155 0.02078 -0.00026 0.0
C767 C 0.68633 0.02372 0.01986 0.0
C768 C 0.70391 0.03842 0.01891 0.0
C769 C 0.707 0.05022 -0.00211 0.0
C770 C 0.69253 0.04729 0.97773 0.0
C771 C 0.67491 0.03262 0.97859 0.0
H772 H 0.72062 0.0616 -0.00281 0.0
H773 H 0.5532 0.91593 0.0084 0.0
H774 H 0.85017 0.03491 0.4021 0.0
H775 H 0.84745 0.01041 0.43572 0.0
H776 H 0.84637 0.06025 0.48751 0.0
H777 H 0.84922 0.08485 0.45412 0.0
H778 H 0.87763 0.03111 0.49984 0.0
H779 H 0.79783 0.0335 0.47669 0.0
H780 H 0.7646 0.03186 0.4485 0.0
H781 H 0.78142 0.96947 0.43088 0.0
H782 H 0.81496 0.97083 0.45871 0.0
H783 H 0.85682 0.96682 0.60201 0.0
H784 H 0.85202 0.99369 0.57131 0.0
H785 H 0.84976 0.94784 0.51453 0.0
H786 H 0.85404 0.92093 0.54502 0.0
H787 H 0.81801 0.97665 0.50651 0.0
H788 H 0.89933 0.97509 0.52658 0.0
H789 H 0.93306 0.97649 0.55414 0.0
H790 H 0.91376 0.03716 0.57677 0.0
H791 H 0.87972 0.03601 0.54955 0.0
C792 C 0.84918 0.04068 0.42062 0.0
C793 C 0.84998 0.06185 0.4254 0.0
C794 C 0.84751 0.02666 0.4398 0.0
C795 C 0.84656 0.03354 0.46408 0.0
C796 C 0.84707 0.05464 0.4689 0.0
C797 C 0.84866 0.06867 0.44976 0.0
C798 C 0.84626 0.0187 0.48451 0.0
C799 C 0.86436 0.01942 0.50156 0.0
C800 C 0.82922 0.00321 0.48639 0.0
C801 C 0.80904 0.00233 0.46963 0.0
C802 C 0.79457 0.01948 0.46665 0.0
C803 C 0.77565 0.01859 0.45077 0.0
C804 C 0.77094 0.00059 0.43786 0.0
C805 C 0.7851 0.98341 0.44087 0.0
C806 C 0.80406 0.98423 0.45672 0.0
C807 C 0.85522 0.96245 0.583 0.0
C808 C 0.85598 0.94173 0.57596 0.0
C809 C 0.85252 0.97783 0.56548 0.0
C810 C 0.85082 0.97277 0.54061 0.0
C811 C 0.85104 0.95209 0.53362 0.0
C812 C 0.85359 0.93673 0.55109 0.0
C813 C 0.8495 0.98895 0.52169 0.0
C814 C 0.83114 0.98846 0.50491 0.0
C815 C 0.86636 0.00462 0.51996 0.0
C816 C 0.88685 0.00537 0.53624 0.0
C817 C 0.90219 0.98866 0.53757 0.0
C818 C 0.92137 0.98942 0.55311 0.0
C819 C 0.92551 0.00688 0.56725 0.0
C820 C 0.91051 0.02364 0.56583 0.0
C821 C 0.89128 0.02294 0.55035 0.0
H822 H 0.94037 0.00744 0.57927 0.0
H823 H 0.75628 -7e-05 0.42558 0.0
H824 H 0.77667 0.39753 0.00808 0.0
H825 H 0.77417 0.43348 0.02064 0.0
H826 H 0.76705 0.45168 0.94533 0.0
H827 H 0.7696 0.41595 0.93258 0.0
H828 H 0.80056 0.47333 0.96936 0.0
H829 H 0.72117 0.4533 0.98281 0.0
H830 H 0.68996 0.43208 0.00025 0.0
H831 H 0.71209 0.44794 0.07269 0.0
H832 H 0.74366 0.46904 0.05567 0.0
H833 H 0.77394 0.57741 0.9824 0.0
H834 H 0.77072 0.54103 0.97269 0.0
H835 H 0.77301 0.52629 0.04943 0.0
H836 H 0.77568 0.56275 0.05938 0.0
H837 H 0.74234 0.50245 0.02635 0.0
H838 H 0.82133 0.52197 0.01423 0.0
H839 H 0.85355 0.54269 -0.00199 0.0
H840 H 0.83379 0.527 0.92476 0.0
H841 H 0.80123 0.5064 0.94054 0.0
C842 C 0.77437 0.40917 0.9942 0.0
C843 C 0.77342 0.40386 0.96931 0.0
C844 C 0.77286 0.42968 0.00143 0.0
C845 C 0.77036 0.44519 0.9839 0.0
C846 C 0.76901 0.43991 0.95912 0.0
C847 C 0.77042 0.41946 0.95189 0.0
C848 C 0.77032 0.46704 0.99113 0.0
C849 C 0.78764 0.47977 0.98155 0.0
C850 C 0.75394 0.47521 0.00771 0.0
C851 C 0.73492 0.46258 0.01796 0.0
C852 C 0.71951 0.45212 0.00246 0.0
C853 C 0.70172 0.44014 0.01227 0.0
C854 C 0.69908 0.43861 0.03757 0.0
C855 C 0.71418 0.44911 0.0531 0.0
C856 C 0.73201 0.4611 0.04338 0.0
C857 C 0.77359 0.56646 -0.00275 0.0
C858 C 0.7753 0.57297 0.02166 0.0
C859 C 0.77182 0.54566 0.99166 0.0
C860 C 0.77209 0.53094 0.01032 0.0
C861 C 0.77288 0.5374 0.03475 0.0
C862 C 0.77445 0.55825 0.04038 0.0
C863 C 0.77237 0.50881 0.00424 0.0
C864 C 0.75523 0.49601 0.01413 0.0
C865 C 0.78909 0.50048 0.98812 0.0
C866 C 0.80871 0.5128 0.97856 0.0
C867 C 0.82375 0.52306 0.99465 0.0
C868 C 0.84209 0.53477 0.98554 0.0
C869 C 0.84568 0.5362 0.96037 0.0
C870 C 0.83097 0.52589 0.94426 0.0
C871 C 0.81258 0.51418 0.95327 0.0
H872 H 0.8599 0.54527 0.95335 0.0
H873 H 0.6853 0.42933 0.04513 0.0
H874 H 0.71433 0.41476 0.47856 0.0
H875 H 0.71743 0.45161 0.47114 0.0
H876 H 0.70946 0.46334 0.5482 0.0
H877 H 0.70647 0.42651 0.55587 0.0
H878 H 0.68066 0.4875 0.51808 0.0
H879 H 0.76088 0.46838 0.52489 0.0
H880 H 0.79565 0.44803 0.51506 0.0
H881 H 0.79158 0.46727 0.44023 0.0
H882 H 0.75657 0.4875 0.44954 0.0
H883 H 0.70674 0.59331 0.51318 0.0
H884 H 0.70834 0.557 0.52398 0.0
H885 H 0.72403 0.54164 0.44913 0.0
H886 H 0.72286 0.57785 0.43822 0.0
H887 H 0.74975 0.51935 0.47978 0.0
H888 H 0.66961 0.53651 0.47082 0.0
H889 H 0.63383 0.55617 0.47836 0.0
H890 H 0.63627 0.5399 0.55426 0.0
H891 H 0.67228 0.52037 0.54723 0.0
C892 C 0.71332 0.42516 0.49395 0.0
C893 C 0.71018 0.41771 0.51781 0.0
C894 C 0.71517 0.44618 0.48968 0.0
C895 C 0.71379 0.46011 0.50915 0.0
C896 C 0.71059 0.45278 0.53296 0.0
C897 C 0.70898 0.43174 0.53729 0.0
C898 C 0.71521 0.48239 0.50456 0.0
C899 C 0.69589 0.49457 0.5101 0.0
C900 C 0.73485 0.49138 0.49348 0.0
C901 C 0.75598 0.47931 0.48787 0.0
C902 C 0.76729 0.46814 0.50629 0.0
C903 C 0.78706 0.45665 0.50083 0.0
C904 C 0.79579 0.45632 0.47703 0.0
C905 C 0.78479 0.46752 0.45866 0.0
C906 C 0.76499 0.47902 0.46402 0.0
C907 C 0.71073 0.58223 0.49905 0.0
C908 C 0.71451 0.58848 0.4748 0.0
C909 C 0.71154 0.56149 0.50524 0.0
C910 C 0.71597 0.54663 0.48727 0.0
C911 C 0.72054 0.55286 0.46326 0.0
C912 C 0.71979 0.57358 0.45706 0.0
C913 C 0.71518 0.52453 0.4933 0.0
C914 C 0.73457 0.51235 0.48796 0.0
C915 C 0.69547 0.51548 0.50425 0.0
C916 C 0.67379 0.52717 0.50855 0.0
C917 C 0.66263 0.53727 0.48916 0.0
C918 C 0.64229 0.54836 0.49333 0.0
C919 C 0.63282 0.54933 0.51679 0.0
C920 C 0.64365 0.53916 0.53611 0.0
C921 C 0.66402 0.52807 0.53204 0.0
H922 H 0.61707 0.55793 0.51997 0.0
H923 H 0.8111 0.44741 0.47283 0.0
H924 H 0.14254 0.53718 0.09068 0.0
H925 H 0.14474 0.51131 0.05839 0.0
H926 H 0.13609 0.55837 0.00392 0.0
H927 H 0.13387 0.58433 0.03597 0.0
H928 H 0.10688 0.52552 -0.00301 0.0
H929 H 0.18773 0.53736 0.01118 0.0
H930 H 0.22324 0.54038 0.0359 0.0
H931 H 0.21654 0.47758 0.05814 0.0
H932 H 0.18078 0.47426 0.03382 0.0
H933 H 0.12953 0.46264 0.89413 0.0
H934 H 0.13267 0.49009 0.92438 0.0
H935 H 0.14443 0.44536 0.98096 0.0
H936 H 0.1416 0.41786 0.9509 0.0
H937 H 0.1731 0.47792 0.98587 0.0
H938 H 0.09175 0.46626 0.97406 0.0
H939 H 0.05575 0.4627 0.95022 0.0
H940 H 0.0628 0.52458 0.92465 0.0
H941 H 0.09904 0.52841 0.9481 0.0
C942 C 0.14123 0.54205 0.07183 0.0
C943 C 0.13801 0.56282 0.06592 0.0
C944 C 0.14259 0.52726 0.05341 0.0
C945 C 0.14069 0.53298 0.0288 0.0
C946 C 0.1376 0.55368 0.02282 0.0
C947 C 0.13641 0.56848 0.04119 0.0
C948 C 0.14106 0.51728 0.00929 0.0
C949 C 0.12151 0.51532 0.99428 0.0
C950 C 0.15993 0.50369 0.00623 0.0
C951 C 0.18144 0.50563 0.02086 0.0
C952 C 0.19371 0.52424 0.02151 0.0
C953 C 0.21391 0.526 0.03542 0.0
C954 C 0.22211 0.5092 0.04864 0.0
C955 C 0.21015 0.49059 0.04792 0.0
C956 C 0.18993 0.48876 0.03406 0.0
C957 C 0.13291 0.45863 0.91298 0.0
C958 C 0.13515 0.43803 0.92011 0.0
C959 C 0.13464 0.47434 0.93024 0.0
C960 C 0.13852 0.46972 0.95494 0.0
C961 C 0.14141 0.44924 0.96199 0.0
C962 C 0.13968 0.43354 0.94478 0.0
C963 C 0.13891 0.48616 0.97359 0.0
C964 C 0.15855 0.48822 0.98848 0.0
C965 C 0.12006 0.49978 0.97667 0.0
C966 C 0.09824 0.49754 0.96261 0.0
C967 C 0.08573 0.47905 0.96319 0.0
C968 C 0.06526 0.477 0.94978 0.0
C969 C 0.05703 0.49338 0.93587 0.0
C970 C 0.06922 0.51188 0.9354 0.0
C971 C 0.08972 0.51401 0.94876 0.0
H972 H 0.04118 0.49177 0.92551 0.0
H973 H 0.23776 0.51059 0.05938 0.0
H974 H 0.35965 0.52627 0.395 0.0
H975 H 0.35607 0.5002 0.42688 0.0
H976 H 0.3485 0.54763 0.48123 0.0
H977 H 0.3522 0.57374 0.44966 0.0
H978 H 0.3805 0.51943 0.49428 0.0
H979 H 0.30244 0.51952 0.46425 0.0
H980 H 0.27181 0.51723 0.43303 0.0
H981 H 0.29345 0.45609 0.41507 0.0
H982 H 0.32445 0.45811 0.44597 0.0
H983 H 0.35204 0.45622 0.59419 0.0
H984 H 0.34929 0.48216 0.5622 0.0
H985 H 0.35402 0.435 0.50715 0.0
H986 H 0.35626 0.40891 0.53898 0.0
H987 H 0.32262 0.46323 0.49452 0.0
H988 H 0.40135 0.4634 0.52303 0.0
H989 H 0.43241 0.46544 0.55382 0.0
H990 H 0.41007 0.52593 0.57387 0.0
H991 H 0.37865 0.52414 0.54341 0.0
C992 C 0.35708 0.53115 0.41371 0.0
C993 C 0.3563 0.55209 0.41978 0.0
C994 C 0.35493 0.51624 0.43188 0.0
C995 C 0.3519 0.52201 0.45638 0.0
C996 C 0.35084 0.54287 0.46243 0.0
C997 C 0.35292 0.55776 0.44432 0.0
C998 C 0.35098 0.50639 0.47593 0.0
C999 C 0.36762 0.50732 0.49454 0.0
C1000 C 0.33455 0.49031 0.47586 0.0
C1001 C 0.31592 0.48905 0.45726 0.0
C1002 C 0.30081 0.50565 0.4535 0.0
C1003 C 0.28335 0.50439 0.43589 0.0
C1004 C 0.28072 0.48655 0.42203 0.0
C1005 C 0.29552 0.46991 0.4258 0.0
C1006 C 0.31303 0.4711 0.44337 0.0
C1007 C 0.35237 0.45134 0.57528 0.0
C1008 C 0.35458 0.4305 0.56914 0.0
C1009 C 0.35085 0.46619 0.55702 0.0
C1010 C 0.35182 0.46052 0.5323 0.0
C1011 C 0.35329 0.4397 0.52611 0.0
C1012 C 0.35465 0.42482 0.54435 0.0
C1013 C 0.3521 0.47633 0.5129 0.0
C1014 C 0.33542 0.4754 0.49429 0.0
C1015 C 0.36857 0.49239 0.51287 0.0
C1016 C 0.38751 0.49355 0.53111 0.0
C1017 C 0.40296 0.47708 0.53413 0.0
C1018 C 0.42064 0.4782 0.5515 0.0
C1019 C 0.42317 0.49579 0.56584 0.0
C1020 C 0.40806 0.51231 0.56278 0.0
C1021 C 0.39033 0.51125 0.54545 0.0
H1022 H 0.43688 0.49663 0.57928 0.0
H1023 H 0.26719 0.4856 0.40841 0.0
H1024 H 0.53254 0.1032 0.14878 0.0
H1025 H 0.49201 0.11091 0.1398 0.0
H1026 H 0.51297 0.14565 0.07654 0.0
H1027 H 0.5535 0.13845 0.08568 0.0
H1028 H 0.47909 0.16485 0.09984 0.0
H1029 H 0.49294 0.09631 0.07136 0.0
H1030 H 0.5053 0.06024 0.07465 0.0
H1031 H 0.45419 0.04981 0.13026 0.0
H1032 H 0.44173 0.08591 0.12752 0.0
H1033 H 0.37415 0.16123 0.03118 0.0
H1034 H 0.41391 0.15757 0.0459 0.0
H1035 H 0.38879 0.12895 0.11173 0.0
H1036 H 0.34898 0.13255 0.09725 0.0
H1037 H 0.42404 0.10714 0.08919 0.0
H1038 H 0.40882 0.17612 0.115 0.0
H1039 H 0.39651 0.21203 0.10983 0.0
H1040 H 0.4503 0.22142 0.05684 0.0
H1041 H 0.46274 0.18546 0.06143 0.0
C1042 C 0.52854 0.11258 0.13303 0.0
C1043 C 0.54626 0.12008 0.11785 0.0
C1044 C 0.50536 0.11692 0.12788 0.0
C1045 C 0.49946 0.12859 0.10728 0.0
C1046 C 0.51713 0.13658 0.0925 0.0
C1047 C 0.5403 0.13239 0.09773 0.0
C1048 C 0.47488 0.13205 0.10069 0.0
C1049 C 0.4671 0.15223 0.09728 0.0
C1050 C 0.45915 0.11558 0.09777 0.0
C1051 C 0.46658 0.09387 0.09943 0.0
C1052 C 0.48447 0.08636 0.08443 0.0
C1053 C 0.49147 0.06591 0.08617 0.0
C1054 C 0.48058 0.05276 0.1027 0.0
C1055 C 0.46263 0.06003 0.11749 0.0
C1056 C 0.45558 0.08048 0.11584 0.0
C1057 C 0.37705 0.15428 0.04886 0.0
C1058 C 0.35839 0.14716 0.06302 0.0
C1059 C 0.39977 0.15229 0.05728 0.0
C1060 C 0.40422 0.14309 0.07995 0.0
C1061 C 0.38566 0.13611 0.0942 0.0
C1062 C 0.36294 0.13825 0.08591 0.0
C1063 C 0.42832 0.13991 0.08827 0.0
C1064 C 0.436 0.11976 0.09193 0.0
C1065 C 0.44398 0.15639 0.09117 0.0
C1066 C 0.43657 0.17803 0.0884 0.0
C1067 C 0.4179 0.18579 0.10209 0.0
C1068 C 0.41093 0.20617 0.09929 0.0
C1069 C 0.42258 0.21898 0.08297 0.0
C1070 C 0.44128 0.21146 0.06946 0.0
C1071 C 0.44831 0.19109 0.07217 0.0
H1072 H 0.41715 0.23476 0.08084 0.0
H1073 H 0.48602 0.03693 0.10402 0.0
H1074 H 0.9347 0.8599 0.58837 0.0
H1075 H 0.9747 0.8511 0.57904 0.0
H1076 H -0.00253 0.88308 0.64373 0.0
H1077 H 0.95734 0.89254 0.65285 0.0
H1078 H 0.02435 0.89239 0.60684 0.0
H1079 H -0.00359 0.82986 0.64069 0.0
H1080 H 0.96976 0.80067 0.64595 0.0
H1081 H 0.98218 0.78189 0.57192 0.0
H1082 H 0.00867 0.81114 0.56609 0.0
H1083 H 0.13871 0.85341 0.59669 0.0
H1084 H 0.09963 0.85868 0.61255 0.0
H1085 H 0.07089 0.836 0.54507 0.0
H1086 H 0.10995 0.83061 0.52896 0.0
H1087 H 0.04815 0.82121 0.5869 0.0
H1088 H 0.07457 0.88575 0.55336 0.0
H1089 H 0.10204 0.91451 0.54949 0.0
H1090 H 0.09299 0.92895 0.62542 0.0
H1091 H 0.06575 0.90005 0.62983 0.0
C1092 C 0.94817 0.86499 0.60073 0.0
C1093 C 0.94282 0.87687 0.62142 0.0
C1094 C 0.97105 0.85984 0.59542 0.0
C1095 C 0.98907 0.86612 0.61091 0.0
C1096 C 0.98382 0.87801 0.63158 0.0
C1097 C 0.96089 0.88337 0.63679 0.0
C1098 C 0.0134 0.86083 0.60492 0.0
C1099 C 0.02963 0.87676 0.60294 0.0
C1100 C 0.02024 0.84049 0.59945 0.0
C1101 C 0.0044 0.8228 0.6029 0.0
C1102 C 0.99334 0.81959 0.62547 0.0
C1103 C 0.97828 0.80302 0.62857 0.0
C1104 C 0.97424 0.78946 0.60927 0.0
C1105 C 0.98531 0.79242 0.58685 0.0
C1106 C 0.00037 0.80897 0.58365 0.0
C1107 C 0.12411 0.84934 0.58526 0.0
C1108 C 0.12745 0.84172 0.56146 0.0
C1109 C 0.1018 0.85242 0.59436 0.0
C1110 C 0.08245 0.84793 0.57986 0.0
C1111 C 0.08566 0.83958 0.5565 0.0
C1112 C 0.10798 0.83659 0.54731 0.0
C1113 C 0.05885 0.85277 0.58863 0.0
C1114 C 0.04282 0.83677 0.59108 0.0
C1115 C 0.05224 0.87301 0.59475 0.0
C1116 C 0.06832 0.8906 0.59199 0.0
C1117 C 0.07857 0.89497 0.56927 0.0
C1118 C 0.09408 0.91131 0.56697 0.0
C1119 C 0.09931 0.92351 0.58722 0.0
C1120 C 0.08896 0.91946 0.60977 0.0
C1121 C 0.07347 0.90311 0.61217 0.0
H1122 H 0.11137 0.93613 0.58544 0.0
H1123 H 0.96257 0.77664 0.6117 0.0
H1124 H 0.35422 0.85646 0.89306 0.0
H1125 H 0.39465 0.85868 0.88058 0.0
H1126 H 0.41558 0.83011 0.94807 0.0
H1127 H 0.3751 0.82833 0.96104 0.0
H1128 H 0.44129 0.86237 0.93945 0.0
H1129 H 0.4175 0.80427 0.89245 0.0
H1130 H 0.393 0.78468 0.86389 0.0
H1131 H 0.40797 0.82786 0.80692 0.0
H1132 H 0.43233 0.84788 0.83524 0.0
H1133 H 0.55778 0.84626 0.90543 0.0
H1134 H 0.51735 0.83898 0.91499 0.0
H1135 H 0.49555 0.87618 0.85418 0.0
H1136 H 0.53609 0.88369 0.84442 0.0
H1137 H 0.47084 0.83842 0.85922 0.0
H1138 H 0.49351 0.89694 0.90729 0.0
H1139 H 0.51842 0.91596 0.93601 0.0
H1140 H 0.5057 0.87078 0.99135 0.0
H1141 H 0.48098 0.8513 0.96282 0.0
C1142 C 0.36738 0.85048 0.9052 0.0
C1143 C 0.36143 0.84223 0.92807 0.0
C1144 C 0.39051 0.85166 0.89796 0.0
C1145 C 0.40814 0.84433 0.91325 0.0
C1146 C 0.40225 0.83584 0.93597 0.0
C1147 C 0.3791 0.8348 0.94333 0.0
C1148 C 0.43278 0.84651 0.90607 0.0
C1149 C 0.4478 0.85679 0.92208 0.0
C1150 C 0.44118 0.8397 0.88314 0.0
C1151 C 0.42658 0.82767 0.86604 0.0
C1152 C 0.41543 0.80968 0.87388 0.0
C1153 C 0.40159 0.79848 0.85773 0.0
C1154 C 0.39888 0.80505 0.83362 0.0
C1155 C 0.41006 0.82281 0.82561 0.0
C1156 C 0.42391 0.83407 0.8417 0.0
C1157 C 0.54445 0.85277 0.8939 0.0
C1158 C 0.55016 0.86569 0.87424 0.0
C1159 C 0.52135 0.84861 0.89945 0.0
C1160 C 0.50355 0.85721 0.88542 0.0
C1161 C 0.50912 0.86944 0.86521 0.0
C1162 C 0.53226 0.87376 0.85974 0.0
C1163 C 0.47913 0.85418 0.89262 0.0
C1164 C 0.46423 0.84383 0.87662 0.0
C1165 C 0.47083 0.86082 0.9156 0.0
C1166 C 0.48559 0.87255 0.93283 0.0
C1167 C 0.49618 0.89096 0.92551 0.0
C1168 C 0.51024 0.90184 0.94176 0.0
C1169 C 0.51368 0.89455 0.96546 0.0
C1170 C 0.50304 0.87639 0.97297 0.0
C1171 C 0.48899 0.86543 0.95677 0.0
H1172 H 0.52453 0.90301 0.97801 0.0
H1173 H 0.38816 0.79636 0.82114 0.0
H1174 H 0.13367 0.12434 0.39819 0.0
H1175 H 0.09397 0.12015 0.38382 0.0
H1176 H 0.0695 0.15838 0.44283 0.0
H1177 H 0.10914 0.16189 0.45792 0.0
H1178 H 0.04354 0.12637 0.43948 0.0
H1179 H 0.07267 0.17497 0.38079 0.0
H1180 H 0.10018 0.18774 0.34986 0.0
H1181 H 0.08608 0.13544 0.30459 0.0
H1182 H 0.05863 0.12226 0.33537 0.0
H1183 H 0.93019 0.14301 0.398 0.0
H1184 H 0.97086 0.14906 0.40747 0.0
H1185 H 0.99093 0.10306 0.35496 0.0
H1186 H 0.95011 0.09687 0.34521 0.0
H1187 H 0.01908 0.13826 0.3538 0.0
H1188 H 0.98992 0.09 0.41237 0.0
H1189 H 0.96264 0.07707 0.44339 0.0
H1190 H 0.97719 0.12905 0.48902 0.0
H1191 H 0.00432 0.14245 0.45809 0.0
C1192 C 0.11985 0.13199 0.408 0.0
C1193 C 0.12451 0.14346 0.42918 0.0
C1194 C 0.09715 0.12967 0.39968 0.0
C1195 C 0.07874 0.13921 0.41201 0.0
C1196 C 0.08342 0.15089 0.433 0.0
C1197 C 0.10607 0.15291 0.44159 0.0
C1198 C 0.0545 0.13626 0.40374 0.0
C1199 C 0.03817 0.12932 0.42083 0.0
C1200 C 0.04758 0.13945 0.37921 0.0
C1201 C 0.06374 0.14755 0.36048 0.0
C1202 C 0.07551 0.16615 0.36429 0.0
C1203 C 0.09108 0.17347 0.34677 0.0
C1204 C 0.09491 0.16238 0.3253 0.0
C1205 C 0.08309 0.144 0.32124 0.0
C1206 C 0.0675 0.13662 0.33869 0.0
C1207 C 0.9432 0.13426 0.38827 0.0
C1208 C 0.93687 0.1193 0.37099 0.0
C1209 C 0.96644 0.13773 0.39375 0.0
C1210 C 0.98382 0.12632 0.38213 0.0
C1211 C 0.97771 0.11198 0.36415 0.0
C1212 C 0.9544 0.10842 0.35868 0.0
C1213 C 0.00826 0.12877 0.38967 0.0
C1214 C 0.02456 0.13546 0.37245 0.0
C1215 C 0.0152 0.12541 0.4141 0.0
C1216 C -0.00101 0.11733 0.4328 0.0
C1217 C 0.98716 0.09876 0.42893 0.0
C1218 C 0.97175 0.09133 0.44651 0.0
C1219 C 0.96814 0.10226 0.46814 0.0
C1220 C 0.97998 0.12062 0.47225 0.0
C1221 C -0.00461 0.12813 0.4547 0.0
H1222 H 0.9562 0.09648 0.48173 0.0
H1223 H 0.10701 0.16804 0.31179 0.0
H1224 H 0.04045 0.59396 0.13583 0.0
H1225 H -0.00026 0.59929 0.12515 0.0
H1226 H 0.01747 0.65608 0.08956 0.0
H1227 H 0.05819 0.65088 0.10001 0.0
H1228 H 0.97648 0.65841 0.11727 0.0
H1229 H 0.0119 0.61623 0.05539 0.0
H1230 H 0.03407 0.58653 0.04021 0.0
H1231 H 0.98337 0.54563 0.07046 0.0
H1232 H 0.96107 0.57511 0.08614 0.0
H1233 H 0.87938 0.63878 0.0216 0.0
H1234 H 0.91963 0.63694 0.03525 0.0
H1235 H 0.89688 0.63629 0.11028 0.0
H1236 H 0.85659 0.63817 0.09686 0.0
H1237 H 0.94091 0.60695 0.06198 0.0
H1238 H 0.9377 0.66271 0.14406 0.0
H1239 H 0.91642 0.69361 0.1572 0.0
H1240 H 0.90397 0.70965 0.08233 0.0
H1241 H 0.92543 0.67902 0.06875 0.0
C1242 C 0.03565 0.60772 0.12603 0.0
C1243 C 0.05256 0.62192 0.11859 0.0
C1244 C 0.01242 0.61071 0.1199 0.0
C1245 C 0.00572 0.62798 0.10641 0.0
C1246 C 0.02235 0.64266 0.09998 0.0
C1247 C 0.04561 0.6396 0.10588 0.0
C1248 C 0.98164 0.63015 0.09767 0.0
C1249 C 0.96863 0.64714 0.10529 0.0
C1250 C 0.97165 0.6156 0.08167 0.0
C1251 C 0.98495 0.59786 0.07216 0.0
C1252 C 0.00558 0.6009 0.05898 0.0
C1253 C 0.01815 0.5841 0.05025 0.0
C1254 C 0.01017 0.5642 0.05442 0.0
C1255 C 0.98955 0.56105 0.06728 0.0
C1256 C 0.97694 0.5778 0.07608 0.0
C1257 C 0.88292 0.63834 0.04101 0.0
C1258 C 0.86477 0.63862 0.05814 0.0
C1259 C 0.90592 0.63723 0.04876 0.0
C1260 C 0.91119 0.63659 0.07375 0.0
C1261 C 0.89316 0.63698 0.09091 0.0
C1262 C 0.87014 0.63797 0.08319 0.0
C1263 C 0.93556 0.63508 0.08184 0.0
C1264 C 0.94866 0.61818 0.0741 0.0
C1265 C 0.94569 0.64985 0.09747 0.0
C1266 C 0.93296 0.66845 0.10542 0.0
C1267 C 0.93048 0.67287 0.13041 0.0
C1268 C 0.91838 0.69034 0.13793 0.0
C1269 C 0.90878 0.70355 0.12061 0.0
C1270 C 0.91133 0.69936 0.09573 0.0
C1271 C 0.92343 0.68193 0.08811 0.0
H1272 H 0.89941 0.71705 0.12648 0.0
H1273 H 0.01992 0.55122 0.04765 0.0
H1274 H 0.6353 0.33562 0.58891 0.0
H1275 H 0.5956 0.33552 0.60435 0.0
H1276 H 0.57136 0.35858 0.53504 0.0
H1277 H 0.61087 0.35761 0.51916 0.0
H1278 H 0.56765 0.36375 0.6133 0.0
H1279 H 0.51674 0.34608 0.52359 0.0
H1280 H 0.52125 0.32503 0.48645 0.0
H1281 H 0.56766 0.28481 0.52452 0.0
H1282 H 0.5632 0.30545 0.56197 0.0
H1283 H 0.45341 0.39937 0.62405 0.0
H1284 H 0.49332 0.39136 0.6129 0.0
H1285 H 0.47425 0.32811 0.60113 0.0
H1286 H 0.43398 0.33642 0.61082 0.0
H1287 H 0.49996 0.33815 0.56668 0.0
H1288 H 0.50773 0.34553 0.65238 0.0
H1289 H 0.50351 0.3616 0.69291 0.0
H1290 H 0.54396 0.41306 0.66913 0.0
H1291 H 0.54817 0.39743 0.62833 0.0
C1292 C 0.62144 0.34044 0.5769 0.0
C1293 C 0.62613 0.34655 0.55281 0.0
C1294 C 0.59876 0.34043 0.58576 0.0
C1295 C 0.58036 0.34683 0.57083 0.0
C1296 C 0.5851 0.35303 0.54676 0.0
C1297 C 0.60772 0.3526 0.53771 0.0
C1298 C 0.55644 0.34797 0.58078 0.0
C1299 C 0.55287 0.35802 0.60317 0.0
C1300 C 0.53712 0.34002 0.56797 0.0
C1301 C 0.53978 0.32743 0.54554 0.0
C1302 C 0.52783 0.33269 0.52407 0.0
C1303 C 0.53039 0.32084 0.50295 0.0
C1304 C 0.54478 0.30363 0.50311 0.0
C1305 C 0.55659 0.29819 0.5244 0.0
C1306 C 0.55407 0.30998 0.54557 0.0
C1307 C 0.45781 0.38372 0.61932 0.0
C1308 C 0.44066 0.3685 0.61834 0.0
C1309 C 0.48067 0.37911 0.61308 0.0
C1310 C 0.48698 0.35903 0.60653 0.0
C1311 C 0.46987 0.34372 0.60605 0.0
C1312 C 0.44689 0.34845 0.61169 0.0
C1313 C 0.51114 0.35427 0.599 0.0
C1314 C 0.51475 0.34364 0.577 0.0
C1315 C 0.53055 0.36089 0.6127 0.0
C1316 C 0.52812 0.37036 0.63723 0.0
C1317 C 0.5156 0.36033 0.65574 0.0
C1318 C 0.51323 0.36936 0.67877 0.0
C1319 C 0.52343 0.38836 0.68358 0.0
C1320 C 0.53606 0.39835 0.66537 0.0
C1321 C 0.53847 0.3894 0.6423 0.0
H1322 H 0.52157 0.39532 0.70142 0.0
H1323 H 0.54675 0.29448 0.48674 0.0
H1324 H 0.03551 0.39029 0.84361 0.0
H1325 H -0.00509 0.38305 0.85335 0.0
H1326 H 0.01621 0.3492 0.91708 0.0
H1327 H 0.05671 0.35629 0.90758 0.0
H1328 H 0.9713 0.34563 0.85942 0.0
H1329 H 0.97808 0.36107 0.96309 0.0
H1330 H 0.00118 0.38206 0.9916 0.0
H1331 H 0.01373 0.42611 0.93493 0.0
H1332 H 0.99044 0.40556 0.90621 0.0
H1333 H 0.87581 0.33006 0.95955 0.0
H1334 H 0.91605 0.3352 0.94712 0.0
H1335 H 0.89301 0.36236 0.87957 0.0
H1336 H 0.85279 0.35688 0.89157 0.0
H1337 H 0.93889 0.36953 0.93843 0.0
H1338 H 0.93224 0.35331 0.83461 0.0
H1339 H 0.90965 0.33174 0.80627 0.0
H1340 H 0.89725 0.28825 0.86358 0.0
H1341 H 0.92001 0.3094 0.89216 0.0
C1342 C 0.03156 0.38124 0.85965 0.0
C1343 C 0.04935 0.37396 0.87488 0.0
C1344 C 0.00838 0.37707 0.86512 0.0
C1345 C 0.00263 0.36578 0.88604 0.0
C1346 C 0.02033 0.35815 0.90099 0.0
C1347 C 0.04347 0.36218 0.89547 0.0
C1348 C 0.97811 0.36225 0.89261 0.0
C1349 C 0.96407 0.35107 0.87652 0.0
C1350 C 0.96895 0.36898 0.9152 0.0
C1351 C 0.98271 0.38164 0.93244 0.0
C1352 C 0.98569 0.37528 0.95675 0.0
C1353 C -0.00117 0.38709 0.97294 0.0
C1354 C 0.00898 0.40537 0.96506 0.0
C1355 C 0.00594 0.41191 0.94099 0.0
C1356 C 0.9928 0.40017 0.92474 0.0
C1357 C 0.8793 0.33699 0.94196 0.0
C1358 C 0.86107 0.34302 0.92654 0.0
C1359 C 0.90231 0.33996 0.93492 0.0
C1360 C 0.90755 0.34899 0.91233 0.0
C1361 C 0.8894 0.35502 0.89689 0.0
C1362 C 0.86639 0.35194 0.90384 0.0
C1363 C 0.93198 0.35274 0.9053 0.0
C1364 C 0.94605 0.36403 0.92131 0.0
C1365 C 0.94117 0.34603 0.88267 0.0
C1366 C 0.92762 0.33307 0.86558 0.0
C1367 C 0.92475 0.33911 0.84113 0.0
C1368 C 0.91191 0.32696 0.82503 0.0
C1369 C 0.90195 0.30867 0.83314 0.0
C1370 C 0.90488 0.30246 0.85735 0.0
C1371 C 0.91773 0.31454 0.87351 0.0
H1372 H 0.892 0.2993 0.82065 0.0
H1373 H 0.01916 0.41448 0.97761 0.0
H1374 H 0.61279 0.6602 0.4639 0.0
H1375 H 0.5733 0.65342 0.45019 0.0
H1376 H 0.59938 0.63214 0.38081 0.0
H1377 H 0.63895 0.6392 0.39418 0.0
H1378 H 0.5614 0.655 0.37461 0.0
H1379 H 0.58333 0.59815 0.42403 0.0
H1380 H 0.5986 0.58061 0.46048 0.0
H1381 H 0.5436 0.60588 0.50388 0.0
H1382 H 0.52818 0.62383 0.46774 0.0
H1383 H 0.45777 0.60028 0.34207 0.0
H1384 H 0.49797 0.60848 0.35259 0.0
H1385 H 0.47486 0.63799 0.41875 0.0
H1386 H 0.43471 0.63008 0.40836 0.0
H1387 H 0.51176 0.60979 0.42532 0.0
H1388 H 0.49065 0.66702 0.37399 0.0
H1389 H 0.47594 0.68307 0.33633 0.0
H1390 H 0.53029 0.65451 0.29493 0.0
H1391 H 0.54513 0.63805 0.33233 0.0
C1392 C 0.61015 0.65422 0.44565 0.0
C1393 C 0.62905 0.6501 0.4302 0.0
C1394 C 0.58757 0.65027 0.43789 0.0
C1395 C 0.58346 0.64195 0.41464 0.0
C1396 C 0.60219 0.63849 0.39886 0.0
C1397 C 0.6248 0.64251 0.40656 0.0
C1398 C 0.55964 0.63641 0.40707 0.0
C1399 C 0.55065 0.6449 0.38553 0.0
C1400 C 0.54558 0.62334 0.42142 0.0
C1401 C 0.55473 0.6125 0.44321 0.0
C1402 C 0.57459 0.6001 0.44138 0.0
C1403 C 0.58326 0.59006 0.46198 0.0
C1404 C 0.57211 0.59217 0.48449 0.0
C1405 C 0.55223 0.60428 0.48644 0.0
C1406 C 0.54351 0.61438 0.46589 0.0
C1407 C 0.46125 0.60857 0.35881 0.0
C1408 C 0.44306 0.61455 0.37436 0.0
C1409 C 0.48419 0.61327 0.36475 0.0
C1410 C 0.48928 0.62386 0.3864 0.0
C1411 C 0.47121 0.62979 0.40197 0.0
C1412 C 0.4483 0.62532 0.39593 0.0
C1413 C 0.5135 0.62858 0.39309 0.0
C1414 C 0.52257 0.61986 0.41442 0.0
C1415 C 0.52771 0.64118 0.37838 0.0
C1416 C 0.51885 0.65113 0.35591 0.0
C1417 C 0.49934 0.66401 0.35682 0.0
C1418 C 0.491 0.67322 0.33553 0.0
C1419 C 0.50213 0.66976 0.31324 0.0
C1420 C 0.52166 0.65715 0.3122 0.0
C1421 C 0.53006 0.64789 0.33344 0.0
H1422 H 0.49565 0.67691 0.29677 0.0
H1423 H 0.57885 0.58438 0.50042 0.0
H1424 H 0.26559 0.17448 0.14859 0.0
H1425 H 0.2576 0.1745 0.19238 0.0
H1426 H 0.24003 0.11027 0.18893 0.0
H1427 H 0.24724 0.11033 0.14491 0.0
H1428 H 0.21071 0.12929 0.21747 0.0
H1429 H 0.29327 0.12712 0.21056 0.0
H1430 H 0.33188 0.13816 0.19649 0.0
H1431 H 0.32249 0.19646 0.23158 0.0
H1432 H 0.28367 0.18587 0.24558 0.0
H1433 H 0.22735 0.10835 0.34484 0.0
H1434 H 0.23393 0.10915 0.30063 0.0
H1435 H 0.23045 0.17515 0.30166 0.0
H1436 H 0.22326 0.17449 0.34579 0.0
H1437 H 0.27032 0.15524 0.275 0.0
H1438 H 0.18684 0.15609 0.28161 0.0
H1439 H 0.14914 0.14336 0.2964 0.0
H1440 H 0.16198 0.08506 0.26255 0.0
H1441 H 0.19992 0.09737 0.24786 0.0
C1442 C 0.25995 0.16037 0.15715 0.0
C1443 C 0.25716 0.14237 0.14338 0.0
C1444 C 0.2555 0.16038 0.1822 0.0
C1445 C 0.24864 0.14229 0.19402 0.0
C1446 C 0.24537 0.12439 0.1802 0.0
C1447 C 0.24954 0.12444 0.15507 0.0
C1448 C 0.24505 0.14201 0.22083 0.0
C1449 C 0.22388 0.13474 0.23002 0.0
C1450 C 0.2621 0.14937 0.23725 0.0
C1451 C 0.28547 0.15577 0.22892 0.0
C1452 C 0.29937 0.14235 0.21512 0.0
C1453 C 0.3213 0.14852 0.20718 0.0
C1454 C 0.32961 0.16802 0.21308 0.0
C1455 C 0.31602 0.18137 0.22699 0.0
C1456 C 0.29406 0.17529 0.23495 0.0
C1457 C 0.22809 0.12303 0.33566 0.0
C1458 C 0.22478 0.14136 0.34868 0.0
C1459 C 0.23176 0.12344 0.31046 0.0
C1460 C 0.23256 0.1422 0.29805 0.0
C1461 C 0.22984 0.16056 0.31105 0.0
C1462 C 0.2257 0.16014 0.33616 0.0
C1463 C 0.23608 0.14261 0.2714 0.0
C1464 C 0.25723 0.14985 0.26232 0.0
C1465 C 0.21917 0.13498 0.25513 0.0
C1466 C 0.19633 0.12758 0.26388 0.0
C1467 C 0.18173 0.14049 0.27753 0.0
C1468 C 0.16029 0.13337 0.28585 0.0
C1469 C 0.1532 0.11339 0.28048 0.0
C1470 C 0.16751 0.10052 0.26673 0.0
C1471 C 0.18897 0.10757 0.25838 0.0
H1472 H 0.13659 0.10791 0.28693 0.0
H1473 H 0.34659 0.17277 0.20692 0.0
H1474 H 0.26087 0.88339 0.83948 0.0
H1475 H 0.25448 0.883 0.79538 0.0
H1476 H 0.25942 0.81698 0.79523 0.0
H1477 H 0.26682 0.81738 0.83916 0.0
H1478 H 0.28211 0.83101 0.75845 0.0
H1479 H 0.20631 0.84344 0.79071 0.0
H1480 H 0.17659 0.86092 0.81548 0.0
H1481 H 0.18862 0.91685 0.77623 0.0
H1482 H 0.21865 0.89976 0.75142 0.0
H1483 H 0.22608 0.81437 0.64344 0.0
H1484 H 0.23498 0.81566 0.68715 0.0
H1485 H 0.24679 0.88077 0.68203 0.0
H1486 H 0.23828 0.87959 0.63824 0.0
H1487 H 0.21595 0.86773 0.72076 0.0
H1488 H 0.29157 0.85328 0.68763 0.0
H1489 H 0.31966 0.83406 0.66257 0.0
H1490 H 0.30543 0.77945 0.70359 0.0
H1491 H 0.27698 0.79828 0.72868 0.0
C1492 C 0.26051 0.8688 0.83003 0.0
C1493 C 0.26425 0.85041 0.84272 0.0
C1494 C 0.25676 0.86858 0.80485 0.0
C1495 C 0.25611 0.84993 0.79201 0.0
C1496 C 0.25986 0.83155 0.80472 0.0
C1497 C 0.264 0.83179 0.82982 0.0
C1498 C 0.25187 0.84956 0.7653 0.0
C1499 C 0.26745 0.83883 0.7503 0.0
C1500 C 0.23298 0.86005 0.75453 0.0
C1501 C 0.21489 0.87037 0.76938 0.0
C1502 C 0.20274 0.8595 0.78748 0.0
C1503 C 0.18582 0.86934 0.80151 0.0
C1504 C 0.18077 0.89 0.79747 0.0
C1505 C 0.19258 0.90085 0.77935 0.0
C1506 C 0.20954 0.8911 0.76529 0.0
C1507 C 0.23072 0.82893 0.6516 0.0
C1508 C 0.23152 0.84688 0.63747 0.0
C1509 C 0.23583 0.82963 0.67651 0.0
C1510 C 0.24156 0.8483 0.68768 0.0
C1511 C 0.2424 0.86623 0.67365 0.0
C1512 C 0.23763 0.86551 0.64867 0.0
C1513 C 0.24611 0.84916 0.71417 0.0
C1514 C 0.23058 0.85997 0.72906 0.0
C1515 C 0.2648 0.83847 0.72486 0.0
C1516 C 0.28197 0.82715 0.70986 0.0
C1517 C 0.29427 0.83713 0.69116 0.0
C1518 C 0.31029 0.82631 0.67699 0.0
C1519 C 0.31428 0.80553 0.68144 0.0
C1520 C 0.3023 0.79554 0.70014 0.0
C1521 C 0.28624 0.80628 0.71435 0.0
H1522 H 0.32669 0.79718 0.67045 0.0
H1523 H 0.16766 0.89758 0.80835 0.0
H1524 H 0.71189 0.87147 0.85185 0.0
H1525 H 0.74007 0.87267 0.8186 0.0
H1526 H 0.68446 0.87249 0.76599 0.0
H1527 H 0.65615 0.87084 0.79918 0.0
H1528 H 0.71799 0.84689 0.75236 0.0
H1529 H 0.71397 0.91663 0.78 0.0
H1530 H 0.71533 0.94469 0.81016 0.0
H1531 H 0.78585 0.92954 0.82722 0.0
H1532 H 0.78481 0.90119 0.79738 0.0
H1533 H 0.78195 0.88003 0.64921 0.0
H1534 H 0.75453 0.87811 0.68313 0.0
H1535 H 0.8113 0.87419 0.73408 0.0
H1536 H 0.83892 0.87621 0.70022 0.0
H1537 H 0.77777 0.90145 0.74878 0.0
H1538 H 0.78171 0.83204 0.71995 0.0
H1539 H 0.78014 0.80462 0.68897 0.0
H1540 H 0.70931 0.81975 0.67339 0.0
H1541 H 0.71056 0.84748 0.70403 0.0
C1542 C 0.70565 0.87173 0.8332 0.0
C1543 C 0.68181 0.87115 0.82811 0.0
C1544 C 0.72178 0.87248 0.81422 0.0
C1545 C 0.71435 0.87293 0.78982 0.0
C1546 C 0.69056 0.87218 0.78469 0.0
C1547 C 0.67441 0.8713 0.80367 0.0
C1548 C 0.73141 0.87409 0.76965 0.0
C1549 C 0.73087 0.85897 0.7514 0.0
C1550 C 0.74855 0.88959 0.76872 0.0
C1551 C 0.74924 0.90666 0.78663 0.0
C1552 C 0.72971 0.91918 0.79032 0.0
C1553 C 0.73044 0.93516 0.80733 0.0
C1554 C 0.75065 0.93886 0.82064 0.0
C1555 C 0.7702 0.92663 0.81692 0.0
C1556 C 0.76956 0.91062 0.79994 0.0
C1557 C 0.78862 0.87879 0.66763 0.0
C1558 C 0.81259 0.87822 0.67207 0.0
C1559 C 0.77293 0.87761 0.68697 0.0
C1560 C 0.78092 0.87579 0.71105 0.0
C1561 C 0.80483 0.87553 0.71559 0.0
C1562 C 0.82055 0.87665 0.69624 0.0
C1563 C 0.76427 0.87431 0.73151 0.0
C1564 C 0.7649 0.88936 0.74979 0.0
C1565 C 0.74717 0.85879 0.7324 0.0
C1566 C 0.7463 0.84198 0.71414 0.0
C1567 C 0.76585 0.82963 0.70979 0.0
C1568 C 0.76501 0.81401 0.69231 0.0
C1569 C 0.74466 0.81048 0.67917 0.0
C1570 C 0.72508 0.82252 0.68356 0.0
C1571 C 0.72583 0.83818 0.701 0.0
H1572 H 0.74405 0.79839 0.66564 0.0
H1573 H 0.75117 0.95124 0.83381 0.0
H1574 H 0.77538 0.12164 0.34719 0.0
H1575 H 0.74759 0.12145 0.31358 0.0
H1576 H 0.80373 0.11682 0.2618 0.0
H1577 H 0.83168 0.11746 0.29534 0.0
H1578 H 0.77285 0.14452 0.24733 0.0
H1579 H 0.77 0.07514 0.27631 0.0
H1580 H 0.76558 0.04781 0.30702 0.0
H1581 H 0.69646 0.06833 0.32256 0.0
H1582 H 0.70058 0.09596 0.29215 0.0
H1583 H 0.70711 0.11513 0.14379 0.0
H1584 H 0.73431 0.11574 0.17794 0.0
H1585 H 0.6775 0.12337 0.22834 0.0
H1586 H 0.6501 0.1226 0.19425 0.0
H1587 H 0.70825 0.09445 0.24374 0.0
H1588 H 0.71111 0.16359 0.21421 0.0
H1589 H 0.71565 0.19076 0.18332 0.0
H1590 H 0.78498 0.17041 0.16857 0.0
H1591 H 0.78075 0.14292 0.19914 0.0
C1592 C 0.78181 0.12052 0.32865 0.0
C1593 C 0.8057 0.1195 0.32389 0.0
C1594 C 0.7659 0.12033 0.30947 0.0
C1595 C 0.77358 0.11886 0.28521 0.0
C1596 C 0.79744 0.11794 0.2804 0.0
C1597 C 0.81337 0.11825 0.29957 0.0
C1598 C 0.75675 0.1186 0.26481 0.0
C1599 C 0.75892 0.13339 0.24636 0.0
C1600 C 0.73823 0.1044 0.26389 0.0
C1601 C 0.73568 0.08774 0.28212 0.0
C1602 C 0.75392 0.07392 0.28641 0.0
C1603 C 0.75146 0.05836 0.30374 0.0
C1604 C 0.73078 0.05637 0.31678 0.0
C1605 C 0.71248 0.0699 0.31246 0.0
C1606 C 0.71486 0.08551 0.29517 0.0
C1607 C 0.70039 0.11695 0.16214 0.0
C1608 C 0.67647 0.11885 0.16635 0.0
C1609 C 0.71596 0.11738 0.18161 0.0
C1610 C 0.70791 0.11981 0.20561 0.0
C1611 C 0.68403 0.12152 0.20992 0.0
C1612 C 0.66843 0.12113 0.19044 0.0
C1613 C 0.72443 0.1203 0.22625 0.0
C1614 C 0.72219 0.10557 0.24473 0.0
C1615 C 0.74291 0.13452 0.22717 0.0
C1616 C 0.74552 0.15107 0.2088 0.0
C1617 C 0.72726 0.1648 0.20423 0.0
C1618 C 0.72979 0.18027 0.18681 0.0
C1619 C 0.75057 0.18227 0.17394 0.0
C1620 C 0.76888 0.16883 0.17852 0.0
C1621 C 0.76644 0.15331 0.19591 0.0
H1622 H 0.75249 0.19427 0.16046 0.0
H1623 H 0.72891 0.04431 0.33019 0.0
H1624 H 0.73668 0.6144 0.34789 0.0
H1625 H 0.74522 0.6132 0.30426 0.0
H1626 H 0.73603 0.67875 0.29968 0.0
H1627 H 0.72641 0.67987 0.34317 0.0
H1628 H 0.71614 0.66219 0.26289 0.0
H1629 H 0.79104 0.65477 0.29857 0.0
H1630 H 0.82093 0.6402 0.32559 0.0
H1631 H 0.81371 0.58172 0.29037 0.0
H1632 H 0.78354 0.59588 0.26334 0.0
H1633 H 0.77279 0.67178 0.14681 0.0
H1634 H 0.76502 0.67377 0.19074 0.0
H1635 H 0.75381 0.60846 0.19282 0.0
H1636 H 0.76111 0.60637 0.1488 0.0
H1637 H 0.7849 0.62563 0.2303 0.0
H1638 H 0.70888 0.63491 0.1948 0.0
H1639 H 0.68064 0.65141 0.16739 0.0
H1640 H 0.69275 0.70934 0.20239 0.0
H1641 H 0.72134 0.69322 0.2298 0.0
C1642 C 0.73657 0.62857 0.33759 0.0
C1643 C 0.73096 0.64724 0.34891 0.0
C1644 C 0.74159 0.62789 0.31267 0.0
C1645 C 0.74168 0.64594 0.29872 0.0
C1646 C 0.7361 0.66462 0.31005 0.0
C1647 C 0.73066 0.66525 0.3349 0.0
C1648 C 0.74698 0.64525 0.27219 0.0
C1649 C 0.73139 0.65446 0.25587 0.0
C1650 C 0.7667 0.63491 0.26287 0.0
C1651 C 0.78487 0.62634 0.27908 0.0
C1652 C 0.7957 0.63876 0.2967 0.0
C1653 C 0.81272 0.63059 0.312 0.0
C1654 C 0.81918 0.61004 0.30974 0.0
C1655 C 0.80867 0.59763 0.29212 0.0
C1656 C 0.79163 0.60573 0.27679 0.0
C1657 C 0.76865 0.65785 0.15663 0.0
C1658 C 0.76749 0.63892 0.14442 0.0
C1659 C 0.7642 0.65902 0.18165 0.0
C1660 C 0.75883 0.64126 0.19488 0.0
C1661 C 0.75795 0.62231 0.18284 0.0
C1662 C 0.76202 0.62116 0.15773 0.0
C1663 C 0.75405 0.64248 0.22132 0.0
C1664 C 0.76975 0.63339 0.23752 0.0
C1665 C 0.73469 0.65322 0.23055 0.0
C1666 C 0.71743 0.6629 0.21416 0.0
C1667 C 0.70568 0.6512 0.1965 0.0
C1668 C 0.68958 0.66048 0.181 0.0
C1669 C 0.68495 0.68142 0.1831 0.0
C1670 C 0.69638 0.69313 0.20076 0.0
C1671 C 0.71252 0.68392 0.21629 0.0
H1672 H 0.67247 0.68858 0.17108 0.0
H1673 H 0.83236 0.60374 0.3216 0.0
H1674 H 0.6976 0.32707 0.64397 0.0
H1675 H 0.70447 0.32632 0.688 0.0
H1676 H 0.75999 0.37004 0.67952 0.0
H1677 H 0.75265 0.3714 0.63562 0.0
H1678 H 0.7388 0.31525 0.71509 0.0
H1679 H 0.76367 0.40081 0.72856 0.0
H1680 H 0.7548 0.43447 0.71034 0.0
H1681 H 0.68946 0.41157 0.6847 0.0
H1682 H 0.6978 0.37787 0.70303 0.0
H1683 H 0.79108 0.32752 0.83057 0.0
H1684 H 0.78217 0.32818 0.78697 0.0
H1685 H 0.72196 0.3655 0.80146 0.0
H1686 H 0.73133 0.36554 0.84498 0.0
H1687 H 0.74251 0.37952 0.76344 0.0
H1688 H 0.7181 0.31297 0.78861 0.0
H1689 H 0.72173 0.279 0.8079 0.0
H1690 H 0.7765 0.2633 0.75822 0.0
H1691 H 0.77341 0.2973 0.73883 0.0
C1692 C 0.71128 0.33651 0.65151 0.0
C1693 C 0.72449 0.3494 0.6364 0.0
C1694 C 0.71521 0.33604 0.67666 0.0
C1695 C 0.73252 0.34834 0.68713 0.0
C1696 C 0.74619 0.36077 0.67194 0.0
C1697 C 0.74206 0.36145 0.64684 0.0
C1698 C 0.73625 0.34818 0.71393 0.0
C1699 C 0.7396 0.32931 0.72566 0.0
C1700 C 0.73676 0.36648 0.72785 0.0
C1701 C 0.73148 0.38676 0.71696 0.0
C1702 C 0.74737 0.40299 0.71911 0.0
C1703 C 0.74244 0.42207 0.70875 0.0
C1704 C 0.72161 0.42514 0.6963 0.0
C1705 C 0.70563 0.40915 0.69426 0.0
C1706 C 0.71046 0.39005 0.70461 0.0
C1707 C 0.77594 0.33585 0.82444 0.0
C1708 C 0.76185 0.34642 0.84116 0.0
C1709 C 0.7708 0.33614 0.79954 0.0
C1710 C 0.75118 0.34661 0.79096 0.0
C1711 C 0.73719 0.3573 0.80764 0.0
C1712 C 0.74252 0.35728 0.83251 0.0
C1713 C 0.74537 0.3466 0.76457 0.0
C1714 C 0.74168 0.36546 0.75289 0.0
C1715 C 0.74378 0.32824 0.75085 0.0
C1716 C 0.74565 0.30775 0.76241 0.0
C1717 C 0.73103 0.30233 0.78191 0.0
C1718 C 0.73297 0.28306 0.79285 0.0
C1719 C 0.74937 0.26902 0.78433 0.0
C1720 C 0.76383 0.2742 0.76482 0.0
C1721 C 0.76197 0.29346 0.75383 0.0
H1722 H 0.75085 0.25411 0.79282 0.0
H1723 H 0.71784 0.43992 0.68828 0.0
H1724 H 0.28 0.37072 0.64607 0.0
H1725 H 0.2524 0.37095 0.67982 0.0
H1726 H 0.30887 0.3713 0.7314 0.0
H1727 H 0.33668 0.37062 0.69762 0.0
H1728 H 0.27599 0.34484 0.74502 0.0
H1729 H 0.27807 0.41498 0.7191 0.0
H1730 H 0.27586 0.44346 0.68964 0.0
H1731 H 0.20558 0.4273 0.67272 0.0
H1732 H 0.20748 0.39853 0.70184 0.0
H1733 H 0.21057 0.37466 0.84894 0.0
H1734 H 0.23824 0.37362 0.8152 0.0
H1735 H 0.18187 0.36973 0.76373 0.0
H1736 H 0.154 0.37089 0.79743 0.0
H1737 H 0.21464 0.39793 0.7502 0.0
H1738 H 0.21273 0.32786 0.77662 0.0
H1739 H 0.2151 0.29965 0.80642 0.0
H1740 H 0.28538 0.3161 0.82288 0.0
H1741 H 0.28332 0.34462 0.79342 0.0
C1742 C 0.28657 0.37088 0.66459 0.0
C1743 C 0.31051 0.37076 0.66921 0.0
C1744 C 0.27076 0.37109 0.68386 0.0
C1745 C 0.27858 0.37144 0.70811 0.0
C1746 C 0.30248 0.37109 0.7128 0.0
C1747 C 0.31833 0.37076 0.69351 0.0
C1748 C 0.26177 0.37204 0.72855 0.0
C1749 C 0.26279 0.35662 0.74636 0.0
C1750 C 0.24421 0.38714 0.72994 0.0
C1751 C 0.24299 0.40448 0.71249 0.0
C1752 C 0.2622 0.41741 0.70896 0.0
C1753 C 0.26099 0.43362 0.69234 0.0
C1754 C 0.24061 0.43716 0.67927 0.0
C1755 C 0.22137 0.42452 0.68283 0.0
C1756 C 0.22249 0.40827 0.69941 0.0
C1757 C 0.20404 0.37357 0.83044 0.0
C1758 C 0.18011 0.37282 0.82581 0.0
C1759 C 0.21988 0.37289 0.81121 0.0
C1760 C 0.21208 0.3714 0.78702 0.0
C1761 C 0.18821 0.37084 0.7823 0.0
C1762 C 0.17233 0.37145 0.80155 0.0
C1763 C 0.22889 0.37076 0.76663 0.0
C1764 C 0.22786 0.38617 0.74884 0.0
C1765 C 0.24648 0.3557 0.76531 0.0
C1766 C 0.24779 0.33851 0.78298 0.0
C1767 C 0.22863 0.32558 0.78674 0.0
C1768 C 0.22993 0.3095 0.80354 0.0
C1769 C 0.25036 0.30611 0.81658 0.0
C1770 C 0.26956 0.31876 0.81279 0.0
C1771 C 0.26834 0.33487 0.79603 0.0
H1772 H 0.25133 0.29366 0.82958 0.0
H1773 H 0.23972 0.44972 0.66641 0.0
H1774 H 0.34006 0.61714 0.29242 0.0
H1775 H 0.31273 0.619 0.25835 0.0
H1776 H 0.25563 0.61248 0.30863 0.0
H1777 H 0.2828 0.61026 0.34266 0.0
H1778 H 0.24947 0.58887 0.26947 0.0
H1779 H 0.26964 0.65906 0.28463 0.0
H1780 H 0.29599 0.68843 0.29022 0.0
H1781 H 0.3223 0.68008 0.21753 0.0
H1782 H 0.29631 0.65046 0.21162 0.0
H1783 H 0.15834 0.62206 0.19222 0.0
H1784 H 0.18663 0.61996 0.22537 0.0
H1785 H 0.24237 0.62267 0.17299 0.0
H1786 H 0.21422 0.62487 0.13973 0.0
H1787 H 0.24964 0.64798 0.21254 0.0
H1788 H 0.22838 0.57784 0.19761 0.0
H1789 H 0.20124 0.54899 0.19247 0.0
H1790 H 0.17609 0.55793 0.26551 0.0
H1791 H 0.20288 0.58705 0.27098 0.0
C1792 C 0.32169 0.61606 0.29619 0.0
C1793 C 0.31357 0.6136 0.32021 0.0
C1794 C 0.30609 0.61721 0.27674 0.0
C1795 C 0.28214 0.61611 0.28101 0.0
C1796 C 0.27404 0.61338 0.30494 0.0
C1797 C 0.2896 0.61216 0.32436 0.0
C1798 C 0.26545 0.61776 0.26058 0.0
C1799 C 0.24933 0.60191 0.2572 0.0
C1800 C 0.26558 0.63459 0.2443 0.0
C1801 C 0.28121 0.65241 0.24778 0.0
C1802 C 0.28118 0.66338 0.26991 0.0
C1803 C 0.29602 0.68009 0.27312 0.0
C1804 C 0.31086 0.68608 0.25426 0.0
C1805 C 0.31083 0.6754 0.23213 0.0
C1806 C 0.29604 0.65866 0.22884 0.0
C1807 C 0.17662 0.62224 0.18776 0.0
C1808 C 0.18408 0.62354 0.16338 0.0
C1809 C 0.19274 0.62098 0.2067 0.0
C1810 C 0.21656 0.62097 0.20156 0.0
C1811 C 0.22405 0.62262 0.17729 0.0
C1812 C 0.20795 0.62381 0.15833 0.0
C1813 C 0.23367 0.61913 0.22153 0.0
C1814 C 0.24985 0.63493 0.2248 0.0
C1815 C 0.23351 0.60232 0.23781 0.0
C1816 C 0.21748 0.58475 0.23462 0.0
C1817 C 0.21694 0.57376 0.21251 0.0
C1818 C 0.20164 0.55734 0.20955 0.0
C1819 C 0.18691 0.55167 0.22863 0.0
C1820 C 0.18749 0.56237 0.25074 0.0
C1821 C 0.20274 0.57881 0.25379 0.0
H1822 H 0.17508 0.53895 0.2263 0.0
H1823 H 0.32233 0.69903 0.25678 0.0
loop_
_geom_bond_atom_site_label_1
_geom_bond_atom_site_label_2
_geom_bond_distance
_geom_bond_site_symmetry_2
_ccdc_geom_bond_type
C0 O1 1.306 . S
C0 O3 1.160 . S
O1 C0 1.306 . S
O1 Cd2 2.228 . S
Cd2 O1 2.228 . S
Cd2 O6 2.273 . S
Cd2 O10 2.277 . S
O3 C0 1.160 . S
O3 Cd4 2.203 . S
Cd4 O3 2.203 . S
Cd4 O6 2.411 . S
Cd4 O7 2.333 . S
Cd4 O8 2.352 . S
Cd4 O12 2.277 . S
Cd4 O13 2.356 . S
C5 O10 1.209 . S
C5 O12 1.226 . S
O6 Cd2 2.273 . S
O6 Cd4 2.411 . S
O6 C9 1.320 . S
O7 Cd4 2.333 . S
O7 C9 1.214 . S
O8 Cd4 2.352 . S
O8 C11 1.258 . S
C9 O6 1.320 . S
C9 O7 1.214 . S
O10 Cd2 2.277 . S
O10 C5 1.209 . S
C11 O8 1.258 . S
C11 O13 1.282 . S
O12 Cd4 2.277 . S
O12 C5 1.226 . S
O13 Cd4 2.356 . S
O13 C11 1.282 . S
C14 O15 1.306 . S
C14 O17 1.160 . S
O15 C14 1.306 . S
O15 Cd16 2.228 . S
Cd16 O15 2.228 . S
Cd16 O20 2.273 . S
Cd16 O24 2.277 . S
O17 C14 1.160 . S
O17 Cd18 2.203 . S
Cd18 O17 2.203 . S
Cd18 O20 2.411 . S
Cd18 O21 2.333 . S
Cd18 O22 2.352 . S
Cd18 O26 2.277 . S
Cd18 O27 2.356 . S
C19 O24 1.209 . S
C19 O26 1.226 . S
O20 Cd16 2.273 . S
O20 Cd18 2.411 . S
O20 C23 1.320 . S
O21 Cd18 2.333 . S
O21 C23 1.214 . S
O22 Cd18 2.352 . S
O22 C25 1.258 . S
C23 O20 1.320 . S
C23 O21 1.214 . S
O24 Cd16 2.277 . S
O24 C19 1.209 . S
C25 O22 1.258 . S
C25 O27 1.282 . S
O26 Cd18 2.277 . S
O26 C19 1.226 . S
O27 Cd18 2.356 . S
O27 C25 1.282 . S
C28 O29 1.306 . S
C28 O31 1.160 . S
O29 C28 1.306 . S
O29 Cd30 2.228 . S
Cd30 O29 2.228 . S
Cd30 O34 2.273 . S
Cd30 O38 2.277 . S
O31 C28 1.160 . S
O31 Cd32 2.203 . S
Cd32 O31 2.203 . S
Cd32 O34 2.411 . S
Cd32 O35 2.333 . S
Cd32 O36 2.352 . S
Cd32 O40 2.277 . S
Cd32 O41 2.356 . S
C33 O38 1.209 . S
C33 O40 1.226 . S
O34 Cd30 2.273 . S
O34 Cd32 2.411 . S
O34 C37 1.320 . S
O35 Cd32 2.333 . S
O35 C37 1.214 . S
O36 Cd32 2.352 . S
O36 C39 1.258 . S
C37 O34 1.320 . S
C37 O35 1.214 . S
O38 Cd30 2.277 . S
O38 C33 1.209 . S
C39 O36 1.258 . S
C39 O41 1.282 . S
O40 Cd32 2.277 . S
O40 C33 1.226 . S
O41 Cd32 2.356 . S
O41 C39 1.282 . S
C42 O43 1.306 . S
C42 O45 1.160 . S
O43 C42 1.306 . S
O43 Cd44 2.228 . S
Cd44 O43 2.228 . S
Cd44 O48 2.273 . S
Cd44 O52 2.277 . S
O45 C42 1.160 . S
O45 Cd46 2.203 . S
Cd46 O45 2.203 . S
Cd46 O48 2.411 . S
Cd46 O49 2.333 . S
Cd46 O50 2.352 . S
Cd46 O54 2.277 . S
Cd46 O55 2.356 . S
C47 O52 1.209 . S
C47 O54 1.226 . S
O48 Cd44 2.273 . S
O48 Cd46 2.411 . S
O48 C51 1.320 . S
O49 Cd46 2.333 . S
O49 C51 1.214 . S
O50 Cd46 2.352 . S
O50 C53 1.258 . S
C51 O48 1.320 . S
C51 O49 1.214 . S
O52 Cd44 2.277 . S
O52 C47 1.209 . S
C53 O50 1.258 . S
C53 O55 1.282 . S
O54 Cd46 2.277 . S
O54 C47 1.226 . S
O55 Cd46 2.356 . S
O55 C53 1.282 . S
C56 O57 1.306 . S
C56 O59 1.160 . S
O57 C56 1.306 . S
O57 Cd58 2.228 . S
Cd58 O57 2.228 . S
Cd58 O62 2.273 . S
Cd58 O66 2.277 . S
O59 C56 1.160 . S
O59 Cd60 2.203 . S
Cd60 O59 2.203 . S
Cd60 O62 2.411 . S
Cd60 O63 2.333 . S
Cd60 O64 2.352 . S
Cd60 O68 2.277 . S
Cd60 O69 2.356 . S
C61 O66 1.209 . S
C61 O68 1.226 . S
O62 Cd58 2.273 . S
O62 Cd60 2.411 . S
O62 C65 1.320 . S
O63 Cd60 2.333 . S
O63 C65 1.214 . S
O64 Cd60 2.352 . S
O64 C67 1.258 . S
C65 O62 1.320 . S
C65 O63 1.214 . S
O66 Cd58 2.277 . S
O66 C61 1.209 . S
C67 O64 1.258 . S
C67 O69 1.282 . S
O68 Cd60 2.277 . S
O68 C61 1.226 . S
O69 Cd60 2.356 . S
O69 C67 1.282 . S
C70 O71 1.306 . S
C70 O73 1.160 . S
O71 C70 1.306 . S
O71 Cd72 2.228 . S
Cd72 O71 2.228 . S
Cd72 O76 2.273 . S
Cd72 O80 2.277 . S
O73 C70 1.160 . S
O73 Cd74 2.203 . S
Cd74 O73 2.203 . S
Cd74 O76 2.411 . S
Cd74 O77 2.333 . S
Cd74 O78 2.352 . S
Cd74 O82 2.277 . S
Cd74 O83 2.356 . S
C75 O80 1.209 . S
C75 O82 1.226 . S
O76 Cd72 2.273 . S
O76 Cd74 2.411 . S
O76 C79 1.320 . S
O77 Cd74 2.333 . S
O77 C79 1.214 . S
O78 Cd74 2.352 . S
O78 C81 1.258 . S
C79 O76 1.320 . S
C79 O77 1.214 . S
O80 Cd72 2.277 . S
O80 C75 1.209 . S
C81 O78 1.258 . S
C81 O83 1.282 . S
O82 Cd74 2.277 . S
O82 C75 1.226 . S
O83 Cd74 2.356 . S
O83 C81 1.282 . S
C84 O85 1.306 . S
C84 O87 1.160 . S
O85 C84 1.306 . S
O85 Cd86 2.228 . S
Cd86 O85 2.228 . S
Cd86 O90 2.273 . S
Cd86 O94 2.277 . S
O87 C84 1.160 . S
O87 Cd88 2.203 . S
Cd88 O87 2.203 . S
Cd88 O90 2.411 . S
Cd88 O91 2.333 . S
Cd88 O92 2.352 . S
Cd88 O96 2.277 . S
Cd88 O97 2.356 . S
C89 O94 1.209 . S
C89 O96 1.226 . S
O90 Cd86 2.273 . S
O90 Cd88 2.411 . S
O90 C93 1.320 . S
O91 Cd88 2.333 . S
O91 C93 1.214 . S
O92 Cd88 2.352 . S
O92 C95 1.258 . S
C93 O90 1.320 . S
C93 O91 1.214 . S
O94 Cd86 2.277 . S
O94 C89 1.209 . S
C95 O92 1.258 . S
C95 O97 1.282 . S
O96 Cd88 2.277 . S
O96 C89 1.226 . S
O97 Cd88 2.356 . S
O97 C95 1.282 . S
C98 O99 1.306 . S
C98 O101 1.160 . S
O99 C98 1.306 . S
O99 Cd100 2.228 . S
Cd100 O99 2.228 . S
Cd100 O104 2.273 . S
Cd100 O108 2.277 . S
O101 C98 1.160 . S
O101 Cd102 2.203 . S
Cd102 O101 2.203 . S
Cd102 O104 2.411 . S
Cd102 O105 2.333 . S
Cd102 O106 2.352 . S
Cd102 O110 2.277 . S
Cd102 O111 2.356 . S
C103 O108 1.209 . S
C103 O110 1.226 . S
O104 Cd100 2.273 . S
O104 Cd102 2.411 . S
O104 C107 1.320 . S
O105 Cd102 2.333 . S
O105 C107 1.214 . S
O106 Cd102 2.352 . S
O106 C109 1.258 . S
C107 O104 1.320 . S
C107 O105 1.214 . S
O108 Cd100 2.277 . S
O108 C103 1.209 . S
C109 O106 1.258 . S
C109 O111 1.282 . S
O110 Cd102 2.277 . S
O110 C103 1.226 . S
O111 Cd102 2.356 . S
O111 C109 1.282 . S
C112 O113 1.306 . S
C112 O115 1.160 . S
O113 C112 1.306 . S
O113 Cd114 2.228 . S
Cd114 O113 2.228 . S
Cd114 O118 2.273 . S
Cd114 O122 2.277 . S
O115 C112 1.160 . S
O115 Cd116 2.203 . S
Cd116 O115 2.203 . S
Cd116 O118 2.411 . S
Cd116 O119 2.333 . S
Cd116 O120 2.352 . S
Cd116 O124 2.277 . S
Cd116 O125 2.356 . S
C117 O122 1.209 . S
C117 O124 1.226 . S
O118 Cd114 2.273 . S
O118 Cd116 2.411 . S
O118 C121 1.320 . S
O119 Cd116 2.333 . S
O119 C121 1.214 . S
O120 Cd116 2.352 . S
O120 C123 1.258 . S
C121 O118 1.320 . S
C121 O119 1.214 . S
O122 Cd114 2.277 . S
O122 C117 1.209 . S
C123 O120 1.258 . S
C123 O125 1.282 . S
O124 Cd116 2.277 . S
O124 C117 1.226 . S
O125 Cd116 2.356 . S
O125 C123 1.282 . S
C126 O127 1.306 . S
C126 O129 1.160 . S
O127 C126 1.306 . S
O127 Cd128 2.228 . S
Cd128 O127 2.228 . S
Cd128 O132 2.273 . S
Cd128 O136 2.277 . S
O129 C126 1.160 . S
O129 Cd130 2.203 . S
Cd130 O129 2.203 . S
Cd130 O132 2.411 . S
Cd130 O133 2.333 . S
Cd130 O134 2.352 . S
Cd130 O138 2.277 . S
Cd130 O139 2.356 . S
C131 O136 1.209 . S
C131 O138 1.226 . S
O132 Cd128 2.273 . S
O132 Cd130 2.411 . S
O132 C135 1.320 . S
O133 Cd130 2.333 . S
O133 C135 1.214 . S
O134 Cd130 2.352 . S
O134 C137 1.258 . S
C135 O132 1.320 . S
C135 O133 1.214 . S
O136 Cd128 2.277 . S
O136 C131 1.209 . S
C137 O134 1.258 . S
C137 O139 1.282 . S
O138 Cd130 2.277 . S
O138 C131 1.226 . S
O139 Cd130 2.356 . S
O139 C137 1.282 . S
C140 O141 1.306 . S
C140 O143 1.160 . S
O141 C140 1.306 . S
O141 Cd142 2.228 . S
Cd142 O141 2.228 . S
Cd142 O146 2.273 . S
Cd142 O150 2.277 . S
O143 C140 1.160 . S
O143 Cd144 2.203 . S
Cd144 O143 2.203 . S
Cd144 O146 2.411 . S
Cd144 O147 2.333 . S
Cd144 O148 2.352 . S
Cd144 O152 2.277 . S
Cd144 O153 2.356 . S
C145 O150 1.209 . S
C145 O152 1.226 . S
O146 Cd142 2.273 . S
O146 Cd144 2.411 . S
O146 C149 1.320 . S
O147 Cd144 2.333 . S
O147 C149 1.214 . S
O148 Cd144 2.352 . S
O148 C151 1.258 . S
C149 O146 1.320 . S
C149 O147 1.214 . S
O150 Cd142 2.277 . S
O150 C145 1.209 . S
C151 O148 1.258 . S
C151 O153 1.282 . S
O152 Cd144 2.277 . S
O152 C145 1.226 . S
O153 Cd144 2.356 . S
O153 C151 1.282 . S
C154 O155 1.306 . S
C154 O157 1.160 . S
O155 C154 1.306 . S
O155 Cd156 2.228 . S
Cd156 O155 2.228 . S
Cd156 O160 2.273 . S
Cd156 O164 2.277 . S
O157 C154 1.160 . S
O157 Cd158 2.203 . S
Cd158 O157 2.203 . S
Cd158 O160 2.411 . S
Cd158 O161 2.333 . S
Cd158 O162 2.352 . S
Cd158 O166 2.277 . S
Cd158 O167 2.356 . S
C159 O164 1.209 . S
C159 O166 1.226 . S
O160 Cd156 2.273 . S
O160 Cd158 2.411 . S
O160 C163 1.320 . S
O161 Cd158 2.333 . S
O161 C163 1.214 . S
O162 Cd158 2.352 . S
O162 C165 1.258 . S
C163 O160 1.320 . S
C163 O161 1.214 . S
O164 Cd156 2.277 . S
O164 C159 1.209 . S
C165 O162 1.258 . S
C165 O167 1.282 . S
O166 Cd158 2.277 . S
O166 C159 1.226 . S
O167 Cd158 2.356 . S
O167 C165 1.282 . S
C168 O169 1.306 . S
C168 O171 1.160 . S
O169 C168 1.306 . S
O169 Cd170 2.228 . S
Cd170 O169 2.228 . S
Cd170 O174 2.273 . S
Cd170 O178 2.277 . S
O171 C168 1.160 . S
O171 Cd172 2.203 . S
Cd172 O171 2.203 . S
Cd172 O174 2.411 . S
Cd172 O175 2.333 . S
Cd172 O176 2.352 . S
Cd172 O180 2.277 . S
Cd172 O181 2.356 . S
C173 O178 1.209 . S
C173 O180 1.226 . S
O174 Cd170 2.273 . S
O174 Cd172 2.411 . S
O174 C177 1.320 . S
O175 Cd172 2.333 . S
O175 C177 1.214 . S
O176 Cd172 2.352 . S
O176 C179 1.258 . S
C177 O174 1.320 . S
C177 O175 1.214 . S
O178 Cd170 2.277 . S
O178 C173 1.209 . S
C179 O176 1.258 . S
C179 O181 1.282 . S
O180 Cd172 2.277 . S
O180 C173 1.226 . S
O181 Cd172 2.356 . S
O181 C179 1.282 . S
C182 O183 1.306 . S
C182 O185 1.160 . S
O183 C182 1.306 . S
O183 Cd184 2.228 . S
Cd184 O183 2.228 . S
Cd184 O188 2.273 . S
Cd184 O192 2.277 . S
O185 C182 1.160 . S
O185 Cd186 2.203 . S
Cd186 O185 2.203 . S
Cd186 O188 2.411 . S
Cd186 O189 2.333 . S
Cd186 O190 2.352 . S
Cd186 O194 2.277 . S
Cd186 O195 2.356 . S
C187 O192 1.209 . S
C187 O194 1.226 . S
O188 Cd184 2.273 . S
O188 Cd186 2.411 . S
O188 C191 1.320 . S
O189 Cd186 2.333 . S
O189 C191 1.214 . S
O190 Cd186 2.352 . S
O190 C193 1.258 . S
C191 O188 1.320 . S
C191 O189 1.214 . S
O192 Cd184 2.277 . S
O192 C187 1.209 . S
C193 O190 1.258 . S
C193 O195 1.282 . S
O194 Cd186 2.277 . S
O194 C187 1.226 . S
O195 Cd186 2.356 . S
O195 C193 1.282 . S
C196 O197 1.306 . S
C196 O199 1.160 . S
O197 C196 1.306 . S
O197 Cd198 2.228 . S
Cd198 O197 2.228 . S
Cd198 O202 2.273 . S
Cd198 O206 2.277 . S
O199 C196 1.160 . S
O199 Cd200 2.203 . S
Cd200 O199 2.203 . S
Cd200 O202 2.411 . S
Cd200 O203 2.333 . S
Cd200 O204 2.352 . S
Cd200 O208 2.277 . S
Cd200 O209 2.356 . S
C201 O206 1.209 . S
C201 O208 1.226 . S
O202 Cd198 2.273 . S
O202 Cd200 2.411 . S
O202 C205 1.320 . S
O203 Cd200 2.333 . S
O203 C205 1.214 . S
O204 Cd200 2.352 . S
O204 C207 1.258 . S
C205 O202 1.320 . S
C205 O203 1.214 . S
O206 Cd198 2.277 . S
O206 C201 1.209 . S
C207 O204 1.258 . S
C207 O209 1.282 . S
O208 Cd200 2.277 . S
O208 C201 1.226 . S
O209 Cd200 2.356 . S
O209 C207 1.282 . S
C210 O211 1.306 . S
C210 O213 1.160 . S
O211 C210 1.306 . S
O211 Cd212 2.228 . S
Cd212 O211 2.228 . S
Cd212 O216 2.273 . S
Cd212 O220 2.277 . S
O213 C210 1.160 . S
O213 Cd214 2.203 . S
Cd214 O213 2.203 . S
Cd214 O216 2.411 . S
Cd214 O217 2.333 . S
Cd214 O218 2.352 . S
Cd214 O222 2.277 . S
Cd214 O223 2.356 . S
C215 O220 1.209 . S
C215 O222 1.226 . S
O216 Cd212 2.273 . S
O216 Cd214 2.411 . S
O216 C219 1.320 . S
O217 Cd214 2.333 . S
O217 C219 1.214 . S
O218 Cd214 2.352 . S
O218 C221 1.258 . S
C219 O216 1.320 . S
C219 O217 1.214 . S
O220 Cd212 2.277 . S
O220 C215 1.209 . S
C221 O218 1.258 . S
C221 O223 1.282 . S
O222 Cd214 2.277 . S
O222 C215 1.226 . S
O223 Cd214 2.356 . S
O223 C221 1.282 . S
H224 C242 0.951 . S
H225 C244 0.951 . S
H226 C246 0.950 . S
H227 C247 0.950 . S
H228 C249 0.950 . S
H229 C252 0.950 . S
H230 C253 0.950 . S
H231 C255 0.950 . S
H232 C256 0.950 1_556 S
H233 C257 0.951 . S
H234 C259 0.951 . S
H235 C261 0.950 . S
H236 C262 0.950 . S
H237 C264 0.950 . S
H238 C267 0.950 . S
H239 C268 0.950 . S
H240 C270 0.950 . S
H241 C271 0.950 . S
C242 H224 0.951 . S
C242 C243 1.366 . S
C242 C244 1.388 . S
C243 C242 1.366 . S
C243 C247 1.385 . S
C244 H225 0.951 . S
C244 C242 1.388 . S
C244 C245 1.366 . S
C245 C244 1.366 . S
C245 C246 1.414 . S
C245 C248 1.499 . S
C246 H226 0.950 . S
C246 C245 1.414 . S
C246 C247 1.374 . S
C247 H227 0.950 . S
C247 C243 1.385 . S
C247 C246 1.374 . S
C248 C245 1.499 . S
C248 C249 1.373 1_554 S
C248 C250 1.389 . S
C249 H228 0.950 . S
C249 C248 1.373 1_556 S
C249 C265 1.377 . S
C250 C248 1.389 . S
C250 C251 1.524 . S
C250 C264 1.377 1_554 S
C251 C250 1.524 . S
C251 C252 1.397 . S
C251 C256 1.363 . S
C252 H229 0.950 . S
C252 C251 1.397 . S
C252 C253 1.334 . S
C253 H230 0.950 . S
C253 C252 1.334 . S
C253 C254 1.287 . S
C254 C253 1.287 . S
C254 C255 1.524 . S
C254 H273 0.913 . S
C255 H231 0.950 . S
C255 C254 1.524 . S
C255 C256 1.415 . S
C256 H232 0.950 1_554 S
C256 C251 1.363 . S
C256 C255 1.415 . S
C257 H233 0.951 . S
C257 C258 1.366 . S
C257 C259 1.388 . S
C258 C257 1.366 . S
C258 C262 1.385 . S
C259 H234 0.951 . S
C259 C257 1.388 . S
C259 C260 1.366 . S
C260 C259 1.366 . S
C260 C261 1.414 . S
C260 C263 1.499 . S
C261 H235 0.950 . S
C261 C260 1.414 . S
C261 C262 1.374 . S
C262 H236 0.950 . S
C262 C258 1.385 . S
C262 C261 1.374 . S
C263 C260 1.499 . S
C263 C264 1.373 . S
C263 C265 1.389 . S
C264 H237 0.950 . S
C264 C250 1.377 1_556 S
C264 C263 1.373 . S
C265 C249 1.377 . S
C265 C263 1.389 . S
C265 C266 1.524 . S
C266 C265 1.524 . S
C266 C267 1.397 . S
C266 C271 1.363 . S
C267 H238 0.950 . S
C267 C266 1.397 . S
C267 C268 1.334 . S
C268 H239 0.950 . S
C268 C267 1.334 . S
C268 C269 1.287 . S
C269 C268 1.287 . S
C269 C270 1.524 . S
C269 H272 0.999 . S
C270 H240 0.950 . S
C270 C269 1.524 . S
C270 C271 1.415 . S
C271 H241 0.950 . S
C271 C266 1.363 . S
C271 C270 1.415 . S
H272 C269 0.999 . S
H273 C254 0.913 . S
H274 C292 0.951 . S
H275 C294 0.951 . S
H276 C296 0.950 . S
H277 C297 0.950 . S
H278 C299 0.950 . S
H279 C302 0.950 . S
H280 C303 0.950 . S
H281 C305 0.950 . S
H282 C306 0.950 . S
H283 C307 0.951 . S
H284 C309 0.951 . S
H285 C311 0.950 . S
H286 C312 0.950 . S
H287 C314 0.950 . S
H288 C317 0.950 . S
H289 C318 0.950 . S
H290 C320 0.950 . S
H291 C321 0.950 . S
C292 H274 0.951 . S
C292 C293 1.366 . S
C292 C294 1.388 . S
C293 C292 1.366 . S
C293 C297 1.385 . S
C294 H275 0.951 . S
C294 C292 1.388 . S
C294 C295 1.366 . S
C295 C294 1.366 . S
C295 C296 1.414 . S
C295 C298 1.499 . S
C296 H276 0.950 . S
C296 C295 1.414 . S
C296 C297 1.374 . S
C297 H277 0.950 . S
C297 C293 1.385 . S
C297 C296 1.374 . S
C298 C295 1.499 . S
C298 C299 1.373 . S
C298 C300 1.389 . S
C299 H278 0.950 . S
C299 C298 1.373 . S
C299 C315 1.377 . S
C300 C298 1.389 . S
C300 C301 1.524 . S
C300 C314 1.377 . S
C301 C300 1.524 . S
C301 C302 1.397 . S
C301 C306 1.363 . S
C302 H279 0.950 . S
C302 C301 1.397 . S
C302 C303 1.334 . S
C303 H280 0.950 . S
C303 C302 1.334 . S
C303 C304 1.287 . S
C304 C303 1.287 . S
C304 C305 1.524 . S
C304 H323 0.913 . S
C305 H281 0.950 . S
C305 C304 1.524 . S
C305 C306 1.415 . S
C306 H282 0.950 . S
C306 C301 1.363 . S
C306 C305 1.415 . S
C307 H283 0.951 . S
C307 C308 1.366 . S
C307 C309 1.388 . S
C308 C307 1.366 . S
C308 C312 1.385 . S
C309 H284 0.951 . S
C309 C307 1.388 . S
C309 C310 1.366 . S
C310 C309 1.366 . S
C310 C311 1.414 . S
C310 C313 1.499 . S
C311 H285 0.950 . S
C311 C310 1.414 . S
C311 C312 1.374 . S
C312 H286 0.950 . S
C312 C308 1.385 . S
C312 C311 1.374 . S
C313 C310 1.499 . S
C313 C314 1.373 . S
C313 C315 1.389 . S
C314 H287 0.950 . S
C314 C300 1.377 . S
C314 C313 1.373 . S
C315 C299 1.377 . S
C315 C313 1.389 . S
C315 C316 1.524 . S
C316 C315 1.524 . S
C316 C317 1.397 . S
C316 C321 1.363 . S
C317 H288 0.950 . S
C317 C316 1.397 . S
C317 C318 1.334 . S
C318 H289 0.950 . S
C318 C317 1.334 . S
C318 C319 1.287 . S
C319 C318 1.287 . S
C319 C320 1.524 . S
C319 H322 0.999 . S
C320 H290 0.950 . S
C320 C319 1.524 . S
C320 C321 1.415 . S
C321 H291 0.950 . S
C321 C316 1.363 . S
C321 C320 1.415 . S
H322 C319 0.999 . S
H323 C304 0.913 . S
H324 C342 0.951 . S
H325 C344 0.951 . S
H326 C346 0.950 . S
H327 C347 0.950 . S
H328 C349 0.950 . S
H329 C352 0.950 . S
H330 C353 0.950 . S
H331 C355 0.950 . S
H332 C356 0.950 . S
H333 C357 0.951 . S
H334 C359 0.951 . S
H335 C361 0.950 . S
H336 C362 0.950 . S
H337 C364 0.950 . S
H338 C367 0.950 . S
H339 C368 0.950 . S
H340 C370 0.950 . S
H341 C371 0.950 . S
C342 H324 0.951 . S
C342 C343 1.366 . S
C342 C344 1.388 . S
C343 C342 1.366 . S
C343 C347 1.385 . S
C344 H325 0.951 . S
C344 C342 1.388 . S
C344 C345 1.366 . S
C345 C344 1.366 . S
C345 C346 1.414 . S
C345 C348 1.499 . S
C346 H326 0.950 . S
C346 C345 1.414 . S
C346 C347 1.374 . S
C347 H327 0.950 . S
C347 C343 1.385 . S
C347 C346 1.374 . S
C348 C345 1.499 . S
C348 C349 1.373 1_556 S
C348 C350 1.389 . S
C349 H328 0.950 . S
C349 C348 1.373 1_554 S
C349 C365 1.377 . S
C350 C348 1.389 . S
C350 C351 1.524 . S
C350 C364 1.377 . S
C351 C350 1.524 . S
C351 C352 1.397 . S
C351 C356 1.363 . S
C352 H329 0.950 . S
C352 C351 1.397 . S
C352 C353 1.334 . S
C353 H330 0.950 . S
C353 C352 1.334 . S
C353 C354 1.287 . S
C354 C353 1.287 . S
C354 C355 1.524 . S
C354 H373 0.913 . S
C355 H331 0.950 . S
C355 C354 1.524 . S
C355 C356 1.415 . S
C356 H332 0.950 . S
C356 C351 1.363 . S
C356 C355 1.415 . S
C357 H333 0.951 . S
C357 C358 1.366 . S
C357 C359 1.388 . S
C358 C357 1.366 . S
C358 C362 1.385 . S
C359 H334 0.951 . S
C359 C357 1.388 . S
C359 C360 1.366 . S
C360 C359 1.366 . S
C360 C361 1.414 . S
C360 C363 1.499 . S
C361 H335 0.950 . S
C361 C360 1.414 . S
C361 C362 1.374 . S
C362 H336 0.950 . S
C362 C358 1.385 . S
C362 C361 1.374 . S
C363 C360 1.499 . S
C363 C364 1.373 1_554 S
C363 C365 1.389 . S
C364 H337 0.950 . S
C364 C350 1.377 . S
C364 C363 1.373 1_556 S
C365 C349 1.377 . S
C365 C363 1.389 . S
C365 C366 1.524 . S
C366 C365 1.524 . S
C366 C367 1.397 . S
C366 C371 1.363 . S
C367 H338 0.950 . S
C367 C366 1.397 . S
C367 C368 1.334 . S
C368 H339 0.950 . S
C368 C367 1.334 . S
C368 C369 1.287 . S
C369 C368 1.287 . S
C369 C370 1.524 . S
C369 H372 0.999 . S
C370 H340 0.950 . S
C370 C369 1.524 . S
C370 C371 1.415 . S
C371 H341 0.950 . S
C371 C366 1.363 . S
C371 C370 1.415 . S
H372 C369 0.999 . S
H373 C354 0.913 . S
H374 C392 0.951 . S
H375 C394 0.951 . S
H376 C396 0.950 . S
H377 C397 0.950 . S
H378 C399 0.950 . S
H379 C402 0.950 . S
H380 C403 0.950 . S
H381 C405 0.950 . S
H382 C406 0.950 . S
H383 C407 0.951 . S
H384 C409 0.951 . S
H385 C411 0.950 . S
H386 C412 0.950 . S
H387 C414 0.950 . S
H388 C417 0.950 . S
H389 C418 0.950 . S
H390 C420 0.950 . S
H391 C421 0.950 . S
C392 H374 0.951 . S
C392 C393 1.366 . S
C392 C394 1.388 . S
C393 C392 1.366 . S
C393 C397 1.385 . S
C394 H375 0.951 . S
C394 C392 1.388 . S
C394 C395 1.366 . S
C395 C394 1.366 . S
C395 C396 1.414 . S
C395 C398 1.499 . S
C396 H376 0.950 . S
C396 C395 1.414 . S
C396 C397 1.374 . S
C397 H377 0.950 . S
C397 C393 1.385 . S
C397 C396 1.374 . S
C398 C395 1.499 . S
C398 C399 1.373 . S
C398 C400 1.389 . S
C399 H378 0.950 . S
C399 C398 1.373 . S
C399 C415 1.377 . S
C400 C398 1.389 . S
C400 C401 1.524 . S
C400 C414 1.377 . S
C401 C400 1.524 . S
C401 C402 1.397 . S
C401 C406 1.363 . S
C402 H379 0.950 . S
C402 C401 1.397 . S
C402 C403 1.334 . S
C403 H380 0.950 . S
C403 C402 1.334 . S
C403 C404 1.287 . S
C404 C403 1.287 . S
C404 C405 1.524 . S
C404 H423 0.913 . S
C405 H381 0.950 . S
C405 C404 1.524 . S
C405 C406 1.415 . S
C406 H382 0.950 . S
C406 C401 1.363 . S
C406 C405 1.415 . S
C407 H383 0.951 . S
C407 C408 1.366 . S
C407 C409 1.388 . S
C408 C407 1.366 . S
C408 C412 1.385 . S
C409 H384 0.951 . S
C409 C407 1.388 . S
C409 C410 1.366 . S
C410 C409 1.366 . S
C410 C411 1.414 . S
C410 C413 1.499 . S
C411 H385 0.950 . S
C411 C410 1.414 . S
C411 C412 1.374 . S
C412 H386 0.950 . S
C412 C408 1.385 . S
C412 C411 1.374 . S
C413 C410 1.499 . S
C413 C414 1.373 . S
C413 C415 1.389 . S
C414 H387 0.950 . S
C414 C400 1.377 . S
C414 C413 1.373 . S
C415 C399 1.377 . S
C415 C413 1.389 . S
C415 C416 1.524 . S
C416 C415 1.524 . S
C416 C417 1.397 . S
C416 C421 1.363 . S
C417 H388 0.950 . S
C417 C416 1.397 . S
C417 C418 1.334 . S
C418 H389 0.950 . S
C418 C417 1.334 . S
C418 C419 1.287 . S
C419 C418 1.287 . S
C419 C420 1.524 . S
C419 H422 0.999 . S
C420 H390 0.950 . S
C420 C419 1.524 . S
C420 C421 1.415 . S
C421 H391 0.950 . S
C421 C416 1.363 . S
C421 C420 1.415 . S
H422 C419 0.999 . S
H423 C404 0.913 . S
H424 C442 0.951 . S
H425 C444 0.951 . S
H426 C446 0.950 1_556 S
H427 C447 0.950 . S
H428 C449 0.951 . S
H429 C452 0.950 . S
H430 C453 0.952 1_556 S
H431 C455 0.950 . S
H432 C456 0.950 . S
H433 C457 0.951 . S
H434 C459 0.951 . S
H435 C461 0.950 . S
H436 C462 0.950 . S
H437 C464 0.950 . S
H438 C467 0.947 . S
H439 C468 0.950 . S
H440 C470 0.950 . S
H441 C471 0.950 . S
C442 H424 0.951 . S
C442 C443 1.366 . S
C442 C444 1.388 . S
C443 C442 1.366 . S
C443 C447 1.385 . S
C444 H425 0.951 . S
C444 C442 1.388 . S
C444 C445 1.366 . S
C445 C444 1.366 . S
C445 C446 1.414 . S
C445 C448 1.499 . S
C446 H426 0.950 1_554 S
C446 C445 1.414 . S
C446 C447 1.374 . S
C447 H427 0.950 . S
C447 C443 1.385 . S
C447 C446 1.374 . S
C448 C445 1.499 . S
C448 C449 1.373 1_554 S
C448 C450 1.397 . S
C449 H428 0.951 . S
C449 C448 1.373 1_556 S
C449 C465 1.377 . S
C450 C448 1.397 . S
C450 C451 1.535 . S
C450 C464 1.357 1_554 S
C451 C450 1.535 . S
C451 C452 1.397 1_554 S
C451 C456 1.363 . S
C452 H429 0.950 . S
C452 C451 1.397 1_556 S
C452 C453 1.335 1_556 S
C453 H430 0.952 1_554 S
C453 C452 1.335 1_554 S
C453 C454 1.285 . S
C454 C453 1.285 . S
C454 C455 1.524 . S
C454 H473 0.913 . S
C455 H431 0.950 . S
C455 C454 1.524 . S
C455 C456 1.415 . S
C456 H432 0.950 . S
C456 C451 1.363 . S
C456 C455 1.415 . S
C457 H433 0.951 . S
C457 C458 1.366 . S
C457 C459 1.388 . S
C458 C457 1.366 . S
C458 C462 1.385 . S
C459 H434 0.951 . S
C459 C457 1.388 . S
C459 C460 1.366 . S
C460 C459 1.366 . S
C460 C461 1.414 . S
C460 C463 1.499 . S
C461 H435 0.950 . S
C461 C460 1.414 . S
C461 C462 1.374 . S
C462 H436 0.950 . S
C462 C458 1.385 . S
C462 C461 1.374 . S
C463 C460 1.499 . S
C463 C464 1.373 . S
C463 C465 1.389 . S
C464 H437 0.950 . S
C464 C450 1.357 1_556 S
C464 C463 1.373 . S
C465 C449 1.377 . S
C465 C463 1.389 . S
C465 C466 1.524 . S
C466 C465 1.524 . S
C466 C467 1.397 . S
C466 C471 1.363 . S
C467 H438 0.947 . S
C467 C466 1.397 . S
C467 C468 1.334 . S
C468 H439 0.950 . S
C468 C467 1.334 . S
C468 C469 1.287 . S
C469 C468 1.287 . S
C469 C470 1.524 . S
C469 H472 0.999 . S
C470 H440 0.950 . S
C470 C469 1.524 . S
C470 C471 1.415 . S
C471 H441 0.950 . S
C471 C466 1.363 . S
C471 C470 1.415 . S
H472 C469 0.999 . S
H473 C454 0.913 . S
H474 C492 0.951 . S
H475 C494 0.951 . S
H476 C496 0.950 . S
H477 C497 0.950 . S
H478 C499 0.950 . S
H479 C502 0.950 . S
H480 C503 0.950 . S
H481 C505 0.950 . S
H482 C506 0.950 . S
H483 C507 0.951 . S
H484 C509 0.951 . S
H485 C511 0.950 . S
H486 C512 0.950 . S
H487 C514 0.950 . S
H488 C517 0.950 . S
H489 C518 0.950 . S
H490 C520 0.950 . S
H491 C521 0.950 . S
C492 H474 0.951 . S
C492 C493 1.366 . S
C492 C494 1.388 . S
C493 C492 1.366 . S
C493 C497 1.385 . S
C494 H475 0.951 . S
C494 C492 1.388 . S
C494 C495 1.366 . S
C495 C494 1.366 . S
C495 C496 1.414 . S
C495 C498 1.499 . S
C496 H476 0.950 . S
C496 C495 1.414 . S
C496 C497 1.374 . S
C497 H477 0.950 . S
C497 C493 1.385 . S
C497 C496 1.374 . S
C498 C495 1.499 . S
C498 C499 1.373 . S
C498 C500 1.389 . S
C499 H478 0.950 . S
C499 C498 1.373 . S
C499 C515 1.377 . S
C500 C498 1.389 . S
C500 C501 1.524 . S
C500 C514 1.377 . S
C501 C500 1.524 . S
C501 C502 1.397 . S
C501 C506 1.363 . S
C502 H479 0.950 . S
C502 C501 1.397 . S
C502 C503 1.334 . S
C503 H480 0.950 . S
C503 C502 1.334 . S
C503 C504 1.287 . S
C504 C503 1.287 . S
C504 C505 1.524 . S
C504 H523 0.913 . S
C505 H481 0.950 . S
C505 C504 1.524 . S
C505 C506 1.415 . S
C506 H482 0.950 . S
C506 C501 1.363 . S
C506 C505 1.415 . S
C507 H483 0.951 . S
C507 C508 1.366 . S
C507 C509 1.388 . S
C508 C507 1.366 . S
C508 C512 1.385 . S
C509 H484 0.951 . S
C509 C507 1.388 . S
C509 C510 1.366 . S
C510 C509 1.366 . S
C510 C511 1.414 . S
C510 C513 1.499 . S
C511 H485 0.950 . S
C511 C510 1.414 . S
C511 C512 1.374 . S
C512 H486 0.950 . S
C512 C508 1.385 . S
C512 C511 1.374 . S
C513 C510 1.499 . S
C513 C514 1.373 . S
C513 C515 1.389 . S
C514 H487 0.950 . S
C514 C500 1.377 . S
C514 C513 1.373 . S
C515 C499 1.377 . S
C515 C513 1.389 . S
C515 C516 1.524 . S
C516 C515 1.524 . S
C516 C517 1.397 . S
C516 C521 1.363 . S
C517 H488 0.950 . S
C517 C516 1.397 . S
C517 C518 1.334 . S
C518 H489 0.950 . S
C518 C517 1.334 . S
C518 C519 1.287 . S
C519 C518 1.287 . S
C519 C520 1.524 . S
C519 H522 0.999 . S
C520 H490 0.950 . S
C520 C519 1.524 . S
C520 C521 1.415 . S
C521 H491 0.950 . S
C521 C516 1.363 . S
C521 C520 1.415 . S
H522 C519 0.999 . S
H523 C504 0.913 . S
H524 C542 0.951 . S
H525 C544 0.951 . S
H526 C546 0.950 . S
H527 C547 0.950 . S
H528 C549 0.950 . S
H529 C552 0.950 . S
H530 C553 0.950 . S
H531 C555 0.950 . S
H532 C556 0.950 . S
H533 C557 0.951 . S
H534 C559 0.951 . S
H535 C561 0.950 . S
H536 C562 0.950 . S
H537 C564 0.950 . S
H538 C567 0.950 . S
H539 C568 0.950 . S
H540 C570 0.950 . S
H541 C571 0.950 . S
C542 H524 0.951 . S
C542 C543 1.366 . S
C542 C544 1.388 . S
C543 C542 1.366 . S
C543 C547 1.385 . S
C544 H525 0.951 . S
C544 C542 1.388 . S
C544 C545 1.366 . S
C545 C544 1.366 . S
C545 C546 1.414 . S
C545 C548 1.499 . S
C546 H526 0.950 . S
C546 C545 1.414 . S
C546 C547 1.374 . S
C547 H527 0.950 . S
C547 C543 1.385 . S
C547 C546 1.374 . S
C548 C545 1.499 . S
C548 C549 1.373 . S
C548 C550 1.389 1_556 S
C549 H528 0.950 . S
C549 C548 1.373 . S
C549 C565 1.377 . S
C550 C548 1.389 1_554 S
C550 C551 1.524 . S
C550 C564 1.377 . S
C551 C550 1.524 . S
C551 C552 1.397 . S
C551 C556 1.363 . S
C552 H529 0.950 . S
C552 C551 1.397 . S
C552 C553 1.334 . S
C553 H530 0.950 . S
C553 C552 1.334 . S
C553 C554 1.287 . S
C554 C553 1.287 . S
C554 C555 1.524 . S
C554 H573 0.913 . S
C555 H531 0.950 . S
C555 C554 1.524 . S
C555 C556 1.415 . S
C556 H532 0.950 . S
C556 C551 1.363 . S
C556 C555 1.415 . S
C557 H533 0.951 . S
C557 C558 1.366 . S
C557 C559 1.388 . S
C558 C557 1.366 . S
C558 C562 1.385 . S
C559 H534 0.951 . S
C559 C557 1.388 . S
C559 C560 1.366 . S
C560 C559 1.366 . S
C560 C561 1.414 . S
C560 C563 1.499 . S
C561 H535 0.950 . S
C561 C560 1.414 . S
C561 C562 1.374 . S
C562 H536 0.950 . S
C562 C558 1.385 . S
C562 C561 1.374 . S
C563 C560 1.499 . S
C563 C564 1.373 . S
C563 C565 1.389 1_554 S
C564 H537 0.950 . S
C564 C550 1.377 . S
C564 C563 1.373 . S
C565 C549 1.377 . S
C565 C563 1.389 1_556 S
C565 C566 1.524 . S
C566 C565 1.524 . S
C566 C567 1.397 . S
C566 C571 1.363 . S
C567 H538 0.950 . S
C567 C566 1.397 . S
C567 C568 1.334 . S
C568 H539 0.950 . S
C568 C567 1.334 . S
C568 C569 1.287 . S
C569 C568 1.287 . S
C569 C570 1.524 . S
C569 H572 0.999 . S
C570 H540 0.950 . S
C570 C569 1.524 . S
C570 C571 1.415 . S
C571 H541 0.950 . S
C571 C566 1.363 . S
C571 C570 1.415 . S
H572 C569 0.999 . S
H573 C554 0.913 . S
H574 C592 0.951 . S
H575 C594 0.951 . S
H576 C596 0.950 . S
H577 C597 0.950 . S
H578 C599 0.950 . S
H579 C602 0.950 . S
H580 C603 0.950 . S
H581 C605 0.950 . S
H582 C606 0.950 . S
H583 C607 0.951 . S
H584 C609 0.951 . S
H585 C611 0.950 . S
H586 C612 0.950 . S
H587 C614 0.950 . S
H588 C617 0.950 . S
H589 C618 0.950 . S
H590 C620 0.950 . S
H591 C621 0.950 . S
C592 H574 0.951 . S
C592 C593 1.366 . S
C592 C594 1.388 . S
C593 C592 1.366 . S
C593 C597 1.385 . S
C594 H575 0.951 . S
C594 C592 1.388 . S
C594 C595 1.366 . S
C595 C594 1.366 . S
C595 C596 1.414 . S
C595 C598 1.499 . S
C596 H576 0.950 . S
C596 C595 1.414 . S
C596 C597 1.374 . S
C597 H577 0.950 . S
C597 C593 1.385 . S
C597 C596 1.374 . S
C598 C595 1.499 . S
C598 C599 1.373 . S
C598 C600 1.389 . S
C599 H578 0.950 . S
C599 C598 1.373 . S
C599 C615 1.377 . S
C600 C598 1.389 . S
C600 C601 1.524 . S
C600 C614 1.377 . S
C601 C600 1.524 . S
C601 C602 1.397 . S
C601 C606 1.363 . S
C602 H579 0.950 . S
C602 C601 1.397 . S
C602 C603 1.334 . S
C603 H580 0.950 . S
C603 C602 1.334 . S
C603 C604 1.287 . S
C604 C603 1.287 . S
C604 C605 1.524 . S
C604 H623 0.913 . S
C605 H581 0.950 . S
C605 C604 1.524 . S
C605 C606 1.415 . S
C606 H582 0.950 . S
C606 C601 1.363 . S
C606 C605 1.415 . S
C607 H583 0.951 . S
C607 C608 1.366 . S
C607 C609 1.388 . S
C608 C607 1.366 . S
C608 C612 1.385 . S
C609 H584 0.951 . S
C609 C607 1.388 . S
C609 C610 1.366 . S
C610 C609 1.366 . S
C610 C611 1.414 . S
C610 C613 1.499 . S
C611 H585 0.950 . S
C611 C610 1.414 . S
C611 C612 1.374 . S
C612 H586 0.950 . S
C612 C608 1.385 . S
C612 C611 1.374 . S
C613 C610 1.499 . S
C613 C614 1.373 . S
C613 C615 1.389 . S
C614 H587 0.950 . S
C614 C600 1.377 . S
C614 C613 1.373 . S
C615 C599 1.377 . S
C615 C613 1.389 . S
C615 C616 1.524 . S
C616 C615 1.524 . S
C616 C617 1.397 . S
C616 C621 1.363 . S
C617 H588 0.950 . S
C617 C616 1.397 . S
C617 C618 1.334 . S
C618 H589 0.950 . S
C618 C617 1.334 . S
C618 C619 1.287 . S
C619 C618 1.287 . S
C619 C620 1.524 . S
C619 H622 0.999 . S
C620 H590 0.950 . S
C620 C619 1.524 . S
C620 C621 1.415 . S
C621 H591 0.950 . S
C621 C616 1.363 . S
C621 C620 1.415 . S
H622 C619 0.999 . S
H623 C604 0.913 . S
H624 C642 0.951 . S
H625 C644 0.951 . S
H626 C646 0.950 1_556 S
H627 C647 0.950 . S
H628 C649 0.950 . S
H629 C652 0.950 . S
H630 C653 0.950 . S
H631 C655 0.950 . S
H632 C656 0.950 . S
H633 C657 0.951 . S
H634 C659 0.951 . S
H635 C661 0.950 1_554 S
H636 C662 0.950 . S
H637 C664 0.950 . S
H638 C667 0.950 . S
H639 C668 0.950 . S
H640 C670 0.950 . S
H641 C671 0.950 . S
C642 H624 0.951 . S
C642 C643 1.366 . S
C642 C644 1.388 . S
C643 C642 1.366 . S
C643 C647 1.385 . S
C644 H625 0.951 . S
C644 C642 1.388 . S
C644 C645 1.366 . S
C645 C644 1.366 . S
C645 C646 1.414 . S
C645 C648 1.499 . S
C646 H626 0.950 1_554 S
C646 C645 1.414 . S
C646 C647 1.374 . S
C647 H627 0.950 . S
C647 C643 1.385 . S
C647 C646 1.374 . S
C648 C645 1.499 . S
C648 C649 1.373 1_554 S
C648 C650 1.389 . S
C649 H628 0.950 . S
C649 C648 1.373 1_556 S
C649 C665 1.377 1_545 S
C650 C648 1.389 . S
C650 C651 1.524 . S
C650 C664 1.377 1_545 S
C651 C650 1.524 . S
C651 C652 1.397 . S
C651 C656 1.363 1_545 S
C652 H629 0.950 . S
C652 C651 1.397 . S
C652 C653 1.334 . S
C653 H630 0.950 . S
C653 C652 1.334 . S
C653 C654 1.287 . S
C654 C653 1.287 . S
C654 C655 1.524 1_545 S
C654 H673 0.913 . S
C655 H631 0.950 . S
C655 C654 1.524 1_565 S
C655 C656 1.415 . S
C656 H632 0.950 . S
C656 C651 1.363 1_565 S
C656 C655 1.415 . S
C657 H633 0.951 . S
C657 C658 1.366 . S
C657 C659 1.388 . S
C658 C657 1.366 . S
C658 C662 1.385 . S
C659 H634 0.951 . S
C659 C657 1.388 . S
C659 C660 1.366 . S
C660 C659 1.366 . S
C660 C661 1.414 . S
C660 C663 1.499 . S
C661 H635 0.950 1_556 S
C661 C660 1.414 . S
C661 C662 1.374 . S
C662 H636 0.950 . S
C662 C658 1.385 . S
C662 C661 1.374 . S
C663 C660 1.499 . S
C663 C664 1.373 1_556 S
C663 C665 1.389 . S
C664 H637 0.950 . S
C664 C650 1.377 1_565 S
C664 C663 1.373 1_554 S
C665 C649 1.377 1_565 S
C665 C663 1.389 . S
C665 C666 1.524 . S
C666 C665 1.524 . S
C666 C667 1.397 . S
C666 C671 1.363 1_565 S
C667 H638 0.950 . S
C667 C666 1.397 . S
C667 C668 1.334 . S
C668 H639 0.950 . S
C668 C667 1.334 . S
C668 C669 1.287 . S
C669 C668 1.287 . S
C669 C670 1.524 1_565 S
C669 H672 0.999 . S
C670 H640 0.950 . S
C670 C669 1.524 1_545 S
C670 C671 1.415 . S
C671 H641 0.950 . S
C671 C666 1.363 1_545 S
C671 C670 1.415 . S
H672 C669 0.999 . S
H673 C654 0.913 . S
H674 C692 0.951 . S
H675 C694 0.951 . S
H676 C696 0.950 . S
H677 C697 0.950 . S
H678 C699 0.950 . S
H679 C702 0.950 . S
H680 C703 0.950 . S
H681 C705 0.950 . S
H682 C706 0.950 . S
H683 C707 0.951 . S
H684 C709 0.951 . S
H685 C711 0.950 . S
H686 C712 0.950 . S
H687 C714 0.950 . S
H688 C717 0.950 . S
H689 C718 0.950 . S
H690 C720 0.950 . S
H691 C721 0.950 . S
C692 H674 0.951 . S
C692 C693 1.366 . S
C692 C694 1.388 . S
C693 C692 1.366 . S
C693 C697 1.385 . S
C694 H675 0.951 . S
C694 C692 1.388 . S
C694 C695 1.366 . S
C695 C694 1.366 . S
C695 C696 1.414 . S
C695 C698 1.499 . S
C696 H676 0.950 . S
C696 C695 1.414 . S
C696 C697 1.374 . S
C697 H677 0.950 . S
C697 C693 1.385 . S
C697 C696 1.374 . S
C698 C695 1.499 . S
C698 C699 1.373 . S
C698 C700 1.389 . S
C699 H678 0.950 . S
C699 C698 1.373 . S
C699 C715 1.377 1_565 S
C700 C698 1.389 . S
C700 C701 1.524 . S
C700 C714 1.377 1_565 S
C701 C700 1.524 . S
C701 C702 1.397 . S
C701 C706 1.363 . S
C702 H679 0.950 . S
C702 C701 1.397 . S
C702 C703 1.334 . S
C703 H680 0.950 . S
C703 C702 1.334 . S
C703 C704 1.287 . S
C704 C703 1.287 . S
C704 C705 1.524 . S
C704 H723 0.913 . S
C705 H681 0.950 . S
C705 C704 1.524 . S
C705 C706 1.415 . S
C706 H682 0.950 . S
C706 C701 1.363 . S
C706 C705 1.415 . S
C707 H683 0.951 . S
C707 C708 1.366 . S
C707 C709 1.388 . S
C708 C707 1.366 . S
C708 C712 1.385 . S
C709 H684 0.951 . S
C709 C707 1.388 . S
C709 C710 1.366 . S
C710 C709 1.366 . S
C710 C711 1.414 . S
C710 C713 1.499 . S
C711 H685 0.950 . S
C711 C710 1.414 . S
C711 C712 1.374 . S
C712 H686 0.950 . S
C712 C708 1.385 . S
C712 C711 1.374 . S
C713 C710 1.499 . S
C713 C714 1.373 . S
C713 C715 1.389 . S
C714 H687 0.950 . S
C714 C700 1.377 1_545 S
C714 C713 1.373 . S
C715 C699 1.377 1_545 S
C715 C713 1.389 . S
C715 C716 1.524 . S
C716 C715 1.524 . S
C716 C717 1.397 . S
C716 C721 1.363 . S
C717 H688 0.950 . S
C717 C716 1.397 . S
C717 C718 1.334 . S
C718 H689 0.950 . S
C718 C717 1.334 . S
C718 C719 1.287 . S
C719 C718 1.287 . S
C719 C720 1.524 . S
C719 H722 0.999 . S
C720 H690 0.950 . S
C720 C719 1.524 . S
C720 C721 1.415 . S
C721 H691 0.950 . S
C721 C716 1.363 . S
C721 C720 1.415 . S
H722 C719 0.999 . S
H723 C704 0.913 . S
H724 C742 0.951 . S
H725 C744 0.951 . S
H726 C746 0.950 . S
H727 C747 0.950 . S
H728 C749 0.950 . S
H729 C752 0.950 . S
H730 C753 0.950 . S
H731 C755 0.950 . S
H732 C756 0.950 . S
H733 C757 0.951 . S
H734 C759 0.951 . S
H735 C761 0.950 . S
H736 C762 0.950 . S
H737 C764 0.950 . S
H738 C767 0.950 . S
H739 C768 0.950 . S
H740 C770 0.950 . S
H741 C771 0.950 . S
C742 H724 0.951 . S
C742 C743 1.366 . S
C742 C744 1.388 . S
C743 C742 1.366 . S
C743 C747 1.385 . S
C744 H725 0.951 . S
C744 C742 1.388 . S
C744 C745 1.366 . S
C745 C744 1.366 . S
C745 C746 1.414 . S
C745 C748 1.499 . S
C746 H726 0.950 . S
C746 C745 1.414 . S
C746 C747 1.374 . S
C747 H727 0.950 . S
C747 C743 1.385 . S
C747 C746 1.374 . S
C748 C745 1.499 . S
C748 C749 1.358 1_565 S
C748 C750 1.389 1_556 S
C749 H728 0.950 . S
C749 C748 1.358 1_545 S
C749 C765 1.391 . S
C750 C748 1.389 1_554 S
C750 C751 1.524 . S
C750 C764 1.391 . S
C751 C750 1.524 . S
C751 C752 1.397 . S
C751 C756 1.363 . S
C752 H729 0.950 . S
C752 C751 1.397 . S
C752 C753 1.334 . S
C753 H730 0.950 . S
C753 C752 1.334 . S
C753 C754 1.287 . S
C754 C753 1.287 . S
C754 C755 1.524 . S
C754 H773 0.913 . S
C755 H731 0.950 . S
C755 C754 1.524 . S
C755 C756 1.415 . S
C756 H732 0.950 . S
C756 C751 1.363 . S
C756 C755 1.415 . S
C757 H733 0.951 . S
C757 C758 1.366 . S
C757 C759 1.388 . S
C758 C757 1.366 . S
C758 C762 1.385 . S
C759 H734 0.951 . S
C759 C757 1.388 . S
C759 C760 1.366 . S
C760 C759 1.366 . S
C760 C761 1.414 . S
C760 C763 1.499 . S
C761 H735 0.950 . S
C761 C760 1.414 . S
C761 C762 1.374 . S
C762 H736 0.950 . S
C762 C758 1.385 . S
C762 C761 1.374 . S
C763 C760 1.499 . S
C763 C764 1.358 1_545 S
C763 C765 1.389 1_554 S
C764 H737 0.950 . S
C764 C750 1.391 . S
C764 C763 1.358 1_565 S
C765 C749 1.391 . S
C765 C763 1.389 1_556 S
C765 C766 1.524 . S
C766 C765 1.524 . S
C766 C767 1.397 . S
C766 C771 1.363 . S
C767 H738 0.950 . S
C767 C766 1.397 . S
C767 C768 1.334 . S
C768 H739 0.950 . S
C768 C767 1.334 . S
C768 C769 1.287 . S
C769 C768 1.287 . S
C769 C770 1.524 . S
C769 H772 0.999 . S
C770 H740 0.950 . S
C770 C769 1.524 . S
C770 C771 1.415 . S
C771 H741 0.950 . S
C771 C766 1.363 . S
C771 C770 1.415 . S
H772 C769 0.999 . S
H773 C754 0.913 . S
H774 C792 0.951 . S
H775 C794 0.951 . S
H776 C796 0.950 . S
H777 C797 0.950 . S
H778 C799 0.950 . S
H779 C802 0.950 . S
H780 C803 0.950 . S
H781 C805 0.950 . S
H782 C806 0.950 . S
H783 C807 0.951 . S
H784 C809 0.951 . S
H785 C811 0.950 . S
H786 C812 0.950 . S
H787 C814 0.950 . S
H788 C817 0.950 . S
H789 C818 0.950 . S
H790 C820 0.950 . S
H791 C821 0.950 . S
C792 H774 0.951 . S
C792 C793 1.366 . S
C792 C794 1.388 . S
C793 C792 1.366 . S
C793 C797 1.385 . S
C794 H775 0.951 . S
C794 C792 1.388 . S
C794 C795 1.366 . S
C795 C794 1.366 . S
C795 C796 1.414 . S
C795 C798 1.499 . S
C796 H776 0.950 . S
C796 C795 1.414 . S
C796 C797 1.374 . S
C797 H777 0.950 . S
C797 C793 1.385 . S
C797 C796 1.374 . S
C798 C795 1.499 . S
C798 C799 1.373 . S
C798 C800 1.389 . S
C799 H778 0.950 . S
C799 C798 1.373 . S
C799 C815 1.377 1_545 S
C800 C798 1.389 . S
C800 C801 1.524 . S
C800 C814 1.377 1_545 S
C801 C800 1.524 . S
C801 C802 1.397 . S
C801 C806 1.363 1_545 S
C802 H779 0.950 . S
C802 C801 1.397 . S
C802 C803 1.334 . S
C803 H780 0.950 . S
C803 C802 1.334 . S
C803 C804 1.287 . S
C804 C803 1.287 . S
C804 C805 1.524 1_545 S
C804 H823 0.913 . S
C805 H781 0.950 . S
C805 C804 1.524 1_565 S
C805 C806 1.415 . S
C806 H782 0.950 . S
C806 C801 1.363 1_565 S
C806 C805 1.415 . S
C807 H783 0.951 . S
C807 C808 1.366 . S
C807 C809 1.388 . S
C808 C807 1.366 . S
C808 C812 1.385 . S
C809 H784 0.951 . S
C809 C807 1.388 . S
C809 C810 1.366 . S
C810 C809 1.366 . S
C810 C811 1.414 . S
C810 C813 1.499 . S
C811 H785 0.950 . S
C811 C810 1.414 . S
C811 C812 1.374 . S
C812 H786 0.950 . S
C812 C808 1.385 . S
C812 C811 1.374 . S
C813 C810 1.499 . S
C813 C814 1.373 . S
C813 C815 1.389 . S
C814 H787 0.950 . S
C814 C800 1.377 1_565 S
C814 C813 1.373 . S
C815 C799 1.377 1_565 S
C815 C813 1.389 . S
C815 C816 1.524 . S
C816 C815 1.524 . S
C816 C817 1.397 . S
C816 C821 1.363 1_565 S
C817 H788 0.950 . S
C817 C816 1.397 . S
C817 C818 1.334 . S
C818 H789 0.950 . S
C818 C817 1.334 . S
C818 C819 1.287 . S
C819 C818 1.287 . S
C819 C820 1.524 1_565 S
C819 H822 0.999 . S
C820 H790 0.950 . S
C820 C819 1.524 1_545 S
C820 C821 1.415 . S
C821 H791 0.950 . S
C821 C816 1.363 1_545 S
C821 C820 1.415 . S
H822 C819 0.999 . S
H823 C804 0.913 . S
H824 C842 0.951 . S
H825 C844 0.951 1_554 S
H826 C846 0.950 . S
H827 C847 0.950 . S
H828 C849 0.950 . S
H829 C852 0.950 . S
H830 C853 0.950 . S
H831 C855 0.950 . S
H832 C856 0.950 . S
H833 C857 0.951 . S
H834 C859 0.951 1_556 S
H835 C861 0.950 . S
H836 C862 0.950 . S
H837 C864 0.950 . S
H838 C867 0.950 . S
H839 C868 0.950 . S
H840 C870 0.950 . S
H841 C871 0.950 . S
C842 H824 0.951 . S
C842 C843 1.366 . S
C842 C844 1.388 . S
C843 C842 1.366 . S
C843 C847 1.385 . S
C844 H825 0.951 1_556 S
C844 C842 1.388 . S
C844 C845 1.366 . S
C845 C844 1.366 . S
C845 C846 1.414 . S
C845 C848 1.499 . S
C846 H826 0.950 . S
C846 C845 1.414 . S
C846 C847 1.374 . S
C847 H827 0.950 . S
C847 C843 1.385 . S
C847 C846 1.374 . S
C848 C845 1.499 . S
C848 C849 1.373 . S
C848 C850 1.389 1_556 S
C849 H828 0.950 . S
C849 C848 1.373 . S
C849 C865 1.377 . S
C850 C848 1.389 1_554 S
C850 C851 1.524 . S
C850 C864 1.377 . S
C851 C850 1.524 . S
C851 C852 1.397 . S
C851 C856 1.363 . S
C852 H829 0.950 . S
C852 C851 1.397 . S
C852 C853 1.334 . S
C853 H830 0.950 . S
C853 C852 1.334 . S
C853 C854 1.287 . S
C854 C853 1.287 . S
C854 C855 1.524 . S
C854 H873 0.913 . S
C855 H831 0.950 . S
C855 C854 1.524 . S
C855 C856 1.415 . S
C856 H832 0.950 . S
C856 C851 1.363 . S
C856 C855 1.415 . S
C857 H833 0.951 . S
C857 C858 1.366 . S
C857 C859 1.388 . S
C858 C857 1.366 . S
C858 C862 1.385 . S
C859 H834 0.951 1_554 S
C859 C857 1.388 . S
C859 C860 1.366 . S
C860 C859 1.366 . S
C860 C861 1.414 . S
C860 C863 1.499 . S
C861 H835 0.950 . S
C861 C860 1.414 . S
C861 C862 1.374 . S
C862 H836 0.950 . S
C862 C858 1.385 . S
C862 C861 1.374 . S
C863 C860 1.499 . S
C863 C864 1.373 . S
C863 C865 1.389 1_554 S
C864 H837 0.950 . S
C864 C850 1.377 . S
C864 C863 1.373 . S
C865 C849 1.377 . S
C865 C863 1.389 1_556 S
C865 C866 1.524 . S
C866 C865 1.524 . S
C866 C867 1.397 . S
C866 C871 1.363 . S
C867 H838 0.950 . S
C867 C866 1.397 . S
C867 C868 1.334 . S
C868 H839 0.950 . S
C868 C867 1.334 . S
C868 C869 1.287 . S
C869 C868 1.287 . S
C869 C870 1.524 . S
C869 H872 0.999 . S
C870 H840 0.950 . S
C870 C869 1.524 . S
C870 C871 1.415 . S
C871 H841 0.950 . S
C871 C866 1.363 . S
C871 C870 1.415 . S
H872 C869 0.999 . S
H873 C854 0.913 . S
H874 C892 0.951 . S
H875 C894 0.951 . S
H876 C896 0.950 . S
H877 C897 0.950 . S
H878 C899 0.950 . S
H879 C902 0.950 . S
H880 C903 0.950 . S
H881 C905 0.950 . S
H882 C906 0.950 . S
H883 C907 0.951 . S
H884 C909 0.951 . S
H885 C911 0.950 . S
H886 C912 0.950 . S
H887 C914 0.950 . S
H888 C917 0.950 . S
H889 C918 0.950 . S
H890 C920 0.950 . S
H891 C921 0.950 . S
C892 H874 0.951 . S
C892 C893 1.366 . S
C892 C894 1.388 . S
C893 C892 1.366 . S
C893 C897 1.385 . S
C894 H875 0.951 . S
C894 C892 1.388 . S
C894 C895 1.366 . S
C895 C894 1.366 . S
C895 C896 1.414 . S
C895 C898 1.499 . S
C896 H876 0.950 . S
C896 C895 1.414 . S
C896 C897 1.374 . S
C897 H877 0.950 . S
C897 C893 1.385 . S
C897 C896 1.374 . S
C898 C895 1.499 . S
C898 C899 1.373 . S
C898 C900 1.389 . S
C899 H878 0.950 . S
C899 C898 1.373 . S
C899 C915 1.377 . S
C900 C898 1.389 . S
C900 C901 1.524 . S
C900 C914 1.377 . S
C901 C900 1.524 . S
C901 C902 1.397 . S
C901 C906 1.363 . S
C902 H879 0.950 . S
C902 C901 1.397 . S
C902 C903 1.334 . S
C903 H880 0.950 . S
C903 C902 1.334 . S
C903 C904 1.287 . S
C904 C903 1.287 . S
C904 C905 1.524 . S
C904 H923 0.913 . S
C905 H881 0.950 . S
C905 C904 1.524 . S
C905 C906 1.415 . S
C906 H882 0.950 . S
C906 C901 1.363 . S
C906 C905 1.415 . S
C907 H883 0.951 . S
C907 C908 1.366 . S
C907 C909 1.388 . S
C908 C907 1.366 . S
C908 C912 1.385 . S
C909 H884 0.951 . S
C909 C907 1.388 . S
C909 C910 1.366 . S
C910 C909 1.366 . S
C910 C911 1.414 . S
C910 C913 1.499 . S
C911 H885 0.950 . S
C911 C910 1.414 . S
C911 C912 1.374 . S
C912 H886 0.950 . S
C912 C908 1.385 . S
C912 C911 1.374 . S
C913 C910 1.499 . S
C913 C914 1.373 . S
C913 C915 1.389 . S
C914 H887 0.950 . S
C914 C900 1.377 . S
C914 C913 1.373 . S
C915 C899 1.377 . S
C915 C913 1.389 . S
C915 C916 1.524 . S
C916 C915 1.524 . S
C916 C917 1.397 . S
C916 C921 1.363 . S
C917 H888 0.950 . S
C917 C916 1.397 . S
C917 C918 1.334 . S
C918 H889 0.950 . S
C918 C917 1.334 . S
C918 C919 1.287 . S
C919 C918 1.287 . S
C919 C920 1.524 . S
C919 H922 0.999 . S
C920 H890 0.950 . S
C920 C919 1.524 . S
C920 C921 1.415 . S
C921 H891 0.950 . S
C921 C916 1.363 . S
C921 C920 1.415 . S
H922 C919 0.999 . S
H923 C904 0.913 . S
H924 C942 0.951 . S
H925 C944 0.951 . S
H926 C946 0.950 . S
H927 C947 0.950 . S
H928 C949 0.950 . S
H929 C952 0.950 . S
H930 C953 0.950 . S
H931 C955 0.950 . S
H932 C956 0.950 1_554 S
H933 C957 0.951 . S
H934 C959 0.951 . S
H935 C961 0.950 . S
H936 C962 0.950 . S
H937 C964 0.950 . S
H938 C967 0.950 . S
H939 C968 0.950 . S
H940 C970 0.950 . S
H941 C971 0.950 1_556 S
C942 H924 0.951 . S
C942 C943 1.366 . S
C942 C944 1.388 . S
C943 C942 1.366 . S
C943 C947 1.385 . S
C944 H925 0.951 . S
C944 C942 1.388 . S
C944 C945 1.366 . S
C945 C944 1.366 . S
C945 C946 1.414 . S
C945 C948 1.499 . S
C946 H926 0.950 . S
C946 C945 1.414 . S
C946 C947 1.374 . S
C947 H927 0.950 . S
C947 C943 1.385 . S
C947 C946 1.374 . S
C948 C945 1.499 . S
C948 C949 1.373 . S
C948 C950 1.363 1_554 S
C949 H928 0.950 . S
C949 C948 1.373 . S
C949 C965 1.402 . S
C950 C948 1.363 1_556 S
C950 C951 1.531 . S
C950 C964 1.402 . S
C951 C950 1.531 . S
C951 C952 1.397 . S
C951 C956 1.363 . S
C952 H929 0.950 . S
C952 C951 1.397 . S
C952 C953 1.334 . S
C953 H930 0.950 . S
C953 C952 1.334 . S
C953 C954 1.287 . S
C954 C953 1.287 . S
C954 C955 1.524 . S
C954 H973 0.913 . S
C955 H931 0.950 . S
C955 C954 1.524 . S
C955 C956 1.415 . S
C956 H932 0.950 1_556 S
C956 C951 1.363 . S
C956 C955 1.415 . S
C957 H933 0.951 . S
C957 C958 1.366 . S
C957 C959 1.388 . S
C958 C957 1.366 . S
C958 C962 1.385 . S
C959 H934 0.951 . S
C959 C957 1.388 . S
C959 C960 1.366 . S
C960 C959 1.366 . S
C960 C961 1.414 . S
C960 C963 1.499 . S
C961 H935 0.950 . S
C961 C960 1.414 . S
C961 C962 1.374 . S
C962 H936 0.950 . S
C962 C958 1.385 . S
C962 C961 1.374 . S
C963 C960 1.499 . S
C963 C964 1.373 . S
C963 C965 1.363 1_556 S
C964 H937 0.950 . S
C964 C950 1.402 . S
C964 C963 1.373 . S
C965 C949 1.402 . S
C965 C963 1.363 1_554 S
C965 C966 1.531 . S
C966 C965 1.531 . S
C966 C967 1.397 . S
C966 C971 1.363 . S
C967 H938 0.950 . S
C967 C966 1.397 . S
C967 C968 1.334 . S
C968 H939 0.950 . S
C968 C967 1.334 . S
C968 C969 1.287 . S
C969 C968 1.287 . S
C969 C970 1.524 . S
C969 H972 0.999 . S
C970 H940 0.950 . S
C970 C969 1.524 . S
C970 C971 1.415 . S
C971 H941 0.950 1_554 S
C971 C966 1.363 . S
C971 C970 1.415 . S
H972 C969 0.999 . S
H973 C954 0.913 . S
H974 C992 0.951 . S
H975 C994 0.951 . S
H976 C996 0.950 . S
H977 C997 0.950 . S
H978 C999 0.950 . S
H979 C1002 0.950 . S
H980 C1003 0.950 . S
H981 C1005 0.950 . S
H982 C1006 0.950 . S
H983 C1007 0.951 . S
H984 C1009 0.951 . S
H985 C1011 0.950 . S
H986 C1012 0.950 . S
H987 C1014 0.950 . S
H988 C1017 0.950 . S
H989 C1018 0.950 . S
H990 C1020 0.950 . S
H991 C1021 0.950 . S
C992 H974 0.951 . S
C992 C993 1.366 . S
C992 C994 1.388 . S
C993 C992 1.366 . S
C993 C997 1.385 . S
C994 H975 0.951 . S
C994 C992 1.388 . S
C994 C995 1.366 . S
C995 C994 1.366 . S
C995 C996 1.414 . S
C995 C998 1.499 . S
C996 H976 0.950 . S
C996 C995 1.414 . S
C996 C997 1.374 . S
C997 H977 0.950 . S
C997 C993 1.385 . S
C997 C996 1.374 . S
C998 C995 1.499 . S
C998 C999 1.373 . S
C998 C1000 1.389 . S
C999 H978 0.950 . S
C999 C998 1.373 . S
C999 C1015 1.377 . S
C1000 C998 1.389 . S
C1000 C1001 1.524 . S
C1000 C1014 1.377 . S
C1001 C1000 1.524 . S
C1001 C1002 1.397 . S
C1001 C1006 1.363 . S
C1002 H979 0.950 . S
C1002 C1001 1.397 . S
C1002 C1003 1.334 . S
C1003 H980 0.950 . S
C1003 C1002 1.334 . S
C1003 C1004 1.287 . S
C1004 C1003 1.287 . S
C1004 C1005 1.524 . S
C1004 H1023 0.913 . S
C1005 H981 0.950 . S
C1005 C1004 1.524 . S
C1005 C1006 1.415 . S
C1006 H982 0.950 . S
C1006 C1001 1.363 . S
C1006 C1005 1.415 . S
C1007 H983 0.951 . S
C1007 C1008 1.366 . S
C1007 C1009 1.388 . S
C1008 C1007 1.366 . S
C1008 C1012 1.385 . S
C1009 H984 0.951 . S
C1009 C1007 1.388 . S
C1009 C1010 1.366 . S
C1010 C1009 1.366 . S
C1010 C1011 1.414 . S
C1010 C1013 1.499 . S
C1011 H985 0.950 . S
C1011 C1010 1.414 . S
C1011 C1012 1.374 . S
C1012 H986 0.950 . S
C1012 C1008 1.385 . S
C1012 C1011 1.374 . S
C1013 C1010 1.499 . S
C1013 C1014 1.373 . S
C1013 C1015 1.389 . S
C1014 H987 0.950 . S
C1014 C1000 1.377 . S
C1014 C1013 1.373 . S
C1015 C999 1.377 . S
C1015 C1013 1.389 . S
C1015 C1016 1.524 . S
C1016 C1015 1.524 . S
C1016 C1017 1.397 . S
C1016 C1021 1.363 . S
C1017 H988 0.950 . S
C1017 C1016 1.397 . S
C1017 C1018 1.334 . S
C1018 H989 0.950 . S
C1018 C1017 1.334 . S
C1018 C1019 1.287 . S
C1019 C1018 1.287 . S
C1019 C1020 1.524 . S
C1019 H1022 0.999 . S
C1020 H990 0.950 . S
C1020 C1019 1.524 . S
C1020 C1021 1.415 . S
C1021 H991 0.950 . S
C1021 C1016 1.363 . S
C1021 C1020 1.415 . S
H1022 C1019 0.999 . S
H1023 C1004 0.913 . S
H1024 C1042 0.951 . S
H1025 C1044 0.951 . S
H1026 C1046 0.950 . S
H1027 C1047 0.950 . S
H1028 C1049 0.950 . S
H1029 C1052 0.950 . S
H1030 C1053 0.950 . S
H1031 C1055 0.950 . S
H1032 C1056 0.950 . S
H1033 C1057 0.951 . S
H1034 C1059 0.951 . S
H1035 C1061 0.950 . S
H1036 C1062 0.950 . S
H1037 C1064 0.950 . S
H1038 C1067 0.950 . S
H1039 C1068 0.950 . S
H1040 C1070 0.950 . S
H1041 C1071 0.950 . S
C1042 H1024 0.951 . S
C1042 C1043 1.366 . S
C1042 C1044 1.388 . S
C1043 C1042 1.366 . S
C1043 C1047 1.385 . S
C1044 H1025 0.951 . S
C1044 C1042 1.388 . S
C1044 C1045 1.366 . S
C1045 C1044 1.366 . S
C1045 C1046 1.414 . S
C1045 C1048 1.499 . S
C1046 H1026 0.950 . S
C1046 C1045 1.414 . S
C1046 C1047 1.374 . S
C1047 H1027 0.950 . S
C1047 C1043 1.385 . S
C1047 C1046 1.374 . S
C1048 C1045 1.499 . S
C1048 C1049 1.373 . S
C1048 C1050 1.389 . S
C1049 H1028 0.950 . S
C1049 C1048 1.373 . S
C1049 C1065 1.377 . S
C1050 C1048 1.389 . S
C1050 C1051 1.524 . S
C1050 C1064 1.377 . S
C1051 C1050 1.524 . S
C1051 C1052 1.397 . S
C1051 C1056 1.363 . S
C1052 H1029 0.950 . S
C1052 C1051 1.397 . S
C1052 C1053 1.334 . S
C1053 H1030 0.950 . S
C1053 C1052 1.334 . S
C1053 C1054 1.287 . S
C1054 C1053 1.287 . S
C1054 C1055 1.524 . S
C1054 H1073 0.913 . S
C1055 H1031 0.950 . S
C1055 C1054 1.524 . S
C1055 C1056 1.415 . S
C1056 H1032 0.950 . S
C1056 C1051 1.363 . S
C1056 C1055 1.415 . S
C1057 H1033 0.951 . S
C1057 C1058 1.366 . S
C1057 C1059 1.388 . S
C1058 C1057 1.366 . S
C1058 C1062 1.385 . S
C1059 H1034 0.951 . S
C1059 C1057 1.388 . S
C1059 C1060 1.366 . S
C1060 C1059 1.366 . S
C1060 C1061 1.414 . S
C1060 C1063 1.499 . S
C1061 H1035 0.950 . S
C1061 C1060 1.414 . S
C1061 C1062 1.374 . S
C1062 H1036 0.950 . S
C1062 C1058 1.385 . S
C1062 C1061 1.374 . S
C1063 C1060 1.499 . S
C1063 C1064 1.373 . S
C1063 C1065 1.389 . S
C1064 H1037 0.950 . S
C1064 C1050 1.377 . S
C1064 C1063 1.373 . S
C1065 C1049 1.377 . S
C1065 C1063 1.389 . S
C1065 C1066 1.524 . S
C1066 C1065 1.524 . S
C1066 C1067 1.397 . S
C1066 C1071 1.363 . S
C1067 H1038 0.950 . S
C1067 C1066 1.397 . S
C1067 C1068 1.334 . S
C1068 H1039 0.950 . S
C1068 C1067 1.334 . S
C1068 C1069 1.287 . S
C1069 C1068 1.287 . S
C1069 C1070 1.524 . S
C1069 H1072 0.999 . S
C1070 H1040 0.950 . S
C1070 C1069 1.524 . S
C1070 C1071 1.415 . S
C1071 H1041 0.950 . S
C1071 C1066 1.363 . S
C1071 C1070 1.415 . S
H1072 C1069 0.999 . S
H1073 C1054 0.913 . S
H1074 C1092 0.951 . S
H1075 C1094 0.951 . S
H1076 C1096 0.950 . S
H1077 C1097 0.950 . S
H1078 C1099 0.931 1_655 S
H1079 C1102 0.950 . S
H1080 C1103 0.950 . S
H1081 C1105 0.950 . S
H1082 C1106 0.936 1_455 S
H1083 C1107 0.951 . S
H1084 C1109 0.951 . S
H1085 C1111 0.950 . S
H1086 C1112 0.950 . S
H1087 C1114 0.950 . S
H1088 C1117 0.950 . S
H1089 C1118 0.950 . S
H1090 C1120 0.950 . S
H1091 C1121 0.950 . S
C1092 H1074 0.951 . S
C1092 C1093 1.366 . S
C1092 C1094 1.388 . S
C1093 C1092 1.366 . S
C1093 C1097 1.385 . S
C1094 H1075 0.951 . S
C1094 C1092 1.388 . S
C1094 C1095 1.366 . S
C1095 C1094 1.366 . S
C1095 C1096 1.414 . S
C1095 C1098 1.499 . S
C1096 H1076 0.950 . S
C1096 C1095 1.414 . S
C1096 C1097 1.374 . S
C1097 H1077 0.950 . S
C1097 C1093 1.385 . S
C1097 C1096 1.374 . S
C1098 C1095 1.499 . S
C1098 C1099 1.357 1_655 S
C1098 C1100 1.389 1_655 S
C1099 H1078 0.931 1_455 S
C1099 C1098 1.357 1_455 S
C1099 C1115 1.413 . S
C1100 C1098 1.389 1_455 S
C1100 C1101 1.524 1_455 S
C1100 C1114 1.377 . S
C1101 C1100 1.524 1_655 S
C1101 C1102 1.397 . S
C1101 C1106 1.369 . S
C1102 H1079 0.950 . S
C1102 C1101 1.397 . S
C1102 C1103 1.334 . S
C1103 H1080 0.950 . S
C1103 C1102 1.334 . S
C1103 C1104 1.287 . S
C1104 C1103 1.287 . S
C1104 C1105 1.524 . S
C1104 H1123 0.913 . S
C1105 H1081 0.950 . S
C1105 C1104 1.524 . S
C1105 C1106 1.423 . S
C1106 H1082 0.936 1_655 S
C1106 C1101 1.369 . S
C1106 C1105 1.423 . S
C1107 H1083 0.951 . S
C1107 C1108 1.366 . S
C1107 C1109 1.388 . S
C1108 C1107 1.366 . S
C1108 C1112 1.385 . S
C1109 H1084 0.951 . S
C1109 C1107 1.388 . S
C1109 C1110 1.366 . S
C1110 C1109 1.366 . S
C1110 C1111 1.414 . S
C1110 C1113 1.499 . S
C1111 H1085 0.950 . S
C1111 C1110 1.414 . S
C1111 C1112 1.374 . S
C1112 H1086 0.950 . S
C1112 C1108 1.385 . S
C1112 C1111 1.374 . S
C1113 C1110 1.499 . S
C1113 C1114 1.373 . S
C1113 C1115 1.389 . S
C1114 H1087 0.950 . S
C1114 C1100 1.377 . S
C1114 C1113 1.373 . S
C1115 C1099 1.413 . S
C1115 C1113 1.389 . S
C1115 C1116 1.524 . S
C1116 C1115 1.524 . S
C1116 C1117 1.397 . S
C1116 C1121 1.363 . S
C1117 H1088 0.950 . S
C1117 C1116 1.397 . S
C1117 C1118 1.334 . S
C1118 H1089 0.950 . S
C1118 C1117 1.334 . S
C1118 C1119 1.287 . S
C1119 C1118 1.287 . S
C1119 C1120 1.524 . S
C1119 H1122 0.999 . S
C1120 H1090 0.950 . S
C1120 C1119 1.524 . S
C1120 C1121 1.415 . S
C1121 H1091 0.950 . S
C1121 C1116 1.363 . S
C1121 C1120 1.415 . S
H1122 C1119 0.999 . S
H1123 C1104 0.913 . S
H1124 C1142 0.951 . S
H1125 C1144 0.951 . S
H1126 C1146 0.950 . S
H1127 C1147 0.950 . S
H1128 C1149 0.950 . S
H1129 C1152 0.950 . S
H1130 C1153 0.950 . S
H1131 C1155 0.950 . S
H1132 C1156 0.950 . S
H1133 C1157 0.951 . S
H1134 C1159 0.951 . S
H1135 C1161 0.950 . S
H1136 C1162 0.950 . S
H1137 C1164 0.950 . S
H1138 C1167 0.950 . S
H1139 C1168 0.950 . S
H1140 C1170 0.950 . S
H1141 C1171 0.950 . S
C1142 H1124 0.951 . S
C1142 C1143 1.366 . S
C1142 C1144 1.388 . S
C1143 C1142 1.366 . S
C1143 C1147 1.385 . S
C1144 H1125 0.951 . S
C1144 C1142 1.388 . S
C1144 C1145 1.366 . S
C1145 C1144 1.366 . S
C1145 C1146 1.414 . S
C1145 C1148 1.499 . S
C1146 H1126 0.950 . S
C1146 C1145 1.414 . S
C1146 C1147 1.374 . S
C1147 H1127 0.950 . S
C1147 C1143 1.385 . S
C1147 C1146 1.374 . S
C1148 C1145 1.499 . S
C1148 C1149 1.373 . S
C1148 C1150 1.389 . S
C1149 H1128 0.950 . S
C1149 C1148 1.373 . S
C1149 C1165 1.377 . S
C1150 C1148 1.389 . S
C1150 C1151 1.524 . S
C1150 C1164 1.377 . S
C1151 C1150 1.524 . S
C1151 C1152 1.397 . S
C1151 C1156 1.363 . S
C1152 H1129 0.950 . S
C1152 C1151 1.397 . S
C1152 C1153 1.334 . S
C1153 H1130 0.950 . S
C1153 C1152 1.334 . S
C1153 C1154 1.287 . S
C1154 C1153 1.287 . S
C1154 C1155 1.524 . S
C1154 H1173 0.913 . S
C1155 H1131 0.950 . S
C1155 C1154 1.524 . S
C1155 C1156 1.415 . S
C1156 H1132 0.950 . S
C1156 C1151 1.363 . S
C1156 C1155 1.415 . S
C1157 H1133 0.951 . S
C1157 C1158 1.366 . S
C1157 C1159 1.388 . S
C1158 C1157 1.366 . S
C1158 C1162 1.385 . S
C1159 H1134 0.951 . S
C1159 C1157 1.388 . S
C1159 C1160 1.366 . S
C1160 C1159 1.366 . S
C1160 C1161 1.414 . S
C1160 C1163 1.499 . S
C1161 H1135 0.950 . S
C1161 C1160 1.414 . S
C1161 C1162 1.374 . S
C1162 H1136 0.950 . S
C1162 C1158 1.385 . S
C1162 C1161 1.374 . S
C1163 C1160 1.499 . S
C1163 C1164 1.373 . S
C1163 C1165 1.389 . S
C1164 H1137 0.950 . S
C1164 C1150 1.377 . S
C1164 C1163 1.373 . S
C1165 C1149 1.377 . S
C1165 C1163 1.389 . S
C1165 C1166 1.524 . S
C1166 C1165 1.524 . S
C1166 C1167 1.397 . S
C1166 C1171 1.363 . S
C1167 H1138 0.950 . S
C1167 C1166 1.397 . S
C1167 C1168 1.334 . S
C1168 H1139 0.950 . S
C1168 C1167 1.334 . S
C1168 C1169 1.284 1_556 S
C1169 C1168 1.284 1_554 S
C1169 C1170 1.522 1_554 S
C1169 H1172 1.004 . S
C1170 H1140 0.950 . S
C1170 C1169 1.522 1_556 S
C1170 C1171 1.415 . S
C1171 H1141 0.950 . S
C1171 C1166 1.363 . S
C1171 C1170 1.415 . S
H1172 C1169 1.004 . S
H1173 C1154 0.913 . S
H1174 C1192 0.951 . S
H1175 C1194 0.951 . S
H1176 C1196 0.950 . S
H1177 C1197 0.950 . S
H1178 C1199 0.950 . S
H1179 C1202 0.950 . S
H1180 C1203 0.950 . S
H1181 C1205 0.950 . S
H1182 C1206 0.950 . S
H1183 C1207 0.951 . S
H1184 C1209 0.951 . S
H1185 C1211 0.950 . S
H1186 C1212 0.950 . S
H1187 C1214 0.935 1_655 S
H1188 C1217 0.950 . S
H1189 C1218 0.950 . S
H1190 C1220 0.950 . S
H1191 C1221 0.949 1_455 S
C1192 H1174 0.951 . S
C1192 C1193 1.366 . S
C1192 C1194 1.388 . S
C1193 C1192 1.366 . S
C1193 C1197 1.385 . S
C1194 H1175 0.951 . S
C1194 C1192 1.388 . S
C1194 C1195 1.366 . S
C1195 C1194 1.366 . S
C1195 C1196 1.414 . S
C1195 C1198 1.499 . S
C1196 H1176 0.950 . S
C1196 C1195 1.414 . S
C1196 C1197 1.374 . S
C1197 H1177 0.950 . S
C1197 C1193 1.385 . S
C1197 C1196 1.374 . S
C1198 C1195 1.499 . S
C1198 C1199 1.373 . S
C1198 C1200 1.389 . S
C1199 H1178 0.950 . S
C1199 C1198 1.373 . S
C1199 C1215 1.377 . S
C1200 C1198 1.389 . S
C1200 C1201 1.524 . S
C1200 C1214 1.405 . S
C1201 C1200 1.524 . S
C1201 C1202 1.397 . S
C1201 C1206 1.363 . S
C1202 H1179 0.950 . S
C1202 C1201 1.397 . S
C1202 C1203 1.334 . S
C1203 H1180 0.950 . S
C1203 C1202 1.334 . S
C1203 C1204 1.287 . S
C1204 C1203 1.287 . S
C1204 C1205 1.524 . S
C1204 H1223 0.913 . S
C1205 H1181 0.950 . S
C1205 C1204 1.524 . S
C1205 C1206 1.415 . S
C1206 H1182 0.950 . S
C1206 C1201 1.363 . S
C1206 C1205 1.415 . S
C1207 H1183 0.951 . S
C1207 C1208 1.366 . S
C1207 C1209 1.388 . S
C1208 C1207 1.366 . S
C1208 C1212 1.385 . S
C1209 H1184 0.951 . S
C1209 C1207 1.388 . S
C1209 C1210 1.366 . S
C1210 C1209 1.366 . S
C1210 C1211 1.414 . S
C1210 C1213 1.499 . S
C1211 H1185 0.950 . S
C1211 C1210 1.414 . S
C1211 C1212 1.374 . S
C1212 H1186 0.950 . S
C1212 C1208 1.385 . S
C1212 C1211 1.374 . S
C1213 C1210 1.499 . S
C1213 C1214 1.360 1_655 S
C1213 C1215 1.389 1_655 S
C1214 H1187 0.935 1_455 S
C1214 C1200 1.405 . S
C1214 C1213 1.360 1_455 S
C1215 C1199 1.377 . S
C1215 C1213 1.389 1_455 S
C1215 C1216 1.524 1_455 S
C1216 C1215 1.524 1_655 S
C1216 C1217 1.397 . S
C1216 C1221 1.363 . S
C1217 H1188 0.950 . S
C1217 C1216 1.397 . S
C1217 C1218 1.334 . S
C1218 H1189 0.950 . S
C1218 C1217 1.334 . S
C1218 C1219 1.287 . S
C1219 C1218 1.287 . S
C1219 C1220 1.524 . S
C1219 H1222 0.999 . S
C1220 H1190 0.950 . S
C1220 C1219 1.524 . S
C1220 C1221 1.416 . S
C1221 H1191 0.949 1_655 S
C1221 C1216 1.363 . S
C1221 C1220 1.416 . S
H1222 C1219 0.999 . S
H1223 C1204 0.913 . S
H1224 C1242 0.951 . S
H1225 C1244 0.951 . S
H1226 C1246 0.950 . S
H1227 C1247 0.950 . S
H1228 C1249 0.950 1_455 S
H1229 C1252 0.950 . S
H1230 C1253 0.950 . S
H1231 C1255 0.950 . S
H1232 C1256 0.950 1_655 S
H1233 C1257 0.951 . S
H1234 C1259 0.951 . S
H1235 C1261 0.950 . S
H1236 C1262 0.950 . S
H1237 C1264 0.950 . S
H1238 C1267 0.950 . S
H1239 C1268 0.950 . S
H1240 C1270 0.950 . S
H1241 C1271 0.950 . S
C1242 H1224 0.951 . S
C1242 C1243 1.366 . S
C1242 C1244 1.388 . S
C1243 C1242 1.366 . S
C1243 C1247 1.385 . S
C1244 H1225 0.951 . S
C1244 C1242 1.388 . S
C1244 C1245 1.366 . S
C1245 C1244 1.366 . S
C1245 C1246 1.414 . S
C1245 C1248 1.499 . S
C1246 H1226 0.950 . S
C1246 C1245 1.414 . S
C1246 C1247 1.374 . S
C1247 H1227 0.950 . S
C1247 C1243 1.385 . S
C1247 C1246 1.374 . S
C1248 C1245 1.499 . S
C1248 C1249 1.373 1_455 S
C1248 C1250 1.389 1_455 S
C1249 H1228 0.950 1_655 S
C1249 C1248 1.373 1_655 S
C1249 C1265 1.377 . S
C1250 C1248 1.389 1_655 S
C1250 C1251 1.524 1_655 S
C1250 C1264 1.377 . S
C1251 C1250 1.524 1_455 S
C1251 C1252 1.397 . S
C1251 C1256 1.363 . S
C1252 H1229 0.950 . S
C1252 C1251 1.397 . S
C1252 C1253 1.334 . S
C1253 H1230 0.950 . S
C1253 C1252 1.334 . S
C1253 C1254 1.287 . S
C1254 C1253 1.287 . S
C1254 C1255 1.524 . S
C1254 H1273 0.913 . S
C1255 H1231 0.950 . S
C1255 C1254 1.524 . S
C1255 C1256 1.415 . S
C1256 H1232 0.950 1_455 S
C1256 C1251 1.363 . S
C1256 C1255 1.415 . S
C1257 H1233 0.951 . S
C1257 C1258 1.366 . S
C1257 C1259 1.388 . S
C1258 C1257 1.366 . S
C1258 C1262 1.385 . S
C1259 H1234 0.951 . S
C1259 C1257 1.388 . S
C1259 C1260 1.366 . S
C1260 C1259 1.366 . S
C1260 C1261 1.414 . S
C1260 C1263 1.499 . S
C1261 H1235 0.950 . S
C1261 C1260 1.414 . S
C1261 C1262 1.374 . S
C1262 H1236 0.950 . S
C1262 C1258 1.385 . S
C1262 C1261 1.374 . S
C1263 C1260 1.499 . S
C1263 C1264 1.373 . S
C1263 C1265 1.389 . S
C1264 H1237 0.950 . S
C1264 C1250 1.377 . S
C1264 C1263 1.373 . S
C1265 C1249 1.377 . S
C1265 C1263 1.389 . S
C1265 C1266 1.524 . S
C1266 C1265 1.524 . S
C1266 C1267 1.397 . S
C1266 C1271 1.363 . S
C1267 H1238 0.950 . S
C1267 C1266 1.397 . S
C1267 C1268 1.334 . S
C1268 H1239 0.950 . S
C1268 C1267 1.334 . S
C1268 C1269 1.287 . S
C1269 C1268 1.287 . S
C1269 C1270 1.524 . S
C1269 H1272 0.999 . S
C1270 H1240 0.950 . S
C1270 C1269 1.524 . S
C1270 C1271 1.415 . S
C1271 H1241 0.950 . S
C1271 C1266 1.363 . S
C1271 C1270 1.415 . S
H1272 C1269 0.999 . S
H1273 C1254 0.913 . S
H1274 C1292 0.951 . S
H1275 C1294 0.951 . S
H1276 C1296 0.950 . S
H1277 C1297 0.950 . S
H1278 C1299 0.950 . S
H1279 C1302 0.950 . S
H1280 C1303 0.950 . S
H1281 C1305 0.950 . S
H1282 C1306 0.950 . S
H1283 C1307 0.951 . S
H1284 C1309 0.951 . S
H1285 C1311 0.950 . S
H1286 C1312 0.950 . S
H1287 C1314 0.950 . S
H1288 C1317 0.950 . S
H1289 C1318 0.950 . S
H1290 C1320 0.950 . S
H1291 C1321 0.950 . S
C1292 H1274 0.951 . S
C1292 C1293 1.366 . S
C1292 C1294 1.388 . S
C1293 C1292 1.366 . S
C1293 C1297 1.385 . S
C1294 H1275 0.951 . S
C1294 C1292 1.388 . S
C1294 C1295 1.366 . S
C1295 C1294 1.366 . S
C1295 C1296 1.414 . S
C1295 C1298 1.499 . S
C1296 H1276 0.950 . S
C1296 C1295 1.414 . S
C1296 C1297 1.374 . S
C1297 H1277 0.950 . S
C1297 C1293 1.385 . S
C1297 C1296 1.374 . S
C1298 C1295 1.499 . S
C1298 C1299 1.373 . S
C1298 C1300 1.389 . S
C1299 H1278 0.950 . S
C1299 C1298 1.373 . S
C1299 C1315 1.377 . S
C1300 C1298 1.389 . S
C1300 C1301 1.524 . S
C1300 C1314 1.377 . S
C1301 C1300 1.524 . S
C1301 C1302 1.397 . S
C1301 C1306 1.363 . S
C1302 H1279 0.950 . S
C1302 C1301 1.397 . S
C1302 C1303 1.334 . S
C1303 H1280 0.950 . S
C1303 C1302 1.334 . S
C1303 C1304 1.287 . S
C1304 C1303 1.287 . S
C1304 C1305 1.524 . S
C1304 H1323 0.913 . S
C1305 H1281 0.950 . S
C1305 C1304 1.524 . S
C1305 C1306 1.415 . S
C1306 H1282 0.950 . S
C1306 C1301 1.363 . S
C1306 C1305 1.415 . S
C1307 H1283 0.951 . S
C1307 C1308 1.366 . S
C1307 C1309 1.388 . S
C1308 C1307 1.366 . S
C1308 C1312 1.385 . S
C1309 H1284 0.951 . S
C1309 C1307 1.388 . S
C1309 C1310 1.366 . S
C1310 C1309 1.366 . S
C1310 C1311 1.414 . S
C1310 C1313 1.499 . S
C1311 H1285 0.950 . S
C1311 C1310 1.414 . S
C1311 C1312 1.374 . S
C1312 H1286 0.950 . S
C1312 C1308 1.385 . S
C1312 C1311 1.374 . S
C1313 C1310 1.499 . S
C1313 C1314 1.373 . S
C1313 C1315 1.389 . S
C1314 H1287 0.950 . S
C1314 C1300 1.377 . S
C1314 C1313 1.373 . S
C1315 C1299 1.377 . S
C1315 C1313 1.389 . S
C1315 C1316 1.524 . S
C1316 C1315 1.524 . S
C1316 C1317 1.397 . S
C1316 C1321 1.363 . S
C1317 H1288 0.950 . S
C1317 C1316 1.397 . S
C1317 C1318 1.334 . S
C1318 H1289 0.950 . S
C1318 C1317 1.334 . S
C1318 C1319 1.287 . S
C1319 C1318 1.287 . S
C1319 C1320 1.524 . S
C1319 H1322 0.999 . S
C1320 H1290 0.950 . S
C1320 C1319 1.524 . S
C1320 C1321 1.415 . S
C1321 H1291 0.950 . S
C1321 C1316 1.363 . S
C1321 C1320 1.415 . S
H1322 C1319 0.999 . S
H1323 C1304 0.913 . S
H1324 C1342 0.951 . S
H1325 C1344 0.951 . S
H1326 C1346 0.950 . S
H1327 C1347 0.950 . S
H1328 C1349 0.950 1_455 S
H1329 C1352 0.950 . S
H1330 C1353 0.950 . S
H1331 C1355 0.950 1_554 S
H1332 C1356 0.950 1_655 S
H1333 C1357 0.951 . S
H1334 C1359 0.951 . S
H1335 C1361 0.950 . S
H1336 C1362 0.950 . S
H1337 C1364 0.950 . S
H1338 C1367 0.950 . S
H1339 C1368 0.950 . S
H1340 C1370 0.950 . S
H1341 C1371 0.950 . S
C1342 H1324 0.951 . S
C1342 C1343 1.366 . S
C1342 C1344 1.388 . S
C1343 C1342 1.366 . S
C1343 C1347 1.385 . S
C1344 H1325 0.951 . S
C1344 C1342 1.388 . S
C1344 C1345 1.366 . S
C1345 C1344 1.366 . S
C1345 C1346 1.414 . S
C1345 C1348 1.499 . S
C1346 H1326 0.950 . S
C1346 C1345 1.414 . S
C1346 C1347 1.374 . S
C1347 H1327 0.950 . S
C1347 C1343 1.385 . S
C1347 C1346 1.374 . S
C1348 C1345 1.499 . S
C1348 C1349 1.373 1_455 S
C1348 C1350 1.389 1_455 S
C1349 H1328 0.950 1_655 S
C1349 C1348 1.373 1_655 S
C1349 C1365 1.377 . S
C1350 C1348 1.389 1_655 S
C1350 C1351 1.524 1_655 S
C1350 C1364 1.377 . S
C1351 C1350 1.524 1_455 S
C1351 C1352 1.397 . S
C1351 C1356 1.363 . S
C1352 H1329 0.950 . S
C1352 C1351 1.397 . S
C1352 C1353 1.334 . S
C1353 H1330 0.950 . S
C1353 C1352 1.334 . S
C1353 C1354 1.287 1_556 S
C1354 C1353 1.287 1_554 S
C1354 C1355 1.524 1_554 S
C1354 H1373 0.913 . S
C1355 H1331 0.950 1_556 S
C1355 C1354 1.524 1_556 S
C1355 C1356 1.415 . S
C1356 H1332 0.950 1_455 S
C1356 C1351 1.363 . S
C1356 C1355 1.415 . S
C1357 H1333 0.951 . S
C1357 C1358 1.366 . S
C1357 C1359 1.388 . S
C1358 C1357 1.366 . S
C1358 C1362 1.385 . S
C1359 H1334 0.951 . S
C1359 C1357 1.388 . S
C1359 C1360 1.366 . S
C1360 C1359 1.366 . S
C1360 C1361 1.414 . S
C1360 C1363 1.499 . S
C1361 H1335 0.950 . S
C1361 C1360 1.414 . S
C1361 C1362 1.374 . S
C1362 H1336 0.950 . S
C1362 C1358 1.385 . S
C1362 C1361 1.374 . S
C1363 C1360 1.499 . S
C1363 C1364 1.373 . S
C1363 C1365 1.389 . S
C1364 H1337 0.950 . S
C1364 C1350 1.377 . S
C1364 C1363 1.373 . S
C1365 C1349 1.377 . S
C1365 C1363 1.389 . S
C1365 C1366 1.524 . S
C1366 C1365 1.524 . S
C1366 C1367 1.397 . S
C1366 C1371 1.363 . S
C1367 H1338 0.950 . S
C1367 C1366 1.397 . S
C1367 C1368 1.334 . S
C1368 H1339 0.950 . S
C1368 C1367 1.334 . S
C1368 C1369 1.287 . S
C1369 C1368 1.287 . S
C1369 C1370 1.524 . S
C1369 H1372 0.999 . S
C1370 H1340 0.950 . S
C1370 C1369 1.524 . S
C1370 C1371 1.415 . S
C1371 H1341 0.950 . S
C1371 C1366 1.363 . S
C1371 C1370 1.415 . S
H1372 C1369 0.999 . S
H1373 C1354 0.913 . S
H1374 C1392 0.951 . S
H1375 C1394 0.951 . S
H1376 C1396 0.950 . S
H1377 C1397 0.950 . S
H1378 C1399 0.950 . S
H1379 C1402 0.950 . S
H1380 C1403 0.950 . S
H1381 C1405 0.950 . S
H1382 C1406 0.950 . S
H1383 C1407 0.951 . S
H1384 C1409 0.951 . S
H1385 C1411 0.950 . S
H1386 C1412 0.950 . S
H1387 C1414 0.950 . S
H1388 C1417 0.950 . S
H1389 C1418 0.950 . S
H1390 C1420 0.950 . S
H1391 C1421 0.950 . S
C1392 H1374 0.951 . S
C1392 C1393 1.366 . S
C1392 C1394 1.388 . S
C1393 C1392 1.366 . S
C1393 C1397 1.385 . S
C1394 H1375 0.951 . S
C1394 C1392 1.388 . S
C1394 C1395 1.366 . S
C1395 C1394 1.366 . S
C1395 C1396 1.414 . S
C1395 C1398 1.499 . S
C1396 H1376 0.950 . S
C1396 C1395 1.414 . S
C1396 C1397 1.374 . S
C1397 H1377 0.950 . S
C1397 C1393 1.385 . S
C1397 C1396 1.374 . S
C1398 C1395 1.499 . S
C1398 C1399 1.373 . S
C1398 C1400 1.389 . S
C1399 H1378 0.950 . S
C1399 C1398 1.373 . S
C1399 C1415 1.377 . S
C1400 C1398 1.389 . S
C1400 C1401 1.524 . S
C1400 C1414 1.377 . S
C1401 C1400 1.524 . S
C1401 C1402 1.397 . S
C1401 C1406 1.363 . S
C1402 H1379 0.950 . S
C1402 C1401 1.397 . S
C1402 C1403 1.334 . S
C1403 H1380 0.950 . S
C1403 C1402 1.334 . S
C1403 C1404 1.287 . S
C1404 C1403 1.287 . S
C1404 C1405 1.524 . S
C1404 H1423 0.913 . S
C1405 H1381 0.950 . S
C1405 C1404 1.524 . S
C1405 C1406 1.415 . S
C1406 H1382 0.950 . S
C1406 C1401 1.363 . S
C1406 C1405 1.415 . S
C1407 H1383 0.951 . S
C1407 C1408 1.366 . S
C1407 C1409 1.388 . S
C1408 C1407 1.366 . S
C1408 C1412 1.385 . S
C1409 H1384 0.951 . S
C1409 C1407 1.388 . S
C1409 C1410 1.366 . S
C1410 C1409 1.366 . S
C1410 C1411 1.414 . S
C1410 C1413 1.499 . S
C1411 H1385 0.950 . S
C1411 C1410 1.414 . S
C1411 C1412 1.374 . S
C1412 H1386 0.950 . S
C1412 C1408 1.385 . S
C1412 C1411 1.374 . S
C1413 C1410 1.499 . S
C1413 C1414 1.373 . S
C1413 C1415 1.389 . S
C1414 H1387 0.950 . S
C1414 C1400 1.377 . S
C1414 C1413 1.373 . S
C1415 C1399 1.377 . S
C1415 C1413 1.389 . S
C1415 C1416 1.524 . S
C1416 C1415 1.524 . S
C1416 C1417 1.397 . S
C1416 C1421 1.363 . S
C1417 H1388 0.950 . S
C1417 C1416 1.397 . S
C1417 C1418 1.334 . S
C1418 H1389 0.950 . S
C1418 C1417 1.334 . S
C1418 C1419 1.287 . S
C1419 C1418 1.287 . S
C1419 C1420 1.524 . S
C1419 H1422 0.999 . S
C1420 H1390 0.950 . S
C1420 C1419 1.524 . S
C1420 C1421 1.415 . S
C1421 H1391 0.950 . S
C1421 C1416 1.363 . S
C1421 C1420 1.415 . S
H1422 C1419 0.999 . S
H1423 C1404 0.913 . S
H1424 C1442 0.951 . S
H1425 C1444 0.951 . S
H1426 C1446 0.950 . S
H1427 C1447 0.950 . S
H1428 C1449 0.950 . S
H1429 C1452 0.950 . S
H1430 C1453 0.950 . S
H1431 C1455 0.950 . S
H1432 C1456 0.950 . S
H1433 C1457 0.951 . S
H1434 C1459 0.951 . S
H1435 C1461 0.950 . S
H1436 C1462 0.950 . S
H1437 C1464 0.950 . S
H1438 C1467 0.950 . S
H1439 C1468 0.950 . S
H1440 C1470 0.950 . S
H1441 C1471 0.950 . S
C1442 H1424 0.951 . S
C1442 C1443 1.366 . S
C1442 C1444 1.388 . S
C1443 C1442 1.366 . S
C1443 C1447 1.385 . S
C1444 H1425 0.951 . S
C1444 C1442 1.388 . S
C1444 C1445 1.366 . S
C1445 C1444 1.366 . S
C1445 C1446 1.414 . S
C1445 C1448 1.499 . S
C1446 H1426 0.950 . S
C1446 C1445 1.414 . S
C1446 C1447 1.374 . S
C1447 H1427 0.950 . S
C1447 C1443 1.385 . S
C1447 C1446 1.374 . S
C1448 C1445 1.499 . S
C1448 C1449 1.373 . S
C1448 C1450 1.389 . S
C1449 H1428 0.950 . S
C1449 C1448 1.373 . S
C1449 C1465 1.377 . S
C1450 C1448 1.389 . S
C1450 C1451 1.524 . S
C1450 C1464 1.377 . S
C1451 C1450 1.524 . S
C1451 C1452 1.397 . S
C1451 C1456 1.363 . S
C1452 H1429 0.950 . S
C1452 C1451 1.397 . S
C1452 C1453 1.334 . S
C1453 H1430 0.950 . S
C1453 C1452 1.334 . S
C1453 C1454 1.287 . S
C1454 C1453 1.287 . S
C1454 C1455 1.524 . S
C1454 H1473 0.913 . S
C1455 H1431 0.950 . S
C1455 C1454 1.524 . S
C1455 C1456 1.415 . S
C1456 H1432 0.950 . S
C1456 C1451 1.363 . S
C1456 C1455 1.415 . S
C1457 H1433 0.951 . S
C1457 C1458 1.366 . S
C1457 C1459 1.388 . S
C1458 C1457 1.366 . S
C1458 C1462 1.385 . S
C1459 H1434 0.951 . S
C1459 C1457 1.388 . S
C1459 C1460 1.366 . S
C1460 C1459 1.366 . S
C1460 C1461 1.414 . S
C1460 C1463 1.499 . S
C1461 H1435 0.950 . S
C1461 C1460 1.414 . S
C1461 C1462 1.374 . S
C1462 H1436 0.950 . S
C1462 C1458 1.385 . S
C1462 C1461 1.374 . S
C1463 C1460 1.499 . S
C1463 C1464 1.373 . S
C1463 C1465 1.389 . S
C1464 H1437 0.950 . S
C1464 C1450 1.377 . S
C1464 C1463 1.373 . S
C1465 C1449 1.377 . S
C1465 C1463 1.389 . S
C1465 C1466 1.524 . S
C1466 C1465 1.524 . S
C1466 C1467 1.397 . S
C1466 C1471 1.363 . S
C1467 H1438 0.950 . S
C1467 C1466 1.397 . S
C1467 C1468 1.334 . S
C1468 H1439 0.950 . S
C1468 C1467 1.334 . S
C1468 C1469 1.287 . S
C1469 C1468 1.287 . S
C1469 C1470 1.524 . S
C1469 H1472 0.999 . S
C1470 H1440 0.950 . S
C1470 C1469 1.524 . S
C1470 C1471 1.415 . S
C1471 H1441 0.950 . S
C1471 C1466 1.363 . S
C1471 C1470 1.415 . S
H1472 C1469 0.999 . S
H1473 C1454 0.913 . S
H1474 C1492 0.951 . S
H1475 C1494 0.951 . S
H1476 C1496 0.950 . S
H1477 C1497 0.950 . S
H1478 C1499 0.950 . S
H1479 C1502 0.950 . S
H1480 C1503 0.950 . S
H1481 C1505 0.950 . S
H1482 C1506 0.950 . S
H1483 C1507 0.951 . S
H1484 C1509 0.951 . S
H1485 C1511 0.950 . S
H1486 C1512 0.950 . S
H1487 C1514 0.950 . S
H1488 C1517 0.950 . S
H1489 C1518 0.950 . S
H1490 C1520 0.950 . S
H1491 C1521 0.950 . S
C1492 H1474 0.951 . S
C1492 C1493 1.366 . S
C1492 C1494 1.388 . S
C1493 C1492 1.366 . S
C1493 C1497 1.385 . S
C1494 H1475 0.951 . S
C1494 C1492 1.388 . S
C1494 C1495 1.366 . S
C1495 C1494 1.366 . S
C1495 C1496 1.414 . S
C1495 C1498 1.499 . S
C1496 H1476 0.950 . S
C1496 C1495 1.414 . S
C1496 C1497 1.374 . S
C1497 H1477 0.950 . S
C1497 C1493 1.385 . S
C1497 C1496 1.374 . S
C1498 C1495 1.499 . S
C1498 C1499 1.373 . S
C1498 C1500 1.389 . S
C1499 H1478 0.950 . S
C1499 C1498 1.373 . S
C1499 C1515 1.377 . S
C1500 C1498 1.389 . S
C1500 C1501 1.524 . S
C1500 C1514 1.377 . S
C1501 C1500 1.524 . S
C1501 C1502 1.397 . S
C1501 C1506 1.363 . S
C1502 H1479 0.950 . S
C1502 C1501 1.397 . S
C1502 C1503 1.334 . S
C1503 H1480 0.950 . S
C1503 C1502 1.334 . S
C1503 C1504 1.287 . S
C1504 C1503 1.287 . S
C1504 C1505 1.524 . S
C1504 H1523 0.913 . S
C1505 H1481 0.950 . S
C1505 C1504 1.524 . S
C1505 C1506 1.415 . S
C1506 H1482 0.950 . S
C1506 C1501 1.363 . S
C1506 C1505 1.415 . S
C1507 H1483 0.951 . S
C1507 C1508 1.366 . S
C1507 C1509 1.388 . S
C1508 C1507 1.366 . S
C1508 C1512 1.385 . S
C1509 H1484 0.951 . S
C1509 C1507 1.388 . S
C1509 C1510 1.366 . S
C1510 C1509 1.366 . S
C1510 C1511 1.414 . S
C1510 C1513 1.499 . S
C1511 H1485 0.950 . S
C1511 C1510 1.414 . S
C1511 C1512 1.374 . S
C1512 H1486 0.950 . S
C1512 C1508 1.385 . S
C1512 C1511 1.374 . S
C1513 C1510 1.499 . S
C1513 C1514 1.373 . S
C1513 C1515 1.389 . S
C1514 H1487 0.950 . S
C1514 C1500 1.377 . S
C1514 C1513 1.373 . S
C1515 C1499 1.377 . S
C1515 C1513 1.389 . S
C1515 C1516 1.524 . S
C1516 C1515 1.524 . S
C1516 C1517 1.397 . S
C1516 C1521 1.363 . S
C1517 H1488 0.950 . S
C1517 C1516 1.397 . S
C1517 C1518 1.334 . S
C1518 H1489 0.950 . S
C1518 C1517 1.334 . S
C1518 C1519 1.287 . S
C1519 C1518 1.287 . S
C1519 C1520 1.524 . S
C1519 H1522 0.999 . S
C1520 H1490 0.950 . S
C1520 C1519 1.524 . S
C1520 C1521 1.415 . S
C1521 H1491 0.950 . S
C1521 C1516 1.363 . S
C1521 C1520 1.415 . S
H1522 C1519 0.999 . S
H1523 C1504 0.913 . S
H1524 C1542 0.951 . S
H1525 C1544 0.951 . S
H1526 C1546 0.950 . S
H1527 C1547 0.950 . S
H1528 C1549 0.950 . S
H1529 C1552 0.950 . S
H1530 C1553 0.950 . S
H1531 C1555 0.950 . S
H1532 C1556 0.950 . S
H1533 C1557 0.951 . S
H1534 C1559 0.951 . S
H1535 C1561 0.950 . S
H1536 C1562 0.950 . S
H1537 C1564 0.950 . S
H1538 C1567 0.950 . S
H1539 C1568 0.950 . S
H1540 C1570 0.950 . S
H1541 C1571 0.950 . S
C1542 H1524 0.951 . S
C1542 C1543 1.366 . S
C1542 C1544 1.388 . S
C1543 C1542 1.366 . S
C1543 C1547 1.385 . S
C1544 H1525 0.951 . S
C1544 C1542 1.388 . S
C1544 C1545 1.366 . S
C1545 C1544 1.366 . S
C1545 C1546 1.414 . S
C1545 C1548 1.499 . S
C1546 H1526 0.950 . S
C1546 C1545 1.414 . S
C1546 C1547 1.374 . S
C1547 H1527 0.950 . S
C1547 C1543 1.385 . S
C1547 C1546 1.374 . S
C1548 C1545 1.499 . S
C1548 C1549 1.373 . S
C1548 C1550 1.389 . S
C1549 H1528 0.950 . S
C1549 C1548 1.373 . S
C1549 C1565 1.377 . S
C1550 C1548 1.389 . S
C1550 C1551 1.524 . S
C1550 C1564 1.377 . S
C1551 C1550 1.524 . S
C1551 C1552 1.397 . S
C1551 C1556 1.363 . S
C1552 H1529 0.950 . S
C1552 C1551 1.397 . S
C1552 C1553 1.334 . S
C1553 H1530 0.950 . S
C1553 C1552 1.334 . S
C1553 C1554 1.287 . S
C1554 C1553 1.287 . S
C1554 C1555 1.524 . S
C1554 H1573 0.913 . S
C1555 H1531 0.950 . S
C1555 C1554 1.524 . S
C1555 C1556 1.415 . S
C1556 H1532 0.950 . S
C1556 C1551 1.363 . S
C1556 C1555 1.415 . S
C1557 H1533 0.951 . S
C1557 C1558 1.366 . S
C1557 C1559 1.388 . S
C1558 C1557 1.366 . S
C1558 C1562 1.385 . S
C1559 H1534 0.951 . S
C1559 C1557 1.388 . S
C1559 C1560 1.366 . S
C1560 C1559 1.366 . S
C1560 C1561 1.414 . S
C1560 C1563 1.499 . S
C1561 H1535 0.950 . S
C1561 C1560 1.414 . S
C1561 C1562 1.374 . S
C1562 H1536 0.950 . S
C1562 C1558 1.385 . S
C1562 C1561 1.374 . S
C1563 C1560 1.499 . S
C1563 C1564 1.373 . S
C1563 C1565 1.389 . S
C1564 H1537 0.950 . S
C1564 C1550 1.377 . S
C1564 C1563 1.373 . S
C1565 C1549 1.377 . S
C1565 C1563 1.389 . S
C1565 C1566 1.524 . S
C1566 C1565 1.524 . S
C1566 C1567 1.397 . S
C1566 C1571 1.363 . S
C1567 H1538 0.950 . S
C1567 C1566 1.397 . S
C1567 C1568 1.334 . S
C1568 H1539 0.950 . S
C1568 C1567 1.334 . S
C1568 C1569 1.287 . S
C1569 C1568 1.287 . S
C1569 C1570 1.524 . S
C1569 H1572 0.999 . S
C1570 H1540 0.950 . S
C1570 C1569 1.524 . S
C1570 C1571 1.415 . S
C1571 H1541 0.950 . S
C1571 C1566 1.363 . S
C1571 C1570 1.415 . S
H1572 C1569 0.999 . S
H1573 C1554 0.913 . S
H1574 C1592 0.951 . S
H1575 C1594 0.951 . S
H1576 C1596 0.950 . S
H1577 C1597 0.950 . S
H1578 C1599 0.950 . S
H1579 C1602 0.950 . S
H1580 C1603 0.950 . S
H1581 C1605 0.950 . S
H1582 C1606 0.950 . S
H1583 C1607 0.951 . S
H1584 C1609 0.951 . S
H1585 C1611 0.950 . S
H1586 C1612 0.950 . S
H1587 C1614 0.950 . S
H1588 C1617 0.950 . S
H1589 C1618 0.950 . S
H1590 C1620 0.950 . S
H1591 C1621 0.950 . S
C1592 H1574 0.951 . S
C1592 C1593 1.366 . S
C1592 C1594 1.388 . S
C1593 C1592 1.366 . S
C1593 C1597 1.385 . S
C1594 H1575 0.951 . S
C1594 C1592 1.388 . S
C1594 C1595 1.366 . S
C1595 C1594 1.366 . S
C1595 C1596 1.414 . S
C1595 C1598 1.499 . S
C1596 H1576 0.950 . S
C1596 C1595 1.414 . S
C1596 C1597 1.374 . S
C1597 H1577 0.950 . S
C1597 C1593 1.385 . S
C1597 C1596 1.374 . S
C1598 C1595 1.499 . S
C1598 C1599 1.373 . S
C1598 C1600 1.389 . S
C1599 H1578 0.950 . S
C1599 C1598 1.373 . S
C1599 C1615 1.377 . S
C1600 C1598 1.389 . S
C1600 C1601 1.524 . S
C1600 C1614 1.377 . S
C1601 C1600 1.524 . S
C1601 C1602 1.397 . S
C1601 C1606 1.363 . S
C1602 H1579 0.950 . S
C1602 C1601 1.397 . S
C1602 C1603 1.334 . S
C1603 H1580 0.950 . S
C1603 C1602 1.334 . S
C1603 C1604 1.287 . S
C1604 C1603 1.287 . S
C1604 C1605 1.524 . S
C1604 H1623 0.913 . S
C1605 H1581 0.950 . S
C1605 C1604 1.524 . S
C1605 C1606 1.415 . S
C1606 H1582 0.950 . S
C1606 C1601 1.363 . S
C1606 C1605 1.415 . S
C1607 H1583 0.951 . S
C1607 C1608 1.366 . S
C1607 C1609 1.388 . S
C1608 C1607 1.366 . S
C1608 C1612 1.385 . S
C1609 H1584 0.951 . S
C1609 C1607 1.388 . S
C1609 C1610 1.366 . S
C1610 C1609 1.366 . S
C1610 C1611 1.414 . S
C1610 C1613 1.499 . S
C1611 H1585 0.950 . S
C1611 C1610 1.414 . S
C1611 C1612 1.374 . S
C1612 H1586 0.950 . S
C1612 C1608 1.385 . S
C1612 C1611 1.374 . S
C1613 C1610 1.499 . S
C1613 C1614 1.373 . S
C1613 C1615 1.389 . S
C1614 H1587 0.950 . S
C1614 C1600 1.377 . S
C1614 C1613 1.373 . S
C1615 C1599 1.377 . S
C1615 C1613 1.389 . S
C1615 C1616 1.524 . S
C1616 C1615 1.524 . S
C1616 C1617 1.397 . S
C1616 C1621 1.363 . S
C1617 H1588 0.950 . S
C1617 C1616 1.397 . S
C1617 C1618 1.334 . S
C1618 H1589 0.950 . S
C1618 C1617 1.334 . S
C1618 C1619 1.287 . S
C1619 C1618 1.287 . S
C1619 C1620 1.524 . S
C1619 H1622 0.999 . S
C1620 H1590 0.950 . S
C1620 C1619 1.524 . S
C1620 C1621 1.415 . S
C1621 H1591 0.950 . S
C1621 C1616 1.363 . S
C1621 C1620 1.415 . S
H1622 C1619 0.999 . S
H1623 C1604 0.913 . S
H1624 C1642 0.951 . S
H1625 C1644 0.951 . S
H1626 C1646 0.950 . S
H1627 C1647 0.950 . S
H1628 C1649 0.950 . S
H1629 C1652 0.950 . S
H1630 C1653 0.950 . S
H1631 C1655 0.950 . S
H1632 C1656 0.950 . S
H1633 C1657 0.951 . S
H1634 C1659 0.951 . S
H1635 C1661 0.950 . S
H1636 C1662 0.950 . S
H1637 C1664 0.950 . S
H1638 C1667 0.950 . S
H1639 C1668 0.950 . S
H1640 C1670 0.950 . S
H1641 C1671 0.950 . S
C1642 H1624 0.951 . S
C1642 C1643 1.366 . S
C1642 C1644 1.388 . S
C1643 C1642 1.366 . S
C1643 C1647 1.385 . S
C1644 H1625 0.951 . S
C1644 C1642 1.388 . S
C1644 C1645 1.366 . S
C1645 C1644 1.366 . S
C1645 C1646 1.414 . S
C1645 C1648 1.499 . S
C1646 H1626 0.950 . S
C1646 C1645 1.414 . S
C1646 C1647 1.374 . S
C1647 H1627 0.950 . S
C1647 C1643 1.385 . S
C1647 C1646 1.374 . S
C1648 C1645 1.499 . S
C1648 C1649 1.373 . S
C1648 C1650 1.389 . S
C1649 H1628 0.950 . S
C1649 C1648 1.373 . S
C1649 C1665 1.377 . S
C1650 C1648 1.389 . S
C1650 C1651 1.524 . S
C1650 C1664 1.377 . S
C1651 C1650 1.524 . S
C1651 C1652 1.397 . S
C1651 C1656 1.363 . S
C1652 H1629 0.950 . S
C1652 C1651 1.397 . S
C1652 C1653 1.334 . S
C1653 H1630 0.950 . S
C1653 C1652 1.334 . S
C1653 C1654 1.287 . S
C1654 C1653 1.287 . S
C1654 C1655 1.524 . S
C1654 H1673 0.913 . S
C1655 H1631 0.950 . S
C1655 C1654 1.524 . S
C1655 C1656 1.415 . S
C1656 H1632 0.950 . S
C1656 C1651 1.363 . S
C1656 C1655 1.415 . S
C1657 H1633 0.951 . S
C1657 C1658 1.366 . S
C1657 C1659 1.388 . S
C1658 C1657 1.366 . S
C1658 C1662 1.385 . S
C1659 H1634 0.951 . S
C1659 C1657 1.388 . S
C1659 C1660 1.366 . S
C1660 C1659 1.366 . S
C1660 C1661 1.414 . S
C1660 C1663 1.499 . S
C1661 H1635 0.950 . S
C1661 C1660 1.414 . S
C1661 C1662 1.374 . S
C1662 H1636 0.950 . S
C1662 C1658 1.385 . S
C1662 C1661 1.374 . S
C1663 C1660 1.499 . S
C1663 C1664 1.373 . S
C1663 C1665 1.389 . S
C1664 H1637 0.950 . S
C1664 C1650 1.377 . S
C1664 C1663 1.373 . S
C1665 C1649 1.377 . S
C1665 C1663 1.389 . S
C1665 C1666 1.524 . S
C1666 C1665 1.524 . S
C1666 C1667 1.397 . S
C1666 C1671 1.363 . S
C1667 H1638 0.950 . S
C1667 C1666 1.397 . S
C1667 C1668 1.334 . S
C1668 H1639 0.950 . S
C1668 C1667 1.334 . S
C1668 C1669 1.287 . S
C1669 C1668 1.287 . S
C1669 C1670 1.524 . S
C1669 H1672 0.999 . S
C1670 H1640 0.950 . S
C1670 C1669 1.524 . S
C1670 C1671 1.415 . S
C1671 H1641 0.950 . S
C1671 C1666 1.363 . S
C1671 C1670 1.415 . S
H1672 C1669 0.999 . S
H1673 C1654 0.913 . S
H1674 C1692 0.951 . S
H1675 C1694 0.951 . S
H1676 C1696 0.950 . S
H1677 C1697 0.950 . S
H1678 C1699 0.950 . S
H1679 C1702 0.950 . S
H1680 C1703 0.950 . S
H1681 C1705 0.950 . S
H1682 C1706 0.950 . S
H1683 C1707 0.951 . S
H1684 C1709 0.951 . S
H1685 C1711 0.950 . S
H1686 C1712 0.950 . S
H1687 C1714 0.950 . S
H1688 C1717 0.950 . S
H1689 C1718 0.950 . S
H1690 C1720 0.950 . S
H1691 C1721 0.950 . S
C1692 H1674 0.951 . S
C1692 C1693 1.366 . S
C1692 C1694 1.388 . S
C1693 C1692 1.366 . S
C1693 C1697 1.385 . S
C1694 H1675 0.951 . S
C1694 C1692 1.388 . S
C1694 C1695 1.366 . S
C1695 C1694 1.366 . S
C1695 C1696 1.414 . S
C1695 C1698 1.499 . S
C1696 H1676 0.950 . S
C1696 C1695 1.414 . S
C1696 C1697 1.374 . S
C1697 H1677 0.950 . S
C1697 C1693 1.385 . S
C1697 C1696 1.374 . S
C1698 C1695 1.499 . S
C1698 C1699 1.373 . S
C1698 C1700 1.389 . S
C1699 H1678 0.950 . S
C1699 C1698 1.373 . S
C1699 C1715 1.377 . S
C1700 C1698 1.389 . S
C1700 C1701 1.524 . S
C1700 C1714 1.377 . S
C1701 C1700 1.524 . S
C1701 C1702 1.397 . S
C1701 C1706 1.363 . S
C1702 H1679 0.950 . S
C1702 C1701 1.397 . S
C1702 C1703 1.334 . S
C1703 H1680 0.950 . S
C1703 C1702 1.334 . S
C1703 C1704 1.287 . S
C1704 C1703 1.287 . S
C1704 C1705 1.524 . S
C1704 H1723 0.913 . S
C1705 H1681 0.950 . S
C1705 C1704 1.524 . S
C1705 C1706 1.415 . S
C1706 H1682 0.950 . S
C1706 C1701 1.363 . S
C1706 C1705 1.415 . S
C1707 H1683 0.951 . S
C1707 C1708 1.366 . S
C1707 C1709 1.388 . S
C1708 C1707 1.366 . S
C1708 C1712 1.385 . S
C1709 H1684 0.951 . S
C1709 C1707 1.388 . S
C1709 C1710 1.366 . S
C1710 C1709 1.366 . S
C1710 C1711 1.414 . S
C1710 C1713 1.499 . S
C1711 H1685 0.950 . S
C1711 C1710 1.414 . S
C1711 C1712 1.374 . S
C1712 H1686 0.950 . S
C1712 C1708 1.385 . S
C1712 C1711 1.374 . S
C1713 C1710 1.499 . S
C1713 C1714 1.373 . S
C1713 C1715 1.389 . S
C1714 H1687 0.950 . S
C1714 C1700 1.377 . S
C1714 C1713 1.373 . S
C1715 C1699 1.377 . S
C1715 C1713 1.389 . S
C1715 C1716 1.524 . S
C1716 C1715 1.524 . S
C1716 C1717 1.397 . S
C1716 C1721 1.363 . S
C1717 H1688 0.950 . S
C1717 C1716 1.397 . S
C1717 C1718 1.334 . S
C1718 H1689 0.950 . S
C1718 C1717 1.334 . S
C1718 C1719 1.287 . S
C1719 C1718 1.287 . S
C1719 C1720 1.524 . S
C1719 H1722 0.999 . S
C1720 H1690 0.950 . S
C1720 C1719 1.524 . S
C1720 C1721 1.415 . S
C1721 H1691 0.950 . S
C1721 C1716 1.363 . S
C1721 C1720 1.415 . S
H1722 C1719 0.999 . S
H1723 C1704 0.913 . S
H1724 C1742 0.951 . S
H1725 C1744 0.951 . S
H1726 C1746 0.950 . S
H1727 C1747 0.950 . S
H1728 C1749 0.950 . S
H1729 C1752 0.950 . S
H1730 C1753 0.950 . S
H1731 C1755 0.950 . S
H1732 C1756 0.950 . S
H1733 C1757 0.951 . S
H1734 C1759 0.951 . S
H1735 C1761 0.950 . S
H1736 C1762 0.950 . S
H1737 C1764 0.950 . S
H1738 C1767 0.950 . S
H1739 C1768 0.950 . S
H1740 C1770 0.950 . S
H1741 C1771 0.950 . S
C1742 H1724 0.951 . S
C1742 C1743 1.366 . S
C1742 C1744 1.388 . S
C1743 C1742 1.366 . S
C1743 C1747 1.385 . S
C1744 H1725 0.951 . S
C1744 C1742 1.388 . S
C1744 C1745 1.366 . S
C1745 C1744 1.366 . S
C1745 C1746 1.414 . S
C1745 C1748 1.499 . S
C1746 H1726 0.950 . S
C1746 C1745 1.414 . S
C1746 C1747 1.374 . S
C1747 H1727 0.950 . S
C1747 C1743 1.385 . S
C1747 C1746 1.374 . S
C1748 C1745 1.499 . S
C1748 C1749 1.373 . S
C1748 C1750 1.389 . S
C1749 H1728 0.950 . S
C1749 C1748 1.373 . S
C1749 C1765 1.377 . S
C1750 C1748 1.389 . S
C1750 C1751 1.524 . S
C1750 C1764 1.377 . S
C1751 C1750 1.524 . S
C1751 C1752 1.397 . S
C1751 C1756 1.363 . S
C1752 H1729 0.950 . S
C1752 C1751 1.397 . S
C1752 C1753 1.334 . S
C1753 H1730 0.950 . S
C1753 C1752 1.334 . S
C1753 C1754 1.287 . S
C1754 C1753 1.287 . S
C1754 C1755 1.524 . S
C1754 H1773 0.913 . S
C1755 H1731 0.950 . S
C1755 C1754 1.524 . S
C1755 C1756 1.415 . S
C1756 H1732 0.950 . S
C1756 C1751 1.363 . S
C1756 C1755 1.415 . S
C1757 H1733 0.951 . S
C1757 C1758 1.366 . S
C1757 C1759 1.388 . S
C1758 C1757 1.366 . S
C1758 C1762 1.385 . S
C1759 H1734 0.951 . S
C1759 C1757 1.388 . S
C1759 C1760 1.366 . S
C1760 C1759 1.366 . S
C1760 C1761 1.414 . S
C1760 C1763 1.499 . S
C1761 H1735 0.950 . S
C1761 C1760 1.414 . S
C1761 C1762 1.374 . S
C1762 H1736 0.950 . S
C1762 C1758 1.385 . S
C1762 C1761 1.374 . S
C1763 C1760 1.499 . S
C1763 C1764 1.373 . S
C1763 C1765 1.389 . S
C1764 H1737 0.950 . S
C1764 C1750 1.377 . S
C1764 C1763 1.373 . S
C1765 C1749 1.377 . S
C1765 C1763 1.389 . S
C1765 C1766 1.524 . S
C1766 C1765 1.524 . S
C1766 C1767 1.397 . S
C1766 C1771 1.363 . S
C1767 H1738 0.950 . S
C1767 C1766 1.397 . S
C1767 C1768 1.334 . S
C1768 H1739 0.950 . S
C1768 C1767 1.334 . S
C1768 C1769 1.287 . S
C1769 C1768 1.287 . S
C1769 C1770 1.524 . S
C1769 H1772 0.999 . S
C1770 H1740 0.950 . S
C1770 C1769 1.524 . S
C1770 C1771 1.415 . S
C1771 H1741 0.950 . S
C1771 C1766 1.363 . S
C1771 C1770 1.415 . S
H1772 C1769 0.999 . S
H1773 C1754 0.913 . S
H1774 C1792 0.951 . S
H1775 C1794 0.951 . S
H1776 C1796 0.950 . S
H1777 C1797 0.950 . S
H1778 C1799 0.950 . S
H1779 C1802 0.950 . S
H1780 C1803 0.950 . S
H1781 C1805 0.950 . S
H1782 C1806 0.950 . S
H1783 C1807 0.951 . S
H1784 C1809 0.951 . S
H1785 C1811 0.950 . S
H1786 C1812 0.950 . S
H1787 C1814 0.950 . S
H1788 C1817 0.950 . S
H1789 C1818 0.950 . S
H1790 C1820 0.950 . S
H1791 C1821 0.950 . S
C1792 H1774 0.951 . S
C1792 C1793 1.366 . S
C1792 C1794 1.388 . S
C1793 C1792 1.366 . S
C1793 C1797 1.385 . S
C1794 H1775 0.951 . S
C1794 C1792 1.388 . S
C1794 C1795 1.366 . S
C1795 C1794 1.366 . S
C1795 C1796 1.414 . S
C1795 C1798 1.499 . S
C1796 H1776 0.950 . S
C1796 C1795 1.414 . S
C1796 C1797 1.374 . S
C1797 H1777 0.950 . S
C1797 C1793 1.385 . S
C1797 C1796 1.374 . S
C1798 C1795 1.499 . S
C1798 C1799 1.373 . S
C1798 C1800 1.389 . S
C1799 H1778 0.950 . S
C1799 C1798 1.373 . S
C1799 C1815 1.377 . S
C1800 C1798 1.389 . S
C1800 C1801 1.524 . S
C1800 C1814 1.377 . S
C1801 C1800 1.524 . S
C1801 C1802 1.397 . S
C1801 C1806 1.363 . S
C1802 H1779 0.950 . S
C1802 C1801 1.397 . S
C1802 C1803 1.334 . S
C1803 H1780 0.950 . S
C1803 C1802 1.334 . S
C1803 C1804 1.287 . S
C1804 C1803 1.287 . S
C1804 C1805 1.524 . S
C1804 H1823 0.913 . S
C1805 H1781 0.950 . S
C1805 C1804 1.524 . S
C1805 C1806 1.415 . S
C1806 H1782 0.950 . S
C1806 C1801 1.363 . S
C1806 C1805 1.415 . S
C1807 H1783 0.951 . S
C1807 C1808 1.366 . S
C1807 C1809 1.388 . S
C1808 C1807 1.366 . S
C1808 C1812 1.385 . S
C1809 H1784 0.951 . S
C1809 C1807 1.388 . S
C1809 C1810 1.366 . S
C1810 C1809 1.366 . S
C1810 C1811 1.414 . S
C1810 C1813 1.499 . S
C1811 H1785 0.950 . S
C1811 C1810 1.414 . S
C1811 C1812 1.374 . S
C1812 H1786 0.950 . S
C1812 C1808 1.385 . S
C1812 C1811 1.374 . S
C1813 C1810 1.499 . S
C1813 C1814 1.373 . S
C1813 C1815 1.389 . S
C1814 H1787 0.950 . S
C1814 C1800 1.377 . S
C1814 C1813 1.373 . S
C1815 C1799 1.377 . S
C1815 C1813 1.389 . S
C1815 C1816 1.524 . S
C1816 C1815 1.524 . S
C1816 C1817 1.397 . S
C1816 C1821 1.363 . S
C1817 H1788 0.950 . S
C1817 C1816 1.397 . S
C1817 C1818 1.334 . S
C1818 H1789 0.950 . S
C1818 C1817 1.334 . S
C1818 C1819 1.287 . S
C1819 C1818 1.287 . S
C1819 C1820 1.524 . S
C1819 H1822 0.999 . S
C1820 H1790 0.950 . S
C1820 C1819 1.524 . S
C1820 C1821 1.415 . S
C1821 H1791 0.950 . S
C1821 C1816 1.363 . S
C1821 C1820 1.415 . S
H1822 C1819 0.999 . S
H1823 C1804 0.913 . S
C243 C9 1.491 . S
C258 C179 1.479 . S
C293 C193 1.479 . S
C308 C23 1.491 . S
C343 C37 1.491 . S
C358 C207 1.479 . S
C393 C221 1.479 . S
C408 C51 1.491 . S
C443 C121 1.491 . S
C458 C67 1.480 . S
C493 C81 1.479 . S
C508 C135 1.491 . S
C543 C149 1.491 . S
C558 C95 1.479 . S
C593 C109 1.479 . S
C608 C163 1.492 . S
C643 C5 1.419 . S
C658 C33 1.419 . S
C693 C19 1.419 . S
C708 C47 1.419 . S
C743 C61 1.680 . S
C758 C89 1.680 . S
C793 C75 1.679 . S
C808 C103 1.680 . S
C843 C145 1.419 . S
C858 C117 1.419 . S
C893 C131 1.419 . S
C908 C159 1.419 . S
C943 C201 1.680 . S
C958 C173 1.680 . S
C993 C187 1.679 . S
C1008 C215 1.680 . S
C1043 C84 1.477 . S
C1058 C0 1.481 . S
C1093 C98 1.477 . S
C1108 C14 1.482 . S
C1143 C28 1.481 . S
C1158 C56 1.477 . S
C1193 C42 1.481 . S
C1208 C70 1.477 . S
C1243 C196 1.477 . S
C1258 C112 1.481 . S
C1293 C126 1.482 . S
C1308 C210 1.478 . S
C1343 C168 1.477 . S
C1358 C140 1.481 . S
C1393 C154 1.482 . S
C1408 C182 1.477 . S
C1443 C11 1.105 . S
C1458 C53 1.105 . S
C1493 C39 1.105 . S
C1508 C25 1.105 . S
C1543 C65 1.827 . S
C1558 C107 1.828 . S
C1593 C79 1.827 . S
C1608 C93 1.828 . S
C1643 C165 1.105 . S
C1658 C123 1.105 . S
C1693 C137 1.105 . S
C1708 C151 1.105 . S
C1743 C219 1.827 . S
C1758 C177 1.828 . S
C1793 C191 1.828 . S
C1808 C205 1.827 . S
