# Generated by pormake.
# Topology wmg, (6)-cn, num edge types: 1
# Building blocks:
#     Node 0, Type 0, BuildingBlock: VOLQOD_clean_sbu_1, # of connection points: 6
#     Node 1, Type 0, BuildingBlock: VOLQOD_clean_sbu_1, # of connection points: 6
#     Node 2, Type 0, BuildingBlock: VOLQOD_clean_sbu_1, # of connection points: 6
#     Node 3, Type 0, BuildingBlock: VOLQOD_clean_sbu_1, # of connection points: 6
#     Node 4, Type 0, BuildingBlock: VOLQOD_clean_sbu_1, # of connection points: 6
#     Node 5, Type 0, BuildingBlock: VOLQOD_clean_sbu_1, # of connection points: 6
#     Node 6, Type 0, BuildingBlock: VOLQOD_clean_sbu_1, # of connection points: 6
#     Node 7, Type 0, BuildingBlock: VOLQOD_clean_sbu_1, # of connection points: 6
#     Node 8, Type 0, BuildingBlock: VOLQOD_clean_sbu_1, # of connection points: 6
#     Node 9, Type 0, BuildingBlock: VOLQOD_clean_sbu_1, # of connection points: 6
#     Node 10, Type 0, BuildingBlock: VOLQOD_clean_sbu_1, # of connection points: 6
#     Node 11, Type 0, BuildingBlock: VOLQOD_clean_sbu_1, # of connection points: 6
#     Node 12, Type 0, BuildingBlock: VOLQOD_clean_sbu_1, # of connection points: 6
#     Node 13, Type 0, BuildingBlock: VOLQOD_clean_sbu_1, # of connection points: 6
#     Node 14, Type 0, BuildingBlock: VOLQOD_clean_sbu_1, # of connection points: 6
#     Node 15, Type 0, BuildingBlock: VOLQOD_clean_sbu_1, # of connection points: 6
#     Node 16, Type 0, BuildingBlock: VOLQOD_clean_sbu_1, # of connection points: 6
#     Node 17, Type 0, BuildingBlock: VOLQOD_clean_sbu_1, # of connection points: 6
#     Edge 18, Type (0, 0), BuildingBlock: OJICUG_clean_linker_0, # of connection points: 2
#     Edge 19, Type (0, 0), BuildingBlock: OJICUG_clean_linker_0, # of connection points: 2
#     Edge 20, Type (0, 0), BuildingBlock: OJICUG_clean_linker_0, # of connection points: 2
#     Edge 21, Type (0, 0), BuildingBlock: OJICUG_clean_linker_0, # of connection points: 2
#     Edge 22, Type (0, 0), BuildingBlock: OJICUG_clean_linker_0, # of connection points: 2
#     Edge 23, Type (0, 0), BuildingBlock: OJICUG_clean_linker_0, # of connection points: 2
#     Edge 24, Type (0, 0), BuildingBlock: OJICUG_clean_linker_0, # of connection points: 2
#     Edge 25, Type (0, 0), BuildingBlock: OJICUG_clean_linker_0, # of connection points: 2
#     Edge 26, Type (0, 0), BuildingBlock: OJICUG_clean_linker_0, # of connection points: 2
#     Edge 27, Type (0, 0), BuildingBlock: OJICUG_clean_linker_0, # of connection points: 2
#     Edge 28, Type (0, 0), BuildingBlock: OJICUG_clean_linker_0, # of connection points: 2
#     Edge 29, Type (0, 0), BuildingBlock: OJICUG_clean_linker_0, # of connection points: 2
#     Edge 30, Type (0, 0), BuildingBlock: OJICUG_clean_linker_0, # of connection points: 2
#     Edge 31, Type (0, 0), BuildingBlock: OJICUG_clean_linker_0, # of connection points: 2
#     Edge 32, Type (0, 0), BuildingBlock: OJICUG_clean_linker_0, # of connection points: 2
#     Edge 33, Type (0, 0), BuildingBlock: OJICUG_clean_linker_0, # of connection points: 2
#     Edge 34, Type (0, 0), BuildingBlock: OJICUG_clean_linker_0, # of connection points: 2
#     Edge 35, Type (0, 0), BuildingBlock: OJICUG_clean_linker_0, # of connection points: 2
#     Edge 36, Type (0, 0), BuildingBlock: OJICUG_clean_linker_0, # of connection points: 2
#     Edge 37, Type (0, 0), BuildingBlock: OJICUG_clean_linker_0, # of connection points: 2
#     Edge 38, Type (0, 0), BuildingBlock: OJICUG_clean_linker_0, # of connection points: 2
#     Edge 39, Type (0, 0), BuildingBlock: OJICUG_clean_linker_0, # of connection points: 2
#     Edge 40, Type (0, 0), BuildingBlock: OJICUG_clean_linker_0, # of connection points: 2
#     Edge 41, Type (0, 0), BuildingBlock: OJICUG_clean_linker_0, # of connection points: 2
#     Edge 42, Type (0, 0), BuildingBlock: OJICUG_clean_linker_0, # of connection points: 2
#     Edge 43, Type (0, 0), BuildingBlock: OJICUG_clean_linker_0, # of connection points: 2
#     Edge 44, Type (0, 0), BuildingBlock: OJICUG_clean_linker_0, # of connection points: 2
#     Edge 45, Type (0, 0), BuildingBlock: OJICUG_clean_linker_0, # of connection points: 2
#     Edge 46, Type (0, 0), BuildingBlock: OJICUG_clean_linker_0, # of connection points: 2
#     Edge 47, Type (0, 0), BuildingBlock: OJICUG_clean_linker_0, # of connection points: 2
#     Edge 48, Type (0, 0), BuildingBlock: OJICUG_clean_linker_0, # of connection points: 2
#     Edge 49, Type (0, 0), BuildingBlock: OJICUG_clean_linker_0, # of connection points: 2
#     Edge 50, Type (0, 0), BuildingBlock: OJICUG_clean_linker_0, # of connection points: 2
#     Edge 51, Type (0, 0), BuildingBlock: OJICUG_clean_linker_0, # of connection points: 2
#     Edge 52, Type (0, 0), BuildingBlock: OJICUG_clean_linker_0, # of connection points: 2
#     Edge 53, Type (0, 0), BuildingBlock: OJICUG_clean_linker_0, # of connection points: 2
#     Edge 54, Type (0, 0), BuildingBlock: OJICUG_clean_linker_0, # of connection points: 2
#     Edge 55, Type (0, 0), BuildingBlock: OJICUG_clean_linker_0, # of connection points: 2
#     Edge 56, Type (0, 0), BuildingBlock: OJICUG_clean_linker_0, # of connection points: 2
#     Edge 57, Type (0, 0), BuildingBlock: OJICUG_clean_linker_0, # of connection points: 2
#     Edge 58, Type (0, 0), BuildingBlock: OJICUG_clean_linker_0, # of connection points: 2
#     Edge 59, Type (0, 0), BuildingBlock: OJICUG_clean_linker_0, # of connection points: 2
#     Edge 60, Type (0, 0), BuildingBlock: OJICUG_clean_linker_0, # of connection points: 2
#     Edge 61, Type (0, 0), BuildingBlock: OJICUG_clean_linker_0, # of connection points: 2
#     Edge 62, Type (0, 0), BuildingBlock: OJICUG_clean_linker_0, # of connection points: 2
#     Edge 63, Type (0, 0), BuildingBlock: OJICUG_clean_linker_0, # of connection points: 2
#     Edge 64, Type (0, 0), BuildingBlock: OJICUG_clean_linker_0, # of connection points: 2
#     Edge 65, Type (0, 0), BuildingBlock: OJICUG_clean_linker_0, # of connection points: 2
#     Edge 66, Type (0, 0), BuildingBlock: OJICUG_clean_linker_0, # of connection points: 2
#     Edge 67, Type (0, 0), BuildingBlock: OJICUG_clean_linker_0, # of connection points: 2
#     Edge 68, Type (0, 0), BuildingBlock: OJICUG_clean_linker_0, # of connection points: 2
#     Edge 69, Type (0, 0), BuildingBlock: OJICUG_clean_linker_0, # of connection points: 2
#     Edge 70, Type (0, 0), BuildingBlock: OJICUG_clean_linker_0, # of connection points: 2
#     Edge 71, Type (0, 0), BuildingBlock: OJICUG_clean_linker_0, # of connection points: 2
# Relax obj value: 0.414
# Max RMSD: 0.275
# Mean RMSD: 0.275
data_MOF--net-wmg--node1-VOLQOD_clean_sbu_1--edge1-OJICUG_clean_linker_0
_symmetry_space_group_name_H-M    P1
_symmetry_Int_Tables_number       1
_symmetry_cell_setting            triclinic
loop_
_symmetry_equiv_pos_as_xyz
'x, y, z'
_cell_length_a     48.242897
_cell_length_b     48.231788
_cell_length_c     20.328654
_cell_angle_alpha  90.006578
_cell_angle_beta   90.020633
_cell_angle_gamma 120.02069
loop_
_atom_site_label
_atom_site_type_symbol
_atom_site_fract_x
_atom_site_fract_y
_atom_site_fract_z
_atom_type_partial_charge
O0 O 0.15387 0.30214 -0.00741 0.0
Zn1 Zn 0.1794 0.29733 0.06384 0.0
O2 O 0.17245 0.25413 0.06334 0.0
Zn3 Zn 0.15755 0.23457 0.14879 0.0
Zn4 Zn 0.14197 0.22994 -0.00239 0.0
Zn5 Zn 0.21031 0.25512 0.03442 0.0
O6 O 0.19044 0.22399 0.18844 0.0
O7 O 0.22984 0.25005 0.11549 0.0
O8 O 0.16993 0.30994 0.15137 0.0
O9 O 0.15836 0.26709 0.21135 0.0
O10 O 0.10924 0.20162 0.14412 0.0
O11 O 0.09987 0.20848 0.03945 0.0
O12 O 0.14923 0.19668 0.95515 0.0
O13 O 0.22421 0.32966 0.03681 0.0
O14 O 0.20154 0.21905 0.97081 0.0
O15 O 0.24043 0.29786 -0.00601 0.0
C16 C 0.14736 0.2882 0.93691 0.0
C17 C 0.21987 0.23657 0.17119 0.0
C18 C 0.08999 0.19713 0.09654 0.0
C19 C 0.16264 0.29525 0.20621 0.0
C20 C 0.17548 0.19715 0.94576 0.0
C21 C 0.24413 0.32568 0.00302 0.0
O22 O 0.14428 0.26059 0.92973 0.0
O23 O 0.67913 0.84807 -0.00694 0.0
Zn24 Zn 0.68395 0.87849 0.06415 0.0
O25 O 0.72715 0.91476 0.06367 0.0
Zn26 Zn 0.74671 0.91948 0.14917 0.0
Zn27 Zn 0.75133 0.90845 -0.00197 0.0
Zn28 Zn 0.72617 0.95163 0.03457 0.0
O29 O 0.7573 0.96301 0.18867 0.0
O30 O 0.73128 0.97631 0.11552 0.0
O31 O 0.67133 0.85649 0.15176 0.0
O32 O 0.71419 0.88778 0.21176 0.0
O33 O 0.77967 0.90413 0.14463 0.0
O34 O 0.77281 0.88785 0.03999 0.0
O35 O 0.78456 0.94895 0.95545 0.0
O36 O 0.65163 0.89095 0.03688 0.0
O37 O 0.76219 0.97888 0.97092 0.0
O38 O 0.68345 0.93899 -0.00592 0.0
C39 C 0.69305 0.8555 0.93739 0.0
C40 C 0.74475 0.97986 0.17126 0.0
C41 C 0.78418 0.88938 0.0971 0.0
C42 C 0.68603 0.86391 0.20661 0.0
C43 C 0.78408 0.97471 0.94592 0.0
C44 C 0.65562 0.91486 0.00304 0.0
O45 O 0.72066 0.88005 0.9302 0.0
O46 O 0.13294 0.82693 -0.00753 0.0
Zn47 Zn 0.10257 0.80154 0.06376 0.0
O48 O 0.06639 0.80856 0.06315 0.0
Zn49 Zn 0.06173 0.82347 0.14859 0.0
Zn50 Zn 0.07277 0.83904 -0.00257 0.0
Zn51 Zn 0.02948 0.77072 0.0341 0.0
O52 O 0.01822 0.7906 0.18814 0.0
O53 O 0.00482 0.7512 0.11509 0.0
O54 O 0.12466 0.81105 0.15129 0.0
O55 O 0.09342 0.82266 0.21124 0.0
O56 O 0.07715 0.8718 0.14394 0.0
O57 O 0.09347 0.88115 0.03934 0.0
O58 O 0.0323 0.83185 0.95488 0.0
O59 O 0.08998 0.75668 0.03693 0.0
O60 O 0.00225 0.77954 0.97045 0.0
O61 O 0.04205 0.74057 -0.00633 0.0
C62 C 0.12559 0.83353 0.93682 0.0
C63 C 0.00132 0.76117 0.17081 0.0
C64 C 0.09196 0.89104 0.09641 0.0
C65 C 0.11728 0.81836 0.20612 0.0
C66 C 0.00648 0.80562 0.94542 0.0
C67 C 0.06611 0.7368 0.00292 0.0
O68 O 0.10111 0.8367 0.92961 0.0
O69 O 0.82347 0.68296 0.98484 0.0
Zn70 Zn 0.79794 0.68782 0.91364 0.0
O71 O 0.80492 0.73103 0.91419 0.0
Zn72 Zn 0.81974 0.75057 0.82869 0.0
Zn73 Zn 0.83545 0.75522 0.97986 0.0
Zn74 Zn 0.7671 0.73007 0.9433 0.0
O75 O 0.78682 0.76116 0.7892 0.0
O76 O 0.74751 0.73519 0.86237 0.0
O77 O 0.80737 0.6752 0.82607 0.0
O78 O 0.81891 0.71804 0.76608 0.0
O79 O 0.86806 0.78353 0.83324 0.0
O80 O 0.87752 0.77668 0.93785 0.0
O81 O 0.82824 0.78849 0.02246 0.0
O82 O 0.75313 0.6555 0.94073 0.0
O83 O 0.77592 0.76611 0.007 0.0
O84 O 0.73699 0.68734 0.98373 0.0
C85 C 0.83005 0.69692 0.0405 0.0
C86 C 0.75742 0.74864 0.80663 0.0
C87 C 0.88734 0.78803 0.88074 0.0
C88 C 0.81464 0.68988 0.77122 0.0
C89 C 0.80199 0.78801 0.032 0.0
C90 C 0.73325 0.6595 0.97464 0.0
O91 O 0.83318 0.72456 0.04769 0.0
O92 O 0.2983 0.13692 0.98446 0.0
Zn93 Zn 0.29345 0.10657 0.91319 0.0
O94 O 0.25026 0.07029 0.91366 0.0
Zn95 Zn 0.23067 0.06564 0.82821 0.0
Zn96 Zn 0.2261 0.07656 0.97941 0.0
Zn97 Zn 0.25126 0.0334 0.94249 0.0
O98 O 0.22006 0.02216 0.78849 0.0
O99 O 0.24616 0.00882 0.86138 0.0
O100 O 0.30603 0.12866 0.82569 0.0
O101 O 0.26317 0.09738 0.76567 0.0
O102 O 0.19773 0.081 0.83292 0.0
O103 O 0.2046 0.09718 0.93763 0.0
O104 O 0.1929 0.03603 0.0219 0.0
O105 O 0.32578 0.09409 0.94017 0.0
O106 O 0.21524 0.00608 0.00611 0.0
O107 O 0.29401 0.04602 0.98289 0.0
C108 C 0.28437 0.12949 0.04012 0.0
C109 C 0.23266 0.00532 0.80568 0.0
C110 C 0.19323 0.09571 0.88055 0.0
C111 C 0.29133 0.12126 0.77084 0.0
C112 C 0.19337 0.01024 0.03124 0.0
C113 C 0.32182 0.07017 0.97389 0.0
O114 O 0.25676 0.10494 0.04728 0.0
O115 O 0.84424 0.15785 0.98444 0.0
Zn116 Zn 0.87463 0.18338 0.91328 0.0
O117 O 0.91086 0.17642 0.91383 0.0
Zn118 Zn 0.91552 0.1615 0.8284 0.0
Zn119 Zn 0.90453 0.14596 0.97956 0.0
Zn120 Zn 0.94776 0.2143 0.94282 0.0
O121 O 0.95902 0.19439 0.78883 0.0
O122 O 0.97237 0.23382 0.86179 0.0
O123 O 0.85259 0.17393 0.8257 0.0
O124 O 0.88382 0.1623 0.76576 0.0
O125 O 0.90014 0.11318 0.83308 0.0
O126 O 0.88388 0.10383 0.93771 0.0
O127 O 0.94503 0.15322 0.02211 0.0
O128 O 0.88714 0.2282 0.94035 0.0
O129 O 0.97504 0.20553 0.00644 0.0
O130 O 0.93516 0.24442 0.98327 0.0
C131 C 0.85166 0.15137 0.04014 0.0
C132 C 0.97588 0.22384 0.8061 0.0
C133 C 0.88539 0.09394 0.88064 0.0
C134 C 0.85997 0.16662 0.77087 0.0
C135 C 0.97084 0.17947 0.03152 0.0
C136 C 0.91105 0.24812 0.97421 0.0
O137 O 0.87619 0.14829 0.04737 0.0
O138 O 0.82056 0.6356 0.32658 0.0
Zn139 Zn 0.84609 0.6307 0.39771 0.0
O140 O 0.83906 0.58746 0.39712 0.0
Zn141 Zn 0.82421 0.5679 0.4826 0.0
Zn142 Zn 0.80853 0.56331 0.33142 0.0
Zn143 Zn 0.87686 0.5884 0.36801 0.0
O144 O 0.85712 0.55727 0.52205 0.0
O145 O 0.89645 0.58327 0.44892 0.0
O146 O 0.8367 0.64331 0.48533 0.0
O147 O 0.82507 0.60043 0.54525 0.0
O148 O 0.77588 0.53495 0.47799 0.0
O149 O 0.76646 0.54184 0.37338 0.0
O150 O 0.81572 0.53005 0.2887 0.0
O151 O 0.89091 0.663 0.37055 0.0
O152 O 0.86803 0.55237 0.30429 0.0
O153 O 0.90697 0.6311 0.32753 0.0
C154 C 0.81396 0.62165 0.27091 0.0
C155 C 0.88652 0.56979 0.50464 0.0
C156 C 0.75662 0.53046 0.43047 0.0
C157 C 0.8294 0.62861 0.54016 0.0
C158 C 0.84196 0.53051 0.2792 0.0
C159 C 0.91074 0.65896 0.33658 0.0
O160 O 0.81081 0.59401 0.26368 0.0
O161 O 0.34562 0.18146 0.32626 0.0
Zn162 Zn 0.35053 0.21187 0.39744 0.0
O163 O 0.39374 0.24811 0.39692 0.0
Zn164 Zn 0.41333 0.2528 0.48238 0.0
Zn165 Zn 0.41787 0.24176 0.33122 0.0
Zn166 Zn 0.39279 0.285 0.36791 0.0
O167 O 0.42398 0.29633 0.52195 0.0
O168 O 0.39795 0.30967 0.44892 0.0
O169 O 0.33794 0.18984 0.485 0.0
O170 O 0.38082 0.22111 0.54498 0.0
O171 O 0.44624 0.2374 0.47776 0.0
O172 O 0.43933 0.22113 0.37311 0.0
O173 O 0.45111 0.28224 0.28863 0.0
O174 O 0.31824 0.22438 0.37039 0.0
O175 O 0.4288 0.31223 0.30423 0.0
O176 O 0.35005 0.27241 0.32753 0.0
C177 C 0.35957 0.18883 0.27061 0.0
C178 C 0.41144 0.3132 0.50463 0.0
C179 C 0.45071 0.22263 0.4302 0.0
C180 C 0.35264 0.19725 0.53984 0.0
C181 C 0.45066 0.30803 0.27917 0.0
C182 C 0.32222 0.24829 0.33658 0.0
O183 O 0.38719 0.21335 0.26342 0.0
O184 O 0.79989 0.16098 0.32613 0.0
Zn185 Zn 0.76949 0.13541 0.39722 0.0
O186 O 0.73324 0.14235 0.39666 0.0
Zn187 Zn 0.72854 0.15721 0.48215 0.0
Zn188 Zn 0.73958 0.17286 0.33101 0.0
Zn189 Zn 0.69637 0.10449 0.36756 0.0
O190 O 0.68505 0.12428 0.52163 0.0
O191 O 0.6717 0.08492 0.44851 0.0
O192 O 0.79151 0.14483 0.48482 0.0
O193 O 0.76024 0.1564 0.54478 0.0
O194 O 0.7439 0.20553 0.47761 0.0
O195 O 0.76019 0.21495 0.37301 0.0
O196 O 0.6991 0.1656 0.28841 0.0
O197 O 0.75699 0.0906 0.37009 0.0
O198 O 0.66912 0.11327 0.30388 0.0
O199 O 0.70898 0.07437 0.32714 0.0
C200 C 0.79251 0.16753 0.27045 0.0
C201 C 0.66818 0.09485 0.50425 0.0
C202 C 0.75866 0.22479 0.4301 0.0
C203 C 0.7841 0.1521 0.53967 0.0
C204 C 0.67331 0.13935 0.27888 0.0
C205 C 0.73309 0.07067 0.33623 0.0
O206 O 0.76798 0.1706 0.26322 0.0
O207 O 0.49038 0.01646 0.31766 0.0
Zn208 Zn 0.46479 0.02123 0.2465 0.0
O209 O 0.47169 0.06441 0.24701 0.0
Zn210 Zn 0.48657 0.08399 0.16155 0.0
Zn211 Zn 0.50216 0.08863 0.31274 0.0
Zn212 Zn 0.4338 0.06338 0.27593 0.0
O213 O 0.45366 0.09454 0.12191 0.0
O214 O 0.41427 0.06846 0.19487 0.0
O215 O 0.47424 0.00863 0.15893 0.0
O216 O 0.48579 0.05148 0.09897 0.0
O217 O 0.53487 0.11698 0.16621 0.0
O218 O 0.54427 0.11019 0.27089 0.0
O219 O 0.49483 0.12181 0.35534 0.0
O220 O 0.42 0.98886 0.27359 0.0
O221 O 0.44252 0.09939 0.33963 0.0
O222 O 0.40368 0.02061 0.31624 0.0
C223 C 0.4969 0.0304 0.37334 0.0
C224 C 0.42423 0.08194 0.13917 0.0
C225 C 0.55412 0.12154 0.2138 0.0
C226 C 0.48152 0.02333 0.1041 0.0
C227 C 0.46856 0.1213 0.36475 0.0
C228 C 0.40002 -0.0072 0.30727 0.0
O229 O 0.49994 0.05799 0.38055 0.0
O230 O 0.96495 0.47061 0.31756 0.0
Zn231 Zn 0.96012 0.44015 0.24655 0.0
O232 O 0.91692 0.40388 0.24707 0.0
Zn233 Zn 0.89733 0.39915 0.1616 0.0
Zn234 Zn 0.89277 0.41022 0.31273 0.0
Zn235 Zn 0.9179 0.36702 0.27618 0.0
O236 O 0.88673 0.35563 0.12211 0.0
O237 O 0.91278 0.34233 0.19522 0.0
O238 O 0.97274 0.4621 0.15891 0.0
O239 O 0.92984 0.43083 0.09897 0.0
O240 O 0.86437 0.4145 0.16619 0.0
O241 O 0.87128 0.43081 0.27082 0.0
O242 O 0.85955 0.36974 0.35536 0.0
O243 O -0.00756 0.4277 0.27387 0.0
O244 O 0.88188 0.33978 0.33986 0.0
O245 O 0.96063 0.37965 0.31665 0.0
C246 C 0.95107 0.46317 0.37328 0.0
C247 C 0.8993 0.33878 0.13949 0.0
C248 C 0.85987 0.42926 0.21373 0.0
C249 C 0.95803 0.45468 0.10407 0.0
C250 C 0.86002 0.34397 0.36489 0.0
C251 C 0.98845 0.40379 0.30769 0.0
O252 O 0.92347 0.43861 0.3805 0.0
O253 O 0.51086 0.49105 0.31805 0.0
Zn254 Zn 0.54127 0.51661 0.24695 0.0
O255 O 0.57751 0.50966 0.24753 0.0
Zn256 Zn 0.5822 0.4948 0.16204 0.0
Zn257 Zn 0.57117 0.47916 0.3132 0.0
Zn258 Zn 0.61439 0.54752 0.27664 0.0
O259 O 0.62572 0.52771 0.12259 0.0
O260 O 0.63906 0.56708 0.1957 0.0
O261 O 0.51925 0.5072 0.15934 0.0
O262 O 0.55052 0.49563 0.09938 0.0
O263 O 0.56683 0.44648 0.1666 0.0
O264 O 0.55054 0.43707 0.27122 0.0
O265 O 0.61165 0.48641 0.35582 0.0
O266 O 0.55377 0.56142 0.27409 0.0
O267 O 0.64163 0.53873 0.34033 0.0
O268 O 0.60177 0.57762 0.31708 0.0
C269 C 0.51827 0.48454 0.37375 0.0
C270 C 0.64259 0.55714 0.13997 0.0
C271 C 0.55206 0.42722 0.21411 0.0
C272 C 0.52666 0.49993 0.10449 0.0
C273 C 0.63744 0.51266 0.36535 0.0
C274 C 0.57767 0.58133 0.30799 0.0
O275 O 0.54279 0.48146 0.38098 0.0
O276 O 0.48738 0.96905 0.65939 0.0
Zn277 Zn 0.51289 0.96415 0.73057 0.0
O278 O 0.5059 0.92093 0.72998 0.0
Zn279 Zn 0.49101 0.90135 0.81541 0.0
Zn280 Zn 0.4754 0.89679 0.66425 0.0
Zn281 Zn 0.54372 0.92189 0.70094 0.0
O282 O 0.52388 0.8907 0.85493 0.0
O283 O 0.56326 0.91674 0.78192 0.0
O284 O 0.50348 0.97675 0.81815 0.0
O285 O 0.49187 0.93387 0.87807 0.0
O286 O 0.44268 0.86843 0.81074 0.0
O287 O 0.43331 0.87536 0.70612 0.0
O288 O 0.48259 0.86352 0.62164 0.0
O289 O 0.55771 -0.00354 0.70352 0.0
O290 O 0.5349 0.88585 0.63722 0.0
O291 O 0.57385 0.96462 0.66053 0.0
C292 C 0.48085 0.95512 0.6037 0.0
C293 C 0.5533 0.90324 0.83762 0.0
C294 C 0.42343 0.86398 0.76319 0.0
C295 C 0.49619 0.96204 0.87298 0.0
C296 C 0.50883 0.86398 0.61216 0.0
C297 C 0.57759 0.99246 0.66962 0.0
O298 O 0.47773 0.92749 0.59647 0.0
O299 O 0.0127 0.51454 0.65934 0.0
Zn300 Zn 0.01743 0.54496 0.73035 0.0
O301 O 0.0606 0.58127 0.72991 0.0
Zn302 Zn 0.08014 0.586 0.81543 0.0
Zn303 Zn 0.08482 0.575 0.66432 0.0
Zn304 Zn 0.05958 0.61812 0.7008 0.0
O305 O 0.09066 0.62948 0.85496 0.0
O306 O 0.06465 0.64277 0.78176 0.0
O307 O 0.00478 0.52297 0.81796 0.0
O308 O 0.04762 0.55429 0.87799 0.0
O309 O 0.11313 0.5707 0.81097 0.0
O310 O 0.10633 0.55444 0.70632 0.0
O311 O 0.11804 0.61552 0.62178 0.0
O312 O 0.98507 0.55736 0.703 0.0
O313 O 0.0956 0.6454 0.63716 0.0
O314 O 0.01683 0.60545 0.66037 0.0
C315 C 0.0266 0.52201 0.60365 0.0
C316 C 0.07808 0.64632 0.83754 0.0
C317 C 0.11768 0.55597 0.76346 0.0
C318 C 0.01946 0.53041 0.87284 0.0
C319 C 0.11752 0.64127 0.61222 0.0
C320 C -0.01098 0.58128 0.6693 0.0
O321 O 0.05418 0.5466 0.59646 0.0
O322 O 0.46658 0.4943 0.65973 0.0
Zn323 Zn 0.43617 0.4687 0.73081 0.0
O324 O 0.3999 0.4756 0.73025 0.0
Zn325 Zn 0.3952 0.49047 0.81573 0.0
Zn326 Zn 0.4062 0.50608 0.66455 0.0
Zn327 Zn 0.36303 0.43772 0.70119 0.0
O328 O 0.3517 0.45753 0.85523 0.0
O329 O 0.33838 0.41816 0.78215 0.0
O330 O 0.45819 0.47812 0.81843 0.0
O331 O 0.42691 0.48969 0.87838 0.0
O332 O 0.41053 0.53878 0.81113 0.0
O333 O 0.42677 0.54819 0.70649 0.0
O334 O 0.3657 0.49877 0.62188 0.0
O335 O 0.42372 0.42391 0.70362 0.0
O336 O 0.33576 0.44644 0.63747 0.0
O337 O 0.37567 0.40761 0.66082 0.0
C338 C 0.45916 0.5008 0.60404 0.0
C339 C 0.33484 0.4281 0.83787 0.0
C340 C 0.42525 0.55805 0.76359 0.0
C341 C 0.45078 0.4854 0.87327 0.0
C342 C 0.33993 0.47249 0.61239 0.0
C343 C 0.39981 0.40394 0.66983 0.0
O344 O 0.43461 0.50384 0.59679 0.0
O345 O 0.15677 0.3495 0.65085 0.0
Zn346 Zn 0.13126 0.35442 0.57973 0.0
O347 O 0.13829 0.39765 0.58034 0.0
Zn348 Zn 0.15316 0.41724 0.49489 0.0
Zn349 Zn 0.16882 0.42179 0.64603 0.0
Zn350 Zn 0.10048 0.39672 0.60945 0.0
O351 O 0.12027 0.42788 0.45542 0.0
O352 O 0.08094 0.4019 0.52854 0.0
O353 O 0.14065 0.34183 0.49211 0.0
O354 O 0.15229 0.38472 0.43221 0.0
O355 O 0.20149 0.45017 0.4995 0.0
O356 O 0.2109 0.44323 0.60409 0.0
O357 O 0.16166 0.45505 0.68873 0.0
O358 O 0.08644 0.32213 0.60681 0.0
O359 O 0.10934 0.43274 0.67323 0.0
O360 O 0.07033 0.35399 0.64981 0.0
C361 C 0.16339 0.36345 0.70652 0.0
C362 C 0.09086 0.41537 0.47282 0.0
C363 C 0.22075 0.45463 0.54702 0.0
C364 C 0.14795 0.35654 0.43729 0.0
C365 C 0.13543 0.4546 0.69829 0.0
C366 C 0.06656 0.32614 0.64071 0.0
O367 O 0.16654 0.39109 0.71376 0.0
O368 O 0.63162 0.80384 0.65126 0.0
Zn369 Zn 0.62676 0.7734 0.58018 0.0
O370 O 0.58355 0.73716 0.58069 0.0
Zn371 Zn 0.564 0.73243 0.49517 0.0
Zn372 Zn 0.55938 0.74351 0.64629 0.0
Zn373 Zn 0.58449 0.70029 0.60985 0.0
O374 O 0.55341 0.68891 0.45571 0.0
O375 O 0.57938 0.67558 0.52893 0.0
O376 O 0.63939 0.79541 0.49257 0.0
O377 O 0.59653 0.76412 0.43257 0.0
O378 O 0.53105 0.74778 0.49964 0.0
O379 O 0.53793 0.76412 0.60425 0.0
O380 O 0.52612 0.70304 0.6889 0.0
O381 O 0.65906 0.76091 0.60743 0.0
O382 O 0.54846 0.67307 0.67349 0.0
O383 O 0.62721 0.71292 0.65038 0.0
C384 C 0.61768 0.79645 0.70692 0.0
C385 C 0.56594 0.67203 0.47316 0.0
C386 C 0.52656 0.76257 0.54713 0.0
C387 C 0.6247 0.78799 0.43771 0.0
C388 C 0.52658 0.67726 0.69846 0.0
C389 C 0.65504 0.73702 0.64135 0.0
O390 O 0.59006 0.77192 0.7141 0.0
O391 O 0.17761 0.82437 0.65077 0.0
Zn392 Zn 0.20797 0.84989 0.57958 0.0
O393 O 0.24424 0.84298 0.58013 0.0
Zn394 Zn 0.2489 0.82806 0.49468 0.0
Zn395 Zn 0.23795 0.81252 0.64588 0.0
Zn396 Zn 0.28112 0.88088 0.60905 0.0
O397 O 0.29239 0.86095 0.45507 0.0
O398 O 0.30574 0.90038 0.52801 0.0
O399 O 0.18591 0.84039 0.49203 0.0
O400 O 0.21718 0.82882 0.43206 0.0
O401 O 0.23355 0.77974 0.49935 0.0
O402 O 0.21737 0.77039 0.60402 0.0
O403 O 0.27846 0.81986 0.6885 0.0
O404 O 0.22045 0.89471 0.60659 0.0
O405 O 0.30841 0.87218 0.67276 0.0
O406 O 0.26852 0.91103 0.64937 0.0
C407 C 0.18498 0.8178 0.70643 0.0
C408 C 0.30926 0.8904 0.47233 0.0
C409 C 0.21885 0.76051 0.54693 0.0
C410 C 0.1933 0.83309 0.43719 0.0
C411 C 0.30425 0.84614 0.6979 0.0
C412 C 0.24438 0.91469 0.64033 0.0
O413 O 0.20953 0.81474 0.71366 0.0
C414 C 0.15369 0.1129 0.90078 0.0
C415 C 0.18173 0.11821 0.86899 0.0
H416 H 0.12944 0.13422 0.94907 0.0
C417 C 0.20487 0.14958 0.85156 0.0
H418 H 0.13601 0.08899 0.91641 0.0
C419 C 0.20197 0.17553 0.87311 0.0
C420 C 0.17535 0.17035 0.91047 0.0
H421 H 0.22709 0.15428 0.82861 0.0
H422 H 0.22146 0.19962 0.86424 0.0
C423 C 0.15025 0.13883 0.92041 0.0
C424 C 0.80563 0.02278 0.87314 0.0
C425 C 0.81084 0.00137 0.91056 0.0
H426 H 0.82682 0.06915 0.82861 0.0
C427 C 0.84237 0.00783 0.92051 0.0
H428 H 0.78154 0.01816 0.86426 0.0
C429 C 0.86827 0.03721 0.90084 0.0
C430 C 0.86293 0.05994 0.86903 0.0
H431 H 0.847 0.99165 0.9492 0.0
H432 H 0.89218 0.04347 0.9165 0.0
C433 C 0.83155 0.05165 0.85156 0.0
C434 C 0.92946 0.77634 0.85142 0.0
C435 C 0.92131 0.79952 0.86897 0.0
H436 H 0.96283 0.75966 0.8639 0.0
C437 C 0.94414 0.82756 0.9007 0.0
H438 H 0.91187 0.75411 0.82851 0.0
C439 C 0.9735 0.83096 0.92021 0.0
C440 C 0.97983 0.80581 0.91018 0.0
H441 H 0.93798 0.84528 0.91642 0.0
H442 H -0.01023 0.85177 0.94884 0.0
C443 C 0.95831 0.77919 0.87283 0.0
C444 C 0.77554 0.80962 0.10476 0.0
C445 C 0.80214 0.81481 0.06735 0.0
H446 H 0.75039 0.83084 0.14924 0.0
C447 C 0.82722 0.84633 0.05738 0.0
H448 H 0.75605 0.78552 0.11366 0.0
C449 C 0.82377 0.87225 0.077 0.0
C450 C 0.79572 0.86694 0.1088 0.0
H451 H 0.84803 0.85094 0.0287 0.0
H452 H 0.84144 0.89616 0.06132 0.0
C453 C 0.77262 0.83556 0.1263 0.0
C454 C 0.13509 0.97719 0.05685 0.0
C455 C 0.1666 0.98356 0.06656 0.0
H456 H 0.08526 0.94164 0.06103 0.0
C457 C 0.17179 0.96207 0.10373 0.0
H458 H 0.13048 -0.00656 0.02836 0.0
C459 C 0.14585 0.93322 0.1253 0.0
C460 C 0.11447 0.92502 0.10808 0.0
H461 H 0.19588 0.96662 0.11243 0.0
H462 H 0.15055 0.91565 0.14806 0.0
C463 C 0.10917 0.94782 0.07652 0.0
C464 C 0.04786 0.20885 0.12557 0.0
C465 C 0.05602 0.18566 0.10818 0.0
H466 H 0.01449 0.22551 0.11291 0.0
C467 C 0.0332 0.15759 0.07648 0.0
H468 H 0.06544 0.23109 0.14845 0.0
C469 C 0.00384 0.15418 0.05689 0.0
C470 C -0.0025 0.17932 0.06679 0.0
H471 H 0.03937 0.13986 0.06087 0.0
H472 H 0.98758 0.13334 0.0283 0.0
C473 C 0.01901 0.20597 0.10408 0.0
C474 C 0.81675 0.47221 0.25365 0.0
C475 C 0.84182 0.50374 0.24374 0.0
H476 H 0.80257 0.4224 0.24957 0.0
C477 C 0.86843 0.50897 0.20628 0.0
H478 H 0.79595 0.46757 0.28237 0.0
C479 C 0.87136 0.48305 0.18465 0.0
C480 C 0.84827 0.45166 0.20209 0.0
H481 H 0.8879 0.53308 0.19743 0.0
H482 H 0.89359 0.4878 0.16167 0.0
C483 C 0.82022 0.44631 0.23392 0.0
C484 C 0.49822 0.385 0.18497 0.0
C485 C 0.52959 0.39322 0.20239 0.0
H486 H 0.44819 0.35157 0.19765 0.0
C487 C 0.53488 0.37045 0.2341 0.0
H488 H 0.49354 0.40255 0.16207 0.0
C489 C 0.50895 0.34107 0.25372 0.0
C490 C 0.47744 0.33468 0.24382 0.0
H491 H 0.55878 0.37666 0.24973 0.0
H492 H 0.51355 0.32485 0.28234 0.0
C493 C 0.47227 0.35614 0.20649 0.0
C494 C 0.61086 0.16113 0.23405 0.0
C495 C 0.58811 0.13308 0.20217 0.0
H496 H 0.65644 0.18538 0.28238 0.0
C497 C 0.59636 0.10997 0.18459 0.0
H498 H 0.60464 0.17879 0.24979 0.0
C499 C 0.62522 0.11289 0.20611 0.0
C500 C 0.64666 0.13949 0.24358 0.0
H501 H 0.57883 0.08775 0.16157 0.0
H502 H 0.62981 0.0934 0.19714 0.0
C503 C 0.64024 0.16458 0.25365 0.0
C504 C 0.49377 0.17958 0.39048 0.0
C505 C 0.46864 0.14805 0.40015 0.0
H506 H 0.50803 0.22941 0.39476 0.0
C507 C 0.44196 0.14282 0.43735 0.0
H508 H 0.51463 0.18423 0.36196 0.0
C509 C 0.43904 0.16875 0.45899 0.0
C510 C 0.46222 0.20015 0.44182 0.0
H511 H 0.42244 0.11872 0.44602 0.0
H512 H 0.41678 0.16401 0.48178 0.0
C513 C 0.49031 0.20549 0.41021 0.0
C514 C 0.8125 0.26703 0.45921 0.0
C515 C 0.78112 0.25879 0.44182 0.0
H516 H 0.86252 0.30047 0.44646 0.0
C517 C 0.77581 0.28155 0.41009 0.0
H518 H 0.81719 0.2495 0.48212 0.0
C519 C 0.80174 0.31092 0.39042 0.0
C520 C 0.83324 0.31733 0.40028 0.0
H521 H 0.75191 0.27533 0.39449 0.0
H522 H 0.79712 0.32713 0.36179 0.0
C523 C 0.83843 0.29588 0.43764 0.0
C524 C 0.68555 0.53916 0.43808 0.0
C525 C 0.66409 0.51253 0.4007 0.0
H526 H 0.73195 0.56432 0.48254 0.0
C527 C 0.67049 0.48742 0.39076 0.0
H528 H 0.68097 0.55866 0.44695 0.0
C529 C 0.69986 0.49087 0.4104 0.0
C530 C 0.72263 0.51894 0.44216 0.0
H531 H 0.65426 0.46659 0.36211 0.0
H532 H 0.70606 0.47318 0.39474 0.0
C533 C 0.7144 0.54207 0.45962 0.0
C534 C 0.48699 0.77973 0.56711 0.0
C535 C 0.51504 0.78503 0.53537 0.0
H536 H 0.46274 0.80106 0.61537 0.0
C537 C 0.53817 0.8164 0.5179 0.0
H538 H 0.4693 0.75583 0.58276 0.0
C539 C 0.53528 0.84235 0.53942 0.0
C540 C 0.50866 0.83718 0.5768 0.0
H541 H 0.5604 0.82109 0.49498 0.0
H542 H 0.55478 0.86644 0.53056 0.0
C543 C 0.48355 0.80567 0.58672 0.0
C544 C 0.17581 0.67438 0.5868 0.0
C545 C 0.14429 0.66794 0.57689 0.0
H546 H 0.22563 0.71 0.58276 0.0
C547 C 0.13908 0.68937 0.5395 0.0
H548 H 0.18044 0.65819 0.61546 0.0
C549 C 0.16501 0.71823 0.51793 0.0
C550 C 0.19639 0.7265 0.53534 0.0
H551 H 0.11499 0.68475 0.53065 0.0
H552 H 0.16029 0.73574 0.49499 0.0
C553 C 0.20172 0.70376 0.56712 0.0
C554 C 0.26295 0.44298 0.51811 0.0
C555 C 0.25474 0.46615 0.53536 0.0
H556 H 0.29636 0.42638 0.531 0.0
C557 C 0.27752 0.49426 0.567 0.0
H558 H 0.24539 0.42071 0.49528 0.0
C559 C 0.30689 0.49772 0.58671 0.0
C560 C 0.31327 0.47259 0.57698 0.0
H561 H 0.27132 0.51197 0.5825 0.0
H562 H 0.32312 0.51858 0.61527 0.0
C563 C 0.2918 0.44591 0.53972 0.0
C564 C 0.15727 0.53884 0.74335 0.0
C565 C 0.12923 0.53354 0.77519 0.0
H566 H 0.18149 0.51752 0.69497 0.0
C567 C 0.10613 0.50217 0.79274 0.0
H568 H 0.17492 0.56275 0.72764 0.0
C569 C 0.10903 0.47622 0.77118 0.0
C570 C 0.13561 0.4814 0.7337 0.0
H571 H 0.08392 0.49747 0.81574 0.0
H572 H 0.08954 0.45213 0.7801 0.0
C573 C 0.1607 0.51291 0.7237 0.0
C574 C 0.46828 0.64417 0.72376 0.0
C575 C 0.49979 0.65061 0.73381 0.0
H576 H 0.41847 0.60853 0.72766 0.0
C577 C 0.50498 0.6292 0.77129 0.0
H578 H 0.46368 0.66035 0.69503 0.0
C579 C 0.47904 0.60034 0.79282 0.0
C580 C 0.44767 0.59206 0.77526 0.0
H581 H 0.52907 0.63382 0.78024 0.0
H582 H 0.48375 0.58283 0.81583 0.0
C583 C 0.44236 0.61479 0.7434 0.0
C584 C 0.36667 0.82439 0.74318 0.0
C585 C 0.38946 0.85249 0.77482 0.0
H586 H 0.32107 0.80006 0.69495 0.0
C587 C 0.38125 0.87566 0.7921 0.0
H588 H 0.37287 0.80667 0.72767 0.0
C589 C 0.3524 0.87273 0.77051 0.0
C590 C 0.33092 0.84605 0.73326 0.0
H591 H 0.3988 0.89793 0.81493 0.0
H592 H 0.34783 0.89225 0.77925 0.0
C593 C 0.3373 0.82092 0.7235 0.0
C594 C 0.14607 0.29345 0.81528 0.0
C595 C 0.14939 0.30684 0.87812 0.0
H596 H 0.14889 0.30111 0.71163 0.0
C597 C 0.15871 0.33938 0.884 0.0
H598 H 0.13926 0.26853 0.80911 0.0
C599 C 0.16473 0.3582 0.82813 0.0
C600 C 0.1614 0.34482 0.76529 0.0
H601 H 0.1619 0.35055 0.93177 0.0
H602 H 0.17153 0.38313 0.83431 0.0
C603 C 0.15209 0.31227 0.7594 0.0
C604 C 0.64184 0.81569 0.88444 0.0
C605 C 0.67438 0.83891 0.87858 0.0
H606 H 0.59806 0.78483 0.83472 0.0
C607 C 0.68774 0.84901 0.81575 0.0
H608 H 0.6307 0.80769 0.9322 0.0
C609 C 0.66889 0.83627 0.75987 0.0
C610 C 0.63634 0.81305 0.76573 0.0
H611 H 0.71266 0.86712 0.80959 0.0
H612 H 0.68003 0.84427 0.7121 0.0
C613 C 0.62299 0.80295 0.82856 0.0
C614 C 0.17832 0.81633 0.82804 0.0
C615 C 0.1683 0.81971 0.76519 0.0
H616 H 0.17341 0.81904 0.93168 0.0
C617 C 0.14505 0.82898 0.75932 0.0
H618 H 0.19645 0.80955 0.83421 0.0
C619 C 0.1322 0.83492 0.8152 0.0
C620 C 0.14223 0.83156 0.87804 0.0
H621 H 0.13711 0.83221 0.71155 0.0
H622 H 0.11407 0.8417 0.80903 0.0
C623 C 0.16547 0.82227 0.88392 0.0
C624 C 0.83136 0.69167 0.16214 0.0
C625 C 0.82803 0.67828 0.09929 0.0
H626 H 0.82853 0.68401 0.26578 0.0
C627 C 0.81869 0.64573 0.09341 0.0
H628 H 0.83818 0.7166 0.16831 0.0
C629 C 0.81265 0.62691 0.14928 0.0
C630 C 0.81598 0.6403 0.21213 0.0
H631 H 0.81548 0.63457 0.04564 0.0
H632 H 0.80583 0.60198 0.1431 0.0
C633 C 0.82532 0.67285 0.21801 0.0
C634 C 0.33552 0.16939 0.09309 0.0
C635 C 0.30299 0.14613 0.09893 0.0
H636 H 0.37924 0.20037 0.14285 0.0
C637 C 0.2896 0.13607 0.16175 0.0
H638 H 0.34668 0.17737 0.04534 0.0
C639 C 0.30841 0.1489 0.21765 0.0
C640 C 0.34095 0.17216 0.21182 0.0
H641 H 0.26469 0.11792 0.16789 0.0
H642 H 0.29725 0.14093 0.26541 0.0
C643 C 0.35433 0.18222 0.14899 0.0
C644 C 0.79904 0.16877 0.14883 0.0
C645 C 0.80914 0.16551 0.21169 0.0
H646 H 0.80382 0.16584 0.0452 0.0
C647 C 0.83239 0.15625 0.21761 0.0
H648 H 0.78091 0.17553 0.14262 0.0
C649 C 0.84517 0.15019 0.16177 0.0
C650 C 0.83506 0.15343 0.09891 0.0
H651 H 0.84039 0.15311 0.2654 0.0
H652 H 0.8633 0.14342 0.16797 0.0
C653 C 0.81182 0.16271 0.09298 0.0
C654 C 0.47962 0.96041 0.48207 0.0
C655 C 0.48288 0.97377 0.54492 0.0
H656 H 0.4825 0.96809 0.37844 0.0
C657 C 0.49216 0.0063 0.55083 0.0
H658 H 0.47285 0.93549 0.47588 0.0
C659 C 0.4982 0.02514 0.49497 0.0
C660 C 0.49492 0.01177 0.43212 0.0
H661 H 0.49531 0.01745 0.59861 0.0
H662 H 0.50496 0.05005 0.50116 0.0
C663 C 0.48565 0.97924 0.42621 0.0
C664 C 0.97537 0.48222 0.55076 0.0
C665 C 0.00791 0.50545 0.54484 0.0
H666 H 0.93156 0.45141 0.50112 0.0
C667 C 0.02122 0.51562 0.48199 0.0
H668 H 0.96427 0.47416 0.59853 0.0
C669 C 0.00232 0.50294 0.42615 0.0
C670 C 0.96978 0.47971 0.43207 0.0
H671 H 0.04613 0.53375 0.4758 0.0
H672 H 0.01342 0.51099 0.37837 0.0
C673 C 0.95648 0.46954 0.49492 0.0
C674 C 0.49903 0.48949 0.55122 0.0
C675 C 0.47578 0.49876 0.54527 0.0
H676 H 0.52993 0.47664 0.5016 0.0
C677 C 0.46566 0.50197 0.48241 0.0
H678 H 0.50704 0.48638 0.59901 0.0
C679 C 0.47842 0.49588 0.42657 0.0
C680 C 0.50167 0.48661 0.43251 0.0
H681 H 0.44752 0.50873 0.47619 0.0
H682 H 0.47041 0.49899 0.37878 0.0
C683 C 0.51179 0.4834 0.49538 0.0
C684 C 0.2384 0.21696 0.26763 0.0
C685 C 0.24454 0.23966 0.21831 0.0
H686 H 0.25843 0.20174 0.34426 0.0
C687 C 0.27547 0.26641 0.21276 0.0
H688 H 0.2147 0.1963 0.27326 0.0
C689 C 0.3001 0.26987 0.25356 0.0
C690 C 0.29466 0.24647 0.30068 0.0
H691 H 0.28085 0.28476 0.17617 0.0
H692 H 0.32372 0.29046 0.24639 0.0
C693 C 0.2634 0.22018 0.30822 0.0
C694 C 0.71156 0.027 0.2531 0.0
C695 C 0.73491 0.04492 0.30037 0.0
H696 H 0.6967 -0.00715 0.17571 0.0
C697 C 0.76113 0.03988 0.30815 0.0
H698 H 0.69103 0.03008 0.24573 0.0
C699 C 0.76434 0.01805 0.26768 0.0
C700 C 0.74168 0.00152 0.21823 0.0
H701 H 0.77954 0.05332 0.34432 0.0
H702 H 0.78494 0.01495 0.27352 0.0
C703 C 0.71501 0.00579 0.21241 0.0
C704 C 0.95411 0.68089 0.25288 0.0
C705 C 0.93643 0.68646 0.30046 0.0
H706 H 0.98799 0.70001 0.17507 0.0
C707 C 0.94162 0.71779 0.30826 0.0
H708 H 0.95089 0.65722 0.24545 0.0
C709 C 0.96338 0.74275 0.26757 0.0
C710 C 0.97968 0.7365 0.21786 0.0
H711 H 0.92836 0.72285 0.34465 0.0
H712 H 0.96662 0.76651 0.27348 0.0
C713 C 0.97523 0.70548 0.21197 0.0
C714 C 0.7389 0.76819 0.71005 0.0
C715 C 0.7327 0.74561 0.75968 0.0
H716 H 0.71891 0.78333 0.63317 0.0
C717 C 0.7017 0.71902 0.76562 0.0
H718 H 0.76265 0.78872 0.7041 0.0
C719 C 0.67707 0.71557 0.72486 0.0
C720 C 0.68258 0.73884 0.67736 0.0
H721 H 0.69627 0.70076 0.80247 0.0
H722 H 0.6534 0.69509 0.73232 0.0
C723 C 0.71389 0.76499 0.6695 0.0
C724 C 0.26603 0.95854 0.72308 0.0
C725 C 0.24255 0.94044 0.67616 0.0
H726 H 0.28098 -0.00722 0.80032 0.0
C727 C 0.21619 0.9453 0.66879 0.0
H728 H 0.28668 0.95561 0.73011 0.0
C729 C 0.21297 0.96708 0.70936 0.0
C730 C 0.23575 0.98376 0.75851 0.0
H731 H 0.19768 0.93172 0.6329 0.0
H732 H 0.19225 0.97002 0.70388 0.0
C733 C 0.26257 0.97971 0.76387 0.0
C734 C 0.01399 0.24232 0.70963 0.0
C735 C -0.0025 0.2485 0.75902 0.0
H736 H 0.0492 0.26231 0.63293 0.0
C737 C 0.00177 0.27946 0.76465 0.0
H738 H 0.01088 0.2186 0.70393 0.0
C739 C 0.02294 0.30408 0.72384 0.0
C740 C 0.04082 0.29859 0.67664 0.0
H741 H -0.01115 0.28487 0.80129 0.0
H742 H 0.02602 0.32771 0.73107 0.0
C743 C 0.03578 0.26731 0.66904 0.0
C744 C 0.90513 0.55004 0.60073 0.0
C745 C 0.91124 0.5728 0.55156 0.0
H746 H 0.92523 0.53471 0.67704 0.0
C747 C 0.94218 0.59952 0.54594 0.0
H748 H 0.88143 0.52939 0.6064 0.0
C749 C 0.96685 0.60292 0.58653 0.0
C750 C 0.96144 0.57947 0.63351 0.0
H751 H 0.94753 0.61791 0.50946 0.0
H752 H -0.00954 0.6235 0.57932 0.0
C753 C 0.93017 0.55319 0.6411 0.0
C754 C 0.43112 0.35143 0.60098 0.0
C755 C 0.40839 0.33483 0.55168 0.0
H756 H 0.44638 0.38675 0.67753 0.0
C757 C 0.38166 0.33902 0.5461 0.0
H758 H 0.45177 0.3484 0.60663 0.0
C759 C 0.37822 0.36021 0.58684 0.0
C760 C 0.40163 0.3782 0.63394 0.0
H761 H 0.36329 0.32601 0.50952 0.0
H762 H 0.35763 0.36322 0.57964 0.0
C763 C 0.42792 0.37324 0.6415 0.0
C764 C 0.63016 0.07632 0.60086 0.0
C765 C 0.64656 0.07014 0.55125 0.0
H766 H 0.59505 0.05631 0.67775 0.0
C767 C 0.64222 0.03916 0.54538 0.0
H768 H 0.63332 0.10005 0.60675 0.0
C769 C 0.62108 0.01453 0.58619 0.0
C770 C 0.6033 0.02001 0.63364 0.0
H771 H 0.65507 0.03375 0.50856 0.0
H772 H 0.61794 0.99088 0.57878 0.0
C773 C 0.6084 0.05131 0.64145 0.0
C774 C 0.34399 0.04859 0.0568 0.0
C775 C 0.3494 0.07201 0.00975 0.0
H776 H 0.36328 0.0337 0.13412 0.0
C777 C 0.38064 0.09832 0.00225 0.0
H778 H 0.32039 0.02797 0.06394 0.0
C779 C 0.40566 0.10156 0.04281 0.0
C780 C 0.39954 0.07884 0.09207 0.0
H781 H 0.3856 0.11679 0.96626 0.0
H782 H 0.42935 0.12224 0.03721 0.0
C783 C 0.36863 0.05207 0.09757 0.0
C784 C 0.88298 0.27888 0.00239 0.0
C785 C 0.90921 0.27385 0.01015 0.0
H786 H 0.85915 0.30377 0.03712 0.0
C787 C 0.93253 0.29172 0.05749 0.0
H788 H 0.8646 0.26547 0.96617 0.0
C789 C 0.92905 0.31288 0.09827 0.0
C790 C 0.90238 0.31715 0.09247 0.0
H791 H 0.95307 0.28864 0.06485 0.0
H792 H 0.94735 0.3258 0.13502 0.0
C793 C 0.87975 0.30067 0.04295 0.0
C794 C 0.70244 0.60066 0.00286 0.0
C795 C 0.70754 0.63196 0.01062 0.0
H796 H 0.6775 0.55193 0.03758 0.0
C797 C 0.68973 0.63745 0.05801 0.0
H798 H 0.7158 0.59566 0.96661 0.0
C799 C 0.66857 0.61282 0.0988 0.0
C800 C 0.66423 0.58184 0.09298 0.0
H801 H 0.69286 0.66109 0.06538 0.0
H802 H 0.65571 0.61823 0.13557 0.0
C803 C 0.68066 0.57566 0.04343 0.0
C804 C 0.5718 0.8836 0.93407 0.0
C805 C 0.57798 0.90628 0.88466 0.0
H806 H 0.59179 0.86838 0.0108 0.0
C807 C 0.60895 0.93295 0.87899 0.0
H808 H 0.54808 0.863 0.9398 0.0
C809 C 0.63357 0.93639 0.91979 0.0
C810 C 0.62808 0.91303 0.96704 0.0
H811 H 0.61436 0.95128 0.84232 0.0
H812 H 0.65721 0.95694 0.91253 0.0
C813 C 0.5968 0.8868 0.97466 0.0
C814 C 0.09745 0.68428 0.93433 0.0
C815 C 0.07493 0.6679 0.88455 0.0
H816 H 0.11246 0.71933 0.01135 0.0
C817 C 0.0483 0.67223 0.87853 0.0
H818 H 0.11801 0.68112 0.94033 0.0
C819 C 0.04476 0.69333 0.91935 0.0
C820 C 0.06797 0.7111 0.96696 0.0
H821 H 0.03009 0.6594 0.84159 0.0
H822 H 0.02426 0.69647 0.91182 0.0
C823 C 0.09415 0.706 0.97493 0.0
C824 C 0.27491 0.38453 0.97481 0.0
C825 C 0.26987 0.35325 0.96712 0.0
H826 H 0.29981 0.43326 0.94006 0.0
C827 C 0.28776 0.3478 0.91989 0.0
H828 H 0.26148 0.38951 0.01095 0.0
C829 C 0.30894 0.37244 0.87915 0.0
C830 C 0.31321 0.4034 0.88488 0.0
H831 H 0.28468 0.32417 0.91258 0.0
H832 H 0.32187 0.36706 0.84248 0.0
C833 C 0.29671 0.40955 0.93429 0.0
C834 C 0.0473 0.43182 0.33591 0.0
C835 C 0.01601 0.40561 0.34363 0.0
H836 H 0.09604 0.45559 0.37061 0.0
C837 C 0.01053 0.38227 0.39091 0.0
H838 H 0.05229 0.45022 0.29975 0.0
C839 C 0.03517 0.3857 0.43164 0.0
C840 C 0.06615 0.41235 0.42586 0.0
H841 H 0.98689 0.36174 0.39825 0.0
H842 H 0.02977 0.36738 0.46833 0.0
C843 C 0.07231 0.43501 0.37642 0.0
C844 C 0.59564 0.64604 0.43215 0.0
C845 C 0.56901 0.65038 0.42621 0.0
H846 H 0.61961 0.62174 0.39887 0.0
C847 C 0.54642 0.63394 0.37659 0.0
H848 H 0.6139 0.65892 0.46899 0.0
C849 C 0.54965 0.61215 0.33606 0.0
C850 C 0.57583 0.60705 0.34394 0.0
H851 H 0.52585 0.6371 0.37065 0.0
H852 H 0.53129 0.59878 0.29975 0.0
C853 C 0.59911 0.62487 0.3914 0.0
C854 C 0.36936 0.93398 0.33568 0.0
C855 C 0.37426 0.96521 0.34307 0.0
H856 H 0.34456 0.88528 0.37066 0.0
C857 C 0.35618 0.97061 0.38994 0.0
H858 H 0.38293 0.92903 0.29983 0.0
C859 C 0.33497 0.94597 0.43064 0.0
C860 C 0.33086 0.91507 0.42525 0.0
H861 H 0.35914 -0.00579 0.39699 0.0
H862 H 0.3219 0.95132 0.46705 0.0
C863 C 0.34754 0.90895 0.37616 0.0
C864 C 0.15073 0.29499 0.32614 0.0
C865 C 0.15891 0.31098 0.26526 0.0
H866 H 0.14085 0.29673 0.42809 0.0
C867 C 0.16341 0.34205 0.26148 0.0
H868 H 0.14708 0.27101 0.33083 0.0
C869 C 0.15982 0.3568 0.31733 0.0
C870 C 0.15165 0.3408 0.37821 0.0
H871 H 0.16971 0.35505 0.21538 0.0
H872 H 0.16348 0.38077 0.31264 0.0
C873 C 0.14715 0.30973 0.38199 0.0
C874 C 0.68626 0.85232 0.3266 0.0
C875 C 0.67028 0.84447 0.26568 0.0
H876 H 0.6845 0.84072 0.42858 0.0
C877 C 0.63921 0.81789 0.26187 0.0
H878 H 0.71024 0.87264 0.33132 0.0
C879 C 0.62446 0.79958 0.31772 0.0
C880 C 0.64044 0.80743 0.37864 0.0
H881 H 0.62623 0.81118 0.21574 0.0
H882 H 0.60049 0.77925 0.31301 0.0
C883 C 0.67151 0.834 0.38246 0.0
C884 C 0.12893 0.83025 0.32608 0.0
C885 C 0.13674 0.82209 0.26518 0.0
H886 H 0.14058 0.84014 0.42805 0.0
C887 C 0.1633 0.81759 0.26138 0.0
H888 H 0.10861 0.8339 0.33079 0.0
C889 C 0.18164 0.82119 0.31723 0.0
C890 C 0.17383 0.82936 0.37813 0.0
H891 H 0.16999 0.8113 0.21527 0.0
H892 H 0.20196 0.81754 0.31253 0.0
C893 C 0.14727 0.83385 0.38193 0.0
C894 C 0.83015 0.6754 0.59543 0.0
C895 C 0.82568 0.64434 0.59923 0.0
H896 H 0.83018 0.7141 0.64657 0.0
C897 C 0.81751 0.62835 0.66012 0.0
H898 H 0.83644 0.68839 0.54933 0.0
C899 C 0.8139 0.64309 0.71596 0.0
C900 C 0.81837 0.67415 0.71216 0.0
H901 H 0.81387 0.60439 0.66482 0.0
H902 H 0.80761 0.6301 0.76206 0.0
C903 C 0.82654 0.69014 0.65127 0.0
C904 C 0.29108 0.13291 0.6509 0.0
C905 C 0.30707 0.14073 0.71181 0.0
H906 H 0.29284 0.14454 0.54895 0.0
C907 C 0.33813 0.1673 0.71564 0.0
H908 H 0.2671 0.11259 0.64618 0.0
C909 C 0.35289 0.18563 0.65981 0.0
C910 C 0.3369 0.1778 0.5989 0.0
H911 H 0.35113 0.174 0.76177 0.0
H912 H 0.37686 0.20595 0.66453 0.0
C913 C 0.30583 0.15124 0.59507 0.0
C914 C 0.83007 0.15126 0.59499 0.0
C915 C 0.80353 0.15578 0.59876 0.0
H916 H 0.86867 0.15112 0.64619 0.0
C917 C 0.79569 0.16392 0.65967 0.0
H918 H 0.83677 0.14498 0.54887 0.0
C919 C 0.814 0.16746 0.71555 0.0
C920 C 0.84054 0.16294 0.71178 0.0
H921 H 0.77539 0.16759 0.66435 0.0
H922 H 0.8073 0.17374 0.76167 0.0
C923 C 0.84837 0.15479 0.65087 0.0
C924 C 0.48077 0.97654 0.04881 0.0
C925 C 0.48525 0.0076 0.04503 0.0
H926 H 0.4807 0.93782 -0.00236 0.0
C927 C 0.49341 0.02359 0.98414 0.0
H928 H 0.47448 0.96355 0.09492 0.0
C929 C 0.49698 0.00885 0.92829 0.0
C930 C 0.49249 0.97778 0.93206 0.0
H931 H 0.49705 0.04756 0.97946 0.0
H932 H 0.50327 0.02184 0.88218 0.0
C933 C 0.48435 0.96179 -0.00704 0.0
C934 C 0.00488 0.50061 0.04875 0.0
C935 C 0.97379 0.47407 0.04496 0.0
H936 H 0.04365 0.53918 -0.00244 0.0
C937 C 0.95782 0.46619 0.98403 0.0
H938 H 0.01786 0.50735 0.09488 0.0
C939 C 0.9726 0.48446 0.92814 0.0
C940 C 0.00369 0.511 0.93192 0.0
H941 H 0.93384 0.44589 0.97934 0.0
H942 H 0.95962 0.47772 0.882 0.0
C943 C 0.01966 0.51888 -0.00714 0.0
C944 C 0.46237 0.49721 -0.00672 0.0
C945 C 0.47022 0.48909 0.93236 0.0
H946 H 0.47396 0.50701 0.09529 0.0
C947 C 0.49677 0.48459 0.92859 0.0
H948 H 0.44206 0.50086 -0.00203 0.0
C949 C 0.51508 0.48813 0.98447 0.0
C950 C 0.50723 0.49625 0.04539 0.0
H951 H 0.50349 0.47833 0.88247 0.0
H952 H 0.53539 0.48448 0.97978 0.0
C953 C 0.48068 0.50075 0.04917 0.0
loop_
_geom_bond_atom_site_label_1
_geom_bond_atom_site_label_2
_geom_bond_distance
_geom_bond_site_symmetry_2
_ccdc_geom_bond_type
O0 Zn1 1.953 1_556 S
O0 C16 1.225 . S
Zn1 O0 1.953 1_554 S
Zn1 O2 1.949 . S
Zn1 O8 1.919 . S
Zn1 O13 1.924 . S
O2 Zn1 1.949 . S
O2 Zn3 1.923 . S
O2 Zn4 1.950 . S
O2 Zn5 1.945 . S
Zn3 O2 1.923 . S
Zn3 O6 1.933 . S
Zn3 O9 1.941 . S
Zn3 O10 1.965 . S
Zn4 O2 1.950 . S
Zn4 O11 1.938 . S
Zn4 O12 1.906 1_554 S
Zn4 O22 1.953 1_554 S
Zn5 O2 1.945 . S
Zn5 O7 1.932 . S
Zn5 O14 1.977 . S
Zn5 O15 1.910 . S
O6 Zn3 1.933 . S
O6 C17 1.226 . S
O7 Zn5 1.932 . S
O7 C17 1.307 . S
O8 Zn1 1.919 . S
O8 C19 1.253 . S
O9 Zn3 1.941 . S
O9 C19 1.283 . S
O10 Zn3 1.965 . S
O10 C18 1.303 . S
O11 Zn4 1.938 . S
O11 C18 1.247 . S
O12 Zn4 1.906 1_556 S
O12 C20 1.304 . S
O13 Zn1 1.924 . S
O13 C21 1.311 . S
O14 Zn5 1.977 . S
O14 C20 1.272 1_554 S
O15 Zn5 1.910 . S
O15 C21 1.231 . S
C16 O0 1.225 . S
C16 O22 1.298 . S
C17 O6 1.226 . S
C17 O7 1.307 . S
C18 O10 1.303 . S
C18 O11 1.247 . S
C19 O8 1.253 . S
C19 O9 1.283 . S
C20 O12 1.304 . S
C20 O14 1.272 1_556 S
C21 O13 1.311 . S
C21 O15 1.231 . S
O22 Zn4 1.953 1_556 S
O22 C16 1.298 . S
O23 Zn24 1.953 1_556 S
O23 C39 1.225 . S
Zn24 O23 1.953 1_554 S
Zn24 O25 1.949 . S
Zn24 O31 1.919 . S
Zn24 O36 1.924 . S
O25 Zn24 1.949 . S
O25 Zn26 1.923 . S
O25 Zn27 1.950 . S
O25 Zn28 1.945 . S
Zn26 O25 1.923 . S
Zn26 O29 1.933 . S
Zn26 O32 1.941 . S
Zn26 O33 1.965 . S
Zn27 O25 1.950 . S
Zn27 O34 1.938 . S
Zn27 O35 1.906 1_554 S
Zn27 O45 1.953 1_554 S
Zn28 O25 1.945 . S
Zn28 O30 1.932 . S
Zn28 O37 1.977 . S
Zn28 O38 1.910 . S
O29 Zn26 1.933 . S
O29 C40 1.226 . S
O30 Zn28 1.932 . S
O30 C40 1.307 . S
O31 Zn24 1.919 . S
O31 C42 1.253 . S
O32 Zn26 1.941 . S
O32 C42 1.283 . S
O33 Zn26 1.965 . S
O33 C41 1.303 . S
O34 Zn27 1.938 . S
O34 C41 1.247 . S
O35 Zn27 1.906 1_556 S
O35 C43 1.304 . S
O36 Zn24 1.924 . S
O36 C44 1.311 . S
O37 Zn28 1.977 . S
O37 C43 1.272 1_554 S
O38 Zn28 1.910 . S
O38 C44 1.231 . S
C39 O23 1.225 . S
C39 O45 1.298 . S
C40 O29 1.226 . S
C40 O30 1.307 . S
C41 O33 1.303 . S
C41 O34 1.247 . S
C42 O31 1.253 . S
C42 O32 1.283 . S
C43 O35 1.304 . S
C43 O37 1.272 1_556 S
C44 O36 1.311 . S
C44 O38 1.231 . S
O45 Zn27 1.953 1_556 S
O45 C39 1.298 . S
O46 Zn47 1.953 1_556 S
O46 C62 1.225 . S
Zn47 O46 1.953 1_554 S
Zn47 O48 1.949 . S
Zn47 O54 1.919 . S
Zn47 O59 1.924 . S
O48 Zn47 1.949 . S
O48 Zn49 1.923 . S
O48 Zn50 1.950 . S
O48 Zn51 1.945 . S
Zn49 O48 1.923 . S
Zn49 O52 1.933 . S
Zn49 O55 1.941 . S
Zn49 O56 1.965 . S
Zn50 O48 1.950 . S
Zn50 O57 1.938 . S
Zn50 O58 1.906 1_554 S
Zn50 O68 1.953 1_554 S
Zn51 O48 1.945 . S
Zn51 O53 1.932 . S
Zn51 O60 1.977 . S
Zn51 O61 1.910 . S
O52 Zn49 1.933 . S
O52 C63 1.226 . S
O53 Zn51 1.932 . S
O53 C63 1.307 . S
O54 Zn47 1.919 . S
O54 C65 1.253 . S
O55 Zn49 1.941 . S
O55 C65 1.283 . S
O56 Zn49 1.965 . S
O56 C64 1.303 . S
O57 Zn50 1.938 . S
O57 C64 1.247 . S
O58 Zn50 1.906 1_556 S
O58 C66 1.304 . S
O59 Zn47 1.924 . S
O59 C67 1.311 . S
O60 Zn51 1.977 . S
O60 C66 1.272 1_554 S
O61 Zn51 1.910 . S
O61 C67 1.231 . S
C62 O46 1.225 . S
C62 O68 1.298 . S
C63 O52 1.226 . S
C63 O53 1.307 . S
C64 O56 1.303 . S
C64 O57 1.247 . S
C65 O54 1.253 . S
C65 O55 1.283 . S
C66 O58 1.304 . S
C66 O60 1.272 1_556 S
C67 O59 1.311 . S
C67 O61 1.231 . S
O68 Zn50 1.953 1_556 S
O68 C62 1.298 . S
O69 Zn70 1.953 1_554 S
O69 C85 1.225 . S
Zn70 O69 1.953 1_556 S
Zn70 O71 1.949 . S
Zn70 O77 1.919 . S
Zn70 O82 1.924 . S
O71 Zn70 1.949 . S
O71 Zn72 1.923 . S
O71 Zn73 1.950 . S
O71 Zn74 1.945 . S
Zn72 O71 1.923 . S
Zn72 O75 1.933 . S
Zn72 O78 1.941 . S
Zn72 O79 1.965 . S
Zn73 O71 1.950 . S
Zn73 O80 1.938 . S
Zn73 O81 1.906 1_556 S
Zn73 O91 1.953 1_556 S
Zn74 O71 1.945 . S
Zn74 O76 1.932 . S
Zn74 O83 1.977 . S
Zn74 O84 1.910 . S
O75 Zn72 1.933 . S
O75 C86 1.226 . S
O76 Zn74 1.932 . S
O76 C86 1.307 . S
O77 Zn70 1.919 . S
O77 C88 1.253 . S
O78 Zn72 1.941 . S
O78 C88 1.283 . S
O79 Zn72 1.965 . S
O79 C87 1.303 . S
O80 Zn73 1.938 . S
O80 C87 1.247 . S
O81 Zn73 1.906 1_554 S
O81 C89 1.304 . S
O82 Zn70 1.924 . S
O82 C90 1.311 . S
O83 Zn74 1.977 . S
O83 C89 1.272 1_556 S
O84 Zn74 1.910 . S
O84 C90 1.231 . S
C85 O69 1.225 . S
C85 O91 1.298 . S
C86 O75 1.226 . S
C86 O76 1.307 . S
C87 O79 1.303 . S
C87 O80 1.247 . S
C88 O77 1.253 . S
C88 O78 1.283 . S
C89 O81 1.304 . S
C89 O83 1.272 1_554 S
C90 O82 1.311 . S
C90 O84 1.231 . S
O91 Zn73 1.953 1_554 S
O91 C85 1.298 . S
O92 Zn93 1.953 1_554 S
O92 C108 1.225 . S
Zn93 O92 1.953 1_556 S
Zn93 O94 1.949 . S
Zn93 O100 1.919 . S
Zn93 O105 1.924 . S
O94 Zn93 1.949 . S
O94 Zn95 1.923 . S
O94 Zn96 1.950 . S
O94 Zn97 1.945 . S
Zn95 O94 1.923 . S
Zn95 O98 1.933 . S
Zn95 O101 1.941 . S
Zn95 O102 1.965 . S
Zn96 O94 1.950 . S
Zn96 O103 1.938 . S
Zn96 O104 1.906 1_556 S
Zn96 O114 1.953 1_556 S
Zn97 O94 1.945 . S
Zn97 O99 1.932 . S
Zn97 O106 1.977 . S
Zn97 O107 1.910 . S
O98 Zn95 1.933 . S
O98 C109 1.226 . S
O99 Zn97 1.932 . S
O99 C109 1.307 . S
O100 Zn93 1.919 . S
O100 C111 1.253 . S
O101 Zn95 1.941 . S
O101 C111 1.283 . S
O102 Zn95 1.965 . S
O102 C110 1.303 . S
O103 Zn96 1.938 . S
O103 C110 1.247 . S
O104 Zn96 1.906 1_554 S
O104 C112 1.304 . S
O105 Zn93 1.924 . S
O105 C113 1.311 . S
O106 Zn97 1.977 . S
O106 C112 1.272 1_556 S
O107 Zn97 1.910 . S
O107 C113 1.231 . S
C108 O92 1.225 . S
C108 O114 1.298 . S
C109 O98 1.226 . S
C109 O99 1.307 . S
C110 O102 1.303 . S
C110 O103 1.247 . S
C111 O100 1.253 . S
C111 O101 1.283 . S
C112 O104 1.304 . S
C112 O106 1.272 1_554 S
C113 O105 1.311 . S
C113 O107 1.231 . S
O114 Zn96 1.953 1_554 S
O114 C108 1.298 . S
O115 Zn116 1.953 1_554 S
O115 C131 1.225 . S
Zn116 O115 1.953 1_556 S
Zn116 O117 1.949 . S
Zn116 O123 1.919 . S
Zn116 O128 1.924 . S
O117 Zn116 1.949 . S
O117 Zn118 1.923 . S
O117 Zn119 1.950 . S
O117 Zn120 1.945 . S
Zn118 O117 1.923 . S
Zn118 O121 1.933 . S
Zn118 O124 1.941 . S
Zn118 O125 1.965 . S
Zn119 O117 1.950 . S
Zn119 O126 1.938 . S
Zn119 O127 1.906 1_556 S
Zn119 O137 1.953 1_556 S
Zn120 O117 1.945 . S
Zn120 O122 1.932 . S
Zn120 O129 1.977 . S
Zn120 O130 1.910 . S
O121 Zn118 1.933 . S
O121 C132 1.226 . S
O122 Zn120 1.932 . S
O122 C132 1.307 . S
O123 Zn116 1.919 . S
O123 C134 1.253 . S
O124 Zn118 1.941 . S
O124 C134 1.283 . S
O125 Zn118 1.965 . S
O125 C133 1.303 . S
O126 Zn119 1.938 . S
O126 C133 1.247 . S
O127 Zn119 1.906 1_554 S
O127 C135 1.304 . S
O128 Zn116 1.924 . S
O128 C136 1.311 . S
O129 Zn120 1.977 . S
O129 C135 1.272 1_556 S
O130 Zn120 1.910 . S
O130 C136 1.231 . S
C131 O115 1.225 . S
C131 O137 1.298 . S
C132 O121 1.226 . S
C132 O122 1.307 . S
C133 O125 1.303 . S
C133 O126 1.247 . S
C134 O123 1.253 . S
C134 O124 1.283 . S
C135 O127 1.304 . S
C135 O129 1.272 1_554 S
C136 O128 1.311 . S
C136 O130 1.231 . S
O137 Zn119 1.953 1_554 S
O137 C131 1.298 . S
O138 Zn139 1.953 . S
O138 C154 1.225 . S
Zn139 O138 1.953 . S
Zn139 O140 1.949 . S
Zn139 O146 1.919 . S
Zn139 O151 1.924 . S
O140 Zn139 1.949 . S
O140 Zn141 1.923 . S
O140 Zn142 1.950 . S
O140 Zn143 1.945 . S
Zn141 O140 1.923 . S
Zn141 O144 1.933 . S
Zn141 O147 1.941 . S
Zn141 O148 1.965 . S
Zn142 O140 1.950 . S
Zn142 O149 1.938 . S
Zn142 O150 1.906 . S
Zn142 O160 1.953 . S
Zn143 O140 1.945 . S
Zn143 O145 1.932 . S
Zn143 O152 1.977 . S
Zn143 O153 1.910 . S
O144 Zn141 1.933 . S
O144 C155 1.226 . S
O145 Zn143 1.932 . S
O145 C155 1.307 . S
O146 Zn139 1.919 . S
O146 C157 1.253 . S
O147 Zn141 1.941 . S
O147 C157 1.283 . S
O148 Zn141 1.965 . S
O148 C156 1.303 . S
O149 Zn142 1.938 . S
O149 C156 1.247 . S
O150 Zn142 1.906 . S
O150 C158 1.304 . S
O151 Zn139 1.924 . S
O151 C159 1.311 . S
O152 Zn143 1.977 . S
O152 C158 1.272 . S
O153 Zn143 1.910 . S
O153 C159 1.231 . S
C154 O138 1.225 . S
C154 O160 1.298 . S
C155 O144 1.226 . S
C155 O145 1.307 . S
C156 O148 1.303 . S
C156 O149 1.247 . S
C157 O146 1.253 . S
C157 O147 1.283 . S
C158 O150 1.304 . S
C158 O152 1.272 . S
C159 O151 1.311 . S
C159 O153 1.231 . S
O160 Zn142 1.953 . S
O160 C154 1.298 . S
O161 Zn162 1.953 . S
O161 C177 1.225 . S
Zn162 O161 1.953 . S
Zn162 O163 1.949 . S
Zn162 O169 1.919 . S
Zn162 O174 1.924 . S
O163 Zn162 1.949 . S
O163 Zn164 1.923 . S
O163 Zn165 1.950 . S
O163 Zn166 1.945 . S
Zn164 O163 1.923 . S
Zn164 O167 1.933 . S
Zn164 O170 1.941 . S
Zn164 O171 1.965 . S
Zn165 O163 1.950 . S
Zn165 O172 1.938 . S
Zn165 O173 1.906 . S
Zn165 O183 1.953 . S
Zn166 O163 1.945 . S
Zn166 O168 1.932 . S
Zn166 O175 1.977 . S
Zn166 O176 1.910 . S
O167 Zn164 1.933 . S
O167 C178 1.226 . S
O168 Zn166 1.932 . S
O168 C178 1.307 . S
O169 Zn162 1.919 . S
O169 C180 1.253 . S
O170 Zn164 1.941 . S
O170 C180 1.283 . S
O171 Zn164 1.965 . S
O171 C179 1.303 . S
O172 Zn165 1.938 . S
O172 C179 1.247 . S
O173 Zn165 1.906 . S
O173 C181 1.304 . S
O174 Zn162 1.924 . S
O174 C182 1.311 . S
O175 Zn166 1.977 . S
O175 C181 1.272 . S
O176 Zn166 1.910 . S
O176 C182 1.231 . S
C177 O161 1.225 . S
C177 O183 1.298 . S
C178 O167 1.226 . S
C178 O168 1.307 . S
C179 O171 1.303 . S
C179 O172 1.247 . S
C180 O169 1.253 . S
C180 O170 1.283 . S
C181 O173 1.304 . S
C181 O175 1.272 . S
C182 O174 1.311 . S
C182 O176 1.231 . S
O183 Zn165 1.953 . S
O183 C177 1.298 . S
O184 Zn185 1.953 . S
O184 C200 1.225 . S
Zn185 O184 1.953 . S
Zn185 O186 1.949 . S
Zn185 O192 1.919 . S
Zn185 O197 1.924 . S
O186 Zn185 1.949 . S
O186 Zn187 1.923 . S
O186 Zn188 1.950 . S
O186 Zn189 1.945 . S
Zn187 O186 1.923 . S
Zn187 O190 1.933 . S
Zn187 O193 1.941 . S
Zn187 O194 1.965 . S
Zn188 O186 1.950 . S
Zn188 O195 1.938 . S
Zn188 O196 1.906 . S
Zn188 O206 1.953 . S
Zn189 O186 1.945 . S
Zn189 O191 1.932 . S
Zn189 O198 1.977 . S
Zn189 O199 1.910 . S
O190 Zn187 1.933 . S
O190 C201 1.226 . S
O191 Zn189 1.932 . S
O191 C201 1.307 . S
O192 Zn185 1.919 . S
O192 C203 1.253 . S
O193 Zn187 1.941 . S
O193 C203 1.283 . S
O194 Zn187 1.965 . S
O194 C202 1.303 . S
O195 Zn188 1.938 . S
O195 C202 1.247 . S
O196 Zn188 1.906 . S
O196 C204 1.304 . S
O197 Zn185 1.924 . S
O197 C205 1.311 . S
O198 Zn189 1.977 . S
O198 C204 1.272 . S
O199 Zn189 1.910 . S
O199 C205 1.231 . S
C200 O184 1.225 . S
C200 O206 1.298 . S
C201 O190 1.226 . S
C201 O191 1.307 . S
C202 O194 1.303 . S
C202 O195 1.247 . S
C203 O192 1.253 . S
C203 O193 1.283 . S
C204 O196 1.304 . S
C204 O198 1.272 . S
C205 O197 1.311 . S
C205 O199 1.231 . S
O206 Zn188 1.953 . S
O206 C200 1.298 . S
O207 Zn208 1.953 . S
O207 C223 1.225 . S
Zn208 O207 1.953 . S
Zn208 O209 1.949 . S
Zn208 O215 1.910 1_545 S
Zn208 O220 1.924 1_545 S
O209 Zn208 1.949 . S
O209 Zn210 1.923 . S
O209 Zn211 1.950 . S
O209 Zn212 1.945 . S
Zn210 O209 1.923 . S
Zn210 O213 1.933 . S
Zn210 O216 1.941 . S
Zn210 O217 1.965 . S
Zn211 O209 1.950 . S
Zn211 O218 1.938 . S
Zn211 O219 1.906 . S
Zn211 O229 1.953 . S
Zn212 O209 1.945 . S
Zn212 O214 1.932 . S
Zn212 O221 1.977 . S
Zn212 O222 1.910 . S
O213 Zn210 1.933 . S
O213 C224 1.226 . S
O214 Zn212 1.932 . S
O214 C224 1.307 . S
O215 Zn208 1.910 1_565 S
O215 C226 1.248 1_565 S
O216 Zn210 1.941 . S
O216 C226 1.283 . S
O217 Zn210 1.965 . S
O217 C225 1.303 . S
O218 Zn211 1.938 . S
O218 C225 1.247 . S
O219 Zn211 1.906 . S
O219 C227 1.304 . S
O220 Zn208 1.924 1_565 S
O220 C228 1.311 . S
O221 Zn212 1.977 . S
O221 C227 1.272 . S
O222 Zn212 1.910 . S
O222 C228 1.231 1_545 S
C223 O207 1.225 . S
C223 O229 1.298 . S
C224 O213 1.226 . S
C224 O214 1.307 . S
C225 O217 1.303 . S
C225 O218 1.247 . S
C226 O215 1.248 1_545 S
C226 O216 1.283 . S
C227 O219 1.304 . S
C227 O221 1.272 . S
C228 O220 1.311 . S
C228 O222 1.231 1_565 S
O229 Zn211 1.953 . S
O229 C223 1.298 . S
O230 Zn231 1.953 . S
O230 C246 1.225 . S
Zn231 O230 1.953 . S
Zn231 O232 1.949 . S
Zn231 O238 1.917 1_655 S
Zn231 O243 1.924 1_655 S
O232 Zn231 1.949 . S
O232 Zn233 1.923 . S
O232 Zn234 1.950 . S
O232 Zn235 1.945 . S
Zn233 O232 1.923 . S
Zn233 O236 1.933 . S
Zn233 O239 1.941 . S
Zn233 O240 1.965 . S
Zn234 O232 1.950 . S
Zn234 O241 1.938 . S
Zn234 O242 1.906 . S
Zn234 O252 1.953 . S
Zn235 O232 1.945 . S
Zn235 O237 1.932 . S
Zn235 O244 1.977 . S
Zn235 O245 1.910 . S
O236 Zn233 1.933 . S
O236 C247 1.226 . S
O237 Zn235 1.932 . S
O237 C247 1.307 . S
O238 Zn231 1.917 1_455 S
O238 C249 1.245 1_455 S
O239 Zn233 1.941 . S
O239 C249 1.283 . S
O240 Zn233 1.965 . S
O240 C248 1.303 . S
O241 Zn234 1.938 . S
O241 C248 1.247 . S
O242 Zn234 1.906 . S
O242 C250 1.304 . S
O243 Zn231 1.924 1_455 S
O243 C251 1.311 . S
O244 Zn235 1.977 . S
O244 C250 1.272 . S
O245 Zn235 1.910 . S
O245 C251 1.231 1_655 S
C246 O230 1.225 . S
C246 O252 1.298 . S
C247 O236 1.226 . S
C247 O237 1.307 . S
C248 O240 1.303 . S
C248 O241 1.247 . S
C249 O238 1.245 1_655 S
C249 O239 1.283 . S
C250 O242 1.304 . S
C250 O244 1.272 . S
C251 O243 1.311 . S
C251 O245 1.231 1_455 S
O252 Zn234 1.953 . S
O252 C246 1.298 . S
O253 Zn254 1.953 . S
O253 C269 1.225 . S
Zn254 O253 1.953 . S
Zn254 O255 1.949 . S
Zn254 O261 1.919 . S
Zn254 O266 1.924 . S
O255 Zn254 1.949 . S
O255 Zn256 1.923 . S
O255 Zn257 1.950 . S
O255 Zn258 1.945 . S
Zn256 O255 1.923 . S
Zn256 O259 1.933 . S
Zn256 O262 1.941 . S
Zn256 O263 1.965 . S
Zn257 O255 1.950 . S
Zn257 O264 1.938 . S
Zn257 O265 1.906 . S
Zn257 O275 1.953 . S
Zn258 O255 1.945 . S
Zn258 O260 1.932 . S
Zn258 O267 1.977 . S
Zn258 O268 1.910 . S
O259 Zn256 1.933 . S
O259 C270 1.226 . S
O260 Zn258 1.932 . S
O260 C270 1.307 . S
O261 Zn254 1.919 . S
O261 C272 1.253 . S
O262 Zn256 1.941 . S
O262 C272 1.283 . S
O263 Zn256 1.965 . S
O263 C271 1.303 . S
O264 Zn257 1.938 . S
O264 C271 1.247 . S
O265 Zn257 1.906 . S
O265 C273 1.304 . S
O266 Zn254 1.924 . S
O266 C274 1.311 . S
O267 Zn258 1.977 . S
O267 C273 1.272 . S
O268 Zn258 1.910 . S
O268 C274 1.231 . S
C269 O253 1.225 . S
C269 O275 1.298 . S
C270 O259 1.226 . S
C270 O260 1.307 . S
C271 O263 1.303 . S
C271 O264 1.247 . S
C272 O261 1.253 . S
C272 O262 1.283 . S
C273 O265 1.304 . S
C273 O267 1.272 . S
C274 O266 1.311 . S
C274 O268 1.231 . S
O275 Zn257 1.953 . S
O275 C269 1.298 . S
O276 Zn277 1.953 . S
O276 C292 1.225 . S
Zn277 O276 1.953 . S
Zn277 O278 1.949 . S
Zn277 O284 1.910 1_565 S
Zn277 O289 1.924 1_565 S
O278 Zn277 1.949 . S
O278 Zn279 1.923 . S
O278 Zn280 1.950 . S
O278 Zn281 1.945 . S
Zn279 O278 1.923 . S
Zn279 O282 1.933 . S
Zn279 O285 1.941 . S
Zn279 O286 1.965 . S
Zn280 O278 1.950 . S
Zn280 O287 1.938 . S
Zn280 O288 1.906 . S
Zn280 O298 1.953 . S
Zn281 O278 1.945 . S
Zn281 O283 1.932 . S
Zn281 O290 1.977 . S
Zn281 O291 1.910 . S
O282 Zn279 1.933 . S
O282 C293 1.226 . S
O283 Zn281 1.932 . S
O283 C293 1.307 . S
O284 Zn277 1.910 1_545 S
O284 C295 1.248 1_545 S
O285 Zn279 1.941 . S
O285 C295 1.283 . S
O286 Zn279 1.965 . S
O286 C294 1.303 . S
O287 Zn280 1.938 . S
O287 C294 1.247 . S
O288 Zn280 1.906 . S
O288 C296 1.304 . S
O289 Zn277 1.924 1_545 S
O289 C297 1.311 . S
O290 Zn281 1.977 . S
O290 C296 1.272 . S
O291 Zn281 1.910 . S
O291 C297 1.231 1_565 S
C292 O276 1.225 . S
C292 O298 1.298 . S
C293 O282 1.226 . S
C293 O283 1.307 . S
C294 O286 1.303 . S
C294 O287 1.247 . S
C295 O284 1.248 1_565 S
C295 O285 1.283 . S
C296 O288 1.304 . S
C296 O290 1.272 . S
C297 O289 1.311 . S
C297 O291 1.231 1_545 S
O298 Zn280 1.953 . S
O298 C292 1.298 . S
O299 Zn300 1.953 . S
O299 C315 1.225 . S
Zn300 O299 1.953 . S
Zn300 O301 1.949 . S
Zn300 O307 1.917 1_455 S
Zn300 O312 1.924 1_455 S
O301 Zn300 1.949 . S
O301 Zn302 1.923 . S
O301 Zn303 1.950 . S
O301 Zn304 1.945 . S
Zn302 O301 1.923 . S
Zn302 O305 1.933 . S
Zn302 O308 1.941 . S
Zn302 O309 1.965 . S
Zn303 O301 1.950 . S
Zn303 O310 1.938 . S
Zn303 O311 1.906 . S
Zn303 O321 1.953 . S
Zn304 O301 1.945 . S
Zn304 O306 1.932 . S
Zn304 O313 1.977 . S
Zn304 O314 1.910 . S
O305 Zn302 1.933 . S
O305 C316 1.226 . S
O306 Zn304 1.932 . S
O306 C316 1.307 . S
O307 Zn300 1.917 1_655 S
O307 C318 1.245 1_655 S
O308 Zn302 1.941 . S
O308 C318 1.283 . S
O309 Zn302 1.965 . S
O309 C317 1.303 . S
O310 Zn303 1.938 . S
O310 C317 1.247 . S
O311 Zn303 1.906 . S
O311 C319 1.304 . S
O312 Zn300 1.924 1_655 S
O312 C320 1.311 . S
O313 Zn304 1.977 . S
O313 C319 1.272 . S
O314 Zn304 1.910 . S
O314 C320 1.231 1_455 S
C315 O299 1.225 . S
C315 O321 1.298 . S
C316 O305 1.226 . S
C316 O306 1.307 . S
C317 O309 1.303 . S
C317 O310 1.247 . S
C318 O307 1.245 1_455 S
C318 O308 1.283 . S
C319 O311 1.304 . S
C319 O313 1.272 . S
C320 O312 1.311 . S
C320 O314 1.231 1_655 S
O321 Zn303 1.953 . S
O321 C315 1.298 . S
O322 Zn323 1.953 . S
O322 C338 1.225 . S
Zn323 O322 1.953 . S
Zn323 O324 1.949 . S
Zn323 O330 1.919 . S
Zn323 O335 1.924 . S
O324 Zn323 1.949 . S
O324 Zn325 1.923 . S
O324 Zn326 1.950 . S
O324 Zn327 1.945 . S
Zn325 O324 1.923 . S
Zn325 O328 1.933 . S
Zn325 O331 1.941 . S
Zn325 O332 1.965 . S
Zn326 O324 1.950 . S
Zn326 O333 1.938 . S
Zn326 O334 1.906 . S
Zn326 O344 1.953 . S
Zn327 O324 1.945 . S
Zn327 O329 1.932 . S
Zn327 O336 1.977 . S
Zn327 O337 1.910 . S
O328 Zn325 1.933 . S
O328 C339 1.226 . S
O329 Zn327 1.932 . S
O329 C339 1.307 . S
O330 Zn323 1.919 . S
O330 C341 1.253 . S
O331 Zn325 1.941 . S
O331 C341 1.283 . S
O332 Zn325 1.965 . S
O332 C340 1.303 . S
O333 Zn326 1.938 . S
O333 C340 1.247 . S
O334 Zn326 1.906 . S
O334 C342 1.304 . S
O335 Zn323 1.924 . S
O335 C343 1.311 . S
O336 Zn327 1.977 . S
O336 C342 1.272 . S
O337 Zn327 1.910 . S
O337 C343 1.231 . S
C338 O322 1.225 . S
C338 O344 1.298 . S
C339 O328 1.226 . S
C339 O329 1.307 . S
C340 O332 1.303 . S
C340 O333 1.247 . S
C341 O330 1.253 . S
C341 O331 1.283 . S
C342 O334 1.304 . S
C342 O336 1.272 . S
C343 O335 1.311 . S
C343 O337 1.231 . S
O344 Zn326 1.953 . S
O344 C338 1.298 . S
O345 Zn346 1.953 . S
O345 C361 1.225 . S
Zn346 O345 1.953 . S
Zn346 O347 1.949 . S
Zn346 O353 1.919 . S
Zn346 O358 1.924 . S
O347 Zn346 1.949 . S
O347 Zn348 1.923 . S
O347 Zn349 1.950 . S
O347 Zn350 1.945 . S
Zn348 O347 1.923 . S
Zn348 O351 1.933 . S
Zn348 O354 1.941 . S
Zn348 O355 1.965 . S
Zn349 O347 1.950 . S
Zn349 O356 1.938 . S
Zn349 O357 1.906 . S
Zn349 O367 1.953 . S
Zn350 O347 1.945 . S
Zn350 O352 1.932 . S
Zn350 O359 1.977 . S
Zn350 O360 1.910 . S
O351 Zn348 1.933 . S
O351 C362 1.226 . S
O352 Zn350 1.932 . S
O352 C362 1.307 . S
O353 Zn346 1.919 . S
O353 C364 1.253 . S
O354 Zn348 1.941 . S
O354 C364 1.283 . S
O355 Zn348 1.965 . S
O355 C363 1.303 . S
O356 Zn349 1.938 . S
O356 C363 1.247 . S
O357 Zn349 1.906 . S
O357 C365 1.304 . S
O358 Zn346 1.924 . S
O358 C366 1.311 . S
O359 Zn350 1.977 . S
O359 C365 1.272 . S
O360 Zn350 1.910 . S
O360 C366 1.231 . S
C361 O345 1.225 . S
C361 O367 1.298 . S
C362 O351 1.226 . S
C362 O352 1.307 . S
C363 O355 1.303 . S
C363 O356 1.247 . S
C364 O353 1.253 . S
C364 O354 1.283 . S
C365 O357 1.304 . S
C365 O359 1.272 . S
C366 O358 1.311 . S
C366 O360 1.231 . S
O367 Zn349 1.953 . S
O367 C361 1.298 . S
O368 Zn369 1.953 . S
O368 C384 1.225 . S
Zn369 O368 1.953 . S
Zn369 O370 1.949 . S
Zn369 O376 1.919 . S
Zn369 O381 1.924 . S
O370 Zn369 1.949 . S
O370 Zn371 1.923 . S
O370 Zn372 1.950 . S
O370 Zn373 1.945 . S
Zn371 O370 1.923 . S
Zn371 O374 1.933 . S
Zn371 O377 1.941 . S
Zn371 O378 1.965 . S
Zn372 O370 1.950 . S
Zn372 O379 1.938 . S
Zn372 O380 1.906 . S
Zn372 O390 1.953 . S
Zn373 O370 1.945 . S
Zn373 O375 1.932 . S
Zn373 O382 1.977 . S
Zn373 O383 1.910 . S
O374 Zn371 1.933 . S
O374 C385 1.226 . S
O375 Zn373 1.932 . S
O375 C385 1.307 . S
O376 Zn369 1.919 . S
O376 C387 1.253 . S
O377 Zn371 1.941 . S
O377 C387 1.283 . S
O378 Zn371 1.965 . S
O378 C386 1.303 . S
O379 Zn372 1.938 . S
O379 C386 1.247 . S
O380 Zn372 1.906 . S
O380 C388 1.304 . S
O381 Zn369 1.924 . S
O381 C389 1.311 . S
O382 Zn373 1.977 . S
O382 C388 1.272 . S
O383 Zn373 1.910 . S
O383 C389 1.231 . S
C384 O368 1.225 . S
C384 O390 1.298 . S
C385 O374 1.226 . S
C385 O375 1.307 . S
C386 O378 1.303 . S
C386 O379 1.247 . S
C387 O376 1.253 . S
C387 O377 1.283 . S
C388 O380 1.304 . S
C388 O382 1.272 . S
C389 O381 1.311 . S
C389 O383 1.231 . S
O390 Zn372 1.953 . S
O390 C384 1.298 . S
O391 Zn392 1.953 . S
O391 C407 1.225 . S
Zn392 O391 1.953 . S
Zn392 O393 1.949 . S
Zn392 O399 1.919 . S
Zn392 O404 1.924 . S
O393 Zn392 1.949 . S
O393 Zn394 1.923 . S
O393 Zn395 1.950 . S
O393 Zn396 1.945 . S
Zn394 O393 1.923 . S
Zn394 O397 1.933 . S
Zn394 O400 1.941 . S
Zn394 O401 1.965 . S
Zn395 O393 1.950 . S
Zn395 O402 1.938 . S
Zn395 O403 1.906 . S
Zn395 O413 1.953 . S
Zn396 O393 1.945 . S
Zn396 O398 1.932 . S
Zn396 O405 1.977 . S
Zn396 O406 1.910 . S
O397 Zn394 1.933 . S
O397 C408 1.226 . S
O398 Zn396 1.932 . S
O398 C408 1.307 . S
O399 Zn392 1.919 . S
O399 C410 1.253 . S
O400 Zn394 1.941 . S
O400 C410 1.283 . S
O401 Zn394 1.965 . S
O401 C409 1.303 . S
O402 Zn395 1.938 . S
O402 C409 1.247 . S
O403 Zn395 1.906 . S
O403 C411 1.304 . S
O404 Zn392 1.924 . S
O404 C412 1.311 . S
O405 Zn396 1.977 . S
O405 C411 1.272 . S
O406 Zn396 1.910 . S
O406 C412 1.231 . S
C407 O391 1.225 . S
C407 O413 1.298 . S
C408 O397 1.226 . S
C408 O398 1.307 . S
C409 O401 1.303 . S
C409 O402 1.247 . S
C410 O399 1.253 . S
C410 O400 1.283 . S
C411 O403 1.304 . S
C411 O405 1.272 . S
C412 O404 1.311 . S
C412 O406 1.231 . S
O413 Zn395 1.953 . S
O413 C407 1.298 . S
C414 C415 1.387 . S
C414 H418 0.950 1_556 S
C414 C423 1.390 1_556 S
C415 C414 1.387 . S
C415 C417 1.387 . S
H416 C423 0.950 . S
C417 C415 1.387 . S
C417 C419 1.390 . S
C417 H421 0.950 . S
H418 C414 0.950 1_554 S
C419 C417 1.390 . S
C419 C420 1.387 . S
C419 H422 0.950 . S
C420 C419 1.387 . S
C420 C423 1.387 1_556 S
H421 C417 0.950 . S
H422 C419 0.950 . S
C423 C414 1.390 1_554 S
C423 H416 0.950 . S
C423 C420 1.387 1_554 S
C424 C425 1.387 1_554 S
C424 H428 0.950 . S
C424 C433 1.390 1_554 S
C425 C424 1.387 1_556 S
C425 C427 1.387 . S
H426 C433 0.950 1_554 S
C427 C425 1.387 . S
C427 C429 1.390 . S
C427 H431 0.950 1_545 S
H428 C424 0.950 . S
C429 C427 1.390 . S
C429 C430 1.387 . S
C429 H432 0.950 . S
C430 C429 1.387 . S
C430 C433 1.387 . S
H431 C427 0.950 1_565 S
H432 C429 0.950 . S
C433 C424 1.390 1_556 S
C433 H426 0.950 1_556 S
C433 C430 1.387 . S
C434 C435 1.387 . S
C434 H438 0.950 . S
C434 C443 1.390 . S
C435 C434 1.387 . S
C435 C437 1.387 . S
H436 C443 0.950 . S
C437 C435 1.387 . S
C437 C439 1.390 . S
C437 H441 0.950 . S
H438 C434 0.950 . S
C439 C437 1.390 . S
C439 C440 1.387 . S
C439 H442 0.950 1_655 S
C440 C439 1.387 . S
C440 C443 1.387 . S
H441 C437 0.950 . S
H442 C439 0.950 1_455 S
C443 C434 1.390 . S
C443 H436 0.950 . S
C443 C440 1.387 . S
C444 C445 1.387 . S
C444 H448 0.950 . S
C444 C453 1.390 . S
C445 C444 1.387 . S
C445 C447 1.387 1_554 S
H446 C453 0.950 . S
C447 C445 1.387 1_556 S
C447 C449 1.390 1_556 S
C447 H451 0.950 . S
H448 C444 0.950 . S
C449 C447 1.390 1_554 S
C449 C450 1.387 . S
C449 H452 0.950 1_554 S
C450 C449 1.387 . S
C450 C453 1.387 . S
H451 C447 0.950 . S
H452 C449 0.950 1_556 S
C453 C444 1.390 . S
C453 H446 0.950 . S
C453 C450 1.387 . S
C454 C455 1.387 1_556 S
C454 H458 0.950 . S
C454 C463 1.390 1_556 S
C455 C454 1.387 1_554 S
C455 C457 1.387 . S
H456 C463 0.950 1_556 S
C457 C455 1.387 . S
C457 C459 1.390 . S
C457 H461 0.950 . S
H458 C454 0.950 . S
C459 C457 1.390 . S
C459 C460 1.387 . S
C459 H462 0.950 . S
C460 C459 1.387 . S
C460 C463 1.387 . S
H461 C457 0.950 . S
H462 C459 0.950 . S
C463 C454 1.390 1_554 S
C463 H456 0.950 1_554 S
C463 C460 1.387 . S
C464 C465 1.387 . S
C464 H468 0.950 . S
C464 C473 1.390 . S
C465 C464 1.387 . S
C465 C467 1.387 . S
H466 C473 0.950 . S
C467 C465 1.387 . S
C467 C469 1.390 . S
C467 H471 0.950 . S
H468 C464 0.950 . S
C469 C467 1.390 . S
C469 C470 1.387 . S
C469 H472 0.950 1_455 S
C470 C469 1.387 . S
C470 C473 1.387 . S
H471 C467 0.950 . S
H472 C469 0.950 1_655 S
C473 C464 1.390 . S
C473 H466 0.950 . S
C473 C470 1.387 . S
C474 C475 1.387 . S
C474 H478 0.950 . S
C474 C483 1.390 . S
C475 C474 1.387 . S
C475 C477 1.387 . S
H476 C483 0.950 . S
C477 C475 1.387 . S
C477 C479 1.390 . S
C477 H481 0.950 . S
H478 C474 0.950 . S
C479 C477 1.390 . S
C479 C480 1.387 . S
C479 H482 0.950 . S
C480 C479 1.387 . S
C480 C483 1.387 . S
H481 C477 0.950 . S
H482 C479 0.950 . S
C483 C474 1.390 . S
C483 H476 0.950 . S
C483 C480 1.387 . S
C484 C485 1.387 . S
C484 H488 0.950 . S
C484 C493 1.390 . S
C485 C484 1.387 . S
C485 C487 1.387 . S
H486 C493 0.950 . S
C487 C485 1.387 . S
C487 C489 1.390 . S
C487 H491 0.950 . S
H488 C484 0.950 . S
C489 C487 1.390 . S
C489 C490 1.387 . S
C489 H492 0.950 . S
C490 C489 1.387 . S
C490 C493 1.387 . S
H491 C487 0.950 . S
H492 C489 0.950 . S
C493 C484 1.390 . S
C493 H486 0.950 . S
C493 C490 1.387 . S
C494 C495 1.387 . S
C494 H498 0.950 . S
C494 C503 1.390 . S
C495 C494 1.387 . S
C495 C497 1.387 . S
H496 C503 0.950 . S
C497 C495 1.387 . S
C497 C499 1.390 . S
C497 H501 0.950 . S
H498 C494 0.950 . S
C499 C497 1.390 . S
C499 C500 1.387 . S
C499 H502 0.950 . S
C500 C499 1.387 . S
C500 C503 1.387 . S
H501 C497 0.950 . S
H502 C499 0.950 . S
C503 C494 1.390 . S
C503 H496 0.950 . S
C503 C500 1.387 . S
C504 C505 1.387 . S
C504 H508 0.950 . S
C504 C513 1.390 . S
C505 C504 1.387 . S
C505 C507 1.387 . S
H506 C513 0.950 . S
C507 C505 1.387 . S
C507 C509 1.390 . S
C507 H511 0.950 . S
H508 C504 0.950 . S
C509 C507 1.390 . S
C509 C510 1.387 . S
C509 H512 0.950 . S
C510 C509 1.387 . S
C510 C513 1.387 . S
H511 C507 0.950 . S
H512 C509 0.950 . S
C513 C504 1.390 . S
C513 H506 0.950 . S
C513 C510 1.387 . S
C514 C515 1.387 . S
C514 H518 0.950 . S
C514 C523 1.390 . S
C515 C514 1.387 . S
C515 C517 1.387 . S
H516 C523 0.950 . S
C517 C515 1.387 . S
C517 C519 1.390 . S
C517 H521 0.950 . S
H518 C514 0.950 . S
C519 C517 1.390 . S
C519 C520 1.387 . S
C519 H522 0.950 . S
C520 C519 1.387 . S
C520 C523 1.387 . S
H521 C517 0.950 . S
H522 C519 0.950 . S
C523 C514 1.390 . S
C523 H516 0.950 . S
C523 C520 1.387 . S
C524 C525 1.387 . S
C524 H528 0.950 . S
C524 C533 1.390 . S
C525 C524 1.387 . S
C525 C527 1.387 . S
H526 C533 0.950 . S
C527 C525 1.387 . S
C527 C529 1.390 . S
C527 H531 0.950 . S
H528 C524 0.950 . S
C529 C527 1.390 . S
C529 C530 1.387 . S
C529 H532 0.950 . S
C530 C529 1.387 . S
C530 C533 1.387 . S
H531 C527 0.950 . S
H532 C529 0.950 . S
C533 C524 1.390 . S
C533 H526 0.950 . S
C533 C530 1.387 . S
C534 C535 1.387 . S
C534 H538 0.950 . S
C534 C543 1.390 . S
C535 C534 1.387 . S
C535 C537 1.387 . S
H536 C543 0.950 . S
C537 C535 1.387 . S
C537 C539 1.390 . S
C537 H541 0.950 . S
H538 C534 0.950 . S
C539 C537 1.390 . S
C539 C540 1.387 . S
C539 H542 0.950 . S
C540 C539 1.387 . S
C540 C543 1.387 . S
H541 C537 0.950 . S
H542 C539 0.950 . S
C543 C534 1.390 . S
C543 H536 0.950 . S
C543 C540 1.387 . S
C544 C545 1.387 . S
C544 H548 0.950 . S
C544 C553 1.390 . S
C545 C544 1.387 . S
C545 C547 1.387 . S
H546 C553 0.950 . S
C547 C545 1.387 . S
C547 C549 1.390 . S
C547 H551 0.950 . S
H548 C544 0.950 . S
C549 C547 1.390 . S
C549 C550 1.387 . S
C549 H552 0.950 . S
C550 C549 1.387 . S
C550 C553 1.387 . S
H551 C547 0.950 . S
H552 C549 0.950 . S
C553 C544 1.390 . S
C553 H546 0.950 . S
C553 C550 1.387 . S
C554 C555 1.387 . S
C554 H558 0.950 . S
C554 C563 1.390 . S
C555 C554 1.387 . S
C555 C557 1.387 . S
H556 C563 0.950 . S
C557 C555 1.387 . S
C557 C559 1.390 . S
C557 H561 0.950 . S
H558 C554 0.950 . S
C559 C557 1.390 . S
C559 C560 1.387 . S
C559 H562 0.950 . S
C560 C559 1.387 . S
C560 C563 1.387 . S
H561 C557 0.950 . S
H562 C559 0.950 . S
C563 C554 1.390 . S
C563 H556 0.950 . S
C563 C560 1.387 . S
C564 C565 1.387 . S
C564 H568 0.950 . S
C564 C573 1.390 . S
C565 C564 1.387 . S
C565 C567 1.387 . S
H566 C573 0.950 . S
C567 C565 1.387 . S
C567 C569 1.390 . S
C567 H571 0.950 . S
H568 C564 0.950 . S
C569 C567 1.390 . S
C569 C570 1.387 . S
C569 H572 0.950 . S
C570 C569 1.387 . S
C570 C573 1.387 . S
H571 C567 0.950 . S
H572 C569 0.950 . S
C573 C564 1.390 . S
C573 H566 0.950 . S
C573 C570 1.387 . S
C574 C575 1.387 . S
C574 H578 0.950 . S
C574 C583 1.390 . S
C575 C574 1.387 . S
C575 C577 1.387 . S
H576 C583 0.950 . S
C577 C575 1.387 . S
C577 C579 1.390 . S
C577 H581 0.950 . S
H578 C574 0.950 . S
C579 C577 1.390 . S
C579 C580 1.387 . S
C579 H582 0.950 . S
C580 C579 1.387 . S
C580 C583 1.387 . S
H581 C577 0.950 . S
H582 C579 0.950 . S
C583 C574 1.390 . S
C583 H576 0.950 . S
C583 C580 1.387 . S
C584 C585 1.387 . S
C584 H588 0.950 . S
C584 C593 1.390 . S
C585 C584 1.387 . S
C585 C587 1.387 . S
H586 C593 0.950 . S
C587 C585 1.387 . S
C587 C589 1.390 . S
C587 H591 0.950 . S
H588 C584 0.950 . S
C589 C587 1.390 . S
C589 C590 1.387 . S
C589 H592 0.950 . S
C590 C589 1.387 . S
C590 C593 1.387 . S
H591 C587 0.950 . S
H592 C589 0.950 . S
C593 C584 1.390 . S
C593 H586 0.950 . S
C593 C590 1.387 . S
C594 C595 1.387 . S
C594 H598 0.950 . S
C594 C603 1.390 . S
C595 C594 1.387 . S
C595 C597 1.387 . S
H596 C603 0.950 . S
C597 C595 1.387 . S
C597 C599 1.390 . S
C597 H601 0.950 . S
H598 C594 0.950 . S
C599 C597 1.390 . S
C599 C600 1.387 . S
C599 H602 0.950 . S
C600 C599 1.387 . S
C600 C603 1.387 . S
H601 C597 0.950 . S
H602 C599 0.950 . S
C603 C594 1.390 . S
C603 H596 0.950 . S
C603 C600 1.387 . S
C604 C605 1.387 . S
C604 H608 0.950 . S
C604 C613 1.390 . S
C605 C604 1.387 . S
C605 C607 1.387 . S
H606 C613 0.950 . S
C607 C605 1.387 . S
C607 C609 1.390 . S
C607 H611 0.950 . S
H608 C604 0.950 . S
C609 C607 1.390 . S
C609 C610 1.387 . S
C609 H612 0.950 . S
C610 C609 1.387 . S
C610 C613 1.387 . S
H611 C607 0.950 . S
H612 C609 0.950 . S
C613 C604 1.390 . S
C613 H606 0.950 . S
C613 C610 1.387 . S
C614 C615 1.387 . S
C614 H618 0.950 . S
C614 C623 1.390 . S
C615 C614 1.387 . S
C615 C617 1.387 . S
H616 C623 0.950 . S
C617 C615 1.387 . S
C617 C619 1.390 . S
C617 H621 0.950 . S
H618 C614 0.950 . S
C619 C617 1.390 . S
C619 C620 1.387 . S
C619 H622 0.950 . S
C620 C619 1.387 . S
C620 C623 1.387 . S
H621 C617 0.950 . S
H622 C619 0.950 . S
C623 C614 1.390 . S
C623 H616 0.950 . S
C623 C620 1.387 . S
C624 C625 1.387 . S
C624 H628 0.950 . S
C624 C633 1.390 . S
C625 C624 1.387 . S
C625 C627 1.387 . S
H626 C633 0.950 . S
C627 C625 1.387 . S
C627 C629 1.390 . S
C627 H631 0.950 . S
H628 C624 0.950 . S
C629 C627 1.390 . S
C629 C630 1.387 . S
C629 H632 0.950 . S
C630 C629 1.387 . S
C630 C633 1.387 . S
H631 C627 0.950 . S
H632 C629 0.950 . S
C633 C624 1.390 . S
C633 H626 0.950 . S
C633 C630 1.387 . S
C634 C635 1.387 . S
C634 H638 0.950 . S
C634 C643 1.390 . S
C635 C634 1.387 . S
C635 C637 1.387 . S
H636 C643 0.950 . S
C637 C635 1.387 . S
C637 C639 1.390 . S
C637 H641 0.950 . S
H638 C634 0.950 . S
C639 C637 1.390 . S
C639 C640 1.387 . S
C639 H642 0.950 . S
C640 C639 1.387 . S
C640 C643 1.387 . S
H641 C637 0.950 . S
H642 C639 0.950 . S
C643 C634 1.390 . S
C643 H636 0.950 . S
C643 C640 1.387 . S
C644 C645 1.387 . S
C644 H648 0.950 . S
C644 C653 1.390 . S
C645 C644 1.387 . S
C645 C647 1.387 . S
H646 C653 0.950 . S
C647 C645 1.387 . S
C647 C649 1.390 . S
C647 H651 0.950 . S
H648 C644 0.950 . S
C649 C647 1.390 . S
C649 C650 1.387 . S
C649 H652 0.950 . S
C650 C649 1.387 . S
C650 C653 1.387 . S
H651 C647 0.950 . S
H652 C649 0.950 . S
C653 C644 1.390 . S
C653 H646 0.950 . S
C653 C650 1.387 . S
C654 C655 1.387 . S
C654 H658 0.950 . S
C654 C663 1.390 . S
C655 C654 1.387 . S
C655 C657 1.387 1_565 S
H656 C663 0.950 . S
C657 C655 1.387 1_545 S
C657 C659 1.390 . S
C657 H661 0.950 . S
H658 C654 0.950 . S
C659 C657 1.390 . S
C659 C660 1.387 . S
C659 H662 0.950 . S
C660 C659 1.387 . S
C660 C663 1.387 1_545 S
H661 C657 0.950 . S
H662 C659 0.950 . S
C663 C654 1.390 . S
C663 H656 0.950 . S
C663 C660 1.387 1_565 S
C664 C665 1.387 1_655 S
C664 H668 0.950 . S
C664 C673 1.390 . S
C665 C664 1.387 1_455 S
C665 C667 1.387 . S
H666 C673 0.950 . S
C667 C665 1.387 . S
C667 C669 1.390 . S
C667 H671 0.950 . S
H668 C664 0.950 . S
C669 C667 1.390 . S
C669 C670 1.387 1_455 S
C669 H672 0.950 . S
C670 C669 1.387 1_655 S
C670 C673 1.387 . S
H671 C667 0.950 . S
H672 C669 0.950 . S
C673 C664 1.390 . S
C673 H666 0.950 . S
C673 C670 1.387 . S
C674 C675 1.387 . S
C674 H678 0.950 . S
C674 C683 1.390 . S
C675 C674 1.387 . S
C675 C677 1.387 . S
H676 C683 0.950 . S
C677 C675 1.387 . S
C677 C679 1.390 . S
C677 H681 0.950 . S
H678 C674 0.950 . S
C679 C677 1.390 . S
C679 C680 1.387 . S
C679 H682 0.950 . S
C680 C679 1.387 . S
C680 C683 1.387 . S
H681 C677 0.950 . S
H682 C679 0.950 . S
C683 C674 1.390 . S
C683 H676 0.950 . S
C683 C680 1.387 . S
C684 C685 1.387 . S
C684 H688 0.950 . S
C684 C693 1.390 . S
C685 C684 1.387 . S
C685 C687 1.387 . S
H686 C693 0.950 . S
C687 C685 1.387 . S
C687 C689 1.390 . S
C687 H691 0.950 . S
H688 C684 0.950 . S
C689 C687 1.390 . S
C689 C690 1.387 . S
C689 H692 0.950 . S
C690 C689 1.387 . S
C690 C693 1.387 . S
H691 C687 0.950 . S
H692 C689 0.950 . S
C693 C684 1.390 . S
C693 H686 0.950 . S
C693 C690 1.387 . S
C694 C695 1.387 . S
C694 H698 0.950 . S
C694 C703 1.390 1_545 S
C695 C694 1.387 . S
C695 C697 1.387 . S
H696 C703 0.950 . S
C697 C695 1.387 . S
C697 C699 1.390 . S
C697 H701 0.950 . S
H698 C694 0.950 . S
C699 C697 1.390 . S
C699 C700 1.387 1_545 S
C699 H702 0.950 . S
C700 C699 1.387 1_565 S
C700 C703 1.387 . S
H701 C697 0.950 . S
H702 C699 0.950 . S
C703 C694 1.390 1_565 S
C703 H696 0.950 . S
C703 C700 1.387 . S
C704 C705 1.387 . S
C704 H708 0.950 . S
C704 C713 1.390 . S
C705 C704 1.387 . S
C705 C707 1.387 . S
H706 C713 0.950 . S
C707 C705 1.387 . S
C707 C709 1.390 1_655 S
C707 H711 0.950 . S
H708 C704 0.950 . S
C709 C707 1.390 1_455 S
C709 C710 1.387 . S
C709 H712 0.950 . S
C710 C709 1.387 . S
C710 C713 1.387 1_455 S
H711 C707 0.950 . S
H712 C709 0.950 . S
C713 C704 1.390 . S
C713 H706 0.950 . S
C713 C710 1.387 1_655 S
C714 C715 1.387 . S
C714 H718 0.950 . S
C714 C723 1.390 . S
C715 C714 1.387 . S
C715 C717 1.387 . S
H716 C723 0.950 . S
C717 C715 1.387 . S
C717 C719 1.390 . S
C717 H721 0.950 . S
H718 C714 0.950 . S
C719 C717 1.390 . S
C719 C720 1.387 . S
C719 H722 0.950 . S
C720 C719 1.387 . S
C720 C723 1.387 . S
H721 C717 0.950 . S
H722 C719 0.950 . S
C723 C714 1.390 . S
C723 H716 0.950 . S
C723 C720 1.387 . S
C724 C725 1.387 . S
C724 H728 0.950 . S
C724 C733 1.390 1_565 S
C725 C724 1.387 . S
C725 C727 1.387 . S
H726 C733 0.950 . S
C727 C725 1.387 . S
C727 C729 1.390 . S
C727 H731 0.950 . S
H728 C724 0.950 . S
C729 C727 1.390 . S
C729 C730 1.387 1_565 S
C729 H732 0.950 . S
C730 C729 1.387 1_545 S
C730 C733 1.387 . S
H731 C727 0.950 . S
H732 C729 0.950 . S
C733 C724 1.390 1_545 S
C733 H726 0.950 . S
C733 C730 1.387 . S
C734 C735 1.387 1_455 S
C734 H738 0.950 . S
C734 C743 1.390 . S
C735 C734 1.387 1_655 S
C735 C737 1.387 . S
H736 C743 0.950 . S
C737 C735 1.387 . S
C737 C739 1.390 1_655 S
C737 H741 0.950 . S
H738 C734 0.950 . S
C739 C737 1.390 1_455 S
C739 C740 1.387 . S
C739 H742 0.950 . S
C740 C739 1.387 . S
C740 C743 1.387 . S
H741 C737 0.950 . S
H742 C739 0.950 . S
C743 C734 1.390 . S
C743 H736 0.950 . S
C743 C740 1.387 . S
C744 C745 1.387 . S
C744 H748 0.950 . S
C744 C753 1.390 . S
C745 C744 1.387 . S
C745 C747 1.387 . S
H746 C753 0.950 . S
C747 C745 1.387 . S
C747 C749 1.390 . S
C747 H751 0.950 . S
H748 C744 0.950 . S
C749 C747 1.390 . S
C749 C750 1.387 . S
C749 H752 0.950 . S
C750 C749 1.387 . S
C750 C753 1.387 . S
H751 C747 0.950 . S
H752 C749 0.950 . S
C753 C744 1.390 . S
C753 H746 0.950 . S
C753 C750 1.387 . S
C754 C755 1.387 . S
C754 H758 0.950 . S
C754 C763 1.390 . S
C755 C754 1.387 . S
C755 C757 1.387 . S
H756 C763 0.950 . S
C757 C755 1.387 . S
C757 C759 1.390 . S
C757 H761 0.950 . S
H758 C754 0.950 . S
C759 C757 1.390 . S
C759 C760 1.387 . S
C759 H762 0.950 . S
C760 C759 1.387 . S
C760 C763 1.387 . S
H761 C757 0.950 . S
H762 C759 0.950 . S
C763 C754 1.390 . S
C763 H756 0.950 . S
C763 C760 1.387 . S
C764 C765 1.387 . S
C764 H768 0.950 . S
C764 C773 1.390 . S
C765 C764 1.387 . S
C765 C767 1.387 . S
H766 C773 0.950 . S
C767 C765 1.387 . S
C767 C769 1.390 . S
C767 H771 0.950 . S
H768 C764 0.950 . S
C769 C767 1.390 . S
C769 C770 1.387 . S
C769 H772 0.950 . S
C770 C769 1.387 . S
C770 C773 1.387 . S
H771 C767 0.950 . S
H772 C769 0.950 . S
C773 C764 1.390 . S
C773 H766 0.950 . S
C773 C770 1.387 . S
C774 C775 1.387 . S
C774 H778 0.950 . S
C774 C783 1.390 . S
C775 C774 1.387 . S
C775 C777 1.387 1_554 S
H776 C783 0.950 . S
C777 C775 1.387 1_556 S
C777 C779 1.390 1_556 S
C777 H781 0.950 . S
H778 C774 0.950 . S
C779 C777 1.390 1_554 S
C779 C780 1.387 . S
C779 H782 0.950 . S
C780 C779 1.387 . S
C780 C783 1.387 . S
H781 C777 0.950 . S
H782 C779 0.950 . S
C783 C774 1.390 . S
C783 H776 0.950 . S
C783 C780 1.387 . S
C784 C785 1.387 . S
C784 H788 0.950 . S
C784 C793 1.390 . S
C785 C784 1.387 . S
C785 C787 1.387 1_554 S
H786 C793 0.950 . S
C787 C785 1.387 1_556 S
C787 C789 1.390 1_556 S
C787 H791 0.950 . S
H788 C784 0.950 . S
C789 C787 1.390 1_554 S
C789 C790 1.387 . S
C789 H792 0.950 1_554 S
C790 C789 1.387 . S
C790 C793 1.387 . S
H791 C787 0.950 . S
H792 C789 0.950 1_556 S
C793 C784 1.390 . S
C793 H786 0.950 . S
C793 C790 1.387 . S
C794 C795 1.387 1_556 S
C794 H798 0.950 . S
C794 C803 1.390 . S
C795 C794 1.387 1_554 S
C795 C797 1.387 . S
H796 C803 0.950 . S
C797 C795 1.387 . S
C797 C799 1.390 . S
C797 H801 0.950 . S
H798 C794 0.950 . S
C799 C797 1.390 . S
C799 C800 1.387 . S
C799 H802 0.950 . S
C800 C799 1.387 . S
C800 C803 1.387 1_554 S
H801 C797 0.950 . S
H802 C799 0.950 . S
C803 C794 1.390 . S
C803 H796 0.950 . S
C803 C800 1.387 1_556 S
C804 C805 1.387 . S
C804 H808 0.950 1_556 S
C804 C813 1.390 1_556 S
C805 C804 1.387 . S
C805 C807 1.387 . S
H806 C813 0.950 . S
C807 C805 1.387 . S
C807 C809 1.390 . S
C807 H811 0.950 . S
H808 C804 0.950 1_554 S
C809 C807 1.390 . S
C809 C810 1.387 . S
C809 H812 0.950 . S
C810 C809 1.387 . S
C810 C813 1.387 1_556 S
H811 C807 0.950 . S
H812 C809 0.950 . S
C813 C804 1.390 1_554 S
C813 H806 0.950 . S
C813 C810 1.387 1_554 S
C814 C815 1.387 . S
C814 H818 0.950 1_556 S
C814 C823 1.390 1_556 S
C815 C814 1.387 . S
C815 C817 1.387 . S
H816 C823 0.950 . S
C817 C815 1.387 . S
C817 C819 1.390 . S
C817 H821 0.950 . S
H818 C814 0.950 1_554 S
C819 C817 1.390 . S
C819 C820 1.387 . S
C819 H822 0.950 . S
C820 C819 1.387 . S
C820 C823 1.387 1_556 S
H821 C817 0.950 . S
H822 C819 0.950 . S
C823 C814 1.390 1_554 S
C823 H816 0.950 . S
C823 C820 1.387 1_554 S
C824 C825 1.387 1_554 S
C824 H828 0.950 . S
C824 C833 1.390 . S
C825 C824 1.387 1_556 S
C825 C827 1.387 . S
H826 C833 0.950 . S
C827 C825 1.387 . S
C827 C829 1.390 . S
C827 H831 0.950 . S
H828 C824 0.950 . S
C829 C827 1.390 . S
C829 C830 1.387 . S
C829 H832 0.950 . S
C830 C829 1.387 . S
C830 C833 1.387 1_556 S
H831 C827 0.950 . S
H832 C829 0.950 . S
C833 C824 1.390 . S
C833 H826 0.950 . S
C833 C830 1.387 1_554 S
C834 C835 1.387 . S
C834 H838 0.950 . S
C834 C843 1.390 . S
C835 C834 1.387 . S
C835 C837 1.387 . S
H836 C843 0.950 . S
C837 C835 1.387 . S
C837 C839 1.390 . S
C837 H841 0.950 . S
H838 C834 0.950 . S
C839 C837 1.390 . S
C839 C840 1.387 . S
C839 H842 0.950 . S
C840 C839 1.387 . S
C840 C843 1.387 . S
H841 C837 0.950 . S
H842 C839 0.950 . S
C843 C834 1.390 . S
C843 H836 0.950 . S
C843 C840 1.387 . S
C844 C845 1.387 . S
C844 H848 0.950 . S
C844 C853 1.390 . S
C845 C844 1.387 . S
C845 C847 1.387 . S
H846 C853 0.950 . S
C847 C845 1.387 . S
C847 C849 1.390 . S
C847 H851 0.950 . S
H848 C844 0.950 . S
C849 C847 1.390 . S
C849 C850 1.387 . S
C849 H852 0.950 . S
C850 C849 1.387 . S
C850 C853 1.387 . S
H851 C847 0.950 . S
H852 C849 0.950 . S
C853 C844 1.390 . S
C853 H846 0.950 . S
C853 C850 1.387 . S
C854 C855 1.387 . S
C854 H858 0.950 . S
C854 C863 1.390 . S
C855 C854 1.387 . S
C855 C857 1.387 . S
H856 C863 0.950 . S
C857 C855 1.387 . S
C857 C859 1.390 . S
C857 H861 0.950 . S
H858 C854 0.950 . S
C859 C857 1.390 . S
C859 C860 1.387 . S
C859 H862 0.950 . S
C860 C859 1.387 . S
C860 C863 1.387 . S
H861 C857 0.950 . S
H862 C859 0.950 . S
C863 C854 1.390 . S
C863 H856 0.950 . S
C863 C860 1.387 . S
C864 C865 1.387 . S
C864 H868 0.950 . S
C864 C873 1.390 . S
C865 C864 1.387 . S
C865 C867 1.387 . S
H866 C873 0.950 . S
C867 C865 1.387 . S
C867 C869 1.390 . S
C867 H871 0.950 . S
H868 C864 0.950 . S
C869 C867 1.390 . S
C869 C870 1.387 . S
C869 H872 0.950 . S
C870 C869 1.387 . S
C870 C873 1.387 . S
H871 C867 0.950 . S
H872 C869 0.950 . S
C873 C864 1.390 . S
C873 H866 0.950 . S
C873 C870 1.387 . S
C874 C875 1.387 . S
C874 H878 0.950 . S
C874 C883 1.390 . S
C875 C874 1.387 . S
C875 C877 1.387 . S
H876 C883 0.950 . S
C877 C875 1.387 . S
C877 C879 1.390 . S
C877 H881 0.950 . S
H878 C874 0.950 . S
C879 C877 1.390 . S
C879 C880 1.387 . S
C879 H882 0.950 . S
C880 C879 1.387 . S
C880 C883 1.387 . S
H881 C877 0.950 . S
H882 C879 0.950 . S
C883 C874 1.390 . S
C883 H876 0.950 . S
C883 C880 1.387 . S
C884 C885 1.387 . S
C884 H888 0.950 . S
C884 C893 1.390 . S
C885 C884 1.387 . S
C885 C887 1.387 . S
H886 C893 0.950 . S
C887 C885 1.387 . S
C887 C889 1.390 . S
C887 H891 0.950 . S
H888 C884 0.950 . S
C889 C887 1.390 . S
C889 C890 1.387 . S
C889 H892 0.950 . S
C890 C889 1.387 . S
C890 C893 1.387 . S
H891 C887 0.950 . S
H892 C889 0.950 . S
C893 C884 1.390 . S
C893 H886 0.950 . S
C893 C890 1.387 . S
C894 C895 1.387 . S
C894 H898 0.950 . S
C894 C903 1.390 . S
C895 C894 1.387 . S
C895 C897 1.387 . S
H896 C903 0.950 . S
C897 C895 1.387 . S
C897 C899 1.390 . S
C897 H901 0.950 . S
H898 C894 0.950 . S
C899 C897 1.390 . S
C899 C900 1.387 . S
C899 H902 0.950 . S
C900 C899 1.387 . S
C900 C903 1.387 . S
H901 C897 0.950 . S
H902 C899 0.950 . S
C903 C894 1.390 . S
C903 H896 0.950 . S
C903 C900 1.387 . S
C904 C905 1.387 . S
C904 H908 0.950 . S
C904 C913 1.390 . S
C905 C904 1.387 . S
C905 C907 1.387 . S
H906 C913 0.950 . S
C907 C905 1.387 . S
C907 C909 1.390 . S
C907 H911 0.950 . S
H908 C904 0.950 . S
C909 C907 1.390 . S
C909 C910 1.387 . S
C909 H912 0.950 . S
C910 C909 1.387 . S
C910 C913 1.387 . S
H911 C907 0.950 . S
H912 C909 0.950 . S
C913 C904 1.390 . S
C913 H906 0.950 . S
C913 C910 1.387 . S
C914 C915 1.387 . S
C914 H918 0.950 . S
C914 C923 1.390 . S
C915 C914 1.387 . S
C915 C917 1.387 . S
H916 C923 0.950 . S
C917 C915 1.387 . S
C917 C919 1.390 . S
C917 H921 0.950 . S
H918 C914 0.950 . S
C919 C917 1.390 . S
C919 C920 1.387 . S
C919 H922 0.950 . S
C920 C919 1.387 . S
C920 C923 1.387 . S
H921 C917 0.950 . S
H922 C919 0.950 . S
C923 C914 1.390 . S
C923 H916 0.950 . S
C923 C920 1.387 . S
C924 C925 1.387 1_565 S
C924 H928 0.950 . S
C924 C933 1.390 1_554 S
C925 C924 1.387 1_545 S
C925 C927 1.387 . S
H926 C933 0.950 . S
C927 C925 1.387 . S
C927 C929 1.390 1_554 S
C927 H931 0.950 . S
H928 C924 0.950 . S
C929 C927 1.390 1_556 S
C929 C930 1.387 1_545 S
C929 H932 0.950 . S
C930 C929 1.387 1_565 S
C930 C933 1.387 . S
H931 C927 0.950 . S
H932 C929 0.950 . S
C933 C924 1.390 1_556 S
C933 H926 0.950 . S
C933 C930 1.387 . S
C934 C935 1.387 1_455 S
C934 H938 0.950 . S
C934 C943 1.390 1_554 S
C935 C934 1.387 1_655 S
C935 C937 1.387 . S
H936 C943 0.950 . S
C937 C935 1.387 . S
C937 C939 1.390 1_554 S
C937 H941 0.950 . S
H938 C934 0.950 . S
C939 C937 1.390 1_556 S
C939 C940 1.387 1_655 S
C939 H942 0.950 . S
C940 C939 1.387 1_455 S
C940 C943 1.387 . S
H941 C937 0.950 . S
H942 C939 0.950 . S
C943 C934 1.390 1_556 S
C943 H936 0.950 . S
C943 C940 1.387 . S
C944 C945 1.387 . S
C944 H948 0.950 . S
C944 C953 1.390 1_556 S
C945 C944 1.387 . S
C945 C947 1.387 . S
H946 C953 0.950 . S
C947 C945 1.387 . S
C947 C949 1.390 1_556 S
C947 H951 0.950 . S
H948 C944 0.950 . S
C949 C947 1.390 1_554 S
C949 C950 1.387 . S
C949 H952 0.950 . S
C950 C949 1.387 . S
C950 C953 1.387 . S
H951 C947 0.950 . S
H952 C949 0.950 . S
C953 C944 1.390 1_554 S
C953 H946 0.950 . S
C953 C950 1.387 . S
C415 C110 1.407 . S
C420 C20 1.451 . S
C425 C43 1.451 1_545 S
C430 C133 1.406 . S
C435 C87 1.405 . S
C440 C66 1.451 1_655 S
C445 C89 1.452 . S
C450 C41 1.407 . S
C455 C112 1.451 1_565 S
C460 C64 1.405 . S
C465 C18 1.407 . S
C470 C135 1.452 1_455 S
C475 C158 1.452 . S
C480 C248 1.407 . S
C485 C271 1.406 . S
C490 C181 1.451 . S
C495 C225 1.407 . S
C500 C204 1.452 . S
C505 C227 1.451 . S
C510 C179 1.405 . S
C515 C202 1.407 . S
C520 C250 1.452 . S
C525 C273 1.452 . S
C530 C156 1.407 . S
C535 C386 1.407 . S
C540 C296 1.452 . S
C545 C319 1.452 . S
C550 C409 1.406 . S
C555 C363 1.405 . S
C560 C342 1.451 . S
C565 C317 1.404 . S
C570 C365 1.451 . S
C575 C388 1.451 . S
C580 C340 1.406 . S
C585 C294 1.405 . S
C590 C411 1.451 . S
C595 C16 1.293 . S
C600 C361 1.293 . S
C605 C39 1.296 . S
C610 C384 1.296 . S
C615 C407 1.295 . S
C620 C62 1.295 . S
C625 C85 1.296 . S
C630 C154 1.296 . S
C635 C108 1.293 . S
C640 C177 1.293 . S
C645 C200 1.294 . S
C650 C131 1.294 . S
C655 C292 1.293 . S
C660 C223 1.293 . S
C665 C315 1.296 . S
C670 C246 1.296 . S
C675 C338 1.295 . S
C680 C269 1.295 . S
C685 C17 1.483 . S
C690 C182 1.551 . S
C695 C205 1.549 . S
C700 C40 1.479 . S
C705 C159 1.551 . S
C710 C63 1.483 . S
C715 C86 1.482 . S
C720 C389 1.550 . S
C725 C412 1.551 . S
C730 C109 1.483 . S
C735 C132 1.479 . S
C740 C366 1.549 . S
C745 C155 1.481 . S
C750 C320 1.550 . S
C755 C178 1.483 . S
C760 C343 1.551 . S
C765 C201 1.482 . S
C770 C297 1.550 . S
C775 C113 1.550 1_554 S
C780 C224 1.482 . S
C785 C136 1.549 1_554 S
C790 C247 1.479 . S
C795 C90 1.551 1_554 S
C800 C270 1.482 . S
C805 C293 1.482 . S
C810 C44 1.550 1_556 S
C815 C316 1.479 . S
C820 C67 1.549 1_556 S
C825 C21 1.549 1_556 S
C830 C339 1.480 . S
C835 C251 1.550 . S
C840 C362 1.481 . S
C845 C385 1.483 . S
C850 C274 1.551 . S
C855 C228 1.550 . S
C860 C408 1.481 . S
C865 C19 1.493 . S
C870 C364 1.493 . S
C875 C42 1.492 . S
C880 C387 1.492 . S
C885 C65 1.494 . S
C890 C410 1.494 . S
C895 C157 1.494 . S
C900 C88 1.494 . S
C905 C111 1.494 . S
C910 C180 1.494 . S
C915 C203 1.493 . S
C920 C134 1.493 . S
C925 C226 1.493 . S
C930 C295 1.493 . S
C935 C249 1.494 . S
C940 C318 1.494 . S
C945 C341 1.493 . S
C950 C272 1.493 . S
