# Generated by pormake.
# Topology wlu, (5)-cn, num edge types: 1
# Building blocks:
#     Node 0, Type 0, BuildingBlock: XOMCOT_clean_sbu_1, # of connection points: 5
#     Node 1, Type 0, BuildingBlock: XOMCOT_clean_sbu_1, # of connection points: 5
#     Node 2, Type 0, BuildingBlock: XOMCOT_clean_sbu_1, # of connection points: 5
#     Node 3, Type 0, BuildingBlock: XOMCOT_clean_sbu_1, # of connection points: 5
#     Node 4, Type 0, BuildingBlock: XOMCOT_clean_sbu_1, # of connection points: 5
#     Node 5, Type 0, BuildingBlock: XOMCOT_clean_sbu_1, # of connection points: 5
#     Node 6, Type 0, BuildingBlock: XOMCOT_clean_sbu_1, # of connection points: 5
#     Node 7, Type 0, BuildingBlock: XOMCOT_clean_sbu_1, # of connection points: 5
#     Node 8, Type 0, BuildingBlock: XOMCOT_clean_sbu_1, # of connection points: 5
#     Node 9, Type 0, BuildingBlock: XOMCOT_clean_sbu_1, # of connection points: 5
#     Node 10, Type 0, BuildingBlock: XOMCOT_clean_sbu_1, # of connection points: 5
#     Node 11, Type 0, BuildingBlock: XOMCOT_clean_sbu_1, # of connection points: 5
#     Node 12, Type 0, BuildingBlock: XOMCOT_clean_sbu_1, # of connection points: 5
#     Node 13, Type 0, BuildingBlock: XOMCOT_clean_sbu_1, # of connection points: 5
#     Node 14, Type 0, BuildingBlock: XOMCOT_clean_sbu_1, # of connection points: 5
#     Node 15, Type 0, BuildingBlock: XOMCOT_clean_sbu_1, # of connection points: 5
#     Node 16, Type 0, BuildingBlock: XOMCOT_clean_sbu_1, # of connection points: 5
#     Node 17, Type 0, BuildingBlock: XOMCOT_clean_sbu_1, # of connection points: 5
#     Node 18, Type 0, BuildingBlock: XOMCOT_clean_sbu_1, # of connection points: 5
#     Node 19, Type 0, BuildingBlock: XOMCOT_clean_sbu_1, # of connection points: 5
#     Node 20, Type 0, BuildingBlock: XOMCOT_clean_sbu_1, # of connection points: 5
#     Node 21, Type 0, BuildingBlock: XOMCOT_clean_sbu_1, # of connection points: 5
#     Node 22, Type 0, BuildingBlock: XOMCOT_clean_sbu_1, # of connection points: 5
#     Node 23, Type 0, BuildingBlock: XOMCOT_clean_sbu_1, # of connection points: 5
#     Node 24, Type 0, BuildingBlock: XOMCOT_clean_sbu_1, # of connection points: 5
#     Node 25, Type 0, BuildingBlock: XOMCOT_clean_sbu_1, # of connection points: 5
#     Node 26, Type 0, BuildingBlock: XOMCOT_clean_sbu_1, # of connection points: 5
#     Node 27, Type 0, BuildingBlock: XOMCOT_clean_sbu_1, # of connection points: 5
#     Node 28, Type 0, BuildingBlock: XOMCOT_clean_sbu_1, # of connection points: 5
#     Node 29, Type 0, BuildingBlock: XOMCOT_clean_sbu_1, # of connection points: 5
#     Node 30, Type 0, BuildingBlock: XOMCOT_clean_sbu_1, # of connection points: 5
#     Node 31, Type 0, BuildingBlock: XOMCOT_clean_sbu_1, # of connection points: 5
#     Node 32, Type 0, BuildingBlock: XOMCOT_clean_sbu_1, # of connection points: 5
#     Node 33, Type 0, BuildingBlock: XOMCOT_clean_sbu_1, # of connection points: 5
#     Node 34, Type 0, BuildingBlock: XOMCOT_clean_sbu_1, # of connection points: 5
#     Node 35, Type 0, BuildingBlock: XOMCOT_clean_sbu_1, # of connection points: 5
#     Edge 36, Type (0, 0), None
#     Edge 37, Type (0, 0), None
#     Edge 38, Type (0, 0), None
#     Edge 39, Type (0, 0), None
#     Edge 40, Type (0, 0), None
#     Edge 41, Type (0, 0), None
#     Edge 42, Type (0, 0), None
#     Edge 43, Type (0, 0), None
#     Edge 44, Type (0, 0), None
#     Edge 45, Type (0, 0), None
#     Edge 46, Type (0, 0), None
#     Edge 47, Type (0, 0), None
#     Edge 48, Type (0, 0), None
#     Edge 49, Type (0, 0), None
#     Edge 50, Type (0, 0), None
#     Edge 51, Type (0, 0), None
#     Edge 52, Type (0, 0), None
#     Edge 53, Type (0, 0), None
#     Edge 54, Type (0, 0), None
#     Edge 55, Type (0, 0), None
#     Edge 56, Type (0, 0), None
#     Edge 57, Type (0, 0), None
#     Edge 58, Type (0, 0), None
#     Edge 59, Type (0, 0), None
#     Edge 60, Type (0, 0), None
#     Edge 61, Type (0, 0), None
#     Edge 62, Type (0, 0), None
#     Edge 63, Type (0, 0), None
#     Edge 64, Type (0, 0), None
#     Edge 65, Type (0, 0), None
#     Edge 66, Type (0, 0), None
#     Edge 67, Type (0, 0), None
#     Edge 68, Type (0, 0), None
#     Edge 69, Type (0, 0), None
#     Edge 70, Type (0, 0), None
#     Edge 71, Type (0, 0), None
#     Edge 72, Type (0, 0), None
#     Edge 73, Type (0, 0), None
#     Edge 74, Type (0, 0), None
#     Edge 75, Type (0, 0), None
#     Edge 76, Type (0, 0), None
#     Edge 77, Type (0, 0), None
#     Edge 78, Type (0, 0), None
#     Edge 79, Type (0, 0), None
#     Edge 80, Type (0, 0), None
#     Edge 81, Type (0, 0), None
#     Edge 82, Type (0, 0), None
#     Edge 83, Type (0, 0), None
#     Edge 84, Type (0, 0), None
#     Edge 85, Type (0, 0), None
#     Edge 86, Type (0, 0), None
#     Edge 87, Type (0, 0), None
#     Edge 88, Type (0, 0), None
#     Edge 89, Type (0, 0), None
#     Edge 90, Type (0, 0), None
#     Edge 91, Type (0, 0), None
#     Edge 92, Type (0, 0), None
#     Edge 93, Type (0, 0), None
#     Edge 94, Type (0, 0), None
#     Edge 95, Type (0, 0), None
#     Edge 96, Type (0, 0), None
#     Edge 97, Type (0, 0), None
#     Edge 98, Type (0, 0), None
#     Edge 99, Type (0, 0), None
#     Edge 100, Type (0, 0), None
#     Edge 101, Type (0, 0), None
#     Edge 102, Type (0, 0), None
#     Edge 103, Type (0, 0), None
#     Edge 104, Type (0, 0), None
#     Edge 105, Type (0, 0), None
#     Edge 106, Type (0, 0), None
#     Edge 107, Type (0, 0), None
#     Edge 108, Type (0, 0), None
#     Edge 109, Type (0, 0), None
#     Edge 110, Type (0, 0), None
#     Edge 111, Type (0, 0), None
#     Edge 112, Type (0, 0), None
#     Edge 113, Type (0, 0), None
#     Edge 114, Type (0, 0), None
#     Edge 115, Type (0, 0), None
#     Edge 116, Type (0, 0), None
#     Edge 117, Type (0, 0), None
#     Edge 118, Type (0, 0), None
#     Edge 119, Type (0, 0), None
#     Edge 120, Type (0, 0), None
#     Edge 121, Type (0, 0), None
#     Edge 122, Type (0, 0), None
#     Edge 123, Type (0, 0), None
#     Edge 124, Type (0, 0), None
#     Edge 125, Type (0, 0), None
# Relax obj value: 0.231
# Max RMSD: 0.163
# Mean RMSD: 0.163
data_MOF--net-wlu--node1-XOMCOT_clean_sbu_1--edge1-none
_symmetry_space_group_name_H-M    P1
_symmetry_Int_Tables_number       1
_symmetry_cell_setting            triclinic
loop_
_symmetry_equiv_pos_as_xyz
'x, y, z'
_cell_length_a     36.562786
_cell_length_b     36.562208
_cell_length_c     23.903841
_cell_angle_alpha  90.00009
_cell_angle_beta   90.001072
_cell_angle_gamma 119.99939
loop_
_atom_site_label
_atom_site_type_symbol
_atom_site_fract_x
_atom_site_fract_y
_atom_site_fract_z
_atom_type_partial_charge
C0 C 0.2113 0.11252 0.12455 0.0
C1 C 0.1928 0.0691 0.12251 0.0
N2 N 0.22255 0.05962 0.1073 0.0
N3 N 0.25232 0.1301 0.10998 0.0
C4 C 0.25836 0.09704 0.10117 0.0
H5 H 0.19569 0.13014 0.13494 0.0
Co6 Co 0.29301 0.18724 0.10646 0.0
C7 C 0.31393 0.15614 0.99602 0.0
O8 O 0.27808 0.12148 0.98609 0.0
N9 N 0.33442 0.24459 0.10323 0.0
C10 C 0.37865 0.30902 0.07015 0.0
C11 C 0.35312 0.26724 1.05652 0.0
C12 C 0.34949 0.27323 0.14506 0.0
N13 N 0.37617 0.31247 0.12569 0.0
O14 O 0.32891 0.17607 0.15282 0.0
H15 H 0.34797 0.25457 1.01479 0.0
H16 H 0.3396 0.26577 0.18821 0.0
O17 O 0.31856 0.1791 1.03872 0.0
C18 C 0.31879 0.17032 0.20456 0.0
O19 O 0.28659 0.17378 0.222 0.0
N20 N 0.25588 0.19897 0.0659 0.0
C21 C 0.19467 0.21669 1.02583 0.0
C22 C 0.20399 0.1891 0.99664 0.0
C23 C 0.23503 0.18082 1.01726 0.0
C24 C 0.2467 0.22553 0.09477 0.0
C25 C 0.21702 0.23554 0.07492 0.0
H26 H 0.24055 0.1585 0.99536 0.0
H27 H 0.26166 0.23815 0.13464 0.0
H28 H 0.28845 0.10029 0.0895 0.0
H29 H 0.15974 0.04639 0.12907 0.0
H30 H 0.39707 0.33478 1.04161 0.0
H31 H 0.18701 0.17368 0.95878 0.0
H32 H 0.21014 0.25625 0.09936 0.0
C33 C 0.88246 0.09773 0.12427 0.0
C34 C 0.92588 0.1226 0.12221 0.0
N35 N 0.93542 0.16187 0.10713 0.0
N36 N 0.86494 0.12125 0.10985 0.0
C37 C 0.89803 0.16033 0.10111 0.0
H38 H 0.8648 0.06449 0.13456 0.0
Co39 Co 0.80782 0.10489 0.10637 0.0
C40 C 0.839 0.15695 0.99597 0.0
O41 O 0.87364 0.15573 0.98606 0.0
N42 N 0.7505 0.08906 0.10318 0.0
C43 C 0.68608 0.06905 0.07021 0.0
C44 C 0.72786 0.08531 1.05653 0.0
C45 C 0.72187 0.07539 0.14502 0.0
N46 N 0.68264 0.06294 0.12572 0.0
O47 O 0.81908 0.15198 0.15276 0.0
H48 H 0.74051 0.09295 1.01481 0.0
H49 H 0.72933 0.07281 0.18812 0.0
O50 O 0.81601 0.13863 1.03864 0.0
C51 C 0.82482 0.14758 0.2045 0.0
O52 O 0.82131 0.11189 0.2219 0.0
N53 N 0.79599 0.05602 0.06576 0.0
C54 C 0.77827 0.97709 1.02571 0.0
C55 C 0.80582 0.01399 0.99648 0.0
C56 C 0.8141 0.05331 1.0171 0.0
C57 C 0.76943 0.02029 0.09464 0.0
C58 C 0.75943 0.98059 0.0748 0.0
H59 H 0.8364 0.08115 0.99517 0.0
H60 H 0.75684 0.02263 0.13453 0.0
H61 H 0.89482 0.18721 0.08954 0.0
H62 H 0.94856 0.11218 0.12865 0.0
H63 H 0.66032 0.06183 1.04173 0.0
H64 H 0.82122 0.01243 0.95862 0.0
H65 H 0.73873 0.95301 0.09927 0.0
C66 C 0.89752 0.7839 0.12457 0.0
C67 C 0.87267 0.80247 0.12247 0.0
N68 N 0.83342 0.77277 0.10723 0.0
N69 N 0.87402 0.74288 0.11002 0.0
C70 C 0.83496 0.73692 0.10116 0.0
H71 H 0.93074 0.79946 0.13498 0.0
Co72 Co 0.89037 0.70211 0.10652 0.0
C73 C 0.83835 0.68123 0.99606 0.0
O74 O 0.8396 0.7171 0.98607 0.0
N75 N 0.90619 0.66061 0.10331 0.0
C76 C 0.92622 0.61623 0.07028 0.0
C77 C 0.91 0.64179 1.05663 0.0
C78 C 0.91978 0.64557 0.14514 0.0
N79 N 0.93225 0.6188 0.12581 0.0
O80 O 0.84327 0.66628 0.15288 0.0
H81 H 0.90243 0.64689 1.01491 0.0
H82 H 0.92231 0.65555 0.18827 0.0
O83 O 0.85665 0.67659 1.03878 0.0
C84 C 0.84765 0.6764 0.20463 0.0
O85 O 0.88333 0.70856 0.22207 0.0
N86 N 0.93925 0.73916 0.06594 0.0
C87 C 0.01819 0.80034 1.02587 0.0
C88 C 0.98128 0.79113 0.99677 0.0
C89 C 0.94195 0.76011 1.0174 0.0
C90 C 0.975 0.74822 0.09472 0.0
C91 C 0.01469 0.77789 0.07485 0.0
H92 H 0.91411 0.7547 0.9956 0.0
H93 H 0.97267 0.73321 0.13453 0.0
H94 H 0.80809 0.70685 0.08948 0.0
H95 H 0.88307 0.83555 0.12899 0.0
H96 H 0.93348 0.59774 1.04176 0.0
H97 H 0.98283 0.8082 0.95901 0.0
H98 H 0.04229 0.78468 0.09923 0.0
C99 C 0.11167 0.21232 0.49122 0.0
C100 C 0.06826 0.19378 0.49329 0.0
N101 N 0.05873 0.22349 0.50853 0.0
N102 N 0.12921 0.25335 0.50579 0.0
C103 C 0.09612 0.25933 0.51463 0.0
H104 H 0.12933 0.19676 0.48081 0.0
Co105 Co 0.18634 0.2941 0.50929 0.0
C106 C 0.1552 0.31498 0.61975 0.0
O107 O 0.12056 0.27912 0.62972 0.0
N108 N 0.24367 0.33559 0.5125 0.0
C109 C 0.30808 0.37998 0.54552 0.0
C110 C 0.2663 0.35444 0.55917 0.0
C111 C 0.27231 0.35059 0.47067 0.0
N112 N 0.31153 0.37736 0.49 0.0
O113 O 0.17509 0.32994 0.46293 0.0
H114 H 0.25363 0.34938 0.60089 0.0
H115 H 0.26485 0.34058 0.42756 0.0
O116 O 0.17815 0.31962 0.57704 0.0
C117 C 0.16933 0.3198 0.41119 0.0
O118 O 0.17284 0.28762 0.39377 0.0
N119 N 0.19815 0.25703 0.54988 0.0
C120 C 0.21587 0.19583 0.58998 0.0
C121 C 0.18817 0.20505 0.61905 0.0
C122 C 0.17989 0.23608 0.59841 0.0
C123 C 0.22484 0.24796 0.52113 0.0
C124 C 0.23485 0.21828 0.54101 0.0
H125 H 0.15745 0.24149 0.62019 0.0
H126 H 0.23754 0.26297 0.48131 0.0
H127 H 0.09934 0.2894 0.52632 0.0
H128 H 0.04557 0.1607 0.48674 0.0
H129 H 0.33383 0.39849 0.57402 0.0
H130 H 0.17264 0.18798 0.65681 0.0
H131 H 0.25566 0.21149 0.51664 0.0
C132 C 0.78284 0.89837 0.49126 0.0
C133 C 0.80138 0.87348 0.49333 0.0
N134 N 0.77166 0.83425 0.50858 0.0
N135 N 0.74183 0.8749 0.50585 0.0
C136 C 0.73584 0.83582 0.51469 0.0
H137 H 0.79842 0.93159 0.48085 0.0
Co138 Co 0.70109 0.8913 0.50936 0.0
C139 C 0.68021 0.83929 0.61982 0.0
O140 O 0.71607 0.84051 0.62978 0.0
N141 N 0.65963 0.90716 0.51258 0.0
C142 C 0.61533 0.92729 0.54563 0.0
C143 C 0.64087 0.91105 0.55928 0.0
C144 C 0.64457 0.92074 0.47075 0.0
N145 N 0.61785 0.93325 0.49009 0.0
O146 O 0.66524 0.84421 0.463 0.0
H147 H 0.64601 0.90352 0.60101 0.0
H148 H 0.6545 0.92321 0.42761 0.0
O149 O 0.67557 0.8576 0.57711 0.0
C150 C 0.67536 0.84859 0.41126 0.0
O151 O 0.70754 0.88428 0.39384 0.0
N152 N 0.73818 0.94017 0.54992 0.0
C153 C 0.79939 0.0191 0.58998 0.0
C154 C 0.79015 0.98219 0.61909 0.0
C155 C 0.75912 0.94287 0.59848 0.0
C156 C 0.74727 0.97592 0.52113 0.0
C157 C 0.77695 0.01561 0.54099 0.0
H158 H 0.75368 0.91503 0.62029 0.0
H159 H 0.73226 0.97359 0.48131 0.0
H160 H 0.70576 0.80897 0.52639 0.0
H161 H 0.83445 0.88386 0.48677 0.0
H162 H 0.59688 0.9346 0.57416 0.0
H163 H 0.80721 0.98375 0.65687 0.0
H164 H 0.78376 0.04321 0.5166 0.0
C165 C 0.09677 0.88349 0.49125 0.0
C166 C 0.12165 0.92691 0.49331 0.0
N167 N 0.16088 0.93644 0.50858 0.0
N168 N 0.12025 0.86596 0.50587 0.0
C169 C 0.15931 0.89905 0.51472 0.0
H170 H 0.06355 0.86584 0.48082 0.0
Co171 Co 0.10387 0.80883 0.50938 0.0
C172 C 0.15587 0.83996 0.61985 0.0
O173 O 0.15466 0.8746 0.62981 0.0
N174 N 0.08801 0.7515 0.5126 0.0
C175 C 0.06793 0.68708 0.54563 0.0
C176 C 0.08416 0.72886 0.55928 0.0
C177 C 0.07443 0.72287 0.47076 0.0
N178 N 0.06193 0.68364 0.49009 0.0
O179 O 0.15096 0.82007 0.46303 0.0
H180 H 0.09171 0.74152 0.60101 0.0
H181 H 0.07194 0.73033 0.42762 0.0
O182 O 0.13757 0.81701 0.57714 0.0
C183 C 0.1466 0.82583 0.41129 0.0
O184 O 0.11093 0.82234 0.39385 0.0
N185 N 0.05498 0.79703 0.54995 0.0
C186 C 0.97606 0.77932 0.59003 0.0
C187 C 0.01298 0.80703 0.6191 0.0
C188 C 0.0523 0.8153 0.59847 0.0
C189 C 0.01923 0.77034 0.5212 0.0
C190 C 0.97954 0.76033 0.54107 0.0
H191 H 0.08015 0.83775 0.62025 0.0
H192 H 0.02154 0.75763 0.48139 0.0
H193 H 0.18617 0.89583 0.52643 0.0
H194 H 0.11126 0.9496 0.48673 0.0
H195 H 0.06064 0.66132 0.57414 0.0
H196 H 0.01144 0.82256 0.65685 0.0
H197 H 0.95194 0.73952 0.51671 0.0
C198 C 0.78285 0.88363 0.99098 0.0
C199 C 0.80136 0.92705 0.99307 0.0
N200 N 0.77165 0.93651 1.00858 0.0
N201 N 0.74187 0.86604 1.00576 0.0
C202 C 0.73586 0.8991 1.01475 0.0
H203 H 0.79842 0.86601 0.98039 0.0
Co204 Co 0.70118 0.8089 1.00929 0.0
C205 C 0.68027 0.83995 0.11983 0.0
O206 O 0.71611 0.87461 0.12984 0.0
N207 N 0.65976 0.75155 1.01255 0.0
C208 C 0.61552 0.68712 1.04565 0.0
C209 C 0.64106 0.72891 0.05927 0.0
C210 C 0.64465 0.7229 0.97072 0.0
N211 N 0.61798 0.68367 0.9901 0.0
O212 O 0.66528 0.82008 0.96297 0.0
H213 H 0.64624 0.74158 0.101 0.0
H214 H 0.65453 0.73036 0.92756 0.0
O215 O 0.67566 0.81705 0.07708 0.0
C216 C 0.67539 0.82583 0.91123 0.0
O217 O 0.70759 0.82237 0.89379 0.0
N218 N 0.73832 0.79717 1.04984 0.0
C219 C 0.79952 0.77945 0.09 0.0
C220 C 0.79034 0.80722 0.11899 0.0
C221 C 0.75932 0.8155 0.09832 0.0
C222 C 0.74737 0.77044 1.02114 0.0
C223 C 0.77704 0.76043 1.04105 0.0
H224 H 0.75395 0.83799 0.12003 0.0
H225 H 0.73233 0.75769 0.98136 0.0
H226 H 0.70579 0.89585 1.02655 0.0
H227 H 0.8344 0.94977 0.98633 0.0
H228 H 0.59711 0.66137 0.0742 0.0
H229 H 0.80744 0.82279 0.15672 0.0
H230 H 0.7838 0.73957 1.01675 0.0
C231 C 0.11172 0.89836 0.99126 0.0
C232 C 0.0683 0.8735 0.99337 0.0
N233 N 0.05878 0.83429 1.00874 0.0
N234 N 0.12926 0.87489 1.00589 0.0
C235 C 0.09617 0.83583 1.01481 0.0
H236 H 0.12938 0.93157 0.98077 0.0
Co237 Co 0.18638 0.89125 1.00939 0.0
C238 C 0.15525 0.83924 0.11988 0.0
O239 O 0.12061 0.84047 0.12986 0.0
N240 N 0.2437 0.90706 1.0126 0.0
C241 C 0.30811 0.92707 1.04559 0.0
C242 C 0.26633 0.91082 0.05926 0.0
C243 C 0.27234 0.92071 0.97076 0.0
N244 N 0.31156 0.93316 0.99008 0.0
O245 O 0.17511 0.84415 0.96303 0.0
H246 H 0.25367 0.9032 0.10098 0.0
H247 H 0.26488 0.92329 0.92765 0.0
O248 O 0.17818 0.85754 0.07715 0.0
C249 C 0.16936 0.84854 0.91129 0.0
O250 O 0.17288 0.88423 0.89388 0.0
N251 N 0.19821 0.94013 1.04998 0.0
C252 C 0.21593 0.01905 0.09012 0.0
C253 C 0.18821 0.98211 0.11915 0.0
C254 C 0.17992 0.94281 0.09849 0.0
C255 C 0.22493 0.9759 1.02127 0.0
C256 C 0.23494 0.01558 1.04117 0.0
H257 H 0.15745 0.91495 0.12023 0.0
H258 H 0.23765 0.9736 0.98146 0.0
H259 H 0.09938 0.80898 1.02651 0.0
H260 H 0.04562 0.88388 0.98675 0.0
H261 H 0.33387 0.9343 0.07409 0.0
H262 H 0.17265 0.98365 0.1569 0.0
H263 H 0.25578 0.0432 1.01684 0.0
C264 C 0.09673 0.21228 0.99095 0.0
C265 C 0.12157 0.19371 0.99311 0.0
N266 N 0.16076 0.22336 1.00864 0.0
N267 N 0.12018 0.25327 1.00572 0.0
C268 C 0.15921 0.2592 1.01476 0.0
H269 H 0.06354 0.19676 0.98034 0.0
Co270 Co 0.10383 0.29404 1.00923 0.0
C271 C 0.15579 0.3149 0.11979 0.0
O272 O 0.15454 0.27904 0.12985 0.0
N273 N 0.08803 0.33555 1.01246 0.0
C274 C 0.068 0.37993 1.04552 0.0
C275 C 0.08421 0.35436 0.05916 0.0
C276 C 0.07445 0.35063 0.97064 0.0
N277 N 0.06199 0.37738 0.98999 0.0
O278 O 0.15094 0.32987 0.96291 0.0
H279 H 0.09175 0.34924 0.10088 0.0
H280 H 0.07193 0.34066 0.92751 0.0
O281 O 0.13752 0.31952 0.07702 0.0
C282 C 0.14657 0.31976 0.91116 0.0
O283 O 0.11089 0.2876 0.89371 0.0
N284 N 0.05493 0.25697 1.04979 0.0
C285 C 0.97601 0.19581 0.08996 0.0
C286 C 0.01295 0.20487 0.11886 0.0
C287 C 0.05226 0.23588 0.09818 0.0
C288 C 0.01915 0.24804 1.0212 0.0
C289 C 0.97946 0.21839 1.04112 0.0
H290 H 0.08012 0.24114 0.11979 0.0
H291 H 0.02143 0.26313 0.98146 0.0
H292 H 0.18605 0.28925 1.02657 0.0
H293 H 0.1112 0.16065 0.9864 0.0
H294 H 0.06073 0.39841 0.07405 0.0
H295 H 0.01143 0.18769 0.15649 0.0
H296 H 0.95184 0.21171 1.01688 0.0
C297 C 0.88255 0.78384 0.62467 0.0
C298 C 0.92597 0.80239 0.62255 0.0
N299 N 0.93548 0.77269 0.60717 0.0
N300 N 0.865 0.74283 0.61004 0.0
C301 C 0.89808 0.73685 0.60111 0.0
H302 H 0.8649 0.7994 0.63516 0.0
Co303 Co 0.80787 0.70208 0.60654 0.0
C304 C 0.83899 0.68119 0.49605 0.0
O305 O 0.87362 0.71705 0.48605 0.0
N306 N 0.75055 0.6606 0.60332 0.0
C307 C 0.68614 0.61621 0.57029 0.0
C308 C 0.72792 0.64174 0.55665 0.0
C309 C 0.7219 0.64559 0.64514 0.0
N310 N 0.68268 0.61883 0.62581 0.0
O311 O 0.81912 0.66624 0.65289 0.0
H312 H 0.74059 0.6468 0.51493 0.0
H313 H 0.72935 0.6556 0.68826 0.0
O314 O 0.81606 0.67656 0.53878 0.0
C315 C 0.82486 0.67637 0.70464 0.0
O316 O 0.82136 0.70854 0.72206 0.0
N317 N 0.79607 0.73915 0.56595 0.0
C318 C 0.77832 0.80032 0.52579 0.0
C319 C 0.80603 0.79111 0.49674 0.0
C320 C 0.81433 0.7601 0.51742 0.0
C321 C 0.76937 0.74822 0.59468 0.0
C322 C 0.75935 0.77788 0.57478 0.0
H323 H 0.83678 0.75469 0.49566 0.0
H324 H 0.75667 0.73322 0.6345 0.0
H325 H 0.89486 0.70678 0.58941 0.0
H326 H 0.94867 0.83545 0.62915 0.0
H327 H 0.66039 0.59769 0.54178 0.0
H328 H 0.82156 0.80817 0.45898 0.0
H329 H 0.73852 0.78467 0.59912 0.0
C330 C 0.21133 0.09778 0.62463 0.0
C331 C 0.19279 0.12267 0.6225 0.0
N332 N 0.2225 0.16187 0.60711 0.0
N333 N 0.25234 0.12123 0.60998 0.0
C334 C 0.25833 0.1603 0.60105 0.0
H335 H 0.19576 0.06458 0.63513 0.0
Co336 Co 0.29307 0.10483 0.60647 0.0
C337 C 0.31396 0.15682 0.49598 0.0
O338 O 0.2781 0.15561 0.48599 0.0
N339 N 0.33452 0.08895 0.60324 0.0
C340 C 0.37883 0.06884 0.57018 0.0
C341 C 0.35328 0.08508 0.55654 0.0
C342 C 0.34959 0.07537 0.64507 0.0
N343 N 0.37631 0.06286 0.62571 0.0
O344 O 0.32893 0.15191 0.65282 0.0
H345 H 0.34815 0.09261 0.51482 0.0
H346 H 0.33965 0.0729 0.68821 0.0
O347 O 0.31859 0.13853 0.53871 0.0
C348 C 0.31881 0.14752 0.70457 0.0
O349 O 0.28663 0.11184 0.72199 0.0
N350 N 0.25597 0.05595 0.56591 0.0
C351 C 0.1948 0.97703 0.52579 0.0
C352 C 0.20403 0.01395 0.4967 0.0
C353 C 0.23504 0.05326 0.51735 0.0
C354 C 0.24689 0.0202 0.59468 0.0
C355 C 0.21722 0.98051 0.57479 0.0
H356 H 0.24047 0.08111 0.49556 0.0
H357 H 0.26189 0.02252 0.6345 0.0
H358 H 0.2884 0.18714 0.58933 0.0
H359 H 0.15973 0.11231 0.62912 0.0
H360 H 0.39728 0.06153 0.54165 0.0
H361 H 0.18698 0.0124 0.45892 0.0
H362 H 0.21042 0.9529 0.59916 0.0
C363 C 0.89742 0.11262 0.62463 0.0
C364 C 0.87254 0.0692 0.62252 0.0
N365 N 0.83334 0.05969 0.60711 0.0
N366 N 0.87396 0.13017 0.60996 0.0
C367 C 0.8349 0.09709 0.60103 0.0
H368 H 0.93062 0.13027 0.63515 0.0
Co369 Co 0.89035 0.1873 0.60645 0.0
C370 C 0.83835 0.15619 0.49595 0.0
O371 O 0.83957 0.12155 0.48596 0.0
N372 N 0.90621 0.24463 0.60323 0.0
C373 C 0.92629 0.30905 0.57018 0.0
C374 C 0.91005 0.26726 0.55654 0.0
C375 C 0.9198 0.27327 0.64506 0.0
N376 N 0.93229 0.3125 0.62572 0.0
O377 O 0.84326 0.17606 0.65279 0.0
H378 H 0.9025 0.2546 0.51481 0.0
H379 H 0.9223 0.26581 0.68819 0.0
O380 O 0.85665 0.17911 0.53868 0.0
C381 C 0.84762 0.17031 0.70454 0.0
O382 O 0.88329 0.1738 0.72198 0.0
N383 N 0.93923 0.19909 0.56588 0.0
C384 C 0.01815 0.21683 0.52574 0.0
C385 C 0.98122 0.18911 0.49669 0.0
C386 C 0.94191 0.18081 0.51735 0.0
C387 C 0.97499 0.22579 0.59461 0.0
C388 C 0.01468 0.23581 0.57471 0.0
H389 H 0.91406 0.15836 0.4956 0.0
H390 H 0.97269 0.2385 0.63442 0.0
H391 H 0.80806 0.10031 0.58929 0.0
H392 H 0.88291 0.0465 0.62916 0.0
H393 H 0.93357 0.3348 0.54167 0.0
H394 H 0.98275 0.17357 0.45893 0.0
H395 H 0.04229 0.25664 0.59905 0.0
C396 C 0.87801 0.446 0.45795 0.0
C397 C 0.85947 0.40258 0.45589 0.0
N398 N 0.88919 0.39306 0.44062 0.0
N399 N 0.91902 0.46354 0.44334 0.0
C400 C 0.92501 0.43046 0.43448 0.0
H401 H 0.86244 0.46365 0.46838 0.0
Co402 Co 0.95977 0.52067 0.43981 0.0
C403 C 0.98063 0.48952 0.32935 0.0
O404 O 0.94477 0.45489 0.31938 0.0
N405 N 0.00125 0.578 0.43658 0.0
C406 C 0.04561 0.64241 0.40355 0.0
C407 C 0.02007 0.60063 0.3899 0.0
C408 C 0.01628 0.60664 0.47841 0.0
N409 N 0.04301 0.64587 0.45907 0.0
O410 O 0.99562 0.50943 0.48616 0.0
H411 H 0.015 0.58796 0.34818 0.0
H412 H 0.00631 0.59918 0.52154 0.0
O413 O 0.98528 0.51247 0.37206 0.0
C414 C 0.98548 0.50367 0.5379 0.0
O415 O 0.95331 0.50718 0.55533 0.0
N416 N 0.92269 0.53246 0.39924 0.0
C417 C 0.86147 0.55016 0.35915 0.0
C418 C 0.87067 0.52244 0.33009 0.0
C419 C 0.90171 0.51417 0.35073 0.0
C420 C 0.91364 0.55917 0.42797 0.0
C421 C 0.88395 0.56917 0.40809 0.0
H422 H 0.9071 0.49171 0.32898 0.0
H423 H 0.92866 0.57189 0.46777 0.0
H424 H 0.95508 0.43368 0.42277 0.0
H425 H 0.8264 0.37988 0.46247 0.0
H426 H 0.06412 0.66816 0.37504 0.0
H427 H 0.85358 0.50688 0.29236 0.0
H428 H 0.87717 0.59 0.43244 0.0
C429 C 0.54919 0.43106 0.45799 0.0
C430 C 0.5926 0.45594 0.45593 0.0
N431 N 0.60212 0.49517 0.44064 0.0
N432 N 0.53164 0.45452 0.44336 0.0
C433 C 0.56472 0.49359 0.43449 0.0
H434 H 0.53154 0.39784 0.46843 0.0
Co435 Co 0.47451 0.43813 0.43982 0.0
C436 C 0.50565 0.49014 0.32934 0.0
O437 O 0.54029 0.48892 0.31938 0.0
N438 N 0.41718 0.42227 0.43656 0.0
C439 C 0.35277 0.40215 0.40345 0.0
C440 C 0.39455 0.41837 0.38984 0.0
C441 C 0.38853 0.40871 0.47837 0.0
N442 N 0.34931 0.39618 0.45899 0.0
O443 O 0.48573 0.48522 0.48616 0.0
H444 H 0.40723 0.4259 0.34812 0.0
H445 H 0.39599 0.40627 0.52153 0.0
O446 O 0.4827 0.47183 0.37206 0.0
C447 C 0.4915 0.48085 0.53791 0.0
O448 O 0.48801 0.44518 0.55535 0.0
N449 N 0.46273 0.38925 0.39924 0.0
C450 C 0.44503 0.31034 0.35914 0.0
C451 C 0.47279 0.34727 0.33012 0.0
C452 C 0.48106 0.38658 0.35076 0.0
C453 C 0.436 0.35349 0.42794 0.0
C454 C 0.42599 0.31381 0.40806 0.0
H455 H 0.50355 0.41444 0.32904 0.0
H456 H 0.42325 0.35579 0.46772 0.0
H457 H 0.5615 0.52043 0.42276 0.0
H458 H 0.6153 0.44557 0.46252 0.0
H459 H 0.32702 0.39485 0.37492 0.0
H460 H 0.48837 0.34574 0.29241 0.0
H461 H 0.40514 0.28619 0.43238 0.0
C462 C 0.56409 0.11715 0.45797 0.0
C463 C 0.5392 0.13568 0.4559 0.0
N464 N 0.49998 0.10597 0.44059 0.0
N465 N 0.54063 0.07614 0.44333 0.0
C466 C 0.50157 0.07015 0.43444 0.0
H467 H 0.5973 0.13272 0.46842 0.0
Co468 Co 0.55702 0.0354 0.43981 0.0
C469 C 0.50502 0.01451 0.32933 0.0
O470 O 0.50624 0.05036 0.31933 0.0
N471 N 0.57288 0.99392 0.43659 0.0
C472 C 0.59291 0.94955 0.40356 0.0
C473 C 0.57667 0.97508 0.38991 0.0
C474 C 0.58651 0.97891 0.47842 0.0
N475 N 0.59899 0.95216 0.45908 0.0
O476 O 0.50994 -0.00045 0.48616 0.0
H477 H 0.56905 0.98014 0.3482 0.0
H478 H 0.58903 0.98889 0.52154 0.0
O479 O 0.52332 0.00988 0.37206 0.0
C480 C 0.51431 0.00969 0.5379 0.0
O481 O 0.54999 0.04187 0.55533 0.0
N482 N 0.6059 0.07249 0.39923 0.0
C483 C 0.68481 0.13371 0.35913 0.0
C484 C 0.64788 0.12453 0.33011 0.0
C485 C 0.60857 0.09349 0.35075 0.0
C486 C 0.64167 0.08152 0.42793 0.0
C487 C 0.68135 0.11121 0.40805 0.0
H488 H 0.58071 0.08812 0.32904 0.0
H489 H 0.63937 0.06648 0.46772 0.0
H490 H 0.47472 0.04008 0.42271 0.0
H491 H 0.54957 0.16875 0.4625 0.0
H492 H 0.60013 0.93102 0.37505 0.0
H493 H 0.64941 0.14164 0.2924 0.0
H494 H 0.70896 0.11798 0.43237 0.0
C495 C 0.77834 0.54561 0.82471 0.0
C496 C 0.73492 0.52708 0.82677 0.0
N497 N 0.7254 0.55681 0.84196 0.0
N498 N 0.79588 0.58664 0.83924 0.0
C499 C 0.7628 0.59264 0.84805 0.0
H500 H 0.79598 0.53003 0.81435 0.0
Co501 Co 0.85301 0.62737 0.84274 0.0
C502 C 0.82188 0.6483 0.95315 0.0
O503 O 0.78725 0.61244 0.96314 0.0
N504 N 0.91034 0.66882 0.84595 0.0
C505 C 0.97477 0.71314 0.87898 0.0
C506 C 0.93299 0.68762 0.89264 0.0
C507 C 0.93898 0.68383 0.80412 0.0
N508 N 0.97821 0.71056 0.82345 0.0
O509 O 0.8418 0.66322 0.79635 0.0
H510 H 0.92033 0.68254 0.93436 0.0
H511 H 0.93152 0.67387 0.76099 0.0
O512 O 0.84484 0.65293 0.91046 0.0
C513 C 0.83605 0.65309 0.74461 0.0
O514 O 0.83954 0.6209 0.7272 0.0
N515 N 0.86479 0.5903 0.88334 0.0
C516 C 0.88251 0.52908 0.92339 0.0
C517 C 0.85494 0.53842 0.9526 0.0
C518 C 0.84666 0.56946 0.93199 0.0
C519 C 0.89135 0.58112 0.85446 0.0
C520 C 0.90135 0.55143 0.8743 0.0
H521 H 0.82435 0.57499 0.9539 0.0
H522 H 0.90395 0.59606 0.81458 0.0
H523 H 0.76603 0.62272 0.8597 0.0
H524 H 0.71222 0.494 0.82026 0.0
H525 H 0.00053 0.73162 0.90749 0.0
H526 H 0.83953 0.52144 0.99047 0.0
H527 H 0.92206 0.54454 0.84984 0.0
C528 C 0.44956 0.23183 0.82478 0.0
C529 C 0.46811 0.20695 0.82686 0.0
N530 N 0.43838 0.16769 0.84197 0.0
N531 N 0.40852 0.20831 0.83922 0.0
C532 C 0.40253 0.16924 0.84799 0.0
H533 H 0.46515 0.26506 0.81446 0.0
Co534 Co 0.36776 0.22467 0.84269 0.0
C535 C 0.34685 0.1726 0.95309 0.0
O536 O 0.38272 0.17385 0.96306 0.0
N537 N 0.32627 0.24051 0.84587 0.0
C538 C 0.28184 0.26049 0.87883 0.0
C539 C 0.30737 0.24424 0.89251 0.0
C540 C 0.31131 0.25418 0.80402 0.0
N541 N 0.28452 0.26661 0.82332 0.0
O542 O 0.33194 0.1776 0.79629 0.0
H543 H 0.31237 0.23658 0.93423 0.0
H544 H 0.32136 0.25677 0.76092 0.0
O545 O 0.34221 0.19093 0.91041 0.0
C546 C 0.34208 0.18198 0.74455 0.0
O547 O 0.37426 0.21767 0.72714 0.0
N548 N 0.4048 0.27354 0.8833 0.0
C549 C 0.46601 0.35247 0.92336 0.0
C550 C 0.45668 0.31557 0.95256 0.0
C551 C 0.42564 0.27625 0.93194 0.0
C552 C 0.41396 0.30928 0.85444 0.0
C553 C 0.44365 0.34897 0.87429 0.0
H554 H 0.42013 0.24841 0.95384 0.0
H555 H 0.39901 0.30694 0.81457 0.0
H556 H 0.37244 0.14236 0.85958 0.0
H557 H 0.5012 0.21736 0.82041 0.0
H558 H 0.26329 0.2677 0.90731 0.0
H559 H 0.47367 0.31713 0.99041 0.0
H560 H 0.45053 0.37657 0.84985 0.0
C561 C 0.76337 0.21688 0.82469 0.0
C562 C 0.78826 0.26029 0.82675 0.0
N563 N 0.82753 0.2698 0.84182 0.0
N564 N 0.78686 0.19932 0.8391 0.0
C565 C 0.82596 0.2324 0.84782 0.0
H566 H 0.73012 0.19924 0.81442 0.0
Co567 Co 0.77046 0.14219 0.84263 0.0
C568 C 0.82255 0.17339 0.953 0.0
O569 O 0.82133 0.20804 0.9629 0.0
N570 N 0.75457 0.08486 0.84588 0.0
C571 C 0.73443 0.02044 0.87896 0.0
C572 C 0.75068 0.06223 0.89259 0.0
C573 C 0.74099 0.05622 0.80406 0.0
N574 N 0.72847 0.01699 0.82342 0.0
O575 O 0.81752 0.15339 0.79624 0.0
H576 H 0.75821 0.0749 0.93431 0.0
H577 H 0.73853 0.06368 0.76091 0.0
O578 O 0.8042 0.15039 0.91035 0.0
C579 C 0.81315 0.15914 0.74449 0.0
O580 O 0.77748 0.15566 0.72706 0.0
N581 N 0.72162 0.13043 0.88323 0.0
C582 C 0.6427 0.11271 0.92333 0.0
C583 C 0.67961 0.14027 0.95254 0.0
C584 C 0.71892 0.14855 0.9319 0.0
C585 C 0.68588 0.10388 0.85436 0.0
C586 C 0.64619 0.09388 0.87422 0.0
H587 H 0.74676 0.17085 0.95382 0.0
H588 H 0.68821 0.09128 0.81447 0.0
H589 H 0.85282 0.22916 0.85939 0.0
H590 H 0.77786 0.28299 0.82034 0.0
H591 H 0.72711 0.99469 0.90749 0.0
H592 H 0.67805 0.15567 0.99042 0.0
H593 H 0.61859 0.07317 0.84977 0.0
C594 C 0.44957 0.21683 0.32456 0.0
C595 C 0.46812 0.26025 0.32668 0.0
N596 N 0.43841 0.26975 0.34201 0.0
N597 N 0.40855 0.19928 0.33914 0.0
C598 C 0.40257 0.23236 0.34803 0.0
H599 H 0.46514 0.19918 0.3141 0.0
Co600 Co 0.36781 0.14215 0.34264 0.0
C601 C 0.3469 0.17329 0.45309 0.0
O602 O 0.38276 0.20792 0.46309 0.0
N603 N 0.32634 0.08483 0.34585 0.0
C604 C 0.28196 0.02041 0.37888 0.0
C605 C 0.30749 0.0622 0.39253 0.0
C606 C 0.31135 0.05618 0.30403 0.0
N607 N 0.28459 0.01695 0.32336 0.0
O608 O 0.33196 0.15339 0.29627 0.0
H609 H 0.31253 0.07487 0.43424 0.0
H610 H 0.32136 0.06363 0.26092 0.0
O611 O 0.34227 0.15035 0.41038 0.0
C612 C 0.34209 0.15915 0.24452 0.0
O613 O 0.37428 0.15567 0.22709 0.0
N614 N 0.40488 0.13036 0.38323 0.0
C615 C 0.46606 0.11263 0.42337 0.0
C616 C 0.45678 0.14027 0.45249 0.0
C617 C 0.42576 0.14856 0.43183 0.0
C618 C 0.414 0.10373 0.35444 0.0
C619 C 0.44368 0.09372 0.37433 0.0
H620 H 0.42029 0.17094 0.45366 0.0
H621 H 0.39904 0.09108 0.31459 0.0
H622 H 0.37249 0.22914 0.3597 0.0
H623 H 0.50119 0.28294 0.32011 0.0
H624 H 0.26345 0.99466 0.40739 0.0
H625 H 0.47379 0.15574 0.49031 0.0
H626 H 0.45052 0.07295 0.34994 0.0
C627 C 0.7783 0.23178 0.32455 0.0
C628 C 0.73488 0.2069 0.32668 0.0
N629 N 0.72539 0.16768 0.342 0.0
N630 N 0.79586 0.20831 0.33913 0.0
C631 C 0.76279 0.16925 0.34802 0.0
H632 H 0.79594 0.26499 0.3141 0.0
Co633 Co 0.85299 0.22471 0.34262 0.0
C634 C 0.82188 0.17266 0.45307 0.0
O635 O 0.78725 0.17389 0.46308 0.0
N636 N 0.91032 0.24057 0.34583 0.0
C637 C 0.97474 0.26064 0.37886 0.0
C638 C 0.93296 0.24439 0.39251 0.0
C639 C 0.93896 0.2542 0.304 0.0
N640 N 0.97819 0.26668 0.32334 0.0
O641 O 0.84176 0.17764 0.29623 0.0
H642 H 0.92029 0.2368 0.43423 0.0
H643 H 0.93151 0.25672 0.26087 0.0
O644 O 0.84481 0.19098 0.41035 0.0
C645 C 0.83602 0.18204 0.24449 0.0
O646 O 0.83952 0.21772 0.22709 0.0
N647 N 0.86478 0.27357 0.38323 0.0
C648 C 0.88252 0.35248 0.42339 0.0
C649 C 0.85486 0.31555 0.45249 0.0
C650 C 0.84657 0.27624 0.43181 0.0
C651 C 0.89143 0.30933 0.35445 0.0
C652 C 0.90145 0.34901 0.37436 0.0
H653 H 0.82417 0.24839 0.45362 0.0
H654 H 0.90409 0.30702 0.31461 0.0
H655 H 0.76602 0.14239 0.35968 0.0
H656 H 0.71218 0.21726 0.32012 0.0
H657 H 0.00049 0.2679 0.40737 0.0
H658 H 0.83938 0.31709 0.49029 0.0
H659 H 0.92223 0.37662 0.34999 0.0
C660 C 0.76342 0.54561 0.32454 0.0
C661 C 0.7883 0.52708 0.32665 0.0
N662 N 0.82751 0.55679 0.34201 0.0
N663 N 0.78688 0.58662 0.33917 0.0
C664 C 0.82594 0.59262 0.34807 0.0
H665 H 0.73021 0.53004 0.31407 0.0
Co666 Co 0.77048 0.62735 0.3427 0.0
C667 C 0.82251 0.64825 0.45316 0.0
O668 O 0.82128 0.61239 0.46315 0.0
N669 N 0.75461 0.66881 0.34595 0.0
C670 C 0.73449 0.71311 0.37902 0.0
C671 C 0.75073 0.68756 0.39265 0.0
C672 C 0.74105 0.68389 0.30412 0.0
N673 N 0.72854 0.71061 0.32348 0.0
O674 O 0.81756 0.66322 0.29634 0.0
H675 H 0.75825 0.68242 0.43438 0.0
H676 H 0.73859 0.67397 0.26097 0.0
O677 O 0.8042 0.65288 0.41045 0.0
C678 C 0.81318 0.65311 0.24459 0.0
O679 O 0.7775 0.62094 0.22715 0.0
N680 N 0.72161 0.59026 0.38328 0.0
C681 C 0.6427 0.52909 0.42342 0.0
C682 C 0.67963 0.53832 0.4525 0.0
C683 C 0.71894 0.56934 0.43184 0.0
C684 C 0.68586 0.58117 0.35452 0.0
C685 C 0.64617 0.5515 0.37442 0.0
H686 H 0.74679 0.57477 0.45363 0.0
H687 H 0.68816 0.59617 0.3147 0.0
H688 H 0.85279 0.62269 0.35977 0.0
H689 H 0.77794 0.49401 0.32005 0.0
H690 H 0.72719 0.73156 0.40755 0.0
H691 H 0.67809 0.52128 0.49029 0.0
H692 H 0.61856 0.5447 0.35005 0.0
C693 C 0.5492 0.11717 0.9582 0.0
C694 C 0.59262 0.13572 0.95607 0.0
N695 N 0.60212 0.10605 0.94052 0.0
N696 N 0.53165 0.07619 0.94341 0.0
C697 C 0.56472 0.07023 0.93438 0.0
H698 H 0.53155 0.13271 0.96882 0.0
Co699 Co 0.47452 0.03545 0.93987 0.0
C700 C 0.50561 0.01459 0.82931 0.0
O701 O 0.54023 0.05044 0.81927 0.0
N702 N 0.4172 0.99397 0.93661 0.0
C703 C 0.35279 0.94964 0.90352 0.0
C704 C 0.39457 0.97523 0.8899 0.0
C705 C 0.38856 0.97885 0.97844 0.0
N706 N 0.34933 0.95213 0.95906 0.0
O707 O 0.48576 -0.00041 0.98618 0.0
H708 H 0.40724 0.98039 0.84817 0.0
H709 H 0.39601 0.98874 1.02159 0.0
O710 O 0.48272 0.00997 0.87208 0.0
C711 C 0.49151 0.0097 1.03793 0.0
O712 O 0.488 0.04187 1.05538 0.0
N713 N 0.46273 0.07256 0.89932 0.0
C714 C 0.44502 0.13375 0.85916 0.0
C715 C 0.47289 0.12467 0.83026 0.0
C716 C 0.48117 0.09365 0.85093 0.0
C717 C 0.43589 0.0815 0.92791 0.0
C718 C 0.42588 0.11117 0.90799 0.0
H719 H 0.50376 0.08838 0.82933 0.0
H720 H 0.42307 0.0664 0.96764 0.0
H721 H 0.5615 0.04018 0.92255 0.0
H722 H 0.61532 0.16877 0.9628 0.0
H723 H 0.32705 0.93118 0.87499 0.0
H724 H 0.48855 0.14185 0.79262 0.0
H725 H 0.40494 0.11786 0.93223 0.0
C726 C 0.87803 0.43109 0.95818 0.0
C727 C 0.85949 0.45597 0.95607 0.0
N728 N 0.88916 0.49515 0.94055 0.0
N729 N 0.91901 0.45452 0.94339 0.0
C730 C 0.92498 0.49357 0.93439 0.0
H731 H 0.86249 0.3979 0.96877 0.0
Co732 Co 0.95975 0.43814 0.93984 0.0
C733 C 0.98063 0.49012 0.82931 0.0
O734 O 0.94478 0.48892 0.81928 0.0
N735 N 0.00125 0.4223 0.93657 0.0
C736 C 0.04559 0.40225 0.90347 0.0
C737 C 0.02003 0.41847 0.88986 0.0
C738 C 0.01633 0.40873 0.97838 0.0
N739 N 0.04305 0.39623 0.959 0.0
O740 O 0.99561 0.48523 0.98618 0.0
H741 H 0.0149 0.42602 0.84814 0.0
H742 H 0.0064 0.40624 1.02153 0.0
O743 O 0.98524 0.47184 0.87207 0.0
C744 C 0.98548 0.48086 1.03792 0.0
O745 O 0.95331 0.44517 1.05535 0.0
N746 N 0.92266 0.38926 0.89925 0.0
C747 C 0.86148 0.31038 0.85902 0.0
C748 C 0.87053 0.34734 0.83019 0.0
C749 C 0.90154 0.38663 0.8509 0.0
C750 C 0.91374 0.35346 0.92778 0.0
C751 C 0.88408 0.31379 0.90782 0.0
H752 H 0.90679 0.41451 0.82936 0.0
H753 H 0.92885 0.3557 0.96749 0.0
H754 H 0.95503 0.5204 0.92258 0.0
H755 H 0.82644 0.44562 0.9628 0.0
H756 H 0.06407 0.39499 0.87493 0.0
H757 H 0.85333 0.34585 0.79259 0.0
H758 H 0.87742 0.28615 0.932 0.0
C759 C 0.56405 0.44596 0.95807 0.0
C760 C 0.53915 0.40254 0.95596 0.0
N761 N 0.49997 0.39305 0.9405 0.0
N762 N 0.54062 0.46353 0.94335 0.0
C763 C 0.50156 0.43046 0.93438 0.0
H764 H 0.59724 0.46359 0.96862 0.0
Co765 Co 0.55703 0.52066 0.93984 0.0
C766 C 0.50505 0.48958 0.82932 0.0
O767 O 0.50627 0.45494 0.81931 0.0
N768 N 0.57291 0.578 0.93662 0.0
C769 C 0.59294 0.64242 0.90359 0.0
C770 C 0.57667 0.60063 0.88995 0.0
C771 C 0.58659 0.60666 0.97844 0.0
N772 N 0.59908 0.64589 0.9591 0.0
O773 O 0.50994 0.50943 0.98618 0.0
H774 H 0.56901 0.58795 0.84824 0.0
H775 H 0.58915 0.59921 1.02156 0.0
O776 O 0.52334 0.51249 0.87207 0.0
C777 C 0.51431 0.50367 1.03792 0.0
O778 O 0.54999 0.50715 1.05535 0.0
N779 N 0.60591 0.53244 0.89928 0.0
C780 C 0.68482 0.55016 0.85915 0.0
C781 C 0.64789 0.52243 0.83012 0.0
C782 C 0.60859 0.51414 0.85078 0.0
C783 C 0.64168 0.55916 0.928 0.0
C784 C 0.68136 0.56917 0.90811 0.0
H785 H 0.58073 0.49167 0.82904 0.0
H786 H 0.63938 0.57188 0.9678 0.0
H787 H 0.47473 0.4337 0.92262 0.0
H788 H 0.54949 0.37982 0.96264 0.0
H789 H 0.60015 0.66816 0.87509 0.0
H790 H 0.64943 0.50687 0.79239 0.0
H791 H 0.70897 0.59001 0.93244 0.0
C792 C 0.54461 0.77934 0.79113 0.0
C793 C 0.52607 0.73593 0.78906 0.0
N794 N 0.55581 0.72641 0.77392 0.0
N795 N 0.58565 0.79689 0.77665 0.0
C796 C 0.59165 0.7638 0.76788 0.0
H797 H 0.52902 0.79699 0.80145 0.0
Co798 Co 0.62639 0.85401 0.77314 0.0
C799 C 0.64729 0.82284 0.66275 0.0
O800 O 0.61142 0.7882 0.65279 0.0
N801 N 0.66785 0.91134 0.76992 0.0
C802 C 0.71223 0.97575 0.7369 0.0
C803 C 0.68671 0.93396 0.72325 0.0
C804 C 0.68283 0.93999 0.81174 0.0
N805 N 0.70957 0.97922 0.7924 0.0
O806 O 0.66223 0.84279 0.81953 0.0
H807 H 0.68169 0.92129 0.68154 0.0
H808 H 0.67282 0.93254 0.85486 0.0
O809 O 0.65193 0.84581 0.70543 0.0
C810 C 0.6521 0.83701 0.87127 0.0
O811 O 0.61991 0.84048 0.8887 0.0
N812 N 0.58932 0.8658 0.73254 0.0
C813 C 0.52811 0.8835 0.69246 0.0
C814 C 0.53744 0.85593 0.66327 0.0
C815 C 0.56848 0.84766 0.6839 0.0
C816 C 0.58015 0.89237 0.7614 0.0
C817 C 0.55046 0.90237 0.74154 0.0
H818 H 0.57401 0.82534 0.662 0.0
H819 H 0.59509 0.90498 0.80127 0.0
H820 H 0.62174 0.76703 0.75626 0.0
H821 H 0.49299 0.71324 0.79552 0.0
H822 H 0.73076 0.0015 0.70839 0.0
H823 H 0.52046 0.8405 0.62542 0.0
H824 H 0.54357 0.92308 0.76598 0.0
C825 C 0.21587 0.76432 0.79113 0.0
C826 C 0.25928 0.78921 0.78905 0.0
N827 N 0.26879 0.82847 0.77393 0.0
N828 N 0.19831 0.78781 0.77666 0.0
C829 C 0.23138 0.82689 0.76789 0.0
H830 H 0.19823 0.73108 0.80145 0.0
Co831 Co 0.14118 0.77141 0.77316 0.0
C832 C 0.17233 0.82349 0.66277 0.0
O833 O 0.20697 0.82226 0.6528 0.0
N834 N 0.08385 0.75554 0.76995 0.0
C835 C 0.01944 0.73548 0.73691 0.0
C836 C 0.06122 0.75174 0.72327 0.0
C837 C 0.05521 0.7419 0.81177 0.0
N838 N 0.01598 0.72941 0.79243 0.0
O839 O 0.1524 0.81847 0.81957 0.0
H840 H 0.07389 0.75935 0.68155 0.0
H841 H 0.06267 0.73939 0.8549 0.0
O842 O 0.14937 0.80516 0.70545 0.0
C843 C 0.15816 0.81408 0.87131 0.0
O844 O 0.15466 0.77839 0.88871 0.0
N845 N 0.1294 0.72257 0.73254 0.0
C846 C 0.11169 0.64365 0.69244 0.0
C847 C 0.13928 0.68056 0.66327 0.0
C848 C 0.14756 0.71988 0.68391 0.0
C849 C 0.10282 0.68682 0.76138 0.0
C850 C 0.09281 0.64713 0.74151 0.0
H851 H 0.16989 0.74772 0.66203 0.0
H852 H 0.09019 0.68914 0.80125 0.0
H853 H 0.22815 0.85376 0.75628 0.0
H854 H 0.28198 0.77882 0.79551 0.0
H855 H 0.99369 0.72825 0.70841 0.0
H856 H 0.15472 0.67901 0.62543 0.0
H857 H 0.07209 0.61953 0.76594 0.0
C858 C 0.23082 0.45055 0.79114 0.0
C859 C 0.20593 0.46908 0.78908 0.0
N860 N 0.16668 0.43934 0.77391 0.0
N861 N 0.20734 0.40952 0.77662 0.0
C862 C 0.16826 0.40351 0.76784 0.0
H863 H 0.26406 0.46614 0.80148 0.0
Co864 Co 0.22374 0.36879 0.77308 0.0
C865 C 0.17167 0.3479 0.66268 0.0
O866 O 0.1729 0.38376 0.65273 0.0
N867 N 0.23961 0.32734 0.76983 0.0
C868 C 0.25973 0.28303 0.73676 0.0
C869 C 0.24349 0.30858 0.72313 0.0
C870 C 0.25319 0.31228 0.81165 0.0
N871 N 0.26571 0.28557 0.79229 0.0
O872 O 0.17667 0.33293 0.81946 0.0
H873 H 0.23593 0.3137 0.6814 0.0
H874 H 0.25564 0.32219 0.8548 0.0
O875 O 0.19001 0.34326 0.70536 0.0
C876 C 0.18105 0.34304 0.87121 0.0
O877 O 0.21672 0.37522 0.88864 0.0
N878 N 0.27259 0.40587 0.73249 0.0
C879 C 0.35151 0.46709 0.69241 0.0
C880 C 0.31459 0.45779 0.66326 0.0
C881 C 0.27528 0.42675 0.68389 0.0
C882 C 0.30834 0.41501 0.76131 0.0
C883 C 0.34802 0.4447 0.74145 0.0
H884 H 0.24744 0.42127 0.66203 0.0
H885 H 0.30601 0.40004 0.80116 0.0
H886 H 0.1414 0.37342 0.75619 0.0
H887 H 0.21631 0.50216 0.79558 0.0
H888 H 0.267 0.26456 0.70824 0.0
H889 H 0.31614 0.47481 0.62544 0.0
H890 H 0.37562 0.45155 0.76587 0.0
C891 C 0.44503 0.87893 0.15782 0.0
C892 C 0.40161 0.86039 0.1599 0.0
N893 N 0.39209 0.8901 0.17519 0.0
N894 N 0.46257 0.91994 0.17244 0.0
C895 C 0.42949 0.92592 0.18132 0.0
H896 H 0.46268 0.86336 0.14738 0.0
Co897 Co 0.51969 0.96068 0.17597 0.0
C898 C 0.48856 0.98157 0.28644 0.0
O899 O 0.45393 0.9457 0.29644 0.0
N900 N 0.57701 0.00216 0.17922 0.0
C901 C 0.64142 0.04648 0.21229 0.0
C902 C 0.59965 0.02091 0.22592 0.0
C903 C 0.60565 0.01725 0.13739 0.0
N904 N 0.64488 0.04397 0.15675 0.0
O905 O 0.50846 0.99654 0.12962 0.0
H906 H 0.58698 0.01577 0.26765 0.0
H907 H 0.59819 0.00735 0.09423 0.0
O908 O 0.51149 0.9862 0.24372 0.0
C909 C 0.50271 0.98642 0.07788 0.0
O910 O 0.50621 0.95424 0.06043 0.0
N911 N 0.53148 0.9236 0.21655 0.0
C912 C 0.54917 0.86237 0.25664 0.0
C913 C 0.52143 0.87156 0.28567 0.0
C914 C 0.51317 0.90261 0.26504 0.0
C915 C 0.5582 0.91456 0.18784 0.0
C916 C 0.5682 0.88487 0.20771 0.0
H917 H 0.49069 0.90799 0.28677 0.0
H918 H 0.57094 0.9296 0.14805 0.0
H919 H 0.43271 0.95599 0.19305 0.0
H920 H 0.37892 0.82731 0.15332 0.0
H921 H 0.66718 0.06496 0.24081 0.0
H922 H 0.50586 0.85446 0.32339 0.0
H923 H 0.58904 0.8781 0.18338 0.0
C924 C 0.11621 0.56512 0.15785 0.0
C925 C 0.13474 0.54024 0.1599 0.0
N926 N 0.10503 0.50101 0.17516 0.0
N927 N 0.07519 0.54165 0.17246 0.0
C928 C 0.06921 0.50258 0.1813 0.0
H929 H 0.13177 0.59835 0.14743 0.0
Co930 Co 0.03445 0.55803 0.176 0.0
C931 C 0.01356 0.50598 0.28644 0.0
O932 O 0.04941 0.50719 0.29643 0.0
N933 N 0.99296 0.57387 0.17926 0.0
C934 C 0.94862 0.59393 0.21234 0.0
C935 C 0.97417 0.5777 0.22596 0.0
C936 C 0.9779 0.58746 0.13745 0.0
N937 N 0.95118 0.59996 0.15681 0.0
O938 O -0.0014 0.51096 0.12962 0.0
H939 H 0.97928 0.57013 0.26768 0.0
H940 H 0.98784 0.58995 0.0943 0.0
O941 O 0.00893 0.5243 0.24374 0.0
C942 C 0.00874 0.51533 0.07788 0.0
O943 O 0.04092 0.55101 0.06046 0.0
N944 N 0.07152 0.60689 0.21662 0.0
C945 C 0.13273 0.68578 0.25678 0.0
C946 C 0.12358 0.64883 0.28574 0.0
C947 C 0.09254 0.60954 0.26507 0.0
C948 C 0.08053 0.64267 0.18797 0.0
C949 C 0.11021 0.68234 0.20789 0.0
H950 H 0.08719 0.58167 0.28674 0.0
H951 H 0.06548 0.6404 0.1482 0.0
H952 H 0.03914 0.47573 0.19301 0.0
H953 H 0.16782 0.55062 0.15333 0.0
H954 H 0.93013 0.60119 0.24086 0.0
H955 H 0.1407 0.65034 0.32343 0.0
H956 H 0.11696 0.70997 0.18361 0.0
C957 C 0.43008 0.55016 0.15795 0.0
C958 C 0.45498 0.59357 0.16001 0.0
N959 N 0.49422 0.60307 0.17521 0.0
N960 N 0.45354 0.53259 0.1725 0.0
C961 C 0.49263 0.56567 0.18131 0.0
H962 H 0.39685 0.53252 0.14757 0.0
Co963 Co 0.43714 0.47546 0.17599 0.0
C964 C 0.48918 0.5066 0.28643 0.0
O965 O 0.48795 0.54123 0.2964 0.0
N966 N 0.42126 0.41812 0.1792 0.0
C967 C 0.40121 0.3537 0.21222 0.0
C968 C 0.4175 0.39549 0.22587 0.0
C969 C 0.40756 0.38947 0.13738 0.0
N970 N 0.39507 0.35024 0.15671 0.0
O971 O 0.48421 0.48668 0.12962 0.0
H972 H 0.42518 0.40817 0.26758 0.0
H973 H 0.40499 0.39693 0.09427 0.0
O974 O 0.47086 0.48364 0.24373 0.0
C975 C 0.47984 0.49246 0.07788 0.0
O976 O 0.44417 0.48898 0.06047 0.0
N977 N 0.38828 0.46368 0.21658 0.0
C978 C 0.30936 0.44598 0.25664 0.0
C979 C 0.34627 0.47359 0.28581 0.0
C980 C 0.38558 0.48186 0.26519 0.0
C981 C 0.35253 0.43708 0.18775 0.0
C982 C 0.31284 0.42709 0.2076 0.0
H983 H 0.41342 0.50421 0.28706 0.0
H984 H 0.35486 0.42445 0.14789 0.0
H985 H 0.51948 0.56243 0.19297 0.0
H986 H 0.44461 0.61628 0.15348 0.0
H987 H 0.39401 0.32796 0.24071 0.0
H988 H 0.34471 0.48905 0.32363 0.0
H989 H 0.28525 0.40635 0.18317 0.0
C990 C 0.1162 0.55015 0.6577 0.0
C991 C 0.13474 0.59357 0.65982 0.0
N992 N 0.10505 0.60307 0.67528 0.0
N993 N 0.07521 0.5326 0.67242 0.0
C994 C 0.06923 0.56567 0.68139 0.0
H995 H 0.13175 0.53251 0.64715 0.0
Co996 Co 0.03447 0.47547 0.67595 0.0
C997 C 0.01359 0.5066 0.78645 0.0
O998 O 0.04945 0.54122 0.79649 0.0
N999 N 0.99299 0.41814 0.6792 0.0
C1000 C 0.94862 0.35374 0.71225 0.0
C1001 C 0.97417 0.39552 0.72589 0.0
C1002 C 0.97795 0.38949 0.63738 0.0
N1003 N 0.95121 0.35027 0.65673 0.0
O1004 O -0.00138 0.48671 0.6296 0.0
H1005 H 0.97924 0.40819 0.7676 0.0
H1006 H 0.98791 0.39694 0.59424 0.0
O1007 O 0.00896 0.48368 0.74371 0.0
C1008 C 0.00875 0.49246 0.57786 0.0
O1009 O 0.04092 0.48895 0.56044 0.0
N1010 N 0.07155 0.46368 0.71654 0.0
C1011 C 0.13274 0.44597 0.75671 0.0
C1012 C 0.12359 0.47377 0.78567 0.0
C1013 C 0.09257 0.48205 0.76499 0.0
C1014 C 0.08056 0.43691 0.68789 0.0
C1015 C 0.11023 0.4269 0.70781 0.0
H1016 H 0.08724 0.50458 0.78666 0.0
H1017 H 0.06551 0.42414 0.64812 0.0
H1018 H 0.03917 0.56245 0.69316 0.0
H1019 H 0.1678 0.61627 0.65314 0.0
H1020 H 0.93011 0.32799 0.74076 0.0
H1021 H 0.14072 0.48938 0.82336 0.0
H1022 H 0.11697 0.40602 0.68353 0.0
C1023 C 0.445 0.5651 0.65767 0.0
C1024 C 0.40159 0.54022 0.65978 0.0
N1025 N 0.39209 0.50103 0.67525 0.0
N1026 N 0.46256 0.54166 0.6724 0.0
C1027 C 0.42949 0.50261 0.68138 0.0
H1028 H 0.46265 0.5983 0.64711 0.0
Co1029 Co 0.51969 0.55806 0.67595 0.0
C1030 C 0.48857 0.50605 0.78646 0.0
O1031 O 0.45394 0.50728 0.79649 0.0
N1032 N 0.57702 0.57392 0.67922 0.0
C1033 C 0.64142 0.59403 0.71234 0.0
C1034 C 0.59964 0.57781 0.72595 0.0
C1035 C 0.60567 0.58747 0.63741 0.0
N1036 N 0.6449 0.6 0.65681 0.0
O1037 O 0.50847 0.51097 0.6296 0.0
H1038 H 0.58696 0.57028 0.76767 0.0
H1039 H 0.59823 0.58992 0.59425 0.0
O1040 O 0.51149 0.52435 0.74371 0.0
C1041 C 0.5027 0.51534 0.57786 0.0
O1042 O 0.50619 0.55101 0.56042 0.0
N1043 N 0.53146 0.60693 0.71653 0.0
C1044 C 0.54917 0.68583 0.75672 0.0
C1045 C 0.52134 0.64888 0.78564 0.0
C1046 C 0.51306 0.60958 0.76496 0.0
C1047 C 0.55826 0.64271 0.68791 0.0
C1048 C 0.56827 0.68239 0.70784 0.0
H1049 H 0.49051 0.58171 0.78659 0.0
H1050 H 0.57105 0.64044 0.64816 0.0
H1051 H 0.43272 0.47578 0.69315 0.0
H1052 H 0.37888 0.55057 0.65309 0.0
H1053 H 0.66717 0.60133 0.74089 0.0
H1054 H 0.50571 0.65039 0.82331 0.0
H1055 H 0.58917 0.71002 0.68358 0.0
C1056 C 0.43009 0.87898 0.65769 0.0
C1057 C 0.45498 0.86044 0.65981 0.0
N1058 N 0.49416 0.89013 0.6753 0.0
N1059 N 0.45352 0.91997 0.67244 0.0
C1060 C 0.49257 0.92595 0.68143 0.0
H1061 H 0.3969 0.86342 0.64712 0.0
Co1062 Co 0.43713 0.9607 0.67596 0.0
C1063 C 0.48913 0.98161 0.78647 0.0
O1064 O 0.4879 0.94576 0.79653 0.0
N1065 N 0.42128 0.00218 0.67919 0.0
C1066 C 0.40125 0.04656 0.71224 0.0
C1067 C 0.41749 0.02102 0.72587 0.0
C1068 C 0.40765 0.0172 0.63737 0.0
N1069 N 0.39517 0.04395 0.65672 0.0
O1070 O 0.48421 0.99655 0.6296 0.0
H1071 H 0.42511 0.01596 0.76759 0.0
H1072 H 0.40512 0.00723 0.59424 0.0
O1073 O 0.47083 0.98622 0.74371 0.0
C1074 C 0.47984 0.98642 0.57786 0.0
O1075 O 0.44416 0.95424 0.56043 0.0
N1076 N 0.38825 0.92361 0.71654 0.0
C1077 C 0.30936 0.86241 0.75673 0.0
C1078 C 0.34631 0.87154 0.78565 0.0
C1079 C 0.38561 0.90257 0.76497 0.0
C1080 C 0.35247 0.91462 0.68792 0.0
C1081 C 0.31279 0.88495 0.70785 0.0
H1082 H 0.41348 0.90789 0.7866 0.0
H1083 H 0.35473 0.92968 0.64816 0.0
H1084 H 0.5194 0.95601 0.69321 0.0
H1085 H 0.44463 0.82739 0.65312 0.0
H1086 H 0.39403 0.06508 0.74075 0.0
H1087 H 0.34481 0.8544 0.82332 0.0
H1088 H 0.28516 0.87822 0.68359 0.0
C1089 C 0.21587 0.45053 0.29133 0.0
C1090 C 0.25929 0.46906 0.28922 0.0
N1091 N 0.26878 0.43936 0.27379 0.0
N1092 N 0.19831 0.40953 0.27663 0.0
C1093 C 0.23138 0.40354 0.26768 0.0
H1094 H 0.19823 0.46609 0.30185 0.0
Co1095 Co 0.14118 0.3688 0.27311 0.0
C1096 C 0.17227 0.34787 0.16264 0.0
O1097 O 0.20689 0.38373 0.15259 0.0
N1098 N 0.08384 0.32735 0.26987 0.0
C1099 C 0.01943 0.28303 0.2368 0.0
C1100 C 0.06121 0.30856 0.22318 0.0
C1101 C 0.05519 0.31232 0.31169 0.0
N1102 N 0.01596 0.28561 0.29233 0.0
O1103 O 0.15239 0.33294 0.31948 0.0
H1104 H 0.07389 0.31364 0.18146 0.0
H1105 H 0.06264 0.32226 0.35483 0.0
O1106 O 0.14936 0.34327 0.20537 0.0
C1107 C 0.15814 0.34307 0.37122 0.0
O1108 O 0.15464 0.37526 0.38864 0.0
N1109 N 0.12941 0.4059 0.23252 0.0
C1110 C 0.11169 0.46709 0.19238 0.0
C1111 C 0.13939 0.45786 0.16332 0.0
C1112 C 0.14767 0.42683 0.18398 0.0
C1113 C 0.10274 0.41499 0.26127 0.0
C1114 C 0.09273 0.44466 0.24137 0.0
H1115 H 0.1701 0.42141 0.16221 0.0
H1116 H 0.09004 0.39999 0.30109 0.0
H1117 H 0.22814 0.37347 0.25594 0.0
H1118 H 0.28199 0.50212 0.29587 0.0
H1119 H 0.99368 0.26453 0.20828 0.0
H1120 H 0.15491 0.47491 0.12554 0.0
H1121 H 0.07192 0.45146 0.26573 0.0
C1122 C 0.54463 0.76433 0.29126 0.0
C1123 C 0.52609 0.7892 0.28913 0.0
N1124 N 0.55579 0.82841 0.27377 0.0
N1125 N 0.58565 0.7878 0.27666 0.0
C1126 C 0.59163 0.82686 0.26774 0.0
H1127 H 0.52907 0.73112 0.30174 0.0
Co1128 Co 0.6264 0.77143 0.27316 0.0
C1129 C 0.64731 0.82346 0.16269 0.0
O1130 O 0.61145 0.82222 0.15266 0.0
N1131 N 0.6679 0.7556 0.26996 0.0
C1132 C 0.71233 0.73563 0.23696 0.0
C1133 C 0.68679 0.75188 0.2233 0.0
C1134 C 0.68287 0.74193 0.31179 0.0
N1135 N 0.70965 0.72949 0.29246 0.0
O1136 O 0.66223 0.81851 0.31954 0.0
H1137 H 0.68179 0.75954 0.18159 0.0
H1138 H 0.67284 0.73935 0.3549 0.0
O1139 O 0.65193 0.80516 0.20542 0.0
C1140 C 0.6521 0.81413 0.37129 0.0
O1141 O 0.61992 0.77844 0.3887 0.0
N1142 N 0.58935 0.72256 0.23256 0.0
C1143 C 0.52816 0.64365 0.19241 0.0
C1144 C 0.53738 0.68058 0.16336 0.0
C1145 C 0.5684 0.71989 0.18402 0.0
C1146 C 0.58028 0.68679 0.26129 0.0
C1147 C 0.5506 0.64711 0.24138 0.0
H1148 H 0.57381 0.74774 0.16227 0.0
H1149 H 0.59528 0.68909 0.3011 0.0
H1150 H 0.62171 0.85371 0.25606 0.0
H1151 H 0.49302 0.77883 0.29572 0.0
H1152 H 0.7309 0.72845 0.20847 0.0
H1153 H 0.52031 0.67905 0.1256 0.0
H1154 H 0.54381 0.61949 0.26572 0.0
C1155 C 0.23082 0.77926 0.29135 0.0
C1156 C 0.20592 0.73584 0.28924 0.0
N1157 N 0.16671 0.72635 0.27393 0.0
N1158 N 0.20736 0.79683 0.27678 0.0
C1159 C 0.16829 0.76376 0.26791 0.0
H1160 H 0.26404 0.79689 0.30177 0.0
Co1161 Co 0.22377 0.85396 0.27322 0.0
C1162 C 0.17172 0.82279 0.16279 0.0
O1163 O 0.17293 0.78814 0.15282 0.0
N1164 N 0.23966 0.91129 0.26995 0.0
C1165 C 0.25979 0.9757 0.23683 0.0
C1166 C 0.24354 0.93391 0.22322 0.0
C1167 C 0.25324 0.93995 0.31175 0.0
N1168 N 0.26578 0.97917 0.29236 0.0
O1169 O 0.17671 0.84277 0.31959 0.0
H1170 H 0.236 0.92122 0.18151 0.0
H1171 H 0.25569 0.9325 0.35491 0.0
O1172 O 0.19004 0.84575 0.20548 0.0
C1173 C 0.18107 0.83702 0.37134 0.0
O1174 O 0.21674 0.84049 0.38878 0.0
N1175 N 0.27262 0.86571 0.23263 0.0
C1176 C 0.35152 0.88343 0.19244 0.0
C1177 C 0.31458 0.85574 0.16338 0.0
C1178 C 0.27528 0.84746 0.18406 0.0
C1179 C 0.30839 0.89237 0.26138 0.0
C1180 C 0.34807 0.90238 0.24146 0.0
H1181 H 0.24743 0.82505 0.16228 0.0
H1182 H 0.30609 0.90506 0.3012 0.0
H1183 H 0.14144 0.767 0.25625 0.0
H1184 H 0.21628 0.71313 0.29579 0.0
H1185 H 0.26707 0.00144 0.20829 0.0
H1186 H 0.31611 0.84024 0.12558 0.0
H1187 H 0.37568 0.92318 0.26581 0.0
loop_
_geom_bond_atom_site_label_1
_geom_bond_atom_site_label_2
_geom_bond_distance
_geom_bond_site_symmetry_2
_ccdc_geom_bond_type
C0 C1 1.351 . S
C0 N3 1.368 . S
C0 H5 0.931 . S
C1 C0 1.351 . S
C1 N2 1.373 . S
C1 H29 0.930 . S
N2 C1 1.373 . S
N2 C4 1.339 1_554 S
N3 C0 1.368 . S
N3 C4 1.317 1_554 S
N3 Co6 2.135 . S
C4 N2 1.339 1_556 S
C4 N3 1.317 1_556 S
C4 H28 0.935 . S
H5 C0 0.931 . S
Co6 N3 2.135 . S
Co6 N9 2.121 . S
Co6 O14 2.055 . S
Co6 O17 2.039 1_554 S
Co6 N20 2.140 . S
C7 O8 1.227 . S
C7 O17 1.265 . S
O8 C7 1.227 . S
N9 Co6 2.121 . S
N9 C11 1.375 . S
N9 C12 1.313 . S
C10 C11 1.338 . S
C10 N13 1.377 . S
C10 H30 0.930 . S
C11 N9 1.375 . S
C11 C10 1.338 . S
C11 H15 0.931 1_554 S
C12 N9 1.313 . S
C12 N13 1.344 . S
C12 H16 0.930 . S
N13 C10 1.377 . S
N13 C12 1.344 . S
O14 Co6 2.055 . S
O14 C18 1.253 . S
H15 C11 0.931 1_556 S
H16 C12 0.930 . S
O17 Co6 2.039 1_556 S
O17 C7 1.265 . S
C18 O14 1.253 . S
C18 O19 1.227 . S
O19 C18 1.227 . S
N20 Co6 2.140 . S
N20 C23 1.346 . S
N20 C24 1.345 . S
C21 C22 1.387 1_554 S
C21 C25 1.391 . S
C22 C21 1.387 1_556 S
C22 C23 1.369 1_556 S
C22 H31 0.929 . S
C23 N20 1.346 . S
C23 C22 1.369 1_554 S
C23 H26 0.928 1_554 S
C24 N20 1.345 . S
C24 C25 1.371 . S
C24 H27 0.931 . S
C25 C21 1.391 . S
C25 C24 1.371 . S
C25 H32 0.930 . S
H26 C23 0.928 1_556 S
H27 C24 0.931 . S
H28 C4 0.935 . S
H29 C1 0.930 . S
H30 C10 0.930 . S
H31 C22 0.929 . S
H32 C25 0.930 . S
C33 C34 1.351 . S
C33 N36 1.368 . S
C33 H38 0.931 . S
C34 C33 1.351 . S
C34 N35 1.373 . S
C34 H62 0.930 . S
N35 C34 1.373 . S
N35 C37 1.339 1_554 S
N36 C33 1.368 . S
N36 C37 1.317 1_554 S
N36 Co39 2.135 . S
C37 N35 1.339 1_556 S
C37 N36 1.317 1_556 S
C37 H61 0.935 . S
H38 C33 0.931 . S
Co39 N36 2.135 . S
Co39 N42 2.121 . S
Co39 O47 2.055 . S
Co39 O50 2.039 1_554 S
Co39 N53 2.140 . S
C40 O41 1.227 . S
C40 O50 1.265 . S
O41 C40 1.227 . S
N42 Co39 2.121 . S
N42 C44 1.375 . S
N42 C45 1.313 . S
C43 C44 1.338 . S
C43 N46 1.377 . S
C43 H63 0.930 . S
C44 N42 1.375 . S
C44 C43 1.338 . S
C44 H48 0.931 1_554 S
C45 N42 1.313 . S
C45 N46 1.344 . S
C45 H49 0.930 . S
N46 C43 1.377 . S
N46 C45 1.344 . S
O47 Co39 2.055 . S
O47 C51 1.253 . S
H48 C44 0.931 1_556 S
H49 C45 0.930 . S
O50 Co39 2.039 1_556 S
O50 C40 1.265 . S
C51 O47 1.253 . S
C51 O52 1.227 . S
O52 C51 1.227 . S
N53 Co39 2.140 . S
N53 C56 1.346 . S
N53 C57 1.345 . S
C54 C55 1.387 1_564 S
C54 C58 1.391 . S
C55 C54 1.387 1_546 S
C55 C56 1.369 1_556 S
C55 H64 0.929 . S
C56 N53 1.346 . S
C56 C55 1.369 1_554 S
C56 H59 0.928 1_554 S
C57 N53 1.345 . S
C57 C58 1.371 1_545 S
C57 H60 0.931 . S
C58 C54 1.391 . S
C58 C57 1.371 1_565 S
C58 H65 0.930 . S
H59 C56 0.928 1_556 S
H60 C57 0.931 . S
H61 C37 0.935 . S
H62 C34 0.930 . S
H63 C43 0.930 . S
H64 C55 0.929 . S
H65 C58 0.930 . S
C66 C67 1.351 . S
C66 N69 1.368 . S
C66 H71 0.931 . S
C67 C66 1.351 . S
C67 N68 1.373 . S
C67 H95 0.930 . S
N68 C67 1.373 . S
N68 C70 1.339 1_554 S
N69 C66 1.368 . S
N69 C70 1.317 1_554 S
N69 Co72 2.135 . S
C70 N68 1.339 1_556 S
C70 N69 1.317 1_556 S
C70 H94 0.935 . S
H71 C66 0.931 . S
Co72 N69 2.135 . S
Co72 N75 2.121 . S
Co72 O80 2.055 . S
Co72 O83 2.039 1_554 S
Co72 N86 2.140 . S
C73 O74 1.227 . S
C73 O83 1.265 . S
O74 C73 1.227 . S
N75 Co72 2.121 . S
N75 C77 1.375 . S
N75 C78 1.313 . S
C76 C77 1.338 . S
C76 N79 1.377 . S
C76 H96 0.930 . S
C77 N75 1.375 . S
C77 C76 1.338 . S
C77 H81 0.931 1_554 S
C78 N75 1.313 . S
C78 N79 1.344 . S
C78 H82 0.930 . S
N79 C76 1.377 . S
N79 C78 1.344 . S
O80 Co72 2.055 . S
O80 C84 1.253 . S
H81 C77 0.931 1_556 S
H82 C78 0.930 . S
O83 Co72 2.039 1_556 S
O83 C73 1.265 . S
C84 O80 1.253 . S
C84 O85 1.227 . S
O85 C84 1.227 . S
N86 Co72 2.140 . S
N86 C89 1.346 . S
N86 C90 1.345 . S
C87 C88 1.387 1_454 S
C87 C91 1.391 . S
C88 C87 1.387 1_656 S
C88 C89 1.369 1_556 S
C88 H97 0.929 . S
C89 N86 1.346 . S
C89 C88 1.369 1_554 S
C89 H92 0.928 1_554 S
C90 N86 1.345 . S
C90 C91 1.371 1_655 S
C90 H93 0.931 . S
C91 C87 1.391 . S
C91 C90 1.371 1_455 S
C91 H98 0.930 . S
H92 C89 0.928 1_556 S
H93 C90 0.931 . S
H94 C70 0.935 . S
H95 C67 0.930 . S
H96 C76 0.930 . S
H97 C88 0.929 . S
H98 C91 0.930 . S
C99 C100 1.351 . S
C99 N102 1.368 . S
C99 H104 0.931 . S
C100 C99 1.351 . S
C100 N101 1.373 . S
C100 H128 0.930 . S
N101 C100 1.373 . S
N101 C103 1.340 . S
N102 C99 1.368 . S
N102 C103 1.321 . S
N102 Co105 2.135 . S
C103 N101 1.340 . S
C103 N102 1.321 . S
C103 H127 0.930 . S
H104 C99 0.931 . S
Co105 N102 2.135 . S
Co105 N108 2.121 . S
Co105 O113 2.055 . S
Co105 O116 2.039 . S
Co105 N119 2.140 . S
C106 O107 1.227 . S
C106 O116 1.265 . S
O107 C106 1.227 . S
N108 Co105 2.121 . S
N108 C110 1.375 . S
N108 C111 1.313 . S
C109 C110 1.338 . S
C109 N112 1.377 . S
C109 H129 0.930 . S
C110 N108 1.375 . S
C110 C109 1.338 . S
C110 H114 0.931 . S
C111 N108 1.313 . S
C111 N112 1.344 . S
C111 H115 0.930 . S
N112 C109 1.377 . S
N112 C111 1.344 . S
O113 Co105 2.055 . S
O113 C117 1.253 . S
H114 C110 0.931 . S
H115 C111 0.930 . S
O116 Co105 2.039 . S
O116 C106 1.265 . S
C117 O113 1.253 . S
C117 O118 1.227 . S
O118 C117 1.227 . S
N119 Co105 2.140 . S
N119 C122 1.346 . S
N119 C123 1.345 . S
C120 C121 1.387 . S
C120 C124 1.391 . S
C121 C120 1.387 . S
C121 C122 1.369 . S
C121 H130 0.929 . S
C122 N119 1.346 . S
C122 C121 1.369 . S
C122 H125 0.928 . S
C123 N119 1.345 . S
C123 C124 1.371 . S
C123 H126 0.931 . S
C124 C120 1.391 . S
C124 C123 1.371 . S
C124 H131 0.930 . S
H125 C122 0.928 . S
H126 C123 0.931 . S
H127 C103 0.930 . S
H128 C100 0.930 . S
H129 C109 0.930 . S
H130 C121 0.929 . S
H131 C124 0.930 . S
C132 C133 1.351 . S
C132 N135 1.368 . S
C132 H137 0.931 . S
C133 C132 1.351 . S
C133 N134 1.373 . S
C133 H161 0.930 . S
N134 C133 1.373 . S
N134 C136 1.340 . S
N135 C132 1.368 . S
N135 C136 1.321 . S
N135 Co138 2.135 . S
C136 N134 1.340 . S
C136 N135 1.321 . S
C136 H160 0.930 . S
H137 C132 0.931 . S
Co138 N135 2.135 . S
Co138 N141 2.121 . S
Co138 O146 2.055 . S
Co138 O149 2.039 . S
Co138 N152 2.140 . S
C139 O140 1.227 . S
C139 O149 1.265 . S
O140 C139 1.227 . S
N141 Co138 2.121 . S
N141 C143 1.375 . S
N141 C144 1.313 . S
C142 C143 1.338 . S
C142 N145 1.377 . S
C142 H162 0.930 . S
C143 N141 1.375 . S
C143 C142 1.338 . S
C143 H147 0.931 . S
C144 N141 1.313 . S
C144 N145 1.344 . S
C144 H148 0.930 . S
N145 C142 1.377 . S
N145 C144 1.344 . S
O146 Co138 2.055 . S
O146 C150 1.253 . S
H147 C143 0.931 . S
H148 C144 0.930 . S
O149 Co138 2.039 . S
O149 C139 1.265 . S
C150 O146 1.253 . S
C150 O151 1.227 . S
O151 C150 1.227 . S
N152 Co138 2.140 . S
N152 C155 1.346 . S
N152 C156 1.345 . S
C153 C154 1.387 1_545 S
C153 C157 1.391 . S
C154 C153 1.387 1_565 S
C154 C155 1.369 . S
C154 H163 0.929 . S
C155 N152 1.346 . S
C155 C154 1.369 . S
C155 H158 0.928 . S
C156 N152 1.345 . S
C156 C157 1.371 1_565 S
C156 H159 0.931 . S
C157 C153 1.391 . S
C157 C156 1.371 1_545 S
C157 H164 0.930 . S
H158 C155 0.928 . S
H159 C156 0.931 . S
H160 C136 0.930 . S
H161 C133 0.930 . S
H162 C142 0.930 . S
H163 C154 0.929 . S
H164 C157 0.930 . S
C165 C166 1.351 . S
C165 N168 1.368 . S
C165 H170 0.931 . S
C166 C165 1.351 . S
C166 N167 1.373 . S
C166 H194 0.930 . S
N167 C166 1.373 . S
N167 C169 1.340 . S
N168 C165 1.368 . S
N168 C169 1.321 . S
N168 Co171 2.135 . S
C169 N167 1.340 . S
C169 N168 1.321 . S
C169 H193 0.930 . S
H170 C165 0.931 . S
Co171 N168 2.135 . S
Co171 N174 2.121 . S
Co171 O179 2.055 . S
Co171 O182 2.039 . S
Co171 N185 2.140 . S
C172 O173 1.227 . S
C172 O182 1.265 . S
O173 C172 1.227 . S
N174 Co171 2.121 . S
N174 C176 1.375 . S
N174 C177 1.313 . S
C175 C176 1.338 . S
C175 N178 1.377 . S
C175 H195 0.930 . S
C176 N174 1.375 . S
C176 C175 1.338 . S
C176 H180 0.931 . S
C177 N174 1.313 . S
C177 N178 1.344 . S
C177 H181 0.930 . S
N178 C175 1.377 . S
N178 C177 1.344 . S
O179 Co171 2.055 . S
O179 C183 1.253 . S
H180 C176 0.931 . S
H181 C177 0.930 . S
O182 Co171 2.039 . S
O182 C172 1.265 . S
C183 O179 1.253 . S
C183 O184 1.227 . S
O184 C183 1.227 . S
N185 Co171 2.140 . S
N185 C188 1.346 . S
N185 C189 1.345 . S
C186 C187 1.387 1_655 S
C186 C190 1.391 . S
C187 C186 1.387 1_455 S
C187 C188 1.369 . S
C187 H196 0.929 . S
C188 N185 1.346 . S
C188 C187 1.369 . S
C188 H191 0.928 . S
C189 N185 1.345 . S
C189 C190 1.371 1_455 S
C189 H192 0.931 . S
C190 C186 1.391 . S
C190 C189 1.371 1_655 S
C190 H197 0.930 . S
H191 C188 0.928 . S
H192 C189 0.931 . S
H193 C169 0.930 . S
H194 C166 0.930 . S
H195 C175 0.930 . S
H196 C187 0.929 . S
H197 C190 0.930 . S
C198 C199 1.351 . S
C198 N201 1.368 . S
C198 H203 0.931 . S
C199 C198 1.351 . S
C199 N200 1.373 . S
C199 H227 0.930 . S
N200 C199 1.373 . S
N200 C202 1.339 1_556 S
N201 C198 1.368 . S
N201 C202 1.317 1_556 S
N201 Co204 2.135 . S
C202 N200 1.339 1_554 S
C202 N201 1.317 1_554 S
C202 H226 0.935 . S
H203 C198 0.931 . S
Co204 N201 2.135 . S
Co204 N207 2.121 . S
Co204 O212 2.055 . S
Co204 O215 2.039 1_556 S
Co204 N218 2.140 . S
C205 O206 1.227 . S
C205 O215 1.265 . S
O206 C205 1.227 . S
N207 Co204 2.121 . S
N207 C209 1.375 . S
N207 C210 1.313 . S
C208 C209 1.338 . S
C208 N211 1.377 . S
C208 H228 0.930 . S
C209 N207 1.375 . S
C209 C208 1.338 . S
C209 H213 0.931 1_556 S
C210 N207 1.313 . S
C210 N211 1.344 . S
C210 H214 0.930 . S
N211 C208 1.377 . S
N211 C210 1.344 . S
O212 Co204 2.055 . S
O212 C216 1.253 . S
H213 C209 0.931 1_554 S
H214 C210 0.930 . S
O215 Co204 2.039 1_554 S
O215 C205 1.265 . S
C216 O212 1.253 . S
C216 O217 1.227 . S
O217 C216 1.227 . S
N218 Co204 2.140 . S
N218 C221 1.346 . S
N218 C222 1.345 . S
C219 C220 1.387 1_556 S
C219 C223 1.391 . S
C220 C219 1.387 1_554 S
C220 C221 1.369 1_554 S
C220 H229 0.929 . S
C221 N218 1.346 . S
C221 C220 1.369 1_556 S
C221 H224 0.928 1_556 S
C222 N218 1.345 . S
C222 C223 1.371 . S
C222 H225 0.931 . S
C223 C219 1.391 . S
C223 C222 1.371 . S
C223 H230 0.930 . S
H224 C221 0.928 1_554 S
H225 C222 0.931 . S
H226 C202 0.935 . S
H227 C199 0.930 . S
H228 C208 0.930 . S
H229 C220 0.929 . S
H230 C223 0.930 . S
C231 C232 1.351 . S
C231 N234 1.368 . S
C231 H236 0.931 . S
C232 C231 1.351 . S
C232 N233 1.373 . S
C232 H260 0.930 . S
N233 C232 1.373 . S
N233 C235 1.339 1_556 S
N234 C231 1.368 . S
N234 C235 1.317 1_556 S
N234 Co237 2.135 . S
C235 N233 1.339 1_554 S
C235 N234 1.317 1_554 S
C235 H259 0.935 . S
H236 C231 0.931 . S
Co237 N234 2.135 . S
Co237 N240 2.121 . S
Co237 O245 2.055 . S
Co237 O248 2.039 1_556 S
Co237 N251 2.140 . S
C238 O239 1.227 . S
C238 O248 1.265 . S
O239 C238 1.227 . S
N240 Co237 2.121 . S
N240 C242 1.375 . S
N240 C243 1.313 . S
C241 C242 1.338 . S
C241 N244 1.377 . S
C241 H261 0.930 . S
C242 N240 1.375 . S
C242 C241 1.338 . S
C242 H246 0.931 1_556 S
C243 N240 1.313 . S
C243 N244 1.344 . S
C243 H247 0.930 . S
N244 C241 1.377 . S
N244 C243 1.344 . S
O245 Co237 2.055 . S
O245 C249 1.253 . S
H246 C242 0.931 1_554 S
H247 C243 0.930 . S
O248 Co237 2.039 1_554 S
O248 C238 1.265 . S
C249 O245 1.253 . S
C249 O250 1.227 . S
O250 C249 1.227 . S
N251 Co237 2.140 . S
N251 C254 1.346 . S
N251 C255 1.345 . S
C252 C253 1.387 1_546 S
C252 C256 1.391 . S
C253 C252 1.387 1_564 S
C253 C254 1.369 1_554 S
C253 H262 0.929 . S
C254 N251 1.346 . S
C254 C253 1.369 1_556 S
C254 H257 0.928 1_556 S
C255 N251 1.345 . S
C255 C256 1.371 1_565 S
C255 H258 0.931 . S
C256 C252 1.391 . S
C256 C255 1.371 1_545 S
C256 H263 0.930 . S
H257 C254 0.928 1_554 S
H258 C255 0.931 . S
H259 C235 0.935 . S
H260 C232 0.930 . S
H261 C241 0.930 . S
H262 C253 0.929 . S
H263 C256 0.930 . S
C264 C265 1.351 . S
C264 N267 1.368 . S
C264 H269 0.931 . S
C265 C264 1.351 . S
C265 N266 1.373 . S
C265 H293 0.930 . S
N266 C265 1.373 . S
N266 C268 1.339 1_556 S
N267 C264 1.368 . S
N267 C268 1.317 1_556 S
N267 Co270 2.135 . S
C268 N266 1.339 1_554 S
C268 N267 1.317 1_554 S
C268 H292 0.935 . S
H269 C264 0.931 . S
Co270 N267 2.135 . S
Co270 N273 2.121 . S
Co270 O278 2.055 . S
Co270 O281 2.039 1_556 S
Co270 N284 2.140 . S
C271 O272 1.227 . S
C271 O281 1.265 . S
O272 C271 1.227 . S
N273 Co270 2.121 . S
N273 C275 1.375 . S
N273 C276 1.313 . S
C274 C275 1.338 . S
C274 N277 1.377 . S
C274 H294 0.930 . S
C275 N273 1.375 . S
C275 C274 1.338 . S
C275 H279 0.931 1_556 S
C276 N273 1.313 . S
C276 N277 1.344 . S
C276 H280 0.930 . S
N277 C274 1.377 . S
N277 C276 1.344 . S
O278 Co270 2.055 . S
O278 C282 1.253 . S
H279 C275 0.931 1_554 S
H280 C276 0.930 . S
O281 Co270 2.039 1_554 S
O281 C271 1.265 . S
C282 O278 1.253 . S
C282 O283 1.227 . S
O283 C282 1.227 . S
N284 Co270 2.140 . S
N284 C287 1.346 . S
N284 C288 1.345 . S
C285 C286 1.387 1_656 S
C285 C289 1.391 . S
C286 C285 1.387 1_454 S
C286 C287 1.369 1_554 S
C286 H295 0.929 . S
C287 N284 1.346 . S
C287 C286 1.369 1_556 S
C287 H290 0.928 1_556 S
C288 N284 1.345 . S
C288 C289 1.371 1_455 S
C288 H291 0.931 . S
C289 C285 1.391 . S
C289 C288 1.371 1_655 S
C289 H296 0.930 . S
H290 C287 0.928 1_554 S
H291 C288 0.931 . S
H292 C268 0.935 . S
H293 C265 0.930 . S
H294 C274 0.930 . S
H295 C286 0.929 . S
H296 C289 0.930 . S
C297 C298 1.351 . S
C297 N300 1.368 . S
C297 H302 0.931 . S
C298 C297 1.351 . S
C298 N299 1.373 . S
C298 H326 0.930 . S
N299 C298 1.373 . S
N299 C301 1.340 . S
N300 C297 1.368 . S
N300 C301 1.321 . S
N300 Co303 2.135 . S
C301 N299 1.340 . S
C301 N300 1.321 . S
C301 H325 0.930 . S
H302 C297 0.931 . S
Co303 N300 2.135 . S
Co303 N306 2.121 . S
Co303 O311 2.055 . S
Co303 O314 2.039 . S
Co303 N317 2.140 . S
C304 O305 1.227 . S
C304 O314 1.265 . S
O305 C304 1.227 . S
N306 Co303 2.121 . S
N306 C308 1.375 . S
N306 C309 1.313 . S
C307 C308 1.338 . S
C307 N310 1.377 . S
C307 H327 0.930 . S
C308 N306 1.375 . S
C308 C307 1.338 . S
C308 H312 0.931 . S
C309 N306 1.313 . S
C309 N310 1.344 . S
C309 H313 0.930 . S
N310 C307 1.377 . S
N310 C309 1.344 . S
O311 Co303 2.055 . S
O311 C315 1.253 . S
H312 C308 0.931 . S
H313 C309 0.930 . S
O314 Co303 2.039 . S
O314 C304 1.265 . S
C315 O311 1.253 . S
C315 O316 1.227 . S
O316 C315 1.227 . S
N317 Co303 2.140 . S
N317 C320 1.346 . S
N317 C321 1.345 . S
C318 C319 1.387 . S
C318 C322 1.391 . S
C319 C318 1.387 . S
C319 C320 1.369 . S
C319 H328 0.929 . S
C320 N317 1.346 . S
C320 C319 1.369 . S
C320 H323 0.928 . S
C321 N317 1.345 . S
C321 C322 1.371 . S
C321 H324 0.931 . S
C322 C318 1.391 . S
C322 C321 1.371 . S
C322 H329 0.930 . S
H323 C320 0.928 . S
H324 C321 0.931 . S
H325 C301 0.930 . S
H326 C298 0.930 . S
H327 C307 0.930 . S
H328 C319 0.929 . S
H329 C322 0.930 . S
C330 C331 1.351 . S
C330 N333 1.368 . S
C330 H335 0.931 . S
C331 C330 1.351 . S
C331 N332 1.373 . S
C331 H359 0.930 . S
N332 C331 1.373 . S
N332 C334 1.340 . S
N333 C330 1.368 . S
N333 C334 1.321 . S
N333 Co336 2.135 . S
C334 N332 1.340 . S
C334 N333 1.321 . S
C334 H358 0.930 . S
H335 C330 0.931 . S
Co336 N333 2.135 . S
Co336 N339 2.121 . S
Co336 O344 2.055 . S
Co336 O347 2.039 . S
Co336 N350 2.140 . S
C337 O338 1.227 . S
C337 O347 1.265 . S
O338 C337 1.227 . S
N339 Co336 2.121 . S
N339 C341 1.375 . S
N339 C342 1.313 . S
C340 C341 1.338 . S
C340 N343 1.377 . S
C340 H360 0.930 . S
C341 N339 1.375 . S
C341 C340 1.338 . S
C341 H345 0.931 . S
C342 N339 1.313 . S
C342 N343 1.344 . S
C342 H346 0.930 . S
N343 C340 1.377 . S
N343 C342 1.344 . S
O344 Co336 2.055 . S
O344 C348 1.253 . S
H345 C341 0.931 . S
H346 C342 0.930 . S
O347 Co336 2.039 . S
O347 C337 1.265 . S
C348 O344 1.253 . S
C348 O349 1.227 . S
O349 C348 1.227 . S
N350 Co336 2.140 . S
N350 C353 1.346 . S
N350 C354 1.345 . S
C351 C352 1.387 1_565 S
C351 C355 1.391 . S
C352 C351 1.387 1_545 S
C352 C353 1.369 . S
C352 H361 0.929 . S
C353 N350 1.346 . S
C353 C352 1.369 . S
C353 H356 0.928 . S
C354 N350 1.345 . S
C354 C355 1.371 1_545 S
C354 H357 0.931 . S
C355 C351 1.391 . S
C355 C354 1.371 1_565 S
C355 H362 0.930 . S
H356 C353 0.928 . S
H357 C354 0.931 . S
H358 C334 0.930 . S
H359 C331 0.930 . S
H360 C340 0.930 . S
H361 C352 0.929 . S
H362 C355 0.930 . S
C363 C364 1.351 . S
C363 N366 1.368 . S
C363 H368 0.931 . S
C364 C363 1.351 . S
C364 N365 1.373 . S
C364 H392 0.930 . S
N365 C364 1.373 . S
N365 C367 1.340 . S
N366 C363 1.368 . S
N366 C367 1.321 . S
N366 Co369 2.135 . S
C367 N365 1.340 . S
C367 N366 1.321 . S
C367 H391 0.930 . S
H368 C363 0.931 . S
Co369 N366 2.135 . S
Co369 N372 2.121 . S
Co369 O377 2.055 . S
Co369 O380 2.039 . S
Co369 N383 2.140 . S
C370 O371 1.227 . S
C370 O380 1.265 . S
O371 C370 1.227 . S
N372 Co369 2.121 . S
N372 C374 1.375 . S
N372 C375 1.313 . S
C373 C374 1.338 . S
C373 N376 1.377 . S
C373 H393 0.930 . S
C374 N372 1.375 . S
C374 C373 1.338 . S
C374 H378 0.931 . S
C375 N372 1.313 . S
C375 N376 1.344 . S
C375 H379 0.930 . S
N376 C373 1.377 . S
N376 C375 1.344 . S
O377 Co369 2.055 . S
O377 C381 1.253 . S
H378 C374 0.931 . S
H379 C375 0.930 . S
O380 Co369 2.039 . S
O380 C370 1.265 . S
C381 O377 1.253 . S
C381 O382 1.227 . S
O382 C381 1.227 . S
N383 Co369 2.140 . S
N383 C386 1.346 . S
N383 C387 1.345 . S
C384 C385 1.387 1_455 S
C384 C388 1.391 . S
C385 C384 1.387 1_655 S
C385 C386 1.369 . S
C385 H394 0.929 . S
C386 N383 1.346 . S
C386 C385 1.369 . S
C386 H389 0.928 . S
C387 N383 1.345 . S
C387 C388 1.371 1_655 S
C387 H390 0.931 . S
C388 C384 1.391 . S
C388 C387 1.371 1_455 S
C388 H395 0.930 . S
H389 C386 0.928 . S
H390 C387 0.931 . S
H391 C367 0.930 . S
H392 C364 0.930 . S
H393 C373 0.930 . S
H394 C385 0.929 . S
H395 C388 0.930 . S
C396 C397 1.351 . S
C396 N399 1.368 . S
C396 H401 0.931 . S
C397 C396 1.351 . S
C397 N398 1.373 . S
C397 H425 0.930 . S
N398 C397 1.373 . S
N398 C400 1.340 . S
N399 C396 1.368 . S
N399 C400 1.321 . S
N399 Co402 2.135 . S
C400 N398 1.340 . S
C400 N399 1.321 . S
C400 H424 0.930 . S
H401 C396 0.931 . S
Co402 N399 2.135 . S
Co402 N405 2.121 1_655 S
Co402 O410 2.059 . S
Co402 O413 2.039 1_655 S
Co402 N416 2.140 . S
C403 O404 1.227 . S
C403 O413 1.265 1_655 S
O404 C403 1.227 . S
N405 Co402 2.121 1_455 S
N405 C407 1.375 . S
N405 C408 1.313 . S
C406 C407 1.338 . S
C406 N409 1.377 . S
C406 H426 0.930 . S
C407 N405 1.375 . S
C407 C406 1.338 . S
C407 H411 0.926 1_455 S
C408 N405 1.313 . S
C408 N409 1.344 . S
C408 H412 0.930 . S
N409 C406 1.377 . S
N409 C408 1.344 . S
O410 Co402 2.059 . S
O410 C414 1.257 . S
H411 C407 0.926 1_655 S
H412 C408 0.930 . S
O413 Co402 2.039 1_455 S
O413 C403 1.265 1_455 S
C414 O410 1.257 . S
C414 O415 1.227 . S
O415 C414 1.227 . S
N416 Co402 2.140 . S
N416 C419 1.346 . S
N416 C420 1.345 . S
C417 C418 1.387 . S
C417 C421 1.391 . S
C418 C417 1.387 . S
C418 C419 1.369 . S
C418 H427 0.929 . S
C419 N416 1.346 . S
C419 C418 1.369 . S
C419 H422 0.928 . S
C420 N416 1.345 . S
C420 C421 1.371 . S
C420 H423 0.931 . S
C421 C417 1.391 . S
C421 C420 1.371 . S
C421 H428 0.930 . S
H422 C419 0.928 . S
H423 C420 0.931 . S
H424 C400 0.930 . S
H425 C397 0.930 . S
H426 C406 0.930 . S
H427 C418 0.929 . S
H428 C421 0.930 . S
C429 C430 1.351 . S
C429 N432 1.368 . S
C429 H434 0.931 . S
C430 C429 1.351 . S
C430 N431 1.373 . S
C430 H458 0.930 . S
N431 C430 1.373 . S
N431 C433 1.340 . S
N432 C429 1.368 . S
N432 C433 1.321 . S
N432 Co435 2.135 . S
C433 N431 1.340 . S
C433 N432 1.321 . S
C433 H457 0.930 . S
H434 C429 0.931 . S
Co435 N432 2.135 . S
Co435 N438 2.121 . S
Co435 O443 2.055 . S
Co435 O446 2.039 . S
Co435 N449 2.140 . S
C436 O437 1.227 . S
C436 O446 1.265 . S
O437 C436 1.227 . S
N438 Co435 2.121 . S
N438 C440 1.375 . S
N438 C441 1.313 . S
C439 C440 1.338 . S
C439 N442 1.377 . S
C439 H459 0.930 . S
C440 N438 1.375 . S
C440 C439 1.338 . S
C440 H444 0.931 . S
C441 N438 1.313 . S
C441 N442 1.344 . S
C441 H445 0.930 . S
N442 C439 1.377 . S
N442 C441 1.344 . S
O443 Co435 2.055 . S
O443 C447 1.253 . S
H444 C440 0.931 . S
H445 C441 0.930 . S
O446 Co435 2.039 . S
O446 C436 1.265 . S
C447 O443 1.253 . S
C447 O448 1.227 . S
O448 C447 1.227 . S
N449 Co435 2.140 . S
N449 C452 1.346 . S
N449 C453 1.345 . S
C450 C451 1.387 . S
C450 C454 1.391 . S
C451 C450 1.387 . S
C451 C452 1.369 . S
C451 H460 0.929 . S
C452 N449 1.346 . S
C452 C451 1.369 . S
C452 H455 0.928 . S
C453 N449 1.345 . S
C453 C454 1.371 . S
C453 H456 0.931 . S
C454 C450 1.391 . S
C454 C453 1.371 . S
C454 H461 0.930 . S
H455 C452 0.928 . S
H456 C453 0.931 . S
H457 C433 0.930 . S
H458 C430 0.930 . S
H459 C439 0.930 . S
H460 C451 0.929 . S
H461 C454 0.930 . S
C462 C463 1.351 . S
C462 N465 1.368 . S
C462 H467 0.931 . S
C463 C462 1.351 . S
C463 N464 1.373 . S
C463 H491 0.930 . S
N464 C463 1.373 . S
N464 C466 1.340 . S
N465 C462 1.368 . S
N465 C466 1.321 . S
N465 Co468 2.135 . S
C466 N464 1.340 . S
C466 N465 1.321 . S
C466 H490 0.930 . S
H467 C462 0.931 . S
Co468 N465 2.135 . S
Co468 N471 2.121 1_545 S
Co468 O476 2.056 . S
Co468 O479 2.039 1_545 S
Co468 N482 2.140 . S
C469 O470 1.227 . S
C469 O479 1.265 1_545 S
O470 C469 1.227 . S
N471 Co468 2.121 1_565 S
N471 C473 1.375 . S
N471 C474 1.313 . S
C472 C473 1.338 . S
C472 N475 1.377 . S
C472 H492 0.930 . S
C473 N471 1.375 . S
C473 C472 1.338 . S
C473 H477 0.923 1_565 S
C474 N471 1.313 . S
C474 N475 1.344 . S
C474 H478 0.930 . S
N475 C472 1.377 . S
N475 C474 1.344 . S
O476 Co468 2.056 . S
O476 C480 1.255 . S
H477 C473 0.923 1_545 S
H478 C474 0.930 . S
O479 Co468 2.039 1_565 S
O479 C469 1.265 1_565 S
C480 O476 1.255 . S
C480 O481 1.227 . S
O481 C480 1.227 . S
N482 Co468 2.140 . S
N482 C485 1.346 . S
N482 C486 1.345 . S
C483 C484 1.387 . S
C483 C487 1.391 . S
C484 C483 1.387 . S
C484 C485 1.369 . S
C484 H493 0.929 . S
C485 N482 1.346 . S
C485 C484 1.369 . S
C485 H488 0.928 . S
C486 N482 1.345 . S
C486 C487 1.371 . S
C486 H489 0.931 . S
C487 C483 1.391 . S
C487 C486 1.371 . S
C487 H494 0.930 . S
H488 C485 0.928 . S
H489 C486 0.931 . S
H490 C466 0.930 . S
H491 C463 0.930 . S
H492 C472 0.930 . S
H493 C484 0.929 . S
H494 C487 0.930 . S
C495 C496 1.351 . S
C495 N498 1.368 . S
C495 H500 0.931 . S
C496 C495 1.351 . S
C496 N497 1.373 . S
C496 H524 0.930 . S
N497 C496 1.373 . S
N497 C499 1.340 . S
N498 C495 1.368 . S
N498 C499 1.321 . S
N498 Co501 2.135 . S
C499 N497 1.340 . S
C499 N498 1.321 . S
C499 H523 0.930 . S
H500 C495 0.931 . S
Co501 N498 2.135 . S
Co501 N504 2.121 . S
Co501 O509 2.055 . S
Co501 O512 2.039 . S
Co501 N515 2.140 . S
C502 O503 1.227 . S
C502 O512 1.265 . S
O503 C502 1.227 . S
N504 Co501 2.121 . S
N504 C506 1.375 . S
N504 C507 1.313 . S
C505 C506 1.338 . S
C505 N508 1.377 . S
C505 H525 0.930 1_655 S
C506 N504 1.375 . S
C506 C505 1.338 . S
C506 H510 0.931 . S
C507 N504 1.313 . S
C507 N508 1.344 . S
C507 H511 0.930 . S
N508 C505 1.377 . S
N508 C507 1.344 . S
O509 Co501 2.055 . S
O509 C513 1.253 . S
H510 C506 0.931 . S
H511 C507 0.930 . S
O512 Co501 2.039 . S
O512 C502 1.265 . S
C513 O509 1.253 . S
C513 O514 1.227 . S
O514 C513 1.227 . S
N515 Co501 2.140 . S
N515 C518 1.346 . S
N515 C519 1.345 . S
C516 C517 1.387 . S
C516 C520 1.391 . S
C517 C516 1.387 . S
C517 C518 1.369 . S
C517 H526 0.929 . S
C518 N515 1.346 . S
C518 C517 1.369 . S
C518 H521 0.928 . S
C519 N515 1.345 . S
C519 C520 1.371 . S
C519 H522 0.931 . S
C520 C516 1.391 . S
C520 C519 1.371 . S
C520 H527 0.930 . S
H521 C518 0.928 . S
H522 C519 0.931 . S
H523 C499 0.930 . S
H524 C496 0.930 . S
H525 C505 0.930 1_455 S
H526 C517 0.929 . S
H527 C520 0.930 . S
C528 C529 1.351 . S
C528 N531 1.368 . S
C528 H533 0.931 . S
C529 C528 1.351 . S
C529 N530 1.373 . S
C529 H557 0.930 . S
N530 C529 1.373 . S
N530 C532 1.340 . S
N531 C528 1.368 . S
N531 C532 1.321 . S
N531 Co534 2.135 . S
C532 N530 1.340 . S
C532 N531 1.321 . S
C532 H556 0.930 . S
H533 C528 0.931 . S
Co534 N531 2.135 . S
Co534 N537 2.121 . S
Co534 O542 2.055 . S
Co534 O545 2.039 . S
Co534 N548 2.140 . S
C535 O536 1.227 . S
C535 O545 1.265 . S
O536 C535 1.227 . S
N537 Co534 2.121 . S
N537 C539 1.375 . S
N537 C540 1.313 . S
C538 C539 1.338 . S
C538 N541 1.377 . S
C538 H558 0.930 . S
C539 N537 1.375 . S
C539 C538 1.338 . S
C539 H543 0.931 . S
C540 N537 1.313 . S
C540 N541 1.344 . S
C540 H544 0.930 . S
N541 C538 1.377 . S
N541 C540 1.344 . S
O542 Co534 2.055 . S
O542 C546 1.253 . S
H543 C539 0.931 . S
H544 C540 0.930 . S
O545 Co534 2.039 . S
O545 C535 1.265 . S
C546 O542 1.253 . S
C546 O547 1.227 . S
O547 C546 1.227 . S
N548 Co534 2.140 . S
N548 C551 1.346 . S
N548 C552 1.345 . S
C549 C550 1.387 . S
C549 C553 1.391 . S
C550 C549 1.387 . S
C550 C551 1.369 . S
C550 H559 0.929 . S
C551 N548 1.346 . S
C551 C550 1.369 . S
C551 H554 0.928 . S
C552 N548 1.345 . S
C552 C553 1.371 . S
C552 H555 0.931 . S
C553 C549 1.391 . S
C553 C552 1.371 . S
C553 H560 0.930 . S
H554 C551 0.928 . S
H555 C552 0.931 . S
H556 C532 0.930 . S
H557 C529 0.930 . S
H558 C538 0.930 . S
H559 C550 0.929 . S
H560 C553 0.930 . S
C561 C562 1.351 . S
C561 N564 1.368 . S
C561 H566 0.931 . S
C562 C561 1.351 . S
C562 N563 1.373 . S
C562 H590 0.930 . S
N563 C562 1.373 . S
N563 C565 1.340 . S
N564 C561 1.368 . S
N564 C565 1.321 . S
N564 Co567 2.135 . S
C565 N563 1.340 . S
C565 N564 1.321 . S
C565 H589 0.930 . S
H566 C561 0.931 . S
Co567 N564 2.135 . S
Co567 N570 2.121 . S
Co567 O575 2.055 . S
Co567 O578 2.039 . S
Co567 N581 2.140 . S
C568 O569 1.227 . S
C568 O578 1.265 . S
O569 C568 1.227 . S
N570 Co567 2.121 . S
N570 C572 1.375 . S
N570 C573 1.313 . S
C571 C572 1.338 . S
C571 N574 1.377 . S
C571 H591 0.930 1_545 S
C572 N570 1.375 . S
C572 C571 1.338 . S
C572 H576 0.931 . S
C573 N570 1.313 . S
C573 N574 1.344 . S
C573 H577 0.930 . S
N574 C571 1.377 . S
N574 C573 1.344 . S
O575 Co567 2.055 . S
O575 C579 1.253 . S
H576 C572 0.931 . S
H577 C573 0.930 . S
O578 Co567 2.039 . S
O578 C568 1.265 . S
C579 O575 1.253 . S
C579 O580 1.227 . S
O580 C579 1.227 . S
N581 Co567 2.140 . S
N581 C584 1.346 . S
N581 C585 1.345 . S
C582 C583 1.387 . S
C582 C586 1.391 . S
C583 C582 1.387 . S
C583 C584 1.369 . S
C583 H592 0.929 . S
C584 N581 1.346 . S
C584 C583 1.369 . S
C584 H587 0.928 . S
C585 N581 1.345 . S
C585 C586 1.371 . S
C585 H588 0.931 . S
C586 C582 1.391 . S
C586 C585 1.371 . S
C586 H593 0.930 . S
H587 C584 0.928 . S
H588 C585 0.931 . S
H589 C565 0.930 . S
H590 C562 0.930 . S
H591 C571 0.930 1_565 S
H592 C583 0.929 . S
H593 C586 0.930 . S
C594 C595 1.351 . S
C594 N597 1.368 . S
C594 H599 0.931 . S
C595 C594 1.351 . S
C595 N596 1.373 . S
C595 H623 0.930 . S
N596 C595 1.373 . S
N596 C598 1.340 . S
N597 C594 1.368 . S
N597 C598 1.321 . S
N597 Co600 2.135 . S
C598 N596 1.340 . S
C598 N597 1.321 . S
C598 H622 0.930 . S
H599 C594 0.931 . S
Co600 N597 2.135 . S
Co600 N603 2.121 . S
Co600 O608 2.055 . S
Co600 O611 2.039 . S
Co600 N614 2.140 . S
C601 O602 1.227 . S
C601 O611 1.265 . S
O602 C601 1.227 . S
N603 Co600 2.121 . S
N603 C605 1.375 . S
N603 C606 1.313 . S
C604 C605 1.338 . S
C604 N607 1.377 . S
C604 H624 0.930 1_545 S
C605 N603 1.375 . S
C605 C604 1.338 . S
C605 H609 0.931 . S
C606 N603 1.313 . S
C606 N607 1.344 . S
C606 H610 0.930 . S
N607 C604 1.377 . S
N607 C606 1.344 . S
O608 Co600 2.055 . S
O608 C612 1.253 . S
H609 C605 0.931 . S
H610 C606 0.930 . S
O611 Co600 2.039 . S
O611 C601 1.265 . S
C612 O608 1.253 . S
C612 O613 1.227 . S
O613 C612 1.227 . S
N614 Co600 2.140 . S
N614 C617 1.346 . S
N614 C618 1.345 . S
C615 C616 1.387 . S
C615 C619 1.391 . S
C616 C615 1.387 . S
C616 C617 1.369 . S
C616 H625 0.929 . S
C617 N614 1.346 . S
C617 C616 1.369 . S
C617 H620 0.928 . S
C618 N614 1.345 . S
C618 C619 1.371 . S
C618 H621 0.931 . S
C619 C615 1.391 . S
C619 C618 1.371 . S
C619 H626 0.930 . S
H620 C617 0.928 . S
H621 C618 0.931 . S
H622 C598 0.930 . S
H623 C595 0.930 . S
H624 C604 0.930 1_565 S
H625 C616 0.929 . S
H626 C619 0.930 . S
C627 C628 1.351 . S
C627 N630 1.368 . S
C627 H632 0.931 . S
C628 C627 1.351 . S
C628 N629 1.373 . S
C628 H656 0.930 . S
N629 C628 1.373 . S
N629 C631 1.340 . S
N630 C627 1.368 . S
N630 C631 1.321 . S
N630 Co633 2.135 . S
C631 N629 1.340 . S
C631 N630 1.321 . S
C631 H655 0.930 . S
H632 C627 0.931 . S
Co633 N630 2.135 . S
Co633 N636 2.121 . S
Co633 O641 2.055 . S
Co633 O644 2.039 . S
Co633 N647 2.140 . S
C634 O635 1.227 . S
C634 O644 1.265 . S
O635 C634 1.227 . S
N636 Co633 2.121 . S
N636 C638 1.375 . S
N636 C639 1.313 . S
C637 C638 1.338 . S
C637 N640 1.377 . S
C637 H657 0.930 1_655 S
C638 N636 1.375 . S
C638 C637 1.338 . S
C638 H642 0.931 . S
C639 N636 1.313 . S
C639 N640 1.344 . S
C639 H643 0.930 . S
N640 C637 1.377 . S
N640 C639 1.344 . S
O641 Co633 2.055 . S
O641 C645 1.253 . S
H642 C638 0.931 . S
H643 C639 0.930 . S
O644 Co633 2.039 . S
O644 C634 1.265 . S
C645 O641 1.253 . S
C645 O646 1.227 . S
O646 C645 1.227 . S
N647 Co633 2.140 . S
N647 C650 1.346 . S
N647 C651 1.345 . S
C648 C649 1.387 . S
C648 C652 1.391 . S
C649 C648 1.387 . S
C649 C650 1.369 . S
C649 H658 0.929 . S
C650 N647 1.346 . S
C650 C649 1.369 . S
C650 H653 0.928 . S
C651 N647 1.345 . S
C651 C652 1.371 . S
C651 H654 0.931 . S
C652 C648 1.391 . S
C652 C651 1.371 . S
C652 H659 0.930 . S
H653 C650 0.928 . S
H654 C651 0.931 . S
H655 C631 0.930 . S
H656 C628 0.930 . S
H657 C637 0.930 1_455 S
H658 C649 0.929 . S
H659 C652 0.930 . S
C660 C661 1.351 . S
C660 N663 1.368 . S
C660 H665 0.931 . S
C661 C660 1.351 . S
C661 N662 1.373 . S
C661 H689 0.930 . S
N662 C661 1.373 . S
N662 C664 1.340 . S
N663 C660 1.368 . S
N663 C664 1.321 . S
N663 Co666 2.135 . S
C664 N662 1.340 . S
C664 N663 1.321 . S
C664 H688 0.930 . S
H665 C660 0.931 . S
Co666 N663 2.135 . S
Co666 N669 2.121 . S
Co666 O674 2.055 . S
Co666 O677 2.039 . S
Co666 N680 2.140 . S
C667 O668 1.227 . S
C667 O677 1.265 . S
O668 C667 1.227 . S
N669 Co666 2.121 . S
N669 C671 1.375 . S
N669 C672 1.313 . S
C670 C671 1.338 . S
C670 N673 1.377 . S
C670 H690 0.930 . S
C671 N669 1.375 . S
C671 C670 1.338 . S
C671 H675 0.931 . S
C672 N669 1.313 . S
C672 N673 1.344 . S
C672 H676 0.930 . S
N673 C670 1.377 . S
N673 C672 1.344 . S
O674 Co666 2.055 . S
O674 C678 1.253 . S
H675 C671 0.931 . S
H676 C672 0.930 . S
O677 Co666 2.039 . S
O677 C667 1.265 . S
C678 O674 1.253 . S
C678 O679 1.227 . S
O679 C678 1.227 . S
N680 Co666 2.140 . S
N680 C683 1.346 . S
N680 C684 1.345 . S
C681 C682 1.387 . S
C681 C685 1.391 . S
C682 C681 1.387 . S
C682 C683 1.369 . S
C682 H691 0.929 . S
C683 N680 1.346 . S
C683 C682 1.369 . S
C683 H686 0.928 . S
C684 N680 1.345 . S
C684 C685 1.371 . S
C684 H687 0.931 . S
C685 C681 1.391 . S
C685 C684 1.371 . S
C685 H692 0.930 . S
H686 C683 0.928 . S
H687 C684 0.931 . S
H688 C664 0.930 . S
H689 C661 0.930 . S
H690 C670 0.930 . S
H691 C682 0.929 . S
H692 C685 0.930 . S
C693 C694 1.351 . S
C693 N696 1.368 . S
C693 H698 0.931 . S
C694 C693 1.351 . S
C694 N695 1.373 . S
C694 H722 0.930 . S
N695 C694 1.373 . S
N695 C697 1.340 . S
N696 C693 1.368 . S
N696 C697 1.321 . S
N696 Co699 2.135 . S
C697 N695 1.340 . S
C697 N696 1.321 . S
C697 H721 0.930 . S
H698 C693 0.931 . S
Co699 N696 2.135 . S
Co699 N702 2.121 1_545 S
Co699 O707 2.059 . S
Co699 O710 2.039 1_545 S
Co699 N713 2.140 . S
C700 O701 1.227 . S
C700 O710 1.265 1_545 S
O701 C700 1.227 . S
N702 Co699 2.121 1_565 S
N702 C704 1.375 . S
N702 C705 1.313 . S
C703 C704 1.338 . S
C703 N706 1.377 . S
C703 H723 0.930 . S
C704 N702 1.375 . S
C704 C703 1.338 . S
C704 H708 0.926 1_565 S
C705 N702 1.313 . S
C705 N706 1.344 . S
C705 H709 0.930 . S
N706 C703 1.377 . S
N706 C705 1.344 . S
O707 Co699 2.059 . S
O707 C711 1.257 . S
H708 C704 0.926 1_545 S
H709 C705 0.930 . S
O710 Co699 2.039 1_565 S
O710 C700 1.265 1_565 S
C711 O707 1.257 . S
C711 O712 1.227 . S
O712 C711 1.227 . S
N713 Co699 2.140 . S
N713 C716 1.346 . S
N713 C717 1.345 . S
C714 C715 1.387 . S
C714 C718 1.391 . S
C715 C714 1.387 . S
C715 C716 1.369 . S
C715 H724 0.929 . S
C716 N713 1.346 . S
C716 C715 1.369 . S
C716 H719 0.928 . S
C717 N713 1.345 . S
C717 C718 1.371 . S
C717 H720 0.931 . S
C718 C714 1.391 . S
C718 C717 1.371 . S
C718 H725 0.930 . S
H719 C716 0.928 . S
H720 C717 0.931 . S
H721 C697 0.930 . S
H722 C694 0.930 . S
H723 C703 0.930 . S
H724 C715 0.929 . S
H725 C718 0.930 . S
C726 C727 1.351 . S
C726 N729 1.368 . S
C726 H731 0.931 . S
C727 C726 1.351 . S
C727 N728 1.373 . S
C727 H755 0.930 . S
N728 C727 1.373 . S
N728 C730 1.340 . S
N729 C726 1.368 . S
N729 C730 1.321 . S
N729 Co732 2.135 . S
C730 N728 1.340 . S
C730 N729 1.321 . S
C730 H754 0.930 . S
H731 C726 0.931 . S
Co732 N729 2.135 . S
Co732 N735 2.121 1_655 S
Co732 O740 2.056 . S
Co732 O743 2.039 1_655 S
Co732 N746 2.140 . S
C733 O734 1.227 . S
C733 O743 1.265 1_655 S
O734 C733 1.227 . S
N735 Co732 2.121 1_455 S
N735 C737 1.375 . S
N735 C738 1.313 . S
C736 C737 1.338 . S
C736 N739 1.377 . S
C736 H756 0.930 . S
C737 N735 1.375 . S
C737 C736 1.338 . S
C737 H741 0.923 1_455 S
C738 N735 1.313 . S
C738 N739 1.344 . S
C738 H742 0.930 . S
N739 C736 1.377 . S
N739 C738 1.344 . S
O740 Co732 2.056 . S
O740 C744 1.255 . S
H741 C737 0.923 1_655 S
H742 C738 0.930 . S
O743 Co732 2.039 1_455 S
O743 C733 1.265 1_455 S
C744 O740 1.255 . S
C744 O745 1.227 . S
O745 C744 1.227 . S
N746 Co732 2.140 . S
N746 C749 1.346 . S
N746 C750 1.345 . S
C747 C748 1.387 . S
C747 C751 1.391 . S
C748 C747 1.387 . S
C748 C749 1.369 . S
C748 H757 0.929 . S
C749 N746 1.346 . S
C749 C748 1.369 . S
C749 H752 0.928 . S
C750 N746 1.345 . S
C750 C751 1.371 . S
C750 H753 0.931 . S
C751 C747 1.391 . S
C751 C750 1.371 . S
C751 H758 0.930 . S
H752 C749 0.928 . S
H753 C750 0.931 . S
H754 C730 0.930 . S
H755 C727 0.930 . S
H756 C736 0.930 . S
H757 C748 0.929 . S
H758 C751 0.930 . S
C759 C760 1.351 . S
C759 N762 1.368 . S
C759 H764 0.931 . S
C760 C759 1.351 . S
C760 N761 1.373 . S
C760 H788 0.930 . S
N761 C760 1.373 . S
N761 C763 1.340 . S
N762 C759 1.368 . S
N762 C763 1.321 . S
N762 Co765 2.135 . S
C763 N761 1.340 . S
C763 N762 1.321 . S
C763 H787 0.930 . S
H764 C759 0.931 . S
Co765 N762 2.135 . S
Co765 N768 2.121 . S
Co765 O773 2.055 . S
Co765 O776 2.039 . S
Co765 N779 2.140 . S
C766 O767 1.227 . S
C766 O776 1.265 . S
O767 C766 1.227 . S
N768 Co765 2.121 . S
N768 C770 1.375 . S
N768 C771 1.313 . S
C769 C770 1.338 . S
C769 N772 1.377 . S
C769 H789 0.930 . S
C770 N768 1.375 . S
C770 C769 1.338 . S
C770 H774 0.931 . S
C771 N768 1.313 . S
C771 N772 1.344 . S
C771 H775 0.930 . S
N772 C769 1.377 . S
N772 C771 1.344 . S
O773 Co765 2.055 . S
O773 C777 1.253 . S
H774 C770 0.931 . S
H775 C771 0.930 . S
O776 Co765 2.039 . S
O776 C766 1.265 . S
C777 O773 1.253 . S
C777 O778 1.227 . S
O778 C777 1.227 . S
N779 Co765 2.140 . S
N779 C782 1.346 . S
N779 C783 1.345 . S
C780 C781 1.387 . S
C780 C784 1.391 . S
C781 C780 1.387 . S
C781 C782 1.369 . S
C781 H790 0.929 . S
C782 N779 1.346 . S
C782 C781 1.369 . S
C782 H785 0.928 . S
C783 N779 1.345 . S
C783 C784 1.371 . S
C783 H786 0.931 . S
C784 C780 1.391 . S
C784 C783 1.371 . S
C784 H791 0.930 . S
H785 C782 0.928 . S
H786 C783 0.931 . S
H787 C763 0.930 . S
H788 C760 0.930 . S
H789 C769 0.930 . S
H790 C781 0.929 . S
H791 C784 0.930 . S
C792 C793 1.351 . S
C792 N795 1.368 . S
C792 H797 0.931 . S
C793 C792 1.351 . S
C793 N794 1.373 . S
C793 H821 0.930 . S
N794 C793 1.373 . S
N794 C796 1.340 . S
N795 C792 1.368 . S
N795 C796 1.321 . S
N795 Co798 2.135 . S
C796 N794 1.340 . S
C796 N795 1.321 . S
C796 H820 0.930 . S
H797 C792 0.931 . S
Co798 N795 2.135 . S
Co798 N801 2.121 . S
Co798 O806 2.055 . S
Co798 O809 2.039 . S
Co798 N812 2.140 . S
C799 O800 1.227 . S
C799 O809 1.265 . S
O800 C799 1.227 . S
N801 Co798 2.121 . S
N801 C803 1.375 . S
N801 C804 1.313 . S
C802 C803 1.338 . S
C802 N805 1.377 . S
C802 H822 0.930 1_565 S
C803 N801 1.375 . S
C803 C802 1.338 . S
C803 H807 0.931 . S
C804 N801 1.313 . S
C804 N805 1.344 . S
C804 H808 0.930 . S
N805 C802 1.377 . S
N805 C804 1.344 . S
O806 Co798 2.055 . S
O806 C810 1.253 . S
H807 C803 0.931 . S
H808 C804 0.930 . S
O809 Co798 2.039 . S
O809 C799 1.265 . S
C810 O806 1.253 . S
C810 O811 1.227 . S
O811 C810 1.227 . S
N812 Co798 2.140 . S
N812 C815 1.346 . S
N812 C816 1.345 . S
C813 C814 1.387 . S
C813 C817 1.391 . S
C814 C813 1.387 . S
C814 C815 1.369 . S
C814 H823 0.929 . S
C815 N812 1.346 . S
C815 C814 1.369 . S
C815 H818 0.928 . S
C816 N812 1.345 . S
C816 C817 1.371 . S
C816 H819 0.931 . S
C817 C813 1.391 . S
C817 C816 1.371 . S
C817 H824 0.930 . S
H818 C815 0.928 . S
H819 C816 0.931 . S
H820 C796 0.930 . S
H821 C793 0.930 . S
H822 C802 0.930 1_545 S
H823 C814 0.929 . S
H824 C817 0.930 . S
C825 C826 1.351 . S
C825 N828 1.368 . S
C825 H830 0.931 . S
C826 C825 1.351 . S
C826 N827 1.373 . S
C826 H854 0.930 . S
N827 C826 1.373 . S
N827 C829 1.340 . S
N828 C825 1.368 . S
N828 C829 1.321 . S
N828 Co831 2.135 . S
C829 N827 1.340 . S
C829 N828 1.321 . S
C829 H853 0.930 . S
H830 C825 0.931 . S
Co831 N828 2.135 . S
Co831 N834 2.121 . S
Co831 O839 2.055 . S
Co831 O842 2.039 . S
Co831 N845 2.140 . S
C832 O833 1.227 . S
C832 O842 1.265 . S
O833 C832 1.227 . S
N834 Co831 2.121 . S
N834 C836 1.375 . S
N834 C837 1.313 . S
C835 C836 1.338 . S
C835 N838 1.377 . S
C835 H855 0.930 1_455 S
C836 N834 1.375 . S
C836 C835 1.338 . S
C836 H840 0.931 . S
C837 N834 1.313 . S
C837 N838 1.344 . S
C837 H841 0.930 . S
N838 C835 1.377 . S
N838 C837 1.344 . S
O839 Co831 2.055 . S
O839 C843 1.253 . S
H840 C836 0.931 . S
H841 C837 0.930 . S
O842 Co831 2.039 . S
O842 C832 1.265 . S
C843 O839 1.253 . S
C843 O844 1.227 . S
O844 C843 1.227 . S
N845 Co831 2.140 . S
N845 C848 1.346 . S
N845 C849 1.345 . S
C846 C847 1.387 . S
C846 C850 1.391 . S
C847 C846 1.387 . S
C847 C848 1.369 . S
C847 H856 0.929 . S
C848 N845 1.346 . S
C848 C847 1.369 . S
C848 H851 0.928 . S
C849 N845 1.345 . S
C849 C850 1.371 . S
C849 H852 0.931 . S
C850 C846 1.391 . S
C850 C849 1.371 . S
C850 H857 0.930 . S
H851 C848 0.928 . S
H852 C849 0.931 . S
H853 C829 0.930 . S
H854 C826 0.930 . S
H855 C835 0.930 1_655 S
H856 C847 0.929 . S
H857 C850 0.930 . S
C858 C859 1.351 . S
C858 N861 1.368 . S
C858 H863 0.931 . S
C859 C858 1.351 . S
C859 N860 1.373 . S
C859 H887 0.930 . S
N860 C859 1.373 . S
N860 C862 1.340 . S
N861 C858 1.368 . S
N861 C862 1.321 . S
N861 Co864 2.135 . S
C862 N860 1.340 . S
C862 N861 1.321 . S
C862 H886 0.930 . S
H863 C858 0.931 . S
Co864 N861 2.135 . S
Co864 N867 2.121 . S
Co864 O872 2.055 . S
Co864 O875 2.039 . S
Co864 N878 2.140 . S
C865 O866 1.227 . S
C865 O875 1.265 . S
O866 C865 1.227 . S
N867 Co864 2.121 . S
N867 C869 1.375 . S
N867 C870 1.313 . S
C868 C869 1.338 . S
C868 N871 1.377 . S
C868 H888 0.930 . S
C869 N867 1.375 . S
C869 C868 1.338 . S
C869 H873 0.931 . S
C870 N867 1.313 . S
C870 N871 1.344 . S
C870 H874 0.930 . S
N871 C868 1.377 . S
N871 C870 1.344 . S
O872 Co864 2.055 . S
O872 C876 1.253 . S
H873 C869 0.931 . S
H874 C870 0.930 . S
O875 Co864 2.039 . S
O875 C865 1.265 . S
C876 O872 1.253 . S
C876 O877 1.227 . S
O877 C876 1.227 . S
N878 Co864 2.140 . S
N878 C881 1.346 . S
N878 C882 1.345 . S
C879 C880 1.387 . S
C879 C883 1.391 . S
C880 C879 1.387 . S
C880 C881 1.369 . S
C880 H889 0.929 . S
C881 N878 1.346 . S
C881 C880 1.369 . S
C881 H884 0.928 . S
C882 N878 1.345 . S
C882 C883 1.371 . S
C882 H885 0.931 . S
C883 C879 1.391 . S
C883 C882 1.371 . S
C883 H890 0.930 . S
H884 C881 0.928 . S
H885 C882 0.931 . S
H886 C862 0.930 . S
H887 C859 0.930 . S
H888 C868 0.930 . S
H889 C880 0.929 . S
H890 C883 0.930 . S
C891 C892 1.351 . S
C891 N894 1.368 . S
C891 H896 0.931 . S
C892 C891 1.351 . S
C892 N893 1.373 . S
C892 H920 0.930 . S
N893 C892 1.373 . S
N893 C895 1.340 . S
N894 C891 1.368 . S
N894 C895 1.321 . S
N894 Co897 2.135 . S
C895 N893 1.340 . S
C895 N894 1.321 . S
C895 H919 0.930 . S
H896 C891 0.931 . S
Co897 N894 2.135 . S
Co897 N900 2.121 1_565 S
Co897 O905 2.059 . S
Co897 O908 2.039 1_565 S
Co897 N911 2.140 . S
C898 O899 1.227 . S
C898 O908 1.265 1_565 S
O899 C898 1.227 . S
N900 Co897 2.121 1_545 S
N900 C902 1.375 . S
N900 C903 1.313 . S
C901 C902 1.338 . S
C901 N904 1.377 . S
C901 H921 0.930 . S
C902 N900 1.375 . S
C902 C901 1.338 . S
C902 H906 0.926 1_545 S
C903 N900 1.313 . S
C903 N904 1.344 . S
C903 H907 0.930 . S
N904 C901 1.377 . S
N904 C903 1.344 . S
O905 Co897 2.059 . S
O905 C909 1.257 . S
H906 C902 0.926 1_565 S
H907 C903 0.930 . S
O908 Co897 2.039 1_545 S
O908 C898 1.265 1_545 S
C909 O905 1.257 . S
C909 O910 1.227 . S
O910 C909 1.227 . S
N911 Co897 2.140 . S
N911 C914 1.346 . S
N911 C915 1.345 . S
C912 C913 1.387 . S
C912 C916 1.391 . S
C913 C912 1.387 . S
C913 C914 1.369 . S
C913 H922 0.929 . S
C914 N911 1.346 . S
C914 C913 1.369 . S
C914 H917 0.928 . S
C915 N911 1.345 . S
C915 C916 1.371 . S
C915 H918 0.931 . S
C916 C912 1.391 . S
C916 C915 1.371 . S
C916 H923 0.930 . S
H917 C914 0.928 . S
H918 C915 0.931 . S
H919 C895 0.930 . S
H920 C892 0.930 . S
H921 C901 0.930 . S
H922 C913 0.929 . S
H923 C916 0.930 . S
C924 C925 1.351 . S
C924 N927 1.368 . S
C924 H929 0.931 . S
C925 C924 1.351 . S
C925 N926 1.373 . S
C925 H953 0.930 . S
N926 C925 1.373 . S
N926 C928 1.340 . S
N927 C924 1.368 . S
N927 C928 1.321 . S
N927 Co930 2.135 . S
C928 N926 1.340 . S
C928 N927 1.321 . S
C928 H952 0.930 . S
H929 C924 0.931 . S
Co930 N927 2.135 . S
Co930 N933 2.121 1_455 S
Co930 O938 2.056 . S
Co930 O941 2.039 1_455 S
Co930 N944 2.140 . S
C931 O932 1.227 . S
C931 O941 1.265 1_455 S
O932 C931 1.227 . S
N933 Co930 2.121 1_655 S
N933 C935 1.375 . S
N933 C936 1.313 . S
C934 C935 1.338 . S
C934 N937 1.377 . S
C934 H954 0.930 . S
C935 N933 1.375 . S
C935 C934 1.338 . S
C935 H939 0.923 1_655 S
C936 N933 1.313 . S
C936 N937 1.344 . S
C936 H940 0.930 . S
N937 C934 1.377 . S
N937 C936 1.344 . S
O938 Co930 2.056 . S
O938 C942 1.255 . S
H939 C935 0.923 1_455 S
H940 C936 0.930 . S
O941 Co930 2.039 1_655 S
O941 C931 1.265 1_655 S
C942 O938 1.255 . S
C942 O943 1.227 . S
O943 C942 1.227 . S
N944 Co930 2.140 . S
N944 C947 1.346 . S
N944 C948 1.345 . S
C945 C946 1.387 . S
C945 C949 1.391 . S
C946 C945 1.387 . S
C946 C947 1.369 . S
C946 H955 0.929 . S
C947 N944 1.346 . S
C947 C946 1.369 . S
C947 H950 0.928 . S
C948 N944 1.345 . S
C948 C949 1.371 . S
C948 H951 0.931 . S
C949 C945 1.391 . S
C949 C948 1.371 . S
C949 H956 0.930 . S
H950 C947 0.928 . S
H951 C948 0.931 . S
H952 C928 0.930 . S
H953 C925 0.930 . S
H954 C934 0.930 . S
H955 C946 0.929 . S
H956 C949 0.930 . S
C957 C958 1.351 . S
C957 N960 1.368 . S
C957 H962 0.931 . S
C958 C957 1.351 . S
C958 N959 1.373 . S
C958 H986 0.930 . S
N959 C958 1.373 . S
N959 C961 1.340 . S
N960 C957 1.368 . S
N960 C961 1.321 . S
N960 Co963 2.135 . S
C961 N959 1.340 . S
C961 N960 1.321 . S
C961 H985 0.930 . S
H962 C957 0.931 . S
Co963 N960 2.135 . S
Co963 N966 2.121 . S
Co963 O971 2.055 . S
Co963 O974 2.039 . S
Co963 N977 2.140 . S
C964 O965 1.227 . S
C964 O974 1.265 . S
O965 C964 1.227 . S
N966 Co963 2.121 . S
N966 C968 1.375 . S
N966 C969 1.313 . S
C967 C968 1.338 . S
C967 N970 1.377 . S
C967 H987 0.930 . S
C968 N966 1.375 . S
C968 C967 1.338 . S
C968 H972 0.931 . S
C969 N966 1.313 . S
C969 N970 1.344 . S
C969 H973 0.930 . S
N970 C967 1.377 . S
N970 C969 1.344 . S
O971 Co963 2.055 . S
O971 C975 1.253 . S
H972 C968 0.931 . S
H973 C969 0.930 . S
O974 Co963 2.039 . S
O974 C964 1.265 . S
C975 O971 1.253 . S
C975 O976 1.227 . S
O976 C975 1.227 . S
N977 Co963 2.140 . S
N977 C980 1.346 . S
N977 C981 1.345 . S
C978 C979 1.387 . S
C978 C982 1.391 . S
C979 C978 1.387 . S
C979 C980 1.369 . S
C979 H988 0.929 . S
C980 N977 1.346 . S
C980 C979 1.369 . S
C980 H983 0.928 . S
C981 N977 1.345 . S
C981 C982 1.371 . S
C981 H984 0.931 . S
C982 C978 1.391 . S
C982 C981 1.371 . S
C982 H989 0.930 . S
H983 C980 0.928 . S
H984 C981 0.931 . S
H985 C961 0.930 . S
H986 C958 0.930 . S
H987 C967 0.930 . S
H988 C979 0.929 . S
H989 C982 0.930 . S
C990 C991 1.351 . S
C990 N993 1.368 . S
C990 H995 0.931 . S
C991 C990 1.351 . S
C991 N992 1.373 . S
C991 H1019 0.930 . S
N992 C991 1.373 . S
N992 C994 1.340 . S
N993 C990 1.368 . S
N993 C994 1.321 . S
N993 Co996 2.135 . S
C994 N992 1.340 . S
C994 N993 1.321 . S
C994 H1018 0.930 . S
H995 C990 0.931 . S
Co996 N993 2.135 . S
Co996 N999 2.121 1_455 S
Co996 O1004 2.059 . S
Co996 O1007 2.039 1_455 S
Co996 N1010 2.140 . S
C997 O998 1.227 . S
C997 O1007 1.265 1_455 S
O998 C997 1.227 . S
N999 Co996 2.121 1_655 S
N999 C1001 1.375 . S
N999 C1002 1.313 . S
C1000 C1001 1.338 . S
C1000 N1003 1.377 . S
C1000 H1020 0.930 . S
C1001 N999 1.375 . S
C1001 C1000 1.338 . S
C1001 H1005 0.926 1_655 S
C1002 N999 1.313 . S
C1002 N1003 1.344 . S
C1002 H1006 0.930 . S
N1003 C1000 1.377 . S
N1003 C1002 1.344 . S
O1004 Co996 2.059 . S
O1004 C1008 1.257 . S
H1005 C1001 0.926 1_455 S
H1006 C1002 0.930 . S
O1007 Co996 2.039 1_655 S
O1007 C997 1.265 1_655 S
C1008 O1004 1.257 . S
C1008 O1009 1.227 . S
O1009 C1008 1.227 . S
N1010 Co996 2.140 . S
N1010 C1013 1.346 . S
N1010 C1014 1.345 . S
C1011 C1012 1.387 . S
C1011 C1015 1.391 . S
C1012 C1011 1.387 . S
C1012 C1013 1.369 . S
C1012 H1021 0.929 . S
C1013 N1010 1.346 . S
C1013 C1012 1.369 . S
C1013 H1016 0.928 . S
C1014 N1010 1.345 . S
C1014 C1015 1.371 . S
C1014 H1017 0.931 . S
C1015 C1011 1.391 . S
C1015 C1014 1.371 . S
C1015 H1022 0.930 . S
H1016 C1013 0.928 . S
H1017 C1014 0.931 . S
H1018 C994 0.930 . S
H1019 C991 0.930 . S
H1020 C1000 0.930 . S
H1021 C1012 0.929 . S
H1022 C1015 0.930 . S
C1023 C1024 1.351 . S
C1023 N1026 1.368 . S
C1023 H1028 0.931 . S
C1024 C1023 1.351 . S
C1024 N1025 1.373 . S
C1024 H1052 0.930 . S
N1025 C1024 1.373 . S
N1025 C1027 1.340 . S
N1026 C1023 1.368 . S
N1026 C1027 1.321 . S
N1026 Co1029 2.135 . S
C1027 N1025 1.340 . S
C1027 N1026 1.321 . S
C1027 H1051 0.930 . S
H1028 C1023 0.931 . S
Co1029 N1026 2.135 . S
Co1029 N1032 2.121 . S
Co1029 O1037 2.055 . S
Co1029 O1040 2.039 . S
Co1029 N1043 2.140 . S
C1030 O1031 1.227 . S
C1030 O1040 1.265 . S
O1031 C1030 1.227 . S
N1032 Co1029 2.121 . S
N1032 C1034 1.375 . S
N1032 C1035 1.313 . S
C1033 C1034 1.338 . S
C1033 N1036 1.377 . S
C1033 H1053 0.930 . S
C1034 N1032 1.375 . S
C1034 C1033 1.338 . S
C1034 H1038 0.931 . S
C1035 N1032 1.313 . S
C1035 N1036 1.344 . S
C1035 H1039 0.930 . S
N1036 C1033 1.377 . S
N1036 C1035 1.344 . S
O1037 Co1029 2.055 . S
O1037 C1041 1.253 . S
H1038 C1034 0.931 . S
H1039 C1035 0.930 . S
O1040 Co1029 2.039 . S
O1040 C1030 1.265 . S
C1041 O1037 1.253 . S
C1041 O1042 1.227 . S
O1042 C1041 1.227 . S
N1043 Co1029 2.140 . S
N1043 C1046 1.346 . S
N1043 C1047 1.345 . S
C1044 C1045 1.387 . S
C1044 C1048 1.391 . S
C1045 C1044 1.387 . S
C1045 C1046 1.369 . S
C1045 H1054 0.929 . S
C1046 N1043 1.346 . S
C1046 C1045 1.369 . S
C1046 H1049 0.928 . S
C1047 N1043 1.345 . S
C1047 C1048 1.371 . S
C1047 H1050 0.931 . S
C1048 C1044 1.391 . S
C1048 C1047 1.371 . S
C1048 H1055 0.930 . S
H1049 C1046 0.928 . S
H1050 C1047 0.931 . S
H1051 C1027 0.930 . S
H1052 C1024 0.930 . S
H1053 C1033 0.930 . S
H1054 C1045 0.929 . S
H1055 C1048 0.930 . S
C1056 C1057 1.351 . S
C1056 N1059 1.368 . S
C1056 H1061 0.931 . S
C1057 C1056 1.351 . S
C1057 N1058 1.373 . S
C1057 H1085 0.930 . S
N1058 C1057 1.373 . S
N1058 C1060 1.340 . S
N1059 C1056 1.368 . S
N1059 C1060 1.321 . S
N1059 Co1062 2.135 . S
C1060 N1058 1.340 . S
C1060 N1059 1.321 . S
C1060 H1084 0.930 . S
H1061 C1056 0.931 . S
Co1062 N1059 2.135 . S
Co1062 N1065 2.121 1_565 S
Co1062 O1070 2.056 . S
Co1062 O1073 2.039 1_565 S
Co1062 N1076 2.140 . S
C1063 O1064 1.227 . S
C1063 O1073 1.265 1_565 S
O1064 C1063 1.227 . S
N1065 Co1062 2.121 1_545 S
N1065 C1067 1.375 . S
N1065 C1068 1.313 . S
C1066 C1067 1.338 . S
C1066 N1069 1.377 . S
C1066 H1086 0.930 . S
C1067 N1065 1.375 . S
C1067 C1066 1.338 . S
C1067 H1071 0.923 1_545 S
C1068 N1065 1.313 . S
C1068 N1069 1.344 . S
C1068 H1072 0.930 . S
N1069 C1066 1.377 . S
N1069 C1068 1.344 . S
O1070 Co1062 2.056 . S
O1070 C1074 1.255 . S
H1071 C1067 0.923 1_565 S
H1072 C1068 0.930 . S
O1073 Co1062 2.039 1_545 S
O1073 C1063 1.265 1_545 S
C1074 O1070 1.255 . S
C1074 O1075 1.227 . S
O1075 C1074 1.227 . S
N1076 Co1062 2.140 . S
N1076 C1079 1.346 . S
N1076 C1080 1.345 . S
C1077 C1078 1.387 . S
C1077 C1081 1.391 . S
C1078 C1077 1.387 . S
C1078 C1079 1.369 . S
C1078 H1087 0.929 . S
C1079 N1076 1.346 . S
C1079 C1078 1.369 . S
C1079 H1082 0.928 . S
C1080 N1076 1.345 . S
C1080 C1081 1.371 . S
C1080 H1083 0.931 . S
C1081 C1077 1.391 . S
C1081 C1080 1.371 . S
C1081 H1088 0.930 . S
H1082 C1079 0.928 . S
H1083 C1080 0.931 . S
H1084 C1060 0.930 . S
H1085 C1057 0.930 . S
H1086 C1066 0.930 . S
H1087 C1078 0.929 . S
H1088 C1081 0.930 . S
C1089 C1090 1.351 . S
C1089 N1092 1.368 . S
C1089 H1094 0.931 . S
C1090 C1089 1.351 . S
C1090 N1091 1.373 . S
C1090 H1118 0.930 . S
N1091 C1090 1.373 . S
N1091 C1093 1.340 . S
N1092 C1089 1.368 . S
N1092 C1093 1.321 . S
N1092 Co1095 2.135 . S
C1093 N1091 1.340 . S
C1093 N1092 1.321 . S
C1093 H1117 0.930 . S
H1094 C1089 0.931 . S
Co1095 N1092 2.135 . S
Co1095 N1098 2.121 . S
Co1095 O1103 2.055 . S
Co1095 O1106 2.039 . S
Co1095 N1109 2.140 . S
C1096 O1097 1.227 . S
C1096 O1106 1.265 . S
O1097 C1096 1.227 . S
N1098 Co1095 2.121 . S
N1098 C1100 1.375 . S
N1098 C1101 1.313 . S
C1099 C1100 1.338 . S
C1099 N1102 1.377 . S
C1099 H1119 0.930 1_455 S
C1100 N1098 1.375 . S
C1100 C1099 1.338 . S
C1100 H1104 0.931 . S
C1101 N1098 1.313 . S
C1101 N1102 1.344 . S
C1101 H1105 0.930 . S
N1102 C1099 1.377 . S
N1102 C1101 1.344 . S
O1103 Co1095 2.055 . S
O1103 C1107 1.253 . S
H1104 C1100 0.931 . S
H1105 C1101 0.930 . S
O1106 Co1095 2.039 . S
O1106 C1096 1.265 . S
C1107 O1103 1.253 . S
C1107 O1108 1.227 . S
O1108 C1107 1.227 . S
N1109 Co1095 2.140 . S
N1109 C1112 1.346 . S
N1109 C1113 1.345 . S
C1110 C1111 1.387 . S
C1110 C1114 1.391 . S
C1111 C1110 1.387 . S
C1111 C1112 1.369 . S
C1111 H1120 0.929 . S
C1112 N1109 1.346 . S
C1112 C1111 1.369 . S
C1112 H1115 0.928 . S
C1113 N1109 1.345 . S
C1113 C1114 1.371 . S
C1113 H1116 0.931 . S
C1114 C1110 1.391 . S
C1114 C1113 1.371 . S
C1114 H1121 0.930 . S
H1115 C1112 0.928 . S
H1116 C1113 0.931 . S
H1117 C1093 0.930 . S
H1118 C1090 0.930 . S
H1119 C1099 0.930 1_655 S
H1120 C1111 0.929 . S
H1121 C1114 0.930 . S
C1122 C1123 1.351 . S
C1122 N1125 1.368 . S
C1122 H1127 0.931 . S
C1123 C1122 1.351 . S
C1123 N1124 1.373 . S
C1123 H1151 0.930 . S
N1124 C1123 1.373 . S
N1124 C1126 1.340 . S
N1125 C1122 1.368 . S
N1125 C1126 1.321 . S
N1125 Co1128 2.135 . S
C1126 N1124 1.340 . S
C1126 N1125 1.321 . S
C1126 H1150 0.930 . S
H1127 C1122 0.931 . S
Co1128 N1125 2.135 . S
Co1128 N1131 2.121 . S
Co1128 O1136 2.055 . S
Co1128 O1139 2.039 . S
Co1128 N1142 2.140 . S
C1129 O1130 1.227 . S
C1129 O1139 1.265 . S
O1130 C1129 1.227 . S
N1131 Co1128 2.121 . S
N1131 C1133 1.375 . S
N1131 C1134 1.313 . S
C1132 C1133 1.338 . S
C1132 N1135 1.377 . S
C1132 H1152 0.930 . S
C1133 N1131 1.375 . S
C1133 C1132 1.338 . S
C1133 H1137 0.931 . S
C1134 N1131 1.313 . S
C1134 N1135 1.344 . S
C1134 H1138 0.930 . S
N1135 C1132 1.377 . S
N1135 C1134 1.344 . S
O1136 Co1128 2.055 . S
O1136 C1140 1.253 . S
H1137 C1133 0.931 . S
H1138 C1134 0.930 . S
O1139 Co1128 2.039 . S
O1139 C1129 1.265 . S
C1140 O1136 1.253 . S
C1140 O1141 1.227 . S
O1141 C1140 1.227 . S
N1142 Co1128 2.140 . S
N1142 C1145 1.346 . S
N1142 C1146 1.345 . S
C1143 C1144 1.387 . S
C1143 C1147 1.391 . S
C1144 C1143 1.387 . S
C1144 C1145 1.369 . S
C1144 H1153 0.929 . S
C1145 N1142 1.346 . S
C1145 C1144 1.369 . S
C1145 H1148 0.928 . S
C1146 N1142 1.345 . S
C1146 C1147 1.371 . S
C1146 H1149 0.931 . S
C1147 C1143 1.391 . S
C1147 C1146 1.371 . S
C1147 H1154 0.930 . S
H1148 C1145 0.928 . S
H1149 C1146 0.931 . S
H1150 C1126 0.930 . S
H1151 C1123 0.930 . S
H1152 C1132 0.930 . S
H1153 C1144 0.929 . S
H1154 C1147 0.930 . S
C1155 C1156 1.351 . S
C1155 N1158 1.368 . S
C1155 H1160 0.931 . S
C1156 C1155 1.351 . S
C1156 N1157 1.373 . S
C1156 H1184 0.930 . S
N1157 C1156 1.373 . S
N1157 C1159 1.340 . S
N1158 C1155 1.368 . S
N1158 C1159 1.321 . S
N1158 Co1161 2.135 . S
C1159 N1157 1.340 . S
C1159 N1158 1.321 . S
C1159 H1183 0.930 . S
H1160 C1155 0.931 . S
Co1161 N1158 2.135 . S
Co1161 N1164 2.121 . S
Co1161 O1169 2.055 . S
Co1161 O1172 2.039 . S
Co1161 N1175 2.140 . S
C1162 O1163 1.227 . S
C1162 O1172 1.265 . S
O1163 C1162 1.227 . S
N1164 Co1161 2.121 . S
N1164 C1166 1.375 . S
N1164 C1167 1.313 . S
C1165 C1166 1.338 . S
C1165 N1168 1.377 . S
C1165 H1185 0.930 1_565 S
C1166 N1164 1.375 . S
C1166 C1165 1.338 . S
C1166 H1170 0.931 . S
C1167 N1164 1.313 . S
C1167 N1168 1.344 . S
C1167 H1171 0.930 . S
N1168 C1165 1.377 . S
N1168 C1167 1.344 . S
O1169 Co1161 2.055 . S
O1169 C1173 1.253 . S
H1170 C1166 0.931 . S
H1171 C1167 0.930 . S
O1172 Co1161 2.039 . S
O1172 C1162 1.265 . S
C1173 O1169 1.253 . S
C1173 O1174 1.227 . S
O1174 C1173 1.227 . S
N1175 Co1161 2.140 . S
N1175 C1178 1.346 . S
N1175 C1179 1.345 . S
C1176 C1177 1.387 . S
C1176 C1180 1.391 . S
C1177 C1176 1.387 . S
C1177 C1178 1.369 . S
C1177 H1186 0.929 . S
C1178 N1175 1.346 . S
C1178 C1177 1.369 . S
C1178 H1181 0.928 . S
C1179 N1175 1.345 . S
C1179 C1180 1.371 . S
C1179 H1182 0.931 . S
C1180 C1176 1.391 . S
C1180 C1179 1.371 . S
C1180 H1187 0.930 . S
H1181 C1178 0.928 . S
H1182 C1179 0.931 . S
H1183 C1159 0.930 . S
H1184 C1156 0.930 . S
H1185 C1165 0.930 1_545 S
H1186 C1177 0.929 . S
H1187 C1180 0.930 . S
C535 C7 1.558 . S
C40 C568 1.558 . S
C502 C73 1.558 . S
C106 C865 1.558 . S
C799 C139 1.558 . S
C172 C832 1.558 . S
C205 C1129 1.558 . S
C238 C1162 1.558 . S
C271 C1096 1.558 . S
C304 C667 1.558 . S
C337 C601 1.558 . S
C370 C634 1.558 . S
C403 C931 1.558 1_655 S
C964 C436 1.558 . S
C898 C469 1.558 1_565 S
C1063 C700 1.558 1_565 S
C997 C733 1.558 1_455 S
C766 C1030 1.558 . S
N970 N13 1.432 . S
N46 N904 1.432 . S
N79 N937 1.431 . S
N112 N442 1.432 . S
N145 N475 1.432 . S
N409 N178 1.432 . S
N772 N211 1.432 . S
N244 N706 1.432 . S
N277 N739 1.431 . S
N1036 N310 1.432 . S
N1069 N343 1.432 . S
N1003 N376 1.432 . S
N508 N838 1.432 1_655 S
N541 N871 1.432 . S
N574 N805 1.432 1_545 S
N607 N1168 1.432 1_545 S
N1102 N640 1.432 1_455 S
N673 N1135 1.432 . S
C18 C612 2.078 . S
C51 C645 2.079 . S
C678 C84 2.079 . S
C117 C1107 2.078 . S
C150 C1140 2.079 . S
C183 C1173 2.079 . S
C810 C216 2.078 . S
C249 C843 2.079 . S
C876 C282 2.079 . S
C513 C315 2.078 . S
C546 C348 2.079 . S
C381 C579 2.079 . S
C1008 C414 2.078 1_455 S
C1041 C447 2.079 . S
C480 C1074 2.079 1_545 S
C909 C711 2.079 1_564 S
C744 C942 2.079 1_656 S
C975 C777 2.079 1_554 S
N2 C252 1.627 1_554 S
N35 C285 1.627 1_554 S
C219 N68 1.627 1_556 S
C384 N101 1.627 . S
C318 N134 1.627 . S
C351 N167 1.627 . S
C54 N200 1.627 1_554 S
C87 N233 1.627 1_554 S
C21 N266 1.627 1_554 S
N299 C186 1.627 . S
N332 C120 1.627 . S
C153 N365 1.627 . S
C648 N398 1.627 . S
N431 C681 1.627 . S
C615 N464 1.627 . S
C780 N497 1.627 . S
N530 C714 1.627 . S
N563 C747 1.627 . S
N596 C450 1.627 . S
N629 C483 1.627 . S
N662 C417 1.627 . S
N695 C582 1.627 . S
C516 N728 1.627 . S
C549 N761 1.627 . S
C1044 N794 1.627 . S
C1077 N827 1.627 . S
C1011 N860 1.627 . S
C1176 N893 1.627 . S
N926 C1110 1.627 . S
C1143 N959 1.627 . S
C846 N992 1.627 . S
C879 N1025 1.627 . S
C813 N1058 1.627 . S
N1091 C978 1.627 . S
N1124 C912 1.627 . S
C945 N1157 1.627 . S
