# Generated by pormake.
# Topology snk, (6)-cn, num edge types: 1
# Building blocks:
#     Node 0, Type 0, BuildingBlock: KUMJIN_clean_sbu_0, # of connection points: 6
#     Node 1, Type 0, BuildingBlock: KUMJIN_clean_sbu_0, # of connection points: 6
#     Node 2, Type 0, BuildingBlock: KUMJIN_clean_sbu_0, # of connection points: 6
#     Node 3, Type 0, BuildingBlock: KUMJIN_clean_sbu_0, # of connection points: 6
#     Node 4, Type 0, BuildingBlock: KUMJIN_clean_sbu_0, # of connection points: 6
#     Node 5, Type 0, BuildingBlock: KUMJIN_clean_sbu_0, # of connection points: 6
#     Node 6, Type 0, BuildingBlock: KUMJIN_clean_sbu_0, # of connection points: 6
#     Node 7, Type 0, BuildingBlock: KUMJIN_clean_sbu_0, # of connection points: 6
#     Edge 8, Type (0, 0), BuildingBlock: XIVTED_clean_linker_0, # of connection points: 2
#     Edge 9, Type (0, 0), BuildingBlock: XIVTED_clean_linker_0, # of connection points: 2
#     Edge 10, Type (0, 0), BuildingBlock: XIVTED_clean_linker_0, # of connection points: 2
#     Edge 11, Type (0, 0), BuildingBlock: XIVTED_clean_linker_0, # of connection points: 2
#     Edge 12, Type (0, 0), BuildingBlock: XIVTED_clean_linker_0, # of connection points: 2
#     Edge 13, Type (0, 0), BuildingBlock: XIVTED_clean_linker_0, # of connection points: 2
#     Edge 14, Type (0, 0), BuildingBlock: XIVTED_clean_linker_0, # of connection points: 2
#     Edge 15, Type (0, 0), BuildingBlock: XIVTED_clean_linker_0, # of connection points: 2
#     Edge 16, Type (0, 0), BuildingBlock: XIVTED_clean_linker_0, # of connection points: 2
#     Edge 17, Type (0, 0), BuildingBlock: XIVTED_clean_linker_0, # of connection points: 2
#     Edge 18, Type (0, 0), BuildingBlock: XIVTED_clean_linker_0, # of connection points: 2
#     Edge 19, Type (0, 0), BuildingBlock: XIVTED_clean_linker_0, # of connection points: 2
#     Edge 20, Type (0, 0), BuildingBlock: XIVTED_clean_linker_0, # of connection points: 2
#     Edge 21, Type (0, 0), BuildingBlock: XIVTED_clean_linker_0, # of connection points: 2
#     Edge 22, Type (0, 0), BuildingBlock: XIVTED_clean_linker_0, # of connection points: 2
#     Edge 23, Type (0, 0), BuildingBlock: XIVTED_clean_linker_0, # of connection points: 2
#     Edge 24, Type (0, 0), BuildingBlock: XIVTED_clean_linker_0, # of connection points: 2
#     Edge 25, Type (0, 0), BuildingBlock: XIVTED_clean_linker_0, # of connection points: 2
#     Edge 26, Type (0, 0), BuildingBlock: XIVTED_clean_linker_0, # of connection points: 2
#     Edge 27, Type (0, 0), BuildingBlock: XIVTED_clean_linker_0, # of connection points: 2
#     Edge 28, Type (0, 0), BuildingBlock: XIVTED_clean_linker_0, # of connection points: 2
#     Edge 29, Type (0, 0), BuildingBlock: XIVTED_clean_linker_0, # of connection points: 2
#     Edge 30, Type (0, 0), BuildingBlock: XIVTED_clean_linker_0, # of connection points: 2
#     Edge 31, Type (0, 0), BuildingBlock: XIVTED_clean_linker_0, # of connection points: 2
# Relax obj value: 0.006
# Max RMSD: 0.052
# Mean RMSD: 0.049
data_MOF--net-snk--node1-KUMJIN_clean_sbu_0--edge1-XIVTED_clean_linker_0
_symmetry_space_group_name_H-M    P1
_symmetry_Int_Tables_number       1
_symmetry_cell_setting            triclinic
loop_
_symmetry_equiv_pos_as_xyz
'x, y, z'
_cell_length_a     38.158592
_cell_length_b     38.176303
_cell_length_c     24.558743
_cell_angle_alpha  87.203913
_cell_angle_beta   87.317226
_cell_angle_gamma 89.704008
loop_
_atom_site_label
_atom_site_type_symbol
_atom_site_fract_x
_atom_site_fract_y
_atom_site_fract_z
_atom_type_partial_charge
Eu0 Eu 1.00019 0.97093 0.469 0.0
C1 C 0.00514 0.11601 0.57442 0.0
C2 C 0.06575 0.13456 0.56383 0.0
C3 C 0.01914 0.17817 0.56587 0.0
C4 C 0.04038 0.10771 0.56933 0.0
C5 C 0.99412 0.15133 0.57382 0.0
C6 C 0.05491 0.1698 0.56088 0.0
C7 C 0.93477 0.13101 0.59337 0.0
N8 N 0.98172 0.08948 0.58269 0.0
C9 C 0.94702 0.09642 0.59398 0.0
C10 C 0.95836 0.15861 0.58264 0.0
Eu11 Eu 0.00407 0.0315 0.58021 0.0
N12 N 0.04994 0.07342 0.57284 0.0
C13 C 0.08452 0.0643 0.5753 0.0
C14 C 0.10126 0.12522 0.56307 0.0
C15 C 0.11066 0.08995 0.56967 0.0
H16 H 0.92861 0.07519 0.60195 0.0
H17 H 0.13804 0.08246 0.57018 0.0
H18 H 0.074 0.19077 0.55612 0.0
H19 H 0.90715 0.13637 0.60112 0.0
H20 H 0.09227 0.03719 0.58008 0.0
H21 H 0.86619 0.92009 0.48077 0.0
H22 H 0.12156 0.14504 0.55874 0.0
H23 H 0.07518 0.92728 0.44378 0.0
H24 H 0.91202 0.96532 0.47017 0.0
H25 H 0.09654 0.86609 0.4429 0.0
H26 H 0.01118 0.20548 0.56483 0.0
H27 H 0.88263 0.85749 0.49205 0.0
H28 H 0.93017 0.81169 0.49358 0.0
H29 H 0.94884 0.1854 0.58242 0.0
H30 H 0.99291 0.79694 0.48292 0.0
N31 N 0.95431 0.92902 0.4771 0.0
C32 C 0.91973 0.93818 0.47494 0.0
C33 C 0.90294 0.87728 0.48748 0.0
C34 C 0.93845 0.8679 0.48614 0.0
C35 C 0.89356 0.91257 0.48095 0.0
C36 C 0.96384 0.89473 0.48034 0.0
H37 H 0.05507 0.81703 0.463 0.0
N38 N 0.02237 0.91295 0.46536 0.0
C39 C 0.06906 0.87143 0.45199 0.0
C40 C 0.99902 0.88642 0.47425 0.0
C41 C 0.05687 0.90603 0.45237 0.0
C42 C 0.04559 0.84382 0.46353 0.0
C43 C 0.00998 0.85109 0.47398 0.0
O44 O 0.02514 0.97174 0.38694 0.0
O45 O 0.0223 0.02176 0.49445 0.0
O46 O 0.9771 0.05977 0.51036 0.0
O47 O 0.95568 0.01146 0.46853 0.0
O48 O 0.05597 0.9905 0.45027 0.0
O49 O 0.9692 0.98016 0.39703 0.0
O50 O 0.97875 0.03133 0.66196 0.0
O51 O 0.98204 0.98049 0.55503 0.0
O52 O 0.02877 0.94285 0.53748 0.0
O53 O 0.04872 0.99127 0.58091 0.0
O54 O 0.9482 0.01214 0.59825 0.0
O55 O 0.03464 0.02215 0.6526 0.0
C56 C 0.05308 0.02017 0.47288 0.0
C57 C 0.99028 0.95469 0.31595 0.0
C58 C 0.98826 0.94924 0.21722 0.0
C59 C 0.99349 0.96967 0.26249 0.0
C60 C 0.97986 0.91352 0.22665 0.0
C61 C 0.98187 0.9191 0.32429 0.0
C62 C 0.97671 0.89865 0.27978 0.0
C63 C 0.95555 0.0455 0.47711 0.0
C64 C 0.99581 0.97656 0.36247 0.0
C65 C 0.98499 0.82425 0.48247 0.0
C66 C 0.94927 0.83265 0.48856 0.0
C67 C 0.95116 0.98227 0.57627 0.0
C68 C 0.01352 0.04805 0.73331 0.0
C69 C 0.01036 0.03307 0.78677 0.0
C70 C 0.01565 0.05349 0.83203 0.0
C71 C 0.02407 0.08921 0.82258 0.0
C72 C 0.02194 0.08364 0.72495 0.0
C73 C 0.02717 0.10407 0.76945 0.0
C74 C 0.04989 0.9574 0.57114 0.0
C75 C 0.00791 0.02619 0.68681 0.0
H76 H 0.9996 0.99731 0.25632 0.0
H77 H 0.97619 0.89687 0.19292 0.0
H78 H 0.97931 0.90714 0.36507 0.0
H79 H 0.97034 0.87114 0.28647 0.0
H80 H 0.00424 0.00543 0.79294 0.0
H81 H 0.02778 0.10584 0.85631 0.0
H82 H 0.02444 0.09561 0.68417 0.0
H83 H 0.03355 0.13159 0.76275 0.0
Eu84 Eu 0.28778 0.74643 0.70217 0.0
C85 C 0.14141 0.76426 0.82729 0.0
C86 C 0.12654 0.82588 0.81713 0.0
C87 C 0.08022 0.78222 0.82568 0.0
C88 C 0.1518 0.79884 0.82033 0.0
C89 C 0.10549 0.75554 0.83099 0.0
C90 C 0.09073 0.81734 0.81876 0.0
C91 C 0.12219 0.69503 0.84867 0.0
N92 N 0.16648 0.7392 0.83263 0.0
C93 C 0.15746 0.70504 0.84502 0.0
C94 C 0.09608 0.72034 0.84107 0.0
Eu95 Eu 0.22568 0.75769 0.82258 0.0
N96 N 0.18659 0.80614 0.81908 0.0
C97 C 0.1978 0.84007 0.81851 0.0
C98 C 0.13801 0.8607 0.81363 0.0
C99 C 0.17378 0.86781 0.8151 0.0
H100 H 0.17758 0.68534 0.8505 0.0
H101 H 0.18292 0.89465 0.81332 0.0
H102 H 0.07095 0.83773 0.81584 0.0
H103 H 0.11517 0.66783 0.85726 0.0
H104 H 0.22533 0.846 0.8193 0.0
H105 H 0.32971 0.60934 0.71653 0.0
H106 H 0.11947 0.88224 0.8109 0.0
H107 H 0.33631 0.8182 0.6721 0.0
H108 H 0.28757 0.65818 0.70819 0.0
H109 H 0.39884 0.8354 0.66558 0.0
H110 H 0.05249 0.77604 0.82796 0.0
H111 H 0.39318 0.62152 0.7196 0.0
H112 H 0.44194 0.66579 0.71395 0.0
H113 H 0.06876 0.71255 0.84408 0.0
H114 H 0.46079 0.72728 0.69991 0.0
N115 N 0.32655 0.69785 0.70773 0.0
C116 C 0.31515 0.66396 0.70923 0.0
C117 C 0.37477 0.64311 0.71585 0.0
C118 C 0.38645 0.67786 0.71135 0.0
C119 C 0.33898 0.63613 0.71401 0.0
C120 C 0.36136 0.70499 0.70681 0.0
H121 H 0.44493 0.79065 0.68115 0.0
N122 N 0.34707 0.76456 0.69219 0.0
C123 C 0.39164 0.80833 0.67512 0.0
C124 C 0.37197 0.73945 0.6988 0.0
C125 C 0.35631 0.79852 0.67862 0.0
C126 C 0.41758 0.78301 0.68407 0.0
C127 C 0.40793 0.74798 0.69532 0.0
O128 O 0.28806 0.7701 0.6193 0.0
O129 O 0.23967 0.77246 0.73544 0.0
O130 O 0.19716 0.73242 0.75686 0.0
O131 O 0.24427 0.70561 0.71109 0.0
O132 O 0.2709 0.80272 0.68118 0.0
O133 O 0.27684 0.71477 0.6332 0.0
O134 O 0.22588 0.73338 0.905 0.0
O135 O 0.27398 0.73182 0.78946 0.0
O136 O 0.31605 0.773 0.76703 0.0
O137 O 0.26849 0.7991 0.81292 0.0
O138 O 0.2423 0.70118 0.84224 0.0
O139 O 0.23711 0.78875 0.89203 0.0
C140 C 0.24203 0.80208 0.71062 0.0
C141 C 0.30287 0.73324 0.5473 0.0
C142 C 0.30805 0.73124 0.44769 0.0
C143 C 0.28818 0.73803 0.49597 0.0
C144 C 0.34295 0.71961 0.45199 0.0
C145 C 0.33765 0.72167 0.55052 0.0
C146 C 0.35753 0.7149 0.50301 0.0
C147 C 0.21028 0.70919 0.72329 0.0
C148 C 0.28162 0.74066 0.59696 0.0
C149 C 0.43303 0.72124 0.70199 0.0
C150 C 0.4223 0.68624 0.71 0.0
C151 C 0.27147 0.70199 0.81355 0.0
C152 C 0.21127 0.76966 0.97776 0.0
C153 C 0.22608 0.76471 0.02898 0.0
C154 C 0.20621 0.77111 0.07742 0.0
C155 C 0.1712 0.78243 0.07342 0.0
C156 C 0.17637 0.78093 0.97485 0.0
C157 C 0.15649 0.78728 1.02252 0.0
C158 C 0.30248 0.79625 0.8002 0.0
C159 C 0.23243 0.76261 0.92785 0.0
H160 H 0.26115 0.74665 0.49382 0.0
H161 H 0.35922 0.71465 0.41585 0.0
H162 H 0.34939 0.71795 0.58965 0.0
H163 H 0.38443 0.70608 0.50571 0.0
H164 H 0.25318 0.75629 0.03092 0.0
H165 H 0.15494 0.78707 0.1097 0.0
H166 H 0.16453 0.78474 0.93583 0.0
H167 H 0.12951 0.79586 1.02005 0.0
Eu168 Eu 0.50552 0.97141 0.0862 0.0
C169 C 0.48955 0.11755 0.96052 0.0
C170 C 0.42834 0.13356 0.97304 0.0
C171 C 0.47283 0.17905 0.96254 0.0
C172 C 0.45486 0.10781 0.96895 0.0
C173 C 0.49893 0.15329 0.95621 0.0
C174 C 0.43758 0.1692 0.97094 0.0
C175 C 0.5588 0.13545 0.93576 0.0
N176 N 0.51402 0.09203 0.95418 0.0
C177 C 0.54814 0.10039 0.94009 0.0
C178 C 0.53415 0.16203 0.94443 0.0
Eu179 Eu 0.49452 0.03324 0.96543 0.0
N180 N 0.44686 0.07319 0.97048 0.0
C181 C 0.41268 0.06263 0.97201 0.0
C182 C 0.39331 0.12275 0.97769 0.0
C183 C 0.38544 0.08715 0.97633 0.0
H184 H 0.56731 0.0799 0.93377 0.0
H185 H 0.35842 0.07853 0.97891 0.0
H186 H 0.41762 0.18934 0.97454 0.0
H187 H 0.58599 0.14195 0.9258 0.0
H188 H 0.4062 0.03521 0.97134 0.0
H189 H 0.64112 0.92468 0.07238 0.0
H190 H 0.37216 0.14169 0.98109 0.0
H191 H 0.43209 0.92557 0.1176 0.0
H192 H 0.59379 0.96853 0.07943 0.0
H193 H 0.41284 0.86377 0.12662 0.0
H194 H 0.47953 0.20664 0.95983 0.0
H195 H 0.62672 0.8616 0.07183 0.0
H196 H 0.58081 0.81441 0.07966 0.0
H197 H 0.54244 0.18918 0.94086 0.0
H198 H 0.51872 0.7978 0.0947 0.0
N199 N 0.55274 0.93092 0.08151 0.0
C200 C 0.58703 0.94116 0.07942 0.0
C201 C 0.60578 0.88077 0.07498 0.0
C202 C 0.57064 0.87032 0.08009 0.0
C203 C 0.61401 0.91634 0.0754 0.0
C204 C 0.5444 0.89637 0.08378 0.0
H205 H 0.45597 0.816 0.11297 0.0
N206 N 0.48538 0.91284 0.09807 0.0
C207 C 0.44012 0.86994 0.1168 0.0
C208 C 0.5096 0.88702 0.09237 0.0
C209 C 0.45112 0.90489 0.11186 0.0
C210 C 0.46454 0.84306 0.10894 0.0
C211 C 0.49986 0.85139 0.09727 0.0
O212 O 0.48245 0.9729 0.1692 0.0
O213 O 0.48037 0.02024 0.05312 0.0
O214 O 0.52215 0.06108 0.02945 0.0
O215 O 0.54794 0.0133 0.07538 0.0
O216 O 0.44962 0.98928 0.10704 0.0
O217 O 0.53813 0.98191 0.15432 0.0
O218 O 0.51766 0.03251 0.88241 0.0
O219 O 0.51975 0.98462 0.99865 0.0
O220 O 0.47846 0.94321 1.0218 0.0
O221 O 0.45256 0.99097 0.97613 0.0
O222 O 0.55034 0.01511 0.94398 0.0
O223 O 0.46212 0.0226 0.89712 0.0
C224 C 0.45071 0.01825 0.07785 0.0
C225 C 0.51926 0.95739 0.24104 0.0
C226 C 0.51953 0.95247 0.34079 0.0
C227 C 0.51352 0.97219 0.29202 0.0
C228 C 0.53148 0.91765 0.33737 0.0
C229 C 0.53106 0.92265 0.23865 0.0
C230 C 0.53717 0.90295 0.28667 0.0
C231 C 0.54576 0.04725 0.06187 0.0
C232 C 0.51231 0.97843 0.19094 0.0
C233 C 0.52571 0.82533 0.0915 0.0
C234 C 0.56105 0.83478 0.08292 0.0
C235 C 0.54929 0.98627 0.97353 0.0
C236 C 0.48066 0.04793 0.81078 0.0
C237 C 0.48609 0.03334 0.75959 0.0
C238 C 0.47984 0.05326 0.71111 0.0
C239 C 0.46798 0.08808 0.71501 0.0
C240 C 0.46893 0.08266 0.81368 0.0
C241 C 0.46259 0.10257 0.76593 0.0
C242 C 0.45535 0.95692 0.98834 0.0
C243 C 0.4879 0.02668 0.86056 0.0
H244 H 0.50387 0.99889 0.29359 0.0
H245 H 0.53689 0.90186 0.37387 0.0
H246 H 0.53552 0.91082 0.19977 0.0
H247 H 0.54642 0.87617 0.2846 0.0
H248 H 0.49569 0.00664 0.75763 0.0
H249 H 0.46242 0.10402 0.67874 0.0
H250 H 0.4647 0.09433 0.85273 0.0
H251 H 0.45341 0.12935 0.76839 0.0
Eu252 Eu 0.28065 0.25559 0.33197 0.0
C253 C 0.13623 0.24762 0.22504 0.0
C254 C 0.1187 0.18673 0.23631 0.0
C255 C 0.07429 0.23256 0.23314 0.0
C256 C 0.14513 0.21255 0.23073 0.0
C257 C 0.10071 0.25802 0.22515 0.0
C258 C 0.08327 0.19697 0.23869 0.0
C259 C 0.12006 0.31764 0.20516 0.0
N260 N 0.16238 0.27147 0.21678 0.0
C261 C 0.15487 0.306 0.205 0.0
C262 C 0.09284 0.29361 0.21588 0.0
Eu263 Eu 0.2207 0.25013 0.22012 0.0
N264 N 0.1796 0.20356 0.22789 0.0
C265 C 0.18936 0.16914 0.22638 0.0
C266 C 0.12867 0.15139 0.23785 0.0
C267 C 0.16414 0.14258 0.23209 0.0
H268 H 0.17581 0.32474 0.19705 0.0
H269 H 0.17212 0.11533 0.23228 0.0
H270 H 0.06262 0.17753 0.24353 0.0
H271 H 0.11425 0.34513 0.19707 0.0
H272 H 0.21664 0.16187 0.22223 0.0
H273 H 0.32896 0.3905 0.3196 0.0
H274 H 0.10919 0.13077 0.24227 0.0
H275 H 0.32569 0.1812 0.35573 0.0
H276 H 0.28455 0.34386 0.33014 0.0
H277 H 0.38731 0.16093 0.35571 0.0
H278 H 0.04684 0.24005 0.23381 0.0
H279 H 0.39188 0.37519 0.3089 0.0
H280 H 0.43855 0.32851 0.30752 0.0
H281 H 0.06589 0.30266 0.21575 0.0
H282 H 0.45447 0.26605 0.31761 0.0
N283 N 0.32165 0.30225 0.32401 0.0
C284 C 0.31184 0.33665 0.3257 0.0
C285 C 0.37246 0.35452 0.31353 0.0
C286 C 0.3825 0.3192 0.31508 0.0
C287 C 0.33699 0.36326 0.3197 0.0
C288 C 0.35613 0.29333 0.32093 0.0
H289 H 0.43557 0.20343 0.33638 0.0
N290 N 0.33902 0.23441 0.33538 0.0
C291 C 0.38144 0.18838 0.34734 0.0
C292 C 0.36511 0.2583 0.3268 0.0
C293 C 0.3466 0.19994 0.34751 0.0
C294 C 0.4086 0.21243 0.33626 0.0
C295 C 0.40065 0.24797 0.32664 0.0
O296 O 0.28068 0.23072 0.41407 0.0
O297 O 0.23027 0.23259 0.30631 0.0
O298 O 0.19164 0.27694 0.28922 0.0
O299 O 0.23926 0.29937 0.33177 0.0
O300 O 0.26189 0.19951 0.35096 0.0
O301 O 0.27075 0.28644 0.40377 0.0
O302 O 0.22083 0.27512 0.13809 0.0
O303 O 0.2711 0.2731 0.24574 0.0
O304 O 0.30964 0.22846 0.26312 0.0
O305 O 0.26199 0.20628 0.22031 0.0
O306 O 0.23941 0.30623 0.20133 0.0
O307 O 0.23039 0.21932 0.14821 0.0
C308 C 0.23219 0.20192 0.3282 0.0
C309 C 0.29691 0.26613 0.48485 0.0
C310 C 0.30274 0.26714 0.58361 0.0
C311 C 0.28232 0.26165 0.53837 0.0
C312 C 0.33801 0.27728 0.57409 0.0
C313 C 0.33208 0.27619 0.47641 0.0
C314 C 0.35247 0.28174 0.52089 0.0
C315 C 0.20529 0.29886 0.32249 0.0
C316 C 0.27514 0.25996 0.43841 0.0
C317 C 0.42701 0.27348 0.31833 0.0
C318 C 0.41795 0.30904 0.31256 0.0
C319 C 0.26915 0.3038 0.22398 0.0
C320 C 0.20434 0.23996 0.06718 0.0
C321 C 0.21891 0.24455 1.01367 0.0
C322 C 0.19844 0.23933 0.9684 0.0
C323 C 0.16312 0.22934 0.97788 0.0
C324 C 0.16912 0.23006 0.07558 0.0
C325 C 0.14867 0.22477 0.03108 0.0
C326 C 0.29593 0.20657 0.22985 0.0
C327 C 0.22616 0.24589 0.11366 0.0
H328 H 0.25523 0.25343 0.54467 0.0
H329 H 0.35434 0.28224 0.60776 0.0
H330 H 0.34374 0.27976 0.43558 0.0
H331 H 0.3796 0.28964 0.51411 0.0
H332 H 0.24604 0.25267 1.00742 0.0
H333 H 0.14674 0.22458 0.94419 0.0
H334 H 0.15747 0.2264 0.1164 0.0
H335 H 0.12151 0.217 0.03783 0.0
Eu336 Eu 0.78509 0.2477 0.21094 0.0
C337 C 0.6378 0.25954 0.33521 0.0
C338 C 0.62086 0.32062 0.32519 0.0
C339 C 0.57607 0.27539 0.33287 0.0
C340 C 0.64702 0.29446 0.32856 0.0
C341 C 0.60221 0.24958 0.33834 0.0
C342 C 0.58538 0.31086 0.32632 0.0
C343 C 0.62091 0.18963 0.35555 0.0
N344 N 0.66369 0.23535 0.34062 0.0
C345 C 0.65582 0.20085 0.35244 0.0
C346 C 0.59398 0.21405 0.34793 0.0
Eu347 Eu 0.72223 0.25588 0.33113 0.0
N348 N 0.68152 0.30294 0.3277 0.0
C349 C 0.69156 0.33723 0.32738 0.0
C350 C 0.63114 0.35582 0.32198 0.0
C351 C 0.66663 0.36414 0.32383 0.0
H352 H 0.67655 0.18183 0.35789 0.0
H353 H 0.67484 0.39128 0.32225 0.0
H354 H 0.56494 0.33056 0.32324 0.0
H355 H 0.61481 0.16217 0.36373 0.0
H356 H 0.71888 0.34407 0.32843 0.0
H357 H 0.83145 0.11197 0.21997 0.0
H358 H 0.61189 0.37671 0.31914 0.0
H359 H 0.83128 0.32138 0.18435 0.0
H360 H 0.78775 0.15953 0.2135 0.0
H361 H 0.89321 0.3406 0.1787 0.0
H362 H 0.54857 0.26825 0.33471 0.0
H363 H 0.89447 0.12608 0.22374 0.0
H364 H 0.94175 0.17188 0.22006 0.0
H365 H 0.56696 0.20531 0.35049 0.0
H366 H 0.9586 0.23406 0.20863 0.0
N367 N 0.82541 0.20035 0.21485 0.0
C368 C 0.81512 0.16615 0.21489 0.0
C369 C 0.87537 0.14711 0.22083 0.0
C370 C 0.88591 0.18223 0.21781 0.0
C371 C 0.83984 0.13905 0.21859 0.0
C372 C 0.85996 0.20859 0.21433 0.0
H373 H 0.94071 0.29712 0.19247 0.0
N374 N 0.84375 0.26783 0.20214 0.0
C375 C 0.88689 0.3132 0.18708 0.0
C376 C 0.86944 0.24345 0.20778 0.0
C377 C 0.8519 0.30224 0.19009 0.0
C378 C 0.91362 0.28859 0.19501 0.0
C379 C 0.90511 0.25314 0.20476 0.0
O380 O 0.78516 0.27235 0.12875 0.0
O381 O 0.73605 0.27191 0.24439 0.0
O382 O 0.69486 0.23026 0.26476 0.0
O383 O 0.7428 0.20547 0.21796 0.0
O384 O 0.76659 0.3037 0.19155 0.0
O385 O 0.77531 0.21662 0.14087 0.0
O386 O 0.72299 0.23143 0.41339 0.0
O387 O 0.77121 0.23154 0.29758 0.0
O388 O 0.81232 0.27382 0.27744 0.0
O389 O 0.7638 0.29848 0.32268 0.0
O390 O 0.7404 0.19974 0.34991 0.0
O391 O 0.73257 0.28716 0.40074 0.0
C392 C 0.73755 0.30186 0.22052 0.0
C393 C 0.80109 0.23675 0.05567 0.0
C394 C 0.80627 0.23573 0.95603 0.0
C395 C 0.78616 0.24123 1.00454 0.0
C396 C 0.84164 0.2256 0.95986 0.0
C397 C 0.83636 0.22672 0.05851 0.0
C398 C 0.85648 0.22115 1.01074 0.0
C399 C 0.70871 0.20782 0.23052 0.0
C400 C 0.77956 0.24305 0.10547 0.0
C401 C 0.93105 0.22714 0.21038 0.0
C402 C 0.92146 0.19173 0.2169 0.0
C403 C 0.76945 0.20147 0.32099 0.0
C404 C 0.70746 0.26718 0.48642 0.0
C405 C 0.72263 0.26254 0.53736 0.0
C406 C 0.70277 0.26808 0.58609 0.0
C407 C 0.66744 0.27847 0.58267 0.0
C408 C 0.67224 0.27744 0.484 0.0
C409 C 0.65239 0.28308 0.53198 0.0
C410 C 0.79798 0.29618 0.31145 0.0
C411 C 0.72869 0.26081 0.43637 0.0
H412 H 0.75901 0.24951 1.00264 0.0
H413 H 0.85777 0.22064 0.92358 0.0
H414 H 0.84828 0.22321 0.09753 0.0
H415 H 0.88368 0.21329 1.01314 0.0
H416 H 0.74974 0.25409 0.53894 0.0
H417 H 0.65151 0.28348 0.61913 0.0
H418 H 0.66015 0.28106 0.44513 0.0
H419 H 0.62522 0.29113 0.52991 0.0
Eu420 Eu 0.78114 0.75508 0.83274 0.0
C421 C 0.63656 0.74893 0.72531 0.0
C422 C 0.61785 0.68843 0.73714 0.0
C423 C 0.57433 0.73506 0.73279 0.0
C424 C 0.64477 0.71373 0.73159 0.0
C425 C 0.60125 0.75999 0.7248 0.0
C426 C 0.58262 0.69933 0.73894 0.0
C427 C 0.62178 0.81915 0.70415 0.0
N428 N 0.66318 0.77226 0.71701 0.0
C429 C 0.65636 0.80686 0.70463 0.0
C430 C 0.59408 0.79567 0.71487 0.0
Eu431 Eu 0.72108 0.74985 0.72112 0.0
N432 N 0.67907 0.70409 0.72921 0.0
C433 C 0.68818 0.66947 0.72809 0.0
C434 C 0.62714 0.6529 0.73915 0.0
C435 C 0.66246 0.64341 0.73382 0.0
H436 H 0.67767 0.82518 0.69663 0.0
H437 H 0.66992 0.61601 0.73434 0.0
H438 H 0.5616 0.68029 0.74373 0.0
H439 H 0.61652 0.8467 0.69554 0.0
H440 H 0.71532 0.66167 0.72425 0.0
H441 H 0.83123 0.88934 0.81855 0.0
H442 H 0.60727 0.63266 0.74355 0.0
H443 H 0.82516 0.68022 0.85775 0.0
H444 H 0.7862 0.84334 0.82919 0.0
H445 H 0.88649 0.65917 0.85863 0.0
H446 H 0.54703 0.74306 0.73298 0.0
H447 H 0.89399 0.87317 0.80903 0.0
H448 H 0.94004 0.82589 0.80881 0.0
H449 H 0.56731 0.80522 0.71423 0.0
H450 H 0.95511 0.76326 0.81987 0.0
N451 N 0.82278 0.80118 0.8243 0.0
C452 C 0.8134 0.83573 0.82525 0.0
C453 C 0.87428 0.85277 0.8137 0.0
C454 C 0.88386 0.81733 0.81588 0.0
C455 C 0.83891 0.862 0.8192 0.0
C456 C 0.85714 0.79181 0.82178 0.0
H457 H 0.93535 0.70098 0.83925 0.0
N458 N 0.83923 0.73317 0.83682 0.0
C459 C 0.881 0.68665 0.84982 0.0
C460 C 0.86564 0.75669 0.82819 0.0
C461 C 0.84632 0.69866 0.84947 0.0
C462 C 0.9085 0.71032 0.83871 0.0
C463 C 0.90104 0.74591 0.82855 0.0
O464 O 0.78058 0.73063 0.91513 0.0
O465 O 0.73041 0.73258 0.80751 0.0
O466 O 0.69239 0.7776 0.78964 0.0
O467 O 0.74044 0.79946 0.83176 0.0
O468 O 0.7617 0.69933 0.85257 0.0
O469 O 0.77166 0.7865 0.90398 0.0
O470 O 0.72189 0.7743 0.63872 0.0
O471 O 0.77189 0.77217 0.74629 0.0
O472 O 0.80963 0.72687 0.76456 0.0
O473 O 0.76151 0.70521 0.72228 0.0
O474 O 0.74075 0.80556 0.7014 0.0
O475 O 0.73033 0.71835 0.64991 0.0
C476 C 0.73201 0.70198 0.8298 0.0
C477 C 0.79719 0.76611 0.98552 0.0
C478 C 0.80246 0.7674 0.0843 0.0
C479 C 0.7823 0.76189 0.03884 0.0
C480 C 0.83786 0.7772 0.07524 0.0
C481 C 0.83247 0.77585 0.97746 0.0
C482 C 0.85266 0.78137 1.02219 0.0
C483 C 0.70646 0.7995 0.82253 0.0
C484 C 0.7755 0.7601 0.93898 0.0
C485 C 0.92775 0.77104 0.8202 0.0
C486 C 0.91917 0.8067 0.81389 0.0
C487 C 0.77048 0.80277 0.72402 0.0
C488 C 0.705 0.73898 0.56832 0.0
C489 C 0.71989 0.74322 0.51501 0.0
C490 C 0.69968 0.7379 0.46953 0.0
C491 C 0.66424 0.72828 0.47855 0.0
C492 C 0.66966 0.72941 0.57635 0.0
C493 C 0.64943 0.72409 0.53159 0.0
C494 C 0.79544 0.70487 0.73195 0.0
C495 C 0.72672 0.74478 0.61489 0.0
H496 H 0.75487 0.75475 0.04475 0.0
H497 H 0.85429 0.78116 0.10917 0.0
H498 H 0.84436 0.77918 0.93674 0.0
H499 H 0.87993 0.78879 1.01574 0.0
H500 H 0.74735 0.75023 0.50911 0.0
H501 H 0.64778 0.72446 0.4446 0.0
H502 H 0.65776 0.72607 0.61705 0.0
H503 H 0.62212 0.7168 0.53802 0.0
Eu504 Eu 0.49943 0.47116 0.96905 0.0
C505 C 0.50472 0.61624 0.07433 0.0
C506 C 0.56538 0.63465 0.06385 0.0
C507 C 0.51887 0.67837 0.06573 0.0
C508 C 0.53994 0.60786 0.06932 0.0
C509 C 0.49378 0.6516 0.07367 0.0
C510 C 0.55462 0.66991 0.06083 0.0
C511 C 0.43438 0.63142 0.09314 0.0
N512 N 0.48124 0.58977 0.0826 0.0
C513 C 0.44655 0.59679 0.09384 0.0
C514 C 0.45804 0.65896 0.08241 0.0
Eu515 Eu 0.50346 0.53175 0.08022 0.0
N516 N 0.54943 0.57355 0.07288 0.0
C517 C 0.58397 0.56434 0.07542 0.0
C518 C 0.60087 0.62522 0.06317 0.0
C519 C 0.61018 0.58993 0.06982 0.0
H520 H 0.4281 0.5756 0.1018 0.0
H521 H 0.63754 0.58237 0.07039 0.0
H522 H 0.57377 0.69083 0.05607 0.0
H523 H 0.40677 0.63684 0.10084 0.0
H524 H 0.59163 0.53721 0.08024 0.0
H525 H 0.36532 0.42063 0.98028 0.0
H526 H 0.62122 0.64499 0.05885 0.0
H527 H 0.57468 0.4273 0.94653 0.0
H528 H 0.41124 0.46578 0.97017 0.0
H529 H 0.59596 0.36606 0.947 0.0
H530 H 0.51097 0.70569 0.06464 0.0
H531 H 0.38163 0.35798 0.99121 0.0
H532 H 0.42907 0.3121 0.99332 0.0
H533 H 0.44857 0.68577 0.08213 0.0
H534 H 0.49183 0.29721 0.98407 0.0
N535 N 0.45345 0.42938 0.97679 0.0
C536 C 0.41889 0.43862 0.97475 0.0
C537 C 0.40199 0.37774 0.98679 0.0
C538 C 0.43747 0.36828 0.98569 0.0
C539 C 0.39268 0.41305 0.98049 0.0
C540 C 0.46292 0.39506 0.98008 0.0
H541 H 0.55419 0.31713 0.96599 0.0
N542 N 0.5216 0.41314 0.9663 0.0
C543 C 0.56839 0.37148 0.95503 0.0
C544 C 0.49812 0.38667 0.9747 0.0
C545 C 0.55624 0.40611 0.95462 0.0
C546 C 0.54475 0.34394 0.96593 0.0
C547 C 0.50904 0.35131 0.9751 0.0
O548 O 0.52456 0.47149 0.88716 0.0
O549 O 0.52167 0.52196 0.99446 0.0
O550 O 0.47642 0.56002 1.01035 0.0
O551 O 0.455 0.51172 0.96843 0.0
O552 O 0.55532 0.49054 0.95051 0.0
O553 O 0.46866 0.48048 0.89685 0.0
O554 O 0.47817 0.53167 0.16198 0.0
O555 O 0.48131 0.48092 0.0549 0.0
O556 O 0.52685 0.44296 0.03847 0.0
O557 O 0.548 0.49122 0.08089 0.0
O558 O 0.44755 0.51234 0.09852 0.0
O559 O 0.53403 0.52229 0.1526 0.0
C560 C 0.55247 0.52027 0.973 0.0
C561 C 0.4897 0.45473 0.81597 0.0
C562 C 0.48759 0.44933 0.71723 0.0
C563 C 0.4929 0.46972 0.76251 0.0
C564 C 0.47912 0.41362 0.72664 0.0
C565 C 0.48123 0.41915 0.82429 0.0
C566 C 0.47598 0.39874 0.77977 0.0
C567 C 0.45491 0.54576 0.97701 0.0
C568 C 0.49534 0.47656 0.86248 0.0
C569 C 0.48395 0.32454 0.98317 0.0
C570 C 0.44822 0.33302 0.98846 0.0
C571 C 0.45048 0.48255 0.07627 0.0
C572 C 0.51301 0.54824 0.23333 0.0
C573 C 0.50982 0.53325 0.28679 0.0
C574 C 0.51518 0.55363 0.33206 0.0
C575 C 0.5237 0.58933 0.32264 0.0
C576 C 0.52153 0.58381 0.225 0.0
C577 C 0.52683 0.60421 0.26951 0.0
C578 C 0.54841 0.45725 0.07169 0.0
C579 C 0.50732 0.52642 0.18682 0.0
H580 H 0.49907 0.49736 0.75636 0.0
H581 H 0.47539 0.397 0.6929 0.0
H582 H 0.47869 0.40717 0.86506 0.0
H583 H 0.46956 0.37123 0.78644 0.0
H584 H 0.50362 0.50562 0.29294 0.0
H585 H 0.52746 0.60594 0.35638 0.0
H586 H 0.52405 0.59579 0.18423 0.0
H587 H 0.53328 0.63171 0.26283 0.0
Eu588 Eu 0.00763 0.46963 0.59284 0.0
C589 C 0.98429 0.61361 0.46338 0.0
C590 C 0.92284 0.62772 0.47903 0.0
C591 C 0.96559 0.67458 0.4641 0.0
C592 C 0.95011 0.6028 0.47427 0.0
C593 C 0.99239 0.64961 0.45714 0.0
C594 C 0.93086 0.66365 0.47503 0.0
C595 C 0.05236 0.63351 0.4337 0.0
N596 N 0.00945 0.58882 0.45655 0.0
C597 C 0.04296 0.59813 0.44002 0.0
C598 C 0.02705 0.65939 0.44288 0.0
Eu599 Eu 0.9922 0.52948 0.47107 0.0
N600 N 0.94331 0.56791 0.47768 0.0
C601 C 0.90949 0.55619 0.48193 0.0
C602 C 0.88826 0.61577 0.48636 0.0
C603 C 0.88154 0.57985 0.48702 0.0
H604 H 0.06265 0.57819 0.43328 0.0
H605 H 0.85485 0.57033 0.49174 0.0
H606 H 0.91031 0.68317 0.47914 0.0
H607 H 0.07911 0.64079 0.42181 0.0
H608 H 0.90384 0.52854 0.48281 0.0
H609 H 0.14432 0.42675 0.57309 0.0
H610 H 0.86658 0.63403 0.4904 0.0
H611 H 0.9362 0.42195 0.62951 0.0
H612 H 0.09591 0.46928 0.58193 0.0
H613 H 0.91879 0.3596 0.64048 0.0
H614 H 0.97133 0.70238 0.45995 0.0
H615 H 0.13162 0.36325 0.57383 0.0
H616 H 0.08711 0.31478 0.58456 0.0
H617 H 0.03436 0.68678 0.43777 0.0
H618 H 0.02578 0.29647 0.6032 0.0
N619 N 0.0559 0.43051 0.58634 0.0
C620 C 0.08989 0.44172 0.58253 0.0
C621 C 0.1102 0.38184 0.57778 0.0
C622 C 0.07543 0.37041 0.58476 0.0
C623 C 0.11748 0.41764 0.57748 0.0
C624 C 0.04854 0.39573 0.58947 0.0
H625 H 0.96291 0.31298 0.62482 0.0
N626 N 0.98935 0.41057 0.60688 0.0
C627 C 0.94568 0.3665 0.62894 0.0
C628 C 0.01416 0.38542 0.60015 0.0
C629 C 0.95563 0.40174 0.62292 0.0
C630 C 0.97065 0.34026 0.61994 0.0
C631 C 0.0055 0.34954 0.6061 0.0
O632 O 0.98629 0.47077 0.67694 0.0
O633 O 0.98075 0.51742 0.55976 0.0
O634 O 0.02109 0.55907 0.53186 0.0
O635 O 0.04868 0.51261 0.57854 0.0
O636 O 0.95189 0.48691 0.61674 0.0
O637 O 0.04133 0.4818 0.65885 0.0
O638 O 0.01361 0.52832 0.38701 0.0
O639 O 0.01951 0.48199 0.50427 0.0
O640 O 0.97976 0.4398 0.53117 0.0
O641 O 0.95145 0.48628 0.48606 0.0
O642 O 0.04809 0.51285 0.4473 0.0
O643 O 0.9588 0.51636 0.40515 0.0
C644 C 0.9518 0.51546 0.58653 0.0
C645 C 0.0253 0.45683 0.74661 0.0
C646 C 0.02667 0.45148 0.8463 0.0
C647 C 0.01843 0.47075 0.79805 0.0
C648 C 0.04181 0.41796 0.84191 0.0
C649 C 0.04031 0.42337 0.74332 0.0
C650 C 0.04853 0.4041 0.79081 0.0
C651 C 0.04561 0.54628 0.56356 0.0
C652 C 0.01646 0.47747 0.69691 0.0
C653 C 0.03194 0.32418 0.59923 0.0
C654 C 0.06686 0.33461 0.58858 0.0
C655 C 0.04852 0.48436 0.47765 0.0
C656 C 0.97441 0.54143 0.31734 0.0
C657 C 0.98126 0.52744 0.26594 0.0
C658 C 0.97274 0.54654 0.21767 0.0
C659 C 0.95733 0.57994 0.22201 0.0
C660 C 0.95912 0.57476 0.32057 0.0
C661 C 0.95062 0.59386 0.27307 0.0
C662 C 0.95524 0.45248 0.49943 0.0
C663 C 0.9836 0.52102 0.36707 0.0
H664 H 0.0071 0.49676 0.80032 0.0
H665 H 0.04802 0.40217 0.87803 0.0
H666 H 0.04566 0.41218 0.70414 0.0
H667 H 0.06005 0.37824 0.78803 0.0
H668 H 0.99281 0.50152 0.26373 0.0
H669 H 0.95092 0.59562 0.18587 0.0
H670 H 0.95378 0.58599 0.35971 0.0
H671 H 0.93889 0.61963 0.2758 0.0
H672 H 0.12321 0.01505 0.45601 0.0
H673 H 0.16078 0.21539 0.34964 0.0
H674 H 0.04001 0.09152 0.44907 0.0
H675 H 0.23723 0.13204 0.35002 0.0
H676 H 0.11581 0.17296 0.38656 0.0
H677 H 0.1648 0.0596 0.42008 0.0
C678 C 0.11372 0.04146 0.44747 0.0
C679 C 0.07807 0.0495 0.45671 0.0
C680 C 0.14238 0.16395 0.37821 0.0
C681 C 0.12602 0.10137 0.41369 0.0
C682 C 0.16801 0.18814 0.35664 0.0
C683 C 0.20283 0.17717 0.3455 0.0
C684 C 0.15169 0.1286 0.38948 0.0
C685 C 0.21077 0.1417 0.35718 0.0
C686 C 0.13756 0.06702 0.42659 0.0
C687 C 0.06736 0.08423 0.44381 0.0
N688 N 0.18564 0.11897 0.37822 0.0
N689 N 0.09117 0.10884 0.42301 0.0
H690 H 0.10376 0.979 0.63132 0.0
H691 H 0.24603 0.87221 0.69041 0.0
H692 H 0.05815 0.88552 0.57267 0.0
H693 H 0.17265 0.78656 0.69867 0.0
H694 H 0.19959 0.91185 0.66034 0.0
H695 H 0.1495 0.94328 0.67199 0.0
C696 C 0.10348 0.95097 0.62643 0.0
C697 C 0.07734 0.93545 0.59726 0.0
C698 C 0.19317 0.88465 0.6702 0.0
C699 C 0.13059 0.89415 0.64302 0.0
C700 C 0.21982 0.86199 0.68701 0.0
C701 C 0.21286 0.82637 0.69863 0.0
C702 C 0.15929 0.87148 0.66403 0.0
C703 C 0.1788 0.81409 0.69185 0.0
C704 C 0.12996 0.93054 0.64936 0.0
C705 C 0.07818 0.89881 0.59354 0.0
N706 N 0.15329 0.83659 0.67472 0.0
N707 N 0.1044 0.87944 0.61603 0.0
H708 H 0.37206 0.78667 0.81741 0.0
H709 H 0.3955 0.974 0.93698 0.0
H710 H 0.28664 0.86017 0.83866 0.0
H711 H 0.4626 0.88621 0.97924 0.0
H712 H 0.35897 0.93494 0.88859 0.0
H713 H 0.41002 0.82595 0.86408 0.0
C714 C 0.36142 0.81117 0.83154 0.0
C715 C 0.32622 0.82025 0.82467 0.0
C716 C 0.3816 0.92426 0.90872 0.0
C717 C 0.36913 0.86483 0.87738 0.0
C718 C 0.40247 0.94648 0.93627 0.0
C719 C 0.43204 0.93324 0.96214 0.0
C720 C 0.39066 0.88872 0.90655 0.0
C721 C 0.43987 0.89738 0.96001 0.0
C722 C 0.38295 0.83333 0.85838 0.0
C723 C 0.31356 0.85211 0.84374 0.0
N724 N 0.41933 0.87628 0.93225 0.0
N725 N 0.33509 0.87337 0.86918 0.0
H726 H 0.38046 0.01624 0.09839 0.0
H727 H 0.36802 0.20601 0.22 0.0
H728 H 0.46846 0.08681 0.09172 0.0
H729 H 0.27715 0.14777 0.17852 0.0
H730 H 0.40576 0.16195 0.17733 0.0
H731 H 0.34246 0.06341 0.13123 0.0
C732 C 0.39161 0.04189 0.10319 0.0
C733 C 0.4274 0.04791 0.09129 0.0
C734 C 0.37755 0.15894 0.17738 0.0
C735 C 0.38443 0.10174 0.13051 0.0
C736 C 0.35596 0.18397 0.20205 0.0
C737 C 0.31928 0.18051 0.20329 0.0
C738 C 0.36241 0.12999 0.15431 0.0
C739 C 0.30523 0.15156 0.17873 0.0
C740 C 0.36998 0.06878 0.12195 0.0
C741 C 0.44082 0.08136 0.09922 0.0
N742 N 0.32678 0.12735 0.1557 0.0
N743 N 0.41936 0.10699 0.11869 0.0
H744 H 0.88114 0.98785 0.59334 0.0
H745 H 0.8418 0.78838 0.70277 0.0
H746 H 0.96381 0.91084 0.60109 0.0
H747 H 0.76629 0.87258 0.7012 0.0
H748 H 0.88724 0.83016 0.66517 0.0
H749 H 0.83929 0.94381 0.63003 0.0
C750 C 0.89046 0.96143 0.60225 0.0
C751 C 0.92605 0.9531 0.59303 0.0
C752 C 0.86077 0.83949 0.67341 0.0
C753 C 0.87775 0.90178 0.63693 0.0
C754 C 0.83487 0.81568 0.69536 0.0
C755 C 0.80017 0.82707 0.70635 0.0
C756 C 0.85184 0.87489 0.66161 0.0
C757 C 0.79264 0.86258 0.69416 0.0
C758 C 0.86647 0.93615 0.62356 0.0
C759 C 0.93652 0.91835 0.60637 0.0
N760 N 0.818 0.88493 0.67278 0.0
N761 N 0.91254 0.89401 0.6276 0.0
H762 H 0.8979 0.02535 0.42406 0.0
H763 H 0.83748 0.22048 0.33626 0.0
H764 H 0.95367 0.11755 0.46637 0.0
H765 H 0.76882 0.13104 0.34072 0.0
H766 H 0.88459 0.1824 0.36987 0.0
H767 H 0.85455 0.06305 0.38006 0.0
C768 C 0.90113 0.05351 0.42407 0.0
C769 C 0.92938 0.06824 0.44951 0.0
C770 C 0.85931 0.17106 0.36302 0.0
C771 C 0.87979 0.11164 0.39863 0.0
C772 C 0.83256 0.19271 0.34329 0.0
C773 C 0.79947 0.17867 0.33473 0.0
C774 C 0.85284 0.13517 0.37442 0.0
C775 C 0.79414 0.14272 0.3462 0.0
C776 C 0.87629 0.07503 0.39896 0.0
C777 C 0.93213 0.10499 0.44789 0.0
N778 N 0.82054 0.12218 0.36526 0.0
N779 N 0.90767 0.12542 0.42289 0.0
H780 H 0.63839 0.21602 0.22074 0.0
H781 H 0.60937 0.03024 0.10197 0.0
H782 H 0.72486 0.14651 0.1823 0.0
H783 H 0.53934 0.11768 0.07217 0.0
H784 H 0.65002 0.06982 0.142 0.0
H785 H 0.59903 0.17696 0.17725 0.0
C786 C 0.64906 0.19248 0.20329 0.0
C787 C 0.68487 0.18434 0.20506 0.0
C788 C 0.62582 0.08026 0.12636 0.0
C789 C 0.64014 0.13988 0.15556 0.0
C790 C 0.60259 0.05775 0.10382 0.0
C791 C 0.57101 0.0708 0.084 0.0
C792 C 0.61698 0.11578 0.1298 0.0
C793 C 0.56353 0.10665 0.08692 0.0
C794 C 0.62665 0.17041 0.17822 0.0
C795 C 0.69741 0.15372 0.18156 0.0
N796 N 0.5863 0.12795 0.10994 0.0
N797 N 0.67494 0.13236 0.15795 0.0
H798 H 0.72621 0.85796 0.87379 0.0
H799 H 0.53092 0.91769 0.96133 0.0
H800 H 0.63434 0.80115 0.83267 0.0
H801 H 0.61951 0.9876 0.95162 0.0
H802 H 0.56927 0.87057 0.92859 0.0
H803 H 0.68821 0.90163 0.91616 0.0
C804 C 0.69806 0.85457 0.8737 0.0
C805 C 0.68352 0.82591 0.84908 0.0
C806 C 0.58036 0.89614 0.93408 0.0
C807 C 0.63977 0.87587 0.89816 0.0
C808 C 0.55857 0.92291 0.95332 0.0
C809 C 0.5723 0.95635 0.96018 0.0
C810 C 0.61608 0.90294 0.92156 0.0
C811 C 0.60808 0.96202 0.94747 0.0
C812 C 0.67637 0.8796 0.89788 0.0
C813 C 0.64676 0.82299 0.85055 0.0
N814 N 0.62876 0.93559 0.92902 0.0
N815 N 0.62616 0.84762 0.8747 0.0
H816 H 0.62259 0.51505 0.95605 0.0
H817 H 0.66057 0.71558 0.85092 0.0
H818 H 0.53949 0.59163 0.94924 0.0
H819 H 0.73686 0.63207 0.85107 0.0
H820 H 0.61546 0.67313 0.88741 0.0
H821 H 0.66426 0.55962 0.92038 0.0
C822 C 0.61314 0.54148 0.94757 0.0
C823 C 0.5775 0.54956 0.9568 0.0
C824 C 0.64203 0.6641 0.8791 0.0
C825 C 0.62553 0.60144 0.91411 0.0
C826 C 0.66774 0.68829 0.85778 0.0
C827 C 0.70255 0.67729 0.84672 0.0
C828 C 0.65126 0.6287 0.89016 0.0
C829 C 0.7104 0.64177 0.85819 0.0
C830 C 0.63702 0.56705 0.92686 0.0
C831 C 0.56683 0.58431 0.944 0.0
N832 N 0.68521 0.61904 0.87896 0.0
N833 N 0.59069 0.60894 0.92337 0.0
H834 H 0.6695 0.28259 0.20636 0.0
H835 H 0.60666 0.47761 0.12317 0.0
H836 H 0.73776 0.37237 0.20085 0.0
H837 H 0.55088 0.38522 0.08169 0.0
H838 H 0.651 0.44004 0.16497 0.0
H839 H 0.62182 0.3205 0.17452 0.0
C840 C 0.67424 0.3104 0.19947 0.0
C841 C 0.70737 0.32458 0.20732 0.0
C842 C 0.62904 0.428 0.14674 0.0
C843 C 0.65329 0.36792 0.16957 0.0
C844 C 0.60362 0.44944 0.1229 0.0
C845 C 0.57507 0.43462 0.09831 0.0
C846 C 0.62582 0.39137 0.14666 0.0
C847 C 0.57263 0.39785 0.09954 0.0
C848 C 0.64714 0.33196 0.18072 0.0
C849 C 0.71242 0.36058 0.19594 0.0
N850 N 0.59764 0.37751 0.1233 0.0
N851 N 0.68566 0.38104 0.17787 0.0
H852 H 0.96492 0.38233 0.48731 0.0
H853 H 0.77959 0.35603 0.36135 0.0
H854 H 0.89121 0.46692 0.45969 0.0
H855 H 0.86834 0.28892 0.32497 0.0
H856 H 0.81738 0.39295 0.4113 0.0
H857 H 0.92616 0.34307 0.44218 0.0
C858 C 0.94047 0.39253 0.4722 0.0
C859 C 0.93124 0.4279 0.47672 0.0
C860 C 0.82855 0.3702 0.39221 0.0
C861 C 0.88726 0.38348 0.42565 0.0
C862 C 0.80705 0.34912 0.36377 0.0
C863 C 0.82096 0.3195 0.33897 0.0
C864 C 0.86402 0.36132 0.39635 0.0
C865 C 0.85671 0.31173 0.34328 0.0
C866 C 0.9186 0.37024 0.44623 0.0
C867 C 0.89941 0.4399 0.45648 0.0
N868 N 0.87711 0.33252 0.37183 0.0
N869 N 0.87848 0.41766 0.43179 0.0
H870 H 0.77529 0.64522 0.6842 0.0
H871 H 0.96977 0.58443 0.59506 0.0
H872 H 0.86747 0.70299 0.72115 0.0
H873 H 0.88204 0.51354 0.61325 0.0
H874 H 0.93159 0.63189 0.62694 0.0
H875 H 0.81306 0.60043 0.64415 0.0
C876 C 0.80345 0.64859 0.68381 0.0
C877 C 0.81817 0.67786 0.70656 0.0
C878 C 0.92065 0.60601 0.62358 0.0
C879 C 0.86162 0.62664 0.66022 0.0
C880 C 0.94233 0.57903 0.60486 0.0
C881 C 0.92877 0.54524 0.60044 0.0
C882 C 0.88519 0.5991 0.63801 0.0
C883 C 0.89331 0.53938 0.61542 0.0
C884 C 0.825 0.62292 0.66102 0.0
C885 C 0.85493 0.68072 0.70466 0.0
N886 N 0.87268 0.56606 0.63321 0.0
N887 N 0.87538 0.65548 0.68182 0.0
H888 H 0.26369 0.3737 0.2043 0.0
H889 H 0.46431 0.41132 0.09931 0.0
H890 H 0.34061 0.29083 0.20094 0.0
H891 H 0.38047 0.48721 0.09642 0.0
H892 H 0.42193 0.36639 0.13675 0.0
H893 H 0.30814 0.41509 0.16736 0.0
C894 C 0.29017 0.36425 0.1963 0.0
C895 C 0.29837 0.32876 0.20687 0.0
C896 C 0.41281 0.39283 0.12755 0.0
C897 C 0.35014 0.37647 0.16273 0.0
C898 C 0.43696 0.41842 0.10568 0.0
C899 C 0.42585 0.45308 0.09354 0.0
C900 C 0.37735 0.40203 0.13808 0.0
C901 C 0.39026 0.46087 0.10439 0.0
C902 C 0.31568 0.38797 0.17486 0.0
C903 C 0.33319 0.31808 0.19465 0.0
N904 N 0.36757 0.4358 0.12574 0.0
N905 N 0.35775 0.34177 0.1733 0.0
H906 H 0.39726 0.52561 0.92398 0.0
H907 H 0.33982 0.72017 0.82824 0.0
H908 H 0.45348 0.6178 0.96518 0.0
H909 H 0.26954 0.63189 0.83687 0.0
H910 H 0.38615 0.68199 0.86411 0.0
H911 H 0.35451 0.56327 0.87852 0.0
C912 C 0.40071 0.55377 0.92347 0.0
C913 C 0.42894 0.56851 0.94895 0.0
C914 C 0.36068 0.67092 0.8577 0.0
C915 C 0.38004 0.61185 0.89632 0.0
C916 C 0.33437 0.69261 0.83668 0.0
C917 C 0.30104 0.67894 0.82865 0.0
C918 C 0.35354 0.63535 0.87088 0.0
C919 C 0.29505 0.64328 0.84191 0.0
C920 C 0.3762 0.57526 0.89751 0.0
C921 C 0.43196 0.60525 0.94664 0.0
N922 N 0.32104 0.62269 0.86217 0.0
N923 N 0.40785 0.62564 0.92075 0.0
H924 H 0.13975 0.71792 0.71465 0.0
H925 H 0.11051 0.53102 0.59966 0.0
H926 H 0.22548 0.64771 0.67541 0.0
H927 H 0.03813 0.61684 0.5726 0.0
H928 H 0.15124 0.57154 0.6369 0.0
H929 H 0.09973 0.67877 0.67234 0.0
C930 C 0.15012 0.69424 0.69728 0.0
C931 C 0.1859 0.68588 0.69858 0.0
C932 C 0.12652 0.58148 0.62248 0.0
C933 C 0.14051 0.64138 0.65043 0.0
C934 C 0.10324 0.5584 0.60151 0.0
C935 C 0.07095 0.57067 0.58337 0.0
C936 C 0.11711 0.61685 0.62603 0.0
C937 C 0.06288 0.60642 0.58615 0.0
C938 C 0.12735 0.67213 0.67287 0.0
C939 C 0.19807 0.6551 0.67515 0.0
N940 N 0.08577 0.62833 0.60768 0.0
N941 N 0.1753 0.63377 0.65225 0.0
H942 H 0.13328 0.29833 0.33378 0.0
H943 H 0.11838 0.48811 0.45411 0.0
H944 H 0.22366 0.35799 0.37335 0.0
H945 H 0.03233 0.41512 0.46651 0.0
H946 H 0.15703 0.44164 0.42052 0.0
H947 H 0.09524 0.34171 0.37753 0.0
C948 C 0.14516 0.32054 0.35155 0.0
C949 C 0.1818 0.32458 0.3495 0.0
C950 C 0.12981 0.4356 0.43126 0.0
C951 C 0.13831 0.37433 0.39964 0.0
C952 C 0.10782 0.46208 0.45045 0.0
C953 C 0.07239 0.45518 0.46414 0.0
C954 C 0.11604 0.40216 0.42404 0.0
C955 C 0.0597 0.42126 0.45762 0.0
C956 C 0.12341 0.34516 0.37683 0.0
C957 C 0.19563 0.35374 0.37379 0.0
N958 N 0.08146 0.39604 0.43764 0.0
N959 N 0.17391 0.37759 0.3974 0.0
H960 H 0.05657 0.06554 0.91836 0.0
H961 H 0.94738 0.93717 0.13087 0.0
H962 H 0.96707 0.00567 0.87575 0.0
H963 H 0.03683 0.99708 0.17352 0.0
H964 H 0.95428 0.96183 0.03735 0.0
H965 H 0.04968 0.04087 1.01188 0.0
C966 C 0.03535 0.04732 0.92864 0.0
C967 C 0.0123 0.03781 0.8889 0.0
C968 C 0.9724 0.96962 0.06714 0.0
C969 C 0.00445 0.00911 0.99628 0.0
C970 C 0.96859 0.9554 0.12059 0.0
C971 C 0.99162 0.96492 0.16034 0.0
C972 C 0.99948 0.99362 0.05297 0.0
C973 C 0.0182 0.98921 0.14458 0.0
C974 C 0.03154 0.03309 0.9821 0.0
C975 C 0.98572 0.01353 0.90468 0.0
N976 N 0.02143 0.00262 0.09221 0.0
N977 N 0.9825 1.00012 0.95705 0.0
H978 H 0.31683 0.69031 0.3589 0.0
H979 H 0.19731 0.8118 0.16638 0.0
H980 H 0.26425 0.78406 0.41135 0.0
H981 H 0.2504 0.71847 0.11334 0.0
H982 H 0.22138 0.8019 0.25627 0.0
H983 H 0.29283 0.70017 0.26891 0.0
C984 C 0.30037 0.71308 0.35152 0.0
C985 C 0.29271 0.73644 0.39301 0.0
C986 C 0.22781 0.78358 0.225 0.0
C987 C 0.26475 0.74771 0.2897 0.0
C988 C 0.21391 0.78911 0.17362 0.0
C989 C 0.22168 0.76588 0.132 0.0
C990 C 0.24971 0.75454 0.23523 0.0
C991 C 0.24393 0.73732 0.14378 0.0
C992 C 0.28651 0.71859 0.30009 0.0
C993 C 0.27062 0.7651 0.38104 0.0
N994 N 0.25706 0.73243 0.19422 0.0
N995 N 0.25753 0.76995 0.33058 0.0
H996 H 0.4645 0.98667 0.68153 0.0
H997 H 0.5345 0.01926 0.37005 0.0
H998 H 0.50844 0.08475 0.61624 0.0
H999 H 0.49052 0.92123 0.43552 0.0
H1000 H 0.52463 0.04389 0.45955 0.0
H1001 H 0.47408 0.9622 0.59189 0.0
C1002 C 0.47636 0.00303 0.64849 0.0
C1003 C 0.48566 0.03788 0.65668 0.0
C1004 C 0.51713 0.01699 0.45436 0.0
C1005 C 0.49638 0.01005 0.55339 0.0
C1006 C 0.52256 0.00294 0.40309 0.0
C1007 C 0.51338 0.96804 0.39502 0.0
C1008 C 0.50234 0.99606 0.49812 0.0
C1009 C 0.4985 0.94808 0.43982 0.0
C1010 C 0.48163 0.98908 0.59714 0.0
C1011 C 0.50041 0.05792 0.61186 0.0
N1012 N 0.49346 0.96235 0.48928 0.0
N1013 N 0.50532 0.04373 0.5623 0.0
H1014 H 0.16781 0.26948 0.87842 0.0
H1015 H 0.33346 0.2373 0.67371 0.0
H1016 H 0.26395 0.22017 0.9283 0.0
H1017 H 0.23715 0.28616 0.62361 0.0
H1018 H 0.30856 0.23107 0.76711 0.0
H1019 H 0.19271 0.27577 0.78502 0.0
C1020 C 0.19411 0.25981 0.86976 0.0
C1021 C 0.21372 0.24415 0.9115 0.0
C1022 C 0.29284 0.24314 0.73572 0.0
C1023 C 0.24262 0.25162 0.80428 0.0
C1024 C 0.30712 0.24688 0.68232 0.0
C1025 C 0.28746 0.26239 0.64052 0.0
C1026 C 0.25857 0.25501 0.74775 0.0
C1027 C 0.25319 0.27369 0.65421 0.0
C1028 C 0.20839 0.26359 0.81637 0.0
C1029 C 0.24795 0.23275 0.89776 0.0
N1030 N 0.23991 0.26985 0.70656 0.0
N1031 N 0.26123 0.23664 0.84542 0.0
H1032 H 0.74037 0.21705 0.92717 0.0
H1033 H 0.76893 0.28628 0.61454 0.0
H1034 H 0.83615 0.26521 0.86056 0.0
H1035 H 0.67306 0.23849 0.68152 0.0
H1036 H 0.79423 0.27823 0.70396 0.0
H1037 H 0.71524 0.2249 0.83764 0.0
C1038 C 0.75608 0.22948 0.89386 0.0
C1039 C 0.79049 0.24048 0.90166 0.0
C1040 C 0.76765 0.2695 0.69911 0.0
C1041 C 0.76191 0.2492 0.79849 0.0
C1042 C 0.75324 0.27389 0.6479 0.0
C1043 C 0.71873 0.26309 0.64028 0.0
C1044 C 0.74751 0.25412 0.74327 0.0
C1045 C 0.69956 0.2477 0.68547 0.0
C1046 C 0.74176 0.23375 0.84258 0.0
C1047 C 0.80971 0.25588 0.8565 0.0
N1048 N 0.71418 0.24368 0.73487 0.0
N1049 N 0.79517 0.25979 0.80701 0.0
H1050 H 0.74584 0.78855 0.42787 0.0
H1051 H 0.75647 0.71663 0.12607 0.0
H1052 H 0.68936 0.69774 0.3818 0.0
H1053 H 0.81263 0.80769 0.17195 0.0
H1054 H 0.73136 0.70951 0.21931 0.0
H1055 H 0.77095 0.79568 0.33462 0.0
C1056 C 0.73886 0.76995 0.39829 0.0
C1057 C 0.7154 0.74248 0.4129 0.0
C1058 C 0.74918 0.73106 0.209 0.0
C1059 C 0.74383 0.75077 0.30557 0.0
C1060 C 0.76338 0.73529 0.1556 0.0
C1061 C 0.78675 0.76283 0.14093 0.0
C1062 C 0.75833 0.75455 0.24827 0.0
C1063 C 0.79513 0.7858 0.18141 0.0
C1064 C 0.75306 0.77419 0.34489 0.0
C1065 C 0.70694 0.71958 0.37238 0.0
N1066 N 0.78094 0.78115 0.23309 0.0
N1067 N 0.72114 0.72423 0.32071 0.0
H1068 H 0.44667 0.43738 0.63087 0.0
H1069 H 0.55613 0.56555 0.41841 0.0
H1070 H 0.53625 0.49709 0.67355 0.0
H1071 H 0.46649 0.50592 0.37578 0.0
H1072 H 0.54919 0.54088 0.51192 0.0
H1073 H 0.45361 0.46205 0.53737 0.0
C1074 C 0.46792 0.45556 0.6206 0.0
C1075 C 0.49098 0.46502 0.66036 0.0
C1076 C 0.53103 0.53315 0.48214 0.0
C1077 C 0.49888 0.49374 0.553 0.0
C1078 C 0.53487 0.54738 0.42868 0.0
C1079 C 0.5118 0.53794 0.38894 0.0
C1080 C 0.50389 0.50923 0.49631 0.0
C1081 C 0.48515 0.51372 0.4047 0.0
C1082 C 0.47176 0.4698 0.56715 0.0
C1083 C 0.5176 0.48927 0.64461 0.0
N1084 N 0.4819 0.5003 0.45707 0.0
N1085 N 0.52085 0.50269 0.59225 0.0
H1086 H 0.06754 0.4469 0.93567 0.0
H1087 H 0.9317 0.55075 0.12847 0.0
H1088 H 0.96911 0.48917 0.88224 0.0
H1089 H 0.03046 0.5091 0.18161 0.0
H1090 H 0.94492 0.52838 0.03826 0.0
H1091 H 0.05432 0.46924 0.0259 0.0
C1092 C 0.04305 0.46075 0.94289 0.0
C1093 C 0.01937 0.466 0.90108 0.0
C1094 C 0.96371 0.5241 0.06963 0.0
C1095 C 0.00416 0.49202 1.00468 0.0
C1096 C 0.95626 0.53703 0.12119 0.0
C1097 C 0.98004 0.53197 0.16292 0.0
C1098 C 0.99524 0.5059 0.05934 0.0
C1099 C 0.01113 0.51335 0.15107 0.0
C1100 C 0.0356 0.47367 0.99447 0.0
C1101 C 0.98836 0.48477 0.91285 0.0
N1102 N 0.01784 0.50111 0.10047 0.0
N1103 N 0.98164 0.49699 0.96347 0.0
loop_
_geom_bond_atom_site_label_1
_geom_bond_atom_site_label_2
_geom_bond_distance
_geom_bond_site_symmetry_2
_ccdc_geom_bond_type
Eu0 N31 2.647 1_455 S
Eu0 N38 2.609 1_455 S
Eu0 O44 2.564 . S
Eu0 O45 2.616 1_565 S
Eu0 O47 2.331 1_465 S
Eu0 O48 2.571 1_565 S
Eu0 O49 2.417 1_455 S
Eu0 O51 2.376 1_455 S
Eu0 O52 2.440 . S
Eu0 C64 2.849 . S
C1 C4 1.429 . S
C1 C5 1.411 . S
C1 N8 1.377 . S
C2 C4 1.420 . S
C2 C6 1.423 . S
C2 C14 1.392 . S
C3 C5 1.420 . S
C3 C6 1.351 . S
C3 H26 0.931 . S
C4 C1 1.429 . S
C4 C2 1.420 . S
C4 N12 1.362 . S
C5 C1 1.411 . S
C5 C3 1.420 . S
C5 C10 1.395 . S
C6 C2 1.423 . S
C6 C3 1.351 . S
C6 H18 0.930 . S
C7 C9 1.400 . S
C7 C10 1.386 1_655 S
C7 H19 0.930 . S
N8 C1 1.377 . S
N8 C9 1.321 1_455 S
N8 Eu11 2.609 1_455 S
C9 C7 1.400 . S
C9 N8 1.321 1_655 S
C9 H16 0.930 . S
C10 C5 1.395 . S
C10 C7 1.386 1_455 S
C10 H29 0.931 . S
Eu11 N8 2.609 1_655 S
Eu11 N12 2.654 1_655 S
Eu11 O45 2.379 1_655 S
Eu11 O46 2.434 . S
Eu11 O50 2.560 . S
Eu11 O51 2.613 1_545 S
Eu11 O53 2.336 1_645 S
Eu11 O54 2.566 1_545 S
Eu11 O55 2.418 1_655 S
Eu11 C75 2.848 . S
N12 C4 1.362 . S
N12 Eu11 2.654 1_455 S
N12 C13 1.334 . S
C13 N12 1.334 . S
C13 C15 1.413 . S
C13 H20 0.929 . S
C14 C2 1.392 . S
C14 C15 1.367 . S
C14 H22 0.930 . S
C15 C13 1.413 . S
C15 C14 1.367 . S
C15 H17 0.930 . S
H16 C9 0.930 . S
H17 C15 0.930 . S
H18 C6 0.930 . S
H19 C7 0.930 . S
H20 C13 0.929 . S
H21 C35 0.930 . S
H22 C14 0.930 . S
H23 C41 0.930 . S
H24 C32 0.929 . S
H25 C39 0.930 . S
H26 C3 0.931 . S
H27 C33 0.930 . S
H28 C66 0.930 . S
H29 C10 0.931 . S
H30 C65 0.931 . S
N31 Eu0 2.647 1_655 S
N31 C32 1.334 . S
N31 C36 1.362 . S
C32 H24 0.929 . S
C32 N31 1.334 . S
C32 C35 1.413 . S
C33 H27 0.930 . S
C33 C34 1.392 . S
C33 C35 1.367 . S
C34 C33 1.392 . S
C34 C36 1.420 . S
C34 C66 1.423 . S
C35 H21 0.930 . S
C35 C32 1.413 . S
C35 C33 1.367 . S
C36 N31 1.362 . S
C36 C34 1.420 . S
C36 C40 1.429 . S
H37 C42 0.930 . S
N38 Eu0 2.609 1_655 S
N38 C40 1.377 . S
N38 C41 1.321 1_655 S
C39 H25 0.930 . S
C39 C41 1.400 . S
C39 C42 1.386 1_455 S
C40 C36 1.429 . S
C40 N38 1.377 . S
C40 C43 1.411 . S
C41 H23 0.930 . S
C41 N38 1.321 1_455 S
C41 C39 1.400 . S
C42 H37 0.930 . S
C42 C39 1.386 1_655 S
C42 C43 1.395 . S
C43 C40 1.411 . S
C43 C42 1.395 . S
C43 C65 1.420 . S
O44 Eu0 2.564 . S
O44 C64 1.257 . S
O45 Eu0 2.616 1_545 S
O45 Eu11 2.379 1_455 S
O45 C56 1.276 . S
O46 Eu11 2.434 . S
O46 C63 1.264 . S
O47 Eu0 2.331 1_645 S
O47 C63 1.254 . S
O48 Eu0 2.571 1_545 S
O48 C56 1.235 . S
O49 Eu0 2.417 1_655 S
O49 C64 1.249 1_655 S
O50 Eu11 2.560 . S
O50 C75 1.257 . S
O51 Eu0 2.376 1_655 S
O51 Eu11 2.613 1_565 S
O51 C67 1.276 . S
O52 Eu0 2.440 . S
O52 C74 1.264 . S
O53 Eu11 2.336 1_465 S
O53 C74 1.254 . S
O54 Eu11 2.566 1_565 S
O54 C67 1.235 . S
O55 Eu11 2.418 1_455 S
O55 C75 1.249 1_455 S
C56 O45 1.276 . S
C56 O48 1.235 . S
C57 C59 1.393 . S
C57 C61 1.395 . S
C57 C64 1.492 . S
C58 C59 1.392 . S
C58 C60 1.386 . S
C59 C57 1.393 . S
C59 C58 1.392 . S
C59 H76 0.930 1_465 S
C60 C58 1.386 . S
C60 C62 1.395 . S
C60 H77 0.930 . S
C61 C57 1.395 . S
C61 C62 1.379 . S
C61 H78 0.930 . S
C62 C60 1.395 . S
C62 C61 1.379 . S
C62 H79 0.930 . S
C63 O46 1.264 . S
C63 O47 1.254 . S
C64 Eu0 2.849 . S
C64 O44 1.257 . S
C64 O49 1.249 1_455 S
C64 C57 1.492 . S
C65 H30 0.931 . S
C65 C43 1.420 . S
C65 C66 1.351 . S
C66 H28 0.930 . S
C66 C34 1.423 . S
C66 C65 1.351 . S
C67 O51 1.276 . S
C67 O54 1.235 . S
C68 C69 1.393 . S
C68 C72 1.395 . S
C68 C75 1.492 . S
C69 C68 1.393 . S
C69 C70 1.392 . S
C69 H80 0.930 1_645 S
C70 C69 1.392 . S
C70 C71 1.386 . S
C71 C70 1.386 . S
C71 C73 1.395 . S
C71 H81 0.930 . S
C72 C68 1.395 . S
C72 C73 1.379 . S
C72 H82 0.930 . S
C73 C71 1.395 . S
C73 C72 1.379 . S
C73 H83 0.930 . S
C74 O52 1.264 . S
C74 O53 1.254 . S
C75 Eu11 2.848 . S
C75 O50 1.257 . S
C75 O55 1.249 1_655 S
C75 C68 1.492 . S
H76 C59 0.930 1_645 S
H77 C60 0.930 . S
H78 C61 0.930 . S
H79 C62 0.930 . S
H80 C69 0.930 1_465 S
H81 C71 0.930 . S
H82 C72 0.930 . S
H83 C73 0.930 . S
Eu84 N115 2.657 . S
Eu84 N122 2.609 . S
Eu84 O128 2.558 . S
Eu84 O129 2.612 . S
Eu84 O131 2.339 . S
Eu84 O132 2.563 . S
Eu84 O133 2.419 . S
Eu84 O135 2.380 . S
Eu84 O136 2.432 . S
Eu84 C148 2.848 . S
C85 C88 1.429 . S
C85 C89 1.411 . S
C85 N92 1.377 . S
C86 C88 1.420 . S
C86 C90 1.423 . S
C86 C98 1.392 . S
C87 C89 1.420 . S
C87 C90 1.351 . S
C87 H110 0.931 . S
C88 C85 1.429 . S
C88 C86 1.420 . S
C88 N96 1.362 . S
C89 C85 1.411 . S
C89 C87 1.420 . S
C89 C94 1.395 . S
C90 C86 1.423 . S
C90 C87 1.351 . S
C90 H102 0.930 . S
C91 C93 1.400 . S
C91 C94 1.386 . S
C91 H103 0.930 . S
N92 C85 1.377 . S
N92 C93 1.321 . S
N92 Eu95 2.609 . S
C93 C91 1.400 . S
C93 N92 1.321 . S
C93 H100 0.930 . S
C94 C89 1.395 . S
C94 C91 1.386 . S
C94 H113 0.930 . S
Eu95 N92 2.609 . S
Eu95 N96 2.657 . S
Eu95 O129 2.380 . S
Eu95 O130 2.432 . S
Eu95 O134 2.558 . S
Eu95 O135 2.612 . S
Eu95 O137 2.339 . S
Eu95 O138 2.563 . S
Eu95 O139 2.419 . S
Eu95 C159 2.848 . S
N96 C88 1.362 . S
N96 Eu95 2.657 . S
N96 C97 1.334 . S
C97 N96 1.334 . S
C97 C99 1.413 . S
C97 H104 0.929 . S
C98 C86 1.392 . S
C98 C99 1.367 . S
C98 H106 0.930 . S
C99 C97 1.413 . S
C99 C98 1.367 . S
C99 H101 0.930 . S
H100 C93 0.930 . S
H101 C99 0.930 . S
H102 C90 0.930 . S
H103 C91 0.930 . S
H104 C97 0.929 . S
H105 C119 0.930 . S
H106 C98 0.930 . S
H107 C125 0.930 . S
H108 C116 0.929 . S
H109 C123 0.930 . S
H110 C87 0.931 . S
H111 C117 0.930 . S
H112 C150 0.930 . S
H113 C94 0.930 . S
H114 C149 0.931 . S
N115 Eu84 2.657 . S
N115 C116 1.334 . S
N115 C120 1.362 . S
C116 H108 0.929 . S
C116 N115 1.334 . S
C116 C119 1.413 . S
C117 H111 0.930 . S
C117 C118 1.392 . S
C117 C119 1.367 . S
C118 C117 1.392 . S
C118 C120 1.420 . S
C118 C150 1.423 . S
C119 H105 0.930 . S
C119 C116 1.413 . S
C119 C117 1.367 . S
C120 N115 1.362 . S
C120 C118 1.420 . S
C120 C124 1.429 . S
H121 C126 0.930 . S
N122 Eu84 2.609 . S
N122 C124 1.377 . S
N122 C125 1.321 . S
C123 H109 0.930 . S
C123 C125 1.400 . S
C123 C126 1.386 . S
C124 C120 1.429 . S
C124 N122 1.377 . S
C124 C127 1.411 . S
C125 H107 0.930 . S
C125 N122 1.321 . S
C125 C123 1.400 . S
C126 H121 0.930 . S
C126 C123 1.386 . S
C126 C127 1.395 . S
C127 C124 1.411 . S
C127 C126 1.395 . S
C127 C149 1.420 . S
O128 Eu84 2.558 . S
O128 C148 1.257 . S
O129 Eu84 2.612 . S
O129 Eu95 2.380 . S
O129 C140 1.276 . S
O130 Eu95 2.432 . S
O130 C147 1.264 . S
O131 Eu84 2.339 . S
O131 C147 1.254 . S
O132 Eu84 2.563 . S
O132 C140 1.235 . S
O133 Eu84 2.419 . S
O133 C148 1.249 . S
O134 Eu95 2.558 . S
O134 C159 1.257 . S
O135 Eu84 2.380 . S
O135 Eu95 2.612 . S
O135 C151 1.276 . S
O136 Eu84 2.432 . S
O136 C158 1.264 . S
O137 Eu95 2.339 . S
O137 C158 1.254 . S
O138 Eu95 2.563 . S
O138 C151 1.235 . S
O139 Eu95 2.419 . S
O139 C159 1.249 . S
C140 O129 1.276 . S
C140 O132 1.235 . S
C141 C143 1.393 . S
C141 C145 1.395 . S
C141 C148 1.492 . S
C142 C143 1.392 . S
C142 C144 1.386 . S
C143 C141 1.393 . S
C143 C142 1.392 . S
C143 H160 0.930 . S
C144 C142 1.386 . S
C144 C146 1.395 . S
C144 H161 0.930 . S
C145 C141 1.395 . S
C145 C146 1.379 . S
C145 H162 0.930 . S
C146 C144 1.395 . S
C146 C145 1.379 . S
C146 H163 0.930 . S
C147 O130 1.264 . S
C147 O131 1.254 . S
C148 Eu84 2.848 . S
C148 O128 1.257 . S
C148 O133 1.249 . S
C148 C141 1.492 . S
C149 H114 0.931 . S
C149 C127 1.420 . S
C149 C150 1.351 . S
C150 H112 0.930 . S
C150 C118 1.423 . S
C150 C149 1.351 . S
C151 O135 1.276 . S
C151 O138 1.235 . S
C152 C153 1.393 1_556 S
C152 C156 1.395 1_556 S
C152 C159 1.492 . S
C153 C152 1.393 1_554 S
C153 C154 1.392 . S
C153 H164 0.930 1_554 S
C154 C153 1.392 . S
C154 C155 1.386 . S
C155 C154 1.386 . S
C155 C157 1.395 . S
C155 H165 0.930 . S
C156 C152 1.395 1_554 S
C156 C157 1.379 . S
C156 H166 0.930 1_554 S
C157 C155 1.395 . S
C157 C156 1.379 . S
C157 H167 0.930 . S
C158 O136 1.264 . S
C158 O137 1.254 . S
C159 Eu95 2.848 . S
C159 O134 1.257 . S
C159 O139 1.249 . S
C159 C152 1.492 . S
H160 C143 0.930 . S
H161 C144 0.930 . S
H162 C145 0.930 . S
H163 C146 0.930 . S
H164 C153 0.930 1_556 S
H165 C155 0.930 . S
H166 C156 0.930 1_556 S
H167 C157 0.930 . S
Eu168 N199 2.657 . S
Eu168 N206 2.609 . S
Eu168 O212 2.558 . S
Eu168 O213 2.612 1_565 S
Eu168 O215 2.339 1_565 S
Eu168 O216 2.563 1_565 S
Eu168 O217 2.419 . S
Eu168 O219 2.380 1_554 S
Eu168 O220 2.432 . S
Eu168 C232 2.848 . S
C169 C172 1.429 . S
C169 C173 1.411 . S
C169 N176 1.377 . S
C170 C172 1.420 . S
C170 C174 1.423 . S
C170 C182 1.392 . S
C171 C173 1.420 . S
C171 C174 1.351 . S
C171 H194 0.931 . S
C172 C169 1.429 . S
C172 C170 1.420 . S
C172 N180 1.362 . S
C173 C169 1.411 . S
C173 C171 1.420 . S
C173 C178 1.395 . S
C174 C170 1.423 . S
C174 C171 1.351 . S
C174 H186 0.930 . S
C175 C177 1.400 . S
C175 C178 1.386 . S
C175 H187 0.930 . S
N176 C169 1.377 . S
N176 C177 1.321 . S
N176 Eu179 2.609 . S
C177 C175 1.400 . S
C177 N176 1.321 . S
C177 H184 0.930 . S
C178 C173 1.395 . S
C178 C175 1.386 . S
C178 H197 0.930 . S
Eu179 N176 2.609 . S
Eu179 N180 2.657 . S
Eu179 O213 2.380 1_556 S
Eu179 O214 2.432 . S
Eu179 O218 2.558 . S
Eu179 O219 2.612 1_545 S
Eu179 O221 2.339 1_545 S
Eu179 O222 2.563 1_545 S
Eu179 O223 2.419 . S
Eu179 C243 2.848 . S
N180 C172 1.362 . S
N180 Eu179 2.657 . S
N180 C181 1.334 . S
C181 N180 1.334 . S
C181 C183 1.413 . S
C181 H188 0.929 . S
C182 C170 1.392 . S
C182 C183 1.367 . S
C182 H190 0.930 . S
C183 C181 1.413 . S
C183 C182 1.367 . S
C183 H185 0.930 . S
H184 C177 0.930 . S
H185 C183 0.930 . S
H186 C174 0.930 . S
H187 C175 0.930 . S
H188 C181 0.929 . S
H189 C203 0.930 . S
H190 C182 0.930 . S
H191 C209 0.930 . S
H192 C200 0.929 . S
H193 C207 0.930 . S
H194 C171 0.931 . S
H195 C201 0.930 . S
H196 C234 0.930 . S
H197 C178 0.930 . S
H198 C233 0.931 . S
N199 Eu168 2.657 . S
N199 C200 1.334 . S
N199 C204 1.362 . S
C200 H192 0.929 . S
C200 N199 1.334 . S
C200 C203 1.413 . S
C201 H195 0.930 . S
C201 C202 1.392 . S
C201 C203 1.367 . S
C202 C201 1.392 . S
C202 C204 1.420 . S
C202 C234 1.423 . S
C203 H189 0.930 . S
C203 C200 1.413 . S
C203 C201 1.367 . S
C204 N199 1.362 . S
C204 C202 1.420 . S
C204 C208 1.429 . S
H205 C210 0.930 . S
N206 Eu168 2.609 . S
N206 C208 1.377 . S
N206 C209 1.321 . S
C207 H193 0.930 . S
C207 C209 1.400 . S
C207 C210 1.386 . S
C208 C204 1.429 . S
C208 N206 1.377 . S
C208 C211 1.411 . S
C209 H191 0.930 . S
C209 N206 1.321 . S
C209 C207 1.400 . S
C210 H205 0.930 . S
C210 C207 1.386 . S
C210 C211 1.395 . S
C211 C208 1.411 . S
C211 C210 1.395 . S
C211 C233 1.420 . S
O212 Eu168 2.558 . S
O212 C232 1.257 . S
O213 Eu168 2.612 1_545 S
O213 Eu179 2.380 1_554 S
O213 C224 1.276 . S
O214 Eu179 2.432 . S
O214 C231 1.264 1_556 S
O215 Eu168 2.339 1_545 S
O215 C231 1.254 . S
O216 Eu168 2.563 1_545 S
O216 C224 1.235 . S
O217 Eu168 2.419 . S
O217 C232 1.249 . S
O218 Eu179 2.558 . S
O218 C243 1.257 . S
O219 Eu168 2.380 1_556 S
O219 Eu179 2.612 1_565 S
O219 C235 1.276 . S
O220 Eu168 2.432 . S
O220 C242 1.264 1_554 S
O221 Eu179 2.339 1_565 S
O221 C242 1.254 . S
O222 Eu179 2.563 1_565 S
O222 C235 1.235 . S
O223 Eu179 2.419 . S
O223 C243 1.249 . S
C224 O213 1.276 . S
C224 O216 1.235 . S
C225 C227 1.393 . S
C225 C229 1.395 . S
C225 C232 1.492 . S
C226 C227 1.392 . S
C226 C228 1.386 . S
C227 C225 1.393 . S
C227 C226 1.392 . S
C227 H244 0.930 1_565 S
C228 C226 1.386 . S
C228 C230 1.395 . S
C228 H245 0.930 . S
C229 C225 1.395 . S
C229 C230 1.379 . S
C229 H246 0.930 . S
C230 C228 1.395 . S
C230 C229 1.379 . S
C230 H247 0.930 . S
C231 O214 1.264 1_554 S
C231 O215 1.254 . S
C232 Eu168 2.848 . S
C232 O212 1.257 . S
C232 O217 1.249 . S
C232 C225 1.492 . S
C233 H198 0.931 . S
C233 C211 1.420 . S
C233 C234 1.351 . S
C234 H196 0.930 . S
C234 C202 1.423 . S
C234 C233 1.351 . S
C235 O219 1.276 . S
C235 O222 1.235 . S
C236 C237 1.393 . S
C236 C240 1.395 . S
C236 C243 1.492 . S
C237 C236 1.393 . S
C237 C238 1.392 . S
C237 H248 0.930 1_545 S
C238 C237 1.392 . S
C238 C239 1.386 . S
C239 C238 1.386 . S
C239 C241 1.395 . S
C239 H249 0.930 . S
C240 C236 1.395 . S
C240 C241 1.379 . S
C240 H250 0.930 . S
C241 C239 1.395 . S
C241 C240 1.379 . S
C241 H251 0.930 . S
C242 O220 1.264 1_556 S
C242 O221 1.254 . S
C243 Eu179 2.848 . S
C243 O218 1.257 . S
C243 O223 1.249 . S
C243 C236 1.492 . S
H244 C227 0.930 1_545 S
H245 C228 0.930 . S
H246 C229 0.930 . S
H247 C230 0.930 . S
H248 C237 0.930 1_565 S
H249 C239 0.930 . S
H250 C240 0.930 . S
H251 C241 0.930 . S
Eu252 N283 2.657 . S
Eu252 N290 2.609 . S
Eu252 O296 2.558 . S
Eu252 O297 2.612 . S
Eu252 O299 2.339 . S
Eu252 O300 2.563 . S
Eu252 O301 2.419 . S
Eu252 O303 2.380 . S
Eu252 O304 2.432 . S
Eu252 C316 2.848 . S
C253 C256 1.429 . S
C253 C257 1.411 . S
C253 N260 1.377 . S
C254 C256 1.420 . S
C254 C258 1.423 . S
C254 C266 1.392 . S
C255 C257 1.420 . S
C255 C258 1.351 . S
C255 H278 0.931 . S
C256 C253 1.429 . S
C256 C254 1.420 . S
C256 N264 1.362 . S
C257 C253 1.411 . S
C257 C255 1.420 . S
C257 C262 1.395 . S
C258 C254 1.423 . S
C258 C255 1.351 . S
C258 H270 0.930 . S
C259 C261 1.400 . S
C259 C262 1.386 . S
C259 H271 0.930 . S
N260 C253 1.377 . S
N260 C261 1.321 . S
N260 Eu263 2.609 . S
C261 C259 1.400 . S
C261 N260 1.321 . S
C261 H268 0.930 . S
C262 C257 1.395 . S
C262 C259 1.386 . S
C262 H281 0.930 . S
Eu263 N260 2.609 . S
Eu263 N264 2.657 . S
Eu263 O297 2.380 . S
Eu263 O298 2.432 . S
Eu263 O302 2.558 . S
Eu263 O303 2.612 . S
Eu263 O305 2.339 . S
Eu263 O306 2.563 . S
Eu263 O307 2.419 . S
Eu263 C327 2.848 . S
N264 C256 1.362 . S
N264 Eu263 2.657 . S
N264 C265 1.334 . S
C265 N264 1.334 . S
C265 C267 1.413 . S
C265 H272 0.929 . S
C266 C254 1.392 . S
C266 C267 1.367 . S
C266 H274 0.930 . S
C267 C265 1.413 . S
C267 C266 1.367 . S
C267 H269 0.930 . S
H268 C261 0.930 . S
H269 C267 0.930 . S
H270 C258 0.930 . S
H271 C259 0.930 . S
H272 C265 0.929 . S
H273 C287 0.930 . S
H274 C266 0.930 . S
H275 C293 0.930 . S
H276 C284 0.929 . S
H277 C291 0.930 . S
H278 C255 0.931 . S
H279 C285 0.930 . S
H280 C318 0.930 . S
H281 C262 0.930 . S
H282 C317 0.931 . S
N283 Eu252 2.657 . S
N283 C284 1.334 . S
N283 C288 1.362 . S
C284 H276 0.929 . S
C284 N283 1.334 . S
C284 C287 1.413 . S
C285 H279 0.930 . S
C285 C286 1.392 . S
C285 C287 1.367 . S
C286 C285 1.392 . S
C286 C288 1.420 . S
C286 C318 1.423 . S
C287 H273 0.930 . S
C287 C284 1.413 . S
C287 C285 1.367 . S
C288 N283 1.362 . S
C288 C286 1.420 . S
C288 C292 1.429 . S
H289 C294 0.930 . S
N290 Eu252 2.609 . S
N290 C292 1.377 . S
N290 C293 1.321 . S
C291 H277 0.930 . S
C291 C293 1.400 . S
C291 C294 1.386 . S
C292 C288 1.429 . S
C292 N290 1.377 . S
C292 C295 1.411 . S
C293 H275 0.930 . S
C293 N290 1.321 . S
C293 C291 1.400 . S
C294 H289 0.930 . S
C294 C291 1.386 . S
C294 C295 1.395 . S
C295 C292 1.411 . S
C295 C294 1.395 . S
C295 C317 1.420 . S
O296 Eu252 2.558 . S
O296 C316 1.257 . S
O297 Eu252 2.612 . S
O297 Eu263 2.380 . S
O297 C308 1.276 . S
O298 Eu263 2.432 . S
O298 C315 1.264 . S
O299 Eu252 2.339 . S
O299 C315 1.254 . S
O300 Eu252 2.563 . S
O300 C308 1.235 . S
O301 Eu252 2.419 . S
O301 C316 1.249 . S
O302 Eu263 2.558 . S
O302 C327 1.257 . S
O303 Eu252 2.380 . S
O303 Eu263 2.612 . S
O303 C319 1.276 . S
O304 Eu252 2.432 . S
O304 C326 1.264 . S
O305 Eu263 2.339 . S
O305 C326 1.254 . S
O306 Eu263 2.563 . S
O306 C319 1.235 . S
O307 Eu263 2.419 . S
O307 C327 1.249 . S
C308 O297 1.276 . S
C308 O300 1.235 . S
C309 C311 1.393 . S
C309 C313 1.395 . S
C309 C316 1.492 . S
C310 C311 1.392 . S
C310 C312 1.386 . S
C311 C309 1.393 . S
C311 C310 1.392 . S
C311 H328 0.930 . S
C312 C310 1.386 . S
C312 C314 1.395 . S
C312 H329 0.930 . S
C313 C309 1.395 . S
C313 C314 1.379 . S
C313 H330 0.930 . S
C314 C312 1.395 . S
C314 C313 1.379 . S
C314 H331 0.930 . S
C315 O298 1.264 . S
C315 O299 1.254 . S
C316 Eu252 2.848 . S
C316 O296 1.257 . S
C316 O301 1.249 . S
C316 C309 1.492 . S
C317 H282 0.931 . S
C317 C295 1.420 . S
C317 C318 1.351 . S
C318 H280 0.930 . S
C318 C286 1.423 . S
C318 C317 1.351 . S
C319 O303 1.276 . S
C319 O306 1.235 . S
C320 C321 1.393 1_554 S
C320 C324 1.395 1_554 S
C320 C327 1.492 . S
C321 C320 1.393 1_556 S
C321 C322 1.392 . S
C321 H332 0.930 1_556 S
C322 C321 1.392 . S
C322 C323 1.386 . S
C323 C322 1.386 . S
C323 C325 1.395 . S
C323 H333 0.930 . S
C324 C320 1.395 1_556 S
C324 C325 1.379 . S
C324 H334 0.930 1_556 S
C325 C323 1.395 . S
C325 C324 1.379 . S
C325 H335 0.930 . S
C326 O304 1.264 . S
C326 O305 1.254 . S
C327 Eu263 2.848 . S
C327 O302 1.257 . S
C327 O307 1.249 . S
C327 C320 1.492 . S
H328 C311 0.930 . S
H329 C312 0.930 . S
H330 C313 0.930 . S
H331 C314 0.930 . S
H332 C321 0.930 1_554 S
H333 C323 0.930 . S
H334 C324 0.930 1_554 S
H335 C325 0.930 . S
Eu336 N367 2.657 . S
Eu336 N374 2.609 . S
Eu336 O380 2.558 . S
Eu336 O381 2.612 . S
Eu336 O383 2.339 . S
Eu336 O384 2.563 . S
Eu336 O385 2.419 . S
Eu336 O387 2.380 . S
Eu336 O388 2.432 . S
Eu336 C400 2.848 . S
C337 C340 1.429 . S
C337 C341 1.411 . S
C337 N344 1.377 . S
C338 C340 1.420 . S
C338 C342 1.423 . S
C338 C350 1.392 . S
C339 C341 1.420 . S
C339 C342 1.351 . S
C339 H362 0.931 . S
C340 C337 1.429 . S
C340 C338 1.420 . S
C340 N348 1.362 . S
C341 C337 1.411 . S
C341 C339 1.420 . S
C341 C346 1.395 . S
C342 C338 1.423 . S
C342 C339 1.351 . S
C342 H354 0.930 . S
C343 C345 1.400 . S
C343 C346 1.386 . S
C343 H355 0.930 . S
N344 C337 1.377 . S
N344 C345 1.321 . S
N344 Eu347 2.609 . S
C345 C343 1.400 . S
C345 N344 1.321 . S
C345 H352 0.930 . S
C346 C341 1.395 . S
C346 C343 1.386 . S
C346 H365 0.930 . S
Eu347 N344 2.609 . S
Eu347 N348 2.657 . S
Eu347 O381 2.380 . S
Eu347 O382 2.432 . S
Eu347 O386 2.558 . S
Eu347 O387 2.612 . S
Eu347 O389 2.339 . S
Eu347 O390 2.563 . S
Eu347 O391 2.419 . S
Eu347 C411 2.848 . S
N348 C340 1.362 . S
N348 Eu347 2.657 . S
N348 C349 1.334 . S
C349 N348 1.334 . S
C349 C351 1.413 . S
C349 H356 0.929 . S
C350 C338 1.392 . S
C350 C351 1.367 . S
C350 H358 0.930 . S
C351 C349 1.413 . S
C351 C350 1.367 . S
C351 H353 0.930 . S
H352 C345 0.930 . S
H353 C351 0.930 . S
H354 C342 0.930 . S
H355 C343 0.930 . S
H356 C349 0.929 . S
H357 C371 0.930 . S
H358 C350 0.930 . S
H359 C377 0.930 . S
H360 C368 0.929 . S
H361 C375 0.930 . S
H362 C339 0.931 . S
H363 C369 0.930 . S
H364 C402 0.930 . S
H365 C346 0.930 . S
H366 C401 0.931 . S
N367 Eu336 2.657 . S
N367 C368 1.334 . S
N367 C372 1.362 . S
C368 H360 0.929 . S
C368 N367 1.334 . S
C368 C371 1.413 . S
C369 H363 0.930 . S
C369 C370 1.392 . S
C369 C371 1.367 . S
C370 C369 1.392 . S
C370 C372 1.420 . S
C370 C402 1.423 . S
C371 H357 0.930 . S
C371 C368 1.413 . S
C371 C369 1.367 . S
C372 N367 1.362 . S
C372 C370 1.420 . S
C372 C376 1.429 . S
H373 C378 0.930 . S
N374 Eu336 2.609 . S
N374 C376 1.377 . S
N374 C377 1.321 . S
C375 H361 0.930 . S
C375 C377 1.400 . S
C375 C378 1.386 . S
C376 C372 1.429 . S
C376 N374 1.377 . S
C376 C379 1.411 . S
C377 H359 0.930 . S
C377 N374 1.321 . S
C377 C375 1.400 . S
C378 H373 0.930 . S
C378 C375 1.386 . S
C378 C379 1.395 . S
C379 C376 1.411 . S
C379 C378 1.395 . S
C379 C401 1.420 . S
O380 Eu336 2.558 . S
O380 C400 1.257 . S
O381 Eu336 2.612 . S
O381 Eu347 2.380 . S
O381 C392 1.276 . S
O382 Eu347 2.432 . S
O382 C399 1.264 . S
O383 Eu336 2.339 . S
O383 C399 1.254 . S
O384 Eu336 2.563 . S
O384 C392 1.235 . S
O385 Eu336 2.419 . S
O385 C400 1.249 . S
O386 Eu347 2.558 . S
O386 C411 1.257 . S
O387 Eu336 2.380 . S
O387 Eu347 2.612 . S
O387 C403 1.276 . S
O388 Eu336 2.432 . S
O388 C410 1.264 . S
O389 Eu347 2.339 . S
O389 C410 1.254 . S
O390 Eu347 2.563 . S
O390 C403 1.235 . S
O391 Eu347 2.419 . S
O391 C411 1.249 . S
C392 O381 1.276 . S
C392 O384 1.235 . S
C393 C395 1.393 1_554 S
C393 C397 1.395 1_554 S
C393 C400 1.492 . S
C394 C395 1.392 . S
C394 C396 1.386 . S
C395 C393 1.393 1_556 S
C395 C394 1.392 . S
C395 H412 0.930 1_556 S
C396 C394 1.386 . S
C396 C398 1.395 . S
C396 H413 0.930 . S
C397 C393 1.395 1_556 S
C397 C398 1.379 . S
C397 H414 0.930 1_556 S
C398 C396 1.395 . S
C398 C397 1.379 . S
C398 H415 0.930 . S
C399 O382 1.264 . S
C399 O383 1.254 . S
C400 Eu336 2.848 . S
C400 O380 1.257 . S
C400 O385 1.249 . S
C400 C393 1.492 . S
C401 H366 0.931 . S
C401 C379 1.420 . S
C401 C402 1.351 . S
C402 H364 0.930 . S
C402 C370 1.423 . S
C402 C401 1.351 . S
C403 O387 1.276 . S
C403 O390 1.235 . S
C404 C405 1.393 . S
C404 C408 1.395 . S
C404 C411 1.492 . S
C405 C404 1.393 . S
C405 C406 1.392 . S
C405 H416 0.930 . S
C406 C405 1.392 . S
C406 C407 1.386 . S
C407 C406 1.386 . S
C407 C409 1.395 . S
C407 H417 0.930 . S
C408 C404 1.395 . S
C408 C409 1.379 . S
C408 H418 0.930 . S
C409 C407 1.395 . S
C409 C408 1.379 . S
C409 H419 0.930 . S
C410 O388 1.264 . S
C410 O389 1.254 . S
C411 Eu347 2.848 . S
C411 O386 1.257 . S
C411 O391 1.249 . S
C411 C404 1.492 . S
H412 C395 0.930 1_554 S
H413 C396 0.930 . S
H414 C397 0.930 1_554 S
H415 C398 0.930 . S
H416 C405 0.930 . S
H417 C407 0.930 . S
H418 C408 0.930 . S
H419 C409 0.930 . S
Eu420 N451 2.657 . S
Eu420 N458 2.609 . S
Eu420 O464 2.558 . S
Eu420 O465 2.612 . S
Eu420 O467 2.339 . S
Eu420 O468 2.563 . S
Eu420 O469 2.419 . S
Eu420 O471 2.380 . S
Eu420 O472 2.432 . S
Eu420 C484 2.848 . S
C421 C424 1.429 . S
C421 C425 1.411 . S
C421 N428 1.377 . S
C422 C424 1.420 . S
C422 C426 1.423 . S
C422 C434 1.392 . S
C423 C425 1.420 . S
C423 C426 1.351 . S
C423 H446 0.931 . S
C424 C421 1.429 . S
C424 C422 1.420 . S
C424 N432 1.362 . S
C425 C421 1.411 . S
C425 C423 1.420 . S
C425 C430 1.395 . S
C426 C422 1.423 . S
C426 C423 1.351 . S
C426 H438 0.930 . S
C427 C429 1.400 . S
C427 C430 1.386 . S
C427 H439 0.930 . S
N428 C421 1.377 . S
N428 C429 1.321 . S
N428 Eu431 2.609 . S
C429 C427 1.400 . S
C429 N428 1.321 . S
C429 H436 0.930 . S
C430 C425 1.395 . S
C430 C427 1.386 . S
C430 H449 0.930 . S
Eu431 N428 2.609 . S
Eu431 N432 2.657 . S
Eu431 O465 2.380 . S
Eu431 O466 2.432 . S
Eu431 O470 2.558 . S
Eu431 O471 2.612 . S
Eu431 O473 2.339 . S
Eu431 O474 2.563 . S
Eu431 O475 2.419 . S
Eu431 C495 2.848 . S
N432 C424 1.362 . S
N432 Eu431 2.657 . S
N432 C433 1.334 . S
C433 N432 1.334 . S
C433 C435 1.413 . S
C433 H440 0.929 . S
C434 C422 1.392 . S
C434 C435 1.367 . S
C434 H442 0.930 . S
C435 C433 1.413 . S
C435 C434 1.367 . S
C435 H437 0.930 . S
H436 C429 0.930 . S
H437 C435 0.930 . S
H438 C426 0.930 . S
H439 C427 0.930 . S
H440 C433 0.929 . S
H441 C455 0.930 . S
H442 C434 0.930 . S
H443 C461 0.930 . S
H444 C452 0.929 . S
H445 C459 0.930 . S
H446 C423 0.931 . S
H447 C453 0.930 . S
H448 C486 0.930 . S
H449 C430 0.930 . S
H450 C485 0.931 . S
N451 Eu420 2.657 . S
N451 C452 1.334 . S
N451 C456 1.362 . S
C452 H444 0.929 . S
C452 N451 1.334 . S
C452 C455 1.413 . S
C453 H447 0.930 . S
C453 C454 1.392 . S
C453 C455 1.367 . S
C454 C453 1.392 . S
C454 C456 1.420 . S
C454 C486 1.423 . S
C455 H441 0.930 . S
C455 C452 1.413 . S
C455 C453 1.367 . S
C456 N451 1.362 . S
C456 C454 1.420 . S
C456 C460 1.429 . S
H457 C462 0.930 . S
N458 Eu420 2.609 . S
N458 C460 1.377 . S
N458 C461 1.321 . S
C459 H445 0.930 . S
C459 C461 1.400 . S
C459 C462 1.386 . S
C460 C456 1.429 . S
C460 N458 1.377 . S
C460 C463 1.411 . S
C461 H443 0.930 . S
C461 N458 1.321 . S
C461 C459 1.400 . S
C462 H457 0.930 . S
C462 C459 1.386 . S
C462 C463 1.395 . S
C463 C460 1.411 . S
C463 C462 1.395 . S
C463 C485 1.420 . S
O464 Eu420 2.558 . S
O464 C484 1.257 . S
O465 Eu420 2.612 . S
O465 Eu431 2.380 . S
O465 C476 1.276 . S
O466 Eu431 2.432 . S
O466 C483 1.264 . S
O467 Eu420 2.339 . S
O467 C483 1.254 . S
O468 Eu420 2.563 . S
O468 C476 1.235 . S
O469 Eu420 2.419 . S
O469 C484 1.249 . S
O470 Eu431 2.558 . S
O470 C495 1.257 . S
O471 Eu420 2.380 . S
O471 Eu431 2.612 . S
O471 C487 1.276 . S
O472 Eu420 2.432 . S
O472 C494 1.264 . S
O473 Eu431 2.339 . S
O473 C494 1.254 . S
O474 Eu431 2.563 . S
O474 C487 1.235 . S
O475 Eu431 2.419 . S
O475 C495 1.249 . S
C476 O465 1.276 . S
C476 O468 1.235 . S
C477 C479 1.393 1_556 S
C477 C481 1.395 1_556 S
C477 C484 1.492 . S
C478 C479 1.392 . S
C478 C480 1.386 . S
C479 C477 1.393 1_554 S
C479 C478 1.392 . S
C479 H496 0.930 1_554 S
C480 C478 1.386 . S
C480 C482 1.395 . S
C480 H497 0.930 . S
C481 C477 1.395 1_554 S
C481 C482 1.379 . S
C481 H498 0.930 1_554 S
C482 C480 1.395 . S
C482 C481 1.379 . S
C482 H499 0.930 . S
C483 O466 1.264 . S
C483 O467 1.254 . S
C484 Eu420 2.848 . S
C484 O464 1.257 . S
C484 O469 1.249 . S
C484 C477 1.492 . S
C485 H450 0.931 . S
C485 C463 1.420 . S
C485 C486 1.351 . S
C486 H448 0.930 . S
C486 C454 1.423 . S
C486 C485 1.351 . S
C487 O471 1.276 . S
C487 O474 1.235 . S
C488 C489 1.393 . S
C488 C492 1.395 . S
C488 C495 1.492 . S
C489 C488 1.393 . S
C489 C490 1.392 . S
C489 H500 0.930 . S
C490 C489 1.392 . S
C490 C491 1.386 . S
C491 C490 1.386 . S
C491 C493 1.395 . S
C491 H501 0.930 . S
C492 C488 1.395 . S
C492 C493 1.379 . S
C492 H502 0.930 . S
C493 C491 1.395 . S
C493 C492 1.379 . S
C493 H503 0.930 . S
C494 O472 1.264 . S
C494 O473 1.254 . S
C495 Eu431 2.848 . S
C495 O470 1.257 . S
C495 O475 1.249 . S
C495 C488 1.492 . S
H496 C479 0.930 1_556 S
H497 C480 0.930 . S
H498 C481 0.930 1_556 S
H499 C482 0.930 . S
H500 C489 0.930 . S
H501 C491 0.930 . S
H502 C492 0.930 . S
H503 C493 0.930 . S
Eu504 N535 2.657 . S
Eu504 N542 2.609 . S
Eu504 O548 2.558 . S
Eu504 O549 2.612 . S
Eu504 O551 2.339 . S
Eu504 O552 2.563 . S
Eu504 O553 2.419 . S
Eu504 O555 2.380 1_556 S
Eu504 O556 2.432 . S
Eu504 C568 2.848 . S
C505 C508 1.429 . S
C505 C509 1.411 . S
C505 N512 1.377 . S
C506 C508 1.420 . S
C506 C510 1.423 . S
C506 C518 1.392 . S
C507 C509 1.420 . S
C507 C510 1.351 . S
C507 H530 0.931 . S
C508 C505 1.429 . S
C508 C506 1.420 . S
C508 N516 1.362 . S
C509 C505 1.411 . S
C509 C507 1.420 . S
C509 C514 1.395 . S
C510 C506 1.423 . S
C510 C507 1.351 . S
C510 H522 0.930 . S
C511 C513 1.400 . S
C511 C514 1.386 . S
C511 H523 0.930 . S
N512 C505 1.377 . S
N512 C513 1.321 . S
N512 Eu515 2.609 . S
C513 C511 1.400 . S
C513 N512 1.321 . S
C513 H520 0.930 . S
C514 C509 1.395 . S
C514 C511 1.386 . S
C514 H533 0.930 . S
Eu515 N512 2.609 . S
Eu515 N516 2.657 . S
Eu515 O549 2.380 1_554 S
Eu515 O550 2.432 . S
Eu515 O554 2.558 . S
Eu515 O555 2.612 . S
Eu515 O557 2.339 . S
Eu515 O558 2.563 . S
Eu515 O559 2.419 . S
Eu515 C579 2.848 . S
N516 C508 1.362 . S
N516 Eu515 2.657 . S
N516 C517 1.334 . S
C517 N516 1.334 . S
C517 C519 1.413 . S
C517 H524 0.929 . S
C518 C506 1.392 . S
C518 C519 1.367 . S
C518 H526 0.930 . S
C519 C517 1.413 . S
C519 C518 1.367 . S
C519 H521 0.930 . S
H520 C513 0.930 . S
H521 C519 0.930 . S
H522 C510 0.930 . S
H523 C511 0.930 . S
H524 C517 0.929 . S
H525 C539 0.930 . S
H526 C518 0.930 . S
H527 C545 0.930 . S
H528 C536 0.929 . S
H529 C543 0.930 . S
H530 C507 0.931 . S
H531 C537 0.930 . S
H532 C570 0.930 . S
H533 C514 0.930 . S
H534 C569 0.931 . S
N535 Eu504 2.657 . S
N535 C536 1.334 . S
N535 C540 1.362 . S
C536 H528 0.929 . S
C536 N535 1.334 . S
C536 C539 1.413 . S
C537 H531 0.930 . S
C537 C538 1.392 . S
C537 C539 1.367 . S
C538 C537 1.392 . S
C538 C540 1.420 . S
C538 C570 1.423 . S
C539 H525 0.930 . S
C539 C536 1.413 . S
C539 C537 1.367 . S
C540 N535 1.362 . S
C540 C538 1.420 . S
C540 C544 1.429 . S
H541 C546 0.930 . S
N542 Eu504 2.609 . S
N542 C544 1.377 . S
N542 C545 1.321 . S
C543 H529 0.930 . S
C543 C545 1.400 . S
C543 C546 1.386 . S
C544 C540 1.429 . S
C544 N542 1.377 . S
C544 C547 1.411 . S
C545 H527 0.930 . S
C545 N542 1.321 . S
C545 C543 1.400 . S
C546 H541 0.930 . S
C546 C543 1.386 . S
C546 C547 1.395 . S
C547 C544 1.411 . S
C547 C546 1.395 . S
C547 C569 1.420 . S
O548 Eu504 2.558 . S
O548 C568 1.257 . S
O549 Eu504 2.612 . S
O549 Eu515 2.380 1_556 S
O549 C560 1.276 . S
O550 Eu515 2.432 . S
O550 C567 1.264 1_554 S
O551 Eu504 2.339 . S
O551 C567 1.254 . S
O552 Eu504 2.563 . S
O552 C560 1.235 . S
O553 Eu504 2.419 . S
O553 C568 1.249 . S
O554 Eu515 2.558 . S
O554 C579 1.257 . S
O555 Eu504 2.380 1_554 S
O555 Eu515 2.612 . S
O555 C571 1.276 . S
O556 Eu504 2.432 . S
O556 C578 1.264 1_556 S
O557 Eu515 2.339 . S
O557 C578 1.254 . S
O558 Eu515 2.563 . S
O558 C571 1.235 . S
O559 Eu515 2.419 . S
O559 C579 1.249 . S
C560 O549 1.276 . S
C560 O552 1.235 . S
C561 C563 1.393 . S
C561 C565 1.395 . S
C561 C568 1.492 . S
C562 C563 1.392 . S
C562 C564 1.386 . S
C563 C561 1.393 . S
C563 C562 1.392 . S
C563 H580 0.930 . S
C564 C562 1.386 . S
C564 C566 1.395 . S
C564 H581 0.930 . S
C565 C561 1.395 . S
C565 C566 1.379 . S
C565 H582 0.930 . S
C566 C564 1.395 . S
C566 C565 1.379 . S
C566 H583 0.930 . S
C567 O550 1.264 1_556 S
C567 O551 1.254 . S
C568 Eu504 2.848 . S
C568 O548 1.257 . S
C568 O553 1.249 . S
C568 C561 1.492 . S
C569 H534 0.931 . S
C569 C547 1.420 . S
C569 C570 1.351 . S
C570 H532 0.930 . S
C570 C538 1.423 . S
C570 C569 1.351 . S
C571 O555 1.276 . S
C571 O558 1.235 . S
C572 C573 1.393 . S
C572 C576 1.395 . S
C572 C579 1.492 . S
C573 C572 1.393 . S
C573 C574 1.392 . S
C573 H584 0.930 . S
C574 C573 1.392 . S
C574 C575 1.386 . S
C575 C574 1.386 . S
C575 C577 1.395 . S
C575 H585 0.930 . S
C576 C572 1.395 . S
C576 C577 1.379 . S
C576 H586 0.930 . S
C577 C575 1.395 . S
C577 C576 1.379 . S
C577 H587 0.930 . S
C578 O556 1.264 1_554 S
C578 O557 1.254 . S
C579 Eu515 2.848 . S
C579 O554 1.257 . S
C579 O559 1.249 . S
C579 C572 1.492 . S
H580 C563 0.930 . S
H581 C564 0.930 . S
H582 C565 0.930 . S
H583 C566 0.930 . S
H584 C573 0.930 . S
H585 C575 0.930 . S
H586 C576 0.930 . S
H587 C577 0.930 . S
Eu588 N619 2.654 1_655 S
Eu588 N626 2.609 1_655 S
Eu588 O632 2.560 . S
Eu588 O633 2.613 . S
Eu588 O635 2.336 1_655 S
Eu588 O636 2.566 . S
Eu588 O637 2.418 1_655 S
Eu588 O639 2.379 1_655 S
Eu588 O640 2.434 . S
Eu588 C652 2.848 . S
C589 C592 1.429 . S
C589 C593 1.411 . S
C589 N596 1.377 . S
C590 C592 1.420 . S
C590 C594 1.423 . S
C590 C602 1.392 . S
C591 C593 1.420 . S
C591 C594 1.351 . S
C591 H614 0.931 . S
C592 C589 1.429 . S
C592 C590 1.420 . S
C592 N600 1.362 . S
C593 C589 1.411 . S
C593 C591 1.420 . S
C593 C598 1.395 . S
C594 C590 1.423 . S
C594 C591 1.351 . S
C594 H606 0.930 . S
C595 C597 1.400 . S
C595 C598 1.386 1_455 S
C595 H607 0.930 . S
N596 C589 1.377 . S
N596 C597 1.321 1_655 S
N596 Eu599 2.609 1_655 S
C597 C595 1.400 . S
C597 N596 1.321 1_455 S
C597 H604 0.930 . S
C598 C593 1.395 . S
C598 C595 1.386 1_655 S
C598 H617 0.930 . S
Eu599 N596 2.609 1_455 S
Eu599 N600 2.647 1_455 S
Eu599 O633 2.376 1_455 S
Eu599 O634 2.440 . S
Eu599 O638 2.564 . S
Eu599 O639 2.616 . S
Eu599 O641 2.331 1_455 S
Eu599 O642 2.571 . S
Eu599 O643 2.417 1_455 S
Eu599 C663 2.849 . S
N600 C592 1.362 . S
N600 Eu599 2.647 1_655 S
N600 C601 1.334 . S
C601 N600 1.334 . S
C601 C603 1.413 . S
C601 H608 0.929 . S
C602 C590 1.392 . S
C602 C603 1.367 . S
C602 H610 0.930 . S
C603 C601 1.413 . S
C603 C602 1.367 . S
C603 H605 0.930 . S
H604 C597 0.930 . S
H605 C603 0.930 . S
H606 C594 0.930 . S
H607 C595 0.930 . S
H608 C601 0.929 . S
H609 C623 0.930 . S
H610 C602 0.930 . S
H611 C629 0.930 . S
H612 C620 0.929 . S
H613 C627 0.930 . S
H614 C591 0.931 . S
H615 C621 0.930 . S
H616 C654 0.930 . S
H617 C598 0.930 . S
H618 C653 0.931 . S
N619 Eu588 2.654 1_455 S
N619 C620 1.334 . S
N619 C624 1.362 . S
C620 H612 0.929 . S
C620 N619 1.334 . S
C620 C623 1.413 . S
C621 H615 0.930 . S
C621 C622 1.392 . S
C621 C623 1.367 . S
C622 C621 1.392 . S
C622 C624 1.420 . S
C622 C654 1.423 . S
C623 H609 0.930 . S
C623 C620 1.413 . S
C623 C621 1.367 . S
C624 N619 1.362 . S
C624 C622 1.420 . S
C624 C628 1.429 . S
H625 C630 0.931 . S
N626 Eu588 2.609 1_455 S
N626 C628 1.377 . S
N626 C629 1.321 1_455 S
C627 H613 0.930 . S
C627 C629 1.400 . S
C627 C630 1.386 1_655 S
C628 C624 1.429 . S
C628 N626 1.377 . S
C628 C631 1.411 . S
C629 H611 0.930 . S
C629 N626 1.321 1_655 S
C629 C627 1.400 . S
C630 H625 0.931 . S
C630 C627 1.386 1_455 S
C630 C631 1.395 . S
C631 C628 1.411 . S
C631 C630 1.395 . S
C631 C653 1.420 . S
O632 Eu588 2.560 . S
O632 C652 1.257 . S
O633 Eu588 2.613 . S
O633 Eu599 2.376 1_655 S
O633 C644 1.276 . S
O634 Eu599 2.440 . S
O634 C651 1.264 . S
O635 Eu588 2.336 1_455 S
O635 C651 1.254 . S
O636 Eu588 2.566 . S
O636 C644 1.235 . S
O637 Eu588 2.418 1_455 S
O637 C652 1.249 1_455 S
O638 Eu599 2.564 . S
O638 C663 1.257 . S
O639 Eu588 2.379 1_455 S
O639 Eu599 2.616 . S
O639 C655 1.276 . S
O640 Eu588 2.434 . S
O640 C662 1.264 . S
O641 Eu599 2.331 1_655 S
O641 C662 1.254 . S
O642 Eu599 2.571 . S
O642 C655 1.235 . S
O643 Eu599 2.417 1_655 S
O643 C663 1.249 1_655 S
C644 O633 1.276 . S
C644 O636 1.235 . S
C645 C647 1.393 . S
C645 C649 1.395 . S
C645 C652 1.492 . S
C646 C647 1.392 . S
C646 C648 1.386 . S
C647 C645 1.393 . S
C647 C646 1.392 . S
C647 H664 0.930 1_655 S
C648 C646 1.386 . S
C648 C650 1.395 . S
C648 H665 0.930 . S
C649 C645 1.395 . S
C649 C650 1.379 . S
C649 H666 0.930 . S
C650 C648 1.395 . S
C650 C649 1.379 . S
C650 H667 0.930 . S
C651 O634 1.264 . S
C651 O635 1.254 . S
C652 Eu588 2.848 . S
C652 O632 1.257 . S
C652 O637 1.249 1_655 S
C652 C645 1.492 . S
C653 H618 0.931 . S
C653 C631 1.420 . S
C653 C654 1.351 . S
C654 H616 0.930 . S
C654 C622 1.423 . S
C654 C653 1.351 . S
C655 O639 1.276 . S
C655 O642 1.235 . S
C656 C657 1.393 . S
C656 C660 1.395 . S
C656 C663 1.492 . S
C657 C656 1.393 . S
C657 C658 1.392 . S
C657 H668 0.930 1_455 S
C658 C657 1.392 . S
C658 C659 1.386 . S
C659 C658 1.386 . S
C659 C661 1.395 . S
C659 H669 0.930 . S
C660 C656 1.395 . S
C660 C661 1.379 . S
C660 H670 0.930 . S
C661 C659 1.395 . S
C661 C660 1.379 . S
C661 H671 0.930 . S
C662 O640 1.264 . S
C662 O641 1.254 . S
C663 Eu599 2.849 . S
C663 O638 1.257 . S
C663 O643 1.249 1_455 S
C663 C656 1.492 . S
H664 C647 0.930 1_455 S
H665 C648 0.930 . S
H666 C649 0.930 . S
H667 C650 0.930 . S
H668 C657 0.930 1_655 S
H669 C659 0.930 . S
H670 C660 0.930 . S
H671 C661 0.930 . S
H672 C678 0.930 . S
H673 C682 0.930 . S
H674 C687 0.929 . S
H675 C685 0.929 . S
H676 C680 0.929 . S
H677 C686 0.929 . S
C678 H672 0.930 . S
C678 C679 1.367 . S
C678 C686 1.378 . S
C679 C678 1.367 . S
C679 C687 1.433 . S
C680 H676 0.929 . S
C680 C682 1.378 . S
C680 C684 1.350 . S
C681 C684 1.463 . S
C681 C686 1.350 . S
C681 N689 1.427 . S
C682 H673 0.930 . S
C682 C680 1.378 . S
C682 C683 1.367 . S
C683 C682 1.367 . S
C683 C685 1.433 . S
C684 C680 1.350 . S
C684 C681 1.463 . S
C684 N688 1.427 . S
C685 H675 0.929 . S
C685 C683 1.433 . S
C685 N688 1.384 . S
C686 H677 0.929 . S
C686 C678 1.378 . S
C686 C681 1.350 . S
C687 H674 0.929 . S
C687 C679 1.433 . S
C687 N689 1.384 . S
N688 C684 1.427 . S
N688 C685 1.384 . S
N689 C681 1.427 . S
N689 C687 1.384 . S
H690 C696 0.930 . S
H691 C700 0.930 . S
H692 C705 0.929 . S
H693 C703 0.929 . S
H694 C698 0.929 . S
H695 C704 0.929 . S
C696 H690 0.930 . S
C696 C697 1.367 . S
C696 C704 1.378 . S
C697 C696 1.367 . S
C697 C705 1.433 . S
C698 H694 0.929 . S
C698 C700 1.378 . S
C698 C702 1.350 . S
C699 C702 1.463 . S
C699 C704 1.350 . S
C699 N707 1.427 . S
C700 H691 0.930 . S
C700 C698 1.378 . S
C700 C701 1.367 . S
C701 C700 1.367 . S
C701 C703 1.433 . S
C702 C698 1.350 . S
C702 C699 1.463 . S
C702 N706 1.427 . S
C703 H693 0.929 . S
C703 C701 1.433 . S
C703 N706 1.384 . S
C704 H695 0.929 . S
C704 C696 1.378 . S
C704 C699 1.350 . S
C705 H692 0.929 . S
C705 C697 1.433 . S
C705 N707 1.384 . S
N706 C702 1.427 . S
N706 C703 1.384 . S
N707 C699 1.427 . S
N707 C705 1.384 . S
H708 C714 0.930 . S
H709 C718 0.930 . S
H710 C723 0.929 . S
H711 C721 0.929 . S
H712 C716 0.929 . S
H713 C722 0.929 . S
C714 H708 0.930 . S
C714 C715 1.367 . S
C714 C722 1.378 . S
C715 C714 1.367 . S
C715 C723 1.433 . S
C716 H712 0.929 . S
C716 C718 1.378 . S
C716 C720 1.350 . S
C717 C720 1.463 . S
C717 C722 1.350 . S
C717 N725 1.427 . S
C718 H709 0.930 . S
C718 C716 1.378 . S
C718 C719 1.367 . S
C719 C718 1.367 . S
C719 C721 1.433 . S
C720 C716 1.350 . S
C720 C717 1.463 . S
C720 N724 1.427 . S
C721 H711 0.929 . S
C721 C719 1.433 . S
C721 N724 1.384 . S
C722 H713 0.929 . S
C722 C714 1.378 . S
C722 C717 1.350 . S
C723 H710 0.929 . S
C723 C715 1.433 . S
C723 N725 1.384 . S
N724 C720 1.427 . S
N724 C721 1.384 . S
N725 C717 1.427 . S
N725 C723 1.384 . S
H726 C732 0.930 . S
H727 C736 0.930 . S
H728 C741 0.929 . S
H729 C739 0.929 . S
H730 C734 0.929 . S
H731 C740 0.929 . S
C732 H726 0.930 . S
C732 C733 1.367 . S
C732 C740 1.378 . S
C733 C732 1.367 . S
C733 C741 1.433 . S
C734 H730 0.929 . S
C734 C736 1.378 . S
C734 C738 1.350 . S
C735 C738 1.463 . S
C735 C740 1.350 . S
C735 N743 1.427 . S
C736 H727 0.930 . S
C736 C734 1.378 . S
C736 C737 1.367 . S
C737 C736 1.367 . S
C737 C739 1.433 . S
C738 C734 1.350 . S
C738 C735 1.463 . S
C738 N742 1.427 . S
C739 H729 0.929 . S
C739 C737 1.433 . S
C739 N742 1.384 . S
C740 H731 0.929 . S
C740 C732 1.378 . S
C740 C735 1.350 . S
C741 H728 0.929 . S
C741 C733 1.433 . S
C741 N743 1.384 . S
N742 C738 1.427 . S
N742 C739 1.384 . S
N743 C735 1.427 . S
N743 C741 1.384 . S
H744 C750 0.930 . S
H745 C754 0.930 . S
H746 C759 0.929 . S
H747 C757 0.929 . S
H748 C752 0.929 . S
H749 C758 0.929 . S
C750 H744 0.930 . S
C750 C751 1.367 . S
C750 C758 1.378 . S
C751 C750 1.367 . S
C751 C759 1.433 . S
C752 H748 0.929 . S
C752 C754 1.378 . S
C752 C756 1.350 . S
C753 C756 1.463 . S
C753 C758 1.350 . S
C753 N761 1.427 . S
C754 H745 0.930 . S
C754 C752 1.378 . S
C754 C755 1.367 . S
C755 C754 1.367 . S
C755 C757 1.433 . S
C756 C752 1.350 . S
C756 C753 1.463 . S
C756 N760 1.427 . S
C757 H747 0.929 . S
C757 C755 1.433 . S
C757 N760 1.384 . S
C758 H749 0.929 . S
C758 C750 1.378 . S
C758 C753 1.350 . S
C759 H746 0.929 . S
C759 C751 1.433 . S
C759 N761 1.384 . S
N760 C756 1.427 . S
N760 C757 1.384 . S
N761 C753 1.427 . S
N761 C759 1.384 . S
H762 C768 0.930 . S
H763 C772 0.930 . S
H764 C777 0.929 . S
H765 C775 0.929 . S
H766 C770 0.929 . S
H767 C776 0.929 . S
C768 H762 0.930 . S
C768 C769 1.367 . S
C768 C776 1.378 . S
C769 C768 1.367 . S
C769 C777 1.433 . S
C770 H766 0.929 . S
C770 C772 1.378 . S
C770 C774 1.350 . S
C771 C774 1.463 . S
C771 C776 1.350 . S
C771 N779 1.427 . S
C772 H763 0.930 . S
C772 C770 1.378 . S
C772 C773 1.367 . S
C773 C772 1.367 . S
C773 C775 1.433 . S
C774 C770 1.350 . S
C774 C771 1.463 . S
C774 N778 1.427 . S
C775 H765 0.929 . S
C775 C773 1.433 . S
C775 N778 1.384 . S
C776 H767 0.929 . S
C776 C768 1.378 . S
C776 C771 1.350 . S
C777 H764 0.929 . S
C777 C769 1.433 . S
C777 N779 1.384 . S
N778 C774 1.427 . S
N778 C775 1.384 . S
N779 C771 1.427 . S
N779 C777 1.384 . S
H780 C786 0.930 . S
H781 C790 0.930 . S
H782 C795 0.929 . S
H783 C793 0.929 . S
H784 C788 0.929 . S
H785 C794 0.929 . S
C786 H780 0.930 . S
C786 C787 1.367 . S
C786 C794 1.378 . S
C787 C786 1.367 . S
C787 C795 1.433 . S
C788 H784 0.929 . S
C788 C790 1.378 . S
C788 C792 1.350 . S
C789 C792 1.463 . S
C789 C794 1.350 . S
C789 N797 1.427 . S
C790 H781 0.930 . S
C790 C788 1.378 . S
C790 C791 1.367 . S
C791 C790 1.367 . S
C791 C793 1.433 . S
C792 C788 1.350 . S
C792 C789 1.463 . S
C792 N796 1.427 . S
C793 H783 0.929 . S
C793 C791 1.433 . S
C793 N796 1.384 . S
C794 H785 0.929 . S
C794 C786 1.378 . S
C794 C789 1.350 . S
C795 H782 0.929 . S
C795 C787 1.433 . S
C795 N797 1.384 . S
N796 C792 1.427 . S
N796 C793 1.384 . S
N797 C789 1.427 . S
N797 C795 1.384 . S
H798 C804 0.930 . S
H799 C808 0.930 . S
H800 C813 0.929 . S
H801 C811 0.929 . S
H802 C806 0.929 . S
H803 C812 0.929 . S
C804 H798 0.930 . S
C804 C805 1.367 . S
C804 C812 1.378 . S
C805 C804 1.367 . S
C805 C813 1.433 . S
C806 H802 0.929 . S
C806 C808 1.378 . S
C806 C810 1.350 . S
C807 C810 1.463 . S
C807 C812 1.350 . S
C807 N815 1.427 . S
C808 H799 0.930 . S
C808 C806 1.378 . S
C808 C809 1.367 . S
C809 C808 1.367 . S
C809 C811 1.433 . S
C810 C806 1.350 . S
C810 C807 1.463 . S
C810 N814 1.427 . S
C811 H801 0.929 . S
C811 C809 1.433 . S
C811 N814 1.384 . S
C812 H803 0.929 . S
C812 C804 1.378 . S
C812 C807 1.350 . S
C813 H800 0.929 . S
C813 C805 1.433 . S
C813 N815 1.384 . S
N814 C810 1.427 . S
N814 C811 1.384 . S
N815 C807 1.427 . S
N815 C813 1.384 . S
H816 C822 0.930 . S
H817 C826 0.930 . S
H818 C831 0.929 . S
H819 C829 0.929 . S
H820 C824 0.929 . S
H821 C830 0.929 . S
C822 H816 0.930 . S
C822 C823 1.367 . S
C822 C830 1.378 . S
C823 C822 1.367 . S
C823 C831 1.433 . S
C824 H820 0.929 . S
C824 C826 1.378 . S
C824 C828 1.350 . S
C825 C828 1.463 . S
C825 C830 1.350 . S
C825 N833 1.427 . S
C826 H817 0.930 . S
C826 C824 1.378 . S
C826 C827 1.367 . S
C827 C826 1.367 . S
C827 C829 1.433 . S
C828 C824 1.350 . S
C828 C825 1.463 . S
C828 N832 1.427 . S
C829 H819 0.929 . S
C829 C827 1.433 . S
C829 N832 1.384 . S
C830 H821 0.929 . S
C830 C822 1.378 . S
C830 C825 1.350 . S
C831 H818 0.929 . S
C831 C823 1.433 . S
C831 N833 1.384 . S
N832 C828 1.427 . S
N832 C829 1.384 . S
N833 C825 1.427 . S
N833 C831 1.384 . S
H834 C840 0.930 . S
H835 C844 0.930 . S
H836 C849 0.929 . S
H837 C847 0.929 . S
H838 C842 0.929 . S
H839 C848 0.929 . S
C840 H834 0.930 . S
C840 C841 1.367 . S
C840 C848 1.378 . S
C841 C840 1.367 . S
C841 C849 1.433 . S
C842 H838 0.929 . S
C842 C844 1.378 . S
C842 C846 1.350 . S
C843 C846 1.463 . S
C843 C848 1.350 . S
C843 N851 1.427 . S
C844 H835 0.930 . S
C844 C842 1.378 . S
C844 C845 1.367 . S
C845 C844 1.367 . S
C845 C847 1.433 . S
C846 C842 1.350 . S
C846 C843 1.463 . S
C846 N850 1.427 . S
C847 H837 0.929 . S
C847 C845 1.433 . S
C847 N850 1.384 . S
C848 H839 0.929 . S
C848 C840 1.378 . S
C848 C843 1.350 . S
C849 H836 0.929 . S
C849 C841 1.433 . S
C849 N851 1.384 . S
N850 C846 1.427 . S
N850 C847 1.384 . S
N851 C843 1.427 . S
N851 C849 1.384 . S
H852 C858 0.930 . S
H853 C862 0.930 . S
H854 C867 0.929 . S
H855 C865 0.929 . S
H856 C860 0.929 . S
H857 C866 0.929 . S
C858 H852 0.930 . S
C858 C859 1.367 . S
C858 C866 1.378 . S
C859 C858 1.367 . S
C859 C867 1.433 . S
C860 H856 0.929 . S
C860 C862 1.378 . S
C860 C864 1.350 . S
C861 C864 1.463 . S
C861 C866 1.350 . S
C861 N869 1.427 . S
C862 H853 0.930 . S
C862 C860 1.378 . S
C862 C863 1.367 . S
C863 C862 1.367 . S
C863 C865 1.433 . S
C864 C860 1.350 . S
C864 C861 1.463 . S
C864 N868 1.427 . S
C865 H855 0.929 . S
C865 C863 1.433 . S
C865 N868 1.384 . S
C866 H857 0.929 . S
C866 C858 1.378 . S
C866 C861 1.350 . S
C867 H854 0.929 . S
C867 C859 1.433 . S
C867 N869 1.384 . S
N868 C864 1.427 . S
N868 C865 1.384 . S
N869 C861 1.427 . S
N869 C867 1.384 . S
H870 C876 0.930 . S
H871 C880 0.930 . S
H872 C885 0.929 . S
H873 C883 0.929 . S
H874 C878 0.929 . S
H875 C884 0.929 . S
C876 H870 0.930 . S
C876 C877 1.367 . S
C876 C884 1.378 . S
C877 C876 1.367 . S
C877 C885 1.433 . S
C878 H874 0.929 . S
C878 C880 1.378 . S
C878 C882 1.350 . S
C879 C882 1.463 . S
C879 C884 1.350 . S
C879 N887 1.427 . S
C880 H871 0.930 . S
C880 C878 1.378 . S
C880 C881 1.367 . S
C881 C880 1.367 . S
C881 C883 1.433 . S
C882 C878 1.350 . S
C882 C879 1.463 . S
C882 N886 1.427 . S
C883 H873 0.929 . S
C883 C881 1.433 . S
C883 N886 1.384 . S
C884 H875 0.929 . S
C884 C876 1.378 . S
C884 C879 1.350 . S
C885 H872 0.929 . S
C885 C877 1.433 . S
C885 N887 1.384 . S
N886 C882 1.427 . S
N886 C883 1.384 . S
N887 C879 1.427 . S
N887 C885 1.384 . S
H888 C894 0.930 . S
H889 C898 0.930 . S
H890 C903 0.929 . S
H891 C901 0.929 . S
H892 C896 0.929 . S
H893 C902 0.929 . S
C894 H888 0.930 . S
C894 C895 1.367 . S
C894 C902 1.378 . S
C895 C894 1.367 . S
C895 C903 1.433 . S
C896 H892 0.929 . S
C896 C898 1.378 . S
C896 C900 1.350 . S
C897 C900 1.463 . S
C897 C902 1.350 . S
C897 N905 1.427 . S
C898 H889 0.930 . S
C898 C896 1.378 . S
C898 C899 1.367 . S
C899 C898 1.367 . S
C899 C901 1.433 . S
C900 C896 1.350 . S
C900 C897 1.463 . S
C900 N904 1.427 . S
C901 H891 0.929 . S
C901 C899 1.433 . S
C901 N904 1.384 . S
C902 H893 0.929 . S
C902 C894 1.378 . S
C902 C897 1.350 . S
C903 H890 0.929 . S
C903 C895 1.433 . S
C903 N905 1.384 . S
N904 C900 1.427 . S
N904 C901 1.384 . S
N905 C897 1.427 . S
N905 C903 1.384 . S
H906 C912 0.930 . S
H907 C916 0.930 . S
H908 C921 0.929 . S
H909 C919 0.929 . S
H910 C914 0.929 . S
H911 C920 0.929 . S
C912 H906 0.930 . S
C912 C913 1.367 . S
C912 C920 1.378 . S
C913 C912 1.367 . S
C913 C921 1.433 . S
C914 H910 0.929 . S
C914 C916 1.378 . S
C914 C918 1.350 . S
C915 C918 1.463 . S
C915 C920 1.350 . S
C915 N923 1.427 . S
C916 H907 0.930 . S
C916 C914 1.378 . S
C916 C917 1.367 . S
C917 C916 1.367 . S
C917 C919 1.433 . S
C918 C914 1.350 . S
C918 C915 1.463 . S
C918 N922 1.427 . S
C919 H909 0.929 . S
C919 C917 1.433 . S
C919 N922 1.384 . S
C920 H911 0.929 . S
C920 C912 1.378 . S
C920 C915 1.350 . S
C921 H908 0.929 . S
C921 C913 1.433 . S
C921 N923 1.384 . S
N922 C918 1.427 . S
N922 C919 1.384 . S
N923 C915 1.427 . S
N923 C921 1.384 . S
H924 C930 0.930 . S
H925 C934 0.930 . S
H926 C939 0.929 . S
H927 C937 0.929 . S
H928 C932 0.929 . S
H929 C938 0.929 . S
C930 H924 0.930 . S
C930 C931 1.367 . S
C930 C938 1.378 . S
C931 C930 1.367 . S
C931 C939 1.433 . S
C932 H928 0.929 . S
C932 C934 1.378 . S
C932 C936 1.350 . S
C933 C936 1.463 . S
C933 C938 1.350 . S
C933 N941 1.427 . S
C934 H925 0.930 . S
C934 C932 1.378 . S
C934 C935 1.367 . S
C935 C934 1.367 . S
C935 C937 1.433 . S
C936 C932 1.350 . S
C936 C933 1.463 . S
C936 N940 1.427 . S
C937 H927 0.929 . S
C937 C935 1.433 . S
C937 N940 1.384 . S
C938 H929 0.929 . S
C938 C930 1.378 . S
C938 C933 1.350 . S
C939 H926 0.929 . S
C939 C931 1.433 . S
C939 N941 1.384 . S
N940 C936 1.427 . S
N940 C937 1.384 . S
N941 C933 1.427 . S
N941 C939 1.384 . S
H942 C948 0.930 . S
H943 C952 0.930 . S
H944 C957 0.929 . S
H945 C955 0.929 . S
H946 C950 0.929 . S
H947 C956 0.929 . S
C948 H942 0.930 . S
C948 C949 1.367 . S
C948 C956 1.378 . S
C949 C948 1.367 . S
C949 C957 1.433 . S
C950 H946 0.929 . S
C950 C952 1.378 . S
C950 C954 1.350 . S
C951 C954 1.463 . S
C951 C956 1.350 . S
C951 N959 1.427 . S
C952 H943 0.930 . S
C952 C950 1.378 . S
C952 C953 1.367 . S
C953 C952 1.367 . S
C953 C955 1.433 . S
C954 C950 1.350 . S
C954 C951 1.463 . S
C954 N958 1.427 . S
C955 H945 0.929 . S
C955 C953 1.433 . S
C955 N958 1.384 . S
C956 H947 0.929 . S
C956 C948 1.378 . S
C956 C951 1.350 . S
C957 H944 0.929 . S
C957 C949 1.433 . S
C957 N959 1.384 . S
N958 C954 1.427 . S
N958 C955 1.384 . S
N959 C951 1.427 . S
N959 C957 1.384 . S
H960 C966 0.930 . S
H961 C970 0.930 . S
H962 C975 0.929 . S
H963 C973 0.929 . S
H964 C968 0.929 . S
H965 C974 0.929 . S
C966 H960 0.930 . S
C966 C967 1.367 1_545 S
C966 C974 1.378 . S
C967 C966 1.367 1_565 S
C967 C975 1.433 1_655 S
C968 H964 0.929 . S
C968 C970 1.378 . S
C968 C972 1.364 . S
C969 C972 1.461 1_646 S
C969 C974 1.370 . S
C969 N977 1.407 1_645 S
C970 H961 0.930 . S
C970 C968 1.378 . S
C970 C971 1.367 1_565 S
C971 C970 1.367 1_545 S
C971 C973 1.433 1_455 S
C972 C968 1.364 . S
C972 C969 1.461 1_464 S
C972 N976 1.413 1_465 S
C973 H963 0.929 . S
C973 C971 1.433 1_655 S
C973 N976 1.384 . S
C974 H965 0.929 . S
C974 C966 1.378 . S
C974 C969 1.370 . S
C975 H962 0.929 . S
C975 C967 1.433 1_455 S
C975 N977 1.384 . S
N976 C972 1.413 1_645 S
N976 C973 1.384 . S
N977 C969 1.407 1_465 S
N977 C975 1.384 . S
H978 C984 0.930 . S
H979 C988 0.930 . S
H980 C993 0.929 . S
H981 C991 0.929 . S
H982 C986 0.929 . S
H983 C992 0.929 . S
C984 H978 0.930 . S
C984 C985 1.367 . S
C984 C992 1.378 . S
C985 C984 1.367 . S
C985 C993 1.433 . S
C986 H982 0.929 . S
C986 C988 1.378 . S
C986 C990 1.350 . S
C987 C990 1.463 . S
C987 C992 1.350 . S
C987 N995 1.427 . S
C988 H979 0.930 . S
C988 C986 1.378 . S
C988 C989 1.367 . S
C989 C988 1.367 . S
C989 C991 1.433 . S
C990 C986 1.350 . S
C990 C987 1.463 . S
C990 N994 1.427 . S
C991 H981 0.929 . S
C991 C989 1.433 . S
C991 N994 1.384 . S
C992 H983 0.929 . S
C992 C984 1.378 . S
C992 C987 1.350 . S
C993 H980 0.929 . S
C993 C985 1.433 . S
C993 N995 1.384 . S
N994 C990 1.427 . S
N994 C991 1.384 . S
N995 C987 1.427 . S
N995 C993 1.384 . S
H996 C1002 0.930 . S
H997 C1006 0.930 . S
H998 C1011 0.929 . S
H999 C1009 0.929 . S
H1000 C1004 0.929 . S
H1001 C1010 0.929 . S
C1002 H996 0.930 . S
C1002 C1003 1.367 . S
C1002 C1010 1.378 . S
C1003 C1002 1.367 . S
C1003 C1011 1.433 1_565 S
C1004 H1000 0.929 . S
C1004 C1006 1.378 . S
C1004 C1008 1.350 . S
C1005 C1008 1.463 1_565 S
C1005 C1010 1.350 . S
C1005 N1013 1.427 1_565 S
C1006 H997 0.930 . S
C1006 C1004 1.378 . S
C1006 C1007 1.367 . S
C1007 C1006 1.367 . S
C1007 C1009 1.433 1_545 S
C1008 C1004 1.350 . S
C1008 C1005 1.463 1_545 S
C1008 N1012 1.427 1_545 S
C1009 H999 0.929 . S
C1009 C1007 1.433 1_565 S
C1009 N1012 1.384 . S
C1010 H1001 0.929 . S
C1010 C1002 1.378 . S
C1010 C1005 1.350 . S
C1011 H998 0.929 . S
C1011 C1003 1.433 1_545 S
C1011 N1013 1.384 . S
N1012 C1008 1.427 1_565 S
N1012 C1009 1.384 . S
N1013 C1005 1.427 1_545 S
N1013 C1011 1.384 . S
H1014 C1020 0.930 . S
H1015 C1024 0.930 . S
H1016 C1029 0.929 . S
H1017 C1027 0.929 . S
H1018 C1022 0.929 . S
H1019 C1028 0.929 . S
C1020 H1014 0.930 . S
C1020 C1021 1.367 . S
C1020 C1028 1.378 . S
C1021 C1020 1.367 . S
C1021 C1029 1.433 . S
C1022 H1018 0.929 . S
C1022 C1024 1.378 . S
C1022 C1026 1.350 . S
C1023 C1026 1.463 . S
C1023 C1028 1.350 . S
C1023 N1031 1.427 . S
C1024 H1015 0.930 . S
C1024 C1022 1.378 . S
C1024 C1025 1.367 . S
C1025 C1024 1.367 . S
C1025 C1027 1.433 . S
C1026 C1022 1.350 . S
C1026 C1023 1.463 . S
C1026 N1030 1.427 . S
C1027 H1017 0.929 . S
C1027 C1025 1.433 . S
C1027 N1030 1.384 . S
C1028 H1019 0.929 . S
C1028 C1020 1.378 . S
C1028 C1023 1.350 . S
C1029 H1016 0.929 . S
C1029 C1021 1.433 . S
C1029 N1031 1.384 . S
N1030 C1026 1.427 . S
N1030 C1027 1.384 . S
N1031 C1023 1.427 . S
N1031 C1029 1.384 . S
H1032 C1038 0.930 . S
H1033 C1042 0.930 . S
H1034 C1047 0.929 . S
H1035 C1045 0.929 . S
H1036 C1040 0.929 . S
H1037 C1046 0.929 . S
C1038 H1032 0.930 . S
C1038 C1039 1.367 . S
C1038 C1046 1.378 . S
C1039 C1038 1.367 . S
C1039 C1047 1.433 . S
C1040 H1036 0.929 . S
C1040 C1042 1.378 . S
C1040 C1044 1.350 . S
C1041 C1044 1.463 . S
C1041 C1046 1.350 . S
C1041 N1049 1.427 . S
C1042 H1033 0.930 . S
C1042 C1040 1.378 . S
C1042 C1043 1.367 . S
C1043 C1042 1.367 . S
C1043 C1045 1.433 . S
C1044 C1040 1.350 . S
C1044 C1041 1.463 . S
C1044 N1048 1.427 . S
C1045 H1035 0.929 . S
C1045 C1043 1.433 . S
C1045 N1048 1.384 . S
C1046 H1037 0.929 . S
C1046 C1038 1.378 . S
C1046 C1041 1.350 . S
C1047 H1034 0.929 . S
C1047 C1039 1.433 . S
C1047 N1049 1.384 . S
N1048 C1044 1.427 . S
N1048 C1045 1.384 . S
N1049 C1041 1.427 . S
N1049 C1047 1.384 . S
H1050 C1056 0.930 . S
H1051 C1060 0.930 . S
H1052 C1065 0.929 . S
H1053 C1063 0.929 . S
H1054 C1058 0.929 . S
H1055 C1064 0.929 . S
C1056 H1050 0.930 . S
C1056 C1057 1.367 . S
C1056 C1064 1.378 . S
C1057 C1056 1.367 . S
C1057 C1065 1.433 . S
C1058 H1054 0.929 . S
C1058 C1060 1.378 . S
C1058 C1062 1.350 . S
C1059 C1062 1.463 . S
C1059 C1064 1.350 . S
C1059 N1067 1.427 . S
C1060 H1051 0.930 . S
C1060 C1058 1.378 . S
C1060 C1061 1.367 . S
C1061 C1060 1.367 . S
C1061 C1063 1.433 . S
C1062 C1058 1.350 . S
C1062 C1059 1.463 . S
C1062 N1066 1.427 . S
C1063 H1053 0.929 . S
C1063 C1061 1.433 . S
C1063 N1066 1.384 . S
C1064 H1055 0.929 . S
C1064 C1056 1.378 . S
C1064 C1059 1.350 . S
C1065 H1052 0.929 . S
C1065 C1057 1.433 . S
C1065 N1067 1.384 . S
N1066 C1062 1.427 . S
N1066 C1063 1.384 . S
N1067 C1059 1.427 . S
N1067 C1065 1.384 . S
H1068 C1074 0.930 . S
H1069 C1078 0.930 . S
H1070 C1083 0.929 . S
H1071 C1081 0.929 . S
H1072 C1076 0.929 . S
H1073 C1082 0.929 . S
C1074 H1068 0.930 . S
C1074 C1075 1.367 . S
C1074 C1082 1.378 . S
C1075 C1074 1.367 . S
C1075 C1083 1.433 . S
C1076 H1072 0.929 . S
C1076 C1078 1.378 . S
C1076 C1080 1.350 . S
C1077 C1080 1.463 . S
C1077 C1082 1.350 . S
C1077 N1085 1.427 . S
C1078 H1069 0.930 . S
C1078 C1076 1.378 . S
C1078 C1079 1.367 . S
C1079 C1078 1.367 . S
C1079 C1081 1.433 . S
C1080 C1076 1.350 . S
C1080 C1077 1.463 . S
C1080 N1084 1.427 . S
C1081 H1071 0.929 . S
C1081 C1079 1.433 . S
C1081 N1084 1.384 . S
C1082 H1073 0.929 . S
C1082 C1074 1.378 . S
C1082 C1077 1.350 . S
C1083 H1070 0.929 . S
C1083 C1075 1.433 . S
C1083 N1085 1.384 . S
N1084 C1080 1.427 . S
N1084 C1081 1.384 . S
N1085 C1077 1.427 . S
N1085 C1083 1.384 . S
H1086 C1092 0.930 . S
H1087 C1096 0.930 . S
H1088 C1101 0.929 . S
H1089 C1099 0.929 . S
H1090 C1094 0.929 . S
H1091 C1100 0.929 . S
C1092 H1086 0.930 . S
C1092 C1093 1.367 1_455 S
C1092 C1100 1.378 . S
C1093 C1092 1.367 1_655 S
C1093 C1101 1.433 . S
C1094 H1090 0.929 . S
C1094 C1096 1.378 . S
C1094 C1098 1.347 1_655 S
C1095 C1098 1.463 1_656 S
C1095 C1100 1.351 1_655 S
C1095 N1103 1.426 . S
C1096 H1087 0.930 . S
C1096 C1094 1.378 . S
C1096 C1097 1.367 1_655 S
C1097 C1096 1.367 1_455 S
C1097 C1099 1.433 . S
C1098 C1094 1.347 1_455 S
C1098 C1095 1.463 1_454 S
C1098 N1102 1.430 . S
C1099 H1089 0.929 . S
C1099 C1097 1.433 . S
C1099 N1102 1.384 . S
C1100 H1091 0.929 . S
C1100 C1092 1.378 . S
C1100 C1095 1.351 1_455 S
C1101 H1088 0.929 . S
C1101 C1093 1.433 . S
C1101 N1103 1.384 . S
N1102 C1098 1.430 . S
N1102 C1099 1.384 . S
N1103 C1095 1.426 . S
N1103 C1101 1.384 . S
C679 C56 1.589 . S
C683 C308 1.590 . S
C697 C74 1.475 . S
C701 C140 1.442 . S
C715 C158 1.330 . S
C719 C242 1.325 . S
C733 C224 1.456 . S
C737 C326 1.464 . S
C751 C67 1.592 . S
C755 C487 1.606 . S
C769 C63 1.465 . S
C773 C403 1.457 . S
C787 C399 1.327 . S
C791 C231 1.313 . S
C805 C483 1.465 . S
C809 C235 1.459 . S
C823 C560 1.590 . S
C827 C476 1.599 . S
C841 C392 1.446 . S
C845 C578 1.472 . S
C859 C662 1.326 . S
C863 C410 1.331 . S
C877 C494 1.472 . S
C881 C644 1.448 . S
C895 C319 1.590 . S
C899 C571 1.591 . S
C913 C567 1.466 . S
C917 C151 1.455 . S
C931 C147 1.325 . S
C935 C651 1.315 . S
C949 C315 1.467 . S
C953 C655 1.454 . S
C967 C70 1.405 1_565 S
C971 C58 1.405 1_545 S
C985 C142 1.397 . S
C989 C154 1.397 . S
C1003 C238 1.422 1_565 S
C1007 C226 1.422 1_545 S
C1021 C322 1.407 . S
C1025 C310 1.407 . S
C1039 C394 1.410 . S
C1043 C406 1.410 . S
C1057 C490 1.420 . S
C1061 C478 1.420 . S
C1075 C562 1.412 . S
C1079 C574 1.412 . S
C1093 C646 1.403 . S
C1097 C658 1.403 . S
