# Generated by pormake.
# Topology qtz-x, (6)-cn, num edge types: 1
# Building blocks:
#     Node 0, Type 0, BuildingBlock: BETGAK_clean_sbu_0, # of connection points: 6
#     Node 1, Type 0, BuildingBlock: BETGAK_clean_sbu_0, # of connection points: 6
#     Node 2, Type 0, BuildingBlock: BETGAK_clean_sbu_0, # of connection points: 6
#     Edge 3, Type (0, 0), BuildingBlock: MIFKUJ_clean_linker_0, # of connection points: 2
#     Edge 4, Type (0, 0), BuildingBlock: MIFKUJ_clean_linker_0, # of connection points: 2
#     Edge 5, Type (0, 0), BuildingBlock: MIFKUJ_clean_linker_0, # of connection points: 2
#     Edge 6, Type (0, 0), BuildingBlock: MIFKUJ_clean_linker_0, # of connection points: 2
#     Edge 7, Type (0, 0), BuildingBlock: MIFKUJ_clean_linker_0, # of connection points: 2
#     Edge 8, Type (0, 0), BuildingBlock: MIFKUJ_clean_linker_0, # of connection points: 2
#     Edge 9, Type (0, 0), BuildingBlock: MIFKUJ_clean_linker_0, # of connection points: 2
#     Edge 10, Type (0, 0), BuildingBlock: MIFKUJ_clean_linker_0, # of connection points: 2
#     Edge 11, Type (0, 0), BuildingBlock: MIFKUJ_clean_linker_0, # of connection points: 2
# Relax obj value: 0.182
# Max RMSD: 0.239
# Mean RMSD: 0.221
data_MOF--net-qtz-x--node1-BETGAK_clean_sbu_0--edge1-MIFKUJ_clean_linker_0
_symmetry_space_group_name_H-M    P1
_symmetry_Int_Tables_number       1
_symmetry_cell_setting            triclinic
loop_
_symmetry_equiv_pos_as_xyz
'x, y, z'
_cell_length_a     19.076152
_cell_length_b     19.113717
_cell_length_c     65.684363
_cell_angle_alpha  73.151879
_cell_angle_beta   109.71805
_cell_angle_gamma 121.01619
loop_
_atom_site_label
_atom_site_type_symbol
_atom_site_fract_x
_atom_site_fract_y
_atom_site_fract_z
_atom_type_partial_charge
La0 La 1.00118 0.59264 0.19419 0.0
La1 La 0.16955 0.70015 0.18694 0.0
C2 C 0.8821 0.47845 0.21129 0.0
C3 C 0.87147 0.45215 0.23407 0.0
C4 C 0.90314 0.51015 0.24817 0.0
C5 C 0.8943 0.48427 0.26982 0.0
C6 C 0.85405 0.3997 0.27798 0.0
C7 C 0.82329 0.34194 0.26381 0.0
C8 C 0.83181 0.36793 0.24213 0.0
C9 C 0.0384 0.75057 0.18498 0.0
C10 C 0.15864 0.66283 0.23443 0.0
C11 C 0.29262 0.80525 0.1704 0.0
C12 C 0.31359 0.80731 0.15034 0.0
C13 C 0.3524 0.76112 0.15067 0.0
C14 C 0.36407 0.75593 0.13137 0.0
C15 C 0.33773 0.79713 0.11123 0.0
C16 C 0.30095 0.84512 0.11096 0.0
C17 C 0.28929 0.85038 0.1303 0.0
C18 C 0.12902 0.5408 0.19539 0.0
C19 C 1.01376 0.63927 0.14587 0.0
O20 O 0.88578 0.55018 0.20177 0.0
O21 O 0.9388 0.46783 0.20751 0.0
O22 O 0.96518 0.69047 0.17853 0.0
O23 O 0.08723 0.72106 0.19706 0.0
O24 O 0.08336 0.60257 0.22752 0.0
O25 O 0.20145 0.72044 0.22028 0.0
O26 O 0.29568 0.74678 0.1865 0.0
O27 O 0.22596 0.81389 0.16747 0.0
O28 O 0.20222 0.59951 0.20229 0.0
O29 O 0.08239 0.57262 0.18343 0.0
O30 O 0.09197 0.69237 0.15363 0.0
O31 O 0.96444 0.58458 0.15919 0.0
H32 H 0.93499 0.57563 0.24248 0.0
H33 H 0.91817 0.53078 0.28006 0.0
H34 H 0.79348 0.27636 0.26952 0.0
H35 H 0.80788 0.32206 0.23167 0.0
H36 H 0.37201 0.72713 0.16577 0.0
H37 H 0.39186 0.71776 0.13219 0.0
H38 H 0.28116 0.87872 0.09579 0.0
H39 H 0.25956 0.88681 0.12946 0.0
La40 La 0.77774 0.14058 0.5473 0.0
La41 La 0.70524 0.97066 0.5397 0.0
C42 C 0.81559 0.27326 0.55871 0.0
C43 C 0.81631 0.30187 0.57724 0.0
C44 C 0.87227 0.38367 0.58069 0.0
C45 C 0.87736 0.41227 0.59866 0.0
C46 C 0.8264 0.35943 0.61354 0.0
C47 C 0.76962 0.27733 0.60991 0.0
C48 C 0.76457 0.24875 0.59185 0.0
C49 C 0.88756 0.10338 0.54303 0.0
C50 C 0.7502 -0.00451 0.58764 0.0
C51 C 0.6687 0.8436 0.52547 0.0
C52 C 0.63315 0.8198 0.50329 0.0
C53 C 0.57003 0.73938 0.50009 0.0
C54 C 0.53006 0.7184 0.47894 0.0
C55 C 0.55114 0.778 0.46043 0.0
C56 C 0.61579 0.85828 0.46389 0.0
C57 C 0.65701 0.87837 0.485 0.0
C58 C 0.59451 0.00722 0.54358 0.0
C59 C 0.73346 0.11877 0.49909 0.0
O60 O 0.86869 0.24466 0.56256 0.0
O61 O 0.74201 0.22799 0.54704 0.0
O62 O 0.88709 0.17368 0.53581 0.0
O63 O 0.82981 0.05709 0.5533 0.0
O64 O 0.75191 0.06801 0.57908 0.0
O65 O 0.74577 0.94899 0.57527 0.0
O66 O 0.61824 0.84915 0.53357 0.0
O67 O 0.74447 0.90548 0.52903 0.0
O68 O 0.59438 0.93655 0.55061 0.0
O69 O 0.653 0.05388 0.53353 0.0
O70 O 0.71407 0.04034 0.50659 0.0
O71 O 0.75402 0.17071 0.51208 0.0
H72 H 0.91302 0.42525 0.56961 0.0
H73 H 0.92281 0.47531 0.60118 0.0
H74 H 0.72906 0.23532 0.62097 0.0
H75 H 0.72084 0.18532 0.58937 0.0
H76 H 0.55083 0.69295 0.51397 0.0
H77 H 0.48251 0.65538 0.47719 0.0
H78 H 0.63378 0.90694 0.45036 0.0
H79 H 0.7065 0.94049 0.48689 0.0
La80 La 0.74937 0.81328 0.86186 0.0
La81 La 0.8767 0.75828 0.86848 0.0
C82 C 0.62755 0.82577 0.8646 0.0
C83 C 0.58742 0.8074 0.88242 0.0
C84 C 0.55317 0.85673 0.88261 0.0
C85 C 0.52033 0.84409 0.9002 0.0
C86 C 0.52174 0.78214 0.91801 0.0
C87 C 0.55487 0.73183 0.91757 0.0
C88 C 0.58711 0.74414 0.89989 0.0
C89 C 0.9013 0.9333 0.85955 0.0
C90 C 0.84556 0.76773 0.91018 0.0
C91 C 0.99582 0.74683 0.86413 0.0
C92 C 0.99864 0.71474 0.84667 0.0
C93 C 0.93735 0.63577 0.84138 0.0
C94 C 0.93238 0.61016 0.82289 0.0
C95 C 0.98807 0.66301 0.80919 0.0
C96 C 0.05066 0.74124 0.81472 0.0
C97 C 0.05608 0.76674 0.83337 0.0
C98 C 0.72439 0.63694 0.87008 0.0
C99 C 0.77979 0.8013 0.81948 0.0
O100 O 0.70439 0.88591 0.86657 0.0
O101 O 0.61931 0.76254 0.85823 0.0
O102 O 0.83265 0.93606 0.84779 0.0
O103 O 0.88349 0.86745 0.87287 0.0
O104 O 0.77504 0.76802 0.89731 0.0
O105 O 0.90486 0.77864 0.90174 0.0
O106 O 0.94585 0.69304 0.87706 0.0
O107 O 0.9887 0.81491 0.85783 0.0
O108 O 0.79296 0.63303 0.88126 0.0
O109 O 0.74281 0.70411 0.85731 0.0
O110 O 0.8396 0.78234 0.83259 0.0
O111 O 0.73056 0.81151 0.82729 0.0
H112 H 0.55329 0.90614 0.86933 0.0
H113 H 0.49614 0.88445 0.90016 0.0
H114 H 0.55603 0.68303 0.93092 0.0
H115 H 0.61276 0.70494 0.90002 0.0
H116 H 0.89111 0.59459 0.85104 0.0
H117 H 0.88274 0.55 0.81888 0.0
H118 H 0.09477 0.78295 0.80451 0.0
H119 H 0.10331 0.82816 0.83701 0.0
H120 H 0.92922 0.81389 0.16353 0.0
H121 H 0.94389 0.94716 0.16506 0.0
H122 H 0.19039 0.01062 0.20757 0.0
H123 H 0.1753 0.87617 0.2063 0.0
H124 H 0.1015 0.04819 0.22276 0.0
H125 H 0.16172 0.09813 0.15315 0.0
H126 H 0.13566 0.07098 0.11612 0.0
H127 H 0.90898 0.09391 0.09699 0.0
H128 H 0.93303 0.12 0.13401 0.0
H129 H 0.23538 0.47422 0.21657 0.0
H130 H 0.21775 0.34024 0.21456 0.0
H131 H 0.97281 0.28256 0.17161 0.0
H132 H 0.99098 0.41794 0.17334 0.0
H133 H 0.05841 0.24111 0.15653 0.0
H134 H 0.99687 0.19149 0.22556 0.0
H135 H 1.02054 0.21759 0.26253 0.0
H136 H 0.24624 0.19243 0.28273 0.0
H137 H 0.22459 0.16738 0.24577 0.0
C138 C 0.98691 0.85645 0.17307 0.0
C139 C 0.05115 0.8344 0.18478 0.0
C140 C 0.99536 0.93296 0.17388 0.0
C141 C 0.06859 -0.01019 0.18628 0.0
C142 C 0.13325 0.96811 0.19786 0.0
C143 C 0.1248 0.89139 0.19705 0.0
C144 C 0.07644 0.0706 0.18761 0.0
C145 C 0.09337 0.0909 0.20827 0.0
C146 C 0.0632 0.12558 0.16873 0.0
C147 C 0.04878 0.11023 0.14643 0.0
C148 C 0.10597 0.09674 0.1411 0.0
C149 C 0.09161 0.08165 0.1201 0.0
C150 C 1.0206 0.08051 0.10423 0.0
C151 C 0.9639 0.0947 0.10931 0.0
C152 C 0.9779 0.1097 0.13029 0.0
C153 C 0.17742 0.43282 0.20681 0.0
C154 C 0.11451 0.45672 0.19514 0.0
C155 C 0.16726 0.35589 0.20573 0.0
C156 C 0.09355 0.30038 0.19311 0.0
C157 C 1.03027 0.32399 0.1815 0.0
C158 C 0.04047 0.40122 0.18258 0.0
C159 C 0.0839 0.21888 0.19168 0.0
C160 C 0.06655 0.19841 0.17102 0.0
C161 C 0.0964 0.16355 0.21055 0.0
C162 C 0.1095 0.17833 0.23282 0.0
C163 C 0.05191 0.19217 0.23783 0.0
C164 C 0.0649 0.20666 0.2588 0.0
C165 C 0.13496 0.20687 0.27495 0.0
C166 C 0.19206 0.19236 0.27019 0.0
C167 C 0.17942 0.17793 0.24924 0.0
H168 H 0.1449 0.21809 0.29117 0.0
H169 H 1.00959 0.06882 0.08799 0.0
H170 H 0.45548 0.89711 0.55922 0.0
H171 H 0.33666 0.91439 0.5586 0.0
H172 H 0.45386 0.1654 0.52727 0.0
H173 H 0.57348 0.14783 0.52752 0.0
H174 H 0.38555 0.14801 0.56169 0.0
H175 H 0.29509 0.02623 0.49749 0.0
H176 H 0.26815 0.92499 0.47597 0.0
H177 H 0.09637 0.73073 0.51419 0.0
H178 H 0.12328 0.83068 0.53618 0.0
H179 H 1.02676 0.21362 0.52743 0.0
H180 H 0.14562 0.19625 0.5281 0.0
H181 H 1.02789 0.94504 0.55927 0.0
H182 H 0.90816 0.96265 0.55893 0.0
H183 H 0.09644 0.96239 0.52498 0.0
H184 H 0.1865 0.08315 0.5892 0.0
H185 H 0.21351 0.18357 0.61099 0.0
H186 H 0.38598 0.3788 0.57308 0.0
H187 H 0.359 0.27965 0.55082 0.0
C188 C 0.45626 0.95615 0.55214 0.0
C189 C 0.52412 0.02107 0.54335 0.0
C190 C 0.38791 0.96583 0.55177 0.0
C191 C 0.38549 0.04091 0.54271 0.0
C192 C 0.45402 0.10674 0.53431 0.0
C193 C 0.5224 0.09671 0.53445 0.0
C194 C 0.31107 0.04959 0.5421 0.0
C195 C 0.32256 0.10833 0.55335 0.0
C196 C 0.22821 -0.00378 0.5318 0.0
C197 C 0.2119 0.93585 0.51864 0.0
C198 C 0.25217 0.9618 0.50145 0.0
C199 C 0.23679 0.90467 0.48914 0.0
C200 C 0.18076 0.82144 0.49375 0.0
C201 C 0.13986 0.79521 0.51066 0.0
C202 C 0.15511 0.85209 0.52305 0.0
C203 C 1.0259 0.15453 0.53449 0.0
C204 C 0.95793 0.08959 0.54323 0.0
C205 C 0.09426 0.1448 0.53489 0.0
C206 C 0.09653 0.06964 0.54392 0.0
C207 C 1.02786 0.00377 0.55226 0.0
C208 C 0.95949 0.01385 0.55209 0.0
C209 C 0.17093 0.06087 0.54455 0.0
C210 C 0.15944 0.00211 0.53331 0.0
C211 C 0.25377 0.11412 0.55489 0.0
C212 C 0.27001 0.17407 0.56818 0.0
C213 C 0.22956 0.14762 0.58536 0.0
C214 C 0.24499 0.20429 0.59783 0.0
C215 C 0.30124 0.28756 0.59338 0.0
C216 C 0.34231 0.31429 0.57648 0.0
C217 C 0.32701 0.25787 0.56394 0.0
H218 H 0.31316 0.33133 0.60307 0.0
H219 H 0.16889 0.77731 0.48419 0.0
H220 H 0.05113 0.93914 0.88453 0.0
H221 H 0.19153 0.05727 0.88583 0.0
H222 H 0.08355 0.20469 0.83757 0.0
H223 H 0.94376 0.08596 0.83566 0.0
H224 H 0.22122 0.23582 0.82877 0.0
H225 H 0.14669 0.21707 0.89413 0.0
H226 H 0.10265 0.14875 0.92897 0.0
H227 H 0.32101 0.11033 0.95545 0.0
H228 H 0.36566 0.17728 0.92064 0.0
H229 H 0.57528 0.62842 0.84343 0.0
H230 H 0.43526 0.50988 0.84181 0.0
H231 H 0.54266 0.36486 0.89153 0.0
H232 H 0.68173 0.48464 0.89405 0.0
H233 H 0.40518 0.33202 0.89953 0.0
H234 H 0.48059 0.35072 0.83447 0.0
H235 H 0.52591 0.4197 0.79981 0.0
H236 H 0.30726 0.45752 0.77279 0.0
H237 H 0.26125 0.38983 0.80742 0.0
C238 C 0.05756 -0.00334 0.87412 0.0
C239 C 0.98656 0.00351 0.86005 0.0
C240 C 0.13776 0.06436 0.87498 0.0
C241 C 0.14827 0.14063 0.86208 0.0
C242 C 0.07731 0.1468 0.84773 0.0
C243 C 0.99734 0.07894 0.8467 0.0
C244 C 0.23281 0.21422 0.86354 0.0
C245 C 0.26101 0.25738 0.84423 0.0
C246 C 0.28586 0.24159 0.88374 0.0
C247 C 0.25908 0.2015 0.9047 0.0
C248 C 0.18497 0.1935 0.90732 0.0
C249 C 0.15993 0.15506 0.92708 0.0
C250 C 0.20886 0.12499 0.9444 0.0
C251 C 0.28304 0.13345 0.94201 0.0
C252 C 0.30827 0.17168 0.92228 0.0
C253 C 0.56873 0.57161 0.85422 0.0
C254 C 0.63932 0.56596 0.86897 0.0
C255 C 0.48876 0.50342 0.85309 0.0
C256 C 0.47816 0.42759 0.86628 0.0
C257 C 0.54884 0.42239 0.88115 0.0
C258 C 0.62846 0.49086 0.88252 0.0
C259 C 0.39378 0.35365 0.86476 0.0
C260 C 0.36553 0.31042 0.88406 0.0
C261 C 0.34083 0.3261 0.84456 0.0
C262 C 0.36792 0.3659 0.82363 0.0
C263 C 0.44245 0.3742 0.82119 0.0
C264 C 0.46824 0.41304 0.80154 0.0
C265 C 0.41964 0.44321 0.78413 0.0
C266 C 0.34494 0.43428 0.78631 0.0
C267 C 0.31894 0.39562 0.80593 0.0
H268 H 0.43977 0.47336 0.76895 0.0
H269 H 0.1894 0.09535 0.95968 0.0
H270 H 0.59629 0.75854 0.96117 0.0
H271 H 0.55038 0.74821 0.99283 0.0
H272 H 0.3336 0.77335 0.95028 0.0
H273 H 0.37965 0.78422 0.91844 0.0
H274 H 0.39647 0.86639 0.9792 0.0
H275 H 0.32359 0.584 0.98409 0.0
H276 H 0.34561 0.46711 0.98462 0.0
H277 H 0.54544 0.53233 0.04204 0.0
H278 H 0.52522 0.65017 0.04173 0.0
H279 H 0.22729 0.77972 0.07105 0.0
H280 H 0.24598 0.76784 0.03732 0.0
H281 H 0.48922 0.78292 0.0712 0.0
H282 H 0.472 0.79656 0.10481 0.0
H283 H 0.39691 0.65988 0.04554 0.0
H284 H 0.47211 0.94973 0.03777 0.0
H285 H 0.44569 0.06474 0.03637 0.0
H286 H 0.2303 0.97748 0.98334 0.0
H287 H 0.2552 0.8617 0.98453 0.0
C288 C 0.53819 0.7607 0.95855 0.0
C289 C 0.49152 0.77206 0.93728 0.0
C290 C 0.512 0.75489 0.9767 0.0
C291 C 0.43811 0.75939 0.97407 0.0
C292 C 0.39094 0.76991 0.95282 0.0
C293 C 0.41738 0.77625 0.93462 0.0
C294 C 0.41274 0.75737 0.99344 0.0
C295 C 0.39493 0.82008 0.99351 0.0
C296 C 0.41165 0.69782 1.01233 0.0
C297 C 0.42312 0.62616 1.01281 0.0
C298 C 0.37243 0.57359 0.99678 0.0
C299 C 0.38458 0.50715 0.99705 0.0
C300 C 0.44694 0.49236 1.01334 0.0
C301 C 0.49712 0.54383 1.02944 0.0
C302 C 0.48522 0.61035 1.02926 0.0
C303 C 0.2852 0.78147 0.07128 0.0
C304 C 0.34837 0.78955 0.09065 0.0
C305 C 0.29553 0.77418 0.05201 0.0
C306 C 0.36915 0.77485 0.05172 0.0
C307 C 0.43173 0.78185 0.07107 0.0
C308 C 0.42167 0.78947 0.09029 0.0
C309 C 0.38199 0.76934 1.03127 0.0
C310 C 0.39743 0.7053 1.03106 0.0
C311 C 0.37971 0.82688 1.01214 0.0
C312 C 0.36508 0.89672 1.01137 0.0
C313 C 0.41885 0.95485 1.0259 0.0
C314 C 0.40424 0.02026 1.02511 0.0
C315 C 0.33631 0.02839 1.00978 0.0
C316 C 0.28292 0.97118 0.99519 0.0
C317 C 0.29733 0.90575 0.99589 0.0
H318 H 0.32511 0.07908 1.00919 0.0
H319 H 0.45632 0.44095 1.01349 0.0
H320 H 0.64479 0.03546 0.46369 0.0
H321 H 0.66559 0.08442 0.42634 0.0
H322 H 0.85984 0.32151 0.44513 0.0
H323 H 0.8369 0.27341 0.48218 0.0
H324 H 0.78106 0.34977 0.40744 0.0
H325 H 0.89209 0.16195 0.43966 0.0
H326 H 0.90068 0.03342 0.45771 0.0
H327 H 0.72325 0.91293 0.40252 0.0
H328 H 0.70939 0.03904 0.3847 0.0
H329 H 0.96393 0.46828 0.31503 0.0
H330 H 0.94405 0.42379 0.35249 0.0
H331 H 0.70262 0.22176 0.33102 0.0
H332 H 0.72007 0.26726 0.29346 0.0
H333 H 0.8124 0.17994 0.36996 0.0
H334 H 0.70613 0.38075 0.33951 0.0
H335 H 0.72019 0.51887 0.32207 0.0
H336 H 0.9229 0.62616 0.37581 0.0
H337 H 0.91127 0.48883 0.39337 0.0
C338 C 0.69168 0.09806 0.45979 0.0
C339 C 0.73957 0.15031 0.47593 0.0
C340 C 0.70388 0.12606 0.43843 0.0
C341 C 0.76576 0.2064 0.43283 0.0
C342 C 0.81178 0.25931 0.44885 0.0
C343 C 0.79851 0.23177 0.47009 0.0
C344 C 0.7831 0.23533 0.41043 0.0
C345 C 0.78879 0.31262 0.39947 0.0
C346 C 0.79354 0.18751 0.39975 0.0
C347 C 0.79867 0.11 0.41095 0.0
C348 C 0.85335 0.1076 0.43156 0.0
C349 C 0.85906 0.035 0.44179 0.0
C350 C 0.81196 0.96481 0.43136 0.0
C351 C 0.75902 0.96707 0.41069 0.0
C352 C 0.75168 0.03892 0.4006 0.0
C353 C 0.90596 0.4151 0.31816 0.0
C354 C 0.84345 0.37181 0.30104 0.0
C355 C 0.89502 0.38947 0.33964 0.0
C356 C 0.82163 0.31976 0.34452 0.0
C357 C 0.75985 0.27561 0.32763 0.0
C358 C 0.77026 0.3016 0.30614 0.0
C359 C 0.80865 0.29268 0.3672 0.0
C360 C 0.80424 0.21619 0.37814 0.0
C361 C 0.80213 0.34214 0.37813 0.0
C362 C 0.80836 0.42454 0.36765 0.0
C363 C 0.75422 0.43385 0.34752 0.0
C364 C 0.7617 0.51202 0.33762 0.0
C365 C 0.82249 0.58127 0.3478 0.0
C366 C 0.8758 0.57247 0.36795 0.0
C367 C 0.86886 0.49449 0.37786 0.0
H368 H 0.82825 0.64173 0.3401 0.0
H369 H 0.81686 0.90881 0.43924 0.0
H370 H 0.70679 0.88674 0.78661 0.0
H371 H 0.69751 0.90849 0.7474 0.0
H372 H 0.8154 0.75499 0.75861 0.0
H373 H 0.82885 0.73697 0.79788 0.0
H374 H 0.87944 0.87537 0.73101 0.0
H375 H 0.59636 0.69594 0.73548 0.0
H376 H 0.46134 0.64318 0.7448 0.0
H377 H 0.43593 0.85548 0.70576 0.0
H378 H 0.57145 0.91018 0.69634 0.0
H379 H 0.78225 0.86927 0.6146 0.0
H380 H 0.78348 0.82459 0.65372 0.0
H381 H 0.71829 0.01013 0.65329 0.0
H382 H 0.71809 0.05552 0.61456 0.0
H383 H 0.62236 0.85802 0.67494 0.0
H384 H 0.91629 0.03595 0.67276 0.0
H385 H 0.04719 0.07616 0.66285 0.0
H386 H 0.04502 0.84765 0.69803 0.0
H387 H 0.91371 0.80585 0.70795 0.0
C388 C 0.73009 0.85711 0.78069 0.0
C389 C 0.76829 0.80996 0.79543 0.0
C390 C 0.72441 0.86921 0.75818 0.0
C391 C 0.75452 0.83246 0.74973 0.0
C392 C 0.79175 0.7844 0.76449 0.0
C393 C 0.79908 0.7738 0.78703 0.0
C394 C 0.74999 0.84651 0.72569 0.0
C395 C 0.82258 0.87019 0.71883 0.0
C396 C 0.67615 0.84011 0.70952 0.0
C397 C 0.59457 0.80745 0.71524 0.0
C398 C 0.56232 0.73167 0.72891 0.0
C399 C 0.48559 0.70136 0.73423 0.0
C400 C 0.44011 0.74598 0.7259 0.0
C401 C 0.47124 0.82098 0.71221 0.0
C402 C 0.548 0.85162 0.70685 0.0
C403 C 0.7681 0.90044 0.62285 0.0
C404 C 0.75043 0.9663 0.61136 0.0
C405 C 0.76888 0.87486 0.64526 0.0
C406 C 0.75094 0.91391 0.65658 0.0
C407 C 0.73215 0.97877 0.64502 0.0
C408 C 0.73254 0.00501 0.6228 0.0
C409 C 0.75209 0.88858 0.68047 0.0
C410 C 0.67878 0.86254 0.68725 0.0
C411 C 0.82461 0.89105 0.69655 0.0
C412 C 0.90412 0.91696 0.69072 0.0
C413 C 0.94317 -0.00614 0.67817 0.0
C414 C 1.01765 0.0171 0.67261 0.0
C415 C 0.05416 0.96431 0.67969 0.0
C416 C 1.01651 0.88836 0.69246 0.0
C417 C 0.94204 0.86485 0.69804 0.0
H418 H 0.11182 0.98242 0.67537 0.0
H419 H 0.3807 0.7224 0.73003 0.0
H420 H 0.73022 0.72158 0.93387 0.0
H421 H 0.74916 0.6937 0.97357 0.0
H422 H 1.0076 0.75575 0.98113 0.0
H423 H 0.98833 0.78158 0.94148 0.0
H424 H 0.94637 0.62665 1.00802 0.0
H425 H 0.9449 0.88233 0.98979 0.0
H426 H 0.89827 -0.01141 0.97227 0.0
H427 H 0.6891 0.85303 1.00281 0.0
H428 H 0.73122 0.74292 1.01951 0.0
H429 H 0.1135 0.70692 0.11704 0.0
H430 H 0.07324 0.72039 0.07744 0.0
H431 H 0.81169 0.59203 0.07954 0.0
H432 H 0.85197 0.57818 0.11983 0.0
H433 H 0.86387 0.74542 0.0483 0.0
H434 H 0.88669 0.49085 0.06797 0.0
H435 H 0.96153 0.40855 0.08795 0.0
H436 H 0.16753 0.57798 0.05724 0.0
H437 H 0.09409 0.66149 0.0372 0.0
C438 C 0.79119 0.72964 0.94395 0.0
C439 C 0.85768 0.75386 0.93438 0.0
C440 C 0.80207 0.71385 0.96674 0.0
C441 C 0.88005 0.72295 0.98053 0.0
C442 C 0.94662 0.74769 0.97096 0.0
C443 C 0.93558 0.76282 0.94821 0.0
C444 C 0.89223 0.70536 1.00488 0.0
C445 C 0.92849 0.65316 1.01672 0.0
C446 C 0.86888 0.73943 1.01648 0.0
C447 C 0.84045 0.80331 1.00559 0.0
C448 C 0.88766 0.87387 0.99235 0.0
C449 C 0.8619 0.93478 0.98252 0.0
C450 C 0.78997 0.92686 0.98617 0.0
C451 C 0.74372 0.85804 0.99966 0.0
C452 C 0.7683 0.79616 1.00923 0.0
C453 C 0.04716 0.68122 0.10924 0.0
C454 C 0.98586 0.64151 0.12172 0.0
C455 C 1.02432 0.68882 0.08649 0.0
C456 C 0.9395 0.65693 0.07546 0.0
C457 C 0.87762 0.61702 0.08774 0.0
C458 C 0.90059 0.60866 0.11073 0.0
C459 C 0.91707 0.66667 0.05112 0.0
C460 C 0.87963 0.71778 0.03936 0.0
C461 C 0.94223 0.63438 0.03961 0.0
C462 C 0.98505 0.58259 0.05116 0.0
C463 C 0.94802 0.51062 0.06552 0.0
C464 C 0.99016 0.46373 0.07685 0.0
C465 C 0.06925 0.48804 0.07388 0.0
C466 C 0.10623 0.55912 0.05951 0.0
C467 C 0.06428 0.60613 0.04812 0.0
H468 H 0.10183 0.45175 0.0827 0.0
H469 H 0.77051 0.97443 0.97871 0.0
H470 H 0.08704 0.55715 0.26846 0.0
H471 H 0.14567 0.56582 0.30757 0.0
H472 H 0.36712 0.78743 0.2932 0.0
H473 H 0.3094 0.77905 0.2542 0.0
H474 H 0.40673 0.67995 0.32575 0.0
H475 H 0.21057 0.79153 0.30699 0.0
H476 H 0.07004 0.78436 0.29272 0.0
H477 H 0.97471 0.57546 0.34112 0.0
H478 H 0.11422 0.58031 0.35545 0.0
H479 H 0.61177 0.84588 0.42309 0.0
H480 H 0.53754 0.81979 0.38599 0.0
H481 H 0.31513 0.63041 0.40859 0.0
H482 H 0.38645 0.66342 0.44563 0.0
H483 H 0.26655 0.70414 0.37281 0.0
H484 H 0.45587 0.59019 0.39293 0.0
H485 H 0.59205 0.58786 0.40757 0.0
H486 H 0.69409 0.7856 0.35747 0.0
H487 H 0.55881 0.78974 0.34266 0.0
C488 C 0.1481 0.6079 0.27361 0.0
C489 C 0.19343 0.66755 0.25816 0.0
C490 C 0.18144 0.61285 0.29599 0.0
C491 C 0.2606 0.67764 0.30333 0.0
C492 C 0.30597 0.73688 0.28793 0.0
C493 C 0.27273 0.73206 0.26561 0.0
C494 C 0.29754 0.68381 0.32701 0.0
C495 C 0.37646 0.68595 0.33601 0.0
C496 C 0.25641 0.68811 0.34063 0.0
C497 C 0.17273 0.68584 0.33216 0.0
C498 C 0.15949 0.74367 0.31449 0.0
C499 C 0.07999 0.74001 0.3064 0.0
C500 C 1.0134 0.67931 0.31598 0.0
C501 C 1.0263 0.62237 0.33372 0.0
C502 C 0.10555 0.6255 0.34183 0.0
C503 C 0.54671 0.79991 0.4203 0.0
C504 C 0.50594 0.75736 0.4377 0.0
C505 C 0.50447 0.78356 0.39894 0.0
C506 C 0.42104 0.72126 0.39436 0.0
C507 C 0.3797 0.67832 0.41161 0.0
C508 C 0.42133 0.69653 0.43296 0.0
C509 C 0.37718 0.7023 0.37155 0.0
C510 C 0.29678 0.69737 0.36269 0.0
C511 C 0.41617 0.69372 0.35811 0.0
C512 C 0.49729 0.69053 0.36676 0.0
C513 C 0.50745 0.63337 0.38508 0.0
C514 C 0.58448 0.63173 0.39341 0.0
C515 C 0.65171 0.68662 0.38347 0.0
C516 C 0.64196 0.7431 0.36514 0.0
C517 C 0.56507 0.74502 0.35675 0.0
H518 H 0.71132 0.68531 0.38996 0.0
H519 H 0.95187 0.67648 0.3097 0.0
H520 H 0.99109 0.75285 0.76831 0.0
H521 H 0.96484 0.70564 0.73427 0.0
H522 H 0.93278 0.46667 0.76997 0.0
H523 H 0.96137 0.51409 0.80403 0.0
H524 H 1.02607 0.51914 0.74077 0.0
H525 H 0.77002 0.5065 0.74255 0.0
H526 H 0.6784 0.55982 0.74374 0.0
H527 H 0.72218 0.71689 0.6829 0.0
H528 H 0.81729 0.66766 0.68176 0.0
H529 H 0.82759 0.27853 0.65545 0.0
H530 H 0.85311 0.33287 0.68808 0.0
H531 H 0.87425 0.56408 0.64874 0.0
H532 H 0.84547 0.50908 0.61593 0.0
H533 H 0.78926 0.52137 0.67897 0.0
H534 H 0.04878 0.54145 0.67769 0.0
H535 H 0.14249 0.49147 0.67596 0.0
H536 H 0.09121 0.32238 0.73491 0.0
H537 H 0.9961 0.37044 0.7368 0.0
C538 C 0.97981 0.69072 0.76891 0.0
C539 C 0.97809 0.637 0.7888 0.0
C540 C 0.96393 0.66361 0.74945 0.0
C541 C 0.94567 0.58233 0.74959 0.0
C542 C 0.94636 0.52951 0.76951 0.0
C543 C 0.96221 0.5565 0.78892 0.0
C544 C 0.92496 0.55132 0.72904 0.0
C545 C 0.97374 0.51888 0.72734 0.0
C546 C 0.85795 0.5531 0.71131 0.0
C547 C 0.80204 0.58415 0.71225 0.0
C548 C 0.76151 0.55357 0.72961 0.0
C549 C 0.70894 0.58316 0.73027 0.0
C550 C 0.69502 0.64214 0.71346 0.0
C551 C 0.73371 0.67179 0.69598 0.0
C552 C 0.78714 0.64323 0.69535 0.0
C553 C 0.83613 0.3404 0.65368 0.0
C554 C 0.83522 0.38975 0.63312 0.0
C555 C 0.85162 0.37169 0.67237 0.0
C556 C 0.86721 0.45308 0.67088 0.0
C557 C 0.86304 0.50134 0.65028 0.0
C558 C 0.84726 0.47003 0.63158 0.0
C559 C 0.88996 0.48865 0.69083 0.0
C560 C 0.84174 0.52202 0.69239 0.0
C561 C 0.95775 0.48829 0.70841 0.0
C562 C 1.01462 0.45897 0.70725 0.0
C563 C 0.05688 0.49308 0.69017 0.0
C564 C 0.11035 0.46518 0.68918 0.0
C565 C 0.12261 0.40362 0.70528 0.0
C566 C 0.08153 0.36994 0.72243 0.0
C567 C 1.02786 0.39751 0.72347 0.0
H568 H 0.16409 0.38216 0.70449 0.0
H569 H 0.65372 0.66439 0.71385 0.0
loop_
_geom_bond_atom_site_label_1
_geom_bond_atom_site_label_2
_geom_bond_distance
_geom_bond_site_symmetry_2
_ccdc_geom_bond_type
La0 C2 2.928 . S
La0 O20 2.521 . S
La0 O21 2.628 . S
La0 O22 2.554 . S
La0 O23 2.757 1_655 S
La0 O24 2.470 1_655 S
La0 O29 2.482 . S
La0 O31 2.503 . S
La1 C11 2.928 . S
La1 O23 2.482 . S
La1 O25 2.503 . S
La1 O26 2.521 . S
La1 O27 2.628 . S
La1 O28 2.554 . S
La1 O29 2.757 1_455 S
La1 O30 2.470 1_455 S
C2 La0 2.928 . S
C2 C3 1.503 . S
C2 O20 1.261 . S
C2 O21 1.243 . S
C3 C2 1.503 . S
C3 C4 1.394 . S
C3 C8 1.373 . S
C4 C3 1.394 . S
C4 C5 1.380 . S
C4 H32 0.930 . S
C5 C4 1.380 . S
C5 C6 1.376 . S
C5 H33 0.930 . S
C6 C5 1.376 . S
C6 C7 1.370 . S
C7 C6 1.370 . S
C7 C8 1.396 . S
C7 H34 0.929 . S
C8 C3 1.373 . S
C8 C7 1.396 . S
C8 H35 0.929 . S
C9 O22 1.240 . S
C9 O23 1.289 1_655 S
C10 O24 1.258 . S
C10 O25 1.256 . S
C11 La1 2.928 . S
C11 C12 1.503 . S
C11 O26 1.261 . S
C11 O27 1.243 . S
C12 C11 1.503 . S
C12 C13 1.394 . S
C12 C17 1.373 . S
C13 C12 1.394 . S
C13 C14 1.380 . S
C13 H36 0.930 . S
C14 C13 1.380 . S
C14 C15 1.376 . S
C14 H37 0.930 . S
C15 C14 1.376 . S
C15 C16 1.370 . S
C16 C15 1.370 . S
C16 C17 1.396 . S
C16 H38 0.929 . S
C17 C12 1.373 . S
C17 C16 1.396 . S
C17 H39 0.929 . S
C18 O28 1.240 . S
C18 O29 1.289 1_455 S
C19 O30 1.258 . S
C19 O31 1.256 . S
O20 La0 2.521 . S
O20 C2 1.261 . S
O21 La0 2.628 . S
O21 C2 1.243 . S
O22 La0 2.554 . S
O22 C9 1.240 . S
O23 La0 2.757 1_455 S
O23 La1 2.482 . S
O23 C9 1.289 1_455 S
O24 La0 2.470 1_455 S
O24 C10 1.258 . S
O25 La1 2.503 . S
O25 C10 1.256 . S
O26 La1 2.521 . S
O26 C11 1.261 . S
O27 La1 2.628 . S
O27 C11 1.243 . S
O28 La1 2.554 . S
O28 C18 1.240 . S
O29 La0 2.482 . S
O29 La1 2.757 1_655 S
O29 C18 1.289 1_655 S
O30 La1 2.470 1_655 S
O30 C19 1.258 . S
O31 La0 2.503 . S
O31 C19 1.256 . S
H32 C4 0.930 . S
H33 C5 0.930 . S
H34 C7 0.929 . S
H35 C8 0.929 . S
H36 C13 0.930 . S
H37 C14 0.930 . S
H38 C16 0.929 . S
H39 C17 0.929 . S
La40 C42 2.928 . S
La40 O60 2.521 . S
La40 O61 2.628 . S
La40 O62 2.554 . S
La40 O63 2.757 1_545 S
La40 O64 2.470 1_545 S
La40 O69 2.482 . S
La40 O71 2.503 . S
La41 C51 2.928 . S
La41 O63 2.482 . S
La41 O65 2.503 . S
La41 O66 2.521 . S
La41 O67 2.628 . S
La41 O68 2.554 . S
La41 O69 2.757 1_565 S
La41 O70 2.470 1_565 S
C42 La40 2.928 . S
C42 C43 1.503 . S
C42 O60 1.261 . S
C42 O61 1.243 . S
C43 C42 1.503 . S
C43 C44 1.394 . S
C43 C48 1.373 . S
C44 C43 1.394 . S
C44 C45 1.380 . S
C44 H72 0.930 . S
C45 C44 1.380 . S
C45 C46 1.376 . S
C45 H73 0.930 . S
C46 C45 1.376 . S
C46 C47 1.370 . S
C47 C46 1.370 . S
C47 C48 1.396 . S
C47 H74 0.929 . S
C48 C43 1.373 . S
C48 C47 1.396 . S
C48 H75 0.929 . S
C49 O62 1.240 . S
C49 O63 1.289 1_545 S
C50 O64 1.258 . S
C50 O65 1.256 . S
C51 La41 2.928 . S
C51 C52 1.503 . S
C51 O66 1.261 . S
C51 O67 1.243 . S
C52 C51 1.503 . S
C52 C53 1.394 . S
C52 C57 1.373 . S
C53 C52 1.394 . S
C53 C54 1.380 . S
C53 H76 0.930 . S
C54 C53 1.380 . S
C54 C55 1.376 . S
C54 H77 0.930 . S
C55 C54 1.376 . S
C55 C56 1.370 . S
C56 C55 1.370 . S
C56 C57 1.396 . S
C56 H78 0.929 . S
C57 C52 1.373 . S
C57 C56 1.396 . S
C57 H79 0.929 . S
C58 O68 1.240 . S
C58 O69 1.289 1_565 S
C59 O70 1.258 . S
C59 O71 1.256 . S
O60 La40 2.521 . S
O60 C42 1.261 . S
O61 La40 2.628 . S
O61 C42 1.243 . S
O62 La40 2.554 . S
O62 C49 1.240 . S
O63 La40 2.757 1_565 S
O63 La41 2.482 . S
O63 C49 1.289 1_565 S
O64 La40 2.470 1_565 S
O64 C50 1.258 . S
O65 La41 2.503 . S
O65 C50 1.256 . S
O66 La41 2.521 . S
O66 C51 1.261 . S
O67 La41 2.628 . S
O67 C51 1.243 . S
O68 La41 2.554 . S
O68 C58 1.240 . S
O69 La40 2.482 . S
O69 La41 2.757 1_545 S
O69 C58 1.289 1_545 S
O70 La41 2.470 1_545 S
O70 C59 1.258 . S
O71 La40 2.503 . S
O71 C59 1.256 . S
H72 C44 0.930 . S
H73 C45 0.930 . S
H74 C47 0.929 . S
H75 C48 0.929 . S
H76 C53 0.930 . S
H77 C54 0.930 . S
H78 C56 0.929 . S
H79 C57 0.929 . S
La80 C82 2.928 . S
La80 O100 2.521 . S
La80 O101 2.628 . S
La80 O102 2.554 1_565 S
La80 O103 2.757 . S
La80 O104 2.470 . S
La80 O109 2.482 . S
La80 O111 2.503 . S
La81 C91 2.928 . S
La81 O103 2.482 . S
La81 O105 2.503 . S
La81 O106 2.521 . S
La81 O107 2.628 . S
La81 O108 2.554 . S
La81 O109 2.757 . S
La81 O110 2.470 . S
C82 La80 2.928 . S
C82 C83 1.503 . S
C82 O100 1.261 . S
C82 O101 1.243 . S
C83 C82 1.503 . S
C83 C84 1.394 1_565 S
C83 C88 1.373 . S
C84 C83 1.394 1_545 S
C84 C85 1.380 . S
C84 H112 0.930 . S
C85 C84 1.380 . S
C85 C86 1.376 1_545 S
C85 H113 0.930 . S
C86 C85 1.376 1_565 S
C86 C87 1.370 . S
C87 C86 1.370 . S
C87 C88 1.396 . S
C87 H114 0.929 . S
C88 C83 1.373 . S
C88 C87 1.396 . S
C88 H115 0.929 . S
C89 O102 1.240 1_565 S
C89 O103 1.289 . S
C90 O104 1.258 . S
C90 O105 1.256 . S
C91 La81 2.928 . S
C91 C92 1.503 . S
C91 O106 1.261 . S
C91 O107 1.243 . S
C92 C91 1.503 . S
C92 C93 1.394 . S
C92 C97 1.373 . S
C93 C92 1.394 . S
C93 C94 1.380 . S
C93 H116 0.930 . S
C94 C93 1.380 . S
C94 C95 1.376 . S
C94 H117 0.930 . S
C95 C94 1.376 . S
C95 C96 1.370 . S
C96 C95 1.370 . S
C96 C97 1.396 . S
C96 H118 0.929 1_655 S
C97 C92 1.373 . S
C97 C96 1.396 . S
C97 H119 0.929 . S
C98 O108 1.240 . S
C98 O109 1.289 . S
C99 O110 1.258 . S
C99 O111 1.256 . S
O100 La80 2.521 . S
O100 C82 1.261 . S
O101 La80 2.628 . S
O101 C82 1.243 . S
O102 La80 2.554 1_545 S
O102 C89 1.240 1_545 S
O103 La80 2.757 . S
O103 La81 2.482 . S
O103 C89 1.289 . S
O104 La80 2.470 . S
O104 C90 1.258 . S
O105 La81 2.503 . S
O105 C90 1.256 . S
O106 La81 2.521 . S
O106 C91 1.261 . S
O107 La81 2.628 . S
O107 C91 1.243 . S
O108 La81 2.554 . S
O108 C98 1.240 . S
O109 La80 2.482 . S
O109 La81 2.757 . S
O109 C98 1.289 . S
O110 La81 2.470 . S
O110 C99 1.258 . S
O111 La80 2.503 . S
O111 C99 1.256 . S
H112 C84 0.930 . S
H113 C85 0.930 . S
H114 C87 0.929 . S
H115 C88 0.929 . S
H116 C93 0.930 . S
H117 C94 0.930 . S
H118 C96 0.929 1_455 S
H119 C97 0.929 . S
H120 C138 0.951 . S
H121 C140 0.951 . S
H122 C142 0.950 1_545 S
H123 C143 0.950 . S
H124 C145 0.950 . S
H125 C148 0.946 1_455 S
H126 C149 0.950 1_455 S
H127 C151 0.950 . S
H128 C152 0.950 . S
H129 C153 0.951 . S
H130 C155 0.951 . S
H131 C157 0.950 . S
H132 C158 0.950 . S
H133 C160 0.950 . S
H134 C163 0.943 1_655 S
H135 C164 0.950 1_655 S
H136 C166 0.950 . S
H137 C167 0.950 . S
C138 H120 0.951 . S
C138 C139 1.366 1_655 S
C138 C140 1.388 . S
C139 C138 1.366 1_455 S
C139 C143 1.385 . S
C140 H121 0.951 . S
C140 C138 1.388 . S
C140 C141 1.366 1_665 S
C141 C140 1.366 1_445 S
C141 C142 1.414 1_545 S
C141 C144 1.499 . S
C142 H122 0.950 1_565 S
C142 C141 1.414 1_565 S
C142 C143 1.374 . S
C143 H123 0.950 . S
C143 C139 1.385 . S
C143 C142 1.374 . S
C144 C141 1.499 . S
C144 C145 1.373 . S
C144 C146 1.389 1_455 S
C145 H124 0.950 . S
C145 C144 1.373 . S
C145 C161 1.377 . S
C146 C144 1.389 1_655 S
C146 C147 1.524 . S
C146 C160 1.377 . S
C147 C146 1.524 . S
C147 C148 1.401 . S
C147 C152 1.363 . S
C148 H125 0.946 1_655 S
C148 C147 1.401 . S
C148 C149 1.333 . S
C149 H126 0.950 1_655 S
C149 C148 1.333 . S
C149 C150 1.287 . S
C150 C149 1.287 . S
C150 C151 1.524 . S
C150 H169 0.913 . S
C151 H127 0.950 . S
C151 C150 1.524 . S
C151 C152 1.415 . S
C152 H128 0.950 . S
C152 C147 1.363 . S
C152 C151 1.415 . S
C153 H129 0.951 . S
C153 C154 1.366 1_455 S
C153 C155 1.388 . S
C154 C153 1.366 1_655 S
C154 C158 1.385 . S
C155 H130 0.951 . S
C155 C153 1.388 . S
C155 C156 1.366 1_455 S
C156 C155 1.366 1_655 S
C156 C157 1.414 . S
C156 C159 1.499 . S
C157 H131 0.950 . S
C157 C156 1.414 . S
C157 C158 1.374 . S
C158 H132 0.950 . S
C158 C154 1.385 . S
C158 C157 1.374 . S
C159 C156 1.499 . S
C159 C160 1.373 . S
C159 C161 1.389 1_655 S
C160 H133 0.950 . S
C160 C146 1.377 . S
C160 C159 1.373 . S
C161 C145 1.377 . S
C161 C159 1.389 1_455 S
C161 C162 1.524 . S
C162 C161 1.524 . S
C162 C163 1.405 . S
C162 C167 1.363 . S
C163 H134 0.943 1_455 S
C163 C162 1.405 . S
C163 C164 1.332 . S
C164 H135 0.950 1_455 S
C164 C163 1.332 . S
C164 C165 1.287 . S
C165 C164 1.287 . S
C165 C166 1.524 . S
C165 H168 0.999 . S
C166 H136 0.950 . S
C166 C165 1.524 . S
C166 C167 1.415 . S
C167 H137 0.950 . S
C167 C162 1.363 . S
C167 C166 1.415 . S
H168 C165 0.999 . S
H169 C150 0.913 . S
H170 C188 0.951 . S
H171 C190 0.951 . S
H172 C192 0.950 . S
H173 C193 0.950 . S
H174 C195 0.950 . S
H175 C198 0.950 . S
H176 C199 0.950 . S
H177 C201 0.950 1_565 S
H178 C202 0.950 . S
H179 C203 0.951 . S
H180 C205 0.951 . S
H181 C207 0.950 . S
H182 C208 0.950 . S
H183 C210 0.950 . S
H184 C213 0.950 . S
H185 C214 0.950 . S
H186 C216 0.950 1_545 S
H187 C217 0.950 . S
C188 H170 0.951 . S
C188 C189 1.366 1_565 S
C188 C190 1.388 . S
C189 C188 1.366 1_545 S
C189 C193 1.385 . S
C190 H171 0.951 . S
C190 C188 1.388 . S
C190 C191 1.366 1_565 S
C191 C190 1.366 1_545 S
C191 C192 1.414 . S
C191 C194 1.499 . S
C192 H172 0.950 . S
C192 C191 1.414 . S
C192 C193 1.374 . S
C193 H173 0.950 . S
C193 C189 1.385 . S
C193 C192 1.374 . S
C194 C191 1.499 . S
C194 C195 1.373 1_545 S
C194 C196 1.389 . S
C195 H174 0.950 . S
C195 C194 1.373 1_565 S
C195 C211 1.377 . S
C196 C194 1.389 . S
C196 C197 1.524 . S
C196 C210 1.377 . S
C197 C196 1.524 . S
C197 C198 1.397 . S
C197 C202 1.363 1_545 S
C198 H175 0.950 . S
C198 C197 1.397 . S
C198 C199 1.334 . S
C199 H176 0.950 . S
C199 C198 1.334 . S
C199 C200 1.287 . S
C200 C199 1.287 . S
C200 C201 1.524 . S
C200 H219 0.913 . S
C201 H177 0.950 1_545 S
C201 C200 1.524 . S
C201 C202 1.415 1_545 S
C202 H178 0.950 . S
C202 C197 1.363 1_565 S
C202 C201 1.415 1_565 S
C203 H179 0.951 . S
C203 C204 1.366 . S
C203 C205 1.388 1_655 S
C204 C203 1.366 . S
C204 C208 1.385 1_545 S
C205 H180 0.951 . S
C205 C203 1.388 1_455 S
C205 C206 1.378 . S
C206 C205 1.378 . S
C206 C207 1.410 1_445 S
C206 C209 1.482 1_545 S
C207 H181 0.950 . S
C207 C206 1.410 1_665 S
C207 C208 1.374 . S
C208 H182 0.950 . S
C208 C204 1.385 1_565 S
C208 C207 1.374 . S
C209 C206 1.482 1_565 S
C209 C210 1.376 1_565 S
C209 C211 1.394 . S
C210 H183 0.950 . S
C210 C196 1.377 . S
C210 C209 1.376 1_545 S
C211 C195 1.377 . S
C211 C209 1.394 . S
C211 C212 1.524 . S
C212 C211 1.524 . S
C212 C213 1.397 . S
C212 C217 1.363 1_565 S
C213 H184 0.950 . S
C213 C212 1.397 . S
C213 C214 1.334 . S
C214 H185 0.950 . S
C214 C213 1.334 . S
C214 C215 1.287 . S
C215 C214 1.287 . S
C215 C216 1.524 . S
C215 H218 0.999 . S
C216 H186 0.950 1_565 S
C216 C215 1.524 . S
C216 C217 1.415 1_565 S
C217 H187 0.950 . S
C217 C212 1.363 1_545 S
C217 C216 1.415 1_545 S
H218 C215 0.999 . S
H219 C200 0.913 . S
H220 C238 0.951 1_565 S
H221 C240 0.951 . S
H222 C242 0.950 . S
H223 C243 0.950 . S
H224 C245 0.950 . S
H225 C248 0.950 . S
H226 C249 0.950 . S
H227 C251 0.950 . S
H228 C252 0.950 . S
H229 C253 0.951 . S
H230 C255 0.951 . S
H231 C257 0.950 . S
H232 C258 0.950 . S
H233 C260 0.950 . S
H234 C263 0.950 . S
H235 C264 0.950 . S
H236 C266 0.950 . S
H237 C267 0.950 . S
C238 H220 0.951 1_545 S
C238 C239 1.366 1_455 S
C238 C240 1.388 . S
C239 C238 1.366 1_655 S
C239 C243 1.385 . S
C240 H221 0.951 . S
C240 C238 1.388 . S
C240 C241 1.366 . S
C241 C240 1.366 . S
C241 C242 1.414 . S
C241 C244 1.499 . S
C242 H222 0.950 . S
C242 C241 1.414 . S
C242 C243 1.374 1_455 S
C243 H223 0.950 . S
C243 C239 1.385 . S
C243 C242 1.374 1_655 S
C244 C241 1.499 . S
C244 C245 1.373 . S
C244 C246 1.389 . S
C245 H224 0.950 . S
C245 C244 1.373 . S
C245 C261 1.377 . S
C246 C244 1.389 . S
C246 C247 1.524 . S
C246 C260 1.377 . S
C247 C246 1.524 . S
C247 C248 1.397 . S
C247 C252 1.363 . S
C248 H225 0.950 . S
C248 C247 1.397 . S
C248 C249 1.334 . S
C249 H226 0.950 . S
C249 C248 1.334 . S
C249 C250 1.287 . S
C250 C249 1.287 . S
C250 C251 1.524 . S
C250 H269 0.913 . S
C251 H227 0.950 . S
C251 C250 1.524 . S
C251 C252 1.415 . S
C252 H228 0.950 . S
C252 C247 1.363 . S
C252 C251 1.415 . S
C253 H229 0.951 . S
C253 C254 1.366 . S
C253 C255 1.388 . S
C254 C253 1.366 . S
C254 C258 1.385 . S
C255 H230 0.951 . S
C255 C253 1.388 . S
C255 C256 1.366 . S
C256 C255 1.366 . S
C256 C257 1.414 . S
C256 C259 1.499 . S
C257 H231 0.950 . S
C257 C256 1.414 . S
C257 C258 1.374 . S
C258 H232 0.950 . S
C258 C254 1.385 . S
C258 C257 1.374 . S
C259 C256 1.499 . S
C259 C260 1.373 . S
C259 C261 1.389 . S
C260 H233 0.950 . S
C260 C246 1.377 . S
C260 C259 1.373 . S
C261 C245 1.377 . S
C261 C259 1.389 . S
C261 C262 1.524 . S
C262 C261 1.524 . S
C262 C263 1.397 . S
C262 C267 1.363 . S
C263 H234 0.950 . S
C263 C262 1.397 . S
C263 C264 1.334 . S
C264 H235 0.950 . S
C264 C263 1.334 . S
C264 C265 1.287 . S
C265 C264 1.287 . S
C265 C266 1.524 . S
C265 H268 0.999 . S
C266 H236 0.950 . S
C266 C265 1.524 . S
C266 C267 1.415 . S
C267 H237 0.950 . S
C267 C262 1.363 . S
C267 C266 1.415 . S
H268 C265 0.999 . S
H269 C250 0.913 . S
H270 C288 0.951 . S
H271 C290 0.951 . S
H272 C292 0.950 1_545 S
H273 C293 0.946 1_545 S
H274 C295 0.948 1_545 S
H275 C298 0.950 . S
H276 C299 0.950 . S
H277 C301 0.950 1_554 S
H278 C302 0.950 1_554 S
H279 C303 0.951 . S
H280 C305 0.951 1_556 S
H281 C307 0.950 . S
H282 C308 0.950 . S
H283 C310 0.950 1_554 S
H284 C313 0.950 . S
H285 C314 0.950 . S
H286 C316 0.950 . S
H287 C317 0.950 . S
C288 H270 0.951 . S
C288 C289 1.366 . S
C288 C290 1.388 . S
C289 C288 1.366 . S
C289 C293 1.392 . S
C290 H271 0.951 . S
C290 C288 1.388 . S
C290 C291 1.366 . S
C291 C290 1.366 . S
C291 C292 1.414 . S
C291 C294 1.499 . S
C292 H272 0.950 1_565 S
C292 C291 1.414 . S
C292 C293 1.370 . S
C293 H273 0.946 1_565 S
C293 C289 1.392 . S
C293 C292 1.370 . S
C294 C291 1.499 . S
C294 C295 1.377 . S
C294 C296 1.389 . S
C295 H274 0.948 1_565 S
C295 C294 1.377 . S
C295 C311 1.375 . S
C296 C294 1.389 . S
C296 C297 1.524 . S
C296 C310 1.377 . S
C297 C296 1.524 . S
C297 C298 1.397 . S
C297 C302 1.363 . S
C298 H275 0.950 . S
C298 C297 1.397 . S
C298 C299 1.334 . S
C299 H276 0.950 . S
C299 C298 1.334 . S
C299 C300 1.287 . S
C300 C299 1.287 . S
C300 C301 1.524 . S
C300 H319 0.913 . S
C301 H277 0.950 1_556 S
C301 C300 1.524 . S
C301 C302 1.415 . S
C302 H278 0.950 1_556 S
C302 C297 1.363 . S
C302 C301 1.415 . S
C303 H279 0.951 . S
C303 C304 1.366 . S
C303 C305 1.388 . S
C304 C303 1.366 . S
C304 C308 1.385 . S
C305 H280 0.951 1_554 S
C305 C303 1.388 . S
C305 C306 1.366 . S
C306 C305 1.366 . S
C306 C307 1.414 . S
C306 C309 1.501 1_554 S
C307 H281 0.950 . S
C307 C306 1.414 . S
C307 C308 1.374 . S
C308 H282 0.950 . S
C308 C304 1.385 . S
C308 C307 1.374 . S
C309 C306 1.501 1_556 S
C309 C310 1.372 . S
C309 C311 1.388 . S
C310 H283 0.950 1_556 S
C310 C296 1.377 . S
C310 C309 1.372 . S
C311 C295 1.375 . S
C311 C309 1.388 . S
C311 C312 1.524 1_565 S
C312 C311 1.524 1_545 S
C312 C313 1.397 1_556 S
C312 C317 1.363 . S
C313 H284 0.950 . S
C313 C312 1.397 1_554 S
C313 C314 1.334 . S
C314 H285 0.950 . S
C314 C313 1.334 . S
C314 C315 1.291 . S
C315 C314 1.291 . S
C315 C316 1.517 1_554 S
C315 H318 1.002 . S
C316 H286 0.950 . S
C316 C315 1.517 1_556 S
C316 C317 1.415 . S
C317 H287 0.950 . S
C317 C312 1.363 . S
C317 C316 1.415 . S
H318 C315 1.002 . S
H319 C300 0.913 . S
H320 C338 0.951 . S
H321 C340 0.951 . S
H322 C342 0.950 . S
H323 C343 0.950 . S
H324 C345 0.950 . S
H325 C348 0.950 . S
H326 C349 0.950 . S
H327 C351 0.950 . S
H328 C352 0.950 . S
H329 C353 0.951 . S
H330 C355 0.951 . S
H331 C357 0.950 . S
H332 C358 0.950 . S
H333 C360 0.950 . S
H334 C363 0.950 . S
H335 C364 0.950 . S
H336 C366 0.950 . S
H337 C367 0.950 . S
C338 H320 0.951 . S
C338 C339 1.366 . S
C338 C340 1.388 . S
C339 C338 1.366 . S
C339 C343 1.385 . S
C340 H321 0.951 . S
C340 C338 1.388 . S
C340 C341 1.366 . S
C341 C340 1.366 . S
C341 C342 1.414 . S
C341 C344 1.499 . S
C342 H322 0.950 . S
C342 C341 1.414 . S
C342 C343 1.374 . S
C343 H323 0.950 . S
C343 C339 1.385 . S
C343 C342 1.374 . S
C344 C341 1.499 . S
C344 C345 1.373 . S
C344 C346 1.389 . S
C345 H324 0.950 . S
C345 C344 1.373 . S
C345 C361 1.377 . S
C346 C344 1.389 . S
C346 C347 1.524 . S
C346 C360 1.377 . S
C347 C346 1.524 . S
C347 C348 1.397 . S
C347 C352 1.363 . S
C348 H325 0.950 . S
C348 C347 1.397 . S
C348 C349 1.334 . S
C349 H326 0.950 . S
C349 C348 1.334 . S
C349 C350 1.287 1_545 S
C350 C349 1.287 1_565 S
C350 C351 1.524 . S
C350 H369 0.913 . S
C351 H327 0.950 . S
C351 C350 1.524 . S
C351 C352 1.415 1_565 S
C352 H328 0.950 . S
C352 C347 1.363 . S
C352 C351 1.415 1_545 S
C353 H329 0.951 . S
C353 C354 1.366 . S
C353 C355 1.388 . S
C354 C353 1.366 . S
C354 C358 1.385 . S
C355 H330 0.951 . S
C355 C353 1.388 . S
C355 C356 1.366 . S
C356 C355 1.366 . S
C356 C357 1.414 . S
C356 C359 1.499 . S
C357 H331 0.950 . S
C357 C356 1.414 . S
C357 C358 1.374 . S
C358 H332 0.950 . S
C358 C354 1.385 . S
C358 C357 1.374 . S
C359 C356 1.499 . S
C359 C360 1.373 . S
C359 C361 1.389 . S
C360 H333 0.950 . S
C360 C346 1.377 . S
C360 C359 1.373 . S
C361 C345 1.377 . S
C361 C359 1.389 . S
C361 C362 1.524 . S
C362 C361 1.524 . S
C362 C363 1.397 . S
C362 C367 1.363 . S
C363 H334 0.950 . S
C363 C362 1.397 . S
C363 C364 1.334 . S
C364 H335 0.950 . S
C364 C363 1.334 . S
C364 C365 1.287 . S
C365 C364 1.287 . S
C365 C366 1.524 . S
C365 H368 0.999 . S
C366 H336 0.950 . S
C366 C365 1.524 . S
C366 C367 1.415 . S
C367 H337 0.950 . S
C367 C362 1.363 . S
C367 C366 1.415 . S
H368 C365 0.999 . S
H369 C350 0.913 . S
H370 C388 0.951 . S
H371 C390 0.951 . S
H372 C392 0.950 . S
H373 C393 0.950 . S
H374 C395 0.950 . S
H375 C398 0.950 . S
H376 C399 0.950 . S
H377 C401 0.950 . S
H378 C402 0.950 . S
H379 C403 0.951 . S
H380 C405 0.951 . S
H381 C407 0.950 1_545 S
H382 C408 0.950 1_545 S
H383 C410 0.950 . S
H384 C413 0.950 1_545 S
H385 C414 0.950 1_545 S
H386 C416 0.950 . S
H387 C417 0.950 . S
C388 H370 0.951 . S
C388 C389 1.366 . S
C388 C390 1.388 . S
C389 C388 1.366 . S
C389 C393 1.385 . S
C390 H371 0.951 . S
C390 C388 1.388 . S
C390 C391 1.366 . S
C391 C390 1.366 . S
C391 C392 1.414 . S
C391 C394 1.499 . S
C392 H372 0.950 . S
C392 C391 1.414 . S
C392 C393 1.374 . S
C393 H373 0.950 . S
C393 C389 1.385 . S
C393 C392 1.374 . S
C394 C391 1.499 . S
C394 C395 1.373 . S
C394 C396 1.389 . S
C395 H374 0.950 . S
C395 C394 1.373 . S
C395 C411 1.377 . S
C396 C394 1.389 . S
C396 C397 1.524 . S
C396 C410 1.377 . S
C397 C396 1.524 . S
C397 C398 1.397 . S
C397 C402 1.363 . S
C398 H375 0.950 . S
C398 C397 1.397 . S
C398 C399 1.334 . S
C399 H376 0.950 . S
C399 C398 1.334 . S
C399 C400 1.287 . S
C400 C399 1.287 . S
C400 C401 1.524 . S
C400 H419 0.913 . S
C401 H377 0.950 . S
C401 C400 1.524 . S
C401 C402 1.415 . S
C402 H378 0.950 . S
C402 C397 1.363 . S
C402 C401 1.415 . S
C403 H379 0.951 . S
C403 C404 1.366 . S
C403 C405 1.388 . S
C404 C403 1.366 . S
C404 C408 1.385 . S
C405 H380 0.951 . S
C405 C403 1.388 . S
C405 C406 1.366 . S
C406 C405 1.366 . S
C406 C407 1.414 . S
C406 C409 1.499 . S
C407 H381 0.950 1_565 S
C407 C406 1.414 . S
C407 C408 1.374 . S
C408 H382 0.950 1_565 S
C408 C404 1.385 . S
C408 C407 1.374 . S
C409 C406 1.499 . S
C409 C410 1.373 . S
C409 C411 1.389 . S
C410 H383 0.950 . S
C410 C396 1.377 . S
C410 C409 1.373 . S
C411 C395 1.377 . S
C411 C409 1.389 . S
C411 C412 1.524 . S
C412 C411 1.524 . S
C412 C413 1.397 . S
C412 C417 1.363 . S
C413 H384 0.950 1_565 S
C413 C412 1.397 . S
C413 C414 1.334 . S
C414 H385 0.950 1_565 S
C414 C413 1.334 . S
C414 C415 1.287 . S
C415 C414 1.287 . S
C415 C416 1.524 . S
C415 H418 0.999 1_655 S
C416 H386 0.950 . S
C416 C415 1.524 . S
C416 C417 1.415 . S
C417 H387 0.950 . S
C417 C412 1.363 . S
C417 C416 1.415 . S
H418 C415 0.999 1_455 S
H419 C400 0.913 . S
H420 C438 0.951 . S
H421 C440 0.951 . S
H422 C442 0.950 . S
H423 C443 0.950 . S
H424 C445 0.950 . S
H425 C448 0.950 . S
H426 C449 0.950 1_445 S
H427 C451 0.948 1_545 S
H428 C452 0.950 . S
H429 C453 0.951 . S
H430 C455 0.951 . S
H431 C457 0.950 . S
H432 C458 0.950 . S
H433 C460 0.950 . S
H434 C463 0.950 . S
H435 C464 0.950 . S
H436 C466 0.950 . S
H437 C467 0.950 . S
C438 H420 0.951 . S
C438 C439 1.366 . S
C438 C440 1.388 . S
C439 C438 1.366 . S
C439 C443 1.385 . S
C440 H421 0.951 . S
C440 C438 1.388 . S
C440 C441 1.366 . S
C441 C440 1.366 . S
C441 C442 1.414 . S
C441 C444 1.499 . S
C442 H422 0.950 . S
C442 C441 1.414 . S
C442 C443 1.374 . S
C443 H423 0.950 . S
C443 C439 1.385 . S
C443 C442 1.374 . S
C444 C441 1.499 . S
C444 C445 1.373 . S
C444 C446 1.389 . S
C445 H424 0.950 . S
C445 C444 1.373 . S
C445 C461 1.377 1_556 S
C446 C444 1.389 . S
C446 C447 1.524 . S
C446 C460 1.377 1_556 S
C447 C446 1.524 . S
C447 C448 1.397 . S
C447 C452 1.363 . S
C448 H425 0.950 . S
C448 C447 1.397 . S
C448 C449 1.334 . S
C449 H426 0.950 1_665 S
C449 C448 1.334 . S
C449 C450 1.287 1_565 S
C450 C449 1.287 1_545 S
C450 C451 1.524 1_545 S
C450 H469 0.913 . S
C451 H427 0.948 1_565 S
C451 C450 1.524 1_565 S
C451 C452 1.415 . S
C452 H428 0.950 . S
C452 C447 1.363 . S
C452 C451 1.415 . S
C453 H429 0.951 . S
C453 C454 1.366 . S
C453 C455 1.388 . S
C454 C453 1.366 . S
C454 C458 1.385 . S
C455 H430 0.951 . S
C455 C453 1.388 . S
C455 C456 1.366 . S
C456 C455 1.366 . S
C456 C457 1.414 . S
C456 C459 1.499 . S
C457 H431 0.950 . S
C457 C456 1.414 . S
C457 C458 1.374 . S
C458 H432 0.950 . S
C458 C454 1.385 . S
C458 C457 1.374 . S
C459 C456 1.499 . S
C459 C460 1.373 . S
C459 C461 1.389 . S
C460 H433 0.950 . S
C460 C446 1.377 1_554 S
C460 C459 1.373 . S
C461 C445 1.377 1_554 S
C461 C459 1.389 . S
C461 C462 1.524 . S
C462 C461 1.524 . S
C462 C463 1.397 . S
C462 C467 1.363 . S
C463 H434 0.950 . S
C463 C462 1.397 . S
C463 C464 1.334 . S
C464 H435 0.950 . S
C464 C463 1.334 . S
C464 C465 1.287 . S
C465 C464 1.287 . S
C465 C466 1.524 . S
C465 H468 0.999 . S
C466 H436 0.950 . S
C466 C465 1.524 . S
C466 C467 1.415 . S
C467 H437 0.950 . S
C467 C462 1.363 . S
C467 C466 1.415 . S
H468 C465 0.999 . S
H469 C450 0.913 . S
H470 C488 0.951 . S
H471 C490 0.951 . S
H472 C492 0.950 . S
H473 C493 0.950 . S
H474 C495 0.950 . S
H475 C498 0.950 . S
H476 C499 0.950 . S
H477 C501 0.950 . S
H478 C502 0.950 . S
H479 C503 0.951 . S
H480 C505 0.951 . S
H481 C507 0.950 . S
H482 C508 0.950 . S
H483 C510 0.950 . S
H484 C513 0.950 . S
H485 C514 0.950 . S
H486 C516 0.950 . S
H487 C517 0.950 . S
C488 H470 0.951 . S
C488 C489 1.366 . S
C488 C490 1.388 . S
C489 C488 1.366 . S
C489 C493 1.385 . S
C490 H471 0.951 . S
C490 C488 1.388 . S
C490 C491 1.366 . S
C491 C490 1.366 . S
C491 C492 1.414 . S
C491 C494 1.499 . S
C492 H472 0.950 . S
C492 C491 1.414 . S
C492 C493 1.374 . S
C493 H473 0.950 . S
C493 C489 1.385 . S
C493 C492 1.374 . S
C494 C491 1.499 . S
C494 C495 1.373 . S
C494 C496 1.389 . S
C495 H474 0.950 . S
C495 C494 1.373 . S
C495 C511 1.377 . S
C496 C494 1.389 . S
C496 C497 1.524 . S
C496 C510 1.377 . S
C497 C496 1.524 . S
C497 C498 1.397 . S
C497 C502 1.363 . S
C498 H475 0.950 . S
C498 C497 1.397 . S
C498 C499 1.334 . S
C499 H476 0.950 . S
C499 C498 1.334 . S
C499 C500 1.287 . S
C500 C499 1.287 . S
C500 C501 1.524 . S
C500 H519 0.913 . S
C501 H477 0.950 . S
C501 C500 1.524 . S
C501 C502 1.415 . S
C502 H478 0.950 . S
C502 C497 1.363 . S
C502 C501 1.415 . S
C503 H479 0.951 . S
C503 C504 1.366 . S
C503 C505 1.388 . S
C504 C503 1.366 . S
C504 C508 1.385 . S
C505 H480 0.951 . S
C505 C503 1.388 . S
C505 C506 1.366 . S
C506 C505 1.366 . S
C506 C507 1.414 . S
C506 C509 1.499 . S
C507 H481 0.950 . S
C507 C506 1.414 . S
C507 C508 1.374 . S
C508 H482 0.950 . S
C508 C504 1.385 . S
C508 C507 1.374 . S
C509 C506 1.499 . S
C509 C510 1.373 . S
C509 C511 1.389 . S
C510 H483 0.950 . S
C510 C496 1.377 . S
C510 C509 1.373 . S
C511 C495 1.377 . S
C511 C509 1.389 . S
C511 C512 1.524 . S
C512 C511 1.524 . S
C512 C513 1.397 . S
C512 C517 1.363 . S
C513 H484 0.950 . S
C513 C512 1.397 . S
C513 C514 1.334 . S
C514 H485 0.950 . S
C514 C513 1.334 . S
C514 C515 1.287 . S
C515 C514 1.287 . S
C515 C516 1.524 . S
C515 H518 0.999 . S
C516 H486 0.950 . S
C516 C515 1.524 . S
C516 C517 1.415 . S
C517 H487 0.950 . S
C517 C512 1.363 . S
C517 C516 1.415 . S
H518 C515 0.999 . S
H519 C500 0.913 . S
H520 C538 0.951 . S
H521 C540 0.951 . S
H522 C542 0.950 . S
H523 C543 0.950 . S
H524 C545 0.950 1_455 S
H525 C548 0.950 . S
H526 C549 0.950 . S
H527 C551 0.950 . S
H528 C552 0.950 . S
H529 C553 0.951 . S
H530 C555 0.951 . S
H531 C557 0.950 . S
H532 C558 0.950 . S
H533 C560 0.950 . S
H534 C563 0.950 . S
H535 C564 0.950 . S
H536 C566 0.950 . S
H537 C567 0.950 . S
C538 H520 0.951 . S
C538 C539 1.366 . S
C538 C540 1.388 . S
C539 C538 1.366 . S
C539 C543 1.385 . S
C540 H521 0.951 . S
C540 C538 1.388 . S
C540 C541 1.366 . S
C541 C540 1.366 . S
C541 C542 1.414 . S
C541 C544 1.499 . S
C542 H522 0.950 . S
C542 C541 1.414 . S
C542 C543 1.374 . S
C543 H523 0.950 . S
C543 C539 1.385 . S
C543 C542 1.374 . S
C544 C541 1.499 . S
C544 C545 1.373 . S
C544 C546 1.389 . S
C545 H524 0.950 1_655 S
C545 C544 1.373 . S
C545 C561 1.377 . S
C546 C544 1.389 . S
C546 C547 1.524 . S
C546 C560 1.377 . S
C547 C546 1.524 . S
C547 C548 1.397 . S
C547 C552 1.363 . S
C548 H525 0.950 . S
C548 C547 1.397 . S
C548 C549 1.334 . S
C549 H526 0.950 . S
C549 C548 1.334 . S
C549 C550 1.287 . S
C550 C549 1.287 . S
C550 C551 1.524 . S
C550 H569 0.913 . S
C551 H527 0.950 . S
C551 C550 1.524 . S
C551 C552 1.415 . S
C552 H528 0.950 . S
C552 C547 1.363 . S
C552 C551 1.415 . S
C553 H529 0.951 . S
C553 C554 1.366 . S
C553 C555 1.388 . S
C554 C553 1.366 . S
C554 C558 1.385 . S
C555 H530 0.951 . S
C555 C553 1.388 . S
C555 C556 1.366 . S
C556 C555 1.366 . S
C556 C557 1.414 . S
C556 C559 1.499 . S
C557 H531 0.950 . S
C557 C556 1.414 . S
C557 C558 1.374 . S
C558 H532 0.950 . S
C558 C554 1.385 . S
C558 C557 1.374 . S
C559 C556 1.499 . S
C559 C560 1.373 . S
C559 C561 1.389 . S
C560 H533 0.950 . S
C560 C546 1.377 . S
C560 C559 1.373 . S
C561 C545 1.377 . S
C561 C559 1.389 . S
C561 C562 1.524 1_655 S
C562 C561 1.524 1_455 S
C562 C563 1.397 . S
C562 C567 1.363 . S
C563 H534 0.950 . S
C563 C562 1.397 . S
C563 C564 1.334 . S
C564 H535 0.950 . S
C564 C563 1.334 . S
C564 C565 1.287 . S
C565 C564 1.287 . S
C565 C566 1.524 . S
C565 H568 0.999 . S
C566 H536 0.950 . S
C566 C565 1.524 . S
C566 C567 1.415 . S
C567 H537 0.950 . S
C567 C562 1.363 . S
C567 C566 1.415 . S
H568 C565 0.999 . S
H569 C550 0.913 . S
C139 C9 1.334 1_455 S
C154 C18 1.334 1_655 S
C189 C58 1.415 1_545 S
C204 C49 1.415 . S
C239 C89 1.190 1_545 S
C254 C98 1.190 . S
C289 C86 0.888 . S
C304 C15 0.887 . S
C339 C59 1.803 . S
C354 C6 1.778 . S
C389 C99 2.261 . S
C404 C50 2.260 . S
C439 C90 2.187 . S
C454 C19 2.167 . S
C489 C10 1.484 . S
C504 C55 1.440 . S
C539 C95 0.878 . S
C554 C46 0.883 . S
