# Generated by pormake.
# Topology uoq, (4)-cn, num edge types: 1
# Building blocks:
#     Node 0, Type 0, BuildingBlock: GALJAG_clean_sbu_0, # of connection points: 4
#     Node 1, Type 0, BuildingBlock: GALJAG_clean_sbu_0, # of connection points: 4
#     Node 2, Type 0, BuildingBlock: GALJAG_clean_sbu_0, # of connection points: 4
#     Node 3, Type 0, BuildingBlock: GALJAG_clean_sbu_0, # of connection points: 4
#     Node 4, Type 0, BuildingBlock: GALJAG_clean_sbu_0, # of connection points: 4
#     Node 5, Type 0, BuildingBlock: GALJAG_clean_sbu_0, # of connection points: 4
#     Node 6, Type 0, BuildingBlock: GALJAG_clean_sbu_0, # of connection points: 4
#     Node 7, Type 0, BuildingBlock: GALJAG_clean_sbu_0, # of connection points: 4
#     Node 8, Type 0, BuildingBlock: GALJAG_clean_sbu_0, # of connection points: 4
#     Node 9, Type 0, BuildingBlock: GALJAG_clean_sbu_0, # of connection points: 4
#     Node 10, Type 0, BuildingBlock: GALJAG_clean_sbu_0, # of connection points: 4
#     Node 11, Type 0, BuildingBlock: GALJAG_clean_sbu_0, # of connection points: 4
#     Edge 12, Type (0, 0), BuildingBlock: XIVTED_clean_linker_0, # of connection points: 2
#     Edge 13, Type (0, 0), BuildingBlock: XIVTED_clean_linker_0, # of connection points: 2
#     Edge 14, Type (0, 0), BuildingBlock: XIVTED_clean_linker_0, # of connection points: 2
#     Edge 15, Type (0, 0), BuildingBlock: XIVTED_clean_linker_0, # of connection points: 2
#     Edge 16, Type (0, 0), BuildingBlock: XIVTED_clean_linker_0, # of connection points: 2
#     Edge 17, Type (0, 0), BuildingBlock: XIVTED_clean_linker_0, # of connection points: 2
#     Edge 18, Type (0, 0), BuildingBlock: XIVTED_clean_linker_0, # of connection points: 2
#     Edge 19, Type (0, 0), BuildingBlock: XIVTED_clean_linker_0, # of connection points: 2
#     Edge 20, Type (0, 0), BuildingBlock: XIVTED_clean_linker_0, # of connection points: 2
#     Edge 21, Type (0, 0), BuildingBlock: XIVTED_clean_linker_0, # of connection points: 2
#     Edge 22, Type (0, 0), BuildingBlock: XIVTED_clean_linker_0, # of connection points: 2
#     Edge 23, Type (0, 0), BuildingBlock: XIVTED_clean_linker_0, # of connection points: 2
#     Edge 24, Type (0, 0), BuildingBlock: XIVTED_clean_linker_0, # of connection points: 2
#     Edge 25, Type (0, 0), BuildingBlock: XIVTED_clean_linker_0, # of connection points: 2
#     Edge 26, Type (0, 0), BuildingBlock: XIVTED_clean_linker_0, # of connection points: 2
#     Edge 27, Type (0, 0), BuildingBlock: XIVTED_clean_linker_0, # of connection points: 2
#     Edge 28, Type (0, 0), BuildingBlock: XIVTED_clean_linker_0, # of connection points: 2
#     Edge 29, Type (0, 0), BuildingBlock: XIVTED_clean_linker_0, # of connection points: 2
#     Edge 30, Type (0, 0), BuildingBlock: XIVTED_clean_linker_0, # of connection points: 2
#     Edge 31, Type (0, 0), BuildingBlock: XIVTED_clean_linker_0, # of connection points: 2
#     Edge 32, Type (0, 0), BuildingBlock: XIVTED_clean_linker_0, # of connection points: 2
#     Edge 33, Type (0, 0), BuildingBlock: XIVTED_clean_linker_0, # of connection points: 2
#     Edge 34, Type (0, 0), BuildingBlock: XIVTED_clean_linker_0, # of connection points: 2
#     Edge 35, Type (0, 0), BuildingBlock: XIVTED_clean_linker_0, # of connection points: 2
# Relax obj value: 0.135
# Max RMSD: 0.151
# Mean RMSD: 0.151
data_MOF--net-uoq--node1-GALJAG_clean_sbu_0--edge1-XIVTED_clean_linker_0
_symmetry_space_group_name_H-M    P1
_symmetry_Int_Tables_number       1
_symmetry_cell_setting            triclinic
loop_
_symmetry_equiv_pos_as_xyz
'x, y, z'
_cell_length_a     63.108776
_cell_length_b     63.013992
_cell_length_c     20.363115
_cell_angle_alpha  89.954874
_cell_angle_beta   90.078751
_cell_angle_gamma 120.00712
loop_
_atom_site_label
_atom_site_type_symbol
_atom_site_fract_x
_atom_site_fract_y
_atom_site_fract_z
_atom_type_partial_charge
In0 In 0.30831 0.44477 0.24544 0.0
O1 O 0.27526 0.42517 0.31216 0.0
O2 O 0.29606 0.46414 0.31622 0.0
C3 C 0.31929 0.40893 0.26113 0.0
C4 C 0.28126 0.44424 0.14152 0.0
C5 C 0.35322 0.48328 0.26813 0.0
O6 O 0.30777 0.41392 0.30299 0.0
O7 O 0.3247 0.42155 0.20908 0.0
O8 O 0.34568 0.47584 0.21047 0.0
O9 O 0.33824 0.47126 0.31297 0.0
C10 C 0.2781 0.44467 0.33761 0.0
O11 O 0.2799 0.42499 0.16433 0.0
O12 O 0.29746 0.46373 0.16794 0.0
In13 In 0.85998 0.30991 0.59124 0.0
O14 O 0.84634 0.27548 0.65297 0.0
O15 O 0.83253 0.29945 0.67355 0.0
C16 C 0.90678 0.32049 0.60232 0.0
C17 C 0.83105 0.28217 0.49143 0.0
C18 C 0.86657 0.35522 0.60903 0.0
O19 O 0.89072 0.30894 0.64519 0.0
O20 O 0.89912 0.32611 0.55149 0.0
O21 O 0.86375 0.34592 0.55241 0.0
O22 O 0.86618 0.34177 0.65532 0.0
C23 C 0.83248 0.27994 0.68766 0.0
O24 O 0.82631 0.29588 0.52579 0.0
O25 O 0.85133 0.28367 0.50427 0.0
In26 In 0.54879 0.86418 0.89544 0.0
O27 O 0.56965 0.85143 0.96008 0.0
O28 O 0.53106 0.82831 0.95103 0.0
C29 C 0.58224 0.91163 0.91625 0.0
C30 C 0.55129 0.84192 0.78463 0.0
C31 C 0.50842 0.86642 0.92619 0.0
O32 O 0.57686 0.89501 0.95818 0.0
O33 O 0.57125 0.90428 0.86187 0.0
O34 O 0.51658 0.86968 0.86816 0.0
O35 O 0.52056 0.86207 0.96775 0.0
C36 C 0.55082 0.83154 0.97552 0.0
O37 O 0.53156 0.83982 0.80572 0.0
O38 O 0.57006 0.85683 0.81643 0.0
In39 In 0.68023 0.54743 0.23808 0.0
O40 O 0.70936 0.56765 0.31625 0.0
O41 O 0.69308 0.52892 0.31036 0.0
C42 C 0.66635 0.58144 0.23912 0.0
C43 C 0.70823 0.54834 0.13579 0.0
C44 C 0.63619 0.50857 0.26559 0.0
O45 O 0.68479 0.58401 0.27009 0.0
O46 O 0.65567 0.56234 0.20428 0.0
O47 O 0.6444 0.51354 0.20752 0.0
O48 O 0.65008 0.5233 0.30888 0.0
C49 C 0.70825 0.54846 0.33864 0.0
O50 O 0.69276 0.52887 0.16367 0.0
O51 O 0.70842 0.56729 0.15626 0.0
In52 In 0.12722 0.68351 0.56988 0.0
O53 O 0.15077 0.6914 0.47865 0.0
O54 O 0.13688 0.71525 0.49895 0.0
C55 C 0.12345 0.63975 0.59741 0.0
C56 C 0.15953 0.71291 0.66024 0.0
C57 C 0.08079 0.6746 0.57541 0.0
O58 O 0.12267 0.64633 0.53931 0.0
O59 O 0.12614 0.65513 0.64067 0.0
O60 O 0.09774 0.69033 0.61083 0.0
O61 O 0.08747 0.66412 0.53429 0.0
C62 C 0.15035 0.71058 0.46304 0.0
O63 O 0.13678 0.70155 0.6705 0.0
O64 O 0.16597 0.70927 0.60481 0.0
In65 In 0.44199 0.13135 0.91895 0.0
O66 O 0.42221 0.14765 0.97441 0.0
O67 O 0.45604 0.15349 0.01269 0.0
C68 C 0.40913 0.08451 0.94778 0.0
C69 C 0.43929 0.15562 0.8121 0.0
C70 C 0.48462 0.13138 0.92174 0.0
O71 O 0.41989 0.10091 0.99056 0.0
O72 O 0.41472 0.09169 0.88897 0.0
O73 O 0.48286 0.14992 0.93585 0.0
O74 O 0.46494 0.11288 0.90299 0.0
C75 C 0.43825 0.15712 0.01865 0.0
O76 O 0.42058 0.14011 0.84279 0.0
O77 O 0.459 0.15736 0.83199 0.0
In78 In 0.54717 0.68288 0.3977 0.0
O79 O 0.52959 0.6945 0.3195 0.0
O80 O 0.56834 0.71514 0.32848 0.0
C81 C 0.5809 0.66865 0.39281 0.0
C82 C 0.54678 0.71003 0.50054 0.0
C83 C 0.5081 0.63877 0.37181 0.0
O84 O 0.5825 0.68617 0.35916 0.0
O85 O 0.56302 0.65916 0.43198 0.0
O86 O 0.51398 0.64677 0.42989 0.0
O87 O 0.52193 0.65299 0.32764 0.0
C88 C 0.54943 0.71219 0.29918 0.0
O89 O 0.52785 0.69549 0.469 0.0
O90 O 0.5658 0.70973 0.48327 0.0
In91 In 0.86073 0.54908 0.74081 0.0
O92 O 0.84592 0.56945 0.68194 0.0
O93 O 0.82485 0.53049 0.68535 0.0
C94 C 0.90638 0.58372 0.70694 0.0
C95 C 0.83933 0.55085 0.85398 0.0
C96 C 0.86512 0.50942 0.71669 0.0
O97 O 0.88899 0.5735 0.66665 0.0
O98 O 0.9008 0.57683 0.76587 0.0
O99 O 0.87168 0.52073 0.77088 0.0
O100 O 0.85628 0.518 0.67609 0.0
C101 C 0.82673 0.55023 0.66463 0.0
O102 O 0.83704 0.53121 0.83115 0.0
O103 O 0.85407 0.56985 0.82271 0.0
In104 In 0.30994 0.86104 0.07443 0.0
O105 O 0.30003 0.83634 0.16427 0.0
O106 O 0.27877 0.85325 0.14518 0.0
C107 C 0.35308 0.86364 0.04646 0.0
C108 C 0.27971 0.82959 0.98384 0.0
C109 C 0.32075 0.90813 0.0698 0.0
O110 O 0.34675 0.86456 0.1047 0.0
O111 O 0.33774 0.86132 0.00348 0.0
O112 O 0.30531 0.89179 0.03238 0.0
O113 O 0.33007 0.90055 0.11214 0.0
C114 C 0.28182 0.83844 0.18013 0.0
O115 O 0.29088 0.85248 0.97527 0.0
O116 O 0.28398 0.82257 0.03769 0.0
In117 In 0.44346 0.3113 0.42194 0.0
O118 O 0.46005 0.3041 0.51287 0.0
O119 O 0.42145 0.2837 0.50249 0.0
C120 C 0.48403 0.35434 0.39524 0.0
C121 C 0.44078 0.27556 0.34545 0.0
C122 C 0.41 0.32419 0.39051 0.0
O123 O 0.47321 0.35037 0.44994 0.0
O124 O 0.47456 0.33664 0.3556 0.0
O125 O 0.41909 0.31606 0.34953 0.0
O126 O 0.41745 0.32553 0.44891 0.0
C127 C 0.44 0.28704 0.53449 0.0
O128 O 0.42238 0.27777 0.35748 0.0
O129 O 0.46051 0.2915 0.37159 0.0
In130 In 0.12942 0.44724 0.74787 0.0
O131 O 0.15425 0.46497 0.83653 0.0
O132 O 0.13645 0.42626 0.82857 0.0
C133 C 0.12552 0.48707 0.7219 0.0
C134 C 0.16213 0.44544 0.66816 0.0
C135 C 0.08304 0.4128 0.71983 0.0
O136 O 0.12047 0.47704 0.77792 0.0
O137 O 0.13261 0.47713 0.68045 0.0
O138 O 0.09994 0.42161 0.67795 0.0
O139 O 0.0895 0.42102 0.77747 0.0
C140 C 0.15173 0.44521 0.85913 0.0
O141 O 0.14282 0.42642 0.6859 0.0
O142 O 0.16486 0.4653 0.69062 0.0
In143 In 0.67835 0.13265 0.09453 0.0
O144 O 0.68266 0.15149 0.19389 0.0
O145 O 0.70781 0.13971 0.17026 0.0
C146 C 0.63696 0.13359 0.06738 0.0
C147 C 0.71412 0.16469 0.01627 0.0
C148 C 0.66422 0.08625 0.05971 0.0
O149 O 0.65733 0.14789 0.04159 0.0
O150 O 0.63731 0.1189 0.10909 0.0
O151 O 0.67069 0.10343 0.01887 0.0
O152 O 0.66507 0.09244 0.11918 0.0
C153 C 0.70186 0.15124 0.20964 0.0
O154 O 0.71002 0.14308 0.02404 0.0
O155 O 0.7001 0.1699 0.04757 0.0
H156 H 0.31303 0.3837 0.37471 0.0
H157 H 0.39748 0.32892 0.26568 0.0
H158 H 0.34578 0.39531 0.18249 0.0
H159 H 0.38431 0.33907 0.46808 0.0
H160 H 0.37192 0.34588 0.231 0.0
H161 H 0.33211 0.35965 0.40522 0.0
C162 C 0.32398 0.38092 0.33857 0.0
C163 C 0.32802 0.39169 0.27609 0.0
C164 C 0.37451 0.34426 0.28296 0.0
C165 C 0.34994 0.36426 0.31094 0.0
C166 C 0.38902 0.33452 0.30289 0.0
C167 C 0.39313 0.33276 0.36993 0.0
C168 C 0.36383 0.35207 0.33041 0.0
C169 C 0.38172 0.34026 0.41593 0.0
C170 C 0.33495 0.36729 0.35621 0.0
C171 C 0.34231 0.38742 0.23125 0.0
N172 N 0.36759 0.34966 0.39529 0.0
N173 N 0.35289 0.37411 0.24969 0.0
H174 H 0.92682 0.31426 0.71386 0.0
H175 H 0.06487 0.39903 0.59623 0.0
H176 H 0.94607 0.3469 0.52097 0.0
H177 H 0.04321 0.38734 0.79999 0.0
H178 H 0.02214 0.37288 0.56421 0.0
H179 H 0.9702 0.33357 0.74137 0.0
C180 C 0.9402 0.32522 0.6769 0.0
C181 C 0.93286 0.32919 0.61517 0.0
C182 C 0.02677 0.37591 0.61589 0.0
C183 C 0.98249 0.35135 0.64658 0.0
C184 C 0.05113 0.39076 0.6343 0.0
C185 C 0.05752 0.39548 0.70093 0.0
C186 C 0.00869 0.36549 0.66447 0.0
C187 C 0.03901 0.38428 0.74811 0.0
C188 C 0.96493 0.33632 0.69285 0.0
C189 C 0.95097 0.34349 0.56921 0.0
N190 N 0.01537 0.36981 0.72894 0.0
N191 N 0.97501 0.3542 0.586 0.0
H192 H 0.59625 0.95182 0.83734 0.0
H193 H 0.65136 0.04588 0.13656 0.0
H194 H 0.60433 0.93076 0.03342 0.0
H195 H 0.65674 0.06872 0.93448 0.0
H196 H 0.63449 0.0035 0.09945 0.0
H197 H 0.61913 0.99491 0.87099 0.0
C198 C 0.60308 0.95628 0.88719 0.0
C199 C 0.59829 0.93773 0.93274 0.0
C200 C 0.63954 0.01782 0.06319 0.0
C201 C 0.62413 0.9868 0.97181 0.0
C202 C 0.64912 0.04198 0.08441 0.0
C203 C 0.65533 0.06077 0.03856 0.0
C204 C 0.63595 0.01243 -0.0043 0.0
C205 C 0.65212 0.05475 0.97153 0.0
C206 C 0.6161 0.98085 0.90644 0.0
C207 C 0.60753 0.9445 -0.00325 0.0
N208 N 0.64247 0.03108 0.95213 0.0
N209 N 0.6198 0.96846 0.01454 0.0
H210 H 0.68977 0.62895 0.28181 0.0
H211 H 0.56907 0.62134 0.4129 0.0
H212 H 0.61849 0.56878 0.23106 0.0
H213 H 0.62641 0.69026 0.33719 0.0
H214 H 0.59096 0.60124 0.37082 0.0
H215 H 0.67025 0.65187 0.3221 0.0
C216 C 0.67008 0.62077 0.27821 0.0
C217 C 0.65567 0.59706 0.25276 0.0
C218 C 0.59881 0.62081 0.36414 0.0
C219 C 0.63345 0.62255 0.30094 0.0
C220 C 0.58654 0.63232 0.38876 0.0
C221 C 0.59602 0.65746 0.37843 0.0
C222 C 0.62093 0.63465 0.33038 0.0
C223 C 0.61855 0.67081 0.34603 0.0
C224 C 0.65903 0.63377 0.30136 0.0
C225 C 0.63024 0.58712 0.24969 0.0
N226 N 0.63038 0.65924 0.32321 0.0
N227 N 0.61988 0.59976 0.27461 0.0
H228 H 0.92293 0.59428 0.58126 0.0
H229 H 0.06182 0.6863 0.68026 0.0
H230 H 0.94693 0.6125 0.78235 0.0
H231 H 0.04082 0.64396 0.50125 0.0
H232 H 0.01863 0.66742 0.7106 0.0
H233 H 0.96509 0.62036 0.54469 0.0
C234 C 0.93705 0.60398 0.61775 0.0
C235 C 0.9315 0.60109 0.68504 0.0
C236 C 0.0235 0.66253 0.66435 0.0
C237 C 0.97967 0.63104 0.64332 0.0
C238 C 0.04809 0.67338 0.64672 0.0
C239 C 0.05486 0.66651 0.58833 0.0
C240 C 0.00559 0.64494 0.62287 0.0
C241 C 0.03635 0.64965 0.54685 0.0
C242 C 0.96108 0.61879 0.59676 0.0
C243 C 0.95049 0.61411 0.73007 0.0
N244 N 0.01251 0.63933 0.56507 0.0
N245 N 0.97382 0.62853 0.70838 0.0
H246 H 0.35105 0.94695 0.14792 0.0
H247 H 0.38044 0.04539 0.86773 0.0
H248 H 0.3109 0.9289 0.96541 0.0
H249 H 0.4003 0.06512 0.07068 0.0
H250 H 0.35532 0.00239 0.9012 0.0
H251 H 0.36973 0.99046 0.12032 0.0
C252 C 0.34593 0.95218 0.10251 0.0
C253 C 0.32951 0.93436 0.05877 0.0
C254 C 0.365 0.01621 0.93838 0.0
C255 C 0.35109 0.98393 0.02628 0.0
C256 C 0.37937 0.04069 0.91926 0.0
C257 C 0.39254 0.05876 0.96644 0.0
C258 C 0.36416 0.00984 0.00492 0.0
C259 C 0.39049 0.05174 0.03263 0.0
C260 C 0.35658 0.97698 0.08672 0.0
C261 C 0.3235 0.94209 0.00051 0.0
N262 N 0.37679 0.02781 0.04982 0.0
N263 N 0.33454 0.96631 0.98549 0.0
H264 H 0.1885 0.484 0.92469 0.0
H265 H 0.24214 0.40436 0.08532 0.0
H266 H 0.15386 0.40545 0.905 0.0
H267 H 0.27822 0.48326 0.09481 0.0
H268 H 0.20922 0.40409 0.02087 0.0
H269 H 0.22031 0.48369 0.99249 0.0
C270 C 0.18737 0.46663 0.93552 0.0
C271 C 0.16851 0.44472 0.9091 0.0
C272 C 0.22441 0.42147 0.03673 0.0
C273 C 0.20515 0.44426 0.98569 0.0
C274 C 0.2433 0.42164 0.07309 0.0
C275 C 0.26299 0.44387 0.09527 0.0
C276 C 0.22518 0.44369 0.02269 0.0
C277 C 0.26344 0.4657 0.0785 0.0
C278 C 0.20566 0.46648 0.97381 0.0
C279 C 0.16804 0.42277 0.92447 0.0
N280 N 0.24478 0.46505 0.0435 0.0
N281 N 0.18619 0.42311 0.9614 0.0
H282 H 0.83489 0.24734 0.42025 0.0
H283 H 0.69641 0.18292 0.29029 0.0
H284 H 0.78516 0.27375 0.46323 0.0
H285 H 0.74631 0.15701 0.2442 0.0
H286 H 0.72795 0.21484 0.35943 0.0
H287 H 0.80248 0.2136 0.35733 0.0
C288 C 0.81724 0.24621 0.41579 0.0
C289 C 0.81275 0.26344 0.44679 0.0
C290 C 0.73193 0.20202 0.33473 0.0
C291 C 0.77542 0.22463 0.37591 0.0
C292 C 0.71384 0.18365 0.29573 0.0
C293 C 0.71875 0.1673 0.26134 0.0
C294 C 0.75514 0.20413 0.33923 0.0
C295 C 0.74173 0.16922 0.26984 0.0
C296 C 0.79868 0.22683 0.3803 0.0
C297 C 0.78947 0.26094 0.43989 0.0
N298 N 0.75913 0.18743 0.30747 0.0
N299 N 0.77168 0.24188 0.40538 0.0
H300 H 0.59075 0.83874 0.74203 0.0
H301 H 0.50818 0.71493 0.5403 0.0
H302 H 0.51271 0.806 0.71641 0.0
H303 H 0.58627 0.74728 0.56377 0.0
H304 H 0.50964 0.7482 0.60514 0.0
H305 H 0.5899 0.80633 0.67392 0.0
C306 C 0.5735 0.82497 0.72116 0.0
C307 C 0.55176 0.82507 0.73491 0.0
C308 C 0.52646 0.748 0.59647 0.0
C309 C 0.55057 0.78766 0.65801 0.0
C310 C 0.52561 0.72889 0.55981 0.0
C311 C 0.54713 0.7283 0.54675 0.0
C312 C 0.54902 0.76675 0.62026 0.0
C313 C 0.56922 0.74697 0.57292 0.0
C314 C 0.57299 0.80635 0.68273 0.0
C315 C 0.52991 0.80666 0.70701 0.0
N316 N 0.56962 0.76549 0.60824 0.0
N317 N 0.52986 0.78863 0.67028 0.0
H318 H 0.74629 0.58859 0.07762 0.0
H319 H 0.80386 0.51182 0.92187 0.0
H320 H 0.71325 0.51004 0.09294 0.0
H321 H 0.83609 0.59004 0.89918 0.0
H322 H 0.77183 0.51131 0.99019 0.0
H323 H 0.7798 0.58982 0.01399 0.0
C324 C 0.74593 0.57157 0.06688 0.0
C325 C 0.72691 0.54917 0.0904 0.0
C326 C 0.78601 0.52864 0.97078 0.0
C327 C 0.76539 0.55048 0.01873 0.0
C328 C 0.80444 0.52896 0.9322 0.0
C329 C 0.82266 0.55101 0.90471 0.0
C330 C 0.78572 0.5505 0.98186 0.0
C331 C 0.82241 0.57264 0.91947 0.0
C332 C 0.76515 0.5723 0.03099 0.0
C333 C 0.72748 0.52771 0.07555 0.0
N334 N 0.80412 0.57182 0.95664 0.0
N335 N 0.74644 0.52891 0.04091 0.0
H336 H 0.18571 0.70751 0.39409 0.0
H337 H 0.2408 0.83877 0.22295 0.0
H338 H 0.15482 0.75432 0.42374 0.0
H339 H 0.28017 0.79949 0.24345 0.0
H340 H 0.20748 0.80721 0.28924 0.0
H341 H 0.21805 0.7395 0.32752 0.0
C342 C 0.18552 0.72439 0.38578 0.0
C343 C 0.16756 0.72826 0.41457 0.0
C344 C 0.22352 0.80566 0.27965 0.0
C345 C 0.20477 0.76515 0.33905 0.0
C346 C 0.24258 0.8237 0.24217 0.0
C347 C 0.2633 0.82176 0.2278 0.0
C348 C 0.22509 0.7854 0.30209 0.0
C349 C 0.26459 0.80178 0.25352 0.0
C350 C 0.20414 0.74275 0.34827 0.0
C351 C 0.16831 0.75057 0.40238 0.0
N352 N 0.24566 0.78428 0.28889 0.0
N353 N 0.18668 0.76824 0.36563 0.0
H354 H 0.47812 0.1937 0.75085 0.0
H355 H 0.39935 0.24666 0.58317 0.0
H356 H 0.39962 0.15858 0.76925 0.0
H357 H 0.47816 0.28648 0.59608 0.0
H358 H 0.39856 0.21375 0.64918 0.0
H359 H 0.47798 0.22655 0.68767 0.0
C360 C 0.46079 0.19271 0.74075 0.0
C361 C 0.43884 0.17335 0.76529 0.0
C362 C 0.416 0.22981 0.63813 0.0
C363 C 0.43857 0.21118 0.69384 0.0
C364 C 0.41646 0.24868 0.60089 0.0
C365 C 0.43886 0.26935 0.5841 0.0
C366 C 0.43812 0.23153 0.65817 0.0
C367 C 0.46047 0.27092 0.60795 0.0
C368 C 0.46074 0.21161 0.70519 0.0
C369 C 0.41696 0.17312 0.75105 0.0
N370 N 0.45957 0.25217 0.64322 0.0
N371 N 0.41737 0.19181 0.71641 0.0
H372 H 0.15996 0.40515 0.61159 0.0
H373 H 0.28165 0.48424 0.40154 0.0
H374 H 0.20449 0.48393 0.6226 0.0
H375 H 0.23768 0.40542 0.38989 0.0
H376 H 0.25419 0.48425 0.48564 0.0
H377 H 0.18899 0.40456 0.53335 0.0
C378 C 0.17591 0.4223 0.59766 0.0
C379 C 0.17985 0.44464 0.62317 0.0
C380 C 0.25055 0.46693 0.46482 0.0
C381 C 0.21298 0.44413 0.53395 0.0
C382 C 0.26619 0.46693 0.41678 0.0
C383 C 0.2618 0.4448 0.38872 0.0
C384 C 0.23036 0.44464 0.48474 0.0
C385 C 0.24162 0.42288 0.41029 0.0
C386 C 0.19245 0.42196 0.55305 0.0
C387 C 0.20077 0.46633 0.60381 0.0
N388 N 0.22656 0.42335 0.45703 0.0
N389 N 0.21653 0.46554 0.56011 0.0
H390 H 0.82687 0.23555 0.72274 0.0
H391 H 0.72642 0.21207 -0.00478 0.0
H392 H 0.80312 0.28704 0.77155 0.0
H393 H 0.7455 0.1577 0.93889 0.0
H394 H 0.75713 0.24101 0.91953 0.0
H395 H 0.79969 0.20787 0.8077 0.0
C396 C 0.816 0.24104 0.75156 0.0
C397 C 0.81705 0.26348 0.74006 0.0
C398 C 0.75469 0.22278 0.92376 0.0
C399 C 0.7861 0.23209 0.83683 0.0
C400 C 0.73716 0.20626 0.96697 0.0
C401 C 0.73336 0.18246 0.97281 0.0
C402 C 0.76847 0.21541 0.88601 0.0
C403 C 0.74784 0.1759 0.93546 0.0
C404 C 0.80052 0.22526 0.79993 0.0
C405 C 0.80271 0.26982 0.77869 0.0
N406 N 0.76474 0.1923 0.89326 0.0
N407 N 0.78775 0.25414 0.82527 0.0
H408 H 0.5907 0.8347 0.03783 0.0
H409 H 0.51141 0.70722 0.22488 0.0
H410 H 0.51288 0.78726 0.01222 0.0
H411 H 0.58912 0.7541 0.25405 0.0
H412 H 0.51231 0.73543 0.14164 0.0
H413 H 0.59121 0.80457 0.1127 0.0
C414 C 0.57375 0.81791 0.04787 0.0
C415 C 0.55169 0.81345 0.01926 0.0
C416 C 0.52921 0.73955 0.166 0.0
C417 C 0.55213 0.77904 0.10437 0.0
C418 C 0.52869 0.72345 0.21351 0.0
C419 C 0.5502 0.72848 0.24652 0.0
C420 C 0.55138 0.7609 0.15162 0.0
C421 C 0.57212 0.74964 0.22973 0.0
C422 C 0.57406 0.80073 0.09048 0.0
C423 C 0.53027 0.79144 0.03358 0.0
N424 N 0.57214 0.76521 0.18356 0.0
N425 N 0.53101 0.77507 0.07532 0.0
H426 H 0.70642 0.50921 0.39975 0.0
H427 H 0.82654 0.59023 0.61363 0.0
H428 H 0.74548 0.58832 0.39967 0.0
H429 H 0.78463 0.51119 0.61976 0.0
H430 H 0.79605 0.59022 0.53938 0.0
H431 H 0.73386 0.5098 0.48493 0.0
C432 C 0.72075 0.52672 0.41794 0.0
C433 C 0.72387 0.54875 0.39249 0.0
C434 C 0.79347 0.57289 0.55726 0.0
C435 C 0.75538 0.5496 0.48961 0.0
C436 C 0.81086 0.57289 0.5995 0.0
C437 C 0.80812 0.55067 0.6223 0.0
C438 C 0.77332 0.5505 0.53771 0.0
C439 C 0.78747 0.52873 0.60292 0.0
C440 C 0.73639 0.52705 0.4666 0.0
C441 C 0.74257 0.57092 0.41795 0.0
N442 N 0.77091 0.5292 0.56142 0.0
N443 N 0.75778 0.5708 0.46495 0.0
H444 H 0.15286 0.71422 0.79205 0.0
H445 H 0.277 0.83767 0.85346 0.0
H446 H 0.20629 0.74919 0.63819 0.0
H447 H 0.24368 0.78252 0.00434 0.0
H448 H 0.24778 0.80861 0.77365 0.0
H449 H 0.18279 0.74254 0.87181 0.0
C450 C 0.17089 0.72788 0.7752 0.0
C451 C 0.17726 0.72946 0.70878 0.0
C452 C 0.247 0.80292 0.82423 0.0
C453 C 0.21114 0.76183 0.79884 0.0
C454 C 0.26352 0.81945 0.86964 0.0
C455 C 0.26266 0.81235 0.93523 0.0
C456 C 0.22927 0.77944 0.84516 0.0
C457 C 0.24495 0.78858 0.95399 0.0
C458 C 0.1879 0.74388 0.82057 0.0
C459 C 0.2008 0.74737 0.68918 0.0
N460 N 0.22873 0.77297 0.90916 0.0
N461 N 0.21689 0.76308 0.73405 0.0
H462 H 0.40123 0.16644 0.04418 0.0
H463 H 0.47684 0.26486 0.32156 0.0
H464 H 0.47209 0.18161 0.11397 0.0
H465 H 0.40186 0.24226 0.27312 0.0
H466 H 0.47504 0.23372 0.24704 0.0
H467 H 0.40054 0.19339 0.12938 0.0
C468 C 0.41656 0.17535 0.07773 0.0
C469 C 0.43682 0.172 0.07196 0.0
C470 C 0.45892 0.23545 0.25296 0.0
C471 C 0.43623 0.20281 0.16894 0.0
C472 C 0.45997 0.25326 0.29533 0.0
C473 C 0.43952 0.25617 0.30297 0.0
C474 C 0.43733 0.22063 0.21767 0.0
C475 C 0.41806 0.24061 0.26828 0.0
C476 C 0.41615 0.19068 0.12634 0.0
C477 C 0.45617 0.18383 0.11666 0.0
N478 N 0.41757 0.22358 0.22665 0.0
N479 N 0.45547 0.19887 0.16307 0.0
H480 H 0.37273 0.50062 0.38875 0.0
H481 H 0.49209 0.61863 0.25057 0.0
H482 H 0.38822 0.51513 0.18202 0.0
H483 H 0.47482 0.60469 0.45668 0.0
H484 H 0.45543 0.57977 0.22439 0.0
H485 H 0.41131 0.53747 0.41426 0.0
C486 C 0.38433 0.51154 0.34863 0.0
C487 C 0.37722 0.50488 0.2831 0.0
C488 C 0.45968 0.58515 0.27535 0.0
C489 C 0.42147 0.54724 0.31206 0.0
C490 C 0.48061 0.60733 0.29037 0.0
C491 C 0.48643 0.61492 0.35594 0.0
C492 C 0.44443 0.57043 0.32626 0.0
C493 C 0.47096 0.59956 0.40548 0.0
C494 C 0.40637 0.53261 0.36328 0.0
C495 C 0.39301 0.51965 0.23319 0.0
N496 N 0.45062 0.57807 0.3896 0.0
N497 N 0.41438 0.54024 0.24871 0.0
H498 H 0.8805 0.48475 0.797 0.0
H499 H 0.86189 0.3858 0.52159 0.0
H500 H 0.85516 0.48504 0.60023 0.0
H501 H 0.87682 0.37962 0.72542 0.0
H502 H 0.86351 0.42464 0.54664 0.0
H503 H 0.8832 0.44834 0.76907 0.0
C504 C 0.87557 0.47718 0.74795 0.0
C505 C 0.86747 0.48781 0.701 0.0
C506 C 0.86653 0.41481 0.5858 0.0
C507 C 0.87057 0.44633 0.66858 0.0
C508 C 0.86568 0.39271 0.57144 0.0
C509 C 0.86908 0.37945 0.62155 0.0
C510 C 0.87092 0.4237 0.65066 0.0
C511 C 0.87394 0.38921 0.68535 0.0
C512 C 0.8771 0.45642 0.73199 0.0
C513 C 0.86137 0.47734 0.63806 0.0
N514 N 0.87465 0.41069 0.69811 0.0
N515 N 0.86302 0.45718 0.62373 0.0
H516 H 0.48958 0.86243 0.04892 0.0
H517 H 0.37113 0.86568 0.92386 0.0
H518 H 0.47675 0.87218 0.84581 0.0
H519 H 0.3882 0.86497 0.12885 0.0
H520 H 0.40944 0.86746 0.89444 0.0
H521 H 0.45231 0.86275 0.07917 0.0
C522 C 0.47892 0.86469 0.01065 0.0
C523 C 0.48622 0.86723 0.94468 0.0
C524 C 0.40488 0.86698 0.94587 0.0
C525 C 0.44349 0.86754 0.97902 0.0
C526 C 0.38298 0.86592 0.96275 0.0
C527 C 0.37647 0.86512 0.02894 0.0
C528 C 0.42038 0.8671 -0.00448 0.0
C529 C 0.39254 0.86555 0.07723 0.0
C530 C 0.45767 0.8649 0.02801 0.0
C531 C 0.47177 0.87014 0.89722 0.0
N532 N 0.41374 0.86642 0.05954 0.0
N533 N 0.45103 0.87013 0.9153 0.0
H534 H 0.6047 0.47144 0.18449 0.0
H535 H 0.51023 0.39515 0.47223 0.0
H536 H 0.61417 0.49606 0.38568 0.0
H537 H 0.50735 0.36693 0.27737 0.0
H538 H 0.54654 0.43371 0.4399 0.0
H539 H 0.56682 0.43441 0.2158 0.0
C540 C 0.59872 0.4691 0.23515 0.0
C541 C 0.61261 0.48676 0.2826 0.0
C542 C 0.53793 0.41905 0.40428 0.0
C543 C 0.5694 0.44448 0.3189 0.0
C544 C 0.51723 0.39708 0.42273 0.0
C545 C 0.50586 0.37782 0.37751 0.0
C546 C 0.54716 0.42174 0.34011 0.0
C547 C 0.51561 0.38128 0.31392 0.0
C548 C 0.57715 0.44795 0.25308 0.0
C549 C 0.60404 0.48283 0.34757 0.0
N550 N 0.53567 0.40279 0.29714 0.0
N551 N 0.58301 0.46209 0.36386 0.0
H552 H 0.12266 0.6053 0.51386 0.0
H553 H 0.11514 0.51539 0.80337 0.0
H554 H 0.12054 0.6207 0.71945 0.0
H555 H 0.13113 0.50793 0.60151 0.0
H556 H 0.11287 0.55187 0.77273 0.0
H557 H 0.1215 0.56711 0.54418 0.0
C558 C 0.12185 0.60058 0.56531 0.0
C559 C 0.12182 0.6162 0.61421 0.0
C560 C 0.11685 0.5422 0.73519 0.0
C561 C 0.12045 0.57264 0.64931 0.0
C562 C 0.1181 0.5214 0.75267 0.0
C563 C 0.12345 0.50873 0.70499 0.0
C564 C 0.12081 0.55022 0.66954 0.0
C565 C 0.12709 0.51723 0.63994 0.0
C566 C 0.12124 0.57883 0.58264 0.0
C567 C 0.12072 0.60922 0.68018 0.0
N568 N 0.12571 0.53743 0.62415 0.0
N569 N 0.1201 0.58796 0.69582 0.0
H570 H 0.63385 0.16953 0.00216 0.0
H571 H 0.48999 0.09126 0.9394 0.0
H572 H 0.58921 0.09725 0.08387 0.0
H573 H 0.53068 0.17028 0.93436 0.0
H574 H 0.52727 0.09133 0.97478 0.0
H575 H 0.59695 0.16845 0.96118 0.0
C576 C 0.61623 0.15346 0.01175 0.0
C577 C 0.61451 0.13349 0.04677 0.0
C578 C 0.52799 0.1086 0.96545 0.0
C579 C 0.57229 0.13198 -0.00104 0.0
C580 C 0.50686 0.10858 0.94466 0.0
C581 C 0.50734 0.13081 0.93401 0.0
C582 C 0.54973 0.13101 0.97452 0.0
C583 C 0.52955 0.15275 0.94219 0.0
C584 C 0.5952 0.15286 0.98829 0.0
C585 C 0.59125 0.1131 0.05758 0.0
N586 N 0.54988 0.1523 0.96189 0.0
N587 N 0.57098 0.11278 0.03333 0.0
loop_
_geom_bond_atom_site_label_1
_geom_bond_atom_site_label_2
_geom_bond_distance
_geom_bond_site_symmetry_2
_ccdc_geom_bond_type
In0 O1 2.294 . S
In0 O2 2.326 . S
In0 O6 2.266 . S
In0 O7 2.326 . S
In0 O8 2.266 . S
In0 O9 2.326 . S
In0 O11 2.294 . S
In0 O12 2.326 . S
O1 In0 2.294 . S
O1 C10 1.240 . S
O2 In0 2.326 . S
O2 C10 1.252 . S
C3 O6 1.252 . S
C3 O7 1.260 . S
C4 O11 1.240 . S
C4 O12 1.252 . S
C5 O8 1.252 . S
C5 O9 1.260 . S
O6 In0 2.266 . S
O6 C3 1.252 . S
O7 In0 2.326 . S
O7 C3 1.260 . S
O8 In0 2.266 . S
O8 C5 1.252 . S
O9 In0 2.326 . S
O9 C5 1.260 . S
C10 O1 1.240 . S
C10 O2 1.252 . S
O11 In0 2.294 . S
O11 C4 1.240 . S
O12 In0 2.326 . S
O12 C4 1.252 . S
In13 O14 2.294 . S
In13 O15 2.326 . S
In13 O19 2.266 . S
In13 O20 2.326 . S
In13 O21 2.266 . S
In13 O22 2.326 . S
In13 O24 2.294 . S
In13 O25 2.326 . S
O14 In13 2.294 . S
O14 C23 1.240 . S
O15 In13 2.326 . S
O15 C23 1.252 . S
C16 O19 1.252 . S
C16 O20 1.260 . S
C17 O24 1.240 . S
C17 O25 1.252 . S
C18 O21 1.252 . S
C18 O22 1.260 . S
O19 In13 2.266 . S
O19 C16 1.252 . S
O20 In13 2.326 . S
O20 C16 1.260 . S
O21 In13 2.266 . S
O21 C18 1.252 . S
O22 In13 2.326 . S
O22 C18 1.260 . S
C23 O14 1.240 . S
C23 O15 1.252 . S
O24 In13 2.294 . S
O24 C17 1.240 . S
O25 In13 2.326 . S
O25 C17 1.252 . S
In26 O27 2.294 1_556 S
In26 O28 2.326 . S
In26 O32 2.266 . S
In26 O33 2.326 . S
In26 O34 2.266 . S
In26 O35 2.326 1_556 S
In26 O37 2.294 . S
In26 O38 2.326 . S
O27 In26 2.294 1_554 S
O27 C36 1.240 . S
O28 In26 2.326 . S
O28 C36 1.252 1_556 S
C29 O32 1.252 . S
C29 O33 1.260 . S
C30 O37 1.240 . S
C30 O38 1.252 . S
C31 O34 1.252 . S
C31 O35 1.260 1_556 S
O32 In26 2.266 . S
O32 C29 1.252 . S
O33 In26 2.326 . S
O33 C29 1.260 . S
O34 In26 2.266 . S
O34 C31 1.252 . S
O35 In26 2.326 1_554 S
O35 C31 1.260 1_554 S
C36 O27 1.240 . S
C36 O28 1.252 1_554 S
O37 In26 2.294 . S
O37 C30 1.240 . S
O38 In26 2.326 . S
O38 C30 1.252 . S
In39 O40 2.294 . S
In39 O41 2.326 . S
In39 O45 2.266 . S
In39 O46 2.326 . S
In39 O47 2.266 . S
In39 O48 2.326 . S
In39 O50 2.294 . S
In39 O51 2.326 . S
O40 In39 2.294 . S
O40 C49 1.240 . S
O41 In39 2.326 . S
O41 C49 1.252 . S
C42 O45 1.252 . S
C42 O46 1.260 . S
C43 O50 1.240 . S
C43 O51 1.252 . S
C44 O47 1.252 . S
C44 O48 1.260 . S
O45 In39 2.266 . S
O45 C42 1.252 . S
O46 In39 2.326 . S
O46 C42 1.260 . S
O47 In39 2.266 . S
O47 C44 1.252 . S
O48 In39 2.326 . S
O48 C44 1.260 . S
C49 O40 1.240 . S
C49 O41 1.252 . S
O50 In39 2.294 . S
O50 C43 1.240 . S
O51 In39 2.326 . S
O51 C43 1.252 . S
In52 O53 2.294 . S
In52 O54 2.326 . S
In52 O58 2.266 . S
In52 O59 2.326 . S
In52 O60 2.266 . S
In52 O61 2.326 . S
In52 O63 2.294 . S
In52 O64 2.326 . S
O53 In52 2.294 . S
O53 C62 1.240 . S
O54 In52 2.326 . S
O54 C62 1.252 . S
C55 O58 1.252 . S
C55 O59 1.260 . S
C56 O63 1.240 . S
C56 O64 1.252 . S
C57 O60 1.252 . S
C57 O61 1.260 . S
O58 In52 2.266 . S
O58 C55 1.252 . S
O59 In52 2.326 . S
O59 C55 1.260 . S
O60 In52 2.266 . S
O60 C57 1.252 . S
O61 In52 2.326 . S
O61 C57 1.260 . S
C62 O53 1.240 . S
C62 O54 1.252 . S
O63 In52 2.294 . S
O63 C56 1.240 . S
O64 In52 2.326 . S
O64 C56 1.252 . S
In65 O66 2.294 1_556 S
In65 O67 2.326 . S
In65 O71 2.266 . S
In65 O72 2.326 . S
In65 O73 2.266 . S
In65 O74 2.326 1_556 S
In65 O76 2.294 . S
In65 O77 2.326 . S
O66 In65 2.294 1_554 S
O66 C75 1.240 . S
O67 In65 2.326 . S
O67 C75 1.252 1_556 S
C68 O71 1.252 . S
C68 O72 1.260 . S
C69 O76 1.240 . S
C69 O77 1.252 . S
C70 O73 1.252 . S
C70 O74 1.260 1_556 S
O71 In65 2.266 . S
O71 C68 1.252 . S
O72 In65 2.326 . S
O72 C68 1.260 . S
O73 In65 2.266 . S
O73 C70 1.252 . S
O74 In65 2.326 1_554 S
O74 C70 1.260 1_554 S
C75 O66 1.240 . S
C75 O67 1.252 1_554 S
O76 In65 2.294 . S
O76 C69 1.240 . S
O77 In65 2.326 . S
O77 C69 1.252 . S
In78 O79 2.294 . S
In78 O80 2.326 . S
In78 O84 2.266 . S
In78 O85 2.326 . S
In78 O86 2.266 . S
In78 O87 2.326 . S
In78 O89 2.294 . S
In78 O90 2.326 . S
O79 In78 2.294 . S
O79 C88 1.240 . S
O80 In78 2.326 . S
O80 C88 1.252 . S
C81 O84 1.252 . S
C81 O85 1.260 . S
C82 O89 1.240 . S
C82 O90 1.252 . S
C83 O86 1.252 . S
C83 O87 1.260 . S
O84 In78 2.266 . S
O84 C81 1.252 . S
O85 In78 2.326 . S
O85 C81 1.260 . S
O86 In78 2.266 . S
O86 C83 1.252 . S
O87 In78 2.326 . S
O87 C83 1.260 . S
C88 O79 1.240 . S
C88 O80 1.252 . S
O89 In78 2.294 . S
O89 C82 1.240 . S
O90 In78 2.326 . S
O90 C82 1.252 . S
In91 O92 2.294 . S
In91 O93 2.326 . S
In91 O97 2.266 . S
In91 O98 2.326 . S
In91 O99 2.266 . S
In91 O100 2.326 . S
In91 O102 2.294 . S
In91 O103 2.326 . S
O92 In91 2.294 . S
O92 C101 1.240 . S
O93 In91 2.326 . S
O93 C101 1.252 . S
C94 O97 1.252 . S
C94 O98 1.260 . S
C95 O102 1.240 . S
C95 O103 1.252 . S
C96 O99 1.252 . S
C96 O100 1.260 . S
O97 In91 2.266 . S
O97 C94 1.252 . S
O98 In91 2.326 . S
O98 C94 1.260 . S
O99 In91 2.266 . S
O99 C96 1.252 . S
O100 In91 2.326 . S
O100 C96 1.260 . S
C101 O92 1.240 . S
C101 O93 1.252 . S
O102 In91 2.294 . S
O102 C95 1.240 . S
O103 In91 2.326 . S
O103 C95 1.252 . S
In104 O105 2.294 . S
In104 O106 2.326 . S
In104 O110 2.266 . S
In104 O111 2.326 1_554 S
In104 O112 2.266 . S
In104 O113 2.326 . S
In104 O115 2.294 1_554 S
In104 O116 2.326 . S
O105 In104 2.294 . S
O105 C114 1.240 . S
O106 In104 2.326 . S
O106 C114 1.252 . S
C107 O110 1.252 . S
C107 O111 1.260 1_554 S
C108 O115 1.240 . S
C108 O116 1.252 1_556 S
C109 O112 1.252 . S
C109 O113 1.260 . S
O110 In104 2.266 . S
O110 C107 1.252 . S
O111 In104 2.326 1_556 S
O111 C107 1.260 1_556 S
O112 In104 2.266 . S
O112 C109 1.252 . S
O113 In104 2.326 . S
O113 C109 1.260 . S
C114 O105 1.240 . S
C114 O106 1.252 . S
O115 In104 2.294 1_556 S
O115 C108 1.240 . S
O116 In104 2.326 . S
O116 C108 1.252 1_554 S
In117 O118 2.294 . S
In117 O119 2.326 . S
In117 O123 2.266 . S
In117 O124 2.326 . S
In117 O125 2.266 . S
In117 O126 2.326 . S
In117 O128 2.294 . S
In117 O129 2.326 . S
O118 In117 2.294 . S
O118 C127 1.240 . S
O119 In117 2.326 . S
O119 C127 1.252 . S
C120 O123 1.252 . S
C120 O124 1.260 . S
C121 O128 1.240 . S
C121 O129 1.252 . S
C122 O125 1.252 . S
C122 O126 1.260 . S
O123 In117 2.266 . S
O123 C120 1.252 . S
O124 In117 2.326 . S
O124 C120 1.260 . S
O125 In117 2.266 . S
O125 C122 1.252 . S
O126 In117 2.326 . S
O126 C122 1.260 . S
C127 O118 1.240 . S
C127 O119 1.252 . S
O128 In117 2.294 . S
O128 C121 1.240 . S
O129 In117 2.326 . S
O129 C121 1.252 . S
In130 O131 2.294 . S
In130 O132 2.326 . S
In130 O136 2.266 . S
In130 O137 2.326 . S
In130 O138 2.266 . S
In130 O139 2.326 . S
In130 O141 2.294 . S
In130 O142 2.326 . S
O131 In130 2.294 . S
O131 C140 1.240 . S
O132 In130 2.326 . S
O132 C140 1.252 . S
C133 O136 1.252 . S
C133 O137 1.260 . S
C134 O141 1.240 . S
C134 O142 1.252 . S
C135 O138 1.252 . S
C135 O139 1.260 . S
O136 In130 2.266 . S
O136 C133 1.252 . S
O137 In130 2.326 . S
O137 C133 1.260 . S
O138 In130 2.266 . S
O138 C135 1.252 . S
O139 In130 2.326 . S
O139 C135 1.260 . S
C140 O131 1.240 . S
C140 O132 1.252 . S
O141 In130 2.294 . S
O141 C134 1.240 . S
O142 In130 2.326 . S
O142 C134 1.252 . S
In143 O144 2.294 . S
In143 O145 2.326 . S
In143 O149 2.266 . S
In143 O150 2.326 1_554 S
In143 O151 2.266 . S
In143 O152 2.326 . S
In143 O154 2.294 1_554 S
In143 O155 2.326 . S
O144 In143 2.294 . S
O144 C153 1.240 . S
O145 In143 2.326 . S
O145 C153 1.252 . S
C146 O149 1.252 . S
C146 O150 1.260 1_554 S
C147 O154 1.240 . S
C147 O155 1.252 1_556 S
C148 O151 1.252 . S
C148 O152 1.260 . S
O149 In143 2.266 . S
O149 C146 1.252 . S
O150 In143 2.326 1_556 S
O150 C146 1.260 1_556 S
O151 In143 2.266 . S
O151 C148 1.252 . S
O152 In143 2.326 . S
O152 C148 1.260 . S
C153 O144 1.240 . S
C153 O145 1.252 . S
O154 In143 2.294 1_556 S
O154 C147 1.240 . S
O155 In143 2.326 . S
O155 C147 1.252 1_554 S
H156 C162 0.930 . S
H157 C166 0.930 . S
H158 C171 0.929 . S
H159 C169 0.929 . S
H160 C164 0.929 . S
H161 C170 0.929 . S
C162 H156 0.930 . S
C162 C163 1.367 . S
C162 C170 1.378 . S
C163 C162 1.367 . S
C163 C171 1.433 . S
C164 H160 0.929 . S
C164 C166 1.378 . S
C164 C168 1.350 . S
C165 C168 1.463 . S
C165 C170 1.350 . S
C165 N173 1.427 . S
C166 H157 0.930 . S
C166 C164 1.378 . S
C166 C167 1.367 . S
C167 C166 1.367 . S
C167 C169 1.433 . S
C168 C164 1.350 . S
C168 C165 1.463 . S
C168 N172 1.427 . S
C169 H159 0.929 . S
C169 C167 1.433 . S
C169 N172 1.384 . S
C170 H161 0.929 . S
C170 C162 1.378 . S
C170 C165 1.350 . S
C171 H158 0.929 . S
C171 C163 1.433 . S
C171 N173 1.384 . S
N172 C168 1.427 . S
N172 C169 1.384 . S
N173 C165 1.427 . S
N173 C171 1.384 . S
H174 C180 0.930 . S
H175 C184 0.930 . S
H176 C189 0.929 . S
H177 C187 0.929 . S
H178 C182 0.929 . S
H179 C188 0.929 . S
C180 H174 0.930 . S
C180 C181 1.367 . S
C180 C188 1.378 . S
C181 C180 1.367 . S
C181 C189 1.433 . S
C182 H178 0.929 . S
C182 C184 1.378 . S
C182 C186 1.350 . S
C183 C186 1.463 1_655 S
C183 C188 1.350 . S
C183 N191 1.427 . S
C184 H175 0.930 . S
C184 C182 1.378 . S
C184 C185 1.367 . S
C185 C184 1.367 . S
C185 C187 1.433 . S
C186 C182 1.350 . S
C186 C183 1.463 1_455 S
C186 N190 1.427 . S
C187 H177 0.929 . S
C187 C185 1.433 . S
C187 N190 1.384 . S
C188 H179 0.929 . S
C188 C180 1.378 . S
C188 C183 1.350 . S
C189 H176 0.929 . S
C189 C181 1.433 . S
C189 N191 1.384 . S
N190 C186 1.427 . S
N190 C187 1.384 . S
N191 C183 1.427 . S
N191 C189 1.384 . S
H192 C198 0.930 . S
H193 C202 0.930 . S
H194 C207 0.933 . S
H195 C205 0.932 . S
H196 C200 0.929 . S
H197 C206 0.929 . S
C198 H192 0.930 . S
C198 C199 1.367 . S
C198 C206 1.378 . S
C199 C198 1.367 . S
C199 C207 1.427 1_556 S
C200 H196 0.929 . S
C200 C202 1.378 . S
C200 C204 1.350 . S
C201 C204 1.463 1_566 S
C201 C206 1.350 . S
C201 N209 1.427 1_556 S
C202 H193 0.930 . S
C202 C200 1.378 . S
C202 C203 1.367 . S
C203 C202 1.367 . S
C203 C205 1.428 1_554 S
C204 C200 1.350 . S
C204 C201 1.463 1_544 S
C204 N208 1.427 1_554 S
C205 H195 0.932 . S
C205 C203 1.428 1_556 S
C205 N208 1.386 . S
C206 H197 0.929 . S
C206 C198 1.378 . S
C206 C201 1.350 . S
C207 H194 0.933 . S
C207 C199 1.427 1_554 S
C207 N209 1.386 . S
N208 C204 1.427 1_556 S
N208 C205 1.386 . S
N209 C201 1.427 1_554 S
N209 C207 1.386 . S
H210 C216 0.930 . S
H211 C220 0.930 . S
H212 C225 0.929 . S
H213 C223 0.929 . S
H214 C218 0.929 . S
H215 C224 0.929 . S
C216 H210 0.930 . S
C216 C217 1.367 . S
C216 C224 1.378 . S
C217 C216 1.367 . S
C217 C225 1.433 . S
C218 H214 0.929 . S
C218 C220 1.378 . S
C218 C222 1.350 . S
C219 C222 1.463 . S
C219 C224 1.350 . S
C219 N227 1.427 . S
C220 H211 0.930 . S
C220 C218 1.378 . S
C220 C221 1.367 . S
C221 C220 1.367 . S
C221 C223 1.433 . S
C222 C218 1.350 . S
C222 C219 1.463 . S
C222 N226 1.427 . S
C223 H213 0.929 . S
C223 C221 1.433 . S
C223 N226 1.384 . S
C224 H215 0.929 . S
C224 C216 1.378 . S
C224 C219 1.350 . S
C225 H212 0.929 . S
C225 C217 1.433 . S
C225 N227 1.384 . S
N226 C222 1.427 . S
N226 C223 1.384 . S
N227 C219 1.427 . S
N227 C225 1.384 . S
H228 C234 0.930 . S
H229 C238 0.930 . S
H230 C243 0.929 . S
H231 C241 0.929 . S
H232 C236 0.929 . S
H233 C242 0.929 . S
C234 H228 0.930 . S
C234 C235 1.367 . S
C234 C242 1.378 . S
C235 C234 1.367 . S
C235 C243 1.433 . S
C236 H232 0.929 . S
C236 C238 1.378 . S
C236 C240 1.350 . S
C237 C240 1.463 1_655 S
C237 C242 1.350 . S
C237 N245 1.427 . S
C238 H229 0.930 . S
C238 C236 1.378 . S
C238 C239 1.367 . S
C239 C238 1.367 . S
C239 C241 1.433 . S
C240 C236 1.350 . S
C240 C237 1.463 1_455 S
C240 N244 1.427 . S
C241 H231 0.929 . S
C241 C239 1.433 . S
C241 N244 1.384 . S
C242 H233 0.929 . S
C242 C234 1.378 . S
C242 C237 1.350 . S
C243 H230 0.929 . S
C243 C235 1.433 . S
C243 N245 1.384 . S
N244 C240 1.427 . S
N244 C241 1.384 . S
N245 C237 1.427 . S
N245 C243 1.384 . S
H246 C252 0.930 . S
H247 C256 0.930 . S
H248 C261 0.929 . S
H249 C259 0.929 . S
H250 C254 0.929 . S
H251 C260 0.929 . S
C252 H246 0.930 . S
C252 C253 1.367 . S
C252 C260 1.378 . S
C253 C252 1.367 . S
C253 C261 1.433 1_554 S
C254 H250 0.929 . S
C254 C256 1.378 . S
C254 C258 1.350 . S
C255 C258 1.463 1_564 S
C255 C260 1.350 . S
C255 N263 1.427 1_554 S
C256 H247 0.930 . S
C256 C254 1.378 . S
C256 C257 1.367 . S
C257 C256 1.367 . S
C257 C259 1.433 1_556 S
C258 C254 1.350 . S
C258 C255 1.463 1_546 S
C258 N262 1.427 1_556 S
C259 H249 0.929 . S
C259 C257 1.433 1_554 S
C259 N262 1.384 . S
C260 H251 0.929 . S
C260 C252 1.378 . S
C260 C255 1.350 . S
C261 H248 0.929 . S
C261 C253 1.433 1_556 S
C261 N263 1.384 . S
N262 C258 1.427 1_554 S
N262 C259 1.384 . S
N263 C255 1.427 1_556 S
N263 C261 1.384 . S
H264 C270 0.930 . S
H265 C274 0.930 . S
H266 C279 0.929 . S
H267 C277 0.929 . S
H268 C272 0.929 1_556 S
H269 C278 0.929 1_554 S
C270 H264 0.930 . S
C270 C271 1.367 . S
C270 C278 1.378 . S
C271 C270 1.367 . S
C271 C279 1.433 . S
C272 H268 0.929 1_554 S
C272 C274 1.378 . S
C272 C276 1.350 . S
C273 C276 1.463 1_556 S
C273 C278 1.350 . S
C273 N281 1.427 . S
C274 H265 0.930 . S
C274 C272 1.378 . S
C274 C275 1.367 . S
C275 C274 1.367 . S
C275 C277 1.433 . S
C276 C272 1.350 . S
C276 C273 1.463 1_554 S
C276 N280 1.427 . S
C277 H267 0.929 . S
C277 C275 1.433 . S
C277 N280 1.384 . S
C278 H269 0.929 1_556 S
C278 C270 1.378 . S
C278 C273 1.350 . S
C279 H266 0.929 . S
C279 C271 1.433 . S
C279 N281 1.384 . S
N280 C276 1.427 . S
N280 C277 1.384 . S
N281 C273 1.427 . S
N281 C279 1.384 . S
H282 C288 0.930 . S
H283 C292 0.930 . S
H284 C297 0.929 . S
H285 C295 0.929 . S
H286 C290 0.929 . S
H287 C296 0.929 . S
C288 H282 0.930 . S
C288 C289 1.367 . S
C288 C296 1.378 . S
C289 C288 1.367 . S
C289 C297 1.433 . S
C290 H286 0.929 . S
C290 C292 1.378 . S
C290 C294 1.350 . S
C291 C294 1.463 . S
C291 C296 1.350 . S
C291 N299 1.427 . S
C292 H283 0.930 . S
C292 C290 1.378 . S
C292 C293 1.367 . S
C293 C292 1.367 . S
C293 C295 1.433 . S
C294 C290 1.350 . S
C294 C291 1.463 . S
C294 N298 1.427 . S
C295 H285 0.929 . S
C295 C293 1.433 . S
C295 N298 1.384 . S
C296 H287 0.929 . S
C296 C288 1.378 . S
C296 C291 1.350 . S
C297 H284 0.929 . S
C297 C289 1.433 . S
C297 N299 1.384 . S
N298 C294 1.427 . S
N298 C295 1.384 . S
N299 C291 1.427 . S
N299 C297 1.384 . S
H300 C306 0.930 . S
H301 C310 0.930 . S
H302 C315 0.929 . S
H303 C313 0.929 . S
H304 C308 0.929 . S
H305 C314 0.929 . S
C306 H300 0.930 . S
C306 C307 1.367 . S
C306 C314 1.378 . S
C307 C306 1.367 . S
C307 C315 1.433 . S
C308 H304 0.929 . S
C308 C310 1.378 . S
C308 C312 1.350 . S
C309 C312 1.463 . S
C309 C314 1.350 . S
C309 N317 1.427 . S
C310 H301 0.930 . S
C310 C308 1.378 . S
C310 C311 1.367 . S
C311 C310 1.367 . S
C311 C313 1.433 . S
C312 C308 1.350 . S
C312 C309 1.463 . S
C312 N316 1.427 . S
C313 H303 0.929 . S
C313 C311 1.433 . S
C313 N316 1.384 . S
C314 H305 0.929 . S
C314 C306 1.378 . S
C314 C309 1.350 . S
C315 H302 0.929 . S
C315 C307 1.433 . S
C315 N317 1.384 . S
N316 C312 1.427 . S
N316 C313 1.384 . S
N317 C309 1.427 . S
N317 C315 1.384 . S
H318 C324 0.930 . S
H319 C328 0.930 . S
H320 C333 0.929 . S
H321 C331 0.929 . S
H322 C326 0.929 . S
H323 C332 0.929 . S
C324 H318 0.930 . S
C324 C325 1.367 . S
C324 C332 1.378 . S
C325 C324 1.367 . S
C325 C333 1.433 . S
C326 H322 0.929 . S
C326 C328 1.378 . S
C326 C330 1.350 . S
C327 C330 1.463 1_554 S
C327 C332 1.350 . S
C327 N335 1.427 . S
C328 H319 0.930 . S
C328 C326 1.378 . S
C328 C329 1.367 . S
C329 C328 1.367 . S
C329 C331 1.433 . S
C330 C326 1.350 . S
C330 C327 1.463 1_556 S
C330 N334 1.427 . S
C331 H321 0.929 . S
C331 C329 1.433 . S
C331 N334 1.384 . S
C332 H323 0.929 . S
C332 C324 1.378 . S
C332 C327 1.350 . S
C333 H320 0.929 . S
C333 C325 1.433 . S
C333 N335 1.384 . S
N334 C330 1.427 . S
N334 C331 1.384 . S
N335 C327 1.427 . S
N335 C333 1.384 . S
H336 C342 0.930 . S
H337 C346 0.930 . S
H338 C351 0.929 . S
H339 C349 0.929 . S
H340 C344 0.929 . S
H341 C350 0.929 . S
C342 H336 0.930 . S
C342 C343 1.367 . S
C342 C350 1.378 . S
C343 C342 1.367 . S
C343 C351 1.433 . S
C344 H340 0.929 . S
C344 C346 1.378 . S
C344 C348 1.350 . S
C345 C348 1.463 . S
C345 C350 1.350 . S
C345 N353 1.427 . S
C346 H337 0.930 . S
C346 C344 1.378 . S
C346 C347 1.367 . S
C347 C346 1.367 . S
C347 C349 1.433 . S
C348 C344 1.350 . S
C348 C345 1.463 . S
C348 N352 1.427 . S
C349 H339 0.929 . S
C349 C347 1.433 . S
C349 N352 1.384 . S
C350 H341 0.929 . S
C350 C342 1.378 . S
C350 C345 1.350 . S
C351 H338 0.929 . S
C351 C343 1.433 . S
C351 N353 1.384 . S
N352 C348 1.427 . S
N352 C349 1.384 . S
N353 C345 1.427 . S
N353 C351 1.384 . S
H354 C360 0.930 . S
H355 C364 0.930 . S
H356 C369 0.929 . S
H357 C367 0.929 . S
H358 C362 0.929 . S
H359 C368 0.929 . S
C360 H354 0.930 . S
C360 C361 1.367 . S
C360 C368 1.378 . S
C361 C360 1.367 . S
C361 C369 1.433 . S
C362 H358 0.929 . S
C362 C364 1.378 . S
C362 C366 1.350 . S
C363 C366 1.463 . S
C363 C368 1.350 . S
C363 N371 1.427 . S
C364 H355 0.930 . S
C364 C362 1.378 . S
C364 C365 1.367 . S
C365 C364 1.367 . S
C365 C367 1.433 . S
C366 C362 1.350 . S
C366 C363 1.463 . S
C366 N370 1.427 . S
C367 H357 0.929 . S
C367 C365 1.433 . S
C367 N370 1.384 . S
C368 H359 0.929 . S
C368 C360 1.378 . S
C368 C363 1.350 . S
C369 H356 0.929 . S
C369 C361 1.433 . S
C369 N371 1.384 . S
N370 C366 1.427 . S
N370 C367 1.384 . S
N371 C363 1.427 . S
N371 C369 1.384 . S
H372 C378 0.930 . S
H373 C382 0.930 . S
H374 C387 0.929 . S
H375 C385 0.929 . S
H376 C380 0.929 . S
H377 C386 0.929 . S
C378 H372 0.930 . S
C378 C379 1.367 . S
C378 C386 1.378 . S
C379 C378 1.367 . S
C379 C387 1.433 . S
C380 H376 0.929 . S
C380 C382 1.378 . S
C380 C384 1.350 . S
C381 C384 1.463 . S
C381 C386 1.350 . S
C381 N389 1.427 . S
C382 H373 0.930 . S
C382 C380 1.378 . S
C382 C383 1.367 . S
C383 C382 1.367 . S
C383 C385 1.433 . S
C384 C380 1.350 . S
C384 C381 1.463 . S
C384 N388 1.427 . S
C385 H375 0.929 . S
C385 C383 1.433 . S
C385 N388 1.384 . S
C386 H377 0.929 . S
C386 C378 1.378 . S
C386 C381 1.350 . S
C387 H374 0.929 . S
C387 C379 1.433 . S
C387 N389 1.384 . S
N388 C384 1.427 . S
N388 C385 1.384 . S
N389 C381 1.427 . S
N389 C387 1.384 . S
H390 C396 0.930 . S
H391 C400 0.930 . S
H392 C405 0.929 . S
H393 C403 0.929 . S
H394 C398 0.929 . S
H395 C404 0.929 . S
C396 H390 0.930 . S
C396 C397 1.367 . S
C396 C404 1.378 . S
C397 C396 1.367 . S
C397 C405 1.433 . S
C398 H394 0.929 . S
C398 C400 1.378 . S
C398 C402 1.350 . S
C399 C402 1.463 . S
C399 C404 1.350 . S
C399 N407 1.427 . S
C400 H391 0.930 . S
C400 C398 1.378 . S
C400 C401 1.367 . S
C401 C400 1.367 . S
C401 C403 1.433 . S
C402 C398 1.350 . S
C402 C399 1.463 . S
C402 N406 1.427 . S
C403 H393 0.929 . S
C403 C401 1.433 . S
C403 N406 1.384 . S
C404 H395 0.929 . S
C404 C396 1.378 . S
C404 C399 1.350 . S
C405 H392 0.929 . S
C405 C397 1.433 . S
C405 N407 1.384 . S
N406 C402 1.427 . S
N406 C403 1.384 . S
N407 C399 1.427 . S
N407 C405 1.384 . S
H408 C414 0.930 . S
H409 C418 0.930 . S
H410 C423 0.929 1_556 S
H411 C421 0.929 . S
H412 C416 0.929 . S
H413 C422 0.929 . S
C414 H408 0.930 . S
C414 C415 1.367 . S
C414 C422 1.378 . S
C415 C414 1.367 . S
C415 C423 1.433 . S
C416 H412 0.929 . S
C416 C418 1.378 . S
C416 C420 1.350 . S
C417 C420 1.463 . S
C417 C422 1.350 . S
C417 N425 1.427 . S
C418 H409 0.930 . S
C418 C416 1.378 . S
C418 C419 1.367 . S
C419 C418 1.367 . S
C419 C421 1.433 . S
C420 C416 1.350 . S
C420 C417 1.463 . S
C420 N424 1.427 . S
C421 H411 0.929 . S
C421 C419 1.433 . S
C421 N424 1.384 . S
C422 H413 0.929 . S
C422 C414 1.378 . S
C422 C417 1.350 . S
C423 H410 0.929 1_554 S
C423 C415 1.433 . S
C423 N425 1.384 . S
N424 C420 1.427 . S
N424 C421 1.384 . S
N425 C417 1.427 . S
N425 C423 1.384 . S
H426 C432 0.930 . S
H427 C436 0.930 . S
H428 C441 0.929 . S
H429 C439 0.929 . S
H430 C434 0.929 . S
H431 C440 0.929 . S
C432 H426 0.930 . S
C432 C433 1.367 . S
C432 C440 1.378 . S
C433 C432 1.367 . S
C433 C441 1.433 . S
C434 H430 0.929 . S
C434 C436 1.378 . S
C434 C438 1.350 . S
C435 C438 1.463 . S
C435 C440 1.350 . S
C435 N443 1.427 . S
C436 H427 0.930 . S
C436 C434 1.378 . S
C436 C437 1.367 . S
C437 C436 1.367 . S
C437 C439 1.433 . S
C438 C434 1.350 . S
C438 C435 1.463 . S
C438 N442 1.427 . S
C439 H429 0.929 . S
C439 C437 1.433 . S
C439 N442 1.384 . S
C440 H431 0.929 . S
C440 C432 1.378 . S
C440 C435 1.350 . S
C441 H428 0.929 . S
C441 C433 1.433 . S
C441 N443 1.384 . S
N442 C438 1.427 . S
N442 C439 1.384 . S
N443 C435 1.427 . S
N443 C441 1.384 . S
H444 C450 0.930 . S
H445 C454 0.930 . S
H446 C459 0.929 . S
H447 C457 0.929 1_554 S
H448 C452 0.929 . S
H449 C458 0.929 . S
C450 H444 0.930 . S
C450 C451 1.367 . S
C450 C458 1.378 . S
C451 C450 1.367 . S
C451 C459 1.433 . S
C452 H448 0.929 . S
C452 C454 1.378 . S
C452 C456 1.350 . S
C453 C456 1.463 . S
C453 C458 1.350 . S
C453 N461 1.427 . S
C454 H445 0.930 . S
C454 C452 1.378 . S
C454 C455 1.367 . S
C455 C454 1.367 . S
C455 C457 1.433 . S
C456 C452 1.350 . S
C456 C453 1.463 . S
C456 N460 1.427 . S
C457 H447 0.929 1_556 S
C457 C455 1.433 . S
C457 N460 1.384 . S
C458 H449 0.929 . S
C458 C450 1.378 . S
C458 C453 1.350 . S
C459 H446 0.929 . S
C459 C451 1.433 . S
C459 N461 1.384 . S
N460 C456 1.427 . S
N460 C457 1.384 . S
N461 C453 1.427 . S
N461 C459 1.384 . S
H462 C468 0.930 . S
H463 C472 0.930 . S
H464 C477 0.929 . S
H465 C475 0.929 . S
H466 C470 0.929 . S
H467 C476 0.929 . S
C468 H462 0.930 . S
C468 C469 1.367 . S
C468 C476 1.378 . S
C469 C468 1.367 . S
C469 C477 1.433 . S
C470 H466 0.929 . S
C470 C472 1.378 . S
C470 C474 1.350 . S
C471 C474 1.463 . S
C471 C476 1.350 . S
C471 N479 1.427 . S
C472 H463 0.930 . S
C472 C470 1.378 . S
C472 C473 1.367 . S
C473 C472 1.367 . S
C473 C475 1.433 . S
C474 C470 1.350 . S
C474 C471 1.463 . S
C474 N478 1.427 . S
C475 H465 0.929 . S
C475 C473 1.433 . S
C475 N478 1.384 . S
C476 H467 0.929 . S
C476 C468 1.378 . S
C476 C471 1.350 . S
C477 H464 0.929 . S
C477 C469 1.433 . S
C477 N479 1.384 . S
N478 C474 1.427 . S
N478 C475 1.384 . S
N479 C471 1.427 . S
N479 C477 1.384 . S
H480 C486 0.930 . S
H481 C490 0.930 . S
H482 C495 0.929 . S
H483 C493 0.929 . S
H484 C488 0.929 . S
H485 C494 0.929 . S
C486 H480 0.930 . S
C486 C487 1.367 . S
C486 C494 1.378 . S
C487 C486 1.367 . S
C487 C495 1.433 . S
C488 H484 0.929 . S
C488 C490 1.378 . S
C488 C492 1.350 . S
C489 C492 1.463 . S
C489 C494 1.350 . S
C489 N497 1.427 . S
C490 H481 0.930 . S
C490 C488 1.378 . S
C490 C491 1.367 . S
C491 C490 1.367 . S
C491 C493 1.433 . S
C492 C488 1.350 . S
C492 C489 1.463 . S
C492 N496 1.427 . S
C493 H483 0.929 . S
C493 C491 1.433 . S
C493 N496 1.384 . S
C494 H485 0.929 . S
C494 C486 1.378 . S
C494 C489 1.350 . S
C495 H482 0.929 . S
C495 C487 1.433 . S
C495 N497 1.384 . S
N496 C492 1.427 . S
N496 C493 1.384 . S
N497 C489 1.427 . S
N497 C495 1.384 . S
H498 C504 0.930 . S
H499 C508 0.930 . S
H500 C513 0.929 . S
H501 C511 0.929 . S
H502 C506 0.929 . S
H503 C512 0.929 . S
C504 H498 0.930 . S
C504 C505 1.367 . S
C504 C512 1.378 . S
C505 C504 1.367 . S
C505 C513 1.433 . S
C506 H502 0.929 . S
C506 C508 1.378 . S
C506 C510 1.350 . S
C507 C510 1.463 . S
C507 C512 1.350 . S
C507 N515 1.427 . S
C508 H499 0.930 . S
C508 C506 1.378 . S
C508 C509 1.367 . S
C509 C508 1.367 . S
C509 C511 1.433 . S
C510 C506 1.350 . S
C510 C507 1.463 . S
C510 N514 1.427 . S
C511 H501 0.929 . S
C511 C509 1.433 . S
C511 N514 1.384 . S
C512 H503 0.929 . S
C512 C504 1.378 . S
C512 C507 1.350 . S
C513 H500 0.929 . S
C513 C505 1.433 . S
C513 N515 1.384 . S
N514 C510 1.427 . S
N514 C511 1.384 . S
N515 C507 1.427 . S
N515 C513 1.384 . S
H516 C522 0.930 . S
H517 C526 0.930 . S
H518 C531 0.929 . S
H519 C529 0.929 . S
H520 C524 0.929 . S
H521 C530 0.929 . S
C522 H516 0.930 . S
C522 C523 1.367 1_554 S
C522 C530 1.378 . S
C523 C522 1.367 1_556 S
C523 C531 1.433 . S
C524 H520 0.929 . S
C524 C526 1.378 . S
C524 C528 1.337 1_556 S
C525 C528 1.462 1_556 S
C525 C530 1.338 1_556 S
C525 N533 1.440 . S
C526 H517 0.930 . S
C526 C524 1.378 . S
C526 C527 1.367 1_556 S
C527 C526 1.367 1_554 S
C527 C529 1.433 . S
C528 C524 1.337 1_554 S
C528 C525 1.462 1_554 S
C528 N532 1.441 . S
C529 H519 0.929 . S
C529 C527 1.433 . S
C529 N532 1.384 . S
C530 H521 0.929 . S
C530 C522 1.378 . S
C530 C525 1.338 1_554 S
C531 H518 0.929 . S
C531 C523 1.433 . S
C531 N533 1.384 . S
N532 C528 1.441 . S
N532 C529 1.384 . S
N533 C525 1.440 . S
N533 C531 1.384 . S
H534 C540 0.930 . S
H535 C544 0.930 . S
H536 C549 0.929 . S
H537 C547 0.929 . S
H538 C542 0.929 . S
H539 C548 0.929 . S
C540 H534 0.930 . S
C540 C541 1.367 . S
C540 C548 1.378 . S
C541 C540 1.367 . S
C541 C549 1.433 . S
C542 H538 0.929 . S
C542 C544 1.378 . S
C542 C546 1.350 . S
C543 C546 1.463 . S
C543 C548 1.350 . S
C543 N551 1.427 . S
C544 H535 0.930 . S
C544 C542 1.378 . S
C544 C545 1.367 . S
C545 C544 1.367 . S
C545 C547 1.433 . S
C546 C542 1.350 . S
C546 C543 1.463 . S
C546 N550 1.427 . S
C547 H537 0.929 . S
C547 C545 1.433 . S
C547 N550 1.384 . S
C548 H539 0.929 . S
C548 C540 1.378 . S
C548 C543 1.350 . S
C549 H536 0.929 . S
C549 C541 1.433 . S
C549 N551 1.384 . S
N550 C546 1.427 . S
N550 C547 1.384 . S
N551 C543 1.427 . S
N551 C549 1.384 . S
H552 C558 0.930 . S
H553 C562 0.930 . S
H554 C567 0.929 . S
H555 C565 0.929 . S
H556 C560 0.929 . S
H557 C566 0.929 . S
C558 H552 0.930 . S
C558 C559 1.367 . S
C558 C566 1.378 . S
C559 C558 1.367 . S
C559 C567 1.433 . S
C560 H556 0.929 . S
C560 C562 1.378 . S
C560 C564 1.350 . S
C561 C564 1.463 . S
C561 C566 1.350 . S
C561 N569 1.427 . S
C562 H553 0.930 . S
C562 C560 1.378 . S
C562 C563 1.367 . S
C563 C562 1.367 . S
C563 C565 1.433 . S
C564 C560 1.350 . S
C564 C561 1.463 . S
C564 N568 1.427 . S
C565 H555 0.929 . S
C565 C563 1.433 . S
C565 N568 1.384 . S
C566 H557 0.929 . S
C566 C558 1.378 . S
C566 C561 1.350 . S
C567 H554 0.929 . S
C567 C559 1.433 . S
C567 N569 1.384 . S
N568 C564 1.427 . S
N568 C565 1.384 . S
N569 C561 1.427 . S
N569 C567 1.384 . S
H570 C576 0.930 . S
H571 C580 0.930 . S
H572 C585 0.929 . S
H573 C583 0.929 . S
H574 C578 0.929 . S
H575 C584 0.929 . S
C576 H570 0.930 . S
C576 C577 1.367 . S
C576 C584 1.378 . S
C577 C576 1.367 . S
C577 C585 1.433 . S
C578 H574 0.929 . S
C578 C580 1.378 . S
C578 C582 1.350 . S
C579 C582 1.463 1_554 S
C579 C584 1.350 . S
C579 N587 1.427 . S
C580 H571 0.930 . S
C580 C578 1.378 . S
C580 C581 1.367 . S
C581 C580 1.367 . S
C581 C583 1.433 . S
C582 C578 1.350 . S
C582 C579 1.463 1_556 S
C582 N586 1.427 . S
C583 H573 0.929 . S
C583 C581 1.433 . S
C583 N586 1.384 . S
C584 H575 0.929 . S
C584 C576 1.378 . S
C584 C579 1.350 . S
C585 H572 0.929 . S
C585 C577 1.433 . S
C585 N587 1.384 . S
N586 C582 1.427 . S
N586 C583 1.384 . S
N587 C579 1.427 . S
N587 C585 1.384 . S
C163 C3 1.390 . S
C167 C122 1.391 . S
C181 C16 1.392 . S
C185 C135 1.390 . S
C199 C29 1.399 . S
C203 C148 1.401 . S
C217 C42 1.394 . S
C221 C81 1.392 . S
C235 C94 1.390 . S
C239 C57 1.392 . S
C253 C109 1.401 . S
C257 C68 1.401 . S
C271 C140 1.855 . S
C275 C4 1.857 . S
C289 C17 1.857 . S
C293 C153 1.853 . S
C307 C30 1.857 . S
C311 C82 1.851 . S
C325 C43 1.856 . S
C329 C95 1.850 . S
C343 C62 1.851 . S
C347 C114 1.857 . S
C361 C69 1.850 . S
C365 C127 1.851 . S
C379 C134 0.991 . S
C383 C10 0.992 . S
C397 C23 0.992 . S
C401 C147 0.993 . S
C415 C36 0.991 . S
C419 C88 0.991 . S
C433 C49 0.992 . S
C437 C101 0.991 . S
C451 C56 0.991 . S
C455 C108 0.991 . S
C469 C75 0.991 . S
C473 C121 0.993 . S
C487 C5 1.728 . S
C491 C83 1.727 . S
C505 C96 1.727 . S
C509 C18 1.725 . S
C523 C31 1.728 . S
C527 C107 1.728 . S
C541 C44 1.725 . S
C545 C120 1.726 . S
C559 C55 1.725 . S
C563 C133 1.725 . S
C577 C146 1.726 . S
C581 C70 1.727 . S
