# Generated by pormake.
# Topology lcy-e, (6)-cn, num edge types: 1
# Building blocks:
#     Node 0, Type 0, BuildingBlock: FUNLAD_clean_sbu_0, # of connection points: 6
#     Node 1, Type 0, BuildingBlock: FUNLAD_clean_sbu_0, # of connection points: 6
#     Node 2, Type 0, BuildingBlock: FUNLAD_clean_sbu_0, # of connection points: 6
#     Node 3, Type 0, BuildingBlock: FUNLAD_clean_sbu_0, # of connection points: 6
#     Node 4, Type 0, BuildingBlock: FUNLAD_clean_sbu_0, # of connection points: 6
#     Node 5, Type 0, BuildingBlock: FUNLAD_clean_sbu_0, # of connection points: 6
#     Node 6, Type 0, BuildingBlock: FUNLAD_clean_sbu_0, # of connection points: 6
#     Node 7, Type 0, BuildingBlock: FUNLAD_clean_sbu_0, # of connection points: 6
#     Node 8, Type 0, BuildingBlock: FUNLAD_clean_sbu_0, # of connection points: 6
#     Node 9, Type 0, BuildingBlock: FUNLAD_clean_sbu_0, # of connection points: 6
#     Node 10, Type 0, BuildingBlock: FUNLAD_clean_sbu_0, # of connection points: 6
#     Node 11, Type 0, BuildingBlock: FUNLAD_clean_sbu_0, # of connection points: 6
#     Edge 12, Type (0, 0), BuildingBlock: ZUJKAS_clean_linker_0, # of connection points: 2
#     Edge 13, Type (0, 0), BuildingBlock: ZUJKAS_clean_linker_0, # of connection points: 2
#     Edge 14, Type (0, 0), BuildingBlock: ZUJKAS_clean_linker_0, # of connection points: 2
#     Edge 15, Type (0, 0), BuildingBlock: ZUJKAS_clean_linker_0, # of connection points: 2
#     Edge 16, Type (0, 0), BuildingBlock: ZUJKAS_clean_linker_0, # of connection points: 2
#     Edge 17, Type (0, 0), BuildingBlock: ZUJKAS_clean_linker_0, # of connection points: 2
#     Edge 18, Type (0, 0), BuildingBlock: ZUJKAS_clean_linker_0, # of connection points: 2
#     Edge 19, Type (0, 0), BuildingBlock: ZUJKAS_clean_linker_0, # of connection points: 2
#     Edge 20, Type (0, 0), BuildingBlock: ZUJKAS_clean_linker_0, # of connection points: 2
#     Edge 21, Type (0, 0), BuildingBlock: ZUJKAS_clean_linker_0, # of connection points: 2
#     Edge 22, Type (0, 0), BuildingBlock: ZUJKAS_clean_linker_0, # of connection points: 2
#     Edge 23, Type (0, 0), BuildingBlock: ZUJKAS_clean_linker_0, # of connection points: 2
#     Edge 24, Type (0, 0), BuildingBlock: ZUJKAS_clean_linker_0, # of connection points: 2
#     Edge 25, Type (0, 0), BuildingBlock: ZUJKAS_clean_linker_0, # of connection points: 2
#     Edge 26, Type (0, 0), BuildingBlock: ZUJKAS_clean_linker_0, # of connection points: 2
#     Edge 27, Type (0, 0), BuildingBlock: ZUJKAS_clean_linker_0, # of connection points: 2
#     Edge 28, Type (0, 0), BuildingBlock: ZUJKAS_clean_linker_0, # of connection points: 2
#     Edge 29, Type (0, 0), BuildingBlock: ZUJKAS_clean_linker_0, # of connection points: 2
#     Edge 30, Type (0, 0), BuildingBlock: ZUJKAS_clean_linker_0, # of connection points: 2
#     Edge 31, Type (0, 0), BuildingBlock: ZUJKAS_clean_linker_0, # of connection points: 2
#     Edge 32, Type (0, 0), BuildingBlock: ZUJKAS_clean_linker_0, # of connection points: 2
#     Edge 33, Type (0, 0), BuildingBlock: ZUJKAS_clean_linker_0, # of connection points: 2
#     Edge 34, Type (0, 0), BuildingBlock: ZUJKAS_clean_linker_0, # of connection points: 2
#     Edge 35, Type (0, 0), BuildingBlock: ZUJKAS_clean_linker_0, # of connection points: 2
#     Edge 36, Type (0, 0), BuildingBlock: ZUJKAS_clean_linker_0, # of connection points: 2
#     Edge 37, Type (0, 0), BuildingBlock: ZUJKAS_clean_linker_0, # of connection points: 2
#     Edge 38, Type (0, 0), BuildingBlock: ZUJKAS_clean_linker_0, # of connection points: 2
#     Edge 39, Type (0, 0), BuildingBlock: ZUJKAS_clean_linker_0, # of connection points: 2
#     Edge 40, Type (0, 0), BuildingBlock: ZUJKAS_clean_linker_0, # of connection points: 2
#     Edge 41, Type (0, 0), BuildingBlock: ZUJKAS_clean_linker_0, # of connection points: 2
#     Edge 42, Type (0, 0), BuildingBlock: ZUJKAS_clean_linker_0, # of connection points: 2
#     Edge 43, Type (0, 0), BuildingBlock: ZUJKAS_clean_linker_0, # of connection points: 2
#     Edge 44, Type (0, 0), BuildingBlock: ZUJKAS_clean_linker_0, # of connection points: 2
#     Edge 45, Type (0, 0), BuildingBlock: ZUJKAS_clean_linker_0, # of connection points: 2
#     Edge 46, Type (0, 0), BuildingBlock: ZUJKAS_clean_linker_0, # of connection points: 2
#     Edge 47, Type (0, 0), BuildingBlock: ZUJKAS_clean_linker_0, # of connection points: 2
# Relax obj value: 0.548
# Max RMSD: 0.346
# Mean RMSD: 0.291
data_MOF--net-lcy-e--node1-FUNLAD_clean_sbu_0--edge1-ZUJKAS_clean_linker_0
_symmetry_space_group_name_H-M    P1
_symmetry_Int_Tables_number       1
_symmetry_cell_setting            triclinic
loop_
_symmetry_equiv_pos_as_xyz
'x, y, z'
_cell_length_a     50.751638
_cell_length_b     48.279563
_cell_length_c     47.715322
_cell_angle_alpha  92.384637
_cell_angle_beta   87.760399
_cell_angle_gamma 94.544215
loop_
_atom_site_label
_atom_site_type_symbol
_atom_site_fract_x
_atom_site_fract_y
_atom_site_fract_z
_atom_type_partial_charge
C0 C 0.08355 0.17642 0.50176 0.0
N1 N 0.03588 0.18581 0.43302 0.0
C2 C 0.03507 0.15782 0.42798 0.0
C3 C 0.01354 0.14392 0.41465 0.0
C4 C 0.99274 0.159 0.40639 0.0
C5 C 0.99425 0.18786 0.41169 0.0
C6 C 0.01605 0.20088 0.42513 0.0
Zn7 Zn 0.06679 0.20664 0.45281 0.0
C8 C 0.04792 0.24358 0.49941 0.0
N9 N 0.13078 0.25255 0.49376 0.0
C10 C 0.15491 0.24278 0.49695 0.0
C11 C 0.12646 0.27951 0.50057 0.0
C12 C 0.14664 0.29777 0.51096 0.0
C13 C 0.17182 0.28853 0.51388 0.0
C14 C 0.17596 0.26064 0.50681 0.0
Zn15 Zn 0.10029 0.22938 0.47483 0.0
O16 O 0.06671 0.17565 0.48262 0.0
C17 C 0.119 0.19016 0.43048 0.0
O18 O 0.10076 0.19703 0.50378 0.0
H19 H 0.10751 0.28727 0.4971 0.0
H20 H 0.05109 0.14629 0.43436 0.0
H21 H 0.15805 0.22136 0.49116 0.0
O22 O 0.0943 0.18497 0.42743 0.0
O23 O 0.12709 0.20891 0.44829 0.0
H24 H 0.01703 0.22309 0.42944 0.0
O25 O 0.09981 0.26098 0.44528 0.0
O26 O 0.06786 0.2379 0.42267 0.0
O27 O 0.07266 0.24864 0.50181 0.0
O28 O 0.0395 0.22741 0.47949 0.0
C29 C 0.08449 0.25888 0.42476 0.0
H30 H 0.01325 0.12164 0.41069 0.0
H31 H 0.9785 0.2002 0.40604 0.0
H32 H 0.14283 0.31927 0.51569 0.0
H33 H 0.19521 0.25285 0.50877 0.0
C34 C 0.0429 0.91861 0.74828 0.0
N35 N 0.07427 0.86385 0.68689 0.0
C36 C 0.09913 0.8765 0.68889 0.0
C37 C 0.12118 0.86176 0.68119 0.0
C38 C 0.11729 0.83415 0.67088 0.0
C39 C 0.09154 0.82164 0.6694 0.0
C40 C 0.07028 0.83681 0.6778 0.0
Zn41 Zn 0.04078 0.88387 0.69565 0.0
C42 C 0.00278 0.84953 0.733 0.0
N43 N 0.96854 0.92174 0.71256 0.0
C44 C 0.96823 0.94985 0.71604 0.0
C45 C 0.9457 0.90511 0.71064 0.0
C46 C 0.92139 0.91661 0.71171 0.0
C47 C 0.92048 0.94555 0.71438 0.0
C48 C 0.94424 0.96231 0.7168 0.0
Zn49 Zn 0.00309 0.90325 0.70559 0.0
O50 O 0.05679 0.904 0.73157 0.0
C51 C 0.04136 0.93838 0.66986 0.0
O52 O 0.01904 0.92195 0.74284 0.0
H53 H 0.94634 0.8829 0.70728 0.0
H54 H 0.10184 0.89801 0.6962 0.0
H55 H 0.98662 0.9627 0.7174 0.0
O56 O 0.05566 0.91804 0.67132 0.0
O57 O 0.01876 0.93736 0.68237 0.0
H58 H 0.05045 0.82694 0.67677 0.0
O59 O 0.98748 0.8843 0.66834 0.0
O60 O 0.02423 0.86438 0.65929 0.0
O61 O 0.98818 0.86908 0.7291 0.0
O62 O 0.02567 0.85009 0.7211 0.0
C63 C 0.0011 0.86877 0.65245 0.0
H64 H 0.14092 0.87188 0.68275 0.0
H65 H 0.08792 0.80019 0.66202 0.0
H66 H 0.9035 0.90303 0.70938 0.0
H67 H 0.94425 0.98473 0.71903 0.0
C68 C 0.32208 0.78465 0.94162 0.0
N69 N 0.25585 0.83057 0.95921 0.0
C70 C 0.25603 0.83578 0.93144 0.0
C71 C 0.23393 0.8457 0.9199 0.0
C72 C 0.21163 0.85094 0.93724 0.0
C73 C 0.21176 0.84434 0.96563 0.0
C74 C 0.23403 0.83386 0.97612 0.0
Zn75 Zn 0.28954 0.82146 0.97733 0.0
C76 C 0.28138 0.77088 0.01103 0.0
N77 N 0.35944 0.80476 0.01771 0.0
C78 C 0.38377 0.80777 0.00465 0.0
C79 C 0.35651 0.79788 0.04506 0.0
C80 C 0.37851 0.79395 0.06047 0.0
C81 C 0.4039 0.79703 0.04769 0.0
C82 C 0.40645 0.80403 0.01938 0.0
Zn83 Zn 0.32609 0.81265 -0.00194 0.0
O84 O 0.29988 0.79525 0.94276 0.0
C85 C 0.33481 0.86188 0.96307 0.0
O86 O 0.3373 0.78852 0.9622 0.0
H87 H 0.33704 0.7959 0.05515 0.0
H88 H 0.2736 0.83303 0.91838 0.0
H89 H 0.38562 0.81336 0.98291 0.0
O90 O 0.31075 0.85548 0.95753 0.0
O91 O 0.34595 0.84778 0.9804 0.0
H92 H 0.23423 0.82938 -0.00188 0.0
O93 O 0.31507 0.83746 0.03329 0.0
O94 O 0.28024 0.84849 0.01197 0.0
O95 O 0.30574 0.7771 0.01513 0.0
O96 O 0.26883 0.78664 0.99654 0.0
C97 C 0.29484 0.85124 0.03302 0.0
H98 H 0.23457 0.84965 0.89771 0.0
H99 H 0.1953 0.8482 0.97999 0.0
H100 H 0.37566 0.78905 0.08238 0.0
H101 H 0.42568 0.80641 0.00873 0.0
C102 C 0.34225 0.09316 0.29793 0.0
N103 N 0.37204 0.15165 0.24032 0.0
C104 C 0.34706 0.15041 0.23076 0.0
C105 C 0.33785 0.17333 0.21848 0.0
C106 C 0.35441 0.19792 0.21615 0.0
C107 C 0.38015 0.19859 0.22613 0.0
C108 C 0.38862 0.17509 0.23817 0.0
Zn109 Zn 0.38443 0.11723 0.25763 0.0
C110 C 0.41187 0.1298 0.31107 0.0
N111 N 0.40801 0.04405 0.29353 0.0
C112 C 0.39563 0.01819 0.28944 0.0
C113 C 0.4327 0.04751 0.30389 0.0
C114 C 0.44648 0.02463 0.30907 0.0
C115 C 0.43507 -0.00226 0.30305 0.0
C116 C 0.409 0.99454 0.29387 0.0
Zn117 Zn 0.39428 0.07862 0.27739 0.0
O118 O 0.34932 0.11292 0.28184 0.0
C119 C 0.36617 0.06503 0.22523 0.0
O120 O 0.35779 0.07414 0.30104 0.0
H121 H 0.4427 0.06803 0.3062 0.0
H122 H 0.3342 0.13157 0.2326 0.0
H123 H 0.37607 0.0158 0.28104 0.0
O124 O 0.36607 0.09136 0.22483 0.0
O125 O 0.37739 0.05431 0.24493 0.0
H126 H 0.40841 0.17559 0.24589 0.0
O127 O 0.43034 0.08338 0.25277 0.0
O128 O 0.41952 0.12091 0.23319 0.0
O129 O 0.41059 0.10346 0.31008 0.0
O130 O 0.40269 0.14237 0.29109 0.0
C131 C 0.43576 0.10255 0.23551 0.0
H132 H 0.318 0.17168 0.21071 0.0
H133 H 0.39348 0.21721 0.22511 0.0
H134 H 0.46673 0.02811 0.31555 0.0
H135 H 0.39956 0.9741 0.28899 0.0
C136 C 0.61843 0.28283 0.53277 0.0
N137 N 0.56611 0.30042 0.60064 0.0
C138 C 0.57657 0.32711 0.60419 0.0
C139 C 0.56146 0.34725 0.61732 0.0
C140 C 0.53538 0.33979 0.6268 0.0
C141 C 0.52496 0.31226 0.62207 0.0
C142 C 0.54074 0.29285 0.60905 0.0
Zn143 Zn 0.58859 0.26946 0.58574 0.0
C144 C 0.55943 0.22994 0.5465 0.0
N145 N 0.63475 0.20297 0.55692 0.0
C146 C 0.66039 0.20714 0.5476 0.0
C147 C 0.62249 0.17692 0.55799 0.0
C148 C 0.63599 0.1538 0.54952 0.0
C149 C 0.66243 0.15735 0.53967 0.0
C150 C 0.67469 0.1845 0.53883 0.0
Zn151 Zn 0.6132 0.23536 0.57054 0.0
O152 O 0.60204 0.29216 0.55094 0.0
C153 C 0.64308 0.27618 0.60774 0.0
O154 O 0.62696 0.25905 0.53562 0.0
H155 H 0.60215 0.174 0.56558 0.0
H156 H 0.59683 0.33264 0.59747 0.0
H157 H 0.66975 0.22804 0.54693 0.0
O158 O 0.6212 0.28735 0.60835 0.0
O159 O 0.64529 0.25338 0.59384 0.0
H160 H 0.53283 0.2715 0.60624 0.0
O161 O 0.59917 0.21248 0.60597 0.0
O162 O 0.57549 0.24651 0.62073 0.0
O163 O 0.58101 0.21829 0.5467 0.0
O164 O 0.55664 0.25165 0.56195 0.0
C165 C 0.58338 0.22269 0.6242 0.0
H166 H 0.57034 0.36821 0.62065 0.0
H167 H 0.50479 0.30568 0.62842 0.0
H168 H 0.62585 0.13329 0.551 0.0
H169 H 0.69495 0.18824 0.53113 0.0
C170 C 0.86715 0.35626 0.76532 0.0
N171 N 0.87627 0.29965 0.82735 0.0
C172 C 0.84986 0.30033 0.83305 0.0
C173 C 0.83499 0.27671 0.84232 0.0
C174 C 0.84739 0.25212 0.84576 0.0
C175 C 0.8748 0.25223 0.84035 0.0
C176 C 0.88892 0.27633 0.83107 0.0
Zn177 Zn 0.89695 0.3337 0.81135 0.0
C178 C 0.93176 0.31866 0.76169 0.0
N179 N 0.93992 0.40467 0.77654 0.0
C180 C 0.93071 0.43048 0.77867 0.0
C181 C 0.96557 0.40124 0.76873 0.0
C182 C 0.98327 0.42416 0.76389 0.0
C183 C 0.97478 0.451 0.76786 0.0
C184 C 0.94805 0.45416 0.77479 0.0
Zn185 Zn 0.9181 0.37049 0.79162 0.0
O186 O 0.86692 0.33789 0.78362 0.0
C187 C 0.88309 0.38686 0.8397 0.0
O188 O 0.88704 0.37398 0.76303 0.0
H189 H 0.97291 0.38083 0.76799 0.0
H190 H 0.84021 0.3191 0.82998 0.0
H191 H 0.9103 0.43289 0.78496 0.0
O192 O 0.87784 0.36077 0.84172 0.0
O193 O 0.89936 0.39565 0.8207 0.0
H194 H 0.90992 0.27626 0.82633 0.0
O195 O 0.94835 0.3666 0.82068 0.0
O196 O 0.92738 0.33012 0.83948 0.0
O197 O 0.93643 0.34482 0.76245 0.0
O198 O 0.91577 0.30743 0.77989 0.0
C199 C 0.94715 0.34794 0.83882 0.0
H200 H 0.81396 0.27765 0.84664 0.0
H201 H 0.8851 0.23366 0.84246 0.0
H202 H 0.00388 0.42095 0.75909 0.0
H203 H 0.94092 0.47464 0.77814 0.0
C204 C 0.84987 0.63509 0.97931 0.0
N205 N 0.90651 0.66058 0.03888 0.0
C206 C 0.90362 0.63461 0.04915 0.0
C207 C 0.9236 0.62484 0.0645 0.0
C208 C 0.94688 0.6419 0.06927 0.0
C209 C 0.94956 0.66835 0.0578 0.0
C210 C 0.92904 0.67734 0.04268 0.0
Zn211 Zn 0.87545 0.67596 0.02019 0.0
C212 C 0.8911 0.70651 0.96864 0.0
N213 N 0.80956 0.70856 0.98378 0.0
C214 C 0.78499 0.69502 0.98305 0.0
C215 C 0.81411 0.73498 0.97491 0.0
C216 C 0.79355 0.74901 0.96528 0.0
C217 C 0.76787 0.73593 0.96495 0.0
C218 C 0.76367 0.70848 0.97378 0.0
Zn219 Zn 0.8405 0.69181 0.00127 0.0
O220 O 0.86958 0.6395 0.99498 0.0
C221 C 0.82383 0.66052 0.05117 0.0
O222 O 0.83401 0.654 0.9772 0.0
H223 H 0.83361 0.74561 0.97612 0.0
H224 H 0.88551 0.62166 0.04602 0.0
H225 H 0.78178 0.67406 0.99032 0.0
O226 O 0.84851 0.65748 0.05141 0.0
O227 O 0.81517 0.67511 0.03259 0.0
H228 H 0.93089 0.69796 0.03443 0.0
O229 O 0.84685 0.72878 0.02657 0.0
O230 O 0.88048 0.71239 0.04593 0.0
O231 O 0.86625 0.70811 0.9695 0.0
O232 O 0.90153 0.69417 0.988 0.0
C233 C 0.86497 0.73157 0.04432 0.0
H234 H 0.92047 0.60443 0.07319 0.0
H235 H 0.96731 0.68205 0.06051 0.0
H236 H 0.79757 0.77034 0.95919 0.0
H237 H 0.74414 0.69769 0.97378 0.0
C238 C 0.56739 0.59289 0.32921 0.0
N239 N 0.60896 0.52372 0.305 0.0
C240 C 0.62233 0.52631 0.32925 0.0
C241 C 0.6316 0.50301 0.34072 0.0
C242 C 0.62665 0.47681 0.32735 0.0
C243 C 0.61264 0.47462 0.30251 0.0
C244 C 0.60413 0.49856 0.29147 0.0
Zn245 Zn 0.5971 0.55834 0.28796 0.0
C246 C 0.54323 0.54942 0.26472 0.0
N247 N 0.57341 0.6308 0.25126 0.0
C248 C 0.57813 0.65668 0.26336 0.0
C249 C 0.56145 0.62696 0.22623 0.0
C250 C 0.55327 0.64952 0.21262 0.0
C251 C 0.55774 0.67638 0.22464 0.0
C252 C 0.57058 0.68001 0.25017 0.0
Zn253 Zn 0.5847 0.59634 0.26931 0.0
O254 O 0.57916 0.5706 0.32654 0.0
C255 C 0.63721 0.60637 0.29401 0.0
O256 O 0.56639 0.60815 0.30824 0.0
H257 H 0.55827 0.6063 0.21673 0.0
H258 H 0.62579 0.54647 0.33976 0.0
H259 H 0.58773 0.65924 0.28325 0.0
O260 O 0.6329 0.58096 0.29984 0.0
O261 O 0.62017 0.61807 0.28087 0.0
H262 H 0.59369 0.49705 0.27208 0.0
O263 O 0.60339 0.58439 0.23102 0.0
O264 O 0.61589 0.54684 0.24919 0.0
O265 O 0.54909 0.57444 0.2583 0.0
O266 O 0.56017 0.53646 0.27684 0.0
C267 C 0.61598 0.56267 0.22857 0.0
H268 H 0.64195 0.50534 0.36021 0.0
H269 H 0.60844 0.45465 0.29175 0.0
H270 H 0.54368 0.64603 0.19274 0.0
H271 H 0.57425 0.7005 0.26001 0.0
C272 C 0.14878 0.50127 0.16902 0.0
N273 N 0.15116 0.43506 0.10904 0.0
C274 C 0.12499 0.42864 0.11499 0.0
C275 C 0.10847 0.41709 0.09403 0.0
C276 C 0.11901 0.41225 0.06673 0.0
C277 C 0.14621 0.41841 0.0615 0.0
C278 C 0.16194 0.42987 0.08299 0.0
Zn279 Zn 0.17542 0.45479 0.13812 0.0
C280 C 0.20616 0.50415 0.11429 0.0
N281 N 0.22749 0.49721 0.19761 0.0
C282 C 0.22456 0.49522 0.22602 0.0
C283 C 0.25101 0.50712 0.18565 0.0
C284 C 0.27264 0.51481 0.20198 0.0
C285 C 0.27066 0.51154 0.23099 0.0
C286 C 0.24616 0.502 0.2432 0.0
Zn287 Zn 0.20043 0.47838 0.17002 0.0
O288 O 0.14624 0.48152 0.1506 0.0
C289 C 0.16864 0.43021 0.1946 0.0
O290 O 0.1704 0.5057 0.18183 0.0
H291 H 0.25391 0.50733 0.16317 0.0
H292 H 0.11682 0.43303 0.13583 0.0
H293 H 0.20597 0.48691 0.23529 0.0
O294 O 0.16072 0.42668 0.16961 0.0
O295 O 0.1855 0.4503 0.20045 0.0
H296 H 0.18277 0.43511 0.07867 0.0
O297 O 0.22971 0.45101 0.15766 0.0
O298 O 0.20518 0.4278 0.12656 0.0
O299 O 0.214 0.50604 0.1392 0.0
O300 O 0.18983 0.48404 0.1071 0.0
C301 C 0.22672 0.4313 0.13935 0.0
H302 H 0.08756 0.41283 0.09892 0.0
H303 H 0.15525 0.41461 0.04091 0.0
H304 H 0.29135 0.5214 0.19165 0.0
H305 H 0.244 0.49902 0.26557 0.0
C306 C 0.55996 0.98451 0.85588 0.0
N307 N 0.59192 0.02577 0.92749 0.0
C308 C 0.56897 0.03845 0.93108 0.0
C309 C 0.56023 0.04715 0.9579 0.0
C310 C 0.57532 0.04284 0.9812 0.0
C311 C 0.5991 0.03004 0.97674 0.0
C312 C 0.60701 0.02157 0.94964 0.0
Zn313 Zn 0.60445 0.0122 0.88858 0.0
C314 C 0.61979 0.95338 0.8893 0.0
N315 N 0.63158 0.98228 0.80787 0.0
C316 C 0.62416 0.99333 0.78384 0.0
C317 C 0.65252 0.96635 0.80774 0.0
C318 C 0.66795 0.96256 0.7834 0.0
C319 C 0.66226 0.97581 0.75897 0.0
C320 C 0.63953 0.99058 0.75901 0.0
Zn321 Zn 0.6171 0.99528 0.84649 0.0
O322 O 0.56593 0.99652 0.87922 0.0
C323 C 0.60185 0.05362 0.8454 0.0
O324 O 0.57783 0.98035 0.83709 0.0
H325 H 0.65873 0.95838 0.82703 0.0
H326 H 0.55728 0.04157 0.91316 0.0
H327 H 0.60747 0.00595 0.78429 0.0
O328 O 0.59659 0.0507 0.87142 0.0
O329 O 0.6109 0.03378 0.83071 0.0
H330 H 0.62522 0.01149 0.94632 0.0
O331 O 0.65624 0.01101 0.85609 0.0
O332 O 0.64315 0.02844 0.8969 0.0
O333 O 0.623 0.95694 0.86318 0.0
O334 O 0.61228 0.97321 0.90527 0.0
C335 C 0.66155 0.02483 0.87867 0.0
H336 H 0.54159 0.05661 0.96039 0.0
H337 H 0.61155 0.02665 0.994 0.0
H338 H 0.68562 0.9515 0.78451 0.0
H339 H 0.63458 0.00115 0.74057 0.0
C340 C 0.80905 0.95495 0.33236 0.0
N341 N 0.84057 0.89235 0.37633 0.0
C342 C 0.86484 0.89695 0.36337 0.0
C343 C 0.88749 0.88963 0.37628 0.0
C344 C 0.88472 0.8771 0.40232 0.0
C345 C 0.85961 0.87301 0.41529 0.0
C346 C 0.83775 0.88102 0.402 0.0
Zn347 Zn 0.80629 0.89963 0.35807 0.0
C348 C 0.76979 0.92869 0.39797 0.0
N349 N 0.73317 0.91302 0.32187 0.0
C350 C 0.73073 0.92382 0.29627 0.0
C351 C 0.71154 0.9032 0.33726 0.0
C352 C 0.6864 0.90305 0.32674 0.0
C353 C 0.68326 0.91357 0.30029 0.0
C354 C 0.70566 0.92457 0.28509 0.0
Zn355 Zn 0.76881 0.90789 0.33866 0.0
O356 O 0.82237 0.93799 0.34442 0.0
C357 C 0.80527 0.88059 0.29807 0.0
O358 O 0.78479 0.94843 0.32748 0.0
H359 H 0.71377 0.89496 0.35768 0.0
H360 H 0.86658 0.90595 0.34293 0.0
H361 H 0.7482 0.93143 0.28436 0.0
O362 O 0.81931 0.88046 0.31958 0.0
O363 O 0.78309 0.89116 0.30018 0.0
H364 H 0.81838 0.87776 0.41209 0.0
O365 O 0.75382 0.86726 0.35003 0.0
O366 O 0.79009 0.86072 0.37114 0.0
O367 O 0.75508 0.92503 0.37705 0.0
O368 O 0.79281 0.91995 0.39626 0.0
C369 C 0.76712 0.85184 0.36397 0.0
H370 H 0.90677 0.89325 0.36596 0.0
H371 H 0.85698 0.86376 0.43563 0.0
H372 H 0.66948 0.89492 0.33926 0.0
H373 H 0.70382 0.93305 0.26466 0.0
C374 C 0.35159 0.53739 0.67681 0.0
N375 N 0.35891 0.59771 0.61557 0.0
C376 C 0.38516 0.59923 0.62081 0.0
C377 C 0.40399 0.60554 0.59938 0.0
C378 C 0.39568 0.61068 0.57242 0.0
C379 C 0.36843 0.6106 0.56823 0.0
C380 C 0.35036 0.60367 0.59001 0.0
Zn381 Zn 0.33123 0.58299 0.6446 0.0
C382 C 0.29849 0.53369 0.62106 0.0
N383 N 0.27277 0.55023 0.70386 0.0
C384 C 0.27565 0.55242 0.73218 0.0
C385 C 0.24892 0.54199 0.69286 0.0
C386 C 0.22683 0.53602 0.71032 0.0
C387 C 0.22898 0.53931 0.73941 0.0
C388 C 0.2537 0.54738 0.75052 0.0
Zn389 Zn 0.30202 0.56445 0.6759 0.0
O390 O 0.35716 0.55495 0.65794 0.0
C391 C 0.33478 0.61245 0.70034 0.0
O392 O 0.32879 0.5362 0.68902 0.0
H393 H 0.24654 0.54133 0.67046 0.0
H394 H 0.39156 0.59447 0.64129 0.0
H395 H 0.29466 0.55921 0.74059 0.0
O396 O 0.34556 0.61337 0.6758 0.0
O397 O 0.31623 0.59397 0.70543 0.0
H398 H 0.32945 0.60212 0.58611 0.0
O399 O 0.27582 0.59311 0.66278 0.0
O400 O 0.30471 0.61119 0.6321 0.0
O401 O 0.28858 0.53479 0.64581 0.0
O402 O 0.31684 0.5518 0.61393 0.0
C403 C 0.28205 0.6109 0.64432 0.0
H404 H 0.42474 0.60509 0.60363 0.0
H405 H 0.36102 0.61506 0.54806 0.0
H406 H 0.20788 0.5303 0.70112 0.0
H407 H 0.25586 0.55027 0.77297 0.0
H408 H 0.1716 0.32348 0.55986 0.0
H409 H 0.20399 0.36216 0.57111 0.0
H410 H 0.25304 0.33857 0.49961 0.0
H411 H 0.22047 0.29957 0.4882 0.0
H412 H 0.2623 0.36318 0.57919 0.0
H413 H 0.23306 0.42125 0.48806 0.0
H414 H 0.2119 0.39283 0.50194 0.0
H415 H 0.24182 0.38592 0.48263 0.0
C416 C 0.1895 0.32627 0.54682 0.0
C417 C 0.19354 0.30869 0.52312 0.0
C418 C 0.20797 0.34831 0.55326 0.0
C419 C 0.23069 0.35334 0.53599 0.0
C420 C 0.23549 0.33507 0.51304 0.0
H421 H 0.32399 0.51371 0.5732 0.0
H422 H 0.31274 0.4692 0.54759 0.0
C423 C 0.21704 0.31275 0.5067 0.0
C424 C 0.24809 0.37887 0.5415 0.0
H425 H 0.25773 0.4465 0.52256 0.0
C426 C 0.26197 0.38121 0.56642 0.0
C427 C 0.24758 0.40231 0.52473 0.0
C428 C 0.23278 0.40073 0.49784 0.0
C429 C 0.27394 0.40686 0.57594 0.0
C430 C 0.27158 0.43074 0.56035 0.0
C431 C 0.25945 0.42807 0.53438 0.0
C432 C 0.27747 0.45884 0.57313 0.0
C433 C 0.28769 0.40863 0.60349 0.0
C434 C 0.26078 0.46799 0.59506 0.0
C435 C 0.26699 0.49316 0.60947 0.0
C436 C 0.29006 0.50978 0.60225 0.0
C437 C 0.30605 0.50137 0.57917 0.0
C438 C 0.29976 0.47596 0.56465 0.0
H439 H 0.29378 0.38804 0.60918 0.0
H440 H 0.30542 0.42365 0.60265 0.0
H441 H 0.27393 0.416 0.62034 0.0
H442 H 0.2433 0.45518 0.6016 0.0
H443 H 0.25411 0.49911 0.62697 0.0
H444 H 0.68967 0.93444 0.73408 0.0
H445 H 0.73369 0.94112 0.71182 0.0
H446 H 0.72607 0.02938 0.71053 0.0
H447 H 0.68225 0.02292 0.73361 0.0
H448 H 0.76259 0.96755 0.66645 0.0
H449 H 0.78072 0.02112 0.77067 0.0
H450 H 0.74974 0.00184 0.76332 0.0
H451 H 0.75761 0.03529 0.74868 0.0
C452 C 0.69696 0.95513 0.72806 0.0
C453 C 0.68286 0.97822 0.73617 0.0
C454 C 0.72209 0.95894 0.71527 0.0
C455 C 0.73337 0.98584 0.71032 0.0
C456 C 0.71783 0.00851 0.71468 0.0
H457 H 0.90774 0.98828 0.68277 0.0
H458 H 0.86358 0.00496 0.67807 0.0
C459 C 0.69268 0.00473 0.72764 0.0
C460 C 0.76244 0.99006 0.70633 0.0
H461 H 0.8174 0.00772 0.74423 0.0
C462 C 0.77471 0.97709 0.68299 0.0
C463 C 0.77812 0.00228 0.72822 0.0
C464 C 0.76602 0.01581 0.75425 0.0
C465 C 0.8021 0.97447 0.68181 0.0
C466 C 0.81737 0.9851 0.70452 0.0
C467 C 0.80546 -0.00023 0.72686 0.0
C468 C 0.84437 0.97682 0.70797 0.0
C469 C 0.81429 0.95848 0.65746 0.0
C470 C 0.84803 0.95603 0.72678 0.0
C471 C 0.87297 0.94655 0.72949 0.0
C472 C 0.89476 0.95784 0.71357 0.0
C473 C 0.89126 0.97941 0.69544 0.0
C474 C 0.86613 0.98878 0.69257 0.0
H475 H 0.79969 0.95162 0.64136 0.0
H476 H 0.83063 0.97166 0.64743 0.0
H477 H 0.82289 0.93989 0.66516 0.0
H478 H 0.8314 0.94669 0.73892 0.0
H479 H 0.87519 0.93009 0.74377 0.0
H480 H 0.30044 0.73684 0.04824 0.0
H481 H 0.28203 0.69062 0.06102 0.0
H482 H 0.2156 0.69791 0.00894 0.0
H483 H 0.23387 0.74445 0.99598 0.0
H484 H 0.22776 0.67492 0.08528 0.0
H485 H 0.25116 0.62387 0.98126 0.0
H486 H 0.26806 0.65649 0.99269 0.0
H487 H 0.23442 0.65548 0.98234 0.0
C488 C 0.28179 0.72878 0.03966 0.0
C489 C 0.26865 0.74429 0.02103 0.0
C490 C 0.27133 0.70236 0.04697 0.0
C491 C 0.24769 0.6908 0.03561 0.0
C492 C 0.23405 0.70643 0.01764 0.0
H493 H 0.17924 0.52113 0.07003 0.0
H494 H 0.18709 0.56604 0.04733 0.0
C495 C 0.24441 0.73306 0.01045 0.0
C496 C 0.23773 0.66224 0.04268 0.0
H497 H 0.2348 0.5948 0.01745 0.0
C498 C 0.22892 0.65744 0.07037 0.0
C499 C 0.23919 0.63956 0.02308 0.0
C500 C 0.24879 0.64385 0.99315 0.0
C501 C 0.22234 0.63039 0.07927 0.0
C502 C 0.22519 0.60757 0.06011 0.0
C503 C 0.23279 0.61239 0.03205 0.0
C504 C 0.22251 0.57875 0.0698 0.0
C505 C 0.21296 0.62637 0.10934 0.0
C506 C 0.24058 0.57063 0.08875 0.0
C507 C 0.23619 0.54523 0.10164 0.0
C508 C 0.21373 0.52735 0.09565 0.0
C509 C 0.19677 0.53446 0.07493 0.0
C510 C 0.20113 0.56012 0.06209 0.0
H511 H 0.20516 0.64553 0.11903 0.0
H512 H 0.19728 0.60903 0.11078 0.0
H513 H 0.22982 0.62115 0.12174 0.0
H514 H 0.25744 0.58457 0.09458 0.0
H515 H 0.24973 0.54021 0.11734 0.0
H516 H 0.43998 0.95752 0.26165 0.0
H517 H 0.47643 0.92736 0.25478 0.0
H518 H 0.50642 0.95666 0.33498 0.0
H519 H 0.46959 0.98578 0.34239 0.0
H520 H 0.52525 0.94857 0.24858 0.0
H521 H 0.52278 0.87755 0.33584 0.0
H522 H 0.49425 0.89536 0.32757 0.0
H523 H 0.51917 0.91203 0.34993 0.0
C524 C 0.45365 0.95648 0.27839 0.0
C525 C 0.45207 0.97413 0.3025 0.0
C526 C 0.4746 0.93942 0.27432 0.0
C527 C 0.49416 0.93963 0.29437 0.0
C528 C 0.49135 0.95559 0.31943 0.0
H529 H 0.65843 0.95782 0.28406 0.0
H530 H 0.61125 0.95897 0.27601 0.0
C531 C 0.47039 0.97249 0.32356 0.0
C532 C 0.51958 0.92726 0.28749 0.0
H533 H 0.56712 0.89382 0.31776 0.0
C534 C 0.53415 0.93593 0.26333 0.0
C535 C 0.53112 0.91027 0.30627 0.0
C536 C 0.51581 0.89804 0.33116 0.0
C537 C 0.56067 0.93012 0.25879 0.0
C538 C 0.57311 0.91599 0.27936 0.0
C539 C 0.55784 0.90519 0.3022 0.0
C540 C 0.60222 0.91453 0.27931 0.0
C541 C 0.57517 0.93984 0.23236 0.0
C542 C 0.61296 0.88924 0.28381 0.0
C543 C 0.6398 0.88873 0.28899 0.0
C544 C 0.65639 0.91344 0.28951 0.0
C545 C 0.64606 0.93848 0.28334 0.0
C546 C 0.61911 0.93907 0.27859 0.0
H547 H 0.56147 0.93967 0.21474 0.0
H548 H 0.58354 0.96159 0.23589 0.0
H549 H 0.59153 0.92665 0.22607 0.0
H550 H 0.60036 0.87008 0.28454 0.0
H551 H 0.64742 0.86917 0.29371 0.0
H552 H 0.64341 0.11154 0.50904 0.0
H553 H 0.66629 0.07051 0.49447 0.0
H554 H 0.73705 0.10637 0.53325 0.0
H555 H 0.7141 0.14759 0.5484 0.0
H556 H 0.74522 0.08439 0.4781 0.0
H557 H 0.68671 0.00816 0.54356 0.0
H558 H 0.66637 0.02844 0.52384 0.0
H559 H 0.68689 0.04526 0.55044 0.0
C560 C 0.66372 0.1106 0.51488 0.0
C561 C 0.67682 0.13277 0.53016 0.0
C562 C 0.67676 0.08709 0.50655 0.0
C563 C 0.70317 0.08513 0.51334 0.0
C564 C 0.71657 0.10738 0.52807 0.0
H565 H 0.80019 0.95456 0.43923 0.0
H566 H 0.78699 0.99106 0.47307 0.0
C567 C 0.70348 0.13098 0.53652 0.0
C568 C 0.71688 0.06029 0.50366 0.0
H569 H 0.71063 0.98935 0.50349 0.0
C570 C 0.73811 0.06361 0.48407 0.0
C571 C 0.70758 0.03325 0.51164 0.0
C572 C 0.6858 0.02852 0.53375 0.0
C573 C 0.74906 0.04049 0.47071 0.0
C574 C 0.73874 0.01339 0.47754 0.0
C575 C 0.71849 0.01013 0.49829 0.0
C576 C 0.74625 0.98851 0.4608 0.0
C577 C 0.7704 0.04522 0.44809 0.0
C578 C 0.72739 0.97404 0.44386 0.0
C579 C 0.73478 0.9532 0.42472 0.0
C580 C 0.7612 0.94631 0.42221 0.0
C581 C 0.77969 0.95941 0.44065 0.0
C582 C 0.77225 0.98042 0.45982 0.0
H583 H 0.77333 0.06737 0.44244 0.0
H584 H 0.78939 0.03891 0.45556 0.0
H585 H 0.76547 0.03238 0.42888 0.0
H586 H 0.70718 0.97986 0.4444 0.0
H587 H 0.72001 0.94338 0.41096 0.0
H588 H 0.98389 0.48916 0.81056 0.0
H589 H 0.02441 0.51973 0.81671 0.0
H590 H 0.05206 0.49562 0.73328 0.0
H591 H 0.01178 0.46511 0.72717 0.0
H592 H 0.07222 0.49493 0.81484 0.0
H593 H 0.07656 0.57853 0.73888 0.0
H594 H 0.04577 0.56037 0.75046 0.0
H595 H 0.06601 0.54546 0.72282 0.0
C596 C -0.00186 0.49138 0.79314 0.0
C597 C 0.99483 0.47489 0.76837 0.0
C598 C 0.02129 0.50871 0.79673 0.0
C599 C 0.04113 0.5101 0.77539 0.0
C600 C 0.0368 0.49531 0.74981 0.0
H601 H 0.1966 0.49275 0.74688 0.0
H602 H 0.15095 0.49063 0.76554 0.0
C603 C 0.01386 0.4778 0.74635 0.0
C604 C 0.06806 0.52252 0.78115 0.0
H605 H 0.11894 0.56215 0.7506 0.0
C606 C 0.08229 0.51031 0.80141 0.0
C607 C 0.0811 0.54279 0.76391 0.0
C608 C 0.06646 0.55775 0.743 0.0
C609 C 0.10976 0.51578 0.80288 0.0
C610 C 0.1232 0.53375 0.78354 0.0
C611 C 0.10861 0.54812 0.76526 0.0
C612 C 0.15215 0.53424 0.77848 0.0
C613 C 0.12438 0.50106 0.824 0.0
C614 C 0.16812 0.55931 0.78018 0.0
C615 C 0.19435 0.56041 0.76982 0.0
C616 C 0.20465 0.53657 0.75723 0.0
C617 C 0.18911 0.51123 0.75693 0.0
C618 C 0.1631 0.51005 0.76761 0.0
H619 H 0.11145 0.49582 0.84267 0.0
H620 H 0.13082 0.48134 0.81423 0.0
H621 H 0.1422 0.51397 0.83096 0.0
H622 H 0.1599 0.57823 0.78817 0.0
H623 H 0.20592 0.58025 0.76973 0.0
H624 H 0.62167 0.94031 0.94462 0.0
H625 H 0.6384 0.89857 0.96292 0.0
H626 H 0.65024 0.86553 0.87841 0.0
H627 H 0.63335 0.90672 0.85999 0.0
H628 H 0.63043 0.8249 0.9177 0.0
H629 H 0.71891 0.89052 0.95386 0.0
H630 H 0.68722 0.90042 0.9671 0.0
H631 H 0.69589 0.90304 0.93041 0.0
C632 C 0.62743 0.92394 0.92998 0.0
C633 C 0.62653 0.92699 0.90085 0.0
C634 C 0.63702 0.90016 0.94046 0.0
C635 C 0.64586 0.8792 0.92197 0.0
C636 C 0.64352 0.88149 0.89301 0.0
H637 H 0.76659 0.76942 0.92054 0.0
H638 H 0.73338 0.80176 0.91193 0.0
C639 C 0.63399 0.90516 0.88254 0.0
C640 C 0.65998 0.85615 0.93217 0.0
H641 H 0.71912 0.84239 0.95799 0.0
C642 C 0.64963 0.82864 0.92696 0.0
C643 C 0.68517 0.86122 0.94389 0.0
C644 C 0.69766 0.89034 0.94903 0.0
C645 C 0.66419 0.80603 0.93252 0.0
C646 C 0.6896 0.81121 0.9435 0.0
C647 C 0.69955 0.83863 0.94958 0.0
C648 C 0.70733 0.78883 0.94672 0.0
C649 C 0.65298 0.77683 0.92546 0.0
C650 C 0.70325 0.77043 0.96873 0.0
C651 C 0.72229 0.75195 0.97378 0.0
C652 C 0.74568 0.75182 0.95695 0.0
C653 C 0.74893 0.76932 0.93406 0.0
C654 C 0.72997 0.78771 0.92906 0.0
H655 H 0.63378 0.77643 0.91499 0.0
H656 H 0.66718 0.76592 0.91151 0.0
H657 H 0.64996 0.7651 0.945 0.0
H658 H 0.68597 0.77124 0.98272 0.0
H659 H 0.71938 0.73889 0.99173 0.0
H660 H 0.51839 0.5034 0.28937 0.0
H661 H 0.47054 0.49041 0.29177 0.0
H662 H 0.45785 0.55647 0.23697 0.0
H663 H 0.50526 0.5695 0.23432 0.0
H664 H 0.4294 0.55433 0.29573 0.0
H665 H 0.41712 0.45824 0.22696 0.0
H666 H 0.44405 0.46302 0.25074 0.0
H667 H 0.44418 0.48415 0.22075 0.0
C668 C 0.50547 0.51465 0.27723 0.0
C669 C 0.51562 0.53756 0.26175 0.0
C670 C 0.47816 0.50729 0.27875 0.0
C671 C 0.46077 0.52265 0.26469 0.0
C672 C 0.471 0.54447 0.24805 0.0
H673 H 0.30699 0.55603 0.23187 0.0
H674 H 0.35225 0.55703 0.2476 0.0
C675 C 0.49813 0.55181 0.2465 0.0
C676 C 0.43176 0.51771 0.26868 0.0
H677 H 0.37845 0.47836 0.24347 0.0
C678 C 0.4182 0.53745 0.28472 0.0
C679 C 0.41734 0.49552 0.25459 0.0
C680 C 0.43123 0.4739 0.23721 0.0
C681 C 0.39047 0.53633 0.28592 0.0
C682 C 0.37599 0.51527 0.27017 0.0
C683 C 0.38956 0.49453 0.25553 0.0
C684 C 0.34735 0.51638 0.26554 0.0
C685 C 0.37698 0.55813 0.30349 0.0
C686 C 0.32933 0.49341 0.27079 0.0
C687 C 0.30334 0.49286 0.2618 0.0
C688 C 0.29516 0.51511 0.24707 0.0
C689 C 0.31277 0.53871 0.24333 0.0
C690 C 0.33861 0.53931 0.25242 0.0
H691 H 0.38918 0.5659 0.32143 0.0
H692 H 0.3743 0.57609 0.29039 0.0
H693 H 0.35726 0.54992 0.31174 0.0
H694 H 0.33572 0.47542 0.28069 0.0
H695 H 0.29027 0.47424 0.26454 0.0
H696 H 0.42218 0.18642 0.32039 0.0
H697 H 0.44276 0.21009 0.36171 0.0
H698 H 0.44864 0.13078 0.39838 0.0
H699 H 0.42831 0.1072 0.35783 0.0
H700 H 0.42839 0.17314 0.43592 0.0
H701 H 0.52281 0.20686 0.37906 0.0
H702 H 0.49233 0.21587 0.36503 0.0
H703 H 0.4997 0.18014 0.3647 0.0
C704 C 0.42782 0.17412 0.33732 0.0
C705 C 0.42373 0.14494 0.33571 0.0
C706 C 0.43958 0.18763 0.36084 0.0
C707 C 0.44728 0.17211 0.38299 0.0
C708 C 0.44278 0.14312 0.38155 0.0
H709 H 0.56065 0.18598 0.50871 0.0
H710 H 0.53096 0.17451 0.47015 0.0
C711 C 0.43123 0.12969 0.35821 0.0
C712 C 0.46085 0.18538 0.40756 0.0
H713 H 0.52116 0.21362 0.42804 0.0
C714 C 0.44851 0.18249 0.43425 0.0
C715 C 0.48718 0.19722 0.4052 0.0
C716 C 0.50149 0.20017 0.37703 0.0
C717 C 0.46216 0.19022 0.45876 0.0
C718 C 0.48874 0.20124 0.45639 0.0
C719 C 0.50076 0.2051 0.42969 0.0
C720 C 0.50512 0.20709 0.48125 0.0
C721 C 0.44855 0.18528 0.48699 0.0
C722 C 0.50006 0.22887 0.5006 0.0
C723 C 0.51697 0.23546 0.52278 0.0
C724 C 0.53928 0.22042 0.52588 0.0
C725 C 0.54366 0.19797 0.507 0.0
C726 C 0.52679 0.19145 0.48485 0.0
H727 H 0.42936 0.17269 0.48515 0.0
H728 H 0.46142 0.17451 0.5006 0.0
H729 H 0.44474 0.20558 0.49752 0.0
H730 H 0.48355 0.24132 0.49801 0.0
H731 H 0.5131 0.25297 0.53686 0.0
H732 H 0.05824 0.28353 0.54039 0.0
H733 H 0.0316 0.29195 0.58321 0.0
H734 H 0.97029 0.23211 0.55377 0.0
H735 H 0.99678 0.22356 0.51064 0.0
H736 H 0.97497 0.30651 0.59104 0.0
H737 H 0.99627 0.20395 0.63102 0.0
H738 H 0.01654 0.22045 0.60355 0.0
H739 H 0.98409 0.20517 0.59615 0.0
C740 C 0.03885 0.27257 0.54271 0.0
C741 C 0.02967 0.25277 0.5222 0.0
C742 C 0.0237 0.27736 0.56721 0.0
C743 C -0.00075 0.2623 0.57175 0.0
C744 C 0.98929 0.24368 0.55069 0.0
H745 H 0.90954 0.27207 0.73408 0.0
H746 H 0.92346 0.25427 0.68712 0.0
C747 C 0.00435 0.23902 0.526 0.0
C748 C 0.98513 0.26527 0.59924 0.0
H749 H 0.97481 0.23444 0.66235 0.0
C750 C 0.97451 0.2906 0.60649 0.0
C751 C 0.98455 0.24438 0.61925 0.0
C752 C 0.99602 0.21692 0.61235 0.0
C753 C 0.96414 0.29602 0.63364 0.0
C754 C 0.96497 0.27578 0.65415 0.0
C755 C 0.97434 0.24989 0.64655 0.0
C756 C 0.95862 0.28256 0.68402 0.0
C757 C 0.95303 0.3237 0.64041 0.0
C758 C 0.97458 0.30314 0.69821 0.0
C759 C 0.96676 0.31323 0.72473 0.0
C760 C 0.94294 0.30271 0.73771 0.0
C761 C 0.92809 0.28036 0.72459 0.0
C762 C 0.93589 0.27035 0.69775 0.0
H763 H 0.94712 0.33347 0.62118 0.0
H764 H 0.9356 0.32139 0.65518 0.0
H765 H 0.96838 0.33799 0.65052 0.0
H766 H 0.99244 0.31244 0.68811 0.0
H767 H 0.97865 0.33036 0.73447 0.0
H768 H 0.95351 0.8392 0.75702 0.0
H769 H 0.94062 0.80866 0.79558 0.0
H770 H 0.01955 0.78155 0.79502 0.0
H771 H 0.03275 0.81215 0.75626 0.0
H772 H 0.94476 0.74854 0.79969 0.0
H773 H 0.00462 0.81364 0.87694 0.0
H774 H 0.99601 0.82679 0.84389 0.0
H775 H 0.02083 0.80243 0.84469 0.0
C776 C 0.96809 0.8265 0.76481 0.0
C777 C 0.9942 0.82821 0.75362 0.0
C778 C 0.96068 0.80907 0.78687 0.0
C779 C 0.97923 0.79317 0.79838 0.0
C780 C 0.00504 0.79394 0.78663 0.0
H781 H 0.94434 0.70341 0.95562 0.0
H782 H 0.96907 0.7213 0.91387 0.0
C783 C 0.01247 0.81128 0.76436 0.0
C784 C 0.97138 0.77662 0.82326 0.0
H785 H 0.97655 0.77681 0.89448 0.0
C786 C 0.95199 0.75444 0.82036 0.0
C787 C 0.98101 0.78424 0.85017 0.0
C788 C 0.00168 0.80814 0.85437 0.0
C789 C 0.94123 0.74032 0.84379 0.0
C790 C 0.94966 0.74905 0.87091 0.0
C791 C 0.97008 0.77024 0.87369 0.0
C792 C 0.93542 0.73853 0.89657 0.0
C793 C 0.9205 0.71654 0.83935 0.0
C794 C 0.90861 0.74299 0.90102 0.0
C795 C 0.89457 0.73295 0.92464 0.0
C796 C 0.90703 0.7183 0.94459 0.0
C797 C 0.93415 0.71451 0.9406 0.0
C798 C 0.94828 0.72466 0.91677 0.0
H799 H 0.92248 0.70677 0.81794 0.0
H800 H 0.92178 0.70036 0.85501 0.0
H801 H 0.90059 0.72453 0.84163 0.0
H802 H 0.89845 0.75426 0.8861 0.0
H803 H 0.87379 0.73655 0.92709 0.0
H804 H 0.50837 0.68123 0.20726 0.0
H805 H 0.49347 0.7174 0.17875 0.0
H806 H 0.57092 0.76108 0.18094 0.0
H807 H 0.58604 0.72462 0.20985 0.0
H808 H 0.49769 0.78075 0.18948 0.0
H809 H 0.55226 0.74 0.09468 0.0
H810 H 0.54427 0.71794 0.12393 0.0
H811 H 0.5685 0.74684 0.12751 0.0
C812 C 0.52213 0.69872 0.20195 0.0
C813 C 0.54835 0.70014 0.21047 0.0
C814 C 0.5136 0.71938 0.18582 0.0
C815 C 0.53117 0.74172 0.17772 0.0
C816 C 0.55716 0.7439 0.18704 0.0
H817 H 0.45152 0.82848 0.04847 0.0
H818 H 0.48862 0.82314 0.07906 0.0
C819 C 0.56569 0.72322 0.20354 0.0
C820 C 0.52205 0.76112 0.15779 0.0
H821 H 0.51533 0.7651 0.08727 0.0
C822 C 0.50226 0.77832 0.16716 0.0
C823 C 0.52815 0.75786 0.12874 0.0
C824 C 0.54946 0.73971 0.11788 0.0
C825 C 0.48656 0.79007 0.14803 0.0
C826 C 0.49069 0.78414 0.11904 0.0
C827 C 0.51229 0.76949 0.10959 0.0
C828 C 0.46956 0.7873 0.0994 0.0
C829 C 0.4641 0.80663 0.15892 0.0
C830 C 0.44716 0.76841 0.10034 0.0
C831 C 0.42628 0.77116 0.0829 0.0
C832 C 0.42733 0.79297 0.0642 0.0
C833 C 0.45024 0.8114 0.06259 0.0
C834 C 0.47131 0.80853 0.08011 0.0
H835 H 0.46749 0.81527 0.18054 0.0
H836 H 0.4614 0.82395 0.14495 0.0
H837 H 0.44551 0.79286 0.1594 0.0
H838 H 0.44574 0.75165 0.11488 0.0
H839 H 0.40918 0.75629 0.08423 0.0
H840 H 0.05979 0.25687 0.37455 0.0
H841 H 0.07123 0.28593 0.3343 0.0
H842 H 0.12904 0.335 0.38298 0.0
H843 H 0.11803 0.30597 0.42316 0.0
H844 H 0.07264 0.34449 0.3265 0.0
H845 H 0.17226 0.30465 0.3151 0.0
H846 H 0.14592 0.2883 0.33662 0.0
H847 H 0.16463 0.31909 0.34948 0.0
C848 C 0.07468 0.2741 0.37684 0.0
C849 C 0.08822 0.2789 0.40198 0.0
C850 C 0.0812 0.29064 0.3538 0.0
C851 C 0.10137 0.31219 0.35551 0.0
C852 C 0.1138 0.31807 0.38107 0.0
H853 H 0.18371 0.43107 0.24887 0.0
H854 H 0.16582 0.40156 0.28644 0.0
C855 C 0.10736 0.30155 0.40406 0.0
C856 C 0.11035 0.32777 0.33031 0.0
H857 H 0.16462 0.34285 0.2875 0.0
C858 C 0.09266 0.34401 0.31779 0.0
C859 C 0.13643 0.32686 0.31889 0.0
C860 C 0.15587 0.30859 0.33051 0.0
C861 C 0.10074 0.36028 0.29476 0.0
C862 C 0.12704 0.3599 0.28384 0.0
C863 C 0.1445 0.34316 0.296 0.0
C864 C 0.13735 0.37773 0.2607 0.0
C865 C 0.0814 0.37844 0.28288 0.0
C866 C 0.12747 0.37388 0.23362 0.0
C867 C 0.13772 0.39073 0.21196 0.0
C868 C 0.15806 0.41167 0.21706 0.0
C869 C 0.16802 0.41521 0.24418 0.0
C870 C 0.15783 0.39836 0.26572 0.0
H871 H 0.0637 0.3805 0.29704 0.0
H872 H 0.09096 0.39952 0.27909 0.0
H873 H 0.0747 0.36916 0.26246 0.0
H874 H 0.11197 0.35773 0.22921 0.0
H875 H 0.12965 0.38744 0.1913 0.0
H876 H 0.95425 0.87793 0.62971 0.0
H877 H 0.94102 0.86673 0.5818 0.0
H878 H 0.01238 0.82507 0.56473 0.0
H879 H 0.0261 0.83667 0.61269 0.0
H880 H 0.00547 0.86248 0.52574 0.0
H881 H 0.91267 0.7966 0.54097 0.0
H882 H 0.9119 0.82781 0.56257 0.0
H883 H 0.93606 0.80343 0.56846 0.0
C884 C 0.96691 0.86589 0.616 0.0
C885 C 0.99126 0.85828 0.62497 0.0
C886 C 0.95923 0.85933 0.58863 0.0
C887 C 0.97556 0.84474 0.56981 0.0
C888 C -0.00056 0.8362 0.57899 0.0
H889 H 0.89692 0.8247 0.41114 0.0
H890 H 0.92648 0.81098 0.44662 0.0
C891 C 0.0072 0.84282 0.6064 0.0
C892 C 0.96873 0.84115 0.53995 0.0
H893 H 0.91633 0.8235 0.49875 0.0
C894 C 0.98623 0.85334 0.51963 0.0
C895 C 0.94396 0.82861 0.53182 0.0
C896 C 0.92524 0.8131 0.55211 0.0
C897 C 0.97863 0.85547 0.49188 0.0
C898 C 0.9527 0.84573 0.48458 0.0
C899 C 0.93612 0.83137 0.50433 0.0
C900 C 0.94095 0.85315 0.4582 0.0
C901 C -0.00178 0.86883 0.47098 0.0
C902 C 0.94021 0.8813 0.45198 0.0
C903 C 0.92374 0.88904 0.43137 0.0
C904 C 0.90754 0.86879 0.41705 0.0
C905 C 0.90959 0.84057 0.4218 0.0
C906 C 0.92633 0.83278 0.44212 0.0
H907 H 0.01875 0.86455 0.47568 0.0
H908 H 0.99414 0.86133 0.44914 0.0
H909 H 0.99712 0.89171 0.47248 0.0
H910 H 0.95066 0.89747 0.46458 0.0
H911 H 0.92196 0.91093 0.42835 0.0
H912 H 0.31509 0.61344 0.75388 0.0
H913 H 0.32576 0.64705 0.79154 0.0
H914 H 0.38361 0.69074 0.73743 0.0
H915 H 0.37256 0.65693 0.69875 0.0
H916 H 0.3735 0.6617 0.81707 0.0
H917 H 0.33465 0.75104 0.76568 0.0
H918 H 0.32781 0.7157 0.75263 0.0
H919 H 0.36019 0.73286 0.74742 0.0
C920 C 0.33017 0.63008 0.74977 0.0
C921 C 0.34285 0.6326 0.72317 0.0
C922 C 0.33633 0.64925 0.77147 0.0
C923 C 0.35535 0.67144 0.76726 0.0
C924 C 0.36864 0.67387 0.74097 0.0
H925 H 0.37184 0.76991 0.92688 0.0
H926 H 0.38614 0.74588 0.88338 0.0
C927 C 0.36238 0.65454 0.71898 0.0
C928 C 0.3598 0.69218 0.79062 0.0
H929 H 0.34225 0.75618 0.81371 0.0
C930 C 0.36731 0.68265 0.81631 0.0
C931 C 0.35158 0.71938 0.78941 0.0
C932 C 0.34297 0.7305 0.76241 0.0
C933 C 0.36467 0.69867 0.84131 0.0
C934 C 0.35498 0.72528 0.84035 0.0
C935 C 0.34953 0.7357 0.81432 0.0
C936 C 0.34712 0.74104 0.86621 0.0
C937 C 0.37027 0.68605 0.86868 0.0
C938 C 0.32059 0.74687 0.87067 0.0
C939 C 0.31243 0.76085 0.89526 0.0
C940 C 0.33064 0.76912 0.91599 0.0
C941 C 0.35727 0.76341 0.91145 0.0
C942 C 0.36548 0.74969 0.88663 0.0
H943 H 0.37268 0.6634 0.86611 0.0
H944 H 0.38885 0.69631 0.87698 0.0
H945 H 0.35407 0.68923 0.88452 0.0
H946 H 0.30608 0.74031 0.85519 0.0
H947 H 0.29182 0.76504 0.89808 0.0
H948 H 0.47192 0.06336 0.23147 0.0
H949 H 0.50381 0.05598 0.19267 0.0
H950 H 0.48264 0.13049 0.15513 0.0
H951 H 0.45102 0.13826 0.19392 0.0
H952 H 0.48579 0.04727 0.13907 0.0
H953 H 0.56274 0.13533 0.14188 0.0
H954 H 0.54155 0.12635 0.17199 0.0
H955 H 0.52964 0.14606 0.1446 0.0
C956 C 0.4746 0.07863 0.21539 0.0
C957 C 0.45875 0.10125 0.21563 0.0
C958 C 0.49282 0.07436 0.19324 0.0
C959 C 0.49567 0.09275 0.17112 0.0
C960 C 0.48113 0.11632 0.17224 0.0
H961 H 0.55129 0.08978 -0.00129 0.0
H962 H 0.53381 0.10151 0.04589 0.0
C963 C 0.46291 0.12062 0.19437 0.0
C964 C 0.51062 0.08518 0.14505 0.0
H965 H 0.55892 0.10898 0.09826 0.0
C966 C 0.50207 0.06053 0.13035 0.0
C967 C 0.53159 0.10272 0.13361 0.0
C968 C 0.54211 0.12897 0.14896 0.0
C969 C 0.51335 0.05334 0.10406 0.0
C970 C 0.53411 0.07103 0.09242 0.0
C971 C 0.54299 0.09548 0.10729 0.0
C972 C 0.54622 0.06475 0.06443 0.0
C973 C 0.50221 0.02742 0.08848 0.0
C974 C 0.55934 0.04044 0.05942 0.0
C975 C 0.56901 0.0335 0.03247 0.0
C976 C 0.56598 0.0509 0.01006 0.0
C977 C 0.55354 0.0757 0.01539 0.0
C978 C 0.54378 0.08258 0.04236 0.0
H979 H 0.48242 0.01992 0.09718 0.0
H980 H 0.5005 0.03118 0.06585 0.0
H981 H 0.51569 0.01063 0.09032 0.0
H982 H 0.56172 0.02661 0.07628 0.0
H983 H 0.57827 0.01413 0.02909 0.0
H984 H 0.55595 0.24231 0.67034 0.0
H985 H 0.54912 0.2207 0.71586 0.0
H986 H 0.58761 0.14919 0.68293 0.0
H987 H 0.59466 0.17054 0.63742 0.0
H988 H 0.53707 0.13982 0.71963 0.0
H989 H 0.61732 0.21241 0.76404 0.0
H990 H 0.5913 0.2261 0.74542 0.0
H991 H 0.61495 0.206 0.72664 0.0
C992 C 0.56261 0.22179 0.67264 0.0
C993 C 0.5761 0.20821 0.65036 0.0
C994 C 0.5587 0.20955 0.69865 0.0
C995 C 0.56805 0.18354 0.70265 0.0
C996 C 0.58027 0.16932 0.68011 0.0
H997 H 0.62766 0.07421 0.79942 0.0
H998 H 0.61513 0.11155 0.77108 0.0
C999 C 0.58434 0.18157 0.65417 0.0
C1000 C 0.56723 0.17178 0.73071 0.0
H1001 H 0.60323 0.17322 0.78972 0.0
C1002 C 0.55089 0.14753 0.73544 0.0
C1003 C 0.58538 0.18204 0.75112 0.0
C1004 C 0.60336 0.20803 0.74675 0.0
C1005 C 0.55354 0.13213 0.75931 0.0
C1006 C 0.57309 0.14126 0.77862 0.0
C1007 C 0.5881 0.16655 0.77491 0.0
C1008 C 0.58216 0.12192 0.79857 0.0
C1009 C 0.53706 0.10498 0.76261 0.0
C1010 C 0.56814 0.11609 0.82384 0.0
C1011 C 0.57547 0.09481 0.84035 0.0
C1012 C 0.59659 0.07905 0.83136 0.0
C1013 C 0.61122 0.08594 0.80672 0.0
C1014 C 0.60414 0.10728 0.79057 0.0
H1015 H 0.52187 0.10145 0.74642 0.0
H1016 H 0.55009 0.08751 0.76101 0.0
H1017 H 0.52701 0.10469 0.78369 0.0
H1018 H 0.55106 0.12725 0.83019 0.0
H1019 H 0.56382 0.08971 0.8592 0.0
H1020 H 0.07832 0.37118 0.06778 0.0
H1021 H 0.05019 0.35438 0.02899 0.0
H1022 H 0.09237 0.41332 0.97474 0.0
H1023 H 0.12041 0.43018 0.01319 0.0
H1024 H 0.0172 0.38362 -0.00127 0.0
H1025 H 0.0945 0.34118 0.92794 0.0
H1026 H 0.09972 0.34989 0.96457 0.0
H1027 H 0.10273 0.37662 0.93919 0.0
C1028 C 0.08157 0.38055 0.04758 0.0
C1029 C 0.10178 0.40182 0.04349 0.0
C1030 C 0.06559 0.37084 0.02542 0.0
C1031 C 0.0696 0.38217 -0.00118 0.0
C1032 C 0.08946 0.40368 0.99484 0.0
H1033 H 0.99176 0.38326 0.84338 0.0
H1034 H 0.02172 0.3883 0.8825 0.0
C1035 C 0.10544 0.41333 0.01688 0.0
C1036 C 0.05229 0.37258 0.97546 0.0
H1037 H 0.05351 0.34855 0.90709 0.0
C1038 C 0.02505 0.37555 0.97882 0.0
C1039 C 0.06261 0.36206 0.94952 0.0
C1040 C 0.09146 0.35697 0.94513 0.0
C1041 C 0.00802 0.36942 0.95654 0.0
C1042 C 0.0185 0.35973 0.93036 0.0
C1043 C 0.0456 0.35606 0.92719 0.0
C1044 C 0.00177 0.3547 0.90565 0.0
C1045 C 0.97913 0.37442 0.96081 0.0
C1046 C 0.98116 0.33356 0.90537 0.0
C1047 C 0.96402 0.33056 0.88301 0.0
C1048 C 0.96724 0.34868 0.86057 0.0
C1049 C 0.98867 0.36903 0.86037 0.0
C1050 C 0.00582 0.37194 0.88269 0.0
H1051 H 0.9752 0.38677 0.98049 0.0
H1052 H 0.97218 0.38549 0.94288 0.0
H1053 H 0.9673 0.35414 0.96199 0.0
H1054 H 0.97799 0.31978 0.92273 0.0
H1055 H 0.94778 0.3146 0.88378 0.0
H1056 H 0.78199 0.88223 0.24772 0.0
H1057 H 0.79627 0.86168 0.20266 0.0
H1058 H 0.86336 0.83135 0.24105 0.0
H1059 H 0.84946 0.85233 0.28639 0.0
H1060 H 0.87528 0.85511 0.1879 0.0
H1061 H 0.78841 0.77771 0.18494 0.0
H1062 H 0.7799 0.81301 0.18992 0.0
H1063 H 0.79755 0.79754 0.21644 0.0
C1064 C 0.79981 0.87122 0.24666 0.0
C1065 C 0.81445 0.86865 0.27072 0.0
C1066 C 0.8079 0.85946 0.22088 0.0
C1067 C 0.8306 0.84465 0.21868 0.0
C1068 C 0.8457 0.84263 0.24242 0.0
H1069 H 0.89869 0.74144 0.08757 0.0
H1070 H 0.89299 0.7729 0.1284 0.0
C1071 C 0.83768 0.85453 0.26828 0.0
C1072 C 0.83803 0.83064 0.19169 0.0
H1073 H 0.81539 0.78124 0.14344 0.0
C1074 C 0.86228 0.83889 0.17816 0.0
C1075 C 0.82103 0.80943 0.17918 0.0
C1076 C 0.79538 0.79867 0.19345 0.0
C1077 C 0.86971 0.82682 0.15201 0.0
C1078 C 0.8525 0.8059 0.13938 0.0
C1079 C 0.82837 0.79758 0.15304 0.0
C1080 C 0.8593 0.79127 0.11255 0.0
C1081 C 0.89564 0.83677 0.13791 0.0
C1082 C 0.8426 0.79165 0.08984 0.0
C1083 C 0.84571 0.77363 0.06651 0.0
C1084 C 0.86544 0.75471 0.06565 0.0
C1085 C 0.88327 0.75574 0.08759 0.0
C1086 C 0.88015 0.77381 0.11091 0.0
H1087 H 0.90339 0.85732 0.14678 0.0
H1088 H 0.91046 0.82158 0.14106 0.0
H1089 H 0.89348 0.83834 0.11497 0.0
H1090 H 0.82633 0.80495 0.0908 0.0
H1091 H 0.83168 0.77342 0.04995 0.0
H1092 H 0.4462 0.6365 0.57172 0.0
H1093 H 0.47874 0.63761 0.53246 0.0
H1094 H 0.42118 0.59399 0.47913 0.0
H1095 H 0.38933 0.59108 0.51835 0.0
H1096 H 0.4666 0.57049 0.47563 0.0
H1097 H 0.48599 0.68428 0.46375 0.0
H1098 H 0.49138 0.67286 0.49826 0.0
H1099 H 0.45859 0.66947 0.48491 0.0
C1100 C 0.44048 0.62711 0.55164 0.0
C1101 C 0.41502 0.61381 0.54828 0.0
C1102 C 0.459 0.62813 0.52911 0.0
C1103 C 0.45226 0.61624 0.50275 0.0
C1104 C 0.42676 0.60347 0.49924 0.0
H1105 H 0.52788 0.62779 0.33861 0.0
H1106 H 0.50216 0.63503 0.38244 0.0
C1107 C 0.40843 0.60212 0.52171 0.0
C1108 C 0.47203 0.61518 0.47913 0.0
H1109 H 0.5127 0.6551 0.43556 0.0
C1110 C 0.4767 0.58901 0.46689 0.0
C1111 C 0.48501 0.63937 0.46766 0.0
C1112 C 0.47986 0.66812 0.47911 0.0
C1113 C 0.49359 0.5863 0.4432 0.0
C1114 C 0.507 0.61043 0.43202 0.0
C1115 C 0.5026 0.63664 0.4444 0.0
C1116 C 0.52459 0.60876 0.4066 0.0
C1117 C 0.49604 0.55767 0.4298 0.0
C1118 C 0.54626 0.5924 0.40595 0.0
C1119 C 0.56063 0.58783 0.38088 0.0
C1120 C 0.55396 0.6001 0.35619 0.0
C1121 C 0.53339 0.61799 0.35731 0.0
C1122 C 0.51873 0.62219 0.38232 0.0
H1123 H 0.47925 0.54283 0.43624 0.0
H1124 H 0.49683 0.55832 0.40655 0.0
H1125 H 0.51452 0.54946 0.43648 0.0
H1126 H 0.55157 0.58247 0.42464 0.0
H1127 H 0.57669 0.5743 0.38073 0.0
H1128 H 0.10914 0.14001 0.40239 0.0
H1129 H 0.14185 0.10924 0.38251 0.0
H1130 H 0.20468 0.17062 0.4051 0.0
H1131 H 0.17236 0.20099 0.42558 0.0
H1132 H 0.17762 0.11515 0.34082 0.0
H1133 H 0.23031 0.10265 0.43756 0.0
H1134 H 0.19851 0.11706 0.43798 0.0
H1135 H 0.22856 0.13894 0.43214 0.0
C1136 C 0.12995 0.14695 0.40298 0.0
C1137 C 0.13822 0.17285 0.41566 0.0
C1138 C 0.14858 0.12928 0.39181 0.0
C1139 C 0.17572 0.13725 0.39318 0.0
C1140 C 0.18389 0.16357 0.40481 0.0
H1141 H 0.30511 0.12941 0.29147 0.0
H1142 H 0.26193 0.13048 0.31455 0.0
C1143 C 0.16537 0.18108 0.41616 0.0
C1144 C 0.19577 0.11908 0.38106 0.0
H1145 H 0.25692 0.09881 0.39363 0.0
C1146 C 0.19463 0.11088 0.35256 0.0
C1147 C 0.21753 0.1125 0.39653 0.0
C1148 C 0.21861 0.11797 0.42783 0.0
C1149 C 0.21606 0.09918 0.33846 0.0
C1150 C 0.23935 0.09637 0.35312 0.0
C1151 C 0.23927 0.10154 0.38225 0.0
C1152 C 0.26504 0.09352 0.33801 0.0
C1153 C 0.21409 0.09135 0.30764 0.0
C1154 C 0.28166 0.07281 0.3442 0.0
C1155 C 0.30686 0.07228 0.33111 0.0
C1156 C 0.31577 0.09269 0.31199 0.0
C1157 C 0.29896 0.1133 0.30602 0.0
C1158 C 0.27402 0.11376 0.31895 0.0
H1159 H 0.19347 0.08391 0.30262 0.0
H1160 H 0.21964 0.10998 0.29521 0.0
H1161 H 0.2274 0.0749 0.30107 0.0
H1162 H 0.2752 0.05727 0.35925 0.0
H1163 H 0.3194 0.05618 0.33614 0.0
H1164 H 0.04756 0.13158 0.50434 0.0
H1165 H 0.04729 0.09218 0.53464 0.0
H1166 H 0.11877 0.12792 0.57215 0.0
H1167 H 0.11902 0.16793 0.54204 0.0
H1168 H 0.08569 0.05448 0.53807 0.0
H1169 H 0.06874 0.1115 0.64018 0.0
H1170 H 0.06392 0.12653 0.60693 0.0
H1171 H 0.09675 0.12433 0.61895 0.0
C1172 C 0.0632 0.13124 0.51911 0.0
C1173 C 0.08326 0.153 0.52085 0.0
C1174 C 0.06304 0.10862 0.53636 0.0
C1175 C 0.08289 0.10722 0.55576 0.0
C1176 C 0.10304 0.12882 0.55759 0.0
H1177 H 0.08922 0.94932 0.64189 0.0
H1178 H 0.10352 0.99051 0.61512 0.0
C1179 C 0.10318 0.15161 0.54034 0.0
C1180 C 0.08219 0.08288 0.57376 0.0
H1181 H 0.07138 0.06316 0.64137 0.0
C1182 C 0.08287 0.05633 0.56071 0.0
C1183 C 0.07838 0.08546 0.60324 0.0
C1184 C 0.07669 0.11343 0.61826 0.0
C1185 C 0.07888 0.03219 0.57621 0.0
C1186 C 0.07457 0.03474 0.60564 0.0
C1187 C 0.07484 0.06132 0.61881 0.0
C1188 C 0.06693 0.01025 0.6227 0.0
C1189 C 0.07794 0.00419 0.56082 0.0
C1190 C 0.04192 0.00803 0.63633 0.0
C1191 C 0.03379 0.98475 0.65169 0.0
C1192 C 0.05053 0.96312 0.6538 0.0
C1193 C 0.07579 0.96553 0.64049 0.0
C1194 C 0.08396 0.98898 0.62512 0.0
H1195 H 0.07666 0.00599 0.53779 0.0
H1196 H 0.09617 0.99393 0.56477 0.0
H1197 H 0.06072 0.99056 0.56847 0.0
H1198 H 0.02847 0.0242 0.63471 0.0
H1199 H 0.01424 0.98365 0.66173 0.0
H1200 H 0.01615 0.92133 0.79873 0.0
H1201 H 0.03612 0.92247 0.84478 0.0
H1202 H 0.11354 0.93701 0.80512 0.0
H1203 H 0.09382 0.93521 0.7592 0.0
H1204 H 0.07245 0.87951 0.84776 0.0
H1205 H 0.11862 0.98253 0.88154 0.0
H1206 H 0.09039 0.97828 0.85929 0.0
H1207 H 0.12317 0.97463 0.84462 0.0
C1208 C 0.03731 0.92601 0.80002 0.0
C1209 C 0.05356 0.92794 0.77555 0.0
C1210 C 0.04866 0.92667 0.8263 0.0
C1211 C 0.07624 0.93002 0.8283 0.0
C1212 C 0.09218 0.9349 0.80405 0.0
H1213 H 0.21292 0.88977 0.8968 0.0
H1214 H 0.17585 0.90984 0.87685 0.0
C1215 C 0.08093 0.93367 0.77782 0.0
C1216 C 0.08893 0.92169 0.85356 0.0
H1217 H 0.13939 0.94245 0.89648 0.0
C1218 C 0.08656 0.89331 0.85917 0.0
C1219 C 0.1073 0.93982 0.86808 0.0
C1220 C 0.1099 0.97059 0.86329 0.0
C1221 C 0.10408 0.882 0.8767 0.0
C1222 C 0.12379 0.8999 0.88985 0.0
C1223 C 0.12443 0.92872 0.88624 0.0
C1224 C 0.14605 0.88887 0.9039 0.0
C1225 C 0.10276 0.85077 0.87876 0.0
C1226 C 0.14175 0.87058 0.92598 0.0
C1227 C 0.16291 0.85802 0.93667 0.0
C1228 C 0.18892 0.8642 0.92606 0.0
C1229 C 0.19319 0.88367 0.9049 0.0
C1230 C 0.17199 0.89565 0.8938 0.0
H1231 H 0.09013 0.83988 0.86257 0.0
H1232 H 0.12279 0.84306 0.87636 0.0
H1233 H 0.09417 0.84497 0.89963 0.0
H1234 H 0.12198 0.86557 0.9346 0.0
H1235 H 0.15871 0.8431 0.95287 0.0
H1236 H 0.33527 0.07913 0.1826 0.0
H1237 H 0.31097 0.04705 0.14951 0.0
H1238 H 0.34211 0.97744 0.18724 0.0
H1239 H 0.36603 0.00884 0.2201 0.0
H1240 H 0.33122 0.00795 0.1108 0.0
H1241 H 0.2628 0.95511 0.18789 0.0
H1242 H 0.28069 0.98822 0.19571 0.0
H1243 H 0.29634 0.9563 0.19865 0.0
C1244 C 0.33689 0.05698 0.18377 0.0
C1245 C 0.35245 0.04653 0.20407 0.0
C1246 C 0.32293 0.03873 0.16499 0.0
C1247 C 0.32419 0.00988 0.16651 0.0
C1248 C 0.3402 -0.00042 0.1863 0.0
H1249 H 0.3183 0.85805 0.08349 0.0
H1250 H 0.31808 0.89869 0.11569 0.0
C1251 C 0.35408 0.01764 0.20492 0.0
C1252 C 0.31026 0.99007 0.1466 0.0
H1253 H 0.27286 0.92811 0.14506 0.0
C1254 C 0.31779 0.99093 0.11805 0.0
C1255 C 0.29261 0.968 0.15616 0.0
C1256 C 0.28243 0.967 0.18626 0.0
C1257 C 0.31003 0.96893 0.09925 0.0
C1258 C 0.29426 0.94574 0.10939 0.0
C1259 C 0.28509 0.94588 0.13746 0.0
C1260 C 0.29055 0.91971 0.09221 0.0
C1261 C 0.32035 0.96957 0.06917 0.0
C1262 C 0.27431 0.91773 0.06901 0.0
C1263 C 0.27424 0.8944 0.05062 0.0
C1264 C 0.29062 0.87292 0.05512 0.0
C1265 C 0.30558 0.8743 0.07937 0.0
C1266 C 0.30546 0.89747 0.0978 0.0
H1267 H 0.33375 0.98841 0.06509 0.0
H1268 H 0.33122 0.95087 0.06382 0.0
H1269 H 0.3035 0.96917 0.05499 0.0
H1270 H 0.26256 0.9347 0.06454 0.0
H1271 H 0.2625 0.89393 0.0321 0.0
H1272 H 0.86059 0.38875 0.72013 0.0
H1273 H 0.82206 0.38644 0.69002 0.0
H1274 H 0.78396 0.32096 0.73949 0.0
H1275 H 0.82154 0.32328 0.76945 0.0
H1276 H 0.80121 0.341 0.65782 0.0
H1277 H 0.72602 0.37387 0.73614 0.0
H1278 H 0.76107 0.38011 0.74148 0.0
H1279 H 0.74398 0.34707 0.7495 0.0
C1280 C 0.84383 0.37412 0.72468 0.0
C1281 C 0.84413 0.35627 0.74722 0.0
C1282 C 0.8219 0.37282 0.70751 0.0
C1283 C 0.79994 0.35393 0.71293 0.0
C1284 C 0.80034 0.33621 0.73537 0.0
H1285 H 0.69015 0.25511 0.61736 0.0
H1286 H 0.72841 0.27885 0.64002 0.0
C1287 C 0.82205 0.33743 0.75237 0.0
C1288 C 0.77705 0.35089 0.69444 0.0
H1289 H 0.70967 0.34299 0.69796 0.0
C1290 C 0.78116 0.34207 0.66635 0.0
C1291 C 0.75093 0.35285 0.70538 0.0
C1292 C 0.74526 0.3643 0.73471 0.0
C1293 C 0.75979 0.33299 0.64959 0.0
C1294 C 0.73376 0.33207 0.66155 0.0
C1295 C 0.72962 0.34309 0.68891 0.0
C1296 C 0.71079 0.3181 0.64692 0.0
C1297 C 0.7654 0.32398 0.61944 0.0
C1298 C 0.68772 0.33187 0.64427 0.0
C1299 C 0.66557 0.31812 0.6319 0.0
C1300 C 0.66611 0.29034 0.62188 0.0
C1301 C 0.68917 0.27655 0.6247 0.0
C1302 C 0.71118 0.29022 0.63734 0.0
H1303 H 0.78375 0.33519 0.61092 0.0
H1304 H 0.76842 0.30144 0.61829 0.0
H1305 H 0.74879 0.32768 0.60594 0.0
H1306 H 0.68685 0.35328 0.65177 0.0
H1307 H 0.64813 0.32936 0.62993 0.0
H1308 H 0.84237 0.3785 0.8796 0.0
H1309 H 0.82036 0.4149 0.90744 0.0
H1310 H 0.87298 0.47783 0.86857 0.0
H1311 H 0.89474 0.44246 0.84127 0.0
H1312 H 0.84397 0.45723 0.94524 0.0
H1313 H 0.79915 0.50443 0.85733 0.0
H1314 H 0.809 0.46919 0.85524 0.0
H1315 H 0.83283 0.49804 0.84838 0.0
C1316 C 0.84916 0.40013 0.87713 0.0
C1317 C 0.87015 0.40757 0.85807 0.0
C1318 C 0.83652 0.42082 0.89286 0.0
C1319 C 0.84458 0.44902 0.88936 0.0
C1320 C 0.8659 0.45624 0.87093 0.0
H1321 H 0.88345 0.594 0.97278 0.0
H1322 H 0.87378 0.54666 0.95453 0.0
C1323 C 0.87848 0.43586 0.85546 0.0
C1324 C 0.83246 0.47166 0.90575 0.0
H1325 H 0.81479 0.53697 0.8953 0.0
C1326 C 0.83666 0.47435 0.93461 0.0
C1327 C 0.82223 0.4937 0.89206 0.0
C1328 C 0.81526 0.49104 0.86158 0.0
C1329 C 0.83406 0.49983 0.94931 0.0
C1330 C 0.82781 0.52313 0.93449 0.0
C1331 C 0.82029 0.51934 0.90654 0.0
C1332 C 0.83288 0.55192 0.94609 0.0
C1333 C 0.83942 0.50187 0.98022 0.0
C1334 C 0.81354 0.57117 0.94596 0.0
C1335 C 0.81924 0.59863 0.95586 0.0
C1336 C 0.84438 0.60719 0.96597 0.0
C1337 C 0.86383 0.58802 0.96535 0.0
C1338 C 0.8582 0.56079 0.95531 0.0
H1339 H 0.83315 0.48194 0.99028 0.0
H1340 H 0.861 0.50604 0.983 0.0
H1341 H 0.82901 0.5188 0.99119 0.0
H1342 H 0.79402 0.5649 0.93845 0.0
H1343 H 0.8038 0.61292 0.95621 0.0
H1344 H 0.83331 0.62062 0.08824 0.0
H1345 H 0.80019 0.59258 0.11614 0.0
H1346 H 0.73845 0.63822 0.08514 0.0
H1347 H 0.77101 0.66601 0.05732 0.0
H1348 H 0.76294 0.60987 0.15769 0.0
H1349 H 0.71266 0.55686 0.06726 0.0
H1350 H 0.74527 0.57465 0.0641 0.0
H1351 H 0.7163 0.59392 0.06439 0.0
C1352 C 0.81269 0.62478 0.08757 0.0
C1353 C 0.80478 0.64542 0.07044 0.0
C1354 C 0.79382 0.60866 0.10336 0.0
C1355 C 0.76684 0.61285 0.10203 0.0
C1356 C 0.75909 0.63411 0.08579 0.0
H1357 H 0.61883 0.59063 0.17993 0.0
H1358 H 0.65685 0.59519 0.1471 0.0
C1359 C 0.77781 0.65016 0.0701 0.0
C1360 C 0.7465 0.5959 0.11822 0.0
H1361 H 0.68717 0.55816 0.1111 0.0
C1362 C 0.74668 0.59794 0.1476 0.0
C1363 C 0.72542 0.58028 0.1049 0.0
C1364 C 0.72499 0.57603 0.07341 0.0
C1365 C 0.72527 0.58658 0.16402 0.0
C1366 C 0.70339 0.57247 0.1506 0.0
C1367 C 0.70397 0.569 0.12128 0.0
C1368 C 0.67849 0.56471 0.1665 0.0
C1369 C 0.7254 0.59141 0.19549 0.0
C1370 C 0.67746 0.54481 0.18719 0.0
C1371 C 0.65565 0.54206 0.206 0.0
C1372 C 0.6347 0.5593 0.20438 0.0
C1373 C 0.63474 0.57722 0.18189 0.0
C1374 C 0.65647 0.57986 0.1631 0.0
H1375 H 0.74225 0.60595 0.20218 0.0
H1376 H 0.70669 0.59996 0.20335 0.0
H1377 H 0.7269 0.57132 0.20556 0.0
H1378 H 0.69415 0.53262 0.18982 0.0
H1379 H 0.65619 0.52799 0.22303 0.0
H1380 H 0.59907 0.33079 0.51814 0.0
H1381 H 0.61217 0.35854 0.47789 0.0
H1382 H 0.6705 0.30142 0.45206 0.0
H1383 H 0.657 0.27285 0.49235 0.0
H1384 H 0.66141 0.38449 0.46488 0.0
H1385 H 0.62841 0.30725 0.38088 0.0
H1386 H 0.6183 0.30313 0.41724 0.0
H1387 H 0.65139 0.2969 0.40548 0.0
C1388 C 0.61468 0.324 0.50396 0.0
C1389 C 0.62696 0.29957 0.5084 0.0
C1390 C 0.62217 0.33994 0.48097 0.0
C1391 C 0.64217 0.33193 0.46194 0.0
C1392 C 0.65475 0.3077 0.46632 0.0
H1393 H 0.67556 0.46713 0.3447 0.0
H1394 H 0.68684 0.42844 0.37258 0.0
C1395 C 0.6471 0.29151 0.48937 0.0
C1396 C 0.64934 0.34949 0.43776 0.0
H1397 H 0.64081 0.35271 0.36745 0.0
C1398 C 0.65746 0.37752 0.44343 0.0
C1399 C 0.64412 0.34014 0.40992 0.0
C1400 C 0.63493 0.31027 0.40282 0.0
C1401 C 0.65836 0.39704 0.42245 0.0
C1402 C 0.6519 0.38797 0.39477 0.0
C1403 C 0.6458 0.35952 0.38868 0.0
C1404 C 0.64725 0.40807 0.37325 0.0
C1405 C 0.66406 0.42741 0.43075 0.0
C1406 C 0.62179 0.40834 0.3628 0.0
C1407 C 0.61553 0.42997 0.3464 0.0
C1408 C 0.63457 0.4518 0.34048 0.0
C1409 C 0.6605 0.45064 0.34941 0.0
C1410 C 0.6669 0.42867 0.36536 0.0
H1411 H 0.66358 0.43114 0.45389 0.0
H1412 H 0.68405 0.43468 0.42254 0.0
H1413 H 0.64946 0.44023 0.42181 0.0
H1414 H 0.60632 0.39264 0.3686 0.0
H1415 H 0.59541 0.43048 0.33978 0.0
H1416 H 0.22002 0.37834 0.11691 0.0
H1417 H 0.24829 0.34062 0.12365 0.0
H1418 H 0.30615 0.3989 0.16216 0.0
H1419 H 0.27766 0.43663 0.15625 0.0
H1420 H 0.30055 0.32747 0.11159 0.0
H1421 H 0.28109 0.34802 0.22578 0.0
H1422 H 0.26377 0.36412 0.19931 0.0
H1423 H 0.2969 0.37698 0.20757 0.0
C1424 C 0.23907 0.38327 0.12613 0.0
C1425 C 0.24641 0.41033 0.13656 0.0
C1426 C 0.2552 0.36168 0.12998 0.0
C1427 C 0.27895 0.36691 0.14407 0.0
C1428 C 0.28757 0.39437 0.15184 0.0
H1429 H 0.38129 0.23533 0.18138 0.0
H1430 H 0.36499 0.27696 0.16258 0.0
C1431 C 0.27133 0.4159 0.14833 0.0
C1432 C 0.29281 0.34336 0.15367 0.0
H1433 H 0.30787 0.31173 0.213 0.0
C1434 C 0.30237 0.32406 0.13373 0.0
C1435 C 0.29468 0.3388 0.18262 0.0
C1436 C 0.28338 0.35789 0.20511 0.0
C1437 C 0.31361 0.30014 0.14202 0.0
C1438 C 0.31563 0.29575 0.17097 0.0
C1439 C 0.30641 0.31527 0.19082 0.0
C1440 C 0.32564 0.27025 0.18142 0.0
C1441 C 0.3223 0.27928 0.11982 0.0
C1442 C 0.30911 0.25305 0.19872 0.0
C1443 C 0.31846 0.22962 0.20988 0.0
C1444 C 0.34458 0.22281 0.20394 0.0
C1445 C 0.36113 0.24009 0.18654 0.0
C1446 C 0.35176 0.26367 0.17546 0.0
H1447 H 0.31401 0.28262 0.09912 0.0
H1448 H 0.34419 0.28135 0.11736 0.0
H1449 H 0.31618 0.25772 0.12598 0.0
H1450 H 0.28894 0.25789 0.20377 0.0
H1451 H 0.30531 0.21711 0.2236 0.0
H1452 H 0.79937 0.23201 0.82673 0.0
H1453 H 0.7732 0.18969 0.83995 0.0
H1454 H 0.8336 0.17094 0.89579 0.0
H1455 H 0.86001 0.21357 0.88276 0.0
H1456 H 0.81448 0.12497 0.86178 0.0
H1457 H 0.73255 0.17803 0.91503 0.0
H1458 H 0.74004 0.18995 0.88028 0.0
H1459 H 0.76436 0.19587 0.90678 0.0
C1460 C 0.80697 0.21912 0.84212 0.0
C1461 C 0.83163 0.22632 0.85394 0.0
C1462 C 0.79201 0.19491 0.84961 0.0
C1463 C 0.80128 0.17748 0.86921 0.0
C1464 C 0.82608 0.18425 0.88073 0.0
H1465 H 0.68128 0.05133 0.92597 0.0
H1466 H 0.72012 0.08454 0.92853 0.0
C1467 C 0.84113 0.20853 0.87321 0.0
C1468 C 0.78496 0.15207 0.87718 0.0
H1469 H 0.72289 0.13021 0.90074 0.0
C1470 C 0.79459 0.12601 0.87074 0.0
C1471 C 0.75929 0.1535 0.88944 0.0
C1472 C 0.74854 0.18085 0.89857 0.0
C1473 C 0.77853 0.10131 0.87464 0.0
C1474 C 0.75208 0.10287 0.88477 0.0
C1475 C 0.74309 0.12892 0.89278 0.0
C1476 C 0.73249 0.07838 0.88493 0.0
C1477 C 0.78996 0.07388 0.86754 0.0
C1478 C 0.72708 0.06309 0.85986 0.0
C1479 C 0.70508 0.04385 0.85842 0.0
C1480 C 0.68778 0.03998 0.88191 0.0
C1481 C 0.69416 0.05397 0.90747 0.0
C1482 C 0.71635 0.07297 0.90897 0.0
H1483 H 0.81165 0.07543 0.87048 0.0
H1484 H 0.78057 0.05709 0.88064 0.0
H1485 H 0.78665 0.06802 0.84515 0.0
H1486 H 0.7388 0.06732 0.84085 0.0
H1487 H 0.70065 0.0335 0.83838 0.0
H1488 H 0.15177 0.5564 0.18629 0.0
H1489 H 0.11689 0.58857 0.18285 0.0
H1490 H 0.06277 0.52005 0.15597 0.0
H1491 H 0.09703 0.48817 0.15967 0.0
H1492 H 0.09533 0.59716 0.13306 0.0
H1493 H 0.01483 0.56285 0.2075 0.0
H1494 H 0.04822 0.55302 0.21032 0.0
H1495 H 0.02567 0.53356 0.18719 0.0
C1496 C 0.13214 0.54818 0.18064 0.0
C1497 C 0.1271 0.51984 0.17316 0.0
C1498 C 0.11229 0.56654 0.17856 0.0
C1499 C 0.0871 0.55668 0.16948 0.0
C1500 C 0.08177 0.52811 0.16369 0.0
H1501 H 0.9642 0.58961 0.06994 0.0
H1502 H -0.00159 0.57367 0.09865 0.0
C1503 C 0.1015 0.50991 0.16557 0.0
C1504 C 0.06753 0.57603 0.16177 0.0
H1505 H 0.00108 0.58318 0.16459 0.0
C1506 C 0.07487 0.5948 0.1406 0.0
C1507 C 0.04083 0.57298 0.1716 0.0
C1508 C 0.03203 0.5547 0.19563 0.0
C1509 C 0.05583 0.60875 0.12738 0.0
C1510 C 0.02891 0.60378 0.13563 0.0
C1511 C 0.02177 0.58663 0.15813 0.0
C1512 C 0.00777 0.61381 0.11918 0.0
C1513 C 0.06427 0.62722 0.10339 0.0
C1514 C 0.00173 0.64164 0.1214 0.0
C1515 C 0.98198 0.65082 0.10519 0.0
C1516 C 0.96802 0.63228 0.08643 0.0
C1517 C 0.97423 0.60436 0.0844 0.0
C1518 C 0.99385 0.59523 0.1007 0.0
H1519 H 0.08598 0.62831 0.09901 0.0
H1520 H 0.0541 0.61939 0.08411 0.0
H1521 H 0.05836 0.64857 0.10839 0.0
H1522 H 0.01225 0.65621 0.13569 0.0
H1523 H 0.97743 0.67234 0.10765 0.0
H1524 H 0.71756 0.82752 0.35552 0.0
H1525 H 0.70355 0.77803 0.3564 0.0
H1526 H 0.7803 0.76093 0.38409 0.0
H1527 H 0.79455 0.81053 0.38337 0.0
H1528 H 0.76497 0.73201 0.33433 0.0
H1529 H 0.68586 0.72036 0.41689 0.0
H1530 H 0.68176 0.74911 0.39523 0.0
H1531 H 0.71033 0.7497 0.41652 0.0
C1532 C 0.73126 0.81335 0.36246 0.0
C1533 C 0.7572 0.82288 0.36915 0.0
C1534 C 0.72317 0.78509 0.36317 0.0
C1535 C 0.74084 0.76592 0.37058 0.0
C1536 C 0.76634 0.77549 0.37857 0.0
H1537 H 0.66492 0.59806 0.34048 0.0
H1538 H 0.69754 0.63142 0.36276 0.0
C1539 C 0.77441 0.80381 0.37811 0.0
C1540 C 0.73368 0.73591 0.36582 0.0
H1541 H 0.68282 0.68688 0.3773 0.0
C1542 C 0.74748 0.72176 0.34432 0.0
C1543 C 0.71115 0.72245 0.37914 0.0
C1544 C 0.69659 0.73611 0.40344 0.0
C1545 C 0.73767 0.69558 0.33383 0.0
C1546 C 0.71352 0.68352 0.3451 0.0
C1547 C 0.70126 0.69634 0.36853 0.0
C1548 C 0.69814 0.66093 0.32981 0.0
C1549 C 0.75227 0.68184 0.3096 0.0
C1550 C 0.68814 0.66641 0.3038 0.0
C1551 C 0.66937 0.64775 0.29133 0.0
C1552 C 0.66043 0.62317 0.30458 0.0
C1553 C 0.67167 0.6168 0.32977 0.0
C1554 C 0.69022 0.63579 0.34252 0.0
H1555 H 0.77374 0.6885 0.30947 0.0
H1556 H 0.74964 0.65883 0.31044 0.0
H1557 H 0.74437 0.68799 0.2896 0.0
H1558 H 0.69367 0.68594 0.29393 0.0
H1559 H 0.66102 0.65312 0.2719 0.0
H1560 H 0.53246 0.39448 0.61494 0.0
H1561 H 0.50274 0.42714 0.63684 0.0
H1562 H 0.4707 0.36433 0.69305 0.0
H1563 H 0.50085 0.33168 0.67182 0.0
H1564 H 0.43292 0.3893 0.66119 0.0
H1565 H 0.50048 0.46809 0.7153 0.0
H1566 H 0.51107 0.4594 0.67988 0.0
H1567 H 0.50948 0.43334 0.70586 0.0
C1568 C 0.51959 0.38779 0.63241 0.0
C1569 C 0.51891 0.3604 0.64147 0.0
C1570 C 0.50262 0.40649 0.64491 0.0
C1571 C 0.48476 0.39817 0.66672 0.0
C1572 C 0.48446 0.37112 0.67632 0.0
H1573 H 0.34605 0.4931 0.71169 0.0
H1574 H 0.37799 0.45819 0.71704 0.0
C1575 C 0.50152 0.35246 0.66396 0.0
C1576 C 0.46464 0.41687 0.67731 0.0
H1577 H 0.45766 0.48221 0.705 0.0
C1578 C 0.43813 0.4094 0.67136 0.0
C1579 C 0.47164 0.44292 0.69064 0.0
C1580 C 0.49969 0.45137 0.69856 0.0
C1581 C 0.41865 0.42822 0.67636 0.0
C1582 C 0.4259 0.45495 0.68826 0.0
C1583 C 0.45216 0.4617 0.69591 0.0
C1584 C 0.40771 0.47746 0.68873 0.0
C1585 C 0.39094 0.42007 0.66696 0.0
C1586 C 0.41436 0.50041 0.67213 0.0
C1587 C 0.39642 0.52034 0.66926 0.0
C1588 C 0.37134 0.51776 0.6829 0.0
C1589 C 0.36514 0.49551 0.70073 0.0
C1590 C 0.38328 0.47551 0.7037 0.0
H1591 H 0.38976 0.40036 0.65403 0.0
H1592 H 0.37746 0.41715 0.68565 0.0
H1593 H 0.38368 0.43667 0.65453 0.0
H1594 H 0.43312 0.50234 0.66044 0.0
H1595 H 0.40199 0.53734 0.65556 0.0
H1596 H 0.28856 0.65172 0.60586 0.0
H1597 H 0.26237 0.69192 0.60301 0.0
H1598 H 0.2103 0.66097 0.67022 0.0
H1599 H 0.23578 0.62049 0.67268 0.0
H1600 H 0.1834 0.68196 0.62943 0.0
H1601 H 0.2674 0.75643 0.66031 0.0
H1602 H 0.27354 0.73553 0.62908 0.0
H1603 H 0.26839 0.7193 0.66229 0.0
C1604 C 0.2713 0.6533 0.61975 0.0
C1605 C 0.26438 0.63305 0.63968 0.0
C1606 C 0.25652 0.67641 0.61827 0.0
C1607 C 0.23482 0.67977 0.6369 0.0
C1608 C 0.22711 0.65888 0.65579 0.0
H1609 H 0.15728 0.82059 0.7028 0.0
H1610 H 0.18813 0.78479 0.69115 0.0
C1611 C 0.2417 0.63571 0.65714 0.0
C1612 C 0.22039 0.70529 0.63753 0.0
H1613 H 0.22725 0.77542 0.6515 0.0
C1614 C 0.19299 0.70244 0.63404 0.0
C1615 C 0.23296 0.73191 0.64395 0.0
C1616 C 0.26214 0.73608 0.64939 0.0
C1617 C 0.17767 0.72534 0.63737 0.0
C1618 C 0.19027 0.75203 0.64349 0.0
C1619 C 0.21774 0.75499 0.6465 0.0
C1620 C 0.17488 0.77665 0.64878 0.0
C1621 C 0.14801 0.72043 0.63559 0.0
C1622 C 0.15822 0.78485 0.62838 0.0
C1623 C 0.14046 0.80494 0.63514 0.0
C1624 C 0.13959 0.8176 0.66215 0.0
C1625 C 0.15778 0.81115 0.6818 0.0
C1626 C 0.17529 0.7907 0.67517 0.0
H1627 H 0.14116 0.69818 0.63787 0.0
H1628 H 0.13773 0.73294 0.65206 0.0
H1629 H 0.142 0.72666 0.61479 0.0
H1630 H 0.1581 0.7748 0.60766 0.0
H1631 H 0.12664 0.80979 0.61964 0.0
H1632 H 0.38353 0.88527 0.97564 0.0
H1633 H 0.41276 0.91565 0.94682 0.0
H1634 H 0.35189 0.91789 0.8865 0.0
H1635 H 0.3223 0.88698 0.91535 0.0
H1636 H 0.3997 0.90366 0.86251 0.0
H1637 H 0.41574 -0.00227 0.93091 0.0
H1638 H 0.41974 0.96738 0.95023 0.0
H1639 H 0.38801 0.97243 0.93635 0.0
C1640 C 0.3761 0.89263 0.95655 0.0
C1641 C 0.35064 0.88371 0.94774 0.0
C1642 C 0.39278 0.91019 0.94017 0.0
C1643 C 0.38435 0.91933 0.91472 0.0
C1644 C 0.35863 0.91123 0.90622 0.0
H1645 H 0.52115 0.01867 0.85104 0.0
H1646 H 0.4735 0.00595 0.85478 0.0
C1647 C 0.34177 0.89369 0.92275 0.0
C1648 C 0.40372 0.93481 0.89611 0.0
H1649 H 0.45309 0.98654 0.89972 0.0
C1650 C 0.41097 0.92229 0.87016 0.0
C1651 C 0.41794 0.95947 0.9057 0.0
C1652 C 0.40972 0.97517 0.9322 0.0
C1653 C 0.43379 0.93222 0.85499 0.0
C1654 C 0.44995 0.95475 0.86651 0.0
C1655 C 0.44107 0.96894 0.89098 0.0
C1656 C 0.47754 0.9617 0.85618 0.0
C1657 C 0.44076 0.91784 0.82735 0.0
C1658 C 0.49564 0.941 0.85441 0.0
C1659 C 0.52279 0.94826 0.85157 0.0
C1660 C 0.53213 0.97629 0.85106 0.0
C1661 C 0.51414 0.99688 0.85114 0.0
C1662 C 0.487 0.98962 0.85335 0.0
H1663 H 0.42259 0.9104 0.81617 0.0
H1664 H 0.45339 0.93176 0.81354 0.0
H1665 H 0.45152 0.89932 0.8313 0.0
H1666 H 0.48903 0.91943 0.85744 0.0
H1667 H 0.5365 0.9322 0.85209 0.0
H1668 H 0.78622 0.00446 0.33047 0.0
H1669 H 0.80976 0.05099 0.33051 0.0
H1670 H 0.88421 0.01352 0.3215 0.0
H1671 H 0.86103 0.96758 0.32124 0.0
H1672 H 0.84225 0.06738 0.37218 0.0
H1673 H 0.89944 0.07898 0.27261 0.0
H1674 H 0.87117 0.05398 0.27621 0.0
H1675 H 0.90356 0.04538 0.28561 0.0
C1676 C 0.80754 0.00631 0.32745 0.0
C1677 C 0.82187 0.98253 0.32608 0.0
C1678 C 0.82095 0.03283 0.32752 0.0
C1679 C 0.84874 0.03576 0.32565 0.0
C1680 C 0.86279 0.0119 0.32224 0.0
H1681 H 0.96599 0.11016 0.42088 0.0
H1682 H 0.92728 0.08654 0.39903 0.0
C1683 C 0.84951 0.98559 0.32243 0.0
C1684 C 0.86359 0.06267 0.3325 0.0
H1685 H 0.92174 0.09919 0.31492 0.0
C1686 C 0.85913 0.07499 0.35925 0.0
C1687 C 0.88536 0.07302 0.31554 0.0
C1688 C 0.88993 0.06227 0.28577 0.0
C1689 C 0.87749 0.09514 0.37066 0.0
C1690 C 0.90101 0.10273 0.35505 0.0
C1691 C 0.90399 0.09281 0.32714 0.0
C1692 C 0.92399 0.11788 0.36845 0.0
C1693 C 0.8722 0.10701 0.39989 0.0
C1694 C 0.93546 0.14288 0.35791 0.0
C1695 C 0.95784 0.15629 0.37019 0.0
C1696 C 0.96925 0.1447 0.39299 0.0
C1697 C 0.95782 0.11949 0.40323 0.0
C1698 C 0.93547 0.10619 0.39102 0.0
H1699 H 0.85061 0.10704 0.40479 0.0
H1700 H 0.88064 0.0939 0.41531 0.0
H1701 H 0.88137 0.12857 0.40256 0.0
H1702 H 0.92709 0.152 0.34024 0.0
H1703 H 0.96641 0.17554 0.36163 0.0
loop_
_geom_bond_atom_site_label_1
_geom_bond_atom_site_label_2
_geom_bond_distance
_geom_bond_site_symmetry_2
_ccdc_geom_bond_type
C0 O16 1.251 . S
C0 O18 1.254 . S
N1 C2 1.333 . S
N1 C6 1.307 . S
N1 Zn7 2.020 . S
C2 N1 1.333 . S
C2 C3 1.379 . S
C2 H20 0.952 . S
C3 C2 1.379 . S
C3 C4 1.390 . S
C3 H30 0.949 . S
C4 C3 1.390 . S
C4 C5 1.357 . S
C5 C4 1.357 . S
C5 C6 1.370 . S
C5 H31 0.950 . S
C6 N1 1.307 . S
C6 C5 1.370 . S
C6 H24 0.948 . S
Zn7 N1 2.020 . S
Zn7 O16 2.039 . S
Zn7 O22 2.034 . S
Zn7 O26 2.025 . S
Zn7 O28 2.024 . S
C8 O27 1.246 . S
C8 O28 1.249 . S
N9 C10 1.307 . S
N9 C11 1.333 . S
N9 Zn15 2.020 . S
C10 N9 1.307 . S
C10 C14 1.370 . S
C10 H21 0.948 . S
C11 N9 1.333 . S
C11 C12 1.379 . S
C11 H19 0.952 . S
C12 C11 1.379 . S
C12 C13 1.390 . S
C12 H32 0.949 . S
C13 C12 1.390 . S
C13 C14 1.357 . S
C14 C10 1.370 . S
C14 C13 1.357 . S
C14 H33 0.950 . S
Zn15 N9 2.020 . S
Zn15 O18 2.025 . S
Zn15 O23 2.024 . S
Zn15 O25 2.039 . S
Zn15 O27 2.034 . S
O16 C0 1.251 . S
O16 Zn7 2.039 . S
C17 O22 1.246 . S
C17 O23 1.249 . S
O18 C0 1.254 . S
O18 Zn15 2.025 . S
H19 C11 0.952 . S
H20 C2 0.952 . S
H21 C10 0.948 . S
O22 Zn7 2.034 . S
O22 C17 1.246 . S
O23 Zn15 2.024 . S
O23 C17 1.249 . S
H24 C6 0.948 . S
O25 Zn15 2.039 . S
O25 C29 1.251 . S
O26 Zn7 2.025 . S
O26 C29 1.254 . S
O27 C8 1.246 . S
O27 Zn15 2.034 . S
O28 Zn7 2.024 . S
O28 C8 1.249 . S
C29 O25 1.251 . S
C29 O26 1.254 . S
H30 C3 0.949 . S
H31 C5 0.950 . S
H32 C12 0.949 . S
H33 C14 0.950 . S
C34 O50 1.251 . S
C34 O52 1.254 . S
N35 C36 1.333 . S
N35 C40 1.307 . S
N35 Zn41 2.020 . S
C36 N35 1.333 . S
C36 C37 1.379 . S
C36 H54 0.952 . S
C37 C36 1.379 . S
C37 C38 1.390 . S
C37 H64 0.949 . S
C38 C37 1.390 . S
C38 C39 1.357 . S
C39 C38 1.357 . S
C39 C40 1.370 . S
C39 H65 0.950 . S
C40 N35 1.307 . S
C40 C39 1.370 . S
C40 H58 0.948 . S
Zn41 N35 2.020 . S
Zn41 O50 2.039 . S
Zn41 O56 2.034 . S
Zn41 O60 2.025 . S
Zn41 O62 2.024 . S
C42 O61 1.246 . S
C42 O62 1.249 . S
N43 C44 1.307 1_655 S
N43 C45 1.333 . S
N43 Zn49 2.020 1_655 S
C44 N43 1.307 1_455 S
C44 C48 1.370 1_455 S
C44 H55 0.948 . S
C45 N43 1.333 . S
C45 C46 1.379 . S
C45 H53 0.952 . S
C46 C45 1.379 . S
C46 C47 1.390 . S
C46 H66 0.949 . S
C47 C46 1.390 . S
C47 C48 1.357 . S
C48 C44 1.370 1_655 S
C48 C47 1.357 . S
C48 H67 0.950 . S
Zn49 N43 2.020 1_455 S
Zn49 O52 2.025 . S
Zn49 O57 2.024 . S
Zn49 O59 2.019 1_455 S
Zn49 O61 2.034 . S
O50 C34 1.251 . S
O50 Zn41 2.039 . S
C51 O56 1.246 . S
C51 O57 1.249 . S
O52 C34 1.254 . S
O52 Zn49 2.025 . S
H53 C45 0.952 . S
H54 C36 0.952 . S
H55 C44 0.948 . S
O56 Zn41 2.034 . S
O56 C51 1.246 . S
O57 Zn49 2.024 . S
O57 C51 1.249 . S
H58 C40 0.948 . S
O59 Zn49 2.019 1_655 S
O59 C63 1.242 1_655 S
O60 Zn41 2.025 . S
O60 C63 1.254 . S
O61 C42 1.246 . S
O61 Zn49 2.034 . S
O62 Zn41 2.024 . S
O62 C42 1.249 . S
C63 O59 1.242 1_455 S
C63 O60 1.254 . S
H64 C37 0.949 . S
H65 C39 0.950 . S
H66 C46 0.949 . S
H67 C48 0.950 . S
C68 O84 1.251 . S
C68 O86 1.254 . S
N69 C70 1.333 . S
N69 C74 1.307 . S
N69 Zn75 2.020 . S
C70 N69 1.333 . S
C70 C71 1.379 . S
C70 H88 0.952 . S
C71 C70 1.379 . S
C71 C72 1.390 . S
C71 H98 0.949 . S
C72 C71 1.390 . S
C72 C73 1.357 . S
C73 C72 1.357 . S
C73 C74 1.370 . S
C73 H99 0.950 . S
C74 N69 1.307 . S
C74 C73 1.370 . S
C74 H92 0.948 . S
Zn75 N69 2.020 . S
Zn75 O84 2.039 . S
Zn75 O90 2.034 . S
Zn75 O94 2.025 . S
Zn75 O96 2.024 . S
C76 O95 1.246 . S
C76 O96 1.249 . S
N77 C78 1.307 1_554 S
N77 C79 1.333 . S
N77 Zn83 2.020 1_554 S
C78 N77 1.307 1_556 S
C78 C82 1.370 1_556 S
C78 H89 0.948 . S
C79 N77 1.333 . S
C79 C80 1.379 . S
C79 H87 0.952 . S
C80 C79 1.379 . S
C80 C81 1.390 . S
C80 H100 0.949 . S
C81 C80 1.390 . S
C81 C82 1.357 . S
C82 C78 1.370 1_554 S
C82 C81 1.357 . S
C82 H101 0.950 1_554 S
Zn83 N77 2.020 1_556 S
Zn83 O86 2.025 . S
Zn83 O91 2.024 . S
Zn83 O93 2.039 1_556 S
Zn83 O95 2.034 . S
O84 C68 1.251 . S
O84 Zn75 2.039 . S
C85 O90 1.246 . S
C85 O91 1.249 . S
O86 C68 1.254 . S
O86 Zn83 2.025 . S
H87 C79 0.952 . S
H88 C70 0.952 . S
H89 C78 0.948 . S
O90 Zn75 2.034 . S
O90 C85 1.246 . S
O91 Zn83 2.024 . S
O91 C85 1.249 . S
H92 C74 0.948 . S
O93 Zn83 2.039 1_554 S
O93 C97 1.251 . S
O94 Zn75 2.025 . S
O94 C97 1.254 1_556 S
O95 C76 1.246 . S
O95 Zn83 2.034 . S
O96 Zn75 2.024 . S
O96 C76 1.249 . S
C97 O93 1.251 . S
C97 O94 1.254 1_554 S
H98 C71 0.949 . S
H99 C73 0.950 . S
H100 C80 0.949 . S
H101 C82 0.950 1_556 S
C102 O118 1.251 . S
C102 O120 1.254 . S
N103 C104 1.333 . S
N103 C108 1.307 . S
N103 Zn109 2.020 . S
C104 N103 1.333 . S
C104 C105 1.379 . S
C104 H122 0.952 . S
C105 C104 1.379 . S
C105 C106 1.390 . S
C105 H132 0.949 . S
C106 C105 1.390 . S
C106 C107 1.357 . S
C107 C106 1.357 . S
C107 C108 1.370 . S
C107 H133 0.950 . S
C108 N103 1.307 . S
C108 C107 1.370 . S
C108 H126 0.948 . S
Zn109 N103 2.020 . S
Zn109 O118 2.039 . S
Zn109 O124 2.034 . S
Zn109 O128 2.025 . S
Zn109 O130 2.024 . S
C110 O129 1.246 . S
C110 O130 1.249 . S
N111 C112 1.307 . S
N111 C113 1.333 . S
N111 Zn117 2.020 . S
C112 N111 1.307 . S
C112 C116 1.370 . S
C112 H123 0.948 . S
C113 N111 1.333 . S
C113 C114 1.379 . S
C113 H121 0.952 . S
C114 C113 1.379 . S
C114 C115 1.390 . S
C114 H134 0.949 . S
C115 C114 1.390 . S
C115 C116 1.357 . S
C116 C112 1.370 . S
C116 C115 1.357 . S
C116 H135 0.950 . S
Zn117 N111 2.020 . S
Zn117 O120 2.025 . S
Zn117 O125 2.024 . S
Zn117 O127 2.039 . S
Zn117 O129 2.034 . S
O118 C102 1.251 . S
O118 Zn109 2.039 . S
C119 O124 1.246 . S
C119 O125 1.249 . S
O120 C102 1.254 . S
O120 Zn117 2.025 . S
H121 C113 0.952 . S
H122 C104 0.952 . S
H123 C112 0.948 . S
O124 Zn109 2.034 . S
O124 C119 1.246 . S
O125 Zn117 2.024 . S
O125 C119 1.249 . S
H126 C108 0.948 . S
O127 Zn117 2.039 . S
O127 C131 1.251 . S
O128 Zn109 2.025 . S
O128 C131 1.254 . S
O129 C110 1.246 . S
O129 Zn117 2.034 . S
O130 Zn109 2.024 . S
O130 C110 1.249 . S
C131 O127 1.251 . S
C131 O128 1.254 . S
H132 C105 0.949 . S
H133 C107 0.950 . S
H134 C114 0.949 . S
H135 C116 0.950 . S
C136 O152 1.251 . S
C136 O154 1.254 . S
N137 C138 1.333 . S
N137 C142 1.307 . S
N137 Zn143 2.020 . S
C138 N137 1.333 . S
C138 C139 1.379 . S
C138 H156 0.952 . S
C139 C138 1.379 . S
C139 C140 1.390 . S
C139 H166 0.949 . S
C140 C139 1.390 . S
C140 C141 1.357 . S
C141 C140 1.357 . S
C141 C142 1.370 . S
C141 H167 0.950 . S
C142 N137 1.307 . S
C142 C141 1.370 . S
C142 H160 0.948 . S
Zn143 N137 2.020 . S
Zn143 O152 2.039 . S
Zn143 O158 2.034 . S
Zn143 O162 2.025 . S
Zn143 O164 2.024 . S
C144 O163 1.246 . S
C144 O164 1.249 . S
N145 C146 1.307 . S
N145 C147 1.333 . S
N145 Zn151 2.020 . S
C146 N145 1.307 . S
C146 C150 1.370 . S
C146 H157 0.948 . S
C147 N145 1.333 . S
C147 C148 1.379 . S
C147 H155 0.952 . S
C148 C147 1.379 . S
C148 C149 1.390 . S
C148 H168 0.949 . S
C149 C148 1.390 . S
C149 C150 1.357 . S
C150 C146 1.370 . S
C150 C149 1.357 . S
C150 H169 0.950 . S
Zn151 N145 2.020 . S
Zn151 O154 2.025 . S
Zn151 O159 2.024 . S
Zn151 O161 2.039 . S
Zn151 O163 2.034 . S
O152 C136 1.251 . S
O152 Zn143 2.039 . S
C153 O158 1.246 . S
C153 O159 1.249 . S
O154 C136 1.254 . S
O154 Zn151 2.025 . S
H155 C147 0.952 . S
H156 C138 0.952 . S
H157 C146 0.948 . S
O158 Zn143 2.034 . S
O158 C153 1.246 . S
O159 Zn151 2.024 . S
O159 C153 1.249 . S
H160 C142 0.948 . S
O161 Zn151 2.039 . S
O161 C165 1.251 . S
O162 Zn143 2.025 . S
O162 C165 1.254 . S
O163 C144 1.246 . S
O163 Zn151 2.034 . S
O164 Zn143 2.024 . S
O164 C144 1.249 . S
C165 O161 1.251 . S
C165 O162 1.254 . S
H166 C139 0.949 . S
H167 C141 0.950 . S
H168 C148 0.949 . S
H169 C150 0.950 . S
C170 O186 1.251 . S
C170 O188 1.254 . S
N171 C172 1.333 . S
N171 C176 1.307 . S
N171 Zn177 2.020 . S
C172 N171 1.333 . S
C172 C173 1.379 . S
C172 H190 0.952 . S
C173 C172 1.379 . S
C173 C174 1.390 . S
C173 H200 0.949 . S
C174 C173 1.390 . S
C174 C175 1.357 . S
C175 C174 1.357 . S
C175 C176 1.370 . S
C175 H201 0.950 . S
C176 N171 1.307 . S
C176 C175 1.370 . S
C176 H194 0.948 . S
Zn177 N171 2.020 . S
Zn177 O186 2.039 . S
Zn177 O192 2.034 . S
Zn177 O196 2.025 . S
Zn177 O198 2.024 . S
C178 O197 1.246 . S
C178 O198 1.249 . S
N179 C180 1.307 . S
N179 C181 1.333 . S
N179 Zn185 2.020 . S
C180 N179 1.307 . S
C180 C184 1.370 . S
C180 H191 0.948 . S
C181 N179 1.333 . S
C181 C182 1.379 . S
C181 H189 0.952 . S
C182 C181 1.379 . S
C182 C183 1.390 . S
C182 H202 0.949 1_655 S
C183 C182 1.390 . S
C183 C184 1.357 . S
C184 C180 1.370 . S
C184 C183 1.357 . S
C184 H203 0.950 . S
Zn185 N179 2.020 . S
Zn185 O188 2.025 . S
Zn185 O193 2.024 . S
Zn185 O195 2.039 . S
Zn185 O197 2.034 . S
O186 C170 1.251 . S
O186 Zn177 2.039 . S
C187 O192 1.246 . S
C187 O193 1.249 . S
O188 C170 1.254 . S
O188 Zn185 2.025 . S
H189 C181 0.952 . S
H190 C172 0.952 . S
H191 C180 0.948 . S
O192 Zn177 2.034 . S
O192 C187 1.246 . S
O193 Zn185 2.024 . S
O193 C187 1.249 . S
H194 C176 0.948 . S
O195 Zn185 2.039 . S
O195 C199 1.251 . S
O196 Zn177 2.025 . S
O196 C199 1.254 . S
O197 C178 1.246 . S
O197 Zn185 2.034 . S
O198 Zn177 2.024 . S
O198 C178 1.249 . S
C199 O195 1.251 . S
C199 O196 1.254 . S
H200 C173 0.949 . S
H201 C175 0.950 . S
H202 C182 0.949 1_455 S
H203 C184 0.950 . S
C204 O220 1.251 . S
C204 O222 1.254 . S
N205 C206 1.333 . S
N205 C210 1.307 . S
N205 Zn211 2.020 . S
C206 N205 1.333 . S
C206 C207 1.379 . S
C206 H224 0.952 . S
C207 C206 1.379 . S
C207 C208 1.390 . S
C207 H234 0.949 . S
C208 C207 1.390 . S
C208 C209 1.357 . S
C209 C208 1.357 . S
C209 C210 1.370 . S
C209 H235 0.950 . S
C210 N205 1.307 . S
C210 C209 1.370 . S
C210 H228 0.948 . S
Zn211 N205 2.020 . S
Zn211 O220 2.039 . S
Zn211 O226 2.034 . S
Zn211 O230 2.025 . S
Zn211 O232 2.024 . S
C212 O231 1.246 . S
C212 O232 1.249 . S
N213 C214 1.307 . S
N213 C215 1.333 . S
N213 Zn219 2.020 . S
C214 N213 1.307 . S
C214 C218 1.370 1_554 S
C214 H225 0.948 . S
C215 N213 1.333 . S
C215 C216 1.379 . S
C215 H223 0.952 . S
C216 C215 1.379 . S
C216 C217 1.390 1_554 S
C216 H236 0.949 . S
C217 C216 1.390 1_556 S
C217 C218 1.357 . S
C218 C214 1.370 1_556 S
C218 C217 1.357 . S
C218 H237 0.950 . S
Zn219 N213 2.020 . S
Zn219 O222 2.025 . S
Zn219 O227 2.024 . S
Zn219 O229 2.039 . S
Zn219 O231 2.034 . S
O220 C204 1.251 . S
O220 Zn211 2.039 . S
C221 O226 1.246 . S
C221 O227 1.249 . S
O222 C204 1.254 . S
O222 Zn219 2.025 . S
H223 C215 0.952 . S
H224 C206 0.952 . S
H225 C214 0.948 . S
O226 Zn211 2.034 . S
O226 C221 1.246 . S
O227 Zn219 2.024 . S
O227 C221 1.249 . S
H228 C210 0.948 . S
O229 Zn219 2.039 . S
O229 C233 1.251 . S
O230 Zn211 2.025 . S
O230 C233 1.254 . S
O231 C212 1.246 . S
O231 Zn219 2.034 . S
O232 Zn211 2.024 . S
O232 C212 1.249 . S
C233 O229 1.251 . S
C233 O230 1.254 . S
H234 C207 0.949 . S
H235 C209 0.950 . S
H236 C216 0.949 . S
H237 C218 0.950 . S
C238 O254 1.251 . S
C238 O256 1.254 . S
N239 C240 1.333 . S
N239 C244 1.307 . S
N239 Zn245 2.020 . S
C240 N239 1.333 . S
C240 C241 1.379 . S
C240 H258 0.952 . S
C241 C240 1.379 . S
C241 C242 1.390 . S
C241 H268 0.949 . S
C242 C241 1.390 . S
C242 C243 1.357 . S
C243 C242 1.357 . S
C243 C244 1.370 . S
C243 H269 0.950 . S
C244 N239 1.307 . S
C244 C243 1.370 . S
C244 H262 0.948 . S
Zn245 N239 2.020 . S
Zn245 O254 2.039 . S
Zn245 O260 2.034 . S
Zn245 O264 2.025 . S
Zn245 O266 2.024 . S
C246 O265 1.246 . S
C246 O266 1.249 . S
N247 C248 1.307 . S
N247 C249 1.333 . S
N247 Zn253 2.020 . S
C248 N247 1.307 . S
C248 C252 1.370 . S
C248 H259 0.948 . S
C249 N247 1.333 . S
C249 C250 1.379 . S
C249 H257 0.952 . S
C250 C249 1.379 . S
C250 C251 1.390 . S
C250 H270 0.949 . S
C251 C250 1.390 . S
C251 C252 1.357 . S
C252 C248 1.370 . S
C252 C251 1.357 . S
C252 H271 0.950 . S
Zn253 N247 2.020 . S
Zn253 O256 2.025 . S
Zn253 O261 2.024 . S
Zn253 O263 2.039 . S
Zn253 O265 2.034 . S
O254 C238 1.251 . S
O254 Zn245 2.039 . S
C255 O260 1.246 . S
C255 O261 1.249 . S
O256 C238 1.254 . S
O256 Zn253 2.025 . S
H257 C249 0.952 . S
H258 C240 0.952 . S
H259 C248 0.948 . S
O260 Zn245 2.034 . S
O260 C255 1.246 . S
O261 Zn253 2.024 . S
O261 C255 1.249 . S
H262 C244 0.948 . S
O263 Zn253 2.039 . S
O263 C267 1.251 . S
O264 Zn245 2.025 . S
O264 C267 1.254 . S
O265 C246 1.246 . S
O265 Zn253 2.034 . S
O266 Zn245 2.024 . S
O266 C246 1.249 . S
C267 O263 1.251 . S
C267 O264 1.254 . S
H268 C241 0.949 . S
H269 C243 0.950 . S
H270 C250 0.949 . S
H271 C252 0.950 . S
C272 O288 1.251 . S
C272 O290 1.254 . S
N273 C274 1.333 . S
N273 C278 1.307 . S
N273 Zn279 2.020 . S
C274 N273 1.333 . S
C274 C275 1.379 . S
C274 H292 0.952 . S
C275 C274 1.379 . S
C275 C276 1.390 . S
C275 H302 0.949 . S
C276 C275 1.390 . S
C276 C277 1.357 . S
C277 C276 1.357 . S
C277 C278 1.370 . S
C277 H303 0.950 . S
C278 N273 1.307 . S
C278 C277 1.370 . S
C278 H296 0.948 . S
Zn279 N273 2.020 . S
Zn279 O288 2.039 . S
Zn279 O294 2.034 . S
Zn279 O298 2.025 . S
Zn279 O300 2.024 . S
C280 O299 1.246 . S
C280 O300 1.249 . S
N281 C282 1.307 . S
N281 C283 1.333 . S
N281 Zn287 2.020 . S
C282 N281 1.307 . S
C282 C286 1.370 . S
C282 H293 0.948 . S
C283 N281 1.333 . S
C283 C284 1.379 . S
C283 H291 0.952 . S
C284 C283 1.379 . S
C284 C285 1.390 . S
C284 H304 0.949 . S
C285 C284 1.390 . S
C285 C286 1.357 . S
C286 C282 1.370 . S
C286 C285 1.357 . S
C286 H305 0.950 . S
Zn287 N281 2.020 . S
Zn287 O290 2.025 . S
Zn287 O295 2.024 . S
Zn287 O297 2.039 . S
Zn287 O299 2.034 . S
O288 C272 1.251 . S
O288 Zn279 2.039 . S
C289 O294 1.246 . S
C289 O295 1.249 . S
O290 C272 1.254 . S
O290 Zn287 2.025 . S
H291 C283 0.952 . S
H292 C274 0.952 . S
H293 C282 0.948 . S
O294 Zn279 2.034 . S
O294 C289 1.246 . S
O295 Zn287 2.024 . S
O295 C289 1.249 . S
H296 C278 0.948 . S
O297 Zn287 2.039 . S
O297 C301 1.251 . S
O298 Zn279 2.025 . S
O298 C301 1.254 . S
O299 C280 1.246 . S
O299 Zn287 2.034 . S
O300 Zn279 2.024 . S
O300 C280 1.249 . S
C301 O297 1.251 . S
C301 O298 1.254 . S
H302 C275 0.949 . S
H303 C277 0.950 . S
H304 C284 0.949 . S
H305 C286 0.950 . S
C306 O322 1.251 1_565 S
C306 O324 1.254 . S
N307 C308 1.333 . S
N307 C312 1.307 . S
N307 Zn313 2.020 . S
C308 N307 1.333 . S
C308 C309 1.379 . S
C308 H326 0.952 . S
C309 C308 1.379 . S
C309 C310 1.390 . S
C309 H336 0.949 . S
C310 C309 1.390 . S
C310 C311 1.357 . S
C311 C310 1.357 . S
C311 C312 1.370 . S
C311 H337 0.950 . S
C312 N307 1.307 . S
C312 C311 1.370 . S
C312 H330 0.948 . S
Zn313 N307 2.020 . S
Zn313 O322 2.039 . S
Zn313 O328 2.034 . S
Zn313 O332 2.025 . S
Zn313 O334 2.024 . S
C314 O333 1.246 . S
C314 O334 1.249 . S
N315 C316 1.307 1_545 S
N315 C317 1.333 . S
N315 Zn321 2.020 . S
C316 N315 1.307 1_565 S
C316 C320 1.370 . S
C316 H327 0.948 . S
C317 N315 1.333 . S
C317 C318 1.379 . S
C317 H325 0.952 . S
C318 C317 1.379 . S
C318 C319 1.390 1_545 S
C318 H338 0.949 . S
C319 C318 1.390 1_565 S
C319 C320 1.357 . S
C320 C316 1.370 . S
C320 C319 1.357 . S
C320 H339 0.950 . S
Zn321 N315 2.020 . S
Zn321 O324 2.025 1_545 S
Zn321 O329 2.024 . S
Zn321 O331 2.039 . S
Zn321 O333 2.034 . S
O322 C306 1.251 1_545 S
O322 Zn313 2.039 . S
C323 O328 1.246 . S
C323 O329 1.249 . S
O324 C306 1.254 . S
O324 Zn321 2.025 1_565 S
H325 C317 0.952 . S
H326 C308 0.952 . S
H327 C316 0.948 . S
O328 Zn313 2.034 . S
O328 C323 1.246 . S
O329 Zn321 2.024 . S
O329 C323 1.249 . S
H330 C312 0.948 . S
O331 Zn321 2.039 . S
O331 C335 1.251 . S
O332 Zn313 2.025 . S
O332 C335 1.254 . S
O333 C314 1.246 . S
O333 Zn321 2.034 . S
O334 Zn313 2.024 . S
O334 C314 1.249 . S
C335 O331 1.251 . S
C335 O332 1.254 . S
H336 C309 0.949 . S
H337 C311 0.950 . S
H338 C318 0.949 . S
H339 C320 0.950 . S
C340 O356 1.251 . S
C340 O358 1.254 . S
N341 C342 1.333 . S
N341 C346 1.307 . S
N341 Zn347 2.020 . S
C342 N341 1.333 . S
C342 C343 1.379 . S
C342 H360 0.952 . S
C343 C342 1.379 . S
C343 C344 1.390 . S
C343 H370 0.949 . S
C344 C343 1.390 . S
C344 C345 1.357 . S
C345 C344 1.357 . S
C345 C346 1.370 . S
C345 H371 0.950 . S
C346 N341 1.307 . S
C346 C345 1.370 . S
C346 H364 0.948 . S
Zn347 N341 2.020 . S
Zn347 O356 2.039 . S
Zn347 O362 2.034 . S
Zn347 O366 2.025 . S
Zn347 O368 2.024 . S
C348 O367 1.246 . S
C348 O368 1.249 . S
N349 C350 1.307 . S
N349 C351 1.333 . S
N349 Zn355 2.020 . S
C350 N349 1.307 . S
C350 C354 1.370 . S
C350 H361 0.948 . S
C351 N349 1.333 . S
C351 C352 1.379 . S
C351 H359 0.952 . S
C352 C351 1.379 . S
C352 C353 1.390 . S
C352 H372 0.949 . S
C353 C352 1.390 . S
C353 C354 1.357 . S
C354 C350 1.370 . S
C354 C353 1.357 . S
C354 H373 0.950 . S
Zn355 N349 2.020 . S
Zn355 O358 2.025 . S
Zn355 O363 2.024 . S
Zn355 O365 2.039 . S
Zn355 O367 2.034 . S
O356 C340 1.251 . S
O356 Zn347 2.039 . S
C357 O362 1.246 . S
C357 O363 1.249 . S
O358 C340 1.254 . S
O358 Zn355 2.025 . S
H359 C351 0.952 . S
H360 C342 0.952 . S
H361 C350 0.948 . S
O362 Zn347 2.034 . S
O362 C357 1.246 . S
O363 Zn355 2.024 . S
O363 C357 1.249 . S
H364 C346 0.948 . S
O365 Zn355 2.039 . S
O365 C369 1.251 . S
O366 Zn347 2.025 . S
O366 C369 1.254 . S
O367 C348 1.246 . S
O367 Zn355 2.034 . S
O368 Zn347 2.024 . S
O368 C348 1.249 . S
C369 O365 1.251 . S
C369 O366 1.254 . S
H370 C343 0.949 . S
H371 C345 0.950 . S
H372 C352 0.949 . S
H373 C354 0.950 . S
C374 O390 1.251 . S
C374 O392 1.254 . S
N375 C376 1.333 . S
N375 C380 1.307 . S
N375 Zn381 2.020 . S
C376 N375 1.333 . S
C376 C377 1.379 . S
C376 H394 0.952 . S
C377 C376 1.379 . S
C377 C378 1.390 . S
C377 H404 0.949 . S
C378 C377 1.390 . S
C378 C379 1.357 . S
C379 C378 1.357 . S
C379 C380 1.370 . S
C379 H405 0.950 . S
C380 N375 1.307 . S
C380 C379 1.370 . S
C380 H398 0.948 . S
Zn381 N375 2.020 . S
Zn381 O390 2.039 . S
Zn381 O396 2.034 . S
Zn381 O400 2.025 . S
Zn381 O402 2.024 . S
C382 O401 1.246 . S
C382 O402 1.249 . S
N383 C384 1.307 . S
N383 C385 1.333 . S
N383 Zn389 2.020 . S
C384 N383 1.307 . S
C384 C388 1.370 . S
C384 H395 0.948 . S
C385 N383 1.333 . S
C385 C386 1.379 . S
C385 H393 0.952 . S
C386 C385 1.379 . S
C386 C387 1.390 . S
C386 H406 0.949 . S
C387 C386 1.390 . S
C387 C388 1.357 . S
C388 C384 1.370 . S
C388 C387 1.357 . S
C388 H407 0.950 . S
Zn389 N383 2.020 . S
Zn389 O392 2.025 . S
Zn389 O397 2.024 . S
Zn389 O399 2.039 . S
Zn389 O401 2.034 . S
O390 C374 1.251 . S
O390 Zn381 2.039 . S
C391 O396 1.246 . S
C391 O397 1.249 . S
O392 C374 1.254 . S
O392 Zn389 2.025 . S
H393 C385 0.952 . S
H394 C376 0.952 . S
H395 C384 0.948 . S
O396 Zn381 2.034 . S
O396 C391 1.246 . S
O397 Zn389 2.024 . S
O397 C391 1.249 . S
H398 C380 0.948 . S
O399 Zn389 2.039 . S
O399 C403 1.251 . S
O400 Zn381 2.025 . S
O400 C403 1.254 . S
O401 C382 1.246 . S
O401 Zn389 2.034 . S
O402 Zn381 2.024 . S
O402 C382 1.249 . S
C403 O399 1.251 . S
C403 O400 1.254 . S
H404 C377 0.949 . S
H405 C379 0.950 . S
H406 C386 0.949 . S
H407 C388 0.950 . S
H408 C416 0.929 . S
H409 C418 0.930 . S
H410 C420 0.930 . S
H411 C423 0.929 . S
H412 C426 0.930 . S
H413 C428 0.960 . S
H414 C428 0.960 . S
H415 C428 0.960 . S
C416 H408 0.929 . S
C416 C417 1.377 . S
C416 C418 1.384 . S
C417 C416 1.377 . S
C417 C423 1.390 . S
C418 H409 0.930 . S
C418 C416 1.384 . S
C418 C419 1.372 . S
C419 C418 1.372 . S
C419 C420 1.400 . S
C419 C424 1.490 . S
C420 H410 0.930 . S
C420 C419 1.400 . S
C420 C423 1.386 . S
H421 C437 0.930 . S
H422 C438 0.931 . S
C423 H411 0.929 . S
C423 C417 1.390 . S
C423 C420 1.386 . S
C424 C419 1.490 . S
C424 C426 1.395 . S
C424 C427 1.403 . S
H425 C431 0.930 . S
C426 H412 0.930 . S
C426 C424 1.395 . S
C426 C429 1.403 . S
C427 C424 1.403 . S
C427 C428 1.524 . S
C427 C431 1.400 . S
C428 H413 0.960 . S
C428 H414 0.960 . S
C428 H415 0.960 . S
C428 C427 1.524 . S
C429 C426 1.403 . S
C429 C430 1.392 . S
C429 C433 1.495 . S
C430 C429 1.392 . S
C430 C431 1.385 . S
C430 C432 1.478 . S
C431 H425 0.930 . S
C431 C427 1.400 . S
C431 C430 1.385 . S
C432 C430 1.478 . S
C432 C434 1.381 . S
C432 C438 1.383 . S
C433 C429 1.495 . S
C433 H439 0.959 . S
C433 H440 0.961 . S
C433 H441 0.960 . S
C434 C432 1.381 . S
C434 C435 1.394 . S
C434 H442 0.930 . S
C435 C434 1.394 . S
C435 C436 1.383 . S
C435 H443 0.929 . S
C436 C435 1.383 . S
C436 C437 1.377 . S
C437 H421 0.930 . S
C437 C436 1.377 . S
C437 C438 1.379 . S
C438 H422 0.931 . S
C438 C432 1.383 . S
C438 C437 1.379 . S
H439 C433 0.959 . S
H440 C433 0.961 . S
H441 C433 0.960 . S
H442 C434 0.930 . S
H443 C435 0.929 . S
H444 C452 0.929 . S
H445 C454 0.930 . S
H446 C456 0.900 1_545 S
H447 C459 0.929 . S
H448 C462 0.930 . S
H449 C464 0.960 . S
H450 C464 0.960 1_565 S
H451 C464 0.960 . S
C452 H444 0.929 . S
C452 C453 1.377 . S
C452 C454 1.384 . S
C453 C452 1.377 . S
C453 C459 1.390 1_565 S
C454 H445 0.930 . S
C454 C452 1.384 . S
C454 C455 1.372 . S
C455 C454 1.372 . S
C455 C456 1.435 . S
C455 C460 1.490 . S
C456 H446 0.900 1_565 S
C456 C455 1.435 . S
C456 C459 1.380 1_565 S
H457 C473 0.930 1_545 S
H458 C474 0.931 1_545 S
C459 H447 0.929 . S
C459 C453 1.390 1_545 S
C459 C456 1.380 1_545 S
C460 C455 1.490 . S
C460 C462 1.395 . S
C460 C463 1.403 . S
H461 C467 0.930 . S
C462 H448 0.930 . S
C462 C460 1.395 . S
C462 C465 1.403 . S
C463 C460 1.403 . S
C463 C464 1.524 1_565 S
C463 C467 1.400 . S
C464 H449 0.960 . S
C464 H450 0.960 1_545 S
C464 H451 0.960 . S
C464 C463 1.524 1_545 S
C465 C462 1.403 . S
C465 C466 1.392 . S
C465 C469 1.495 . S
C466 C465 1.392 . S
C466 C467 1.385 . S
C466 C468 1.478 . S
C467 H461 0.930 . S
C467 C463 1.400 . S
C467 C466 1.385 . S
C468 C466 1.478 . S
C468 C470 1.381 . S
C468 C474 1.383 . S
C469 C465 1.495 . S
C469 H475 0.959 . S
C469 H476 0.961 . S
C469 H477 0.960 . S
C470 C468 1.381 . S
C470 C471 1.394 . S
C470 H478 0.930 . S
C471 C470 1.394 . S
C471 C472 1.383 . S
C471 H479 0.929 . S
C472 C471 1.383 . S
C472 C473 1.377 . S
C473 H457 0.930 1_565 S
C473 C472 1.377 . S
C473 C474 1.379 . S
C474 H458 0.931 1_565 S
C474 C468 1.383 . S
C474 C473 1.379 . S
H475 C469 0.959 . S
H476 C469 0.961 . S
H477 C469 0.960 . S
H478 C470 0.930 . S
H479 C471 0.929 . S
H480 C488 0.929 . S
H481 C490 0.930 . S
H482 C492 0.930 . S
H483 C495 0.929 . S
H484 C498 0.930 . S
H485 C500 0.960 . S
H486 C500 0.960 1_556 S
H487 C500 0.960 . S
C488 H480 0.929 . S
C488 C489 1.377 1_556 S
C488 C490 1.384 1_556 S
C489 C488 1.377 1_554 S
C489 C495 1.390 . S
C490 H481 0.930 . S
C490 C488 1.384 1_554 S
C490 C491 1.372 . S
C491 C490 1.372 . S
C491 C492 1.400 . S
C491 C496 1.490 . S
C492 H482 0.930 . S
C492 C491 1.400 . S
C492 C495 1.386 . S
H493 C509 0.930 . S
H494 C510 0.931 . S
C495 H483 0.929 . S
C495 C489 1.390 . S
C495 C492 1.386 . S
C496 C491 1.490 . S
C496 C498 1.395 . S
C496 C499 1.403 . S
H497 C503 0.930 . S
C498 H484 0.930 . S
C498 C496 1.395 . S
C498 C501 1.403 . S
C499 C496 1.403 . S
C499 C500 1.524 . S
C499 C503 1.400 . S
C500 H485 0.960 . S
C500 H486 0.960 1_554 S
C500 H487 0.960 . S
C500 C499 1.524 . S
C501 C498 1.403 . S
C501 C502 1.392 . S
C501 C505 1.495 . S
C502 C501 1.392 . S
C502 C503 1.385 . S
C502 C504 1.478 . S
C503 H497 0.930 . S
C503 C499 1.400 . S
C503 C502 1.385 . S
C504 C502 1.478 . S
C504 C506 1.381 . S
C504 C510 1.383 . S
C505 C501 1.495 . S
C505 H511 0.959 . S
C505 H512 0.961 . S
C505 H513 0.960 . S
C506 C504 1.381 . S
C506 C507 1.394 . S
C506 H514 0.930 . S
C507 C506 1.394 . S
C507 C508 1.383 . S
C507 H515 0.929 . S
C508 C507 1.383 . S
C508 C509 1.377 . S
C509 H493 0.930 . S
C509 C508 1.377 . S
C509 C510 1.379 . S
C510 H494 0.931 . S
C510 C504 1.383 . S
C510 C509 1.379 . S
H511 C505 0.959 . S
H512 C505 0.961 . S
H513 C505 0.960 . S
H514 C506 0.930 . S
H515 C507 0.929 . S
H516 C524 0.929 . S
H517 C526 0.929 1_565 S
H518 C528 0.930 . S
H519 C531 0.929 . S
H520 C534 0.930 . S
H521 C536 0.960 . S
H522 C536 0.960 . S
H523 C536 0.960 . S
C524 H516 0.929 . S
C524 C525 1.377 . S
C524 C526 1.383 . S
C525 C524 1.377 . S
C525 C531 1.390 . S
C526 H517 0.929 1_545 S
C526 C524 1.383 . S
C526 C527 1.373 1_545 S
C527 C526 1.373 1_565 S
C527 C528 1.400 . S
C527 C532 1.490 . S
C528 H518 0.930 . S
C528 C527 1.400 . S
C528 C531 1.386 1_565 S
H529 C545 0.930 . S
H530 C546 0.931 . S
C531 H519 0.929 . S
C531 C525 1.390 . S
C531 C528 1.386 1_545 S
C532 C527 1.490 . S
C532 C534 1.395 1_565 S
C532 C535 1.403 . S
H533 C539 0.930 . S
C534 H520 0.930 . S
C534 C532 1.395 1_545 S
C534 C537 1.403 . S
C535 C532 1.403 . S
C535 C536 1.524 . S
C535 C539 1.400 . S
C536 H521 0.960 . S
C536 H522 0.960 . S
C536 H523 0.960 . S
C536 C535 1.524 . S
C537 C534 1.403 . S
C537 C538 1.392 1_545 S
C537 C541 1.495 . S
C538 C537 1.392 1_565 S
C538 C539 1.385 . S
C538 C540 1.478 . S
C539 H533 0.930 . S
C539 C535 1.400 . S
C539 C538 1.385 . S
C540 C538 1.478 . S
C540 C542 1.381 . S
C540 C546 1.383 . S
C541 C537 1.495 . S
C541 H547 0.959 . S
C541 H548 0.961 . S
C541 H549 0.960 . S
C542 C540 1.381 . S
C542 C543 1.394 . S
C542 H550 0.930 . S
C543 C542 1.394 . S
C543 C544 1.383 . S
C543 H551 0.929 . S
C544 C543 1.383 . S
C544 C545 1.377 . S
C545 H529 0.930 . S
C545 C544 1.377 . S
C545 C546 1.379 . S
C546 H530 0.931 . S
C546 C540 1.383 . S
C546 C545 1.379 . S
H547 C541 0.959 . S
H548 C541 0.961 . S
H549 C541 0.960 . S
H550 C542 0.930 . S
H551 C543 0.929 . S
H552 C560 0.929 . S
H553 C562 0.930 . S
H554 C564 0.930 . S
H555 C567 0.929 . S
H556 C570 0.930 . S
H557 C572 0.960 . S
H558 C572 0.960 . S
H559 C572 0.960 . S
C560 H552 0.929 . S
C560 C561 1.377 . S
C560 C562 1.384 . S
C561 C560 1.377 . S
C561 C567 1.390 . S
C562 H553 0.930 . S
C562 C560 1.384 . S
C562 C563 1.372 . S
C563 C562 1.372 . S
C563 C564 1.400 . S
C563 C568 1.490 . S
C564 H554 0.930 . S
C564 C563 1.400 . S
C564 C567 1.386 . S
H565 C581 0.930 . S
H566 C582 0.931 . S
C567 H555 0.929 . S
C567 C561 1.390 . S
C567 C564 1.386 . S
C568 C563 1.490 . S
C568 C570 1.395 . S
C568 C571 1.403 . S
H569 C575 0.930 . S
C570 H556 0.930 . S
C570 C568 1.395 . S
C570 C573 1.403 . S
C571 C568 1.403 . S
C571 C572 1.524 . S
C571 C575 1.400 . S
C572 H557 0.960 . S
C572 H558 0.960 . S
C572 H559 0.960 . S
C572 C571 1.524 . S
C573 C570 1.403 . S
C573 C574 1.392 . S
C573 C577 1.495 . S
C574 C573 1.392 . S
C574 C575 1.385 . S
C574 C576 1.478 . S
C575 H569 0.930 . S
C575 C571 1.400 . S
C575 C574 1.385 . S
C576 C574 1.478 . S
C576 C578 1.381 1_545 S
C576 C582 1.383 . S
C577 C573 1.495 . S
C577 H583 0.959 . S
C577 H584 0.961 . S
C577 H585 0.960 . S
C578 C576 1.381 1_565 S
C578 C579 1.394 . S
C578 H586 0.930 . S
C579 C578 1.394 . S
C579 C580 1.383 . S
C579 H587 0.929 . S
C580 C579 1.383 . S
C580 C581 1.377 . S
C581 H565 0.930 . S
C581 C580 1.377 . S
C581 C582 1.379 1_565 S
C582 H566 0.931 . S
C582 C576 1.383 . S
C582 C581 1.379 1_545 S
H583 C577 0.959 . S
H584 C577 0.961 . S
H585 C577 0.960 . S
H586 C578 0.930 . S
H587 C579 0.929 . S
H588 C596 0.929 1_655 S
H589 C598 0.930 . S
H590 C600 0.930 . S
H591 C603 0.929 . S
H592 C606 0.930 . S
H593 C608 0.960 . S
H594 C608 0.960 . S
H595 C608 0.960 . S
C596 H588 0.929 1_455 S
C596 C597 1.377 1_455 S
C596 C598 1.384 . S
C597 C596 1.377 1_655 S
C597 C603 1.390 1_655 S
C598 H589 0.930 . S
C598 C596 1.384 . S
C598 C599 1.372 . S
C599 C598 1.372 . S
C599 C600 1.400 . S
C599 C604 1.490 . S
C600 H590 0.930 . S
C600 C599 1.400 . S
C600 C603 1.386 . S
H601 C617 0.930 . S
H602 C618 0.931 . S
C603 H591 0.929 . S
C603 C597 1.390 1_455 S
C603 C600 1.386 . S
C604 C599 1.490 . S
C604 C606 1.395 . S
C604 C607 1.403 . S
H605 C611 0.930 . S
C606 H592 0.930 . S
C606 C604 1.395 . S
C606 C609 1.403 . S
C607 C604 1.403 . S
C607 C608 1.524 . S
C607 C611 1.400 . S
C608 H593 0.960 . S
C608 H594 0.960 . S
C608 H595 0.960 . S
C608 C607 1.524 . S
C609 C606 1.403 . S
C609 C610 1.392 . S
C609 C613 1.495 . S
C610 C609 1.392 . S
C610 C611 1.385 . S
C610 C612 1.478 . S
C611 H605 0.930 . S
C611 C607 1.400 . S
C611 C610 1.385 . S
C612 C610 1.478 . S
C612 C614 1.381 . S
C612 C618 1.383 . S
C613 C609 1.495 . S
C613 H619 0.959 . S
C613 H620 0.961 . S
C613 H621 0.960 . S
C614 C612 1.381 . S
C614 C615 1.394 . S
C614 H622 0.930 . S
C615 C614 1.394 . S
C615 C616 1.383 . S
C615 H623 0.929 . S
C616 C615 1.383 . S
C616 C617 1.377 . S
C617 H601 0.930 . S
C617 C616 1.377 . S
C617 C618 1.379 . S
C618 H602 0.931 . S
C618 C612 1.383 . S
C618 C617 1.379 . S
H619 C613 0.959 . S
H620 C613 0.961 . S
H621 C613 0.960 . S
H622 C614 0.930 . S
H623 C615 0.929 . S
H624 C632 0.929 . S
H625 C634 0.930 . S
H626 C636 0.930 . S
H627 C639 0.929 . S
H628 C642 0.930 . S
H629 C644 0.960 . S
H630 C644 0.960 . S
H631 C644 0.960 . S
C632 H624 0.929 . S
C632 C633 1.377 . S
C632 C634 1.384 . S
C633 C632 1.377 . S
C633 C639 1.390 . S
C634 H625 0.930 . S
C634 C632 1.384 . S
C634 C635 1.372 . S
C635 C634 1.372 . S
C635 C636 1.400 . S
C635 C640 1.490 . S
C636 H626 0.930 . S
C636 C635 1.400 . S
C636 C639 1.386 . S
H637 C653 0.930 . S
H638 C654 0.931 . S
C639 H627 0.929 . S
C639 C633 1.390 . S
C639 C636 1.386 . S
C640 C635 1.490 . S
C640 C642 1.395 . S
C640 C643 1.403 . S
H641 C647 0.930 . S
C642 H628 0.930 . S
C642 C640 1.395 . S
C642 C645 1.403 . S
C643 C640 1.403 . S
C643 C644 1.524 . S
C643 C647 1.400 . S
C644 H629 0.960 . S
C644 H630 0.960 . S
C644 H631 0.960 . S
C644 C643 1.524 . S
C645 C642 1.403 . S
C645 C646 1.392 . S
C645 C649 1.495 . S
C646 C645 1.392 . S
C646 C647 1.385 . S
C646 C648 1.478 . S
C647 H641 0.930 . S
C647 C643 1.400 . S
C647 C646 1.385 . S
C648 C646 1.478 . S
C648 C650 1.381 . S
C648 C654 1.383 . S
C649 C645 1.495 . S
C649 H655 0.959 . S
C649 H656 0.961 . S
C649 H657 0.960 . S
C650 C648 1.381 . S
C650 C651 1.394 . S
C650 H658 0.930 . S
C651 C650 1.394 . S
C651 C652 1.383 . S
C651 H659 0.929 1_556 S
C652 C651 1.383 . S
C652 C653 1.377 . S
C653 H637 0.930 . S
C653 C652 1.377 . S
C653 C654 1.379 . S
C654 H638 0.931 . S
C654 C648 1.383 . S
C654 C653 1.379 . S
H655 C649 0.959 . S
H656 C649 0.961 . S
H657 C649 0.960 . S
H658 C650 0.930 . S
H659 C651 0.929 1_554 S
H660 C668 0.929 . S
H661 C670 0.930 . S
H662 C672 0.930 . S
H663 C675 0.929 . S
H664 C678 0.930 . S
H665 C680 0.960 . S
H666 C680 0.960 . S
H667 C680 0.960 . S
C668 H660 0.929 . S
C668 C669 1.377 . S
C668 C670 1.384 . S
C669 C668 1.377 . S
C669 C675 1.390 . S
C670 H661 0.930 . S
C670 C668 1.384 . S
C670 C671 1.372 . S
C671 C670 1.372 . S
C671 C672 1.400 . S
C671 C676 1.490 . S
C672 H662 0.930 . S
C672 C671 1.400 . S
C672 C675 1.386 . S
H673 C689 0.930 . S
H674 C690 0.931 . S
C675 H663 0.929 . S
C675 C669 1.390 . S
C675 C672 1.386 . S
C676 C671 1.490 . S
C676 C678 1.395 . S
C676 C679 1.403 . S
H677 C683 0.930 . S
C678 H664 0.930 . S
C678 C676 1.395 . S
C678 C681 1.403 . S
C679 C676 1.403 . S
C679 C680 1.524 . S
C679 C683 1.400 . S
C680 H665 0.960 . S
C680 H666 0.960 . S
C680 H667 0.960 . S
C680 C679 1.524 . S
C681 C678 1.403 . S
C681 C682 1.392 . S
C681 C685 1.495 . S
C682 C681 1.392 . S
C682 C683 1.385 . S
C682 C684 1.478 . S
C683 H677 0.930 . S
C683 C679 1.400 . S
C683 C682 1.385 . S
C684 C682 1.478 . S
C684 C686 1.381 . S
C684 C690 1.383 . S
C685 C681 1.495 . S
C685 H691 0.959 . S
C685 H692 0.961 . S
C685 H693 0.960 . S
C686 C684 1.381 . S
C686 C687 1.394 . S
C686 H694 0.930 . S
C687 C686 1.394 . S
C687 C688 1.383 . S
C687 H695 0.929 . S
C688 C687 1.383 . S
C688 C689 1.377 . S
C689 H673 0.930 . S
C689 C688 1.377 . S
C689 C690 1.379 . S
C690 H674 0.931 . S
C690 C684 1.383 . S
C690 C689 1.379 . S
H691 C685 0.959 . S
H692 C685 0.961 . S
H693 C685 0.960 . S
H694 C686 0.930 . S
H695 C687 0.929 . S
H696 C704 0.929 . S
H697 C706 0.930 . S
H698 C708 0.930 . S
H699 C711 0.929 . S
H700 C714 0.930 . S
H701 C716 0.960 . S
H702 C716 0.960 . S
H703 C716 0.960 . S
C704 H696 0.929 . S
C704 C705 1.377 . S
C704 C706 1.384 . S
C705 C704 1.377 . S
C705 C711 1.390 . S
C706 H697 0.930 . S
C706 C704 1.384 . S
C706 C707 1.372 . S
C707 C706 1.372 . S
C707 C708 1.400 . S
C707 C712 1.490 . S
C708 H698 0.930 . S
C708 C707 1.400 . S
C708 C711 1.386 . S
H709 C725 0.930 . S
H710 C726 0.931 . S
C711 H699 0.929 . S
C711 C705 1.390 . S
C711 C708 1.386 . S
C712 C707 1.490 . S
C712 C714 1.395 . S
C712 C715 1.403 . S
H713 C719 0.930 . S
C714 H700 0.930 . S
C714 C712 1.395 . S
C714 C717 1.403 . S
C715 C712 1.403 . S
C715 C716 1.524 . S
C715 C719 1.400 . S
C716 H701 0.960 . S
C716 H702 0.960 . S
C716 H703 0.960 . S
C716 C715 1.524 . S
C717 C714 1.403 . S
C717 C718 1.392 . S
C717 C721 1.495 . S
C718 C717 1.392 . S
C718 C719 1.385 . S
C718 C720 1.478 . S
C719 H713 0.930 . S
C719 C715 1.400 . S
C719 C718 1.385 . S
C720 C718 1.478 . S
C720 C722 1.381 . S
C720 C726 1.383 . S
C721 C717 1.495 . S
C721 H727 0.959 . S
C721 H728 0.961 . S
C721 H729 0.960 . S
C722 C720 1.381 . S
C722 C723 1.394 . S
C722 H730 0.930 . S
C723 C722 1.394 . S
C723 C724 1.383 . S
C723 H731 0.929 . S
C724 C723 1.383 . S
C724 C725 1.377 . S
C725 H709 0.930 . S
C725 C724 1.377 . S
C725 C726 1.379 . S
C726 H710 0.931 . S
C726 C720 1.383 . S
C726 C725 1.379 . S
H727 C721 0.959 . S
H728 C721 0.961 . S
H729 C721 0.960 . S
H730 C722 0.930 . S
H731 C723 0.929 . S
H732 C740 0.929 . S
H733 C742 0.930 . S
H734 C744 0.930 1_655 S
H735 C747 0.929 . S
H736 C750 0.930 . S
H737 C752 0.960 . S
H738 C752 0.960 . S
H739 C752 0.960 . S
C740 H732 0.929 . S
C740 C741 1.377 . S
C740 C742 1.384 . S
C741 C740 1.377 . S
C741 C747 1.390 . S
C742 H733 0.930 . S
C742 C740 1.384 . S
C742 C743 1.372 . S
C743 C742 1.372 . S
C743 C744 1.400 . S
C743 C748 1.490 . S
C744 H734 0.930 1_455 S
C744 C743 1.400 . S
C744 C747 1.386 . S
H745 C761 0.930 . S
H746 C762 0.931 . S
C747 H735 0.929 . S
C747 C741 1.390 . S
C747 C744 1.386 . S
C748 C743 1.490 . S
C748 C750 1.395 . S
C748 C751 1.403 1_455 S
H749 C755 0.930 . S
C750 H736 0.930 . S
C750 C748 1.395 . S
C750 C753 1.403 . S
C751 C748 1.403 1_655 S
C751 C752 1.524 . S
C751 C755 1.400 . S
C752 H737 0.960 . S
C752 H738 0.960 . S
C752 H739 0.960 . S
C752 C751 1.524 . S
C753 C750 1.403 . S
C753 C754 1.392 1_455 S
C753 C757 1.495 . S
C754 C753 1.392 1_655 S
C754 C755 1.385 . S
C754 C756 1.478 . S
C755 H749 0.930 . S
C755 C751 1.400 . S
C755 C754 1.385 . S
C756 C754 1.478 . S
C756 C758 1.381 . S
C756 C762 1.383 . S
C757 C753 1.495 . S
C757 H763 0.959 . S
C757 H764 0.961 . S
C757 H765 0.960 . S
C758 C756 1.381 . S
C758 C759 1.394 . S
C758 H766 0.930 . S
C759 C758 1.394 . S
C759 C760 1.383 . S
C759 H767 0.929 . S
C760 C759 1.383 . S
C760 C761 1.377 . S
C761 H745 0.930 . S
C761 C760 1.377 . S
C761 C762 1.379 . S
C762 H746 0.931 . S
C762 C756 1.383 . S
C762 C761 1.379 . S
H763 C757 0.959 . S
H764 C757 0.961 . S
H765 C757 0.960 . S
H766 C758 0.930 . S
H767 C759 0.929 . S
H768 C776 0.929 . S
H769 C778 0.930 . S
H770 C780 0.930 1_455 S
H771 C783 0.929 . S
H772 C786 0.930 . S
H773 C788 0.953 1_455 S
H774 C788 0.965 . S
H775 C788 0.942 1_455 S
C776 H768 0.929 . S
C776 C777 1.377 . S
C776 C778 1.384 . S
C777 C776 1.377 . S
C777 C783 1.390 1_655 S
C778 H769 0.930 . S
C778 C776 1.384 . S
C778 C779 1.372 . S
C779 C778 1.372 . S
C779 C780 1.400 . S
C779 C784 1.490 . S
C780 H770 0.930 1_655 S
C780 C779 1.400 . S
C780 C783 1.386 1_655 S
H781 C797 0.930 . S
H782 C798 0.931 . S
C783 H771 0.929 . S
C783 C777 1.390 1_455 S
C783 C780 1.386 1_455 S
C784 C779 1.490 . S
C784 C786 1.395 . S
C784 C787 1.403 . S
H785 C791 0.930 . S
C786 H772 0.930 . S
C786 C784 1.395 . S
C786 C789 1.403 . S
C787 C784 1.403 . S
C787 C788 1.546 . S
C787 C791 1.400 . S
C788 H773 0.953 1_655 S
C788 H774 0.965 . S
C788 H775 0.942 1_655 S
C788 C787 1.546 . S
C789 C786 1.403 . S
C789 C790 1.392 . S
C789 C793 1.495 . S
C790 C789 1.392 . S
C790 C791 1.385 . S
C790 C792 1.478 . S
C791 H785 0.930 . S
C791 C787 1.400 . S
C791 C790 1.385 . S
C792 C790 1.478 . S
C792 C794 1.381 . S
C792 C798 1.383 . S
C793 C789 1.495 . S
C793 H799 0.959 . S
C793 H800 0.961 . S
C793 H801 0.960 . S
C794 C792 1.381 . S
C794 C795 1.394 . S
C794 H802 0.930 . S
C795 C794 1.394 . S
C795 C796 1.383 . S
C795 H803 0.929 . S
C796 C795 1.383 . S
C796 C797 1.377 . S
C797 H781 0.930 . S
C797 C796 1.377 . S
C797 C798 1.379 . S
C798 H782 0.931 . S
C798 C792 1.383 . S
C798 C797 1.379 . S
H799 C793 0.959 . S
H800 C793 0.961 . S
H801 C793 0.960 . S
H802 C794 0.930 . S
H803 C795 0.929 . S
H804 C812 0.929 . S
H805 C814 0.930 . S
H806 C816 0.930 . S
H807 C819 0.929 . S
H808 C822 0.930 . S
H809 C824 0.960 . S
H810 C824 0.960 . S
H811 C824 0.960 . S
C812 H804 0.929 . S
C812 C813 1.377 . S
C812 C814 1.384 . S
C813 C812 1.377 . S
C813 C819 1.390 . S
C814 H805 0.930 . S
C814 C812 1.384 . S
C814 C815 1.372 . S
C815 C814 1.372 . S
C815 C816 1.400 . S
C815 C820 1.490 . S
C816 H806 0.930 . S
C816 C815 1.400 . S
C816 C819 1.386 . S
H817 C833 0.930 . S
H818 C834 0.931 . S
C819 H807 0.929 . S
C819 C813 1.390 . S
C819 C816 1.386 . S
C820 C815 1.490 . S
C820 C822 1.395 . S
C820 C823 1.403 . S
H821 C827 0.930 . S
C822 H808 0.930 . S
C822 C820 1.395 . S
C822 C825 1.403 . S
C823 C820 1.403 . S
C823 C824 1.524 . S
C823 C827 1.400 . S
C824 H809 0.960 . S
C824 H810 0.960 . S
C824 H811 0.960 . S
C824 C823 1.524 . S
C825 C822 1.403 . S
C825 C826 1.392 . S
C825 C829 1.495 . S
C826 C825 1.392 . S
C826 C827 1.385 . S
C826 C828 1.478 . S
C827 H821 0.930 . S
C827 C823 1.400 . S
C827 C826 1.385 . S
C828 C826 1.478 . S
C828 C830 1.381 . S
C828 C834 1.383 . S
C829 C825 1.495 . S
C829 H835 0.959 . S
C829 H836 0.961 . S
C829 H837 0.960 . S
C830 C828 1.381 . S
C830 C831 1.394 . S
C830 H838 0.930 . S
C831 C830 1.394 . S
C831 C832 1.383 . S
C831 H839 0.929 . S
C832 C831 1.383 . S
C832 C833 1.377 . S
C833 H817 0.930 . S
C833 C832 1.377 . S
C833 C834 1.379 . S
C834 H818 0.931 . S
C834 C828 1.383 . S
C834 C833 1.379 . S
H835 C829 0.959 . S
H836 C829 0.961 . S
H837 C829 0.960 . S
H838 C830 0.930 . S
H839 C831 0.929 . S
H840 C848 0.929 . S
H841 C850 0.930 . S
H842 C852 0.930 . S
H843 C855 0.929 . S
H844 C858 0.930 . S
H845 C860 0.960 . S
H846 C860 0.960 . S
H847 C860 0.960 . S
C848 H840 0.929 . S
C848 C849 1.377 . S
C848 C850 1.384 . S
C849 C848 1.377 . S
C849 C855 1.390 . S
C850 H841 0.930 . S
C850 C848 1.384 . S
C850 C851 1.372 . S
C851 C850 1.372 . S
C851 C852 1.400 . S
C851 C856 1.490 . S
C852 H842 0.930 . S
C852 C851 1.400 . S
C852 C855 1.386 . S
H853 C869 0.930 . S
H854 C870 0.931 . S
C855 H843 0.929 . S
C855 C849 1.390 . S
C855 C852 1.386 . S
C856 C851 1.490 . S
C856 C858 1.395 . S
C856 C859 1.403 . S
H857 C863 0.930 . S
C858 H844 0.930 . S
C858 C856 1.395 . S
C858 C861 1.403 . S
C859 C856 1.403 . S
C859 C860 1.524 . S
C859 C863 1.400 . S
C860 H845 0.960 . S
C860 H846 0.960 . S
C860 H847 0.960 . S
C860 C859 1.524 . S
C861 C858 1.403 . S
C861 C862 1.392 . S
C861 C865 1.495 . S
C862 C861 1.392 . S
C862 C863 1.385 . S
C862 C864 1.478 . S
C863 H857 0.930 . S
C863 C859 1.400 . S
C863 C862 1.385 . S
C864 C862 1.478 . S
C864 C866 1.381 . S
C864 C870 1.383 . S
C865 C861 1.495 . S
C865 H871 0.959 . S
C865 H872 0.961 . S
C865 H873 0.960 . S
C866 C864 1.381 . S
C866 C867 1.394 . S
C866 H874 0.930 . S
C867 C866 1.394 . S
C867 C868 1.383 . S
C867 H875 0.929 . S
C868 C867 1.383 . S
C868 C869 1.377 . S
C869 H853 0.930 . S
C869 C868 1.377 . S
C869 C870 1.379 . S
C870 H854 0.931 . S
C870 C864 1.383 . S
C870 C869 1.379 . S
H871 C865 0.959 . S
H872 C865 0.961 . S
H873 C865 0.960 . S
H874 C866 0.930 . S
H875 C867 0.929 . S
H876 C884 0.929 1_455 S
H877 C886 0.930 . S
H878 C888 0.930 . S
H879 C891 0.929 . S
H880 C894 0.930 . S
H881 C896 0.960 . S
H882 C896 0.960 . S
H883 C896 0.960 . S
C884 H876 0.929 1_655 S
C884 C885 1.377 . S
C884 C886 1.384 . S
C885 C884 1.377 . S
C885 C891 1.390 . S
C886 H877 0.930 . S
C886 C884 1.384 . S
C886 C887 1.372 . S
C887 C886 1.372 . S
C887 C888 1.400 . S
C887 C892 1.490 . S
C888 H878 0.930 . S
C888 C887 1.400 . S
C888 C891 1.386 . S
H889 C905 0.930 . S
H890 C906 0.931 . S
C891 H879 0.929 . S
C891 C885 1.390 . S
C891 C888 1.386 . S
C892 C887 1.490 . S
C892 C894 1.395 . S
C892 C895 1.403 . S
H893 C899 0.930 . S
C894 H880 0.930 . S
C894 C892 1.395 . S
C894 C897 1.403 . S
C895 C892 1.403 . S
C895 C896 1.524 . S
C895 C899 1.400 . S
C896 H881 0.960 . S
C896 H882 0.960 . S
C896 H883 0.960 . S
C896 C895 1.524 . S
C897 C894 1.403 . S
C897 C898 1.392 . S
C897 C901 1.495 . S
C898 C897 1.392 . S
C898 C899 1.385 . S
C898 C900 1.478 . S
C899 H893 0.930 . S
C899 C895 1.400 . S
C899 C898 1.385 . S
C900 C898 1.478 . S
C900 C902 1.381 . S
C900 C906 1.383 . S
C901 C897 1.495 . S
C901 H907 0.959 . S
C901 H908 0.961 . S
C901 H909 0.960 . S
C902 C900 1.381 . S
C902 C903 1.394 . S
C902 H910 0.930 . S
C903 C902 1.394 . S
C903 C904 1.383 . S
C903 H911 0.929 . S
C904 C903 1.383 . S
C904 C905 1.377 . S
C905 H889 0.930 . S
C905 C904 1.377 . S
C905 C906 1.379 . S
C906 H890 0.931 . S
C906 C900 1.383 . S
C906 C905 1.379 . S
H907 C901 0.959 . S
H908 C901 0.961 . S
H909 C901 0.960 . S
H910 C902 0.930 . S
H911 C903 0.929 . S
H912 C920 0.929 . S
H913 C922 0.930 . S
H914 C924 0.930 . S
H915 C927 0.929 . S
H916 C930 0.930 . S
H917 C932 0.960 . S
H918 C932 0.960 . S
H919 C932 0.960 . S
C920 H912 0.929 . S
C920 C921 1.377 . S
C920 C922 1.384 . S
C921 C920 1.377 . S
C921 C927 1.390 . S
C922 H913 0.930 . S
C922 C920 1.384 . S
C922 C923 1.372 . S
C923 C922 1.372 . S
C923 C924 1.400 . S
C923 C928 1.490 . S
C924 H914 0.930 . S
C924 C923 1.400 . S
C924 C927 1.386 . S
H925 C941 0.930 . S
H926 C942 0.931 . S
C927 H915 0.929 . S
C927 C921 1.390 . S
C927 C924 1.386 . S
C928 C923 1.490 . S
C928 C930 1.395 . S
C928 C931 1.403 . S
H929 C935 0.930 . S
C930 H916 0.930 . S
C930 C928 1.395 . S
C930 C933 1.403 . S
C931 C928 1.403 . S
C931 C932 1.524 . S
C931 C935 1.400 . S
C932 H917 0.960 . S
C932 H918 0.960 . S
C932 H919 0.960 . S
C932 C931 1.524 . S
C933 C930 1.403 . S
C933 C934 1.392 . S
C933 C937 1.495 . S
C934 C933 1.392 . S
C934 C935 1.385 . S
C934 C936 1.478 . S
C935 H929 0.930 . S
C935 C931 1.400 . S
C935 C934 1.385 . S
C936 C934 1.478 . S
C936 C938 1.381 . S
C936 C942 1.383 . S
C937 C933 1.495 . S
C937 H943 0.959 . S
C937 H944 0.961 . S
C937 H945 0.960 . S
C938 C936 1.381 . S
C938 C939 1.394 . S
C938 H946 0.930 . S
C939 C938 1.394 . S
C939 C940 1.383 . S
C939 H947 0.929 . S
C940 C939 1.383 . S
C940 C941 1.377 . S
C941 H925 0.930 . S
C941 C940 1.377 . S
C941 C942 1.379 . S
C942 H926 0.931 . S
C942 C936 1.383 . S
C942 C941 1.379 . S
H943 C937 0.959 . S
H944 C937 0.961 . S
H945 C937 0.960 . S
H946 C938 0.930 . S
H947 C939 0.929 . S
H948 C956 0.929 . S
H949 C958 0.930 . S
H950 C960 0.930 . S
H951 C963 0.929 . S
H952 C966 0.930 . S
H953 C968 0.960 . S
H954 C968 0.960 . S
H955 C968 0.960 . S
C956 H948 0.929 . S
C956 C957 1.377 . S
C956 C958 1.384 . S
C957 C956 1.377 . S
C957 C963 1.390 . S
C958 H949 0.930 . S
C958 C956 1.384 . S
C958 C959 1.372 . S
C959 C958 1.372 . S
C959 C960 1.400 . S
C959 C964 1.490 . S
C960 H950 0.930 . S
C960 C959 1.400 . S
C960 C963 1.386 . S
H961 C977 0.930 . S
H962 C978 0.931 . S
C963 H951 0.929 . S
C963 C957 1.390 . S
C963 C960 1.386 . S
C964 C959 1.490 . S
C964 C966 1.395 . S
C964 C967 1.403 . S
H965 C971 0.930 . S
C966 H952 0.930 . S
C966 C964 1.395 . S
C966 C969 1.403 . S
C967 C964 1.403 . S
C967 C968 1.524 . S
C967 C971 1.400 . S
C968 H953 0.960 . S
C968 H954 0.960 . S
C968 H955 0.960 . S
C968 C967 1.524 . S
C969 C966 1.403 . S
C969 C970 1.392 . S
C969 C973 1.495 . S
C970 C969 1.392 . S
C970 C971 1.385 . S
C970 C972 1.478 . S
C971 H965 0.930 . S
C971 C967 1.400 . S
C971 C970 1.385 . S
C972 C970 1.478 . S
C972 C974 1.381 . S
C972 C978 1.383 . S
C973 C969 1.495 . S
C973 H979 0.959 . S
C973 H980 0.961 . S
C973 H981 0.960 . S
C974 C972 1.381 . S
C974 C975 1.394 1_554 S
C974 H982 0.930 . S
C975 C974 1.394 1_556 S
C975 C976 1.383 . S
C975 H983 0.929 . S
C976 C975 1.383 . S
C976 C977 1.377 . S
C977 H961 0.930 . S
C977 C976 1.377 . S
C977 C978 1.379 1_556 S
C978 H962 0.931 . S
C978 C972 1.383 . S
C978 C977 1.379 1_554 S
H979 C973 0.959 . S
H980 C973 0.961 . S
H981 C973 0.960 . S
H982 C974 0.930 . S
H983 C975 0.929 . S
H984 C992 0.929 . S
H985 C994 0.930 . S
H986 C996 0.930 . S
H987 C999 0.929 . S
H988 C1002 0.930 . S
H989 C1004 0.960 . S
H990 C1004 0.960 . S
H991 C1004 0.960 . S
C992 H984 0.929 . S
C992 C993 1.377 . S
C992 C994 1.384 . S
C993 C992 1.377 . S
C993 C999 1.390 . S
C994 H985 0.930 . S
C994 C992 1.384 . S
C994 C995 1.372 . S
C995 C994 1.372 . S
C995 C996 1.400 . S
C995 C1000 1.490 . S
C996 H986 0.930 . S
C996 C995 1.400 . S
C996 C999 1.386 . S
H997 C1013 0.930 . S
H998 C1014 0.931 . S
C999 H987 0.929 . S
C999 C993 1.390 . S
C999 C996 1.386 . S
C1000 C995 1.490 . S
C1000 C1002 1.395 . S
C1000 C1003 1.403 . S
H1001 C1007 0.930 . S
C1002 H988 0.930 . S
C1002 C1000 1.395 . S
C1002 C1005 1.403 . S
C1003 C1000 1.403 . S
C1003 C1004 1.524 . S
C1003 C1007 1.400 . S
C1004 H989 0.960 . S
C1004 H990 0.960 . S
C1004 H991 0.960 . S
C1004 C1003 1.524 . S
C1005 C1002 1.403 . S
C1005 C1006 1.392 . S
C1005 C1009 1.495 . S
C1006 C1005 1.392 . S
C1006 C1007 1.385 . S
C1006 C1008 1.478 . S
C1007 H1001 0.930 . S
C1007 C1003 1.400 . S
C1007 C1006 1.385 . S
C1008 C1006 1.478 . S
C1008 C1010 1.381 . S
C1008 C1014 1.383 . S
C1009 C1005 1.495 . S
C1009 H1015 0.959 . S
C1009 H1016 0.961 . S
C1009 H1017 0.960 . S
C1010 C1008 1.381 . S
C1010 C1011 1.394 . S
C1010 H1018 0.930 . S
C1011 C1010 1.394 . S
C1011 C1012 1.383 . S
C1011 H1019 0.929 . S
C1012 C1011 1.383 . S
C1012 C1013 1.377 . S
C1013 H997 0.930 . S
C1013 C1012 1.377 . S
C1013 C1014 1.379 . S
C1014 H998 0.931 . S
C1014 C1008 1.383 . S
C1014 C1013 1.379 . S
H1015 C1009 0.959 . S
H1016 C1009 0.961 . S
H1017 C1009 0.960 . S
H1018 C1010 0.930 . S
H1019 C1011 0.929 . S
H1020 C1028 0.929 . S
H1021 C1030 0.930 . S
H1022 C1032 0.930 1_556 S
H1023 C1035 0.929 . S
H1024 C1038 0.931 1_654 S
H1025 C1040 0.960 . S
H1026 C1040 0.960 . S
H1027 C1040 0.960 . S
C1028 H1020 0.929 . S
C1028 C1029 1.377 . S
C1028 C1030 1.384 . S
C1029 C1028 1.377 . S
C1029 C1035 1.390 . S
C1030 H1021 0.930 . S
C1030 C1028 1.384 . S
C1030 C1031 1.372 . S
C1031 C1030 1.372 . S
C1031 C1032 1.400 . S
C1031 C1036 1.490 1_554 S
C1032 H1022 0.930 1_554 S
C1032 C1031 1.400 . S
C1032 C1035 1.386 . S
H1033 C1049 0.930 . S
H1034 C1050 0.931 . S
C1035 H1023 0.929 . S
C1035 C1029 1.390 . S
C1035 C1032 1.386 . S
C1036 C1031 1.490 1_556 S
C1036 C1038 1.395 . S
C1036 C1039 1.403 . S
H1037 C1043 0.930 . S
C1038 H1024 0.931 1_456 S
C1038 C1036 1.395 . S
C1038 C1041 1.403 1_455 S
C1039 C1036 1.403 . S
C1039 C1040 1.524 . S
C1039 C1043 1.400 . S
C1040 H1025 0.960 . S
C1040 H1026 0.960 . S
C1040 H1027 0.960 . S
C1040 C1039 1.524 . S
C1041 C1038 1.403 1_655 S
C1041 C1042 1.392 . S
C1041 C1045 1.495 . S
C1042 C1041 1.392 . S
C1042 C1043 1.385 1_655 S
C1042 C1044 1.478 . S
C1043 H1037 0.930 . S
C1043 C1039 1.400 . S
C1043 C1042 1.385 1_455 S
C1044 C1042 1.478 . S
C1044 C1046 1.381 . S
C1044 C1050 1.383 . S
C1045 C1041 1.495 . S
C1045 H1051 0.959 . S
C1045 H1052 0.961 . S
C1045 H1053 0.960 . S
C1046 C1044 1.381 . S
C1046 C1047 1.394 . S
C1046 H1054 0.930 . S
C1047 C1046 1.394 . S
C1047 C1048 1.383 . S
C1047 H1055 0.929 . S
C1048 C1047 1.383 . S
C1048 C1049 1.377 . S
C1049 H1033 0.930 . S
C1049 C1048 1.377 . S
C1049 C1050 1.379 . S
C1050 H1034 0.931 . S
C1050 C1044 1.383 . S
C1050 C1049 1.379 . S
H1051 C1045 0.959 . S
H1052 C1045 0.961 . S
H1053 C1045 0.960 . S
H1054 C1046 0.930 . S
H1055 C1047 0.929 . S
H1056 C1064 0.929 . S
H1057 C1066 0.930 . S
H1058 C1068 0.930 . S
H1059 C1071 0.929 . S
H1060 C1074 0.930 . S
H1061 C1076 0.960 . S
H1062 C1076 0.960 . S
H1063 C1076 0.960 . S
C1064 H1056 0.929 . S
C1064 C1065 1.377 . S
C1064 C1066 1.384 . S
C1065 C1064 1.377 . S
C1065 C1071 1.390 . S
C1066 H1057 0.930 . S
C1066 C1064 1.384 . S
C1066 C1067 1.372 . S
C1067 C1066 1.372 . S
C1067 C1068 1.400 . S
C1067 C1072 1.490 . S
C1068 H1058 0.930 . S
C1068 C1067 1.400 . S
C1068 C1071 1.386 . S
H1069 C1085 0.930 . S
H1070 C1086 0.931 . S
C1071 H1059 0.929 . S
C1071 C1065 1.390 . S
C1071 C1068 1.386 . S
C1072 C1067 1.490 . S
C1072 C1074 1.395 . S
C1072 C1075 1.403 . S
H1073 C1079 0.930 . S
C1074 H1060 0.930 . S
C1074 C1072 1.395 . S
C1074 C1077 1.403 . S
C1075 C1072 1.403 . S
C1075 C1076 1.524 . S
C1075 C1079 1.400 . S
C1076 H1061 0.960 . S
C1076 H1062 0.960 . S
C1076 H1063 0.960 . S
C1076 C1075 1.524 . S
C1077 C1074 1.403 . S
C1077 C1078 1.392 . S
C1077 C1081 1.495 . S
C1078 C1077 1.392 . S
C1078 C1079 1.385 . S
C1078 C1080 1.478 . S
C1079 H1073 0.930 . S
C1079 C1075 1.400 . S
C1079 C1078 1.385 . S
C1080 C1078 1.478 . S
C1080 C1082 1.381 . S
C1080 C1086 1.383 . S
C1081 C1077 1.495 . S
C1081 H1087 0.959 . S
C1081 H1088 0.961 . S
C1081 H1089 0.960 . S
C1082 C1080 1.381 . S
C1082 C1083 1.394 . S
C1082 H1090 0.930 . S
C1083 C1082 1.394 . S
C1083 C1084 1.383 . S
C1083 H1091 0.929 . S
C1084 C1083 1.383 . S
C1084 C1085 1.377 . S
C1085 H1069 0.930 . S
C1085 C1084 1.377 . S
C1085 C1086 1.379 . S
C1086 H1070 0.931 . S
C1086 C1080 1.383 . S
C1086 C1085 1.379 . S
H1087 C1081 0.959 . S
H1088 C1081 0.961 . S
H1089 C1081 0.960 . S
H1090 C1082 0.930 . S
H1091 C1083 0.929 . S
H1092 C1100 0.929 . S
H1093 C1102 0.930 . S
H1094 C1104 0.930 . S
H1095 C1107 0.929 . S
H1096 C1110 0.930 . S
H1097 C1112 0.960 . S
H1098 C1112 0.960 . S
H1099 C1112 0.960 . S
C1100 H1092 0.929 . S
C1100 C1101 1.377 . S
C1100 C1102 1.384 . S
C1101 C1100 1.377 . S
C1101 C1107 1.390 . S
C1102 H1093 0.930 . S
C1102 C1100 1.384 . S
C1102 C1103 1.372 . S
C1103 C1102 1.372 . S
C1103 C1104 1.400 . S
C1103 C1108 1.490 . S
C1104 H1094 0.930 . S
C1104 C1103 1.400 . S
C1104 C1107 1.386 . S
H1105 C1121 0.930 . S
H1106 C1122 0.931 . S
C1107 H1095 0.929 . S
C1107 C1101 1.390 . S
C1107 C1104 1.386 . S
C1108 C1103 1.490 . S
C1108 C1110 1.395 . S
C1108 C1111 1.403 . S
H1109 C1115 0.930 . S
C1110 H1096 0.930 . S
C1110 C1108 1.395 . S
C1110 C1113 1.403 . S
C1111 C1108 1.403 . S
C1111 C1112 1.524 . S
C1111 C1115 1.400 . S
C1112 H1097 0.960 . S
C1112 H1098 0.960 . S
C1112 H1099 0.960 . S
C1112 C1111 1.524 . S
C1113 C1110 1.403 . S
C1113 C1114 1.392 . S
C1113 C1117 1.495 . S
C1114 C1113 1.392 . S
C1114 C1115 1.385 . S
C1114 C1116 1.478 . S
C1115 H1109 0.930 . S
C1115 C1111 1.400 . S
C1115 C1114 1.385 . S
C1116 C1114 1.478 . S
C1116 C1118 1.381 . S
C1116 C1122 1.383 . S
C1117 C1113 1.495 . S
C1117 H1123 0.959 . S
C1117 H1124 0.961 . S
C1117 H1125 0.960 . S
C1118 C1116 1.381 . S
C1118 C1119 1.394 . S
C1118 H1126 0.930 . S
C1119 C1118 1.394 . S
C1119 C1120 1.383 . S
C1119 H1127 0.929 . S
C1120 C1119 1.383 . S
C1120 C1121 1.377 . S
C1121 H1105 0.930 . S
C1121 C1120 1.377 . S
C1121 C1122 1.379 . S
C1122 H1106 0.931 . S
C1122 C1116 1.383 . S
C1122 C1121 1.379 . S
H1123 C1117 0.959 . S
H1124 C1117 0.961 . S
H1125 C1117 0.960 . S
H1126 C1118 0.930 . S
H1127 C1119 0.929 . S
H1128 C1136 0.929 . S
H1129 C1138 0.930 . S
H1130 C1140 0.930 . S
H1131 C1143 0.929 . S
H1132 C1146 0.930 . S
H1133 C1148 0.960 . S
H1134 C1148 0.960 . S
H1135 C1148 0.960 . S
C1136 H1128 0.929 . S
C1136 C1137 1.377 . S
C1136 C1138 1.384 . S
C1137 C1136 1.377 . S
C1137 C1143 1.390 . S
C1138 H1129 0.930 . S
C1138 C1136 1.384 . S
C1138 C1139 1.372 . S
C1139 C1138 1.372 . S
C1139 C1140 1.400 . S
C1139 C1144 1.490 . S
C1140 H1130 0.930 . S
C1140 C1139 1.400 . S
C1140 C1143 1.386 . S
H1141 C1157 0.930 . S
H1142 C1158 0.931 . S
C1143 H1131 0.929 . S
C1143 C1137 1.390 . S
C1143 C1140 1.386 . S
C1144 C1139 1.490 . S
C1144 C1146 1.395 . S
C1144 C1147 1.403 . S
H1145 C1151 0.930 . S
C1146 H1132 0.930 . S
C1146 C1144 1.395 . S
C1146 C1149 1.403 . S
C1147 C1144 1.403 . S
C1147 C1148 1.524 . S
C1147 C1151 1.400 . S
C1148 H1133 0.960 . S
C1148 H1134 0.960 . S
C1148 H1135 0.960 . S
C1148 C1147 1.524 . S
C1149 C1146 1.403 . S
C1149 C1150 1.392 . S
C1149 C1153 1.495 . S
C1150 C1149 1.392 . S
C1150 C1151 1.385 . S
C1150 C1152 1.478 . S
C1151 H1145 0.930 . S
C1151 C1147 1.400 . S
C1151 C1150 1.385 . S
C1152 C1150 1.478 . S
C1152 C1154 1.381 . S
C1152 C1158 1.383 . S
C1153 C1149 1.495 . S
C1153 H1159 0.959 . S
C1153 H1160 0.961 . S
C1153 H1161 0.960 . S
C1154 C1152 1.381 . S
C1154 C1155 1.394 . S
C1154 H1162 0.930 . S
C1155 C1154 1.394 . S
C1155 C1156 1.383 . S
C1155 H1163 0.929 . S
C1156 C1155 1.383 . S
C1156 C1157 1.377 . S
C1157 H1141 0.930 . S
C1157 C1156 1.377 . S
C1157 C1158 1.379 . S
C1158 H1142 0.931 . S
C1158 C1152 1.383 . S
C1158 C1157 1.379 . S
H1159 C1153 0.959 . S
H1160 C1153 0.961 . S
H1161 C1153 0.960 . S
H1162 C1154 0.930 . S
H1163 C1155 0.929 . S
H1164 C1172 0.929 . S
H1165 C1174 0.930 . S
H1166 C1176 0.930 . S
H1167 C1179 0.929 . S
H1168 C1182 0.930 . S
H1169 C1184 0.960 . S
H1170 C1184 0.960 . S
H1171 C1184 0.960 . S
C1172 H1164 0.929 . S
C1172 C1173 1.377 . S
C1172 C1174 1.384 . S
C1173 C1172 1.377 . S
C1173 C1179 1.390 . S
C1174 H1165 0.930 . S
C1174 C1172 1.384 . S
C1174 C1175 1.372 . S
C1175 C1174 1.372 . S
C1175 C1176 1.400 . S
C1175 C1180 1.490 . S
C1176 H1166 0.930 . S
C1176 C1175 1.400 . S
C1176 C1179 1.386 . S
H1177 C1193 0.930 . S
H1178 C1194 0.931 . S
C1179 H1167 0.929 . S
C1179 C1173 1.390 . S
C1179 C1176 1.386 . S
C1180 C1175 1.490 . S
C1180 C1182 1.395 . S
C1180 C1183 1.403 . S
H1181 C1187 0.930 . S
C1182 H1168 0.930 . S
C1182 C1180 1.395 . S
C1182 C1185 1.403 . S
C1183 C1180 1.403 . S
C1183 C1184 1.524 . S
C1183 C1187 1.400 . S
C1184 H1169 0.960 . S
C1184 H1170 0.960 . S
C1184 H1171 0.960 . S
C1184 C1183 1.524 . S
C1185 C1182 1.403 . S
C1185 C1186 1.392 . S
C1185 C1189 1.495 1_545 S
C1186 C1185 1.392 . S
C1186 C1187 1.385 . S
C1186 C1188 1.478 1_545 S
C1187 H1181 0.930 . S
C1187 C1183 1.400 . S
C1187 C1186 1.385 . S
C1188 C1186 1.478 1_565 S
C1188 C1190 1.381 . S
C1188 C1194 1.383 . S
C1189 C1185 1.495 1_565 S
C1189 H1195 0.959 . S
C1189 H1196 0.961 . S
C1189 H1197 0.960 . S
C1190 C1188 1.381 . S
C1190 C1191 1.394 . S
C1190 H1198 0.930 . S
C1191 C1190 1.394 . S
C1191 C1192 1.383 . S
C1191 H1199 0.929 . S
C1192 C1191 1.383 . S
C1192 C1193 1.377 . S
C1193 H1177 0.930 . S
C1193 C1192 1.377 . S
C1193 C1194 1.379 . S
C1194 H1178 0.931 . S
C1194 C1188 1.383 . S
C1194 C1193 1.379 . S
H1195 C1189 0.959 . S
H1196 C1189 0.961 . S
H1197 C1189 0.960 . S
H1198 C1190 0.930 . S
H1199 C1191 0.929 . S
H1200 C1208 0.929 . S
H1201 C1210 0.930 . S
H1202 C1212 0.930 . S
H1203 C1215 0.929 . S
H1204 C1218 0.930 . S
H1205 C1220 0.960 . S
H1206 C1220 0.960 . S
H1207 C1220 0.960 . S
C1208 H1200 0.929 . S
C1208 C1209 1.377 . S
C1208 C1210 1.384 . S
C1209 C1208 1.377 . S
C1209 C1215 1.390 . S
C1210 H1201 0.930 . S
C1210 C1208 1.384 . S
C1210 C1211 1.372 . S
C1211 C1210 1.372 . S
C1211 C1212 1.400 . S
C1211 C1216 1.490 . S
C1212 H1202 0.930 . S
C1212 C1211 1.400 . S
C1212 C1215 1.386 . S
H1213 C1229 0.930 . S
H1214 C1230 0.931 . S
C1215 H1203 0.929 . S
C1215 C1209 1.390 . S
C1215 C1212 1.386 . S
C1216 C1211 1.490 . S
C1216 C1218 1.395 . S
C1216 C1219 1.403 . S
H1217 C1223 0.930 . S
C1218 H1204 0.930 . S
C1218 C1216 1.395 . S
C1218 C1221 1.403 . S
C1219 C1216 1.403 . S
C1219 C1220 1.524 . S
C1219 C1223 1.400 . S
C1220 H1205 0.960 . S
C1220 H1206 0.960 . S
C1220 H1207 0.960 . S
C1220 C1219 1.524 . S
C1221 C1218 1.403 . S
C1221 C1222 1.392 . S
C1221 C1225 1.495 . S
C1222 C1221 1.392 . S
C1222 C1223 1.385 . S
C1222 C1224 1.478 . S
C1223 H1217 0.930 . S
C1223 C1219 1.400 . S
C1223 C1222 1.385 . S
C1224 C1222 1.478 . S
C1224 C1226 1.381 . S
C1224 C1230 1.383 . S
C1225 C1221 1.495 . S
C1225 H1231 0.959 . S
C1225 H1232 0.961 . S
C1225 H1233 0.960 . S
C1226 C1224 1.381 . S
C1226 C1227 1.394 . S
C1226 H1234 0.930 . S
C1227 C1226 1.394 . S
C1227 C1228 1.383 . S
C1227 H1235 0.929 . S
C1228 C1227 1.383 . S
C1228 C1229 1.377 . S
C1229 H1213 0.930 . S
C1229 C1228 1.377 . S
C1229 C1230 1.379 . S
C1230 H1214 0.931 . S
C1230 C1224 1.383 . S
C1230 C1229 1.379 . S
H1231 C1225 0.959 . S
H1232 C1225 0.961 . S
H1233 C1225 0.960 . S
H1234 C1226 0.930 . S
H1235 C1227 0.929 . S
H1236 C1244 0.929 . S
H1237 C1246 0.930 . S
H1238 C1248 0.930 1_565 S
H1239 C1251 0.929 . S
H1240 C1254 0.930 1_545 S
H1241 C1256 0.960 . S
H1242 C1256 0.960 . S
H1243 C1256 0.960 . S
C1244 H1236 0.929 . S
C1244 C1245 1.377 . S
C1244 C1246 1.384 . S
C1245 C1244 1.377 . S
C1245 C1251 1.390 . S
C1246 H1237 0.930 . S
C1246 C1244 1.384 . S
C1246 C1247 1.372 . S
C1247 C1246 1.372 . S
C1247 C1248 1.400 . S
C1247 C1252 1.490 1_545 S
C1248 H1238 0.930 1_545 S
C1248 C1247 1.400 . S
C1248 C1251 1.386 . S
H1249 C1265 0.930 . S
H1250 C1266 0.931 . S
C1251 H1239 0.929 . S
C1251 C1245 1.390 . S
C1251 C1248 1.386 . S
C1252 C1247 1.490 1_565 S
C1252 C1254 1.395 . S
C1252 C1255 1.403 . S
H1253 C1259 0.930 . S
C1254 H1240 0.930 1_565 S
C1254 C1252 1.395 . S
C1254 C1257 1.403 . S
C1255 C1252 1.403 . S
C1255 C1256 1.524 . S
C1255 C1259 1.400 . S
C1256 H1241 0.960 . S
C1256 H1242 0.960 . S
C1256 H1243 0.960 . S
C1256 C1255 1.524 . S
C1257 C1254 1.403 . S
C1257 C1258 1.392 . S
C1257 C1261 1.495 . S
C1258 C1257 1.392 . S
C1258 C1259 1.385 . S
C1258 C1260 1.478 . S
C1259 H1253 0.930 . S
C1259 C1255 1.400 . S
C1259 C1258 1.385 . S
C1260 C1258 1.478 . S
C1260 C1262 1.381 . S
C1260 C1266 1.383 . S
C1261 C1257 1.495 . S
C1261 H1267 0.959 . S
C1261 H1268 0.961 . S
C1261 H1269 0.960 . S
C1262 C1260 1.381 . S
C1262 C1263 1.394 . S
C1262 H1270 0.930 . S
C1263 C1262 1.394 . S
C1263 C1264 1.383 . S
C1263 H1271 0.964 . S
C1264 C1263 1.383 . S
C1264 C1265 1.377 . S
C1265 H1249 0.930 . S
C1265 C1264 1.377 . S
C1265 C1266 1.379 . S
C1266 H1250 0.931 . S
C1266 C1260 1.383 . S
C1266 C1265 1.379 . S
H1267 C1261 0.959 . S
H1268 C1261 0.961 . S
H1269 C1261 0.960 . S
H1270 C1262 0.930 . S
H1271 C1263 0.964 . S
H1272 C1280 0.929 . S
H1273 C1282 0.930 . S
H1274 C1284 0.930 . S
H1275 C1287 0.929 . S
H1276 C1290 0.930 . S
H1277 C1292 0.960 . S
H1278 C1292 0.960 . S
H1279 C1292 0.960 . S
C1280 H1272 0.929 . S
C1280 C1281 1.377 . S
C1280 C1282 1.384 . S
C1281 C1280 1.377 . S
C1281 C1287 1.390 . S
C1282 H1273 0.930 . S
C1282 C1280 1.384 . S
C1282 C1283 1.372 . S
C1283 C1282 1.372 . S
C1283 C1284 1.400 . S
C1283 C1288 1.490 . S
C1284 H1274 0.930 . S
C1284 C1283 1.400 . S
C1284 C1287 1.386 . S
H1285 C1301 0.930 . S
H1286 C1302 0.931 . S
C1287 H1275 0.929 . S
C1287 C1281 1.390 . S
C1287 C1284 1.386 . S
C1288 C1283 1.490 . S
C1288 C1290 1.395 . S
C1288 C1291 1.403 . S
H1289 C1295 0.930 . S
C1290 H1276 0.930 . S
C1290 C1288 1.395 . S
C1290 C1293 1.403 . S
C1291 C1288 1.403 . S
C1291 C1292 1.524 . S
C1291 C1295 1.400 . S
C1292 H1277 0.960 . S
C1292 H1278 0.960 . S
C1292 H1279 0.960 . S
C1292 C1291 1.524 . S
C1293 C1290 1.403 . S
C1293 C1294 1.392 . S
C1293 C1297 1.495 . S
C1294 C1293 1.392 . S
C1294 C1295 1.385 . S
C1294 C1296 1.478 . S
C1295 H1289 0.930 . S
C1295 C1291 1.400 . S
C1295 C1294 1.385 . S
C1296 C1294 1.478 . S
C1296 C1298 1.381 . S
C1296 C1302 1.383 . S
C1297 C1293 1.495 . S
C1297 H1303 0.959 . S
C1297 H1304 0.961 . S
C1297 H1305 0.960 . S
C1298 C1296 1.381 . S
C1298 C1299 1.394 . S
C1298 H1306 0.930 . S
C1299 C1298 1.394 . S
C1299 C1300 1.383 . S
C1299 H1307 0.929 . S
C1300 C1299 1.383 . S
C1300 C1301 1.377 . S
C1301 H1285 0.930 . S
C1301 C1300 1.377 . S
C1301 C1302 1.379 . S
C1302 H1286 0.931 . S
C1302 C1296 1.383 . S
C1302 C1301 1.379 . S
H1303 C1297 0.959 . S
H1304 C1297 0.961 . S
H1305 C1297 0.960 . S
H1306 C1298 0.930 . S
H1307 C1299 0.929 . S
H1308 C1316 0.929 . S
H1309 C1318 0.930 . S
H1310 C1320 0.930 . S
H1311 C1323 0.929 . S
H1312 C1326 0.930 . S
H1313 C1328 0.960 . S
H1314 C1328 0.960 . S
H1315 C1328 0.960 . S
C1316 H1308 0.929 . S
C1316 C1317 1.377 . S
C1316 C1318 1.384 . S
C1317 C1316 1.377 . S
C1317 C1323 1.390 . S
C1318 H1309 0.930 . S
C1318 C1316 1.384 . S
C1318 C1319 1.372 . S
C1319 C1318 1.372 . S
C1319 C1320 1.400 . S
C1319 C1324 1.490 . S
C1320 H1310 0.930 . S
C1320 C1319 1.400 . S
C1320 C1323 1.386 . S
H1321 C1337 0.930 . S
H1322 C1338 0.931 . S
C1323 H1311 0.929 . S
C1323 C1317 1.390 . S
C1323 C1320 1.386 . S
C1324 C1319 1.490 . S
C1324 C1326 1.395 . S
C1324 C1327 1.403 . S
H1325 C1331 0.930 . S
C1326 H1312 0.930 . S
C1326 C1324 1.395 . S
C1326 C1329 1.403 . S
C1327 C1324 1.403 . S
C1327 C1328 1.524 . S
C1327 C1331 1.400 . S
C1328 H1313 0.960 . S
C1328 H1314 0.960 . S
C1328 H1315 0.960 . S
C1328 C1327 1.524 . S
C1329 C1326 1.403 . S
C1329 C1330 1.392 . S
C1329 C1333 1.495 . S
C1330 C1329 1.392 . S
C1330 C1331 1.385 . S
C1330 C1332 1.478 . S
C1331 H1325 0.930 . S
C1331 C1327 1.400 . S
C1331 C1330 1.385 . S
C1332 C1330 1.478 . S
C1332 C1334 1.381 . S
C1332 C1338 1.383 . S
C1333 C1329 1.495 . S
C1333 H1339 0.959 . S
C1333 H1340 0.961 . S
C1333 H1341 0.960 . S
C1334 C1332 1.381 . S
C1334 C1335 1.394 . S
C1334 H1342 0.930 . S
C1335 C1334 1.394 . S
C1335 C1336 1.383 . S
C1335 H1343 0.929 . S
C1336 C1335 1.383 . S
C1336 C1337 1.377 . S
C1337 H1321 0.930 . S
C1337 C1336 1.377 . S
C1337 C1338 1.379 . S
C1338 H1322 0.931 . S
C1338 C1332 1.383 . S
C1338 C1337 1.379 . S
H1339 C1333 0.959 . S
H1340 C1333 0.961 . S
H1341 C1333 0.960 . S
H1342 C1334 0.930 . S
H1343 C1335 0.929 . S
H1344 C1352 0.929 . S
H1345 C1354 0.930 . S
H1346 C1356 0.930 . S
H1347 C1359 0.929 . S
H1348 C1362 0.930 . S
H1349 C1364 0.960 . S
H1350 C1364 0.960 . S
H1351 C1364 0.960 . S
C1352 H1344 0.929 . S
C1352 C1353 1.377 . S
C1352 C1354 1.384 . S
C1353 C1352 1.377 . S
C1353 C1359 1.390 . S
C1354 H1345 0.930 . S
C1354 C1352 1.384 . S
C1354 C1355 1.372 . S
C1355 C1354 1.372 . S
C1355 C1356 1.400 . S
C1355 C1360 1.490 . S
C1356 H1346 0.930 . S
C1356 C1355 1.400 . S
C1356 C1359 1.386 . S
H1357 C1373 0.930 . S
H1358 C1374 0.931 . S
C1359 H1347 0.929 . S
C1359 C1353 1.390 . S
C1359 C1356 1.386 . S
C1360 C1355 1.490 . S
C1360 C1362 1.395 . S
C1360 C1363 1.403 . S
H1361 C1367 0.930 . S
C1362 H1348 0.930 . S
C1362 C1360 1.395 . S
C1362 C1365 1.403 . S
C1363 C1360 1.403 . S
C1363 C1364 1.524 . S
C1363 C1367 1.400 . S
C1364 H1349 0.960 . S
C1364 H1350 0.960 . S
C1364 H1351 0.960 . S
C1364 C1363 1.524 . S
C1365 C1362 1.403 . S
C1365 C1366 1.392 . S
C1365 C1369 1.495 . S
C1366 C1365 1.392 . S
C1366 C1367 1.385 . S
C1366 C1368 1.478 . S
C1367 H1361 0.930 . S
C1367 C1363 1.400 . S
C1367 C1366 1.385 . S
C1368 C1366 1.478 . S
C1368 C1370 1.381 . S
C1368 C1374 1.383 . S
C1369 C1365 1.495 . S
C1369 H1375 0.959 . S
C1369 H1376 0.961 . S
C1369 H1377 0.960 . S
C1370 C1368 1.381 . S
C1370 C1371 1.394 . S
C1370 H1378 0.930 . S
C1371 C1370 1.394 . S
C1371 C1372 1.383 . S
C1371 H1379 0.929 . S
C1372 C1371 1.383 . S
C1372 C1373 1.377 . S
C1373 H1357 0.930 . S
C1373 C1372 1.377 . S
C1373 C1374 1.379 . S
C1374 H1358 0.931 . S
C1374 C1368 1.383 . S
C1374 C1373 1.379 . S
H1375 C1369 0.959 . S
H1376 C1369 0.961 . S
H1377 C1369 0.960 . S
H1378 C1370 0.930 . S
H1379 C1371 0.929 . S
H1380 C1388 0.929 . S
H1381 C1390 0.930 . S
H1382 C1392 0.930 . S
H1383 C1395 0.929 . S
H1384 C1398 0.930 . S
H1385 C1400 0.960 . S
H1386 C1400 0.960 . S
H1387 C1400 0.960 . S
C1388 H1380 0.929 . S
C1388 C1389 1.377 . S
C1388 C1390 1.384 . S
C1389 C1388 1.377 . S
C1389 C1395 1.390 . S
C1390 H1381 0.930 . S
C1390 C1388 1.384 . S
C1390 C1391 1.372 . S
C1391 C1390 1.372 . S
C1391 C1392 1.400 . S
C1391 C1396 1.490 . S
C1392 H1382 0.930 . S
C1392 C1391 1.400 . S
C1392 C1395 1.386 . S
H1393 C1409 0.930 . S
H1394 C1410 0.931 . S
C1395 H1383 0.929 . S
C1395 C1389 1.390 . S
C1395 C1392 1.386 . S
C1396 C1391 1.490 . S
C1396 C1398 1.395 . S
C1396 C1399 1.403 . S
H1397 C1403 0.930 . S
C1398 H1384 0.930 . S
C1398 C1396 1.395 . S
C1398 C1401 1.403 . S
C1399 C1396 1.403 . S
C1399 C1400 1.524 . S
C1399 C1403 1.400 . S
C1400 H1385 0.960 . S
C1400 H1386 0.960 . S
C1400 H1387 0.960 . S
C1400 C1399 1.524 . S
C1401 C1398 1.403 . S
C1401 C1402 1.392 . S
C1401 C1405 1.495 . S
C1402 C1401 1.392 . S
C1402 C1403 1.385 . S
C1402 C1404 1.478 . S
C1403 H1397 0.930 . S
C1403 C1399 1.400 . S
C1403 C1402 1.385 . S
C1404 C1402 1.478 . S
C1404 C1406 1.381 . S
C1404 C1410 1.383 . S
C1405 C1401 1.495 . S
C1405 H1411 0.959 . S
C1405 H1412 0.961 . S
C1405 H1413 0.960 . S
C1406 C1404 1.381 . S
C1406 C1407 1.394 . S
C1406 H1414 0.930 . S
C1407 C1406 1.394 . S
C1407 C1408 1.383 . S
C1407 H1415 0.929 . S
C1408 C1407 1.383 . S
C1408 C1409 1.377 . S
C1409 H1393 0.930 . S
C1409 C1408 1.377 . S
C1409 C1410 1.379 . S
C1410 H1394 0.931 . S
C1410 C1404 1.383 . S
C1410 C1409 1.379 . S
H1411 C1405 0.959 . S
H1412 C1405 0.961 . S
H1413 C1405 0.960 . S
H1414 C1406 0.930 . S
H1415 C1407 0.929 . S
H1416 C1424 0.929 . S
H1417 C1426 0.930 . S
H1418 C1428 0.930 . S
H1419 C1431 0.929 . S
H1420 C1434 0.930 . S
H1421 C1436 0.960 . S
H1422 C1436 0.960 . S
H1423 C1436 0.960 . S
C1424 H1416 0.929 . S
C1424 C1425 1.377 . S
C1424 C1426 1.384 . S
C1425 C1424 1.377 . S
C1425 C1431 1.390 . S
C1426 H1417 0.930 . S
C1426 C1424 1.384 . S
C1426 C1427 1.372 . S
C1427 C1426 1.372 . S
C1427 C1428 1.400 . S
C1427 C1432 1.490 . S
C1428 H1418 0.930 . S
C1428 C1427 1.400 . S
C1428 C1431 1.386 . S
H1429 C1445 0.930 . S
H1430 C1446 0.931 . S
C1431 H1419 0.929 . S
C1431 C1425 1.390 . S
C1431 C1428 1.386 . S
C1432 C1427 1.490 . S
C1432 C1434 1.395 . S
C1432 C1435 1.403 . S
H1433 C1439 0.930 . S
C1434 H1420 0.930 . S
C1434 C1432 1.395 . S
C1434 C1437 1.403 . S
C1435 C1432 1.403 . S
C1435 C1436 1.524 . S
C1435 C1439 1.400 . S
C1436 H1421 0.960 . S
C1436 H1422 0.960 . S
C1436 H1423 0.960 . S
C1436 C1435 1.524 . S
C1437 C1434 1.403 . S
C1437 C1438 1.392 . S
C1437 C1441 1.495 . S
C1438 C1437 1.392 . S
C1438 C1439 1.385 . S
C1438 C1440 1.478 . S
C1439 H1433 0.930 . S
C1439 C1435 1.400 . S
C1439 C1438 1.385 . S
C1440 C1438 1.478 . S
C1440 C1442 1.381 . S
C1440 C1446 1.383 . S
C1441 C1437 1.495 . S
C1441 H1447 0.959 . S
C1441 H1448 0.961 . S
C1441 H1449 0.960 . S
C1442 C1440 1.381 . S
C1442 C1443 1.394 . S
C1442 H1450 0.930 . S
C1443 C1442 1.394 . S
C1443 C1444 1.383 . S
C1443 H1451 0.929 . S
C1444 C1443 1.383 . S
C1444 C1445 1.377 . S
C1445 H1429 0.930 . S
C1445 C1444 1.377 . S
C1445 C1446 1.379 . S
C1446 H1430 0.931 . S
C1446 C1440 1.383 . S
C1446 C1445 1.379 . S
H1447 C1441 0.959 . S
H1448 C1441 0.961 . S
H1449 C1441 0.960 . S
H1450 C1442 0.930 . S
H1451 C1443 0.929 . S
H1452 C1460 0.929 . S
H1453 C1462 0.930 . S
H1454 C1464 0.930 . S
H1455 C1467 0.929 . S
H1456 C1470 0.930 . S
H1457 C1472 0.960 . S
H1458 C1472 0.960 . S
H1459 C1472 0.960 . S
C1460 H1452 0.929 . S
C1460 C1461 1.377 . S
C1460 C1462 1.384 . S
C1461 C1460 1.377 . S
C1461 C1467 1.390 . S
C1462 H1453 0.930 . S
C1462 C1460 1.384 . S
C1462 C1463 1.372 . S
C1463 C1462 1.372 . S
C1463 C1464 1.400 . S
C1463 C1468 1.490 . S
C1464 H1454 0.930 . S
C1464 C1463 1.400 . S
C1464 C1467 1.386 . S
H1465 C1481 0.930 . S
H1466 C1482 0.931 . S
C1467 H1455 0.929 . S
C1467 C1461 1.390 . S
C1467 C1464 1.386 . S
C1468 C1463 1.490 . S
C1468 C1470 1.395 . S
C1468 C1471 1.403 . S
H1469 C1475 0.930 . S
C1470 H1456 0.930 . S
C1470 C1468 1.395 . S
C1470 C1473 1.403 . S
C1471 C1468 1.403 . S
C1471 C1472 1.524 . S
C1471 C1475 1.400 . S
C1472 H1457 0.960 . S
C1472 H1458 0.960 . S
C1472 H1459 0.960 . S
C1472 C1471 1.524 . S
C1473 C1470 1.403 . S
C1473 C1474 1.392 . S
C1473 C1477 1.495 . S
C1474 C1473 1.392 . S
C1474 C1475 1.385 . S
C1474 C1476 1.478 . S
C1475 H1469 0.930 . S
C1475 C1471 1.400 . S
C1475 C1474 1.385 . S
C1476 C1474 1.478 . S
C1476 C1478 1.381 . S
C1476 C1482 1.383 . S
C1477 C1473 1.495 . S
C1477 H1483 0.959 . S
C1477 H1484 0.961 . S
C1477 H1485 0.960 . S
C1478 C1476 1.381 . S
C1478 C1479 1.394 . S
C1478 H1486 0.930 . S
C1479 C1478 1.394 . S
C1479 C1480 1.383 . S
C1479 H1487 0.929 . S
C1480 C1479 1.383 . S
C1480 C1481 1.377 . S
C1481 H1465 0.930 . S
C1481 C1480 1.377 . S
C1481 C1482 1.379 . S
C1482 H1466 0.931 . S
C1482 C1476 1.383 . S
C1482 C1481 1.379 . S
H1483 C1477 0.959 . S
H1484 C1477 0.961 . S
H1485 C1477 0.960 . S
H1486 C1478 0.930 . S
H1487 C1479 0.929 . S
H1488 C1496 0.929 . S
H1489 C1498 0.930 . S
H1490 C1500 0.930 . S
H1491 C1503 0.929 . S
H1492 C1506 0.930 . S
H1493 C1508 0.960 . S
H1494 C1508 0.960 . S
H1495 C1508 0.960 . S
C1496 H1488 0.929 . S
C1496 C1497 1.377 . S
C1496 C1498 1.384 . S
C1497 C1496 1.377 . S
C1497 C1503 1.390 . S
C1498 H1489 0.930 . S
C1498 C1496 1.384 . S
C1498 C1499 1.372 . S
C1499 C1498 1.372 . S
C1499 C1500 1.400 . S
C1499 C1504 1.490 . S
C1500 H1490 0.930 . S
C1500 C1499 1.400 . S
C1500 C1503 1.386 . S
H1501 C1517 0.930 . S
H1502 C1518 0.931 . S
C1503 H1491 0.929 . S
C1503 C1497 1.390 . S
C1503 C1500 1.386 . S
C1504 C1499 1.490 . S
C1504 C1506 1.395 . S
C1504 C1507 1.403 . S
H1505 C1511 0.930 1_655 S
C1506 H1492 0.930 . S
C1506 C1504 1.395 . S
C1506 C1509 1.403 . S
C1507 C1504 1.403 . S
C1507 C1508 1.524 . S
C1507 C1511 1.400 . S
C1508 H1493 0.960 . S
C1508 H1494 0.960 . S
C1508 H1495 0.960 . S
C1508 C1507 1.524 . S
C1509 C1506 1.403 . S
C1509 C1510 1.392 . S
C1509 C1513 1.495 . S
C1510 C1509 1.392 . S
C1510 C1511 1.385 . S
C1510 C1512 1.478 1_455 S
C1511 H1505 0.930 1_455 S
C1511 C1507 1.400 . S
C1511 C1510 1.385 . S
C1512 C1510 1.478 1_655 S
C1512 C1514 1.381 . S
C1512 C1518 1.383 . S
C1513 C1509 1.495 . S
C1513 H1519 0.959 . S
C1513 H1520 0.961 . S
C1513 H1521 0.960 . S
C1514 C1512 1.381 . S
C1514 C1515 1.394 . S
C1514 H1522 0.930 . S
C1515 C1514 1.394 . S
C1515 C1516 1.383 . S
C1515 H1523 0.929 . S
C1516 C1515 1.383 . S
C1516 C1517 1.377 . S
C1517 H1501 0.930 . S
C1517 C1516 1.377 . S
C1517 C1518 1.379 . S
C1518 H1502 0.931 . S
C1518 C1512 1.383 . S
C1518 C1517 1.379 . S
H1519 C1513 0.959 . S
H1520 C1513 0.961 . S
H1521 C1513 0.960 . S
H1522 C1514 0.930 . S
H1523 C1515 0.929 . S
H1524 C1532 0.929 . S
H1525 C1534 0.930 . S
H1526 C1536 0.930 . S
H1527 C1539 0.929 . S
H1528 C1542 0.930 . S
H1529 C1544 0.960 . S
H1530 C1544 0.960 . S
H1531 C1544 0.960 . S
C1532 H1524 0.929 . S
C1532 C1533 1.377 . S
C1532 C1534 1.384 . S
C1533 C1532 1.377 . S
C1533 C1539 1.390 . S
C1534 H1525 0.930 . S
C1534 C1532 1.384 . S
C1534 C1535 1.372 . S
C1535 C1534 1.372 . S
C1535 C1536 1.400 . S
C1535 C1540 1.490 . S
C1536 H1526 0.930 . S
C1536 C1535 1.400 . S
C1536 C1539 1.386 . S
H1537 C1553 0.930 . S
H1538 C1554 0.931 . S
C1539 H1527 0.929 . S
C1539 C1533 1.390 . S
C1539 C1536 1.386 . S
C1540 C1535 1.490 . S
C1540 C1542 1.395 . S
C1540 C1543 1.403 . S
H1541 C1547 0.930 . S
C1542 H1528 0.930 . S
C1542 C1540 1.395 . S
C1542 C1545 1.403 . S
C1543 C1540 1.403 . S
C1543 C1544 1.524 . S
C1543 C1547 1.400 . S
C1544 H1529 0.960 . S
C1544 H1530 0.960 . S
C1544 H1531 0.960 . S
C1544 C1543 1.524 . S
C1545 C1542 1.403 . S
C1545 C1546 1.392 . S
C1545 C1549 1.495 . S
C1546 C1545 1.392 . S
C1546 C1547 1.385 . S
C1546 C1548 1.478 . S
C1547 H1541 0.930 . S
C1547 C1543 1.400 . S
C1547 C1546 1.385 . S
C1548 C1546 1.478 . S
C1548 C1550 1.381 . S
C1548 C1554 1.383 . S
C1549 C1545 1.495 . S
C1549 H1555 0.959 . S
C1549 H1556 0.961 . S
C1549 H1557 0.960 . S
C1550 C1548 1.381 . S
C1550 C1551 1.394 . S
C1550 H1558 0.930 . S
C1551 C1550 1.394 . S
C1551 C1552 1.383 . S
C1551 H1559 0.929 . S
C1552 C1551 1.383 . S
C1552 C1553 1.377 . S
C1553 H1537 0.930 . S
C1553 C1552 1.377 . S
C1553 C1554 1.379 . S
C1554 H1538 0.931 . S
C1554 C1548 1.383 . S
C1554 C1553 1.379 . S
H1555 C1549 0.959 . S
H1556 C1549 0.961 . S
H1557 C1549 0.960 . S
H1558 C1550 0.930 . S
H1559 C1551 0.929 . S
H1560 C1568 0.929 . S
H1561 C1570 0.930 . S
H1562 C1572 0.930 . S
H1563 C1575 0.929 . S
H1564 C1578 0.930 . S
H1565 C1580 0.960 . S
H1566 C1580 0.960 . S
H1567 C1580 0.960 . S
C1568 H1560 0.929 . S
C1568 C1569 1.377 . S
C1568 C1570 1.384 . S
C1569 C1568 1.377 . S
C1569 C1575 1.390 . S
C1570 H1561 0.930 . S
C1570 C1568 1.384 . S
C1570 C1571 1.372 . S
C1571 C1570 1.372 . S
C1571 C1572 1.400 . S
C1571 C1576 1.490 . S
C1572 H1562 0.930 . S
C1572 C1571 1.400 . S
C1572 C1575 1.386 . S
H1573 C1589 0.930 . S
H1574 C1590 0.931 . S
C1575 H1563 0.929 . S
C1575 C1569 1.390 . S
C1575 C1572 1.386 . S
C1576 C1571 1.490 . S
C1576 C1578 1.395 . S
C1576 C1579 1.403 . S
H1577 C1583 0.930 . S
C1578 H1564 0.930 . S
C1578 C1576 1.395 . S
C1578 C1581 1.403 . S
C1579 C1576 1.403 . S
C1579 C1580 1.524 . S
C1579 C1583 1.400 . S
C1580 H1565 0.960 . S
C1580 H1566 0.960 . S
C1580 H1567 0.960 . S
C1580 C1579 1.524 . S
C1581 C1578 1.403 . S
C1581 C1582 1.392 . S
C1581 C1585 1.495 . S
C1582 C1581 1.392 . S
C1582 C1583 1.385 . S
C1582 C1584 1.478 . S
C1583 H1577 0.930 . S
C1583 C1579 1.400 . S
C1583 C1582 1.385 . S
C1584 C1582 1.478 . S
C1584 C1586 1.381 . S
C1584 C1590 1.383 . S
C1585 C1581 1.495 . S
C1585 H1591 0.959 . S
C1585 H1592 0.961 . S
C1585 H1593 0.960 . S
C1586 C1584 1.381 . S
C1586 C1587 1.394 . S
C1586 H1594 0.930 . S
C1587 C1586 1.394 . S
C1587 C1588 1.383 . S
C1587 H1595 0.929 . S
C1588 C1587 1.383 . S
C1588 C1589 1.377 . S
C1589 H1573 0.930 . S
C1589 C1588 1.377 . S
C1589 C1590 1.379 . S
C1590 H1574 0.931 . S
C1590 C1584 1.383 . S
C1590 C1589 1.379 . S
H1591 C1585 0.959 . S
H1592 C1585 0.961 . S
H1593 C1585 0.960 . S
H1594 C1586 0.930 . S
H1595 C1587 0.929 . S
H1596 C1604 0.929 . S
H1597 C1606 0.930 . S
H1598 C1608 0.930 . S
H1599 C1611 0.929 . S
H1600 C1614 0.930 . S
H1601 C1616 0.960 . S
H1602 C1616 0.960 . S
H1603 C1616 0.960 . S
C1604 H1596 0.929 . S
C1604 C1605 1.377 . S
C1604 C1606 1.384 . S
C1605 C1604 1.377 . S
C1605 C1611 1.390 . S
C1606 H1597 0.930 . S
C1606 C1604 1.384 . S
C1606 C1607 1.372 . S
C1607 C1606 1.372 . S
C1607 C1608 1.400 . S
C1607 C1612 1.490 . S
C1608 H1598 0.930 . S
C1608 C1607 1.400 . S
C1608 C1611 1.386 . S
H1609 C1625 0.930 . S
H1610 C1626 0.931 . S
C1611 H1599 0.929 . S
C1611 C1605 1.390 . S
C1611 C1608 1.386 . S
C1612 C1607 1.490 . S
C1612 C1614 1.395 . S
C1612 C1615 1.403 . S
H1613 C1619 0.930 . S
C1614 H1600 0.930 . S
C1614 C1612 1.395 . S
C1614 C1617 1.403 . S
C1615 C1612 1.403 . S
C1615 C1616 1.524 . S
C1615 C1619 1.400 . S
C1616 H1601 0.960 . S
C1616 H1602 0.960 . S
C1616 H1603 0.960 . S
C1616 C1615 1.524 . S
C1617 C1614 1.403 . S
C1617 C1618 1.392 . S
C1617 C1621 1.495 . S
C1618 C1617 1.392 . S
C1618 C1619 1.385 . S
C1618 C1620 1.478 . S
C1619 H1613 0.930 . S
C1619 C1615 1.400 . S
C1619 C1618 1.385 . S
C1620 C1618 1.478 . S
C1620 C1622 1.381 . S
C1620 C1626 1.383 . S
C1621 C1617 1.495 . S
C1621 H1627 0.959 . S
C1621 H1628 0.961 . S
C1621 H1629 0.960 . S
C1622 C1620 1.381 . S
C1622 C1623 1.394 . S
C1622 H1630 0.930 . S
C1623 C1622 1.394 . S
C1623 C1624 1.383 . S
C1623 H1631 0.929 . S
C1624 C1623 1.383 . S
C1624 C1625 1.377 . S
C1625 H1609 0.930 . S
C1625 C1624 1.377 . S
C1625 C1626 1.379 . S
C1626 H1610 0.931 . S
C1626 C1620 1.383 . S
C1626 C1625 1.379 . S
H1627 C1621 0.959 . S
H1628 C1621 0.961 . S
H1629 C1621 0.960 . S
H1630 C1622 0.930 . S
H1631 C1623 0.929 . S
H1632 C1640 0.929 . S
H1633 C1642 0.930 . S
H1634 C1644 0.930 . S
H1635 C1647 0.929 . S
H1636 C1650 0.930 . S
H1637 C1652 0.960 . S
H1638 C1652 0.960 . S
H1639 C1652 0.960 . S
C1640 H1632 0.929 . S
C1640 C1641 1.377 . S
C1640 C1642 1.384 . S
C1641 C1640 1.377 . S
C1641 C1647 1.390 . S
C1642 H1633 0.930 . S
C1642 C1640 1.384 . S
C1642 C1643 1.372 . S
C1643 C1642 1.372 . S
C1643 C1644 1.400 . S
C1643 C1648 1.490 . S
C1644 H1634 0.930 . S
C1644 C1643 1.400 . S
C1644 C1647 1.386 . S
H1645 C1661 0.930 . S
H1646 C1662 0.931 . S
C1647 H1635 0.929 . S
C1647 C1641 1.390 . S
C1647 C1644 1.386 . S
C1648 C1643 1.490 . S
C1648 C1650 1.395 . S
C1648 C1651 1.403 . S
H1649 C1655 0.930 . S
C1650 H1636 0.930 . S
C1650 C1648 1.395 . S
C1650 C1653 1.403 . S
C1651 C1648 1.403 . S
C1651 C1652 1.524 . S
C1651 C1655 1.400 . S
C1652 H1637 0.960 . S
C1652 H1638 0.960 . S
C1652 H1639 0.960 . S
C1652 C1651 1.524 . S
C1653 C1650 1.403 . S
C1653 C1654 1.392 . S
C1653 C1657 1.495 . S
C1654 C1653 1.392 . S
C1654 C1655 1.385 . S
C1654 C1656 1.478 . S
C1655 H1649 0.930 . S
C1655 C1651 1.400 . S
C1655 C1654 1.385 . S
C1656 C1654 1.478 . S
C1656 C1658 1.381 . S
C1656 C1662 1.383 . S
C1657 C1653 1.495 . S
C1657 H1663 0.959 . S
C1657 H1664 0.961 . S
C1657 H1665 0.960 . S
C1658 C1656 1.381 . S
C1658 C1659 1.394 . S
C1658 H1666 0.930 . S
C1659 C1658 1.394 . S
C1659 C1660 1.383 . S
C1659 H1667 0.929 . S
C1660 C1659 1.383 . S
C1660 C1661 1.377 . S
C1661 H1645 0.930 . S
C1661 C1660 1.377 . S
C1661 C1662 1.379 . S
C1662 H1646 0.931 . S
C1662 C1656 1.383 . S
C1662 C1661 1.379 . S
H1663 C1657 0.959 . S
H1664 C1657 0.961 . S
H1665 C1657 0.960 . S
H1666 C1658 0.930 . S
H1667 C1659 0.929 . S
H1668 C1676 0.929 . S
H1669 C1678 0.930 . S
H1670 C1680 0.930 . S
H1671 C1683 0.929 . S
H1672 C1686 0.930 . S
H1673 C1688 0.960 . S
H1674 C1688 0.960 . S
H1675 C1688 0.960 . S
C1676 H1668 0.929 . S
C1676 C1677 1.377 . S
C1676 C1678 1.384 . S
C1677 C1676 1.377 . S
C1677 C1683 1.390 . S
C1678 H1669 0.930 . S
C1678 C1676 1.384 . S
C1678 C1679 1.372 . S
C1679 C1678 1.372 . S
C1679 C1680 1.400 . S
C1679 C1684 1.490 1_565 S
C1680 H1670 0.930 . S
C1680 C1679 1.400 . S
C1680 C1683 1.386 . S
H1681 C1697 0.930 . S
H1682 C1698 0.931 . S
C1683 H1671 0.929 . S
C1683 C1677 1.390 . S
C1683 C1680 1.386 . S
C1684 C1679 1.490 1_545 S
C1684 C1686 1.395 . S
C1684 C1687 1.403 . S
H1685 C1691 0.930 . S
C1686 H1672 0.930 . S
C1686 C1684 1.395 . S
C1686 C1689 1.403 . S
C1687 C1684 1.403 . S
C1687 C1688 1.524 1_545 S
C1687 C1691 1.400 . S
C1688 H1673 0.960 . S
C1688 H1674 0.960 . S
C1688 H1675 0.960 . S
C1688 C1687 1.524 1_565 S
C1689 C1686 1.403 . S
C1689 C1690 1.392 . S
C1689 C1693 1.495 . S
C1690 C1689 1.392 . S
C1690 C1691 1.385 . S
C1690 C1692 1.478 . S
C1691 H1685 0.930 . S
C1691 C1687 1.400 . S
C1691 C1690 1.385 . S
C1692 C1690 1.478 . S
C1692 C1694 1.381 . S
C1692 C1698 1.383 . S
C1693 C1689 1.495 . S
C1693 H1699 0.959 . S
C1693 H1700 0.961 . S
C1693 H1701 0.960 . S
C1694 C1692 1.381 . S
C1694 C1695 1.394 1_655 S
C1694 H1702 0.930 . S
C1695 C1694 1.394 1_455 S
C1695 C1696 1.383 . S
C1695 H1703 0.929 . S
C1696 C1695 1.383 . S
C1696 C1697 1.377 1_455 S
C1697 H1681 0.930 . S
C1697 C1696 1.377 1_655 S
C1697 C1698 1.379 . S
C1698 H1682 0.931 . S
C1698 C1692 1.383 . S
C1698 C1697 1.379 . S
H1699 C1693 0.959 . S
H1700 C1693 0.961 . S
H1701 C1693 0.960 . S
H1702 C1694 0.930 . S
H1703 C1695 0.929 . S
C417 C13 1.048 . S
C436 C382 1.021 . S
C453 C319 1.042 . S
C472 C47 1.027 . S
C489 C76 2.326 1_554 S
C508 C280 2.317 . S
C525 C115 1.243 . S
C544 C353 1.250 . S
C561 C149 1.289 . S
C580 C348 1.269 . S
C597 C183 0.852 . S
C616 C387 0.896 . S
C633 C314 1.542 1_565 S
C652 C217 1.559 . S
C669 C246 1.899 . S
C688 C285 1.890 . S
C705 C110 2.313 . S
C724 C144 2.338 . S
C741 C8 2.259 . S
C760 C178 2.221 . S
C777 C42 2.306 1_655 S
C796 C212 2.313 1_556 S
C813 C251 0.392 . S
C832 C81 0.255 . S
C849 C29 1.773 . S
C868 C289 1.767 . S
C885 C63 0.497 1_655 S
C904 C344 0.553 . S
C921 C391 1.183 . S
C940 C68 1.203 . S
C957 C131 0.393 . S
C976 C310 0.412 . S
C993 C165 1.266 . S
C1012 C323 1.250 . S
C1029 C276 0.972 . S
C1048 C199 0.962 . S
C1065 C357 1.062 . S
C1084 C233 1.086 . S
C1101 C378 0.547 . S
C1120 C238 0.496 . S
C1137 C17 1.228 . S
C1156 C102 1.216 . S
C1173 C0 1.694 . S
C1192 C51 1.692 . S
C1209 C34 0.501 . S
C1228 C72 0.483 . S
C1245 C119 1.363 . S
C1264 C97 1.362 . S
C1281 C170 1.454 . S
C1300 C153 1.456 . S
C1317 C187 1.517 . S
C1336 C204 1.513 1_556 S
C1353 C221 1.087 . S
C1372 C267 1.088 . S
C1389 C136 0.933 . S
C1408 C242 0.909 . S
C1425 C301 0.606 . S
C1444 C106 0.637 . S
C1461 C174 0.302 . S
C1480 C335 0.275 . S
C1497 C272 0.918 . S
C1516 C208 0.911 . S
C1533 C369 0.533 . S
C1552 C255 0.574 . S
C1569 C140 0.915 . S
C1588 C374 0.907 . S
C1605 C403 0.633 . S
C1624 C38 0.633 . S
C1641 C85 0.861 . S
C1660 C306 0.887 . S
C1677 C340 0.603 . S
C1696 C4 0.595 . S
