# Generated by pormake.
# Topology mok, (4)-cn, num edge types: 1
# Building blocks:
#     Node 0, Type 0, BuildingBlock: UXUYUI_clean_sbu_0, # of connection points: 4
#     Node 1, Type 0, BuildingBlock: UXUYUI_clean_sbu_0, # of connection points: 4
#     Node 2, Type 0, BuildingBlock: UXUYUI_clean_sbu_0, # of connection points: 4
#     Node 3, Type 0, BuildingBlock: UXUYUI_clean_sbu_0, # of connection points: 4
#     Node 4, Type 0, BuildingBlock: UXUYUI_clean_sbu_0, # of connection points: 4
#     Node 5, Type 0, BuildingBlock: UXUYUI_clean_sbu_0, # of connection points: 4
#     Node 6, Type 0, BuildingBlock: UXUYUI_clean_sbu_0, # of connection points: 4
#     Node 7, Type 0, BuildingBlock: UXUYUI_clean_sbu_0, # of connection points: 4
#     Edge 8, Type (0, 0), BuildingBlock: UVAHIK_clean_linker_0, # of connection points: 2
#     Edge 9, Type (0, 0), BuildingBlock: UVAHIK_clean_linker_0, # of connection points: 2
#     Edge 10, Type (0, 0), BuildingBlock: UVAHIK_clean_linker_0, # of connection points: 2
#     Edge 11, Type (0, 0), BuildingBlock: UVAHIK_clean_linker_0, # of connection points: 2
#     Edge 12, Type (0, 0), BuildingBlock: UVAHIK_clean_linker_0, # of connection points: 2
#     Edge 13, Type (0, 0), BuildingBlock: UVAHIK_clean_linker_0, # of connection points: 2
#     Edge 14, Type (0, 0), BuildingBlock: UVAHIK_clean_linker_0, # of connection points: 2
#     Edge 15, Type (0, 0), BuildingBlock: UVAHIK_clean_linker_0, # of connection points: 2
#     Edge 16, Type (0, 0), BuildingBlock: UVAHIK_clean_linker_0, # of connection points: 2
#     Edge 17, Type (0, 0), BuildingBlock: UVAHIK_clean_linker_0, # of connection points: 2
#     Edge 18, Type (0, 0), BuildingBlock: UVAHIK_clean_linker_0, # of connection points: 2
#     Edge 19, Type (0, 0), BuildingBlock: UVAHIK_clean_linker_0, # of connection points: 2
#     Edge 20, Type (0, 0), BuildingBlock: UVAHIK_clean_linker_0, # of connection points: 2
#     Edge 21, Type (0, 0), BuildingBlock: UVAHIK_clean_linker_0, # of connection points: 2
#     Edge 22, Type (0, 0), BuildingBlock: UVAHIK_clean_linker_0, # of connection points: 2
#     Edge 23, Type (0, 0), BuildingBlock: UVAHIK_clean_linker_0, # of connection points: 2
# Relax obj value: 0.076
# Max RMSD: 0.067
# Mean RMSD: 0.067
data_MOF--net-mok--node1-UXUYUI_clean_sbu_0--edge1-UVAHIK_clean_linker_0
_symmetry_space_group_name_H-M    P1
_symmetry_Int_Tables_number       1
_symmetry_cell_setting            triclinic
loop_
_symmetry_equiv_pos_as_xyz
'x, y, z'
_cell_length_a     80.53806
_cell_length_b     37.03706
_cell_length_c     45.211673
_cell_angle_alpha  89.999653
_cell_angle_beta   90.000826
_cell_angle_gamma 89.995238
loop_
_atom_site_label
_atom_site_type_symbol
_atom_site_fract_x
_atom_site_fract_y
_atom_site_fract_z
_atom_type_partial_charge
Li0 Li 0.58111 0.33652 0.02912 0.0
Li1 Li 0.60502 0.30552 0.00366 0.0
Li2 Li 0.58281 0.33499 0.97493 0.0
Li3 Li 0.57741 0.27797 1.0002 0.0
C4 C 0.6038 0.38838 0.99058 0.0
N5 N 0.61367 0.45045 0.96164 0.0
C6 C 0.61977 0.39084 0.97866 0.0
C7 C 0.59291 0.4176 0.98808 0.0
C8 C 0.62452 0.42244 0.96406 0.0
C9 C 0.59811 0.4487 0.97327 0.0
C10 C 0.60024 0.26962 0.05654 0.0
C11 C 0.61675 0.2181 0.07052 0.0
N12 N 0.62019 0.23421 0.09686 0.0
C13 C 0.60382 0.28559 0.08381 0.0
C14 C 0.60664 0.23552 0.04987 0.0
C15 C 0.61397 0.26727 0.10388 0.0
C16 C 0.56358 0.34897 0.08241 0.0
N17 N 0.57499 0.36277 0.06338 0.0
C18 C 0.57936 0.41375 0.09478 0.0
C19 C 0.58282 0.39454 0.06896 0.0
C20 C 0.56782 0.39998 0.11517 0.0
C21 C 0.55979 0.36722 0.10864 0.0
H22 H 0.55762 0.32352 0.0774 0.0
H23 H 0.592 0.40461 0.0536 0.0
C24 C 0.63597 0.28635 0.97976 0.0
N25 N 0.62828 0.29633 0.00522 0.0
C26 C 0.65308 0.28024 0.97934 0.0
C27 C 0.65404 0.29458 0.03144 0.0
C28 C 0.63696 0.30106 0.03069 0.0
C29 C 0.6624 0.28411 0.00547 0.0
H30 H 0.62885 0.2837 0.95961 0.0
H31 H 0.63067 0.31008 0.05044 0.0
C32 C 0.54876 0.33874 0.99498 0.0
N33 N 0.51868 0.37183 0.98381 0.0
C34 C 0.53632 0.32021 0.97969 0.0
C35 C 0.54588 0.37394 0.00485 0.0
C36 C 0.5212 0.33747 0.97419 0.0
C37 C 0.53059 0.39025 0.99891 0.0
C38 C 0.59333 0.26016 0.94847 0.0
C39 C 0.58517 0.26389 0.92136 0.0
C40 C 0.60122 0.22767 0.95543 0.0
C41 C 0.58485 0.23473 0.90177 0.0
C42 C 0.60061 0.19913 0.93525 0.0
N43 N 0.5925 0.20322 0.90907 0.0
C44 C 0.59347 0.36629 0.92234 0.0
C45 C 0.56464 0.37512 0.92985 0.0
C46 C 0.59294 0.38633 0.89622 0.0
N47 N 0.57952 0.36166 0.9389 0.0
C48 C 0.56347 0.39459 0.90345 0.0
C49 C 0.57779 0.40071 0.88657 0.0
H50 H 0.60506 0.35455 0.92959 0.0
H51 H 0.55364 0.37095 0.94289 0.0
C52 C 0.56394 0.21468 0.02515 0.0
N53 N 0.56536 0.23362 0.99953 0.0
C54 C 0.55511 0.18223 0.02585 0.0
C55 C 0.54935 0.18928 0.97374 0.0
C56 C 0.55805 0.2219 0.9742 0.0
C57 C 0.54773 0.16886 0.99983 0.0
H58 H 0.56954 0.22499 0.04518 0.0
H59 H 0.5589 0.23791 0.95431 0.0
O60 O 0.59882 0.35739 0.00443 0.0
O61 O 0.59039 0.28723 0.03659 0.0
O62 O 0.56357 0.32218 0.00068 0.0
O63 O 0.59373 0.28836 0.96795 0.0
H64 H 0.62836 0.36847 0.98045 0.0
H65 H 0.58051 0.41611 0.99719 0.0
H66 H 0.6368 0.42466 0.95457 0.0
H67 H 0.58977 0.47142 0.97096 0.0
H68 H 0.62186 0.19175 0.06561 0.0
H69 H 0.59891 0.31195 0.08932 0.0
H70 H 0.60384 0.22269 0.02897 0.0
H71 H 0.61693 0.27935 0.12501 0.0
H72 H 0.58604 0.43857 0.09913 0.0
H73 H 0.55073 0.35579 0.12365 0.0
H74 H 0.65892 0.27319 0.95857 0.0
H75 H 0.66055 0.29761 0.05223 0.0
H76 H 0.53835 0.29287 0.97205 0.0
H77 H 0.55532 0.38854 0.01691 0.0
H78 H 0.51148 0.32354 0.96227 0.0
H79 H 0.5282 0.41753 0.00631 0.0
H80 H 0.57902 0.28892 0.91563 0.0
H81 H 0.60774 0.22452 0.97618 0.0
H82 H 0.5785 0.23714 0.88077 0.0
H83 H 0.6066 0.17375 0.94038 0.0
H84 H 0.6042 0.39021 0.88351 0.0
H85 H 0.55157 0.40532 0.89655 0.0
H86 H 0.5539 0.16815 0.04671 0.0
H87 H 0.54409 0.18015 0.95302 0.0
Li88 Li 0.39802 0.70101 0.00055 0.0
Li89 Li 0.42048 0.66732 0.0268 0.0
Li90 Li 0.42567 0.72596 0.99939 0.0
Li91 Li 0.42003 0.67076 0.9725 0.0
C92 C 0.39995 0.73098 0.05324 0.0
N93 N 0.37515 0.75811 0.08909 0.0
C94 C 0.39419 0.7108 0.07725 0.0
C95 C 0.39322 0.76506 0.04758 0.0
C96 C 0.38162 0.72498 0.0951 0.0
C97 C 0.38064 0.77826 0.06592 0.0
C98 C 0.39766 0.61921 0.98513 0.0
C99 C 0.40176 0.55845 0.96743 0.0
N100 N 0.38687 0.56003 0.95329 0.0
C101 C 0.38235 0.62018 0.97059 0.0
C102 C 0.40741 0.58804 0.98373 0.0
C103 C 0.37713 0.58999 0.95457 0.0
C104 C 0.36802 0.73485 0.98263 0.0
N105 N 0.37485 0.71108 0.00201 0.0
C106 C 0.34831 0.69931 0.02357 0.0
C107 C 0.36539 0.69321 0.02215 0.0
C108 C 0.34084 0.72375 0.00384 0.0
C109 C 0.35096 0.74167 0.98318 0.0
H110 H 0.37576 0.74816 0.96646 0.0
H111 H 0.37115 0.67407 0.03702 0.0
C112 C 0.43683 0.64951 0.08061 0.0
N113 N 0.42504 0.63912 0.06085 0.0
C114 C 0.43908 0.63008 0.10684 0.0
C115 C 0.41728 0.58936 0.09142 0.0
C116 C 0.41543 0.60956 0.0656 0.0
C117 C 0.42904 0.59984 0.11272 0.0
H118 H 0.44419 0.67337 0.07629 0.0
H119 H 0.40607 0.6021 0.0496 0.0
C120 C 0.41332 0.74726 0.94754 0.0
N121 N 0.42045 0.80535 0.91137 0.0
C122 C 0.42231 0.74215 0.92142 0.0
C123 C 0.40786 0.78186 0.95516 0.0
C124 C 0.42579 0.77188 0.90344 0.0
C125 C 0.41163 0.8109 0.93663 0.0
C126 C 0.45307 0.6612 0.99495 0.0
C127 C 0.46658 0.67704 0.98051 0.0
C128 C 0.45421 0.62554 0.00488 0.0
C129 C 0.48097 0.65673 0.97593 0.0
C130 C 0.46882 0.60614 0.99988 0.0
N131 N 0.48178 0.622 0.98562 0.0
C132 C 0.43754 0.7913 0.02406 0.0
C133 C 0.44847 0.77757 0.9767 0.0
C134 C 0.44657 0.82351 0.02496 0.0
N135 N 0.43854 0.76928 1.00006 0.0
C136 C 0.45743 0.80984 0.97639 0.0
C137 C 0.45652 0.83323 0.00074 0.0
H138 H 0.42972 0.78388 0.04251 0.0
H139 H 0.44934 0.75926 0.95817 0.0
C140 C 0.40997 0.64376 0.91818 0.0
N141 N 0.42341 0.64426 0.9364 0.0
C142 C 0.41023 0.62376 0.89204 0.0
C143 C 0.43856 0.60682 0.90273 0.0
C144 C 0.43763 0.62652 0.92905 0.0
C145 C 0.42465 0.60492 0.88415 0.0
H146 H 0.39892 0.65863 0.92422 0.0
H147 H 0.44823 0.62721 0.94349 0.0
O148 O 0.41201 0.71727 0.03515 0.0
O149 O 0.40315 0.64878 0.00039 0.0
O150 O 0.40989 0.71853 0.96554 0.0
O151 O 0.43896 0.6808 0.99981 0.0
H152 H 0.39926 0.68436 0.08191 0.0
H153 H 0.39756 0.781 0.02909 0.0
H154 H 0.37697 0.70961 0.11368 0.0
H155 H 0.37523 0.80449 0.0617 0.0
H156 H 0.40924 0.53424 0.96597 0.0
H157 H 0.37467 0.64412 0.97136 0.0
H158 H 0.41928 0.58684 0.99486 0.0
H159 H 0.36536 0.59043 0.94305 0.0
H160 H 0.34105 0.68514 0.04006 0.0
H161 H 0.34573 0.76021 0.96718 0.0
H162 H 0.44818 0.63935 0.12276 0.0
H163 H 0.40944 0.56596 0.09478 0.0
H164 H 0.42668 0.7156 0.91521 0.0
H165 H 0.40094 0.7863 0.97533 0.0
H166 H 0.4328 0.76837 0.88323 0.0
H167 H 0.40758 0.83785 0.94235 0.0
H168 H 0.46594 0.70467 0.97285 0.0
H169 H 0.44393 0.6129 0.01621 0.0
H170 H 0.4915 0.66858 0.96469 0.0
H171 H 0.46986 0.57848 0.00734 0.0
H172 H 0.44556 0.84093 0.04411 0.0
H173 H 0.46515 0.81626 0.95748 0.0
H174 H 0.39931 0.62321 0.87804 0.0
H175 H 0.44989 0.59252 0.89729 0.0
Li176 Li 0.57533 0.72582 0.49963 0.0
Li177 Li 0.58065 0.67126 0.52642 0.0
Li178 Li 0.60272 0.69983 0.49849 0.0
Li179 Li 0.57974 0.66632 0.47255 0.0
C180 C 0.58775 0.74894 0.54966 0.0
N181 N 0.58072 0.81028 0.58213 0.0
C182 C 0.57772 0.74673 0.57484 0.0
C183 C 0.59427 0.78232 0.54109 0.0
C184 C 0.57432 0.77806 0.59096 0.0
C185 C 0.59054 0.81303 0.55775 0.0
C186 C 0.54777 0.66507 0.51129 0.0
C187 C 0.52655 0.61919 0.50944 0.0
N188 N 0.51986 0.63257 0.53481 0.0
C189 C 0.54067 0.67842 0.53729 0.0
C190 C 0.54066 0.63525 0.49719 0.0
C191 C 0.52658 0.66158 0.54886 0.0
C192 C 0.56553 0.79248 0.47424 0.0
N193 N 0.56312 0.77026 0.4978 0.0
C194 C 0.54401 0.81222 0.51921 0.0
C195 C 0.5524 0.77926 0.51985 0.0
C196 C 0.54642 0.83591 0.49537 0.0
C197 C 0.55723 0.82557 0.47252 0.0
H198 H 0.57396 0.78461 0.45681 0.0
H199 H 0.55048 0.76109 0.53815 0.0
C200 C 0.58799 0.65246 0.58472 0.0
N201 N 0.5773 0.64437 0.56242 0.0
C202 C 0.58752 0.6333 0.61127 0.0
C203 C 0.56494 0.59773 0.5917 0.0
C204 C 0.5661 0.6171 0.56526 0.0
C205 C 0.57579 0.60558 0.61524 0.0
H206 H 0.59719 0.67338 0.58159 0.0
H207 H 0.55826 0.60973 0.54691 0.0
C208 C 0.60088 0.72772 0.44481 0.0
N209 N 0.62562 0.75128 0.40714 0.0
C210 C 0.60558 0.70665 0.42056 0.0
C211 C 0.60867 0.7609 0.44976 0.0
C212 C 0.61813 0.71902 0.4018 0.0
C213 C 0.62118 0.77229 0.43052 0.0
C214 C 0.60187 0.61879 0.51544 0.0
C215 C 0.61569 0.62125 0.53401 0.0
C216 C 0.59263 0.58687 0.51453 0.0
C217 C 0.61999 0.59167 0.55159 0.0
C218 C 0.59733 0.5579 0.53247 0.0
N219 N 0.61079 0.5609 0.55049 0.0
C220 C 0.63297 0.73092 0.51771 0.0
C221 C 0.63537 0.69214 0.47627 0.0
C222 C 0.65004 0.73738 0.51746 0.0
N223 N 0.626 0.70887 0.49717 0.0
C224 C 0.65249 0.69803 0.47504 0.0
C225 C 0.66008 0.72092 0.49587 0.0
H226 H 0.62531 0.74313 0.53458 0.0
H227 H 0.62954 0.67416 0.46054 0.0
C228 C 0.56221 0.64857 0.42024 0.0
N229 N 0.57439 0.63777 0.43908 0.0
C230 C 0.55877 0.6285 0.39477 0.0
C231 C 0.58036 0.58651 0.40885 0.0
C232 C 0.58344 0.60747 0.4339 0.0
C233 C 0.56794 0.59703 0.38879 0.0
H234 H 0.55529 0.67296 0.42489 0.0
H235 H 0.59326 0.59993 0.44897 0.0
O236 O 0.59109 0.71864 0.53339 0.0
O237 O 0.56148 0.68129 0.4994 0.0
O238 O 0.58881 0.71579 0.46372 0.0
O239 O 0.59716 0.64782 0.49876 0.0
H240 H 0.57242 0.72124 0.58165 0.0
H241 H 0.60198 0.78456 0.5216 0.0
H242 H 0.56651 0.77678 0.61039 0.0
H243 H 0.59541 0.83907 0.55126 0.0
H244 H 0.52092 0.59606 0.4988 0.0
H245 H 0.54617 0.70104 0.54875 0.0
H246 H 0.54601 0.62455 0.47706 0.0
H247 H 0.52102 0.67146 0.56908 0.0
H248 H 0.5356 0.81894 0.53707 0.0
H249 H 0.55948 0.84313 0.45379 0.0
H250 H 0.59653 0.63977 0.62821 0.0
H251 H 0.55561 0.57681 0.59352 0.0
H252 H 0.5997 0.6809 0.4164 0.0
H253 H 0.60518 0.77753 0.46842 0.0
H254 H 0.62195 0.70292 0.38302 0.0
H255 H 0.62739 0.7978 0.43419 0.0
H256 H 0.6229 0.64588 0.53508 0.0
H257 H 0.58178 0.58472 0.5005 0.0
H258 H 0.6306 0.59324 0.56621 0.0
H259 H 0.59023 0.53312 0.53218 0.0
H260 H 0.65535 0.75455 0.53438 0.0
H261 H 0.65966 0.68497 0.45784 0.0
H262 H 0.54903 0.63744 0.37997 0.0
H263 H 0.58792 0.56283 0.40484 0.0
Li264 Li 0.41751 0.33076 0.52649 0.0
Li265 Li 0.4237 0.27786 0.49863 0.0
Li266 Li 0.41847 0.33515 0.47348 0.0
Li267 Li 0.39573 0.30249 0.49828 0.0
C268 C 0.45124 0.31653 0.51633 0.0
N269 N 0.47978 0.30245 0.54821 0.0
C270 C 0.45029 0.2988 0.54358 0.0
C271 C 0.4667 0.32706 0.50529 0.0
C272 C 0.46486 0.29194 0.55936 0.0
C273 C 0.48099 0.31971 0.52175 0.0
C274 C 0.40112 0.24949 0.53938 0.0
C275 C 0.3907 0.1911 0.52474 0.0
N276 N 0.38718 0.18354 0.55351 0.0
C277 C 0.39738 0.24117 0.56877 0.0
C278 C 0.39774 0.22429 0.51714 0.0
C279 C 0.39035 0.20767 0.57547 0.0
C280 C 0.4079 0.35593 0.58184 0.0
N281 N 0.42079 0.35671 0.56251 0.0
C282 C 0.43613 0.39567 0.59461 0.0
C283 C 0.43471 0.37629 0.56821 0.0
C284 C 0.42295 0.3956 0.61507 0.0
C285 C 0.40865 0.37543 0.60821 0.0
H286 H 0.39686 0.34063 0.57643 0.0
H287 H 0.44466 0.37716 0.5522 0.0
C288 C 0.44355 0.22461 0.47111 0.0
N289 N 0.43669 0.23471 0.49729 0.0
C290 C 0.45326 0.19337 0.46937 0.0
C291 C 0.4486 0.18356 0.52155 0.0
C292 C 0.43911 0.21505 0.52232 0.0
C293 C 0.45588 0.17228 0.49483 0.0
H294 H 0.44156 0.241 0.45162 0.0
H295 H 0.43368 0.22377 0.54297 0.0
C296 C 0.40121 0.38923 0.51011 0.0
N297 N 0.40205 0.45857 0.53262 0.0
C298 C 0.38737 0.40336 0.5247 0.0
C299 C 0.41547 0.41043 0.50687 0.0
C300 C 0.38804 0.43847 0.53595 0.0
C301 C 0.41565 0.4454 0.51842 0.0
C302 C 0.40116 0.28812 0.43731 0.0
C303 C 0.38908 0.31462 0.43263 0.0
C304 C 0.40501 0.26385 0.41467 0.0
C305 C 0.38101 0.31634 0.40531 0.0
C306 C 0.39666 0.26645 0.38766 0.0
N307 N 0.38494 0.29243 0.38358 0.0
C308 C 0.43636 0.35649 0.42191 0.0
C309 C 0.41219 0.39055 0.43267 0.0
C310 C 0.4388 0.37594 0.3957 0.0
N311 N 0.42315 0.36398 0.43961 0.0
C312 C 0.41416 0.41065 0.40687 0.0
C313 C 0.42746 0.40315 0.38771 0.0
H314 H 0.44476 0.33486 0.42781 0.0
H315 H 0.40166 0.39565 0.44687 0.0
C316 C 0.36295 0.30795 0.51835 0.0
N317 N 0.37262 0.29101 0.49803 0.0
C318 C 0.34589 0.30136 0.51936 0.0
C319 C 0.34912 0.25907 0.47906 0.0
C320 C 0.36613 0.26644 0.47889 0.0
C321 C 0.33873 0.27683 0.49936 0.0
H322 H 0.36852 0.32656 0.53384 0.0
H323 H 0.37413 0.25242 0.46352 0.0
O324 O 0.4372 0.32328 0.50022 0.0
O325 O 0.4079 0.28235 0.53263 0.0
O326 O 0.40105 0.3545 0.49977 0.0
O327 O 0.40947 0.28623 0.46365 0.0
H328 H 0.43845 0.29051 0.55254 0.0
H329 H 0.46763 0.34072 0.48418 0.0
H330 H 0.46431 0.27826 0.58048 0.0
H331 H 0.49304 0.32771 0.51347 0.0
H332 H 0.38803 0.17135 0.50777 0.0
H333 H 0.39989 0.26044 0.58622 0.0
H334 H 0.40054 0.23016 0.49427 0.0
H335 H 0.3874 0.20086 0.59814 0.0
H336 H 0.44749 0.41038 0.5989 0.0
H337 H 0.39797 0.37515 0.62273 0.0
H338 H 0.45881 0.18612 0.44838 0.0
H339 H 0.45003 0.16802 0.54167 0.0
H340 H 0.37623 0.38743 0.5274 0.0
H341 H 0.42637 0.39976 0.49596 0.0
H342 H 0.37743 0.44972 0.54736 0.0
H343 H 0.42663 0.462 0.51623 0.0
H344 H 0.38594 0.33365 0.44988 0.0
H345 H 0.41438 0.24327 0.41792 0.0
H346 H 0.37165 0.33672 0.40139 0.0
H347 H 0.39951 0.24784 0.36993 0.0
H348 H 0.44912 0.36901 0.38146 0.0
H349 H 0.40526 0.4317 0.40189 0.0
H350 H 0.33837 0.31576 0.53533 0.0
H351 H 0.34419 0.23938 0.46368 0.0
Li352 Li 0.08304 0.8316 0.02651 0.0
Li353 Li 0.1062 0.80121 0.9993 0.0
Li354 Li 0.08312 0.83196 0.97411 0.0
Li355 Li 0.07715 0.77643 0.99819 0.0
C356 C 0.10544 0.8811 0.01696 0.0
N357 N 0.11517 0.93686 0.05364 0.0
C358 C 0.11937 0.87715 0.03511 0.0
C359 C 0.09653 0.91348 0.01729 0.0
C360 C 0.12408 0.90566 0.05352 0.0
C361 C 0.10162 0.94132 0.03605 0.0
C362 C 0.08838 0.75407 0.04975 0.0
C363 C 0.0905 0.69065 0.06125 0.0
N364 N 0.07839 0.69454 0.08197 0.0
C365 C 0.07594 0.75745 0.07113 0.0
C366 C 0.09573 0.72043 0.04473 0.0
C367 C 0.07108 0.72703 0.08722 0.0
C368 C 0.06609 0.88046 0.06557 0.0
N369 N 0.07898 0.85705 0.06253 0.0
C370 C 0.08822 0.86965 0.11169 0.0
C371 C 0.08991 0.85124 0.08494 0.0
C372 C 0.07513 0.89432 0.11548 0.0
C373 C 0.06396 0.8996 0.09197 0.0
H374 H 0.05752 0.88443 0.0475 0.0
H375 H 0.10008 0.83253 0.08185 0.0
C376 C 0.139 0.80753 0.9789 0.0
N377 N 0.12933 0.79133 0.99963 0.0
C378 C 0.15617 0.80222 0.97894 0.0
C379 C 0.15312 0.76397 0.02192 0.0
C380 C 0.13601 0.77007 0.02106 0.0
C381 C 0.16346 0.78019 0.00068 0.0
H382 H 0.13339 0.82499 0.96256 0.0
H383 H 0.12809 0.75836 0.03779 0.0
C384 C 0.05107 0.83586 0.98507 0.0
N385 N 0.02531 0.8657 0.95295 0.0
C386 C 0.03981 0.81355 0.97027 0.0
C387 C 0.04919 0.87334 0.98366 0.0
C388 C 0.02687 0.82916 0.95415 0.0
C389 C 0.03611 0.88791 0.96724 0.0
C390 C 0.09112 0.77958 0.93556 0.0
C391 C 0.07716 0.7624 0.9237 0.0
C392 C 0.10319 0.7937 0.9166 0.0
C393 C 0.07549 0.75979 0.89302 0.0
C394 C 0.10103 0.79064 0.88604 0.0
N395 N 0.08735 0.77389 0.87498 0.0
C396 C 0.08887 0.89033 0.93523 0.0
C397 C 0.06773 0.85087 0.9185 0.0
C398 C 0.08744 0.91116 0.90959 0.0
N399 N 0.07912 0.86074 0.93921 0.0
C400 C 0.06598 0.87071 0.89242 0.0
C401 C 0.07599 0.90119 0.88763 0.0
H402 H 0.09802 0.8974 0.9517 0.0
H403 H 0.06015 0.82723 0.92189 0.0
C404 C 0.05027 0.73069 0.01321 0.0
N405 N 0.06504 0.73215 0.99872 0.0
C406 C 0.04135 0.69839 0.01448 0.0
C407 C 0.06313 0.66957 0.98627 0.0
C408 C 0.07162 0.70244 0.98553 0.0
C409 C 0.04774 0.66724 0.00083 0.0
H410 H 0.04549 0.75464 0.02394 0.0
H411 H 0.0835 0.70431 0.97446 0.0
O412 O 0.10031 0.85311 0.99947 0.0
O413 O 0.09292 0.78327 0.0331 0.0
O414 O 0.06379 0.82107 0.00104 0.0
O415 O 0.09292 0.78261 0.96554 0.0
H416 H 0.12634 0.85219 0.03529 0.0
H417 H 0.0857 0.91692 0.00342 0.0
H418 H 0.13477 0.90291 0.06783 0.0
H419 H 0.09478 0.96645 0.03668 0.0
H420 H 0.096 0.66441 0.05746 0.0
H421 H 0.06996 0.78318 0.07501 0.0
H422 H 0.10514 0.7172 0.02786 0.0
H423 H 0.06143 0.72921 0.10376 0.0
H424 H 0.09726 0.86509 0.12903 0.0
H425 H 0.0536 0.91806 0.09405 0.0
H426 H 0.16363 0.8151 0.96204 0.0
H427 H 0.15823 0.74738 0.03941 0.0
H428 H 0.04113 0.78451 0.97093 0.0
H429 H 0.05787 0.89102 0.99474 0.0
H430 H 0.0181 0.81223 0.94248 0.0
H431 H 0.03457 0.91687 0.96578 0.0
H432 H 0.06757 0.75178 0.93797 0.0
H433 H 0.11402 0.80718 0.92537 0.0
H434 H 0.0647 0.74677 0.88355 0.0
H435 H 0.11023 0.80164 0.87111 0.0
H436 H 0.09554 0.9342 0.90661 0.0
H437 H 0.05691 0.86226 0.87616 0.0
H438 H 0.02968 0.69771 0.02638 0.0
H439 H 0.06847 0.64635 0.97524 0.0
Li440 Li 0.89671 0.20187 0.00255 0.0
Li441 Li 0.91884 0.16636 0.02956 0.0
Li442 Li 0.92473 0.22477 0.00229 0.0
Li443 Li 0.91874 0.17158 0.9756 0.0
C444 C 0.89915 0.22995 0.05736 0.0
N445 N 0.87595 0.25633 0.09692 0.0
C446 C 0.89623 0.21196 0.08405 0.0
C447 C 0.89033 0.26151 0.05092 0.0
C448 C 0.88445 0.22571 0.10374 0.0
C449 C 0.87863 0.27435 0.07115 0.0
C450 C 0.8957 0.12168 0.98557 0.0
C451 C 0.89577 0.05868 0.97215 0.0
N452 N 0.88459 0.06575 0.95035 0.0
C453 C 0.88416 0.12832 0.96314 0.0
C454 C 0.90154 0.0866 0.99021 0.0
C455 C 0.87871 0.09967 0.94553 0.0
C456 C 0.86635 0.22808 0.97922 0.0
N457 N 0.87345 0.21167 0.00296 0.0
C458 C 0.84713 0.20722 0.02713 0.0
C459 C 0.86418 0.20053 0.02639 0.0
C460 C 0.8395 0.2244 0.00305 0.0
C461 C 0.84927 0.23461 0.97874 0.0
H462 H 0.87392 0.2357 0.96049 0.0
H463 H 0.87004 0.18642 0.04453 0.0
C464 C 0.93603 0.14356 0.08131 0.0
N465 N 0.92271 0.13737 0.06355 0.0
C466 C 0.93834 0.12302 0.10695 0.0
C467 C 0.91318 0.09032 0.09546 0.0
C468 C 0.91134 0.11151 0.07015 0.0
C469 C 0.92681 0.09597 0.11432 0.0
H470 H 0.9448 0.16456 0.0756 0.0
H471 H 0.90066 0.10776 0.05598 0.0
C472 C 0.91316 0.25159 0.95459 0.0
N473 N 0.92202 0.31648 0.92887 0.0
C474 C 0.92631 0.25303 0.93445 0.0
C475 C 0.90444 0.28312 0.96149 0.0
C476 C 0.93061 0.2861 0.92171 0.0
C477 C 0.90913 0.31567 0.94829 0.0
C478 C 0.94997 0.15752 0.99122 0.0
C479 C 0.95778 0.16751 0.96484 0.0
C480 C 0.95466 0.12555 0.0054 0.0
C481 C 0.97009 0.14521 0.95298 0.0
C482 C 0.96704 0.10402 0.99286 0.0
N483 N 0.97443 0.1142 0.96712 0.0
C484 C 0.93156 0.29772 0.01774 0.0
C485 C 0.95301 0.26897 0.99077 0.0
C486 C 0.94046 0.33007 0.0181 0.0
N487 N 0.93784 0.2681 0.00395 0.0
C488 C 0.96235 0.30076 0.9906 0.0
C489 C 0.95606 0.33198 0.00425 0.0
H490 H 0.91956 0.29637 0.02825 0.0
H491 H 0.95777 0.24513 0.98001 0.0
C492 C 0.91623 0.15885 0.91428 0.0
N493 N 0.92225 0.14437 0.93976 0.0
C494 C 0.91742 0.13992 0.88767 0.0
C495 C 0.93083 0.09116 0.91388 0.0
C496 C 0.92931 0.111 0.94002 0.0
C497 C 0.92479 0.10553 0.88718 0.0
H498 H 0.91015 0.18484 0.91471 0.0
H499 H 0.93354 0.09943 0.9606 0.0
O500 O 0.9106 0.21674 0.03775 0.0
O501 O 0.90153 0.14955 0.00244 0.0
O502 O 0.90911 0.21966 0.968 0.0
O503 O 0.93794 0.17904 0.00333 0.0
H504 H 0.90298 0.18765 0.08956 0.0
H505 H 0.89221 0.27555 0.03024 0.0
H506 H 0.88205 0.212 0.12443 0.0
H507 H 0.87162 0.29855 0.0663 0.0
H508 H 0.90026 0.03143 0.97535 0.0
H509 H 0.87963 0.15538 0.95911 0.0
H510 H 0.91063 0.0811 0.00725 0.0
H511 H 0.86986 0.10444 0.92796 0.0
H512 H 0.83993 0.19843 0.04604 0.0
H513 H 0.84376 0.24778 0.95972 0.0
H514 H 0.94908 0.12814 0.12076 0.0
H515 H 0.90381 0.07029 0.10055 0.0
H516 H 0.93324 0.22895 0.92894 0.0
H517 H 0.89429 0.28258 0.97713 0.0
H518 H 0.94083 0.28763 0.90623 0.0
H519 H 0.90256 0.34031 0.95359 0.0
H520 H 0.95419 0.19184 0.95333 0.0
H521 H 0.94874 0.11728 0.02575 0.0
H522 H 0.97614 0.15249 0.93247 0.0
H523 H 0.97075 0.07917 0.00355 0.0
H524 H 0.93522 0.35326 0.02931 0.0
H525 H 0.97423 0.30103 0.97939 0.0
H526 H 0.91222 0.15176 0.86783 0.0
H527 H 0.93667 0.06485 0.91463 0.0
Li528 Li 0.07617 0.22516 0.50003 0.0
Li529 Li 0.08152 0.17176 0.5273 0.0
Li530 Li 0.10385 0.20159 0.50111 0.0
Li531 Li 0.08207 0.16659 0.47323 0.0
C532 C 0.08611 0.25071 0.54921 0.0
N533 N 0.07516 0.31333 0.57618 0.0
C534 C 0.0732 0.24944 0.56985 0.0
C535 C 0.09349 0.28384 0.54238 0.0
C536 C 0.06784 0.28138 0.58324 0.0
C537 C 0.08777 0.31519 0.55622 0.0
C538 C 0.05029 0.15863 0.50994 0.0
C539 C 0.03265 0.10611 0.5067 0.0
N540 N 0.02491 0.11629 0.5321 0.0
C541 C 0.0421 0.16862 0.53596 0.0
C542 C 0.04551 0.12715 0.49514 0.0
C543 C 0.02933 0.14682 0.54683 0.0
C544 C 0.06948 0.29794 0.48339 0.0
N545 N 0.0632 0.26866 0.49767 0.0
C546 C 0.03883 0.30185 0.51096 0.0
C547 C 0.0481 0.26996 0.51103 0.0
C548 C 0.04515 0.33281 0.49692 0.0
C549 C 0.06067 0.33044 0.48284 0.0
H550 H 0.08147 0.29629 0.47284 0.0
H551 H 0.04329 0.24635 0.52203 0.0
C552 C 0.08469 0.15731 0.58817 0.0
N553 N 0.0777 0.1443 0.56296 0.0
C554 C 0.08355 0.13796 0.61459 0.0
C555 C 0.06816 0.09177 0.58873 0.0
C556 C 0.06972 0.11191 0.56274 0.0
C557 C 0.07518 0.10467 0.61518 0.0
H558 H 0.09155 0.18238 0.58762 0.0
H559 H 0.06485 0.10123 0.5423 0.0
C560 C 0.10334 0.22821 0.44712 0.0
N561 N 0.12916 0.25071 0.4113 0.0
C562 C 0.10773 0.20814 0.42212 0.0
C563 C 0.11202 0.2599 0.45374 0.0
C564 C 0.12082 0.21994 0.40432 0.0
C565 C 0.12506 0.27075 0.43542 0.0
C566 C 0.10452 0.12163 0.51825 0.0
C567 C 0.11631 0.12817 0.54028 0.0
C568 C 0.09821 0.0868 0.51438 0.0
C569 C 0.12154 0.09967 0.55826 0.0
C570 C 0.10377 0.05903 0.5328 0.0
N571 N 0.1152 0.06599 0.55419 0.0
C572 C 0.13399 0.23357 0.52129 0.0
C573 C 0.13669 0.19237 0.48148 0.0
C574 C 0.15111 0.23964 0.52142 0.0
N575 N 0.12716 0.21056 0.5013 0.0
C576 C 0.15385 0.19767 0.48076 0.0
C577 C 0.16129 0.22162 0.50091 0.0
H578 H 0.12619 0.24703 0.53728 0.0
H579 H 0.13094 0.17365 0.46624 0.0
C580 C 0.06563 0.14549 0.42041 0.0
N581 N 0.07832 0.13763 0.43917 0.0
C582 C 0.06337 0.12523 0.39461 0.0
C583 C 0.08728 0.08932 0.40801 0.0
C584 C 0.08909 0.11027 0.43346 0.0
C585 C 0.07432 0.09673 0.38809 0.0
H586 H 0.05734 0.16764 0.42544 0.0
H587 H 0.0993 0.10518 0.44843 0.0
O588 O 0.09118 0.21985 0.5352 0.0
O589 O 0.06275 0.17972 0.49875 0.0
O590 O 0.09071 0.21675 0.4651 0.0
O591 O 0.09888 0.1494 0.50106 0.0
H592 H 0.06724 0.22414 0.57528 0.0
H593 H 0.10331 0.2855 0.52614 0.0
H594 H 0.05781 0.28079 0.59914 0.0
H595 H 0.09328 0.34103 0.55095 0.0
H596 H 0.02886 0.08165 0.49551 0.0
H597 H 0.04574 0.19256 0.54796 0.0
H598 H 0.0517 0.11889 0.47505 0.0
H599 H 0.02298 0.15411 0.56705 0.0
H600 H 0.02681 0.30213 0.52166 0.0
H601 H 0.06615 0.35364 0.47201 0.0
H602 H 0.08956 0.1486 0.63415 0.0
H603 H 0.06156 0.06633 0.58802 0.0
H604 H 0.10115 0.18365 0.41653 0.0
H605 H 0.10899 0.27552 0.47319 0.0
H606 H 0.12438 0.20459 0.38497 0.0
H607 H 0.13198 0.29501 0.44047 0.0
H608 H 0.12121 0.15505 0.54372 0.0
H609 H 0.08892 0.08141 0.49766 0.0
H610 H 0.13058 0.10436 0.57553 0.0
H611 H 0.09891 0.03198 0.5302 0.0
H612 H 0.1563 0.25845 0.53725 0.0
H613 H 0.16123 0.1827 0.46493 0.0
H614 H 0.05314 0.13173 0.38001 0.0
H615 H 0.0962 0.0681 0.40362 0.0
Li616 Li 0.91792 0.83298 0.52834 0.0
Li617 Li 0.92289 0.77654 0.50444 0.0
Li618 Li 0.91809 0.83039 0.47536 0.0
Li619 Li 0.89449 0.80004 0.50203 0.0
C620 C 0.94927 0.83615 0.51835 0.0
N621 N 0.97351 0.86852 0.55257 0.0
C622 C 0.95969 0.81511 0.53609 0.0
C623 C 0.95121 0.87366 0.518 0.0
C624 C 0.97188 0.83198 0.55321 0.0
C625 C 0.96351 0.88951 0.53549 0.0
C626 C 0.90798 0.75715 0.55646 0.0
C627 C 0.89492 0.70617 0.58012 0.0
N628 N 0.90937 0.69881 0.59447 0.0
C629 C 0.92269 0.74912 0.57148 0.0
C630 C 0.89396 0.73554 0.5608 0.0
C631 C 0.92315 0.71948 0.59056 0.0
C632 C 0.91432 0.89522 0.56435 0.0
N633 N 0.92174 0.86229 0.56275 0.0
C634 C 0.93274 0.86941 0.61156 0.0
C635 C 0.93088 0.84926 0.58567 0.0
C636 C 0.92503 0.90329 0.61402 0.0
C637 C 0.91588 0.91635 0.58982 0.0
H638 H 0.90686 0.90478 0.54611 0.0
H639 H 0.93662 0.82305 0.58406 0.0
C640 C 0.95094 0.73201 0.49456 0.0
N641 N 0.93498 0.73156 0.50438 0.0
C642 C 0.96018 0.70011 0.49328 0.0
C643 C 0.9363 0.66761 0.51158 0.0
C644 C 0.92748 0.70005 0.51222 0.0
C645 C 0.9529 0.66738 0.50212 0.0
H646 H 0.95646 0.75717 0.48748 0.0
H647 H 0.91456 0.69992 0.51857 0.0
C648 C 0.89549 0.88005 0.48332 0.0
N649 N 0.88577 0.9344 0.44519 0.0
C650 C 0.88117 0.87605 0.46617 0.0
C651 C 0.9048 0.91181 0.48123 0.0
C652 C 0.87647 0.90383 0.44701 0.0
C653 C 0.89971 0.93893 0.46177 0.0
C654 C 0.91224 0.75261 0.45283 0.0
C655 C 0.92585 0.75409 0.4337 0.0
C656 C 0.90338 0.72039 0.45594 0.0
C657 C 0.93043 0.72312 0.41805 0.0
C658 C 0.90836 0.69002 0.4399 0.0
N659 N 0.92167 0.692 0.42147 0.0
C660 C 0.9359 0.87681 0.4354 0.0
C661 C 0.91131 0.84986 0.41694 0.0
C662 C 0.93814 0.8956 0.40887 0.0
N663 N 0.92253 0.85482 0.43901 0.0
C664 C 0.91308 0.86799 0.39007 0.0
C665 C 0.92659 0.89141 0.38579 0.0
H666 H 0.94475 0.87997 0.45314 0.0
H667 H 0.90079 0.83219 0.42044 0.0
C668 C 0.86209 0.80092 0.52512 0.0
N669 N 0.87141 0.79012 0.50168 0.0
C670 C 0.84495 0.79523 0.5252 0.0
C671 C 0.84736 0.76731 0.47703 0.0
C672 C 0.86444 0.77374 0.47782 0.0
C673 C 0.83737 0.77823 0.5009 0.0
H674 H 0.86801 0.8141 0.5437 0.0
H675 H 0.87211 0.76617 0.45921 0.0
O676 O 0.93713 0.82019 0.50167 0.0
O677 O 0.9072 0.78607 0.5377 0.0
O678 O 0.90059 0.85268 0.50152 0.0
O679 O 0.90788 0.78233 0.46898 0.0
H680 H 0.95828 0.78611 0.53699 0.0
H681 H 0.94313 0.89043 0.50477 0.0
H682 H 0.97998 0.81602 0.56711 0.0
H683 H 0.96507 0.91852 0.53556 0.0
H684 H 0.88417 0.68919 0.58367 0.0
H685 H 0.93376 0.76498 0.56786 0.0
H686 H 0.88248 0.7413 0.5493 0.0
H687 H 0.9345 0.71279 0.60214 0.0
H688 H 0.94008 0.85847 0.62952 0.0
H689 H 0.90952 0.94209 0.5909 0.0
H690 H 0.97294 0.70112 0.48576 0.0
H691 H 0.93009 0.64285 0.51789 0.0
H692 H 0.87386 0.85162 0.46737 0.0
H693 H 0.91596 0.91531 0.49421 0.0
H694 H 0.86547 0.90101 0.43348 0.0
H695 H 0.90687 0.96352 0.45976 0.0
H696 H 0.93291 0.77878 0.43123 0.0
H697 H 0.89296 0.71868 0.47099 0.0
H698 H 0.94099 0.72379 0.40327 0.0
H699 H 0.90169 0.66483 0.44225 0.0
H700 H 0.94885 0.913 0.40637 0.0
H701 H 0.90376 0.86427 0.37308 0.0
H702 H 0.83772 0.80379 0.54414 0.0
H703 H 0.84198 0.75465 0.45769 0.0
C704 C 0.81152 0.21984 0.9793 0.0
C705 C 0.82138 0.2311 0.00314 0.0
C706 C 0.79435 0.22544 0.97968 0.0
C707 C 0.75942 0.24812 0.03084 0.0
H708 H 0.73602 0.26638 0.95737 0.0
C709 C 0.69126 0.29809 0.02399 0.0
C710 C 0.68071 0.27776 0.00552 0.0
C711 C 0.7084 0.29214 0.02398 0.0
C712 C 0.74242 0.26113 0.97801 0.0
H713 H 0.82124 0.25773 0.04574 0.0
H714 H 0.79142 0.26907 0.04597 0.0
H715 H 0.76603 0.25772 0.95669 0.0
H716 H 0.6802 0.2347 0.97286 0.0
H717 H 0.71017 0.22559 0.97206 0.0
H718 H 0.73571 0.25295 0.05211 0.0
C719 C 0.79672 0.25473 0.02737 0.0
C720 C 0.75961 0.25593 0.97767 0.0
C721 C 0.81384 0.24849 0.02721 0.0
C722 C 0.68786 0.25146 0.98694 0.0
C723 C 0.70503 0.24602 0.98656 0.0
C724 C 0.74227 0.25401 0.03121 0.0
C725 C 0.78669 0.24308 0.00369 0.0
C726 C 0.76836 0.24915 0.00407 0.0
C727 C 0.71544 0.26623 0.00514 0.0
C728 C 0.73362 0.26037 0.00479 0.0
H729 H 0.81704 0.206 0.96062 0.0
H730 H 0.78709 0.21537 0.9613 0.0
H731 H 0.76558 0.24225 0.05157 0.0
H732 H 0.68636 0.3191 0.03816 0.0
H733 H 0.71621 0.30831 0.03831 0.0
C734 C 0.18843 0.74038 0.0077 0.0
C735 C 0.18174 0.7746 0.00142 0.0
C736 C 0.20562 0.73514 0.00835 0.0
C737 C 0.2451 0.77525 0.98234 0.0
H738 H 0.26463 0.71382 0.04246 0.0
C739 C 0.31603 0.76475 0.99977 0.0
C740 C 0.32258 0.73 0.00441 0.0
C741 C 0.29887 0.77047 0.99981 0.0
C742 C 0.25935 0.73078 0.02536 0.0
H743 H 0.18791 0.8303 0.9915 0.0
H744 H 0.21786 0.8212 0.99271 0.0
H745 H 0.23466 0.72327 0.04176 0.0
H746 H 0.31613 0.67396 0.01241 0.0
H747 H 0.28624 0.68403 0.01273 0.0
H748 H 0.26981 0.78284 0.96602 0.0
C749 C 0.20983 0.79824 0.9966 0.0
C750 C 0.24217 0.73617 0.02493 0.0
C751 C 0.19264 0.80346 0.99591 0.0
C752 C 0.31155 0.70118 0.00927 0.0
C753 C 0.29439 0.70693 0.00942 0.0
C754 C 0.26228 0.76994 0.98282 0.0
C755 C 0.21653 0.76401 0.00279 0.0
C756 C 0.23483 0.75842 0.00338 0.0
C757 C 0.28785 0.74161 0.00459 0.0
C758 C 0.2696 0.74759 0.0043 0.0
H759 H 0.18038 0.71747 0.01164 0.0
H760 H 0.21035 0.7083 0.01274 0.0
H761 H 0.23985 0.79209 0.96514 0.0
H762 H 0.32416 0.78767 0.99643 0.0
H763 H 0.29423 0.79761 0.99645 0.0
C764 C 0.8082 0.79967 0.50953 0.0
C765 C 0.81913 0.77233 0.50028 0.0
C766 C 0.79103 0.79428 0.50867 0.0
C767 C 0.75866 0.73636 0.47451 0.0
H768 H 0.73117 0.77437 0.53767 0.0
C769 C 0.68936 0.69889 0.48854 0.0
C770 C 0.67834 0.72716 0.49542 0.0
C771 C 0.70652 0.70463 0.48861 0.0
C772 C 0.73867 0.76389 0.51973 0.0
H773 H 0.82062 0.71768 0.48334 0.0
H774 H 0.79068 0.70802 0.48225 0.0
H775 H 0.76113 0.78357 0.53914 0.0
H776 H 0.67684 0.7839 0.50713 0.0
H777 H 0.70677 0.79367 0.50768 0.0
H778 H 0.73615 0.71625 0.45537 0.0
C779 C 0.79534 0.73395 0.48957 0.0
C780 C 0.75585 0.76921 0.52052 0.0
C781 C 0.81251 0.73943 0.49025 0.0
C782 C 0.68494 0.76134 0.50225 0.0
C783 C 0.7021 0.76699 0.50251 0.0
C784 C 0.7415 0.73083 0.47383 0.0
C785 C 0.78437 0.76133 0.49872 0.0
C786 C 0.76607 0.75556 0.4979 0.0
C787 C 0.71308 0.73868 0.49575 0.0
C788 C 0.73131 0.74459 0.49641 0.0
H789 H 0.81292 0.82551 0.51694 0.0
H790 H 0.78297 0.8162 0.5154 0.0
H791 H 0.7661 0.72599 0.45645 0.0
H792 H 0.68477 0.67207 0.48366 0.0
H793 H 0.71468 0.68217 0.48366 0.0
C794 C 0.18843 0.23008 0.52744 0.0
C795 C 0.17956 0.22739 0.50074 0.0
C796 C 0.20563 0.23519 0.52729 0.0
C797 C 0.24275 0.22428 0.48009 0.0
H798 H 0.26279 0.29094 0.53576 0.0
C799 C 0.31169 0.26677 0.4729 0.0
C800 C 0.32053 0.27004 0.49958 0.0
C801 C 0.29453 0.26112 0.47306 0.0
C802 C 0.25742 0.2719 0.5203 0.0
H803 H 0.1818 0.2286 0.45295 0.0
H804 H 0.21181 0.23751 0.45269 0.0
H805 H 0.23279 0.28221 0.53597 0.0
H806 H 0.31829 0.26908 0.54738 0.0
H807 H 0.28836 0.25918 0.54767 0.0
H808 H 0.26738 0.21397 0.46443 0.0
C809 C 0.20549 0.23511 0.47375 0.0
C810 C 0.24021 0.26691 0.52041 0.0
C811 C 0.18829 0.23001 0.4739 0.0
C812 C 0.31182 0.26726 0.52643 0.0
C813 C 0.29466 0.26161 0.5266 0.0
C814 C 0.25996 0.22926 0.47999 0.0
C815 C 0.21437 0.23773 0.50044 0.0
C816 C 0.23267 0.24305 0.5003 0.0
C817 C 0.2858 0.2586 0.49992 0.0
C818 C 0.2675 0.25313 0.5001 0.0
H819 H 0.18214 0.22759 0.5485 0.0
H820 H 0.21212 0.23655 0.54824 0.0
H821 H 0.23737 0.20528 0.46461 0.0
H822 H 0.31798 0.26931 0.45182 0.0
H823 H 0.28805 0.25946 0.45211 0.0
C824 C 0.56349 0.45694 0.14438 0.0
C825 C 0.56474 0.41908 0.14356 0.0
C826 C 0.56176 0.47507 0.17132 0.0
C827 C 0.57092 0.46431 0.25039 0.0
H828 H 0.54228 0.54771 0.25961 0.0
C829 C 0.56503 0.53788 0.36216 0.0
C830 C 0.56502 0.57582 0.36139 0.0
C831 C 0.56329 0.51788 0.33613 0.0
C832 C 0.55044 0.52465 0.25732 0.0
H833 H 0.56487 0.37057 0.17042 0.0
H834 H 0.56165 0.40221 0.21743 0.0
H835 H 0.54221 0.5143 0.21305 0.0
H836 H 0.56302 0.6225 0.33268 0.0
H837 H 0.56015 0.58766 0.28722 0.0
H838 H 0.57943 0.47495 0.2943 0.0
C839 C 0.56215 0.41787 0.19721 0.0
C840 C 0.55038 0.50548 0.23066 0.0
C841 C 0.56381 0.39972 0.17026 0.0
C842 C 0.56287 0.5933 0.33407 0.0
C843 C 0.5612 0.5733 0.308 0.0
C844 C 0.57103 0.48351 0.27698 0.0
C845 C 0.5613 0.45578 0.19808 0.0
C846 C 0.5607 0.47522 0.22683 0.0
C847 C 0.56158 0.53533 0.30866 0.0
C848 C 0.56087 0.51407 0.28074 0.0
H849 H 0.564 0.4726 0.12417 0.0
H850 H 0.56127 0.50429 0.17123 0.0
H851 H 0.57922 0.44148 0.248 0.0
H852 H 0.5664 0.52362 0.38293 0.0
H853 H 0.56331 0.48869 0.33755 0.0
C854 C 0.41571 0.56868 0.15582 0.0
C855 C 0.43022 0.58026 0.14138 0.0
C856 C 0.41661 0.55055 0.18282 0.0
C857 C 0.44472 0.49758 0.23052 0.0
H858 H 0.41162 0.51935 0.29022 0.0
C859 C 0.44463 0.43429 0.34861 0.0
C860 C 0.42905 0.42302 0.35924 0.0
C861 C 0.44585 0.45408 0.32228 0.0
C862 C 0.42088 0.51277 0.2737 0.0
H863 H 0.4571 0.58162 0.14403 0.0
H864 H 0.45865 0.55035 0.19162 0.0
H865 H 0.41188 0.55333 0.24415 0.0
H866 H 0.40264 0.42226 0.34971 0.0
H867 H 0.40476 0.45688 0.30421 0.0
H868 H 0.45365 0.45684 0.26027 0.0
C869 C 0.44658 0.55506 0.18179 0.0
C870 C 0.42103 0.53222 0.24727 0.0
C871 C 0.44568 0.57328 0.15468 0.0
C872 C 0.4148 0.4313 0.34262 0.0
C873 C 0.416 0.45111 0.31648 0.0
C874 C 0.4446 0.47812 0.25709 0.0
C875 C 0.43203 0.54362 0.19622 0.0
C876 C 0.43275 0.52448 0.22513 0.0
C877 C 0.4315 0.46308 0.30615 0.0
C878 C 0.43249 0.48513 0.27874 0.0
H879 H 0.40358 0.57402 0.14646 0.0
H880 H 0.40516 0.54169 0.19309 0.0
H881 H 0.45384 0.49076 0.21383 0.0
H882 H 0.45584 0.42856 0.36097 0.0
H883 H 0.45796 0.46308 0.31494 0.0
C884 C 0.43753 0.58835 0.83562 0.0
C885 C 0.42505 0.58303 0.85681 0.0
C886 C 0.43762 0.56819 0.80946 0.0
C887 C 0.41032 0.50902 0.7633 0.0
H888 H 0.45199 0.48359 0.72568 0.0
C889 C 0.41607 0.4042 0.66903 0.0
C890 C 0.42396 0.41669 0.64316 0.0
C891 C 0.41648 0.42453 0.69505 0.0
C892 C 0.44028 0.49068 0.73595 0.0
H893 H 0.40319 0.55193 0.86795 0.0
H894 H 0.4037 0.51548 0.82312 0.0
H895 H 0.45223 0.51815 0.77164 0.0
H896 H 0.43857 0.46072 0.62487 0.0
H897 H 0.43987 0.49521 0.67078 0.0
H898 H 0.39849 0.48017 0.728 0.0
C899 C 0.41309 0.53611 0.82588 0.0
C900 C 0.44037 0.51069 0.76219 0.0
C901 C 0.41283 0.55679 0.85171 0.0
C902 C 0.43259 0.44976 0.64434 0.0
C903 C 0.43327 0.46972 0.67057 0.0
C904 C 0.41027 0.48842 0.73743 0.0
C905 C 0.42539 0.54173 0.8042 0.0
C906 C 0.42538 0.52024 0.77624 0.0
C907 C 0.42508 0.45744 0.69604 0.0
C908 C 0.42523 0.47916 0.7235 0.0
H909 H 0.44702 0.60867 0.83903 0.0
H910 H 0.44712 0.57387 0.79319 0.0
H911 H 0.3985 0.51647 0.77291 0.0
H912 H 0.40964 0.37855 0.66935 0.0
H913 H 0.41022 0.41434 0.71455 0.0
C914 C 0.58696 0.45284 0.85564 0.0
C915 C 0.57699 0.4221 0.85903 0.0
C916 C 0.5863 0.47308 0.82958 0.0
C917 C 0.56092 0.48634 0.76094 0.0
H918 H 0.60084 0.53469 0.73392 0.0
C919 C 0.57066 0.54786 0.6436 0.0
C920 C 0.57515 0.58465 0.64347 0.0
C921 C 0.5703 0.52824 0.67002 0.0
C922 C 0.58961 0.52139 0.74133 0.0
H923 H 0.5587 0.38789 0.83804 0.0
H924 H 0.55811 0.42192 0.79185 0.0
H925 H 0.60161 0.49924 0.77928 0.0
H926 H 0.5824 0.62953 0.67168 0.0
H927 H 0.58259 0.5946 0.71736 0.0
H928 H 0.54925 0.50749 0.72191 0.0
C929 C 0.56601 0.43147 0.80956 0.0
C930 C 0.58996 0.50127 0.76747 0.0
C931 C 0.56641 0.41173 0.83592 0.0
C932 C 0.57926 0.60114 0.67059 0.0
C933 C 0.57925 0.58129 0.69687 0.0
C934 C 0.56069 0.50582 0.73444 0.0
C935 C 0.57593 0.46252 0.80599 0.0
C936 C 0.57558 0.48363 0.77782 0.0
C937 C 0.57476 0.54472 0.69679 0.0
C938 C 0.575 0.52368 0.72456 0.0
H939 H 0.5951 0.46149 0.87335 0.0
H940 H 0.59384 0.49721 0.82814 0.0
H941 H 0.54949 0.47386 0.76832 0.0
H942 H 0.56773 0.53385 0.62325 0.0
H943 H 0.56692 0.49993 0.66946 0.0
C944 C 0.06931 0.95151 0.14367 0.0
C945 C 0.07333 0.91456 0.14372 0.0
C946 C 0.06834 0.97081 0.17023 0.0
C947 C 0.08298 0.96775 0.24767 0.0
H948 H 0.04919 0.04064 0.26062 0.0
C949 C 0.07518 0.03779 0.36059 0.0
C950 C 0.07254 0.07531 0.36042 0.0
C951 C 0.07434 0.01787 0.33437 0.0
C952 C 0.0588 0.0206 0.25723 0.0
H953 H 0.07884 0.86864 0.17181 0.0
H954 H 0.07708 0.90219 0.21806 0.0
H955 H 0.0494 0.00644 0.21444 0.0
H956 H 0.06681 0.12125 0.33247 0.0
H957 H 0.06534 0.08648 0.28671 0.0
H958 H 0.09245 0.98194 0.2903 0.0
C959 C 0.07502 0.91647 0.19748 0.0
C960 C 0.05892 0.001 0.23076 0.0
C961 C 0.07602 0.89722 0.17096 0.0
C962 C 0.0687 0.09232 0.33346 0.0
C963 C 0.06787 0.07238 0.30721 0.0
C964 C 0.08285 0.98729 0.27409 0.0
C965 C 0.07133 0.95358 0.19745 0.0
C966 C 0.07102 0.97432 0.22566 0.0
C967 C 0.07085 0.03497 0.30731 0.0
C968 C 0.07077 0.01396 0.27923 0.0
H969 H 0.06736 0.96577 0.12305 0.0
H970 H 0.06567 0.99945 0.16936 0.0
H971 H 0.09267 0.9479 0.24427 0.0
H972 H 0.07787 0.02373 0.38104 0.0
H973 H 0.07639 0.98899 0.33534 0.0
C974 C 0.92493 0.89484 0.33037 0.0
C975 C 0.92842 0.91165 0.35755 0.0
C976 C 0.92588 0.91422 0.30391 0.0
C977 C 0.94314 0.99732 0.27016 0.0
H978 H 0.90807 0.9825 0.21267 0.0
C979 C 0.93353 0.0905 0.16849 0.0
C980 C 0.92869 0.07418 0.14176 0.0
C981 C 0.93443 0.07027 0.19459 0.0
C982 C 0.91809 0.98665 0.22828 0.0
H983 H 0.93576 0.96206 0.37814 0.0
H984 H 0.9374 0.99594 0.33193 0.0
H985 H 0.90798 0.94803 0.25848 0.0
H986 H 0.92165 0.02347 0.12132 0.0
H987 H 0.92328 0.98822 0.16673 0.0
H988 H 0.95317 0.03616 0.23991 0.0
C989 C 0.93413 0.9676 0.33107 0.0
C990 C 0.91804 0.96686 0.25458 0.0
C991 C 0.93319 0.94817 0.35756 0.0
C992 C 0.92513 0.03701 0.14163 0.0
C993 C 0.92605 0.01681 0.16768 0.0
C994 C 0.94319 0.01715 0.24379 0.0
C995 C 0.93032 0.95094 0.30394 0.0
C996 C 0.93056 0.97191 0.27585 0.0
C997 C 0.93052 0.03326 0.19456 0.0
C998 C 0.93066 0.01203 0.22252 0.0
H999 H 0.9215 0.86658 0.32952 0.0
H1000 H 0.92317 0.90037 0.28338 0.0
H1001 H 0.95308 0.00157 0.28591 0.0
H1002 H 0.93616 0.11915 0.16944 0.0
H1003 H 0.93773 0.08389 0.21495 0.0
C1004 C 0.92819 0.96184 0.64173 0.0
C1005 C 0.92598 0.92418 0.64207 0.0
C1006 C 0.92865 0.98144 0.66818 0.0
C1007 C 0.91521 0.97682 0.74601 0.0
H1008 H 0.94767 0.0527 0.75812 0.0
C1009 C 0.92301 0.04701 0.85907 0.0
C1010 C 0.92576 0.0845 0.85914 0.0
C1011 C 0.9235 0.02741 0.83266 0.0
C1012 C 0.93839 0.03189 0.75497 0.0
H1013 H 0.92238 0.87767 0.67051 0.0
H1014 H 0.92335 0.91177 0.71658 0.0
H1015 H 0.94758 0.01889 0.71179 0.0
H1016 H 0.93153 0.1306 0.83136 0.0
H1017 H 0.93192 0.09664 0.78525 0.0
H1018 H 0.90586 0.98996 0.78894 0.0
C1019 C 0.92466 0.92618 0.69586 0.0
C1020 C 0.93836 0.01249 0.72842 0.0
C1021 C 0.92429 0.90658 0.66946 0.0
C1022 C 0.92915 0.10184 0.83212 0.0
C1023 C 0.92959 0.08226 0.80569 0.0
C1024 C 0.91518 0.9963 0.77248 0.0
C1025 C 0.92677 0.96385 0.69554 0.0
C1026 C 0.9268 0.98467 0.72367 0.0
C1027 C 0.9267 0.04481 0.80559 0.0
C1028 C 0.92679 0.02405 0.77735 0.0
H1029 H 0.92965 0.97616 0.621 0.0
H1030 H 0.93017 0.01047 0.66717 0.0
H1031 H 0.90596 0.95595 0.74284 0.0
H1032 H 0.92017 0.03279 0.87938 0.0
H1033 H 0.92143 0.99854 0.8335 0.0
C1034 C 0.07489 0.95982 0.85974 0.0
C1035 C 0.07485 0.92187 0.85955 0.0
C1036 C 0.07417 0.97921 0.83323 0.0
C1037 C 0.08347 0.97137 0.75397 0.0
H1038 H 0.05438 0.05423 0.74602 0.0
C1039 C 0.07547 0.04535 0.64245 0.0
C1040 C 0.07417 0.08323 0.64303 0.0
C1041 C 0.07492 0.02533 0.66865 0.0
C1042 C 0.06274 0.03144 0.74795 0.0
H1043 H 0.07414 0.87451 0.83139 0.0
H1044 H 0.07288 0.90839 0.78508 0.0
H1045 H 0.05474 0.02022 0.79222 0.0
H1046 H 0.07096 0.12956 0.67186 0.0
H1047 H 0.07062 0.09485 0.7175 0.0
H1048 H 0.09176 0.98286 0.71005 0.0
C1049 C 0.07348 0.92312 0.80575 0.0
C1050 C 0.0629 0.01191 0.77443 0.0
C1051 C 0.07404 0.90373 0.83227 0.0
C1052 C 0.07221 0.10049 0.67053 0.0
C1053 C 0.07178 0.08049 0.69674 0.0
C1054 C 0.08342 0.99106 0.72759 0.0
C1055 C 0.07356 0.96107 0.80593 0.0
C1056 C 0.07326 0.98166 0.77773 0.0
C1057 C 0.07318 0.04264 0.69619 0.0
C1058 C 0.07306 0.02138 0.7242 0.0
H1059 H 0.0754 0.97453 0.88043 0.0
H1060 H 0.07439 0.00844 0.83406 0.0
H1061 H 0.09176 0.94847 0.75599 0.0
H1062 H 0.07721 0.0311 0.62177 0.0
H1063 H 0.07582 0.99621 0.66727 0.0
C1064 C 0.46457 0.8916 0.97688 0.0
C1065 C 0.46586 0.86765 0.00081 0.0
C1066 C 0.4733 0.92422 0.97696 0.0
C1067 C 0.49638 0.98679 0.02721 0.0
H1068 H 0.51256 0.026 0.95307 0.0
C1069 C 0.54314 0.10548 0.01866 0.0
C1070 C 0.53833 0.1341 0.99998 0.0
C1071 C 0.53423 0.07308 0.019 0.0
C1072 C 0.50803 0.01539 0.9739 0.0
H1073 H 0.47745 0.8585 0.04334 0.0
H1074 H 0.49328 0.91462 0.04307 0.0
H1075 H 0.49755 0.96886 0.95319 0.0
H1076 H 0.52008 0.15065 0.96725 0.0
H1077 H 0.50507 0.09351 0.96705 0.0
H1078 H 0.5075 0.033 0.04785 0.0
C1079 C 0.48512 0.90905 0.02461 0.0
C1080 C 0.49932 0.98274 0.97402 0.0
C1081 C 0.47613 0.87674 0.02475 0.0
C1082 C 0.52444 0.12915 0.98148 0.0
C1083 C 0.51574 0.09648 0.98145 0.0
C1084 C 0.50536 0.0191 0.02711 0.0
C1085 C 0.48379 0.93337 0.00075 0.0
C1086 C 0.49328 0.96803 0.00067 0.0
C1087 C 0.52051 0.06824 1.0003 0.0
C1088 C 0.51118 0.03377 0.00044 0.0
H1089 H 0.45658 0.88534 0.9583 0.0
H1090 H 0.47162 0.94244 0.95848 0.0
H1091 H 0.49168 0.97688 0.04811 0.0
H1092 H 0.55393 0.10781 0.03279 0.0
H1093 H 0.53826 0.05152 0.03353 0.0
C1094 C 0.53 0.88325 0.4684 0.0
C1095 C 0.53772 0.87123 0.49447 0.0
C1096 C 0.52149 0.91617 0.46785 0.0
C1097 C 0.50216 0.98388 0.51783 0.0
H1098 H 0.50327 0.04473 0.44805 0.0
C1099 C 0.47635 0.1291 0.51757 0.0
C1100 C 0.46606 0.1387 0.49368 0.0
C1101 C 0.48539 0.09691 0.51709 0.0
C1102 C 0.50276 0.02787 0.46761 0.0
H1103 H 0.54303 0.88475 0.54013 0.0
H1104 H 0.52853 0.94246 0.53907 0.0
H1105 H 0.51866 0.98794 0.44842 0.0
H1106 H 0.45738 0.12178 0.45038 0.0
H1107 H 0.47346 0.06592 0.44937 0.0
H1108 H 0.48647 0.02417 0.53713 0.0
C1109 C 0.52861 0.9261 0.51923 0.0
C1110 C 0.51153 0.99526 0.46782 0.0
C1111 C 0.53697 0.89305 0.51984 0.0
C1112 C 0.46534 0.11557 0.469 0.0
C1113 C 0.47451 0.08349 0.46843 0.0
C1114 C 0.49353 0.01661 0.5177 0.0
C1115 C 0.52064 0.938 0.49329 0.0
C1116 C 0.51134 0.97281 0.49295 0.0
C1117 C 0.4845 0.07365 0.49261 0.0
C1118 C 0.49373 0.03895 0.4926 0.0
H1119 H 0.53024 0.86681 0.44859 0.0
H1120 H 0.51531 0.92413 0.44761 0.0
H1121 H 0.50142 0.96703 0.53736 0.0
H1122 H 0.47753 0.14656 0.53666 0.0
H1123 H 0.49319 0.09032 0.53585 0.0
C1124 C 0.02105 0.63221 0.99795 0.0
C1125 C 0.03839 0.63261 0.00166 0.0
C1126 C 0.01227 0.59966 0.99849 0.0
C1127 C 0.01764 0.50112 0.9892 0.0
H1128 H 0.97511 0.49619 0.0292 0.0
C1129 C 0.98294 0.36629 0.00805 0.0
C1130 C 0.96563 0.36635 0.00397 0.0
C1131 C 0.9919 0.39864 0.00789 0.0
C1132 C 0.98688 0.4972 0.01765 0.0
H1133 H 0.06002 0.59903 0.00939 0.0
H1134 H 0.04469 0.54226 0.01035 0.0
H1135 H 0.99057 0.55277 0.02887 0.0
H1136 H 0.94423 0.40054 0.99587 0.0
H1137 H 0.95984 0.45691 0.99564 0.0
H1138 H 0.01394 0.44553 0.97798 0.0
C1139 C 0.03792 0.56709 0.00655 0.0
C1140 C 0.99575 0.52965 0.01746 0.0
C1141 C 0.04671 0.59965 0.006 0.0
C1142 C 0.95751 0.39955 0.99961 0.0
C1143 C 0.96646 0.43188 0.99947 0.0
C1144 C 0.00877 0.46865 0.9894 0.0
C1145 C 0.02059 0.56669 0.00277 0.0
C1146 C 0.01122 0.53204 0.00319 0.0
C1147 C 0.98376 0.43184 0.00364 0.0
C1148 C 0.99327 0.46631 0.00358 0.0
H1149 H 0.01428 0.65704 0.9941 0.0
H1150 H 0.99896 0.6003 0.99504 0.0
H1151 H 0.0294 0.50215 0.97761 0.0
H1152 H 0.98956 0.34127 0.01188 0.0
H1153 H 0.00518 0.39768 0.01158 0.0
C1154 C 0.02677 0.37805 0.52248 0.0
C1155 C 0.03567 0.36736 0.49717 0.0
C1156 C 0.01784 0.41043 0.52275 0.0
C1157 C 0.01508 0.49924 0.48642 0.0
H1158 H 0.97073 0.50103 0.51974 0.0
C1159 C 0.97259 0.62462 0.47698 0.0
C1160 C 0.96251 0.63315 0.50137 0.0
C1161 C 0.9815 0.59222 0.47622 0.0
C1162 C 0.98318 0.50118 0.5107 0.0
H1163 H 0.04195 0.38243 0.45216 0.0
H1164 H 0.02654 0.43912 0.45281 0.0
H1165 H 0.98635 0.44468 0.51908 0.0
H1166 H 0.95413 0.61472 0.54434 0.0
H1167 H 0.96987 0.55853 0.54331 0.0
H1168 H 0.01205 0.55578 0.47837 0.0
C1169 C 0.02661 0.42251 0.47253 0.0
C1170 C 0.99211 0.46882 0.51027 0.0
C1171 C 0.03547 0.39002 0.47219 0.0
C1172 C 0.96161 0.60867 0.52505 0.0
C1173 C 0.97061 0.5764 0.5244 0.0
C1174 C 0.00619 0.53168 0.48701 0.0
C1175 C 0.01767 0.43304 0.49779 0.0
C1176 C 0.00817 0.46746 0.49813 0.0
C1177 C 0.98064 0.56766 0.49993 0.0
C1178 C 0.99012 0.53309 0.49917 0.0
H1179 H 0.02689 0.36166 0.54232 0.0
H1180 H 0.01128 0.41805 0.54271 0.0
H1181 H 0.02751 0.49918 0.47725 0.0
H1182 H 0.97336 0.64274 0.45822 0.0
H1183 H 0.98886 0.58617 0.4568 0.0
loop_
_geom_bond_atom_site_label_1
_geom_bond_atom_site_label_2
_geom_bond_distance
_geom_bond_site_symmetry_2
_ccdc_geom_bond_type
Li0 N17 1.990 . S
Li0 O60 1.936 1_554 S
Li0 O61 1.970 . S
Li0 O62 1.986 . S
Li1 N25 1.991 . S
Li1 O60 1.969 1_554 S
Li1 O61 1.983 . S
Li1 O63 1.933 1_554 S
Li2 N47 1.990 . S
Li2 O60 1.980 . S
Li2 O62 1.930 1_556 S
Li2 O63 1.970 . S
Li3 N53 1.991 . S
Li3 O61 1.939 1_556 S
Li3 O62 1.969 1_556 S
Li3 O63 1.977 . S
C4 C6 1.346 . S
C4 C7 1.357 1_554 S
C4 O60 1.324 1_554 S
N5 C8 1.314 . S
N5 C9 1.279 1_554 S
C6 C4 1.346 . S
C6 C8 1.353 . S
C6 H64 0.929 . S
C7 C4 1.357 1_556 S
C7 C9 1.358 . S
C7 H65 0.930 . S
C8 N5 1.314 . S
C8 C6 1.353 . S
C8 H66 0.930 . S
C9 N5 1.279 1_556 S
C9 C7 1.358 . S
C9 H67 0.930 . S
C10 C13 1.348 . S
C10 C14 1.356 . S
C10 O61 1.325 . S
C11 N12 1.279 . S
C11 C14 1.358 . S
C11 H68 0.930 . S
N12 C11 1.279 . S
N12 C15 1.314 . S
C13 C10 1.348 . S
C13 C15 1.353 . S
C13 H69 0.929 . S
C14 C10 1.356 . S
C14 C11 1.358 . S
C14 H70 0.930 . S
C15 N12 1.314 . S
C15 C13 1.353 . S
C15 H71 0.930 . S
C16 N17 1.314 . S
C16 C21 1.353 . S
C16 H22 0.930 . S
N17 Li0 1.990 . S
N17 C16 1.314 . S
N17 C19 1.279 . S
C18 C19 1.358 . S
C18 C20 1.356 . S
C18 H72 0.930 . S
C19 N17 1.279 . S
C19 C18 1.358 . S
C19 H23 0.930 . S
C20 C18 1.356 . S
C20 C21 1.348 . S
C21 C16 1.353 . S
C21 C20 1.348 . S
C21 H73 0.929 . S
H22 C16 0.930 . S
H23 C19 0.930 . S
C24 N25 1.314 1_556 S
C24 C26 1.353 . S
C24 H30 0.930 . S
N25 Li1 1.991 . S
N25 C24 1.314 1_554 S
N25 C28 1.279 . S
C26 C24 1.353 . S
C26 C29 1.345 1_556 S
C26 H74 0.929 . S
C27 C28 1.358 . S
C27 C29 1.359 . S
C27 H75 0.930 . S
C28 N25 1.279 . S
C28 C27 1.358 . S
C28 H31 0.930 . S
C29 C26 1.345 1_554 S
C29 C27 1.359 . S
H30 C24 0.930 . S
H31 C28 0.930 . S
C32 C34 1.346 1_554 S
C32 C35 1.357 . S
C32 O62 1.324 . S
N33 C36 1.314 . S
N33 C37 1.279 1_556 S
C34 C32 1.346 1_556 S
C34 C36 1.353 . S
C34 H76 0.929 . S
C35 C32 1.357 . S
C35 C37 1.358 . S
C35 H77 0.930 . S
C36 N33 1.314 . S
C36 C34 1.353 . S
C36 H78 0.930 . S
C37 N33 1.279 1_554 S
C37 C35 1.358 . S
C37 H79 0.930 . S
C38 C39 1.348 . S
C38 C40 1.356 . S
C38 O63 1.325 . S
C39 C38 1.348 . S
C39 C41 1.353 . S
C39 H80 0.929 . S
C40 C38 1.356 . S
C40 C42 1.358 . S
C40 H81 0.930 . S
C41 C39 1.353 . S
C41 N43 1.314 . S
C41 H82 0.930 . S
C42 C40 1.358 . S
C42 N43 1.279 . S
C42 H83 0.930 . S
N43 C41 1.314 . S
N43 C42 1.279 . S
C44 C46 1.353 . S
C44 N47 1.314 . S
C44 H50 0.930 . S
C45 N47 1.279 . S
C45 C48 1.358 . S
C45 H51 0.930 . S
C46 C44 1.353 . S
C46 C49 1.348 . S
C46 H84 0.929 . S
N47 Li2 1.990 . S
N47 C44 1.314 . S
N47 C45 1.279 . S
C48 C45 1.358 . S
C48 C49 1.356 . S
C48 H85 0.930 . S
C49 C46 1.348 . S
C49 C48 1.356 . S
H50 C44 0.930 . S
H51 C45 0.930 . S
C52 N53 1.314 1_554 S
C52 C54 1.353 . S
C52 H58 0.930 . S
N53 Li3 1.991 . S
N53 C52 1.314 1_556 S
N53 C56 1.279 . S
C54 C52 1.353 . S
C54 C57 1.345 . S
C54 H86 0.929 . S
C55 C56 1.358 . S
C55 C57 1.359 1_556 S
C55 H87 0.930 . S
C56 N53 1.279 . S
C56 C55 1.358 . S
C56 H59 0.930 . S
C57 C54 1.345 . S
C57 C55 1.359 1_554 S
H58 C52 0.930 . S
H59 C56 0.930 . S
O60 Li0 1.936 1_556 S
O60 Li1 1.969 1_556 S
O60 Li2 1.980 . S
O60 C4 1.324 1_556 S
O61 Li0 1.970 . S
O61 Li1 1.983 . S
O61 Li3 1.939 1_554 S
O61 C10 1.325 . S
O62 Li0 1.986 . S
O62 Li2 1.930 1_554 S
O62 Li3 1.969 1_554 S
O62 C32 1.324 . S
O63 Li1 1.933 1_556 S
O63 Li2 1.970 . S
O63 Li3 1.977 . S
O63 C38 1.325 . S
H64 C6 0.929 . S
H65 C7 0.930 . S
H66 C8 0.930 . S
H67 C9 0.930 . S
H68 C11 0.930 . S
H69 C13 0.929 . S
H70 C14 0.930 . S
H71 C15 0.930 . S
H72 C18 0.930 . S
H73 C21 0.929 . S
H74 C26 0.929 . S
H75 C27 0.930 . S
H76 C34 0.929 . S
H77 C35 0.930 . S
H78 C36 0.930 . S
H79 C37 0.930 . S
H80 C39 0.929 . S
H81 C40 0.930 . S
H82 C41 0.930 . S
H83 C42 0.930 . S
H84 C46 0.929 . S
H85 C48 0.930 . S
H86 C54 0.929 . S
H87 C55 0.930 . S
Li88 N105 1.991 . S
Li88 O148 1.983 . S
Li88 O149 1.969 1_554 S
Li88 O150 1.933 1_554 S
Li89 N113 1.990 . S
Li89 O148 1.970 . S
Li89 O149 1.936 1_554 S
Li89 O151 1.986 . S
Li90 N135 1.991 . S
Li90 O148 1.939 1_556 S
Li90 O150 1.977 . S
Li90 O151 1.969 1_556 S
Li91 N141 1.990 . S
Li91 O149 1.980 . S
Li91 O150 1.970 . S
Li91 O151 1.930 1_556 S
C92 C94 1.348 . S
C92 C95 1.356 . S
C92 O148 1.325 . S
N93 C96 1.314 . S
N93 C97 1.279 . S
C94 C92 1.348 . S
C94 C96 1.353 . S
C94 H152 0.929 . S
C95 C92 1.356 . S
C95 C97 1.358 . S
C95 H153 0.930 . S
C96 N93 1.314 . S
C96 C94 1.353 . S
C96 H154 0.930 . S
C97 N93 1.279 . S
C97 C95 1.358 . S
C97 H155 0.930 . S
C98 C101 1.346 . S
C98 C102 1.357 1_554 S
C98 O149 1.324 1_554 S
C99 N100 1.279 1_556 S
C99 C102 1.358 . S
C99 H156 0.930 . S
N100 C99 1.279 1_554 S
N100 C103 1.314 . S
C101 C98 1.346 . S
C101 C103 1.353 . S
C101 H157 0.929 . S
C102 C98 1.357 1_556 S
C102 C99 1.358 . S
C102 H158 0.930 . S
C103 N100 1.314 . S
C103 C101 1.353 . S
C103 H159 0.930 . S
C104 N105 1.314 1_556 S
C104 C109 1.353 . S
C104 H110 0.930 . S
N105 Li88 1.991 . S
N105 C104 1.314 1_554 S
N105 C107 1.279 . S
C106 C107 1.358 . S
C106 C108 1.359 . S
C106 H160 0.930 . S
C107 N105 1.279 . S
C107 C106 1.358 . S
C107 H111 0.930 . S
C108 C106 1.359 . S
C108 C109 1.345 1_554 S
C109 C104 1.353 . S
C109 C108 1.345 1_556 S
C109 H161 0.929 . S
H110 C104 0.930 . S
H111 C107 0.930 . S
C112 N113 1.314 . S
C112 C114 1.353 . S
C112 H118 0.930 . S
N113 Li89 1.990 . S
N113 C112 1.314 . S
N113 C116 1.279 . S
C114 C112 1.353 . S
C114 C117 1.348 . S
C114 H162 0.929 . S
C115 C116 1.358 . S
C115 C117 1.356 . S
C115 H163 0.930 . S
C116 N113 1.279 . S
C116 C115 1.358 . S
C116 H119 0.930 . S
C117 C114 1.348 . S
C117 C115 1.356 . S
H118 C112 0.930 . S
H119 C116 0.930 . S
C120 C122 1.348 . S
C120 C123 1.356 . S
C120 O150 1.325 . S
N121 C124 1.314 . S
N121 C125 1.279 . S
C122 C120 1.348 . S
C122 C124 1.353 . S
C122 H164 0.929 . S
C123 C120 1.356 . S
C123 C125 1.358 . S
C123 H165 0.930 . S
C124 N121 1.314 . S
C124 C122 1.353 . S
C124 H166 0.930 . S
C125 N121 1.279 . S
C125 C123 1.358 . S
C125 H167 0.930 . S
C126 C127 1.346 1_554 S
C126 C128 1.357 . S
C126 O151 1.324 . S
C127 C126 1.346 1_556 S
C127 C129 1.353 . S
C127 H168 0.929 . S
C128 C126 1.357 . S
C128 C130 1.358 . S
C128 H169 0.930 . S
C129 C127 1.353 . S
C129 N131 1.314 . S
C129 H170 0.930 . S
C130 C128 1.358 . S
C130 N131 1.279 1_554 S
C130 H171 0.930 . S
N131 C129 1.314 . S
N131 C130 1.279 1_556 S
C132 C134 1.353 . S
C132 N135 1.314 1_554 S
C132 H138 0.930 . S
C133 N135 1.279 . S
C133 C136 1.358 . S
C133 H139 0.930 . S
C134 C132 1.353 . S
C134 C137 1.345 . S
C134 H172 0.929 . S
N135 Li90 1.991 . S
N135 C132 1.314 1_556 S
N135 C133 1.279 . S
C136 C133 1.358 . S
C136 C137 1.359 1_556 S
C136 H173 0.930 . S
C137 C134 1.345 . S
C137 C136 1.359 1_554 S
H138 C132 0.930 . S
H139 C133 0.930 . S
C140 N141 1.314 . S
C140 C142 1.353 . S
C140 H146 0.930 . S
N141 Li91 1.990 . S
N141 C140 1.314 . S
N141 C144 1.279 . S
C142 C140 1.353 . S
C142 C145 1.348 . S
C142 H174 0.929 . S
C143 C144 1.358 . S
C143 C145 1.356 . S
C143 H175 0.930 . S
C144 N141 1.279 . S
C144 C143 1.358 . S
C144 H147 0.930 . S
C145 C142 1.348 . S
C145 C143 1.356 . S
H146 C140 0.930 . S
H147 C144 0.930 . S
O148 Li88 1.983 . S
O148 Li89 1.970 . S
O148 Li90 1.939 1_554 S
O148 C92 1.325 . S
O149 Li88 1.969 1_556 S
O149 Li89 1.936 1_556 S
O149 Li91 1.980 . S
O149 C98 1.324 1_556 S
O150 Li88 1.933 1_556 S
O150 Li90 1.977 . S
O150 Li91 1.970 . S
O150 C120 1.325 . S
O151 Li89 1.986 . S
O151 Li90 1.969 1_554 S
O151 Li91 1.930 1_554 S
O151 C126 1.324 . S
H152 C94 0.929 . S
H153 C95 0.930 . S
H154 C96 0.930 . S
H155 C97 0.930 . S
H156 C99 0.930 . S
H157 C101 0.929 . S
H158 C102 0.930 . S
H159 C103 0.930 . S
H160 C106 0.930 . S
H161 C109 0.929 . S
H162 C114 0.929 . S
H163 C115 0.930 . S
H164 C122 0.929 . S
H165 C123 0.930 . S
H166 C124 0.930 . S
H167 C125 0.930 . S
H168 C127 0.929 . S
H169 C128 0.930 . S
H170 C129 0.930 . S
H171 C130 0.930 . S
H172 C134 0.929 . S
H173 C136 0.930 . S
H174 C142 0.929 . S
H175 C143 0.930 . S
Li176 N193 1.990 . S
Li176 O236 1.956 . S
Li176 O237 1.970 . S
Li176 O238 1.961 . S
Li177 N201 1.990 . S
Li177 O236 1.970 . S
Li177 O237 1.956 . S
Li177 O239 1.961 . S
Li178 N223 1.990 . S
Li178 O236 1.961 . S
Li178 O238 1.956 . S
Li178 O239 1.970 . S
Li179 N229 1.990 . S
Li179 O237 1.961 . S
Li179 O238 1.970 . S
Li179 O239 1.956 . S
C180 C182 1.348 . S
C180 C183 1.356 . S
C180 O236 1.325 . S
N181 C184 1.314 . S
N181 C185 1.279 . S
C182 C180 1.348 . S
C182 C184 1.353 . S
C182 H240 0.929 . S
C183 C180 1.356 . S
C183 C185 1.358 . S
C183 H241 0.930 . S
C184 N181 1.314 . S
C184 C182 1.353 . S
C184 H242 0.930 . S
C185 N181 1.279 . S
C185 C183 1.358 . S
C185 H243 0.930 . S
C186 C189 1.348 . S
C186 C190 1.356 . S
C186 O237 1.325 . S
C187 N188 1.279 . S
C187 C190 1.358 . S
C187 H244 0.930 . S
N188 C187 1.279 . S
N188 C191 1.314 . S
C189 C186 1.348 . S
C189 C191 1.353 . S
C189 H245 0.929 . S
C190 C186 1.356 . S
C190 C187 1.358 . S
C190 H246 0.930 . S
C191 N188 1.314 . S
C191 C189 1.353 . S
C191 H247 0.930 . S
C192 N193 1.314 . S
C192 C197 1.353 . S
C192 H198 0.930 . S
N193 Li176 1.990 . S
N193 C192 1.314 . S
N193 C195 1.279 . S
C194 C195 1.358 . S
C194 C196 1.356 . S
C194 H248 0.930 . S
C195 N193 1.279 . S
C195 C194 1.358 . S
C195 H199 0.930 . S
C196 C194 1.356 . S
C196 C197 1.348 . S
C197 C192 1.353 . S
C197 C196 1.348 . S
C197 H249 0.929 . S
H198 C192 0.930 . S
H199 C195 0.930 . S
C200 N201 1.314 . S
C200 C202 1.353 . S
C200 H206 0.930 . S
N201 Li177 1.990 . S
N201 C200 1.314 . S
N201 C204 1.279 . S
C202 C200 1.353 . S
C202 C205 1.348 . S
C202 H250 0.929 . S
C203 C204 1.358 . S
C203 C205 1.356 . S
C203 H251 0.930 . S
C204 N201 1.279 . S
C204 C203 1.358 . S
C204 H207 0.930 . S
C205 C202 1.348 . S
C205 C203 1.356 . S
H206 C200 0.930 . S
H207 C204 0.930 . S
C208 C210 1.348 . S
C208 C211 1.356 . S
C208 O238 1.325 . S
N209 C212 1.314 . S
N209 C213 1.279 . S
C210 C208 1.348 . S
C210 C212 1.353 . S
C210 H252 0.929 . S
C211 C208 1.356 . S
C211 C213 1.358 . S
C211 H253 0.930 . S
C212 N209 1.314 . S
C212 C210 1.353 . S
C212 H254 0.930 . S
C213 N209 1.279 . S
C213 C211 1.358 . S
C213 H255 0.930 . S
C214 C215 1.348 . S
C214 C216 1.356 . S
C214 O239 1.325 . S
C215 C214 1.348 . S
C215 C217 1.353 . S
C215 H256 0.929 . S
C216 C214 1.356 . S
C216 C218 1.358 . S
C216 H257 0.930 . S
C217 C215 1.353 . S
C217 N219 1.314 . S
C217 H258 0.930 . S
C218 C216 1.358 . S
C218 N219 1.279 . S
C218 H259 0.930 . S
N219 C217 1.314 . S
N219 C218 1.279 . S
C220 C222 1.353 . S
C220 N223 1.314 . S
C220 H226 0.930 . S
C221 N223 1.279 . S
C221 C224 1.358 . S
C221 H227 0.930 . S
C222 C220 1.353 . S
C222 C225 1.348 . S
C222 H260 0.929 . S
N223 Li178 1.990 . S
N223 C220 1.314 . S
N223 C221 1.279 . S
C224 C221 1.358 . S
C224 C225 1.356 . S
C224 H261 0.930 . S
C225 C222 1.348 . S
C225 C224 1.356 . S
H226 C220 0.930 . S
H227 C221 0.930 . S
C228 N229 1.314 . S
C228 C230 1.353 . S
C228 H234 0.930 . S
N229 Li179 1.990 . S
N229 C228 1.314 . S
N229 C232 1.279 . S
C230 C228 1.353 . S
C230 C233 1.348 . S
C230 H262 0.929 . S
C231 C232 1.358 . S
C231 C233 1.356 . S
C231 H263 0.930 . S
C232 N229 1.279 . S
C232 C231 1.358 . S
C232 H235 0.930 . S
C233 C230 1.348 . S
C233 C231 1.356 . S
H234 C228 0.930 . S
H235 C232 0.930 . S
O236 Li176 1.956 . S
O236 Li177 1.970 . S
O236 Li178 1.961 . S
O236 C180 1.325 . S
O237 Li176 1.970 . S
O237 Li177 1.956 . S
O237 Li179 1.961 . S
O237 C186 1.325 . S
O238 Li176 1.961 . S
O238 Li178 1.956 . S
O238 Li179 1.970 . S
O238 C208 1.325 . S
O239 Li177 1.961 . S
O239 Li178 1.970 . S
O239 Li179 1.956 . S
O239 C214 1.325 . S
H240 C182 0.929 . S
H241 C183 0.930 . S
H242 C184 0.930 . S
H243 C185 0.930 . S
H244 C187 0.930 . S
H245 C189 0.929 . S
H246 C190 0.930 . S
H247 C191 0.930 . S
H248 C194 0.930 . S
H249 C197 0.929 . S
H250 C202 0.929 . S
H251 C203 0.930 . S
H252 C210 0.929 . S
H253 C211 0.930 . S
H254 C212 0.930 . S
H255 C213 0.930 . S
H256 C215 0.929 . S
H257 C216 0.930 . S
H258 C217 0.930 . S
H259 C218 0.930 . S
H260 C222 0.929 . S
H261 C224 0.930 . S
H262 C230 0.929 . S
H263 C231 0.930 . S
Li264 N281 1.990 . S
Li264 O324 1.956 . S
Li264 O325 1.970 . S
Li264 O326 1.961 . S
Li265 N289 1.990 . S
Li265 O324 1.970 . S
Li265 O325 1.956 . S
Li265 O327 1.961 . S
Li266 N311 1.990 . S
Li266 O324 1.961 . S
Li266 O326 1.956 . S
Li266 O327 1.970 . S
Li267 N317 1.990 . S
Li267 O325 1.961 . S
Li267 O326 1.970 . S
Li267 O327 1.956 . S
C268 C270 1.348 . S
C268 C271 1.356 . S
C268 O324 1.325 . S
N269 C272 1.314 . S
N269 C273 1.279 . S
C270 C268 1.348 . S
C270 C272 1.353 . S
C270 H328 0.929 . S
C271 C268 1.356 . S
C271 C273 1.358 . S
C271 H329 0.930 . S
C272 N269 1.314 . S
C272 C270 1.353 . S
C272 H330 0.930 . S
C273 N269 1.279 . S
C273 C271 1.358 . S
C273 H331 0.930 . S
C274 C277 1.348 . S
C274 C278 1.356 . S
C274 O325 1.325 . S
C275 N276 1.279 . S
C275 C278 1.358 . S
C275 H332 0.930 . S
N276 C275 1.279 . S
N276 C279 1.314 . S
C277 C274 1.348 . S
C277 C279 1.353 . S
C277 H333 0.929 . S
C278 C274 1.356 . S
C278 C275 1.358 . S
C278 H334 0.930 . S
C279 N276 1.314 . S
C279 C277 1.353 . S
C279 H335 0.930 . S
C280 N281 1.314 . S
C280 C285 1.353 . S
C280 H286 0.930 . S
N281 Li264 1.990 . S
N281 C280 1.314 . S
N281 C283 1.279 . S
C282 C283 1.358 . S
C282 C284 1.356 . S
C282 H336 0.930 . S
C283 N281 1.279 . S
C283 C282 1.358 . S
C283 H287 0.930 . S
C284 C282 1.356 . S
C284 C285 1.348 . S
C285 C280 1.353 . S
C285 C284 1.348 . S
C285 H337 0.929 . S
H286 C280 0.930 . S
H287 C283 0.930 . S
C288 N289 1.314 . S
C288 C290 1.353 . S
C288 H294 0.930 . S
N289 Li265 1.990 . S
N289 C288 1.314 . S
N289 C292 1.279 . S
C290 C288 1.353 . S
C290 C293 1.348 . S
C290 H338 0.929 . S
C291 C292 1.358 . S
C291 C293 1.356 . S
C291 H339 0.930 . S
C292 N289 1.279 . S
C292 C291 1.358 . S
C292 H295 0.930 . S
C293 C290 1.348 . S
C293 C291 1.356 . S
H294 C288 0.930 . S
H295 C292 0.930 . S
C296 C298 1.348 . S
C296 C299 1.356 . S
C296 O326 1.325 . S
N297 C300 1.314 . S
N297 C301 1.279 . S
C298 C296 1.348 . S
C298 C300 1.353 . S
C298 H340 0.929 . S
C299 C296 1.356 . S
C299 C301 1.358 . S
C299 H341 0.930 . S
C300 N297 1.314 . S
C300 C298 1.353 . S
C300 H342 0.930 . S
C301 N297 1.279 . S
C301 C299 1.358 . S
C301 H343 0.930 . S
C302 C303 1.348 . S
C302 C304 1.356 . S
C302 O327 1.325 . S
C303 C302 1.348 . S
C303 C305 1.353 . S
C303 H344 0.929 . S
C304 C302 1.356 . S
C304 C306 1.358 . S
C304 H345 0.930 . S
C305 C303 1.353 . S
C305 N307 1.314 . S
C305 H346 0.930 . S
C306 C304 1.358 . S
C306 N307 1.279 . S
C306 H347 0.930 . S
N307 C305 1.314 . S
N307 C306 1.279 . S
C308 C310 1.353 . S
C308 N311 1.314 . S
C308 H314 0.930 . S
C309 N311 1.279 . S
C309 C312 1.358 . S
C309 H315 0.930 . S
C310 C308 1.353 . S
C310 C313 1.348 . S
C310 H348 0.929 . S
N311 Li266 1.990 . S
N311 C308 1.314 . S
N311 C309 1.279 . S
C312 C309 1.358 . S
C312 C313 1.356 . S
C312 H349 0.930 . S
C313 C310 1.348 . S
C313 C312 1.356 . S
H314 C308 0.930 . S
H315 C309 0.930 . S
C316 N317 1.314 . S
C316 C318 1.353 . S
C316 H322 0.930 . S
N317 Li267 1.990 . S
N317 C316 1.314 . S
N317 C320 1.279 . S
C318 C316 1.353 . S
C318 C321 1.348 . S
C318 H350 0.929 . S
C319 C320 1.358 . S
C319 C321 1.356 . S
C319 H351 0.930 . S
C320 N317 1.279 . S
C320 C319 1.358 . S
C320 H323 0.930 . S
C321 C318 1.348 . S
C321 C319 1.356 . S
H322 C316 0.930 . S
H323 C320 0.930 . S
O324 Li264 1.956 . S
O324 Li265 1.970 . S
O324 Li266 1.961 . S
O324 C268 1.325 . S
O325 Li264 1.970 . S
O325 Li265 1.956 . S
O325 Li267 1.961 . S
O325 C274 1.325 . S
O326 Li264 1.961 . S
O326 Li266 1.956 . S
O326 Li267 1.970 . S
O326 C296 1.325 . S
O327 Li265 1.961 . S
O327 Li266 1.970 . S
O327 Li267 1.956 . S
O327 C302 1.325 . S
H328 C270 0.929 . S
H329 C271 0.930 . S
H330 C272 0.930 . S
H331 C273 0.930 . S
H332 C275 0.930 . S
H333 C277 0.929 . S
H334 C278 0.930 . S
H335 C279 0.930 . S
H336 C282 0.930 . S
H337 C285 0.929 . S
H338 C290 0.929 . S
H339 C291 0.930 . S
H340 C298 0.929 . S
H341 C299 0.930 . S
H342 C300 0.930 . S
H343 C301 0.930 . S
H344 C303 0.929 . S
H345 C304 0.930 . S
H346 C305 0.930 . S
H347 C306 0.930 . S
H348 C310 0.929 . S
H349 C312 0.930 . S
H350 C318 0.929 . S
H351 C319 0.930 . S
Li352 N369 1.990 . S
Li352 O412 1.936 1_554 S
Li352 O413 1.970 . S
Li352 O414 1.986 . S
Li353 N377 1.991 . S
Li353 O412 1.969 1_554 S
Li353 O413 1.983 . S
Li353 O415 1.933 1_554 S
Li354 N399 1.990 . S
Li354 O412 1.980 . S
Li354 O414 1.930 1_556 S
Li354 O415 1.970 . S
Li355 N405 1.991 . S
Li355 O413 1.939 1_556 S
Li355 O414 1.969 1_556 S
Li355 O415 1.977 . S
C356 C358 1.346 . S
C356 C359 1.357 1_554 S
C356 O412 1.324 1_554 S
N357 C360 1.314 . S
N357 C361 1.279 1_554 S
C358 C356 1.346 . S
C358 C360 1.353 . S
C358 H416 0.929 . S
C359 C356 1.357 1_556 S
C359 C361 1.358 . S
C359 H417 0.930 . S
C360 N357 1.314 . S
C360 C358 1.353 . S
C360 H418 0.930 . S
C361 N357 1.279 1_556 S
C361 C359 1.358 . S
C361 H419 0.930 . S
C362 C365 1.348 . S
C362 C366 1.356 . S
C362 O413 1.325 . S
C363 N364 1.279 . S
C363 C366 1.358 . S
C363 H420 0.930 . S
N364 C363 1.279 . S
N364 C367 1.314 . S
C365 C362 1.348 . S
C365 C367 1.353 . S
C365 H421 0.929 . S
C366 C362 1.356 . S
C366 C363 1.358 . S
C366 H422 0.930 . S
C367 N364 1.314 . S
C367 C365 1.353 . S
C367 H423 0.930 . S
C368 N369 1.314 . S
C368 C373 1.353 . S
C368 H374 0.930 . S
N369 Li352 1.990 . S
N369 C368 1.314 . S
N369 C371 1.279 . S
C370 C371 1.358 . S
C370 C372 1.356 . S
C370 H424 0.930 . S
C371 N369 1.279 . S
C371 C370 1.358 . S
C371 H375 0.930 . S
C372 C370 1.356 . S
C372 C373 1.348 . S
C373 C368 1.353 . S
C373 C372 1.348 . S
C373 H425 0.929 . S
H374 C368 0.930 . S
H375 C371 0.930 . S
C376 N377 1.314 1_556 S
C376 C378 1.353 . S
C376 H382 0.930 . S
N377 Li353 1.991 . S
N377 C376 1.314 1_554 S
N377 C380 1.279 . S
C378 C376 1.353 . S
C378 C381 1.345 1_556 S
C378 H426 0.929 . S
C379 C380 1.358 . S
C379 C381 1.359 . S
C379 H427 0.930 . S
C380 N377 1.279 . S
C380 C379 1.358 . S
C380 H383 0.930 . S
C381 C378 1.345 1_554 S
C381 C379 1.359 . S
H382 C376 0.930 . S
H383 C380 0.930 . S
C384 C386 1.346 1_554 S
C384 C387 1.357 . S
C384 O414 1.324 . S
N385 C388 1.314 . S
N385 C389 1.279 1_556 S
C386 C384 1.346 1_556 S
C386 C388 1.353 . S
C386 H428 0.929 . S
C387 C384 1.357 . S
C387 C389 1.358 . S
C387 H429 0.930 . S
C388 N385 1.314 . S
C388 C386 1.353 . S
C388 H430 0.930 . S
C389 N385 1.279 1_554 S
C389 C387 1.358 . S
C389 H431 0.930 . S
C390 C391 1.348 . S
C390 C392 1.356 . S
C390 O415 1.325 . S
C391 C390 1.348 . S
C391 C393 1.353 . S
C391 H432 0.929 . S
C392 C390 1.356 . S
C392 C394 1.358 . S
C392 H433 0.930 . S
C393 C391 1.353 . S
C393 N395 1.314 . S
C393 H434 0.930 . S
C394 C392 1.358 . S
C394 N395 1.279 . S
C394 H435 0.930 . S
N395 C393 1.314 . S
N395 C394 1.279 . S
C396 C398 1.353 . S
C396 N399 1.314 . S
C396 H402 0.930 . S
C397 N399 1.279 . S
C397 C400 1.358 . S
C397 H403 0.930 . S
C398 C396 1.353 . S
C398 C401 1.348 . S
C398 H436 0.929 . S
N399 Li354 1.990 . S
N399 C396 1.314 . S
N399 C397 1.279 . S
C400 C397 1.358 . S
C400 C401 1.356 . S
C400 H437 0.930 . S
C401 C398 1.348 . S
C401 C400 1.356 . S
H402 C396 0.930 . S
H403 C397 0.930 . S
C404 N405 1.314 1_554 S
C404 C406 1.353 . S
C404 H410 0.930 . S
N405 Li355 1.991 . S
N405 C404 1.314 1_556 S
N405 C408 1.279 . S
C406 C404 1.353 . S
C406 C409 1.345 . S
C406 H438 0.929 . S
C407 C408 1.358 . S
C407 C409 1.359 1_556 S
C407 H439 0.930 . S
C408 N405 1.279 . S
C408 C407 1.358 . S
C408 H411 0.930 . S
C409 C406 1.345 . S
C409 C407 1.359 1_554 S
H410 C404 0.930 . S
H411 C408 0.930 . S
O412 Li352 1.936 1_556 S
O412 Li353 1.969 1_556 S
O412 Li354 1.980 . S
O412 C356 1.324 1_556 S
O413 Li352 1.970 . S
O413 Li353 1.983 . S
O413 Li355 1.939 1_554 S
O413 C362 1.325 . S
O414 Li352 1.986 . S
O414 Li354 1.930 1_554 S
O414 Li355 1.969 1_554 S
O414 C384 1.324 . S
O415 Li353 1.933 1_556 S
O415 Li354 1.970 . S
O415 Li355 1.977 . S
O415 C390 1.325 . S
H416 C358 0.929 . S
H417 C359 0.930 . S
H418 C360 0.930 . S
H419 C361 0.930 . S
H420 C363 0.930 . S
H421 C365 0.929 . S
H422 C366 0.930 . S
H423 C367 0.930 . S
H424 C370 0.930 . S
H425 C373 0.929 . S
H426 C378 0.929 . S
H427 C379 0.930 . S
H428 C386 0.929 . S
H429 C387 0.930 . S
H430 C388 0.930 . S
H431 C389 0.930 . S
H432 C391 0.929 . S
H433 C392 0.930 . S
H434 C393 0.930 . S
H435 C394 0.930 . S
H436 C398 0.929 . S
H437 C400 0.930 . S
H438 C406 0.929 . S
H439 C407 0.930 . S
Li440 N457 1.991 . S
Li440 O500 1.983 . S
Li440 O501 1.969 1_554 S
Li440 O502 1.933 1_554 S
Li441 N465 1.990 . S
Li441 O500 1.970 . S
Li441 O501 1.936 1_554 S
Li441 O503 1.986 . S
Li442 N487 1.991 . S
Li442 O500 1.939 1_556 S
Li442 O502 1.977 . S
Li442 O503 1.969 1_556 S
Li443 N493 1.990 . S
Li443 O501 1.980 . S
Li443 O502 1.970 . S
Li443 O503 1.930 1_556 S
C444 C446 1.348 . S
C444 C447 1.356 . S
C444 O500 1.325 . S
N445 C448 1.314 . S
N445 C449 1.279 . S
C446 C444 1.348 . S
C446 C448 1.353 . S
C446 H504 0.929 . S
C447 C444 1.356 . S
C447 C449 1.358 . S
C447 H505 0.930 . S
C448 N445 1.314 . S
C448 C446 1.353 . S
C448 H506 0.930 . S
C449 N445 1.279 . S
C449 C447 1.358 . S
C449 H507 0.930 . S
C450 C453 1.346 . S
C450 C454 1.357 1_554 S
C450 O501 1.324 1_554 S
C451 N452 1.279 1_556 S
C451 C454 1.358 . S
C451 H508 0.930 . S
N452 C451 1.279 1_554 S
N452 C455 1.314 . S
C453 C450 1.346 . S
C453 C455 1.353 . S
C453 H509 0.929 . S
C454 C450 1.357 1_556 S
C454 C451 1.358 . S
C454 H510 0.930 . S
C455 N452 1.314 . S
C455 C453 1.353 . S
C455 H511 0.930 . S
C456 N457 1.314 1_556 S
C456 C461 1.353 . S
C456 H462 0.930 . S
N457 Li440 1.991 . S
N457 C456 1.314 1_554 S
N457 C459 1.279 . S
C458 C459 1.358 . S
C458 C460 1.359 . S
C458 H512 0.930 . S
C459 N457 1.279 . S
C459 C458 1.358 . S
C459 H463 0.930 . S
C460 C458 1.359 . S
C460 C461 1.345 1_554 S
C461 C456 1.353 . S
C461 C460 1.345 1_556 S
C461 H513 0.929 . S
H462 C456 0.930 . S
H463 C459 0.930 . S
C464 N465 1.314 . S
C464 C466 1.353 . S
C464 H470 0.930 . S
N465 Li441 1.990 . S
N465 C464 1.314 . S
N465 C468 1.279 . S
C466 C464 1.353 . S
C466 C469 1.348 . S
C466 H514 0.929 . S
C467 C468 1.358 . S
C467 C469 1.356 . S
C467 H515 0.930 . S
C468 N465 1.279 . S
C468 C467 1.358 . S
C468 H471 0.930 . S
C469 C466 1.348 . S
C469 C467 1.356 . S
H470 C464 0.930 . S
H471 C468 0.930 . S
C472 C474 1.348 . S
C472 C475 1.356 . S
C472 O502 1.325 . S
N473 C476 1.314 . S
N473 C477 1.279 . S
C474 C472 1.348 . S
C474 C476 1.353 . S
C474 H516 0.929 . S
C475 C472 1.356 . S
C475 C477 1.358 . S
C475 H517 0.930 . S
C476 N473 1.314 . S
C476 C474 1.353 . S
C476 H518 0.930 . S
C477 N473 1.279 . S
C477 C475 1.358 . S
C477 H519 0.930 . S
C478 C479 1.346 1_554 S
C478 C480 1.357 . S
C478 O503 1.324 . S
C479 C478 1.346 1_556 S
C479 C481 1.353 . S
C479 H520 0.929 . S
C480 C478 1.357 . S
C480 C482 1.358 . S
C480 H521 0.930 . S
C481 C479 1.353 . S
C481 N483 1.314 . S
C481 H522 0.930 . S
C482 C480 1.358 . S
C482 N483 1.279 1_554 S
C482 H523 0.930 . S
N483 C481 1.314 . S
N483 C482 1.279 1_556 S
C484 C486 1.353 . S
C484 N487 1.314 1_554 S
C484 H490 0.930 . S
C485 N487 1.279 . S
C485 C488 1.358 . S
C485 H491 0.930 . S
C486 C484 1.353 . S
C486 C489 1.345 . S
C486 H524 0.929 . S
N487 Li442 1.991 . S
N487 C484 1.314 1_556 S
N487 C485 1.279 . S
C488 C485 1.358 . S
C488 C489 1.359 1_556 S
C488 H525 0.930 . S
C489 C486 1.345 . S
C489 C488 1.359 1_554 S
H490 C484 0.930 . S
H491 C485 0.930 . S
C492 N493 1.314 . S
C492 C494 1.353 . S
C492 H498 0.930 . S
N493 Li443 1.990 . S
N493 C492 1.314 . S
N493 C496 1.279 . S
C494 C492 1.353 . S
C494 C497 1.348 . S
C494 H526 0.929 . S
C495 C496 1.358 . S
C495 C497 1.356 . S
C495 H527 0.930 . S
C496 N493 1.279 . S
C496 C495 1.358 . S
C496 H499 0.930 . S
C497 C494 1.348 . S
C497 C495 1.356 . S
H498 C492 0.930 . S
H499 C496 0.930 . S
O500 Li440 1.983 . S
O500 Li441 1.970 . S
O500 Li442 1.939 1_554 S
O500 C444 1.325 . S
O501 Li440 1.969 1_556 S
O501 Li441 1.936 1_556 S
O501 Li443 1.980 . S
O501 C450 1.324 1_556 S
O502 Li440 1.933 1_556 S
O502 Li442 1.977 . S
O502 Li443 1.970 . S
O502 C472 1.325 . S
O503 Li441 1.986 . S
O503 Li442 1.969 1_554 S
O503 Li443 1.930 1_554 S
O503 C478 1.324 . S
H504 C446 0.929 . S
H505 C447 0.930 . S
H506 C448 0.930 . S
H507 C449 0.930 . S
H508 C451 0.930 . S
H509 C453 0.929 . S
H510 C454 0.930 . S
H511 C455 0.930 . S
H512 C458 0.930 . S
H513 C461 0.929 . S
H514 C466 0.929 . S
H515 C467 0.930 . S
H516 C474 0.929 . S
H517 C475 0.930 . S
H518 C476 0.930 . S
H519 C477 0.930 . S
H520 C479 0.929 . S
H521 C480 0.930 . S
H522 C481 0.930 . S
H523 C482 0.930 . S
H524 C486 0.929 . S
H525 C488 0.930 . S
H526 C494 0.929 . S
H527 C495 0.930 . S
Li528 N545 1.990 . S
Li528 O588 1.956 . S
Li528 O589 1.970 . S
Li528 O590 1.961 . S
Li529 N553 1.990 . S
Li529 O588 1.970 . S
Li529 O589 1.956 . S
Li529 O591 1.961 . S
Li530 N575 1.990 . S
Li530 O588 1.961 . S
Li530 O590 1.956 . S
Li530 O591 1.970 . S
Li531 N581 1.990 . S
Li531 O589 1.961 . S
Li531 O590 1.970 . S
Li531 O591 1.956 . S
C532 C534 1.348 . S
C532 C535 1.356 . S
C532 O588 1.325 . S
N533 C536 1.314 . S
N533 C537 1.279 . S
C534 C532 1.348 . S
C534 C536 1.353 . S
C534 H592 0.929 . S
C535 C532 1.356 . S
C535 C537 1.358 . S
C535 H593 0.930 . S
C536 N533 1.314 . S
C536 C534 1.353 . S
C536 H594 0.930 . S
C537 N533 1.279 . S
C537 C535 1.358 . S
C537 H595 0.930 . S
C538 C541 1.348 . S
C538 C542 1.356 . S
C538 O589 1.325 . S
C539 N540 1.279 . S
C539 C542 1.358 . S
C539 H596 0.930 . S
N540 C539 1.279 . S
N540 C543 1.314 . S
C541 C538 1.348 . S
C541 C543 1.353 . S
C541 H597 0.929 . S
C542 C538 1.356 . S
C542 C539 1.358 . S
C542 H598 0.930 . S
C543 N540 1.314 . S
C543 C541 1.353 . S
C543 H599 0.930 . S
C544 N545 1.314 . S
C544 C549 1.353 . S
C544 H550 0.930 . S
N545 Li528 1.990 . S
N545 C544 1.314 . S
N545 C547 1.279 . S
C546 C547 1.358 . S
C546 C548 1.356 . S
C546 H600 0.930 . S
C547 N545 1.279 . S
C547 C546 1.358 . S
C547 H551 0.930 . S
C548 C546 1.356 . S
C548 C549 1.348 . S
C549 C544 1.353 . S
C549 C548 1.348 . S
C549 H601 0.929 . S
H550 C544 0.930 . S
H551 C547 0.930 . S
C552 N553 1.314 . S
C552 C554 1.353 . S
C552 H558 0.930 . S
N553 Li529 1.990 . S
N553 C552 1.314 . S
N553 C556 1.279 . S
C554 C552 1.353 . S
C554 C557 1.348 . S
C554 H602 0.929 . S
C555 C556 1.358 . S
C555 C557 1.356 . S
C555 H603 0.930 . S
C556 N553 1.279 . S
C556 C555 1.358 . S
C556 H559 0.930 . S
C557 C554 1.348 . S
C557 C555 1.356 . S
H558 C552 0.930 . S
H559 C556 0.930 . S
C560 C562 1.348 . S
C560 C563 1.356 . S
C560 O590 1.325 . S
N561 C564 1.314 . S
N561 C565 1.279 . S
C562 C560 1.348 . S
C562 C564 1.353 . S
C562 H604 0.929 . S
C563 C560 1.356 . S
C563 C565 1.358 . S
C563 H605 0.930 . S
C564 N561 1.314 . S
C564 C562 1.353 . S
C564 H606 0.930 . S
C565 N561 1.279 . S
C565 C563 1.358 . S
C565 H607 0.930 . S
C566 C567 1.348 . S
C566 C568 1.356 . S
C566 O591 1.325 . S
C567 C566 1.348 . S
C567 C569 1.353 . S
C567 H608 0.929 . S
C568 C566 1.356 . S
C568 C570 1.358 . S
C568 H609 0.930 . S
C569 C567 1.353 . S
C569 N571 1.314 . S
C569 H610 0.930 . S
C570 C568 1.358 . S
C570 N571 1.279 . S
C570 H611 0.930 . S
N571 C569 1.314 . S
N571 C570 1.279 . S
C572 C574 1.353 . S
C572 N575 1.314 . S
C572 H578 0.930 . S
C573 N575 1.279 . S
C573 C576 1.358 . S
C573 H579 0.930 . S
C574 C572 1.353 . S
C574 C577 1.348 . S
C574 H612 0.929 . S
N575 Li530 1.990 . S
N575 C572 1.314 . S
N575 C573 1.279 . S
C576 C573 1.358 . S
C576 C577 1.356 . S
C576 H613 0.930 . S
C577 C574 1.348 . S
C577 C576 1.356 . S
H578 C572 0.930 . S
H579 C573 0.930 . S
C580 N581 1.314 . S
C580 C582 1.353 . S
C580 H586 0.930 . S
N581 Li531 1.990 . S
N581 C580 1.314 . S
N581 C584 1.279 . S
C582 C580 1.353 . S
C582 C585 1.348 . S
C582 H614 0.929 . S
C583 C584 1.358 . S
C583 C585 1.356 . S
C583 H615 0.930 . S
C584 N581 1.279 . S
C584 C583 1.358 . S
C584 H587 0.930 . S
C585 C582 1.348 . S
C585 C583 1.356 . S
H586 C580 0.930 . S
H587 C584 0.930 . S
O588 Li528 1.956 . S
O588 Li529 1.970 . S
O588 Li530 1.961 . S
O588 C532 1.325 . S
O589 Li528 1.970 . S
O589 Li529 1.956 . S
O589 Li531 1.961 . S
O589 C538 1.325 . S
O590 Li528 1.961 . S
O590 Li530 1.956 . S
O590 Li531 1.970 . S
O590 C560 1.325 . S
O591 Li529 1.961 . S
O591 Li530 1.970 . S
O591 Li531 1.956 . S
O591 C566 1.325 . S
H592 C534 0.929 . S
H593 C535 0.930 . S
H594 C536 0.930 . S
H595 C537 0.930 . S
H596 C539 0.930 . S
H597 C541 0.929 . S
H598 C542 0.930 . S
H599 C543 0.930 . S
H600 C546 0.930 . S
H601 C549 0.929 . S
H602 C554 0.929 . S
H603 C555 0.930 . S
H604 C562 0.929 . S
H605 C563 0.930 . S
H606 C564 0.930 . S
H607 C565 0.930 . S
H608 C567 0.929 . S
H609 C568 0.930 . S
H610 C569 0.930 . S
H611 C570 0.930 . S
H612 C574 0.929 . S
H613 C576 0.930 . S
H614 C582 0.929 . S
H615 C583 0.930 . S
Li616 N633 1.990 . S
Li616 O676 1.956 . S
Li616 O677 1.970 . S
Li616 O678 1.961 . S
Li617 N641 1.990 . S
Li617 O676 1.970 . S
Li617 O677 1.956 . S
Li617 O679 1.961 . S
Li618 N663 1.990 . S
Li618 O676 1.961 . S
Li618 O678 1.956 . S
Li618 O679 1.970 . S
Li619 N669 1.990 . S
Li619 O677 1.961 . S
Li619 O678 1.970 . S
Li619 O679 1.956 . S
C620 C622 1.348 . S
C620 C623 1.356 . S
C620 O676 1.325 . S
N621 C624 1.314 . S
N621 C625 1.279 . S
C622 C620 1.348 . S
C622 C624 1.353 . S
C622 H680 0.929 . S
C623 C620 1.356 . S
C623 C625 1.358 . S
C623 H681 0.930 . S
C624 N621 1.314 . S
C624 C622 1.353 . S
C624 H682 0.930 . S
C625 N621 1.279 . S
C625 C623 1.358 . S
C625 H683 0.930 . S
C626 C629 1.348 . S
C626 C630 1.356 . S
C626 O677 1.325 . S
C627 N628 1.279 . S
C627 C630 1.358 . S
C627 H684 0.930 . S
N628 C627 1.279 . S
N628 C631 1.314 . S
C629 C626 1.348 . S
C629 C631 1.353 . S
C629 H685 0.929 . S
C630 C626 1.356 . S
C630 C627 1.358 . S
C630 H686 0.930 . S
C631 N628 1.314 . S
C631 C629 1.353 . S
C631 H687 0.930 . S
C632 N633 1.314 . S
C632 C637 1.353 . S
C632 H638 0.930 . S
N633 Li616 1.990 . S
N633 C632 1.314 . S
N633 C635 1.279 . S
C634 C635 1.358 . S
C634 C636 1.356 . S
C634 H688 0.930 . S
C635 N633 1.279 . S
C635 C634 1.358 . S
C635 H639 0.930 . S
C636 C634 1.356 . S
C636 C637 1.348 . S
C637 C632 1.353 . S
C637 C636 1.348 . S
C637 H689 0.929 . S
H638 C632 0.930 . S
H639 C635 0.930 . S
C640 N641 1.314 . S
C640 C642 1.353 . S
C640 H646 0.930 . S
N641 Li617 1.990 . S
N641 C640 1.314 . S
N641 C644 1.279 . S
C642 C640 1.353 . S
C642 C645 1.348 . S
C642 H690 0.929 . S
C643 C644 1.358 . S
C643 C645 1.356 . S
C643 H691 0.930 . S
C644 N641 1.279 . S
C644 C643 1.358 . S
C644 H647 0.930 . S
C645 C642 1.348 . S
C645 C643 1.356 . S
H646 C640 0.930 . S
H647 C644 0.930 . S
C648 C650 1.348 . S
C648 C651 1.356 . S
C648 O678 1.325 . S
N649 C652 1.314 . S
N649 C653 1.279 . S
C650 C648 1.348 . S
C650 C652 1.353 . S
C650 H692 0.929 . S
C651 C648 1.356 . S
C651 C653 1.358 . S
C651 H693 0.930 . S
C652 N649 1.314 . S
C652 C650 1.353 . S
C652 H694 0.930 . S
C653 N649 1.279 . S
C653 C651 1.358 . S
C653 H695 0.930 . S
C654 C655 1.348 . S
C654 C656 1.356 . S
C654 O679 1.325 . S
C655 C654 1.348 . S
C655 C657 1.353 . S
C655 H696 0.929 . S
C656 C654 1.356 . S
C656 C658 1.358 . S
C656 H697 0.930 . S
C657 C655 1.353 . S
C657 N659 1.314 . S
C657 H698 0.930 . S
C658 C656 1.358 . S
C658 N659 1.279 . S
C658 H699 0.930 . S
N659 C657 1.314 . S
N659 C658 1.279 . S
C660 C662 1.353 . S
C660 N663 1.314 . S
C660 H666 0.930 . S
C661 N663 1.279 . S
C661 C664 1.358 . S
C661 H667 0.930 . S
C662 C660 1.353 . S
C662 C665 1.348 . S
C662 H700 0.929 . S
N663 Li618 1.990 . S
N663 C660 1.314 . S
N663 C661 1.279 . S
C664 C661 1.358 . S
C664 C665 1.356 . S
C664 H701 0.930 . S
C665 C662 1.348 . S
C665 C664 1.356 . S
H666 C660 0.930 . S
H667 C661 0.930 . S
C668 N669 1.314 . S
C668 C670 1.353 . S
C668 H674 0.930 . S
N669 Li619 1.990 . S
N669 C668 1.314 . S
N669 C672 1.279 . S
C670 C668 1.353 . S
C670 C673 1.348 . S
C670 H702 0.929 . S
C671 C672 1.358 . S
C671 C673 1.356 . S
C671 H703 0.930 . S
C672 N669 1.279 . S
C672 C671 1.358 . S
C672 H675 0.930 . S
C673 C670 1.348 . S
C673 C671 1.356 . S
H674 C668 0.930 . S
H675 C672 0.930 . S
O676 Li616 1.956 . S
O676 Li617 1.970 . S
O676 Li618 1.961 . S
O676 C620 1.325 . S
O677 Li616 1.970 . S
O677 Li617 1.956 . S
O677 Li619 1.961 . S
O677 C626 1.325 . S
O678 Li616 1.961 . S
O678 Li618 1.956 . S
O678 Li619 1.970 . S
O678 C648 1.325 . S
O679 Li617 1.961 . S
O679 Li618 1.970 . S
O679 Li619 1.956 . S
O679 C654 1.325 . S
H680 C622 0.929 . S
H681 C623 0.930 . S
H682 C624 0.930 . S
H683 C625 0.930 . S
H684 C627 0.930 . S
H685 C629 0.929 . S
H686 C630 0.930 . S
H687 C631 0.930 . S
H688 C634 0.930 . S
H689 C637 0.929 . S
H690 C642 0.929 . S
H691 C643 0.930 . S
H692 C650 0.929 . S
H693 C651 0.930 . S
H694 C652 0.930 . S
H695 C653 0.930 . S
H696 C655 0.929 . S
H697 C656 0.930 . S
H698 C657 0.930 . S
H699 C658 0.930 . S
H700 C662 0.929 . S
H701 C664 0.930 . S
H702 C670 0.929 . S
H703 C671 0.930 . S
C704 C705 1.348 . S
C704 C706 1.327 . S
C704 H729 0.950 . S
C705 C704 1.348 . S
C705 C721 1.350 1_556 S
C706 C704 1.327 . S
C706 C725 1.428 . S
C706 H730 0.950 . S
C707 C724 1.574 . S
C707 C726 1.369 1_554 S
C707 H731 0.949 . S
H708 C712 0.949 . S
C709 C710 1.350 1_554 S
C709 C711 1.327 . S
C709 H732 0.950 . S
C710 C709 1.350 1_556 S
C710 C722 1.348 . S
C711 C709 1.327 . S
C711 C727 1.430 1_554 S
C711 H733 0.950 . S
C712 H708 0.949 . S
C712 C720 1.574 . S
C712 C728 1.367 . S
H713 C721 0.950 . S
H714 C719 0.950 . S
H715 C720 0.949 . S
H716 C722 0.950 . S
H717 C723 0.950 . S
H718 C724 0.949 . S
C719 H714 0.950 . S
C719 C721 1.327 . S
C719 C725 1.430 1_554 S
C720 C712 1.574 . S
C720 H715 0.949 . S
C720 C726 1.367 . S
C721 C705 1.350 1_554 S
C721 H713 0.950 . S
C721 C719 1.327 . S
C722 C710 1.348 . S
C722 H716 0.950 . S
C722 C723 1.327 . S
C723 H717 0.950 . S
C723 C722 1.327 . S
C723 C727 1.428 . S
C724 C707 1.574 . S
C724 H718 0.949 . S
C724 C728 1.369 1_554 S
C725 C706 1.428 . S
C725 C719 1.430 1_556 S
C725 C726 1.523 . S
C726 C707 1.369 1_556 S
C726 C720 1.367 . S
C726 C725 1.523 . S
C727 C711 1.430 1_556 S
C727 C723 1.428 . S
C727 C728 1.523 . S
C728 C712 1.367 . S
C728 C724 1.369 1_556 S
C728 C727 1.523 . S
H729 C704 0.950 . S
H730 C706 0.950 . S
H731 C707 0.949 . S
H732 C709 0.950 . S
H733 C711 0.950 . S
C734 C735 1.350 1_554 S
C734 C736 1.327 . S
C734 H759 0.950 . S
C735 C734 1.350 1_556 S
C735 C751 1.348 . S
C736 C734 1.327 . S
C736 C755 1.430 1_554 S
C736 H760 0.950 . S
C737 C754 1.574 . S
C737 C756 1.367 . S
C737 H761 0.949 . S
H738 C742 0.949 . S
C739 C740 1.348 . S
C739 C741 1.327 . S
C739 H762 0.950 . S
C740 C739 1.348 . S
C740 C752 1.350 1_556 S
C741 C739 1.327 . S
C741 C757 1.428 . S
C741 H763 0.950 . S
C742 H738 0.949 . S
C742 C750 1.574 . S
C742 C758 1.369 1_554 S
H743 C751 0.950 . S
H744 C749 0.950 . S
H745 C750 0.949 . S
H746 C752 0.950 . S
H747 C753 0.950 . S
H748 C754 0.949 . S
C749 H744 0.950 . S
C749 C751 1.327 . S
C749 C755 1.428 . S
C750 C742 1.574 . S
C750 H745 0.949 . S
C750 C756 1.369 1_554 S
C751 C735 1.348 . S
C751 H743 0.950 . S
C751 C749 1.327 . S
C752 C740 1.350 1_554 S
C752 H746 0.950 . S
C752 C753 1.327 . S
C753 H747 0.950 . S
C753 C752 1.327 . S
C753 C757 1.430 1_554 S
C754 C737 1.574 . S
C754 H748 0.949 . S
C754 C758 1.367 . S
C755 C736 1.430 1_556 S
C755 C749 1.428 . S
C755 C756 1.523 . S
C756 C737 1.367 . S
C756 C750 1.369 1_556 S
C756 C755 1.523 . S
C757 C741 1.428 . S
C757 C753 1.430 1_556 S
C757 C758 1.523 . S
C758 C742 1.369 1_556 S
C758 C754 1.367 . S
C758 C757 1.523 . S
H759 C734 0.950 . S
H760 C736 0.950 . S
H761 C737 0.949 . S
H762 C739 0.950 . S
H763 C741 0.950 . S
C764 C765 1.349 . S
C764 C766 1.327 . S
C764 H789 0.950 . S
C765 C764 1.349 . S
C765 C781 1.349 . S
C766 C764 1.327 . S
C766 C785 1.429 . S
C766 H790 0.950 . S
C767 C784 1.574 . S
C767 C786 1.368 . S
C767 H791 0.949 . S
H768 C772 0.949 . S
C769 C770 1.349 . S
C769 C771 1.327 . S
C769 H792 0.950 . S
C770 C769 1.349 . S
C770 C782 1.349 . S
C771 C769 1.327 . S
C771 C787 1.429 . S
C771 H793 0.950 . S
C772 H768 0.949 . S
C772 C780 1.574 . S
C772 C788 1.368 . S
H773 C781 0.950 . S
H774 C779 0.950 . S
H775 C780 0.949 . S
H776 C782 0.950 . S
H777 C783 0.950 . S
H778 C784 0.949 . S
C779 H774 0.950 . S
C779 C781 1.327 . S
C779 C785 1.429 . S
C780 C772 1.574 . S
C780 H775 0.949 . S
C780 C786 1.368 . S
C781 C765 1.349 . S
C781 H773 0.950 . S
C781 C779 1.327 . S
C782 C770 1.349 . S
C782 H776 0.950 . S
C782 C783 1.327 . S
C783 H777 0.950 . S
C783 C782 1.327 . S
C783 C787 1.429 . S
C784 C767 1.574 . S
C784 H778 0.949 . S
C784 C788 1.368 . S
C785 C766 1.429 . S
C785 C779 1.429 . S
C785 C786 1.523 . S
C786 C767 1.368 . S
C786 C780 1.368 . S
C786 C785 1.523 . S
C787 C771 1.429 . S
C787 C783 1.429 . S
C787 C788 1.523 . S
C788 C772 1.368 . S
C788 C784 1.368 . S
C788 C787 1.523 . S
H789 C764 0.950 . S
H790 C766 0.950 . S
H791 C767 0.949 . S
H792 C769 0.950 . S
H793 C771 0.950 . S
C794 C795 1.349 . S
C794 C796 1.327 . S
C794 H819 0.950 . S
C795 C794 1.349 . S
C795 C811 1.349 . S
C796 C794 1.327 . S
C796 C815 1.429 . S
C796 H820 0.950 . S
C797 C814 1.574 . S
C797 C816 1.368 . S
C797 H821 0.949 . S
H798 C802 0.949 . S
C799 C800 1.349 . S
C799 C801 1.327 . S
C799 H822 0.950 . S
C800 C799 1.349 . S
C800 C812 1.349 . S
C801 C799 1.327 . S
C801 C817 1.429 . S
C801 H823 0.950 . S
C802 H798 0.949 . S
C802 C810 1.574 . S
C802 C818 1.368 . S
H803 C811 0.950 . S
H804 C809 0.950 . S
H805 C810 0.949 . S
H806 C812 0.950 . S
H807 C813 0.950 . S
H808 C814 0.949 . S
C809 H804 0.950 . S
C809 C811 1.327 . S
C809 C815 1.429 . S
C810 C802 1.574 . S
C810 H805 0.949 . S
C810 C816 1.368 . S
C811 C795 1.349 . S
C811 H803 0.950 . S
C811 C809 1.327 . S
C812 C800 1.349 . S
C812 H806 0.950 . S
C812 C813 1.327 . S
C813 H807 0.950 . S
C813 C812 1.327 . S
C813 C817 1.429 . S
C814 C797 1.574 . S
C814 H808 0.949 . S
C814 C818 1.368 . S
C815 C796 1.429 . S
C815 C809 1.429 . S
C815 C816 1.523 . S
C816 C797 1.368 . S
C816 C810 1.368 . S
C816 C815 1.523 . S
C817 C801 1.429 . S
C817 C813 1.429 . S
C817 C818 1.523 . S
C818 C802 1.368 . S
C818 C814 1.368 . S
C818 C817 1.523 . S
H819 C794 0.950 . S
H820 C796 0.950 . S
H821 C797 0.949 . S
H822 C799 0.950 . S
H823 C801 0.950 . S
C824 C825 1.349 . S
C824 C826 1.327 . S
C824 H849 0.950 . S
C825 C824 1.349 . S
C825 C841 1.349 . S
C826 C824 1.327 . S
C826 C845 1.429 . S
C826 H850 0.950 . S
C827 C844 1.574 . S
C827 C846 1.368 . S
C827 H851 0.949 . S
H828 C832 0.949 . S
C829 C830 1.349 . S
C829 C831 1.327 . S
C829 H852 0.950 . S
C830 C829 1.349 . S
C830 C842 1.349 . S
C831 C829 1.327 . S
C831 C847 1.429 . S
C831 H853 0.950 . S
C832 H828 0.949 . S
C832 C840 1.574 . S
C832 C848 1.368 . S
H833 C841 0.950 . S
H834 C839 0.950 . S
H835 C840 0.949 . S
H836 C842 0.950 . S
H837 C843 0.950 . S
H838 C844 0.949 . S
C839 H834 0.950 . S
C839 C841 1.327 . S
C839 C845 1.429 . S
C840 C832 1.574 . S
C840 H835 0.949 . S
C840 C846 1.368 . S
C841 C825 1.349 . S
C841 H833 0.950 . S
C841 C839 1.327 . S
C842 C830 1.349 . S
C842 H836 0.950 . S
C842 C843 1.327 . S
C843 H837 0.950 . S
C843 C842 1.327 . S
C843 C847 1.429 . S
C844 C827 1.574 . S
C844 H838 0.949 . S
C844 C848 1.368 . S
C845 C826 1.429 . S
C845 C839 1.429 . S
C845 C846 1.523 . S
C846 C827 1.368 . S
C846 C840 1.368 . S
C846 C845 1.523 . S
C847 C831 1.429 . S
C847 C843 1.429 . S
C847 C848 1.523 . S
C848 C832 1.368 . S
C848 C844 1.368 . S
C848 C847 1.523 . S
H849 C824 0.950 . S
H850 C826 0.950 . S
H851 C827 0.949 . S
H852 C829 0.950 . S
H853 C831 0.950 . S
C854 C855 1.349 . S
C854 C856 1.327 . S
C854 H879 0.950 . S
C855 C854 1.349 . S
C855 C871 1.349 . S
C856 C854 1.327 . S
C856 C875 1.429 . S
C856 H880 0.950 . S
C857 C874 1.574 . S
C857 C876 1.368 . S
C857 H881 0.949 . S
H858 C862 0.949 . S
C859 C860 1.349 . S
C859 C861 1.327 . S
C859 H882 0.950 . S
C860 C859 1.349 . S
C860 C872 1.349 . S
C861 C859 1.327 . S
C861 C877 1.429 . S
C861 H883 0.950 . S
C862 H858 0.949 . S
C862 C870 1.574 . S
C862 C878 1.368 . S
H863 C871 0.950 . S
H864 C869 0.950 . S
H865 C870 0.949 . S
H866 C872 0.950 . S
H867 C873 0.950 . S
H868 C874 0.949 . S
C869 H864 0.950 . S
C869 C871 1.327 . S
C869 C875 1.429 . S
C870 C862 1.574 . S
C870 H865 0.949 . S
C870 C876 1.368 . S
C871 C855 1.349 . S
C871 H863 0.950 . S
C871 C869 1.327 . S
C872 C860 1.349 . S
C872 H866 0.950 . S
C872 C873 1.327 . S
C873 H867 0.950 . S
C873 C872 1.327 . S
C873 C877 1.429 . S
C874 C857 1.574 . S
C874 H868 0.949 . S
C874 C878 1.368 . S
C875 C856 1.429 . S
C875 C869 1.429 . S
C875 C876 1.523 . S
C876 C857 1.368 . S
C876 C870 1.368 . S
C876 C875 1.523 . S
C877 C861 1.429 . S
C877 C873 1.429 . S
C877 C878 1.523 . S
C878 C862 1.368 . S
C878 C874 1.368 . S
C878 C877 1.523 . S
H879 C854 0.950 . S
H880 C856 0.950 . S
H881 C857 0.949 . S
H882 C859 0.950 . S
H883 C861 0.950 . S
C884 C885 1.349 . S
C884 C886 1.327 . S
C884 H909 0.950 . S
C885 C884 1.349 . S
C885 C901 1.349 . S
C886 C884 1.327 . S
C886 C905 1.429 . S
C886 H910 0.950 . S
C887 C904 1.574 . S
C887 C906 1.368 . S
C887 H911 0.949 . S
H888 C892 0.949 . S
C889 C890 1.349 . S
C889 C891 1.327 . S
C889 H912 0.950 . S
C890 C889 1.349 . S
C890 C902 1.349 . S
C891 C889 1.327 . S
C891 C907 1.429 . S
C891 H913 0.950 . S
C892 H888 0.949 . S
C892 C900 1.574 . S
C892 C908 1.368 . S
H893 C901 0.950 . S
H894 C899 0.950 . S
H895 C900 0.949 . S
H896 C902 0.950 . S
H897 C903 0.950 . S
H898 C904 0.949 . S
C899 H894 0.950 . S
C899 C901 1.327 . S
C899 C905 1.429 . S
C900 C892 1.574 . S
C900 H895 0.949 . S
C900 C906 1.368 . S
C901 C885 1.349 . S
C901 H893 0.950 . S
C901 C899 1.327 . S
C902 C890 1.349 . S
C902 H896 0.950 . S
C902 C903 1.327 . S
C903 H897 0.950 . S
C903 C902 1.327 . S
C903 C907 1.429 . S
C904 C887 1.574 . S
C904 H898 0.949 . S
C904 C908 1.368 . S
C905 C886 1.429 . S
C905 C899 1.429 . S
C905 C906 1.523 . S
C906 C887 1.368 . S
C906 C900 1.368 . S
C906 C905 1.523 . S
C907 C891 1.429 . S
C907 C903 1.429 . S
C907 C908 1.523 . S
C908 C892 1.368 . S
C908 C904 1.368 . S
C908 C907 1.523 . S
H909 C884 0.950 . S
H910 C886 0.950 . S
H911 C887 0.949 . S
H912 C889 0.950 . S
H913 C891 0.950 . S
C914 C915 1.349 . S
C914 C916 1.327 . S
C914 H939 0.950 . S
C915 C914 1.349 . S
C915 C931 1.349 . S
C916 C914 1.327 . S
C916 C935 1.429 . S
C916 H940 0.950 . S
C917 C934 1.574 . S
C917 C936 1.368 . S
C917 H941 0.949 . S
H918 C922 0.949 . S
C919 C920 1.349 . S
C919 C921 1.327 . S
C919 H942 0.950 . S
C920 C919 1.349 . S
C920 C932 1.349 . S
C921 C919 1.327 . S
C921 C937 1.429 . S
C921 H943 0.950 . S
C922 H918 0.949 . S
C922 C930 1.574 . S
C922 C938 1.368 . S
H923 C931 0.950 . S
H924 C929 0.950 . S
H925 C930 0.949 . S
H926 C932 0.950 . S
H927 C933 0.950 . S
H928 C934 0.949 . S
C929 H924 0.950 . S
C929 C931 1.327 . S
C929 C935 1.429 . S
C930 C922 1.574 . S
C930 H925 0.949 . S
C930 C936 1.368 . S
C931 C915 1.349 . S
C931 H923 0.950 . S
C931 C929 1.327 . S
C932 C920 1.349 . S
C932 H926 0.950 . S
C932 C933 1.327 . S
C933 H927 0.950 . S
C933 C932 1.327 . S
C933 C937 1.429 . S
C934 C917 1.574 . S
C934 H928 0.949 . S
C934 C938 1.368 . S
C935 C916 1.429 . S
C935 C929 1.429 . S
C935 C936 1.523 . S
C936 C917 1.368 . S
C936 C930 1.368 . S
C936 C935 1.523 . S
C937 C921 1.429 . S
C937 C933 1.429 . S
C937 C938 1.523 . S
C938 C922 1.368 . S
C938 C934 1.368 . S
C938 C937 1.523 . S
H939 C914 0.950 . S
H940 C916 0.950 . S
H941 C917 0.949 . S
H942 C919 0.950 . S
H943 C921 0.950 . S
C944 C945 1.349 . S
C944 C946 1.327 . S
C944 H969 0.950 . S
C945 C944 1.349 . S
C945 C961 1.349 . S
C946 C944 1.327 . S
C946 C965 1.429 . S
C946 H970 0.950 . S
C947 C964 1.574 . S
C947 C966 1.368 . S
C947 H971 0.949 . S
H948 C952 0.949 . S
C949 C950 1.349 . S
C949 C951 1.327 . S
C949 H972 0.950 . S
C950 C949 1.349 . S
C950 C962 1.349 . S
C951 C949 1.327 . S
C951 C967 1.429 . S
C951 H973 0.950 . S
C952 H948 0.949 . S
C952 C960 1.574 . S
C952 C968 1.368 . S
H953 C961 0.950 . S
H954 C959 0.950 . S
H955 C960 0.949 . S
H956 C962 0.950 . S
H957 C963 0.950 . S
H958 C964 0.949 . S
C959 H954 0.950 . S
C959 C961 1.327 . S
C959 C965 1.429 . S
C960 C952 1.574 . S
C960 H955 0.949 . S
C960 C966 1.368 1_545 S
C961 C945 1.349 . S
C961 H953 0.950 . S
C961 C959 1.327 . S
C962 C950 1.349 . S
C962 H956 0.950 . S
C962 C963 1.327 . S
C963 H957 0.950 . S
C963 C962 1.327 . S
C963 C967 1.429 . S
C964 C947 1.574 . S
C964 H958 0.949 . S
C964 C968 1.368 1_565 S
C965 C946 1.429 . S
C965 C959 1.429 . S
C965 C966 1.523 . S
C966 C947 1.368 . S
C966 C960 1.368 1_565 S
C966 C965 1.523 . S
C967 C951 1.429 . S
C967 C963 1.429 . S
C967 C968 1.523 . S
C968 C952 1.368 . S
C968 C964 1.368 1_545 S
C968 C967 1.523 . S
H969 C944 0.950 . S
H970 C946 0.950 . S
H971 C947 0.949 . S
H972 C949 0.950 . S
H973 C951 0.950 . S
C974 C975 1.349 . S
C974 C976 1.327 . S
C974 H999 0.950 . S
C975 C974 1.349 . S
C975 C991 1.349 . S
C976 C974 1.327 . S
C976 C995 1.429 . S
C976 H1000 0.950 . S
C977 C994 1.574 . S
C977 C996 1.368 1_545 S
C977 H1001 0.949 . S
H978 C982 0.949 . S
C979 C980 1.349 . S
C979 C981 1.327 . S
C979 H1002 0.950 . S
C980 C979 1.349 . S
C980 C992 1.349 . S
C981 C979 1.327 . S
C981 C997 1.429 . S
C981 H1003 0.950 . S
C982 H978 0.949 . S
C982 C990 1.574 . S
C982 C998 1.368 1_565 S
H983 C991 0.950 . S
H984 C989 0.950 . S
H985 C990 0.949 . S
H986 C992 0.950 . S
H987 C993 0.950 . S
H988 C994 0.949 . S
C989 H984 0.950 . S
C989 C991 1.327 . S
C989 C995 1.429 . S
C990 C982 1.574 . S
C990 H985 0.949 . S
C990 C996 1.368 . S
C991 C975 1.349 . S
C991 H983 0.950 . S
C991 C989 1.327 . S
C992 C980 1.349 . S
C992 H986 0.950 . S
C992 C993 1.327 . S
C993 H987 0.950 . S
C993 C992 1.327 . S
C993 C997 1.429 . S
C994 C977 1.574 . S
C994 H988 0.949 . S
C994 C998 1.368 . S
C995 C976 1.429 . S
C995 C989 1.429 . S
C995 C996 1.523 . S
C996 C977 1.368 1_565 S
C996 C990 1.368 . S
C996 C995 1.523 . S
C997 C981 1.429 . S
C997 C993 1.429 . S
C997 C998 1.523 . S
C998 C982 1.368 1_545 S
C998 C994 1.368 . S
C998 C997 1.523 . S
H999 C974 0.950 . S
H1000 C976 0.950 . S
H1001 C977 0.949 . S
H1002 C979 0.950 . S
H1003 C981 0.950 . S
C1004 C1005 1.349 . S
C1004 C1006 1.327 . S
C1004 H1029 0.950 . S
C1005 C1004 1.349 . S
C1005 C1021 1.349 . S
C1006 C1004 1.327 . S
C1006 C1025 1.429 . S
C1006 H1030 0.950 1_565 S
C1007 C1024 1.574 . S
C1007 C1026 1.368 . S
C1007 H1031 0.949 . S
H1008 C1012 0.949 . S
C1009 C1010 1.349 . S
C1009 C1011 1.327 . S
C1009 H1032 0.950 . S
C1010 C1009 1.349 . S
C1010 C1022 1.349 . S
C1011 C1009 1.327 . S
C1011 C1027 1.429 . S
C1011 H1033 0.950 1_545 S
C1012 H1008 0.949 . S
C1012 C1020 1.574 . S
C1012 C1028 1.368 . S
H1013 C1021 0.950 . S
H1014 C1019 0.950 . S
H1015 C1020 0.949 . S
H1016 C1022 0.950 . S
H1017 C1023 0.950 . S
H1018 C1024 0.949 . S
C1019 H1014 0.950 . S
C1019 C1021 1.327 . S
C1019 C1025 1.429 . S
C1020 C1012 1.574 . S
C1020 H1015 0.949 . S
C1020 C1026 1.368 1_545 S
C1021 C1005 1.349 . S
C1021 H1013 0.950 . S
C1021 C1019 1.327 . S
C1022 C1010 1.349 . S
C1022 H1016 0.950 . S
C1022 C1023 1.327 . S
C1023 H1017 0.950 . S
C1023 C1022 1.327 . S
C1023 C1027 1.429 . S
C1024 C1007 1.574 . S
C1024 H1018 0.949 . S
C1024 C1028 1.368 1_565 S
C1025 C1006 1.429 . S
C1025 C1019 1.429 . S
C1025 C1026 1.523 . S
C1026 C1007 1.368 . S
C1026 C1020 1.368 1_565 S
C1026 C1025 1.523 . S
C1027 C1011 1.429 . S
C1027 C1023 1.429 . S
C1027 C1028 1.523 . S
C1028 C1012 1.368 . S
C1028 C1024 1.368 1_545 S
C1028 C1027 1.523 . S
H1029 C1004 0.950 . S
H1030 C1006 0.950 1_545 S
H1031 C1007 0.949 . S
H1032 C1009 0.950 . S
H1033 C1011 0.950 1_565 S
C1034 C1035 1.349 . S
C1034 C1036 1.327 . S
C1034 H1059 0.950 . S
C1035 C1034 1.349 . S
C1035 C1051 1.349 . S
C1036 C1034 1.327 . S
C1036 C1055 1.429 . S
C1036 H1060 0.950 1_565 S
C1037 C1054 1.574 . S
C1037 C1056 1.368 . S
C1037 H1061 0.949 . S
H1038 C1042 0.949 . S
C1039 C1040 1.349 . S
C1039 C1041 1.327 . S
C1039 H1062 0.950 . S
C1040 C1039 1.349 . S
C1040 C1052 1.349 . S
C1041 C1039 1.327 . S
C1041 C1057 1.429 . S
C1041 H1063 0.950 1_545 S
C1042 H1038 0.949 . S
C1042 C1050 1.574 . S
C1042 C1058 1.368 . S
H1043 C1051 0.950 . S
H1044 C1049 0.950 . S
H1045 C1050 0.949 . S
H1046 C1052 0.950 . S
H1047 C1053 0.950 . S
H1048 C1054 0.949 . S
C1049 H1044 0.950 . S
C1049 C1051 1.327 . S
C1049 C1055 1.429 . S
C1050 C1042 1.574 . S
C1050 H1045 0.949 . S
C1050 C1056 1.368 1_545 S
C1051 C1035 1.349 . S
C1051 H1043 0.950 . S
C1051 C1049 1.327 . S
C1052 C1040 1.349 . S
C1052 H1046 0.950 . S
C1052 C1053 1.327 . S
C1053 H1047 0.950 . S
C1053 C1052 1.327 . S
C1053 C1057 1.429 . S
C1054 C1037 1.574 . S
C1054 H1048 0.949 . S
C1054 C1058 1.368 1_565 S
C1055 C1036 1.429 . S
C1055 C1049 1.429 . S
C1055 C1056 1.523 . S
C1056 C1037 1.368 . S
C1056 C1050 1.368 1_565 S
C1056 C1055 1.523 . S
C1057 C1041 1.429 . S
C1057 C1053 1.429 . S
C1057 C1058 1.523 . S
C1058 C1042 1.368 . S
C1058 C1054 1.368 1_545 S
C1058 C1057 1.523 . S
H1059 C1034 0.950 . S
H1060 C1036 0.950 1_545 S
H1061 C1037 0.949 . S
H1062 C1039 0.950 . S
H1063 C1041 0.950 1_565 S
C1064 C1065 1.344 1_556 S
C1064 C1066 1.327 . S
C1064 H1089 0.950 . S
C1065 C1064 1.344 1_554 S
C1065 C1081 1.354 . S
C1066 C1064 1.327 . S
C1066 C1085 1.424 1_556 S
C1066 H1090 0.950 . S
C1067 C1084 1.574 1_565 S
C1067 C1086 1.374 . S
C1067 H1091 0.949 . S
H1068 C1072 0.949 . S
C1069 C1070 1.354 . S
C1069 C1071 1.327 . S
C1069 H1092 0.950 . S
C1070 C1069 1.354 . S
C1070 C1082 1.344 1_554 S
C1071 C1069 1.327 . S
C1071 C1087 1.434 . S
C1071 H1093 0.950 . S
C1072 H1068 0.949 . S
C1072 C1080 1.574 1_545 S
C1072 C1088 1.363 1_556 S
H1073 C1081 0.950 . S
H1074 C1079 0.950 . S
H1075 C1080 0.949 . S
H1076 C1082 0.950 . S
H1077 C1083 0.950 . S
H1078 C1084 0.949 . S
C1079 H1074 0.950 . S
C1079 C1081 1.327 . S
C1079 C1085 1.434 . S
C1080 C1072 1.574 1_565 S
C1080 H1075 0.949 . S
C1080 C1086 1.363 1_556 S
C1081 C1065 1.354 . S
C1081 H1073 0.950 . S
C1081 C1079 1.327 . S
C1082 C1070 1.344 1_556 S
C1082 H1076 0.950 . S
C1082 C1083 1.327 . S
C1083 H1077 0.950 . S
C1083 C1082 1.327 . S
C1083 C1087 1.424 1_556 S
C1084 C1067 1.574 1_545 S
C1084 H1078 0.949 . S
C1084 C1088 1.374 . S
C1085 C1066 1.424 1_554 S
C1085 C1079 1.434 . S
C1085 C1086 1.523 . S
C1086 C1067 1.374 . S
C1086 C1080 1.363 1_554 S
C1086 C1085 1.523 . S
C1087 C1071 1.434 . S
C1087 C1083 1.424 1_554 S
C1087 C1088 1.523 . S
C1088 C1072 1.363 1_554 S
C1088 C1084 1.374 . S
C1088 C1087 1.523 . S
H1089 C1064 0.950 . S
H1090 C1066 0.950 . S
H1091 C1067 0.949 . S
H1092 C1069 0.950 . S
H1093 C1071 0.950 . S
C1094 C1095 1.349 . S
C1094 C1096 1.327 . S
C1094 H1119 0.950 . S
C1095 C1094 1.349 . S
C1095 C1111 1.349 . S
C1096 C1094 1.327 . S
C1096 C1115 1.429 . S
C1096 H1120 0.950 . S
C1097 C1114 1.574 1_565 S
C1097 C1116 1.368 . S
C1097 H1121 0.949 . S
H1098 C1102 0.949 . S
C1099 C1100 1.349 . S
C1099 C1101 1.327 . S
C1099 H1122 0.950 . S
C1100 C1099 1.349 . S
C1100 C1112 1.349 . S
C1101 C1099 1.327 . S
C1101 C1117 1.429 . S
C1101 H1123 0.950 . S
C1102 H1098 0.949 . S
C1102 C1110 1.574 1_545 S
C1102 C1118 1.368 . S
H1103 C1111 0.950 . S
H1104 C1109 0.950 . S
H1105 C1110 0.949 . S
H1106 C1112 0.950 . S
H1107 C1113 0.950 . S
H1108 C1114 0.949 . S
C1109 H1104 0.950 . S
C1109 C1111 1.327 . S
C1109 C1115 1.429 . S
C1110 C1102 1.574 1_565 S
C1110 H1105 0.949 . S
C1110 C1116 1.368 . S
C1111 C1095 1.349 . S
C1111 H1103 0.950 . S
C1111 C1109 1.327 . S
C1112 C1100 1.349 . S
C1112 H1106 0.950 . S
C1112 C1113 1.327 . S
C1113 H1107 0.950 . S
C1113 C1112 1.327 . S
C1113 C1117 1.429 . S
C1114 C1097 1.574 1_545 S
C1114 H1108 0.949 . S
C1114 C1118 1.368 . S
C1115 C1096 1.429 . S
C1115 C1109 1.429 . S
C1115 C1116 1.523 . S
C1116 C1097 1.368 . S
C1116 C1110 1.368 . S
C1116 C1115 1.523 . S
C1117 C1101 1.429 . S
C1117 C1113 1.429 . S
C1117 C1118 1.523 . S
C1118 C1102 1.368 . S
C1118 C1114 1.368 . S
C1118 C1117 1.523 . S
H1119 C1094 0.950 . S
H1120 C1096 0.950 . S
H1121 C1097 0.949 . S
H1122 C1099 0.950 . S
H1123 C1101 0.950 . S
C1124 C1125 1.354 . S
C1124 C1126 1.327 . S
C1124 H1149 0.950 . S
C1125 C1124 1.354 . S
C1125 C1141 1.344 1_554 S
C1126 C1124 1.327 . S
C1126 C1145 1.434 . S
C1126 H1150 0.950 . S
C1127 C1144 1.574 . S
C1127 C1146 1.363 1_556 S
C1127 H1151 0.949 . S
H1128 C1132 0.949 . S
C1129 C1130 1.344 1_556 S
C1129 C1131 1.327 . S
C1129 H1152 0.950 . S
C1130 C1129 1.344 1_554 S
C1130 C1142 1.354 . S
C1131 C1129 1.327 . S
C1131 C1147 1.424 1_556 S
C1131 H1153 0.950 . S
C1132 H1128 0.949 . S
C1132 C1140 1.574 . S
C1132 C1148 1.374 . S
H1133 C1141 0.950 . S
H1134 C1139 0.950 . S
H1135 C1140 0.949 . S
H1136 C1142 0.950 . S
H1137 C1143 0.950 . S
H1138 C1144 0.949 . S
C1139 H1134 0.950 . S
C1139 C1141 1.327 . S
C1139 C1145 1.424 1_556 S
C1140 C1132 1.574 . S
C1140 H1135 0.949 . S
C1140 C1146 1.374 1_655 S
C1141 C1125 1.344 1_556 S
C1141 H1133 0.950 . S
C1141 C1139 1.327 . S
C1142 C1130 1.354 . S
C1142 H1136 0.950 . S
C1142 C1143 1.327 . S
C1143 H1137 0.950 . S
C1143 C1142 1.327 . S
C1143 C1147 1.434 . S
C1144 C1127 1.574 . S
C1144 H1138 0.949 . S
C1144 C1148 1.363 1_456 S
C1145 C1126 1.434 . S
C1145 C1139 1.424 1_554 S
C1145 C1146 1.523 . S
C1146 C1127 1.363 1_554 S
C1146 C1140 1.374 1_455 S
C1146 C1145 1.523 . S
C1147 C1131 1.424 1_554 S
C1147 C1143 1.434 . S
C1147 C1148 1.523 . S
C1148 C1132 1.374 . S
C1148 C1144 1.363 1_654 S
C1148 C1147 1.523 . S
H1149 C1124 0.950 . S
H1150 C1126 0.950 . S
H1151 C1127 0.949 . S
H1152 C1129 0.950 . S
H1153 C1131 0.950 . S
C1154 C1155 1.349 . S
C1154 C1156 1.327 . S
C1154 H1179 0.950 . S
C1155 C1154 1.349 . S
C1155 C1171 1.349 . S
C1156 C1154 1.327 . S
C1156 C1175 1.429 . S
C1156 H1180 0.950 . S
C1157 C1174 1.574 . S
C1157 C1176 1.368 1_655 S
C1157 H1181 0.949 . S
H1158 C1162 0.949 . S
C1159 C1160 1.349 . S
C1159 C1161 1.327 . S
C1159 H1182 0.950 . S
C1160 C1159 1.349 . S
C1160 C1172 1.349 . S
C1161 C1159 1.327 . S
C1161 C1177 1.429 . S
C1161 H1183 0.950 . S
C1162 H1158 0.949 . S
C1162 C1170 1.574 . S
C1162 C1178 1.368 1_455 S
H1163 C1171 0.950 . S
H1164 C1169 0.950 . S
H1165 C1170 0.949 . S
H1166 C1172 0.950 . S
H1167 C1173 0.950 . S
H1168 C1174 0.949 . S
C1169 H1164 0.950 . S
C1169 C1171 1.327 . S
C1169 C1175 1.429 . S
C1170 C1162 1.574 . S
C1170 H1165 0.949 . S
C1170 C1176 1.368 . S
C1171 C1155 1.349 . S
C1171 H1163 0.950 . S
C1171 C1169 1.327 . S
C1172 C1160 1.349 . S
C1172 H1166 0.950 . S
C1172 C1173 1.327 . S
C1173 H1167 0.950 . S
C1173 C1172 1.327 . S
C1173 C1177 1.429 . S
C1174 C1157 1.574 . S
C1174 H1168 0.949 . S
C1174 C1178 1.368 . S
C1175 C1156 1.429 . S
C1175 C1169 1.429 . S
C1175 C1176 1.523 . S
C1176 C1157 1.368 1_455 S
C1176 C1170 1.368 . S
C1176 C1175 1.523 . S
C1177 C1161 1.429 . S
C1177 C1173 1.429 . S
C1177 C1178 1.523 . S
C1178 C1162 1.368 1_655 S
C1178 C1174 1.368 . S
C1178 C1177 1.523 . S
H1179 C1154 0.950 . S
H1180 C1156 0.950 . S
H1181 C1157 0.949 . S
H1182 C1159 0.950 . S
H1183 C1161 0.950 . S
C705 C460 1.564 1_556 S
C710 C29 1.564 1_556 S
C735 C381 1.564 1_556 S
C740 C108 1.564 1_556 S
C765 C673 1.564 . S
C770 C225 1.564 . S
C795 C577 1.564 . S
C800 C321 1.564 . S
C825 C20 1.280 . S
C830 C233 1.276 . S
C855 C117 1.280 . S
C860 C313 1.276 . S
C885 C145 1.279 . S
C890 C284 1.283 . S
C915 C49 1.279 . S
C920 C205 1.283 . S
C945 C372 1.280 . S
C950 C585 1.276 . S
C975 C665 1.280 . S
C980 C469 1.276 . S
C1005 C636 1.279 . S
C1010 C497 1.283 . S
C1035 C401 1.279 . S
C1040 C557 1.283 . S
C1065 C137 1.596 . S
C1070 C57 1.596 . S
C1095 C196 1.596 . S
C1100 C293 1.596 . S
C1125 C409 1.596 . S
C1130 C489 1.596 . S
C1155 C548 1.596 . S
C1160 C645 1.596 . S
