# Generated by pormake.
# Topology qtz-g, (3)-cn, num edge types: 1
# Building blocks:
#     Node 0, Type 0, BuildingBlock: OLANEW_clean_sbu_2, # of connection points: 3
#     Node 1, Type 0, BuildingBlock: OLANEW_clean_sbu_2, # of connection points: 3
#     Node 2, Type 0, BuildingBlock: OLANEW_clean_sbu_2, # of connection points: 3
#     Node 3, Type 0, BuildingBlock: OLANEW_clean_sbu_2, # of connection points: 3
#     Node 4, Type 0, BuildingBlock: OLANEW_clean_sbu_2, # of connection points: 3
#     Node 5, Type 0, BuildingBlock: OLANEW_clean_sbu_2, # of connection points: 3
#     Node 6, Type 0, BuildingBlock: OLANEW_clean_sbu_2, # of connection points: 3
#     Node 7, Type 0, BuildingBlock: OLANEW_clean_sbu_2, # of connection points: 3
#     Node 8, Type 0, BuildingBlock: OLANEW_clean_sbu_2, # of connection points: 3
#     Node 9, Type 0, BuildingBlock: OLANEW_clean_sbu_2, # of connection points: 3
#     Node 10, Type 0, BuildingBlock: OLANEW_clean_sbu_2, # of connection points: 3
#     Node 11, Type 0, BuildingBlock: OLANEW_clean_sbu_2, # of connection points: 3
#     Edge 12, Type (0, 0), BuildingBlock: KIFKEQ_clean_linker_1, # of connection points: 2
#     Edge 13, Type (0, 0), BuildingBlock: KIFKEQ_clean_linker_1, # of connection points: 2
#     Edge 14, Type (0, 0), BuildingBlock: KIFKEQ_clean_linker_1, # of connection points: 2
#     Edge 15, Type (0, 0), BuildingBlock: KIFKEQ_clean_linker_1, # of connection points: 2
#     Edge 16, Type (0, 0), BuildingBlock: KIFKEQ_clean_linker_1, # of connection points: 2
#     Edge 17, Type (0, 0), BuildingBlock: KIFKEQ_clean_linker_1, # of connection points: 2
#     Edge 18, Type (0, 0), BuildingBlock: KIFKEQ_clean_linker_1, # of connection points: 2
#     Edge 19, Type (0, 0), BuildingBlock: KIFKEQ_clean_linker_1, # of connection points: 2
#     Edge 20, Type (0, 0), BuildingBlock: KIFKEQ_clean_linker_1, # of connection points: 2
#     Edge 21, Type (0, 0), BuildingBlock: KIFKEQ_clean_linker_1, # of connection points: 2
#     Edge 22, Type (0, 0), BuildingBlock: KIFKEQ_clean_linker_1, # of connection points: 2
#     Edge 23, Type (0, 0), BuildingBlock: KIFKEQ_clean_linker_1, # of connection points: 2
#     Edge 24, Type (0, 0), BuildingBlock: KIFKEQ_clean_linker_1, # of connection points: 2
#     Edge 25, Type (0, 0), BuildingBlock: KIFKEQ_clean_linker_1, # of connection points: 2
#     Edge 26, Type (0, 0), BuildingBlock: KIFKEQ_clean_linker_1, # of connection points: 2
#     Edge 27, Type (0, 0), BuildingBlock: KIFKEQ_clean_linker_1, # of connection points: 2
#     Edge 28, Type (0, 0), BuildingBlock: KIFKEQ_clean_linker_1, # of connection points: 2
#     Edge 29, Type (0, 0), BuildingBlock: KIFKEQ_clean_linker_1, # of connection points: 2
# Relax obj value: 0.011
# Max RMSD: 0.025
# Mean RMSD: 0.025
data_MOF--net-qtz-g--node1-OLANEW_clean_sbu_2--edge1-KIFKEQ_clean_linker_1
_symmetry_space_group_name_H-M    P1
_symmetry_Int_Tables_number       1
_symmetry_cell_setting            triclinic
loop_
_symmetry_equiv_pos_as_xyz
'x, y, z'
_cell_length_a     45.050454
_cell_length_b     45.049101
_cell_length_c     85.314478
_cell_angle_alpha  90.000513
_cell_angle_beta   90.000743
_cell_angle_gamma 119.98509
loop_
_atom_site_label
_atom_site_type_symbol
_atom_site_fract_x
_atom_site_fract_y
_atom_site_fract_z
_atom_type_partial_charge
O0 O 0.99534 0.36583 0.02766 0.0
Cd1 Cd 0.99653 0.31221 0.02857 0.0
O2 O 0.01084 0.37331 0.05232 0.0
Cd3 Cd 0.02005 0.39758 0.0754 0.0
O4 O 0.02452 0.4103 0.10032 0.0
C5 C 0.99952 0.40958 0.10757 0.0
O6 O 0.97156 0.40226 0.09974 0.0
C7 C 0.0028 0.38377 0.04007 0.0
C8 C 0.05842 0.31899 0.01829 0.0
O9 O 0.03338 0.31045 0.00879 0.0
O10 O 0.05428 0.32466 0.03262 0.0
O11 O 0.61934 0.98793 0.35866 0.0
Cd12 Cd 0.67292 0.98673 0.35752 0.0
O13 O 0.63331 0.00783 0.38257 0.0
Cd14 Cd 0.62271 0.02116 0.40573 0.0
O15 O 0.61616 0.02506 0.43087 0.0
C16 C 0.60603 0.99818 0.4391 0.0
O17 O 0.59925 0.96948 0.4321 0.0
C18 C 0.61227 0.99828 0.37121 0.0
C19 C 0.72863 0.049 0.34806 0.0
O20 O 0.71093 0.02543 0.33807 0.0
O21 O 0.71979 0.0432 0.36251 0.0
O22 O 0.62735 0.61646 0.69345 0.0
Cd23 Cd 0.68202 0.67013 0.69231 0.0
O24 O 0.6218 0.62991 0.71752 0.0
Cd25 Cd 0.59809 0.61852 0.74074 0.0
O26 O 0.58742 0.61035 0.76583 0.0
C27 C 0.60773 0.60501 0.77411 0.0
O28 O 0.63333 0.6041 0.76719 0.0
C29 C 0.61015 0.60913 0.70607 0.0
C30 C 0.6751 0.72562 0.68283 0.0
O31 O 0.68115 0.70803 0.67285 0.0
O32 O 0.67207 0.71679 0.69728 0.0
O33 O 0.99968 0.61935 0.02457 0.0
Cd34 Cd 0.00059 0.67406 0.02437 0.0
O35 O 0.99146 0.61824 0.04986 0.0
Cd36 Cd 0.98196 0.59903 0.07398 0.0
O37 O 0.97941 0.58965 0.09918 0.0
C38 C 0.0046 0.61058 0.10753 0.0
O39 O 0.03097 0.63637 0.10064 0.0
C40 C 0.99573 0.60444 0.03768 0.0
C41 C 0.9388 0.66866 0.01493 0.0
O42 O 0.96271 0.67534 0.00501 0.0
O43 O 0.94398 0.66415 0.02928 0.0
O44 O 0.38303 0.01151 0.36064 0.0
Cd45 Cd 0.32907 0.01203 0.36021 0.0
O46 O 0.37027 0.99147 0.38458 0.0
Cd47 Cd 0.38189 0.97811 0.40752 0.0
O48 O 0.3889 0.97445 0.43265 0.0
C49 C 0.39501 1.00021 0.44104 0.0
O50 O 0.39749 0.02749 0.43419 0.0
C51 C 0.3908 0.00122 0.37301 0.0
C52 C 0.27364 0.94946 0.35086 0.0
O53 O 0.29064 0.9733 0.34088 0.0
O54 O 0.28302 0.95515 0.36525 0.0
O55 O 0.3679 0.37933 0.6961 0.0
Cd56 Cd 0.31341 0.32539 0.69586 0.0
O57 O 0.37533 0.36737 0.72017 0.0
Cd58 Cd 0.40068 0.37991 0.74303 0.0
O59 O 0.41312 0.38829 0.76796 0.0
C60 C 0.41023 0.41144 0.77515 0.0
O61 O 0.40101 0.43053 0.76722 0.0
C62 C 0.38602 0.3875 0.70846 0.0
C63 C 0.31995 0.27001 0.6858 0.0
O64 O 0.31291 0.28734 0.6761 0.0
O65 O 0.32415 0.27905 0.70025 0.0
O66 O 0.62288 1.00021 0.64014 0.0
Cd67 Cd 0.67742 0.0008 0.63968 0.0
O68 O 0.62092 0.99277 0.61478 0.0
Cd69 Cd 0.60145 0.98397 0.5907 0.0
O70 O 0.59213 0.98188 0.56549 0.0
C71 C 0.61278 0.00738 0.55722 0.0
O72 O 0.63828 0.03389 0.56418 0.0
C73 C 0.6075 0.99663 0.62719 0.0
C74 C 0.67187 0.93911 0.64943 0.0
O75 O 0.67936 0.96352 0.65918 0.0
O76 O 0.66668 0.94378 0.6351 0.0
O77 O 0.61696 0.62784 0.97278 0.0
Cd78 Cd 0.67081 0.68237 0.97368 0.0
O79 O 0.62983 0.62223 0.94862 0.0
Cd80 Cd 0.61818 0.59848 0.9254 0.0
O81 O 0.61079 0.58806 0.90028 0.0
C82 C 0.60037 0.60477 0.8922 0.0
O83 O 0.59373 0.62665 0.89934 0.0
C84 C 0.60932 0.6106 0.96017 0.0
C85 C 0.72617 0.67487 0.98279 0.0
O86 O 0.70904 0.68127 0.9929 0.0
O87 O 0.71697 0.67182 0.96839 0.0
O88 O 0.99997 0.6217 0.3084 0.0
Cd89 Cd 0.99884 0.67537 0.30863 0.0
O90 O 0.00839 0.62891 0.28313 0.0
Cd91 Cd 0.0183 0.61949 0.25903 0.0
O92 O 0.02171 0.61347 0.23382 0.0
C93 C 0.99465 0.60254 0.22564 0.0
O94 O 0.96569 0.59462 0.2327 0.0
C95 C 0.00414 0.61085 0.2953 0.0
C96 C 0.0606 0.7317 0.31814 0.0
O97 O 0.03667 0.71438 0.32804 0.0
O98 O 0.05543 0.72215 0.30376 0.0
O99 O 0.3684 0.99414 0.64076 0.0
Cd100 Cd 0.31431 0.99447 0.64054 0.0
O101 O 0.3733 0.00722 0.61581 0.0
Cd102 Cd 0.39561 0.01439 0.59238 0.0
O103 O 0.40661 0.01659 0.56733 0.0
C104 C 0.38893 0.98991 0.55909 0.0
O105 O 0.36543 0.96189 0.56602 0.0
C106 C 0.38514 0.00062 0.62802 0.0
C107 C 0.32084 0.05632 0.6507 0.0
O108 O 0.3132 0.03167 0.66032 0.0
O109 O 0.32571 0.05183 0.6363 0.0
O110 O 0.38156 0.36752 0.97221 0.0
Cd111 Cd 0.32801 0.3127 0.97306 0.0
O112 O 0.36812 0.3742 0.9483 0.0
Cd113 Cd 0.37928 0.39909 0.92534 0.0
O114 O 0.38675 0.41141 0.90038 0.0
C115 C 0.4114 0.41126 0.8932 0.0
O116 O 0.43258 0.40488 0.90115 0.0
C117 C 0.38887 0.38534 0.95977 0.0
C118 C 0.27247 0.31902 0.98307 0.0
O119 O 0.29029 0.31278 0.99284 0.0
O120 O 0.2811 0.32252 0.96858 0.0
O121 O 0.00687 0.37393 0.30571 0.0
Cd122 Cd 0.00605 0.31929 0.30496 0.0
O123 O 0.99173 0.36574 0.281 0.0
Cd124 Cd 0.98269 0.3806 0.25785 0.0
O125 O 0.97851 0.38882 0.2329 0.0
C126 C 0.00402 0.41238 0.2256 0.0
O127 O 0.03229 0.43226 0.2334 0.0
C128 C 0.99947 0.38426 0.29324 0.0
C129 C 0.94383 0.26396 0.31475 0.0
O130 O 0.96846 0.28035 0.32446 0.0
O131 O 0.94854 0.27397 0.30044 0.0
H132 H 0.98058 0.55813 0.01424 0.0
H133 H 0.01375 0.57771 0.06248 0.0
H134 H 0.98261 0.50519 0.0149 0.0
H135 H 0.01293 0.52348 0.06363 0.0
H136 H 0.04486 0.44334 0.05552 0.0
H137 H 0.04292 0.49641 0.05513 0.0
H138 H 0.95469 0.44891 0.02448 0.0
H139 H 0.95763 0.39634 0.02451 0.0
C140 C 0.98768 0.55081 0.0251 0.0
C141 C 0.99594 0.57169 0.03846 0.0
C142 C 0.98851 0.52023 0.02553 0.0
C143 C 0.99751 0.50965 0.03938 0.0
C144 C 0.00598 0.53072 0.05273 0.0
C145 C 0.00557 0.56153 0.05221 0.0
C146 C 0.02479 0.44417 0.0489 0.0
C147 C 0.00112 0.41565 0.04022 0.0
C148 C 0.02363 0.47461 0.04865 0.0
C149 C 0.99855 0.47709 0.03981 0.0
C150 C 0.97474 0.44828 0.03121 0.0
C151 C 0.97624 0.41804 0.03129 0.0
H152 H 0.60156 0.0467 0.38498 0.0
H153 H 0.54987 0.95036 0.36017 0.0
H154 H 0.54765 0.04768 0.38632 0.0
H155 H 0.49585 0.95102 0.36183 0.0
H156 H 0.40248 0.95299 0.3863 0.0
H157 H 0.45649 0.95211 0.38672 0.0
H158 H 0.50667 0.04874 0.36216 0.0
H159 H 0.45252 0.04929 0.36141 0.0
C160 C 0.57855 0.02551 0.38006 0.0
C161 C 0.57968 0.99831 0.3726 0.0
C162 C 0.54789 0.02621 0.38073 0.0
C163 C 0.51778 0.99934 0.37424 0.0
C164 C 0.51877 0.97187 0.36701 0.0
C165 C 0.54959 0.97158 0.36601 0.0
C166 C 0.42516 0.97421 0.38117 0.0
C167 C 0.42353 0.00136 0.37394 0.0
C168 C 0.45588 0.97357 0.38132 0.0
C169 C 0.48556 0.00043 0.37453 0.0
C170 C 0.48409 0.02789 0.36756 0.0
C171 C 0.4532 0.02812 0.36708 0.0
H172 H 0.44606 0.39952 0.72171 0.0
H173 H 0.39952 0.44891 0.6965 0.0
H174 H 0.5009 0.45358 0.72191 0.0
H175 H 0.45418 0.50312 0.69703 0.0
H176 H 0.55118 0.59826 0.72005 0.0
H177 H 0.49636 0.54431 0.72144 0.0
H178 H 0.54099 0.49275 0.69655 0.0
H179 H 0.5956 0.54684 0.69483 0.0
C180 C 0.44746 0.42208 0.71646 0.0
C181 C 0.41861 0.42026 0.70921 0.0
C182 C 0.47878 0.45281 0.71648 0.0
C183 C 0.4815 0.48232 0.70954 0.0
C184 C 0.45252 0.48067 0.70254 0.0
C185 C 0.42143 0.44974 0.70219 0.0
C186 C 0.54933 0.5753 0.71504 0.0
C187 C 0.57757 0.57651 0.70745 0.0
C188 C 0.51801 0.54462 0.71575 0.0
C189 C 0.51473 0.51457 0.70917 0.0
C190 C 0.5431 0.51564 0.7018 0.0
C191 C 0.57417 0.54649 0.70076 0.0
H192 H 0.56284 0.98204 0.65131 0.0
H193 H 0.5787 0.01361 0.60283 0.0
H194 H 0.50964 0.9835 0.65147 0.0
H195 H 0.52412 0.01208 0.60249 0.0
H196 H 0.44317 0.04236 0.61152 0.0
H197 H 0.49677 0.04141 0.6112 0.0
H198 H 0.45281 0.95489 0.64292 0.0
H199 H 0.39982 0.957 0.64365 0.0
C200 C 0.55466 0.98866 0.64058 0.0
C201 C 0.57461 0.99664 0.62691 0.0
C202 C 0.5239 0.98916 0.64061 0.0
C203 C 0.51213 0.99745 0.62693 0.0
C204 C 0.53228 0.00567 0.61328 0.0
C205 C 0.5633 0.00565 0.61333 0.0
C206 C 0.44493 0.0229 0.61825 0.0
C207 C 0.41729 0.99949 0.62746 0.0
C208 C 0.47565 0.0223 0.61808 0.0
C209 C 0.47928 0.99798 0.62699 0.0
C210 C 0.45133 0.9744 0.63612 0.0
C211 C 0.42084 0.9754 0.63647 0.0
H212 H 0.45113 0.39974 0.97097 0.0
H213 H 0.3995 0.44486 0.94648 0.0
H214 H 0.50496 0.45469 0.96986 0.0
H215 H 0.4532 0.50001 0.94569 0.0
H216 H 0.54732 0.59575 0.9719 0.0
H217 H 0.49344 0.54086 0.9706 0.0
H218 H 0.5446 0.49661 0.9451 0.0
H219 H 0.59833 0.55169 0.94608 0.0
C220 C 0.45139 0.4214 0.96531 0.0
C221 C 0.42138 0.4181 0.95866 0.0
C222 C 0.4821 0.45266 0.96463 0.0
C223 C 0.48302 0.48133 0.95765 0.0
C224 C 0.45299 0.47813 0.95109 0.0
C225 C 0.42246 0.44664 0.95144 0.0
C226 C 0.54691 0.57434 0.96591 0.0
C227 C 0.57676 0.57792 0.95894 0.0
C228 C 0.51617 0.54312 0.96512 0.0
C229 C 0.51507 0.51476 0.95771 0.0
C230 C 0.54494 0.51824 0.95083 0.0
C231 C 0.57549 0.5497 0.95129 0.0
H232 H 0.98689 0.56625 0.27047 0.0
H233 H 0.01932 0.57989 0.31882 0.0
H234 H 0.98832 0.51315 0.26938 0.0
H235 H 0.01792 0.52524 0.3182 0.0
H236 H 0.04412 0.44218 0.30882 0.0
H237 H 0.04651 0.49744 0.30875 0.0
H238 H 0.95867 0.45604 0.27784 0.0
H239 H 0.95728 0.40128 0.27756 0.0
C240 C 0.99504 0.55835 0.28078 0.0
C241 C 0.00427 0.57806 0.29455 0.0
C242 C 0.99498 0.5273 0.28029 0.0
C243 C 0.00344 0.5148 0.29368 0.0
C244 C 0.01204 0.5343 0.30754 0.0
C245 C 0.01252 0.56554 0.30795 0.0
C246 C 0.02548 0.44507 0.30196 0.0
C247 C 0.00087 0.41768 0.293 0.0
C248 C 0.02667 0.47666 0.30199 0.0
C249 C 0.00279 0.48139 0.29328 0.0
C250 C 0.97799 0.45373 0.2844 0.0
C251 C 0.97716 0.42228 0.28421 0.0
H252 H 0.05478 0.45825 0.20631 0.0
H253 H 0.95039 0.374 0.20587 0.0
H254 H 0.05387 0.4613 0.17778 0.0
H255 H 0.94975 0.37667 0.17737 0.0
H256 H 0.94975 0.40721 0.12679 0.0
H257 H 0.9508 0.4115 0.1553 0.0
H258 H 0.05329 0.42644 0.15584 0.0
H259 H 0.05252 0.42279 0.12735 0.0
C260 C 0.03158 0.44048 0.20014 0.0
C261 C 0.00272 0.41576 0.20837 0.0
C262 C 0.03114 0.44212 0.18378 0.0
C263 C 0.0018 0.41912 0.17529 0.0
C264 C 0.97263 0.39502 0.18355 0.0
C265 C 0.97308 0.39336 0.1999 0.0
C266 C 0.97263 0.4117 0.13297 0.0
C267 C 0.00099 0.41448 0.12478 0.0
C268 C 0.97315 0.41398 0.14933 0.0
C269 C 0.00205 0.41914 0.15786 0.0
C270 C 0.03075 0.42284 0.14963 0.0
C271 C 0.03023 0.42053 0.13328 0.0
H272 H 0.61854 0.05324 0.45737 0.0
H273 H 0.5884 0.94599 0.45995 0.0
H274 H 0.61735 0.05574 0.48592 0.0
H275 H 0.58799 0.94871 0.48843 0.0
H276 H 0.56267 0.95712 0.5391 0.0
H277 H 0.5582 0.95528 0.51058 0.0
H278 H 0.6507 0.05397 0.50777 0.0
H279 H 0.65475 0.05617 0.53624 0.0
C280 C 0.61159 0.03019 0.46402 0.0
C281 C 0.6037 0.99945 0.45638 0.0
C282 C 0.61109 0.03167 0.48038 0.0
C283 C 0.60271 0.00246 0.48947 0.0
C284 C 0.59414 0.97158 0.4818 0.0
C285 C 0.59459 0.97008 0.46545 0.0
C286 C 0.58194 0.97851 0.5324 0.0
C287 C 0.60914 0.00674 0.53995 0.0
C288 C 0.57946 0.97738 0.51605 0.0
C289 C 0.60415 0.00442 0.50688 0.0
C290 C 0.631 0.0329 0.51447 0.0
C291 C 0.63344 0.03406 0.53081 0.0
H292 H 0.64905 0.59709 0.79506 0.0
H293 H 0.55741 0.6049 0.7922 0.0
H294 H 0.64452 0.59436 0.8235 0.0
H295 H 0.55243 0.60135 0.82071 0.0
H296 H 0.58263 0.63967 0.87159 0.0
H297 H 0.58204 0.63696 0.8431 0.0
H298 H 0.61083 0.55881 0.84513 0.0
H299 H 0.61221 0.56209 0.87368 0.0
C300 C 0.62772 0.59787 0.80049 0.0
C301 C 0.6037 0.60141 0.79135 0.0
C302 C 0.62499 0.59607 0.81681 0.0
C303 C 0.59813 0.59767 0.8244 0.0
C304 C 0.5737 0.60052 0.81524 0.0
C305 C 0.57646 0.60238 0.7989 0.0
C306 C 0.58864 0.62174 0.86598 0.0
C307 C 0.5977 0.60127 0.87492 0.0
C308 C 0.58808 0.62003 0.84962 0.0
C309 C 0.5965 0.59775 0.84181 0.0
C310 C 0.60472 0.57663 0.85077 0.0
C311 C 0.60533 0.57838 0.86714 0.0
H312 H 0.94227 0.58409 0.20479 0.0
H313 H 0.05006 0.61644 0.20735 0.0
H314 H 0.9451 0.58407 0.1763 0.0
H315 H 0.05269 0.61563 0.17882 0.0
H316 H 0.05265 0.65309 0.12864 0.0
H317 H 0.05021 0.64881 0.15709 0.0
H318 H 0.95259 0.55511 0.15403 0.0
H319 H 0.95465 0.55981 0.12551 0.0
C320 C 0.96651 0.59086 0.19928 0.0
C321 C 0.99599 0.60047 0.20835 0.0
C322 C 0.96807 0.59063 0.18293 0.0
C323 C 0.99915 0.59995 0.17526 0.0
C324 C 0.02847 0.60882 0.18435 0.0
C325 C 0.02691 0.6091 0.20071 0.0
C326 C 0.03072 0.63148 0.13401 0.0
C327 C 0.00376 0.60689 0.1248 0.0
C328 C 0.02943 0.6289 0.15034 0.0
C329 C 0.00119 0.60163 0.15786 0.0
C330 C 0.97449 0.57669 0.14862 0.0
C331 C 0.97576 0.5793 0.13227 0.0
H332 H 0.40489 0.0499 0.46212 0.0
H333 H 0.39093 0.94793 0.45906 0.0
H334 H 0.40596 0.04709 0.49057 0.0
H335 H 0.39279 0.94543 0.4876 0.0
H336 H 0.35269 0.93841 0.53812 0.0
H337 H 0.35687 0.94109 0.50965 0.0
H338 H 0.43942 0.04604 0.51253 0.0
H339 H 0.43472 0.04363 0.54103 0.0
C340 C 0.40241 0.027 0.46751 0.0
C341 C 0.39765 0.99907 0.45831 0.0
C342 C 0.40325 0.02548 0.48384 0.0
C343 C 0.39943 0.99602 0.49138 0.0
C344 C 0.39535 0.96833 0.48217 0.0
C345 C 0.39446 0.96983 0.46581 0.0
C346 C 0.37189 0.96201 0.5327 0.0
C347 C 0.39321 0.99089 0.54185 0.0
C348 C 0.37443 0.96347 0.51636 0.0
C349 C 0.39839 0.99382 0.50879 0.0
C350 C 0.42032 0.02243 0.51798 0.0
C351 C 0.41775 0.02099 0.53432 0.0
H352 H 0.3705 0.42234 0.87317 0.0
H353 H 0.45967 0.41003 0.8742 0.0
H354 H 0.37338 0.42529 0.84466 0.0
H355 H 0.46289 0.41362 0.84567 0.0
H356 H 0.42681 0.37452 0.79518 0.0
H357 H 0.42984 0.37774 0.82368 0.0
H358 H 0.40723 0.46031 0.82265 0.0
H359 H 0.40358 0.45669 0.79414 0.0
C360 C 0.39096 0.42065 0.86733 0.0
C361 C 0.41473 0.41572 0.87597 0.0
C362 C 0.39273 0.42255 0.85098 0.0
C363 C 0.4183 0.41957 0.84288 0.0
C364 C 0.44259 0.41552 0.85154 0.0
C365 C 0.44084 0.41365 0.8679 0.0
C366 C 0.42274 0.39354 0.80101 0.0
C367 C 0.41473 0.41519 0.79237 0.0
C368 C 0.42467 0.39553 0.81736 0.0
C369 C 0.41864 0.4192 0.82545 0.0
C370 C 0.41153 0.44146 0.81679 0.0
C371 C 0.40962 0.4395 0.80043 0.0
H372 H 0.2334 0.33778 0.96578 0.0
H373 H 0.24348 0.30557 0.01222 0.0
H374 H 0.18306 0.34032 0.97425 0.0
H375 H 0.19255 0.30705 0.02057 0.0
H376 H 0.11795 0.34207 0.03482 0.0
H377 H 0.17077 0.34457 0.02626 0.0
H378 H 0.12455 0.30281 0.98129 0.0
H379 H 0.07219 0.30135 0.98968 0.0
C380 C 0.22483 0.33116 0.97779 0.0
C381 C 0.24242 0.32142 0.98832 0.0
C382 C 0.19582 0.33242 0.98263 0.0
C383 C 0.1836 0.32377 0.99809 0.0
C384 C 0.20147 0.31436 0.00865 0.0
C385 C 0.23059 0.31331 0.00383 0.0
C386 C 0.11914 0.33359 0.02308 0.0
C387 C 0.09085 0.32146 0.01294 0.0
C388 C 0.14936 0.33482 0.0182 0.0
C389 C 0.15194 0.32377 0.0031 0.0
C390 C 0.1237 0.312 0.99291 0.0
C391 C 0.09356 0.31096 0.99776 0.0
H392 H 0.92912 0.23172 0.34317 0.0
H393 H 0.88483 0.2281 0.2978 0.0
H394 H 0.87647 0.18063 0.35112 0.0
H395 H 0.83171 0.17762 0.30592 0.0
H396 H 0.75843 0.06559 0.3191 0.0
H397 H 0.80962 0.11822 0.31122 0.0
H398 H 0.81782 0.15932 0.35782 0.0
H399 H 0.76722 0.10617 0.36582 0.0
C400 C 0.908 0.22023 0.33495 0.0
C401 C 0.91122 0.2339 0.31983 0.0
C402 C 0.87769 0.19101 0.33954 0.0
C403 C 0.84978 0.17489 0.32916 0.0
C404 C 0.85285 0.18899 0.31413 0.0
C405 C 0.88325 0.21807 0.3095 0.0
C406 C 0.77109 0.0859 0.32765 0.0
C407 C 0.75883 0.08163 0.3431 0.0
C408 C 0.80036 0.11621 0.32311 0.0
C409 C 0.81795 0.14308 0.33388 0.0
C410 C 0.80529 0.13897 0.34928 0.0
C411 C 0.77614 0.10856 0.35385 0.0
H412 H 0.68842 0.75558 0.6539 0.0
H413 H 0.65571 0.76366 0.70052 0.0
H414 H 0.68631 0.80642 0.64599 0.0
H415 H 0.65248 0.81388 0.69249 0.0
H416 H 0.68962 0.92481 0.67789 0.0
H417 H 0.68909 0.87265 0.68585 0.0
H418 H 0.64842 0.82772 0.64055 0.0
H419 H 0.65006 0.88037 0.63242 0.0
C420 C 0.68043 0.76801 0.66242 0.0
C421 C 0.67236 0.75565 0.67786 0.0
C422 C 0.67901 0.79708 0.65786 0.0
C423 C 0.66925 0.81435 0.6686 0.0
C424 C 0.66065 0.8016 0.68398 0.0
C425 C 0.6623 0.77266 0.68857 0.0
C426 C 0.68046 0.90375 0.66964 0.0
C427 C 0.67001 0.90679 0.6545 0.0
C428 C 0.67995 0.87372 0.67424 0.0
C429 C 0.66875 0.84591 0.66384 0.0
C430 C 0.65775 0.8488 0.64878 0.0
C431 C 0.65849 0.87893 0.64414 0.0
H432 H 0.88079 0.64812 0.03233 0.0
H433 H 0.92385 0.68576 0.98646 0.0
H434 H 0.82829 0.64716 0.02451 0.0
H435 H 0.87189 0.68595 0.9788 0.0
H436 H 0.76289 0.65422 0.96489 0.0
H437 H 0.81281 0.65015 0.97261 0.0
H438 H 0.8077 0.68557 0.01909 0.0
H439 H 0.75713 0.68848 0.0115 0.0
C440 C 0.87907 0.65627 0.02058 0.0
C441 C 0.90651 0.66706 0.01002 0.0
C442 C 0.84904 0.65593 0.01612 0.0
C443 C 0.84583 0.66662 0.00103 0.0
C444 C 0.8732 0.67706 0.99043 0.0
C445 C 0.90312 0.67715 0.99486 0.0
C446 C 0.77235 0.66099 0.97677 0.0
C447 C 0.75607 0.67171 0.98757 0.0
C448 C 0.80112 0.65886 0.98119 0.0
C449 C 0.81443 0.66764 0.99647 0.0
C450 C 0.7979 0.6781 0.0073 0.0
C451 C 0.76899 0.67998 0.00291 0.0
H452 H 0.24254 0.93293 0.32217 0.0
H453 H 0.23693 0.89166 0.36849 0.0
H454 H 0.19184 0.87972 0.31441 0.0
H455 H 0.18687 0.83797 0.36059 0.0
H456 H 0.07568 0.76323 0.34673 0.0
H457 H 0.12774 0.81512 0.35452 0.0
H458 H 0.17111 0.82078 0.30866 0.0
H459 H 0.11853 0.76948 0.30073 0.0
C460 C 0.23068 0.91235 0.33066 0.0
C461 C 0.24369 0.91657 0.34596 0.0
C462 C 0.2017 0.88172 0.32618 0.0
C463 C 0.18517 0.85448 0.33687 0.0
C464 C 0.19856 0.85858 0.35212 0.0
C465 C 0.22741 0.8893 0.35663 0.0
C466 C 0.09638 0.77548 0.33833 0.0
C467 C 0.09291 0.7623 0.32309 0.0
C468 C 0.12635 0.80516 0.34282 0.0
C469 C 0.15369 0.82225 0.33222 0.0
C470 C 0.15038 0.80866 0.31706 0.0
C471 C 0.1203 0.77911 0.31253 0.0
H472 H 0.30512 0.24012 0.65684 0.0
H473 H 0.34036 0.23199 0.70288 0.0
H474 H 0.30681 0.1893 0.6485 0.0
H475 H 0.34312 0.18176 0.6944 0.0
H476 H 0.34223 0.11522 0.63386 0.0
H477 H 0.34452 0.16798 0.64236 0.0
H478 H 0.30579 0.12294 0.68785 0.0
H479 H 0.30456 0.07066 0.6795 0.0
C480 C 0.31357 0.22768 0.66514 0.0
C481 C 0.32247 0.24002 0.68054 0.0
C482 C 0.31475 0.19863 0.66032 0.0
C483 C 0.32507 0.18134 0.67077 0.0
C484 C 0.33451 0.19407 0.68612 0.0
C485 C 0.33313 0.22301 0.69096 0.0
C486 C 0.33437 0.11666 0.6457 0.0
C487 C 0.32317 0.08873 0.65599 0.0
C488 C 0.33548 0.14685 0.65055 0.0
C489 C 0.32522 0.14973 0.66578 0.0
C490 C 0.31436 0.12186 0.67612 0.0
C491 C 0.31345 0.09176 0.67129 0.0
loop_
_geom_bond_atom_site_label_1
_geom_bond_atom_site_label_2
_geom_bond_distance
_geom_bond_site_symmetry_2
_ccdc_geom_bond_type
O0 Cd1 2.300 . S
O0 C7 1.275 . S
Cd1 O0 2.300 . S
Cd1 O9 2.381 . S
Cd1 O10 2.378 . S
O2 Cd3 2.385 . S
O2 C7 1.255 . S
Cd3 O2 2.385 . S
Cd3 O4 2.317 . S
O4 Cd3 2.317 . S
O4 C5 1.232 . S
C5 O4 1.232 . S
C5 O6 1.218 . S
O6 C5 1.218 . S
C7 O0 1.275 . S
C7 O2 1.255 . S
C8 O9 1.258 . S
C8 O10 1.256 . S
O9 Cd1 2.381 . S
O9 C8 1.258 . S
O10 Cd1 2.378 . S
O10 C8 1.256 . S
O11 Cd12 2.300 . S
O11 C18 1.275 . S
Cd12 O11 2.300 . S
Cd12 O20 2.381 . S
Cd12 O21 2.378 . S
O13 Cd14 2.385 . S
O13 C18 1.255 . S
Cd14 O13 2.385 . S
Cd14 O15 2.317 . S
O15 Cd14 2.317 . S
O15 C16 1.232 . S
C16 O15 1.232 . S
C16 O17 1.218 . S
O17 C16 1.218 . S
C18 O11 1.275 . S
C18 O13 1.255 . S
C19 O20 1.258 . S
C19 O21 1.256 . S
O20 Cd12 2.381 . S
O20 C19 1.258 . S
O21 Cd12 2.378 . S
O21 C19 1.256 . S
O22 Cd23 2.300 . S
O22 C29 1.275 . S
Cd23 O22 2.300 . S
Cd23 O31 2.381 . S
Cd23 O32 2.378 . S
O24 Cd25 2.385 . S
O24 C29 1.255 . S
Cd25 O24 2.385 . S
Cd25 O26 2.317 . S
O26 Cd25 2.317 . S
O26 C27 1.232 . S
C27 O26 1.232 . S
C27 O28 1.218 . S
O28 C27 1.218 . S
C29 O22 1.275 . S
C29 O24 1.255 . S
C30 O31 1.258 . S
C30 O32 1.256 . S
O31 Cd23 2.381 . S
O31 C30 1.258 . S
O32 Cd23 2.378 . S
O32 C30 1.256 . S
O33 Cd34 2.300 . S
O33 C40 1.275 . S
Cd34 O33 2.300 . S
Cd34 O42 2.381 . S
Cd34 O43 2.378 . S
O35 Cd36 2.385 . S
O35 C40 1.255 . S
Cd36 O35 2.385 . S
Cd36 O37 2.317 . S
O37 Cd36 2.317 . S
O37 C38 1.232 . S
C38 O37 1.232 . S
C38 O39 1.218 . S
O39 C38 1.218 . S
C40 O33 1.275 . S
C40 O35 1.255 . S
C41 O42 1.258 . S
C41 O43 1.256 . S
O42 Cd34 2.381 . S
O42 C41 1.258 . S
O43 Cd34 2.378 . S
O43 C41 1.256 . S
O44 Cd45 2.300 . S
O44 C51 1.275 . S
Cd45 O44 2.300 . S
Cd45 O53 2.381 . S
Cd45 O54 2.378 . S
O46 Cd47 2.385 . S
O46 C51 1.255 . S
Cd47 O46 2.385 . S
Cd47 O48 2.317 . S
O48 Cd47 2.317 . S
O48 C49 1.232 . S
C49 O48 1.232 . S
C49 O50 1.218 . S
O50 C49 1.218 . S
C51 O44 1.275 . S
C51 O46 1.255 . S
C52 O53 1.258 . S
C52 O54 1.256 . S
O53 Cd45 2.381 . S
O53 C52 1.258 . S
O54 Cd45 2.378 . S
O54 C52 1.256 . S
O55 Cd56 2.300 . S
O55 C62 1.275 . S
Cd56 O55 2.300 . S
Cd56 O64 2.381 . S
Cd56 O65 2.378 . S
O57 Cd58 2.385 . S
O57 C62 1.255 . S
Cd58 O57 2.385 . S
Cd58 O59 2.317 . S
O59 Cd58 2.317 . S
O59 C60 1.232 . S
C60 O59 1.232 . S
C60 O61 1.218 . S
O61 C60 1.218 . S
C62 O55 1.275 . S
C62 O57 1.255 . S
C63 O64 1.258 . S
C63 O65 1.256 . S
O64 Cd56 2.381 . S
O64 C63 1.258 . S
O65 Cd56 2.378 . S
O65 C63 1.256 . S
O66 Cd67 2.300 . S
O66 C73 1.275 . S
Cd67 O66 2.300 . S
Cd67 O75 2.381 . S
Cd67 O76 2.378 . S
O68 Cd69 2.385 . S
O68 C73 1.255 . S
Cd69 O68 2.385 . S
Cd69 O70 2.317 . S
O70 Cd69 2.317 . S
O70 C71 1.232 . S
C71 O70 1.232 . S
C71 O72 1.218 . S
O72 C71 1.218 . S
C73 O66 1.275 . S
C73 O68 1.255 . S
C74 O75 1.258 . S
C74 O76 1.256 . S
O75 Cd67 2.381 . S
O75 C74 1.258 . S
O76 Cd67 2.378 . S
O76 C74 1.256 . S
O77 Cd78 2.300 . S
O77 C84 1.275 . S
Cd78 O77 2.300 . S
Cd78 O86 2.381 . S
Cd78 O87 2.378 . S
O79 Cd80 2.385 . S
O79 C84 1.255 . S
Cd80 O79 2.385 . S
Cd80 O81 2.317 . S
O81 Cd80 2.317 . S
O81 C82 1.232 . S
C82 O81 1.232 . S
C82 O83 1.218 . S
O83 C82 1.218 . S
C84 O77 1.275 . S
C84 O79 1.255 . S
C85 O86 1.258 . S
C85 O87 1.256 . S
O86 Cd78 2.381 . S
O86 C85 1.258 . S
O87 Cd78 2.378 . S
O87 C85 1.256 . S
O88 Cd89 2.300 . S
O88 C95 1.275 . S
Cd89 O88 2.300 . S
Cd89 O97 2.381 . S
Cd89 O98 2.378 . S
O90 Cd91 2.385 . S
O90 C95 1.255 . S
Cd91 O90 2.385 . S
Cd91 O92 2.317 . S
O92 Cd91 2.317 . S
O92 C93 1.232 . S
C93 O92 1.232 . S
C93 O94 1.218 . S
O94 C93 1.218 . S
C95 O88 1.275 . S
C95 O90 1.255 . S
C96 O97 1.258 . S
C96 O98 1.256 . S
O97 Cd89 2.381 . S
O97 C96 1.258 . S
O98 Cd89 2.378 . S
O98 C96 1.256 . S
O99 Cd100 2.300 . S
O99 C106 1.275 . S
Cd100 O99 2.300 . S
Cd100 O108 2.381 . S
Cd100 O109 2.378 . S
O101 Cd102 2.385 . S
O101 C106 1.255 . S
Cd102 O101 2.385 . S
Cd102 O103 2.317 . S
O103 Cd102 2.317 . S
O103 C104 1.232 . S
C104 O103 1.232 . S
C104 O105 1.218 . S
O105 C104 1.218 . S
C106 O99 1.275 . S
C106 O101 1.255 . S
C107 O108 1.258 . S
C107 O109 1.256 . S
O108 Cd100 2.381 . S
O108 C107 1.258 . S
O109 Cd100 2.378 . S
O109 C107 1.256 . S
O110 Cd111 2.300 . S
O110 C117 1.275 . S
Cd111 O110 2.300 . S
Cd111 O119 2.381 . S
Cd111 O120 2.378 . S
O112 Cd113 2.385 . S
O112 C117 1.255 . S
Cd113 O112 2.385 . S
Cd113 O114 2.317 . S
O114 Cd113 2.317 . S
O114 C115 1.232 . S
C115 O114 1.232 . S
C115 O116 1.218 . S
O116 C115 1.218 . S
C117 O110 1.275 . S
C117 O112 1.255 . S
C118 O119 1.258 . S
C118 O120 1.256 . S
O119 Cd111 2.381 . S
O119 C118 1.258 . S
O120 Cd111 2.378 . S
O120 C118 1.256 . S
O121 Cd122 2.300 . S
O121 C128 1.275 . S
Cd122 O121 2.300 . S
Cd122 O130 2.381 . S
Cd122 O131 2.378 . S
O123 Cd124 2.385 . S
O123 C128 1.255 . S
Cd124 O123 2.385 . S
Cd124 O125 2.317 . S
O125 Cd124 2.317 . S
O125 C126 1.232 . S
C126 O125 1.232 . S
C126 O127 1.218 . S
O127 C126 1.218 . S
C128 O121 1.275 . S
C128 O123 1.255 . S
C129 O130 1.258 . S
C129 O131 1.256 . S
O130 Cd122 2.381 . S
O130 C129 1.258 . S
O131 Cd122 2.378 . S
O131 C129 1.256 . S
H132 C140 0.950 . S
H133 C145 0.950 . S
H134 C142 0.950 . S
H135 C144 0.950 . S
H136 C146 0.950 . S
H137 C148 0.950 . S
H138 C150 0.950 . S
H139 C151 0.950 . S
C140 H132 0.950 . S
C140 C141 1.386 . S
C140 C142 1.391 . S
C141 C140 1.386 . S
C141 C145 1.393 1_655 S
C142 H134 0.950 . S
C142 C140 1.391 . S
C142 C143 1.399 1_655 S
C143 C142 1.399 1_455 S
C143 C144 1.399 . S
C143 C149 1.487 . S
C144 H135 0.950 . S
C144 C143 1.399 . S
C144 C145 1.391 . S
C145 H133 0.950 . S
C145 C141 1.393 1_455 S
C145 C144 1.391 . S
C146 H136 0.950 . S
C146 C147 1.386 . S
C146 C148 1.391 . S
C147 C146 1.386 . S
C147 C151 1.393 1_455 S
C148 H137 0.950 . S
C148 C146 1.391 . S
C148 C149 1.407 . S
C149 C143 1.487 . S
C149 C148 1.407 . S
C149 C150 1.396 1_455 S
C150 H138 0.950 . S
C150 C149 1.396 1_655 S
C150 C151 1.391 . S
C151 H139 0.950 . S
C151 C147 1.393 1_655 S
C151 C150 1.391 . S
H152 C160 0.950 . S
H153 C165 0.950 . S
H154 C162 0.950 . S
H155 C164 0.950 . S
H156 C166 0.950 . S
H157 C168 0.950 . S
H158 C170 0.950 . S
H159 C171 0.950 . S
C160 H152 0.950 . S
C160 C161 1.386 . S
C160 C162 1.391 . S
C161 C160 1.386 . S
C161 C165 1.393 1_545 S
C162 H154 0.950 . S
C162 C160 1.391 . S
C162 C163 1.408 . S
C163 C162 1.408 . S
C163 C164 1.384 1_545 S
C163 C169 1.511 1_545 S
C164 H155 0.950 . S
C164 C163 1.384 1_565 S
C164 C165 1.391 . S
C165 H153 0.950 . S
C165 C161 1.393 1_565 S
C165 C164 1.391 . S
C166 H156 0.950 . S
C166 C167 1.386 . S
C166 C168 1.391 . S
C167 C166 1.386 . S
C167 C171 1.393 1_565 S
C168 H157 0.950 . S
C168 C166 1.391 . S
C168 C169 1.414 . S
C169 C163 1.511 1_565 S
C169 C168 1.414 . S
C169 C170 1.371 1_565 S
C170 H158 0.950 . S
C170 C169 1.371 1_545 S
C170 C171 1.391 . S
C171 H159 0.950 . S
C171 C167 1.393 1_545 S
C171 C170 1.391 . S
H172 C180 0.950 . S
H173 C185 0.950 . S
H174 C182 0.950 . S
H175 C184 0.950 . S
H176 C186 0.950 . S
H177 C188 0.950 . S
H178 C190 0.950 . S
H179 C191 0.950 . S
C180 H172 0.950 . S
C180 C181 1.386 . S
C180 C182 1.391 . S
C181 C180 1.386 . S
C181 C185 1.393 . S
C182 H174 0.950 . S
C182 C180 1.391 . S
C182 C183 1.400 . S
C183 C182 1.400 . S
C183 C184 1.398 . S
C183 C189 1.491 . S
C184 H175 0.950 . S
C184 C183 1.398 . S
C184 C185 1.391 . S
C185 H173 0.950 . S
C185 C181 1.393 . S
C185 C184 1.391 . S
C186 H176 0.950 . S
C186 C187 1.386 . S
C186 C188 1.391 . S
C187 C186 1.386 . S
C187 C191 1.393 . S
C188 H177 0.950 . S
C188 C186 1.391 . S
C188 C189 1.400 . S
C189 C183 1.491 . S
C189 C188 1.400 . S
C189 C190 1.398 . S
C190 H178 0.950 . S
C190 C189 1.398 . S
C190 C191 1.391 . S
C191 H179 0.950 . S
C191 C187 1.393 . S
C191 C190 1.391 . S
H192 C200 0.950 . S
H193 C205 0.950 . S
H194 C202 0.950 . S
H195 C204 0.950 . S
H196 C206 0.950 . S
H197 C208 0.950 . S
H198 C210 0.950 . S
H199 C211 0.950 . S
C200 H192 0.950 . S
C200 C201 1.386 . S
C200 C202 1.391 . S
C201 C200 1.386 . S
C201 C205 1.393 1_565 S
C202 H194 0.950 . S
C202 C200 1.391 . S
C202 C203 1.400 . S
C203 C202 1.400 . S
C203 C204 1.398 1_565 S
C203 C209 1.494 . S
C204 H195 0.950 . S
C204 C203 1.398 1_545 S
C204 C205 1.391 . S
C205 H193 0.950 . S
C205 C201 1.393 1_545 S
C205 C204 1.391 . S
C206 H196 0.950 . S
C206 C207 1.386 . S
C206 C208 1.391 . S
C207 C206 1.386 . S
C207 C211 1.393 1_545 S
C208 H197 0.950 . S
C208 C206 1.391 . S
C208 C209 1.396 1_545 S
C209 C203 1.494 . S
C209 C208 1.396 1_565 S
C209 C210 1.399 . S
C210 H198 0.950 . S
C210 C209 1.399 . S
C210 C211 1.391 . S
C211 H199 0.950 . S
C211 C207 1.393 1_565 S
C211 C210 1.391 . S
H212 C220 0.950 . S
H213 C225 0.950 . S
H214 C222 0.950 . S
H215 C224 0.950 . S
H216 C226 0.950 . S
H217 C228 0.950 . S
H218 C230 0.950 . S
H219 C231 0.950 . S
C220 H212 0.950 . S
C220 C221 1.386 . S
C220 C222 1.391 . S
C221 C220 1.386 . S
C221 C225 1.393 . S
C222 H214 0.950 . S
C222 C220 1.391 . S
C222 C223 1.400 . S
C223 C222 1.400 . S
C223 C224 1.398 . S
C223 C229 1.491 . S
C224 H215 0.950 . S
C224 C223 1.398 . S
C224 C225 1.391 . S
C225 H213 0.950 . S
C225 C221 1.393 . S
C225 C224 1.391 . S
C226 H216 0.950 . S
C226 C227 1.386 . S
C226 C228 1.391 . S
C227 C226 1.386 . S
C227 C231 1.393 . S
C228 H217 0.950 . S
C228 C226 1.391 . S
C228 C229 1.400 . S
C229 C223 1.491 . S
C229 C228 1.400 . S
C229 C230 1.398 . S
C230 H218 0.950 . S
C230 C229 1.398 . S
C230 C231 1.391 . S
C231 H219 0.950 . S
C231 C227 1.393 . S
C231 C230 1.391 . S
H232 C240 0.950 . S
H233 C245 0.950 . S
H234 C242 0.950 . S
H235 C244 0.950 . S
H236 C246 0.950 . S
H237 C248 0.950 . S
H238 C250 0.950 . S
H239 C251 0.950 . S
C240 H232 0.950 . S
C240 C241 1.386 1_655 S
C240 C242 1.391 . S
C241 C240 1.386 1_455 S
C241 C245 1.393 . S
C242 H234 0.950 . S
C242 C240 1.391 . S
C242 C243 1.400 1_655 S
C243 C242 1.400 1_455 S
C243 C244 1.398 . S
C243 C249 1.509 1_455 S
C244 H235 0.950 . S
C244 C243 1.398 . S
C244 C245 1.391 . S
C245 H233 0.950 . S
C245 C241 1.393 . S
C245 C244 1.391 . S
C246 H236 0.950 . S
C246 C247 1.386 1_455 S
C246 C248 1.391 . S
C247 C246 1.386 1_655 S
C247 C251 1.393 . S
C248 H237 0.950 . S
C248 C246 1.391 . S
C248 C249 1.373 1_455 S
C249 C243 1.509 1_655 S
C249 C248 1.373 1_655 S
C249 C250 1.408 . S
C250 H238 0.950 . S
C250 C249 1.408 . S
C250 C251 1.391 . S
C251 H239 0.950 . S
C251 C247 1.393 . S
C251 C250 1.391 . S
H252 C260 0.950 . S
H253 C265 0.950 . S
H254 C262 0.950 . S
H255 C264 0.950 . S
H256 C266 0.950 . S
H257 C268 0.950 . S
H258 C270 0.950 . S
H259 C271 0.950 . S
C260 H252 0.950 . S
C260 C261 1.395 . S
C260 C262 1.391 . S
C261 C260 1.395 . S
C261 C265 1.383 1_455 S
C262 H254 0.950 . S
C262 C260 1.391 . S
C262 C263 1.402 . S
C263 C262 1.402 . S
C263 C264 1.397 1_455 S
C263 C269 1.491 . S
C264 H255 0.950 . S
C264 C263 1.397 1_655 S
C264 C265 1.391 . S
C265 H253 0.950 . S
C265 C261 1.383 1_655 S
C265 C264 1.391 . S
C266 H256 0.950 . S
C266 C267 1.384 . S
C266 C268 1.391 . S
C267 C266 1.384 . S
C267 C271 1.395 1_655 S
C268 H257 0.950 . S
C268 C266 1.391 . S
C268 C269 1.397 1_655 S
C269 C263 1.491 . S
C269 C268 1.397 1_455 S
C269 C270 1.401 . S
C270 H258 0.950 . S
C270 C269 1.401 . S
C270 C271 1.391 . S
C271 H259 0.950 . S
C271 C267 1.395 1_455 S
C271 C270 1.391 . S
H272 C280 0.950 . S
H273 C285 0.950 . S
H274 C282 0.950 . S
H275 C284 0.950 . S
H276 C286 0.950 . S
H277 C288 0.950 . S
H278 C290 0.950 . S
H279 C291 0.950 . S
C280 H272 0.950 . S
C280 C281 1.386 . S
C280 C282 1.391 . S
C281 C280 1.386 . S
C281 C285 1.392 1_545 S
C282 H274 0.950 . S
C282 C280 1.391 . S
C282 C283 1.401 . S
C283 C282 1.401 . S
C283 C284 1.398 1_545 S
C283 C289 1.490 1_545 S
C284 H275 0.950 . S
C284 C283 1.398 1_565 S
C284 C285 1.391 . S
C285 H273 0.950 . S
C285 C281 1.392 1_565 S
C285 C284 1.391 . S
C286 H276 0.950 . S
C286 C287 1.388 . S
C286 C288 1.391 . S
C287 C286 1.388 . S
C287 C291 1.391 1_565 S
C288 H277 0.950 . S
C288 C286 1.391 . S
C288 C289 1.402 . S
C289 C283 1.490 1_565 S
C289 C288 1.402 . S
C289 C290 1.397 1_565 S
C290 H278 0.950 . S
C290 C289 1.397 1_545 S
C290 C291 1.391 . S
C291 H279 0.950 . S
C291 C287 1.391 1_545 S
C291 C290 1.391 . S
H292 C300 0.950 . S
H293 C305 0.950 . S
H294 C302 0.950 . S
H295 C304 0.950 . S
H296 C306 0.950 . S
H297 C308 0.950 . S
H298 C310 0.950 . S
H299 C311 0.950 . S
C300 H292 0.950 . S
C300 C301 1.386 . S
C300 C302 1.391 . S
C301 C300 1.386 . S
C301 C305 1.393 . S
C302 H294 0.950 . S
C302 C300 1.391 . S
C302 C303 1.400 . S
C303 C302 1.400 . S
C303 C304 1.398 . S
C303 C309 1.491 . S
C304 H295 0.950 . S
C304 C303 1.398 . S
C304 C305 1.391 . S
C305 H293 0.950 . S
C305 C301 1.393 . S
C305 C304 1.391 . S
C306 H296 0.950 . S
C306 C307 1.386 . S
C306 C308 1.391 . S
C307 C306 1.386 . S
C307 C311 1.393 . S
C308 H297 0.950 . S
C308 C306 1.391 . S
C308 C309 1.400 . S
C309 C303 1.491 . S
C309 C308 1.400 . S
C309 C310 1.398 . S
C310 H298 0.950 . S
C310 C309 1.398 . S
C310 C311 1.391 . S
C311 H299 0.950 . S
C311 C307 1.393 . S
C311 C310 1.391 . S
H312 C320 0.950 . S
H313 C325 0.950 . S
H314 C322 0.950 . S
H315 C324 0.950 . S
H316 C326 0.950 . S
H317 C328 0.950 . S
H318 C330 0.950 . S
H319 C331 0.950 . S
C320 H312 0.950 . S
C320 C321 1.386 . S
C320 C322 1.391 . S
C321 C320 1.386 . S
C321 C325 1.393 1_655 S
C322 H314 0.950 . S
C322 C320 1.391 . S
C322 C323 1.402 . S
C323 C322 1.402 . S
C323 C324 1.397 1_655 S
C323 C329 1.490 1_655 S
C324 H315 0.950 . S
C324 C323 1.397 1_455 S
C324 C325 1.391 . S
C325 H313 0.950 . S
C325 C321 1.393 1_455 S
C325 C324 1.391 . S
C326 H316 0.950 . S
C326 C327 1.386 . S
C326 C328 1.391 . S
C327 C326 1.386 . S
C327 C331 1.393 1_455 S
C328 H317 0.950 . S
C328 C326 1.391 . S
C328 C329 1.405 . S
C329 C323 1.490 1_455 S
C329 C328 1.405 . S
C329 C330 1.396 1_455 S
C330 H318 0.950 . S
C330 C329 1.396 1_655 S
C330 C331 1.391 . S
C331 H319 0.950 . S
C331 C327 1.393 1_655 S
C331 C330 1.391 . S
H332 C340 0.950 . S
H333 C345 0.950 . S
H334 C342 0.950 . S
H335 C344 0.950 . S
H336 C346 0.950 . S
H337 C348 0.950 . S
H338 C350 0.950 . S
H339 C351 0.950 . S
C340 H332 0.950 . S
C340 C341 1.362 1_545 S
C340 C342 1.391 . S
C341 C340 1.362 1_565 S
C341 C345 1.417 . S
C342 H334 0.950 . S
C342 C340 1.391 . S
C342 C343 1.382 1_545 S
C343 C342 1.382 1_565 S
C343 C344 1.418 . S
C343 C349 1.490 1_565 S
C344 H335 0.950 . S
C344 C343 1.418 . S
C344 C345 1.391 . S
C345 H333 0.950 . S
C345 C341 1.417 . S
C345 C344 1.391 . S
C346 H336 0.950 . S
C346 C347 1.373 1_565 S
C346 C348 1.391 . S
C347 C346 1.373 1_545 S
C347 C351 1.406 . S
C348 H337 0.950 . S
C348 C346 1.391 . S
C348 C349 1.393 1_565 S
C349 C343 1.490 1_545 S
C349 C348 1.393 1_545 S
C349 C350 1.406 . S
C350 H338 0.950 . S
C350 C349 1.406 . S
C350 C351 1.391 . S
C351 H339 0.950 . S
C351 C347 1.406 . S
C351 C350 1.391 . S
H352 C360 0.950 . S
H353 C365 0.950 . S
H354 C362 0.950 . S
H355 C364 0.950 . S
H356 C366 0.950 . S
H357 C368 0.950 . S
H358 C370 0.950 . S
H359 C371 0.950 . S
C360 H352 0.950 . S
C360 C361 1.386 . S
C360 C362 1.391 . S
C361 C360 1.386 . S
C361 C365 1.393 . S
C362 H354 0.950 . S
C362 C360 1.391 . S
C362 C363 1.400 . S
C363 C362 1.400 . S
C363 C364 1.398 . S
C363 C369 1.491 . S
C364 H355 0.950 . S
C364 C363 1.398 . S
C364 C365 1.391 . S
C365 H353 0.950 . S
C365 C361 1.393 . S
C365 C364 1.391 . S
C366 H356 0.950 . S
C366 C367 1.386 . S
C366 C368 1.391 . S
C367 C366 1.386 . S
C367 C371 1.393 . S
C368 H357 0.950 . S
C368 C366 1.391 . S
C368 C369 1.400 . S
C369 C363 1.491 . S
C369 C368 1.400 . S
C369 C370 1.398 . S
C370 H358 0.950 . S
C370 C369 1.398 . S
C370 C371 1.391 . S
C371 H359 0.950 . S
C371 C367 1.393 . S
C371 C370 1.391 . S
H372 C380 0.950 . S
H373 C385 0.950 . S
H374 C382 0.950 . S
H375 C384 0.950 1_554 S
H376 C386 0.950 . S
H377 C388 0.950 . S
H378 C390 0.950 1_556 S
H379 C391 0.950 . S
C380 H372 0.950 . S
C380 C381 1.386 . S
C380 C382 1.391 . S
C381 C380 1.386 . S
C381 C385 1.393 . S
C382 H374 0.950 . S
C382 C380 1.391 . S
C382 C383 1.400 . S
C383 C382 1.400 . S
C383 C384 1.398 . S
C383 C389 1.491 1_556 S
C384 H375 0.950 1_556 S
C384 C383 1.398 . S
C384 C385 1.391 . S
C385 H373 0.950 . S
C385 C381 1.393 . S
C385 C384 1.391 . S
C386 H376 0.950 . S
C386 C387 1.386 . S
C386 C388 1.391 . S
C387 C386 1.386 . S
C387 C391 1.393 . S
C388 H377 0.950 . S
C388 C386 1.391 . S
C388 C389 1.400 . S
C389 C383 1.491 1_554 S
C389 C388 1.400 . S
C389 C390 1.398 . S
C390 H378 0.950 1_554 S
C390 C389 1.398 . S
C390 C391 1.391 . S
C391 H379 0.950 . S
C391 C387 1.393 . S
C391 C390 1.391 . S
H392 C400 0.950 . S
H393 C405 0.950 . S
H394 C402 0.950 . S
H395 C404 0.950 . S
H396 C406 0.950 . S
H397 C408 0.950 . S
H398 C410 0.950 . S
H399 C411 0.950 . S
C400 H392 0.950 . S
C400 C401 1.386 . S
C400 C402 1.391 . S
C401 C400 1.386 . S
C401 C405 1.393 . S
C402 H394 0.950 . S
C402 C400 1.391 . S
C402 C403 1.400 . S
C403 C402 1.400 . S
C403 C404 1.398 . S
C403 C409 1.491 . S
C404 H395 0.950 . S
C404 C403 1.398 . S
C404 C405 1.391 . S
C405 H393 0.950 . S
C405 C401 1.393 . S
C405 C404 1.391 . S
C406 H396 0.950 . S
C406 C407 1.386 . S
C406 C408 1.391 . S
C407 C406 1.386 . S
C407 C411 1.393 . S
C408 H397 0.950 . S
C408 C406 1.391 . S
C408 C409 1.400 . S
C409 C403 1.491 . S
C409 C408 1.400 . S
C409 C410 1.398 . S
C410 H398 0.950 . S
C410 C409 1.398 . S
C410 C411 1.391 . S
C411 H399 0.950 . S
C411 C407 1.393 . S
C411 C410 1.391 . S
H412 C420 0.950 . S
H413 C425 0.950 . S
H414 C422 0.950 . S
H415 C424 0.950 . S
H416 C426 0.950 . S
H417 C428 0.950 . S
H418 C430 0.950 . S
H419 C431 0.950 . S
C420 H412 0.950 . S
C420 C421 1.386 . S
C420 C422 1.391 . S
C421 C420 1.386 . S
C421 C425 1.393 . S
C422 H414 0.950 . S
C422 C420 1.391 . S
C422 C423 1.400 . S
C423 C422 1.400 . S
C423 C424 1.398 . S
C423 C429 1.491 . S
C424 H415 0.950 . S
C424 C423 1.398 . S
C424 C425 1.391 . S
C425 H413 0.950 . S
C425 C421 1.393 . S
C425 C424 1.391 . S
C426 H416 0.950 . S
C426 C427 1.386 . S
C426 C428 1.391 . S
C427 C426 1.386 . S
C427 C431 1.393 . S
C428 H417 0.950 . S
C428 C426 1.391 . S
C428 C429 1.400 . S
C429 C423 1.491 . S
C429 C428 1.400 . S
C429 C430 1.398 . S
C430 H418 0.950 . S
C430 C429 1.398 . S
C430 C431 1.391 . S
C431 H419 0.950 . S
C431 C427 1.393 . S
C431 C430 1.391 . S
H432 C440 0.950 . S
H433 C445 0.950 . S
H434 C442 0.950 . S
H435 C444 0.900 1_556 S
H436 C446 0.950 . S
H437 C448 0.950 . S
H438 C450 0.899 1_554 S
H439 C451 0.950 . S
C440 H432 0.950 . S
C440 C441 1.386 . S
C440 C442 1.391 . S
C441 C440 1.386 . S
C441 C445 1.393 . S
C442 H434 0.950 . S
C442 C440 1.391 . S
C442 C443 1.400 . S
C443 C442 1.400 . S
C443 C444 1.414 . S
C443 C449 1.491 1_554 S
C444 H435 0.900 1_554 S
C444 C443 1.414 . S
C444 C445 1.426 . S
C445 H433 0.950 . S
C445 C441 1.393 . S
C445 C444 1.426 . S
C446 H436 0.950 . S
C446 C447 1.386 . S
C446 C448 1.391 . S
C447 C446 1.386 . S
C447 C451 1.393 . S
C448 H437 0.950 . S
C448 C446 1.391 . S
C448 C449 1.400 . S
C449 C443 1.491 1_556 S
C449 C448 1.400 . S
C449 C450 1.414 . S
C450 H438 0.899 1_556 S
C450 C449 1.414 . S
C450 C451 1.426 . S
C451 H439 0.950 . S
C451 C447 1.393 . S
C451 C450 1.426 . S
H452 C460 0.950 . S
H453 C465 0.950 . S
H454 C462 0.950 . S
H455 C464 0.950 . S
H456 C466 0.950 . S
H457 C468 0.950 . S
H458 C470 0.950 . S
H459 C471 0.950 . S
C460 H452 0.950 . S
C460 C461 1.386 . S
C460 C462 1.391 . S
C461 C460 1.386 . S
C461 C465 1.393 . S
C462 H454 0.950 . S
C462 C460 1.391 . S
C462 C463 1.400 . S
C463 C462 1.400 . S
C463 C464 1.398 . S
C463 C469 1.491 . S
C464 H455 0.950 . S
C464 C463 1.398 . S
C464 C465 1.391 . S
C465 H453 0.950 . S
C465 C461 1.393 . S
C465 C464 1.391 . S
C466 H456 0.950 . S
C466 C467 1.386 . S
C466 C468 1.391 . S
C467 C466 1.386 . S
C467 C471 1.393 . S
C468 H457 0.950 . S
C468 C466 1.391 . S
C468 C469 1.400 . S
C469 C463 1.491 . S
C469 C468 1.400 . S
C469 C470 1.398 . S
C470 H458 0.950 . S
C470 C469 1.398 . S
C470 C471 1.391 . S
C471 H459 0.950 . S
C471 C467 1.393 . S
C471 C470 1.391 . S
H472 C480 0.950 . S
H473 C485 0.950 . S
H474 C482 0.950 . S
H475 C484 0.950 . S
H476 C486 0.950 . S
H477 C488 0.950 . S
H478 C490 0.950 . S
H479 C491 0.950 . S
C480 H472 0.950 . S
C480 C481 1.386 . S
C480 C482 1.391 . S
C481 C480 1.386 . S
C481 C485 1.393 . S
C482 H474 0.950 . S
C482 C480 1.391 . S
C482 C483 1.400 . S
C483 C482 1.400 . S
C483 C484 1.398 . S
C483 C489 1.491 . S
C484 H475 0.950 . S
C484 C483 1.398 . S
C484 C485 1.391 . S
C485 H473 0.950 . S
C485 C481 1.393 . S
C485 C484 1.391 . S
C486 H476 0.950 . S
C486 C487 1.386 . S
C486 C488 1.391 . S
C487 C486 1.386 . S
C487 C491 1.393 . S
C488 H477 0.950 . S
C488 C486 1.391 . S
C488 C489 1.400 . S
C489 C483 1.491 . S
C489 C488 1.400 . S
C489 C490 1.398 . S
C490 H478 0.950 . S
C490 C489 1.398 . S
C490 C491 1.391 . S
C491 H479 0.950 . S
C491 C487 1.393 . S
C491 C490 1.391 . S
C141 C40 1.556 . S
C147 C7 1.558 . S
C161 C18 1.543 . S
C167 C51 1.547 . S
C181 C62 1.546 . S
C187 C29 1.549 . S
C201 C73 1.560 . S
C207 C106 1.561 . S
C221 C117 1.547 . S
C227 C84 1.543 . S
C241 C95 1.532 . S
C247 C128 1.530 . S
C261 C126 1.305 1_455 S
C267 C5 1.276 1_655 S
C281 C16 1.274 . S
C287 C71 1.299 . S
C301 C27 1.287 . S
C307 C82 1.272 . S
C321 C93 1.326 1_655 S
C327 C38 1.299 1_455 S
C341 C49 1.304 . S
C347 C104 1.275 . S
C361 C115 1.273 . S
C367 C60 1.308 . S
C381 C118 1.634 . S
C387 C8 1.623 . S
C401 C129 1.619 . S
C407 C19 1.634 . S
C421 C30 1.614 . S
C427 C74 1.623 . S
C441 C41 1.634 . S
C447 C85 1.623 . S
C461 C52 1.614 . S
C467 C96 1.623 . S
C481 C63 1.631 . S
C487 C107 1.629 . S
