# Generated by pormake.
# Topology crb, (4)-cn, num edge types: 1
# Building blocks:
#     Node 0, Type 0, BuildingBlock: ICAMEG_clean_sbu_1, # of connection points: 4
#     Node 1, Type 0, BuildingBlock: ICAMEG_clean_sbu_1, # of connection points: 4
#     Node 2, Type 0, BuildingBlock: ICAMEG_clean_sbu_1, # of connection points: 4
#     Node 3, Type 0, BuildingBlock: ICAMEG_clean_sbu_1, # of connection points: 4
#     Node 4, Type 0, BuildingBlock: ICAMEG_clean_sbu_1, # of connection points: 4
#     Node 5, Type 0, BuildingBlock: ICAMEG_clean_sbu_1, # of connection points: 4
#     Node 6, Type 0, BuildingBlock: ICAMEG_clean_sbu_1, # of connection points: 4
#     Node 7, Type 0, BuildingBlock: ICAMEG_clean_sbu_1, # of connection points: 4
#     Edge 8, Type (0, 0), BuildingBlock: CIFDUS_clean_linker_0, # of connection points: 2
#     Edge 9, Type (0, 0), BuildingBlock: CIFDUS_clean_linker_0, # of connection points: 2
#     Edge 10, Type (0, 0), BuildingBlock: CIFDUS_clean_linker_0, # of connection points: 2
#     Edge 11, Type (0, 0), BuildingBlock: CIFDUS_clean_linker_0, # of connection points: 2
#     Edge 12, Type (0, 0), BuildingBlock: CIFDUS_clean_linker_0, # of connection points: 2
#     Edge 13, Type (0, 0), BuildingBlock: CIFDUS_clean_linker_0, # of connection points: 2
#     Edge 14, Type (0, 0), BuildingBlock: CIFDUS_clean_linker_0, # of connection points: 2
#     Edge 15, Type (0, 0), BuildingBlock: CIFDUS_clean_linker_0, # of connection points: 2
#     Edge 16, Type (0, 0), BuildingBlock: CIFDUS_clean_linker_0, # of connection points: 2
#     Edge 17, Type (0, 0), BuildingBlock: CIFDUS_clean_linker_0, # of connection points: 2
#     Edge 18, Type (0, 0), BuildingBlock: CIFDUS_clean_linker_0, # of connection points: 2
#     Edge 19, Type (0, 0), BuildingBlock: CIFDUS_clean_linker_0, # of connection points: 2
#     Edge 20, Type (0, 0), BuildingBlock: CIFDUS_clean_linker_0, # of connection points: 2
#     Edge 21, Type (0, 0), BuildingBlock: CIFDUS_clean_linker_0, # of connection points: 2
#     Edge 22, Type (0, 0), BuildingBlock: CIFDUS_clean_linker_0, # of connection points: 2
#     Edge 23, Type (0, 0), BuildingBlock: CIFDUS_clean_linker_0, # of connection points: 2
# Relax obj value: 0.183
# Max RMSD: 0.234
# Mean RMSD: 0.233
data_MOF--net-crb--node1-ICAMEG_clean_sbu_1--edge1-CIFDUS_clean_linker_0
_symmetry_space_group_name_H-M    P1
_symmetry_Int_Tables_number       1
_symmetry_cell_setting            triclinic
loop_
_symmetry_equiv_pos_as_xyz
'x, y, z'
_cell_length_a     39.073478
_cell_length_b     39.117118
_cell_length_c     22.314291
_cell_angle_alpha  90.466211
_cell_angle_beta   89.302461
_cell_angle_gamma 89.835561
loop_
_atom_site_label
_atom_site_type_symbol
_atom_site_fract_x
_atom_site_fract_y
_atom_site_fract_z
_atom_type_partial_charge
Co0 Co 0.35098 0.35084 0.97421 0.0
Co1 Co 0.34527 0.34909 0.12864 0.0
O2 O 0.33154 0.33174 0.04904 0.0
C3 C 0.2767 0.33509 0.94516 0.0
O4 O 0.26887 0.3312 1.00199 0.0
C5 C 0.33443 0.27276 0.14692 0.0
O6 O 0.33081 0.26701 0.08937 0.0
O7 O 0.3942 0.33977 0.10822 0.0
O8 O 0.39661 0.35752 1.013 0.0
H9 H 0.41803 0.41885 0.26756 0.0
H10 H 0.31785 0.28231 0.97314 0.0
O11 O 0.30676 0.34428 0.92957 0.0
H12 H 0.43422 0.26302 0.89213 0.0
H13 H 0.37072 0.35825 0.75093 0.0
H14 H 0.39535 0.41027 0.94771 0.0
H15 H 0.41521 0.32081 0.922 0.0
H16 H 0.3472 0.33318 0.84359 0.0
O17 O 0.34131 0.30264 0.16622 0.0
H18 H 0.39899 0.39699 0.16958 0.0
H19 H 0.32212 0.33753 0.25523 0.0
H20 H 0.41966 0.43594 0.85613 0.0
H21 H 0.33546 0.22424 0.9427 0.0
H22 H 0.40738 0.40991 0.75683 0.0
H23 H 0.39412 0.21418 0.90207 0.0
O24 O 0.33629 0.39783 0.99981 0.0
H25 H 0.21953 0.32141 0.14162 0.0
H26 H 0.30735 0.4083 0.18281 0.0
H27 H 0.24701 0.42091 0.20727 0.0
H28 H 0.20256 0.37719 0.18703 0.0
H29 H 0.28 0.31021 0.11672 0.0
H30 H 0.34057 0.35851 0.35408 0.0
H31 H 0.38875 0.3996 0.36072 0.0
O32 O 0.34956 0.39656 0.09713 0.0
C33 C 0.41102 0.34871 0.06155 0.0
C34 C 0.39694 0.40103 0.26525 0.0
C35 C 0.3535 0.36713 0.31381 0.0
N36 N 0.35935 0.36614 0.20653 0.0
C37 C 0.38599 0.38861 0.20987 0.0
C38 C 0.34324 0.35526 0.25766 0.0
C39 C 0.38053 0.39019 0.3175 0.0
C40 C 0.34327 0.27836 0.95505 0.0
N41 N 0.36545 0.30513 0.9496 0.0
C42 C 0.35317 0.2453 0.93808 0.0
C43 C 0.38609 0.23966 0.91539 0.0
C44 C 0.40861 0.26703 0.90991 0.0
C45 C 0.39779 0.29972 0.92734 0.0
C46 C 0.37629 0.36981 0.79394 0.0
C47 C 0.39002 0.39867 0.90471 0.0
C48 C 0.36294 0.3558 0.8466 0.0
N49 N 0.37001 0.37015 0.90115 0.0
C50 C 0.4038 0.41338 0.85299 0.0
C51 C 0.39687 0.39878 0.79728 0.0
C52 C 0.34165 0.41276 0.04996 0.0
C53 C 0.23866 0.34063 0.15086 0.0
C54 C 0.28823 0.38927 0.17319 0.0
C55 C 0.25406 0.39649 0.18749 0.0
C56 C 0.22915 0.37195 0.17621 0.0
N57 N 0.29746 0.35845 0.14843 0.0
C58 C 0.2731 0.33433 0.13717 0.0
Co59 Co 0.6759 0.34739 0.09645 0.0
Co60 Co 0.67983 0.35275 0.94291 0.0
O61 O 0.6941 0.33186 1.01851 0.0
C62 C 0.74292 0.35539 0.16091 0.0
O63 O 0.7394 0.38877 0.16195 0.0
C64 C 0.68209 0.27702 0.91807 0.0
O65 O 0.67463 0.27061 0.97428 0.0
O66 O 0.63105 0.34339 0.9636 0.0
O67 O 0.62955 0.3568 0.06171 0.0
H68 H 0.60688 0.4289 0.81644 0.0
H69 H 0.70973 0.27946 0.08805 0.0
O70 O 0.72137 0.33662 0.1336 0.0
H71 H 0.59333 0.25646 0.16505 0.0
H72 H 0.65879 0.34318 0.32077 0.0
H73 H 0.63411 0.40675 0.1363 0.0
H74 H 0.61167 0.31533 0.14354 0.0
H75 H 0.67994 0.32223 0.22267 0.0
O76 O 0.68379 0.30765 0.89963 0.0
H77 H 0.62631 0.40292 0.91045 0.0
H78 H 0.70181 0.34553 0.81458 0.0
H79 H 0.61207 0.4285 0.23337 0.0
H80 H 0.69283 0.22024 0.11052 0.0
H81 H 0.62445 0.39668 0.32656 0.0
H82 H 0.63416 0.20837 0.14892 0.0
O83 O 0.69051 0.39499 0.07798 0.0
H84 H 0.80481 0.32302 0.92591 0.0
H85 H 0.71836 0.41319 0.89669 0.0
H86 H 0.77901 0.42529 0.8742 0.0
H87 H 0.82273 0.37996 0.88854 0.0
H88 H 0.74391 0.31219 0.94858 0.0
H89 H 0.68298 0.37067 0.7195 0.0
H90 H 0.63529 0.4128 0.72005 0.0
O91 O 0.67618 0.39903 0.98142 0.0
C92 C 0.61469 0.35033 1.01217 0.0
C93 C 0.62776 0.41065 0.81563 0.0
C94 C 0.67043 0.37793 0.76122 0.0
N95 N 0.66531 0.37291 0.86814 0.0
C96 C 0.63893 0.39591 0.86875 0.0
C97 C 0.68092 0.36371 0.81521 0.0
C98 C 0.64368 0.40158 0.76156 0.0
C99 C 0.68424 0.2746 0.10523 0.0
N100 N 0.66156 0.30091 0.11377 0.0
C101 C 0.67477 0.24096 0.11764 0.0
C102 C 0.64184 0.23431 0.13908 0.0
C103 C 0.6189 0.26126 0.14798 0.0
C104 C 0.62929 0.29456 0.1351 0.0
C105 C 0.65331 0.35735 0.28053 0.0
C106 C 0.63961 0.39274 0.17661 0.0
C107 C 0.66543 0.34569 0.22487 0.0
N108 N 0.65856 0.36334 0.17379 0.0
C109 C 0.62706 0.40519 0.23147 0.0
C110 C 0.63402 0.38734 0.28373 0.0
C111 C 0.68487 0.41253 0.03111 0.0
C112 C 0.78599 0.34297 0.91935 0.0
C113 C 0.73721 0.39341 0.90346 0.0
C114 C 0.77153 0.40037 0.89043 0.0
C115 C 0.79604 0.37492 0.89845 0.0
N116 N 0.72752 0.36197 0.92374 0.0
C117 C 0.75144 0.33694 0.93194 0.0
Co118 Co 0.68224 0.67233 0.09481 0.0
Co119 Co 0.67296 0.68413 0.94181 0.0
O120 O 0.69348 0.69689 1.01986 0.0
C121 C 0.68684 0.74693 0.13787 0.0
O122 O 0.69134 0.7595 0.084 0.0
C123 C 0.74716 0.70143 0.90945 0.0
O124 O 0.75599 0.7034 0.96589 0.0
O125 O 0.68708 0.6352 0.95155 0.0
O126 O 0.68069 0.62818 0.05048 0.0
H127 H 0.60109 0.61109 0.80668 0.0
H128 H 0.74384 0.71691 0.08922 0.0
O129 O 0.68303 0.71496 0.14537 0.0
H130 H 0.78712 0.603 0.14329 0.0
H131 H 0.69218 0.6438 0.31393 0.0
H132 H 0.6327 0.61773 0.12542 0.0
H133 H 0.72556 0.61246 0.1278 0.0
H134 H 0.70706 0.6745 0.22124 0.0
O135 O 0.71667 0.69342 0.8955 0.0
H136 H 0.62715 0.62825 0.90235 0.0
H137 H 0.67526 0.71267 0.81773 0.0
H138 H 0.6173 0.58617 0.217 0.0
H139 H 0.80548 0.70882 0.10548 0.0
H140 H 0.64712 0.59914 0.31215 0.0
H141 H 0.8276 0.65146 0.13252 0.0
O142 O 0.63239 0.67951 0.08182 0.0
H143 H 0.68979 0.81169 0.94703 0.0
H144 H 0.60835 0.71878 0.90553 0.0
H145 H 0.58977 0.77859 0.89479 0.0
H146 H 0.6307 0.82561 0.91528 0.0
H147 H 0.70705 0.75157 0.9582 0.0
H148 H 0.65002 0.69617 0.72108 0.0
H149 H 0.61249 0.64514 0.71515 0.0
O150 O 0.62798 0.67474 0.98205 0.0
C151 C 0.68525 0.61626 0.99783 0.0
C152 C 0.61733 0.63343 0.80872 0.0
C153 C 0.64483 0.68115 0.76066 0.0
N154 N 0.65259 0.67152 0.8658 0.0
C155 C 0.6321 0.64332 0.86281 0.0
C156 C 0.65915 0.69029 0.81553 0.0
C157 C 0.62376 0.65252 0.75737 0.0
C158 C 0.75305 0.69201 0.10172 0.0
N159 N 0.73089 0.66528 0.10779 0.0
C160 C 0.7881 0.68751 0.11053 0.0
C161 C 0.80051 0.65532 0.12557 0.0
C162 C 0.77782 0.62812 0.13153 0.0
C163 C 0.74295 0.6336 0.12235 0.0
C164 C 0.67903 0.63787 0.27273 0.0
C165 C 0.64594 0.62342 0.16655 0.0
C166 C 0.68728 0.65525 0.22009 0.0
N167 N 0.6709 0.6478 0.16777 0.0
C168 C 0.63704 0.60551 0.21831 0.0
C169 C 0.65376 0.61282 0.27169 0.0
C170 C 0.61469 0.6765 0.03442 0.0
C171 C 0.67175 0.79144 0.9377 0.0
C172 C 0.62625 0.73901 0.91499 0.0
C173 C 0.61561 0.77288 0.90857 0.0
C174 C 0.63859 0.79923 0.92001 0.0
N175 N 0.65889 0.73149 0.93209 0.0
C176 C 0.68147 0.75725 0.94361 0.0
Co177 Co 0.34337 0.68052 0.94531 0.0
Co178 Co 0.35198 0.67941 0.0994 0.0
O179 O 0.33195 0.69889 0.02593 0.0
C180 C 0.33812 0.75746 0.92599 0.0
O181 O 0.33561 0.76426 0.98354 0.0
C182 C 0.27844 0.69726 0.13456 0.0
O183 O 0.26984 0.70064 0.0783 0.0
O184 O 0.33586 0.63262 0.07629 0.0
O185 O 0.34546 0.63309 0.97712 0.0
H186 H 0.42027 0.59296 0.21314 0.0
H187 H 0.28116 0.72392 0.96219 0.0
O188 O 0.34175 0.72683 0.90738 0.0
H189 H 0.23958 0.61539 0.8769 0.0
H190 H 0.33452 0.67055 0.72058 0.0
H191 H 0.39365 0.62927 0.9002 0.0
H192 H 0.30094 0.62378 0.89573 0.0
H193 H 0.31883 0.69298 0.82075 0.0
O194 O 0.3086 0.68769 0.14785 0.0
H195 H 0.39525 0.61878 0.12322 0.0
H196 H 0.35071 0.69808 0.22981 0.0
H197 H 0.40987 0.60591 0.80088 0.0
H198 H 0.21971 0.71698 0.94288 0.0
H199 H 0.38024 0.62658 0.71017 0.0
H200 H 0.19844 0.66231 0.90016 0.0
O201 O 0.39296 0.68695 0.96079 0.0
H202 H 0.34024 0.80658 0.13016 0.0
H203 H 0.41801 0.70767 0.14379 0.0
H204 H 0.43899 0.765 0.17067 0.0
H205 H 0.39991 0.815 0.16428 0.0
H206 H 0.32059 0.74892 0.10262 0.0
H207 H 0.37501 0.67291 0.32088 0.0
H208 H 0.4102 0.62005 0.31289 0.0
O209 O 0.39676 0.67101 0.05673 0.0
C210 C 0.33907 0.61734 0.02566 0.0
C211 C 0.40505 0.61604 0.2172 0.0
C212 C 0.3796 0.66088 0.27767 0.0
N213 N 0.37164 0.65999 0.17111 0.0
C214 C 0.39086 0.63083 0.16641 0.0
C215 C 0.36581 0.67495 0.22591 0.0
C216 C 0.39936 0.63124 0.27315 0.0
C217 C 0.27232 0.70022 0.94295 0.0
N218 N 0.29483 0.67432 0.93012 0.0
C219 C 0.23738 0.69636 0.93242 0.0
C220 C 0.22545 0.66567 0.90857 0.0
C221 C 0.2485 0.63933 0.89562 0.0
C222 C 0.28325 0.64413 0.90678 0.0
C223 C 0.34758 0.66129 0.75978 0.0
C224 C 0.38047 0.63825 0.86101 0.0
C225 C 0.33887 0.67396 0.81666 0.0
N226 N 0.35516 0.66229 0.86644 0.0
C227 C 0.38984 0.62498 0.80485 0.0
C228 C 0.37322 0.63661 0.75397 0.0
C229 C 0.4104 0.6784 1.00626 0.0
C230 C 0.35749 0.78499 0.13331 0.0
C231 C 0.40095 0.72926 0.14021 0.0
C232 C 0.41292 0.76169 0.15585 0.0
C233 C 0.39099 0.78971 0.15234 0.0
N234 N 0.36803 0.72475 0.12167 0.0
C235 C 0.34643 0.75217 0.11805 0.0
Co236 Co 0.85373 0.84969 0.4312 0.0
Co237 Co 0.85199 0.85395 0.58618 0.0
O238 O 0.83375 0.83614 0.50936 0.0
C239 C 0.77729 0.84281 0.40292 0.0
O240 O 0.76811 0.83451 0.45767 0.0
C241 C 0.83135 0.78045 0.61388 0.0
O242 O 0.82586 0.77349 0.55722 0.0
O243 O 0.89934 0.83813 0.56341 0.0
O244 O 0.90039 0.85052 0.46566 0.0
H245 H 0.93661 0.91826 0.71165 0.0
H246 H 0.811 0.78666 0.44068 0.0
O247 O 0.80832 0.84972 0.39021 0.0
H248 H 0.92072 0.74821 0.35235 0.0
H249 H 0.86849 0.84734 0.20634 0.0
H250 H 0.90584 0.90079 0.39537 0.0
H251 H 0.91127 0.80886 0.37763 0.0
H252 H 0.84397 0.82892 0.30305 0.0
O253 O 0.84305 0.80954 0.62935 0.0
H254 H 0.91222 0.89601 0.61779 0.0
H255 H 0.83119 0.84926 0.71556 0.0
H256 H 0.93126 0.91971 0.29963 0.0
H257 H 0.81899 0.72596 0.41498 0.0
H258 H 0.91259 0.89293 0.2042 0.0
H259 H 0.87427 0.70621 0.37063 0.0
O260 O 0.84695 0.89879 0.45238 0.0
H261 H 0.72382 0.84357 0.60518 0.0
H262 H 0.82311 0.91809 0.64017 0.0
H263 H 0.76532 0.93895 0.66637 0.0
H264 H 0.7151 0.90149 0.64926 0.0
H265 H 0.78195 0.82406 0.57868 0.0
H266 H 0.85496 0.8707 0.81045 0.0
H267 H 0.90795 0.90562 0.8089 0.0
O268 O 0.86105 0.89967 0.54942 0.0
C269 C 0.91541 0.84263 0.51387 0.0
C270 C 0.91346 0.90314 0.7129 0.0
C271 C 0.86767 0.8764 0.76835 0.0
N272 N 0.87023 0.87145 0.66102 0.0
C273 C 0.89947 0.89053 0.65987 0.0
C274 C 0.85441 0.86421 0.71443 0.0
C275 C 0.89739 0.89601 0.76745 0.0
C276 C 0.83491 0.7786 0.42071 0.0
N277 N 0.86049 0.80163 0.41045 0.0
C278 C 0.8394 0.74402 0.40655 0.0
C279 C 0.87042 0.73294 0.3818 0.0
C280 C 0.89649 0.75647 0.37163 0.0
C281 C 0.89105 0.79083 0.38639 0.0
C282 C 0.87688 0.85916 0.24763 0.0
C283 C 0.89771 0.88886 0.35409 0.0
C284 C 0.86301 0.84892 0.30257 0.0
N285 N 0.87359 0.86362 0.35498 0.0
C286 C 0.91214 0.89974 0.29999 0.0
C287 C 0.90163 0.88474 0.24646 0.0
C288 C 0.85468 0.91478 0.50037 0.0
C289 C 0.7455 0.8601 0.61308 0.0
C290 C 0.80148 0.90174 0.632 0.0
C291 C 0.76876 0.91364 0.64724 0.0
C292 C 0.74061 0.89261 0.6377 0.0
N293 N 0.80618 0.86974 0.60813 0.0
C294 C 0.77862 0.84908 0.59841 0.0
Co295 Co 0.18209 0.85505 0.46602 0.0
Co296 Co 0.18325 0.84761 0.62027 0.0
O297 O 0.20144 0.83535 0.53981 0.0
C298 C 0.19894 0.78112 0.43268 0.0
O299 O 0.20252 0.77289 0.48911 0.0
C300 C 0.26012 0.84033 0.63904 0.0
O301 O 0.26676 0.83711 0.5815 0.0
O302 O 0.19056 0.89691 0.60327 0.0
O303 O 0.17428 0.90024 0.5075 0.0
H304 H 0.10999 0.91634 0.7637 0.0
H305 H 0.25128 0.82292 0.46298 0.0
O306 O 0.18975 0.81128 0.41872 0.0
H307 H 0.26857 0.94029 0.39027 0.0
H308 H 0.17514 0.87638 0.24392 0.0
H309 H 0.12174 0.89862 0.44183 0.0
H310 H 0.211 0.92024 0.41874 0.0
H311 H 0.20041 0.85262 0.33533 0.0
O312 O 0.22962 0.84529 0.6578 0.0
H313 H 0.13295 0.89908 0.66456 0.0
H314 H 0.19534 0.82362 0.74533 0.0
H315 H 0.09582 0.92312 0.35155 0.0
H316 H 0.30918 0.84163 0.43392 0.0
H317 H 0.12254 0.91204 0.25168 0.0
H318 H 0.31821 0.90078 0.39744 0.0
O319 O 0.13521 0.83948 0.49031 0.0
H320 H 0.21706 0.72332 0.62566 0.0
H321 H 0.12557 0.80678 0.67137 0.0
H322 H 0.11585 0.74583 0.69197 0.0
H323 H 0.16189 0.70357 0.66945 0.0
H324 H 0.22535 0.78436 0.60459 0.0
H325 H 0.1733 0.84032 0.8453 0.0
H326 H 0.13018 0.88689 0.85497 0.0
O327 O 0.13575 0.85038 0.58898 0.0
C328 C 0.18201 0.91413 0.55747 0.0
C329 C 0.12869 0.89594 0.76005 0.0
C330 C 0.16425 0.85331 0.80586 0.0
N331 N 0.16531 0.86023 0.69899 0.0
C332 C 0.14173 0.88599 0.70401 0.0
C333 C 0.17671 0.84403 0.74908 0.0
C334 C 0.14006 0.87943 0.81125 0.0
C335 C 0.25481 0.84855 0.44662 0.0
N336 N 0.2276 0.87039 0.44259 0.0
C337 C 0.28776 0.85908 0.43047 0.0
C338 C 0.29282 0.89227 0.41011 0.0
C339 C 0.265 0.91446 0.40616 0.0
C340 C 0.23243 0.90302 0.42273 0.0
C341 C 0.16327 0.88142 0.28719 0.0
C342 C 0.13364 0.89381 0.39859 0.0
C343 C 0.1774 0.86794 0.33914 0.0
N344 N 0.16266 0.87434 0.39401 0.0
C345 C 0.11879 0.9077 0.3476 0.0
C346 C 0.13378 0.90144 0.29158 0.0
C347 C 0.11996 0.84333 0.54092 0.0
C348 C 0.19682 0.74149 0.63586 0.0
C349 C 0.14558 0.78861 0.66072 0.0
C350 C 0.14 0.75409 0.67285 0.0
C351 C 0.16585 0.73041 0.6603 0.0
N352 N 0.17606 0.79936 0.63685 0.0
C353 C 0.20146 0.77622 0.62435 0.0
Co354 Co 0.18254 0.17662 0.6201 0.0
Co355 Co 0.17431 0.1857 0.46652 0.0
O356 O 0.19655 0.19756 0.54319 0.0
C357 C 0.19695 0.25107 0.65222 0.0
O358 O 0.19854 0.25982 0.59564 0.0
C359 C 0.24993 0.19041 0.43435 0.0
O360 O 0.25887 0.18842 0.49066 0.0
O361 O 0.18306 0.13613 0.48 0.0
O362 O 0.17489 0.13156 0.57922 0.0
H363 H 0.09427 0.11822 0.33694 0.0
H364 H 0.24966 0.21229 0.61065 0.0
O365 O 0.19005 0.22039 0.66668 0.0
H366 H 0.27727 0.09511 0.6738 0.0
H367 H 0.18946 0.15344 0.84158 0.0
H368 H 0.12646 0.12988 0.65567 0.0
H369 H 0.21747 0.11245 0.65791 0.0
H370 H 0.20791 0.17921 0.74613 0.0
O371 O 0.21855 0.18904 0.41996 0.0
H372 H 0.12246 0.13442 0.43122 0.0
H373 H 0.17939 0.21104 0.34051 0.0
H374 H 0.10737 0.1033 0.75011 0.0
H375 H 0.30972 0.19633 0.62738 0.0
H376 H 0.13895 0.11504 0.84396 0.0
H377 H 0.32395 0.13728 0.65889 0.0
O378 O 0.13393 0.19005 0.60662 0.0
H379 H 0.2069 0.30988 0.45718 0.0
H380 H 0.11359 0.22692 0.4302 0.0
H381 H 0.10239 0.28813 0.41411 0.0
H382 H 0.14932 0.33012 0.42728 0.0
H383 H 0.21673 0.24851 0.47397 0.0
H384 H 0.15206 0.19541 0.24521 0.0
H385 H 0.10904 0.1488 0.24304 0.0
O386 O 0.12872 0.18225 0.50753 0.0
C387 C 0.17879 0.11833 0.52716 0.0
C388 C 0.1129 0.13864 0.33734 0.0
C389 C 0.14536 0.18193 0.28585 0.0
N390 N 0.15239 0.17379 0.39156 0.0
C391 C 0.12889 0.14799 0.39063 0.0
C392 C 0.16083 0.1906 0.33997 0.0
C393 C 0.12122 0.15579 0.28466 0.0
C394 C 0.25544 0.18672 0.62518 0.0
N395 N 0.22988 0.16341 0.63338 0.0
C396 C 0.28961 0.17774 0.63421 0.0
C397 C 0.29759 0.1446 0.65175 0.0
C398 C 0.27142 0.12092 0.66002 0.0
C399 C 0.23756 0.13083 0.65055 0.0
C400 C 0.17551 0.14809 0.80097 0.0
C401 C 0.14046 0.13497 0.69625 0.0
C402 C 0.18577 0.1627 0.74677 0.0
N403 N 0.16838 0.15592 0.69521 0.0
C404 C 0.12947 0.11991 0.74962 0.0
C405 C 0.14718 0.12654 0.80227 0.0
C406 C 0.11584 0.18739 0.55954 0.0
C407 C 0.18625 0.29184 0.45121 0.0
C408 C 0.13401 0.245 0.43683 0.0
C409 C 0.12758 0.27965 0.42725 0.0
C410 C 0.15393 0.30319 0.43454 0.0
N411 N 0.16578 0.23402 0.45319 0.0
C412 C 0.19171 0.25698 0.46038 0.0
Co413 Co 0.85429 0.18227 0.62402 0.0
Co414 Co 0.84544 0.178 0.47164 0.0
O415 O 0.831 0.19575 0.5505 0.0
C416 C 0.7794 0.1805 0.65574 0.0
O417 O 0.77219 0.17072 0.60103 0.0
C418 C 0.84501 0.24142 0.39619 0.0
O419 O 0.87738 0.23677 0.38178 0.0
O420 O 0.89282 0.19549 0.48528 0.0
O421 O 0.89943 0.18005 0.581 0.0
H422 H 0.92608 0.1183 0.32804 0.0
H423 H 0.81145 0.24485 0.62181 0.0
O424 O 0.81029 0.18493 0.67123 0.0
H425 H 0.92535 0.28372 0.68571 0.0
H426 H 0.87846 0.18611 0.84532 0.0
H427 H 0.90715 0.13051 0.65197 0.0
H428 H 0.91469 0.22277 0.66462 0.0
H429 H 0.84993 0.20399 0.75271 0.0
O430 O 0.83065 0.22251 0.43541 0.0
H431 H 0.90626 0.14014 0.42642 0.0
H432 H 0.81561 0.17866 0.3482 0.0
H433 H 0.93653 0.11208 0.74344 0.0
H434 H 0.82082 0.30603 0.64322 0.0
H435 H 0.92223 0.13995 0.84102 0.0
H436 H 0.87815 0.32584 0.6753 0.0
O437 O 0.84589 0.13326 0.6044 0.0
H438 H 0.71698 0.18674 0.47197 0.0
H439 H 0.81586 0.11163 0.42936 0.0
H440 H 0.75757 0.08953 0.41507 0.0
H441 H 0.70755 0.12728 0.43603 0.0
H442 H 0.77574 0.20746 0.48718 0.0
H443 H 0.8345 0.15743 0.24895 0.0
H444 H 0.89012 0.12693 0.23836 0.0
O445 O 0.85878 0.13263 0.50607 0.0
C446 C 0.91162 0.18967 0.53063 0.0
C447 C 0.90184 0.13163 0.33203 0.0
C448 C 0.85046 0.15361 0.28764 0.0
N449 N 0.85994 0.16101 0.39312 0.0
C450 C 0.89049 0.14412 0.38764 0.0
C451 C 0.83994 0.16572 0.34397 0.0
C452 C 0.88165 0.13648 0.28174 0.0
C453 C 0.83641 0.25322 0.63608 0.0
N454 N 0.86248 0.23019 0.64205 0.0
C455 C 0.84159 0.28793 0.648 0.0
C456 C 0.87376 0.29903 0.66594 0.0
C457 C 0.90026 0.27542 0.67174 0.0
C458 C 0.89413 0.24092 0.65947 0.0
C459 C 0.88494 0.1738 0.80306 0.0
C460 C 0.9009 0.14289 0.6942 0.0
C461 C 0.8688 0.18374 0.75046 0.0
N462 N 0.87701 0.16845 0.69685 0.0
C463 C 0.91757 0.13228 0.74587 0.0
C464 C 0.90951 0.14791 0.80061 0.0
C465 C 0.8532 0.11735 0.55562 0.0
C466 C 0.73855 0.17002 0.46268 0.0
C467 C 0.79432 0.12799 0.43973 0.0
C468 C 0.76132 0.11544 0.431 0.0
C469 C 0.73327 0.13665 0.44262 0.0
N470 N 0.79935 0.16072 0.45956 0.0
C471 C 0.77193 0.18166 0.47094 0.0
H472 H 0.3351 0.45959 0.95999 0.0
H473 H 0.34488 0.45181 0.15199 0.0
H474 H 0.34247 0.51356 0.16212 0.0
H475 H 0.33951 0.57058 0.11676 0.0
H476 H 0.33473 0.57822 0.92407 0.0
H477 H 0.33308 0.51651 0.91458 0.0
C478 C 0.33645 0.47135 1.00409 0.0
C479 C 0.33962 0.45071 0.055 0.0
C480 C 0.33594 0.50725 1.0098 0.0
C481 C 0.34188 0.46669 0.11174 0.0
C482 C 0.34066 0.50223 0.11778 0.0
C483 C 0.33774 0.55878 0.07276 0.0
C484 C 0.33663 0.57941 1.0215 0.0
C485 C 0.33786 0.52285 0.06714 0.0
C486 C 0.33501 0.56338 0.96471 0.0
C487 C 0.33428 0.52784 0.95899 0.0
H488 H 0.45543 0.35424 0.96688 0.0
H489 H 0.45264 0.34577 0.1597 0.0
H490 H 0.51519 0.34742 0.16142 0.0
H491 H 0.5704 0.35087 0.10809 0.0
H492 H 0.57291 0.35277 0.91459 0.0
H493 H 0.51044 0.35411 0.91336 0.0
C494 C 0.4683 0.35223 1.00937 0.0
C495 C 0.44909 0.34946 0.06305 0.0
C496 C 0.50424 0.35209 1.00989 0.0
C497 C 0.4666 0.34762 0.11762 0.0
C498 C 0.50241 0.34862 0.11865 0.0
C499 C 0.55746 0.35107 0.0655 0.0
C500 C 0.57661 0.35128 1.01146 0.0
C501 C 0.52148 0.35067 0.06501 0.0
C502 C 0.55903 0.35229 0.95688 0.0
C503 C 0.52325 0.3531 0.95613 0.0
H504 H 0.68287 0.45778 0.93834 0.0
H505 H 0.69173 0.45287 0.13099 0.0
H506 H 0.69328 0.51514 0.1366 0.0
H507 H 0.69033 0.57036 0.0879 0.0
H508 H 0.68387 0.57644 0.89518 0.0
H509 H 0.68339 0.51383 0.88865 0.0
C510 C 0.6855 0.4702 0.98161 0.0
C511 C 0.68724 0.45042 0.03424 0.0
C512 C 0.68679 0.5061 0.98451 0.0
C513 C 0.69044 0.46723 0.08977 0.0
C514 C 0.69128 0.50289 0.09303 0.0
C515 C 0.68931 0.55828 0.04413 0.0
C516 C 0.68731 0.57837 0.992 0.0
C517 C 0.6893 0.5225 0.04077 0.0
C518 C 0.68562 0.56179 0.93601 0.0
C519 C 0.68523 0.52597 0.93232 0.0
H520 H 0.45648 0.66995 0.09608 0.0
H521 H 0.4501 0.68342 0.90456 0.0
H522 H 0.51249 0.68264 0.89659 0.0
H523 H 0.56853 0.67921 0.94388 0.0
H524 H 0.57508 0.67001 0.13619 0.0
H525 H 0.51265 0.66818 0.14378 0.0
C526 C 0.46857 0.67303 0.05254 0.0
C527 C 0.44837 0.67714 1.00106 0.0
C528 C 0.50448 0.67338 0.04841 0.0
C529 C 0.46482 0.68049 0.94503 0.0
C530 C 0.50055 0.68003 0.94041 0.0
C531 C 0.55648 0.67708 0.98766 0.0
C532 C 0.57672 0.6751 0.03947 0.0
C533 C 0.5206 0.67675 0.99184 0.0
C534 C 0.56032 0.67186 0.09557 0.0
C535 C 0.52457 0.67075 0.09995 0.0
H536 H 0.85827 0.95787 0.5968 0.0
H537 H 0.8553 0.95747 0.40338 0.0
H538 H 0.85683 0.01995 0.40374 0.0
H539 H 0.85786 0.07434 0.45888 0.0
H540 H 0.85436 0.07463 0.65245 0.0
H541 H 0.85663 1.01219 0.65197 0.0
C542 C 0.85753 0.97126 0.55459 0.0
C543 C 0.8562 0.95276 0.50013 0.0
C544 C 0.85729 1.00715 0.55518 0.0
C545 C 0.856 0.9709 0.446 0.0
C546 C 0.85692 1.00666 0.44617 0.0
C547 C 0.85712 0.06092 0.50112 0.0
C548 C 0.8554 0.07939 0.55567 0.0
C549 C 0.85726 0.02502 0.50051 0.0
C550 C 0.85533 0.06123 0.60979 0.0
C551 C 0.85665 0.02549 0.60955 0.0
H552 H 0.07365 0.83957 0.45 0.0
H553 H 0.08039 0.84242 0.64298 0.0
H554 H 0.01851 0.83986 0.65222 0.0
H555 H 0.96156 0.83917 0.60586 0.0
H556 H 0.9554 0.84152 0.41278 0.0
H557 H 0.01709 0.83947 0.4039 0.0
C558 C 0.06164 0.83931 0.49408 0.0
C559 C 0.08201 0.84067 0.54547 0.0
C560 C 0.0257 0.83879 0.4994 0.0
C561 C 0.06571 0.84087 0.60228 0.0
C562 C 0.03009 0.83958 0.60783 0.0
C563 C 0.97369 0.83885 0.56188 0.0
C564 C 0.95342 0.83985 0.51029 0.0
C565 C 1.00971 0.83878 0.55671 0.0
C566 C 0.96989 0.84008 0.45362 0.0
C567 C 1.00545 0.83916 0.44824 0.0
H568 H 0.1801 0.0722 0.61814 0.0
H569 H 0.17557 0.07861 0.42526 0.0
H570 H 0.17466 0.0162 0.41807 0.0
H571 H 0.17561 0.96005 0.46648 0.0
H572 H 0.18499 0.95401 0.6588 0.0
H573 H 0.18347 0.01631 0.66608 0.0
C574 C 0.17929 0.06014 0.57433 0.0
C575 C 0.17826 0.08035 0.52226 0.0
C576 C 0.17959 0.02429 0.57042 0.0
C577 C 0.17665 0.06389 0.4661 0.0
C578 C 0.17608 0.02815 0.46195 0.0
C579 C 0.1777 0.9722 0.51004 0.0
C580 C 0.18079 0.9521 0.56197 0.0
C581 C 0.1777 1.00811 0.51382 0.0
C582 C 0.18286 0.96864 0.618 0.0
C583 C 0.18197 1.00433 0.62223 0.0
H584 H 0.95772 0.18795 0.62095 0.0
H585 H 0.95121 0.19628 0.4285 0.0
H586 H 1.01377 0.19636 0.42088 0.0
H587 H 0.06987 0.19205 0.46866 0.0
H588 H 0.07597 0.18671 0.66158 0.0
H589 H 1.01354 0.18753 0.66901 0.0
C590 C 0.96977 0.19026 0.5772 0.0
C591 C 0.94953 0.19219 0.52531 0.0
C592 C 1.00563 0.19067 0.57324 0.0
C593 C 0.96597 0.19489 0.46919 0.0
C594 C 1.00177 0.19483 0.46482 0.0
C595 C 0.05774 0.19151 0.51253 0.0
C596 C 0.07787 0.18946 0.56457 0.0
C597 C 0.02182 0.19248 0.51654 0.0
C598 C 0.06133 0.18844 0.6208 0.0
C599 C 0.02558 0.18884 0.62508 0.0
H600 H 0.24643 0.17867 0.31456 0.0
H601 H 0.30907 0.22653 0.44899 0.0
H602 H 0.34373 0.25344 0.37053 0.0
H603 H 0.35137 0.26903 0.26444 0.0
H604 H 0.28922 0.22046 0.13001 0.0
H605 H 0.25965 0.18769 0.20765 0.0
C606 C 0.26811 0.19446 0.32664 0.0
C607 C 0.27496 0.20088 0.38756 0.0
C608 C 0.28787 0.20987 0.28128 0.0
C609 C 0.30329 0.22111 0.40253 0.0
C610 C 0.32297 0.2367 0.35764 0.0
C611 C 0.33186 0.2507 0.25201 0.0
C612 C 0.32231 0.24745 0.19151 0.0
C613 C 0.31482 0.23209 0.29697 0.0
C614 C 0.29718 0.22342 0.17609 0.0
C615 C 0.28004 0.20487 0.22058 0.0
H616 H 0.73315 0.29719 0.22189 0.0
H617 H 0.80792 0.37608 0.19149 0.0
H618 H 0.84721 0.34769 0.26093 0.0
H619 H 0.85968 0.29968 0.33136 0.0
H620 H 0.77906 0.22757 0.37043 0.0
H621 H 0.74251 0.25448 0.29782 0.0
C622 C 0.75792 0.30844 0.23052 0.0
C623 C 0.76767 0.33857 0.20119 0.0
C624 C 0.77927 0.29322 0.27271 0.0
C625 C 0.79989 0.35276 0.21333 0.0
C626 C 0.82227 0.33658 0.25315 0.0
C627 C 0.83401 0.29016 0.32423 0.0
C628 C 0.82241 0.26136 0.35621 0.0
C629 C 0.81217 0.30675 0.28342 0.0
C630 C 0.78888 0.24958 0.34683 0.0
C631 C 0.76785 0.26487 0.3049 0.0
H632 H 0.72323 0.79885 0.39601 0.0
H633 H 0.78121 0.87183 0.29284 0.0
H634 H 0.75439 0.85181 0.20097 0.0
H635 H 0.72132 0.80756 0.1481 0.0
H636 H 0.66523 0.73308 0.25128 0.0
H637 H 0.68392 0.75984 0.34417 0.0
C638 C 0.72917 0.81108 0.35371 0.0
C639 C 0.7544 0.83659 0.35137 0.0
C640 C 0.71434 0.79874 0.30051 0.0
C641 C 0.76203 0.85195 0.29593 0.0
C642 C 0.74682 0.84039 0.24318 0.0
C643 C 0.71246 0.79776 0.19087 0.0
C644 C 0.69228 0.76808 0.19253 0.0
C645 C 0.72397 0.81286 0.24456 0.0
C646 C 0.68115 0.75567 0.24855 0.0
C647 C 0.69188 0.77092 0.30189 0.0
H648 H 0.18537 0.78386 0.31302 0.0
H649 H 0.24204 0.72627 0.44298 0.0
H650 H 0.26992 0.69354 0.36232 0.0
H651 H 0.28201 0.68472 0.25456 0.0
H652 H 0.22425 0.74124 0.12464 0.0
H653 H 0.19287 0.77054 0.20543 0.0
C654 C 0.20347 0.76382 0.32379 0.0
C655 C 0.21173 0.75779 0.38419 0.0
C656 C 0.21941 0.74497 0.27706 0.0
C657 C 0.23506 0.7315 0.39712 0.0
C658 C 0.2512 0.71286 0.3509 0.0
C659 C 0.26221 0.7031 0.24385 0.0
C660 C 0.25576 0.71089 0.18339 0.0
C661 C 0.24415 0.71987 0.29066 0.0
C662 C 0.22979 0.7346 0.17055 0.0
C663 C 0.21192 0.75157 0.21684 0.0
H664 H 0.26059 0.85755 0.75701 0.0
H665 H 0.31617 0.799 0.6229 0.0
H666 H 0.34906 0.77116 0.70136 0.0
H667 H 0.35557 0.75736 0.808 0.0
H668 H 0.29936 0.81528 0.94214 0.0
H669 H 0.27355 0.84987 0.8637 0.0
C670 C 0.28047 0.83926 0.74486 0.0
C671 C 0.28563 0.83005 0.68418 0.0
C672 C 0.2989 0.82301 0.79027 0.0
C673 C 0.31169 0.8066 0.66913 0.0
C674 C 0.33031 0.79044 0.71407 0.0
C675 C 0.33824 0.77807 0.82017 0.0
C676 C 0.32906 0.78346 0.88083 0.0
C677 C 0.32318 0.79752 0.77479 0.0
C678 C 0.30689 0.8106 0.89592 0.0
C679 C 0.29191 0.8302 0.85099 0.0
H680 H 0.27864 0.34871 0.82537 0.0
H681 H 0.22317 0.29079 0.95841 0.0
H682 H 0.19173 0.26138 0.87941 0.0
H683 H 0.18402 0.24807 0.77231 0.0
H684 H 0.23835 0.3069 0.63917 0.0
H685 H 0.26588 0.3401 0.71832 0.0
C686 C 0.25928 0.33003 0.83717 0.0
C687 C 0.25354 0.32183 0.89792 0.0
C688 C 0.24123 0.31315 0.79139 0.0
C689 C 0.22813 0.29775 0.91224 0.0
C690 C 0.21026 0.28071 0.86697 0.0
C691 C 0.2015 0.2685 0.76056 0.0
C692 C 0.20929 0.27475 0.69975 0.0
C693 C 0.2172 0.28759 0.80637 0.0
C694 C 0.23179 0.30154 0.68544 0.0
C695 C 0.24772 0.32043 0.73077 0.0
H696 H 0.67261 0.27008 0.79853 0.0
H697 H 0.7235 0.22406 0.94816 0.0
H698 H 0.75653 0.18722 0.87952 0.0
H699 H 0.77604 0.17369 0.77633 0.0
H700 H 0.72279 0.21714 0.62688 0.0
H701 H 0.68516 0.24905 0.6959 0.0
C702 C 0.69032 0.25133 0.81603 0.0
C703 C 0.69581 0.24983 0.87815 0.0
C704 C 0.70894 0.23003 0.77632 0.0
C705 C 0.71869 0.22546 0.90052 0.0
C706 C 0.73779 0.20462 0.86126 0.0
C707 C 0.75559 0.1895 0.75906 0.0
C708 C 0.75222 0.19327 0.69676 0.0
C709 C 0.73387 0.20746 0.79902 0.0
C710 C 0.72567 0.21368 0.67469 0.0
C711 C 0.70436 0.23215 0.71413 0.0
H712 H 0.74298 0.6894 0.7892 0.0
H713 H 0.80364 0.74221 0.92089 0.0
H714 H 0.83689 0.76934 0.84089 0.0
H715 H 0.84542 0.78191 0.73359 0.0
H716 H 0.78533 0.72826 0.60204 0.0
H717 H 0.75561 0.69739 0.68181 0.0
C718 C 0.76377 0.70652 0.80049 0.0
C719 C 0.77055 0.71392 0.86119 0.0
C720 C 0.78286 0.72202 0.75417 0.0
C721 C 0.79782 0.73594 0.87477 0.0
C722 C 0.81677 0.75163 0.82894 0.0
C723 C 0.82615 0.76311 0.72223 0.0
C724 C 0.81751 0.7577 0.66164 0.0
C725 C 0.80903 0.74543 0.76848 0.0
C726 C 0.79265 0.73299 0.64802 0.0
C727 C 0.77544 0.71544 0.69374 0.0
loop_
_geom_bond_atom_site_label_1
_geom_bond_atom_site_label_2
_geom_bond_distance
_geom_bond_site_symmetry_2
_ccdc_geom_bond_type
Co0 O2 2.143 1_556 S
Co0 O8 2.074 . S
Co0 O11 2.093 . S
Co0 O24 2.097 . S
Co0 N41 2.151 . S
Co0 N49 2.214 . S
Co1 O2 2.160 . S
Co1 O7 2.058 . S
Co1 O17 2.057 . S
Co1 O32 2.037 . S
Co1 N36 2.145 . S
Co1 N57 2.257 . S
O2 Co0 2.143 1_554 S
O2 Co1 2.160 . S
C3 O4 1.278 . S
C3 O11 1.224 . S
O4 C3 1.278 . S
C5 O6 1.245 . S
C5 O17 1.232 . S
O6 C5 1.245 . S
O7 Co1 2.058 . S
O7 C33 1.269 . S
O8 Co0 2.074 . S
O8 C33 1.257 1_556 S
H9 C34 0.930 . S
H10 C40 0.930 . S
O11 Co0 2.093 . S
O11 C3 1.224 . S
H12 C44 0.929 . S
H13 C46 0.930 . S
H14 C47 0.930 . S
H15 C45 0.929 . S
H16 C48 0.928 . S
O17 Co1 2.057 . S
O17 C5 1.232 . S
H18 C37 0.929 . S
H19 C38 0.929 . S
H20 C50 0.931 . S
H21 C42 0.929 . S
H22 C51 0.930 . S
H23 C43 0.931 . S
O24 Co0 2.097 . S
O24 C52 1.214 . S
H25 C53 0.929 . S
H26 C54 0.929 . S
H27 C55 0.930 . S
H28 C56 0.929 . S
H29 C58 0.930 . S
H30 C35 0.930 . S
H31 C39 0.930 . S
O32 Co1 2.037 . S
O32 C52 1.234 1_554 S
C33 O7 1.269 . S
C33 O8 1.257 1_554 S
C34 H9 0.930 . S
C34 C37 1.388 . S
C34 C39 1.418 . S
C35 H30 0.930 . S
C35 C38 1.404 . S
C35 C39 1.353 . S
N36 Co1 2.145 . S
N36 C37 1.397 . S
N36 C38 1.334 . S
C37 H18 0.929 . S
C37 C34 1.388 . S
C37 N36 1.397 . S
C38 H19 0.929 . S
C38 C35 1.404 . S
C38 N36 1.334 . S
C39 H31 0.930 . S
C39 C34 1.418 . S
C39 C35 1.353 . S
C40 H10 0.930 . S
C40 N41 1.330 . S
C40 C42 1.446 . S
N41 Co0 2.151 . S
N41 C40 1.330 . S
N41 C45 1.418 . S
C42 H21 0.929 . S
C42 C40 1.446 . S
C42 C43 1.332 . S
C43 H23 0.931 . S
C43 C42 1.332 . S
C43 C44 1.267 . S
C44 H12 0.929 . S
C44 C43 1.267 . S
C44 C45 1.251 . S
C45 H15 0.929 . S
C45 N41 1.418 . S
C45 C44 1.251 . S
C46 H13 0.930 . S
C46 C48 1.406 . S
C46 C51 1.261 . S
C47 H14 0.930 . S
C47 N49 1.325 . S
C47 C50 1.357 . S
C48 H16 0.928 . S
C48 C46 1.406 . S
C48 N49 1.261 . S
N49 Co0 2.214 . S
N49 C47 1.325 . S
N49 C48 1.261 . S
C50 H20 0.931 . S
C50 C47 1.357 . S
C50 C51 1.312 . S
C51 H22 0.930 . S
C51 C46 1.261 . S
C51 C50 1.312 . S
C52 O24 1.214 . S
C52 O32 1.234 1_556 S
C53 H25 0.929 . S
C53 C56 1.391 . S
C53 C58 1.391 . S
C54 H26 0.929 . S
C54 C55 1.390 . S
C54 N57 1.391 . S
C55 H27 0.930 . S
C55 C54 1.390 . S
C55 C56 1.392 . S
C56 H28 0.929 . S
C56 C53 1.391 . S
C56 C55 1.392 . S
N57 Co1 2.257 . S
N57 C54 1.391 . S
N57 C58 1.388 . S
C58 H29 0.930 . S
C58 C53 1.391 . S
C58 N57 1.388 . S
Co59 O61 2.143 . S
Co59 O67 2.074 . S
Co59 O70 2.093 . S
Co59 O83 2.097 . S
Co59 N100 2.151 . S
Co59 N108 2.214 . S
Co60 O61 2.160 1_556 S
Co60 O66 2.058 . S
Co60 O76 2.057 . S
Co60 O91 2.037 . S
Co60 N95 2.145 . S
Co60 N116 2.257 . S
O61 Co59 2.143 . S
O61 Co60 2.160 1_554 S
C62 O63 1.278 . S
C62 O70 1.224 . S
O63 C62 1.278 . S
C64 O65 1.245 . S
C64 O76 1.232 . S
O65 C64 1.245 . S
O66 Co60 2.058 . S
O66 C92 1.269 . S
O67 Co59 2.074 . S
O67 C92 1.257 1_554 S
H68 C93 0.930 . S
H69 C99 0.930 . S
O70 Co59 2.093 . S
O70 C62 1.224 . S
H71 C103 0.929 . S
H72 C105 0.930 . S
H73 C106 0.930 . S
H74 C104 0.929 . S
H75 C107 0.928 . S
O76 Co60 2.057 . S
O76 C64 1.232 . S
H77 C96 0.929 . S
H78 C97 0.929 . S
H79 C109 0.931 . S
H80 C101 0.929 . S
H81 C110 0.930 . S
H82 C102 0.931 . S
O83 Co59 2.097 . S
O83 C111 1.214 . S
H84 C112 0.929 . S
H85 C113 0.929 . S
H86 C114 0.930 . S
H87 C115 0.929 . S
H88 C117 0.930 . S
H89 C94 0.930 . S
H90 C98 0.930 . S
O91 Co60 2.037 . S
O91 C111 1.234 1_556 S
C92 O66 1.269 . S
C92 O67 1.257 1_556 S
C93 H68 0.930 . S
C93 C96 1.388 . S
C93 C98 1.418 . S
C94 H89 0.930 . S
C94 C97 1.404 . S
C94 C98 1.353 . S
N95 Co60 2.145 . S
N95 C96 1.397 . S
N95 C97 1.334 . S
C96 H77 0.929 . S
C96 C93 1.388 . S
C96 N95 1.397 . S
C97 H78 0.929 . S
C97 C94 1.404 . S
C97 N95 1.334 . S
C98 H90 0.930 . S
C98 C93 1.418 . S
C98 C94 1.353 . S
C99 H69 0.930 . S
C99 N100 1.330 . S
C99 C101 1.446 . S
N100 Co59 2.151 . S
N100 C99 1.330 . S
N100 C104 1.418 . S
C101 H80 0.929 . S
C101 C99 1.446 . S
C101 C102 1.332 . S
C102 H82 0.931 . S
C102 C101 1.332 . S
C102 C103 1.267 . S
C103 H71 0.929 . S
C103 C102 1.267 . S
C103 C104 1.251 . S
C104 H74 0.929 . S
C104 N100 1.418 . S
C104 C103 1.251 . S
C105 H72 0.930 . S
C105 C107 1.406 . S
C105 C110 1.261 . S
C106 H73 0.930 . S
C106 N108 1.325 . S
C106 C109 1.357 . S
C107 H75 0.928 . S
C107 C105 1.406 . S
C107 N108 1.261 . S
N108 Co59 2.214 . S
N108 C106 1.325 . S
N108 C107 1.261 . S
C109 H79 0.931 . S
C109 C106 1.357 . S
C109 C110 1.312 . S
C110 H81 0.930 . S
C110 C105 1.261 . S
C110 C109 1.312 . S
C111 O83 1.214 . S
C111 O91 1.234 1_554 S
C112 H84 0.929 . S
C112 C115 1.391 . S
C112 C117 1.391 . S
C113 H85 0.929 . S
C113 C114 1.390 . S
C113 N116 1.391 . S
C114 H86 0.930 . S
C114 C113 1.390 . S
C114 C115 1.392 . S
C115 H87 0.929 . S
C115 C112 1.391 . S
C115 C114 1.392 . S
N116 Co60 2.257 . S
N116 C113 1.391 . S
N116 C117 1.388 . S
C117 H88 0.930 . S
C117 C112 1.391 . S
C117 N116 1.388 . S
Co118 O120 2.143 . S
Co118 O126 2.074 . S
Co118 O129 2.093 . S
Co118 O142 2.097 . S
Co118 N159 2.151 . S
Co118 N167 2.214 . S
Co119 O120 2.160 1_556 S
Co119 O125 2.058 . S
Co119 O135 2.057 . S
Co119 O150 2.037 . S
Co119 N154 2.145 . S
Co119 N175 2.257 . S
O120 Co118 2.143 . S
O120 Co119 2.160 1_554 S
C121 O122 1.278 . S
C121 O129 1.224 . S
O122 C121 1.278 . S
C123 O124 1.245 . S
C123 O135 1.232 . S
O124 C123 1.245 . S
O125 Co119 2.058 . S
O125 C151 1.269 . S
O126 Co118 2.074 . S
O126 C151 1.257 1_554 S
H127 C152 0.930 . S
H128 C158 0.930 . S
O129 Co118 2.093 . S
O129 C121 1.224 . S
H130 C162 0.929 . S
H131 C164 0.930 . S
H132 C165 0.930 . S
H133 C163 0.929 . S
H134 C166 0.928 . S
O135 Co119 2.057 . S
O135 C123 1.232 . S
H136 C155 0.929 . S
H137 C156 0.929 . S
H138 C168 0.931 . S
H139 C160 0.929 . S
H140 C169 0.930 . S
H141 C161 0.931 . S
O142 Co118 2.097 . S
O142 C170 1.214 . S
H143 C171 0.929 . S
H144 C172 0.929 . S
H145 C173 0.930 . S
H146 C174 0.929 . S
H147 C176 0.930 . S
H148 C153 0.930 . S
H149 C157 0.930 . S
O150 Co119 2.037 . S
O150 C170 1.234 1_556 S
C151 O125 1.269 . S
C151 O126 1.257 1_556 S
C152 H127 0.930 . S
C152 C155 1.388 . S
C152 C157 1.418 . S
C153 H148 0.930 . S
C153 C156 1.404 . S
C153 C157 1.353 . S
N154 Co119 2.145 . S
N154 C155 1.397 . S
N154 C156 1.334 . S
C155 H136 0.929 . S
C155 C152 1.388 . S
C155 N154 1.397 . S
C156 H137 0.929 . S
C156 C153 1.404 . S
C156 N154 1.334 . S
C157 H149 0.930 . S
C157 C152 1.418 . S
C157 C153 1.353 . S
C158 H128 0.930 . S
C158 N159 1.330 . S
C158 C160 1.446 . S
N159 Co118 2.151 . S
N159 C158 1.330 . S
N159 C163 1.418 . S
C160 H139 0.929 . S
C160 C158 1.446 . S
C160 C161 1.332 . S
C161 H141 0.931 . S
C161 C160 1.332 . S
C161 C162 1.267 . S
C162 H130 0.929 . S
C162 C161 1.267 . S
C162 C163 1.251 . S
C163 H133 0.929 . S
C163 N159 1.418 . S
C163 C162 1.251 . S
C164 H131 0.930 . S
C164 C166 1.406 . S
C164 C169 1.261 . S
C165 H132 0.930 . S
C165 N167 1.325 . S
C165 C168 1.357 . S
C166 H134 0.928 . S
C166 C164 1.406 . S
C166 N167 1.261 . S
N167 Co118 2.214 . S
N167 C165 1.325 . S
N167 C166 1.261 . S
C168 H138 0.931 . S
C168 C165 1.357 . S
C168 C169 1.312 . S
C169 H140 0.930 . S
C169 C164 1.261 . S
C169 C168 1.312 . S
C170 O142 1.214 . S
C170 O150 1.234 1_554 S
C171 H143 0.929 . S
C171 C174 1.391 . S
C171 C176 1.391 . S
C172 H144 0.929 . S
C172 C173 1.390 . S
C172 N175 1.391 . S
C173 H145 0.930 . S
C173 C172 1.390 . S
C173 C174 1.392 . S
C174 H146 0.929 . S
C174 C171 1.391 . S
C174 C173 1.392 . S
N175 Co119 2.257 . S
N175 C172 1.391 . S
N175 C176 1.388 . S
C176 H147 0.930 . S
C176 C171 1.391 . S
C176 N175 1.388 . S
Co177 O179 2.143 1_556 S
Co177 O185 2.074 . S
Co177 O188 2.093 . S
Co177 O201 2.097 . S
Co177 N218 2.151 . S
Co177 N226 2.214 . S
Co178 O179 2.160 . S
Co178 O184 2.058 . S
Co178 O194 2.057 . S
Co178 O209 2.037 . S
Co178 N213 2.145 . S
Co178 N234 2.257 . S
O179 Co177 2.143 1_554 S
O179 Co178 2.160 . S
C180 O181 1.278 . S
C180 O188 1.224 . S
O181 C180 1.278 . S
C182 O183 1.245 . S
C182 O194 1.232 . S
O183 C182 1.245 . S
O184 Co178 2.058 . S
O184 C210 1.269 . S
O185 Co177 2.074 . S
O185 C210 1.257 1_556 S
H186 C211 0.930 . S
H187 C217 0.930 . S
O188 Co177 2.093 . S
O188 C180 1.224 . S
H189 C221 0.929 . S
H190 C223 0.930 . S
H191 C224 0.930 . S
H192 C222 0.929 . S
H193 C225 0.928 . S
O194 Co178 2.057 . S
O194 C182 1.232 . S
H195 C214 0.929 . S
H196 C215 0.929 . S
H197 C227 0.931 . S
H198 C219 0.929 . S
H199 C228 0.930 . S
H200 C220 0.931 . S
O201 Co177 2.097 . S
O201 C229 1.214 . S
H202 C230 0.929 . S
H203 C231 0.929 . S
H204 C232 0.930 . S
H205 C233 0.929 . S
H206 C235 0.930 . S
H207 C212 0.930 . S
H208 C216 0.930 . S
O209 Co178 2.037 . S
O209 C229 1.234 1_554 S
C210 O184 1.269 . S
C210 O185 1.257 1_554 S
C211 H186 0.930 . S
C211 C214 1.388 . S
C211 C216 1.418 . S
C212 H207 0.930 . S
C212 C215 1.404 . S
C212 C216 1.353 . S
N213 Co178 2.145 . S
N213 C214 1.397 . S
N213 C215 1.334 . S
C214 H195 0.929 . S
C214 C211 1.388 . S
C214 N213 1.397 . S
C215 H196 0.929 . S
C215 C212 1.404 . S
C215 N213 1.334 . S
C216 H208 0.930 . S
C216 C211 1.418 . S
C216 C212 1.353 . S
C217 H187 0.930 . S
C217 N218 1.330 . S
C217 C219 1.446 . S
N218 Co177 2.151 . S
N218 C217 1.330 . S
N218 C222 1.418 . S
C219 H198 0.929 . S
C219 C217 1.446 . S
C219 C220 1.332 . S
C220 H200 0.931 . S
C220 C219 1.332 . S
C220 C221 1.267 . S
C221 H189 0.929 . S
C221 C220 1.267 . S
C221 C222 1.251 . S
C222 H192 0.929 . S
C222 N218 1.418 . S
C222 C221 1.251 . S
C223 H190 0.930 . S
C223 C225 1.406 . S
C223 C228 1.261 . S
C224 H191 0.930 . S
C224 N226 1.325 . S
C224 C227 1.357 . S
C225 H193 0.928 . S
C225 C223 1.406 . S
C225 N226 1.261 . S
N226 Co177 2.214 . S
N226 C224 1.325 . S
N226 C225 1.261 . S
C227 H197 0.931 . S
C227 C224 1.357 . S
C227 C228 1.312 . S
C228 H199 0.930 . S
C228 C223 1.261 . S
C228 C227 1.312 . S
C229 O201 1.214 . S
C229 O209 1.234 1_556 S
C230 H202 0.929 . S
C230 C233 1.391 . S
C230 C235 1.391 . S
C231 H203 0.929 . S
C231 C232 1.390 . S
C231 N234 1.391 . S
C232 H204 0.930 . S
C232 C231 1.390 . S
C232 C233 1.392 . S
C233 H205 0.929 . S
C233 C230 1.391 . S
C233 C232 1.392 . S
N234 Co178 2.257 . S
N234 C231 1.391 . S
N234 C235 1.388 . S
C235 H206 0.930 . S
C235 C230 1.391 . S
C235 N234 1.388 . S
Co236 O238 2.143 . S
Co236 O244 2.074 . S
Co236 O247 2.093 . S
Co236 O260 2.097 . S
Co236 N277 2.151 . S
Co236 N285 2.214 . S
Co237 O238 2.160 . S
Co237 O243 2.058 . S
Co237 O253 2.057 . S
Co237 O268 2.037 . S
Co237 N272 2.145 . S
Co237 N293 2.257 . S
O238 Co236 2.143 . S
O238 Co237 2.160 . S
C239 O240 1.278 . S
C239 O247 1.224 . S
O240 C239 1.278 . S
C241 O242 1.245 . S
C241 O253 1.232 . S
O242 C241 1.245 . S
O243 Co237 2.058 . S
O243 C269 1.269 . S
O244 Co236 2.074 . S
O244 C269 1.257 . S
H245 C270 0.930 . S
H246 C276 0.930 . S
O247 Co236 2.093 . S
O247 C239 1.224 . S
H248 C280 0.929 . S
H249 C282 0.930 . S
H250 C283 0.930 . S
H251 C281 0.929 . S
H252 C284 0.928 . S
O253 Co237 2.057 . S
O253 C241 1.232 . S
H254 C273 0.929 . S
H255 C274 0.929 . S
H256 C286 0.931 . S
H257 C278 0.929 . S
H258 C287 0.930 . S
H259 C279 0.931 . S
O260 Co236 2.097 . S
O260 C288 1.214 . S
H261 C289 0.929 . S
H262 C290 0.929 . S
H263 C291 0.930 . S
H264 C292 0.929 . S
H265 C294 0.930 . S
H266 C271 0.930 . S
H267 C275 0.930 . S
O268 Co237 2.037 . S
O268 C288 1.234 . S
C269 O243 1.269 . S
C269 O244 1.257 . S
C270 H245 0.930 . S
C270 C273 1.388 . S
C270 C275 1.418 . S
C271 H266 0.930 . S
C271 C274 1.404 . S
C271 C275 1.353 . S
N272 Co237 2.145 . S
N272 C273 1.397 . S
N272 C274 1.334 . S
C273 H254 0.929 . S
C273 C270 1.388 . S
C273 N272 1.397 . S
C274 H255 0.929 . S
C274 C271 1.404 . S
C274 N272 1.334 . S
C275 H267 0.930 . S
C275 C270 1.418 . S
C275 C271 1.353 . S
C276 H246 0.930 . S
C276 N277 1.330 . S
C276 C278 1.446 . S
N277 Co236 2.151 . S
N277 C276 1.330 . S
N277 C281 1.418 . S
C278 H257 0.929 . S
C278 C276 1.446 . S
C278 C279 1.332 . S
C279 H259 0.931 . S
C279 C278 1.332 . S
C279 C280 1.267 . S
C280 H248 0.929 . S
C280 C279 1.267 . S
C280 C281 1.251 . S
C281 H251 0.929 . S
C281 N277 1.418 . S
C281 C280 1.251 . S
C282 H249 0.930 . S
C282 C284 1.406 . S
C282 C287 1.261 . S
C283 H250 0.930 . S
C283 N285 1.325 . S
C283 C286 1.357 . S
C284 H252 0.928 . S
C284 C282 1.406 . S
C284 N285 1.261 . S
N285 Co236 2.214 . S
N285 C283 1.325 . S
N285 C284 1.261 . S
C286 H256 0.931 . S
C286 C283 1.357 . S
C286 C287 1.312 . S
C287 H258 0.930 . S
C287 C282 1.261 . S
C287 C286 1.312 . S
C288 O260 1.214 . S
C288 O268 1.234 . S
C289 H261 0.929 . S
C289 C292 1.391 . S
C289 C294 1.391 . S
C290 H262 0.929 . S
C290 C291 1.390 . S
C290 N293 1.391 . S
C291 H263 0.930 . S
C291 C290 1.390 . S
C291 C292 1.392 . S
C292 H264 0.929 . S
C292 C289 1.391 . S
C292 C291 1.392 . S
N293 Co237 2.257 . S
N293 C290 1.391 . S
N293 C294 1.388 . S
C294 H265 0.930 . S
C294 C289 1.391 . S
C294 N293 1.388 . S
Co295 O297 2.143 . S
Co295 O303 2.074 . S
Co295 O306 2.093 . S
Co295 O319 2.097 . S
Co295 N336 2.151 . S
Co295 N344 2.214 . S
Co296 O297 2.160 . S
Co296 O302 2.058 . S
Co296 O312 2.057 . S
Co296 O327 2.037 . S
Co296 N331 2.145 . S
Co296 N352 2.257 . S
O297 Co295 2.143 . S
O297 Co296 2.160 . S
C298 O299 1.278 . S
C298 O306 1.224 . S
O299 C298 1.278 . S
C300 O301 1.245 . S
C300 O312 1.232 . S
O301 C300 1.245 . S
O302 Co296 2.058 . S
O302 C328 1.269 . S
O303 Co295 2.074 . S
O303 C328 1.257 . S
H304 C329 0.930 . S
H305 C335 0.930 . S
O306 Co295 2.093 . S
O306 C298 1.224 . S
H307 C339 0.929 . S
H308 C341 0.930 . S
H309 C342 0.930 . S
H310 C340 0.929 . S
H311 C343 0.928 . S
O312 Co296 2.057 . S
O312 C300 1.232 . S
H313 C332 0.929 . S
H314 C333 0.929 . S
H315 C345 0.931 . S
H316 C337 0.929 . S
H317 C346 0.930 . S
H318 C338 0.931 . S
O319 Co295 2.097 . S
O319 C347 1.214 . S
H320 C348 0.929 . S
H321 C349 0.929 . S
H322 C350 0.930 . S
H323 C351 0.929 . S
H324 C353 0.930 . S
H325 C330 0.930 . S
H326 C334 0.930 . S
O327 Co296 2.037 . S
O327 C347 1.234 . S
C328 O302 1.269 . S
C328 O303 1.257 . S
C329 H304 0.930 . S
C329 C332 1.388 . S
C329 C334 1.418 . S
C330 H325 0.930 . S
C330 C333 1.404 . S
C330 C334 1.353 . S
N331 Co296 2.145 . S
N331 C332 1.397 . S
N331 C333 1.334 . S
C332 H313 0.929 . S
C332 C329 1.388 . S
C332 N331 1.397 . S
C333 H314 0.929 . S
C333 C330 1.404 . S
C333 N331 1.334 . S
C334 H326 0.930 . S
C334 C329 1.418 . S
C334 C330 1.353 . S
C335 H305 0.930 . S
C335 N336 1.330 . S
C335 C337 1.446 . S
N336 Co295 2.151 . S
N336 C335 1.330 . S
N336 C340 1.418 . S
C337 H316 0.929 . S
C337 C335 1.446 . S
C337 C338 1.332 . S
C338 H318 0.931 . S
C338 C337 1.332 . S
C338 C339 1.267 . S
C339 H307 0.929 . S
C339 C338 1.267 . S
C339 C340 1.251 . S
C340 H310 0.929 . S
C340 N336 1.418 . S
C340 C339 1.251 . S
C341 H308 0.930 . S
C341 C343 1.406 . S
C341 C346 1.261 . S
C342 H309 0.930 . S
C342 N344 1.325 . S
C342 C345 1.357 . S
C343 H311 0.928 . S
C343 C341 1.406 . S
C343 N344 1.261 . S
N344 Co295 2.214 . S
N344 C342 1.325 . S
N344 C343 1.261 . S
C345 H315 0.931 . S
C345 C342 1.357 . S
C345 C346 1.312 . S
C346 H317 0.930 . S
C346 C341 1.261 . S
C346 C345 1.312 . S
C347 O319 1.214 . S
C347 O327 1.234 . S
C348 H320 0.929 . S
C348 C351 1.391 . S
C348 C353 1.391 . S
C349 H321 0.929 . S
C349 C350 1.390 . S
C349 N352 1.391 . S
C350 H322 0.930 . S
C350 C349 1.390 . S
C350 C351 1.392 . S
C351 H323 0.929 . S
C351 C348 1.391 . S
C351 C350 1.392 . S
N352 Co296 2.257 . S
N352 C349 1.391 . S
N352 C353 1.388 . S
C353 H324 0.930 . S
C353 C348 1.391 . S
C353 N352 1.388 . S
Co354 O356 2.143 . S
Co354 O362 2.074 . S
Co354 O365 2.093 . S
Co354 O378 2.097 . S
Co354 N395 2.151 . S
Co354 N403 2.214 . S
Co355 O356 2.160 . S
Co355 O361 2.058 . S
Co355 O371 2.057 . S
Co355 O386 2.037 . S
Co355 N390 2.145 . S
Co355 N411 2.257 . S
O356 Co354 2.143 . S
O356 Co355 2.160 . S
C357 O358 1.278 . S
C357 O365 1.224 . S
O358 C357 1.278 . S
C359 O360 1.245 . S
C359 O371 1.232 . S
O360 C359 1.245 . S
O361 Co355 2.058 . S
O361 C387 1.269 . S
O362 Co354 2.074 . S
O362 C387 1.257 . S
H363 C388 0.930 . S
H364 C394 0.930 . S
O365 Co354 2.093 . S
O365 C357 1.224 . S
H366 C398 0.929 . S
H367 C400 0.930 . S
H368 C401 0.930 . S
H369 C399 0.929 . S
H370 C402 0.928 . S
O371 Co355 2.057 . S
O371 C359 1.232 . S
H372 C391 0.929 . S
H373 C392 0.929 . S
H374 C404 0.931 . S
H375 C396 0.929 . S
H376 C405 0.930 . S
H377 C397 0.931 . S
O378 Co354 2.097 . S
O378 C406 1.214 . S
H379 C407 0.929 . S
H380 C408 0.929 . S
H381 C409 0.930 . S
H382 C410 0.929 . S
H383 C412 0.930 . S
H384 C389 0.930 . S
H385 C393 0.930 . S
O386 Co355 2.037 . S
O386 C406 1.234 . S
C387 O361 1.269 . S
C387 O362 1.257 . S
C388 H363 0.930 . S
C388 C391 1.388 . S
C388 C393 1.418 . S
C389 H384 0.930 . S
C389 C392 1.404 . S
C389 C393 1.353 . S
N390 Co355 2.145 . S
N390 C391 1.397 . S
N390 C392 1.334 . S
C391 H372 0.929 . S
C391 C388 1.388 . S
C391 N390 1.397 . S
C392 H373 0.929 . S
C392 C389 1.404 . S
C392 N390 1.334 . S
C393 H385 0.930 . S
C393 C388 1.418 . S
C393 C389 1.353 . S
C394 H364 0.930 . S
C394 N395 1.330 . S
C394 C396 1.446 . S
N395 Co354 2.151 . S
N395 C394 1.330 . S
N395 C399 1.418 . S
C396 H375 0.929 . S
C396 C394 1.446 . S
C396 C397 1.332 . S
C397 H377 0.931 . S
C397 C396 1.332 . S
C397 C398 1.267 . S
C398 H366 0.929 . S
C398 C397 1.267 . S
C398 C399 1.251 . S
C399 H369 0.929 . S
C399 N395 1.418 . S
C399 C398 1.251 . S
C400 H367 0.930 . S
C400 C402 1.406 . S
C400 C405 1.261 . S
C401 H368 0.930 . S
C401 N403 1.325 . S
C401 C404 1.357 . S
C402 H370 0.928 . S
C402 C400 1.406 . S
C402 N403 1.261 . S
N403 Co354 2.214 . S
N403 C401 1.325 . S
N403 C402 1.261 . S
C404 H374 0.931 . S
C404 C401 1.357 . S
C404 C405 1.312 . S
C405 H376 0.930 . S
C405 C400 1.261 . S
C405 C404 1.312 . S
C406 O378 1.214 . S
C406 O386 1.234 . S
C407 H379 0.929 . S
C407 C410 1.391 . S
C407 C412 1.391 . S
C408 H380 0.929 . S
C408 C409 1.390 . S
C408 N411 1.391 . S
C409 H381 0.930 . S
C409 C408 1.390 . S
C409 C410 1.392 . S
C410 H382 0.929 . S
C410 C407 1.391 . S
C410 C409 1.392 . S
N411 Co355 2.257 . S
N411 C408 1.391 . S
N411 C412 1.388 . S
C412 H383 0.930 . S
C412 C407 1.391 . S
C412 N411 1.388 . S
Co413 O415 2.143 . S
Co413 O421 2.074 . S
Co413 O424 2.093 . S
Co413 O437 2.097 . S
Co413 N454 2.151 . S
Co413 N462 2.214 . S
Co414 O415 2.160 . S
Co414 O420 2.058 . S
Co414 O430 2.057 . S
Co414 O445 2.037 . S
Co414 N449 2.145 . S
Co414 N470 2.257 . S
O415 Co413 2.143 . S
O415 Co414 2.160 . S
C416 O417 1.278 . S
C416 O424 1.224 . S
O417 C416 1.278 . S
C418 O419 1.245 . S
C418 O430 1.232 . S
O419 C418 1.245 . S
O420 Co414 2.058 . S
O420 C446 1.269 . S
O421 Co413 2.074 . S
O421 C446 1.257 . S
H422 C447 0.930 . S
H423 C453 0.930 . S
O424 Co413 2.093 . S
O424 C416 1.224 . S
H425 C457 0.929 . S
H426 C459 0.930 . S
H427 C460 0.930 . S
H428 C458 0.929 . S
H429 C461 0.928 . S
O430 Co414 2.057 . S
O430 C418 1.232 . S
H431 C450 0.929 . S
H432 C451 0.929 . S
H433 C463 0.931 . S
H434 C455 0.929 . S
H435 C464 0.930 . S
H436 C456 0.931 . S
O437 Co413 2.097 . S
O437 C465 1.214 . S
H438 C466 0.929 . S
H439 C467 0.929 . S
H440 C468 0.930 . S
H441 C469 0.929 . S
H442 C471 0.930 . S
H443 C448 0.930 . S
H444 C452 0.930 . S
O445 Co414 2.037 . S
O445 C465 1.234 . S
C446 O420 1.269 . S
C446 O421 1.257 . S
C447 H422 0.930 . S
C447 C450 1.388 . S
C447 C452 1.418 . S
C448 H443 0.930 . S
C448 C451 1.404 . S
C448 C452 1.353 . S
N449 Co414 2.145 . S
N449 C450 1.397 . S
N449 C451 1.334 . S
C450 H431 0.929 . S
C450 C447 1.388 . S
C450 N449 1.397 . S
C451 H432 0.929 . S
C451 C448 1.404 . S
C451 N449 1.334 . S
C452 H444 0.930 . S
C452 C447 1.418 . S
C452 C448 1.353 . S
C453 H423 0.930 . S
C453 N454 1.330 . S
C453 C455 1.446 . S
N454 Co413 2.151 . S
N454 C453 1.330 . S
N454 C458 1.418 . S
C455 H434 0.929 . S
C455 C453 1.446 . S
C455 C456 1.332 . S
C456 H436 0.931 . S
C456 C455 1.332 . S
C456 C457 1.267 . S
C457 H425 0.929 . S
C457 C456 1.267 . S
C457 C458 1.251 . S
C458 H428 0.929 . S
C458 N454 1.418 . S
C458 C457 1.251 . S
C459 H426 0.930 . S
C459 C461 1.406 . S
C459 C464 1.261 . S
C460 H427 0.930 . S
C460 N462 1.325 . S
C460 C463 1.357 . S
C461 H429 0.928 . S
C461 C459 1.406 . S
C461 N462 1.261 . S
N462 Co413 2.214 . S
N462 C460 1.325 . S
N462 C461 1.261 . S
C463 H433 0.931 . S
C463 C460 1.357 . S
C463 C464 1.312 . S
C464 H435 0.930 . S
C464 C459 1.261 . S
C464 C463 1.312 . S
C465 O437 1.214 . S
C465 O445 1.234 . S
C466 H438 0.929 . S
C466 C469 1.391 . S
C466 C471 1.391 . S
C467 H439 0.929 . S
C467 C468 1.390 . S
C467 N470 1.391 . S
C468 H440 0.930 . S
C468 C467 1.390 . S
C468 C469 1.392 . S
C469 H441 0.929 . S
C469 C466 1.391 . S
C469 C468 1.392 . S
N470 Co414 2.257 . S
N470 C467 1.391 . S
N470 C471 1.388 . S
C471 H442 0.930 . S
C471 C466 1.391 . S
C471 N470 1.388 . S
H472 C478 0.930 . S
H473 C481 0.930 . S
H474 C482 0.930 . S
H475 C483 0.930 . S
H476 C486 0.930 . S
H477 C487 0.930 . S
C478 H472 0.930 . S
C478 C479 1.355 . S
C478 C480 1.415 . S
C479 C478 1.355 . S
C479 C481 1.419 1_556 S
C480 C478 1.415 . S
C480 C485 1.425 1_556 S
C480 C487 1.409 . S
C481 H473 0.930 . S
C481 C479 1.419 1_554 S
C481 C482 1.362 . S
C482 H474 0.930 . S
C482 C481 1.362 . S
C482 C485 1.409 . S
C483 H475 0.930 . S
C483 C484 1.355 . S
C483 C485 1.415 . S
C484 C483 1.355 . S
C484 C486 1.419 1_554 S
C485 C480 1.425 1_554 S
C485 C482 1.409 . S
C485 C483 1.415 . S
C486 H476 0.930 . S
C486 C484 1.419 1_556 S
C486 C487 1.362 . S
C487 H477 0.930 . S
C487 C480 1.409 . S
C487 C486 1.362 . S
H488 C494 0.930 . S
H489 C497 0.930 . S
H490 C498 0.930 . S
H491 C499 0.930 . S
H492 C502 0.930 . S
H493 C503 0.930 . S
C494 H488 0.930 . S
C494 C495 1.355 1_556 S
C494 C496 1.415 . S
C495 C494 1.355 1_554 S
C495 C497 1.419 . S
C496 C494 1.415 . S
C496 C501 1.425 1_556 S
C496 C503 1.409 . S
C497 H489 0.930 . S
C497 C495 1.419 . S
C497 C498 1.362 . S
C498 H490 0.930 . S
C498 C497 1.362 . S
C498 C501 1.409 . S
C499 H491 0.930 . S
C499 C500 1.355 1_554 S
C499 C501 1.415 . S
C500 C499 1.355 1_556 S
C500 C502 1.419 . S
C501 C496 1.425 1_554 S
C501 C498 1.409 . S
C501 C499 1.415 . S
C502 H492 0.930 . S
C502 C500 1.419 . S
C502 C503 1.362 . S
C503 H493 0.930 . S
C503 C496 1.409 . S
C503 C502 1.362 . S
H504 C510 0.930 . S
H505 C513 0.930 . S
H506 C514 0.930 . S
H507 C515 0.930 . S
H508 C518 0.930 . S
H509 C519 0.930 . S
C510 H504 0.930 . S
C510 C511 1.355 1_556 S
C510 C512 1.415 . S
C511 C510 1.355 1_554 S
C511 C513 1.419 . S
C512 C510 1.415 . S
C512 C517 1.425 1_556 S
C512 C519 1.409 . S
C513 H505 0.930 . S
C513 C511 1.419 . S
C513 C514 1.362 . S
C514 H506 0.930 . S
C514 C513 1.362 . S
C514 C517 1.409 . S
C515 H507 0.930 . S
C515 C516 1.355 1_554 S
C515 C517 1.415 . S
C516 C515 1.355 1_556 S
C516 C518 1.419 . S
C517 C512 1.425 1_554 S
C517 C514 1.409 . S
C517 C515 1.415 . S
C518 H508 0.930 . S
C518 C516 1.419 . S
C518 C519 1.362 . S
C519 H509 0.930 . S
C519 C512 1.409 . S
C519 C518 1.362 . S
H520 C526 0.930 . S
H521 C529 0.930 . S
H522 C530 0.930 . S
H523 C531 0.930 . S
H524 C534 0.930 . S
H525 C535 0.930 . S
C526 H520 0.930 . S
C526 C527 1.355 1_554 S
C526 C528 1.415 . S
C527 C526 1.355 1_556 S
C527 C529 1.419 . S
C528 C526 1.415 . S
C528 C533 1.425 1_554 S
C528 C535 1.409 . S
C529 H521 0.930 . S
C529 C527 1.419 . S
C529 C530 1.362 . S
C530 H522 0.930 . S
C530 C529 1.362 . S
C530 C533 1.409 . S
C531 H523 0.930 . S
C531 C532 1.355 1_556 S
C531 C533 1.415 . S
C532 C531 1.355 1_554 S
C532 C534 1.419 . S
C533 C528 1.425 1_556 S
C533 C530 1.409 . S
C533 C531 1.415 . S
C534 H524 0.930 . S
C534 C532 1.419 . S
C534 C535 1.362 . S
C535 H525 0.930 . S
C535 C528 1.409 . S
C535 C534 1.362 . S
H536 C542 0.930 . S
H537 C545 0.930 . S
H538 C546 0.930 1_545 S
H539 C547 0.930 . S
H540 C550 0.930 . S
H541 C551 0.930 1_565 S
C542 H536 0.930 . S
C542 C543 1.355 . S
C542 C544 1.415 . S
C543 C542 1.355 . S
C543 C545 1.419 . S
C544 C542 1.415 . S
C544 C549 1.425 1_565 S
C544 C551 1.409 1_565 S
C545 H537 0.930 . S
C545 C543 1.419 . S
C545 C546 1.362 . S
C546 H538 0.930 1_565 S
C546 C545 1.362 . S
C546 C549 1.409 1_565 S
C547 H539 0.930 . S
C547 C548 1.355 . S
C547 C549 1.415 . S
C548 C547 1.355 . S
C548 C550 1.419 . S
C549 C544 1.425 1_545 S
C549 C546 1.409 1_545 S
C549 C547 1.415 . S
C550 H540 0.930 . S
C550 C548 1.419 . S
C550 C551 1.362 . S
C551 H541 0.930 1_545 S
C551 C544 1.409 1_545 S
C551 C550 1.362 . S
H552 C558 0.930 . S
H553 C561 0.930 . S
H554 C562 0.930 . S
H555 C563 0.930 . S
H556 C566 0.930 . S
H557 C567 0.930 . S
C558 H552 0.930 . S
C558 C559 1.355 . S
C558 C560 1.415 . S
C559 C558 1.355 . S
C559 C561 1.419 . S
C560 C558 1.415 . S
C560 C565 1.425 1_455 S
C560 C567 1.409 1_455 S
C561 H553 0.930 . S
C561 C559 1.419 . S
C561 C562 1.362 . S
C562 H554 0.930 . S
C562 C561 1.362 . S
C562 C565 1.409 1_455 S
C563 H555 0.930 . S
C563 C564 1.355 . S
C563 C565 1.415 . S
C564 C563 1.355 . S
C564 C566 1.419 . S
C565 C560 1.425 1_655 S
C565 C562 1.409 1_655 S
C565 C563 1.415 . S
C566 H556 0.930 . S
C566 C564 1.419 . S
C566 C567 1.362 . S
C567 H557 0.930 . S
C567 C560 1.409 1_655 S
C567 C566 1.362 . S
H568 C574 0.930 . S
H569 C577 0.930 . S
H570 C578 0.930 . S
H571 C579 0.930 . S
H572 C582 0.930 . S
H573 C583 0.930 . S
C574 H568 0.930 . S
C574 C575 1.355 . S
C574 C576 1.415 . S
C575 C574 1.355 . S
C575 C577 1.419 . S
C576 C574 1.415 . S
C576 C581 1.425 1_545 S
C576 C583 1.409 1_545 S
C577 H569 0.930 . S
C577 C575 1.419 . S
C577 C578 1.362 . S
C578 H570 0.930 . S
C578 C577 1.362 . S
C578 C581 1.409 1_545 S
C579 H571 0.930 . S
C579 C580 1.355 . S
C579 C581 1.415 . S
C580 C579 1.355 . S
C580 C582 1.419 . S
C581 C576 1.425 1_565 S
C581 C578 1.409 1_565 S
C581 C579 1.415 . S
C582 H572 0.930 . S
C582 C580 1.419 . S
C582 C583 1.362 . S
C583 H573 0.930 . S
C583 C576 1.409 1_565 S
C583 C582 1.362 . S
H584 C590 0.930 . S
H585 C593 0.930 . S
H586 C594 0.930 . S
H587 C595 0.930 . S
H588 C598 0.930 . S
H589 C599 0.930 . S
C590 H584 0.930 . S
C590 C591 1.355 . S
C590 C592 1.415 . S
C591 C590 1.355 . S
C591 C593 1.419 . S
C592 C590 1.415 . S
C592 C597 1.425 1_655 S
C592 C599 1.409 1_655 S
C593 H585 0.930 . S
C593 C591 1.419 . S
C593 C594 1.362 . S
C594 H586 0.930 . S
C594 C593 1.362 . S
C594 C597 1.409 1_655 S
C595 H587 0.930 . S
C595 C596 1.355 . S
C595 C597 1.415 . S
C596 C595 1.355 . S
C596 C598 1.419 . S
C597 C592 1.425 1_455 S
C597 C594 1.409 1_455 S
C597 C595 1.415 . S
C598 H588 0.930 . S
C598 C596 1.419 . S
C598 C599 1.362 . S
C599 H589 0.930 . S
C599 C592 1.409 1_455 S
C599 C598 1.362 . S
H600 C606 0.930 . S
H601 C609 0.930 . S
H602 C610 0.930 . S
H603 C611 0.930 . S
H604 C614 0.930 . S
H605 C615 0.930 . S
C606 H600 0.930 . S
C606 C607 1.355 . S
C606 C608 1.415 . S
C607 C606 1.355 . S
C607 C609 1.419 . S
C608 C606 1.415 . S
C608 C613 1.425 . S
C608 C615 1.409 . S
C609 H601 0.930 . S
C609 C607 1.419 . S
C609 C610 1.362 . S
C610 H602 0.930 . S
C610 C609 1.362 . S
C610 C613 1.409 . S
C611 H603 0.930 . S
C611 C612 1.355 . S
C611 C613 1.415 . S
C612 C611 1.355 . S
C612 C614 1.419 . S
C613 C608 1.425 . S
C613 C610 1.409 . S
C613 C611 1.415 . S
C614 H604 0.930 . S
C614 C612 1.419 . S
C614 C615 1.362 . S
C615 H605 0.930 . S
C615 C608 1.409 . S
C615 C614 1.362 . S
H616 C622 0.930 . S
H617 C625 0.930 . S
H618 C626 0.930 . S
H619 C627 0.930 . S
H620 C630 0.930 . S
H621 C631 0.930 . S
C622 H616 0.930 . S
C622 C623 1.355 . S
C622 C624 1.415 . S
C623 C622 1.355 . S
C623 C625 1.419 . S
C624 C622 1.415 . S
C624 C629 1.425 . S
C624 C631 1.409 . S
C625 H617 0.930 . S
C625 C623 1.419 . S
C625 C626 1.362 . S
C626 H618 0.930 . S
C626 C625 1.362 . S
C626 C629 1.409 . S
C627 H619 0.930 . S
C627 C628 1.355 . S
C627 C629 1.415 . S
C628 C627 1.355 . S
C628 C630 1.419 . S
C629 C624 1.425 . S
C629 C626 1.409 . S
C629 C627 1.415 . S
C630 H620 0.930 . S
C630 C628 1.419 . S
C630 C631 1.362 . S
C631 H621 0.930 . S
C631 C624 1.409 . S
C631 C630 1.362 . S
H632 C638 0.930 . S
H633 C641 0.930 . S
H634 C642 0.930 . S
H635 C643 0.930 . S
H636 C646 0.930 . S
H637 C647 0.930 . S
C638 H632 0.930 . S
C638 C639 1.355 . S
C638 C640 1.415 . S
C639 C638 1.355 . S
C639 C641 1.419 . S
C640 C638 1.415 . S
C640 C645 1.425 . S
C640 C647 1.409 . S
C641 H633 0.930 . S
C641 C639 1.419 . S
C641 C642 1.362 . S
C642 H634 0.930 . S
C642 C641 1.362 . S
C642 C645 1.409 . S
C643 H635 0.930 . S
C643 C644 1.355 . S
C643 C645 1.415 . S
C644 C643 1.355 . S
C644 C646 1.419 . S
C645 C640 1.425 . S
C645 C642 1.409 . S
C645 C643 1.415 . S
C646 H636 0.930 . S
C646 C644 1.419 . S
C646 C647 1.362 . S
C647 H637 0.930 . S
C647 C640 1.409 . S
C647 C646 1.362 . S
H648 C654 0.930 . S
H649 C657 0.930 . S
H650 C658 0.930 . S
H651 C659 0.930 . S
H652 C662 0.930 . S
H653 C663 0.930 . S
C654 H648 0.930 . S
C654 C655 1.355 . S
C654 C656 1.415 . S
C655 C654 1.355 . S
C655 C657 1.419 . S
C656 C654 1.415 . S
C656 C661 1.425 . S
C656 C663 1.409 . S
C657 H649 0.930 . S
C657 C655 1.419 . S
C657 C658 1.362 . S
C658 H650 0.930 . S
C658 C657 1.362 . S
C658 C661 1.409 . S
C659 H651 0.930 . S
C659 C660 1.355 . S
C659 C661 1.415 . S
C660 C659 1.355 . S
C660 C662 1.419 . S
C661 C656 1.425 . S
C661 C658 1.409 . S
C661 C659 1.415 . S
C662 H652 0.930 . S
C662 C660 1.419 . S
C662 C663 1.362 . S
C663 H653 0.930 . S
C663 C656 1.409 . S
C663 C662 1.362 . S
H664 C670 0.930 . S
H665 C673 0.930 . S
H666 C674 0.930 . S
H667 C675 0.930 . S
H668 C678 0.930 . S
H669 C679 0.930 . S
C670 H664 0.930 . S
C670 C671 1.355 . S
C670 C672 1.415 . S
C671 C670 1.355 . S
C671 C673 1.419 . S
C672 C670 1.415 . S
C672 C677 1.425 . S
C672 C679 1.409 . S
C673 H665 0.930 . S
C673 C671 1.419 . S
C673 C674 1.362 . S
C674 H666 0.930 . S
C674 C673 1.362 . S
C674 C677 1.409 . S
C675 H667 0.930 . S
C675 C676 1.355 . S
C675 C677 1.415 . S
C676 C675 1.355 . S
C676 C678 1.419 . S
C677 C672 1.425 . S
C677 C674 1.409 . S
C677 C675 1.415 . S
C678 H668 0.930 . S
C678 C676 1.419 . S
C678 C679 1.362 . S
C679 H669 0.930 . S
C679 C672 1.409 . S
C679 C678 1.362 . S
H680 C686 0.930 . S
H681 C689 0.930 . S
H682 C690 0.930 . S
H683 C691 0.930 . S
H684 C694 0.930 . S
H685 C695 0.930 . S
C686 H680 0.930 . S
C686 C687 1.355 . S
C686 C688 1.415 . S
C687 C686 1.355 . S
C687 C689 1.419 . S
C688 C686 1.415 . S
C688 C693 1.425 . S
C688 C695 1.409 . S
C689 H681 0.930 . S
C689 C687 1.419 . S
C689 C690 1.362 . S
C690 H682 0.930 . S
C690 C689 1.362 . S
C690 C693 1.409 . S
C691 H683 0.930 . S
C691 C692 1.355 . S
C691 C693 1.415 . S
C692 C691 1.355 . S
C692 C694 1.419 . S
C693 C688 1.425 . S
C693 C690 1.409 . S
C693 C691 1.415 . S
C694 H684 0.930 . S
C694 C692 1.419 . S
C694 C695 1.362 . S
C695 H685 0.930 . S
C695 C688 1.409 . S
C695 C694 1.362 . S
H696 C702 0.930 . S
H697 C705 0.930 . S
H698 C706 0.930 . S
H699 C707 0.930 . S
H700 C710 0.930 . S
H701 C711 0.930 . S
C702 H696 0.930 . S
C702 C703 1.355 . S
C702 C704 1.415 . S
C703 C702 1.355 . S
C703 C705 1.419 . S
C704 C702 1.415 . S
C704 C709 1.425 . S
C704 C711 1.409 . S
C705 H697 0.930 . S
C705 C703 1.419 . S
C705 C706 1.362 . S
C706 H698 0.930 . S
C706 C705 1.362 . S
C706 C709 1.409 . S
C707 H699 0.930 . S
C707 C708 1.355 . S
C707 C709 1.415 . S
C708 C707 1.355 . S
C708 C710 1.419 . S
C709 C704 1.425 . S
C709 C706 1.409 . S
C709 C707 1.415 . S
C710 H700 0.930 . S
C710 C708 1.419 . S
C710 C711 1.362 . S
C711 H701 0.930 . S
C711 C704 1.409 . S
C711 C710 1.362 . S
H712 C718 0.930 . S
H713 C721 0.930 . S
H714 C722 0.930 . S
H715 C723 0.930 . S
H716 C726 0.930 . S
H717 C727 0.930 . S
C718 H712 0.930 . S
C718 C719 1.355 . S
C718 C720 1.415 . S
C719 C718 1.355 . S
C719 C721 1.419 . S
C720 C718 1.415 . S
C720 C725 1.425 . S
C720 C727 1.409 . S
C721 H713 0.930 . S
C721 C719 1.419 . S
C721 C722 1.362 . S
C722 H714 0.930 . S
C722 C721 1.362 . S
C722 C725 1.409 . S
C723 H715 0.930 . S
C723 C724 1.355 . S
C723 C725 1.415 . S
C724 C723 1.355 . S
C724 C726 1.419 . S
C725 C720 1.425 . S
C725 C722 1.409 . S
C725 C723 1.415 . S
C726 H716 0.930 . S
C726 C724 1.419 . S
C726 C727 1.362 . S
C727 H717 0.930 . S
C727 C720 1.409 . S
C727 C726 1.362 . S
C479 C52 1.651 . S
C484 C210 1.653 . S
C495 C33 1.705 . S
C500 C92 1.705 . S
C511 C111 1.681 . S
C516 C151 1.689 . S
C527 C229 1.685 . S
C532 C170 1.696 . S
C543 C288 1.699 . S
C548 C465 1.703 . S
C559 C347 1.653 . S
C564 C269 1.653 . S
C575 C387 1.689 . S
C580 C328 1.689 . S
C591 C446 1.678 . S
C596 C406 1.683 . S
C607 C359 1.614 . S
C612 C5 1.612 . S
C623 C62 1.600 . S
C628 C418 1.597 . S
C639 C239 1.588 . S
C644 C121 1.595 . S
C655 C298 1.614 . S
C660 C182 1.615 . S
C671 C300 1.602 . S
C676 C180 1.613 . S
C687 C3 1.616 . S
C692 C357 1.609 . S
C703 C64 1.613 . S
C708 C416 1.615 . S
C719 C123 1.617 . S
C724 C241 1.601 . S
