# Generated by pormake.
# Topology can, (4)-cn, num edge types: 1
# Building blocks:
#     Node 0, Type 0, BuildingBlock: QUQFOY_clean_sbu_1, # of connection points: 4
#     Node 1, Type 0, BuildingBlock: QUQFOY_clean_sbu_1, # of connection points: 4
#     Node 2, Type 0, BuildingBlock: QUQFOY_clean_sbu_1, # of connection points: 4
#     Node 3, Type 0, BuildingBlock: QUQFOY_clean_sbu_1, # of connection points: 4
#     Node 4, Type 0, BuildingBlock: QUQFOY_clean_sbu_1, # of connection points: 4
#     Node 5, Type 0, BuildingBlock: QUQFOY_clean_sbu_1, # of connection points: 4
#     Node 6, Type 0, BuildingBlock: QUQFOY_clean_sbu_1, # of connection points: 4
#     Node 7, Type 0, BuildingBlock: QUQFOY_clean_sbu_1, # of connection points: 4
#     Node 8, Type 0, BuildingBlock: QUQFOY_clean_sbu_1, # of connection points: 4
#     Node 9, Type 0, BuildingBlock: QUQFOY_clean_sbu_1, # of connection points: 4
#     Node 10, Type 0, BuildingBlock: QUQFOY_clean_sbu_1, # of connection points: 4
#     Node 11, Type 0, BuildingBlock: QUQFOY_clean_sbu_1, # of connection points: 4
#     Edge 12, Type (0, 0), BuildingBlock: XUDNAN_clean_linker_2, # of connection points: 2
#     Edge 13, Type (0, 0), BuildingBlock: XUDNAN_clean_linker_2, # of connection points: 2
#     Edge 14, Type (0, 0), BuildingBlock: XUDNAN_clean_linker_2, # of connection points: 2
#     Edge 15, Type (0, 0), BuildingBlock: XUDNAN_clean_linker_2, # of connection points: 2
#     Edge 16, Type (0, 0), BuildingBlock: XUDNAN_clean_linker_2, # of connection points: 2
#     Edge 17, Type (0, 0), BuildingBlock: XUDNAN_clean_linker_2, # of connection points: 2
#     Edge 18, Type (0, 0), BuildingBlock: XUDNAN_clean_linker_2, # of connection points: 2
#     Edge 19, Type (0, 0), BuildingBlock: XUDNAN_clean_linker_2, # of connection points: 2
#     Edge 20, Type (0, 0), BuildingBlock: XUDNAN_clean_linker_2, # of connection points: 2
#     Edge 21, Type (0, 0), BuildingBlock: XUDNAN_clean_linker_2, # of connection points: 2
#     Edge 22, Type (0, 0), BuildingBlock: XUDNAN_clean_linker_2, # of connection points: 2
#     Edge 23, Type (0, 0), BuildingBlock: XUDNAN_clean_linker_2, # of connection points: 2
#     Edge 24, Type (0, 0), BuildingBlock: XUDNAN_clean_linker_2, # of connection points: 2
#     Edge 25, Type (0, 0), BuildingBlock: XUDNAN_clean_linker_2, # of connection points: 2
#     Edge 26, Type (0, 0), BuildingBlock: XUDNAN_clean_linker_2, # of connection points: 2
#     Edge 27, Type (0, 0), BuildingBlock: XUDNAN_clean_linker_2, # of connection points: 2
#     Edge 28, Type (0, 0), BuildingBlock: XUDNAN_clean_linker_2, # of connection points: 2
#     Edge 29, Type (0, 0), BuildingBlock: XUDNAN_clean_linker_2, # of connection points: 2
#     Edge 30, Type (0, 0), BuildingBlock: XUDNAN_clean_linker_2, # of connection points: 2
#     Edge 31, Type (0, 0), BuildingBlock: XUDNAN_clean_linker_2, # of connection points: 2
#     Edge 32, Type (0, 0), BuildingBlock: XUDNAN_clean_linker_2, # of connection points: 2
#     Edge 33, Type (0, 0), BuildingBlock: XUDNAN_clean_linker_2, # of connection points: 2
#     Edge 34, Type (0, 0), BuildingBlock: XUDNAN_clean_linker_2, # of connection points: 2
#     Edge 35, Type (0, 0), BuildingBlock: XUDNAN_clean_linker_2, # of connection points: 2
# Relax obj value: 0.074
# Max RMSD: 0.097
# Mean RMSD: 0.097
data_MOF--net-can--node1-QUQFOY_clean_sbu_1--edge1-XUDNAN_clean_linker_2
_symmetry_space_group_name_H-M    P1
_symmetry_Int_Tables_number       1
_symmetry_cell_setting            triclinic
loop_
_symmetry_equiv_pos_as_xyz
'x, y, z'
_cell_length_a     57.842709
_cell_length_b     57.741897
_cell_length_c     28.293391
_cell_angle_alpha  90.018626
_cell_angle_beta   89.931244
_cell_angle_gamma 120.07388
loop_
_atom_site_label
_atom_site_type_symbol
_atom_site_fract_x
_atom_site_fract_y
_atom_site_fract_z
_atom_type_partial_charge
O0 O 0.05626 0.38153 0.18056 0.0
Cd1 Cd 0.07852 0.40347 0.23754 0.0
Cd2 Cd 0.02462 0.38402 0.26817 0.0
O3 O 0.01444 0.36357 0.20424 0.0
O4 O 0.1141 0.41647 0.20773 0.0
O5 O 0.10158 0.39164 0.27223 0.0
C6 C 0.11913 0.40373 0.23948 0.0
C7 C 0.00832 0.36293 0.34104 0.0
C8 C 0.03147 0.36665 0.17276 0.0
C9 C 0.06077 0.44349 0.26225 0.0
O10 O 0.03685 0.4243 0.26618 0.0
O11 O 0.07977 0.43895 0.25408 0.0
O12 O 0.99318 0.3662 0.31156 0.0
O13 O 0.03263 0.37073 0.32844 0.0
O14 O 0.67025 0.05624 0.6914 0.0
Cd15 Cd 0.66499 0.07605 0.74722 0.0
Cd16 Cd 0.64519 0.0255 0.78191 0.0
O17 O 0.6591 0.01669 0.72113 0.0
O18 O 0.68336 0.11261 0.71955 0.0
O19 O 0.69782 0.1023 0.78394 0.0
C20 C 0.70138 0.11957 0.75163 0.0
C21 C 0.65822 0.02342 0.85881 0.0
C22 C 0.66785 0.03325 0.68704 0.0
C23 C 0.60655 0.04531 0.76945 0.0
O24 O 0.60969 0.02526 0.77566 0.0
O25 O 0.62659 0.06837 0.76151 0.0
O26 O 0.64175 0.00194 0.83623 0.0
O27 O 0.66855 0.04598 0.83638 0.0
O28 O 0.61538 0.67629 0.19205 0.0
Cd29 Cd 0.59216 0.67568 0.24762 0.0
Cd30 Cd 0.61205 0.64349 0.27942 0.0
O31 O 0.63382 0.65318 0.21723 0.0
O32 O 0.5797 0.69863 0.21772 0.0
O33 O 0.60333 0.71009 0.28355 0.0
C34 C 0.59193 0.71603 0.25032 0.0
C35 C 0.63035 0.65604 0.35469 0.0
C36 C 0.63086 0.66698 0.18534 0.0
C37 C 0.55283 0.61761 0.27059 0.0
O38 O 0.5725 0.61383 0.27616 0.0
O39 O 0.55667 0.64091 0.26197 0.0
O40 O 0.62979 0.63604 0.33306 0.0
O41 O 0.6217 0.66974 0.3323 0.0
O42 O 0.94145 0.61958 0.68988 0.0
Cd43 Cd 0.92361 0.5987 0.75067 0.0
Cd44 Cd 0.97518 0.61567 0.77242 0.0
O45 O 0.98378 0.63603 0.70858 0.0
O46 O 0.88619 0.5899 0.73922 0.0
O47 O 0.90977 0.61362 0.80068 0.0
C48 C 0.88778 0.60308 0.77691 0.0
C49 C 0.99034 0.63662 0.84533 0.0
C50 C 0.96602 0.63364 0.67936 0.0
C51 C 0.93938 0.5567 0.76597 0.0
O52 O 0.96347 0.57554 0.76958 0.0
O53 O 0.92066 0.56191 0.76033 0.0
O54 O 0.00622 0.63427 0.81615 0.0
O55 O 0.96593 0.62796 0.83232 0.0
O56 O 0.32382 0.94998 0.1942 0.0
Cd57 Cd 0.32451 0.92592 0.24735 0.0
Cd58 Cd 0.35826 0.97776 0.28181 0.0
O59 O 0.34972 0.99112 0.22017 0.0
O60 O 0.30139 0.89111 0.21543 0.0
O61 O 0.29034 0.90177 0.28334 0.0
C62 C 0.28429 0.88506 0.2489 0.0
C63 C 0.34567 0.98428 0.35658 0.0
C64 C 0.33461 0.97509 0.18849 0.0
C65 C 0.38237 0.94297 0.27028 0.0
O66 O 0.38687 0.96652 0.2785 0.0
O67 O 0.35899 0.92434 0.25971 0.0
O68 O 0.36645 0.00311 0.33553 0.0
O69 O 0.33143 0.96201 0.33409 0.0
O70 O 0.38684 0.32547 0.68149 0.0
Cd71 Cd 0.40995 0.32667 0.73753 0.0
Cd72 Cd 0.39111 0.35709 0.77685 0.0
O73 O 0.36781 0.34595 0.71597 0.0
O74 O 0.41829 0.29795 0.72275 0.0
O75 O 0.39705 0.29828 0.78775 0.0
C76 C 0.40698 0.28684 0.76214 0.0
C77 C 0.37174 0.35207 0.85172 0.0
C78 C 0.37054 0.33411 0.68026 0.0
C79 C 0.45022 0.38385 0.7586 0.0
O80 O 0.43079 0.38705 0.77056 0.0
O81 O 0.44612 0.36097 0.74608 0.0
O82 O 0.37375 0.37013 0.82251 0.0
O83 O 0.38017 0.33623 0.83812 0.0
O84 O 0.61273 0.94386 0.36568 0.0
Cd85 Cd 0.59009 0.92213 0.30899 0.0
Cd86 Cd 0.60974 0.97156 0.27 0.0
O87 O 0.63254 0.98341 0.33121 0.0
O88 O 0.58203 0.88512 0.32318 0.0
O89 O 0.60473 0.90779 0.25995 0.0
C90 C 0.59473 0.88619 0.28505 0.0
C91 C 0.63059 0.98674 0.19654 0.0
C92 C 0.62948 0.96875 0.3669 0.0
C93 C 0.55025 0.93899 0.28512 0.0
O94 O 0.57 0.96175 0.27435 0.0
O95 O 0.55398 0.92003 0.298 0.0
O96 O 0.62771 0.0024 0.2254 0.0
O97 O 0.62198 0.96232 0.20964 0.0
O98 O 0.66983 0.61373 0.86363 0.0
Cd99 Cd 0.67471 0.5937 0.80813 0.0
Cd100 Cd 0.64541 0.61448 0.76429 0.0
O101 O 0.65435 0.63659 0.82618 0.0
O102 O 0.69821 0.58243 0.83959 0.0
O103 O 0.71074 0.60856 0.77653 0.0
C104 C 0.71644 0.59666 0.80927 0.0
C105 C 0.65114 0.63537 0.69089 0.0
C106 C 0.66272 0.63124 0.86382 0.0
C107 C 0.61957 0.55466 0.77382 0.0
O108 O 0.61603 0.57443 0.76674 0.0
O109 O 0.64224 0.55838 0.78657 0.0
O110 O 0.63235 0.63208 0.71942 0.0
O111 O 0.66734 0.62739 0.70442 0.0
O112 O 0.05756 0.67158 0.35717 0.0
Cd113 Cd 0.08144 0.67246 0.30256 0.0
Cd114 Cd 0.03318 0.64274 0.26042 0.0
O115 O 0.01875 0.65225 0.32022 0.0
O116 O 0.11796 0.70206 0.31923 0.0
O117 O 0.09625 0.70211 0.25489 0.0
C118 C 0.1173 0.71391 0.28107 0.0
C119 C 0.02816 0.65434 0.18353 0.0
C120 C 0.03262 0.66314 0.35707 0.0
C121 C 0.06541 0.6159 0.27823 0.0
O122 O 0.04278 0.61279 0.26659 0.0
O123 O 0.08418 0.6387 0.29129 0.0
O124 O 0.00863 0.63432 0.20493 0.0
O125 O 0.05009 0.6684 0.20674 0.0
O126 O 0.39294 0.0616 0.86626 0.0
Cd127 Cd 0.41502 0.08257 0.80848 0.0
Cd128 Cd 0.38137 0.03524 0.76672 0.0
O129 O 0.35982 0.02788 0.82896 0.0
O130 O 0.43234 0.11977 0.83293 0.0
O131 O 0.4041 0.10569 0.77268 0.0
C132 C 0.41866 0.1244 0.80235 0.0
C133 C 0.36016 0.02373 0.69305 0.0
C134 C 0.37011 0.04061 0.86702 0.0
C135 C 0.43989 0.05184 0.77537 0.0
O136 O 0.41594 0.03303 0.76945 0.0
O137 O 0.4447 0.07514 0.78678 0.0
O138 O 0.35742 0.00574 0.72305 0.0
O139 O 0.3741 0.04853 0.70557 0.0
O140 O 0.32362 0.38025 0.35194 0.0
Cd141 Cd 0.32647 0.40376 0.2951 0.0
Cd142 Cd 0.36052 0.38647 0.26686 0.0
O143 O 0.34933 0.36421 0.32898 0.0
O144 O 0.29797 0.41251 0.31006 0.0
O145 O 0.29767 0.3908 0.24551 0.0
C146 C 0.28637 0.40073 0.27135 0.0
C147 C 0.34968 0.36932 0.19027 0.0
C148 C 0.33403 0.36577 0.35965 0.0
C149 C 0.38452 0.44541 0.27989 0.0
O150 O 0.3892 0.4264 0.27249 0.0
O151 O 0.36082 0.44048 0.28768 0.0
O152 O 0.36935 0.36974 0.21272 0.0
O153 O 0.33537 0.37728 0.21255 0.0
O154 O 0.9363 0.32494 0.85294 0.0
Cd155 Cd 0.9126 0.32511 0.79897 0.0
Cd156 Cd 0.96093 0.35373 0.75568 0.0
O157 O 0.97505 0.34396 0.81562 0.0
O158 O 0.87575 0.29711 0.81764 0.0
O159 O 0.89523 0.29555 0.75125 0.0
C160 C 0.87461 0.28501 0.77872 0.0
C161 C 0.96632 0.34255 0.67851 0.0
C162 C 0.96119 0.33316 0.8526 0.0
C163 C 0.93034 0.38214 0.77485 0.0
O164 O 0.95249 0.38449 0.76192 0.0
O165 O 0.91136 0.3597 0.78887 0.0
O166 O 0.98585 0.36214 0.70066 0.0
O167 O 0.94412 0.32855 0.70117 0.0
H168 H 0.98214 0.347 0.13063 0.0
H169 H 0.06224 0.36108 0.10575 0.0
H170 H 0.05121 0.34888 1.02211 0.0
H171 H 0.94739 0.29034 0.04433 0.0
H172 H 0.92469 0.30153 0.02654 0.0
H173 H 0.93749 0.30736 0.08606 0.0
H174 H 0.95497 0.35808 0.07591 0.0
H175 H 0.94244 0.35246 1.0164 0.0
H176 H 0.97722 0.37584 0.02758 0.0
H177 H 0.03405 0.342 0.93919 0.0
H178 H 0.01085 0.33854 0.86386 0.0
H179 H 0.94154 0.32755 0.94233 0.0
C180 C 0.99705 0.34666 0.10794 0.0
C181 C 0.02302 0.35492 0.12489 0.0
C182 C 0.04219 0.35482 0.09368 0.0
C183 C 0.03611 0.34785 0.04604 0.0
C184 C 0.01067 0.34075 0.03 0.0
C185 C 0.99131 0.33975 0.06008 0.0
C186 C 0.96629 0.33364 0.033 0.0
C187 C 0.94256 0.3066 0.0484 0.0
C188 C 0.95988 0.35636 0.03856 0.0
C189 C 0.97499 0.3323 0.98298 0.0
C190 C 0.00059 0.33627 0.98201 0.0
C191 C 0.01376 0.33826 0.93952 0.0
C192 C 0.00048 0.33637 0.8969 0.0
C193 C 0.97428 0.33242 0.89713 0.0
C194 C 0.96133 0.32994 0.94088 0.0
H195 H 0.61802 0.94662 0.45537 0.0
H196 H 0.67327 0.01864 0.37909 0.0
H197 H 0.69458 0.04032 0.45451 0.0
H198 H 0.60604 0.9786 0.54591 0.0
H199 H 0.60334 0.95581 0.59199 0.0
H200 H 0.59582 0.94431 0.53195 0.0
H201 H 0.63064 0.92864 0.53574 0.0
H202 H 0.63834 0.9402 0.59598 0.0
H203 H 0.6646 0.9521 0.5524 0.0
H204 H 0.70549 0.05621 0.53745 0.0
H205 H 0.70387 0.06599 0.62181 0.0
H206 H 0.64158 0.98382 0.64519 0.0
C207 C 0.63512 0.96668 0.45435 0.0
C208 C 0.64416 0.98087 0.41126 0.0
C209 C 0.6661 0.00735 0.41162 0.0
C210 C 0.67843 0.01976 0.45428 0.0
C211 C 0.66864 0.0054 0.49624 0.0
C212 C 0.64748 0.97942 0.49663 0.0
C213 C 0.63865 0.96954 0.5467 0.0
C214 C 0.60924 0.96162 0.55457 0.0
C215 C 0.64335 0.94624 0.55839 0.0
C216 C 0.65743 0.99441 0.57441 0.0
C217 C 0.67491 0.01468 0.5446 0.0
C218 C 0.69232 0.04035 0.56123 0.0
C219 C 0.69124 0.04572 0.60919 0.0
C220 C 0.67285 0.02555 0.64002 0.0
C221 C 0.65637 0.99936 0.62267 0.0
H222 H 0.64859 0.63596 0.14234 0.0
H223 H 0.63953 0.7054 0.12072 0.0
H224 H 0.65165 0.70681 0.03692 0.0
H225 H 0.70475 0.65562 0.05498 0.0
H226 H 0.69148 0.62143 0.03625 0.0
H227 H 0.68666 0.62865 0.09627 0.0
H228 H 0.63554 0.59782 0.08665 0.0
H229 H 0.64014 0.59078 0.02658 0.0
H230 H 0.61855 0.60414 0.03936 0.0
H231 H 0.65736 0.69646 0.95354 0.0
H232 H 0.65948 0.67666 0.87726 0.0
H233 H 0.66581 0.61464 0.95279 0.0
C234 C 0.65015 0.65204 0.12036 0.0
C235 C 0.64323 0.67062 0.13812 0.0
C236 C 0.64477 0.69094 0.1079 0.0
C237 C 0.65169 0.69197 0.06021 0.0
C238 C 0.65726 0.67267 0.04323 0.0
C239 C 0.65697 0.65331 0.07247 0.0
C240 C 0.66136 0.63349 0.04438 0.0
C241 C 0.68763 0.63489 0.05883 0.0
C242 C 0.63747 0.60488 0.04956 0.0
C243 C 0.66313 0.64418 0.99481 0.0
C244 C 0.66093 0.66691 0.9949 0.0
C245 C 0.65972 0.67901 0.95302 0.0
C246 C 0.66077 0.66756 0.90987 0.0
C247 C 0.66307 0.64429 0.90903 0.0
C248 C 0.66457 0.63274 0.95219 0.0
H249 H 0.05329 0.67121 0.44619 0.0
H250 H 0.98222 0.65595 0.36897 0.0
H251 H 0.95949 0.65319 0.44464 0.0
H252 H 0.02009 0.62443 0.5336 0.0
H253 H 0.04246 0.64353 0.58084 0.0
H254 H 0.05447 0.64871 0.52097 0.0
H255 H 0.07028 0.69925 0.52807 0.0
H256 H 0.05829 0.69421 0.58815 0.0
H257 H 0.04683 0.70955 0.54579 0.0
H258 H 0.94314 0.64745 0.52832 0.0
H259 H 0.93337 0.63659 0.61278 0.0
H260 H 0.01489 0.65438 0.63538 0.0
C261 C 0.03318 0.66802 0.44501 0.0
C262 C 0.01961 0.6641 0.40158 0.0
C263 C 0.99306 0.65919 0.40177 0.0
C264 C 0.98005 0.65772 0.44457 0.0
C265 C 0.99387 0.66116 0.48679 0.0
C266 C 0.01985 0.66618 0.4873 0.0
C267 C 0.02931 0.66619 0.53724 0.0
C268 C 0.03702 0.64442 0.5435 0.0
C269 C 0.05256 0.69396 0.55059 0.0
C270 C 0.0043 0.6596 0.5648 0.0
C271 C 0.98426 0.65726 0.53511 0.0
C272 C 0.95878 0.64956 0.55194 0.0
C273 C 0.95344 0.64339 0.60005 0.0
C274 C 0.97339 0.64469 0.63085 0.0
C275 C 0.99934 0.65359 0.61301 0.0
H276 H 0.39005 0.05993 0.95492 0.0
H277 H 0.32022 0.99727 0.88355 0.0
H278 H 0.30031 0.97751 0.961 0.0
H279 H 0.39521 0.01932 0.03752 0.0
H280 H 0.40614 0.04305 0.08544 0.0
H281 H 0.41276 0.05474 0.0254 0.0
H282 H 0.38881 0.08191 0.03962 0.0
H283 H 0.3821 0.07027 0.09992 0.0
H284 H 0.35502 0.06516 0.06172 0.0
H285 H 0.29093 0.96131 0.0445 0.0
H286 H 0.29312 0.94917 0.12724 0.0
H287 H 0.36903 0.02247 0.14457 0.0
C288 C 0.37025 0.04244 0.95547 0.0
C289 C 0.35662 0.03023 0.91308 0.0
C290 C 0.33099 0.00706 0.9155 0.0
C291 C 0.31948 0.99577 0.95936 0.0
C292 C 0.33377 0.00799 1.0004 0.0
C293 C 0.35857 0.0309 0.99882 0.0
C294 C 0.37106 0.03856 0.04751 0.0
C295 C 0.39786 0.03892 0.04903 0.0
C296 C 0.37444 0.06558 0.06311 0.0
C297 C 0.34988 0.01579 0.0766 0.0
C298 C 0.32834 0.99862 0.04885 0.0
C299 C 0.30742 0.97487 0.06674 0.0
C300 C 0.30888 0.96812 0.11377 0.0
C301 C 0.33113 0.98503 0.14242 0.0
C302 C 0.35148 0.00952 0.12389 0.0
H303 H 0.36425 0.34693 0.40216 0.0
H304 H 0.29607 0.35779 0.4251 0.0
H305 H 0.29459 0.34532 0.50868 0.0
H306 H 0.34345 0.2901 0.48868 0.0
H307 H 0.37749 0.30253 0.50708 0.0
H308 H 0.37043 0.30784 0.44729 0.0
H309 H 0.4022 0.35887 0.45735 0.0
H310 H 0.40916 0.35377 0.51714 0.0
H311 H 0.3966 0.37613 0.50518 0.0
H312 H 0.30508 0.33942 0.5919 0.0
H313 H 0.32522 0.33741 0.66778 0.0
H314 H 0.38546 0.32873 0.59115 0.0
C315 C 0.34842 0.34573 0.42435 0.0
C316 C 0.33023 0.35325 0.40693 0.0
C317 C 0.31023 0.35209 0.43752 0.0
C318 C 0.30916 0.34497 0.48513 0.0
C319 C 0.32805 0.33875 0.50171 0.0
C320 C 0.34706 0.33864 0.47214 0.0
C321 C 0.36648 0.33351 0.4998 0.0
C322 C 0.36432 0.30691 0.48482 0.0
C323 C 0.3953 0.35697 0.49455 0.0
C324 C 0.35604 0.33184 0.54959 0.0
C325 C 0.33373 0.33472 0.54992 0.0
C326 C 0.32214 0.33647 0.59207 0.0
C327 C 0.33376 0.33543 0.63499 0.0
C328 C 0.35664 0.33252 0.63541 0.0
C329 C 0.36755 0.33027 0.59204 0.0
H330 H 0.9615 0.62116 0.92752 0.0
H331 H 0.04046 0.67494 0.87153 0.0
H332 H 0.05743 0.68934 0.95272 0.0
H333 H 0.96426 0.66194 0.03151 0.0
H334 H 0.94716 0.63293 0.06903 0.0
H335 H 0.94023 0.63011 1.00654 0.0
H336 H 0.95174 0.59224 1.00054 0.0
H337 H 0.95877 0.59499 0.06284 0.0
H338 H 0.98379 0.59828 1.02105 0.0
H339 H 0.06662 0.69529 0.03976 0.0
H340 H 0.06826 0.69007 0.12602 0.0
H341 H 0.98392 0.63023 0.12593 0.0
C342 C 0.98215 0.63656 0.93241 0.0
C343 C 0.99961 0.64737 0.89334 0.0
C344 C 0.02675 0.66668 0.90105 0.0
C345 C 0.03652 0.67502 0.94699 0.0
C346 C 0.01896 0.6636 0.98491 0.0
C347 C 0.99237 0.64466 0.97816 0.0
C348 C 0.97846 0.63328 0.02498 0.0
C349 C 0.95621 0.63998 0.03351 0.0
C350 C 0.96756 0.60291 0.02748 0.0
C351 C 0.0015 0.64836 0.059 0.0
C352 C 0.02454 0.66613 0.03521 0.0
C353 C 0.04865 0.6816 0.05881 0.0
C354 C 0.04937 0.6785 0.10788 0.0
C355 C 0.02623 0.65977 0.13285 0.0
C356 C 0.00192 0.64484 0.10798 0.0
H357 H 0.37275 0.02831 0.41372 0.0
H358 H 0.30525 0.94724 0.41232 0.0
H359 H 0.29827 0.95072 0.49752 0.0
H360 H 0.39893 0.02383 0.52089 0.0
H361 H 0.40944 0.05742 0.54023 0.0
H362 H 0.40696 0.04994 0.47812 0.0
H363 H 0.37486 0.06862 0.46732 0.0
H364 H 0.37729 0.07623 0.52954 0.0
H365 H 0.34503 0.05549 0.50289 0.0
H366 H 0.30251 0.96063 0.58428 0.0
H367 H 0.31677 0.9768 0.66581 0.0
H368 H 0.38035 0.0521 0.61106 0.0
C369 C 0.35609 0.0115 0.43104 0.0
C370 C 0.33947 0.98751 0.40621 0.0
C371 C 0.31816 0.96586 0.43044 0.0
C372 C 0.31401 0.96767 0.47887 0.0
C373 C 0.33114 0.99137 0.50252 0.0
C374 C 0.3516 0.01302 0.47933 0.0
C375 C 0.36835 0.03548 0.51356 0.0
C376 C 0.39764 0.04203 0.51317 0.0
C377 C 0.36625 0.06043 0.50267 0.0
C378 C 0.3547 0.02274 0.55988 0.0
C379 C 0.33316 0.99735 0.55265 0.0
C380 C 0.31894 0.98069 0.5903 0.0
C381 C 0.32721 0.99002 0.63647 0.0
C382 C 0.34935 0.01585 0.64468 0.0
C383 C 0.36287 0.03258 0.60581 0.0
H384 H 0.3875 0.33931 0.9345 0.0
H385 H 0.3328 0.36287 0.8775 0.0
H386 H 0.31749 0.36465 0.95832 0.0
H387 H 0.3463 0.29997 0.03692 0.0
H388 H 0.37482 0.31226 0.07553 0.0
H389 H 0.37864 0.30888 1.01309 0.0
H390 H 0.41553 0.3588 1.00891 0.0
H391 H 0.41181 0.36233 0.0712 0.0
H392 H 0.40835 0.38406 0.02968 0.0
H393 H 0.31027 0.36687 0.04507 0.0
H394 H 0.31409 0.3729 0.13154 0.0
H395 H 0.3755 0.35064 0.13323 0.0
C396 C 0.37178 0.34412 0.9391 0.0
C397 C 0.36095 0.35051 0.8998 0.0
C398 C 0.34114 0.35767 0.90717 0.0
C399 C 0.33226 0.35863 0.95291 0.0
C400 C 0.34364 0.3527 0.99105 0.0
C401 C 0.36311 0.34576 0.98473 0.0
C402 C 0.3741 0.34318 0.03191 0.0
C403 C 0.3681 0.31435 0.03982 0.0
C404 C 0.40423 0.3633 0.03563 0.0
C405 C 0.35813 0.35024 0.06563 0.0
C406 C 0.34032 0.35514 0.04131 0.0
C407 C 0.32401 0.36289 0.06452 0.0
C408 C 0.32631 0.36623 0.11374 0.0
C409 C 0.34505 0.3622 0.13934 0.0
C410 C 0.36084 0.35368 0.11482 0.0
H411 H 0.01125 0.36652 0.6223 0.0
H412 H 0.92648 0.30821 0.61915 0.0
H413 H 0.92899 0.30399 0.53275 0.0
H414 H 0.01338 0.40011 0.51881 0.0
H415 H 0.04541 0.40575 0.49893 0.0
H416 H 0.03767 0.4022 0.56103 0.0
H417 H 0.04797 0.36348 0.5664 0.0
H418 H 0.05586 0.36699 0.50422 0.0
H419 H 0.03095 0.33506 0.5276 0.0
H420 H 0.93932 0.31067 0.44596 0.0
H421 H 0.95752 0.32543 0.36547 0.0
H422 H 0.03613 0.37719 0.42446 0.0
C423 C 0.99332 0.35244 0.6036 0.0
C424 C 0.96865 0.33765 0.62764 0.0
C425 C 0.94563 0.31964 0.60169 0.0
C426 C 0.94685 0.31711 0.55252 0.0
C427 C 0.97133 0.33242 0.52978 0.0
C428 C 0.99425 0.34945 0.55452 0.0
C429 C 0.01778 0.36453 0.52128 0.0
C430 C 0.02922 0.39494 0.52526 0.0
C431 C 0.03942 0.35706 0.53042 0.0
C432 C 0.00433 0.35394 0.4739 0.0
C433 C 0.97752 0.33542 0.47964 0.0
C434 C 0.9604 0.32466 0.44104 0.0
C435 C 0.97088 0.33319 0.39549 0.0
C436 C 0.99828 0.35202 0.38878 0.0
C437 C 0.01526 0.36217 0.42853 0.0
H438 H 0.63712 0.97926 0.91662 0.0
H439 H 0.689 0.06554 0.91749 0.0
H440 H 0.69131 0.06476 1.00452 0.0
H441 H 0.59903 0.9755 1.01334 0.0
H442 H 0.59535 0.94487 0.03709 0.0
H443 H 0.60072 0.95153 0.97476 0.0
H444 H 0.64215 0.94549 0.97813 0.0
H445 H 0.63678 0.93858 0.04055 0.0
H446 H 0.66858 0.96497 1.01946 0.0
H447 H 0.68269 0.05553 0.09112 0.0
H448 H 0.66594 0.03814 0.1712 0.0
H449 H 0.62104 0.95761 0.11488 0.0
C450 C 0.64957 0.99792 0.93498 0.0
C451 C 0.66298 0.02247 0.91011 0.0
C452 C 0.67869 0.04647 0.93563 0.0
C453 C 0.68012 0.04623 0.98513 0.0
C454 C 0.66599 0.0218 1.00863 0.0
C455 C 0.65131 0.99801 0.98439 0.0
C456 C 0.6365 0.97472 1.01822 0.0
C457 C 0.60611 0.96086 1.01037 0.0
C458 C 0.64662 0.95476 1.01382 0.0
C459 C 0.64442 0.98924 0.06523 0.0
C460 C 0.66155 0.01638 0.05887 0.0
C461 C 0.66976 0.03426 0.09662 0.0
C462 C 0.66006 0.02422 0.14194 0.0
C463 C 0.6425 0.99651 0.14928 0.0
C464 C 0.63496 0.9788 0.11046 0.0
H465 H 0.65137 0.63208 0.41032 0.0
H466 H 0.62665 0.69172 0.41346 0.0
H467 H 0.63407 0.69641 0.49964 0.0
H468 H 0.61985 0.59934 0.51341 0.0
H469 H 0.64567 0.59288 0.53338 0.0
H470 H 0.64178 0.59662 0.47128 0.0
H471 H 0.69118 0.63453 0.46598 0.0
H472 H 0.69529 0.63082 0.52817 0.0
H473 H 0.70316 0.663 0.50483 0.0
H474 H 0.6374 0.68957 0.58621 0.0
H475 H 0.63965 0.67406 0.66662 0.0
H476 H 0.66486 0.62092 0.60783 0.0
C477 C 0.64814 0.64662 0.42893 0.0
C478 C 0.63848 0.66159 0.40502 0.0
C479 C 0.63421 0.68015 0.43084 0.0
C480 C 0.63836 0.68295 0.47987 0.0
C481 C 0.64719 0.66736 0.50254 0.0
C482 C 0.65244 0.64985 0.47785 0.0
C483 C 0.66027 0.6343 0.51105 0.0
C484 C 0.64072 0.604 0.50703 0.0
C485 C 0.6892 0.64108 0.50196 0.0
C486 C 0.65767 0.6451 0.5584 0.0
C487 C 0.65015 0.66421 0.55264 0.0
C488 C 0.64393 0.67515 0.59116 0.0
C489 C 0.64519 0.66619 0.63665 0.0
C490 C 0.65292 0.64673 0.64335 0.0
C491 C 0.65968 0.63643 0.60373 0.0
H492 H 0.02808 0.56256 0.26817 0.0
H493 H 0.11319 0.61719 0.28554 0.0
H494 H 0.12111 0.57902 0.28379 0.0
H495 H 0.02471 0.51022 0.34221 0.0
H496 H 0.00039 0.48351 0.30576 0.0
H497 H 0.00135 0.51516 0.30768 0.0
H498 H 0.00651 0.5191 0.21656 0.0
H499 H 0.00552 0.48744 0.21435 0.0
H500 H 0.03335 0.51678 0.1888 0.0
H501 H 0.11998 0.5352 0.27875 0.0
H502 H 0.10977 0.48839 0.27282 0.0
H503 H 0.02525 0.46201 0.26115 0.0
C504 C 0.0484 0.56652 0.27146 0.0
C505 C 0.07003 0.5929 0.27686 0.0
C506 C 0.09629 0.59718 0.28142 0.0
C507 C 0.10101 0.57563 0.28043 0.0
C508 C 0.07925 0.54991 0.27517 0.0
C509 C 0.05346 0.54522 0.27096 0.0
C510 C 0.03361 0.51558 0.26629 0.0
C511 C 0.01385 0.50554 0.30797 0.0
C512 C 0.01888 0.50937 0.21867 0.0
C513 C 0.05231 0.50437 0.2683 0.0
C514 C 0.07855 0.52453 0.27326 0.0
C515 C 0.0995 0.51921 0.27504 0.0
C516 C 0.09348 0.49255 0.27157 0.0
C517 C 0.0667 0.4715 0.26667 0.0
C518 C 0.0459 0.4776 0.26523 0.0
H519 H 0.49413 0.08748 0.7773 0.0
H520 H 0.43565 0.00288 0.76429 0.0
H521 H 0.47195 0.9924 0.76134 0.0
H522 H 0.54315 0.0867 0.69765 0.0
H523 H 0.57133 0.11048 0.73204 0.0
H524 H 0.54074 0.11156 0.73248 0.0
H525 H 0.53896 0.10768 0.8238 0.0
H526 H 0.56946 0.10645 0.82363 0.0
H527 H 0.53992 0.08004 0.85141 0.0
H528 H 0.51395 0.9906 0.76345 0.0
H529 H 0.55965 0.99783 0.7652 0.0
H530 H 0.59152 0.08368 0.77421 0.0
C531 C 0.48896 0.06677 0.77358 0.0
C532 C 0.46199 0.04601 0.77112 0.0
C533 C 0.45611 0.01916 0.76616 0.0
C534 C 0.4766 0.01297 0.76455 0.0
C535 C 0.50289 0.03383 0.76757 0.0
C536 C 0.50921 0.06021 0.77152 0.0
C537 C 0.53921 0.07877 0.77391 0.0
C538 C 0.54919 0.09801 0.73149 0.0
C539 C 0.54736 0.09414 0.82099 0.0
C540 C 0.54869 0.05863 0.77107 0.0
C541 C 0.52735 0.03283 0.76769 0.0
C542 C 0.53086 0.01071 0.76577 0.0
C543 C 0.55693 0.01505 0.76698 0.0
C544 C 0.57921 0.04132 0.76972 0.0
C545 C 0.57493 0.06337 0.77181 0.0
H546 H 0.53652 0.56397 0.27268 0.0
H547 H 0.50652 0.61949 0.27465 0.0
H548 H 0.46035 0.58149 0.27812 0.0
H549 H 0.4852 0.51508 0.19821 0.0
H550 H 0.48352 0.48684 0.22859 0.0
H551 H 0.51433 0.51841 0.2277 0.0
H552 H 0.51576 0.51848 0.31925 0.0
H553 H 0.48497 0.48688 0.32043 0.0
H554 H 0.48758 0.51512 0.35235 0.0
H555 H 0.41753 0.53765 0.28139 0.0
H556 H 0.38076 0.49079 0.28241 0.0
H557 H 0.43851 0.46368 0.27638 0.0
C558 C 0.52027 0.56817 0.27412 0.0
C559 C 0.52517 0.59475 0.27355 0.0
C560 C 0.50329 0.59933 0.27503 0.0
C561 C 0.47698 0.57788 0.27707 0.0
C562 C 0.47286 0.55196 0.27738 0.0
C563 C 0.49386 0.54699 0.27581 0.0
C564 C 0.48391 0.51721 0.27551 0.0
C565 C 0.49223 0.50891 0.22977 0.0
C566 C 0.49363 0.50894 0.31951 0.0
C567 C 0.45402 0.50623 0.27716 0.0
C568 C 0.4481 0.52663 0.27844 0.0
C569 C 0.4219 0.52149 0.28036 0.0
C570 C 0.40115 0.49479 0.28097 0.0
C571 C 0.40671 0.47351 0.2794 0.0
C572 C 0.43356 0.47945 0.27743 0.0
H573 H 0.97401 0.53711 0.76169 0.0
H574 H 0.88993 0.51235 0.77529 0.0
H575 H 0.87868 0.46519 0.77888 0.0
H576 H 0.96447 0.48258 0.68684 0.0
H577 H 0.99102 0.47939 0.71354 0.0
H578 H 0.99268 0.51138 0.71281 0.0
H579 H 0.99801 0.5145 0.80391 0.0
H580 H 0.99641 0.48254 0.80491 0.0
H581 H 0.97348 0.48779 0.84021 0.0
H582 H 0.87644 0.42095 0.78228 0.0
H583 H 0.88324 0.38209 0.78301 0.0
H584 H 0.96861 0.43522 0.76483 0.0
C585 C 0.95325 0.52178 0.76557 0.0
C586 C 0.93286 0.52846 0.76832 0.0
C587 C 0.9059 0.50776 0.77303 0.0
C588 C 0.89929 0.4809 0.77517 0.0
C589 C 0.91983 0.47502 0.77226 0.0
C590 C 0.94624 0.49481 0.76737 0.0
C591 C 0.96439 0.48297 0.76437 0.0
C592 C 0.979 0.48947 0.71654 0.0
C593 C 0.98424 0.49252 0.80582 0.0
C594 C 0.94403 0.45344 0.76851 0.0
C595 C 0.91847 0.44935 0.77323 0.0
C596 C 0.89635 0.42386 0.77845 0.0
C597 C 0.90044 0.40192 0.77889 0.0
C598 C 0.92645 0.40558 0.77384 0.0
C599 C 0.94847 0.43174 0.76843 0.0
H600 H 0.43639 0.9788 0.27202 0.0
H601 H 0.37834 0.89375 0.27396 0.0
H602 H 0.41498 0.88365 0.27798 0.0
H603 H 0.48441 0.97374 0.1981 0.0
H604 H 0.51297 0.99976 0.22863 0.0
H605 H 0.48219 1.00043 0.22683 0.0
H606 H 0.48167 0.00223 0.31833 0.0
H607 H 0.51247 0.00159 0.32041 0.0
H608 H 0.48358 0.97678 0.35215 0.0
H609 H 0.45766 0.8827 0.28335 0.0
H610 H 0.50375 0.89087 0.28674 0.0
H611 H 0.53429 0.97649 0.2784 0.0
C612 C 0.43137 0.95805 0.27347 0.0
C613 C 0.40447 0.93706 0.27286 0.0
C614 C 0.39878 0.91017 0.27433 0.0
C615 C 0.41945 0.90422 0.2767 0.0
C616 C 0.44571 0.92536 0.27716 0.0
C617 C 0.45177 0.95172 0.27533 0.0
C618 C 0.48171 0.97065 0.27541 0.0
C619 C 0.49085 0.98711 0.2295 0.0
C620 C 0.49036 0.98888 0.31919 0.0
C621 C 0.49153 0.95078 0.27785 0.0
C622 C 0.47041 0.92478 0.27905 0.0
C623 C 0.47438 0.90296 0.28223 0.0
C624 C 0.50065 0.90783 0.28423 0.0
C625 C 0.52266 0.93431 0.28269 0.0
C626 C 0.51792 0.95602 0.2793 0.0
H627 H 0.56578 0.5374 0.77268 0.0
H628 H 0.62265 0.50933 0.76309 0.0
H629 H 0.58545 0.46285 0.75667 0.0
H630 H 0.51854 0.48372 0.84498 0.0
H631 H 0.4896 0.48177 0.81713 0.0
H632 H 0.52064 0.5131 0.81848 0.0
H633 H 0.5196 0.51643 0.72725 0.0
H634 H 0.48849 0.48514 0.72563 0.0
H635 H 0.5166 0.48924 0.69139 0.0
H636 H 0.54255 0.41964 0.75201 0.0
H637 H 0.49629 0.38192 0.7514 0.0
H638 H 0.46685 0.43753 0.76685 0.0
C639 C 0.57039 0.52149 0.76873 0.0
C640 C 0.59712 0.52699 0.76816 0.0
C641 C 0.60234 0.50559 0.76365 0.0
C642 C 0.58136 0.47913 0.75988 0.0
C643 C 0.55527 0.47437 0.76102 0.0
C644 C 0.54966 0.49488 0.76548 0.0
C645 C 0.51979 0.48411 0.76748 0.0
C646 C 0.51167 0.49109 0.81484 0.0
C647 C 0.51059 0.49434 0.72543 0.0
C648 C 0.50953 0.45435 0.76352 0.0
C649 C 0.53037 0.44924 0.75951 0.0
C650 C 0.52604 0.42336 0.75513 0.0
C651 C 0.49966 0.40206 0.75479 0.0
C652 C 0.47791 0.40673 0.75917 0.0
C653 C 0.48302 0.43328 0.76368 0.0
H654 H 0.15008 0.40171 0.31146 0.0
H655 H 0.14316 0.40172 0.15882 0.0
H656 H 0.18395 0.39855 0.1504 0.0
H657 H 0.22125 0.44409 0.31305 0.0
H658 H 0.22632 0.42748 0.36252 0.0
H659 H 0.19536 0.42756 0.35682 0.0
H660 H 0.16908 0.37574 0.3607 0.0
H661 H 0.19999 0.37551 0.36634 0.0
H662 H 0.17698 0.35685 0.31957 0.0
H663 H 0.22499 0.39476 0.15824 0.0
H664 H 0.2665 0.39547 0.182 0.0
H665 H 0.24907 0.40187 0.32907 0.0
C666 C 0.1571 0.40079 0.27639 0.0
C667 C 0.14348 0.40175 0.23577 0.0
C668 C 0.15342 0.40104 0.19035 0.0
C669 C 0.17645 0.3991 0.18519 0.0
C670 C 0.18957 0.39834 0.22583 0.0
C671 C 0.18052 0.39953 0.27056 0.0
C672 C 0.19947 0.40027 0.30822 0.0
C673 C 0.2113 0.42641 0.33682 0.0
C674 C 0.18554 0.37562 0.34061 0.0
C675 C 0.2205 0.39931 0.27761 0.0
C676 C 0.21416 0.39774 0.23024 0.0
C677 C 0.23029 0.39614 0.19522 0.0
C678 C 0.25374 0.39649 0.20899 0.0
C679 C 0.26101 0.39894 0.25722 0.0
C680 C 0.24409 0.40025 0.29187 0.0
H681 H 0.83771 0.24687 0.83778 0.0
H682 H 0.85601 0.2677 0.68977 0.0
H683 H 0.81299 0.22812 0.66739 0.0
H684 H 0.80713 0.17487 0.81966 0.0
H685 H 0.78252 0.16669 0.86544 0.0
H686 H 0.81456 0.19683 0.8697 0.0
H687 H 0.79094 0.2247 0.8778 0.0
H688 H 0.75884 0.1947 0.87309 0.0
H689 H 0.76766 0.22212 0.83292 0.0
H690 H 0.76695 0.18865 0.66166 0.0
H691 H 0.72335 0.14754 0.6713 0.0
H692 H 0.73635 0.14952 0.82267 0.0
C693 C 0.83264 0.24298 0.80067 0.0
C694 C 0.84996 0.26034 0.76539 0.0
C695 C 0.84296 0.25455 0.71721 0.0
C696 C 0.81855 0.23225 0.70424 0.0
C697 C 0.80173 0.21572 0.73989 0.0
C698 C 0.80867 0.22043 0.78706 0.0
C699 C 0.78739 0.19888 0.81818 0.0
C700 C 0.79857 0.1834 0.8448 0.0
C701 C 0.77551 0.21082 0.85252 0.0
C702 C 0.7672 0.18153 0.78114 0.0
C703 C 0.77575 0.19189 0.73633 0.0
C704 C 0.76016 0.18017 0.69647 0.0
C705 C 0.73535 0.15693 0.70239 0.0
C706 C 0.72654 0.14537 0.74772 0.0
C707 C 0.74269 0.15788 0.78761 0.0
H708 H 0.59328 0.74845 0.32283 0.0
H709 H 0.59537 0.74305 0.17013 0.0
H710 H 0.59923 0.78743 0.16255 0.0
H711 H 0.55157 0.77775 0.32353 0.0
H712 H 0.56754 0.7989 0.37392 0.0
H713 H 0.56732 0.76776 0.36766 0.0
H714 H 0.61898 0.79306 0.37367 0.0
H715 H 0.61935 0.8243 0.37984 0.0
H716 H 0.63853 0.82029 0.33363 0.0
H717 H 0.60318 0.83239 0.17129 0.0
H718 H 0.60186 0.87288 0.1957 0.0
H719 H 0.59335 0.84741 0.34207 0.0
C720 C 0.59481 0.75681 0.28794 0.0
C721 C 0.59422 0.74255 0.24706 0.0
C722 C 0.59575 0.75375 0.20186 0.0
C723 C 0.5981 0.77897 0.19718 0.0
C724 C 0.59848 0.79254 0.23807 0.0
C725 C 0.59651 0.78175 0.28257 0.0
C726 C 0.59537 0.79966 0.32051 0.0
C727 C 0.56887 0.78515 0.34801 0.0
C728 C 0.6195 0.80993 0.35387 0.0
C729 C 0.59691 0.82206 0.29032 0.0
C730 C 0.59921 0.81781 0.24294 0.0
C731 C 0.60127 0.83592 0.20828 0.0
C732 C 0.60058 0.85885 0.22241 0.0
C733 C 0.59731 0.86308 0.2706 0.0
C734 C 0.59563 0.84451 0.3049 0.0
H735 H 0.85112 0.6053 0.7201 0.0
H736 H 0.87276 0.60653 0.86715 0.0
H737 H 0.83172 0.6068 0.89162 0.0
H738 H 0.82358 0.65018 0.73571 0.0
H739 H 0.79782 0.63267 0.69224 0.0
H740 H 0.82937 0.63371 0.68678 0.0
H741 H 0.80458 0.58189 0.68385 0.0
H742 H 0.773 0.58067 0.68964 0.0
H743 H 0.7821 0.56292 0.73116 0.0
H744 H 0.78607 0.60168 0.89934 0.0
H745 H 0.74142 0.59694 0.89048 0.0
H746 H 0.75152 0.60315 0.73824 0.0
C747 C 0.84731 0.60589 0.75745 0.0
C748 C 0.86485 0.60571 0.7919 0.0
C749 C 0.85949 0.60675 0.84038 0.0
C750 C 0.83626 0.60683 0.8545 0.0
C751 C 0.8191 0.60654 0.81958 0.0
C752 C 0.82464 0.60666 0.77205 0.0
C753 C 0.80301 0.60642 0.74157 0.0
C754 C 0.81411 0.63229 0.71236 0.0
C755 C 0.7899 0.58149 0.70969 0.0
C756 C 0.78394 0.60525 0.77936 0.0
C757 C 0.79354 0.60519 0.82411 0.0
C758 C 0.77859 0.60224 0.86457 0.0
C759 C 0.75323 0.59941 0.85916 0.0
C760 C 0.74327 0.59994 0.81372 0.0
C761 C 0.75893 0.60315 0.77339 0.0
H762 H 0.25298 0.85243 0.32118 0.0
H763 H 0.25688 0.86209 0.16882 0.0
H764 H 0.21334 0.82062 0.16099 0.0
H765 H 0.22598 0.7816 0.31844 0.0
H766 H 0.20497 0.77492 0.36962 0.0
H767 H 0.23535 0.80663 0.3639 0.0
H768 H 0.20857 0.83132 0.37331 0.0
H769 H 0.17808 0.79966 0.37905 0.0
H770 H 0.18088 0.82317 0.33435 0.0
H771 H 0.16957 0.77846 0.16926 0.0
H772 H 0.1301 0.73563 0.19271 0.0
H773 H 0.15603 0.7511 0.33896 0.0
C774 C 0.24444 0.84588 0.28633 0.0
C775 C 0.25807 0.86044 0.2456 0.0
C776 C 0.24668 0.85112 0.20042 0.0
C777 C 0.22192 0.8277 0.19562 0.0
C778 C 0.20901 0.81362 0.23632 0.0
C779 C 0.21995 0.82212 0.28079 0.0
C780 C 0.20274 0.80215 0.31834 0.0
C781 C 0.21818 0.79065 0.34408 0.0
C782 C 0.19193 0.81484 0.35332 0.0
C783 C 0.18057 0.78115 0.28794 0.0
C784 C 0.18436 0.78842 0.24084 0.0
C785 C 0.1664 0.77246 0.20601 0.0
C786 C 0.14404 0.74823 0.21964 0.0
C787 C 0.14018 0.74004 0.2675 0.0
C788 C 0.15865 0.75679 0.30202 0.0
H789 H 0.40519 0.2473 0.7067 0.0
H790 H 0.408 0.27133 0.85281 0.0
H791 H 0.41161 0.23232 0.87875 0.0
H792 H 0.36429 0.17533 0.72955 0.0
H793 H 0.38095 0.16671 0.68491 0.0
H794 H 0.37831 0.19633 0.67822 0.0
H795 H 0.42973 0.2249 0.66929 0.0
H796 H 0.43258 0.19544 0.67647 0.0
H797 H 0.45088 0.22379 0.71494 0.0
H798 H 0.41926 0.1935 0.88781 0.0
H799 H 0.42356 0.15321 0.88106 0.0
H800 H 0.41147 0.15177 0.72954 0.0
C801 C 0.40635 0.24418 0.74417 0.0
C802 C 0.4065 0.2623 0.77788 0.0
C803 C 0.40777 0.25756 0.82657 0.0
C804 C 0.40997 0.23558 0.84154 0.0
C805 C 0.41025 0.21833 0.80733 0.0
C806 C 0.40786 0.222 0.75974 0.0
C807 C 0.40799 0.20011 0.73034 0.0
C808 C 0.38129 0.18364 0.70422 0.0
C809 C 0.43171 0.21177 0.69573 0.0
C810 C 0.41138 0.18382 0.76879 0.0
C811 C 0.413 0.19492 0.81285 0.0
C812 C 0.41763 0.18439 0.85361 0.0
C813 C 0.42024 0.16165 0.84936 0.0
C814 C 0.41773 0.14941 0.80482 0.0
C815 C 0.41321 0.16064 0.76404 0.0
loop_
_geom_bond_atom_site_label_1
_geom_bond_atom_site_label_2
_geom_bond_distance
_geom_bond_site_symmetry_2
_ccdc_geom_bond_type
O0 Cd1 2.223 . S
O0 C8 1.315 . S
Cd1 O0 2.223 . S
Cd1 O4 2.297 . S
Cd1 O5 2.439 . S
Cd1 O11 2.240 . S
Cd2 O3 2.240 . S
Cd2 O10 2.223 . S
Cd2 O12 2.297 1_455 S
Cd2 O13 2.439 . S
O3 Cd2 2.240 . S
O3 C8 1.279 . S
O4 Cd1 2.297 . S
O4 C6 1.247 . S
O5 Cd1 2.439 . S
O5 C6 1.208 . S
C6 O4 1.247 . S
C6 O5 1.208 . S
C7 O12 1.247 1_455 S
C7 O13 1.208 . S
C8 O0 1.315 . S
C8 O3 1.279 . S
C9 O10 1.315 . S
C9 O11 1.279 . S
O10 Cd2 2.223 . S
O10 C9 1.315 . S
O11 Cd1 2.240 . S
O11 C9 1.279 . S
O12 Cd2 2.297 1_655 S
O12 C7 1.247 1_655 S
O13 Cd2 2.439 . S
O13 C7 1.208 . S
O14 Cd15 2.223 . S
O14 C22 1.315 . S
Cd15 O14 2.223 . S
Cd15 O18 2.297 . S
Cd15 O19 2.439 . S
Cd15 O25 2.240 . S
Cd16 O17 2.240 . S
Cd16 O24 2.223 . S
Cd16 O26 2.297 1_545 S
Cd16 O27 2.439 . S
O17 Cd16 2.240 . S
O17 C22 1.279 . S
O18 Cd15 2.297 . S
O18 C20 1.247 . S
O19 Cd15 2.439 . S
O19 C20 1.208 . S
C20 O18 1.247 . S
C20 O19 1.208 . S
C21 O26 1.247 1_545 S
C21 O27 1.208 . S
C22 O14 1.315 . S
C22 O17 1.279 . S
C23 O24 1.315 . S
C23 O25 1.279 . S
O24 Cd16 2.223 . S
O24 C23 1.315 . S
O25 Cd15 2.240 . S
O25 C23 1.279 . S
O26 Cd16 2.297 1_565 S
O26 C21 1.247 1_565 S
O27 Cd16 2.439 . S
O27 C21 1.208 . S
O28 Cd29 2.223 . S
O28 C36 1.315 . S
Cd29 O28 2.223 . S
Cd29 O32 2.297 . S
Cd29 O33 2.439 . S
Cd29 O39 2.240 . S
Cd30 O31 2.240 . S
Cd30 O38 2.223 . S
Cd30 O40 2.297 . S
Cd30 O41 2.439 . S
O31 Cd30 2.240 . S
O31 C36 1.279 . S
O32 Cd29 2.297 . S
O32 C34 1.247 . S
O33 Cd29 2.439 . S
O33 C34 1.208 . S
C34 O32 1.247 . S
C34 O33 1.208 . S
C35 O40 1.247 . S
C35 O41 1.208 . S
C36 O28 1.315 . S
C36 O31 1.279 . S
C37 O38 1.315 . S
C37 O39 1.279 . S
O38 Cd30 2.223 . S
O38 C37 1.315 . S
O39 Cd29 2.240 . S
O39 C37 1.279 . S
O40 Cd30 2.297 . S
O40 C35 1.247 . S
O41 Cd30 2.439 . S
O41 C35 1.208 . S
O42 Cd43 2.223 . S
O42 C50 1.315 . S
Cd43 O42 2.223 . S
Cd43 O46 2.297 . S
Cd43 O47 2.439 . S
Cd43 O53 2.240 . S
Cd44 O45 2.240 . S
Cd44 O52 2.223 . S
Cd44 O54 2.297 1_655 S
Cd44 O55 2.439 . S
O45 Cd44 2.240 . S
O45 C50 1.279 . S
O46 Cd43 2.297 . S
O46 C48 1.247 . S
O47 Cd43 2.439 . S
O47 C48 1.208 . S
C48 O46 1.247 . S
C48 O47 1.208 . S
C49 O54 1.247 1_655 S
C49 O55 1.208 . S
C50 O42 1.315 . S
C50 O45 1.279 . S
C51 O52 1.315 . S
C51 O53 1.279 . S
O52 Cd44 2.223 . S
O52 C51 1.315 . S
O53 Cd43 2.240 . S
O53 C51 1.279 . S
O54 Cd44 2.297 1_455 S
O54 C49 1.247 1_455 S
O55 Cd44 2.439 . S
O55 C49 1.208 . S
O56 Cd57 2.223 . S
O56 C64 1.315 . S
Cd57 O56 2.223 . S
Cd57 O60 2.297 . S
Cd57 O61 2.439 . S
Cd57 O67 2.240 . S
Cd58 O59 2.240 . S
Cd58 O66 2.223 . S
Cd58 O68 2.297 1_565 S
Cd58 O69 2.439 . S
O59 Cd58 2.240 . S
O59 C64 1.279 . S
O60 Cd57 2.297 . S
O60 C62 1.247 . S
O61 Cd57 2.439 . S
O61 C62 1.208 . S
C62 O60 1.247 . S
C62 O61 1.208 . S
C63 O68 1.247 1_565 S
C63 O69 1.208 . S
C64 O56 1.315 . S
C64 O59 1.279 . S
C65 O66 1.315 . S
C65 O67 1.279 . S
O66 Cd58 2.223 . S
O66 C65 1.315 . S
O67 Cd57 2.240 . S
O67 C65 1.279 . S
O68 Cd58 2.297 1_545 S
O68 C63 1.247 1_545 S
O69 Cd58 2.439 . S
O69 C63 1.208 . S
O70 Cd71 2.223 . S
O70 C78 1.315 . S
Cd71 O70 2.223 . S
Cd71 O74 2.297 . S
Cd71 O75 2.439 . S
Cd71 O81 2.240 . S
Cd72 O73 2.240 . S
Cd72 O80 2.223 . S
Cd72 O82 2.297 . S
Cd72 O83 2.439 . S
O73 Cd72 2.240 . S
O73 C78 1.279 . S
O74 Cd71 2.297 . S
O74 C76 1.247 . S
O75 Cd71 2.439 . S
O75 C76 1.208 . S
C76 O74 1.247 . S
C76 O75 1.208 . S
C77 O82 1.247 . S
C77 O83 1.208 . S
C78 O70 1.315 . S
C78 O73 1.279 . S
C79 O80 1.315 . S
C79 O81 1.279 . S
O80 Cd72 2.223 . S
O80 C79 1.315 . S
O81 Cd71 2.240 . S
O81 C79 1.279 . S
O82 Cd72 2.297 . S
O82 C77 1.247 . S
O83 Cd72 2.439 . S
O83 C77 1.208 . S
O84 Cd85 2.223 . S
O84 C92 1.315 . S
Cd85 O84 2.223 . S
Cd85 O88 2.297 . S
Cd85 O89 2.439 . S
Cd85 O95 2.240 . S
Cd86 O87 2.240 . S
Cd86 O94 2.223 . S
Cd86 O96 2.297 1_565 S
Cd86 O97 2.439 . S
O87 Cd86 2.240 . S
O87 C92 1.279 . S
O88 Cd85 2.297 . S
O88 C90 1.247 . S
O89 Cd85 2.439 . S
O89 C90 1.208 . S
C90 O88 1.247 . S
C90 O89 1.208 . S
C91 O96 1.247 1_565 S
C91 O97 1.208 . S
C92 O84 1.315 . S
C92 O87 1.279 . S
C93 O94 1.315 . S
C93 O95 1.279 . S
O94 Cd86 2.223 . S
O94 C93 1.315 . S
O95 Cd85 2.240 . S
O95 C93 1.279 . S
O96 Cd86 2.297 1_545 S
O96 C91 1.247 1_545 S
O97 Cd86 2.439 . S
O97 C91 1.208 . S
O98 Cd99 2.223 . S
O98 C106 1.315 . S
Cd99 O98 2.223 . S
Cd99 O102 2.297 . S
Cd99 O103 2.439 . S
Cd99 O109 2.240 . S
Cd100 O101 2.240 . S
Cd100 O108 2.223 . S
Cd100 O110 2.297 . S
Cd100 O111 2.439 . S
O101 Cd100 2.240 . S
O101 C106 1.279 . S
O102 Cd99 2.297 . S
O102 C104 1.247 . S
O103 Cd99 2.439 . S
O103 C104 1.208 . S
C104 O102 1.247 . S
C104 O103 1.208 . S
C105 O110 1.247 . S
C105 O111 1.208 . S
C106 O98 1.315 . S
C106 O101 1.279 . S
C107 O108 1.315 . S
C107 O109 1.279 . S
O108 Cd100 2.223 . S
O108 C107 1.315 . S
O109 Cd99 2.240 . S
O109 C107 1.279 . S
O110 Cd100 2.297 . S
O110 C105 1.247 . S
O111 Cd100 2.439 . S
O111 C105 1.208 . S
O112 Cd113 2.223 . S
O112 C120 1.315 . S
Cd113 O112 2.223 . S
Cd113 O116 2.297 . S
Cd113 O117 2.439 . S
Cd113 O123 2.240 . S
Cd114 O115 2.240 . S
Cd114 O122 2.223 . S
Cd114 O124 2.297 1_455 S
Cd114 O125 2.439 . S
O115 Cd114 2.240 . S
O115 C120 1.279 . S
O116 Cd113 2.297 . S
O116 C118 1.247 . S
O117 Cd113 2.439 . S
O117 C118 1.208 . S
C118 O116 1.247 . S
C118 O117 1.208 . S
C119 O124 1.247 1_455 S
C119 O125 1.208 . S
C120 O112 1.315 . S
C120 O115 1.279 . S
C121 O122 1.315 . S
C121 O123 1.279 . S
O122 Cd114 2.223 . S
O122 C121 1.315 . S
O123 Cd113 2.240 . S
O123 C121 1.279 . S
O124 Cd114 2.297 1_655 S
O124 C119 1.247 1_655 S
O125 Cd114 2.439 . S
O125 C119 1.208 . S
O126 Cd127 2.223 . S
O126 C134 1.315 . S
Cd127 O126 2.223 . S
Cd127 O130 2.297 . S
Cd127 O131 2.439 . S
Cd127 O137 2.240 . S
Cd128 O129 2.240 . S
Cd128 O136 2.223 . S
Cd128 O138 2.297 1_545 S
Cd128 O139 2.439 . S
O129 Cd128 2.240 . S
O129 C134 1.279 . S
O130 Cd127 2.297 . S
O130 C132 1.247 . S
O131 Cd127 2.439 . S
O131 C132 1.208 . S
C132 O130 1.247 . S
C132 O131 1.208 . S
C133 O138 1.247 1_545 S
C133 O139 1.208 . S
C134 O126 1.315 . S
C134 O129 1.279 . S
C135 O136 1.315 . S
C135 O137 1.279 . S
O136 Cd128 2.223 . S
O136 C135 1.315 . S
O137 Cd127 2.240 . S
O137 C135 1.279 . S
O138 Cd128 2.297 1_565 S
O138 C133 1.247 1_565 S
O139 Cd128 2.439 . S
O139 C133 1.208 . S
O140 Cd141 2.223 . S
O140 C148 1.315 . S
Cd141 O140 2.223 . S
Cd141 O144 2.297 . S
Cd141 O145 2.439 . S
Cd141 O151 2.240 . S
Cd142 O143 2.240 . S
Cd142 O150 2.223 . S
Cd142 O152 2.297 . S
Cd142 O153 2.439 . S
O143 Cd142 2.240 . S
O143 C148 1.279 . S
O144 Cd141 2.297 . S
O144 C146 1.247 . S
O145 Cd141 2.439 . S
O145 C146 1.208 . S
C146 O144 1.247 . S
C146 O145 1.208 . S
C147 O152 1.247 . S
C147 O153 1.208 . S
C148 O140 1.315 . S
C148 O143 1.279 . S
C149 O150 1.315 . S
C149 O151 1.279 . S
O150 Cd142 2.223 . S
O150 C149 1.315 . S
O151 Cd141 2.240 . S
O151 C149 1.279 . S
O152 Cd142 2.297 . S
O152 C147 1.247 . S
O153 Cd142 2.439 . S
O153 C147 1.208 . S
O154 Cd155 2.223 . S
O154 C162 1.315 . S
Cd155 O154 2.223 . S
Cd155 O158 2.297 . S
Cd155 O159 2.439 . S
Cd155 O165 2.240 . S
Cd156 O157 2.240 . S
Cd156 O164 2.223 . S
Cd156 O166 2.297 1_655 S
Cd156 O167 2.439 . S
O157 Cd156 2.240 . S
O157 C162 1.279 . S
O158 Cd155 2.297 . S
O158 C160 1.247 . S
O159 Cd155 2.439 . S
O159 C160 1.208 . S
C160 O158 1.247 . S
C160 O159 1.208 . S
C161 O166 1.247 1_655 S
C161 O167 1.208 . S
C162 O154 1.315 . S
C162 O157 1.279 . S
C163 O164 1.315 . S
C163 O165 1.279 . S
O164 Cd156 2.223 . S
O164 C163 1.315 . S
O165 Cd155 2.240 . S
O165 C163 1.279 . S
O166 Cd156 2.297 1_455 S
O166 C161 1.247 1_455 S
O167 Cd156 2.439 . S
O167 C161 1.208 . S
H168 C180 0.930 . S
H169 C182 0.930 . S
H170 C183 0.930 1_655 S
H171 C187 0.959 . S
H172 C187 0.959 . S
H173 C187 0.961 1_554 S
H174 C188 0.960 . S
H175 C188 0.961 1_556 S
H176 C188 0.959 . S
H177 C191 0.929 . S
H178 C192 0.931 . S
H179 C194 0.930 . S
C180 H168 0.930 . S
C180 C181 1.399 . S
C180 C185 1.399 . S
C181 C180 1.399 . S
C181 C182 1.376 . S
C182 H169 0.930 . S
C182 C181 1.376 . S
C182 C183 1.388 . S
C183 H170 0.930 1_455 S
C183 C182 1.388 . S
C183 C184 1.394 1_455 S
C184 C183 1.394 1_655 S
C184 C185 1.385 1_655 S
C184 C190 1.468 1_554 S
C185 C180 1.399 . S
C185 C184 1.385 1_455 S
C185 C186 1.516 1_554 S
C186 C185 1.516 1_556 S
C186 C187 1.502 . S
C186 C188 1.561 1_456 S
C186 C189 1.526 1_455 S
C187 H171 0.959 . S
C187 H172 0.959 . S
C187 H173 0.961 1_556 S
C187 C186 1.502 . S
C188 H174 0.960 . S
C188 H175 0.961 1_554 S
C188 H176 0.959 . S
C188 C186 1.561 1_654 S
C189 C186 1.526 1_655 S
C189 C190 1.396 . S
C189 C194 1.390 . S
C190 C184 1.468 1_556 S
C190 C189 1.396 . S
C190 C191 1.399 . S
C191 H177 0.929 . S
C191 C190 1.399 . S
C191 C192 1.385 . S
C192 H178 0.931 . S
C192 C191 1.385 . S
C192 C193 1.389 . S
C193 C192 1.389 . S
C193 C194 1.387 . S
C194 H179 0.930 . S
C194 C189 1.390 . S
C194 C193 1.387 . S
H195 C207 0.930 . S
H196 C209 0.930 . S
H197 C210 0.930 . S
H198 C214 0.959 . S
H199 C214 0.959 . S
H200 C214 0.961 . S
H201 C215 0.960 . S
H202 C215 0.961 . S
H203 C215 0.959 . S
H204 C218 0.929 . S
H205 C219 0.931 . S
H206 C221 0.930 . S
C207 H195 0.930 . S
C207 C208 1.399 . S
C207 C212 1.399 . S
C208 C207 1.399 . S
C208 C209 1.376 . S
C209 H196 0.930 . S
C209 C208 1.376 . S
C209 C210 1.388 . S
C210 H197 0.930 . S
C210 C209 1.388 . S
C210 C211 1.390 . S
C211 C210 1.390 . S
C211 C212 1.394 . S
C211 C217 1.465 1_565 S
C212 C207 1.399 . S
C212 C211 1.394 . S
C212 C213 1.516 . S
C213 C212 1.516 . S
C213 C214 1.502 1_565 S
C213 C215 1.561 . S
C213 C216 1.526 1_565 S
C214 H198 0.959 . S
C214 H199 0.959 . S
C214 H200 0.961 . S
C214 C213 1.502 1_545 S
C215 H201 0.960 . S
C215 H202 0.961 . S
C215 H203 0.959 . S
C215 C213 1.561 . S
C216 C213 1.526 1_545 S
C216 C217 1.396 . S
C216 C221 1.390 . S
C217 C211 1.465 1_545 S
C217 C216 1.396 . S
C217 C218 1.399 . S
C218 H204 0.929 . S
C218 C217 1.399 . S
C218 C219 1.385 . S
C219 H205 0.931 . S
C219 C218 1.385 . S
C219 C220 1.389 . S
C220 C219 1.389 . S
C220 C221 1.387 . S
C221 H206 0.930 . S
C221 C216 1.390 . S
C221 C220 1.387 . S
H222 C234 0.930 . S
H223 C236 0.930 . S
H224 C237 0.930 . S
H225 C241 0.959 . S
H226 C241 0.959 . S
H227 C241 0.961 . S
H228 C242 0.960 . S
H229 C242 0.961 1_556 S
H230 C242 0.959 1_556 S
H231 C245 0.929 . S
H232 C246 0.931 . S
H233 C248 0.930 . S
C234 H222 0.930 . S
C234 C235 1.399 . S
C234 C239 1.399 . S
C235 C234 1.399 . S
C235 C236 1.376 . S
C236 H223 0.930 . S
C236 C235 1.376 . S
C236 C237 1.388 . S
C237 H224 0.930 . S
C237 C236 1.388 . S
C237 C238 1.390 . S
C238 C237 1.390 . S
C238 C239 1.394 . S
C238 C244 1.465 1_554 S
C239 C234 1.399 . S
C239 C238 1.394 . S
C239 C240 1.516 . S
C240 C239 1.516 . S
C240 C241 1.502 . S
C240 C242 1.561 . S
C240 C243 1.526 1_554 S
C241 H225 0.959 . S
C241 H226 0.959 . S
C241 H227 0.961 . S
C241 C240 1.502 . S
C242 H228 0.960 . S
C242 H229 0.961 1_554 S
C242 H230 0.959 1_554 S
C242 C240 1.561 . S
C243 C240 1.526 1_556 S
C243 C244 1.396 . S
C243 C248 1.390 . S
C244 C238 1.465 1_556 S
C244 C243 1.396 . S
C244 C245 1.399 . S
C245 H231 0.929 . S
C245 C244 1.399 . S
C245 C246 1.385 . S
C246 H232 0.931 . S
C246 C245 1.385 . S
C246 C247 1.389 . S
C247 C246 1.389 . S
C247 C248 1.387 . S
C248 H233 0.930 . S
C248 C243 1.390 . S
C248 C247 1.387 . S
H249 C261 0.930 . S
H250 C263 0.930 . S
H251 C264 0.930 . S
H252 C268 0.959 . S
H253 C268 0.959 . S
H254 C268 0.961 . S
H255 C269 0.960 . S
H256 C269 0.961 . S
H257 C269 0.959 . S
H258 C272 0.929 . S
H259 C273 0.931 . S
H260 C275 0.930 1_455 S
C261 H249 0.930 . S
C261 C262 1.399 . S
C261 C266 1.399 . S
C262 C261 1.399 . S
C262 C263 1.376 1_455 S
C263 H250 0.930 . S
C263 C262 1.376 1_655 S
C263 C264 1.388 . S
C264 H251 0.930 . S
C264 C263 1.388 . S
C264 C265 1.390 . S
C265 C264 1.390 . S
C265 C266 1.394 1_655 S
C265 C271 1.465 . S
C266 C261 1.399 . S
C266 C265 1.394 1_455 S
C266 C267 1.516 . S
C267 C266 1.516 . S
C267 C268 1.502 . S
C267 C269 1.561 . S
C267 C270 1.526 . S
C268 H252 0.959 . S
C268 H253 0.959 . S
C268 H254 0.961 . S
C268 C267 1.502 . S
C269 H255 0.960 . S
C269 H256 0.961 . S
C269 H257 0.959 . S
C269 C267 1.561 . S
C270 C267 1.526 . S
C270 C271 1.396 1_455 S
C270 C275 1.390 1_455 S
C271 C265 1.465 . S
C271 C270 1.396 1_655 S
C271 C272 1.399 . S
C272 H258 0.929 . S
C272 C271 1.399 . S
C272 C273 1.385 . S
C273 H259 0.931 . S
C273 C272 1.385 . S
C273 C274 1.389 . S
C274 C273 1.389 . S
C274 C275 1.387 . S
C275 H260 0.930 1_655 S
C275 C270 1.390 1_655 S
C275 C274 1.387 . S
H276 C288 0.930 . S
H277 C290 0.930 . S
H278 C291 0.930 . S
H279 C295 0.959 . S
H280 C295 0.959 . S
H281 C295 0.976 . S
H282 C296 0.960 . S
H283 C296 0.961 . S
H284 C296 0.959 . S
H285 C299 0.929 . S
H286 C300 0.931 . S
H287 C302 0.931 1_545 S
C288 H276 0.930 . S
C288 C289 1.399 . S
C288 C293 1.399 . S
C289 C288 1.399 . S
C289 C290 1.376 1_545 S
C290 H277 0.930 . S
C290 C289 1.376 1_565 S
C290 C291 1.388 . S
C291 H278 0.930 . S
C291 C290 1.388 . S
C291 C292 1.390 . S
C292 C291 1.390 . S
C292 C293 1.394 1_565 S
C292 C298 1.465 1_556 S
C293 C288 1.399 . S
C293 C292 1.394 1_545 S
C293 C294 1.516 1_556 S
C294 C293 1.516 1_554 S
C294 C295 1.502 . S
C294 C296 1.561 . S
C294 C297 1.526 . S
C295 H279 0.959 . S
C295 H280 0.959 . S
C295 H281 0.976 . S
C295 C294 1.502 . S
C296 H282 0.960 . S
C296 H283 0.961 . S
C296 H284 0.959 . S
C296 C294 1.561 . S
C297 C294 1.526 . S
C297 C298 1.396 1_545 S
C297 C302 1.390 1_545 S
C298 C292 1.465 1_554 S
C298 C297 1.396 1_565 S
C298 C299 1.399 . S
C299 H285 0.929 . S
C299 C298 1.399 . S
C299 C300 1.385 . S
C300 H286 0.931 . S
C300 C299 1.385 . S
C300 C301 1.389 . S
C301 C300 1.389 . S
C301 C302 1.386 . S
C302 H287 0.931 1_565 S
C302 C297 1.390 1_565 S
C302 C301 1.386 . S
H303 C315 0.930 . S
H304 C317 0.930 . S
H305 C318 0.930 . S
H306 C322 0.959 . S
H307 C322 0.959 . S
H308 C322 0.961 . S
H309 C323 0.960 . S
H310 C323 0.961 . S
H311 C323 0.959 . S
H312 C326 0.929 . S
H313 C327 0.931 . S
H314 C329 0.930 . S
C315 H303 0.930 . S
C315 C316 1.399 . S
C315 C320 1.399 . S
C316 C315 1.399 . S
C316 C317 1.376 . S
C317 H304 0.930 . S
C317 C316 1.376 . S
C317 C318 1.388 . S
C318 H305 0.930 . S
C318 C317 1.388 . S
C318 C319 1.390 . S
C319 C318 1.390 . S
C319 C320 1.394 . S
C319 C325 1.465 . S
C320 C315 1.399 . S
C320 C319 1.394 . S
C320 C321 1.516 . S
C321 C320 1.516 . S
C321 C322 1.502 . S
C321 C323 1.561 . S
C321 C324 1.526 . S
C322 H306 0.959 . S
C322 H307 0.959 . S
C322 H308 0.961 . S
C322 C321 1.502 . S
C323 H309 0.960 . S
C323 H310 0.961 . S
C323 H311 0.959 . S
C323 C321 1.561 . S
C324 C321 1.526 . S
C324 C325 1.396 . S
C324 C329 1.390 . S
C325 C319 1.465 . S
C325 C324 1.396 . S
C325 C326 1.399 . S
C326 H312 0.929 . S
C326 C325 1.399 . S
C326 C327 1.385 . S
C327 H313 0.931 . S
C327 C326 1.385 . S
C327 C328 1.389 . S
C328 C327 1.389 . S
C328 C329 1.387 . S
C329 H314 0.930 . S
C329 C324 1.390 . S
C329 C328 1.387 . S
H330 C342 0.930 . S
H331 C344 0.930 . S
H332 C345 0.931 . S
H333 C349 0.959 . S
H334 C349 0.959 . S
H335 C349 0.961 1_556 S
H336 C350 0.960 . S
H337 C350 0.961 1_554 S
H338 C350 0.959 . S
H339 C353 0.929 . S
H340 C354 0.931 . S
H341 C356 0.930 . S
C342 H330 0.930 . S
C342 C343 1.399 . S
C342 C347 1.399 . S
C343 C342 1.399 . S
C343 C344 1.376 . S
C344 H331 0.930 . S
C344 C343 1.376 . S
C344 C345 1.388 . S
C345 H332 0.931 . S
C345 C344 1.388 . S
C345 C346 1.382 1_655 S
C346 C345 1.382 1_455 S
C346 C347 1.400 1_455 S
C346 C352 1.468 1_556 S
C347 C342 1.399 . S
C347 C346 1.400 1_655 S
C347 C348 1.530 1_655 S
C348 C347 1.530 1_455 S
C348 C349 1.499 1_456 S
C348 C350 1.565 . S
C348 C351 1.512 1_556 S
C349 H333 0.959 . S
C349 H334 0.959 . S
C349 H335 0.961 1_554 S
C349 C348 1.499 1_654 S
C350 H336 0.960 . S
C350 H337 0.961 1_556 S
C350 H338 0.959 . S
C350 C348 1.565 . S
C351 C348 1.512 1_554 S
C351 C352 1.396 . S
C351 C356 1.390 . S
C352 C346 1.468 1_554 S
C352 C351 1.396 . S
C352 C353 1.399 . S
C353 H339 0.929 . S
C353 C352 1.399 . S
C353 C354 1.385 . S
C354 H340 0.931 . S
C354 C353 1.385 . S
C354 C355 1.389 . S
C355 C354 1.389 . S
C355 C356 1.387 . S
C356 H341 0.930 . S
C356 C351 1.390 . S
C356 C355 1.387 . S
H357 C369 0.930 . S
H358 C371 0.930 . S
H359 C372 0.930 . S
H360 C376 0.959 . S
H361 C376 0.959 . S
H362 C376 0.961 . S
H363 C377 0.960 . S
H364 C377 0.961 . S
H365 C377 0.959 . S
H366 C380 0.929 . S
H367 C381 0.931 . S
H368 C383 0.930 . S
C369 H357 0.930 . S
C369 C370 1.399 1_545 S
C369 C374 1.399 . S
C370 C369 1.399 1_565 S
C370 C371 1.376 . S
C371 H358 0.930 . S
C371 C370 1.376 . S
C371 C372 1.388 . S
C372 H359 0.930 . S
C372 C371 1.388 . S
C372 C373 1.390 . S
C373 C372 1.390 . S
C373 C374 1.394 1_565 S
C373 C379 1.465 . S
C374 C369 1.399 . S
C374 C373 1.394 1_545 S
C374 C375 1.516 . S
C375 C374 1.516 . S
C375 C376 1.502 . S
C375 C377 1.561 . S
C375 C378 1.526 . S
C376 H360 0.959 . S
C376 H361 0.959 . S
C376 H362 0.961 . S
C376 C375 1.502 . S
C377 H363 0.960 . S
C377 H364 0.961 . S
C377 H365 0.959 . S
C377 C375 1.561 . S
C378 C375 1.526 . S
C378 C379 1.396 1_545 S
C378 C383 1.390 . S
C379 C373 1.465 . S
C379 C378 1.396 1_565 S
C379 C380 1.399 . S
C380 H366 0.929 . S
C380 C379 1.399 . S
C380 C381 1.385 . S
C381 H367 0.931 . S
C381 C380 1.385 . S
C381 C382 1.389 1_565 S
C382 C381 1.389 1_545 S
C382 C383 1.387 . S
C383 H368 0.930 . S
C383 C378 1.390 . S
C383 C382 1.387 . S
H384 C396 0.930 . S
H385 C398 0.930 . S
H386 C399 0.930 . S
H387 C403 0.959 . S
H388 C403 0.959 1_554 S
H389 C403 0.961 . S
H390 C404 0.960 1_556 S
H391 C404 0.961 . S
H392 C404 0.959 . S
H393 C407 0.929 . S
H394 C408 0.931 . S
H395 C410 0.930 . S
C396 H384 0.930 . S
C396 C397 1.399 . S
C396 C401 1.399 . S
C397 C396 1.399 . S
C397 C398 1.376 . S
C398 H385 0.930 . S
C398 C397 1.376 . S
C398 C399 1.388 . S
C399 H386 0.930 . S
C399 C398 1.388 . S
C399 C400 1.390 . S
C400 C399 1.390 . S
C400 C401 1.394 . S
C400 C406 1.465 1_556 S
C401 C396 1.399 . S
C401 C400 1.394 . S
C401 C402 1.516 1_556 S
C402 C401 1.516 1_554 S
C402 C403 1.502 1_554 S
C402 C404 1.561 . S
C402 C405 1.526 . S
C403 H387 0.959 . S
C403 H388 0.959 1_556 S
C403 H389 0.961 . S
C403 C402 1.502 1_556 S
C404 H390 0.960 1_554 S
C404 H391 0.961 . S
C404 H392 0.959 . S
C404 C402 1.561 . S
C405 C402 1.526 . S
C405 C406 1.396 . S
C405 C410 1.390 . S
C406 C400 1.465 1_554 S
C406 C405 1.396 . S
C406 C407 1.399 . S
C407 H393 0.929 . S
C407 C406 1.399 . S
C407 C408 1.385 . S
C408 H394 0.931 . S
C408 C407 1.385 . S
C408 C409 1.389 . S
C409 C408 1.389 . S
C409 C410 1.387 . S
C410 H395 0.930 . S
C410 C405 1.390 . S
C410 C409 1.387 . S
H411 C423 0.930 . S
H412 C425 0.930 . S
H413 C426 0.930 . S
H414 C430 0.959 . S
H415 C430 0.959 . S
H416 C430 0.961 . S
H417 C431 0.960 . S
H418 C431 0.961 . S
H419 C431 0.959 . S
H420 C434 0.929 . S
H421 C435 0.931 . S
H422 C437 0.930 . S
C423 H411 0.930 . S
C423 C424 1.399 . S
C423 C428 1.399 . S
C424 C423 1.399 . S
C424 C425 1.376 . S
C425 H412 0.930 . S
C425 C424 1.376 . S
C425 C426 1.388 . S
C426 H413 0.930 . S
C426 C425 1.388 . S
C426 C427 1.390 . S
C427 C426 1.390 . S
C427 C428 1.394 . S
C427 C433 1.465 1_655 S
C428 C423 1.399 . S
C428 C427 1.394 . S
C428 C429 1.516 1_655 S
C429 C428 1.516 1_455 S
C429 C430 1.502 1_455 S
C429 C431 1.561 . S
C429 C432 1.526 . S
C430 H414 0.959 . S
C430 H415 0.959 . S
C430 H416 0.961 . S
C430 C429 1.502 1_655 S
C431 H417 0.960 . S
C431 H418 0.961 . S
C431 H419 0.959 . S
C431 C429 1.561 . S
C432 C429 1.526 . S
C432 C433 1.396 . S
C432 C437 1.390 . S
C433 C427 1.465 1_455 S
C433 C432 1.396 . S
C433 C434 1.399 . S
C434 H420 0.929 . S
C434 C433 1.399 . S
C434 C435 1.385 . S
C435 H421 0.931 . S
C435 C434 1.385 . S
C435 C436 1.389 . S
C436 C435 1.389 . S
C436 C437 1.387 . S
C437 H422 0.930 . S
C437 C432 1.390 . S
C437 C436 1.387 . S
H438 C450 0.930 . S
H439 C452 0.930 . S
H440 C453 0.930 . S
H441 C457 0.959 . S
H442 C457 0.959 1_554 S
H443 C457 0.961 . S
H444 C458 0.960 . S
H445 C458 0.961 1_554 S
H446 C458 0.959 . S
H447 C461 0.929 . S
H448 C462 0.931 . S
H449 C464 0.930 . S
C450 H438 0.930 . S
C450 C451 1.399 1_565 S
C450 C455 1.399 . S
C451 C450 1.399 1_545 S
C451 C452 1.376 . S
C452 H439 0.930 . S
C452 C451 1.376 . S
C452 C453 1.388 . S
C453 H440 0.930 . S
C453 C452 1.388 . S
C453 C454 1.390 . S
C454 C453 1.390 . S
C454 C455 1.394 1_545 S
C454 C460 1.465 1_556 S
C455 C450 1.399 . S
C455 C454 1.394 1_565 S
C455 C456 1.516 . S
C456 C455 1.516 . S
C456 C457 1.502 . S
C456 C458 1.561 . S
C456 C459 1.526 1_556 S
C457 H441 0.959 . S
C457 H442 0.959 1_556 S
C457 H443 0.961 . S
C457 C456 1.502 . S
C458 H444 0.960 . S
C458 H445 0.961 1_556 S
C458 H446 0.959 . S
C458 C456 1.561 . S
C459 C456 1.526 1_554 S
C459 C460 1.396 1_565 S
C459 C464 1.390 . S
C460 C454 1.465 1_554 S
C460 C459 1.396 1_545 S
C460 C461 1.399 . S
C461 H447 0.929 . S
C461 C460 1.399 . S
C461 C462 1.385 . S
C462 H448 0.931 . S
C462 C461 1.385 . S
C462 C463 1.389 1_545 S
C463 C462 1.389 1_565 S
C463 C464 1.387 . S
C464 H449 0.930 . S
C464 C459 1.390 . S
C464 C463 1.387 . S
H465 C477 0.930 . S
H466 C479 0.930 . S
H467 C480 0.930 . S
H468 C484 0.959 . S
H469 C484 0.959 . S
H470 C484 0.961 . S
H471 C485 0.960 . S
H472 C485 0.961 . S
H473 C485 0.959 . S
H474 C488 0.929 . S
H475 C489 0.931 . S
H476 C491 0.930 . S
C477 H465 0.930 . S
C477 C478 1.399 . S
C477 C482 1.399 . S
C478 C477 1.399 . S
C478 C479 1.376 . S
C479 H466 0.930 . S
C479 C478 1.376 . S
C479 C480 1.388 . S
C480 H467 0.930 . S
C480 C479 1.388 . S
C480 C481 1.390 . S
C481 C480 1.390 . S
C481 C482 1.394 . S
C481 C487 1.465 . S
C482 C477 1.399 . S
C482 C481 1.394 . S
C482 C483 1.516 . S
C483 C482 1.516 . S
C483 C484 1.502 . S
C483 C485 1.561 . S
C483 C486 1.526 . S
C484 H468 0.959 . S
C484 H469 0.959 . S
C484 H470 0.961 . S
C484 C483 1.502 . S
C485 H471 0.960 . S
C485 H472 0.961 . S
C485 H473 0.959 . S
C485 C483 1.561 . S
C486 C483 1.526 . S
C486 C487 1.396 . S
C486 C491 1.390 . S
C487 C481 1.465 . S
C487 C486 1.396 . S
C487 C488 1.399 . S
C488 H474 0.929 . S
C488 C487 1.399 . S
C488 C489 1.385 . S
C489 H475 0.931 . S
C489 C488 1.385 . S
C489 C490 1.389 . S
C490 C489 1.389 . S
C490 C491 1.387 . S
C491 H476 0.930 . S
C491 C486 1.390 . S
C491 C490 1.387 . S
H492 C504 0.930 . S
H493 C506 0.930 . S
H494 C507 0.930 . S
H495 C511 0.959 1_655 S
H496 C511 0.959 . S
H497 C511 0.961 . S
H498 C512 0.960 . S
H499 C512 0.961 . S
H500 C512 0.959 . S
H501 C515 0.929 . S
H502 C516 0.931 . S
H503 C518 0.930 . S
C504 H492 0.930 . S
C504 C505 1.399 . S
C504 C509 1.399 . S
C505 C504 1.399 . S
C505 C506 1.376 . S
C506 H493 0.930 . S
C506 C505 1.376 . S
C506 C507 1.388 . S
C507 H494 0.930 . S
C507 C506 1.388 . S
C507 C508 1.390 . S
C508 C507 1.390 . S
C508 C509 1.394 . S
C508 C514 1.465 . S
C509 C504 1.399 . S
C509 C508 1.394 . S
C509 C510 1.516 . S
C510 C509 1.516 . S
C510 C511 1.502 . S
C510 C512 1.561 . S
C510 C513 1.526 . S
C511 H495 0.959 1_455 S
C511 H496 0.959 . S
C511 H497 0.961 . S
C511 C510 1.502 . S
C512 H498 0.960 . S
C512 H499 0.961 . S
C512 H500 0.959 . S
C512 C510 1.561 . S
C513 C510 1.526 . S
C513 C514 1.396 . S
C513 C518 1.390 . S
C514 C508 1.465 . S
C514 C513 1.396 . S
C514 C515 1.399 . S
C515 H501 0.929 . S
C515 C514 1.399 . S
C515 C516 1.385 . S
C516 H502 0.931 . S
C516 C515 1.385 . S
C516 C517 1.389 . S
C517 C516 1.389 . S
C517 C518 1.387 . S
C518 H503 0.930 . S
C518 C513 1.390 . S
C518 C517 1.387 . S
H519 C531 0.930 . S
H520 C533 0.930 1_565 S
H521 C534 0.930 1_565 S
H522 C538 0.959 . S
H523 C538 0.959 . S
H524 C538 0.961 . S
H525 C539 0.960 . S
H526 C539 0.961 . S
H527 C539 0.959 . S
H528 C542 0.929 1_565 S
H529 C543 0.931 1_565 S
H530 C545 0.930 . S
C531 H519 0.930 . S
C531 C532 1.399 . S
C531 C536 1.399 . S
C532 C531 1.399 . S
C532 C533 1.376 . S
C533 H520 0.930 1_545 S
C533 C532 1.376 . S
C533 C534 1.388 . S
C534 H521 0.930 1_545 S
C534 C533 1.388 . S
C534 C535 1.390 . S
C535 C534 1.390 . S
C535 C536 1.394 . S
C535 C541 1.465 . S
C536 C531 1.399 . S
C536 C535 1.394 . S
C536 C537 1.516 . S
C537 C536 1.516 . S
C537 C538 1.502 . S
C537 C539 1.561 . S
C537 C540 1.526 . S
C538 H522 0.959 . S
C538 H523 0.959 . S
C538 H524 0.961 . S
C538 C537 1.502 . S
C539 H525 0.960 . S
C539 H526 0.961 . S
C539 H527 0.959 . S
C539 C537 1.561 . S
C540 C537 1.526 . S
C540 C541 1.396 . S
C540 C545 1.390 . S
C541 C535 1.465 . S
C541 C540 1.396 . S
C541 C542 1.399 . S
C542 H528 0.929 1_545 S
C542 C541 1.399 . S
C542 C543 1.385 . S
C543 H529 0.931 1_545 S
C543 C542 1.385 . S
C543 C544 1.389 . S
C544 C543 1.389 . S
C544 C545 1.387 . S
C545 H530 0.930 . S
C545 C540 1.390 . S
C545 C544 1.387 . S
H546 C558 0.930 . S
H547 C560 0.930 . S
H548 C561 0.930 . S
H549 C565 0.959 . S
H550 C565 0.959 . S
H551 C565 0.961 . S
H552 C566 0.960 . S
H553 C566 0.961 . S
H554 C566 0.959 . S
H555 C569 0.929 . S
H556 C570 0.931 . S
H557 C572 0.930 . S
C558 H546 0.930 . S
C558 C559 1.399 . S
C558 C563 1.399 . S
C559 C558 1.399 . S
C559 C560 1.376 . S
C560 H547 0.930 . S
C560 C559 1.376 . S
C560 C561 1.388 . S
C561 H548 0.930 . S
C561 C560 1.388 . S
C561 C562 1.390 . S
C562 C561 1.390 . S
C562 C563 1.394 . S
C562 C568 1.465 . S
C563 C558 1.399 . S
C563 C562 1.394 . S
C563 C564 1.516 . S
C564 C563 1.516 . S
C564 C565 1.502 . S
C564 C566 1.561 . S
C564 C567 1.526 . S
C565 H549 0.959 . S
C565 H550 0.959 . S
C565 H551 0.961 . S
C565 C564 1.502 . S
C566 H552 0.960 . S
C566 H553 0.961 . S
C566 H554 0.959 . S
C566 C564 1.561 . S
C567 C564 1.526 . S
C567 C568 1.396 . S
C567 C572 1.390 . S
C568 C562 1.465 . S
C568 C567 1.396 . S
C568 C569 1.399 . S
C569 H555 0.929 . S
C569 C568 1.399 . S
C569 C570 1.385 . S
C570 H556 0.931 . S
C570 C569 1.385 . S
C570 C571 1.389 . S
C571 C570 1.389 . S
C571 C572 1.387 . S
C572 H557 0.930 . S
C572 C567 1.390 . S
C572 C571 1.387 . S
H573 C585 0.930 . S
H574 C587 0.930 . S
H575 C588 0.930 . S
H576 C592 0.959 . S
H577 C592 0.959 . S
H578 C592 0.961 . S
H579 C593 0.960 . S
H580 C593 0.961 . S
H581 C593 0.959 . S
H582 C596 0.929 . S
H583 C597 0.931 . S
H584 C599 0.930 . S
C585 H573 0.930 . S
C585 C586 1.399 . S
C585 C590 1.399 . S
C586 C585 1.399 . S
C586 C587 1.376 . S
C587 H574 0.930 . S
C587 C586 1.376 . S
C587 C588 1.388 . S
C588 H575 0.930 . S
C588 C587 1.388 . S
C588 C589 1.390 . S
C589 C588 1.390 . S
C589 C590 1.394 . S
C589 C595 1.465 . S
C590 C585 1.399 . S
C590 C589 1.394 . S
C590 C591 1.516 . S
C591 C590 1.516 . S
C591 C592 1.502 . S
C591 C593 1.561 . S
C591 C594 1.526 . S
C592 H576 0.959 . S
C592 H577 0.959 . S
C592 H578 0.961 . S
C592 C591 1.502 . S
C593 H579 0.960 . S
C593 H580 0.961 . S
C593 H581 0.959 . S
C593 C591 1.561 . S
C594 C591 1.526 . S
C594 C595 1.396 . S
C594 C599 1.390 . S
C595 C589 1.465 . S
C595 C594 1.396 . S
C595 C596 1.399 . S
C596 H582 0.929 . S
C596 C595 1.399 . S
C596 C597 1.385 . S
C597 H583 0.931 . S
C597 C596 1.385 . S
C597 C598 1.389 . S
C598 C597 1.389 . S
C598 C599 1.387 . S
C599 H584 0.930 . S
C599 C594 1.390 . S
C599 C598 1.387 . S
H600 C612 0.930 . S
H601 C614 0.930 . S
H602 C615 0.930 . S
H603 C619 0.959 1_565 S
H604 C619 0.959 . S
H605 C619 0.961 . S
H606 C620 0.960 . S
H607 C620 0.961 . S
H608 C620 0.959 . S
H609 C623 0.929 . S
H610 C624 0.931 . S
H611 C626 0.930 . S
C612 H600 0.930 . S
C612 C613 1.399 . S
C612 C617 1.399 . S
C613 C612 1.399 . S
C613 C614 1.376 . S
C614 H601 0.930 . S
C614 C613 1.376 . S
C614 C615 1.388 . S
C615 H602 0.930 . S
C615 C614 1.388 . S
C615 C616 1.390 . S
C616 C615 1.390 . S
C616 C617 1.394 . S
C616 C622 1.465 . S
C617 C612 1.399 . S
C617 C616 1.394 . S
C617 C618 1.516 . S
C618 C617 1.516 . S
C618 C619 1.502 1_565 S
C618 C620 1.561 1_565 S
C618 C621 1.526 . S
C619 H603 0.959 1_545 S
C619 H604 0.959 . S
C619 H605 0.961 . S
C619 C618 1.502 1_545 S
C620 H606 0.960 . S
C620 H607 0.961 . S
C620 H608 0.959 . S
C620 C618 1.561 1_545 S
C621 C618 1.526 . S
C621 C622 1.396 . S
C621 C626 1.390 . S
C622 C616 1.465 . S
C622 C621 1.396 . S
C622 C623 1.399 . S
C623 H609 0.929 . S
C623 C622 1.399 . S
C623 C624 1.385 . S
C624 H610 0.931 . S
C624 C623 1.385 . S
C624 C625 1.389 . S
C625 C624 1.389 . S
C625 C626 1.387 . S
C626 H611 0.930 . S
C626 C621 1.390 . S
C626 C625 1.387 . S
H627 C639 0.930 . S
H628 C641 0.930 . S
H629 C642 0.930 . S
H630 C646 0.959 . S
H631 C646 0.959 . S
H632 C646 0.961 . S
H633 C647 0.960 . S
H634 C647 0.961 . S
H635 C647 0.959 . S
H636 C650 0.929 . S
H637 C651 0.931 . S
H638 C653 0.930 . S
C639 H627 0.930 . S
C639 C640 1.399 . S
C639 C644 1.399 . S
C640 C639 1.399 . S
C640 C641 1.376 . S
C641 H628 0.930 . S
C641 C640 1.376 . S
C641 C642 1.388 . S
C642 H629 0.930 . S
C642 C641 1.388 . S
C642 C643 1.390 . S
C643 C642 1.390 . S
C643 C644 1.394 . S
C643 C649 1.465 . S
C644 C639 1.399 . S
C644 C643 1.394 . S
C644 C645 1.516 . S
C645 C644 1.516 . S
C645 C646 1.502 . S
C645 C647 1.561 . S
C645 C648 1.526 . S
C646 H630 0.959 . S
C646 H631 0.959 . S
C646 H632 0.961 . S
C646 C645 1.502 . S
C647 H633 0.960 . S
C647 H634 0.961 . S
C647 H635 0.959 . S
C647 C645 1.561 . S
C648 C645 1.526 . S
C648 C649 1.396 . S
C648 C653 1.390 . S
C649 C643 1.465 . S
C649 C648 1.396 . S
C649 C650 1.399 . S
C650 H636 0.929 . S
C650 C649 1.399 . S
C650 C651 1.385 . S
C651 H637 0.931 . S
C651 C650 1.385 . S
C651 C652 1.389 . S
C652 C651 1.389 . S
C652 C653 1.387 . S
C653 H638 0.930 . S
C653 C648 1.390 . S
C653 C652 1.387 . S
H654 C666 0.930 . S
H655 C668 0.930 . S
H656 C669 0.930 . S
H657 C673 0.959 . S
H658 C673 0.959 . S
H659 C673 0.961 . S
H660 C674 0.960 . S
H661 C674 0.961 . S
H662 C674 0.959 . S
H663 C677 0.929 . S
H664 C678 0.931 . S
H665 C680 0.930 . S
C666 H654 0.930 . S
C666 C667 1.399 . S
C666 C671 1.399 . S
C667 C666 1.399 . S
C667 C668 1.376 . S
C668 H655 0.930 . S
C668 C667 1.376 . S
C668 C669 1.388 . S
C669 H656 0.930 . S
C669 C668 1.388 . S
C669 C670 1.390 . S
C670 C669 1.390 . S
C670 C671 1.394 . S
C670 C676 1.465 . S
C671 C666 1.399 . S
C671 C670 1.394 . S
C671 C672 1.516 . S
C672 C671 1.516 . S
C672 C673 1.502 . S
C672 C674 1.561 . S
C672 C675 1.526 . S
C673 H657 0.959 . S
C673 H658 0.959 . S
C673 H659 0.961 . S
C673 C672 1.502 . S
C674 H660 0.960 . S
C674 H661 0.961 . S
C674 H662 0.959 . S
C674 C672 1.561 . S
C675 C672 1.526 . S
C675 C676 1.396 . S
C675 C680 1.390 . S
C676 C670 1.465 . S
C676 C675 1.396 . S
C676 C677 1.399 . S
C677 H663 0.929 . S
C677 C676 1.399 . S
C677 C678 1.385 . S
C678 H664 0.931 . S
C678 C677 1.385 . S
C678 C679 1.389 . S
C679 C678 1.389 . S
C679 C680 1.387 . S
C680 H665 0.930 . S
C680 C675 1.390 . S
C680 C679 1.387 . S
H681 C693 0.930 . S
H682 C695 0.930 . S
H683 C696 0.930 . S
H684 C700 0.959 . S
H685 C700 0.959 . S
H686 C700 0.961 . S
H687 C701 0.960 . S
H688 C701 0.961 . S
H689 C701 0.959 . S
H690 C704 0.929 . S
H691 C705 0.931 . S
H692 C707 0.930 . S
C693 H681 0.930 . S
C693 C694 1.399 . S
C693 C698 1.399 . S
C694 C693 1.399 . S
C694 C695 1.376 . S
C695 H682 0.930 . S
C695 C694 1.376 . S
C695 C696 1.388 . S
C696 H683 0.930 . S
C696 C695 1.388 . S
C696 C697 1.390 . S
C697 C696 1.390 . S
C697 C698 1.394 . S
C697 C703 1.465 . S
C698 C693 1.399 . S
C698 C697 1.394 . S
C698 C699 1.516 . S
C699 C698 1.516 . S
C699 C700 1.502 . S
C699 C701 1.561 . S
C699 C702 1.526 . S
C700 H684 0.959 . S
C700 H685 0.959 . S
C700 H686 0.961 . S
C700 C699 1.502 . S
C701 H687 0.960 . S
C701 H688 0.961 . S
C701 H689 0.959 . S
C701 C699 1.561 . S
C702 C699 1.526 . S
C702 C703 1.396 . S
C702 C707 1.390 . S
C703 C697 1.465 . S
C703 C702 1.396 . S
C703 C704 1.399 . S
C704 H690 0.929 . S
C704 C703 1.399 . S
C704 C705 1.385 . S
C705 H691 0.931 . S
C705 C704 1.385 . S
C705 C706 1.389 . S
C706 C705 1.389 . S
C706 C707 1.387 . S
C707 H692 0.930 . S
C707 C702 1.390 . S
C707 C706 1.387 . S
H708 C720 0.930 . S
H709 C722 0.930 . S
H710 C723 0.930 . S
H711 C727 0.959 . S
H712 C727 0.959 . S
H713 C727 0.961 . S
H714 C728 0.960 . S
H715 C728 0.961 . S
H716 C728 0.959 . S
H717 C731 0.929 . S
H718 C732 0.931 . S
H719 C734 0.930 . S
C720 H708 0.930 . S
C720 C721 1.399 . S
C720 C725 1.399 . S
C721 C720 1.399 . S
C721 C722 1.376 . S
C722 H709 0.930 . S
C722 C721 1.376 . S
C722 C723 1.388 . S
C723 H710 0.930 . S
C723 C722 1.388 . S
C723 C724 1.390 . S
C724 C723 1.390 . S
C724 C725 1.394 . S
C724 C730 1.465 . S
C725 C720 1.399 . S
C725 C724 1.394 . S
C725 C726 1.516 . S
C726 C725 1.516 . S
C726 C727 1.502 . S
C726 C728 1.561 . S
C726 C729 1.526 . S
C727 H711 0.959 . S
C727 H712 0.959 . S
C727 H713 0.961 . S
C727 C726 1.502 . S
C728 H714 0.960 . S
C728 H715 0.961 . S
C728 H716 0.959 . S
C728 C726 1.561 . S
C729 C726 1.526 . S
C729 C730 1.396 . S
C729 C734 1.390 . S
C730 C724 1.465 . S
C730 C729 1.396 . S
C730 C731 1.399 . S
C731 H717 0.929 . S
C731 C730 1.399 . S
C731 C732 1.385 . S
C732 H718 0.931 . S
C732 C731 1.385 . S
C732 C733 1.389 . S
C733 C732 1.389 . S
C733 C734 1.387 . S
C734 H719 0.930 . S
C734 C729 1.390 . S
C734 C733 1.387 . S
H735 C747 0.930 . S
H736 C749 0.930 . S
H737 C750 0.930 . S
H738 C754 0.959 . S
H739 C754 0.959 . S
H740 C754 0.961 . S
H741 C755 0.960 . S
H742 C755 0.961 . S
H743 C755 0.959 . S
H744 C758 0.929 . S
H745 C759 0.931 . S
H746 C761 0.930 . S
C747 H735 0.930 . S
C747 C748 1.399 . S
C747 C752 1.399 . S
C748 C747 1.399 . S
C748 C749 1.376 . S
C749 H736 0.930 . S
C749 C748 1.376 . S
C749 C750 1.388 . S
C750 H737 0.930 . S
C750 C749 1.388 . S
C750 C751 1.390 . S
C751 C750 1.390 . S
C751 C752 1.394 . S
C751 C757 1.465 . S
C752 C747 1.399 . S
C752 C751 1.394 . S
C752 C753 1.516 . S
C753 C752 1.516 . S
C753 C754 1.502 . S
C753 C755 1.561 . S
C753 C756 1.526 . S
C754 H738 0.959 . S
C754 H739 0.959 . S
C754 H740 0.961 . S
C754 C753 1.502 . S
C755 H741 0.960 . S
C755 H742 0.961 . S
C755 H743 0.959 . S
C755 C753 1.561 . S
C756 C753 1.526 . S
C756 C757 1.396 . S
C756 C761 1.390 . S
C757 C751 1.465 . S
C757 C756 1.396 . S
C757 C758 1.399 . S
C758 H744 0.929 . S
C758 C757 1.399 . S
C758 C759 1.385 . S
C759 H745 0.931 . S
C759 C758 1.385 . S
C759 C760 1.389 . S
C760 C759 1.389 . S
C760 C761 1.387 . S
C761 H746 0.930 . S
C761 C756 1.390 . S
C761 C760 1.387 . S
H762 C774 0.930 . S
H763 C776 0.930 . S
H764 C777 0.930 . S
H765 C781 0.959 . S
H766 C781 0.959 . S
H767 C781 0.961 . S
H768 C782 0.960 . S
H769 C782 0.961 . S
H770 C782 0.959 . S
H771 C785 0.929 . S
H772 C786 0.931 . S
H773 C788 0.930 . S
C774 H762 0.930 . S
C774 C775 1.399 . S
C774 C779 1.399 . S
C775 C774 1.399 . S
C775 C776 1.376 . S
C776 H763 0.930 . S
C776 C775 1.376 . S
C776 C777 1.388 . S
C777 H764 0.930 . S
C777 C776 1.388 . S
C777 C778 1.390 . S
C778 C777 1.390 . S
C778 C779 1.394 . S
C778 C784 1.465 . S
C779 C774 1.399 . S
C779 C778 1.394 . S
C779 C780 1.516 . S
C780 C779 1.516 . S
C780 C781 1.502 . S
C780 C782 1.561 . S
C780 C783 1.526 . S
C781 H765 0.959 . S
C781 H766 0.959 . S
C781 H767 0.961 . S
C781 C780 1.502 . S
C782 H768 0.960 . S
C782 H769 0.961 . S
C782 H770 0.959 . S
C782 C780 1.561 . S
C783 C780 1.526 . S
C783 C784 1.396 . S
C783 C788 1.390 . S
C784 C778 1.465 . S
C784 C783 1.396 . S
C784 C785 1.399 . S
C785 H771 0.929 . S
C785 C784 1.399 . S
C785 C786 1.385 . S
C786 H772 0.931 . S
C786 C785 1.385 . S
C786 C787 1.389 . S
C787 C786 1.389 . S
C787 C788 1.387 . S
C788 H773 0.930 . S
C788 C783 1.390 . S
C788 C787 1.387 . S
H789 C801 0.930 . S
H790 C803 0.930 . S
H791 C804 0.930 . S
H792 C808 0.959 . S
H793 C808 0.959 . S
H794 C808 0.961 . S
H795 C809 0.960 . S
H796 C809 0.961 . S
H797 C809 0.959 . S
H798 C812 0.929 . S
H799 C813 0.931 . S
H800 C815 0.930 . S
C801 H789 0.930 . S
C801 C802 1.399 . S
C801 C806 1.399 . S
C802 C801 1.399 . S
C802 C803 1.376 . S
C803 H790 0.930 . S
C803 C802 1.376 . S
C803 C804 1.388 . S
C804 H791 0.930 . S
C804 C803 1.388 . S
C804 C805 1.390 . S
C805 C804 1.390 . S
C805 C806 1.394 . S
C805 C811 1.465 . S
C806 C801 1.399 . S
C806 C805 1.394 . S
C806 C807 1.516 . S
C807 C806 1.516 . S
C807 C808 1.502 . S
C807 C809 1.561 . S
C807 C810 1.526 . S
C808 H792 0.959 . S
C808 H793 0.959 . S
C808 H794 0.961 . S
C808 C807 1.502 . S
C809 H795 0.960 . S
C809 H796 0.961 . S
C809 H797 0.959 . S
C809 C807 1.561 . S
C810 C807 1.526 . S
C810 C811 1.396 . S
C810 C815 1.390 . S
C811 C805 1.465 . S
C811 C810 1.396 . S
C811 C812 1.399 . S
C812 H798 0.929 . S
C812 C811 1.399 . S
C812 C813 1.385 . S
C813 H799 0.931 . S
C813 C812 1.385 . S
C813 C814 1.389 . S
C814 C813 1.389 . S
C814 C815 1.387 . S
C815 H800 0.930 . S
C815 C810 1.390 . S
C815 C814 1.387 . S
C181 C8 1.864 . S
C193 C162 1.846 . S
C208 C92 1.856 . S
C220 C22 1.862 . S
C235 C36 1.840 . S
C247 C106 1.877 . S
C262 C120 1.877 . S
C274 C50 1.836 . S
C289 C134 1.875 . S
C301 C64 1.843 . S
C316 C148 1.853 . S
C328 C78 1.857 . S
C343 C49 0.972 . S
C355 C119 0.985 . S
C370 C63 0.991 . S
C382 C133 0.961 . S
C397 C77 0.965 . S
C409 C147 0.954 . S
C424 C161 0.976 . S
C436 C7 0.982 . S
C451 C21 0.992 . S
C463 C91 0.957 . S
C478 C35 0.977 . S
C490 C105 0.981 . S
C505 C121 1.785 . S
C517 C9 1.754 . S
C532 C135 1.756 . S
C544 C23 1.756 . S
C559 C37 1.747 . S
C571 C149 1.783 . S
C586 C51 1.745 . S
C598 C163 1.774 . S
C613 C65 1.762 . S
C625 C93 1.782 . S
C640 C107 1.763 . S
C652 C79 1.782 . S
C667 C6 1.732 . S
C679 C146 1.726 . S
C694 C160 1.677 . S
C706 C20 1.687 . S
C721 C34 1.722 . S
C733 C90 1.711 . S
C748 C48 1.678 . S
C760 C104 1.674 . S
C775 C62 1.729 . S
C787 C118 1.721 . S
C802 C76 1.686 . S
C814 C132 1.697 . S
