# Generated by pormake.
# Topology cds-f, (5)-cn, num edge types: 1
# Building blocks:
#     Node 0, Type 0, BuildingBlock: XOMCOT_clean_sbu_1, # of connection points: 5
#     Node 1, Type 0, BuildingBlock: XOMCOT_clean_sbu_1, # of connection points: 5
#     Node 2, Type 0, BuildingBlock: XOMCOT_clean_sbu_1, # of connection points: 5
#     Node 3, Type 0, BuildingBlock: XOMCOT_clean_sbu_1, # of connection points: 5
#     Node 4, Type 0, BuildingBlock: XOMCOT_clean_sbu_1, # of connection points: 5
#     Node 5, Type 0, BuildingBlock: XOMCOT_clean_sbu_1, # of connection points: 5
#     Node 6, Type 0, BuildingBlock: XOMCOT_clean_sbu_1, # of connection points: 5
#     Node 7, Type 0, BuildingBlock: XOMCOT_clean_sbu_1, # of connection points: 5
#     Node 8, Type 0, BuildingBlock: XOMCOT_clean_sbu_1, # of connection points: 5
#     Node 9, Type 0, BuildingBlock: XOMCOT_clean_sbu_1, # of connection points: 5
#     Node 10, Type 0, BuildingBlock: XOMCOT_clean_sbu_1, # of connection points: 5
#     Node 11, Type 0, BuildingBlock: XOMCOT_clean_sbu_1, # of connection points: 5
#     Node 12, Type 0, BuildingBlock: XOMCOT_clean_sbu_1, # of connection points: 5
#     Node 13, Type 0, BuildingBlock: XOMCOT_clean_sbu_1, # of connection points: 5
#     Node 14, Type 0, BuildingBlock: XOMCOT_clean_sbu_1, # of connection points: 5
#     Node 15, Type 0, BuildingBlock: XOMCOT_clean_sbu_1, # of connection points: 5
#     Edge 16, Type (0, 0), BuildingBlock: EZIPEK_clean_linker_0, # of connection points: 2
#     Edge 17, Type (0, 0), BuildingBlock: EZIPEK_clean_linker_0, # of connection points: 2
#     Edge 18, Type (0, 0), BuildingBlock: EZIPEK_clean_linker_0, # of connection points: 2
#     Edge 19, Type (0, 0), BuildingBlock: EZIPEK_clean_linker_0, # of connection points: 2
#     Edge 20, Type (0, 0), BuildingBlock: EZIPEK_clean_linker_0, # of connection points: 2
#     Edge 21, Type (0, 0), BuildingBlock: EZIPEK_clean_linker_0, # of connection points: 2
#     Edge 22, Type (0, 0), BuildingBlock: EZIPEK_clean_linker_0, # of connection points: 2
#     Edge 23, Type (0, 0), BuildingBlock: EZIPEK_clean_linker_0, # of connection points: 2
#     Edge 24, Type (0, 0), BuildingBlock: EZIPEK_clean_linker_0, # of connection points: 2
#     Edge 25, Type (0, 0), BuildingBlock: EZIPEK_clean_linker_0, # of connection points: 2
#     Edge 26, Type (0, 0), BuildingBlock: EZIPEK_clean_linker_0, # of connection points: 2
#     Edge 27, Type (0, 0), BuildingBlock: EZIPEK_clean_linker_0, # of connection points: 2
#     Edge 28, Type (0, 0), BuildingBlock: EZIPEK_clean_linker_0, # of connection points: 2
#     Edge 29, Type (0, 0), BuildingBlock: EZIPEK_clean_linker_0, # of connection points: 2
#     Edge 30, Type (0, 0), BuildingBlock: EZIPEK_clean_linker_0, # of connection points: 2
#     Edge 31, Type (0, 0), BuildingBlock: EZIPEK_clean_linker_0, # of connection points: 2
#     Edge 32, Type (0, 0), BuildingBlock: EZIPEK_clean_linker_0, # of connection points: 2
#     Edge 33, Type (0, 0), BuildingBlock: EZIPEK_clean_linker_0, # of connection points: 2
#     Edge 34, Type (0, 0), BuildingBlock: EZIPEK_clean_linker_0, # of connection points: 2
#     Edge 35, Type (0, 0), BuildingBlock: EZIPEK_clean_linker_0, # of connection points: 2
#     Edge 36, Type (0, 0), BuildingBlock: EZIPEK_clean_linker_0, # of connection points: 2
#     Edge 37, Type (0, 0), BuildingBlock: EZIPEK_clean_linker_0, # of connection points: 2
#     Edge 38, Type (0, 0), BuildingBlock: EZIPEK_clean_linker_0, # of connection points: 2
#     Edge 39, Type (0, 0), BuildingBlock: EZIPEK_clean_linker_0, # of connection points: 2
#     Edge 40, Type (0, 0), BuildingBlock: EZIPEK_clean_linker_0, # of connection points: 2
#     Edge 41, Type (0, 0), BuildingBlock: EZIPEK_clean_linker_0, # of connection points: 2
#     Edge 42, Type (0, 0), BuildingBlock: EZIPEK_clean_linker_0, # of connection points: 2
#     Edge 43, Type (0, 0), BuildingBlock: EZIPEK_clean_linker_0, # of connection points: 2
#     Edge 44, Type (0, 0), BuildingBlock: EZIPEK_clean_linker_0, # of connection points: 2
#     Edge 45, Type (0, 0), BuildingBlock: EZIPEK_clean_linker_0, # of connection points: 2
#     Edge 46, Type (0, 0), BuildingBlock: EZIPEK_clean_linker_0, # of connection points: 2
#     Edge 47, Type (0, 0), BuildingBlock: EZIPEK_clean_linker_0, # of connection points: 2
#     Edge 48, Type (0, 0), BuildingBlock: EZIPEK_clean_linker_0, # of connection points: 2
#     Edge 49, Type (0, 0), BuildingBlock: EZIPEK_clean_linker_0, # of connection points: 2
#     Edge 50, Type (0, 0), BuildingBlock: EZIPEK_clean_linker_0, # of connection points: 2
#     Edge 51, Type (0, 0), BuildingBlock: EZIPEK_clean_linker_0, # of connection points: 2
#     Edge 52, Type (0, 0), BuildingBlock: EZIPEK_clean_linker_0, # of connection points: 2
#     Edge 53, Type (0, 0), BuildingBlock: EZIPEK_clean_linker_0, # of connection points: 2
#     Edge 54, Type (0, 0), BuildingBlock: EZIPEK_clean_linker_0, # of connection points: 2
#     Edge 55, Type (0, 0), BuildingBlock: EZIPEK_clean_linker_0, # of connection points: 2
# Relax obj value: 0.227
# Max RMSD: 0.179
# Mean RMSD: 0.171
data_MOF--net-cds-f--node1-XOMCOT_clean_sbu_1--edge1-EZIPEK_clean_linker_0
_symmetry_space_group_name_H-M    P1
_symmetry_Int_Tables_number       1
_symmetry_cell_setting            triclinic
loop_
_symmetry_equiv_pos_as_xyz
'x, y, z'
_cell_length_a     27.281688
_cell_length_b     27.318997
_cell_length_c     39.79201
_cell_angle_alpha  93.657913
_cell_angle_beta   89.952953
_cell_angle_gamma 90.12517
loop_
_atom_site_label
_atom_site_type_symbol
_atom_site_fract_x
_atom_site_fract_y
_atom_site_fract_z
_atom_type_partial_charge
C0 C 0.30847 0.28856 0.23157 0.0
C1 C 0.35895 0.29117 0.23218 0.0
N2 N 0.37681 0.24887 0.21804 0.0
N3 N 0.29423 0.24516 0.21654 0.0
C4 C 0.33693 0.22136 0.20911 0.0
H5 H 0.28356 0.31702 0.24087 0.0
Co6 Co 0.22772 0.22762 0.2082 0.0
C7 C 0.22517 0.17771 0.14054 0.0
O8 O 0.18466 0.20272 0.13681 0.0
N9 N 0.15961 0.20889 0.20122 0.0
C10 C 0.09485 0.15837 0.19491 0.0
C11 C 0.14518 0.16132 0.19767 0.0
C12 C 0.11645 0.23396 0.2012 0.0
N13 N 0.07706 0.2042 0.19729 0.0
O14 O 0.23268 0.17957 0.24092 0.0
H15 H 0.16992 0.13041 0.19723 0.0
H16 H 0.1125 0.27312 0.20419 0.0
O17 O 0.24782 0.18232 0.16895 0.0
C18 C 0.2168 0.20356 0.26742 0.0
O19 O 0.20104 0.24857 0.26493 0.0
N20 N 0.22303 0.28008 0.18059 0.0
C21 C 0.23303 0.37526 0.1607 0.0
C22 C 0.26205 0.33743 0.14581 0.0
C23 C 0.25571 0.2895 0.15566 0.0
C24 C 0.19557 0.31694 0.19529 0.0
C25 C 0.19686 0.36358 0.18378 0.0
H26 H 0.28113 0.2616 0.14628 0.0
H27 H 0.17694 0.31189 0.2187 0.0
H28 H 0.33898 0.18484 0.19726 0.0
H29 H 0.38092 0.32203 0.24172 0.0
H30 H 0.07298 0.12529 0.1918 0.0
H31 H 0.29149 0.34538 0.12869 0.0
H32 H 0.17478 0.39202 0.19653 0.0
C33 C 0.71006 0.38733 0.6899 0.0
C34 C 0.71103 0.43769 0.69336 0.0
N35 N 0.7562 0.45289 0.68544 0.0
N36 N 0.75416 0.37009 0.67923 0.0
C37 C 0.78216 0.41123 0.67803 0.0
H38 H 0.67814 0.36463 0.69323 0.0
Co39 Co 0.76049 0.30202 0.66604 0.0
C40 C 0.84037 0.33826 0.61475 0.0
O41 O 0.82934 0.38493 0.61437 0.0
N42 N 0.7648 0.23412 0.65256 0.0
C43 C 0.77094 0.16857 0.61648 0.0
C44 C 0.77098 0.21864 0.61988 0.0
C45 C 0.75914 0.19191 0.66851 0.0
N46 N 0.76318 0.15153 0.64693 0.0
O47 O 0.80442 0.29389 0.70414 0.0
H48 H 0.77349 0.2424 0.59925 0.0
H49 H 0.75049 0.19064 0.69497 0.0
O50 O 0.81526 0.31123 0.63365 0.0
C51 C 0.77832 0.2856 0.73007 0.0
O52 O 0.73056 0.28258 0.72632 0.0
N53 N 0.71293 0.30915 0.63266 0.0
C54 C 0.62712 0.32616 0.59762 0.0
C55 C 0.6719 0.34473 0.58667 0.0
C56 C 0.71465 0.33634 0.60499 0.0
C57 C 0.67013 0.28823 0.64201 0.0
C58 C 0.62682 0.29632 0.62491 0.0
H59 H 0.74799 0.35362 0.5977 0.0
H60 H 0.66919 0.26744 0.66424 0.0
H61 H 0.82047 0.4112 0.67138 0.0
H62 H 0.68003 0.46151 0.69898 0.0
H63 H 0.77373 0.14619 0.5931 0.0
H64 H 0.67327 0.36772 0.5655 0.0
H65 H 0.59283 0.28132 0.63397 0.0
C66 C 0.84795 0.72482 0.09921 0.0
C67 C 0.8982 0.7202 0.09756 0.0
N68 N 0.91777 0.74985 0.12233 0.0
N69 N 0.836 0.7568 0.12517 0.0
C70 C 0.87946 0.77178 0.13863 0.0
H71 H 0.8217 0.70597 0.08262 0.0
Co72 Co 0.7723 0.77549 0.13784 0.0
C73 C 0.78998 0.81825 0.21056 0.0
O74 O 0.76698 0.85978 0.20715 0.0
N75 N 0.70622 0.79581 0.15055 0.0
C76 C 0.6415 0.84582 0.15835 0.0
C77 C 0.69142 0.84326 0.15385 0.0
C78 C 0.6636 0.7704 0.15409 0.0
N79 N 0.62406 0.79994 0.15829 0.0
O80 O 0.78763 0.8403 0.12482 0.0
H81 H 0.71488 0.87481 0.1518 0.0
H82 H 0.66037 0.73102 0.15257 0.0
O83 O 0.79394 0.78699 0.18528 0.0
C84 C 0.7755 0.83782 0.09365 0.0
O85 O 0.75299 0.79792 0.0815 0.0
N86 N 0.75861 0.71 0.14483 0.0
C87 C 0.74659 0.60863 0.14197 0.0
C88 C 0.78015 0.63176 0.16451 0.0
C89 C 0.78564 0.68264 0.16556 0.0
C90 C 0.72893 0.68752 0.12096 0.0
C91 C 0.72064 0.63714 0.12006 0.0
H92 H 0.81352 0.69955 0.1817 0.0
H93 H 0.71135 0.70906 0.10254 0.0
H94 H 0.88309 0.79824 0.15992 0.0
H95 H 0.91887 0.69713 0.07955 0.0
H96 H 0.61935 0.87872 0.15979 0.0
H97 H 0.80213 0.61057 0.18096 0.0
H98 H 0.69528 0.62039 0.10179 0.0
C99 C 0.37828 0.71358 0.67618 0.0
C100 C 0.37891 0.66494 0.683 0.0
N101 N 0.33244 0.6492 0.68467 0.0
N102 N 0.33157 0.72901 0.67273 0.0
C103 C 0.30427 0.68888 0.67933 0.0
H104 H 0.41046 0.73618 0.67414 0.0
Co105 Co 0.31607 0.79511 0.66294 0.0
C106 C 0.24264 0.73721 0.61677 0.0
O107 O 0.26921 0.69715 0.61499 0.0
N108 N 0.30255 0.86119 0.65399 0.0
C109 C 0.28101 0.9266 0.62664 0.0
C110 C 0.28223 0.87623 0.62546 0.0
C111 C 0.31477 0.90359 0.67175 0.0
N112 N 0.30184 0.94389 0.65565 0.0
O113 O 0.27645 0.80162 0.70316 0.0
H114 H 0.27157 0.85227 0.60411 0.0
H115 H 0.33446 0.90513 0.69537 0.0
O116 O 0.2585 0.77467 0.63466 0.0
C117 C 0.30368 0.81549 0.72815 0.0
O118 O 0.35079 0.82146 0.7228 0.0
N119 N 0.35934 0.79121 0.62593 0.0
C120 C 0.44091 0.78185 0.58396 0.0
C121 C 0.3946 0.76678 0.572 0.0
C122 C 0.3539 0.77182 0.59356 0.0
C123 C 0.40313 0.81074 0.63631 0.0
C124 C 0.44449 0.80584 0.61598 0.0
H125 H 0.31893 0.75944 0.58403 0.0
H126 H 0.40654 0.82748 0.66158 0.0
H127 H 0.2646 0.6884 0.67965 0.0
H128 H 0.41107 0.64254 0.68616 0.0
H129 H 0.26838 0.94894 0.60687 0.0
H130 H 0.39038 0.74966 0.54685 0.0
H131 H 0.47953 0.81896 0.62576 0.0
C132 C 0.38399 0.7502 0.90364 0.0
C133 C 0.43373 0.75553 0.8998 0.0
N134 N 0.44456 0.80347 0.90399 0.0
N135 N 0.36313 0.7946 0.91064 0.0
C136 C 0.40127 0.8266 0.90993 0.0
H137 H 0.36433 0.71577 0.90111 0.0
Co138 Co 0.29452 0.80586 0.91692 0.0
C139 C 0.3379 0.8509 0.9839 0.0
O140 O 0.3819 0.83278 0.97869 0.0
N141 N 0.22686 0.81656 0.92329 0.0
C142 C 0.15486 0.81489 0.94943 0.0
C143 C 0.20445 0.81064 0.95307 0.0
C144 C 0.18965 0.82465 0.90175 0.0
N145 N 0.14538 0.82337 0.9172 0.0
O146 O 0.30011 0.86596 0.89436 0.0
H147 H 0.22284 0.80141 0.97586 0.0
H148 H 0.19461 0.82936 0.87518 0.0
O149 O 0.30473 0.84098 0.9617 0.0
C150 C 0.29431 0.88186 0.86487 0.0
O151 O 0.30357 0.92862 0.86189 0.0
N152 N 0.28712 0.74499 0.93575 0.0
C153 C 0.27199 0.64937 0.95305 0.0
C154 C 0.29945 0.68198 0.97418 0.0
C155 C 0.30688 0.73002 0.96492 0.0
C156 C 0.25934 0.7136 0.91561 0.0
C157 C 0.25139 0.66563 0.92376 0.0
H158 H 0.32938 0.75427 0.98071 0.0
H159 H 0.24334 0.72573 0.89276 0.0
H160 H 0.39759 0.86592 0.91439 0.0
H161 H 0.46011 0.72647 0.89465 0.0
H162 H 0.1275 0.81073 0.96878 0.0
H163 H 0.31603 0.66995 0.99696 0.0
H164 H 0.23 0.64111 0.90703 0.0
C165 C 0.33512 0.20681 0.49553 0.0
C166 C 0.33951 0.15683 0.49826 0.0
N167 N 0.30538 0.13431 0.47844 0.0
N168 N 0.29931 0.21598 0.47325 0.0
C169 C 0.28104 0.17066 0.46427 0.0
H170 H 0.35624 0.23444 0.50972 0.0
Co171 Co 0.27574 0.27825 0.46043 0.0
C172 C 0.21042 0.22329 0.40732 0.0
O173 O 0.1692 0.22612 0.42435 0.0
N174 N 0.25171 0.34015 0.44849 0.0
C175 C 0.20291 0.40018 0.43302 0.0
C176 C 0.20688 0.35034 0.43644 0.0
C177 C 0.27425 0.38461 0.45235 0.0
N178 N 0.24536 0.42168 0.44296 0.0
O179 O 0.21935 0.26874 0.48779 0.0
H180 H 0.17835 0.3235 0.43115 0.0
H181 H 0.31086 0.38988 0.46241 0.0
O182 O 0.24819 0.24473 0.42003 0.0
C183 C 0.22828 0.29125 0.51623 0.0
O184 O 0.26745 0.31938 0.51863 0.0
N185 N 0.33294 0.28923 0.43633 0.0
C186 C 0.42303 0.30351 0.40627 0.0
C187 C 0.3807 0.29896 0.38649 0.0
C188 C 0.3356 0.29204 0.40216 0.0
C189 C 0.3731 0.29882 0.45588 0.0
C190 C 0.41882 0.30493 0.44135 0.0
H191 H 0.30307 0.28927 0.38672 0.0
H192 H 0.36958 0.30195 0.48293 0.0
H193 H 0.25006 0.16371 0.44787 0.0
H194 H 0.36536 0.13846 0.51376 0.0
H195 H 0.17111 0.41931 0.4243 0.0
H196 H 0.38273 0.29978 0.35935 0.0
H197 H 0.45073 0.31049 0.45736 0.0
C198 C 0.84235 0.33506 0.98475 0.0
C199 C 0.89166 0.33319 0.99161 0.0
N200 N 0.91146 0.29729 0.97139 0.0
N201 N 0.83088 0.3014 0.95956 0.0
C202 C 0.87384 0.27771 0.95272 0.0
H203 H 0.81627 0.35994 0.99714 0.0
Co204 Co 0.76486 0.29216 0.94431 0.0
C205 C 0.81863 0.28123 0.87381 0.0
O206 O 0.86229 0.29611 0.88368 0.0
N207 N 0.69768 0.2816 0.93102 0.0
C208 C 0.6283 0.27386 0.90126 0.0
C209 C 0.67861 0.27774 0.89955 0.0
C210 C 0.65771 0.2791 0.95135 0.0
N211 N 0.61522 0.27494 0.93385 0.0
O212 O 0.76807 0.2253 0.95734 0.0
H213 H 0.6993 0.27918 0.87651 0.0
H214 H 0.65934 0.28331 0.97854 0.0
O215 O 0.78407 0.27678 0.89551 0.0
C216 C 0.75814 0.23166 0.98882 0.0
O217 O 0.74869 0.27641 1.0012 0.0
N218 N 0.76029 0.35997 0.93613 0.0
C219 C 0.75746 0.46219 0.93586 0.0
C220 C 0.79978 0.43626 0.92587 0.0
C221 C 0.79988 0.38528 0.92512 0.0
C222 C 0.71927 0.38517 0.94679 0.0
C223 C 0.71622 0.43585 0.94522 0.0
H224 H 0.83315 0.36669 0.9176 0.0
H225 H 0.68906 0.36698 0.95802 0.0
H226 H 0.87759 0.2467 0.93461 0.0
H227 H 0.91163 0.35659 1.00985 0.0
H228 H 0.60305 0.27227 0.88025 0.0
H229 H 0.83268 0.45532 0.91872 0.0
H230 H 0.68279 0.4546 0.95314 0.0
C231 C 0.78741 0.84119 0.46606 0.0
C232 C 0.78186 0.89113 0.47089 0.0
N233 N 0.79415 0.91155 0.44215 0.0
N234 N 0.80368 0.82981 0.43453 0.0
C235 C 0.80722 0.87359 0.42041 0.0
H236 H 0.78056 0.81462 0.48454 0.0
Co237 Co 0.81813 0.76442 0.42056 0.0
C238 C 0.82386 0.75938 0.34632 0.0
O239 O 0.79487 0.72139 0.34939 0.0
N240 N 0.83448 0.69653 0.40845 0.0
C241 C 0.87593 0.63108 0.38682 0.0
C242 C 0.8726 0.68154 0.38853 0.0
C243 C 0.81729 0.65389 0.42006 0.0
N244 N 0.84106 0.61386 0.4068 0.0
O245 O 0.88178 0.77474 0.44039 0.0
H246 H 0.89732 0.70586 0.37636 0.0
H247 H 0.78995 0.65134 0.43936 0.0
O248 O 0.83878 0.7829 0.37366 0.0
C249 C 0.88079 0.75864 0.46993 0.0
O250 O 0.84655 0.72659 0.47619 0.0
N251 N 0.75295 0.75696 0.40618 0.0
C252 C 0.6517 0.76112 0.40019 0.0
C253 C 0.68134 0.79295 0.38302 0.0
C254 C 0.73194 0.78989 0.386 0.0
C255 C 0.7241 0.72706 0.42385 0.0
C256 C 0.67366 0.72607 0.41941 0.0
H257 H 0.75383 0.81678 0.37409 0.0
H258 H 0.73908 0.70788 0.44413 0.0
H259 H 0.8188 0.87777 0.39479 0.0
H260 H 0.76908 0.91102 0.49361 0.0
H261 H 0.9028 0.60884 0.3729 0.0
H262 H 0.6655 0.82156 0.36884 0.0
H263 H 0.65159 0.70216 0.43406 0.0
C264 C 0.87685 0.75847 0.90607 0.0
C265 C 0.92718 0.75862 0.90547 0.0
N266 N 0.94264 0.80424 0.9001 0.0
N267 N 0.85988 0.80412 0.90186 0.0
C268 C 0.90123 0.83091 0.89749 0.0
H269 H 0.85452 0.72663 0.90937 0.0
Co270 Co 0.79328 0.82652 0.90087 0.0
C271 C 0.83251 0.8693 0.96832 0.0
O272 O 0.87091 0.84046 0.96619 0.0
N273 N 0.72732 0.85058 0.89974 0.0
C274 C 0.66663 0.90577 0.90078 0.0
C275 C 0.71668 0.89903 0.90056 0.0
C276 C 0.68242 0.82875 0.89967 0.0
N277 N 0.64535 0.86142 0.90015 0.0
O278 O 0.81347 0.87681 0.87168 0.0
H279 H 0.74379 0.92802 0.90168 0.0
H280 H 0.67592 0.78987 0.9 0.0
O281 O 0.80156 0.86707 0.94398 0.0
C282 C 0.8162 0.85151 0.84339 0.0
O283 O 0.8066 0.80434 0.8428 0.0
N284 N 0.77251 0.77211 0.92316 0.0
C285 C 0.75873 0.67421 0.93565 0.0
C286 C 0.77683 0.70753 0.9611 0.0
C287 C 0.78218 0.75718 0.95462 0.0
C288 C 0.75338 0.74016 0.89895 0.0
C289 C 0.74357 0.69198 0.90525 0.0
H290 H 0.7979 0.78179 0.97384 0.0
H291 H 0.747 0.75195 0.87393 0.0
H292 H 0.90112 0.86957 0.89303 0.0
H293 H 0.9508 0.7274 0.90847 0.0
H294 H 0.64734 0.94042 0.90193 0.0
H295 H 0.78891 0.69492 0.98498 0.0
H296 H 0.72887 0.66755 0.88519 0.0
C297 C 0.33445 0.6942 0.45838 0.0
C298 C 0.33303 0.64408 0.45975 0.0
N299 N 0.28958 0.62789 0.44768 0.0
N300 N 0.29267 0.71031 0.44453 0.0
C301 C 0.26541 0.6687 0.43896 0.0
H302 H 0.36404 0.71762 0.46776 0.0
Co303 Co 0.27938 0.77904 0.4419 0.0
C304 C 0.24802 0.74474 0.3679 0.0
O305 O 0.24974 0.697 0.36992 0.0
N306 N 0.26518 0.84829 0.44065 0.0
C307 C 0.22425 0.91593 0.42837 0.0
C308 C 0.22576 0.86548 0.42443 0.0
C309 C 0.28609 0.88981 0.45519 0.0
N310 N 0.26239 0.93107 0.44762 0.0
O311 O 0.21689 0.76946 0.46262 0.0
H312 H 0.19919 0.84271 0.41063 0.0
H313 H 0.31717 0.89086 0.47183 0.0
O314 O 0.25598 0.77256 0.3944 0.0
C315 C 0.22682 0.78016 0.49367 0.0
O316 O 0.27081 0.79711 0.50135 0.0
N317 N 0.34283 0.78779 0.42547 0.0
C318 C 0.44265 0.78812 0.41201 0.0
C319 C 0.41086 0.75932 0.39153 0.0
C320 C 0.36095 0.76018 0.39841 0.0
C321 C 0.37389 0.81418 0.44637 0.0
C322 C 0.42338 0.81773 0.4388 0.0
H323 H 0.3381 0.73472 0.3839 0.0
H324 H 0.36153 0.82843 0.47071 0.0
H325 H 0.22823 0.66832 0.42954 0.0
H326 H 0.36122 0.62126 0.46973 0.0
H327 H 0.19744 0.93972 0.4178 0.0
H328 H 0.42475 0.73453 0.37142 0.0
H329 H 0.44723 0.83905 0.4559 0.0
C330 C 0.35414 0.30865 1.01444 0.0
C331 C 0.40451 0.30929 1.01223 0.0
N332 N 0.41729 0.28855 0.98206 0.0
N333 N 0.33444 0.28938 0.98523 0.0
C334 C 0.37464 0.27546 0.96665 0.0
H335 H 0.33382 0.31938 1.03698 0.0
Co336 Co 0.26584 0.27553 0.97613 0.0
C337 C 0.30189 0.29129 0.90715 0.0
O338 O 0.32038 0.33264 0.92038 0.0
N339 N 0.19934 0.25931 0.96742 0.0
C340 C 0.13482 0.21659 0.9474 0.0
C341 C 0.18514 0.2184 0.94912 0.0
C342 C 0.15667 0.28174 0.97687 0.0
N343 N 0.11701 0.25641 0.96477 0.0
O344 O 0.2777 0.20943 0.9878 0.0
H345 H 0.21 0.19153 0.93753 0.0
H346 H 0.15466 0.31605 0.99198 0.0
O347 O 0.28063 0.262 0.9267 0.0
C348 C 0.26825 0.21393 1.01939 0.0
O349 O 0.25389 0.25684 1.03258 0.0
N350 N 0.25162 0.34212 0.97032 0.0
C351 C 0.2436 0.44271 0.96715 0.0
C352 C 0.25881 0.42293 0.99681 0.0
C353 C 0.26067 0.37233 0.9982 0.0
C354 C 0.22913 0.36056 0.94311 0.0
C355 C 0.22597 0.41134 0.9406 0.0
H356 H 0.26969 0.35731 1.02169 0.0
H357 H 0.21605 0.33624 0.92255 0.0
H358 H 0.37318 0.25469 0.94266 0.0
H359 H 0.4299 0.32291 1.03153 0.0
H360 H 0.11289 0.18854 0.93409 0.0
H361 H 0.27025 0.44642 1.01834 0.0
H362 H 0.21208 0.42589 0.91779 0.0
C363 C 0.77149 0.36051 0.4725 0.0
C364 C 0.77958 0.41014 0.47095 0.0
N365 N 0.80277 0.41747 0.44186 0.0
N366 N 0.78969 0.33642 0.44458 0.0
C367 C 0.80853 0.37235 0.4263 0.0
H368 H 0.7525 0.34311 0.49243 0.0
Co369 Co 0.78285 0.26811 0.43521 0.0
C370 C 0.8395 0.24192 0.37223 0.0
O371 O 0.86132 0.20595 0.38658 0.0
N372 N 0.77485 0.19889 0.42516 0.0
C373 C 0.75301 0.13013 0.39541 0.0
C374 C 0.75273 0.18031 0.39659 0.0
C375 C 0.78817 0.15836 0.44105 0.0
N376 N 0.77527 0.11631 0.42327 0.0
O377 O 0.84374 0.25908 0.4588 0.0
H378 H 0.73796 0.20195 0.37716 0.0
H379 H 0.80712 0.15933 0.46491 0.0
O380 O 0.81359 0.27202 0.39078 0.0
C381 C 0.83197 0.25594 0.48979 0.0
O382 O 0.78558 0.24862 0.49688 0.0
N383 N 0.72164 0.2792 0.41678 0.0
C384 C 0.6262 0.29625 0.39711 0.0
C385 C 0.66532 0.31597 0.37971 0.0
C386 C 0.71317 0.30739 0.39027 0.0
C387 C 0.68377 0.26068 0.43431 0.0
C388 C 0.63558 0.26832 0.42464 0.0
H389 H 0.74313 0.32445 0.3778 0.0
H390 H 0.6912 0.23996 0.45602 0.0
H391 H 0.82508 0.36599 0.4018 0.0
H392 H 0.76814 0.43882 0.4893 0.0
H393 H 0.73823 0.10547 0.37554 0.0
H394 H 0.65868 0.33863 0.35885 0.0
H395 H 0.60582 0.25316 0.43877 0.0
C396 C 0.81325 0.31705 0.19135 0.0
C397 C 0.86358 0.31641 0.1947 0.0
N398 N 0.8781 0.26935 0.19337 0.0
N399 N 0.79618 0.27059 0.18681 0.0
C400 C 0.83672 0.24243 0.18963 0.0
H401 H 0.79055 0.34944 0.19255 0.0
Co402 Co 0.72977 0.24852 0.18414 0.0
C403 C 0.77552 0.19814 0.11925 0.0
O404 O 0.81947 0.21676 0.12408 0.0
N405 N 0.66249 0.22418 0.18331 0.0
C406 C 0.59754 0.17597 0.17068 0.0
C407 C 0.64722 0.18214 0.16652 0.0
C408 C 0.62096 0.24078 0.19946 0.0
N409 N 0.58096 0.21312 0.1912 0.0
O410 O 0.74644 0.20237 0.21709 0.0
H411 H 0.67037 0.15703 0.15173 0.0
H412 H 0.61956 0.27208 0.21744 0.0
O413 O 0.74318 0.20446 0.14258 0.0
C414 C 0.74083 0.23184 0.24329 0.0
O415 O 0.72081 0.27431 0.23776 0.0
N416 N 0.71351 0.30068 0.15632 0.0
C417 C 0.7136 0.39824 0.13939 0.0
C418 C 0.74554 0.3642 0.12329 0.0
C419 C 0.74362 0.31508 0.1312 0.0
C420 C 0.67951 0.33291 0.16974 0.0
C421 C 0.67695 0.38086 0.16008 0.0
H422 H 0.77192 0.29158 0.12092 0.0
H423 H 0.65872 0.32477 0.19138 0.0
H424 H 0.83605 0.20272 0.18846 0.0
H425 H 0.88765 0.34789 0.19799 0.0
H426 H 0.57509 0.14687 0.15906 0.0
H427 H 0.7745 0.37608 0.10701 0.0
H428 H 0.65137 0.40604 0.17284 0.0
C429 C 0.69968 0.87324 0.65281 0.0
C430 C 0.69385 0.92316 0.65627 0.0
N431 N 0.73768 0.94438 0.65181 0.0
N432 N 0.74706 0.86223 0.64592 0.0
C433 C 0.76953 0.90673 0.6461 0.0
H434 H 0.67112 0.8469 0.65678 0.0
Co435 Co 0.772 0.79724 0.64498 0.0
C436 C 0.8313 0.84078 0.58803 0.0
O437 O 0.79634 0.8715 0.58105 0.0
N438 N 0.79498 0.73147 0.64517 0.0
C439 C 0.82365 0.65849 0.62602 0.0
C440 C 0.82076 0.70743 0.62027 0.0
C441 C 0.78143 0.69549 0.66545 0.0
N442 N 0.79871 0.65072 0.65432 0.0
O443 O 0.81474 0.81837 0.68177 0.0
H444 H 0.83247 0.72301 0.59741 0.0
H445 H 0.75643 0.7013 0.68645 0.0
O446 O 0.82382 0.81147 0.61147 0.0
C447 C 0.79106 0.82128 0.70958 0.0
O448 O 0.74562 0.80519 0.70953 0.0
N449 N 0.7262 0.77649 0.61182 0.0
C450 C 0.63899 0.76229 0.57652 0.0
C451 C 0.68241 0.77246 0.55932 0.0
C452 C 0.72615 0.77947 0.57762 0.0
C453 C 0.68588 0.75976 0.62766 0.0
C454 C 0.64169 0.75321 0.61066 0.0
H455 H 0.75885 0.78858 0.56428 0.0
H456 H 0.687 0.75583 0.65453 0.0
H457 H 0.80858 0.91156 0.64274 0.0
H458 H 0.65995 0.94261 0.66179 0.0
H459 H 0.83921 0.62997 0.60914 0.0
H460 H 0.68187 0.77767 0.53256 0.0
H461 H 0.60915 0.74398 0.62459 0.0
C462 C 0.35783 0.70075 0.1303 0.0
C463 C 0.40815 0.70291 0.13013 0.0
N464 N 0.42205 0.74381 0.14817 0.0
N465 N 0.33955 0.73949 0.14909 0.0
C466 C 0.37992 0.76575 0.15909 0.0
H467 H 0.33591 0.67316 0.11663 0.0
Co468 Co 0.27139 0.75368 0.15268 0.0
C469 C 0.29828 0.76976 0.22952 0.0
O470 O 0.34535 0.76014 0.22783 0.0
N471 N 0.20296 0.76982 0.15588 0.0
C472 C 0.13827 0.81632 0.17145 0.0
C473 C 0.1883 0.81143 0.17337 0.0
C474 C 0.16029 0.75035 0.14323 0.0
N475 N 0.12088 0.77781 0.15257 0.0
O476 O 0.28498 0.81926 0.14028 0.0
H477 H 0.21274 0.83727 0.18655 0.0
H478 H 0.15705 0.71741 0.12707 0.0
O479 O 0.27296 0.7696 0.20243 0.0
C480 C 0.27973 0.8147 0.10824 0.0
O481 O 0.26448 0.77228 0.09463 0.0
N482 N 0.25926 0.68756 0.15977 0.0
C483 C 0.25487 0.58545 0.15792 0.0
C484 C 0.28338 0.61189 0.18216 0.0
C485 C 0.28398 0.66288 0.18325 0.0
C486 C 0.23531 0.66201 0.13421 0.0
C487 C 0.22975 0.61132 0.13407 0.0
H488 H 0.3077 0.68186 0.20124 0.0
H489 H 0.22322 0.68049 0.11256 0.0
H490 H 0.37851 0.80094 0.17317 0.0
H491 H 0.43273 0.67744 0.11673 0.0
H492 H 0.11631 0.84589 0.18285 0.0
H493 H 0.3051 0.59321 0.20017 0.0
H494 H 0.20848 0.59229 0.1143 0.0
C495 C 0.39239 0.2129 0.69317 0.0
C496 C 0.39279 0.16257 0.6902 0.0
N497 N 0.34628 0.14666 0.68781 0.0
N498 N 0.34571 0.22959 0.69224 0.0
C499 C 0.31838 0.1877 0.6901 0.0
H500 H 0.42482 0.23523 0.69635 0.0
Co501 Co 0.32441 0.29725 0.69641 0.0
C502 C 0.26311 0.25373 0.64005 0.0
O503 O 0.30168 0.2285 0.62936 0.0
N504 N 0.30279 0.36344 0.70131 0.0
C505 C 0.25206 0.42683 0.71093 0.0
C506 C 0.25703 0.37669 0.71112 0.0
C507 C 0.3252 0.40666 0.69555 0.0
N508 N 0.2949 0.44562 0.7011 0.0
O509 O 0.29013 0.28383 0.73781 0.0
H510 H 0.2286 0.3513 0.71761 0.0
H511 H 0.36268 0.4097 0.68704 0.0
O512 O 0.26669 0.2818 0.66706 0.0
C513 C 0.32252 0.28084 0.7609 0.0
O514 O 0.36884 0.28092 0.75183 0.0
N515 N 0.36324 0.31317 0.65941 0.0
C516 C 0.43602 0.33565 0.61384 0.0
C517 C 0.38671 0.33512 0.60397 0.0
C518 C 0.35042 0.32476 0.62758 0.0
C519 C 0.41038 0.31929 0.66993 0.0
C520 C 0.44746 0.32916 0.64748 0.0
H521 H 0.31253 0.32702 0.62026 0.0
H522 H 0.4192 0.31646 0.6962 0.0
H523 H 0.27873 0.18717 0.68922 0.0
H524 H 0.42489 0.13928 0.68899 0.0
H525 H 0.2194 0.44792 0.71721 0.0
H526 H 0.37651 0.34262 0.57851 0.0
H527 H 0.48501 0.33159 0.65634 0.0
C528 C 0.9475 0.23611 0.2247 0.0
C529 C 0.92788 0.25157 0.19419 0.0
C530 C 1.00677 0.23519 0.16568 0.0
C531 C 1.02622 0.21893 0.19604 0.0
N532 N 1.01586 0.20006 0.25368 0.0
N533 N 0.93553 0.26222 0.13503 0.0
C534 C 0.9966 0.21815 0.22535 0.0
C535 C 0.95673 0.25015 0.16447 0.0
N536 N 0.91921 0.24007 0.25311 0.0
N537 N 0.03672 0.23666 0.13821 0.0
H538 H 0.89937 0.27425 0.1338 0.0
H539 H 0.95244 0.25832 0.11158 0.0
H540 H 0.07274 0.22389 0.13819 0.0
H541 H 1.02701 0.25189 0.11588 0.0
H542 H 0.93141 0.23282 0.27703 0.0
H543 H 0.88325 0.25299 0.25297 0.0
H544 H 0.99602 0.19462 0.27545 0.0
H545 H 0.0521 0.18839 0.25487 0.0
C546 C 0.78695 0.07336 0.6715 0.0
C547 C 0.75396 0.10049 0.65243 0.0
C548 C 0.7168 1.02393 0.62944 0.0
C549 C 0.74609 0.9967 0.65095 0.0
N550 N 0.80367 0.99668 0.69691 0.0
N551 N 0.67962 0.10225 0.62024 0.0
C552 C 0.77976 1.02173 0.67332 0.0
C553 C 0.7163 0.07581 0.63368 0.0
N554 N 0.82625 0.09649 0.68665 0.0
N555 N 0.69131 1.00019 0.60374 0.0
H556 H 0.67748 0.14034 0.62413 0.0
H557 H 0.64889 0.08607 0.60859 0.0
H558 H 0.69373 0.9624 0.59837 0.0
H559 H 0.67262 1.01853 0.58549 0.0
H560 H 0.85445 0.07792 0.698 0.0
H561 H 0.83242 0.13403 0.68559 0.0
H562 H 0.82469 1.0138 0.71611 0.0
H563 H 0.79939 0.95913 0.69891 0.0
C564 C 0.98949 0.73565 0.15841 0.0
C565 C 0.96923 0.75635 0.12977 0.0
C566 C 0.05062 0.78623 0.11421 0.0
C567 C 0.07016 0.76855 0.14408 0.0
N568 N 0.05925 0.7299 0.19604 0.0
N569 N 0.97812 0.80484 0.08189 0.0
C570 C 0.03979 0.74416 0.1666 0.0
C571 C 0.99928 0.78243 0.10794 0.0
N572 N 0.96079 0.70642 0.17696 0.0
N573 N 0.08161 0.80619 0.09182 0.0
H574 H 0.94069 0.80238 0.07678 0.0
H575 H 0.99664 0.82835 0.06666 0.0
H576 H 0.11909 0.81013 0.09637 0.0
H577 H 0.07115 0.81597 0.06803 0.0
H578 H 0.97387 0.68644 0.19645 0.0
H579 H 0.92403 0.69939 0.17124 0.0
H580 H 0.03856 0.71637 0.21538 0.0
H581 H 0.09638 0.73409 0.20186 0.0
C582 C 0.34384 1.02117 0.64322 0.0
C583 C 0.31339 0.99488 0.66468 0.0
C584 C 0.30461 0.0695 0.70231 0.0
C585 C 0.33146 0.09649 0.67918 0.0
N586 N 0.36601 0.10051 0.62382 0.0
N587 N 0.25735 0.99595 0.71132 0.0
C588 C 0.34788 0.07296 0.64846 0.0
C589 C 0.2917 1.01961 0.69341 0.0
N590 N 0.37053 0.99631 0.61865 0.0
N591 N 0.29285 0.09109 0.73312 0.0
H592 H 0.24634 0.96011 0.70458 0.0
H593 H 0.23686 1.01308 0.73077 0.0
H594 H 0.30193 0.12741 0.74018 0.0
H595 H 0.27752 0.07205 0.75242 0.0
H596 H 0.39672 1.01306 0.60413 0.0
H597 H 0.37029 0.95813 0.61529 0.0
H598 H 0.37441 0.08597 0.59967 0.0
H599 H 0.36754 0.13873 0.62646 0.0
C600 C 1.02489 0.79063 0.87538 0.0
C601 C 0.9935 0.81908 0.89728 0.0
C602 C 0.06554 0.86419 0.91949 0.0
C603 C 0.09648 0.82803 0.90391 0.0
N604 N 0.10538 0.75448 0.86764 0.0
N605 N 0.9851 0.88283 0.94199 0.0
C606 C 0.07631 0.7911 0.88137 0.0
C607 C 1.01394 0.85675 0.91933 0.0
N608 N 1.00517 0.76306 0.84895 0.0
N609 N 0.08612 0.90503 0.93524 0.0
H610 H 0.94743 0.87838 0.94329 0.0
H611 H 0.99908 0.90643 0.96125 0.0
H612 H 0.124 0.91071 0.93545 0.0
H613 H 0.06574 0.93497 0.94485 0.0
H614 H 1.02633 0.74439 0.83049 0.0
H615 H 0.96769 0.76347 0.84368 0.0
H616 H 0.09151 0.72363 0.85408 0.0
H617 H 0.14301 0.75313 0.87177 0.0
C618 C 0.30064 1.009 0.43244 0.0
C619 C 0.27635 0.98143 0.45651 0.0
C620 C 0.27332 0.05457 0.49596 0.0
C621 C 0.29777 0.08205 0.47192 0.0
N622 N 0.34243 0.08467 0.42014 0.0
N623 N 0.24439 0.97493 0.51222 0.0
C624 C 0.31354 0.05894 0.44088 0.0
C625 C 0.26435 1.00338 0.48872 0.0
N626 N 0.31088 0.98716 0.4014 0.0
N627 N 0.25739 0.07815 0.52521 0.0
H628 H 0.23602 0.93798 0.50695 0.0
H629 H 0.23842 0.98678 0.53724 0.0
H630 H 0.26444 0.11523 0.53113 0.0
H631 H 0.23552 0.06209 0.5429 0.0
H632 H 0.32376 1.00589 0.38121 0.0
H633 H 0.3044 0.94999 0.39533 0.0
H634 H 0.35865 0.06966 0.39819 0.0
H635 H 0.35337 0.12072 0.42636 0.0
C636 C 0.98529 0.25847 0.99422 0.0
C637 C 0.96316 0.28576 0.96916 0.0
C638 C 0.0434 0.29545 0.9421 0.0
C639 C 0.06575 0.26937 0.96765 0.0
N640 N 0.06045 0.22892 1.01921 0.0
N641 N 0.9709 0.33671 0.92247 0.0
C642 C 0.03726 0.25175 0.99414 0.0
C643 C 0.99222 0.30591 0.94388 0.0
N644 N 0.95605 0.2386 1.01771 0.0
N645 N 0.07133 0.30925 0.91579 0.0
H646 H 0.93361 0.34499 0.92335 0.0
H647 H 0.99033 0.35665 0.90543 0.0
H648 H 0.10915 0.30371 0.91468 0.0
H649 H 0.05703 0.32376 0.89434 0.0
H650 H 0.9684 0.21548 1.03565 0.0
H651 H 0.91817 0.24372 1.01825 0.0
H652 H 0.04321 0.21769 1.04074 0.0
H653 H 0.09828 0.22325 1.01919 0.0
C654 C 0.82736 0.04226 0.42395 0.0
C655 C 0.78214 0.06598 0.43126 0.0
C656 C 0.74389 0.98658 0.44034 0.0
C657 C 0.79005 0.96314 0.4361 0.0
N658 N 0.8771 0.96916 0.4271 0.0
N659 N 0.69926 0.06284 0.451 0.0
C660 C 0.83224 0.99114 0.42871 0.0
C661 C 0.74102 0.03862 0.44097 0.0
N662 N 0.86498 0.06841 0.41117 0.0
N663 N 0.70245 0.95866 0.44195 0.0
H664 H 0.69653 0.101 0.45161 0.0
H665 H 0.66921 0.04576 0.46142 0.0
H666 H 0.70321 0.92042 0.43955 0.0
H667 H 0.66716 0.97309 0.4421 0.0
H668 H 0.8972 0.05255 0.40167 0.0
H669 H 0.8625 0.10595 0.40805 0.0
H670 H 0.90995 0.98839 0.42571 0.0
H671 H 0.88173 0.93169 0.42913 0.0
C672 C 0.24721 0.45018 0.12707 0.0
C673 C 0.24567 0.42786 0.15825 0.0
C674 C 0.24447 0.50821 0.18814 0.0
C675 C 0.25213 0.53096 0.15754 0.0
N676 N 0.27713 0.52012 0.09897 0.0
N677 N 0.26418 0.43702 0.21784 0.0
C678 C 0.25843 0.50101 0.12716 0.0
C679 C 0.25157 0.45736 0.18861 0.0
N680 N 0.23633 0.42396 0.09768 0.0
N681 N 0.22777 0.53412 0.21633 0.0
H682 H 0.27299 0.39997 0.21865 0.0
H683 H 0.27151 0.45823 0.24002 0.0
H684 H 0.21693 0.57071 0.21637 0.0
H685 H 0.21889 0.5173 0.23835 0.0
H686 H 0.23247 0.44044 0.07492 0.0
H687 H 0.22657 0.38699 0.09663 0.0
H688 H 0.28539 0.49849 0.07717 0.0
H689 H 0.2899 0.5561 0.09877 0.0
C690 C 0.50479 0.38717 0.59658 0.0
C691 C 0.47733 0.34366 0.59054 0.0
C692 C 0.55028 0.30194 0.56765 0.0
C693 C 0.57909 0.33991 0.58342 0.0
N694 N 0.58504 0.42262 0.60821 0.0
N695 N 0.47023 0.26259 0.56389 0.0
C696 C 0.55677 0.38461 0.59532 0.0
C697 C 0.4987 0.30242 0.5729 0.0
N698 N 0.48071 0.42975 0.6055 0.0
N699 N 0.57305 0.26467 0.54932 0.0
H700 H 0.43221 0.26322 0.56673 0.0
H701 H 0.48399 0.22911 0.5542 0.0
H702 H 0.61101 0.26448 0.54582 0.0
H703 H 0.55453 0.23671 0.53558 0.0
H704 H 0.49781 0.46385 0.60849 0.0
H705 H 0.44248 0.43094 0.60691 0.0
H706 H 0.57093 0.45392 0.62098 0.0
H707 H 0.62317 0.42228 0.60688 0.0
C708 C 0.72704 0.48029 0.17077 0.0
C709 C 0.72327 0.45205 0.13953 0.0
C710 C 0.74509 0.52528 0.11055 0.0
C711 C 0.73903 0.55462 0.14104 0.0
N712 N 0.71179 0.55938 0.19906 0.0
N713 N 0.71929 0.45143 0.0788 0.0
C714 C 0.7262 0.53199 0.17087 0.0
C715 C 0.72964 0.47556 0.10906 0.0
N716 N 0.73405 0.45826 0.20025 0.0
N717 N 0.76768 0.54385 0.08351 0.0
H718 H 0.70532 0.41581 0.07667 0.0
H719 H 0.71962 0.46889 0.05628 0.0
H720 H 0.7815 0.57951 0.08394 0.0
H721 H 0.77785 0.52174 0.06234 0.0
H722 H 0.7408 0.47815 0.22303 0.0
H723 H 0.73941 0.42066 0.20131 0.0
H724 H 0.69835 0.54358 0.22041 0.0
H725 H 0.70799 0.59741 0.19979 0.0
C726 C 0.56072 0.7208 0.56004 0.0
C727 C 0.5895 0.76399 0.56091 0.0
C728 C 0.51482 0.81237 0.55549 0.0
C729 C 0.48702 0.77169 0.5648 0.0
N730 N 0.48209 0.68504 0.5729 0.0
N731 N 0.59438 0.85176 0.55674 0.0
C732 C 0.50924 0.72479 0.56507 0.0
C733 C 0.5668 0.80998 0.55672 0.0
N734 N 0.58331 0.6763 0.55588 0.0
N735 N 0.49108 0.85366 0.54689 0.0
H736 H 0.63253 0.8516 0.55691 0.0
H737 H 0.57937 0.88684 0.55806 0.0
H738 H 0.45285 0.85546 0.54622 0.0
H739 H 0.50888 0.88357 0.53736 0.0
H740 H 0.56442 0.64317 0.55265 0.0
H741 H 0.62119 0.67341 0.55246 0.0
H742 H 0.49732 0.65126 0.57765 0.0
H743 H 0.44419 0.68637 0.57603 0.0
C744 C 0.21593 0.52969 0.9785 0.0
C745 C 0.25012 0.49586 0.96351 0.0
C746 C 0.30264 0.56335 0.94724 0.0
C747 C 0.26662 0.59707 0.95987 0.0
N748 N 0.18801 0.6141 0.98559 0.0
N749 N 0.32447 0.47881 0.93198 0.0
C750 C 0.22304 0.58073 0.97515 0.0
C751 C 0.29313 0.51225 0.94745 0.0
N752 N 0.17714 0.51289 0.99632 0.0
N753 N 0.34623 0.58042 0.93549 0.0
H754 H 0.32029 0.44099 0.933 0.0
H755 H 0.35325 0.48804 0.91641 0.0
H756 H 0.35396 0.61762 0.93404 0.0
H757 H 0.37627 0.55826 0.92931 0.0
H758 H 0.154 0.53547 1.01116 0.0
H759 H 0.16942 0.47567 0.99777 0.0
H760 H 0.153 0.60462 0.99331 0.0
H761 H 0.19316 0.6519 0.98506 0.0
C762 C 0.54757 0.26539 0.37254 0.0
C763 C 0.5748 0.30505 0.38762 0.0
C764 C 0.49926 0.35109 0.39839 0.0
C765 C 0.47243 0.30725 0.39131 0.0
N766 N 0.46986 0.22241 0.37007 0.0
N767 N 0.57795 0.38723 0.41362 0.0
C768 C 0.496 0.26459 0.37698 0.0
C769 C 0.55115 0.34899 0.3994 0.0
N770 N 0.57144 0.22826 0.35471 0.0
N771 N 0.47472 0.39419 0.40487 0.0
H772 H 0.61615 0.38729 0.4142 0.0
H773 H 0.56235 0.41784 0.42633 0.0
H774 H 0.43651 0.39609 0.40411 0.0
H775 H 0.49198 0.42823 0.40774 0.0
H776 H 0.55349 0.20017 0.3407 0.0
H777 H 0.60941 0.22842 0.35136 0.0
H778 H 0.48601 0.18866 0.36346 0.0
H779 H 0.43192 0.22038 0.37259 0.0
C780 C 0.73664 0.59693 0.96435 0.0
C781 C 0.76082 0.62019 0.93813 0.0
C782 C 0.77406 0.5405 0.90837 0.0
C783 C 0.75699 0.51672 0.9367 0.0
N784 N 0.73367 0.52412 0.99559 0.0
N785 N 0.81687 0.61137 0.89081 0.0
C786 C 0.74154 0.54538 0.96595 0.0
C787 C 0.78414 0.59112 0.91191 0.0
N788 N 0.7078 0.62329 0.98695 0.0
N789 N 0.77879 0.51555 0.87767 0.0
H790 H 0.8279 0.6479 0.89381 0.0
H791 H 0.83719 0.59035 0.873 0.0
H792 H 0.76809 0.47902 0.87325 0.0
H793 H 0.78767 0.53295 0.85588 0.0
H794 H 0.68587 0.60688 1.00454 0.0
H795 H 0.70188 0.66085 0.98592 0.0
H796 H 0.72495 0.54433 1.01787 0.0
H797 H 0.74123 0.48734 0.99879 0.0
C798 C 0.52475 0.77157 0.43687 0.0
C799 C 0.49628 0.78201 0.40839 0.0
C800 C 0.56917 0.77166 0.37307 0.0
C801 C 0.59825 0.76938 0.40247 0.0
N802 N 0.60311 0.78579 0.46303 0.0
N803 N 0.49472 0.804 0.35039 0.0
C804 C 0.57597 0.77513 0.43466 0.0
C805 C 0.5194 0.78571 0.37666 0.0
N806 N 0.50359 0.75596 0.46545 0.0
N807 N 0.58819 0.75888 0.34199 0.0
H808 H 0.45897 0.81729 0.3526 0.0
H809 H 0.51167 0.81085 0.32767 0.0
H810 H 0.62388 0.74596 0.33847 0.0
H811 H 0.56682 0.75622 0.32024 0.0
H812 H 0.52428 0.745 0.48568 0.0
H813 H 0.46632 0.74799 0.46724 0.0
H814 H 0.58696 0.79348 0.48652 0.0
H815 H 0.64064 0.79308 0.46243 0.0
C816 C 0.29672 0.16458 0.10084 0.0
C817 C 0.24745 0.15457 0.10893 0.0
C818 C 0.22711 0.14842 0.04876 0.0
C819 C 0.27109 0.17377 1.04258 0.0
N820 N 0.35243 0.19695 0.0599 0.0
N821 N 0.17215 0.11645 0.09068 0.0
C822 C 0.30804 0.17752 0.0676 0.0
C823 C 0.21505 0.13865 0.08258 0.0
N824 N 0.33203 0.1609 0.12465 0.0
N825 N 0.19573 0.13785 1.0226 0.0
H826 H 0.16433 0.10872 0.11551 0.0
H827 H 0.14588 0.10385 0.07328 0.0
H828 H 0.20551 0.14443 0.99792 0.0
H829 H 0.16134 0.12196 1.02493 0.0
H830 H 0.36923 0.16625 0.12028 0.0
H831 H 0.32397 0.14576 0.14739 0.0
H832 H 0.37944 0.20619 0.07767 0.0
H833 H 0.36119 0.20475 1.03524 0.0
C834 C 0.87861 0.32108 0.52417 0.0
C835 C 0.86456 0.27107 0.51888 0.0
C836 C 0.87022 0.2628 0.57991 0.0
C837 C 0.86756 0.31441 0.58489 0.0
N838 N 0.90067 0.3884 0.5646 0.0
N839 N 0.85858 0.1915 0.54091 0.0
C840 C 0.88194 0.34248 0.5578 0.0
C841 C 0.86547 0.24079 0.54658 0.0
N842 N 0.88571 0.34861 0.49723 0.0
N843 N 0.87875 0.23558 0.60683 0.0
H844 H 0.85726 0.17496 0.51653 0.0
H845 H 0.85334 0.16768 0.56001 0.0
H846 H 0.88479 0.25216 0.63086 0.0
H847 H 0.88436 0.19782 0.60483 0.0
H848 H 0.88893 0.3866 0.4993 0.0
H849 H 0.88805 0.33304 0.4727 0.0
H850 H 0.91469 0.4103 0.5464 0.0
H851 H 0.90744 0.40207 0.58927 0.0
C852 C 0.76873 0.89726 1.01197 0.0
C853 C 0.81855 0.89062 1.00293 0.0
C854 C 0.83939 0.88432 0.0627 0.0
C855 C 0.78927 0.87452 0.06904 0.0
N856 N 0.70499 0.88323 0.05301 0.0
N857 N 0.90176 0.90235 1.02107 0.0
C858 C 0.7535 0.88594 1.04483 0.0
C859 C 0.8542 0.89259 1.02902 0.0
N860 N 0.73688 0.91578 0.98967 0.0
N861 N 0.87242 0.88385 0.08842 0.0
H862 H 0.9114 0.91254 0.9971 0.0
H863 H 0.9308 0.90328 1.03798 0.0
H864 H 0.86168 0.88084 0.11332 0.0
H865 H 0.90994 0.88891 0.08577 0.0
H866 H 0.70026 0.92345 0.99508 0.0
H867 H 0.74916 0.92962 0.96734 0.0
H868 H 0.67666 0.885 1.03562 0.0
H869 H 0.69351 0.87783 0.07756 0.0
C870 C 0.18905 0.80518 0.54855 0.0
C871 C 0.19507 0.76815 0.52233 0.0
C872 C 0.19735 0.70605 0.5639 0.0
C873 C 0.20618 0.74432 0.58906 0.0
N874 N 0.17778 0.82421 0.60863 0.0
N875 N 0.18242 0.68389 0.50423 0.0
C876 C 0.19076 0.79213 0.58253 0.0
C877 C 0.19085 0.71843 0.52982 0.0
N878 N 0.18588 0.85292 0.5407 0.0
N879 N 0.19563 0.65872 0.57288 0.0
H880 H 0.17565 0.69385 0.47979 0.0
H881 H 0.1788 0.64656 0.50729 0.0
H882 H 0.19582 0.65046 0.59815 0.0
H883 H 0.19165 0.62834 0.556 0.0
H884 H 0.18734 0.88246 0.55857 0.0
H885 H 0.18322 0.86227 0.5157 0.0
H886 H 0.16371 0.859 0.60538 0.0
H887 H 0.17679 0.8135 0.63336 0.0
C888 C 0.27364 0.87616 1.02774 0.0
C889 C 0.32363 0.86957 1.01912 0.0
C890 C 0.34288 0.86353 0.07911 0.0
C891 C 0.29286 0.85281 0.08469 0.0
N892 N 0.20902 0.85981 0.06752 0.0
N893 N 0.40621 0.88346 1.03873 0.0
C894 C 0.25764 0.86389 0.06016 0.0
C895 C 0.35869 0.87205 1.04566 0.0
N896 N 0.24239 0.89576 1.00552 0.0
N897 N 0.37467 0.86435 0.10557 0.0
H898 H 0.41639 0.89603 1.01549 0.0
H899 H 0.43466 0.88395 0.0561 0.0
H900 H 0.36245 0.86105 0.13014 0.0
H901 H 0.4121 0.87081 0.10385 0.0
H902 H 0.20592 0.9041 1.01104 0.0
H903 H 0.25491 0.90888 0.98297 0.0
H904 H 0.18128 0.86132 0.04965 0.0
H905 H 0.19708 0.85351 0.09182 0.0
C906 C 0.20165 0.23027 0.55722 0.0
C907 C 0.20392 0.27958 0.54831 0.0
C908 C 0.20631 0.30659 0.60823 0.0
C909 C 0.22279 0.25919 0.61506 0.0
N910 N 0.22023 0.17288 0.59994 0.0
N911 N 0.19441 0.36492 0.5653 0.0
C912 C 0.21405 0.21979 0.59083 0.0
C913 C 0.20042 0.31781 0.57405 0.0
N914 N 0.18855 0.19419 0.53366 0.0
N915 N 0.19649 0.34015 0.63416 0.0
H916 H 0.18764 0.37293 0.5404 0.0
H917 H 0.19733 0.39546 0.58222 0.0
H918 H 0.19603 0.33032 0.65903 0.0
H919 H 0.18286 0.37509 0.63091 0.0
H920 H 0.18384 0.15765 0.53889 0.0
H921 H 0.17687 0.20202 0.50966 0.0
H922 H 0.21894 0.14207 0.58321 0.0
H923 H 0.22705 0.16536 0.62493 0.0
C924 C 0.80035 0.16458 0.06148 0.0
C925 C 0.76193 0.18282 0.08323 0.0
C926 C 0.71272 0.19215 1.03232 0.0
C927 C 0.75576 0.19234 1.01292 0.0
N928 N 0.84036 0.17043 1.00713 0.0
N929 N 0.67845 0.21618 0.08623 0.0
C930 C 0.79938 0.17464 1.02669 0.0
C931 C 0.71641 0.19566 0.068 0.0
N932 N 0.83798 0.13882 0.07435 0.0
N933 N 0.66861 0.19313 1.01635 0.0
H934 H 0.67825 0.22303 0.11201 0.0
H935 H 0.64774 0.23087 0.07503 0.0
H936 H 0.66666 0.1916 0.99009 0.0
H937 H 0.63519 0.18997 1.02878 0.0
H938 H 0.86552 0.12224 0.05951 0.0
H939 H 0.83837 0.12987 0.09948 0.0
H940 H 0.87487 0.16244 1.01649 0.0
H941 H 0.83939 0.1764 0.98148 0.0
C942 C 0.90853 0.76163 0.52986 0.0
C943 C 0.90138 0.78687 0.50019 0.0
C944 C 0.87735 0.86028 0.53462 0.0
C945 C 0.87161 0.83062 0.56247 0.0
N946 N 0.91409 0.76833 0.59094 0.0
N947 N 0.90892 0.86584 0.47764 0.0
C948 C 0.89792 0.78599 0.56169 0.0
C949 C 0.89573 0.83839 0.50357 0.0
N950 N 0.9226 0.71369 0.52723 0.0
N951 N 0.86514 0.90873 0.53793 0.0
H952 H 0.92486 0.85002 0.45573 0.0
H953 H 0.90972 0.90398 0.47961 0.0
H954 H 0.8579 0.92644 0.56143 0.0
H955 H 0.86286 0.9311 0.51777 0.0
H956 H 0.92299 0.69152 0.54759 0.0
H957 H 0.9324 0.69629 0.50406 0.0
H958 H 0.93613 0.73732 0.59171 0.0
H959 H 0.90959 0.78815 0.61405 0.0
C960 C 0.5098 0.21358 0.23038 0.0
C961 C 0.52988 0.22382 0.19871 0.0
C962 C 0.44786 0.24657 0.179 0.0
C963 C 0.42808 0.23829 0.21113 0.0
N964 N 0.43987 0.21909 0.26857 0.0
N965 N 0.52055 0.25642 0.1445 0.0
C966 C 0.45911 0.22332 0.2372 0.0
C967 C 0.49944 0.24195 0.17341 0.0
N968 N 0.53916 0.19312 0.25345 0.0
N969 N 0.417 0.25883 0.15386 0.0
H970 H 0.55821 0.25415 0.14013 0.0
H971 H 0.50178 0.274 0.126 0.0
H972 H 0.3796 0.26465 0.1577 0.0
H973 H 0.42758 0.26055 0.12884 0.0
H974 H 0.52651 0.18036 0.27596 0.0
H975 H 0.57631 0.18634 0.24903 0.0
H976 H 0.46072 0.21313 0.2898 0.0
H977 H 0.40266 0.22418 0.27365 0.0
C978 C 0.79725 0.53297 0.70019 0.0
C979 C 0.76852 0.50262 0.67763 0.0
C980 C 0.75242 0.57329 0.64392 0.0
C981 C 0.78471 0.6026 0.66461 0.0
N982 N 0.84149 0.61009 0.71064 0.0
N983 N 0.72525 0.4914 0.6251 0.0
C984 C 0.80801 0.58237 0.69241 0.0
C985 C 0.74787 0.52221 0.64866 0.0
N986 N 0.81321 0.51465 0.72935 0.0
N987 N 0.72523 0.59488 0.62017 0.0
H988 H 0.72238 0.45371 0.6275 0.0
H989 H 0.71338 0.50224 0.60186 0.0
H990 H 0.72719 0.63238 0.61674 0.0
H991 H 0.69758 0.57685 0.60622 0.0
H992 H 0.83044 0.53575 0.7486 0.0
H993 H 0.80637 0.47849 0.73505 0.0
H994 H 0.86354 0.59654 0.72923 0.0
H995 H 0.84901 0.64642 0.7057 0.0
C996 C 0.5483 0.78673 0.12472 0.0
C997 C 0.57294 0.78593 0.15604 0.0
C998 C 0.49725 0.75812 0.18258 0.0
C999 C 0.47195 0.76153 0.15169 0.0
N1000 N 0.47077 0.78497 0.09456 0.0
N1001 N 0.57097 0.77677 0.21553 0.0
C1002 C 0.49686 0.77759 0.12308 0.0
C1003 C 0.54731 0.77335 0.18524 0.0
N1004 N 0.57467 0.79492 0.0964 0.0
N1005 N 0.47383 0.73826 0.20884 0.0
H1006 H 0.60784 0.78675 0.21774 0.0
H1007 H 0.55364 0.77278 0.23851 0.0
H1008 H 0.43741 0.72663 0.20734 0.0
H1009 H 0.49107 0.73026 0.23114 0.0
H1010 H 0.56034 0.79141 0.07214 0.0
H1011 H 0.61228 0.80187 0.09695 0.0
H1012 H 0.48525 0.80097 0.07368 0.0
H1013 H 0.43312 0.77862 0.09282 0.0
C1014 C 0.30408 0.51486 0.66405 0.0
C1015 C 0.30464 0.49702 0.69673 0.0
C1016 C 0.3149 0.58145 0.7214 0.0
C1017 C 0.31803 0.59881 0.68867 0.0
N1018 N 0.3212 0.58235 0.62872 0.0
N1019 N 0.31489 0.51145 0.7564 0.0
C1020 C 0.31396 0.56551 0.65992 0.0
C1021 C 0.31104 0.52996 0.72543 0.0
N1022 N 0.29267 0.48341 0.63712 0.0
N1023 N 0.31535 0.61467 0.74853 0.0
H1024 H 0.31262 0.47394 0.75976 0.0
H1025 H 0.32362 0.53239 0.77833 0.0
H1026 H 0.31847 0.65229 0.74589 0.0
H1027 H 0.3093 0.60568 0.77321 0.0
H1028 H 0.28673 0.49453 0.61292 0.0
H1029 H 0.28576 0.4462 0.6395 0.0
H1030 H 0.32383 0.55966 0.60677 0.0
H1031 H 0.32763 0.61927 0.62506 0.0
C1032 C 0.57238 0.83901 0.93271 0.0
C1033 C 0.59353 0.85085 0.90174 0.0
C1034 C 0.51344 0.84016 0.87389 0.0
C1035 C 0.4934 0.82402 0.90412 0.0
N1036 N 0.50335 0.80417 0.96164 0.0
N1037 N 0.5866 0.86039 0.84243 0.0
C1038 C 0.52276 0.82268 0.93345 0.0
C1039 C 0.56453 0.85125 0.87222 0.0
N1040 N 0.59984 0.84431 0.96141 0.0
N1041 N 0.4833 0.84445 0.84685 0.0
H1042 H 0.62385 0.86866 0.84077 0.0
H1043 H 0.5691 0.85722 0.81918 0.0
H1044 H 0.44616 0.83532 0.84745 0.0
H1045 H 0.49398 0.85966 0.82467 0.0
H1046 H 0.58588 0.8407 0.98547 0.0
H1047 H 0.6363 0.85595 0.96131 0.0
H1048 H 0.52366 0.79732 0.98295 0.0
H1049 H 0.46691 0.7929 0.96297 0.0
C1050 C 0.26711 0.49672 0.41392 0.0
C1051 C 0.25626 0.47387 0.44414 0.0
C1052 C 0.2624 0.55406 0.4761 0.0
C1053 C 0.27357 0.57698 0.44592 0.0
N1054 N 0.29098 0.57075 0.38673 0.0
N1055 N 0.23746 0.48028 0.50312 0.0
C1056 C 0.27652 0.54843 0.41488 0.0
C1057 C 0.25244 0.5025 0.47505 0.0
N1058 N 0.26808 0.46849 0.38432 0.0
N1059 N 0.26273 0.58184 0.50589 0.0
H1060 H 0.23026 0.44275 0.50292 0.0
H1061 H 0.22956 0.49883 0.52611 0.0
H1062 H 0.26747 0.61981 0.5071 0.0
H1063 H 0.26016 0.56763 0.52946 0.0
H1064 H 0.27138 0.48226 0.36066 0.0
H1065 H 0.26399 0.43045 0.38335 0.0
H1066 H 0.29789 0.55247 0.36351 0.0
H1067 H 0.29817 0.60827 0.38693 0.0
C1068 C 0.48894 0.32497 0.95474 0.0
C1069 C 0.46662 0.28407 0.96878 0.0
C1070 C 0.54219 0.23631 0.95858 0.0
C1071 C 0.56559 0.27832 0.94678 0.0
N1072 N 0.56411 0.36425 0.93739 0.0
N1073 N 0.47226 0.20256 0.98747 0.0
C1074 C 0.53963 0.32314 0.94586 0.0
C1075 C 0.4934 0.24012 0.97162 0.0
N1076 N 0.46105 0.36516 0.94929 0.0
N1077 N 0.56634 0.19252 0.95623 0.0
H1078 H 0.43632 0.20434 0.99644 0.0
H1079 H 0.49092 0.17112 0.9935 0.0
H1080 H 0.60187 0.18911 0.94665 0.0
H1081 H 0.55035 0.15926 0.96153 0.0
H1082 H 0.47331 0.39459 0.93618 0.0
H1083 H 0.42401 0.36734 0.95578 0.0
H1084 H 0.54901 0.39926 0.9392 0.0
H1085 H 0.60117 0.36383 0.93091 0.0
C1086 C 0.86091 0.48599 0.43557 0.0
C1087 C 0.81424 0.4647 0.42922 0.0
C1088 C 0.78765 0.53995 0.40377 0.0
C1089 C 0.83229 0.56321 0.41395 0.0
N1090 N 0.9085 0.56089 0.44413 0.0
N1091 N 0.73193 0.47106 0.40877 0.0
C1092 C 0.86833 0.53678 0.43094 0.0
C1093 C 0.77722 0.49166 0.41365 0.0
N1094 N 0.89831 0.45722 0.44548 0.0
N1095 N 0.75612 0.56358 0.38369 0.0
H1096 H 0.72428 0.43496 0.41422 0.0
H1097 H 0.7015 0.49023 0.40095 0.0
H1098 H 0.76342 0.59845 0.37561 0.0
H1099 H 0.72492 0.54735 0.37282 0.0
H1100 H 0.93444 0.46926 0.44798 0.0
H1101 H 0.89384 0.41968 0.44766 0.0
H1102 H 0.93385 0.54488 0.45958 0.0
H1103 H 0.91403 0.59839 0.44221 0.0
C1104 C 0.17156 0.18105 0.35428 0.0
C1105 C 0.21392 0.19736 0.37255 0.0
C1106 C 0.26221 0.1899 0.32026 0.0
C1107 C 0.2182 0.18523 0.30162 0.0
N1108 N 0.1316 0.16993 0.2997 0.0
N1109 N 0.30167 0.18528 0.37419 0.0
C1110 C 0.17314 0.17786 0.31837 0.0
C1111 C 0.26016 0.19201 0.35599 0.0
N1112 N 0.13153 0.16494 0.37101 0.0
N1113 N 0.30568 0.19574 0.30394 0.0
H1114 H 0.30083 0.1812 0.39994 0.0
H1115 H 0.3357 0.17714 0.36338 0.0
H1116 H 0.30882 0.19159 0.2778 0.0
H1117 H 0.33792 0.2068 0.31626 0.0
H1118 H 0.10043 0.15021 0.35906 0.0
H1119 H 0.13231 0.1592 0.39663 0.0
H1120 H 0.09641 0.1707 0.30986 0.0
H1121 H 0.13278 0.16408 0.27353 0.0
C1122 C 0.78261 0.32058 0.82332 0.0
C1123 C 0.80775 0.2804 0.83658 0.0
C1124 C 0.82061 0.24539 0.77822 0.0
C1125 C 0.79782 0.287 0.76537 0.0
N1126 N 0.76916 0.36964 0.77545 0.0
N1127 N 0.85702 0.20789 0.82618 0.0
C1128 C 0.78264 0.32621 0.78796 0.0
C1129 C 0.82891 0.24393 0.8138 0.0
N1130 N 0.75743 0.35303 0.8443 0.0
N1131 N 0.83279 0.20658 0.75652 0.0
H1132 H 0.86157 0.20415 0.85193 0.0
H1133 H 0.87786 0.18338 0.81105 0.0
H1134 H 0.82937 0.20778 0.73047 0.0
H1135 H 0.84405 0.17271 0.76428 0.0
H1136 H 0.73432 0.37992 0.83584 0.0
H1137 H 0.7552 0.34989 0.87006 0.0
H1138 H 0.7625 0.40155 0.79048 0.0
H1139 H 0.77013 0.37519 0.74978 0.0
C1140 C 0.79622 0.75629 0.25485 0.0
C1141 C 0.80549 0.80436 0.24507 0.0
C1142 C 0.83893 0.82484 0.3023 0.0
C1143 C 0.83111 0.77541 0.31076 0.0
N1144 N 0.82767 0.69179 0.28702 0.0
N1145 N 0.84773 0.88113 0.25751 0.0
C1146 C 0.81853 0.74044 0.28423 0.0
C1147 C 0.83035 0.83789 0.26826 0.0
N1148 N 0.76277 0.7267 0.23808 0.0
N1149 N 0.85482 0.85927 0.32613 0.0
H1150 H 0.84407 0.8908 0.23272 0.0
H1151 H 0.86991 0.90506 0.27218 0.0
H1152 H 0.86985 0.85028 0.34891 0.0
H1153 H 0.85355 0.89681 0.32295 0.0
H1154 H 0.75305 0.69237 0.24612 0.0
H1155 H 0.74041 0.73892 0.21909 0.0
H1156 H 0.82098 0.66554 0.26733 0.0
H1157 H 0.84748 0.67923 0.30721 0.0
C1158 C 0.30054 0.80651 0.82281 0.0
C1159 C 0.27882 0.85208 0.83303 0.0
C1160 C 0.25408 0.86114 0.77396 0.0
C1161 C 0.28558 0.82168 0.76356 0.0
N1162 N 0.33613 0.75393 0.77802 0.0
N1163 N 0.21732 0.91078 0.82056 0.0
C1164 C 0.30758 0.79327 0.78804 0.0
C1165 C 0.24985 0.87559 0.80911 0.0
N1166 N 0.30936 0.77357 0.84603 0.0
N1167 N 0.23086 0.88658 0.7502 0.0
H1168 H 0.21212 0.91943 0.84626 0.0
H1169 H 0.19258 0.92806 0.8054 0.0
H1170 H 0.23217 0.87591 0.7246 0.0
H1171 H 0.21128 0.91876 0.75545 0.0
H1172 H 0.32204 0.73805 0.84045 0.0
H1173 H 0.29431 0.77928 0.86965 0.0
H1174 H 0.35871 0.73599 0.79436 0.0
H1175 H 0.33881 0.74055 0.75293 0.0
C1176 C 0.78614 0.89288 0.79399 0.0
C1177 C 0.82585 0.87156 0.81027 0.0
C1178 C 0.85401 0.83185 0.75662 0.0
C1179 C 0.81024 0.84718 0.74116 0.0
N1180 N 0.74411 0.90574 0.74168 0.0
N1181 N 0.90711 0.83949 0.80588 0.0
C1182 C 0.77963 0.88254 0.75876 0.0
C1183 C 0.8634 0.84807 0.79078 0.0
N1184 N 0.75275 0.9197 0.81286 0.0
N1185 N 0.88436 0.79889 0.7399 0.0
H1186 H 0.91357 0.85172 0.83086 0.0
H1187 H 0.93773 0.82524 0.79309 0.0
H1188 H 0.87891 0.78627 0.71494 0.0
H1189 H 0.91367 0.78208 0.75126 0.0
H1190 H 0.71904 0.93089 0.80387 0.0
H1191 H 0.7591 0.92998 0.83818 0.0
H1192 H 0.72305 0.93458 0.75211 0.0
H1193 H 0.73899 0.899 0.71593 0.0
C1194 C 0.23559 0.7419 0.27274 0.0
C1195 C 0.2742 0.77402 0.26381 0.0
C1196 C 0.28453 0.80067 0.32392 0.0
C1197 C 0.24951 0.76464 0.3331 0.0
N1198 N 0.17916 0.71668 0.31578 0.0
N1199 N 0.32262 0.84516 0.27959 0.0
C1200 C 0.22114 0.74029 0.30722 0.0
C1201 C 0.29471 0.80674 0.28911 0.0
N1202 N 0.21397 0.71102 0.24879 0.0
N1203 N 0.30944 0.82844 0.34801 0.0
H1204 H 0.32947 0.85123 0.25438 0.0
H1205 H 0.33474 0.8737 0.29611 0.0
H1206 H 0.29761 0.83425 0.37269 0.0
H1207 H 0.34199 0.84677 0.34329 0.0
H1208 H 0.19195 0.68147 0.25446 0.0
H1209 H 0.21884 0.71367 0.22313 0.0
H1210 H 0.15382 0.70217 0.29828 0.0
H1211 H 0.16695 0.71656 0.34065 0.0
C1212 C 0.34467 0.31145 0.81929 0.0
C1213 C 0.31158 0.28414 0.79793 0.0
C1214 C 0.2676 0.26118 0.84876 0.0
C1215 C 0.3062 0.28168 0.86957 0.0
N1216 N 0.39019 0.31075 0.87086 0.0
N1217 N 0.24582 0.22473 0.79343 0.0
C1218 C 0.3475 0.30177 0.85362 0.0
C1219 C 0.27416 0.25644 0.8129 0.0
N1220 N 0.37232 0.34826 0.80726 0.0
N1221 N 0.22382 0.24874 0.86246 0.0
H1222 H 0.24993 0.21971 0.76741 0.0
H1223 H 0.22136 0.20032 0.80363 0.0
H1224 H 0.21604 0.2539 0.88799 0.0
H1225 H 0.19346 0.23808 0.84786 0.0
H1226 H 0.39448 0.37109 0.82286 0.0
H1227 H 0.36802 0.36004 0.783 0.0
H1228 H 0.42198 0.3226 0.85921 0.0
H1229 H 0.39559 0.30037 0.89534 0.0
C1230 C 0.8294 0.19397 0.3142 0.0
C1231 C 0.82906 0.23894 0.33472 0.0
C1232 C 0.76526 0.26998 0.29981 0.0
C1233 C 0.76645 0.22766 0.27693 0.0
N1234 N 0.80219 0.14779 0.26315 0.0
N1235 N 0.81666 0.32561 0.3333 0.0
C1236 C 0.7995 0.18911 0.28421 0.0
C1237 C 0.80417 0.27897 0.32245 0.0
N1238 N 0.85823 0.15612 0.32298 0.0
N1239 N 0.72542 0.30014 0.30195 0.0
H1240 H 0.84723 0.33262 0.34865 0.0
H1241 H 0.80021 0.3563 0.3238 0.0
H1242 H 0.69151 0.28954 0.29172 0.0
H1243 H 0.72428 0.33179 0.31801 0.0
H1244 H 0.85412 0.12015 0.31309 0.0
H1245 H 0.88779 0.16126 0.33936 0.0
H1246 H 0.83059 0.12248 0.26374 0.0
H1247 H 0.77546 0.13813 0.24532 0.0
loop_
_geom_bond_atom_site_label_1
_geom_bond_atom_site_label_2
_geom_bond_distance
_geom_bond_site_symmetry_2
_ccdc_geom_bond_type
C0 C1 1.351 . S
C0 N3 1.368 . S
C0 H5 0.931 . S
C1 C0 1.351 . S
C1 N2 1.373 . S
C1 H29 0.930 . S
N2 C1 1.373 . S
N2 C4 1.340 . S
N3 C0 1.368 . S
N3 C4 1.321 . S
N3 Co6 2.135 . S
C4 N2 1.340 . S
C4 N3 1.321 . S
C4 H28 0.930 . S
H5 C0 0.931 . S
Co6 N3 2.135 . S
Co6 N9 2.121 . S
Co6 O14 2.055 . S
Co6 O17 2.039 . S
Co6 N20 2.140 . S
C7 O8 1.227 . S
C7 O17 1.265 . S
O8 C7 1.227 . S
N9 Co6 2.121 . S
N9 C11 1.375 . S
N9 C12 1.313 . S
C10 C11 1.338 . S
C10 N13 1.377 . S
C10 H30 0.930 . S
C11 N9 1.375 . S
C11 C10 1.338 . S
C11 H15 0.931 . S
C12 N9 1.313 . S
C12 N13 1.344 . S
C12 H16 0.930 . S
N13 C10 1.377 . S
N13 C12 1.344 . S
O14 Co6 2.055 . S
O14 C18 1.253 . S
H15 C11 0.931 . S
H16 C12 0.930 . S
O17 Co6 2.039 . S
O17 C7 1.265 . S
C18 O14 1.253 . S
C18 O19 1.227 . S
O19 C18 1.227 . S
N20 Co6 2.140 . S
N20 C23 1.346 . S
N20 C24 1.345 . S
C21 C22 1.387 . S
C21 C25 1.391 . S
C22 C21 1.387 . S
C22 C23 1.369 . S
C22 H31 0.929 . S
C23 N20 1.346 . S
C23 C22 1.369 . S
C23 H26 0.928 . S
C24 N20 1.345 . S
C24 C25 1.371 . S
C24 H27 0.931 . S
C25 C21 1.391 . S
C25 C24 1.371 . S
C25 H32 0.930 . S
H26 C23 0.928 . S
H27 C24 0.931 . S
H28 C4 0.930 . S
H29 C1 0.930 . S
H30 C10 0.930 . S
H31 C22 0.929 . S
H32 C25 0.930 . S
C33 C34 1.351 . S
C33 N36 1.368 . S
C33 H38 0.931 . S
C34 C33 1.351 . S
C34 N35 1.373 . S
C34 H62 0.930 . S
N35 C34 1.373 . S
N35 C37 1.340 . S
N36 C33 1.368 . S
N36 C37 1.321 . S
N36 Co39 2.135 . S
C37 N35 1.340 . S
C37 N36 1.321 . S
C37 H61 0.930 . S
H38 C33 0.931 . S
Co39 N36 2.135 . S
Co39 N42 2.121 . S
Co39 O47 2.055 . S
Co39 O50 2.039 . S
Co39 N53 2.140 . S
C40 O41 1.227 . S
C40 O50 1.265 . S
O41 C40 1.227 . S
N42 Co39 2.121 . S
N42 C44 1.375 . S
N42 C45 1.313 . S
C43 C44 1.338 . S
C43 N46 1.377 . S
C43 H63 0.930 . S
C44 N42 1.375 . S
C44 C43 1.338 . S
C44 H48 0.931 . S
C45 N42 1.313 . S
C45 N46 1.344 . S
C45 H49 0.930 . S
N46 C43 1.377 . S
N46 C45 1.344 . S
O47 Co39 2.055 . S
O47 C51 1.253 . S
H48 C44 0.931 . S
H49 C45 0.930 . S
O50 Co39 2.039 . S
O50 C40 1.265 . S
C51 O47 1.253 . S
C51 O52 1.227 . S
O52 C51 1.227 . S
N53 Co39 2.140 . S
N53 C56 1.346 . S
N53 C57 1.345 . S
C54 C55 1.387 . S
C54 C58 1.391 . S
C55 C54 1.387 . S
C55 C56 1.369 . S
C55 H64 0.929 . S
C56 N53 1.346 . S
C56 C55 1.369 . S
C56 H59 0.928 . S
C57 N53 1.345 . S
C57 C58 1.371 . S
C57 H60 0.931 . S
C58 C54 1.391 . S
C58 C57 1.371 . S
C58 H65 0.930 . S
H59 C56 0.928 . S
H60 C57 0.931 . S
H61 C37 0.930 . S
H62 C34 0.930 . S
H63 C43 0.930 . S
H64 C55 0.929 . S
H65 C58 0.930 . S
C66 C67 1.351 . S
C66 N69 1.368 . S
C66 H71 0.931 . S
C67 C66 1.351 . S
C67 N68 1.373 . S
C67 H95 0.930 . S
N68 C67 1.373 . S
N68 C70 1.340 . S
N69 C66 1.368 . S
N69 C70 1.321 . S
N69 Co72 2.135 . S
C70 N68 1.340 . S
C70 N69 1.321 . S
C70 H94 0.930 . S
H71 C66 0.931 . S
Co72 N69 2.135 . S
Co72 N75 2.121 . S
Co72 O80 2.055 . S
Co72 O83 2.039 . S
Co72 N86 2.140 . S
C73 O74 1.227 . S
C73 O83 1.265 . S
O74 C73 1.227 . S
N75 Co72 2.121 . S
N75 C77 1.375 . S
N75 C78 1.313 . S
C76 C77 1.338 . S
C76 N79 1.377 . S
C76 H96 0.930 . S
C77 N75 1.375 . S
C77 C76 1.338 . S
C77 H81 0.931 . S
C78 N75 1.313 . S
C78 N79 1.344 . S
C78 H82 0.930 . S
N79 C76 1.377 . S
N79 C78 1.344 . S
O80 Co72 2.055 . S
O80 C84 1.253 . S
H81 C77 0.931 . S
H82 C78 0.930 . S
O83 Co72 2.039 . S
O83 C73 1.265 . S
C84 O80 1.253 . S
C84 O85 1.227 . S
O85 C84 1.227 . S
N86 Co72 2.140 . S
N86 C89 1.346 . S
N86 C90 1.345 . S
C87 C88 1.387 . S
C87 C91 1.391 . S
C88 C87 1.387 . S
C88 C89 1.369 . S
C88 H97 0.929 . S
C89 N86 1.346 . S
C89 C88 1.369 . S
C89 H92 0.928 . S
C90 N86 1.345 . S
C90 C91 1.371 . S
C90 H93 0.931 . S
C91 C87 1.391 . S
C91 C90 1.371 . S
C91 H98 0.930 . S
H92 C89 0.928 . S
H93 C90 0.931 . S
H94 C70 0.930 . S
H95 C67 0.930 . S
H96 C76 0.930 . S
H97 C88 0.929 . S
H98 C91 0.930 . S
C99 C100 1.351 . S
C99 N102 1.368 . S
C99 H104 0.931 . S
C100 C99 1.351 . S
C100 N101 1.373 . S
C100 H128 0.930 . S
N101 C100 1.373 . S
N101 C103 1.340 . S
N102 C99 1.368 . S
N102 C103 1.321 . S
N102 Co105 2.135 . S
C103 N101 1.340 . S
C103 N102 1.321 . S
C103 H127 0.930 . S
H104 C99 0.931 . S
Co105 N102 2.135 . S
Co105 N108 2.121 . S
Co105 O113 2.055 . S
Co105 O116 2.039 . S
Co105 N119 2.140 . S
C106 O107 1.227 . S
C106 O116 1.265 . S
O107 C106 1.227 . S
N108 Co105 2.121 . S
N108 C110 1.375 . S
N108 C111 1.313 . S
C109 C110 1.338 . S
C109 N112 1.377 . S
C109 H129 0.930 . S
C110 N108 1.375 . S
C110 C109 1.338 . S
C110 H114 0.931 . S
C111 N108 1.313 . S
C111 N112 1.344 . S
C111 H115 0.930 . S
N112 C109 1.377 . S
N112 C111 1.344 . S
O113 Co105 2.055 . S
O113 C117 1.253 . S
H114 C110 0.931 . S
H115 C111 0.930 . S
O116 Co105 2.039 . S
O116 C106 1.265 . S
C117 O113 1.253 . S
C117 O118 1.227 . S
O118 C117 1.227 . S
N119 Co105 2.140 . S
N119 C122 1.346 . S
N119 C123 1.345 . S
C120 C121 1.387 . S
C120 C124 1.391 . S
C121 C120 1.387 . S
C121 C122 1.369 . S
C121 H130 0.929 . S
C122 N119 1.346 . S
C122 C121 1.369 . S
C122 H125 0.928 . S
C123 N119 1.345 . S
C123 C124 1.371 . S
C123 H126 0.931 . S
C124 C120 1.391 . S
C124 C123 1.371 . S
C124 H131 0.930 . S
H125 C122 0.928 . S
H126 C123 0.931 . S
H127 C103 0.930 . S
H128 C100 0.930 . S
H129 C109 0.930 . S
H130 C121 0.929 . S
H131 C124 0.930 . S
C132 C133 1.351 . S
C132 N135 1.368 . S
C132 H137 0.931 . S
C133 C132 1.351 . S
C133 N134 1.373 . S
C133 H161 0.930 . S
N134 C133 1.373 . S
N134 C136 1.340 . S
N135 C132 1.368 . S
N135 C136 1.321 . S
N135 Co138 2.135 . S
C136 N134 1.340 . S
C136 N135 1.321 . S
C136 H160 0.930 . S
H137 C132 0.931 . S
Co138 N135 2.135 . S
Co138 N141 2.121 . S
Co138 O146 2.055 . S
Co138 O149 2.039 . S
Co138 N152 2.140 . S
C139 O140 1.227 . S
C139 O149 1.265 . S
O140 C139 1.227 . S
N141 Co138 2.121 . S
N141 C143 1.375 . S
N141 C144 1.313 . S
C142 C143 1.338 . S
C142 N145 1.377 . S
C142 H162 0.930 . S
C143 N141 1.375 . S
C143 C142 1.338 . S
C143 H147 0.931 . S
C144 N141 1.313 . S
C144 N145 1.344 . S
C144 H148 0.930 . S
N145 C142 1.377 . S
N145 C144 1.344 . S
O146 Co138 2.055 . S
O146 C150 1.253 . S
H147 C143 0.931 . S
H148 C144 0.930 . S
O149 Co138 2.039 . S
O149 C139 1.265 . S
C150 O146 1.253 . S
C150 O151 1.227 . S
O151 C150 1.227 . S
N152 Co138 2.140 . S
N152 C155 1.346 . S
N152 C156 1.345 . S
C153 C154 1.387 . S
C153 C157 1.391 . S
C154 C153 1.387 . S
C154 C155 1.369 . S
C154 H163 0.929 . S
C155 N152 1.346 . S
C155 C154 1.369 . S
C155 H158 0.928 . S
C156 N152 1.345 . S
C156 C157 1.371 . S
C156 H159 0.931 . S
C157 C153 1.391 . S
C157 C156 1.371 . S
C157 H164 0.930 . S
H158 C155 0.928 . S
H159 C156 0.931 . S
H160 C136 0.930 . S
H161 C133 0.930 . S
H162 C142 0.930 . S
H163 C154 0.929 . S
H164 C157 0.930 . S
C165 C166 1.351 . S
C165 N168 1.368 . S
C165 H170 0.931 . S
C166 C165 1.351 . S
C166 N167 1.373 . S
C166 H194 0.930 . S
N167 C166 1.373 . S
N167 C169 1.340 . S
N168 C165 1.368 . S
N168 C169 1.321 . S
N168 Co171 2.135 . S
C169 N167 1.340 . S
C169 N168 1.321 . S
C169 H193 0.930 . S
H170 C165 0.931 . S
Co171 N168 2.135 . S
Co171 N174 2.121 . S
Co171 O179 2.055 . S
Co171 O182 2.039 . S
Co171 N185 2.140 . S
C172 O173 1.227 . S
C172 O182 1.265 . S
O173 C172 1.227 . S
N174 Co171 2.121 . S
N174 C176 1.375 . S
N174 C177 1.313 . S
C175 C176 1.338 . S
C175 N178 1.377 . S
C175 H195 0.930 . S
C176 N174 1.375 . S
C176 C175 1.338 . S
C176 H180 0.931 . S
C177 N174 1.313 . S
C177 N178 1.344 . S
C177 H181 0.930 . S
N178 C175 1.377 . S
N178 C177 1.344 . S
O179 Co171 2.055 . S
O179 C183 1.253 . S
H180 C176 0.931 . S
H181 C177 0.930 . S
O182 Co171 2.039 . S
O182 C172 1.265 . S
C183 O179 1.253 . S
C183 O184 1.227 . S
O184 C183 1.227 . S
N185 Co171 2.140 . S
N185 C188 1.346 . S
N185 C189 1.345 . S
C186 C187 1.387 . S
C186 C190 1.391 . S
C187 C186 1.387 . S
C187 C188 1.369 . S
C187 H196 0.929 . S
C188 N185 1.346 . S
C188 C187 1.369 . S
C188 H191 0.928 . S
C189 N185 1.345 . S
C189 C190 1.371 . S
C189 H192 0.931 . S
C190 C186 1.391 . S
C190 C189 1.371 . S
C190 H197 0.930 . S
H191 C188 0.928 . S
H192 C189 0.931 . S
H193 C169 0.930 . S
H194 C166 0.930 . S
H195 C175 0.930 . S
H196 C187 0.929 . S
H197 C190 0.930 . S
C198 C199 1.351 . S
C198 N201 1.368 . S
C198 H203 0.931 . S
C199 C198 1.351 . S
C199 N200 1.373 . S
C199 H227 0.930 . S
N200 C199 1.373 . S
N200 C202 1.340 . S
N201 C198 1.368 . S
N201 C202 1.321 . S
N201 Co204 2.135 . S
C202 N200 1.340 . S
C202 N201 1.321 . S
C202 H226 0.930 . S
H203 C198 0.931 . S
Co204 N201 2.135 . S
Co204 N207 2.121 . S
Co204 O212 2.055 . S
Co204 O215 2.039 . S
Co204 N218 2.140 . S
C205 O206 1.227 . S
C205 O215 1.265 . S
O206 C205 1.227 . S
N207 Co204 2.121 . S
N207 C209 1.375 . S
N207 C210 1.313 . S
C208 C209 1.338 . S
C208 N211 1.377 . S
C208 H228 0.930 . S
C209 N207 1.375 . S
C209 C208 1.338 . S
C209 H213 0.931 . S
C210 N207 1.313 . S
C210 N211 1.344 . S
C210 H214 0.930 . S
N211 C208 1.377 . S
N211 C210 1.344 . S
O212 Co204 2.055 . S
O212 C216 1.253 . S
H213 C209 0.931 . S
H214 C210 0.930 . S
O215 Co204 2.039 . S
O215 C205 1.265 . S
C216 O212 1.253 . S
C216 O217 1.227 . S
O217 C216 1.227 . S
N218 Co204 2.140 . S
N218 C221 1.346 . S
N218 C222 1.345 . S
C219 C220 1.387 . S
C219 C223 1.391 . S
C220 C219 1.387 . S
C220 C221 1.369 . S
C220 H229 0.929 . S
C221 N218 1.346 . S
C221 C220 1.369 . S
C221 H224 0.928 . S
C222 N218 1.345 . S
C222 C223 1.371 . S
C222 H225 0.931 . S
C223 C219 1.391 . S
C223 C222 1.371 . S
C223 H230 0.930 . S
H224 C221 0.928 . S
H225 C222 0.931 . S
H226 C202 0.930 . S
H227 C199 0.930 . S
H228 C208 0.930 . S
H229 C220 0.929 . S
H230 C223 0.930 . S
C231 C232 1.351 . S
C231 N234 1.368 . S
C231 H236 0.931 . S
C232 C231 1.351 . S
C232 N233 1.373 . S
C232 H260 0.930 . S
N233 C232 1.373 . S
N233 C235 1.340 . S
N234 C231 1.368 . S
N234 C235 1.321 . S
N234 Co237 2.135 . S
C235 N233 1.340 . S
C235 N234 1.321 . S
C235 H259 0.930 . S
H236 C231 0.931 . S
Co237 N234 2.135 . S
Co237 N240 2.121 . S
Co237 O245 2.055 . S
Co237 O248 2.039 . S
Co237 N251 2.140 . S
C238 O239 1.227 . S
C238 O248 1.265 . S
O239 C238 1.227 . S
N240 Co237 2.121 . S
N240 C242 1.375 . S
N240 C243 1.313 . S
C241 C242 1.338 . S
C241 N244 1.377 . S
C241 H261 0.930 . S
C242 N240 1.375 . S
C242 C241 1.338 . S
C242 H246 0.931 . S
C243 N240 1.313 . S
C243 N244 1.344 . S
C243 H247 0.930 . S
N244 C241 1.377 . S
N244 C243 1.344 . S
O245 Co237 2.055 . S
O245 C249 1.253 . S
H246 C242 0.931 . S
H247 C243 0.930 . S
O248 Co237 2.039 . S
O248 C238 1.265 . S
C249 O245 1.253 . S
C249 O250 1.227 . S
O250 C249 1.227 . S
N251 Co237 2.140 . S
N251 C254 1.346 . S
N251 C255 1.345 . S
C252 C253 1.387 . S
C252 C256 1.391 . S
C253 C252 1.387 . S
C253 C254 1.369 . S
C253 H262 0.929 . S
C254 N251 1.346 . S
C254 C253 1.369 . S
C254 H257 0.928 . S
C255 N251 1.345 . S
C255 C256 1.371 . S
C255 H258 0.931 . S
C256 C252 1.391 . S
C256 C255 1.371 . S
C256 H263 0.930 . S
H257 C254 0.928 . S
H258 C255 0.931 . S
H259 C235 0.930 . S
H260 C232 0.930 . S
H261 C241 0.930 . S
H262 C253 0.929 . S
H263 C256 0.930 . S
C264 C265 1.351 . S
C264 N267 1.368 . S
C264 H269 0.931 . S
C265 C264 1.351 . S
C265 N266 1.373 . S
C265 H293 0.930 . S
N266 C265 1.373 . S
N266 C268 1.340 . S
N267 C264 1.368 . S
N267 C268 1.321 . S
N267 Co270 2.135 . S
C268 N266 1.340 . S
C268 N267 1.321 . S
C268 H292 0.930 . S
H269 C264 0.931 . S
Co270 N267 2.135 . S
Co270 N273 2.121 . S
Co270 O278 2.055 . S
Co270 O281 2.039 . S
Co270 N284 2.140 . S
C271 O272 1.227 . S
C271 O281 1.265 . S
O272 C271 1.227 . S
N273 Co270 2.121 . S
N273 C275 1.375 . S
N273 C276 1.313 . S
C274 C275 1.338 . S
C274 N277 1.377 . S
C274 H294 0.930 . S
C275 N273 1.375 . S
C275 C274 1.338 . S
C275 H279 0.931 . S
C276 N273 1.313 . S
C276 N277 1.344 . S
C276 H280 0.930 . S
N277 C274 1.377 . S
N277 C276 1.344 . S
O278 Co270 2.055 . S
O278 C282 1.253 . S
H279 C275 0.931 . S
H280 C276 0.930 . S
O281 Co270 2.039 . S
O281 C271 1.265 . S
C282 O278 1.253 . S
C282 O283 1.227 . S
O283 C282 1.227 . S
N284 Co270 2.140 . S
N284 C287 1.346 . S
N284 C288 1.345 . S
C285 C286 1.387 . S
C285 C289 1.391 . S
C286 C285 1.387 . S
C286 C287 1.369 . S
C286 H295 0.929 . S
C287 N284 1.346 . S
C287 C286 1.369 . S
C287 H290 0.928 . S
C288 N284 1.345 . S
C288 C289 1.371 . S
C288 H291 0.931 . S
C289 C285 1.391 . S
C289 C288 1.371 . S
C289 H296 0.930 . S
H290 C287 0.928 . S
H291 C288 0.931 . S
H292 C268 0.930 . S
H293 C265 0.930 . S
H294 C274 0.930 . S
H295 C286 0.929 . S
H296 C289 0.930 . S
C297 C298 1.351 . S
C297 N300 1.368 . S
C297 H302 0.931 . S
C298 C297 1.351 . S
C298 N299 1.373 . S
C298 H326 0.930 . S
N299 C298 1.373 . S
N299 C301 1.340 . S
N300 C297 1.368 . S
N300 C301 1.321 . S
N300 Co303 2.135 . S
C301 N299 1.340 . S
C301 N300 1.321 . S
C301 H325 0.930 . S
H302 C297 0.931 . S
Co303 N300 2.135 . S
Co303 N306 2.121 . S
Co303 O311 2.055 . S
Co303 O314 2.039 . S
Co303 N317 2.140 . S
C304 O305 1.227 . S
C304 O314 1.265 . S
O305 C304 1.227 . S
N306 Co303 2.121 . S
N306 C308 1.375 . S
N306 C309 1.313 . S
C307 C308 1.338 . S
C307 N310 1.377 . S
C307 H327 0.930 . S
C308 N306 1.375 . S
C308 C307 1.338 . S
C308 H312 0.931 . S
C309 N306 1.313 . S
C309 N310 1.344 . S
C309 H313 0.930 . S
N310 C307 1.377 . S
N310 C309 1.344 . S
O311 Co303 2.055 . S
O311 C315 1.253 . S
H312 C308 0.931 . S
H313 C309 0.930 . S
O314 Co303 2.039 . S
O314 C304 1.265 . S
C315 O311 1.253 . S
C315 O316 1.227 . S
O316 C315 1.227 . S
N317 Co303 2.140 . S
N317 C320 1.346 . S
N317 C321 1.345 . S
C318 C319 1.387 . S
C318 C322 1.391 . S
C319 C318 1.387 . S
C319 C320 1.369 . S
C319 H328 0.929 . S
C320 N317 1.346 . S
C320 C319 1.369 . S
C320 H323 0.928 . S
C321 N317 1.345 . S
C321 C322 1.371 . S
C321 H324 0.931 . S
C322 C318 1.391 . S
C322 C321 1.371 . S
C322 H329 0.930 . S
H323 C320 0.928 . S
H324 C321 0.931 . S
H325 C301 0.930 . S
H326 C298 0.930 . S
H327 C307 0.930 . S
H328 C319 0.929 . S
H329 C322 0.930 . S
C330 C331 1.351 . S
C330 N333 1.368 . S
C330 H335 0.931 . S
C331 C330 1.351 . S
C331 N332 1.373 . S
C331 H359 0.930 . S
N332 C331 1.373 . S
N332 C334 1.340 . S
N333 C330 1.368 . S
N333 C334 1.321 . S
N333 Co336 2.135 . S
C334 N332 1.340 . S
C334 N333 1.321 . S
C334 H358 0.930 . S
H335 C330 0.931 . S
Co336 N333 2.135 . S
Co336 N339 2.121 . S
Co336 O344 2.055 . S
Co336 O347 2.039 . S
Co336 N350 2.140 . S
C337 O338 1.227 . S
C337 O347 1.265 . S
O338 C337 1.227 . S
N339 Co336 2.121 . S
N339 C341 1.375 . S
N339 C342 1.313 . S
C340 C341 1.338 . S
C340 N343 1.377 . S
C340 H360 0.930 . S
C341 N339 1.375 . S
C341 C340 1.338 . S
C341 H345 0.931 . S
C342 N339 1.313 . S
C342 N343 1.344 . S
C342 H346 0.930 . S
N343 C340 1.377 . S
N343 C342 1.344 . S
O344 Co336 2.055 . S
O344 C348 1.253 . S
H345 C341 0.931 . S
H346 C342 0.930 . S
O347 Co336 2.039 . S
O347 C337 1.265 . S
C348 O344 1.253 . S
C348 O349 1.227 . S
O349 C348 1.227 . S
N350 Co336 2.140 . S
N350 C353 1.346 . S
N350 C354 1.345 . S
C351 C352 1.387 . S
C351 C355 1.391 . S
C352 C351 1.387 . S
C352 C353 1.369 . S
C352 H361 0.929 . S
C353 N350 1.346 . S
C353 C352 1.369 . S
C353 H356 0.928 . S
C354 N350 1.345 . S
C354 C355 1.371 . S
C354 H357 0.931 . S
C355 C351 1.391 . S
C355 C354 1.371 . S
C355 H362 0.930 . S
H356 C353 0.928 . S
H357 C354 0.931 . S
H358 C334 0.930 . S
H359 C331 0.930 . S
H360 C340 0.930 . S
H361 C352 0.929 . S
H362 C355 0.930 . S
C363 C364 1.351 . S
C363 N366 1.368 . S
C363 H368 0.931 . S
C364 C363 1.351 . S
C364 N365 1.373 . S
C364 H392 0.930 . S
N365 C364 1.373 . S
N365 C367 1.340 . S
N366 C363 1.368 . S
N366 C367 1.321 . S
N366 Co369 2.135 . S
C367 N365 1.340 . S
C367 N366 1.321 . S
C367 H391 0.930 . S
H368 C363 0.931 . S
Co369 N366 2.135 . S
Co369 N372 2.121 . S
Co369 O377 2.055 . S
Co369 O380 2.039 . S
Co369 N383 2.140 . S
C370 O371 1.227 . S
C370 O380 1.265 . S
O371 C370 1.227 . S
N372 Co369 2.121 . S
N372 C374 1.375 . S
N372 C375 1.313 . S
C373 C374 1.338 . S
C373 N376 1.377 . S
C373 H393 0.930 . S
C374 N372 1.375 . S
C374 C373 1.338 . S
C374 H378 0.931 . S
C375 N372 1.313 . S
C375 N376 1.344 . S
C375 H379 0.930 . S
N376 C373 1.377 . S
N376 C375 1.344 . S
O377 Co369 2.055 . S
O377 C381 1.253 . S
H378 C374 0.931 . S
H379 C375 0.930 . S
O380 Co369 2.039 . S
O380 C370 1.265 . S
C381 O377 1.253 . S
C381 O382 1.227 . S
O382 C381 1.227 . S
N383 Co369 2.140 . S
N383 C386 1.346 . S
N383 C387 1.345 . S
C384 C385 1.387 . S
C384 C388 1.391 . S
C385 C384 1.387 . S
C385 C386 1.369 . S
C385 H394 0.929 . S
C386 N383 1.346 . S
C386 C385 1.369 . S
C386 H389 0.928 . S
C387 N383 1.345 . S
C387 C388 1.371 . S
C387 H390 0.931 . S
C388 C384 1.391 . S
C388 C387 1.371 . S
C388 H395 0.930 . S
H389 C386 0.928 . S
H390 C387 0.931 . S
H391 C367 0.930 . S
H392 C364 0.930 . S
H393 C373 0.930 . S
H394 C385 0.929 . S
H395 C388 0.930 . S
C396 C397 1.351 . S
C396 N399 1.368 . S
C396 H401 0.931 . S
C397 C396 1.351 . S
C397 N398 1.373 . S
C397 H425 0.930 . S
N398 C397 1.373 . S
N398 C400 1.340 . S
N399 C396 1.368 . S
N399 C400 1.321 . S
N399 Co402 2.135 . S
C400 N398 1.340 . S
C400 N399 1.321 . S
C400 H424 0.930 . S
H401 C396 0.931 . S
Co402 N399 2.135 . S
Co402 N405 2.121 . S
Co402 O410 2.055 . S
Co402 O413 2.039 . S
Co402 N416 2.140 . S
C403 O404 1.227 . S
C403 O413 1.265 . S
O404 C403 1.227 . S
N405 Co402 2.121 . S
N405 C407 1.375 . S
N405 C408 1.313 . S
C406 C407 1.338 . S
C406 N409 1.377 . S
C406 H426 0.930 . S
C407 N405 1.375 . S
C407 C406 1.338 . S
C407 H411 0.931 . S
C408 N405 1.313 . S
C408 N409 1.344 . S
C408 H412 0.930 . S
N409 C406 1.377 . S
N409 C408 1.344 . S
O410 Co402 2.055 . S
O410 C414 1.253 . S
H411 C407 0.931 . S
H412 C408 0.930 . S
O413 Co402 2.039 . S
O413 C403 1.265 . S
C414 O410 1.253 . S
C414 O415 1.227 . S
O415 C414 1.227 . S
N416 Co402 2.140 . S
N416 C419 1.346 . S
N416 C420 1.345 . S
C417 C418 1.387 . S
C417 C421 1.391 . S
C418 C417 1.387 . S
C418 C419 1.369 . S
C418 H427 0.929 . S
C419 N416 1.346 . S
C419 C418 1.369 . S
C419 H422 0.928 . S
C420 N416 1.345 . S
C420 C421 1.371 . S
C420 H423 0.931 . S
C421 C417 1.391 . S
C421 C420 1.371 . S
C421 H428 0.930 . S
H422 C419 0.928 . S
H423 C420 0.931 . S
H424 C400 0.930 . S
H425 C397 0.930 . S
H426 C406 0.930 . S
H427 C418 0.929 . S
H428 C421 0.930 . S
C429 C430 1.351 . S
C429 N432 1.368 . S
C429 H434 0.931 . S
C430 C429 1.351 . S
C430 N431 1.373 . S
C430 H458 0.930 . S
N431 C430 1.373 . S
N431 C433 1.340 . S
N432 C429 1.368 . S
N432 C433 1.321 . S
N432 Co435 2.135 . S
C433 N431 1.340 . S
C433 N432 1.321 . S
C433 H457 0.930 . S
H434 C429 0.931 . S
Co435 N432 2.135 . S
Co435 N438 2.121 . S
Co435 O443 2.055 . S
Co435 O446 2.039 . S
Co435 N449 2.140 . S
C436 O437 1.227 . S
C436 O446 1.265 . S
O437 C436 1.227 . S
N438 Co435 2.121 . S
N438 C440 1.375 . S
N438 C441 1.313 . S
C439 C440 1.338 . S
C439 N442 1.377 . S
C439 H459 0.930 . S
C440 N438 1.375 . S
C440 C439 1.338 . S
C440 H444 0.931 . S
C441 N438 1.313 . S
C441 N442 1.344 . S
C441 H445 0.930 . S
N442 C439 1.377 . S
N442 C441 1.344 . S
O443 Co435 2.055 . S
O443 C447 1.253 . S
H444 C440 0.931 . S
H445 C441 0.930 . S
O446 Co435 2.039 . S
O446 C436 1.265 . S
C447 O443 1.253 . S
C447 O448 1.227 . S
O448 C447 1.227 . S
N449 Co435 2.140 . S
N449 C452 1.346 . S
N449 C453 1.345 . S
C450 C451 1.387 . S
C450 C454 1.391 . S
C451 C450 1.387 . S
C451 C452 1.369 . S
C451 H460 0.929 . S
C452 N449 1.346 . S
C452 C451 1.369 . S
C452 H455 0.928 . S
C453 N449 1.345 . S
C453 C454 1.371 . S
C453 H456 0.931 . S
C454 C450 1.391 . S
C454 C453 1.371 . S
C454 H461 0.930 . S
H455 C452 0.928 . S
H456 C453 0.931 . S
H457 C433 0.930 . S
H458 C430 0.930 . S
H459 C439 0.930 . S
H460 C451 0.929 . S
H461 C454 0.930 . S
C462 C463 1.351 . S
C462 N465 1.368 . S
C462 H467 0.931 . S
C463 C462 1.351 . S
C463 N464 1.373 . S
C463 H491 0.930 . S
N464 C463 1.373 . S
N464 C466 1.340 . S
N465 C462 1.368 . S
N465 C466 1.321 . S
N465 Co468 2.135 . S
C466 N464 1.340 . S
C466 N465 1.321 . S
C466 H490 0.930 . S
H467 C462 0.931 . S
Co468 N465 2.135 . S
Co468 N471 2.121 . S
Co468 O476 2.055 . S
Co468 O479 2.039 . S
Co468 N482 2.140 . S
C469 O470 1.227 . S
C469 O479 1.265 . S
O470 C469 1.227 . S
N471 Co468 2.121 . S
N471 C473 1.375 . S
N471 C474 1.313 . S
C472 C473 1.338 . S
C472 N475 1.377 . S
C472 H492 0.930 . S
C473 N471 1.375 . S
C473 C472 1.338 . S
C473 H477 0.931 . S
C474 N471 1.313 . S
C474 N475 1.344 . S
C474 H478 0.930 . S
N475 C472 1.377 . S
N475 C474 1.344 . S
O476 Co468 2.055 . S
O476 C480 1.253 . S
H477 C473 0.931 . S
H478 C474 0.930 . S
O479 Co468 2.039 . S
O479 C469 1.265 . S
C480 O476 1.253 . S
C480 O481 1.227 . S
O481 C480 1.227 . S
N482 Co468 2.140 . S
N482 C485 1.346 . S
N482 C486 1.345 . S
C483 C484 1.387 . S
C483 C487 1.391 . S
C484 C483 1.387 . S
C484 C485 1.369 . S
C484 H493 0.929 . S
C485 N482 1.346 . S
C485 C484 1.369 . S
C485 H488 0.928 . S
C486 N482 1.345 . S
C486 C487 1.371 . S
C486 H489 0.931 . S
C487 C483 1.391 . S
C487 C486 1.371 . S
C487 H494 0.930 . S
H488 C485 0.928 . S
H489 C486 0.931 . S
H490 C466 0.930 . S
H491 C463 0.930 . S
H492 C472 0.930 . S
H493 C484 0.929 . S
H494 C487 0.930 . S
C495 C496 1.351 . S
C495 N498 1.368 . S
C495 H500 0.931 . S
C496 C495 1.351 . S
C496 N497 1.373 . S
C496 H524 0.930 . S
N497 C496 1.373 . S
N497 C499 1.340 . S
N498 C495 1.368 . S
N498 C499 1.321 . S
N498 Co501 2.135 . S
C499 N497 1.340 . S
C499 N498 1.321 . S
C499 H523 0.930 . S
H500 C495 0.931 . S
Co501 N498 2.135 . S
Co501 N504 2.121 . S
Co501 O509 2.055 . S
Co501 O512 2.039 . S
Co501 N515 2.140 . S
C502 O503 1.227 . S
C502 O512 1.265 . S
O503 C502 1.227 . S
N504 Co501 2.121 . S
N504 C506 1.375 . S
N504 C507 1.313 . S
C505 C506 1.338 . S
C505 N508 1.377 . S
C505 H525 0.930 . S
C506 N504 1.375 . S
C506 C505 1.338 . S
C506 H510 0.931 . S
C507 N504 1.313 . S
C507 N508 1.344 . S
C507 H511 0.930 . S
N508 C505 1.377 . S
N508 C507 1.344 . S
O509 Co501 2.055 . S
O509 C513 1.253 . S
H510 C506 0.931 . S
H511 C507 0.930 . S
O512 Co501 2.039 . S
O512 C502 1.265 . S
C513 O509 1.253 . S
C513 O514 1.227 . S
O514 C513 1.227 . S
N515 Co501 2.140 . S
N515 C518 1.346 . S
N515 C519 1.345 . S
C516 C517 1.387 . S
C516 C520 1.391 . S
C517 C516 1.387 . S
C517 C518 1.369 . S
C517 H526 0.929 . S
C518 N515 1.346 . S
C518 C517 1.369 . S
C518 H521 0.928 . S
C519 N515 1.345 . S
C519 C520 1.371 . S
C519 H522 0.931 . S
C520 C516 1.391 . S
C520 C519 1.371 . S
C520 H527 0.930 . S
H521 C518 0.928 . S
H522 C519 0.931 . S
H523 C499 0.930 . S
H524 C496 0.930 . S
H525 C505 0.930 . S
H526 C517 0.929 . S
H527 C520 0.930 . S
C528 C529 1.363 . S
C528 C534 1.379 1_655 S
C528 N536 1.356 . S
C529 C528 1.363 . S
C529 C535 1.363 . S
C530 C531 1.363 . S
C530 C535 1.379 1_455 S
C530 N537 1.356 . S
C531 C530 1.363 . S
C531 C534 1.363 . S
N532 C534 1.356 . S
N532 H544 0.984 . S
N532 H545 0.985 . S
N533 C535 1.356 . S
N533 H538 0.984 . S
N533 H539 0.985 . S
C534 C528 1.379 1_455 S
C534 C531 1.363 . S
C534 N532 1.356 . S
C535 C529 1.363 . S
C535 C530 1.379 1_655 S
C535 N533 1.356 . S
N536 C528 1.356 . S
N536 H542 0.984 . S
N536 H543 0.984 . S
N537 C530 1.356 . S
N537 H540 0.984 . S
N537 H541 0.985 . S
H538 N533 0.984 . S
H539 N533 0.985 . S
H540 N537 0.984 . S
H541 N537 0.985 . S
H542 N536 0.984 . S
H543 N536 0.984 . S
H544 N532 0.984 . S
H545 N532 0.985 . S
C546 C547 1.363 . S
C546 C552 1.379 1_545 S
C546 N554 1.356 . S
C547 C546 1.363 . S
C547 C553 1.363 . S
C548 C549 1.363 . S
C548 C553 1.379 1_565 S
C548 N555 1.356 . S
C549 C548 1.363 . S
C549 C552 1.363 . S
N550 C552 1.356 . S
N550 H562 0.984 . S
N550 H563 0.985 . S
N551 C553 1.356 . S
N551 H556 0.984 . S
N551 H557 0.985 . S
C552 C546 1.379 1_565 S
C552 C549 1.363 . S
C552 N550 1.356 . S
C553 C547 1.363 . S
C553 C548 1.379 1_545 S
C553 N551 1.356 . S
N554 C546 1.356 . S
N554 H560 0.984 . S
N554 H561 0.984 . S
N555 C548 1.356 . S
N555 H558 0.984 . S
N555 H559 0.985 . S
H556 N551 0.984 . S
H557 N551 0.985 . S
H558 N555 0.984 . S
H559 N555 0.985 . S
H560 N554 0.984 . S
H561 N554 0.984 . S
H562 N550 0.984 . S
H563 N550 0.985 . S
C564 C565 1.363 . S
C564 C570 1.379 1_655 S
C564 N572 1.356 . S
C565 C564 1.363 . S
C565 C571 1.363 . S
C566 C567 1.363 . S
C566 C571 1.379 1_455 S
C566 N573 1.356 . S
C567 C566 1.363 . S
C567 C570 1.363 . S
N568 C570 1.356 . S
N568 H580 0.984 . S
N568 H581 0.985 . S
N569 C571 1.356 . S
N569 H574 0.984 . S
N569 H575 0.985 . S
C570 C564 1.379 1_455 S
C570 C567 1.363 . S
C570 N568 1.356 . S
C571 C565 1.363 . S
C571 C566 1.379 1_655 S
C571 N569 1.356 . S
N572 C564 1.356 . S
N572 H578 0.984 . S
N572 H579 0.984 . S
N573 C566 1.356 . S
N573 H576 0.984 . S
N573 H577 0.985 . S
H574 N569 0.984 . S
H575 N569 0.985 . S
H576 N573 0.984 . S
H577 N573 0.985 . S
H578 N572 0.984 . S
H579 N572 0.984 . S
H580 N568 0.984 . S
H581 N568 0.985 . S
C582 C583 1.363 . S
C582 C588 1.379 1_565 S
C582 N590 1.356 . S
C583 C582 1.363 . S
C583 C589 1.363 . S
C584 C585 1.363 . S
C584 C589 1.379 1_545 S
C584 N591 1.356 . S
C585 C584 1.363 . S
C585 C588 1.363 . S
N586 C588 1.356 . S
N586 H598 0.984 . S
N586 H599 0.985 . S
N587 C589 1.356 . S
N587 H592 0.984 . S
N587 H593 0.985 . S
C588 C582 1.379 1_545 S
C588 C585 1.363 . S
C588 N586 1.356 . S
C589 C583 1.363 . S
C589 C584 1.379 1_565 S
C589 N587 1.356 . S
N590 C582 1.356 . S
N590 H596 0.984 . S
N590 H597 0.984 . S
N591 C584 1.356 . S
N591 H594 0.984 . S
N591 H595 0.985 . S
H592 N587 0.984 . S
H593 N587 0.985 . S
H594 N591 0.984 . S
H595 N591 0.985 . S
H596 N590 0.984 . S
H597 N590 0.984 . S
H598 N586 0.984 . S
H599 N586 0.985 . S
C600 C601 1.363 . S
C600 C606 1.379 1_655 S
C600 N608 1.356 . S
C601 C600 1.363 . S
C601 C607 1.363 . S
C602 C603 1.363 . S
C602 C607 1.379 1_455 S
C602 N609 1.356 . S
C603 C602 1.363 . S
C603 C606 1.363 . S
N604 C606 1.356 . S
N604 H616 0.984 . S
N604 H617 0.985 . S
N605 C607 1.356 . S
N605 H610 0.984 . S
N605 H611 0.985 . S
C606 C600 1.379 1_455 S
C606 C603 1.363 . S
C606 N604 1.356 . S
C607 C601 1.363 . S
C607 C602 1.379 1_655 S
C607 N605 1.356 . S
N608 C600 1.356 . S
N608 H614 0.984 . S
N608 H615 0.984 . S
N609 C602 1.356 . S
N609 H612 0.984 . S
N609 H613 0.985 . S
H610 N605 0.984 . S
H611 N605 0.985 . S
H612 N609 0.984 . S
H613 N609 0.985 . S
H614 N608 0.984 . S
H615 N608 0.984 . S
H616 N604 0.984 . S
H617 N604 0.985 . S
C618 C619 1.363 . S
C618 C624 1.379 1_565 S
C618 N626 1.356 . S
C619 C618 1.363 . S
C619 C625 1.363 . S
C620 C621 1.363 . S
C620 C625 1.379 1_545 S
C620 N627 1.356 . S
C621 C620 1.363 . S
C621 C624 1.363 . S
N622 C624 1.356 . S
N622 H634 0.984 . S
N622 H635 0.985 . S
N623 C625 1.356 . S
N623 H628 0.984 . S
N623 H629 0.985 . S
C624 C618 1.379 1_545 S
C624 C621 1.363 . S
C624 N622 1.356 . S
C625 C619 1.363 . S
C625 C620 1.379 1_565 S
C625 N623 1.356 . S
N626 C618 1.356 . S
N626 H632 0.984 . S
N626 H633 0.984 . S
N627 C620 1.356 . S
N627 H630 0.984 . S
N627 H631 0.985 . S
H628 N623 0.984 . S
H629 N623 0.985 . S
H630 N627 0.984 . S
H631 N627 0.985 . S
H632 N626 0.984 . S
H633 N626 0.984 . S
H634 N622 0.984 . S
H635 N622 0.985 . S
C636 C637 1.363 . S
C636 C642 1.379 1_655 S
C636 N644 1.356 . S
C637 C636 1.363 . S
C637 C643 1.363 . S
C638 C639 1.363 . S
C638 C643 1.379 1_455 S
C638 N645 1.356 . S
C639 C638 1.363 . S
C639 C642 1.363 . S
N640 C642 1.356 . S
N640 H652 0.984 . S
N640 H653 0.985 . S
N641 C643 1.356 . S
N641 H646 0.984 . S
N641 H647 0.985 . S
C642 C636 1.379 1_455 S
C642 C639 1.363 . S
C642 N640 1.356 . S
C643 C637 1.363 . S
C643 C638 1.379 1_655 S
C643 N641 1.356 . S
N644 C636 1.356 . S
N644 H650 0.984 . S
N644 H651 0.984 . S
N645 C638 1.356 . S
N645 H648 0.984 . S
N645 H649 0.985 . S
H646 N641 0.984 . S
H647 N641 0.985 . S
H648 N645 0.984 . S
H649 N645 0.985 . S
H650 N644 0.984 . S
H651 N644 0.984 . S
H652 N640 0.984 . S
H653 N640 0.985 . S
C654 C655 1.363 . S
C654 C660 1.379 1_545 S
C654 N662 1.356 . S
C655 C654 1.363 . S
C655 C661 1.363 . S
C656 C657 1.363 . S
C656 C661 1.379 1_565 S
C656 N663 1.356 . S
C657 C656 1.363 . S
C657 C660 1.363 . S
N658 C660 1.356 . S
N658 H670 0.984 . S
N658 H671 0.985 . S
N659 C661 1.356 . S
N659 H664 0.984 . S
N659 H665 0.985 . S
C660 C654 1.379 1_565 S
C660 C657 1.363 . S
C660 N658 1.356 . S
C661 C655 1.363 . S
C661 C656 1.379 1_545 S
C661 N659 1.356 . S
N662 C654 1.356 . S
N662 H668 0.984 . S
N662 H669 0.984 . S
N663 C656 1.356 . S
N663 H666 0.984 . S
N663 H667 0.985 . S
H664 N659 0.984 . S
H665 N659 0.985 . S
H666 N663 0.984 . S
H667 N663 0.985 . S
H668 N662 0.984 . S
H669 N662 0.984 . S
H670 N658 0.984 . S
H671 N658 0.985 . S
C672 C673 1.363 . S
C672 C678 1.379 . S
C672 N680 1.356 . S
C673 C672 1.363 . S
C673 C679 1.363 . S
C674 C675 1.363 . S
C674 C679 1.379 . S
C674 N681 1.356 . S
C675 C674 1.363 . S
C675 C678 1.363 . S
N676 C678 1.356 . S
N676 H688 0.984 . S
N676 H689 0.985 . S
N677 C679 1.356 . S
N677 H682 0.984 . S
N677 H683 0.985 . S
C678 C672 1.379 . S
C678 C675 1.363 . S
C678 N676 1.356 . S
C679 C673 1.363 . S
C679 C674 1.379 . S
C679 N677 1.356 . S
N680 C672 1.356 . S
N680 H686 0.984 . S
N680 H687 0.984 . S
N681 C674 1.356 . S
N681 H684 0.984 . S
N681 H685 0.985 . S
H682 N677 0.984 . S
H683 N677 0.985 . S
H684 N681 0.984 . S
H685 N681 0.985 . S
H686 N680 0.984 . S
H687 N680 0.984 . S
H688 N676 0.984 . S
H689 N676 0.985 . S
C690 C691 1.363 . S
C690 C696 1.379 . S
C690 N698 1.356 . S
C691 C690 1.363 . S
C691 C697 1.363 . S
C692 C693 1.363 . S
C692 C697 1.379 . S
C692 N699 1.356 . S
C693 C692 1.363 . S
C693 C696 1.363 . S
N694 C696 1.356 . S
N694 H706 0.984 . S
N694 H707 0.985 . S
N695 C697 1.356 . S
N695 H700 0.984 . S
N695 H701 0.985 . S
C696 C690 1.379 . S
C696 C693 1.363 . S
C696 N694 1.356 . S
C697 C691 1.363 . S
C697 C692 1.379 . S
C697 N695 1.356 . S
N698 C690 1.356 . S
N698 H704 0.984 . S
N698 H705 0.984 . S
N699 C692 1.356 . S
N699 H702 0.984 . S
N699 H703 0.985 . S
H700 N695 0.984 . S
H701 N695 0.985 . S
H702 N699 0.984 . S
H703 N699 0.985 . S
H704 N698 0.984 . S
H705 N698 0.984 . S
H706 N694 0.984 . S
H707 N694 0.985 . S
C708 C709 1.363 . S
C708 C714 1.379 . S
C708 N716 1.356 . S
C709 C708 1.363 . S
C709 C715 1.363 . S
C710 C711 1.363 . S
C710 C715 1.379 . S
C710 N717 1.356 . S
C711 C710 1.363 . S
C711 C714 1.363 . S
N712 C714 1.356 . S
N712 H724 0.984 . S
N712 H725 0.985 . S
N713 C715 1.356 . S
N713 H718 0.984 . S
N713 H719 0.985 . S
C714 C708 1.379 . S
C714 C711 1.363 . S
C714 N712 1.356 . S
C715 C709 1.363 . S
C715 C710 1.379 . S
C715 N713 1.356 . S
N716 C708 1.356 . S
N716 H722 0.984 . S
N716 H723 0.984 . S
N717 C710 1.356 . S
N717 H720 0.984 . S
N717 H721 0.985 . S
H718 N713 0.984 . S
H719 N713 0.985 . S
H720 N717 0.984 . S
H721 N717 0.985 . S
H722 N716 0.984 . S
H723 N716 0.984 . S
H724 N712 0.984 . S
H725 N712 0.985 . S
C726 C727 1.363 . S
C726 C732 1.379 . S
C726 N734 1.356 . S
C727 C726 1.363 . S
C727 C733 1.363 . S
C728 C729 1.363 . S
C728 C733 1.379 . S
C728 N735 1.356 . S
C729 C728 1.363 . S
C729 C732 1.363 . S
N730 C732 1.356 . S
N730 H742 0.984 . S
N730 H743 0.985 . S
N731 C733 1.356 . S
N731 H736 0.984 . S
N731 H737 0.985 . S
C732 C726 1.379 . S
C732 C729 1.363 . S
C732 N730 1.356 . S
C733 C727 1.363 . S
C733 C728 1.379 . S
C733 N731 1.356 . S
N734 C726 1.356 . S
N734 H740 0.984 . S
N734 H741 0.984 . S
N735 C728 1.356 . S
N735 H738 0.984 . S
N735 H739 0.985 . S
H736 N731 0.984 . S
H737 N731 0.985 . S
H738 N735 0.984 . S
H739 N735 0.985 . S
H740 N734 0.984 . S
H741 N734 0.984 . S
H742 N730 0.984 . S
H743 N730 0.985 . S
C744 C745 1.363 . S
C744 C750 1.379 . S
C744 N752 1.356 . S
C745 C744 1.363 . S
C745 C751 1.363 . S
C746 C747 1.363 . S
C746 C751 1.379 . S
C746 N753 1.356 . S
C747 C746 1.363 . S
C747 C750 1.363 . S
N748 C750 1.356 . S
N748 H760 0.984 . S
N748 H761 0.985 . S
N749 C751 1.356 . S
N749 H754 0.984 . S
N749 H755 0.985 . S
C750 C744 1.379 . S
C750 C747 1.363 . S
C750 N748 1.356 . S
C751 C745 1.363 . S
C751 C746 1.379 . S
C751 N749 1.356 . S
N752 C744 1.356 . S
N752 H758 0.984 . S
N752 H759 0.984 . S
N753 C746 1.356 . S
N753 H756 0.984 . S
N753 H757 0.985 . S
H754 N749 0.984 . S
H755 N749 0.985 . S
H756 N753 0.984 . S
H757 N753 0.985 . S
H758 N752 0.984 . S
H759 N752 0.984 . S
H760 N748 0.984 . S
H761 N748 0.985 . S
C762 C763 1.363 . S
C762 C768 1.379 . S
C762 N770 1.356 . S
C763 C762 1.363 . S
C763 C769 1.363 . S
C764 C765 1.363 . S
C764 C769 1.379 . S
C764 N771 1.356 . S
C765 C764 1.363 . S
C765 C768 1.363 . S
N766 C768 1.356 . S
N766 H778 0.984 . S
N766 H779 0.985 . S
N767 C769 1.356 . S
N767 H772 0.984 . S
N767 H773 0.985 . S
C768 C762 1.379 . S
C768 C765 1.363 . S
C768 N766 1.356 . S
C769 C763 1.363 . S
C769 C764 1.379 . S
C769 N767 1.356 . S
N770 C762 1.356 . S
N770 H776 0.984 . S
N770 H777 0.984 . S
N771 C764 1.356 . S
N771 H774 0.984 . S
N771 H775 0.985 . S
H772 N767 0.984 . S
H773 N767 0.985 . S
H774 N771 0.984 . S
H775 N771 0.985 . S
H776 N770 0.984 . S
H777 N770 0.984 . S
H778 N766 0.984 . S
H779 N766 0.985 . S
C780 C781 1.363 . S
C780 C786 1.379 . S
C780 N788 1.356 . S
C781 C780 1.363 . S
C781 C787 1.363 . S
C782 C783 1.363 . S
C782 C787 1.379 . S
C782 N789 1.356 . S
C783 C782 1.363 . S
C783 C786 1.363 . S
N784 C786 1.356 . S
N784 H796 0.984 . S
N784 H797 0.985 . S
N785 C787 1.356 . S
N785 H790 0.984 . S
N785 H791 0.985 . S
C786 C780 1.379 . S
C786 C783 1.363 . S
C786 N784 1.356 . S
C787 C781 1.363 . S
C787 C782 1.379 . S
C787 N785 1.356 . S
N788 C780 1.356 . S
N788 H794 0.984 . S
N788 H795 0.984 . S
N789 C782 1.356 . S
N789 H792 0.984 . S
N789 H793 0.985 . S
H790 N785 0.984 . S
H791 N785 0.985 . S
H792 N789 0.984 . S
H793 N789 0.985 . S
H794 N788 0.984 . S
H795 N788 0.984 . S
H796 N784 0.984 . S
H797 N784 0.985 . S
C798 C799 1.363 . S
C798 C804 1.379 . S
C798 N806 1.356 . S
C799 C798 1.363 . S
C799 C805 1.363 . S
C800 C801 1.363 . S
C800 C805 1.379 . S
C800 N807 1.356 . S
C801 C800 1.363 . S
C801 C804 1.363 . S
N802 C804 1.356 . S
N802 H814 0.984 . S
N802 H815 0.985 . S
N803 C805 1.356 . S
N803 H808 0.984 . S
N803 H809 0.985 . S
C804 C798 1.379 . S
C804 C801 1.363 . S
C804 N802 1.356 . S
C805 C799 1.363 . S
C805 C800 1.379 . S
C805 N803 1.356 . S
N806 C798 1.356 . S
N806 H812 0.984 . S
N806 H813 0.984 . S
N807 C800 1.356 . S
N807 H810 0.984 . S
N807 H811 0.985 . S
H808 N803 0.984 . S
H809 N803 0.985 . S
H810 N807 0.984 . S
H811 N807 0.985 . S
H812 N806 0.984 . S
H813 N806 0.984 . S
H814 N802 0.984 . S
H815 N802 0.985 . S
C816 C817 1.363 . S
C816 C822 1.379 1_554 S
C816 N824 1.356 . S
C817 C816 1.363 . S
C817 C823 1.363 . S
C818 C819 1.363 . S
C818 C823 1.379 1_556 S
C818 N825 1.356 . S
C819 C818 1.363 . S
C819 C822 1.363 . S
N820 C822 1.356 . S
N820 H832 0.984 . S
N820 H833 0.985 . S
N821 C823 1.356 . S
N821 H826 0.984 . S
N821 H827 0.985 . S
C822 C816 1.379 1_556 S
C822 C819 1.363 . S
C822 N820 1.356 . S
C823 C817 1.363 . S
C823 C818 1.379 1_554 S
C823 N821 1.356 . S
N824 C816 1.356 . S
N824 H830 0.984 . S
N824 H831 0.984 . S
N825 C818 1.356 . S
N825 H828 0.984 . S
N825 H829 0.985 . S
H826 N821 0.984 . S
H827 N821 0.985 . S
H828 N825 0.984 . S
H829 N825 0.985 . S
H830 N824 0.984 . S
H831 N824 0.984 . S
H832 N820 0.984 . S
H833 N820 0.985 . S
C834 C835 1.363 . S
C834 C840 1.379 . S
C834 N842 1.356 . S
C835 C834 1.363 . S
C835 C841 1.363 . S
C836 C837 1.363 . S
C836 C841 1.379 . S
C836 N843 1.356 . S
C837 C836 1.363 . S
C837 C840 1.363 . S
N838 C840 1.356 . S
N838 H850 0.984 . S
N838 H851 0.985 . S
N839 C841 1.356 . S
N839 H844 0.984 . S
N839 H845 0.985 . S
C840 C834 1.379 . S
C840 C837 1.363 . S
C840 N838 1.356 . S
C841 C835 1.363 . S
C841 C836 1.379 . S
C841 N839 1.356 . S
N842 C834 1.356 . S
N842 H848 0.984 . S
N842 H849 0.984 . S
N843 C836 1.356 . S
N843 H846 0.984 . S
N843 H847 0.985 . S
H844 N839 0.984 . S
H845 N839 0.985 . S
H846 N843 0.984 . S
H847 N843 0.985 . S
H848 N842 0.984 . S
H849 N842 0.984 . S
H850 N838 0.984 . S
H851 N838 0.985 . S
C852 C853 1.363 . S
C852 C858 1.379 1_556 S
C852 N860 1.356 . S
C853 C852 1.363 . S
C853 C859 1.363 . S
C854 C855 1.363 . S
C854 C859 1.379 1_554 S
C854 N861 1.356 . S
C855 C854 1.363 . S
C855 C858 1.363 . S
N856 C858 1.356 . S
N856 H868 0.984 . S
N856 H869 0.985 . S
N857 C859 1.356 . S
N857 H862 0.984 . S
N857 H863 0.985 . S
C858 C852 1.379 1_554 S
C858 C855 1.363 . S
C858 N856 1.356 . S
C859 C853 1.363 . S
C859 C854 1.379 1_556 S
C859 N857 1.356 . S
N860 C852 1.356 . S
N860 H866 0.984 . S
N860 H867 0.984 . S
N861 C854 1.356 . S
N861 H864 0.984 . S
N861 H865 0.985 . S
H862 N857 0.984 . S
H863 N857 0.985 . S
H864 N861 0.984 . S
H865 N861 0.985 . S
H866 N860 0.984 . S
H867 N860 0.984 . S
H868 N856 0.984 . S
H869 N856 0.985 . S
C870 C871 1.363 . S
C870 C876 1.379 . S
C870 N878 1.356 . S
C871 C870 1.363 . S
C871 C877 1.363 . S
C872 C873 1.363 . S
C872 C877 1.379 . S
C872 N879 1.356 . S
C873 C872 1.363 . S
C873 C876 1.363 . S
N874 C876 1.356 . S
N874 H886 0.984 . S
N874 H887 0.985 . S
N875 C877 1.356 . S
N875 H880 0.984 . S
N875 H881 0.985 . S
C876 C870 1.379 . S
C876 C873 1.363 . S
C876 N874 1.356 . S
C877 C871 1.363 . S
C877 C872 1.379 . S
C877 N875 1.356 . S
N878 C870 1.356 . S
N878 H884 0.984 . S
N878 H885 0.984 . S
N879 C872 1.356 . S
N879 H882 0.984 . S
N879 H883 0.985 . S
H880 N875 0.984 . S
H881 N875 0.985 . S
H882 N879 0.984 . S
H883 N879 0.985 . S
H884 N878 0.984 . S
H885 N878 0.984 . S
H886 N874 0.984 . S
H887 N874 0.985 . S
C888 C889 1.363 . S
C888 C894 1.379 1_556 S
C888 N896 1.356 . S
C889 C888 1.363 . S
C889 C895 1.363 . S
C890 C891 1.363 . S
C890 C895 1.379 1_554 S
C890 N897 1.356 . S
C891 C890 1.363 . S
C891 C894 1.363 . S
N892 C894 1.356 . S
N892 H904 0.984 . S
N892 H905 0.985 . S
N893 C895 1.356 . S
N893 H898 0.984 . S
N893 H899 0.985 . S
C894 C888 1.379 1_554 S
C894 C891 1.363 . S
C894 N892 1.356 . S
C895 C889 1.363 . S
C895 C890 1.379 1_556 S
C895 N893 1.356 . S
N896 C888 1.356 . S
N896 H902 0.984 . S
N896 H903 0.984 . S
N897 C890 1.356 . S
N897 H900 0.984 . S
N897 H901 0.985 . S
H898 N893 0.984 . S
H899 N893 0.985 . S
H900 N897 0.984 . S
H901 N897 0.985 . S
H902 N896 0.984 . S
H903 N896 0.984 . S
H904 N892 0.984 . S
H905 N892 0.985 . S
C906 C907 1.363 . S
C906 C912 1.379 . S
C906 N914 1.356 . S
C907 C906 1.363 . S
C907 C913 1.363 . S
C908 C909 1.363 . S
C908 C913 1.379 . S
C908 N915 1.356 . S
C909 C908 1.363 . S
C909 C912 1.363 . S
N910 C912 1.356 . S
N910 H922 0.984 . S
N910 H923 0.985 . S
N911 C913 1.356 . S
N911 H916 0.984 . S
N911 H917 0.985 . S
C912 C906 1.379 . S
C912 C909 1.363 . S
C912 N910 1.356 . S
C913 C907 1.363 . S
C913 C908 1.379 . S
C913 N911 1.356 . S
N914 C906 1.356 . S
N914 H920 0.984 . S
N914 H921 0.984 . S
N915 C908 1.356 . S
N915 H918 0.984 . S
N915 H919 0.985 . S
H916 N911 0.984 . S
H917 N911 0.985 . S
H918 N915 0.984 . S
H919 N915 0.985 . S
H920 N914 0.984 . S
H921 N914 0.984 . S
H922 N910 0.984 . S
H923 N910 0.985 . S
C924 C925 1.363 . S
C924 C930 1.379 1_554 S
C924 N932 1.356 . S
C925 C924 1.363 . S
C925 C931 1.363 . S
C926 C927 1.363 . S
C926 C931 1.379 1_556 S
C926 N933 1.356 . S
C927 C926 1.363 . S
C927 C930 1.363 . S
N928 C930 1.356 . S
N928 H940 0.984 . S
N928 H941 0.985 . S
N929 C931 1.356 . S
N929 H934 0.984 . S
N929 H935 0.985 . S
C930 C924 1.379 1_556 S
C930 C927 1.363 . S
C930 N928 1.356 . S
C931 C925 1.363 . S
C931 C926 1.379 1_554 S
C931 N929 1.356 . S
N932 C924 1.356 . S
N932 H938 0.984 . S
N932 H939 0.984 . S
N933 C926 1.356 . S
N933 H936 0.984 . S
N933 H937 0.985 . S
H934 N929 0.984 . S
H935 N929 0.985 . S
H936 N933 0.984 . S
H937 N933 0.985 . S
H938 N932 0.984 . S
H939 N932 0.984 . S
H940 N928 0.984 . S
H941 N928 0.985 . S
C942 C943 1.363 . S
C942 C948 1.379 . S
C942 N950 1.356 . S
C943 C942 1.363 . S
C943 C949 1.363 . S
C944 C945 1.363 . S
C944 C949 1.379 . S
C944 N951 1.356 . S
C945 C944 1.363 . S
C945 C948 1.363 . S
N946 C948 1.356 . S
N946 H958 0.984 . S
N946 H959 0.985 . S
N947 C949 1.356 . S
N947 H952 0.984 . S
N947 H953 0.985 . S
C948 C942 1.379 . S
C948 C945 1.363 . S
C948 N946 1.356 . S
C949 C943 1.363 . S
C949 C944 1.379 . S
C949 N947 1.356 . S
N950 C942 1.356 . S
N950 H956 0.984 . S
N950 H957 0.984 . S
N951 C944 1.356 . S
N951 H954 0.984 . S
N951 H955 0.985 . S
H952 N947 0.984 . S
H953 N947 0.985 . S
H954 N951 0.984 . S
H955 N951 0.985 . S
H956 N950 0.984 . S
H957 N950 0.984 . S
H958 N946 0.984 . S
H959 N946 0.985 . S
C960 C961 1.363 . S
C960 C966 1.379 . S
C960 N968 1.356 . S
C961 C960 1.363 . S
C961 C967 1.363 . S
C962 C963 1.363 . S
C962 C967 1.379 . S
C962 N969 1.356 . S
C963 C962 1.363 . S
C963 C966 1.363 . S
N964 C966 1.356 . S
N964 H976 0.984 . S
N964 H977 0.985 . S
N965 C967 1.356 . S
N965 H970 0.984 . S
N965 H971 0.985 . S
C966 C960 1.379 . S
C966 C963 1.363 . S
C966 N964 1.356 . S
C967 C961 1.363 . S
C967 C962 1.379 . S
C967 N965 1.356 . S
N968 C960 1.356 . S
N968 H974 0.984 . S
N968 H975 0.984 . S
N969 C962 1.356 . S
N969 H972 0.984 . S
N969 H973 0.985 . S
H970 N965 0.984 . S
H971 N965 0.985 . S
H972 N969 0.984 . S
H973 N969 0.985 . S
H974 N968 0.984 . S
H975 N968 0.984 . S
H976 N964 0.984 . S
H977 N964 0.985 . S
C978 C979 1.363 . S
C978 C984 1.379 . S
C978 N986 1.356 . S
C979 C978 1.363 . S
C979 C985 1.363 . S
C980 C981 1.363 . S
C980 C985 1.379 . S
C980 N987 1.356 . S
C981 C980 1.363 . S
C981 C984 1.363 . S
N982 C984 1.356 . S
N982 H994 0.984 . S
N982 H995 0.985 . S
N983 C985 1.356 . S
N983 H988 0.984 . S
N983 H989 0.985 . S
C984 C978 1.379 . S
C984 C981 1.363 . S
C984 N982 1.356 . S
C985 C979 1.363 . S
C985 C980 1.379 . S
C985 N983 1.356 . S
N986 C978 1.356 . S
N986 H992 0.984 . S
N986 H993 0.984 . S
N987 C980 1.356 . S
N987 H990 0.984 . S
N987 H991 0.985 . S
H988 N983 0.984 . S
H989 N983 0.985 . S
H990 N987 0.984 . S
H991 N987 0.985 . S
H992 N986 0.984 . S
H993 N986 0.984 . S
H994 N982 0.984 . S
H995 N982 0.985 . S
C996 C997 1.363 . S
C996 C1002 1.379 . S
C996 N1004 1.356 . S
C997 C996 1.363 . S
C997 C1003 1.363 . S
C998 C999 1.363 . S
C998 C1003 1.379 . S
C998 N1005 1.356 . S
C999 C998 1.363 . S
C999 C1002 1.363 . S
N1000 C1002 1.356 . S
N1000 H1012 0.984 . S
N1000 H1013 0.985 . S
N1001 C1003 1.356 . S
N1001 H1006 0.984 . S
N1001 H1007 0.985 . S
C1002 C996 1.379 . S
C1002 C999 1.363 . S
C1002 N1000 1.356 . S
C1003 C997 1.363 . S
C1003 C998 1.379 . S
C1003 N1001 1.356 . S
N1004 C996 1.356 . S
N1004 H1010 0.984 . S
N1004 H1011 0.984 . S
N1005 C998 1.356 . S
N1005 H1008 0.984 . S
N1005 H1009 0.985 . S
H1006 N1001 0.984 . S
H1007 N1001 0.985 . S
H1008 N1005 0.984 . S
H1009 N1005 0.985 . S
H1010 N1004 0.984 . S
H1011 N1004 0.984 . S
H1012 N1000 0.984 . S
H1013 N1000 0.985 . S
C1014 C1015 1.363 . S
C1014 C1020 1.379 . S
C1014 N1022 1.356 . S
C1015 C1014 1.363 . S
C1015 C1021 1.363 . S
C1016 C1017 1.363 . S
C1016 C1021 1.379 . S
C1016 N1023 1.356 . S
C1017 C1016 1.363 . S
C1017 C1020 1.363 . S
N1018 C1020 1.356 . S
N1018 H1030 0.984 . S
N1018 H1031 0.985 . S
N1019 C1021 1.356 . S
N1019 H1024 0.984 . S
N1019 H1025 0.985 . S
C1020 C1014 1.379 . S
C1020 C1017 1.363 . S
C1020 N1018 1.356 . S
C1021 C1015 1.363 . S
C1021 C1016 1.379 . S
C1021 N1019 1.356 . S
N1022 C1014 1.356 . S
N1022 H1028 0.984 . S
N1022 H1029 0.984 . S
N1023 C1016 1.356 . S
N1023 H1026 0.984 . S
N1023 H1027 0.985 . S
H1024 N1019 0.984 . S
H1025 N1019 0.985 . S
H1026 N1023 0.984 . S
H1027 N1023 0.985 . S
H1028 N1022 0.984 . S
H1029 N1022 0.984 . S
H1030 N1018 0.984 . S
H1031 N1018 0.985 . S
C1032 C1033 1.363 . S
C1032 C1038 1.379 . S
C1032 N1040 1.356 . S
C1033 C1032 1.363 . S
C1033 C1039 1.363 . S
C1034 C1035 1.363 . S
C1034 C1039 1.379 . S
C1034 N1041 1.356 . S
C1035 C1034 1.363 . S
C1035 C1038 1.363 . S
N1036 C1038 1.356 . S
N1036 H1048 0.984 . S
N1036 H1049 0.985 . S
N1037 C1039 1.356 . S
N1037 H1042 0.984 . S
N1037 H1043 0.985 . S
C1038 C1032 1.379 . S
C1038 C1035 1.363 . S
C1038 N1036 1.356 . S
C1039 C1033 1.363 . S
C1039 C1034 1.379 . S
C1039 N1037 1.356 . S
N1040 C1032 1.356 . S
N1040 H1046 0.984 . S
N1040 H1047 0.984 . S
N1041 C1034 1.356 . S
N1041 H1044 0.984 . S
N1041 H1045 0.985 . S
H1042 N1037 0.984 . S
H1043 N1037 0.985 . S
H1044 N1041 0.984 . S
H1045 N1041 0.985 . S
H1046 N1040 0.984 . S
H1047 N1040 0.984 . S
H1048 N1036 0.984 . S
H1049 N1036 0.985 . S
C1050 C1051 1.363 . S
C1050 C1056 1.379 . S
C1050 N1058 1.356 . S
C1051 C1050 1.363 . S
C1051 C1057 1.363 . S
C1052 C1053 1.363 . S
C1052 C1057 1.379 . S
C1052 N1059 1.356 . S
C1053 C1052 1.363 . S
C1053 C1056 1.363 . S
N1054 C1056 1.356 . S
N1054 H1066 0.984 . S
N1054 H1067 0.985 . S
N1055 C1057 1.356 . S
N1055 H1060 0.984 . S
N1055 H1061 0.985 . S
C1056 C1050 1.379 . S
C1056 C1053 1.363 . S
C1056 N1054 1.356 . S
C1057 C1051 1.363 . S
C1057 C1052 1.379 . S
C1057 N1055 1.356 . S
N1058 C1050 1.356 . S
N1058 H1064 0.984 . S
N1058 H1065 0.984 . S
N1059 C1052 1.356 . S
N1059 H1062 0.984 . S
N1059 H1063 0.985 . S
H1060 N1055 0.984 . S
H1061 N1055 0.985 . S
H1062 N1059 0.984 . S
H1063 N1059 0.985 . S
H1064 N1058 0.984 . S
H1065 N1058 0.984 . S
H1066 N1054 0.984 . S
H1067 N1054 0.985 . S
C1068 C1069 1.363 . S
C1068 C1074 1.379 . S
C1068 N1076 1.356 . S
C1069 C1068 1.363 . S
C1069 C1075 1.363 . S
C1070 C1071 1.363 . S
C1070 C1075 1.379 . S
C1070 N1077 1.356 . S
C1071 C1070 1.363 . S
C1071 C1074 1.363 . S
N1072 C1074 1.356 . S
N1072 H1084 0.984 . S
N1072 H1085 0.985 . S
N1073 C1075 1.356 . S
N1073 H1078 0.984 . S
N1073 H1079 0.985 . S
C1074 C1068 1.379 . S
C1074 C1071 1.363 . S
C1074 N1072 1.356 . S
C1075 C1069 1.363 . S
C1075 C1070 1.379 . S
C1075 N1073 1.356 . S
N1076 C1068 1.356 . S
N1076 H1082 0.984 . S
N1076 H1083 0.984 . S
N1077 C1070 1.356 . S
N1077 H1080 0.984 . S
N1077 H1081 0.985 . S
H1078 N1073 0.984 . S
H1079 N1073 0.985 . S
H1080 N1077 0.984 . S
H1081 N1077 0.985 . S
H1082 N1076 0.984 . S
H1083 N1076 0.984 . S
H1084 N1072 0.984 . S
H1085 N1072 0.985 . S
C1086 C1087 1.363 . S
C1086 C1092 1.379 . S
C1086 N1094 1.356 . S
C1087 C1086 1.363 . S
C1087 C1093 1.363 . S
C1088 C1089 1.363 . S
C1088 C1093 1.379 . S
C1088 N1095 1.356 . S
C1089 C1088 1.363 . S
C1089 C1092 1.363 . S
N1090 C1092 1.356 . S
N1090 H1102 0.984 . S
N1090 H1103 0.985 . S
N1091 C1093 1.356 . S
N1091 H1096 0.984 . S
N1091 H1097 0.985 . S
C1092 C1086 1.379 . S
C1092 C1089 1.363 . S
C1092 N1090 1.356 . S
C1093 C1087 1.363 . S
C1093 C1088 1.379 . S
C1093 N1091 1.356 . S
N1094 C1086 1.356 . S
N1094 H1100 0.984 . S
N1094 H1101 0.984 . S
N1095 C1088 1.356 . S
N1095 H1098 0.984 . S
N1095 H1099 0.985 . S
H1096 N1091 0.984 . S
H1097 N1091 0.985 . S
H1098 N1095 0.984 . S
H1099 N1095 0.985 . S
H1100 N1094 0.984 . S
H1101 N1094 0.984 . S
H1102 N1090 0.984 . S
H1103 N1090 0.985 . S
C1104 C1105 1.363 . S
C1104 C1110 1.379 . S
C1104 N1112 1.356 . S
C1105 C1104 1.363 . S
C1105 C1111 1.363 . S
C1106 C1107 1.363 . S
C1106 C1111 1.379 . S
C1106 N1113 1.356 . S
C1107 C1106 1.363 . S
C1107 C1110 1.363 . S
N1108 C1110 1.356 . S
N1108 H1120 0.984 . S
N1108 H1121 0.985 . S
N1109 C1111 1.356 . S
N1109 H1114 0.984 . S
N1109 H1115 0.985 . S
C1110 C1104 1.379 . S
C1110 C1107 1.363 . S
C1110 N1108 1.356 . S
C1111 C1105 1.363 . S
C1111 C1106 1.379 . S
C1111 N1109 1.356 . S
N1112 C1104 1.356 . S
N1112 H1118 0.984 . S
N1112 H1119 0.984 . S
N1113 C1106 1.356 . S
N1113 H1116 0.984 . S
N1113 H1117 0.985 . S
H1114 N1109 0.984 . S
H1115 N1109 0.985 . S
H1116 N1113 0.984 . S
H1117 N1113 0.985 . S
H1118 N1112 0.984 . S
H1119 N1112 0.984 . S
H1120 N1108 0.984 . S
H1121 N1108 0.985 . S
C1122 C1123 1.363 . S
C1122 C1128 1.379 . S
C1122 N1130 1.356 . S
C1123 C1122 1.363 . S
C1123 C1129 1.363 . S
C1124 C1125 1.363 . S
C1124 C1129 1.379 . S
C1124 N1131 1.356 . S
C1125 C1124 1.363 . S
C1125 C1128 1.363 . S
N1126 C1128 1.356 . S
N1126 H1138 0.984 . S
N1126 H1139 0.985 . S
N1127 C1129 1.356 . S
N1127 H1132 0.984 . S
N1127 H1133 0.985 . S
C1128 C1122 1.379 . S
C1128 C1125 1.363 . S
C1128 N1126 1.356 . S
C1129 C1123 1.363 . S
C1129 C1124 1.379 . S
C1129 N1127 1.356 . S
N1130 C1122 1.356 . S
N1130 H1136 0.984 . S
N1130 H1137 0.984 . S
N1131 C1124 1.356 . S
N1131 H1134 0.984 . S
N1131 H1135 0.985 . S
H1132 N1127 0.984 . S
H1133 N1127 0.985 . S
H1134 N1131 0.984 . S
H1135 N1131 0.985 . S
H1136 N1130 0.984 . S
H1137 N1130 0.984 . S
H1138 N1126 0.984 . S
H1139 N1126 0.985 . S
C1140 C1141 1.363 . S
C1140 C1146 1.379 . S
C1140 N1148 1.356 . S
C1141 C1140 1.363 . S
C1141 C1147 1.363 . S
C1142 C1143 1.363 . S
C1142 C1147 1.379 . S
C1142 N1149 1.356 . S
C1143 C1142 1.363 . S
C1143 C1146 1.363 . S
N1144 C1146 1.356 . S
N1144 H1156 0.984 . S
N1144 H1157 0.985 . S
N1145 C1147 1.356 . S
N1145 H1150 0.984 . S
N1145 H1151 0.985 . S
C1146 C1140 1.379 . S
C1146 C1143 1.363 . S
C1146 N1144 1.356 . S
C1147 C1141 1.363 . S
C1147 C1142 1.379 . S
C1147 N1145 1.356 . S
N1148 C1140 1.356 . S
N1148 H1154 0.984 . S
N1148 H1155 0.984 . S
N1149 C1142 1.356 . S
N1149 H1152 0.984 . S
N1149 H1153 0.985 . S
H1150 N1145 0.984 . S
H1151 N1145 0.985 . S
H1152 N1149 0.984 . S
H1153 N1149 0.985 . S
H1154 N1148 0.984 . S
H1155 N1148 0.984 . S
H1156 N1144 0.984 . S
H1157 N1144 0.985 . S
C1158 C1159 1.363 . S
C1158 C1164 1.379 . S
C1158 N1166 1.356 . S
C1159 C1158 1.363 . S
C1159 C1165 1.363 . S
C1160 C1161 1.363 . S
C1160 C1165 1.379 . S
C1160 N1167 1.356 . S
C1161 C1160 1.363 . S
C1161 C1164 1.363 . S
N1162 C1164 1.356 . S
N1162 H1174 0.984 . S
N1162 H1175 0.985 . S
N1163 C1165 1.356 . S
N1163 H1168 0.984 . S
N1163 H1169 0.985 . S
C1164 C1158 1.379 . S
C1164 C1161 1.363 . S
C1164 N1162 1.356 . S
C1165 C1159 1.363 . S
C1165 C1160 1.379 . S
C1165 N1163 1.356 . S
N1166 C1158 1.356 . S
N1166 H1172 0.984 . S
N1166 H1173 0.984 . S
N1167 C1160 1.356 . S
N1167 H1170 0.984 . S
N1167 H1171 0.985 . S
H1168 N1163 0.984 . S
H1169 N1163 0.985 . S
H1170 N1167 0.984 . S
H1171 N1167 0.985 . S
H1172 N1166 0.984 . S
H1173 N1166 0.984 . S
H1174 N1162 0.984 . S
H1175 N1162 0.985 . S
C1176 C1177 1.363 . S
C1176 C1182 1.379 . S
C1176 N1184 1.356 . S
C1177 C1176 1.363 . S
C1177 C1183 1.363 . S
C1178 C1179 1.363 . S
C1178 C1183 1.379 . S
C1178 N1185 1.356 . S
C1179 C1178 1.363 . S
C1179 C1182 1.363 . S
N1180 C1182 1.356 . S
N1180 H1192 0.984 . S
N1180 H1193 0.985 . S
N1181 C1183 1.356 . S
N1181 H1186 0.984 . S
N1181 H1187 0.985 . S
C1182 C1176 1.379 . S
C1182 C1179 1.363 . S
C1182 N1180 1.356 . S
C1183 C1177 1.363 . S
C1183 C1178 1.379 . S
C1183 N1181 1.356 . S
N1184 C1176 1.356 . S
N1184 H1190 0.984 . S
N1184 H1191 0.984 . S
N1185 C1178 1.356 . S
N1185 H1188 0.984 . S
N1185 H1189 0.985 . S
H1186 N1181 0.984 . S
H1187 N1181 0.985 . S
H1188 N1185 0.984 . S
H1189 N1185 0.985 . S
H1190 N1184 0.984 . S
H1191 N1184 0.984 . S
H1192 N1180 0.984 . S
H1193 N1180 0.985 . S
C1194 C1195 1.363 . S
C1194 C1200 1.379 . S
C1194 N1202 1.356 . S
C1195 C1194 1.363 . S
C1195 C1201 1.363 . S
C1196 C1197 1.363 . S
C1196 C1201 1.379 . S
C1196 N1203 1.356 . S
C1197 C1196 1.363 . S
C1197 C1200 1.363 . S
N1198 C1200 1.356 . S
N1198 H1210 0.984 . S
N1198 H1211 0.985 . S
N1199 C1201 1.356 . S
N1199 H1204 0.984 . S
N1199 H1205 0.985 . S
C1200 C1194 1.379 . S
C1200 C1197 1.363 . S
C1200 N1198 1.356 . S
C1201 C1195 1.363 . S
C1201 C1196 1.379 . S
C1201 N1199 1.356 . S
N1202 C1194 1.356 . S
N1202 H1208 0.984 . S
N1202 H1209 0.984 . S
N1203 C1196 1.356 . S
N1203 H1206 0.984 . S
N1203 H1207 0.985 . S
H1204 N1199 0.984 . S
H1205 N1199 0.985 . S
H1206 N1203 0.984 . S
H1207 N1203 0.985 . S
H1208 N1202 0.984 . S
H1209 N1202 0.984 . S
H1210 N1198 0.984 . S
H1211 N1198 0.985 . S
C1212 C1213 1.363 . S
C1212 C1218 1.379 . S
C1212 N1220 1.356 . S
C1213 C1212 1.363 . S
C1213 C1219 1.363 . S
C1214 C1215 1.363 . S
C1214 C1219 1.379 . S
C1214 N1221 1.356 . S
C1215 C1214 1.363 . S
C1215 C1218 1.363 . S
N1216 C1218 1.356 . S
N1216 H1228 0.984 . S
N1216 H1229 0.985 . S
N1217 C1219 1.356 . S
N1217 H1222 0.984 . S
N1217 H1223 0.985 . S
C1218 C1212 1.379 . S
C1218 C1215 1.363 . S
C1218 N1216 1.356 . S
C1219 C1213 1.363 . S
C1219 C1214 1.379 . S
C1219 N1217 1.356 . S
N1220 C1212 1.356 . S
N1220 H1226 0.984 . S
N1220 H1227 0.984 . S
N1221 C1214 1.356 . S
N1221 H1224 0.984 . S
N1221 H1225 0.985 . S
H1222 N1217 0.984 . S
H1223 N1217 0.985 . S
H1224 N1221 0.984 . S
H1225 N1221 0.985 . S
H1226 N1220 0.984 . S
H1227 N1220 0.984 . S
H1228 N1216 0.984 . S
H1229 N1216 0.985 . S
C1230 C1231 1.363 . S
C1230 C1236 1.379 . S
C1230 N1238 1.356 . S
C1231 C1230 1.363 . S
C1231 C1237 1.363 . S
C1232 C1233 1.363 . S
C1232 C1237 1.379 . S
C1232 N1239 1.356 . S
C1233 C1232 1.363 . S
C1233 C1236 1.363 . S
N1234 C1236 1.356 . S
N1234 H1246 0.984 . S
N1234 H1247 0.985 . S
N1235 C1237 1.356 . S
N1235 H1240 0.984 . S
N1235 H1241 0.985 . S
C1236 C1230 1.379 . S
C1236 C1233 1.363 . S
C1236 N1234 1.356 . S
C1237 C1231 1.363 . S
C1237 C1232 1.379 . S
C1237 N1235 1.356 . S
N1238 C1230 1.356 . S
N1238 H1244 0.984 . S
N1238 H1245 0.984 . S
N1239 C1232 1.356 . S
N1239 H1242 0.984 . S
N1239 H1243 0.985 . S
H1240 N1235 0.984 . S
H1241 N1235 0.985 . S
H1242 N1239 0.984 . S
H1243 N1239 0.985 . S
H1244 N1238 0.984 . S
H1245 N1238 0.984 . S
H1246 N1234 0.984 . S
H1247 N1234 0.985 . S
C529 N398 1.458 . S
C531 N13 1.454 . S
C547 N46 1.432 . S
C549 N431 1.435 . S
C565 N68 1.448 . S
C567 N475 1.458 . S
C583 N112 1.435 . S
C585 N497 1.438 . S
C601 N266 1.436 . S
C603 N145 1.433 . S
C619 N310 1.462 . S
C621 N167 1.452 . S
C637 N200 1.427 . S
C639 N343 1.436 . S
C655 N376 1.458 . S
C657 N233 1.448 . S
C673 C21 1.236 . S
C675 C483 1.236 . S
C691 C516 1.264 . S
C693 C54 1.264 . S
C709 C417 1.244 . S
C711 C87 1.242 . S
C727 C450 1.260 . S
C729 C120 1.260 . S
C745 C351 1.231 . S
C747 C153 1.231 . S
C763 C384 1.212 . S
C765 C186 1.211 . S
C781 C285 1.239 . S
C783 C219 1.237 . S
C799 C318 1.217 . S
C801 C252 1.215 . S
C817 C7 1.403 . S
C819 C348 1.482 . S
C835 C381 1.447 . S
C837 C40 1.402 . S
C853 C271 1.455 . S
C855 C84 1.426 . S
C871 C315 1.488 . S
C873 C106 1.441 . S
C889 C139 1.405 . S
C891 C480 1.485 . S
C907 C183 1.432 . S
C909 C502 1.496 . S
C925 C403 1.454 . S
C927 C216 1.425 . S
C943 C249 1.393 . S
C945 C436 1.454 . S
C961 N409 1.669 . S
C963 N2 1.660 . S
C979 N35 1.685 . S
C981 N442 1.692 . S
C997 N79 1.670 . S
C999 N464 1.669 . S
C1015 N508 1.692 . S
C1017 N101 1.683 . S
C1033 N277 1.717 . S
C1035 N134 1.710 . S
C1051 N178 1.695 . S
C1053 N299 1.693 . S
C1069 N332 1.717 . S
C1071 N211 1.721 . S
C1087 N365 1.693 . S
C1089 N244 1.696 . S
C1105 C172 1.564 . S
C1107 C18 1.580 . S
C1123 C205 1.616 . S
C1125 C51 1.633 . S
C1141 C73 1.541 . S
C1143 C238 1.548 . S
C1159 C150 1.661 . S
C1161 C117 1.651 . S
C1177 C282 1.553 . S
C1179 C447 1.562 . S
C1195 C469 1.529 . S
C1197 C304 1.519 . S
C1213 C513 1.568 . S
C1215 C337 1.589 . S
C1231 C370 1.512 . S
C1233 C414 1.493 . S
