# Generated by pormake.
# Topology uoa, (4)-cn, num edge types: 1
# Building blocks:
#     Node 0, Type 0, BuildingBlock: QUQFOY_clean_sbu_1, # of connection points: 4
#     Node 1, Type 0, BuildingBlock: QUQFOY_clean_sbu_1, # of connection points: 4
#     Node 2, Type 0, BuildingBlock: QUQFOY_clean_sbu_1, # of connection points: 4
#     Node 3, Type 0, BuildingBlock: QUQFOY_clean_sbu_1, # of connection points: 4
#     Node 4, Type 0, BuildingBlock: QUQFOY_clean_sbu_1, # of connection points: 4
#     Node 5, Type 0, BuildingBlock: QUQFOY_clean_sbu_1, # of connection points: 4
#     Node 6, Type 0, BuildingBlock: QUQFOY_clean_sbu_1, # of connection points: 4
#     Node 7, Type 0, BuildingBlock: QUQFOY_clean_sbu_1, # of connection points: 4
#     Node 8, Type 0, BuildingBlock: QUQFOY_clean_sbu_1, # of connection points: 4
#     Node 9, Type 0, BuildingBlock: QUQFOY_clean_sbu_1, # of connection points: 4
#     Node 10, Type 0, BuildingBlock: QUQFOY_clean_sbu_1, # of connection points: 4
#     Node 11, Type 0, BuildingBlock: QUQFOY_clean_sbu_1, # of connection points: 4
#     Node 12, Type 0, BuildingBlock: QUQFOY_clean_sbu_1, # of connection points: 4
#     Node 13, Type 0, BuildingBlock: QUQFOY_clean_sbu_1, # of connection points: 4
#     Node 14, Type 0, BuildingBlock: QUQFOY_clean_sbu_1, # of connection points: 4
#     Node 15, Type 0, BuildingBlock: QUQFOY_clean_sbu_1, # of connection points: 4
#     Node 16, Type 0, BuildingBlock: QUQFOY_clean_sbu_1, # of connection points: 4
#     Node 17, Type 0, BuildingBlock: QUQFOY_clean_sbu_1, # of connection points: 4
#     Node 18, Type 0, BuildingBlock: QUQFOY_clean_sbu_1, # of connection points: 4
#     Node 19, Type 0, BuildingBlock: QUQFOY_clean_sbu_1, # of connection points: 4
#     Node 20, Type 0, BuildingBlock: QUQFOY_clean_sbu_1, # of connection points: 4
#     Node 21, Type 0, BuildingBlock: QUQFOY_clean_sbu_1, # of connection points: 4
#     Node 22, Type 0, BuildingBlock: QUQFOY_clean_sbu_1, # of connection points: 4
#     Node 23, Type 0, BuildingBlock: QUQFOY_clean_sbu_1, # of connection points: 4
#     Node 24, Type 0, BuildingBlock: QUQFOY_clean_sbu_1, # of connection points: 4
#     Node 25, Type 0, BuildingBlock: QUQFOY_clean_sbu_1, # of connection points: 4
#     Node 26, Type 0, BuildingBlock: QUQFOY_clean_sbu_1, # of connection points: 4
#     Node 27, Type 0, BuildingBlock: QUQFOY_clean_sbu_1, # of connection points: 4
#     Node 28, Type 0, BuildingBlock: QUQFOY_clean_sbu_1, # of connection points: 4
#     Node 29, Type 0, BuildingBlock: QUQFOY_clean_sbu_1, # of connection points: 4
#     Node 30, Type 0, BuildingBlock: QUQFOY_clean_sbu_1, # of connection points: 4
#     Node 31, Type 0, BuildingBlock: QUQFOY_clean_sbu_1, # of connection points: 4
#     Edge 32, Type (0, 0), BuildingBlock: ZUJKAS_clean_linker_0, # of connection points: 2
#     Edge 33, Type (0, 0), BuildingBlock: ZUJKAS_clean_linker_0, # of connection points: 2
#     Edge 34, Type (0, 0), BuildingBlock: ZUJKAS_clean_linker_0, # of connection points: 2
#     Edge 35, Type (0, 0), BuildingBlock: ZUJKAS_clean_linker_0, # of connection points: 2
#     Edge 36, Type (0, 0), BuildingBlock: ZUJKAS_clean_linker_0, # of connection points: 2
#     Edge 37, Type (0, 0), BuildingBlock: ZUJKAS_clean_linker_0, # of connection points: 2
#     Edge 38, Type (0, 0), BuildingBlock: ZUJKAS_clean_linker_0, # of connection points: 2
#     Edge 39, Type (0, 0), BuildingBlock: ZUJKAS_clean_linker_0, # of connection points: 2
#     Edge 40, Type (0, 0), BuildingBlock: ZUJKAS_clean_linker_0, # of connection points: 2
#     Edge 41, Type (0, 0), BuildingBlock: ZUJKAS_clean_linker_0, # of connection points: 2
#     Edge 42, Type (0, 0), BuildingBlock: ZUJKAS_clean_linker_0, # of connection points: 2
#     Edge 43, Type (0, 0), BuildingBlock: ZUJKAS_clean_linker_0, # of connection points: 2
#     Edge 44, Type (0, 0), BuildingBlock: ZUJKAS_clean_linker_0, # of connection points: 2
#     Edge 45, Type (0, 0), BuildingBlock: ZUJKAS_clean_linker_0, # of connection points: 2
#     Edge 46, Type (0, 0), BuildingBlock: ZUJKAS_clean_linker_0, # of connection points: 2
#     Edge 47, Type (0, 0), BuildingBlock: ZUJKAS_clean_linker_0, # of connection points: 2
#     Edge 48, Type (0, 0), BuildingBlock: ZUJKAS_clean_linker_0, # of connection points: 2
#     Edge 49, Type (0, 0), BuildingBlock: ZUJKAS_clean_linker_0, # of connection points: 2
#     Edge 50, Type (0, 0), BuildingBlock: ZUJKAS_clean_linker_0, # of connection points: 2
#     Edge 51, Type (0, 0), BuildingBlock: ZUJKAS_clean_linker_0, # of connection points: 2
#     Edge 52, Type (0, 0), BuildingBlock: ZUJKAS_clean_linker_0, # of connection points: 2
#     Edge 53, Type (0, 0), BuildingBlock: ZUJKAS_clean_linker_0, # of connection points: 2
#     Edge 54, Type (0, 0), BuildingBlock: ZUJKAS_clean_linker_0, # of connection points: 2
#     Edge 55, Type (0, 0), BuildingBlock: ZUJKAS_clean_linker_0, # of connection points: 2
#     Edge 56, Type (0, 0), BuildingBlock: ZUJKAS_clean_linker_0, # of connection points: 2
#     Edge 57, Type (0, 0), BuildingBlock: ZUJKAS_clean_linker_0, # of connection points: 2
#     Edge 58, Type (0, 0), BuildingBlock: ZUJKAS_clean_linker_0, # of connection points: 2
#     Edge 59, Type (0, 0), BuildingBlock: ZUJKAS_clean_linker_0, # of connection points: 2
#     Edge 60, Type (0, 0), BuildingBlock: ZUJKAS_clean_linker_0, # of connection points: 2
#     Edge 61, Type (0, 0), BuildingBlock: ZUJKAS_clean_linker_0, # of connection points: 2
#     Edge 62, Type (0, 0), BuildingBlock: ZUJKAS_clean_linker_0, # of connection points: 2
#     Edge 63, Type (0, 0), BuildingBlock: ZUJKAS_clean_linker_0, # of connection points: 2
#     Edge 64, Type (0, 0), BuildingBlock: ZUJKAS_clean_linker_0, # of connection points: 2
#     Edge 65, Type (0, 0), BuildingBlock: ZUJKAS_clean_linker_0, # of connection points: 2
#     Edge 66, Type (0, 0), BuildingBlock: ZUJKAS_clean_linker_0, # of connection points: 2
#     Edge 67, Type (0, 0), BuildingBlock: ZUJKAS_clean_linker_0, # of connection points: 2
#     Edge 68, Type (0, 0), BuildingBlock: ZUJKAS_clean_linker_0, # of connection points: 2
#     Edge 69, Type (0, 0), BuildingBlock: ZUJKAS_clean_linker_0, # of connection points: 2
#     Edge 70, Type (0, 0), BuildingBlock: ZUJKAS_clean_linker_0, # of connection points: 2
#     Edge 71, Type (0, 0), BuildingBlock: ZUJKAS_clean_linker_0, # of connection points: 2
#     Edge 72, Type (0, 0), BuildingBlock: ZUJKAS_clean_linker_0, # of connection points: 2
#     Edge 73, Type (0, 0), BuildingBlock: ZUJKAS_clean_linker_0, # of connection points: 2
#     Edge 74, Type (0, 0), BuildingBlock: ZUJKAS_clean_linker_0, # of connection points: 2
#     Edge 75, Type (0, 0), BuildingBlock: ZUJKAS_clean_linker_0, # of connection points: 2
#     Edge 76, Type (0, 0), BuildingBlock: ZUJKAS_clean_linker_0, # of connection points: 2
#     Edge 77, Type (0, 0), BuildingBlock: ZUJKAS_clean_linker_0, # of connection points: 2
#     Edge 78, Type (0, 0), BuildingBlock: ZUJKAS_clean_linker_0, # of connection points: 2
#     Edge 79, Type (0, 0), BuildingBlock: ZUJKAS_clean_linker_0, # of connection points: 2
#     Edge 80, Type (0, 0), BuildingBlock: ZUJKAS_clean_linker_0, # of connection points: 2
#     Edge 81, Type (0, 0), BuildingBlock: ZUJKAS_clean_linker_0, # of connection points: 2
#     Edge 82, Type (0, 0), BuildingBlock: ZUJKAS_clean_linker_0, # of connection points: 2
#     Edge 83, Type (0, 0), BuildingBlock: ZUJKAS_clean_linker_0, # of connection points: 2
#     Edge 84, Type (0, 0), BuildingBlock: ZUJKAS_clean_linker_0, # of connection points: 2
#     Edge 85, Type (0, 0), BuildingBlock: ZUJKAS_clean_linker_0, # of connection points: 2
#     Edge 86, Type (0, 0), BuildingBlock: ZUJKAS_clean_linker_0, # of connection points: 2
#     Edge 87, Type (0, 0), BuildingBlock: ZUJKAS_clean_linker_0, # of connection points: 2
#     Edge 88, Type (0, 0), BuildingBlock: ZUJKAS_clean_linker_0, # of connection points: 2
#     Edge 89, Type (0, 0), BuildingBlock: ZUJKAS_clean_linker_0, # of connection points: 2
#     Edge 90, Type (0, 0), BuildingBlock: ZUJKAS_clean_linker_0, # of connection points: 2
#     Edge 91, Type (0, 0), BuildingBlock: ZUJKAS_clean_linker_0, # of connection points: 2
#     Edge 92, Type (0, 0), BuildingBlock: ZUJKAS_clean_linker_0, # of connection points: 2
#     Edge 93, Type (0, 0), BuildingBlock: ZUJKAS_clean_linker_0, # of connection points: 2
#     Edge 94, Type (0, 0), BuildingBlock: ZUJKAS_clean_linker_0, # of connection points: 2
#     Edge 95, Type (0, 0), BuildingBlock: ZUJKAS_clean_linker_0, # of connection points: 2
# Relax obj value: 0.074
# Max RMSD: 0.149
# Mean RMSD: 0.149
data_MOF--net-uoa--node1-QUQFOY_clean_sbu_1--edge1-ZUJKAS_clean_linker_0
_symmetry_space_group_name_H-M    P1
_symmetry_Int_Tables_number       1
_symmetry_cell_setting            triclinic
loop_
_symmetry_equiv_pos_as_xyz
'x, y, z'
_cell_length_a     102.10133
_cell_length_b     102.11649
_cell_length_c     36.77472
_cell_angle_alpha  90.002461
_cell_angle_beta   90.0194
_cell_angle_gamma 90.00729
loop_
_atom_site_label
_atom_site_type_symbol
_atom_site_fract_x
_atom_site_fract_y
_atom_site_fract_z
_atom_type_partial_charge
O0 O 0.03125 0.09036 0.14683 0.0
Cd1 Cd 0.04143 0.08638 0.09977 0.0
Cd2 Cd 0.02078 0.09728 0.07064 0.0
O3 O 0.01863 0.10537 0.12193 0.0
O4 O 0.06055 0.08658 0.11204 0.0
O5 O 0.05091 0.10168 0.07815 0.0
C6 C 0.06129 0.09755 0.09465 0.0
C7 C 0.01956 0.10924 0.01696 0.0
C8 C 0.023 0.09961 0.15005 0.0
C9 C 0.02385 0.0683 0.06112 0.0
O10 O 0.01584 0.07781 0.06316 0.0
O11 O 0.03573 0.06992 0.07069 0.0
O12 O 0.00929 0.10723 0.03662 0.0
O13 O 0.03072 0.10522 0.02914 0.0
O14 O 0.16292 0.78016 0.39851 0.0
Cd15 Cd 0.16866 0.7903 0.35259 0.0
Cd16 Cd 0.1597 0.76875 0.32049 0.0
O17 O 0.15146 0.76488 0.37059 0.0
O18 O 0.16827 0.80929 0.36609 0.0
O19 O 0.15429 0.80023 0.32759 0.0
C20 C 0.15795 0.81038 0.34598 0.0
C21 C 0.14812 0.76756 0.26602 0.0
C22 C 0.15511 0.77047 0.39977 0.0
C23 C 0.18866 0.7737 0.31606 0.0
O24 O 0.17944 0.76537 0.31408 0.0
O25 O 0.18635 0.78519 0.32801 0.0
O26 O 0.15121 0.75714 0.2839 0.0
O27 O 0.15087 0.77877 0.28041 0.0
O28 O 0.47443 0.91634 0.64634 0.0
Cd29 Cd 0.46353 0.92059 0.60069 0.0
Cd30 Cd 0.48408 0.91013 0.56903 0.0
O31 O 0.48748 0.90206 0.61984 0.0
O32 O 0.44476 0.92003 0.61616 0.0
O33 O 0.45363 0.90566 0.57838 0.0
C34 C 0.44365 0.90941 0.59731 0.0
C35 C 0.48543 0.89811 0.5153 0.0
C36 C 0.48313 0.90748 0.64851 0.0
C37 C 0.48005 0.93929 0.56134 0.0
O38 O 0.48811 0.92979 0.56119 0.0
O39 O 0.46842 0.93753 0.57285 0.0
O40 O 0.49577 0.90109 0.5337 0.0
O41 O 0.47417 0.90121 0.52882 0.0
O42 O 0.34013 0.22436 0.89431 0.0
Cd43 Cd 0.33498 0.21378 0.84868 0.0
Cd44 Cd 0.34444 0.23493 0.81625 0.0
O45 O 0.35235 0.23907 0.86663 0.0
O46 O 0.33565 0.195 0.86395 0.0
O47 O 0.34948 0.20377 0.82448 0.0
C48 C 0.34597 0.19381 0.84392 0.0
C49 C 0.35641 0.23714 0.76265 0.0
C50 C 0.34813 0.23389 0.89578 0.0
C51 C 0.31534 0.22996 0.81057 0.0
O52 O 0.32469 0.23815 0.8086 0.0
O53 O 0.31741 0.21854 0.8232 0.0
O54 O 0.35266 0.24721 0.78106 0.0
O55 O 0.35408 0.22568 0.77601 0.0
O56 O 0.0306 0.91419 0.34993 0.0
Cd57 Cd 0.04066 0.91991 0.39605 0.0
Cd58 Cd 0.01887 0.9112 0.42769 0.0
O59 O 0.01492 0.90314 0.37746 0.0
O60 O 0.05968 0.91934 0.3829 0.0
O61 O 0.0504 0.90546 0.42126 0.0
C62 C 0.06062 0.90902 0.40303 0.0
C63 C 0.01754 0.89949 0.48186 0.0
C64 C 0.02072 0.90661 0.34845 0.0
C65 C 0.02419 0.94009 0.43255 0.0
O66 O 0.01575 0.93096 0.43444 0.0
O67 O 0.03565 0.93767 0.42059 0.0
O68 O 0.00716 0.90276 0.46407 0.0
O69 O 0.02878 0.90215 0.46754 0.0
O70 O 0.34127 0.78028 0.60501 0.0
Cd71 Cd 0.3359 0.79025 0.65142 0.0
Cd72 Cd 0.346 0.76915 0.68226 0.0
O73 O 0.35422 0.76597 0.63166 0.0
O74 O 0.33585 0.8092 0.63746 0.0
O75 O 0.35012 0.80055 0.67591 0.0
C76 C 0.3462 0.81055 0.65732 0.0
C77 C 0.35792 0.7685 0.73611 0.0
C78 C 0.34971 0.77117 0.60286 0.0
C79 C 0.3169 0.77282 0.68849 0.0
O80 O 0.32642 0.76479 0.68928 0.0
O81 O 0.31871 0.78448 0.67722 0.0
O82 O 0.35563 0.75798 0.71779 0.0
O83 O 0.35411 0.77954 0.7227 0.0
O84 O 0.47516 0.09175 0.84961 0.0
Cd85 Cd 0.46499 0.08563 0.89506 0.0
Cd86 Cd 0.48615 0.09497 0.92798 0.0
O87 O 0.48984 0.10367 0.87839 0.0
O88 O 0.44613 0.08582 0.88024 0.0
O89 O 0.45456 0.09954 0.92055 0.0
C90 C 0.44468 0.09591 0.90105 0.0
C91 C 0.48689 0.10632 0.98273 0.0
C92 C 0.48454 0.09993 0.84891 0.0
C93 C 0.48197 0.0659 0.93145 0.0
O94 O 0.49012 0.07528 0.93367 0.0
O95 O 0.47045 0.06801 0.91942 0.0
O96 O 0.49741 0.10396 0.96448 0.0
O97 O 0.47579 0.10291 0.96878 0.0
O98 O 0.16578 0.22497 0.10478 0.0
Cd99 Cd 0.17075 0.2147 0.1511 0.0
Cd100 Cd 0.16089 0.23581 0.18258 0.0
O101 O 0.1531 0.23947 0.13178 0.0
O102 O 0.17031 0.19568 0.13783 0.0
O103 O 0.15594 0.20501 0.17469 0.0
C104 C 0.15972 0.19477 0.15689 0.0
C105 C 0.14863 0.2371 0.23585 0.0
C106 C 0.15755 0.2343 0.10287 0.0
C107 C 0.18992 0.23143 0.18985 0.0
O108 O 0.18052 0.23957 0.19086 0.0
O109 O 0.18799 0.2199 0.17771 0.0
O110 O 0.15185 0.24747 0.21793 0.0
O111 O 0.15167 0.22587 0.22213 0.0
O112 O 0.97384 0.91795 0.84932 0.0
Cd113 Cd 0.96327 0.9226 0.89539 0.0
Cd114 Cd 0.98447 0.91328 0.9275 0.0
O115 O 0.98838 0.90546 0.87685 0.0
O116 O 0.94431 0.9215 0.882 0.0
O117 O 0.9541 0.90749 0.9191 0.0
C118 C 0.94374 0.91092 0.9012 0.0
C119 C 0.98688 0.90129 0.98103 0.0
C120 C 0.9833 0.90986 0.84775 0.0
C121 C 0.97927 0.94225 0.93406 0.0
O122 O 0.98762 0.93303 0.93526 0.0
O123 O 0.9678 0.94003 0.92189 0.0
O124 O 0.99689 0.90505 0.96239 0.0
O125 O 0.97537 0.9036 0.96792 0.0
O126 O 0.83994 0.22412 0.60158 0.0
Cd127 Cd 0.83518 0.21404 0.64834 0.0
Cd128 Cd 0.84518 0.23515 0.67907 0.0
O129 O 0.85318 0.23823 0.62809 0.0
O130 O 0.83544 0.19495 0.63571 0.0
O131 O 0.85007 0.20437 0.67161 0.0
C132 C 0.84613 0.19407 0.65436 0.0
C133 C 0.85725 0.23608 0.7327 0.0
C134 C 0.84843 0.2332 0.59932 0.0
C135 C 0.81621 0.23119 0.68649 0.0
O136 O 0.8256 0.23938 0.68657 0.0
O137 O 0.81814 0.21952 0.67544 0.0
O138 O 0.85485 0.24651 0.7141 0.0
O139 O 0.85347 0.22496 0.71965 0.0
O140 O 0.53127 0.08821 0.35528 0.0
Cd141 Cd 0.54184 0.08455 0.40191 0.0
Cd142 Cd 0.52098 0.09497 0.43215 0.0
O143 O 0.51776 0.10238 0.3805 0.0
O144 O 0.56085 0.08538 0.38886 0.0
O145 O 0.55095 0.10006 0.42363 0.0
C146 C 0.56137 0.09629 0.40662 0.0
C147 C 0.51886 0.10762 0.4846 0.0
C148 C 0.52239 0.09687 0.3523 0.0
C149 C 0.52539 0.06597 0.44218 0.0
O150 O 0.5172 0.07535 0.44154 0.0
O151 O 0.53702 0.06779 0.43077 0.0
O152 O 0.50877 0.10409 0.46592 0.0
O153 O 0.5303 0.10467 0.47207 0.0
O154 O 0.66308 0.78033 0.1046 0.0
Cd155 Cd 0.66808 0.79045 0.15111 0.0
Cd156 Cd 0.65783 0.76959 0.18208 0.0
O157 O 0.64956 0.76659 0.13146 0.0
O158 O 0.66803 0.80952 0.13825 0.0
O159 O 0.65334 0.80033 0.17442 0.0
C160 C 0.65737 0.81055 0.15699 0.0
C161 C 0.64616 0.76886 0.23633 0.0
C162 C 0.65438 0.77144 0.10258 0.0
C163 C 0.68686 0.77303 0.18893 0.0
O164 O 0.67735 0.76499 0.18895 0.0
O165 O 0.68508 0.78475 0.17809 0.0
O166 O 0.64823 0.75839 0.21758 0.0
O167 O 0.64995 0.77992 0.22297 0.0
O168 O 0.97378 0.08859 0.64703 0.0
Cd169 Cd 0.96355 0.08458 0.60005 0.0
Cd170 Cd 0.98414 0.09549 0.57032 0.0
O171 O 0.9864 0.10351 0.62166 0.0
O172 O 0.94442 0.08493 0.61223 0.0
O173 O 0.9542 0.09992 0.57823 0.0
C174 C 0.94377 0.09588 0.59472 0.0
C175 C 0.98541 0.10773 0.51711 0.0
C176 C 0.98205 0.09784 0.64996 0.0
C177 C 0.98098 0.06649 0.56071 0.0
O178 O 0.989 0.07601 0.56235 0.0
O179 O 0.96917 0.0681 0.57089 0.0
O180 O 0.99567 0.10554 0.53663 0.0
O181 O 0.97424 0.10367 0.52905 0.0
O182 O 0.66591 0.22486 0.39755 0.0
Cd183 Cd 0.67012 0.21456 0.35079 0.0
Cd184 Cd 0.66012 0.23567 0.32073 0.0
O185 O 0.65203 0.23853 0.37176 0.0
O186 O 0.66957 0.19552 0.36371 0.0
O187 O 0.65493 0.20514 0.32823 0.0
C188 C 0.65879 0.1948 0.34543 0.0
C189 C 0.64821 0.23721 0.26685 0.0
C190 C 0.65719 0.23368 0.40023 0.0
C191 C 0.68911 0.23132 0.31261 0.0
O192 O 0.67982 0.2396 0.31336 0.0
O193 O 0.68709 0.2196 0.32304 0.0
O194 O 0.6511 0.24749 0.2856 0.0
O195 O 0.65133 0.22592 0.2801 0.0
O196 O 0.53019 0.91578 0.14787 0.0
Cd197 Cd 0.54055 0.92041 0.10145 0.0
Cd198 Cd 0.51969 0.91026 0.06991 0.0
O199 O 0.51638 0.90236 0.12086 0.0
O200 O 0.5596 0.92 0.11454 0.0
O201 O 0.55012 0.90538 0.07872 0.0
C202 C 0.56042 0.90925 0.09611 0.0
C203 C 0.51885 0.89809 0.01648 0.0
C204 C 0.52118 0.90721 0.14979 0.0
C205 C 0.52361 0.93921 0.06191 0.0
O206 O 0.51545 0.92981 0.06178 0.0
O207 O 0.53522 0.93735 0.07356 0.0
O208 O 0.50838 0.90055 0.03486 0.0
O209 O 0.52995 0.90184 0.02968 0.0
O210 O 0.84347 0.78052 0.8948 0.0
Cd211 Cd 0.83746 0.79059 0.84904 0.0
Cd212 Cd 0.84636 0.76897 0.81681 0.0
O213 O 0.85452 0.76492 0.86691 0.0
O214 O 0.83765 0.80956 0.86281 0.0
O215 O 0.85161 0.80076 0.82379 0.0
C216 C 0.84788 0.81082 0.84244 0.0
C217 C 0.85799 0.76801 0.76241 0.0
C218 C 0.85109 0.77067 0.89604 0.0
C219 C 0.81739 0.77394 0.81269 0.0
O220 O 0.82663 0.76565 0.81021 0.0
O221 O 0.81969 0.78538 0.825 0.0
O222 O 0.85488 0.75752 0.77993 0.0
O223 O 0.85523 0.77916 0.77715 0.0
O224 O 0.53139 0.5906 0.64853 0.0
Cd225 Cd 0.54161 0.58532 0.60229 0.0
Cd226 Cd 0.51999 0.5943 0.57056 0.0
O227 O 0.5161 0.6022 0.62108 0.0
O228 O 0.56062 0.58604 0.61551 0.0
O229 O 0.55115 0.60008 0.57793 0.0
C230 C 0.56142 0.59652 0.59596 0.0
C231 C 0.51851 0.60617 0.51662 0.0
C232 C 0.52167 0.59837 0.65012 0.0
C233 C 0.52526 0.56542 0.56455 0.0
O234 O 0.51683 0.57456 0.56317 0.0
O235 O 0.53673 0.56776 0.57661 0.0
O236 O 0.50818 0.60285 0.53457 0.0
O237 O 0.52979 0.60348 0.53069 0.0
O238 O 0.66581 0.28103 0.89777 0.0
Cd239 Cd 0.67044 0.29118 0.85104 0.0
Cd240 Cd 0.66044 0.2701 0.82018 0.0
O241 O 0.65248 0.26702 0.87122 0.0
O242 O 0.66994 0.31027 0.86356 0.0
O243 O 0.65538 0.30061 0.82793 0.0
C244 C 0.65919 0.31097 0.84509 0.0
C245 C 0.64832 0.26908 0.76664 0.0
C246 C 0.65728 0.27199 0.9 0.0
C247 C 0.6894 0.27414 0.81257 0.0
O248 O 0.68003 0.26593 0.81257 0.0
O249 O 0.68745 0.2858 0.82367 0.0
O250 O 0.65078 0.25867 0.78527 0.0
O251 O 0.65207 0.28022 0.77958 0.0
O252 O 0.97382 0.41509 0.14607 0.0
Cd253 Cd 0.96356 0.42002 0.09969 0.0
Cd254 Cd 0.98491 0.41065 0.06856 0.0
O255 O 0.98854 0.40265 0.11914 0.0
O256 O 0.94455 0.41937 0.11282 0.0
O257 O 0.95403 0.40517 0.07573 0.0
C258 C 0.94375 0.40883 0.09354 0.0
C259 C 0.98655 0.39885 0.01458 0.0
C260 C 0.98326 0.40698 0.14803 0.0
C261 C 0.98009 0.43962 0.06221 0.0
O262 O 0.98842 0.43038 0.06137 0.0
O263 O 0.96852 0.43743 0.07365 0.0
O264 O 0.99682 0.40203 0.03302 0.0
O265 O 0.97522 0.40161 0.0282 0.0
O266 O 0.83887 0.72459 0.39574 0.0
Cd267 Cd 0.8337 0.71383 0.35042 0.0
Cd268 Cd 0.84304 0.73489 0.31715 0.0
O269 O 0.85102 0.73919 0.36739 0.0
O270 O 0.83467 0.69506 0.36567 0.0
O271 O 0.84822 0.70401 0.32575 0.0
C272 C 0.8449 0.694 0.34522 0.0
C273 C 0.85494 0.73705 0.26337 0.0
C274 C 0.84686 0.73414 0.39678 0.0
C275 C 0.81392 0.72978 0.31212 0.0
O276 O 0.82324 0.73798 0.3097 0.0
O277 O 0.81606 0.71841 0.32512 0.0
O278 O 0.85114 0.74714 0.28162 0.0
O279 O 0.85268 0.72561 0.27695 0.0
O280 O 0.53094 0.41649 0.85302 0.0
Cd281 Cd 0.54112 0.42029 0.90021 0.0
Cd282 Cd 0.52039 0.4094 0.92929 0.0
O283 O 0.51818 0.40154 0.87768 0.0
O284 O 0.56027 0.41987 0.88824 0.0
O285 O 0.55034 0.40482 0.92167 0.0
C286 C 0.56081 0.40884 0.9054 0.0
C287 C 0.51917 0.39706 0.98237 0.0
C288 C 0.52262 0.40732 0.84965 0.0
C289 C 0.52366 0.43836 0.93939 0.0
O290 O 0.51561 0.42887 0.93744 0.0
O291 O 0.53551 0.43672 0.92953 0.0
O292 O 0.50888 0.39929 0.96298 0.0
O293 O 0.53033 0.40115 0.97038 0.0
O294 O 0.83918 0.28031 0.10168 0.0
Cd295 Cd 0.83495 0.29065 0.14837 0.0
Cd296 Cd 0.84499 0.26958 0.17861 0.0
O297 O 0.85308 0.26669 0.12758 0.0
O298 O 0.83547 0.30968 0.13536 0.0
O299 O 0.85013 0.30009 0.17086 0.0
C300 C 0.84626 0.31042 0.15361 0.0
C301 C 0.85693 0.26807 0.23245 0.0
C302 C 0.84792 0.2715 0.09907 0.0
C303 C 0.81599 0.27389 0.1867 0.0
O304 O 0.8253 0.26562 0.18603 0.0
O305 O 0.818 0.28559 0.17616 0.0
O306 O 0.85404 0.25778 0.21374 0.0
O307 O 0.85379 0.27935 0.21919 0.0
O308 O 0.97523 0.59144 0.3525 0.0
Cd309 Cd 0.96482 0.58643 0.39847 0.0
Cd310 Cd 0.98568 0.5965 0.43032 0.0
O311 O 0.98916 0.60465 0.37972 0.0
O312 O 0.94597 0.58658 0.3835 0.0
O313 O 0.95456 0.60093 0.42181 0.0
C314 C 0.94463 0.59705 0.40284 0.0
C315 C 0.98631 0.60844 0.48418 0.0
C316 C 0.9843 0.59994 0.35071 0.0
C317 C 0.9818 0.56744 0.43692 0.0
O318 O 0.98989 0.57691 0.43774 0.0
O319 O 0.9702 0.56929 0.42519 0.0
O320 O 0.99685 0.60606 0.46604 0.0
O321 O 0.97525 0.60472 0.47056 0.0
O322 O 0.66749 0.72488 0.60728 0.0
Cd323 Cd 0.67138 0.71416 0.6535 0.0
Cd324 Cd 0.6607 0.73473 0.68478 0.0
O325 O 0.65307 0.7379 0.63335 0.0
O326 O 0.67061 0.69516 0.64002 0.0
O327 O 0.6559 0.70494 0.67493 0.0
C328 C 0.65968 0.69458 0.65766 0.0
C329 C 0.6481 0.73613 0.73747 0.0
C330 C 0.65859 0.73353 0.60484 0.0
C331 C 0.68976 0.73074 0.69438 0.0
O332 O 0.68028 0.73882 0.69402 0.0
O333 O 0.68806 0.71913 0.68261 0.0
O334 O 0.65125 0.74646 0.71925 0.0
O335 O 0.65142 0.72488 0.72439 0.0
O336 O 0.47492 0.41647 0.35018 0.0
Cd337 Cd 0.46486 0.42078 0.39724 0.0
Cd338 Cd 0.48556 0.40997 0.42692 0.0
O339 O 0.48762 0.40168 0.37582 0.0
O340 O 0.44572 0.42054 0.38522 0.0
O341 O 0.45542 0.40557 0.41943 0.0
C342 C 0.44501 0.40962 0.40289 0.0
C343 C 0.48663 0.39807 0.48076 0.0
C344 C 0.48314 0.40718 0.34739 0.0
C345 C 0.48248 0.43896 0.43584 0.0
O346 O 0.49049 0.42944 0.43418 0.0
O347 O 0.47063 0.43733 0.42593 0.0
O348 O 0.49695 0.40001 0.46124 0.0
O349 O 0.47552 0.40214 0.46841 0.0
O350 O 0.33847 0.72488 0.10479 0.0
Cd351 Cd 0.33436 0.71439 0.1513 0.0
Cd352 Cd 0.34469 0.73524 0.18209 0.0
O353 O 0.3526 0.73821 0.13091 0.0
O354 O 0.33517 0.69535 0.13831 0.0
O355 O 0.34976 0.70523 0.17343 0.0
C356 C 0.34604 0.69483 0.15625 0.0
C357 C 0.35693 0.7367 0.23544 0.0
C358 C 0.34732 0.73359 0.10234 0.0
C359 C 0.31568 0.73108 0.1909 0.0
O360 O 0.32506 0.73927 0.19033 0.0
O361 O 0.31753 0.71942 0.17977 0.0
O362 O 0.35392 0.747 0.21693 0.0
O363 O 0.35371 0.72543 0.22225 0.0
O364 O 0.03001 0.58959 0.85351 0.0
Cd365 Cd 0.04043 0.58532 0.90004 0.0
Cd366 Cd 0.01952 0.59562 0.93069 0.0
O367 O 0.01651 0.60358 0.87954 0.0
O368 O 0.05946 0.5858 0.88684 0.0
O369 O 0.04995 0.60049 0.92234 0.0
C370 C 0.06025 0.5966 0.90502 0.0
C371 C 0.01836 0.60776 0.98427 0.0
C372 C 0.02122 0.59836 0.85099 0.0
C373 C 0.02359 0.56658 0.93907 0.0
O374 O 0.01543 0.57599 0.93866 0.0
O375 O 0.03527 0.56844 0.92806 0.0
O376 O 0.00796 0.60489 0.96601 0.0
O377 O 0.02955 0.60446 0.97071 0.0
O378 O 0.16427 0.28094 0.60474 0.0
Cd379 Cd 0.16929 0.29117 0.65107 0.0
Cd380 Cd 0.15933 0.2701 0.68226 0.0
O381 O 0.15142 0.26655 0.63154 0.0
O382 O 0.16908 0.31017 0.63769 0.0
O383 O 0.15458 0.30104 0.67453 0.0
C384 C 0.15848 0.31121 0.65667 0.0
C385 C 0.14732 0.26887 0.73595 0.0
C386 C 0.15596 0.27169 0.6027 0.0
C387 C 0.18839 0.27425 0.68927 0.0
O388 O 0.17894 0.26615 0.69005 0.0
O389 O 0.18651 0.28584 0.67757 0.0
O390 O 0.15032 0.25849 0.71778 0.0
O391 O 0.15039 0.28009 0.72217 0.0
O392 O 0.47415 0.58923 0.14836 0.0
Cd393 Cd 0.46366 0.58468 0.10205 0.0
Cd394 Cd 0.48505 0.59383 0.07048 0.0
O395 O 0.48888 0.60161 0.12126 0.0
O396 O 0.44469 0.58579 0.11529 0.0
O397 O 0.45452 0.59984 0.07843 0.0
C398 C 0.44415 0.5964 0.09621 0.0
C399 C 0.4875 0.60579 0.01689 0.0
C400 C 0.48368 0.59723 0.15022 0.0
C401 C 0.47965 0.56492 0.0638 0.0
O402 O 0.4881 0.57406 0.06285 0.0
O403 O 0.46816 0.56724 0.07561 0.0
O404 O 0.4975 0.60207 0.03567 0.0
O405 O 0.47599 0.60346 0.0299 0.0
O406 O 0.16571 0.7241 0.89702 0.0
Cd407 Cd 0.17032 0.71367 0.85068 0.0
Cd408 Cd 0.1608 0.73491 0.81906 0.0
O409 O 0.15321 0.73876 0.87005 0.0
O410 O 0.16947 0.69468 0.86393 0.0
O411 O 0.15527 0.70432 0.82715 0.0
C412 C 0.15886 0.69399 0.84487 0.0
C413 C 0.14851 0.73703 0.76595 0.0
C414 C 0.15767 0.73359 0.89896 0.0
C415 C 0.18978 0.72988 0.81176 0.0
O416 O 0.18051 0.73818 0.81064 0.0
O417 O 0.18766 0.71841 0.82403 0.0
O418 O 0.15221 0.74714 0.78429 0.0
O419 O 0.15108 0.7256 0.77914 0.0
O420 O 0.03152 0.4164 0.64563 0.0
Cd421 Cd 0.04185 0.42117 0.59925 0.0
Cd422 Cd 0.0206 0.41156 0.56789 0.0
O423 O 0.01689 0.40383 0.61876 0.0
O424 O 0.06085 0.42054 0.61252 0.0
O425 O 0.05136 0.40621 0.57582 0.0
C426 C 0.06164 0.40991 0.59358 0.0
C427 C 0.01898 0.39938 0.51453 0.0
C428 C 0.02211 0.40828 0.64763 0.0
C429 C 0.02538 0.44053 0.56052 0.0
O430 O 0.0171 0.43124 0.55967 0.0
O431 O 0.0369 0.43845 0.57253 0.0
O432 O 0.00871 0.40272 0.5327 0.0
O433 O 0.0303 0.40223 0.52807 0.0
O434 O 0.34319 0.28104 0.39496 0.0
Cd435 Cd 0.33716 0.29112 0.3492 0.0
Cd436 Cd 0.34622 0.26964 0.31682 0.0
O437 O 0.3544 0.26562 0.36684 0.0
O438 O 0.3374 0.3101 0.36282 0.0
O439 O 0.35133 0.30123 0.32388 0.0
C440 C 0.34763 0.31132 0.34247 0.0
C441 C 0.35787 0.26849 0.26252 0.0
C442 C 0.35091 0.27127 0.39605 0.0
C443 C 0.31721 0.2744 0.31259 0.0
O444 O 0.32651 0.26618 0.31015 0.0
O445 O 0.31942 0.28585 0.32498 0.0
O446 O 0.35473 0.25806 0.2803 0.0
O447 O 0.35512 0.27969 0.27693 0.0
H448 H 0.99182 0.12162 0.67135 0.0
H449 H 0.99884 0.12801 0.73261 0.0
H450 H 0.99049 0.08896 0.77115 0.0
H451 H 0.98283 0.0828 0.71076 0.0
H452 H 0.98112 0.1058 0.81611 0.0
H453 H 0.03216 0.12065 0.78479 0.0
H454 H 0.02004 0.12978 0.76024 0.0
H455 H 0.02186 0.11251 0.752 0.0
C456 C 0.99155 0.11442 0.69295 0.0
C457 C 0.98676 0.10173 0.68636 0.0
C458 C 0.99566 0.11804 0.72788 0.0
C459 C 0.99541 0.10891 0.75647 0.0
C460 C 0.99077 0.0962 0.74962 0.0
H461 H 0.03482 0.10313 0.95894 0.0
H462 H 0.02908 0.10588 0.89498 0.0
C463 C 0.98639 0.09268 0.71507 0.0
C464 C 0.99944 0.11252 0.79402 0.0
H465 H 0.02502 0.12369 0.84534 0.0
C466 C 0.99072 0.10974 0.82247 0.0
C467 C 0.01199 0.11764 0.80234 0.0
C468 C 0.0221 0.12021 0.7733 0.0
C469 C 0.99433 0.11134 0.85897 0.0
C470 C 0.00682 0.11658 0.8674 0.0
C471 C 0.0154 0.11983 0.83889 0.0
C472 C 0.01164 0.11736 0.90551 0.0
C473 C 0.98496 0.1066 0.88792 0.0
C474 C 0.00423 0.12356 0.9327 0.0
C475 C 0.0073 0.12168 0.96939 0.0
C476 C 0.01814 0.11401 0.97933 0.0
C477 C 0.02641 0.1091 0.95204 0.0
C478 C 0.02311 0.11066 0.91542 0.0
H479 H 0.97748 0.09979 0.87668 0.0
H480 H 0.99024 0.10146 0.9101 0.0
H481 H 0.97969 0.1151 0.8997 0.0
H482 H 0.99563 0.12922 0.92568 0.0
H483 H 1.00086 0.1257 0.98996 0.0
H484 H 0.13919 0.75234 0.91451 0.0
H485 H 0.13351 0.76123 0.9745 0.0
H486 H 0.16171 0.73552 0.02463 0.0
H487 H 0.16741 0.72655 0.96523 0.0
H488 H 0.12517 0.74598 0.04197 0.0
H489 H 0.17121 0.77447 0.05615 0.0
H490 H 0.16491 0.76918 0.01261 0.0
H491 H 0.17335 0.75779 0.04155 0.0
C492 C 0.14416 0.74855 0.93832 0.0
C493 C 0.15381 0.73877 0.93504 0.0
C494 C 0.14088 0.75363 0.97251 0.0
C495 C 0.14729 0.7491 0.00379 0.0
C496 C 0.15675 0.73922 0.00068 0.0
H497 H 0.1406 0.74547 0.22994 0.0
H498 H 0.13731 0.74307 0.16466 0.0
C499 C 0.15997 0.73408 0.96668 0.0
C500 C 0.14436 0.7547 0.03994 0.0
H501 H 0.15893 0.77081 0.1103 0.0
C502 C 0.13243 0.75161 0.0568 0.0
C503 C 0.15376 0.7622 0.05888 0.0
C504 C 0.1665 0.76623 0.04135 0.0
C505 C 0.13001 0.75516 0.09311 0.0
C506 C 0.13983 0.76185 0.11292 0.0
C507 C 0.15141 0.76564 0.09519 0.0
C508 C 0.13908 0.76376 0.15283 0.0
C509 C 0.11709 0.75149 0.11013 0.0
C510 C 0.14097 0.77623 0.16809 0.0
C511 C 0.14292 0.77763 0.20556 0.0
C512 C 0.14318 0.76656 0.22828 0.0
C513 C 0.14046 0.7542 0.21321 0.0
C514 C 0.13847 0.75282 0.17584 0.0
H515 H 0.10926 0.75067 0.08928 0.0
H516 H 0.11807 0.74181 0.12356 0.0
H517 H 0.11405 0.75877 0.1309 0.0
H518 H 0.14155 0.7848 0.15079 0.0
H519 H 0.14501 0.78729 0.21631 0.0
H520 H 0.50302 0.88814 0.16514 0.0
H521 H 0.49397 0.8824 0.22489 0.0
H522 H 0.51857 0.91151 0.2753 0.0
H523 H 0.52768 0.91729 0.21611 0.0
H524 H 0.50857 0.87461 0.29297 0.0
H525 H 0.4795 0.92035 0.30485 0.0
H526 H 0.48533 0.91413 0.26178 0.0
H527 H 0.49628 0.92275 0.29161 0.0
C528 C 0.50653 0.89329 0.18897 0.0
C529 C 0.51602 0.90323 0.1858 0.0
C530 C 0.50137 0.88997 0.22302 0.0
C531 C 0.50552 0.89664 0.2543 0.0
C532 C 0.51516 0.90636 0.25134 0.0
H533 H 0.50769 0.89024 0.48068 0.0
H534 H 0.5105 0.88673 0.41564 0.0
C535 C 0.52037 0.90962 0.21747 0.0
C536 C 0.49973 0.89373 0.29024 0.0
H537 H 0.48301 0.90828 0.35951 0.0
C538 C 0.50278 0.88185 0.30741 0.0
C539 C 0.49201 0.9031 0.30864 0.0
C540 C 0.48796 0.91576 0.29073 0.0
C541 C 0.49898 0.87945 0.34353 0.0
C542 C 0.49209 0.88926 0.36286 0.0
C543 C 0.48834 0.90077 0.34478 0.0
C544 C 0.4899 0.88856 0.40268 0.0
C545 C 0.5026 0.86657 0.36087 0.0
C546 C 0.47734 0.89054 0.41726 0.0
C547 C 0.4757 0.89264 0.45458 0.0
C548 C 0.48663 0.89294 0.47786 0.0
C549 C 0.49907 0.89008 0.46351 0.0
C550 C 0.50069 0.88796 0.42627 0.0
H551 H 0.50353 0.85871 0.34014 0.0
H552 H 0.51223 0.86759 0.3746 0.0
H553 H 0.49524 0.86354 0.38143 0.0
H554 H 0.46889 0.89111 0.3995 0.0
H555 H 0.46599 0.89483 0.46476 0.0
H556 H 0.35019 0.28395 0.46127 0.0
H557 H 0.35667 0.27547 0.52072 0.0
H558 H 0.36843 0.23904 0.47137 0.0
H559 H 0.36209 0.2475 0.41141 0.0
H560 H 0.34947 0.2381 0.53333 0.0
H561 H 0.39435 0.26686 0.56275 0.0
H562 H 0.38088 0.27613 0.54453 0.0
H563 H 0.38857 0.26379 0.51704 0.0
C564 C 0.35428 0.27418 0.46292 0.0
C565 C 0.35559 0.26638 0.43163 0.0
C566 C 0.35806 0.26939 0.49688 0.0
C567 C 0.36316 0.2567 0.50027 0.0
C568 C 0.36463 0.24891 0.46915 0.0
H569 H 0.36442 0.21808 0.71483 0.0
H570 H 0.36918 0.22092 0.64996 0.0
C571 C 0.361 0.25376 0.43499 0.0
C572 C 0.36578 0.25134 0.53688 0.0
H573 H 0.38369 0.25691 0.61364 0.0
C574 C 0.35712 0.24195 0.5508 0.0
C575 C 0.37575 0.25646 0.55936 0.0
C576 C 0.38551 0.2663 0.54518 0.0
C577 C 0.35754 0.23824 0.58753 0.0
C578 C 0.36718 0.2438 0.6106 0.0
C579 C 0.37633 0.25263 0.59598 0.0
C580 C 0.36677 0.24198 0.65063 0.0
C581 C 0.34708 0.22913 0.60176 0.0
C582 C 0.36475 0.25294 0.67295 0.0
C583 C 0.36227 0.25137 0.70998 0.0
C584 C 0.36169 0.2388 0.72546 0.0
C585 C 0.36467 0.22788 0.70364 0.0
C586 C 0.36728 0.22948 0.66651 0.0
H587 H 0.33892 0.22785 0.58205 0.0
H588 H 0.35142 0.21935 0.60698 0.0
H589 H 0.34295 0.23286 0.62769 0.0
H590 H 0.36439 0.26269 0.66138 0.0
H591 H 0.36011 0.26 0.72602 0.0
H592 H 1.00187 0.89113 0.83305 0.0
H593 H 0.01085 0.88514 0.77339 0.0
H594 H 0.98562 0.91348 0.72204 0.0
H595 H 0.97656 0.91949 0.78112 0.0
H596 H 0.99551 0.87683 0.70563 0.0
H597 H 0.0249 0.9223 0.69138 0.0
H598 H 0.01945 0.91615 0.73491 0.0
H599 H 0.00825 0.92475 0.70577 0.0
C600 C 0.99821 0.89607 0.80904 0.0
C601 C 0.98854 0.90584 0.81188 0.0
C602 C 0.00333 0.89261 0.77505 0.0
C603 C 0.99895 0.89897 0.74353 0.0
C604 C 0.98918 0.90856 0.7462 0.0
H605 H 0.99537 0.89219 0.51784 0.0
H606 H 0.99295 0.88884 0.58307 0.0
C607 C 0.98401 0.91195 0.78 0.0
C608 C 0.0046 0.89584 0.70757 0.0
H609 H 0.02111 0.91 0.63732 0.0
C610 C 1.00131 0.88395 0.69081 0.0
C611 C 0.01233 0.90507 0.68866 0.0
C612 C 0.01657 0.91775 0.70612 0.0
C613 C 0.00488 0.88141 0.65458 0.0
C614 C 0.01178 0.89108 0.63476 0.0
C615 C 0.01578 0.90259 0.65244 0.0
C616 C 0.01368 0.89027 0.59486 0.0
C617 C 1.00099 0.86854 0.63763 0.0
C618 C 0.02616 0.89197 0.57958 0.0
C619 C 0.02758 0.89397 0.54214 0.0
C620 C 0.01649 0.89445 0.51947 0.0
C621 C 0.0041 0.89188 0.53454 0.0
C622 C 1.00271 0.88986 0.57188 0.0
H623 H 1.00004 0.86075 0.65855 0.0
H624 H 0.99131 0.86967 0.62424 0.0
H625 H 0.0082 0.86536 0.61686 0.0
H626 H 0.03475 0.8924 0.59687 0.0
H627 H 0.03726 0.89593 0.53139 0.0
H628 H 0.35177 0.78407 0.79335 0.0
H629 H 0.35553 0.77929 0.85736 0.0
H630 H 0.3796 0.74621 0.82757 0.0
H631 H 0.37497 0.75045 0.76336 0.0
H632 H 0.36301 0.73821 0.87118 0.0
H633 H 0.38185 0.78331 0.93361 0.0
H634 H 0.36713 0.78726 0.90964 0.0
H635 H 0.3812 0.7813 0.8849 0.0
C636 C 0.3582 0.77603 0.80046 0.0
C637 C 0.36305 0.7676 0.7735 0.0
C638 C 0.36045 0.77334 0.8372 0.0
C639 C 0.36799 0.76245 0.84763 0.0
C640 C 0.37371 0.75465 0.82039 0.0
H641 H 0.37044 0.7454 0.08317 0.0
H642 H 0.37742 0.75193 0.02192 0.0
C643 C 0.37112 0.7571 0.78368 0.0
C644 C 0.36808 0.75802 0.88624 0.0
H645 H 0.36896 0.7691 0.97388 0.0
C646 C 0.36464 0.74495 0.89352 0.0
C647 C 0.37041 0.76662 0.91581 0.0
C648 C 0.37551 0.78034 0.91047 0.0
C649 C 0.36271 0.74048 0.92912 0.0
C650 C 0.36361 0.74946 0.95833 0.0
C651 C 0.3679 0.76229 0.95143 0.0
C652 C 0.35943 0.74584 0.99569 0.0
C653 C 0.35962 0.72617 0.93486 0.0
C654 C 0.3469 0.74059 0.00148 0.0
C655 C 0.34301 0.73665 0.03613 0.0
C656 C 0.35142 0.73823 0.06601 0.0
C657 C 0.36376 0.74403 0.06059 0.0
C658 C 0.36776 0.74776 0.02565 0.0
H659 H 0.36408 0.72004 0.91318 0.0
H660 H 0.36322 0.72264 0.96162 0.0
H661 H 0.34886 0.72471 0.93356 0.0
H662 H 0.3401 0.73947 0.97908 0.0
H663 H 0.33335 0.73243 0.03953 0.0
H664 H 0.50509 0.12288 0.01154 0.0
H665 H 0.50955 0.1264 0.07625 0.0
H666 H 0.47608 0.10258 0.10385 0.0
H667 H 0.47108 0.09985 0.03931 0.0
H668 H 0.47939 0.12042 0.15408 0.0
H669 H 0.52748 0.09712 0.12647 0.0
H670 H 0.5254 0.11239 0.10319 0.0
H671 H 0.51505 0.09866 0.09205 0.0
C672 C 0.49848 0.11875 0.03151 0.0
C673 C 0.48784 0.11098 0.02056 0.0
C674 C 0.5011 0.12064 0.06845 0.0
C675 C 0.49347 0.1143 0.09493 0.0
C676 C 0.4822 0.10746 0.08397 0.0
H677 H 0.52186 0.08129 0.29262 0.0
H678 H 0.51407 0.08674 0.23186 0.0
C679 C 0.47933 0.10591 0.04705 0.0
C680 C 0.49789 0.11357 0.13342 0.0
H681 H 0.52335 0.10345 0.18662 0.0
C682 C 0.48901 0.11675 0.16126 0.0
C683 C 0.51039 0.10856 0.1428 0.0
C684 C 0.52008 0.10386 0.1146 0.0
C685 C 0.49216 0.11477 0.19809 0.0
C686 C 0.50473 0.10994 0.20736 0.0
C687 C 0.51372 0.10718 0.17954 0.0
C688 C 0.50858 0.10667 0.24529 0.0
C689 C 0.48178 0.11729 0.22643 0.0
C690 C 0.508 0.11599 0.27338 0.0
C691 C 0.51218 0.11275 0.30854 0.0
C692 C 0.51738 0.10028 0.31585 0.0
C693 C 0.518 0.09102 0.28772 0.0
C694 C 0.51354 0.09413 0.25296 0.0
H695 H 0.4718 0.11741 0.21435 0.0
H696 H 0.48204 0.10973 0.24813 0.0
H697 H 0.48353 0.12699 0.23908 0.0
H698 H 0.50456 0.12583 0.26802 0.0
H699 H 0.51171 0.12011 0.32971 0.0
H700 H 0.16464 0.27986 0.53636 0.0
H701 H 0.15892 0.27109 0.47679 0.0
H702 H 0.13256 0.24349 0.52688 0.0
H703 H 0.13823 0.25222 0.58706 0.0
H704 H 0.162 0.2429 0.45805 0.0
H705 H 0.11136 0.26242 0.44148 0.0
H706 H 0.12308 0.27005 0.47159 0.0
H707 H 0.11585 0.25468 0.48375 0.0
C708 C 0.15755 0.27199 0.53487 0.0
C709 C 0.15192 0.26672 0.56655 0.0
C710 C 0.1543 0.26699 0.50076 0.0
C711 C 0.14528 0.25671 0.49754 0.0
C712 C 0.13945 0.25152 0.5289 0.0
H713 H 0.1443 0.21742 0.2851 0.0
H714 H 0.14055 0.22003 0.35049 0.0
C715 C 0.14274 0.25649 0.5632 0.0
C716 C 0.14265 0.25111 0.46121 0.0
H717 H 0.12062 0.25145 0.39136 0.0
C718 C 0.15288 0.24453 0.44359 0.0
C719 C 0.13075 0.25336 0.44265 0.0
C720 C 0.11959 0.26055 0.46057 0.0
C721 C 0.15176 0.24062 0.4072 0.0
C722 C 0.13999 0.24321 0.38813 0.0
C723 C 0.12956 0.24936 0.40621 0.0
C724 C 0.13914 0.24116 0.34835 0.0
C725 C 0.16347 0.23446 0.38885 0.0
C726 C 0.13876 0.2521 0.32533 0.0
C727 C 0.14083 0.25065 0.28804 0.0
C728 C 0.14332 0.23821 0.27313 0.0
C729 C 0.14251 0.22714 0.29579 0.0
C730 C 0.14042 0.22861 0.33317 0.0
H731 H 0.17246 0.23511 0.40581 0.0
H732 H 0.16143 0.22396 0.3836 0.0
H733 H 0.16544 0.23927 0.36232 0.0
H734 H 0.13773 0.26186 0.33652 0.0
H735 H 0.14127 0.25936 0.27131 0.0
H736 H 0.99693 0.89557 0.33232 0.0
H737 H 0.98865 0.88934 0.27207 0.0
H738 H 0.02529 0.90107 0.22381 0.0
H739 H 0.03359 0.90743 0.28354 0.0
H740 H 0.98781 0.90821 0.21041 0.0
H741 H 0.01691 0.86357 0.18105 0.0
H742 H 0.01379 0.86932 0.22676 0.0
H743 H 0.02611 0.87708 0.19934 0.0
C744 C 0.00328 0.89668 0.30891 0.0
C745 C 0.01591 0.90204 0.31267 0.0
C746 C 0.99853 0.89311 0.27459 0.0
C747 C 0.00643 0.8946 0.24369 0.0
C748 C 0.01913 0.89966 0.24747 0.0
H749 H 0.00982 0.89785 0.01755 0.0
H750 H 0.0126 0.89362 0.08222 0.0
C751 C 0.02381 0.90338 0.28159 0.0
C752 C 1.00118 0.89201 0.20692 0.0
H753 H 0.00701 0.87424 0.13007 0.0
C754 C 0.99176 0.90062 0.19293 0.0
C755 C 0.00643 0.88211 0.18441 0.0
C756 C 0.0163 0.8724 0.19864 0.0
C757 C 0.9881 0.9002 0.15616 0.0
C758 C 0.99376 0.89063 0.13309 0.0
C759 C 1.00265 0.88154 0.14774 0.0
C760 C 0.99193 0.89102 0.09306 0.0
C761 C 0.97892 0.9106 0.1419 0.0
C762 C 0.97942 0.89036 0.07723 0.0
C763 C 0.97777 0.89294 0.0401 0.0
C764 C 0.98864 0.89603 0.01821 0.0
C765 C 1.00123 0.89559 0.03364 0.0
C766 C 0.00285 0.89315 0.07068 0.0
H767 H 0.97758 0.91874 0.16159 0.0
H768 H 0.98262 0.91476 0.11597 0.0
H769 H 0.96917 0.90618 0.13666 0.0
H770 H 0.97089 0.88837 0.09382 0.0
H771 H 0.96795 0.89308 0.02895 0.0
H772 H 0.87095 0.25958 0.07947 0.0
H773 H 0.87777 0.25306 0.01804 0.0
H774 H 0.84045 0.26582 0.97588 0.0
H775 H 0.83388 0.27286 0.03646 0.0
H776 H 0.86917 0.23601 0.97017 0.0
H777 H 0.8643 0.28501 0.9093 0.0
H778 H 0.86353 0.28246 0.95777 0.0
H779 H 0.8491 0.28045 0.92998 0.0
C780 C 0.86425 0.26103 0.05699 0.0
C781 C 0.85196 0.2669 0.06264 0.0
C782 C 0.86815 0.25731 0.02194 0.0
C783 C 0.85978 0.2593 0.99212 0.0
C784 C 0.84729 0.26465 0.99814 0.0
H785 H 0.85129 0.22069 0.79048 0.0
H786 H 0.85526 0.22565 0.85428 0.0
C787 C 0.8435 0.26858 0.03288 0.0
C788 C 0.86383 0.25565 0.95466 0.0
H789 H 0.86288 0.26679 0.86742 0.0
C790 C 0.86804 0.2428 0.94771 0.0
C791 C 0.86284 0.26459 0.92539 0.0
C792 C 0.85985 0.27893 0.9311 0.0
C793 C 0.87038 0.23842 0.91204 0.0
C794 C 0.86794 0.24698 0.88246 0.0
C795 C 0.86458 0.26007 0.88977 0.0
C796 C 0.86765 0.2425 0.84389 0.0
C797 C 0.87543 0.22468 0.90667 0.0
C798 C 0.87323 0.25026 0.81633 0.0
C799 C 0.87051 0.24771 0.77974 0.0
C800 C 0.86245 0.23715 0.76998 0.0
C801 C 0.85771 0.22878 0.79725 0.0
C802 C 0.86008 0.23157 0.83387 0.0
H803 H 0.88189 0.22175 0.92959 0.0
H804 H 0.86704 0.21777 0.90626 0.0
H805 H 0.881 0.22368 0.8809 0.0
H806 H 0.87913 0.25873 0.82317 0.0
H807 H 0.87428 0.25431 0.75918 0.0
H808 H 0.47332 0.09674 0.78216 0.0
H809 H 0.48195 0.10362 0.72324 0.0
H810 H 0.51547 0.12087 0.77597 0.0
H811 H 0.50688 0.1141 0.83542 0.0
H812 H 0.49248 0.13262 0.70207 0.0
H813 H 0.52715 0.09043 0.69709 0.0
H814 H 0.51216 0.0894 0.72297 0.0
H815 H 0.52518 0.09977 0.73837 0.0
C816 C 0.48248 0.10208 0.78138 0.0
C817 C 0.48945 0.1048 0.8135 0.0
C818 C 0.48736 0.10605 0.74769 0.0
C819 C 0.49931 0.11272 0.74543 0.0
C820 C 0.5062 0.11574 0.77734 0.0
H821 H 0.53799 0.11431 0.53358 0.0
H822 H 0.53493 0.11933 0.59814 0.0
C823 C 0.50128 0.11185 0.8112 0.0
C824 C 0.50482 0.11574 0.70928 0.0
H825 H 0.52422 0.1025 0.64352 0.0
C826 C 0.49961 0.12622 0.68935 0.0
C827 C 0.51421 0.10744 0.69311 0.0
C828 C 0.52006 0.09609 0.71376 0.0
C829 C 0.50314 0.12826 0.65288 0.0
C830 C 0.5118 0.11935 0.63578 0.0
C831 C 0.51758 0.10934 0.65653 0.0
C832 C 0.51375 0.11909 0.59577 0.0
C833 C 0.49737 0.1398 0.63292 0.0
C834 C 0.50288 0.11765 0.57273 0.0
C835 C 0.50459 0.11489 0.53588 0.0
C836 C 0.51722 0.1133 0.52135 0.0
C837 C 0.52812 0.11548 0.54393 0.0
C838 C 0.5264 0.11833 0.58086 0.0
H839 H 0.49553 0.14809 0.65183 0.0
H840 H 0.5039 0.14322 0.61073 0.0
H841 H 0.48781 0.13692 0.62099 0.0
H842 H 0.49303 0.11784 0.58362 0.0
H843 H 0.49598 0.11323 0.51931 0.0
H844 H 0.67372 0.73451 0.54431 0.0
H845 H 0.66761 0.74215 0.48387 0.0
H846 H 0.62858 0.75066 0.52232 0.0
H847 H 0.63494 0.74366 0.58363 0.0
H848 H 0.65073 0.73243 0.43961 0.0
H849 H 0.63578 0.78363 0.46825 0.0
H850 H 0.64399 0.77359 0.50153 0.0
H851 H 0.6267 0.77168 0.49356 0.0
C852 C 0.66387 0.73813 0.53998 0.0
C853 C 0.65481 0.73851 0.56864 0.0
C854 C 0.66037 0.7425 0.5054 0.0
C855 C 0.64766 0.74713 0.49848 0.0
C856 C 0.63854 0.74748 0.52709 0.0
H857 H 0.6299 0.75041 0.26542 0.0
H858 H 0.62672 0.74583 0.3302 0.0
C859 C 0.64215 0.74338 0.56205 0.0
C860 C 0.64399 0.75089 0.46076 0.0
H861 H 0.63252 0.77599 0.40816 0.0
C862 C 0.64673 0.74196 0.43277 0.0
C863 C 0.63879 0.76334 0.4518 0.0
C864 C 0.63625 0.77366 0.4803 0.0
C865 C 0.64499 0.74526 0.39612 0.0
C866 C 0.63964 0.75765 0.38705 0.0
C867 C 0.63646 0.76644 0.4151 0.0
C868 C 0.63862 0.76209 0.34865 0.0
C869 C 0.64968 0.73568 0.36763 0.0
C870 C 0.64522 0.77349 0.33759 0.0
C871 C 0.64658 0.77641 0.30066 0.0
C872 C 0.64157 0.76784 0.27423 0.0
C873 C 0.634 0.75708 0.28531 0.0
C874 C 0.6323 0.75438 0.32229 0.0
H875 H 0.6566 0.72837 0.37912 0.0
H876 H 0.64117 0.73024 0.35652 0.0
H877 H 0.65467 0.74081 0.34491 0.0
H878 H 0.65008 0.77968 0.35737 0.0
H879 H 0.65248 0.78476 0.29286 0.0
H880 H 0.97031 0.10197 0.45848 0.0
H881 H 0.97606 0.10547 0.3948 0.0
H882 H 0.00916 0.12895 0.42767 0.0
H883 H 0.00394 0.12467 0.49158 0.0
H884 H 0.9799 0.12385 0.34666 0.0
H885 H 0.02776 0.10034 0.37651 0.0
H886 H 0.01496 0.10147 0.40995 0.0
H887 H 0.02531 0.11537 0.40066 0.0
C888 C 0.97865 0.10812 0.45212 0.0
C889 C 0.98683 0.11286 0.47986 0.0
C890 C 0.98194 0.11011 0.41567 0.0
C891 C 0.99333 0.11708 0.4064 0.0
C892 C 1.00064 0.1231 0.43415 0.0
H893 H 0.01314 0.12326 0.17236 0.0
H894 H 0.0061 0.12929 0.23391 0.0
C895 C 0.99757 0.12077 0.47064 0.0
C896 C 0.99818 0.11677 0.36829 0.0
H897 H 0.02403 0.1068 0.31638 0.0
C898 C 0.98958 0.12018 0.33998 0.0
C899 C 0.01075 0.11179 0.35955 0.0
C900 C 0.02018 0.10691 0.3882 0.0
C901 C 0.99302 0.11836 0.3033 0.0
C902 C 0.00562 0.11346 0.29469 0.0
C903 C 0.01438 0.11057 0.32298 0.0
C904 C 0.00965 0.11009 0.25699 0.0
C905 C 0.98288 0.12105 0.27439 0.0
C906 C 0.01434 0.09744 0.24962 0.0
C907 C 0.01872 0.09412 0.21494 0.0
C908 C 0.0183 0.10332 0.18659 0.0
C909 C 0.01346 0.11595 0.19369 0.0
C910 C 0.00934 0.11937 0.22877 0.0
H911 H 0.97282 0.12138 0.28589 0.0
H912 H 0.98491 0.13071 0.26175 0.0
H913 H 0.98315 0.11347 0.25276 0.0
H914 H 0.01466 0.09008 0.27084 0.0
H915 H 0.02232 0.08428 0.21024 0.0
H916 H 0.64075 0.2596 0.23208 0.0
H917 H 0.63727 0.26244 0.16701 0.0
H918 H 0.64101 0.22077 0.15101 0.0
H919 H 0.64469 0.21784 0.21627 0.0
H920 H 0.65835 0.23466 0.11078 0.0
H921 H 0.60899 0.25578 0.09186 0.0
H922 H 0.61808 0.26436 0.12613 0.0
H923 H 0.61379 0.24745 0.13312 0.0
C924 C 0.64045 0.25098 0.21493 0.0
C925 C 0.64311 0.2385 0.22933 0.0
C926 C 0.63836 0.25262 0.17768 0.0
C927 C 0.63878 0.24181 0.15412 0.0
C928 C 0.64058 0.22924 0.16874 0.0
H929 H 0.63824 0.25385 0.91608 0.0
H930 H 0.63251 0.24514 0.97623 0.0
C931 C 0.64266 0.22758 0.20606 0.0
C932 C 0.63944 0.24396 0.11427 0.0
H933 H 0.62481 0.26039 0.04423 0.0
C934 C 0.65087 0.24003 0.09607 0.0
C935 C 0.62967 0.25092 0.09496 0.0
C936 C 0.61688 0.25475 0.11247 0.0
C937 C 0.65315 0.24356 0.05979 0.0
C938 C 0.64381 0.25131 0.04135 0.0
C939 C 0.63202 0.25457 0.05868 0.0
C940 C 0.64669 0.25691 0.00516 0.0
C941 C 0.66572 0.23933 0.04174 0.0
C942 C 0.65638 0.26656 0.0018 0.0
C943 C 0.65964 0.27158 0.96771 0.0
C944 C 0.65329 0.26703 0.93621 0.0
C945 C 0.64337 0.25753 0.93977 0.0
C946 C 0.64005 0.25256 0.97405 0.0
H947 H 0.67033 0.23095 0.05617 0.0
H948 H 0.66396 0.2365 0.01299 0.0
H949 H 0.67275 0.24763 0.04193 0.0
H950 H 0.66152 0.27012 0.02562 0.0
H951 H 0.66729 0.2789 0.96606 0.0
H952 H 0.48437 0.92276 0.70859 0.0
H953 H 0.4921 0.9168 0.76901 0.0
H954 H 0.50044 0.87764 0.73134 0.0
H955 H 0.49333 0.88384 0.66993 0.0
H956 H 0.48219 0.9 0.81339 0.0
H957 H 0.53346 0.88497 0.78554 0.0
H958 H 0.52346 0.89312 0.75204 0.0
H959 H 0.52143 0.87589 0.76045 0.0
C960 C 0.48797 0.91291 0.71307 0.0
C961 C 0.48825 0.90376 0.68461 0.0
C962 C 0.49239 0.9095 0.74764 0.0
C963 C 0.49697 0.89679 0.75481 0.0
C964 C 0.49727 0.88759 0.72637 0.0
H965 H 0.50049 0.88133 0.98914 0.0
H966 H 0.49591 0.87725 0.92473 0.0
C967 C 0.49312 0.89111 0.69137 0.0
C968 C 0.5007 0.89325 0.79264 0.0
H969 H 0.5259 0.8824 0.84588 0.0
C970 C 0.49175 0.89611 0.82047 0.0
C971 C 0.51318 0.88819 0.80187 0.0
C972 C 0.52349 0.88547 0.77347 0.0
C973 C 0.49508 0.89472 0.85721 0.0
C974 C 0.50753 0.88958 0.86658 0.0
C975 C 0.51632 0.8862 0.83871 0.0
C976 C 0.51204 0.88905 0.90501 0.0
C977 C 0.48547 0.8996 0.88539 0.0
C978 C 0.52339 0.89589 0.91535 0.0
C979 C 0.52632 0.89776 0.9521 0.0
C980 C 0.51781 0.89302 0.97906 0.0
C981 C 0.50711 0.88522 0.9688 0.0
C982 C 0.50441 0.88301 0.93203 0.0
H983 H 0.47807 0.90631 0.87342 0.0
H984 H 0.48014 0.89115 0.89725 0.0
H985 H 0.49058 0.9049 0.90764 0.0
H986 H 0.52951 0.90055 0.89507 0.0
H987 H 0.53463 0.90383 0.95928 0.0
H988 H 0.86549 0.74608 0.72563 0.0
H989 H 0.86871 0.74394 0.66028 0.0
H990 H 0.86454 0.78572 0.64774 0.0
H991 H 0.86113 0.78795 0.71335 0.0
H992 H 0.8471 0.77205 0.60705 0.0
H993 H 0.89654 0.75162 0.58461 0.0
H994 H 0.8878 0.74264 0.61878 0.0
H995 H 0.89191 0.75956 0.62662 0.0
C996 C 0.86563 0.75487 0.70918 0.0
C997 C 0.86294 0.76717 0.72466 0.0
C998 C 0.86759 0.75364 0.67176 0.0
C999 C 0.86697 0.76468 0.6491 0.0
C1000 C 0.86513 0.77709 0.66477 0.0
H1001 H 0.86538 0.75305 0.41057 0.0
H1002 H 0.87153 0.76219 0.46996 0.0
C1003 C 0.8632 0.77834 0.70229 0.0
C1004 C 0.86612 0.76291 0.60914 0.0
H1005 H 0.88037 0.74693 0.53775 0.0
C1006 C 0.85453 0.76683 0.59172 0.0
C1007 C 0.87582 0.75617 0.58902 0.0
C1008 C 0.88877 0.75238 0.60567 0.0
C1009 C 0.852 0.76343 0.55547 0.0
C1010 C 0.86126 0.75583 0.53628 0.0
C1011 C 0.87323 0.75264 0.55277 0.0
C1012 C 0.85805 0.75011 0.50044 0.0
C1013 C 0.83922 0.76754 0.53832 0.0
C1014 C 0.84861 0.74019 0.49821 0.0
C1015 C 0.84512 0.73492 0.46458 0.0
C1016 C 0.85099 0.7395 0.43242 0.0
C1017 C 0.86063 0.74934 0.43481 0.0
C1018 C 0.86418 0.75456 0.46864 0.0
H1019 H 0.83464 0.77582 0.55322 0.0
H1020 H 0.84071 0.77046 0.50952 0.0
H1021 H 0.83231 0.75915 0.53877 0.0
H1022 H 0.84386 0.73657 0.52257 0.0
H1023 H 0.8377 0.72735 0.46383 0.0
H1024 H 0.50253 0.61564 0.16558 0.0
H1025 H 0.51148 0.62134 0.22551 0.0
H1026 H 0.48564 0.59334 0.27593 0.0
H1027 H 0.47659 0.58763 0.21659 0.0
H1028 H 0.49605 0.62965 0.29366 0.0
H1029 H 0.5249 0.58377 0.30637 0.0
H1030 H 0.51962 0.59023 0.26302 0.0
H1031 H 0.50823 0.58165 0.29162 0.0
C1032 C 0.49872 0.61073 0.18944 0.0
C1033 C 0.48888 0.60113 0.18626 0.0
C1034 C 0.50383 0.61402 0.22359 0.0
C1035 C 0.49928 0.60767 0.25493 0.0
C1036 C 0.48934 0.59827 0.25192 0.0
H1037 H 0.49624 0.61361 0.48127 0.0
H1038 H 0.49362 0.61712 0.41615 0.0
C1039 C 0.48417 0.59504 0.21797 0.0
C1040 C 0.50495 0.61056 0.29102 0.0
H1041 H 0.52139 0.59595 0.36071 0.0
C1042 C 0.50179 0.62241 0.30821 0.0
C1043 C 0.51259 0.60118 0.30959 0.0
C1044 C 0.51666 0.58852 0.29169 0.0
C1045 C 0.50543 0.62476 0.3445 0.0
C1046 C 0.51227 0.61495 0.36394 0.0
C1047 C 0.51611 0.60347 0.34587 0.0
C1048 C 0.51429 0.61561 0.40383 0.0
C1049 C 0.50168 0.63759 0.3619 0.0
C1050 C 0.52682 0.61381 0.41877 0.0
C1051 C 0.52836 0.61174 0.45614 0.0
C1052 C 0.51735 0.61127 0.47909 0.0
C1053 C 0.50492 0.61391 0.46436 0.0
C1054 C 0.50341 0.61602 0.42708 0.0
H1055 H 0.50071 0.64547 0.34125 0.0
H1056 H 0.49205 0.63647 0.37555 0.0
H1057 H 0.509 0.64065 0.38257 0.0
H1058 H 0.53535 0.61338 0.40126 0.0
H1059 H 0.53806 0.60971 0.46662 0.0
H1060 H 0.67127 0.23229 0.46275 0.0
H1061 H 0.66474 0.2393 0.52339 0.0
H1062 H 0.62738 0.25206 0.4815 0.0
H1063 H 0.63416 0.24558 0.42 0.0
H1064 H 0.63599 0.26909 0.52935 0.0
H1065 H 0.64097 0.22008 0.59011 0.0
H1066 H 0.65615 0.22465 0.56933 0.0
H1067 H 0.64169 0.22264 0.54163 0.0
C1068 C 0.66164 0.23656 0.4664 0.0
C1069 C 0.65316 0.23825 0.4367 0.0
C1070 C 0.65788 0.24048 0.50117 0.0
C1071 C 0.64539 0.24581 0.50729 0.0
C1072 C 0.637 0.24782 0.47752 0.0
H1073 H 0.6313 0.25079 0.74044 0.0
H1074 H 0.62632 0.24635 0.67653 0.0
C1075 C 0.64088 0.24412 0.44244 0.0
C1076 C 0.64138 0.24945 0.54479 0.0
H1077 H 0.64247 0.2383 0.632 0.0
C1078 C 0.63716 0.2623 0.55179 0.0
C1079 C 0.64241 0.2405 0.57403 0.0
C1080 C 0.6454 0.22617 0.56828 0.0
C1081 C 0.63486 0.26667 0.58749 0.0
C1082 C 0.63737 0.25811 0.61704 0.0
C1083 C 0.64072 0.24502 0.60969 0.0
C1084 C 0.63773 0.26259 0.6556 0.0
C1085 C 0.6298 0.2804 0.59293 0.0
C1086 C 0.6453 0.27354 0.66549 0.0
C1087 C 0.64774 0.27634 0.70207 0.0
C1088 C 0.64306 0.26797 0.72942 0.0
C1089 C 0.63501 0.25739 0.71981 0.0
C1090 C 0.63222 0.25483 0.68326 0.0
H1091 H 0.62329 0.28332 0.5701 0.0
H1092 H 0.62429 0.2814 0.61879 0.0
H1093 H 0.63818 0.28733 0.59319 0.0
H1094 H 0.65007 0.27946 0.64499 0.0
H1095 H 0.65416 0.28444 0.70872 0.0
H1096 H 0.0302 0.41699 0.71406 0.0
H1097 H 0.02145 0.41118 0.7736 0.0
H1098 H 0.99386 0.38486 0.72324 0.0
H1099 H 1.00258 0.39061 0.66312 0.0
H1100 H 0.99355 0.41419 0.79327 0.0
H1101 H 0.01272 0.36334 0.80741 0.0
H1102 H 0.02019 0.37512 0.77718 0.0
H1103 H 0.00473 0.36793 0.76558 0.0
C1104 C 0.02233 0.4099 0.71549 0.0
C1105 C 0.01708 0.40429 0.68375 0.0
C1106 C 0.01735 0.40659 0.74958 0.0
C1107 C 0.00708 0.39755 0.75273 0.0
C1108 C 1.00189 0.39177 0.72129 0.0
H1109 H 0.96715 0.39508 0.9641 0.0
H1110 H 0.97013 0.392 0.89855 0.0
C1111 C 0.00684 0.39511 0.68702 0.0
C1112 C 1.00155 0.39478 0.78906 0.0
H1113 H 1.00154 0.37225 0.85768 0.0
C1114 C 0.99508 0.40496 0.80723 0.0
C1115 C 0.00366 0.38273 0.80701 0.0
C1116 C 0.01075 0.37161 0.78856 0.0
C1117 C 0.99109 0.40361 0.8435 0.0
C1118 C 0.9935 0.39167 0.8619 0.0
C1119 C 0.99959 0.38132 0.84332 0.0
C1120 C 0.99124 0.3905 0.90153 0.0
C1121 C 0.98501 0.41524 0.86244 0.0
C1122 C 1.00205 0.38986 0.92499 0.0
C1123 C 1.00039 0.39156 0.96237 0.0
C1124 C 0.98787 0.39391 0.97693 0.0
C1125 C 0.97693 0.39337 0.95371 0.0
C1126 C 0.97861 0.39167 0.91624 0.0
H1127 H 0.98581 0.42435 0.84608 0.0
H1128 H 0.97447 0.41327 0.86731 0.0
H1129 H 0.98976 0.41693 0.88921 0.0
H1130 H 0.01187 0.38891 0.91417 0.0
H1131 H 0.00901 0.39181 0.97953 0.0
H1132 H 0.85859 0.75985 0.22637 0.0
H1133 H 0.86311 0.76242 0.1618 0.0
H1134 H 0.86807 0.72065 0.15116 0.0
H1135 H 0.86308 0.71792 0.21595 0.0
H1136 H 0.88277 0.75654 0.11503 0.0
H1137 H 0.83818 0.72745 0.08176 0.0
H1138 H 0.84192 0.73256 0.1275 0.0
H1139 H 0.85053 0.71901 0.10743 0.0
C1140 C 0.86083 0.75119 0.21052 0.0
C1141 C 0.86026 0.73865 0.22619 0.0
C1142 C 0.86345 0.75269 0.17353 0.0
C1143 C 0.86561 0.74171 0.15144 0.0
C1144 C 0.86608 0.72924 0.16752 0.0
H1145 H 0.86191 0.74676 0.91197 0.0
H1146 H 0.86798 0.73834 0.97221 0.0
C1147 C 0.86333 0.7277 0.2046 0.0
C1148 C 0.86626 0.74345 0.11141 0.0
H1149 H 0.84903 0.73761 0.03339 0.0
C1150 C 0.87552 0.75223 0.09709 0.0
C1151 C 0.85677 0.73785 0.08796 0.0
C1152 C 0.84621 0.72877 0.10183 0.0
C1153 C 0.87518 0.75599 0.06038 0.0
C1154 C 0.86534 0.75083 0.03749 0.0
C1155 C 0.85657 0.74149 0.05115 0.0
C1156 C 0.86293 0.75616 0.00071 0.0
C1157 C 0.88506 0.76575 0.04653 0.0
C1158 C 0.85805 0.76893 0.99698 0.0
C1159 C 0.85443 0.77369 0.96287 0.0
C1160 C 0.85568 0.76579 0.93174 0.0
C1161 C 0.86088 0.7531 0.93542 0.0
C1162 C 0.86435 0.74828 0.96974 0.0
H1163 H 0.89385 0.76621 0.06433 0.0
H1164 H 0.88819 0.76327 0.01844 0.0
H1165 H 0.88052 0.77563 0.04592 0.0
H1166 H 0.85669 0.77508 0.02068 0.0
H1167 H 0.85049 0.78352 0.96098 0.0
H1168 H 0.53439 0.40254 0.0409 0.0
H1169 H 0.52905 0.39846 0.10436 0.0
H1170 H 0.4957 0.37529 0.07141 0.0
H1171 H 0.50054 0.38022 0.00771 0.0
H1172 H 0.48774 0.39173 0.11563 0.0
H1173 H 0.53199 0.3715 0.17924 0.0
H1174 H 0.53647 0.38627 0.15623 0.0
H1175 H 0.53032 0.37251 0.13048 0.0
C1176 C 0.52616 0.39623 0.04717 0.0
C1177 C 0.51784 0.39173 0.01945 0.0
C1178 C 0.52315 0.3938 0.0836 0.0
C1179 C 0.51203 0.38642 0.09301 0.0
C1180 C 0.50432 0.38104 0.06503 0.0
H1181 H 0.49413 0.38368 0.32799 0.0
H1182 H 0.50043 0.37655 0.26671 0.0
C1183 C 0.5071 0.38381 0.02861 0.0
C1184 C 0.50734 0.38615 0.13136 0.0
H1185 H 0.51791 0.38461 0.21941 0.0
C1186 C 0.49431 0.38985 0.1382 0.0
C1187 C 0.51571 0.38347 0.16121 0.0
C1188 C 0.52934 0.37806 0.15629 0.0
C1189 C 0.48969 0.39173 0.17368 0.0
C1190 C 0.49849 0.3905 0.20323 0.0
C1191 C 0.51125 0.38592 0.19672 0.0
C1192 C 0.49482 0.39469 0.24054 0.0
C1193 C 0.47543 0.39513 0.17892 0.0
C1194 C 0.48986 0.40735 0.24637 0.0
C1195 C 0.48606 0.41134 0.28104 0.0
C1196 C 0.48747 0.40289 0.31092 0.0
C1197 C 0.4929 0.39039 0.30542 0.0
C1198 C 0.4965 0.3863 0.27046 0.0
H1199 H 0.46931 0.39085 0.15695 0.0
H1200 H 0.47169 0.39158 0.20549 0.0
H1201 H 0.47423 0.40592 0.17769 0.0
H1202 H 0.48894 0.41419 0.22402 0.0
H1203 H 0.48212 0.42111 0.28449 0.0
H1204 H 0.86042 0.28744 0.28304 0.0
H1205 H 0.8642 0.28451 0.34826 0.0
H1206 H 0.8681 0.24286 0.33217 0.0
H1207 H 0.86452 0.2457 0.26714 0.0
H1208 H 0.84698 0.27054 0.3887 0.0
H1209 H 0.89647 0.24964 0.40696 0.0
H1210 H 0.89157 0.25797 0.36578 0.0
H1211 H 0.88737 0.24103 0.37278 0.0
C1212 C 0.8625 0.27771 0.29322 0.0
C1213 C 0.86207 0.26679 0.26994 0.0
C1214 C 0.86464 0.27605 0.33052 0.0
C1215 C 0.86652 0.26348 0.3451 0.0
C1216 C 0.86694 0.25268 0.32153 0.0
H1217 H 0.83851 0.22614 0.53327 0.0
H1218 H 0.8442 0.23496 0.47369 0.0
C1219 C 0.86479 0.25432 0.2843 0.0
C1220 C 0.86593 0.26133 0.38496 0.0
H1221 H 0.88075 0.24495 0.45477 0.0
C1222 C 0.85451 0.2652 0.40331 0.0
C1223 C 0.87576 0.25441 0.40413 0.0
C1224 C 0.88854 0.25065 0.38645 0.0
C1225 C 0.85231 0.26165 0.43961 0.0
C1226 C 0.86171 0.25394 0.45791 0.0
C1227 C 0.87349 0.25074 0.44043 0.0
C1228 C 0.85891 0.2483 0.49411 0.0
C1229 C 0.83974 0.2658 0.45783 0.0
C1230 C 0.86552 0.25272 0.5252 0.0
C1231 C 0.86225 0.24773 0.5595 0.0
C1232 C 0.85241 0.23815 0.56308 0.0
C1233 C 0.8461 0.23353 0.5316 0.0
C1234 C 0.84931 0.23857 0.49749 0.0
H1235 H 0.83505 0.27414 0.44343 0.0
H1236 H 0.83277 0.25746 0.45777 0.0
H1237 H 0.84154 0.26865 0.48654 0.0
H1238 H 0.87299 0.26021 0.523 0.0
H1239 H 0.86734 0.25146 0.58318 0.0
H1240 H 0.02249 0.58431 0.78838 0.0
H1241 H 0.0154 0.59089 0.72784 0.0
H1242 H 1.00269 0.62821 0.77008 0.0
H1243 H 0.00925 0.62138 0.83146 0.0
H1244 H 0.98559 0.61955 0.72205 0.0
H1245 H 0.0347 0.61485 0.6616 0.0
H1246 H 0.03011 0.59964 0.6822 0.0
H1247 H 0.03209 0.61406 0.71004 0.0
C1248 C 0.0182 0.59393 0.78484 0.0
C1249 C 0.01656 0.60239 0.8146 0.0
C1250 C 0.01424 0.59773 0.75012 0.0
C1251 C 0.0089 0.61022 0.74413 0.0
C1252 C 0.00692 0.61858 0.77396 0.0
H1253 H 0.00432 0.62549 0.51157 0.0
H1254 H 0.00853 0.6301 0.57581 0.0
C1255 C 0.01068 0.61468 0.80898 0.0
C1256 C 0.00527 0.61429 0.70667 0.0
H1257 H 0.01654 0.61359 0.61955 0.0
C1258 C 0.99241 0.61848 0.69964 0.0
C1259 C 0.01426 0.61338 0.6775 0.0
C1260 C 0.02859 0.61039 0.68333 0.0
C1261 C 0.98808 0.62091 0.66395 0.0
C1262 C 0.9967 0.61858 0.63444 0.0
C1263 C 0.00979 0.61522 0.64185 0.0
C1264 C 0.99231 0.61845 0.59579 0.0
C1265 C 0.97433 0.62592 0.6585 0.0
C1266 C 0.98143 0.61089 0.58529 0.0
C1267 C 0.97876 0.60866 0.54852 0.0
C1268 C 0.98719 0.61354 0.5216 0.0
C1269 C 0.99768 0.62162 0.53186 0.0
C1270 C 1.00011 0.6242 0.56858 0.0
H1271 H 0.97131 0.63227 0.68157 0.0
H1272 H 0.97337 0.63159 0.63289 0.0
H1273 H 0.96746 0.61751 0.65767 0.0
H1274 H 0.97548 0.60596 0.60541 0.0
H1275 H 0.97073 0.60222 0.54136 0.0
H1276 H 0.63535 0.75324 0.08697 0.0
H1277 H 0.62968 0.74426 0.02705 0.0
H1278 H 0.65854 0.76924 0.97703 0.0
H1279 H 0.66424 0.7783 0.03633 0.0
H1280 H 0.62219 0.75941 0.9575 0.0
H1281 H 0.66757 0.72957 0.94945 0.0
H1282 H 0.66085 0.7353 0.99204 0.0
H1283 H 0.66995 0.74628 0.96344 0.0
C1284 C 0.64044 0.75688 0.06318 0.0
C1285 C 0.65031 0.76644 0.06648 0.0
C1286 C 0.63716 0.75175 0.02904 0.0
C1287 C 0.64379 0.75602 0.99785 0.0
C1288 C 0.65341 0.76576 0.00093 0.0
H1289 H 0.64009 0.75844 0.77163 0.0
H1290 H 0.63571 0.76117 0.83628 0.0
C1291 C 0.65663 0.77093 0.03487 0.0
C1292 C 0.64108 0.75018 0.96188 0.0
H1293 H 0.65606 0.73315 0.89397 0.0
C1294 C 0.62946 0.75346 0.94371 0.0
C1295 C 0.65049 0.74225 0.94434 0.0
C1296 C 0.66288 0.73802 0.96335 0.0
C1297 C 0.62739 0.7497 0.90739 0.0
C1298 C 0.63727 0.74261 0.88893 0.0
C1299 C 0.64849 0.73862 0.90803 0.0
C1300 C 0.63704 0.74051 0.84903 0.0
C1301 C 0.61479 0.75358 0.88893 0.0
C1302 C 0.63903 0.72796 0.83445 0.0
C1303 C 0.64165 0.72637 0.79737 0.0
C1304 C 0.64244 0.73734 0.77436 0.0
C1305 C 0.63955 0.74979 0.7886 0.0
C1306 C 0.63694 0.75136 0.82561 0.0
H1307 H 0.6067 0.75459 0.90893 0.0
H1308 H 0.61614 0.76322 0.87552 0.0
H1309 H 0.61188 0.74632 0.86794 0.0
H1310 H 0.63923 0.71947 0.8521 0.0
H1311 H 0.64383 0.71665 0.78725 0.0
H1312 H 0.52203 0.42271 0.78957 0.0
H1313 H 0.51458 0.41694 0.72872 0.0
H1314 H 0.50595 0.3777 0.76525 0.0
H1315 H 0.51278 0.3837 0.82701 0.0
H1316 H 0.52418 0.40029 0.68347 0.0
H1317 H 0.47291 0.38548 0.71201 0.0
H1318 H 0.48305 0.39341 0.74555 0.0
H1319 H 0.48489 0.37618 0.73664 0.0
C1320 C 0.51845 0.41287 0.78473 0.0
C1321 C 0.51796 0.40366 0.81301 0.0
C1322 C 0.51419 0.40957 0.74991 0.0
C1323 C 0.50954 0.39691 0.74234 0.0
C1324 C 0.50914 0.38762 0.77053 0.0
H1325 H 0.50521 0.38149 0.50791 0.0
H1326 H 0.51013 0.37764 0.57223 0.0
C1327 C 0.51314 0.39103 0.80573 0.0
C1328 C 0.5057 0.39353 0.70448 0.0
H1329 H 0.48034 0.38284 0.65158 0.0
C1330 C 0.51459 0.39644 0.67652 0.0
C1331 C 0.49318 0.38854 0.6954 0.0
C1332 C 0.4829 0.38583 0.72392 0.0
C1333 C 0.51117 0.39511 0.63981 0.0
C1334 C 0.49869 0.38999 0.63062 0.0
C1335 C 0.48995 0.3866 0.65861 0.0
C1336 C 0.49408 0.38948 0.59228 0.0
C1337 C 0.52072 0.39998 0.61148 0.0
C1338 C 0.48269 0.3963 0.5822 0.0
C1339 C 0.47957 0.39804 0.54553 0.0
C1340 C 0.48793 0.39321 0.51835 0.0
C1341 C 0.4987 0.38546 0.52839 0.0
C1342 C 0.50159 0.38338 0.56511 0.0
H1343 H 0.52816 0.40667 0.62335 0.0
H1344 H 0.526 0.39152 0.59952 0.0
H1345 H 0.51557 0.40528 0.58933 0.0
H1346 H 0.47665 0.401 0.60261 0.0
H1347 H 0.47121 0.40407 0.53855 0.0
H1348 H 0.36129 0.71719 0.28518 0.0
H1349 H 0.36505 0.71999 0.35051 0.0
H1350 H 0.36772 0.76179 0.33569 0.0
H1351 H 0.36417 0.7591 0.27051 0.0
H1352 H 0.38495 0.75154 0.39065 0.0
H1353 H 0.33318 0.7351 0.40585 0.0
H1354 H 0.34417 0.72393 0.38366 0.0
H1355 H 0.34013 0.7392 0.36224 0.0
C1356 C 0.36304 0.72695 0.29567 0.0
C1357 C 0.3622 0.73795 0.27276 0.0
C1358 C 0.36514 0.72853 0.33302 0.0
C1359 C 0.36639 0.74112 0.34795 0.0
C1360 C 0.36672 0.75199 0.3247 0.0
H1361 H 0.34125 0.7797 0.53666 0.0
H1362 H 0.34701 0.77114 0.4769 0.0
C1363 C 0.36465 0.75044 0.28743 0.0
C1364 C 0.36559 0.74324 0.38772 0.0
H1365 H 0.34376 0.74283 0.45802 0.0
C1366 C 0.37605 0.74943 0.40564 0.0
C1367 C 0.35388 0.74062 0.40697 0.0
C1368 C 0.34214 0.73444 0.3888 0.0
C1369 C 0.37494 0.75339 0.44214 0.0
C1370 C 0.3631 0.75108 0.46091 0.0
C1371 C 0.35284 0.7445 0.44341 0.0
C1372 C 0.36055 0.75662 0.49735 0.0
C1373 C 0.38613 0.76058 0.45994 0.0
C1374 C 0.36634 0.7513 0.52862 0.0
C1375 C 0.36303 0.75615 0.56305 0.0
C1376 C 0.35387 0.76639 0.56661 0.0
C1377 C 0.34832 0.77181 0.53502 0.0
C1378 C 0.35159 0.76694 0.50079 0.0
H1379 H 0.39435 0.76241 0.44079 0.0
H1380 H 0.38266 0.77011 0.47084 0.0
H1381 H 0.38987 0.75475 0.4832 0.0
H1382 H 0.37319 0.74324 0.52642 0.0
H1383 H 0.36748 0.75176 0.58683 0.0
H1384 H 0.99621 0.61549 0.01975 0.0
H1385 H 0.99378 0.61938 0.08475 0.0
H1386 H 0.03555 0.61562 0.09896 0.0
H1387 H 0.03806 0.61151 0.03376 0.0
H1388 H 0.02198 0.59863 0.14073 0.0
H1389 H 1.00085 0.64802 0.15828 0.0
H1390 H 0.99202 0.63876 0.12484 0.0
H1391 H 0.0089 0.64299 0.11681 0.0
C1392 C 0.00494 0.61586 0.03647 0.0
C1393 C 0.01732 0.61307 0.02162 0.0
C1394 C 0.00354 0.6182 0.07368 0.0
C1395 C 0.01449 0.6179 0.09674 0.0
C1396 C 0.02697 0.61596 0.08162 0.0
H1397 H 1.00269 0.61883 0.33526 0.0
H1398 H 0.01161 0.62458 0.27531 0.0
C1399 C 0.02839 0.61363 0.04433 0.0
C1400 C 0.01258 0.61748 0.13672 0.0
H1401 H 0.99627 0.63236 0.20653 0.0
C1402 C 0.01663 0.60617 0.15527 0.0
C1403 C 0.00566 0.62732 0.15583 0.0
C1404 C 1.00173 0.64001 0.13795 0.0
C1405 C 0.0132 0.60404 0.19169 0.0
C1406 C 0.00544 0.61342 0.20991 0.0
C1407 C 1.0021 0.62513 0.19225 0.0
C1408 C 0.99974 0.61057 0.246 0.0
C1409 C 0.01749 0.59155 0.21009 0.0
C1410 C 0.98999 0.60098 0.24906 0.0
C1411 C 0.98485 0.59772 0.283 0.0
C1412 C 0.9894 0.60397 0.31467 0.0
C1413 C 0.99902 0.61379 0.31143 0.0
C1414 C 0.00411 0.61711 0.27727 0.0
H1415 H 0.02586 0.58691 0.19573 0.0
H1416 H 0.02034 0.59344 0.23877 0.0
H1417 H 0.0092 0.58451 0.21019 0.0
H1418 H 0.98643 0.59592 0.22512 0.0
H1419 H 0.97744 0.59015 0.2844 0.0
H1420 H 0.1437 0.28851 0.78573 0.0
H1421 H 0.14063 0.28582 0.85137 0.0
H1422 H 0.13711 0.24406 0.83707 0.0
H1423 H 0.13997 0.24664 0.77162 0.0
H1424 H 0.12078 0.25461 0.89358 0.0
H1425 H 0.17297 0.27022 0.90358 0.0
H1426 H 0.16187 0.28156 0.88248 0.0
H1427 H 0.16539 0.26622 0.86071 0.0
C1428 C 0.14189 0.2788 0.79643 0.0
C1429 C 0.14231 0.26776 0.77356 0.0
C1430 C 0.14019 0.27728 0.83395 0.0
C1431 C 0.13893 0.26472 0.84906 0.0
C1432 C 0.13814 0.25384 0.82593 0.0
H1433 H 0.16613 0.22621 0.03632 0.0
H1434 H 0.1601 0.23488 0.97685 0.0
C1435 C 0.13982 0.25533 0.7885 0.0
C1436 C 0.14021 0.2626 0.88872 0.0
H1437 H 0.16297 0.26265 0.95678 0.0
C1438 C 0.12991 0.25657 0.90767 0.0
C1439 C 0.15222 0.26502 0.90678 0.0
C1440 C 0.16381 0.27102 0.88744 0.0
C1441 C 0.13144 0.25257 0.944 0.0
C1442 C 0.14356 0.25469 0.9616 0.0
C1443 C 0.15368 0.26111 0.94308 0.0
C1444 C 0.14646 0.24919 0.99791 0.0
C1445 C 0.12037 0.24552 0.96283 0.0
C1446 C 0.14074 0.25438 0.02943 0.0
C1447 C 0.1442 0.24947 0.06366 0.0
C1448 C 0.15344 0.23929 0.06679 0.0
C1449 C 0.15899 0.23404 0.03498 0.0
C1450 C 0.15557 0.23898 0.00093 0.0
H1451 H 0.11205 0.24349 0.94418 0.0
H1452 H 0.12391 0.23612 0.97436 0.0
H1453 H 0.11674 0.2516 0.98573 0.0
H1454 H 0.13379 0.26237 0.02758 0.0
H1455 H 0.13975 0.25373 0.08762 0.0
H1456 H 0.53327 0.59496 0.71632 0.0
H1457 H 0.52481 0.6013 0.77591 0.0
H1458 H 0.49057 0.61795 0.72538 0.0
H1459 H 0.49898 0.61172 0.66529 0.0
H1460 H 0.51432 0.62967 0.79869 0.0
H1461 H 0.47947 0.58763 0.80384 0.0
H1462 H 0.49418 0.58684 0.77669 0.0
H1463 H 0.48096 0.59725 0.76291 0.0
C1464 C 0.52397 0.60003 0.71774 0.0
C1465 C 0.51677 0.60276 0.68602 0.0
C1466 C 0.51919 0.60369 0.75181 0.0
C1467 C 0.50709 0.61006 0.75488 0.0
C1468 C 0.49994 0.61304 0.7234 0.0
H1469 H 0.46856 0.61242 0.96726 0.0
H1470 H 0.47178 0.61696 0.90247 0.0
C1471 C 0.50476 0.60946 0.68917 0.0
C1472 C 0.50179 0.61293 0.79138 0.0
H1473 H 0.48234 0.5998 0.85725 0.0
C1474 C 0.50717 0.6233 0.81142 0.0
C1475 C 0.49236 0.60468 0.8076 0.0
C1476 C 0.48635 0.59343 0.78688 0.0
C1477 C 0.50371 0.62532 0.84797 0.0
C1478 C 0.49496 0.6165 0.86504 0.0
C1479 C 0.48906 0.60657 0.84425 0.0
C1480 C 0.49295 0.61631 0.90504 0.0
C1481 C 0.50964 0.63677 0.86798 0.0
C1482 C 0.50377 0.61476 0.92821 0.0
C1483 C 0.50196 0.61226 0.96518 0.0
C1484 C 0.48929 0.61107 0.97972 0.0
C1485 C 0.47845 0.6133 0.95692 0.0
C1486 C 0.48028 0.61587 0.91986 0.0
H1487 H 0.51166 0.64503 0.84912 0.0
H1488 H 0.50312 0.64031 0.89007 0.0
H1489 H 0.51912 0.63374 0.8801 0.0
H1490 H 0.51363 0.6147 0.9174 0.0
H1491 H 0.51052 0.61055 0.98191 0.0
H1492 H 0.15798 0.78221 0.46594 0.0
H1493 H 0.15151 0.77371 0.52535 0.0
H1494 H 0.13551 0.73921 0.47449 0.0
H1495 H 0.14188 0.74767 0.41456 0.0
H1496 H 0.12343 0.76295 0.54805 0.0
H1497 H 0.1657 0.72837 0.55298 0.0
H1498 H 0.16632 0.74302 0.52555 0.0
H1499 H 0.15597 0.72969 0.5122 0.0
C1500 C 0.15302 0.77285 0.46724 0.0
C1501 C 0.15053 0.76558 0.43549 0.0
C1502 C 0.14927 0.76804 0.50121 0.0
C1503 C 0.14307 0.75586 0.50415 0.0
C1504 C 0.1403 0.74865 0.47262 0.0
H1505 H 0.14174 0.71783 0.71725 0.0
H1506 H 0.13679 0.72075 0.65258 0.0
C1507 C 0.14395 0.7535 0.43848 0.0
C1508 C 0.14022 0.7505 0.54062 0.0
H1509 H 0.15362 0.73124 0.60651 0.0
C1510 C 0.12986 0.75584 0.56076 0.0
C1511 C 0.14856 0.74114 0.5568 0.0
C1512 C 0.15981 0.73517 0.536 0.0
C1513 C 0.12795 0.75244 0.59737 0.0
C1514 C 0.13688 0.74378 0.61442 0.0
C1515 C 0.14678 0.73789 0.59353 0.0
C1516 C 0.13724 0.74194 0.65447 0.0
C1517 C 0.11652 0.75833 0.61752 0.0
C1518 C 0.13882 0.75285 0.67724 0.0
C1519 C 0.14156 0.75122 0.71414 0.0
C1520 C 0.14297 0.73862 0.729 0.0
C1521 C 0.1407 0.72767 0.70665 0.0
C1522 C 0.13789 0.72933 0.66966 0.0
H1523 H 0.10818 0.7602 0.5988 0.0
H1524 H 0.11312 0.75187 0.6399 0.0
H1525 H 0.11951 0.76789 0.62924 0.0
H1526 H 0.13873 0.76267 0.66612 0.0
H1527 H 0.14329 0.75987 0.73052 0.0
H1528 H 0.00296 0.38949 0.16347 0.0
H1529 H 0.01175 0.38383 0.22359 0.0
H1530 H 0.98381 0.40973 0.27401 0.0
H1531 H 0.97496 0.41544 0.21449 0.0
H1532 H 0.01216 0.4131 0.29252 0.0
H1533 H 0.99292 0.36235 0.30906 0.0
H1534 H 1.00048 0.36696 0.26663 0.0
H1535 H 0.98511 0.37408 0.27932 0.0
C1536 C 0.99862 0.3939 0.18738 0.0
C1537 C 0.98827 0.40295 0.18414 0.0
C1538 C 0.00363 0.39061 0.22166 0.0
C1539 C 0.99837 0.39633 0.25309 0.0
C1540 C 0.98796 0.4052 0.24998 0.0
H1541 H 0.99653 0.39215 0.47973 0.0
H1542 H 0.99371 0.38874 0.41454 0.0
C1543 C 0.98293 0.40845 0.2159 0.0
C1544 C 0.00402 0.39372 0.28937 0.0
H1545 H 0.00394 0.37164 0.3591 0.0
C1546 C 0.01059 0.40396 0.30695 0.0
C1547 C 1.00186 0.3818 0.30791 0.0
C1548 C 0.99467 0.37062 0.29003 0.0
C1549 C 0.01462 0.40283 0.34325 0.0
C1550 C 0.01213 0.39104 0.36228 0.0
C1551 C 0.00595 0.3806 0.34427 0.0
C1552 C 0.01436 0.39014 0.40199 0.0
C1553 C 0.0208 0.41454 0.36155 0.0
C1554 C 0.02698 0.39137 0.41674 0.0
C1555 C 0.02864 0.39337 0.45411 0.0
C1556 C 0.01768 0.39415 0.47718 0.0
C1557 C 0.00517 0.39173 0.46267 0.0
C1558 C 0.00353 0.38973 0.42539 0.0
H1559 H 0.02008 0.42354 0.34469 0.0
H1560 H 0.01608 0.41646 0.38822 0.0
H1561 H 0.03133 0.41252 0.36653 0.0
H1562 H 0.03548 0.39152 0.39911 0.0
H1563 H 0.03841 0.39513 0.46448 0.0
H1564 H 0.36154 0.2883 0.21324 0.0
H1565 H 0.36468 0.28585 0.14753 0.0
H1566 H 0.3679 0.24402 0.16058 0.0
H1567 H 0.36497 0.24635 0.22607 0.0
H1568 H 0.38453 0.25469 0.10499 0.0
H1569 H 0.33248 0.27067 0.09367 0.0
H1570 H 0.3436 0.28183 0.11548 0.0
H1571 H 0.33983 0.26645 0.13669 0.0
C1572 C 0.36329 0.27861 0.20224 0.0
C1573 C 0.36278 0.26749 0.22477 0.0
C1574 C 0.36502 0.27724 0.16468 0.0
C1575 C 0.36625 0.26473 0.1492 0.0
C1576 C 0.36691 0.25375 0.172 0.0
H1577 H 0.33988 0.22581 0.96263 0.0
H1578 H 0.34583 0.23478 0.0218 0.0
C1579 C 0.36519 0.2551 0.20945 0.0
C1580 C 0.36512 0.26276 0.10943 0.0
H1581 H 0.34259 0.26299 0.04078 0.0
C1582 C 0.37546 0.25673 0.09067 0.0
C1583 C 0.35319 0.26529 0.09106 0.0
C1584 C 0.34158 0.27133 0.11015 0.0
C1585 C 0.37404 0.25277 0.05426 0.0
C1586 C 0.36198 0.25494 0.0364 0.0
C1587 C 0.35183 0.26142 0.05469 0.0
C1588 C 0.35912 0.24932 0.00023 0.0
C1589 C 0.38512 0.2457 0.03563 0.0
C1590 C 0.36467 0.25455 0.96852 0.0
C1591 C 0.36125 0.24947 0.93443 0.0
C1592 C 0.35222 0.23908 0.93166 0.0
C1593 C 0.34685 0.2338 0.96367 0.0
C1594 C 0.35023 0.23891 0.99756 0.0
H1595 H 0.39352 0.24391 0.0542 0.0
H1596 H 0.38163 0.23616 0.02482 0.0
H1597 H 0.38861 0.25161 0.01223 0.0
H1598 H 0.37147 0.26268 0.97011 0.0
H1599 H 0.36556 0.25375 0.91031 0.0
H1600 H 0.99938 0.06204 0.03641 0.0
H1601 H 0.99144 0.0408 0.01532 0.0
H1602 H 0.02963 0.02405 0.03371 0.0
H1603 H 0.03767 0.04528 0.05528 0.0
H1604 H 1.00039 0.02534 0.95739 0.0
H1605 H 0.00506 0.99921 0.08915 0.0
H1606 H 0.00567 0.01684 0.08568 0.0
H1607 H 0.01978 0.00718 0.07409 0.0
C1608 C 0.00612 0.05385 0.03612 0.0
C1609 C 0.01917 0.05538 0.04779 0.0
C1610 C 1.00155 0.04171 0.02396 0.0
C1611 C 0.00988 0.03079 0.02342 0.0
C1612 C 0.02296 0.03229 0.03456 0.0
H1613 H 0.00306 0.94981 0.96053 0.0
H1614 H 0.00978 0.97144 0.98132 0.0
C1615 C 0.02756 0.04445 0.0467 0.0
C1616 C 0.00487 0.01791 0.01074 0.0
H1617 H 0.99981 0.98629 0.03758 0.0
C1618 C 1.00019 0.01681 0.97495 0.0
C1619 C 0.00458 0.00681 0.03374 0.0
C1620 C 0.00892 0.00753 0.07291 0.0
C1621 C 0.99557 0.00481 0.96122 0.0
C1622 C 0.99539 0.99368 0.98414 0.0
C1623 C 0.99995 0.99483 0.02004 0.0
C1624 C 0.99104 0.9806 0.97105 0.0
C1625 C 0.99129 0.00407 0.92199 0.0
C1626 C 0.9782 0.97849 0.95859 0.0
C1627 C 0.97429 0.96606 0.94649 0.0
C1628 C 0.98315 0.9555 0.94686 0.0
C1629 C 0.99596 0.95768 0.95973 0.0
C1630 C 0.99984 0.97006 0.97172 0.0
H1631 H 0.99491 0.01255 0.90594 0.0
H1632 H 0.99484 0.99491 0.90907 0.0
H1633 H 0.98043 0.00409 0.92073 0.0
H1634 H 0.97116 0.98642 0.9585 0.0
H1635 H 0.96434 0.96472 0.93697 0.0
H1636 H 0.19641 0.74993 0.2899 0.0
H1637 H 0.21815 0.74328 0.26986 0.0
H1638 H 0.233 0.78184 0.29398 0.0
H1639 H 0.21118 0.7886 0.31469 0.0
H1640 H 0.23319 0.75356 0.21413 0.0
H1641 H 0.25898 0.75786 0.34664 0.0
H1642 H 0.24135 0.75786 0.34302 0.0
H1643 H 0.25051 0.77238 0.33223 0.0
C1644 C 0.20428 0.75703 0.29117 0.0
C1645 C 0.20202 0.76981 0.30411 0.0
C1646 C 0.21672 0.75319 0.27961 0.0
C1647 C 0.22725 0.76199 0.28081 0.0
C1648 C 0.22507 0.77479 0.29346 0.0
H1649 H 0.30889 0.7551 0.21771 0.0
H1650 H 0.28746 0.76242 0.23884 0.0
C1651 C 0.21257 0.77867 0.30511 0.0
C1652 C 0.24038 0.75772 0.26794 0.0
H1653 H 0.272 0.75281 0.29527 0.0
C1654 C 0.24167 0.75337 0.23188 0.0
C1655 C 0.25144 0.75747 0.29114 0.0
C1656 C 0.25054 0.76153 0.33051 0.0
C1657 C 0.25374 0.74893 0.21826 0.0
C1658 C 0.26478 0.7486 0.24151 0.0
C1659 C 0.26351 0.75303 0.27751 0.0
C1660 C 0.27779 0.74393 0.22882 0.0
C1661 C 0.25462 0.74487 0.17888 0.0
C1662 C 0.27955 0.73101 0.21655 0.0
C1663 C 0.29184 0.72676 0.20433 0.0
C1664 C 0.30262 0.73535 0.20432 0.0
C1665 C 0.30083 0.74822 0.21715 0.0
C1666 C 0.28857 0.75244 0.22934 0.0
H1667 H 0.2463 0.74876 0.16266 0.0
H1668 H 0.26392 0.74832 0.1665 0.0
H1669 H 0.25438 0.73403 0.17711 0.0
H1670 H 0.27142 0.7242 0.21657 0.0
H1671 H 0.29287 0.71678 0.19486 0.0
H1672 H 0.50154 0.05938 0.47036 0.0
H1673 H 0.49412 0.03796 0.4911 0.0
H1674 H 0.5319 0.02151 0.4657 0.0
H1675 H 0.53945 0.04299 0.44439 0.0
H1676 H 0.51056 0.00671 0.4394 0.0
H1677 H 0.50396 0.01897 0.58523 0.0
H1678 H 0.49571 0.02993 0.55467 0.0
H1679 H 0.5133 0.02915 0.55458 0.0
C1680 C 0.50834 0.05126 0.46932 0.0
C1681 C 0.52113 0.05295 0.45576 0.0
C1682 C 0.50408 0.03901 0.48142 0.0
C1683 C 0.51251 0.02818 0.48049 0.0
C1684 C 0.52527 0.02977 0.46688 0.0
H1685 H 0.50401 0.94586 0.53382 0.0
H1686 H 0.51157 0.9673 0.51364 0.0
C1687 C 0.52957 0.04206 0.45477 0.0
C1688 C 0.50779 0.01512 0.49252 0.0
H1689 H 0.49521 0.99861 0.56542 0.0
C1690 C 0.50729 0.0049 0.46701 0.0
C1691 C 0.50344 0.01281 0.5285 0.0
C1692 C 0.50422 0.02325 0.55746 0.0
C1693 C 0.50234 0.99251 0.47633 0.0
C1694 C 0.49798 0.9902 0.51231 0.0
C1695 C 0.49849 1.00041 0.53782 0.0
C1696 C 0.49322 0.97715 0.52428 0.0
C1697 C 0.50155 0.98208 0.44735 0.0
C1698 C 0.48045 0.97559 0.53779 0.0
C1699 C 0.47607 0.96329 0.5496 0.0
C1700 C 0.48444 0.95236 0.54838 0.0
C1701 C 0.49725 0.95402 0.53502 0.0
C1702 C 0.5016 0.96628 0.52323 0.0
H1703 H 0.50182 0.98636 0.41958 0.0
H1704 H 0.51004 0.97538 0.45014 0.0
H1705 H 0.49245 0.9762 0.4502 0.0
H1706 H 0.47385 0.98388 0.53906 0.0
H1707 H 0.46616 0.96238 0.55983 0.0
H1708 H 0.30818 0.25356 0.78199 0.0
H1709 H 0.28654 0.26061 0.76217 0.0
H1710 H 0.27072 0.22279 0.79019 0.0
H1711 H 0.29245 0.21563 0.8107 0.0
H1712 H 0.27066 0.2503 0.70824 0.0
H1713 H 0.24604 0.24811 0.84279 0.0
H1714 H 0.26362 0.24751 0.83794 0.0
H1715 H 0.25391 0.23319 0.82898 0.0
C1716 C 0.30013 0.2467 0.78412 0.0
C1717 C 0.30208 0.23402 0.79817 0.0
C1718 C 0.28774 0.25077 0.77268 0.0
C1719 C 0.27697 0.24231 0.77512 0.0
C1720 C 0.27885 0.22958 0.78871 0.0
H1721 H 0.1951 0.25042 0.71734 0.0
H1722 H 0.21661 0.24298 0.73738 0.0
C1723 C 0.29129 0.22547 0.80023 0.0
C1724 C 0.26386 0.24687 0.76283 0.0
H1725 H 0.23268 0.25297 0.79195 0.0
C1726 C 0.26236 0.25091 0.72655 0.0
C1727 C 0.25305 0.24769 0.78677 0.0
C1728 C 0.2542 0.24401 0.82638 0.0
C1729 C 0.2503 0.25557 0.71343 0.0
C1730 C 0.2395 0.25643 0.7374 0.0
C1731 C 0.24098 0.25234 0.77364 0.0
C1732 C 0.22646 0.2612 0.72519 0.0
C1733 C 0.24915 0.25927 0.67383 0.0
C1734 C 0.22478 0.27401 0.71202 0.0
C1735 C 0.21244 0.27834 0.70042 0.0
C1736 C 0.20153 0.26994 0.70193 0.0
C1737 C 0.20326 0.25717 0.71561 0.0
C1738 C 0.21557 0.25288 0.72718 0.0
H1739 H 0.25726 0.25509 0.65738 0.0
H1740 H 0.23969 0.25587 0.66232 0.0
H1741 H 0.24954 0.27009 0.67126 0.0
H1742 H 0.23301 0.28069 0.71089 0.0
H1743 H 0.21145 0.28824 0.69024 0.0
H1744 H 1.00042 0.94808 0.45816 0.0
H1745 H 0.99401 0.96981 0.47882 0.0
H1746 H 0.03287 0.98422 0.45634 0.0
H1747 H 0.0394 0.9624 0.43499 0.0
H1748 H 0.00431 0.98434 0.53547 0.0
H1749 H 0.00947 0.01089 0.40435 0.0
H1750 H 0.00922 0.99324 0.40708 0.0
H1751 H 0.0238 1.00213 0.41892 0.0
C1752 C 0.00764 0.95585 0.45736 0.0
C1753 C 0.02044 0.95346 0.44472 0.0
C1754 C 0.00394 0.96829 0.46928 0.0
C1755 C 0.01289 0.9787 0.46876 0.0
C1756 C 0.02571 0.9764 0.45635 0.0
H1757 H 0.00536 0.06016 0.53537 0.0
H1758 H 0.01313 0.03892 0.51382 0.0
C1759 C 0.02945 0.9639 0.44433 0.0
C1760 C 0.00876 0.99181 0.48213 0.0
H1761 H 0.0041 0.02359 0.45603 0.0
C1762 C 0.00426 0.99292 0.51809 0.0
C1763 C 0.0087 0.003 0.45944 0.0
C1764 C 0.01294 1.0023 0.4202 0.0
C1765 C 0.99978 0.00492 0.53206 0.0
C1766 C 0.99958 0.01608 0.50927 0.0
C1767 C 0.00422 0.01501 0.47343 0.0
C1768 C 0.99468 0.02898 0.5222 0.0
C1769 C 0.99551 0.00559 0.57129 0.0
C1770 C 0.98164 0.03052 0.53365 0.0
C1771 C 0.97713 0.04268 0.54608 0.0
C1772 C 0.98558 0.05357 0.54713 0.0
C1773 C 0.99858 0.052 0.53512 0.0
C1774 C 0.00306 0.03986 0.5227 0.0
H1775 H 0.99938 0.99723 0.58736 0.0
H1776 H 0.99881 0.01486 0.58416 0.0
H1777 H 0.98466 0.00525 0.57259 0.0
H1778 H 0.97492 0.02231 0.53284 0.0
H1779 H 0.96705 0.04354 0.55489 0.0
H1780 H 0.21249 0.71529 0.81058 0.0
H1781 H 0.23427 0.72239 0.79024 0.0
H1782 H 0.21868 0.76038 0.76311 0.0
H1783 H 0.19705 0.7535 0.78353 0.0
H1784 H 0.24216 0.73191 0.72117 0.0
H1785 H 0.24992 0.7693 0.82848 0.0
H1786 H 0.23741 0.75686 0.83174 0.0
H1787 H 0.2348 0.77114 0.80409 0.0
C1788 C 0.21371 0.72517 0.80037 0.0
C1789 C 0.20301 0.73384 0.79897 0.0
C1790 C 0.22616 0.7292 0.78874 0.0
C1791 C 0.22814 0.74199 0.77577 0.0
C1792 C 0.21745 0.75057 0.77377 0.0
H1793 H 0.29388 0.78683 0.69045 0.0
H1794 H 0.27232 0.77917 0.71075 0.0
C1795 C 0.20505 0.74657 0.78531 0.0
C1796 C 0.24131 0.74639 0.76362 0.0
H1797 H 0.26496 0.76942 0.77913 0.0
C1798 C 0.2472 0.74004 0.73399 0.0
C1799 C 0.24783 0.75706 0.78027 0.0
C1800 C 0.24225 0.76392 0.81312 0.0
C1801 C 0.25931 0.74426 0.72005 0.0
C1802 C 0.26581 0.75496 0.73662 0.0
C1803 C 0.25994 0.76127 0.76634 0.0
C1804 C 0.27885 0.75959 0.72401 0.0
C1805 C 0.26488 0.73741 0.68715 0.0
C1806 C 0.2897 0.75119 0.72522 0.0
C1807 C 0.302 0.75552 0.71365 0.0
C1808 C 0.30376 0.76839 0.7008 0.0
C1809 C 0.29288 0.77685 0.70003 0.0
C1810 C 0.28055 0.77249 0.71165 0.0
H1811 H 0.25722 0.73196 0.67193 0.0
H1812 H 0.26961 0.74451 0.66841 0.0
H1813 H 0.27241 0.73026 0.69609 0.0
H1814 H 0.2887 0.74129 0.73542 0.0
H1815 H 0.31014 0.74874 0.71491 0.0
H1816 H 0.538 0.96199 0.05814 0.0
H1817 H 0.53071 0.98343 0.03585 0.0
H1818 H 0.49263 0.96737 0.01197 0.0
H1819 H 0.4997 0.94605 0.03444 0.0
H1820 H 0.52113 0.9903 0.96672 0.0
H1821 H 0.48371 0.99957 0.07304 0.0
H1822 H 0.49608 0.98705 0.07759 0.0
H1823 H 0.48181 0.98418 0.05005 0.0
C1824 C 0.52805 0.96303 0.04829 0.0
C1825 C 0.51942 0.95228 0.04835 0.0
C1826 C 0.52391 0.97529 0.03553 0.0
C1827 C 0.51105 0.97706 0.02282 0.0
C1828 C 0.50249 0.96632 0.0224 0.0
H1829 H 0.46736 0.04321 0.93295 0.0
H1830 H 0.47439 0.02147 0.95366 0.0
C1831 C 0.5066 0.9541 0.03511 0.0
C1832 C 0.50663 0.99004 0.00918 0.0
H1833 H 0.48388 0.01413 0.02267 0.0
C1834 C 0.51303 0.99554 0.97907 0.0
C1835 C 0.496 0.99684 0.02517 0.0
C1836 C 0.48906 0.99169 0.05845 0.0
C1837 C 0.50899 0.00757 0.96419 0.0
C1838 C 0.49839 0.01439 0.98024 0.0
C1839 C 0.49196 0.00886 0.01028 0.0
C1840 C 0.49414 0.02748 0.96708 0.0
C1841 C 0.51595 0.01274 0.93097 0.0
C1842 C 0.50283 0.0381 0.96816 0.0
C1843 C 0.49886 0.05049 0.95639 0.0
C1844 C 0.48605 0.0526 0.94342 0.0
C1845 C 0.4773 0.04195 0.9426 0.0
C1846 C 0.4813 0.02952 0.95447 0.0
H1847 H 0.52119 0.00483 0.91617 0.0
H1848 H 0.50896 0.01752 0.91199 0.0
H1849 H 0.5233 0.02013 0.93948 0.0
H1850 H 0.51268 0.03685 0.97852 0.0
H1851 H 0.50586 0.05845 0.95768 0.0
H1852 H 0.19682 0.25518 0.21813 0.0
H1853 H 0.21835 0.26239 0.23863 0.0
H1854 H 0.23443 0.22453 0.21233 0.0
H1855 H 0.21285 0.21721 0.19118 0.0
H1856 H 0.23416 0.25236 0.2934 0.0
H1857 H 0.25915 0.24975 0.15951 0.0
H1858 H 0.24156 0.24912 0.16401 0.0
H1859 H 0.25127 0.23483 0.17331 0.0
C1860 C 0.20491 0.24835 0.21653 0.0
C1861 C 0.20308 0.23561 0.20275 0.0
C1862 C 0.21723 0.25251 0.22837 0.0
C1863 C 0.22805 0.24408 0.22657 0.0
C1864 C 0.22627 0.23129 0.21331 0.0
H1865 H 0.30973 0.25074 0.28502 0.0
H1866 H 0.28801 0.2439 0.26522 0.0
C1867 C 0.21391 0.2271 0.20142 0.0
C1868 C 0.24111 0.24871 0.23907 0.0
H1869 H 0.27247 0.25435 0.21071 0.0
C1870 C 0.24253 0.25284 0.2753 0.0
C1871 C 0.25201 0.24938 0.2154 0.0
C1872 C 0.25095 0.24565 0.1758 0.0
C1873 C 0.25462 0.25735 0.28871 0.0
C1874 C 0.26553 0.25797 0.26506 0.0
C1875 C 0.26409 0.25389 0.2288 0.0
C1876 C 0.27866 0.26236 0.27765 0.0
C1877 C 0.25568 0.26109 0.32829 0.0
C1878 C 0.28069 0.2751 0.29102 0.0
C1879 C 0.29318 0.27909 0.30253 0.0
C1880 C 0.30387 0.27041 0.30067 0.0
C1881 C 0.30176 0.2577 0.28698 0.0
C1882 C 0.28933 0.25375 0.27554 0.0
H1883 H 0.2474 0.25714 0.34454 0.0
H1884 H 0.26501 0.25747 0.34016 0.0
H1885 H 0.25555 0.27192 0.33072 0.0
H1886 H 0.27265 0.282 0.29225 0.0
H1887 H 0.29446 0.28896 0.31272 0.0
H1888 H 0.79345 0.21679 0.69001 0.0
H1889 H 0.77185 0.22419 0.71079 0.0
H1890 H 0.7877 0.26247 0.73332 0.0
H1891 H 0.80918 0.25527 0.71236 0.0
H1892 H 0.76455 0.2343 0.77904 0.0
H1893 H 0.75587 0.27084 0.67002 0.0
H1894 H 0.76842 0.25845 0.66682 0.0
H1895 H 0.77113 0.27294 0.69356 0.0
C1896 C 0.79233 0.2268 0.69925 0.0
C1897 C 0.80306 0.23544 0.69926 0.0
C1898 C 0.77998 0.23101 0.71114 0.0
C1899 C 0.77811 0.24395 0.72301 0.0
C1900 C 0.78883 0.25253 0.72351 0.0
H1901 H 0.71214 0.28859 0.80901 0.0
H1902 H 0.73374 0.28122 0.78817 0.0
C1903 C 0.80115 0.24835 0.71168 0.0
C1904 C 0.76504 0.24846 0.73572 0.0
H1905 H 0.74107 0.27113 0.71988 0.0
C1906 C 0.75937 0.24229 0.76598 0.0
C1907 C 0.75833 0.25895 0.71878 0.0
C1908 C 0.76367 0.26562 0.68529 0.0
C1909 C 0.74729 0.24648 0.78015 0.0
C1910 C 0.74058 0.25697 0.76319 0.0
C1911 C 0.74625 0.26313 0.73294 0.0
C1912 C 0.72751 0.26146 0.77589 0.0
C1913 C 0.74195 0.23981 0.81363 0.0
C1914 C 0.71679 0.25287 0.77536 0.0
C1915 C 0.70448 0.25702 0.78722 0.0
C1916 C 0.70255 0.26992 0.7997 0.0
C1917 C 0.71327 0.27858 0.79972 0.0
C1918 C 0.72562 0.2744 0.7878 0.0
H1919 H 0.74976 0.2346 0.82891 0.0
H1920 H 0.7372 0.24698 0.83209 0.0
H1921 H 0.7345 0.23248 0.80536 0.0
H1922 H 0.71793 0.24293 0.76552 0.0
H1923 H 0.69645 0.25009 0.78653 0.0
H1924 H 0.70994 0.78694 0.19151 0.0
H1925 H 0.73142 0.77917 0.21226 0.0
H1926 H 0.71476 0.74138 0.23661 0.0
H1927 H 0.69341 0.74893 0.21561 0.0
H1928 H 0.73869 0.76943 0.28049 0.0
H1929 H 0.74623 0.73178 0.17373 0.0
H1930 H 0.73388 0.74437 0.17007 0.0
H1931 H 0.73103 0.73016 0.19787 0.0
C1932 C 0.71086 0.77696 0.20113 0.0
C1933 C 0.69994 0.76855 0.20162 0.0
C1934 C 0.72314 0.77254 0.213 0.0
C1935 C 0.72475 0.75962 0.22538 0.0
C1936 C 0.71384 0.75128 0.22638 0.0
H1937 H 0.79114 0.71526 0.31232 0.0
H1938 H 0.76928 0.72234 0.29247 0.0
C1939 C 0.7016 0.75567 0.21452 0.0
C1940 C 0.73774 0.75491 0.23815 0.0
H1941 H 0.76127 0.73171 0.22301 0.0
C1942 C 0.74365 0.76123 0.26781 0.0
C1943 C 0.74418 0.74414 0.22174 0.0
C1944 C 0.73858 0.73728 0.18888 0.0
C1945 C 0.75574 0.75698 0.28178 0.0
C1946 C 0.76221 0.74626 0.26527 0.0
C1947 C 0.75627 0.73988 0.23574 0.0
C1948 C 0.7754 0.74188 0.2773 0.0
C1949 C 0.7614 0.76389 0.31449 0.0
C1950 C 0.7861 0.75042 0.27477 0.0
C1951 C 0.79854 0.74643 0.286 0.0
C1952 C 0.80061 0.73374 0.29988 0.0
C1953 C 0.78989 0.7251 0.30191 0.0
C1954 C 0.7774 0.72913 0.29057 0.0
H1955 H 0.75376 0.76933 0.32981 0.0
H1956 H 0.76621 0.75684 0.33319 0.0
H1957 H 0.76887 0.77106 0.30531 0.0
H1958 H 0.78485 0.7602 0.26389 0.0
H1959 H 0.80654 0.75334 0.28375 0.0
H1960 H 0.71168 0.21669 0.30783 0.0
H1961 H 0.73331 0.22401 0.28706 0.0
H1962 H 0.71782 0.2626 0.26684 0.0
H1963 H 0.69631 0.25549 0.28781 0.0
H1964 H 0.74056 0.23454 0.21921 0.0
H1965 H 0.74987 0.27013 0.33026 0.0
H1966 H 0.73719 0.25784 0.33293 0.0
H1967 H 0.73458 0.27256 0.3071 0.0
C1968 C 0.71289 0.22675 0.29909 0.0
C1969 C 0.70226 0.23551 0.29974 0.0
C1970 C 0.72525 0.23091 0.2872 0.0
C1971 C 0.72723 0.24391 0.27601 0.0
C1972 C 0.7166 0.25261 0.27613 0.0
H1973 H 0.79341 0.28849 0.19146 0.0
H1974 H 0.77179 0.28116 0.21227 0.0
C1975 C 0.70427 0.24848 0.28797 0.0
C1976 C 0.74032 0.24836 0.26337 0.0
H1977 H 0.76457 0.27063 0.28021 0.0
C1978 C 0.74585 0.24237 0.23266 0.0
C1979 C 0.74718 0.25864 0.28085 0.0
C1980 C 0.74198 0.2651 0.31481 0.0
C1981 C 0.75795 0.24653 0.21857 0.0
C1982 C 0.76481 0.25681 0.23605 0.0
C1983 C 0.75928 0.2628 0.26676 0.0
C1984 C 0.77789 0.26127 0.22339 0.0
C1985 C 0.76316 0.24006 0.18462 0.0
C1986 C 0.78853 0.25258 0.22328 0.0
C1987 C 0.80085 0.25672 0.21143 0.0
C1988 C 0.80286 0.26968 0.1996 0.0
C1989 C 0.79221 0.27844 0.20024 0.0
C1990 C 0.77985 0.27427 0.21214 0.0
H1991 H 0.75527 0.23502 0.16919 0.0
H1992 H 0.76793 0.24733 0.16648 0.0
H1993 H 0.77057 0.23262 0.19233 0.0
H1994 H 0.78732 0.24259 0.23261 0.0
H1995 H 0.80882 0.24972 0.21161 0.0
H1996 H 0.71289 0.71693 0.69593 0.0
H1997 H 0.73431 0.72457 0.71743 0.0
H1998 H 0.71751 0.76205 0.74453 0.0
H1999 H 0.69613 0.75452 0.72357 0.0
H2000 H 0.74881 0.74621 0.69173 0.0
H2001 H 0.73681 0.75194 0.83809 0.0
H2002 H 0.72666 0.74265 0.80724 0.0
H2003 H 0.72578 0.76023 0.8078 0.0
C2004 C 0.71373 0.72676 0.70672 0.0
C2005 C 0.70275 0.73508 0.7081 0.0
C2006 C 0.72598 0.73112 0.71895 0.0
C2007 C 0.72747 0.74382 0.73308 0.0
C2008 C 0.71655 0.75213 0.73444 0.0
H2009 H 0.79465 0.78851 0.81412 0.0
H2010 H 0.77276 0.78168 0.79393 0.0
C2011 C 0.70433 0.74781 0.7222 0.0
C2012 C 0.74052 0.74858 0.74513 0.0
H2013 H 0.75728 0.76044 0.8186 0.0
C2014 C 0.75068 0.74926 0.71951 0.0
C2015 C 0.74292 0.75267 0.78132 0.0
C2016 C 0.73251 0.75175 0.81033 0.0
C2017 C 0.76313 0.75403 0.72897 0.0
C2018 C 0.76557 0.75801 0.76523 0.0
C2019 C 0.75538 0.75743 0.79081 0.0
C2020 C 0.77878 0.76225 0.77744 0.0
C2021 C 0.77352 0.75497 0.69989 0.0
C2022 C 0.78937 0.75355 0.77539 0.0
C2023 C 0.80183 0.7574 0.78683 0.0
C2024 C 0.80401 0.77005 0.80087 0.0
C2025 C 0.79334 0.77873 0.80335 0.0
C2026 C 0.78083 0.77484 0.79186 0.0
H2027 H 0.76915 0.75516 0.67221 0.0
H2028 H 0.77961 0.76388 0.70353 0.0
H2029 H 0.78002 0.74629 0.70164 0.0
H2030 H 0.78798 0.7437 0.76512 0.0
H2031 H 0.80976 0.7504 0.78467 0.0
H2032 H 0.54035 0.54303 0.56208 0.0
H2033 H 0.53381 0.52134 0.53961 0.0
H2034 H 0.49517 0.53607 0.51602 0.0
H2035 H 0.50157 0.55765 0.53783 0.0
H2036 H 0.51337 0.50485 0.56362 0.0
H2037 H 0.50592 0.51926 0.41975 0.0
H2038 H 0.51471 0.5294 0.45174 0.0
H2039 H 0.49709 0.52931 0.45139 0.0
C2040 C 0.53047 0.54166 0.552 0.0
C2041 C 0.52152 0.55214 0.5516 0.0
C2042 C 0.52676 0.52926 0.53919 0.0
C2043 C 0.51407 0.52715 0.52551 0.0
C2044 C 0.50509 0.53753 0.52564 0.0
H2045 H 0.46862 0.46198 0.4412 0.0
H2046 H 0.47648 0.48315 0.46383 0.0
C2047 C 0.50877 0.54988 0.53838 0.0
C2048 C 0.51002 0.51406 0.51181 0.0
H2049 H 0.49757 0.49841 0.43725 0.0
C2050 C 0.51003 0.5034 0.5359 0.0
C2051 C 0.50561 0.5122 0.47566 0.0
C2052 C 0.50593 0.52312 0.44801 0.0
C2053 C 0.50542 0.49102 0.52512 0.0
C2054 C 0.50086 0.4892 0.4891 0.0
C2055 C 0.50098 0.49983 0.46491 0.0
C2056 C 0.49607 0.47632 0.47582 0.0
C2057 C 0.50513 0.48007 0.55266 0.0
C2058 C 0.50451 0.46549 0.47464 0.0
C2059 C 0.50007 0.4534 0.46171 0.0
C2060 C 0.48708 0.45187 0.4495 0.0
C2061 C 0.47866 0.46278 0.45047 0.0
C2062 C 0.48314 0.47489 0.46336 0.0
H2063 H 0.50576 0.48383 0.58096 0.0
H2064 H 0.49604 0.47417 0.54991 0.0
H2065 H 0.51362 0.4735 0.548 0.0
H2066 H 0.51459 0.46642 0.48341 0.0
H2067 H 0.50686 0.44526 0.46125 0.0
H2068 H 0.00397 0.4471 0.03604 0.0
H2069 H 0.01085 0.46878 0.01599 0.0
H2070 H 0.97235 0.48395 0.03921 0.0
H2071 H 0.96535 0.46221 0.05992 0.0
H2072 H 1.00088 0.48407 0.96016 0.0
H2073 H 0.99643 0.50953 0.09308 0.0
H2074 H 0.99629 0.49191 0.0891 0.0
H2075 H 0.98187 0.50122 0.07825 0.0
C2076 C 0.99693 0.45502 0.03708 0.0
C2077 C 0.98409 0.45289 0.04982 0.0
C2078 C 1.0009 0.46743 0.02552 0.0
C2079 C 0.99219 0.47803 0.02653 0.0
C2080 C 0.97932 0.47596 0.03885 0.0
H2081 H 0.99951 0.55975 0.96531 0.0
H2082 H 0.99212 0.53826 0.9858 0.0
C2083 C 0.97531 0.46351 0.05048 0.0
C2084 C 0.99662 0.49115 0.01401 0.0
H2085 H 1.00162 0.52266 0.04203 0.0
C2086 C 1.00107 0.49251 0.97807 0.0
C2087 C 0.99687 0.50214 0.03743 0.0
C2088 C 0.99272 0.50117 0.07672 0.0
C2089 C 0.0056 0.50459 0.96476 0.0
C2090 C 0.00591 0.51557 0.98822 0.0
C2091 C 1.0014 0.51423 0.02412 0.0
C2092 C 0.01062 0.5286 0.97585 0.0
C2093 C 0.00975 0.50555 0.92548 0.0
C2094 C 0.02356 0.53038 0.96384 0.0
C2095 C 0.02785 0.5427 0.95199 0.0
C2096 C 0.01928 0.55349 0.95211 0.0
C2097 C 0.00638 0.55167 0.96467 0.0
C2098 C 1.00212 0.53938 0.97649 0.0
H2099 H 0.00589 0.49728 0.90904 0.0
H2100 H 0.00635 0.51488 0.91319 0.0
H2101 H 0.0206 0.5053 0.92393 0.0
H2102 H 0.03037 0.52225 0.96378 0.0
H2103 H 0.03786 0.54376 0.94271 0.0
H2104 H 0.49926 0.44472 0.96438 0.0
H2105 H 0.49141 0.46604 0.98511 0.0
H2106 H 0.52962 0.48263 0.96613 0.0
H2107 H 0.53758 0.46133 0.94492 0.0
H2108 H 0.50038 0.48169 0.04252 0.0
H2109 H 0.50512 0.50732 0.91004 0.0
H2110 H 0.5057 0.48971 0.91402 0.0
H2111 H 0.51983 0.49939 0.92532 0.0
C2112 C 0.50602 0.45289 0.96449 0.0
C2113 C 0.51905 0.4513 0.95273 0.0
C2114 C 0.5015 0.46508 0.97643 0.0
C2115 C 0.50986 0.47597 0.97667 0.0
C2116 C 0.52293 0.47441 0.96551 0.0
H2117 H 0.50342 0.55716 0.03762 0.0
H2118 H 0.51003 0.53544 0.01732 0.0
C2119 C 0.52748 0.4622 0.95358 0.0
C2120 C 0.5049 0.48891 0.98898 0.0
H2121 H 0.49996 0.52046 0.96125 0.0
C2122 C 0.50022 0.49016 0.02473 0.0
C2123 C 0.50465 0.49993 0.96567 0.0
C2124 C 0.50898 0.49905 0.92652 0.0
C2125 C 0.49564 0.50222 0.03811 0.0
C2126 C 0.49551 0.51327 0.01489 0.0
C2127 C 0.50006 0.51198 0.97903 0.0
C2128 C 0.49123 0.52641 0.02761 0.0
C2129 C 0.49136 0.50312 0.0773 0.0
C2130 C 0.47838 0.52863 0.03989 0.0
C2131 C 0.47453 0.54112 0.05169 0.0
C2132 C 0.48346 0.55162 0.05121 0.0
C2133 C 0.49627 0.54933 0.0385 0.0
C2134 C 0.50008 0.5369 0.0268 0.0
H2135 H 0.49492 0.49467 0.09358 0.0
H2136 H 0.49497 0.5123 0.08999 0.0
H2137 H 0.4805 0.50318 0.07852 0.0
H2138 H 0.4713 0.52074 0.04009 0.0
H2139 H 0.46459 0.54253 0.0611 0.0
H2140 H 1.00173 0.44768 0.53213 0.0
H2141 H 0.99484 0.46924 0.51104 0.0
H2142 H 0.03274 0.485 0.53868 0.0
H2143 H 0.03983 0.46331 0.55957 0.0
H2144 H 0.99332 0.49244 0.55 0.0
H2145 H 0.02764 0.49731 0.43364 0.0
H2146 H 0.0247 0.48189 0.45617 0.0
H2147 H 0.03532 0.49385 0.47654 0.0
C2148 C 0.00867 0.45569 0.53365 0.0
C2149 C 0.02138 0.45372 0.5475 0.0
C2150 C 0.00468 0.46803 0.52158 0.0
C2151 C 0.0133 0.47871 0.52286 0.0
C2152 C 0.02599 0.47684 0.5368 0.0
H2153 H 0.00569 0.56063 0.46459 0.0
H2154 H 0.01291 0.53918 0.48584 0.0
C2155 C 0.03001 0.46445 0.54891 0.0
C2156 C 0.00881 0.4918 0.51033 0.0
H2157 H 0.01466 0.51584 0.44777 0.0
C2158 C 0.99796 0.49754 0.52759 0.0
C2159 C 0.01487 0.49845 0.48106 0.0
C2160 C 0.02621 0.49254 0.4605 0.0
C2161 C 0.99313 0.50983 0.51675 0.0
C2162 C 0.99916 0.51646 0.48741 0.0
C2163 C 0.01003 0.51073 0.47022 0.0
C2164 C 0.99453 0.52947 0.47458 0.0
C2165 C 0.9818 0.51573 0.53736 0.0
C2166 C 0.98179 0.53115 0.46083 0.0
C2167 C 0.97758 0.54346 0.44865 0.0
C2168 C 0.98607 0.55431 0.44979 0.0
C2169 C 0.99885 0.55253 0.46332 0.0
C2170 C 0.00303 0.54025 0.47547 0.0
H2171 H 0.98048 0.51106 0.5644 0.0
H2172 H 0.98322 0.52642 0.54132 0.0
H2173 H 0.97265 0.51426 0.52157 0.0
H2174 H 0.97514 0.52291 0.45921 0.0
H2175 H 0.96771 0.54445 0.43823 0.0
H2176 H 0.06487 0.12225 0.06763 0.0
H2177 H 0.08347 0.13682 0.07785 0.0
H2178 H 0.10343 0.1062 0.1366 0.0
H2179 H 0.08471 0.09163 0.12716 0.0
H2180 H 0.1036 0.12889 0.17402 0.0
H2181 H 0.1194 0.13855 0.03267 0.0
H2182 H 0.10234 0.14196 0.03932 0.0
H2183 H 0.10827 0.12545 0.04414 0.0
C2184 C 0.07331 0.11851 0.08215 0.0
C2185 C 0.07329 0.10574 0.0965 0.0
C2186 C 0.08398 0.12686 0.08786 0.0
C2187 C 0.09495 0.12258 0.10763 0.0
C2188 C 0.09511 0.10972 0.12116 0.0
H2189 H 0.16513 0.17159 0.12258 0.0
H2190 H 0.15035 0.15302 0.1134 0.0
C2191 C 0.08441 0.10138 0.11561 0.0
C2192 C 0.10581 0.13181 0.11632 0.0
H2193 H 0.12731 0.15342 0.07808 0.0
C2194 C 0.10888 0.13415 0.15301 0.0
C2195 C 0.11286 0.13856 0.08898 0.0
C2196 C 0.11065 0.13591 0.04908 0.0
C2197 C 0.11846 0.14335 0.1631 0.0
C2198 C 0.12498 0.15063 0.1358 0.0
C2199 C 0.12223 0.14796 0.09908 0.0
C2200 C 0.1344 0.16131 0.14455 0.0
C2201 C 0.12154 0.14512 0.20292 0.0
C2202 C 0.13045 0.17211 0.16553 0.0
C2203 C 0.13892 0.1827 0.1711 0.0
C2204 C 0.15148 0.1828 0.1554 0.0
C2205 C 0.15554 0.17183 0.13517 0.0
C2206 C 0.14708 0.16122 0.12977 0.0
H2207 H 0.11901 0.13622 0.21883 0.0
H2208 H 0.13207 0.14738 0.20721 0.0
H2209 H 0.11565 0.15336 0.21382 0.0
H2210 H 0.12062 0.17258 0.17655 0.0
H2211 H 0.13542 0.19103 0.18652 0.0
H2212 H 0.13375 0.81426 0.31593 0.0
H2213 H 0.11913 0.83289 0.32522 0.0
H2214 H 0.14902 0.85241 0.38798 0.0
H2215 H 0.16359 0.83363 0.37958 0.0
H2216 H 0.12614 0.85262 0.42309 0.0
H2217 H 0.11777 0.86893 0.2816 0.0
H2218 H 0.11412 0.85188 0.28743 0.0
H2219 H 0.13065 0.85763 0.29356 0.0
C2220 C 0.13732 0.82262 0.33111 0.0
C2221 C 0.14986 0.82245 0.34695 0.0
C2222 C 0.12895 0.83331 0.33629 0.0
C2223 C 0.133 0.84416 0.35696 0.0
C2224 C 0.14567 0.84418 0.37186 0.0
H2225 H 0.08398 0.91435 0.36962 0.0
H2226 H 0.10256 0.89953 0.3613 0.0
C2227 C 0.15401 0.83345 0.3669 0.0
C2228 C 0.1237 0.855 0.36526 0.0
H2229 H 0.10246 0.87666 0.32614 0.0
C2230 C 0.12107 0.85797 0.40185 0.0
C2231 C 0.1172 0.86215 0.33766 0.0
C2232 C 0.12017 0.86009 0.29788 0.0
C2233 C 0.11184 0.86757 0.41158 0.0
C2234 C 0.10479 0.87418 0.38397 0.0
C2235 C 0.10774 0.87151 0.34738 0.0
C2236 C 0.09408 0.88363 0.39227 0.0
C2237 C 0.10982 0.87057 0.45135 0.0
C2238 C 0.08317 0.87973 0.41289 0.0
C2239 C 0.07259 0.88824 0.41802 0.0
C2240 C 0.07259 0.90078 0.40218 0.0
C2241 C 0.08366 0.90479 0.3823 0.0
C2242 C 0.09428 0.8963 0.37739 0.0
H2243 H 0.11863 0.86804 0.46765 0.0
H2244 H 0.10751 0.88108 0.45569 0.0
H2245 H 0.10153 0.86463 0.46177 0.0
H2246 H 0.08261 0.86992 0.42394 0.0
H2247 H 0.06417 0.88478 0.43315 0.0
H2248 H 0.36644 0.81782 0.70182 0.0
H2249 H 0.38131 0.8364 0.69392 0.0
H2250 H 0.3594 0.84872 0.59958 0.0
H2251 H 0.34424 0.83052 0.60823 0.0
H2252 H 0.3972 0.84041 0.63987 0.0
H2253 H 0.36428 0.88328 0.64752 0.0
H2254 H 0.3591 0.8671 0.66096 0.0
H2255 H 0.35891 0.87183 0.61375 0.0
C2256 C 0.36461 0.82467 0.67992 0.0
C2257 C 0.35412 0.82272 0.65577 0.0
C2258 C 0.37315 0.83527 0.67533 0.0
C2259 C 0.37144 0.8441 0.64636 0.0
C2260 C 0.36077 0.84232 0.62273 0.0
H2261 H 0.43679 0.88836 0.55519 0.0
H2262 H 0.41871 0.87305 0.56541 0.0
C2263 C 0.35212 0.83183 0.62762 0.0
C2264 C 0.38143 0.85443 0.63905 0.0
H2265 H 0.38545 0.88705 0.62126 0.0
C2266 C 0.39462 0.85063 0.63612 0.0
C2267 C 0.37815 0.86781 0.63446 0.0
C2268 C 0.36436 0.87277 0.63972 0.0
C2269 C 0.40454 0.85973 0.62833 0.0
C2270 C 0.40117 0.873 0.62194 0.0
C2271 C 0.38802 0.87686 0.62547 0.0
C2272 C 0.41124 0.88306 0.61299 0.0
C2273 C 0.41856 0.85505 0.62798 0.0
C2274 C 0.41259 0.89426 0.63484 0.0
C2275 C 0.42273 0.9032 0.62851 0.0
C2276 C 0.43179 0.90108 0.60032 0.0
C2277 C 0.43005 0.89021 0.57735 0.0
C2278 C 0.41979 0.88137 0.58339 0.0
H2279 H 0.41977 0.84585 0.64377 0.0
H2280 H 0.42156 0.853 0.59954 0.0
H2281 H 0.42527 0.86255 0.63943 0.0
H2282 H 0.40607 0.89586 0.65766 0.0
H2283 H 0.42378 0.91146 0.64674 0.0
H2284 H 0.4374 0.11602 0.94603 0.0
H2285 H 0.41889 0.13099 0.93822 0.0
H2286 H 0.40666 0.1095 0.8431 0.0
H2287 H 0.42479 0.09424 0.85157 0.0
H2288 H 0.41499 0.14711 0.88423 0.0
H2289 H 0.37205 0.11424 0.89112 0.0
H2290 H 0.38821 0.10902 0.90462 0.0
H2291 H 0.38354 0.10894 0.85736 0.0
C2292 C 0.43058 0.1143 0.92396 0.0
C2293 C 0.43254 0.10389 0.89954 0.0
C2294 C 0.42002 0.1229 0.91942 0.0
C2295 C 0.41124 0.12134 0.89027 0.0
C2296 C 0.41303 0.11076 0.86637 0.0
H2297 H 0.36687 0.18707 0.80099 0.0
H2298 H 0.38221 0.16895 0.81038 0.0
C2299 C 0.42348 0.10205 0.87116 0.0
C2300 C 0.40094 0.13137 0.88312 0.0
H2301 H 0.36832 0.13549 0.8655 0.0
C2302 C 0.40477 0.14455 0.88043 0.0
C2303 C 0.38756 0.12812 0.87847 0.0
C2304 C 0.38257 0.11433 0.88342 0.0
C2305 C 0.39568 0.15451 0.87285 0.0
C2306 C 0.3824 0.15119 0.86646 0.0
C2307 C 0.37852 0.13804 0.86971 0.0
C2308 C 0.37233 0.16131 0.85798 0.0
C2309 C 0.40039 0.16853 0.87271 0.0
C2310 C 0.3612 0.16259 0.88012 0.0
C2311 C 0.35226 0.17276 0.87429 0.0
C2312 C 0.35429 0.18193 0.84628 0.0
C2313 C 0.36508 0.18025 0.823 0.0
C2314 C 0.37393 0.16996 0.82857 0.0
H2315 H 0.40964 0.16967 0.88832 0.0
H2316 H 0.40234 0.17161 0.8443 0.0
H2317 H 0.39294 0.17521 0.8845 0.0
H2318 H 0.35966 0.15599 0.9028 0.0
H2319 H 0.34406 0.17375 0.89276 0.0
H2320 H 0.84207 0.8339 0.87668 0.0
H2321 H 0.85646 0.85282 0.88524 0.0
H2322 H 0.88636 0.83388 0.82127 0.0
H2323 H 0.87193 0.8151 0.81184 0.0
H2324 H 0.87947 0.85308 0.91988 0.0
H2325 H 0.88715 0.87014 0.77875 0.0
H2326 H 0.87442 0.85866 0.79067 0.0
H2327 H 0.89099 0.85311 0.78397 0.0
C2328 C 0.85161 0.83388 0.86377 0.0
C2329 C 0.85583 0.82299 0.84345 0.0
C2330 C 0.85984 0.84469 0.86882 0.0
C2331 C 0.87247 0.84487 0.85364 0.0
C2332 C 0.87657 0.83414 0.83258 0.0
H2333 H 0.94092 0.88633 0.92972 0.0
H2334 H 0.9228 0.87109 0.92007 0.0
C2335 C 0.86831 0.82336 0.82731 0.0
C2336 C 0.88167 0.85577 0.86209 0.0
H2337 H 0.90245 0.87794 0.82324 0.0
C2338 C 0.88439 0.85861 0.89872 0.0
C2339 C 0.88798 0.86314 0.83458 0.0
C2340 C 0.88489 0.86121 0.79482 0.0
C2341 C 0.89352 0.86829 0.90856 0.0
C2342 C 0.90036 0.87514 0.88103 0.0
C2343 C 0.89733 0.8726 0.84441 0.0
C2344 C 0.91091 0.88475 0.88942 0.0
C2345 C 0.89565 0.87113 0.94839 0.0
C2346 C 0.91037 0.89751 0.87523 0.0
C2347 C 0.92079 0.90622 0.8804 0.0
C2348 C 0.93201 0.90234 0.89985 0.0
C2349 C 0.93238 0.88969 0.91493 0.0
C2350 C 0.92198 0.88096 0.90955 0.0
H2351 H 0.88697 0.86831 0.96487 0.0
H2352 H 0.90411 0.86532 0.95831 0.0
H2353 H 0.89775 0.88166 0.95307 0.0
H2354 H 0.90196 0.90066 0.85953 0.0
H2355 H 0.9202 0.91587 0.86831 0.0
H2356 H 0.92033 0.09024 0.62742 0.0
H2357 H 0.9017 0.10497 0.63645 0.0
H2358 H 0.92186 0.13524 0.57682 0.0
H2359 H 0.94036 0.12051 0.56703 0.0
H2360 H 0.90171 0.12782 0.6732 0.0
H2361 H 0.88592 0.13701 0.53158 0.0
H2362 H 0.89695 0.12388 0.54345 0.0
H2363 H 0.90301 0.14033 0.53811 0.0
C2364 C 0.92069 0.09994 0.61559 0.0
C2365 C 0.93183 0.10417 0.59636 0.0
C2366 C 0.91005 0.10838 0.62091 0.0
C2367 C 0.91029 0.12119 0.60701 0.0
C2368 C 0.92128 0.12532 0.58712 0.0
H2369 H 0.87046 0.19027 0.68376 0.0
H2370 H 0.88508 0.17166 0.67425 0.0
C2371 C 0.9319 0.11689 0.58167 0.0
C2372 C 0.8995 0.13052 0.61542 0.0
H2373 H 0.87814 0.15213 0.57653 0.0
C2374 C 0.89646 0.13303 0.65204 0.0
C2375 C 0.89249 0.1372 0.58788 0.0
C2376 C 0.89465 0.13438 0.54806 0.0
C2377 C 0.88696 0.14235 0.66184 0.0
C2378 C 0.88048 0.14956 0.63432 0.0
C2379 C 0.88319 0.14672 0.5977 0.0
C2380 C 0.87117 0.16037 0.64276 0.0
C2381 C 0.88391 0.14431 0.70162 0.0
C2382 C 0.85846 0.16031 0.62809 0.0
C2383 C 0.8501 0.17102 0.63323 0.0
C2384 C 0.85428 0.18204 0.65307 0.0
C2385 C 0.86687 0.1819 0.66863 0.0
C2386 C 0.87524 0.17122 0.66334 0.0
H2387 H 0.88638 0.13546 0.71781 0.0
H2388 H 0.88988 0.15255 0.71223 0.0
H2389 H 0.87341 0.14667 0.70585 0.0
H2390 H 0.8551 0.15208 0.61202 0.0
H2391 H 0.84049 0.17081 0.62075 0.0
H2392 H 0.66428 0.17147 0.37882 0.0
H2393 H 0.64949 0.1529 0.38789 0.0
H2394 H 0.61948 0.17285 0.32674 0.0
H2395 H 0.63427 0.19132 0.31691 0.0
H2396 H 0.6265 0.15318 0.42401 0.0
H2397 H 0.61785 0.13668 0.28268 0.0
H2398 H 0.63096 0.14776 0.29456 0.0
H2399 H 0.61453 0.1538 0.28862 0.0
C2400 C 0.65462 0.1718 0.36667 0.0
C2401 C 0.65048 0.18288 0.34702 0.0
C2402 C 0.64616 0.16119 0.37201 0.0
C2403 C 0.6334 0.16139 0.35772 0.0
C2404 C 0.62935 0.17231 0.33737 0.0
H2405 H 0.56444 0.12098 0.43425 0.0
H2406 H 0.58273 0.13599 0.42423 0.0
C2407 C 0.63783 0.18291 0.33188 0.0
C2408 C 0.62404 0.15065 0.36625 0.0
H2409 H 0.60275 0.12892 0.32757 0.0
C2410 C 0.6214 0.14778 0.4029 0.0
C2411 C 0.61749 0.14347 0.33878 0.0
C2412 C 0.62044 0.14548 0.29897 0.0
C2413 C 0.61213 0.13825 0.41281 0.0
C2414 C 0.6051 0.13156 0.38533 0.0
C2415 C 0.60803 0.13413 0.34869 0.0
C2416 C 0.59443 0.1221 0.39385 0.0
C2417 C 0.61005 0.13539 0.45264 0.0
C2418 C 0.59483 0.1093 0.37993 0.0
C2419 C 0.58432 0.10072 0.38538 0.0
C2420 C 0.57316 0.10478 0.40477 0.0
C2421 C 0.57293 0.11749 0.41948 0.0
C2422 C 0.58342 0.12608 0.41389 0.0
H2423 H 0.61877 0.13812 0.46907 0.0
H2424 H 0.60163 0.14123 0.46268 0.0
H2425 H 0.60788 0.12486 0.45723 0.0
H2426 H 0.6032 0.10602 0.36429 0.0
H2427 H 0.58481 0.09102 0.37355 0.0
H2428 H 0.58372 0.91477 0.12978 0.0
H2429 H 0.60231 0.90001 0.13894 0.0
H2430 H 0.58245 0.87002 0.07746 0.0
H2431 H 0.56399 0.88479 0.06749 0.0
H2432 H 0.6022 0.87715 0.17494 0.0
H2433 H 0.61855 0.86823 0.03375 0.0
H2434 H 0.60743 0.88131 0.04541 0.0
H2435 H 0.60144 0.86486 0.03953 0.0
C2436 C 0.58342 0.90513 0.11756 0.0
C2437 C 0.57237 0.90099 0.09777 0.0
C2438 C 0.59405 0.89668 0.12295 0.0
C2439 C 0.59388 0.88393 0.10859 0.0
C2440 C 0.58298 0.87989 0.08812 0.0
H2441 H 0.63303 0.81458 0.18597 0.0
H2442 H 0.61859 0.83331 0.17619 0.0
C2443 C 0.57239 0.88835 0.08256 0.0
C2444 C 0.60462 0.87455 0.11719 0.0
H2445 H 0.62602 0.85291 0.07865 0.0
C2446 C 0.60751 0.87196 0.15386 0.0
C2447 C 0.61171 0.86789 0.08977 0.0
C2448 C 0.60973 0.87081 0.04993 0.0
C2449 C 0.61693 0.86259 0.16383 0.0
C2450 C 0.62347 0.85538 0.13641 0.0
C2451 C 0.62092 0.85831 0.09974 0.0
C2452 C 0.63267 0.84449 0.14499 0.0
C2453 C 0.61983 0.86056 0.20367 0.0
C2454 C 0.64541 0.84443 0.13054 0.0
C2455 C 0.65367 0.83365 0.13582 0.0
C2456 C 0.64935 0.82267 0.15558 0.0
C2457 C 0.63673 0.82291 0.17092 0.0
C2458 C 0.62846 0.83367 0.16547 0.0
H2459 H 0.6174 0.86943 0.21984 0.0
H2460 H 0.61374 0.85238 0.21407 0.0
H2461 H 0.63029 0.85809 0.20818 0.0
H2462 H 0.64888 0.85264 0.11456 0.0
H2463 H 0.6633 0.83377 0.12351 0.0
H2464 H 0.58492 0.59123 0.62879 0.0
H2465 H 0.60323 0.60631 0.63832 0.0
H2466 H 0.58286 0.63612 0.57748 0.0
H2467 H 0.56466 0.621 0.56704 0.0
H2468 H 0.6089 0.63593 0.56206 0.0
H2469 H 0.60147 0.63588 0.71155 0.0
H2470 H 0.60452 0.61995 0.69273 0.0
H2471 H 0.58986 0.62866 0.68049 0.0
C2472 C 0.5844 0.60094 0.617 0.0
C2473 C 0.57327 0.60494 0.59738 0.0
C2474 C 0.59484 0.60959 0.62277 0.0
C2475 C 0.59428 0.62247 0.60945 0.0
C2476 C 0.58347 0.62627 0.58829 0.0
H2477 H 0.63479 0.69166 0.68392 0.0
H2478 H 0.61967 0.67356 0.67262 0.0
C2479 C 0.57308 0.61759 0.58228 0.0
C2480 C 0.60471 0.63214 0.61843 0.0
H2481 H 0.61971 0.64772 0.68945 0.0
C2482 C 0.6113 0.63848 0.58991 0.0
C2483 C 0.60769 0.63563 0.6548 0.0
C2484 C 0.60044 0.62978 0.68668 0.0
C2485 C 0.62076 0.64819 0.59671 0.0
C2486 C 0.62396 0.65145 0.63309 0.0
C2487 C 0.61738 0.64511 0.6616 0.0
C2488 C 0.63357 0.66193 0.6421 0.0
C2489 C 0.6269 0.65516 0.56478 0.0
C2490 C 0.64658 0.66126 0.6298 0.0
C2491 C 0.65525 0.67165 0.63608 0.0
C2492 C 0.65113 0.68285 0.6552 0.0
C2493 C 0.6383 0.68319 0.6691 0.0
C2494 C 0.62962 0.67285 0.6626 0.0
H2495 H 0.62101 0.65394 0.53959 0.0
H2496 H 0.628 0.66579 0.57037 0.0
H2497 H 0.63677 0.65101 0.55966 0.0
H2498 H 0.64997 0.6528 0.61478 0.0
H2499 H 0.66508 0.67103 0.62519 0.0
H2500 H 0.5845 0.41455 0.87404 0.0
H2501 H 0.60292 0.39963 0.86415 0.0
H2502 H 0.58218 0.36905 0.9209 0.0
H2503 H 0.56387 0.38397 0.93164 0.0
H2504 H 0.60807 0.36938 0.93852 0.0
H2505 H 0.6021 0.37072 0.78852 0.0
H2506 H 0.60483 0.38647 0.80889 0.0
H2507 H 0.59011 0.37753 0.81917 0.0
C2508 C 0.58392 0.4047 0.88482 0.0
C2509 C 0.57266 0.40044 0.90342 0.0
C2510 C 0.59442 0.39614 0.87885 0.0
C2511 C 0.59381 0.38311 0.89098 0.0
C2512 C 0.58284 0.37903 0.91102 0.0
H2513 H 0.63464 0.31424 0.81674 0.0
H2514 H 0.61962 0.33249 0.82719 0.0
C2515 C 0.57238 0.38759 0.91719 0.0
C2516 C 0.60439 0.3736 0.88212 0.0
H2517 H 0.62002 0.35856 0.81127 0.0
C2518 C 0.61073 0.36705 0.91071 0.0
C2519 C 0.60771 0.37042 0.84577 0.0
C2520 C 0.60076 0.37654 0.81378 0.0
C2521 C 0.62024 0.3574 0.90401 0.0
C2522 C 0.62375 0.35439 0.86768 0.0
C2523 C 0.61744 0.36097 0.83909 0.0
C2524 C 0.63337 0.34392 0.8588 0.0
C2525 C 0.62609 0.35018 0.93594 0.0
C2526 C 0.64628 0.34445 0.87194 0.0
C2527 C 0.65489 0.33398 0.86614 0.0
C2528 C 0.65081 0.32284 0.8467 0.0
C2529 C 0.63811 0.32266 0.83185 0.0
C2530 C 0.62949 0.33309 0.83785 0.0
H2531 H 0.62004 0.35128 0.96086 0.0
H2532 H 0.62715 0.33957 0.92989 0.0
H2533 H 0.63596 0.35421 0.94182 0.0
H2534 H 0.64962 0.35285 0.88736 0.0
H2535 H 0.66463 0.33448 0.87776 0.0
H2536 H 0.87085 0.31388 0.18158 0.0
H2537 H 0.88559 0.33239 0.17169 0.0
H2538 H 0.85536 0.35242 0.11156 0.0
H2539 H 0.84064 0.3338 0.12064 0.0
H2540 H 0.87818 0.3524 0.07498 0.0
H2541 H 0.88732 0.36837 0.21649 0.0
H2542 H 0.8907 0.35129 0.21006 0.0
H2543 H 0.87423 0.35728 0.20471 0.0
C2544 C 0.86724 0.32232 0.16682 0.0
C2545 C 0.85454 0.32236 0.15197 0.0
C2546 C 0.87568 0.33294 0.1613 0.0
C2547 C 0.87156 0.3439 0.14123 0.0
C2548 C 0.85876 0.3441 0.12722 0.0
H2549 H 0.92043 0.41412 0.1272 0.0
H2550 H 0.90192 0.39923 0.13598 0.0
C2551 C 0.85033 0.33346 0.13257 0.0
C2552 C 0.88087 0.35469 0.13274 0.0
H2553 H 0.90233 0.37624 0.17145 0.0
C2554 C 0.88336 0.35771 0.0961 0.0
C2555 C 0.88752 0.36176 0.16023 0.0
C2556 C 0.88471 0.35962 0.20007 0.0
C2557 C 0.89259 0.36728 0.08621 0.0
C2558 C 0.89975 0.37384 0.11368 0.0
C2559 C 0.89695 0.37113 0.15033 0.0
C2560 C 0.91042 0.3833 0.10517 0.0
C2561 C 0.89451 0.37031 0.04641 0.0
C2562 C 0.92132 0.3794 0.08451 0.0
C2563 C 0.93187 0.38794 0.07916 0.0
C2564 C 0.93183 0.40051 0.09477 0.0
C2565 C 0.92077 0.40452 0.11469 0.0
C2566 C 0.91019 0.396 0.11986 0.0
H2567 H 0.88568 0.36772 0.03024 0.0
H2568 H 0.89674 0.38084 0.0421 0.0
H2569 H 0.90282 0.36444 0.03584 0.0
H2570 H 0.92189 0.36957 0.07358 0.0
H2571 H 0.94027 0.38448 0.06399 0.0
H2572 H 0.92469 0.59474 0.35367 0.0
H2573 H 0.9067 0.61007 0.3432 0.0
H2574 H 0.91911 0.63289 0.43571 0.0
H2575 H 0.93745 0.61786 0.44549 0.0
H2576 H 0.88599 0.61845 0.37994 0.0
H2577 H 0.91957 0.66029 0.35782 0.0
H2578 H 0.92536 0.64368 0.3618 0.0
H2579 H 0.92155 0.65306 0.4019 0.0
C2580 C 0.92352 0.60295 0.37206 0.0
C2581 C 0.9326 0.60515 0.4002 0.0
C2582 C 0.91322 0.61173 0.36599 0.0
C2583 C 0.91173 0.62286 0.38802 0.0
C2584 C 0.92029 0.62462 0.41757 0.0
H2585 H 0.84374 0.67404 0.39454 0.0
H2586 H 0.85939 0.65625 0.40285 0.0
C2587 C 0.93071 0.61594 0.42338 0.0
C2588 C 0.90148 0.63278 0.37935 0.0
H2589 H 0.89691 0.66533 0.36204 0.0
C2590 C 0.88839 0.6287 0.37589 0.0
C2591 C 0.9046 0.64611 0.37316 0.0
C2592 C 0.91855 0.65104 0.37346 0.0
C2593 C 0.87834 0.6376 0.36718 0.0
C2594 C 0.88139 0.65105 0.36282 0.0
C2595 C 0.89451 0.65506 0.36564 0.0
C2596 C 0.87119 0.66121 0.3559 0.0
C2597 C 0.86463 0.63241 0.36199 0.0
C2598 C 0.87262 0.67011 0.327 0.0
C2599 C 0.86379 0.68049 0.32258 0.0
C2600 C 0.85328 0.68214 0.34686 0.0
C2601 C 0.85162 0.67297 0.37506 0.0
C2602 C 0.86055 0.66271 0.37974 0.0
H2603 H 0.86473 0.62191 0.35398 0.0
H2604 H 0.85921 0.63319 0.38804 0.0
H2605 H 0.85924 0.63803 0.34092 0.0
H2606 H 0.88075 0.66921 0.30826 0.0
H2607 H 0.86538 0.68739 0.30066 0.0
H2608 H 0.34199 0.3344 0.37696 0.0
H2609 H 0.35649 0.35321 0.38564 0.0
H2610 H 0.38619 0.33421 0.32109 0.0
H2611 H 0.37165 0.31553 0.31156 0.0
H2612 H 0.37953 0.35317 0.42015 0.0
H2613 H 0.38729 0.37061 0.27942 0.0
H2614 H 0.37446 0.3592 0.29112 0.0
H2615 H 0.39096 0.35352 0.28416 0.0
C2616 C 0.3515 0.33434 0.36394 0.0
C2617 C 0.35563 0.32346 0.34346 0.0
C2618 C 0.35981 0.34509 0.36905 0.0
C2619 C 0.37241 0.34522 0.35376 0.0
C2620 C 0.37642 0.33452 0.33249 0.0
H2621 H 0.4416 0.38494 0.43018 0.0
H2622 H 0.4231 0.37024 0.42011 0.0
C2623 C 0.36809 0.32379 0.32717 0.0
C2624 C 0.38171 0.35602 0.36241 0.0
H2625 H 0.40278 0.37803 0.32399 0.0
C2626 C 0.3845 0.35871 0.39909 0.0
C2627 C 0.38809 0.3634 0.33505 0.0
C2628 C 0.38495 0.36164 0.29526 0.0
C2629 C 0.39378 0.36822 0.40911 0.0
C2630 C 0.40071 0.37505 0.38171 0.0
C2631 C 0.39759 0.3727 0.34505 0.0
C2632 C 0.4115 0.38437 0.3903 0.0
C2633 C 0.396 0.37088 0.449 0.0
C2634 C 0.41125 0.39722 0.3767 0.0
C2635 C 0.4219 0.40564 0.38215 0.0
C2636 C 0.43305 0.40137 0.40124 0.0
C2637 C 0.43313 0.38861 0.41567 0.0
C2638 C 0.42251 0.38018 0.41005 0.0
H2639 H 0.38728 0.36819 0.46545 0.0
H2640 H 0.40435 0.36486 0.45871 0.0
H2641 H 0.39832 0.38135 0.45394 0.0
H2642 H 0.40289 0.40067 0.36127 0.0
H2643 H 0.42153 0.41538 0.37052 0.0
H2644 H 0.37082 0.69197 0.18343 0.0
H2645 H 0.38605 0.67392 0.17256 0.0
H2646 H 0.35604 0.65309 0.11362 0.0
H2647 H 0.34083 0.67126 0.12363 0.0
H2648 H 0.38598 0.648 0.18917 0.0
H2649 H 0.38534 0.65452 0.03937 0.0
H2650 H 0.37822 0.6663 0.07009 0.0
H2651 H 0.3695 0.65154 0.05882 0.0
C2652 C 0.3674 0.6835 0.16847 0.0
C2653 C 0.35463 0.68312 0.15414 0.0
C2654 C 0.37614 0.67318 0.16221 0.0
C2655 C 0.3723 0.66227 0.14152 0.0
C2656 C 0.35935 0.66156 0.12881 0.0
H2657 H 0.42051 0.59136 0.12847 0.0
H2658 H 0.40238 0.60665 0.13789 0.0
C2659 C 0.35062 0.67191 0.13486 0.0
C2660 C 0.38198 0.65184 0.13271 0.0
H2661 H 0.39733 0.63644 0.06199 0.0
C2662 C 0.38844 0.64544 0.16136 0.0
C2663 C 0.38534 0.64865 0.09639 0.0
C2664 C 0.37934 0.65569 0.06437 0.0
C2665 C 0.39813 0.63595 0.15476 0.0
C2666 C 0.40125 0.63253 0.11844 0.0
C2667 C 0.39482 0.63894 0.08979 0.0
C2668 C 0.41163 0.62278 0.10969 0.0
C2669 C 0.40522 0.63002 0.18678 0.0
C2670 C 0.42257 0.62651 0.08897 0.0
C2671 C 0.43287 0.61773 0.08304 0.0
C2672 C 0.43245 0.60502 0.09775 0.0
C2673 C 0.4212 0.6011 0.11698 0.0
C2674 C 0.41086 0.60987 0.12268 0.0
H2675 H 0.40413 0.63608 0.21169 0.0
H2676 H 0.40106 0.6202 0.19258 0.0
H2677 H 0.41582 0.62884 0.18092 0.0
H2678 H 0.42335 0.63639 0.07841 0.0
H2679 H 0.44138 0.62107 0.0681 0.0
H2680 H 0.08353 0.59106 0.87137 0.0
H2681 H 0.10214 0.60579 0.86217 0.0
H2682 H 0.0823 0.63586 0.92334 0.0
H2683 H 0.06381 0.62112 0.93333 0.0
H2684 H 0.10206 0.62875 0.82611 0.0
H2685 H 0.11841 0.63739 0.96754 0.0
H2686 H 0.10727 0.62435 0.95564 0.0
H2687 H 0.10132 0.64081 0.96151 0.0
C2688 C 0.08323 0.60072 0.88349 0.0
C2689 C 0.07218 0.60488 0.90322 0.0
C2690 C 0.09387 0.60915 0.87807 0.0
C2691 C 0.09371 0.62191 0.89236 0.0
C2692 C 0.08281 0.62599 0.91273 0.0
H2693 H 0.13438 0.69076 0.81588 0.0
H2694 H 0.11939 0.67243 0.82543 0.0
C2695 C 0.0722 0.61754 0.91831 0.0
C2696 C 0.1045 0.63124 0.88389 0.0
H2697 H 0.1262 0.65252 0.92274 0.0
C2698 C 0.10743 0.63384 0.84726 0.0
C2699 C 0.11166 0.63778 0.91141 0.0
C2700 C 0.10961 0.63485 0.95121 0.0
C2701 C 0.117 0.64309 0.83742 0.0
C2702 C 0.12365 0.65015 0.86495 0.0
C2703 C 0.12102 0.64723 0.90158 0.0
C2704 C 0.13314 0.66081 0.85653 0.0
C2705 C 0.11994 0.64513 0.79762 0.0
C2706 C 0.14587 0.66047 0.87099 0.0
C2707 C 0.15444 0.67101 0.86584 0.0
C2708 C 0.15045 0.68214 0.84619 0.0
C2709 C 0.13783 0.6823 0.83085 0.0
C2710 C 0.12924 0.67178 0.83617 0.0
H2711 H 0.11728 0.63638 0.78127 0.0
H2712 H 0.11408 0.6535 0.78737 0.0
H2713 H 0.13047 0.64734 0.79317 0.0
H2714 H 0.1491 0.65214 0.88687 0.0
H2715 H 0.16407 0.67058 0.87814 0.0
H2716 H 0.08499 0.41531 0.62702 0.0
H2717 H 0.10346 0.40042 0.63639 0.0
H2718 H 0.08337 0.37049 0.57526 0.0
H2719 H 0.06503 0.3854 0.56506 0.0
H2720 H 0.10307 0.37768 0.67279 0.0
H2721 H 0.11949 0.36825 0.53188 0.0
H2722 H 0.10847 0.38145 0.54319 0.0
H2723 H 0.10236 0.36503 0.5377 0.0
C2724 C 0.08462 0.40565 0.61491 0.0
C2725 C 0.07354 0.40157 0.59517 0.0
C2726 C 0.09517 0.39713 0.62042 0.0
C2727 C 0.0949 0.38436 0.60625 0.0
C2728 C 0.08398 0.38037 0.58578 0.0
H2729 H 0.1341 0.31517 0.68547 0.0
H2730 H 0.11955 0.33378 0.67516 0.0
C2731 C 0.07345 0.38891 0.58008 0.0
C2732 C 0.10554 0.37491 0.61511 0.0
H2733 H 0.12693 0.35311 0.57722 0.0
C2734 C 0.10839 0.37241 0.65186 0.0
C2735 C 0.11263 0.36814 0.58789 0.0
C2736 C 0.11069 0.37095 0.54797 0.0
C2737 C 0.11779 0.36305 0.66211 0.0
C2738 C 0.12435 0.35577 0.6349 0.0
C2739 C 0.12182 0.35858 0.59814 0.0
C2740 C 0.13359 0.34495 0.64379 0.0
C2741 C 0.12065 0.36115 0.70202 0.0
C2742 C 0.14634 0.34493 0.62945 0.0
C2743 C 0.15466 0.33422 0.63503 0.0
C2744 C 0.15039 0.32327 0.65501 0.0
C2745 C 0.13776 0.32348 0.67026 0.0
C2746 C 0.12942 0.33417 0.6645 0.0
H2747 H 0.11817 0.37004 0.718 0.0
H2748 H 0.11459 0.35296 0.71252 0.0
H2749 H 0.13112 0.35873 0.70666 0.0
H2750 H 0.14978 0.35311 0.6133 0.0
H2751 H 0.1643 0.33437 0.62278 0.0
loop_
_geom_bond_atom_site_label_1
_geom_bond_atom_site_label_2
_geom_bond_distance
_geom_bond_site_symmetry_2
_ccdc_geom_bond_type
O0 Cd1 2.223 . S
O0 C8 1.315 . S
Cd1 O0 2.223 . S
Cd1 O4 2.297 . S
Cd1 O5 2.439 . S
Cd1 O11 2.240 . S
Cd2 O3 2.240 . S
Cd2 O10 2.223 . S
Cd2 O12 2.297 1_554 S
Cd2 O13 2.439 1_554 S
O3 Cd2 2.240 . S
O3 C8 1.279 . S
O4 Cd1 2.297 . S
O4 C6 1.247 . S
O5 Cd1 2.439 . S
O5 C6 1.208 . S
C6 O4 1.247 . S
C6 O5 1.208 . S
C7 O12 1.247 . S
C7 O13 1.208 . S
C8 O0 1.315 . S
C8 O3 1.279 . S
C9 O10 1.315 . S
C9 O11 1.279 . S
O10 Cd2 2.223 . S
O10 C9 1.315 . S
O11 Cd1 2.240 . S
O11 C9 1.279 . S
O12 Cd2 2.297 1_556 S
O12 C7 1.247 . S
O13 Cd2 2.439 1_556 S
O13 C7 1.208 . S
O14 Cd15 2.223 . S
O14 C22 1.315 . S
Cd15 O14 2.223 . S
Cd15 O18 2.297 . S
Cd15 O19 2.439 . S
Cd15 O25 2.240 . S
Cd16 O17 2.240 . S
Cd16 O24 2.223 . S
Cd16 O26 2.297 . S
Cd16 O27 2.439 . S
O17 Cd16 2.240 . S
O17 C22 1.279 . S
O18 Cd15 2.297 . S
O18 C20 1.247 . S
O19 Cd15 2.439 . S
O19 C20 1.208 . S
C20 O18 1.247 . S
C20 O19 1.208 . S
C21 O26 1.247 . S
C21 O27 1.208 . S
C22 O14 1.315 . S
C22 O17 1.279 . S
C23 O24 1.315 . S
C23 O25 1.279 . S
O24 Cd16 2.223 . S
O24 C23 1.315 . S
O25 Cd15 2.240 . S
O25 C23 1.279 . S
O26 Cd16 2.297 . S
O26 C21 1.247 . S
O27 Cd16 2.439 . S
O27 C21 1.208 . S
O28 Cd29 2.223 . S
O28 C36 1.315 . S
Cd29 O28 2.223 . S
Cd29 O32 2.297 . S
Cd29 O33 2.439 . S
Cd29 O39 2.240 . S
Cd30 O31 2.240 . S
Cd30 O38 2.223 . S
Cd30 O40 2.297 . S
Cd30 O41 2.439 . S
O31 Cd30 2.240 . S
O31 C36 1.279 . S
O32 Cd29 2.297 . S
O32 C34 1.247 . S
O33 Cd29 2.439 . S
O33 C34 1.208 . S
C34 O32 1.247 . S
C34 O33 1.208 . S
C35 O40 1.247 . S
C35 O41 1.208 . S
C36 O28 1.315 . S
C36 O31 1.279 . S
C37 O38 1.315 . S
C37 O39 1.279 . S
O38 Cd30 2.223 . S
O38 C37 1.315 . S
O39 Cd29 2.240 . S
O39 C37 1.279 . S
O40 Cd30 2.297 . S
O40 C35 1.247 . S
O41 Cd30 2.439 . S
O41 C35 1.208 . S
O42 Cd43 2.223 . S
O42 C50 1.315 . S
Cd43 O42 2.223 . S
Cd43 O46 2.297 . S
Cd43 O47 2.439 . S
Cd43 O53 2.240 . S
Cd44 O45 2.240 . S
Cd44 O52 2.223 . S
Cd44 O54 2.297 . S
Cd44 O55 2.439 . S
O45 Cd44 2.240 . S
O45 C50 1.279 . S
O46 Cd43 2.297 . S
O46 C48 1.247 . S
O47 Cd43 2.439 . S
O47 C48 1.208 . S
C48 O46 1.247 . S
C48 O47 1.208 . S
C49 O54 1.247 . S
C49 O55 1.208 . S
C50 O42 1.315 . S
C50 O45 1.279 . S
C51 O52 1.315 . S
C51 O53 1.279 . S
O52 Cd44 2.223 . S
O52 C51 1.315 . S
O53 Cd43 2.240 . S
O53 C51 1.279 . S
O54 Cd44 2.297 . S
O54 C49 1.247 . S
O55 Cd44 2.439 . S
O55 C49 1.208 . S
O56 Cd57 2.223 . S
O56 C64 1.315 . S
Cd57 O56 2.223 . S
Cd57 O60 2.297 . S
Cd57 O61 2.439 . S
Cd57 O67 2.240 . S
Cd58 O59 2.240 . S
Cd58 O66 2.223 . S
Cd58 O68 2.297 . S
Cd58 O69 2.439 . S
O59 Cd58 2.240 . S
O59 C64 1.279 . S
O60 Cd57 2.297 . S
O60 C62 1.247 . S
O61 Cd57 2.439 . S
O61 C62 1.208 . S
C62 O60 1.247 . S
C62 O61 1.208 . S
C63 O68 1.247 . S
C63 O69 1.208 . S
C64 O56 1.315 . S
C64 O59 1.279 . S
C65 O66 1.315 . S
C65 O67 1.279 . S
O66 Cd58 2.223 . S
O66 C65 1.315 . S
O67 Cd57 2.240 . S
O67 C65 1.279 . S
O68 Cd58 2.297 . S
O68 C63 1.247 . S
O69 Cd58 2.439 . S
O69 C63 1.208 . S
O70 Cd71 2.223 . S
O70 C78 1.315 . S
Cd71 O70 2.223 . S
Cd71 O74 2.297 . S
Cd71 O75 2.439 . S
Cd71 O81 2.240 . S
Cd72 O73 2.240 . S
Cd72 O80 2.223 . S
Cd72 O82 2.297 . S
Cd72 O83 2.439 . S
O73 Cd72 2.240 . S
O73 C78 1.279 . S
O74 Cd71 2.297 . S
O74 C76 1.247 . S
O75 Cd71 2.439 . S
O75 C76 1.208 . S
C76 O74 1.247 . S
C76 O75 1.208 . S
C77 O82 1.247 . S
C77 O83 1.208 . S
C78 O70 1.315 . S
C78 O73 1.279 . S
C79 O80 1.315 . S
C79 O81 1.279 . S
O80 Cd72 2.223 . S
O80 C79 1.315 . S
O81 Cd71 2.240 . S
O81 C79 1.279 . S
O82 Cd72 2.297 . S
O82 C77 1.247 . S
O83 Cd72 2.439 . S
O83 C77 1.208 . S
O84 Cd85 2.223 . S
O84 C92 1.315 . S
Cd85 O84 2.223 . S
Cd85 O88 2.297 . S
Cd85 O89 2.439 . S
Cd85 O95 2.240 . S
Cd86 O87 2.240 . S
Cd86 O94 2.223 . S
Cd86 O96 2.297 1_556 S
Cd86 O97 2.439 1_556 S
O87 Cd86 2.240 . S
O87 C92 1.279 . S
O88 Cd85 2.297 . S
O88 C90 1.247 . S
O89 Cd85 2.439 . S
O89 C90 1.208 . S
C90 O88 1.247 . S
C90 O89 1.208 . S
C91 O96 1.247 . S
C91 O97 1.208 . S
C92 O84 1.315 . S
C92 O87 1.279 . S
C93 O94 1.315 . S
C93 O95 1.279 . S
O94 Cd86 2.223 . S
O94 C93 1.315 . S
O95 Cd85 2.240 . S
O95 C93 1.279 . S
O96 Cd86 2.297 1_554 S
O96 C91 1.247 . S
O97 Cd86 2.439 1_554 S
O97 C91 1.208 . S
O98 Cd99 2.223 . S
O98 C106 1.315 . S
Cd99 O98 2.223 . S
Cd99 O102 2.297 . S
Cd99 O103 2.439 . S
Cd99 O109 2.240 . S
Cd100 O101 2.240 . S
Cd100 O108 2.223 . S
Cd100 O110 2.297 . S
Cd100 O111 2.439 . S
O101 Cd100 2.240 . S
O101 C106 1.279 . S
O102 Cd99 2.297 . S
O102 C104 1.247 . S
O103 Cd99 2.439 . S
O103 C104 1.208 . S
C104 O102 1.247 . S
C104 O103 1.208 . S
C105 O110 1.247 . S
C105 O111 1.208 . S
C106 O98 1.315 . S
C106 O101 1.279 . S
C107 O108 1.315 . S
C107 O109 1.279 . S
O108 Cd100 2.223 . S
O108 C107 1.315 . S
O109 Cd99 2.240 . S
O109 C107 1.279 . S
O110 Cd100 2.297 . S
O110 C105 1.247 . S
O111 Cd100 2.439 . S
O111 C105 1.208 . S
O112 Cd113 2.223 . S
O112 C120 1.315 . S
Cd113 O112 2.223 . S
Cd113 O116 2.297 . S
Cd113 O117 2.439 . S
Cd113 O123 2.240 . S
Cd114 O115 2.240 . S
Cd114 O122 2.223 . S
Cd114 O124 2.297 1_556 S
Cd114 O125 2.439 1_556 S
O115 Cd114 2.240 . S
O115 C120 1.279 . S
O116 Cd113 2.297 . S
O116 C118 1.247 . S
O117 Cd113 2.439 . S
O117 C118 1.208 . S
C118 O116 1.247 . S
C118 O117 1.208 . S
C119 O124 1.247 . S
C119 O125 1.208 . S
C120 O112 1.315 . S
C120 O115 1.279 . S
C121 O122 1.315 . S
C121 O123 1.279 . S
O122 Cd114 2.223 . S
O122 C121 1.315 . S
O123 Cd113 2.240 . S
O123 C121 1.279 . S
O124 Cd114 2.297 1_554 S
O124 C119 1.247 . S
O125 Cd114 2.439 1_554 S
O125 C119 1.208 . S
O126 Cd127 2.223 . S
O126 C134 1.315 . S
Cd127 O126 2.223 . S
Cd127 O130 2.297 . S
Cd127 O131 2.439 . S
Cd127 O137 2.240 . S
Cd128 O129 2.240 . S
Cd128 O136 2.223 . S
Cd128 O138 2.297 . S
Cd128 O139 2.439 . S
O129 Cd128 2.240 . S
O129 C134 1.279 . S
O130 Cd127 2.297 . S
O130 C132 1.247 . S
O131 Cd127 2.439 . S
O131 C132 1.208 . S
C132 O130 1.247 . S
C132 O131 1.208 . S
C133 O138 1.247 . S
C133 O139 1.208 . S
C134 O126 1.315 . S
C134 O129 1.279 . S
C135 O136 1.315 . S
C135 O137 1.279 . S
O136 Cd128 2.223 . S
O136 C135 1.315 . S
O137 Cd127 2.240 . S
O137 C135 1.279 . S
O138 Cd128 2.297 . S
O138 C133 1.247 . S
O139 Cd128 2.439 . S
O139 C133 1.208 . S
O140 Cd141 2.223 . S
O140 C148 1.315 . S
Cd141 O140 2.223 . S
Cd141 O144 2.297 . S
Cd141 O145 2.439 . S
Cd141 O151 2.240 . S
Cd142 O143 2.240 . S
Cd142 O150 2.223 . S
Cd142 O152 2.297 . S
Cd142 O153 2.439 . S
O143 Cd142 2.240 . S
O143 C148 1.279 . S
O144 Cd141 2.297 . S
O144 C146 1.247 . S
O145 Cd141 2.439 . S
O145 C146 1.208 . S
C146 O144 1.247 . S
C146 O145 1.208 . S
C147 O152 1.247 . S
C147 O153 1.208 . S
C148 O140 1.315 . S
C148 O143 1.279 . S
C149 O150 1.315 . S
C149 O151 1.279 . S
O150 Cd142 2.223 . S
O150 C149 1.315 . S
O151 Cd141 2.240 . S
O151 C149 1.279 . S
O152 Cd142 2.297 . S
O152 C147 1.247 . S
O153 Cd142 2.439 . S
O153 C147 1.208 . S
O154 Cd155 2.223 . S
O154 C162 1.315 . S
Cd155 O154 2.223 . S
Cd155 O158 2.297 . S
Cd155 O159 2.439 . S
Cd155 O165 2.240 . S
Cd156 O157 2.240 . S
Cd156 O164 2.223 . S
Cd156 O166 2.297 . S
Cd156 O167 2.439 . S
O157 Cd156 2.240 . S
O157 C162 1.279 . S
O158 Cd155 2.297 . S
O158 C160 1.247 . S
O159 Cd155 2.439 . S
O159 C160 1.208 . S
C160 O158 1.247 . S
C160 O159 1.208 . S
C161 O166 1.247 . S
C161 O167 1.208 . S
C162 O154 1.315 . S
C162 O157 1.279 . S
C163 O164 1.315 . S
C163 O165 1.279 . S
O164 Cd156 2.223 . S
O164 C163 1.315 . S
O165 Cd155 2.240 . S
O165 C163 1.279 . S
O166 Cd156 2.297 . S
O166 C161 1.247 . S
O167 Cd156 2.439 . S
O167 C161 1.208 . S
O168 Cd169 2.223 . S
O168 C176 1.315 . S
Cd169 O168 2.223 . S
Cd169 O172 2.297 . S
Cd169 O173 2.439 . S
Cd169 O179 2.240 . S
Cd170 O171 2.240 . S
Cd170 O178 2.223 . S
Cd170 O180 2.297 . S
Cd170 O181 2.439 . S
O171 Cd170 2.240 . S
O171 C176 1.279 . S
O172 Cd169 2.297 . S
O172 C174 1.247 . S
O173 Cd169 2.439 . S
O173 C174 1.208 . S
C174 O172 1.247 . S
C174 O173 1.208 . S
C175 O180 1.247 . S
C175 O181 1.208 . S
C176 O168 1.315 . S
C176 O171 1.279 . S
C177 O178 1.315 . S
C177 O179 1.279 . S
O178 Cd170 2.223 . S
O178 C177 1.315 . S
O179 Cd169 2.240 . S
O179 C177 1.279 . S
O180 Cd170 2.297 . S
O180 C175 1.247 . S
O181 Cd170 2.439 . S
O181 C175 1.208 . S
O182 Cd183 2.223 . S
O182 C190 1.315 . S
Cd183 O182 2.223 . S
Cd183 O186 2.297 . S
Cd183 O187 2.439 . S
Cd183 O193 2.240 . S
Cd184 O185 2.240 . S
Cd184 O192 2.223 . S
Cd184 O194 2.297 . S
Cd184 O195 2.439 . S
O185 Cd184 2.240 . S
O185 C190 1.279 . S
O186 Cd183 2.297 . S
O186 C188 1.247 . S
O187 Cd183 2.439 . S
O187 C188 1.208 . S
C188 O186 1.247 . S
C188 O187 1.208 . S
C189 O194 1.247 . S
C189 O195 1.208 . S
C190 O182 1.315 . S
C190 O185 1.279 . S
C191 O192 1.315 . S
C191 O193 1.279 . S
O192 Cd184 2.223 . S
O192 C191 1.315 . S
O193 Cd183 2.240 . S
O193 C191 1.279 . S
O194 Cd184 2.297 . S
O194 C189 1.247 . S
O195 Cd184 2.439 . S
O195 C189 1.208 . S
O196 Cd197 2.223 . S
O196 C204 1.315 . S
Cd197 O196 2.223 . S
Cd197 O200 2.297 . S
Cd197 O201 2.439 . S
Cd197 O207 2.240 . S
Cd198 O199 2.240 . S
Cd198 O206 2.223 . S
Cd198 O208 2.297 1_554 S
Cd198 O209 2.439 1_554 S
O199 Cd198 2.240 . S
O199 C204 1.279 . S
O200 Cd197 2.297 . S
O200 C202 1.247 . S
O201 Cd197 2.439 . S
O201 C202 1.208 . S
C202 O200 1.247 . S
C202 O201 1.208 . S
C203 O208 1.247 . S
C203 O209 1.208 . S
C204 O196 1.315 . S
C204 O199 1.279 . S
C205 O206 1.315 . S
C205 O207 1.279 . S
O206 Cd198 2.223 . S
O206 C205 1.315 . S
O207 Cd197 2.240 . S
O207 C205 1.279 . S
O208 Cd198 2.297 1_556 S
O208 C203 1.247 . S
O209 Cd198 2.439 1_556 S
O209 C203 1.208 . S
O210 Cd211 2.223 . S
O210 C218 1.315 . S
Cd211 O210 2.223 . S
Cd211 O214 2.297 . S
Cd211 O215 2.439 . S
Cd211 O221 2.240 . S
Cd212 O213 2.240 . S
Cd212 O220 2.223 . S
Cd212 O222 2.297 . S
Cd212 O223 2.439 . S
O213 Cd212 2.240 . S
O213 C218 1.279 . S
O214 Cd211 2.297 . S
O214 C216 1.247 . S
O215 Cd211 2.439 . S
O215 C216 1.208 . S
C216 O214 1.247 . S
C216 O215 1.208 . S
C217 O222 1.247 . S
C217 O223 1.208 . S
C218 O210 1.315 . S
C218 O213 1.279 . S
C219 O220 1.315 . S
C219 O221 1.279 . S
O220 Cd212 2.223 . S
O220 C219 1.315 . S
O221 Cd211 2.240 . S
O221 C219 1.279 . S
O222 Cd212 2.297 . S
O222 C217 1.247 . S
O223 Cd212 2.439 . S
O223 C217 1.208 . S
O224 Cd225 2.223 . S
O224 C232 1.315 . S
Cd225 O224 2.223 . S
Cd225 O228 2.297 . S
Cd225 O229 2.439 . S
Cd225 O235 2.240 . S
Cd226 O227 2.240 . S
Cd226 O234 2.223 . S
Cd226 O236 2.297 . S
Cd226 O237 2.439 . S
O227 Cd226 2.240 . S
O227 C232 1.279 . S
O228 Cd225 2.297 . S
O228 C230 1.247 . S
O229 Cd225 2.439 . S
O229 C230 1.208 . S
C230 O228 1.247 . S
C230 O229 1.208 . S
C231 O236 1.247 . S
C231 O237 1.208 . S
C232 O224 1.315 . S
C232 O227 1.279 . S
C233 O234 1.315 . S
C233 O235 1.279 . S
O234 Cd226 2.223 . S
O234 C233 1.315 . S
O235 Cd225 2.240 . S
O235 C233 1.279 . S
O236 Cd226 2.297 . S
O236 C231 1.247 . S
O237 Cd226 2.439 . S
O237 C231 1.208 . S
O238 Cd239 2.223 . S
O238 C246 1.315 . S
Cd239 O238 2.223 . S
Cd239 O242 2.297 . S
Cd239 O243 2.439 . S
Cd239 O249 2.240 . S
Cd240 O241 2.240 . S
Cd240 O248 2.223 . S
Cd240 O250 2.297 . S
Cd240 O251 2.439 . S
O241 Cd240 2.240 . S
O241 C246 1.279 . S
O242 Cd239 2.297 . S
O242 C244 1.247 . S
O243 Cd239 2.439 . S
O243 C244 1.208 . S
C244 O242 1.247 . S
C244 O243 1.208 . S
C245 O250 1.247 . S
C245 O251 1.208 . S
C246 O238 1.315 . S
C246 O241 1.279 . S
C247 O248 1.315 . S
C247 O249 1.279 . S
O248 Cd240 2.223 . S
O248 C247 1.315 . S
O249 Cd239 2.240 . S
O249 C247 1.279 . S
O250 Cd240 2.297 . S
O250 C245 1.247 . S
O251 Cd240 2.439 . S
O251 C245 1.208 . S
O252 Cd253 2.223 . S
O252 C260 1.315 . S
Cd253 O252 2.223 . S
Cd253 O256 2.297 . S
Cd253 O257 2.439 . S
Cd253 O263 2.240 . S
Cd254 O255 2.240 . S
Cd254 O262 2.223 . S
Cd254 O264 2.297 1_554 S
Cd254 O265 2.439 1_554 S
O255 Cd254 2.240 . S
O255 C260 1.279 . S
O256 Cd253 2.297 . S
O256 C258 1.247 . S
O257 Cd253 2.439 . S
O257 C258 1.208 . S
C258 O256 1.247 . S
C258 O257 1.208 . S
C259 O264 1.247 . S
C259 O265 1.208 . S
C260 O252 1.315 . S
C260 O255 1.279 . S
C261 O262 1.315 . S
C261 O263 1.279 . S
O262 Cd254 2.223 . S
O262 C261 1.315 . S
O263 Cd253 2.240 . S
O263 C261 1.279 . S
O264 Cd254 2.297 1_556 S
O264 C259 1.247 . S
O265 Cd254 2.439 1_556 S
O265 C259 1.208 . S
O266 Cd267 2.223 . S
O266 C274 1.315 . S
Cd267 O266 2.223 . S
Cd267 O270 2.297 . S
Cd267 O271 2.439 . S
Cd267 O277 2.240 . S
Cd268 O269 2.240 . S
Cd268 O276 2.223 . S
Cd268 O278 2.297 . S
Cd268 O279 2.439 . S
O269 Cd268 2.240 . S
O269 C274 1.279 . S
O270 Cd267 2.297 . S
O270 C272 1.247 . S
O271 Cd267 2.439 . S
O271 C272 1.208 . S
C272 O270 1.247 . S
C272 O271 1.208 . S
C273 O278 1.247 . S
C273 O279 1.208 . S
C274 O266 1.315 . S
C274 O269 1.279 . S
C275 O276 1.315 . S
C275 O277 1.279 . S
O276 Cd268 2.223 . S
O276 C275 1.315 . S
O277 Cd267 2.240 . S
O277 C275 1.279 . S
O278 Cd268 2.297 . S
O278 C273 1.247 . S
O279 Cd268 2.439 . S
O279 C273 1.208 . S
O280 Cd281 2.223 . S
O280 C288 1.315 . S
Cd281 O280 2.223 . S
Cd281 O284 2.297 . S
Cd281 O285 2.439 . S
Cd281 O291 2.240 . S
Cd282 O283 2.240 . S
Cd282 O290 2.223 . S
Cd282 O292 2.297 1_556 S
Cd282 O293 2.439 1_556 S
O283 Cd282 2.240 . S
O283 C288 1.279 . S
O284 Cd281 2.297 . S
O284 C286 1.247 . S
O285 Cd281 2.439 . S
O285 C286 1.208 . S
C286 O284 1.247 . S
C286 O285 1.208 . S
C287 O292 1.247 . S
C287 O293 1.208 . S
C288 O280 1.315 . S
C288 O283 1.279 . S
C289 O290 1.315 . S
C289 O291 1.279 . S
O290 Cd282 2.223 . S
O290 C289 1.315 . S
O291 Cd281 2.240 . S
O291 C289 1.279 . S
O292 Cd282 2.297 1_554 S
O292 C287 1.247 . S
O293 Cd282 2.439 1_554 S
O293 C287 1.208 . S
O294 Cd295 2.223 . S
O294 C302 1.315 . S
Cd295 O294 2.223 . S
Cd295 O298 2.297 . S
Cd295 O299 2.439 . S
Cd295 O305 2.240 . S
Cd296 O297 2.240 . S
Cd296 O304 2.223 . S
Cd296 O306 2.297 . S
Cd296 O307 2.439 . S
O297 Cd296 2.240 . S
O297 C302 1.279 . S
O298 Cd295 2.297 . S
O298 C300 1.247 . S
O299 Cd295 2.439 . S
O299 C300 1.208 . S
C300 O298 1.247 . S
C300 O299 1.208 . S
C301 O306 1.247 . S
C301 O307 1.208 . S
C302 O294 1.315 . S
C302 O297 1.279 . S
C303 O304 1.315 . S
C303 O305 1.279 . S
O304 Cd296 2.223 . S
O304 C303 1.315 . S
O305 Cd295 2.240 . S
O305 C303 1.279 . S
O306 Cd296 2.297 . S
O306 C301 1.247 . S
O307 Cd296 2.439 . S
O307 C301 1.208 . S
O308 Cd309 2.223 . S
O308 C316 1.315 . S
Cd309 O308 2.223 . S
Cd309 O312 2.297 . S
Cd309 O313 2.439 . S
Cd309 O319 2.240 . S
Cd310 O311 2.240 . S
Cd310 O318 2.223 . S
Cd310 O320 2.297 . S
Cd310 O321 2.439 . S
O311 Cd310 2.240 . S
O311 C316 1.279 . S
O312 Cd309 2.297 . S
O312 C314 1.247 . S
O313 Cd309 2.439 . S
O313 C314 1.208 . S
C314 O312 1.247 . S
C314 O313 1.208 . S
C315 O320 1.247 . S
C315 O321 1.208 . S
C316 O308 1.315 . S
C316 O311 1.279 . S
C317 O318 1.315 . S
C317 O319 1.279 . S
O318 Cd310 2.223 . S
O318 C317 1.315 . S
O319 Cd309 2.240 . S
O319 C317 1.279 . S
O320 Cd310 2.297 . S
O320 C315 1.247 . S
O321 Cd310 2.439 . S
O321 C315 1.208 . S
O322 Cd323 2.223 . S
O322 C330 1.315 . S
Cd323 O322 2.223 . S
Cd323 O326 2.297 . S
Cd323 O327 2.439 . S
Cd323 O333 2.240 . S
Cd324 O325 2.240 . S
Cd324 O332 2.223 . S
Cd324 O334 2.297 . S
Cd324 O335 2.439 . S
O325 Cd324 2.240 . S
O325 C330 1.279 . S
O326 Cd323 2.297 . S
O326 C328 1.247 . S
O327 Cd323 2.439 . S
O327 C328 1.208 . S
C328 O326 1.247 . S
C328 O327 1.208 . S
C329 O334 1.247 . S
C329 O335 1.208 . S
C330 O322 1.315 . S
C330 O325 1.279 . S
C331 O332 1.315 . S
C331 O333 1.279 . S
O332 Cd324 2.223 . S
O332 C331 1.315 . S
O333 Cd323 2.240 . S
O333 C331 1.279 . S
O334 Cd324 2.297 . S
O334 C329 1.247 . S
O335 Cd324 2.439 . S
O335 C329 1.208 . S
O336 Cd337 2.223 . S
O336 C344 1.315 . S
Cd337 O336 2.223 . S
Cd337 O340 2.297 . S
Cd337 O341 2.439 . S
Cd337 O347 2.240 . S
Cd338 O339 2.240 . S
Cd338 O346 2.223 . S
Cd338 O348 2.297 . S
Cd338 O349 2.439 . S
O339 Cd338 2.240 . S
O339 C344 1.279 . S
O340 Cd337 2.297 . S
O340 C342 1.247 . S
O341 Cd337 2.439 . S
O341 C342 1.208 . S
C342 O340 1.247 . S
C342 O341 1.208 . S
C343 O348 1.247 . S
C343 O349 1.208 . S
C344 O336 1.315 . S
C344 O339 1.279 . S
C345 O346 1.315 . S
C345 O347 1.279 . S
O346 Cd338 2.223 . S
O346 C345 1.315 . S
O347 Cd337 2.240 . S
O347 C345 1.279 . S
O348 Cd338 2.297 . S
O348 C343 1.247 . S
O349 Cd338 2.439 . S
O349 C343 1.208 . S
O350 Cd351 2.223 . S
O350 C358 1.315 . S
Cd351 O350 2.223 . S
Cd351 O354 2.297 . S
Cd351 O355 2.439 . S
Cd351 O361 2.240 . S
Cd352 O353 2.240 . S
Cd352 O360 2.223 . S
Cd352 O362 2.297 . S
Cd352 O363 2.439 . S
O353 Cd352 2.240 . S
O353 C358 1.279 . S
O354 Cd351 2.297 . S
O354 C356 1.247 . S
O355 Cd351 2.439 . S
O355 C356 1.208 . S
C356 O354 1.247 . S
C356 O355 1.208 . S
C357 O362 1.247 . S
C357 O363 1.208 . S
C358 O350 1.315 . S
C358 O353 1.279 . S
C359 O360 1.315 . S
C359 O361 1.279 . S
O360 Cd352 2.223 . S
O360 C359 1.315 . S
O361 Cd351 2.240 . S
O361 C359 1.279 . S
O362 Cd352 2.297 . S
O362 C357 1.247 . S
O363 Cd352 2.439 . S
O363 C357 1.208 . S
O364 Cd365 2.223 . S
O364 C372 1.315 . S
Cd365 O364 2.223 . S
Cd365 O368 2.297 . S
Cd365 O369 2.439 . S
Cd365 O375 2.240 . S
Cd366 O367 2.240 . S
Cd366 O374 2.223 . S
Cd366 O376 2.297 1_556 S
Cd366 O377 2.439 1_556 S
O367 Cd366 2.240 . S
O367 C372 1.279 . S
O368 Cd365 2.297 . S
O368 C370 1.247 . S
O369 Cd365 2.439 . S
O369 C370 1.208 . S
C370 O368 1.247 . S
C370 O369 1.208 . S
C371 O376 1.247 . S
C371 O377 1.208 . S
C372 O364 1.315 . S
C372 O367 1.279 . S
C373 O374 1.315 . S
C373 O375 1.279 . S
O374 Cd366 2.223 . S
O374 C373 1.315 . S
O375 Cd365 2.240 . S
O375 C373 1.279 . S
O376 Cd366 2.297 1_554 S
O376 C371 1.247 . S
O377 Cd366 2.439 1_554 S
O377 C371 1.208 . S
O378 Cd379 2.223 . S
O378 C386 1.315 . S
Cd379 O378 2.223 . S
Cd379 O382 2.297 . S
Cd379 O383 2.439 . S
Cd379 O389 2.240 . S
Cd380 O381 2.240 . S
Cd380 O388 2.223 . S
Cd380 O390 2.297 . S
Cd380 O391 2.439 . S
O381 Cd380 2.240 . S
O381 C386 1.279 . S
O382 Cd379 2.297 . S
O382 C384 1.247 . S
O383 Cd379 2.439 . S
O383 C384 1.208 . S
C384 O382 1.247 . S
C384 O383 1.208 . S
C385 O390 1.247 . S
C385 O391 1.208 . S
C386 O378 1.315 . S
C386 O381 1.279 . S
C387 O388 1.315 . S
C387 O389 1.279 . S
O388 Cd380 2.223 . S
O388 C387 1.315 . S
O389 Cd379 2.240 . S
O389 C387 1.279 . S
O390 Cd380 2.297 . S
O390 C385 1.247 . S
O391 Cd380 2.439 . S
O391 C385 1.208 . S
O392 Cd393 2.223 . S
O392 C400 1.315 . S
Cd393 O392 2.223 . S
Cd393 O396 2.297 . S
Cd393 O397 2.439 . S
Cd393 O403 2.240 . S
Cd394 O395 2.240 . S
Cd394 O402 2.223 . S
Cd394 O404 2.297 1_554 S
Cd394 O405 2.439 1_554 S
O395 Cd394 2.240 . S
O395 C400 1.279 . S
O396 Cd393 2.297 . S
O396 C398 1.247 . S
O397 Cd393 2.439 . S
O397 C398 1.208 . S
C398 O396 1.247 . S
C398 O397 1.208 . S
C399 O404 1.247 . S
C399 O405 1.208 . S
C400 O392 1.315 . S
C400 O395 1.279 . S
C401 O402 1.315 . S
C401 O403 1.279 . S
O402 Cd394 2.223 . S
O402 C401 1.315 . S
O403 Cd393 2.240 . S
O403 C401 1.279 . S
O404 Cd394 2.297 1_556 S
O404 C399 1.247 . S
O405 Cd394 2.439 1_556 S
O405 C399 1.208 . S
O406 Cd407 2.223 . S
O406 C414 1.315 . S
Cd407 O406 2.223 . S
Cd407 O410 2.297 . S
Cd407 O411 2.439 . S
Cd407 O417 2.240 . S
Cd408 O409 2.240 . S
Cd408 O416 2.223 . S
Cd408 O418 2.297 . S
Cd408 O419 2.439 . S
O409 Cd408 2.240 . S
O409 C414 1.279 . S
O410 Cd407 2.297 . S
O410 C412 1.247 . S
O411 Cd407 2.439 . S
O411 C412 1.208 . S
C412 O410 1.247 . S
C412 O411 1.208 . S
C413 O418 1.247 . S
C413 O419 1.208 . S
C414 O406 1.315 . S
C414 O409 1.279 . S
C415 O416 1.315 . S
C415 O417 1.279 . S
O416 Cd408 2.223 . S
O416 C415 1.315 . S
O417 Cd407 2.240 . S
O417 C415 1.279 . S
O418 Cd408 2.297 . S
O418 C413 1.247 . S
O419 Cd408 2.439 . S
O419 C413 1.208 . S
O420 Cd421 2.223 . S
O420 C428 1.315 . S
Cd421 O420 2.223 . S
Cd421 O424 2.297 . S
Cd421 O425 2.439 . S
Cd421 O431 2.240 . S
Cd422 O423 2.240 . S
Cd422 O430 2.223 . S
Cd422 O432 2.297 . S
Cd422 O433 2.439 . S
O423 Cd422 2.240 . S
O423 C428 1.279 . S
O424 Cd421 2.297 . S
O424 C426 1.247 . S
O425 Cd421 2.439 . S
O425 C426 1.208 . S
C426 O424 1.247 . S
C426 O425 1.208 . S
C427 O432 1.247 . S
C427 O433 1.208 . S
C428 O420 1.315 . S
C428 O423 1.279 . S
C429 O430 1.315 . S
C429 O431 1.279 . S
O430 Cd422 2.223 . S
O430 C429 1.315 . S
O431 Cd421 2.240 . S
O431 C429 1.279 . S
O432 Cd422 2.297 . S
O432 C427 1.247 . S
O433 Cd422 2.439 . S
O433 C427 1.208 . S
O434 Cd435 2.223 . S
O434 C442 1.315 . S
Cd435 O434 2.223 . S
Cd435 O438 2.297 . S
Cd435 O439 2.439 . S
Cd435 O445 2.240 . S
Cd436 O437 2.240 . S
Cd436 O444 2.223 . S
Cd436 O446 2.297 . S
Cd436 O447 2.439 . S
O437 Cd436 2.240 . S
O437 C442 1.279 . S
O438 Cd435 2.297 . S
O438 C440 1.247 . S
O439 Cd435 2.439 . S
O439 C440 1.208 . S
C440 O438 1.247 . S
C440 O439 1.208 . S
C441 O446 1.247 . S
C441 O447 1.208 . S
C442 O434 1.315 . S
C442 O437 1.279 . S
C443 O444 1.315 . S
C443 O445 1.279 . S
O444 Cd436 2.223 . S
O444 C443 1.315 . S
O445 Cd435 2.240 . S
O445 C443 1.279 . S
O446 Cd436 2.297 . S
O446 C441 1.247 . S
O447 Cd436 2.439 . S
O447 C441 1.208 . S
H448 C456 0.929 . S
H449 C458 0.930 . S
H450 C460 0.930 . S
H451 C463 0.929 . S
H452 C466 0.930 . S
H453 C468 0.960 . S
H454 C468 0.960 . S
H455 C468 0.960 . S
C456 H448 0.929 . S
C456 C457 1.377 . S
C456 C458 1.384 . S
C457 C456 1.377 . S
C457 C463 1.390 . S
C458 H449 0.930 . S
C458 C456 1.384 . S
C458 C459 1.372 . S
C459 C458 1.372 . S
C459 C460 1.400 . S
C459 C464 1.490 . S
C460 H450 0.930 . S
C460 C459 1.400 . S
C460 C463 1.386 . S
H461 C477 0.930 . S
H462 C478 0.931 . S
C463 H451 0.929 . S
C463 C457 1.390 . S
C463 C460 1.386 . S
C464 C459 1.490 . S
C464 C466 1.395 . S
C464 C467 1.403 1_655 S
H465 C471 0.930 . S
C466 H452 0.930 . S
C466 C464 1.395 . S
C466 C469 1.403 . S
C467 C464 1.403 1_455 S
C467 C468 1.524 . S
C467 C471 1.400 . S
C468 H453 0.960 . S
C468 H454 0.960 . S
C468 H455 0.960 . S
C468 C467 1.524 . S
C469 C466 1.403 . S
C469 C470 1.392 1_655 S
C469 C473 1.495 . S
C470 C469 1.392 1_455 S
C470 C471 1.385 . S
C470 C472 1.478 . S
C471 H465 0.930 . S
C471 C467 1.400 . S
C471 C470 1.385 . S
C472 C470 1.478 . S
C472 C474 1.381 . S
C472 C478 1.383 . S
C473 C469 1.495 . S
C473 H479 0.959 . S
C473 H480 0.961 . S
C473 H481 0.960 . S
C474 C472 1.381 . S
C474 C475 1.394 . S
C474 H482 0.930 . S
C475 C474 1.394 . S
C475 C476 1.383 . S
C475 H483 0.929 . S
C476 C475 1.383 . S
C476 C477 1.377 . S
C477 H461 0.930 . S
C477 C476 1.377 . S
C477 C478 1.379 . S
C478 H462 0.931 . S
C478 C472 1.383 . S
C478 C477 1.379 . S
H479 C473 0.959 . S
H480 C473 0.961 . S
H481 C473 0.960 . S
H482 C474 0.930 . S
H483 C475 0.929 . S
H484 C492 0.929 . S
H485 C494 0.930 . S
H486 C496 0.930 . S
H487 C499 0.929 . S
H488 C502 0.930 . S
H489 C504 0.960 1_554 S
H490 C504 0.960 . S
H491 C504 0.960 . S
C492 H484 0.929 . S
C492 C493 1.377 . S
C492 C494 1.384 . S
C493 C492 1.377 . S
C493 C499 1.390 . S
C494 H485 0.930 . S
C494 C492 1.384 . S
C494 C495 1.372 . S
C495 C494 1.372 . S
C495 C496 1.400 . S
C495 C500 1.490 . S
C496 H486 0.930 . S
C496 C495 1.400 . S
C496 C499 1.386 . S
H497 C513 0.930 . S
H498 C514 0.931 . S
C499 H487 0.929 . S
C499 C493 1.390 . S
C499 C496 1.386 . S
C500 C495 1.490 . S
C500 C502 1.395 . S
C500 C503 1.403 . S
H501 C507 0.930 . S
C502 H488 0.930 . S
C502 C500 1.395 . S
C502 C505 1.403 1_556 S
C503 C500 1.403 . S
C503 C504 1.524 . S
C503 C507 1.400 1_556 S
C504 H489 0.960 1_556 S
C504 H490 0.960 . S
C504 H491 0.960 . S
C504 C503 1.524 . S
C505 C502 1.403 1_554 S
C505 C506 1.392 . S
C505 C509 1.495 . S
C506 C505 1.392 . S
C506 C507 1.385 . S
C506 C508 1.478 . S
C507 H501 0.930 . S
C507 C503 1.400 1_554 S
C507 C506 1.385 . S
C508 C506 1.478 . S
C508 C510 1.381 . S
C508 C514 1.383 . S
C509 C505 1.495 . S
C509 H515 0.959 . S
C509 H516 0.961 . S
C509 H517 0.960 . S
C510 C508 1.381 . S
C510 C511 1.394 . S
C510 H518 0.930 . S
C511 C510 1.394 . S
C511 C512 1.383 . S
C511 H519 0.929 . S
C512 C511 1.383 . S
C512 C513 1.377 . S
C513 H497 0.930 . S
C513 C512 1.377 . S
C513 C514 1.379 . S
C514 H498 0.931 . S
C514 C508 1.383 . S
C514 C513 1.379 . S
H515 C509 0.959 . S
H516 C509 0.961 . S
H517 C509 0.960 . S
H518 C510 0.930 . S
H519 C511 0.929 . S
H520 C528 0.929 . S
H521 C530 0.930 . S
H522 C532 0.930 . S
H523 C535 0.929 . S
H524 C538 0.930 . S
H525 C540 0.960 . S
H526 C540 0.960 . S
H527 C540 0.960 . S
C528 H520 0.929 . S
C528 C529 1.377 . S
C528 C530 1.384 . S
C529 C528 1.377 . S
C529 C535 1.390 . S
C530 H521 0.930 . S
C530 C528 1.384 . S
C530 C531 1.372 . S
C531 C530 1.372 . S
C531 C532 1.400 . S
C531 C536 1.490 . S
C532 H522 0.930 . S
C532 C531 1.400 . S
C532 C535 1.386 . S
H533 C549 0.930 . S
H534 C550 0.931 . S
C535 H523 0.929 . S
C535 C529 1.390 . S
C535 C532 1.386 . S
C536 C531 1.490 . S
C536 C538 1.395 . S
C536 C539 1.403 . S
H537 C543 0.930 . S
C538 H524 0.930 . S
C538 C536 1.395 . S
C538 C541 1.403 . S
C539 C536 1.403 . S
C539 C540 1.524 . S
C539 C543 1.400 . S
C540 H525 0.960 . S
C540 H526 0.960 . S
C540 H527 0.960 . S
C540 C539 1.524 . S
C541 C538 1.403 . S
C541 C542 1.392 . S
C541 C545 1.495 . S
C542 C541 1.392 . S
C542 C543 1.385 . S
C542 C544 1.478 . S
C543 H537 0.930 . S
C543 C539 1.400 . S
C543 C542 1.385 . S
C544 C542 1.478 . S
C544 C546 1.381 . S
C544 C550 1.383 . S
C545 C541 1.495 . S
C545 H551 0.959 . S
C545 H552 0.961 . S
C545 H553 0.960 . S
C546 C544 1.381 . S
C546 C547 1.394 . S
C546 H554 0.930 . S
C547 C546 1.394 . S
C547 C548 1.383 . S
C547 H555 0.929 . S
C548 C547 1.383 . S
C548 C549 1.377 . S
C549 H533 0.930 . S
C549 C548 1.377 . S
C549 C550 1.379 . S
C550 H534 0.931 . S
C550 C544 1.383 . S
C550 C549 1.379 . S
H551 C545 0.959 . S
H552 C545 0.961 . S
H553 C545 0.960 . S
H554 C546 0.930 . S
H555 C547 0.929 . S
H556 C564 0.929 . S
H557 C566 0.930 . S
H558 C568 0.930 . S
H559 C571 0.929 . S
H560 C574 0.930 . S
H561 C576 0.960 . S
H562 C576 0.960 . S
H563 C576 0.960 . S
C564 H556 0.929 . S
C564 C565 1.377 . S
C564 C566 1.384 . S
C565 C564 1.377 . S
C565 C571 1.390 . S
C566 H557 0.930 . S
C566 C564 1.384 . S
C566 C567 1.372 . S
C567 C566 1.372 . S
C567 C568 1.400 . S
C567 C572 1.490 . S
C568 H558 0.930 . S
C568 C567 1.400 . S
C568 C571 1.386 . S
H569 C585 0.930 . S
H570 C586 0.931 . S
C571 H559 0.929 . S
C571 C565 1.390 . S
C571 C568 1.386 . S
C572 C567 1.490 . S
C572 C574 1.395 . S
C572 C575 1.403 . S
H573 C579 0.930 . S
C574 H560 0.930 . S
C574 C572 1.395 . S
C574 C577 1.403 . S
C575 C572 1.403 . S
C575 C576 1.524 . S
C575 C579 1.400 . S
C576 H561 0.960 . S
C576 H562 0.960 . S
C576 H563 0.960 . S
C576 C575 1.524 . S
C577 C574 1.403 . S
C577 C578 1.392 . S
C577 C581 1.495 . S
C578 C577 1.392 . S
C578 C579 1.385 . S
C578 C580 1.478 . S
C579 H573 0.930 . S
C579 C575 1.400 . S
C579 C578 1.385 . S
C580 C578 1.478 . S
C580 C582 1.381 . S
C580 C586 1.383 . S
C581 C577 1.495 . S
C581 H587 0.959 . S
C581 H588 0.961 . S
C581 H589 0.960 . S
C582 C580 1.381 . S
C582 C583 1.394 . S
C582 H590 0.930 . S
C583 C582 1.394 . S
C583 C584 1.383 . S
C583 H591 0.929 . S
C584 C583 1.383 . S
C584 C585 1.377 . S
C585 H569 0.930 . S
C585 C584 1.377 . S
C585 C586 1.379 . S
C586 H570 0.931 . S
C586 C580 1.383 . S
C586 C585 1.379 . S
H587 C581 0.959 . S
H588 C581 0.961 . S
H589 C581 0.960 . S
H590 C582 0.930 . S
H591 C583 0.929 . S
H592 C600 0.929 . S
H593 C602 0.930 . S
H594 C604 0.930 . S
H595 C607 0.929 . S
H596 C610 0.930 . S
H597 C612 0.960 . S
H598 C612 0.960 . S
H599 C612 0.960 . S
C600 H592 0.929 . S
C600 C601 1.377 . S
C600 C602 1.384 . S
C601 C600 1.377 . S
C601 C607 1.390 . S
C602 H593 0.930 . S
C602 C600 1.384 . S
C602 C603 1.372 . S
C603 C602 1.372 . S
C603 C604 1.400 . S
C603 C608 1.490 . S
C604 H594 0.930 . S
C604 C603 1.400 . S
C604 C607 1.386 . S
H605 C621 0.930 . S
H606 C622 0.932 . S
C607 H595 0.929 . S
C607 C601 1.390 . S
C607 C604 1.386 . S
C608 C603 1.490 . S
C608 C610 1.395 . S
C608 C611 1.403 1_655 S
H609 C615 0.930 . S
C610 H596 0.930 . S
C610 C608 1.395 . S
C610 C613 1.403 . S
C611 C608 1.403 1_455 S
C611 C612 1.524 . S
C611 C615 1.400 . S
C612 H597 0.960 . S
C612 H598 0.960 . S
C612 H599 0.960 . S
C612 C611 1.524 . S
C613 C610 1.403 . S
C613 C614 1.392 1_655 S
C613 C617 1.495 . S
C614 C613 1.392 1_455 S
C614 C615 1.385 . S
C614 C616 1.478 . S
C615 H609 0.930 . S
C615 C611 1.400 . S
C615 C614 1.385 . S
C616 C614 1.478 . S
C616 C618 1.381 . S
C616 C622 1.383 . S
C617 C613 1.495 . S
C617 H623 0.959 . S
C617 H624 0.961 . S
C617 H625 0.960 . S
C618 C616 1.381 . S
C618 C619 1.394 . S
C618 H626 0.930 . S
C619 C618 1.394 . S
C619 C620 1.383 . S
C619 H627 0.929 . S
C620 C619 1.383 . S
C620 C621 1.377 . S
C621 H605 0.930 . S
C621 C620 1.377 . S
C621 C622 1.379 . S
C622 H606 0.932 . S
C622 C616 1.383 . S
C622 C621 1.379 . S
H623 C617 0.959 . S
H624 C617 0.961 . S
H625 C617 0.960 . S
H626 C618 0.930 . S
H627 C619 0.929 . S
H628 C636 0.929 . S
H629 C638 0.930 . S
H630 C640 0.930 . S
H631 C643 0.929 . S
H632 C646 0.930 . S
H633 C648 0.960 . S
H634 C648 0.960 . S
H635 C648 0.960 . S
C636 H628 0.929 . S
C636 C637 1.377 . S
C636 C638 1.384 . S
C637 C636 1.377 . S
C637 C643 1.390 . S
C638 H629 0.930 . S
C638 C636 1.384 . S
C638 C639 1.372 . S
C639 C638 1.372 . S
C639 C640 1.400 . S
C639 C644 1.490 . S
C640 H630 0.930 . S
C640 C639 1.400 . S
C640 C643 1.386 . S
H641 C657 0.930 . S
H642 C658 0.931 . S
C643 H631 0.929 . S
C643 C637 1.390 . S
C643 C640 1.386 . S
C644 C639 1.490 . S
C644 C646 1.395 . S
C644 C647 1.403 . S
H645 C651 0.930 . S
C646 H632 0.930 . S
C646 C644 1.395 . S
C646 C649 1.403 . S
C647 C644 1.403 . S
C647 C648 1.524 . S
C647 C651 1.400 1_556 S
C648 H633 0.960 . S
C648 H634 0.960 . S
C648 H635 0.960 . S
C648 C647 1.524 . S
C649 C646 1.403 . S
C649 C650 1.392 1_556 S
C649 C653 1.495 1_556 S
C650 C649 1.392 1_554 S
C650 C651 1.385 . S
C650 C652 1.478 . S
C651 H645 0.930 . S
C651 C647 1.400 1_554 S
C651 C650 1.385 . S
C652 C650 1.478 . S
C652 C654 1.381 . S
C652 C658 1.383 . S
C653 C649 1.495 1_554 S
C653 H659 0.959 1_554 S
C653 H660 0.961 . S
C653 H661 0.960 . S
C654 C652 1.381 . S
C654 C655 1.394 . S
C654 H662 0.930 . S
C655 C654 1.394 . S
C655 C656 1.383 . S
C655 H663 0.929 . S
C656 C655 1.383 . S
C656 C657 1.377 . S
C657 H641 0.930 . S
C657 C656 1.377 . S
C657 C658 1.379 . S
C658 H642 0.931 . S
C658 C652 1.383 . S
C658 C657 1.379 . S
H659 C653 0.959 1_556 S
H660 C653 0.961 . S
H661 C653 0.960 . S
H662 C654 0.930 . S
H663 C655 0.929 . S
H664 C672 0.929 . S
H665 C674 0.930 . S
H666 C676 0.930 . S
H667 C679 0.929 . S
H668 C682 0.930 . S
H669 C684 0.960 . S
H670 C684 0.960 . S
H671 C684 0.960 . S
C672 H664 0.929 . S
C672 C673 1.377 . S
C672 C674 1.384 . S
C673 C672 1.377 . S
C673 C679 1.390 . S
C674 H665 0.930 . S
C674 C672 1.384 . S
C674 C675 1.372 . S
C675 C674 1.372 . S
C675 C676 1.400 . S
C675 C680 1.490 . S
C676 H666 0.930 . S
C676 C675 1.400 . S
C676 C679 1.386 . S
H677 C693 0.930 . S
H678 C694 0.931 . S
C679 H667 0.929 . S
C679 C673 1.390 . S
C679 C676 1.386 . S
C680 C675 1.490 . S
C680 C682 1.395 . S
C680 C683 1.403 . S
H681 C687 0.930 . S
C682 H668 0.930 . S
C682 C680 1.395 . S
C682 C685 1.403 . S
C683 C680 1.403 . S
C683 C684 1.524 . S
C683 C687 1.400 . S
C684 H669 0.960 . S
C684 H670 0.960 . S
C684 H671 0.960 . S
C684 C683 1.524 . S
C685 C682 1.403 . S
C685 C686 1.392 . S
C685 C689 1.495 . S
C686 C685 1.392 . S
C686 C687 1.385 . S
C686 C688 1.478 . S
C687 H681 0.930 . S
C687 C683 1.400 . S
C687 C686 1.385 . S
C688 C686 1.478 . S
C688 C690 1.381 . S
C688 C694 1.383 . S
C689 C685 1.495 . S
C689 H695 0.959 . S
C689 H696 0.961 . S
C689 H697 0.960 . S
C690 C688 1.381 . S
C690 C691 1.394 . S
C690 H698 0.930 . S
C691 C690 1.394 . S
C691 C692 1.383 . S
C691 H699 0.929 . S
C692 C691 1.383 . S
C692 C693 1.377 . S
C693 H677 0.930 . S
C693 C692 1.377 . S
C693 C694 1.379 . S
C694 H678 0.931 . S
C694 C688 1.383 . S
C694 C693 1.379 . S
H695 C689 0.959 . S
H696 C689 0.961 . S
H697 C689 0.960 . S
H698 C690 0.930 . S
H699 C691 0.929 . S
H700 C708 0.929 . S
H701 C710 0.930 . S
H702 C712 0.930 . S
H703 C715 0.929 . S
H704 C718 0.930 . S
H705 C720 0.960 . S
H706 C720 0.960 . S
H707 C720 0.960 . S
C708 H700 0.929 . S
C708 C709 1.377 . S
C708 C710 1.384 . S
C709 C708 1.377 . S
C709 C715 1.390 . S
C710 H701 0.930 . S
C710 C708 1.384 . S
C710 C711 1.372 . S
C711 C710 1.372 . S
C711 C712 1.400 . S
C711 C716 1.490 . S
C712 H702 0.930 . S
C712 C711 1.400 . S
C712 C715 1.386 . S
H713 C729 0.930 . S
H714 C730 0.931 . S
C715 H703 0.929 . S
C715 C709 1.390 . S
C715 C712 1.386 . S
C716 C711 1.490 . S
C716 C718 1.395 . S
C716 C719 1.403 . S
H717 C723 0.930 . S
C718 H704 0.930 . S
C718 C716 1.395 . S
C718 C721 1.403 . S
C719 C716 1.403 . S
C719 C720 1.524 . S
C719 C723 1.400 . S
C720 H705 0.960 . S
C720 H706 0.960 . S
C720 H707 0.960 . S
C720 C719 1.524 . S
C721 C718 1.403 . S
C721 C722 1.392 . S
C721 C725 1.495 . S
C722 C721 1.392 . S
C722 C723 1.385 . S
C722 C724 1.478 . S
C723 H717 0.930 . S
C723 C719 1.400 . S
C723 C722 1.385 . S
C724 C722 1.478 . S
C724 C726 1.381 . S
C724 C730 1.383 . S
C725 C721 1.495 . S
C725 H731 0.959 . S
C725 H732 0.961 . S
C725 H733 0.960 . S
C726 C724 1.381 . S
C726 C727 1.394 . S
C726 H734 0.930 . S
C727 C726 1.394 . S
C727 C728 1.383 . S
C727 H735 0.929 . S
C728 C727 1.383 . S
C728 C729 1.377 . S
C729 H713 0.930 . S
C729 C728 1.377 . S
C729 C730 1.379 . S
C730 H714 0.931 . S
C730 C724 1.383 . S
C730 C729 1.379 . S
H731 C725 0.959 . S
H732 C725 0.961 . S
H733 C725 0.960 . S
H734 C726 0.930 . S
H735 C727 0.929 . S
H736 C744 0.929 . S
H737 C746 0.930 1_655 S
H738 C748 0.930 . S
H739 C751 0.929 . S
H740 C754 0.930 . S
H741 C756 0.960 . S
H742 C756 0.960 . S
H743 C756 0.960 . S
C744 H736 0.929 . S
C744 C745 1.377 . S
C744 C746 1.384 . S
C745 C744 1.377 . S
C745 C751 1.390 . S
C746 H737 0.930 1_455 S
C746 C744 1.384 . S
C746 C747 1.372 . S
C747 C746 1.372 . S
C747 C748 1.400 . S
C747 C752 1.490 . S
C748 H738 0.930 . S
C748 C747 1.400 . S
C748 C751 1.386 . S
H749 C765 0.930 . S
H750 C766 0.984 . S
C751 H739 0.929 . S
C751 C745 1.390 . S
C751 C748 1.386 . S
C752 C747 1.490 . S
C752 C754 1.395 1_455 S
C752 C755 1.403 . S
H753 C759 0.930 . S
C754 H740 0.930 . S
C754 C752 1.395 1_655 S
C754 C757 1.403 . S
C755 C752 1.403 . S
C755 C756 1.524 . S
C755 C759 1.400 . S
C756 H741 0.960 . S
C756 H742 0.960 . S
C756 H743 0.960 . S
C756 C755 1.524 . S
C757 C754 1.403 . S
C757 C758 1.392 . S
C757 C761 1.495 . S
C758 C757 1.392 . S
C758 C759 1.385 1_655 S
C758 C760 1.478 . S
C759 H753 0.930 . S
C759 C755 1.400 . S
C759 C758 1.385 1_455 S
C760 C758 1.478 . S
C760 C762 1.381 . S
C760 C766 1.383 . S
C761 C757 1.495 . S
C761 H767 0.959 . S
C761 H768 0.961 . S
C761 H769 0.960 . S
C762 C760 1.381 . S
C762 C763 1.394 . S
C762 H770 0.930 . S
C763 C762 1.394 . S
C763 C764 1.383 . S
C763 H771 0.929 . S
C764 C763 1.383 . S
C764 C765 1.377 . S
C765 H749 0.930 . S
C765 C764 1.377 . S
C765 C766 1.379 . S
C766 H750 0.984 . S
C766 C760 1.383 . S
C766 C765 1.379 . S
H767 C761 0.959 . S
H768 C761 0.961 . S
H769 C761 0.960 . S
H770 C762 0.930 . S
H771 C763 0.929 . S
H772 C780 0.929 . S
H773 C782 0.930 . S
H774 C784 0.930 . S
H775 C787 0.929 . S
H776 C790 0.930 . S
H777 C792 0.960 1_556 S
H778 C792 0.960 . S
H779 C792 0.960 . S
C780 H772 0.929 . S
C780 C781 1.377 . S
C780 C782 1.384 . S
C781 C780 1.377 . S
C781 C787 1.390 . S
C782 H773 0.930 . S
C782 C780 1.384 . S
C782 C783 1.372 . S
C783 C782 1.372 . S
C783 C784 1.400 . S
C783 C788 1.490 . S
C784 H774 0.930 . S
C784 C783 1.400 . S
C784 C787 1.386 . S
H785 C801 0.930 . S
H786 C802 0.931 . S
C787 H775 0.929 . S
C787 C781 1.390 . S
C787 C784 1.386 . S
C788 C783 1.490 . S
C788 C790 1.395 . S
C788 C791 1.403 1_554 S
H789 C795 0.930 . S
C790 H776 0.930 . S
C790 C788 1.395 . S
C790 C793 1.403 1_554 S
C791 C788 1.403 1_556 S
C791 C792 1.524 1_556 S
C791 C795 1.400 . S
C792 H777 0.960 1_554 S
C792 H778 0.960 . S
C792 H779 0.960 . S
C792 C791 1.524 1_554 S
C793 C790 1.403 1_556 S
C793 C794 1.392 . S
C793 C797 1.495 . S
C794 C793 1.392 . S
C794 C795 1.385 . S
C794 C796 1.478 . S
C795 H789 0.930 . S
C795 C791 1.400 . S
C795 C794 1.385 . S
C796 C794 1.478 . S
C796 C798 1.381 . S
C796 C802 1.383 . S
C797 C793 1.495 . S
C797 H803 0.959 . S
C797 H804 0.961 . S
C797 H805 0.960 . S
C798 C796 1.381 . S
C798 C799 1.394 . S
C798 H806 0.930 . S
C799 C798 1.394 . S
C799 C800 1.383 . S
C799 H807 0.929 . S
C800 C799 1.383 . S
C800 C801 1.377 . S
C801 H785 0.930 . S
C801 C800 1.377 . S
C801 C802 1.379 . S
C802 H786 0.931 . S
C802 C796 1.383 . S
C802 C801 1.379 . S
H803 C797 0.959 . S
H804 C797 0.961 . S
H805 C797 0.960 . S
H806 C798 0.930 . S
H807 C799 0.929 . S
H808 C816 0.929 . S
H809 C818 0.930 . S
H810 C820 0.930 . S
H811 C823 0.929 . S
H812 C826 0.930 . S
H813 C828 0.960 . S
H814 C828 0.960 . S
H815 C828 0.960 . S
C816 H808 0.929 . S
C816 C817 1.377 . S
C816 C818 1.384 . S
C817 C816 1.377 . S
C817 C823 1.390 . S
C818 H809 0.930 . S
C818 C816 1.384 . S
C818 C819 1.372 . S
C819 C818 1.372 . S
C819 C820 1.400 . S
C819 C824 1.490 . S
C820 H810 0.930 . S
C820 C819 1.400 . S
C820 C823 1.386 . S
H821 C837 0.930 . S
H822 C838 0.931 . S
C823 H811 0.929 . S
C823 C817 1.390 . S
C823 C820 1.386 . S
C824 C819 1.490 . S
C824 C826 1.395 . S
C824 C827 1.403 . S
H825 C831 0.930 . S
C826 H812 0.930 . S
C826 C824 1.395 . S
C826 C829 1.403 . S
C827 C824 1.403 . S
C827 C828 1.524 . S
C827 C831 1.400 . S
C828 H813 0.960 . S
C828 H814 0.960 . S
C828 H815 0.960 . S
C828 C827 1.524 . S
C829 C826 1.403 . S
C829 C830 1.392 . S
C829 C833 1.495 . S
C830 C829 1.392 . S
C830 C831 1.385 . S
C830 C832 1.478 . S
C831 H825 0.930 . S
C831 C827 1.400 . S
C831 C830 1.385 . S
C832 C830 1.478 . S
C832 C834 1.381 . S
C832 C838 1.383 . S
C833 C829 1.495 . S
C833 H839 0.959 . S
C833 H840 0.961 . S
C833 H841 0.960 . S
C834 C832 1.381 . S
C834 C835 1.394 . S
C834 H842 0.930 . S
C835 C834 1.394 . S
C835 C836 1.383 . S
C835 H843 0.929 . S
C836 C835 1.383 . S
C836 C837 1.377 . S
C837 H821 0.930 . S
C837 C836 1.377 . S
C837 C838 1.379 . S
C838 H822 0.931 . S
C838 C832 1.383 . S
C838 C837 1.379 . S
H839 C833 0.959 . S
H840 C833 0.961 . S
H841 C833 0.960 . S
H842 C834 0.930 . S
H843 C835 0.929 . S
H844 C852 0.929 . S
H845 C854 0.930 . S
H846 C856 0.930 . S
H847 C859 0.929 . S
H848 C862 0.930 . S
H849 C864 0.960 . S
H850 C864 0.960 . S
H851 C864 0.960 . S
C852 H844 0.929 . S
C852 C853 1.377 . S
C852 C854 1.384 . S
C853 C852 1.377 . S
C853 C859 1.390 . S
C854 H845 0.930 . S
C854 C852 1.384 . S
C854 C855 1.372 . S
C855 C854 1.372 . S
C855 C856 1.400 . S
C855 C860 1.490 . S
C856 H846 0.930 . S
C856 C855 1.400 . S
C856 C859 1.386 . S
H857 C873 0.930 . S
H858 C874 0.931 . S
C859 H847 0.929 . S
C859 C853 1.390 . S
C859 C856 1.386 . S
C860 C855 1.490 . S
C860 C862 1.395 . S
C860 C863 1.403 . S
H861 C867 0.930 . S
C862 H848 0.930 . S
C862 C860 1.395 . S
C862 C865 1.403 . S
C863 C860 1.403 . S
C863 C864 1.524 . S
C863 C867 1.400 . S
C864 H849 0.960 . S
C864 H850 0.960 . S
C864 H851 0.960 . S
C864 C863 1.524 . S
C865 C862 1.403 . S
C865 C866 1.392 . S
C865 C869 1.495 . S
C866 C865 1.392 . S
C866 C867 1.385 . S
C866 C868 1.478 . S
C867 H861 0.930 . S
C867 C863 1.400 . S
C867 C866 1.385 . S
C868 C866 1.478 . S
C868 C870 1.381 . S
C868 C874 1.383 . S
C869 C865 1.495 . S
C869 H875 0.959 . S
C869 H876 0.961 . S
C869 H877 0.960 . S
C870 C868 1.381 . S
C870 C871 1.394 . S
C870 H878 0.930 . S
C871 C870 1.394 . S
C871 C872 1.383 . S
C871 H879 0.929 . S
C872 C871 1.383 . S
C872 C873 1.377 . S
C873 H857 0.930 . S
C873 C872 1.377 . S
C873 C874 1.379 . S
C874 H858 0.931 . S
C874 C868 1.383 . S
C874 C873 1.379 . S
H875 C869 0.959 . S
H876 C869 0.961 . S
H877 C869 0.960 . S
H878 C870 0.930 . S
H879 C871 0.929 . S
H880 C888 0.929 . S
H881 C890 0.930 . S
H882 C892 0.930 1_455 S
H883 C895 0.929 . S
H884 C898 0.930 . S
H885 C900 0.960 . S
H886 C900 0.960 . S
H887 C900 0.960 . S
C888 H880 0.929 . S
C888 C889 1.377 . S
C888 C890 1.384 . S
C889 C888 1.377 . S
C889 C895 1.390 . S
C890 H881 0.930 . S
C890 C888 1.384 . S
C890 C891 1.372 . S
C891 C890 1.372 . S
C891 C892 1.400 . S
C891 C896 1.490 . S
C892 H882 0.930 1_655 S
C892 C891 1.400 . S
C892 C895 1.386 . S
H893 C909 0.930 . S
H894 C910 0.931 . S
C895 H883 0.929 . S
C895 C889 1.390 . S
C895 C892 1.386 . S
C896 C891 1.490 . S
C896 C898 1.395 . S
C896 C899 1.403 1_655 S
H897 C903 0.930 . S
C898 H884 0.930 . S
C898 C896 1.395 . S
C898 C901 1.403 . S
C899 C896 1.403 1_455 S
C899 C900 1.524 . S
C899 C903 1.400 . S
C900 H885 0.960 . S
C900 H886 0.960 . S
C900 H887 0.960 . S
C900 C899 1.524 . S
C901 C898 1.403 . S
C901 C902 1.392 1_655 S
C901 C905 1.495 . S
C902 C901 1.392 1_455 S
C902 C903 1.385 . S
C902 C904 1.478 . S
C903 H897 0.930 . S
C903 C899 1.400 . S
C903 C902 1.385 . S
C904 C902 1.478 . S
C904 C906 1.407 . S
C904 C910 1.383 . S
C905 C901 1.495 . S
C905 H911 0.959 . S
C905 H912 0.961 . S
C905 H913 0.960 . S
C906 C904 1.407 . S
C906 C907 1.420 . S
C906 H914 0.883 1_455 S
C907 C906 1.420 . S
C907 C908 1.383 . S
C907 H915 0.929 . S
C908 C907 1.383 . S
C908 C909 1.377 . S
C909 H893 0.930 . S
C909 C908 1.377 . S
C909 C910 1.379 . S
C910 H894 0.931 . S
C910 C904 1.383 . S
C910 C909 1.379 . S
H911 C905 0.959 . S
H912 C905 0.961 . S
H913 C905 0.960 . S
H914 C906 0.883 1_655 S
H915 C907 0.929 . S
H916 C924 0.929 . S
H917 C926 0.930 . S
H918 C928 0.930 . S
H919 C931 0.929 . S
H920 C934 0.930 . S
H921 C936 0.960 . S
H922 C936 0.960 . S
H923 C936 0.960 . S
C924 H916 0.929 . S
C924 C925 1.377 . S
C924 C926 1.384 . S
C925 C924 1.377 . S
C925 C931 1.390 . S
C926 H917 0.930 . S
C926 C924 1.384 . S
C926 C927 1.372 . S
C927 C926 1.372 . S
C927 C928 1.400 . S
C927 C932 1.490 . S
C928 H918 0.930 . S
C928 C927 1.400 . S
C928 C931 1.386 . S
H929 C945 0.930 . S
H930 C946 0.931 . S
C931 H919 0.929 . S
C931 C925 1.390 . S
C931 C928 1.386 . S
C932 C927 1.490 . S
C932 C934 1.395 . S
C932 C935 1.403 . S
H933 C939 0.930 . S
C934 H920 0.930 . S
C934 C932 1.395 . S
C934 C937 1.403 1_554 S
C935 C932 1.403 . S
C935 C936 1.524 . S
C935 C939 1.400 1_554 S
C936 H921 0.960 . S
C936 H922 0.960 . S
C936 H923 0.960 . S
C936 C935 1.524 . S
C937 C934 1.403 1_556 S
C937 C938 1.392 . S
C937 C941 1.495 . S
C938 C937 1.392 . S
C938 C939 1.385 . S
C938 C940 1.478 . S
C939 H933 0.930 . S
C939 C935 1.400 1_556 S
C939 C938 1.385 . S
C940 C938 1.478 . S
C940 C942 1.381 . S
C940 C946 1.383 . S
C941 C937 1.495 . S
C941 H947 0.959 . S
C941 H948 0.961 . S
C941 H949 0.960 . S
C942 C940 1.381 . S
C942 C943 1.394 . S
C942 H950 0.930 . S
C943 C942 1.394 . S
C943 C944 1.383 . S
C943 H951 0.929 . S
C944 C943 1.383 . S
C944 C945 1.377 . S
C945 H929 0.930 . S
C945 C944 1.377 . S
C945 C946 1.379 . S
C946 H930 0.931 . S
C946 C940 1.383 . S
C946 C945 1.379 . S
H947 C941 0.959 . S
H948 C941 0.961 . S
H949 C941 0.960 . S
H950 C942 0.930 . S
H951 C943 0.929 . S
H952 C960 0.929 . S
H953 C962 0.930 . S
H954 C964 0.930 . S
H955 C967 0.929 . S
H956 C970 0.930 . S
H957 C972 0.960 . S
H958 C972 0.960 . S
H959 C972 0.960 . S
C960 H952 0.929 . S
C960 C961 1.377 . S
C960 C962 1.384 . S
C961 C960 1.377 . S
C961 C967 1.390 . S
C962 H953 0.930 . S
C962 C960 1.384 . S
C962 C963 1.372 . S
C963 C962 1.372 . S
C963 C964 1.400 . S
C963 C968 1.490 . S
C964 H954 0.930 . S
C964 C963 1.400 . S
C964 C967 1.386 . S
H965 C981 0.930 . S
H966 C982 0.931 . S
C967 H955 0.929 . S
C967 C961 1.390 . S
C967 C964 1.386 . S
C968 C963 1.490 . S
C968 C970 1.395 . S
C968 C971 1.403 . S
H969 C975 0.930 . S
C970 H956 0.930 . S
C970 C968 1.395 . S
C970 C973 1.403 . S
C971 C968 1.403 . S
C971 C972 1.524 . S
C971 C975 1.400 . S
C972 H957 0.960 . S
C972 H958 0.960 . S
C972 H959 0.960 . S
C972 C971 1.524 . S
C973 C970 1.403 . S
C973 C974 1.392 . S
C973 C977 1.495 . S
C974 C973 1.392 . S
C974 C975 1.385 . S
C974 C976 1.478 . S
C975 H969 0.930 . S
C975 C971 1.400 . S
C975 C974 1.385 . S
C976 C974 1.478 . S
C976 C978 1.381 . S
C976 C982 1.383 . S
C977 C973 1.495 . S
C977 H983 0.959 . S
C977 H984 0.961 . S
C977 H985 0.960 . S
C978 C976 1.381 . S
C978 C979 1.394 . S
C978 H986 0.930 . S
C979 C978 1.394 . S
C979 C980 1.383 . S
C979 H987 0.929 . S
C980 C979 1.383 . S
C980 C981 1.377 . S
C981 H965 0.930 . S
C981 C980 1.377 . S
C981 C982 1.379 . S
C982 H966 0.931 . S
C982 C976 1.383 . S
C982 C981 1.379 . S
H983 C977 0.959 . S
H984 C977 0.961 . S
H985 C977 0.960 . S
H986 C978 0.930 . S
H987 C979 0.929 . S
H988 C996 0.929 . S
H989 C998 0.930 . S
H990 C1000 0.930 . S
H991 C1003 0.929 . S
H992 C1006 0.930 . S
H993 C1008 0.960 . S
H994 C1008 0.960 . S
H995 C1008 0.960 . S
C996 H988 0.929 . S
C996 C997 1.377 . S
C996 C998 1.384 . S
C997 C996 1.377 . S
C997 C1003 1.390 . S
C998 H989 0.930 . S
C998 C996 1.384 . S
C998 C999 1.372 . S
C999 C998 1.372 . S
C999 C1000 1.400 . S
C999 C1004 1.490 . S
C1000 H990 0.930 . S
C1000 C999 1.400 . S
C1000 C1003 1.386 . S
H1001 C1017 0.930 . S
H1002 C1018 0.931 . S
C1003 H991 0.929 . S
C1003 C997 1.390 . S
C1003 C1000 1.386 . S
C1004 C999 1.490 . S
C1004 C1006 1.395 . S
C1004 C1007 1.403 . S
H1005 C1011 0.930 . S
C1006 H992 0.930 . S
C1006 C1004 1.395 . S
C1006 C1009 1.403 . S
C1007 C1004 1.403 . S
C1007 C1008 1.524 . S
C1007 C1011 1.400 . S
C1008 H993 0.960 . S
C1008 H994 0.960 . S
C1008 H995 0.960 . S
C1008 C1007 1.524 . S
C1009 C1006 1.403 . S
C1009 C1010 1.392 . S
C1009 C1013 1.495 . S
C1010 C1009 1.392 . S
C1010 C1011 1.385 . S
C1010 C1012 1.478 . S
C1011 H1005 0.930 . S
C1011 C1007 1.400 . S
C1011 C1010 1.385 . S
C1012 C1010 1.478 . S
C1012 C1014 1.381 . S
C1012 C1018 1.383 . S
C1013 C1009 1.495 . S
C1013 H1019 0.959 . S
C1013 H1020 0.961 . S
C1013 H1021 0.960 . S
C1014 C1012 1.381 . S
C1014 C1015 1.394 . S
C1014 H1022 0.930 . S
C1015 C1014 1.394 . S
C1015 C1016 1.383 . S
C1015 H1023 0.929 . S
C1016 C1015 1.383 . S
C1016 C1017 1.377 . S
C1017 H1001 0.930 . S
C1017 C1016 1.377 . S
C1017 C1018 1.379 . S
C1018 H1002 0.931 . S
C1018 C1012 1.383 . S
C1018 C1017 1.379 . S
H1019 C1013 0.959 . S
H1020 C1013 0.961 . S
H1021 C1013 0.960 . S
H1022 C1014 0.930 . S
H1023 C1015 0.929 . S
H1024 C1032 0.929 . S
H1025 C1034 0.930 . S
H1026 C1036 0.930 . S
H1027 C1039 0.929 . S
H1028 C1042 0.930 . S
H1029 C1044 0.960 . S
H1030 C1044 0.960 . S
H1031 C1044 0.960 . S
C1032 H1024 0.929 . S
C1032 C1033 1.377 . S
C1032 C1034 1.384 . S
C1033 C1032 1.377 . S
C1033 C1039 1.390 . S
C1034 H1025 0.930 . S
C1034 C1032 1.384 . S
C1034 C1035 1.372 . S
C1035 C1034 1.372 . S
C1035 C1036 1.400 . S
C1035 C1040 1.490 . S
C1036 H1026 0.930 . S
C1036 C1035 1.400 . S
C1036 C1039 1.386 . S
H1037 C1053 0.930 . S
H1038 C1054 0.931 . S
C1039 H1027 0.929 . S
C1039 C1033 1.390 . S
C1039 C1036 1.386 . S
C1040 C1035 1.490 . S
C1040 C1042 1.395 . S
C1040 C1043 1.403 . S
H1041 C1047 0.930 . S
C1042 H1028 0.930 . S
C1042 C1040 1.395 . S
C1042 C1045 1.403 . S
C1043 C1040 1.403 . S
C1043 C1044 1.524 . S
C1043 C1047 1.400 . S
C1044 H1029 0.960 . S
C1044 H1030 0.960 . S
C1044 H1031 0.960 . S
C1044 C1043 1.524 . S
C1045 C1042 1.403 . S
C1045 C1046 1.392 . S
C1045 C1049 1.495 . S
C1046 C1045 1.392 . S
C1046 C1047 1.385 . S
C1046 C1048 1.478 . S
C1047 H1041 0.930 . S
C1047 C1043 1.400 . S
C1047 C1046 1.385 . S
C1048 C1046 1.478 . S
C1048 C1050 1.381 . S
C1048 C1054 1.383 . S
C1049 C1045 1.495 . S
C1049 H1055 0.959 . S
C1049 H1056 0.961 . S
C1049 H1057 0.960 . S
C1050 C1048 1.381 . S
C1050 C1051 1.394 . S
C1050 H1058 0.930 . S
C1051 C1050 1.394 . S
C1051 C1052 1.383 . S
C1051 H1059 0.929 . S
C1052 C1051 1.383 . S
C1052 C1053 1.377 . S
C1053 H1037 0.930 . S
C1053 C1052 1.377 . S
C1053 C1054 1.379 . S
C1054 H1038 0.931 . S
C1054 C1048 1.383 . S
C1054 C1053 1.379 . S
H1055 C1049 0.959 . S
H1056 C1049 0.961 . S
H1057 C1049 0.960 . S
H1058 C1050 0.930 . S
H1059 C1051 0.929 . S
H1060 C1068 0.929 . S
H1061 C1070 0.930 . S
H1062 C1072 0.930 . S
H1063 C1075 0.929 . S
H1064 C1078 0.930 . S
H1065 C1080 0.960 . S
H1066 C1080 0.960 . S
H1067 C1080 0.960 . S
C1068 H1060 0.929 . S
C1068 C1069 1.377 . S
C1068 C1070 1.384 . S
C1069 C1068 1.377 . S
C1069 C1075 1.390 . S
C1070 H1061 0.930 . S
C1070 C1068 1.384 . S
C1070 C1071 1.372 . S
C1071 C1070 1.372 . S
C1071 C1072 1.400 . S
C1071 C1076 1.490 . S
C1072 H1062 0.930 . S
C1072 C1071 1.400 . S
C1072 C1075 1.386 . S
H1073 C1089 0.930 . S
H1074 C1090 0.931 . S
C1075 H1063 0.929 . S
C1075 C1069 1.390 . S
C1075 C1072 1.386 . S
C1076 C1071 1.490 . S
C1076 C1078 1.395 . S
C1076 C1079 1.403 . S
H1077 C1083 0.930 . S
C1078 H1064 0.930 . S
C1078 C1076 1.395 . S
C1078 C1081 1.403 . S
C1079 C1076 1.403 . S
C1079 C1080 1.524 . S
C1079 C1083 1.400 . S
C1080 H1065 0.960 . S
C1080 H1066 0.960 . S
C1080 H1067 0.960 . S
C1080 C1079 1.524 . S
C1081 C1078 1.403 . S
C1081 C1082 1.392 . S
C1081 C1085 1.495 . S
C1082 C1081 1.392 . S
C1082 C1083 1.385 . S
C1082 C1084 1.478 . S
C1083 H1077 0.930 . S
C1083 C1079 1.400 . S
C1083 C1082 1.385 . S
C1084 C1082 1.478 . S
C1084 C1086 1.381 . S
C1084 C1090 1.383 . S
C1085 C1081 1.495 . S
C1085 H1091 0.959 . S
C1085 H1092 0.961 . S
C1085 H1093 0.960 . S
C1086 C1084 1.381 . S
C1086 C1087 1.394 . S
C1086 H1094 0.930 . S
C1087 C1086 1.394 . S
C1087 C1088 1.383 . S
C1087 H1095 0.929 . S
C1088 C1087 1.383 . S
C1088 C1089 1.377 . S
C1089 H1073 0.930 . S
C1089 C1088 1.377 . S
C1089 C1090 1.379 . S
C1090 H1074 0.931 . S
C1090 C1084 1.383 . S
C1090 C1089 1.379 . S
H1091 C1085 0.959 . S
H1092 C1085 0.961 . S
H1093 C1085 0.960 . S
H1094 C1086 0.930 . S
H1095 C1087 0.929 . S
H1096 C1104 0.929 . S
H1097 C1106 0.930 . S
H1098 C1108 0.899 1_655 S
H1099 C1111 0.929 1_655 S
H1100 C1114 0.930 . S
H1101 C1116 0.960 . S
H1102 C1116 0.960 . S
H1103 C1116 0.960 . S
C1104 H1096 0.929 . S
C1104 C1105 1.377 . S
C1104 C1106 1.384 . S
C1105 C1104 1.377 . S
C1105 C1111 1.390 . S
C1106 H1097 0.930 . S
C1106 C1104 1.384 . S
C1106 C1107 1.372 . S
C1107 C1106 1.372 . S
C1107 C1108 1.421 . S
C1107 C1112 1.490 . S
C1108 H1098 0.899 1_455 S
C1108 C1107 1.421 . S
C1108 C1111 1.396 . S
H1109 C1125 0.930 . S
H1110 C1126 0.931 . S
C1111 H1099 0.929 1_455 S
C1111 C1105 1.390 . S
C1111 C1108 1.396 . S
C1112 C1107 1.490 . S
C1112 C1114 1.395 . S
C1112 C1115 1.403 1_455 S
H1113 C1119 0.930 . S
C1114 H1100 0.930 . S
C1114 C1112 1.395 . S
C1114 C1117 1.403 . S
C1115 C1112 1.403 1_655 S
C1115 C1116 1.524 . S
C1115 C1119 1.400 . S
C1116 H1101 0.960 . S
C1116 H1102 0.960 . S
C1116 H1103 0.960 . S
C1116 C1115 1.524 . S
C1117 C1114 1.403 . S
C1117 C1118 1.392 1_455 S
C1117 C1121 1.495 . S
C1118 C1117 1.392 1_655 S
C1118 C1119 1.385 . S
C1118 C1120 1.478 . S
C1119 H1113 0.930 . S
C1119 C1115 1.400 . S
C1119 C1118 1.385 . S
C1120 C1118 1.478 . S
C1120 C1122 1.351 1_655 S
C1120 C1126 1.383 . S
C1121 C1117 1.495 . S
C1121 H1127 0.959 . S
C1121 H1128 0.961 . S
C1121 H1129 0.960 . S
C1122 C1120 1.351 1_455 S
C1122 C1123 1.373 1_455 S
C1122 H1130 0.986 . S
C1123 C1122 1.373 1_655 S
C1123 C1124 1.383 . S
C1123 H1131 0.907 1_655 S
C1124 C1123 1.383 . S
C1124 C1125 1.377 . S
C1125 H1109 0.930 . S
C1125 C1124 1.377 . S
C1125 C1126 1.379 . S
C1126 H1110 0.931 . S
C1126 C1120 1.383 . S
C1126 C1125 1.379 . S
H1127 C1121 0.959 . S
H1128 C1121 0.961 . S
H1129 C1121 0.960 . S
H1130 C1122 0.986 . S
H1131 C1123 0.907 1_455 S
H1132 C1140 0.929 . S
H1133 C1142 0.930 . S
H1134 C1144 0.930 . S
H1135 C1147 0.929 . S
H1136 C1150 0.930 . S
H1137 C1152 0.960 . S
H1138 C1152 0.960 . S
H1139 C1152 0.960 . S
C1140 H1132 0.929 . S
C1140 C1141 1.377 . S
C1140 C1142 1.384 . S
C1141 C1140 1.377 . S
C1141 C1147 1.390 . S
C1142 H1133 0.930 . S
C1142 C1140 1.384 . S
C1142 C1143 1.372 . S
C1143 C1142 1.372 . S
C1143 C1144 1.400 . S
C1143 C1148 1.490 . S
C1144 H1134 0.930 . S
C1144 C1143 1.400 . S
C1144 C1147 1.386 . S
H1145 C1161 0.930 . S
H1146 C1162 0.931 . S
C1147 H1135 0.929 . S
C1147 C1141 1.390 . S
C1147 C1144 1.386 . S
C1148 C1143 1.490 . S
C1148 C1150 1.395 . S
C1148 C1151 1.403 . S
H1149 C1155 0.930 . S
C1150 H1136 0.930 . S
C1150 C1148 1.395 . S
C1150 C1153 1.403 . S
C1151 C1148 1.403 . S
C1151 C1152 1.524 . S
C1151 C1155 1.400 1_554 S
C1152 H1137 0.960 . S
C1152 H1138 0.960 . S
C1152 H1139 0.960 . S
C1152 C1151 1.524 . S
C1153 C1150 1.403 . S
C1153 C1154 1.392 1_554 S
C1153 C1157 1.495 1_554 S
C1154 C1153 1.392 1_556 S
C1154 C1155 1.385 . S
C1154 C1156 1.478 . S
C1155 H1149 0.930 . S
C1155 C1151 1.400 1_556 S
C1155 C1154 1.385 . S
C1156 C1154 1.478 . S
C1156 C1158 1.381 . S
C1156 C1162 1.383 . S
C1157 C1153 1.495 1_556 S
C1157 H1163 0.959 1_556 S
C1157 H1164 0.961 . S
C1157 H1165 0.960 . S
C1158 C1156 1.381 . S
C1158 C1159 1.394 . S
C1158 H1166 0.930 . S
C1159 C1158 1.394 . S
C1159 C1160 1.383 . S
C1159 H1167 0.929 . S
C1160 C1159 1.383 . S
C1160 C1161 1.377 . S
C1161 H1145 0.930 . S
C1161 C1160 1.377 . S
C1161 C1162 1.379 . S
C1162 H1146 0.931 . S
C1162 C1156 1.383 . S
C1162 C1161 1.379 . S
H1163 C1157 0.959 1_554 S
H1164 C1157 0.961 . S
H1165 C1157 0.960 . S
H1166 C1158 0.930 . S
H1167 C1159 0.929 . S
H1168 C1176 0.929 . S
H1169 C1178 0.930 . S
H1170 C1180 0.930 . S
H1171 C1183 0.929 . S
H1172 C1186 0.930 . S
H1173 C1188 0.960 . S
H1174 C1188 0.960 . S
H1175 C1188 0.960 . S
C1176 H1168 0.929 . S
C1176 C1177 1.377 . S
C1176 C1178 1.384 . S
C1177 C1176 1.377 . S
C1177 C1183 1.390 . S
C1178 H1169 0.930 . S
C1178 C1176 1.384 . S
C1178 C1179 1.372 . S
C1179 C1178 1.372 . S
C1179 C1180 1.400 . S
C1179 C1184 1.490 . S
C1180 H1170 0.930 . S
C1180 C1179 1.400 . S
C1180 C1183 1.386 . S
H1181 C1197 0.930 . S
H1182 C1198 0.931 . S
C1183 H1171 0.929 . S
C1183 C1177 1.390 . S
C1183 C1180 1.386 . S
C1184 C1179 1.490 . S
C1184 C1186 1.395 . S
C1184 C1187 1.403 . S
H1185 C1191 0.930 . S
C1186 H1172 0.930 . S
C1186 C1184 1.395 . S
C1186 C1189 1.403 . S
C1187 C1184 1.403 . S
C1187 C1188 1.524 . S
C1187 C1191 1.400 . S
C1188 H1173 0.960 . S
C1188 H1174 0.960 . S
C1188 H1175 0.960 . S
C1188 C1187 1.524 . S
C1189 C1186 1.403 . S
C1189 C1190 1.392 . S
C1189 C1193 1.495 . S
C1190 C1189 1.392 . S
C1190 C1191 1.385 . S
C1190 C1192 1.478 . S
C1191 H1185 0.930 . S
C1191 C1187 1.400 . S
C1191 C1190 1.385 . S
C1192 C1190 1.478 . S
C1192 C1194 1.381 . S
C1192 C1198 1.383 . S
C1193 C1189 1.495 . S
C1193 H1199 0.959 . S
C1193 H1200 0.961 . S
C1193 H1201 0.960 . S
C1194 C1192 1.381 . S
C1194 C1195 1.394 . S
C1194 H1202 0.930 . S
C1195 C1194 1.394 . S
C1195 C1196 1.383 . S
C1195 H1203 0.929 . S
C1196 C1195 1.383 . S
C1196 C1197 1.377 . S
C1197 H1181 0.930 . S
C1197 C1196 1.377 . S
C1197 C1198 1.379 . S
C1198 H1182 0.931 . S
C1198 C1192 1.383 . S
C1198 C1197 1.379 . S
H1199 C1193 0.959 . S
H1200 C1193 0.961 . S
H1201 C1193 0.960 . S
H1202 C1194 0.930 . S
H1203 C1195 0.929 . S
H1204 C1212 0.929 . S
H1205 C1214 0.930 . S
H1206 C1216 0.930 . S
H1207 C1219 0.929 . S
H1208 C1222 0.930 . S
H1209 C1224 0.960 . S
H1210 C1224 0.960 . S
H1211 C1224 0.960 . S
C1212 H1204 0.929 . S
C1212 C1213 1.377 . S
C1212 C1214 1.384 . S
C1213 C1212 1.377 . S
C1213 C1219 1.390 . S
C1214 H1205 0.930 . S
C1214 C1212 1.384 . S
C1214 C1215 1.372 . S
C1215 C1214 1.372 . S
C1215 C1216 1.400 . S
C1215 C1220 1.490 . S
C1216 H1206 0.930 . S
C1216 C1215 1.400 . S
C1216 C1219 1.386 . S
H1217 C1233 0.930 . S
H1218 C1234 0.931 . S
C1219 H1207 0.929 . S
C1219 C1213 1.390 . S
C1219 C1216 1.386 . S
C1220 C1215 1.490 . S
C1220 C1222 1.395 . S
C1220 C1223 1.403 . S
H1221 C1227 0.930 . S
C1222 H1208 0.930 . S
C1222 C1220 1.395 . S
C1222 C1225 1.403 . S
C1223 C1220 1.403 . S
C1223 C1224 1.524 . S
C1223 C1227 1.400 . S
C1224 H1209 0.960 . S
C1224 H1210 0.960 . S
C1224 H1211 0.960 . S
C1224 C1223 1.524 . S
C1225 C1222 1.403 . S
C1225 C1226 1.392 . S
C1225 C1229 1.495 . S
C1226 C1225 1.392 . S
C1226 C1227 1.385 . S
C1226 C1228 1.478 . S
C1227 H1221 0.930 . S
C1227 C1223 1.400 . S
C1227 C1226 1.385 . S
C1228 C1226 1.478 . S
C1228 C1230 1.381 . S
C1228 C1234 1.383 . S
C1229 C1225 1.495 . S
C1229 H1235 0.959 . S
C1229 H1236 0.961 . S
C1229 H1237 0.960 . S
C1230 C1228 1.381 . S
C1230 C1231 1.394 . S
C1230 H1238 0.930 . S
C1231 C1230 1.394 . S
C1231 C1232 1.383 . S
C1231 H1239 0.929 . S
C1232 C1231 1.383 . S
C1232 C1233 1.377 . S
C1233 H1217 0.930 . S
C1233 C1232 1.377 . S
C1233 C1234 1.379 . S
C1234 H1218 0.931 . S
C1234 C1228 1.383 . S
C1234 C1233 1.379 . S
H1235 C1229 0.959 . S
H1236 C1229 0.961 . S
H1237 C1229 0.960 . S
H1238 C1230 0.930 . S
H1239 C1231 0.929 . S
H1240 C1248 0.929 . S
H1241 C1250 0.930 . S
H1242 C1252 0.930 . S
H1243 C1255 0.929 . S
H1244 C1258 0.930 . S
H1245 C1260 0.960 . S
H1246 C1260 0.960 . S
H1247 C1260 0.960 . S
C1248 H1240 0.929 . S
C1248 C1249 1.377 . S
C1248 C1250 1.384 . S
C1249 C1248 1.377 . S
C1249 C1255 1.390 . S
C1250 H1241 0.930 . S
C1250 C1248 1.384 . S
C1250 C1251 1.372 . S
C1251 C1250 1.372 . S
C1251 C1252 1.400 . S
C1251 C1256 1.490 . S
C1252 H1242 0.930 . S
C1252 C1251 1.400 . S
C1252 C1255 1.386 . S
H1253 C1269 0.930 . S
H1254 C1270 0.931 . S
C1255 H1243 0.929 . S
C1255 C1249 1.390 . S
C1255 C1252 1.386 . S
C1256 C1251 1.490 . S
C1256 C1258 1.395 1_455 S
C1256 C1259 1.403 . S
H1257 C1263 0.930 . S
C1258 H1244 0.930 . S
C1258 C1256 1.395 1_655 S
C1258 C1261 1.403 . S
C1259 C1256 1.403 . S
C1259 C1260 1.524 . S
C1259 C1263 1.400 . S
C1260 H1245 0.960 . S
C1260 H1246 0.960 . S
C1260 H1247 0.960 . S
C1260 C1259 1.524 . S
C1261 C1258 1.403 . S
C1261 C1262 1.392 . S
C1261 C1265 1.495 . S
C1262 C1261 1.392 . S
C1262 C1263 1.385 1_655 S
C1262 C1264 1.478 . S
C1263 H1257 0.930 . S
C1263 C1259 1.400 . S
C1263 C1262 1.385 1_455 S
C1264 C1262 1.478 . S
C1264 C1266 1.381 . S
C1264 C1270 1.383 . S
C1265 C1261 1.495 . S
C1265 H1271 0.959 . S
C1265 H1272 0.961 . S
C1265 H1273 0.960 . S
C1266 C1264 1.381 . S
C1266 C1267 1.394 . S
C1266 H1274 0.930 . S
C1267 C1266 1.394 . S
C1267 C1268 1.383 . S
C1267 H1275 0.929 . S
C1268 C1267 1.383 . S
C1268 C1269 1.377 . S
C1269 H1253 0.930 . S
C1269 C1268 1.377 . S
C1269 C1270 1.379 . S
C1270 H1254 0.931 . S
C1270 C1264 1.383 . S
C1270 C1269 1.379 . S
H1271 C1265 0.959 . S
H1272 C1265 0.961 . S
H1273 C1265 0.960 . S
H1274 C1266 0.930 . S
H1275 C1267 0.929 . S
H1276 C1284 0.929 . S
H1277 C1286 0.930 . S
H1278 C1288 0.930 . S
H1279 C1291 0.929 . S
H1280 C1294 0.930 . S
H1281 C1296 0.960 1_556 S
H1282 C1296 0.960 . S
H1283 C1296 0.960 . S
C1284 H1276 0.929 . S
C1284 C1285 1.377 . S
C1284 C1286 1.384 . S
C1285 C1284 1.377 . S
C1285 C1291 1.390 . S
C1286 H1277 0.930 . S
C1286 C1284 1.384 . S
C1286 C1287 1.372 . S
C1287 C1286 1.372 . S
C1287 C1288 1.400 . S
C1287 C1292 1.490 . S
C1288 H1278 0.930 . S
C1288 C1287 1.400 . S
C1288 C1291 1.386 . S
H1289 C1305 0.930 . S
H1290 C1306 0.931 . S
C1291 H1279 0.929 . S
C1291 C1285 1.390 . S
C1291 C1288 1.386 . S
C1292 C1287 1.490 . S
C1292 C1294 1.395 . S
C1292 C1295 1.403 1_554 S
H1293 C1299 0.930 . S
C1294 H1280 0.930 . S
C1294 C1292 1.395 . S
C1294 C1297 1.403 1_554 S
C1295 C1292 1.403 1_556 S
C1295 C1296 1.524 1_556 S
C1295 C1299 1.400 . S
C1296 H1281 0.960 1_554 S
C1296 H1282 0.960 . S
C1296 H1283 0.960 . S
C1296 C1295 1.524 1_554 S
C1297 C1294 1.403 1_556 S
C1297 C1298 1.392 . S
C1297 C1301 1.495 . S
C1298 C1297 1.392 . S
C1298 C1299 1.385 . S
C1298 C1300 1.478 . S
C1299 H1293 0.930 . S
C1299 C1295 1.400 . S
C1299 C1298 1.385 . S
C1300 C1298 1.478 . S
C1300 C1302 1.381 . S
C1300 C1306 1.383 . S
C1301 C1297 1.495 . S
C1301 H1307 0.981 . S
C1301 H1308 0.961 . S
C1301 H1309 0.960 . S
C1302 C1300 1.381 . S
C1302 C1303 1.394 . S
C1302 H1310 0.930 . S
C1303 C1302 1.394 . S
C1303 C1304 1.383 . S
C1303 H1311 0.929 . S
C1304 C1303 1.383 . S
C1304 C1305 1.377 . S
C1305 H1289 0.930 . S
C1305 C1304 1.377 . S
C1305 C1306 1.379 . S
C1306 H1290 0.931 . S
C1306 C1300 1.383 . S
C1306 C1305 1.379 . S
H1307 C1301 0.981 . S
H1308 C1301 0.961 . S
H1309 C1301 0.960 . S
H1310 C1302 0.930 . S
H1311 C1303 0.929 . S
H1312 C1320 0.929 . S
H1313 C1322 0.930 . S
H1314 C1324 0.930 . S
H1315 C1327 0.929 . S
H1316 C1330 0.930 . S
H1317 C1332 0.960 . S
H1318 C1332 0.960 . S
H1319 C1332 0.960 . S
C1320 H1312 0.929 . S
C1320 C1321 1.377 . S
C1320 C1322 1.384 . S
C1321 C1320 1.377 . S
C1321 C1327 1.390 . S
C1322 H1313 0.930 . S
C1322 C1320 1.384 . S
C1322 C1323 1.372 . S
C1323 C1322 1.372 . S
C1323 C1324 1.400 . S
C1323 C1328 1.490 . S
C1324 H1314 0.930 . S
C1324 C1323 1.400 . S
C1324 C1327 1.386 . S
H1325 C1341 0.930 . S
H1326 C1342 0.931 . S
C1327 H1315 0.929 . S
C1327 C1321 1.390 . S
C1327 C1324 1.386 . S
C1328 C1323 1.490 . S
C1328 C1330 1.395 . S
C1328 C1331 1.403 . S
H1329 C1335 0.930 . S
C1330 H1316 0.930 . S
C1330 C1328 1.395 . S
C1330 C1333 1.403 . S
C1331 C1328 1.403 . S
C1331 C1332 1.524 . S
C1331 C1335 1.400 . S
C1332 H1317 0.960 . S
C1332 H1318 0.960 . S
C1332 H1319 0.960 . S
C1332 C1331 1.524 . S
C1333 C1330 1.403 . S
C1333 C1334 1.392 . S
C1333 C1337 1.495 . S
C1334 C1333 1.392 . S
C1334 C1335 1.385 . S
C1334 C1336 1.478 . S
C1335 H1329 0.930 . S
C1335 C1331 1.400 . S
C1335 C1334 1.385 . S
C1336 C1334 1.478 . S
C1336 C1338 1.381 . S
C1336 C1342 1.383 . S
C1337 C1333 1.495 . S
C1337 H1343 0.959 . S
C1337 H1344 0.961 . S
C1337 H1345 0.960 . S
C1338 C1336 1.381 . S
C1338 C1339 1.394 . S
C1338 H1346 0.930 . S
C1339 C1338 1.394 . S
C1339 C1340 1.383 . S
C1339 H1347 0.929 . S
C1340 C1339 1.383 . S
C1340 C1341 1.377 . S
C1341 H1325 0.930 . S
C1341 C1340 1.377 . S
C1341 C1342 1.379 . S
C1342 H1326 0.931 . S
C1342 C1336 1.383 . S
C1342 C1341 1.379 . S
H1343 C1337 0.959 . S
H1344 C1337 0.961 . S
H1345 C1337 0.960 . S
H1346 C1338 0.930 . S
H1347 C1339 0.929 . S
H1348 C1356 0.929 . S
H1349 C1358 0.930 . S
H1350 C1360 0.930 . S
H1351 C1363 0.929 . S
H1352 C1366 0.930 . S
H1353 C1368 0.960 . S
H1354 C1368 0.960 . S
H1355 C1368 0.960 . S
C1356 H1348 0.929 . S
C1356 C1357 1.377 . S
C1356 C1358 1.384 . S
C1357 C1356 1.377 . S
C1357 C1363 1.390 . S
C1358 H1349 0.930 . S
C1358 C1356 1.384 . S
C1358 C1359 1.372 . S
C1359 C1358 1.372 . S
C1359 C1360 1.400 . S
C1359 C1364 1.490 . S
C1360 H1350 0.930 . S
C1360 C1359 1.400 . S
C1360 C1363 1.386 . S
H1361 C1377 0.930 . S
H1362 C1378 0.931 . S
C1363 H1351 0.929 . S
C1363 C1357 1.390 . S
C1363 C1360 1.386 . S
C1364 C1359 1.490 . S
C1364 C1366 1.395 . S
C1364 C1367 1.403 . S
H1365 C1371 0.930 . S
C1366 H1352 0.930 . S
C1366 C1364 1.395 . S
C1366 C1369 1.403 . S
C1367 C1364 1.403 . S
C1367 C1368 1.524 . S
C1367 C1371 1.400 . S
C1368 H1353 0.960 . S
C1368 H1354 0.960 . S
C1368 H1355 0.960 . S
C1368 C1367 1.524 . S
C1369 C1366 1.403 . S
C1369 C1370 1.392 . S
C1369 C1373 1.495 . S
C1370 C1369 1.392 . S
C1370 C1371 1.385 . S
C1370 C1372 1.478 . S
C1371 H1365 0.930 . S
C1371 C1367 1.400 . S
C1371 C1370 1.385 . S
C1372 C1370 1.478 . S
C1372 C1374 1.381 . S
C1372 C1378 1.383 . S
C1373 C1369 1.495 . S
C1373 H1379 0.959 . S
C1373 H1380 0.961 . S
C1373 H1381 0.960 . S
C1374 C1372 1.381 . S
C1374 C1375 1.394 . S
C1374 H1382 0.930 . S
C1375 C1374 1.394 . S
C1375 C1376 1.383 . S
C1375 H1383 0.929 . S
C1376 C1375 1.383 . S
C1376 C1377 1.377 . S
C1377 H1361 0.930 . S
C1377 C1376 1.377 . S
C1377 C1378 1.379 . S
C1378 H1362 0.931 . S
C1378 C1372 1.383 . S
C1378 C1377 1.379 . S
H1379 C1373 0.959 . S
H1380 C1373 0.961 . S
H1381 C1373 0.960 . S
H1382 C1374 0.930 . S
H1383 C1375 0.929 . S
H1384 C1392 0.929 1_655 S
H1385 C1394 0.930 . S
H1386 C1396 0.930 . S
H1387 C1399 0.929 . S
H1388 C1402 0.930 . S
H1389 C1404 0.960 . S
H1390 C1404 0.960 . S
H1391 C1404 0.960 . S
C1392 H1384 0.929 1_455 S
C1392 C1393 1.377 . S
C1392 C1394 1.384 1_455 S
C1393 C1392 1.377 . S
C1393 C1399 1.390 . S
C1394 H1385 0.930 . S
C1394 C1392 1.384 1_655 S
C1394 C1395 1.372 1_655 S
C1395 C1394 1.372 1_455 S
C1395 C1396 1.400 . S
C1395 C1400 1.490 . S
C1396 H1386 0.930 . S
C1396 C1395 1.400 . S
C1396 C1399 1.386 . S
H1397 C1413 0.930 1_455 S
H1398 C1414 0.850 1_455 S
C1399 H1387 0.929 . S
C1399 C1393 1.390 . S
C1399 C1396 1.386 . S
C1400 C1395 1.490 . S
C1400 C1402 1.395 1_455 S
C1400 C1403 1.403 . S
H1401 C1407 0.930 . S
C1402 H1388 0.930 . S
C1402 C1400 1.395 1_655 S
C1402 C1405 1.403 . S
C1403 C1400 1.403 . S
C1403 C1404 1.524 . S
C1403 C1407 1.400 . S
C1404 H1389 0.960 . S
C1404 H1390 0.960 . S
C1404 H1391 0.960 . S
C1404 C1403 1.524 . S
C1405 C1402 1.403 . S
C1405 C1406 1.392 . S
C1405 C1409 1.495 . S
C1406 C1405 1.392 . S
C1406 C1407 1.385 1_655 S
C1406 C1408 1.478 . S
C1407 H1401 0.930 . S
C1407 C1403 1.400 . S
C1407 C1406 1.385 1_455 S
C1408 C1406 1.478 . S
C1408 C1410 1.381 . S
C1408 C1414 1.444 . S
C1409 C1405 1.495 . S
C1409 H1415 0.959 . S
C1409 H1416 0.961 . S
C1409 H1417 0.960 . S
C1410 C1408 1.381 . S
C1410 C1411 1.394 . S
C1410 H1418 0.930 . S
C1411 C1410 1.394 . S
C1411 C1412 1.383 . S
C1411 H1419 0.929 . S
C1412 C1411 1.383 . S
C1412 C1413 1.377 . S
C1413 H1397 0.930 1_655 S
C1413 C1412 1.377 . S
C1413 C1414 1.404 . S
C1414 H1398 0.850 1_655 S
C1414 C1408 1.444 . S
C1414 C1413 1.404 . S
H1415 C1409 0.959 . S
H1416 C1409 0.961 . S
H1417 C1409 0.960 . S
H1418 C1410 0.930 . S
H1419 C1411 0.929 . S
H1420 C1428 0.929 . S
H1421 C1430 0.930 . S
H1422 C1432 0.930 . S
H1423 C1435 0.929 . S
H1424 C1438 0.930 . S
H1425 C1440 0.960 . S
H1426 C1440 0.960 . S
H1427 C1440 0.960 . S
C1428 H1420 0.929 . S
C1428 C1429 1.377 . S
C1428 C1430 1.384 . S
C1429 C1428 1.377 . S
C1429 C1435 1.390 . S
C1430 H1421 0.930 . S
C1430 C1428 1.384 . S
C1430 C1431 1.372 . S
C1431 C1430 1.372 . S
C1431 C1432 1.400 . S
C1431 C1436 1.490 . S
C1432 H1422 0.930 . S
C1432 C1431 1.400 . S
C1432 C1435 1.386 . S
H1433 C1449 0.930 . S
H1434 C1450 0.931 . S
C1435 H1423 0.929 . S
C1435 C1429 1.390 . S
C1435 C1432 1.386 . S
C1436 C1431 1.490 . S
C1436 C1438 1.395 . S
C1436 C1439 1.403 . S
H1437 C1443 0.930 . S
C1438 H1424 0.930 . S
C1438 C1436 1.395 . S
C1438 C1441 1.403 1_556 S
C1439 C1436 1.403 . S
C1439 C1440 1.524 . S
C1439 C1443 1.400 1_556 S
C1440 H1425 0.960 . S
C1440 H1426 0.960 . S
C1440 H1427 0.960 . S
C1440 C1439 1.524 . S
C1441 C1438 1.403 1_554 S
C1441 C1442 1.392 . S
C1441 C1445 1.495 . S
C1442 C1441 1.392 . S
C1442 C1443 1.385 . S
C1442 C1444 1.478 . S
C1443 H1437 0.930 . S
C1443 C1439 1.400 1_554 S
C1443 C1442 1.385 . S
C1444 C1442 1.478 . S
C1444 C1446 1.381 . S
C1444 C1450 1.383 . S
C1445 C1441 1.495 . S
C1445 H1451 0.959 . S
C1445 H1452 0.961 . S
C1445 H1453 0.960 . S
C1446 C1444 1.381 . S
C1446 C1447 1.394 . S
C1446 H1454 0.930 . S
C1447 C1446 1.394 . S
C1447 C1448 1.383 . S
C1447 H1455 0.929 . S
C1448 C1447 1.383 . S
C1448 C1449 1.377 . S
C1449 H1433 0.930 . S
C1449 C1448 1.377 . S
C1449 C1450 1.379 . S
C1450 H1434 0.931 . S
C1450 C1444 1.383 . S
C1450 C1449 1.379 . S
H1451 C1445 0.959 . S
H1452 C1445 0.961 . S
H1453 C1445 0.960 . S
H1454 C1446 0.930 . S
H1455 C1447 0.929 . S
H1456 C1464 0.929 . S
H1457 C1466 0.930 . S
H1458 C1468 0.930 . S
H1459 C1471 0.929 . S
H1460 C1474 0.930 . S
H1461 C1476 0.960 . S
H1462 C1476 0.960 . S
H1463 C1476 0.960 . S
C1464 H1456 0.929 . S
C1464 C1465 1.377 . S
C1464 C1466 1.384 . S
C1465 C1464 1.377 . S
C1465 C1471 1.390 . S
C1466 H1457 0.930 . S
C1466 C1464 1.384 . S
C1466 C1467 1.372 . S
C1467 C1466 1.372 . S
C1467 C1468 1.400 . S
C1467 C1472 1.490 . S
C1468 H1458 0.930 . S
C1468 C1467 1.400 . S
C1468 C1471 1.386 . S
H1469 C1485 0.930 . S
H1470 C1486 0.931 . S
C1471 H1459 0.929 . S
C1471 C1465 1.390 . S
C1471 C1468 1.386 . S
C1472 C1467 1.490 . S
C1472 C1474 1.395 . S
C1472 C1475 1.403 . S
H1473 C1479 0.930 . S
C1474 H1460 0.930 . S
C1474 C1472 1.395 . S
C1474 C1477 1.403 . S
C1475 C1472 1.403 . S
C1475 C1476 1.524 . S
C1475 C1479 1.400 . S
C1476 H1461 0.960 . S
C1476 H1462 0.960 . S
C1476 H1463 0.960 . S
C1476 C1475 1.524 . S
C1477 C1474 1.403 . S
C1477 C1478 1.392 . S
C1477 C1481 1.495 . S
C1478 C1477 1.392 . S
C1478 C1479 1.385 . S
C1478 C1480 1.478 . S
C1479 H1473 0.930 . S
C1479 C1475 1.400 . S
C1479 C1478 1.385 . S
C1480 C1478 1.478 . S
C1480 C1482 1.381 . S
C1480 C1486 1.383 . S
C1481 C1477 1.495 . S
C1481 H1487 0.959 . S
C1481 H1488 0.961 . S
C1481 H1489 0.960 . S
C1482 C1480 1.381 . S
C1482 C1483 1.394 . S
C1482 H1490 0.930 . S
C1483 C1482 1.394 . S
C1483 C1484 1.383 . S
C1483 H1491 0.929 . S
C1484 C1483 1.383 . S
C1484 C1485 1.377 . S
C1485 H1469 0.930 . S
C1485 C1484 1.377 . S
C1485 C1486 1.379 . S
C1486 H1470 0.931 . S
C1486 C1480 1.383 . S
C1486 C1485 1.379 . S
H1487 C1481 0.959 . S
H1488 C1481 0.961 . S
H1489 C1481 0.960 . S
H1490 C1482 0.930 . S
H1491 C1483 0.929 . S
H1492 C1500 0.929 . S
H1493 C1502 0.930 . S
H1494 C1504 0.930 . S
H1495 C1507 0.929 . S
H1496 C1510 0.930 . S
H1497 C1512 0.960 . S
H1498 C1512 0.960 . S
H1499 C1512 0.960 . S
C1500 H1492 0.929 . S
C1500 C1501 1.377 . S
C1500 C1502 1.384 . S
C1501 C1500 1.377 . S
C1501 C1507 1.390 . S
C1502 H1493 0.930 . S
C1502 C1500 1.384 . S
C1502 C1503 1.372 . S
C1503 C1502 1.372 . S
C1503 C1504 1.400 . S
C1503 C1508 1.490 . S
C1504 H1494 0.930 . S
C1504 C1503 1.400 . S
C1504 C1507 1.386 . S
H1505 C1521 0.930 . S
H1506 C1522 0.931 . S
C1507 H1495 0.929 . S
C1507 C1501 1.390 . S
C1507 C1504 1.386 . S
C1508 C1503 1.490 . S
C1508 C1510 1.395 . S
C1508 C1511 1.403 . S
H1509 C1515 0.930 . S
C1510 H1496 0.930 . S
C1510 C1508 1.395 . S
C1510 C1513 1.403 . S
C1511 C1508 1.403 . S
C1511 C1512 1.524 . S
C1511 C1515 1.400 . S
C1512 H1497 0.960 . S
C1512 H1498 0.960 . S
C1512 H1499 0.960 . S
C1512 C1511 1.524 . S
C1513 C1510 1.403 . S
C1513 C1514 1.392 . S
C1513 C1517 1.495 . S
C1514 C1513 1.392 . S
C1514 C1515 1.385 . S
C1514 C1516 1.478 . S
C1515 H1509 0.930 . S
C1515 C1511 1.400 . S
C1515 C1514 1.385 . S
C1516 C1514 1.478 . S
C1516 C1518 1.381 . S
C1516 C1522 1.383 . S
C1517 C1513 1.495 . S
C1517 H1523 0.959 . S
C1517 H1524 0.961 . S
C1517 H1525 0.960 . S
C1518 C1516 1.381 . S
C1518 C1519 1.394 . S
C1518 H1526 0.930 . S
C1519 C1518 1.394 . S
C1519 C1520 1.383 . S
C1519 H1527 0.929 . S
C1520 C1519 1.383 . S
C1520 C1521 1.377 . S
C1521 H1505 0.930 . S
C1521 C1520 1.377 . S
C1521 C1522 1.379 . S
C1522 H1506 0.931 . S
C1522 C1516 1.383 . S
C1522 C1521 1.379 . S
H1523 C1517 0.959 . S
H1524 C1517 0.961 . S
H1525 C1517 0.960 . S
H1526 C1518 0.930 . S
H1527 C1519 0.929 . S
H1528 C1536 0.929 1_455 S
H1529 C1538 0.930 . S
H1530 C1540 0.930 . S
H1531 C1543 0.929 . S
H1532 C1546 0.930 . S
H1533 C1548 0.960 . S
H1534 C1548 0.960 . S
H1535 C1548 0.960 . S
C1536 H1528 0.929 1_655 S
C1536 C1537 1.377 . S
C1536 C1538 1.384 1_655 S
C1537 C1536 1.377 . S
C1537 C1543 1.390 . S
C1538 H1529 0.930 . S
C1538 C1536 1.384 1_455 S
C1538 C1539 1.372 1_455 S
C1539 C1538 1.372 1_655 S
C1539 C1540 1.400 . S
C1539 C1544 1.490 . S
C1540 H1530 0.930 . S
C1540 C1539 1.400 . S
C1540 C1543 1.386 . S
H1541 C1557 0.930 1_655 S
H1542 C1558 0.931 1_655 S
C1543 H1531 0.929 . S
C1543 C1537 1.390 . S
C1543 C1540 1.386 . S
C1544 C1539 1.490 . S
C1544 C1546 1.395 1_655 S
C1544 C1547 1.403 . S
H1545 C1551 0.930 . S
C1546 H1532 0.930 . S
C1546 C1544 1.395 1_455 S
C1546 C1549 1.403 . S
C1547 C1544 1.403 . S
C1547 C1548 1.524 . S
C1547 C1551 1.400 . S
C1548 H1533 0.960 . S
C1548 H1534 0.960 . S
C1548 H1535 0.960 . S
C1548 C1547 1.524 . S
C1549 C1546 1.403 . S
C1549 C1550 1.392 . S
C1549 C1553 1.495 . S
C1550 C1549 1.392 . S
C1550 C1551 1.385 1_455 S
C1550 C1552 1.478 . S
C1551 H1545 0.930 . S
C1551 C1547 1.400 . S
C1551 C1550 1.385 1_655 S
C1552 C1550 1.478 . S
C1552 C1554 1.381 . S
C1552 C1558 1.383 . S
C1553 C1549 1.495 . S
C1553 H1559 0.959 . S
C1553 H1560 0.961 . S
C1553 H1561 0.960 . S
C1554 C1552 1.381 . S
C1554 C1555 1.394 . S
C1554 H1562 0.930 . S
C1555 C1554 1.394 . S
C1555 C1556 1.383 . S
C1555 H1563 0.929 . S
C1556 C1555 1.383 . S
C1556 C1557 1.377 . S
C1557 H1541 0.930 1_455 S
C1557 C1556 1.377 . S
C1557 C1558 1.379 . S
C1558 H1542 0.931 1_455 S
C1558 C1552 1.383 . S
C1558 C1557 1.379 . S
H1559 C1553 0.959 . S
H1560 C1553 0.961 . S
H1561 C1553 0.960 . S
H1562 C1554 0.930 . S
H1563 C1555 0.929 . S
H1564 C1572 0.929 . S
H1565 C1574 0.930 . S
H1566 C1576 0.930 . S
H1567 C1579 0.929 . S
H1568 C1582 0.930 . S
H1569 C1584 0.960 . S
H1570 C1584 0.960 . S
H1571 C1584 0.960 . S
C1572 H1564 0.929 . S
C1572 C1573 1.377 . S
C1572 C1574 1.384 . S
C1573 C1572 1.377 . S
C1573 C1579 1.390 . S
C1574 H1565 0.930 . S
C1574 C1572 1.384 . S
C1574 C1575 1.372 . S
C1575 C1574 1.372 . S
C1575 C1576 1.400 . S
C1575 C1580 1.490 . S
C1576 H1566 0.930 . S
C1576 C1575 1.400 . S
C1576 C1579 1.386 . S
H1577 C1593 0.930 . S
H1578 C1594 0.931 . S
C1579 H1567 0.929 . S
C1579 C1573 1.390 . S
C1579 C1576 1.386 . S
C1580 C1575 1.490 . S
C1580 C1582 1.395 . S
C1580 C1583 1.403 . S
H1581 C1587 0.930 . S
C1582 H1568 0.930 . S
C1582 C1580 1.395 . S
C1582 C1585 1.386 1_554 S
C1583 C1580 1.403 . S
C1583 C1584 1.524 . S
C1583 C1587 1.400 1_554 S
C1584 H1569 0.960 . S
C1584 H1570 0.960 . S
C1584 H1571 0.960 . S
C1584 C1583 1.524 . S
C1585 C1582 1.386 1_556 S
C1585 C1586 1.404 . S
C1585 C1589 1.500 . S
C1586 C1585 1.404 . S
C1586 C1587 1.385 . S
C1586 C1588 1.478 . S
C1587 H1581 0.930 . S
C1587 C1583 1.400 1_556 S
C1587 C1586 1.385 . S
C1588 C1586 1.478 . S
C1588 C1590 1.381 . S
C1588 C1594 1.383 . S
C1589 C1585 1.500 . S
C1589 H1595 0.959 1_556 S
C1589 H1596 0.961 . S
C1589 H1597 0.960 . S
C1590 C1588 1.381 . S
C1590 C1591 1.394 . S
C1590 H1598 0.930 . S
C1591 C1590 1.394 . S
C1591 C1592 1.383 . S
C1591 H1599 0.929 . S
C1592 C1591 1.383 . S
C1592 C1593 1.377 . S
C1593 H1577 0.930 . S
C1593 C1592 1.377 . S
C1593 C1594 1.379 . S
C1594 H1578 0.931 . S
C1594 C1588 1.383 . S
C1594 C1593 1.379 . S
H1595 C1589 0.959 1_554 S
H1596 C1589 0.961 . S
H1597 C1589 0.960 . S
H1598 C1590 0.930 . S
H1599 C1591 0.929 . S
H1600 C1608 0.929 . S
H1601 C1610 0.930 1_655 S
H1602 C1612 0.930 1_556 S
H1603 C1615 0.929 . S
H1604 C1618 0.930 . S
H1605 C1620 0.960 1_565 S
H1606 C1620 0.960 . S
H1607 C1620 0.960 . S
C1608 H1600 0.929 . S
C1608 C1609 1.377 . S
C1608 C1610 1.384 . S
C1609 C1608 1.377 . S
C1609 C1615 1.390 . S
C1610 H1601 0.930 1_455 S
C1610 C1608 1.384 . S
C1610 C1611 1.372 . S
C1611 C1610 1.372 . S
C1611 C1612 1.400 . S
C1611 C1616 1.490 . S
C1612 H1602 0.930 1_554 S
C1612 C1611 1.400 . S
C1612 C1615 1.386 . S
H1613 C1629 0.930 . S
H1614 C1630 0.931 1_455 S
C1615 H1603 0.929 . S
C1615 C1609 1.390 . S
C1615 C1612 1.386 . S
C1616 C1611 1.490 . S
C1616 C1618 1.395 1_454 S
C1616 C1619 1.403 . S
H1617 C1623 0.930 . S
C1618 H1604 0.930 . S
C1618 C1616 1.395 1_656 S
C1618 C1621 1.370 1_545 S
C1619 C1616 1.403 . S
C1619 C1620 1.524 . S
C1619 C1623 1.400 1_545 S
C1620 H1605 0.960 1_545 S
C1620 H1606 0.960 . S
C1620 H1607 0.960 . S
C1620 C1619 1.524 . S
C1621 C1618 1.370 1_565 S
C1621 C1622 1.424 . S
C1621 C1625 1.497 . S
C1622 C1621 1.424 . S
C1622 C1623 1.385 1_656 S
C1622 C1624 1.478 . S
C1623 H1617 0.930 . S
C1623 C1619 1.400 1_565 S
C1623 C1622 1.385 1_454 S
C1624 C1622 1.478 . S
C1624 C1626 1.381 . S
C1624 C1630 1.383 . S
C1625 C1621 1.497 . S
C1625 H1631 0.959 1_565 S
C1625 H1632 0.961 . S
C1625 H1633 0.960 . S
C1626 C1624 1.381 . S
C1626 C1627 1.394 . S
C1626 H1634 0.930 1_556 S
C1627 C1626 1.394 . S
C1627 C1628 1.383 . S
C1627 H1635 0.929 1_556 S
C1628 C1627 1.383 . S
C1628 C1629 1.377 . S
C1629 H1613 0.930 . S
C1629 C1628 1.377 . S
C1629 C1630 1.379 . S
C1630 H1614 0.931 1_655 S
C1630 C1624 1.383 . S
C1630 C1629 1.379 . S
H1631 C1625 0.959 1_545 S
H1632 C1625 0.961 . S
H1633 C1625 0.960 . S
H1634 C1626 0.930 1_554 S
H1635 C1627 0.929 1_554 S
H1636 C1644 0.929 . S
H1637 C1646 0.930 . S
H1638 C1648 0.930 . S
H1639 C1651 0.929 . S
H1640 C1654 0.930 . S
H1641 C1656 0.960 . S
H1642 C1656 0.960 . S
H1643 C1656 0.960 . S
C1644 H1636 0.929 . S
C1644 C1645 1.377 . S
C1644 C1646 1.384 . S
C1645 C1644 1.377 . S
C1645 C1651 1.390 . S
C1646 H1637 0.930 . S
C1646 C1644 1.384 . S
C1646 C1647 1.372 . S
C1647 C1646 1.372 . S
C1647 C1648 1.400 . S
C1647 C1652 1.490 . S
C1648 H1638 0.930 . S
C1648 C1647 1.400 . S
C1648 C1651 1.386 . S
H1649 C1665 0.930 . S
H1650 C1666 0.931 . S
C1651 H1639 0.929 . S
C1651 C1645 1.390 . S
C1651 C1648 1.386 . S
C1652 C1647 1.490 . S
C1652 C1654 1.395 . S
C1652 C1655 1.403 . S
H1653 C1659 0.930 . S
C1654 H1640 0.930 . S
C1654 C1652 1.395 . S
C1654 C1657 1.403 . S
C1655 C1652 1.403 . S
C1655 C1656 1.524 . S
C1655 C1659 1.400 . S
C1656 H1641 0.960 . S
C1656 H1642 0.960 . S
C1656 H1643 0.960 . S
C1656 C1655 1.524 . S
C1657 C1654 1.403 . S
C1657 C1658 1.392 . S
C1657 C1661 1.495 . S
C1658 C1657 1.392 . S
C1658 C1659 1.385 . S
C1658 C1660 1.478 . S
C1659 H1653 0.930 . S
C1659 C1655 1.400 . S
C1659 C1658 1.385 . S
C1660 C1658 1.478 . S
C1660 C1662 1.381 . S
C1660 C1666 1.383 . S
C1661 C1657 1.495 . S
C1661 H1667 0.959 . S
C1661 H1668 0.961 . S
C1661 H1669 0.960 . S
C1662 C1660 1.381 . S
C1662 C1663 1.394 . S
C1662 H1670 0.930 . S
C1663 C1662 1.394 . S
C1663 C1664 1.383 . S
C1663 H1671 0.929 . S
C1664 C1663 1.383 . S
C1664 C1665 1.377 . S
C1665 H1649 0.930 . S
C1665 C1664 1.377 . S
C1665 C1666 1.379 . S
C1666 H1650 0.931 . S
C1666 C1660 1.383 . S
C1666 C1665 1.379 . S
H1667 C1661 0.959 . S
H1668 C1661 0.961 . S
H1669 C1661 0.960 . S
H1670 C1662 0.930 . S
H1671 C1663 0.929 . S
H1672 C1680 0.929 . S
H1673 C1682 0.930 . S
H1674 C1684 0.930 . S
H1675 C1687 0.929 . S
H1676 C1690 0.930 . S
H1677 C1692 0.960 . S
H1678 C1692 0.960 . S
H1679 C1692 0.960 . S
C1680 H1672 0.929 . S
C1680 C1681 1.377 . S
C1680 C1682 1.384 . S
C1681 C1680 1.377 . S
C1681 C1687 1.390 . S
C1682 H1673 0.930 . S
C1682 C1680 1.384 . S
C1682 C1683 1.372 . S
C1683 C1682 1.372 . S
C1683 C1684 1.400 . S
C1683 C1688 1.490 . S
C1684 H1674 0.930 . S
C1684 C1683 1.400 . S
C1684 C1687 1.386 . S
H1685 C1701 0.930 . S
H1686 C1702 0.931 . S
C1687 H1675 0.929 . S
C1687 C1681 1.390 . S
C1687 C1684 1.386 . S
C1688 C1683 1.490 . S
C1688 C1690 1.395 . S
C1688 C1691 1.403 . S
H1689 C1695 0.930 . S
C1690 H1676 0.930 . S
C1690 C1688 1.395 . S
C1690 C1693 1.403 1_545 S
C1691 C1688 1.403 . S
C1691 C1692 1.524 . S
C1691 C1695 1.400 1_545 S
C1692 H1677 0.960 . S
C1692 H1678 0.960 . S
C1692 H1679 0.960 . S
C1692 C1691 1.524 . S
C1693 C1690 1.403 1_565 S
C1693 C1694 1.392 . S
C1693 C1697 1.495 . S
C1694 C1693 1.392 . S
C1694 C1695 1.385 . S
C1694 C1696 1.478 . S
C1695 H1689 0.930 . S
C1695 C1691 1.400 1_565 S
C1695 C1694 1.385 . S
C1696 C1694 1.478 . S
C1696 C1698 1.381 . S
C1696 C1702 1.383 . S
C1697 C1693 1.495 . S
C1697 H1703 0.959 . S
C1697 H1704 0.961 . S
C1697 H1705 0.960 . S
C1698 C1696 1.381 . S
C1698 C1699 1.394 . S
C1698 H1706 0.930 . S
C1699 C1698 1.394 . S
C1699 C1700 1.383 . S
C1699 H1707 0.929 . S
C1700 C1699 1.383 . S
C1700 C1701 1.377 . S
C1701 H1685 0.930 . S
C1701 C1700 1.377 . S
C1701 C1702 1.379 . S
C1702 H1686 0.931 . S
C1702 C1696 1.383 . S
C1702 C1701 1.379 . S
H1703 C1697 0.959 . S
H1704 C1697 0.961 . S
H1705 C1697 0.960 . S
H1706 C1698 0.930 . S
H1707 C1699 0.929 . S
H1708 C1716 0.929 . S
H1709 C1718 0.930 . S
H1710 C1720 0.930 . S
H1711 C1723 0.929 . S
H1712 C1726 0.930 . S
H1713 C1728 0.960 . S
H1714 C1728 0.960 . S
H1715 C1728 0.960 . S
C1716 H1708 0.929 . S
C1716 C1717 1.377 . S
C1716 C1718 1.384 . S
C1717 C1716 1.377 . S
C1717 C1723 1.390 . S
C1718 H1709 0.930 . S
C1718 C1716 1.384 . S
C1718 C1719 1.372 . S
C1719 C1718 1.372 . S
C1719 C1720 1.400 . S
C1719 C1724 1.490 . S
C1720 H1710 0.930 . S
C1720 C1719 1.400 . S
C1720 C1723 1.386 . S
H1721 C1737 0.930 . S
H1722 C1738 0.931 . S
C1723 H1711 0.929 . S
C1723 C1717 1.390 . S
C1723 C1720 1.386 . S
C1724 C1719 1.490 . S
C1724 C1726 1.395 . S
C1724 C1727 1.403 . S
H1725 C1731 0.930 . S
C1726 H1712 0.930 . S
C1726 C1724 1.395 . S
C1726 C1729 1.403 . S
C1727 C1724 1.403 . S
C1727 C1728 1.524 . S
C1727 C1731 1.400 . S
C1728 H1713 0.960 . S
C1728 H1714 0.960 . S
C1728 H1715 0.960 . S
C1728 C1727 1.524 . S
C1729 C1726 1.403 . S
C1729 C1730 1.392 . S
C1729 C1733 1.495 . S
C1730 C1729 1.392 . S
C1730 C1731 1.385 . S
C1730 C1732 1.478 . S
C1731 H1725 0.930 . S
C1731 C1727 1.400 . S
C1731 C1730 1.385 . S
C1732 C1730 1.478 . S
C1732 C1734 1.381 . S
C1732 C1738 1.383 . S
C1733 C1729 1.495 . S
C1733 H1739 0.959 . S
C1733 H1740 0.961 . S
C1733 H1741 0.960 . S
C1734 C1732 1.381 . S
C1734 C1735 1.394 . S
C1734 H1742 0.930 . S
C1735 C1734 1.394 . S
C1735 C1736 1.383 . S
C1735 H1743 0.929 . S
C1736 C1735 1.383 . S
C1736 C1737 1.377 . S
C1737 H1721 0.930 . S
C1737 C1736 1.377 . S
C1737 C1738 1.379 . S
C1738 H1722 0.931 . S
C1738 C1732 1.383 . S
C1738 C1737 1.379 . S
H1739 C1733 0.959 . S
H1740 C1733 0.961 . S
H1741 C1733 0.960 . S
H1742 C1734 0.930 . S
H1743 C1735 0.929 . S
H1744 C1752 0.929 . S
H1745 C1754 0.930 1_655 S
H1746 C1756 0.930 . S
H1747 C1759 0.929 . S
H1748 C1762 0.930 . S
H1749 C1764 0.960 1_545 S
H1750 C1764 0.960 . S
H1751 C1764 0.960 . S
C1752 H1744 0.929 . S
C1752 C1753 1.377 . S
C1752 C1754 1.384 . S
C1753 C1752 1.377 . S
C1753 C1759 1.390 . S
C1754 H1745 0.930 1_455 S
C1754 C1752 1.384 . S
C1754 C1755 1.372 . S
C1755 C1754 1.372 . S
C1755 C1756 1.400 . S
C1755 C1760 1.490 . S
C1756 H1746 0.930 . S
C1756 C1755 1.400 . S
C1756 C1759 1.386 . S
H1757 C1773 0.930 . S
H1758 C1774 0.902 1_455 S
C1759 H1747 0.929 . S
C1759 C1753 1.390 . S
C1759 C1756 1.386 . S
C1760 C1755 1.490 . S
C1760 C1762 1.395 1_455 S
C1760 C1763 1.403 . S
H1761 C1767 0.930 . S
C1762 H1748 0.930 . S
C1762 C1760 1.395 1_655 S
C1762 C1765 1.403 1_565 S
C1763 C1760 1.403 . S
C1763 C1764 1.524 . S
C1763 C1767 1.400 1_565 S
C1764 H1749 0.960 1_565 S
C1764 H1750 0.960 . S
C1764 H1751 0.960 . S
C1764 C1763 1.524 . S
C1765 C1762 1.403 1_545 S
C1765 C1766 1.392 . S
C1765 C1769 1.495 . S
C1766 C1765 1.392 . S
C1766 C1767 1.385 1_655 S
C1766 C1768 1.478 . S
C1767 H1761 0.930 . S
C1767 C1763 1.400 1_545 S
C1767 C1766 1.385 1_455 S
C1768 C1766 1.478 . S
C1768 C1770 1.381 . S
C1768 C1774 1.383 . S
C1769 C1765 1.495 . S
C1769 H1775 0.943 1_545 S
C1769 H1776 0.970 . S
C1769 H1777 0.968 . S
C1770 C1768 1.381 . S
C1770 C1771 1.394 . S
C1770 H1778 0.930 . S
C1771 C1770 1.394 . S
C1771 C1772 1.383 . S
C1771 H1779 0.929 . S
C1772 C1771 1.383 . S
C1772 C1773 1.377 . S
C1773 H1757 0.930 . S
C1773 C1772 1.377 . S
C1773 C1774 1.379 . S
C1774 H1758 0.902 1_655 S
C1774 C1768 1.383 . S
C1774 C1773 1.379 . S
H1775 C1769 0.943 1_565 S
H1776 C1769 0.970 . S
H1777 C1769 0.968 . S
H1778 C1770 0.930 . S
H1779 C1771 0.929 . S
H1780 C1788 0.929 . S
H1781 C1790 0.930 . S
H1782 C1792 0.930 . S
H1783 C1795 0.929 . S
H1784 C1798 0.930 . S
H1785 C1800 0.960 . S
H1786 C1800 0.960 . S
H1787 C1800 0.960 . S
C1788 H1780 0.929 . S
C1788 C1789 1.377 . S
C1788 C1790 1.384 . S
C1789 C1788 1.377 . S
C1789 C1795 1.390 . S
C1790 H1781 0.930 . S
C1790 C1788 1.384 . S
C1790 C1791 1.372 . S
C1791 C1790 1.372 . S
C1791 C1792 1.400 . S
C1791 C1796 1.490 . S
C1792 H1782 0.930 . S
C1792 C1791 1.400 . S
C1792 C1795 1.386 . S
H1793 C1809 0.930 . S
H1794 C1810 0.931 . S
C1795 H1783 0.929 . S
C1795 C1789 1.390 . S
C1795 C1792 1.386 . S
C1796 C1791 1.490 . S
C1796 C1798 1.395 . S
C1796 C1799 1.403 . S
H1797 C1803 0.930 . S
C1798 H1784 0.930 . S
C1798 C1796 1.395 . S
C1798 C1801 1.403 . S
C1799 C1796 1.403 . S
C1799 C1800 1.524 . S
C1799 C1803 1.400 . S
C1800 H1785 0.960 . S
C1800 H1786 0.960 . S
C1800 H1787 0.960 . S
C1800 C1799 1.524 . S
C1801 C1798 1.403 . S
C1801 C1802 1.392 . S
C1801 C1805 1.495 . S
C1802 C1801 1.392 . S
C1802 C1803 1.385 . S
C1802 C1804 1.478 . S
C1803 H1797 0.930 . S
C1803 C1799 1.400 . S
C1803 C1802 1.385 . S
C1804 C1802 1.478 . S
C1804 C1806 1.381 . S
C1804 C1810 1.383 . S
C1805 C1801 1.495 . S
C1805 H1811 0.959 . S
C1805 H1812 0.961 . S
C1805 H1813 0.960 . S
C1806 C1804 1.381 . S
C1806 C1807 1.394 . S
C1806 H1814 0.930 . S
C1807 C1806 1.394 . S
C1807 C1808 1.383 . S
C1807 H1815 0.929 . S
C1808 C1807 1.383 . S
C1808 C1809 1.377 . S
C1809 H1793 0.930 . S
C1809 C1808 1.377 . S
C1809 C1810 1.379 . S
C1810 H1794 0.931 . S
C1810 C1804 1.383 . S
C1810 C1809 1.379 . S
H1811 C1805 0.959 . S
H1812 C1805 0.961 . S
H1813 C1805 0.960 . S
H1814 C1806 0.930 . S
H1815 C1807 0.929 . S
H1816 C1824 0.929 . S
H1817 C1826 0.930 . S
H1818 C1828 0.930 . S
H1819 C1831 0.929 . S
H1820 C1834 0.930 . S
H1821 C1836 0.960 . S
H1822 C1836 0.960 . S
H1823 C1836 0.960 . S
C1824 H1816 0.929 . S
C1824 C1825 1.377 . S
C1824 C1826 1.384 . S
C1825 C1824 1.377 . S
C1825 C1831 1.390 . S
C1826 H1817 0.930 . S
C1826 C1824 1.384 . S
C1826 C1827 1.372 . S
C1827 C1826 1.372 . S
C1827 C1828 1.400 . S
C1827 C1832 1.490 . S
C1828 H1818 0.930 . S
C1828 C1827 1.400 . S
C1828 C1831 1.386 . S
H1829 C1845 0.930 . S
H1830 C1846 0.931 . S
C1831 H1819 0.929 . S
C1831 C1825 1.390 . S
C1831 C1828 1.386 . S
C1832 C1827 1.490 . S
C1832 C1834 1.395 1_554 S
C1832 C1835 1.403 . S
H1833 C1839 0.930 . S
C1834 H1820 0.930 . S
C1834 C1832 1.395 1_556 S
C1834 C1837 1.403 1_565 S
C1835 C1832 1.403 . S
C1835 C1836 1.524 . S
C1835 C1839 1.400 1_565 S
C1836 H1821 0.960 . S
C1836 H1822 0.960 . S
C1836 H1823 0.960 . S
C1836 C1835 1.524 . S
C1837 C1834 1.403 1_545 S
C1837 C1838 1.392 . S
C1837 C1841 1.495 . S
C1838 C1837 1.392 . S
C1838 C1839 1.385 1_556 S
C1838 C1840 1.478 . S
C1839 H1833 0.930 . S
C1839 C1835 1.400 1_545 S
C1839 C1838 1.385 1_554 S
C1840 C1838 1.478 . S
C1840 C1842 1.381 . S
C1840 C1846 1.383 . S
C1841 C1837 1.495 . S
C1841 H1847 0.959 . S
C1841 H1848 0.961 . S
C1841 H1849 0.960 . S
C1842 C1840 1.381 . S
C1842 C1843 1.394 . S
C1842 H1850 0.930 . S
C1843 C1842 1.394 . S
C1843 C1844 1.383 . S
C1843 H1851 0.929 . S
C1844 C1843 1.383 . S
C1844 C1845 1.377 . S
C1845 H1829 0.930 . S
C1845 C1844 1.377 . S
C1845 C1846 1.379 . S
C1846 H1830 0.931 . S
C1846 C1840 1.383 . S
C1846 C1845 1.379 . S
H1847 C1841 0.959 . S
H1848 C1841 0.961 . S
H1849 C1841 0.960 . S
H1850 C1842 0.930 . S
H1851 C1843 0.929 . S
H1852 C1860 0.929 . S
H1853 C1862 0.930 . S
H1854 C1864 0.930 . S
H1855 C1867 0.929 . S
H1856 C1870 0.930 . S
H1857 C1872 0.960 . S
H1858 C1872 0.960 . S
H1859 C1872 0.960 . S
C1860 H1852 0.929 . S
C1860 C1861 1.377 . S
C1860 C1862 1.384 . S
C1861 C1860 1.377 . S
C1861 C1867 1.390 . S
C1862 H1853 0.930 . S
C1862 C1860 1.384 . S
C1862 C1863 1.372 . S
C1863 C1862 1.372 . S
C1863 C1864 1.400 . S
C1863 C1868 1.490 . S
C1864 H1854 0.930 . S
C1864 C1863 1.400 . S
C1864 C1867 1.386 . S
H1865 C1881 0.930 . S
H1866 C1882 0.931 . S
C1867 H1855 0.929 . S
C1867 C1861 1.390 . S
C1867 C1864 1.386 . S
C1868 C1863 1.490 . S
C1868 C1870 1.395 . S
C1868 C1871 1.403 . S
H1869 C1875 0.930 . S
C1870 H1856 0.930 . S
C1870 C1868 1.395 . S
C1870 C1873 1.403 . S
C1871 C1868 1.403 . S
C1871 C1872 1.524 . S
C1871 C1875 1.400 . S
C1872 H1857 0.960 . S
C1872 H1858 0.960 . S
C1872 H1859 0.960 . S
C1872 C1871 1.524 . S
C1873 C1870 1.403 . S
C1873 C1874 1.392 . S
C1873 C1877 1.495 . S
C1874 C1873 1.392 . S
C1874 C1875 1.385 . S
C1874 C1876 1.478 . S
C1875 H1869 0.930 . S
C1875 C1871 1.400 . S
C1875 C1874 1.385 . S
C1876 C1874 1.478 . S
C1876 C1878 1.381 . S
C1876 C1882 1.383 . S
C1877 C1873 1.495 . S
C1877 H1883 0.959 . S
C1877 H1884 0.961 . S
C1877 H1885 0.960 . S
C1878 C1876 1.381 . S
C1878 C1879 1.394 . S
C1878 H1886 0.930 . S
C1879 C1878 1.394 . S
C1879 C1880 1.383 . S
C1879 H1887 0.929 . S
C1880 C1879 1.383 . S
C1880 C1881 1.377 . S
C1881 H1865 0.930 . S
C1881 C1880 1.377 . S
C1881 C1882 1.379 . S
C1882 H1866 0.931 . S
C1882 C1876 1.383 . S
C1882 C1881 1.379 . S
H1883 C1877 0.959 . S
H1884 C1877 0.961 . S
H1885 C1877 0.960 . S
H1886 C1878 0.930 . S
H1887 C1879 0.929 . S
H1888 C1896 0.929 . S
H1889 C1898 0.930 . S
H1890 C1900 0.930 . S
H1891 C1903 0.929 . S
H1892 C1906 0.930 . S
H1893 C1908 0.960 . S
H1894 C1908 0.960 . S
H1895 C1908 0.960 . S
C1896 H1888 0.929 . S
C1896 C1897 1.377 . S
C1896 C1898 1.384 . S
C1897 C1896 1.377 . S
C1897 C1903 1.390 . S
C1898 H1889 0.930 . S
C1898 C1896 1.384 . S
C1898 C1899 1.372 . S
C1899 C1898 1.372 . S
C1899 C1900 1.400 . S
C1899 C1904 1.490 . S
C1900 H1890 0.930 . S
C1900 C1899 1.400 . S
C1900 C1903 1.386 . S
H1901 C1917 0.930 . S
H1902 C1918 0.931 . S
C1903 H1891 0.929 . S
C1903 C1897 1.390 . S
C1903 C1900 1.386 . S
C1904 C1899 1.490 . S
C1904 C1906 1.395 . S
C1904 C1907 1.403 . S
H1905 C1911 0.930 . S
C1906 H1892 0.930 . S
C1906 C1904 1.395 . S
C1906 C1909 1.403 . S
C1907 C1904 1.403 . S
C1907 C1908 1.524 . S
C1907 C1911 1.400 . S
C1908 H1893 0.960 . S
C1908 H1894 0.960 . S
C1908 H1895 0.960 . S
C1908 C1907 1.524 . S
C1909 C1906 1.403 . S
C1909 C1910 1.392 . S
C1909 C1913 1.495 . S
C1910 C1909 1.392 . S
C1910 C1911 1.385 . S
C1910 C1912 1.478 . S
C1911 H1905 0.930 . S
C1911 C1907 1.400 . S
C1911 C1910 1.385 . S
C1912 C1910 1.478 . S
C1912 C1914 1.381 . S
C1912 C1918 1.383 . S
C1913 C1909 1.495 . S
C1913 H1919 0.959 . S
C1913 H1920 0.961 . S
C1913 H1921 0.960 . S
C1914 C1912 1.381 . S
C1914 C1915 1.394 . S
C1914 H1922 0.930 . S
C1915 C1914 1.394 . S
C1915 C1916 1.383 . S
C1915 H1923 0.929 . S
C1916 C1915 1.383 . S
C1916 C1917 1.377 . S
C1917 H1901 0.930 . S
C1917 C1916 1.377 . S
C1917 C1918 1.379 . S
C1918 H1902 0.931 . S
C1918 C1912 1.383 . S
C1918 C1917 1.379 . S
H1919 C1913 0.959 . S
H1920 C1913 0.961 . S
H1921 C1913 0.960 . S
H1922 C1914 0.930 . S
H1923 C1915 0.929 . S
H1924 C1932 0.929 . S
H1925 C1934 0.930 . S
H1926 C1936 0.930 . S
H1927 C1939 0.929 . S
H1928 C1942 0.930 . S
H1929 C1944 0.960 . S
H1930 C1944 0.960 . S
H1931 C1944 0.960 . S
C1932 H1924 0.929 . S
C1932 C1933 1.377 . S
C1932 C1934 1.384 . S
C1933 C1932 1.377 . S
C1933 C1939 1.390 . S
C1934 H1925 0.930 . S
C1934 C1932 1.384 . S
C1934 C1935 1.372 . S
C1935 C1934 1.372 . S
C1935 C1936 1.400 . S
C1935 C1940 1.490 . S
C1936 H1926 0.930 . S
C1936 C1935 1.400 . S
C1936 C1939 1.386 . S
H1937 C1953 0.930 . S
H1938 C1954 0.931 . S
C1939 H1927 0.929 . S
C1939 C1933 1.390 . S
C1939 C1936 1.386 . S
C1940 C1935 1.490 . S
C1940 C1942 1.395 . S
C1940 C1943 1.403 . S
H1941 C1947 0.930 . S
C1942 H1928 0.930 . S
C1942 C1940 1.395 . S
C1942 C1945 1.403 . S
C1943 C1940 1.403 . S
C1943 C1944 1.524 . S
C1943 C1947 1.400 . S
C1944 H1929 0.960 . S
C1944 H1930 0.960 . S
C1944 H1931 0.960 . S
C1944 C1943 1.524 . S
C1945 C1942 1.403 . S
C1945 C1946 1.392 . S
C1945 C1949 1.495 . S
C1946 C1945 1.392 . S
C1946 C1947 1.385 . S
C1946 C1948 1.478 . S
C1947 H1941 0.930 . S
C1947 C1943 1.400 . S
C1947 C1946 1.385 . S
C1948 C1946 1.478 . S
C1948 C1950 1.381 . S
C1948 C1954 1.383 . S
C1949 C1945 1.495 . S
C1949 H1955 0.959 . S
C1949 H1956 0.961 . S
C1949 H1957 0.960 . S
C1950 C1948 1.381 . S
C1950 C1951 1.394 . S
C1950 H1958 0.930 . S
C1951 C1950 1.394 . S
C1951 C1952 1.383 . S
C1951 H1959 0.929 . S
C1952 C1951 1.383 . S
C1952 C1953 1.377 . S
C1953 H1937 0.930 . S
C1953 C1952 1.377 . S
C1953 C1954 1.379 . S
C1954 H1938 0.931 . S
C1954 C1948 1.383 . S
C1954 C1953 1.379 . S
H1955 C1949 0.959 . S
H1956 C1949 0.961 . S
H1957 C1949 0.960 . S
H1958 C1950 0.930 . S
H1959 C1951 0.929 . S
H1960 C1968 0.929 . S
H1961 C1970 0.930 . S
H1962 C1972 0.930 . S
H1963 C1975 0.929 . S
H1964 C1978 0.930 . S
H1965 C1980 0.960 . S
H1966 C1980 0.960 . S
H1967 C1980 0.960 . S
C1968 H1960 0.929 . S
C1968 C1969 1.377 . S
C1968 C1970 1.384 . S
C1969 C1968 1.377 . S
C1969 C1975 1.390 . S
C1970 H1961 0.930 . S
C1970 C1968 1.384 . S
C1970 C1971 1.372 . S
C1971 C1970 1.372 . S
C1971 C1972 1.400 . S
C1971 C1976 1.490 . S
C1972 H1962 0.930 . S
C1972 C1971 1.400 . S
C1972 C1975 1.386 . S
H1973 C1989 0.930 . S
H1974 C1990 0.931 . S
C1975 H1963 0.929 . S
C1975 C1969 1.390 . S
C1975 C1972 1.386 . S
C1976 C1971 1.490 . S
C1976 C1978 1.395 . S
C1976 C1979 1.403 . S
H1977 C1983 0.930 . S
C1978 H1964 0.930 . S
C1978 C1976 1.395 . S
C1978 C1981 1.403 . S
C1979 C1976 1.403 . S
C1979 C1980 1.524 . S
C1979 C1983 1.400 . S
C1980 H1965 0.960 . S
C1980 H1966 0.960 . S
C1980 H1967 0.960 . S
C1980 C1979 1.524 . S
C1981 C1978 1.403 . S
C1981 C1982 1.392 . S
C1981 C1985 1.495 . S
C1982 C1981 1.392 . S
C1982 C1983 1.385 . S
C1982 C1984 1.478 . S
C1983 H1977 0.930 . S
C1983 C1979 1.400 . S
C1983 C1982 1.385 . S
C1984 C1982 1.478 . S
C1984 C1986 1.381 . S
C1984 C1990 1.383 . S
C1985 C1981 1.495 . S
C1985 H1991 0.959 . S
C1985 H1992 0.961 . S
C1985 H1993 0.960 . S
C1986 C1984 1.381 . S
C1986 C1987 1.394 . S
C1986 H1994 0.930 . S
C1987 C1986 1.394 . S
C1987 C1988 1.383 . S
C1987 H1995 0.929 . S
C1988 C1987 1.383 . S
C1988 C1989 1.377 . S
C1989 H1973 0.930 . S
C1989 C1988 1.377 . S
C1989 C1990 1.379 . S
C1990 H1974 0.931 . S
C1990 C1984 1.383 . S
C1990 C1989 1.379 . S
H1991 C1985 0.959 . S
H1992 C1985 0.961 . S
H1993 C1985 0.960 . S
H1994 C1986 0.930 . S
H1995 C1987 0.929 . S
H1996 C2004 0.929 . S
H1997 C2006 0.930 . S
H1998 C2008 0.930 . S
H1999 C2011 0.929 . S
H2000 C2014 0.930 . S
H2001 C2016 0.960 . S
H2002 C2016 0.960 . S
H2003 C2016 0.960 . S
C2004 H1996 0.929 . S
C2004 C2005 1.377 . S
C2004 C2006 1.384 . S
C2005 C2004 1.377 . S
C2005 C2011 1.390 . S
C2006 H1997 0.930 . S
C2006 C2004 1.384 . S
C2006 C2007 1.372 . S
C2007 C2006 1.372 . S
C2007 C2008 1.400 . S
C2007 C2012 1.490 . S
C2008 H1998 0.930 . S
C2008 C2007 1.400 . S
C2008 C2011 1.386 . S
H2009 C2025 0.930 . S
H2010 C2026 0.931 . S
C2011 H1999 0.929 . S
C2011 C2005 1.390 . S
C2011 C2008 1.386 . S
C2012 C2007 1.490 . S
C2012 C2014 1.395 . S
C2012 C2015 1.403 . S
H2013 C2019 0.930 . S
C2014 H2000 0.930 . S
C2014 C2012 1.395 . S
C2014 C2017 1.403 . S
C2015 C2012 1.403 . S
C2015 C2016 1.524 . S
C2015 C2019 1.400 . S
C2016 H2001 0.960 . S
C2016 H2002 0.960 . S
C2016 H2003 0.960 . S
C2016 C2015 1.524 . S
C2017 C2014 1.403 . S
C2017 C2018 1.392 . S
C2017 C2021 1.495 . S
C2018 C2017 1.392 . S
C2018 C2019 1.385 . S
C2018 C2020 1.478 . S
C2019 H2013 0.930 . S
C2019 C2015 1.400 . S
C2019 C2018 1.385 . S
C2020 C2018 1.478 . S
C2020 C2022 1.381 . S
C2020 C2026 1.383 . S
C2021 C2017 1.495 . S
C2021 H2027 0.959 . S
C2021 H2028 0.961 . S
C2021 H2029 0.960 . S
C2022 C2020 1.381 . S
C2022 C2023 1.394 . S
C2022 H2030 0.930 . S
C2023 C2022 1.394 . S
C2023 C2024 1.383 . S
C2023 H2031 0.929 . S
C2024 C2023 1.383 . S
C2024 C2025 1.377 . S
C2025 H2009 0.930 . S
C2025 C2024 1.377 . S
C2025 C2026 1.379 . S
C2026 H2010 0.931 . S
C2026 C2020 1.383 . S
C2026 C2025 1.379 . S
H2027 C2021 0.959 . S
H2028 C2021 0.961 . S
H2029 C2021 0.960 . S
H2030 C2022 0.930 . S
H2031 C2023 0.929 . S
H2032 C2040 0.929 . S
H2033 C2042 0.930 . S
H2034 C2044 0.930 . S
H2035 C2047 0.929 . S
H2036 C2050 0.930 . S
H2037 C2052 0.960 . S
H2038 C2052 0.960 . S
H2039 C2052 0.960 . S
C2040 H2032 0.929 . S
C2040 C2041 1.377 . S
C2040 C2042 1.384 . S
C2041 C2040 1.377 . S
C2041 C2047 1.390 . S
C2042 H2033 0.930 . S
C2042 C2040 1.384 . S
C2042 C2043 1.372 . S
C2043 C2042 1.372 . S
C2043 C2044 1.400 . S
C2043 C2048 1.490 . S
C2044 H2034 0.930 . S
C2044 C2043 1.400 . S
C2044 C2047 1.386 . S
H2045 C2061 0.930 . S
H2046 C2062 0.931 . S
C2047 H2035 0.929 . S
C2047 C2041 1.390 . S
C2047 C2044 1.386 . S
C2048 C2043 1.490 . S
C2048 C2050 1.395 . S
C2048 C2051 1.403 . S
H2049 C2055 0.930 . S
C2050 H2036 0.930 . S
C2050 C2048 1.395 . S
C2050 C2053 1.403 . S
C2051 C2048 1.403 . S
C2051 C2052 1.524 . S
C2051 C2055 1.400 . S
C2052 H2037 0.960 . S
C2052 H2038 0.960 . S
C2052 H2039 0.960 . S
C2052 C2051 1.524 . S
C2053 C2050 1.403 . S
C2053 C2054 1.392 . S
C2053 C2057 1.495 . S
C2054 C2053 1.392 . S
C2054 C2055 1.385 . S
C2054 C2056 1.478 . S
C2055 H2049 0.930 . S
C2055 C2051 1.400 . S
C2055 C2054 1.385 . S
C2056 C2054 1.478 . S
C2056 C2058 1.381 . S
C2056 C2062 1.383 . S
C2057 C2053 1.495 . S
C2057 H2063 0.959 . S
C2057 H2064 0.961 . S
C2057 H2065 0.960 . S
C2058 C2056 1.381 . S
C2058 C2059 1.394 . S
C2058 H2066 0.930 . S
C2059 C2058 1.394 . S
C2059 C2060 1.383 . S
C2059 H2067 0.929 . S
C2060 C2059 1.383 . S
C2060 C2061 1.377 . S
C2061 H2045 0.930 . S
C2061 C2060 1.377 . S
C2061 C2062 1.379 . S
C2062 H2046 0.931 . S
C2062 C2056 1.383 . S
C2062 C2061 1.379 . S
H2063 C2057 0.959 . S
H2064 C2057 0.961 . S
H2065 C2057 0.960 . S
H2066 C2058 0.930 . S
H2067 C2059 0.929 . S
H2068 C2076 0.929 . S
H2069 C2078 0.930 1_455 S
H2070 C2080 0.930 . S
H2071 C2083 0.929 . S
H2072 C2086 0.930 . S
H2073 C2088 0.960 . S
H2074 C2088 0.960 . S
H2075 C2088 0.960 . S
C2076 H2068 0.929 . S
C2076 C2077 1.377 . S
C2076 C2078 1.384 . S
C2077 C2076 1.377 . S
C2077 C2083 1.390 . S
C2078 H2069 0.930 1_655 S
C2078 C2076 1.384 . S
C2078 C2079 1.372 . S
C2079 C2078 1.372 . S
C2079 C2080 1.400 . S
C2079 C2084 1.490 . S
C2080 H2070 0.930 . S
C2080 C2079 1.400 . S
C2080 C2083 1.386 . S
H2081 C2097 0.930 . S
H2082 C2098 0.931 1_655 S
C2083 H2071 0.929 . S
C2083 C2077 1.390 . S
C2083 C2080 1.386 . S
C2084 C2079 1.490 . S
C2084 C2086 1.395 1_654 S
C2084 C2087 1.403 . S
H2085 C2091 0.930 . S
C2086 H2072 0.930 . S
C2086 C2084 1.395 1_456 S
C2086 C2089 1.403 . S
C2087 C2084 1.403 . S
C2087 C2088 1.524 . S
C2087 C2091 1.379 1_655 S
C2088 H2073 0.960 . S
C2088 H2074 0.960 . S
C2088 H2075 0.960 . S
C2088 C2087 1.524 . S
C2089 C2086 1.403 . S
C2089 C2090 1.392 . S
C2089 C2093 1.495 . S
C2090 C2089 1.392 . S
C2090 C2091 1.410 1_556 S
C2090 C2092 1.478 . S
C2091 H2085 0.930 . S
C2091 C2087 1.379 1_455 S
C2091 C2090 1.410 1_554 S
C2092 C2090 1.478 . S
C2092 C2094 1.381 . S
C2092 C2098 1.383 . S
C2093 C2089 1.495 . S
C2093 H2099 0.959 . S
C2093 H2100 0.961 . S
C2093 H2101 0.960 . S
C2094 C2092 1.381 . S
C2094 C2095 1.394 . S
C2094 H2102 0.930 . S
C2095 C2094 1.394 . S
C2095 C2096 1.383 . S
C2095 H2103 0.929 . S
C2096 C2095 1.383 . S
C2096 C2097 1.377 . S
C2097 H2081 0.930 . S
C2097 C2096 1.377 . S
C2097 C2098 1.379 . S
C2098 H2082 0.931 1_455 S
C2098 C2092 1.383 . S
C2098 C2097 1.379 . S
H2099 C2093 0.959 . S
H2100 C2093 0.961 . S
H2101 C2093 0.960 . S
H2102 C2094 0.930 . S
H2103 C2095 0.929 . S
H2104 C2112 0.929 . S
H2105 C2114 0.924 1_554 S
H2106 C2116 0.930 . S
H2107 C2119 0.929 . S
H2108 C2122 0.930 . S
H2109 C2124 0.960 . S
H2110 C2124 0.960 . S
H2111 C2124 0.960 . S
C2112 H2104 0.929 . S
C2112 C2113 1.377 . S
C2112 C2114 1.384 . S
C2113 C2112 1.377 . S
C2113 C2119 1.390 . S
C2114 H2105 0.924 1_556 S
C2114 C2112 1.384 . S
C2114 C2115 1.372 . S
C2115 C2114 1.372 . S
C2115 C2116 1.400 . S
C2115 C2120 1.490 . S
C2116 H2106 0.930 . S
C2116 C2115 1.400 . S
C2116 C2119 1.386 . S
H2117 C2133 0.930 . S
H2118 C2134 0.931 . S
C2119 H2107 0.929 . S
C2119 C2113 1.390 . S
C2119 C2116 1.386 . S
C2120 C2115 1.490 . S
C2120 C2122 1.395 1_556 S
C2120 C2123 1.403 . S
H2121 C2127 0.930 . S
C2122 H2108 0.930 . S
C2122 C2120 1.395 1_554 S
C2122 C2125 1.403 . S
C2123 C2120 1.403 . S
C2123 C2124 1.524 . S
C2123 C2127 1.400 . S
C2124 H2109 0.960 . S
C2124 H2110 0.960 . S
C2124 H2111 0.960 . S
C2124 C2123 1.524 . S
C2125 C2122 1.403 . S
C2125 C2126 1.392 . S
C2125 C2129 1.495 . S
C2126 C2125 1.392 . S
C2126 C2127 1.385 1_554 S
C2126 C2128 1.478 . S
C2127 H2121 0.930 . S
C2127 C2123 1.400 . S
C2127 C2126 1.385 1_556 S
C2128 C2126 1.478 . S
C2128 C2130 1.381 . S
C2128 C2134 1.383 . S
C2129 C2125 1.495 . S
C2129 H2135 0.959 . S
C2129 H2136 0.961 . S
C2129 H2137 0.960 . S
C2130 C2128 1.381 . S
C2130 C2131 1.394 . S
C2130 H2138 0.930 . S
C2131 C2130 1.394 . S
C2131 C2132 1.383 . S
C2131 H2139 0.929 . S
C2132 C2131 1.383 . S
C2132 C2133 1.377 . S
C2133 H2117 0.930 . S
C2133 C2132 1.377 . S
C2133 C2134 1.379 . S
C2134 H2118 0.931 . S
C2134 C2128 1.383 . S
C2134 C2133 1.379 . S
H2135 C2129 0.959 . S
H2136 C2129 0.961 . S
H2137 C2129 0.960 . S
H2138 C2130 0.930 . S
H2139 C2131 0.929 . S
H2140 C2148 0.929 . S
H2141 C2150 0.930 . S
H2142 C2152 0.930 . S
H2143 C2155 0.929 . S
H2144 C2158 0.930 . S
H2145 C2160 0.960 . S
H2146 C2160 0.960 . S
H2147 C2160 0.960 . S
C2148 H2140 0.929 . S
C2148 C2149 1.377 . S
C2148 C2150 1.384 . S
C2149 C2148 1.377 . S
C2149 C2155 1.390 . S
C2150 H2141 0.930 . S
C2150 C2148 1.384 . S
C2150 C2151 1.372 . S
C2151 C2150 1.372 . S
C2151 C2152 1.400 . S
C2151 C2156 1.490 . S
C2152 H2142 0.930 . S
C2152 C2151 1.400 . S
C2152 C2155 1.386 . S
H2153 C2169 0.930 . S
H2154 C2170 0.931 . S
C2155 H2143 0.929 . S
C2155 C2149 1.390 . S
C2155 C2152 1.386 . S
C2156 C2151 1.490 . S
C2156 C2158 1.395 1_455 S
C2156 C2159 1.403 . S
H2157 C2163 0.930 . S
C2158 H2144 0.930 . S
C2158 C2156 1.395 1_655 S
C2158 C2161 1.403 . S
C2159 C2156 1.403 . S
C2159 C2160 1.524 . S
C2159 C2163 1.400 . S
C2160 H2145 0.960 . S
C2160 H2146 0.960 . S
C2160 H2147 0.960 . S
C2160 C2159 1.524 . S
C2161 C2158 1.403 . S
C2161 C2162 1.392 . S
C2161 C2165 1.495 . S
C2162 C2161 1.392 . S
C2162 C2163 1.385 1_655 S
C2162 C2164 1.478 . S
C2163 H2157 0.930 . S
C2163 C2159 1.400 . S
C2163 C2162 1.385 1_455 S
C2164 C2162 1.478 . S
C2164 C2166 1.381 . S
C2164 C2170 1.383 . S
C2165 C2161 1.495 . S
C2165 H2171 0.959 . S
C2165 H2172 0.961 . S
C2165 H2173 0.960 . S
C2166 C2164 1.381 . S
C2166 C2167 1.394 . S
C2166 H2174 0.930 . S
C2167 C2166 1.394 . S
C2167 C2168 1.383 . S
C2167 H2175 0.929 . S
C2168 C2167 1.383 . S
C2168 C2169 1.377 . S
C2169 H2153 0.930 . S
C2169 C2168 1.377 . S
C2169 C2170 1.379 . S
C2170 H2154 0.931 . S
C2170 C2164 1.383 . S
C2170 C2169 1.379 . S
H2171 C2165 0.959 . S
H2172 C2165 0.961 . S
H2173 C2165 0.960 . S
H2174 C2166 0.930 . S
H2175 C2167 0.929 . S
H2176 C2184 0.929 . S
H2177 C2186 0.930 . S
H2178 C2188 0.930 . S
H2179 C2191 0.929 . S
H2180 C2194 0.930 . S
H2181 C2196 0.960 . S
H2182 C2196 0.960 . S
H2183 C2196 0.960 . S
C2184 H2176 0.929 . S
C2184 C2185 1.377 . S
C2184 C2186 1.384 . S
C2185 C2184 1.377 . S
C2185 C2191 1.390 . S
C2186 H2177 0.930 . S
C2186 C2184 1.384 . S
C2186 C2187 1.372 . S
C2187 C2186 1.372 . S
C2187 C2188 1.400 . S
C2187 C2192 1.490 . S
C2188 H2178 0.930 . S
C2188 C2187 1.400 . S
C2188 C2191 1.386 . S
H2189 C2205 0.930 . S
H2190 C2206 0.931 . S
C2191 H2179 0.929 . S
C2191 C2185 1.390 . S
C2191 C2188 1.386 . S
C2192 C2187 1.490 . S
C2192 C2194 1.395 . S
C2192 C2195 1.403 . S
H2193 C2199 0.930 . S
C2194 H2180 0.930 . S
C2194 C2192 1.395 . S
C2194 C2197 1.403 . S
C2195 C2192 1.403 . S
C2195 C2196 1.524 . S
C2195 C2199 1.400 . S
C2196 H2181 0.960 . S
C2196 H2182 0.960 . S
C2196 H2183 0.960 . S
C2196 C2195 1.524 . S
C2197 C2194 1.403 . S
C2197 C2198 1.392 . S
C2197 C2201 1.495 . S
C2198 C2197 1.392 . S
C2198 C2199 1.385 . S
C2198 C2200 1.478 . S
C2199 H2193 0.930 . S
C2199 C2195 1.400 . S
C2199 C2198 1.385 . S
C2200 C2198 1.478 . S
C2200 C2202 1.381 . S
C2200 C2206 1.383 . S
C2201 C2197 1.495 . S
C2201 H2207 0.959 . S
C2201 H2208 0.961 . S
C2201 H2209 0.960 . S
C2202 C2200 1.381 . S
C2202 C2203 1.394 . S
C2202 H2210 0.930 . S
C2203 C2202 1.394 . S
C2203 C2204 1.383 . S
C2203 H2211 0.929 . S
C2204 C2203 1.383 . S
C2204 C2205 1.377 . S
C2205 H2189 0.930 . S
C2205 C2204 1.377 . S
C2205 C2206 1.379 . S
C2206 H2190 0.931 . S
C2206 C2200 1.383 . S
C2206 C2205 1.379 . S
H2207 C2201 0.959 . S
H2208 C2201 0.961 . S
H2209 C2201 0.960 . S
H2210 C2202 0.930 . S
H2211 C2203 0.929 . S
H2212 C2220 0.929 . S
H2213 C2222 0.930 . S
H2214 C2224 0.930 . S
H2215 C2227 0.929 . S
H2216 C2230 0.930 . S
H2217 C2232 0.960 . S
H2218 C2232 0.960 . S
H2219 C2232 0.960 . S
C2220 H2212 0.929 . S
C2220 C2221 1.377 . S
C2220 C2222 1.384 . S
C2221 C2220 1.377 . S
C2221 C2227 1.390 . S
C2222 H2213 0.930 . S
C2222 C2220 1.384 . S
C2222 C2223 1.372 . S
C2223 C2222 1.372 . S
C2223 C2224 1.400 . S
C2223 C2228 1.490 . S
C2224 H2214 0.930 . S
C2224 C2223 1.400 . S
C2224 C2227 1.386 . S
H2225 C2241 0.930 . S
H2226 C2242 0.931 . S
C2227 H2215 0.929 . S
C2227 C2221 1.390 . S
C2227 C2224 1.386 . S
C2228 C2223 1.490 . S
C2228 C2230 1.395 . S
C2228 C2231 1.403 . S
H2229 C2235 0.930 . S
C2230 H2216 0.930 . S
C2230 C2228 1.395 . S
C2230 C2233 1.403 . S
C2231 C2228 1.403 . S
C2231 C2232 1.524 . S
C2231 C2235 1.400 . S
C2232 H2217 0.960 . S
C2232 H2218 0.960 . S
C2232 H2219 0.960 . S
C2232 C2231 1.524 . S
C2233 C2230 1.403 . S
C2233 C2234 1.392 . S
C2233 C2237 1.495 . S
C2234 C2233 1.392 . S
C2234 C2235 1.385 . S
C2234 C2236 1.478 . S
C2235 H2229 0.930 . S
C2235 C2231 1.400 . S
C2235 C2234 1.385 . S
C2236 C2234 1.478 . S
C2236 C2238 1.381 . S
C2236 C2242 1.383 . S
C2237 C2233 1.495 . S
C2237 H2243 0.959 . S
C2237 H2244 0.961 . S
C2237 H2245 0.960 . S
C2238 C2236 1.381 . S
C2238 C2239 1.394 . S
C2238 H2246 0.930 . S
C2239 C2238 1.394 . S
C2239 C2240 1.383 . S
C2239 H2247 0.929 . S
C2240 C2239 1.383 . S
C2240 C2241 1.377 . S
C2241 H2225 0.930 . S
C2241 C2240 1.377 . S
C2241 C2242 1.379 . S
C2242 H2226 0.931 . S
C2242 C2236 1.383 . S
C2242 C2241 1.379 . S
H2243 C2237 0.959 . S
H2244 C2237 0.961 . S
H2245 C2237 0.960 . S
H2246 C2238 0.930 . S
H2247 C2239 0.929 . S
H2248 C2256 0.929 . S
H2249 C2258 0.930 . S
H2250 C2260 0.930 . S
H2251 C2263 0.929 . S
H2252 C2266 0.930 . S
H2253 C2268 0.960 . S
H2254 C2268 0.960 . S
H2255 C2268 0.960 . S
C2256 H2248 0.929 . S
C2256 C2257 1.377 . S
C2256 C2258 1.384 . S
C2257 C2256 1.377 . S
C2257 C2263 1.390 . S
C2258 H2249 0.930 . S
C2258 C2256 1.384 . S
C2258 C2259 1.372 . S
C2259 C2258 1.372 . S
C2259 C2260 1.400 . S
C2259 C2264 1.490 . S
C2260 H2250 0.930 . S
C2260 C2259 1.400 . S
C2260 C2263 1.386 . S
H2261 C2277 0.930 . S
H2262 C2278 0.931 . S
C2263 H2251 0.929 . S
C2263 C2257 1.390 . S
C2263 C2260 1.386 . S
C2264 C2259 1.490 . S
C2264 C2266 1.395 . S
C2264 C2267 1.403 . S
H2265 C2271 0.930 . S
C2266 H2252 0.930 . S
C2266 C2264 1.395 . S
C2266 C2269 1.403 . S
C2267 C2264 1.403 . S
C2267 C2268 1.524 . S
C2267 C2271 1.400 . S
C2268 H2253 0.960 . S
C2268 H2254 0.960 . S
C2268 H2255 0.960 . S
C2268 C2267 1.524 . S
C2269 C2266 1.403 . S
C2269 C2270 1.392 . S
C2269 C2273 1.495 . S
C2270 C2269 1.392 . S
C2270 C2271 1.385 . S
C2270 C2272 1.478 . S
C2271 H2265 0.930 . S
C2271 C2267 1.400 . S
C2271 C2270 1.385 . S
C2272 C2270 1.478 . S
C2272 C2274 1.381 . S
C2272 C2278 1.383 . S
C2273 C2269 1.495 . S
C2273 H2279 0.959 . S
C2273 H2280 0.961 . S
C2273 H2281 0.960 . S
C2274 C2272 1.381 . S
C2274 C2275 1.394 . S
C2274 H2282 0.930 . S
C2275 C2274 1.394 . S
C2275 C2276 1.383 . S
C2275 H2283 0.929 . S
C2276 C2275 1.383 . S
C2276 C2277 1.377 . S
C2277 H2261 0.930 . S
C2277 C2276 1.377 . S
C2277 C2278 1.379 . S
C2278 H2262 0.931 . S
C2278 C2272 1.383 . S
C2278 C2277 1.379 . S
H2279 C2273 0.959 . S
H2280 C2273 0.961 . S
H2281 C2273 0.960 . S
H2282 C2274 0.930 . S
H2283 C2275 0.929 . S
H2284 C2292 0.929 . S
H2285 C2294 0.930 . S
H2286 C2296 0.930 . S
H2287 C2299 0.929 . S
H2288 C2302 0.930 . S
H2289 C2304 0.960 . S
H2290 C2304 0.960 . S
H2291 C2304 0.960 . S
C2292 H2284 0.929 . S
C2292 C2293 1.377 . S
C2292 C2294 1.384 . S
C2293 C2292 1.377 . S
C2293 C2299 1.390 . S
C2294 H2285 0.930 . S
C2294 C2292 1.384 . S
C2294 C2295 1.372 . S
C2295 C2294 1.372 . S
C2295 C2296 1.400 . S
C2295 C2300 1.490 . S
C2296 H2286 0.930 . S
C2296 C2295 1.400 . S
C2296 C2299 1.386 . S
H2297 C2313 0.930 . S
H2298 C2314 0.931 . S
C2299 H2287 0.929 . S
C2299 C2293 1.390 . S
C2299 C2296 1.386 . S
C2300 C2295 1.490 . S
C2300 C2302 1.395 . S
C2300 C2303 1.403 . S
H2301 C2307 0.930 . S
C2302 H2288 0.930 . S
C2302 C2300 1.395 . S
C2302 C2305 1.403 . S
C2303 C2300 1.403 . S
C2303 C2304 1.524 . S
C2303 C2307 1.400 . S
C2304 H2289 0.960 . S
C2304 H2290 0.960 . S
C2304 H2291 0.960 . S
C2304 C2303 1.524 . S
C2305 C2302 1.403 . S
C2305 C2306 1.392 . S
C2305 C2309 1.495 . S
C2306 C2305 1.392 . S
C2306 C2307 1.385 . S
C2306 C2308 1.478 . S
C2307 H2301 0.930 . S
C2307 C2303 1.400 . S
C2307 C2306 1.385 . S
C2308 C2306 1.478 . S
C2308 C2310 1.381 . S
C2308 C2314 1.383 . S
C2309 C2305 1.495 . S
C2309 H2315 0.959 . S
C2309 H2316 0.961 . S
C2309 H2317 0.960 . S
C2310 C2308 1.381 . S
C2310 C2311 1.394 . S
C2310 H2318 0.930 . S
C2311 C2310 1.394 . S
C2311 C2312 1.383 . S
C2311 H2319 0.929 . S
C2312 C2311 1.383 . S
C2312 C2313 1.377 . S
C2313 H2297 0.930 . S
C2313 C2312 1.377 . S
C2313 C2314 1.379 . S
C2314 H2298 0.931 . S
C2314 C2308 1.383 . S
C2314 C2313 1.379 . S
H2315 C2309 0.959 . S
H2316 C2309 0.961 . S
H2317 C2309 0.960 . S
H2318 C2310 0.930 . S
H2319 C2311 0.929 . S
H2320 C2328 0.929 . S
H2321 C2330 0.930 . S
H2322 C2332 0.930 . S
H2323 C2335 0.929 . S
H2324 C2338 0.930 . S
H2325 C2340 0.960 . S
H2326 C2340 0.960 . S
H2327 C2340 0.960 . S
C2328 H2320 0.929 . S
C2328 C2329 1.377 . S
C2328 C2330 1.384 . S
C2329 C2328 1.377 . S
C2329 C2335 1.390 . S
C2330 H2321 0.930 . S
C2330 C2328 1.384 . S
C2330 C2331 1.372 . S
C2331 C2330 1.372 . S
C2331 C2332 1.400 . S
C2331 C2336 1.490 . S
C2332 H2322 0.930 . S
C2332 C2331 1.400 . S
C2332 C2335 1.386 . S
H2333 C2349 0.930 . S
H2334 C2350 0.931 . S
C2335 H2323 0.929 . S
C2335 C2329 1.390 . S
C2335 C2332 1.386 . S
C2336 C2331 1.490 . S
C2336 C2338 1.395 . S
C2336 C2339 1.403 . S
H2337 C2343 0.930 . S
C2338 H2324 0.930 . S
C2338 C2336 1.395 . S
C2338 C2341 1.403 . S
C2339 C2336 1.403 . S
C2339 C2340 1.524 . S
C2339 C2343 1.400 . S
C2340 H2325 0.960 . S
C2340 H2326 0.960 . S
C2340 H2327 0.960 . S
C2340 C2339 1.524 . S
C2341 C2338 1.403 . S
C2341 C2342 1.392 . S
C2341 C2345 1.495 . S
C2342 C2341 1.392 . S
C2342 C2343 1.385 . S
C2342 C2344 1.478 . S
C2343 H2337 0.930 . S
C2343 C2339 1.400 . S
C2343 C2342 1.385 . S
C2344 C2342 1.478 . S
C2344 C2346 1.381 . S
C2344 C2350 1.383 . S
C2345 C2341 1.495 . S
C2345 H2351 0.959 . S
C2345 H2352 0.961 . S
C2345 H2353 0.960 . S
C2346 C2344 1.381 . S
C2346 C2347 1.394 . S
C2346 H2354 0.930 . S
C2347 C2346 1.394 . S
C2347 C2348 1.383 . S
C2347 H2355 0.929 . S
C2348 C2347 1.383 . S
C2348 C2349 1.377 . S
C2349 H2333 0.930 . S
C2349 C2348 1.377 . S
C2349 C2350 1.379 . S
C2350 H2334 0.931 . S
C2350 C2344 1.383 . S
C2350 C2349 1.379 . S
H2351 C2345 0.959 . S
H2352 C2345 0.961 . S
H2353 C2345 0.960 . S
H2354 C2346 0.930 . S
H2355 C2347 0.929 . S
H2356 C2364 0.929 . S
H2357 C2366 0.930 . S
H2358 C2368 0.930 . S
H2359 C2371 0.929 . S
H2360 C2374 0.930 . S
H2361 C2376 0.960 . S
H2362 C2376 0.960 . S
H2363 C2376 0.960 . S
C2364 H2356 0.929 . S
C2364 C2365 1.377 . S
C2364 C2366 1.384 . S
C2365 C2364 1.377 . S
C2365 C2371 1.390 . S
C2366 H2357 0.930 . S
C2366 C2364 1.384 . S
C2366 C2367 1.372 . S
C2367 C2366 1.372 . S
C2367 C2368 1.400 . S
C2367 C2372 1.490 . S
C2368 H2358 0.930 . S
C2368 C2367 1.400 . S
C2368 C2371 1.386 . S
H2369 C2385 0.930 . S
H2370 C2386 0.931 . S
C2371 H2359 0.929 . S
C2371 C2365 1.390 . S
C2371 C2368 1.386 . S
C2372 C2367 1.490 . S
C2372 C2374 1.395 . S
C2372 C2375 1.403 . S
H2373 C2379 0.930 . S
C2374 H2360 0.930 . S
C2374 C2372 1.395 . S
C2374 C2377 1.403 . S
C2375 C2372 1.403 . S
C2375 C2376 1.524 . S
C2375 C2379 1.400 . S
C2376 H2361 0.960 . S
C2376 H2362 0.960 . S
C2376 H2363 0.960 . S
C2376 C2375 1.524 . S
C2377 C2374 1.403 . S
C2377 C2378 1.392 . S
C2377 C2381 1.495 . S
C2378 C2377 1.392 . S
C2378 C2379 1.385 . S
C2378 C2380 1.478 . S
C2379 H2373 0.930 . S
C2379 C2375 1.400 . S
C2379 C2378 1.385 . S
C2380 C2378 1.478 . S
C2380 C2382 1.381 . S
C2380 C2386 1.383 . S
C2381 C2377 1.495 . S
C2381 H2387 0.959 . S
C2381 H2388 0.961 . S
C2381 H2389 0.960 . S
C2382 C2380 1.381 . S
C2382 C2383 1.394 . S
C2382 H2390 0.930 . S
C2383 C2382 1.394 . S
C2383 C2384 1.383 . S
C2383 H2391 0.929 . S
C2384 C2383 1.383 . S
C2384 C2385 1.377 . S
C2385 H2369 0.930 . S
C2385 C2384 1.377 . S
C2385 C2386 1.379 . S
C2386 H2370 0.931 . S
C2386 C2380 1.383 . S
C2386 C2385 1.379 . S
H2387 C2381 0.959 . S
H2388 C2381 0.961 . S
H2389 C2381 0.960 . S
H2390 C2382 0.930 . S
H2391 C2383 0.929 . S
H2392 C2400 0.929 . S
H2393 C2402 0.930 . S
H2394 C2404 0.930 . S
H2395 C2407 0.929 . S
H2396 C2410 0.930 . S
H2397 C2412 0.960 . S
H2398 C2412 0.960 . S
H2399 C2412 0.960 . S
C2400 H2392 0.929 . S
C2400 C2401 1.377 . S
C2400 C2402 1.384 . S
C2401 C2400 1.377 . S
C2401 C2407 1.390 . S
C2402 H2393 0.930 . S
C2402 C2400 1.384 . S
C2402 C2403 1.372 . S
C2403 C2402 1.372 . S
C2403 C2404 1.400 . S
C2403 C2408 1.490 . S
C2404 H2394 0.930 . S
C2404 C2403 1.400 . S
C2404 C2407 1.386 . S
H2405 C2421 0.930 . S
H2406 C2422 0.931 . S
C2407 H2395 0.929 . S
C2407 C2401 1.390 . S
C2407 C2404 1.386 . S
C2408 C2403 1.490 . S
C2408 C2410 1.395 . S
C2408 C2411 1.403 . S
H2409 C2415 0.930 . S
C2410 H2396 0.930 . S
C2410 C2408 1.395 . S
C2410 C2413 1.403 . S
C2411 C2408 1.403 . S
C2411 C2412 1.524 . S
C2411 C2415 1.400 . S
C2412 H2397 0.960 . S
C2412 H2398 0.960 . S
C2412 H2399 0.960 . S
C2412 C2411 1.524 . S
C2413 C2410 1.403 . S
C2413 C2414 1.392 . S
C2413 C2417 1.495 . S
C2414 C2413 1.392 . S
C2414 C2415 1.385 . S
C2414 C2416 1.478 . S
C2415 H2409 0.930 . S
C2415 C2411 1.400 . S
C2415 C2414 1.385 . S
C2416 C2414 1.478 . S
C2416 C2418 1.381 . S
C2416 C2422 1.383 . S
C2417 C2413 1.495 . S
C2417 H2423 0.959 . S
C2417 H2424 0.961 . S
C2417 H2425 0.960 . S
C2418 C2416 1.381 . S
C2418 C2419 1.394 . S
C2418 H2426 0.930 . S
C2419 C2418 1.394 . S
C2419 C2420 1.383 . S
C2419 H2427 0.929 . S
C2420 C2419 1.383 . S
C2420 C2421 1.377 . S
C2421 H2405 0.930 . S
C2421 C2420 1.377 . S
C2421 C2422 1.379 . S
C2422 H2406 0.931 . S
C2422 C2416 1.383 . S
C2422 C2421 1.379 . S
H2423 C2417 0.959 . S
H2424 C2417 0.961 . S
H2425 C2417 0.960 . S
H2426 C2418 0.930 . S
H2427 C2419 0.929 . S
H2428 C2436 0.929 . S
H2429 C2438 0.930 . S
H2430 C2440 0.930 . S
H2431 C2443 0.929 . S
H2432 C2446 0.930 . S
H2433 C2448 0.960 . S
H2434 C2448 0.960 . S
H2435 C2448 0.960 . S
C2436 H2428 0.929 . S
C2436 C2437 1.377 . S
C2436 C2438 1.384 . S
C2437 C2436 1.377 . S
C2437 C2443 1.390 . S
C2438 H2429 0.930 . S
C2438 C2436 1.384 . S
C2438 C2439 1.372 . S
C2439 C2438 1.372 . S
C2439 C2440 1.400 . S
C2439 C2444 1.490 . S
C2440 H2430 0.930 . S
C2440 C2439 1.400 . S
C2440 C2443 1.386 . S
H2441 C2457 0.930 . S
H2442 C2458 0.931 . S
C2443 H2431 0.929 . S
C2443 C2437 1.390 . S
C2443 C2440 1.386 . S
C2444 C2439 1.490 . S
C2444 C2446 1.395 . S
C2444 C2447 1.403 . S
H2445 C2451 0.930 . S
C2446 H2432 0.930 . S
C2446 C2444 1.395 . S
C2446 C2449 1.403 . S
C2447 C2444 1.403 . S
C2447 C2448 1.524 . S
C2447 C2451 1.400 . S
C2448 H2433 0.960 . S
C2448 H2434 0.960 . S
C2448 H2435 0.960 . S
C2448 C2447 1.524 . S
C2449 C2446 1.403 . S
C2449 C2450 1.392 . S
C2449 C2453 1.495 . S
C2450 C2449 1.392 . S
C2450 C2451 1.385 . S
C2450 C2452 1.478 . S
C2451 H2445 0.930 . S
C2451 C2447 1.400 . S
C2451 C2450 1.385 . S
C2452 C2450 1.478 . S
C2452 C2454 1.381 . S
C2452 C2458 1.383 . S
C2453 C2449 1.495 . S
C2453 H2459 0.959 . S
C2453 H2460 0.961 . S
C2453 H2461 0.960 . S
C2454 C2452 1.381 . S
C2454 C2455 1.394 . S
C2454 H2462 0.930 . S
C2455 C2454 1.394 . S
C2455 C2456 1.383 . S
C2455 H2463 0.929 . S
C2456 C2455 1.383 . S
C2456 C2457 1.377 . S
C2457 H2441 0.930 . S
C2457 C2456 1.377 . S
C2457 C2458 1.379 . S
C2458 H2442 0.931 . S
C2458 C2452 1.383 . S
C2458 C2457 1.379 . S
H2459 C2453 0.959 . S
H2460 C2453 0.961 . S
H2461 C2453 0.960 . S
H2462 C2454 0.930 . S
H2463 C2455 0.929 . S
H2464 C2472 0.929 . S
H2465 C2474 0.930 . S
H2466 C2476 0.930 . S
H2467 C2479 0.929 . S
H2468 C2482 0.930 . S
H2469 C2484 0.960 . S
H2470 C2484 0.960 . S
H2471 C2484 0.960 . S
C2472 H2464 0.929 . S
C2472 C2473 1.377 . S
C2472 C2474 1.384 . S
C2473 C2472 1.377 . S
C2473 C2479 1.390 . S
C2474 H2465 0.930 . S
C2474 C2472 1.384 . S
C2474 C2475 1.372 . S
C2475 C2474 1.372 . S
C2475 C2476 1.400 . S
C2475 C2480 1.490 . S
C2476 H2466 0.930 . S
C2476 C2475 1.400 . S
C2476 C2479 1.386 . S
H2477 C2493 0.930 . S
H2478 C2494 0.931 . S
C2479 H2467 0.929 . S
C2479 C2473 1.390 . S
C2479 C2476 1.386 . S
C2480 C2475 1.490 . S
C2480 C2482 1.395 . S
C2480 C2483 1.403 . S
H2481 C2487 0.930 . S
C2482 H2468 0.930 . S
C2482 C2480 1.395 . S
C2482 C2485 1.403 . S
C2483 C2480 1.403 . S
C2483 C2484 1.524 . S
C2483 C2487 1.400 . S
C2484 H2469 0.960 . S
C2484 H2470 0.960 . S
C2484 H2471 0.960 . S
C2484 C2483 1.524 . S
C2485 C2482 1.403 . S
C2485 C2486 1.392 . S
C2485 C2489 1.495 . S
C2486 C2485 1.392 . S
C2486 C2487 1.385 . S
C2486 C2488 1.478 . S
C2487 H2481 0.930 . S
C2487 C2483 1.400 . S
C2487 C2486 1.385 . S
C2488 C2486 1.478 . S
C2488 C2490 1.381 . S
C2488 C2494 1.383 . S
C2489 C2485 1.495 . S
C2489 H2495 0.959 . S
C2489 H2496 0.961 . S
C2489 H2497 0.960 . S
C2490 C2488 1.381 . S
C2490 C2491 1.394 . S
C2490 H2498 0.930 . S
C2491 C2490 1.394 . S
C2491 C2492 1.383 . S
C2491 H2499 0.929 . S
C2492 C2491 1.383 . S
C2492 C2493 1.377 . S
C2493 H2477 0.930 . S
C2493 C2492 1.377 . S
C2493 C2494 1.379 . S
C2494 H2478 0.931 . S
C2494 C2488 1.383 . S
C2494 C2493 1.379 . S
H2495 C2489 0.959 . S
H2496 C2489 0.961 . S
H2497 C2489 0.960 . S
H2498 C2490 0.930 . S
H2499 C2491 0.929 . S
H2500 C2508 0.929 . S
H2501 C2510 0.930 . S
H2502 C2512 0.930 . S
H2503 C2515 0.929 . S
H2504 C2518 0.930 . S
H2505 C2520 0.960 . S
H2506 C2520 0.960 . S
H2507 C2520 0.960 . S
C2508 H2500 0.929 . S
C2508 C2509 1.377 . S
C2508 C2510 1.384 . S
C2509 C2508 1.377 . S
C2509 C2515 1.390 . S
C2510 H2501 0.930 . S
C2510 C2508 1.384 . S
C2510 C2511 1.372 . S
C2511 C2510 1.372 . S
C2511 C2512 1.400 . S
C2511 C2516 1.490 . S
C2512 H2502 0.930 . S
C2512 C2511 1.400 . S
C2512 C2515 1.386 . S
H2513 C2529 0.930 . S
H2514 C2530 0.931 . S
C2515 H2503 0.929 . S
C2515 C2509 1.390 . S
C2515 C2512 1.386 . S
C2516 C2511 1.490 . S
C2516 C2518 1.395 . S
C2516 C2519 1.403 . S
H2517 C2523 0.930 . S
C2518 H2504 0.930 . S
C2518 C2516 1.395 . S
C2518 C2521 1.403 . S
C2519 C2516 1.403 . S
C2519 C2520 1.524 . S
C2519 C2523 1.400 . S
C2520 H2505 0.960 . S
C2520 H2506 0.960 . S
C2520 H2507 0.960 . S
C2520 C2519 1.524 . S
C2521 C2518 1.403 . S
C2521 C2522 1.392 . S
C2521 C2525 1.495 . S
C2522 C2521 1.392 . S
C2522 C2523 1.385 . S
C2522 C2524 1.478 . S
C2523 H2517 0.930 . S
C2523 C2519 1.400 . S
C2523 C2522 1.385 . S
C2524 C2522 1.478 . S
C2524 C2526 1.381 . S
C2524 C2530 1.383 . S
C2525 C2521 1.495 . S
C2525 H2531 0.959 . S
C2525 H2532 0.961 . S
C2525 H2533 0.960 . S
C2526 C2524 1.381 . S
C2526 C2527 1.394 . S
C2526 H2534 0.930 . S
C2527 C2526 1.394 . S
C2527 C2528 1.383 . S
C2527 H2535 0.929 . S
C2528 C2527 1.383 . S
C2528 C2529 1.377 . S
C2529 H2513 0.930 . S
C2529 C2528 1.377 . S
C2529 C2530 1.379 . S
C2530 H2514 0.931 . S
C2530 C2524 1.383 . S
C2530 C2529 1.379 . S
H2531 C2525 0.959 . S
H2532 C2525 0.961 . S
H2533 C2525 0.960 . S
H2534 C2526 0.930 . S
H2535 C2527 0.929 . S
H2536 C2544 0.929 . S
H2537 C2546 0.930 . S
H2538 C2548 0.930 . S
H2539 C2551 0.929 . S
H2540 C2554 0.930 . S
H2541 C2556 0.960 . S
H2542 C2556 0.960 . S
H2543 C2556 0.960 . S
C2544 H2536 0.929 . S
C2544 C2545 1.377 . S
C2544 C2546 1.384 . S
C2545 C2544 1.377 . S
C2545 C2551 1.390 . S
C2546 H2537 0.930 . S
C2546 C2544 1.384 . S
C2546 C2547 1.372 . S
C2547 C2546 1.372 . S
C2547 C2548 1.400 . S
C2547 C2552 1.490 . S
C2548 H2538 0.930 . S
C2548 C2547 1.400 . S
C2548 C2551 1.386 . S
H2549 C2565 0.930 . S
H2550 C2566 0.931 . S
C2551 H2539 0.929 . S
C2551 C2545 1.390 . S
C2551 C2548 1.386 . S
C2552 C2547 1.490 . S
C2552 C2554 1.395 . S
C2552 C2555 1.403 . S
H2553 C2559 0.930 . S
C2554 H2540 0.930 . S
C2554 C2552 1.395 . S
C2554 C2557 1.403 . S
C2555 C2552 1.403 . S
C2555 C2556 1.524 . S
C2555 C2559 1.400 . S
C2556 H2541 0.960 . S
C2556 H2542 0.960 . S
C2556 H2543 0.960 . S
C2556 C2555 1.524 . S
C2557 C2554 1.403 . S
C2557 C2558 1.392 . S
C2557 C2561 1.495 . S
C2558 C2557 1.392 . S
C2558 C2559 1.385 . S
C2558 C2560 1.478 . S
C2559 H2553 0.930 . S
C2559 C2555 1.400 . S
C2559 C2558 1.385 . S
C2560 C2558 1.478 . S
C2560 C2562 1.381 . S
C2560 C2566 1.383 . S
C2561 C2557 1.495 . S
C2561 H2567 0.959 . S
C2561 H2568 0.961 . S
C2561 H2569 0.960 . S
C2562 C2560 1.381 . S
C2562 C2563 1.394 . S
C2562 H2570 0.930 . S
C2563 C2562 1.394 . S
C2563 C2564 1.383 . S
C2563 H2571 0.929 . S
C2564 C2563 1.383 . S
C2564 C2565 1.377 . S
C2565 H2549 0.930 . S
C2565 C2564 1.377 . S
C2565 C2566 1.379 . S
C2566 H2550 0.931 . S
C2566 C2560 1.383 . S
C2566 C2565 1.379 . S
H2567 C2561 0.959 . S
H2568 C2561 0.961 . S
H2569 C2561 0.960 . S
H2570 C2562 0.930 . S
H2571 C2563 0.929 . S
H2572 C2580 0.929 . S
H2573 C2582 0.930 . S
H2574 C2584 0.930 . S
H2575 C2587 0.929 . S
H2576 C2590 0.930 . S
H2577 C2592 0.960 . S
H2578 C2592 0.960 . S
H2579 C2592 0.960 . S
C2580 H2572 0.929 . S
C2580 C2581 1.377 . S
C2580 C2582 1.384 . S
C2581 C2580 1.377 . S
C2581 C2587 1.390 . S
C2582 H2573 0.930 . S
C2582 C2580 1.384 . S
C2582 C2583 1.372 . S
C2583 C2582 1.372 . S
C2583 C2584 1.400 . S
C2583 C2588 1.490 . S
C2584 H2574 0.930 . S
C2584 C2583 1.400 . S
C2584 C2587 1.386 . S
H2585 C2601 0.930 . S
H2586 C2602 0.931 . S
C2587 H2575 0.929 . S
C2587 C2581 1.390 . S
C2587 C2584 1.386 . S
C2588 C2583 1.490 . S
C2588 C2590 1.395 . S
C2588 C2591 1.403 . S
H2589 C2595 0.930 . S
C2590 H2576 0.930 . S
C2590 C2588 1.395 . S
C2590 C2593 1.403 . S
C2591 C2588 1.403 . S
C2591 C2592 1.524 . S
C2591 C2595 1.400 . S
C2592 H2577 0.960 . S
C2592 H2578 0.960 . S
C2592 H2579 0.960 . S
C2592 C2591 1.524 . S
C2593 C2590 1.403 . S
C2593 C2594 1.392 . S
C2593 C2597 1.495 . S
C2594 C2593 1.392 . S
C2594 C2595 1.385 . S
C2594 C2596 1.478 . S
C2595 H2589 0.930 . S
C2595 C2591 1.400 . S
C2595 C2594 1.385 . S
C2596 C2594 1.478 . S
C2596 C2598 1.381 . S
C2596 C2602 1.383 . S
C2597 C2593 1.495 . S
C2597 H2603 0.959 . S
C2597 H2604 0.961 . S
C2597 H2605 0.960 . S
C2598 C2596 1.381 . S
C2598 C2599 1.394 . S
C2598 H2606 0.930 . S
C2599 C2598 1.394 . S
C2599 C2600 1.383 . S
C2599 H2607 0.929 . S
C2600 C2599 1.383 . S
C2600 C2601 1.377 . S
C2601 H2585 0.930 . S
C2601 C2600 1.377 . S
C2601 C2602 1.379 . S
C2602 H2586 0.931 . S
C2602 C2596 1.383 . S
C2602 C2601 1.379 . S
H2603 C2597 0.959 . S
H2604 C2597 0.961 . S
H2605 C2597 0.960 . S
H2606 C2598 0.930 . S
H2607 C2599 0.929 . S
H2608 C2616 0.929 . S
H2609 C2618 0.930 . S
H2610 C2620 0.930 . S
H2611 C2623 0.929 . S
H2612 C2626 0.930 . S
H2613 C2628 0.960 . S
H2614 C2628 0.960 . S
H2615 C2628 0.960 . S
C2616 H2608 0.929 . S
C2616 C2617 1.377 . S
C2616 C2618 1.384 . S
C2617 C2616 1.377 . S
C2617 C2623 1.390 . S
C2618 H2609 0.930 . S
C2618 C2616 1.384 . S
C2618 C2619 1.372 . S
C2619 C2618 1.372 . S
C2619 C2620 1.400 . S
C2619 C2624 1.490 . S
C2620 H2610 0.930 . S
C2620 C2619 1.400 . S
C2620 C2623 1.386 . S
H2621 C2637 0.930 . S
H2622 C2638 0.931 . S
C2623 H2611 0.929 . S
C2623 C2617 1.390 . S
C2623 C2620 1.386 . S
C2624 C2619 1.490 . S
C2624 C2626 1.395 . S
C2624 C2627 1.403 . S
H2625 C2631 0.930 . S
C2626 H2612 0.930 . S
C2626 C2624 1.395 . S
C2626 C2629 1.403 . S
C2627 C2624 1.403 . S
C2627 C2628 1.524 . S
C2627 C2631 1.400 . S
C2628 H2613 0.960 . S
C2628 H2614 0.960 . S
C2628 H2615 0.960 . S
C2628 C2627 1.524 . S
C2629 C2626 1.403 . S
C2629 C2630 1.392 . S
C2629 C2633 1.495 . S
C2630 C2629 1.392 . S
C2630 C2631 1.385 . S
C2630 C2632 1.478 . S
C2631 H2625 0.930 . S
C2631 C2627 1.400 . S
C2631 C2630 1.385 . S
C2632 C2630 1.478 . S
C2632 C2634 1.381 . S
C2632 C2638 1.383 . S
C2633 C2629 1.495 . S
C2633 H2639 0.959 . S
C2633 H2640 0.961 . S
C2633 H2641 0.960 . S
C2634 C2632 1.381 . S
C2634 C2635 1.394 . S
C2634 H2642 0.930 . S
C2635 C2634 1.394 . S
C2635 C2636 1.383 . S
C2635 H2643 0.929 . S
C2636 C2635 1.383 . S
C2636 C2637 1.377 . S
C2637 H2621 0.930 . S
C2637 C2636 1.377 . S
C2637 C2638 1.379 . S
C2638 H2622 0.931 . S
C2638 C2632 1.383 . S
C2638 C2637 1.379 . S
H2639 C2633 0.959 . S
H2640 C2633 0.961 . S
H2641 C2633 0.960 . S
H2642 C2634 0.930 . S
H2643 C2635 0.929 . S
H2644 C2652 0.929 . S
H2645 C2654 0.930 . S
H2646 C2656 0.930 . S
H2647 C2659 0.929 . S
H2648 C2662 0.930 . S
H2649 C2664 0.960 . S
H2650 C2664 0.960 . S
H2651 C2664 0.960 . S
C2652 H2644 0.929 . S
C2652 C2653 1.377 . S
C2652 C2654 1.384 . S
C2653 C2652 1.377 . S
C2653 C2659 1.390 . S
C2654 H2645 0.930 . S
C2654 C2652 1.384 . S
C2654 C2655 1.372 . S
C2655 C2654 1.372 . S
C2655 C2656 1.400 . S
C2655 C2660 1.490 . S
C2656 H2646 0.930 . S
C2656 C2655 1.400 . S
C2656 C2659 1.386 . S
H2657 C2673 0.930 . S
H2658 C2674 0.931 . S
C2659 H2647 0.929 . S
C2659 C2653 1.390 . S
C2659 C2656 1.386 . S
C2660 C2655 1.490 . S
C2660 C2662 1.395 . S
C2660 C2663 1.403 . S
H2661 C2667 0.930 . S
C2662 H2648 0.930 . S
C2662 C2660 1.395 . S
C2662 C2665 1.403 . S
C2663 C2660 1.403 . S
C2663 C2664 1.524 . S
C2663 C2667 1.400 . S
C2664 H2649 0.960 . S
C2664 H2650 0.960 . S
C2664 H2651 0.960 . S
C2664 C2663 1.524 . S
C2665 C2662 1.403 . S
C2665 C2666 1.392 . S
C2665 C2669 1.495 . S
C2666 C2665 1.392 . S
C2666 C2667 1.385 . S
C2666 C2668 1.478 . S
C2667 H2661 0.930 . S
C2667 C2663 1.400 . S
C2667 C2666 1.385 . S
C2668 C2666 1.478 . S
C2668 C2670 1.381 . S
C2668 C2674 1.383 . S
C2669 C2665 1.495 . S
C2669 H2675 0.959 . S
C2669 H2676 0.961 . S
C2669 H2677 0.960 . S
C2670 C2668 1.381 . S
C2670 C2671 1.394 . S
C2670 H2678 0.930 . S
C2671 C2670 1.394 . S
C2671 C2672 1.383 . S
C2671 H2679 0.929 . S
C2672 C2671 1.383 . S
C2672 C2673 1.377 . S
C2673 H2657 0.930 . S
C2673 C2672 1.377 . S
C2673 C2674 1.379 . S
C2674 H2658 0.931 . S
C2674 C2668 1.383 . S
C2674 C2673 1.379 . S
H2675 C2669 0.959 . S
H2676 C2669 0.961 . S
H2677 C2669 0.960 . S
H2678 C2670 0.930 . S
H2679 C2671 0.929 . S
H2680 C2688 0.929 . S
H2681 C2690 0.930 . S
H2682 C2692 0.930 . S
H2683 C2695 0.929 . S
H2684 C2698 0.930 . S
H2685 C2700 0.960 . S
H2686 C2700 0.960 . S
H2687 C2700 0.960 . S
C2688 H2680 0.929 . S
C2688 C2689 1.377 . S
C2688 C2690 1.384 . S
C2689 C2688 1.377 . S
C2689 C2695 1.390 . S
C2690 H2681 0.930 . S
C2690 C2688 1.384 . S
C2690 C2691 1.372 . S
C2691 C2690 1.372 . S
C2691 C2692 1.400 . S
C2691 C2696 1.490 . S
C2692 H2682 0.930 . S
C2692 C2691 1.400 . S
C2692 C2695 1.386 . S
H2693 C2709 0.930 . S
H2694 C2710 0.931 . S
C2695 H2683 0.929 . S
C2695 C2689 1.390 . S
C2695 C2692 1.386 . S
C2696 C2691 1.490 . S
C2696 C2698 1.395 . S
C2696 C2699 1.403 . S
H2697 C2703 0.930 . S
C2698 H2684 0.930 . S
C2698 C2696 1.395 . S
C2698 C2701 1.403 . S
C2699 C2696 1.403 . S
C2699 C2700 1.524 . S
C2699 C2703 1.400 . S
C2700 H2685 0.960 . S
C2700 H2686 0.960 . S
C2700 H2687 0.960 . S
C2700 C2699 1.524 . S
C2701 C2698 1.403 . S
C2701 C2702 1.392 . S
C2701 C2705 1.495 . S
C2702 C2701 1.392 . S
C2702 C2703 1.385 . S
C2702 C2704 1.478 . S
C2703 H2697 0.930 . S
C2703 C2699 1.400 . S
C2703 C2702 1.385 . S
C2704 C2702 1.478 . S
C2704 C2706 1.381 . S
C2704 C2710 1.383 . S
C2705 C2701 1.495 . S
C2705 H2711 0.959 . S
C2705 H2712 0.961 . S
C2705 H2713 0.960 . S
C2706 C2704 1.381 . S
C2706 C2707 1.394 . S
C2706 H2714 0.930 . S
C2707 C2706 1.394 . S
C2707 C2708 1.383 . S
C2707 H2715 0.929 . S
C2708 C2707 1.383 . S
C2708 C2709 1.377 . S
C2709 H2693 0.930 . S
C2709 C2708 1.377 . S
C2709 C2710 1.379 . S
C2710 H2694 0.931 . S
C2710 C2704 1.383 . S
C2710 C2709 1.379 . S
H2711 C2705 0.959 . S
H2712 C2705 0.961 . S
H2713 C2705 0.960 . S
H2714 C2706 0.930 . S
H2715 C2707 0.929 . S
H2716 C2724 0.929 . S
H2717 C2726 0.930 . S
H2718 C2728 0.930 . S
H2719 C2731 0.929 . S
H2720 C2734 0.930 . S
H2721 C2736 0.960 . S
H2722 C2736 0.960 . S
H2723 C2736 0.960 . S
C2724 H2716 0.929 . S
C2724 C2725 1.377 . S
C2724 C2726 1.384 . S
C2725 C2724 1.377 . S
C2725 C2731 1.390 . S
C2726 H2717 0.930 . S
C2726 C2724 1.384 . S
C2726 C2727 1.372 . S
C2727 C2726 1.372 . S
C2727 C2728 1.400 . S
C2727 C2732 1.490 . S
C2728 H2718 0.930 . S
C2728 C2727 1.400 . S
C2728 C2731 1.386 . S
H2729 C2745 0.930 . S
H2730 C2746 0.931 . S
C2731 H2719 0.929 . S
C2731 C2725 1.390 . S
C2731 C2728 1.386 . S
C2732 C2727 1.490 . S
C2732 C2734 1.395 . S
C2732 C2735 1.403 . S
H2733 C2739 0.930 . S
C2734 H2720 0.930 . S
C2734 C2732 1.395 . S
C2734 C2737 1.403 . S
C2735 C2732 1.403 . S
C2735 C2736 1.524 . S
C2735 C2739 1.400 . S
C2736 H2721 0.960 . S
C2736 H2722 0.960 . S
C2736 H2723 0.960 . S
C2736 C2735 1.524 . S
C2737 C2734 1.403 . S
C2737 C2738 1.392 . S
C2737 C2741 1.495 . S
C2738 C2737 1.392 . S
C2738 C2739 1.385 . S
C2738 C2740 1.478 . S
C2739 H2733 0.930 . S
C2739 C2735 1.400 . S
C2739 C2738 1.385 . S
C2740 C2738 1.478 . S
C2740 C2742 1.381 . S
C2740 C2746 1.383 . S
C2741 C2737 1.495 . S
C2741 H2747 0.959 . S
C2741 H2748 0.961 . S
C2741 H2749 0.960 . S
C2742 C2740 1.381 . S
C2742 C2743 1.394 . S
C2742 H2750 0.930 . S
C2743 C2742 1.394 . S
C2743 C2744 1.383 . S
C2743 H2751 0.929 . S
C2744 C2743 1.383 . S
C2744 C2745 1.377 . S
C2745 H2729 0.930 . S
C2745 C2744 1.377 . S
C2745 C2746 1.379 . S
C2746 H2730 0.931 . S
C2746 C2740 1.383 . S
C2746 C2745 1.379 . S
H2747 C2741 0.959 . S
H2748 C2741 0.961 . S
H2749 C2741 0.960 . S
H2750 C2742 0.930 . S
H2751 C2743 0.929 . S
C457 C176 1.072 . S
C476 C7 1.053 . S
C493 C414 1.072 . S
C512 C21 1.094 . S
C529 C204 1.074 . S
C548 C35 1.086 . S
C565 C442 1.062 . S
C584 C49 1.088 . S
C601 C120 1.074 . S
C620 C63 1.065 . S
C637 C77 1.078 . S
C656 C358 1.042 . S
C673 C91 1.072 . S
C692 C148 1.096 . S
C709 C386 1.061 . S
C728 C105 1.052 . S
C745 C64 1.066 . S
C764 C119 1.091 . S
C781 C302 1.061 . S
C800 C133 1.101 . S
C817 C92 1.066 . S
C836 C147 1.066 . S
C853 C330 1.074 . S
C872 C161 1.043 . S
C889 C175 1.070 . S
C908 C8 1.097 . S
C925 C189 1.069 . S
C944 C246 1.082 . S
C961 C36 1.073 . S
C980 C203 1.043 . S
C997 C217 1.075 . S
C1016 C274 1.049 . S
C1033 C400 1.072 . S
C1052 C231 1.096 . S
C1069 C190 1.065 . S
C1088 C245 1.098 . S
C1105 C428 1.066 . S
C1124 C259 1.042 . S
C1141 C273 1.070 . S
C1160 C218 1.036 . S
C1177 C287 1.076 . S
C1196 C344 1.035 . S
C1213 C301 1.080 . S
C1232 C134 1.075 . S
C1249 C372 1.063 . S
C1268 C315 1.095 . S
C1285 C162 1.068 . S
C1304 C329 1.102 . S
C1321 C288 1.074 . S
C1340 C343 1.044 . S
C1357 C357 1.080 . S
C1376 C78 1.041 . S
C1393 C371 1.076 . S
C1412 C316 1.043 . S
C1429 C385 1.076 . S
C1448 C106 1.070 . S
C1465 C232 1.070 . S
C1484 C399 1.050 . S
C1501 C22 1.071 . S
C1520 C413 1.047 . S
C1537 C260 1.070 . S
C1556 C427 1.075 . S
C1573 C441 1.080 . S
C1592 C50 1.040 . S
C1609 C9 1.287 . S
C1628 C121 1.315 . S
C1645 C23 1.289 . S
C1664 C359 1.317 . S
C1681 C149 1.280 . S
C1700 C37 1.253 . S
C1717 C51 1.280 . S
C1736 C387 1.269 . S
C1753 C65 1.289 . S
C1772 C177 1.317 . S
C1789 C415 1.288 . S
C1808 C79 1.258 . S
C1825 C205 1.292 . S
C1844 C93 1.281 . S
C1861 C107 1.292 . S
C1880 C443 1.316 . S
C1897 C135 1.287 . S
C1916 C247 1.256 . S
C1933 C163 1.289 . S
C1952 C275 1.260 . S
C1969 C191 1.292 . S
C1988 C303 1.281 . S
C2005 C331 1.291 . S
C2024 C219 1.271 . S
C2041 C233 1.280 . S
C2060 C345 1.254 . S
C2077 C261 1.284 . S
C2096 C373 1.306 . S
C2113 C289 1.283 . S
C2132 C401 1.304 . S
C2149 C429 1.285 . S
C2168 C317 1.311 . S
C2185 C6 1.361 . S
C2204 C104 1.377 . S
C2221 C20 1.361 . S
C2240 C62 1.376 . S
C2257 C76 1.355 . S
C2276 C34 1.348 . S
C2293 C90 1.359 . S
C2312 C48 1.367 . S
C2329 C216 1.361 . S
C2348 C118 1.345 . S
C2365 C174 1.360 . S
C2384 C132 1.351 . S
C2401 C188 1.357 . S
C2420 C146 1.371 . S
C2437 C202 1.354 . S
C2456 C160 1.377 . S
C2473 C230 1.354 . S
C2492 C328 1.342 . S
C2509 C286 1.353 . S
C2528 C244 1.335 . S
C2545 C300 1.360 . S
C2564 C258 1.374 . S
C2581 C314 1.356 . S
C2600 C272 1.355 . S
C2617 C440 1.361 . S
C2636 C342 1.347 . S
C2653 C356 1.351 . S
C2672 C398 1.357 . S
C2689 C370 1.355 . S
C2708 C412 1.375 . S
C2725 C426 1.361 . S
C2744 C384 1.349 . S
