# Generated by pormake.
# Topology snz, (6)-cn, num edge types: 1
# Building blocks:
#     Node 0, Type 0, BuildingBlock: BETDAH_clean_sbu_0, # of connection points: 6
#     Node 1, Type 0, BuildingBlock: BETDAH_clean_sbu_0, # of connection points: 6
#     Node 2, Type 0, BuildingBlock: BETDAH_clean_sbu_0, # of connection points: 6
#     Node 3, Type 0, BuildingBlock: BETDAH_clean_sbu_0, # of connection points: 6
#     Node 4, Type 0, BuildingBlock: BETDAH_clean_sbu_0, # of connection points: 6
#     Node 5, Type 0, BuildingBlock: BETDAH_clean_sbu_0, # of connection points: 6
#     Node 6, Type 0, BuildingBlock: BETDAH_clean_sbu_0, # of connection points: 6
#     Node 7, Type 0, BuildingBlock: BETDAH_clean_sbu_0, # of connection points: 6
#     Node 8, Type 0, BuildingBlock: BETDAH_clean_sbu_0, # of connection points: 6
#     Edge 9, Type (0, 0), BuildingBlock: XIVTED_clean_linker_0, # of connection points: 2
#     Edge 10, Type (0, 0), BuildingBlock: XIVTED_clean_linker_0, # of connection points: 2
#     Edge 11, Type (0, 0), BuildingBlock: XIVTED_clean_linker_0, # of connection points: 2
#     Edge 12, Type (0, 0), BuildingBlock: XIVTED_clean_linker_0, # of connection points: 2
#     Edge 13, Type (0, 0), BuildingBlock: XIVTED_clean_linker_0, # of connection points: 2
#     Edge 14, Type (0, 0), BuildingBlock: XIVTED_clean_linker_0, # of connection points: 2
#     Edge 15, Type (0, 0), BuildingBlock: XIVTED_clean_linker_0, # of connection points: 2
#     Edge 16, Type (0, 0), BuildingBlock: XIVTED_clean_linker_0, # of connection points: 2
#     Edge 17, Type (0, 0), BuildingBlock: XIVTED_clean_linker_0, # of connection points: 2
#     Edge 18, Type (0, 0), BuildingBlock: XIVTED_clean_linker_0, # of connection points: 2
#     Edge 19, Type (0, 0), BuildingBlock: XIVTED_clean_linker_0, # of connection points: 2
#     Edge 20, Type (0, 0), BuildingBlock: XIVTED_clean_linker_0, # of connection points: 2
#     Edge 21, Type (0, 0), BuildingBlock: XIVTED_clean_linker_0, # of connection points: 2
#     Edge 22, Type (0, 0), BuildingBlock: XIVTED_clean_linker_0, # of connection points: 2
#     Edge 23, Type (0, 0), BuildingBlock: XIVTED_clean_linker_0, # of connection points: 2
#     Edge 24, Type (0, 0), BuildingBlock: XIVTED_clean_linker_0, # of connection points: 2
#     Edge 25, Type (0, 0), BuildingBlock: XIVTED_clean_linker_0, # of connection points: 2
#     Edge 26, Type (0, 0), BuildingBlock: XIVTED_clean_linker_0, # of connection points: 2
#     Edge 27, Type (0, 0), BuildingBlock: XIVTED_clean_linker_0, # of connection points: 2
#     Edge 28, Type (0, 0), BuildingBlock: XIVTED_clean_linker_0, # of connection points: 2
#     Edge 29, Type (0, 0), BuildingBlock: XIVTED_clean_linker_0, # of connection points: 2
#     Edge 30, Type (0, 0), BuildingBlock: XIVTED_clean_linker_0, # of connection points: 2
#     Edge 31, Type (0, 0), BuildingBlock: XIVTED_clean_linker_0, # of connection points: 2
#     Edge 32, Type (0, 0), BuildingBlock: XIVTED_clean_linker_0, # of connection points: 2
#     Edge 33, Type (0, 0), BuildingBlock: XIVTED_clean_linker_0, # of connection points: 2
#     Edge 34, Type (0, 0), BuildingBlock: XIVTED_clean_linker_0, # of connection points: 2
#     Edge 35, Type (0, 0), BuildingBlock: XIVTED_clean_linker_0, # of connection points: 2
# Relax obj value: 0.427
# Max RMSD: 0.272
# Mean RMSD: 0.178
data_MOF--net-snz--node1-BETDAH_clean_sbu_0--edge1-XIVTED_clean_linker_0
_symmetry_space_group_name_H-M    P1
_symmetry_Int_Tables_number       1
_symmetry_cell_setting            triclinic
loop_
_symmetry_equiv_pos_as_xyz
'x, y, z'
_cell_length_a     68.378068
_cell_length_b     55.046214
_cell_length_c     15.898598
_cell_angle_alpha  95.936943
_cell_angle_beta   97.619843
_cell_angle_gamma 121.27721
loop_
_atom_site_label
_atom_site_type_symbol
_atom_site_fract_x
_atom_site_fract_y
_atom_site_fract_z
_atom_type_partial_charge
Ho0 Ho 0.12446 0.49394 0.2476 0.0
Ho1 Ho 0.08998 0.50213 0.23844 0.0
C2 C 0.07565 0.43573 0.19291 0.0
C3 C 0.16194 0.49283 0.29681 0.0
C4 C 0.16871 0.47402 0.33476 0.0
C5 C 0.19069 0.48702 0.39102 0.0
C6 C 0.19827 0.47003 0.42459 0.0
C7 C 0.18409 0.43948 0.40255 0.0
C8 C 0.16174 0.42645 0.3477 0.0
C9 C 0.15413 0.44354 0.31412 0.0
C10 C 0.11014 0.49321 1.07309 0.0
C11 C 0.13723 0.56072 0.27268 0.0
C12 C 0.05131 0.50148 0.20617 0.0
C13 C 0.0417 0.51783 0.17174 0.0
C14 C 0.05395 0.54005 0.12723 0.0
C15 C 0.04387 0.55469 0.09409 0.0
C16 C 0.02141 0.54725 0.10495 0.0
C17 C 1.00954 0.52529 0.15106 0.0
C18 C 0.01958 0.51075 0.18388 0.0
C19 C 0.10522 0.50266 0.41202 0.0
O20 O 0.09733 0.44626 0.23307 0.0
O21 O 0.06923 0.45402 0.18033 0.0
O22 O 0.14948 0.48321 0.21783 0.0
O23 O 0.15486 0.50566 0.34642 0.0
O24 O 0.11468 0.47531 0.10319 0.0
O25 O 0.11274 0.51115 0.13916 0.0
O26 O 0.11518 0.5484 0.23459 0.0
O27 O 0.14482 0.54374 0.29161 0.0
O28 O 0.06645 0.5138 0.27979 0.0
O29 O 0.05721 0.48843 0.15167 0.0
O30 O 0.1023 0.52186 0.38296 0.0
O31 O 0.10138 0.48427 0.34496 0.0
H32 H 0.20219 0.51045 0.40834 0.0
H33 H 0.21536 0.48095 0.46793 0.0
H34 H 0.15036 0.40306 0.32872 0.0
H35 H 0.13703 0.43293 0.27103 0.0
H36 H 0.07113 0.54586 0.11755 0.0
H37 H 0.05342 0.57136 1.05847 0.0
H38 H 0.99247 0.51937 0.16222 0.0
H39 H 1.00997 0.4938 0.21868 0.0
Ho40 Ho 0.63065 0.5114 1.05786 0.0
Ho41 Ho 0.5934 0.51511 1.02584 0.0
C42 C 0.63981 0.5757 0.08276 0.0
C43 C 0.67108 0.51646 1.06733 0.0
C44 C 0.69374 0.53369 1.04044 0.0
C45 C 0.71166 0.56146 0.08825 0.0
C46 C 0.73361 0.57635 1.06611 0.0
C47 C 0.73818 0.56386 0.99565 0.0
C48 C 0.72017 0.53618 0.94771 0.0
C49 C 0.69832 0.52128 0.97001 0.0
C50 C 0.61286 0.5053 0.20908 0.0
C51 C 0.58289 0.45075 1.00975 0.0
C52 C 0.5531 0.51017 1.01484 0.0
C53 C 0.53358 0.49691 1.05967 0.0
C54 C 0.52787 0.47193 0.09304 0.0
C55 C 0.50971 0.46019 0.13758 0.0
C56 C 0.49705 0.47334 0.15028 0.0
C57 C 0.50284 0.49833 0.11662 0.0
C58 C 0.52091 0.50996 1.07162 0.0
C59 C 0.6113 0.5209 0.87456 0.0
O60 O 0.6482 0.55996 1.05774 0.0
O61 O 0.61769 0.56216 0.08661 0.0
O62 O 0.66643 0.52951 0.12706 0.0
O63 O 0.65252 0.49849 1.00655 0.0
O64 O 0.61983 0.4898 0.17307 0.0
O65 O 0.61463 0.52308 0.15969 0.0
O66 O 0.57539 0.46755 1.0332 0.0
O67 O 0.60509 0.46315 1.00607 0.0
O68 O 0.55638 0.49254 0.96666 0.0
O69 O 0.57276 0.53238 1.06131 0.0
O70 O 0.60437 0.53645 0.91019 0.0
O71 O 0.60927 0.50313 0.92418 0.0
H72 H 0.70888 0.5716 0.14351 0.0
H73 H 0.74697 0.59772 0.10404 0.0
H74 H 0.72313 0.52563 0.894 0.0
H75 H 0.6851 0.49973 0.93286 0.0
H76 H 0.53755 0.46163 0.08546 0.0
H77 H 0.50591 0.44116 0.16369 0.0
H78 H 0.49329 0.50881 0.12457 0.0
H79 H 0.5251 0.52929 1.04657 0.0
Ho80 Ho 0.59364 0.05587 0.89502 0.0
Ho81 Ho 0.6359 0.10356 0.94371 0.0
C82 C 0.59478 0.11416 0.93104 0.0
C83 C 0.54967 0.01422 0.86626 0.0
C84 C 0.53272 0.99977 0.92022 0.0
C85 C 0.54019 1.00288 1.00944 0.0
C86 C 0.52374 0.98988 1.06041 0.0
C87 C 0.49953 0.97371 1.02313 0.0
C88 C 0.49224 0.97071 0.9335 0.0
C89 C 0.50869 0.9836 0.88265 0.0
C90 C 0.61162 0.07012 0.74491 0.0
C91 C 0.63182 0.04314 0.94338 0.0
C92 C 0.68035 0.1426 0.95616 0.0
C93 C 0.70176 0.14352 0.94009 0.0
C94 C 0.7157 0.16288 0.89085 0.0
C95 C 0.73619 0.16478 0.87578 0.0
C96 C 0.74346 0.14733 0.90957 0.0
C97 C 0.72945 0.1279 0.95913 0.0
C98 C 0.70889 0.12601 0.97414 0.0
C99 C 0.61848 0.09114 0.09455 0.0
O100 O 0.58405 0.0874 0.94295 0.0
O101 O 0.61634 0.1262 0.91864 0.0
O102 O 0.5668 1.00997 0.87112 0.0
O103 O 0.5569 0.04129 0.86758 0.0
O104 O 0.6016 0.04498 0.76583 0.0
O105 O 0.61284 0.08745 0.80873 0.0
O106 O 0.64403 0.06841 0.92113 0.0
O107 O 0.61061 0.03444 0.95278 0.0
O108 O 0.6639 0.13504 0.8886 0.0
O109 O 0.67162 0.13128 1.02037 0.0
O110 O 0.62946 0.11645 1.07356 0.0
O111 O 0.61629 0.07272 1.0312 0.0
H112 H 0.55872 0.01548 1.03967 0.0
H113 H 0.53002 0.99239 0.1289 0.0
H114 H 0.47379 0.9589 0.90274 0.0
H115 H 0.50263 0.98125 0.81401 0.0
H116 H 0.71081 0.17682 0.8643 0.0
H117 H 0.74655 0.18037 0.83861 0.0
H118 H 0.73418 0.11384 0.98556 0.0
H119 H 0.6986 0.11085 1.01249 0.0
Ho120 Ho 0.78716 0.85594 0.29447 0.0
Ho121 Ho 0.75102 0.86121 0.29078 0.0
C122 C 0.73794 0.79655 0.2609 0.0
C123 C 0.81879 0.84273 0.30498 0.0
C124 C 0.82779 0.82738 0.35198 0.0
C125 C 0.84836 0.84332 0.41747 0.0
C126 C 0.85883 0.82971 0.45438 0.0
C127 C 0.84911 0.79984 0.42618 0.0
C128 C 0.82817 0.78372 0.36226 0.0
C129 C 0.81767 0.79734 0.32538 0.0
C130 C 0.77665 0.86687 0.1307 0.0
C131 C 0.8021 0.91974 0.35197 0.0
C132 C 0.71926 0.87414 0.26219 0.0
C133 C 0.71323 0.89274 0.21833 0.0
C134 C 0.69202 0.8794 0.1567 0.0
C135 C 0.68433 0.89596 0.12082 0.0
C136 C 0.69756 0.92644 0.14591 0.0
C137 C 0.71924 0.93992 0.20562 0.0
C138 C 0.72696 0.92327 0.24167 0.0
C139 C 0.7607 0.85061 0.45536 0.0
O140 O 0.76003 0.80985 0.30098 0.0
O141 O 0.72975 0.81258 0.23983 0.0
O142 O 0.79822 0.82712 0.25279 0.0
O143 O 0.82233 0.86674 0.34705 0.0
O144 O 0.797 0.87977 0.18243 0.0
O145 O 0.76207 0.84987 0.17221 0.0
O146 O 0.78073 0.90877 0.30599 0.0
O147 O 0.80849 0.90174 0.36796 0.0
O148 O 0.73644 0.88635 0.3302 0.0
O149 O 0.71885 0.85335 0.21326 0.0
O150 O 0.74027 0.83902 0.40473 0.0
O151 O 0.77581 0.86687 0.41369 0.0
H152 H 0.85676 0.86653 0.43873 0.0
H153 H 0.87471 0.8427 0.50452 0.0
H154 H 0.82032 0.76075 0.33839 0.0
H155 H 0.80201 0.78445 0.27414 0.0
H156 H 0.68102 0.85594 0.13767 0.0
H157 H 0.66778 0.88475 1.07392 0.0
H158 H 0.72986 0.9633 0.22699 0.0
H159 H 0.74336 0.93428 0.28932 0.0
Ho160 Ho 0.28249 0.84232 0.51308 0.0
Ho161 Ho 0.24533 0.84551 0.48278 0.0
C162 C 0.29266 0.90641 0.52833 0.0
C163 C 0.32325 0.84877 0.52262 0.0
C164 C 0.34118 0.86086 0.47065 0.0
C165 C 0.33535 0.86366 0.38569 0.0
C166 C 0.35255 0.87546 0.33702 0.0
C167 C 0.37592 0.88493 0.37273 0.0
C168 C 0.38167 0.8823 0.45821 0.0
C169 C 0.36441 0.87031 0.50665 0.0
C170 C 0.2652 0.8363 0.6659 0.0
C171 C 0.23663 0.78155 0.45589 0.0
C172 C 0.20476 0.83993 0.47465 0.0
C173 C 0.18265 0.82337 0.50537 0.0
C174 C 0.16643 0.79347 0.47277 0.0
C175 C 0.1449 0.77893 0.49816 0.0
C176 C 0.13911 0.79391 0.55684 0.0
C177 C 0.15549 0.82372 0.58985 0.0
C178 C 0.1769 0.83824 0.5642 0.0
C179 C 0.2628 0.85197 0.33065 0.0
O180 O 0.30009 0.88967 0.50352 0.0
O181 O 0.27063 0.89384 0.53435 0.0
O182 O 0.30348 0.82498 0.48416 0.0
O183 O 0.32003 0.8673 0.56589 0.0
O184 O 0.27226 0.82106 0.62934 0.0
O185 O 0.26678 0.85398 0.61658 0.0
O186 O 0.22833 0.79709 0.48383 0.0
O187 O 0.25857 0.79542 0.44944 0.0
O188 O 0.2091 0.82598 0.41649 0.0
O189 O 0.22361 0.85894 0.53279 0.0
O190 O 0.25576 0.86725 0.3675 0.0
O191 O 0.26114 0.83408 0.3794 0.0
H192 H 0.31752 0.8568 0.35713 0.0
H193 H 0.34762 0.87757 0.27185 0.0
H194 H 0.39945 0.88916 0.48729 0.0
H195 H 0.36922 0.86842 0.57226 0.0
H196 H 0.1702 0.78133 0.42693 0.0
H197 H 0.13282 0.75593 0.47205 0.0
H198 H 0.15154 0.8361 0.63403 0.0
H199 H 0.18885 0.86134 0.58941 0.0
Ho200 Ho 0.24324 0.25972 0.60652 0.0
Ho201 Ho 0.28552 0.30748 0.65428 0.0
C202 C 0.2473 0.3201 0.60491 0.0
C203 C 0.19882 0.22088 0.59563 0.0
C204 C 0.1775 0.22045 0.61017 0.0
C205 C 0.17819 0.23818 0.68252 0.0
C206 C 0.15759 0.23609 0.69751 0.0
C207 C 0.1357 0.21637 0.64036 0.0
C208 C 0.13522 0.19911 0.56708 0.0
C209 C 0.1558 0.20109 0.55243 0.0
C210 C 0.26041 0.27188 0.455 0.0
C211 C 0.28444 0.24917 0.61976 0.0
C212 C 0.32928 0.34936 0.67939 0.0
C213 C 0.3449 0.36338 0.6209 0.0
C214 C 0.33687 0.35353 0.53078 0.0
C215 C 0.35215 0.36601 0.47555 0.0
C216 C 0.3757 0.38859 0.50953 0.0
C217 C 0.38349 0.39864 0.59994 0.0
C218 C 0.36821 0.3861 0.6551 0.0
C219 C 0.26771 0.29329 0.8048 0.0
O220 O 0.23505 0.29492 0.62767 0.0
O221 O 0.26846 0.32862 0.5954 0.0
O222 O 0.20736 0.23134 0.53016 0.0
O223 O 0.21542 0.22913 0.66337 0.0
O224 O 0.24944 0.24661 0.4763 0.0
O225 O 0.26274 0.2904 0.51834 0.0
O226 O 0.29517 0.2759 0.60761 0.0
O227 O 0.26285 0.23713 0.63203 0.0
O228 O 0.31217 0.3535 0.6787 0.0
O229 O 0.32229 0.32233 0.67792 0.0
O230 O 0.27775 0.31844 0.7839 0.0
O231 O 0.26654 0.27601 0.74097 0.0
H232 H 0.19463 0.25349 0.7281 0.0
H233 H 0.15885 0.2501 0.75389 0.0
H234 H 0.11881 0.18345 0.52191 0.0
H235 H 0.15467 0.18709 0.49632 0.0
H236 H 0.31887 0.33599 0.5033 0.0
H237 H 0.34551 0.358 0.40626 0.0
H238 H 0.40156 0.41572 0.6283 0.0
H239 H 0.37469 0.39385 0.72455 0.0
Ho240 Ho 0.44009 0.17784 0.69106 0.0
Ho241 Ho 0.43496 0.17784 0.85962 0.0
C242 C 0.40047 0.18776 0.72744 0.0
C243 C 0.43767 0.15572 0.53727 0.0
C244 C 0.4157 0.13189 0.4785 0.0
C245 C 0.39624 0.13443 0.46139 0.0
C246 C 0.37426 0.11041 0.41988 0.0
C247 C 0.37098 0.08303 0.39459 0.0
C248 C 0.39048 0.08045 0.41149 0.0
C249 C 0.41262 0.10466 0.45318 0.0
C250 C 0.46588 0.23379 0.78328 0.0
C251 C 0.47785 0.17412 0.8306 0.0
C252 C 0.42224 0.18154 1.0031 0.0
C253 C 0.39765 0.1656 1.01066 0.0
C254 C 0.38004 0.14777 0.93588 0.0
C255 C 0.35709 0.12815 0.94238 0.0
C256 C 0.35136 0.12596 1.02391 0.0
C257 C 0.36867 0.14556 0.09807 0.0
C258 C 0.3917 0.16516 0.09146 0.0
C259 C 0.40944 0.12281 0.75924 0.0
O260 O 0.40648 0.17702 0.66548 0.0
O261 O 0.41152 0.19338 0.80821 0.0
O262 O 0.43985 0.18089 0.55597 0.0
O263 O 0.44385 0.14806 0.6058 0.0
O264 O 0.4547 0.2256 0.703 0.0
O265 O 0.46423 0.21205 0.81068 0.0
O266 O 0.46997 0.18241 0.8916 0.0
O267 O 0.46786 0.16924 0.74834 0.0
O268 O 0.42783 0.20131 0.95612 0.0
O269 O 0.42999 0.16498 0.98309 0.0
O270 O 0.42276 0.13032 0.83476 0.0
O271 O 0.41053 0.14506 0.73958 0.0
H272 H 0.3978 0.15488 0.48146 0.0
H273 H 0.35996 0.11367 0.40553 0.0
H274 H 0.38863 0.05977 0.39239 0.0
H275 H 0.42723 0.10197 0.46775 0.0
H276 H 0.38433 0.14763 0.87277 0.0
H277 H 0.34423 0.11335 0.88435 0.0
H278 H 0.36497 0.1441 0.16217 0.0
H279 H 0.40507 0.17865 0.14975 0.0
Ho280 Ho 0.94016 0.16438 0.83576 0.0
Ho281 Ho 0.9361 0.19156 0.70414 0.0
C282 C 0.89478 0.16968 0.80127 0.0
C283 C 0.94539 0.1428 0.9674 0.0
C284 C 0.96579 0.14207 1.00598 0.0
C285 C 0.9696 0.14045 0.0931 0.0
C286 C 0.99113 0.14566 0.13445 0.0
C287 C 1.00935 0.15316 0.08958 0.0
C288 C 1.00475 0.15238 1.00047 0.0
C289 C 0.98297 0.14644 0.95868 0.0
C290 C 0.91877 0.12659 0.67899 0.0
C291 C 0.9824 0.18844 0.74449 0.0
C292 C 0.93863 0.21186 0.56414 0.0
C293 C 0.95912 0.22508 0.52435 0.0
C294 C 0.98189 0.2422 0.57733 0.0
C295 C 1.00126 0.24701 0.5442 0.0
C296 C 0.99803 0.23462 0.45811 0.0
C297 C 0.97564 0.21991 0.4032 0.0
C298 C 0.95629 0.21525 0.43608 0.0
C299 C 0.95789 0.23009 0.85888 0.0
O300 O 0.90944 0.16795 0.8601 0.0
O301 O 0.89993 0.17505 0.72557 0.0
O302 O 0.94868 0.1686 0.97504 0.0
O303 O 0.93461 0.12733 0.88946 0.0
O304 O 0.9367 0.13052 0.73174 0.0
O305 O 0.91419 0.1449 0.70841 0.0
O306 O 0.96715 0.18813 0.68334 0.0
O307 O 0.97721 0.18426 0.82028 0.0
O308 O 0.94072 0.22627 0.63879 0.0
O309 O 0.92954 0.18434 0.56405 0.0
O310 O 0.94076 0.22721 0.8037 0.0
O311 O 0.96207 0.21114 0.83129 0.0
H312 H 0.95656 0.13702 0.13051 0.0
H313 H 0.99424 0.14668 0.20372 0.0
H314 H 1.0185 0.15835 0.96474 0.0
H315 H 0.9801 0.14698 0.89057 0.0
H316 H 0.98455 0.24967 0.64608 0.0
H317 H 1.01833 0.25792 0.58777 0.0
H318 H 0.97285 0.2099 0.33669 0.0
H319 H 0.93892 0.20174 0.39449 0.0
Ho320 Ho 0.92616 0.65643 0.70051 0.0
Ho321 Ho 0.95116 0.7028 0.85401 0.0
C322 C 0.98256 0.70204 0.7282 0.0
C323 C 0.90438 0.62585 0.54593 0.0
C324 C 0.88285 0.62074 0.49211 0.0
C325 C 0.88071 0.61871 0.40255 0.0
C326 C 0.86428 0.62262 0.35438 0.0
C327 C 0.84998 0.62905 0.39549 0.0
C328 C 0.85042 0.62781 0.48344 0.0
C329 C 0.86674 0.62367 0.53132 0.0
C330 C 0.94277 0.64065 0.83498 0.0
C331 C 0.89569 0.65704 0.83201 0.0
C332 C 0.9655 0.73679 1.00278 0.0
C333 C 0.95224 0.74705 1.04309 0.0
C334 C 0.93539 0.74947 0.99015 0.0
C335 C 0.91847 0.75159 1.02458 0.0
C336 C 0.9179 0.75094 0.1123 0.0
C337 C 0.93615 0.75129 0.16665 0.0
C338 C 0.95314 0.74924 0.13215 0.0
C339 C 0.93388 0.71687 0.71631 0.0
O340 O 0.96237 0.68458 0.67119 0.0
O341 O 0.98279 0.7085 0.81077 0.0
O342 O 0.92216 0.65278 0.56177 0.0
O343 O 0.90201 0.61452 0.61508 0.0
O344 O 0.92295 0.62373 0.78022 0.0
O345 O 0.95348 0.66496 0.81355 0.0
O346 O 0.91596 0.67361 0.88825 0.0
O347 O 0.89539 0.65182 0.74906 0.0
O348 O 0.97175 0.74621 0.9328 0.0
O349 O 0.9565 0.70887 0.99389 0.0
O350 O 0.95434 0.73393 0.7667 0.0
O351 O 0.92349 0.69349 0.74238 0.0
H352 H 0.89303 0.61658 0.37117 0.0
H353 H 0.86464 0.62374 0.28694 0.0
H354 H 0.83958 0.63254 0.51679 0.0
H355 H 0.86794 0.62508 0.60026 0.0
H356 H 0.9342 0.74757 0.92087 0.0
H357 H 0.90477 0.75147 0.98122 0.0
H358 H 0.93608 0.75034 0.23433 0.0
H359 H 0.96583 0.74712 0.17379 0.0
H360 H 0.1093 0.53533 0.98342 0.0
H361 H 0.10493 0.45976 0.50076 0.0
H362 H 0.10856 0.4565 0.93496 0.0
H363 H 0.10756 0.53981 0.55074 0.0
H364 H 0.10595 0.45788 0.65652 0.0
H365 H 0.10825 0.53716 0.82764 0.0
C366 C 0.10888 0.51831 0.9409 0.0
C367 C 0.10907 0.49571 0.97564 0.0
C368 C 0.1063 0.47594 0.63373 0.0
C369 C 0.10783 0.49767 0.79187 0.0
C370 C 0.10573 0.47702 0.54359 0.0
C371 C 0.10612 0.50001 0.50931 0.0
C372 C 0.10726 0.49794 0.69299 0.0
C373 C 0.10718 0.52149 0.57148 0.0
C374 C 0.1083 0.51937 0.85075 0.0
C375 C 0.1085 0.47453 0.91386 0.0
N376 N 0.10767 0.51991 0.65796 0.0
N377 N 0.10792 0.47604 0.82729 0.0
H378 H 0.61577 0.48105 0.762 0.0
H379 H 0.60825 0.54491 0.3218 0.0
H380 H 0.60846 0.55396 0.75764 0.0
H381 H 0.61583 0.4722 0.32587 0.0
H382 H 0.60813 0.54845 0.47842 0.0
H383 H 0.6159 0.47745 0.60534 0.0
C384 C 0.61423 0.49643 0.72903 0.0
C385 C 0.6121 0.51793 0.77633 0.0
C386 C 0.6098 0.53163 0.4454 0.0
C387 C 0.61216 0.51377 0.59143 0.0
C388 C 0.60983 0.52955 0.3547 0.0
C389 C 0.61204 0.50814 0.30731 0.0
C390 C 0.61199 0.51221 0.49221 0.0
C391 C 0.61407 0.48917 0.35712 0.0
C392 C 0.61427 0.49432 0.63831 0.0
C393 C 0.61015 0.53692 0.72645 0.0
N394 N 0.61401 0.49165 0.44465 0.0
N395 N 0.61021 0.5344 0.63894 0.0
H396 H 0.60194 0.02949 0.59986 0.0
H397 H 0.62869 0.13227 0.23961 0.0
H398 H 0.6243 0.11921 0.66526 0.0
H399 H 0.60475 0.042 0.17405 0.0
H400 H 0.62733 0.12804 0.3918 0.0
H401 H 0.60312 0.03379 0.44778 0.0
C402 C 0.60717 0.05028 0.58313 0.0
C403 C 0.613 0.07393 0.64904 0.0
C404 C 0.62232 0.10901 0.34473 0.0
C405 C 0.61443 0.07914 0.46809 0.0
C406 C 0.62307 0.11138 0.25634 0.0
C407 C 0.61686 0.08755 0.19041 0.0
C408 C 0.61528 0.08244 0.37133 0.0
C409 C 0.60977 0.06126 0.22002 0.0
C410 C 0.60781 0.05269 0.49476 0.0
C411 C 0.61959 0.1001 0.61934 0.0
N412 N 0.60924 0.05955 0.30644 0.0
N413 N 0.62009 0.10188 0.53291 0.0
H414 H 0.72713 0.8205 0.54958 0.0
H415 H 0.81015 0.89752 1.03672 0.0
H416 H 0.80075 0.88588 0.59539 0.0
H417 H 0.73684 0.83093 0.99049 0.0
H418 H 0.807 0.89386 0.87929 0.0
H419 H 0.73034 0.82409 0.70698 0.0
C420 C 0.74413 0.83568 0.59212 0.0
C421 C 0.76365 0.8528 0.55566 0.0
C422 C 0.79148 0.87997 0.9028 0.0
C423 C 0.7675 0.85723 0.74273 0.0
C424 C 0.79324 0.88206 0.99408 0.0
C425 C 0.77378 0.8646 1.0304 0.0
C426 C 0.76998 0.86014 0.84337 0.0
C427 C 0.75252 0.84509 0.96832 0.0
C428 C 0.74591 0.83772 0.68339 0.0
C429 C 0.78501 0.87196 0.61765 0.0
N430 N 0.75128 0.84347 0.87977 0.0
N431 N 0.78627 0.87359 0.70622 0.0
H432 H 0.26825 0.80275 0.77981 0.0
H433 H 0.25973 0.88561 0.21696 0.0
H434 H 0.2605 0.87548 0.78176 0.0
H435 H 0.26782 0.81314 0.21491 0.0
H436 H 0.26005 0.88233 1.06163 0.0
H437 H 0.26802 0.80616 0.93516 0.0
C438 C 0.26645 0.81956 0.81218 0.0
C439 C 0.2644 0.83879 0.76415 0.0
C440 C 0.26178 0.86705 0.09444 0.0
C441 C 0.26415 0.84294 0.94881 0.0
C442 C 0.26162 0.86889 0.18456 0.0
C443 C 0.26372 0.84967 0.23252 0.0
C444 C 0.26407 0.84566 1.04796 0.0
C445 C 0.26613 0.82865 0.18335 0.0
C446 C 0.26634 0.82148 0.90233 0.0
C447 C 0.26213 0.85993 0.81335 0.0
N448 N 0.2662 0.82729 0.0956 0.0
N449 N 0.26209 0.86135 0.90113 0.0
H450 H 0.27753 0.33391 0.95023 0.0
H451 H 0.24991 0.23065 0.30953 0.0
H452 H 0.25477 0.24406 0.88406 0.0
H453 H 0.27453 0.32112 0.3758 0.0
H454 H 0.25139 0.23496 0.15741 0.0
H455 H 0.27624 0.32948 0.10219 0.0
C456 C 0.27219 0.31306 0.96676 0.0
C457 C 0.26628 0.28942 0.90066 0.0
C458 C 0.25652 0.25401 0.20462 0.0
C459 C 0.26472 0.28405 0.08151 0.0
C460 C 0.2557 0.2516 0.29298 0.0
C461 C 0.26206 0.27546 0.3591 0.0
C462 C 0.26378 0.28067 0.17823 0.0
C463 C 0.26937 0.30183 0.32969 0.0
C464 C 0.27148 0.31058 1.05508 0.0
C465 C 0.25955 0.26318 0.93013 0.0
N466 N 0.26996 0.30359 0.24332 0.0
N467 N 0.25898 0.26132 1.0165 0.0
H468 H 0.32607 0.06707 0.40716 0.0
H469 H 0.33288 0.06953 0.94665 0.0
H470 H 0.36311 0.04348 0.25232 0.0
H471 H 0.32076 0.12169 0.12727 0.0
H472 H 0.3133 0.02934 1.01956 0.0
H473 H 0.29567 0.0518 0.27784 0.0
C474 C 0.32734 0.05751 0.3467 0.0
C475 C 0.34822 0.05921 0.3384 0.0
C476 C 0.31377 0.04904 1.04063 0.0
C477 C 0.31371 0.04181 0.19164 0.0
C478 C 0.32505 0.07218 0.99893 0.0
C479 C 0.32987 0.09964 1.03502 0.0
C480 C 0.3083 0.05405 0.12009 0.0
C481 C 0.31866 0.10133 0.10093 0.0
C482 C 0.30981 0.0485 0.27293 0.0
C483 C 0.3481 0.04456 0.26061 0.0
N484 N 0.30901 0.0791 0.14351 0.0
N485 N 0.33147 0.03732 0.189 0.0
H486 H 0.03993 0.27469 0.41949 0.0
H487 H 0.02982 0.13662 0.21355 0.0
H488 H 0.99667 0.18497 0.43698 0.0
H489 H 0.04504 0.20805 0.08771 0.0
H490 H 0.04984 0.17058 0.3522 0.0
H491 H 0.06605 0.26338 0.35514 0.0
C492 C 0.03641 0.2529 0.41211 0.0
C493 C 1.01606 0.2305 0.43157 0.0
C494 C 0.04998 0.17915 0.29375 0.0
C495 C 0.04602 0.2179 0.36316 0.0
C496 C 0.03866 0.15966 0.21417 0.0
C497 C 0.03373 0.16941 0.14105 0.0
C498 C 0.05495 0.20753 0.29807 0.0
C499 C 0.04671 0.19946 0.14465 0.0
C500 C 0.0514 0.24659 0.37685 0.0
C501 C 1.01208 0.20269 0.42152 0.0
N502 N 0.05573 0.2177 0.22327 0.0
N503 N 0.02682 0.19717 0.38773 0.0
H504 H 0.82543 0.61557 0.22736 0.0
H505 H 0.91306 0.77142 0.26907 0.0
H506 H 0.85256 0.67821 0.46639 0.0
H507 H 0.87269 0.71149 1.02498 0.0
H508 H 0.87981 0.74377 0.33479 0.0
H509 H 0.82825 0.65247 0.14817 0.0
C510 C 0.83117 0.6368 0.26345 0.0
C511 C 0.84016 0.64439 0.35318 0.0
C512 C 0.87785 0.7372 0.26604 0.0
C513 C 0.8445 0.68695 0.26285 0.0
C514 C 0.89693 0.75302 0.22858 0.0
C515 C 0.89607 0.74296 0.14256 0.0
C516 C 0.85823 0.71069 0.21766 0.0
C517 C 0.87446 0.71965 0.0923 0.0
C518 C 0.83286 0.65797 0.21816 0.0
C519 C 0.8465 0.67182 0.39678 0.0
N520 N 0.85667 0.70371 0.1313 0.0
N521 N 0.84957 0.69258 0.35106 0.0
H522 H 0.20184 0.30664 0.59491 0.0
H523 H 0.22874 0.45082 0.4218 0.0
H524 H 0.26968 0.37341 0.56244 0.0
H525 H 0.16004 0.38701 0.45576 0.0
H526 H 0.24358 0.42236 0.4757 0.0
H527 H 0.18583 0.33528 0.54761 0.0
C528 C 0.21341 0.32737 0.57859 0.0
C529 C 0.23718 0.33757 0.58275 0.0
C530 C 0.22525 0.4145 0.47171 0.0
C531 C 0.21894 0.37034 0.52795 0.0
C532 C 0.21674 0.43093 0.44129 0.0
C533 C 0.19306 0.42159 0.43465 0.0
C534 C 0.21007 0.38826 0.49591 0.0
C535 C 0.17837 0.39508 0.45903 0.0
C536 C 0.20424 0.34366 0.55128 0.0
C537 C 0.25126 0.36454 0.56029 0.0
N538 N 0.1871 0.37941 0.48864 0.0
N539 N 0.24195 0.37982 0.53385 0.0
H540 H 0.68826 0.61228 0.11392 0.0
H541 H 0.68996 0.7605 0.19757 0.0
H542 H 0.62578 0.61405 0.10751 0.0
H543 H 0.75176 0.75768 0.26756 0.0
H544 H 0.66645 0.70729 0.15376 0.0
H545 H 0.71201 0.66559 0.15838 0.0
C546 C 0.67948 0.62379 0.12127 0.0
C547 C 0.65485 0.60836 0.10667 0.0
C548 C 0.68515 0.71828 0.17893 0.0
C549 C 0.68211 0.6698 0.1576 0.0
C550 C 0.69863 0.74877 0.20408 0.0
C551 C 0.72298 0.76389 0.23695 0.0
C552 C 0.696 0.70248 0.18522 0.0
C553 C 0.73308 0.74719 0.24326 0.0
C554 C 0.69309 0.6543 0.14712 0.0
C555 C 0.64464 0.62475 0.11798 0.0
N556 N 0.71965 0.71762 0.21736 0.0
N557 N 0.6582 0.65434 0.14224 0.0
H558 H 0.50117 0.99604 0.18886 0.0
H559 H 0.3727 0.86567 0.20237 0.0
H560 H 0.45748 0.92095 0.98122 0.0
H561 H 0.42079 0.93287 0.42522 0.0
H562 H 0.40291 0.88691 0.11812 0.0
H563 H 0.47156 0.9742 0.27498 0.0
C564 C 0.48547 0.97486 0.1615 0.0
C565 C 0.48189 0.96038 1.07733 0.0
C566 C 0.40689 0.89698 0.1855 0.0
C567 C 0.44765 0.93544 0.17542 0.0
C568 C 0.38959 0.88497 0.23349 0.0
C569 C 0.39421 0.89752 0.32101 0.0
C570 C 0.42896 0.92189 0.22498 0.0
C571 C 0.41654 0.9223 0.35822 0.0
C572 C 0.46849 0.96248 0.21064 0.0
C573 C 0.46092 0.93319 1.04508 0.0
N574 N 0.43304 0.93373 0.30996 0.0
N575 N 0.44461 0.92168 0.09399 0.0
H576 H 0.5974 0.15384 0.83167 0.0
H577 H 0.49341 0.16351 0.9834 0.0
H578 H 0.56068 0.10676 1.01764 0.0
H579 H 0.50734 0.17373 0.72857 0.0
H580 H 0.5238 0.15234 1.01394 0.0
H581 H 0.57059 0.17116 0.81071 0.0
C582 C 0.58409 0.14767 0.86953 0.0
C583 C 0.58144 0.12887 0.92684 0.0
C584 C 0.52033 0.15726 0.95157 0.0
C585 C 0.55062 0.14867 0.90323 0.0
C586 C 0.50302 0.16379 0.93418 0.0
C587 C 0.49763 0.16955 0.85309 0.0
C588 C 0.53286 0.15704 0.88826 0.0
C589 C 0.51072 0.16933 0.79186 0.0
C590 C 0.56862 0.15732 0.85689 0.0
C591 C 0.56348 0.12122 0.97286 0.0
N592 N 0.52769 0.16332 0.81072 0.0
N593 N 0.54892 0.13116 0.96036 0.0
H594 H 0.95067 0.27238 0.91678 0.0
H595 H 0.08366 0.39096 0.17388 0.0
H596 H 1.00438 0.25295 0.94088 0.0
H597 H 0.02858 0.4076 0.12443 0.0
H598 H 0.05531 0.33981 0.10071 0.0
H599 H 0.97895 0.32073 1.00448 0.0
C600 C 0.96843 0.27819 0.94119 0.0
C601 C 0.97503 0.25839 0.92085 0.0
C602 C 0.04944 0.35466 0.10646 0.0
C603 C 1.00807 0.3146 1.0221 0.0
C604 C 0.06562 0.38389 0.14863 0.0
C605 C 0.05864 0.40389 0.15567 0.0
C606 C 0.026 0.34518 1.07127 0.0
C607 C 0.03497 0.39327 0.12082 0.0
C608 C 0.98468 0.30599 0.99134 0.0
C609 C 0.99841 0.26739 0.95492 0.0
N610 N 0.0197 0.36495 0.08047 0.0
N611 N 1.01409 0.29483 1.00332 0.0
H612 H 0.88803 0.66315 0.99737 0.0
H613 H 0.74779 0.56689 0.83348 0.0
H614 H 0.85147 0.62375 0.73029 0.0
H615 H 0.78217 0.59608 0.10441 0.0
H616 H 0.78607 0.59048 0.79577 0.0
H617 H 0.84996 0.64182 1.03931 0.0
C618 C 0.87207 0.65004 0.94757 0.0
C619 C 0.87305 0.64511 0.86011 0.0
C620 C 0.78531 0.59178 0.86357 0.0
C621 C 0.82944 0.62075 0.9076 0.0
C622 C 0.76338 0.57817 0.8852 0.0
C623 C 0.76162 0.5793 0.97236 0.0
C624 C 0.80585 0.60675 0.92937 0.0
C625 C 0.78258 0.5948 1.03635 0.0
C626 C 0.85034 0.63787 0.97157 0.0
C627 C 0.85173 0.62811 0.79847 0.0
N628 N 0.80378 0.60776 1.01357 0.0
N629 N 0.83094 0.6166 0.82337 0.0
H630 H 0.98912 0.66867 0.91783 0.0
H631 H 0.97539 0.52223 1.02521 0.0
H632 H 0.92336 0.58599 0.86617 0.0
H633 H 0.04126 0.60512 0.09792 0.0
H634 H 0.95636 0.54592 0.96784 0.0
H635 H 1.00876 0.64678 0.98715 0.0
C636 C 0.9788 0.64601 0.92196 0.0
C637 C 0.95461 0.62905 0.88582 0.0
C638 C 0.97497 0.55903 0.99653 0.0
C639 C 0.97692 0.60384 0.964 0.0
C640 C 0.98586 0.5455 1.02974 0.0
C641 C 1.00998 0.5617 1.06726 0.0
C642 C 0.9882 0.58909 1.0002 0.0
C643 C 0.02268 0.59171 1.06909 0.0
C644 C 0.99001 0.6335 0.96116 0.0
C645 C 0.94206 0.59982 0.89279 0.0
N646 N 1.01164 0.60445 1.03614 0.0
N647 N 0.95337 0.58814 0.93051 0.0
H648 H 0.53494 0.42066 0.96114 0.0
H649 H 0.50763 0.25884 0.9066 0.0
H650 H 0.59151 0.40637 0.99706 0.0
H651 H 0.46432 0.28074 0.75354 0.0
H652 H 0.53662 0.3112 0.96512 0.0
H653 H 0.50701 0.36829 0.9109 0.0
C654 C 0.54156 0.40655 0.95938 0.0
C655 C 0.56582 0.4183 0.98359 0.0
C656 C 0.52072 0.30448 0.91894 0.0
C657 C 0.53345 0.35752 0.92641 0.0
C658 C 0.50408 0.27457 0.88588 0.0
C659 C 0.4834 0.26522 0.82478 0.0
C660 C 0.51642 0.32529 0.89271 0.0
C661 C 0.47995 0.28679 0.80016 0.0
C662 C 0.52552 0.37653 0.93012 0.0
C663 C 0.57308 0.39852 0.97898 0.0
N664 N 0.49605 0.31554 0.83449 0.0
N665 N 0.55703 0.36922 0.95162 0.0
H666 H 0.87747 0.15862 0.95024 0.0
H667 H 0.76103 0.15612 0.76124 0.0
H668 H 0.86074 0.17142 0.69392 0.0
H669 H 0.77653 0.14357 1.01922 0.0
H670 H 0.79734 0.16126 0.73635 0.0
H671 H 0.84073 0.15246 0.97723 0.0
C672 C 0.86613 0.16012 0.89954 0.0
C673 C 0.8724 0.16559 0.81956 0.0
C674 C 0.79285 0.15737 0.7985 0.0
C675 C 0.83008 0.15852 0.85024 0.0
C676 C 0.77207 0.15459 0.81309 0.0
C677 C 0.7655 0.14955 0.89288 0.0
C678 C 0.80751 0.15516 0.86395 0.0
C679 C 0.78056 0.14716 0.95638 0.0
C680 C 0.8451 0.15659 0.91506 0.0
C681 C 0.85683 0.16727 0.75661 0.0
N682 N 0.80078 0.15007 0.9407 0.0
N683 N 0.83656 0.16379 0.77328 0.0
H684 H 0.67715 0.05673 0.94997 0.0
H685 H 0.65221 0.91274 0.11952 0.0
H686 H 0.60999 0.99003 0.98781 0.0
H687 H 0.7212 0.97978 0.09757 0.0
H688 H 0.63663 0.94043 1.06512 0.0
H689 H 0.6937 0.02868 0.99703 0.0
C690 C 0.66585 0.03616 0.9676 0.0
C691 C 0.64212 0.02584 0.96509 0.0
C692 C 0.65518 0.94916 1.07186 0.0
C693 C 0.66096 0.99362 1.01916 0.0
C694 C 0.66412 0.93319 0.10252 0.0
C695 C 0.6881 0.9437 0.11274 0.0
C696 C 0.67023 0.97608 1.05089 0.0
C697 C 0.70263 0.97081 0.0914 0.0
C698 C 0.67533 0.02019 0.99468 0.0
C699 C 0.62836 0.99899 0.98871 0.0
N700 N 0.69348 0.98601 1.06138 0.0
N701 N 0.63796 0.98396 1.01473 0.0
H702 H 0.18838 0.74485 0.42956 0.0
H703 H 0.18547 0.59601 0.33574 0.0
H704 H 0.25065 0.74328 0.42598 0.0
H705 H 0.12428 0.60036 0.2701 0.0
H706 H 0.20956 0.64929 0.38123 0.0
H707 H 0.1646 0.69162 0.38474 0.0
C708 C 0.19712 0.7334 0.41992 0.0
C709 C 0.22168 0.74888 0.43175 0.0
C710 C 0.19086 0.63858 0.35666 0.0
C711 C 0.19436 0.68743 0.38046 0.0
C712 C 0.17706 0.60806 0.33059 0.0
C713 C 0.15269 0.59336 0.29838 0.0
C714 C 0.18029 0.65476 0.35205 0.0
C715 C 0.14294 0.61048 0.29384 0.0
C716 C 0.18348 0.70291 0.39388 0.0
C717 C 0.23183 0.73252 0.41763 0.0
N718 N 0.15664 0.63998 0.32062 0.0
N719 N 0.21823 0.70291 0.39327 0.0
H720 H 0.48824 0.50305 0.27302 0.0
H721 H 0.37957 0.3598 0.36759 0.0
H722 H 0.46294 0.41625 0.14064 0.0
H723 H 0.40974 0.44576 0.51894 0.0
H724 H 0.40795 0.38046 0.27617 0.0
H725 H 0.45769 0.48279 0.35625 0.0
C726 C 0.47614 0.47973 0.26095 0.0
C727 C 0.4782 0.46132 0.19982 0.0
C728 C 0.40834 0.39482 0.32927 0.0
C729 C 0.44325 0.43794 0.29549 0.0
C730 C 0.39202 0.38306 0.38117 0.0
C731 C 0.39228 0.40105 0.45132 0.0
C732 C 0.42506 0.42484 0.34729 0.0
C733 C 0.40907 0.431 0.46638 0.0
C734 C 0.45878 0.46817 0.30889 0.0
C735 C 0.4622 0.43124 0.18784 0.0
N736 N 0.42478 0.44193 0.41491 0.0
N737 N 0.44542 0.42051 0.23519 0.0
H738 H 0.95334 0.76845 0.66282 0.0
H739 H 0.82954 0.74591 0.46851 0.0
H740 H 0.8869 0.68928 0.64694 0.0
H741 H 0.89629 0.82169 0.4636 0.0
H742 H 0.85005 0.7241 0.52965 0.0
H743 H 0.9327 0.78756 0.58474 0.0
C744 C 0.9344 0.75502 0.64225 0.0
C745 C 0.92179 0.72735 0.66171 0.0
C746 C 0.8602 0.74546 0.5149 0.0
C747 C 0.89799 0.74917 0.57352 0.0
C748 C 0.84849 0.7579 0.4797 0.0
C749 C 0.86119 0.78585 0.46163 0.0
C750 C 0.88482 0.76101 0.53205 0.0
C751 C 0.88576 0.80039 0.47821 0.0
C752 C 0.92261 0.76594 0.59785 0.0
C753 C 0.89729 0.71079 0.63345 0.0
N754 N 0.89674 0.78786 0.51266 0.0
N755 N 0.88618 0.7221 0.59166 0.0
H756 H 0.36787 0.09872 0.63494 0.0
H757 H 0.34066 0.93683 0.56927 0.0
H758 H 0.41112 0.07554 0.78228 0.0
H759 H 0.28375 0.95057 0.54518 0.0
H760 H 0.36854 0.98923 0.61794 0.0
H761 H 0.33888 0.04653 0.57285 0.0
C762 C 0.37138 0.08276 0.65386 0.0
C763 C 0.392 0.09167 0.71467 0.0
C764 C 0.34997 0.98087 0.60154 0.0
C765 C 0.359 0.03189 0.64283 0.0
C766 C 0.33394 0.95082 0.57327 0.0
C767 C 0.30962 0.9389 0.55306 0.0
C768 C 0.34194 0.99973 0.60832 0.0
C769 C 0.30225 0.95855 0.56027 0.0
C770 C 0.35475 0.05296 0.61874 0.0
C771 C 0.3955 0.06985 0.73628 0.0
N772 N 0.31828 0.98789 0.58676 0.0
N773 N 0.37938 0.04126 0.70031 0.0
H774 H 0.99773 0.19295 0.59202 0.0
H775 H 0.12263 0.21825 0.79702 0.0
H776 H 0.01942 0.19551 0.86159 0.0
H777 H 0.09764 0.20746 0.52356 0.0
H778 H 0.08606 0.21239 0.82341 0.0
H779 H 0.03514 0.2004 0.56807 0.0
C780 C 1.01034 0.19518 0.64611 0.0
C781 C 1.00526 0.19353 0.72883 0.0
C782 C 0.08857 0.21132 0.75762 0.0
C783 C 0.04826 0.20215 0.70135 0.0
C784 C 0.1096 0.21488 0.74242 0.0
C785 C 0.11347 0.21338 0.65773 0.0
C786 C 0.0711 0.20635 0.68786 0.0
C787 C 0.09553 0.20846 0.58985 0.0
C788 C 0.03165 0.19938 0.63224 0.0
C789 C 0.0224 0.19649 0.79649 0.0
N790 N 0.07529 0.2052 0.60639 0.0
N791 N 0.04303 0.20066 0.78133 0.0
H792 H 0.37395 0.19258 0.83618 0.0
H793 H 0.31673 0.25434 0.52652 0.0
H794 H 0.38306 0.19628 0.57371 0.0
H795 H 0.28401 0.21225 0.72682 0.0
H796 H 0.34312 0.23681 0.54806 0.0
H797 H 0.34347 0.20348 0.80456 0.0
C798 C 0.36958 0.19567 0.77181 0.0
C799 C 0.38129 0.19353 0.70765 0.0
C800 C 0.33 0.23105 0.58665 0.0
C801 C 0.34636 0.20652 0.6713 0.0
C802 C 0.31484 0.241 0.57424 0.0
C803 C 0.29783 0.23452 0.62415 0.0
C804 C 0.32885 0.21513 0.65153 0.0
C805 C 0.29652 0.21742 0.68582 0.0
C806 C 0.35204 0.20176 0.75373 0.0
C807 C 0.3746 0.19764 0.62532 0.0
N808 N 0.31201 0.20873 0.69865 0.0
N809 N 0.3579 0.20427 0.60997 0.0
H810 H 0.79368 0.96426 0.36606 0.0
H811 H 0.92649 0.08467 0.62153 0.0
H812 H 0.84891 0.94826 0.42427 0.0
H813 H 0.87199 0.10274 0.59922 0.0
H814 H 0.89836 0.03596 0.53577 0.0
H815 H 0.82173 0.01568 0.43783 0.0
C816 C 0.81169 0.97152 0.39299 0.0
C817 C 0.81881 0.95165 0.38884 0.0
C818 C 0.89242 0.05047 0.54892 0.0
C819 C 0.85108 0.01062 0.47133 0.0
C820 C 0.90859 0.07849 0.59792 0.0
C821 C 0.90171 0.09801 0.6182 0.0
C822 C 0.86888 0.0414 0.51919 0.0
C823 C 0.87816 0.08852 0.5852 0.0
C824 C 0.82769 1.00089 0.43434 0.0
C825 C 0.84241 0.96249 0.4257 0.0
N826 N 0.86259 0.0609 0.53782 0.0
N827 N 0.85751 0.99094 0.46498 0.0
H828 H 0.99025 0.69342 0.56471 0.0
H829 H 0.13016 0.8004 0.7182 0.0
H830 H 0.02687 0.73812 0.82881 0.0
H831 H 0.09531 0.75301 0.45517 0.0
H832 H 0.09222 0.77736 0.7588 0.0
H833 H 0.02816 0.71444 0.52228 0.0
C834 C 1.00621 0.70756 0.61383 0.0
C835 C 1.00527 0.71398 0.70054 0.0
C836 C 0.09281 0.77189 0.69217 0.0
C837 C 0.04878 0.73819 0.6523 0.0
C838 C 0.11452 0.78519 0.66879 0.0
C839 C 0.11604 0.77881 0.58293 0.0
C840 C 0.07224 0.75203 0.62936 0.0
C841 C 0.09509 0.75845 0.52228 0.0
C842 C 0.02787 0.71956 0.58953 0.0
C843 C 0.0266 0.7325 0.7612 0.0
N844 N 0.07409 0.74592 0.54651 0.0
N845 N 0.04737 0.74393 0.73593 0.0
loop_
_geom_bond_atom_site_label_1
_geom_bond_atom_site_label_2
_geom_bond_distance
_geom_bond_site_symmetry_2
_ccdc_geom_bond_type
Ho0 C3 2.811 . S
Ho0 O20 2.322 . S
Ho0 O22 2.378 . S
Ho0 O23 2.524 . S
Ho0 O24 2.381 1_554 S
Ho0 O25 2.669 1_554 S
Ho0 O27 2.346 . S
Ho0 O31 2.305 . S
Ho1 C12 2.811 . S
Ho1 O21 2.346 . S
Ho1 O25 2.305 1_554 S
Ho1 O26 2.322 . S
Ho1 O28 2.378 1_455 S
Ho1 O29 2.524 1_554 S
Ho1 O30 2.381 . S
Ho1 O31 2.669 . S
C2 O20 1.259 . S
C2 O21 1.268 . S
C3 Ho0 2.811 . S
C3 C4 1.488 . S
C3 O22 1.215 . S
C3 O23 1.289 . S
C4 C3 1.488 . S
C4 C5 1.348 . S
C4 C9 1.413 . S
C5 C4 1.348 . S
C5 C6 1.442 . S
C5 H32 0.930 . S
C6 C5 1.442 . S
C6 C7 1.381 . S
C6 H33 0.931 . S
C7 C6 1.381 . S
C7 C8 1.321 . S
C8 C7 1.321 . S
C8 C9 1.403 . S
C8 H34 0.934 . S
C9 C4 1.413 . S
C9 C8 1.403 . S
C9 H35 0.930 . S
C10 O24 1.275 . S
C10 O25 1.256 . S
C11 O26 1.259 . S
C11 O27 1.268 . S
C12 Ho1 2.811 . S
C12 C13 1.488 1_455 S
C12 O28 1.215 1_455 S
C12 O29 1.289 1_554 S
C13 C12 1.488 1_655 S
C13 C14 1.348 1_654 S
C13 C18 1.413 . S
C14 C13 1.348 1_456 S
C14 C15 1.442 1_455 S
C14 H36 0.930 . S
C15 C14 1.442 1_655 S
C15 C16 1.381 1_556 S
C15 H37 0.931 1_655 S
C16 C15 1.381 1_554 S
C16 C17 1.321 . S
C17 C16 1.321 . S
C17 C18 1.403 . S
C17 H38 0.934 . S
C18 C13 1.413 . S
C18 C17 1.403 . S
C18 H39 0.930 . S
C19 O30 1.275 . S
C19 O31 1.256 . S
O20 Ho0 2.322 . S
O20 C2 1.259 . S
O21 Ho1 2.346 . S
O21 C2 1.268 . S
O22 Ho0 2.378 . S
O22 C3 1.215 . S
O23 Ho0 2.524 . S
O23 C3 1.289 . S
O24 Ho0 2.381 1_556 S
O24 C10 1.275 . S
O25 Ho0 2.669 1_556 S
O25 Ho1 2.305 1_556 S
O25 C10 1.256 . S
O26 Ho1 2.322 . S
O26 C11 1.259 . S
O27 Ho0 2.346 . S
O27 C11 1.268 . S
O28 Ho1 2.378 1_655 S
O28 C12 1.215 1_655 S
O29 Ho1 2.524 1_556 S
O29 C12 1.289 1_556 S
O30 Ho1 2.381 . S
O30 C19 1.275 . S
O31 Ho0 2.305 . S
O31 Ho1 2.669 . S
O31 C19 1.256 . S
H32 C5 0.930 . S
H33 C6 0.931 . S
H34 C8 0.934 . S
H35 C9 0.930 . S
H36 C14 0.930 . S
H37 C15 0.931 1_455 S
H38 C17 0.934 . S
H39 C18 0.930 . S
Ho40 C43 2.811 . S
Ho40 O60 2.322 . S
Ho40 O62 2.378 . S
Ho40 O63 2.524 . S
Ho40 O64 2.381 . S
Ho40 O65 2.669 . S
Ho40 O67 2.346 . S
Ho40 O71 2.305 . S
Ho41 C52 2.811 . S
Ho41 O61 2.346 . S
Ho41 O65 2.305 . S
Ho41 O66 2.322 . S
Ho41 O68 2.378 . S
Ho41 O69 2.524 . S
Ho41 O70 2.393 . S
Ho41 O71 2.669 . S
C42 O60 1.259 . S
C42 O61 1.268 . S
C43 Ho40 2.811 . S
C43 C44 1.488 . S
C43 O62 1.215 . S
C43 O63 1.289 . S
C44 C43 1.488 . S
C44 C45 1.348 . S
C44 C49 1.413 . S
C45 C44 1.348 . S
C45 C46 1.442 . S
C45 H72 0.930 . S
C46 C45 1.442 . S
C46 C47 1.381 . S
C46 H73 0.931 . S
C47 C46 1.381 . S
C47 C48 1.321 . S
C48 C47 1.321 . S
C48 C49 1.403 . S
C48 H74 0.934 . S
C49 C44 1.413 . S
C49 C48 1.403 . S
C49 H75 0.930 . S
C50 O64 1.275 . S
C50 O65 1.256 . S
C51 O66 1.259 . S
C51 O67 1.268 . S
C52 Ho41 2.811 . S
C52 C53 1.488 . S
C52 O68 1.215 . S
C52 O69 1.289 . S
C53 C52 1.488 . S
C53 C54 1.348 . S
C53 C58 1.413 . S
C54 C53 1.348 . S
C54 C55 1.442 . S
C54 H76 0.930 . S
C55 C54 1.442 . S
C55 C56 1.381 . S
C55 H77 0.931 . S
C56 C55 1.381 . S
C56 C57 1.321 . S
C57 C56 1.321 . S
C57 C58 1.403 . S
C57 H78 0.934 . S
C58 C53 1.413 . S
C58 C57 1.403 . S
C58 H79 0.930 . S
C59 O70 1.272 1_556 S
C59 O71 1.256 1_556 S
O60 Ho40 2.322 . S
O60 C42 1.259 . S
O61 Ho41 2.346 . S
O61 C42 1.268 . S
O62 Ho40 2.378 . S
O62 C43 1.215 . S
O63 Ho40 2.524 . S
O63 C43 1.289 . S
O64 Ho40 2.381 . S
O64 C50 1.275 . S
O65 Ho40 2.669 . S
O65 Ho41 2.305 . S
O65 C50 1.256 . S
O66 Ho41 2.322 . S
O66 C51 1.259 . S
O67 Ho40 2.346 . S
O67 C51 1.268 . S
O68 Ho41 2.378 . S
O68 C52 1.215 . S
O69 Ho41 2.524 . S
O69 C52 1.289 . S
O70 Ho41 2.393 . S
O70 C59 1.272 1_554 S
O71 Ho40 2.305 . S
O71 Ho41 2.669 . S
O71 C59 1.256 1_554 S
H72 C45 0.930 . S
H73 C46 0.931 . S
H74 C48 0.934 . S
H75 C49 0.930 . S
H76 C54 0.930 . S
H77 C55 0.931 . S
H78 C57 0.934 . S
H79 C58 0.930 . S
Ho80 C83 2.811 . S
Ho80 O100 2.322 . S
Ho80 O102 2.378 . S
Ho80 O103 2.524 . S
Ho80 O104 2.381 . S
Ho80 O105 2.669 . S
Ho80 O107 2.346 . S
Ho80 O111 2.305 . S
Ho81 C92 2.811 . S
Ho81 O101 2.346 . S
Ho81 O105 2.305 . S
Ho81 O106 2.322 . S
Ho81 O108 2.378 . S
Ho81 O109 2.524 . S
Ho81 O110 2.381 . S
Ho81 O111 2.669 . S
C82 O100 1.259 . S
C82 O101 1.268 . S
C83 Ho80 2.811 . S
C83 C84 1.488 . S
C83 O102 1.215 . S
C83 O103 1.289 . S
C84 C83 1.488 . S
C84 C85 1.348 . S
C84 C89 1.413 . S
C85 C84 1.348 . S
C85 C86 1.442 . S
C85 H112 0.930 . S
C86 C85 1.442 . S
C86 C87 1.381 . S
C86 H113 0.931 . S
C87 C86 1.381 . S
C87 C88 1.321 . S
C88 C87 1.321 . S
C88 C89 1.403 . S
C88 H114 0.934 . S
C89 C84 1.413 . S
C89 C88 1.403 . S
C89 H115 0.930 . S
C90 O104 1.275 . S
C90 O105 1.256 . S
C91 O106 1.259 . S
C91 O107 1.268 . S
C92 Ho81 2.811 . S
C92 C93 1.488 . S
C92 O108 1.215 . S
C92 O109 1.289 . S
C93 C92 1.488 . S
C93 C94 1.348 . S
C93 C98 1.413 . S
C94 C93 1.348 . S
C94 C95 1.442 . S
C94 H116 0.930 . S
C95 C94 1.442 . S
C95 C96 1.381 . S
C95 H117 0.931 . S
C96 C95 1.381 . S
C96 C97 1.321 . S
C97 C96 1.321 . S
C97 C98 1.403 . S
C97 H118 0.934 . S
C98 C93 1.413 . S
C98 C97 1.403 . S
C98 H119 0.930 . S
C99 O110 1.275 . S
C99 O111 1.256 . S
O100 Ho80 2.322 . S
O100 C82 1.259 . S
O101 Ho81 2.346 . S
O101 C82 1.268 . S
O102 Ho80 2.378 . S
O102 C83 1.215 . S
O103 Ho80 2.524 . S
O103 C83 1.289 . S
O104 Ho80 2.381 . S
O104 C90 1.275 . S
O105 Ho80 2.669 . S
O105 Ho81 2.305 . S
O105 C90 1.256 . S
O106 Ho81 2.322 . S
O106 C91 1.259 . S
O107 Ho80 2.346 . S
O107 C91 1.268 . S
O108 Ho81 2.378 . S
O108 C92 1.215 . S
O109 Ho81 2.524 . S
O109 C92 1.289 . S
O110 Ho81 2.381 . S
O110 C99 1.275 . S
O111 Ho80 2.305 . S
O111 Ho81 2.669 . S
O111 C99 1.256 . S
H112 C85 0.930 . S
H113 C86 0.931 . S
H114 C88 0.934 . S
H115 C89 0.930 . S
H116 C94 0.930 . S
H117 C95 0.931 . S
H118 C97 0.934 . S
H119 C98 0.930 . S
Ho120 C123 2.811 . S
Ho120 O140 2.322 . S
Ho120 O142 2.378 . S
Ho120 O143 2.524 . S
Ho120 O144 2.381 . S
Ho120 O145 2.669 . S
Ho120 O147 2.346 . S
Ho120 O151 2.305 . S
Ho121 C132 2.811 . S
Ho121 O141 2.346 . S
Ho121 O145 2.305 . S
Ho121 O146 2.322 . S
Ho121 O148 2.378 . S
Ho121 O149 2.524 . S
Ho121 O150 2.381 . S
Ho121 O151 2.669 . S
C122 O140 1.259 . S
C122 O141 1.268 . S
C123 Ho120 2.811 . S
C123 C124 1.488 . S
C123 O142 1.215 . S
C123 O143 1.289 . S
C124 C123 1.488 . S
C124 C125 1.348 . S
C124 C129 1.413 . S
C125 C124 1.348 . S
C125 C126 1.442 . S
C125 H152 0.930 . S
C126 C125 1.442 . S
C126 C127 1.381 . S
C126 H153 0.931 . S
C127 C126 1.381 . S
C127 C128 1.321 . S
C128 C127 1.321 . S
C128 C129 1.403 . S
C128 H154 0.934 . S
C129 C124 1.413 . S
C129 C128 1.403 . S
C129 H155 0.930 . S
C130 O144 1.275 . S
C130 O145 1.256 . S
C131 O146 1.259 . S
C131 O147 1.268 . S
C132 Ho121 2.811 . S
C132 C133 1.488 . S
C132 O148 1.215 . S
C132 O149 1.289 . S
C133 C132 1.488 . S
C133 C134 1.348 . S
C133 C138 1.413 . S
C134 C133 1.348 . S
C134 C135 1.442 . S
C134 H156 0.930 . S
C135 C134 1.442 . S
C135 C136 1.381 . S
C135 H157 0.931 . S
C136 C135 1.381 . S
C136 C137 1.321 . S
C137 C136 1.321 . S
C137 C138 1.403 . S
C137 H158 0.934 . S
C138 C133 1.413 . S
C138 C137 1.403 . S
C138 H159 0.930 . S
C139 O150 1.275 . S
C139 O151 1.256 . S
O140 Ho120 2.322 . S
O140 C122 1.259 . S
O141 Ho121 2.346 . S
O141 C122 1.268 . S
O142 Ho120 2.378 . S
O142 C123 1.215 . S
O143 Ho120 2.524 . S
O143 C123 1.289 . S
O144 Ho120 2.381 . S
O144 C130 1.275 . S
O145 Ho120 2.669 . S
O145 Ho121 2.305 . S
O145 C130 1.256 . S
O146 Ho121 2.322 . S
O146 C131 1.259 . S
O147 Ho120 2.346 . S
O147 C131 1.268 . S
O148 Ho121 2.378 . S
O148 C132 1.215 . S
O149 Ho121 2.524 . S
O149 C132 1.289 . S
O150 Ho121 2.381 . S
O150 C139 1.275 . S
O151 Ho120 2.305 . S
O151 Ho121 2.669 . S
O151 C139 1.256 . S
H152 C125 0.930 . S
H153 C126 0.931 . S
H154 C128 0.934 . S
H155 C129 0.930 . S
H156 C134 0.930 . S
H157 C135 0.931 . S
H158 C137 0.934 . S
H159 C138 0.930 . S
Ho160 C163 2.811 . S
Ho160 O180 2.322 . S
Ho160 O182 2.378 . S
Ho160 O183 2.524 . S
Ho160 O184 2.381 . S
Ho160 O185 2.669 . S
Ho160 O187 2.346 . S
Ho160 O191 2.305 . S
Ho161 C172 2.811 . S
Ho161 O181 2.346 . S
Ho161 O185 2.305 . S
Ho161 O186 2.322 . S
Ho161 O188 2.378 . S
Ho161 O189 2.524 . S
Ho161 O190 2.381 . S
Ho161 O191 2.669 . S
C162 O180 1.259 . S
C162 O181 1.268 . S
C163 Ho160 2.811 . S
C163 C164 1.488 . S
C163 O182 1.215 . S
C163 O183 1.289 . S
C164 C163 1.488 . S
C164 C165 1.348 . S
C164 C169 1.413 . S
C165 C164 1.348 . S
C165 C166 1.442 . S
C165 H192 0.930 . S
C166 C165 1.442 . S
C166 C167 1.381 . S
C166 H193 0.931 . S
C167 C166 1.381 . S
C167 C168 1.321 . S
C168 C167 1.321 . S
C168 C169 1.403 . S
C168 H194 0.934 . S
C169 C164 1.413 . S
C169 C168 1.403 . S
C169 H195 0.930 . S
C170 O184 1.275 . S
C170 O185 1.256 . S
C171 O186 1.259 . S
C171 O187 1.268 . S
C172 Ho161 2.811 . S
C172 C173 1.488 . S
C172 O188 1.215 . S
C172 O189 1.289 . S
C173 C172 1.488 . S
C173 C174 1.348 . S
C173 C178 1.413 . S
C174 C173 1.348 . S
C174 C175 1.442 . S
C174 H196 0.930 . S
C175 C174 1.442 . S
C175 C176 1.381 . S
C175 H197 0.931 . S
C176 C175 1.381 . S
C176 C177 1.321 . S
C177 C176 1.321 . S
C177 C178 1.403 . S
C177 H198 0.934 . S
C178 C173 1.413 . S
C178 C177 1.403 . S
C178 H199 0.930 . S
C179 O190 1.275 . S
C179 O191 1.256 . S
O180 Ho160 2.322 . S
O180 C162 1.259 . S
O181 Ho161 2.346 . S
O181 C162 1.268 . S
O182 Ho160 2.378 . S
O182 C163 1.215 . S
O183 Ho160 2.524 . S
O183 C163 1.289 . S
O184 Ho160 2.381 . S
O184 C170 1.275 . S
O185 Ho160 2.669 . S
O185 Ho161 2.305 . S
O185 C170 1.256 . S
O186 Ho161 2.322 . S
O186 C171 1.259 . S
O187 Ho160 2.346 . S
O187 C171 1.268 . S
O188 Ho161 2.378 . S
O188 C172 1.215 . S
O189 Ho161 2.524 . S
O189 C172 1.289 . S
O190 Ho161 2.381 . S
O190 C179 1.275 . S
O191 Ho160 2.305 . S
O191 Ho161 2.669 . S
O191 C179 1.256 . S
H192 C165 0.930 . S
H193 C166 0.931 . S
H194 C168 0.934 . S
H195 C169 0.930 . S
H196 C174 0.930 . S
H197 C175 0.931 . S
H198 C177 0.934 . S
H199 C178 0.930 . S
Ho200 C203 2.811 . S
Ho200 O220 2.322 . S
Ho200 O222 2.378 . S
Ho200 O223 2.524 . S
Ho200 O224 2.381 . S
Ho200 O225 2.669 . S
Ho200 O227 2.346 . S
Ho200 O231 2.305 . S
Ho201 C212 2.811 . S
Ho201 O221 2.346 . S
Ho201 O225 2.305 . S
Ho201 O226 2.322 . S
Ho201 O228 2.378 . S
Ho201 O229 2.524 . S
Ho201 O230 2.381 . S
Ho201 O231 2.669 . S
C202 O220 1.259 . S
C202 O221 1.268 . S
C203 Ho200 2.811 . S
C203 C204 1.488 . S
C203 O222 1.215 . S
C203 O223 1.289 . S
C204 C203 1.488 . S
C204 C205 1.348 . S
C204 C209 1.413 . S
C205 C204 1.348 . S
C205 C206 1.442 . S
C205 H232 0.930 . S
C206 C205 1.442 . S
C206 C207 1.381 . S
C206 H233 0.931 . S
C207 C206 1.381 . S
C207 C208 1.321 . S
C208 C207 1.321 . S
C208 C209 1.403 . S
C208 H234 0.934 . S
C209 C204 1.413 . S
C209 C208 1.403 . S
C209 H235 0.930 . S
C210 O224 1.275 . S
C210 O225 1.256 . S
C211 O226 1.259 . S
C211 O227 1.268 . S
C212 Ho201 2.811 . S
C212 C213 1.488 . S
C212 O228 1.215 . S
C212 O229 1.289 . S
C213 C212 1.488 . S
C213 C214 1.348 . S
C213 C218 1.413 . S
C214 C213 1.348 . S
C214 C215 1.442 . S
C214 H236 0.930 . S
C215 C214 1.442 . S
C215 C216 1.381 . S
C215 H237 0.931 . S
C216 C215 1.381 . S
C216 C217 1.321 . S
C217 C216 1.321 . S
C217 C218 1.403 . S
C217 H238 0.934 . S
C218 C213 1.413 . S
C218 C217 1.403 . S
C218 H239 0.930 . S
C219 O230 1.275 . S
C219 O231 1.256 . S
O220 Ho200 2.322 . S
O220 C202 1.259 . S
O221 Ho201 2.346 . S
O221 C202 1.268 . S
O222 Ho200 2.378 . S
O222 C203 1.215 . S
O223 Ho200 2.524 . S
O223 C203 1.289 . S
O224 Ho200 2.381 . S
O224 C210 1.275 . S
O225 Ho200 2.669 . S
O225 Ho201 2.305 . S
O225 C210 1.256 . S
O226 Ho201 2.322 . S
O226 C211 1.259 . S
O227 Ho200 2.346 . S
O227 C211 1.268 . S
O228 Ho201 2.378 . S
O228 C212 1.215 . S
O229 Ho201 2.524 . S
O229 C212 1.289 . S
O230 Ho201 2.381 . S
O230 C219 1.275 . S
O231 Ho200 2.305 . S
O231 Ho201 2.669 . S
O231 C219 1.256 . S
H232 C205 0.930 . S
H233 C206 0.931 . S
H234 C208 0.934 . S
H235 C209 0.930 . S
H236 C214 0.930 . S
H237 C215 0.931 . S
H238 C217 0.934 . S
H239 C218 0.930 . S
Ho240 C243 2.811 . S
Ho240 O260 2.322 . S
Ho240 O262 2.378 . S
Ho240 O263 2.524 . S
Ho240 O264 2.381 . S
Ho240 O265 2.669 . S
Ho240 O267 2.346 . S
Ho240 O271 2.305 . S
Ho241 C252 2.811 . S
Ho241 O261 2.346 . S
Ho241 O265 2.305 . S
Ho241 O266 2.322 . S
Ho241 O268 2.378 . S
Ho241 O269 2.524 . S
Ho241 O270 2.381 . S
Ho241 O271 2.669 . S
C242 O260 1.259 . S
C242 O261 1.268 . S
C243 Ho240 2.811 . S
C243 C244 1.488 . S
C243 O262 1.215 . S
C243 O263 1.289 . S
C244 C243 1.488 . S
C244 C245 1.348 . S
C244 C249 1.413 . S
C245 C244 1.348 . S
C245 C246 1.442 . S
C245 H272 0.930 . S
C246 C245 1.442 . S
C246 C247 1.381 . S
C246 H273 0.931 . S
C247 C246 1.381 . S
C247 C248 1.321 . S
C248 C247 1.321 . S
C248 C249 1.403 . S
C248 H274 0.934 . S
C249 C244 1.413 . S
C249 C248 1.403 . S
C249 H275 0.930 . S
C250 O264 1.275 . S
C250 O265 1.256 . S
C251 O266 1.259 . S
C251 O267 1.268 . S
C252 Ho241 2.811 . S
C252 C253 1.488 1_556 S
C252 O268 1.215 . S
C252 O269 1.289 . S
C253 C252 1.488 1_554 S
C253 C254 1.348 . S
C253 C258 1.413 . S
C254 C253 1.348 . S
C254 C255 1.442 . S
C254 H276 0.930 . S
C255 C254 1.442 . S
C255 C256 1.381 . S
C255 H277 0.931 . S
C256 C255 1.381 . S
C256 C257 1.321 . S
C257 C256 1.321 . S
C257 C258 1.403 . S
C257 H278 0.934 . S
C258 C253 1.413 . S
C258 C257 1.403 . S
C258 H279 0.930 1_554 S
C259 O270 1.275 . S
C259 O271 1.256 . S
O260 Ho240 2.322 . S
O260 C242 1.259 . S
O261 Ho241 2.346 . S
O261 C242 1.268 . S
O262 Ho240 2.378 . S
O262 C243 1.215 . S
O263 Ho240 2.524 . S
O263 C243 1.289 . S
O264 Ho240 2.381 . S
O264 C250 1.275 . S
O265 Ho240 2.669 . S
O265 Ho241 2.305 . S
O265 C250 1.256 . S
O266 Ho241 2.322 . S
O266 C251 1.259 . S
O267 Ho240 2.346 . S
O267 C251 1.268 . S
O268 Ho241 2.378 . S
O268 C252 1.215 . S
O269 Ho241 2.524 . S
O269 C252 1.289 . S
O270 Ho241 2.381 . S
O270 C259 1.275 . S
O271 Ho240 2.305 . S
O271 Ho241 2.669 . S
O271 C259 1.256 . S
H272 C245 0.930 . S
H273 C246 0.931 . S
H274 C248 0.934 . S
H275 C249 0.930 . S
H276 C254 0.930 . S
H277 C255 0.931 . S
H278 C257 0.934 . S
H279 C258 0.930 1_556 S
Ho280 C283 2.811 . S
Ho280 O300 2.322 . S
Ho280 O302 2.378 . S
Ho280 O303 2.524 . S
Ho280 O304 2.381 . S
Ho280 O305 2.669 . S
Ho280 O307 2.346 . S
Ho280 O311 2.305 . S
Ho281 C292 2.811 . S
Ho281 O301 2.346 . S
Ho281 O305 2.305 . S
Ho281 O306 2.322 . S
Ho281 O308 2.378 . S
Ho281 O309 2.524 . S
Ho281 O310 2.381 . S
Ho281 O311 2.669 . S
C282 O300 1.259 . S
C282 O301 1.268 . S
C283 Ho280 2.811 . S
C283 C284 1.488 1_556 S
C283 O302 1.215 . S
C283 O303 1.289 . S
C284 C283 1.488 1_554 S
C284 C285 1.348 . S
C284 C289 1.413 . S
C285 C284 1.348 . S
C285 C286 1.442 . S
C285 H312 0.930 . S
C286 C285 1.442 . S
C286 C287 1.381 . S
C286 H313 0.931 . S
C287 C286 1.381 . S
C287 C288 1.321 . S
C288 C287 1.321 . S
C288 C289 1.403 . S
C288 H314 0.934 . S
C289 C284 1.413 . S
C289 C288 1.403 . S
C289 H315 0.930 1_554 S
C290 O304 1.275 . S
C290 O305 1.256 . S
C291 O306 1.259 . S
C291 O307 1.268 . S
C292 Ho281 2.811 . S
C292 C293 1.488 . S
C292 O308 1.215 . S
C292 O309 1.289 . S
C293 C292 1.488 . S
C293 C294 1.348 . S
C293 C298 1.413 . S
C294 C293 1.348 . S
C294 C295 1.442 . S
C294 H316 0.930 . S
C295 C294 1.442 . S
C295 C296 1.381 . S
C295 H317 0.931 . S
C296 C295 1.381 . S
C296 C297 1.321 . S
C297 C296 1.321 . S
C297 C298 1.403 . S
C297 H318 0.934 . S
C298 C293 1.413 . S
C298 C297 1.403 . S
C298 H319 0.930 . S
C299 O310 1.275 . S
C299 O311 1.256 . S
O300 Ho280 2.322 . S
O300 C282 1.259 . S
O301 Ho281 2.346 . S
O301 C282 1.268 . S
O302 Ho280 2.378 . S
O302 C283 1.215 . S
O303 Ho280 2.524 . S
O303 C283 1.289 . S
O304 Ho280 2.381 . S
O304 C290 1.275 . S
O305 Ho280 2.669 . S
O305 Ho281 2.305 . S
O305 C290 1.256 . S
O306 Ho281 2.322 . S
O306 C291 1.259 . S
O307 Ho280 2.346 . S
O307 C291 1.268 . S
O308 Ho281 2.378 . S
O308 C292 1.215 . S
O309 Ho281 2.524 . S
O309 C292 1.289 . S
O310 Ho281 2.381 . S
O310 C299 1.275 . S
O311 Ho280 2.305 . S
O311 Ho281 2.669 . S
O311 C299 1.256 . S
H312 C285 0.930 . S
H313 C286 0.931 . S
H314 C288 0.934 . S
H315 C289 0.930 1_556 S
H316 C294 0.930 . S
H317 C295 0.931 . S
H318 C297 0.934 . S
H319 C298 0.930 . S
Ho320 C323 2.811 . S
Ho320 O340 2.322 . S
Ho320 O342 2.378 . S
Ho320 O343 2.524 . S
Ho320 O344 2.381 . S
Ho320 O345 2.669 . S
Ho320 O347 2.346 . S
Ho320 O351 2.305 . S
Ho321 C332 2.811 . S
Ho321 O341 2.346 . S
Ho321 O345 2.305 . S
Ho321 O346 2.322 . S
Ho321 O348 2.378 . S
Ho321 O349 2.524 . S
Ho321 O350 2.381 . S
Ho321 O351 2.669 . S
C322 O340 1.259 . S
C322 O341 1.268 . S
C323 Ho320 2.811 . S
C323 C324 1.488 . S
C323 O342 1.215 . S
C323 O343 1.289 . S
C324 C323 1.488 . S
C324 C325 1.348 . S
C324 C329 1.413 . S
C325 C324 1.348 . S
C325 C326 1.442 . S
C325 H352 0.930 . S
C326 C325 1.442 . S
C326 C327 1.381 . S
C326 H353 0.931 . S
C327 C326 1.381 . S
C327 C328 1.321 . S
C328 C327 1.321 . S
C328 C329 1.403 . S
C328 H354 0.934 . S
C329 C324 1.413 . S
C329 C328 1.403 . S
C329 H355 0.930 . S
C330 O344 1.275 . S
C330 O345 1.256 . S
C331 O346 1.259 . S
C331 O347 1.268 . S
C332 Ho321 2.811 . S
C332 C333 1.488 1_556 S
C332 O348 1.215 . S
C332 O349 1.289 . S
C333 C332 1.488 1_554 S
C333 C334 1.348 . S
C333 C338 1.413 . S
C334 C333 1.348 . S
C334 C335 1.442 . S
C334 H356 0.930 . S
C335 C334 1.442 . S
C335 C336 1.381 . S
C335 H357 0.931 . S
C336 C335 1.381 . S
C336 C337 1.321 . S
C337 C336 1.321 . S
C337 C338 1.403 . S
C337 H358 0.934 . S
C338 C333 1.413 . S
C338 C337 1.403 . S
C338 H359 0.930 . S
C339 O350 1.275 . S
C339 O351 1.256 . S
O340 Ho320 2.322 . S
O340 C322 1.259 . S
O341 Ho321 2.346 . S
O341 C322 1.268 . S
O342 Ho320 2.378 . S
O342 C323 1.215 . S
O343 Ho320 2.524 . S
O343 C323 1.289 . S
O344 Ho320 2.381 . S
O344 C330 1.275 . S
O345 Ho320 2.669 . S
O345 Ho321 2.305 . S
O345 C330 1.256 . S
O346 Ho321 2.322 . S
O346 C331 1.259 . S
O347 Ho320 2.346 . S
O347 C331 1.268 . S
O348 Ho321 2.378 . S
O348 C332 1.215 . S
O349 Ho321 2.524 . S
O349 C332 1.289 . S
O350 Ho321 2.381 . S
O350 C339 1.275 . S
O351 Ho320 2.305 . S
O351 Ho321 2.669 . S
O351 C339 1.256 . S
H352 C325 0.930 . S
H353 C326 0.931 . S
H354 C328 0.934 . S
H355 C329 0.930 . S
H356 C334 0.930 . S
H357 C335 0.931 . S
H358 C337 0.934 . S
H359 C338 0.930 . S
H360 C366 0.930 . S
H361 C370 0.930 . S
H362 C375 0.929 . S
H363 C373 0.929 . S
H364 C368 0.929 . S
H365 C374 0.929 . S
C366 H360 0.930 . S
C366 C367 1.367 . S
C366 C374 1.378 . S
C367 C366 1.367 . S
C367 C375 1.433 . S
C368 H364 0.929 . S
C368 C370 1.378 . S
C368 C372 1.350 . S
C369 C372 1.463 . S
C369 C374 1.350 . S
C369 N377 1.427 . S
C370 H361 0.930 . S
C370 C368 1.378 . S
C370 C371 1.367 . S
C371 C370 1.367 . S
C371 C373 1.433 . S
C372 C368 1.350 . S
C372 C369 1.463 . S
C372 N376 1.427 . S
C373 H363 0.929 . S
C373 C371 1.433 . S
C373 N376 1.384 . S
C374 H365 0.929 . S
C374 C366 1.378 . S
C374 C369 1.350 . S
C375 H362 0.929 . S
C375 C367 1.433 . S
C375 N377 1.384 . S
N376 C372 1.427 . S
N376 C373 1.384 . S
N377 C369 1.427 . S
N377 C375 1.384 . S
H378 C384 0.930 . S
H379 C388 0.930 . S
H380 C393 0.929 . S
H381 C391 0.929 . S
H382 C386 0.929 . S
H383 C392 0.929 . S
C384 H378 0.930 . S
C384 C385 1.367 . S
C384 C392 1.378 . S
C385 C384 1.367 . S
C385 C393 1.433 . S
C386 H382 0.929 . S
C386 C388 1.378 . S
C386 C390 1.350 . S
C387 C390 1.463 . S
C387 C392 1.350 . S
C387 N395 1.427 . S
C388 H379 0.930 . S
C388 C386 1.378 . S
C388 C389 1.367 . S
C389 C388 1.367 . S
C389 C391 1.433 . S
C390 C386 1.350 . S
C390 C387 1.463 . S
C390 N394 1.427 . S
C391 H381 0.929 . S
C391 C389 1.433 . S
C391 N394 1.384 . S
C392 H383 0.929 . S
C392 C384 1.378 . S
C392 C387 1.350 . S
C393 H380 0.929 . S
C393 C385 1.433 . S
C393 N395 1.384 . S
N394 C390 1.427 . S
N394 C391 1.384 . S
N395 C387 1.427 . S
N395 C393 1.384 . S
H396 C402 0.930 . S
H397 C406 0.930 . S
H398 C411 0.929 . S
H399 C409 0.929 . S
H400 C404 0.929 . S
H401 C410 0.929 . S
C402 H396 0.930 . S
C402 C403 1.367 . S
C402 C410 1.378 . S
C403 C402 1.367 . S
C403 C411 1.433 . S
C404 H400 0.929 . S
C404 C406 1.378 . S
C404 C408 1.350 . S
C405 C408 1.463 . S
C405 C410 1.350 . S
C405 N413 1.427 . S
C406 H397 0.930 . S
C406 C404 1.378 . S
C406 C407 1.367 . S
C407 C406 1.367 . S
C407 C409 1.433 . S
C408 C404 1.350 . S
C408 C405 1.463 . S
C408 N412 1.427 . S
C409 H399 0.929 . S
C409 C407 1.433 . S
C409 N412 1.384 . S
C410 H401 0.929 . S
C410 C402 1.378 . S
C410 C405 1.350 . S
C411 H398 0.929 . S
C411 C403 1.433 . S
C411 N413 1.384 . S
N412 C408 1.427 . S
N412 C409 1.384 . S
N413 C405 1.427 . S
N413 C411 1.384 . S
H414 C420 0.930 . S
H415 C424 0.930 1_554 S
H416 C429 0.929 . S
H417 C427 0.929 . S
H418 C422 0.929 . S
H419 C428 0.929 . S
C420 H414 0.930 . S
C420 C421 1.367 . S
C420 C428 1.378 . S
C421 C420 1.367 . S
C421 C429 1.433 . S
C422 H418 0.929 . S
C422 C424 1.378 . S
C422 C426 1.350 . S
C423 C426 1.463 . S
C423 C428 1.350 . S
C423 N431 1.427 . S
C424 H415 0.930 1_556 S
C424 C422 1.378 . S
C424 C425 1.367 1_556 S
C425 C424 1.367 1_554 S
C425 C427 1.433 1_554 S
C426 C422 1.350 . S
C426 C423 1.463 . S
C426 N430 1.427 . S
C427 H417 0.929 . S
C427 C425 1.433 1_556 S
C427 N430 1.384 . S
C428 H419 0.929 . S
C428 C420 1.378 . S
C428 C423 1.350 . S
C429 H416 0.929 . S
C429 C421 1.433 . S
C429 N431 1.384 . S
N430 C426 1.427 . S
N430 C427 1.384 . S
N431 C423 1.427 . S
N431 C429 1.384 . S
H432 C438 0.930 . S
H433 C442 0.930 . S
H434 C447 0.929 . S
H435 C445 0.929 . S
H436 C440 0.929 . S
H437 C446 0.929 . S
C438 H432 0.930 . S
C438 C439 1.367 . S
C438 C446 1.378 . S
C439 C438 1.367 . S
C439 C447 1.433 . S
C440 H436 0.929 . S
C440 C442 1.378 . S
C440 C444 1.350 . S
C441 C444 1.463 . S
C441 C446 1.350 . S
C441 N449 1.427 . S
C442 H433 0.930 . S
C442 C440 1.378 . S
C442 C443 1.367 . S
C443 C442 1.367 . S
C443 C445 1.433 . S
C444 C440 1.350 . S
C444 C441 1.463 . S
C444 N448 1.427 . S
C445 H435 0.929 . S
C445 C443 1.433 . S
C445 N448 1.384 . S
C446 H437 0.929 . S
C446 C438 1.378 . S
C446 C441 1.350 . S
C447 H434 0.929 . S
C447 C439 1.433 . S
C447 N449 1.384 . S
N448 C444 1.427 . S
N448 C445 1.384 . S
N449 C441 1.427 . S
N449 C447 1.384 . S
H450 C456 0.930 . S
H451 C460 0.930 . S
H452 C465 0.929 . S
H453 C463 0.929 . S
H454 C458 0.929 . S
H455 C464 0.929 . S
C456 H450 0.930 . S
C456 C457 1.367 . S
C456 C464 1.378 . S
C457 C456 1.367 . S
C457 C465 1.433 . S
C458 H454 0.929 . S
C458 C460 1.378 . S
C458 C462 1.350 . S
C459 C462 1.463 . S
C459 C464 1.350 . S
C459 N467 1.427 . S
C460 H451 0.930 . S
C460 C458 1.378 . S
C460 C461 1.367 . S
C461 C460 1.367 . S
C461 C463 1.433 . S
C462 C458 1.350 . S
C462 C459 1.463 . S
C462 N466 1.427 . S
C463 H453 0.929 . S
C463 C461 1.433 . S
C463 N466 1.384 . S
C464 H455 0.929 . S
C464 C456 1.378 . S
C464 C459 1.350 . S
C465 H452 0.929 . S
C465 C457 1.433 . S
C465 N467 1.384 . S
N466 C462 1.427 . S
N466 C463 1.384 . S
N467 C459 1.427 . S
N467 C465 1.384 . S
H468 C474 0.930 . S
H469 C478 0.930 . S
H470 C483 0.929 . S
H471 C481 0.929 . S
H472 C476 0.929 . S
H473 C482 0.929 . S
C474 H468 0.930 . S
C474 C475 1.367 . S
C474 C482 1.378 . S
C475 C474 1.367 . S
C475 C483 1.433 . S
C476 H472 0.929 . S
C476 C478 1.378 . S
C476 C480 1.350 . S
C477 C480 1.463 . S
C477 C482 1.350 . S
C477 N485 1.427 . S
C478 H469 0.930 . S
C478 C476 1.378 . S
C478 C479 1.367 . S
C479 C478 1.367 . S
C479 C481 1.433 . S
C480 C476 1.350 . S
C480 C477 1.463 . S
C480 N484 1.427 . S
C481 H471 0.929 . S
C481 C479 1.433 . S
C481 N484 1.384 . S
C482 H473 0.929 . S
C482 C474 1.378 . S
C482 C477 1.350 . S
C483 H470 0.929 . S
C483 C475 1.433 . S
C483 N485 1.384 . S
N484 C480 1.427 . S
N484 C481 1.384 . S
N485 C477 1.427 . S
N485 C483 1.384 . S
H486 C492 0.930 . S
H487 C496 0.930 . S
H488 C501 0.929 . S
H489 C499 0.929 . S
H490 C494 0.929 . S
H491 C500 0.929 . S
C492 H486 0.930 . S
C492 C493 1.367 . S
C492 C500 1.378 . S
C493 C492 1.367 . S
C493 C501 1.433 . S
C494 H490 0.929 . S
C494 C496 1.378 . S
C494 C498 1.350 . S
C495 C498 1.463 . S
C495 C500 1.350 . S
C495 N503 1.427 . S
C496 H487 0.930 . S
C496 C494 1.378 . S
C496 C497 1.367 . S
C497 C496 1.367 . S
C497 C499 1.433 . S
C498 C494 1.350 . S
C498 C495 1.463 . S
C498 N502 1.427 . S
C499 H489 0.929 . S
C499 C497 1.433 . S
C499 N502 1.384 . S
C500 H491 0.929 . S
C500 C492 1.378 . S
C500 C495 1.350 . S
C501 H488 0.929 . S
C501 C493 1.433 . S
C501 N503 1.384 . S
N502 C498 1.427 . S
N502 C499 1.384 . S
N503 C495 1.427 . S
N503 C501 1.384 . S
H504 C510 0.930 . S
H505 C514 0.930 . S
H506 C519 0.929 . S
H507 C517 0.929 . S
H508 C512 0.929 . S
H509 C518 0.929 . S
C510 H504 0.930 . S
C510 C511 1.367 . S
C510 C518 1.378 . S
C511 C510 1.367 . S
C511 C519 1.433 . S
C512 H508 0.929 . S
C512 C514 1.378 . S
C512 C516 1.350 . S
C513 C516 1.463 . S
C513 C518 1.350 . S
C513 N521 1.427 . S
C514 H505 0.930 . S
C514 C512 1.378 . S
C514 C515 1.367 . S
C515 C514 1.367 . S
C515 C517 1.433 . S
C516 C512 1.350 . S
C516 C513 1.463 . S
C516 N520 1.427 . S
C517 H507 0.929 . S
C517 C515 1.433 . S
C517 N520 1.384 . S
C518 H509 0.929 . S
C518 C510 1.378 . S
C518 C513 1.350 . S
C519 H506 0.929 . S
C519 C511 1.433 . S
C519 N521 1.384 . S
N520 C516 1.427 . S
N520 C517 1.384 . S
N521 C513 1.427 . S
N521 C519 1.384 . S
H522 C528 0.930 . S
H523 C532 0.930 . S
H524 C537 0.929 . S
H525 C535 0.929 . S
H526 C530 0.929 . S
H527 C536 0.929 . S
C528 H522 0.930 . S
C528 C529 1.367 . S
C528 C536 1.378 . S
C529 C528 1.367 . S
C529 C537 1.433 . S
C530 H526 0.929 . S
C530 C532 1.378 . S
C530 C534 1.350 . S
C531 C534 1.463 . S
C531 C536 1.350 . S
C531 N539 1.427 . S
C532 H523 0.930 . S
C532 C530 1.378 . S
C532 C533 1.367 . S
C533 C532 1.367 . S
C533 C535 1.433 . S
C534 C530 1.350 . S
C534 C531 1.463 . S
C534 N538 1.427 . S
C535 H525 0.929 . S
C535 C533 1.433 . S
C535 N538 1.384 . S
C536 H527 0.929 . S
C536 C528 1.378 . S
C536 C531 1.350 . S
C537 H524 0.929 . S
C537 C529 1.433 . S
C537 N539 1.384 . S
N538 C534 1.427 . S
N538 C535 1.384 . S
N539 C531 1.427 . S
N539 C537 1.384 . S
H540 C546 0.930 . S
H541 C550 0.930 . S
H542 C555 0.929 . S
H543 C553 0.929 . S
H544 C548 0.929 . S
H545 C554 0.929 . S
C546 H540 0.930 . S
C546 C547 1.367 . S
C546 C554 1.378 . S
C547 C546 1.367 . S
C547 C555 1.433 . S
C548 H544 0.929 . S
C548 C550 1.378 . S
C548 C552 1.350 . S
C549 C552 1.463 . S
C549 C554 1.350 . S
C549 N557 1.427 . S
C550 H541 0.930 . S
C550 C548 1.378 . S
C550 C551 1.367 . S
C551 C550 1.367 . S
C551 C553 1.433 . S
C552 C548 1.350 . S
C552 C549 1.463 . S
C552 N556 1.427 . S
C553 H543 0.929 . S
C553 C551 1.433 . S
C553 N556 1.384 . S
C554 H545 0.929 . S
C554 C546 1.378 . S
C554 C549 1.350 . S
C555 H542 0.929 . S
C555 C547 1.433 . S
C555 N557 1.384 . S
N556 C552 1.427 . S
N556 C553 1.384 . S
N557 C549 1.427 . S
N557 C555 1.384 . S
H558 C564 0.930 . S
H559 C568 0.930 . S
H560 C573 0.929 . S
H561 C571 0.929 . S
H562 C566 0.929 . S
H563 C572 0.929 . S
C564 H558 0.930 . S
C564 C565 1.367 . S
C564 C572 1.378 . S
C565 C564 1.367 . S
C565 C573 1.433 1_545 S
C566 H562 0.929 . S
C566 C568 1.378 . S
C566 C570 1.350 . S
C567 C570 1.463 . S
C567 C572 1.350 1_565 S
C567 N575 1.427 . S
C568 H559 0.930 . S
C568 C566 1.378 . S
C568 C569 1.367 . S
C569 C568 1.367 . S
C569 C571 1.433 . S
C570 C566 1.350 . S
C570 C567 1.463 . S
C570 N574 1.427 . S
C571 H561 0.929 . S
C571 C569 1.433 . S
C571 N574 1.384 . S
C572 H563 0.929 . S
C572 C564 1.378 . S
C572 C567 1.350 1_545 S
C573 H560 0.929 . S
C573 C565 1.433 1_565 S
C573 N575 1.384 . S
N574 C570 1.427 . S
N574 C571 1.384 . S
N575 C567 1.427 . S
N575 C573 1.384 . S
H576 C582 0.930 . S
H577 C586 0.930 . S
H578 C591 0.929 . S
H579 C589 0.929 . S
H580 C584 0.929 1_554 S
H581 C590 0.929 . S
C582 H576 0.930 . S
C582 C583 1.367 . S
C582 C590 1.378 1_554 S
C583 C582 1.367 . S
C583 C591 1.433 . S
C584 H580 0.929 1_556 S
C584 C586 1.378 . S
C584 C588 1.350 . S
C585 C588 1.463 . S
C585 C590 1.350 . S
C585 N593 1.427 1_556 S
C586 H577 0.930 . S
C586 C584 1.378 . S
C586 C587 1.367 . S
C587 C586 1.367 . S
C587 C589 1.433 . S
C588 C584 1.350 . S
C588 C585 1.463 . S
C588 N592 1.427 . S
C589 H579 0.929 . S
C589 C587 1.433 . S
C589 N592 1.384 . S
C590 H581 0.929 . S
C590 C582 1.378 1_556 S
C590 C585 1.350 . S
C591 H578 0.929 . S
C591 C583 1.433 . S
C591 N593 1.384 . S
N592 C588 1.427 . S
N592 C589 1.384 . S
N593 C585 1.427 1_554 S
N593 C591 1.384 . S
H594 C600 0.930 . S
H595 C604 0.930 . S
H596 C609 0.929 . S
H597 C607 0.929 . S
H598 C602 0.929 . S
H599 C608 0.929 . S
C600 H594 0.930 . S
C600 C601 1.367 . S
C600 C608 1.378 . S
C601 C600 1.367 . S
C601 C609 1.433 . S
C602 H598 0.929 . S
C602 C604 1.378 1_556 S
C602 C606 1.350 1_455 S
C603 C606 1.463 . S
C603 C608 1.350 . S
C603 N611 1.427 . S
C604 H595 0.930 . S
C604 C602 1.378 1_554 S
C604 C605 1.367 . S
C605 C604 1.367 . S
C605 C607 1.433 1_454 S
C606 C602 1.350 1_655 S
C606 C603 1.463 . S
C606 N610 1.427 . S
C607 H597 0.929 . S
C607 C605 1.433 1_656 S
C607 N610 1.384 . S
C608 H599 0.929 . S
C608 C600 1.378 . S
C608 C603 1.350 . S
C609 H596 0.929 . S
C609 C601 1.433 . S
C609 N611 1.384 . S
N610 C606 1.427 . S
N610 C607 1.384 . S
N611 C603 1.427 . S
N611 C609 1.384 . S
H612 C618 0.930 . S
H613 C622 0.930 . S
H614 C627 0.929 . S
H615 C625 0.929 . S
H616 C620 0.929 1_556 S
H617 C626 0.929 . S
C618 H612 0.930 . S
C618 C619 1.367 . S
C618 C626 1.378 . S
C619 C618 1.367 . S
C619 C627 1.433 . S
C620 H616 0.929 1_554 S
C620 C622 1.378 . S
C620 C624 1.350 1_554 S
C621 C624 1.463 . S
C621 C626 1.350 . S
C621 N629 1.427 . S
C622 H613 0.930 . S
C622 C620 1.378 . S
C622 C623 1.367 . S
C623 C622 1.367 . S
C623 C625 1.433 . S
C624 C620 1.350 1_556 S
C624 C621 1.463 . S
C624 N628 1.427 1_556 S
C625 H615 0.929 . S
C625 C623 1.433 . S
C625 N628 1.384 . S
C626 H617 0.929 . S
C626 C618 1.378 . S
C626 C621 1.350 . S
C627 H614 0.929 . S
C627 C619 1.433 . S
C627 N629 1.384 . S
N628 C624 1.427 1_554 S
N628 C625 1.384 . S
N629 C621 1.427 . S
N629 C627 1.384 . S
H630 C636 0.930 . S
H631 C640 0.930 . S
H632 C645 0.929 . S
H633 C643 0.929 1_455 S
H634 C638 0.929 . S
H635 C644 0.929 . S
C636 H630 0.930 . S
C636 C637 1.367 . S
C636 C644 1.378 . S
C637 C636 1.367 . S
C637 C645 1.433 . S
C638 H634 0.929 . S
C638 C640 1.378 . S
C638 C642 1.350 . S
C639 C642 1.463 . S
C639 C644 1.350 . S
C639 N647 1.427 . S
C640 H631 0.930 . S
C640 C638 1.378 . S
C640 C641 1.367 . S
C641 C640 1.367 . S
C641 C643 1.433 . S
C642 C638 1.350 . S
C642 C639 1.463 . S
C642 N646 1.427 . S
C643 H633 0.929 1_655 S
C643 C641 1.433 . S
C643 N646 1.384 . S
C644 H635 0.929 . S
C644 C636 1.378 . S
C644 C639 1.350 . S
C645 H632 0.929 . S
C645 C637 1.433 . S
C645 N647 1.384 . S
N646 C642 1.427 . S
N646 C643 1.384 . S
N647 C639 1.427 . S
N647 C645 1.384 . S
H648 C654 0.930 . S
H649 C658 0.930 . S
H650 C663 0.929 . S
H651 C661 0.929 . S
H652 C656 0.929 . S
H653 C662 0.929 . S
C654 H648 0.930 . S
C654 C655 1.367 1_556 S
C654 C662 1.378 . S
C655 C654 1.367 1_554 S
C655 C663 1.433 . S
C656 H652 0.929 . S
C656 C658 1.378 . S
C656 C660 1.350 . S
C657 C660 1.463 . S
C657 C662 1.350 . S
C657 N665 1.427 1_556 S
C658 H649 0.930 . S
C658 C656 1.378 . S
C658 C659 1.367 . S
C659 C658 1.367 . S
C659 C661 1.433 . S
C660 C656 1.350 . S
C660 C657 1.463 . S
C660 N664 1.427 . S
C661 H651 0.929 . S
C661 C659 1.433 . S
C661 N664 1.384 . S
C662 H653 0.929 . S
C662 C654 1.378 . S
C662 C657 1.350 . S
C663 H650 0.929 . S
C663 C655 1.433 . S
C663 N665 1.384 . S
N664 C660 1.427 . S
N664 C661 1.384 . S
N665 C657 1.427 1_554 S
N665 C663 1.384 . S
H666 C672 0.930 . S
H667 C676 0.930 . S
H668 C681 0.929 . S
H669 C679 0.929 . S
H670 C674 0.926 1_556 S
H671 C680 0.929 . S
C672 H666 0.930 . S
C672 C673 1.367 . S
C672 C680 1.378 . S
C673 C672 1.367 . S
C673 C681 1.433 . S
C674 H670 0.926 1_554 S
C674 C676 1.382 . S
C674 C678 1.349 . S
C675 C678 1.463 1_556 S
C675 C680 1.350 . S
C675 N683 1.427 . S
C676 H667 0.930 . S
C676 C674 1.382 . S
C676 C677 1.367 . S
C677 C676 1.367 . S
C677 C679 1.433 . S
C678 C674 1.349 . S
C678 C675 1.463 1_554 S
C678 N682 1.427 . S
C679 H669 0.929 . S
C679 C677 1.433 . S
C679 N682 1.384 . S
C680 H671 0.929 . S
C680 C672 1.378 . S
C680 C675 1.350 . S
C681 H668 0.929 . S
C681 C673 1.433 . S
C681 N683 1.384 . S
N682 C678 1.427 . S
N682 C679 1.384 . S
N683 C675 1.427 . S
N683 C681 1.384 . S
H684 C690 0.930 . S
H685 C694 0.930 . S
H686 C699 0.929 . S
H687 C697 0.929 . S
H688 C692 0.928 . S
H689 C698 0.929 . S
C690 H684 0.930 . S
C690 C691 1.367 . S
C690 C698 1.378 . S
C691 C690 1.367 . S
C691 C699 1.433 . S
C692 H688 0.928 . S
C692 C694 1.380 . S
C692 C696 1.348 1_565 S
C693 C696 1.463 . S
C693 C698 1.350 . S
C693 N701 1.427 . S
C694 H685 0.930 . S
C694 C692 1.380 . S
C694 C695 1.367 . S
C695 C694 1.367 . S
C695 C697 1.433 1_565 S
C696 C692 1.348 1_545 S
C696 C693 1.463 . S
C696 N700 1.427 . S
C697 H687 0.929 . S
C697 C695 1.433 1_545 S
C697 N700 1.384 . S
C698 H689 0.929 . S
C698 C690 1.378 . S
C698 C693 1.350 . S
C699 H686 0.929 . S
C699 C691 1.433 . S
C699 N701 1.384 . S
N700 C696 1.427 . S
N700 C697 1.384 . S
N701 C693 1.427 . S
N701 C699 1.384 . S
H702 C708 0.930 . S
H703 C712 0.930 . S
H704 C717 0.929 . S
H705 C715 0.929 . S
H706 C710 0.929 . S
H707 C716 0.929 . S
C708 H702 0.930 . S
C708 C709 1.367 . S
C708 C716 1.378 . S
C709 C708 1.367 . S
C709 C717 1.433 . S
C710 H706 0.929 . S
C710 C712 1.378 . S
C710 C714 1.350 . S
C711 C714 1.463 . S
C711 C716 1.350 . S
C711 N719 1.427 . S
C712 H703 0.930 . S
C712 C710 1.378 . S
C712 C713 1.367 . S
C713 C712 1.367 . S
C713 C715 1.433 . S
C714 C710 1.350 . S
C714 C711 1.463 . S
C714 N718 1.427 . S
C715 H705 0.929 . S
C715 C713 1.433 . S
C715 N718 1.384 . S
C716 H707 0.929 . S
C716 C708 1.378 . S
C716 C711 1.350 . S
C717 H704 0.929 . S
C717 C709 1.433 . S
C717 N719 1.384 . S
N718 C714 1.427 . S
N718 C715 1.384 . S
N719 C711 1.427 . S
N719 C717 1.384 . S
H720 C726 0.930 . S
H721 C730 0.930 . S
H722 C735 0.929 . S
H723 C733 0.929 . S
H724 C728 0.929 . S
H725 C734 0.929 . S
C726 H720 0.930 . S
C726 C727 1.367 . S
C726 C734 1.378 . S
C727 C726 1.367 . S
C727 C735 1.433 . S
C728 H724 0.929 . S
C728 C730 1.378 . S
C728 C732 1.350 . S
C729 C732 1.463 . S
C729 C734 1.350 . S
C729 N737 1.427 . S
C730 H721 0.930 . S
C730 C728 1.378 . S
C730 C731 1.367 . S
C731 C730 1.367 . S
C731 C733 1.433 . S
C732 C728 1.350 . S
C732 C729 1.463 . S
C732 N736 1.427 . S
C733 H723 0.929 . S
C733 C731 1.433 . S
C733 N736 1.384 . S
C734 H725 0.929 . S
C734 C726 1.378 . S
C734 C729 1.350 . S
C735 H722 0.929 . S
C735 C727 1.433 . S
C735 N737 1.384 . S
N736 C732 1.427 . S
N736 C733 1.384 . S
N737 C729 1.427 . S
N737 C735 1.384 . S
H738 C744 0.930 . S
H739 C748 0.930 . S
H740 C753 0.929 . S
H741 C751 0.929 . S
H742 C746 0.929 . S
H743 C752 0.929 . S
C744 H738 0.930 . S
C744 C745 1.367 . S
C744 C752 1.378 . S
C745 C744 1.367 . S
C745 C753 1.433 . S
C746 H742 0.929 . S
C746 C748 1.378 . S
C746 C750 1.350 . S
C747 C750 1.463 . S
C747 C752 1.350 . S
C747 N755 1.427 . S
C748 H739 0.930 . S
C748 C746 1.378 . S
C748 C749 1.367 . S
C749 C748 1.367 . S
C749 C751 1.433 . S
C750 C746 1.350 . S
C750 C747 1.463 . S
C750 N754 1.427 . S
C751 H741 0.929 . S
C751 C749 1.433 . S
C751 N754 1.384 . S
C752 H743 0.929 . S
C752 C744 1.378 . S
C752 C747 1.350 . S
C753 H740 0.929 . S
C753 C745 1.433 . S
C753 N755 1.384 . S
N754 C750 1.427 . S
N754 C751 1.384 . S
N755 C747 1.427 . S
N755 C753 1.384 . S
H756 C762 0.930 . S
H757 C766 0.930 . S
H758 C771 0.929 . S
H759 C769 0.929 . S
H760 C764 0.929 . S
H761 C770 0.929 . S
C762 H756 0.930 . S
C762 C763 1.367 . S
C762 C770 1.378 . S
C763 C762 1.367 . S
C763 C771 1.433 . S
C764 H760 0.929 . S
C764 C766 1.378 . S
C764 C768 1.350 . S
C765 C768 1.463 1_545 S
C765 C770 1.350 . S
C765 N773 1.427 . S
C766 H757 0.930 . S
C766 C764 1.378 . S
C766 C767 1.367 . S
C767 C766 1.367 . S
C767 C769 1.433 . S
C768 C764 1.350 . S
C768 C765 1.463 1_565 S
C768 N772 1.427 . S
C769 H759 0.929 . S
C769 C767 1.433 . S
C769 N772 1.384 . S
C770 H761 0.929 . S
C770 C762 1.378 . S
C770 C765 1.350 . S
C771 H758 0.929 . S
C771 C763 1.433 . S
C771 N773 1.384 . S
N772 C768 1.427 . S
N772 C769 1.384 . S
N773 C765 1.427 . S
N773 C771 1.384 . S
H774 C780 0.930 . S
H775 C784 0.930 . S
H776 C789 0.922 . S
H777 C787 0.929 . S
H778 C782 0.929 . S
H779 C788 0.929 . S
C780 H774 0.930 . S
C780 C781 1.367 . S
C780 C788 1.378 . S
C781 C780 1.367 . S
C781 C789 1.433 . S
C782 H778 0.929 . S
C782 C784 1.378 . S
C782 C786 1.350 . S
C783 C786 1.463 1_655 S
C783 C788 1.350 . S
C783 N791 1.427 1_655 S
C784 H775 0.930 . S
C784 C782 1.378 . S
C784 C785 1.367 . S
C785 C784 1.367 . S
C785 C787 1.433 . S
C786 C782 1.350 . S
C786 C783 1.463 1_455 S
C786 N790 1.427 . S
C787 H777 0.929 . S
C787 C785 1.433 . S
C787 N790 1.384 . S
C788 H779 0.929 . S
C788 C780 1.378 . S
C788 C783 1.350 . S
C789 H776 0.922 . S
C789 C781 1.433 . S
C789 N791 1.384 1_655 S
N790 C786 1.427 . S
N790 C787 1.384 . S
N791 C783 1.427 1_455 S
N791 C789 1.384 1_455 S
H792 C798 0.930 . S
H793 C802 0.930 . S
H794 C807 0.929 . S
H795 C805 0.929 . S
H796 C800 0.929 . S
H797 C806 0.929 . S
C798 H792 0.930 . S
C798 C799 1.367 . S
C798 C806 1.378 . S
C799 C798 1.367 . S
C799 C807 1.433 . S
C800 H796 0.929 . S
C800 C802 1.378 . S
C800 C804 1.350 . S
C801 C804 1.463 . S
C801 C806 1.350 . S
C801 N809 1.427 . S
C802 H793 0.930 . S
C802 C800 1.378 . S
C802 C803 1.367 . S
C803 C802 1.367 . S
C803 C805 1.433 . S
C804 C800 1.350 . S
C804 C801 1.463 . S
C804 N808 1.427 . S
C805 H795 0.929 . S
C805 C803 1.433 . S
C805 N808 1.384 . S
C806 H797 0.929 . S
C806 C798 1.378 . S
C806 C801 1.350 . S
C807 H794 0.929 . S
C807 C799 1.433 . S
C807 N809 1.384 . S
N808 C804 1.427 . S
N808 C805 1.384 . S
N809 C801 1.427 . S
N809 C807 1.384 . S
H810 C816 0.930 . S
H811 C820 0.930 . S
H812 C825 0.929 . S
H813 C823 0.929 . S
H814 C818 0.929 . S
H815 C824 0.930 . S
C816 H810 0.930 . S
C816 C817 1.367 . S
C816 C824 1.377 1_565 S
C817 C816 1.367 . S
C817 C825 1.433 . S
C818 H814 0.929 . S
C818 C820 1.378 . S
C818 C822 1.350 . S
C819 C822 1.463 . S
C819 C824 1.349 . S
C819 N827 1.427 1_545 S
C820 H811 0.930 . S
C820 C818 1.378 . S
C820 C821 1.367 . S
C821 C820 1.367 . S
C821 C823 1.433 . S
C822 C818 1.350 . S
C822 C819 1.463 . S
C822 N826 1.427 . S
C823 H813 0.929 . S
C823 C821 1.433 . S
C823 N826 1.384 . S
C824 H815 0.930 . S
C824 C816 1.377 1_545 S
C824 C819 1.349 . S
C825 H812 0.929 . S
C825 C817 1.433 . S
C825 N827 1.384 . S
N826 C822 1.427 . S
N826 C823 1.384 . S
N827 C819 1.427 1_565 S
N827 C825 1.384 . S
H828 C834 0.930 . S
H829 C838 0.930 . S
H830 C843 0.929 . S
H831 C841 0.929 . S
H832 C836 0.929 . S
H833 C842 0.929 . S
C834 H828 0.930 . S
C834 C835 1.367 . S
C834 C842 1.378 . S
C835 C834 1.367 . S
C835 C843 1.433 . S
C836 H832 0.929 . S
C836 C838 1.378 . S
C836 C840 1.350 . S
C837 C840 1.463 1_655 S
C837 C842 1.350 . S
C837 N845 1.427 1_655 S
C838 H829 0.930 . S
C838 C836 1.378 . S
C838 C839 1.367 . S
C839 C838 1.367 . S
C839 C841 1.433 . S
C840 C836 1.350 . S
C840 C837 1.463 1_455 S
C840 N844 1.429 1_455 S
C841 H831 0.929 . S
C841 C839 1.433 . S
C841 N844 1.375 1_455 S
C842 H833 0.929 . S
C842 C834 1.378 . S
C842 C837 1.350 . S
C843 H830 0.929 . S
C843 C835 1.433 . S
C843 N845 1.384 1_655 S
N844 C840 1.429 1_655 S
N844 C841 1.375 1_655 S
N845 C837 1.427 1_455 S
N845 C843 1.384 1_455 S
C367 C10 3.370 . S
C371 C19 3.370 . S
C385 C59 3.444 . S
C389 C50 3.444 . S
C403 C90 3.481 1_556 S
C407 C99 3.481 . S
C421 C139 3.366 . S
C425 C130 3.366 . S
C439 C170 3.443 . S
C443 C179 3.443 1_556 S
C457 C219 3.482 . S
C461 C210 3.482 1_556 S
C475 C247 2.467 . S
C479 C256 2.467 . S
C493 C296 2.777 . S
C497 C287 2.777 . S
C511 C327 1.869 . S
C515 C336 1.869 . S
C529 C202 1.754 . S
C533 C7 1.784 . S
C547 C42 2.765 . S
C551 C122 2.790 . S
C565 C87 1.237 . S
C569 C167 1.244 . S
C583 C82 2.957 . S
C587 C251 3.115 . S
C601 C299 1.171 . S
C605 C2 1.133 . S
C619 C331 1.952 . S
C623 C47 1.842 . S
C637 C330 0.840 . S
C641 C16 0.824 1_556 S
C655 C51 2.176 . S
C659 C250 2.250 . S
C673 C282 2.915 . S
C677 C96 2.740 . S
C691 C91 1.755 . S
C695 C136 1.783 . S
C709 C171 2.764 . S
C713 C11 2.787 . S
C727 C56 1.246 . S
C731 C216 1.240 . S
C745 C339 0.839 . S
C749 C127 0.839 . S
C763 C259 2.253 . S
C767 C162 2.177 . S
C781 C291 2.916 . S
C785 C207 2.741 . S
C799 C242 3.113 . S
C803 C211 2.964 . S
C817 C131 1.134 . S
C821 C290 1.169 . S
C835 C322 1.951 . S
C839 C176 1.835 . S
