# Generated by pormake.
# Topology wiu, (6)-cn, num edge types: 1
# Building blocks:
#     Node 0, Type 0, BuildingBlock: IZENUY_clean_sbu_0, # of connection points: 6
#     Node 1, Type 0, BuildingBlock: IZENUY_clean_sbu_0, # of connection points: 6
#     Node 2, Type 0, BuildingBlock: IZENUY_clean_sbu_0, # of connection points: 6
#     Node 3, Type 0, BuildingBlock: IZENUY_clean_sbu_0, # of connection points: 6
#     Node 4, Type 0, BuildingBlock: IZENUY_clean_sbu_0, # of connection points: 6
#     Node 5, Type 0, BuildingBlock: IZENUY_clean_sbu_0, # of connection points: 6
#     Node 6, Type 0, BuildingBlock: IZENUY_clean_sbu_0, # of connection points: 6
#     Node 7, Type 0, BuildingBlock: IZENUY_clean_sbu_0, # of connection points: 6
#     Node 8, Type 0, BuildingBlock: IZENUY_clean_sbu_0, # of connection points: 6
#     Node 9, Type 0, BuildingBlock: IZENUY_clean_sbu_0, # of connection points: 6
#     Node 10, Type 0, BuildingBlock: IZENUY_clean_sbu_0, # of connection points: 6
#     Node 11, Type 0, BuildingBlock: IZENUY_clean_sbu_0, # of connection points: 6
#     Node 12, Type 0, BuildingBlock: IZENUY_clean_sbu_0, # of connection points: 6
#     Node 13, Type 0, BuildingBlock: IZENUY_clean_sbu_0, # of connection points: 6
#     Node 14, Type 0, BuildingBlock: IZENUY_clean_sbu_0, # of connection points: 6
#     Node 15, Type 0, BuildingBlock: IZENUY_clean_sbu_0, # of connection points: 6
#     Edge 16, Type (0, 0), BuildingBlock: TEMPAE_clean_linker_10, # of connection points: 2
#     Edge 17, Type (0, 0), BuildingBlock: TEMPAE_clean_linker_10, # of connection points: 2
#     Edge 18, Type (0, 0), BuildingBlock: TEMPAE_clean_linker_10, # of connection points: 2
#     Edge 19, Type (0, 0), BuildingBlock: TEMPAE_clean_linker_10, # of connection points: 2
#     Edge 20, Type (0, 0), BuildingBlock: TEMPAE_clean_linker_10, # of connection points: 2
#     Edge 21, Type (0, 0), BuildingBlock: TEMPAE_clean_linker_10, # of connection points: 2
#     Edge 22, Type (0, 0), BuildingBlock: TEMPAE_clean_linker_10, # of connection points: 2
#     Edge 23, Type (0, 0), BuildingBlock: TEMPAE_clean_linker_10, # of connection points: 2
#     Edge 24, Type (0, 0), BuildingBlock: TEMPAE_clean_linker_10, # of connection points: 2
#     Edge 25, Type (0, 0), BuildingBlock: TEMPAE_clean_linker_10, # of connection points: 2
#     Edge 26, Type (0, 0), BuildingBlock: TEMPAE_clean_linker_10, # of connection points: 2
#     Edge 27, Type (0, 0), BuildingBlock: TEMPAE_clean_linker_10, # of connection points: 2
#     Edge 28, Type (0, 0), BuildingBlock: TEMPAE_clean_linker_10, # of connection points: 2
#     Edge 29, Type (0, 0), BuildingBlock: TEMPAE_clean_linker_10, # of connection points: 2
#     Edge 30, Type (0, 0), BuildingBlock: TEMPAE_clean_linker_10, # of connection points: 2
#     Edge 31, Type (0, 0), BuildingBlock: TEMPAE_clean_linker_10, # of connection points: 2
#     Edge 32, Type (0, 0), BuildingBlock: TEMPAE_clean_linker_10, # of connection points: 2
#     Edge 33, Type (0, 0), BuildingBlock: TEMPAE_clean_linker_10, # of connection points: 2
#     Edge 34, Type (0, 0), BuildingBlock: TEMPAE_clean_linker_10, # of connection points: 2
#     Edge 35, Type (0, 0), BuildingBlock: TEMPAE_clean_linker_10, # of connection points: 2
#     Edge 36, Type (0, 0), BuildingBlock: TEMPAE_clean_linker_10, # of connection points: 2
#     Edge 37, Type (0, 0), BuildingBlock: TEMPAE_clean_linker_10, # of connection points: 2
#     Edge 38, Type (0, 0), BuildingBlock: TEMPAE_clean_linker_10, # of connection points: 2
#     Edge 39, Type (0, 0), BuildingBlock: TEMPAE_clean_linker_10, # of connection points: 2
#     Edge 40, Type (0, 0), BuildingBlock: TEMPAE_clean_linker_10, # of connection points: 2
#     Edge 41, Type (0, 0), BuildingBlock: TEMPAE_clean_linker_10, # of connection points: 2
#     Edge 42, Type (0, 0), BuildingBlock: TEMPAE_clean_linker_10, # of connection points: 2
#     Edge 43, Type (0, 0), BuildingBlock: TEMPAE_clean_linker_10, # of connection points: 2
#     Edge 44, Type (0, 0), BuildingBlock: TEMPAE_clean_linker_10, # of connection points: 2
#     Edge 45, Type (0, 0), BuildingBlock: TEMPAE_clean_linker_10, # of connection points: 2
#     Edge 46, Type (0, 0), BuildingBlock: TEMPAE_clean_linker_10, # of connection points: 2
#     Edge 47, Type (0, 0), BuildingBlock: TEMPAE_clean_linker_10, # of connection points: 2
#     Edge 48, Type (0, 0), BuildingBlock: TEMPAE_clean_linker_10, # of connection points: 2
#     Edge 49, Type (0, 0), BuildingBlock: TEMPAE_clean_linker_10, # of connection points: 2
#     Edge 50, Type (0, 0), BuildingBlock: TEMPAE_clean_linker_10, # of connection points: 2
#     Edge 51, Type (0, 0), BuildingBlock: TEMPAE_clean_linker_10, # of connection points: 2
#     Edge 52, Type (0, 0), BuildingBlock: TEMPAE_clean_linker_10, # of connection points: 2
#     Edge 53, Type (0, 0), BuildingBlock: TEMPAE_clean_linker_10, # of connection points: 2
#     Edge 54, Type (0, 0), BuildingBlock: TEMPAE_clean_linker_10, # of connection points: 2
#     Edge 55, Type (0, 0), BuildingBlock: TEMPAE_clean_linker_10, # of connection points: 2
#     Edge 56, Type (0, 0), BuildingBlock: TEMPAE_clean_linker_10, # of connection points: 2
#     Edge 57, Type (0, 0), BuildingBlock: TEMPAE_clean_linker_10, # of connection points: 2
#     Edge 58, Type (0, 0), BuildingBlock: TEMPAE_clean_linker_10, # of connection points: 2
#     Edge 59, Type (0, 0), BuildingBlock: TEMPAE_clean_linker_10, # of connection points: 2
#     Edge 60, Type (0, 0), BuildingBlock: TEMPAE_clean_linker_10, # of connection points: 2
#     Edge 61, Type (0, 0), BuildingBlock: TEMPAE_clean_linker_10, # of connection points: 2
#     Edge 62, Type (0, 0), BuildingBlock: TEMPAE_clean_linker_10, # of connection points: 2
#     Edge 63, Type (0, 0), BuildingBlock: TEMPAE_clean_linker_10, # of connection points: 2
# Relax obj value: 0.193
# Max RMSD: 0.208
# Mean RMSD: 0.207
data_MOF--net-wiu--node1-IZENUY_clean_sbu_0--edge1-TEMPAE_clean_linker_10
_symmetry_space_group_name_H-M    P1
_symmetry_Int_Tables_number       1
_symmetry_cell_setting            triclinic
loop_
_symmetry_equiv_pos_as_xyz
'x, y, z'
_cell_length_a     31.555789
_cell_length_b     31.548517
_cell_length_c     54.333208
_cell_angle_alpha  90.124545
_cell_angle_beta   89.868547
_cell_angle_gamma 90.242815
loop_
_atom_site_label
_atom_site_type_symbol
_atom_site_fract_x
_atom_site_fract_y
_atom_site_fract_z
_atom_type_partial_charge
Fe0 Fe 0.33996 0.09546 0.05883 0.0
Fe1 Fe 0.37868 0.18506 0.05138 0.0
O2 O 0.35167 0.14741 0.06982 0.0
Fe3 Fe 0.33705 0.1619 0.10017 0.0
O4 O 0.37242 0.12284 0.11212 0.0
O5 O 0.34986 0.0701 0.0888 0.0
O6 O 0.39513 0.08435 0.0512 0.0
C7 C 0.41985 0.10699 0.03839 0.0
C8 C 0.26817 0.10869 0.08642 0.0
O9 O 0.41259 0.14614 0.03521 0.0
C10 C 0.31479 0.23369 0.07667 0.0
O11 O 0.32992 0.11264 0.02718 0.0
O12 O 0.33903 0.18212 0.02772 0.0
O13 O 0.29152 0.12579 0.1025 0.0
O14 O 0.28306 0.10107 0.06524 0.0
C15 C 0.4155 0.20412 0.09511 0.0
O16 O 0.34911 0.231 0.06429 0.0
O17 O 0.30155 0.20241 0.08904 0.0
C18 C 0.32745 0.14863 0.017 0.0
O19 O 0.42118 0.19061 0.07357 0.0
O20 O 0.37943 0.20097 0.10494 0.0
C21 C 0.37185 0.08401 0.10665 0.0
Fe22 Fe 0.71468 0.5849 0.30042 0.0
Fe23 Fe 0.66929 0.57988 0.35042 0.0
O24 O 0.67105 0.59858 0.31958 0.0
Fe25 Fe 0.63055 0.63146 0.30783 0.0
O26 O 0.63354 0.60888 0.27696 0.0
O27 O 0.67993 0.55685 0.27919 0.0
O28 O 0.72591 0.53389 0.31583 0.0
C29 C 0.70353 0.50986 0.32935 0.0
C30 C 0.69997 0.66965 0.28576 0.0
O31 O 0.67192 0.52483 0.34055 0.0
C32 C 0.64165 0.66176 0.35637 0.0
O33 O 0.75047 0.61366 0.32064 0.0
O34 O 0.72682 0.58301 0.35442 0.0
O35 O 0.66855 0.67418 0.30008 0.0
O36 O 0.71337 0.63278 0.28113 0.0
C37 C 0.58301 0.574 0.33521 0.0
O38 O 0.6667 0.63318 0.36319 0.0
O39 O 0.62087 0.65894 0.33664 0.0
C40 C 0.75346 0.60626 0.34336 0.0
O41 O 0.61154 0.57377 0.35157 0.0
O42 O 0.58907 0.5923 0.31474 0.0
C43 C 0.649 0.57473 0.26859 0.0
Fe44 Fe 0.22183 0.92497 0.6061 0.0
Fe45 Fe 0.22537 0.97199 0.5566 0.0
O46 O 0.20745 0.92837 0.57458 0.0
Fe47 Fe 0.17495 0.88919 0.5608 0.0
O48 O 0.14396 0.87849 0.58813 0.0
O49 O 0.16687 0.92276 0.61655 0.0
O50 O 0.21981 0.98232 0.61078 0.0
C51 C 0.19962 1.01018 0.59892 0.0
C52 C 0.2278 0.8397 0.58944 0.0
O53 O 0.19563 1.00835 0.57588 0.0
C54 C 0.23691 0.90695 0.52459 0.0
O55 O 0.27809 0.92665 0.59885 0.0
O56 O 0.27461 0.98113 0.57414 0.0
O57 O 0.2121 0.84686 0.56842 0.0
O58 O 0.2262 0.86718 0.60643 0.0
C59 C 0.14244 0.95987 0.53825 0.0
O60 O 0.25471 0.93685 0.53633 0.0
O61 O 0.20097 0.89295 0.53106 0.0
C62 C 0.29594 0.95728 0.58812 0.0
O63 O 0.18017 0.97243 0.53534 0.0
O64 O 0.13469 0.92858 0.55212 0.0
C65 C 0.13894 0.89806 0.60812 0.0
Fe66 Fe 0.83412 0.47381 0.81449 0.0
Fe67 Fe 0.92408 0.44731 0.79956 0.0
O68 O 0.88829 0.46668 0.82187 0.0
Fe69 Fe 0.90678 0.47811 0.8518 0.0
O70 O 0.87171 0.43897 0.8645 0.0
O71 O 0.81442 0.45994 0.84531 0.0
O72 O 0.82752 0.41795 0.80615 0.0
C73 C 0.84864 0.39962 0.78945 0.0
C74 C 0.84855 0.54466 0.84281 0.0
O75 O 0.88442 0.41449 0.7829 0.0
C76 C 0.97419 0.50783 0.82645 0.0
O77 O 0.84489 0.48802 0.78242 0.0
O78 O 0.91442 0.49247 0.77999 0.0
O79 O 0.86928 0.52151 0.85747 0.0
O80 O 0.83668 0.53019 0.82219 0.0
C81 C 0.94929 0.40266 0.83965 0.0
O82 O 0.97079 0.47606 0.81211 0.0
O83 O 0.94391 0.51751 0.84053 0.0
C84 C 0.8782 0.50034 0.77146 0.0
O85 O 0.93512 0.40103 0.81799 0.0
O86 O 0.94734 0.43667 0.85195 0.0
C87 C 0.8323 0.43738 0.86144 0.0
Fe88 Fe 0.73398 0.97876 0.91669 0.0
Fe89 Fe 0.69795 0.88941 0.92605 0.0
O90 O 0.72286 0.92645 0.90637 0.0
Fe91 Fe 0.73533 0.9111 0.87593 0.0
O92 O 0.70031 0.95062 0.86418 0.0
O93 O 0.72352 1.00377 0.88673 0.0
O94 O 0.67836 0.98873 0.92429 0.0
C95 C 0.65663 0.96682 0.93915 0.0
C96 C 0.80512 0.96433 0.88876 0.0
O97 O 0.66718 0.92896 0.9439 0.0
C98 C 0.75695 0.83838 0.89863 0.0
O99 O 0.74521 0.96207 0.94842 0.0
O100 O 0.74129 0.89228 0.94738 0.0
O101 O 0.78181 0.94602 0.87302 0.0
O102 O 0.79051 0.9735 0.90982 0.0
C103 C 0.65565 0.873 0.88365 0.0
O104 O 0.72402 0.84241 0.91203 0.0
O105 O 0.77051 0.86954 0.88633 0.0
C106 C 0.75151 0.92614 0.9582 0.0
O107 O 0.65288 0.88508 0.90571 0.0
O108 O 0.69096 0.87382 0.87264 0.0
C109 C 0.70096 0.98947 0.86932 0.0
Fe110 Fe 0.43167 0.4459 0.66643 0.0
Fe111 Fe 0.40118 0.48601 0.61873 0.0
O112 O 0.39146 0.47186 0.64973 0.0
Fe113 Fe 0.34136 0.4818 0.66346 0.0
O114 O 0.33267 0.42575 0.67034 0.0
O115 O 0.39539 0.41379 0.68607 0.0
O116 O 0.43128 0.4022 0.64497 0.0
C117 C 0.43876 0.406 0.62232 0.0
C118 C 0.40157 0.49776 0.70168 0.0
O119 O 0.43734 0.44195 0.61218 0.0
C120 C 0.35087 0.55444 0.6364 0.0
O121 O 0.47618 0.47308 0.65005 0.0
O122 O 0.44469 0.5208 0.62718 0.0
O123 O 0.36402 0.49158 0.69408 0.0
O124 O 0.43333 0.48779 0.68885 0.0
C125 C 0.32192 0.45079 0.61674 0.0
O126 O 0.36636 0.53248 0.61908 0.0
O127 O 0.34527 0.53854 0.65751 0.0
C128 C 0.47787 0.5069 0.63724 0.0
O129 O 0.35939 0.45139 0.60883 0.0
O130 O 0.31086 0.4727 0.63516 0.0
C131 C 0.35684 0.40318 0.68326 0.0
Fe132 Fe 0.83947 0.14418 0.36868 0.0
Fe133 Fe 0.83754 0.09915 0.4187 0.0
O134 O 0.85433 0.14242 0.40019 0.0
Fe135 Fe 0.88602 0.18323 0.41307 0.0
O136 O 0.9162 0.19276 0.38503 0.0
O137 O 0.89425 0.14492 0.35828 0.0
O138 O 0.84029 0.08659 0.36476 0.0
C139 C 0.86118 0.05928 0.37654 0.0
C140 C 0.83202 0.22994 0.38368 0.0
O141 O 0.86659 0.06244 0.39937 0.0
C142 C 0.82693 0.16423 0.45092 0.0
O143 O 0.7836 0.14357 0.37644 0.0
O144 O 0.78741 0.09 0.40193 0.0
O145 O 0.84711 0.22394 0.40498 0.0
O146 O 0.83592 0.202 0.3671 0.0
C147 C 0.92123 0.11321 0.43556 0.0
O148 O 0.809 0.13418 0.43942 0.0
O149 O 0.86124 0.18026 0.44321 0.0
C150 C 0.76595 0.11334 0.38766 0.0
O151 O 0.88408 0.09917 0.43881 0.0
O152 O 0.92757 0.14575 0.42237 0.0
C153 C 0.92193 0.17056 0.36595 0.0
Fe154 Fe 0.22212 0.58946 0.16131 0.0
Fe155 Fe 0.13339 0.62703 0.16917 0.0
O156 O 0.17137 0.60294 0.14989 0.0
Fe157 Fe 0.15879 0.59355 0.11871 0.0
O158 O 0.20032 0.62904 0.10938 0.0
O159 O 0.25011 0.60124 0.13239 0.0
O160 O 0.23339 0.64396 0.17039 0.0
C161 C 0.21108 0.6654 0.18509 0.0
C162 C 0.20758 0.52133 0.13131 0.0
O163 O 0.17245 0.65572 0.18874 0.0
C164 C 0.08416 0.57004 0.13932 0.0
O165 O 0.20239 0.57642 0.19222 0.0
O166 O 0.13301 0.58221 0.18936 0.0
O167 O 0.19285 0.54673 0.11549 0.0
O168 O 0.21497 0.53391 0.15298 0.0
C169 C 0.1217 0.67296 0.12763 0.0
O170 O 0.08711 0.60236 0.15336 0.0
O171 O 0.11578 0.55812 0.12685 0.0
C172 C 0.16542 0.56995 0.20066 0.0
O173 O 0.13206 0.67365 0.14998 0.0
O174 O 0.1226 0.63861 0.11566 0.0
C175 C 0.23858 0.6265 0.11564 0.0
Fe176 Fe 0.83723 0.66364 0.59321 0.0
Fe177 Fe 0.83538 0.60126 0.55007 0.0
O178 O 0.85027 0.65128 0.56245 0.0
Fe179 Fe 0.87897 0.68871 0.54469 0.0
O180 O 0.92272 0.68966 0.56636 0.0
O181 O 0.88279 0.69852 0.59883 0.0
O182 O 0.86931 0.62038 0.60387 0.0
C183 C 0.86203 0.58225 0.59842 0.0
C184 C 0.81974 0.73923 0.57224 0.0
O185 O 0.84097 0.57271 0.57938 0.0
C186 C 0.82443 0.65888 0.51014 0.0
O187 O 0.78857 0.63156 0.59411 0.0
O188 O 0.77888 0.61048 0.55608 0.0
O189 O 0.85348 0.73563 0.55942 0.0
O190 O 0.80495 0.70777 0.58374 0.0
C191 C 0.91543 0.60912 0.53008 0.0
O192 O 0.82749 0.62166 0.51874 0.0
O193 O 0.83787 0.69063 0.52184 0.0
C194 C 0.76429 0.61756 0.57744 0.0
O195 O 0.8904 0.58754 0.54331 0.0
O196 O 0.909 0.64848 0.52668 0.0
C197 C 0.91847 0.70143 0.58841 0.0
Fe198 Fe 0.17272 0.08667 0.84836 0.0
Fe199 Fe 0.14303 0.12791 0.80097 0.0
O200 O 0.18167 0.0985 0.81694 0.0
Fe201 Fe 0.22934 0.08227 0.80225 0.0
O202 O 0.21996 1.02653 0.80976 0.0
O203 O 0.20382 0.03764 0.84847 0.0
O204 O 0.12633 0.05508 0.84119 0.0
C205 C 0.09399 0.07076 0.83109 0.0
C206 C 0.25488 0.11357 0.84852 0.0
O207 O 0.0974 0.10442 0.81821 0.0
C208 C 0.22071 0.16212 0.78183 0.0
O209 O 0.14017 0.13354 0.85506 0.0
O210 O 0.14862 0.17174 0.82204 0.0
O211 O 0.26251 0.09036 0.82992 0.0
O212 O 0.21781 0.11811 0.85668 0.0
C213 C 0.16505 0.07149 0.76556 0.0
O214 O 0.18084 0.15675 0.78083 0.0
O215 O 0.24365 0.13622 0.79338 0.0
C216 C 0.14089 0.16925 0.84465 0.0
O217 O 0.13581 0.08641 0.77872 0.0
O218 O 0.20357 0.07276 0.77235 0.0
C219 C 0.21542 1.01283 0.83145 0.0
Fe220 Fe 0.71962 0.42719 0.10961 0.0
Fe221 Fe 0.72032 0.47453 0.0604 0.0
O222 O 0.7048 0.42988 0.07814 0.0
Fe223 Fe 0.6743 0.38906 0.06442 0.0
O224 O 0.64368 0.37769 0.09197 0.0
O225 O 0.66485 0.42381 0.11998 0.0
O226 O 0.71641 0.4845 0.11424 0.0
C227 C 0.6938 0.51105 0.10293 0.0
C228 C 0.72886 0.34218 0.09338 0.0
O229 O 0.6889 0.50899 0.07997 0.0
C230 C 0.73539 0.41035 0.02817 0.0
O231 O 0.77557 0.43021 0.10193 0.0
O232 O 0.7696 0.48533 0.07782 0.0
O233 O 0.71343 0.34861 0.07223 0.0
O234 O 0.72543 0.36955 0.11029 0.0
C235 C 0.63787 0.45807 0.04182 0.0
O236 O 0.75113 0.44131 0.03993 0.0
O237 O 0.70044 0.3938 0.0346 0.0
C238 C 0.79221 0.46152 0.0912 0.0
O239 O 0.67481 0.47317 0.03928 0.0
O240 O 0.63206 0.42606 0.05545 0.0
C241 C 0.63772 0.39816 0.11165 0.0
Fe242 Fe 0.41181 0.96547 0.35555 0.0
Fe243 Fe 0.34783 0.96446 0.31326 0.0
O244 O 0.39919 0.95297 0.32466 0.0
Fe245 Fe 0.43797 0.92836 0.30604 0.0
O246 O 0.44269 0.88425 0.32706 0.0
O247 O 0.45141 0.92349 0.35971 0.0
O248 O 0.37282 0.92818 0.36589 0.0
C249 C 0.33439 0.92833 0.35972 0.0
C250 C 0.48393 0.99178 0.33345 0.0
O251 O 0.32116 0.95221 0.34263 0.0
C252 C 0.40291 0.98214 0.27289 0.0
O253 O 0.37484 1.01025 0.3584 0.0
O254 O 0.35309 1.02063 0.32078 0.0
O255 O 0.48291 0.95802 0.32041 0.0
O256 O 0.45196 1.00273 0.34592 0.0
C257 C 0.36074 0.88689 0.29105 0.0
O258 O 0.36637 0.9771 0.28217 0.0
O259 O 0.43589 0.96996 0.28365 0.0
C260 C 0.35922 0.03444 0.34229 0.0
O261 O 0.33768 0.90988 0.30452 0.0
O262 O 0.39996 0.89511 0.28831 0.0
C263 C 0.45521 0.88827 0.34888 0.0
Fe264 Fe 0.22741 0.39863 0.3701 0.0
Fe265 Fe 0.22609 0.46163 0.41338 0.0
O266 O 0.21243 0.41131 0.40072 0.0
Fe267 Fe 0.18272 0.37365 0.41772 0.0
O268 O 0.14093 0.37296 0.395 0.0
O269 O 0.18305 0.36224 0.36383 0.0
O270 O 0.19453 0.44056 0.35898 0.0
C271 C 0.19601 0.47868 0.36595 0.0
C272 C 0.24511 0.32376 0.39181 0.0
O273 O 0.21812 0.49014 0.38427 0.0
C274 C 0.23576 0.40366 0.45323 0.0
O275 O 0.27498 0.43251 0.3693 0.0
O276 O 0.28256 0.45429 0.40727 0.0
O277 O 0.21027 0.32718 0.40368 0.0
O278 O 0.26033 0.35528 0.38041 0.0
C279 C 0.14533 0.45267 0.43293 0.0
O280 O 0.23487 0.44076 0.44433 0.0
O281 O 0.22163 0.37199 0.44172 0.0
C282 C 0.29791 0.44815 0.38609 0.0
O283 O 0.17149 0.47477 0.42088 0.0
O284 O 0.15035 0.41288 0.43498 0.0
C285 C 0.14649 0.36053 0.37324 0.0
Fe286 Fe 0.84204 0.991 0.17331 0.0
Fe287 Fe 0.92857 0.94624 0.17521 0.0
O288 O 0.89028 0.9758 0.15899 0.0
Fe289 Fe 0.90003 0.98856 0.12781 0.0
O290 O 0.85509 0.95749 0.11869 0.0
O291 O 0.80964 0.98401 0.14537 0.0
O292 O 0.82815 0.93647 0.18095 0.0
C293 C 0.8503 0.91122 0.1934 0.0
C294 C 0.85611 0.06151 0.14524 0.0
O295 O 0.89005 0.91736 0.1953 0.0
C296 C 0.97867 1.00347 0.14548 0.0
O297 O 0.86694 0.9996 0.20358 0.0
O298 O 0.93511 0.98774 0.19751 0.0
O299 O 0.86911 0.03776 0.12804 0.0
O300 O 0.85095 0.04696 0.16669 0.0
C301 C 0.9319 0.90573 0.13126 0.0
O302 O 0.97479 0.96973 0.15829 0.0
O303 O 0.94642 1.01976 0.13563 0.0
C304 C 0.90535 1.00194 0.21054 0.0
O305 O 0.92366 0.90261 0.15384 0.0
O306 O 0.93238 0.94167 0.12107 0.0
C307 C 0.81783 0.96144 0.12665 0.0
Fe308 Fe 0.33247 0.58814 0.91263 0.0
Fe309 Fe 0.37698 0.67485 0.91639 0.0
O310 O 0.34992 0.63615 0.89894 0.0
Fe311 Fe 0.34153 0.64525 0.86727 0.0
O312 O 0.37388 0.60039 0.85987 0.0
O313 O 0.34247 0.55556 0.88503 0.0
O314 O 0.38583 0.57435 0.92256 0.0
C315 C 0.40926 0.59704 0.93608 0.0
C316 C 0.2658 0.60343 0.88179 0.0
O317 O 0.40291 0.63675 0.93762 0.0
C318 C 0.32337 0.72363 0.88459 0.0
O319 O 0.32073 0.61298 0.94249 0.0
O320 O 0.33249 0.68113 0.9366 0.0
O321 O 0.29243 0.614 0.86544 0.0
O322 O 0.27761 0.59781 0.90375 0.0
C323 C 0.42343 0.67833 0.87452 0.0
O324 O 0.3557 0.72052 0.89853 0.0
O325 O 0.30922 0.69133 0.87352 0.0
C326 C 0.31756 0.65135 0.94931 0.0
O327 O 0.42341 0.67026 0.89716 0.0
O328 O 0.38906 0.67814 0.86265 0.0
C329 C 0.36845 0.56328 0.86778 0.0
Fe330 Fe 0.72126 0.09103 0.66243 0.0
Fe331 Fe 0.63183 0.12931 0.6686 0.0
O332 O 0.67084 0.10446 0.65027 0.0
Fe333 Fe 0.65938 0.09416 0.61894 0.0
O334 O 0.70036 0.13034 0.60993 0.0
O335 O 0.75013 0.10426 0.63386 0.0
O336 O 0.73233 0.14494 0.67257 0.0
C337 C 0.70882 0.16789 0.68581 0.0
C338 C 0.70948 1.02322 0.63169 0.0
O339 O 0.66948 0.16001 0.68783 0.0
C340 C 0.58482 0.06959 0.63913 0.0
O341 O 0.70024 0.07715 0.69284 0.0
O342 O 0.63101 0.08614 0.69003 0.0
O343 O 0.69467 0.04851 0.61596 0.0
O344 O 0.71523 0.03544 0.65357 0.0
C345 C 0.62153 0.17299 0.62606 0.0
O346 O 0.58665 0.10263 0.65272 0.0
O347 O 0.61698 0.05795 0.62701 0.0
C348 C 0.663 0.07267 0.70132 0.0
O349 O 0.63075 0.17479 0.64851 0.0
O350 O 0.6222 0.13793 0.61495 0.0
C351 C 0.73841 0.12893 0.61677 0.0
C352 C 0.43882 0.25399 0.12844 0.0
C353 C 0.44797 0.23164 0.10666 0.0
C354 C 0.46685 0.28485 0.13763 0.0
C355 C 0.50468 0.29367 0.1246 0.0
C356 C 0.51522 0.26941 0.10345 0.0
C357 C 0.4868 0.23863 0.09481 0.0
C358 C 0.45466 0.30938 0.16042 0.0
C359 C 0.5556 0.27739 0.08911 0.0
C360 C 0.56089 0.3968 0.11611 0.0
C361 C 0.60035 0.38626 0.12593 0.0
C362 C 0.52634 0.36914 0.11867 0.0
C363 C 0.53202 0.33033 0.13127 0.0
C364 C 0.56963 0.32348 0.14482 0.0
C365 C 0.60373 0.35171 0.14188 0.0
C366 C 0.4863 0.37833 0.10456 0.0
C367 C 0.57623 0.28335 0.1593 0.0
H368 H 0.40897 0.24862 0.13788 0.0
H369 H 0.49435 0.22119 0.07817 0.0
H370 H 0.48284 0.31793 0.17158 0.0
H371 H 0.43882 0.33921 0.15491 0.0
H372 H 0.43218 0.29109 0.17209 0.0
H373 H 0.55979 0.25458 0.0737 0.0
H374 H 0.55529 0.30993 0.0814 0.0
H375 H 0.58348 0.27504 0.10143 0.0
H376 H 0.55857 0.4236 0.1037 0.0
H377 H 0.63449 0.34358 0.14935 0.0
H378 H 0.4579 0.36904 0.11536 0.0
H379 H 0.48621 0.35955 0.08725 0.0
H380 H 0.48387 0.41242 0.09969 0.0
H381 H 0.54653 0.27326 0.16861 0.0
H382 H 0.60152 0.28744 0.17332 0.0
H383 H 0.58593 0.25756 0.14658 0.0
C384 C 0.5982 0.69402 0.38877 0.0
C385 C 0.63186 0.69797 0.37213 0.0
C386 C 0.5717 0.72869 0.3936 0.0
C387 C 0.57915 0.76735 0.38111 0.0
C388 C 0.61744 0.77312 0.36785 0.0
C389 C 0.64349 0.73807 0.36348 0.0
C390 C 0.53234 0.72195 0.4089 0.0
C391 C 0.62735 0.81418 0.35482 0.0
C392 C 0.48737 0.81635 0.34714 0.0
C393 C 0.48211 0.85481 0.35967 0.0
C394 C 0.51754 0.78685 0.35478 0.0
C395 C 0.54295 0.79577 0.37568 0.0
C396 C 0.53578 0.83314 0.38948 0.0
C397 C 0.50552 0.86239 0.38123 0.0
C398 C 0.52368 0.74709 0.33958 0.0
C399 C 0.56141 0.84357 0.41212 0.0
H400 H 0.58924 0.66281 0.39538 0.0
H401 H 0.66964 0.74085 0.35057 0.0
H402 H 0.52396 0.75115 0.41922 0.0
H403 H 0.50542 0.71392 0.39662 0.0
H404 H 0.53648 0.69547 0.42212 0.0
H405 H 0.6612 0.81609 0.34923 0.0
H406 H 0.60757 0.81648 0.338 0.0
H407 H 0.61985 0.84174 0.36673 0.0
H408 H 0.46901 0.80995 0.3307 0.0
H409 H 0.50147 0.89193 0.39117 0.0
H410 H 0.52057 0.71859 0.35138 0.0
H411 H 0.55602 0.74691 0.3315 0.0
H412 H 0.50038 0.74441 0.32436 0.0
H413 H 0.57061 0.81457 0.42228 0.0
H414 H 0.54358 0.86476 0.42476 0.0
H415 H 0.59083 0.86038 0.40653 0.0
C416 C 0.10712 0.84844 0.63723 0.0
C417 C 0.10238 0.88479 0.62278 0.0
C418 C 0.07415 0.81858 0.63899 0.0
C419 C 0.036 0.8258 0.62603 0.0
C420 C 1.02882 0.86588 0.61512 0.0
C421 C 0.06235 0.89506 0.61363 0.0
C422 C 0.08256 0.77691 0.65157 0.0
C423 C 0.98813 0.87546 0.60173 0.0
C424 C 0.98964 0.73676 0.58759 0.0
C425 C 0.95187 0.72779 0.60015 0.0
C426 C 1.01818 0.76726 0.59655 0.0
C427 C 1.0088 0.78929 0.6187 0.0
C428 C 0.97215 0.77843 0.63231 0.0
C429 C 0.94407 0.74784 0.62286 0.0
C430 C 0.05735 0.77744 0.58158 0.0
C431 C 0.96115 0.80066 0.65609 0.0
H432 H 0.13829 0.8404 0.64414 0.0
H433 H 0.0589 0.92315 0.60233 0.0
H434 H 0.05357 0.76466 0.66075 0.0
H435 H 0.09254 0.75319 0.63762 0.0
H436 H 0.10825 0.77995 0.66543 0.0
H437 H 0.98454 0.90995 0.59825 0.0
H438 H 0.98812 0.85874 0.58373 0.0
H439 H 0.9603 0.86407 0.61235 0.0
H440 H 0.99615 0.72124 0.57017 0.0
H441 H 0.91507 0.74102 0.63285 0.0
H442 H 0.08608 0.77496 0.59321 0.0
H443 H 0.05566 0.81053 0.57478 0.0
H444 H 0.06108 0.75597 0.5655 0.0
H445 H 0.98989 0.80729 0.6672 0.0
H446 H 0.9386 0.78168 0.66734 0.0
H447 H 0.94598 0.83145 0.65187 0.0
C448 C 0.13094 0.24668 0.84733 0.0
C449 C 0.12164 0.20631 0.85653 0.0
C450 C 0.10397 0.2807 0.85209 0.0
C451 C 0.06698 0.27377 0.86632 0.0
C452 C 0.06095 0.23472 0.87861 0.0
C453 C 0.08856 0.20111 0.87353 0.0
C454 C 0.11216 0.3223 0.83917 0.0
C455 C 1.02273 0.22681 0.8947 0.0
C456 C 0.99888 0.3716 0.8705 0.0
C457 C 0.97434 0.36695 0.84912 0.0
C458 C 1.02716 0.33985 0.87772 0.0
C459 C 1.03096 0.303 0.86307 0.0
C460 C 1.00381 0.29675 0.84263 0.0
C461 C 0.97577 0.32884 0.83593 0.0
C462 C 0.05478 0.34722 0.89997 0.0
C463 C 1.00641 0.25747 0.82671 0.0
H464 H 0.15726 0.25081 0.83466 0.0
H465 H 0.0817 0.16995 0.88097 0.0
H466 H 0.08994 0.32545 0.82347 0.0
H467 H 0.10659 0.34936 0.8518 0.0
H468 H 0.14506 0.32448 0.83193 0.0
H469 H 1.02831 0.2003 0.90771 0.0
H470 H 1.01417 0.25563 0.90531 0.0
H471 H 0.99528 0.21821 0.88294 0.0
H472 H 0.99745 0.40077 0.88104 0.0
H473 H 0.95618 0.32469 0.81973 0.0
H474 H 0.08529 0.36153 0.89401 0.0
H475 H 0.06189 0.31711 0.9096 0.0
H476 H 0.03958 0.36942 0.91317 0.0
H477 H 0.03746 0.25673 0.81707 0.0
H478 H 0.98092 0.25623 0.81265 0.0
H479 H 1.00415 0.22855 0.83821 0.0
C480 C 0.58024 0.85017 0.8842 0.0
C481 C 0.61991 0.84961 0.87265 0.0
C482 C 0.54833 0.82196 0.87704 0.0
C483 C 0.55646 0.79259 0.85785 0.0
C484 C 0.59479 0.79487 0.84443 0.0
C485 C 0.62627 0.82345 0.85204 0.0
C486 C 0.50736 0.82112 0.89152 0.0
C487 C 0.60413 0.76493 0.82343 0.0
C488 C 0.50053 0.69262 0.87537 0.0
C489 C 0.46123 0.69898 0.86414 0.0
C490 C 0.53416 0.72056 0.87109 0.0
C491 C 0.52797 0.75557 0.85527 0.0
C492 C 0.49033 0.75873 0.84135 0.0
C493 C 0.45711 0.73018 0.84596 0.0
C494 C 0.57438 0.71543 0.88581 0.0
C495 C 0.48324 0.79479 0.82366 0.0
H496 H 0.57484 0.87112 0.89974 0.0
H497 H 0.65669 0.82337 0.84273 0.0
H498 H 0.47977 0.82106 0.87892 0.0
H499 H 0.50573 0.79167 0.90262 0.0
H500 H 0.50451 0.84868 0.90418 0.0
H501 H 0.62808 0.77857 0.81066 0.0
H502 H 0.61709 0.73497 0.8309 0.0
H503 H 0.57505 0.75708 0.8129 0.0
H504 H 0.50396 0.66775 0.88897 0.0
H505 H 0.42686 0.73479 0.83695 0.0
H506 H 0.57555 0.73994 0.90049 0.0
H507 H 0.60265 0.71991 0.87393 0.0
H508 H 0.57629 0.68375 0.89463 0.0
H509 H 0.4721 0.82297 0.83404 0.0
H510 H 0.45877 0.78656 0.80976 0.0
H511 H 0.51302 0.80365 0.81403 0.0
C512 C 0.60366 0.24938 0.62631 0.0
C513 C 0.60202 0.21008 0.61438 0.0
C514 C 0.57797 0.28269 0.61864 0.0
C515 C 0.55017 0.27633 0.59851 0.0
C516 C 0.55255 0.23872 0.58443 0.0
C517 C 0.57847 0.2057 0.59263 0.0
C518 C 0.5773 0.32289 0.63384 0.0
C519 C 0.52501 0.2316 0.56213 0.0
C520 C 0.45076 0.32914 0.61811 0.0
C521 C 0.45853 0.37019 0.60955 0.0
C522 C 0.4777 0.29597 0.61167 0.0
C523 C 0.51316 0.30453 0.59641 0.0
C524 C 0.51721 0.34434 0.58473 0.0
C525 C 0.48969 0.3771 0.59155 0.0
C526 C 0.47138 0.25343 0.6239 0.0
C527 C 0.55331 0.35387 0.56735 0.0
H528 H 0.62302 0.2533 0.64263 0.0
H529 H 0.578 0.17566 0.5829 0.0
H530 H 0.57954 0.35113 0.6218 0.0
H531 H 0.54692 0.32486 0.64412 0.0
H532 H 0.60368 0.32422 0.64733 0.0
H533 H 0.54078 0.21012 0.54875 0.0
H534 H 0.49488 0.2163 0.56791 0.0
H535 H 0.51729 0.26183 0.5528 0.0
H536 H 0.42566 0.32368 0.63142 0.0
H537 H 0.49512 0.40878 0.58447 0.0
H538 H 0.4958 0.2491 0.63835 0.0
H539 H 0.475 0.22739 0.61035 0.0
H540 H 0.43964 0.25058 0.63266 0.0
H541 H 0.58095 0.36553 0.57802 0.0
H542 H 0.54443 0.379 0.55404 0.0
H543 H 0.56319 0.32516 0.55703 0.0
C544 C 0.07302 0.33157 0.37238 0.0
C545 C 0.11309 0.33459 0.3614 0.0
C546 C 0.04377 0.30088 0.3647 0.0
C547 C 0.05469 0.27271 0.34533 0.0
C548 C 0.09348 0.27817 0.33262 0.0
C549 C 0.12241 0.30901 0.34089 0.0
C550 C 1.0024 0.29669 0.37863 0.0
C551 C 0.10596 0.24984 0.31144 0.0
C552 C 0.99888 0.17249 0.36152 0.0
C553 C 0.95929 0.18075 0.35118 0.0
C554 C 0.03344 0.19914 0.35663 0.0
C555 C 1.02759 0.23478 0.3412 0.0
C556 C 0.98979 0.23853 0.32742 0.0
C557 C 0.95562 0.2114 0.33275 0.0
C558 C 0.07375 0.19307 0.37107 0.0
C559 C 0.98322 0.27477 0.30983 0.0
H560 H 0.06527 0.35175 0.38792 0.0
H561 H 0.15316 0.31144 0.33207 0.0
H562 H 0.97528 0.29724 0.3657 0.0
H563 H 1.00145 0.2659 0.38847 0.0
H564 H 0.99799 0.32246 0.39236 0.0
H565 H 0.12753 0.26668 0.29853 0.0
H566 H 0.12318 0.22194 0.31867 0.0
H567 H 0.07792 0.23823 0.3011 0.0
H568 H 1.00142 0.14862 0.37579 0.0
H569 H 0.92478 0.21771 0.32481 0.0
H570 H 0.07464 0.21611 0.38654 0.0
H571 H 0.10193 0.19898 0.35933 0.0
H572 H 0.0759 0.16059 0.37883 0.0
H573 H 0.97303 0.30323 0.32029 0.0
H574 H 0.95825 0.26713 0.29611 0.0
H575 H 1.01306 0.28281 0.30001 0.0
C576 C 0.10252 0.749 0.1296 0.0
C577 C 0.09972 0.70999 0.11742 0.0
C578 C 0.07477 0.78188 0.1239 0.0
C579 C 0.04361 0.77539 0.10553 0.0
C580 C 0.04402 0.738 0.09115 0.0
C581 C 0.07218 0.70548 0.09732 0.0
C582 C 0.0761 0.82183 0.13931 0.0
C583 C 1.01236 0.73059 0.07082 0.0
C584 C 0.94612 0.82872 0.12883 0.0
C585 C 0.95159 0.86925 0.1189 0.0
C586 C 0.97325 0.79574 0.12221 0.0
C587 C 1.0065 0.8038 0.10528 0.0
C588 C 1.0084 0.84292 0.09269 0.0
C589 C 0.98078 0.87548 0.09971 0.0
C590 C 0.96942 0.75396 0.1356 0.0
C591 C 0.04233 0.85205 0.07381 0.0
H592 H 0.12466 0.75297 0.14468 0.0
H593 H 0.07044 0.67557 0.0875 0.0
H594 H 0.07536 0.8503 0.12739 0.0
H595 H 0.04781 0.82292 0.15147 0.0
H596 H 0.10487 0.82356 0.15103 0.0
H597 H 1.02481 0.70791 0.05693 0.0
H598 H 0.98294 0.71682 0.07873 0.0
H599 H 1.00392 0.76062 0.06147 0.0
H600 H 0.92269 0.8236 0.14317 0.0
H601 H 0.98459 0.90666 0.09162 0.0
H602 H 0.99568 0.75114 0.14906 0.0
H603 H 0.97199 0.72708 0.12253 0.0
H604 H 0.93892 0.75108 0.14573 0.0
H605 H 0.07137 0.86337 0.08329 0.0
H606 H 1.03215 0.87719 0.06084 0.0
H607 H 0.05061 0.82317 0.06318 0.0
C608 C 0.45072 0.04533 0.01498 0.0
C609 C 0.45557 0.08635 0.02473 0.0
C610 C 0.48299 1.02614 0.00082 0.0
C611 C 0.52201 0.04765 -0.00309 0.0
C612 C 0.52743 0.08874 0.00723 0.0
C613 C 0.49396 0.10786 0.02053 0.0
C614 C 0.47492 0.98305 -0.01041 0.0
C615 C 0.56877 0.11245 0.00438 0.0
C616 C 0.61741 0.97885 0.97894 0.0
C617 C 0.62197 0.98732 0.9537 0.0
C618 C 0.58594 0.99898 -0.00673 0.0
C619 C 0.55693 1.0272 0.98201 0.0
C620 C 0.56101 0.03528 0.95639 0.0
C621 C 0.59392 1.016 0.94271 0.0
C622 C 0.58415 0.99039 0.02057 0.0
C623 C 0.53018 0.06385 0.94331 0.0
H624 H 0.42101 1.02865 0.01779 0.0
H625 H 0.49809 0.13948 0.02802 0.0
H626 H 0.47929 0.98459 0.96933 0.0
H627 H 0.49814 0.95987 -0.00326 0.0
H628 H 0.44246 0.97109 -0.00644 0.0
H629 H 0.5689 0.14298 0.01461 0.0
H630 H 0.59532 0.09268 0.01113 0.0
H631 H 0.57489 0.11906 0.98465 0.0
H632 H 0.63928 0.9572 -0.01232 0.0
H633 H 0.59714 1.02263 0.92322 0.0
H634 H 0.55363 0.97489 0.02537 0.0
H635 H 0.58573 1.02071 0.03094 0.0
H636 H 0.61044 0.9697 0.02678 0.0
H637 H 0.49733 0.05205 0.94608 0.0
H638 H 0.53662 0.06578 0.92323 0.0
H639 H 0.53175 0.09627 0.95118 0.0
C640 C 0.71519 0.74875 0.28072 0.0
C641 C 0.72027 0.70668 0.27266 0.0
C642 C 0.73621 0.78291 0.2688 0.0
C643 C 0.76266 0.77525 0.24801 0.0
C644 C 0.76733 0.7329 0.23968 0.0
C645 C 0.74652 0.69946 0.25208 0.0
C646 C 0.7304 0.82728 0.2786 0.0
C647 C 0.79437 0.72274 0.21749 0.0
C648 C 0.7865 0.86434 0.20166 0.0
C649 C 0.82841 0.87615 0.20743 0.0
C650 C 0.76481 0.8322 0.21478 0.0
C651 C 0.78493 0.81118 0.23462 0.0
C652 C 0.82709 0.82323 0.24073 0.0
C653 C 0.84831 0.85514 0.22704 0.0
C654 C 0.72034 0.82035 0.20715 0.0
C655 C 0.84991 0.80229 0.26179 0.0
H656 H 0.69536 0.75494 0.29663 0.0
H657 H 0.75076 0.66733 0.24545 0.0
H658 H 0.76164 0.84114 0.28352 0.0
H659 H 0.71649 0.84771 0.26415 0.0
H660 H 0.70951 0.82814 0.29508 0.0
H661 H 0.79435 0.68836 0.21302 0.0
H662 H 0.78273 0.74039 0.20122 0.0
H663 H 0.82752 0.73307 0.22079 0.0
H664 H 0.77056 0.88004 0.18659 0.0
H665 H 0.88042 0.86402 0.23195 0.0
H666 H 0.69833 0.82402 0.22296 0.0
H667 H 0.71927 0.78655 0.20149 0.0
H668 H 0.7087 0.84003 0.19166 0.0
H669 H 0.83083 0.80503 0.2789 0.0
H670 H 0.88168 0.81646 0.2651 0.0
H671 H 0.85382 0.768 0.25788 0.0
C672 C 0.11831 0.99175 0.49853 0.0
C673 C 0.10881 0.97966 0.52281 0.0
C674 C 0.08867 1.01326 0.48382 0.0
C675 C 0.04869 1.02452 0.49377 0.0
C676 C 0.03889 1.01243 0.51835 0.0
C677 C 0.06877 0.98959 0.53242 0.0
C678 C 0.10022 1.02384 0.45755 0.0
C679 C 0.99714 1.02442 0.52996 0.0
C680 C 0.98776 0.11408 0.46158 0.0
C681 C 0.95634 0.09147 0.44882 0.0
C682 C 1.01761 0.09288 0.47653 0.0
C683 C 1.01692 0.04789 0.4782 0.0
C684 C 0.98607 1.02504 0.4646 0.0
C685 C 0.95593 0.04704 0.4505 0.0
C686 C 0.04921 0.11869 0.49107 0.0
C687 C 0.98478 0.97719 0.46495 0.0
H688 H 0.14913 0.98405 0.4909 0.0
H689 H 0.06141 0.98087 0.55125 0.0
H690 H 0.07602 1.01066 0.44483 0.0
H691 H 0.1006 0.0587 0.45499 0.0
H692 H 0.13173 1.01115 0.4522 0.0
H693 H 0.99477 1.01396 0.54943 0.0
H694 H 0.99307 0.05933 0.52926 0.0
H695 H 0.9706 1.01006 0.51947 0.0
H696 H 0.98792 0.1484 0.46068 0.0
H697 H 0.93178 1.02932 0.44065 0.0
H698 H 0.08194 0.10991 0.48569 0.0
H699 H 0.04571 0.11163 0.51097 0.0
H700 H 0.04517 0.15331 0.48826 0.0
H701 H 1.01606 0.96431 0.4594 0.0
H702 H 0.96019 0.96405 0.45243 0.0
H703 H 0.97817 0.96583 0.48387 0.0
C704 C 0.7958 0.33952 0.78487 0.0
C705 C 0.82878 0.36424 0.77495 0.0
C706 C 0.77613 0.30698 0.77101 0.0
C707 C 0.78849 0.29977 0.74621 0.0
C708 C 0.82159 0.32485 0.73607 0.0
C709 C 0.8418 0.35597 0.75064 0.0
C710 C 0.74231 0.28005 0.78301 0.0
C711 C 0.83512 0.31947 0.70958 0.0
C712 C 0.76641 0.19367 0.71401 0.0
C713 C 0.72866 0.20175 0.70127 0.0
C714 C 0.78542 0.22473 0.72916 0.0
C715 C 0.76733 0.26573 0.73095 0.0
C716 C 0.72943 0.2742 0.71779 0.0
C717 C 0.71012 0.24191 0.70357 0.0
C718 C 0.82478 0.21349 0.74343 0.0
C719 C 0.70968 0.31766 0.71837 0.0
H720 H 0.78565 0.34526 0.80365 0.0
H721 H 0.86723 0.37466 0.74269 0.0
H722 H 0.71174 0.28416 0.7733 0.0
H723 H 0.75087 0.24604 0.78157 0.0
H724 H 0.73769 0.28817 0.80273 0.0
H725 H 0.86153 0.34115 0.70446 0.0
H726 H 0.84531 0.28639 0.70614 0.0
H727 H 0.80783 0.32577 0.69728 0.0
H728 H 0.78065 0.16254 0.71256 0.0
H729 H 0.68105 0.24841 0.69369 0.0
H730 H 0.81986 0.22017 0.7633 0.0
H731 H 0.85181 0.23334 0.7372 0.0
H732 H 0.83352 0.17962 0.74123 0.0
H733 H 0.70053 0.32604 0.73748 0.0
H734 H 0.68114 0.31966 0.7065 0.0
H735 H 0.73311 0.3417 0.71213 0.0
C736 C 0.34973 0.36037 0.72228 0.0
C737 C 0.33842 0.36698 0.69759 0.0
C738 C 0.33053 0.328 0.73648 0.0
C739 C 0.30033 0.30019 0.7256 0.0
C740 C 0.28965 0.3062 0.70046 0.0
C741 C 0.30807 0.3399 0.68699 0.0
C742 C 0.34197 0.32415 0.76333 0.0
C743 C 0.25888 0.2768 0.68769 0.0
C744 C 0.28097 0.19224 0.75654 0.0
C745 C 0.24115 0.19764 0.76773 0.0
C746 C 0.30018 0.22491 0.74261 0.0
C747 C 0.28003 0.26488 0.7404 0.0
C748 C 0.24019 0.27077 0.75214 0.0
C749 C 0.22096 0.23699 0.76521 0.0
C750 C 0.34182 0.21635 0.72985 0.0
C751 C 0.21796 0.31298 0.75111 0.0
H752 H 0.37267 0.38148 0.73075 0.0
H753 H 0.2992 0.3447 0.66793 0.0
H754 H 0.31291 0.32609 0.77482 0.0
H755 H 0.35654 0.29283 0.76685 0.0
H756 H 0.36443 0.3493 0.76936 0.0
H757 H 0.25553 0.28423 0.66781 0.0
H758 H 0.2696 0.24349 0.68955 0.0
H759 H 0.22724 0.27899 0.6965 0.0
H760 H 0.29672 0.1619 0.75816 0.0
H761 H 0.19039 0.24167 0.77391 0.0
H762 H 0.36652 0.2384 0.7368 0.0
H763 H 0.3386 0.2221 0.7098 0.0
H764 H 0.35284 0.18332 0.73267 0.0
H765 H 0.23945 0.33846 0.75776 0.0
H766 H 0.18856 0.31336 0.7624 0.0
H767 H 0.20959 0.32057 0.73181 0.0
C768 C 0.2993 0.8608 0.26599 0.0
C769 C 0.33973 0.85339 0.27582 0.0
C770 C 0.2787 0.83053 0.25107 0.0
C771 C 0.29814 0.79088 0.24642 0.0
C772 C 0.33876 0.78289 0.25664 0.0
C773 C 0.3594 0.8145 0.27079 0.0
C774 C 0.23629 0.84134 0.23996 0.0
C775 C 0.3602 0.74071 0.25289 0.0
C776 C 0.22366 0.70108 0.22591 0.0
C777 C 0.23221 0.69833 0.20059 0.0
C778 C 0.24571 0.73003 0.24111 0.0
C779 C 0.276 0.75821 0.23068 0.0
C780 C 0.28404 0.75602 0.20499 0.0
C781 C 0.26276 0.72561 0.19041 0.0
C782 C 0.23695 0.73003 0.26844 0.0
C783 C 0.31476 0.78623 0.1928 0.0
H784 H 0.28406 0.89096 0.2695 0.0
H785 H 0.39052 0.80844 0.27839 0.0
H786 H 0.23781 0.83802 0.21964 0.0
H787 H 0.2117 0.81893 0.24667 0.0
H788 H 0.22616 0.87412 0.24451 0.0
H789 H 0.39068 0.73861 0.26299 0.0
H790 H 0.33901 0.71472 0.25919 0.0
H791 H 0.36643 0.73544 0.23303 0.0
H792 H 0.20062 0.67959 0.23398 0.0
H793 H 0.26953 0.72361 0.17087 0.0
H794 H 0.22326 0.76089 0.27407 0.0
H795 H 0.267 0.72606 0.27873 0.0
H796 H 0.21464 0.70438 0.27392 0.0
H797 H 0.30502 0.81943 0.19643 0.0
H798 H 0.31663 0.7813 0.17258 0.0
H799 H 0.34688 0.78223 0.20068 0.0
C800 C 0.07042 0.45678 0.44994 0.0
C801 C 0.11086 0.47484 0.44697 0.0
C802 C 0.03793 0.47832 0.4629 0.0
C803 C 0.04631 0.51827 0.47411 0.0
C804 C 0.08746 0.53607 0.47157 0.0
C805 C 0.11874 0.51465 0.45775 0.0
C806 C 0.99437 0.45856 0.4643 0.0
C807 C 0.09874 0.57761 0.4838 0.0
C808 C 0.957 0.59589 0.49108 0.0
C809 C 0.94966 0.58675 0.51603 0.0
C810 C 0.98729 0.57317 0.47713 0.0
C811 C 1.01236 0.54147 0.48851 0.0
C812 C 1.00556 0.53278 0.51387 0.0
C813 C 0.97382 0.55477 0.52711 0.0
C814 C 0.99199 0.58273 0.45006 0.0
C815 C 1.03227 0.50058 0.52717 0.0
H816 H 0.06388 0.42619 0.44163 0.0
H817 H 0.14998 0.52874 0.45586 0.0
H818 H 0.98595 0.45197 0.48375 0.0
H819 H 0.97046 0.48101 0.45707 0.0
H820 H 0.99225 0.42849 0.45369 0.0
H821 H 0.13257 0.58633 0.48108 0.0
H822 H 0.07879 0.60338 0.47632 0.0
H823 H 0.09223 0.57569 0.50385 0.0
H824 H 0.93804 0.62002 0.48223 0.0
H825 H 0.96839 0.54747 0.54635 0.0
H826 H 0.98852 0.55312 0.43916 0.0
H827 H 1.0241 0.59559 0.4463 0.0
H828 H 0.9682 0.606 0.44355 0.0
H829 H 1.0279 0.46883 0.51875 0.0
H830 H 1.02422 0.49851 0.54705 0.0
H831 H 0.06632 0.50899 0.52534 0.0
C832 C 0.55967 0.46922 0.03235 0.0
C833 C 0.60258 0.47662 0.02677 0.0
C834 C 0.5269 0.48823 0.01845 0.0
C835 C 0.53702 0.51486 -0.00184 0.0
C836 C 0.58027 0.52187 -0.00769 0.0
C837 C 0.61223 0.50308 0.00667 0.0
C838 C 0.48138 0.48014 0.02563 0.0
C839 C 0.59297 0.5493 0.97075 0.0
C840 C 0.45578 0.53471 0.94693 0.0
C841 C 0.44192 0.57614 0.95204 0.0
C842 C 0.48606 0.51433 0.96188 0.0
C843 C 0.50279 0.53535 0.98286 0.0
C844 C 0.4884 0.57692 -0.01165 0.0
C845 C 0.45859 0.59684 0.97284 0.0
C846 C 0.50069 0.4704 0.95495 0.0
C847 C 0.5047 0.60053 0.0106 0.0
H848 H 0.55167 0.44913 0.04786 0.0
H849 H 0.64511 0.509 0.00194 0.0
H850 H 0.46546 0.51064 0.02979 0.0
H851 H 0.46412 0.46529 0.01006 0.0
H852 H 0.47859 0.45916 0.04196 0.0
H853 H 0.62788 0.55097 0.96824 0.0
H854 H 0.57862 0.53673 0.95358 0.0
H855 H 0.58081 0.58193 0.97342 0.0
H856 H 0.4433 0.51826 0.93097 0.0
H857 H 0.44791 0.62859 0.97724 0.0
H858 H 0.49533 0.44827 0.97049 0.0
H859 H 0.53525 0.47087 0.95113 0.0
H860 H 0.48404 0.45786 0.93846 0.0
H861 H 0.50007 0.5811 0.02739 0.0
H862 H 0.4886 0.63146 0.01326 0.0
H863 H 0.53923 0.60636 0.00861 0.0
C864 C 0.31855 0.3133 0.07657 0.0
C865 C 0.2957 0.27599 0.08158 0.0
C866 C 0.30354 0.35314 0.08426 0.0
C867 C 0.26446 0.35596 0.09707 0.0
C868 C 0.24053 0.31861 0.1014 0.0
C869 C 0.25648 0.27916 0.09371 0.0
C870 C 0.33017 0.39211 0.07935 0.0
C871 C 0.19852 0.32019 0.11472 0.0
C872 C 0.2455 0.4522 0.13836 0.0
C873 C 0.22074 0.47816 0.1232 0.0
C874 C 0.25983 0.41237 0.13013 0.0
C875 C 0.24891 0.39788 0.10624 0.0
C876 C 0.22334 0.42361 0.09103 0.0
C877 C 0.2097 0.46333 0.09965 0.0
C878 C 0.28716 0.38599 0.1469 0.0
C879 C 0.21067 0.40932 0.06554 0.0
H880 H 0.34905 0.3113 0.06743 0.0
H881 H 0.23852 0.2506 0.09767 0.0
H882 H 0.31139 0.41596 0.06917 0.0
H883 H 0.3398 0.40681 0.09706 0.0
H884 H 0.35918 0.38479 0.06855 0.0
H885 H 0.1829 0.2886 0.11569 0.0
H886 H 0.20328 0.33212 0.13374 0.0
H887 H 0.17686 0.34254 0.10536 0.0
H888 H 0.25432 0.46327 0.15655 0.0
H889 H 0.19043 0.48293 0.08777 0.0
H890 H 0.31834 0.38017 0.13806 0.0
H891 H 0.27208 0.35464 0.15006 0.0
H892 H 0.29256 0.40151 0.16501 0.0
H893 H 0.23937 0.40452 0.05405 0.0
H894 H 0.18983 0.43257 0.05621 0.0
H895 H 0.19381 0.37844 0.06653 0.0
C896 C 0.50324 0.56865 0.33098 0.0
C897 C 0.54121 0.55403 0.34129 0.0
C898 C 0.46364 0.55168 0.3383 0.0
C899 C 0.46184 0.51856 0.35596 0.0
C900 C 0.50022 0.50301 0.3659 0.0
C901 C 0.53915 0.52117 0.3587 0.0
C902 C 0.42362 0.56979 0.3275 0.0
C903 C 0.5002 0.46714 0.38426 0.0
C904 C 0.35997 0.4978 0.39282 0.0
C905 C 0.34103 0.46457 0.3795 0.0
C906 C 0.39885 0.51596 0.38523 0.0
C907 C 0.42001 0.50004 0.36407 0.0
C908 C 0.40149 0.46583 0.35092 0.0
C909 C 0.36221 0.44891 0.35861 0.0
C910 C 0.41695 0.55274 0.39963 0.0
C911 C 0.42317 0.44704 0.32866 0.0
H912 H 0.50439 0.59424 0.31771 0.0
H913 H 0.56826 0.50939 0.36669 0.0
H914 H 0.40539 0.54451 0.31799 0.0
H915 H 0.40317 0.58235 0.34245 0.0
H916 H 0.43021 0.59569 0.31419 0.0
H917 H 0.53276 0.45752 0.38954 0.0
H918 H 0.48283 0.47673 0.40113 0.0
H919 H 0.48347 0.43919 0.37646 0.0
H920 H 0.34377 0.51053 0.4088 0.0
H921 H 0.34801 0.42321 0.34818 0.0
H922 H 0.4212 0.58051 0.38735 0.0
H923 H 0.44867 0.54441 0.40687 0.0
H924 H 0.39634 0.56207 0.41532 0.0
H925 H 0.42685 0.47151 0.31418 0.0
H926 H 0.40529 0.41977 0.32084 0.0
H927 H 0.45543 0.43622 0.33366 0.0
C928 C 0.27847 0.79532 0.61342 0.0
C929 C 0.247 0.79791 0.59525 0.0
C930 C 0.29617 0.75626 0.62019 0.0
C931 C 0.28147 0.71843 0.60896 0.0
C932 C 0.24969 0.72078 0.59056 0.0
C933 C 0.2332 0.76053 0.58371 0.0
C934 C 0.33069 0.75552 0.63939 0.0
C935 C 0.23259 0.6812 0.57842 0.0
C936 C 0.3515 0.62017 0.6106 0.0
C937 C 0.33456 0.59748 0.63057 0.0
C938 C 0.33485 0.6596 0.60356 0.0
C939 C 0.29966 0.67657 0.6164 0.0
C940 C 0.28245 0.65389 0.63664 0.0
C941 C 0.30039 0.61489 0.64365 0.0
C942 C 0.35494 0.68309 0.58231 0.0
C943 C 0.24459 0.67048 0.65062 0.0
H944 H 0.28957 0.8241 0.62229 0.0
H945 H 0.20866 0.76224 0.56982 0.0
H946 H 0.32012 0.73677 0.65554 0.0
H947 H 0.35934 0.73983 0.63183 0.0
H948 H 0.33961 0.78783 0.64575 0.0
H949 H 0.20746 0.68826 0.56476 0.0
H950 H 0.25859 0.66403 0.56898 0.0
H951 H 0.21934 0.65957 0.59259 0.0
H952 H 0.37801 0.60705 0.60044 0.0
H953 H 0.28679 0.59739 0.65891 0.0
H954 H 0.36514 0.71515 0.58837 0.0
H955 H 0.33144 0.68739 0.56738 0.0
H956 H 0.38286 0.66619 0.57467 0.0
H957 H 0.25215 0.70182 0.65883 0.0
H958 H 0.23436 0.6487 0.66556 0.0
H959 H 0.21764 0.67513 0.63783 0.0
C960 C 1.02063 0.56408 0.8453 0.0
C961 C 1.01675 0.52646 0.83159 0.0
C962 C 0.06044 0.57893 0.85328 0.0
C963 C 0.09739 0.55533 0.84777 0.0
C964 C 0.09382 0.51789 0.83344 0.0
C965 C 0.05368 0.50413 0.82538 0.0
C966 C 0.06283 0.61937 0.86812 0.0
C967 C 0.13227 0.49153 0.8273 0.0
C968 C 0.20663 0.6071 0.85117 0.0
C969 C 0.22164 0.5931 0.87408 0.0
C970 C 0.16606 0.59584 0.84266 0.0
C971 C 0.13975 0.56942 0.85722 0.0
C972 C 0.15439 0.55567 0.88054 0.0
C973 C 0.19498 0.56792 0.88877 0.0
C974 C 0.1516 0.61176 0.81788 0.0
C975 C 0.12752 0.52719 0.89657 0.0
H976 H 0.99234 0.58157 0.85022 0.0
H977 H 0.05113 0.47478 0.81507 0.0
H978 H 0.07457 0.61237 0.8869 0.0
H979 H 0.08568 0.64174 0.85955 0.0
H980 H 1.03157 0.63523 0.86972 0.0
H981 H 0.12432 0.46368 0.81563 0.0
H982 H 0.15622 0.51114 0.81755 0.0
H983 H 0.14715 0.48008 0.84453 0.0
H984 H 0.22677 0.62686 0.83973 0.0
H985 H 0.20627 0.5568 0.90643 0.0
H986 H 0.12089 0.62845 0.81978 0.0
H987 H 0.14645 0.58459 0.80523 0.0
H988 H 0.17496 0.63372 0.80934 0.0
H989 H 0.09653 0.54234 0.90038 0.0
H990 H 0.14306 0.51987 0.91438 0.0
H991 H 0.12096 0.49697 0.88677 0.0
C992 C 0.80831 0.61312 0.83698 0.0
C993 C 0.83578 0.58804 0.85105 0.0
C994 C 0.79595 0.65379 0.84504 0.0
C995 C 0.81156 0.67007 0.86766 0.0
C996 C 0.8395 0.64504 0.88182 0.0
C997 C 0.85116 0.60452 0.8734 0.0
C998 C 0.76599 0.67932 0.82939 0.0
C999 C 0.85711 0.66106 0.90594 0.0
C1000 C 0.80956 0.78996 0.87799 0.0
C1001 C 0.77329 0.79512 0.89273 0.0
C1002 C 0.82256 0.74957 0.86992 0.0
C1003 C 0.79867 0.71319 0.87658 0.0
C1004 C 0.76252 0.71806 0.89185 0.0
C1005 C 0.75041 0.75879 0.8998 0.0
C1006 C 0.86152 0.74591 0.8539 0.0
C1007 C 0.73601 0.68027 0.89936 0.0
H1008 H 0.79619 0.60087 0.81972 0.0
H1009 H 0.87255 0.58571 0.88445 0.0
H1010 H 0.73696 0.68689 0.84006 0.0
H1011 H 0.78105 0.70988 0.82422 0.0
H1012 H 0.75664 0.66229 0.81232 0.0
H1013 H 0.87881 0.63793 0.91468 0.0
H1014 H 0.87463 0.69119 0.90298 0.0
H1015 H 0.83081 0.6679 0.91892 0.0
H1016 H 0.82752 0.81767 0.87235 0.0
H1017 H 0.72215 0.76222 0.91099 0.0
H1018 H 0.85277 0.73229 0.83576 0.0
H1019 H 0.88462 0.72403 0.86244 0.0
H1020 H 0.87728 0.77702 0.85085 0.0
H1021 H 0.7231 0.66434 0.88275 0.0
H1022 H 0.70916 0.68922 0.91154 0.0
H1023 H 0.75596 0.65682 0.9091 0.0
C1024 C 0.55769 0.50307 0.63385 0.0
C1025 C 0.51982 0.52518 0.62963 0.0
C1026 C 0.59688 0.51804 0.62467 0.0
C1027 C 0.59864 0.55633 0.61104 0.0
C1028 C 0.56065 0.57913 0.60706 0.0
C1029 C 0.52189 0.5633 0.61628 0.0
C1030 C 0.63642 0.49258 0.62938 0.0
C1031 C 0.56089 0.62028 0.59293 0.0
C1032 C 0.7047 0.61508 0.60815 0.0
C1033 C 0.72047 0.60391 0.58477 0.0
C1034 C 0.66523 0.60023 0.6167 0.0
C1035 C 0.64035 0.57324 0.60166 0.0
C1036 C 0.6556 0.56233 0.57785 0.0
C1037 C 0.69533 0.57785 0.56967 0.0
C1038 C 0.65044 0.61304 0.6421 0.0
C1039 C 0.63025 0.53356 0.56119 0.0
H1040 H 0.55666 0.47343 0.64387 0.0
H1041 H 0.493 0.58074 0.61282 0.0
H1042 H 0.65148 0.48375 0.61163 0.0
H1043 H 0.65972 0.51202 0.63976 0.0
H1044 H 0.62979 0.46319 0.63996 0.0
H1045 H 0.52875 0.63424 0.59136 0.0
H1046 H 0.58199 0.64359 0.60216 0.0
H1047 H 0.5737 0.61501 0.57415 0.0
H1048 H 0.72355 0.63525 0.62007 0.0
H1049 H 0.70709 0.56875 0.55167 0.0
H1050 H 0.64669 0.5845 0.65381 0.0
H1051 H 0.61898 0.62849 0.64098 0.0
H1052 H 0.67289 0.63518 0.65128 0.0
H1053 H 0.62568 0.50228 0.57014 0.0
H1054 H 0.64592 0.52863 0.54309 0.0
H1055 H 0.59833 0.54709 0.55806 0.0
C1056 C 0.81563 0.30747 0.39142 0.0
C1057 C 0.81115 0.27077 0.37697 0.0
C1058 C 0.7972 0.34622 0.38416 0.0
C1059 C 0.77326 0.34832 0.36209 0.0
C1060 C 0.76787 0.31113 0.3478 0.0
C1061 C 0.78693 0.2731 0.35531 0.0
C1062 C 0.804 0.38514 0.39987 0.0
C1063 C 0.74232 0.31155 0.32433 0.0
C1064 C 0.69652 0.44035 0.35202 0.0
C1065 C 0.71984 0.46707 0.33631 0.0
C1066 C 0.71341 0.40177 0.36056 0.0
C1067 C 0.75485 0.38949 0.35343 0.0
C1068 C 0.77834 0.41606 0.33736 0.0
C1069 C 0.76057 0.45424 0.32894 0.0
C1070 C 0.68699 0.37424 0.37738 0.0
C1071 C 0.8226 0.40438 0.32926 0.0
H1072 H 0.83423 0.30614 0.40814 0.0
H1073 H 0.78277 0.24497 0.34407 0.0
H1074 H 0.82114 0.40968 0.38911 0.0
H1075 H 0.77302 0.39879 0.40533 0.0
H1076 H 0.82245 0.37818 0.41677 0.0
H1077 H 0.73961 0.27959 0.31584 0.0
H1078 H 0.70997 0.32365 0.32805 0.0
H1079 H 0.75732 0.33327 0.31081 0.0
H1080 H 0.66511 0.4498 0.35793 0.0
H1081 H 0.77914 0.47457 0.31697 0.0
H1082 H 0.70357 0.36986 0.39517 0.0
H1083 H 0.68272 0.34235 0.36907 0.0
H1084 H 0.65524 0.38799 0.38108 0.0
H1085 H 0.84324 0.4004 0.34559 0.0
H1086 H 0.837 0.42868 0.31702 0.0
H1087 H 0.82201 0.37362 0.31934 0.0
C1088 C 0.85873 0.45339 0.11629 0.0
C1089 C 0.83639 0.47451 0.09765 0.0
C1090 C 0.89913 0.46727 0.12387 0.0
C1091 C 0.91808 0.50298 0.11245 0.0
C1092 C 0.89612 0.5239 0.09329 0.0
C1093 C 0.85562 0.50955 0.08619 0.0
C1094 C 0.92127 0.44407 0.1444 0.0
C1095 C 0.91528 0.56179 0.0804 0.0
C1096 C 1.00495 0.56575 0.14549 0.0
C1097 C 0.04186 0.55068 0.13398 0.0
C1098 C 0.96462 0.54999 0.13902 0.0
C1099 C 0.96086 0.51848 0.12048 0.0
C1100 C 0.99801 0.50251 0.10918 0.0
C1101 C 0.0379 0.51861 0.1161 0.0
C1102 C 0.9259 0.56766 0.1517 0.0
C1103 C 0.99559 0.46905 0.08931 0.0
H1104 H 0.84431 0.42636 0.12537 0.0
H1105 H 0.83883 0.52611 0.07176 0.0
H1106 H 0.95262 0.43261 0.13802 0.0
H1107 H 0.92706 0.46605 0.16002 0.0
H1108 H 0.90258 0.41655 0.1512 0.0
H1109 H 0.89461 0.57402 0.06552 0.0
H1110 H 0.92099 0.58765 0.09387 0.0
H1111 H 0.94642 0.55322 0.07233 0.0
H1112 H 1.00747 0.59044 0.15932 0.0
H1113 H 0.06602 0.50658 0.10703 0.0
H1114 H 0.90689 0.54156 0.15986 0.0
H1115 H 0.9055 0.58385 0.13806 0.0
H1116 H 0.93419 0.59064 0.16646 0.0
H1117 H 0.97826 0.44078 0.09618 0.0
H1118 H 1.02743 0.45899 0.08284 0.0
H1119 H 0.97763 0.48143 0.07335 0.0
C1120 C 0.82675 0.81862 0.57529 0.0
C1121 C 0.80221 0.78176 0.57825 0.0
C1122 C 0.81231 0.85816 0.58396 0.0
C1123 C 0.77219 0.86104 0.59566 0.0
C1124 C 0.74684 0.82414 0.59807 0.0
C1125 C 0.76216 0.78508 0.58942 0.0
C1126 C 0.84038 0.8967 0.58106 0.0
C1127 C 0.70373 0.82575 0.61016 0.0
C1128 C 0.74835 0.95433 0.63848 0.0
C1129 C 0.72468 0.98097 0.62313 0.0
C1130 C 0.76432 0.9154 0.62976 0.0
C1131 C 0.75633 0.90264 0.60514 0.0
C1132 C 0.73221 0.92923 0.58966 0.0
C1133 C 0.71675 0.96787 0.5988 0.0
C1134 C 0.78988 0.88794 0.64687 0.0
C1135 C 0.72268 0.91686 0.56337 0.0
H1136 H 0.85791 0.81638 0.56696 0.0
H1137 H 0.74289 0.75683 0.59179 0.0
H1138 H 0.82348 0.9216 0.57061 0.0
H1139 H 0.84802 0.91011 0.59942 0.0
H1140 H 0.87051 0.8893 0.57137 0.0
H1141 H 0.68765 0.79436 0.61026 0.0
H1142 H 0.70689 0.83696 0.62944 0.0
H1143 H 0.68321 0.84871 0.60042 0.0
H1144 H 0.75482 0.9641 0.65724 0.0
H1145 H 0.69845 0.988 0.58672 0.0
H1146 H 0.82174 0.88218 0.63888 0.0
H1147 H 0.77422 0.85661 0.64902 0.0
H1148 H 0.79376 0.9025 0.66536 0.0
H1149 H 0.75268 0.91198 0.55308 0.0
H1150 H 0.7037 0.94119 0.55365 0.0
H1151 H 0.70499 0.8864 0.56296 0.0
C1152 C 0.8732 1.0054 0.89601 0.0
C1153 C 0.84832 0.97894 0.88099 0.0
C1154 C 0.91303 1.02067 0.88797 0.0
C1155 C 0.92862 1.00917 0.86436 0.0
C1156 C 0.90385 0.98215 0.84926 0.0
C1157 C 0.86425 0.96746 0.85771 0.0
C1158 C 0.93835 0.04938 0.90468 0.0
C1159 C 0.91911 0.96881 0.82406 0.0
C1160 C 1.01426 0.0771 0.83336 0.0
C1161 C 0.05128 0.05402 0.83825 0.0
C1162 C 0.9743 0.06309 0.84184 0.0
C1163 C 0.97097 1.02489 0.85546 0.0
C1164 C 1.00812 1.00118 0.86014 0.0
C1165 C 0.04763 1.01599 0.85156 0.0
C1166 C 0.93562 0.08942 0.83641 0.0
C1167 C 1.00619 0.96016 0.87438 0.0
H1168 H 0.86136 1.01463 0.91397 0.0
H1169 H 0.84559 0.94699 0.84586 0.0
H1170 H 0.96967 0.03502 0.90854 0.0
H1171 H 0.94432 0.08017 0.89544 0.0
H1172 H 0.92195 0.05545 0.92245 0.0
H1173 H 0.89622 0.94753 0.81458 0.0
H1174 H 0.92446 0.99718 0.81241 0.0
H1175 H 0.94989 0.95216 0.8256 0.0
H1176 H 1.01656 0.10664 0.82329 0.0
H1177 H 0.07585 0.99777 0.85548 0.0
H1178 H 0.92002 0.09893 0.85388 0.0
H1179 H 0.91232 0.07037 0.8258 0.0
H1180 H 0.94345 0.11846 0.82576 0.0
H1181 H 0.9927 0.96593 0.89295 0.0
H1182 H 0.03787 0.9454 0.87648 0.0
H1183 H 0.98493 0.93729 0.86491 0.0
C1184 C 0.80692 0.12313 0.15182 0.0
C1185 C 0.84058 0.10459 0.13881 0.0
C1186 C 0.78878 0.16155 0.14397 0.0
C1187 C 0.80528 0.18255 0.12294 0.0
C1188 C 0.84011 0.16458 0.11022 0.0
C1189 C 0.85694 0.12568 0.11811 0.0
C1190 C 0.75127 0.17916 0.15786 0.0
C1191 C 0.85949 0.18633 0.08815 0.0
C1192 C 0.73635 0.26295 0.08891 0.0
C1193 C 0.74969 0.30132 0.09949 0.0
C1194 C 0.75397 0.22403 0.09643 0.0
C1195 C 0.78648 0.22357 0.11446 0.0
C1196 C 0.8009 0.26244 0.12456 0.0
C1197 C 0.78201 0.30063 0.11721 0.0
C1198 C 0.7371 0.18332 0.0855 0.0
C1199 C 0.83619 0.26372 0.14327 0.0
H1200 H 0.79369 0.1068 0.16762 0.0
H1201 H 0.88297 0.1116 0.10797 0.0
H1202 H 0.75884 0.21128 0.16497 0.0
H1203 H 0.72385 0.18236 0.14525 0.0
H1204 H 0.74175 0.15876 0.17358 0.0
H1205 H 0.88752 0.16912 0.08088 0.0
H1206 H 0.83567 0.18885 0.07325 0.0
H1207 H 0.86931 0.21906 0.09311 0.0
H1208 H 0.71116 0.26323 0.07539 0.0
H1209 H 0.79272 0.33021 0.12532 0.0
H1210 H 0.72429 0.16279 0.10035 0.0
H1211 H 0.76311 0.16561 0.07642 0.0
H1212 H 0.71167 0.18896 0.07181 0.0
H1213 H 0.82631 0.24661 0.16017 0.0
H1214 H 0.84521 0.29664 0.14842 0.0
H1215 H 0.8646 0.24738 0.13589 0.0
C1216 C 0.70307 0.11785 0.35947 0.0
C1217 C 0.72258 0.09979 0.38016 0.0
C1218 C 0.66427 0.10217 0.35049 0.0
C1219 C 0.64409 0.06787 0.3626 0.0
C1220 C 0.66298 0.05026 0.38387 0.0
C1221 C 0.702 0.06628 0.39232 0.0
C1222 C 0.64533 0.12174 0.32771 0.0
C1223 C 0.64222 1.01407 0.39755 0.0
C1224 C 0.52581 0.04924 0.35426 0.0
C1225 C 0.52485 1.01394 0.33842 0.0
C1226 C 0.56426 0.06756 0.36184 0.0
C1227 C 0.60299 0.05057 0.35323 0.0
C1228 C 0.60235 1.0161 0.33643 0.0
C1229 C 0.56332 0.99813 0.32927 0.0
C1230 C 0.56342 0.10418 0.37979 0.0
C1231 C 0.64295 0.99738 0.3266 0.0
H1232 H 0.71868 0.14358 0.34981 0.0
H1233 H 0.71669 0.05209 0.4083 0.0
H1234 H 0.64251 0.09742 0.31302 0.0
H1235 H 0.6129 0.13336 0.33171 0.0
H1236 H 0.66466 0.14859 0.32061 0.0
H1237 H 0.66047 1.00453 0.41408 0.0
H1238 H 0.60979 1.02317 0.4034 0.0
H1239 H 0.63906 0.98618 0.3852 0.0
H1240 H 0.49639 0.06197 0.36141 0.0
H1241 H 0.56306 0.97095 0.31704 0.0
H1242 H 0.58181 0.13136 0.37239 0.0
H1243 H 0.57864 0.09461 0.3973 0.0
H1244 H 0.53067 0.11495 0.38388 0.0
H1245 H 0.6631 1.0226 0.31841 0.0
H1246 H 0.63708 0.97258 0.31245 0.0
H1247 H 0.66114 0.98308 0.34191 0.0
C1248 C 0.24016 0.24389 0.39149 0.0
C1249 C 0.26365 0.281 0.38694 0.0
C1250 C 0.25559 0.20371 0.38453 0.0
C1251 C 0.29575 0.20025 0.37292 0.0
C1252 C 0.32006 0.23747 0.36886 0.0
C1253 C 0.30371 0.27724 0.3758 0.0
C1254 C 0.22845 0.16499 0.38911 0.0
C1255 C 0.36315 0.2354 0.3568 0.0
C1256 C 0.35203 0.09318 0.37345 0.0
C1257 C 0.34376 0.0774 0.3497 0.0
C1258 C 0.33673 0.13292 0.38118 0.0
C1259 C 0.31228 0.15781 0.36489 0.0
C1260 C 0.30394 0.14223 0.34086 0.0
C1261 C 0.31984 0.1024 0.33354 0.0
C1262 C 0.34671 0.14826 0.40687 0.0
C1263 C 0.27793 0.16757 0.32289 0.0
H1264 H 0.20904 0.24629 0.39985 0.0
H1265 H 0.32224 0.30557 0.37219 0.0
H1266 H 0.22094 0.14923 0.37137 0.0
H1267 H 0.24602 0.14181 0.40048 0.0
H1268 H 0.19825 0.17285 0.3986 0.0
H1269 H 0.37865 0.26701 0.35558 0.0
H1270 H 0.3841 0.21385 0.36728 0.0
H1271 H 0.36012 0.22218 0.33794 0.0
H1272 H 0.37052 0.07437 0.38614 0.0
H1273 H 0.31311 0.09067 0.31519 0.0
H1274 H 0.31688 0.1537 0.41723 0.0
H1275 H 0.36382 0.17902 0.40602 0.0
H1276 H 0.36639 0.12536 0.41727 0.0
H1277 H 0.24608 0.17381 0.33076 0.0
H1278 H 0.27402 0.15105 0.30495 0.0
H1279 H 0.29322 0.19877 0.31956 0.0
C1280 C 0.05835 0.99548 0.14202 0.0
C1281 C 1.02161 1.01946 0.1379 0.0
C1282 C 0.0983 1.00885 0.13305 0.0
C1283 C 0.10198 0.04734 0.11969 0.0
C1284 C 0.06509 0.07186 0.11572 0.0
C1285 C 1.0256 0.05767 0.12477 0.0
C1286 C 0.13662 0.98161 0.13776 0.0
C1287 C 0.06728 0.1132 0.10183 0.0
C1288 C 0.20926 0.10411 0.11759 0.0
C1289 C 0.22488 0.09365 0.09406 0.0
C1290 C 0.16973 0.0892 0.12606 0.0
C1291 C 0.14453 0.06294 0.11075 0.0
C1292 C 0.1598 0.0524 0.08689 0.0
C1293 C 0.19965 0.06788 0.07882 0.0
C1294 C 0.15497 0.10157 0.15153 0.0
C1295 C 0.13408 1.02455 0.06991 0.0
H1296 H 0.05583 0.96574 0.15187 0.0
H1297 H 0.99763 0.07658 0.12138 0.0
H1298 H 0.15182 0.97283 0.12005 0.0
H1299 H 0.16036 0.99972 0.14859 0.0
H1300 H 0.12848 0.95213 0.14791 0.0
H1301 H 0.03573 0.12834 0.09997 0.0
H1302 H 0.08885 0.13561 0.11143 0.0
H1303 H 0.08055 0.1078 0.08316 0.0
H1304 H 0.22812 0.12403 0.12964 0.0
H1305 H 0.21122 0.05938 0.06068 0.0
H1306 H 0.14939 0.07275 0.16277 0.0
H1307 H 0.12441 0.11871 0.15038 0.0
H1308 H 0.17826 0.12211 0.16123 0.0
H1309 H 0.1279 0.99349 0.07878 0.0
H1310 H 0.15025 1.01901 0.05202 0.0
H1311 H 0.10286 0.03934 0.06634 0.0
C1312 C 0.21867 0.95265 0.86156 0.0
C1313 C 0.22882 0.96896 0.8382 0.0
C1314 C 0.2333 0.91278 0.86928 0.0
C1315 C 0.25913 0.8883 0.85339 0.0
C1316 C 0.26908 0.90422 0.82964 0.0
C1317 C 0.25367 0.94419 0.82229 0.0
C1318 C 0.2214 0.89702 0.89461 0.0
C1319 C 0.29665 0.87931 0.81214 0.0
C1320 C 0.3292 0.8034 0.8826 0.0
C1321 C 0.30618 0.76609 0.87781 0.0
C1322 C 0.31452 0.84322 0.87459 0.0
C1323 C 0.27558 0.84608 0.8617 0.0
C1324 C 0.25192 0.80861 0.85717 0.0
C1325 C 0.26753 0.76923 0.86514 0.0
C1326 C 0.34093 0.88224 0.87972 0.0
C1327 C 0.21004 0.81008 0.84381 0.0
H1328 H 0.19936 0.97128 0.87403 0.0
H1329 H 0.26196 0.95644 0.80429 0.0
H1330 H 0.20518 0.86584 0.89319 0.0
H1331 H 0.2504 0.89233 0.90576 0.0
H1332 H 0.20023 0.91936 0.90453 0.0
H1333 H 0.30127 0.89579 0.79428 0.0
H1334 H 0.32813 0.87384 0.82059 0.0
H1335 H 0.28226 0.84775 0.80857 0.0
H1336 H 0.35924 0.80143 0.89215 0.0
H1337 H 0.24937 0.74072 0.86136 0.0
H1338 H 0.32248 0.90505 0.89097 0.0
H1339 H 0.34908 0.89829 0.86218 0.0
H1340 H 0.37074 0.8747 0.8896 0.0
H1341 H 0.18768 0.83097 0.85386 0.0
H1342 H 0.19532 0.7782 0.84186 0.0
H1343 H 0.21458 0.82377 0.8252 0.0
C1344 C 0.54042 1.01555 0.61665 0.0
C1345 C 0.54309 0.04899 0.63376 0.0
C1346 C 0.50109 0.99835 0.60952 0.0
C1347 C 0.46319 1.01464 0.61977 0.0
C1348 C 0.46565 0.04742 0.63762 0.0
C1349 C 0.50545 0.06421 0.64436 0.0
C1350 C 0.50007 0.96352 0.59042 0.0
C1351 C 0.42611 0.06554 0.64917 0.0
C1352 C 0.36032 1.00393 0.58335 0.0
C1353 C 0.34003 0.96979 0.59511 0.0
C1354 C 0.40044 1.01845 0.59101 0.0
C1355 C 0.42098 0.9986 0.61107 0.0
C1356 C 0.40106 0.96366 0.62276 0.0
C1357 C 0.36101 0.9496 0.61461 0.0
C1358 C 0.42061 0.0555 0.57782 0.0
C1359 C 0.42171 0.9416 0.64421 0.0
H1360 H 0.56912 1.00333 0.60832 0.0
H1361 H 0.50696 0.08993 0.65759 0.0
H1362 H 0.48207 0.9358 0.59747 0.0
H1363 H 0.48347 0.97483 0.57371 0.0
H1364 H 0.53234 0.95294 0.58505 0.0
H1365 H 0.43339 0.08923 0.66374 0.0
H1366 H 0.4066 0.08104 0.63483 0.0
H1367 H 0.40661 0.03978 0.65732 0.0
H1368 H 0.3446 1.01978 0.56825 0.0
H1369 H 0.34573 0.92331 0.62394 0.0
H1370 H 0.45229 0.04643 0.57071 0.0
H1371 H 0.42536 0.08218 0.59087 0.0
H1372 H 0.40108 0.06681 0.56219 0.0
H1373 H 0.45357 0.93003 0.63884 0.0
H1374 H 0.40263 0.91433 0.65098 0.0
H1375 H 0.42619 0.96438 0.65959 0.0
C1376 C 0.35619 0.16919 0.97651 0.0
C1377 C 0.32371 0.14991 -0.0098 0.0
C1378 C 0.35679 0.16661 0.9508 0.0
C1379 C 0.32342 0.14528 0.93866 0.0
C1380 C 0.29018 0.12624 0.95248 0.0
C1381 C 0.29125 0.12805 0.97823 0.0
C1382 C 0.39362 0.18553 0.93676 0.0
C1383 C 0.25339 0.10407 0.9401 0.0
C1384 C 0.28287 0.1684 0.87576 0.0
C1385 C 0.28857 0.12869 0.86473 0.0
C1386 C 0.29864 0.17653 0.89928 0.0
C1387 C 0.3214 0.14435 0.91149 0.0
C1388 C 0.33361 0.1073 0.89855 0.0
C1389 C 0.31659 0.09961 0.87512 0.0
C1390 C 0.2851 0.21661 0.9123 0.0
C1391 C 0.35979 0.07333 0.91063 0.0
H1392 H 0.3821 0.18487 0.986 0.0
H1393 H 0.26669 0.11265 -0.01098 0.0
H1394 H 0.41239 0.15967 0.92826 0.0
H1395 H 0.38229 0.20602 0.92161 0.0
H1396 H 0.4149 0.20448 0.94882 0.0
H1397 H 0.22944 0.09246 0.95354 0.0
H1398 H 0.23759 0.126 0.92711 0.0
H1399 H 0.26502 0.07662 0.92927 0.0
H1400 H 0.26135 0.1909 0.8674 0.0
H1401 H 0.32104 0.06894 0.86646 0.0
H1402 H 0.31131 0.23004 0.92344 0.0
H1403 H 0.25854 0.20913 0.92502 0.0
H1404 H 0.27417 0.24113 0.89913 0.0
H1405 H 0.38472 0.08747 0.92248 0.0
H1406 H 0.37496 0.05237 0.89674 0.0
H1407 H 0.33903 0.05348 0.92247 0.0
C1408 C 0.68782 0.56905 0.13249 0.0
C1409 C 0.66758 0.53843 0.11811 0.0
C1410 C 0.6721 0.57913 0.15585 0.0
C1411 C 0.63629 0.55681 0.16495 0.0
C1412 C 0.61243 0.53053 0.14901 0.0
C1413 C 0.62818 0.52218 0.1254 0.0
C1414 C 0.69742 0.60887 0.17199 0.0
C1415 C 0.57401 0.50626 0.15783 0.0
C1416 C 0.65869 0.52983 0.23102 0.0
C1417 C 0.63746 0.56265 0.24317 0.0
C1418 C 0.65516 0.52502 0.20547 0.0
C1419 C 0.63027 0.55409 0.1919 0.0
C1420 C 0.60534 0.58433 0.20434 0.0
C1421 C 0.60895 0.58803 0.22991 0.0
C1422 C 0.68101 0.49115 0.19279 0.0
C1423 C 0.57799 0.61543 0.19059 0.0
H1424 H 0.71846 0.58126 0.12674 0.0
H1425 H 0.61283 0.49818 0.11414 0.0
H1426 H 0.67615 0.62968 0.18285 0.0
H1427 H 0.71655 0.59011 0.18514 0.0
H1428 H 0.71934 0.62903 0.16102 0.0
H1429 H 0.55261 0.49824 0.14228 0.0
H1430 H 0.58448 0.4761 0.16632 0.0
H1431 H 0.55597 0.52431 0.17188 0.0
H1432 H 0.68003 0.50954 0.24118 0.0
H1433 H 0.59154 0.61295 0.2392 0.0
H1434 H 0.70792 0.50613 0.18285 0.0
H1435 H 0.66148 0.47396 0.17903 0.0
H1436 H 0.69398 0.46781 0.20605 0.0
H1437 H 0.59823 0.64151 0.18344 0.0
H1438 H 0.55339 0.62952 0.20272 0.0
H1439 H 0.56225 0.60017 0.17461 0.0
C1440 C 0.22786 0.86627 0.4858 0.0
C1441 C 0.25168 0.89537 0.4998 0.0
C1442 C 0.23497 0.86145 0.46059 0.0
C1443 C 0.2671 0.88578 0.44935 0.0
C1444 C 0.29375 0.91233 0.46372 0.0
C1445 C 0.28558 0.91693 0.48888 0.0
C1446 C 0.20603 0.83279 0.4459 0.0
C1447 C 0.32935 0.9378 0.4523 0.0
C1448 C 0.3185 0.87063 0.3884 0.0
C1449 C 0.3051 0.90777 0.37674 0.0
C1450 C 0.30218 0.85944 0.41135 0.0
C1451 C 0.27179 0.8861 0.42241 0.0
C1452 C 0.25311 0.91937 0.40879 0.0
C1453 C 0.27023 0.93002 0.38583 0.0
C1454 C 0.322 0.82303 0.42508 0.0
C1455 C 0.21927 0.94731 0.41981 0.0
H1456 H 0.20191 0.84887 0.49419 0.0
H1457 H 0.30437 0.93898 0.49967 0.0
H1458 H 0.18098 0.85222 0.4372 0.0
H1459 H 0.22343 0.81625 0.43097 0.0
H1460 H 0.19034 0.80874 0.45776 0.0
H1461 H 0.34894 0.95437 0.46633 0.0
H1462 H 0.35026 0.91687 0.44126 0.0
H1463 H 0.31604 0.9619 0.43966 0.0
H1464 H 0.34503 0.85303 0.38086 0.0
H1465 H 0.25969 0.95847 0.37655 0.0
H1466 H 0.29813 0.80584 0.43631 0.0
H1467 H 0.34655 0.83562 0.43777 0.0
H1468 H 0.33742 0.80025 0.4123 0.0
H1469 H 0.19562 0.92812 0.43007 0.0
H1470 H 0.20265 0.966 0.40549 0.0
H1471 H 0.2341 0.96977 0.43302 0.0
C1472 C 0.82592 0.55516 0.63463 0.0
C1473 C 0.86134 0.55344 0.61919 0.0
C1474 C 0.82846 0.54134 0.65891 0.0
C1475 C 0.86687 0.52366 0.66735 0.0
C1476 C 0.9011 0.51728 0.65086 0.0
C1477 C 0.89837 0.53351 0.62693 0.0
C1478 C 0.79159 0.54971 0.67605 0.0
C1479 C 0.94154 0.49619 0.65897 0.0
C1480 C 0.89248 0.54377 0.73429 0.0
C1481 C 0.87523 0.50754 0.74507 0.0
C1482 C 0.8903 0.54929 0.70874 0.0
C1483 C 0.87242 0.5167 0.69394 0.0
C1484 C 0.85656 0.4793 0.70486 0.0
C1485 C 0.85728 0.47566 0.73043 0.0
C1486 C 0.90594 0.5904 0.69771 0.0
C1487 C 0.8393 0.44306 0.6896 0.0
H1488 H 0.79752 0.57114 0.62843 0.0
H1489 H 0.92573 0.53271 0.61483 0.0
H1490 H 0.78234 0.5204 0.68595 0.0
H1491 H 0.80117 0.57344 0.69012 0.0
H1492 H 0.76339 0.56192 0.66616 0.0
H1493 H 0.96076 0.48547 0.64298 0.0
H1494 H 0.96084 0.51893 0.66982 0.0
H1495 H 0.93456 0.46851 0.67091 0.0
H1496 H 0.90665 0.568 0.74585 0.0
H1497 H 0.84452 0.44742 0.73903 0.0
H1498 H 0.87993 0.60584 0.68738 0.0
H1499 H 0.93192 0.58409 0.68444 0.0
H1500 H 0.91778 0.61288 0.7119 0.0
H1501 H 0.81402 0.45421 0.67707 0.0
H1502 H 0.82623 0.41711 0.70116 0.0
H1503 H 0.86503 0.43002 0.6779 0.0
C1504 C 0.79045 0.90632 0.09947 0.0
C1505 C 0.78448 0.94607 0.11035 0.0
C1506 C 0.77492 0.89798 0.07594 0.0
C1507 C 0.75229 0.93008 0.06358 0.0
C1508 C 0.73964 0.96709 0.07641 0.0
C1509 C 0.75634 0.97493 0.09988 0.0
C1510 C 0.78899 0.85798 0.06302 0.0
C1511 C 0.7137 1.00105 0.06413 0.0
C1512 C 0.78579 0.94668 -0.00253 0.0
C1513 C 0.75402 0.92472 0.98499 0.0
C1514 C 0.78549 0.94853 0.02321 0.0
C1515 C 0.7515 0.9295 0.03643 0.0
C1516 C 0.71868 0.90834 0.02374 0.0
C1517 C 0.72079 0.9055 -0.00191 0.0
C1518 C 0.82159 0.97074 0.03623 0.0
C1519 C 0.68115 0.88945 0.03716 0.0
H1520 H 0.81204 0.88399 0.10793 0.0
H1521 H 0.75166 1.00562 0.10849 0.0
H1522 H 0.76351 0.84488 0.05121 0.0
H1523 H 0.8165 0.86543 0.05099 0.0
H1524 H 0.79882 0.83322 0.07633 0.0
H1525 H 0.69741 1.0213 0.07794 0.0
H1526 H 0.73493 1.02162 0.053 0.0
H1527 H 0.68971 0.98705 0.05159 0.0
H1528 H 0.81085 0.96211 -0.0129 0.0
H1529 H 0.69549 0.88964 -0.01184 0.0
H1530 H 0.83689 0.94875 0.04939 0.0
H1531 H 0.80935 0.99803 0.04696 0.0
H1532 H 0.84611 0.98257 0.02321 0.0
H1533 H 0.69181 0.8643 0.04991 0.0
H1534 H 0.6574 0.87565 0.02434 0.0
H1535 H 0.66547 0.91415 0.04849 0.0
C1536 C 0.35891 0.49961 0.84187 0.0
C1537 C 0.38605 0.52947 0.85259 0.0
C1538 C 0.36908 0.48211 0.81889 0.0
C1539 C 0.4065 0.49584 0.80681 0.0
C1540 C 0.43733 0.51939 0.81986 0.0
C1541 C 0.42671 0.5358 0.8429 0.0
C1542 C 0.33687 0.45456 0.80598 0.0
C1543 C 0.47818 0.53366 0.8079 0.0
C1544 C 0.42888 0.46804 0.74033 0.0
C1545 C 0.40755 0.50082 0.72821 0.0
C1546 C 0.42868 0.46546 0.76602 0.0
C1547 C 0.40744 0.49703 0.77968 0.0
C1548 C 0.38703 0.53103 0.76741 0.0
C1549 C 0.38663 0.53197 0.74169 0.0
C1550 C 0.44911 0.42782 0.77827 0.0
C1551 C 0.36485 0.56603 0.78139 0.0
H1552 H 0.32768 0.49428 0.84968 0.0
H1553 H 0.44791 0.55835 0.8517 0.0
H1554 H 0.31717 0.47452 0.79375 0.0
H1555 H 0.35268 0.43025 0.79442 0.0
H1556 H 0.31554 0.43851 0.81936 0.0
H1557 H 0.50193 0.54379 0.82181 0.0
H1558 H 0.49201 0.50809 0.79642 0.0
H1559 H 0.4716 0.56103 0.79569 0.0
H1560 H 0.4438 0.4431 0.72966 0.0
H1561 H 0.36959 0.55669 0.73208 0.0
H1562 H 0.42417 0.40429 0.78298 0.0
H1563 H 0.46523 0.43694 0.79562 0.0
H1564 H 0.47242 0.41216 0.76593 0.0
H1565 H 0.33755 0.55276 0.79177 0.0
H1566 H 0.35294 0.5913 0.76903 0.0
H1567 H 0.38679 0.58067 0.79493 0.0
C1568 C 0.75766 0.18879 0.59049 0.0
C1569 C 0.7689 0.14956 0.6005 0.0
C1570 C 0.77325 0.20121 0.56756 0.0
C1571 C 0.8008 0.17365 0.55482 0.0
C1572 C 0.81771 0.13765 0.56681 0.0
C1573 C 0.8013 0.12579 0.58976 0.0
C1574 C 0.75526 0.24035 0.55562 0.0
C1575 C 0.84858 0.10854 0.55402 0.0
C1576 C 0.78058 0.15247 0.48754 0.0
C1577 C 0.81496 0.1733 0.47662 0.0
C1578 C 0.7746 0.15409 0.51304 0.0
C1579 C 0.804 0.17679 0.52782 0.0
C1580 C 0.83699 0.20028 0.51678 0.0
C1581 C 0.84187 0.19856 0.49124 0.0
C1582 C 0.73808 0.12967 0.52426 0.0
C1583 C 0.86892 0.22476 0.53191 0.0
H1584 H 0.7329 0.20732 0.59921 0.0
H1585 H 0.81004 0.09556 0.59771 0.0
H1586 H 0.77961 0.25708 0.54451 0.0
H1587 H 0.72917 0.23089 0.54305 0.0
H1588 H 0.74222 0.26269 0.56951 0.0
H1589 H 0.8647 0.08722 0.56726 0.0
H1590 H 0.83124 0.08863 0.54048 0.0
H1591 H 0.87289 0.12701 0.54383 0.0
H1592 H 0.75947 0.13334 0.47633 0.0
H1593 H 0.86843 0.21517 0.48296 0.0
H1594 H 0.71938 0.15054 0.53661 0.0
H1595 H 0.75048 0.10324 0.53557 0.0
H1596 H 0.71653 0.11622 0.51009 0.0
H1597 H 0.85364 0.24105 0.54769 0.0
H1598 H 0.88609 0.24869 0.52065 0.0
H1599 H 0.89256 0.20239 0.53948 0.0
C1600 C 0.14042 0.49867 0.33698 0.0
C1601 C 0.17762 0.50982 0.3494 0.0
C1602 C 0.13042 0.51769 0.31465 0.0
C1603 C 0.15842 0.54849 0.30497 0.0
C1604 C 0.19169 0.56503 0.31961 0.0
C1605 C 0.20122 0.5451 0.34191 0.0
C1606 C 0.09395 0.50002 0.29982 0.0
C1607 C 0.22068 0.59955 0.31022 0.0
C1608 C 0.18646 0.53161 0.23825 0.0
C1609 C 0.16099 0.56171 0.2269 0.0
C1610 C 0.18566 0.52703 0.26381 0.0
C1611 C 0.15974 0.55432 0.27814 0.0
C1612 C 0.13424 0.58511 0.2667 0.0
C1613 C 0.13487 0.58816 0.24107 0.0
C1614 C 0.21264 0.49305 0.27543 0.0
C1615 C 0.10767 0.61581 0.28142 0.0
H1616 H 0.12169 0.47192 0.34337 0.0
H1617 H 0.22963 0.55403 0.35188 0.0
H1618 H 0.0768 0.52562 0.29014 0.0
H1619 H 0.10648 0.47791 0.28567 0.0
H1620 H 0.0711 0.48234 0.31157 0.0
H1621 H 0.23782 0.61547 0.32552 0.0
H1622 H 0.2445 0.58553 0.29758 0.0
H1623 H 0.20264 0.62362 0.29975 0.0
H1624 H 0.207 0.51181 0.22711 0.0
H1625 H 0.11627 0.61253 0.23216 0.0
H1626 H 0.19255 0.47153 0.28666 0.0
H1627 H 0.23631 0.50777 0.2879 0.0
H1628 H 0.2298 0.47376 0.26151 0.0
H1629 H 0.09093 0.59963 0.29675 0.0
H1630 H 0.0839 0.63211 0.26977 0.0
H1631 H 0.12869 0.64025 0.28967 0.0
C1632 C 0.81398 0.60884 0.37154 0.0
C1633 C 0.78234 0.63046 0.35885 0.0
C1634 C 0.82758 0.62332 0.39459 0.0
C1635 C 0.80743 0.65896 0.40529 0.0
C1636 C 0.77949 0.68382 0.39106 0.0
C1637 C 0.7678 0.66949 0.36763 0.0
C1638 C 0.85906 0.59713 0.4088 0.0
C1639 C 0.75698 0.72178 0.40175 0.0
C1640 C 0.78463 0.6388 0.4725 0.0
C1641 C 0.81537 0.664 0.48385 0.0
C1642 C 0.78009 0.63905 0.44688 0.0
C1643 C 0.80815 0.66392 0.43237 0.0
C1644 C 0.83838 0.69049 0.44384 0.0
C1645 C 0.84129 0.69059 0.46956 0.0
C1646 C 0.74648 0.61122 0.4353 0.0
C1647 C 0.86945 0.71657 0.42902 0.0
H1648 H 0.82479 0.57842 0.36469 0.0
H1649 H 0.74287 0.68578 0.35775 0.0
H1650 H 0.88088 0.61774 0.4195 0.0
H1651 H 0.84182 0.57653 0.42202 0.0
H1652 H 0.87806 0.57653 0.39641 0.0
H1653 H 0.74466 0.74285 0.38707 0.0
H1654 H 0.72966 0.71065 0.41295 0.0
H1655 H 0.77815 0.74042 0.41396 0.0
H1656 H 0.76473 0.6183 0.48365 0.0
H1657 H 0.86565 0.70956 0.47839 0.0
H1658 H 0.76175 0.58474 0.42521 0.0
H1659 H 0.72769 0.62959 0.42181 0.0
H1660 H 0.7245 0.59757 0.44921 0.0
H1661 H 0.89397 0.69535 0.42116 0.0
H1662 H 0.88554 0.74097 0.44049 0.0
H1663 H 0.8535 0.73249 0.41342 0.0
C1664 C 0.19765 0.07191 0.6261 0.0
C1665 C 0.17548 0.04018 0.61359 0.0
C1666 C 0.18476 0.08439 0.64968 0.0
C1667 C 0.15016 0.06311 0.6609 0.0
C1668 C 0.12399 0.03604 0.64671 0.0
C1669 C 0.13667 1.02554 0.62279 0.0
C1670 C 0.21201 0.11532 0.66385 0.0
C1671 C 0.08684 1.01268 0.65788 0.0
C1672 C 0.17904 0.03417 0.72606 0.0
C1673 C 0.1556 0.06367 0.73951 0.0
C1674 C 0.17517 1.03186 0.70043 0.0
C1675 C 0.1484 0.06091 0.68806 0.0
C1676 C 0.12331 0.08954 0.70167 0.0
C1677 C 0.12684 0.09022 0.72734 0.0
C1678 C 0.20142 0.99975 0.68652 0.0
C1679 C 0.09526 0.12163 0.68921 0.0
H1680 H 0.22775 0.08304 0.61885 0.0
H1681 H 0.11975 1.00079 0.61291 0.0
H1682 H 0.19229 0.13591 0.67581 0.0
H1683 H 0.23409 0.09753 0.67584 0.0
H1684 H 0.23113 0.13561 0.65131 0.0
H1685 H 0.0644 1.00149 0.64351 0.0
H1686 H 0.09869 0.98452 0.66792 0.0
H1687 H 0.0695 1.03284 0.67123 0.0
H1688 H 0.20119 1.01373 0.73554 0.0
H1689 H 0.10913 0.11362 0.73773 0.0
H1690 H 0.22675 1.01628 0.67604 0.0
H1691 H 0.18146 0.98225 0.67308 0.0
H1692 H 0.21656 0.97646 0.699 0.0
H1693 H 0.1151 0.14848 0.68268 0.0
H1694 H 0.07095 0.1344 0.70203 0.0
H1695 H 0.07909 0.10784 0.67294 0.0
C1696 C 0.8257 0.3815 0.89281 0.0
C1697 C 0.80763 0.41604 0.88058 0.0
C1698 C 0.81067 0.36901 0.91585 0.0
C1699 C 0.77717 0.392 0.92668 0.0
C1700 C 0.75509 0.42287 0.91288 0.0
C1701 C 0.77065 0.43455 0.88972 0.0
C1702 C 0.83404 0.33498 0.92974 0.0
C1703 C 0.71846 0.44726 0.92374 0.0
C1704 C 0.73145 0.36863 -0.01067 0.0
C1705 C 0.75204 0.39962 0.00364 0.0
C1706 C 0.7408 0.36395 0.96432 0.0
C1707 C 0.77147 0.3908 0.95358 0.0
C1708 C 0.79489 0.41959 0.96835 0.0
C1709 C 0.78491 0.42359 -0.0067 0.0
C1710 C 0.71573 0.33244 0.94921 0.0
C1711 C 0.82865 0.44817 0.95751 0.0
H1712 H 0.85382 0.36656 0.88528 0.0
H1713 H 0.75648 0.46095 0.88005 0.0
H1714 H 0.85676 0.35009 0.94266 0.0
H1715 H 0.81187 0.31527 0.94075 0.0
H1716 H 0.85217 0.31405 0.91709 0.0
H1717 H 0.7006 0.4648 0.90944 0.0
H1718 H 0.69634 0.42566 0.93352 0.0
H1719 H 0.73072 0.4705 0.93738 0.0
H1720 H 0.70641 0.34942 -0.00269 0.0
H1721 H 0.80133 0.44712 0.00434 0.0
H1722 H 0.73585 0.31708 0.93503 0.0
H1723 H 0.68986 0.34926 0.93954 0.0
H1724 H 0.7012 0.30747 0.96093 0.0
H1725 H 0.85218 0.42918 0.9471 0.0
H1726 H 0.84565 0.46677 0.97182 0.0
H1727 H 0.81393 0.47064 0.9444 0.0
C1728 C 0.43539 0.97198 0.23186 0.0
C1729 C 0.40628 0.99343 0.2469 0.0
C1730 C 0.43592 0.97837 0.20641 0.0
C1731 C 0.40734 1.0076 0.19609 0.0
C1732 C 0.37838 1.0299 0.21129 0.0
C1733 C 0.37781 1.02201 0.23658 0.0
C1734 C 0.46617 0.95318 0.19059 0.0
C1735 C 0.34805 0.06216 0.20088 0.0
C1736 C 0.42441 0.06985 0.13879 0.0
C1737 C 0.39026 0.0552 0.12468 0.0
C1738 C 0.43375 0.05128 0.16136 0.0
C1739 C 0.40855 1.01699 0.16957 0.0
C1740 C 0.37838 0.99808 0.15367 0.0
C1741 C 0.36934 1.0177 0.13119 0.0
C1742 C 0.46645 0.07215 0.1777 0.0
C1743 C 0.35215 0.96039 0.16159 0.0
H1744 H 0.45668 0.94894 0.23988 0.0
H1745 H 0.35518 0.03817 0.24832 0.0
H1746 H 0.44788 0.93177 0.17831 0.0
H1747 H 0.48508 0.97453 0.17862 0.0
H1748 H 0.4882 0.93371 0.20174 0.0
H1749 H 0.32838 0.07737 0.21538 0.0
H1750 H 0.36594 0.08728 0.191 0.0
H1751 H 0.3266 0.04674 0.18738 0.0
H1752 H 0.44121 0.09839 0.13328 0.0
H1753 H 0.34328 1.00611 0.12004 0.0
H1754 H 0.48575 0.0482 0.18742 0.0
H1755 H 0.45007 0.09152 0.19187 0.0
H1756 H 0.48801 0.09329 0.16711 0.0
H1757 H 0.37154 0.93752 0.17214 0.0
H1758 H 0.33786 0.94382 0.14554 0.0
H1759 H 0.32609 0.97129 0.17377 0.0
C1760 C 0.25556 0.44992 0.59258 0.0
C1761 C 0.29091 0.42855 0.60161 0.0
C1762 C 0.23662 0.43633 0.57063 0.0
C1763 C 0.25432 0.40141 0.55786 0.0
C1764 C 0.28492 0.3757 0.56937 0.0
C1765 C 0.30292 0.38969 0.59134 0.0
C1766 C 0.20222 0.46297 0.55935 0.0
C1767 C 0.3038 0.33759 0.55665 0.0
C1768 C 0.21787 0.37263 0.49373 0.0
C1769 C 0.24417 0.39894 0.4795 0.0
C1770 C 0.22051 0.37289 0.51942 0.0
C1771 C 0.25067 0.39951 0.53085 0.0
C1772 C 0.27849 0.42482 0.51643 0.0
C1773 C 0.27441 0.42465 0.49085 0.0
C1774 C 0.18958 0.34647 0.53415 0.0
C1775 C 0.31204 0.45282 0.52797 0.0
H1776 H 0.24603 0.47969 0.60089 0.0
H1777 H 0.32983 0.37285 0.59891 0.0
H1778 H 0.21654 0.48508 0.54578 0.0
H1779 H 0.17888 0.4428 0.54948 0.0
H1780 H 0.18541 0.48204 0.57351 0.0
H1781 H 0.3201 0.31642 0.56989 0.0
H1782 H 0.27917 0.31909 0.54678 0.0
H1783 H 0.32745 0.34849 0.54286 0.0
H1784 H 0.19369 0.35349 0.48485 0.0
H1785 H 0.29442 0.44506 0.4797 0.0
H1786 H 0.16333 0.36704 0.54058 0.0
H1787 H 0.20469 0.33259 0.55066 0.0
H1788 H 0.1757 0.32045 0.5229 0.0
H1789 H 0.29679 0.4777 0.53938 0.0
H1790 H 0.33239 0.46862 0.514 0.0
H1791 H 0.33261 0.43385 0.54024 0.0
C1792 C 0.92578 0.04425 0.35406 0.0
C1793 C 0.88602 1.02983 0.36191 0.0
C1794 C 0.94042 0.03437 0.33043 0.0
C1795 C 0.91521 1.0081 0.3152 0.0
C1796 C 0.87942 0.98689 0.32514 0.0
C1797 C 0.86458 0.99884 0.3484 0.0
C1798 C 0.97876 0.05764 0.32063 0.0
C1799 C 0.85307 0.95678 0.30984 0.0
C1800 C 0.89065 0.03924 0.24988 0.0
C1801 C 0.91409 1.00946 0.23667 0.0
C1802 C 0.89346 0.04115 0.27556 0.0
C1803 C 0.91907 1.01137 0.28817 0.0
C1804 C 0.94439 0.9826 0.27479 0.0
C1805 C 0.94196 0.98234 0.24908 0.0
C1806 C 0.86706 0.07344 0.28924 0.0
C1807 C 0.97134 0.94987 0.28749 0.0
H1808 H 0.94215 0.0684 0.36472 0.0
H1809 H 0.83376 0.98786 0.35464 0.0
H1810 H 0.99664 0.03798 0.30727 0.0
H1811 H 0.96816 0.08668 0.31096 0.0
H1812 H 1.00034 0.06747 0.33575 0.0
H1813 H 0.83257 0.93638 0.32157 0.0
H1814 H 0.83234 0.97525 0.29739 0.0
H1815 H 0.87355 0.93626 0.29828 0.0
H1816 H 0.86922 0.06013 0.24018 0.0
H1817 H 0.95967 0.95877 0.23882 0.0
H1818 H 0.88652 0.09015 0.30324 0.0
H1819 H 0.84075 0.05715 0.29903 0.0
H1820 H 0.85319 0.09738 0.27668 0.0
H1821 H 0.98645 0.96292 0.3043 0.0
H1822 H 0.99643 0.93744 0.27508 0.0
H1823 H 0.95091 0.92289 0.29318 0.0
C1824 C 0.30358 0.62304 0.09018 0.0
C1825 C 0.26932 0.64638 0.09918 0.0
C1826 C 0.32143 0.63344 0.06735 0.0
C1827 C 0.30379 0.66723 0.05373 0.0
C1828 C 0.27479 0.69523 0.06497 0.0
C1829 C 0.25791 0.68444 0.08785 0.0
C1830 C 0.35441 0.60458 0.05632 0.0
C1831 C 0.25627 0.73237 0.0513 0.0
C1832 C 0.33745 0.68716 -0.01196 0.0
C1833 C 0.30983 0.65987 0.97534 0.0
C1834 C 0.33609 0.69017 0.01369 0.0
C1835 C 0.30584 0.66589 0.02667 0.0
C1836 C 0.27666 0.63963 0.01378 0.0
C1837 C 0.27954 0.63643 -0.01181 0.0
C1838 C 0.3686 0.7173 0.02674 0.0
C1839 C 0.24308 0.61402 0.02704 0.0
H1840 H 0.3129 0.59402 0.09932 0.0
H1841 H 0.23209 0.70303 0.09541 0.0
H1842 H 0.3387 0.58134 0.04393 0.0
H1843 H 0.37763 0.6229 0.0452 0.0
H1844 H 0.3716 0.58673 0.07077 0.0
H1845 H 0.24129 0.75546 0.06407 0.0
H1846 H 0.28087 0.74899 0.04031 0.0
H1847 H 0.23162 0.72065 0.03839 0.0
H1848 H 0.36181 0.70439 0.97805 0.0
H1849 H 0.25865 0.6151 0.97823 0.0
H1850 H 0.39511 0.69687 0.03283 0.0
H1851 H 0.3552 0.73286 0.04332 0.0
H1852 H 0.38185 0.74208 0.01438 0.0
H1853 H 0.25832 0.58997 0.03893 0.0
H1854 H 0.22143 0.59736 0.0141 0.0
H1855 H 0.22385 0.63493 0.03908 0.0
C1856 C 0.64429 1.00305 0.8397 0.0
C1857 C 0.68099 1.01757 0.85151 0.0
C1858 C 0.63306 1.01873 0.81668 0.0
C1859 C 0.65903 0.04997 0.80569 0.0
C1860 C 0.69194 0.06953 0.81936 0.0
C1861 C 0.70285 0.05278 0.84234 0.0
C1862 C 0.59737 0.99744 0.80283 0.0
C1863 C 0.71896 0.10435 0.80847 0.0
C1864 C 0.68493 0.0335 0.73856 0.0
C1865 C 0.65813 0.06276 0.72743 0.0
C1866 C 0.68478 1.02857 0.76411 0.0
C1867 C 0.6581 0.05462 0.77872 0.0
C1868 C 0.63061 0.08393 0.76751 0.0
C1869 C 0.63061 0.08732 0.74187 0.0
C1870 C 0.71372 0.99599 0.77548 0.0
C1871 C 0.60281 0.11308 0.78253 0.0
H1872 H 0.62696 0.97628 0.84728 0.0
H1873 H 0.73096 0.06423 0.85173 0.0
H1874 H 0.57854 1.02088 0.79238 0.0
H1875 H 0.61089 0.97464 0.78938 0.0
H1876 H 0.57581 0.97976 0.81537 0.0
H1877 H 0.73634 0.1222 0.82295 0.0
H1878 H 0.74256 0.09026 0.79572 0.0
H1879 H 0.69934 0.12679 0.79776 0.0
H1880 H 0.70638 1.01494 0.72728 0.0
H1881 H 0.61067 0.11087 0.7332 0.0
H1882 H 0.69518 0.97409 0.78734 0.0
H1883 H 0.73754 1.012 0.78731 0.0
H1884 H 0.73076 0.97696 0.76139 0.0
H1885 H 0.58636 0.09554 0.79745 0.0
H1886 H 0.57871 0.12918 0.77102 0.0
H1887 H 0.62287 0.13769 0.79139 0.0
loop_
_geom_bond_atom_site_label_1
_geom_bond_atom_site_label_2
_geom_bond_distance
_geom_bond_site_symmetry_2
_ccdc_geom_bond_type
Fe0 O2 1.918 . S
Fe0 O5 1.997 . S
Fe0 O6 2.002 . S
Fe0 O11 1.976 . S
Fe0 O14 1.996 . S
Fe1 O2 1.918 . S
Fe1 O9 1.997 . S
Fe1 O12 1.996 . S
Fe1 O16 1.976 . S
Fe1 O19 2.002 . S
O2 Fe0 1.918 . S
O2 Fe1 1.918 . S
O2 Fe3 1.918 . S
Fe3 O2 1.918 . S
Fe3 O4 2.002 . S
Fe3 O13 1.976 . S
Fe3 O17 1.996 . S
Fe3 O20 1.997 . S
O4 Fe3 2.002 . S
O4 C21 1.295 . S
O5 Fe0 1.997 . S
O5 C21 1.235 . S
O6 Fe0 2.002 . S
O6 C7 1.295 . S
C7 O6 1.295 . S
C7 O9 1.235 . S
C8 O13 1.287 . S
C8 O14 1.255 . S
O9 Fe1 1.997 . S
O9 C7 1.235 . S
C10 O16 1.287 . S
C10 O17 1.255 . S
O11 Fe0 1.976 . S
O11 C18 1.287 . S
O12 Fe1 1.996 . S
O12 C18 1.255 . S
O13 Fe3 1.976 . S
O13 C8 1.287 . S
O14 Fe0 1.996 . S
O14 C8 1.255 . S
C15 O19 1.295 . S
C15 O20 1.235 . S
O16 Fe1 1.976 . S
O16 C10 1.287 . S
O17 Fe3 1.996 . S
O17 C10 1.255 . S
C18 O11 1.287 . S
C18 O12 1.255 . S
O19 Fe1 2.002 . S
O19 C15 1.295 . S
O20 Fe3 1.997 . S
O20 C15 1.235 . S
C21 O4 1.295 . S
C21 O5 1.235 . S
Fe22 O24 1.918 . S
Fe22 O27 1.997 . S
Fe22 O28 2.002 . S
Fe22 O33 1.976 . S
Fe22 O36 1.996 . S
Fe23 O24 1.918 . S
Fe23 O31 1.997 . S
Fe23 O34 1.996 . S
Fe23 O38 1.976 . S
Fe23 O41 2.002 . S
O24 Fe22 1.918 . S
O24 Fe23 1.918 . S
O24 Fe25 1.918 . S
Fe25 O24 1.918 . S
Fe25 O26 2.002 . S
Fe25 O35 1.976 . S
Fe25 O39 1.996 . S
Fe25 O42 1.997 . S
O26 Fe25 2.002 . S
O26 C43 1.295 . S
O27 Fe22 1.997 . S
O27 C43 1.235 . S
O28 Fe22 2.002 . S
O28 C29 1.295 . S
C29 O28 1.295 . S
C29 O31 1.235 . S
C30 O35 1.287 . S
C30 O36 1.255 . S
O31 Fe23 1.997 . S
O31 C29 1.235 . S
C32 O38 1.287 . S
C32 O39 1.255 . S
O33 Fe22 1.976 . S
O33 C40 1.287 . S
O34 Fe23 1.996 . S
O34 C40 1.255 . S
O35 Fe25 1.976 . S
O35 C30 1.287 . S
O36 Fe22 1.996 . S
O36 C30 1.255 . S
C37 O41 1.295 . S
C37 O42 1.235 . S
O38 Fe23 1.976 . S
O38 C32 1.287 . S
O39 Fe25 1.996 . S
O39 C32 1.255 . S
C40 O33 1.287 . S
C40 O34 1.255 . S
O41 Fe23 2.002 . S
O41 C37 1.295 . S
O42 Fe25 1.997 . S
O42 C37 1.235 . S
C43 O26 1.295 . S
C43 O27 1.235 . S
Fe44 O46 1.918 . S
Fe44 O49 1.997 . S
Fe44 O50 2.002 . S
Fe44 O55 1.976 . S
Fe44 O58 1.996 . S
Fe45 O46 1.918 . S
Fe45 O53 1.997 . S
Fe45 O56 1.996 . S
Fe45 O60 1.976 . S
Fe45 O63 2.002 . S
O46 Fe44 1.918 . S
O46 Fe45 1.918 . S
O46 Fe47 1.918 . S
Fe47 O46 1.918 . S
Fe47 O48 2.002 . S
Fe47 O57 1.976 . S
Fe47 O61 1.996 . S
Fe47 O64 1.997 . S
O48 Fe47 2.002 . S
O48 C65 1.295 . S
O49 Fe44 1.997 . S
O49 C65 1.235 . S
O50 Fe44 2.002 . S
O50 C51 1.295 . S
C51 O50 1.295 . S
C51 O53 1.235 . S
C52 O57 1.287 . S
C52 O58 1.255 . S
O53 Fe45 1.997 . S
O53 C51 1.235 . S
C54 O60 1.287 . S
C54 O61 1.255 . S
O55 Fe44 1.976 . S
O55 C62 1.287 . S
O56 Fe45 1.996 . S
O56 C62 1.255 . S
O57 Fe47 1.976 . S
O57 C52 1.287 . S
O58 Fe44 1.996 . S
O58 C52 1.255 . S
C59 O63 1.295 . S
C59 O64 1.235 . S
O60 Fe45 1.976 . S
O60 C54 1.287 . S
O61 Fe47 1.996 . S
O61 C54 1.255 . S
C62 O55 1.287 . S
C62 O56 1.255 . S
O63 Fe45 2.002 . S
O63 C59 1.295 . S
O64 Fe47 1.997 . S
O64 C59 1.235 . S
C65 O48 1.295 . S
C65 O49 1.235 . S
Fe66 O68 1.918 . S
Fe66 O71 1.997 . S
Fe66 O72 2.002 . S
Fe66 O77 1.976 . S
Fe66 O80 1.996 . S
Fe67 O68 1.918 . S
Fe67 O75 1.997 . S
Fe67 O78 1.996 . S
Fe67 O82 1.976 . S
Fe67 O85 2.002 . S
O68 Fe66 1.918 . S
O68 Fe67 1.918 . S
O68 Fe69 1.918 . S
Fe69 O68 1.918 . S
Fe69 O70 2.002 . S
Fe69 O79 1.976 . S
Fe69 O83 1.996 . S
Fe69 O86 1.997 . S
O70 Fe69 2.002 . S
O70 C87 1.295 . S
O71 Fe66 1.997 . S
O71 C87 1.235 . S
O72 Fe66 2.002 . S
O72 C73 1.295 . S
C73 O72 1.295 . S
C73 O75 1.235 . S
C74 O79 1.287 . S
C74 O80 1.255 . S
O75 Fe67 1.997 . S
O75 C73 1.235 . S
C76 O82 1.287 . S
C76 O83 1.255 . S
O77 Fe66 1.976 . S
O77 C84 1.287 . S
O78 Fe67 1.996 . S
O78 C84 1.255 . S
O79 Fe69 1.976 . S
O79 C74 1.287 . S
O80 Fe66 1.996 . S
O80 C74 1.255 . S
C81 O85 1.295 . S
C81 O86 1.235 . S
O82 Fe67 1.976 . S
O82 C76 1.287 . S
O83 Fe69 1.996 . S
O83 C76 1.255 . S
C84 O77 1.287 . S
C84 O78 1.255 . S
O85 Fe67 2.002 . S
O85 C81 1.295 . S
O86 Fe69 1.997 . S
O86 C81 1.235 . S
C87 O70 1.295 . S
C87 O71 1.235 . S
Fe88 O90 1.918 . S
Fe88 O93 1.997 . S
Fe88 O94 2.002 . S
Fe88 O99 1.976 . S
Fe88 O102 1.996 . S
Fe89 O90 1.918 . S
Fe89 O97 1.997 . S
Fe89 O100 1.996 . S
Fe89 O104 1.976 . S
Fe89 O107 2.002 . S
O90 Fe88 1.918 . S
O90 Fe89 1.918 . S
O90 Fe91 1.918 . S
Fe91 O90 1.918 . S
Fe91 O92 2.002 . S
Fe91 O101 1.976 . S
Fe91 O105 1.996 . S
Fe91 O108 1.997 . S
O92 Fe91 2.002 . S
O92 C109 1.295 . S
O93 Fe88 1.997 . S
O93 C109 1.235 . S
O94 Fe88 2.002 . S
O94 C95 1.295 . S
C95 O94 1.295 . S
C95 O97 1.235 . S
C96 O101 1.287 . S
C96 O102 1.255 . S
O97 Fe89 1.997 . S
O97 C95 1.235 . S
C98 O104 1.287 . S
C98 O105 1.255 . S
O99 Fe88 1.976 . S
O99 C106 1.287 . S
O100 Fe89 1.996 . S
O100 C106 1.255 . S
O101 Fe91 1.976 . S
O101 C96 1.287 . S
O102 Fe88 1.996 . S
O102 C96 1.255 . S
C103 O107 1.295 . S
C103 O108 1.235 . S
O104 Fe89 1.976 . S
O104 C98 1.287 . S
O105 Fe91 1.996 . S
O105 C98 1.255 . S
C106 O99 1.287 . S
C106 O100 1.255 . S
O107 Fe89 2.002 . S
O107 C103 1.295 . S
O108 Fe91 1.997 . S
O108 C103 1.235 . S
C109 O92 1.295 . S
C109 O93 1.235 . S
Fe110 O112 1.918 . S
Fe110 O115 1.997 . S
Fe110 O116 2.002 . S
Fe110 O121 1.976 . S
Fe110 O124 1.996 . S
Fe111 O112 1.918 . S
Fe111 O119 1.997 . S
Fe111 O122 1.996 . S
Fe111 O126 1.976 . S
Fe111 O129 2.002 . S
O112 Fe110 1.918 . S
O112 Fe111 1.918 . S
O112 Fe113 1.918 . S
Fe113 O112 1.918 . S
Fe113 O114 2.002 . S
Fe113 O123 1.976 . S
Fe113 O127 1.996 . S
Fe113 O130 1.997 . S
O114 Fe113 2.002 . S
O114 C131 1.295 . S
O115 Fe110 1.997 . S
O115 C131 1.235 . S
O116 Fe110 2.002 . S
O116 C117 1.295 . S
C117 O116 1.295 . S
C117 O119 1.235 . S
C118 O123 1.287 . S
C118 O124 1.255 . S
O119 Fe111 1.997 . S
O119 C117 1.235 . S
C120 O126 1.287 . S
C120 O127 1.255 . S
O121 Fe110 1.976 . S
O121 C128 1.287 . S
O122 Fe111 1.996 . S
O122 C128 1.255 . S
O123 Fe113 1.976 . S
O123 C118 1.287 . S
O124 Fe110 1.996 . S
O124 C118 1.255 . S
C125 O129 1.295 . S
C125 O130 1.235 . S
O126 Fe111 1.976 . S
O126 C120 1.287 . S
O127 Fe113 1.996 . S
O127 C120 1.255 . S
C128 O121 1.287 . S
C128 O122 1.255 . S
O129 Fe111 2.002 . S
O129 C125 1.295 . S
O130 Fe113 1.997 . S
O130 C125 1.235 . S
C131 O114 1.295 . S
C131 O115 1.235 . S
Fe132 O134 1.918 . S
Fe132 O137 1.997 . S
Fe132 O138 2.002 . S
Fe132 O143 1.976 . S
Fe132 O146 1.996 . S
Fe133 O134 1.918 . S
Fe133 O141 1.997 . S
Fe133 O144 1.996 . S
Fe133 O148 1.976 . S
Fe133 O151 2.002 . S
O134 Fe132 1.918 . S
O134 Fe133 1.918 . S
O134 Fe135 1.918 . S
Fe135 O134 1.918 . S
Fe135 O136 2.002 . S
Fe135 O145 1.976 . S
Fe135 O149 1.996 . S
Fe135 O152 1.997 . S
O136 Fe135 2.002 . S
O136 C153 1.295 . S
O137 Fe132 1.997 . S
O137 C153 1.235 . S
O138 Fe132 2.002 . S
O138 C139 1.295 . S
C139 O138 1.295 . S
C139 O141 1.235 . S
C140 O145 1.287 . S
C140 O146 1.255 . S
O141 Fe133 1.997 . S
O141 C139 1.235 . S
C142 O148 1.287 . S
C142 O149 1.255 . S
O143 Fe132 1.976 . S
O143 C150 1.287 . S
O144 Fe133 1.996 . S
O144 C150 1.255 . S
O145 Fe135 1.976 . S
O145 C140 1.287 . S
O146 Fe132 1.996 . S
O146 C140 1.255 . S
C147 O151 1.295 . S
C147 O152 1.235 . S
O148 Fe133 1.976 . S
O148 C142 1.287 . S
O149 Fe135 1.996 . S
O149 C142 1.255 . S
C150 O143 1.287 . S
C150 O144 1.255 . S
O151 Fe133 2.002 . S
O151 C147 1.295 . S
O152 Fe135 1.997 . S
O152 C147 1.235 . S
C153 O136 1.295 . S
C153 O137 1.235 . S
Fe154 O156 1.918 . S
Fe154 O159 1.997 . S
Fe154 O160 2.002 . S
Fe154 O165 1.976 . S
Fe154 O168 1.996 . S
Fe155 O156 1.918 . S
Fe155 O163 1.997 . S
Fe155 O166 1.996 . S
Fe155 O170 1.976 . S
Fe155 O173 2.002 . S
O156 Fe154 1.918 . S
O156 Fe155 1.918 . S
O156 Fe157 1.918 . S
Fe157 O156 1.918 . S
Fe157 O158 2.002 . S
Fe157 O167 1.976 . S
Fe157 O171 1.996 . S
Fe157 O174 1.997 . S
O158 Fe157 2.002 . S
O158 C175 1.295 . S
O159 Fe154 1.997 . S
O159 C175 1.235 . S
O160 Fe154 2.002 . S
O160 C161 1.295 . S
C161 O160 1.295 . S
C161 O163 1.235 . S
C162 O167 1.287 . S
C162 O168 1.255 . S
O163 Fe155 1.997 . S
O163 C161 1.235 . S
C164 O170 1.287 . S
C164 O171 1.255 . S
O165 Fe154 1.976 . S
O165 C172 1.287 . S
O166 Fe155 1.996 . S
O166 C172 1.255 . S
O167 Fe157 1.976 . S
O167 C162 1.287 . S
O168 Fe154 1.996 . S
O168 C162 1.255 . S
C169 O173 1.295 . S
C169 O174 1.235 . S
O170 Fe155 1.976 . S
O170 C164 1.287 . S
O171 Fe157 1.996 . S
O171 C164 1.255 . S
C172 O165 1.287 . S
C172 O166 1.255 . S
O173 Fe155 2.002 . S
O173 C169 1.295 . S
O174 Fe157 1.997 . S
O174 C169 1.235 . S
C175 O158 1.295 . S
C175 O159 1.235 . S
Fe176 O178 1.918 . S
Fe176 O181 1.997 . S
Fe176 O182 2.002 . S
Fe176 O187 1.976 . S
Fe176 O190 1.996 . S
Fe177 O178 1.918 . S
Fe177 O185 1.997 . S
Fe177 O188 1.996 . S
Fe177 O192 1.976 . S
Fe177 O195 2.002 . S
O178 Fe176 1.918 . S
O178 Fe177 1.918 . S
O178 Fe179 1.918 . S
Fe179 O178 1.918 . S
Fe179 O180 2.002 . S
Fe179 O189 1.976 . S
Fe179 O193 1.996 . S
Fe179 O196 1.997 . S
O180 Fe179 2.002 . S
O180 C197 1.295 . S
O181 Fe176 1.997 . S
O181 C197 1.235 . S
O182 Fe176 2.002 . S
O182 C183 1.295 . S
C183 O182 1.295 . S
C183 O185 1.235 . S
C184 O189 1.287 . S
C184 O190 1.255 . S
O185 Fe177 1.997 . S
O185 C183 1.235 . S
C186 O192 1.287 . S
C186 O193 1.255 . S
O187 Fe176 1.976 . S
O187 C194 1.287 . S
O188 Fe177 1.996 . S
O188 C194 1.255 . S
O189 Fe179 1.976 . S
O189 C184 1.287 . S
O190 Fe176 1.996 . S
O190 C184 1.255 . S
C191 O195 1.295 . S
C191 O196 1.235 . S
O192 Fe177 1.976 . S
O192 C186 1.287 . S
O193 Fe179 1.996 . S
O193 C186 1.255 . S
C194 O187 1.287 . S
C194 O188 1.255 . S
O195 Fe177 2.002 . S
O195 C191 1.295 . S
O196 Fe179 1.997 . S
O196 C191 1.235 . S
C197 O180 1.295 . S
C197 O181 1.235 . S
Fe198 O200 1.918 . S
Fe198 O203 1.997 . S
Fe198 O204 2.002 . S
Fe198 O209 1.976 . S
Fe198 O212 1.996 . S
Fe199 O200 1.918 . S
Fe199 O207 1.997 . S
Fe199 O210 1.996 . S
Fe199 O214 1.976 . S
Fe199 O217 2.002 . S
O200 Fe198 1.918 . S
O200 Fe199 1.918 . S
O200 Fe201 1.918 . S
Fe201 O200 1.918 . S
Fe201 O202 2.002 . S
Fe201 O211 1.976 . S
Fe201 O215 1.996 . S
Fe201 O218 1.997 . S
O202 Fe201 2.002 . S
O202 C219 1.295 1_545 S
O203 Fe198 1.997 . S
O203 C219 1.235 1_545 S
O204 Fe198 2.002 . S
O204 C205 1.295 . S
C205 O204 1.295 . S
C205 O207 1.235 . S
C206 O211 1.287 . S
C206 O212 1.255 . S
O207 Fe199 1.997 . S
O207 C205 1.235 . S
C208 O214 1.287 . S
C208 O215 1.255 . S
O209 Fe198 1.976 . S
O209 C216 1.287 . S
O210 Fe199 1.996 . S
O210 C216 1.255 . S
O211 Fe201 1.976 . S
O211 C206 1.287 . S
O212 Fe198 1.996 . S
O212 C206 1.255 . S
C213 O217 1.295 . S
C213 O218 1.235 . S
O214 Fe199 1.976 . S
O214 C208 1.287 . S
O215 Fe201 1.996 . S
O215 C208 1.255 . S
C216 O209 1.287 . S
C216 O210 1.255 . S
O217 Fe199 2.002 . S
O217 C213 1.295 . S
O218 Fe201 1.997 . S
O218 C213 1.235 . S
C219 O202 1.295 1_565 S
C219 O203 1.235 1_565 S
Fe220 O222 1.918 . S
Fe220 O225 1.997 . S
Fe220 O226 2.002 . S
Fe220 O231 1.976 . S
Fe220 O234 1.996 . S
Fe221 O222 1.918 . S
Fe221 O229 1.997 . S
Fe221 O232 1.996 . S
Fe221 O236 1.976 . S
Fe221 O239 2.002 . S
O222 Fe220 1.918 . S
O222 Fe221 1.918 . S
O222 Fe223 1.918 . S
Fe223 O222 1.918 . S
Fe223 O224 2.002 . S
Fe223 O233 1.976 . S
Fe223 O237 1.996 . S
Fe223 O240 1.997 . S
O224 Fe223 2.002 . S
O224 C241 1.295 . S
O225 Fe220 1.997 . S
O225 C241 1.235 . S
O226 Fe220 2.002 . S
O226 C227 1.295 . S
C227 O226 1.295 . S
C227 O229 1.235 . S
C228 O233 1.287 . S
C228 O234 1.255 . S
O229 Fe221 1.997 . S
O229 C227 1.235 . S
C230 O236 1.287 . S
C230 O237 1.255 . S
O231 Fe220 1.976 . S
O231 C238 1.287 . S
O232 Fe221 1.996 . S
O232 C238 1.255 . S
O233 Fe223 1.976 . S
O233 C228 1.287 . S
O234 Fe220 1.996 . S
O234 C228 1.255 . S
C235 O239 1.295 . S
C235 O240 1.235 . S
O236 Fe221 1.976 . S
O236 C230 1.287 . S
O237 Fe223 1.996 . S
O237 C230 1.255 . S
C238 O231 1.287 . S
C238 O232 1.255 . S
O239 Fe221 2.002 . S
O239 C235 1.295 . S
O240 Fe223 1.997 . S
O240 C235 1.235 . S
C241 O224 1.295 . S
C241 O225 1.235 . S
Fe242 O244 1.918 . S
Fe242 O247 1.997 . S
Fe242 O248 2.002 . S
Fe242 O253 1.976 . S
Fe242 O256 1.996 . S
Fe243 O244 1.918 . S
Fe243 O251 1.997 . S
Fe243 O254 1.996 . S
Fe243 O258 1.976 . S
Fe243 O261 2.002 . S
O244 Fe242 1.918 . S
O244 Fe243 1.918 . S
O244 Fe245 1.918 . S
Fe245 O244 1.918 . S
Fe245 O246 2.002 . S
Fe245 O255 1.976 . S
Fe245 O259 1.996 . S
Fe245 O262 1.997 . S
O246 Fe245 2.002 . S
O246 C263 1.295 . S
O247 Fe242 1.997 . S
O247 C263 1.235 . S
O248 Fe242 2.002 . S
O248 C249 1.295 . S
C249 O248 1.295 . S
C249 O251 1.235 . S
C250 O255 1.287 . S
C250 O256 1.255 . S
O251 Fe243 1.997 . S
O251 C249 1.235 . S
C252 O258 1.287 . S
C252 O259 1.255 . S
O253 Fe242 1.976 . S
O253 C260 1.287 1_565 S
O254 Fe243 1.996 . S
O254 C260 1.255 1_565 S
O255 Fe245 1.976 . S
O255 C250 1.287 . S
O256 Fe242 1.996 . S
O256 C250 1.255 . S
C257 O261 1.295 . S
C257 O262 1.235 . S
O258 Fe243 1.976 . S
O258 C252 1.287 . S
O259 Fe245 1.996 . S
O259 C252 1.255 . S
C260 O253 1.287 1_545 S
C260 O254 1.255 1_545 S
O261 Fe243 2.002 . S
O261 C257 1.295 . S
O262 Fe245 1.997 . S
O262 C257 1.235 . S
C263 O246 1.295 . S
C263 O247 1.235 . S
Fe264 O266 1.918 . S
Fe264 O269 1.997 . S
Fe264 O270 2.002 . S
Fe264 O275 1.976 . S
Fe264 O278 1.996 . S
Fe265 O266 1.918 . S
Fe265 O273 1.997 . S
Fe265 O276 1.996 . S
Fe265 O280 1.976 . S
Fe265 O283 2.002 . S
O266 Fe264 1.918 . S
O266 Fe265 1.918 . S
O266 Fe267 1.918 . S
Fe267 O266 1.918 . S
Fe267 O268 2.002 . S
Fe267 O277 1.976 . S
Fe267 O281 1.996 . S
Fe267 O284 1.997 . S
O268 Fe267 2.002 . S
O268 C285 1.295 . S
O269 Fe264 1.997 . S
O269 C285 1.235 . S
O270 Fe264 2.002 . S
O270 C271 1.295 . S
C271 O270 1.295 . S
C271 O273 1.235 . S
C272 O277 1.287 . S
C272 O278 1.255 . S
O273 Fe265 1.997 . S
O273 C271 1.235 . S
C274 O280 1.287 . S
C274 O281 1.255 . S
O275 Fe264 1.976 . S
O275 C282 1.287 . S
O276 Fe265 1.996 . S
O276 C282 1.255 . S
O277 Fe267 1.976 . S
O277 C272 1.287 . S
O278 Fe264 1.996 . S
O278 C272 1.255 . S
C279 O283 1.295 . S
C279 O284 1.235 . S
O280 Fe265 1.976 . S
O280 C274 1.287 . S
O281 Fe267 1.996 . S
O281 C274 1.255 . S
C282 O275 1.287 . S
C282 O276 1.255 . S
O283 Fe265 2.002 . S
O283 C279 1.295 . S
O284 Fe267 1.997 . S
O284 C279 1.235 . S
C285 O268 1.295 . S
C285 O269 1.235 . S
Fe286 O288 1.918 . S
Fe286 O291 1.997 . S
Fe286 O292 2.002 . S
Fe286 O297 1.976 . S
Fe286 O300 1.996 . S
Fe287 O288 1.918 . S
Fe287 O295 1.997 . S
Fe287 O298 1.996 . S
Fe287 O302 1.976 . S
Fe287 O305 2.002 . S
O288 Fe286 1.918 . S
O288 Fe287 1.918 . S
O288 Fe289 1.918 . S
Fe289 O288 1.918 . S
Fe289 O290 2.002 . S
Fe289 O299 1.976 . S
Fe289 O303 1.996 . S
Fe289 O306 1.997 . S
O290 Fe289 2.002 . S
O290 C307 1.295 . S
O291 Fe286 1.997 . S
O291 C307 1.235 . S
O292 Fe286 2.002 . S
O292 C293 1.295 . S
C293 O292 1.295 . S
C293 O295 1.235 . S
C294 O299 1.287 1_545 S
C294 O300 1.255 1_545 S
O295 Fe287 1.997 . S
O295 C293 1.235 . S
C296 O302 1.287 . S
C296 O303 1.255 . S
O297 Fe286 1.976 . S
O297 C304 1.287 . S
O298 Fe287 1.996 . S
O298 C304 1.255 . S
O299 Fe289 1.976 . S
O299 C294 1.287 1_565 S
O300 Fe286 1.996 . S
O300 C294 1.255 1_565 S
C301 O305 1.295 . S
C301 O306 1.235 . S
O302 Fe287 1.976 . S
O302 C296 1.287 . S
O303 Fe289 1.996 . S
O303 C296 1.255 . S
C304 O297 1.287 . S
C304 O298 1.255 . S
O305 Fe287 2.002 . S
O305 C301 1.295 . S
O306 Fe289 1.997 . S
O306 C301 1.235 . S
C307 O290 1.295 . S
C307 O291 1.235 . S
Fe308 O310 1.918 . S
Fe308 O313 1.997 . S
Fe308 O314 2.002 . S
Fe308 O319 1.976 . S
Fe308 O322 1.996 . S
Fe309 O310 1.918 . S
Fe309 O317 1.997 . S
Fe309 O320 1.996 . S
Fe309 O324 1.976 . S
Fe309 O327 2.002 . S
O310 Fe308 1.918 . S
O310 Fe309 1.918 . S
O310 Fe311 1.918 . S
Fe311 O310 1.918 . S
Fe311 O312 2.002 . S
Fe311 O321 1.976 . S
Fe311 O325 1.996 . S
Fe311 O328 1.997 . S
O312 Fe311 2.002 . S
O312 C329 1.295 . S
O313 Fe308 1.997 . S
O313 C329 1.235 . S
O314 Fe308 2.002 . S
O314 C315 1.295 . S
C315 O314 1.295 . S
C315 O317 1.235 . S
C316 O321 1.287 . S
C316 O322 1.255 . S
O317 Fe309 1.997 . S
O317 C315 1.235 . S
C318 O324 1.287 . S
C318 O325 1.255 . S
O319 Fe308 1.976 . S
O319 C326 1.287 . S
O320 Fe309 1.996 . S
O320 C326 1.255 . S
O321 Fe311 1.976 . S
O321 C316 1.287 . S
O322 Fe308 1.996 . S
O322 C316 1.255 . S
C323 O327 1.295 . S
C323 O328 1.235 . S
O324 Fe309 1.976 . S
O324 C318 1.287 . S
O325 Fe311 1.996 . S
O325 C318 1.255 . S
C326 O319 1.287 . S
C326 O320 1.255 . S
O327 Fe309 2.002 . S
O327 C323 1.295 . S
O328 Fe311 1.997 . S
O328 C323 1.235 . S
C329 O312 1.295 . S
C329 O313 1.235 . S
Fe330 O332 1.918 . S
Fe330 O335 1.997 . S
Fe330 O336 2.002 . S
Fe330 O341 1.976 . S
Fe330 O344 1.996 . S
Fe331 O332 1.918 . S
Fe331 O339 1.997 . S
Fe331 O342 1.996 . S
Fe331 O346 1.976 . S
Fe331 O349 2.002 . S
O332 Fe330 1.918 . S
O332 Fe331 1.918 . S
O332 Fe333 1.918 . S
Fe333 O332 1.918 . S
Fe333 O334 2.002 . S
Fe333 O343 1.976 . S
Fe333 O347 1.996 . S
Fe333 O350 1.997 . S
O334 Fe333 2.002 . S
O334 C351 1.295 . S
O335 Fe330 1.997 . S
O335 C351 1.235 . S
O336 Fe330 2.002 . S
O336 C337 1.295 . S
C337 O336 1.295 . S
C337 O339 1.235 . S
C338 O343 1.287 1_565 S
C338 O344 1.255 1_565 S
O339 Fe331 1.997 . S
O339 C337 1.235 . S
C340 O346 1.287 . S
C340 O347 1.255 . S
O341 Fe330 1.976 . S
O341 C348 1.287 . S
O342 Fe331 1.996 . S
O342 C348 1.255 . S
O343 Fe333 1.976 . S
O343 C338 1.287 1_545 S
O344 Fe330 1.996 . S
O344 C338 1.255 1_545 S
C345 O349 1.295 . S
C345 O350 1.235 . S
O346 Fe331 1.976 . S
O346 C340 1.287 . S
O347 Fe333 1.996 . S
O347 C340 1.255 . S
C348 O341 1.287 . S
C348 O342 1.255 . S
O349 Fe331 2.002 . S
O349 C345 1.295 . S
O350 Fe333 1.997 . S
O350 C345 1.235 . S
C351 O334 1.295 . S
C351 O335 1.235 . S
C352 C353 1.391 . S
C352 C354 1.394 . S
C352 H368 0.931 . S
C353 C352 1.391 . S
C353 C357 1.376 . S
C354 C352 1.394 . S
C354 C355 1.369 . S
C354 C358 1.531 . S
C355 C354 1.369 . S
C355 C356 1.410 . S
C355 C363 1.503 . S
C356 C355 1.410 . S
C356 C357 1.392 . S
C356 C359 1.511 . S
C357 C353 1.376 . S
C357 C356 1.392 . S
C357 H369 0.929 . S
C358 C354 1.531 . S
C358 H370 0.960 . S
C358 H371 0.962 . S
C358 H372 0.960 . S
C359 C356 1.511 . S
C359 H373 0.961 . S
C359 H374 0.961 . S
C359 H375 0.961 . S
C360 C361 1.370 . S
C360 C362 1.363 . S
C360 H376 0.931 . S
C361 C360 1.370 . S
C361 C365 1.408 . S
C362 C360 1.363 . S
C362 C363 1.370 . S
C362 C366 1.524 . S
C363 C355 1.503 . S
C363 C362 1.370 . S
C363 C364 1.403 . S
C364 C363 1.403 . S
C364 C365 1.404 . S
C364 C367 1.539 . S
C365 C361 1.408 . S
C365 C364 1.404 . S
C365 H377 0.930 . S
C366 C362 1.524 . S
C366 H378 0.956 . S
C366 H379 0.961 . S
C366 H380 0.961 . S
C367 C364 1.539 . S
C367 H381 0.958 . S
C367 H382 0.961 . S
C367 H383 0.960 . S
H368 C352 0.931 . S
H369 C357 0.929 . S
H370 C358 0.960 . S
H371 C358 0.962 . S
H372 C358 0.960 . S
H373 C359 0.961 . S
H374 C359 0.961 . S
H375 C359 0.961 . S
H376 C360 0.931 . S
H377 C365 0.930 . S
H378 C366 0.956 . S
H379 C366 0.961 . S
H380 C366 0.961 . S
H381 C367 0.958 . S
H382 C367 0.961 . S
H383 C367 0.960 . S
C384 C385 1.391 . S
C384 C386 1.394 . S
C384 H400 0.931 . S
C385 C384 1.391 . S
C385 C389 1.376 . S
C386 C384 1.394 . S
C386 C387 1.369 . S
C386 C390 1.531 . S
C387 C386 1.369 . S
C387 C388 1.410 . S
C387 C395 1.503 . S
C388 C387 1.410 . S
C388 C389 1.392 . S
C388 C391 1.511 . S
C389 C385 1.376 . S
C389 C388 1.392 . S
C389 H401 0.929 . S
C390 C386 1.531 . S
C390 H402 0.960 . S
C390 H403 0.962 . S
C390 H404 0.960 . S
C391 C388 1.511 . S
C391 H405 0.961 . S
C391 H406 0.961 . S
C391 H407 0.961 . S
C392 C393 1.370 . S
C392 C394 1.363 . S
C392 H408 0.931 . S
C393 C392 1.370 . S
C393 C397 1.408 . S
C394 C392 1.363 . S
C394 C395 1.370 . S
C394 C398 1.524 . S
C395 C387 1.503 . S
C395 C394 1.370 . S
C395 C396 1.403 . S
C396 C395 1.403 . S
C396 C397 1.404 . S
C396 C399 1.539 . S
C397 C393 1.408 . S
C397 C396 1.404 . S
C397 H409 0.930 . S
C398 C394 1.524 . S
C398 H410 0.956 . S
C398 H411 0.961 . S
C398 H412 0.961 . S
C399 C396 1.539 . S
C399 H413 0.958 . S
C399 H414 0.961 . S
C399 H415 0.960 . S
H400 C384 0.931 . S
H401 C389 0.929 . S
H402 C390 0.960 . S
H403 C390 0.962 . S
H404 C390 0.960 . S
H405 C391 0.961 . S
H406 C391 0.961 . S
H407 C391 0.961 . S
H408 C392 0.931 . S
H409 C397 0.930 . S
H410 C398 0.956 . S
H411 C398 0.961 . S
H412 C398 0.961 . S
H413 C399 0.958 . S
H414 C399 0.961 . S
H415 C399 0.960 . S
C416 C417 1.391 . S
C416 C418 1.394 . S
C416 H432 0.931 . S
C417 C416 1.391 . S
C417 C421 1.376 . S
C418 C416 1.394 . S
C418 C419 1.369 . S
C418 C422 1.531 . S
C419 C418 1.369 . S
C419 C420 1.410 . S
C419 C427 1.503 1_455 S
C420 C419 1.410 . S
C420 C421 1.392 . S
C420 C423 1.509 . S
C421 C417 1.376 . S
C421 C420 1.392 . S
C421 H433 0.929 . S
C422 C418 1.531 . S
C422 H434 0.960 1_455 S
C422 H435 0.962 . S
C422 H436 0.960 . S
C423 C420 1.509 . S
C423 H437 0.959 . S
C423 H438 0.963 1_455 S
C423 H439 0.962 1_455 S
C424 C425 1.370 . S
C424 C426 1.363 . S
C424 H440 0.931 . S
C425 C424 1.370 . S
C425 C429 1.408 . S
C426 C424 1.363 . S
C426 C427 1.370 . S
C426 C430 1.524 1_655 S
C427 C419 1.503 1_655 S
C427 C426 1.370 . S
C427 C428 1.403 . S
C428 C427 1.403 . S
C428 C429 1.404 . S
C428 C431 1.539 . S
C429 C425 1.408 . S
C429 C428 1.404 . S
C429 H441 0.930 . S
C430 C426 1.524 1_455 S
C430 H442 0.956 . S
C430 H443 0.961 . S
C430 H444 0.961 . S
C431 C428 1.539 . S
C431 H445 0.958 . S
C431 H446 0.961 . S
C431 H447 0.960 . S
H432 C416 0.931 . S
H433 C421 0.929 . S
H434 C422 0.960 1_655 S
H435 C422 0.962 . S
H436 C422 0.960 . S
H437 C423 0.959 . S
H438 C423 0.963 1_655 S
H439 C423 0.962 1_655 S
H440 C424 0.931 . S
H441 C429 0.930 . S
H442 C430 0.956 . S
H443 C430 0.961 . S
H444 C430 0.961 . S
H445 C431 0.958 . S
H446 C431 0.961 . S
H447 C431 0.960 . S
C448 C449 1.391 . S
C448 C450 1.394 1_455 S
C448 H464 0.931 . S
C449 C448 1.391 . S
C449 C453 1.376 . S
C450 C448 1.394 1_655 S
C450 C451 1.369 1_655 S
C450 C454 1.531 . S
C451 C450 1.369 1_455 S
C451 C452 1.410 . S
C451 C459 1.503 1_455 S
C452 C451 1.410 . S
C452 C453 1.392 . S
C452 C455 1.511 . S
C453 C449 1.376 . S
C453 C452 1.392 . S
C453 H465 0.929 . S
C454 C450 1.531 . S
C454 H466 0.960 . S
C454 H467 0.962 . S
C454 H468 0.960 . S
C455 C452 1.511 . S
C455 H469 0.961 . S
C455 H470 0.961 . S
C455 H471 0.961 . S
C456 C457 1.370 . S
C456 C458 1.362 . S
C456 H472 0.931 . S
C457 C456 1.370 . S
C457 C461 1.408 . S
C458 C456 1.362 . S
C458 C459 1.369 . S
C458 C462 1.526 1_655 S
C459 C451 1.503 1_655 S
C459 C458 1.369 . S
C459 C460 1.403 . S
C460 C459 1.403 . S
C460 C461 1.404 . S
C460 C463 1.539 . S
C461 C457 1.408 . S
C461 C460 1.404 . S
C461 H473 0.930 . S
C462 C458 1.526 1_455 S
C462 H474 0.956 . S
C462 H475 0.961 . S
C462 H476 0.961 . S
C463 C460 1.539 . S
C463 H477 0.958 . S
C463 H478 0.961 . S
C463 H479 0.960 . S
H464 C448 0.931 . S
H465 C453 0.929 . S
H466 C454 0.960 . S
H467 C454 0.962 . S
H468 C454 0.960 . S
H469 C455 0.961 . S
H470 C455 0.961 . S
H471 C455 0.961 . S
H472 C456 0.931 . S
H473 C461 0.930 . S
H474 C462 0.956 . S
H475 C462 0.961 . S
H476 C462 0.961 . S
H477 C463 0.958 . S
H478 C463 0.961 . S
H479 C463 0.960 . S
C480 C481 1.391 . S
C480 C482 1.394 . S
C480 H496 0.931 . S
C481 C480 1.391 . S
C481 C485 1.376 . S
C482 C480 1.394 . S
C482 C483 1.369 . S
C482 C486 1.531 . S
C483 C482 1.369 . S
C483 C484 1.410 . S
C483 C491 1.503 . S
C484 C483 1.410 . S
C484 C485 1.392 . S
C484 C487 1.511 . S
C485 C481 1.376 . S
C485 C484 1.392 . S
C485 H497 0.929 . S
C486 C482 1.531 . S
C486 H498 0.960 . S
C486 H499 0.962 . S
C486 H500 0.960 . S
C487 C484 1.511 . S
C487 H501 0.961 . S
C487 H502 0.961 . S
C487 H503 0.961 . S
C488 C489 1.370 . S
C488 C490 1.363 . S
C488 H504 0.931 . S
C489 C488 1.370 . S
C489 C493 1.408 . S
C490 C488 1.363 . S
C490 C491 1.370 . S
C490 C494 1.524 . S
C491 C483 1.503 . S
C491 C490 1.370 . S
C491 C492 1.403 . S
C492 C491 1.403 . S
C492 C493 1.404 . S
C492 C495 1.539 . S
C493 C489 1.408 . S
C493 C492 1.404 . S
C493 H505 0.930 . S
C494 C490 1.524 . S
C494 H506 0.956 . S
C494 H507 0.961 . S
C494 H508 0.961 . S
C495 C492 1.539 . S
C495 H509 0.958 . S
C495 H510 0.961 . S
C495 H511 0.960 . S
H496 C480 0.931 . S
H497 C485 0.929 . S
H498 C486 0.960 . S
H499 C486 0.962 . S
H500 C486 0.960 . S
H501 C487 0.961 . S
H502 C487 0.961 . S
H503 C487 0.961 . S
H504 C488 0.931 . S
H505 C493 0.930 . S
H506 C494 0.956 . S
H507 C494 0.961 . S
H508 C494 0.961 . S
H509 C495 0.958 . S
H510 C495 0.961 . S
H511 C495 0.960 . S
C512 C513 1.391 . S
C512 C514 1.394 . S
C512 H528 0.931 . S
C513 C512 1.391 . S
C513 C517 1.376 . S
C514 C512 1.394 . S
C514 C515 1.369 . S
C514 C518 1.531 . S
C515 C514 1.369 . S
C515 C516 1.410 . S
C515 C523 1.503 . S
C516 C515 1.410 . S
C516 C517 1.392 . S
C516 C519 1.511 . S
C517 C513 1.376 . S
C517 C516 1.392 . S
C517 H529 0.929 . S
C518 C514 1.531 . S
C518 H530 0.960 . S
C518 H531 0.962 . S
C518 H532 0.960 . S
C519 C516 1.511 . S
C519 H533 0.961 . S
C519 H534 0.961 . S
C519 H535 0.961 . S
C520 C521 1.370 . S
C520 C522 1.363 . S
C520 H536 0.931 . S
C521 C520 1.370 . S
C521 C525 1.408 . S
C522 C520 1.363 . S
C522 C523 1.370 . S
C522 C526 1.524 . S
C523 C515 1.503 . S
C523 C522 1.370 . S
C523 C524 1.403 . S
C524 C523 1.403 . S
C524 C525 1.404 . S
C524 C527 1.539 . S
C525 C521 1.408 . S
C525 C524 1.404 . S
C525 H537 0.930 . S
C526 C522 1.524 . S
C526 H538 0.956 . S
C526 H539 0.961 . S
C526 H540 0.961 . S
C527 C524 1.539 . S
C527 H541 0.958 . S
C527 H542 0.961 . S
C527 H543 0.960 . S
H528 C512 0.931 . S
H529 C517 0.929 . S
H530 C518 0.960 . S
H531 C518 0.962 . S
H532 C518 0.960 . S
H533 C519 0.961 . S
H534 C519 0.961 . S
H535 C519 0.961 . S
H536 C520 0.931 . S
H537 C525 0.930 . S
H538 C526 0.956 . S
H539 C526 0.961 . S
H540 C526 0.961 . S
H541 C527 0.958 . S
H542 C527 0.961 . S
H543 C527 0.960 . S
C544 C545 1.391 . S
C544 C546 1.394 . S
C544 H560 0.931 . S
C545 C544 1.391 . S
C545 C549 1.376 . S
C546 C544 1.394 . S
C546 C547 1.369 . S
C546 C550 1.531 . S
C547 C546 1.369 . S
C547 C548 1.410 . S
C547 C555 1.503 1_455 S
C548 C547 1.410 . S
C548 C549 1.392 . S
C548 C551 1.511 1_455 S
C549 C545 1.376 . S
C549 C548 1.392 . S
C549 H561 0.929 . S
C550 C546 1.531 . S
C550 H562 0.960 . S
C550 H563 0.962 . S
C550 H564 0.960 . S
C551 C548 1.511 1_655 S
C551 H565 0.961 1_655 S
C551 H566 0.961 . S
C551 H567 0.961 . S
C552 C553 1.370 . S
C552 C554 1.363 . S
C552 H568 0.931 . S
C553 C552 1.370 . S
C553 C557 1.408 . S
C554 C552 1.363 . S
C554 C555 1.370 . S
C554 C558 1.524 1_655 S
C555 C547 1.503 1_655 S
C555 C554 1.370 . S
C555 C556 1.403 . S
C556 C555 1.403 . S
C556 C557 1.404 . S
C556 C559 1.539 . S
C557 C553 1.408 . S
C557 C556 1.404 . S
C557 H569 0.930 . S
C558 C554 1.524 1_455 S
C558 H570 0.956 . S
C558 H571 0.961 . S
C558 H572 0.961 . S
C559 C556 1.539 . S
C559 H573 0.958 . S
C559 H574 0.961 . S
C559 H575 0.960 . S
H560 C544 0.931 . S
H561 C549 0.929 . S
H562 C550 0.960 . S
H563 C550 0.962 . S
H564 C550 0.960 . S
H565 C551 0.961 1_455 S
H566 C551 0.961 . S
H567 C551 0.961 . S
H568 C552 0.931 . S
H569 C557 0.930 . S
H570 C558 0.956 . S
H571 C558 0.961 . S
H572 C558 0.961 . S
H573 C559 0.958 . S
H574 C559 0.961 . S
H575 C559 0.960 . S
C576 C577 1.391 . S
C576 C578 1.394 . S
C576 H592 0.931 . S
C577 C576 1.391 . S
C577 C581 1.376 . S
C578 C576 1.394 . S
C578 C579 1.369 . S
C578 C582 1.531 . S
C579 C578 1.369 . S
C579 C580 1.410 1_455 S
C579 C587 1.503 1_455 S
C580 C579 1.410 1_655 S
C580 C581 1.392 1_655 S
C580 C583 1.511 . S
C581 C577 1.376 . S
C581 C580 1.392 1_455 S
C581 H593 0.929 1_455 S
C582 C578 1.531 . S
C582 H594 0.960 . S
C582 H595 0.962 . S
C582 H596 0.960 . S
C583 C580 1.511 . S
C583 H597 0.961 . S
C583 H598 0.961 . S
C583 H599 0.961 . S
C584 C585 1.370 . S
C584 C586 1.363 . S
C584 H600 0.931 . S
C585 C584 1.370 . S
C585 C589 1.408 . S
C586 C584 1.363 . S
C586 C587 1.370 . S
C586 C590 1.524 . S
C587 C579 1.503 1_655 S
C587 C586 1.370 . S
C587 C588 1.403 . S
C588 C587 1.403 . S
C588 C589 1.404 . S
C588 C591 1.539 . S
C589 C585 1.408 . S
C589 C588 1.404 . S
C589 H601 0.930 . S
C590 C586 1.524 . S
C590 H602 0.956 1_655 S
C590 H603 0.961 . S
C590 H604 0.961 . S
C591 C588 1.539 . S
C591 H605 0.945 1_655 S
C591 H606 0.961 . S
C591 H607 0.960 . S
H592 C576 0.931 . S
H593 C581 0.929 1_655 S
H594 C582 0.960 . S
H595 C582 0.962 . S
H596 C582 0.960 . S
H597 C583 0.961 . S
H598 C583 0.961 . S
H599 C583 0.961 . S
H600 C584 0.931 . S
H601 C589 0.930 . S
H602 C590 0.956 1_455 S
H603 C590 0.961 . S
H604 C590 0.961 . S
H605 C591 0.945 1_455 S
H606 C591 0.961 . S
H607 C591 0.960 . S
C608 C609 1.391 . S
C608 C610 1.394 1_554 S
C608 H624 0.931 . S
C609 C608 1.391 . S
C609 C613 1.376 . S
C610 C608 1.394 1_556 S
C610 C611 1.369 1_556 S
C610 C614 1.531 . S
C611 C610 1.369 1_554 S
C611 C612 1.410 . S
C611 C619 1.503 1_544 S
C612 C611 1.410 . S
C612 C613 1.392 . S
C612 C615 1.511 . S
C613 C609 1.376 . S
C613 C612 1.392 . S
C613 H625 0.929 . S
C614 C610 1.531 . S
C614 H626 0.960 . S
C614 H627 0.962 1_545 S
C614 H628 0.960 . S
C615 C612 1.511 . S
C615 H629 0.961 . S
C615 H630 0.961 . S
C615 H631 0.961 . S
C616 C617 1.370 . S
C616 C618 1.363 . S
C616 H632 0.931 . S
C617 C616 1.370 . S
C617 C621 1.408 . S
C618 C616 1.363 . S
C618 C619 1.370 . S
C618 C622 1.524 1_556 S
C619 C611 1.503 1_566 S
C619 C618 1.370 . S
C619 C620 1.403 1_565 S
C620 C619 1.403 1_545 S
C620 C621 1.404 1_545 S
C620 C623 1.539 . S
C621 C617 1.408 . S
C621 C620 1.404 1_565 S
C621 H633 0.930 1_565 S
C622 C618 1.524 1_554 S
C622 H634 0.956 . S
C622 H635 0.961 . S
C622 H636 0.961 . S
C623 C620 1.539 . S
C623 H637 0.958 . S
C623 H638 0.961 . S
C623 H639 0.960 . S
H624 C608 0.931 . S
H625 C613 0.929 . S
H626 C614 0.960 . S
H627 C614 0.962 1_565 S
H628 C614 0.960 . S
H629 C615 0.961 . S
H630 C615 0.961 . S
H631 C615 0.961 . S
H632 C616 0.931 . S
H633 C621 0.930 1_545 S
H634 C622 0.956 . S
H635 C622 0.961 . S
H636 C622 0.961 . S
H637 C623 0.958 . S
H638 C623 0.961 . S
H639 C623 0.960 . S
C640 C641 1.391 . S
C640 C642 1.394 . S
C640 H656 0.931 . S
C641 C640 1.391 . S
C641 C645 1.376 . S
C642 C640 1.394 . S
C642 C643 1.369 . S
C642 C646 1.531 . S
C643 C642 1.369 . S
C643 C644 1.410 . S
C643 C651 1.503 . S
C644 C643 1.410 . S
C644 C645 1.392 . S
C644 C647 1.511 . S
C645 C641 1.376 . S
C645 C644 1.392 . S
C645 H657 0.929 . S
C646 C642 1.531 . S
C646 H658 0.960 . S
C646 H659 0.962 . S
C646 H660 0.960 . S
C647 C644 1.511 . S
C647 H661 0.961 . S
C647 H662 0.961 . S
C647 H663 0.961 . S
C648 C649 1.370 . S
C648 C650 1.363 . S
C648 H664 0.931 . S
C649 C648 1.370 . S
C649 C653 1.408 . S
C650 C648 1.363 . S
C650 C651 1.370 . S
C650 C654 1.524 . S
C651 C643 1.503 . S
C651 C650 1.370 . S
C651 C652 1.403 . S
C652 C651 1.403 . S
C652 C653 1.404 . S
C652 C655 1.539 . S
C653 C649 1.408 . S
C653 C652 1.404 . S
C653 H665 0.930 . S
C654 C650 1.524 . S
C654 H666 0.956 . S
C654 H667 0.961 . S
C654 H668 0.961 . S
C655 C652 1.539 . S
C655 H669 0.958 . S
C655 H670 0.961 . S
C655 H671 0.960 . S
H656 C640 0.931 . S
H657 C645 0.929 . S
H658 C646 0.960 . S
H659 C646 0.962 . S
H660 C646 0.960 . S
H661 C647 0.961 . S
H662 C647 0.961 . S
H663 C647 0.961 . S
H664 C648 0.931 . S
H665 C653 0.930 . S
H666 C654 0.956 . S
H667 C654 0.961 . S
H668 C654 0.961 . S
H669 C655 0.958 . S
H670 C655 0.961 . S
H671 C655 0.960 . S
C672 C673 1.391 . S
C672 C674 1.394 . S
C672 H688 0.931 . S
C673 C672 1.391 . S
C673 C677 1.376 . S
C674 C672 1.394 . S
C674 C675 1.369 . S
C674 C678 1.531 . S
C675 C674 1.369 . S
C675 C676 1.410 . S
C675 C683 1.503 1_465 S
C676 C675 1.410 . S
C676 C677 1.392 . S
C676 C679 1.511 1_465 S
C677 C673 1.376 . S
C677 C676 1.392 . S
C677 H689 0.929 . S
C678 C674 1.531 . S
C678 H690 0.960 1_455 S
C678 H691 0.962 . S
C678 H692 0.960 . S
C679 C676 1.511 1_645 S
C679 H693 0.968 . S
C679 H694 0.961 . S
C679 H695 0.961 . S
C680 C681 1.370 . S
C680 C682 1.363 . S
C680 H696 0.931 . S
C681 C680 1.370 . S
C681 C685 1.408 . S
C682 C680 1.363 . S
C682 C683 1.370 . S
C682 C686 1.524 1_655 S
C683 C675 1.503 1_645 S
C683 C682 1.370 . S
C683 C684 1.403 1_545 S
C684 C683 1.403 1_565 S
C684 C685 1.404 1_565 S
C684 C687 1.539 . S
C685 C681 1.408 . S
C685 C684 1.404 1_545 S
C685 H697 0.930 . S
C686 C682 1.524 1_455 S
C686 H698 0.956 . S
C686 H699 0.961 . S
C686 H700 0.961 . S
C687 C684 1.539 . S
C687 H701 0.958 . S
C687 H702 0.961 . S
C687 H703 0.960 . S
H688 C672 0.931 . S
H689 C677 0.929 . S
H690 C678 0.960 1_655 S
H691 C678 0.962 . S
H692 C678 0.960 . S
H693 C679 0.968 . S
H694 C679 0.961 . S
H695 C679 0.961 . S
H696 C680 0.931 . S
H697 C685 0.930 . S
H698 C686 0.956 . S
H699 C686 0.961 . S
H700 C686 0.961 . S
H701 C687 0.958 . S
H702 C687 0.961 . S
H703 C687 0.960 . S
C704 C705 1.391 . S
C704 C706 1.394 . S
C704 H720 0.931 . S
C705 C704 1.391 . S
C705 C709 1.376 . S
C706 C704 1.394 . S
C706 C707 1.369 . S
C706 C710 1.531 . S
C707 C706 1.369 . S
C707 C708 1.410 . S
C707 C715 1.503 . S
C708 C707 1.410 . S
C708 C709 1.392 . S
C708 C711 1.511 . S
C709 C705 1.376 . S
C709 C708 1.392 . S
C709 H721 0.929 . S
C710 C706 1.531 . S
C710 H722 0.960 . S
C710 H723 0.962 . S
C710 H724 0.960 . S
C711 C708 1.511 . S
C711 H725 0.961 . S
C711 H726 0.961 . S
C711 H727 0.961 . S
C712 C713 1.370 . S
C712 C714 1.363 . S
C712 H728 0.931 . S
C713 C712 1.370 . S
C713 C717 1.408 . S
C714 C712 1.363 . S
C714 C715 1.370 . S
C714 C718 1.524 . S
C715 C707 1.503 . S
C715 C714 1.370 . S
C715 C716 1.403 . S
C716 C715 1.403 . S
C716 C717 1.404 . S
C716 C719 1.539 . S
C717 C713 1.408 . S
C717 C716 1.404 . S
C717 H729 0.930 . S
C718 C714 1.524 . S
C718 H730 0.956 . S
C718 H731 0.961 . S
C718 H732 0.961 . S
C719 C716 1.539 . S
C719 H733 0.958 . S
C719 H734 0.961 . S
C719 H735 0.960 . S
H720 C704 0.931 . S
H721 C709 0.929 . S
H722 C710 0.960 . S
H723 C710 0.962 . S
H724 C710 0.960 . S
H725 C711 0.961 . S
H726 C711 0.961 . S
H727 C711 0.961 . S
H728 C712 0.931 . S
H729 C717 0.930 . S
H730 C718 0.956 . S
H731 C718 0.961 . S
H732 C718 0.961 . S
H733 C719 0.958 . S
H734 C719 0.961 . S
H735 C719 0.960 . S
C736 C737 1.391 . S
C736 C738 1.394 . S
C736 H752 0.931 . S
C737 C736 1.391 . S
C737 C741 1.376 . S
C738 C736 1.394 . S
C738 C739 1.369 . S
C738 C742 1.531 . S
C739 C738 1.369 . S
C739 C740 1.410 . S
C739 C747 1.503 . S
C740 C739 1.410 . S
C740 C741 1.392 . S
C740 C743 1.511 . S
C741 C737 1.376 . S
C741 C740 1.392 . S
C741 H753 0.929 . S
C742 C738 1.531 . S
C742 H754 0.960 . S
C742 H755 0.962 . S
C742 H756 0.960 . S
C743 C740 1.511 . S
C743 H757 0.961 . S
C743 H758 0.961 . S
C743 H759 0.961 . S
C744 C745 1.370 . S
C744 C746 1.363 . S
C744 H760 0.931 . S
C745 C744 1.370 . S
C745 C749 1.408 . S
C746 C744 1.363 . S
C746 C747 1.370 . S
C746 C750 1.524 . S
C747 C739 1.503 . S
C747 C746 1.370 . S
C747 C748 1.403 . S
C748 C747 1.403 . S
C748 C749 1.404 . S
C748 C751 1.539 . S
C749 C745 1.408 . S
C749 C748 1.404 . S
C749 H761 0.930 . S
C750 C746 1.524 . S
C750 H762 0.956 . S
C750 H763 0.961 . S
C750 H764 0.961 . S
C751 C748 1.539 . S
C751 H765 0.958 . S
C751 H766 0.961 . S
C751 H767 0.960 . S
H752 C736 0.931 . S
H753 C741 0.929 . S
H754 C742 0.960 . S
H755 C742 0.962 . S
H756 C742 0.960 . S
H757 C743 0.961 . S
H758 C743 0.961 . S
H759 C743 0.961 . S
H760 C744 0.931 . S
H761 C749 0.930 . S
H762 C750 0.956 . S
H763 C750 0.961 . S
H764 C750 0.961 . S
H765 C751 0.958 . S
H766 C751 0.961 . S
H767 C751 0.960 . S
C768 C769 1.391 . S
C768 C770 1.394 . S
C768 H784 0.931 . S
C769 C768 1.391 . S
C769 C773 1.376 . S
C770 C768 1.394 . S
C770 C771 1.369 . S
C770 C774 1.531 . S
C771 C770 1.369 . S
C771 C772 1.410 . S
C771 C779 1.503 . S
C772 C771 1.410 . S
C772 C773 1.392 . S
C772 C775 1.511 . S
C773 C769 1.376 . S
C773 C772 1.392 . S
C773 H785 0.929 . S
C774 C770 1.531 . S
C774 H786 0.960 . S
C774 H787 0.962 . S
C774 H788 0.960 . S
C775 C772 1.511 . S
C775 H789 0.961 . S
C775 H790 0.961 . S
C775 H791 0.961 . S
C776 C777 1.370 . S
C776 C778 1.363 . S
C776 H792 0.931 . S
C777 C776 1.370 . S
C777 C781 1.408 . S
C778 C776 1.363 . S
C778 C779 1.370 . S
C778 C782 1.524 . S
C779 C771 1.503 . S
C779 C778 1.370 . S
C779 C780 1.403 . S
C780 C779 1.403 . S
C780 C781 1.404 . S
C780 C783 1.539 . S
C781 C777 1.408 . S
C781 C780 1.404 . S
C781 H793 0.930 . S
C782 C778 1.524 . S
C782 H794 0.956 . S
C782 H795 0.961 . S
C782 H796 0.961 . S
C783 C780 1.539 . S
C783 H797 0.958 . S
C783 H798 0.961 . S
C783 H799 0.960 . S
H784 C768 0.931 . S
H785 C773 0.929 . S
H786 C774 0.960 . S
H787 C774 0.962 . S
H788 C774 0.960 . S
H789 C775 0.961 . S
H790 C775 0.961 . S
H791 C775 0.961 . S
H792 C776 0.931 . S
H793 C781 0.930 . S
H794 C782 0.956 . S
H795 C782 0.961 . S
H796 C782 0.961 . S
H797 C783 0.958 . S
H798 C783 0.961 . S
H799 C783 0.960 . S
C800 C801 1.391 . S
C800 C802 1.394 . S
C800 H816 0.931 . S
C801 C800 1.391 . S
C801 C805 1.376 . S
C802 C800 1.394 . S
C802 C803 1.369 . S
C802 C806 1.531 1_455 S
C803 C802 1.369 . S
C803 C804 1.410 . S
C803 C811 1.503 1_455 S
C804 C803 1.410 . S
C804 C805 1.392 . S
C804 C807 1.511 . S
C805 C801 1.376 . S
C805 C804 1.392 . S
C805 H817 0.929 . S
C806 C802 1.531 1_655 S
C806 H818 0.960 . S
C806 H819 0.962 . S
C806 H820 0.960 . S
C807 C804 1.511 . S
C807 H821 0.961 . S
C807 H822 0.961 . S
C807 H823 0.961 . S
C808 C809 1.370 . S
C808 C810 1.363 . S
C808 H824 0.931 . S
C809 C808 1.370 . S
C809 C813 1.408 . S
C810 C808 1.363 . S
C810 C811 1.370 . S
C810 C814 1.524 . S
C811 C803 1.503 1_655 S
C811 C810 1.370 . S
C811 C812 1.403 . S
C812 C811 1.403 . S
C812 C813 1.404 . S
C812 C815 1.539 1_655 S
C813 C809 1.408 . S
C813 C812 1.404 . S
C813 H825 0.930 . S
C814 C810 1.524 . S
C814 H826 0.956 . S
C814 H827 0.961 . S
C814 H828 0.961 . S
C815 C812 1.539 1_455 S
C815 H829 0.958 . S
C815 H830 0.961 . S
C815 H831 0.960 . S
H816 C800 0.931 . S
H817 C805 0.929 . S
H818 C806 0.960 . S
H819 C806 0.962 . S
H820 C806 0.960 . S
H821 C807 0.961 . S
H822 C807 0.961 . S
H823 C807 0.961 . S
H824 C808 0.931 . S
H825 C813 0.930 . S
H826 C814 0.956 . S
H827 C814 0.961 . S
H828 C814 0.961 . S
H829 C815 0.958 . S
H830 C815 0.961 . S
H831 C815 0.960 . S
C832 C833 1.391 . S
C832 C834 1.394 . S
C832 H848 0.931 . S
C833 C832 1.391 . S
C833 C837 1.376 . S
C834 C832 1.394 . S
C834 C835 1.369 . S
C834 C838 1.531 1_554 S
C835 C834 1.369 . S
C835 C836 1.410 . S
C835 C843 1.503 1_554 S
C836 C835 1.410 . S
C836 C837 1.392 . S
C836 C839 1.511 . S
C837 C833 1.376 . S
C837 C836 1.392 . S
C837 H849 0.929 . S
C838 C834 1.531 1_556 S
C838 H850 0.960 . S
C838 H851 0.962 . S
C838 H852 0.960 . S
C839 C836 1.511 . S
C839 H853 0.961 . S
C839 H854 0.961 . S
C839 H855 0.961 . S
C840 C841 1.370 . S
C840 C842 1.363 . S
C840 H856 0.931 . S
C841 C840 1.370 . S
C841 C845 1.408 . S
C842 C840 1.363 . S
C842 C843 1.370 . S
C842 C846 1.524 . S
C843 C835 1.503 1_556 S
C843 C842 1.370 . S
C843 C844 1.403 1_556 S
C844 C843 1.403 1_554 S
C844 C845 1.404 1_554 S
C844 C847 1.539 . S
C845 C841 1.408 . S
C845 C844 1.404 1_556 S
C845 H857 0.930 . S
C846 C842 1.524 . S
C846 H858 0.956 . S
C846 H859 0.961 . S
C846 H860 0.961 . S
C847 C844 1.539 . S
C847 H861 0.958 . S
C847 H862 0.961 . S
C847 H863 0.960 . S
H848 C832 0.931 . S
H849 C837 0.929 . S
H850 C838 0.960 . S
H851 C838 0.962 . S
H852 C838 0.960 . S
H853 C839 0.961 . S
H854 C839 0.961 . S
H855 C839 0.961 . S
H856 C840 0.931 . S
H857 C845 0.930 . S
H858 C846 0.956 . S
H859 C846 0.961 . S
H860 C846 0.961 . S
H861 C847 0.958 . S
H862 C847 0.961 . S
H863 C847 0.960 . S
C864 C865 1.391 . S
C864 C866 1.394 . S
C864 H880 0.931 . S
C865 C864 1.391 . S
C865 C869 1.376 . S
C866 C864 1.394 . S
C866 C867 1.369 . S
C866 C870 1.531 . S
C867 C866 1.369 . S
C867 C868 1.410 . S
C867 C875 1.503 . S
C868 C867 1.410 . S
C868 C869 1.392 . S
C868 C871 1.511 . S
C869 C865 1.376 . S
C869 C868 1.392 . S
C869 H881 0.929 . S
C870 C866 1.531 . S
C870 H882 0.960 . S
C870 H883 0.962 . S
C870 H884 0.960 . S
C871 C868 1.511 . S
C871 H885 0.961 . S
C871 H886 0.961 . S
C871 H887 0.961 . S
C872 C873 1.370 . S
C872 C874 1.363 . S
C872 H888 0.931 . S
C873 C872 1.370 . S
C873 C877 1.408 . S
C874 C872 1.363 . S
C874 C875 1.370 . S
C874 C878 1.524 . S
C875 C867 1.503 . S
C875 C874 1.370 . S
C875 C876 1.403 . S
C876 C875 1.403 . S
C876 C877 1.404 . S
C876 C879 1.539 . S
C877 C873 1.408 . S
C877 C876 1.404 . S
C877 H889 0.930 . S
C878 C874 1.524 . S
C878 H890 0.956 . S
C878 H891 0.961 . S
C878 H892 0.961 . S
C879 C876 1.539 . S
C879 H893 0.958 . S
C879 H894 0.961 . S
C879 H895 0.960 . S
H880 C864 0.931 . S
H881 C869 0.929 . S
H882 C870 0.960 . S
H883 C870 0.962 . S
H884 C870 0.960 . S
H885 C871 0.961 . S
H886 C871 0.961 . S
H887 C871 0.961 . S
H888 C872 0.931 . S
H889 C877 0.930 . S
H890 C878 0.956 . S
H891 C878 0.961 . S
H892 C878 0.961 . S
H893 C879 0.958 . S
H894 C879 0.961 . S
H895 C879 0.960 . S
C896 C897 1.391 . S
C896 C898 1.394 . S
C896 H912 0.931 . S
C897 C896 1.391 . S
C897 C901 1.376 . S
C898 C896 1.394 . S
C898 C899 1.369 . S
C898 C902 1.531 . S
C899 C898 1.369 . S
C899 C900 1.410 . S
C899 C907 1.503 . S
C900 C899 1.410 . S
C900 C901 1.392 . S
C900 C903 1.511 . S
C901 C897 1.376 . S
C901 C900 1.392 . S
C901 H913 0.929 . S
C902 C898 1.531 . S
C902 H914 0.960 . S
C902 H915 0.962 . S
C902 H916 0.960 . S
C903 C900 1.511 . S
C903 H917 0.961 . S
C903 H918 0.961 . S
C903 H919 0.961 . S
C904 C905 1.370 . S
C904 C906 1.363 . S
C904 H920 0.931 . S
C905 C904 1.370 . S
C905 C909 1.408 . S
C906 C904 1.363 . S
C906 C907 1.370 . S
C906 C910 1.524 . S
C907 C899 1.503 . S
C907 C906 1.370 . S
C907 C908 1.403 . S
C908 C907 1.403 . S
C908 C909 1.404 . S
C908 C911 1.539 . S
C909 C905 1.408 . S
C909 C908 1.404 . S
C909 H921 0.930 . S
C910 C906 1.524 . S
C910 H922 0.956 . S
C910 H923 0.961 . S
C910 H924 0.961 . S
C911 C908 1.539 . S
C911 H925 0.958 . S
C911 H926 0.961 . S
C911 H927 0.960 . S
H912 C896 0.931 . S
H913 C901 0.929 . S
H914 C902 0.960 . S
H915 C902 0.962 . S
H916 C902 0.960 . S
H917 C903 0.961 . S
H918 C903 0.961 . S
H919 C903 0.961 . S
H920 C904 0.931 . S
H921 C909 0.930 . S
H922 C910 0.956 . S
H923 C910 0.961 . S
H924 C910 0.961 . S
H925 C911 0.958 . S
H926 C911 0.961 . S
H927 C911 0.960 . S
C928 C929 1.391 . S
C928 C930 1.394 . S
C928 H944 0.931 . S
C929 C928 1.391 . S
C929 C933 1.376 . S
C930 C928 1.394 . S
C930 C931 1.369 . S
C930 C934 1.531 . S
C931 C930 1.369 . S
C931 C932 1.410 . S
C931 C939 1.503 . S
C932 C931 1.410 . S
C932 C933 1.392 . S
C932 C935 1.511 . S
C933 C929 1.376 . S
C933 C932 1.392 . S
C933 H945 0.929 . S
C934 C930 1.531 . S
C934 H946 0.960 . S
C934 H947 0.962 . S
C934 H948 0.960 . S
C935 C932 1.511 . S
C935 H949 0.961 . S
C935 H950 0.961 . S
C935 H951 0.961 . S
C936 C937 1.370 . S
C936 C938 1.363 . S
C936 H952 0.931 . S
C937 C936 1.370 . S
C937 C941 1.408 . S
C938 C936 1.363 . S
C938 C939 1.370 . S
C938 C942 1.524 . S
C939 C931 1.503 . S
C939 C938 1.370 . S
C939 C940 1.403 . S
C940 C939 1.403 . S
C940 C941 1.404 . S
C940 C943 1.539 . S
C941 C937 1.408 . S
C941 C940 1.404 . S
C941 H953 0.930 . S
C942 C938 1.524 . S
C942 H954 0.956 . S
C942 H955 0.961 . S
C942 H956 0.961 . S
C943 C940 1.539 . S
C943 H957 0.958 . S
C943 H958 0.961 . S
C943 H959 0.960 . S
H944 C928 0.931 . S
H945 C933 0.929 . S
H946 C934 0.960 . S
H947 C934 0.962 . S
H948 C934 0.960 . S
H949 C935 0.961 . S
H950 C935 0.961 . S
H951 C935 0.961 . S
H952 C936 0.931 . S
H953 C941 0.930 . S
H954 C942 0.956 . S
H955 C942 0.961 . S
H956 C942 0.961 . S
H957 C943 0.958 . S
H958 C943 0.961 . S
H959 C943 0.960 . S
C960 C961 1.391 . S
C960 C962 1.394 . S
C960 H976 0.931 . S
C961 C960 1.391 . S
C961 C965 1.376 . S
C962 C960 1.394 . S
C962 C963 1.369 . S
C962 C966 1.531 . S
C963 C962 1.369 . S
C963 C964 1.410 . S
C963 C971 1.503 . S
C964 C963 1.410 . S
C964 C965 1.392 . S
C964 C967 1.511 . S
C965 C961 1.376 . S
C965 C964 1.392 . S
C965 H977 0.929 . S
C966 C962 1.531 . S
C966 H978 0.960 . S
C966 H979 0.962 . S
C966 H980 0.960 . S
C967 C964 1.511 . S
C967 H981 0.961 . S
C967 H982 0.961 . S
C967 H983 0.961 . S
C968 C969 1.370 . S
C968 C970 1.363 . S
C968 H984 0.931 . S
C969 C968 1.370 . S
C969 C973 1.408 . S
C970 C968 1.363 . S
C970 C971 1.370 . S
C970 C974 1.524 . S
C971 C963 1.503 . S
C971 C970 1.370 . S
C971 C972 1.403 . S
C972 C971 1.403 . S
C972 C973 1.404 . S
C972 C975 1.539 . S
C973 C969 1.408 . S
C973 C972 1.404 . S
C973 H985 0.930 . S
C974 C970 1.524 . S
C974 H986 0.956 . S
C974 H987 0.961 . S
C974 H988 0.961 . S
C975 C972 1.539 . S
C975 H989 0.958 . S
C975 H990 0.961 . S
C975 H991 0.960 . S
H976 C960 0.931 . S
H977 C965 0.929 . S
H978 C966 0.960 . S
H979 C966 0.962 . S
H980 C966 0.960 . S
H981 C967 0.961 . S
H982 C967 0.961 . S
H983 C967 0.961 . S
H984 C968 0.931 . S
H985 C973 0.930 . S
H986 C974 0.956 . S
H987 C974 0.961 . S
H988 C974 0.961 . S
H989 C975 0.958 . S
H990 C975 0.961 . S
H991 C975 0.960 . S
C992 C993 1.391 . S
C992 C994 1.394 . S
C992 H1008 0.931 . S
C993 C992 1.391 . S
C993 C997 1.376 . S
C994 C992 1.394 . S
C994 C995 1.369 . S
C994 C998 1.531 . S
C995 C994 1.369 . S
C995 C996 1.410 . S
C995 C1003 1.503 . S
C996 C995 1.410 . S
C996 C997 1.392 . S
C996 C999 1.511 . S
C997 C993 1.376 . S
C997 C996 1.392 . S
C997 H1009 0.929 . S
C998 C994 1.531 . S
C998 H1010 0.960 . S
C998 H1011 0.962 . S
C998 H1012 0.960 . S
C999 C996 1.511 . S
C999 H1013 0.961 . S
C999 H1014 0.961 . S
C999 H1015 0.961 . S
C1000 C1001 1.370 . S
C1000 C1002 1.363 . S
C1000 H1016 0.931 . S
C1001 C1000 1.370 . S
C1001 C1005 1.408 . S
C1002 C1000 1.363 . S
C1002 C1003 1.370 . S
C1002 C1006 1.524 . S
C1003 C995 1.503 . S
C1003 C1002 1.370 . S
C1003 C1004 1.403 . S
C1004 C1003 1.403 . S
C1004 C1005 1.404 . S
C1004 C1007 1.539 . S
C1005 C1001 1.408 . S
C1005 C1004 1.404 . S
C1005 H1017 0.930 . S
C1006 C1002 1.524 . S
C1006 H1018 0.956 . S
C1006 H1019 0.961 . S
C1006 H1020 0.961 . S
C1007 C1004 1.539 . S
C1007 H1021 0.958 . S
C1007 H1022 0.961 . S
C1007 H1023 0.960 . S
H1008 C992 0.931 . S
H1009 C997 0.929 . S
H1010 C998 0.960 . S
H1011 C998 0.962 . S
H1012 C998 0.960 . S
H1013 C999 0.961 . S
H1014 C999 0.961 . S
H1015 C999 0.961 . S
H1016 C1000 0.931 . S
H1017 C1005 0.930 . S
H1018 C1006 0.956 . S
H1019 C1006 0.961 . S
H1020 C1006 0.961 . S
H1021 C1007 0.958 . S
H1022 C1007 0.961 . S
H1023 C1007 0.960 . S
C1024 C1025 1.391 . S
C1024 C1026 1.394 . S
C1024 H1040 0.931 . S
C1025 C1024 1.391 . S
C1025 C1029 1.376 . S
C1026 C1024 1.394 . S
C1026 C1027 1.369 . S
C1026 C1030 1.531 . S
C1027 C1026 1.369 . S
C1027 C1028 1.410 . S
C1027 C1035 1.503 . S
C1028 C1027 1.410 . S
C1028 C1029 1.392 . S
C1028 C1031 1.511 . S
C1029 C1025 1.376 . S
C1029 C1028 1.392 . S
C1029 H1041 0.929 . S
C1030 C1026 1.531 . S
C1030 H1042 0.960 . S
C1030 H1043 0.962 . S
C1030 H1044 0.960 . S
C1031 C1028 1.511 . S
C1031 H1045 0.961 . S
C1031 H1046 0.961 . S
C1031 H1047 0.961 . S
C1032 C1033 1.370 . S
C1032 C1034 1.363 . S
C1032 H1048 0.931 . S
C1033 C1032 1.370 . S
C1033 C1037 1.408 . S
C1034 C1032 1.363 . S
C1034 C1035 1.370 . S
C1034 C1038 1.524 . S
C1035 C1027 1.503 . S
C1035 C1034 1.370 . S
C1035 C1036 1.403 . S
C1036 C1035 1.403 . S
C1036 C1037 1.404 . S
C1036 C1039 1.539 . S
C1037 C1033 1.408 . S
C1037 C1036 1.404 . S
C1037 H1049 0.930 . S
C1038 C1034 1.524 . S
C1038 H1050 0.956 . S
C1038 H1051 0.961 . S
C1038 H1052 0.961 . S
C1039 C1036 1.539 . S
C1039 H1053 0.958 . S
C1039 H1054 0.961 . S
C1039 H1055 0.960 . S
H1040 C1024 0.931 . S
H1041 C1029 0.929 . S
H1042 C1030 0.960 . S
H1043 C1030 0.962 . S
H1044 C1030 0.960 . S
H1045 C1031 0.961 . S
H1046 C1031 0.961 . S
H1047 C1031 0.961 . S
H1048 C1032 0.931 . S
H1049 C1037 0.930 . S
H1050 C1038 0.956 . S
H1051 C1038 0.961 . S
H1052 C1038 0.961 . S
H1053 C1039 0.958 . S
H1054 C1039 0.961 . S
H1055 C1039 0.960 . S
C1056 C1057 1.391 . S
C1056 C1058 1.394 . S
C1056 H1072 0.931 . S
C1057 C1056 1.391 . S
C1057 C1061 1.376 . S
C1058 C1056 1.394 . S
C1058 C1059 1.369 . S
C1058 C1062 1.531 . S
C1059 C1058 1.369 . S
C1059 C1060 1.410 . S
C1059 C1067 1.503 . S
C1060 C1059 1.410 . S
C1060 C1061 1.392 . S
C1060 C1063 1.511 . S
C1061 C1057 1.376 . S
C1061 C1060 1.392 . S
C1061 H1073 0.929 . S
C1062 C1058 1.531 . S
C1062 H1074 0.960 . S
C1062 H1075 0.962 . S
C1062 H1076 0.960 . S
C1063 C1060 1.511 . S
C1063 H1077 0.961 . S
C1063 H1078 0.961 . S
C1063 H1079 0.961 . S
C1064 C1065 1.370 . S
C1064 C1066 1.363 . S
C1064 H1080 0.931 . S
C1065 C1064 1.370 . S
C1065 C1069 1.408 . S
C1066 C1064 1.363 . S
C1066 C1067 1.370 . S
C1066 C1070 1.524 . S
C1067 C1059 1.503 . S
C1067 C1066 1.370 . S
C1067 C1068 1.403 . S
C1068 C1067 1.403 . S
C1068 C1069 1.404 . S
C1068 C1071 1.539 . S
C1069 C1065 1.408 . S
C1069 C1068 1.404 . S
C1069 H1081 0.930 . S
C1070 C1066 1.524 . S
C1070 H1082 0.956 . S
C1070 H1083 0.961 . S
C1070 H1084 0.961 . S
C1071 C1068 1.539 . S
C1071 H1085 0.958 . S
C1071 H1086 0.961 . S
C1071 H1087 0.960 . S
H1072 C1056 0.931 . S
H1073 C1061 0.929 . S
H1074 C1062 0.960 . S
H1075 C1062 0.962 . S
H1076 C1062 0.960 . S
H1077 C1063 0.961 . S
H1078 C1063 0.961 . S
H1079 C1063 0.961 . S
H1080 C1064 0.931 . S
H1081 C1069 0.930 . S
H1082 C1070 0.956 . S
H1083 C1070 0.961 . S
H1084 C1070 0.961 . S
H1085 C1071 0.958 . S
H1086 C1071 0.961 . S
H1087 C1071 0.960 . S
C1088 C1089 1.391 . S
C1088 C1090 1.394 . S
C1088 H1104 0.931 . S
C1089 C1088 1.391 . S
C1089 C1093 1.376 . S
C1090 C1088 1.394 . S
C1090 C1091 1.369 . S
C1090 C1094 1.531 . S
C1091 C1090 1.369 . S
C1091 C1092 1.410 . S
C1091 C1099 1.503 . S
C1092 C1091 1.410 . S
C1092 C1093 1.392 . S
C1092 C1095 1.511 . S
C1093 C1089 1.376 . S
C1093 C1092 1.392 . S
C1093 H1105 0.929 . S
C1094 C1090 1.531 . S
C1094 H1106 0.960 . S
C1094 H1107 0.962 . S
C1094 H1108 0.960 . S
C1095 C1092 1.511 . S
C1095 H1109 0.961 . S
C1095 H1110 0.961 . S
C1095 H1111 0.961 . S
C1096 C1097 1.370 . S
C1096 C1098 1.363 . S
C1096 H1112 0.931 . S
C1097 C1096 1.370 . S
C1097 C1101 1.408 . S
C1098 C1096 1.363 . S
C1098 C1099 1.370 . S
C1098 C1102 1.524 . S
C1099 C1091 1.503 . S
C1099 C1098 1.370 . S
C1099 C1100 1.403 . S
C1100 C1099 1.403 . S
C1100 C1101 1.404 . S
C1100 C1103 1.539 . S
C1101 C1097 1.408 . S
C1101 C1100 1.404 . S
C1101 H1113 0.930 . S
C1102 C1098 1.524 . S
C1102 H1114 0.956 . S
C1102 H1115 0.961 . S
C1102 H1116 0.961 . S
C1103 C1100 1.539 . S
C1103 H1117 0.958 . S
C1103 H1118 0.961 . S
C1103 H1119 0.960 . S
H1104 C1088 0.931 . S
H1105 C1093 0.929 . S
H1106 C1094 0.960 . S
H1107 C1094 0.962 . S
H1108 C1094 0.960 . S
H1109 C1095 0.961 . S
H1110 C1095 0.961 . S
H1111 C1095 0.961 . S
H1112 C1096 0.931 . S
H1113 C1101 0.930 . S
H1114 C1102 0.956 . S
H1115 C1102 0.961 . S
H1116 C1102 0.961 . S
H1117 C1103 0.958 . S
H1118 C1103 0.961 . S
H1119 C1103 0.960 . S
C1120 C1121 1.391 . S
C1120 C1122 1.394 . S
C1120 H1136 0.931 . S
C1121 C1120 1.391 . S
C1121 C1125 1.376 . S
C1122 C1120 1.394 . S
C1122 C1123 1.369 . S
C1122 C1126 1.531 . S
C1123 C1122 1.369 . S
C1123 C1124 1.410 . S
C1123 C1131 1.503 . S
C1124 C1123 1.410 . S
C1124 C1125 1.392 . S
C1124 C1127 1.511 . S
C1125 C1121 1.376 . S
C1125 C1124 1.392 . S
C1125 H1137 0.929 . S
C1126 C1122 1.531 . S
C1126 H1138 0.960 . S
C1126 H1139 0.962 . S
C1126 H1140 0.960 . S
C1127 C1124 1.511 . S
C1127 H1141 0.961 . S
C1127 H1142 0.961 . S
C1127 H1143 0.961 . S
C1128 C1129 1.370 . S
C1128 C1130 1.363 . S
C1128 H1144 0.931 . S
C1129 C1128 1.370 . S
C1129 C1133 1.408 . S
C1130 C1128 1.363 . S
C1130 C1131 1.370 . S
C1130 C1134 1.524 . S
C1131 C1123 1.503 . S
C1131 C1130 1.370 . S
C1131 C1132 1.403 . S
C1132 C1131 1.403 . S
C1132 C1133 1.404 . S
C1132 C1135 1.539 . S
C1133 C1129 1.408 . S
C1133 C1132 1.404 . S
C1133 H1145 0.930 . S
C1134 C1130 1.524 . S
C1134 H1146 0.956 . S
C1134 H1147 0.961 . S
C1134 H1148 0.961 . S
C1135 C1132 1.539 . S
C1135 H1149 0.958 . S
C1135 H1150 0.961 . S
C1135 H1151 0.960 . S
H1136 C1120 0.931 . S
H1137 C1125 0.929 . S
H1138 C1126 0.960 . S
H1139 C1126 0.962 . S
H1140 C1126 0.960 . S
H1141 C1127 0.961 . S
H1142 C1127 0.961 . S
H1143 C1127 0.961 . S
H1144 C1128 0.931 . S
H1145 C1133 0.930 . S
H1146 C1134 0.956 . S
H1147 C1134 0.961 . S
H1148 C1134 0.961 . S
H1149 C1135 0.958 . S
H1150 C1135 0.961 . S
H1151 C1135 0.960 . S
C1152 C1153 1.391 . S
C1152 C1154 1.394 . S
C1152 H1168 0.931 . S
C1153 C1152 1.391 . S
C1153 C1157 1.376 . S
C1154 C1152 1.394 . S
C1154 C1155 1.369 . S
C1154 C1158 1.531 . S
C1155 C1154 1.369 . S
C1155 C1156 1.410 . S
C1155 C1163 1.503 . S
C1156 C1155 1.410 . S
C1156 C1157 1.392 . S
C1156 C1159 1.511 . S
C1157 C1153 1.376 . S
C1157 C1156 1.392 . S
C1157 H1169 0.929 . S
C1158 C1154 1.531 . S
C1158 H1170 0.960 . S
C1158 H1171 0.962 . S
C1158 H1172 0.960 . S
C1159 C1156 1.511 . S
C1159 H1173 0.961 . S
C1159 H1174 0.961 . S
C1159 H1175 0.961 . S
C1160 C1161 1.370 . S
C1160 C1162 1.363 . S
C1160 H1176 0.931 . S
C1161 C1160 1.370 . S
C1161 C1165 1.408 1_545 S
C1162 C1160 1.363 . S
C1162 C1163 1.370 1_545 S
C1162 C1166 1.524 . S
C1163 C1155 1.503 . S
C1163 C1162 1.370 1_565 S
C1163 C1164 1.403 . S
C1164 C1163 1.403 . S
C1164 C1165 1.404 . S
C1164 C1167 1.539 . S
C1165 C1161 1.408 1_565 S
C1165 C1164 1.404 . S
C1165 H1177 0.930 1_655 S
C1166 C1162 1.524 . S
C1166 H1178 0.956 . S
C1166 H1179 0.961 . S
C1166 H1180 0.961 . S
C1167 C1164 1.539 . S
C1167 H1181 0.958 . S
C1167 H1182 0.961 . S
C1167 H1183 0.960 . S
H1168 C1152 0.931 . S
H1169 C1157 0.929 . S
H1170 C1158 0.960 . S
H1171 C1158 0.962 . S
H1172 C1158 0.960 . S
H1173 C1159 0.961 . S
H1174 C1159 0.961 . S
H1175 C1159 0.961 . S
H1176 C1160 0.931 . S
H1177 C1165 0.930 1_455 S
H1178 C1166 0.956 . S
H1179 C1166 0.961 . S
H1180 C1166 0.961 . S
H1181 C1167 0.958 . S
H1182 C1167 0.961 . S
H1183 C1167 0.960 . S
C1184 C1185 1.391 . S
C1184 C1186 1.394 . S
C1184 H1200 0.931 . S
C1185 C1184 1.391 . S
C1185 C1189 1.376 . S
C1186 C1184 1.394 . S
C1186 C1187 1.369 . S
C1186 C1190 1.531 . S
C1187 C1186 1.369 . S
C1187 C1188 1.410 . S
C1187 C1195 1.503 . S
C1188 C1187 1.410 . S
C1188 C1189 1.392 . S
C1188 C1191 1.511 . S
C1189 C1185 1.376 . S
C1189 C1188 1.392 . S
C1189 H1201 0.929 . S
C1190 C1186 1.531 . S
C1190 H1202 0.960 . S
C1190 H1203 0.962 . S
C1190 H1204 0.960 . S
C1191 C1188 1.511 . S
C1191 H1205 0.961 . S
C1191 H1206 0.961 . S
C1191 H1207 0.961 . S
C1192 C1193 1.370 . S
C1192 C1194 1.363 . S
C1192 H1208 0.931 . S
C1193 C1192 1.370 . S
C1193 C1197 1.408 . S
C1194 C1192 1.363 . S
C1194 C1195 1.370 . S
C1194 C1198 1.524 . S
C1195 C1187 1.503 . S
C1195 C1194 1.370 . S
C1195 C1196 1.403 . S
C1196 C1195 1.403 . S
C1196 C1197 1.404 . S
C1196 C1199 1.539 . S
C1197 C1193 1.408 . S
C1197 C1196 1.404 . S
C1197 H1209 0.930 . S
C1198 C1194 1.524 . S
C1198 H1210 0.956 . S
C1198 H1211 0.961 . S
C1198 H1212 0.961 . S
C1199 C1196 1.539 . S
C1199 H1213 0.958 . S
C1199 H1214 0.961 . S
C1199 H1215 0.960 . S
H1200 C1184 0.931 . S
H1201 C1189 0.929 . S
H1202 C1190 0.960 . S
H1203 C1190 0.962 . S
H1204 C1190 0.960 . S
H1205 C1191 0.961 . S
H1206 C1191 0.961 . S
H1207 C1191 0.961 . S
H1208 C1192 0.931 . S
H1209 C1197 0.930 . S
H1210 C1198 0.956 . S
H1211 C1198 0.961 . S
H1212 C1198 0.961 . S
H1213 C1199 0.958 . S
H1214 C1199 0.961 . S
H1215 C1199 0.960 . S
C1216 C1217 1.391 . S
C1216 C1218 1.394 . S
C1216 H1232 0.931 . S
C1217 C1216 1.391 . S
C1217 C1221 1.376 . S
C1218 C1216 1.394 . S
C1218 C1219 1.369 . S
C1218 C1222 1.531 . S
C1219 C1218 1.369 . S
C1219 C1220 1.410 . S
C1219 C1227 1.503 . S
C1220 C1219 1.410 . S
C1220 C1221 1.392 . S
C1220 C1223 1.511 1_545 S
C1221 C1217 1.376 . S
C1221 C1220 1.392 . S
C1221 H1233 0.929 . S
C1222 C1218 1.531 . S
C1222 H1234 0.960 . S
C1222 H1235 0.962 . S
C1222 H1236 0.960 . S
C1223 C1220 1.511 1_565 S
C1223 H1237 0.961 . S
C1223 H1238 0.961 . S
C1223 H1239 0.961 . S
C1224 C1225 1.370 . S
C1224 C1226 1.363 1_565 S
C1224 H1240 0.931 . S
C1225 C1224 1.370 . S
C1225 C1229 1.408 1_565 S
C1226 C1224 1.363 1_545 S
C1226 C1227 1.370 . S
C1226 C1230 1.524 . S
C1227 C1219 1.503 . S
C1227 C1226 1.370 . S
C1227 C1228 1.403 . S
C1228 C1227 1.403 . S
C1228 C1229 1.404 . S
C1228 C1231 1.539 . S
C1229 C1225 1.408 1_545 S
C1229 C1228 1.404 . S
C1229 H1241 0.930 . S
C1230 C1226 1.524 . S
C1230 H1242 0.956 . S
C1230 H1243 0.961 1_545 S
C1230 H1244 0.961 1_545 S
C1231 C1228 1.539 . S
C1231 H1245 0.958 . S
C1231 H1246 0.961 . S
C1231 H1247 0.960 . S
H1232 C1216 0.931 . S
H1233 C1221 0.929 . S
H1234 C1222 0.960 . S
H1235 C1222 0.962 . S
H1236 C1222 0.960 . S
H1237 C1223 0.961 . S
H1238 C1223 0.961 . S
H1239 C1223 0.961 . S
H1240 C1224 0.931 . S
H1241 C1229 0.930 . S
H1242 C1230 0.956 . S
H1243 C1230 0.961 1_565 S
H1244 C1230 0.961 1_565 S
H1245 C1231 0.958 . S
H1246 C1231 0.961 . S
H1247 C1231 0.960 . S
C1248 C1249 1.391 . S
C1248 C1250 1.394 . S
C1248 H1264 0.931 . S
C1249 C1248 1.391 . S
C1249 C1253 1.376 . S
C1250 C1248 1.394 . S
C1250 C1251 1.369 . S
C1250 C1254 1.531 . S
C1251 C1250 1.369 . S
C1251 C1252 1.410 . S
C1251 C1259 1.503 . S
C1252 C1251 1.410 . S
C1252 C1253 1.392 . S
C1252 C1255 1.511 . S
C1253 C1249 1.376 . S
C1253 C1252 1.392 . S
C1253 H1265 0.929 . S
C1254 C1250 1.531 . S
C1254 H1266 0.960 . S
C1254 H1267 0.962 . S
C1254 H1268 0.960 . S
C1255 C1252 1.511 . S
C1255 H1269 0.961 . S
C1255 H1270 0.961 . S
C1255 H1271 0.961 . S
C1256 C1257 1.370 . S
C1256 C1258 1.363 . S
C1256 H1272 0.931 . S
C1257 C1256 1.370 . S
C1257 C1261 1.408 . S
C1258 C1256 1.363 . S
C1258 C1259 1.370 . S
C1258 C1262 1.524 . S
C1259 C1251 1.503 . S
C1259 C1258 1.370 . S
C1259 C1260 1.403 . S
C1260 C1259 1.403 . S
C1260 C1261 1.404 . S
C1260 C1263 1.539 . S
C1261 C1257 1.408 . S
C1261 C1260 1.404 . S
C1261 H1273 0.930 . S
C1262 C1258 1.524 . S
C1262 H1274 0.956 . S
C1262 H1275 0.961 . S
C1262 H1276 0.961 . S
C1263 C1260 1.539 . S
C1263 H1277 0.958 . S
C1263 H1278 0.961 . S
C1263 H1279 0.960 . S
H1264 C1248 0.931 . S
H1265 C1253 0.929 . S
H1266 C1254 0.960 . S
H1267 C1254 0.962 . S
H1268 C1254 0.960 . S
H1269 C1255 0.961 . S
H1270 C1255 0.961 . S
H1271 C1255 0.961 . S
H1272 C1256 0.931 . S
H1273 C1261 0.930 . S
H1274 C1262 0.956 . S
H1275 C1262 0.961 . S
H1276 C1262 0.961 . S
H1277 C1263 0.958 . S
H1278 C1263 0.961 . S
H1279 C1263 0.960 . S
C1280 C1281 1.391 . S
C1280 C1282 1.394 . S
C1280 H1296 0.931 . S
C1281 C1280 1.391 . S
C1281 C1285 1.376 1_565 S
C1282 C1280 1.394 . S
C1282 C1283 1.369 1_565 S
C1282 C1286 1.531 . S
C1283 C1282 1.369 1_545 S
C1283 C1284 1.410 . S
C1283 C1291 1.503 . S
C1284 C1283 1.410 . S
C1284 C1285 1.392 . S
C1284 C1287 1.511 . S
C1285 C1281 1.376 1_545 S
C1285 C1284 1.392 . S
C1285 H1297 0.929 1_455 S
C1286 C1282 1.531 . S
C1286 H1298 0.960 . S
C1286 H1299 0.962 . S
C1286 H1300 0.960 . S
C1287 C1284 1.511 . S
C1287 H1301 0.961 . S
C1287 H1302 0.961 . S
C1287 H1303 0.961 . S
C1288 C1289 1.370 . S
C1288 C1290 1.363 . S
C1288 H1304 0.931 . S
C1289 C1288 1.370 . S
C1289 C1293 1.408 . S
C1290 C1288 1.363 . S
C1290 C1291 1.370 . S
C1290 C1294 1.524 . S
C1291 C1283 1.503 . S
C1291 C1290 1.370 . S
C1291 C1292 1.403 . S
C1292 C1291 1.403 . S
C1292 C1293 1.404 . S
C1292 C1295 1.539 . S
C1293 C1289 1.408 . S
C1293 C1292 1.404 . S
C1293 H1305 0.930 . S
C1294 C1290 1.524 . S
C1294 H1306 0.956 . S
C1294 H1307 0.961 . S
C1294 H1308 0.961 . S
C1295 C1292 1.539 . S
C1295 H1309 0.958 . S
C1295 H1310 0.961 . S
C1295 H1311 0.960 . S
H1296 C1280 0.931 . S
H1297 C1285 0.929 1_655 S
H1298 C1286 0.960 . S
H1299 C1286 0.962 . S
H1300 C1286 0.960 . S
H1301 C1287 0.961 . S
H1302 C1287 0.961 . S
H1303 C1287 0.961 . S
H1304 C1288 0.931 . S
H1305 C1293 0.930 . S
H1306 C1294 0.956 . S
H1307 C1294 0.961 . S
H1308 C1294 0.961 . S
H1309 C1295 0.958 . S
H1310 C1295 0.961 . S
H1311 C1295 0.960 . S
C1312 C1313 1.391 . S
C1312 C1314 1.394 . S
C1312 H1328 0.931 . S
C1313 C1312 1.391 . S
C1313 C1317 1.376 . S
C1314 C1312 1.394 . S
C1314 C1315 1.369 . S
C1314 C1318 1.531 . S
C1315 C1314 1.369 . S
C1315 C1316 1.410 . S
C1315 C1323 1.503 . S
C1316 C1315 1.410 . S
C1316 C1317 1.392 . S
C1316 C1319 1.511 . S
C1317 C1313 1.376 . S
C1317 C1316 1.392 . S
C1317 H1329 0.929 . S
C1318 C1314 1.531 . S
C1318 H1330 0.960 . S
C1318 H1331 0.962 . S
C1318 H1332 0.960 . S
C1319 C1316 1.511 . S
C1319 H1333 0.961 . S
C1319 H1334 0.961 . S
C1319 H1335 0.961 . S
C1320 C1321 1.370 . S
C1320 C1322 1.363 . S
C1320 H1336 0.931 . S
C1321 C1320 1.370 . S
C1321 C1325 1.408 . S
C1322 C1320 1.363 . S
C1322 C1323 1.370 . S
C1322 C1326 1.524 . S
C1323 C1315 1.503 . S
C1323 C1322 1.370 . S
C1323 C1324 1.403 . S
C1324 C1323 1.403 . S
C1324 C1325 1.404 . S
C1324 C1327 1.539 . S
C1325 C1321 1.408 . S
C1325 C1324 1.404 . S
C1325 H1337 0.930 . S
C1326 C1322 1.524 . S
C1326 H1338 0.956 . S
C1326 H1339 0.961 . S
C1326 H1340 0.961 . S
C1327 C1324 1.539 . S
C1327 H1341 0.958 . S
C1327 H1342 0.961 . S
C1327 H1343 0.960 . S
H1328 C1312 0.931 . S
H1329 C1317 0.929 . S
H1330 C1318 0.960 . S
H1331 C1318 0.962 . S
H1332 C1318 0.960 . S
H1333 C1319 0.961 . S
H1334 C1319 0.961 . S
H1335 C1319 0.961 . S
H1336 C1320 0.931 . S
H1337 C1325 0.930 . S
H1338 C1326 0.956 . S
H1339 C1326 0.961 . S
H1340 C1326 0.961 . S
H1341 C1327 0.958 . S
H1342 C1327 0.961 . S
H1343 C1327 0.960 . S
C1344 C1345 1.391 . S
C1344 C1346 1.394 1_545 S
C1344 H1360 0.931 . S
C1345 C1344 1.391 . S
C1345 C1349 1.376 1_545 S
C1346 C1344 1.394 1_565 S
C1346 C1347 1.369 . S
C1346 C1350 1.531 . S
C1347 C1346 1.369 . S
C1347 C1348 1.410 . S
C1347 C1355 1.503 . S
C1348 C1347 1.410 . S
C1348 C1349 1.392 . S
C1348 C1351 1.511 . S
C1349 C1345 1.376 1_565 S
C1349 C1348 1.392 . S
C1349 H1361 0.929 . S
C1350 C1346 1.531 . S
C1350 H1362 0.960 . S
C1350 H1363 0.962 1_565 S
C1350 H1364 0.960 . S
C1351 C1348 1.511 . S
C1351 H1365 0.961 . S
C1351 H1366 0.961 . S
C1351 H1367 0.961 . S
C1352 C1353 1.370 . S
C1352 C1354 1.363 . S
C1352 H1368 0.931 . S
C1353 C1352 1.370 . S
C1353 C1357 1.408 . S
C1354 C1352 1.363 . S
C1354 C1355 1.370 . S
C1354 C1358 1.524 1_565 S
C1355 C1347 1.503 . S
C1355 C1354 1.370 . S
C1355 C1356 1.403 . S
C1356 C1355 1.403 . S
C1356 C1357 1.404 . S
C1356 C1359 1.539 . S
C1357 C1353 1.408 . S
C1357 C1356 1.404 . S
C1357 H1369 0.930 . S
C1358 C1354 1.524 1_545 S
C1358 H1370 0.956 . S
C1358 H1371 0.961 . S
C1358 H1372 0.961 . S
C1359 C1356 1.539 . S
C1359 H1373 0.958 . S
C1359 H1374 0.961 . S
C1359 H1375 0.960 . S
H1360 C1344 0.931 . S
H1361 C1349 0.929 . S
H1362 C1350 0.960 . S
H1363 C1350 0.962 1_545 S
H1364 C1350 0.960 . S
H1365 C1351 0.961 . S
H1366 C1351 0.961 . S
H1367 C1351 0.961 . S
H1368 C1352 0.931 . S
H1369 C1357 0.930 . S
H1370 C1358 0.956 . S
H1371 C1358 0.961 . S
H1372 C1358 0.961 . S
H1373 C1359 0.958 . S
H1374 C1359 0.961 . S
H1375 C1359 0.960 . S
C1376 C1377 1.391 . S
C1376 C1378 1.394 1_554 S
C1376 H1392 0.931 . S
C1377 C1376 1.391 . S
C1377 C1381 1.376 . S
C1378 C1376 1.394 1_556 S
C1378 C1379 1.369 . S
C1378 C1382 1.531 . S
C1379 C1378 1.369 . S
C1379 C1380 1.410 . S
C1379 C1387 1.503 . S
C1380 C1379 1.410 . S
C1380 C1381 1.392 1_556 S
C1380 C1383 1.511 . S
C1381 C1377 1.376 . S
C1381 C1380 1.392 1_554 S
C1381 H1393 0.929 . S
C1382 C1378 1.531 . S
C1382 H1394 0.960 . S
C1382 H1395 0.962 . S
C1382 H1396 0.960 . S
C1383 C1380 1.511 . S
C1383 H1397 0.961 1_556 S
C1383 H1398 0.961 . S
C1383 H1399 0.961 . S
C1384 C1385 1.370 . S
C1384 C1386 1.363 . S
C1384 H1400 0.931 . S
C1385 C1384 1.370 . S
C1385 C1389 1.408 . S
C1386 C1384 1.363 . S
C1386 C1387 1.370 . S
C1386 C1390 1.524 . S
C1387 C1379 1.503 . S
C1387 C1386 1.370 . S
C1387 C1388 1.403 . S
C1388 C1387 1.403 . S
C1388 C1389 1.404 . S
C1388 C1391 1.539 . S
C1389 C1385 1.408 . S
C1389 C1388 1.404 . S
C1389 H1401 0.930 . S
C1390 C1386 1.524 . S
C1390 H1402 0.956 . S
C1390 H1403 0.961 . S
C1390 H1404 0.961 . S
C1391 C1388 1.539 . S
C1391 H1405 0.958 . S
C1391 H1406 0.961 . S
C1391 H1407 0.960 . S
H1392 C1376 0.931 . S
H1393 C1381 0.929 . S
H1394 C1382 0.960 . S
H1395 C1382 0.962 . S
H1396 C1382 0.960 . S
H1397 C1383 0.961 1_554 S
H1398 C1383 0.961 . S
H1399 C1383 0.961 . S
H1400 C1384 0.931 . S
H1401 C1389 0.930 . S
H1402 C1390 0.956 . S
H1403 C1390 0.961 . S
H1404 C1390 0.961 . S
H1405 C1391 0.958 . S
H1406 C1391 0.961 . S
H1407 C1391 0.960 . S
C1408 C1409 1.391 . S
C1408 C1410 1.394 . S
C1408 H1424 0.931 . S
C1409 C1408 1.391 . S
C1409 C1413 1.376 . S
C1410 C1408 1.394 . S
C1410 C1411 1.369 . S
C1410 C1414 1.531 . S
C1411 C1410 1.369 . S
C1411 C1412 1.410 . S
C1411 C1419 1.503 . S
C1412 C1411 1.410 . S
C1412 C1413 1.392 . S
C1412 C1415 1.511 . S
C1413 C1409 1.376 . S
C1413 C1412 1.392 . S
C1413 H1425 0.929 . S
C1414 C1410 1.531 . S
C1414 H1426 0.960 . S
C1414 H1427 0.962 . S
C1414 H1428 0.960 . S
C1415 C1412 1.511 . S
C1415 H1429 0.961 . S
C1415 H1430 0.961 . S
C1415 H1431 0.961 . S
C1416 C1417 1.370 . S
C1416 C1418 1.363 . S
C1416 H1432 0.931 . S
C1417 C1416 1.370 . S
C1417 C1421 1.408 . S
C1418 C1416 1.363 . S
C1418 C1419 1.370 . S
C1418 C1422 1.524 . S
C1419 C1411 1.503 . S
C1419 C1418 1.370 . S
C1419 C1420 1.403 . S
C1420 C1419 1.403 . S
C1420 C1421 1.404 . S
C1420 C1423 1.539 . S
C1421 C1417 1.408 . S
C1421 C1420 1.404 . S
C1421 H1433 0.930 . S
C1422 C1418 1.524 . S
C1422 H1434 0.956 . S
C1422 H1435 0.961 . S
C1422 H1436 0.961 . S
C1423 C1420 1.539 . S
C1423 H1437 0.958 . S
C1423 H1438 0.961 . S
C1423 H1439 0.960 . S
H1424 C1408 0.931 . S
H1425 C1413 0.929 . S
H1426 C1414 0.960 . S
H1427 C1414 0.962 . S
H1428 C1414 0.960 . S
H1429 C1415 0.961 . S
H1430 C1415 0.961 . S
H1431 C1415 0.961 . S
H1432 C1416 0.931 . S
H1433 C1421 0.930 . S
H1434 C1422 0.956 . S
H1435 C1422 0.961 . S
H1436 C1422 0.961 . S
H1437 C1423 0.958 . S
H1438 C1423 0.961 . S
H1439 C1423 0.960 . S
C1440 C1441 1.391 . S
C1440 C1442 1.394 . S
C1440 H1456 0.931 . S
C1441 C1440 1.391 . S
C1441 C1445 1.376 . S
C1442 C1440 1.394 . S
C1442 C1443 1.369 . S
C1442 C1446 1.531 . S
C1443 C1442 1.369 . S
C1443 C1444 1.410 . S
C1443 C1451 1.503 . S
C1444 C1443 1.410 . S
C1444 C1445 1.392 . S
C1444 C1447 1.511 . S
C1445 C1441 1.376 . S
C1445 C1444 1.392 . S
C1445 H1457 0.929 . S
C1446 C1442 1.531 . S
C1446 H1458 0.960 . S
C1446 H1459 0.962 . S
C1446 H1460 0.960 . S
C1447 C1444 1.511 . S
C1447 H1461 0.961 . S
C1447 H1462 0.961 . S
C1447 H1463 0.961 . S
C1448 C1449 1.370 . S
C1448 C1450 1.363 . S
C1448 H1464 0.931 . S
C1449 C1448 1.370 . S
C1449 C1453 1.408 . S
C1450 C1448 1.363 . S
C1450 C1451 1.370 . S
C1450 C1454 1.524 . S
C1451 C1443 1.503 . S
C1451 C1450 1.370 . S
C1451 C1452 1.403 . S
C1452 C1451 1.403 . S
C1452 C1453 1.404 . S
C1452 C1455 1.539 . S
C1453 C1449 1.408 . S
C1453 C1452 1.404 . S
C1453 H1465 0.930 . S
C1454 C1450 1.524 . S
C1454 H1466 0.956 . S
C1454 H1467 0.961 . S
C1454 H1468 0.961 . S
C1455 C1452 1.539 . S
C1455 H1469 0.958 . S
C1455 H1470 0.961 . S
C1455 H1471 0.960 . S
H1456 C1440 0.931 . S
H1457 C1445 0.929 . S
H1458 C1446 0.960 . S
H1459 C1446 0.962 . S
H1460 C1446 0.960 . S
H1461 C1447 0.961 . S
H1462 C1447 0.961 . S
H1463 C1447 0.961 . S
H1464 C1448 0.931 . S
H1465 C1453 0.930 . S
H1466 C1454 0.956 . S
H1467 C1454 0.961 . S
H1468 C1454 0.961 . S
H1469 C1455 0.958 . S
H1470 C1455 0.961 . S
H1471 C1455 0.960 . S
C1472 C1473 1.391 . S
C1472 C1474 1.394 . S
C1472 H1488 0.931 . S
C1473 C1472 1.391 . S
C1473 C1477 1.376 . S
C1474 C1472 1.394 . S
C1474 C1475 1.369 . S
C1474 C1478 1.531 . S
C1475 C1474 1.369 . S
C1475 C1476 1.410 . S
C1475 C1483 1.503 . S
C1476 C1475 1.410 . S
C1476 C1477 1.392 . S
C1476 C1479 1.511 . S
C1477 C1473 1.376 . S
C1477 C1476 1.392 . S
C1477 H1489 0.929 . S
C1478 C1474 1.531 . S
C1478 H1490 0.960 . S
C1478 H1491 0.962 . S
C1478 H1492 0.960 . S
C1479 C1476 1.511 . S
C1479 H1493 0.961 . S
C1479 H1494 0.961 . S
C1479 H1495 0.961 . S
C1480 C1481 1.370 . S
C1480 C1482 1.363 . S
C1480 H1496 0.931 . S
C1481 C1480 1.370 . S
C1481 C1485 1.408 . S
C1482 C1480 1.363 . S
C1482 C1483 1.370 . S
C1482 C1486 1.524 . S
C1483 C1475 1.503 . S
C1483 C1482 1.370 . S
C1483 C1484 1.403 . S
C1484 C1483 1.403 . S
C1484 C1485 1.404 . S
C1484 C1487 1.539 . S
C1485 C1481 1.408 . S
C1485 C1484 1.404 . S
C1485 H1497 0.930 . S
C1486 C1482 1.524 . S
C1486 H1498 0.956 . S
C1486 H1499 0.961 . S
C1486 H1500 0.961 . S
C1487 C1484 1.539 . S
C1487 H1501 0.958 . S
C1487 H1502 0.961 . S
C1487 H1503 0.960 . S
H1488 C1472 0.931 . S
H1489 C1477 0.929 . S
H1490 C1478 0.960 . S
H1491 C1478 0.962 . S
H1492 C1478 0.960 . S
H1493 C1479 0.961 . S
H1494 C1479 0.961 . S
H1495 C1479 0.961 . S
H1496 C1480 0.931 . S
H1497 C1485 0.930 . S
H1498 C1486 0.956 . S
H1499 C1486 0.961 . S
H1500 C1486 0.961 . S
H1501 C1487 0.958 . S
H1502 C1487 0.961 . S
H1503 C1487 0.960 . S
C1504 C1505 1.391 . S
C1504 C1506 1.394 . S
C1504 H1520 0.931 . S
C1505 C1504 1.391 . S
C1505 C1509 1.376 . S
C1506 C1504 1.394 . S
C1506 C1507 1.369 . S
C1506 C1510 1.531 . S
C1507 C1506 1.369 . S
C1507 C1508 1.410 . S
C1507 C1515 1.503 . S
C1508 C1507 1.410 . S
C1508 C1509 1.392 . S
C1508 C1511 1.511 . S
C1509 C1505 1.376 . S
C1509 C1508 1.392 . S
C1509 H1521 0.929 . S
C1510 C1506 1.531 . S
C1510 H1522 0.960 . S
C1510 H1523 0.962 . S
C1510 H1524 0.960 . S
C1511 C1508 1.511 . S
C1511 H1525 0.961 . S
C1511 H1526 0.961 . S
C1511 H1527 0.961 . S
C1512 C1513 1.370 . S
C1512 C1514 1.363 1_556 S
C1512 H1528 0.931 . S
C1513 C1512 1.370 . S
C1513 C1517 1.408 . S
C1514 C1512 1.363 1_554 S
C1514 C1515 1.370 . S
C1514 C1518 1.524 . S
C1515 C1507 1.503 . S
C1515 C1514 1.370 . S
C1515 C1516 1.403 . S
C1516 C1515 1.403 . S
C1516 C1517 1.404 1_554 S
C1516 C1519 1.539 . S
C1517 C1513 1.408 . S
C1517 C1516 1.404 1_556 S
C1517 H1529 0.930 . S
C1518 C1514 1.524 . S
C1518 H1530 0.956 . S
C1518 H1531 0.961 . S
C1518 H1532 0.964 . S
C1519 C1516 1.539 . S
C1519 H1533 0.958 . S
C1519 H1534 0.961 . S
C1519 H1535 0.960 . S
H1520 C1504 0.931 . S
H1521 C1509 0.929 . S
H1522 C1510 0.960 . S
H1523 C1510 0.962 . S
H1524 C1510 0.960 . S
H1525 C1511 0.961 . S
H1526 C1511 0.961 . S
H1527 C1511 0.961 . S
H1528 C1512 0.931 . S
H1529 C1517 0.930 . S
H1530 C1518 0.956 . S
H1531 C1518 0.961 . S
H1532 C1518 0.964 . S
H1533 C1519 0.958 . S
H1534 C1519 0.961 . S
H1535 C1519 0.960 . S
C1536 C1537 1.391 . S
C1536 C1538 1.394 . S
C1536 H1552 0.931 . S
C1537 C1536 1.391 . S
C1537 C1541 1.376 . S
C1538 C1536 1.394 . S
C1538 C1539 1.369 . S
C1538 C1542 1.531 . S
C1539 C1538 1.369 . S
C1539 C1540 1.410 . S
C1539 C1547 1.503 . S
C1540 C1539 1.410 . S
C1540 C1541 1.392 . S
C1540 C1543 1.511 . S
C1541 C1537 1.376 . S
C1541 C1540 1.392 . S
C1541 H1553 0.929 . S
C1542 C1538 1.531 . S
C1542 H1554 0.960 . S
C1542 H1555 0.962 . S
C1542 H1556 0.960 . S
C1543 C1540 1.511 . S
C1543 H1557 0.961 . S
C1543 H1558 0.961 . S
C1543 H1559 0.961 . S
C1544 C1545 1.370 . S
C1544 C1546 1.363 . S
C1544 H1560 0.931 . S
C1545 C1544 1.370 . S
C1545 C1549 1.408 . S
C1546 C1544 1.363 . S
C1546 C1547 1.370 . S
C1546 C1550 1.524 . S
C1547 C1539 1.503 . S
C1547 C1546 1.370 . S
C1547 C1548 1.403 . S
C1548 C1547 1.403 . S
C1548 C1549 1.404 . S
C1548 C1551 1.539 . S
C1549 C1545 1.408 . S
C1549 C1548 1.404 . S
C1549 H1561 0.930 . S
C1550 C1546 1.524 . S
C1550 H1562 0.956 . S
C1550 H1563 0.961 . S
C1550 H1564 0.961 . S
C1551 C1548 1.539 . S
C1551 H1565 0.958 . S
C1551 H1566 0.961 . S
C1551 H1567 0.960 . S
H1552 C1536 0.931 . S
H1553 C1541 0.929 . S
H1554 C1542 0.960 . S
H1555 C1542 0.962 . S
H1556 C1542 0.960 . S
H1557 C1543 0.961 . S
H1558 C1543 0.961 . S
H1559 C1543 0.961 . S
H1560 C1544 0.931 . S
H1561 C1549 0.930 . S
H1562 C1550 0.956 . S
H1563 C1550 0.961 . S
H1564 C1550 0.961 . S
H1565 C1551 0.958 . S
H1566 C1551 0.961 . S
H1567 C1551 0.960 . S
C1568 C1569 1.391 . S
C1568 C1570 1.394 . S
C1568 H1584 0.931 . S
C1569 C1568 1.391 . S
C1569 C1573 1.376 . S
C1570 C1568 1.394 . S
C1570 C1571 1.369 . S
C1570 C1574 1.531 . S
C1571 C1570 1.369 . S
C1571 C1572 1.410 . S
C1571 C1579 1.503 . S
C1572 C1571 1.410 . S
C1572 C1573 1.392 . S
C1572 C1575 1.511 . S
C1573 C1569 1.376 . S
C1573 C1572 1.392 . S
C1573 H1585 0.929 . S
C1574 C1570 1.531 . S
C1574 H1586 0.960 . S
C1574 H1587 0.962 . S
C1574 H1588 0.960 . S
C1575 C1572 1.511 . S
C1575 H1589 0.961 . S
C1575 H1590 0.961 . S
C1575 H1591 0.961 . S
C1576 C1577 1.370 . S
C1576 C1578 1.363 . S
C1576 H1592 0.931 . S
C1577 C1576 1.370 . S
C1577 C1581 1.408 . S
C1578 C1576 1.363 . S
C1578 C1579 1.370 . S
C1578 C1582 1.524 . S
C1579 C1571 1.503 . S
C1579 C1578 1.370 . S
C1579 C1580 1.403 . S
C1580 C1579 1.403 . S
C1580 C1581 1.404 . S
C1580 C1583 1.539 . S
C1581 C1577 1.408 . S
C1581 C1580 1.404 . S
C1581 H1593 0.930 . S
C1582 C1578 1.524 . S
C1582 H1594 0.956 . S
C1582 H1595 0.961 . S
C1582 H1596 0.961 . S
C1583 C1580 1.539 . S
C1583 H1597 0.958 . S
C1583 H1598 0.961 . S
C1583 H1599 0.960 . S
H1584 C1568 0.931 . S
H1585 C1573 0.929 . S
H1586 C1574 0.960 . S
H1587 C1574 0.962 . S
H1588 C1574 0.960 . S
H1589 C1575 0.961 . S
H1590 C1575 0.961 . S
H1591 C1575 0.961 . S
H1592 C1576 0.931 . S
H1593 C1581 0.930 . S
H1594 C1582 0.956 . S
H1595 C1582 0.961 . S
H1596 C1582 0.961 . S
H1597 C1583 0.958 . S
H1598 C1583 0.961 . S
H1599 C1583 0.960 . S
C1600 C1601 1.391 . S
C1600 C1602 1.394 . S
C1600 H1616 0.931 . S
C1601 C1600 1.391 . S
C1601 C1605 1.376 . S
C1602 C1600 1.394 . S
C1602 C1603 1.369 . S
C1602 C1606 1.531 . S
C1603 C1602 1.369 . S
C1603 C1604 1.410 . S
C1603 C1611 1.503 . S
C1604 C1603 1.410 . S
C1604 C1605 1.392 . S
C1604 C1607 1.511 . S
C1605 C1601 1.376 . S
C1605 C1604 1.392 . S
C1605 H1617 0.929 . S
C1606 C1602 1.531 . S
C1606 H1618 0.960 . S
C1606 H1619 0.962 . S
C1606 H1620 0.960 . S
C1607 C1604 1.511 . S
C1607 H1621 0.961 . S
C1607 H1622 0.961 . S
C1607 H1623 0.961 . S
C1608 C1609 1.370 . S
C1608 C1610 1.363 . S
C1608 H1624 0.931 . S
C1609 C1608 1.370 . S
C1609 C1613 1.408 . S
C1610 C1608 1.363 . S
C1610 C1611 1.370 . S
C1610 C1614 1.524 . S
C1611 C1603 1.503 . S
C1611 C1610 1.370 . S
C1611 C1612 1.403 . S
C1612 C1611 1.403 . S
C1612 C1613 1.404 . S
C1612 C1615 1.539 . S
C1613 C1609 1.408 . S
C1613 C1612 1.404 . S
C1613 H1625 0.930 . S
C1614 C1610 1.524 . S
C1614 H1626 0.956 . S
C1614 H1627 0.961 . S
C1614 H1628 0.961 . S
C1615 C1612 1.539 . S
C1615 H1629 0.958 . S
C1615 H1630 0.961 . S
C1615 H1631 0.960 . S
H1616 C1600 0.931 . S
H1617 C1605 0.929 . S
H1618 C1606 0.960 . S
H1619 C1606 0.962 . S
H1620 C1606 0.960 . S
H1621 C1607 0.961 . S
H1622 C1607 0.961 . S
H1623 C1607 0.961 . S
H1624 C1608 0.931 . S
H1625 C1613 0.930 . S
H1626 C1614 0.956 . S
H1627 C1614 0.961 . S
H1628 C1614 0.961 . S
H1629 C1615 0.958 . S
H1630 C1615 0.961 . S
H1631 C1615 0.960 . S
C1632 C1633 1.391 . S
C1632 C1634 1.394 . S
C1632 H1648 0.931 . S
C1633 C1632 1.391 . S
C1633 C1637 1.376 . S
C1634 C1632 1.394 . S
C1634 C1635 1.369 . S
C1634 C1638 1.531 . S
C1635 C1634 1.369 . S
C1635 C1636 1.410 . S
C1635 C1643 1.503 . S
C1636 C1635 1.410 . S
C1636 C1637 1.392 . S
C1636 C1639 1.511 . S
C1637 C1633 1.376 . S
C1637 C1636 1.392 . S
C1637 H1649 0.929 . S
C1638 C1634 1.531 . S
C1638 H1650 0.960 . S
C1638 H1651 0.962 . S
C1638 H1652 0.960 . S
C1639 C1636 1.511 . S
C1639 H1653 0.961 . S
C1639 H1654 0.961 . S
C1639 H1655 0.961 . S
C1640 C1641 1.370 . S
C1640 C1642 1.363 . S
C1640 H1656 0.931 . S
C1641 C1640 1.370 . S
C1641 C1645 1.408 . S
C1642 C1640 1.363 . S
C1642 C1643 1.370 . S
C1642 C1646 1.524 . S
C1643 C1635 1.503 . S
C1643 C1642 1.370 . S
C1643 C1644 1.403 . S
C1644 C1643 1.403 . S
C1644 C1645 1.404 . S
C1644 C1647 1.539 . S
C1645 C1641 1.408 . S
C1645 C1644 1.404 . S
C1645 H1657 0.930 . S
C1646 C1642 1.524 . S
C1646 H1658 0.956 . S
C1646 H1659 0.961 . S
C1646 H1660 0.961 . S
C1647 C1644 1.539 . S
C1647 H1661 0.958 . S
C1647 H1662 0.961 . S
C1647 H1663 0.960 . S
H1648 C1632 0.931 . S
H1649 C1637 0.929 . S
H1650 C1638 0.960 . S
H1651 C1638 0.962 . S
H1652 C1638 0.960 . S
H1653 C1639 0.961 . S
H1654 C1639 0.961 . S
H1655 C1639 0.961 . S
H1656 C1640 0.931 . S
H1657 C1645 0.930 . S
H1658 C1646 0.956 . S
H1659 C1646 0.961 . S
H1660 C1646 0.961 . S
H1661 C1647 0.958 . S
H1662 C1647 0.961 . S
H1663 C1647 0.960 . S
C1664 C1665 1.391 . S
C1664 C1666 1.394 . S
C1664 H1680 0.931 . S
C1665 C1664 1.391 . S
C1665 C1669 1.376 . S
C1666 C1664 1.394 . S
C1666 C1667 1.369 . S
C1666 C1670 1.531 1_565 S
C1667 C1666 1.369 . S
C1667 C1668 1.410 . S
C1667 C1675 1.503 . S
C1668 C1667 1.410 . S
C1668 C1669 1.392 . S
C1668 C1671 1.511 . S
C1669 C1665 1.376 . S
C1669 C1668 1.392 . S
C1669 H1681 0.929 . S
C1670 C1666 1.531 1_545 S
C1670 H1682 0.960 . S
C1670 H1683 0.962 1_545 S
C1670 H1684 0.960 . S
C1671 C1668 1.511 . S
C1671 H1685 0.961 . S
C1671 H1686 0.961 . S
C1671 H1687 0.961 . S
C1672 C1673 1.370 1_565 S
C1672 C1674 1.363 . S
C1672 H1688 0.931 . S
C1673 C1672 1.370 1_545 S
C1673 C1677 1.408 . S
C1674 C1672 1.363 . S
C1674 C1675 1.370 . S
C1674 C1678 1.524 . S
C1675 C1667 1.503 . S
C1675 C1674 1.370 . S
C1675 C1676 1.403 1_565 S
C1676 C1675 1.403 1_545 S
C1676 C1677 1.404 . S
C1676 C1679 1.539 . S
C1677 C1673 1.408 . S
C1677 C1676 1.404 . S
C1677 H1689 0.930 . S
C1678 C1674 1.524 . S
C1678 H1690 0.956 . S
C1678 H1691 0.961 . S
C1678 H1692 0.961 . S
C1679 C1676 1.539 . S
C1679 H1693 0.958 . S
C1679 H1694 0.961 . S
C1679 H1695 0.960 . S
H1680 C1664 0.931 . S
H1681 C1669 0.929 . S
H1682 C1670 0.960 . S
H1683 C1670 0.962 1_565 S
H1684 C1670 0.960 . S
H1685 C1671 0.961 . S
H1686 C1671 0.961 . S
H1687 C1671 0.961 . S
H1688 C1672 0.931 . S
H1689 C1677 0.930 . S
H1690 C1678 0.956 . S
H1691 C1678 0.961 . S
H1692 C1678 0.961 . S
H1693 C1679 0.958 . S
H1694 C1679 0.961 . S
H1695 C1679 0.960 . S
C1696 C1697 1.391 . S
C1696 C1698 1.394 . S
C1696 H1712 0.931 . S
C1697 C1696 1.391 . S
C1697 C1701 1.376 . S
C1698 C1696 1.394 . S
C1698 C1699 1.369 . S
C1698 C1702 1.531 . S
C1699 C1698 1.369 . S
C1699 C1700 1.410 . S
C1699 C1707 1.503 . S
C1700 C1699 1.410 . S
C1700 C1701 1.392 . S
C1700 C1703 1.511 . S
C1701 C1697 1.376 . S
C1701 C1700 1.392 . S
C1701 H1713 0.929 . S
C1702 C1698 1.531 . S
C1702 H1714 0.960 . S
C1702 H1715 0.962 . S
C1702 H1716 0.960 . S
C1703 C1700 1.511 . S
C1703 H1717 0.961 . S
C1703 H1718 0.961 . S
C1703 H1719 0.961 . S
C1704 C1705 1.370 . S
C1704 C1706 1.363 1_554 S
C1704 H1720 0.931 . S
C1705 C1704 1.370 . S
C1705 C1709 1.408 . S
C1706 C1704 1.363 1_556 S
C1706 C1707 1.370 . S
C1706 C1710 1.524 . S
C1707 C1699 1.503 . S
C1707 C1706 1.370 . S
C1707 C1708 1.403 . S
C1708 C1707 1.403 . S
C1708 C1709 1.404 1_556 S
C1708 C1711 1.539 . S
C1709 C1705 1.408 . S
C1709 C1708 1.404 1_554 S
C1709 H1721 0.930 . S
C1710 C1706 1.524 . S
C1710 H1722 0.956 . S
C1710 H1723 0.961 . S
C1710 H1724 0.961 . S
C1711 C1708 1.539 . S
C1711 H1725 0.958 . S
C1711 H1726 0.961 . S
C1711 H1727 0.960 . S
H1712 C1696 0.931 . S
H1713 C1701 0.929 . S
H1714 C1702 0.960 . S
H1715 C1702 0.962 . S
H1716 C1702 0.960 . S
H1717 C1703 0.961 . S
H1718 C1703 0.961 . S
H1719 C1703 0.961 . S
H1720 C1704 0.931 . S
H1721 C1709 0.930 . S
H1722 C1710 0.956 . S
H1723 C1710 0.961 . S
H1724 C1710 0.961 . S
H1725 C1711 0.958 . S
H1726 C1711 0.961 . S
H1727 C1711 0.960 . S
C1728 C1729 1.391 . S
C1728 C1730 1.394 . S
C1728 H1744 0.931 . S
C1729 C1728 1.391 . S
C1729 C1733 1.376 . S
C1730 C1728 1.394 . S
C1730 C1731 1.369 1_565 S
C1730 C1734 1.531 . S
C1731 C1730 1.369 1_545 S
C1731 C1732 1.410 . S
C1731 C1739 1.503 . S
C1732 C1731 1.410 . S
C1732 C1733 1.383 1_545 S
C1732 C1735 1.520 . S
C1733 C1729 1.376 . S
C1733 C1732 1.383 1_565 S
C1733 H1745 0.929 . S
C1734 C1730 1.531 . S
C1734 H1746 0.960 . S
C1734 H1747 0.962 1_565 S
C1734 H1748 0.960 . S
C1735 C1732 1.520 . S
C1735 H1749 0.961 . S
C1735 H1750 0.961 . S
C1735 H1751 0.961 1_545 S
C1736 C1737 1.370 . S
C1736 C1738 1.363 . S
C1736 H1752 0.931 . S
C1737 C1736 1.370 . S
C1737 C1741 1.408 . S
C1738 C1736 1.363 . S
C1738 C1739 1.370 . S
C1738 C1742 1.524 . S
C1739 C1731 1.503 . S
C1739 C1738 1.370 . S
C1739 C1740 1.403 1_545 S
C1740 C1739 1.403 1_565 S
C1740 C1741 1.404 1_565 S
C1740 C1743 1.539 . S
C1741 C1737 1.408 . S
C1741 C1740 1.404 1_545 S
C1741 H1753 0.930 . S
C1742 C1738 1.524 . S
C1742 H1754 0.956 . S
C1742 H1755 0.961 . S
C1742 H1756 0.961 . S
C1743 C1740 1.539 . S
C1743 H1757 0.958 . S
C1743 H1758 0.961 . S
C1743 H1759 0.960 . S
H1744 C1728 0.931 . S
H1745 C1733 0.929 . S
H1746 C1734 0.960 . S
H1747 C1734 0.962 1_545 S
H1748 C1734 0.960 . S
H1749 C1735 0.961 . S
H1750 C1735 0.961 . S
H1751 C1735 0.961 1_565 S
H1752 C1736 0.931 . S
H1753 C1741 0.930 . S
H1754 C1742 0.956 . S
H1755 C1742 0.961 . S
H1756 C1742 0.961 . S
H1757 C1743 0.958 . S
H1758 C1743 0.961 . S
H1759 C1743 0.960 . S
C1760 C1761 1.391 . S
C1760 C1762 1.394 . S
C1760 H1776 0.931 . S
C1761 C1760 1.391 . S
C1761 C1765 1.376 . S
C1762 C1760 1.394 . S
C1762 C1763 1.369 . S
C1762 C1766 1.531 . S
C1763 C1762 1.369 . S
C1763 C1764 1.410 . S
C1763 C1771 1.503 . S
C1764 C1763 1.410 . S
C1764 C1765 1.392 . S
C1764 C1767 1.511 . S
C1765 C1761 1.376 . S
C1765 C1764 1.392 . S
C1765 H1777 0.929 . S
C1766 C1762 1.531 . S
C1766 H1778 0.960 . S
C1766 H1779 0.962 . S
C1766 H1780 0.960 . S
C1767 C1764 1.511 . S
C1767 H1781 0.961 . S
C1767 H1782 0.961 . S
C1767 H1783 0.961 . S
C1768 C1769 1.370 . S
C1768 C1770 1.363 . S
C1768 H1784 0.931 . S
C1769 C1768 1.370 . S
C1769 C1773 1.408 . S
C1770 C1768 1.363 . S
C1770 C1771 1.370 . S
C1770 C1774 1.524 . S
C1771 C1763 1.503 . S
C1771 C1770 1.370 . S
C1771 C1772 1.403 . S
C1772 C1771 1.403 . S
C1772 C1773 1.404 . S
C1772 C1775 1.539 . S
C1773 C1769 1.408 . S
C1773 C1772 1.404 . S
C1773 H1785 0.930 . S
C1774 C1770 1.524 . S
C1774 H1786 0.956 . S
C1774 H1787 0.961 . S
C1774 H1788 0.961 . S
C1775 C1772 1.539 . S
C1775 H1789 0.958 . S
C1775 H1790 0.961 . S
C1775 H1791 0.960 . S
H1776 C1760 0.931 . S
H1777 C1765 0.929 . S
H1778 C1766 0.960 . S
H1779 C1766 0.962 . S
H1780 C1766 0.960 . S
H1781 C1767 0.961 . S
H1782 C1767 0.961 . S
H1783 C1767 0.961 . S
H1784 C1768 0.931 . S
H1785 C1773 0.930 . S
H1786 C1774 0.956 . S
H1787 C1774 0.961 . S
H1788 C1774 0.961 . S
H1789 C1775 0.958 . S
H1790 C1775 0.961 . S
H1791 C1775 0.960 . S
C1792 C1793 1.391 . S
C1792 C1794 1.394 . S
C1792 H1808 0.931 . S
C1793 C1792 1.391 . S
C1793 C1797 1.376 . S
C1794 C1792 1.394 . S
C1794 C1795 1.369 . S
C1794 C1798 1.531 . S
C1795 C1794 1.369 . S
C1795 C1796 1.410 . S
C1795 C1803 1.503 . S
C1796 C1795 1.410 . S
C1796 C1797 1.392 . S
C1796 C1799 1.511 1_545 S
C1797 C1793 1.376 . S
C1797 C1796 1.392 . S
C1797 H1809 0.929 . S
C1798 C1794 1.531 . S
C1798 H1810 0.960 . S
C1798 H1811 0.962 . S
C1798 H1812 0.960 . S
C1799 C1796 1.511 1_565 S
C1799 H1813 0.961 . S
C1799 H1814 0.961 . S
C1799 H1815 0.961 . S
C1800 C1801 1.370 . S
C1800 C1802 1.363 . S
C1800 H1816 0.931 . S
C1801 C1800 1.370 . S
C1801 C1805 1.408 1_565 S
C1802 C1800 1.363 . S
C1802 C1803 1.370 1_565 S
C1802 C1806 1.524 . S
C1803 C1795 1.503 . S
C1803 C1802 1.370 1_545 S
C1803 C1804 1.403 . S
C1804 C1803 1.403 . S
C1804 C1805 1.404 . S
C1804 C1807 1.539 . S
C1805 C1801 1.408 1_545 S
C1805 C1804 1.404 . S
C1805 H1817 0.930 . S
C1806 C1802 1.524 . S
C1806 H1818 0.956 . S
C1806 H1819 0.961 . S
C1806 H1820 0.961 . S
C1807 C1804 1.539 . S
C1807 H1821 0.958 . S
C1807 H1822 0.961 . S
C1807 H1823 0.960 . S
H1808 C1792 0.931 . S
H1809 C1797 0.929 . S
H1810 C1798 0.960 . S
H1811 C1798 0.962 . S
H1812 C1798 0.960 . S
H1813 C1799 0.961 . S
H1814 C1799 0.961 . S
H1815 C1799 0.961 . S
H1816 C1800 0.931 . S
H1817 C1805 0.930 . S
H1818 C1806 0.956 . S
H1819 C1806 0.961 . S
H1820 C1806 0.961 . S
H1821 C1807 0.958 . S
H1822 C1807 0.961 . S
H1823 C1807 0.960 . S
C1824 C1825 1.391 . S
C1824 C1826 1.394 . S
C1824 H1840 0.931 . S
C1825 C1824 1.391 . S
C1825 C1829 1.376 . S
C1826 C1824 1.394 . S
C1826 C1827 1.369 . S
C1826 C1830 1.531 . S
C1827 C1826 1.369 . S
C1827 C1828 1.410 . S
C1827 C1835 1.503 . S
C1828 C1827 1.410 . S
C1828 C1829 1.392 . S
C1828 C1831 1.511 . S
C1829 C1825 1.376 . S
C1829 C1828 1.392 . S
C1829 H1841 0.929 . S
C1830 C1826 1.531 . S
C1830 H1842 0.960 . S
C1830 H1843 0.962 . S
C1830 H1844 0.960 . S
C1831 C1828 1.511 . S
C1831 H1845 0.961 . S
C1831 H1846 0.961 . S
C1831 H1847 0.961 . S
C1832 C1833 1.370 . S
C1832 C1834 1.363 1_556 S
C1832 H1848 0.931 . S
C1833 C1832 1.370 . S
C1833 C1837 1.408 . S
C1834 C1832 1.363 1_554 S
C1834 C1835 1.370 . S
C1834 C1838 1.524 . S
C1835 C1827 1.503 . S
C1835 C1834 1.370 . S
C1835 C1836 1.403 . S
C1836 C1835 1.403 . S
C1836 C1837 1.404 1_554 S
C1836 C1839 1.539 . S
C1837 C1833 1.408 . S
C1837 C1836 1.404 1_556 S
C1837 H1849 0.930 . S
C1838 C1834 1.524 . S
C1838 H1850 0.956 . S
C1838 H1851 0.961 . S
C1838 H1852 0.961 . S
C1839 C1836 1.539 . S
C1839 H1853 0.958 . S
C1839 H1854 0.949 1_554 S
C1839 H1855 0.960 . S
H1840 C1824 0.931 . S
H1841 C1829 0.929 . S
H1842 C1830 0.960 . S
H1843 C1830 0.962 . S
H1844 C1830 0.960 . S
H1845 C1831 0.961 . S
H1846 C1831 0.961 . S
H1847 C1831 0.961 . S
H1848 C1832 0.931 . S
H1849 C1837 0.930 . S
H1850 C1838 0.956 . S
H1851 C1838 0.961 . S
H1852 C1838 0.961 . S
H1853 C1839 0.958 . S
H1854 C1839 0.949 1_556 S
H1855 C1839 0.960 . S
C1856 C1857 1.391 . S
C1856 C1858 1.394 . S
C1856 H1872 0.931 . S
C1857 C1856 1.391 . S
C1857 C1861 1.376 . S
C1858 C1856 1.394 . S
C1858 C1859 1.369 . S
C1858 C1862 1.531 . S
C1859 C1858 1.369 . S
C1859 C1860 1.410 . S
C1859 C1867 1.503 . S
C1860 C1859 1.410 . S
C1860 C1861 1.392 . S
C1860 C1863 1.511 1_565 S
C1861 C1857 1.376 . S
C1861 C1860 1.392 . S
C1861 H1873 0.929 . S
C1862 C1858 1.531 . S
C1862 H1874 0.960 . S
C1862 H1875 0.962 . S
C1862 H1876 0.960 . S
C1863 C1860 1.511 1_545 S
C1863 H1877 0.961 . S
C1863 H1878 0.961 . S
C1863 H1879 0.961 . S
C1864 C1865 1.373 . S
C1864 C1866 1.361 1_545 S
C1864 H1880 0.930 1_545 S
C1865 C1864 1.373 . S
C1865 C1869 1.408 . S
C1866 C1864 1.361 1_565 S
C1866 C1867 1.370 . S
C1866 C1870 1.524 . S
C1867 C1859 1.503 . S
C1867 C1866 1.370 . S
C1867 C1868 1.403 1_565 S
C1868 C1867 1.403 1_545 S
C1868 C1869 1.404 . S
C1868 C1871 1.539 . S
C1869 C1865 1.408 . S
C1869 C1868 1.404 . S
C1869 H1881 0.930 . S
C1870 C1866 1.524 . S
C1870 H1882 0.956 . S
C1870 H1883 0.961 . S
C1870 H1884 0.961 . S
C1871 C1868 1.539 . S
C1871 H1885 0.958 . S
C1871 H1886 0.961 . S
C1871 H1887 0.960 . S
H1872 C1856 0.931 . S
H1873 C1861 0.929 . S
H1874 C1862 0.960 . S
H1875 C1862 0.962 . S
H1876 C1862 0.960 . S
H1877 C1863 0.961 . S
H1878 C1863 0.961 . S
H1879 C1863 0.961 . S
H1880 C1864 0.930 1_565 S
H1881 C1869 0.930 . S
H1882 C1870 0.956 . S
H1883 C1870 0.961 . S
H1884 C1870 0.961 . S
H1885 C1871 0.958 . S
H1886 C1871 0.961 . S
H1887 C1871 0.960 . S
C353 C15 0.695 . S
C361 C241 0.657 . S
C385 C32 0.663 . S
C393 C263 0.636 . S
C417 C65 0.677 . S
C425 C197 0.642 . S
C449 C216 0.645 . S
C457 C81 0.633 . S
C481 C103 0.712 . S
C489 C323 0.691 . S
C513 C345 0.648 . S
C521 C117 0.641 . S
C545 C285 0.665 . S
C553 C153 0.659 . S
C577 C169 0.696 . S
C585 C301 0.673 . S
C609 C7 2.108 . S
C617 C95 2.110 . S
C641 C30 2.068 . S
C649 C293 2.061 . S
C673 C59 2.129 . S
C681 C147 2.120 . S
C705 C73 2.095 . S
C713 C337 2.104 . S
C737 C131 2.046 . S
C745 C208 2.076 . S
C769 C257 2.090 . S
C777 C161 2.105 . S
C801 C279 2.096 . S
C809 C191 2.116 . S
C833 C235 2.131 . S
C841 C315 2.120 . S
C865 C10 1.785 . S
C873 C162 1.781 . S
C897 C37 1.821 . S
C905 C282 1.823 . S
C929 C52 1.757 . S
C937 C120 1.766 . S
C961 C76 1.763 1_455 S
C969 C316 1.776 . S
C993 C74 1.728 . S
C1001 C98 1.748 . S
C1025 C128 1.747 . S
C1033 C194 1.752 . S
C1057 C140 1.821 . S
C1065 C29 1.801 . S
C1089 C238 1.754 . S
C1097 C164 1.769 1_655 S
C1121 C184 1.787 . S
C1129 C338 1.778 . S
C1153 C96 1.825 . S
C1161 C205 1.811 1_655 S
C1185 C294 1.763 . S
C1193 C228 1.769 . S
C1217 C150 1.781 . S
C1225 C250 1.782 . S
C1249 C272 1.730 . S
C1257 C260 1.746 . S
C1281 C296 1.741 1_455 S
C1289 C8 1.756 . S
C1313 C219 1.795 . S
C1321 C318 1.813 . S
C1345 C340 1.765 . S
C1353 C62 1.777 . S
C1377 C18 0.869 . S
C1385 C206 0.828 . S
C1409 C227 0.964 . S
C1417 C43 0.944 . S
C1441 C54 0.920 . S
C1449 C249 0.868 . S
C1473 C183 0.867 . S
C1481 C84 0.884 . S
C1505 C307 0.926 . S
C1513 C106 0.890 . S
C1537 C329 0.874 . S
C1545 C118 0.912 . S
C1569 C351 0.910 . S
C1577 C142 0.903 . S
C1601 C271 0.934 . S
C1609 C172 0.893 . S
C1633 C40 0.843 . S
C1641 C186 0.859 . S
C1665 C51 0.964 . S
C1673 C213 0.930 . S
C1697 C87 0.853 . S
C1705 C230 0.911 . S
C1729 C252 0.873 . S
C1737 C21 0.875 . S
C1761 C125 0.822 . S
C1769 C274 0.907 . S
C1793 C139 0.906 . S
C1801 C304 0.907 . S
C1825 C175 0.827 . S
C1833 C326 0.912 . S
C1857 C109 0.935 . S
C1865 C348 0.892 . S
