# Generated by pormake.
# Topology sml, (6)-cn, num edge types: 1
# Building blocks:
#     Node 0, Type 0, BuildingBlock: KUMJIN_clean_sbu_0, # of connection points: 6
#     Node 1, Type 0, BuildingBlock: KUMJIN_clean_sbu_0, # of connection points: 6
#     Node 2, Type 0, BuildingBlock: KUMJIN_clean_sbu_0, # of connection points: 6
#     Node 3, Type 0, BuildingBlock: KUMJIN_clean_sbu_0, # of connection points: 6
#     Node 4, Type 0, BuildingBlock: KUMJIN_clean_sbu_0, # of connection points: 6
#     Node 5, Type 0, BuildingBlock: KUMJIN_clean_sbu_0, # of connection points: 6
#     Edge 6, Type (0, 0), BuildingBlock: CIFDUS_clean_linker_0, # of connection points: 2
#     Edge 7, Type (0, 0), BuildingBlock: CIFDUS_clean_linker_0, # of connection points: 2
#     Edge 8, Type (0, 0), BuildingBlock: CIFDUS_clean_linker_0, # of connection points: 2
#     Edge 9, Type (0, 0), BuildingBlock: CIFDUS_clean_linker_0, # of connection points: 2
#     Edge 10, Type (0, 0), BuildingBlock: CIFDUS_clean_linker_0, # of connection points: 2
#     Edge 11, Type (0, 0), BuildingBlock: CIFDUS_clean_linker_0, # of connection points: 2
#     Edge 12, Type (0, 0), BuildingBlock: CIFDUS_clean_linker_0, # of connection points: 2
#     Edge 13, Type (0, 0), BuildingBlock: CIFDUS_clean_linker_0, # of connection points: 2
#     Edge 14, Type (0, 0), BuildingBlock: CIFDUS_clean_linker_0, # of connection points: 2
#     Edge 15, Type (0, 0), BuildingBlock: CIFDUS_clean_linker_0, # of connection points: 2
#     Edge 16, Type (0, 0), BuildingBlock: CIFDUS_clean_linker_0, # of connection points: 2
#     Edge 17, Type (0, 0), BuildingBlock: CIFDUS_clean_linker_0, # of connection points: 2
#     Edge 18, Type (0, 0), BuildingBlock: CIFDUS_clean_linker_0, # of connection points: 2
#     Edge 19, Type (0, 0), BuildingBlock: CIFDUS_clean_linker_0, # of connection points: 2
#     Edge 20, Type (0, 0), BuildingBlock: CIFDUS_clean_linker_0, # of connection points: 2
#     Edge 21, Type (0, 0), BuildingBlock: CIFDUS_clean_linker_0, # of connection points: 2
#     Edge 22, Type (0, 0), BuildingBlock: CIFDUS_clean_linker_0, # of connection points: 2
#     Edge 23, Type (0, 0), BuildingBlock: CIFDUS_clean_linker_0, # of connection points: 2
# Relax obj value: 0.034
# Max RMSD: 0.158
# Mean RMSD: 0.158
data_MOF--net-sml--node1-KUMJIN_clean_sbu_0--edge1-CIFDUS_clean_linker_0
_symmetry_space_group_name_H-M    P1
_symmetry_Int_Tables_number       1
_symmetry_cell_setting            triclinic
loop_
_symmetry_equiv_pos_as_xyz
'x, y, z'
_cell_length_a     28.773025
_cell_length_b     28.772656
_cell_length_c     21.657738
_cell_angle_alpha  89.802122
_cell_angle_beta   89.947837
_cell_angle_gamma 119.71474
loop_
_atom_site_label
_atom_site_type_symbol
_atom_site_fract_x
_atom_site_fract_y
_atom_site_fract_z
_atom_type_partial_charge
Eu0 Eu 0.14874 0.40456 0.98865 0.0
C1 C 0.31919 0.35533 0.09379 0.0
C2 C 0.26729 0.25877 0.09907 0.0
C3 C 0.36417 0.30251 0.09652 0.0
C4 C 0.27007 0.30931 0.09829 0.0
C5 C 0.36681 0.35244 0.09314 0.0
C6 C 0.3145 0.25572 0.09927 0.0
C7 C 0.41668 0.44857 0.0843 0.0
N8 N 0.32062 0.40295 0.08865 0.0
C9 C 0.36857 0.44936 0.08349 0.0
C10 C 0.41583 0.39989 0.08931 0.0
Eu11 Eu 0.23961 0.40415 0.10366 0.0
N12 N 0.22509 0.3137 0.09804 0.0
C13 C 0.17633 0.26811 0.09132 0.0
C14 C 0.2172 0.21261 0.09744 0.0
C15 C 0.17163 0.2174 0.09214 0.0
H16 H 0.37033 0.48765 0.08059 0.0
H17 H 0.13274 0.18197 0.08746 0.0
H18 H 0.31302 0.21733 0.10039 0.0
H19 H 0.45432 0.4857 0.08218 0.0
H20 H 0.1405 0.26951 0.08213 0.0
H21 H 0.13146 0.5777 0.06008 0.0
H22 H 0.21343 0.17322 0.09758 0.0
H23 H 0.04879 0.27884 0.95472 0.0
H24 H 0.17472 0.53256 1.00928 0.0
H25 H 0.95136 0.22378 0.97093 0.0
H26 H 0.4003 0.29966 0.09572 0.0
H27 H 0.03823 0.5249 0.09778 0.0
H28 H 0.95253 0.43682 0.10052 0.0
H29 H 0.4531 0.39927 0.09069 0.0
H30 H 0.90287 0.34148 0.07308 0.0
N31 N 0.10776 0.45439 1.02104 0.0
C32 C 0.13409 0.50885 1.02539 0.0
C33 C 0.05705 0.50475 0.0755 0.0
C34 C 0.02823 0.44974 0.06394 0.0
C35 C 0.10963 0.53472 0.05412 0.0
C36 C 0.05492 0.42537 0.03573 0.0
H37 H 0.90203 0.26196 1.02422 0.0
N38 N 0.05421 0.34855 0.99568 0.0
C39 C 0.97223 0.26517 0.98541 0.0
C40 C 0.02697 0.37137 1.02096 0.0
C41 C 0.02736 0.29671 0.97555 0.0
C42 C 0.94446 0.28693 1.01538 0.0
C43 C 0.97161 0.34071 0.0331 0.0
O44 O 0.18594 0.41881 0.89697 0.0
O45 O 0.21277 0.38474 1.00705 0.0
O46 O 0.28636 0.46249 1.02257 0.0
O47 O 0.22325 0.48572 0.99654 0.0
O48 O 0.14867 0.32792 0.9587 0.0
O49 O 0.11523 0.42424 0.9078 0.0
O50 O 0.2968 0.4801 0.14503 0.0
O51 O 0.19614 0.44736 0.07311 0.0
O52 O 0.09929 0.34566 0.06541 0.0
O53 O 0.15605 0.34429 0.14214 0.0
O54 O 0.18619 0.42159 0.16386 0.0
O55 O 0.26967 0.40696 0.19753 0.0
C56 C 0.19565 0.3408 0.97952 0.0
C57 C 0.12875 0.39346 0.81134 0.0
C58 C 0.13144 0.38646 0.69869 0.0
C59 C 0.14768 0.41761 0.75301 0.0
C60 C 0.09556 0.33126 0.70353 0.0
C61 C 0.09267 0.33833 0.81464 0.0
C62 C 0.076 0.30755 0.76107 0.0
C63 C 0.27241 0.49353 0.99118 0.0
C64 C 0.14969 0.42479 0.8687 0.0
C65 C 0.94525 0.36454 0.06268 0.0
C66 C 0.97358 0.41881 0.07852 0.0
C67 C 0.1764 0.44956 0.1249 0.0
C68 C 0.28673 0.48622 0.253 0.0
C69 C 0.26079 0.45828 0.30775 0.0
C70 C 0.25448 0.48552 0.35879 0.0
C71 C 0.27421 0.54104 0.35328 0.0
C72 C 0.30568 0.54154 0.2497 0.0
C73 C 0.29904 0.56846 0.29917 0.0
C74 C 0.10751 0.32961 0.11969 0.0
C75 C 0.29535 0.45926 0.19908 0.0
H76 H 0.17603 0.46011 0.75003 0.0
H77 H 0.08212 0.30655 0.66258 0.0
H78 H 0.07804 0.31893 0.85872 0.0
H79 H 0.04816 0.26502 0.76422 0.0
H80 H 0.2455 0.41555 0.31038 0.0
H81 H 0.27193 0.56407 0.39136 0.0
H82 H 0.32594 0.56428 0.20869 0.0
H83 H 0.31399 0.61112 0.29589 0.0
Eu84 Eu 0.74057 0.16511 0.32576 0.0
C85 C 0.96612 0.34603 0.41066 0.0
C86 C 0.01892 0.30185 0.41079 0.0
C87 C 0.06229 0.39778 0.39314 0.0
C88 C 0.96902 0.2999 0.41607 0.0
C89 C 0.01276 0.39568 0.40001 0.0
C90 C 0.06537 0.35088 0.39847 0.0
C91 C 0.95827 0.43776 0.40556 0.0
N92 N 0.91795 0.3428 0.41853 0.0
C93 C 0.91379 0.38805 0.4186 0.0
C94 C 0.0082 0.44181 0.39744 0.0
Eu95 Eu 0.8422 0.25744 0.4358 0.0
N96 N 0.92335 0.25342 0.42863 0.0
C97 C 0.92578 0.20777 0.43955 0.0
C98 C 0.02089 0.25473 0.41942 0.0
C99 C 0.97417 0.20762 0.43445 0.0
H100 H 0.87541 0.38533 0.4266 0.0
H101 H 0.97528 0.17097 0.44193 0.0
H102 H 0.10394 0.35309 0.39406 0.0
H103 H 0.95397 0.47288 0.40206 0.0
H104 H 0.8906 0.17052 0.45039 0.0
H105 H 0.58974 0.2301 0.32137 0.0
H106 H 0.05832 0.25449 0.41563 0.0
H107 H 0.71262 0.03585 0.32086 0.0
H108 H 0.67539 0.23643 0.29464 0.0
H109 H 0.64144 0.94786 0.35995 0.0
H110 H 0.09846 0.43548 0.38448 0.0
H111 H 0.5213 0.15174 0.37938 0.0
H112 H 0.49194 0.06133 0.42617 0.0
H113 H 0.04296 0.48076 0.39044 0.0
H114 H 0.50661 0.98451 0.43819 0.0
N115 N 0.65715 0.16245 0.33819 0.0
C116 C 0.64644 0.20171 0.31978 0.0
C117 C 0.55888 0.15393 0.36727 0.0
C118 C 0.56841 0.11196 0.38168 0.0
C119 C 0.59743 0.19822 0.33454 0.0
C120 C 0.61793 0.1167 0.36456 0.0
H121 H 0.56072 0.9407 0.40997 0.0
N122 N 0.67178 0.07699 0.34852 0.0
C123 C 0.63675 0.98282 0.36362 0.0
C124 C 0.62562 0.07287 0.37027 0.0
C125 C 0.67657 0.03232 0.34094 0.0
C126 C 0.59131 0.97898 0.39204 0.0
C127 C 0.58472 0.02403 0.39439 0.0
O128 O 0.69746 0.1206 0.24336 0.0
O129 O 0.82654 0.21191 0.349 0.0
O130 O 0.84498 0.30478 0.34746 0.0
O131 O 0.76191 0.25019 0.30115 0.0
O132 O 0.80213 0.13685 0.31516 0.0
O133 O 0.7759 0.18897 0.23325 0.0
O134 O 0.85214 0.30778 0.51604 0.0
O135 O 0.75461 0.21192 0.41341 0.0
O136 O 0.73441 0.11589 0.41068 0.0
O137 O 0.81119 0.17028 0.46756 0.0
O138 O 0.78545 0.29012 0.44295 0.0
O139 O 0.83572 0.22685 0.52991 0.0
C140 C 0.8436 0.18129 0.33189 0.0
C141 C 0.7174 0.16974 0.14892 0.0
C142 C 0.73031 0.19504 0.03956 0.0
C143 C 0.74683 0.17987 0.0935 0.0
C144 C 0.68454 0.20056 0.04167 0.0
C145 C 0.67207 0.17611 0.1501 0.0
C146 C 0.65589 0.19151 0.09673 0.0
C147 C 0.8076 0.29603 0.30534 0.0
C148 C 0.73435 0.15236 0.20469 0.0
C149 C 0.53792 0.02129 0.41793 0.0
C150 C 0.52953 0.06502 0.41101 0.0
C151 C 0.74237 0.24733 0.42713 0.0
C152 C 0.88237 0.28835 0.60957 0.0
C153 C 0.86124 0.27613 0.66996 0.0
C154 C 0.89532 0.29186 0.72189 0.0
C155 C 0.95106 0.31988 0.71189 0.0
C156 C 0.93796 0.31621 0.60093 0.0
C157 C 0.97203 0.33191 0.65193 0.0
C158 C 0.76707 0.12389 0.45716 0.0
C159 C 0.8457 0.27136 0.55635 0.0
H160 H 0.78188 0.17504 0.09205 0.0
H161 H 0.67104 0.21197 1.00062 0.0
H162 H 0.64904 0.16893 0.19211 0.0
H163 H 0.62081 0.19617 0.09795 0.0
H164 H 0.8182 0.25514 0.67637 0.0
H165 H 0.97858 0.33213 0.75039 0.0
H166 H 0.95493 0.32581 0.55486 0.0
H167 H 0.01493 0.35356 0.64493 0.0
Eu168 Eu 0.56973 0.74293 0.66517 0.0
C169 C 0.56956 0.94536 0.7853 0.0
C170 C 0.66065 0.01579 0.76738 0.0
C171 C 0.59153 0.03851 0.78927 0.0
C172 C 0.62233 0.96098 0.77292 0.0
C173 C 0.55374 0.98392 0.7954 0.0
C174 C 0.6446 0.05435 0.77383 0.0
C175 C 0.46484 0.91176 0.81887 0.0
N176 N 0.5343 0.89246 0.79141 0.0
C177 C 0.48243 0.87512 0.80802 0.0
C178 C 0.5008 0.96645 0.81318 0.0
Eu179 Eu 0.56778 0.83254 0.78378 0.0
N180 N 0.63671 0.92275 0.76973 0.0
C181 C 0.68949 0.93698 0.76487 0.0
C182 C 0.71426 0.03028 0.75802 0.0
C183 C 0.7288 0.99068 0.75751 0.0
H184 H 0.4547 0.83292 0.81395 0.0
H185 H 0.77034 0.00147 0.75186 0.0
H186 H 0.67316 0.09655 0.76876 0.0
H187 H 0.42381 0.89785 0.83257 0.0
H188 H 0.70157 0.90699 0.76494 0.0
H189 H 0.3829 0.55554 0.70229 0.0
H190 H 0.74486 0.07191 0.75318 0.0
H191 H 0.69354 0.76179 0.6423 0.0
H192 H 0.43903 0.65017 0.67095 0.0
H193 H 0.74234 0.71194 0.65722 0.0
H194 H 0.58031 0.06884 0.79696 0.0
H195 H 0.42557 0.50265 0.73354 0.0
H196 H 0.50987 0.49705 0.74465 0.0
H197 H 0.48745 -0.00523 0.82344 0.0
H198 H 0.60732 0.53881 0.72986 0.0
N199 N 0.51229 0.65051 0.68392 0.0
C200 C 0.45789 0.62707 0.68309 0.0
C201 C 0.45026 0.54386 0.71883 0.0
C202 C 0.50598 0.56716 0.71518 0.0
C203 C 0.42602 0.57354 0.70109 0.0
C204 C 0.53616 0.62096 0.69598 0.0
H205 H 0.69413 0.61841 0.69535 0.0
N206 N 0.61853 0.69654 0.67 0.0
C207 C 0.69975 0.69254 0.66615 0.0
C208 C 0.59086 0.64433 0.68763 0.0
C209 C 0.67201 0.72054 0.65733 0.0
C210 C 0.67238 0.6397 0.68763 0.0
C211 C 0.61719 0.61485 0.69847 0.0
O212 O 0.60382 0.75822 0.57234 0.0
O213 O 0.59127 0.82645 0.68816 0.0
O214 O 0.51062 0.82966 0.70688 0.0
O215 O 0.49561 0.75151 0.65605 0.0
O216 O 0.64848 0.81914 0.64058 0.0
O217 O 0.51767 0.70979 0.58502 0.0
O218 O 0.52843 0.8119 0.87407 0.0
O219 O 0.53946 0.74711 0.75945 0.0
O220 O 0.61162 0.73513 0.74868 0.0
O221 O 0.63871 0.81627 0.79705 0.0
O222 O 0.48411 0.76455 0.7983 0.0
O223 O 0.61469 0.84964 0.86836 0.0
C224 C 0.63614 0.85335 0.66221 0.0
C225 C 0.55471 0.6989 0.49171 0.0
C226 C 0.55728 0.69313 0.37925 0.0
C227 C 0.55993 0.72168 0.433 0.0
C228 C 0.5499 0.64116 0.38564 0.0
C229 C 0.54733 0.64716 0.49736 0.0
C230 C 0.54501 0.61848 0.44432 0.0
C231 C 0.48417 0.79024 0.66641 0.0
C232 C 0.55737 0.73072 0.54569 0.0
C233 C 0.58773 0.56193 0.72027 0.0
C234 C 0.53225 0.53821 0.7289 0.0
C235 C 0.49156 0.7264 0.77906 0.0
C236 C 0.57742 0.85961 0.96148 0.0
C237 C 0.56962 0.8331 1.01829 0.0
C238 C 0.57298 0.85939 0.07416 0.0
C239 C 0.58429 0.91293 0.072 0.0
C240 C 0.58865 0.91287 0.96011 0.0
C241 C 0.59208 0.93936 1.01533 0.0
C242 C 0.64053 0.77122 0.7902 0.0
C243 C 0.57297 0.83026 0.90459 0.0
H244 H 0.56677 0.7622 0.42943 0.0
H245 H 0.54722 0.61775 0.34538 0.0
H246 H 0.54342 0.62915 0.54247 0.0
H247 H 0.5392 0.57845 0.44866 0.0
H248 H 0.56012 0.79161 1.01878 0.0
H249 H 0.58775 0.9346 0.1141 0.0
H250 H 0.59472 0.93379 0.9166 0.0
H251 H 0.6009 0.98056 1.01424 0.0
Eu252 Eu 0.83674 0.57359 0.96658 0.0
C253 C 0.63186 0.56806 0.03837 0.0
C254 C 0.66001 0.66239 0.04484 0.0
C255 C 0.57219 0.60018 1.00406 0.0
C256 C 0.67083 0.61987 0.05249 0.0
C257 C 0.58179 0.55757 1.01507 0.0
C258 C 0.61111 0.65246 1.01924 0.0
C259 C 0.55203 0.4631 1.02182 0.0
N260 N 0.64189 0.52755 0.05006 0.0
C261 C 0.60163 0.47543 0.04662 0.0
C262 C 0.54247 0.50441 1.00464 0.0
Eu263 Eu 0.73129 0.55242 0.07602 0.0
N264 N 0.7184 0.62848 0.07575 0.0
C265 C 0.7544 0.67798 0.09797 0.0
C266 C 0.69822 0.71355 0.06416 0.0
C267 C 0.74511 0.7211 0.09191 0.0
H268 H 0.60931 0.44338 0.05892 0.0
H269 H 0.77426 0.76025 0.10869 0.0
H270 H 0.6026 0.6848 1.0121 0.0
H271 H 0.52162 0.42179 1.01501 0.0
H272 H 0.79054 0.68542 0.12086 0.0
H273 H 0.84627 0.38984 0.94709 0.0
H274 H 0.69133 0.74715 0.05926 0.0
H275 H 0.93482 0.70018 0.98807 0.0
H276 H 0.80221 0.44398 0.95617 0.0
H277 H 0.03354 0.75033 0.99568 0.0
H278 H 0.53422 0.59294 0.98556 0.0
H279 H 0.94531 0.43393 0.94848 0.0
H280 H 0.03343 0.51847 0.95407 0.0
H281 H 0.50411 0.4948 0.98506 0.0
H282 H 0.08411 0.61513 0.97365 0.0
N283 N 0.87468 0.51736 0.9687 0.0
C284 C 0.84512 0.46345 0.9598 0.0
C285 C 0.92583 0.45757 0.95458 0.0
C286 C 0.95594 0.51297 0.96262 0.0
C287 C 0.87009 0.43262 0.95373 0.0
C288 C 0.92889 0.54217 0.97018 0.0
H289 H 0.08467 0.70221 0.98913 0.0
N290 N 0.9303 0.62442 0.9802 0.0
C291 C 0.01266 0.7073 0.99026 0.0
C292 C 0.95755 0.59726 0.9767 0.0
C293 C 0.95683 0.67882 0.98601 0.0
C294 C 0.04139 0.67998 0.98659 0.0
C295 C 0.01392 0.62438 0.97886 0.0
O296 O 0.86966 0.61936 0.88087 0.0
O297 O 0.7723 0.59141 0.98991 0.0
O298 O 0.69135 0.50411 0.98774 0.0
O299 O 0.76079 0.49885 0.93936 0.0
O300 O 0.83836 0.65418 0.95361 0.0
O301 O 0.81534 0.53333 0.87806 0.0
O302 O 0.67562 0.52376 0.15423 0.0
O303 O 0.79177 0.52814 0.05215 0.0
O304 O 0.87513 0.5999 0.06015 0.0
O305 O 0.81486 0.62236 0.10336 0.0
O306 O 0.71596 0.46733 0.07612 0.0
O307 O 0.75883 0.54919 0.16911 0.0
C308 C 0.7904 0.63891 0.97235 0.0
C309 C 0.87095 0.57184 0.79114 0.0
C310 C 0.87495 0.57222 0.67874 0.0
C311 C 0.85738 0.58426 0.73371 0.0
C312 C 0.9073 0.54841 0.68168 0.0
C313 C 0.90414 0.54903 0.79373 0.0
C314 C 0.92253 0.53775 0.73904 0.0
C315 C 0.70975 0.48498 0.94419 0.0
C316 C 0.84418 0.57697 0.84624 0.0
C317 C 0.04094 0.59532 0.97194 0.0
C318 C 0.01204 0.54004 0.96198 0.0
C319 C 0.76403 0.47804 0.06209 0.0
C320 C 0.71286 0.5608 0.25197 0.0
C321 C 0.73495 0.55198 0.3055 0.0
C322 C 0.73667 0.57789 0.36116 0.0
C323 C 0.71574 0.61293 0.3623 0.0
C324 C 0.69253 0.59617 0.2539 0.0
C325 C 0.69388 0.62193 0.30899 0.0
C326 C 0.86264 0.62542 0.10169 0.0
C327 C 0.71255 0.53318 0.19479 0.0
H328 H 0.83096 0.60106 0.73169 0.0
H329 H 0.92119 0.53872 0.63974 0.0
H330 H 0.9146 0.53872 0.83764 0.0
H331 H 0.94777 0.51973 0.74111 0.0
H332 H 0.75156 0.52543 0.30338 0.0
H333 H 0.71569 0.63294 0.40455 0.0
H334 H 0.67573 0.60391 0.21301 0.0
H335 H 0.67786 0.64893 0.31043 0.0
Eu336 Eu 0.23332 0.80888 0.31945 0.0
C337 C 0.02914 0.62496 0.45722 0.0
C338 C 0.95933 0.6433 0.42493 0.0
C339 C 0.93601 0.55432 0.46096 0.0
C340 C 0.01389 0.66033 0.43494 0.0
C341 C -0.00975 0.5721 0.47287 0.0
C342 C 0.92077 0.58962 0.43571 0.0
C343 C 0.06137 0.55848 0.51139 0.0
N344 N 0.08182 0.64319 0.4673 0.0
C345 C 0.09844 0.61092 0.49416 0.0
C346 C 0.00699 0.53913 0.50123 0.0
Eu347 Eu 0.14216 0.73427 0.44498 0.0
N348 N 0.05209 0.71216 0.42666 0.0
C349 C 0.03785 0.74991 0.41355 0.0
C350 C 0.94501 0.68115 0.40662 0.0
C351 C 0.98439 0.73489 0.40202 0.0
H352 H 0.14027 0.62568 0.50336 0.0
H353 H 0.97362 0.76481 0.3897 0.0
H354 H 0.87897 0.57547 0.4263 0.0
H355 H 0.07472 0.5332 0.53307 0.0
H356 H 0.06773 0.79164 0.41012 0.0
H357 H 0.41283 0.79234 0.34778 0.0
H358 H 0.90359 0.66965 0.3981 0.0
H359 H 0.21989 0.91641 0.2924 0.0
H360 H 0.31565 0.75953 0.3447 0.0
H361 H 0.2779 0.01348 0.27483 0.0
H362 H 0.90557 0.51356 0.47155 0.0
H363 H 0.47696 0.88853 0.33134 0.0
H364 H 0.49232 0.98003 0.30484 0.0
H365 H 0.97826 0.49883 0.51574 0.0
H366 H 0.4562 0.04065 0.28834 0.0
N367 N 0.32482 0.83693 0.33185 0.0
C368 C 0.34331 0.80185 0.33977 0.0
C369 C 0.43439 0.87456 0.33173 0.0
C370 C 0.41506 0.91005 0.32175 0.0
C371 C 0.39831 0.82023 0.34095 0.0
C372 C 0.3593 0.88994 0.32296 0.0
H373 H 0.37644 0.05372 0.27807 0.0
N374 N 0.28484 0.90266 0.30936 0.0
C375 C 0.29557 0.98879 0.28509 0.0
C376 C 0.33875 0.92376 0.31133 0.0
C377 C 0.26281 0.93388 0.29524 0.0
C378 C 0.35114 0.01132 0.28713 0.0
C379 C 0.37341 0.97866 0.29952 0.0
O380 O 0.21661 0.82061 0.22428 0.0
O381 O 0.14888 0.75426 0.34583 0.0
O382 O 0.1384 0.67148 0.37761 0.0
O383 O 0.21758 0.72277 0.32151 0.0
O384 O 0.16015 0.81544 0.28894 0.0
O385 O 0.26328 0.7815 0.24315 0.0
O386 O 0.16453 0.73008 0.5404 0.0
O387 O 0.22907 0.78453 0.41901 0.0
O388 O 0.24601 0.86723 0.39588 0.0
O389 O 0.16059 0.82166 0.43676 0.0
O390 O 0.2064 0.71414 0.46608 0.0
O391 O 0.12242 0.77296 0.51877 0.0
C392 C 0.12402 0.77216 0.31511 0.0
C393 C 0.27779 0.82769 0.14737 0.0
C394 C 0.28427 0.84341 0.03602 0.0
C395 C 0.2541 0.81698 0.08884 0.0
C396 C 0.33874 0.88146 0.04281 0.0
C397 C 0.33229 0.86533 0.15334 0.0
C398 C 0.36251 0.8922 0.1012 0.0
C399 C 0.17503 0.67622 0.33636 0.0
C400 C 0.24388 0.7997 0.20095 0.0
C401 C 0.42893 -0.00122 0.29832 0.0
C402 C 0.44958 0.96439 0.30844 0.0
C403 C 0.247 0.75665 0.44431 0.0
C404 C 0.11073 0.73536 0.61867 0.0
C405 C 0.1375 0.74849 0.67536 0.0
C406 C 0.10912 0.7282 0.73076 0.0
C407 C 0.05328 0.69484 0.72885 0.0
C408 C 0.05496 0.70227 0.6172 0.0
C409 C 0.02643 0.68252 0.67229 0.0
C410 C 0.20813 0.86541 0.43201 0.0
C411 C 0.14233 0.75653 0.56209 0.0
H412 H 0.21176 0.78838 0.08462 0.0
H413 H 0.36309 0.9022 1.00295 0.0
H414 H 0.35144 0.87396 0.19792 0.0
H415 H 0.40455 0.92129 0.10602 0.0
H416 H 0.18068 0.7738 0.67624 0.0
H417 H 0.03044 0.67892 0.77104 0.0
H418 H 0.03361 0.69188 0.57374 0.0
H419 H 0.98344 0.6578 0.67114 0.0
Eu420 Eu 0.40334 0.24514 0.62918 0.0
C421 C 0.37573 0.03069 0.71815 0.0
C422 C 0.27966 0.97487 0.71182 0.0
C423 C 0.33671 0.93695 0.68956 0.0
C424 C 0.32553 0.02516 0.7224 0.0
C425 C 0.38201 0.98656 0.7023 0.0
C426 C 0.28556 0.93106 0.69456 0.0
C427 C 0.47709 0.04292 0.71622 0.0
N428 N 0.4185 0.07895 0.73124 0.0
C429 C 0.46855 0.08472 0.73417 0.0
C430 C 0.43366 -0.0064 0.69999 0.0
Eu431 Eu 0.40351 0.15223 0.74704 0.0
N432 N 0.32149 0.06869 0.73799 0.0
C433 C 0.27199 0.06337 0.74724 0.0
C434 C 0.22922 0.96996 0.71941 0.0
C435 C 0.22543 0.01429 0.73789 0.0
H436 H 0.50248 0.12295 0.74638 0.0
H437 H 0.18655 0.01085 0.74453 0.0
H438 H 0.25083 0.89236 0.6856 0.0
H439 H 0.51721 0.049 0.71407 0.0
H440 H 0.26726 0.09659 0.7609 0.0
H441 H 0.59614 0.42916 0.62701 0.0
H442 H 0.19307 0.93209 0.71181 0.0
H443 H 0.27878 0.22707 0.62832 0.0
H444 H 0.53535 0.33191 0.63499 0.0
H445 H 0.23475 0.28196 0.61958 0.0
H446 H 0.34078 0.90275 0.67678 0.0
H447 H 0.55919 0.49005 0.61508 0.0
H448 H 0.47866 0.50171 0.60514 0.0
H449 H 0.44036 0.9611 0.68675 0.0
H450 H 0.3808 0.46224 0.60593 0.0
N451 N 0.46453 0.33782 0.63378 0.0
C452 C 0.51862 0.35814 0.63288 0.0
C453 C 0.53226 0.44752 0.62104 0.0
C454 C 0.47674 0.42639 0.62102 0.0
C455 C 0.55327 0.41326 0.62758 0.0
C456 C 0.44342 0.37064 0.6281 0.0
H457 H 0.28961 0.38055 0.61254 0.0
N458 N 0.35745 0.29416 0.62969 0.0
C459 C 0.27795 0.30107 0.62146 0.0
C460 C 0.38826 0.34818 0.62633 0.0
C461 C 0.30297 0.27014 0.62653 0.0
C462 C 0.30905 0.35673 0.61759 0.0
C463 C 0.36491 0.38094 0.61925 0.0
O464 O 0.36486 0.22713 0.53872 0.0
O465 O 0.37822 0.16156 0.65474 0.0
O466 O 0.45841 0.15714 0.6667 0.0
O467 O 0.47685 0.2359 0.61501 0.0
O468 O 0.32183 0.17076 0.609 0.0
O469 O 0.45163 0.26786 0.54505 0.0
O470 O 0.44656 0.14934 0.82868 0.0
O471 O 0.43547 0.23817 0.72135 0.0
O472 O 0.36789 0.25997 0.71577 0.0
O473 O 0.34194 0.17978 0.76857 0.0
O474 O 0.48913 0.21733 0.75816 0.0
O475 O 0.37398 0.15353 0.83977 0.0
C476 C 0.33275 0.13558 0.63091 0.0
C477 C 0.41433 0.27855 0.45214 0.0
C478 C 0.4185 0.28358 0.33939 0.0
C479 C 0.41355 0.25565 0.39472 0.0
C480 C 0.42406 0.33493 0.34258 0.0
C481 C 0.41968 0.32963 0.45447 0.0
C482 C 0.42447 0.35762 0.39978 0.0
C483 C 0.48534 0.19518 0.62472 0.0
C484 C 0.41014 0.24824 0.50854 0.0
C485 C 0.39795 0.43647 0.61231 0.0
C486 C 0.45369 0.45901 0.61232 0.0
C487 C 0.4835 0.25678 0.73895 0.0
C488 C 0.39939 0.11791 0.92354 0.0
C489 C 0.39711 0.14046 0.9801 0.0
C490 C 0.38671 0.11133 0.03565 0.0
C491 C 0.37818 0.05875 0.03333 0.0
C492 C 0.3906 0.06546 0.92211 0.0
C493 C 0.38015 0.03615 0.97696 0.0
C494 C 0.34046 0.22492 0.7599 0.0
C495 C 0.41282 0.15104 0.86747 0.0
H496 H 0.41007 0.21636 0.39324 0.0
H497 H 0.42754 0.35731 0.30084 0.0
H498 H 0.4203 0.34782 0.49829 0.0
H499 H 0.42858 0.39707 0.4017 0.0
H500 H 0.40331 0.18084 0.98061 0.0
H501 H 0.3709 0.03536 0.07516 0.0
H502 H 0.39231 0.04749 0.87889 0.0
H503 H 0.37415 -0.00403 0.97592 0.0
H504 H 0.36887 0.31832 0.82024 0.0
H505 H 0.23703 0.15845 0.79628 0.0
H506 H 0.18105 0.17863 0.86404 0.0
H507 H 0.1683 0.24363 0.92741 0.0
H508 H 0.30325 0.40096 0.95692 0.0
H509 H 0.35899 0.37974 0.89182 0.0
C510 C 0.3279 0.28789 0.83 0.0
C511 C 0.30703 0.23707 0.80253 0.0
C512 C 0.29641 0.29929 0.87078 0.0
C513 C 0.25413 0.19785 0.81659 0.0
C514 C 0.22205 0.20944 0.85541 0.0
C515 C 0.21012 0.27295 0.92027 0.0
C516 C 0.23119 0.32396 0.94756 0.0
C517 C 0.24257 0.2602 0.88256 0.0
C518 C 0.28561 0.3613 0.93761 0.0
C519 C 0.31767 0.34931 0.89958 0.0
H520 H 0.05527 0.23147 0.18237 0.0
H521 H 0.05482 0.37946 0.15344 0.0
H522 H 0.97726 0.34938 0.22027 0.0
H523 H 0.90628 0.27987 0.28243 0.0
H524 H 0.89822 0.12753 0.30673 0.0
H525 H 0.98151 0.15979 0.24694 0.0
C526 C 0.03822 0.25699 0.19125 0.0
C527 C 0.06109 0.30794 0.16299 0.0
C528 C -0.00825 0.23845 0.22889 0.0
C529 C 0.03817 0.3403 0.17453 0.0
C530 C -0.00636 0.32307 0.21281 0.0
C531 C 0.92297 0.25381 0.27555 0.0
C532 C 0.89635 0.20157 0.30003 0.0
C533 C 0.96968 0.27208 0.23968 0.0
C534 C 0.91814 0.16809 0.28891 0.0
C535 C 0.96576 0.18657 0.25458 0.0
H536 H 0.66924 0.05564 0.50657 0.0
H537 H 0.83226 0.08788 0.50398 0.0
H538 H 0.80688 0.00804 0.56748 0.0
H539 H 0.7368 0.9259 0.62046 0.0
H540 H 0.57583 0.89934 0.63026 0.0
H541 H 0.60169 0.97945 0.5684 0.0
C542 C 0.69928 0.04532 0.52021 0.0
C543 C 0.75261 0.07762 0.49984 0.0
C544 C 0.6846 4e-05 0.55835 0.0
C545 C 0.79107 0.06401 0.51884 0.0
C546 C 0.77644 0.01811 0.5551 0.0
C547 C 0.70757 0.93803 0.60957 0.0
C548 C 0.65425 0.90612 0.63034 0.0
C549 C 0.72317 0.98538 0.5747 0.0
C550 C 0.61708 0.92281 0.6158 0.0
C551 C 0.63186 0.96876 0.57991 0.0
H552 H 0.62336 0.67251 0.81787 0.0
H553 H 0.73244 0.83877 0.8562 0.0
H554 H 0.78855 0.81311 0.91723 0.0
H555 H 0.80834 0.7421 0.95594 0.0
H556 H 0.69638 0.57711 0.91412 0.0
H557 H 0.64047 0.60361 0.85774 0.0
C558 C 0.65966 0.70351 0.83897 0.0
C559 C 0.67409 0.75772 0.83116 0.0
C560 C 0.69146 0.68847 0.87346 0.0
C561 C 0.72042 0.79681 0.86094 0.0
C562 C 0.75262 0.78206 0.89565 0.0
C563 C 0.77154 0.71213 0.93472 0.0
C564 C 0.75627 0.6574 0.9406 0.0
C565 C 0.73892 0.72788 0.90167 0.0
C566 C 0.70873 0.61918 0.91203 0.0
C567 C 0.6767 0.63437 0.87922 0.0
H568 H 0.05523 0.80062 0.26049 0.0
H569 H 0.07463 0.66393 0.29771 0.0
H570 H -0.00463 0.60712 0.23814 0.0
H571 H 0.92341 0.59645 0.16847 0.0
H572 H 0.8974 0.72943 0.13564 0.0
H573 H 0.97537 0.78702 0.19997 0.0
C574 C 0.04169 0.75828 0.25603 0.0
C575 C 0.07153 0.73698 0.28397 0.0
C576 C -0.00529 0.72501 0.2219 0.0
C577 C 0.05298 0.68187 0.27776 0.0
C578 C 0.00741 0.64908 0.24309 0.0
C579 C 0.93439 0.63789 0.17614 0.0
C580 C 0.90482 0.65872 0.14715 0.0
C581 C 0.97848 0.6703 0.21407 0.0
C582 C 0.9193 0.71237 0.15777 0.0
C583 C 0.96413 0.74536 0.19425 0.0
H584 H 0.23109 0.05856 0.59704 0.0
H585 H 0.39639 0.09823 0.58679 0.0
H586 H 0.37252 0.01953 0.52561 0.0
H587 H 0.30587 0.94089 0.47069 0.0
H588 H 0.13912 0.89548 0.48253 0.0
H589 H 0.16207 0.97433 0.54652 0.0
C590 C 0.26163 0.04952 0.58179 0.0
C591 C 0.31553 0.08424 0.59777 0.0
C592 C 0.2474 0.00327 0.54598 0.0
C593 C 0.35463 0.07207 0.57709 0.0
C594 C 0.34103 0.02703 0.54123 0.0
C595 C 0.27443 0.94827 0.48694 0.0
C596 C 0.22094 0.91284 0.47081 0.0
C597 C 0.28774 -0.00729 0.52477 0.0
C598 C 0.1807 0.92242 0.4937 0.0
C599 C 0.19383 0.9675 0.53038 0.0
H600 H 0.18003 0.35648 0.61228 0.0
H601 H 0.1266 0.47009 0.64583 0.0
H602 H 0.1553 0.50734 0.54178 0.0
H603 H 0.19571 0.50768 0.44201 0.0
H604 H 0.25753 0.39983 0.41226 0.0
H605 H 0.2233 0.35885 0.51283 0.0
C606 C 0.17483 0.38949 0.5967 0.0
C607 C 0.15146 0.41074 0.63671 0.0
C608 C 0.19222 0.41121 0.5372 0.0
C609 C 0.14507 0.45357 0.61615 0.0
C610 C 0.16114 0.47456 0.55655 0.0
C611 C 0.2027 0.47582 0.45749 0.0
C612 C 0.22986 0.45752 0.41875 0.0
C613 C 0.18501 0.45386 0.51679 0.0
C614 C 0.23627 0.41464 0.4398 0.0
C615 C 0.21723 0.39145 0.49796 0.0
H616 H 0.82273 0.28216 1.00138 0.0
H617 H 0.70014 0.12583 0.94397 0.0
H618 H 0.74161 0.14064 0.84162 0.0
H619 H 0.80911 0.20018 0.76608 0.0
H620 H 0.93181 0.35711 0.82338 0.0
H621 H 0.89466 0.33931 0.92767 0.0
C622 C 0.80562 0.25126 0.96645 0.0
C623 C 0.75874 0.20291 0.97996 0.0
C624 C 0.82918 0.26039 0.90725 0.0
C625 C 0.73634 0.16329 0.9344 0.0
C626 C 0.75975 0.1719 0.87579 0.0
C627 C 0.8275 0.23079 0.80115 0.0
C628 C 0.87301 0.28016 0.7862 0.0
C629 C 0.80553 0.22072 0.86119 0.0
C630 C 0.89693 0.31867 0.8331 0.0
C631 C 0.87539 0.30881 0.89284 0.0
H632 H 0.51632 0.75602 0.34114 0.0
H633 H 0.61051 0.68649 0.27728 0.0
H634 H 0.62237 0.7304 0.17716 0.0
H635 H 0.6093 0.79173 0.10923 0.0
H636 H 0.51678 0.86265 0.17444 0.0
H637 H 0.5027 0.81651 0.2733 0.0
C638 C 0.53994 0.75081 0.30565 0.0
C639 C 0.56271 0.7181 0.31718 0.0
C640 C 0.54749 0.77701 0.24859 0.0
C641 C 0.59201 0.71089 0.26977 0.0
C642 C 0.59922 0.73639 0.21257 0.0
C643 C 0.58562 0.79672 0.14483 0.0
C644 C 0.5643 0.83085 0.13431 0.0
C645 C 0.57749 0.76989 0.20164 0.0
C646 C 0.53435 0.83735 0.18145 0.0
C647 C 0.52594 0.81065 0.23791 0.0
H648 H 0.81816 0.50032 0.58993 0.0
H649 H 0.8913 0.66769 0.63491 0.0
H650 H 0.85558 0.68459 0.54007 0.0
H651 H 0.80141 0.65114 0.44609 0.0
H652 H 0.72505 0.48282 0.40322 0.0
H653 H 0.76403 0.46684 0.49534 0.0
C654 C 0.82654 0.54048 0.57844 0.0
C655 C 0.8573 0.5828 0.61883 0.0
C656 C 0.80469 0.54954 0.52479 0.0
C657 C 0.86762 0.63463 0.60419 0.0
C658 C 0.84707 0.6442 0.55024 0.0
C659 C 0.79279 0.61086 0.45721 0.0
C660 C 0.76025 0.5683 0.41768 0.0
C661 C 0.81495 0.60184 0.51061 0.0
C662 C 0.75044 0.51649 0.43232 0.0
C663 C 0.77245 0.50721 0.48525 0.0
H664 H 0.18238 0.82653 0.77258 0.0
H665 H 0.10196 0.65888 0.82084 0.0
H666 H 0.15284 0.67986 0.91702 0.0
H667 H 0.21573 0.74539 0.98985 0.0
H668 H 0.29484 0.91341 0.94366 0.0
H669 H 0.2485 0.89266 0.84435 0.0
C670 C 0.17582 0.79467 0.80448 0.0
C671 C 0.13825 0.74132 0.7901 0.0
C672 C 0.20417 0.807 0.86032 0.0
C673 C 0.12999 0.7003 0.83156 0.0
C674 C 0.15889 0.7122 0.88648 0.0
C675 C 0.22263 0.77753 0.95822 0.0
C676 C 0.25843 0.8309 0.97434 0.0
C677 C 0.19533 0.76536 0.9018 0.0
C678 C 0.26781 0.87198 0.93222 0.0
C679 C 0.24099 0.86016 0.87566 0.0
H680 H 0.35196 0.18146 0.30103 0.0
H681 H 0.48572 0.33162 0.24148 0.0
H682 H 0.48777 0.29181 0.14274 0.0
H683 H 0.45253 0.214 0.07393 0.0
H684 H 0.3177 0.06412 0.13285 0.0
H685 H 0.31557 0.1042 0.23125 0.0
C686 C 0.38169 0.2054 0.26651 0.0
C687 C 0.41868 0.25944 0.27874 0.0
C688 C 0.38258 0.18229 0.20972 0.0
C689 C 0.45648 0.29009 0.23313 0.0
C690 C 0.4579 0.26725 0.17678 0.0
C691 C 0.4223 0.19011 0.10798 0.0
C692 C 0.38537 0.13599 0.0957 0.0
C693 C 0.42112 0.21339 0.16454 0.0
C694 C 0.34712 0.1056 0.1411 0.0
C695 C 0.34568 0.12853 0.19738 0.0
H696 H 0.11252 0.45299 0.21384 0.0
H697 H 0.24737 0.55433 0.09816 0.0
H698 H 0.25954 0.6332 0.1545 0.0
H699 H 0.23413 0.67258 0.23946 0.0
H700 H 0.09752 0.57138 0.35373 0.0
H701 H 0.08345 0.49308 0.29394 0.0
C702 C 0.1434 0.49249 0.19959 0.0
C703 C 0.17757 0.49791 0.15016 0.0
C704 C 0.15049 0.53754 0.23271 0.0
C705 C 0.21919 0.54922 0.13433 0.0
C706 C 0.22659 0.59425 0.16716 0.0
C707 C 0.20131 0.63348 0.25191 0.0
C708 C 0.16741 0.62803 0.30204 0.0
C709 C 0.1929 0.58877 0.21702 0.0
C710 C 0.12476 0.57683 0.31631 0.0
C711 C 0.11656 0.53209 0.28214 0.0
H712 H 0.66416 0.16125 0.49187 0.0
H713 H 0.7064 0.3169 0.41902 0.0
H714 H 0.63047 0.31436 0.47246 0.0
H715 H 0.5561 0.2713 0.54531 0.0
H716 H 0.51029 0.11428 0.61662 0.0
H717 H 0.58314 0.11393 0.55887 0.0
C718 C 0.65576 0.19386 0.48658 0.0
C719 C 0.69026 0.23883 0.45051 0.0
C720 C 0.61204 0.19244 0.51834 0.0
C721 C 0.67992 0.28156 0.44567 0.0
C722 C 0.63669 0.28028 0.47656 0.0
C723 C 0.5617 0.23677 0.54839 0.0
C724 C 0.52837 0.19354 0.5874 0.0
C725 C 0.60313 0.23647 0.51402 0.0
C726 C 0.53628 0.14902 0.58929 0.0
C727 C 0.57776 0.14856 0.55555 0.0
H728 H 0.37892 0.52652 0.95966 0.0
H729 H 0.24751 0.55427 0.91826 0.0
H730 H 0.30144 0.62107 0.84267 0.0
H731 H 0.38646 0.67694 0.79244 0.0
H732 H 0.52243 0.65819 0.83407 0.0
H733 H 0.46633 0.58207 0.90288 0.0
C734 C 0.36228 0.54734 0.93419 0.0
C735 C 0.30898 0.53531 0.94604 0.0
C736 C 0.39422 0.58714 0.88984 0.0
C737 C 0.28822 0.56252 0.91159 0.0
C738 C 0.31902 0.60087 0.86762 0.0
C739 C 0.40364 0.65548 0.81564 0.0
C740 C 0.45824 0.67282 0.8077 0.0
C741 C 0.37202 0.61397 0.85689 0.0
C742 C 0.4802 0.64506 0.83854 0.0
C743 C 0.44822 0.60207 0.87867 0.0
H744 H 0.76444 0.28373 0.19091 0.0
H745 H 0.86812 0.40632 0.31779 0.0
H746 H 0.87205 0.47529 0.24806 0.0
H747 H 0.83644 0.50006 0.1559 0.0
H748 H 0.72977 0.3755 0.03276 0.0
H749 H 0.73788 0.30877 0.09453 0.0
C750 C 0.78833 0.32552 0.20332 0.0
C751 C 0.81537 0.33933 0.26051 0.0
C752 C 0.79018 0.365 0.16287 0.0
C753 C 0.84681 0.39402 0.27466 0.0
C754 C 0.8489 0.43368 0.23458 0.0
C755 C 0.81674 0.45859 0.1414 0.0
C756 C 0.78345 0.44299 0.08874 0.0
C757 C 0.81971 0.41965 0.17907 0.0
C758 C 0.75649 0.38873 0.07208 0.0
C759 C 0.76052 0.35037 0.10797 0.0
H760 H 0.27495 0.69671 0.51063 0.0
H761 H 0.33398 0.86126 0.45849 0.0
H762 H 0.41295 0.88846 0.52499 0.0
H763 H 0.4651 0.86328 0.60013 0.0
H764 H 0.39202 0.69859 0.66042 0.0
H765 H 0.31761 0.67421 0.59116 0.0
C766 C 0.30492 0.73878 0.51341 0.0
C767 C 0.29889 0.77654 0.47795 0.0
C768 C 0.34734 0.75422 0.55487 0.0
C769 C 0.33816 0.83089 0.48343 0.0
C770 C 0.38293 0.84649 0.52241 0.0
C771 C 0.43215 0.82246 0.59905 0.0
C772 C 0.43477 0.78254 0.63501 0.0
C773 C 0.38785 0.80838 0.55902 0.0
C774 C 0.39171 0.72986 0.63275 0.0
C775 C 0.34907 0.71572 0.59283 0.0
H776 H 0.60671 0.45967 0.90905 0.0
H777 H 0.72986 0.41799 0.87673 0.0
H778 H 0.67378 0.35154 0.80232 0.0
H779 H 0.58828 0.29959 0.75186 0.0
H780 H 0.46043 0.33319 0.78505 0.0
H781 H 0.51974 0.40894 0.85161 0.0
C782 C 0.62092 0.43566 0.88615 0.0
C783 C 0.67252 0.44376 0.89975 0.0
C784 C 0.58783 0.39639 0.8426 0.0
C785 C 0.69061 0.41303 0.86804 0.0
C786 C 0.65852 0.37481 0.825 0.0
C787 C 0.5737 0.32428 0.77255 0.0
C788 C 0.52022 0.31091 0.7635 0.0
C789 C 0.60704 0.3657 0.81248 0.0
C790 C 0.50169 0.34305 0.7907 0.0
C791 C 0.53545 0.38583 0.82954 0.0
loop_
_geom_bond_atom_site_label_1
_geom_bond_atom_site_label_2
_geom_bond_distance
_geom_bond_site_symmetry_2
_ccdc_geom_bond_type
Eu0 N31 2.657 . S
Eu0 N38 2.609 . S
Eu0 O44 2.558 . S
Eu0 O45 2.612 . S
Eu0 O47 2.339 . S
Eu0 O48 2.563 . S
Eu0 O49 2.419 . S
Eu0 O51 2.380 1_556 S
Eu0 O52 2.432 1_556 S
Eu0 C64 2.848 . S
C1 C4 1.429 . S
C1 C5 1.411 . S
C1 N8 1.377 . S
C2 C4 1.420 . S
C2 C6 1.423 . S
C2 C14 1.392 . S
C3 C5 1.420 . S
C3 C6 1.351 . S
C3 H26 0.931 . S
C4 C1 1.429 . S
C4 C2 1.420 . S
C4 N12 1.362 . S
C5 C1 1.411 . S
C5 C3 1.420 . S
C5 C10 1.395 . S
C6 C2 1.423 . S
C6 C3 1.351 . S
C6 H18 0.930 . S
C7 C9 1.400 . S
C7 C10 1.386 . S
C7 H19 0.930 . S
N8 C1 1.377 . S
N8 C9 1.321 . S
N8 Eu11 2.609 . S
C9 C7 1.400 . S
C9 N8 1.321 . S
C9 H16 0.930 . S
C10 C5 1.395 . S
C10 C7 1.386 . S
C10 H29 0.930 . S
Eu11 N8 2.609 . S
Eu11 N12 2.657 . S
Eu11 O45 2.380 1_554 S
Eu11 O46 2.432 . S
Eu11 O50 2.558 . S
Eu11 O51 2.612 . S
Eu11 O53 2.339 . S
Eu11 O54 2.563 . S
Eu11 O55 2.419 . S
Eu11 C75 2.848 . S
N12 C4 1.362 . S
N12 Eu11 2.657 . S
N12 C13 1.334 . S
C13 N12 1.334 . S
C13 C15 1.413 . S
C13 H20 0.929 . S
C14 C2 1.392 . S
C14 C15 1.367 . S
C14 H22 0.930 . S
C15 C13 1.413 . S
C15 C14 1.367 . S
C15 H17 0.930 . S
H16 C9 0.930 . S
H17 C15 0.930 . S
H18 C6 0.930 . S
H19 C7 0.930 . S
H20 C13 0.929 . S
H21 C35 0.930 . S
H22 C14 0.930 . S
H23 C41 0.930 . S
H24 C32 0.929 . S
H25 C39 0.930 . S
H26 C3 0.931 . S
H27 C33 0.930 . S
H28 C66 0.930 . S
H29 C10 0.930 . S
H30 C65 0.931 1_655 S
N31 Eu0 2.657 . S
N31 C32 1.334 . S
N31 C36 1.362 . S
C32 H24 0.929 . S
C32 N31 1.334 . S
C32 C35 1.413 . S
C33 H27 0.930 . S
C33 C34 1.392 . S
C33 C35 1.367 . S
C34 C33 1.392 . S
C34 C36 1.420 . S
C34 C66 1.423 . S
C35 H21 0.930 . S
C35 C32 1.413 . S
C35 C33 1.367 . S
C36 N31 1.362 . S
C36 C34 1.420 . S
C36 C40 1.429 . S
H37 C42 0.930 . S
N38 Eu0 2.609 . S
N38 C40 1.377 . S
N38 C41 1.321 . S
C39 H25 0.930 . S
C39 C41 1.400 1_655 S
C39 C42 1.386 . S
C40 C36 1.429 . S
C40 N38 1.377 . S
C40 C43 1.411 . S
C41 H23 0.930 . S
C41 N38 1.321 . S
C41 C39 1.400 1_455 S
C42 H37 0.930 . S
C42 C39 1.386 . S
C42 C43 1.395 1_655 S
C43 C40 1.411 . S
C43 C42 1.395 1_455 S
C43 C65 1.420 . S
O44 Eu0 2.558 . S
O44 C64 1.257 . S
O45 Eu0 2.612 . S
O45 Eu11 2.380 1_556 S
O45 C56 1.276 . S
O46 Eu11 2.432 . S
O46 C63 1.264 1_554 S
O47 Eu0 2.339 . S
O47 C63 1.254 . S
O48 Eu0 2.563 . S
O48 C56 1.235 . S
O49 Eu0 2.419 . S
O49 C64 1.249 . S
O50 Eu11 2.558 . S
O50 C75 1.257 . S
O51 Eu0 2.380 1_554 S
O51 Eu11 2.612 . S
O51 C67 1.276 . S
O52 Eu0 2.432 1_554 S
O52 C74 1.264 . S
O53 Eu11 2.339 . S
O53 C74 1.254 . S
O54 Eu11 2.563 . S
O54 C67 1.235 . S
O55 Eu11 2.419 . S
O55 C75 1.249 . S
C56 O45 1.276 . S
C56 O48 1.235 . S
C57 C59 1.393 . S
C57 C61 1.395 . S
C57 C64 1.492 . S
C58 C59 1.392 . S
C58 C60 1.386 . S
C59 C57 1.393 . S
C59 C58 1.392 . S
C59 H76 0.930 . S
C60 C58 1.386 . S
C60 C62 1.395 . S
C60 H77 0.930 . S
C61 C57 1.395 . S
C61 C62 1.379 . S
C61 H78 0.930 . S
C62 C60 1.395 . S
C62 C61 1.379 . S
C62 H79 0.930 . S
C63 O46 1.264 1_556 S
C63 O47 1.254 . S
C64 Eu0 2.848 . S
C64 O44 1.257 . S
C64 O49 1.249 . S
C64 C57 1.492 . S
C65 H30 0.931 1_455 S
C65 C43 1.420 . S
C65 C66 1.351 . S
C66 H28 0.930 . S
C66 C34 1.423 . S
C66 C65 1.351 . S
C67 O51 1.276 . S
C67 O54 1.235 . S
C68 C69 1.393 . S
C68 C72 1.395 . S
C68 C75 1.492 . S
C69 C68 1.393 . S
C69 C70 1.392 . S
C69 H80 0.930 . S
C70 C69 1.392 . S
C70 C71 1.386 . S
C71 C70 1.386 . S
C71 C73 1.395 . S
C71 H81 0.930 . S
C72 C68 1.395 . S
C72 C73 1.379 . S
C72 H82 0.930 . S
C73 C71 1.395 . S
C73 C72 1.379 . S
C73 H83 0.930 . S
C74 O52 1.264 . S
C74 O53 1.254 . S
C75 Eu11 2.848 . S
C75 O50 1.257 . S
C75 O55 1.249 . S
C75 C68 1.492 . S
H76 C59 0.930 . S
H77 C60 0.930 . S
H78 C61 0.930 . S
H79 C62 0.930 . S
H80 C69 0.930 . S
H81 C71 0.930 . S
H82 C72 0.930 . S
H83 C73 0.930 . S
Eu84 N115 2.657 . S
Eu84 N122 2.609 . S
Eu84 O128 2.558 . S
Eu84 O129 2.612 . S
Eu84 O131 2.339 . S
Eu84 O132 2.563 . S
Eu84 O133 2.419 . S
Eu84 O135 2.380 . S
Eu84 O136 2.432 . S
Eu84 C148 2.848 . S
C85 C88 1.429 . S
C85 C89 1.411 1_655 S
C85 N92 1.377 . S
C86 C88 1.420 1_455 S
C86 C90 1.423 . S
C86 C98 1.392 . S
C87 C89 1.420 . S
C87 C90 1.351 . S
C87 H110 0.931 . S
C88 C85 1.429 . S
C88 C86 1.420 1_655 S
C88 N96 1.362 . S
C89 C85 1.411 1_455 S
C89 C87 1.420 . S
C89 C94 1.395 . S
C90 C86 1.423 . S
C90 C87 1.351 . S
C90 H102 0.930 . S
C91 C93 1.400 . S
C91 C94 1.386 1_655 S
C91 H103 0.930 . S
N92 C85 1.377 . S
N92 C93 1.321 . S
N92 Eu95 2.609 . S
C93 C91 1.400 . S
C93 N92 1.321 . S
C93 H100 0.930 . S
C94 C89 1.395 . S
C94 C91 1.386 1_455 S
C94 H113 0.930 . S
Eu95 N92 2.609 . S
Eu95 N96 2.657 . S
Eu95 O129 2.380 . S
Eu95 O130 2.432 . S
Eu95 O134 2.558 . S
Eu95 O135 2.612 . S
Eu95 O137 2.339 . S
Eu95 O138 2.563 . S
Eu95 O139 2.419 . S
Eu95 C159 2.848 . S
N96 C88 1.362 . S
N96 Eu95 2.657 . S
N96 C97 1.334 . S
C97 N96 1.334 . S
C97 C99 1.413 . S
C97 H104 0.929 . S
C98 C86 1.392 . S
C98 C99 1.367 1_455 S
C98 H106 0.930 . S
C99 C97 1.413 . S
C99 C98 1.367 1_655 S
C99 H101 0.930 . S
H100 C93 0.930 . S
H101 C99 0.930 . S
H102 C90 0.930 . S
H103 C91 0.930 . S
H104 C97 0.929 . S
H105 C119 0.930 . S
H106 C98 0.930 . S
H107 C125 0.930 . S
H108 C116 0.929 . S
H109 C123 0.930 . S
H110 C87 0.931 . S
H111 C117 0.930 . S
H112 C150 0.930 . S
H113 C94 0.930 . S
H114 C149 0.931 1_565 S
N115 Eu84 2.657 . S
N115 C116 1.334 . S
N115 C120 1.362 . S
C116 H108 0.929 . S
C116 N115 1.334 . S
C116 C119 1.413 . S
C117 H111 0.930 . S
C117 C118 1.392 . S
C117 C119 1.367 . S
C118 C117 1.392 . S
C118 C120 1.420 . S
C118 C150 1.423 . S
C119 H105 0.930 . S
C119 C116 1.413 . S
C119 C117 1.367 . S
C120 N115 1.362 . S
C120 C118 1.420 . S
C120 C124 1.429 . S
H121 C126 0.930 . S
N122 Eu84 2.609 . S
N122 C124 1.377 . S
N122 C125 1.321 . S
C123 H109 0.930 . S
C123 C125 1.400 1_565 S
C123 C126 1.386 . S
C124 C120 1.429 . S
C124 N122 1.377 . S
C124 C127 1.411 . S
C125 H107 0.930 . S
C125 N122 1.321 . S
C125 C123 1.400 1_545 S
C126 H121 0.930 . S
C126 C123 1.386 . S
C126 C127 1.395 1_565 S
C127 C124 1.411 . S
C127 C126 1.395 1_545 S
C127 C149 1.420 . S
O128 Eu84 2.558 . S
O128 C148 1.257 . S
O129 Eu84 2.612 . S
O129 Eu95 2.380 . S
O129 C140 1.276 . S
O130 Eu95 2.432 . S
O130 C147 1.264 . S
O131 Eu84 2.339 . S
O131 C147 1.254 . S
O132 Eu84 2.563 . S
O132 C140 1.235 . S
O133 Eu84 2.419 . S
O133 C148 1.249 . S
O134 Eu95 2.558 . S
O134 C159 1.257 . S
O135 Eu84 2.380 . S
O135 Eu95 2.612 . S
O135 C151 1.276 . S
O136 Eu84 2.432 . S
O136 C158 1.264 . S
O137 Eu95 2.339 . S
O137 C158 1.254 . S
O138 Eu95 2.563 . S
O138 C151 1.235 . S
O139 Eu95 2.419 . S
O139 C159 1.249 . S
C140 O129 1.276 . S
C140 O132 1.235 . S
C141 C143 1.393 . S
C141 C145 1.395 . S
C141 C148 1.492 . S
C142 C143 1.392 1_556 S
C142 C144 1.386 . S
C143 C141 1.393 . S
C143 C142 1.392 1_554 S
C143 H160 0.930 . S
C144 C142 1.386 . S
C144 C146 1.395 1_556 S
C144 H161 0.930 . S
C145 C141 1.395 . S
C145 C146 1.379 . S
C145 H162 0.930 . S
C146 C144 1.395 1_554 S
C146 C145 1.379 . S
C146 H163 0.930 . S
C147 O130 1.264 . S
C147 O131 1.254 . S
C148 Eu84 2.848 . S
C148 O128 1.257 . S
C148 O133 1.249 . S
C148 C141 1.492 . S
C149 H114 0.931 1_545 S
C149 C127 1.420 . S
C149 C150 1.351 . S
C150 H112 0.930 . S
C150 C118 1.423 . S
C150 C149 1.351 . S
C151 O135 1.276 . S
C151 O138 1.235 . S
C152 C153 1.393 . S
C152 C156 1.395 . S
C152 C159 1.492 . S
C153 C152 1.393 . S
C153 C154 1.392 . S
C153 H164 0.930 . S
C154 C153 1.392 . S
C154 C155 1.386 . S
C155 C154 1.386 . S
C155 C157 1.395 . S
C155 H165 0.930 . S
C156 C152 1.395 . S
C156 C157 1.379 . S
C156 H166 0.930 . S
C157 C155 1.395 . S
C157 C156 1.379 . S
C157 H167 0.930 . S
C158 O136 1.264 . S
C158 O137 1.254 . S
C159 Eu95 2.848 . S
C159 O134 1.257 . S
C159 O139 1.249 . S
C159 C152 1.492 . S
H160 C143 0.930 . S
H161 C144 0.930 . S
H162 C145 0.930 . S
H163 C146 0.930 . S
H164 C153 0.930 . S
H165 C155 0.930 . S
H166 C156 0.930 . S
H167 C157 0.930 . S
Eu168 N199 2.657 . S
Eu168 N206 2.609 . S
Eu168 O212 2.558 . S
Eu168 O213 2.612 . S
Eu168 O215 2.339 . S
Eu168 O216 2.563 . S
Eu168 O217 2.419 . S
Eu168 O219 2.380 . S
Eu168 O220 2.432 . S
Eu168 C232 2.848 . S
C169 C172 1.429 . S
C169 C173 1.411 1_565 S
C169 N176 1.377 . S
C170 C172 1.420 1_545 S
C170 C174 1.423 . S
C170 C182 1.392 . S
C171 C173 1.420 . S
C171 C174 1.351 . S
C171 H194 0.931 . S
C172 C169 1.429 . S
C172 C170 1.420 1_565 S
C172 N180 1.362 . S
C173 C169 1.411 1_545 S
C173 C171 1.420 . S
C173 C178 1.395 . S
C174 C170 1.423 . S
C174 C171 1.351 . S
C174 H186 0.930 . S
C175 C177 1.400 . S
C175 C178 1.386 1_565 S
C175 H187 0.930 . S
N176 C169 1.377 . S
N176 C177 1.321 . S
N176 Eu179 2.609 . S
C177 C175 1.400 . S
C177 N176 1.321 . S
C177 H184 0.930 . S
C178 C173 1.395 . S
C178 C175 1.386 1_545 S
C178 H197 0.930 . S
Eu179 N176 2.609 . S
Eu179 N180 2.657 . S
Eu179 O213 2.380 . S
Eu179 O214 2.432 . S
Eu179 O218 2.558 . S
Eu179 O219 2.612 . S
Eu179 O221 2.339 . S
Eu179 O222 2.563 . S
Eu179 O223 2.419 . S
Eu179 C243 2.848 . S
N180 C172 1.362 . S
N180 Eu179 2.657 . S
N180 C181 1.334 . S
C181 N180 1.334 . S
C181 C183 1.413 . S
C181 H188 0.929 . S
C182 C170 1.392 . S
C182 C183 1.367 1_545 S
C182 H190 0.930 . S
C183 C181 1.413 . S
C183 C182 1.367 1_565 S
C183 H185 0.930 . S
H184 C177 0.930 . S
H185 C183 0.930 . S
H186 C174 0.930 . S
H187 C175 0.930 . S
H188 C181 0.929 . S
H189 C203 0.930 . S
H190 C182 0.930 . S
H191 C209 0.930 . S
H192 C200 0.929 . S
H193 C207 0.930 . S
H194 C171 0.931 . S
H195 C201 0.930 . S
H196 C234 0.930 . S
H197 C178 0.930 . S
H198 C233 0.931 . S
N199 Eu168 2.657 . S
N199 C200 1.334 . S
N199 C204 1.362 . S
C200 H192 0.929 . S
C200 N199 1.334 . S
C200 C203 1.413 . S
C201 H195 0.930 . S
C201 C202 1.392 . S
C201 C203 1.367 . S
C202 C201 1.392 . S
C202 C204 1.420 . S
C202 C234 1.423 . S
C203 H189 0.930 . S
C203 C200 1.413 . S
C203 C201 1.367 . S
C204 N199 1.362 . S
C204 C202 1.420 . S
C204 C208 1.429 . S
H205 C210 0.930 . S
N206 Eu168 2.609 . S
N206 C208 1.377 . S
N206 C209 1.321 . S
C207 H193 0.930 . S
C207 C209 1.400 . S
C207 C210 1.386 . S
C208 C204 1.429 . S
C208 N206 1.377 . S
C208 C211 1.411 . S
C209 H191 0.930 . S
C209 N206 1.321 . S
C209 C207 1.400 . S
C210 H205 0.930 . S
C210 C207 1.386 . S
C210 C211 1.395 . S
C211 C208 1.411 . S
C211 C210 1.395 . S
C211 C233 1.420 . S
O212 Eu168 2.558 . S
O212 C232 1.257 . S
O213 Eu168 2.612 . S
O213 Eu179 2.380 . S
O213 C224 1.276 . S
O214 Eu179 2.432 . S
O214 C231 1.264 . S
O215 Eu168 2.339 . S
O215 C231 1.254 . S
O216 Eu168 2.563 . S
O216 C224 1.235 . S
O217 Eu168 2.419 . S
O217 C232 1.249 . S
O218 Eu179 2.558 . S
O218 C243 1.257 . S
O219 Eu168 2.380 . S
O219 Eu179 2.612 . S
O219 C235 1.276 . S
O220 Eu168 2.432 . S
O220 C242 1.264 . S
O221 Eu179 2.339 . S
O221 C242 1.254 . S
O222 Eu179 2.563 . S
O222 C235 1.235 . S
O223 Eu179 2.419 . S
O223 C243 1.249 . S
C224 O213 1.276 . S
C224 O216 1.235 . S
C225 C227 1.393 . S
C225 C229 1.395 . S
C225 C232 1.492 . S
C226 C227 1.392 . S
C226 C228 1.386 . S
C227 C225 1.393 . S
C227 C226 1.392 . S
C227 H244 0.930 . S
C228 C226 1.386 . S
C228 C230 1.395 . S
C228 H245 0.930 . S
C229 C225 1.395 . S
C229 C230 1.379 . S
C229 H246 0.930 . S
C230 C228 1.395 . S
C230 C229 1.379 . S
C230 H247 0.930 . S
C231 O214 1.264 . S
C231 O215 1.254 . S
C232 Eu168 2.848 . S
C232 O212 1.257 . S
C232 O217 1.249 . S
C232 C225 1.492 . S
C233 H198 0.931 . S
C233 C211 1.420 . S
C233 C234 1.351 . S
C234 H196 0.930 . S
C234 C202 1.423 . S
C234 C233 1.351 . S
C235 O219 1.276 . S
C235 O222 1.235 . S
C236 C237 1.393 . S
C236 C240 1.395 . S
C236 C243 1.492 . S
C237 C236 1.393 . S
C237 C238 1.392 1_556 S
C237 H248 0.930 . S
C238 C237 1.392 1_554 S
C238 C239 1.386 . S
C239 C238 1.386 . S
C239 C241 1.395 . S
C239 H249 0.930 . S
C240 C236 1.395 . S
C240 C241 1.379 1_556 S
C240 H250 0.930 . S
C241 C239 1.395 . S
C241 C240 1.379 1_554 S
C241 H251 0.930 . S
C242 O220 1.264 . S
C242 O221 1.254 . S
C243 Eu179 2.848 . S
C243 O218 1.257 . S
C243 O223 1.249 . S
C243 C236 1.492 . S
H244 C227 0.930 . S
H245 C228 0.930 . S
H246 C229 0.930 . S
H247 C230 0.930 . S
H248 C237 0.930 . S
H249 C239 0.930 . S
H250 C240 0.930 . S
H251 C241 0.930 . S
Eu252 N283 2.657 . S
Eu252 N290 2.609 . S
Eu252 O296 2.558 . S
Eu252 O297 2.612 . S
Eu252 O299 2.339 . S
Eu252 O300 2.563 . S
Eu252 O301 2.419 . S
Eu252 O303 2.380 1_556 S
Eu252 O304 2.432 1_556 S
Eu252 C316 2.848 . S
C253 C256 1.429 . S
C253 C257 1.411 . S
C253 N260 1.377 . S
C254 C256 1.420 . S
C254 C258 1.423 . S
C254 C266 1.392 . S
C255 C257 1.420 . S
C255 C258 1.351 . S
C255 H278 0.931 . S
C256 C253 1.429 . S
C256 C254 1.420 . S
C256 N264 1.362 . S
C257 C253 1.411 . S
C257 C255 1.420 . S
C257 C262 1.395 . S
C258 C254 1.423 . S
C258 C255 1.351 . S
C258 H270 0.930 . S
C259 C261 1.400 . S
C259 C262 1.386 . S
C259 H271 0.930 . S
N260 C253 1.377 . S
N260 C261 1.321 . S
N260 Eu263 2.609 . S
C261 C259 1.400 . S
C261 N260 1.321 . S
C261 H268 0.930 . S
C262 C257 1.395 . S
C262 C259 1.386 . S
C262 H281 0.930 . S
Eu263 N260 2.609 . S
Eu263 N264 2.657 . S
Eu263 O297 2.380 1_554 S
Eu263 O298 2.432 . S
Eu263 O302 2.558 . S
Eu263 O303 2.612 . S
Eu263 O305 2.339 . S
Eu263 O306 2.563 . S
Eu263 O307 2.419 . S
Eu263 C327 2.848 . S
N264 C256 1.362 . S
N264 Eu263 2.657 . S
N264 C265 1.334 . S
C265 N264 1.334 . S
C265 C267 1.413 . S
C265 H272 0.929 . S
C266 C254 1.392 . S
C266 C267 1.367 . S
C266 H274 0.930 . S
C267 C265 1.413 . S
C267 C266 1.367 . S
C267 H269 0.930 . S
H268 C261 0.930 . S
H269 C267 0.930 . S
H270 C258 0.930 . S
H271 C259 0.930 . S
H272 C265 0.929 . S
H273 C287 0.930 . S
H274 C266 0.930 . S
H275 C293 0.930 . S
H276 C284 0.929 . S
H277 C291 0.930 . S
H278 C255 0.931 . S
H279 C285 0.930 . S
H280 C318 0.930 . S
H281 C262 0.930 . S
H282 C317 0.931 1_455 S
N283 Eu252 2.657 . S
N283 C284 1.334 . S
N283 C288 1.362 . S
C284 H276 0.929 . S
C284 N283 1.334 . S
C284 C287 1.413 . S
C285 H279 0.930 . S
C285 C286 1.392 . S
C285 C287 1.367 . S
C286 C285 1.392 . S
C286 C288 1.420 . S
C286 C318 1.423 . S
C287 H273 0.930 . S
C287 C284 1.413 . S
C287 C285 1.367 . S
C288 N283 1.362 . S
C288 C286 1.420 . S
C288 C292 1.429 . S
H289 C294 0.930 . S
N290 Eu252 2.609 . S
N290 C292 1.377 . S
N290 C293 1.321 . S
C291 H277 0.930 . S
C291 C293 1.400 1_455 S
C291 C294 1.386 . S
C292 C288 1.429 . S
C292 N290 1.377 . S
C292 C295 1.411 . S
C293 H275 0.930 . S
C293 N290 1.321 . S
C293 C291 1.400 1_655 S
C294 H289 0.930 . S
C294 C291 1.386 . S
C294 C295 1.395 1_455 S
C295 C292 1.411 . S
C295 C294 1.395 1_655 S
C295 C317 1.420 . S
O296 Eu252 2.558 . S
O296 C316 1.257 . S
O297 Eu252 2.612 . S
O297 Eu263 2.380 1_556 S
O297 C308 1.276 . S
O298 Eu263 2.432 . S
O298 C315 1.264 1_554 S
O299 Eu252 2.339 . S
O299 C315 1.254 . S
O300 Eu252 2.563 . S
O300 C308 1.235 . S
O301 Eu252 2.419 . S
O301 C316 1.249 . S
O302 Eu263 2.558 . S
O302 C327 1.257 . S
O303 Eu252 2.380 1_554 S
O303 Eu263 2.612 . S
O303 C319 1.276 . S
O304 Eu252 2.432 1_554 S
O304 C326 1.264 . S
O305 Eu263 2.339 . S
O305 C326 1.254 . S
O306 Eu263 2.563 . S
O306 C319 1.235 . S
O307 Eu263 2.419 . S
O307 C327 1.249 . S
C308 O297 1.276 . S
C308 O300 1.235 . S
C309 C311 1.393 . S
C309 C313 1.395 . S
C309 C316 1.492 . S
C310 C311 1.392 . S
C310 C312 1.386 . S
C311 C309 1.393 . S
C311 C310 1.392 . S
C311 H328 0.930 . S
C312 C310 1.386 . S
C312 C314 1.395 . S
C312 H329 0.930 . S
C313 C309 1.395 . S
C313 C314 1.379 . S
C313 H330 0.930 . S
C314 C312 1.395 . S
C314 C313 1.379 . S
C314 H331 0.930 . S
C315 O298 1.264 1_556 S
C315 O299 1.254 . S
C316 Eu252 2.848 . S
C316 O296 1.257 . S
C316 O301 1.249 . S
C316 C309 1.492 . S
C317 H282 0.931 1_655 S
C317 C295 1.420 . S
C317 C318 1.351 . S
C318 H280 0.930 . S
C318 C286 1.423 . S
C318 C317 1.351 . S
C319 O303 1.276 . S
C319 O306 1.235 . S
C320 C321 1.393 . S
C320 C324 1.395 . S
C320 C327 1.492 . S
C321 C320 1.393 . S
C321 C322 1.392 . S
C321 H332 0.930 . S
C322 C321 1.392 . S
C322 C323 1.386 . S
C323 C322 1.386 . S
C323 C325 1.395 . S
C323 H333 0.930 . S
C324 C320 1.395 . S
C324 C325 1.379 . S
C324 H334 0.930 . S
C325 C323 1.395 . S
C325 C324 1.379 . S
C325 H335 0.930 . S
C326 O304 1.264 . S
C326 O305 1.254 . S
C327 Eu263 2.848 . S
C327 O302 1.257 . S
C327 O307 1.249 . S
C327 C320 1.492 . S
H328 C311 0.930 . S
H329 C312 0.930 . S
H330 C313 0.930 . S
H331 C314 0.930 . S
H332 C321 0.930 . S
H333 C323 0.930 . S
H334 C324 0.930 . S
H335 C325 0.930 . S
Eu336 N367 2.657 . S
Eu336 N374 2.609 . S
Eu336 O380 2.558 . S
Eu336 O381 2.612 . S
Eu336 O383 2.339 . S
Eu336 O384 2.563 . S
Eu336 O385 2.419 . S
Eu336 O387 2.380 . S
Eu336 O388 2.432 . S
Eu336 C400 2.848 . S
C337 C340 1.429 . S
C337 C341 1.411 1_455 S
C337 N344 1.377 . S
C338 C340 1.420 1_655 S
C338 C342 1.423 . S
C338 C350 1.392 . S
C339 C341 1.420 . S
C339 C342 1.351 . S
C339 H362 0.931 . S
C340 C337 1.429 . S
C340 C338 1.420 1_455 S
C340 N348 1.362 . S
C341 C337 1.411 1_655 S
C341 C339 1.420 . S
C341 C346 1.395 . S
C342 C338 1.423 . S
C342 C339 1.351 . S
C342 H354 0.930 . S
C343 C345 1.400 . S
C343 C346 1.386 1_455 S
C343 H355 0.930 . S
N344 C337 1.377 . S
N344 C345 1.321 . S
N344 Eu347 2.609 . S
C345 C343 1.400 . S
C345 N344 1.321 . S
C345 H352 0.930 . S
C346 C341 1.395 . S
C346 C343 1.386 1_655 S
C346 H365 0.930 . S
Eu347 N344 2.609 . S
Eu347 N348 2.657 . S
Eu347 O381 2.380 . S
Eu347 O382 2.432 . S
Eu347 O386 2.558 . S
Eu347 O387 2.612 . S
Eu347 O389 2.339 . S
Eu347 O390 2.563 . S
Eu347 O391 2.419 . S
Eu347 C411 2.848 . S
N348 C340 1.362 . S
N348 Eu347 2.657 . S
N348 C349 1.334 . S
C349 N348 1.334 . S
C349 C351 1.413 . S
C349 H356 0.929 . S
C350 C338 1.392 . S
C350 C351 1.367 1_655 S
C350 H358 0.930 . S
C351 C349 1.413 . S
C351 C350 1.367 1_455 S
C351 H353 0.930 . S
H352 C345 0.930 . S
H353 C351 0.930 . S
H354 C342 0.930 . S
H355 C343 0.930 . S
H356 C349 0.929 . S
H357 C371 0.930 . S
H358 C350 0.930 . S
H359 C377 0.930 . S
H360 C368 0.929 . S
H361 C375 0.930 . S
H362 C339 0.931 . S
H363 C369 0.930 . S
H364 C402 0.930 . S
H365 C346 0.930 . S
H366 C401 0.931 1_545 S
N367 Eu336 2.657 . S
N367 C368 1.334 . S
N367 C372 1.362 . S
C368 H360 0.929 . S
C368 N367 1.334 . S
C368 C371 1.413 . S
C369 H363 0.930 . S
C369 C370 1.392 . S
C369 C371 1.367 . S
C370 C369 1.392 . S
C370 C372 1.420 . S
C370 C402 1.423 . S
C371 H357 0.930 . S
C371 C368 1.413 . S
C371 C369 1.367 . S
C372 N367 1.362 . S
C372 C370 1.420 . S
C372 C376 1.429 . S
H373 C378 0.930 . S
N374 Eu336 2.609 . S
N374 C376 1.377 . S
N374 C377 1.321 . S
C375 H361 0.930 . S
C375 C377 1.400 1_545 S
C375 C378 1.386 . S
C376 C372 1.429 . S
C376 N374 1.377 . S
C376 C379 1.411 . S
C377 H359 0.930 . S
C377 N374 1.321 . S
C377 C375 1.400 1_565 S
C378 H373 0.930 . S
C378 C375 1.386 . S
C378 C379 1.395 1_545 S
C379 C376 1.411 . S
C379 C378 1.395 1_565 S
C379 C401 1.420 . S
O380 Eu336 2.558 . S
O380 C400 1.257 . S
O381 Eu336 2.612 . S
O381 Eu347 2.380 . S
O381 C392 1.276 . S
O382 Eu347 2.432 . S
O382 C399 1.264 . S
O383 Eu336 2.339 . S
O383 C399 1.254 . S
O384 Eu336 2.563 . S
O384 C392 1.235 . S
O385 Eu336 2.419 . S
O385 C400 1.249 . S
O386 Eu347 2.558 . S
O386 C411 1.257 . S
O387 Eu336 2.380 . S
O387 Eu347 2.612 . S
O387 C403 1.276 . S
O388 Eu336 2.432 . S
O388 C410 1.264 . S
O389 Eu347 2.339 . S
O389 C410 1.254 . S
O390 Eu347 2.563 . S
O390 C403 1.235 . S
O391 Eu347 2.419 . S
O391 C411 1.249 . S
C392 O381 1.276 . S
C392 O384 1.235 . S
C393 C395 1.393 . S
C393 C397 1.395 . S
C393 C400 1.492 . S
C394 C395 1.392 1_556 S
C394 C396 1.386 . S
C395 C393 1.393 . S
C395 C394 1.392 1_554 S
C395 H412 0.930 . S
C396 C394 1.386 . S
C396 C398 1.395 1_556 S
C396 H413 0.930 . S
C397 C393 1.395 . S
C397 C398 1.379 . S
C397 H414 0.930 . S
C398 C396 1.395 1_554 S
C398 C397 1.379 . S
C398 H415 0.930 . S
C399 O382 1.264 . S
C399 O383 1.254 . S
C400 Eu336 2.848 . S
C400 O380 1.257 . S
C400 O385 1.249 . S
C400 C393 1.492 . S
C401 H366 0.931 1_565 S
C401 C379 1.420 . S
C401 C402 1.351 . S
C402 H364 0.930 . S
C402 C370 1.423 . S
C402 C401 1.351 . S
C403 O387 1.276 . S
C403 O390 1.235 . S
C404 C405 1.393 . S
C404 C408 1.395 . S
C404 C411 1.492 . S
C405 C404 1.393 . S
C405 C406 1.392 . S
C405 H416 0.930 . S
C406 C405 1.392 . S
C406 C407 1.386 . S
C407 C406 1.386 . S
C407 C409 1.395 . S
C407 H417 0.930 . S
C408 C404 1.395 . S
C408 C409 1.379 . S
C408 H418 0.930 . S
C409 C407 1.395 . S
C409 C408 1.379 . S
C409 H419 0.930 . S
C410 O388 1.264 . S
C410 O389 1.254 . S
C411 Eu347 2.848 . S
C411 O386 1.257 . S
C411 O391 1.249 . S
C411 C404 1.492 . S
H412 C395 0.930 . S
H413 C396 0.930 . S
H414 C397 0.930 . S
H415 C398 0.930 . S
H416 C405 0.930 . S
H417 C407 0.930 . S
H418 C408 0.930 . S
H419 C409 0.930 . S
Eu420 N451 2.657 . S
Eu420 N458 2.609 . S
Eu420 O464 2.558 . S
Eu420 O465 2.612 . S
Eu420 O467 2.339 . S
Eu420 O468 2.563 . S
Eu420 O469 2.419 . S
Eu420 O471 2.380 . S
Eu420 O472 2.432 . S
Eu420 C484 2.848 . S
C421 C424 1.429 . S
C421 C425 1.411 1_545 S
C421 N428 1.377 . S
C422 C424 1.420 1_565 S
C422 C426 1.423 . S
C422 C434 1.392 . S
C423 C425 1.420 . S
C423 C426 1.351 . S
C423 H446 0.931 . S
C424 C421 1.429 . S
C424 C422 1.420 1_545 S
C424 N432 1.362 . S
C425 C421 1.411 1_565 S
C425 C423 1.420 . S
C425 C430 1.395 . S
C426 C422 1.423 . S
C426 C423 1.351 . S
C426 H438 0.930 . S
C427 C429 1.400 . S
C427 C430 1.386 1_545 S
C427 H439 0.930 . S
N428 C421 1.377 . S
N428 C429 1.321 . S
N428 Eu431 2.609 . S
C429 C427 1.400 . S
C429 N428 1.321 . S
C429 H436 0.930 . S
C430 C425 1.395 . S
C430 C427 1.386 1_565 S
C430 H449 0.930 . S
Eu431 N428 2.609 . S
Eu431 N432 2.657 . S
Eu431 O465 2.380 . S
Eu431 O466 2.432 . S
Eu431 O470 2.558 . S
Eu431 O471 2.612 . S
Eu431 O473 2.339 . S
Eu431 O474 2.563 . S
Eu431 O475 2.419 . S
Eu431 C495 2.848 . S
N432 C424 1.362 . S
N432 Eu431 2.657 . S
N432 C433 1.334 . S
C433 N432 1.334 . S
C433 C435 1.413 . S
C433 H440 0.929 . S
C434 C422 1.392 . S
C434 C435 1.367 1_565 S
C434 H442 0.930 . S
C435 C433 1.413 . S
C435 C434 1.367 1_545 S
C435 H437 0.930 . S
H436 C429 0.930 . S
H437 C435 0.930 . S
H438 C426 0.930 . S
H439 C427 0.930 . S
H440 C433 0.929 . S
H441 C455 0.930 . S
H442 C434 0.930 . S
H443 C461 0.930 . S
H444 C452 0.929 . S
H445 C459 0.930 . S
H446 C423 0.931 . S
H447 C453 0.930 . S
H448 C486 0.930 . S
H449 C430 0.930 . S
H450 C485 0.931 . S
N451 Eu420 2.657 . S
N451 C452 1.334 . S
N451 C456 1.362 . S
C452 H444 0.929 . S
C452 N451 1.334 . S
C452 C455 1.413 . S
C453 H447 0.930 . S
C453 C454 1.392 . S
C453 C455 1.367 . S
C454 C453 1.392 . S
C454 C456 1.420 . S
C454 C486 1.423 . S
C455 H441 0.930 . S
C455 C452 1.413 . S
C455 C453 1.367 . S
C456 N451 1.362 . S
C456 C454 1.420 . S
C456 C460 1.429 . S
H457 C462 0.930 . S
N458 Eu420 2.609 . S
N458 C460 1.377 . S
N458 C461 1.321 . S
C459 H445 0.930 . S
C459 C461 1.400 . S
C459 C462 1.386 . S
C460 C456 1.429 . S
C460 N458 1.377 . S
C460 C463 1.411 . S
C461 H443 0.930 . S
C461 N458 1.321 . S
C461 C459 1.400 . S
C462 H457 0.930 . S
C462 C459 1.386 . S
C462 C463 1.395 . S
C463 C460 1.411 . S
C463 C462 1.395 . S
C463 C485 1.420 . S
O464 Eu420 2.558 . S
O464 C484 1.257 . S
O465 Eu420 2.612 . S
O465 Eu431 2.380 . S
O465 C476 1.276 . S
O466 Eu431 2.432 . S
O466 C483 1.264 . S
O467 Eu420 2.339 . S
O467 C483 1.254 . S
O468 Eu420 2.563 . S
O468 C476 1.235 . S
O469 Eu420 2.419 . S
O469 C484 1.249 . S
O470 Eu431 2.558 . S
O470 C495 1.257 . S
O471 Eu420 2.380 . S
O471 Eu431 2.612 . S
O471 C487 1.276 . S
O472 Eu420 2.432 . S
O472 C494 1.264 . S
O473 Eu431 2.339 . S
O473 C494 1.254 . S
O474 Eu431 2.563 . S
O474 C487 1.235 . S
O475 Eu431 2.419 . S
O475 C495 1.249 . S
C476 O465 1.276 . S
C476 O468 1.235 . S
C477 C479 1.393 . S
C477 C481 1.395 . S
C477 C484 1.492 . S
C478 C479 1.392 . S
C478 C480 1.386 . S
C479 C477 1.393 . S
C479 C478 1.392 . S
C479 H496 0.930 . S
C480 C478 1.386 . S
C480 C482 1.395 . S
C480 H497 0.930 . S
C481 C477 1.395 . S
C481 C482 1.379 . S
C481 H498 0.930 . S
C482 C480 1.395 . S
C482 C481 1.379 . S
C482 H499 0.930 . S
C483 O466 1.264 . S
C483 O467 1.254 . S
C484 Eu420 2.848 . S
C484 O464 1.257 . S
C484 O469 1.249 . S
C484 C477 1.492 . S
C485 H450 0.931 . S
C485 C463 1.420 . S
C485 C486 1.351 . S
C486 H448 0.930 . S
C486 C454 1.423 . S
C486 C485 1.351 . S
C487 O471 1.276 . S
C487 O474 1.235 . S
C488 C489 1.393 . S
C488 C492 1.395 . S
C488 C495 1.492 . S
C489 C488 1.393 . S
C489 C490 1.392 1_556 S
C489 H500 0.930 . S
C490 C489 1.392 1_554 S
C490 C491 1.386 . S
C491 C490 1.386 . S
C491 C493 1.395 . S
C491 H501 0.930 . S
C492 C488 1.395 . S
C492 C493 1.379 1_556 S
C492 H502 0.930 . S
C493 C491 1.395 . S
C493 C492 1.379 1_554 S
C493 H503 0.930 . S
C494 O472 1.264 . S
C494 O473 1.254 . S
C495 Eu431 2.848 . S
C495 O470 1.257 . S
C495 O475 1.249 . S
C495 C488 1.492 . S
H496 C479 0.930 . S
H497 C480 0.930 . S
H498 C481 0.930 . S
H499 C482 0.930 . S
H500 C489 0.930 . S
H501 C491 0.930 . S
H502 C492 0.930 . S
H503 C493 0.930 . S
H504 C510 0.930 . S
H505 C513 0.930 . S
H506 C514 0.930 . S
H507 C515 0.930 . S
H508 C518 0.930 . S
H509 C519 0.930 . S
C510 H504 0.930 . S
C510 C511 1.355 . S
C510 C512 1.415 . S
C511 C510 1.355 . S
C511 C513 1.419 . S
C512 C510 1.415 . S
C512 C517 1.425 . S
C512 C519 1.409 . S
C513 H505 0.930 . S
C513 C511 1.419 . S
C513 C514 1.362 . S
C514 H506 0.930 . S
C514 C513 1.362 . S
C514 C517 1.409 . S
C515 H507 0.930 . S
C515 C516 1.355 . S
C515 C517 1.415 . S
C516 C515 1.355 . S
C516 C518 1.419 . S
C517 C512 1.425 . S
C517 C514 1.409 . S
C517 C515 1.415 . S
C518 H508 0.930 . S
C518 C516 1.419 . S
C518 C519 1.362 . S
C519 H509 0.930 . S
C519 C512 1.409 . S
C519 C518 1.362 . S
H520 C526 0.930 . S
H521 C529 0.930 . S
H522 C530 0.930 . S
H523 C531 0.930 . S
H524 C534 0.930 . S
H525 C535 0.930 . S
C526 H520 0.930 . S
C526 C527 1.355 . S
C526 C528 1.415 . S
C527 C526 1.355 . S
C527 C529 1.419 . S
C528 C526 1.415 . S
C528 C533 1.425 1_455 S
C528 C535 1.409 . S
C529 H521 0.930 . S
C529 C527 1.419 . S
C529 C530 1.362 1_455 S
C530 H522 0.930 . S
C530 C529 1.362 1_655 S
C530 C533 1.409 . S
C531 H523 0.930 . S
C531 C532 1.355 . S
C531 C533 1.415 . S
C532 C531 1.355 . S
C532 C534 1.419 . S
C533 C528 1.425 1_655 S
C533 C530 1.409 . S
C533 C531 1.415 . S
C534 H524 0.930 . S
C534 C532 1.419 . S
C534 C535 1.362 1_655 S
C535 H525 0.930 . S
C535 C528 1.409 . S
C535 C534 1.362 1_455 S
H536 C542 0.930 . S
H537 C545 0.930 . S
H538 C546 0.930 . S
H539 C547 0.930 . S
H540 C550 0.930 . S
H541 C551 0.929 1_545 S
C542 H536 0.930 . S
C542 C543 1.355 . S
C542 C544 1.415 . S
C543 C542 1.355 . S
C543 C545 1.419 . S
C544 C542 1.415 . S
C544 C549 1.425 1_545 S
C544 C551 1.409 1_545 S
C545 H537 0.930 . S
C545 C543 1.419 . S
C545 C546 1.362 1_545 S
C546 H538 0.930 . S
C546 C545 1.362 1_565 S
C546 C549 1.409 . S
C547 H539 0.930 . S
C547 C548 1.355 . S
C547 C549 1.415 . S
C548 C547 1.355 . S
C548 C550 1.419 . S
C549 C544 1.425 1_565 S
C549 C546 1.409 . S
C549 C547 1.415 . S
C550 H540 0.930 . S
C550 C548 1.419 . S
C550 C551 1.363 . S
C551 H541 0.929 1_565 S
C551 C544 1.409 1_565 S
C551 C550 1.363 . S
H552 C558 0.930 . S
H553 C561 0.930 . S
H554 C562 0.930 . S
H555 C563 0.930 . S
H556 C566 0.930 . S
H557 C567 0.930 . S
C558 H552 0.930 . S
C558 C559 1.355 . S
C558 C560 1.415 . S
C559 C558 1.355 . S
C559 C561 1.419 . S
C560 C558 1.415 . S
C560 C565 1.425 . S
C560 C567 1.409 . S
C561 H553 0.930 . S
C561 C559 1.419 . S
C561 C562 1.362 . S
C562 H554 0.930 . S
C562 C561 1.362 . S
C562 C565 1.409 . S
C563 H555 0.930 . S
C563 C564 1.355 . S
C563 C565 1.415 . S
C564 C563 1.355 . S
C564 C566 1.419 . S
C565 C560 1.425 . S
C565 C562 1.409 . S
C565 C563 1.415 . S
C566 H556 0.930 . S
C566 C564 1.419 . S
C566 C567 1.362 . S
C567 H557 0.930 . S
C567 C560 1.409 . S
C567 C566 1.362 . S
H568 C574 0.930 . S
H569 C577 0.930 . S
H570 C578 0.930 . S
H571 C579 0.930 . S
H572 C582 0.930 . S
H573 C583 0.930 . S
C574 H568 0.930 . S
C574 C575 1.355 . S
C574 C576 1.410 1_455 S
C575 C574 1.355 . S
C575 C577 1.419 . S
C576 C574 1.410 1_655 S
C576 C581 1.421 1_655 S
C576 C583 1.418 . S
C577 H569 0.930 . S
C577 C575 1.419 . S
C577 C578 1.362 . S
C578 H570 0.930 . S
C578 C577 1.362 . S
C578 C581 1.409 . S
C579 H571 0.930 . S
C579 C580 1.355 . S
C579 C581 1.415 1_655 S
C580 C579 1.355 . S
C580 C582 1.419 . S
C581 C576 1.421 1_455 S
C581 C578 1.409 . S
C581 C579 1.415 1_455 S
C582 H572 0.930 . S
C582 C580 1.419 . S
C582 C583 1.362 . S
C583 H573 0.930 . S
C583 C576 1.418 . S
C583 C582 1.362 . S
H584 C590 0.930 . S
H585 C593 0.930 . S
H586 C594 0.930 . S
H587 C595 0.930 . S
H588 C598 0.930 . S
H589 C599 0.930 . S
C590 H584 0.930 . S
C590 C591 1.355 . S
C590 C592 1.415 1_545 S
C591 C590 1.355 . S
C591 C593 1.419 . S
C592 C590 1.415 1_565 S
C592 C597 1.425 1_565 S
C592 C599 1.409 . S
C593 H585 0.930 . S
C593 C591 1.419 . S
C593 C594 1.362 . S
C594 H586 0.930 . S
C594 C593 1.362 . S
C594 C597 1.409 . S
C595 H587 0.930 . S
C595 C596 1.355 . S
C595 C597 1.415 1_565 S
C596 C595 1.355 . S
C596 C598 1.419 . S
C597 C592 1.425 1_545 S
C597 C594 1.409 . S
C597 C595 1.415 1_545 S
C598 H588 0.930 . S
C598 C596 1.419 . S
C598 C599 1.362 . S
C599 H589 0.930 . S
C599 C592 1.409 . S
C599 C598 1.362 . S
H600 C606 0.930 . S
H601 C609 0.930 . S
H602 C610 0.930 . S
H603 C611 0.930 . S
H604 C614 0.930 . S
H605 C615 0.930 . S
C606 H600 0.930 . S
C606 C607 1.355 . S
C606 C608 1.415 . S
C607 C606 1.355 . S
C607 C609 1.419 . S
C608 C606 1.415 . S
C608 C613 1.425 . S
C608 C615 1.409 . S
C609 H601 0.930 . S
C609 C607 1.419 . S
C609 C610 1.362 . S
C610 H602 0.930 . S
C610 C609 1.362 . S
C610 C613 1.409 . S
C611 H603 0.930 . S
C611 C612 1.355 . S
C611 C613 1.415 . S
C612 C611 1.355 . S
C612 C614 1.419 . S
C613 C608 1.425 . S
C613 C610 1.409 . S
C613 C611 1.415 . S
C614 H604 0.930 . S
C614 C612 1.419 . S
C614 C615 1.362 . S
C615 H605 0.930 . S
C615 C608 1.409 . S
C615 C614 1.362 . S
H616 C622 0.930 . S
H617 C625 0.930 . S
H618 C626 0.930 . S
H619 C627 0.930 . S
H620 C630 0.930 . S
H621 C631 0.930 . S
C622 H616 0.930 . S
C622 C623 1.355 . S
C622 C624 1.415 . S
C623 C622 1.355 . S
C623 C625 1.419 . S
C624 C622 1.415 . S
C624 C629 1.425 . S
C624 C631 1.409 . S
C625 H617 0.930 . S
C625 C623 1.419 . S
C625 C626 1.362 . S
C626 H618 0.930 . S
C626 C625 1.362 . S
C626 C629 1.409 . S
C627 H619 0.930 . S
C627 C628 1.355 . S
C627 C629 1.415 . S
C628 C627 1.355 . S
C628 C630 1.419 . S
C629 C624 1.425 . S
C629 C626 1.409 . S
C629 C627 1.415 . S
C630 H620 0.930 . S
C630 C628 1.419 . S
C630 C631 1.362 . S
C631 H621 0.930 . S
C631 C624 1.409 . S
C631 C630 1.362 . S
H632 C638 0.930 . S
H633 C641 0.930 . S
H634 C642 0.930 . S
H635 C643 0.930 . S
H636 C646 0.930 . S
H637 C647 0.930 . S
C638 H632 0.930 . S
C638 C639 1.355 . S
C638 C640 1.415 . S
C639 C638 1.355 . S
C639 C641 1.419 . S
C640 C638 1.415 . S
C640 C645 1.425 . S
C640 C647 1.409 . S
C641 H633 0.930 . S
C641 C639 1.419 . S
C641 C642 1.362 . S
C642 H634 0.930 . S
C642 C641 1.362 . S
C642 C645 1.409 . S
C643 H635 0.930 . S
C643 C644 1.355 . S
C643 C645 1.415 . S
C644 C643 1.355 . S
C644 C646 1.419 . S
C645 C640 1.425 . S
C645 C642 1.409 . S
C645 C643 1.415 . S
C646 H636 0.930 . S
C646 C644 1.419 . S
C646 C647 1.362 . S
C647 H637 0.930 . S
C647 C640 1.409 . S
C647 C646 1.362 . S
H648 C654 0.930 . S
H649 C657 0.930 . S
H650 C658 0.930 . S
H651 C659 0.930 . S
H652 C662 0.930 . S
H653 C663 0.930 . S
C654 H648 0.930 . S
C654 C655 1.355 . S
C654 C656 1.415 . S
C655 C654 1.355 . S
C655 C657 1.419 . S
C656 C654 1.415 . S
C656 C661 1.425 . S
C656 C663 1.409 . S
C657 H649 0.930 . S
C657 C655 1.419 . S
C657 C658 1.362 . S
C658 H650 0.930 . S
C658 C657 1.362 . S
C658 C661 1.409 . S
C659 H651 0.930 . S
C659 C660 1.355 . S
C659 C661 1.415 . S
C660 C659 1.355 . S
C660 C662 1.419 . S
C661 C656 1.425 . S
C661 C658 1.409 . S
C661 C659 1.415 . S
C662 H652 0.930 . S
C662 C660 1.419 . S
C662 C663 1.362 . S
C663 H653 0.930 . S
C663 C656 1.409 . S
C663 C662 1.362 . S
H664 C670 0.930 . S
H665 C673 0.930 . S
H666 C674 0.930 . S
H667 C675 0.930 . S
H668 C678 0.930 . S
H669 C679 0.930 . S
C670 H664 0.930 . S
C670 C671 1.355 . S
C670 C672 1.415 . S
C671 C670 1.355 . S
C671 C673 1.419 . S
C672 C670 1.415 . S
C672 C677 1.425 . S
C672 C679 1.409 . S
C673 H665 0.930 . S
C673 C671 1.419 . S
C673 C674 1.362 . S
C674 H666 0.930 . S
C674 C673 1.362 . S
C674 C677 1.409 . S
C675 H667 0.930 . S
C675 C676 1.355 . S
C675 C677 1.415 . S
C676 C675 1.355 . S
C676 C678 1.419 . S
C677 C672 1.425 . S
C677 C674 1.409 . S
C677 C675 1.415 . S
C678 H668 0.930 . S
C678 C676 1.419 . S
C678 C679 1.362 . S
C679 H669 0.930 . S
C679 C672 1.409 . S
C679 C678 1.362 . S
H680 C686 0.930 . S
H681 C689 0.930 . S
H682 C690 0.930 . S
H683 C691 0.930 . S
H684 C694 0.930 . S
H685 C695 0.930 . S
C686 H680 0.930 . S
C686 C687 1.355 . S
C686 C688 1.415 . S
C687 C686 1.355 . S
C687 C689 1.419 . S
C688 C686 1.415 . S
C688 C693 1.425 . S
C688 C695 1.409 . S
C689 H681 0.930 . S
C689 C687 1.419 . S
C689 C690 1.362 . S
C690 H682 0.930 . S
C690 C689 1.362 . S
C690 C693 1.409 . S
C691 H683 0.930 . S
C691 C692 1.355 . S
C691 C693 1.415 . S
C692 C691 1.355 . S
C692 C694 1.419 . S
C693 C688 1.425 . S
C693 C690 1.409 . S
C693 C691 1.415 . S
C694 H684 0.930 . S
C694 C692 1.419 . S
C694 C695 1.362 . S
C695 H685 0.930 . S
C695 C688 1.409 . S
C695 C694 1.362 . S
H696 C702 0.930 . S
H697 C705 0.930 . S
H698 C706 0.930 . S
H699 C707 0.930 . S
H700 C710 0.930 . S
H701 C711 0.930 . S
C702 H696 0.930 . S
C702 C703 1.355 . S
C702 C704 1.415 . S
C703 C702 1.355 . S
C703 C705 1.419 . S
C704 C702 1.415 . S
C704 C709 1.425 . S
C704 C711 1.409 . S
C705 H697 0.930 . S
C705 C703 1.419 . S
C705 C706 1.362 . S
C706 H698 0.930 . S
C706 C705 1.362 . S
C706 C709 1.409 . S
C707 H699 0.930 . S
C707 C708 1.355 . S
C707 C709 1.415 . S
C708 C707 1.355 . S
C708 C710 1.419 . S
C709 C704 1.425 . S
C709 C706 1.409 . S
C709 C707 1.415 . S
C710 H700 0.930 . S
C710 C708 1.419 . S
C710 C711 1.362 . S
C711 H701 0.930 . S
C711 C704 1.409 . S
C711 C710 1.362 . S
H712 C718 0.930 . S
H713 C721 0.930 . S
H714 C722 0.930 . S
H715 C723 0.930 . S
H716 C726 0.930 . S
H717 C727 0.930 . S
C718 H712 0.930 . S
C718 C719 1.355 . S
C718 C720 1.415 . S
C719 C718 1.355 . S
C719 C721 1.419 . S
C720 C718 1.415 . S
C720 C725 1.425 . S
C720 C727 1.409 . S
C721 H713 0.930 . S
C721 C719 1.419 . S
C721 C722 1.362 . S
C722 H714 0.930 . S
C722 C721 1.362 . S
C722 C725 1.409 . S
C723 H715 0.930 . S
C723 C724 1.355 . S
C723 C725 1.415 . S
C724 C723 1.355 . S
C724 C726 1.419 . S
C725 C720 1.425 . S
C725 C722 1.409 . S
C725 C723 1.415 . S
C726 H716 0.930 . S
C726 C724 1.419 . S
C726 C727 1.362 . S
C727 H717 0.930 . S
C727 C720 1.409 . S
C727 C726 1.362 . S
H728 C734 0.930 . S
H729 C737 0.930 . S
H730 C738 0.930 . S
H731 C739 0.930 . S
H732 C742 0.930 . S
H733 C743 0.930 . S
C734 H728 0.930 . S
C734 C735 1.355 . S
C734 C736 1.415 . S
C735 C734 1.355 . S
C735 C737 1.419 . S
C736 C734 1.415 . S
C736 C741 1.425 . S
C736 C743 1.409 . S
C737 H729 0.930 . S
C737 C735 1.419 . S
C737 C738 1.362 . S
C738 H730 0.930 . S
C738 C737 1.362 . S
C738 C741 1.409 . S
C739 H731 0.930 . S
C739 C740 1.355 . S
C739 C741 1.415 . S
C740 C739 1.355 . S
C740 C742 1.419 . S
C741 C736 1.425 . S
C741 C738 1.409 . S
C741 C739 1.415 . S
C742 H732 0.930 . S
C742 C740 1.419 . S
C742 C743 1.362 . S
C743 H733 0.930 . S
C743 C736 1.409 . S
C743 C742 1.362 . S
H744 C750 0.930 . S
H745 C753 0.930 . S
H746 C754 0.930 . S
H747 C755 0.930 . S
H748 C758 0.930 . S
H749 C759 0.930 . S
C750 H744 0.930 . S
C750 C751 1.355 . S
C750 C752 1.415 . S
C751 C750 1.355 . S
C751 C753 1.419 . S
C752 C750 1.415 . S
C752 C757 1.425 . S
C752 C759 1.409 . S
C753 H745 0.930 . S
C753 C751 1.419 . S
C753 C754 1.362 . S
C754 H746 0.930 . S
C754 C753 1.362 . S
C754 C757 1.409 . S
C755 H747 0.930 . S
C755 C756 1.355 . S
C755 C757 1.415 . S
C756 C755 1.355 . S
C756 C758 1.419 . S
C757 C752 1.425 . S
C757 C754 1.409 . S
C757 C755 1.415 . S
C758 H748 0.930 . S
C758 C756 1.419 . S
C758 C759 1.362 . S
C759 H749 0.930 . S
C759 C752 1.409 . S
C759 C758 1.362 . S
H760 C766 0.930 . S
H761 C769 0.930 . S
H762 C770 0.930 . S
H763 C771 0.930 . S
H764 C774 0.930 . S
H765 C775 0.930 . S
C766 H760 0.930 . S
C766 C767 1.355 . S
C766 C768 1.415 . S
C767 C766 1.355 . S
C767 C769 1.419 . S
C768 C766 1.415 . S
C768 C773 1.425 . S
C768 C775 1.409 . S
C769 H761 0.930 . S
C769 C767 1.419 . S
C769 C770 1.362 . S
C770 H762 0.930 . S
C770 C769 1.362 . S
C770 C773 1.409 . S
C771 H763 0.930 . S
C771 C772 1.355 . S
C771 C773 1.415 . S
C772 C771 1.355 . S
C772 C774 1.419 . S
C773 C768 1.425 . S
C773 C770 1.409 . S
C773 C771 1.415 . S
C774 H764 0.930 . S
C774 C772 1.419 . S
C774 C775 1.362 . S
C775 H765 0.930 . S
C775 C768 1.409 . S
C775 C774 1.362 . S
H776 C782 0.930 . S
H777 C785 0.930 . S
H778 C786 0.930 . S
H779 C787 0.930 . S
H780 C790 0.930 . S
H781 C791 0.930 . S
C782 H776 0.930 . S
C782 C783 1.355 . S
C782 C784 1.415 . S
C783 C782 1.355 . S
C783 C785 1.419 . S
C784 C782 1.415 . S
C784 C789 1.425 . S
C784 C791 1.409 . S
C785 H777 0.930 . S
C785 C783 1.419 . S
C785 C786 1.362 . S
C786 H778 0.930 . S
C786 C785 1.362 . S
C786 C789 1.409 . S
C787 H779 0.930 . S
C787 C788 1.355 . S
C787 C789 1.415 . S
C788 C787 1.355 . S
C788 C790 1.419 . S
C789 C784 1.425 . S
C789 C786 1.409 . S
C789 C787 1.415 . S
C790 H780 0.930 . S
C790 C788 1.419 . S
C790 C791 1.362 . S
C791 H781 0.930 . S
C791 C784 1.409 . S
C791 C790 1.362 . S
C511 C494 1.445 . S
C516 C56 1.372 . S
C527 C74 1.447 . S
C532 C140 1.423 . S
C543 C158 1.439 . S
C548 C224 1.408 . S
C559 C242 1.456 . S
C564 C308 1.352 . S
C575 C392 1.379 . S
C580 C326 1.445 . S
C591 C476 1.373 . S
C596 C410 1.444 . S
C607 C58 1.427 . S
C612 C70 1.427 . S
C623 C142 1.355 . S
C628 C154 1.355 . S
C639 C226 1.361 . S
C644 C238 1.361 . S
C655 C310 1.415 . S
C660 C322 1.415 . S
C671 C406 1.377 . S
C676 C394 1.377 . S
C687 C478 1.366 . S
C692 C490 1.366 . S
C703 C67 1.366 . S
C708 C399 1.498 . S
C719 C151 1.449 . S
C724 C483 1.444 . S
C735 C63 1.453 . S
C740 C235 1.414 . S
C751 C147 1.453 . S
C756 C319 1.437 . S
C767 C403 1.454 . S
C772 C231 1.434 . S
C783 C315 1.436 . S
C788 C487 1.455 . S
