# Generated by pormake.
# Topology lcy-a, (4)-cn, num edge types: 1
# Building blocks:
#     Node 0, Type 0, BuildingBlock: QUQFOY_clean_sbu_1, # of connection points: 4
#     Node 1, Type 0, BuildingBlock: QUQFOY_clean_sbu_1, # of connection points: 4
#     Node 2, Type 0, BuildingBlock: QUQFOY_clean_sbu_1, # of connection points: 4
#     Node 3, Type 0, BuildingBlock: QUQFOY_clean_sbu_1, # of connection points: 4
#     Node 4, Type 0, BuildingBlock: QUQFOY_clean_sbu_1, # of connection points: 4
#     Node 5, Type 0, BuildingBlock: QUQFOY_clean_sbu_1, # of connection points: 4
#     Node 6, Type 0, BuildingBlock: QUQFOY_clean_sbu_1, # of connection points: 4
#     Node 7, Type 0, BuildingBlock: QUQFOY_clean_sbu_1, # of connection points: 4
#     Node 8, Type 0, BuildingBlock: QUQFOY_clean_sbu_1, # of connection points: 4
#     Node 9, Type 0, BuildingBlock: QUQFOY_clean_sbu_1, # of connection points: 4
#     Node 10, Type 0, BuildingBlock: QUQFOY_clean_sbu_1, # of connection points: 4
#     Node 11, Type 0, BuildingBlock: QUQFOY_clean_sbu_1, # of connection points: 4
#     Node 12, Type 0, BuildingBlock: QUQFOY_clean_sbu_1, # of connection points: 4
#     Node 13, Type 0, BuildingBlock: QUQFOY_clean_sbu_1, # of connection points: 4
#     Node 14, Type 0, BuildingBlock: QUQFOY_clean_sbu_1, # of connection points: 4
#     Node 15, Type 0, BuildingBlock: QUQFOY_clean_sbu_1, # of connection points: 4
#     Node 16, Type 0, BuildingBlock: QUQFOY_clean_sbu_1, # of connection points: 4
#     Node 17, Type 0, BuildingBlock: QUQFOY_clean_sbu_1, # of connection points: 4
#     Node 18, Type 0, BuildingBlock: QUQFOY_clean_sbu_1, # of connection points: 4
#     Node 19, Type 0, BuildingBlock: QUQFOY_clean_sbu_1, # of connection points: 4
#     Node 20, Type 0, BuildingBlock: QUQFOY_clean_sbu_1, # of connection points: 4
#     Node 21, Type 0, BuildingBlock: QUQFOY_clean_sbu_1, # of connection points: 4
#     Node 22, Type 0, BuildingBlock: QUQFOY_clean_sbu_1, # of connection points: 4
#     Node 23, Type 0, BuildingBlock: QUQFOY_clean_sbu_1, # of connection points: 4
#     Edge 24, Type (0, 0), BuildingBlock: OJICUG_clean_linker_0, # of connection points: 2
#     Edge 25, Type (0, 0), BuildingBlock: OJICUG_clean_linker_0, # of connection points: 2
#     Edge 26, Type (0, 0), BuildingBlock: OJICUG_clean_linker_0, # of connection points: 2
#     Edge 27, Type (0, 0), BuildingBlock: OJICUG_clean_linker_0, # of connection points: 2
#     Edge 28, Type (0, 0), BuildingBlock: OJICUG_clean_linker_0, # of connection points: 2
#     Edge 29, Type (0, 0), BuildingBlock: OJICUG_clean_linker_0, # of connection points: 2
#     Edge 30, Type (0, 0), BuildingBlock: OJICUG_clean_linker_0, # of connection points: 2
#     Edge 31, Type (0, 0), BuildingBlock: OJICUG_clean_linker_0, # of connection points: 2
#     Edge 32, Type (0, 0), BuildingBlock: OJICUG_clean_linker_0, # of connection points: 2
#     Edge 33, Type (0, 0), BuildingBlock: OJICUG_clean_linker_0, # of connection points: 2
#     Edge 34, Type (0, 0), BuildingBlock: OJICUG_clean_linker_0, # of connection points: 2
#     Edge 35, Type (0, 0), BuildingBlock: OJICUG_clean_linker_0, # of connection points: 2
#     Edge 36, Type (0, 0), BuildingBlock: OJICUG_clean_linker_0, # of connection points: 2
#     Edge 37, Type (0, 0), BuildingBlock: OJICUG_clean_linker_0, # of connection points: 2
#     Edge 38, Type (0, 0), BuildingBlock: OJICUG_clean_linker_0, # of connection points: 2
#     Edge 39, Type (0, 0), BuildingBlock: OJICUG_clean_linker_0, # of connection points: 2
#     Edge 40, Type (0, 0), BuildingBlock: OJICUG_clean_linker_0, # of connection points: 2
#     Edge 41, Type (0, 0), BuildingBlock: OJICUG_clean_linker_0, # of connection points: 2
#     Edge 42, Type (0, 0), BuildingBlock: OJICUG_clean_linker_0, # of connection points: 2
#     Edge 43, Type (0, 0), BuildingBlock: OJICUG_clean_linker_0, # of connection points: 2
#     Edge 44, Type (0, 0), BuildingBlock: OJICUG_clean_linker_0, # of connection points: 2
#     Edge 45, Type (0, 0), BuildingBlock: OJICUG_clean_linker_0, # of connection points: 2
#     Edge 46, Type (0, 0), BuildingBlock: OJICUG_clean_linker_0, # of connection points: 2
#     Edge 47, Type (0, 0), BuildingBlock: OJICUG_clean_linker_0, # of connection points: 2
#     Edge 48, Type (0, 0), BuildingBlock: OJICUG_clean_linker_0, # of connection points: 2
#     Edge 49, Type (0, 0), BuildingBlock: OJICUG_clean_linker_0, # of connection points: 2
#     Edge 50, Type (0, 0), BuildingBlock: OJICUG_clean_linker_0, # of connection points: 2
#     Edge 51, Type (0, 0), BuildingBlock: OJICUG_clean_linker_0, # of connection points: 2
#     Edge 52, Type (0, 0), BuildingBlock: OJICUG_clean_linker_0, # of connection points: 2
#     Edge 53, Type (0, 0), BuildingBlock: OJICUG_clean_linker_0, # of connection points: 2
#     Edge 54, Type (0, 0), BuildingBlock: OJICUG_clean_linker_0, # of connection points: 2
#     Edge 55, Type (0, 0), BuildingBlock: OJICUG_clean_linker_0, # of connection points: 2
#     Edge 56, Type (0, 0), BuildingBlock: OJICUG_clean_linker_0, # of connection points: 2
#     Edge 57, Type (0, 0), BuildingBlock: OJICUG_clean_linker_0, # of connection points: 2
#     Edge 58, Type (0, 0), BuildingBlock: OJICUG_clean_linker_0, # of connection points: 2
#     Edge 59, Type (0, 0), BuildingBlock: OJICUG_clean_linker_0, # of connection points: 2
#     Edge 60, Type (0, 0), BuildingBlock: OJICUG_clean_linker_0, # of connection points: 2
#     Edge 61, Type (0, 0), BuildingBlock: OJICUG_clean_linker_0, # of connection points: 2
#     Edge 62, Type (0, 0), BuildingBlock: OJICUG_clean_linker_0, # of connection points: 2
#     Edge 63, Type (0, 0), BuildingBlock: OJICUG_clean_linker_0, # of connection points: 2
#     Edge 64, Type (0, 0), BuildingBlock: OJICUG_clean_linker_0, # of connection points: 2
#     Edge 65, Type (0, 0), BuildingBlock: OJICUG_clean_linker_0, # of connection points: 2
#     Edge 66, Type (0, 0), BuildingBlock: OJICUG_clean_linker_0, # of connection points: 2
#     Edge 67, Type (0, 0), BuildingBlock: OJICUG_clean_linker_0, # of connection points: 2
#     Edge 68, Type (0, 0), BuildingBlock: OJICUG_clean_linker_0, # of connection points: 2
#     Edge 69, Type (0, 0), BuildingBlock: OJICUG_clean_linker_0, # of connection points: 2
#     Edge 70, Type (0, 0), BuildingBlock: OJICUG_clean_linker_0, # of connection points: 2
#     Edge 71, Type (0, 0), BuildingBlock: OJICUG_clean_linker_0, # of connection points: 2
# Relax obj value: 0.370
# Max RMSD: 0.181
# Mean RMSD: 0.181
data_MOF--net-lcy-a--node1-QUQFOY_clean_sbu_1--edge1-OJICUG_clean_linker_0
_symmetry_space_group_name_H-M    P1
_symmetry_Int_Tables_number       1
_symmetry_cell_setting            triclinic
loop_
_symmetry_equiv_pos_as_xyz
'x, y, z'
_cell_length_a     44.607562
_cell_length_b     44.460503
_cell_length_c     44.45892
_cell_angle_alpha  90.134829
_cell_angle_beta   89.900599
_cell_angle_gamma 89.893579
loop_
_atom_site_label
_atom_site_type_symbol
_atom_site_fract_x
_atom_site_fract_y
_atom_site_fract_z
_atom_type_partial_charge
O0 O 0.23655 0.20545 0.36182 0.0
Cd1 Cd 0.19545 0.22565 0.36585 0.0
Cd2 Cd 0.22873 0.27045 0.39654 0.0
O3 O 0.26048 0.2364 0.39225 0.0
O4 O 0.16541 0.19311 0.36522 0.0
O5 O 0.17326 0.22257 0.40484 0.0
C6 C 0.15943 0.19999 0.39283 0.0
C7 C 0.24304 0.31046 0.42832 0.0
C8 C 0.26025 0.21305 0.37561 0.0
C9 C 0.19712 0.28329 0.33544 0.0
O10 O 0.21339 0.29031 0.35774 0.0
O11 O 0.18562 0.25728 0.33368 0.0
O12 O 0.2575 0.30339 0.40442 0.0
O13 O 0.2209 0.29348 0.4359 0.0
O14 O 0.98686 0.94151 0.5939 0.0
Cd15 Cd 0.95395 0.91438 0.61137 0.0
Cd16 Cd 0.9292 0.96567 0.6347 0.0
O17 O 0.97162 0.97986 0.62165 0.0
O18 O 0.96964 0.8771 0.63021 0.0
O19 O 0.95156 0.91611 0.65602 0.0
C20 C 0.96442 0.89005 0.6558 0.0
C21 C 0.90494 0.99612 0.67057 0.0
C22 C 0.99052 0.96817 0.60354 0.0
C23 C 0.8968 0.93005 0.5847 0.0
O24 O 0.89913 0.9527 0.602 0.0
O25 O 0.91648 0.90943 0.585 0.0
O26 O 0.91099 0.00538 0.64392 0.0
O27 O 0.9137 0.96943 0.67774 0.0
O28 O 0.25191 0.78997 0.84753 0.0
Cd29 Cd 0.29377 0.77115 0.84857 0.0
Cd30 Cd 0.26513 0.72396 0.87953 0.0
O31 O 0.23145 0.75616 0.87732 0.0
O32 O 0.32315 0.80429 0.84952 0.0
O33 O 0.31661 0.77216 0.88717 0.0
C34 C 0.32972 0.79579 0.8765 0.0
C35 C 0.25265 0.68408 0.91218 0.0
C36 C 0.22944 0.78024 0.86205 0.0
C37 C 0.2939 0.71408 0.81639 0.0
O38 O 0.28 0.70519 0.83968 0.0
O39 O 0.30301 0.74103 0.8146 0.0
O40 O 0.23806 0.68981 0.8881 0.0
O41 O 0.27444 0.7018 0.91899 0.0
O42 O 0.49538 0.04955 0.08897 0.0
Cd43 Cd 0.52664 0.07853 0.10664 0.0
Cd44 Cd 0.55361 0.02838 0.12941 0.0
O45 O 0.51198 0.01189 0.11667 0.0
O46 O 0.50891 0.11474 0.12619 0.0
O47 O 0.52901 0.07648 0.15132 0.0
C48 C 0.51478 0.10181 0.15156 0.0
C49 C 0.58119 -0.00045 0.16383 0.0
C50 C 0.49284 0.0227 0.09837 0.0
C51 C 0.58424 0.06551 0.07949 0.0
O52 O 0.58254 0.04267 0.09645 0.0
O53 O 0.56395 0.08554 0.08014 0.0
O54 O 0.57437 0.98984 0.13752 0.0
O55 O 0.57074 0.02543 0.17181 0.0
O56 O 0.73892 0.27829 0.64427 0.0
Cd57 Cd 0.69702 0.2597 0.64515 0.0
Cd58 Cd 0.72391 0.21148 0.61571 0.0
O59 O 0.75897 0.24212 0.61681 0.0
O60 O 0.66753 0.29276 0.64305 0.0
O61 O 0.67336 0.25842 0.60708 0.0
C62 C 0.66038 0.28265 0.61675 0.0
C63 C 0.73243 0.17103 0.58238 0.0
C64 C 0.76131 0.26715 0.63054 0.0
C65 C 0.69697 0.20427 0.67969 0.0
O66 O 0.70975 0.19403 0.65626 0.0
O67 O 0.68861 0.23154 0.68079 0.0
O68 O 0.7483 0.17551 0.60593 0.0
O69 O 0.71173 0.19037 0.57645 0.0
O70 O -0.00057 0.45342 0.8922 0.0
Cd71 Cd 0.03199 0.42652 0.87322 0.0
Cd72 Cd 0.05421 0.47776 0.84906 0.0
O73 O 0.01199 0.49165 0.86327 0.0
O74 O 0.01635 0.38831 0.85644 0.0
O75 O 0.03199 0.4267 0.82844 0.0
C76 C 0.02014 0.40026 0.8302 0.0
C77 C 0.07837 0.50792 0.81323 0.0
C78 C 0.99451 0.47988 0.88263 0.0
C79 C 0.08959 0.44348 0.89761 0.0
O80 O 0.08547 0.46627 0.88099 0.0
O81 O 0.07084 0.42208 0.89759 0.0
O82 O 0.07139 0.51765 0.83952 0.0
O83 O 0.06993 0.48111 0.8061 0.0
O84 O 0.75332 0.71245 0.13797 0.0
Cd85 Cd 0.79497 0.73163 0.136 0.0
Cd86 Cd 0.76401 0.77885 0.10609 0.0
O87 O 0.73112 0.7459 0.10894 0.0
O88 O 0.82458 0.69844 0.13479 0.0
O89 O 0.81746 0.73021 0.097 0.0
C90 C 0.83077 0.70663 0.10762 0.0
C91 C 0.75077 0.81926 0.0743 0.0
C92 C 0.73021 0.72172 0.12419 0.0
C93 C 0.79439 0.78863 0.16846 0.0
O94 O 0.77959 0.79726 0.14568 0.0
O95 O 0.80428 0.76188 0.16991 0.0
O96 O 0.73637 0.81297 0.09841 0.0
O97 O 0.77257 0.80167 0.06685 0.0
O98 O 0.49665 0.53095 0.40197 0.0
Cd99 Cd 0.46845 0.5633 0.38575 0.0
Cd100 Cd 0.43855 0.51652 0.35958 0.0
O101 O 0.47882 0.49616 0.37161 0.0
O102 O 0.49298 0.5985 0.37528 0.0
O103 O 0.46879 0.57059 0.34147 0.0
C104 C 0.4872 0.59225 0.34746 0.0
C105 C 0.40985 0.48827 0.32514 0.0
C106 C 0.498 0.50465 0.391 0.0
C107 C 0.41025 0.55386 0.41168 0.0
O108 O 0.41049 0.53187 0.39337 0.0
O109 O 0.43185 0.57237 0.41221 0.0
O110 O 0.41592 0.47896 0.3517 0.0
O111 O 0.42102 0.51375 0.31709 0.0
O112 O 0.38516 0.20728 0.23643 0.0
Cd113 Cd 0.40166 0.17469 0.2645 0.0
Cd114 Cd 0.42318 0.22153 0.29665 0.0
O115 O 0.41644 0.24088 0.25472 0.0
O116 O 0.4146 0.13933 0.24073 0.0
O117 O 0.44618 0.17121 0.26286 0.0
C118 C 0.44173 0.14841 0.2453 0.0
C119 C 0.45295 0.24961 0.33006 0.0
C120 C 0.39724 0.23308 0.23505 0.0
C121 C 0.37046 0.18386 0.32055 0.0
O122 O 0.38615 0.20763 0.32059 0.0
O123 O 0.37471 0.16392 0.30052 0.0
O124 O 0.42842 0.25971 0.31898 0.0
O125 O 0.46209 0.22362 0.32092 0.0
O126 O -0.00034 0.09702 0.46458 0.0
Cd127 Cd 0.04154 0.09648 0.48323 0.0
Cd128 Cd 0.01466 0.12627 0.53109 0.0
O129 O 0.97954 0.12473 0.50051 0.0
O130 O 0.0712 0.09887 0.45035 0.0
O131 O 0.06479 0.13479 0.48465 0.0
C132 C 0.07803 0.12524 0.46051 0.0
C133 C 0.00616 0.16004 0.57117 0.0
C134 C 0.97723 0.11076 0.47561 0.0
C135 C 0.04179 0.06246 0.53896 0.0
O136 O 0.02896 0.08596 0.54898 0.0
O137 O 0.05008 0.0611 0.51168 0.0
O138 O 0.99032 0.13641 0.56699 0.0
O139 O 0.0268 0.16579 0.55171 0.0
O140 O 0.09746 0.78423 0.73022 0.0
Cd141 Cd 0.08082 0.81458 0.76086 0.0
Cd142 Cd 0.06277 0.766 0.79159 0.0
O143 O 0.06901 0.74833 0.74871 0.0
O144 O 0.06599 0.85068 0.73984 0.0
O145 O 0.03622 0.8168 0.76149 0.0
C146 C 0.03932 0.84069 0.74522 0.0
C147 C 0.03324 0.73669 0.82416 0.0
C148 C 0.08671 0.75787 0.72838 0.0
C149 C 0.11479 0.80468 0.81502 0.0
O150 O 0.10012 0.78024 0.81493 0.0
O151 O 0.1088 0.82501 0.79597 0.0
O152 O 0.05798 0.72718 0.81285 0.0
O153 O 0.02396 0.7629 0.81598 0.0
O154 O 0.48724 0.89806 0.95349 0.0
Cd155 Cd 0.44554 0.89663 0.97264 0.0
Cd156 Cd 0.47439 0.86507 0.01909 0.0
O157 O 0.50789 0.86777 0.98674 0.0
O158 O 0.41576 0.89547 0.93987 0.0
O159 O 0.42315 0.85778 0.97178 0.0
C160 C 0.40961 0.86839 0.94835 0.0
C161 C 0.48708 0.83174 0.05835 0.0
C162 C 0.50977 0.88339 0.96288 0.0
C163 C 0.44568 0.92803 0.03009 0.0
O164 O 0.45963 0.90462 0.03857 0.0
O165 O 0.43641 0.9302 0.00322 0.0
O166 O 0.50165 0.85591 0.05294 0.0
O167 O 0.46517 0.82525 0.04063 0.0
O168 O 0.89558 0.27942 0.75984 0.0
Cd169 Cd 0.90982 0.31031 0.72869 0.0
Cd170 Cd 0.93155 0.26244 0.69899 0.0
O171 O 0.92702 0.24554 0.74217 0.0
O172 O 0.92085 0.34819 0.74903 0.0
O173 O 0.95399 0.31677 0.72829 0.0
C174 C 0.94841 0.34072 0.74394 0.0
C175 C 0.96315 0.23362 0.6678 0.0
C176 C 0.90839 0.25401 0.76217 0.0
C177 C 0.87648 0.29611 0.67496 0.0
O178 O 0.89289 0.27274 0.67559 0.0
O179 O 0.88127 0.31749 0.69327 0.0
O180 O 0.9391 0.22309 0.67951 0.0
O181 O 0.97039 0.26089 0.67441 0.0
O182 O 0.9866 0.60166 0.02952 0.0
Cd183 Cd 0.94506 0.60394 0.01015 0.0
Cd184 Cd 0.97594 0.63437 0.96357 0.0
O185 O 0.00884 0.6311 -0.00353 0.0
O186 O 0.91514 0.60552 0.04303 0.0
O187 O 0.92302 0.6432 0.01129 0.0
C188 C 0.90935 0.63275 0.03473 0.0
C189 C 0.98895 0.66688 0.92369 0.0
C190 C 0.00973 0.61554 0.02046 0.0
C191 C 0.94575 0.57209 0.95287 0.0
O192 O 0.96052 0.595 0.94455 0.0
O193 O 0.9358 0.57032 0.97957 0.0
O194 O 0.00349 0.64274 0.92956 0.0
O195 O 0.96715 0.67393 0.94143 0.0
O196 O 0.59556 0.72177 0.25301 0.0
Cd197 Cd 0.58353 0.68529 0.22769 0.0
Cd198 Cd 0.56039 0.73112 0.19041 0.0
O199 O 0.56455 0.75338 0.23121 0.0
O200 O 0.58435 0.65276 0.25772 0.0
O201 O 0.54279 0.66748 0.2346 0.0
C202 C 0.5556 0.65133 0.25505 0.0
C203 C 0.53235 0.75947 0.1556 0.0
C204 C 0.58284 0.74726 0.25221 0.0
C205 C 0.61629 0.69327 0.17203 0.0
O206 O 0.59892 0.71579 0.16932 0.0
O207 O 0.61257 0.67475 0.19341 0.0
O208 O 0.55729 0.76851 0.16655 0.0
O209 O 0.5223 0.7339 0.16469 0.0
O210 O 0.50226 0.38306 0.53731 0.0
Cd211 Cd 0.5433 0.37854 0.51709 0.0
Cd212 Cd 0.51004 0.3474 0.47283 0.0
O213 O 0.47825 0.35229 0.50676 0.0
O214 O 0.57352 0.37884 0.54946 0.0
O215 O 0.56496 0.33926 0.52013 0.0
C216 C 0.57909 0.35113 0.5426 0.0
C217 C 0.49575 0.31505 0.43329 0.0
C218 C 0.47852 0.36926 0.52988 0.0
C219 C 0.54182 0.4082 0.4591 0.0
O220 O 0.52549 0.38585 0.45239 0.0
O221 O 0.55329 0.4103 0.48511 0.0
O222 O 0.48131 0.33907 0.43997 0.0
O223 O 0.51784 0.30768 0.45043 0.0
O224 O 0.2425 0.33842 0.21184 0.0
Cd225 Cd 0.2708 0.35401 0.17927 0.0
Cd226 Cd 0.30076 0.38084 0.22567 0.0
O227 O 0.26045 0.36922 0.24618 0.0
O228 O 0.24641 0.36409 0.14385 0.0
O229 O 0.27067 0.39817 0.17136 0.0
C230 C 0.2523 0.39197 0.14972 0.0
C231 C 0.32953 0.41563 0.25343 0.0
C232 C 0.24119 0.34979 0.23798 0.0
C233 C 0.32893 0.32808 0.18918 0.0
O234 O 0.32874 0.34676 0.21085 0.0
O235 O 0.30732 0.32729 0.17069 0.0
O236 O 0.32338 0.38922 0.26312 0.0
O237 O 0.31839 0.42332 0.22783 0.0
O238 O 0.75221 0.15096 0.80123 0.0
Cd239 Cd 0.78515 0.13392 0.82859 0.0
Cd240 Cd 0.80998 0.11003 0.77759 0.0
O241 O 0.76752 0.12277 0.76324 0.0
O242 O 0.76947 0.11545 0.86606 0.0
O243 O 0.78765 0.08927 0.82735 0.0
C244 C 0.77474 0.08974 0.85338 0.0
C245 C 0.83437 0.07388 0.74754 0.0
C246 C 0.74858 0.14097 0.7747 0.0
C247 C 0.84223 0.16054 0.81262 0.0
O248 O 0.83994 0.14297 0.79019 0.0
O249 O 0.82254 0.16045 0.83325 0.0
O250 O 0.82824 0.10041 0.73799 0.0
O251 O 0.82561 0.06699 0.77432 0.0
O252 O 0.14512 0.48691 0.01867 0.0
Cd253 Cd 0.15674 0.51177 0.0556 0.0
Cd254 Cd 0.17984 0.54998 0.01038 0.0
O255 O 0.17588 0.50954 0.98741 0.0
O256 O 0.15572 0.48128 0.08769 0.0
O257 O 0.19732 0.50479 0.07379 0.0
C258 C 0.18442 0.48409 0.08954 0.0
C259 C 0.20782 0.58537 0.98268 0.0
C260 C 0.1578 0.48827 0.99319 0.0
C261 C 0.12372 0.56744 0.04832 0.0
O262 O 0.14119 0.57066 0.02595 0.0
O263 O 0.12742 0.54572 0.06644 0.0
O264 O 0.18294 0.57446 0.9734 0.0
O265 O 0.21784 0.57589 0.00813 0.0
O266 O 0.74138 0.84788 0.28815 0.0
Cd267 Cd 0.70885 0.86637 0.31542 0.0
Cd268 Cd 0.68639 0.89124 0.26461 0.0
O269 O 0.72854 0.87722 0.25032 0.0
O270 O 0.72449 0.88274 0.35383 0.0
O271 O 0.70863 0.91114 0.31582 0.0
C272 C 0.72051 0.9091 0.34223 0.0
C273 C 0.66208 0.92758 0.2352 0.0
C274 C 0.74613 0.85777 0.26177 0.0
C275 C 0.65123 0.84213 0.29827 0.0
O276 O 0.65521 0.85912 0.27574 0.0
O277 O 0.67008 0.84181 0.31959 0.0
O278 O 0.66901 0.90146 0.22498 0.0
O279 O 0.67067 0.93425 0.26208 0.0
O280 O 0.35375 0.50886 0.5332 0.0
Cd281 Cd 0.33734 0.48139 0.56634 0.0
Cd282 Cd 0.31569 0.44837 0.51999 0.0
O283 O 0.32253 0.48992 0.49989 0.0
O284 O 0.32501 0.5058 0.60147 0.0
O285 O 0.29288 0.48336 0.57037 0.0
C286 C 0.29773 0.5012 0.59287 0.0
C287 C 0.28595 0.41453 0.49236 0.0
C288 C 0.34172 0.50974 0.50735 0.0
C289 C 0.36843 0.42508 0.55808 0.0
O290 O 0.35265 0.4246 0.53436 0.0
O291 O 0.36429 0.44552 0.57762 0.0
O292 O 0.31054 0.4254 0.48217 0.0
O293 O 0.27674 0.42412 0.51816 0.0
O294 O 0.24465 0.65676 0.69391 0.0
Cd295 Cd 0.21346 0.63949 0.66461 0.0
Cd296 Cd 0.18641 0.61595 0.71438 0.0
O297 O 0.22796 0.62858 0.73116 0.0
O298 O 0.23124 0.62044 0.62815 0.0
O299 O 0.21108 0.5948 0.66604 0.0
C300 C 0.22533 0.5949 0.64072 0.0
C301 C 0.1589 0.58095 0.74256 0.0
C302 C 0.24711 0.64703 0.72065 0.0
C303 C 0.15577 0.66635 0.67791 0.0
O304 O 0.15743 0.64904 0.70049 0.0
O305 O 0.17613 0.66606 0.65795 0.0
O306 O 0.16557 0.60713 0.75271 0.0
O307 O 0.16947 0.57343 0.71658 0.0
O308 O 0.64221 0.01505 0.96062 0.0
Cd309 Cd 0.65854 0.98483 0.92969 0.0
Cd310 Cd 0.67664 0.95315 0.9777 0.0
O311 O 0.67053 0.99571 0.99617 0.0
O312 O 0.67312 0.00636 0.8938 0.0
O313 O 0.70313 0.98407 0.92706 0.0
C314 C 0.69986 0.00069 0.90344 0.0
C315 C 0.70618 0.91998 0.00635 0.0
C316 C 0.65296 0.01633 0.98701 0.0
C317 C 0.62439 0.93062 0.93878 0.0
O318 O 0.6392 0.93016 0.96314 0.0
O319 O 0.63032 0.95006 0.91881 0.0
O320 O 0.68148 0.93116 0.01611 0.0
O321 O 0.71541 0.92862 0.98027 0.0
O322 O 0.84314 0.98107 0.4652 0.0
Cd323 Cd 0.82895 0.0117 0.43378 0.0
Cd324 Cd 0.80707 0.04213 0.48128 0.0
O325 O 0.81169 -0.00079 0.49881 0.0
O326 O 0.81864 0.9907 0.39605 0.0
O327 O 0.78486 0.01161 0.42666 0.0
C328 C 0.79093 0.9957 0.40301 0.0
C329 C 0.77549 0.07365 0.50981 0.0
C330 C 0.83035 0.97911 0.49065 0.0
C331 C 0.86213 0.06574 0.44729 0.0
O332 O 0.84568 0.06545 0.47063 0.0
O333 O 0.85742 0.04709 0.42619 0.0
O334 O 0.7996 0.06211 0.52041 0.0
O335 O 0.76819 0.06668 0.48264 0.0
C336 C 0.10943 0.17186 0.45587 0.0
C337 C 0.09937 0.14439 0.44388 0.0
H338 H 0.13647 0.21114 0.44911 0.0
C339 C 0.109 0.13567 0.41506 0.0
H340 H 0.1023 0.1792 0.478 0.0
C341 C 0.12811 0.15403 0.39847 0.0
C342 C 0.1383 0.18143 0.41038 0.0
H343 H 0.10154 0.11474 0.40508 0.0
H344 H 0.13508 0.14653 0.37633 0.0
C345 C 0.12889 0.19016 0.43931 0.0
C346 C 0.97867 0.84624 0.68767 0.0
C347 C 0.97707 0.87747 0.68355 0.0
H348 H -0.00104 0.81006 0.71209 0.0
C349 C 0.99209 0.8966 0.70368 0.0
H350 H 0.96734 0.83113 0.67231 0.0
C351 C 0.01091 0.88459 0.72568 0.0
C352 C 0.01392 0.85335 0.72861 0.0
H353 H 0.9914 0.92078 0.70072 0.0
H354 H 0.02439 0.89964 0.73926 0.0
C355 C -0.00344 0.83426 0.71048 0.0
C356 C 0.36006 0.84205 0.88481 0.0
C357 C 0.3506 0.81374 0.89499 0.0
H358 H 0.38564 0.88156 0.89382 0.0
C359 C 0.36038 0.80353 0.92324 0.0
H360 H 0.3528 0.85069 0.86325 0.0
C361 C 0.37943 0.82131 0.94084 0.0
C362 C 0.38872 0.84971 0.93061 0.0
H363 H 0.35337 0.78183 0.93171 0.0
H364 H 0.38683 0.81284 0.96241 0.0
C365 C 0.37876 0.85988 0.90246 0.0
C366 C 0.48712 0.09381 0.19935 0.0
C367 C 0.50182 0.11358 0.17965 0.0
H368 H 0.45576 0.08958 0.23577 0.0
C369 C 0.50017 0.14466 0.18487 0.0
H370 H 0.48784 0.06974 0.19551 0.0
C371 C 0.48286 0.15588 0.20864 0.0
C372 C 0.46609 0.13619 0.22667 0.0
H373 H 0.51123 0.16027 0.16984 0.0
H374 H 0.48062 0.18001 0.21132 0.0
C375 C 0.46883 0.10508 0.22233 0.0
C376 C 0.62863 0.28758 0.57039 0.0
C377 C 0.63899 0.29945 0.5978 0.0
H378 H 0.6014 0.29463 0.53129 0.0
C379 C 0.62966 0.32834 0.60661 0.0
H380 H 0.63552 0.26539 0.56298 0.0
C381 C 0.61059 0.34513 0.5884 0.0
C382 C 0.60011 0.33334 0.56104 0.0
H383 H 0.63735 0.33823 0.6275 0.0
H384 H 0.60387 0.36732 0.59595 0.0
C385 C 0.60919 0.30433 0.55223 0.0
C386 C 0.99214 0.33984 0.77806 0.0
C387 C 0.9724 0.35648 0.76001 0.0
H388 H 0.02261 0.34091 0.81535 0.0
C389 C 0.97198 0.38794 0.76227 0.0
H390 H 0.99242 0.31549 0.77696 0.0
C391 C 0.98998 0.40249 0.78346 0.0
C392 C 0.0076 0.38562 0.80342 0.0
H393 H 0.95664 0.4011 0.74875 0.0
H394 H 0.9882 0.42668 0.78588 0.0
C395 C 0.00923 0.35429 0.80007 0.0
C396 C 0.86091 0.69836 0.06044 0.0
C397 C 0.85135 0.68838 0.08886 0.0
H398 H 0.88687 0.6886 0.02089 0.0
C399 C 0.86069 0.65996 0.09897 0.0
H400 H 0.854 0.72012 0.052 0.0
C401 C 0.87903 0.64183 0.08107 0.0
C402 C 0.88878 0.65177 0.05274 0.0
H403 H 0.85359 0.65148 0.12065 0.0
H404 H 0.88581 0.62009 0.08967 0.0
C405 C 0.87963 0.68028 0.0426 0.0
C406 C 0.50867 0.62472 0.27159 0.0
C407 C 0.53793 0.63475 0.27756 0.0
H408 H 0.46951 0.6027 0.28919 0.0
C409 C 0.5499 0.63092 0.30647 0.0
H410 H 0.4989 0.62763 0.2495 0.0
C411 C 0.53291 0.61784 0.32917 0.0
C412 C 0.5038 0.60754 0.32331 0.0
H413 H 0.57224 0.63878 0.31187 0.0
H414 H 0.54282 0.61532 0.35126 0.0
C415 C 0.49188 0.61067 0.29424 0.0
C416 C 0.20699 0.40999 0.1232 0.0
C417 C 0.23588 0.41598 0.13401 0.0
H418 H 0.16792 0.42712 0.10162 0.0
C419 C 0.24774 0.4451 0.13103 0.0
H420 H 0.19712 0.38786 0.12557 0.0
C421 C 0.23107 0.46767 0.11671 0.0
C422 C 0.202 0.46158 0.10623 0.0
H423 H 0.26994 0.45026 0.13938 0.0
H424 H 0.24077 0.48982 0.114 0.0
C425 C 0.19011 0.43261 0.10983 0.0
C426 C 0.74253 0.03556 0.90962 0.0
C427 C 0.72523 0.01725 0.89066 0.0
H428 H 0.77173 0.07377 0.91247 0.0
C429 C 0.72825 0.01991 0.8594 0.0
H430 H 0.7401 0.03414 0.93384 0.0
C431 C 0.74709 0.04181 0.84723 0.0
C432 C 0.76208 0.0621 0.8662 0.0
H433 H 0.7148 0.00619 0.84445 0.0
H434 H 0.7478 0.04455 0.82302 0.0
C435 C 0.76043 0.05827 0.89746 0.0
C436 C 0.75027 0.95614 0.34066 0.0
C437 C 0.73282 0.93579 0.35724 0.0
H438 H 0.78314 0.99127 0.34256 0.0
C439 C 0.73105 0.93877 0.3886 0.0
H440 H 0.75215 0.954 0.31644 0.0
C441 C 0.74778 0.96085 0.40335 0.0
C442 C 0.76732 0.97936 0.38698 0.0
H443 H 0.71779 0.92319 0.40176 0.0
H444 H 0.74739 0.96171 0.42771 0.0
C445 C 0.76792 0.9774 0.35551 0.0
C446 C 0.23988 0.56216 0.59741 0.0
C447 C 0.23823 0.56695 0.62855 0.0
H448 H 0.25924 0.53603 0.56171 0.0
C449 C 0.2528 0.54688 0.64806 0.0
H450 H 0.22892 0.57748 0.582 0.0
C451 C 0.27092 0.52392 0.63649 0.0
C452 C 0.27362 0.51997 0.60532 0.0
H453 H 0.25208 0.55037 0.67218 0.0
H454 H 0.28388 0.51015 0.6518 0.0
C455 C 0.25702 0.53842 0.58588 0.0
C456 C 0.2803 0.38424 0.44597 0.0
C457 C 0.27103 0.39006 0.47558 0.0
H458 H 0.27889 0.3548 0.40828 0.0
C459 C 0.25054 0.37034 0.48935 0.0
H460 H 0.29583 0.39907 0.43456 0.0
C461 C 0.24065 0.34448 0.47403 0.0
C462 C 0.25134 0.33807 0.44492 0.0
H463 H 0.24313 0.37423 0.51224 0.0
H464 H 0.22547 0.32915 0.48523 0.0
C465 C 0.27069 0.35863 0.43093 0.0
C466 C 0.87844 0.04414 0.68142 0.0
C467 C 0.88741 0.01551 0.69123 0.0
H468 H 0.85463 0.08451 0.69119 0.0
C469 C 0.87847 0.00574 0.71996 0.0
H470 H 0.88479 0.05242 0.65942 0.0
C471 C 0.86086 0.02442 0.73844 0.0
C472 C 0.85194 0.05305 0.72839 0.0
H473 H 0.88494 0.98372 0.72806 0.0
H474 H 0.85436 0.01652 0.76053 0.0
C475 C 0.86096 0.06258 0.69968 0.0
C476 C 0.25453 0.65318 0.95994 0.0
C477 C 0.24421 0.65761 0.93039 0.0
H478 H 0.25114 0.62637 0.00012 0.0
C479 C 0.2244 0.63658 0.91781 0.0
H480 H 0.26998 0.66897 0.9701 0.0
C481 C 0.21394 0.61253 0.93464 0.0
C482 C 0.22291 0.60873 0.96461 0.0
H483 H 0.21639 0.6389 0.89494 0.0
H484 H 0.19813 0.59726 0.92423 0.0
C485 C 0.24389 0.62881 0.97702 0.0
C486 C 0.61432 0.95528 0.17124 0.0
C487 C 0.60185 0.98189 0.1829 0.0
H488 H 0.64338 0.91798 0.1782 0.0
C489 C 0.61042 0.99155 0.21179 0.0
H490 H 0.60852 0.94727 0.14898 0.0
C491 C 0.63076 0.97449 0.2288 0.0
C492 C 0.64286 0.94767 0.21705 0.0
H493 H 0.60135 0.01212 0.22124 0.0
H494 H 0.63661 0.98201 0.25122 0.0
C495 C 0.63457 0.9385 0.18801 0.0
C496 C 0.73138 0.14301 0.53286 0.0
C497 C 0.73839 0.1442 0.56367 0.0
H498 H 0.73765 0.11915 0.4911 0.0
C499 C 0.75358 0.1199 0.57682 0.0
H500 H 0.71952 0.16141 0.52225 0.0
C501 C 0.76358 0.09599 0.55933 0.0
C502 C 0.75878 0.09572 0.52818 0.0
H503 H 0.75874 0.11982 0.60063 0.0
H504 H 0.77635 0.07829 0.57013 0.0
C505 C 0.74161 0.11883 0.51513 0.0
C506 C 0.12997 0.53269 0.74973 0.0
C507 C 0.13831 0.56148 0.75985 0.0
H508 H 0.10404 0.49292 0.7586 0.0
C509 C 0.12569 0.57264 0.7866 0.0
H510 H 0.13915 0.52361 0.72904 0.0
C511 C 0.10554 0.55548 0.80308 0.0
C512 C 0.09747 0.52652 0.79345 0.0
H513 H 0.13132 0.59482 0.79497 0.0
H514 H 0.09662 0.56491 0.82373 0.0
C515 C 0.10971 0.51527 0.76647 0.0
C516 C 0.74227 0.87639 0.01108 0.0
C517 C 0.72145 0.89641 0.02407 0.0
H518 H 0.76806 0.83578 0.01679 0.0
C519 C 0.71246 0.8919 0.05397 0.0
H520 H 0.74951 0.87929 0.98801 0.0
C521 C 0.72269 0.86721 0.07009 0.0
C522 C 0.74233 0.84628 0.05687 0.0
H523 H 0.69669 0.90702 0.0648 0.0
H524 H 0.71465 0.86431 0.09291 0.0
C525 C 0.75272 0.85144 0.02744 0.0
C526 C 0.3597 0.46329 0.26039 0.0
C527 C 0.3496 0.43533 0.27115 0.0
H528 H 0.38709 0.5022 0.26895 0.0
C529 C 0.35982 0.42519 0.29921 0.0
H530 H 0.35231 0.47161 0.23875 0.0
C531 C 0.3796 0.44235 0.31614 0.0
C532 C 0.38981 0.47028 0.30565 0.0
H533 H 0.35264 0.40377 0.30825 0.0
H534 H 0.38679 0.43359 0.33768 0.0
C535 C 0.37971 0.48067 0.27755 0.0
C536 C 0.46829 0.31183 0.38505 0.0
C537 C 0.4875 0.29807 0.4059 0.0
H538 H 0.44327 0.30768 0.34457 0.0
C539 C 0.4981 0.26882 0.39997 0.0
H540 H 0.46017 0.33456 0.3885 0.0
C541 C 0.48824 0.25316 0.37431 0.0
C542 C 0.46788 0.2667 0.35431 0.0
H543 H 0.51318 0.25781 0.41553 0.0
H544 H 0.49557 0.23018 0.3708 0.0
C545 C 0.45871 0.29644 0.35963 0.0
C546 C 0.00716 0.20987 0.59861 0.0
C547 C 0.00023 0.17904 0.5978 0.0
H548 H 0.00083 0.25189 0.622 0.0
C549 C 0.98515 0.16613 0.62229 0.0
H550 H 0.01893 0.2203 0.58005 0.0
C551 C 0.97516 0.18386 0.64603 0.0
C552 C 0.97988 0.21503 0.64592 0.0
H553 H 0.98005 0.14231 0.62267 0.0
H554 H 0.96247 0.17324 0.66388 0.0
C555 C -0.00306 0.22786 0.62261 0.0
C556 C 0.01681 0.67195 0.87569 0.0
C557 C -0.00274 0.68479 0.89694 0.0
H558 H 0.04268 0.67797 0.83591 0.0
C559 C 0.98685 0.71431 0.89236 0.0
H560 H 0.02485 0.64907 0.87814 0.0
C561 C -0.00278 0.73113 0.8677 0.0
C562 C 0.01799 0.71851 0.84738 0.0
H563 H 0.97158 0.72467 0.90828 0.0
H564 H 0.98999 0.75426 0.86526 0.0
C565 C 0.02696 0.68852 0.85129 0.0
C566 C 0.496 0.76599 0.11249 0.0
C567 C 0.5172 0.77797 0.13261 0.0
H568 H 0.46963 0.77366 0.07266 0.0
C569 C 0.52629 0.80796 0.12919 0.0
H570 H 0.48865 0.74289 0.11463 0.0
C571 C 0.51572 0.82521 0.1055 0.0
C572 C 0.49567 0.81307 0.08443 0.0
H573 H 0.54227 0.81805 0.1445 0.0
H574 H 0.52382 0.84807 0.10347 0.0
C575 C 0.48525 0.7835 0.08848 0.0
C576 C 0.19572 0.29215 0.27995 0.0
C577 C 0.19751 0.30375 0.3093 0.0
H578 H 0.20809 0.29803 0.23382 0.0
C579 C 0.20701 0.33362 0.31342 0.0
H580 H 0.18837 0.26927 0.27605 0.0
C581 C 0.21857 0.34999 0.28935 0.0
C582 C 0.22066 0.33684 0.26069 0.0
H583 H 0.20815 0.34338 0.33575 0.0
H584 H 0.22811 0.37195 0.29376 0.0
C585 C 0.20722 0.30863 0.25576 0.0
C586 C 0.86637 0.93897 0.50714 0.0
C587 C 0.84132 0.9573 0.51328 0.0
H588 H 0.9036 0.91478 0.52569 0.0
C589 C 0.83054 0.95898 0.54298 0.0
H590 H 0.87503 0.93688 0.48446 0.0
C591 C 0.84699 0.94649 0.5665 0.0
C592 C 0.87419 0.93166 0.56068 0.0
H593 H 0.811 0.97242 0.54851 0.0
H594 H 0.83992 0.95088 0.58943 0.0
C595 C 0.88265 0.92608 0.53075 0.0
C596 C 0.2796 0.6901 0.73673 0.0
C597 C 0.26884 0.66079 0.74168 0.0
H598 H 0.2968 0.73033 0.75696 0.0
C599 C 0.27425 0.64711 0.76958 0.0
H600 H 0.27598 0.70118 0.71537 0.0
C601 C 0.28636 0.66369 0.79327 0.0
C602 C 0.29312 0.69434 0.78956 0.0
H603 H 0.26678 0.62435 0.77391 0.0
H604 H 0.28774 0.65327 0.81524 0.0
C605 C 0.29166 0.70681 0.76057 0.0
C606 C 0.63481 0.05099 0.06186 0.0
C607 C 0.60713 0.06465 0.05561 0.0
H608 H 0.67166 0.02551 0.04468 0.0
C609 C 0.59863 0.06888 0.02553 0.0
H610 H 0.64191 0.04761 0.08491 0.0
C611 C 0.61548 0.05574 0.00233 0.0
C612 C 0.64105 0.0384 0.00905 0.0
H613 H 0.57728 0.07919 0.02016 0.0
H614 H 0.60686 0.05674 0.9796 0.0
C615 C 0.65173 0.03812 0.03877 0.0
C616 C 0.70202 0.19953 0.73552 0.0
C617 C 0.69857 0.18575 0.70724 0.0
H618 H 0.72061 0.19571 0.77978 0.0
C619 C 0.70453 0.15481 0.70445 0.0
H620 H 0.69751 0.22331 0.73841 0.0
C621 C 0.71798 0.13913 0.72797 0.0
C622 C 0.72545 0.15403 0.7548 0.0
H623 H 0.70163 0.14342 0.68308 0.0
H624 H 0.72491 0.11606 0.72415 0.0
C625 C 0.71538 0.18371 0.75922 0.0
C626 C 0.12461 0.44716 0.9738 0.0
C627 C 0.14713 0.46868 0.96848 0.0
H628 H 0.08876 0.42136 0.95482 0.0
C629 C 0.15527 0.47512 0.93865 0.0
H630 H 0.11813 0.44133 -0.00346 0.0
C631 C 0.1384 0.46372 0.91485 0.0
C632 C 0.11338 0.44542 0.92046 0.0
H633 H 0.17282 0.49118 0.93369 0.0
H634 H 0.1433 0.4714 0.89225 0.0
C635 C 0.10789 0.4355 0.94989 0.0
C636 C 0.77598 0.85651 0.21435 0.0
C637 C 0.76856 0.84311 0.24194 0.0
H638 H 0.79131 0.8496 0.16931 0.0
C639 C 0.77789 0.81336 0.24737 0.0
H640 H 0.76965 0.87956 0.20966 0.0
C641 C 0.79047 0.79609 0.22411 0.0
C642 C 0.79382 0.80844 0.19523 0.0
H643 H 0.77271 0.80246 0.26851 0.0
H644 H 0.79436 0.77234 0.22788 0.0
C645 C 0.78854 0.83935 0.19123 0.0
C646 C 0.37939 0.54767 0.4896 0.0
C647 C 0.35379 0.53008 0.48394 0.0
H648 H 0.41741 0.57008 0.47049 0.0
C649 C 0.34311 0.52792 0.45428 0.0
H650 H 0.38799 0.55014 0.51224 0.0
C651 C 0.35998 0.53929 0.43046 0.0
C652 C 0.38763 0.55333 0.43588 0.0
H653 H 0.32316 0.51506 0.44912 0.0
H654 H 0.35276 0.53465 0.40766 0.0
C655 C 0.39617 0.55933 0.46568 0.0
C656 C 0.316 0.20919 0.37966 0.0
C657 C 0.28899 0.19805 0.36793 0.0
H658 H 0.36345 0.21273 0.37402 0.0
C659 C 0.2902 0.17621 0.34494 0.0
H660 H 0.31599 0.22563 0.39769 0.0
C661 C 0.31758 0.16865 0.33143 0.0
C662 C 0.34407 0.18291 0.34067 0.0
H663 H 0.26982 0.16684 0.33563 0.0
H664 H 0.31752 0.15395 0.31196 0.0
C665 C 0.34326 0.20176 0.3661 0.0
C666 C 0.02351 0.98316 0.56047 0.0
C667 C 0.01359 0.98791 0.59016 0.0
H668 H 0.04116 0.00353 0.52055 0.0
C669 C 0.02113 0.0149 0.60473 0.0
H670 H 0.01821 0.96247 0.54874 0.0
C671 C 0.0345 0.03824 0.58872 0.0
C672 C 0.04031 0.03511 0.55778 0.0
H673 H 0.01432 0.01897 0.62779 0.0
H674 H 0.03746 0.05974 0.59986 0.0
C675 C 0.03679 0.00668 0.54433 0.0
C676 C 0.17393 0.78021 0.86947 0.0
C677 C 0.19949 0.79368 0.85685 0.0
H678 H 0.12659 0.77371 0.86631 0.0
C679 C 0.19563 0.81643 0.83521 0.0
H680 H 0.17599 0.763 0.88656 0.0
C681 C 0.16712 0.82274 0.82372 0.0
C682 C 0.14214 0.80629 0.83363 0.0
H683 H 0.21481 0.82756 0.8253 0.0
H684 H 0.16516 0.83835 0.80515 0.0
C685 C 0.14555 0.78638 0.85788 0.0
C686 C 0.4602 0.0073 0.05516 0.0
C687 C 0.47103 0.00191 0.08437 0.0
H688 H 0.44284 0.98769 0.0147 0.0
C689 C 0.4656 0.97383 0.09767 0.0
H690 H 0.46384 0.02881 0.04438 0.0
C691 C 0.45339 0.95041 0.08078 0.0
C692 C 0.44655 0.95457 0.05021 0.0
H693 H 0.47312 0.96916 0.12035 0.0
H694 H 0.452 0.9283 0.09089 0.0
C695 C 0.44804 0.98373 0.03815 0.0
C696 C 0.79524 0.30529 0.65433 0.0
C697 C 0.79138 0.28056 0.63489 0.0
H698 H 0.82568 0.33013 0.68203 0.0
C699 C 0.81693 0.26573 0.62371 0.0
H700 H 0.77606 0.31749 0.66306 0.0
C701 C 0.84533 0.27298 0.6346 0.0
C702 C 0.84877 0.29531 0.65677 0.0
H703 H 0.81486 0.24691 0.60833 0.0
H704 H 0.8643 0.25954 0.62732 0.0
C705 C 0.82374 0.31265 0.66514 0.0
C706 C 0.96438 0.52712 0.88446 0.0
C707 C 0.97199 0.49941 0.89753 0.0
H708 H 0.94877 0.57197 0.8919 0.0
C709 C 0.9627 0.49358 0.92723 0.0
H710 H 0.97067 0.53211 0.86146 0.0
C711 C 0.94998 0.51656 0.94477 0.0
C712 C 0.94644 0.54556 0.93275 0.0
H713 H 0.96802 0.47235 0.93788 0.0
H714 H 0.94612 0.51249 0.96847 0.0
C715 C 0.95168 0.54995 0.90189 0.0
C716 C 0.66979 0.67789 0.16421 0.0
C717 C 0.644 0.69265 0.15367 0.0
H718 H 0.71768 0.67532 0.1628 0.0
C719 C 0.64656 0.7119 0.12874 0.0
H720 H 0.66857 0.6628 0.18325 0.0
C721 C 0.67468 0.71917 0.11707 0.0
C722 C 0.70082 0.70735 0.1301 0.0
H723 H 0.62702 0.72326 0.11976 0.0
H724 H 0.67596 0.73586 0.0994 0.0
C725 C 0.698 0.68521 0.15252 0.0
C726 C 0.52062 0.45329 0.39165 0.0
C727 C 0.51848 0.48214 0.40436 0.0
H728 H 0.53103 0.407 0.39898 0.0
C729 C 0.53182 0.48748 0.43255 0.0
H730 H 0.51117 0.44855 0.36971 0.0
C731 C 0.54327 0.46354 0.44943 0.0
C732 C 0.54153 0.43402 0.43826 0.0
H733 H 0.5309 0.50958 0.44282 0.0
H734 H 0.55053 0.46778 0.47229 0.0
C735 C 0.53213 0.42947 0.40841 0.0
C736 C 0.35956 0.25021 0.19683 0.0
C737 C 0.3852 0.25613 0.21427 0.0
H738 H 0.32158 0.269 0.17409 0.0
C739 C 0.39598 0.28579 0.21584 0.0
H740 H 0.35089 0.22756 0.19481 0.0
C741 C 0.37917 0.30943 0.20402 0.0
C742 C 0.35149 0.30383 0.19012 0.0
H743 H 0.41596 0.29113 0.22857 0.0
H744 H 0.38647 0.33229 0.20821 0.0
C745 C 0.34285 0.27395 0.18471 0.0
C746 C 0.85617 0.21459 0.81578 0.0
C747 C 0.86476 0.1846 0.81071 0.0
H748 H 0.86361 0.26072 0.80423 0.0
C749 C 0.89201 0.17866 0.79603 0.0
H750 H 0.83517 0.21974 0.82696 0.0
C751 C 0.90839 0.20203 0.78319 0.0
C752 C 0.89748 0.23171 0.78434 0.0
H753 H 0.89918 0.15569 0.79204 0.0
H754 H 0.92797 0.19636 0.76987 0.0
C755 C 0.87238 0.23805 0.80253 0.0
C756 C 0.06524 0.62271 0.02321 0.0
C757 C 0.03911 0.60943 0.03477 0.0
H758 H 0.1129 0.62018 0.01917 0.0
C759 C 0.04193 0.58664 0.05652 0.0
H760 H 0.06394 0.64066 0.00683 0.0
C761 C 0.07016 0.57488 0.06368 0.0
C762 C 0.09595 0.58571 0.04916 0.0
H763 H 0.02226 0.57616 0.0662 0.0
H764 H 0.07139 0.55558 0.07846 0.0
C765 C 0.09337 0.61096 0.03033 0.0
C766 C 0.63307 0.78968 0.3054 0.0
C767 C 0.62747 0.81928 0.29606 0.0
H768 H 0.62288 0.74312 0.29878 0.0
C769 C 0.60232 0.82518 0.27803 0.0
H770 H 0.65231 0.78453 0.31932 0.0
C771 C 0.58541 0.80156 0.2663 0.0
C772 C 0.59364 0.77163 0.27215 0.0
H773 H 0.59733 0.8479 0.2708 0.0
H774 H 0.56774 0.80679 0.25046 0.0
C775 C 0.61632 0.76595 0.29341 0.0
C776 C 0.39552 0.37917 0.54095 0.0
C777 C 0.39477 0.40492 0.55936 0.0
H778 H 0.42272 0.34712 0.51762 0.0
C779 C 0.42128 0.41432 0.57349 0.0
H780 H 0.37532 0.37113 0.53009 0.0
C781 C 0.44863 0.40061 0.56618 0.0
C782 C 0.44979 0.37725 0.54473 0.0
H783 H 0.42137 0.43403 0.58787 0.0
H784 H 0.46902 0.41002 0.57541 0.0
C785 C 0.42275 0.36541 0.53376 0.0
C786 C 0.14133 0.72033 0.67542 0.0
C787 C 0.13284 0.69018 0.67908 0.0
H788 H 0.133 0.76604 0.68834 0.0
C789 C 0.1051 0.68366 0.69248 0.0
H790 H 0.16272 0.72591 0.66532 0.0
C791 C 0.0881 0.70651 0.70568 0.0
C792 C 0.09874 0.73624 0.70598 0.0
H793 H 0.09802 0.66055 0.69542 0.0
H794 H 0.06811 0.70035 0.71808 0.0
C795 C 0.12439 0.74328 0.68889 0.0
C796 C 0.56526 0.87582 0.96243 0.0
C797 C 0.53966 0.88879 0.94937 0.0
H798 H 0.61264 0.87872 0.96873 0.0
C799 C 0.54344 0.91089 0.92706 0.0
H800 H 0.56325 0.85838 0.97929 0.0
C801 C 0.57195 0.92243 0.92083 0.0
C802 C 0.59699 0.91212 0.93693 0.0
H803 H 0.52422 0.92109 0.91625 0.0
H804 H 0.57387 0.94132 0.90561 0.0
C805 C 0.59363 0.88746 0.95635 0.0
C806 C 0.89321 0.10644 0.4699 0.0
C807 C 0.8898 0.08399 0.44786 0.0
H808 H 0.92365 0.1331 0.49562 0.0
C809 C 0.91484 0.07546 0.4306 0.0
H810 H 0.87424 0.11385 0.48327 0.0
C811 C 0.94332 0.08643 0.43779 0.0
C812 C 0.94716 0.10618 0.46227 0.0
H813 H 0.91292 0.05836 0.41332 0.0
H814 H 0.96251 0.07759 0.42568 0.0
C815 C 0.9216 0.11749 0.477 0.0
loop_
_geom_bond_atom_site_label_1
_geom_bond_atom_site_label_2
_geom_bond_distance
_geom_bond_site_symmetry_2
_ccdc_geom_bond_type
O0 Cd1 2.223 . S
O0 C8 1.315 . S
Cd1 O0 2.223 . S
Cd1 O4 2.297 . S
Cd1 O5 2.439 . S
Cd1 O11 2.240 . S
Cd2 O3 2.240 . S
Cd2 O10 2.223 . S
Cd2 O12 2.297 . S
Cd2 O13 2.439 . S
O3 Cd2 2.240 . S
O3 C8 1.279 . S
O4 Cd1 2.297 . S
O4 C6 1.247 . S
O5 Cd1 2.439 . S
O5 C6 1.208 . S
C6 O4 1.247 . S
C6 O5 1.208 . S
C7 O12 1.247 . S
C7 O13 1.208 . S
C8 O0 1.315 . S
C8 O3 1.279 . S
C9 O10 1.315 . S
C9 O11 1.279 . S
O10 Cd2 2.223 . S
O10 C9 1.315 . S
O11 Cd1 2.240 . S
O11 C9 1.279 . S
O12 Cd2 2.297 . S
O12 C7 1.247 . S
O13 Cd2 2.439 . S
O13 C7 1.208 . S
O14 Cd15 2.230 . S
O14 C22 1.314 1_655 S
Cd15 O14 2.230 . S
Cd15 O18 2.297 1_655 S
Cd15 O19 2.439 . S
Cd15 O25 2.240 . S
Cd16 O17 2.240 . S
Cd16 O24 2.223 . S
Cd16 O26 2.295 1_565 S
Cd16 O27 2.439 . S
O17 Cd16 2.240 . S
O17 C22 1.267 1_655 S
O18 Cd15 2.297 1_455 S
O18 C20 1.247 . S
O19 Cd15 2.439 . S
O19 C20 1.208 1_655 S
C20 O18 1.247 . S
C20 O19 1.208 1_455 S
C21 O26 1.233 1_565 S
C21 O27 1.208 . S
C22 O14 1.314 1_455 S
C22 O17 1.267 1_455 S
C23 O24 1.315 . S
C23 O25 1.279 . S
O24 Cd16 2.223 . S
O24 C23 1.315 . S
O25 Cd15 2.240 . S
O25 C23 1.279 . S
O26 Cd16 2.295 1_545 S
O26 C21 1.233 1_545 S
O27 Cd16 2.439 . S
O27 C21 1.208 . S
O28 Cd29 2.223 . S
O28 C36 1.315 . S
Cd29 O28 2.223 . S
Cd29 O32 2.297 . S
Cd29 O33 2.439 . S
Cd29 O39 2.240 . S
Cd30 O31 2.240 . S
Cd30 O38 2.223 . S
Cd30 O40 2.297 . S
Cd30 O41 2.439 . S
O31 Cd30 2.240 . S
O31 C36 1.279 . S
O32 Cd29 2.297 . S
O32 C34 1.247 . S
O33 Cd29 2.439 . S
O33 C34 1.208 . S
C34 O32 1.247 . S
C34 O33 1.208 . S
C35 O40 1.247 . S
C35 O41 1.208 . S
C36 O28 1.315 . S
C36 O31 1.279 . S
C37 O38 1.315 . S
C37 O39 1.279 . S
O38 Cd30 2.223 . S
O38 C37 1.315 . S
O39 Cd29 2.240 . S
O39 C37 1.279 . S
O40 Cd30 2.297 . S
O40 C35 1.247 . S
O41 Cd30 2.439 . S
O41 C35 1.208 . S
O42 Cd43 2.223 . S
O42 C50 1.315 . S
Cd43 O42 2.223 . S
Cd43 O46 2.297 . S
Cd43 O47 2.439 . S
Cd43 O53 2.240 . S
Cd44 O45 2.240 . S
Cd44 O52 2.223 . S
Cd44 O54 2.295 1_545 S
Cd44 O55 2.439 . S
O45 Cd44 2.240 . S
O45 C50 1.279 . S
O46 Cd43 2.297 . S
O46 C48 1.247 . S
O47 Cd43 2.439 . S
O47 C48 1.208 . S
C48 O46 1.247 . S
C48 O47 1.208 . S
C49 O54 1.233 1_545 S
C49 O55 1.208 . S
C50 O42 1.315 . S
C50 O45 1.279 . S
C51 O52 1.315 . S
C51 O53 1.279 . S
O52 Cd44 2.223 . S
O52 C51 1.315 . S
O53 Cd43 2.240 . S
O53 C51 1.279 . S
O54 Cd44 2.295 1_565 S
O54 C49 1.233 1_565 S
O55 Cd44 2.439 . S
O55 C49 1.208 . S
O56 Cd57 2.223 . S
O56 C64 1.315 . S
Cd57 O56 2.223 . S
Cd57 O60 2.297 . S
Cd57 O61 2.439 . S
Cd57 O67 2.240 . S
Cd58 O59 2.240 . S
Cd58 O66 2.223 . S
Cd58 O68 2.297 . S
Cd58 O69 2.439 . S
O59 Cd58 2.240 . S
O59 C64 1.279 . S
O60 Cd57 2.297 . S
O60 C62 1.247 . S
O61 Cd57 2.439 . S
O61 C62 1.208 . S
C62 O60 1.247 . S
C62 O61 1.208 . S
C63 O68 1.247 . S
C63 O69 1.208 . S
C64 O56 1.315 . S
C64 O59 1.279 . S
C65 O66 1.315 . S
C65 O67 1.279 . S
O66 Cd58 2.223 . S
O66 C65 1.315 . S
O67 Cd57 2.240 . S
O67 C65 1.279 . S
O68 Cd58 2.297 . S
O68 C63 1.247 . S
O69 Cd58 2.439 . S
O69 C63 1.208 . S
O70 Cd71 2.230 . S
O70 C78 1.314 1_455 S
Cd71 O70 2.230 . S
Cd71 O74 2.297 1_455 S
Cd71 O75 2.439 . S
Cd71 O81 2.240 . S
Cd72 O73 2.240 . S
Cd72 O80 2.223 . S
Cd72 O82 2.297 . S
Cd72 O83 2.439 . S
O73 Cd72 2.240 . S
O73 C78 1.267 1_455 S
O74 Cd71 2.297 1_655 S
O74 C76 1.247 . S
O75 Cd71 2.439 . S
O75 C76 1.208 1_455 S
C76 O74 1.247 . S
C76 O75 1.208 1_655 S
C77 O82 1.247 . S
C77 O83 1.208 . S
C78 O70 1.314 1_655 S
C78 O73 1.267 1_655 S
C79 O80 1.315 . S
C79 O81 1.279 . S
O80 Cd72 2.223 . S
O80 C79 1.315 . S
O81 Cd71 2.240 . S
O81 C79 1.279 . S
O82 Cd72 2.297 . S
O82 C77 1.247 . S
O83 Cd72 2.439 . S
O83 C77 1.208 . S
O84 Cd85 2.223 . S
O84 C92 1.315 . S
Cd85 O84 2.223 . S
Cd85 O88 2.297 . S
Cd85 O89 2.439 . S
Cd85 O95 2.240 . S
Cd86 O87 2.240 . S
Cd86 O94 2.223 . S
Cd86 O96 2.297 . S
Cd86 O97 2.439 . S
O87 Cd86 2.240 . S
O87 C92 1.279 . S
O88 Cd85 2.297 . S
O88 C90 1.247 . S
O89 Cd85 2.439 . S
O89 C90 1.208 . S
C90 O88 1.247 . S
C90 O89 1.208 . S
C91 O96 1.247 . S
C91 O97 1.208 . S
C92 O84 1.315 . S
C92 O87 1.279 . S
C93 O94 1.315 . S
C93 O95 1.279 . S
O94 Cd86 2.223 . S
O94 C93 1.315 . S
O95 Cd85 2.240 . S
O95 C93 1.279 . S
O96 Cd86 2.297 . S
O96 C91 1.247 . S
O97 Cd86 2.439 . S
O97 C91 1.208 . S
O98 Cd99 2.223 . S
O98 C106 1.315 . S
Cd99 O98 2.223 . S
Cd99 O102 2.297 . S
Cd99 O103 2.439 . S
Cd99 O109 2.240 . S
Cd100 O101 2.240 . S
Cd100 O108 2.223 . S
Cd100 O110 2.297 . S
Cd100 O111 2.439 . S
O101 Cd100 2.240 . S
O101 C106 1.279 . S
O102 Cd99 2.297 . S
O102 C104 1.247 . S
O103 Cd99 2.439 . S
O103 C104 1.208 . S
C104 O102 1.247 . S
C104 O103 1.208 . S
C105 O110 1.247 . S
C105 O111 1.208 . S
C106 O98 1.315 . S
C106 O101 1.279 . S
C107 O108 1.315 . S
C107 O109 1.279 . S
O108 Cd100 2.223 . S
O108 C107 1.315 . S
O109 Cd99 2.240 . S
O109 C107 1.279 . S
O110 Cd100 2.297 . S
O110 C105 1.247 . S
O111 Cd100 2.439 . S
O111 C105 1.208 . S
O112 Cd113 2.223 . S
O112 C120 1.315 . S
Cd113 O112 2.223 . S
Cd113 O116 2.297 . S
Cd113 O117 2.439 . S
Cd113 O123 2.240 . S
Cd114 O115 2.240 . S
Cd114 O122 2.223 . S
Cd114 O124 2.297 . S
Cd114 O125 2.439 . S
O115 Cd114 2.240 . S
O115 C120 1.279 . S
O116 Cd113 2.297 . S
O116 C118 1.247 . S
O117 Cd113 2.439 . S
O117 C118 1.208 . S
C118 O116 1.247 . S
C118 O117 1.208 . S
C119 O124 1.247 . S
C119 O125 1.208 . S
C120 O112 1.315 . S
C120 O115 1.279 . S
C121 O122 1.315 . S
C121 O123 1.279 . S
O122 Cd114 2.223 . S
O122 C121 1.315 . S
O123 Cd113 2.240 . S
O123 C121 1.279 . S
O124 Cd114 2.297 . S
O124 C119 1.247 . S
O125 Cd114 2.439 . S
O125 C119 1.208 . S
O126 Cd127 2.223 . S
O126 C134 1.315 . S
Cd127 O126 2.223 . S
Cd127 O130 2.297 . S
Cd127 O131 2.439 . S
Cd127 O137 2.240 . S
Cd128 O129 2.240 . S
Cd128 O136 2.223 . S
Cd128 O138 2.295 1_455 S
Cd128 O139 2.439 . S
O129 Cd128 2.240 . S
O129 C134 1.279 . S
O130 Cd127 2.297 . S
O130 C132 1.247 . S
O131 Cd127 2.439 . S
O131 C132 1.208 . S
C132 O130 1.247 . S
C132 O131 1.208 . S
C133 O138 1.233 1_455 S
C133 O139 1.208 . S
C134 O126 1.315 . S
C134 O129 1.279 . S
C135 O136 1.315 . S
C135 O137 1.279 . S
O136 Cd128 2.223 . S
O136 C135 1.315 . S
O137 Cd127 2.240 . S
O137 C135 1.279 . S
O138 Cd128 2.295 1_655 S
O138 C133 1.233 1_655 S
O139 Cd128 2.439 . S
O139 C133 1.208 . S
O140 Cd141 2.223 . S
O140 C148 1.315 . S
Cd141 O140 2.223 . S
Cd141 O144 2.297 . S
Cd141 O145 2.439 . S
Cd141 O151 2.240 . S
Cd142 O143 2.240 . S
Cd142 O150 2.223 . S
Cd142 O152 2.297 . S
Cd142 O153 2.439 . S
O143 Cd142 2.240 . S
O143 C148 1.279 . S
O144 Cd141 2.297 . S
O144 C146 1.247 . S
O145 Cd141 2.439 . S
O145 C146 1.208 . S
C146 O144 1.247 . S
C146 O145 1.208 . S
C147 O152 1.247 . S
C147 O153 1.208 . S
C148 O140 1.315 . S
C148 O143 1.279 . S
C149 O150 1.315 . S
C149 O151 1.279 . S
O150 Cd142 2.223 . S
O150 C149 1.315 . S
O151 Cd141 2.240 . S
O151 C149 1.279 . S
O152 Cd142 2.297 . S
O152 C147 1.247 . S
O153 Cd142 2.439 . S
O153 C147 1.208 . S
O154 Cd155 2.230 . S
O154 C162 1.314 1_554 S
Cd155 O154 2.230 . S
Cd155 O158 2.297 1_554 S
Cd155 O159 2.439 . S
Cd155 O165 2.240 . S
Cd156 O157 2.240 . S
Cd156 O164 2.223 . S
Cd156 O166 2.297 . S
Cd156 O167 2.439 . S
O157 Cd156 2.240 . S
O157 C162 1.267 1_554 S
O158 Cd155 2.297 1_556 S
O158 C160 1.247 . S
O159 Cd155 2.439 . S
O159 C160 1.208 1_554 S
C160 O158 1.247 . S
C160 O159 1.208 1_556 S
C161 O166 1.247 . S
C161 O167 1.208 . S
C162 O154 1.314 1_556 S
C162 O157 1.267 1_556 S
C163 O164 1.315 . S
C163 O165 1.279 . S
O164 Cd156 2.223 . S
O164 C163 1.315 . S
O165 Cd155 2.240 . S
O165 C163 1.279 . S
O166 Cd156 2.297 . S
O166 C161 1.247 . S
O167 Cd156 2.439 . S
O167 C161 1.208 . S
O168 Cd169 2.223 . S
O168 C176 1.315 . S
Cd169 O168 2.223 . S
Cd169 O172 2.297 . S
Cd169 O173 2.439 . S
Cd169 O179 2.240 . S
Cd170 O171 2.240 . S
Cd170 O178 2.223 . S
Cd170 O180 2.297 . S
Cd170 O181 2.439 . S
O171 Cd170 2.240 . S
O171 C176 1.279 . S
O172 Cd169 2.297 . S
O172 C174 1.247 . S
O173 Cd169 2.439 . S
O173 C174 1.208 . S
C174 O172 1.247 . S
C174 O173 1.208 . S
C175 O180 1.247 . S
C175 O181 1.208 . S
C176 O168 1.315 . S
C176 O171 1.279 . S
C177 O178 1.315 . S
C177 O179 1.279 . S
O178 Cd170 2.223 . S
O178 C177 1.315 . S
O179 Cd169 2.240 . S
O179 C177 1.279 . S
O180 Cd170 2.297 . S
O180 C175 1.247 . S
O181 Cd170 2.439 . S
O181 C175 1.208 . S
O182 Cd183 2.230 . S
O182 C190 1.314 1_556 S
Cd183 O182 2.230 . S
Cd183 O186 2.297 1_556 S
Cd183 O187 2.439 . S
Cd183 O193 2.240 . S
Cd184 O185 2.240 . S
Cd184 O192 2.223 . S
Cd184 O194 2.295 1_655 S
Cd184 O195 2.439 . S
O185 Cd184 2.240 . S
O185 C190 1.267 1_556 S
O186 Cd183 2.297 1_554 S
O186 C188 1.247 . S
O187 Cd183 2.439 . S
O187 C188 1.208 1_556 S
C188 O186 1.247 . S
C188 O187 1.208 1_554 S
C189 O194 1.233 1_655 S
C189 O195 1.208 . S
C190 O182 1.314 1_554 S
C190 O185 1.267 1_554 S
C191 O192 1.315 . S
C191 O193 1.279 . S
O192 Cd184 2.223 . S
O192 C191 1.315 . S
O193 Cd183 2.240 . S
O193 C191 1.279 . S
O194 Cd184 2.295 1_455 S
O194 C189 1.233 1_455 S
O195 Cd184 2.439 . S
O195 C189 1.208 . S
O196 Cd197 2.223 . S
O196 C204 1.315 . S
Cd197 O196 2.223 . S
Cd197 O200 2.297 . S
Cd197 O201 2.439 . S
Cd197 O207 2.240 . S
Cd198 O199 2.240 . S
Cd198 O206 2.223 . S
Cd198 O208 2.297 . S
Cd198 O209 2.439 . S
O199 Cd198 2.240 . S
O199 C204 1.279 . S
O200 Cd197 2.297 . S
O200 C202 1.247 . S
O201 Cd197 2.439 . S
O201 C202 1.208 . S
C202 O200 1.247 . S
C202 O201 1.208 . S
C203 O208 1.247 . S
C203 O209 1.208 . S
C204 O196 1.315 . S
C204 O199 1.279 . S
C205 O206 1.315 . S
C205 O207 1.279 . S
O206 Cd198 2.223 . S
O206 C205 1.315 . S
O207 Cd197 2.240 . S
O207 C205 1.279 . S
O208 Cd198 2.297 . S
O208 C203 1.247 . S
O209 Cd198 2.439 . S
O209 C203 1.208 . S
O210 Cd211 2.223 . S
O210 C218 1.315 . S
Cd211 O210 2.223 . S
Cd211 O214 2.297 . S
Cd211 O215 2.439 . S
Cd211 O221 2.240 . S
Cd212 O213 2.240 . S
Cd212 O220 2.223 . S
Cd212 O222 2.297 . S
Cd212 O223 2.439 . S
O213 Cd212 2.240 . S
O213 C218 1.279 . S
O214 Cd211 2.297 . S
O214 C216 1.247 . S
O215 Cd211 2.439 . S
O215 C216 1.208 . S
C216 O214 1.247 . S
C216 O215 1.208 . S
C217 O222 1.247 . S
C217 O223 1.208 . S
C218 O210 1.315 . S
C218 O213 1.279 . S
C219 O220 1.315 . S
C219 O221 1.279 . S
O220 Cd212 2.223 . S
O220 C219 1.315 . S
O221 Cd211 2.240 . S
O221 C219 1.279 . S
O222 Cd212 2.297 . S
O222 C217 1.247 . S
O223 Cd212 2.439 . S
O223 C217 1.208 . S
O224 Cd225 2.223 . S
O224 C232 1.315 . S
Cd225 O224 2.223 . S
Cd225 O228 2.297 . S
Cd225 O229 2.439 . S
Cd225 O235 2.240 . S
Cd226 O227 2.240 . S
Cd226 O234 2.223 . S
Cd226 O236 2.297 . S
Cd226 O237 2.439 . S
O227 Cd226 2.240 . S
O227 C232 1.279 . S
O228 Cd225 2.297 . S
O228 C230 1.247 . S
O229 Cd225 2.439 . S
O229 C230 1.208 . S
C230 O228 1.247 . S
C230 O229 1.208 . S
C231 O236 1.247 . S
C231 O237 1.208 . S
C232 O224 1.315 . S
C232 O227 1.279 . S
C233 O234 1.315 . S
C233 O235 1.279 . S
O234 Cd226 2.223 . S
O234 C233 1.315 . S
O235 Cd225 2.240 . S
O235 C233 1.279 . S
O236 Cd226 2.297 . S
O236 C231 1.247 . S
O237 Cd226 2.439 . S
O237 C231 1.208 . S
O238 Cd239 2.223 . S
O238 C246 1.315 . S
Cd239 O238 2.223 . S
Cd239 O242 2.297 . S
Cd239 O243 2.439 . S
Cd239 O249 2.240 . S
Cd240 O241 2.240 . S
Cd240 O248 2.223 . S
Cd240 O250 2.297 . S
Cd240 O251 2.439 . S
O241 Cd240 2.240 . S
O241 C246 1.279 . S
O242 Cd239 2.297 . S
O242 C244 1.247 . S
O243 Cd239 2.439 . S
O243 C244 1.208 . S
C244 O242 1.247 . S
C244 O243 1.208 . S
C245 O250 1.247 . S
C245 O251 1.208 . S
C246 O238 1.315 . S
C246 O241 1.279 . S
C247 O248 1.315 . S
C247 O249 1.279 . S
O248 Cd240 2.223 . S
O248 C247 1.315 . S
O249 Cd239 2.240 . S
O249 C247 1.279 . S
O250 Cd240 2.297 . S
O250 C245 1.247 . S
O251 Cd240 2.439 . S
O251 C245 1.208 . S
O252 Cd253 2.223 . S
O252 C260 1.315 . S
Cd253 O252 2.223 . S
Cd253 O256 2.297 . S
Cd253 O257 2.439 . S
Cd253 O263 2.240 . S
Cd254 O255 2.240 . S
Cd254 O262 2.223 . S
Cd254 O264 2.295 1_554 S
Cd254 O265 2.439 . S
O255 Cd254 2.240 . S
O255 C260 1.279 . S
O256 Cd253 2.297 . S
O256 C258 1.247 . S
O257 Cd253 2.439 . S
O257 C258 1.208 . S
C258 O256 1.247 . S
C258 O257 1.208 . S
C259 O264 1.233 1_554 S
C259 O265 1.208 . S
C260 O252 1.315 . S
C260 O255 1.279 . S
C261 O262 1.315 . S
C261 O263 1.279 . S
O262 Cd254 2.223 . S
O262 C261 1.315 . S
O263 Cd253 2.240 . S
O263 C261 1.279 . S
O264 Cd254 2.295 1_556 S
O264 C259 1.233 1_556 S
O265 Cd254 2.439 . S
O265 C259 1.208 . S
O266 Cd267 2.223 . S
O266 C274 1.315 . S
Cd267 O266 2.223 . S
Cd267 O270 2.297 . S
Cd267 O271 2.439 . S
Cd267 O277 2.240 . S
Cd268 O269 2.240 . S
Cd268 O276 2.223 . S
Cd268 O278 2.297 . S
Cd268 O279 2.439 . S
O269 Cd268 2.240 . S
O269 C274 1.279 . S
O270 Cd267 2.297 . S
O270 C272 1.247 . S
O271 Cd267 2.439 . S
O271 C272 1.208 . S
C272 O270 1.247 . S
C272 O271 1.208 . S
C273 O278 1.247 . S
C273 O279 1.208 . S
C274 O266 1.315 . S
C274 O269 1.279 . S
C275 O276 1.315 . S
C275 O277 1.279 . S
O276 Cd268 2.223 . S
O276 C275 1.315 . S
O277 Cd267 2.240 . S
O277 C275 1.279 . S
O278 Cd268 2.297 . S
O278 C273 1.247 . S
O279 Cd268 2.439 . S
O279 C273 1.208 . S
O280 Cd281 2.223 . S
O280 C288 1.315 . S
Cd281 O280 2.223 . S
Cd281 O284 2.297 . S
Cd281 O285 2.439 . S
Cd281 O291 2.240 . S
Cd282 O283 2.240 . S
Cd282 O290 2.223 . S
Cd282 O292 2.297 . S
Cd282 O293 2.439 . S
O283 Cd282 2.240 . S
O283 C288 1.279 . S
O284 Cd281 2.297 . S
O284 C286 1.247 . S
O285 Cd281 2.439 . S
O285 C286 1.208 . S
C286 O284 1.247 . S
C286 O285 1.208 . S
C287 O292 1.247 . S
C287 O293 1.208 . S
C288 O280 1.315 . S
C288 O283 1.279 . S
C289 O290 1.315 . S
C289 O291 1.279 . S
O290 Cd282 2.223 . S
O290 C289 1.315 . S
O291 Cd281 2.240 . S
O291 C289 1.279 . S
O292 Cd282 2.297 . S
O292 C287 1.247 . S
O293 Cd282 2.439 . S
O293 C287 1.208 . S
O294 Cd295 2.223 . S
O294 C302 1.315 . S
Cd295 O294 2.223 . S
Cd295 O298 2.297 . S
Cd295 O299 2.439 . S
Cd295 O305 2.240 . S
Cd296 O297 2.240 . S
Cd296 O304 2.223 . S
Cd296 O306 2.297 . S
Cd296 O307 2.439 . S
O297 Cd296 2.240 . S
O297 C302 1.279 . S
O298 Cd295 2.297 . S
O298 C300 1.247 . S
O299 Cd295 2.439 . S
O299 C300 1.208 . S
C300 O298 1.247 . S
C300 O299 1.208 . S
C301 O306 1.247 . S
C301 O307 1.208 . S
C302 O294 1.315 . S
C302 O297 1.279 . S
C303 O304 1.315 . S
C303 O305 1.279 . S
O304 Cd296 2.223 . S
O304 C303 1.315 . S
O305 Cd295 2.240 . S
O305 C303 1.279 . S
O306 Cd296 2.297 . S
O306 C301 1.247 . S
O307 Cd296 2.439 . S
O307 C301 1.208 . S
O308 Cd309 2.230 . S
O308 C316 1.314 1_565 S
Cd309 O308 2.230 . S
Cd309 O312 2.297 1_565 S
Cd309 O313 2.439 . S
Cd309 O319 2.240 . S
Cd310 O311 2.240 . S
Cd310 O318 2.223 . S
Cd310 O320 2.295 1_556 S
Cd310 O321 2.439 . S
O311 Cd310 2.240 . S
O311 C316 1.267 1_565 S
O312 Cd309 2.297 1_545 S
O312 C314 1.247 . S
O313 Cd309 2.439 . S
O313 C314 1.208 1_565 S
C314 O312 1.247 . S
C314 O313 1.208 1_545 S
C315 O320 1.233 1_556 S
C315 O321 1.208 . S
C316 O308 1.314 1_545 S
C316 O311 1.267 1_545 S
C317 O318 1.315 . S
C317 O319 1.279 . S
O318 Cd310 2.223 . S
O318 C317 1.315 . S
O319 Cd309 2.240 . S
O319 C317 1.279 . S
O320 Cd310 2.295 1_554 S
O320 C315 1.233 1_554 S
O321 Cd310 2.439 . S
O321 C315 1.208 . S
O322 Cd323 2.230 . S
O322 C330 1.314 1_545 S
Cd323 O322 2.230 . S
Cd323 O326 2.297 1_545 S
Cd323 O327 2.439 . S
Cd323 O333 2.240 . S
Cd324 O325 2.240 . S
Cd324 O332 2.223 . S
Cd324 O334 2.297 . S
Cd324 O335 2.439 . S
O325 Cd324 2.240 . S
O325 C330 1.267 1_545 S
O326 Cd323 2.297 1_565 S
O326 C328 1.247 . S
O327 Cd323 2.439 . S
O327 C328 1.208 1_545 S
C328 O326 1.247 . S
C328 O327 1.208 1_565 S
C329 O334 1.247 . S
C329 O335 1.208 . S
C330 O322 1.314 1_565 S
C330 O325 1.267 1_565 S
C331 O332 1.315 . S
C331 O333 1.279 . S
O332 Cd324 2.223 . S
O332 C331 1.315 . S
O333 Cd323 2.240 . S
O333 C331 1.279 . S
O334 Cd324 2.297 . S
O334 C329 1.247 . S
O335 Cd324 2.439 . S
O335 C329 1.208 . S
C336 C337 1.387 . S
C336 H340 0.950 . S
C336 C345 1.390 . S
C337 C336 1.387 . S
C337 C339 1.387 . S
H338 C345 0.950 . S
C339 C337 1.387 . S
C339 C341 1.390 . S
C339 H343 0.950 . S
H340 C336 0.950 . S
C341 C339 1.390 . S
C341 C342 1.387 . S
C341 H344 0.950 . S
C342 C341 1.387 . S
C342 C345 1.387 . S
H343 C339 0.950 . S
H344 C341 0.950 . S
C345 C336 1.390 . S
C345 H338 0.950 . S
C345 C342 1.387 . S
C346 C347 1.387 . S
C346 H350 0.950 . S
C346 C355 1.390 . S
C347 C346 1.387 . S
C347 C349 1.387 . S
H348 C355 0.950 . S
C349 C347 1.387 . S
C349 C351 1.390 . S
C349 H353 0.950 . S
H350 C346 0.950 . S
C351 C349 1.390 . S
C351 C352 1.387 . S
C351 H354 0.950 . S
C352 C351 1.387 . S
C352 C355 1.387 . S
H353 C349 0.950 . S
H354 C351 0.950 . S
C355 C346 1.390 . S
C355 H348 0.950 . S
C355 C352 1.387 . S
C356 C357 1.387 . S
C356 H360 0.950 . S
C356 C365 1.390 . S
C357 C356 1.387 . S
C357 C359 1.387 . S
H358 C365 0.950 . S
C359 C357 1.387 . S
C359 C361 1.390 . S
C359 H363 0.950 . S
H360 C356 0.950 . S
C361 C359 1.390 . S
C361 C362 1.387 . S
C361 H364 0.950 . S
C362 C361 1.387 . S
C362 C365 1.387 . S
H363 C359 0.950 . S
H364 C361 0.950 . S
C365 C356 1.390 . S
C365 H358 0.950 . S
C365 C362 1.387 . S
C366 C367 1.387 . S
C366 H370 0.950 . S
C366 C375 1.390 . S
C367 C366 1.387 . S
C367 C369 1.387 . S
H368 C375 0.950 . S
C369 C367 1.387 . S
C369 C371 1.390 . S
C369 H373 0.950 . S
H370 C366 0.950 . S
C371 C369 1.390 . S
C371 C372 1.387 . S
C371 H374 0.950 . S
C372 C371 1.387 . S
C372 C375 1.387 . S
H373 C369 0.950 . S
H374 C371 0.950 . S
C375 C366 1.390 . S
C375 H368 0.950 . S
C375 C372 1.387 . S
C376 C377 1.387 . S
C376 H380 0.950 . S
C376 C385 1.390 . S
C377 C376 1.387 . S
C377 C379 1.387 . S
H378 C385 0.950 . S
C379 C377 1.387 . S
C379 C381 1.390 . S
C379 H383 0.950 . S
H380 C376 0.950 . S
C381 C379 1.390 . S
C381 C382 1.387 . S
C381 H384 0.950 . S
C382 C381 1.387 . S
C382 C385 1.387 . S
H383 C379 0.950 . S
H384 C381 0.950 . S
C385 C376 1.390 . S
C385 H378 0.950 . S
C385 C382 1.387 . S
C386 C387 1.387 . S
C386 H390 0.950 . S
C386 C395 1.390 . S
C387 C386 1.387 . S
C387 C389 1.387 . S
H388 C395 0.950 . S
C389 C387 1.387 . S
C389 C391 1.390 . S
C389 H393 0.950 . S
H390 C386 0.950 . S
C391 C389 1.390 . S
C391 C392 1.387 . S
C391 H394 0.950 . S
C392 C391 1.387 . S
C392 C395 1.387 . S
H393 C389 0.950 . S
H394 C391 0.950 . S
C395 C386 1.390 . S
C395 H388 0.950 . S
C395 C392 1.387 . S
C396 C397 1.387 . S
C396 H400 0.950 . S
C396 C405 1.390 . S
C397 C396 1.387 . S
C397 C399 1.387 . S
H398 C405 0.950 . S
C399 C397 1.387 . S
C399 C401 1.390 . S
C399 H403 0.950 . S
H400 C396 0.950 . S
C401 C399 1.390 . S
C401 C402 1.387 . S
C401 H404 0.950 . S
C402 C401 1.387 . S
C402 C405 1.387 . S
H403 C399 0.950 . S
H404 C401 0.950 . S
C405 C396 1.390 . S
C405 H398 0.950 . S
C405 C402 1.387 . S
C406 C407 1.387 . S
C406 H410 0.950 . S
C406 C415 1.390 . S
C407 C406 1.387 . S
C407 C409 1.387 . S
H408 C415 0.950 . S
C409 C407 1.387 . S
C409 C411 1.390 . S
C409 H413 0.950 . S
H410 C406 0.950 . S
C411 C409 1.390 . S
C411 C412 1.387 . S
C411 H414 0.950 . S
C412 C411 1.387 . S
C412 C415 1.387 . S
H413 C409 0.950 . S
H414 C411 0.950 . S
C415 C406 1.390 . S
C415 H408 0.950 . S
C415 C412 1.387 . S
C416 C417 1.387 . S
C416 H420 0.950 . S
C416 C425 1.390 . S
C417 C416 1.387 . S
C417 C419 1.387 . S
H418 C425 0.950 . S
C419 C417 1.387 . S
C419 C421 1.390 . S
C419 H423 0.950 . S
H420 C416 0.950 . S
C421 C419 1.390 . S
C421 C422 1.387 . S
C421 H424 0.950 . S
C422 C421 1.387 . S
C422 C425 1.387 . S
H423 C419 0.950 . S
H424 C421 0.950 . S
C425 C416 1.390 . S
C425 H418 0.950 . S
C425 C422 1.387 . S
C426 C427 1.387 . S
C426 H430 0.950 . S
C426 C435 1.390 . S
C427 C426 1.387 . S
C427 C429 1.387 . S
H428 C435 0.950 . S
C429 C427 1.387 . S
C429 C431 1.390 . S
C429 H433 0.950 . S
H430 C426 0.950 . S
C431 C429 1.390 . S
C431 C432 1.387 . S
C431 H434 0.950 . S
C432 C431 1.387 . S
C432 C435 1.387 . S
H433 C429 0.950 . S
H434 C431 0.950 . S
C435 C426 1.390 . S
C435 H428 0.950 . S
C435 C432 1.387 . S
C436 C437 1.387 . S
C436 H440 0.950 . S
C436 C445 1.390 . S
C437 C436 1.387 . S
C437 C439 1.387 . S
H438 C445 0.950 . S
C439 C437 1.387 . S
C439 C441 1.390 . S
C439 H443 0.950 . S
H440 C436 0.950 . S
C441 C439 1.390 . S
C441 C442 1.387 . S
C441 H444 0.950 . S
C442 C441 1.387 . S
C442 C445 1.387 . S
H443 C439 0.950 . S
H444 C441 0.950 . S
C445 C436 1.390 . S
C445 H438 0.950 . S
C445 C442 1.387 . S
C446 C447 1.387 . S
C446 H450 0.950 . S
C446 C455 1.390 . S
C447 C446 1.387 . S
C447 C449 1.387 . S
H448 C455 0.950 . S
C449 C447 1.387 . S
C449 C451 1.390 . S
C449 H453 0.950 . S
H450 C446 0.950 . S
C451 C449 1.390 . S
C451 C452 1.387 . S
C451 H454 0.950 . S
C452 C451 1.387 . S
C452 C455 1.387 . S
H453 C449 0.950 . S
H454 C451 0.950 . S
C455 C446 1.390 . S
C455 H448 0.950 . S
C455 C452 1.387 . S
C456 C457 1.387 . S
C456 H460 0.950 . S
C456 C465 1.390 . S
C457 C456 1.387 . S
C457 C459 1.387 . S
H458 C465 0.950 . S
C459 C457 1.387 . S
C459 C461 1.390 . S
C459 H463 0.950 . S
H460 C456 0.950 . S
C461 C459 1.390 . S
C461 C462 1.387 . S
C461 H464 0.950 . S
C462 C461 1.387 . S
C462 C465 1.387 . S
H463 C459 0.950 . S
H464 C461 0.950 . S
C465 C456 1.390 . S
C465 H458 0.950 . S
C465 C462 1.387 . S
C466 C467 1.387 1_545 S
C466 H470 0.950 . S
C466 C475 1.390 . S
C467 C466 1.387 1_565 S
C467 C469 1.387 1_565 S
H468 C475 0.950 . S
C469 C467 1.387 1_545 S
C469 C471 1.390 . S
C469 H473 0.950 1_545 S
H470 C466 0.950 . S
C471 C469 1.390 . S
C471 C472 1.387 . S
C471 H474 0.950 . S
C472 C471 1.387 . S
C472 C475 1.387 . S
H473 C469 0.950 1_565 S
H474 C471 0.950 . S
C475 C466 1.390 . S
C475 H468 0.950 . S
C475 C472 1.387 . S
C476 C477 1.387 . S
C476 H480 0.950 . S
C476 C485 1.390 1_556 S
C477 C476 1.387 . S
C477 C479 1.387 . S
H478 C485 0.950 . S
C479 C477 1.387 . S
C479 C481 1.390 . S
C479 H483 0.950 . S
H480 C476 0.950 . S
C481 C479 1.390 . S
C481 C482 1.387 1_556 S
C481 H484 0.950 . S
C482 C481 1.387 1_554 S
C482 C485 1.387 . S
H483 C479 0.950 . S
H484 C481 0.950 . S
C485 C476 1.390 1_554 S
C485 H478 0.950 . S
C485 C482 1.387 . S
C486 C487 1.387 1_565 S
C486 H490 0.950 . S
C486 C495 1.390 . S
C487 C486 1.387 1_545 S
C487 C489 1.387 1_545 S
H488 C495 0.950 . S
C489 C487 1.387 1_565 S
C489 C491 1.390 . S
C489 H493 0.950 1_565 S
H490 C486 0.950 . S
C491 C489 1.390 . S
C491 C492 1.387 . S
C491 H494 0.950 . S
C492 C491 1.387 . S
C492 C495 1.387 . S
H493 C489 0.950 1_545 S
H494 C491 0.950 . S
C495 C486 1.390 . S
C495 H488 0.950 . S
C495 C492 1.387 . S
C496 C497 1.387 . S
C496 H500 0.950 . S
C496 C505 1.390 . S
C497 C496 1.387 . S
C497 C499 1.387 . S
H498 C505 0.950 . S
C499 C497 1.387 . S
C499 C501 1.390 . S
C499 H503 0.950 . S
H500 C496 0.950 . S
C501 C499 1.390 . S
C501 C502 1.387 . S
C501 H504 0.950 . S
C502 C501 1.387 . S
C502 C505 1.387 . S
H503 C499 0.950 . S
H504 C501 0.950 . S
C505 C496 1.390 . S
C505 H498 0.950 . S
C505 C502 1.387 . S
C506 C507 1.387 . S
C506 H510 0.950 . S
C506 C515 1.390 . S
C507 C506 1.387 . S
C507 C509 1.387 . S
H508 C515 0.950 . S
C509 C507 1.387 . S
C509 C511 1.390 . S
C509 H513 0.950 . S
H510 C506 0.950 . S
C511 C509 1.390 . S
C511 C512 1.387 . S
C511 H514 0.950 . S
C512 C511 1.387 . S
C512 C515 1.387 . S
H513 C509 0.950 . S
H514 C511 0.950 . S
C515 C506 1.390 . S
C515 H508 0.950 . S
C515 C512 1.387 . S
C516 C517 1.387 . S
C516 H520 0.950 . S
C516 C525 1.390 1_556 S
C517 C516 1.387 . S
C517 C519 1.387 1_556 S
H518 C525 0.950 . S
C519 C517 1.387 1_554 S
C519 C521 1.390 . S
C519 H523 0.950 . S
H520 C516 0.950 . S
C521 C519 1.390 . S
C521 C522 1.387 . S
C521 H524 0.950 . S
C522 C521 1.387 . S
C522 C525 1.387 . S
H523 C519 0.950 . S
H524 C521 0.950 . S
C525 C516 1.390 1_554 S
C525 H518 0.950 . S
C525 C522 1.387 . S
C526 C527 1.387 . S
C526 H530 0.950 . S
C526 C535 1.390 . S
C527 C526 1.387 . S
C527 C529 1.387 . S
H528 C535 0.950 . S
C529 C527 1.387 . S
C529 C531 1.390 . S
C529 H533 0.950 . S
H530 C526 0.950 . S
C531 C529 1.390 . S
C531 C532 1.387 . S
C531 H534 0.950 . S
C532 C531 1.387 . S
C532 C535 1.387 . S
H533 C529 0.950 . S
H534 C531 0.950 . S
C535 C526 1.390 . S
C535 H528 0.950 . S
C535 C532 1.387 . S
C536 C537 1.387 . S
C536 H540 0.950 . S
C536 C545 1.390 . S
C537 C536 1.387 . S
C537 C539 1.387 . S
H538 C545 0.950 . S
C539 C537 1.387 . S
C539 C541 1.390 . S
C539 H543 0.950 . S
H540 C536 0.950 . S
C541 C539 1.390 . S
C541 C542 1.387 . S
C541 H544 0.950 . S
C542 C541 1.387 . S
C542 C545 1.387 . S
H543 C539 0.950 . S
H544 C541 0.950 . S
C545 C536 1.390 . S
C545 H538 0.950 . S
C545 C542 1.387 . S
C546 C547 1.387 1_655 S
C546 H550 0.950 . S
C546 C555 1.390 . S
C547 C546 1.387 1_455 S
C547 C549 1.387 1_455 S
H548 C555 0.950 . S
C549 C547 1.387 1_655 S
C549 C551 1.390 . S
C549 H553 0.959 . S
H550 C546 0.950 . S
C551 C549 1.390 . S
C551 C552 1.387 . S
C551 H554 0.950 . S
C552 C551 1.387 . S
C552 C555 1.387 . S
H553 C549 0.959 . S
H554 C551 0.950 . S
C555 C546 1.390 . S
C555 H548 0.950 . S
C555 C552 1.387 . S
C556 C557 1.387 1_455 S
C556 H560 0.946 1_455 S
C556 C565 1.390 . S
C557 C556 1.387 1_655 S
C557 C559 1.387 1_655 S
H558 C565 0.950 . S
C559 C557 1.387 1_455 S
C559 C561 1.390 . S
C559 H563 0.950 . S
H560 C556 0.946 1_655 S
C561 C559 1.390 . S
C561 C562 1.387 . S
C561 H564 0.950 . S
C562 C561 1.387 . S
C562 C565 1.387 . S
H563 C559 0.950 . S
H564 C561 0.950 . S
C565 C556 1.390 . S
C565 H558 0.950 . S
C565 C562 1.387 . S
C566 C567 1.387 . S
C566 H570 0.950 . S
C566 C575 1.390 . S
C567 C566 1.387 . S
C567 C569 1.387 . S
H568 C575 0.950 . S
C569 C567 1.387 . S
C569 C571 1.390 . S
C569 H573 0.950 . S
H570 C566 0.950 . S
C571 C569 1.390 . S
C571 C572 1.387 . S
C571 H574 0.950 . S
C572 C571 1.387 . S
C572 C575 1.387 . S
H573 C569 0.950 . S
H574 C571 0.950 . S
C575 C566 1.390 . S
C575 H568 0.950 . S
C575 C572 1.387 . S
C576 C577 1.387 . S
C576 H580 0.950 . S
C576 C585 1.390 . S
C577 C576 1.387 . S
C577 C579 1.387 . S
H578 C585 0.950 . S
C579 C577 1.387 . S
C579 C581 1.390 . S
C579 H583 0.950 . S
H580 C576 0.950 . S
C581 C579 1.390 . S
C581 C582 1.387 . S
C581 H584 0.950 . S
C582 C581 1.387 . S
C582 C585 1.387 . S
H583 C579 0.950 . S
H584 C581 0.950 . S
C585 C576 1.390 . S
C585 H578 0.950 . S
C585 C582 1.387 . S
C586 C587 1.387 . S
C586 H590 0.950 . S
C586 C595 1.390 . S
C587 C586 1.387 . S
C587 C589 1.387 1_565 S
H588 C595 0.950 . S
C589 C587 1.387 1_545 S
C589 C591 1.390 1_545 S
C589 H593 0.950 . S
H590 C586 0.950 . S
C591 C589 1.390 1_565 S
C591 C592 1.387 . S
C591 H594 0.955 . S
C592 C591 1.387 . S
C592 C595 1.387 . S
H593 C589 0.950 . S
H594 C591 0.955 . S
C595 C586 1.390 . S
C595 H588 0.950 . S
C595 C592 1.387 . S
C596 C597 1.387 . S
C596 H600 0.950 . S
C596 C605 1.390 . S
C597 C596 1.387 . S
C597 C599 1.387 . S
H598 C605 0.950 . S
C599 C597 1.387 . S
C599 C601 1.390 . S
C599 H603 0.950 . S
H600 C596 0.950 . S
C601 C599 1.390 . S
C601 C602 1.387 . S
C601 H604 0.950 . S
C602 C601 1.387 . S
C602 C605 1.387 . S
H603 C599 0.950 . S
H604 C601 0.950 . S
C605 C596 1.390 . S
C605 H598 0.950 . S
C605 C602 1.387 . S
C606 C607 1.387 . S
C606 H610 0.950 . S
C606 C615 1.390 . S
C607 C606 1.387 . S
C607 C609 1.387 . S
H608 C615 0.950 1_565 S
C609 C607 1.387 . S
C609 C611 1.390 . S
C609 H613 0.950 . S
H610 C606 0.950 . S
C611 C609 1.390 . S
C611 C612 1.387 1_554 S
C611 H614 0.950 1_554 S
C612 C611 1.387 1_556 S
C612 C615 1.387 1_556 S
H613 C609 0.950 . S
H614 C611 0.950 1_556 S
C615 C606 1.390 . S
C615 H608 0.950 1_545 S
C615 C612 1.387 1_554 S
C616 C617 1.387 . S
C616 H620 0.950 . S
C616 C625 1.390 . S
C617 C616 1.387 . S
C617 C619 1.387 . S
H618 C625 0.950 . S
C619 C617 1.387 . S
C619 C621 1.390 . S
C619 H623 0.950 . S
H620 C616 0.950 . S
C621 C619 1.390 . S
C621 C622 1.387 . S
C621 H624 0.950 . S
C622 C621 1.387 . S
C622 C625 1.387 . S
H623 C619 0.950 . S
H624 C621 0.950 . S
C625 C616 1.390 . S
C625 H618 0.950 . S
C625 C622 1.387 . S
C626 C627 1.387 1_556 S
C626 H630 0.950 . S
C626 C635 1.390 . S
C627 C626 1.387 1_554 S
C627 C629 1.387 1_554 S
H628 C635 0.950 . S
C629 C627 1.387 1_556 S
C629 C631 1.390 . S
C629 H633 0.950 1_556 S
H630 C626 0.950 . S
C631 C629 1.390 . S
C631 C632 1.387 . S
C631 H634 0.950 . S
C632 C631 1.387 . S
C632 C635 1.387 . S
H633 C629 0.950 1_554 S
H634 C631 0.950 . S
C635 C626 1.390 . S
C635 H628 0.950 . S
C635 C632 1.387 . S
C636 C637 1.387 . S
C636 H640 0.950 . S
C636 C645 1.390 . S
C637 C636 1.387 . S
C637 C639 1.387 . S
H638 C645 0.950 . S
C639 C637 1.387 . S
C639 C641 1.390 . S
C639 H643 0.950 . S
H640 C636 0.950 . S
C641 C639 1.390 . S
C641 C642 1.387 . S
C641 H644 0.950 . S
C642 C641 1.387 . S
C642 C645 1.387 . S
H643 C639 0.950 . S
H644 C641 0.950 . S
C645 C636 1.390 . S
C645 H638 0.950 . S
C645 C642 1.387 . S
C646 C647 1.387 . S
C646 H650 0.950 . S
C646 C655 1.390 . S
C647 C646 1.387 . S
C647 C649 1.387 . S
H648 C655 0.950 . S
C649 C647 1.387 . S
C649 C651 1.390 . S
C649 H653 0.950 . S
H650 C646 0.950 . S
C651 C649 1.390 . S
C651 C652 1.387 . S
C651 H654 0.950 . S
C652 C651 1.387 . S
C652 C655 1.387 . S
H653 C649 0.950 . S
H654 C651 0.950 . S
C655 C646 1.390 . S
C655 H648 0.950 . S
C655 C652 1.387 . S
C656 C657 1.387 . S
C656 H660 0.950 . S
C656 C665 1.390 . S
C657 C656 1.387 . S
C657 C659 1.387 . S
H658 C665 0.950 . S
C659 C657 1.387 . S
C659 C661 1.390 . S
C659 H663 0.950 . S
H660 C656 0.950 . S
C661 C659 1.390 . S
C661 C662 1.387 . S
C661 H664 0.950 . S
C662 C661 1.387 . S
C662 C665 1.387 . S
H663 C659 0.950 . S
H664 C661 0.950 . S
C665 C656 1.390 . S
C665 H658 0.950 . S
C665 C662 1.387 . S
C666 C667 1.387 1_545 S
C666 H670 0.950 1_545 S
C666 C675 1.390 . S
C667 C666 1.387 1_565 S
C667 C669 1.387 1_565 S
H668 C675 0.950 . S
C669 C667 1.387 1_545 S
C669 C671 1.390 . S
C669 H673 0.950 . S
H670 C666 0.950 1_565 S
C671 C669 1.390 . S
C671 C672 1.387 . S
C671 H674 0.950 . S
C672 C671 1.387 . S
C672 C675 1.387 . S
H673 C669 0.950 . S
H674 C671 0.950 . S
C675 C666 1.390 . S
C675 H668 0.950 . S
C675 C672 1.387 . S
C676 C677 1.387 . S
C676 H680 0.950 . S
C676 C685 1.390 . S
C677 C676 1.387 . S
C677 C679 1.387 . S
H678 C685 0.950 . S
C679 C677 1.387 . S
C679 C681 1.390 . S
C679 H683 0.950 . S
H680 C676 0.950 . S
C681 C679 1.390 . S
C681 C682 1.387 . S
C681 H684 0.950 . S
C682 C681 1.387 . S
C682 C685 1.387 . S
H683 C679 0.950 . S
H684 C681 0.950 . S
C685 C676 1.390 . S
C685 H678 0.950 . S
C685 C682 1.387 . S
C686 C687 1.387 1_565 S
C686 H690 0.950 1_565 S
C686 C695 1.390 . S
C687 C686 1.387 1_545 S
C687 C689 1.387 1_545 S
H688 C695 0.950 . S
C689 C687 1.387 1_565 S
C689 C691 1.390 . S
C689 H693 0.950 . S
H690 C686 0.950 1_545 S
C691 C689 1.390 . S
C691 C692 1.387 . S
C691 H694 0.950 . S
C692 C691 1.387 . S
C692 C695 1.387 . S
H693 C689 0.950 . S
H694 C691 0.950 . S
C695 C686 1.390 . S
C695 H688 0.950 . S
C695 C692 1.387 . S
C696 C697 1.387 . S
C696 H700 0.950 . S
C696 C705 1.390 . S
C697 C696 1.387 . S
C697 C699 1.387 . S
H698 C705 0.950 . S
C699 C697 1.387 . S
C699 C701 1.390 . S
C699 H703 0.950 . S
H700 C696 0.950 . S
C701 C699 1.390 . S
C701 C702 1.387 . S
C701 H704 0.950 . S
C702 C701 1.387 . S
C702 C705 1.387 . S
H703 C699 0.950 . S
H704 C701 0.950 . S
C705 C696 1.390 . S
C705 H698 0.950 . S
C705 C702 1.387 . S
C706 C707 1.387 . S
C706 H710 0.950 . S
C706 C715 1.390 . S
C707 C706 1.387 . S
C707 C709 1.387 . S
H708 C715 0.950 . S
C709 C707 1.387 . S
C709 C711 1.390 . S
C709 H713 0.950 . S
H710 C706 0.950 . S
C711 C709 1.390 . S
C711 C712 1.387 . S
C711 H714 0.950 . S
C712 C711 1.387 . S
C712 C715 1.387 . S
H713 C709 0.950 . S
H714 C711 0.950 . S
C715 C706 1.390 . S
C715 H708 0.950 . S
C715 C712 1.387 . S
C716 C717 1.387 . S
C716 H720 0.950 . S
C716 C725 1.390 . S
C717 C716 1.387 . S
C717 C719 1.387 . S
H718 C725 0.950 . S
C719 C717 1.387 . S
C719 C721 1.390 . S
C719 H723 0.950 . S
H720 C716 0.950 . S
C721 C719 1.390 . S
C721 C722 1.387 . S
C721 H724 0.950 . S
C722 C721 1.387 . S
C722 C725 1.387 . S
H723 C719 0.950 . S
H724 C721 0.950 . S
C725 C716 1.390 . S
C725 H718 0.950 . S
C725 C722 1.387 . S
C726 C727 1.387 . S
C726 H730 0.950 . S
C726 C735 1.390 . S
C727 C726 1.387 . S
C727 C729 1.387 . S
H728 C735 0.950 . S
C729 C727 1.387 . S
C729 C731 1.390 . S
C729 H733 0.950 . S
H730 C726 0.950 . S
C731 C729 1.390 . S
C731 C732 1.387 . S
C731 H734 0.950 . S
C732 C731 1.387 . S
C732 C735 1.387 . S
H733 C729 0.950 . S
H734 C731 0.950 . S
C735 C726 1.390 . S
C735 H728 0.950 . S
C735 C732 1.387 . S
C736 C737 1.387 . S
C736 H740 0.950 . S
C736 C745 1.390 . S
C737 C736 1.387 . S
C737 C739 1.387 . S
H738 C745 0.950 . S
C739 C737 1.387 . S
C739 C741 1.390 . S
C739 H743 0.950 . S
H740 C736 0.950 . S
C741 C739 1.390 . S
C741 C742 1.387 . S
C741 H744 0.950 . S
C742 C741 1.387 . S
C742 C745 1.387 . S
H743 C739 0.950 . S
H744 C741 0.950 . S
C745 C736 1.390 . S
C745 H738 0.950 . S
C745 C742 1.387 . S
C746 C747 1.387 . S
C746 H750 0.950 . S
C746 C755 1.390 . S
C747 C746 1.387 . S
C747 C749 1.387 . S
H748 C755 0.950 . S
C749 C747 1.387 . S
C749 C751 1.390 . S
C749 H753 0.950 . S
H750 C746 0.950 . S
C751 C749 1.390 . S
C751 C752 1.387 . S
C751 H754 0.950 . S
C752 C751 1.387 . S
C752 C755 1.387 . S
H753 C749 0.950 . S
H754 C751 0.950 . S
C755 C746 1.390 . S
C755 H748 0.950 . S
C755 C752 1.387 . S
C756 C757 1.387 1_455 S
C756 H760 0.950 . S
C756 C765 1.390 . S
C757 C756 1.387 1_655 S
C757 C759 1.387 1_655 S
H758 C765 0.950 . S
C759 C757 1.387 1_455 S
C759 C761 1.390 . S
C759 H763 0.953 . S
H760 C756 0.950 . S
C761 C759 1.390 . S
C761 C762 1.387 . S
C761 H764 0.950 . S
C762 C761 1.387 . S
C762 C765 1.387 . S
H763 C759 0.953 . S
H764 C761 0.950 . S
C765 C756 1.390 . S
C765 H758 0.950 . S
C765 C762 1.387 . S
C766 C767 1.387 . S
C766 H770 0.950 . S
C766 C775 1.390 . S
C767 C766 1.387 . S
C767 C769 1.387 . S
H768 C775 0.950 . S
C769 C767 1.387 . S
C769 C771 1.390 . S
C769 H773 0.950 . S
H770 C766 0.950 . S
C771 C769 1.390 . S
C771 C772 1.387 . S
C771 H774 0.950 . S
C772 C771 1.387 . S
C772 C775 1.387 . S
H773 C769 0.950 . S
H774 C771 0.950 . S
C775 C766 1.390 . S
C775 H768 0.950 . S
C775 C772 1.387 . S
C776 C777 1.387 . S
C776 H780 0.950 . S
C776 C785 1.390 . S
C777 C776 1.387 . S
C777 C779 1.387 . S
H778 C785 0.950 . S
C779 C777 1.387 . S
C779 C781 1.390 . S
C779 H783 0.950 . S
H780 C776 0.950 . S
C781 C779 1.390 . S
C781 C782 1.387 . S
C781 H784 0.950 . S
C782 C781 1.387 . S
C782 C785 1.387 . S
H783 C779 0.950 . S
H784 C781 0.950 . S
C785 C776 1.390 . S
C785 H778 0.950 . S
C785 C782 1.387 . S
C786 C787 1.387 . S
C786 H790 0.950 . S
C786 C795 1.390 . S
C787 C786 1.387 . S
C787 C789 1.387 . S
H788 C795 0.950 . S
C789 C787 1.387 . S
C789 C791 1.390 . S
C789 H793 0.950 . S
H790 C786 0.950 . S
C791 C789 1.390 . S
C791 C792 1.387 . S
C791 H794 0.950 . S
C792 C791 1.387 . S
C792 C795 1.387 . S
H793 C789 0.950 . S
H794 C791 0.950 . S
C795 C786 1.390 . S
C795 H788 0.950 . S
C795 C792 1.387 . S
C796 C797 1.387 . S
C796 H800 0.950 . S
C796 C805 1.390 . S
C797 C796 1.387 . S
C797 C799 1.387 . S
H798 C805 0.950 . S
C799 C797 1.387 . S
C799 C801 1.390 . S
C799 H803 0.950 1_556 S
H800 C796 0.950 . S
C801 C799 1.390 . S
C801 C802 1.387 . S
C801 H804 0.950 . S
C802 C801 1.387 . S
C802 C805 1.387 . S
H803 C799 0.950 1_554 S
H804 C801 0.950 . S
C805 C796 1.390 . S
C805 H798 0.950 . S
C805 C802 1.387 . S
C806 C807 1.387 . S
C806 H810 0.950 . S
C806 C815 1.390 . S
C807 C806 1.387 . S
C807 C809 1.387 . S
H808 C815 0.950 . S
C809 C807 1.387 . S
C809 C811 1.390 . S
C809 H813 0.950 . S
H810 C806 0.950 . S
C811 C809 1.390 . S
C811 C812 1.387 1_655 S
C811 H814 0.948 1_655 S
C812 C811 1.387 1_455 S
C812 C815 1.387 1_455 S
H813 C809 0.950 . S
H814 C811 0.948 1_455 S
C815 C806 1.390 . S
C815 H808 0.950 . S
C815 C812 1.387 1_655 S
C337 C132 1.431 . S
C342 C6 1.431 . S
C347 C20 1.432 . S
C352 C146 1.431 . S
C357 C34 1.432 . S
C362 C160 1.432 . S
C367 C48 1.431 . S
C372 C118 1.432 . S
C377 C62 1.431 . S
C382 C216 1.431 . S
C387 C174 1.431 . S
C392 C76 1.432 . S
C397 C90 1.431 . S
C402 C188 1.431 . S
C407 C202 1.431 . S
C412 C104 1.431 . S
C417 C230 1.432 . S
C422 C258 1.432 . S
C427 C314 1.431 . S
C432 C244 1.432 . S
C437 C272 1.431 . S
C442 C328 1.432 . S
C447 C300 1.432 . S
C452 C286 1.431 . S
C457 C287 1.843 . S
C462 C7 1.845 . S
C467 C21 1.843 . S
C472 C245 1.845 . S
C477 C35 1.847 . S
C482 C259 1.845 . S
C487 C49 1.846 . S
C492 C273 1.843 . S
C497 C63 1.846 . S
C502 C329 1.844 . S
C507 C301 1.844 . S
C512 C77 1.847 . S
C517 C315 1.844 . S
C522 C91 1.847 . S
C527 C231 1.846 . S
C532 C105 1.847 . S
C537 C217 1.843 . S
C542 C119 1.846 . S
C547 C133 1.846 . S
C552 C175 1.844 . S
C557 C189 1.843 . S
C562 C147 1.846 . S
C567 C203 1.844 . S
C572 C161 1.847 . S
C577 C9 1.347 . S
C582 C232 1.409 . S
C587 C330 1.423 . S
C592 C23 1.347 . S
C597 C302 1.409 . S
C602 C37 1.347 . S
C607 C51 1.351 . S
C612 C316 1.423 . S
C617 C65 1.347 . S
C622 C246 1.409 . S
C627 C260 1.410 . S
C632 C79 1.348 . S
C637 C274 1.408 . S
C642 C93 1.351 . S
C647 C288 1.408 . S
C652 C107 1.347 . S
C657 C8 1.408 . S
C662 C121 1.351 . S
C667 C22 1.424 . S
C672 C135 1.347 . S
C677 C36 1.407 . S
C682 C149 1.351 . S
C687 C50 1.409 . S
C692 C163 1.347 . S
C697 C64 1.409 . S
C702 C177 1.347 . S
C707 C78 1.422 . S
C712 C191 1.351 . S
C717 C205 1.348 . S
C722 C92 1.410 . S
C727 C106 1.407 . S
C732 C219 1.350 . S
C737 C120 1.410 . S
C742 C233 1.348 . S
C747 C247 1.347 . S
C752 C176 1.409 . S
C757 C190 1.422 . S
C762 C261 1.351 . S
C767 C275 1.348 . S
C772 C204 1.410 . S
C777 C289 1.351 . S
C782 C218 1.407 . S
C787 C303 1.348 . S
C792 C148 1.409 . S
C797 C162 1.422 . S
C802 C317 1.350 . S
C807 C331 1.351 . S
C812 C134 1.407 . S
