# Generated by pormake.
# Topology upa, (4)-cn, num edge types: 1
# Building blocks:
#     Node 0, Type 0, BuildingBlock: GALJAG_clean_sbu_0, # of connection points: 4
#     Node 1, Type 0, BuildingBlock: GALJAG_clean_sbu_0, # of connection points: 4
#     Node 2, Type 0, BuildingBlock: GALJAG_clean_sbu_0, # of connection points: 4
#     Node 3, Type 0, BuildingBlock: GALJAG_clean_sbu_0, # of connection points: 4
#     Node 4, Type 0, BuildingBlock: GALJAG_clean_sbu_0, # of connection points: 4
#     Node 5, Type 0, BuildingBlock: GALJAG_clean_sbu_0, # of connection points: 4
#     Node 6, Type 0, BuildingBlock: GALJAG_clean_sbu_0, # of connection points: 4
#     Node 7, Type 0, BuildingBlock: GALJAG_clean_sbu_0, # of connection points: 4
#     Edge 8, Type (0, 0), BuildingBlock: UVAHIK_clean_linker_0, # of connection points: 2
#     Edge 9, Type (0, 0), BuildingBlock: UVAHIK_clean_linker_0, # of connection points: 2
#     Edge 10, Type (0, 0), BuildingBlock: UVAHIK_clean_linker_0, # of connection points: 2
#     Edge 11, Type (0, 0), BuildingBlock: UVAHIK_clean_linker_0, # of connection points: 2
#     Edge 12, Type (0, 0), BuildingBlock: UVAHIK_clean_linker_0, # of connection points: 2
#     Edge 13, Type (0, 0), BuildingBlock: UVAHIK_clean_linker_0, # of connection points: 2
#     Edge 14, Type (0, 0), BuildingBlock: UVAHIK_clean_linker_0, # of connection points: 2
#     Edge 15, Type (0, 0), BuildingBlock: UVAHIK_clean_linker_0, # of connection points: 2
#     Edge 16, Type (0, 0), BuildingBlock: UVAHIK_clean_linker_0, # of connection points: 2
#     Edge 17, Type (0, 0), BuildingBlock: UVAHIK_clean_linker_0, # of connection points: 2
#     Edge 18, Type (0, 0), BuildingBlock: UVAHIK_clean_linker_0, # of connection points: 2
#     Edge 19, Type (0, 0), BuildingBlock: UVAHIK_clean_linker_0, # of connection points: 2
#     Edge 20, Type (0, 0), BuildingBlock: UVAHIK_clean_linker_0, # of connection points: 2
#     Edge 21, Type (0, 0), BuildingBlock: UVAHIK_clean_linker_0, # of connection points: 2
#     Edge 22, Type (0, 0), BuildingBlock: UVAHIK_clean_linker_0, # of connection points: 2
#     Edge 23, Type (0, 0), BuildingBlock: UVAHIK_clean_linker_0, # of connection points: 2
# Relax obj value: 0.230
# Max RMSD: 0.125
# Mean RMSD: 0.125
data_MOF--net-upa--node1-GALJAG_clean_sbu_0--edge1-UVAHIK_clean_linker_0
_symmetry_space_group_name_H-M    P1
_symmetry_Int_Tables_number       1
_symmetry_cell_setting            triclinic
loop_
_symmetry_equiv_pos_as_xyz
'x, y, z'
_cell_length_a     34.58469
_cell_length_b     34.596965
_cell_length_c     55.130307
_cell_angle_alpha  90.000071
_cell_angle_beta   89.999597
_cell_angle_gamma 90.005383
loop_
_atom_site_label
_atom_site_type_symbol
_atom_site_fract_x
_atom_site_fract_y
_atom_site_fract_z
_atom_type_partial_charge
In0 In 0.19604 0.19996 0.32664 0.0
O1 O 0.19546 0.23719 0.36092 0.0
O2 O 0.22937 0.18595 0.36117 0.0
C3 C 0.13259 0.23992 0.31267 0.0
C4 C 0.26221 0.21018 0.30122 0.0
C5 C 0.16373 0.12931 0.32244 0.0
O6 O 0.13432 0.22055 0.33198 0.0
O7 O 0.16382 0.24112 0.3008 0.0
O8 O 0.16758 0.15193 0.30466 0.0
O9 O 0.17823 0.14142 0.34201 0.0
C10 C 0.21772 0.21519 0.37272 0.0
O11 O 0.2446 0.17828 0.302 0.0
O12 O 0.24596 0.23718 0.31274 0.0
In13 In 0.29364 0.69433 0.82586 0.0
O14 O 0.32047 0.74347 0.80381 0.0
O15 O 0.26096 0.74784 0.81275 0.0
C16 C 0.36154 0.65578 0.824 0.0
C17 C 0.27671 0.7144 0.87186 0.0
C18 C 0.2496 0.63604 0.8084 0.0
O19 O 0.34135 0.66242 0.80545 0.0
O20 O 0.34846 0.67016 0.84333 0.0
O21 O 0.26081 0.63772 0.83013 0.0
O22 O 0.25868 0.66502 0.7957 0.0
C23 C 0.28988 0.7632 0.80269 0.0
O24 O 0.25327 0.69599 0.8586 0.0
O25 O 0.30832 0.72308 0.86177 0.0
In26 In 0.8067 0.79425 0.32566 0.0
O27 O 0.75289 0.82404 0.31086 0.0
O28 O 0.7567 0.76307 0.30682 0.0
C29 C 0.85296 0.85651 0.3309 0.0
C30 C 0.78591 0.77568 0.37132 0.0
C31 C 0.85905 0.75629 0.29821 0.0
O32 O 0.82705 0.85476 0.31482 0.0
O33 O 0.85418 0.82777 0.34492 0.0
O34 O 0.85049 0.74535 0.3194 0.0
O35 O 0.83935 0.78439 0.29054 0.0
C36 C 0.73723 0.79343 0.30324 0.0
O37 O 0.80377 0.75233 0.35769 0.0
O38 O 0.77806 0.80786 0.36172 0.0
In39 In 0.70257 0.30348 0.82467 0.0
O40 O 0.67402 0.2532 0.80476 0.0
O41 O 0.73451 0.2497 0.81127 0.0
C42 C 0.63989 0.34888 0.8306 0.0
C43 C 0.71817 0.28245 0.8707 0.0
C44 C 0.74139 0.35524 0.79701 0.0
O45 O 0.64071 0.32162 0.81538 0.0
O46 O 0.66995 0.35211 0.84335 0.0
O47 O 0.75149 0.34747 0.81846 0.0
O48 O 0.71377 0.33505 0.78922 0.0
C49 C 0.70471 0.23381 0.80257 0.0
O50 O 0.74264 0.29961 0.85749 0.0
O51 O 0.6862 0.27542 0.86053 0.0
In52 In 0.69714 0.30106 0.17376 0.0
O53 O 0.75455 0.32626 0.18633 0.0
O54 O 0.74184 0.26854 0.19677 0.0
C55 C 0.6568 0.36713 0.16748 0.0
C56 C 0.71706 0.27886 0.12853 0.0
C57 C 0.64098 0.26712 0.2003 0.0
O58 O 0.6804 0.36259 0.18468 0.0
O59 O 0.65498 0.33915 0.15291 0.0
O60 O 0.65276 0.25276 0.18054 0.0
O61 O 0.65915 0.29678 0.20712 0.0
C62 C 0.76547 0.29635 0.19744 0.0
O63 O 0.69366 0.25963 0.14137 0.0
O64 O 0.73077 0.30848 0.13872 0.0
In65 In 0.20408 0.19472 0.6757 0.0
O66 O 0.17538 0.24943 0.69003 0.0
O67 O 0.23604 0.24401 0.69487 0.0
C68 C 0.13954 0.1516 0.67043 0.0
C69 C 0.22436 0.21438 0.63014 0.0
C70 C 0.2417 0.14088 0.70228 0.0
O71 O 0.14439 0.17434 0.68805 0.0
O72 O 0.16649 0.15175 0.65506 0.0
O73 O 0.25254 0.15015 0.68119 0.0
O74 O 0.21362 0.16029 0.71025 0.0
C75 C 0.20612 0.2643 0.69803 0.0
O76 O 0.24639 0.19504 0.64385 0.0
O77 O 0.19266 0.22431 0.63963 0.0
In78 In 0.30752 0.7087 0.17501 0.0
O79 O 0.2582 0.68281 0.19732 0.0
O80 O 0.25515 0.74253 0.18854 0.0
C81 C 0.34656 0.641 0.17601 0.0
C82 C 0.28503 0.72414 0.12927 0.0
C83 C 0.36539 0.75316 0.19269 0.0
O84 O 0.33811 0.6595 0.19496 0.0
O85 O 0.33362 0.65557 0.15672 0.0
O86 O 0.36321 0.74326 0.17072 0.0
O87 O 0.33704 0.74266 0.20551 0.0
C88 C 0.23925 0.71389 0.19863 0.0
O89 O 0.30656 0.74678 0.14117 0.0
O90 O 0.27453 0.69419 0.14059 0.0
In91 In 0.7937 0.80428 0.67491 0.0
O92 O 0.8199 0.75193 0.69398 0.0
O93 O 0.75903 0.75251 0.68873 0.0
C94 C 0.85979 0.84578 0.67185 0.0
C95 C 0.77868 0.78304 0.62891 0.0
C96 C 0.75237 0.85835 0.69922 0.0
O97 O 0.85083 0.82666 0.69046 0.0
O98 O 0.83629 0.84278 0.65452 0.0
O99 O 0.74715 0.85166 0.67697 0.0
O100 O 0.77646 0.83628 0.70929 0.0
C101 C 0.78815 0.73452 0.69668 0.0
O102 O 0.75627 0.80486 0.64082 0.0
O103 O 0.80824 0.77168 0.64035 0.0
C104 C 0.13451 0.07106 0.34195 0.0
C105 C 0.13871 0.09479 0.32147 0.0
C106 C 0.10577 0.04269 0.34264 0.0
C107 C 0.03425 0.98956 0.30467 0.0
H108 H 0.97702 0.98413 0.36509 0.0
C109 C 0.88659 0.91293 0.312 0.0
C110 C 0.88263 0.88713 0.33151 0.0
C111 C 0.91795 0.93839 0.31103 0.0
C112 C 0.99289 0.98514 0.34817 0.0
H113 H 0.11751 0.1062 0.28515 0.0
H114 H 0.06704 0.05725 0.28645 0.0
H115 H 0.03386 0.02548 0.36231 0.0
H116 H 0.90739 0.8687 0.36574 0.0
H117 H 0.96181 0.91352 0.36421 0.0
H118 H 0.99261 0.9497 0.29046 0.0
C119 C 0.08615 0.06006 0.30191 0.0
C120 C 0.02563 0.00863 0.34658 0.0
C121 C 0.11508 0.08821 0.30117 0.0
C122 C 0.90967 0.88835 0.35051 0.0
C123 C 0.94079 0.91402 0.34965 0.0
C124 C 0.00131 0.96628 0.30621 0.0
C125 C 0.08044 0.03769 0.32291 0.0
C126 C 0.04671 0.01118 0.3248 0.0
C127 C 0.94567 0.93875 0.32968 0.0
C128 C 0.98027 0.96391 0.32796 0.0
H129 H 0.15245 0.07537 0.35783 0.0
H130 H 0.10277 0.02536 0.35888 0.0
H131 H 0.05006 0.99042 0.28772 0.0
H132 H 0.86625 0.91254 0.29706 0.0
H133 H 0.92074 0.95751 0.29558 0.0
C134 C 0.40185 0.60595 0.80326 0.0
C135 C 0.3948 0.62908 0.8237 0.0
C136 C 0.42962 0.57668 0.80409 0.0
C137 C 0.48157 0.51532 0.84843 0.0
H138 H 0.54154 0.48555 0.79201 0.0
C139 C 0.60709 0.40465 0.8506 0.0
C140 C 0.60833 0.37748 0.83168 0.0
C141 C 0.58009 0.43466 0.85022 0.0
C142 C 0.52468 0.49336 0.80783 0.0
H143 H 0.41258 0.64121 0.86062 0.0
H144 H 0.4621 0.59104 0.86183 0.0
H145 H 0.49926 0.54184 0.78984 0.0
H146 H 0.58174 0.35971 0.79786 0.0
H147 H 0.53466 0.41247 0.79711 0.0
H148 H 0.50779 0.46714 0.86649 0.0
C149 C 0.4454 0.59465 0.84537 0.0
C150 C 0.50044 0.5256 0.80661 0.0
C151 C 0.41731 0.62366 0.84461 0.0
C152 C 0.58134 0.38018 0.81273 0.0
C153 C 0.55465 0.4105 0.81219 0.0
C154 C 0.50615 0.48335 0.84971 0.0
C155 C 0.45125 0.57016 0.82531 0.0
C156 C 0.47841 0.53689 0.82686 0.0
C157 C 0.55416 0.43833 0.83075 0.0
C158 C 0.52776 0.47194 0.82938 0.0
H159 H 0.38473 0.60929 0.78693 0.0
H160 H 0.43295 0.55818 0.78838 0.0
H161 H 0.46449 0.52262 0.86423 0.0
H162 H 0.62761 0.40328 0.86542 0.0
H163 H 0.58045 0.45582 0.8647 0.0
C164 C 0.62439 0.42404 0.18651 0.0
C165 C 0.62946 0.39979 0.16635 0.0
C166 C 0.59426 0.45092 0.18699 0.0
C167 C 0.49881 0.46868 0.15878 0.0
H168 H 0.50728 0.56778 0.19117 0.0
C169 C 0.38195 0.58837 0.15435 0.0
C170 C 0.37393 0.60829 0.17598 0.0
C171 C 0.41192 0.56134 0.15343 0.0
C172 C 0.50442 0.54 0.18229 0.0
H173 H 0.60854 0.3861 0.1303 0.0
H174 H 0.55679 0.43393 0.13073 0.0
H175 H 0.56412 0.52645 0.18774 0.0
H176 H 0.38988 0.61454 0.21382 0.0
H177 H 0.44233 0.56732 0.21217 0.0
H178 H 0.43918 0.48272 0.153 0.0
C179 C 0.57527 0.43143 0.14651 0.0
C180 C 0.53698 0.51631 0.18031 0.0
C181 C 0.60516 0.40431 0.14615 0.0
C182 C 0.39537 0.59956 0.19691 0.0
C183 C 0.42559 0.57282 0.19592 0.0
C184 C 0.46636 0.49254 0.16058 0.0
C185 C 0.56878 0.45434 0.16719 0.0
C186 C 0.53456 0.48029 0.16859 0.0
C187 C 0.43464 0.55404 0.17405 0.0
C188 C 0.46881 0.52834 0.17244 0.0
H189 H 0.64254 0.421 0.20242 0.0
H190 H 0.58997 0.4678 0.20331 0.0
H191 H 0.49564 0.4408 0.15008 0.0
H192 H 0.36592 0.59459 0.13793 0.0
H193 H 0.41837 0.54738 0.13631 0.0
C194 C 0.10002 0.1032 0.6478 0.0
C195 C 0.10729 0.12382 0.66923 0.0
C196 C 0.07243 0.07371 0.64741 0.0
C197 C 0.99124 0.03087 0.68305 0.0
H198 H 0.01502 0.93987 0.64472 0.0
C199 C 0.90849 0.88696 0.69297 0.0
C200 C 0.89252 0.87303 0.67125 0.0
C201 C 0.93579 0.91672 0.69255 0.0
C202 C 0.00805 0.96518 0.65544 0.0
H203 H 0.09105 0.13041 0.70696 0.0
H204 H 0.04391 0.07823 0.70661 0.0
H205 H 0.05907 0.99492 0.64414 0.0
H206 H 0.89366 0.87787 0.63205 0.0
H207 H 0.94242 0.92916 0.63131 0.0
H208 H 0.94078 0.00025 0.69489 0.0
C209 C 0.05861 0.08529 0.68985 0.0
C210 C 0.03305 0.9969 0.65498 0.0
C211 C 0.08576 0.11519 0.69011 0.0
C212 C 0.90559 0.8881 0.64905 0.0
C213 C 0.93344 0.91734 0.64862 0.0
C214 C 0.96662 0.99889 0.68381 0.0
C215 C 0.05198 0.06376 0.66858 0.0
C216 C 0.02493 0.03025 0.66874 0.0
C217 C 0.94809 0.93249 0.67038 0.0
C218 C 0.97479 0.96583 0.66998 0.0
H219 H 0.11611 0.10943 0.63139 0.0
H220 H 0.06748 0.05848 0.63054 0.0
H221 H 0.98358 0.05621 0.69353 0.0
H222 H 0.89874 0.876 0.71033 0.0
H223 H 0.94694 0.92779 0.70955 0.0
C224 C 0.20712 0.2491 0.41226 0.0
C225 C 0.22741 0.22163 0.3985 0.0
C226 C 0.21373 0.25253 0.43719 0.0
C227 C 0.25092 0.19537 0.48886 0.0
H228 H 0.23983 0.29231 0.52347 0.0
C229 C 0.26432 0.20332 0.5929 0.0
C230 C 0.23325 0.22202 0.60437 0.0
C231 C 0.26982 0.20705 0.56787 0.0
C232 C 0.24303 0.26504 0.51402 0.0
H233 H 0.27193 0.1776 0.39973 0.0
H234 H 0.28435 0.18431 0.44304 0.0
H235 H 0.23867 0.29197 0.47917 0.0
H236 H 0.18476 0.26078 0.59892 0.0
H237 H 0.19449 0.26747 0.55531 0.0
H238 H 0.25494 0.16845 0.5237 0.0
C239 C 0.26251 0.20248 0.43479 0.0
C240 C 0.24221 0.26479 0.48865 0.0
C241 C 0.25559 0.19879 0.40993 0.0
C242 C 0.20891 0.24596 0.59057 0.0
C243 C 0.21462 0.24996 0.56561 0.0
C244 C 0.25208 0.19569 0.51418 0.0
C245 C 0.24108 0.2288 0.44886 0.0
C246 C 0.24546 0.22984 0.47574 0.0
C247 C 0.24459 0.22986 0.5539 0.0
C248 C 0.24749 0.23042 0.52704 0.0
H249 H 0.18513 0.26702 0.40393 0.0
H250 H 0.1963 0.27276 0.44742 0.0
H251 H 0.25282 0.1678 0.47964 0.0
H252 H 0.28357 0.18472 0.6031 0.0
H253 H 0.29338 0.19151 0.55936 0.0
C254 C 0.29464 0.74615 0.911 0.0
C255 C 0.26904 0.72284 0.89768 0.0
C256 C 0.28951 0.75131 0.93593 0.0
C257 C 0.25069 0.70074 0.98834 0.0
H258 H 0.26626 0.79819 0.02168 0.0
C259 C 0.24663 0.70782 0.09232 0.0
C260 C 0.27516 0.73048 0.10352 0.0
C261 C 0.23983 0.71096 0.06742 0.0
C262 C 0.26213 0.77069 0.01267 0.0
H263 H 0.21722 0.68773 0.8998 0.0
H264 H 0.20848 0.69643 0.94348 0.0
H265 H 0.26551 0.79655 0.97737 0.0
H266 H 0.31811 0.77512 0.09771 0.0
H267 H 0.30724 0.77979 0.05413 0.0
H268 H 0.24904 0.6744 0.02331 0.0
C269 C 0.23254 0.71064 0.9346 0.0
C270 C 0.26154 0.76982 0.98731 0.0
C271 C 0.23745 0.7058 0.90961 0.0
C272 C 0.29584 0.75736 0.08954 0.0
C273 C 0.28941 0.76016 0.06456 0.0
C274 C 0.25168 0.70151 0.01364 0.0
C275 C 0.25887 0.73294 0.94807 0.0
C276 C 0.25622 0.73475 0.9749 0.0
C277 C 0.26182 0.73644 0.05309 0.0
C278 C 0.25783 0.73642 0.02617 0.0
H279 H 0.31921 0.75971 0.90227 0.0
H280 H 0.31045 0.76837 0.94586 0.0
H281 H 0.24715 0.67318 0.97927 0.0
H282 H 0.22996 0.68712 0.10272 0.0
H283 H 0.21772 0.69289 0.05936 0.0
C284 C 0.79493 0.74503 0.59177 0.0
C285 C 0.77245 0.7736 0.60308 0.0
C286 C 0.79166 0.73837 0.56685 0.0
C287 C 0.73134 0.76082 0.51238 0.0
H288 H 0.82822 0.74492 0.4784 0.0
C289 C 0.75437 0.79303 0.4106 0.0
C290 C 0.77748 0.7675 0.39709 0.0
C291 C 0.74954 0.78776 0.43554 0.0
C292 C 0.80083 0.74871 0.48763 0.0
H293 H 0.72811 0.81689 0.59738 0.0
H294 H 0.72318 0.80624 0.55379 0.0
H295 H 0.82772 0.74711 0.52245 0.0
H296 H 0.81252 0.71563 0.39888 0.0
H297 H 0.80437 0.70662 0.44261 0.0
H298 H 0.70492 0.76412 0.47724 0.0
C299 C 0.74277 0.78827 0.56415 0.0
C300 C 0.80047 0.74988 0.51294 0.0
C301 C 0.74572 0.79457 0.58915 0.0
C302 C 0.79457 0.73578 0.40884 0.0
C303 C 0.79006 0.73074 0.43386 0.0
C304 C 0.73179 0.76003 0.48701 0.0
C305 C 0.7662 0.76053 0.5526 0.0
C306 C 0.7658 0.7564 0.52568 0.0
C307 C 0.76802 0.75706 0.44752 0.0
C308 C 0.76663 0.75438 0.47438 0.0
H309 H 0.81553 0.72814 0.60211 0.0
H310 H 0.80953 0.71618 0.55873 0.0
H311 H 0.704 0.7652 0.52155 0.0
H312 H 0.74079 0.8177 0.40201 0.0
H313 H 0.73267 0.8087 0.4456 0.0
C314 C 0.69762 0.25309 0.91011 0.0
C315 C 0.72521 0.27369 0.89657 0.0
C316 C 0.70245 0.24784 0.93507 0.0
C317 C 0.74755 0.29479 0.98711 0.0
H318 H 0.72164 0.20021 0.02119 0.0
C319 C 0.75591 0.28836 0.09087 0.0
C320 C 0.72525 0.26985 0.10285 0.0
C321 C 0.76104 0.28384 0.06591 0.0
C322 C 0.72871 0.22693 0.01197 0.0
H323 H 0.78016 0.3037 0.89836 0.0
H324 H 0.78848 0.2947 0.94202 0.0
H325 H 0.72111 0.20131 0.97686 0.0
H326 H 0.67676 0.23087 0.09832 0.0
H327 H 0.68489 0.22381 0.05457 0.0
H328 H 0.75367 0.32102 0.02192 0.0
C329 C 0.76304 0.2828 0.93333 0.0
C330 C 0.72852 0.22749 0.98658 0.0
C331 C 0.75836 0.2878 0.90833 0.0
C332 C 0.70074 0.24539 0.08955 0.0
C333 C 0.70555 0.24124 0.06448 0.0
C334 C 0.74742 0.29434 0.01243 0.0
C335 C 0.73481 0.26333 0.94704 0.0
C336 C 0.73765 0.26154 0.9739 0.0
C337 C 0.73524 0.26115 0.05224 0.0
C338 C 0.73771 0.26051 0.02524 0.0
H339 H 0.67179 0.24182 0.90154 0.0
H340 H 0.68003 0.233 0.94516 0.0
H341 H 0.75405 0.32166 0.97789 0.0
H342 H 0.77551 0.3071 0.10072 0.0
H343 H 0.78481 0.29882 0.05726 0.0
C344 C 0.58315 0.22336 0.20364 0.0
C345 C 0.60525 0.25428 0.21269 0.0
C346 C 0.54644 0.2155 0.21325 0.0
C347 C 0.4662 0.26604 0.24197 0.0
H348 H 0.42894 0.16505 0.26143 0.0
C349 C 0.32233 0.24815 0.29315 0.0
C350 C 0.30003 0.2149 0.28906 0.0
C351 C 0.35917 0.25167 0.28298 0.0
C352 C 0.4386 0.19338 0.25569 0.0
H353 H 0.60699 0.3 0.23962 0.0
H354 H 0.54312 0.28645 0.25613 0.0
H355 H 0.49472 0.17197 0.24576 0.0
H356 H 0.29838 0.15958 0.27065 0.0
H357 H 0.36216 0.16622 0.25215 0.0
H358 H 0.41027 0.28759 0.25122 0.0
C359 C 0.55399 0.26846 0.24156 0.0
C360 C 0.47637 0.19729 0.24684 0.0
C361 C 0.5907 0.27601 0.2322 0.0
C362 C 0.315 0.18552 0.27418 0.0
C363 C 0.35171 0.18922 0.26375 0.0
C364 C 0.42838 0.2621 0.25048 0.0
C365 C 0.53112 0.23875 0.23183 0.0
C366 C 0.49068 0.23377 0.24025 0.0
C367 C 0.37447 0.22221 0.26818 0.0
C368 C 0.41418 0.22582 0.25781 0.0
H369 H 0.59358 0.20618 0.18857 0.0
H370 H 0.52935 0.19241 0.20542 0.0
H371 H 0.47626 0.29442 0.23657 0.0
H372 H 0.31172 0.27113 0.30472 0.0
H373 H 0.37598 0.27718 0.28723 0.0
C374 C 0.31899 0.81524 0.7769 0.0
C375 C 0.28863 0.80215 0.79173 0.0
C376 C 0.31857 0.85282 0.7675 0.0
C377 C 0.28134 0.94936 0.77983 0.0
H378 H 0.29326 0.96838 0.71094 0.0
C379 C 0.23774 0.09368 0.73634 0.0
C380 C 0.25652 0.10651 0.71524 0.0
C381 C 0.24716 0.0581 0.74669 0.0
C382 C 0.29074 0.96381 0.7303 0.0
H383 H 0.23404 0.81796 0.80831 0.0
H384 H 0.23372 0.88383 0.79227 0.0
H385 H 0.29863 0.90258 0.72654 0.0
H386 H 0.30144 0.0931 0.68917 0.0
H387 H 0.31902 0.03142 0.70777 0.0
H388 H 0.27399 0.01033 0.78387 0.0
C389 C 0.2577 0.86496 0.78785 0.0
C390 C 0.29357 0.92602 0.73918 0.0
C391 C 0.25777 0.82722 0.79688 0.0
C392 C 0.2864 0.08391 0.70542 0.0
C393 C 0.29616 0.04837 0.71594 0.0
C394 C 0.27912 0.98717 0.77105 0.0
C395 C 0.28816 0.87816 0.77316 0.0
C396 C 0.28809 0.91839 0.76394 0.0
C397 C 0.27598 0.03454 0.73638 0.0
C398 C 0.28291 0.99487 0.74609 0.0
H399 H 0.34315 0.7965 0.77265 0.0
H400 H 0.34242 0.86235 0.75626 0.0
H401 H 0.27764 0.94428 0.79908 0.0
H402 H 0.21441 0.1103 0.74428 0.0
H403 H 0.23048 0.04839 0.76215 0.0
C404 C 0.68301 0.75861 0.2825 0.0
C405 C 0.69897 0.79324 0.29125 0.0
C406 C 0.64677 0.75849 0.27126 0.0
C407 C 0.55617 0.81432 0.26623 0.0
H408 H 0.5403 0.75102 0.20906 0.0
C409 C 0.43325 0.77692 0.18827 0.0
C410 C 0.40113 0.76964 0.20319 0.0
C411 C 0.46927 0.7854 0.19845 0.0
C412 C 0.54431 0.76925 0.22483 0.0
H413 H 0.6895 0.8549 0.29511 0.0
H414 H 0.6263 0.8547 0.27538 0.0
H415 H 0.60405 0.75384 0.2277 0.0
H416 H 0.38099 0.76786 0.24041 0.0
H417 H 0.4439 0.78261 0.2582 0.0
H418 H 0.4963 0.82971 0.26328 0.0
C419 C 0.64163 0.8276 0.27739 0.0
C420 C 0.58076 0.77044 0.23571 0.0
C421 C 0.67793 0.82773 0.28857 0.0
C422 C 0.4052 0.77342 0.22844 0.0
C423 C 0.44127 0.78192 0.23863 0.0
C424 C 0.5196 0.81301 0.25538 0.0
C425 C 0.62565 0.79298 0.26857 0.0
C426 C 0.58708 0.79275 0.25664 0.0
C427 C 0.47397 0.7868 0.22377 0.0
C428 C 0.5132 0.79029 0.23461 0.0
H429 H 0.69848 0.73156 0.28438 0.0
H430 H 0.63506 0.73125 0.26495 0.0
H431 H 0.56001 0.83158 0.28244 0.0
H432 H 0.431 0.77439 0.16874 0.0
H433 H 0.49373 0.78977 0.18648 0.0
C434 C 0.67533 0.18305 0.77598 0.0
C435 C 0.70533 0.19497 0.79147 0.0
C436 C 0.67546 0.14587 0.76597 0.0
C437 C 0.7073 0.04811 0.77738 0.0
H438 H 0.70725 0.03294 0.70772 0.0
C439 C 0.75101 0.9033 0.73454 0.0
C440 C 0.73656 0.89278 0.71167 0.0
C441 C 0.74139 0.93885 0.74485 0.0
C442 C 0.70635 0.03641 0.72722 0.0
H443 H 0.7588 0.17746 0.80877 0.0
H444 H 0.75835 0.11201 0.79184 0.0
H445 H 0.70194 0.09814 0.72428 0.0
H446 H 0.69886 0.91027 0.68229 0.0
H447 H 0.68055 0.9718 0.70077 0.0
H448 H 0.71079 0.9867 0.78063 0.0
C449 C 0.73505 0.13163 0.78726 0.0
C450 C 0.70361 0.07386 0.73665 0.0
C451 C 0.7354 0.16906 0.79681 0.0
C452 C 0.71053 0.91767 0.69992 0.0
C453 C 0.70042 0.95314 0.71042 0.0
C454 C 0.70923 0.01063 0.76801 0.0
C455 C 0.70509 0.11974 0.77177 0.0
C456 C 0.7049 0.08004 0.76179 0.0
C457 C 0.71654 0.96468 0.73276 0.0
C458 C 0.70974 0.00424 0.74277 0.0
H459 H 0.65183 0.2025 0.77154 0.0
H460 H 0.65205 0.13727 0.75408 0.0
H461 H 0.70779 0.05219 0.79686 0.0
H462 H 0.77136 0.88489 0.744 0.0
H463 H 0.75501 0.94669 0.76183 0.0
C464 C 0.09413 0.27822 0.28239 0.0
C465 C 0.09549 0.25499 0.30325 0.0
C466 C 0.05854 0.28817 0.27197 0.0
C467 C 0.95132 0.2851 0.28315 0.0
H468 H 0.94645 0.28634 0.21289 0.0
C469 C 0.81015 0.26582 0.22764 0.0
C470 C 0.80315 0.29423 0.20999 0.0
C471 C 0.84578 0.26432 0.23965 0.0
C472 C 0.94749 0.28632 0.23253 0.0
H473 H 0.06069 0.22468 0.32986 0.0
H474 H 0.99921 0.24053 0.31139 0.0
H475 H 0.00881 0.27909 0.23297 0.0
H476 H 0.82795 0.343 0.19079 0.0
H477 H 0.89065 0.33955 0.21128 0.0
H478 H 0.88952 0.29037 0.28242 0.0
C479 C 0.0252 0.25226 0.3033 0.0
C480 C 0.98327 0.28249 0.24411 0.0
C481 C 0.06063 0.24292 0.31389 0.0
C482 C 0.83253 0.32085 0.20438 0.0
C483 C 0.8684 0.31884 0.21601 0.0
C484 C 0.91551 0.28814 0.27154 0.0
C485 C 0.02356 0.27454 0.28196 0.0
C486 C 0.98571 0.28151 0.26962 0.0
C487 C 0.87527 0.29069 0.23383 0.0
C488 C 0.91327 0.28855 0.24614 0.0
H489 H 0.12056 0.28803 0.27383 0.0
H490 H 0.05856 0.30608 0.25587 0.0
H491 H 0.95191 0.2854 0.30278 0.0
H492 H 0.78798 0.24501 0.23235 0.0
H493 H 0.85052 0.24219 0.25323 0.0
C494 C 0.17266 0.32411 0.71257 0.0
C495 C 0.20687 0.30256 0.70998 0.0
C496 C 0.17327 0.36041 0.72372 0.0
C497 C 0.23133 0.42068 0.76533 0.0
H498 H 0.17241 0.5055 0.73792 0.0
C499 C 0.2262 0.56811 0.81283 0.0
C500 C 0.23311 0.60031 0.79792 0.0
C501 C 0.21756 0.53214 0.80266 0.0
C502 C 0.18904 0.48212 0.74577 0.0
H503 H 0.26854 0.30212 0.71699 0.0
H504 H 0.26968 0.36559 0.73632 0.0
H505 H 0.16999 0.44187 0.71877 0.0
H506 H 0.23417 0.62063 0.76073 0.0
H507 H 0.21925 0.55778 0.74294 0.0
H508 H 0.25128 0.461 0.7919 0.0
C509 C 0.24229 0.35427 0.72999 0.0
C510 C 0.18741 0.44557 0.73493 0.0
C511 C 0.24168 0.31801 0.7188 0.0
C512 C 0.22888 0.59635 0.7727 0.0
C513 C 0.22028 0.56032 0.7625 0.0
C514 C 0.23288 0.45712 0.77618 0.0
C515 C 0.20808 0.37591 0.73258 0.0
C516 C 0.2088 0.41451 0.74447 0.0
C517 C 0.2157 0.52755 0.77734 0.0
C518 C 0.21196 0.48836 0.76647 0.0
H519 H 0.14536 0.31295 0.706 0.0
H520 H 0.14635 0.37611 0.72568 0.0
H521 H 0.24779 0.39728 0.77331 0.0
H522 H 0.22905 0.57028 0.83234 0.0
H523 H 0.2134 0.50765 0.81462 0.0
C524 C 0.17648 0.74792 0.20521 0.0
C525 C 0.20052 0.71612 0.20986 0.0
C526 C 0.13904 0.74927 0.21467 0.0
C527 C 0.06225 0.68704 0.24185 0.0
H528 H 0.01847 0.78644 0.25915 0.0
C529 C 0.91785 0.71394 0.29514 0.0
C530 C 0.89374 0.7425 0.28511 0.0
C531 C 0.9543 0.70654 0.28503 0.0
C532 C 0.03028 0.7585 0.25425 0.0
H533 H 0.20462 0.66107 0.22841 0.0
H534 H 0.13981 0.66408 0.24584 0.0
H535 H 0.08495 0.78293 0.24501 0.0
H536 H 0.8879 0.78397 0.2558 0.0
H537 H 0.95146 0.77136 0.23848 0.0
H538 H 0.00737 0.6628 0.25206 0.0
C539 C 0.14932 0.68752 0.23428 0.0
C540 C 0.06836 0.75644 0.24601 0.0
C541 C 0.18663 0.68592 0.22448 0.0
C542 C 0.90579 0.76184 0.264 0.0
C543 C 0.94226 0.75483 0.25414 0.0
C544 C 0.02422 0.68908 0.25053 0.0
C545 C 0.12489 0.71913 0.22938 0.0
C546 C 0.08478 0.72078 0.23934 0.0
C547 C 0.96728 0.72795 0.26496 0.0
C548 C 0.00778 0.72493 0.25645 0.0
H549 H 0.18625 0.77143 0.19377 0.0
H550 H 0.12097 0.7737 0.20998 0.0
H551 H 0.07361 0.6591 0.23663 0.0
H552 H 0.90936 0.69863 0.31143 0.0
H553 H 0.97313 0.68566 0.29367 0.0
C554 C 0.78413 0.41372 0.79358 0.0
C555 C 0.75537 0.38965 0.78371 0.0
C556 C 0.79188 0.44988 0.78319 0.0
C557 C 0.74091 0.52608 0.75232 0.0
H558 H 0.84056 0.56694 0.73295 0.0
C559 C 0.75274 0.67253 0.70349 0.0
C560 C 0.78554 0.69551 0.70745 0.0
C561 C 0.75088 0.63498 0.71275 0.0
C562 C 0.81257 0.55631 0.73866 0.0
H563 H 0.71377 0.38368 0.75448 0.0
H564 H 0.72689 0.44685 0.73673 0.0
H565 H 0.83601 0.50109 0.74884 0.0
H566 H 0.84187 0.69764 0.72458 0.0
H567 H 0.838 0.63282 0.74177 0.0
H568 H 0.71731 0.58115 0.74323 0.0
C569 C 0.74339 0.43776 0.75243 0.0
C570 C 0.81004 0.51848 0.7476 0.0
C571 C 0.73608 0.40151 0.76254 0.0
C572 C 0.81626 0.68045 0.72116 0.0
C573 C 0.81414 0.64311 0.73083 0.0
C574 C 0.74348 0.56401 0.74386 0.0
C575 C 0.77057 0.46267 0.76303 0.0
C576 C 0.77409 0.50293 0.75418 0.0
C577 C 0.78149 0.61971 0.72664 0.0
C578 C 0.77925 0.5796 0.73659 0.0
H579 H 0.7994 0.40537 0.80991 0.0
H580 H 0.81298 0.46867 0.79167 0.0
H581 H 0.71292 0.51491 0.75769 0.0
H582 H 0.7288 0.68325 0.69275 0.0
H583 H 0.72561 0.61775 0.7086 0.0
loop_
_geom_bond_atom_site_label_1
_geom_bond_atom_site_label_2
_geom_bond_distance
_geom_bond_site_symmetry_2
_ccdc_geom_bond_type
In0 O1 2.294 . S
In0 O2 2.326 . S
In0 O6 2.266 . S
In0 O7 2.326 . S
In0 O8 2.266 . S
In0 O9 2.326 . S
In0 O11 2.294 . S
In0 O12 2.326 . S
O1 In0 2.294 . S
O1 C10 1.240 . S
O2 In0 2.326 . S
O2 C10 1.252 . S
C3 O6 1.252 . S
C3 O7 1.260 . S
C4 O11 1.240 . S
C4 O12 1.252 . S
C5 O8 1.252 . S
C5 O9 1.260 . S
O6 In0 2.266 . S
O6 C3 1.252 . S
O7 In0 2.326 . S
O7 C3 1.260 . S
O8 In0 2.266 . S
O8 C5 1.252 . S
O9 In0 2.326 . S
O9 C5 1.260 . S
C10 O1 1.240 . S
C10 O2 1.252 . S
O11 In0 2.294 . S
O11 C4 1.240 . S
O12 In0 2.326 . S
O12 C4 1.252 . S
In13 O14 2.294 . S
In13 O15 2.326 . S
In13 O19 2.266 . S
In13 O20 2.326 . S
In13 O21 2.266 . S
In13 O22 2.326 . S
In13 O24 2.294 . S
In13 O25 2.326 . S
O14 In13 2.294 . S
O14 C23 1.240 . S
O15 In13 2.326 . S
O15 C23 1.252 . S
C16 O19 1.252 . S
C16 O20 1.260 . S
C17 O24 1.240 . S
C17 O25 1.252 . S
C18 O21 1.252 . S
C18 O22 1.260 . S
O19 In13 2.266 . S
O19 C16 1.252 . S
O20 In13 2.326 . S
O20 C16 1.260 . S
O21 In13 2.266 . S
O21 C18 1.252 . S
O22 In13 2.326 . S
O22 C18 1.260 . S
C23 O14 1.240 . S
C23 O15 1.252 . S
O24 In13 2.294 . S
O24 C17 1.240 . S
O25 In13 2.326 . S
O25 C17 1.252 . S
In26 O27 2.294 . S
In26 O28 2.326 . S
In26 O32 2.266 . S
In26 O33 2.326 . S
In26 O34 2.266 . S
In26 O35 2.326 . S
In26 O37 2.294 . S
In26 O38 2.326 . S
O27 In26 2.294 . S
O27 C36 1.240 . S
O28 In26 2.326 . S
O28 C36 1.252 . S
C29 O32 1.252 . S
C29 O33 1.260 . S
C30 O37 1.240 . S
C30 O38 1.252 . S
C31 O34 1.252 . S
C31 O35 1.260 . S
O32 In26 2.266 . S
O32 C29 1.252 . S
O33 In26 2.326 . S
O33 C29 1.260 . S
O34 In26 2.266 . S
O34 C31 1.252 . S
O35 In26 2.326 . S
O35 C31 1.260 . S
C36 O27 1.240 . S
C36 O28 1.252 . S
O37 In26 2.294 . S
O37 C30 1.240 . S
O38 In26 2.326 . S
O38 C30 1.252 . S
In39 O40 2.294 . S
In39 O41 2.326 . S
In39 O45 2.266 . S
In39 O46 2.326 . S
In39 O47 2.266 . S
In39 O48 2.326 . S
In39 O50 2.294 . S
In39 O51 2.326 . S
O40 In39 2.294 . S
O40 C49 1.240 . S
O41 In39 2.326 . S
O41 C49 1.252 . S
C42 O45 1.252 . S
C42 O46 1.260 . S
C43 O50 1.240 . S
C43 O51 1.252 . S
C44 O47 1.252 . S
C44 O48 1.260 . S
O45 In39 2.266 . S
O45 C42 1.252 . S
O46 In39 2.326 . S
O46 C42 1.260 . S
O47 In39 2.266 . S
O47 C44 1.252 . S
O48 In39 2.326 . S
O48 C44 1.260 . S
C49 O40 1.240 . S
C49 O41 1.252 . S
O50 In39 2.294 . S
O50 C43 1.240 . S
O51 In39 2.326 . S
O51 C43 1.252 . S
In52 O53 2.294 . S
In52 O54 2.326 . S
In52 O58 2.266 . S
In52 O59 2.326 . S
In52 O60 2.266 . S
In52 O61 2.326 . S
In52 O63 2.294 . S
In52 O64 2.326 . S
O53 In52 2.294 . S
O53 C62 1.240 . S
O54 In52 2.326 . S
O54 C62 1.252 . S
C55 O58 1.252 . S
C55 O59 1.260 . S
C56 O63 1.240 . S
C56 O64 1.252 . S
C57 O60 1.252 . S
C57 O61 1.260 . S
O58 In52 2.266 . S
O58 C55 1.252 . S
O59 In52 2.326 . S
O59 C55 1.260 . S
O60 In52 2.266 . S
O60 C57 1.252 . S
O61 In52 2.326 . S
O61 C57 1.260 . S
C62 O53 1.240 . S
C62 O54 1.252 . S
O63 In52 2.294 . S
O63 C56 1.240 . S
O64 In52 2.326 . S
O64 C56 1.252 . S
In65 O66 2.294 . S
In65 O67 2.326 . S
In65 O71 2.266 . S
In65 O72 2.326 . S
In65 O73 2.266 . S
In65 O74 2.326 . S
In65 O76 2.294 . S
In65 O77 2.326 . S
O66 In65 2.294 . S
O66 C75 1.240 . S
O67 In65 2.326 . S
O67 C75 1.252 . S
C68 O71 1.252 . S
C68 O72 1.260 . S
C69 O76 1.240 . S
C69 O77 1.252 . S
C70 O73 1.252 . S
C70 O74 1.260 . S
O71 In65 2.266 . S
O71 C68 1.252 . S
O72 In65 2.326 . S
O72 C68 1.260 . S
O73 In65 2.266 . S
O73 C70 1.252 . S
O74 In65 2.326 . S
O74 C70 1.260 . S
C75 O66 1.240 . S
C75 O67 1.252 . S
O76 In65 2.294 . S
O76 C69 1.240 . S
O77 In65 2.326 . S
O77 C69 1.252 . S
In78 O79 2.294 . S
In78 O80 2.326 . S
In78 O84 2.266 . S
In78 O85 2.326 . S
In78 O86 2.266 . S
In78 O87 2.326 . S
In78 O89 2.294 . S
In78 O90 2.326 . S
O79 In78 2.294 . S
O79 C88 1.240 . S
O80 In78 2.326 . S
O80 C88 1.252 . S
C81 O84 1.252 . S
C81 O85 1.260 . S
C82 O89 1.240 . S
C82 O90 1.252 . S
C83 O86 1.252 . S
C83 O87 1.260 . S
O84 In78 2.266 . S
O84 C81 1.252 . S
O85 In78 2.326 . S
O85 C81 1.260 . S
O86 In78 2.266 . S
O86 C83 1.252 . S
O87 In78 2.326 . S
O87 C83 1.260 . S
C88 O79 1.240 . S
C88 O80 1.252 . S
O89 In78 2.294 . S
O89 C82 1.240 . S
O90 In78 2.326 . S
O90 C82 1.252 . S
In91 O92 2.294 . S
In91 O93 2.326 . S
In91 O97 2.266 . S
In91 O98 2.326 . S
In91 O99 2.266 . S
In91 O100 2.326 . S
In91 O102 2.294 . S
In91 O103 2.326 . S
O92 In91 2.294 . S
O92 C101 1.240 . S
O93 In91 2.326 . S
O93 C101 1.252 . S
C94 O97 1.252 . S
C94 O98 1.260 . S
C95 O102 1.240 . S
C95 O103 1.252 . S
C96 O99 1.252 . S
C96 O100 1.260 . S
O97 In91 2.266 . S
O97 C94 1.252 . S
O98 In91 2.326 . S
O98 C94 1.260 . S
O99 In91 2.266 . S
O99 C96 1.252 . S
O100 In91 2.326 . S
O100 C96 1.260 . S
C101 O92 1.240 . S
C101 O93 1.252 . S
O102 In91 2.294 . S
O102 C95 1.240 . S
O103 In91 2.326 . S
O103 C95 1.252 . S
C104 C105 1.349 . S
C104 C106 1.327 . S
C104 H129 0.950 . S
C105 C104 1.349 . S
C105 C121 1.349 . S
C106 C104 1.327 . S
C106 C125 1.429 . S
C106 H130 0.950 . S
C107 C124 1.574 1_545 S
C107 C126 1.368 . S
C107 H131 0.949 . S
H108 C112 0.949 . S
C109 C110 1.349 . S
C109 C111 1.327 . S
C109 H132 0.950 . S
C110 C109 1.349 . S
C110 C122 1.349 . S
C111 C109 1.327 . S
C111 C127 1.429 . S
C111 H133 0.950 . S
C112 H108 0.949 . S
C112 C120 1.574 1_565 S
C112 C128 1.368 . S
H113 C121 0.950 . S
H114 C119 0.950 . S
H115 C120 0.949 . S
H116 C122 0.950 . S
H117 C123 0.950 . S
H118 C124 0.949 . S
C119 H114 0.950 . S
C119 C121 1.327 . S
C119 C125 1.429 . S
C120 C112 1.574 1_545 S
C120 H115 0.949 . S
C120 C126 1.368 1_655 S
C121 C105 1.349 . S
C121 H113 0.950 . S
C121 C119 1.327 . S
C122 C110 1.349 . S
C122 H116 0.950 . S
C122 C123 1.327 . S
C123 H117 0.950 . S
C123 C122 1.327 . S
C123 C127 1.429 . S
C124 C107 1.574 1_565 S
C124 H118 0.949 . S
C124 C128 1.368 1_455 S
C125 C106 1.429 . S
C125 C119 1.429 . S
C125 C126 1.523 . S
C126 C107 1.368 . S
C126 C120 1.368 1_455 S
C126 C125 1.523 . S
C127 C111 1.429 . S
C127 C123 1.429 . S
C127 C128 1.523 . S
C128 C112 1.368 . S
C128 C124 1.368 1_655 S
C128 C127 1.523 . S
H129 C104 0.950 . S
H130 C106 0.950 . S
H131 C107 0.949 . S
H132 C109 0.950 . S
H133 C111 0.950 . S
C134 C135 1.349 . S
C134 C136 1.327 . S
C134 H159 0.950 . S
C135 C134 1.349 . S
C135 C151 1.349 . S
C136 C134 1.327 . S
C136 C155 1.429 . S
C136 H160 0.950 . S
C137 C154 1.574 . S
C137 C156 1.368 . S
C137 H161 0.949 . S
H138 C142 0.949 . S
C139 C140 1.349 . S
C139 C141 1.327 . S
C139 H162 0.950 . S
C140 C139 1.349 . S
C140 C152 1.349 . S
C141 C139 1.327 . S
C141 C157 1.429 . S
C141 H163 0.950 . S
C142 H138 0.949 . S
C142 C150 1.574 . S
C142 C158 1.368 . S
H143 C151 0.950 . S
H144 C149 0.950 . S
H145 C150 0.949 . S
H146 C152 0.950 . S
H147 C153 0.950 . S
H148 C154 0.949 . S
C149 H144 0.950 . S
C149 C151 1.327 . S
C149 C155 1.429 . S
C150 C142 1.574 . S
C150 H145 0.949 . S
C150 C156 1.368 . S
C151 C135 1.349 . S
C151 H143 0.950 . S
C151 C149 1.327 . S
C152 C140 1.349 . S
C152 H146 0.950 . S
C152 C153 1.327 . S
C153 H147 0.950 . S
C153 C152 1.327 . S
C153 C157 1.429 . S
C154 C137 1.574 . S
C154 H148 0.949 . S
C154 C158 1.368 . S
C155 C136 1.429 . S
C155 C149 1.429 . S
C155 C156 1.523 . S
C156 C137 1.368 . S
C156 C150 1.368 . S
C156 C155 1.523 . S
C157 C141 1.429 . S
C157 C153 1.429 . S
C157 C158 1.523 . S
C158 C142 1.368 . S
C158 C154 1.368 . S
C158 C157 1.523 . S
H159 C134 0.950 . S
H160 C136 0.950 . S
H161 C137 0.949 . S
H162 C139 0.950 . S
H163 C141 0.950 . S
C164 C165 1.349 . S
C164 C166 1.327 . S
C164 H189 0.950 . S
C165 C164 1.349 . S
C165 C181 1.349 . S
C166 C164 1.327 . S
C166 C185 1.429 . S
C166 H190 0.950 . S
C167 C184 1.574 . S
C167 C186 1.368 . S
C167 H191 0.949 . S
H168 C172 0.949 . S
C169 C170 1.349 . S
C169 C171 1.327 . S
C169 H192 0.950 . S
C170 C169 1.349 . S
C170 C182 1.349 . S
C171 C169 1.327 . S
C171 C187 1.429 . S
C171 H193 0.950 . S
C172 H168 0.949 . S
C172 C180 1.574 . S
C172 C188 1.368 . S
H173 C181 0.950 . S
H174 C179 0.950 . S
H175 C180 0.949 . S
H176 C182 0.950 . S
H177 C183 0.950 . S
H178 C184 0.949 . S
C179 H174 0.950 . S
C179 C181 1.327 . S
C179 C185 1.429 . S
C180 C172 1.574 . S
C180 H175 0.949 . S
C180 C186 1.368 . S
C181 C165 1.349 . S
C181 H173 0.950 . S
C181 C179 1.327 . S
C182 C170 1.349 . S
C182 H176 0.950 . S
C182 C183 1.327 . S
C183 H177 0.950 . S
C183 C182 1.327 . S
C183 C187 1.429 . S
C184 C167 1.574 . S
C184 H178 0.949 . S
C184 C188 1.368 . S
C185 C166 1.429 . S
C185 C179 1.429 . S
C185 C186 1.523 . S
C186 C167 1.368 . S
C186 C180 1.368 . S
C186 C185 1.523 . S
C187 C171 1.429 . S
C187 C183 1.429 . S
C187 C188 1.523 . S
C188 C172 1.368 . S
C188 C184 1.368 . S
C188 C187 1.523 . S
H189 C164 0.950 . S
H190 C166 0.950 . S
H191 C167 0.949 . S
H192 C169 0.950 . S
H193 C171 0.950 . S
C194 C195 1.349 . S
C194 C196 1.327 . S
C194 H219 0.950 . S
C195 C194 1.349 . S
C195 C211 1.349 . S
C196 C194 1.327 . S
C196 C215 1.429 . S
C196 H220 0.950 . S
C197 C214 1.574 1_455 S
C197 C216 1.368 . S
C197 H221 0.949 . S
H198 C202 0.949 . S
C199 C200 1.349 . S
C199 C201 1.327 . S
C199 H222 0.950 . S
C200 C199 1.349 . S
C200 C212 1.349 . S
C201 C199 1.327 . S
C201 C217 1.429 . S
C201 H223 0.950 . S
C202 H198 0.949 . S
C202 C210 1.574 1_655 S
C202 C218 1.368 . S
H203 C211 0.950 . S
H204 C209 0.950 . S
H205 C210 0.949 . S
H206 C212 0.950 . S
H207 C213 0.950 . S
H208 C214 0.949 . S
C209 H204 0.950 . S
C209 C211 1.327 . S
C209 C215 1.429 . S
C210 C202 1.574 1_455 S
C210 H205 0.949 . S
C210 C216 1.368 1_565 S
C211 C195 1.349 . S
C211 H203 0.950 . S
C211 C209 1.327 . S
C212 C200 1.349 . S
C212 H206 0.950 . S
C212 C213 1.327 . S
C213 H207 0.950 . S
C213 C212 1.327 . S
C213 C217 1.429 . S
C214 C197 1.574 1_655 S
C214 H208 0.949 . S
C214 C218 1.368 1_545 S
C215 C196 1.429 . S
C215 C209 1.429 . S
C215 C216 1.523 . S
C216 C197 1.368 . S
C216 C210 1.368 1_545 S
C216 C215 1.523 . S
C217 C201 1.429 . S
C217 C213 1.429 . S
C217 C218 1.523 . S
C218 C202 1.368 . S
C218 C214 1.368 1_565 S
C218 C217 1.523 . S
H219 C194 0.950 . S
H220 C196 0.950 . S
H221 C197 0.949 . S
H222 C199 0.950 . S
H223 C201 0.950 . S
C224 C225 1.349 . S
C224 C226 1.327 . S
C224 H249 0.950 . S
C225 C224 1.349 . S
C225 C241 1.349 . S
C226 C224 1.327 . S
C226 C245 1.429 . S
C226 H250 0.950 . S
C227 C244 1.574 . S
C227 C246 1.368 . S
C227 H251 0.949 . S
H228 C232 0.949 . S
C229 C230 1.349 . S
C229 C231 1.327 . S
C229 H252 0.950 . S
C230 C229 1.349 . S
C230 C242 1.349 . S
C231 C229 1.327 . S
C231 C247 1.429 . S
C231 H253 0.950 . S
C232 H228 0.949 . S
C232 C240 1.574 . S
C232 C248 1.368 . S
H233 C241 0.950 . S
H234 C239 0.950 . S
H235 C240 0.949 . S
H236 C242 0.950 . S
H237 C243 0.950 . S
H238 C244 0.949 . S
C239 H234 0.950 . S
C239 C241 1.327 . S
C239 C245 1.429 . S
C240 C232 1.574 . S
C240 H235 0.949 . S
C240 C246 1.368 . S
C241 C225 1.349 . S
C241 H233 0.950 . S
C241 C239 1.327 . S
C242 C230 1.349 . S
C242 H236 0.950 . S
C242 C243 1.327 . S
C243 H237 0.950 . S
C243 C242 1.327 . S
C243 C247 1.429 . S
C244 C227 1.574 . S
C244 H238 0.949 . S
C244 C248 1.368 . S
C245 C226 1.429 . S
C245 C239 1.429 . S
C245 C246 1.523 . S
C246 C227 1.368 . S
C246 C240 1.368 . S
C246 C245 1.523 . S
C247 C231 1.429 . S
C247 C243 1.429 . S
C247 C248 1.523 . S
C248 C232 1.368 . S
C248 C244 1.368 . S
C248 C247 1.523 . S
H249 C224 0.950 . S
H250 C226 0.950 . S
H251 C227 0.949 . S
H252 C229 0.950 . S
H253 C231 0.950 . S
C254 C255 1.349 . S
C254 C256 1.327 . S
C254 H279 0.950 . S
C255 C254 1.349 . S
C255 C271 1.349 . S
C256 C254 1.327 . S
C256 C275 1.429 . S
C256 H280 0.950 . S
C257 C274 1.574 1_556 S
C257 C276 1.368 . S
C257 H281 0.949 . S
H258 C262 0.949 . S
C259 C260 1.349 . S
C259 C261 1.327 . S
C259 H282 0.950 . S
C260 C259 1.349 . S
C260 C272 1.349 . S
C261 C259 1.327 . S
C261 C277 1.429 . S
C261 H283 0.950 . S
C262 H258 0.949 . S
C262 C270 1.574 1_554 S
C262 C278 1.368 . S
H263 C271 0.950 . S
H264 C269 0.950 . S
H265 C270 0.949 . S
H266 C272 0.950 . S
H267 C273 0.950 . S
H268 C274 0.949 . S
C269 H264 0.950 . S
C269 C271 1.327 . S
C269 C275 1.429 . S
C270 C262 1.574 1_556 S
C270 H265 0.949 . S
C270 C276 1.368 . S
C271 C255 1.349 . S
C271 H263 0.950 . S
C271 C269 1.327 . S
C272 C260 1.349 . S
C272 H266 0.950 . S
C272 C273 1.327 . S
C273 H267 0.950 . S
C273 C272 1.327 . S
C273 C277 1.429 . S
C274 C257 1.574 1_554 S
C274 H268 0.949 . S
C274 C278 1.368 . S
C275 C256 1.429 . S
C275 C269 1.429 . S
C275 C276 1.523 . S
C276 C257 1.368 . S
C276 C270 1.368 . S
C276 C275 1.523 . S
C277 C261 1.429 . S
C277 C273 1.429 . S
C277 C278 1.523 . S
C278 C262 1.368 . S
C278 C274 1.368 . S
C278 C277 1.523 . S
H279 C254 0.950 . S
H280 C256 0.950 . S
H281 C257 0.949 . S
H282 C259 0.950 . S
H283 C261 0.950 . S
C284 C285 1.349 . S
C284 C286 1.327 . S
C284 H309 0.950 . S
C285 C284 1.349 . S
C285 C301 1.349 . S
C286 C284 1.327 . S
C286 C305 1.429 . S
C286 H310 0.950 . S
C287 C304 1.574 . S
C287 C306 1.368 . S
C287 H311 0.949 . S
H288 C292 0.949 . S
C289 C290 1.349 . S
C289 C291 1.327 . S
C289 H312 0.950 . S
C290 C289 1.349 . S
C290 C302 1.349 . S
C291 C289 1.327 . S
C291 C307 1.429 . S
C291 H313 0.950 . S
C292 H288 0.949 . S
C292 C300 1.574 . S
C292 C308 1.368 . S
H293 C301 0.950 . S
H294 C299 0.950 . S
H295 C300 0.949 . S
H296 C302 0.950 . S
H297 C303 0.950 . S
H298 C304 0.949 . S
C299 H294 0.950 . S
C299 C301 1.327 . S
C299 C305 1.429 . S
C300 C292 1.574 . S
C300 H295 0.949 . S
C300 C306 1.368 . S
C301 C285 1.349 . S
C301 H293 0.950 . S
C301 C299 1.327 . S
C302 C290 1.349 . S
C302 H296 0.950 . S
C302 C303 1.327 . S
C303 H297 0.950 . S
C303 C302 1.327 . S
C303 C307 1.429 . S
C304 C287 1.574 . S
C304 H298 0.949 . S
C304 C308 1.368 . S
C305 C286 1.429 . S
C305 C299 1.429 . S
C305 C306 1.523 . S
C306 C287 1.368 . S
C306 C300 1.368 . S
C306 C305 1.523 . S
C307 C291 1.429 . S
C307 C303 1.429 . S
C307 C308 1.523 . S
C308 C292 1.368 . S
C308 C304 1.368 . S
C308 C307 1.523 . S
H309 C284 0.950 . S
H310 C286 0.950 . S
H311 C287 0.949 . S
H312 C289 0.950 . S
H313 C291 0.950 . S
C314 C315 1.349 . S
C314 C316 1.327 . S
C314 H339 0.950 . S
C315 C314 1.349 . S
C315 C331 1.349 . S
C316 C314 1.327 . S
C316 C335 1.429 . S
C316 H340 0.950 . S
C317 C334 1.574 1_556 S
C317 C336 1.368 . S
C317 H341 0.949 . S
H318 C322 0.949 . S
C319 C320 1.349 . S
C319 C321 1.327 . S
C319 H342 0.950 . S
C320 C319 1.349 . S
C320 C332 1.349 . S
C321 C319 1.327 . S
C321 C337 1.429 . S
C321 H343 0.950 . S
C322 H318 0.949 . S
C322 C330 1.574 1_554 S
C322 C338 1.368 . S
H323 C331 0.950 . S
H324 C329 0.950 . S
H325 C330 0.949 . S
H326 C332 0.950 . S
H327 C333 0.950 . S
H328 C334 0.949 . S
C329 H324 0.950 . S
C329 C331 1.327 . S
C329 C335 1.429 . S
C330 C322 1.574 1_556 S
C330 H325 0.949 . S
C330 C336 1.368 . S
C331 C315 1.349 . S
C331 H323 0.950 . S
C331 C329 1.327 . S
C332 C320 1.349 . S
C332 H326 0.950 . S
C332 C333 1.327 . S
C333 H327 0.950 . S
C333 C332 1.327 . S
C333 C337 1.429 . S
C334 C317 1.574 1_554 S
C334 H328 0.949 . S
C334 C338 1.368 . S
C335 C316 1.429 . S
C335 C329 1.429 . S
C335 C336 1.523 . S
C336 C317 1.368 . S
C336 C330 1.368 . S
C336 C335 1.523 . S
C337 C321 1.429 . S
C337 C333 1.429 . S
C337 C338 1.523 . S
C338 C322 1.368 . S
C338 C334 1.368 . S
C338 C337 1.523 . S
H339 C314 0.950 . S
H340 C316 0.950 . S
H341 C317 0.949 . S
H342 C319 0.950 . S
H343 C321 0.950 . S
C344 C345 1.349 . S
C344 C346 1.327 . S
C344 H369 0.950 . S
C345 C344 1.349 . S
C345 C361 1.349 . S
C346 C344 1.327 . S
C346 C365 1.429 . S
C346 H370 0.950 . S
C347 C364 1.574 . S
C347 C366 1.368 . S
C347 H371 0.949 . S
H348 C352 0.949 . S
C349 C350 1.349 . S
C349 C351 1.327 . S
C349 H372 0.950 . S
C350 C349 1.349 . S
C350 C362 1.349 . S
C351 C349 1.327 . S
C351 C367 1.429 . S
C351 H373 0.950 . S
C352 H348 0.949 . S
C352 C360 1.574 . S
C352 C368 1.368 . S
H353 C361 0.950 . S
H354 C359 0.950 . S
H355 C360 0.949 . S
H356 C362 0.950 . S
H357 C363 0.950 . S
H358 C364 0.949 . S
C359 H354 0.950 . S
C359 C361 1.327 . S
C359 C365 1.429 . S
C360 C352 1.574 . S
C360 H355 0.949 . S
C360 C366 1.368 . S
C361 C345 1.349 . S
C361 H353 0.950 . S
C361 C359 1.327 . S
C362 C350 1.349 . S
C362 H356 0.950 . S
C362 C363 1.327 . S
C363 H357 0.950 . S
C363 C362 1.327 . S
C363 C367 1.429 . S
C364 C347 1.574 . S
C364 H358 0.949 . S
C364 C368 1.368 . S
C365 C346 1.429 . S
C365 C359 1.429 . S
C365 C366 1.523 . S
C366 C347 1.368 . S
C366 C360 1.368 . S
C366 C365 1.523 . S
C367 C351 1.429 . S
C367 C363 1.429 . S
C367 C368 1.523 . S
C368 C352 1.368 . S
C368 C364 1.368 . S
C368 C367 1.523 . S
H369 C344 0.950 . S
H370 C346 0.950 . S
H371 C347 0.949 . S
H372 C349 0.950 . S
H373 C351 0.950 . S
C374 C375 1.349 . S
C374 C376 1.327 . S
C374 H399 0.950 . S
C375 C374 1.349 . S
C375 C391 1.349 . S
C376 C374 1.327 . S
C376 C395 1.429 . S
C376 H400 0.950 . S
C377 C394 1.574 . S
C377 C396 1.368 . S
C377 H401 0.949 . S
H378 C382 0.949 . S
C379 C380 1.349 . S
C379 C381 1.327 1_545 S
C379 H402 0.950 . S
C380 C379 1.349 . S
C380 C392 1.360 . S
C381 C379 1.327 1_565 S
C381 C397 1.429 . S
C381 H403 0.950 . S
C382 H378 0.949 . S
C382 C390 1.574 . S
C382 C398 1.368 . S
H383 C391 0.950 . S
H384 C389 0.950 . S
H385 C390 0.949 . S
H386 C392 0.951 . S
H387 C393 0.950 . S
H388 C394 0.949 . S
C389 H384 0.950 . S
C389 C391 1.327 . S
C389 C395 1.429 . S
C390 C382 1.574 . S
C390 H385 0.949 . S
C390 C396 1.368 . S
C391 C375 1.349 . S
C391 H383 0.950 . S
C391 C389 1.327 . S
C392 C380 1.360 . S
C392 H386 0.951 . S
C392 C393 1.315 1_545 S
C393 H387 0.950 . S
C393 C392 1.315 1_565 S
C393 C397 1.429 . S
C394 C377 1.574 . S
C394 H388 0.949 . S
C394 C398 1.368 . S
C395 C376 1.429 . S
C395 C389 1.429 . S
C395 C396 1.523 . S
C396 C377 1.368 . S
C396 C390 1.368 . S
C396 C395 1.523 . S
C397 C381 1.429 . S
C397 C393 1.429 . S
C397 C398 1.523 . S
C398 C382 1.368 . S
C398 C394 1.368 . S
C398 C397 1.523 . S
H399 C374 0.950 . S
H400 C376 0.950 . S
H401 C377 0.949 . S
H402 C379 0.950 . S
H403 C381 0.950 . S
C404 C405 1.349 . S
C404 C406 1.327 . S
C404 H429 0.950 . S
C405 C404 1.349 . S
C405 C421 1.349 . S
C406 C404 1.327 . S
C406 C425 1.429 . S
C406 H430 0.950 . S
C407 C424 1.574 . S
C407 C426 1.368 . S
C407 H431 0.949 . S
H408 C412 0.949 . S
C409 C410 1.349 . S
C409 C411 1.327 . S
C409 H432 0.950 . S
C410 C409 1.349 . S
C410 C422 1.349 . S
C411 C409 1.327 . S
C411 C427 1.429 . S
C411 H433 0.950 . S
C412 H408 0.949 . S
C412 C420 1.574 . S
C412 C428 1.368 . S
H413 C421 0.950 . S
H414 C419 0.950 . S
H415 C420 0.949 . S
H416 C422 0.950 . S
H417 C423 0.950 . S
H418 C424 0.949 . S
C419 H414 0.950 . S
C419 C421 1.327 . S
C419 C425 1.429 . S
C420 C412 1.574 . S
C420 H415 0.949 . S
C420 C426 1.368 . S
C421 C405 1.349 . S
C421 H413 0.950 . S
C421 C419 1.327 . S
C422 C410 1.349 . S
C422 H416 0.950 . S
C422 C423 1.327 . S
C423 H417 0.950 . S
C423 C422 1.327 . S
C423 C427 1.429 . S
C424 C407 1.574 . S
C424 H418 0.949 . S
C424 C428 1.368 . S
C425 C406 1.429 . S
C425 C419 1.429 . S
C425 C426 1.523 . S
C426 C407 1.368 . S
C426 C420 1.368 . S
C426 C425 1.523 . S
C427 C411 1.429 . S
C427 C423 1.429 . S
C427 C428 1.523 . S
C428 C412 1.368 . S
C428 C424 1.368 . S
C428 C427 1.523 . S
H429 C404 0.950 . S
H430 C406 0.950 . S
H431 C407 0.949 . S
H432 C409 0.950 . S
H433 C411 0.950 . S
C434 C435 1.349 . S
C434 C436 1.327 . S
C434 H459 0.950 . S
C435 C434 1.349 . S
C435 C451 1.349 . S
C436 C434 1.327 . S
C436 C455 1.429 . S
C436 H460 0.950 . S
C437 C454 1.574 . S
C437 C456 1.368 . S
C437 H461 0.949 . S
H438 C442 0.949 . S
C439 C440 1.349 . S
C439 C441 1.327 1_565 S
C439 H462 0.950 . S
C440 C439 1.349 . S
C440 C452 1.361 . S
C441 C439 1.327 1_545 S
C441 C457 1.429 . S
C441 H463 0.950 . S
C442 H438 0.949 . S
C442 C450 1.574 . S
C442 C458 1.368 . S
H443 C451 0.950 . S
H444 C449 0.950 . S
H445 C450 0.949 . S
H446 C452 0.951 . S
H447 C453 0.950 . S
H448 C454 0.949 . S
C449 H444 0.950 . S
C449 C451 1.327 . S
C449 C455 1.429 . S
C450 C442 1.574 . S
C450 H445 0.949 . S
C450 C456 1.368 . S
C451 C435 1.349 . S
C451 H443 0.950 . S
C451 C449 1.327 . S
C452 C440 1.361 . S
C452 H446 0.951 . S
C452 C453 1.314 1_565 S
C453 H447 0.950 . S
C453 C452 1.314 1_545 S
C453 C457 1.429 . S
C454 C437 1.574 . S
C454 H448 0.949 . S
C454 C458 1.368 . S
C455 C436 1.429 . S
C455 C449 1.429 . S
C455 C456 1.523 . S
C456 C437 1.368 . S
C456 C450 1.368 . S
C456 C455 1.523 . S
C457 C441 1.429 . S
C457 C453 1.429 . S
C457 C458 1.523 . S
C458 C442 1.368 . S
C458 C454 1.368 . S
C458 C457 1.523 . S
H459 C434 0.950 . S
H460 C436 0.950 . S
H461 C437 0.949 . S
H462 C439 0.950 . S
H463 C441 0.950 . S
C464 C465 1.349 . S
C464 C466 1.327 1_455 S
C464 H489 0.950 . S
C465 C464 1.349 . S
C465 C481 1.349 . S
C466 C464 1.327 1_655 S
C466 C485 1.429 . S
C466 H490 0.950 . S
C467 C484 1.574 . S
C467 C486 1.368 . S
C467 H491 0.949 . S
H468 C472 0.949 . S
C469 C470 1.349 . S
C469 C471 1.327 . S
C469 H492 0.950 . S
C470 C469 1.349 . S
C470 C482 1.349 . S
C471 C469 1.327 . S
C471 C487 1.429 . S
C471 H493 0.950 . S
C472 H468 0.949 . S
C472 C480 1.574 . S
C472 C488 1.368 . S
H473 C481 0.950 . S
H474 C479 0.950 . S
H475 C480 0.949 . S
H476 C482 0.950 . S
H477 C483 0.950 . S
H478 C484 0.949 . S
C479 H474 0.950 . S
C479 C481 1.327 1_655 S
C479 C485 1.429 . S
C480 C472 1.574 . S
C480 H475 0.949 . S
C480 C486 1.368 . S
C481 C465 1.349 . S
C481 H473 0.950 . S
C481 C479 1.327 1_455 S
C482 C470 1.349 . S
C482 H476 0.950 . S
C482 C483 1.327 . S
C483 H477 0.950 . S
C483 C482 1.327 . S
C483 C487 1.429 . S
C484 C467 1.574 . S
C484 H478 0.949 . S
C484 C488 1.368 . S
C485 C466 1.429 . S
C485 C479 1.429 . S
C485 C486 1.523 . S
C486 C467 1.368 . S
C486 C480 1.368 . S
C486 C485 1.523 . S
C487 C471 1.429 . S
C487 C483 1.429 . S
C487 C488 1.523 . S
C488 C472 1.368 . S
C488 C484 1.368 . S
C488 C487 1.523 . S
H489 C464 0.950 . S
H490 C466 0.950 . S
H491 C467 0.949 . S
H492 C469 0.950 . S
H493 C471 0.950 . S
C494 C495 1.349 . S
C494 C496 1.327 . S
C494 H519 0.950 . S
C495 C494 1.349 . S
C495 C511 1.349 . S
C496 C494 1.327 . S
C496 C515 1.429 . S
C496 H520 0.950 . S
C497 C514 1.574 . S
C497 C516 1.368 . S
C497 H521 0.949 . S
H498 C502 0.949 . S
C499 C500 1.349 . S
C499 C501 1.327 . S
C499 H522 0.950 . S
C500 C499 1.349 . S
C500 C512 1.349 . S
C501 C499 1.327 . S
C501 C517 1.429 . S
C501 H523 0.950 . S
C502 H498 0.949 . S
C502 C510 1.574 . S
C502 C518 1.368 . S
H503 C511 0.950 . S
H504 C509 0.950 . S
H505 C510 0.949 . S
H506 C512 0.950 . S
H507 C513 0.950 . S
H508 C514 0.949 . S
C509 H504 0.950 . S
C509 C511 1.327 . S
C509 C515 1.429 . S
C510 C502 1.574 . S
C510 H505 0.949 . S
C510 C516 1.368 . S
C511 C495 1.349 . S
C511 H503 0.950 . S
C511 C509 1.327 . S
C512 C500 1.349 . S
C512 H506 0.950 . S
C512 C513 1.327 . S
C513 H507 0.950 . S
C513 C512 1.327 . S
C513 C517 1.429 . S
C514 C497 1.574 . S
C514 H508 0.949 . S
C514 C518 1.368 . S
C515 C496 1.429 . S
C515 C509 1.429 . S
C515 C516 1.523 . S
C516 C497 1.368 . S
C516 C510 1.368 . S
C516 C515 1.523 . S
C517 C501 1.429 . S
C517 C513 1.429 . S
C517 C518 1.523 . S
C518 C502 1.368 . S
C518 C514 1.368 . S
C518 C517 1.523 . S
H519 C494 0.950 . S
H520 C496 0.950 . S
H521 C497 0.949 . S
H522 C499 0.950 . S
H523 C501 0.950 . S
C524 C525 1.349 . S
C524 C526 1.327 . S
C524 H549 0.950 . S
C525 C524 1.349 . S
C525 C541 1.349 . S
C526 C524 1.327 . S
C526 C545 1.429 . S
C526 H550 0.950 . S
C527 C544 1.574 . S
C527 C546 1.368 . S
C527 H551 0.949 . S
H528 C532 0.949 . S
C529 C530 1.349 . S
C529 C531 1.327 1_655 S
C529 H552 0.950 . S
C530 C529 1.349 . S
C530 C542 1.349 . S
C531 C529 1.327 1_455 S
C531 C547 1.429 . S
C531 H553 0.950 . S
C532 H528 0.949 . S
C532 C540 1.574 . S
C532 C548 1.368 . S
H533 C541 0.950 . S
H534 C539 0.950 . S
H535 C540 0.949 . S
H536 C542 0.950 . S
H537 C543 0.950 . S
H538 C544 0.949 . S
C539 H534 0.950 . S
C539 C541 1.327 . S
C539 C545 1.429 . S
C540 C532 1.574 . S
C540 H535 0.949 . S
C540 C546 1.368 . S
C541 C525 1.349 . S
C541 H533 0.950 . S
C541 C539 1.327 . S
C542 C530 1.349 . S
C542 H536 0.950 . S
C542 C543 1.327 1_655 S
C543 H537 0.950 . S
C543 C542 1.327 1_455 S
C543 C547 1.429 . S
C544 C527 1.574 . S
C544 H538 0.949 . S
C544 C548 1.368 . S
C545 C526 1.429 . S
C545 C539 1.429 . S
C545 C546 1.523 . S
C546 C527 1.368 . S
C546 C540 1.368 . S
C546 C545 1.523 . S
C547 C531 1.429 . S
C547 C543 1.429 . S
C547 C548 1.523 . S
C548 C532 1.368 . S
C548 C544 1.368 . S
C548 C547 1.523 . S
H549 C524 0.950 . S
H550 C526 0.950 . S
H551 C527 0.949 . S
H552 C529 0.950 . S
H553 C531 0.950 . S
C554 C555 1.349 . S
C554 C556 1.327 . S
C554 H579 0.950 . S
C555 C554 1.349 . S
C555 C571 1.349 . S
C556 C554 1.327 . S
C556 C575 1.429 . S
C556 H580 0.950 . S
C557 C574 1.574 . S
C557 C576 1.368 . S
C557 H581 0.949 . S
H558 C562 0.949 . S
C559 C560 1.349 . S
C559 C561 1.327 . S
C559 H582 0.950 . S
C560 C559 1.349 . S
C560 C572 1.349 . S
C561 C559 1.327 . S
C561 C577 1.429 . S
C561 H583 0.950 . S
C562 H558 0.949 . S
C562 C570 1.574 . S
C562 C578 1.368 . S
H563 C571 0.950 . S
H564 C569 0.950 . S
H565 C570 0.949 . S
H566 C572 0.950 . S
H567 C573 0.950 . S
H568 C574 0.949 . S
C569 H564 0.950 . S
C569 C571 1.327 . S
C569 C575 1.429 . S
C570 C562 1.574 . S
C570 H565 0.949 . S
C570 C576 1.368 . S
C571 C555 1.349 . S
C571 H563 0.950 . S
C571 C569 1.327 . S
C572 C560 1.349 . S
C572 H566 0.950 . S
C572 C573 1.327 . S
C573 H567 0.950 . S
C573 C572 1.327 . S
C573 C577 1.429 . S
C574 C557 1.574 . S
C574 H568 0.949 . S
C574 C578 1.368 . S
C575 C556 1.429 . S
C575 C569 1.429 . S
C575 C576 1.523 . S
C576 C557 1.368 . S
C576 C570 1.368 . S
C576 C575 1.523 . S
C577 C561 1.429 . S
C577 C573 1.429 . S
C577 C578 1.523 . S
C578 C562 1.368 . S
C578 C574 1.368 . S
C578 C577 1.523 . S
H579 C554 0.950 . S
H580 C556 0.950 . S
H581 C557 0.949 . S
H582 C559 0.950 . S
H583 C561 0.950 . S
C105 C5 0.642 . S
C110 C29 0.642 . S
C135 C16 0.642 . S
C140 C42 0.642 . S
C165 C55 0.642 . S
C170 C81 0.642 . S
C195 C68 0.642 . S
C200 C94 0.642 . S
C225 C10 1.438 . S
C230 C69 1.438 . S
C255 C17 1.438 . S
C260 C82 1.438 . S
C285 C95 1.438 . S
C290 C30 1.438 . S
C315 C43 1.438 . S
C320 C56 1.438 . S
C345 C57 1.703 . S
C350 C4 1.729 . S
C375 C23 1.729 . S
C380 C70 1.703 . S
C405 C36 1.729 . S
C410 C83 1.703 . S
C435 C49 1.729 . S
C440 C96 1.703 . S
C465 C3 1.703 . S
C470 C62 1.729 . S
C495 C75 1.729 . S
C500 C18 1.703 . S
C525 C88 1.729 . S
C530 C31 1.703 . S
C555 C44 1.703 . S
C560 C101 1.729 . S
