# Generated by pormake.
# Topology rac, (4)-cn, num edge types: 1
# Building blocks:
#     Node 0, Type 0, BuildingBlock: CEKHIL_clean_sbu_0, # of connection points: 4
#     Node 1, Type 0, BuildingBlock: CEKHIL_clean_sbu_0, # of connection points: 4
#     Node 2, Type 0, BuildingBlock: CEKHIL_clean_sbu_0, # of connection points: 4
#     Node 3, Type 0, BuildingBlock: CEKHIL_clean_sbu_0, # of connection points: 4
#     Node 4, Type 0, BuildingBlock: CEKHIL_clean_sbu_0, # of connection points: 4
#     Node 5, Type 0, BuildingBlock: CEKHIL_clean_sbu_0, # of connection points: 4
#     Node 6, Type 0, BuildingBlock: CEKHIL_clean_sbu_0, # of connection points: 4
#     Node 7, Type 0, BuildingBlock: CEKHIL_clean_sbu_0, # of connection points: 4
#     Edge 8, Type (0, 0), BuildingBlock: XUDNAN_clean_linker_2, # of connection points: 2
#     Edge 9, Type (0, 0), BuildingBlock: XUDNAN_clean_linker_2, # of connection points: 2
#     Edge 10, Type (0, 0), BuildingBlock: XUDNAN_clean_linker_2, # of connection points: 2
#     Edge 11, Type (0, 0), BuildingBlock: XUDNAN_clean_linker_2, # of connection points: 2
#     Edge 12, Type (0, 0), BuildingBlock: XUDNAN_clean_linker_2, # of connection points: 2
#     Edge 13, Type (0, 0), BuildingBlock: XUDNAN_clean_linker_2, # of connection points: 2
#     Edge 14, Type (0, 0), BuildingBlock: XUDNAN_clean_linker_2, # of connection points: 2
#     Edge 15, Type (0, 0), BuildingBlock: XUDNAN_clean_linker_2, # of connection points: 2
#     Edge 16, Type (0, 0), BuildingBlock: XUDNAN_clean_linker_2, # of connection points: 2
#     Edge 17, Type (0, 0), BuildingBlock: XUDNAN_clean_linker_2, # of connection points: 2
#     Edge 18, Type (0, 0), BuildingBlock: XUDNAN_clean_linker_2, # of connection points: 2
#     Edge 19, Type (0, 0), BuildingBlock: XUDNAN_clean_linker_2, # of connection points: 2
#     Edge 20, Type (0, 0), BuildingBlock: XUDNAN_clean_linker_2, # of connection points: 2
#     Edge 21, Type (0, 0), BuildingBlock: XUDNAN_clean_linker_2, # of connection points: 2
#     Edge 22, Type (0, 0), BuildingBlock: XUDNAN_clean_linker_2, # of connection points: 2
#     Edge 23, Type (0, 0), BuildingBlock: XUDNAN_clean_linker_2, # of connection points: 2
# Relax obj value: 0.228
# Max RMSD: 0.071
# Mean RMSD: 0.071
data_MOF--net-rac--node1-CEKHIL_clean_sbu_0--edge1-XUDNAN_clean_linker_2
_symmetry_space_group_name_H-M    P1
_symmetry_Int_Tables_number       1
_symmetry_cell_setting            triclinic
loop_
_symmetry_equiv_pos_as_xyz
'x, y, z'
_cell_length_a     41.136265
_cell_length_b     21.157996
_cell_length_c     35.742225
_cell_angle_alpha  89.994886
_cell_angle_beta   90.007158
_cell_angle_gamma 89.992393
loop_
_atom_site_label
_atom_site_type_symbol
_atom_site_fract_x
_atom_site_fract_y
_atom_site_fract_z
_atom_type_partial_charge
Co0 Co 0.38096 0.29768 0.05579 0.0
O1 O 0.40347 0.37585 0.06297 0.0
O2 O 0.41667 0.30961 0.01854 0.0
C3 C 0.3848 0.27534 0.11761 0.0
O4 O 0.35958 0.2105 0.04345 0.0
Co5 Co 0.31569 0.28599 0.09734 0.0
O6 O 0.32516 0.19563 0.0916 0.0
C7 C 0.31805 0.34621 0.02283 0.0
C8 C 0.42287 0.36249 0.03606 0.0
C9 C 0.33963 0.17531 0.06257 0.0
O10 O 0.34906 0.34056 0.02201 0.0
O11 O 0.30037 0.32853 0.05038 0.0
O12 O 0.40748 0.25904 0.09442 0.0
O13 O 0.361 0.30689 0.10311 0.0
Co14 Co 0.13718 0.71607 0.0541 0.0
O15 O 0.10891 0.64374 0.05456 0.0
O16 O 0.10364 0.72168 0.01455 0.0
C17 C 0.13302 0.72874 0.11674 0.0
O18 O 0.16485 0.79847 0.04797 0.0
Co19 Co 0.20124 0.70119 0.09873 0.0
O20 O 0.2016 0.79365 0.09462 0.0
C21 C 0.19653 0.65175 0.02155 0.0
C22 C 0.09309 0.66722 0.02686 0.0
C23 C 0.18828 0.8232 0.06765 0.0
O24 O 0.16707 0.67084 0.01899 0.0
O25 O 0.2138 0.65734 0.05117 0.0
O26 O 0.112 0.75416 0.09429 0.0
O27 O 0.15471 0.69371 0.10091 0.0
Co28 Co 0.37885 0.24012 0.44671 0.0
O29 O 0.39839 0.16194 0.43119 0.0
O30 O 0.40954 0.20674 0.48494 0.0
C31 C 0.38734 0.28396 0.39002 0.0
O32 O 0.35981 0.32208 0.47024 0.0
Co33 Co 0.31763 0.29012 0.40382 0.0
O34 O 0.33981 0.36866 0.41981 0.0
C35 C 0.3111 0.19638 0.46559 0.0
C36 C 0.41439 0.15942 0.46209 0.0
C37 C 0.34518 0.36952 0.4547 0.0
O38 O 0.34203 0.19334 0.47 0.0
O39 O 0.29696 0.23076 0.44089 0.0
O40 O 0.40983 0.28609 0.41554 0.0
O41 O 0.36092 0.25513 0.39938 0.0
Co42 Co 0.12829 0.77029 0.44422 0.0
O43 O 0.10324 0.84022 0.42583 0.0
O44 O 0.09359 0.79559 0.48 0.0
C45 C 0.12634 0.72007 0.38846 0.0
O46 O 0.15225 0.69499 0.46985 0.0
Co47 Co 0.19474 0.74628 0.40531 0.0
O48 O 0.18845 0.66145 0.42685 0.0
C49 C 0.18897 0.84372 0.46426 0.0
C50 C 0.08587 0.83935 0.45573 0.0
C51 C 0.17364 0.65451 0.4578 0.0
O52 O 0.15892 0.83009 0.46893 0.0
O53 O 0.2071 0.81763 0.43953 0.0
O54 O 0.10316 0.71288 0.41276 0.0
O55 O 0.14885 0.75931 0.39799 0.0
Co56 Co 0.63112 0.73775 0.9428 0.0
O57 O 0.60099 0.66879 0.93523 0.0
O58 O 0.60095 0.73018 0.98497 0.0
C59 C 0.62559 0.77354 0.88357 0.0
O60 O 0.65994 0.81395 0.95907 0.0
Co61 Co 0.69415 0.74283 0.89541 0.0
O62 O 0.69731 0.83022 0.91394 0.0
C63 C 0.69045 0.66024 0.96211 0.0
C64 C 0.58846 0.68175 0.96744 0.0
C65 C 0.68343 0.84643 0.94422 0.0
O66 O 0.66154 0.67925 0.9689 0.0
O67 O 0.70708 0.67785 0.93366 0.0
O68 O 0.60529 0.79087 0.9095 0.0
O69 O 0.64749 0.73352 0.89387 0.0
Co70 Co 0.8838 0.28468 0.94327 0.0
O71 O 0.90242 0.36594 0.93277 0.0
O72 O 0.91453 0.31145 0.9831 0.0
C73 C 0.89251 0.25187 0.88421 0.0
O74 O 0.8656 0.19801 0.96122 0.0
Co75 Co 0.82264 0.24203 0.89775 0.0
O76 O 0.84579 0.1618 0.90781 0.0
C77 C 0.81584 0.32282 0.96552 0.0
C78 C 0.91873 0.3629 0.96343 0.0
C79 C 0.85119 0.15385 0.94236 0.0
O80 O 0.84678 0.32575 0.96977 0.0
O81 O 0.80172 0.29294 0.93884 0.0
O82 O 0.9151 0.24587 0.90936 0.0
O83 O 0.86585 0.27812 0.89531 0.0
Co84 Co 0.62175 0.77483 0.54869 0.0
O85 O 0.59639 0.8515 0.55218 0.0
O86 O 0.58904 0.7798 0.50856 0.0
C87 C 0.61686 0.75432 0.61052 0.0
O88 O 0.64529 0.68925 0.53788 0.0
Co89 Co 0.68596 0.76561 0.5941 0.0
O90 O 0.68098 0.67459 0.58495 0.0
C91 C 0.68502 0.82731 0.51952 0.0
C92 C 0.58025 0.83381 0.52311 0.0
C93 C 0.66641 0.65497 0.55582 0.0
O94 O 0.6543 0.81895 0.51635 0.0
O95 O 0.70161 0.81117 0.54829 0.0
O96 O 0.59457 0.73626 0.58715 0.0
O97 O 0.64046 0.7864 0.59621 0.0
Co98 Co 0.87727 0.21104 0.55164 0.0
O99 O 0.90811 0.14297 0.55435 0.0
O100 O 0.90622 0.20967 0.50741 0.0
C101 C 0.88581 0.23962 0.61163 0.0
O102 O 0.84582 0.2876 0.54297 0.0
Co103 Co 0.81812 0.1963 0.60572 0.0
O104 O 0.81382 0.28679 0.59416 0.0
C105 C 0.81772 0.1332 0.53204 0.0
C106 C 0.91985 0.16006 0.52262 0.0
C107 C 0.82286 0.31212 0.56355 0.0
O108 O 0.84603 0.15492 0.52454 0.0
O109 O 0.80293 0.14242 0.56308 0.0
O110 O 0.90447 0.26126 0.58531 0.0
O111 O 0.86458 0.19857 0.60112 0.0
H112 H 0.32699 0.07327 0.1048 0.0
H113 H 0.31813 0.14303 0.99154 0.0
H114 H 0.27671 0.06027 0.97828 0.0
H115 H 0.30963 0.90362 0.08782 0.0
H116 H 0.28687 0.89875 0.13082 0.0
H117 H 0.3203 0.95329 0.12692 0.0
H118 H 0.28155 0.0441 0.14652 0.0
H119 H 0.24771 0.99049 0.14886 0.0
H120 H 0.24552 0.05927 0.11922 0.0
H121 H 0.2304 0.97125 0.98123 0.0
H122 H 0.19083 0.8869 -0.00126 0.0
H123 H 0.22683 0.89382 0.11267 0.0
C124 C 0.31759 0.0692 0.07657 0.0
C125 C 0.3266 0.1137 0.04896 0.0
C126 C 0.31263 0.10818 0.01281 0.0
C127 C 0.28852 0.06193 0.00532 0.0
C128 C 0.2784 0.02194 0.03436 0.0
C129 C 0.29303 0.02521 0.06918 0.0
C130 C 0.27624 0.98297 0.09725 0.0
C131 C 0.29964 0.9316 0.11152 0.0
C132 C 0.26192 0.02154 0.12986 0.0
C133 C 0.24967 0.95514 0.07318 0.0
C134 C 0.25117 0.97685 0.03679 0.0
C135 C 0.22919 0.95446 0.0098 0.0
C136 C 0.20635 0.90714 0.02006 0.0
C137 C 0.20527 0.88348 0.05719 0.0
C138 C 0.22662 0.91033 0.08398 0.0
H139 H 0.17497 0.52749 0.44799 0.0
H140 H 0.21211 0.67742 0.51789 0.0
H141 H 0.25894 0.61043 0.53544 0.0
H142 H 0.20826 0.38815 0.50807 0.0
H143 H 0.21652 0.34405 0.46599 0.0
H144 H 0.18199 0.3965 0.46799 0.0
H145 H 0.20299 0.45387 0.40879 0.0
H146 H 0.23778 0.40298 0.40694 0.0
H147 H 0.2433 0.48743 0.4089 0.0
H148 H 0.30942 0.53819 0.53001 0.0
H149 H 0.35278 0.46454 0.50826 0.0
H150 H 0.28066 0.35937 0.44595 0.0
C151 C 0.19161 0.54421 0.46928 0.0
C152 C 0.18918 0.60696 0.48254 0.0
C153 C 0.21262 0.62869 0.50859 0.0
C154 C 0.23971 0.5911 0.51824 0.0
C155 C 0.2427 0.53097 0.5024 0.0
C156 C 0.21848 0.50683 0.4795 0.0
C157 C 0.22887 0.44449 0.46234 0.0
C158 C 0.20765 0.39007 0.47698 0.0
C159 C 0.22821 0.44746 0.41923 0.0
C160 C 0.26333 0.43923 0.47704 0.0
C161 C 0.27108 0.48897 0.50041 0.0
C162 C 0.30316 0.49783 0.51287 0.0
C163 C 0.32773 0.45569 0.50056 0.0
C164 C 0.32006 0.40539 0.47606 0.0
C165 C 0.2872 0.39642 0.46545 0.0
H166 H 0.68574 0.97245 0.92876 0.0
H167 H 0.72464 0.82934 0.00243 0.0
H168 H 0.77041 0.90008 0.01884 0.0
H169 H 0.75467 0.01865 0.89026 0.0
H170 H 0.74661 0.10228 0.88766 0.0
H171 H 0.71341 0.04737 0.88879 0.0
H172 H 0.68939 0.10333 0.94699 0.0
H173 H 0.72234 0.15951 0.94573 0.0
H174 H 0.71444 0.11507 0.98778 0.0
H175 H 0.81894 0.97835 0.01492 0.0
H176 H 0.8602 0.05844 0.99569 0.0
H177 H 0.78692 0.15221 0.92871 0.0
C178 C 0.7027 0.95783 0.95025 0.0
C179 C 0.7009 0.89629 0.96538 0.0
C180 C 0.72472 0.87727 0.99175 0.0
C181 C 0.75111 0.91699 0.00085 0.0
C182 C 0.7531 0.97644 0.98399 0.0
C183 C 0.72878 0.99749 0.96016 0.0
C184 C 0.73772 0.06057 0.94297 0.0
C185 C 0.73814 0.05691 0.8999 0.0
C186 C 0.7146 0.11271 0.95669 0.0
C187 C 0.77161 0.06978 0.95872 0.0
C188 C 0.78024 0.02145 0.98268 0.0
C189 C 0.81197 0.01736 0.99706 0.0
C190 C 0.83534 0.06308 0.98614 0.0
C191 C 0.82684 0.1119 0.96094 0.0
C192 C 0.79423 0.11579 0.94829 0.0
H193 H 0.67279 0.54322 0.59133 0.0
H194 H 0.69642 0.63834 0.48789 0.0
H195 H 0.73897 0.55793 0.4749 0.0
H196 H 0.7493 0.51705 0.61913 0.0
H197 H 0.74272 0.44067 0.64014 0.0
H198 H 0.70968 0.49583 0.63668 0.0
H199 H 0.6749 0.41422 0.60032 0.0
H200 H 0.70743 0.35769 0.60483 0.0
H201 H 0.69147 0.37674 0.55924 0.0
H202 H 0.78593 0.47105 0.47933 0.0
H203 H 0.82563 0.38759 0.49828 0.0
H204 H 0.77062 0.36001 0.60066 0.0
C205 C 0.68559 0.54496 0.56486 0.0
C206 C 0.68042 0.59588 0.54006 0.0
C207 C 0.69892 0.59832 0.50658 0.0
C208 C 0.72362 0.55329 0.49934 0.0
C209 C 0.72948 0.50575 0.52575 0.0
C210 C 0.71025 0.50093 0.55747 0.0
C211 C 0.72266 0.45019 0.58355 0.0
C212 C 0.73162 0.47762 0.62212 0.0
C213 C 0.69763 0.39653 0.58718 0.0
C214 C 0.75255 0.42852 0.56253 0.0
C215 C 0.75624 0.45972 0.52893 0.0
C216 C 0.78287 0.44628 0.50558 0.0
C217 C 0.80558 0.39912 0.51667 0.0
C218 C 0.8019 0.36675 0.55118 0.0
C219 C 0.77495 0.38311 0.57411 0.0
H220 H 0.34055 0.28848 0.17462 0.0
H221 H 0.44347 0.26431 0.15195 0.0
H222 H 0.45558 0.27698 0.21901 0.0
H223 H 0.34795 0.40321 0.24901 0.0
H224 H 0.31583 0.36955 0.27692 0.0
H225 H 0.31491 0.36181 0.22671 0.0
H226 H 0.31114 0.23989 0.23269 0.0
H227 H 0.31134 0.24745 0.28284 0.0
H228 H 0.34112 0.19824 0.26003 0.0
H229 H 0.45693 0.29445 0.28802 0.0
H230 H 0.44647 0.29524 0.35608 0.0
H231 H 0.34269 0.302 0.3347 0.0
C232 C 0.36557 0.28566 0.1839 0.0
C233 C 0.39106 0.2757 0.15818 0.0
C234 C 0.42352 0.27163 0.17125 0.0
C235 C 0.43071 0.27948 0.20922 0.0
C236 C 0.40515 0.29059 0.23382 0.0
C237 C 0.37317 0.29221 0.2219 0.0
C238 C 0.35014 0.30006 0.25459 0.0
C239 C 0.33109 0.36237 0.25161 0.0
C240 C 0.32709 0.24301 0.25773 0.0
C241 C 0.37419 0.30198 0.28667 0.0
C242 C 0.40583 0.29796 0.27398 0.0
C243 C 0.43227 0.29763 0.29838 0.0
C244 C 0.42612 0.29864 0.33695 0.0
C245 C 0.39382 0.29874 0.3505 0.0
C246 C 0.36764 0.30228 0.32501 0.0
H247 H 0.17333 0.71418 0.33458 0.0
H248 H 0.06995 0.68831 0.35324 0.0
H249 H 0.06099 0.68367 0.28508 0.0
H250 H 0.16826 0.81377 0.25946 0.0
H251 H 0.20162 0.78142 0.23296 0.0
H252 H 0.20116 0.77406 0.28311 0.0
H253 H 0.20629 0.65237 0.27794 0.0
H254 H 0.20763 0.65934 0.2277 0.0
H255 H 0.17777 0.60905 0.24951 0.0
H256 H 0.06195 0.70219 0.21638 0.0
H257 H 0.07393 0.72039 0.14959 0.0
H258 H 0.17715 0.72505 0.1742 0.0
C259 C 0.14899 0.70539 0.32426 0.0
C260 C 0.12231 0.70159 0.34904 0.0
C261 C 0.09075 0.69072 0.3347 0.0
C262 C 0.08539 0.68846 0.29603 0.0
C263 C 0.11198 0.69558 0.27228 0.0
C264 C 0.14331 0.70175 0.28573 0.0
C265 C 0.16743 0.71046 0.25407 0.0
C266 C 0.18568 0.77369 0.25764 0.0
C267 C 0.19118 0.65446 0.2522 0.0
C268 C 0.14458 0.7108 0.22087 0.0
C269 C 0.11268 0.70271 0.23212 0.0
C270 C 0.08686 0.70693 0.20707 0.0
C271 C 0.09388 0.71805 0.16933 0.0
C272 C 0.12643 0.7238 0.157 0.0
C273 C 0.15209 0.72011 0.18305 0.0
H274 H 0.66856 0.76741 0.82544 0.0
H275 H 0.56678 0.79803 0.85152 0.0
H276 H 0.55335 0.79286 0.78421 0.0
H277 H 0.66843 0.86264 0.73881 0.0
H278 H 0.6967 0.81054 0.7157 0.0
H279 H 0.69814 0.81964 0.76579 0.0
H280 H 0.6923 0.69833 0.77321 0.0
H281 H 0.69006 0.689 0.7232 0.0
H282 H 0.65795 0.65871 0.75244 0.0
H283 H 0.55031 0.77146 0.71515 0.0
H284 H 0.559 0.75751 0.64722 0.0
H285 H 0.66318 0.74974 0.66533 0.0
C286 C 0.64357 0.77443 0.81684 0.0
C287 C 0.61867 0.78319 0.84354 0.0
C288 C 0.58623 0.79195 0.83142 0.0
C289 C 0.57834 0.78845 0.79331 0.0
C290 C 0.60329 0.77743 0.76776 0.0
C291 C 0.63537 0.77241 0.77886 0.0
C292 C 0.6576 0.76178 0.74566 0.0
C293 C 0.68163 0.81695 0.74123 0.0
C294 C 0.67552 0.69817 0.74884 0.0
C295 C 0.63294 0.76066 0.71422 0.0
C296 C 0.6017 0.76862 0.72767 0.0
C297 C 0.57469 0.76619 0.7042 0.0
C298 C 0.57983 0.75758 0.66576 0.0
C299 C 0.61173 0.75274 0.65124 0.0
C300 C 0.63856 0.75362 0.67583 0.0
H301 H 0.84316 0.23198 0.66971 0.0
H302 H 0.94428 0.26848 0.64301 0.0
H303 H 0.95769 0.26913 0.71048 0.0
H304 H 0.84122 0.33443 0.75219 0.0
H305 H 0.81367 0.28313 0.777 0.0
H306 H 0.8125 0.28662 0.72668 0.0
H307 H 0.82058 0.16517 0.72402 0.0
H308 H 0.82254 0.16153 0.77431 0.0
H309 H 0.85542 0.13023 0.74659 0.0
H310 H 0.96058 0.25679 0.78046 0.0
H311 H 0.95122 0.25312 0.84879 0.0
H312 H 0.84768 0.23182 0.82949 0.0
C313 C 0.86802 0.24094 0.67818 0.0
C314 C 0.89276 0.25 0.65144 0.0
C315 C 0.925 0.26192 0.66327 0.0
C316 C 0.93287 0.26175 0.70143 0.0
C317 C 0.90807 0.25072 0.72715 0.0
C318 C 0.87616 0.24227 0.71609 0.0
C319 C 0.85388 0.23378 0.74936 0.0
C320 C 0.82885 0.28771 0.75143 0.0
C321 C 0.83713 0.1688 0.7485 0.0
C322 C 0.87832 0.23784 0.78086 0.0
C323 C 0.90951 0.24661 0.76747 0.0
C324 C 0.93624 0.2505 0.79132 0.0
C325 C 0.93074 0.24772 0.83 0.0
C326 C 0.89876 0.24219 0.84418 0.0
C327 C 0.87237 0.23604 0.81927 0.0
H328 H 0.4566 0.3979 0.97004 0.0
H329 H 0.45368 0.42497 0.09045 0.0
H330 H 0.49417 0.50924 0.08566 0.0
H331 H 0.54573 0.42903 0.96141 0.0
H332 H 0.54158 0.46987 0.91741 0.0
H333 H 0.51321 0.40844 0.92986 0.0
H334 H 0.46557 0.48667 0.9201 0.0
H335 H 0.49382 0.54852 0.90817 0.0
H336 H 0.4651 0.56016 0.94563 0.0
H337 H 0.53113 0.59715 0.06884 0.0
H338 H 0.5688 0.67474 0.04061 0.0
H339 H 0.55162 0.59136 0.93143 0.0
C340 C 0.46512 0.42058 0.99535 0.0
C341 C 0.45163 0.40463 0.03064 0.0
C342 C 0.46326 0.43636 0.06302 0.0
C343 C 0.48634 0.48463 0.0607 0.0
C344 C 0.49826 0.50105 0.02573 0.0
C345 C 0.48871 0.46943 0.99361 0.0
C346 C 0.50584 0.49769 0.95971 0.0
C347 C 0.5279 0.44832 0.94099 0.0
C348 C 0.4811 0.52487 0.93175 0.0
C349 C 0.5258 0.55013 0.97796 0.0
C350 C 0.52077 0.55132 0.01607 0.0
C351 C 0.5356 0.59637 0.03901 0.0
C352 C 0.5568 0.64064 0.02273 0.0
C353 C 0.56329 0.63935 0.9839 0.0
C354 C 0.54727 0.59359 0.96128 0.0
H355 H 0.0765 0.54483 0.04174 0.0
H356 H 0.04467 0.70893 0.97878 0.0
H357 H 0.99557 0.64957 0.95867 0.0
H358 H 0.0498 0.42739 0.97524 0.0
H359 H 0.03792 0.37155 0.0108 0.0
H360 H 0.07013 0.42711 0.01993 0.0
H361 H 0.03943 0.46654 0.07868 0.0
H362 H 0.00693 0.41158 0.06953 0.0
H363 H 0.99825 0.49473 0.07414 0.0
H364 H 0.94962 0.57262 0.9468 0.0
H365 H 0.91232 0.48299 0.93907 0.0
H366 H 0.97418 0.36668 0.00936 0.0
C367 C 0.05929 0.56854 0.02361 0.0
C368 C 0.06447 0.63197 0.01189 0.0
C369 C 0.04137 0.66061 0.988 0.0
C370 C 0.01334 0.62723 0.97666 0.0
C371 C 0.00886 0.56515 0.98929 0.0
C372 C 0.0314 0.53588 0.01194 0.0
C373 C 0.02127 0.46836 0.02106 0.0
C374 C 0.04627 0.4208 0.00584 0.0
C375 C 0.01617 0.45983 0.06337 0.0
C376 C 0.98928 0.46383 3e-05 0.0
C377 C 0.98261 0.52048 0.98211 0.0
C378 C 0.95475 0.5282 0.9606 0.0
C379 C 0.93365 0.47666 0.95644 0.0
C380 C 0.94018 0.41733 0.97354 0.0
C381 C 0.96823 0.41133 0.99624 0.0
H382 H 0.56077 0.95027 0.54898 0.0
H383 H 0.53837 0.8095 0.46451 0.0
H384 H 0.49313 0.87673 0.44184 0.0
H385 H 0.47798 0.99521 0.56986 0.0
H386 H 0.48731 0.0778 0.57597 0.0
H387 H 0.51776 0.01884 0.58576 0.0
H388 H 0.55723 0.0733 0.53951 0.0
H389 H 0.52698 0.13258 0.52967 0.0
H390 H 0.54443 0.08726 0.49198 0.0
H391 H 0.45056 0.95858 0.42856 0.0
H392 H 0.41441 0.05003 0.42311 0.0
H393 H 0.46372 0.14113 0.51608 0.0
C394 C 0.54637 0.93339 0.52567 0.0
C395 C 0.55321 0.87415 0.50852 0.0
C396 C 0.53373 0.85434 0.47809 0.0
C397 C 0.50793 0.89229 0.46511 0.0
C398 C 0.50184 0.9501 0.48279 0.0
C399 C 0.52057 0.97076 0.51234 0.0
C400 C 0.50908 0.03529 0.52607 0.0
C401 C 0.49734 0.03154 0.56684 0.0
C402 C 0.53604 0.08505 0.52153 0.0
C403 C 0.4809 0.04802 0.49952 0.0
C404 C 0.47726 0.99787 0.47496 0.0
C405 C 0.45329 0.998 0.4476 0.0
C406 C 0.43281 0.05067 0.44479 0.0
C407 C 0.43603 0.10356 0.46906 0.0
C408 C 0.46037 0.10169 0.49718 0.0
H409 H 0.9563 0.06903 0.55704 0.0
H410 H 0.94272 0.161 0.44965 0.0
H411 H 0.98295 0.08741 0.42158 0.0
H412 H 0.04328 0.04062 0.54768 0.0
H413 H 0.04154 0.96544 0.57133 0.0
H414 H 0.01269 0.0265 0.58281 0.0
H415 H 0.96543 0.94942 0.56856 0.0
H416 H 0.9941 0.88831 0.55662 0.0
H417 H 0.96334 0.91158 0.52343 0.0
H418 H 0.02259 1.00072 0.40503 0.0
H419 H 0.06167 0.91366 0.40086 0.0
H420 H 0.05069 0.87691 0.51974 0.0
C421 C 0.96191 0.07427 0.52761 0.0
C422 C 0.94623 0.12114 0.50547 0.0
C423 C 0.95445 0.12605 0.46718 0.0
C424 C 0.97716 0.08413 0.45104 0.0
C425 C 0.99159 0.03781 0.47361 0.0
C426 C 0.98455 0.03313 0.51119 0.0
C427 C 1.00341 0.97919 0.52934 0.0
C428 C 0.02661 0.00446 0.55958 0.0
C429 C 0.98017 0.92917 0.54544 0.0
C430 C 0.02209 0.95347 0.49599 0.0
C431 C 0.01475 0.98813 0.46419 0.0
C432 C 0.0286 0.97374 0.42981 0.0
C433 C 0.05089 0.92376 0.42784 0.0
C434 C 0.0596 0.88792 0.46 0.0
C435 C 0.04458 0.90281 0.49459 0.0
H436 H 0.25803 0.65705 0.99628 0.0
H437 H 0.16594 0.56404 0.97875 0.0
H438 H 0.19352 0.47726 0.94623 0.0
H439 H 0.30212 0.56375 0.90601 0.0
H440 H 0.3392 0.56482 0.93285 0.0
H441 H 0.31286 0.63302 0.93259 0.0
H442 H 0.31117 0.63044 0.00466 0.0
H443 H 0.33696 0.56302 0.00509 0.0
H444 H 0.29797 0.55933 0.02821 0.0
H445 H 0.22731 0.38716 0.95187 0.0
H446 H 0.26246 0.31393 0.98653 0.0
H447 H 0.33695 0.45685 0.99384 0.0
C448 C 0.2439 0.61994 0.98326 0.0
C449 C 0.21037 0.61578 0.99036 0.0
C450 C 0.19182 0.56763 0.97349 0.0
C451 C 0.2074 0.51825 0.95473 0.0
C452 C 0.24134 0.51878 0.95247 0.0
C453 C 0.2594 0.57054 0.96433 0.0
C454 C 0.29523 0.55434 0.96673 0.0
C455 C 0.31341 0.5805 0.9325 0.0
C456 C 0.31114 0.57801 0.00339 0.0
C457 C 0.29311 0.48302 0.9646 0.0
C458 C 0.26229 0.46364 0.95346 0.0
C459 C 0.25183 0.40143 0.95887 0.0
C460 C 0.27177 0.36009 0.97894 0.0
C461 C 0.30214 0.38067 0.99243 0.0
C462 C 0.31399 0.44062 0.98261 0.0
H463 H 0.3268 0.0786 0.4872 0.0
H464 H 0.24968 0.21746 0.49145 0.0
H465 H 0.21201 0.13653 0.51538 0.0
H466 H 0.28751 0.97654 0.44301 0.0
H467 H 0.30224 0.90474 0.46431 0.0
H468 H 0.32654 0.97456 0.46607 0.0
H469 H 0.3288 0.96803 0.5383 0.0
H470 H 0.30457 0.89701 0.5368 0.0
H471 H 0.29166 0.96315 0.5649 0.0
H472 H 0.18001 0.04115 0.51858 0.0
H473 H 0.15604 0.94264 0.49492 0.0
H474 H 0.25227 0.86195 0.4828 0.0
C475 C 0.30241 0.09229 0.49524 0.0
C476 C 0.29094 0.15363 0.48786 0.0
C477 C 0.25873 0.17032 0.49714 0.0
C478 C 0.23735 0.12479 0.51118 0.0
C479 C 0.24857 0.06291 0.51535 0.0
C480 C 0.28058 0.04664 0.50787 0.0
C481 C 0.28466 0.9758 0.50447 0.0
C482 C 0.30114 0.95693 0.46725 0.0
C483 C 0.30353 0.94945 0.53814 0.0
C484 C 0.24945 0.95572 0.50591 0.0
C485 C 0.22927 0.00591 0.51487 0.0
C486 C 0.19554 1.00112 0.5126 0.0
C487 C 0.18213 0.94507 0.49888 0.0
C488 C 0.20255 0.89545 0.48666 0.0
C489 C 0.23636 0.89961 0.49203 0.0
H490 H 0.75321 0.64868 0.98343 0.0
H491 H 0.65834 0.56281 0.9948 0.0
H492 H 0.68339 0.4673 0.02131 0.0
H493 H 0.79133 0.54016 0.94752 0.0
H494 H 0.82982 0.543 0.97168 0.0
H495 H 0.80486 0.61181 0.9701 0.0
H496 H 0.80498 0.61787 0.04238 0.0
H497 H 0.83036 0.54836 0.04417 0.0
H498 H 0.79255 0.55038 0.06961 0.0
H499 H 0.71666 0.37409 0.01796 0.0
H500 H 0.75518 0.2964 0.99217 0.0
H501 H 0.83069 0.43852 0.99089 0.0
C502 C 0.73788 0.61064 0.99337 0.0
C503 C 0.70421 0.61199 0.98679 0.0
C504 C 0.68432 0.56225 -0.00024 0.0
C505 C 0.69837 0.50803 0.01514 0.0
C506 C 0.73214 0.50548 0.01844 0.0
C507 C 0.75166 0.55673 0.00942 0.0
C508 C 0.7872 0.53852 0.00889 0.0
C509 C 0.80421 0.55949 0.97236 0.0
C510 C 0.8048 0.56536 0.04333 0.0
C511 C 0.78404 0.46748 0.0118 0.0
C512 C 0.75225 0.44945 0.01916 0.0
C513 C 0.74186 0.38719 0.01405 0.0
C514 C 0.76373 0.34343 -0.00097 0.0
C515 C 0.79569 0.3621 0.98997 0.0
C516 C 0.8065 0.42333 -0.00122 0.0
H517 H 0.66951 0.94378 0.49763 0.0
H518 H 0.73945 0.79451 0.48143 0.0
H519 H 0.77801 0.87015 0.45415 0.0
H520 H 0.70873 0.06586 0.42085 0.0
H521 H 0.69997 0.12899 0.45316 0.0
H522 H 0.67162 0.06458 0.44764 0.0
H523 H 0.67351 0.04537 0.51893 0.0
H524 H 0.70185 0.10818 0.52457 0.0
H525 H 0.71214 0.03017 0.54123 0.0
H526 H 0.81485 0.95715 0.45611 0.0
H527 H 0.84482 0.04027 0.48978 0.0
H528 H 0.75463 0.13765 0.5125 0.0
C529 C 0.69217 0.92727 0.48571 0.0
C530 C 0.70177 0.86429 0.49098 0.0
C531 C 0.73181 0.84295 0.47697 0.0
C532 C 0.75374 0.88577 0.46124 0.0
C533 C 0.74547 0.94982 0.46071 0.0
C534 C 0.71489 0.97057 0.47196 0.0
C535 C 0.71505 0.04086 0.48005 0.0
C536 C 0.69784 0.0772 0.44853 0.0
C537 C 0.69983 0.05688 0.51848 0.0
C538 C 0.75124 0.05313 0.47905 0.0
C539 C 0.76806 1.00195 0.46448 0.0
C540 C 0.80194 0.99815 0.46644 0.0
C541 C 0.81882 0.04521 0.48588 0.0
C542 C 0.80158 0.09406 0.50391 0.0
C543 C 0.76787 0.1001 0.49868 0.0
loop_
_geom_bond_atom_site_label_1
_geom_bond_atom_site_label_2
_geom_bond_distance
_geom_bond_site_symmetry_2
_ccdc_geom_bond_type
Co0 O1 2.216 . S
Co0 O2 2.089 1_554 S
Co0 O4 2.004 . S
Co0 O10 2.021 . S
Co0 O12 2.137 . S
Co0 O13 2.244 . S
O1 Co0 2.216 . S
O1 C8 1.247 . S
O2 Co0 2.089 1_556 S
O2 C8 1.260 1_556 S
C3 O12 1.247 . S
C3 O13 1.272 . S
O4 Co0 2.004 . S
O4 C9 1.259 . S
Co5 O6 2.061 . S
Co5 O11 2.052 . S
Co5 O13 2.135 . S
O6 Co5 2.061 . S
O6 C9 1.235 . S
C7 O10 1.238 . S
C7 O11 1.241 . S
C8 O1 1.247 . S
C8 O2 1.260 1_554 S
C9 O4 1.259 . S
C9 O6 1.235 . S
O10 Co0 2.021 . S
O10 C7 1.238 . S
O11 Co5 2.052 . S
O11 C7 1.241 . S
O12 Co0 2.137 . S
O12 C3 1.247 . S
O13 Co0 2.244 . S
O13 C3 1.272 . S
O13 Co5 2.135 . S
Co14 O15 2.216 . S
Co14 O16 2.089 1_554 S
Co14 O18 2.004 . S
Co14 O24 2.021 . S
Co14 O26 2.137 . S
Co14 O27 2.244 . S
O15 Co14 2.216 . S
O15 C22 1.247 . S
O16 Co14 2.089 1_556 S
O16 C22 1.260 1_556 S
C17 O26 1.247 . S
C17 O27 1.272 . S
O18 Co14 2.004 . S
O18 C23 1.259 . S
Co19 O20 2.061 . S
Co19 O25 2.052 . S
Co19 O27 2.135 . S
O20 Co19 2.061 . S
O20 C23 1.235 . S
C21 O24 1.238 . S
C21 O25 1.241 . S
C22 O15 1.247 . S
C22 O16 1.260 1_554 S
C23 O18 1.259 . S
C23 O20 1.235 . S
O24 Co14 2.021 . S
O24 C21 1.238 . S
O25 Co19 2.052 . S
O25 C21 1.241 . S
O26 Co14 2.137 . S
O26 C17 1.247 . S
O27 Co14 2.244 . S
O27 C17 1.272 . S
O27 Co19 2.135 . S
Co28 O29 2.216 . S
Co28 O30 2.091 . S
Co28 O32 2.004 . S
Co28 O38 2.021 . S
Co28 O40 2.137 . S
Co28 O41 2.244 . S
O29 Co28 2.216 . S
O29 C36 1.247 . S
O30 Co28 2.091 . S
O30 C36 1.261 . S
C31 O40 1.247 . S
C31 O41 1.272 . S
O32 Co28 2.004 . S
O32 C37 1.259 . S
Co33 O34 2.061 . S
Co33 O39 2.052 . S
Co33 O41 2.135 . S
O34 Co33 2.061 . S
O34 C37 1.235 . S
C35 O38 1.238 . S
C35 O39 1.241 . S
C36 O29 1.247 . S
C36 O30 1.261 . S
C37 O32 1.259 . S
C37 O34 1.235 . S
O38 Co28 2.021 . S
O38 C35 1.238 . S
O39 Co33 2.052 . S
O39 C35 1.241 . S
O40 Co28 2.137 . S
O40 C31 1.247 . S
O41 Co28 2.244 . S
O41 C31 1.272 . S
O41 Co33 2.135 . S
Co42 O43 2.216 . S
Co42 O44 2.091 . S
Co42 O46 2.004 . S
Co42 O52 2.021 . S
Co42 O54 2.137 . S
Co42 O55 2.244 . S
O43 Co42 2.216 . S
O43 C50 1.247 . S
O44 Co42 2.091 . S
O44 C50 1.261 . S
C45 O54 1.247 . S
C45 O55 1.272 . S
O46 Co42 2.004 . S
O46 C51 1.259 . S
Co47 O48 2.061 . S
Co47 O53 2.052 . S
Co47 O55 2.135 . S
O48 Co47 2.061 . S
O48 C51 1.235 . S
C49 O52 1.238 . S
C49 O53 1.241 . S
C50 O43 1.247 . S
C50 O44 1.261 . S
C51 O46 1.259 . S
C51 O48 1.235 . S
O52 Co42 2.021 . S
O52 C49 1.238 . S
O53 Co47 2.052 . S
O53 C49 1.241 . S
O54 Co42 2.137 . S
O54 C45 1.247 . S
O55 Co42 2.244 . S
O55 C45 1.272 . S
O55 Co47 2.135 . S
Co56 O57 2.216 . S
Co56 O58 2.089 1_556 S
Co56 O60 2.004 . S
Co56 O66 2.021 . S
Co56 O68 2.137 . S
Co56 O69 2.244 . S
O57 Co56 2.216 . S
O57 C64 1.247 . S
O58 Co56 2.089 1_554 S
O58 C64 1.260 1_554 S
C59 O68 1.247 . S
C59 O69 1.272 . S
O60 Co56 2.004 . S
O60 C65 1.259 . S
Co61 O62 2.061 . S
Co61 O67 2.052 . S
Co61 O69 2.135 . S
O62 Co61 2.061 . S
O62 C65 1.235 . S
C63 O66 1.238 . S
C63 O67 1.241 . S
C64 O57 1.247 . S
C64 O58 1.260 1_556 S
C65 O60 1.259 . S
C65 O62 1.235 . S
O66 Co56 2.021 . S
O66 C63 1.238 . S
O67 Co61 2.052 . S
O67 C63 1.241 . S
O68 Co56 2.137 . S
O68 C59 1.247 . S
O69 Co56 2.244 . S
O69 C59 1.272 . S
O69 Co61 2.135 . S
Co70 O71 2.216 . S
Co70 O72 2.089 1_556 S
Co70 O74 2.004 . S
Co70 O80 2.021 . S
Co70 O82 2.137 . S
Co70 O83 2.244 . S
O71 Co70 2.216 . S
O71 C78 1.247 . S
O72 Co70 2.089 1_554 S
O72 C78 1.260 1_554 S
C73 O82 1.247 . S
C73 O83 1.272 . S
O74 Co70 2.004 . S
O74 C79 1.259 . S
Co75 O76 2.061 . S
Co75 O81 2.052 . S
Co75 O83 2.135 . S
O76 Co75 2.061 . S
O76 C79 1.235 . S
C77 O80 1.238 . S
C77 O81 1.241 . S
C78 O71 1.247 . S
C78 O72 1.260 1_556 S
C79 O74 1.259 . S
C79 O76 1.235 . S
O80 Co70 2.021 . S
O80 C77 1.238 . S
O81 Co75 2.052 . S
O81 C77 1.241 . S
O82 Co70 2.137 . S
O82 C73 1.247 . S
O83 Co70 2.244 . S
O83 C73 1.272 . S
O83 Co75 2.135 . S
Co84 O85 2.216 . S
Co84 O86 2.091 . S
Co84 O88 2.004 . S
Co84 O94 2.021 . S
Co84 O96 2.137 . S
Co84 O97 2.244 . S
O85 Co84 2.216 . S
O85 C92 1.247 . S
O86 Co84 2.091 . S
O86 C92 1.261 . S
C87 O96 1.247 . S
C87 O97 1.272 . S
O88 Co84 2.004 . S
O88 C93 1.259 . S
Co89 O90 2.061 . S
Co89 O95 2.052 . S
Co89 O97 2.135 . S
O90 Co89 2.061 . S
O90 C93 1.235 . S
C91 O94 1.238 . S
C91 O95 1.241 . S
C92 O85 1.247 . S
C92 O86 1.261 . S
C93 O88 1.259 . S
C93 O90 1.235 . S
O94 Co84 2.021 . S
O94 C91 1.238 . S
O95 Co89 2.052 . S
O95 C91 1.241 . S
O96 Co84 2.137 . S
O96 C87 1.247 . S
O97 Co84 2.244 . S
O97 C87 1.272 . S
O97 Co89 2.135 . S
Co98 O99 2.216 . S
Co98 O100 2.091 . S
Co98 O102 2.004 . S
Co98 O108 2.021 . S
Co98 O110 2.137 . S
Co98 O111 2.244 . S
O99 Co98 2.216 . S
O99 C106 1.247 . S
O100 Co98 2.091 . S
O100 C106 1.261 . S
C101 O110 1.247 . S
C101 O111 1.272 . S
O102 Co98 2.004 . S
O102 C107 1.259 . S
Co103 O104 2.061 . S
Co103 O109 2.052 . S
Co103 O111 2.135 . S
O104 Co103 2.061 . S
O104 C107 1.235 . S
C105 O108 1.238 . S
C105 O109 1.241 . S
C106 O99 1.247 . S
C106 O100 1.261 . S
C107 O102 1.259 . S
C107 O104 1.235 . S
O108 Co98 2.021 . S
O108 C105 1.238 . S
O109 Co103 2.052 . S
O109 C105 1.241 . S
O110 Co98 2.137 . S
O110 C101 1.247 . S
O111 Co98 2.244 . S
O111 C101 1.272 . S
O111 Co103 2.135 . S
H112 C124 0.930 . S
H113 C126 0.930 . S
H114 C127 0.930 . S
H115 C131 0.959 . S
H116 C131 0.959 . S
H117 C131 0.961 . S
H118 C132 0.960 . S
H119 C132 0.961 . S
H120 C132 0.959 . S
H121 C135 0.929 . S
H122 C136 0.931 . S
H123 C138 0.930 . S
C124 H112 0.930 . S
C124 C125 1.399 . S
C124 C129 1.399 . S
C125 C124 1.399 . S
C125 C126 1.376 1_554 S
C126 H113 0.930 . S
C126 C125 1.376 1_556 S
C126 C127 1.388 . S
C127 H114 0.930 . S
C127 C126 1.388 . S
C127 C128 1.390 1_556 S
C128 C127 1.390 1_554 S
C128 C129 1.394 . S
C128 C134 1.465 1_545 S
C129 C124 1.399 . S
C129 C128 1.394 . S
C129 C130 1.516 1_545 S
C130 C129 1.516 1_565 S
C130 C131 1.502 . S
C130 C132 1.561 1_565 S
C130 C133 1.526 . S
C131 H115 0.959 . S
C131 H116 0.959 . S
C131 H117 0.961 . S
C131 C130 1.502 . S
C132 H118 0.960 . S
C132 H119 0.961 . S
C132 H120 0.959 . S
C132 C130 1.561 1_545 S
C133 C130 1.526 . S
C133 C134 1.396 . S
C133 C138 1.390 . S
C134 C128 1.465 1_565 S
C134 C133 1.396 . S
C134 C135 1.399 1_554 S
C135 H121 0.929 . S
C135 C134 1.399 1_556 S
C135 C136 1.385 . S
C136 H122 0.931 . S
C136 C135 1.385 . S
C136 C137 1.389 1_556 S
C137 C136 1.389 1_554 S
C137 C138 1.387 . S
C138 H123 0.930 . S
C138 C133 1.390 . S
C138 C137 1.387 . S
H139 C151 0.930 . S
H140 C153 0.930 . S
H141 C154 0.930 . S
H142 C158 0.959 . S
H143 C158 0.959 . S
H144 C158 0.961 . S
H145 C159 0.960 . S
H146 C159 0.961 . S
H147 C159 0.959 . S
H148 C162 0.929 . S
H149 C163 0.931 . S
H150 C165 0.930 . S
C151 H139 0.930 . S
C151 C152 1.399 . S
C151 C156 1.399 . S
C152 C151 1.399 . S
C152 C153 1.376 . S
C153 H140 0.930 . S
C153 C152 1.376 . S
C153 C154 1.388 . S
C154 H141 0.930 . S
C154 C153 1.388 . S
C154 C155 1.390 . S
C155 C154 1.390 . S
C155 C156 1.394 . S
C155 C161 1.465 . S
C156 C151 1.399 . S
C156 C155 1.394 . S
C156 C157 1.516 . S
C157 C156 1.516 . S
C157 C158 1.502 . S
C157 C159 1.561 . S
C157 C160 1.526 . S
C158 H142 0.959 . S
C158 H143 0.959 . S
C158 H144 0.961 . S
C158 C157 1.502 . S
C159 H145 0.960 . S
C159 H146 0.961 . S
C159 H147 0.959 . S
C159 C157 1.561 . S
C160 C157 1.526 . S
C160 C161 1.396 . S
C160 C165 1.390 . S
C161 C155 1.465 . S
C161 C160 1.396 . S
C161 C162 1.399 . S
C162 H148 0.929 . S
C162 C161 1.399 . S
C162 C163 1.385 . S
C163 H149 0.931 . S
C163 C162 1.385 . S
C163 C164 1.389 . S
C164 C163 1.389 . S
C164 C165 1.387 . S
C165 H150 0.930 . S
C165 C160 1.390 . S
C165 C164 1.387 . S
H166 C178 0.930 . S
H167 C180 0.930 . S
H168 C181 0.930 . S
H169 C185 0.959 . S
H170 C185 0.959 . S
H171 C185 0.961 . S
H172 C186 0.960 . S
H173 C186 0.961 . S
H174 C186 0.959 . S
H175 C189 0.929 . S
H176 C190 0.931 . S
H177 C192 0.930 . S
C178 H166 0.930 . S
C178 C179 1.399 1_554 S
C178 C183 1.399 1_554 S
C179 C178 1.399 1_556 S
C179 C180 1.376 . S
C180 H167 0.930 . S
C180 C179 1.376 . S
C180 C181 1.388 . S
C181 H168 0.930 . S
C181 C180 1.388 . S
C181 C182 1.390 . S
C182 C181 1.390 . S
C182 C183 1.394 . S
C182 C188 1.465 1_565 S
C183 C178 1.399 1_556 S
C183 C182 1.394 . S
C183 C184 1.516 1_556 S
C184 C183 1.516 1_554 S
C184 C185 1.502 1_565 S
C184 C186 1.561 . S
C184 C187 1.526 1_564 S
C185 H169 0.959 . S
C185 H170 0.959 . S
C185 H171 0.961 . S
C185 C184 1.502 1_545 S
C186 H172 0.960 . S
C186 H173 0.961 . S
C186 H174 0.959 . S
C186 C184 1.561 . S
C187 C184 1.526 1_546 S
C187 C188 1.396 . S
C187 C192 1.390 1_556 S
C188 C182 1.465 1_545 S
C188 C187 1.396 . S
C188 C189 1.399 . S
C189 H175 0.929 . S
C189 C188 1.399 . S
C189 C190 1.385 . S
C190 H176 0.931 . S
C190 C189 1.385 . S
C190 C191 1.389 . S
C191 C190 1.389 . S
C191 C192 1.387 1_556 S
C192 H177 0.930 . S
C192 C187 1.390 1_554 S
C192 C191 1.387 1_554 S
H193 C205 0.930 . S
H194 C207 0.930 . S
H195 C208 0.930 . S
H196 C212 0.959 . S
H197 C212 0.959 . S
H198 C212 0.961 . S
H199 C213 0.960 . S
H200 C213 0.961 . S
H201 C213 0.959 . S
H202 C216 0.929 . S
H203 C217 0.931 . S
H204 C219 0.930 . S
C205 H193 0.930 . S
C205 C206 1.399 . S
C205 C210 1.399 . S
C206 C205 1.399 . S
C206 C207 1.376 . S
C207 H194 0.930 . S
C207 C206 1.376 . S
C207 C208 1.388 . S
C208 H195 0.930 . S
C208 C207 1.388 . S
C208 C209 1.390 . S
C209 C208 1.390 . S
C209 C210 1.394 . S
C209 C215 1.465 . S
C210 C205 1.399 . S
C210 C209 1.394 . S
C210 C211 1.516 . S
C211 C210 1.516 . S
C211 C212 1.502 . S
C211 C213 1.561 . S
C211 C214 1.526 . S
C212 H196 0.959 . S
C212 H197 0.959 . S
C212 H198 0.961 . S
C212 C211 1.502 . S
C213 H199 0.960 . S
C213 H200 0.961 . S
C213 H201 0.959 . S
C213 C211 1.561 . S
C214 C211 1.526 . S
C214 C215 1.396 . S
C214 C219 1.390 . S
C215 C209 1.465 . S
C215 C214 1.396 . S
C215 C216 1.399 . S
C216 H202 0.929 . S
C216 C215 1.399 . S
C216 C217 1.385 . S
C217 H203 0.931 . S
C217 C216 1.385 . S
C217 C218 1.389 . S
C218 C217 1.389 . S
C218 C219 1.387 . S
C219 H204 0.930 . S
C219 C214 1.390 . S
C219 C218 1.387 . S
H220 C232 0.930 . S
H221 C234 0.930 . S
H222 C235 0.930 . S
H223 C239 0.959 . S
H224 C239 0.959 . S
H225 C239 0.961 . S
H226 C240 0.960 . S
H227 C240 0.961 . S
H228 C240 0.959 . S
H229 C243 0.929 . S
H230 C244 0.931 . S
H231 C246 0.930 . S
C232 H220 0.930 . S
C232 C233 1.399 . S
C232 C237 1.399 . S
C233 C232 1.399 . S
C233 C234 1.376 . S
C234 H221 0.930 . S
C234 C233 1.376 . S
C234 C235 1.388 . S
C235 H222 0.930 . S
C235 C234 1.388 . S
C235 C236 1.390 . S
C236 C235 1.390 . S
C236 C237 1.394 . S
C236 C242 1.465 . S
C237 C232 1.399 . S
C237 C236 1.394 . S
C237 C238 1.516 . S
C238 C237 1.516 . S
C238 C239 1.502 . S
C238 C240 1.561 . S
C238 C241 1.526 . S
C239 H223 0.959 . S
C239 H224 0.959 . S
C239 H225 0.961 . S
C239 C238 1.502 . S
C240 H226 0.960 . S
C240 H227 0.961 . S
C240 H228 0.959 . S
C240 C238 1.561 . S
C241 C238 1.526 . S
C241 C242 1.396 . S
C241 C246 1.390 . S
C242 C236 1.465 . S
C242 C241 1.396 . S
C242 C243 1.399 . S
C243 H229 0.929 . S
C243 C242 1.399 . S
C243 C244 1.385 . S
C244 H230 0.931 . S
C244 C243 1.385 . S
C244 C245 1.389 . S
C245 C244 1.389 . S
C245 C246 1.387 . S
C246 H231 0.930 . S
C246 C241 1.390 . S
C246 C245 1.387 . S
H247 C259 0.930 . S
H248 C261 0.930 . S
H249 C262 0.930 . S
H250 C266 0.959 . S
H251 C266 0.959 . S
H252 C266 0.961 . S
H253 C267 0.960 . S
H254 C267 0.961 . S
H255 C267 0.959 . S
H256 C270 0.929 . S
H257 C271 0.931 . S
H258 C273 0.930 . S
C259 H247 0.930 . S
C259 C260 1.399 . S
C259 C264 1.399 . S
C260 C259 1.399 . S
C260 C261 1.376 . S
C261 H248 0.930 . S
C261 C260 1.376 . S
C261 C262 1.388 . S
C262 H249 0.930 . S
C262 C261 1.388 . S
C262 C263 1.390 . S
C263 C262 1.390 . S
C263 C264 1.394 . S
C263 C269 1.465 . S
C264 C259 1.399 . S
C264 C263 1.394 . S
C264 C265 1.516 . S
C265 C264 1.516 . S
C265 C266 1.502 . S
C265 C267 1.561 . S
C265 C268 1.526 . S
C266 H250 0.959 . S
C266 H251 0.959 . S
C266 H252 0.961 . S
C266 C265 1.502 . S
C267 H253 0.960 . S
C267 H254 0.961 . S
C267 H255 0.959 . S
C267 C265 1.561 . S
C268 C265 1.526 . S
C268 C269 1.396 . S
C268 C273 1.390 . S
C269 C263 1.465 . S
C269 C268 1.396 . S
C269 C270 1.399 . S
C270 H256 0.929 . S
C270 C269 1.399 . S
C270 C271 1.385 . S
C271 H257 0.931 . S
C271 C270 1.385 . S
C271 C272 1.389 . S
C272 C271 1.389 . S
C272 C273 1.387 . S
C273 H258 0.930 . S
C273 C268 1.390 . S
C273 C272 1.387 . S
H274 C286 0.930 . S
H275 C288 0.930 . S
H276 C289 0.930 . S
H277 C293 0.959 . S
H278 C293 0.959 . S
H279 C293 0.961 . S
H280 C294 0.960 . S
H281 C294 0.961 . S
H282 C294 0.959 . S
H283 C297 0.929 . S
H284 C298 0.931 . S
H285 C300 0.930 . S
C286 H274 0.930 . S
C286 C287 1.399 . S
C286 C291 1.399 . S
C287 C286 1.399 . S
C287 C288 1.376 . S
C288 H275 0.930 . S
C288 C287 1.376 . S
C288 C289 1.388 . S
C289 H276 0.930 . S
C289 C288 1.388 . S
C289 C290 1.390 . S
C290 C289 1.390 . S
C290 C291 1.394 . S
C290 C296 1.465 . S
C291 C286 1.399 . S
C291 C290 1.394 . S
C291 C292 1.516 . S
C292 C291 1.516 . S
C292 C293 1.502 . S
C292 C294 1.561 . S
C292 C295 1.526 . S
C293 H277 0.959 . S
C293 H278 0.959 . S
C293 H279 0.961 . S
C293 C292 1.502 . S
C294 H280 0.960 . S
C294 H281 0.961 . S
C294 H282 0.959 . S
C294 C292 1.561 . S
C295 C292 1.526 . S
C295 C296 1.396 . S
C295 C300 1.390 . S
C296 C290 1.465 . S
C296 C295 1.396 . S
C296 C297 1.399 . S
C297 H283 0.929 . S
C297 C296 1.399 . S
C297 C298 1.385 . S
C298 H284 0.931 . S
C298 C297 1.385 . S
C298 C299 1.389 . S
C299 C298 1.389 . S
C299 C300 1.387 . S
C300 H285 0.930 . S
C300 C295 1.390 . S
C300 C299 1.387 . S
H301 C313 0.930 . S
H302 C315 0.930 . S
H303 C316 0.930 . S
H304 C320 0.959 . S
H305 C320 0.959 . S
H306 C320 0.961 . S
H307 C321 0.960 . S
H308 C321 0.961 . S
H309 C321 0.959 . S
H310 C324 0.929 . S
H311 C325 0.931 . S
H312 C327 0.930 . S
C313 H301 0.930 . S
C313 C314 1.399 . S
C313 C318 1.399 . S
C314 C313 1.399 . S
C314 C315 1.376 . S
C315 H302 0.930 . S
C315 C314 1.376 . S
C315 C316 1.388 . S
C316 H303 0.930 . S
C316 C315 1.388 . S
C316 C317 1.390 . S
C317 C316 1.390 . S
C317 C318 1.394 . S
C317 C323 1.465 . S
C318 C313 1.399 . S
C318 C317 1.394 . S
C318 C319 1.516 . S
C319 C318 1.516 . S
C319 C320 1.502 . S
C319 C321 1.561 . S
C319 C322 1.526 . S
C320 H304 0.959 . S
C320 H305 0.959 . S
C320 H306 0.961 . S
C320 C319 1.502 . S
C321 H307 0.960 . S
C321 H308 0.961 . S
C321 H309 0.959 . S
C321 C319 1.561 . S
C322 C319 1.526 . S
C322 C323 1.396 . S
C322 C327 1.390 . S
C323 C317 1.465 . S
C323 C322 1.396 . S
C323 C324 1.399 . S
C324 H310 0.929 . S
C324 C323 1.399 . S
C324 C325 1.385 . S
C325 H311 0.931 . S
C325 C324 1.385 . S
C325 C326 1.389 . S
C326 C325 1.389 . S
C326 C327 1.387 . S
C327 H312 0.930 . S
C327 C322 1.390 . S
C327 C326 1.387 . S
H328 C340 0.930 . S
H329 C342 0.930 . S
H330 C343 0.930 . S
H331 C347 0.959 . S
H332 C347 0.959 . S
H333 C347 0.961 . S
H334 C348 0.960 . S
H335 C348 0.961 . S
H336 C348 0.959 . S
H337 C351 0.929 . S
H338 C352 0.931 . S
H339 C354 0.930 . S
C340 H328 0.930 . S
C340 C341 1.399 1_556 S
C340 C345 1.399 . S
C341 C340 1.399 1_554 S
C341 C342 1.376 . S
C342 H329 0.930 . S
C342 C341 1.376 . S
C342 C343 1.388 . S
C343 H330 0.930 . S
C343 C342 1.388 . S
C343 C344 1.390 . S
C344 C343 1.390 . S
C344 C345 1.394 1_554 S
C344 C350 1.465 . S
C345 C340 1.399 . S
C345 C344 1.394 1_556 S
C345 C346 1.516 . S
C346 C345 1.516 . S
C346 C347 1.502 . S
C346 C348 1.561 . S
C346 C349 1.526 . S
C347 H331 0.959 . S
C347 H332 0.959 . S
C347 H333 0.961 . S
C347 C346 1.502 . S
C348 H334 0.960 . S
C348 H335 0.961 . S
C348 H336 0.959 . S
C348 C346 1.561 . S
C349 C346 1.526 . S
C349 C350 1.396 1_556 S
C349 C354 1.390 . S
C350 C344 1.465 . S
C350 C349 1.396 1_554 S
C350 C351 1.399 . S
C351 H337 0.929 . S
C351 C350 1.399 . S
C351 C352 1.385 . S
C352 H338 0.931 . S
C352 C351 1.385 . S
C352 C353 1.389 1_554 S
C353 C352 1.389 1_556 S
C353 C354 1.387 . S
C354 H339 0.930 . S
C354 C349 1.390 . S
C354 C353 1.387 . S
H355 C367 0.930 . S
H356 C369 0.930 . S
H357 C370 0.930 . S
H358 C374 0.959 1_556 S
H359 C374 0.959 . S
H360 C374 0.961 . S
H361 C375 0.960 . S
H362 C375 0.961 . S
H363 C375 0.938 1_655 S
H364 C378 0.929 . S
H365 C379 0.931 . S
H366 C381 0.930 . S
C367 H355 0.930 . S
C367 C368 1.399 . S
C367 C372 1.399 . S
C368 C367 1.399 . S
C368 C369 1.376 1_554 S
C369 H356 0.930 . S
C369 C368 1.376 1_556 S
C369 C370 1.388 1_455 S
C370 H357 0.930 . S
C370 C369 1.388 1_655 S
C370 C371 1.392 . S
C371 C370 1.392 . S
C371 C372 1.371 1_656 S
C371 C377 1.483 . S
C372 C367 1.399 . S
C372 C371 1.371 1_454 S
C372 C373 1.516 . S
C373 C372 1.516 . S
C373 C374 1.502 . S
C373 C375 1.561 . S
C373 C376 1.526 1_455 S
C374 H358 0.959 1_554 S
C374 H359 0.959 . S
C374 H360 0.961 . S
C374 C373 1.502 . S
C375 H361 0.960 . S
C375 H362 0.961 . S
C375 H363 0.938 1_455 S
C375 C373 1.561 . S
C376 C373 1.526 1_655 S
C376 C377 1.396 1_554 S
C376 C381 1.390 . S
C377 C371 1.483 . S
C377 C376 1.396 1_556 S
C377 C378 1.399 . S
C378 H364 0.929 . S
C378 C377 1.399 . S
C378 C379 1.385 . S
C379 H365 0.931 . S
C379 C378 1.385 . S
C379 C380 1.389 . S
C380 C379 1.389 . S
C380 C381 1.387 1_556 S
C381 H366 0.930 . S
C381 C376 1.390 . S
C381 C380 1.387 1_554 S
H382 C394 0.930 . S
H383 C396 0.930 . S
H384 C397 0.930 . S
H385 C401 0.959 . S
H386 C401 0.959 . S
H387 C401 0.961 . S
H388 C402 0.960 1_565 S
H389 C402 0.961 . S
H390 C402 0.959 . S
H391 C405 0.929 . S
H392 C406 0.931 . S
H393 C408 0.930 . S
C394 H382 0.930 . S
C394 C395 1.399 . S
C394 C399 1.399 . S
C395 C394 1.399 . S
C395 C396 1.376 . S
C396 H383 0.930 . S
C396 C395 1.376 . S
C396 C397 1.388 . S
C397 H384 0.930 . S
C397 C396 1.388 . S
C397 C398 1.390 . S
C398 C397 1.390 . S
C398 C399 1.394 . S
C398 C404 1.465 1_565 S
C399 C394 1.399 . S
C399 C398 1.394 . S
C399 C400 1.516 . S
C400 C399 1.516 . S
C400 C401 1.502 . S
C400 C402 1.561 1_565 S
C400 C403 1.526 1_565 S
C401 H385 0.959 . S
C401 H386 0.959 . S
C401 H387 0.961 . S
C401 C400 1.502 . S
C402 H388 0.960 1_545 S
C402 H389 0.961 . S
C402 H390 0.959 . S
C402 C400 1.561 1_545 S
C403 C400 1.526 1_545 S
C403 C404 1.396 . S
C403 C408 1.390 . S
C404 C398 1.465 1_545 S
C404 C403 1.396 . S
C404 C405 1.399 . S
C405 H391 0.929 . S
C405 C404 1.399 . S
C405 C406 1.385 . S
C406 H392 0.931 . S
C406 C405 1.385 . S
C406 C407 1.389 . S
C407 C406 1.389 . S
C407 C408 1.387 . S
C408 H393 0.930 . S
C408 C403 1.390 . S
C408 C407 1.387 . S
H409 C421 0.930 . S
H410 C423 0.930 . S
H411 C424 0.930 . S
H412 C428 0.959 . S
H413 C428 0.959 . S
H414 C428 0.961 . S
H415 C429 0.960 1_645 S
H416 C429 0.961 . S
H417 C429 0.959 1_655 S
H418 C432 0.929 1_655 S
H419 C433 0.931 . S
H420 C435 0.930 . S
C421 H409 0.930 . S
C421 C422 1.399 . S
C421 C426 1.399 . S
C422 C421 1.399 . S
C422 C423 1.376 . S
C423 H410 0.930 . S
C423 C422 1.376 . S
C423 C424 1.388 . S
C424 H411 0.930 . S
C424 C423 1.388 . S
C424 C425 1.390 . S
C425 C424 1.390 . S
C425 C426 1.394 . S
C425 C431 1.465 1_645 S
C426 C421 1.399 . S
C426 C425 1.394 . S
C426 C427 1.516 1_655 S
C427 C426 1.516 1_455 S
C427 C428 1.502 . S
C427 C429 1.561 1_545 S
C427 C430 1.526 1_545 S
C428 H412 0.959 . S
C428 H413 0.959 . S
C428 H414 0.961 . S
C428 C427 1.502 . S
C429 H415 0.960 1_465 S
C429 H416 0.961 . S
C429 H417 0.959 1_455 S
C429 C427 1.561 1_565 S
C430 C427 1.526 1_565 S
C430 C431 1.396 . S
C430 C435 1.390 . S
C431 C425 1.465 1_465 S
C431 C430 1.396 . S
C431 C432 1.399 . S
C432 H418 0.929 1_455 S
C432 C431 1.399 . S
C432 C433 1.385 . S
C433 H419 0.931 . S
C433 C432 1.385 . S
C433 C434 1.389 . S
C434 C433 1.389 . S
C434 C435 1.387 . S
C435 H420 0.930 . S
C435 C430 1.390 . S
C435 C434 1.387 . S
H436 C448 0.930 1_556 S
H437 C450 0.930 . S
H438 C451 0.930 . S
H439 C455 0.959 . S
H440 C455 0.959 . S
H441 C455 0.961 . S
H442 C456 0.960 . S
H443 C456 0.961 . S
H444 C456 0.959 . S
H445 C459 0.929 . S
H446 C460 0.931 . S
H447 C462 0.930 1_556 S
C448 H436 0.930 1_554 S
C448 C449 1.399 . S
C448 C453 1.399 . S
C449 C448 1.399 . S
C449 C450 1.376 . S
C450 H437 0.930 . S
C450 C449 1.376 . S
C450 C451 1.388 . S
C451 H438 0.930 . S
C451 C450 1.388 . S
C451 C452 1.390 . S
C452 C451 1.390 . S
C452 C453 1.394 . S
C452 C458 1.465 . S
C453 C448 1.399 . S
C453 C452 1.394 . S
C453 C454 1.516 . S
C454 C453 1.516 . S
C454 C455 1.502 1_554 S
C454 C456 1.561 . S
C454 C457 1.526 . S
C455 H439 0.959 . S
C455 H440 0.959 . S
C455 H441 0.961 . S
C455 C454 1.502 1_556 S
C456 H442 0.960 . S
C456 H443 0.961 . S
C456 H444 0.959 . S
C456 C454 1.561 . S
C457 C454 1.526 . S
C457 C458 1.396 . S
C457 C462 1.390 . S
C458 C452 1.465 . S
C458 C457 1.396 . S
C458 C459 1.399 . S
C459 H445 0.929 . S
C459 C458 1.399 . S
C459 C460 1.385 . S
C460 H446 0.931 . S
C460 C459 1.385 . S
C460 C461 1.389 . S
C461 C460 1.389 . S
C461 C462 1.387 . S
C462 H447 0.930 1_554 S
C462 C457 1.390 . S
C462 C461 1.387 . S
H463 C475 0.930 . S
H464 C477 0.930 . S
H465 C478 0.930 . S
H466 C482 0.959 . S
H467 C482 0.959 . S
H468 C482 0.961 . S
H469 C483 0.960 . S
H470 C483 0.961 . S
H471 C483 0.959 . S
H472 C486 0.929 . S
H473 C487 0.931 . S
H474 C489 0.930 . S
C475 H463 0.930 . S
C475 C476 1.399 . S
C475 C480 1.399 . S
C476 C475 1.399 . S
C476 C477 1.376 . S
C477 H464 0.930 . S
C477 C476 1.376 . S
C477 C478 1.388 . S
C478 H465 0.930 . S
C478 C477 1.388 . S
C478 C479 1.390 . S
C479 C478 1.390 . S
C479 C480 1.394 . S
C479 C485 1.465 1_545 S
C480 C475 1.399 . S
C480 C479 1.394 . S
C480 C481 1.516 . S
C481 C480 1.516 . S
C481 C482 1.502 1_545 S
C481 C483 1.561 . S
C481 C484 1.526 1_545 S
C482 H466 0.959 . S
C482 H467 0.959 . S
C482 H468 0.961 . S
C482 C481 1.502 1_565 S
C483 H469 0.960 . S
C483 H470 0.961 . S
C483 H471 0.959 . S
C483 C481 1.561 . S
C484 C481 1.526 1_565 S
C484 C485 1.396 . S
C484 C489 1.390 . S
C485 C479 1.465 1_565 S
C485 C484 1.396 . S
C485 C486 1.399 . S
C486 H472 0.929 . S
C486 C485 1.399 . S
C486 C487 1.385 . S
C487 H473 0.931 . S
C487 C486 1.385 . S
C487 C488 1.389 . S
C488 C487 1.389 . S
C488 C489 1.387 . S
C489 H474 0.930 . S
C489 C484 1.390 . S
C489 C488 1.387 . S
H490 C502 0.930 . S
H491 C504 0.930 . S
H492 C505 0.930 . S
H493 C509 0.959 . S
H494 C509 0.959 . S
H495 C509 0.961 . S
H496 C510 0.960 . S
H497 C510 0.961 . S
H498 C510 0.959 . S
H499 C513 0.929 . S
H500 C514 0.931 . S
H501 C516 0.930 . S
C502 H490 0.930 . S
C502 C503 1.399 1_554 S
C502 C507 1.399 . S
C503 C502 1.399 1_556 S
C503 C504 1.376 . S
C504 H491 0.930 . S
C504 C503 1.376 . S
C504 C505 1.388 . S
C505 H492 0.930 . S
C505 C504 1.388 . S
C505 C506 1.390 . S
C506 C505 1.390 . S
C506 C507 1.394 1_556 S
C506 C512 1.465 . S
C507 C502 1.399 . S
C507 C506 1.394 1_554 S
C507 C508 1.516 . S
C508 C507 1.516 . S
C508 C509 1.502 . S
C508 C510 1.561 . S
C508 C511 1.526 . S
C509 H493 0.959 . S
C509 H494 0.959 . S
C509 H495 0.961 . S
C509 C508 1.502 . S
C510 H496 0.960 . S
C510 H497 0.961 . S
C510 H498 0.959 . S
C510 C508 1.561 . S
C511 C508 1.526 . S
C511 C512 1.396 1_554 S
C511 C516 1.390 . S
C512 C506 1.465 . S
C512 C511 1.396 1_556 S
C512 C513 1.399 . S
C513 H499 0.929 . S
C513 C512 1.399 . S
C513 C514 1.385 . S
C514 H500 0.931 . S
C514 C513 1.385 . S
C514 C515 1.389 . S
C515 C514 1.389 . S
C515 C516 1.387 1_556 S
C516 H501 0.930 . S
C516 C511 1.390 . S
C516 C515 1.387 1_554 S
H517 C529 0.930 . S
H518 C531 0.930 . S
H519 C532 0.930 . S
H520 C536 0.959 . S
H521 C536 0.959 . S
H522 C536 0.961 . S
H523 C537 0.960 1_565 S
H524 C537 0.961 . S
H525 C537 0.959 1_565 S
H526 C540 0.929 1_565 S
H527 C541 0.931 . S
H528 C543 0.930 . S
C529 H517 0.930 . S
C529 C530 1.399 . S
C529 C534 1.399 . S
C530 C529 1.399 . S
C530 C531 1.376 . S
C531 H518 0.930 . S
C531 C530 1.376 . S
C531 C532 1.388 . S
C532 H519 0.930 . S
C532 C531 1.388 . S
C532 C533 1.390 . S
C533 C532 1.390 . S
C533 C534 1.394 . S
C533 C539 1.465 1_565 S
C534 C529 1.399 . S
C534 C533 1.394 . S
C534 C535 1.516 1_565 S
C535 C534 1.516 1_545 S
C535 C536 1.502 . S
C535 C537 1.561 . S
C535 C538 1.526 . S
C536 H520 0.959 . S
C536 H521 0.959 . S
C536 H522 0.961 . S
C536 C535 1.502 . S
C537 H523 0.960 1_545 S
C537 H524 0.961 . S
C537 H525 0.959 1_545 S
C537 C535 1.561 . S
C538 C535 1.526 . S
C538 C539 1.396 . S
C538 C543 1.390 . S
C539 C533 1.465 1_545 S
C539 C538 1.396 . S
C539 C540 1.399 . S
C540 H526 0.929 1_545 S
C540 C539 1.399 . S
C540 C541 1.385 . S
C541 H527 0.931 . S
C541 C540 1.385 . S
C541 C542 1.389 . S
C542 C541 1.389 . S
C542 C543 1.387 . S
C543 H528 0.930 . S
C543 C538 1.390 . S
C543 C542 1.387 . S
C125 C9 1.536 . S
C137 C23 1.572 . S
C152 C51 1.532 . S
C164 C37 1.573 . S
C179 C65 1.489 . S
C191 C79 1.505 . S
C206 C93 1.514 . S
C218 C107 1.563 . S
C233 C3 1.661 . S
C245 C31 1.635 . S
C260 C45 1.643 . S
C272 C17 1.665 . S
C287 C59 1.661 . S
C299 C87 1.649 . S
C314 C101 1.665 . S
C326 C73 1.640 . S
C341 C8 1.397 . S
C353 C64 1.454 . S
C368 C22 1.453 . S
C380 C78 1.399 . S
C395 C92 1.426 . S
C407 C36 1.421 . S
C422 C106 1.421 . S
C434 C50 1.426 . S
C449 C21 0.950 . S
C461 C7 0.914 . S
C476 C35 0.902 . S
C488 C49 0.920 . S
C503 C63 0.961 . S
C515 C77 0.903 . S
C530 C91 0.974 . S
C542 C105 1.034 . S
