# Generated by pormake.
# Topology nbo, (4)-cn, num edge types: 1
# Building blocks:
#     Node 0, Type 0, BuildingBlock: ESEHIV_clean_sbu_0, # of connection points: 4
#     Node 1, Type 0, BuildingBlock: ESEHIV_clean_sbu_0, # of connection points: 4
#     Node 2, Type 0, BuildingBlock: ESEHIV_clean_sbu_0, # of connection points: 4
#     Node 3, Type 0, BuildingBlock: ESEHIV_clean_sbu_0, # of connection points: 4
#     Node 4, Type 0, BuildingBlock: ESEHIV_clean_sbu_0, # of connection points: 4
#     Node 5, Type 0, BuildingBlock: ESEHIV_clean_sbu_0, # of connection points: 4
#     Edge 6, Type (0, 0), BuildingBlock: MIFKUJ_clean_linker_0, # of connection points: 2
#     Edge 7, Type (0, 0), BuildingBlock: MIFKUJ_clean_linker_0, # of connection points: 2
#     Edge 8, Type (0, 0), BuildingBlock: MIFKUJ_clean_linker_0, # of connection points: 2
#     Edge 9, Type (0, 0), BuildingBlock: MIFKUJ_clean_linker_0, # of connection points: 2
#     Edge 10, Type (0, 0), BuildingBlock: MIFKUJ_clean_linker_0, # of connection points: 2
#     Edge 11, Type (0, 0), BuildingBlock: MIFKUJ_clean_linker_0, # of connection points: 2
#     Edge 12, Type (0, 0), BuildingBlock: MIFKUJ_clean_linker_0, # of connection points: 2
#     Edge 13, Type (0, 0), BuildingBlock: MIFKUJ_clean_linker_0, # of connection points: 2
#     Edge 14, Type (0, 0), BuildingBlock: MIFKUJ_clean_linker_0, # of connection points: 2
#     Edge 15, Type (0, 0), BuildingBlock: MIFKUJ_clean_linker_0, # of connection points: 2
#     Edge 16, Type (0, 0), BuildingBlock: MIFKUJ_clean_linker_0, # of connection points: 2
#     Edge 17, Type (0, 0), BuildingBlock: MIFKUJ_clean_linker_0, # of connection points: 2
# Relax obj value: 0.000
# Max RMSD: 0.095
# Mean RMSD: 0.094
data_MOF--net-nbo--node1-ESEHIV_clean_sbu_0--edge1-MIFKUJ_clean_linker_0
_symmetry_space_group_name_H-M    P1
_symmetry_Int_Tables_number       1
_symmetry_cell_setting            triclinic
loop_
_symmetry_equiv_pos_as_xyz
'x, y, z'
_cell_length_a     38.198334
_cell_length_b     43.276982
_cell_length_c     40.958506
_cell_angle_alpha  103.19595
_cell_angle_beta   104.17134
_cell_angle_gamma 104.18016
loop_
_atom_site_label
_atom_site_type_symbol
_atom_site_fract_x
_atom_site_fract_y
_atom_site_fract_z
_atom_type_partial_charge
Cu0 Cu 0.07559 0.09135 0.54053 0.0
N1 N 0.08622 0.13526 0.56875 0.0
N2 N 0.08475 0.18801 0.58238 0.0
C3 C 0.07235 0.15797 0.55721 0.0
C4 C 0.10736 0.18394 0.61102 0.0
C5 C 0.10834 0.15141 0.60248 0.0
O6 O 0.02662 0.0825 0.50539 0.0
C7 C 0.14785 0.0906 0.54181 0.0
O8 O 0.14992 0.09225 0.57468 0.0
H9 H 0.0533 0.15238 0.53074 0.0
H10 H 0.12435 0.14046 0.61953 0.0
N11 N 0.07216 0.06056 0.56643 0.0
N12 N 0.06925 1.01295 0.58016 0.0
C13 C 0.07122 0.02841 0.55517 0.0
C14 C 0.07092 0.06561 0.59973 0.0
C15 C 0.06928 0.03635 0.60832 0.0
C16 C 0.99702 0.05818 0.4998 0.0
O17 O 1.00035 0.03371 0.51296 0.0
H18 H 0.07197 1.01661 0.52914 0.0
H19 H 0.07098 0.08887 0.61655 0.0
O20 O 0.11688 0.09008 0.52074 0.0
H21 H 0.1228 0.20324 0.6361 0.0
H22 H 0.06736 0.03235 0.63305 0.0
Cu23 Cu 0.49966 1.00158 0.9672 0.0
N24 N 0.4704 0.95601 0.95203 0.0
N25 N 0.4581 0.90089 0.94329 0.0
C26 C 0.4853 0.93094 0.95337 0.0
C27 C 0.4247 0.90729 0.93515 0.0
C28 C 0.43236 0.94128 0.94039 0.0
O29 O 0.52827 1.0112 0.01707 0.0
C30 C 0.5084 0.99541 0.90255 0.0
O31 O 0.47154 0.98166 0.89512 0.0
H32 H 0.5156 0.93489 0.96269 0.0
H33 H 0.41163 0.95428 0.93639 0.0
N34 N 0.47072 0.03088 0.96433 0.0
N35 N 0.45755 0.0781 0.96132 0.0
C36 C 0.48252 0.06091 0.9592 0.0
C37 C 0.43701 0.02891 0.96979 0.0
C38 C 0.42883 0.05795 0.96797 0.0
C39 C 0.50686 1.00231 0.03506 0.0
O40 O 0.46991 0.99005 0.01915 0.0
H41 H 0.50964 0.07045 0.95528 0.0
H42 H 0.41992 1.00827 0.9756 0.0
O43 O 0.52918 1.00712 0.93494 0.0
H44 H 0.39675 0.88873 0.92604 0.0
H45 H 0.40377 0.06381 0.97148 0.0
Cu46 Cu 0.07221 0.57911 0.06472 0.0
N47 N 0.07596 0.60447 0.03333 0.0
N48 N 0.08247 0.61951 0.98562 0.0
C49 C 0.09024 0.59994 0.00611 0.0
C50 C 0.06293 0.6372 1.00091 0.0
C51 C 0.0587 0.62768 0.02991 0.0
O52 O 0.10903 0.55468 0.06427 0.0
C53 C 1.0008 0.5412 0.07 0.0
O54 O 0.02118 0.53946 0.09998 0.0
H55 H 0.10419 0.58142 1.00032 0.0
H56 H 0.04242 0.6359 0.04633 0.0
N57 N 0.08649 0.60735 0.11136 0.0
N58 N 0.10043 0.62394 0.17037 0.0
C59 C 0.09381 0.59835 0.14118 0.0
C60 C 0.08938 0.63993 0.12221 0.0
C61 C 0.09779 0.65016 0.15845 0.0
C62 C 0.1102 0.53304 0.03798 0.0
O63 O 0.08136 0.52137 0.00847 0.0
H64 H 0.09295 0.5732 0.1413 0.0
H65 H 0.08518 0.65521 0.10506 0.0
O66 O 1.01774 0.55376 0.05052 0.0
H67 H 0.05147 0.65516 0.99137 0.0
H68 H 0.10145 0.67498 0.17472 0.0
Cu69 Cu 0.53352 0.51202 0.9831 0.0
N70 N 0.53223 0.54228 0.95671 0.0
N71 N 0.5267 0.58821 0.94212 0.0
C72 C 0.51934 0.56877 0.9628 0.0
C73 C 0.5451 0.57334 0.92236 0.0
C74 C 0.54868 0.54527 0.93158 0.0
O75 O 0.4958 0.51504 0.00784 0.0
C76 C 0.6035 0.5062 0.02522 0.0
O77 O 0.58228 0.4783 0.02729 0.0
H78 H 0.50645 0.5745 0.98323 0.0
H79 H 0.56367 0.52901 0.92167 0.0
N80 N 0.51898 0.46758 0.95391 0.0
N81 N 0.50532 0.41175 0.9379 0.0
C82 C 0.51075 0.43975 0.96397 0.0
C83 C 0.51794 0.4567 0.92006 0.0
C84 C 0.50964 0.42238 0.91017 0.0
C85 C 0.4624 0.50921 0.9869 0.0
O86 O 0.45698 0.50068 0.95269 0.0
H87 H 0.51034 0.44024 0.99041 0.0
H88 H 0.52361 0.47255 0.90383 0.0
O89 O 0.58749 0.5247 0.0111 0.0
H90 H 0.55586 0.58235 0.90301 0.0
H91 H 0.50736 0.40656 0.88461 0.0
Cu92 Cu 0.05984 0.59181 0.5632 0.0
N93 N 0.03121 0.54624 0.54743 0.0
N94 N 1.01789 0.49151 0.54162 0.0
C95 C 0.04098 0.52282 0.56105 0.0
C96 C 0.99249 0.49543 0.51478 0.0
C97 C 1.00074 0.52918 0.51844 0.0
O98 O 0.08738 0.60236 0.61347 0.0
C99 C 0.07168 0.59977 0.50168 0.0
O100 O 0.03481 0.59415 0.49404 0.0
H101 H 0.06581 0.52853 0.58373 0.0
H102 H 0.98637 0.54031 0.50048 0.0
N103 N 0.02994 0.62031 0.56002 0.0
N104 N 1.01677 0.66773 0.55876 0.0
C105 C 0.04429 0.65372 0.56716 0.0
C106 C 0.9919 0.6129 0.54695 0.0
C107 C 0.98371 0.64213 0.54598 0.0
C108 C 0.06559 0.6015 0.63265 0.0
O109 O 0.0288 0.59389 0.61719 0.0
H110 H 0.07452 0.66723 0.57677 0.0
H111 H 0.97166 0.58794 0.53773 0.0
O112 O 0.09051 0.59931 0.53192 0.0
H113 H 0.97002 0.47531 0.4936 0.0
H114 H 0.95569 0.64433 0.53628 0.0
Cu115 Cu 0.55816 0.04224 0.49021 0.0
N116 N 0.5416 1.01578 0.4429 0.0
N117 N 0.5365 1.00127 0.38539 0.0
C118 C 0.55402 0.02484 0.41734 0.0
C119 C 0.512 0.97642 0.39131 0.0
C120 C 0.51513 0.98548 0.42672 0.0
O121 O 0.61076 0.06899 0.49948 0.0
C122 C 0.49044 0.04844 0.49639 0.0
O123 O 0.48522 1.01652 0.49264 0.0
H124 H 0.57496 0.04871 0.42215 0.0
H125 H 0.49896 0.9711 0.43961 0.0
N126 N 0.55849 1.01642 0.52145 0.0
N127 N 0.55995 1.00289 0.57122 0.0
C128 C 0.56301 0.02777 0.55623 0.0
C129 C 0.55268 0.98328 0.51427 0.0
C130 C 0.55345 0.97486 0.54487 0.0
C131 C 0.63254 0.05094 0.49829 0.0
O132 O 0.61772 0.01857 0.49206 0.0
H133 H 0.56714 0.05358 0.56992 0.0
H134 H 0.548 0.96636 0.48857 0.0
O135 O 0.52204 0.06654 0.49589 0.0
H136 H 0.49314 0.95321 0.37162 0.0
H137 H 0.5495 0.95002 0.54749 0.0
H138 H 0.08491 0.23991 0.6345 0.0
H139 H 0.07119 0.29101 0.62816 0.0
H140 H 0.05101 0.25547 0.51578 0.0
H141 H 0.06552 0.20485 0.52203 0.0
H142 H 0.09418 0.31895 0.54152 0.0
H143 H 0.97693 0.25536 0.54789 0.0
H144 H 0.93332 0.22166 0.57151 0.0
H145 H 0.96876 0.30388 0.6668 0.0
H146 H 1.01287 0.338 0.64386 0.0
H147 H 1.00234 0.43318 0.49062 0.0
H148 H 1.01209 0.38126 0.49888 0.0
H149 H 0.05265 0.42719 0.61199 0.0
H150 H 0.04314 0.4794 0.60383 0.0
H151 H 0.99869 0.35894 0.58651 0.0
H152 H 0.11604 0.42224 0.57516 0.0
H153 H 0.15429 0.45392 0.54587 0.0
H154 H 0.1123 0.36819 0.45311 0.0
H155 H 0.07334 0.33614 0.48167 0.0
C156 C 0.07773 0.24303 0.60847 0.0
C157 C 0.07627 0.21812 0.57879 0.0
C158 C 0.06952 0.27214 0.60482 0.0
C159 C 0.05969 0.27703 0.57142 0.0
C160 C 0.05839 0.25229 0.54181 0.0
C161 C 0.06643 0.22317 0.54542 0.0
C162 C 0.05186 0.3083 0.56739 0.0
C163 C 0.07297 0.32742 0.55104 0.0
C164 C 0.02449 0.3197 0.58009 0.0
C165 C 0.99855 0.29911 0.59432 0.0
C166 C 0.97574 0.26614 0.57404 0.0
C167 C 0.95084 0.24699 0.58726 0.0
C168 C 0.94836 0.26058 0.62068 0.0
C169 C 0.97075 0.29337 0.64093 0.0
C170 C 0.99568 0.31264 0.62782 0.0
C171 C 1.01292 0.43213 0.51725 0.0
C172 C 0.02201 0.46043 0.54658 0.0
C173 C 0.01867 0.4025 0.52193 0.0
C174 C 0.03324 0.4004 0.55604 0.0
C175 C 0.04138 0.42827 0.58544 0.0
C176 C 0.03618 0.45812 0.58075 0.0
C177 C 0.04109 0.36941 0.56081 0.0
C178 C 0.01998 0.35041 0.57722 0.0
C179 C 0.06792 0.35772 0.54755 0.0
C180 C 0.09148 0.37691 0.53043 0.0
C181 C 0.1147 0.41024 0.5484 0.0
C182 C 0.13656 0.42825 0.53196 0.0
C183 C 0.13565 0.41311 0.49762 0.0
C184 C 0.11295 0.3799 0.47969 0.0
C185 C 0.09099 0.3618 0.49601 0.0
H186 H 0.1526 0.42709 0.48493 0.0
H187 H 0.92901 0.24573 0.63083 0.0
H188 H 0.92824 1.01204 0.4866 0.0
H189 H 0.86669 0.02109 0.47665 0.0
H190 H 0.91684 0.12052 0.47287 0.0
H191 H 0.97916 0.11189 0.48376 0.0
H192 H 0.87722 0.12331 0.51675 0.0
H193 H 0.8491 0.05905 0.39834 0.0
H194 H 0.84615 1.01284 0.34862 0.0
H195 H 0.7734 0.94238 0.38169 0.0
H196 H 0.77633 0.98805 0.43191 0.0
H197 H 0.6688 0.10717 0.48325 0.0
H198 H 0.73291 0.12067 0.47658 0.0
H199 H 0.75 0.03678 0.51067 0.0
H200 H 0.68724 0.02356 0.5177 0.0
H201 H 0.75424 0.03884 0.43846 0.0
H202 H 0.79494 0.10507 0.5637 0.0
H203 H 0.80021 0.15259 0.61318 0.0
H204 H 0.85054 0.22162 0.56426 0.0
H205 H 0.84468 0.17444 0.51401 0.0
C206 C 0.92615 0.03558 0.48284 0.0
C207 C 0.95874 0.06127 0.48617 0.0
C208 C 0.89076 0.04069 0.47694 0.0
C209 C 0.88694 0.07144 0.47373 0.0
C210 C 0.91905 0.09658 0.47521 0.0
C211 C 0.95462 0.0915 0.48122 0.0
C212 C 0.85027 0.078 0.47259 0.0
C213 C 0.8503 0.10532 0.49894 0.0
C214 C 0.81507 0.05474 0.44929 0.0
C215 C 0.81302 0.02706 0.41899 0.0
C216 C 0.83264 0.03369 0.39515 0.0
C217 C 0.83095 1.00757 0.36685 0.0
C218 C 0.80962 0.9747 0.36201 0.0
C219 C 0.78988 0.96787 0.38544 0.0
C220 C 0.79148 0.99388 0.41379 0.0
C221 C 0.68679 0.0923 0.49022 0.0
C222 C 0.67292 0.06411 0.50063 0.0
C223 C 0.72321 0.09992 0.48627 0.0
C224 C 0.74587 0.07945 0.49282 0.0
C225 C 0.73281 0.0527 0.50525 0.0
C226 C 0.69689 0.0452 0.50924 0.0
C227 C 0.78152 0.08291 0.48374 0.0
C228 C 0.7812 0.05743 0.45535 0.0
C229 C 0.8163 0.108 0.50494 0.0
C230 C 0.81853 0.13619 0.53466 0.0
C231 C 0.80637 0.13034 0.56309 0.0
C232 C 0.80965 0.15724 0.59138 0.0
C233 C 0.82545 0.19011 0.59175 0.0
C234 C 0.83806 0.19615 0.56384 0.0
C235 C 0.8347 0.16935 0.53542 0.0
H236 H 0.82812 0.21089 0.61375 0.0
H237 H 0.80836 0.95452 0.34009 0.0
H238 H 0.97542 0.69206 0.51327 0.0
H239 H 0.98583 0.75104 0.51616 0.0
H240 H 0.08049 0.78091 0.61195 0.0
H241 H 0.07043 0.72196 0.60892 0.0
H242 H 0.02656 0.81764 0.61405 0.0
H243 H 0.10106 0.78322 0.5415 0.0
H244 H 0.11001 0.74625 0.49083 0.0
H245 H 0.02527 0.7694 0.41888 0.0
H246 H 1.01538 0.80614 0.46915 0.0
H247 H 0.10069 0.98864 0.63116 0.0
H248 H 0.09362 0.92996 0.62672 0.0
H249 H 0.02211 0.90007 0.51804 0.0
H250 H 0.0307 0.959 0.52215 0.0
H251 H 0.06376 0.86221 0.52183 0.0
H252 H 0.98638 0.89422 0.59048 0.0
H253 H 0.97139 0.92834 0.63896 0.0
H254 H 0.05386 0.90721 0.71533 0.0
H255 H 0.06971 0.87331 0.6673 0.0
C256 C 0.99827 0.71123 0.53504 0.0
C257 C 0.02211 0.70241 0.56089 0.0
C258 C 1.00435 0.74487 0.53654 0.0
C259 C 0.03405 0.77034 0.56419 0.0
C260 C 0.05747 0.76165 0.59036 0.0
C261 C 0.05181 0.728 0.58852 0.0
C262 C 0.0406 0.80609 0.56594 0.0
C263 C 0.0352 0.82757 0.59419 0.0
C264 C 0.05066 0.81868 0.53937 0.0
C265 C 0.0572 0.79717 0.50911 0.0
C266 C 0.08414 0.78025 0.51488 0.0
C267 C 0.08942 0.75936 0.48623 0.0
C268 C 0.06812 0.75538 0.45167 0.0
C269 C 0.04169 0.77246 0.44568 0.0
C270 C 0.03626 0.79334 0.47423 0.0
C271 C 0.08352 0.96951 0.60635 0.0
C272 C 0.06606 0.97839 0.57708 0.0
C273 C 0.0793 0.9359 0.60382 0.0
C274 C 0.05653 0.91024 0.57226 0.0
C275 C 0.03975 0.9192 0.54274 0.0
C276 C 0.04465 0.95291 0.54507 0.0
C277 C 0.04987 0.87418 0.5702 0.0
C278 C 0.05516 0.8525 0.54183 0.0
C279 C 0.03899 0.86119 0.59636 0.0
C280 C 0.02949 0.8815 0.62531 0.0
C281 C 1.00151 0.89705 0.61763 0.0
C282 C 0.99283 0.91631 0.64502 0.0
C283 C 1.01173 0.92001 0.6802 0.0
C284 C 0.03929 0.90436 0.68806 0.0
C285 C 0.04811 0.8851 0.66077 0.0
H286 H 1.00497 0.93493 0.70137 0.0
H287 H 0.0721 0.73909 0.42952 0.0
H288 H 0.44272 0.02964 0.53197 0.0
H289 H 0.38445 0.04293 0.53213 0.0
H290 H 0.40756 0.10904 0.47005 0.0
H291 H 0.46728 0.09634 0.47073 0.0
H292 H 0.37402 0.13336 0.51898 0.0
H293 H 0.3459 0.03262 0.42814 0.0
H294 H 0.34888 0.97682 0.40049 0.0
H295 H 0.29865 0.93751 0.47152 0.0
H296 H 0.29592 0.9932 0.50001 0.0
H297 H 0.1688 0.11121 0.48852 0.0
H298 H 0.22683 0.10983 0.47264 0.0
H299 H 0.25891 0.0631 0.55258 0.0
H300 H 0.20218 0.06522 0.5691 0.0
H301 H 0.26041 0.03207 0.47906 0.0
H302 H 0.30135 0.138 0.57542 0.0
H303 H 0.29767 0.19411 0.60079 0.0
H304 H 0.32107 0.22322 0.51288 0.0
H305 H 0.32433 0.16703 0.48676 0.0
C306 C 0.43578 0.04745 0.51881 0.0
C307 C 0.45925 0.0617 0.50101 0.0
C308 C 0.40235 0.05491 0.51877 0.0
C309 C 0.39102 0.0762 0.5002 0.0
C310 C 0.41558 0.09227 0.48424 0.0
C311 C 0.44967 0.08512 0.48472 0.0
C312 C 0.35253 0.07964 0.49634 0.0
C313 C 0.34903 0.11129 0.50946 0.0
C314 C 0.3197 0.05091 0.48358 0.0
C315 C 0.32084 1.01718 0.46631 0.0
C316 C 0.33567 1.01213 0.43801 0.0
C317 C 0.33731 0.98051 0.42217 0.0
C318 C 0.32399 0.95364 0.43426 0.0
C319 C 0.30894 0.95834 0.46217 0.0
C320 C 0.30728 0.98993 0.47814 0.0
C321 C 0.18823 0.10053 0.5025 0.0
C322 C 0.18109 0.0884 0.5301 0.0
C323 C 0.22132 0.09988 0.49352 0.0
C324 C 0.24708 0.08643 0.51155 0.0
C325 C 0.23938 0.0736 0.53841 0.0
C326 C 0.20699 0.07491 0.54786 0.0
C327 C 0.28241 0.08546 0.50309 0.0
C328 C 0.28524 0.05417 0.4876 0.0
C329 C 0.31427 0.11451 0.51307 0.0
C330 C 0.31256 0.14823 0.52892 0.0
C331 C 0.30531 0.15626 0.56134 0.0
C332 C 0.3034 0.18809 0.57589 0.0
C333 C 0.30899 0.21218 0.55839 0.0
C334 C 0.31665 0.20451 0.52636 0.0
C335 C 0.31854 0.17269 0.51168 0.0
H336 H 0.30751 0.23681 0.5697 0.0
H337 H 0.3253 0.92918 0.42197 0.0
H338 H 0.59738 0.04136 0.37487 0.0
H339 H 0.6054 0.04475 0.31827 0.0
H340 H 0.49684 0.96795 0.2631 0.0
H341 H 0.48808 0.96485 0.31929 0.0
H342 H 0.55262 0.95696 0.23479 0.0
H343 H 0.50582 0.04945 0.27294 0.0
H344 H 0.50877 0.1021 0.31421 0.0
H345 H 0.61745 0.15125 0.30677 0.0
H346 H 0.61534 0.09872 0.26579 0.0
H347 H 0.47032 0.96601 0.06926 0.0
H348 H 0.4905 0.96882 0.13104 0.0
H349 H 0.59679 0.0439 0.14861 0.0
H350 H 0.57646 0.04114 0.0856 0.0
H351 H 0.56008 0.06024 0.19973 0.0
H352 H 0.60221 0.97043 0.15417 0.0
H353 H 0.59991 0.91798 0.11319 0.0
H354 H 0.502 0.86417 0.13456 0.0
H355 H 0.50365 0.91638 0.17564 0.0
C356 C 0.57496 0.02537 0.3508 0.0
C357 C 0.54193 1.00287 0.35195 0.0
C358 C 0.57974 0.02728 0.31839 0.0
C359 C 0.55166 1.0067 0.28643 0.0
C360 C 0.51899 0.98397 0.28743 0.0
C361 C 0.51409 0.98215 0.31973 0.0
C362 C 0.55573 1.00871 0.25171 0.0
C363 C 0.55422 0.97954 0.22712 0.0
C364 C 0.55946 0.03854 0.24215 0.0
C365 C 0.56065 0.07008 0.26668 0.0
C366 C 0.53049 0.07141 0.28036 0.0
C367 C 0.53198 0.10124 0.30364 0.0
C368 C 0.56334 0.12997 0.3132 0.0
C369 C 0.59322 0.12896 0.29941 0.0
C370 C 0.59189 0.09917 0.27614 0.0
C371 C 0.49816 0.98308 0.08603 0.0
C372 C 0.52176 1.00346 0.07248 0.0
C373 C 0.50975 0.98447 0.12143 0.0
C374 C 0.54529 1.0063 0.14444 0.0
C375 C 0.5693 0.02672 0.1312 0.0
C376 C 0.55777 0.02505 0.09527 0.0
C377 C 0.55553 1.00812 0.18243 0.0
C378 C 0.55959 0.03792 0.20768 0.0
C379 C 0.55438 0.97891 0.19274 0.0
C380 C 0.553 0.94738 0.1679 0.0
C381 C 0.58004 0.94746 0.14996 0.0
C382 C 0.57888 0.91774 0.12675 0.0
C383 C 0.55075 0.88774 0.12119 0.0
C384 C 0.52378 0.88742 0.13891 0.0
C385 C 0.5249 0.91705 0.16226 0.0
H386 H 0.5499 0.86474 0.10323 0.0
H387 H 0.56444 0.15305 0.33123 0.0
H388 H 0.13351 0.58455 0.20153 0.0
H389 H 0.14154 0.58216 0.26204 0.0
H390 H 0.08729 0.658 0.28079 0.0
H391 H 0.07993 0.66087 0.22083 0.0
H392 H 0.14454 0.67051 0.33659 0.0
H393 H 0.0404 0.57158 0.26154 0.0
H394 H 1.00926 0.51837 0.21296 0.0
H395 H 0.09057 0.47616 0.26215 0.0
H396 H 0.1225 0.52931 0.31081 0.0
H397 H 0.05638 0.64015 0.46302 0.0
H398 H 0.07545 0.64645 0.41169 0.0
H399 H 0.14432 0.58224 0.42706 0.0
H400 H 0.12539 0.57619 0.47936 0.0
H401 H 0.09246 0.56275 0.35777 0.0
H402 H 0.18808 0.66182 0.43952 0.0
H403 H 0.21345 0.71505 0.48812 0.0
H404 H 0.14235 0.75751 0.42598 0.0
H405 H 0.11587 0.70431 0.37726 0.0
C406 C 0.12328 0.60066 0.21857 0.0
C407 C 0.10605 0.62288 0.20627 0.0
C408 C 0.12786 0.59928 0.2532 0.0
C409 C 0.11468 0.61966 0.27607 0.0
C410 C 0.09794 0.64214 0.26389 0.0
C411 C 0.09375 0.64378 0.2295 0.0
C412 C 0.11735 0.61732 0.31239 0.0
C413 C 0.13301 0.64693 0.34114 0.0
C414 C 0.10329 0.58649 0.31873 0.0
C415 C 0.08412 0.55454 0.28955 0.0
C416 C 0.05181 0.55103 0.26184 0.0
C417 C 0.03399 0.52088 0.23432 0.0
C418 C 0.04801 0.49394 0.2344 0.0
C419 C 0.0798 0.49707 0.26207 0.0
C420 C 0.09777 0.5272 0.28963 0.0
C421 C 0.07632 0.62799 0.45599 0.0
C422 C 0.08959 0.60782 0.47521 0.0
C423 C 0.08725 0.63165 0.42665 0.0
C424 C 0.11143 0.61493 0.41552 0.0
C425 C 0.12575 0.59548 0.43529 0.0
C426 C 0.11524 0.59226 0.46526 0.0
C427 C 0.11873 0.61601 0.38165 0.0
C428 C 0.10481 0.5862 0.35333 0.0
C429 C 0.13376 0.64672 0.37559 0.0
C430 C 0.14985 0.67895 0.40474 0.0
C431 C 0.17762 0.68241 0.43629 0.0
C432 C 0.1922 0.71259 0.46387 0.0
C433 C 0.17945 0.73961 0.46017 0.0
C434 C 0.15216 0.73654 0.42882 0.0
C435 C 0.13737 0.70637 0.4012 0.0
H436 H 0.19074 0.76295 0.48157 0.0
H437 H 0.03416 0.47061 0.21308 0.0
H438 H 0.52089 0.95565 0.59383 0.0
H439 H 0.52041 0.96027 0.65428 0.0
H440 H 0.60027 0.06017 0.69093 0.0
H441 H 0.60092 0.05566 0.63015 0.0
H442 H 0.61596 1.01774 0.73566 0.0
H443 H 0.51605 0.05699 0.68346 0.0
H444 H 0.4598 0.05485 0.63688 0.0
H445 H 0.39542 0.96332 0.64732 0.0
H446 H 0.45151 0.96459 0.69355 0.0
H447 H 0.57094 0.04312 0.90158 0.0
H448 H 0.58795 0.04992 0.84875 0.0
H449 H 0.49668 0.95906 0.78429 0.0
H450 H 0.47931 0.95273 0.83622 0.0
H451 H 0.4918 1.00752 0.75684 0.0
H452 H 0.59293 0.96513 0.80453 0.0
H453 H 0.64944 0.9658 0.84979 0.0
H454 H 0.71135 0.06227 0.84782 0.0
H455 H 0.655 0.06235 0.80284 0.0
C456 C 0.53873 0.97845 0.61476 0.0
C457 C 0.56087 1.00532 0.60717 0.0
C458 C 0.53831 0.98112 0.64928 0.0
C459 C 0.5602 1.01061 0.67704 0.0
C460 C 0.5832 0.0372 0.66986 0.0
C461 C 0.58329 0.03469 0.63514 0.0
C462 C 0.55728 1.0138 0.71307 0.0
C463 C 0.58903 1.0161 0.7406 0.0
C464 C 0.52208 1.01143 0.71933 0.0
C465 C 0.48811 1.01076 0.69179 0.0
C466 C 0.48999 0.03626 0.67564 0.0
C467 C 0.45812 0.03523 0.64932 0.0
C468 C 0.42408 1.00893 0.6391 0.0
C469 C 0.42182 0.98366 0.65525 0.0
C470 C 0.45364 0.98454 0.68153 0.0
C471 C 0.55511 0.02436 0.87618 0.0
C472 C 0.52364 0.99754 0.87293 0.0
C473 C 0.56476 0.02826 0.84601 0.0
C474 C 0.54338 1.00511 0.8124 0.0
C475 C 0.51331 0.97749 0.80974 0.0
C476 C 0.50348 0.97384 0.83954 0.0
C477 C 0.5501 1.01006 0.77935 0.0
C478 C 0.51895 1.00954 0.75226 0.0
C479 C 0.58582 1.01396 0.77362 0.0
C480 C 0.61961 1.01393 0.80067 0.0
C481 C 0.61848 0.98662 0.81399 0.0
C482 C 0.6505 0.98684 0.83954 0.0
C483 C 0.68392 1.01411 0.85176 0.0
C484 C 0.68542 0.04119 0.83838 0.0
C485 C 0.65346 0.04112 0.81286 0.0
H486 H 0.70869 1.01423 0.87153 0.0
H487 H 0.39944 1.00817 0.61872 0.0
H488 H 0.1292 0.59198 0.67314 0.0
H489 H 0.14645 0.59784 0.73692 0.0
H490 H 0.05056 0.63211 0.74276 0.0
H491 H 0.03327 0.62612 0.67987 0.0
H492 H 0.11524 0.66938 0.7992 0.0
H493 H 0.04379 0.55202 0.73392 0.0
H494 H 0.03418 0.49757 0.69167 0.0
H495 H 0.1402 0.49374 0.75427 0.0
H496 H 0.1507 0.54847 0.79661 0.0
H497 H 0.04357 0.63798 0.93245 0.0
H498 H 0.05514 0.63778 0.87677 0.0
H499 H 0.14811 0.59904 0.90564 0.0
H500 H 0.13682 0.59939 0.96223 0.0
H501 H 0.10284 0.56687 0.83634 0.0
H502 H 0.16802 0.67966 0.9076 0.0
H503 H 0.17733 0.73413 0.94958 0.0
H504 H 0.08482 0.74738 0.87616 0.0
H505 H 0.07457 0.69276 0.83393 0.0
C506 C 0.11229 0.60126 0.68829 0.0
C507 C 0.07982 0.60848 0.67152 0.0
C508 C 0.122 0.60441 0.7246 0.0
C509 C 0.09964 0.61525 0.7446 0.0
C510 C 0.06827 0.62376 0.728 0.0
C511 C 0.05834 0.62019 0.69194 0.0
C512 C 0.10705 0.61654 0.78239 0.0
C513 C 0.11267 0.647 0.80737 0.0
C514 C 0.10484 0.58754 0.79335 0.0
C515 C 0.09827 0.55451 0.76815 0.0
C516 C 0.06519 0.53968 0.73851 0.0
C517 C 0.05956 0.50876 0.71458 0.0
C518 C 0.08663 0.49226 0.72021 0.0
C519 C 0.11931 0.50659 0.74988 0.0
C520 C 0.12512 0.53756 0.77385 0.0
C521 C 0.06692 0.62988 0.9275 0.0
C522 C 0.08959 0.61917 0.95237 0.0
C523 C 0.07343 0.62966 0.89538 0.0
C524 C 0.10294 0.61896 0.88714 0.0
C525 C 0.12528 0.60758 0.91145 0.0
C526 C 0.11875 0.60777 0.9438 0.0
C527 C 0.10956 0.61955 0.85284 0.0
C528 C 0.10651 0.58948 0.82853 0.0
C529 C 0.11424 0.64897 0.84244 0.0
C530 C 0.12044 0.68201 0.86764 0.0
C531 C 0.14951 0.69409 0.90048 0.0
C532 C 0.15497 0.72501 0.92432 0.0
C533 C 0.13166 0.74419 0.91556 0.0
C534 C 0.10287 0.73251 0.88291 0.0
C535 C 0.09727 0.70159 0.85898 0.0
H536 H 0.13593 0.76811 0.93405 0.0
H537 H 0.08223 0.46833 0.70164 0.0
H538 H 0.17916 0.56191 0.09058 0.0
H539 H 0.24078 0.55642 0.0884 0.0
H540 H 0.18629 0.48324 0.98523 0.0
H541 H 0.12435 0.48871 0.98701 0.0
H542 H 0.24555 0.4675 0.02884 0.0
H543 H 0.22457 0.56 0.9885 0.0
H544 H 0.2094 0.61278 0.99373 0.0
H545 H 0.30601 0.66222 0.08776 0.0
H546 H 0.32149 0.60958 0.0833 0.0
H547 H 0.40494 0.52859 0.95425 0.0
H548 H 0.34834 0.53227 0.97014 0.0
H549 H 0.38877 0.5036 0.06295 0.0
H550 H 0.44649 0.50034 0.04725 0.0
H551 H 0.33827 0.57044 0.02902 0.0
H552 H 0.30382 0.45027 0.06876 0.0
H553 H 0.31654 0.3962 0.0587 0.0
H554 H 0.32766 0.40039 0.95784 0.0
H555 H 0.31448 0.45418 0.9671 0.0
C556 C 0.18003 0.54418 0.06761 0.0
C557 C 0.14664 0.5259 0.03884 0.0
C558 C 0.21541 0.54115 0.06641 0.0
C559 C 0.21829 0.51964 0.03653 0.0
C560 C 0.18481 0.49997 0.00859 0.0
C561 C 0.14938 0.5032 0.00962 0.0
C562 C 0.25635 0.51974 0.03319 0.0
C563 C 0.26596 0.49008 0.02924 0.0
C564 C 0.28295 0.54907 0.03328 0.0
C565 C 0.27395 0.5808 0.03578 0.0
C566 C 0.24241 0.58207 0.01043 0.0
C567 C 0.23378 0.61196 0.01323 0.0
C568 C 0.25665 0.6408 0.04112 0.0
C569 C 0.28829 0.63984 0.0662 0.0
C570 C 0.29702 0.61 0.06354 0.0
C571 C 0.40206 0.5233 0.97825 0.0
C572 C 0.43016 0.51401 0.99942 0.0
C573 C 0.36968 0.52557 0.98737 0.0
C574 C 0.36406 0.51805 0.0176 0.0
C575 C 0.39241 0.50939 0.03938 0.0
C576 C 0.42542 0.50769 0.03052 0.0
C577 C 0.32774 0.51828 0.02501 0.0
C578 C 0.31828 0.54802 0.02948 0.0
C579 C 0.30117 0.48894 0.02493 0.0
C580 C 0.30869 0.45644 0.01888 0.0
C581 C 0.30892 0.43959 0.04442 0.0
C582 C 0.31619 0.409 0.03885 0.0
C583 C 0.32307 0.39494 0.00772 0.0
C584 C 0.32251 0.41137 0.98202 0.0
C585 C 0.3152 0.44193 0.98744 0.0
H586 H 0.32872 0.37127 1.00347 0.0
H587 H 0.24991 0.66391 0.04326 0.0
H588 H 0.52734 0.36318 0.90192 0.0
H589 H 0.51814 0.30658 0.90608 0.0
H590 H 0.46056 0.32675 0.98302 0.0
H591 H 0.47025 0.38378 0.97929 0.0
H592 H 0.5072 0.29425 1.00332 0.0
H593 H 0.41161 0.27746 0.89483 0.0
H594 H 0.38612 0.28236 0.83548 0.0
H595 H 0.45765 0.23043 0.79744 0.0
H596 H 0.48395 0.22561 0.85671 0.0
H597 H 0.42853 0.12345 0.9931 0.0
H598 H 0.43599 0.18012 0.98916 0.0
H599 H 0.50378 0.16583 0.92036 0.0
H600 H 0.49598 0.10889 0.92381 0.0
H601 H 0.45059 0.19497 0.89606 0.0
H602 H 0.54608 0.21231 0.00554 0.0
H603 H 0.5705 0.20731 0.06502 0.0
H604 H 0.49697 0.25788 0.10116 0.0
H605 H 0.47171 0.26278 0.04172 0.0
C606 C 0.51232 0.35551 0.91943 0.0
C607 C 0.49926 0.37803 0.94005 0.0
C608 C 0.50707 0.32305 0.92181 0.0
C609 C 0.48806 0.31201 0.94443 0.0
C610 C 0.47527 0.33454 0.96531 0.0
C611 C 0.48084 0.36718 0.96318 0.0
C612 C 0.48204 0.27719 0.9466 0.0
C613 C 0.49426 0.27255 0.97987 0.0
C614 C 0.46588 0.24872 0.91602 0.0
C615 C 0.44999 0.25144 0.8803 0.0
C616 C 0.4221 0.26729 0.87387 0.0
C617 C 0.40748 0.27002 0.84023 0.0
C618 C 0.42033 0.25679 0.81272 0.0
C619 C 0.44776 0.2407 0.81878 0.0
C620 C 0.4625 0.23793 0.85238 0.0
C621 C 0.44478 0.13222 0.9769 0.0
C622 C 0.46168 0.11154 0.95879 0.0
C623 C 0.4493 0.16478 0.97492 0.0
C624 C 0.47074 0.17741 0.95472 0.0
C625 C 0.48721 0.1567 0.93621 0.0
C626 C 0.48295 0.12421 0.9384 0.0
C627 C 0.4758 0.21213 0.95271 0.0
C628 C 0.46341 0.21671 0.91947 0.0
C629 C 0.49155 0.2405 0.98332 0.0
C630 C 0.50671 0.23759 0.01907 0.0
C631 C 0.53487 0.2221 0.02608 0.0
C632 C 0.54891 0.21934 0.05981 0.0
C633 C 0.53522 0.23218 0.08683 0.0
C634 C 0.50751 0.2479 0.08019 0.0
C635 C 0.49334 0.2507 0.0465 0.0
H636 H 0.54614 0.23003 0.11293 0.0
H637 H 0.40897 0.25893 0.7867 0.0
H638 H 0.95427 0.50734 0.10055 0.0
H639 H 0.88687 0.50088 0.09226 0.0
H640 H 0.88483 0.55298 0.01417 0.0
H641 H 0.95216 0.55927 0.02203 0.0
H642 H 0.85346 0.57786 0.06548 0.0
H643 H 0.84082 0.47119 0.98791 0.0
H644 H 0.85328 0.41738 0.97187 0.0
H645 H 0.80924 0.38845 0.05114 0.0
H646 H 0.797 0.44232 0.068 0.0
H647 H 0.65341 0.54859 1.00435 0.0
H648 H 0.72028 0.55421 0.01178 0.0
H649 H 0.71607 0.48521 0.07303 0.0
H650 H 0.6486 0.4784 0.06429 0.0
H651 H 0.75146 0.46907 0.03025 0.0
H652 H 0.76487 0.57445 0.10951 0.0
H653 H 0.75357 0.62849 0.12825 0.0
H654 H 0.79755 0.6605 0.05031 0.0
H655 H 0.80867 0.60647 0.03079 0.0
C656 C 0.93939 0.51701 0.08121 0.0
C657 C 0.95876 0.53372 0.06188 0.0
C658 C 0.90078 0.5133 0.0765 0.0
C659 C 0.88063 0.52645 0.05258 0.0
C660 C 0.8997 0.54266 0.03282 0.0
C661 C 0.9382 0.54601 0.03717 0.0
C662 C 0.84014 0.5243 0.04911 0.0
C663 C 0.83101 0.55407 0.0573 0.0
C664 C 0.811 0.49333 0.03955 0.0
C665 C 0.81835 0.46094 0.02946 0.0
C666 C 0.83411 0.45348 1.00214 0.0
C667 C 0.84106 0.42294 0.99285 0.0
C668 C 0.83216 0.39955 0.01054 0.0
C669 C 0.81618 0.40662 0.0375 0.0
C670 C 0.80919 0.43714 0.04691 0.0
C671 C 0.66683 0.535 0.0199 0.0
C672 C 0.64551 0.51315 0.03387 0.0
C673 C 0.7053 0.5383 0.02423 0.0
C674 C 0.72381 0.52046 0.04337 0.0
C675 C 0.70273 0.49925 0.05807 0.0
C676 C 0.66409 0.49553 0.05325 0.0
C677 C 0.7645 0.52273 0.04677 0.0
C678 C 0.77376 0.49296 0.03854 0.0
C679 C 0.79389 0.55376 0.05677 0.0
C680 C 0.78726 0.58628 0.06846 0.0
C681 C 0.77187 0.59292 0.09619 0.0
C682 C 0.76554 0.62356 0.10699 0.0
C683 C 0.77474 0.64788 0.09042 0.0
C684 C 0.79039 0.64163 0.06309 0.0
C685 C 0.79675 0.61101 0.05217 0.0
H686 H 0.76982 0.67159 0.09882 0.0
H687 H 0.83755 0.37591 1.0033 0.0
H688 H 0.47129 0.60838 0.96283 0.0
H689 H 0.45883 0.66145 0.96432 0.0
H690 H 0.55133 0.69189 0.92369 0.0
H691 H 0.56464 0.63946 0.92307 0.0
H692 H 0.55312 0.74237 0.97712 0.0
H693 H 0.45775 0.66353 0.8704 0.0
H694 H 0.40422 0.61187 0.83579 0.0
H695 H 0.33605 0.64309 0.89775 0.0
H696 H 0.38937 0.69476 0.93304 0.0
H697 H 0.51489 0.87992 0.92763 0.0
H698 H 0.52533 0.82639 0.92771 0.0
H699 H 0.42529 0.79636 0.95884 0.0
H700 H 0.41416 0.84953 0.95757 0.0
H701 H 0.42655 0.74545 0.91255 0.0
H702 H 0.51978 0.82565 0.01737 0.0
H703 H 0.57253 0.87773 0.05193 0.0
H704 H 0.64495 0.84406 0.99675 0.0
H705 H 0.5922 0.79223 0.96084 0.0
C706 C 0.48917 0.62643 0.95443 0.0
C707 C 0.51891 0.61942 0.94269 0.0
C708 C 0.48179 0.6567 0.95502 0.0
C709 C 0.50388 0.68063 0.94377 0.0
C710 C 0.5338 0.67385 0.9324 0.0
C711 C 0.54115 0.64362 0.93175 0.0
C712 C 0.49604 0.71278 0.94385 0.0
C713 C 0.52557 0.74306 0.96268 0.0
C714 C 0.45979 0.71379 0.9259 0.0
C715 C 0.42767 0.68284 0.90457 0.0
C716 C 0.43143 0.65926 0.87681 0.0
C717 C 0.40112 0.63 0.85704 0.0
C718 C 0.36679 0.62416 0.86462 0.0
C719 C 0.36267 0.64762 0.89193 0.0
C720 C 0.39292 0.67691 0.9118 0.0
C721 C 0.49521 0.86192 0.93458 0.0
C722 C 0.46381 0.86902 0.94277 0.0
C723 C 0.50124 0.83131 0.93473 0.0
C724 C 0.47656 0.80739 0.94399 0.0
C725 C 0.44483 0.81429 0.95166 0.0
C726 C 0.43844 0.8447 0.95091 0.0
C727 C 0.48377 0.77523 0.94559 0.0
C728 C 0.45412 0.74491 0.92715 0.0
C729 C 0.51988 0.7742 0.96416 0.0
C730 C 0.55187 0.80514 0.98616 0.0
C731 C 0.54685 0.82942 0.01239 0.0
C732 C 0.57678 0.85891 0.03226 0.0
C733 C 0.61211 0.86417 0.02665 0.0
C734 C 0.61757 0.83996 1.00107 0.0
C735 C 0.58763 0.81055 0.98089 0.0
H736 H 0.63524 0.88702 0.04212 0.0
H737 H 0.34335 0.60149 0.84929 0.0
loop_
_geom_bond_atom_site_label_1
_geom_bond_atom_site_label_2
_geom_bond_distance
_geom_bond_site_symmetry_2
_ccdc_geom_bond_type
Cu0 N1 1.999 . S
Cu0 O6 1.974 1_455 S
Cu0 N11 1.985 1_545 S
Cu0 O20 1.959 . S
N1 Cu0 1.999 . S
N1 C3 1.263 . S
N1 C5 1.389 . S
N2 C3 1.358 . S
N2 C4 1.400 . S
C3 N1 1.263 . S
C3 N2 1.358 . S
C3 H9 0.930 . S
C4 N2 1.400 . S
C4 C5 1.351 . S
C4 H21 0.930 . S
C5 N1 1.389 . S
C5 C4 1.351 . S
C5 H10 0.930 . S
O6 Cu0 1.974 1_655 S
O6 C16 1.282 . S
C7 O8 1.261 . S
C7 O20 1.251 . S
O8 C7 1.261 . S
H9 C3 0.930 . S
H10 C5 0.930 . S
N11 Cu0 1.985 1_565 S
N11 C13 1.335 . S
N11 C14 1.390 1_455 S
N12 C13 1.345 . S
N12 C15 1.336 1_455 S
C13 N11 1.335 . S
C13 N12 1.345 . S
C13 H18 0.930 . S
C14 N11 1.390 1_655 S
C14 C15 1.346 . S
C14 H19 0.930 . S
C15 N12 1.336 1_655 S
C15 C14 1.346 . S
C15 H22 0.929 . S
C16 O6 1.282 . S
C16 O17 1.216 . S
O17 C16 1.216 . S
H18 C13 0.930 . S
H19 C14 0.930 . S
O20 Cu0 1.959 . S
O20 C7 1.251 . S
H21 C4 0.930 . S
H22 C15 0.929 . S
Cu23 N24 1.999 1_545 S
Cu23 O29 1.974 . S
Cu23 N34 1.985 . S
Cu23 O43 1.959 1_554 S
N24 Cu23 1.999 1_565 S
N24 C26 1.263 . S
N24 C28 1.389 1_554 S
N25 C26 1.358 . S
N25 C27 1.400 1_554 S
C26 N24 1.263 . S
C26 N25 1.358 . S
C26 H32 0.930 . S
C27 N25 1.400 1_556 S
C27 C28 1.351 . S
C27 H44 0.930 . S
C28 N24 1.389 1_556 S
C28 C27 1.351 . S
C28 H33 0.930 . S
O29 Cu23 1.974 . S
O29 C39 1.282 . S
C30 O31 1.261 . S
C30 O43 1.251 . S
O31 C30 1.261 . S
H32 C26 0.930 . S
H33 C28 0.930 . S
N34 Cu23 1.985 . S
N34 C36 1.335 . S
N34 C37 1.390 . S
N35 C36 1.345 . S
N35 C38 1.336 . S
C36 N34 1.335 . S
C36 N35 1.345 . S
C36 H41 0.930 1_554 S
C37 N34 1.390 . S
C37 C38 1.346 . S
C37 H42 0.930 . S
C38 N35 1.336 . S
C38 C37 1.346 . S
C38 H45 0.929 . S
C39 O29 1.282 . S
C39 O40 1.216 . S
O40 C39 1.216 . S
H41 C36 0.930 1_556 S
H42 C37 0.930 . S
O43 Cu23 1.959 1_556 S
O43 C30 1.251 . S
H44 C27 0.930 . S
H45 C38 0.929 . S
Cu46 N47 1.999 1_554 S
Cu46 O52 1.974 . S
Cu46 N57 1.985 . S
Cu46 O66 1.959 1_455 S
N47 Cu46 1.999 1_556 S
N47 C49 1.263 . S
N47 C51 1.389 . S
N48 C49 1.358 . S
N48 C50 1.400 . S
C49 N47 1.263 . S
C49 N48 1.358 . S
C49 H55 0.930 . S
C50 N48 1.400 . S
C50 C51 1.351 . S
C50 H67 0.930 1_455 S
C51 N47 1.389 . S
C51 C50 1.351 . S
C51 H56 0.930 1_455 S
O52 Cu46 1.974 . S
O52 C62 1.282 . S
C53 O54 1.261 1_554 S
C53 O66 1.251 . S
O54 C53 1.261 1_556 S
H55 C49 0.930 . S
H56 C51 0.930 1_655 S
N57 Cu46 1.985 . S
N57 C59 1.335 . S
N57 C60 1.390 . S
N58 C59 1.345 . S
N58 C61 1.336 . S
C59 N57 1.335 . S
C59 N58 1.345 . S
C59 H64 0.930 . S
C60 N57 1.390 . S
C60 C61 1.346 . S
C60 H65 0.930 . S
C61 N58 1.336 . S
C61 C60 1.346 . S
C61 H68 0.929 . S
C62 O52 1.282 . S
C62 O63 1.216 1_554 S
O63 C62 1.216 1_556 S
H64 C59 0.930 . S
H65 C60 0.930 . S
O66 Cu46 1.959 1_655 S
O66 C53 1.251 . S
H67 C50 0.930 1_655 S
H68 C61 0.929 . S
Cu69 N70 1.999 . S
Cu69 O75 1.974 . S
Cu69 N80 1.991 . S
Cu69 O89 1.959 . S
N70 Cu69 1.999 . S
N70 C72 1.257 1_556 S
N70 C74 1.389 . S
N71 C72 1.348 1_556 S
N71 C73 1.400 . S
C72 N70 1.257 1_554 S
C72 N71 1.348 1_554 S
C72 H78 0.944 . S
C73 N71 1.400 . S
C73 C74 1.351 . S
C73 H90 0.930 . S
C74 N70 1.389 . S
C74 C73 1.351 . S
C74 H79 0.930 . S
O75 Cu69 1.974 . S
O75 C85 1.282 1_556 S
C76 O77 1.261 . S
C76 O89 1.251 1_554 S
O77 C76 1.261 . S
H78 C72 0.944 . S
H79 C74 0.930 . S
N80 Cu69 1.991 . S
N80 C82 1.338 . S
N80 C83 1.381 1_556 S
N81 C82 1.336 1_554 S
N81 C84 1.344 . S
C82 N80 1.338 . S
C82 N81 1.336 1_556 S
C82 H87 0.930 . S
C83 N80 1.381 1_554 S
C83 C84 1.346 . S
C83 H88 0.930 . S
C84 N81 1.344 . S
C84 C83 1.346 . S
C84 H91 0.929 . S
C85 O75 1.282 1_554 S
C85 O86 1.216 . S
O86 C85 1.216 . S
H87 C82 0.930 . S
H88 C83 0.930 . S
O89 Cu69 1.959 . S
O89 C76 1.251 1_556 S
H90 C73 0.930 . S
H91 C84 0.929 . S
Cu92 N93 1.999 . S
Cu92 O98 1.974 . S
Cu92 N103 1.985 . S
Cu92 O112 1.959 . S
N93 Cu92 1.999 . S
N93 C95 1.263 . S
N93 C97 1.389 . S
N94 C95 1.358 . S
N94 C96 1.400 . S
C95 N93 1.263 . S
C95 N94 1.358 . S
C95 H101 0.930 . S
C96 N94 1.400 . S
C96 C97 1.351 . S
C96 H113 0.930 . S
C97 N93 1.389 . S
C97 C96 1.351 . S
C97 H102 0.930 . S
O98 Cu92 1.974 . S
O98 C108 1.282 . S
C99 O100 1.261 1_455 S
C99 O112 1.251 . S
O100 C99 1.261 1_655 S
H101 C95 0.930 . S
H102 C97 0.930 . S
N103 Cu92 1.985 . S
N103 C105 1.335 . S
N103 C106 1.390 . S
N104 C105 1.345 . S
N104 C107 1.336 . S
C105 N103 1.335 . S
C105 N104 1.345 . S
C105 H110 0.930 . S
C106 N103 1.390 . S
C106 C107 1.346 . S
C106 H111 0.930 . S
C107 N104 1.336 . S
C107 C106 1.346 . S
C107 H114 0.929 . S
C108 O98 1.282 . S
C108 O109 1.216 1_455 S
O109 C108 1.216 1_655 S
H110 C105 0.930 . S
H111 C106 0.930 . S
O112 Cu92 1.959 . S
O112 C99 1.251 . S
H113 C96 0.930 . S
H114 C107 0.929 . S
Cu115 N116 1.999 . S
Cu115 O121 1.974 . S
Cu115 N126 1.985 . S
Cu115 O135 1.959 . S
N116 Cu115 1.999 . S
N116 C118 1.263 . S
N116 C120 1.389 . S
N117 C118 1.358 . S
N117 C119 1.400 . S
C118 N116 1.263 . S
C118 N117 1.358 . S
C118 H124 0.930 . S
C119 N117 1.400 . S
C119 C120 1.351 . S
C119 H136 0.930 . S
C120 N116 1.389 . S
C120 C119 1.351 . S
C120 H125 0.930 . S
O121 Cu115 1.974 . S
O121 C131 1.282 . S
C122 O123 1.261 1_545 S
C122 O135 1.251 . S
O123 C122 1.261 1_565 S
H124 C118 0.930 . S
H125 C120 0.930 . S
N126 Cu115 1.985 . S
N126 C128 1.335 . S
N126 C129 1.390 . S
N127 C128 1.345 . S
N127 C130 1.336 . S
C128 N126 1.335 . S
C128 N127 1.345 . S
C128 H133 0.930 . S
C129 N126 1.390 . S
C129 C130 1.346 . S
C129 H134 0.930 . S
C130 N127 1.336 . S
C130 C129 1.346 . S
C130 H137 0.929 . S
C131 O121 1.282 . S
C131 O132 1.216 1_545 S
O132 C131 1.216 1_565 S
H133 C128 0.930 . S
H134 C129 0.930 . S
O135 Cu115 1.959 . S
O135 C122 1.251 . S
H136 C119 0.930 . S
H137 C130 0.929 . S
H138 C156 0.951 . S
H139 C158 0.951 . S
H140 C160 0.950 . S
H141 C161 0.950 . S
H142 C163 0.950 . S
H143 C166 0.950 . S
H144 C167 0.950 . S
H145 C169 0.950 . S
H146 C170 0.950 . S
H147 C171 0.951 . S
H148 C173 0.951 . S
H149 C175 0.950 . S
H150 C176 0.950 . S
H151 C178 0.950 1_655 S
H152 C181 0.950 . S
H153 C182 0.950 . S
H154 C184 0.950 . S
H155 C185 0.950 . S
C156 H138 0.951 . S
C156 C157 1.366 . S
C156 C158 1.388 . S
C157 C156 1.366 . S
C157 C161 1.385 . S
C158 H139 0.951 . S
C158 C156 1.388 . S
C158 C159 1.366 . S
C159 C158 1.366 . S
C159 C160 1.414 . S
C159 C162 1.499 . S
C160 H140 0.950 . S
C160 C159 1.414 . S
C160 C161 1.374 . S
C161 H141 0.950 . S
C161 C157 1.385 . S
C161 C160 1.374 . S
C162 C159 1.499 . S
C162 C163 1.373 . S
C162 C164 1.389 . S
C163 H142 0.950 . S
C163 C162 1.373 . S
C163 C179 1.377 . S
C164 C162 1.389 . S
C164 C165 1.524 1_455 S
C164 C178 1.377 . S
C165 C164 1.524 1_655 S
C165 C166 1.397 . S
C165 C170 1.363 . S
C166 H143 0.950 . S
C166 C165 1.397 . S
C166 C167 1.334 . S
C167 H144 0.950 . S
C167 C166 1.334 . S
C167 C168 1.287 . S
C168 C167 1.287 . S
C168 C169 1.524 . S
C168 H187 0.913 . S
C169 H145 0.950 . S
C169 C168 1.524 . S
C169 C170 1.415 . S
C170 H146 0.950 . S
C170 C165 1.363 . S
C170 C169 1.415 . S
C171 H147 0.951 . S
C171 C172 1.366 . S
C171 C173 1.388 . S
C172 C171 1.366 . S
C172 C176 1.385 . S
C173 H148 0.951 . S
C173 C171 1.388 . S
C173 C174 1.366 . S
C174 C173 1.366 . S
C174 C175 1.414 . S
C174 C177 1.499 . S
C175 H149 0.950 . S
C175 C174 1.414 . S
C175 C176 1.374 . S
C176 H150 0.950 . S
C176 C172 1.385 . S
C176 C175 1.374 . S
C177 C174 1.499 . S
C177 C178 1.373 . S
C177 C179 1.389 . S
C178 H151 0.950 1_455 S
C178 C164 1.377 . S
C178 C177 1.373 . S
C179 C163 1.377 . S
C179 C177 1.389 . S
C179 C180 1.524 . S
C180 C179 1.524 . S
C180 C181 1.397 . S
C180 C185 1.363 . S
C181 H152 0.950 . S
C181 C180 1.397 . S
C181 C182 1.334 . S
C182 H153 0.950 . S
C182 C181 1.334 . S
C182 C183 1.287 . S
C183 C182 1.287 . S
C183 C184 1.524 . S
C183 H186 0.999 . S
C184 H154 0.950 . S
C184 C183 1.524 . S
C184 C185 1.415 . S
C185 H155 0.950 . S
C185 C180 1.363 . S
C185 C184 1.415 . S
H186 C183 0.999 . S
H187 C168 0.913 . S
H188 C206 0.951 1_565 S
H189 C208 0.951 1_565 S
H190 C210 0.950 . S
H191 C211 0.950 . S
H192 C213 0.950 . S
H193 C216 0.950 1_545 S
H194 C217 0.950 . S
H195 C219 0.950 . S
H196 C220 0.950 . S
H197 C221 0.951 . S
H198 C223 0.951 . S
H199 C225 0.950 . S
H200 C226 0.950 . S
H201 C228 0.950 1_565 S
H202 C231 0.950 . S
H203 C232 0.950 . S
H204 C234 0.950 . S
H205 C235 0.950 . S
C206 H188 0.951 1_545 S
C206 C207 1.366 . S
C206 C208 1.388 . S
C207 C206 1.366 . S
C207 C211 1.385 . S
C208 H189 0.951 1_545 S
C208 C206 1.388 . S
C208 C209 1.366 . S
C209 C208 1.366 . S
C209 C210 1.414 . S
C209 C212 1.499 . S
C210 H190 0.950 . S
C210 C209 1.414 . S
C210 C211 1.374 . S
C211 H191 0.950 . S
C211 C207 1.385 . S
C211 C210 1.374 . S
C212 C209 1.499 . S
C212 C213 1.373 . S
C212 C214 1.389 . S
C213 H192 0.950 . S
C213 C212 1.373 . S
C213 C229 1.377 . S
C214 C212 1.389 . S
C214 C215 1.524 1_545 S
C214 C228 1.377 . S
C215 C214 1.524 1_565 S
C215 C216 1.397 . S
C215 C220 1.363 . S
C216 H193 0.950 1_565 S
C216 C215 1.397 . S
C216 C217 1.334 . S
C217 H194 0.950 . S
C217 C216 1.334 . S
C217 C218 1.287 . S
C218 C217 1.287 . S
C218 C219 1.524 . S
C218 H237 0.913 . S
C219 H195 0.950 . S
C219 C218 1.524 . S
C219 C220 1.415 . S
C220 H196 0.950 . S
C220 C215 1.363 . S
C220 C219 1.415 . S
C221 H197 0.951 . S
C221 C222 1.366 . S
C221 C223 1.388 . S
C222 C221 1.366 . S
C222 C226 1.385 1_545 S
C223 H198 0.951 . S
C223 C221 1.388 . S
C223 C224 1.366 . S
C224 C223 1.366 . S
C224 C225 1.414 1_545 S
C224 C227 1.499 . S
C225 H199 0.950 . S
C225 C224 1.414 1_565 S
C225 C226 1.374 . S
C226 H200 0.950 . S
C226 C222 1.385 1_565 S
C226 C225 1.374 . S
C227 C224 1.499 . S
C227 C228 1.373 . S
C227 C229 1.389 . S
C228 H201 0.950 1_545 S
C228 C214 1.377 . S
C228 C227 1.373 . S
C229 C213 1.377 . S
C229 C227 1.389 . S
C229 C230 1.524 . S
C230 C229 1.524 . S
C230 C231 1.397 . S
C230 C235 1.363 . S
C231 H202 0.950 . S
C231 C230 1.397 . S
C231 C232 1.334 . S
C232 H203 0.950 . S
C232 C231 1.334 . S
C232 C233 1.287 . S
C233 C232 1.287 . S
C233 C234 1.524 . S
C233 H236 0.999 . S
C234 H204 0.950 . S
C234 C233 1.524 . S
C234 C235 1.415 . S
C235 H205 0.950 . S
C235 C230 1.363 . S
C235 C234 1.415 . S
H236 C233 0.999 . S
H237 C218 0.913 . S
H238 C256 0.951 1_655 S
H239 C258 0.951 1_655 S
H240 C260 0.950 . S
H241 C261 0.950 . S
H242 C263 0.950 . S
H243 C266 0.950 . S
H244 C267 0.950 . S
H245 C269 0.950 1_655 S
H246 C270 0.950 1_655 S
H247 C271 0.951 . S
H248 C273 0.951 . S
H249 C275 0.948 1_655 S
H250 C276 0.962 . S
H251 C278 0.950 . S
H252 C281 0.937 1_655 S
H253 C282 0.950 . S
H254 C284 0.950 . S
H255 C285 0.950 . S
C256 H238 0.951 1_455 S
C256 C257 1.366 . S
C256 C258 1.388 . S
C257 C256 1.366 . S
C257 C261 1.385 . S
C258 H239 0.951 1_455 S
C258 C256 1.388 . S
C258 C259 1.366 . S
C259 C258 1.366 . S
C259 C260 1.414 . S
C259 C262 1.499 . S
C260 H240 0.950 . S
C260 C259 1.414 . S
C260 C261 1.374 . S
C261 H241 0.950 . S
C261 C257 1.385 . S
C261 C260 1.374 . S
C262 C259 1.499 . S
C262 C263 1.373 . S
C262 C264 1.389 . S
C263 H242 0.950 . S
C263 C262 1.373 . S
C263 C279 1.377 . S
C264 C262 1.389 . S
C264 C265 1.524 . S
C264 C278 1.377 . S
C265 C264 1.524 . S
C265 C266 1.397 . S
C265 C270 1.363 . S
C266 H243 0.950 . S
C266 C265 1.397 . S
C266 C267 1.334 . S
C267 H244 0.950 . S
C267 C266 1.334 . S
C267 C268 1.287 . S
C268 C267 1.287 . S
C268 C269 1.524 . S
C268 H287 0.913 . S
C269 H245 0.950 1_455 S
C269 C268 1.524 . S
C269 C270 1.415 . S
C270 H246 0.950 1_455 S
C270 C265 1.363 . S
C270 C269 1.415 . S
C271 H247 0.951 . S
C271 C272 1.366 . S
C271 C273 1.388 . S
C272 C271 1.366 . S
C272 C276 1.378 1_455 S
C273 H248 0.951 . S
C273 C271 1.388 . S
C273 C274 1.366 . S
C274 C273 1.366 . S
C274 C275 1.418 . S
C274 C277 1.499 . S
C275 H249 0.948 1_455 S
C275 C274 1.418 . S
C275 C276 1.367 1_455 S
C276 H250 0.962 . S
C276 C272 1.378 1_655 S
C276 C275 1.367 1_655 S
C277 C274 1.499 . S
C277 C278 1.373 . S
C277 C279 1.389 . S
C278 H251 0.950 . S
C278 C264 1.377 . S
C278 C277 1.373 . S
C279 C263 1.377 . S
C279 C277 1.389 . S
C279 C280 1.524 . S
C280 C279 1.524 . S
C280 C281 1.425 . S
C280 C285 1.363 . S
C281 H252 0.937 1_455 S
C281 C280 1.425 . S
C281 C282 1.319 1_455 S
C282 H253 0.950 . S
C282 C281 1.319 1_655 S
C282 C283 1.287 1_655 S
C283 C282 1.287 1_455 S
C283 C284 1.524 . S
C283 H286 0.999 . S
C284 H254 0.950 . S
C284 C283 1.524 . S
C284 C285 1.415 . S
C285 H255 0.950 . S
C285 C280 1.363 . S
C285 C284 1.415 . S
H286 C283 0.999 . S
H287 C268 0.913 . S
H288 C306 0.951 1_565 S
H289 C308 0.951 1_565 S
H290 C310 0.950 . S
H291 C311 0.950 . S
H292 C313 0.950 . S
H293 C316 0.950 . S
H294 C317 0.950 . S
H295 C319 0.950 . S
H296 C320 0.950 . S
H297 C321 0.951 . S
H298 C323 0.951 . S
H299 C325 0.950 1_565 S
H300 C326 0.950 1_565 S
H301 C328 0.950 1_565 S
H302 C331 0.950 . S
H303 C332 0.950 . S
H304 C334 0.950 . S
H305 C335 0.950 . S
C306 H288 0.951 1_545 S
C306 C307 1.366 . S
C306 C308 1.388 . S
C307 C306 1.366 . S
C307 C311 1.385 . S
C308 H289 0.951 1_545 S
C308 C306 1.388 . S
C308 C309 1.366 . S
C309 C308 1.366 . S
C309 C310 1.414 . S
C309 C312 1.499 . S
C310 H290 0.950 . S
C310 C309 1.414 . S
C310 C311 1.374 . S
C311 H291 0.950 . S
C311 C307 1.385 . S
C311 C310 1.374 . S
C312 C309 1.499 . S
C312 C313 1.373 . S
C312 C314 1.381 1_545 S
C313 H292 0.950 . S
C313 C312 1.373 . S
C313 C329 1.377 . S
C314 C312 1.381 1_565 S
C314 C315 1.536 . S
C314 C328 1.373 1_565 S
C315 C314 1.536 . S
C315 C316 1.397 . S
C315 C320 1.363 . S
C316 H293 0.950 . S
C316 C315 1.397 . S
C316 C317 1.334 . S
C317 H294 0.950 . S
C317 C316 1.334 . S
C317 C318 1.287 . S
C318 C317 1.287 . S
C318 C319 1.524 . S
C318 H337 0.913 . S
C319 H295 0.950 . S
C319 C318 1.524 . S
C319 C320 1.415 . S
C320 H296 0.950 . S
C320 C315 1.363 . S
C320 C319 1.415 . S
C321 H297 0.951 . S
C321 C322 1.366 . S
C321 C323 1.388 . S
C322 C321 1.366 . S
C322 C326 1.385 . S
C323 H298 0.951 . S
C323 C321 1.388 . S
C323 C324 1.366 . S
C324 C323 1.366 . S
C324 C325 1.414 . S
C324 C327 1.499 . S
C325 H299 0.950 1_545 S
C325 C324 1.414 . S
C325 C326 1.374 . S
C326 H300 0.950 1_545 S
C326 C322 1.385 . S
C326 C325 1.374 . S
C327 C324 1.499 . S
C327 C328 1.373 . S
C327 C329 1.389 . S
C328 H301 0.950 1_545 S
C328 C314 1.373 1_545 S
C328 C327 1.373 . S
C329 C313 1.377 . S
C329 C327 1.389 . S
C329 C330 1.524 . S
C330 C329 1.524 . S
C330 C331 1.397 . S
C330 C335 1.363 . S
C331 H302 0.950 . S
C331 C330 1.397 . S
C331 C332 1.334 . S
C332 H303 0.950 . S
C332 C331 1.334 . S
C332 C333 1.287 . S
C333 C332 1.287 . S
C333 C334 1.524 . S
C333 H336 0.999 . S
C334 H304 0.950 . S
C334 C333 1.524 . S
C334 C335 1.415 . S
C335 H305 0.950 . S
C335 C330 1.363 . S
C335 C334 1.415 . S
H336 C333 0.999 . S
H337 C318 0.913 . S
H338 C356 0.951 . S
H339 C358 0.951 . S
H340 C360 0.950 . S
H341 C361 0.950 . S
H342 C363 0.950 1_565 S
H343 C366 0.950 . S
H344 C367 0.950 . S
H345 C369 0.950 . S
H346 C370 0.950 . S
H347 C371 0.951 1_565 S
H348 C373 0.951 1_565 S
H349 C375 0.950 . S
H350 C376 0.950 . S
H351 C378 0.950 . S
H352 C381 0.950 . S
H353 C382 0.950 . S
H354 C384 0.950 . S
H355 C385 0.950 . S
C356 H338 0.951 . S
C356 C357 1.366 . S
C356 C358 1.388 . S
C357 C356 1.366 . S
C357 C361 1.385 . S
C358 H339 0.951 . S
C358 C356 1.388 . S
C358 C359 1.366 . S
C359 C358 1.366 . S
C359 C360 1.414 . S
C359 C362 1.499 . S
C360 H340 0.950 . S
C360 C359 1.414 . S
C360 C361 1.374 . S
C361 H341 0.950 . S
C361 C357 1.385 . S
C361 C360 1.374 . S
C362 C359 1.499 . S
C362 C363 1.373 . S
C362 C364 1.389 . S
C363 H342 0.950 1_545 S
C363 C362 1.373 . S
C363 C379 1.377 . S
C364 C362 1.389 . S
C364 C365 1.524 . S
C364 C378 1.377 . S
C365 C364 1.524 . S
C365 C366 1.397 . S
C365 C370 1.363 . S
C366 H343 0.950 . S
C366 C365 1.397 . S
C366 C367 1.334 . S
C367 H344 0.950 . S
C367 C366 1.334 . S
C367 C368 1.287 . S
C368 C367 1.287 . S
C368 C369 1.524 . S
C368 H387 0.913 . S
C369 H345 0.950 . S
C369 C368 1.524 . S
C369 C370 1.415 . S
C370 H346 0.950 . S
C370 C365 1.363 . S
C370 C369 1.415 . S
C371 H347 0.951 1_545 S
C371 C372 1.366 . S
C371 C373 1.388 . S
C372 C371 1.366 . S
C372 C376 1.385 . S
C373 H348 0.951 1_545 S
C373 C371 1.388 . S
C373 C374 1.366 . S
C374 C373 1.366 . S
C374 C375 1.414 . S
C374 C377 1.499 . S
C375 H349 0.950 . S
C375 C374 1.414 . S
C375 C376 1.374 . S
C376 H350 0.950 . S
C376 C372 1.385 . S
C376 C375 1.374 . S
C377 C374 1.499 . S
C377 C378 1.373 . S
C377 C379 1.389 . S
C378 H351 0.950 . S
C378 C364 1.377 . S
C378 C377 1.373 . S
C379 C363 1.377 . S
C379 C377 1.389 . S
C379 C380 1.524 1_545 S
C380 C379 1.524 1_565 S
C380 C381 1.397 . S
C380 C385 1.363 . S
C381 H352 0.950 . S
C381 C380 1.397 . S
C381 C382 1.334 . S
C382 H353 0.950 . S
C382 C381 1.334 . S
C382 C383 1.287 . S
C383 C382 1.287 . S
C383 C384 1.524 . S
C383 H386 0.999 . S
C384 H354 0.950 . S
C384 C383 1.524 . S
C384 C385 1.415 . S
C385 H355 0.950 . S
C385 C380 1.363 . S
C385 C384 1.415 . S
H386 C383 0.999 . S
H387 C368 0.913 . S
H388 C406 0.951 . S
H389 C408 0.951 . S
H390 C410 0.950 . S
H391 C411 0.950 . S
H392 C413 0.950 . S
H393 C416 0.950 . S
H394 C417 0.950 . S
H395 C419 0.950 . S
H396 C420 0.950 . S
H397 C421 0.951 . S
H398 C423 0.951 . S
H399 C425 0.950 . S
H400 C426 0.950 . S
H401 C428 0.950 1_655 S
H402 C431 0.950 . S
H403 C432 0.950 . S
H404 C434 0.950 . S
H405 C435 0.950 . S
C406 H388 0.951 . S
C406 C407 1.366 . S
C406 C408 1.388 . S
C407 C406 1.366 . S
C407 C411 1.385 . S
C408 H389 0.951 . S
C408 C406 1.388 . S
C408 C409 1.366 . S
C409 C408 1.366 . S
C409 C410 1.414 . S
C409 C412 1.499 . S
C410 H390 0.950 . S
C410 C409 1.414 . S
C410 C411 1.374 . S
C411 H391 0.950 . S
C411 C407 1.385 . S
C411 C410 1.374 . S
C412 C409 1.499 . S
C412 C413 1.373 . S
C412 C414 1.390 1_455 S
C413 H392 0.950 . S
C413 C412 1.373 . S
C413 C429 1.377 . S
C414 C412 1.390 1_655 S
C414 C415 1.524 . S
C414 C428 1.376 1_655 S
C415 C414 1.524 . S
C415 C416 1.397 . S
C415 C420 1.363 . S
C416 H393 0.950 . S
C416 C415 1.397 . S
C416 C417 1.334 . S
C417 H394 0.950 . S
C417 C416 1.334 . S
C417 C418 1.287 . S
C418 C417 1.287 . S
C418 C419 1.524 . S
C418 H437 0.913 . S
C419 H395 0.950 . S
C419 C418 1.524 . S
C419 C420 1.415 . S
C420 H396 0.950 . S
C420 C415 1.363 . S
C420 C419 1.415 . S
C421 H397 0.951 . S
C421 C422 1.366 . S
C421 C423 1.388 . S
C422 C421 1.366 . S
C422 C426 1.385 . S
C423 H398 0.951 . S
C423 C421 1.388 . S
C423 C424 1.366 . S
C424 C423 1.366 . S
C424 C425 1.414 . S
C424 C427 1.499 . S
C425 H399 0.950 . S
C425 C424 1.414 . S
C425 C426 1.374 . S
C426 H400 0.950 . S
C426 C422 1.385 . S
C426 C425 1.374 . S
C427 C424 1.499 . S
C427 C428 1.373 . S
C427 C429 1.389 . S
C428 H401 0.950 1_455 S
C428 C414 1.376 1_455 S
C428 C427 1.373 . S
C429 C413 1.377 . S
C429 C427 1.389 . S
C429 C430 1.524 . S
C430 C429 1.524 . S
C430 C431 1.397 . S
C430 C435 1.363 . S
C431 H402 0.950 . S
C431 C430 1.397 . S
C431 C432 1.334 . S
C432 H403 0.950 . S
C432 C431 1.334 . S
C432 C433 1.287 . S
C433 C432 1.287 . S
C433 C434 1.524 . S
C433 H436 0.999 . S
C434 H404 0.950 . S
C434 C433 1.524 . S
C434 C435 1.415 . S
C435 H405 0.950 . S
C435 C430 1.363 . S
C435 C434 1.415 . S
H436 C433 0.999 . S
H437 C418 0.913 . S
H438 C456 0.951 . S
H439 C458 0.951 . S
H440 C460 0.950 . S
H441 C461 0.950 . S
H442 C463 0.950 . S
H443 C466 0.950 . S
H444 C467 0.950 . S
H445 C469 0.950 . S
H446 C470 0.950 . S
H447 C471 0.951 . S
H448 C473 0.951 . S
H449 C475 0.950 . S
H450 C476 0.950 . S
H451 C478 0.950 . S
H452 C481 0.950 . S
H453 C482 0.950 . S
H454 C484 0.950 . S
H455 C485 0.950 . S
C456 H438 0.951 . S
C456 C457 1.366 . S
C456 C458 1.388 . S
C457 C456 1.366 . S
C457 C461 1.385 . S
C458 H439 0.951 . S
C458 C456 1.388 . S
C458 C459 1.366 . S
C459 C458 1.366 . S
C459 C460 1.414 . S
C459 C462 1.499 . S
C460 H440 0.950 . S
C460 C459 1.414 . S
C460 C461 1.374 . S
C461 H441 0.950 . S
C461 C457 1.385 . S
C461 C460 1.374 . S
C462 C459 1.499 . S
C462 C463 1.373 . S
C462 C464 1.389 . S
C463 H442 0.950 . S
C463 C462 1.373 . S
C463 C479 1.377 . S
C464 C462 1.389 . S
C464 C465 1.524 . S
C464 C478 1.377 . S
C465 C464 1.524 . S
C465 C466 1.397 . S
C465 C470 1.363 . S
C466 H443 0.950 . S
C466 C465 1.397 . S
C466 C467 1.334 . S
C467 H444 0.950 . S
C467 C466 1.334 . S
C467 C468 1.287 . S
C468 C467 1.287 . S
C468 C469 1.524 . S
C468 H487 0.913 . S
C469 H445 0.950 . S
C469 C468 1.524 . S
C469 C470 1.415 . S
C470 H446 0.950 . S
C470 C465 1.363 . S
C470 C469 1.415 . S
C471 H447 0.951 . S
C471 C472 1.366 . S
C471 C473 1.388 . S
C472 C471 1.366 . S
C472 C476 1.385 . S
C473 H448 0.951 . S
C473 C471 1.388 . S
C473 C474 1.366 . S
C474 C473 1.366 . S
C474 C475 1.414 . S
C474 C477 1.499 . S
C475 H449 0.950 . S
C475 C474 1.414 . S
C475 C476 1.374 . S
C476 H450 0.950 . S
C476 C472 1.385 . S
C476 C475 1.374 . S
C477 C474 1.499 . S
C477 C478 1.373 . S
C477 C479 1.389 . S
C478 H451 0.950 . S
C478 C464 1.377 . S
C478 C477 1.373 . S
C479 C463 1.377 . S
C479 C477 1.389 . S
C479 C480 1.524 . S
C480 C479 1.524 . S
C480 C481 1.397 1_545 S
C480 C485 1.363 . S
C481 H452 0.950 . S
C481 C480 1.397 1_565 S
C481 C482 1.334 . S
C482 H453 0.950 . S
C482 C481 1.334 . S
C482 C483 1.287 . S
C483 C482 1.287 . S
C483 C484 1.524 1_565 S
C483 H486 0.999 . S
C484 H454 0.950 . S
C484 C483 1.524 1_545 S
C484 C485 1.415 . S
C485 H455 0.950 . S
C485 C480 1.363 . S
C485 C484 1.415 . S
H486 C483 0.999 . S
H487 C468 0.913 . S
H488 C506 0.951 . S
H489 C508 0.951 . S
H490 C510 0.950 . S
H491 C511 0.950 . S
H492 C513 0.950 . S
H493 C516 0.950 . S
H494 C517 0.950 . S
H495 C519 0.950 . S
H496 C520 0.950 . S
H497 C521 0.951 1_655 S
H498 C523 0.951 1_655 S
H499 C525 0.950 . S
H500 C526 0.950 . S
H501 C528 0.950 . S
H502 C531 0.950 . S
H503 C532 0.950 . S
H504 C534 0.950 1_655 S
H505 C535 0.948 1_655 S
C506 H488 0.951 . S
C506 C507 1.366 . S
C506 C508 1.388 . S
C507 C506 1.366 . S
C507 C511 1.385 1_455 S
C508 H489 0.951 . S
C508 C506 1.388 . S
C508 C509 1.366 . S
C509 C508 1.366 . S
C509 C510 1.414 1_455 S
C509 C512 1.499 . S
C510 H490 0.950 . S
C510 C509 1.414 1_655 S
C510 C511 1.374 . S
C511 H491 0.950 . S
C511 C507 1.385 1_655 S
C511 C510 1.374 . S
C512 C509 1.499 . S
C512 C513 1.373 . S
C512 C514 1.389 . S
C513 H492 0.950 . S
C513 C512 1.373 . S
C513 C529 1.377 . S
C514 C512 1.389 . S
C514 C515 1.524 . S
C514 C528 1.377 . S
C515 C514 1.524 . S
C515 C516 1.397 1_455 S
C515 C520 1.363 . S
C516 H493 0.950 . S
C516 C515 1.397 1_655 S
C516 C517 1.334 . S
C517 H494 0.950 . S
C517 C516 1.334 . S
C517 C518 1.287 1_655 S
C518 C517 1.287 1_455 S
C518 C519 1.524 . S
C518 H537 0.913 . S
C519 H495 0.950 . S
C519 C518 1.524 . S
C519 C520 1.415 . S
C520 H496 0.950 . S
C520 C515 1.363 . S
C520 C519 1.415 . S
C521 H497 0.951 1_455 S
C521 C522 1.366 . S
C521 C523 1.388 . S
C522 C521 1.366 . S
C522 C526 1.385 . S
C523 H498 0.951 1_455 S
C523 C521 1.388 . S
C523 C524 1.366 . S
C524 C523 1.366 . S
C524 C525 1.414 . S
C524 C527 1.499 . S
C525 H499 0.950 . S
C525 C524 1.414 . S
C525 C526 1.374 . S
C526 H500 0.950 . S
C526 C522 1.385 . S
C526 C525 1.374 . S
C527 C524 1.499 . S
C527 C528 1.373 . S
C527 C529 1.389 . S
C528 H501 0.950 . S
C528 C514 1.377 . S
C528 C527 1.373 . S
C529 C513 1.377 . S
C529 C527 1.389 . S
C529 C530 1.524 . S
C530 C529 1.524 . S
C530 C531 1.397 . S
C530 C535 1.367 . S
C531 H502 0.950 . S
C531 C530 1.397 . S
C531 C532 1.334 . S
C532 H503 0.950 . S
C532 C531 1.334 . S
C532 C533 1.287 . S
C533 C532 1.287 . S
C533 C534 1.524 . S
C533 H536 0.999 . S
C534 H504 0.950 1_455 S
C534 C533 1.524 . S
C534 C535 1.413 . S
C535 H505 0.948 1_455 S
C535 C530 1.367 . S
C535 C534 1.413 . S
H536 C533 0.999 . S
H537 C518 0.913 . S
H538 C556 0.951 . S
H539 C558 0.951 . S
H540 C560 0.950 . S
H541 C561 0.950 . S
H542 C563 0.950 . S
H543 C566 0.950 . S
H544 C567 0.950 . S
H545 C569 0.950 . S
H546 C570 0.950 . S
H547 C571 0.951 . S
H548 C573 0.951 . S
H549 C575 0.950 . S
H550 C576 0.950 . S
H551 C578 0.950 . S
H552 C581 0.950 . S
H553 C582 0.950 . S
H554 C584 0.950 . S
H555 C585 0.950 . S
C556 H538 0.951 . S
C556 C557 1.366 . S
C556 C558 1.388 . S
C557 C556 1.366 . S
C557 C561 1.385 1_554 S
C558 H539 0.951 . S
C558 C556 1.388 . S
C558 C559 1.366 . S
C559 C558 1.366 . S
C559 C560 1.414 1_554 S
C559 C562 1.499 . S
C560 H540 0.950 . S
C560 C559 1.414 1_556 S
C560 C561 1.374 . S
C561 H541 0.950 . S
C561 C557 1.385 1_556 S
C561 C560 1.374 . S
C562 C559 1.499 . S
C562 C563 1.373 1_554 S
C562 C564 1.389 . S
C563 H542 0.950 . S
C563 C562 1.373 1_556 S
C563 C579 1.377 . S
C564 C562 1.389 . S
C564 C565 1.524 . S
C564 C578 1.377 . S
C565 C564 1.524 . S
C565 C566 1.397 . S
C565 C570 1.363 . S
C566 H543 0.950 . S
C566 C565 1.397 . S
C566 C567 1.334 . S
C567 H544 0.950 . S
C567 C566 1.334 . S
C567 C568 1.287 . S
C568 C567 1.287 . S
C568 C569 1.524 . S
C568 H587 0.913 . S
C569 H545 0.950 . S
C569 C568 1.524 . S
C569 C570 1.415 . S
C570 H546 0.950 . S
C570 C565 1.363 . S
C570 C569 1.415 . S
C571 H547 0.951 . S
C571 C572 1.366 1_556 S
C571 C573 1.388 . S
C572 C571 1.366 1_554 S
C572 C576 1.385 . S
C573 H548 0.951 . S
C573 C571 1.388 . S
C573 C574 1.366 1_556 S
C574 C573 1.366 1_554 S
C574 C575 1.414 . S
C574 C577 1.499 . S
C575 H549 0.950 . S
C575 C574 1.414 . S
C575 C576 1.374 . S
C576 H550 0.950 . S
C576 C572 1.385 . S
C576 C575 1.374 . S
C577 C574 1.499 . S
C577 C578 1.373 . S
C577 C579 1.389 1_554 S
C578 H551 0.950 . S
C578 C564 1.377 . S
C578 C577 1.373 . S
C579 C563 1.377 . S
C579 C577 1.389 1_556 S
C579 C580 1.524 . S
C580 C579 1.524 . S
C580 C581 1.397 . S
C580 C585 1.363 . S
C581 H552 0.950 . S
C581 C580 1.397 . S
C581 C582 1.334 . S
C582 H553 0.950 . S
C582 C581 1.334 . S
C582 C583 1.287 . S
C583 C582 1.287 . S
C583 C584 1.524 . S
C583 H586 0.999 . S
C584 H554 0.950 . S
C584 C583 1.524 . S
C584 C585 1.415 . S
C585 H555 0.950 . S
C585 C580 1.363 . S
C585 C584 1.415 . S
H586 C583 0.999 . S
H587 C568 0.913 . S
H588 C606 0.951 . S
H589 C608 0.951 . S
H590 C610 0.950 . S
H591 C611 0.950 . S
H592 C613 0.950 . S
H593 C616 0.950 . S
H594 C617 0.950 . S
H595 C619 0.950 . S
H596 C620 0.950 . S
H597 C621 0.951 . S
H598 C623 0.951 . S
H599 C625 0.950 . S
H600 C626 0.950 . S
H601 C628 0.950 . S
H602 C631 0.950 . S
H603 C632 0.950 . S
H604 C634 0.950 . S
H605 C635 0.950 . S
C606 H588 0.951 . S
C606 C607 1.366 . S
C606 C608 1.388 . S
C607 C606 1.366 . S
C607 C611 1.385 1_556 S
C608 H589 0.951 . S
C608 C606 1.388 . S
C608 C609 1.366 1_556 S
C609 C608 1.366 1_554 S
C609 C610 1.414 . S
C609 C612 1.499 . S
C610 H590 0.950 . S
C610 C609 1.414 . S
C610 C611 1.374 . S
C611 H591 0.950 . S
C611 C607 1.385 1_554 S
C611 C610 1.374 . S
C612 C609 1.499 . S
C612 C613 1.373 . S
C612 C614 1.389 1_554 S
C613 H592 0.950 . S
C613 C612 1.373 . S
C613 C629 1.377 . S
C614 C612 1.389 1_556 S
C614 C615 1.524 . S
C614 C628 1.377 . S
C615 C614 1.524 . S
C615 C616 1.397 . S
C615 C620 1.363 . S
C616 H593 0.950 . S
C616 C615 1.397 . S
C616 C617 1.334 . S
C617 H594 0.950 . S
C617 C616 1.334 . S
C617 C618 1.287 . S
C618 C617 1.287 . S
C618 C619 1.524 . S
C618 H637 0.913 . S
C619 H595 0.950 . S
C619 C618 1.524 . S
C619 C620 1.415 . S
C620 H596 0.950 . S
C620 C615 1.363 . S
C620 C619 1.415 . S
C621 H597 0.951 . S
C621 C622 1.366 . S
C621 C623 1.388 . S
C622 C621 1.366 . S
C622 C626 1.385 1_554 S
C623 H598 0.951 . S
C623 C621 1.388 . S
C623 C624 1.366 . S
C624 C623 1.366 . S
C624 C625 1.414 1_554 S
C624 C627 1.499 . S
C625 H599 0.950 . S
C625 C624 1.414 1_556 S
C625 C626 1.374 . S
C626 H600 0.950 . S
C626 C622 1.385 1_556 S
C626 C625 1.374 . S
C627 C624 1.499 . S
C627 C628 1.373 1_554 S
C627 C629 1.389 . S
C628 H601 0.950 . S
C628 C614 1.377 . S
C628 C627 1.373 1_556 S
C629 C613 1.377 . S
C629 C627 1.389 . S
C629 C630 1.524 . S
C630 C629 1.524 . S
C630 C631 1.397 . S
C630 C635 1.363 . S
C631 H602 0.950 . S
C631 C630 1.397 . S
C631 C632 1.334 . S
C632 H603 0.950 . S
C632 C631 1.334 . S
C632 C633 1.287 . S
C633 C632 1.287 . S
C633 C634 1.524 . S
C633 H636 0.999 . S
C634 H604 0.950 . S
C634 C633 1.524 . S
C634 C635 1.415 . S
C635 H605 0.950 . S
C635 C630 1.363 . S
C635 C634 1.415 . S
H636 C633 0.999 . S
H637 C618 0.913 . S
H638 C656 0.951 . S
H639 C658 0.951 . S
H640 C660 0.950 . S
H641 C661 0.950 . S
H642 C663 0.950 . S
H643 C666 0.950 . S
H644 C667 0.950 . S
H645 C669 0.950 . S
H646 C670 0.950 . S
H647 C671 0.951 . S
H648 C673 0.951 . S
H649 C675 0.950 . S
H650 C676 0.950 . S
H651 C678 0.950 . S
H652 C681 0.950 . S
H653 C682 0.950 . S
H654 C684 0.948 1_556 S
H655 C685 0.950 . S
C656 H638 0.951 . S
C656 C657 1.366 . S
C656 C658 1.388 . S
C657 C656 1.366 . S
C657 C661 1.385 1_554 S
C658 H639 0.951 . S
C658 C656 1.388 . S
C658 C659 1.366 . S
C659 C658 1.366 . S
C659 C660 1.414 1_554 S
C659 C662 1.499 . S
C660 H640 0.950 . S
C660 C659 1.414 1_556 S
C660 C661 1.374 . S
C661 H641 0.950 . S
C661 C657 1.385 1_556 S
C661 C660 1.374 . S
C662 C659 1.499 . S
C662 C663 1.373 . S
C662 C664 1.389 . S
C663 H642 0.950 . S
C663 C662 1.373 . S
C663 C679 1.377 . S
C664 C662 1.389 . S
C664 C665 1.524 . S
C664 C678 1.377 . S
C665 C664 1.524 . S
C665 C666 1.397 1_554 S
C665 C670 1.363 . S
C666 H643 0.950 . S
C666 C665 1.397 1_556 S
C666 C667 1.334 . S
C667 H644 0.950 . S
C667 C666 1.334 . S
C667 C668 1.287 . S
C668 C667 1.287 . S
C668 C669 1.524 1_556 S
C668 H687 0.913 . S
C669 H645 0.950 . S
C669 C668 1.524 1_554 S
C669 C670 1.415 . S
C670 H646 0.950 . S
C670 C665 1.363 . S
C670 C669 1.415 . S
C671 H647 0.951 . S
C671 C672 1.366 1_556 S
C671 C673 1.388 . S
C672 C671 1.366 1_554 S
C672 C676 1.385 . S
C673 H648 0.951 . S
C673 C671 1.388 . S
C673 C674 1.366 1_556 S
C674 C673 1.366 1_554 S
C674 C675 1.414 . S
C674 C677 1.499 . S
C675 H649 0.950 . S
C675 C674 1.414 . S
C675 C676 1.374 . S
C676 H650 0.950 . S
C676 C672 1.385 . S
C676 C675 1.374 . S
C677 C674 1.499 . S
C677 C678 1.373 . S
C677 C679 1.389 . S
C678 H651 0.950 . S
C678 C664 1.377 . S
C678 C677 1.373 . S
C679 C663 1.377 . S
C679 C677 1.389 . S
C679 C680 1.524 . S
C680 C679 1.524 . S
C680 C681 1.397 . S
C680 C685 1.363 1_554 S
C681 H652 0.950 . S
C681 C680 1.397 . S
C681 C682 1.334 . S
C682 H653 0.950 . S
C682 C681 1.334 . S
C682 C683 1.287 . S
C683 C682 1.287 . S
C683 C684 1.526 . S
C683 H686 0.999 . S
C684 H654 0.948 1_554 S
C684 C683 1.526 . S
C684 C685 1.415 1_554 S
C685 H655 0.950 . S
C685 C680 1.363 1_556 S
C685 C684 1.415 1_556 S
H686 C683 0.999 . S
H687 C668 0.913 . S
H688 C706 0.951 . S
H689 C708 0.951 . S
H690 C710 0.950 . S
H691 C711 0.950 . S
H692 C713 0.950 . S
H693 C716 0.950 . S
H694 C717 0.950 . S
H695 C719 0.950 . S
H696 C720 0.950 . S
H697 C721 0.951 . S
H698 C723 0.951 . S
H699 C725 0.950 . S
H700 C726 0.950 . S
H701 C728 0.950 . S
H702 C731 0.950 . S
H703 C732 0.950 . S
H704 C734 0.950 . S
H705 C735 0.950 . S
C706 H688 0.951 . S
C706 C707 1.358 1_554 S
C706 C708 1.388 . S
C707 C706 1.358 1_556 S
C707 C711 1.402 . S
C708 H689 0.951 . S
C708 C706 1.388 . S
C708 C709 1.380 . S
C709 C708 1.380 . S
C709 C710 1.408 1_554 S
C709 C712 1.492 . S
C710 H690 0.950 . S
C710 C709 1.408 1_556 S
C710 C711 1.374 . S
C711 H691 0.950 . S
C711 C707 1.402 . S
C711 C710 1.374 . S
C712 C709 1.492 . S
C712 C713 1.373 . S
C712 C714 1.389 1_554 S
C713 H692 0.950 . S
C713 C712 1.373 . S
C713 C729 1.377 . S
C714 C712 1.389 1_556 S
C714 C715 1.524 . S
C714 C728 1.377 . S
C715 C714 1.524 . S
C715 C716 1.397 . S
C715 C720 1.363 . S
C716 H693 0.950 . S
C716 C715 1.397 . S
C716 C717 1.334 . S
C717 H694 0.950 . S
C717 C716 1.334 . S
C717 C718 1.287 . S
C718 C717 1.287 . S
C718 C719 1.524 . S
C718 H737 0.913 . S
C719 H695 0.950 . S
C719 C718 1.524 . S
C719 C720 1.415 . S
C720 H696 0.950 . S
C720 C715 1.363 . S
C720 C719 1.415 . S
C721 H697 0.951 . S
C721 C722 1.366 . S
C721 C723 1.388 . S
C722 C721 1.366 . S
C722 C726 1.385 . S
C723 H698 0.951 . S
C723 C721 1.388 . S
C723 C724 1.366 . S
C724 C723 1.366 . S
C724 C725 1.414 . S
C724 C727 1.499 . S
C725 H699 0.950 . S
C725 C724 1.414 . S
C725 C726 1.374 . S
C726 H700 0.950 . S
C726 C722 1.385 . S
C726 C725 1.374 . S
C727 C724 1.499 . S
C727 C728 1.373 1_554 S
C727 C729 1.389 . S
C728 H701 0.950 . S
C728 C714 1.377 . S
C728 C727 1.373 1_556 S
C729 C713 1.377 . S
C729 C727 1.389 . S
C729 C730 1.524 . S
C730 C729 1.524 . S
C730 C731 1.397 . S
C730 C735 1.363 . S
C731 H702 0.950 . S
C731 C730 1.397 . S
C731 C732 1.334 . S
C732 H703 0.950 . S
C732 C731 1.334 . S
C732 C733 1.287 . S
C733 C732 1.287 . S
C733 C734 1.524 . S
C733 H736 0.999 . S
C734 H704 0.950 . S
C734 C733 1.524 . S
C734 C735 1.415 . S
C735 H705 0.950 . S
C735 C730 1.363 . S
C735 C734 1.415 . S
H736 C733 0.999 . S
H737 C718 0.913 . S
C157 N2 1.490 . S
C172 N94 1.487 . S
C207 C16 1.450 . S
C222 C131 1.452 . S
C257 N104 1.447 . S
C272 N12 1.445 . S
C307 C122 1.513 . S
C322 C7 1.513 . S
C357 N117 1.456 . S
C372 C39 1.482 . S
C407 N58 1.460 . S
C422 C99 1.494 . S
C457 N127 1.460 . S
C472 C30 1.494 . S
C507 C108 1.482 . S
C522 N48 1.456 . S
C557 C62 1.452 . S
C572 C85 1.450 . S
C607 N81 1.446 1_556 S
C622 N35 1.447 . S
C657 C53 1.513 . S
C672 C76 1.513 . S
C707 N71 1.490 . S
C722 N25 1.487 . S
