# Generated by pormake.
# Topology uov, (4)-cn, num edge types: 1
# Building blocks:
#     Node 0, Type 0, BuildingBlock: CEKHIL_clean_sbu_0, # of connection points: 4
#     Node 1, Type 0, BuildingBlock: CEKHIL_clean_sbu_0, # of connection points: 4
#     Node 2, Type 0, BuildingBlock: CEKHIL_clean_sbu_0, # of connection points: 4
#     Node 3, Type 0, BuildingBlock: CEKHIL_clean_sbu_0, # of connection points: 4
#     Node 4, Type 0, BuildingBlock: CEKHIL_clean_sbu_0, # of connection points: 4
#     Node 5, Type 0, BuildingBlock: CEKHIL_clean_sbu_0, # of connection points: 4
#     Node 6, Type 0, BuildingBlock: CEKHIL_clean_sbu_0, # of connection points: 4
#     Node 7, Type 0, BuildingBlock: CEKHIL_clean_sbu_0, # of connection points: 4
#     Edge 8, Type (0, 0), BuildingBlock: XIVTED_clean_linker_0, # of connection points: 2
#     Edge 9, Type (0, 0), BuildingBlock: XIVTED_clean_linker_0, # of connection points: 2
#     Edge 10, Type (0, 0), BuildingBlock: XIVTED_clean_linker_0, # of connection points: 2
#     Edge 11, Type (0, 0), BuildingBlock: XIVTED_clean_linker_0, # of connection points: 2
#     Edge 12, Type (0, 0), BuildingBlock: XIVTED_clean_linker_0, # of connection points: 2
#     Edge 13, Type (0, 0), BuildingBlock: XIVTED_clean_linker_0, # of connection points: 2
#     Edge 14, Type (0, 0), BuildingBlock: XIVTED_clean_linker_0, # of connection points: 2
#     Edge 15, Type (0, 0), BuildingBlock: XIVTED_clean_linker_0, # of connection points: 2
#     Edge 16, Type (0, 0), BuildingBlock: XIVTED_clean_linker_0, # of connection points: 2
#     Edge 17, Type (0, 0), BuildingBlock: XIVTED_clean_linker_0, # of connection points: 2
#     Edge 18, Type (0, 0), BuildingBlock: XIVTED_clean_linker_0, # of connection points: 2
#     Edge 19, Type (0, 0), BuildingBlock: XIVTED_clean_linker_0, # of connection points: 2
#     Edge 20, Type (0, 0), BuildingBlock: XIVTED_clean_linker_0, # of connection points: 2
#     Edge 21, Type (0, 0), BuildingBlock: XIVTED_clean_linker_0, # of connection points: 2
#     Edge 22, Type (0, 0), BuildingBlock: XIVTED_clean_linker_0, # of connection points: 2
#     Edge 23, Type (0, 0), BuildingBlock: XIVTED_clean_linker_0, # of connection points: 2
# Relax obj value: 0.153
# Max RMSD: 0.151
# Mean RMSD: 0.151
data_MOF--net-uov--node1-CEKHIL_clean_sbu_0--edge1-XIVTED_clean_linker_0
_symmetry_space_group_name_H-M    P1
_symmetry_Int_Tables_number       1
_symmetry_cell_setting            triclinic
loop_
_symmetry_equiv_pos_as_xyz
'x, y, z'
_cell_length_a     29.900126
_cell_length_b     29.90669
_cell_length_c     42.040491
_cell_angle_alpha  90.050115
_cell_angle_beta   89.970082
_cell_angle_gamma 89.707367
loop_
_atom_site_label
_atom_site_type_symbol
_atom_site_fract_x
_atom_site_fract_y
_atom_site_fract_z
_atom_type_partial_charge
Co0 Co 0.0136 0.26465 0.61165 0.0
O1 O 0.99078 0.31204 0.63806 0.0
O2 O 0.0513 0.31636 0.60766 0.0
C3 C 0.94731 0.24665 0.5896 0.0
O4 O 0.04641 0.22382 0.5804 0.0
Co5 Co 0.98095 0.16644 0.61911 0.0
O6 O 0.01157 0.15743 0.57767 0.0
C7 C 0.0427 0.20655 0.66624 0.0
C8 C 0.02323 0.33598 0.62684 0.0
C9 C 0.04066 0.18509 0.56768 0.0
O10 O 0.05003 0.24043 0.64818 0.0
O11 O 0.01341 0.1766 0.66018 0.0
O12 O 0.97023 0.27996 0.57852 0.0
O13 O 0.96325 0.22816 0.61487 0.0
Co14 Co 0.27266 0.97397 0.38938 0.0
O15 O 0.31153 0.00401 0.35972 0.0
O16 O 0.33139 0.94732 0.39067 0.0
C17 C 0.24195 0.03618 0.41105 0.0
O18 O 0.24392 0.93602 0.42406 0.0
Co19 Co 0.16912 0.98264 0.3878 0.0
O20 O 0.17481 0.96317 0.43262 0.0
C21 C 0.21493 0.91963 0.3441 0.0
C22 C 0.34264 0.97678 0.36947 0.0
C23 C 0.20836 0.93972 0.44111 0.0
O24 O 0.25348 0.93016 0.3554 0.0
O25 O 0.17809 0.93744 0.35324 0.0
O26 O 0.28106 0.0222 0.42034 0.0
O27 O 0.22504 0.01485 0.38725 0.0
Co28 Co 0.98338 0.73526 0.60671 0.0
O29 O 0.00201 0.68969 0.63627 0.0
O30 O 0.95009 0.68148 0.59908 0.0
C31 C 0.05305 0.75621 0.59258 0.0
O32 O 0.95615 0.77311 0.57115 0.0
Co33 Co 0.00807 0.83557 0.61452 0.0
O34 O 0.98987 0.84001 0.56935 0.0
C35 C 0.93097 0.79724 0.64991 0.0
C36 C 0.97426 0.66369 0.62149 0.0
C37 C 0.96376 0.81089 0.55755 0.0
O38 O 0.93692 0.75829 0.63755 0.0
O39 O 0.95625 0.83083 0.64454 0.0
O40 O 0.0347 0.72138 0.57971 0.0
O41 O 0.0304 0.77495 0.61515 0.0
Co42 Co 0.7377 0.02641 0.38044 0.0
O43 O 0.69832 0.99746 0.3505 0.0
O44 O 0.67922 0.05331 0.38256 0.0
C45 C 0.76807 0.96328 0.40088 0.0
O46 O 0.76669 0.06321 0.41555 0.0
Co47 Co 0.84114 0.01748 0.37869 0.0
O48 O 0.8359 0.0362 0.42374 0.0
C49 C 0.79549 0.08318 0.33687 0.0
C50 C 0.66747 0.0244 0.3611 0.0
C51 C 0.80235 0.05953 0.43242 0.0
O52 O 0.75687 0.07147 0.34744 0.0
O53 O 0.83232 0.06506 0.34573 0.0
O54 O 0.7291 0.97729 0.41048 0.0
O55 O 0.78522 0.98529 0.37749 0.0
Co56 Co 0.9692 0.26953 0.10366 0.0
O57 O 0.00121 0.30877 0.13195 0.0
O58 O 0.94383 0.32881 0.10167 0.0
C59 C 0.03004 0.23682 0.08156 0.0
O60 O 0.92934 0.24001 0.07035 0.0
Co61 Co 0.97605 0.16596 0.10771 0.0
O62 O 0.95472 0.16985 0.06324 0.0
C63 C 0.91515 0.21513 0.1511 0.0
C64 C 0.97439 0.34012 0.12209 0.0
C65 C 0.93163 0.20341 0.05433 0.0
O66 O 0.9262 0.25285 0.13875 0.0
O67 O 0.93193 0.17751 0.14263 0.0
O68 O 0.01638 0.27575 0.07171 0.0
O69 O 0.00928 0.22121 0.10606 0.0
Co70 Co 0.26466 0.01246 0.88231 0.0
O71 O 0.31131 0.99118 0.85478 0.0
O72 O 0.31561 0.0514 0.88553 0.0
C73 C 0.24947 0.94551 0.90436 0.0
O74 O 0.22406 0.04366 0.91454 0.0
Co75 Co 0.1673 0.97667 0.87642 0.0
O76 O 0.15919 0.00622 0.91832 0.0
C77 C 0.20287 0.04172 0.82958 0.0
C78 C 0.33498 0.02397 0.86574 0.0
C79 C 0.18608 0.03626 0.92796 0.0
O80 O 0.23795 0.04871 0.84656 0.0
O81 O 0.17382 0.01172 0.83611 0.0
O82 O 0.28253 0.96926 0.91492 0.0
O83 O 0.22967 0.96109 0.87947 0.0
Co84 Co 0.02765 0.73532 0.11295 0.0
O85 O 0.99739 0.69497 0.14142 0.0
O86 O 0.05726 0.67803 0.11261 0.0
C87 C 0.96555 0.76227 0.08882 0.0
O88 O 0.06669 0.76584 0.07985 0.0
Co89 Co 0.01315 0.83825 0.11379 0.0
O90 O 0.03775 0.83391 0.07013 0.0
C91 C 0.07682 0.79625 0.15902 0.0
C92 C 0.02646 0.66512 0.13234 0.0
C93 C 0.0635 0.80146 0.06291 0.0
O94 O 0.06813 0.75697 0.14816 0.0
O95 O 0.05776 0.83203 0.14908 0.0
O96 O 0.98251 0.72401 0.0803 0.0
O97 O 0.98399 0.7807 0.11329 0.0
Co98 Co 0.73195 0.97259 0.88123 0.0
O99 O 0.68529 0.99651 0.85488 0.0
O100 O 0.67884 0.93694 0.88597 0.0
C101 C 0.75218 0.03859 0.90258 0.0
O102 O 0.77239 0.93949 0.91251 0.0
Co103 Co 0.83068 0.00165 0.87095 0.0
O104 O 0.83935 0.97358 0.91331 0.0
C105 C 0.78703 0.93995 0.82578 0.0
C106 C 0.66021 0.96531 0.86654 0.0
C107 C 0.81147 0.94562 0.92457 0.0
O108 O 0.754 0.93443 0.84492 0.0
O109 O 0.81828 0.96837 0.83038 0.0
O110 O 0.71834 0.01685 0.914 0.0
O111 O 0.7699 0.02184 0.87718 0.0
H112 H 0.95387 0.59961 0.57825 0.0
H113 H 0.99171 0.38365 0.67775 0.0
H114 H 0.0006 0.61731 0.67454 0.0
H115 H 0.05237 0.39867 0.58526 0.0
H116 H 0.97888 0.46507 0.67957 0.0
H117 H 0.96999 0.51952 0.58245 0.0
C118 C 0.96652 0.58648 0.60053 0.0
C119 C 0.976 0.61496 0.62611 0.0
C120 C 0.99558 0.45034 0.6592 0.0
C121 C 0.99433 0.52386 0.63092 0.0
C122 C 0.00302 0.40421 0.65815 0.0
C123 C 0.02323 0.38471 0.63135 0.0
C124 C 0.00699 0.47641 0.63277 0.0
C125 C 0.03703 0.41253 0.60645 0.0
C126 C 0.97618 0.54102 0.60272 0.0
C127 C 0.99296 0.59629 0.6543 0.0
N128 N 0.02778 0.45697 0.60745 0.0
N129 N 0.00148 0.55162 0.65608 0.0
H130 H 0.60159 0.08775 0.3631 0.0
H131 H 0.40935 0.91418 0.3723 0.0
H132 H 0.62578 0.9494 0.33933 0.0
H133 H 0.38249 0.05003 0.3433 0.0
H134 H 0.4889 0.92576 0.36123 0.0
H135 H 0.5212 0.07548 0.35652 0.0
C136 C 0.58996 0.05498 0.356 0.0
C137 C 0.62017 0.01944 0.35196 0.0
C138 C 0.46545 0.95276 0.35678 0.0
C139 C 0.52854 0.00495 0.34517 0.0
C140 C 0.42016 0.94625 0.36322 0.0
C141 C 0.38947 0.98133 0.35894 0.0
C142 C 0.4802 0.99498 0.34681 0.0
C143 C 0.40514 0.02215 0.34698 0.0
C144 C 0.54418 0.04803 0.35216 0.0
C145 C 0.60349 0.97766 0.34266 0.0
N146 N 0.44961 0.02818 0.34192 0.0
N147 N 0.55862 0.97127 0.34024 0.0
H148 H 0.91294 0.40794 0.11996 0.0
H149 H 0.08954 0.59882 0.12877 0.0
H150 H 0.04971 0.37913 0.14579 0.0
H151 H 0.95159 0.62305 0.15388 0.0
H152 H 0.07669 0.51829 0.13386 0.0
H153 H 0.92619 0.48728 0.13074 0.0
C154 C 0.9456 0.4183 0.12822 0.0
C155 C 0.98036 0.3871 0.13184 0.0
C156 C 0.04949 0.54132 0.13882 0.0
C157 C 0.99591 0.47758 0.14365 0.0
C158 C 0.05677 0.58719 0.13587 0.0
C159 C 0.02148 0.61752 0.1407 0.0
C160 C 0.00637 0.52577 0.14582 0.0
C161 C 0.97969 0.60075 0.14992 0.0
C162 C 0.95308 0.46347 0.13451 0.0
C163 C 0.02202 0.40219 0.14272 0.0
N164 N 0.97302 0.5559 0.15155 0.0
N165 N 0.02891 0.44655 0.1477 0.0
H166 H 0.38092 0.99851 0.81255 0.0
H167 H 0.59614 0.94071 0.90868 0.0
H168 H 0.39875 0.04688 0.90837 0.0
H169 H 0.61429 0.99692 0.81509 0.0
H170 H 0.51641 0.9598 0.90583 0.0
H171 H 0.46173 0.98264 0.8096 0.0
C172 C 0.40205 0.00665 0.83264 0.0
C173 C 0.38352 0.02419 0.86069 0.0
C174 C 0.53792 0.96733 0.88581 0.0
C175 C 0.47435 0.00416 0.85799 0.0
C176 C 0.58308 0.95593 0.88721 0.0
C177 C 0.61156 0.96737 0.86208 0.0
C178 C 0.52117 0.98921 0.85882 0.0
C179 C 0.59318 0.98771 0.83495 0.0
C180 C 0.4478 0.99738 0.83099 0.0
C181 C 0.41195 0.0338 0.88623 0.0
N182 N 0.54886 0.99797 0.83393 0.0
N183 N 0.45594 0.0227 0.88455 0.0
H184 H 0.15463 0.05907 0.40151 0.0
H185 H 0.12759 0.20963 0.55696 0.0
H186 H 0.26536 0.08241 0.46515 0.0
H187 H 0.022 0.12717 0.51941 0.0
H188 H 0.17848 0.17931 0.51624 0.0
H189 H 0.10583 0.10095 0.43738 0.0
C190 C 0.16887 0.0734 0.42286 0.0
C191 C 0.21407 0.06663 0.43059 0.0
C192 C 0.14405 0.16826 0.51687 0.0
C193 C 0.1583 0.11516 0.4715 0.0
C194 C 0.11498 0.18566 0.53989 0.0
C195 C 0.07062 0.17064 0.54162 0.0
C196 C 0.12825 0.13649 0.49507 0.0
C197 C 0.05605 0.13934 0.51907 0.0
C198 C 0.1409 0.09721 0.44333 0.0
C199 C 0.23064 0.08652 0.45843 0.0
N200 N 0.08475 0.1234 0.49668 0.0
N201 N 0.20267 0.10983 0.47801 0.0
H202 H 0.23439 0.85288 0.45028 0.0
H203 H 0.09002 0.83603 0.60943 0.0
H204 H 0.16986 0.96442 0.49681 0.0
H205 H 0.10345 0.72798 0.54189 0.0
H206 H 0.14351 0.87952 0.57848 0.0
H207 H 0.21025 0.80411 0.49409 0.0
C208 C 0.21629 0.86726 0.47017 0.0
C209 C 0.20336 0.91239 0.4699 0.0
C210 C 0.13531 0.84597 0.57079 0.0
C211 C 0.1762 0.8574 0.51967 0.0
C212 C 0.10478 0.82113 0.58839 0.0
C213 C 0.09139 0.77884 0.57768 0.0
C214 C 0.15274 0.82825 0.54246 0.0
C215 C 0.11224 0.76085 0.5506 0.0
C216 C 0.20239 0.83948 0.49497 0.0
C217 C 0.17981 0.92956 0.49604 0.0
N218 N 0.1415 0.78595 0.53359 0.0
N219 N 0.16663 0.90195 0.51978 0.0
H220 H 0.74204 0.91261 0.45201 0.0
H221 H 0.98787 0.86766 0.50984 0.0
H222 H 0.85621 0.94171 0.39281 0.0
H223 H 0.87907 0.78468 0.54166 0.0
H224 H 0.93976 0.89741 0.46776 0.0
H225 H 0.7905 0.86723 0.48645 0.0
C226 C 0.77714 0.90909 0.44607 0.0
C227 C 0.79521 0.93142 0.41973 0.0
C228 C 0.92663 0.87217 0.48364 0.0
C229 C 0.85071 0.88027 0.45915 0.0
C230 C 0.95402 0.85526 0.50766 0.0
C231 C 0.93736 0.82376 0.52927 0.0
C232 C 0.88191 0.85834 0.48169 0.0
C233 C 0.89326 0.80879 0.52538 0.0
C234 C 0.8047 0.88314 0.46566 0.0
C235 C 0.84089 0.92552 0.41305 0.0
N236 N 0.86672 0.82682 0.50238 0.0
N237 N 0.8672 0.90114 0.43291 0.0
H238 H 0.83739 0.03462 0.48915 0.0
H239 H 0.91049 0.27399 0.53308 0.0
H240 H 0.78043 0.14755 0.43972 0.0
H241 H 0.90246 0.17034 0.60422 0.0
H242 H 0.86037 0.23045 0.49903 0.0
H243 H 0.8592 0.08419 0.53266 0.0
C244 C 0.82877 0.06981 0.48785 0.0
C245 C 0.80746 0.0873 0.46094 0.0
C246 C 0.86892 0.21777 0.52238 0.0
C247 C 0.8333 0.14424 0.50991 0.0
C248 C 0.89763 0.24247 0.54173 0.0
C249 C 0.91144 0.2252 0.57114 0.0
C250 C 0.85479 0.17534 0.5324 0.0
C251 C 0.89342 0.18446 0.5814 0.0
C252 C 0.84106 0.09805 0.51264 0.0
C253 C 0.79684 0.13301 0.46022 0.0
N254 N 0.86676 0.16043 0.56177 0.0
N255 N 0.8109 0.16027 0.48407 0.0
H256 H 0.72199 0.07969 0.95666 0.0
H257 H 0.95797 0.17755 0.99564 0.0
H258 H 0.82957 0.08223 0.88822 0.0
H259 H 0.84113 0.2128 0.05035 0.0
H260 H 0.90973 0.14983 0.95316 0.0
H261 H 0.7621 0.13446 0.98894 0.0
C262 C 0.7538 0.09221 0.94824 0.0
C263 C 0.77297 0.07579 0.92007 0.0
C264 C 0.89445 0.16451 0.97409 0.0
C265 C 0.81903 0.13815 0.95686 0.0
C266 C 0.922 0.18038 -0.00177 0.0
C267 C 0.90325 0.19725 0.02629 0.0
C268 C 0.8479 0.16414 0.97861 0.0
C269 C 0.85661 0.20016 0.02884 0.0
C270 C 0.77657 0.12363 0.96659 0.0
C271 C 0.81394 0.09347 0.91005 0.0
N272 N 0.83038 0.18274 0.00554 0.0
N273 N 0.83597 0.12316 0.9287 0.0
H274 H 0.2089 0.12357 0.93907 0.0
H275 H 0.05049 0.14881 0.091 0.0
H276 H 0.12853 0.01608 0.97615 0.0
H277 H 0.07886 0.25977 0.02871 0.0
H278 H 0.09434 0.09993 0.05633 0.0
H279 H 0.17647 0.17386 0.97929 0.0
C280 C 0.18499 0.11041 0.95597 0.0
C281 C 0.1711 0.0657 0.95418 0.0
C282 C 0.09124 0.13506 0.0504 0.0
C283 C 0.13436 0.12273 0.0001 0.0
C284 C 0.06628 0.16305 0.07019 0.0
C285 C 0.06053 0.20837 0.06251 0.0
C286 C 0.11127 0.15258 0.02298 0.0
C287 C 0.08216 0.22495 0.03535 0.0
C288 C 0.16635 0.13915 0.9787 0.0
C289 C 0.13984 0.05042 0.97652 0.0
N290 N 0.10657 0.197 0.01647 0.0
N291 N 0.12254 0.07887 -0.00144 0.0
H292 H 0.15298 0.78358 0.06006 0.0
H293 H 0.17676 0.89576 0.88898 0.0
H294 H 0.04237 0.8341 0.00474 0.0
H295 H 0.27557 0.91347 0.96272 0.0
H296 H 0.13458 0.84704 0.92442 0.0
H297 H 0.20448 0.80653 0.0174 0.0
C298 C 0.13955 0.79841 0.03856 0.0
C299 C 0.09366 0.80743 0.03576 0.0
C300 C 0.1659 0.86103 0.93259 0.0
C301 C 0.15164 0.83282 0.9873 0.0
C302 C 0.18999 0.88882 0.91245 0.0
C303 C 0.2291 0.90955 0.92328 0.0
C304 C 0.18123 0.85361 0.96362 0.0
C305 C 0.24515 0.89867 0.95367 0.0
C306 C 0.16883 0.81161 0.01446 0.0
C307 C 0.07768 0.82703 0.00775 0.0
N308 N 0.22076 0.87178 0.97306 0.0
N309 N 0.10669 0.83921 0.98457 0.0
H310 H 0.79101 0.85812 0.93722 0.0
H311 H 0.93735 0.84865 0.09579 0.0
H312 H 0.86548 0.97032 0.97345 0.0
H313 H 0.92275 0.73349 0.03477 0.0
H314 H 0.89335 0.89281 0.05821 0.0
H315 H 0.82235 0.81134 0.98002 0.0
C316 C 0.81337 0.87301 0.95446 0.0
C317 C 0.82599 0.91799 0.95178 0.0
C318 C 0.89948 0.85777 0.05322 0.0
C319 C 0.86118 0.86519 0.00063 0.0
C320 C 0.92452 0.83247 0.07466 0.0
C321 C 0.93432 0.78745 0.06817 0.0
C322 C 0.88347 0.8378 0.0253 0.0
C323 C 0.91632 0.76822 0.04053 0.0
C324 C 0.83136 0.84632 0.97866 0.0
C325 C 0.85527 0.93566 0.97454 0.0
N326 N 0.89182 0.79357 0.01998 0.0
N327 N 0.8718 0.90926 -0.00195 0.0
H328 H 0.0166 0.17224 0.72251 0.0
H329 H 0.23001 0.12882 0.81927 0.0
H330 H 0.13307 0.221 0.67311 0.0
H331 H 0.15064 0.02272 0.77887 0.0
H332 H 0.19662 0.1812 0.78034 0.0
H333 H 0.06524 0.13934 0.76285 0.0
C334 C 0.05241 0.17707 0.72066 0.0
C335 C 0.07102 0.19864 0.69429 0.0
C336 C 0.18758 0.14618 0.77983 0.0
C337 C 0.12645 0.16093 0.74008 0.0
C338 C 0.20658 0.11633 0.8018 0.0
C339 C 0.19233 0.07157 0.80264 0.0
C340 C 0.15426 0.13073 0.75919 0.0
C341 C 0.16185 0.05709 0.77957 0.0
C342 C 0.07999 0.15832 0.74359 0.0
C343 C 0.11764 0.20439 0.69314 0.0
N344 N 0.1432 0.08676 0.75923 0.0
N345 N 0.14419 0.18459 0.71549 0.0
H346 H 0.09232 0.74234 0.21072 0.0
H347 H 0.26083 0.91848 0.28799 0.0
H348 H 0.13836 0.86202 0.16414 0.0
H349 H 0.16076 0.84743 0.34139 0.0
H350 H 0.23984 0.87561 0.24034 0.0
H351 H 0.14097 0.75986 0.25631 0.0
C352 C 0.1134 0.77166 0.20983 0.0
C353 C 0.11075 0.80138 0.18413 0.0
C354 C 0.22351 0.86855 0.26277 0.0
C355 C 0.16664 0.82087 0.23534 0.0
C356 C 0.2356 0.89273 0.28987 0.0
C357 C 0.21194 0.88668 0.31828 0.0
C358 C 0.18812 0.83787 0.2645 0.0
C359 C 0.17928 0.85327 0.31965 0.0
C360 C 0.14101 0.7816 0.23572 0.0
C361 C 0.13883 0.83882 0.1839 0.0
N362 N 0.16794 0.83035 0.29299 0.0
N363 N 0.16538 0.84771 0.20925 0.0
H364 H 0.8684 0.86094 0.64185 0.0
H365 H 0.78517 0.84863 0.82172 0.0
H366 H 0.9067 0.75378 0.7048 0.0
H367 H 0.7977 0.96822 0.76539 0.0
H368 H 0.80557 0.80366 0.7746 0.0
H369 H 0.816 0.88846 0.68193 0.0
C370 C 0.86486 0.84265 0.66395 0.0
C371 C 0.89215 0.80563 0.67045 0.0
C372 C 0.80276 0.83966 0.7725 0.0
C373 C 0.83347 0.83754 0.71666 0.0
C374 C 0.79101 0.86518 0.7992 0.0
C375 C 0.79029 0.91199 0.79719 0.0
C376 C 0.81284 0.86139 0.74379 0.0
C377 C 0.79837 0.93217 0.76779 0.0
C378 C 0.83514 0.85839 0.68681 0.0
C379 C 0.88623 0.78267 0.69917 0.0
N380 N 0.80951 0.90677 0.74228 0.0
N381 N 0.85809 0.79965 0.72171 0.0
H382 H 0.73961 0.09847 0.28634 0.0
H383 H 0.91529 0.26396 0.20603 0.0
H384 H 0.8584 0.14792 0.33235 0.0
H385 H 0.84185 0.16279 0.15538 0.0
H386 H 0.87198 0.24657 0.25423 0.0
H387 H 0.75532 0.14735 0.24066 0.0
C388 C 0.76825 0.12048 0.28716 0.0
C389 C 0.79844 0.11852 0.31261 0.0
C390 C 0.86449 0.22923 0.23225 0.0
C391 C 0.81604 0.17448 0.26116 0.0
C392 C 0.88898 0.23924 0.20484 0.0
C393 C 0.88239 0.21414 0.17712 0.0
C394 C 0.83303 0.19447 0.23148 0.0
C395 C 0.84818 0.1823 0.17661 0.0
C396 C 0.77719 0.14822 0.26119 0.0
C397 C 0.83494 0.1478 0.31273 0.0
N398 N 0.82504 0.17296 0.20354 0.0
N399 N 0.84304 0.17426 0.2872 0.0
loop_
_geom_bond_atom_site_label_1
_geom_bond_atom_site_label_2
_geom_bond_distance
_geom_bond_site_symmetry_2
_ccdc_geom_bond_type
Co0 O1 2.216 . S
Co0 O2 2.091 . S
Co0 O4 2.004 . S
Co0 O10 2.021 . S
Co0 O12 2.137 . S
Co0 O13 2.244 . S
O1 Co0 2.216 . S
O1 C8 1.247 . S
O2 Co0 2.091 . S
O2 C8 1.261 . S
C3 O12 1.247 . S
C3 O13 1.272 . S
O4 Co0 2.004 . S
O4 C9 1.259 . S
Co5 O6 2.061 . S
Co5 O11 2.052 . S
Co5 O13 2.135 . S
O6 Co5 2.061 . S
O6 C9 1.235 . S
C7 O10 1.238 . S
C7 O11 1.241 . S
C8 O1 1.247 . S
C8 O2 1.261 . S
C9 O4 1.259 . S
C9 O6 1.235 . S
O10 Co0 2.021 . S
O10 C7 1.238 . S
O11 Co5 2.052 . S
O11 C7 1.241 . S
O12 Co0 2.137 . S
O12 C3 1.247 . S
O13 Co0 2.244 . S
O13 C3 1.272 . S
O13 Co5 2.135 . S
Co14 O15 2.216 . S
Co14 O16 2.091 . S
Co14 O18 2.004 . S
Co14 O24 2.021 . S
Co14 O26 2.137 . S
Co14 O27 2.244 . S
O15 Co14 2.216 . S
O15 C22 1.247 . S
O16 Co14 2.091 . S
O16 C22 1.261 . S
C17 O26 1.247 . S
C17 O27 1.272 . S
O18 Co14 2.004 . S
O18 C23 1.259 . S
Co19 O20 2.061 . S
Co19 O25 2.052 . S
Co19 O27 2.135 . S
O20 Co19 2.061 . S
O20 C23 1.235 . S
C21 O24 1.238 . S
C21 O25 1.241 . S
C22 O15 1.247 . S
C22 O16 1.261 . S
C23 O18 1.259 . S
C23 O20 1.235 . S
O24 Co14 2.021 . S
O24 C21 1.238 . S
O25 Co19 2.052 . S
O25 C21 1.241 . S
O26 Co14 2.137 . S
O26 C17 1.247 . S
O27 Co14 2.244 . S
O27 C17 1.272 . S
O27 Co19 2.135 . S
Co28 O29 2.216 . S
Co28 O30 2.091 . S
Co28 O32 2.004 . S
Co28 O38 2.021 . S
Co28 O40 2.137 . S
Co28 O41 2.244 . S
O29 Co28 2.216 . S
O29 C36 1.247 . S
O30 Co28 2.091 . S
O30 C36 1.261 . S
C31 O40 1.247 . S
C31 O41 1.272 . S
O32 Co28 2.004 . S
O32 C37 1.259 . S
Co33 O34 2.061 . S
Co33 O39 2.052 . S
Co33 O41 2.135 . S
O34 Co33 2.061 . S
O34 C37 1.235 . S
C35 O38 1.238 . S
C35 O39 1.241 . S
C36 O29 1.247 . S
C36 O30 1.261 . S
C37 O32 1.259 . S
C37 O34 1.235 . S
O38 Co28 2.021 . S
O38 C35 1.238 . S
O39 Co33 2.052 . S
O39 C35 1.241 . S
O40 Co28 2.137 . S
O40 C31 1.247 . S
O41 Co28 2.244 . S
O41 C31 1.272 . S
O41 Co33 2.135 . S
Co42 O43 2.216 . S
Co42 O44 2.091 . S
Co42 O46 2.004 . S
Co42 O52 2.021 . S
Co42 O54 2.137 . S
Co42 O55 2.244 . S
O43 Co42 2.216 . S
O43 C50 1.247 . S
O44 Co42 2.091 . S
O44 C50 1.261 . S
C45 O54 1.247 . S
C45 O55 1.272 . S
O46 Co42 2.004 . S
O46 C51 1.259 . S
Co47 O48 2.061 . S
Co47 O53 2.052 . S
Co47 O55 2.135 . S
O48 Co47 2.061 . S
O48 C51 1.235 . S
C49 O52 1.238 . S
C49 O53 1.241 . S
C50 O43 1.247 . S
C50 O44 1.261 . S
C51 O46 1.259 . S
C51 O48 1.235 . S
O52 Co42 2.021 . S
O52 C49 1.238 . S
O53 Co47 2.052 . S
O53 C49 1.241 . S
O54 Co42 2.137 . S
O54 C45 1.247 . S
O55 Co42 2.244 . S
O55 C45 1.272 . S
O55 Co47 2.135 . S
Co56 O57 2.216 . S
Co56 O58 2.091 . S
Co56 O60 2.004 . S
Co56 O66 2.021 . S
Co56 O68 2.137 . S
Co56 O69 2.244 . S
O57 Co56 2.216 . S
O57 C64 1.247 . S
O58 Co56 2.091 . S
O58 C64 1.261 . S
C59 O68 1.247 . S
C59 O69 1.272 . S
O60 Co56 2.004 . S
O60 C65 1.259 . S
Co61 O62 2.061 . S
Co61 O67 2.052 . S
Co61 O69 2.135 . S
O62 Co61 2.061 . S
O62 C65 1.235 . S
C63 O66 1.238 . S
C63 O67 1.241 . S
C64 O57 1.247 . S
C64 O58 1.261 . S
C65 O60 1.259 . S
C65 O62 1.235 . S
O66 Co56 2.021 . S
O66 C63 1.238 . S
O67 Co61 2.052 . S
O67 C63 1.241 . S
O68 Co56 2.137 . S
O68 C59 1.247 . S
O69 Co56 2.244 . S
O69 C59 1.272 . S
O69 Co61 2.135 . S
Co70 O71 2.216 . S
Co70 O72 2.091 . S
Co70 O74 2.004 . S
Co70 O80 2.021 . S
Co70 O82 2.137 . S
Co70 O83 2.244 . S
O71 Co70 2.216 . S
O71 C78 1.247 . S
O72 Co70 2.091 . S
O72 C78 1.261 . S
C73 O82 1.247 . S
C73 O83 1.272 . S
O74 Co70 2.004 . S
O74 C79 1.259 . S
Co75 O76 2.061 . S
Co75 O81 2.052 . S
Co75 O83 2.135 . S
O76 Co75 2.061 . S
O76 C79 1.235 . S
C77 O80 1.238 . S
C77 O81 1.241 . S
C78 O71 1.247 . S
C78 O72 1.261 . S
C79 O74 1.259 . S
C79 O76 1.235 . S
O80 Co70 2.021 . S
O80 C77 1.238 . S
O81 Co75 2.052 . S
O81 C77 1.241 . S
O82 Co70 2.137 . S
O82 C73 1.247 . S
O83 Co70 2.244 . S
O83 C73 1.272 . S
O83 Co75 2.135 . S
Co84 O85 2.216 . S
Co84 O86 2.091 . S
Co84 O88 2.004 . S
Co84 O94 2.021 . S
Co84 O96 2.137 . S
Co84 O97 2.244 . S
O85 Co84 2.216 . S
O85 C92 1.247 . S
O86 Co84 2.091 . S
O86 C92 1.261 . S
C87 O96 1.247 . S
C87 O97 1.272 . S
O88 Co84 2.004 . S
O88 C93 1.259 . S
Co89 O90 2.061 . S
Co89 O95 2.052 . S
Co89 O97 2.135 . S
O90 Co89 2.061 . S
O90 C93 1.235 . S
C91 O94 1.238 . S
C91 O95 1.241 . S
C92 O85 1.247 . S
C92 O86 1.261 . S
C93 O88 1.259 . S
C93 O90 1.235 . S
O94 Co84 2.021 . S
O94 C91 1.238 . S
O95 Co89 2.052 . S
O95 C91 1.241 . S
O96 Co84 2.137 . S
O96 C87 1.247 . S
O97 Co84 2.244 . S
O97 C87 1.272 . S
O97 Co89 2.135 . S
Co98 O99 2.216 . S
Co98 O100 2.091 . S
Co98 O102 2.004 . S
Co98 O108 2.021 . S
Co98 O110 2.137 . S
Co98 O111 2.244 . S
O99 Co98 2.216 . S
O99 C106 1.247 . S
O100 Co98 2.091 . S
O100 C106 1.261 . S
C101 O110 1.247 . S
C101 O111 1.272 . S
O102 Co98 2.004 . S
O102 C107 1.259 . S
Co103 O104 2.061 . S
Co103 O109 2.052 . S
Co103 O111 2.135 . S
O104 Co103 2.061 . S
O104 C107 1.235 . S
C105 O108 1.238 . S
C105 O109 1.241 . S
C106 O99 1.247 . S
C106 O100 1.261 . S
C107 O102 1.259 . S
C107 O104 1.235 . S
O108 Co98 2.021 . S
O108 C105 1.238 . S
O109 Co103 2.052 . S
O109 C105 1.241 . S
O110 Co98 2.137 . S
O110 C101 1.247 . S
O111 Co98 2.244 . S
O111 C101 1.272 . S
O111 Co103 2.135 . S
H112 C118 0.930 . S
H113 C122 0.930 . S
H114 C127 0.929 . S
H115 C125 0.929 . S
H116 C120 0.929 1_655 S
H117 C126 0.929 1_455 S
C118 H112 0.930 . S
C118 C119 1.367 . S
C118 C126 1.378 . S
C119 C118 1.367 . S
C119 C127 1.433 . S
C120 H116 0.929 1_455 S
C120 C122 1.378 . S
C120 C124 1.350 . S
C121 C124 1.463 1_655 S
C121 C126 1.350 . S
C121 N129 1.427 . S
C122 H113 0.930 . S
C122 C120 1.378 . S
C122 C123 1.367 . S
C123 C122 1.367 . S
C123 C125 1.433 . S
C124 C120 1.350 . S
C124 C121 1.463 1_455 S
C124 N128 1.427 . S
C125 H115 0.929 . S
C125 C123 1.433 . S
C125 N128 1.384 . S
C126 H117 0.929 1_655 S
C126 C118 1.378 . S
C126 C121 1.350 . S
C127 H114 0.929 . S
C127 C119 1.433 . S
C127 N129 1.384 . S
N128 C124 1.427 . S
N128 C125 1.384 . S
N129 C121 1.427 . S
N129 C127 1.384 . S
H130 C136 0.930 . S
H131 C140 0.930 . S
H132 C145 0.929 . S
H133 C143 0.929 . S
H134 C138 0.929 . S
H135 C144 0.929 . S
C136 H130 0.930 . S
C136 C137 1.367 . S
C136 C144 1.378 . S
C137 C136 1.367 . S
C137 C145 1.433 . S
C138 H134 0.929 . S
C138 C140 1.378 . S
C138 C142 1.350 . S
C139 C142 1.463 1_545 S
C139 C144 1.350 . S
C139 N147 1.427 1_545 S
C140 H131 0.930 . S
C140 C138 1.378 . S
C140 C141 1.367 . S
C141 C140 1.367 . S
C141 C143 1.433 . S
C142 C138 1.350 . S
C142 C139 1.463 1_565 S
C142 N146 1.427 1_565 S
C143 H133 0.929 . S
C143 C141 1.433 . S
C143 N146 1.384 1_565 S
C144 H135 0.929 . S
C144 C136 1.378 . S
C144 C139 1.350 . S
C145 H132 0.929 . S
C145 C137 1.433 . S
C145 N147 1.384 1_545 S
N146 C142 1.427 1_545 S
N146 C143 1.384 1_545 S
N147 C139 1.427 1_565 S
N147 C145 1.384 1_565 S
H148 C154 0.930 . S
H149 C158 0.930 . S
H150 C163 0.929 . S
H151 C161 0.929 . S
H152 C156 0.929 . S
H153 C162 0.929 . S
C154 H148 0.930 . S
C154 C155 1.367 . S
C154 C162 1.378 . S
C155 C154 1.367 . S
C155 C163 1.433 . S
C156 H152 0.929 . S
C156 C158 1.378 . S
C156 C160 1.350 . S
C157 C160 1.463 1_655 S
C157 C162 1.350 . S
C157 N165 1.427 1_655 S
C158 H149 0.930 . S
C158 C156 1.378 . S
C158 C159 1.367 . S
C159 C158 1.367 . S
C159 C161 1.433 . S
C160 C156 1.350 . S
C160 C157 1.463 1_455 S
C160 N164 1.427 1_455 S
C161 H151 0.929 . S
C161 C159 1.433 . S
C161 N164 1.384 1_455 S
C162 H153 0.929 . S
C162 C154 1.378 . S
C162 C157 1.350 . S
C163 H150 0.929 . S
C163 C155 1.433 . S
C163 N165 1.384 1_655 S
N164 C160 1.427 1_655 S
N164 C161 1.384 1_655 S
N165 C157 1.427 1_455 S
N165 C163 1.384 1_455 S
H166 C172 0.930 . S
H167 C176 0.930 . S
H168 C181 0.929 . S
H169 C179 0.929 . S
H170 C174 0.929 . S
H171 C180 0.929 . S
C172 H166 0.930 . S
C172 C173 1.367 . S
C172 C180 1.378 . S
C173 C172 1.367 . S
C173 C181 1.433 . S
C174 H170 0.929 . S
C174 C176 1.378 . S
C174 C178 1.350 . S
C175 C178 1.463 1_545 S
C175 C180 1.350 . S
C175 N183 1.427 . S
C176 H167 0.930 . S
C176 C174 1.378 . S
C176 C177 1.367 . S
C177 C176 1.367 . S
C177 C179 1.433 . S
C178 C174 1.350 . S
C178 C175 1.463 1_565 S
C178 N182 1.427 . S
C179 H169 0.929 . S
C179 C177 1.433 . S
C179 N182 1.384 . S
C180 H171 0.929 . S
C180 C172 1.378 . S
C180 C175 1.350 . S
C181 H168 0.929 . S
C181 C173 1.433 . S
C181 N183 1.384 . S
N182 C178 1.427 . S
N182 C179 1.384 . S
N183 C175 1.427 . S
N183 C181 1.384 . S
H184 C190 0.930 . S
H185 C194 0.930 . S
H186 C199 0.929 . S
H187 C197 0.929 . S
H188 C192 0.929 . S
H189 C198 0.929 . S
C190 H184 0.930 . S
C190 C191 1.367 . S
C190 C198 1.378 . S
C191 C190 1.367 . S
C191 C199 1.433 . S
C192 H188 0.929 . S
C192 C194 1.378 . S
C192 C196 1.350 . S
C193 C196 1.463 . S
C193 C198 1.350 . S
C193 N201 1.427 . S
C194 H185 0.930 . S
C194 C192 1.378 . S
C194 C195 1.367 . S
C195 C194 1.367 . S
C195 C197 1.433 . S
C196 C192 1.350 . S
C196 C193 1.463 . S
C196 N200 1.427 . S
C197 H187 0.929 . S
C197 C195 1.433 . S
C197 N200 1.384 . S
C198 H189 0.929 . S
C198 C190 1.378 . S
C198 C193 1.350 . S
C199 H186 0.929 . S
C199 C191 1.433 . S
C199 N201 1.384 . S
N200 C196 1.427 . S
N200 C197 1.384 . S
N201 C193 1.427 . S
N201 C199 1.384 . S
H202 C208 0.930 . S
H203 C212 0.930 1_655 S
H204 C217 0.929 . S
H205 C215 0.929 . S
H206 C210 0.929 . S
H207 C216 0.929 . S
C208 H202 0.930 . S
C208 C209 1.367 . S
C208 C216 1.378 . S
C209 C208 1.367 . S
C209 C217 1.433 . S
C210 H206 0.929 . S
C210 C212 1.378 . S
C210 C214 1.350 . S
C211 C214 1.463 . S
C211 C216 1.350 . S
C211 N219 1.427 . S
C212 H203 0.930 1_455 S
C212 C210 1.378 . S
C212 C213 1.367 . S
C213 C212 1.367 . S
C213 C215 1.433 . S
C214 C210 1.350 . S
C214 C211 1.463 . S
C214 N218 1.427 . S
C215 H205 0.929 . S
C215 C213 1.433 . S
C215 N218 1.384 . S
C216 H207 0.929 . S
C216 C208 1.378 . S
C216 C211 1.350 . S
C217 H204 0.929 . S
C217 C209 1.433 . S
C217 N219 1.384 . S
N218 C214 1.427 . S
N218 C215 1.384 . S
N219 C211 1.427 . S
N219 C217 1.384 . S
H220 C226 0.930 . S
H221 C230 0.930 . S
H222 C235 0.929 . S
H223 C233 0.929 . S
H224 C228 0.929 . S
H225 C234 0.929 . S
C226 H220 0.930 . S
C226 C227 1.367 . S
C226 C234 1.378 . S
C227 C226 1.367 . S
C227 C235 1.433 1_565 S
C228 H224 0.929 . S
C228 C230 1.378 . S
C228 C232 1.350 . S
C229 C232 1.463 . S
C229 C234 1.350 . S
C229 N237 1.427 . S
C230 H221 0.930 . S
C230 C228 1.378 . S
C230 C231 1.367 . S
C231 C230 1.367 . S
C231 C233 1.433 . S
C232 C228 1.350 . S
C232 C229 1.463 . S
C232 N236 1.427 . S
C233 H223 0.929 . S
C233 C231 1.433 . S
C233 N236 1.384 . S
C234 H225 0.929 . S
C234 C226 1.378 . S
C234 C229 1.350 . S
C235 H222 0.929 . S
C235 C227 1.433 1_545 S
C235 N237 1.384 1_545 S
N236 C232 1.427 . S
N236 C233 1.384 . S
N237 C229 1.427 . S
N237 C235 1.384 1_565 S
H238 C244 0.930 . S
H239 C248 0.930 . S
H240 C253 0.929 . S
H241 C251 0.929 . S
H242 C246 0.929 . S
H243 C252 0.929 . S
C244 H238 0.930 . S
C244 C245 1.367 . S
C244 C252 1.378 . S
C245 C244 1.367 . S
C245 C253 1.433 . S
C246 H242 0.929 . S
C246 C248 1.378 . S
C246 C250 1.350 . S
C247 C250 1.463 . S
C247 C252 1.350 . S
C247 N255 1.427 . S
C248 H239 0.930 . S
C248 C246 1.378 . S
C248 C249 1.367 . S
C249 C248 1.367 . S
C249 C251 1.433 . S
C250 C246 1.350 . S
C250 C247 1.463 . S
C250 N254 1.427 . S
C251 H241 0.929 . S
C251 C249 1.433 . S
C251 N254 1.384 . S
C252 H243 0.929 . S
C252 C244 1.378 . S
C252 C247 1.350 . S
C253 H240 0.929 . S
C253 C245 1.433 . S
C253 N255 1.384 . S
N254 C250 1.427 . S
N254 C251 1.384 . S
N255 C247 1.427 . S
N255 C253 1.384 . S
H256 C262 0.930 . S
H257 C266 0.930 . S
H258 C271 0.929 . S
H259 C269 0.929 . S
H260 C264 0.929 . S
H261 C270 0.929 1_554 S
C262 H256 0.930 . S
C262 C263 1.367 1_565 S
C262 C270 1.378 1_565 S
C263 C262 1.367 1_545 S
C263 C271 1.433 . S
C264 H260 0.929 . S
C264 C266 1.378 1_556 S
C264 C268 1.350 1_556 S
C265 C268 1.463 1_556 S
C265 C270 1.350 . S
C265 N273 1.427 . S
C266 H257 0.930 . S
C266 C264 1.378 1_554 S
C266 C267 1.367 . S
C267 C266 1.367 . S
C267 C269 1.433 . S
C268 C264 1.350 1_554 S
C268 C265 1.463 1_554 S
C268 N272 1.427 . S
C269 H259 0.929 . S
C269 C267 1.433 . S
C269 N272 1.384 . S
C270 H261 0.929 1_556 S
C270 C262 1.378 1_545 S
C270 C265 1.350 . S
C271 H258 0.929 . S
C271 C263 1.433 . S
C271 N273 1.384 . S
N272 C268 1.427 . S
N272 C269 1.384 . S
N273 C265 1.427 . S
N273 C271 1.384 . S
H274 C280 0.930 . S
H275 C284 0.930 . S
H276 C289 0.929 . S
H277 C287 0.929 1_655 S
H278 C282 0.929 . S
H279 C288 0.929 . S
C280 H274 0.930 . S
C280 C281 1.367 . S
C280 C288 1.378 . S
C281 C280 1.367 . S
C281 C289 1.433 . S
C282 H278 0.929 . S
C282 C284 1.378 . S
C282 C286 1.350 . S
C283 C286 1.463 1_556 S
C283 C288 1.350 . S
C283 N291 1.427 1_556 S
C284 H275 0.930 . S
C284 C282 1.378 . S
C284 C285 1.367 . S
C285 C284 1.367 . S
C285 C287 1.433 . S
C286 C282 1.350 . S
C286 C283 1.463 1_554 S
C286 N290 1.427 . S
C287 H277 0.929 1_455 S
C287 C285 1.433 . S
C287 N290 1.384 . S
C288 H279 0.929 . S
C288 C280 1.378 . S
C288 C283 1.350 . S
C289 H276 0.929 . S
C289 C281 1.433 . S
C289 N291 1.384 1_556 S
N290 C286 1.427 . S
N290 C287 1.384 . S
N291 C283 1.427 1_554 S
N291 C289 1.384 1_554 S
H292 C298 0.930 . S
H293 C302 0.930 . S
H294 C307 0.929 . S
H295 C305 0.929 . S
H296 C300 0.929 . S
H297 C306 0.929 . S
C298 H292 0.930 . S
C298 C299 1.367 . S
C298 C306 1.378 . S
C299 C298 1.367 . S
C299 C307 1.433 . S
C300 H296 0.929 . S
C300 C302 1.378 . S
C300 C304 1.350 . S
C301 C304 1.463 1_554 S
C301 C306 1.350 . S
C301 N309 1.427 1_554 S
C302 H293 0.930 . S
C302 C300 1.378 . S
C302 C303 1.367 . S
C303 C302 1.367 . S
C303 C305 1.433 . S
C304 C300 1.350 . S
C304 C301 1.463 1_556 S
C304 N308 1.427 . S
C305 H295 0.929 . S
C305 C303 1.433 . S
C305 N308 1.384 . S
C306 H297 0.929 . S
C306 C298 1.378 . S
C306 C301 1.350 . S
C307 H294 0.929 . S
C307 C299 1.433 . S
C307 N309 1.384 1_554 S
N308 C304 1.427 . S
N308 C305 1.384 . S
N309 C301 1.427 1_556 S
N309 C307 1.384 1_556 S
H310 C316 0.930 . S
H311 C320 0.930 . S
H312 C325 0.925 1_554 S
H313 C323 0.929 1_455 S
H314 C318 0.929 . S
H315 C324 0.929 . S
C316 H310 0.930 . S
C316 C317 1.367 . S
C316 C324 1.378 . S
C317 C316 1.367 . S
C317 C325 1.433 . S
C318 H314 0.929 . S
C318 C320 1.378 . S
C318 C322 1.350 . S
C319 C322 1.463 1_556 S
C319 C324 1.350 . S
C319 N327 1.427 1_556 S
C320 H311 0.930 . S
C320 C318 1.378 . S
C320 C321 1.367 . S
C321 C320 1.367 . S
C321 C323 1.433 . S
C322 C318 1.350 . S
C322 C319 1.463 1_554 S
C322 N326 1.427 . S
C323 H313 0.929 1_655 S
C323 C321 1.433 . S
C323 N326 1.383 . S
C324 H315 0.929 . S
C324 C316 1.378 . S
C324 C319 1.350 . S
C325 H312 0.925 1_556 S
C325 C317 1.433 . S
C325 N327 1.384 1_556 S
N326 C322 1.427 . S
N326 C323 1.383 . S
N327 C319 1.427 1_554 S
N327 C325 1.384 1_554 S
H328 C334 0.930 . S
H329 C338 0.930 . S
H330 C343 0.929 . S
H331 C341 0.929 . S
H332 C336 0.929 . S
H333 C342 0.929 . S
C334 H328 0.930 . S
C334 C335 1.367 . S
C334 C342 1.378 . S
C335 C334 1.367 . S
C335 C343 1.433 . S
C336 H332 0.929 . S
C336 C338 1.378 . S
C336 C340 1.350 . S
C337 C340 1.463 . S
C337 C342 1.350 . S
C337 N345 1.427 . S
C338 H329 0.930 . S
C338 C336 1.378 . S
C338 C339 1.367 . S
C339 C338 1.367 . S
C339 C341 1.433 . S
C340 C336 1.350 . S
C340 C337 1.463 . S
C340 N344 1.427 . S
C341 H331 0.929 . S
C341 C339 1.433 . S
C341 N344 1.384 . S
C342 H333 0.929 . S
C342 C334 1.378 . S
C342 C337 1.350 . S
C343 H330 0.929 . S
C343 C335 1.433 . S
C343 N345 1.384 . S
N344 C340 1.427 . S
N344 C341 1.384 . S
N345 C337 1.427 . S
N345 C343 1.384 . S
H346 C352 0.930 . S
H347 C356 0.930 . S
H348 C361 0.929 . S
H349 C359 0.929 . S
H350 C354 0.929 . S
H351 C360 0.929 . S
C352 H346 0.930 . S
C352 C353 1.367 . S
C352 C360 1.378 . S
C353 C352 1.367 . S
C353 C361 1.433 . S
C354 H350 0.929 . S
C354 C356 1.378 . S
C354 C358 1.350 . S
C355 C358 1.463 . S
C355 C360 1.350 . S
C355 N363 1.427 . S
C356 H347 0.930 . S
C356 C354 1.378 . S
C356 C357 1.367 . S
C357 C356 1.367 . S
C357 C359 1.433 . S
C358 C354 1.350 . S
C358 C355 1.463 . S
C358 N362 1.427 . S
C359 H349 0.929 . S
C359 C357 1.433 . S
C359 N362 1.384 . S
C360 H351 0.929 . S
C360 C352 1.378 . S
C360 C355 1.350 . S
C361 H348 0.929 . S
C361 C353 1.433 . S
C361 N363 1.384 . S
N362 C358 1.427 . S
N362 C359 1.384 . S
N363 C355 1.427 . S
N363 C361 1.384 . S
H364 C370 0.930 . S
H365 C374 0.930 . S
H366 C379 0.929 . S
H367 C377 0.929 . S
H368 C372 0.929 . S
H369 C378 0.929 . S
C370 H364 0.930 . S
C370 C371 1.367 . S
C370 C378 1.378 . S
C371 C370 1.367 . S
C371 C379 1.433 . S
C372 H368 0.929 . S
C372 C374 1.378 . S
C372 C376 1.350 . S
C373 C376 1.463 . S
C373 C378 1.350 . S
C373 N381 1.427 . S
C374 H365 0.930 . S
C374 C372 1.378 . S
C374 C375 1.367 . S
C375 C374 1.367 . S
C375 C377 1.433 . S
C376 C372 1.350 . S
C376 C373 1.463 . S
C376 N380 1.427 . S
C377 H367 0.929 . S
C377 C375 1.433 . S
C377 N380 1.384 . S
C378 H369 0.929 . S
C378 C370 1.378 . S
C378 C373 1.350 . S
C379 H366 0.929 . S
C379 C371 1.433 . S
C379 N381 1.384 . S
N380 C376 1.427 . S
N380 C377 1.384 . S
N381 C373 1.427 . S
N381 C379 1.384 . S
H382 C388 0.930 . S
H383 C392 0.930 . S
H384 C397 0.929 . S
H385 C395 0.929 . S
H386 C390 0.929 . S
H387 C396 0.929 . S
C388 H382 0.930 . S
C388 C389 1.367 . S
C388 C396 1.378 . S
C389 C388 1.367 . S
C389 C397 1.433 . S
C390 H386 0.929 . S
C390 C392 1.378 . S
C390 C394 1.350 . S
C391 C394 1.463 . S
C391 C396 1.350 . S
C391 N399 1.427 . S
C392 H383 0.930 . S
C392 C390 1.378 . S
C392 C393 1.367 . S
C393 C392 1.367 . S
C393 C395 1.433 . S
C394 C390 1.350 . S
C394 C391 1.463 . S
C394 N398 1.427 . S
C395 H385 0.929 . S
C395 C393 1.433 . S
C395 N398 1.384 . S
C396 H387 0.929 . S
C396 C388 1.378 . S
C396 C391 1.350 . S
C397 H384 0.929 . S
C397 C389 1.433 . S
C397 N399 1.384 . S
N398 C394 1.427 . S
N398 C395 1.384 . S
N399 C391 1.427 . S
N399 C397 1.384 . S
C119 C36 1.491 . S
C123 C8 1.494 . S
C137 C50 1.502 . S
C141 C22 1.503 . S
C155 C64 1.502 . S
C159 C92 1.503 . S
C173 C78 1.501 . S
C177 C106 1.498 . S
C191 C17 1.122 1_545 S
C195 C9 1.074 . S
C209 C23 1.078 . S
C213 C31 1.120 1_455 S
C227 C45 1.120 1_565 S
C231 C37 1.054 . S
C245 C51 1.058 . S
C249 C3 1.114 1_655 S
C263 C101 1.115 1_545 S
C267 C65 1.074 . S
C281 C79 1.069 . S
C285 C59 1.123 1_455 S
C299 C93 1.072 . S
C303 C73 1.123 1_565 S
C317 C107 1.065 . S
C321 C87 1.123 1_655 S
C335 C7 1.621 . S
C339 C77 1.632 . S
C353 C91 1.632 . S
C357 C21 1.622 . S
C371 C35 1.620 . S
C375 C105 1.625 . S
C389 C49 1.634 . S
C393 C63 1.627 . S
