# Generated by pormake.
# Topology noz, (5)-cn, num edge types: 1
# Building blocks:
#     Node 0, Type 0, BuildingBlock: XOMCOT_clean_sbu_1, # of connection points: 5
#     Node 1, Type 0, BuildingBlock: XOMCOT_clean_sbu_1, # of connection points: 5
#     Node 2, Type 0, BuildingBlock: XOMCOT_clean_sbu_1, # of connection points: 5
#     Node 3, Type 0, BuildingBlock: XOMCOT_clean_sbu_1, # of connection points: 5
#     Node 4, Type 0, BuildingBlock: XOMCOT_clean_sbu_1, # of connection points: 5
#     Node 5, Type 0, BuildingBlock: XOMCOT_clean_sbu_1, # of connection points: 5
#     Node 6, Type 0, BuildingBlock: XOMCOT_clean_sbu_1, # of connection points: 5
#     Node 7, Type 0, BuildingBlock: XOMCOT_clean_sbu_1, # of connection points: 5
#     Edge 8, Type (0, 0), BuildingBlock: EZIPEK_clean_linker_0, # of connection points: 2
#     Edge 9, Type (0, 0), BuildingBlock: EZIPEK_clean_linker_0, # of connection points: 2
#     Edge 10, Type (0, 0), BuildingBlock: EZIPEK_clean_linker_0, # of connection points: 2
#     Edge 11, Type (0, 0), BuildingBlock: EZIPEK_clean_linker_0, # of connection points: 2
#     Edge 12, Type (0, 0), BuildingBlock: EZIPEK_clean_linker_0, # of connection points: 2
#     Edge 13, Type (0, 0), BuildingBlock: EZIPEK_clean_linker_0, # of connection points: 2
#     Edge 14, Type (0, 0), BuildingBlock: EZIPEK_clean_linker_0, # of connection points: 2
#     Edge 15, Type (0, 0), BuildingBlock: EZIPEK_clean_linker_0, # of connection points: 2
#     Edge 16, Type (0, 0), BuildingBlock: EZIPEK_clean_linker_0, # of connection points: 2
#     Edge 17, Type (0, 0), BuildingBlock: EZIPEK_clean_linker_0, # of connection points: 2
#     Edge 18, Type (0, 0), BuildingBlock: EZIPEK_clean_linker_0, # of connection points: 2
#     Edge 19, Type (0, 0), BuildingBlock: EZIPEK_clean_linker_0, # of connection points: 2
#     Edge 20, Type (0, 0), BuildingBlock: EZIPEK_clean_linker_0, # of connection points: 2
#     Edge 21, Type (0, 0), BuildingBlock: EZIPEK_clean_linker_0, # of connection points: 2
#     Edge 22, Type (0, 0), BuildingBlock: EZIPEK_clean_linker_0, # of connection points: 2
#     Edge 23, Type (0, 0), BuildingBlock: EZIPEK_clean_linker_0, # of connection points: 2
#     Edge 24, Type (0, 0), BuildingBlock: EZIPEK_clean_linker_0, # of connection points: 2
#     Edge 25, Type (0, 0), BuildingBlock: EZIPEK_clean_linker_0, # of connection points: 2
#     Edge 26, Type (0, 0), BuildingBlock: EZIPEK_clean_linker_0, # of connection points: 2
#     Edge 27, Type (0, 0), BuildingBlock: EZIPEK_clean_linker_0, # of connection points: 2
# Relax obj value: 0.077
# Max RMSD: 0.161
# Mean RMSD: 0.161
data_MOF--net-noz--node1-XOMCOT_clean_sbu_1--edge1-EZIPEK_clean_linker_0
_symmetry_space_group_name_H-M    P1
_symmetry_Int_Tables_number       1
_symmetry_cell_setting            triclinic
loop_
_symmetry_equiv_pos_as_xyz
'x, y, z'
_cell_length_a     17.682596
_cell_length_b     39.14111
_cell_length_c     27.815735
_cell_angle_alpha  89.592287
_cell_angle_beta   90.344046
_cell_angle_gamma 90.251977
loop_
_atom_site_label
_atom_site_type_symbol
_atom_site_fract_x
_atom_site_fract_y
_atom_site_fract_z
_atom_type_partial_charge
C0 C 0.15079 0.32721 0.30393 0.0
C1 C 0.0854 0.33206 0.27776 0.0
N2 N 1.0301 0.34039 0.3084 0.0
N3 N 0.13684 0.33162 0.35118 0.0
C4 C 0.06286 0.34065 0.35236 0.0
H5 H 0.20522 0.3214 0.28894 0.0
Co6 Co 0.20629 0.32558 0.4027 0.0
C7 C 0.12576 0.27938 0.47382 0.0
O8 O 0.17043 0.28924 0.50901 0.0
N9 N 0.27784 0.31997 0.45412 0.0
C10 C 0.35938 0.33128 0.51373 0.0
C11 C 0.30115 0.34392 0.48597 0.0
C12 C 0.32358 0.2929 0.46361 0.0
N13 N 0.37393 0.29937 0.49922 0.0
O14 O 0.25753 0.29011 0.36653 0.0
H15 H 0.2797 0.36961 0.48828 0.0
H16 H 0.32193 0.2692 0.44386 0.0
O17 O 0.13511 0.29166 0.43137 0.0
C18 C 0.31924 0.30157 0.34865 0.0
O19 O 0.33933 0.33309 0.3588 0.0
N20 N 0.16233 0.36281 0.43422 0.0
C21 C 0.128 0.42542 0.47543 0.0
C22 C 0.09456 0.39527 0.49271 0.0
C23 C 0.11386 0.36401 0.47228 0.0
C24 C 0.19087 0.39223 0.41496 0.0
C25 C 0.1754 0.42378 0.43542 0.0
H26 H 0.09129 0.34132 0.48848 0.0
H27 H 0.22922 0.39087 0.38488 0.0
H28 H 1.03354 0.34821 0.38438 0.0
H29 H 0.07906 0.3302 0.23913 0.0
H30 H 0.39092 0.34494 0.54105 0.0
H31 H 0.05724 0.39577 0.52345 0.0
H32 H 0.20198 0.44662 0.42101 0.0
C33 C 0.68952 0.71199 0.82968 0.0
C34 C 0.75107 0.70596 0.80157 0.0
N35 N 0.77263 0.6736 0.80904 0.0
N36 N 0.66979 0.68338 0.85428 0.0
C37 C 0.72322 0.66034 0.84131 0.0
H38 H 0.66614 0.73699 0.83554 0.0
Co39 Co 0.59521 0.68534 0.90333 0.0
C40 C 0.67825 0.72886 0.97768 0.0
O41 O 0.63533 0.71963 1.01386 0.0
N42 N 0.52119 0.68913 0.95267 0.0
C43 C 0.44176 0.67935 1.01337 0.0
C44 C 0.49531 0.66518 0.98387 0.0
C45 C 0.48052 0.71738 0.96337 0.0
N46 N 0.43199 0.71218 1.00017 0.0
O47 O 0.54381 0.72122 0.86734 0.0
H48 H 0.51359 0.63892 0.98548 0.0
H49 H 0.48703 0.74168 0.94504 0.0
O50 O 0.66481 0.71744 0.93556 0.0
C51 C 0.48922 0.7065 0.84519 0.0
O52 O 0.47803 0.67374 0.85312 0.0
N53 N 0.63639 0.64639 0.934 0.0
C54 C 0.65454 0.58115 0.97363 0.0
C55 C 0.68578 0.60982 0.99647 0.0
C56 C 0.67501 0.64243 0.97642 0.0
C57 C 0.6085 0.61845 0.91068 0.0
C58 C 0.61696 0.58566 0.92974 0.0
H59 H 0.69411 0.664 0.99673 0.0
H60 H 0.57635 0.6219 0.87782 0.0
H61 H 0.73002 0.63541 0.85768 0.0
H62 H 0.78216 0.72477 0.78077 0.0
H63 H 0.41201 0.66651 0.04226 0.0
H64 H 0.71455 0.60716 0.03077 0.0
H65 H 0.5918 0.56411 0.91126 0.0
C66 C 0.17376 0.62529 0.71294 0.0
C67 C 0.11451 0.621 0.74438 0.0
N68 N 0.05967 0.64293 0.73138 0.0
N69 N 0.15598 0.64976 0.68042 0.0
C70 C 0.08599 0.66017 0.69278 0.0
H71 H 0.22588 0.61094 0.71296 0.0
Co72 Co 0.21647 0.66102 0.62814 0.0
C73 C 0.11264 0.6952 0.55768 0.0
O74 O 0.14401 0.67895 0.52192 0.0
N75 N 0.2808 0.67217 0.57462 0.0
C76 C 0.34952 0.67017 0.50723 0.0
C77 C 0.29488 0.65412 0.53407 0.0
C78 C 0.32684 0.69983 0.57016 0.0
N79 N 0.36974 0.69869 0.5303 0.0
O80 O 0.25713 0.69877 0.66433 0.0
H81 H 0.26645 0.63105 0.52301 0.0
H82 H 0.3292 0.72069 0.59533 0.0
O83 O 0.13599 0.69035 0.60089 0.0
C84 C 0.31597 0.68987 0.68803 0.0
O85 O 0.34343 0.65916 0.68134 0.0
N86 N 0.1802 0.62181 0.59792 0.0
C87 C 0.13978 0.558 0.56271 0.0
C88 C 0.08471 0.58322 0.56897 0.0
C89 C 0.10617 0.61507 0.58722 0.0
C90 C 0.23239 0.59634 0.59677 0.0
C91 C 0.21413 0.56464 0.57761 0.0
H92 H 0.06313 0.63373 0.59454 0.0
H93 H 0.28934 0.60118 0.60952 0.0
H94 H 0.05401 0.67946 0.67352 0.0
H95 H 0.11147 0.6031 0.77416 0.0
H96 H 0.37235 0.66179 0.47329 0.0
H97 H 1.02598 0.57823 0.56012 0.0
H98 H 0.25751 0.54529 0.57489 0.0
C99 C 0.63399 0.38911 0.20316 0.0
C100 C 0.6894 0.39367 0.23768 0.0
N101 N 0.728 0.36423 0.24233 0.0
N102 N 0.63839 0.35709 0.18572 0.0
C103 C 0.69299 0.34204 0.21258 0.0
H104 H 0.59672 0.40866 0.18911 0.0
Co105 Co 0.58551 0.33998 0.13193 0.0
C106 C 0.74783 0.31205 0.11029 0.0
O107 O 0.78849 0.33192 0.1382 0.0
N108 N 0.53091 0.32267 0.07858 0.0
C109 C 0.50184 0.30203 1.00684 0.0
C110 C 0.55965 0.31231 0.03647 0.0
C111 C 0.45522 0.31859 0.07322 0.0
N112 N 0.4348 0.30711 0.02881 0.0
O113 O 0.55295 0.30138 0.17063 0.0
H114 H 0.61904 0.31192 0.02755 0.0
H115 H 0.41712 0.3236 0.10219 0.0
O116 O 0.67552 0.31469 0.1083 0.0
C117 C 0.49378 0.30933 0.19416 0.0
O118 O 0.46509 0.33993 0.1877 0.0
N119 N 0.61105 0.37973 0.09568 0.0
C120 C 0.63311 0.44396 0.05314 0.0
C121 C 0.69444 0.42537 0.07128 0.0
C122 C 0.68215 0.39335 0.09246 0.0
C123 C 0.55073 0.39772 0.07819 0.0
C124 C 0.56058 0.42963 0.05615 0.0
H125 H 0.72926 0.38096 0.10906 0.0
H126 H 0.494 0.38796 0.08297 0.0
H127 H 0.71096 0.3159 0.20786 0.0
H128 H 0.70482 0.41756 0.25457 0.0
H129 H 0.50966 0.2906 0.97194 0.0
H130 H 0.75103 0.43608 0.07061 0.0
H131 H 0.51169 0.44361 0.04325 0.0
C132 C 0.68033 0.85054 0.31517 0.0
C133 C 0.61912 0.85416 0.28453 0.0
N134 N 0.55563 0.84648 0.30902 0.0
N135 N 0.65606 0.83988 0.35865 0.0
C136 C 0.57984 0.83758 0.35347 0.0
H137 H 0.73892 0.85491 0.306 0.0
Co138 Co 0.71689 0.82744 0.41205 0.0
C139 C 0.59663 0.79669 0.47571 0.0
O140 O 0.61518 0.81695 0.51125 0.0
N141 N 0.77809 0.8135 0.46688 0.0
C142 C 0.83386 0.80977 0.53941 0.0
C143 C 0.78053 0.82658 0.51197 0.0
C144 C 0.82948 0.78779 0.4691 0.0
N145 N 0.86526 0.78568 0.51203 0.0
O146 O 0.75879 0.79096 0.37351 0.0
H147 H 0.74584 0.84713 0.52498 0.0
H148 H 0.84016 0.77021 0.44036 0.0
O149 O 0.63318 0.79793 0.43604 0.0
C150 C 0.82222 0.80166 0.35679 0.0
O151 O 0.84871 0.83096 0.37252 0.0
N152 N 0.68539 0.86725 0.44417 0.0
C153 C 0.66034 0.93233 0.48107 0.0
C154 C 0.59958 0.91038 0.4714 0.0
C155 C 0.61345 0.87799 0.45269 0.0
C156 C 0.74451 0.88935 0.45047 0.0
C157 C 0.73364 0.92156 0.47031 0.0
H158 H 0.56632 0.86224 0.44399 0.0
H159 H 0.80092 0.88168 0.44047 0.0
H160 H 0.5421 0.82887 0.38129 0.0
H161 H 0.62097 0.86235 0.24729 0.0
H162 H 0.84911 0.81502 0.57638 0.0
H163 H 0.54196 0.91837 0.47779 0.0
H164 H 0.78183 0.93823 0.47621 0.0
C165 C 0.11767 0.15663 0.81571 0.0
C166 C 0.17642 0.1522 0.78407 0.0
N167 N 0.24036 0.16289 0.80572 0.0
N168 N 0.14443 0.17052 0.85675 0.0
C169 C 0.21977 0.17358 0.84968 0.0
H170 H 0.05907 0.15014 0.80911 0.0
Co171 Co 0.08586 0.18151 0.91013 0.0
C172 C 0.19507 0.22101 0.97229 0.0
O173 O 0.1846 0.19966 1.00828 0.0
N174 N 1.02529 0.19278 0.96478 0.0
C175 C 0.97566 0.1947 0.03851 0.0
C176 C 1.02579 0.17827 1.00925 0.0
C177 C 0.97407 0.21833 0.96867 0.0
N178 N 0.94308 0.21979 1.01284 0.0
O179 O 0.03756 0.21664 0.87181 0.0
H180 H 0.0619 0.15766 0.02106 0.0
H181 H 0.96135 0.23656 0.94056 0.0
O182 O 0.16183 0.21529 0.93211 0.0
C183 C 0.9762 0.20586 0.85265 0.0
O184 O 0.94948 0.17605 0.86665 0.0
N185 N 0.12773 0.14384 0.94265 0.0
C186 C 0.16422 0.08 0.98079 0.0
C187 C 0.22004 0.1054 0.97614 0.0
C188 C 0.2007 0.13729 0.9563 0.0
C189 C 0.07459 0.11852 0.94426 0.0
C190 C 0.09112 0.0867 0.96413 0.0
H191 H 0.24448 0.15626 0.9514 0.0
H192 H 1.01827 0.12342 0.93054 0.0
H193 H 0.25937 0.1829 0.87625 0.0
H194 H 0.17282 0.14175 0.7482 0.0
H195 H 0.96475 0.18908 0.07601 0.0
H196 H 0.27771 0.10051 0.98745 0.0
H197 H 0.04728 0.06732 0.96613 0.0
C198 C 0.66277 0.15192 0.72699 0.0
C199 C 0.60088 0.14983 0.75663 0.0
N200 N 0.54043 0.16111 0.7318 0.0
N201 N 0.64145 0.1646 0.68375 0.0
C202 C 0.56621 0.16992 0.68784 0.0
H203 H 0.71978 0.14434 0.73623 0.0
Co204 Co 0.70793 0.17058 0.63231 0.0
C205 C 0.62459 0.21462 0.55893 0.0
O206 O 0.67236 0.20737 0.52456 0.0
N207 N 0.7789 0.17569 0.58149 0.0
C208 C 0.86561 0.16226 0.52673 0.0
C209 C 0.80647 0.15027 0.55387 0.0
C210 C 0.82338 0.20296 0.57044 0.0
N211 N 0.87648 0.19525 0.53753 0.0
O212 O 0.75371 0.20823 0.66615 0.0
H213 H 0.78819 0.12395 0.55481 0.0
H214 H 0.81916 0.22762 0.58751 0.0
O215 O 0.63367 0.20174 0.60105 0.0
C216 C 0.81357 0.19883 0.68834 0.0
O217 O 0.83941 0.16793 0.68074 0.0
N218 N 0.66714 0.13141 0.60329 0.0
C219 C 0.64223 0.06716 0.56384 0.0
C220 C 0.61139 0.09635 0.542 0.0
C221 C 0.62586 0.12847 0.56182 0.0
C222 C 0.69327 0.10295 0.62642 0.0
C223 C 0.68201 0.07058 0.60714 0.0
H224 H 0.6076 0.15051 0.54197 0.0
H225 H 0.72754 0.10563 0.65849 0.0
H226 H 0.53059 0.17979 0.65944 0.0
H227 H 0.59988 0.14031 0.79326 0.0
H228 H 0.90045 0.14754 0.50269 0.0
H229 H 0.58063 0.09448 0.50832 0.0
H230 H 0.70685 0.04855 0.62485 0.0
C231 C 0.15238 0.88604 0.20691 0.0
C232 C 0.20968 0.88934 0.24033 0.0
N233 N 0.24814 0.8597 0.24246 0.0
N234 N 0.15441 0.85447 0.18783 0.0
C235 C 0.20977 0.83837 0.21292 0.0
H236 H 0.11515 0.9062 0.1947 0.0
Co237 Co 0.09605 0.84067 0.13403 0.0
C238 C 0.25017 0.8061 0.1074 0.0
O239 O 0.29451 0.82328 0.13655 0.0
N240 N 0.03674 0.82657 0.08035 0.0
C241 C 0.99764 0.81771 1.00487 0.0
C242 C 0.05369 0.83156 0.03338 0.0
C243 C 0.97127 0.80846 0.07909 0.0
N244 N 0.94581 0.80344 0.03388 0.0
O245 O 0.0538 0.80386 0.17265 0.0
H246 H 0.10413 0.84426 1.02044 0.0
H247 H 0.94429 0.79757 0.11015 0.0
O248 O 0.17854 0.81167 0.10651 0.0
C249 C 0.99988 0.81679 0.19726 0.0
O250 O 0.98528 0.84945 0.19138 0.0
N251 N 0.12896 0.87991 0.09953 0.0
C252 C 0.16002 0.9438 0.05879 0.0
C253 C 0.21898 0.9222 0.07302 0.0
C254 C 0.20216 0.89034 0.09356 0.0
C255 C 0.07112 0.90118 0.08675 0.0
C256 C 0.08534 0.933 0.06559 0.0
H257 H 0.24797 0.87535 0.10707 0.0
H258 H 1.01332 0.89364 0.09391 0.0
H259 H 0.22504 0.81196 0.20753 0.0
H260 H 0.22675 0.91278 0.25784 0.0
H261 H 0.99553 0.81761 0.96597 0.0
H262 H 0.27735 0.93031 0.06952 0.0
H263 H 0.03851 0.94948 0.05595 0.0
C264 C 0.44642 0.28452 0.319 0.0
C265 C 0.36667 0.28266 0.31343 0.0
C266 C 0.38121 0.27813 0.22635 0.0
C267 C 0.45865 0.28703 0.23155 0.0
N268 N 0.57016 0.28473 0.28083 0.0
N269 N 0.26378 0.26127 0.26541 0.0
C270 C 0.49321 0.28509 0.27742 0.0
C271 C 0.33581 0.2737 0.26817 0.0
N272 N 0.47623 0.28752 0.36413 0.0
N273 N 0.35104 0.27554 0.18127 0.0
H274 H 0.2317 0.25649 0.29607 0.0
H275 H 0.23879 0.25263 0.23375 0.0
H276 H 0.38518 0.27609 0.1508 0.0
H277 H 0.29339 0.27325 0.17413 0.0
H278 H 0.5329 0.29264 0.37145 0.0
H279 H 0.44248 0.28497 0.3946 0.0
H280 H 0.59975 0.28152 0.31296 0.0
H281 H 0.60424 0.28437 0.25039 0.0
C282 C 0.47143 0.7299 0.76267 0.0
C283 C 0.44025 0.72329 0.80834 0.0
C284 C 0.31564 0.71534 0.77048 0.0
C285 C 0.35196 0.71161 0.72548 0.0
N286 N 0.46389 0.71855 0.67726 0.0
N287 N 0.33058 0.7162 0.85758 0.0
C288 C 0.42953 0.7206 0.72095 0.0
C289 C 0.36099 0.71903 0.81272 0.0
N290 N 0.54103 0.74471 0.75959 0.0
N291 N 0.23862 0.71409 0.77292 0.0
H292 H 0.36304 0.72044 0.88848 0.0
H293 H 0.27488 0.70897 0.86424 0.0
H294 H 0.20446 0.71114 0.74257 0.0
H295 H 0.2085 0.71912 0.80409 0.0
H296 H 0.56613 0.75184 0.72724 0.0
H297 H 0.56837 0.75391 0.79014 0.0
H298 H 0.52208 0.7209 0.67257 0.0
H299 H 0.43402 0.71298 0.64587 0.0
C300 C 0.9829 0.66698 0.79638 0.0
C301 C 0.98753 0.64723 0.75414 0.0
C302 C 0.84951 0.64049 0.75233 0.0
C303 C 0.84481 0.6604 0.79445 0.0
N304 N 0.90478 0.68906 0.86048 0.0
N305 N 0.92959 0.61079 0.6954 0.0
C306 C 0.91122 0.67231 0.81785 0.0
C307 C 0.9219 0.63253 0.73323 0.0
N308 N 0.04704 0.68182 0.81442 0.0
N309 N 0.78429 0.63061 0.72977 0.0
H310 H 0.9822 0.60495 0.68083 0.0
H311 H 0.88515 0.59694 0.68035 0.0
H312 H 0.73103 0.6356 0.74403 0.0
H313 H 0.78241 0.61889 0.69633 0.0
H314 H 0.04784 0.69926 0.84245 0.0
H315 H 0.10017 0.67791 0.79944 0.0
H316 H 0.95032 0.69621 0.88205 0.0
H317 H 0.85244 0.69404 0.8758 0.0
C318 C 0.86491 0.37894 0.24261 0.0
C319 C 0.80332 0.36006 0.26207 0.0
C320 C 0.89237 0.32726 0.31212 0.0
C321 C 0.95267 0.34833 0.29578 0.0
N322 N 0.9931 0.39933 0.25467 0.0
N323 N 0.75644 0.32043 0.32106 0.0
C324 C 0.93775 0.37582 0.2639 0.0
C325 C 0.81658 0.33549 0.29875 0.0
N326 N 0.85517 0.3982 0.20193 0.0
N327 N 0.90786 0.29842 0.33816 0.0
H328 H 0.70074 0.32655 0.31204 0.0
H329 H 0.76174 0.30446 0.35099 0.0
H330 H 0.96282 0.29109 0.34704 0.0
H331 H 0.86699 0.28031 0.34729 0.0
H332 H 0.89989 0.40973 0.18366 0.0
H333 H 0.804 0.39961 0.18333 0.0
H334 H 0.98355 0.42171 0.23509 0.0
H335 H 0.04634 0.39817 0.27097 0.0
C336 C 0.82791 0.78835 0.26972 0.0
C337 C 0.86247 0.78597 0.31538 0.0
C338 C 0.98709 0.78487 0.27594 0.0
C339 C 0.95304 0.79732 0.23293 0.0
N340 N 0.83786 0.81212 0.18985 0.0
N341 N 0.97531 0.7777 0.36245 0.0
C342 C 0.8724 0.79865 0.22968 0.0
C343 C 0.94226 0.78203 0.31838 0.0
N344 N 0.75226 0.78217 0.26502 0.0
N345 N 0.06237 0.77722 0.27687 0.0
H346 H 0.94342 0.77372 0.39336 0.0
H347 H 1.03335 0.77917 0.36861 0.0
H348 H 0.09678 0.77948 0.24677 0.0
H349 H 0.08923 0.76566 0.3061 0.0
H350 H 0.72464 0.78124 0.23185 0.0
H351 H 0.71932 0.77401 0.29389 0.0
H352 H 0.78018 0.81736 0.18815 0.0
H353 H 0.86727 0.82079 0.15992 0.0
C354 C 0.81392 0.22415 0.77104 0.0
C355 C 0.85093 0.21946 0.72651 0.0
C356 C 0.97471 0.22541 0.76614 0.0
C357 C 0.9379 0.22318 0.8113 0.0
N358 N 0.82612 0.23308 0.85733 0.0
N359 N 0.9618 0.22755 0.67875 0.0
C360 C 0.85838 0.22713 0.81373 0.0
C361 C 0.93011 0.22446 0.72324 0.0
N362 N 0.73676 0.22343 0.77277 0.0
N363 N 0.05185 0.22629 0.76437 0.0
H364 H 0.9288 0.22735 0.6475 0.0
H365 H 1.01864 0.23279 0.67261 0.0
H366 H 0.08535 0.22989 0.79482 0.0
H367 H 0.08305 0.22367 0.73305 0.0
H368 H 0.70572 0.22216 0.80437 0.0
H369 H 0.70314 0.22405 0.74192 0.0
H370 H 0.76905 0.23823 0.8623 0.0
H371 H 0.85865 0.2356 0.8885 0.0
C372 C 0.35247 0.13096 0.77886 0.0
C373 C 0.31562 0.16253 0.78617 0.0
C374 C 0.42883 0.19337 0.75907 0.0
C375 C 0.46346 0.16178 0.74845 0.0
N376 N 0.4547 0.10087 0.73988 0.0
N377 N 0.31251 0.22355 0.77644 0.0
C378 C 0.42412 0.13062 0.75596 0.0
C379 C 0.35215 0.19374 0.77436 0.0
N380 N 0.32007 0.1015 0.7956 0.0
N381 N 0.47032 0.2228 0.75608 0.0
H382 H 0.256 0.22437 0.78693 0.0
H383 H 0.33339 0.24692 0.76417 0.0
H384 H 0.52666 0.2231 0.74516 0.0
H385 H 0.45102 0.24637 0.76788 0.0
H386 H 0.34723 0.07795 0.79563 0.0
H387 H 0.26829 0.10117 0.81337 0.0
H388 H 0.42592 0.0776 0.74011 0.0
H389 H 0.50661 0.10009 0.7223 0.0
C390 C 0.38213 0.87942 0.24446 0.0
C391 C 0.32575 0.85556 0.25888 0.0
C392 C 0.42478 0.82232 0.30006 0.0
C393 C 0.47776 0.8493 0.29233 0.0
N394 N 0.49683 0.90817 0.26862 0.0
N395 N 0.29219 0.80662 0.30714 0.0
C396 C 0.45356 0.87923 0.26783 0.0
C397 C 0.34673 0.82762 0.28874 0.0
N398 N 0.36944 0.9011 0.20666 0.0
N399 N 0.44924 0.79116 0.3158 0.0
H400 H 0.23476 0.81038 0.30023 0.0
H401 H 0.30359 0.78768 0.33266 0.0
H402 H 0.50634 0.7856 0.32085 0.0
H403 H 0.41384 0.76989 0.31844 0.0
H404 H 0.41138 0.91715 0.19288 0.0
H405 H 0.32107 0.8997 0.18516 0.0
H406 H 0.47828 0.93132 0.2541 0.0
H407 H 0.5463 0.91016 0.28899 0.0
C408 C 0.13492 0.4945 0.57133 0.0
C409 C 0.12085 0.52389 0.5427 0.0
C410 C 0.08857 0.48699 0.47482 0.0
C411 C 0.11791 0.4585 0.50054 0.0
N412 N 0.18142 0.4367 0.5718 0.0
N413 N 0.09186 0.54839 0.46471 0.0
C414 C 0.14366 0.46248 0.54869 0.0
C415 C 0.09873 0.5203 0.49383 0.0
N416 N 0.14024 0.49727 0.62017 0.0
N417 N 0.05065 0.48218 0.43246 0.0
H418 H 0.10026 0.57328 0.47672 0.0
H419 H 0.08411 0.54679 0.42763 0.0
H420 H 0.04097 0.45797 0.41812 0.0
H421 H 1.02232 0.50174 0.41435 0.0
H422 H 0.14397 0.47614 0.64305 0.0
H423 H 0.13263 0.52042 0.63788 0.0
H424 H 0.20781 0.43985 0.60509 0.0
H425 H 0.19347 0.41333 0.55594 0.0
C426 C 0.69523 0.51958 0.97464 0.0
C427 C 0.65554 0.54666 0.99675 0.0
C428 C 0.61341 0.50729 0.06026 0.0
C429 C 0.64381 0.47944 0.03442 0.0
N430 N 0.70577 0.4584 0.96354 0.0
N431 N 0.56574 0.56505 0.05635 0.0
C432 C 0.683 0.48539 0.99072 0.0
C433 C 0.61185 0.54025 0.03858 0.0
N434 N 0.74574 0.52665 0.93889 0.0
N435 N 0.58778 0.50246 0.10609 0.0
H436 H 0.56148 0.58941 0.04125 0.0
H437 H 0.52643 0.56046 0.08342 0.0
H438 H 0.5893 0.47883 0.12364 0.0
H439 H 0.57223 0.5225 0.12835 0.0
H440 H 0.78188 0.50845 0.92461 0.0
H441 H 0.75663 0.55145 0.92668 0.0
H442 H 0.72727 0.46112 0.92894 0.0
H443 H 0.69723 0.43301 0.97384 0.0
C444 C 0.60389 0.00526 0.56382 0.0
C445 C 0.63877 0.0333 0.53998 0.0
C446 C 0.6707 0.99602 0.47288 0.0
C447 C 0.64766 0.96717 0.50033 0.0
N448 N 0.60243 0.94398 0.5757 0.0
N449 N 0.71895 0.05374 0.47552 0.0
C450 C 0.61644 0.97164 0.54678 0.0
C451 C 0.67556 0.02836 0.49531 0.0
N452 N 0.55793 0.01081 0.60227 0.0
N453 N 0.68666 0.99268 0.42514 0.0
H454 H 0.72727 0.07744 0.49157 0.0
H455 H 0.75301 0.04999 0.44559 0.0
H456 H 0.68157 0.96951 0.40706 0.0
H457 H 0.69693 0.01353 0.40255 0.0
H458 H 0.52546 0.9916 0.6182 0.0
H459 H 0.54642 0.03522 0.61508 0.0
H460 H 0.58712 0.94611 0.61166 0.0
H461 H 0.61292 0.91892 0.5653 0.0
C462 C 0.16999 0.00713 0.07134 0.0
C463 C 0.17556 0.97879 0.03994 0.0
C464 C 0.18986 0.01745 0.97069 0.0
C465 C 0.18071 0.04575 1.00178 0.0
N466 N 0.1765 0.06874 0.08174 0.0
N467 N 0.20473 0.95605 0.96205 0.0
C468 C 0.17582 0.04091 0.05226 0.0
C469 C 0.19037 0.98371 0.99029 0.0
N470 N 0.15657 1.00157 0.11918 0.0
N471 N 0.19523 0.02301 0.92221 0.0
H472 H 0.2032 0.93099 0.97502 0.0
H473 H 0.22284 0.9577 0.92661 0.0
H474 H 0.19948 0.04743 0.90713 0.0
H475 H 0.19297 1.00379 0.89661 0.0
H476 H 0.14298 0.02068 0.14339 0.0
H477 H 0.15617 0.97725 0.13477 0.0
H478 H 0.17992 0.06735 0.11903 0.0
H479 H 0.17888 0.09378 0.06875 0.0
C480 C 0.42191 0.24812 0.54187 0.0
C481 C 0.4362 0.27825 0.51508 0.0
C482 C 0.57284 0.26963 0.52546 0.0
C483 C 0.5589 0.23729 0.54735 0.0
N484 N 0.46836 0.19337 0.5693 0.0
N485 N 0.52448 0.3153 0.47472 0.0
C486 C 0.48289 0.22592 0.55398 0.0
C487 C 0.51155 0.28837 0.5051 0.0
N488 N 0.34999 0.24122 0.55681 0.0
N489 N 0.64439 0.28303 0.52563 0.0
H490 H 0.48083 0.32914 0.45855 0.0
H491 H 0.57789 0.32177 0.46186 0.0
H492 H 0.69037 0.27062 0.54153 0.0
H493 H 0.65683 0.30786 0.51443 0.0
H494 H 0.33665 0.2216 0.58082 0.0
H495 H 0.30452 0.25714 0.54849 0.0
H496 H 0.41445 0.18254 0.56942 0.0
H497 H 0.5106 0.1761 0.57821 0.0
C498 C 0.30471 0.72849 0.03073 0.0
C499 C 0.38191 0.73676 0.02221 0.0
C500 C 0.35836 0.79398 0.05293 0.0
C501 C 0.28767 0.78326 0.07188 0.0
N502 N 0.19616 0.73753 0.08176 0.0
N503 N 0.48521 0.77591 0.03684 0.0
C504 C 0.26085 0.7498 0.06127 0.0
C505 C 0.40955 0.76923 0.03615 0.0
N506 N 0.27268 0.70099 1.00855 0.0
N507 N 0.37647 0.82787 0.05017 0.0
H508 H 0.52517 0.75724 0.02995 0.0
H509 H 0.50794 0.79851 0.0505 0.0
H510 H 0.33811 0.847 0.05878 0.0
H511 H 0.42552 0.83677 0.0335 0.0
H512 H 0.21506 0.69544 1.01036 0.0
H513 H 0.30209 0.68622 0.98388 0.0
H514 H 0.17896 0.71213 0.07869 0.0
H515 H 0.16304 0.75169 0.10506 0.0
C516 C 0.50371 0.7156 0.52308 0.0
C517 C 0.42633 0.72284 0.51511 0.0
C518 C 0.45938 0.77793 0.47892 0.0
C519 C 0.53763 0.77009 0.48442 0.0
N520 N 0.63434 0.7291 0.50416 0.0
N521 N 0.32977 0.75707 0.47833 0.0
C522 C 0.55978 0.73809 0.50413 0.0
C523 C 0.40404 0.7529 0.49082 0.0
N524 N 0.5231 0.68773 0.55019 0.0
N525 N 0.43753 0.80963 0.46396 0.0
H526 H 0.28796 0.73937 0.48766 0.0
H527 H 0.3105 0.77649 0.45567 0.0
H528 H 0.47576 0.82826 0.45355 0.0
H529 H 0.38192 0.81822 0.46486 0.0
H530 H 0.57803 0.68269 0.56178 0.0
H531 H 0.48282 0.67093 0.5643 0.0
H532 H 0.65372 0.70496 0.51402 0.0
H533 H 0.67646 0.745 0.4903 0.0
C534 C 0.29603 0.26477 0.94601 0.0
C535 C 0.24291 0.25243 0.98061 0.0
C536 C 0.29579 0.29359 0.03889 0.0
C537 C 0.3604 0.29724 1.00957 0.0
N538 N 0.38999 0.30805 0.92693 0.0
N539 N 0.18093 0.26225 0.0567 0.0
C540 C 0.3515 0.28922 0.96032 0.0
C541 C 0.23933 0.26909 0.02613 0.0
N542 N 0.29579 0.25296 0.90002 0.0
N543 N 0.28209 0.31726 0.07342 0.0
H544 H 0.13239 0.24901 0.0461 0.0
H545 H 0.18124 0.26951 0.09267 0.0
H546 H 0.31207 0.34026 0.07421 0.0
H547 H 0.23391 0.31734 0.09474 0.0
H548 H 0.34132 0.25632 0.8768 0.0
H549 H 0.25023 0.2404 0.88449 0.0
H550 H 0.38136 0.30592 0.88999 0.0
H551 H 0.42306 0.32906 0.9368 0.0
C552 C 0.97763 0.70514 0.53146 0.0
C553 C 0.04829 0.71859 0.54737 0.0
C554 C 0.99941 0.77677 0.53575 0.0
C555 C 0.92679 0.76315 0.52507 0.0
N556 N 0.84299 0.71484 0.5228 0.0
N557 N 0.12458 0.76735 0.56952 0.0
C558 C 0.91492 0.72742 0.52576 0.0
C559 C 0.05838 0.75449 0.55142 0.0
N560 N 0.97041 0.6713 0.52061 0.0
N561 N 1.01309 0.81074 0.5282 0.0
H562 H 0.17066 0.75206 0.57877 0.0
H563 H 0.13207 0.79297 0.57831 0.0
H564 H 0.97199 0.8274 0.51494 0.0
H565 H 0.06664 0.82179 0.53063 0.0
H566 H 0.92241 0.66101 0.50423 0.0
H567 H 1.01471 0.65401 0.52351 0.0
H568 H 0.82947 0.68913 0.52783 0.0
H569 H 0.79608 0.73077 0.52042 0.0
C570 C 0.85103 0.30176 0.05121 0.0
C571 C 0.78883 0.28862 0.07776 0.0
C572 C 0.81842 0.23127 0.04871 0.0
C573 C 0.88807 0.24366 0.03046 0.0
N574 N 0.97571 0.29043 1.02016 0.0
N575 N 0.71659 0.2397 0.10517 0.0
C576 C 0.90554 0.27892 0.0328 0.0
C577 C 0.77254 0.25306 0.07696 0.0
N578 N 0.85711 0.33607 0.04264 0.0
N579 N 0.79598 0.19872 0.03838 0.0
H580 H 0.68246 0.25452 0.12709 0.0
H581 H 0.70804 0.21354 0.10981 0.0
H582 H 0.828 0.18263 1.01681 0.0
H583 H 0.74272 0.18904 0.04693 0.0
H584 H 0.89777 0.34669 1.01998 0.0
H585 H 0.81624 0.35343 0.05363 0.0
H586 H 0.99401 0.31539 0.02614 0.0
H587 H 1.01813 0.27437 1.00793 0.0
C588 C 0.98449 0.26494 0.47369 0.0
C589 C 0.06068 0.25618 0.48576 0.0
C590 C 1.01287 0.20924 0.53648 0.0
C591 C 0.93817 0.21636 0.52104 0.0
N592 N 0.85358 0.24635 0.46816 0.0
N593 N 0.14668 0.21471 0.51991 0.0
C594 C 0.92432 0.24279 0.48747 0.0
C595 C 0.07461 0.22674 0.51469 0.0
N596 N 0.9685 0.29535 0.45194 0.0
N597 N 1.02448 0.18642 0.57311 0.0
H598 H 0.1929 0.22582 0.50256 0.0
H599 H 0.15946 0.1917 0.53709 0.0
H600 H 0.98007 0.17372 0.59026 0.0
H601 H 0.07696 0.18265 0.58946 0.0
H602 H 0.91385 0.30474 0.44751 0.0
H603 H 1.00995 0.31269 0.4423 0.0
H604 H 0.84141 0.26275 0.4395 0.0
H605 H 0.80835 0.2307 0.47818 0.0
C606 C 0.74242 0.78393 1.00153 0.0
C607 C 0.74838 0.74918 0.98754 0.0
C608 C 0.88441 0.75015 1.00721 0.0
C609 C 0.87882 0.78503 1.01925 0.0
N610 N 0.807 0.83663 0.02409 0.0
N611 N 0.82753 0.70096 0.96879 0.0
C612 C 0.80887 0.80233 1.01542 0.0
C613 C 0.82021 0.7328 0.9879 0.0
N614 N 0.67309 0.79923 1.00138 0.0
N615 N 0.95132 0.73364 1.01519 0.0
H616 H 0.78371 0.68855 0.95096 0.0
H617 H 0.87865 0.68816 0.9657 0.0
H618 H 0.99936 0.74609 0.02837 0.0
H619 H 0.95826 0.70736 1.01231 0.0
H620 H 0.66251 0.82304 1.01623 0.0
H621 H 0.62491 0.7875 0.9872 0.0
H622 H 0.75998 0.85196 1.01798 0.0
H623 H 0.85471 0.8503 0.03524 0.0
loop_
_geom_bond_atom_site_label_1
_geom_bond_atom_site_label_2
_geom_bond_distance
_geom_bond_site_symmetry_2
_ccdc_geom_bond_type
C0 C1 1.351 . S
C0 N3 1.368 . S
C0 H5 0.931 . S
C1 C0 1.351 . S
C1 N2 1.368 1_455 S
C1 H29 0.930 . S
N2 C1 1.368 1_655 S
N2 C4 1.337 1_655 S
N3 C0 1.368 . S
N3 C4 1.321 . S
N3 Co6 2.135 . S
C4 N2 1.337 1_455 S
C4 N3 1.321 . S
C4 H28 0.930 . S
H5 C0 0.931 . S
Co6 N3 2.135 . S
Co6 N9 2.121 . S
Co6 O14 2.055 . S
Co6 O17 2.039 . S
Co6 N20 2.140 . S
C7 O8 1.227 . S
C7 O17 1.265 . S
O8 C7 1.227 . S
N9 Co6 2.121 . S
N9 C11 1.375 . S
N9 C12 1.313 . S
C10 C11 1.338 . S
C10 N13 1.377 . S
C10 H30 0.930 . S
C11 N9 1.375 . S
C11 C10 1.338 . S
C11 H15 0.931 . S
C12 N9 1.313 . S
C12 N13 1.344 . S
C12 H16 0.930 . S
N13 C10 1.377 . S
N13 C12 1.344 . S
O14 Co6 2.055 . S
O14 C18 1.253 . S
H15 C11 0.931 . S
H16 C12 0.930 . S
O17 Co6 2.039 . S
O17 C7 1.265 . S
C18 O14 1.253 . S
C18 O19 1.227 . S
O19 C18 1.227 . S
N20 Co6 2.140 . S
N20 C23 1.346 . S
N20 C24 1.345 . S
C21 C22 1.387 . S
C21 C25 1.391 . S
C22 C21 1.387 . S
C22 C23 1.369 . S
C22 H31 0.929 . S
C23 N20 1.346 . S
C23 C22 1.369 . S
C23 H26 0.928 . S
C24 N20 1.345 . S
C24 C25 1.371 . S
C24 H27 0.931 . S
C25 C21 1.391 . S
C25 C24 1.371 . S
C25 H32 0.930 . S
H26 C23 0.928 . S
H27 C24 0.931 . S
H28 C4 0.930 . S
H29 C1 0.930 . S
H30 C10 0.930 . S
H31 C22 0.929 . S
H32 C25 0.930 . S
C33 C34 1.351 . S
C33 N36 1.368 . S
C33 H38 0.931 . S
C34 C33 1.351 . S
C34 N35 1.373 . S
C34 H62 0.930 . S
N35 C34 1.373 . S
N35 C37 1.340 . S
N36 C33 1.368 . S
N36 C37 1.321 . S
N36 Co39 2.135 . S
C37 N35 1.340 . S
C37 N36 1.321 . S
C37 H61 0.930 . S
H38 C33 0.931 . S
Co39 N36 2.135 . S
Co39 N42 2.121 . S
Co39 O47 2.055 . S
Co39 O50 2.039 . S
Co39 N53 2.140 . S
C40 O41 1.227 . S
C40 O50 1.265 . S
O41 C40 1.227 . S
N42 Co39 2.121 . S
N42 C44 1.375 . S
N42 C45 1.313 . S
C43 C44 1.338 1_554 S
C43 N46 1.377 1_554 S
C43 H63 0.930 . S
C44 N42 1.375 . S
C44 C43 1.338 1_556 S
C44 H48 0.931 . S
C45 N42 1.313 . S
C45 N46 1.344 . S
C45 H49 0.930 . S
N46 C43 1.377 1_556 S
N46 C45 1.344 . S
O47 Co39 2.055 . S
O47 C51 1.253 . S
H48 C44 0.931 . S
H49 C45 0.930 . S
O50 Co39 2.039 . S
O50 C40 1.265 . S
C51 O47 1.253 . S
C51 O52 1.227 . S
O52 C51 1.227 . S
N53 Co39 2.140 . S
N53 C56 1.346 . S
N53 C57 1.345 . S
C54 C55 1.387 . S
C54 C58 1.391 . S
C55 C54 1.387 . S
C55 C56 1.369 . S
C55 H64 0.929 . S
C56 N53 1.346 . S
C56 C55 1.369 . S
C56 H59 0.928 . S
C57 N53 1.345 . S
C57 C58 1.371 . S
C57 H60 0.931 . S
C58 C54 1.391 . S
C58 C57 1.371 . S
C58 H65 0.930 . S
H59 C56 0.928 . S
H60 C57 0.931 . S
H61 C37 0.930 . S
H62 C34 0.930 . S
H63 C43 0.930 . S
H64 C55 0.929 . S
H65 C58 0.930 . S
C66 C67 1.351 . S
C66 N69 1.368 . S
C66 H71 0.931 . S
C67 C66 1.351 . S
C67 N68 1.368 1_455 S
C67 H95 0.930 . S
N68 C67 1.368 1_655 S
N68 C70 1.337 1_655 S
N69 C66 1.368 . S
N69 C70 1.321 . S
N69 Co72 2.135 . S
C70 N68 1.337 1_455 S
C70 N69 1.321 . S
C70 H94 0.930 . S
H71 C66 0.931 . S
Co72 N69 2.135 . S
Co72 N75 2.121 . S
Co72 O80 2.055 . S
Co72 O83 2.039 . S
Co72 N86 2.140 . S
C73 O74 1.227 . S
C73 O83 1.265 . S
O74 C73 1.227 . S
N75 Co72 2.121 . S
N75 C77 1.375 . S
N75 C78 1.313 . S
C76 C77 1.338 . S
C76 N79 1.377 . S
C76 H96 0.930 . S
C77 N75 1.375 . S
C77 C76 1.338 . S
C77 H81 0.931 . S
C78 N75 1.313 . S
C78 N79 1.344 . S
C78 H82 0.930 . S
N79 C76 1.377 . S
N79 C78 1.344 . S
O80 Co72 2.055 . S
O80 C84 1.253 . S
H81 C77 0.931 . S
H82 C78 0.930 . S
O83 Co72 2.039 . S
O83 C73 1.265 . S
C84 O80 1.253 . S
C84 O85 1.227 . S
O85 C84 1.227 . S
N86 Co72 2.140 . S
N86 C89 1.346 . S
N86 C90 1.345 . S
C87 C88 1.387 . S
C87 C91 1.391 . S
C88 C87 1.387 . S
C88 C89 1.369 . S
C88 H97 0.929 . S
C89 N86 1.346 . S
C89 C88 1.369 . S
C89 H92 0.928 . S
C90 N86 1.345 . S
C90 C91 1.371 . S
C90 H93 0.931 . S
C91 C87 1.391 . S
C91 C90 1.371 . S
C91 H98 0.930 . S
H92 C89 0.928 . S
H93 C90 0.931 . S
H94 C70 0.930 . S
H95 C67 0.930 . S
H96 C76 0.930 . S
H97 C88 0.929 . S
H98 C91 0.930 . S
C99 C100 1.351 . S
C99 N102 1.368 . S
C99 H104 0.931 . S
C100 C99 1.351 . S
C100 N101 1.373 . S
C100 H128 0.930 . S
N101 C100 1.373 . S
N101 C103 1.340 . S
N102 C99 1.368 . S
N102 C103 1.321 . S
N102 Co105 2.135 . S
C103 N101 1.340 . S
C103 N102 1.321 . S
C103 H127 0.930 . S
H104 C99 0.931 . S
Co105 N102 2.135 . S
Co105 N108 2.121 . S
Co105 O113 2.055 . S
Co105 O116 2.039 . S
Co105 N119 2.140 . S
C106 O107 1.227 . S
C106 O116 1.265 . S
O107 C106 1.227 . S
N108 Co105 2.121 . S
N108 C110 1.375 . S
N108 C111 1.313 . S
C109 C110 1.338 1_556 S
C109 N112 1.377 1_556 S
C109 H129 0.930 . S
C110 N108 1.375 . S
C110 C109 1.338 1_554 S
C110 H114 0.931 . S
C111 N108 1.313 . S
C111 N112 1.344 . S
C111 H115 0.930 . S
N112 C109 1.377 1_554 S
N112 C111 1.344 . S
O113 Co105 2.055 . S
O113 C117 1.253 . S
H114 C110 0.931 . S
H115 C111 0.930 . S
O116 Co105 2.039 . S
O116 C106 1.265 . S
C117 O113 1.253 . S
C117 O118 1.227 . S
O118 C117 1.227 . S
N119 Co105 2.140 . S
N119 C122 1.346 . S
N119 C123 1.345 . S
C120 C121 1.387 . S
C120 C124 1.391 . S
C121 C120 1.387 . S
C121 C122 1.369 . S
C121 H130 0.929 . S
C122 N119 1.346 . S
C122 C121 1.369 . S
C122 H125 0.928 . S
C123 N119 1.345 . S
C123 C124 1.371 . S
C123 H126 0.931 . S
C124 C120 1.391 . S
C124 C123 1.371 . S
C124 H131 0.930 . S
H125 C122 0.928 . S
H126 C123 0.931 . S
H127 C103 0.930 . S
H128 C100 0.930 . S
H129 C109 0.930 . S
H130 C121 0.929 . S
H131 C124 0.930 . S
C132 C133 1.351 . S
C132 N135 1.368 . S
C132 H137 0.931 . S
C133 C132 1.351 . S
C133 N134 1.373 . S
C133 H161 0.930 . S
N134 C133 1.373 . S
N134 C136 1.340 . S
N135 C132 1.368 . S
N135 C136 1.321 . S
N135 Co138 2.135 . S
C136 N134 1.340 . S
C136 N135 1.321 . S
C136 H160 0.930 . S
H137 C132 0.931 . S
Co138 N135 2.135 . S
Co138 N141 2.121 . S
Co138 O146 2.055 . S
Co138 O149 2.039 . S
Co138 N152 2.140 . S
C139 O140 1.227 . S
C139 O149 1.265 . S
O140 C139 1.227 . S
N141 Co138 2.121 . S
N141 C143 1.375 . S
N141 C144 1.313 . S
C142 C143 1.338 . S
C142 N145 1.377 . S
C142 H162 0.930 . S
C143 N141 1.375 . S
C143 C142 1.338 . S
C143 H147 0.931 . S
C144 N141 1.313 . S
C144 N145 1.344 . S
C144 H148 0.930 . S
N145 C142 1.377 . S
N145 C144 1.344 . S
O146 Co138 2.055 . S
O146 C150 1.253 . S
H147 C143 0.931 . S
H148 C144 0.930 . S
O149 Co138 2.039 . S
O149 C139 1.265 . S
C150 O146 1.253 . S
C150 O151 1.227 . S
O151 C150 1.227 . S
N152 Co138 2.140 . S
N152 C155 1.346 . S
N152 C156 1.345 . S
C153 C154 1.387 . S
C153 C157 1.391 . S
C154 C153 1.387 . S
C154 C155 1.369 . S
C154 H163 0.929 . S
C155 N152 1.346 . S
C155 C154 1.369 . S
C155 H158 0.928 . S
C156 N152 1.345 . S
C156 C157 1.371 . S
C156 H159 0.931 . S
C157 C153 1.391 . S
C157 C156 1.371 . S
C157 H164 0.930 . S
H158 C155 0.928 . S
H159 C156 0.931 . S
H160 C136 0.930 . S
H161 C133 0.930 . S
H162 C142 0.930 . S
H163 C154 0.929 . S
H164 C157 0.930 . S
C165 C166 1.351 . S
C165 N168 1.368 . S
C165 H170 0.931 . S
C166 C165 1.351 . S
C166 N167 1.373 . S
C166 H194 0.930 . S
N167 C166 1.373 . S
N167 C169 1.340 . S
N168 C165 1.368 . S
N168 C169 1.321 . S
N168 Co171 2.135 . S
C169 N167 1.340 . S
C169 N168 1.321 . S
C169 H193 0.930 . S
H170 C165 0.931 . S
Co171 N168 2.135 . S
Co171 N174 2.121 1_455 S
Co171 O179 2.055 . S
Co171 O182 2.039 . S
Co171 N185 2.140 . S
C172 O173 1.227 . S
C172 O182 1.265 . S
O173 C172 1.227 . S
N174 Co171 2.121 1_655 S
N174 C176 1.375 1_655 S
N174 C177 1.313 . S
C175 C176 1.338 1_654 S
C175 N178 1.377 1_554 S
C175 H195 0.930 . S
C176 N174 1.375 1_455 S
C176 C175 1.338 1_456 S
C176 H180 0.931 . S
C177 N174 1.313 . S
C177 N178 1.344 . S
C177 H181 0.930 . S
N178 C175 1.377 1_556 S
N178 C177 1.344 . S
O179 Co171 2.055 . S
O179 C183 1.253 1_455 S
H180 C176 0.931 . S
H181 C177 0.930 . S
O182 Co171 2.039 . S
O182 C172 1.265 . S
C183 O179 1.253 1_655 S
C183 O184 1.227 . S
O184 C183 1.227 . S
N185 Co171 2.140 . S
N185 C188 1.346 . S
N185 C189 1.345 . S
C186 C187 1.387 . S
C186 C190 1.391 . S
C187 C186 1.387 . S
C187 C188 1.369 . S
C187 H196 0.929 . S
C188 N185 1.346 . S
C188 C187 1.369 . S
C188 H191 0.928 . S
C189 N185 1.345 . S
C189 C190 1.371 . S
C189 H192 0.931 1_455 S
C190 C186 1.391 . S
C190 C189 1.371 . S
C190 H197 0.930 1_455 S
H191 C188 0.928 . S
H192 C189 0.931 1_655 S
H193 C169 0.930 . S
H194 C166 0.930 . S
H195 C175 0.930 . S
H196 C187 0.929 . S
H197 C190 0.930 1_655 S
C198 C199 1.351 . S
C198 N201 1.368 . S
C198 H203 0.931 . S
C199 C198 1.351 . S
C199 N200 1.373 . S
C199 H227 0.930 . S
N200 C199 1.373 . S
N200 C202 1.340 . S
N201 C198 1.368 . S
N201 C202 1.321 . S
N201 Co204 2.135 . S
C202 N200 1.340 . S
C202 N201 1.321 . S
C202 H226 0.930 . S
H203 C198 0.931 . S
Co204 N201 2.135 . S
Co204 N207 2.121 . S
Co204 O212 2.055 . S
Co204 O215 2.039 . S
Co204 N218 2.140 . S
C205 O206 1.227 . S
C205 O215 1.265 . S
O206 C205 1.227 . S
N207 Co204 2.121 . S
N207 C209 1.375 . S
N207 C210 1.313 . S
C208 C209 1.338 . S
C208 N211 1.377 . S
C208 H228 0.930 . S
C209 N207 1.375 . S
C209 C208 1.338 . S
C209 H213 0.931 . S
C210 N207 1.313 . S
C210 N211 1.344 . S
C210 H214 0.930 . S
N211 C208 1.377 . S
N211 C210 1.344 . S
O212 Co204 2.055 . S
O212 C216 1.253 . S
H213 C209 0.931 . S
H214 C210 0.930 . S
O215 Co204 2.039 . S
O215 C205 1.265 . S
C216 O212 1.253 . S
C216 O217 1.227 . S
O217 C216 1.227 . S
N218 Co204 2.140 . S
N218 C221 1.346 . S
N218 C222 1.345 . S
C219 C220 1.387 . S
C219 C223 1.391 . S
C220 C219 1.387 . S
C220 C221 1.369 . S
C220 H229 0.929 . S
C221 N218 1.346 . S
C221 C220 1.369 . S
C221 H224 0.928 . S
C222 N218 1.345 . S
C222 C223 1.371 . S
C222 H225 0.931 . S
C223 C219 1.391 . S
C223 C222 1.371 . S
C223 H230 0.930 . S
H224 C221 0.928 . S
H225 C222 0.931 . S
H226 C202 0.930 . S
H227 C199 0.930 . S
H228 C208 0.930 . S
H229 C220 0.929 . S
H230 C223 0.930 . S
C231 C232 1.351 . S
C231 N234 1.368 . S
C231 H236 0.931 . S
C232 C231 1.351 . S
C232 N233 1.373 . S
C232 H260 0.930 . S
N233 C232 1.373 . S
N233 C235 1.340 . S
N234 C231 1.368 . S
N234 C235 1.321 . S
N234 Co237 2.135 . S
C235 N233 1.340 . S
C235 N234 1.321 . S
C235 H259 0.930 . S
H236 C231 0.931 . S
Co237 N234 2.135 . S
Co237 N240 2.121 1_455 S
Co237 O245 2.055 . S
Co237 O248 2.039 . S
Co237 N251 2.140 . S
C238 O239 1.227 . S
C238 O248 1.265 . S
O239 C238 1.227 . S
N240 Co237 2.121 1_655 S
N240 C242 1.375 1_655 S
N240 C243 1.313 . S
C241 C242 1.338 1_656 S
C241 N244 1.377 1_556 S
C241 H261 0.930 . S
C242 N240 1.375 1_455 S
C242 C241 1.338 1_454 S
C242 H246 0.931 . S
C243 N240 1.313 . S
C243 N244 1.344 . S
C243 H247 0.930 . S
N244 C241 1.377 1_554 S
N244 C243 1.344 . S
O245 Co237 2.055 . S
O245 C249 1.253 1_455 S
H246 C242 0.931 . S
H247 C243 0.930 . S
O248 Co237 2.039 . S
O248 C238 1.265 . S
C249 O245 1.253 1_655 S
C249 O250 1.227 . S
O250 C249 1.227 . S
N251 Co237 2.140 . S
N251 C254 1.346 . S
N251 C255 1.345 . S
C252 C253 1.387 . S
C252 C256 1.391 . S
C253 C252 1.387 . S
C253 C254 1.369 . S
C253 H262 0.929 . S
C254 N251 1.346 . S
C254 C253 1.369 . S
C254 H257 0.928 . S
C255 N251 1.345 . S
C255 C256 1.371 . S
C255 H258 0.931 1_455 S
C256 C252 1.391 . S
C256 C255 1.371 . S
C256 H263 0.930 1_455 S
H257 C254 0.928 . S
H258 C255 0.931 1_655 S
H259 C235 0.930 . S
H260 C232 0.930 . S
H261 C241 0.930 . S
H262 C253 0.929 . S
H263 C256 0.930 1_655 S
C264 C265 1.363 . S
C264 C270 1.379 . S
C264 N272 1.356 . S
C265 C264 1.363 . S
C265 C271 1.363 . S
C266 C267 1.363 . S
C266 C271 1.379 . S
C266 N273 1.356 . S
C267 C266 1.363 . S
C267 C270 1.363 . S
N268 C270 1.356 . S
N268 H280 0.984 . S
N268 H281 0.985 . S
N269 C271 1.356 . S
N269 H274 0.984 . S
N269 H275 0.985 . S
C270 C264 1.379 . S
C270 C267 1.363 . S
C270 N268 1.356 . S
C271 C265 1.363 . S
C271 C266 1.379 . S
C271 N269 1.356 . S
N272 C264 1.356 . S
N272 H278 0.984 . S
N272 H279 0.984 . S
N273 C266 1.356 . S
N273 H276 0.984 . S
N273 H277 0.985 . S
H274 N269 0.984 . S
H275 N269 0.985 . S
H276 N273 0.984 . S
H277 N273 0.985 . S
H278 N272 0.984 . S
H279 N272 0.984 . S
H280 N268 0.984 . S
H281 N268 0.985 . S
C282 C283 1.363 . S
C282 C288 1.379 . S
C282 N290 1.356 . S
C283 C282 1.363 . S
C283 C289 1.363 . S
C284 C285 1.363 . S
C284 C289 1.379 . S
C284 N291 1.356 . S
C285 C284 1.363 . S
C285 C288 1.363 . S
N286 C288 1.356 . S
N286 H298 0.984 . S
N286 H299 0.985 . S
N287 C289 1.356 . S
N287 H292 0.984 . S
N287 H293 0.985 . S
C288 C282 1.379 . S
C288 C285 1.363 . S
C288 N286 1.356 . S
C289 C283 1.363 . S
C289 C284 1.379 . S
C289 N287 1.356 . S
N290 C282 1.356 . S
N290 H296 0.984 . S
N290 H297 0.984 . S
N291 C284 1.356 . S
N291 H294 0.984 . S
N291 H295 0.985 . S
H292 N287 0.984 . S
H293 N287 0.985 . S
H294 N291 0.984 . S
H295 N291 0.985 . S
H296 N290 0.984 . S
H297 N290 0.984 . S
H298 N286 0.984 . S
H299 N286 0.985 . S
C300 C301 1.363 . S
C300 C306 1.379 . S
C300 N308 1.356 . S
C301 C300 1.363 . S
C301 C307 1.363 . S
C302 C303 1.363 . S
C302 C307 1.379 . S
C302 N309 1.356 . S
C303 C302 1.363 . S
C303 C306 1.363 . S
N304 C306 1.356 . S
N304 H316 0.984 . S
N304 H317 0.985 . S
N305 C307 1.356 . S
N305 H310 0.984 . S
N305 H311 0.985 . S
C306 C300 1.379 . S
C306 C303 1.363 . S
C306 N304 1.356 . S
C307 C301 1.363 . S
C307 C302 1.379 . S
C307 N305 1.356 . S
N308 C300 1.356 . S
N308 H314 0.984 . S
N308 H315 0.984 1_655 S
N309 C302 1.356 . S
N309 H312 0.984 . S
N309 H313 0.985 . S
H310 N305 0.984 . S
H311 N305 0.985 . S
H312 N309 0.984 . S
H313 N309 0.985 . S
H314 N308 0.984 . S
H315 N308 0.984 1_455 S
H316 N304 0.984 . S
H317 N304 0.985 . S
C318 C319 1.363 . S
C318 C324 1.379 . S
C318 N326 1.356 . S
C319 C318 1.363 . S
C319 C325 1.363 . S
C320 C321 1.363 . S
C320 C325 1.379 . S
C320 N327 1.356 . S
C321 C320 1.363 . S
C321 C324 1.363 . S
N322 C324 1.356 . S
N322 H334 0.984 . S
N322 H335 0.985 1_655 S
N323 C325 1.356 . S
N323 H328 0.984 . S
N323 H329 0.985 . S
C324 C318 1.379 . S
C324 C321 1.363 . S
C324 N322 1.356 . S
C325 C319 1.363 . S
C325 C320 1.379 . S
C325 N323 1.356 . S
N326 C318 1.356 . S
N326 H332 0.984 . S
N326 H333 0.984 . S
N327 C320 1.356 . S
N327 H330 0.984 . S
N327 H331 0.985 . S
H328 N323 0.984 . S
H329 N323 0.985 . S
H330 N327 0.984 . S
H331 N327 0.985 . S
H332 N326 0.984 . S
H333 N326 0.984 . S
H334 N322 0.984 . S
H335 N322 0.985 1_455 S
C336 C337 1.363 . S
C336 C342 1.379 . S
C336 N344 1.356 . S
C337 C336 1.363 . S
C337 C343 1.363 . S
C338 C339 1.363 . S
C338 C343 1.379 . S
C338 N345 1.356 . S
C339 C338 1.363 . S
C339 C342 1.363 . S
N340 C342 1.356 . S
N340 H352 0.984 . S
N340 H353 0.985 . S
N341 C343 1.356 . S
N341 H346 0.984 . S
N341 H347 0.985 . S
C342 C336 1.379 . S
C342 C339 1.363 . S
C342 N340 1.356 . S
C343 C337 1.363 . S
C343 C338 1.379 . S
C343 N341 1.356 . S
N344 C336 1.356 . S
N344 H350 0.984 . S
N344 H351 0.984 . S
N345 C338 1.356 . S
N345 H348 0.988 . S
N345 H349 0.985 . S
H346 N341 0.984 . S
H347 N341 0.985 . S
H348 N345 0.988 . S
H349 N345 0.985 . S
H350 N344 0.984 . S
H351 N344 0.984 . S
H352 N340 0.984 . S
H353 N340 0.985 . S
C354 C355 1.363 . S
C354 C360 1.379 . S
C354 N362 1.356 . S
C355 C354 1.363 . S
C355 C361 1.363 . S
C356 C357 1.363 . S
C356 C361 1.379 . S
C356 N363 1.356 . S
C357 C356 1.363 . S
C357 C360 1.363 . S
N358 C360 1.356 . S
N358 H370 0.984 . S
N358 H371 0.985 . S
N359 C361 1.356 . S
N359 H364 0.984 . S
N359 H365 0.985 . S
C360 C354 1.379 . S
C360 C357 1.363 . S
C360 N358 1.356 . S
C361 C355 1.363 . S
C361 C356 1.379 . S
C361 N359 1.356 . S
N362 C354 1.356 . S
N362 H368 0.984 . S
N362 H369 0.984 . S
N363 C356 1.356 . S
N363 H366 0.988 . S
N363 H367 0.985 . S
H364 N359 0.984 . S
H365 N359 0.985 . S
H366 N363 0.988 . S
H367 N363 0.985 . S
H368 N362 0.984 . S
H369 N362 0.984 . S
H370 N358 0.984 . S
H371 N358 0.985 . S
C372 C373 1.363 . S
C372 C378 1.379 . S
C372 N380 1.356 . S
C373 C372 1.363 . S
C373 C379 1.363 . S
C374 C375 1.363 . S
C374 C379 1.379 . S
C374 N381 1.356 . S
C375 C374 1.363 . S
C375 C378 1.363 . S
N376 C378 1.356 . S
N376 H388 0.984 . S
N376 H389 0.985 . S
N377 C379 1.356 . S
N377 H382 0.984 . S
N377 H383 0.985 . S
C378 C372 1.379 . S
C378 C375 1.363 . S
C378 N376 1.356 . S
C379 C373 1.363 . S
C379 C374 1.379 . S
C379 N377 1.356 . S
N380 C372 1.356 . S
N380 H386 0.984 . S
N380 H387 0.984 . S
N381 C374 1.356 . S
N381 H384 0.984 . S
N381 H385 0.985 . S
H382 N377 0.984 . S
H383 N377 0.985 . S
H384 N381 0.984 . S
H385 N381 0.985 . S
H386 N380 0.984 . S
H387 N380 0.984 . S
H388 N376 0.984 . S
H389 N376 0.985 . S
C390 C391 1.363 . S
C390 C396 1.379 . S
C390 N398 1.356 . S
C391 C390 1.363 . S
C391 C397 1.363 . S
C392 C393 1.363 . S
C392 C397 1.379 . S
C392 N399 1.356 . S
C393 C392 1.363 . S
C393 C396 1.363 . S
N394 C396 1.356 . S
N394 H406 0.984 . S
N394 H407 0.985 . S
N395 C397 1.356 . S
N395 H400 0.984 . S
N395 H401 0.985 . S
C396 C390 1.379 . S
C396 C393 1.363 . S
C396 N394 1.356 . S
C397 C391 1.363 . S
C397 C392 1.379 . S
C397 N395 1.356 . S
N398 C390 1.356 . S
N398 H404 0.984 . S
N398 H405 0.984 . S
N399 C392 1.356 . S
N399 H402 0.984 . S
N399 H403 0.985 . S
H400 N395 0.984 . S
H401 N395 0.985 . S
H402 N399 0.984 . S
H403 N399 0.985 . S
H404 N398 0.984 . S
H405 N398 0.984 . S
H406 N394 0.984 . S
H407 N394 0.985 . S
C408 C409 1.363 . S
C408 C414 1.379 . S
C408 N416 1.356 . S
C409 C408 1.363 . S
C409 C415 1.363 . S
C410 C411 1.363 . S
C410 C415 1.379 . S
C410 N417 1.356 . S
C411 C410 1.363 . S
C411 C414 1.363 . S
N412 C414 1.356 . S
N412 H424 0.984 . S
N412 H425 0.985 . S
N413 C415 1.356 . S
N413 H418 0.984 . S
N413 H419 0.985 . S
C414 C408 1.379 . S
C414 C411 1.363 . S
C414 N412 1.356 . S
C415 C409 1.363 . S
C415 C410 1.379 . S
C415 N413 1.356 . S
N416 C408 1.356 . S
N416 H422 0.984 . S
N416 H423 0.984 . S
N417 C410 1.356 . S
N417 H420 0.984 . S
N417 H421 0.985 . S
H418 N413 0.984 . S
H419 N413 0.985 . S
H420 N417 0.984 . S
H421 N417 0.985 . S
H422 N416 0.984 . S
H423 N416 0.984 . S
H424 N412 0.984 . S
H425 N412 0.985 . S
C426 C427 1.363 . S
C426 C432 1.379 . S
C426 N434 1.356 . S
C427 C426 1.363 . S
C427 C433 1.363 1_556 S
C428 C429 1.363 . S
C428 C433 1.379 . S
C428 N435 1.356 . S
C429 C428 1.363 . S
C429 C432 1.363 1_554 S
N430 C432 1.356 . S
N430 H442 0.984 . S
N430 H443 0.985 . S
N431 C433 1.356 . S
N431 H436 0.984 . S
N431 H437 0.985 . S
C432 C426 1.379 . S
C432 C429 1.363 1_556 S
C432 N430 1.356 . S
C433 C427 1.363 1_554 S
C433 C428 1.379 . S
C433 N431 1.356 . S
N434 C426 1.356 . S
N434 H440 0.984 . S
N434 H441 0.984 . S
N435 C428 1.356 . S
N435 H438 0.984 . S
N435 H439 0.985 . S
H436 N431 0.984 . S
H437 N431 0.985 . S
H438 N435 0.984 . S
H439 N435 0.985 . S
H440 N434 0.984 . S
H441 N434 0.984 . S
H442 N430 0.984 . S
H443 N430 0.985 . S
C444 C445 1.363 . S
C444 C450 1.379 1_545 S
C444 N452 1.356 . S
C445 C444 1.363 . S
C445 C451 1.363 . S
C446 C447 1.363 . S
C446 C451 1.379 1_565 S
C446 N453 1.356 . S
C447 C446 1.363 . S
C447 C450 1.363 . S
N448 C450 1.356 . S
N448 H460 0.984 . S
N448 H461 0.985 . S
N449 C451 1.356 . S
N449 H454 0.984 . S
N449 H455 0.985 . S
C450 C444 1.379 1_565 S
C450 C447 1.363 . S
C450 N448 1.356 . S
C451 C445 1.363 . S
C451 C446 1.379 1_545 S
C451 N449 1.356 . S
N452 C444 1.356 . S
N452 H458 0.984 . S
N452 H459 0.984 . S
N453 C446 1.356 . S
N453 H456 0.984 . S
N453 H457 0.985 . S
H454 N449 0.984 . S
H455 N449 0.985 . S
H456 N453 0.984 . S
H457 N453 0.985 . S
H458 N452 0.984 . S
H459 N452 0.984 . S
H460 N448 0.984 . S
H461 N448 0.985 . S
C462 C463 1.363 . S
C462 C468 1.379 1_565 S
C462 N470 1.356 . S
C463 C462 1.363 . S
C463 C469 1.363 1_554 S
C464 C465 1.363 . S
C464 C469 1.379 1_545 S
C464 N471 1.356 . S
C465 C464 1.363 . S
C465 C468 1.363 1_556 S
N466 C468 1.356 . S
N466 H478 0.984 1_455 S
N466 H479 0.985 . S
N467 C469 1.356 . S
N467 H472 0.984 . S
N467 H473 0.985 . S
C468 C462 1.379 1_545 S
C468 C465 1.363 1_554 S
C468 N466 1.356 . S
C469 C463 1.363 1_556 S
C469 C464 1.379 1_565 S
C469 N467 1.356 . S
N470 C462 1.356 . S
N470 H476 0.984 1_455 S
N470 H477 0.984 . S
N471 C464 1.356 . S
N471 H474 0.984 . S
N471 H475 0.985 . S
H472 N467 0.984 . S
H473 N467 0.985 . S
H474 N471 0.984 . S
H475 N471 0.985 . S
H476 N470 0.984 1_655 S
H477 N470 0.984 . S
H478 N466 0.984 1_655 S
H479 N466 0.985 . S
C480 C481 1.363 . S
C480 C486 1.379 . S
C480 N488 1.356 . S
C481 C480 1.363 . S
C481 C487 1.363 . S
C482 C483 1.363 . S
C482 C487 1.379 . S
C482 N489 1.356 . S
C483 C482 1.363 . S
C483 C486 1.363 . S
N484 C486 1.356 . S
N484 H496 0.984 . S
N484 H497 0.985 . S
N485 C487 1.356 . S
N485 H490 0.984 . S
N485 H491 0.985 . S
C486 C480 1.379 . S
C486 C483 1.363 . S
C486 N484 1.356 . S
C487 C481 1.363 . S
C487 C482 1.379 . S
C487 N485 1.356 . S
N488 C480 1.356 . S
N488 H494 0.984 . S
N488 H495 0.984 . S
N489 C482 1.356 . S
N489 H492 0.984 . S
N489 H493 0.985 . S
H490 N485 0.984 . S
H491 N485 0.985 . S
H492 N489 0.984 . S
H493 N489 0.985 . S
H494 N488 0.984 . S
H495 N488 0.984 . S
H496 N484 0.984 . S
H497 N484 0.985 . S
C498 C499 1.363 1_554 S
C498 C504 1.379 . S
C498 N506 1.356 . S
C499 C498 1.363 1_556 S
C499 C505 1.363 . S
C500 C501 1.363 . S
C500 C505 1.379 1_554 S
C500 N507 1.356 . S
C501 C500 1.363 . S
C501 C504 1.363 . S
N502 C504 1.356 . S
N502 H514 0.984 . S
N502 H515 0.985 . S
N503 C505 1.356 . S
N503 H508 0.984 . S
N503 H509 0.985 . S
C504 C498 1.379 . S
C504 C501 1.363 . S
C504 N502 1.356 . S
C505 C499 1.363 . S
C505 C500 1.379 1_556 S
C505 N503 1.356 . S
N506 C498 1.356 . S
N506 H512 0.984 . S
N506 H513 0.984 . S
N507 C500 1.356 . S
N507 H510 0.984 . S
N507 H511 0.985 1_554 S
H508 N503 0.984 . S
H509 N503 0.985 . S
H510 N507 0.984 . S
H511 N507 0.985 1_556 S
H512 N506 0.984 . S
H513 N506 0.984 . S
H514 N502 0.984 . S
H515 N502 0.985 . S
C516 C517 1.363 . S
C516 C522 1.379 . S
C516 N524 1.356 . S
C517 C516 1.363 . S
C517 C523 1.363 . S
C518 C519 1.363 . S
C518 C523 1.379 . S
C518 N525 1.356 . S
C519 C518 1.363 . S
C519 C522 1.363 . S
N520 C522 1.356 . S
N520 H532 0.984 . S
N520 H533 0.985 . S
N521 C523 1.356 . S
N521 H526 0.984 . S
N521 H527 0.985 . S
C522 C516 1.379 . S
C522 C519 1.363 . S
C522 N520 1.356 . S
C523 C517 1.363 . S
C523 C518 1.379 . S
C523 N521 1.356 . S
N524 C516 1.356 . S
N524 H530 0.984 . S
N524 H531 0.984 . S
N525 C518 1.356 . S
N525 H528 0.984 . S
N525 H529 0.985 . S
H526 N521 0.984 . S
H527 N521 0.985 . S
H528 N525 0.984 . S
H529 N525 0.985 . S
H530 N524 0.984 . S
H531 N524 0.984 . S
H532 N520 0.984 . S
H533 N520 0.985 . S
C534 C535 1.363 . S
C534 C540 1.379 . S
C534 N542 1.356 . S
C535 C534 1.363 . S
C535 C541 1.363 1_556 S
C536 C537 1.363 . S
C536 C541 1.379 . S
C536 N543 1.356 . S
C537 C536 1.363 . S
C537 C540 1.363 1_554 S
N538 C540 1.356 . S
N538 H550 0.984 . S
N538 H551 0.985 . S
N539 C541 1.356 . S
N539 H544 0.984 1_554 S
N539 H545 0.985 . S
C540 C534 1.379 . S
C540 C537 1.363 1_556 S
C540 N538 1.356 . S
C541 C535 1.363 1_554 S
C541 C536 1.379 . S
C541 N539 1.356 . S
N542 C534 1.356 . S
N542 H548 0.984 . S
N542 H549 0.984 . S
N543 C536 1.356 . S
N543 H546 0.984 . S
N543 H547 0.985 . S
H544 N539 0.984 1_556 S
H545 N539 0.985 . S
H546 N543 0.984 . S
H547 N543 0.985 . S
H548 N542 0.984 . S
H549 N542 0.984 . S
H550 N538 0.984 . S
H551 N538 0.985 . S
C552 C553 1.365 . S
C552 C558 1.372 1_455 S
C552 N560 1.363 . S
C553 C552 1.365 . S
C553 C559 1.363 1_455 S
C554 C555 1.363 . S
C554 C559 1.379 . S
C554 N561 1.356 . S
C555 C554 1.363 . S
C555 C558 1.363 . S
N556 C558 1.356 . S
N556 H568 0.984 . S
N556 H569 0.985 . S
N557 C559 1.356 . S
N557 H562 0.984 1_655 S
N557 H563 0.985 . S
C558 C552 1.372 1_655 S
C558 C555 1.363 . S
C558 N556 1.356 . S
C559 C553 1.363 1_655 S
C559 C554 1.379 . S
C559 N557 1.356 . S
N560 C552 1.363 . S
N560 H566 0.984 . S
N560 H567 0.984 . S
N561 C554 1.356 . S
N561 H564 0.984 . S
N561 H565 0.985 . S
H562 N557 0.984 1_455 S
H563 N557 0.985 . S
H564 N561 0.984 . S
H565 N561 0.985 . S
H566 N560 0.984 . S
H567 N560 0.984 . S
H568 N556 0.984 . S
H569 N556 0.985 . S
C570 C571 1.363 . S
C570 C576 1.379 1_554 S
C570 N578 1.356 . S
C571 C570 1.363 . S
C571 C577 1.363 . S
C572 C573 1.363 1_554 S
C572 C577 1.379 . S
C572 N579 1.356 . S
C573 C572 1.363 1_556 S
C573 C576 1.363 . S
N574 C576 1.356 . S
N574 H586 0.984 . S
N574 H587 0.985 . S
N575 C577 1.356 . S
N575 H580 0.984 . S
N575 H581 0.985 . S
C576 C570 1.379 1_556 S
C576 C573 1.363 . S
C576 N574 1.356 . S
C577 C571 1.363 . S
C577 C572 1.379 . S
C577 N575 1.356 . S
N578 C570 1.356 . S
N578 H584 0.984 1_554 S
N578 H585 0.984 . S
N579 C572 1.356 . S
N579 H582 0.984 . S
N579 H583 0.985 . S
H580 N575 0.984 . S
H581 N575 0.985 . S
H582 N579 0.984 . S
H583 N579 0.985 . S
H584 N578 0.984 1_556 S
H585 N578 0.984 . S
H586 N574 0.984 . S
H587 N574 0.985 . S
C588 C589 1.363 1_655 S
C588 C594 1.379 . S
C588 N596 1.356 . S
C589 C588 1.363 1_455 S
C589 C595 1.363 . S
C590 C591 1.363 . S
C590 C595 1.379 1_655 S
C590 N597 1.356 . S
C591 C590 1.363 . S
C591 C594 1.363 . S
N592 C594 1.356 . S
N592 H604 0.984 . S
N592 H605 0.985 . S
N593 C595 1.356 . S
N593 H598 0.984 . S
N593 H599 0.985 . S
C594 C588 1.379 . S
C594 C591 1.363 . S
C594 N592 1.356 . S
C595 C589 1.363 . S
C595 C590 1.379 1_455 S
C595 N593 1.356 . S
N596 C588 1.356 . S
N596 H602 0.984 . S
N596 H603 0.984 . S
N597 C590 1.356 . S
N597 H600 0.984 . S
N597 H601 0.985 1_655 S
H598 N593 0.984 . S
H599 N593 0.985 . S
H600 N597 0.984 . S
H601 N597 0.985 1_455 S
H602 N596 0.984 . S
H603 N596 0.984 . S
H604 N592 0.984 . S
H605 N592 0.985 . S
C606 C607 1.357 1_554 S
C606 C612 1.382 . S
C606 N614 1.357 . S
C607 C606 1.357 1_556 S
C607 C613 1.363 . S
C608 C609 1.363 1_556 S
C608 C613 1.379 . S
C608 N615 1.356 . S
C609 C608 1.363 1_554 S
C609 C612 1.363 . S
N610 C612 1.356 . S
N610 H622 0.984 . S
N610 H623 0.985 . S
N611 C613 1.356 . S
N611 H616 0.984 . S
N611 H617 0.985 . S
C612 C606 1.382 . S
C612 C609 1.363 . S
C612 N610 1.356 . S
C613 C607 1.363 . S
C613 C608 1.379 . S
C613 N611 1.356 . S
N614 C606 1.357 . S
N614 H620 0.984 . S
N614 H621 0.984 1_554 S
N615 C608 1.356 . S
N615 H618 0.984 . S
N615 H619 0.985 . S
H616 N611 0.984 . S
H617 N611 0.985 . S
H618 N615 0.984 . S
H619 N615 0.985 . S
H620 N614 0.984 . S
H621 N614 0.984 1_556 S
H622 N610 0.984 . S
H623 N610 0.985 . S
C265 C18 1.412 . S
C267 C117 1.412 . S
C283 C51 1.412 . S
C285 C84 1.412 . S
C301 N68 1.540 . S
C303 N35 1.534 . S
C319 N101 1.534 . S
C321 N2 1.540 . S
C337 C150 1.413 . S
C339 C249 1.413 . S
C355 C216 1.413 . S
C357 C183 1.413 . S
C373 N167 1.534 . S
C375 N200 1.534 . S
C391 N233 1.534 . S
C393 N134 1.534 . S
C409 C87 1.504 . S
C411 C21 1.504 . S
C427 C54 1.504 . S
C429 C120 1.504 . S
C445 C219 1.504 . S
C447 C153 1.504 . S
C463 C252 1.504 . S
C465 C186 1.504 . S
C481 N13 1.464 . S
C483 C205 1.503 . S
C499 N46 1.464 . S
C501 C238 1.503 . S
C517 N79 1.464 . S
C519 C139 1.503 . S
C535 C172 1.503 . S
C537 N112 1.464 . S
C553 C73 1.503 . S
C555 N145 1.464 . S
C571 C106 1.504 . S
C573 N178 1.464 . S
C589 C7 1.503 . S
C591 N211 1.464 . S
C607 C40 1.504 . S
C609 N244 1.464 . S
