# Generated by pormake.
# Topology fnu, (5)-cn, num edge types: 1
# Building blocks:
#     Node 0, Type 0, BuildingBlock: XOMCOT_clean_sbu_0, # of connection points: 5
#     Node 1, Type 0, BuildingBlock: XOMCOT_clean_sbu_0, # of connection points: 5
#     Node 2, Type 0, BuildingBlock: XOMCOT_clean_sbu_0, # of connection points: 5
#     Node 3, Type 0, BuildingBlock: XOMCOT_clean_sbu_0, # of connection points: 5
#     Node 4, Type 0, BuildingBlock: XOMCOT_clean_sbu_0, # of connection points: 5
#     Node 5, Type 0, BuildingBlock: XOMCOT_clean_sbu_0, # of connection points: 5
#     Edge 6, Type (0, 0), BuildingBlock: KIFKEQ_clean_linker_1, # of connection points: 2
#     Edge 7, Type (0, 0), BuildingBlock: KIFKEQ_clean_linker_1, # of connection points: 2
#     Edge 8, Type (0, 0), BuildingBlock: KIFKEQ_clean_linker_1, # of connection points: 2
#     Edge 9, Type (0, 0), BuildingBlock: KIFKEQ_clean_linker_1, # of connection points: 2
#     Edge 10, Type (0, 0), BuildingBlock: KIFKEQ_clean_linker_1, # of connection points: 2
#     Edge 11, Type (0, 0), BuildingBlock: KIFKEQ_clean_linker_1, # of connection points: 2
#     Edge 12, Type (0, 0), BuildingBlock: KIFKEQ_clean_linker_1, # of connection points: 2
#     Edge 13, Type (0, 0), BuildingBlock: KIFKEQ_clean_linker_1, # of connection points: 2
#     Edge 14, Type (0, 0), BuildingBlock: KIFKEQ_clean_linker_1, # of connection points: 2
#     Edge 15, Type (0, 0), BuildingBlock: KIFKEQ_clean_linker_1, # of connection points: 2
#     Edge 16, Type (0, 0), BuildingBlock: KIFKEQ_clean_linker_1, # of connection points: 2
#     Edge 17, Type (0, 0), BuildingBlock: KIFKEQ_clean_linker_1, # of connection points: 2
#     Edge 18, Type (0, 0), BuildingBlock: KIFKEQ_clean_linker_1, # of connection points: 2
#     Edge 19, Type (0, 0), BuildingBlock: KIFKEQ_clean_linker_1, # of connection points: 2
#     Edge 20, Type (0, 0), BuildingBlock: KIFKEQ_clean_linker_1, # of connection points: 2
# Relax obj value: 0.174
# Max RMSD: 0.131
# Mean RMSD: 0.131
data_MOF--net-fnu--node1-XOMCOT_clean_sbu_0--edge1-KIFKEQ_clean_linker_1
_symmetry_space_group_name_H-M    P1
_symmetry_Int_Tables_number       1
_symmetry_cell_setting            triclinic
loop_
_symmetry_equiv_pos_as_xyz
'x, y, z'
_cell_length_a     26.212832
_cell_length_b     28.605474
_cell_length_c     33.872607
_cell_angle_alpha  89.538483
_cell_angle_beta   98.096756
_cell_angle_gamma 122.95014
loop_
_atom_site_label
_atom_site_type_symbol
_atom_site_fract_x
_atom_site_fract_y
_atom_site_fract_z
_atom_type_partial_charge
Co0 Co 0.10108 0.08019 0.25257 0.0
C1 C 0.10479 0.07177 0.33983 0.0
C2 C 0.1948 0.12863 0.32504 0.0
C3 C 0.19969 0.12832 0.366 0.0
N4 N 0.13537 0.09309 0.30868 0.0
N5 N 0.14304 0.09279 0.3754 0.0
H6 H 1.05534 0.04298 0.33645 0.0
H7 H 0.23199 0.15407 0.30855 0.0
C8 C 0.20041 0.09896 0.20524 0.0
O9 O 0.15748 0.06342 0.17632 0.0
N10 N 1.06516 0.06754 0.19645 0.0
C11 C 0.07271 0.10706 0.17145 0.0
C12 C 1.04088 0.08139 0.13407 0.0
C13 C 1.028 1.01852 0.17391 0.0
N14 N 1.01334 1.02578 0.13577 0.0
C15 C 1.01509 0.96315 0.2586 0.0
C16 C 0.08368 0.92674 0.23216 0.0
C17 C 1.02011 0.88816 0.23058 0.0
C18 C 0.98671 0.90645 0.24663 0.0
C19 C 0.11034 0.98301 0.24475 0.0
N20 N 0.07468 1.00148 0.25387 0.0
H21 H 0.98693 0.97661 0.26763 0.0
H22 H 0.15902 1.01147 0.24524 0.0
H23 H 0.10174 0.15165 0.17918 0.0
H24 H 1.01515 0.97828 0.18377 0.0
O25 O 1.02751 0.07445 0.26467 0.0
O26 O 0.11208 0.15278 0.2541 0.0
O27 O 0.18563 0.10644 0.23812 0.0
C28 C 1.05525 0.12761 0.25992 0.0
H29 H 0.24192 0.15281 0.38714 0.0
H30 H 1.04238 0.10228 0.10705 0.0
H31 H 0.11228 0.91403 0.22237 0.0
H32 H 0.93781 0.87836 0.24691 0.0
Co33 Co 0.06963 1.0381 0.77509 0.0
C34 C 1.06458 1.03496 0.68653 0.0
C35 C 0.99572 0.04498 0.70469 0.0
C36 C 0.99157 0.0463 0.66377 0.0
N37 N 1.04105 1.03727 0.71894 0.0
N38 N 1.03503 0.04017 0.65237 0.0
H39 H 0.10283 1.03026 0.68768 0.0
H40 H 0.96827 0.0503 0.72297 0.0
C41 C 0.93449 0.93945 0.76132 0.0
O42 O 0.938 0.92672 0.72506 0.0
N43 N 0.09894 1.03937 0.83069 0.0
C44 C 0.15451 0.04901 0.84605 0.0
C45 C 0.15119 1.02822 0.88305 0.0
C46 C 1.06345 1.0146 0.85881 0.0
N47 N 0.0934 1.00572 0.89054 0.0
C48 C 0.1467 1.00323 0.75509 0.0
C49 C 0.08983 0.9053 0.79277 0.0
C50 C 0.151 0.92917 0.78735 0.0
C51 C 0.17815 0.97708 0.76618 0.0
C52 C 1.06016 0.93299 0.78155 0.0
N53 N 0.08982 0.98317 0.76496 0.0
H54 H 0.17162 0.04343 0.74309 0.0
H55 H 1.01669 0.91711 0.79133 0.0
H56 H 0.19331 0.06595 0.83025 0.0
H57 H 1.01609 1.00185 0.85565 0.0
O58 O 0.14829 0.10738 0.77183 0.0
O59 O 1.06599 0.10202 0.78683 0.0
O60 O 0.98225 0.97952 0.78357 0.0
C61 C 0.1235 0.13327 0.78256 0.0
H62 H 0.96045 0.05336 0.64417 0.0
H63 H 0.1874 1.02706 0.90184 0.0
H64 H 1.06709 0.86855 0.80923 0.0
H65 H 0.22511 0.99658 0.76083 0.0
Co66 Co 0.7649 0.39852 0.58327 0.0
C67 C 0.76654 0.39043 0.67102 0.0
C68 C 0.84688 0.3998 0.65343 0.0
C69 C 0.85115 0.39736 0.69432 0.0
N70 N 0.79399 0.39587 0.63877 0.0
N71 N 0.80063 0.3915 0.70539 0.0
H72 H 0.72304 0.38677 0.66964 0.0
H73 H 0.88032 0.40403 0.63586 0.0
C74 C 0.86377 0.41887 0.53547 0.0
O75 O 0.81995 0.38493 0.5062 0.0
N76 N 0.73491 0.40201 0.52856 0.0
C77 C 0.67713 0.36874 0.50819 0.0
C78 C 0.67068 0.39402 0.47496 0.0
C79 C 0.76212 0.44761 0.50785 0.0
N80 N 0.72408 0.44363 0.475 0.0
C81 C 0.67107 0.28137 0.57162 0.0
C82 C 0.74167 0.24447 0.54975 0.0
C83 C 0.67721 0.20775 0.54268 0.0
C84 C 0.64229 0.2262 0.55591 0.0
C85 C 0.76867 0.29967 0.5657 0.0
N86 N 0.73287 0.31888 0.57299 0.0
H87 H 0.64244 0.29448 0.58032 0.0
H88 H 0.81817 0.32678 0.57105 0.0
H89 H 0.64055 0.3304 0.51755 0.0
H90 H 0.8081 0.48394 0.51752 0.0
O91 O 0.69197 0.392 0.59717 0.0
O92 O 0.78022 0.47179 0.59503 0.0
O93 O 0.84965 0.42565 0.56884 0.0
C94 C 0.72225 0.44624 0.59833 0.0
H95 H 0.88832 0.39909 0.71428 0.0
H96 H 0.62989 0.37719 0.45247 0.0
H97 H 0.77094 0.23156 0.54153 0.0
H98 H 0.59268 0.19862 0.55316 0.0
Co99 Co 0.7401 0.4055 0.10603 0.0
C100 C 0.73757 0.38668 0.01959 0.0
C101 C 0.64755 0.35619 0.0334 0.0
C102 C 0.64297 0.34946 0.99262 0.0
N103 N 0.70675 0.37943 0.0503 0.0
N104 N 0.69957 0.3689 0.98385 0.0
H105 H 0.78703 0.40686 0.02321 0.0
H106 H 0.61048 0.3466 0.04937 0.0
C107 C 0.64398 0.32334 0.15436 0.0
O108 O 0.6885 0.33071 0.18231 0.0
N109 N 0.77418 0.43388 0.16138 0.0
C110 C 0.83267 0.45593 0.17988 0.0
C111 C 0.84215 0.48534 0.21496 0.0
C112 C 0.74965 0.45148 0.18507 0.0
N113 N 0.78997 0.48266 0.21794 0.0
C114 C 0.83203 0.37957 0.11026 0.0
C115 C 0.761 0.27093 0.13038 0.0
C116 C 0.82534 0.29779 0.13668 0.0
C117 C 0.86043 0.35169 0.12404 0.0
C118 C 0.73444 0.3006 0.11639 0.0
N119 N 0.77069 0.35609 0.1104 0.0
H120 H 0.8607 0.42192 0.10244 0.0
H121 H 0.68501 0.27908 0.11189 0.0
H122 H 0.8678 0.4544 0.16807 0.0
H123 H 0.70402 0.44372 0.1774 0.0
O124 O 0.81181 0.47295 0.09183 0.0
O125 O 0.72523 0.46467 0.09988 0.0
O126 O 0.65683 0.34672 0.12149 0.0
C127 C 0.78233 0.4972 0.09474 0.0
H128 H 0.60117 0.33233 0.97103 0.0
H129 H 0.8843 0.50728 0.23646 0.0
H130 H 0.73158 0.22843 0.13808 0.0
H131 H 0.90994 0.37315 0.12624 0.0
Co132 Co 0.43651 0.72977 0.91477 0.0
C133 C 0.44194 0.71857 1.00177 0.0
C134 C 0.53233 0.76989 0.98613 0.0
C135 C 0.53795 0.76862 0.02712 0.0
N136 N 0.47216 0.73848 0.97031 0.0
N137 N 0.48107 0.73657 0.03705 0.0
H138 H 0.39225 0.69314 0.99888 0.0
H139 H 0.56961 0.79328 0.96926 0.0
C140 C 0.52513 0.73354 0.86512 0.0
O141 O 0.47744 0.69174 0.8418 0.0
N142 N 0.4004 0.72277 0.85952 0.0
C143 C 0.34087 0.68891 0.84214 0.0
C144 C 0.33186 0.70939 0.80684 0.0
C145 C 0.42614 0.76378 0.83482 0.0
N146 N 0.38549 0.75665 0.80259 0.0
C147 C 0.3437 0.61241 0.91185 0.0
C148 C 0.41848 0.57398 0.90391 0.0
C149 C 0.35434 0.53568 0.89697 0.0
C150 C 0.31709 0.55536 0.90299 0.0
C151 C 0.44314 0.63083 0.91315 0.0
N152 N 0.40538 0.64999 0.91315 0.0
H153 H 0.31394 0.62648 0.91594 0.0
H154 H 0.49255 0.65932 0.9191 0.0
H155 H 0.30482 0.65415 0.85497 0.0
H156 H 0.4728 0.80014 0.84174 0.0
O157 O 0.3665 0.72773 0.92984 0.0
O158 O 0.45278 0.80422 0.91893 0.0
O159 O 0.51744 0.75131 0.89703 0.0
C160 C 0.39639 0.78108 0.92525 0.0
H161 H 0.58083 0.79018 0.04793 0.0
H162 H 0.2889 0.69148 0.78632 0.0
H163 H 0.44931 0.56031 0.90173 0.0
H164 H 0.26743 0.52743 0.8991 0.0
Co165 Co 0.40537 0.72047 0.43532 0.0
C166 C 0.40576 0.70384 0.3491 0.0
C167 C 0.31435 0.65526 0.36342 0.0
C168 C 0.31085 0.64789 0.32281 0.0
N169 N 0.37385 0.69039 0.37995 0.0
N170 N 0.36829 0.67871 0.31366 0.0
H171 H 0.45513 0.73302 0.35235 0.0
H172 H 0.27564 0.6371 0.37934 0.0
C173 C 0.30826 0.64137 0.48453 0.0
O174 O 0.35253 0.65034 0.51335 0.0
N175 N 0.43778 0.75263 0.48998 0.0
C176 C 0.49599 0.77609 0.50946 0.0
C177 C 0.50367 0.80657 0.54343 0.0
C178 C 0.41166 0.7706 0.51186 0.0
N179 N 0.45065 0.80316 0.54471 0.0
C180 C 0.4987 0.69596 0.44437 0.0
C181 C 0.42863 0.58865 0.46706 0.0
C182 C 0.49307 0.61591 0.47343 0.0
C183 C 0.52766 0.66915 0.45969 0.0
C184 C 0.40146 0.61725 0.45148 0.0
N185 N 0.43714 0.67218 0.44391 0.0
H186 H 0.52707 0.73769 0.43542 0.0
H187 H 0.35198 0.59531 0.44676 0.0
H188 H 0.53193 0.77429 0.49911 0.0
H189 H 0.36559 0.76148 0.50313 0.0
O190 O 0.47733 0.78668 0.42027 0.0
O191 O 0.38993 0.77884 0.42492 0.0
O192 O 0.32163 0.66286 0.45108 0.0
C193 C 0.44733 0.8109 0.42024 0.0
H194 H 0.26891 0.62208 0.30167 0.0
H195 H 0.54499 0.82923 0.5656 0.0
H196 H 0.39956 0.5466 0.47566 0.0
H197 H 0.57719 0.69083 0.4619 0.0
H198 H 0.24515 0.09291 0.1386 0.0
H199 H 0.30499 0.17549 0.25771 0.0
H200 H 0.35116 0.14531 0.12666 0.0
H201 H 0.41159 0.22874 0.24545 0.0
H202 H 0.60198 0.27433 0.22262 0.0
H203 H 0.49619 0.2196 0.23553 0.0
H204 H 0.43214 0.23928 0.11585 0.0
H205 H 0.53803 0.29347 0.10271 0.0
C206 C 0.28089 0.1222 0.16239 0.0
C207 C 0.26613 0.1298 0.19922 0.0
C208 C 0.34189 0.15267 0.15534 0.0
C209 C 0.39025 0.19168 0.18492 0.0
C210 C 0.37573 0.19875 0.22204 0.0
C211 C 0.31446 0.16832 0.22906 0.0
C212 C 0.5654 0.26681 0.1989 0.0
C213 C 0.57884 0.28831 0.16149 0.0
C214 C 0.50459 0.23571 0.20648 0.0
C215 C 0.45529 0.22492 0.17684 0.0
C216 C 0.4687 0.24609 0.13931 0.0
C217 C 0.52959 0.27744 0.13178 0.0
H218 H 0.93079 0.08015 0.25433 0.0
H219 H 0.10091 0.23601 0.24454 0.0
H220 H 0.87269 0.12061 0.22785 0.0
H221 H 1.04327 0.27586 0.21727 0.0
H222 H 0.92765 0.34833 0.19417 0.0
H223 H 0.98025 0.30816 0.22971 0.0
H224 H 0.84626 0.14807 0.16451 0.0
H225 H 0.79285 0.18844 0.12922 0.0
C226 C 0.95588 0.12338 0.2473 0.0
C227 C 1.02058 0.15488 0.25172 0.0
C228 C 0.92251 0.14636 0.23156 0.0
C229 C 0.95306 0.20142 0.21994 0.0
C230 C 1.01794 0.23358 0.22619 0.0
C231 C 1.05117 0.21066 0.24189 0.0
C232 C 0.90957 0.30462 0.18711 0.0
C233 C 0.85644 0.27187 0.15833 0.0
C234 C 0.93977 0.28149 0.20763 0.0
C235 C 0.91799 0.22486 0.19991 0.0
C236 C 0.86406 0.19168 0.17167 0.0
C237 C 0.83354 0.21486 0.15123 0.0
H238 H 0.90543 0.57577 0.09664 0.0
H239 H 0.73661 0.55707 0.1173 0.0
H240 H 0.96419 0.67114 0.12822 0.0
H241 H 0.79525 0.65227 0.14863 0.0
H242 H 0.92285 0.78881 0.25047 0.0
H243 H 0.86537 0.69773 0.21252 0.0
H244 H 0.98613 0.76667 0.12423 0.0
H245 H 1.04326 0.85797 0.16185 0.0
C246 C 0.88065 0.59248 0.10685 0.0
C247 C 0.8162 0.55862 0.10432 0.0
C248 C 0.91442 0.64715 0.12516 0.0
C249 C 0.88458 0.66913 0.14163 0.0
C250 C 0.81986 0.63633 0.13702 0.0
C251 C 0.78612 0.58191 0.1185 0.0
C252 C 0.93716 0.78474 0.22293 0.0
C253 C 0.98797 0.83105 0.20943 0.0
C254 C 0.90399 0.73245 0.20104 0.0
C255 C 0.92069 0.72488 0.16505 0.0
C256 C 0.97222 0.77082 0.15194 0.0
C257 C 1.00526 0.82319 0.17374 0.0
H258 H 0.24917 0.20742 0.79283 0.0
H259 H 0.08001 0.19682 0.7998 0.0
H260 H 0.30837 0.30473 0.82112 0.0
H261 H 0.13868 0.29375 0.82715 0.0
H262 H 0.25457 0.44135 0.91914 0.0
H263 H 0.20154 0.34586 0.88944 0.0
H264 H 0.33573 0.39966 0.81017 0.0
H265 H 0.38908 0.49546 0.84012 0.0
C266 C 0.22463 0.22613 0.79971 0.0
C267 C 0.15987 0.19426 0.79423 0.0
C268 C 0.25855 0.28191 0.81596 0.0
C269 C 0.22839 0.30696 0.8271 0.0
C270 C 0.16358 0.27555 0.81995 0.0
C271 C 0.12984 0.22001 0.80385 0.0
C272 C 0.27287 0.4329 0.8954 0.0
C273 C 0.3259 0.47631 0.88188 0.0
C274 C 0.24229 0.37808 0.87821 0.0
C275 C 0.2637 0.36501 0.84689 0.0
C276 C 0.31804 0.40803 0.83432 0.0
C277 C 0.34876 0.463 0.85161 0.0
H278 H 0.62735 0.83808 0.89053 0.0
H279 H 0.5626 0.69292 0.81092 0.0
H280 H 0.72503 0.88683 0.86533 0.0
H281 H 0.66105 0.7403 0.78701 0.0
H282 H 0.81947 0.85873 0.72128 0.0
H283 H 0.72216 0.80913 0.74699 0.0
H284 H 0.81797 0.8959 0.86375 0.0
H285 H 0.91359 0.94736 0.8374 0.0
C286 C 0.6344 0.81618 0.86816 0.0
C287 C 0.58701 0.76157 0.85278 0.0
C288 C 0.6907 0.84409 0.85369 0.0
C289 C 0.70161 0.8179 0.8238 0.0
C290 C 0.65445 0.76264 0.80927 0.0
C291 C 0.59794 0.73511 0.82333 0.0
C292 C 0.81975 0.86717 0.75244 0.0
C293 C 0.87498 0.90711 0.77719 0.0
C294 C 0.76377 0.83834 0.7674 0.0
C295 C 0.76145 0.84812 0.8077 0.0
C296 C 0.817 0.88761 0.83243 0.0
C297 C 0.87256 0.91689 0.81734 0.0
H298 H 0.26644 0.9917 0.83104 0.0
H299 H 0.11942 0.82084 0.79288 0.0
H300 H 0.32534 0.95963 0.87004 0.0
H301 H 0.17907 0.7884 0.83106 0.0
H302 H 0.27503 0.74052 0.92757 0.0
H303 H 0.21599 0.77774 0.89635 0.0
H304 H 0.38258 0.92001 0.86485 0.0
H305 H 0.44147 0.88398 0.89733 0.0
C306 C 0.24721 0.94721 0.83031 0.0
C307 C 0.18847 0.90886 0.80839 0.0
C308 C 0.28098 0.92872 0.85286 0.0
C309 C 0.25724 0.87127 0.85397 0.0
C310 C 0.19857 0.8329 0.83171 0.0
C311 C 0.16449 0.85145 0.80944 0.0
C312 C 0.29926 0.78057 0.91501 0.0
C313 C 0.36309 0.80931 0.91518 0.0
C314 C 0.26523 0.80152 0.89646 0.0
C315 C 0.29409 0.85157 0.87734 0.0
C316 C 0.3585 0.88167 0.87945 0.0
C317 C 0.39251 0.86097 0.89826 0.0
H318 H 0.90765 0.41523 0.46763 0.0
H319 H 0.96903 0.49312 0.58827 0.0
H320 H 1.01361 0.46724 0.45547 0.0
H321 H 0.07548 0.54622 0.5758 0.0
H322 H 0.26511 0.59193 0.55245 0.0
H323 H 0.15924 0.53792 0.56506 0.0
H324 H 0.09664 0.55959 0.44559 0.0
H325 H 0.20272 0.61292 0.43272 0.0
C326 C 0.94373 0.44344 0.49169 0.0
C327 C 0.9294 0.44971 0.52904 0.0
C328 C 1.00475 0.47376 0.48453 0.0
C329 C 1.05362 0.51139 0.51449 0.0
C330 C 1.03938 0.51728 0.55205 0.0
C331 C 0.97816 0.48694 0.5592 0.0
C332 C 0.22885 0.58503 0.5287 0.0
C333 C 0.24284 0.60678 0.49142 0.0
C334 C 0.16791 0.55431 0.53611 0.0
C335 C 0.11887 0.54422 0.50647 0.0
C336 C 0.13284 0.56573 0.46907 0.0
C337 C 0.1939 0.5966 0.46168 0.0
H338 H 0.76976 0.55529 0.58322 0.0
H339 H 0.59883 0.40127 0.59488 0.0
H340 H 0.71284 0.59579 0.55561 0.0
H341 H 0.54167 0.44231 0.56815 0.0
H342 H 0.46078 0.50656 0.46823 0.0
H343 H 0.51493 0.46747 0.5043 0.0
H344 H 0.65034 0.62958 0.56629 0.0
H345 H 0.59684 0.66852 0.52996 0.0
C346 C 0.72009 0.53061 0.58112 0.0
C347 C 0.689 0.475 0.59141 0.0
C348 C 0.68725 0.55384 0.56511 0.0
C349 C 0.62235 0.5222 0.55907 0.0
C350 C 0.59147 0.46761 0.57153 0.0
C351 C 0.62436 0.44432 0.58747 0.0
C352 C 0.50188 0.53372 0.48974 0.0
C353 C 0.52476 0.59087 0.49574 0.0
C354 C 0.53289 0.51128 0.51062 0.0
C355 C 0.58736 0.54532 0.53828 0.0
C356 C 0.60936 0.6022 0.54477 0.0
C357 C 0.57861 0.6246 0.52381 0.0
H358 H 0.4003 0.87291 0.43475 0.0
H359 H 0.57078 0.88845 0.42335 0.0
H360 H 0.45766 0.97006 0.46153 0.0
H361 H 0.62835 0.9863 0.44934 0.0
H362 H 0.70922 0.13031 0.54879 0.0
H363 H 0.65502 1.03761 0.51317 0.0
H364 H 0.52074 0.06619 0.44959 0.0
H365 H 0.57435 0.15815 0.48539 0.0
C366 C 0.44995 0.89752 0.43676 0.0
C367 C 0.48079 0.87272 0.42677 0.0
C368 C 0.48303 0.95343 0.45227 0.0
C369 C 0.54792 0.98618 0.45815 0.0
C370 C 0.57856 0.96218 0.44602 0.0
C371 C 0.54543 0.9062 0.43052 0.0
C372 C 0.66841 0.11694 0.52699 0.0
C373 C 0.64582 0.15155 0.52041 0.0
C374 C 0.63736 0.06379 0.50638 0.0
C375 C 0.58315 0.04403 0.47848 0.0
C376 C 0.56152 0.0793 0.47134 0.0
C377 C 0.59233 0.13216 0.49199 0.0
H378 H 0.95699 1.0125 0.58218 0.0
H379 H 0.14591 0.07411 0.63158 0.0
H380 H 0.98265 1.02278 0.51482 0.0
H381 H 0.17112 0.08274 0.56426 0.0
H382 H 0.20794 0.15994 0.44399 0.0
H383 H 0.18115 0.14319 0.51064 0.0
H384 H 1.01397 0.98568 0.46468 0.0
H385 H 1.04107 1.00217 0.39759 0.0
C386 C 1.00394 1.02802 0.57871 0.0
C387 C 1.04942 0.0428 0.61242 0.0
C388 C 1.0185 1.03334 0.54003 0.0
C389 C 0.07902 0.05382 0.53409 0.0
C390 C 0.1242 0.06747 0.56776 0.0
C391 C 0.10958 0.06193 0.60641 0.0
C392 C 0.16587 0.12129 0.44793 0.0
C393 C 0.12689 0.08234 0.41513 0.0
C394 C 0.15047 0.1117 0.48633 0.0
C395 C 0.09555 0.06297 0.49312 0.0
C396 C 1.05636 1.02394 0.46043 0.0
C397 C 0.07189 1.03345 0.42191 0.0
H398 H 0.79402 0.36646 0.962 0.0
H399 H 0.64216 0.38171 0.91569 0.0
H400 H 0.81899 0.37106 0.89459 0.0
H401 H 0.66738 0.3873 0.84881 0.0
H402 H 0.68758 0.33859 0.72755 0.0
H403 H 0.66407 0.33263 0.79517 0.0
H404 H 0.85877 0.43136 0.84237 0.0
H405 H 0.88202 0.43638 0.77471 0.0
C406 C 0.76632 0.37127 0.93752 0.0
C407 C 0.71576 0.37318 0.94428 0.0
C408 C 0.78063 0.37402 0.89882 0.0
C409 C 0.74497 0.37916 0.86595 0.0
C410 C 0.69505 0.38197 0.87301 0.0
C411 C 0.68058 0.37886 0.91153 0.0
C412 C 0.72535 0.3593 0.75231 0.0
C413 C 0.78668 0.388 0.74556 0.0
C414 C 0.71193 0.35598 0.79121 0.0
C415 C 0.75948 0.38166 0.8245 0.0
C416 C 0.82086 0.41027 0.81769 0.0
C417 C 0.83425 0.41326 0.77878 0.0
H418 H 0.47947 0.71085 0.29381 0.0
H419 H 0.29542 0.66345 0.24296 0.0
H420 H 0.50735 0.72346 0.22695 0.0
H421 H 0.32316 0.67582 0.17647 0.0
H422 H 0.37552 0.65063 0.05912 0.0
H423 H 0.34879 0.63539 0.12619 0.0
H424 H 0.5244 0.78489 0.1732 0.0
H425 H 0.55104 0.80029 0.10633 0.0
C426 C 0.445 0.70337 0.26853 0.0
C427 C 0.38506 0.68587 0.27405 0.0
C428 C 0.46099 0.71059 0.23011 0.0
C429 C 0.41745 0.70047 0.19619 0.0
C430 C 0.35759 0.68298 0.20174 0.0
C431 C 0.34165 0.67585 0.24006 0.0
C432 C 0.40835 0.68047 0.08364 0.0
C433 C 0.46552 0.72673 0.077 0.0
C434 C 0.39301 0.67171 0.12221 0.0
C435 C 0.43442 0.7089 0.15523 0.0
C436 C 0.49174 0.75486 0.14865 0.0
C437 C 0.50704 0.76369 0.11012 0.0
H438 H 0.94519 1.01838 0.066 0.0
H439 H 1.03588 0.94463 0.1293 0.0
H440 H 0.9432 0.97676 1.0029 0.0
H441 H 1.03426 0.90342 0.06631 0.0
H442 H 0.15478 1.01567 0.96442 0.0
H443 H 0.10923 0.98261 0.02445 0.0
H444 H 0.92718 0.89713 0.95395 0.0
H445 H 0.97277 0.92783 0.89336 0.0
C446 C 0.96206 0.99119 0.06646 0.0
C447 C 0.99234 0.98618 0.10212 0.0
C448 C 0.96036 0.9668 0.0305 0.0
C449 C 0.98991 0.93803 0.02995 0.0
C450 C 1.01162 0.9258 0.06615 0.0
C451 C 1.0126 0.9496 0.10217 0.0
C452 C 0.10521 0.98802 0.96142 0.0
C453 C 1.06742 0.97656 0.92441 0.0
C454 C 0.079 0.96856 0.9958 0.0
C455 C 1.01466 0.9379 0.99366 0.0
C456 C 0.97688 0.92105 0.95622 0.0
C457 C 1.00313 0.93975 0.92175 0.0
H458 H 0.87145 0.57655 0.26656 0.0
H459 H 0.68158 0.43746 0.24425 0.0
H460 H 0.85737 0.59862 0.33208 0.0
H461 H 0.66753 0.45814 0.30924 0.0
H462 H 0.83419 0.50526 0.45064 0.0
H463 H 0.85154 0.54443 0.38674 0.0
H464 H 0.66588 0.50712 0.36464 0.0
H465 H 0.64831 0.46615 0.42882 0.0
C466 C 0.82642 0.5515 0.27539 0.0
C467 C 0.77816 0.50415 0.25114 0.0
C468 C 0.81821 0.56428 0.3127 0.0
C469 C 0.76191 0.52925 0.32645 0.0
C470 C 0.7116 0.4863 0.29984 0.0
C471 C 0.71969 0.47397 0.26248 0.0
C472 C 0.7979 0.50738 0.43286 0.0
C473 C 0.73924 0.48088 0.44377 0.0
C474 C 0.8079 0.53032 0.39615 0.0
C475 C 0.75934 0.52732 0.3699 0.0
C476 C 0.70355 0.50844 0.38368 0.0
C477 C 0.69335 0.4848 0.42024 0.0
H478 H 0.34054 0.75474 0.56923 0.0
H479 H 0.52833 0.89735 0.59378 0.0
H480 H 0.32417 0.77166 0.63452 0.0
H481 H 0.51179 0.91561 0.65957 0.0
H482 H 0.49315 0.81754 0.77505 0.0
H483 H 0.50796 0.85779 0.71151 0.0
H484 H 0.32057 0.81621 0.69214 0.0
H485 H 0.30569 0.77468 0.75623 0.0
C486 C 0.37755 0.79131 0.58797 0.0
C487 C 0.43638 0.82344 0.57725 0.0
C488 C 0.36811 0.80142 0.62552 0.0
C489 C 0.4174 0.844 0.65286 0.0
C490 C 0.47351 0.88141 0.63959 0.0
C491 C 0.48312 0.87085 0.60211 0.0
C492 C 0.45575 0.81864 0.75792 0.0
C493 C 0.39764 0.79123 0.76976 0.0
C494 C 0.46434 0.84231 0.72146 0.0
C495 C 0.41489 0.8391 0.6962 0.0
C496 C 0.35904 0.81803 0.7105 0.0
C497 C 0.35033 0.79385 0.74694 0.0
loop_
_geom_bond_atom_site_label_1
_geom_bond_atom_site_label_2
_geom_bond_distance
_geom_bond_site_symmetry_2
_ccdc_geom_bond_type
Co0 N4 2.148 . S
Co0 N10 2.128 . S
Co0 N20 2.194 1_445 S
Co0 O25 2.351 1_455 S
Co0 O26 2.155 . S
Co0 O27 2.096 . S
C1 N4 1.301 . S
C1 N5 1.328 . S
C1 H6 0.930 1_455 S
C2 C3 1.333 . S
C2 N4 1.317 . S
C2 H7 0.930 . S
C3 C2 1.333 . S
C3 N5 1.350 . S
C3 H29 0.931 . S
N4 Co0 2.148 . S
N4 C1 1.301 . S
N4 C2 1.317 . S
N5 C1 1.328 . S
N5 C3 1.350 . S
H6 C1 0.930 1_655 S
H7 C2 0.930 . S
C8 O9 1.224 . S
C8 O27 1.247 . S
O9 C8 1.224 . S
N10 Co0 2.128 . S
N10 C11 1.355 1_445 S
N10 C13 1.311 . S
C11 N10 1.355 1_665 S
C11 C12 1.363 . S
C11 H23 0.929 . S
C12 C11 1.363 . S
C12 N14 1.375 1_665 S
C12 H30 0.931 . S
C13 N10 1.311 . S
C13 N14 1.347 . S
C13 H24 0.929 . S
N14 C12 1.375 1_445 S
N14 C13 1.347 . S
C15 C18 1.365 . S
C15 N20 1.328 . S
C15 H21 0.929 . S
C16 C17 1.362 . S
C16 C19 1.378 1_655 S
C16 H31 0.929 1_655 S
C17 C16 1.362 . S
C17 C18 1.366 . S
C18 C15 1.365 . S
C18 C17 1.366 . S
C18 H32 0.930 . S
C19 C16 1.378 1_455 S
C19 N20 1.315 1_455 S
C19 H22 0.930 . S
N20 Co0 2.194 1_665 S
N20 C15 1.328 . S
N20 C19 1.315 1_655 S
H21 C15 0.929 . S
H22 C19 0.930 . S
H23 C11 0.929 . S
H24 C13 0.929 . S
O25 Co0 2.351 1_655 S
O25 C28 1.244 . S
O26 Co0 2.155 . S
O26 C28 1.240 1_455 S
O27 Co0 2.096 . S
O27 C8 1.247 . S
C28 O25 1.244 . S
C28 O26 1.240 1_655 S
H29 C3 0.931 . S
H30 C12 0.931 . S
H31 C16 0.929 1_455 S
H32 C18 0.930 . S
Co33 N37 2.148 1_455 S
Co33 N43 2.128 . S
Co33 N53 2.194 1_545 S
Co33 O58 2.351 . S
Co33 O59 2.155 . S
Co33 O60 2.096 1_445 S
C34 N37 1.301 1_455 S
C34 N38 1.328 1_455 S
C34 H39 0.930 . S
C35 C36 1.333 . S
C35 N37 1.317 1_565 S
C35 H40 0.930 . S
C36 C35 1.333 . S
C36 N38 1.350 1_565 S
C36 H62 0.931 . S
N37 Co33 2.148 1_655 S
N37 C34 1.301 1_655 S
N37 C35 1.317 1_545 S
N38 C34 1.328 1_655 S
N38 C36 1.350 1_545 S
H39 C34 0.930 . S
H40 C35 0.930 . S
C41 O42 1.224 . S
C41 O60 1.247 . S
O42 C41 1.224 . S
N43 Co33 2.128 . S
N43 C44 1.355 . S
N43 C46 1.311 1_455 S
C44 N43 1.355 . S
C44 C45 1.363 . S
C44 H56 0.929 . S
C45 C44 1.363 . S
C45 N47 1.375 . S
C45 H63 0.931 . S
C46 N43 1.311 1_655 S
C46 N47 1.347 1_655 S
C46 H57 0.929 1_545 S
N47 C45 1.375 . S
N47 C46 1.347 1_455 S
C48 C51 1.365 1_545 S
C48 N53 1.328 1_545 S
C48 H54 0.929 . S
C49 C50 1.362 . S
C49 C52 1.378 . S
C49 H64 0.929 . S
C50 C49 1.362 . S
C50 C51 1.366 . S
C51 C48 1.365 1_565 S
C51 C50 1.366 . S
C51 H65 0.930 . S
C52 C49 1.378 . S
C52 N53 1.315 . S
C52 H55 0.930 1_455 S
N53 Co33 2.194 1_565 S
N53 C48 1.328 1_565 S
N53 C52 1.315 . S
H54 C48 0.929 . S
H55 C52 0.930 1_655 S
H56 C44 0.929 . S
H57 C46 0.929 1_565 S
O58 Co33 2.351 . S
O58 C61 1.244 . S
O59 Co33 2.155 . S
O59 C61 1.240 . S
O60 Co33 2.096 1_665 S
O60 C41 1.247 . S
C61 O58 1.244 . S
C61 O59 1.240 . S
H62 C36 0.931 . S
H63 C45 0.931 . S
H64 C49 0.929 . S
H65 C51 0.930 . S
Co66 N70 2.148 . S
Co66 N76 2.128 . S
Co66 N86 2.194 . S
Co66 O91 2.351 . S
Co66 O92 2.155 . S
Co66 O93 2.096 . S
C67 N70 1.301 . S
C67 N71 1.328 . S
C67 H72 0.930 . S
C68 C69 1.333 . S
C68 N70 1.317 . S
C68 H73 0.930 . S
C69 C68 1.333 . S
C69 N71 1.350 . S
C69 H95 0.931 . S
N70 Co66 2.148 . S
N70 C67 1.301 . S
N70 C68 1.317 . S
N71 C67 1.328 . S
N71 C69 1.350 . S
H72 C67 0.930 . S
H73 C68 0.930 . S
C74 O75 1.224 . S
C74 O93 1.247 . S
O75 C74 1.224 . S
N76 Co66 2.128 . S
N76 C77 1.355 . S
N76 C79 1.311 . S
C77 N76 1.355 . S
C77 C78 1.363 . S
C77 H89 0.929 . S
C78 C77 1.363 . S
C78 N80 1.375 . S
C78 H96 0.931 . S
C79 N76 1.311 . S
C79 N80 1.347 . S
C79 H90 0.929 . S
N80 C78 1.375 . S
N80 C79 1.347 . S
C81 C84 1.365 . S
C81 N86 1.328 . S
C81 H87 0.929 . S
C82 C83 1.362 . S
C82 C85 1.378 . S
C82 H97 0.929 . S
C83 C82 1.362 . S
C83 C84 1.366 . S
C84 C81 1.365 . S
C84 C83 1.366 . S
C84 H98 0.930 . S
C85 C82 1.378 . S
C85 N86 1.315 . S
C85 H88 0.930 . S
N86 Co66 2.194 . S
N86 C81 1.328 . S
N86 C85 1.315 . S
H87 C81 0.929 . S
H88 C85 0.930 . S
H89 C77 0.929 . S
H90 C79 0.929 . S
O91 Co66 2.351 . S
O91 C94 1.244 . S
O92 Co66 2.155 . S
O92 C94 1.240 . S
O93 Co66 2.096 . S
O93 C74 1.247 . S
C94 O91 1.244 . S
C94 O92 1.240 . S
H95 C69 0.931 . S
H96 C78 0.931 . S
H97 C82 0.929 . S
H98 C84 0.930 . S
Co99 N103 2.148 . S
Co99 N109 2.128 . S
Co99 N119 2.194 . S
Co99 O124 2.351 . S
Co99 O125 2.155 . S
Co99 O126 2.096 . S
C100 N103 1.301 . S
C100 N104 1.328 1_554 S
C100 H105 0.930 . S
C101 C102 1.333 1_554 S
C101 N103 1.317 . S
C101 H106 0.930 . S
C102 C101 1.333 1_556 S
C102 N104 1.350 . S
C102 H128 0.931 . S
N103 Co99 2.148 . S
N103 C100 1.301 . S
N103 C101 1.317 . S
N104 C100 1.328 1_556 S
N104 C102 1.350 . S
H105 C100 0.930 . S
H106 C101 0.930 . S
C107 O108 1.224 . S
C107 O126 1.247 . S
O108 C107 1.224 . S
N109 Co99 2.128 . S
N109 C110 1.355 . S
N109 C112 1.311 . S
C110 N109 1.355 . S
C110 C111 1.363 . S
C110 H122 0.929 . S
C111 C110 1.363 . S
C111 N113 1.375 . S
C111 H129 0.931 . S
C112 N109 1.311 . S
C112 N113 1.347 . S
C112 H123 0.929 . S
N113 C111 1.375 . S
N113 C112 1.347 . S
C114 C117 1.365 . S
C114 N119 1.328 . S
C114 H120 0.929 . S
C115 C116 1.362 . S
C115 C118 1.378 . S
C115 H130 0.929 . S
C116 C115 1.362 . S
C116 C117 1.366 . S
C117 C114 1.365 . S
C117 C116 1.366 . S
C117 H131 0.930 . S
C118 C115 1.378 . S
C118 N119 1.315 . S
C118 H121 0.930 . S
N119 Co99 2.194 . S
N119 C114 1.328 . S
N119 C118 1.315 . S
H120 C114 0.929 . S
H121 C118 0.930 . S
H122 C110 0.929 . S
H123 C112 0.929 . S
O124 Co99 2.351 . S
O124 C127 1.244 . S
O125 Co99 2.155 . S
O125 C127 1.240 . S
O126 Co99 2.096 . S
O126 C107 1.247 . S
C127 O124 1.244 . S
C127 O125 1.240 . S
H128 C102 0.931 . S
H129 C111 0.931 . S
H130 C115 0.929 . S
H131 C117 0.930 . S
Co132 N136 2.148 . S
Co132 N142 2.128 . S
Co132 N152 2.194 . S
Co132 O157 2.351 . S
Co132 O158 2.155 . S
Co132 O159 2.096 . S
C133 N136 1.301 . S
C133 N137 1.328 1_556 S
C133 H138 0.930 . S
C134 C135 1.333 1_556 S
C134 N136 1.317 . S
C134 H139 0.930 . S
C135 C134 1.333 1_554 S
C135 N137 1.350 . S
C135 H161 0.931 . S
N136 Co132 2.148 . S
N136 C133 1.301 . S
N136 C134 1.317 . S
N137 C133 1.328 1_554 S
N137 C135 1.350 . S
H138 C133 0.930 . S
H139 C134 0.930 . S
C140 O141 1.224 . S
C140 O159 1.247 . S
O141 C140 1.224 . S
N142 Co132 2.128 . S
N142 C143 1.355 . S
N142 C145 1.311 . S
C143 N142 1.355 . S
C143 C144 1.363 . S
C143 H155 0.929 . S
C144 C143 1.363 . S
C144 N146 1.375 . S
C144 H162 0.931 . S
C145 N142 1.311 . S
C145 N146 1.347 . S
C145 H156 0.929 . S
N146 C144 1.375 . S
N146 C145 1.347 . S
C147 C150 1.365 . S
C147 N152 1.328 . S
C147 H153 0.929 . S
C148 C149 1.362 . S
C148 C151 1.378 . S
C148 H163 0.929 . S
C149 C148 1.362 . S
C149 C150 1.366 . S
C150 C147 1.365 . S
C150 C149 1.366 . S
C150 H164 0.930 . S
C151 C148 1.378 . S
C151 N152 1.315 . S
C151 H154 0.930 . S
N152 Co132 2.194 . S
N152 C147 1.328 . S
N152 C151 1.315 . S
H153 C147 0.929 . S
H154 C151 0.930 . S
H155 C143 0.929 . S
H156 C145 0.929 . S
O157 Co132 2.351 . S
O157 C160 1.244 . S
O158 Co132 2.155 . S
O158 C160 1.240 . S
O159 Co132 2.096 . S
O159 C140 1.247 . S
C160 O157 1.244 . S
C160 O158 1.240 . S
H161 C135 0.931 . S
H162 C144 0.931 . S
H163 C148 0.929 . S
H164 C150 0.930 . S
Co165 N169 2.148 . S
Co165 N175 2.128 . S
Co165 N185 2.194 . S
Co165 O190 2.351 . S
Co165 O191 2.155 . S
Co165 O192 2.096 . S
C166 N169 1.301 . S
C166 N170 1.328 . S
C166 H171 0.930 . S
C167 C168 1.333 . S
C167 N169 1.317 . S
C167 H172 0.930 . S
C168 C167 1.333 . S
C168 N170 1.350 . S
C168 H194 0.931 . S
N169 Co165 2.148 . S
N169 C166 1.301 . S
N169 C167 1.317 . S
N170 C166 1.328 . S
N170 C168 1.350 . S
H171 C166 0.930 . S
H172 C167 0.930 . S
C173 O174 1.224 . S
C173 O192 1.247 . S
O174 C173 1.224 . S
N175 Co165 2.128 . S
N175 C176 1.355 . S
N175 C178 1.311 . S
C176 N175 1.355 . S
C176 C177 1.363 . S
C176 H188 0.929 . S
C177 C176 1.363 . S
C177 N179 1.375 . S
C177 H195 0.931 . S
C178 N175 1.311 . S
C178 N179 1.347 . S
C178 H189 0.929 . S
N179 C177 1.375 . S
N179 C178 1.347 . S
C180 C183 1.365 . S
C180 N185 1.328 . S
C180 H186 0.929 . S
C181 C182 1.362 . S
C181 C184 1.378 . S
C181 H196 0.929 . S
C182 C181 1.362 . S
C182 C183 1.366 . S
C183 C180 1.365 . S
C183 C182 1.366 . S
C183 H197 0.930 . S
C184 C181 1.378 . S
C184 N185 1.315 . S
C184 H187 0.930 . S
N185 Co165 2.194 . S
N185 C180 1.328 . S
N185 C184 1.315 . S
H186 C180 0.929 . S
H187 C184 0.930 . S
H188 C176 0.929 . S
H189 C178 0.929 . S
O190 Co165 2.351 . S
O190 C193 1.244 . S
O191 Co165 2.155 . S
O191 C193 1.240 . S
O192 Co165 2.096 . S
O192 C173 1.247 . S
C193 O190 1.244 . S
C193 O191 1.240 . S
H194 C168 0.931 . S
H195 C177 0.931 . S
H196 C181 0.929 . S
H197 C183 0.930 . S
H198 C206 0.950 . S
H199 C211 0.950 . S
H200 C208 0.950 . S
H201 C210 0.950 . S
H202 C212 0.950 . S
H203 C214 0.950 . S
H204 C216 0.950 . S
H205 C217 0.950 . S
C206 H198 0.950 . S
C206 C207 1.386 . S
C206 C208 1.391 . S
C207 C206 1.386 . S
C207 C211 1.393 . S
C208 H200 0.950 . S
C208 C206 1.391 . S
C208 C209 1.400 . S
C209 C208 1.400 . S
C209 C210 1.398 . S
C209 C215 1.491 . S
C210 H201 0.950 . S
C210 C209 1.398 . S
C210 C211 1.391 . S
C211 H199 0.950 . S
C211 C207 1.393 . S
C211 C210 1.391 . S
C212 H202 0.950 . S
C212 C213 1.386 . S
C212 C214 1.391 . S
C213 C212 1.386 . S
C213 C217 1.393 . S
C214 H203 0.950 . S
C214 C212 1.391 . S
C214 C215 1.400 . S
C215 C209 1.491 . S
C215 C214 1.400 . S
C215 C216 1.398 . S
C216 H204 0.950 . S
C216 C215 1.398 . S
C216 C217 1.391 . S
C217 H205 0.950 . S
C217 C213 1.393 . S
C217 C216 1.391 . S
H218 C226 0.950 . S
H219 C231 0.950 . S
H220 C228 0.950 . S
H221 C230 0.950 . S
H222 C232 0.950 . S
H223 C234 0.950 . S
H224 C236 0.950 . S
H225 C237 0.950 . S
C226 H218 0.950 . S
C226 C227 1.386 . S
C226 C228 1.391 . S
C227 C226 1.386 . S
C227 C231 1.393 . S
C228 H220 0.950 . S
C228 C226 1.391 . S
C228 C229 1.400 . S
C229 C228 1.400 . S
C229 C230 1.398 . S
C229 C235 1.491 . S
C230 H221 0.950 . S
C230 C229 1.398 . S
C230 C231 1.391 . S
C231 H219 0.950 . S
C231 C227 1.393 . S
C231 C230 1.391 . S
C232 H222 0.950 . S
C232 C233 1.386 . S
C232 C234 1.391 . S
C233 C232 1.386 . S
C233 C237 1.393 . S
C234 H223 0.950 . S
C234 C232 1.391 . S
C234 C235 1.400 . S
C235 C229 1.491 . S
C235 C234 1.400 . S
C235 C236 1.398 . S
C236 H224 0.950 . S
C236 C235 1.398 . S
C236 C237 1.391 . S
C237 H225 0.950 . S
C237 C233 1.393 . S
C237 C236 1.391 . S
H238 C246 0.950 . S
H239 C251 0.950 . S
H240 C248 0.950 . S
H241 C250 0.950 . S
H242 C252 0.950 . S
H243 C254 0.950 . S
H244 C256 0.950 . S
H245 C257 0.950 . S
C246 H238 0.950 . S
C246 C247 1.386 . S
C246 C248 1.391 . S
C247 C246 1.386 . S
C247 C251 1.393 . S
C248 H240 0.950 . S
C248 C246 1.391 . S
C248 C249 1.400 . S
C249 C248 1.400 . S
C249 C250 1.398 . S
C249 C255 1.491 . S
C250 H241 0.950 . S
C250 C249 1.398 . S
C250 C251 1.391 . S
C251 H239 0.950 . S
C251 C247 1.393 . S
C251 C250 1.391 . S
C252 H242 0.950 . S
C252 C253 1.386 . S
C252 C254 1.391 . S
C253 C252 1.386 . S
C253 C257 1.393 . S
C254 H243 0.950 . S
C254 C252 1.391 . S
C254 C255 1.400 . S
C255 C249 1.491 . S
C255 C254 1.400 . S
C255 C256 1.398 . S
C256 H244 0.950 . S
C256 C255 1.398 . S
C256 C257 1.391 . S
C257 H245 0.950 . S
C257 C253 1.393 . S
C257 C256 1.391 . S
H258 C266 0.950 . S
H259 C271 0.950 . S
H260 C268 0.950 . S
H261 C270 0.950 . S
H262 C272 0.950 . S
H263 C274 0.950 . S
H264 C276 0.950 . S
H265 C277 0.950 . S
C266 H258 0.950 . S
C266 C267 1.386 . S
C266 C268 1.391 . S
C267 C266 1.386 . S
C267 C271 1.393 . S
C268 H260 0.950 . S
C268 C266 1.391 . S
C268 C269 1.400 . S
C269 C268 1.400 . S
C269 C270 1.398 . S
C269 C275 1.491 . S
C270 H261 0.950 . S
C270 C269 1.398 . S
C270 C271 1.391 . S
C271 H259 0.950 . S
C271 C267 1.393 . S
C271 C270 1.391 . S
C272 H262 0.950 . S
C272 C273 1.386 . S
C272 C274 1.391 . S
C273 C272 1.386 . S
C273 C277 1.393 . S
C274 H263 0.950 . S
C274 C272 1.391 . S
C274 C275 1.400 . S
C275 C269 1.491 . S
C275 C274 1.400 . S
C275 C276 1.398 . S
C276 H264 0.950 . S
C276 C275 1.398 . S
C276 C277 1.391 . S
C277 H265 0.950 . S
C277 C273 1.393 . S
C277 C276 1.391 . S
H278 C286 0.950 . S
H279 C291 0.950 . S
H280 C288 0.950 . S
H281 C290 0.950 . S
H282 C292 0.950 . S
H283 C294 0.950 . S
H284 C296 0.950 . S
H285 C297 0.950 . S
C286 H278 0.950 . S
C286 C287 1.386 . S
C286 C288 1.391 . S
C287 C286 1.386 . S
C287 C291 1.393 . S
C288 H280 0.950 . S
C288 C286 1.391 . S
C288 C289 1.400 . S
C289 C288 1.400 . S
C289 C290 1.398 . S
C289 C295 1.491 . S
C290 H281 0.950 . S
C290 C289 1.398 . S
C290 C291 1.391 . S
C291 H279 0.950 . S
C291 C287 1.393 . S
C291 C290 1.391 . S
C292 H282 0.950 . S
C292 C293 1.386 . S
C292 C294 1.391 . S
C293 C292 1.386 . S
C293 C297 1.393 . S
C294 H283 0.950 . S
C294 C292 1.391 . S
C294 C295 1.400 . S
C295 C289 1.491 . S
C295 C294 1.400 . S
C295 C296 1.398 . S
C296 H284 0.950 . S
C296 C295 1.398 . S
C296 C297 1.391 . S
C297 H285 0.950 . S
C297 C293 1.393 . S
C297 C296 1.391 . S
H298 C306 0.950 . S
H299 C311 0.950 . S
H300 C308 0.950 . S
H301 C310 0.950 . S
H302 C312 0.950 . S
H303 C314 0.950 . S
H304 C316 0.950 . S
H305 C317 0.950 . S
C306 H298 0.950 . S
C306 C307 1.386 . S
C306 C308 1.391 . S
C307 C306 1.386 . S
C307 C311 1.393 . S
C308 H300 0.950 . S
C308 C306 1.391 . S
C308 C309 1.400 . S
C309 C308 1.400 . S
C309 C310 1.398 . S
C309 C315 1.491 . S
C310 H301 0.950 . S
C310 C309 1.398 . S
C310 C311 1.391 . S
C311 H299 0.950 . S
C311 C307 1.393 . S
C311 C310 1.391 . S
C312 H302 0.950 . S
C312 C313 1.386 . S
C312 C314 1.391 . S
C313 C312 1.386 . S
C313 C317 1.393 . S
C314 H303 0.950 . S
C314 C312 1.391 . S
C314 C315 1.400 . S
C315 C309 1.491 . S
C315 C314 1.400 . S
C315 C316 1.398 . S
C316 H304 0.950 . S
C316 C315 1.398 . S
C316 C317 1.391 . S
C317 H305 0.950 . S
C317 C313 1.393 . S
C317 C316 1.391 . S
H318 C326 0.950 . S
H319 C331 0.950 . S
H320 C328 0.950 . S
H321 C330 0.950 1_455 S
H322 C332 0.950 . S
H323 C334 0.950 . S
H324 C336 0.950 . S
H325 C337 0.950 . S
C326 H318 0.950 . S
C326 C327 1.386 . S
C326 C328 1.391 . S
C327 C326 1.386 . S
C327 C331 1.393 . S
C328 H320 0.950 . S
C328 C326 1.391 . S
C328 C329 1.400 . S
C329 C328 1.400 . S
C329 C330 1.398 . S
C329 C335 1.491 1_655 S
C330 H321 0.950 1_655 S
C330 C329 1.398 . S
C330 C331 1.391 . S
C331 H319 0.950 . S
C331 C327 1.393 . S
C331 C330 1.391 . S
C332 H322 0.950 . S
C332 C333 1.386 . S
C332 C334 1.391 . S
C333 C332 1.386 . S
C333 C337 1.393 . S
C334 H323 0.950 . S
C334 C332 1.391 . S
C334 C335 1.400 . S
C335 C329 1.491 1_455 S
C335 C334 1.400 . S
C335 C336 1.398 . S
C336 H324 0.950 . S
C336 C335 1.398 . S
C336 C337 1.391 . S
C337 H325 0.950 . S
C337 C333 1.393 . S
C337 C336 1.391 . S
H338 C346 0.950 . S
H339 C351 0.950 . S
H340 C348 0.950 . S
H341 C350 0.950 . S
H342 C352 0.950 . S
H343 C354 0.950 . S
H344 C356 0.950 . S
H345 C357 0.950 . S
C346 H338 0.950 . S
C346 C347 1.386 . S
C346 C348 1.391 . S
C347 C346 1.386 . S
C347 C351 1.393 . S
C348 H340 0.950 . S
C348 C346 1.391 . S
C348 C349 1.400 . S
C349 C348 1.400 . S
C349 C350 1.398 . S
C349 C355 1.491 . S
C350 H341 0.950 . S
C350 C349 1.398 . S
C350 C351 1.391 . S
C351 H339 0.950 . S
C351 C347 1.393 . S
C351 C350 1.391 . S
C352 H342 0.950 . S
C352 C353 1.386 . S
C352 C354 1.391 . S
C353 C352 1.386 . S
C353 C357 1.393 . S
C354 H343 0.950 . S
C354 C352 1.391 . S
C354 C355 1.400 . S
C355 C349 1.491 . S
C355 C354 1.400 . S
C355 C356 1.398 . S
C356 H344 0.950 . S
C356 C355 1.398 . S
C356 C357 1.391 . S
C357 H345 0.950 . S
C357 C353 1.393 . S
C357 C356 1.391 . S
H358 C366 0.950 . S
H359 C371 0.950 . S
H360 C368 0.950 . S
H361 C370 0.950 . S
H362 C372 0.950 . S
H363 C374 0.950 . S
H364 C376 0.950 . S
H365 C377 0.950 . S
C366 H358 0.950 . S
C366 C367 1.386 . S
C366 C368 1.391 . S
C367 C366 1.386 . S
C367 C371 1.393 . S
C368 H360 0.950 . S
C368 C366 1.391 . S
C368 C369 1.400 . S
C369 C368 1.400 . S
C369 C370 1.398 . S
C369 C375 1.491 1_565 S
C370 H361 0.950 . S
C370 C369 1.398 . S
C370 C371 1.391 . S
C371 H359 0.950 . S
C371 C367 1.393 . S
C371 C370 1.391 . S
C372 H362 0.950 . S
C372 C373 1.386 . S
C372 C374 1.391 . S
C373 C372 1.386 . S
C373 C377 1.393 . S
C374 H363 0.950 . S
C374 C372 1.391 . S
C374 C375 1.400 . S
C375 C369 1.491 1_545 S
C375 C374 1.400 . S
C375 C376 1.398 . S
C376 H364 0.950 . S
C376 C375 1.398 . S
C376 C377 1.391 . S
C377 H365 0.950 . S
C377 C373 1.393 . S
C377 C376 1.391 . S
H378 C386 0.950 . S
H379 C391 0.950 . S
H380 C388 0.950 . S
H381 C390 0.950 . S
H382 C392 0.950 . S
H383 C394 0.950 . S
H384 C396 0.950 . S
H385 C397 0.950 . S
C386 H378 0.950 . S
C386 C387 1.386 1_665 S
C386 C388 1.391 . S
C387 C386 1.386 1_445 S
C387 C391 1.393 . S
C388 H380 0.950 . S
C388 C386 1.391 . S
C388 C389 1.400 1_665 S
C389 C388 1.400 1_445 S
C389 C390 1.398 . S
C389 C395 1.491 . S
C390 H381 0.950 . S
C390 C389 1.398 . S
C390 C391 1.391 . S
C391 H379 0.950 . S
C391 C387 1.393 . S
C391 C390 1.391 . S
C392 H382 0.950 . S
C392 C393 1.386 . S
C392 C394 1.391 . S
C393 C392 1.386 . S
C393 C397 1.393 1_445 S
C394 H383 0.950 . S
C394 C392 1.391 . S
C394 C395 1.400 . S
C395 C389 1.491 . S
C395 C394 1.400 . S
C395 C396 1.398 1_445 S
C396 H384 0.950 . S
C396 C395 1.398 1_665 S
C396 C397 1.391 . S
C397 H385 0.950 . S
C397 C393 1.393 1_665 S
C397 C396 1.391 . S
H398 C406 0.950 . S
H399 C411 0.950 . S
H400 C408 0.950 . S
H401 C410 0.950 . S
H402 C412 0.950 . S
H403 C414 0.950 . S
H404 C416 0.950 . S
H405 C417 0.950 . S
C406 H398 0.950 . S
C406 C407 1.386 . S
C406 C408 1.391 . S
C407 C406 1.386 . S
C407 C411 1.393 . S
C408 H400 0.950 . S
C408 C406 1.391 . S
C408 C409 1.400 . S
C409 C408 1.400 . S
C409 C410 1.398 . S
C409 C415 1.491 . S
C410 H401 0.950 . S
C410 C409 1.398 . S
C410 C411 1.391 . S
C411 H399 0.950 . S
C411 C407 1.393 . S
C411 C410 1.391 . S
C412 H402 0.950 . S
C412 C413 1.386 . S
C412 C414 1.391 . S
C413 C412 1.386 . S
C413 C417 1.393 . S
C414 H403 0.950 . S
C414 C412 1.391 . S
C414 C415 1.400 . S
C415 C409 1.491 . S
C415 C414 1.400 . S
C415 C416 1.398 . S
C416 H404 0.950 . S
C416 C415 1.398 . S
C416 C417 1.391 . S
C417 H405 0.950 . S
C417 C413 1.393 . S
C417 C416 1.391 . S
H418 C426 0.950 . S
H419 C431 0.950 . S
H420 C428 0.950 . S
H421 C430 0.950 . S
H422 C432 0.950 . S
H423 C434 0.950 . S
H424 C436 0.950 . S
H425 C437 0.950 . S
C426 H418 0.950 . S
C426 C427 1.386 . S
C426 C428 1.391 . S
C427 C426 1.386 . S
C427 C431 1.393 . S
C428 H420 0.950 . S
C428 C426 1.391 . S
C428 C429 1.400 . S
C429 C428 1.400 . S
C429 C430 1.398 . S
C429 C435 1.491 . S
C430 H421 0.950 . S
C430 C429 1.398 . S
C430 C431 1.391 . S
C431 H419 0.950 . S
C431 C427 1.393 . S
C431 C430 1.391 . S
C432 H422 0.950 . S
C432 C433 1.386 . S
C432 C434 1.391 . S
C433 C432 1.386 . S
C433 C437 1.393 . S
C434 H423 0.950 . S
C434 C432 1.391 . S
C434 C435 1.400 . S
C435 C429 1.491 . S
C435 C434 1.400 . S
C435 C436 1.398 . S
C436 H424 0.950 . S
C436 C435 1.398 . S
C436 C437 1.391 . S
C437 H425 0.950 . S
C437 C433 1.393 . S
C437 C436 1.391 . S
H438 C446 0.950 . S
H439 C451 0.950 . S
H440 C448 0.950 1_655 S
H441 C450 0.950 . S
H442 C452 0.950 . S
H443 C454 0.950 . S
H444 C456 0.950 . S
H445 C457 0.950 . S
C446 H438 0.950 . S
C446 C447 1.386 . S
C446 C448 1.391 . S
C447 C446 1.386 . S
C447 C451 1.393 1_545 S
C448 H440 0.950 1_455 S
C448 C446 1.391 . S
C448 C449 1.400 . S
C449 C448 1.400 . S
C449 C450 1.398 1_545 S
C449 C455 1.491 1_554 S
C450 H441 0.950 . S
C450 C449 1.398 1_565 S
C450 C451 1.391 . S
C451 H439 0.950 . S
C451 C447 1.393 1_565 S
C451 C450 1.391 . S
C452 H442 0.950 . S
C452 C453 1.386 1_465 S
C452 C454 1.391 . S
C453 C452 1.386 1_645 S
C453 C457 1.393 . S
C454 H443 0.950 . S
C454 C452 1.391 . S
C454 C455 1.400 1_565 S
C455 C449 1.491 1_556 S
C455 C454 1.400 1_545 S
C455 C456 1.398 1_455 S
C456 H444 0.950 . S
C456 C455 1.398 1_655 S
C456 C457 1.391 . S
C457 H445 0.950 . S
C457 C453 1.393 . S
C457 C456 1.391 . S
H458 C466 0.950 . S
H459 C471 0.950 . S
H460 C468 0.950 . S
H461 C470 0.950 . S
H462 C472 0.950 . S
H463 C474 0.950 . S
H464 C476 0.950 . S
H465 C477 0.950 . S
C466 H458 0.950 . S
C466 C467 1.386 . S
C466 C468 1.391 . S
C467 C466 1.386 . S
C467 C471 1.393 . S
C468 H460 0.950 . S
C468 C466 1.391 . S
C468 C469 1.400 . S
C469 C468 1.400 . S
C469 C470 1.398 . S
C469 C475 1.491 . S
C470 H461 0.950 . S
C470 C469 1.398 . S
C470 C471 1.391 . S
C471 H459 0.950 . S
C471 C467 1.393 . S
C471 C470 1.391 . S
C472 H462 0.950 . S
C472 C473 1.386 . S
C472 C474 1.391 . S
C473 C472 1.386 . S
C473 C477 1.393 . S
C474 H463 0.950 . S
C474 C472 1.391 . S
C474 C475 1.400 . S
C475 C469 1.491 . S
C475 C474 1.400 . S
C475 C476 1.398 . S
C476 H464 0.950 . S
C476 C475 1.398 . S
C476 C477 1.391 . S
C477 H465 0.950 . S
C477 C473 1.393 . S
C477 C476 1.391 . S
H478 C486 0.950 . S
H479 C491 0.950 . S
H480 C488 0.950 . S
H481 C490 0.950 . S
H482 C492 0.950 . S
H483 C494 0.950 . S
H484 C496 0.950 . S
H485 C497 0.950 . S
C486 H478 0.950 . S
C486 C487 1.386 . S
C486 C488 1.391 . S
C487 C486 1.386 . S
C487 C491 1.393 . S
C488 H480 0.950 . S
C488 C486 1.391 . S
C488 C489 1.400 . S
C489 C488 1.400 . S
C489 C490 1.398 . S
C489 C495 1.491 . S
C490 H481 0.950 . S
C490 C489 1.398 . S
C490 C491 1.391 . S
C491 H479 0.950 . S
C491 C487 1.393 . S
C491 C490 1.391 . S
C492 H482 0.950 . S
C492 C493 1.386 . S
C492 C494 1.391 . S
C493 C492 1.386 . S
C493 C497 1.393 . S
C494 H483 0.950 . S
C494 C492 1.391 . S
C494 C495 1.400 . S
C495 C489 1.491 . S
C495 C494 1.400 . S
C495 C496 1.398 . S
C496 H484 0.950 . S
C496 C495 1.398 . S
C496 C497 1.391 . S
C497 H485 0.950 . S
C497 C493 1.393 . S
C497 C496 1.391 . S
C207 C8 1.933 . S
C213 C107 1.932 . S
C227 C28 1.571 . S
C233 C116 1.602 . S
C247 C127 1.566 . S
C253 C17 1.600 . S
C267 C61 1.555 . S
C273 C149 1.594 . S
C287 C140 1.944 . S
C293 C41 1.943 . S
C307 C50 1.594 . S
C313 C160 1.554 . S
C327 C74 1.940 . S
C333 C173 1.939 . S
C347 C94 1.550 . S
C353 C182 1.592 . S
C367 C193 1.551 . S
C373 C83 1.593 . S
C387 N38 2.205 1_455 S
C393 N5 2.203 . S
C407 N104 2.202 . S
C413 N71 2.204 . S
C427 N170 2.202 . S
C433 N137 2.202 . S
C447 N14 0.652 . S
C453 N47 0.652 1_655 S
C467 N113 0.651 . S
C473 N80 0.651 . S
C487 N179 0.619 . S
C493 N146 0.616 . S
