# Generated by pormake.
# Topology snw, (6)-cn, num edge types: 1
# Building blocks:
#     Node 0, Type 0, BuildingBlock: MIDCAF_clean_sbu_0, # of connection points: 6
#     Node 1, Type 0, BuildingBlock: MIDCAF_clean_sbu_0, # of connection points: 6
#     Node 2, Type 0, BuildingBlock: MIDCAF_clean_sbu_0, # of connection points: 6
#     Node 3, Type 0, BuildingBlock: MIDCAF_clean_sbu_0, # of connection points: 6
#     Node 4, Type 0, BuildingBlock: MIDCAF_clean_sbu_0, # of connection points: 6
#     Node 5, Type 0, BuildingBlock: MIDCAF_clean_sbu_0, # of connection points: 6
#     Node 6, Type 0, BuildingBlock: MIDCAF_clean_sbu_0, # of connection points: 6
#     Node 7, Type 0, BuildingBlock: MIDCAF_clean_sbu_0, # of connection points: 6
#     Edge 8, Type (0, 0), BuildingBlock: EZIPEK_clean_linker_0, # of connection points: 2
#     Edge 9, Type (0, 0), BuildingBlock: EZIPEK_clean_linker_0, # of connection points: 2
#     Edge 10, Type (0, 0), BuildingBlock: EZIPEK_clean_linker_0, # of connection points: 2
#     Edge 11, Type (0, 0), BuildingBlock: EZIPEK_clean_linker_0, # of connection points: 2
#     Edge 12, Type (0, 0), BuildingBlock: EZIPEK_clean_linker_0, # of connection points: 2
#     Edge 13, Type (0, 0), BuildingBlock: EZIPEK_clean_linker_0, # of connection points: 2
#     Edge 14, Type (0, 0), BuildingBlock: EZIPEK_clean_linker_0, # of connection points: 2
#     Edge 15, Type (0, 0), BuildingBlock: EZIPEK_clean_linker_0, # of connection points: 2
#     Edge 16, Type (0, 0), BuildingBlock: EZIPEK_clean_linker_0, # of connection points: 2
#     Edge 17, Type (0, 0), BuildingBlock: EZIPEK_clean_linker_0, # of connection points: 2
#     Edge 18, Type (0, 0), BuildingBlock: EZIPEK_clean_linker_0, # of connection points: 2
#     Edge 19, Type (0, 0), BuildingBlock: EZIPEK_clean_linker_0, # of connection points: 2
#     Edge 20, Type (0, 0), BuildingBlock: EZIPEK_clean_linker_0, # of connection points: 2
#     Edge 21, Type (0, 0), BuildingBlock: EZIPEK_clean_linker_0, # of connection points: 2
#     Edge 22, Type (0, 0), BuildingBlock: EZIPEK_clean_linker_0, # of connection points: 2
#     Edge 23, Type (0, 0), BuildingBlock: EZIPEK_clean_linker_0, # of connection points: 2
#     Edge 24, Type (0, 0), BuildingBlock: EZIPEK_clean_linker_0, # of connection points: 2
#     Edge 25, Type (0, 0), BuildingBlock: EZIPEK_clean_linker_0, # of connection points: 2
#     Edge 26, Type (0, 0), BuildingBlock: EZIPEK_clean_linker_0, # of connection points: 2
#     Edge 27, Type (0, 0), BuildingBlock: EZIPEK_clean_linker_0, # of connection points: 2
#     Edge 28, Type (0, 0), BuildingBlock: EZIPEK_clean_linker_0, # of connection points: 2
#     Edge 29, Type (0, 0), BuildingBlock: EZIPEK_clean_linker_0, # of connection points: 2
#     Edge 30, Type (0, 0), BuildingBlock: EZIPEK_clean_linker_0, # of connection points: 2
#     Edge 31, Type (0, 0), BuildingBlock: EZIPEK_clean_linker_0, # of connection points: 2
# Relax obj value: 0.252
# Max RMSD: 0.249
# Mean RMSD: 0.249
data_MOF--net-snw--node1-MIDCAF_clean_sbu_0--edge1-EZIPEK_clean_linker_0
_symmetry_space_group_name_H-M    P1
_symmetry_Int_Tables_number       1
_symmetry_cell_setting            triclinic
loop_
_symmetry_equiv_pos_as_xyz
'x, y, z'
_cell_length_a     13.994582
_cell_length_b     14.118223
_cell_length_c     57.744351
_cell_angle_alpha  89.953189
_cell_angle_beta   91.011247
_cell_angle_gamma 90.610998
loop_
_atom_site_label
_atom_site_type_symbol
_atom_site_fract_x
_atom_site_fract_y
_atom_site_fract_z
_atom_type_partial_charge
Zn0 Zn 0.95212 0.37238 0.08475 0.0
Zn1 Zn 0.97724 0.0438 0.05485 0.0
Zn2 Zn 0.96295 0.22389 0.06138 0.0
C3 C 0.80651 0.07451 0.07613 0.0
C4 C 0.11714 0.07106 0.08445 0.0
O5 O 0.98687 0.31982 0.03264 0.0
O6 O 0.97731 0.4448 0.05569 0.0
C7 C 0.76995 0.3247 0.08459 0.0
O8 O 0.83061 0.16103 0.07238 0.0
O9 O 0.85902 0.00737 0.0701 0.0
O10 O 0.09464 0.0041 0.07099 0.0
O11 O 0.07428 0.15133 0.08286 0.0
O12 O 0.82157 0.38396 0.09547 0.0
O13 O 0.80964 0.26064 0.07202 0.0
O14 O 0.08792 0.2523 0.08526 0.0
O15 O 0.05784 0.3757 0.10735 0.0
C16 C 0.11392 0.31166 0.10118 0.0
O17 O 0.9873 0.21417 0.02372 0.0
O18 O 0.97733 0.05738 0.02173 0.0
C19 C 0.98944 0.41006 0.03581 0.0
C20 C 0.98637 0.13666 0.01195 0.0
Zn21 Zn 0.18077 0.76954 0.33787 0.0
Zn22 Zn 0.85476 0.77831 0.3234 0.0
Zn23 Zn 0.01927 0.75639 0.32493 0.0
C24 C 0.89011 0.9123 0.35132 0.0
C25 C 0.87404 0.59048 0.33442 0.0
O26 O 0.09936 0.74407 0.2929 0.0
O27 O 0.23087 0.6993 0.31142 0.0
C28 C 0.14081 0.9447 0.34151 0.0
O29 O 0.96864 0.88628 0.34208 0.0
O30 O 0.81535 0.8628 0.34871 0.0
O31 O 0.81554 0.64524 0.32458 0.0
O32 O 0.95777 0.6232 0.33977 0.0
O33 O 0.21909 0.90344 0.33898 0.0
O34 O 0.06145 0.89848 0.33895 0.0
O35 O 0.04983 0.63934 0.34868 0.0
O36 O 0.17105 0.70443 0.36785 0.0
C37 C 0.11139 0.63767 0.3655 0.0
O38 O 0.97768 0.74411 0.28807 0.0
O39 O 0.84836 0.82973 0.29199 0.0
C40 C 0.18538 0.71262 0.29268 0.0
C41 C 0.90286 0.78332 0.27918 0.0
Zn42 Zn 0.47463 0.63224 0.58478 0.0
Zn43 Zn 0.47635 0.93857 0.53901 0.0
Zn44 Zn 0.48817 0.77145 0.55644 0.0
C45 C 0.64512 0.94029 0.56294 0.0
C46 C 0.3241 0.93807 0.56311 0.0
O47 O 0.49334 0.64664 0.53294 0.0
O48 O 0.4838 0.53563 0.56007 0.0
C49 C 0.63862 0.72169 0.59789 0.0
O50 O 0.61555 0.85535 0.56721 0.0
O51 O 0.59694 0.99404 0.54995 0.0
O52 O 0.36172 -0.00196 0.5499 0.0
O53 O 0.36142 0.85554 0.56596 0.0
O54 O 0.58495 0.65555 0.60465 0.0
O55 O 0.61635 0.76974 0.57962 0.0
O56 O 0.35052 0.76591 0.57526 0.0
O57 O 0.35368 0.64658 0.60003 0.0
C58 C 0.31117 0.71656 0.59136 0.0
O59 O 0.49494 0.74048 0.51906 0.0
O60 O 0.47177 0.88952 0.50835 0.0
C61 C 0.4916 0.55849 0.53903 0.0
C62 C 0.48422 0.80395 0.50322 0.0
Zn63 Zn 0.69233 0.20233 0.81851 0.0
Zn64 Zn 0.33833 0.17612 0.81638 0.0
Zn65 Zn 0.51473 0.20152 0.81432 0.0
C66 C 0.38101 0.34791 0.83747 0.0
C67 C 0.39224 0.03161 0.84096 0.0
O68 O 0.56669 0.21796 0.77845 0.0
O69 O 0.71813 0.24867 0.78785 0.0
C70 C 0.64521 0.33625 0.84905 0.0
O71 O 0.46707 0.32028 0.83457 0.0
O72 O 0.31106 0.30051 0.82955 0.0
O73 O 0.31283 0.06967 0.83698 0.0
O74 O 0.46944 0.06786 0.83262 0.0
O75 O 0.71796 0.28889 0.84427 0.0
O76 O 0.56442 0.31797 0.83872 0.0
O77 O 0.56309 0.06345 0.82689 0.0
O78 O 0.72007 0.06791 0.82377 0.0
C79 C 0.64475 0.02272 0.82836 0.0
O80 O 0.45358 0.22319 0.77855 0.0
O81 O 0.30867 0.16288 0.78367 0.0
C82 C 0.65283 0.24004 0.77273 0.0
C83 C 0.36934 0.2007 0.77062 0.0
Zn84 Zn 0.02136 0.56364 0.9225 0.0
Zn85 Zn 0.03937 0.85899 0.88702 0.0
Zn86 Zn 0.01584 0.71859 0.91162 0.0
C87 C 0.87212 0.78893 0.87169 0.0
C88 C 0.21532 0.80244 0.8853 0.0
O89 O 0.00661 0.71769 0.94938 0.0
O90 O 0.09561 0.59125 0.95098 0.0
C91 C 0.83759 0.5698 0.90988 0.0
O92 O 0.88955 0.73413 0.88903 0.0
O93 O 0.93457 0.84667 0.86479 0.0
O94 O 0.1689 0.86706 0.8753 0.0
O95 O 0.17028 0.741 0.89795 0.0
O96 O 0.88583 0.52739 0.92523 0.0
O97 O 0.87748 0.64162 0.89972 0.0
O98 O 0.13924 0.64638 0.89772 0.0
O99 O 0.09065 0.49717 0.89845 0.0
C100 C 0.14938 0.55927 0.89193 0.0
O101 O 0.01072 0.82692 0.93856 0.0
O102 O 0.0174 0.94596 0.91365 0.0
C103 C 0.05162 0.65528 0.96141 0.0
C104 C 0.0098 0.91633 0.93419 0.0
Zn105 Zn 0.65883 0.6954 0.15465 0.0
Zn106 Zn 0.31758 0.68738 0.16628 0.0
Zn107 Zn 0.48786 0.71181 0.16249 0.0
C108 C 0.34968 0.53534 0.14324 0.0
C109 C 0.32589 0.86821 0.14923 0.0
O110 O 0.57554 0.72078 0.19602 0.0
O111 O 0.71843 0.67662 0.18444 0.0
C112 C 0.59846 0.56067 0.12842 0.0
O113 O 0.43249 0.57465 0.1468 0.0
O114 O 0.27506 0.57639 0.14939 0.0
O115 O 0.26657 0.808 0.15648 0.0
O116 O 0.41502 0.84496 0.14829 0.0
O117 O 0.67878 0.59926 0.13167 0.0
O118 O 0.52448 0.59003 0.1393 0.0
O119 O 0.51476 0.8375 0.14228 0.0
O120 O 0.67194 0.82121 0.14167 0.0
C121 C 0.59799 0.86658 0.13623 0.0
O122 O 0.47006 0.71037 0.20049 0.0
O123 O 0.31696 0.66988 0.19927 0.0
C124 C 0.66466 0.70261 0.20038 0.0
C125 C 0.39164 0.68924 0.21077 0.0
Zn126 Zn 0.50487 0.1099 0.38801 0.0
Zn127 Zn 0.53545 0.41078 0.43025 0.0
Zn128 Zn 0.51007 0.23802 0.41752 0.0
C129 C 0.35032 0.39573 0.41362 0.0
C130 C 0.66423 0.40283 0.39901 0.0
O131 O 0.51118 0.11288 0.44005 0.0
O132 O 0.47632 0.01207 0.41169 0.0
C133 C 0.34844 0.19231 0.37592 0.0
O134 O 0.38279 0.314 0.40829 0.0
O135 O 0.39954 0.45177 0.42614 0.0
O136 O 0.62818 0.47005 0.41002 0.0
O137 O 0.63158 0.31749 0.40134 0.0
O138 O 0.40594 0.14053 0.36538 0.0
O139 O 0.37343 0.22832 0.39574 0.0
O140 O 0.65015 0.21967 0.39995 0.0
O141 O 0.63125 0.0986 0.37595 0.0
C142 C 0.68437 0.16032 0.38534 0.0
O143 O 0.50373 0.23984 0.45558 0.0
O144 O 0.58749 0.37137 0.46013 0.0
C145 C 0.49124 0.02832 0.43295 0.0
C146 C 0.54432 0.30181 0.46887 0.0
Zn147 Zn 0.17192 0.34167 0.6438 0.0
Zn148 Zn 0.82348 0.31743 0.6453 0.0
Zn149 Zn 0.99608 0.3145 0.64983 0.0
C150 C 0.87011 0.19146 0.61378 0.0
C151 C 0.85523 0.49489 0.63969 0.0
O152 O 0.0616 0.29237 0.68479 0.0
O153 O 0.20816 0.34132 0.67651 0.0
C154 C 0.13103 0.17454 0.62217 0.0
O155 O 0.94698 0.19963 0.62627 0.0
O156 O 0.80226 0.24798 0.61639 0.0
O157 O 0.78185 0.44911 0.64544 0.0
O158 O 0.93689 0.45371 0.63909 0.0
O159 O 0.20187 0.22615 0.6275 0.0
O160 O 0.04632 0.1971 0.62827 0.0
O161 O 0.02988 0.45276 0.63371 0.0
O162 O 0.18393 0.45763 0.62584 0.0
C163 C 0.10247 0.49422 0.62462 0.0
O164 O 0.94661 0.28971 0.68529 0.0
O165 O 0.79992 0.24942 0.67391 0.0
C166 C 0.14935 0.30936 0.69091 0.0
C167 C 0.86178 0.25935 0.68985 0.0
C168 C 0.92713 0.50802 0.00297 0.0
C169 C 0.00596 0.47887 0.01691 0.0
C170 C 0.10516 0.60581 0.00034 0.0
C171 C 0.02776 0.63114 0.98557 0.0
N172 N 0.85789 0.63178 0.97894 0.0
N173 N 0.1645 0.51038 0.0324 0.0
C174 C 0.93609 0.59072 -0.01097 0.0
C175 C 0.09322 0.53165 0.0168 0.0
N176 N 0.84426 0.45584 0.00282 0.0
N177 N 0.19152 0.64983 -0.00259 0.0
H178 H 0.16063 0.45259 0.04361 0.0
H179 H 0.22574 0.55177 0.03496 0.0
H180 H 0.19907 0.70744 0.98619 0.0
H181 H 0.25499 0.62856 0.00539 0.0
H182 H 0.78738 0.46789 -0.00862 0.0
H183 H 0.83524 0.39523 0.01293 0.0
H184 H 0.78793 0.60977 0.98188 0.0
H185 H 0.86261 0.69526 0.96979 0.0
C186 C 0.76248 0.81693 0.22365 0.0
C187 C 0.7143 0.72785 0.22238 0.0
C188 C 0.8184 0.66657 0.25348 0.0
C189 C 0.86121 0.75795 0.25616 0.0
N190 N 0.87359 0.92094 0.24448 0.0
N191 N 0.68623 0.57225 0.23755 0.0
C192 C 0.83335 0.83315 0.24126 0.0
C193 C 0.7395 0.65397 0.23777 0.0
N194 N 0.74226 0.88497 0.20745 0.0
N195 N 0.8535 0.59158 0.26583 0.0
H196 H 0.62788 0.56238 0.22626 0.0
H197 H 0.69375 0.51835 0.24973 0.0
H198 H 0.9117 0.59714 0.27722 0.0
H199 H 0.8313 0.52179 0.26321 0.0
H200 H 0.78242 0.94676 0.20539 0.0
H201 H 0.68661 0.87785 0.19528 0.0
H202 H 0.84894 0.9822 0.23644 0.0
H203 H 0.93086 0.93273 0.256 0.0
C204 C 0.4214 0.45033 0.50842 0.0
C205 C 0.50133 0.47914 0.5223 0.0
C206 C 0.59093 0.34098 0.50874 0.0
C207 C 0.51543 0.31967 0.49298 0.0
N208 N 0.34814 0.32735 0.48417 0.0
N209 N 0.65612 0.44299 0.53918 0.0
C210 C 0.42661 0.36524 0.49521 0.0
C211 C 0.5839 0.42073 0.52378 0.0
N212 N 0.34149 0.50515 0.50753 0.0
N213 N 0.67201 0.28827 0.50769 0.0
H214 H 0.65719 0.50482 0.54906 0.0
H215 H 0.71424 0.39969 0.5427 0.0
H216 H 0.67503 0.22857 0.49704 0.0
H217 H 0.73517 0.30309 0.51678 0.0
H218 H 0.28444 0.49337 0.49606 0.0
H219 H 0.33458 0.56663 0.51735 0.0
H220 H 0.2791 0.3526 0.48601 0.0
H221 H 0.35162 0.26388 0.475 0.0
C222 C 0.71701 0.33202 0.74027 0.0
C223 C 0.68616 0.24301 0.74869 0.0
C224 C 0.78743 0.1626 0.72067 0.0
C225 C 0.82379 0.2519 0.71346 0.0
N226 N 0.83283 0.42145 0.71805 0.0
N227 N 0.69488 0.07285 0.74849 0.0
C228 C 0.79173 0.33663 0.7239 0.0
C229 C 0.72148 0.15794 0.73913 0.0
N230 N 0.67341 0.41195 0.74797 0.0
N231 N 0.81474 0.0825 0.70937 0.0
H232 H 0.64243 0.06694 0.76105 0.0
H233 H 0.72674 0.00875 0.74451 0.0
H234 H 0.8682 0.08328 0.69698 0.0
H235 H 0.78262 0.01637 0.71159 0.0
H236 H 0.68614 0.47947 0.7414 0.0
H237 H 0.61736 0.40895 0.75967 0.0
H238 H 0.81847 0.48517 0.72626 0.0
H239 H 0.88788 0.4272 0.70619 0.0
C240 C 0.29813 0.32822 0.74608 0.0
C241 C 0.33051 0.23335 0.74797 0.0
C242 C 0.22028 0.18557 0.71637 0.0
C243 C 0.19182 0.28122 0.71356 0.0
N244 N 0.20944 0.44554 0.72395 0.0
N245 N 0.3357 0.07551 0.73286 0.0
C246 C 0.2325 0.35303 0.72797 0.0
C247 C 0.29539 0.16327 0.7324 0.0
N248 N 0.32658 0.39366 0.7623 0.0
N249 N 0.17521 0.11611 0.70366 0.0
H250 H 0.39203 0.05894 0.74421 0.0
H251 H 0.32008 0.02246 0.72084 0.0
H252 H 0.11987 0.13009 0.69188 0.0
H253 H 0.1866 0.04406 0.70611 0.0
H254 H 0.29603 0.46019 0.76388 0.0
H255 H 0.37848 0.37993 0.77499 0.0
H256 H 0.24535 0.50271 0.7316 0.0
H257 H 0.15617 0.46519 0.71206 0.0
C258 C 0.34532 0.78879 0.24347 0.0
C259 C 0.37715 0.69951 0.23579 0.0
C260 C 0.27841 0.61896 0.2645 0.0
C261 C 0.24247 0.70801 0.27147 0.0
N262 N 0.25853 0.87871 0.27186 0.0
N263 N 0.3959 0.53354 0.24218 0.0
C264 C 0.28105 0.79343 0.26224 0.0
C265 C 0.35142 0.61592 0.24769 0.0
N266 N 0.37218 0.86857 0.23174 0.0
N267 N 0.24014 0.53753 0.27344 0.0
H268 H 0.44916 0.53181 0.22974 0.0
H269 H 0.38638 0.46993 0.25099 0.0
H270 H 0.18503 0.53775 0.28539 0.0
H271 H 0.25766 0.46987 0.26794 0.0
H272 H 0.34166 0.93469 0.23411 0.0
H273 H 0.42367 0.86726 0.21889 0.0
H274 H 0.29271 0.9422 0.26774 0.0
H275 H 0.20952 0.88573 0.28513 0.0
C276 C 0.58315 0.90639 0.4558 0.0
C277 C 0.49355 0.94417 0.4484 0.0
C278 C 0.41246 0.80664 0.46556 0.0
C279 C 0.49629 0.78798 0.47839 0.0
N280 N 0.66587 0.78822 0.47967 0.0
N281 N 0.32274 0.9224 0.44317 0.0
C282 C 0.58377 0.82522 0.47059 0.0
C283 C 0.40802 0.89058 0.45188 0.0
N284 N 0.66632 0.94818 0.44875 0.0
N285 N 0.3357 0.74801 0.46851 0.0
H286 H 0.3167 0.98469 0.43355 0.0
H287 H 0.2572 0.89006 0.44644 0.0
H288 H 0.34054 0.68946 0.47955 0.0
H289 H 0.27182 0.75311 0.45911 0.0
H290 H 0.73412 0.92363 0.45304 0.0
H291 H 0.66771 0.00735 0.43793 0.0
H292 H 0.73435 0.81305 0.47622 0.0
H293 H 0.66328 0.72995 0.49085 0.0
C294 C 0.92038 0.11494 0.9728 0.0
C295 C 0.00225 0.13088 0.98691 0.0
C296 C 0.09123 0.01312 0.96524 0.0
C297 C 0.00624 0.98917 0.95265 0.0
N298 N 0.8478 0.03407 0.93973 0.0
N299 N 0.17151 0.12378 -0.00827 0.0
C300 C 0.92339 0.04624 0.95477 0.0
C301 C 0.09022 0.0904 0.98103 0.0
N302 N 0.83823 0.16101 0.97801 0.0
N303 N 0.17173 0.96051 0.96257 0.0
H304 H 0.16924 0.17972 0.00355 0.0
H305 H 0.24008 0.10245 0.9876 0.0
H306 H 0.17493 0.90376 0.95108 0.0
H307 H 0.23363 0.96918 0.97262 0.0
H308 H 0.77181 0.1461 0.97041 0.0
H309 H 0.83756 0.21369 -0.00929 0.0
H310 H 0.78921 0.07879 0.93893 0.0
H311 H 0.8461 0.98177 0.92702 0.0
C312 C 0.18773 0.97789 0.14348 0.0
C313 C 0.28471 0.95761 0.13932 0.0
C314 C 0.27761 0.05026 0.10369 0.0
C315 C 0.17672 0.04945 0.105 0.0
N316 N 0.03392 0.02049 0.12698 0.0
N317 N 0.42525 0.03216 0.12551 0.0
C318 C 0.13121 0.01784 0.12544 0.0
C319 C 0.33171 0.01032 0.12223 0.0
N320 N 0.15171 0.96156 0.16495 0.0
N321 N 0.32114 0.08631 0.08459 0.0
H322 H 0.45918 0.0176 0.14133 0.0
H323 H 0.4629 0.07532 0.11423 0.0
H324 H 0.28294 0.11942 0.07123 0.0
H325 H 0.39397 0.07933 0.08162 0.0
H326 H 0.08346 0.98131 0.16981 0.0
H327 H 0.19513 0.93812 0.17865 0.0
H328 H 0.99603 0.98832 0.14026 0.0
H329 H 0.9903 0.05093 0.11426 0.0
C330 C 0.1398 0.06261 0.37349 0.0
C331 C 0.14233 0.04322 0.34945 0.0
C332 C 0.23544 0.186 0.34284 0.0
C333 C 0.24864 0.19334 0.36718 0.0
N334 N 0.16956 0.17971 0.40355 0.0
N335 N 0.1553 0.1038 0.31083 0.0
C336 C 0.18275 0.14756 0.38164 0.0
C337 C 0.17533 0.11282 0.33393 0.0
N338 N 0.10674 -0.0039 0.38858 0.0
N339 N 0.29151 0.23895 0.32863 0.0
H340 H 0.11304 0.04796 0.3044 0.0
H341 H 0.1732 0.15498 0.29861 0.0
H342 H 0.34043 0.28832 0.33528 0.0
H343 H 0.29322 0.23056 0.31074 0.0
H344 H 0.11281 0.00329 0.40651 0.0
H345 H 0.07814 0.93141 0.38299 0.0
H346 H 0.11893 0.15044 0.41457 0.0
H347 H 0.20259 0.24192 0.40944 0.0
C348 C 0.21932 0.02772 0.61839 0.0
C349 C 0.14993 0.08867 0.60885 0.0
C350 C 0.16956 0.01455 0.57114 0.0
C351 C 0.25406 0.97197 0.57963 0.0
N352 N 0.37193 0.95937 0.61083 0.0
N353 N 0.07092 0.15217 0.57488 0.0
C354 C 0.28192 0.98223 0.60326 0.0
C355 C 0.12572 0.08389 0.58495 0.0
N356 N 0.22995 0.01972 0.64185 0.0
N357 N 0.13475 0.99272 0.54957 0.0
H358 H 0.04399 0.20856 0.58426 0.0
H359 H 0.06029 0.15738 0.55701 0.0
H360 H 0.16722 0.94257 0.53909 0.0
H361 H 0.0694 0.01763 0.54326 0.0
H362 H 0.27782 0.97306 0.64971 0.0
H363 H 0.18415 0.05359 0.6532 0.0
H364 H 0.39791 0.97691 0.62733 0.0
H365 H 0.42325 0.92943 0.60035 0.0
C366 C 0.35211 0.89608 0.89596 0.0
C367 C 0.32106 0.81116 0.88543 0.0
C368 C 0.39479 0.85796 0.84941 0.0
C369 C 0.39604 0.95245 0.8575 0.0
N370 N 0.39789 0.06094 0.88982 0.0
N371 N 0.39326 0.69458 0.86199 0.0
C372 C 0.38445 0.97119 0.8815 0.0
C373 C 0.36661 0.78571 0.86491 0.0
N374 N 0.34029 0.90617 0.91917 0.0
N375 N 0.41719 0.83771 0.8271 0.0
H376 H 0.38414 0.64586 0.87535 0.0
H377 H 0.43438 0.6723 0.84817 0.0
H378 H 0.44084 0.88972 0.81563 0.0
H379 H 0.40893 0.77001 0.82008 0.0
H380 H 0.36226 0.96555 0.92859 0.0
H381 H 0.31306 0.85006 0.92896 0.0
H382 H 0.38384 0.08086 0.90675 0.0
H383 H 0.42268 0.1162 0.87943 0.0
C384 C 0.72087 0.87092 0.87702 0.0
C385 C 0.77423 0.80683 0.86368 0.0
C386 C 0.68737 0.85365 0.82869 0.0
C387 C 0.65493 0.93325 0.84094 0.0
N388 N 0.62757 0.01401 0.87696 0.0
N389 N 0.79446 0.71857 0.82881 0.0
C390 C 0.66378 0.93834 0.86538 0.0
C391 C 0.75083 0.79055 0.84014 0.0
N392 N 0.72992 0.87091 0.90062 0.0
N393 N 0.66111 0.84276 0.80597 0.0
H394 H 0.83888 0.6711 0.83764 0.0
H395 H 0.78648 0.70522 0.81117 0.0
H396 H 0.61455 0.88996 0.79775 0.0
H397 H 0.68017 0.78545 0.7958 0.0
H398 H 0.68604 0.90922 0.91147 0.0
H399 H 0.77568 0.82558 0.9096 0.0
H400 H 0.64224 0.02932 0.89429 0.0
H401 H 0.58506 0.06475 0.86891 0.0
C402 C 0.8383 0.11676 0.57523 0.0
C403 C 0.85071 0.1075 0.59953 0.0
C404 C 0.73437 0.98017 0.59982 0.0
C405 C 0.72853 0.98199 0.57528 0.0
N406 N 0.79829 0.03495 0.53952 0.0
N407 N 0.83478 0.00899 0.63343 0.0
C408 C 0.79009 0.04342 0.56292 0.0
C409 C 0.80988 0.02935 0.61105 0.0
N410 N 0.86393 0.19851 0.56423 0.0
N411 N 0.66073 0.94645 0.61268 0.0
H412 H 0.88898 0.04581 0.64234 0.0
H413 H 0.80753 0.94969 0.642 0.0
H414 H 0.59735 0.91962 0.6055 0.0
H415 H 0.65822 0.95761 0.63052 0.0
H416 H 0.84726 0.21132 0.54684 0.0
H417 H 0.89528 0.25593 0.57295 0.0
H418 H 0.84662 0.07557 0.53007 0.0
H419 H 0.76381 0.98082 0.53019 0.0
C420 C 0.87367 0.01009 0.38689 0.0
C421 C 0.8846 0.00477 0.36262 0.0
C422 C 0.81247 0.15884 0.35745 0.0
C423 C 0.78661 0.15497 0.38094 0.0
N424 N 0.83267 0.11021 0.4194 0.0
N425 N 0.90188 0.08829 0.32643 0.0
C426 C 0.83478 0.09354 0.3962 0.0
C427 C 0.86915 0.08548 0.34854 0.0
N428 N 0.89331 0.93359 0.40056 0.0
N429 N 0.77039 0.22388 0.34324 0.0
H430 H 0.94055 0.0331 0.31931 0.0
H431 H 0.89795 0.14835 0.31598 0.0
H432 H 0.72331 0.27354 0.3497 0.0
H433 H 0.77737 0.22497 0.32532 0.0
H434 H 0.87747 0.93062 0.41811 0.0
H435 H 0.92235 0.87163 0.39393 0.0
H436 H 0.86965 0.06943 0.43157 0.0
H437 H 0.79983 0.17049 0.42591 0.0
C438 C 0.59665 0.938 0.09705 0.0
C439 C 0.61266 0.94839 0.12119 0.0
C440 C 0.73492 0.06875 0.11517 0.0
C441 C 0.7262 0.05138 0.09098 0.0
N442 N 0.63207 -0.00421 0.05846 0.0
N443 N 0.66695 0.04401 0.15312 0.0
C444 C 0.65061 -0.00503 0.08176 0.0
C445 C 0.67116 0.02193 0.13014 0.0
N446 N 0.53497 0.86963 0.08892 0.0
N447 N 0.80717 0.12485 0.1239 0.0
H448 H 0.62013 0.00876 0.16417 0.0
H449 H 0.70203 0.10208 0.1606 0.0
H450 H 0.85427 0.16281 0.11357 0.0
H451 H 0.82364 0.13043 0.1415 0.0
H452 H 0.52858 0.85048 0.07156 0.0
H453 H 0.49145 0.83001 0.09984 0.0
H454 H 0.57355 0.96165 0.05069 0.0
H455 H 0.67125 0.03822 0.04715 0.0
C456 C 0.84763 0.60551 0.606 0.0
C457 C 0.84284 0.59043 0.63025 0.0
C458 C 0.73493 0.72233 0.63383 0.0
C459 C 0.73292 0.72967 0.60932 0.0
N460 N 0.82584 0.7189 0.57495 0.0
N461 N 0.81421 0.65623 0.66782 0.0
C462 C 0.80637 0.68818 0.59672 0.0
C463 C 0.79971 0.65858 0.64442 0.0
N464 N 0.87781 0.53614 0.59153 0.0
N465 N 0.66519 0.76383 0.64638 0.0
H466 H 0.86014 0.60728 0.67561 0.0
H467 H 0.78811 0.70775 0.6789 0.0
H468 H 0.6114 0.8037 0.63851 0.0
H469 H 0.65669 0.75256 0.66406 0.0
H470 H 0.87199 0.54162 0.57354 0.0
H471 H 0.90092 0.47039 0.59743 0.0
H472 H 0.88132 0.69106 0.56532 0.0
H473 H 0.79256 0.77847 0.56795 0.0
C474 C 0.69128 0.56153 0.88294 0.0
C475 C 0.74749 0.52169 0.90082 0.0
C476 C 0.68306 0.3653 0.89074 0.0
C477 C 0.6537 0.40236 0.86889 0.0
N478 N 0.61325 0.53849 0.84556 0.0
N479 N 0.73895 0.39983 0.92994 0.0
C480 C 0.65045 0.50164 0.86556 0.0
C481 C 0.72543 0.42735 0.90746 0.0
N482 N 0.66603 0.65352 0.88466 0.0
N483 N 0.67359 0.27051 0.89501 0.0
H484 H 0.75768 0.4483 0.94293 0.0
H485 H 0.71957 0.33342 0.93626 0.0
H486 H 0.6364 0.22521 0.88368 0.0
H487 H 0.70425 0.23668 0.90929 0.0
H488 H 0.61527 0.6848 0.87374 0.0
H489 H 0.68636 0.69235 0.89931 0.0
H490 H 0.61802 0.61033 0.8415 0.0
H491 H 0.58062 0.49631 0.83282 0.0
C492 C 0.60672 0.50229 0.0879 0.0
C493 C 0.59185 0.48267 0.11174 0.0
C494 C 0.6174 0.31654 0.1043 0.0
C495 C 0.6657 0.3416 0.08409 0.0
N496 N 0.66527 0.44223 0.05107 0.0
N497 N 0.57 0.36774 0.14225 0.0
C498 C 0.64233 0.42868 0.07367 0.0
C499 C 0.59116 0.38833 0.11982 0.0
N500 N 0.59206 0.59165 0.07959 0.0
N501 N 0.5899 0.22548 0.10744 0.0
H502 H 0.54831 0.41919 0.15394 0.0
H503 H 0.57837 0.30033 0.14934 0.0
H504 H 0.595 0.17755 0.09384 0.0
H505 H 0.55125 0.20335 0.12173 0.0
H506 H 0.60371 0.6121 0.06256 0.0
H507 H 0.56521 0.64538 0.08997 0.0
H508 H 0.65383 0.50463 0.0419 0.0
H509 H 0.69407 0.38707 0.04144 0.0
C510 C 0.73699 0.48203 0.33955 0.0
C511 C 0.83476 0.49972 0.34366 0.0
C512 C 0.82558 0.41567 0.38048 0.0
C513 C 0.72478 0.426 0.37923 0.0
N514 N 0.58396 0.47468 0.35747 0.0
N515 N 0.97446 0.42806 0.35946 0.0
C516 C 0.67985 0.45878 0.35852 0.0
C517 C 0.88094 0.45017 0.36174 0.0
N518 N 0.69955 0.49021 0.31769 0.0
N519 N 0.86784 0.37783 0.3998 0.0
H520 H 0.01015 0.44563 0.34432 0.0
H521 H 0.01149 0.38367 0.37081 0.0
H522 H 0.82821 0.35069 0.41348 0.0
H523 H 0.94155 0.37699 0.40259 0.0
H524 H 0.62904 0.47197 0.31342 0.0
H525 H 0.74319 0.50497 0.30361 0.0
H526 H 0.54997 0.50621 0.34327 0.0
H527 H 0.54069 0.46641 0.37176 0.0
C528 C 0.27532 0.44504 0.37618 0.0
C529 C 0.26794 0.4336 0.40052 0.0
C530 C 0.12755 0.53529 0.40045 0.0
C531 C 0.13826 0.54805 0.37636 0.0
N532 N 0.19869 0.48975 0.34023 0.0
N533 N 0.17513 0.44763 0.43501 0.0
C534 C 0.20289 0.49267 0.3639 0.0
C535 C 0.1893 0.47161 0.41241 0.0
N536 N 0.35629 0.42048 0.36492 0.0
N537 N 0.06122 0.58711 0.41178 0.0
H538 H 0.21977 0.40056 0.44386 0.0
H539 H 0.11568 0.46795 0.4443 0.0
H540 H 0.013 0.63047 0.40286 0.0
H541 H 0.05563 0.58902 0.42973 0.0
H542 H 0.37187 0.44475 0.34834 0.0
H543 H 0.41117 0.38145 0.37234 0.0
H544 H 0.23911 0.44315 0.33052 0.0
H545 H 0.14814 0.52629 0.33037 0.0
C546 C 0.22843 0.30888 0.13426 0.0
C547 C 0.21299 0.31559 0.11011 0.0
C548 C 0.33308 0.43986 0.10714 0.0
C549 C 0.33811 0.44323 0.13163 0.0
N550 N 0.32326 0.36061 0.16772 0.0
N551 N 0.28153 0.35017 0.07325 0.0
C552 C 0.29849 0.36872 0.14486 0.0
C553 C 0.27832 0.36664 0.09646 0.0
N554 N 0.16999 0.25206 0.14699 0.0
N555 N 0.37056 0.51196 0.09431 0.0
H556 H 0.23971 0.29724 0.06537 0.0
H557 H 0.33178 0.38204 0.06255 0.0
H558 H 0.40795 0.56858 0.10185 0.0
H559 H 0.35974 0.51815 0.07648 0.0
H560 H 0.17082 0.25027 0.16502 0.0
H561 H 0.11801 0.20885 0.13907 0.0
H562 H 0.30042 0.30505 0.17819 0.0
H563 H 0.37378 0.40612 0.17546 0.0
C564 C 0.23335 0.54647 0.85447 0.0
C565 C 0.2316 0.52994 0.87863 0.0
C566 C 0.36291 0.41886 0.87632 0.0
C567 C 0.35927 0.42951 0.85192 0.0
N568 N 0.31922 0.52383 0.81873 0.0
N569 N 0.31258 0.47849 0.91348 0.0
C570 C 0.3042 0.5013 0.84137 0.0
C571 C 0.30302 0.47571 0.88989 0.0
N572 N 0.16541 0.60165 0.84405 0.0
N573 N 0.41663 0.34902 0.88627 0.0
H574 H 0.26915 0.52027 0.92375 0.0
H575 H 0.36878 0.44701 0.92258 0.0
H576 H 0.46217 0.30648 0.87686 0.0
H577 H 0.41264 0.33004 0.90365 0.0
H578 H 0.15734 0.60839 0.82617 0.0
H579 H 0.11393 0.63773 0.85334 0.0
H580 H 0.28626 0.58005 0.81021 0.0
H581 H 0.37255 0.49112 0.80926 0.0
C582 C 0.11839 0.66461 0.62877 0.0
C583 C 0.09378 0.58799 0.61421 0.0
C584 C 0.14906 0.67918 0.58146 0.0
C585 C 0.2103 0.72812 0.59694 0.0
N586 N 0.24468 0.7786 0.63597 0.0
N587 N 0.08057 0.52325 0.5756 0.0
C588 C 0.18798 0.72927 0.62076 0.0
C589 C 0.1032 0.59709 0.58995 0.0
N590 N 0.08536 0.66757 0.6508 0.0
N591 N 0.14799 0.70197 0.55856 0.0
H592 H 0.05206 0.45971 0.58181 0.0
H593 H 0.09541 0.52372 0.55797 0.0
H594 H 0.1866 0.76034 0.55248 0.0
H595 H 0.10258 0.66855 0.54653 0.0
H596 H 0.09863 0.7246 0.66189 0.0
H597 H 0.03745 0.61648 0.65687 0.0
H598 H 0.23817 0.77429 0.65389 0.0
H599 H 0.30314 0.8178 0.63036 0.0
loop_
_geom_bond_atom_site_label_1
_geom_bond_atom_site_label_2
_geom_bond_distance
_geom_bond_site_symmetry_2
_ccdc_geom_bond_type
Zn0 O6 1.920 . S
Zn0 O12 1.898 1_455 S
Zn0 O15 1.905 . S
Zn1 O9 1.905 1_565 S
Zn1 O10 1.898 1_665 S
Zn1 O18 1.920 1_565 S
Zn2 O5 2.080 . S
Zn2 O8 2.114 1_455 S
Zn2 O11 2.120 . S
Zn2 O13 2.120 1_455 S
Zn2 O14 2.114 . S
Zn2 O17 2.080 1_455 S
C3 O8 1.166 . S
C3 O9 1.182 . S
C4 O10 1.167 . S
C4 O11 1.299 . S
O5 Zn2 2.080 . S
O5 C19 1.305 . S
O6 Zn0 1.920 . S
O6 C19 1.234 . S
C7 O12 1.167 . S
C7 O13 1.299 . S
O8 Zn2 2.114 1_655 S
O8 C3 1.166 . S
O9 Zn1 1.905 1_545 S
O9 C3 1.182 . S
O10 Zn1 1.898 1_445 S
O10 C4 1.167 . S
O11 Zn2 2.120 . S
O11 C4 1.299 . S
O12 Zn0 1.898 1_655 S
O12 C7 1.167 . S
O13 Zn2 2.120 1_655 S
O13 C7 1.299 . S
O14 Zn2 2.114 . S
O14 C16 1.166 . S
O15 Zn0 1.905 . S
O15 C16 1.182 . S
C16 O14 1.166 . S
C16 O15 1.182 . S
O17 Zn2 2.080 1_655 S
O17 C20 1.305 . S
O18 Zn1 1.920 1_545 S
O18 C20 1.234 . S
C19 O5 1.305 . S
C19 O6 1.234 . S
C20 O17 1.305 . S
C20 O18 1.234 . S
Zn21 O27 1.920 . S
Zn21 O33 1.898 . S
Zn21 O36 1.905 . S
Zn22 O30 1.905 . S
Zn22 O31 1.898 . S
Zn22 O39 1.920 . S
Zn23 O26 2.080 . S
Zn23 O29 2.114 1_455 S
Zn23 O32 2.120 1_455 S
Zn23 O34 2.120 . S
Zn23 O35 2.114 . S
Zn23 O38 2.080 1_455 S
C24 O29 1.166 . S
C24 O30 1.182 . S
C25 O31 1.167 . S
C25 O32 1.299 . S
O26 Zn23 2.080 . S
O26 C40 1.305 . S
O27 Zn21 1.920 . S
O27 C40 1.234 . S
C28 O33 1.167 . S
C28 O34 1.299 . S
O29 Zn23 2.114 1_655 S
O29 C24 1.166 . S
O30 Zn22 1.905 . S
O30 C24 1.182 . S
O31 Zn22 1.898 . S
O31 C25 1.167 . S
O32 Zn23 2.120 1_655 S
O32 C25 1.299 . S
O33 Zn21 1.898 . S
O33 C28 1.167 . S
O34 Zn23 2.120 . S
O34 C28 1.299 . S
O35 Zn23 2.114 . S
O35 C37 1.166 . S
O36 Zn21 1.905 . S
O36 C37 1.182 . S
C37 O35 1.166 . S
C37 O36 1.182 . S
O38 Zn23 2.080 1_655 S
O38 C41 1.305 . S
O39 Zn22 1.920 . S
O39 C41 1.234 . S
C40 O26 1.305 . S
C40 O27 1.234 . S
C41 O38 1.305 . S
C41 O39 1.234 . S
Zn42 O48 1.920 . S
Zn42 O54 1.898 . S
Zn42 O57 1.905 . S
Zn43 O51 1.905 1_545 S
Zn43 O52 1.898 1_545 S
Zn43 O60 1.920 1_545 S
Zn44 O47 2.080 . S
Zn44 O50 2.114 . S
Zn44 O53 2.120 . S
Zn44 O55 2.120 . S
Zn44 O56 2.114 . S
Zn44 O59 2.080 . S
C45 O50 1.166 . S
C45 O51 1.182 . S
C46 O52 1.167 . S
C46 O53 1.299 . S
O47 Zn44 2.080 . S
O47 C61 1.305 . S
O48 Zn42 1.920 . S
O48 C61 1.234 . S
C49 O54 1.167 . S
C49 O55 1.299 . S
O50 Zn44 2.114 . S
O50 C45 1.166 . S
O51 Zn43 1.905 1_565 S
O51 C45 1.182 . S
O52 Zn43 1.898 1_565 S
O52 C46 1.167 . S
O53 Zn44 2.120 . S
O53 C46 1.299 . S
O54 Zn42 1.898 . S
O54 C49 1.167 . S
O55 Zn44 2.120 . S
O55 C49 1.299 . S
O56 Zn44 2.114 . S
O56 C58 1.166 . S
O57 Zn42 1.905 . S
O57 C58 1.182 . S
C58 O56 1.166 . S
C58 O57 1.182 . S
O59 Zn44 2.080 . S
O59 C62 1.305 . S
O60 Zn43 1.920 1_565 S
O60 C62 1.234 . S
C61 O47 1.305 . S
C61 O48 1.234 . S
C62 O59 1.305 . S
C62 O60 1.234 . S
Zn63 O69 1.920 . S
Zn63 O75 1.898 . S
Zn63 O78 1.905 . S
Zn64 O72 1.905 . S
Zn64 O73 1.898 . S
Zn64 O81 1.920 . S
Zn65 O68 2.080 . S
Zn65 O71 2.114 . S
Zn65 O74 2.120 . S
Zn65 O76 2.120 . S
Zn65 O77 2.114 . S
Zn65 O80 2.080 . S
C66 O71 1.166 . S
C66 O72 1.182 . S
C67 O73 1.167 . S
C67 O74 1.299 . S
O68 Zn65 2.080 . S
O68 C82 1.305 . S
O69 Zn63 1.920 . S
O69 C82 1.234 . S
C70 O75 1.167 . S
C70 O76 1.299 . S
O71 Zn65 2.114 . S
O71 C66 1.166 . S
O72 Zn64 1.905 . S
O72 C66 1.182 . S
O73 Zn64 1.898 . S
O73 C67 1.167 . S
O74 Zn65 2.120 . S
O74 C67 1.299 . S
O75 Zn63 1.898 . S
O75 C70 1.167 . S
O76 Zn65 2.120 . S
O76 C70 1.299 . S
O77 Zn65 2.114 . S
O77 C79 1.166 . S
O78 Zn63 1.905 . S
O78 C79 1.182 . S
C79 O77 1.166 . S
C79 O78 1.182 . S
O80 Zn65 2.080 . S
O80 C83 1.305 . S
O81 Zn64 1.920 . S
O81 C83 1.234 . S
C82 O68 1.305 . S
C82 O69 1.234 . S
C83 O80 1.305 . S
C83 O81 1.234 . S
Zn84 O90 1.920 . S
Zn84 O96 1.898 1_455 S
Zn84 O99 1.905 . S
Zn85 O93 1.905 1_545 S
Zn85 O94 1.898 1_645 S
Zn85 O102 1.920 1_545 S
Zn86 O89 2.080 . S
Zn86 O92 2.114 1_455 S
Zn86 O95 2.120 . S
Zn86 O97 2.120 1_455 S
Zn86 O98 2.114 . S
Zn86 O101 2.080 1_455 S
C87 O92 1.166 . S
C87 O93 1.182 . S
C88 O94 1.167 . S
C88 O95 1.299 . S
O89 Zn86 2.080 . S
O89 C103 1.305 . S
O90 Zn84 1.920 . S
O90 C103 1.234 . S
C91 O96 1.167 . S
C91 O97 1.299 . S
O92 Zn86 2.114 1_655 S
O92 C87 1.166 . S
O93 Zn85 1.905 1_565 S
O93 C87 1.182 . S
O94 Zn85 1.898 1_465 S
O94 C88 1.167 . S
O95 Zn86 2.120 . S
O95 C88 1.299 . S
O96 Zn84 1.898 1_655 S
O96 C91 1.167 . S
O97 Zn86 2.120 1_655 S
O97 C91 1.299 . S
O98 Zn86 2.114 . S
O98 C100 1.166 . S
O99 Zn84 1.905 . S
O99 C100 1.182 . S
C100 O98 1.166 . S
C100 O99 1.182 . S
O101 Zn86 2.080 1_655 S
O101 C104 1.305 . S
O102 Zn85 1.920 1_565 S
O102 C104 1.234 . S
C103 O89 1.305 . S
C103 O90 1.234 . S
C104 O101 1.305 . S
C104 O102 1.234 . S
Zn105 O111 1.920 . S
Zn105 O117 1.898 . S
Zn105 O120 1.905 . S
Zn106 O114 1.905 . S
Zn106 O115 1.898 . S
Zn106 O123 1.920 . S
Zn107 O110 2.080 . S
Zn107 O113 2.114 . S
Zn107 O116 2.120 . S
Zn107 O118 2.120 . S
Zn107 O119 2.114 . S
Zn107 O122 2.080 . S
C108 O113 1.166 . S
C108 O114 1.182 . S
C109 O115 1.167 . S
C109 O116 1.299 . S
O110 Zn107 2.080 . S
O110 C124 1.305 . S
O111 Zn105 1.920 . S
O111 C124 1.234 . S
C112 O117 1.167 . S
C112 O118 1.299 . S
O113 Zn107 2.114 . S
O113 C108 1.166 . S
O114 Zn106 1.905 . S
O114 C108 1.182 . S
O115 Zn106 1.898 . S
O115 C109 1.167 . S
O116 Zn107 2.120 . S
O116 C109 1.299 . S
O117 Zn105 1.898 . S
O117 C112 1.167 . S
O118 Zn107 2.120 . S
O118 C112 1.299 . S
O119 Zn107 2.114 . S
O119 C121 1.166 . S
O120 Zn105 1.905 . S
O120 C121 1.182 . S
C121 O119 1.166 . S
C121 O120 1.182 . S
O122 Zn107 2.080 . S
O122 C125 1.305 . S
O123 Zn106 1.920 . S
O123 C125 1.234 . S
C124 O110 1.305 . S
C124 O111 1.234 . S
C125 O122 1.305 . S
C125 O123 1.234 . S
Zn126 O132 1.920 1_565 S
Zn126 O138 1.898 1_565 S
Zn126 O141 1.905 1_565 S
Zn127 O135 1.905 . S
Zn127 O136 1.898 . S
Zn127 O144 1.920 . S
Zn128 O131 2.080 . S
Zn128 O134 2.114 . S
Zn128 O137 2.120 . S
Zn128 O139 2.120 . S
Zn128 O140 2.114 . S
Zn128 O143 2.080 . S
C129 O134 1.166 . S
C129 O135 1.182 . S
C130 O136 1.167 . S
C130 O137 1.299 . S
O131 Zn128 2.080 . S
O131 C145 1.305 . S
O132 Zn126 1.920 1_545 S
O132 C145 1.234 . S
C133 O138 1.167 . S
C133 O139 1.299 . S
O134 Zn128 2.114 . S
O134 C129 1.166 . S
O135 Zn127 1.905 . S
O135 C129 1.182 . S
O136 Zn127 1.898 . S
O136 C130 1.167 . S
O137 Zn128 2.120 . S
O137 C130 1.299 . S
O138 Zn126 1.898 1_545 S
O138 C133 1.167 . S
O139 Zn128 2.120 . S
O139 C133 1.299 . S
O140 Zn128 2.114 . S
O140 C142 1.166 . S
O141 Zn126 1.905 1_545 S
O141 C142 1.182 . S
C142 O140 1.166 . S
C142 O141 1.182 . S
O143 Zn128 2.080 . S
O143 C146 1.305 . S
O144 Zn127 1.920 . S
O144 C146 1.234 . S
C145 O131 1.305 . S
C145 O132 1.234 . S
C146 O143 1.305 . S
C146 O144 1.234 . S
Zn147 O153 1.920 . S
Zn147 O159 1.898 . S
Zn147 O162 1.905 . S
Zn148 O156 1.905 . S
Zn148 O157 1.898 . S
Zn148 O165 1.920 . S
Zn149 O152 2.080 . S
Zn149 O155 2.114 1_455 S
Zn149 O158 2.120 1_455 S
Zn149 O160 2.120 . S
Zn149 O161 2.114 . S
Zn149 O164 2.080 1_455 S
C150 O155 1.166 . S
C150 O156 1.182 . S
C151 O157 1.167 . S
C151 O158 1.299 . S
O152 Zn149 2.080 . S
O152 C166 1.305 . S
O153 Zn147 1.920 . S
O153 C166 1.234 . S
C154 O159 1.167 . S
C154 O160 1.299 . S
O155 Zn149 2.114 1_655 S
O155 C150 1.166 . S
O156 Zn148 1.905 . S
O156 C150 1.182 . S
O157 Zn148 1.898 . S
O157 C151 1.167 . S
O158 Zn149 2.120 1_655 S
O158 C151 1.299 . S
O159 Zn147 1.898 . S
O159 C154 1.167 . S
O160 Zn149 2.120 . S
O160 C154 1.299 . S
O161 Zn149 2.114 . S
O161 C163 1.166 . S
O162 Zn147 1.905 . S
O162 C163 1.182 . S
C163 O161 1.166 . S
C163 O162 1.182 . S
O164 Zn149 2.080 1_655 S
O164 C167 1.305 . S
O165 Zn148 1.920 . S
O165 C167 1.234 . S
C166 O152 1.305 . S
C166 O153 1.234 . S
C167 O164 1.305 . S
C167 O165 1.234 . S
C168 C169 1.363 . S
C168 C174 1.379 . S
C168 N176 1.356 . S
C169 C168 1.363 . S
C169 C175 1.363 1_554 S
C170 C171 1.363 . S
C170 C175 1.379 . S
C170 N177 1.356 . S
C171 C170 1.363 . S
C171 C174 1.363 1_556 S
N172 C174 1.357 . S
N172 H184 0.986 1_455 S
N172 H185 0.983 1_554 S
N173 C175 1.357 . S
N173 H178 0.983 1_556 S
N173 H179 0.986 . S
C174 C168 1.379 . S
C174 C171 1.363 1_554 S
C174 N172 1.357 . S
C175 C169 1.363 1_556 S
C175 C170 1.379 . S
C175 N173 1.357 . S
N176 C168 1.356 . S
N176 H182 0.984 1_455 S
N176 H183 0.984 . S
N177 C170 1.356 . S
N177 H180 0.984 . S
N177 H181 0.985 . S
H178 N173 0.983 1_554 S
H179 N173 0.986 . S
H180 N177 0.984 . S
H181 N177 0.985 . S
H182 N176 0.984 1_655 S
H183 N176 0.984 . S
H184 N172 0.986 1_655 S
H185 N172 0.983 1_556 S
C186 C187 1.363 . S
C186 C192 1.379 . S
C186 N194 1.356 . S
C187 C186 1.363 . S
C187 C193 1.363 . S
C188 C189 1.363 . S
C188 C193 1.379 . S
C188 N195 1.356 . S
C189 C188 1.363 . S
C189 C192 1.363 . S
N190 C192 1.356 . S
N190 H202 0.984 . S
N190 H203 0.985 . S
N191 C193 1.356 . S
N191 H196 0.984 . S
N191 H197 0.985 . S
C192 C186 1.379 . S
C192 C189 1.363 . S
C192 N190 1.356 . S
C193 C187 1.363 . S
C193 C188 1.379 . S
C193 N191 1.356 . S
N194 C186 1.356 . S
N194 H200 0.984 . S
N194 H201 0.984 . S
N195 C188 1.356 . S
N195 H198 0.984 . S
N195 H199 0.985 . S
H196 N191 0.984 . S
H197 N191 0.985 . S
H198 N195 0.984 . S
H199 N195 0.985 . S
H200 N194 0.984 . S
H201 N194 0.984 . S
H202 N190 0.984 . S
H203 N190 0.985 . S
C204 C205 1.363 . S
C204 C210 1.379 . S
C204 N212 1.356 . S
C205 C204 1.363 . S
C205 C211 1.363 . S
C206 C207 1.363 . S
C206 C211 1.379 . S
C206 N213 1.356 . S
C207 C206 1.363 . S
C207 C210 1.363 . S
N208 C210 1.356 . S
N208 H220 0.984 . S
N208 H221 0.985 . S
N209 C211 1.356 . S
N209 H214 0.984 . S
N209 H215 0.985 . S
C210 C204 1.379 . S
C210 C207 1.363 . S
C210 N208 1.356 . S
C211 C205 1.363 . S
C211 C206 1.379 . S
C211 N209 1.356 . S
N212 C204 1.356 . S
N212 H218 0.984 . S
N212 H219 0.984 . S
N213 C206 1.356 . S
N213 H216 0.984 . S
N213 H217 0.985 . S
H214 N209 0.984 . S
H215 N209 0.985 . S
H216 N213 0.984 . S
H217 N213 0.985 . S
H218 N212 0.984 . S
H219 N212 0.984 . S
H220 N208 0.984 . S
H221 N208 0.985 . S
C222 C223 1.363 . S
C222 C228 1.379 . S
C222 N230 1.356 . S
C223 C222 1.363 . S
C223 C229 1.363 . S
C224 C225 1.363 . S
C224 C229 1.379 . S
C224 N231 1.356 . S
C225 C224 1.363 . S
C225 C228 1.363 . S
N226 C228 1.356 . S
N226 H238 0.984 . S
N226 H239 0.985 . S
N227 C229 1.356 . S
N227 H232 0.984 . S
N227 H233 0.985 . S
C228 C222 1.379 . S
C228 C225 1.363 . S
C228 N226 1.356 . S
C229 C223 1.363 . S
C229 C224 1.379 . S
C229 N227 1.356 . S
N230 C222 1.356 . S
N230 H236 0.984 . S
N230 H237 0.984 . S
N231 C224 1.356 . S
N231 H234 0.984 . S
N231 H235 0.985 . S
H232 N227 0.984 . S
H233 N227 0.985 . S
H234 N231 0.984 . S
H235 N231 0.985 . S
H236 N230 0.984 . S
H237 N230 0.984 . S
H238 N226 0.984 . S
H239 N226 0.985 . S
C240 C241 1.363 . S
C240 C246 1.379 . S
C240 N248 1.356 . S
C241 C240 1.363 . S
C241 C247 1.363 . S
C242 C243 1.363 . S
C242 C247 1.379 . S
C242 N249 1.356 . S
C243 C242 1.363 . S
C243 C246 1.363 . S
N244 C246 1.356 . S
N244 H256 0.984 . S
N244 H257 0.985 . S
N245 C247 1.356 . S
N245 H250 0.984 . S
N245 H251 0.985 . S
C246 C240 1.379 . S
C246 C243 1.363 . S
C246 N244 1.356 . S
C247 C241 1.363 . S
C247 C242 1.379 . S
C247 N245 1.356 . S
N248 C240 1.356 . S
N248 H254 0.984 . S
N248 H255 0.984 . S
N249 C242 1.356 . S
N249 H252 0.984 . S
N249 H253 0.985 . S
H250 N245 0.984 . S
H251 N245 0.985 . S
H252 N249 0.984 . S
H253 N249 0.985 . S
H254 N248 0.984 . S
H255 N248 0.984 . S
H256 N244 0.984 . S
H257 N244 0.985 . S
C258 C259 1.363 . S
C258 C264 1.379 . S
C258 N266 1.356 . S
C259 C258 1.363 . S
C259 C265 1.363 . S
C260 C261 1.363 . S
C260 C265 1.379 . S
C260 N267 1.356 . S
C261 C260 1.363 . S
C261 C264 1.363 . S
N262 C264 1.356 . S
N262 H274 0.984 . S
N262 H275 0.985 . S
N263 C265 1.356 . S
N263 H268 0.984 . S
N263 H269 0.985 . S
C264 C258 1.379 . S
C264 C261 1.363 . S
C264 N262 1.356 . S
C265 C259 1.363 . S
C265 C260 1.379 . S
C265 N263 1.356 . S
N266 C258 1.356 . S
N266 H272 0.984 . S
N266 H273 0.984 . S
N267 C260 1.356 . S
N267 H270 0.984 . S
N267 H271 0.985 . S
H268 N263 0.984 . S
H269 N263 0.985 . S
H270 N267 0.984 . S
H271 N267 0.985 . S
H272 N266 0.984 . S
H273 N266 0.984 . S
H274 N262 0.984 . S
H275 N262 0.985 . S
C276 C277 1.363 . S
C276 C282 1.379 . S
C276 N284 1.356 . S
C277 C276 1.363 . S
C277 C283 1.363 1_545 S
C278 C279 1.363 . S
C278 C283 1.379 . S
C278 N285 1.356 . S
C279 C278 1.363 . S
C279 C282 1.363 1_565 S
N280 C282 1.356 . S
N280 H292 0.984 . S
N280 H293 0.985 1_545 S
N281 C283 1.356 . S
N281 H286 0.984 1_565 S
N281 H287 0.985 . S
C282 C276 1.379 . S
C282 C279 1.363 1_545 S
C282 N280 1.356 . S
C283 C277 1.363 1_565 S
C283 C278 1.379 . S
C283 N281 1.356 . S
N284 C276 1.356 . S
N284 H290 0.984 . S
N284 H291 0.984 . S
N285 C278 1.356 . S
N285 H288 0.984 . S
N285 H289 0.985 . S
H286 N281 0.984 1_545 S
H287 N281 0.985 . S
H288 N285 0.984 . S
H289 N285 0.985 . S
H290 N284 0.984 . S
H291 N284 0.984 . S
H292 N280 0.984 . S
H293 N280 0.985 1_565 S
C294 C295 1.334 1_556 S
C294 C300 1.406 . S
C294 N302 1.348 1_556 S
C295 C294 1.334 1_554 S
C295 C301 1.363 1_545 S
C296 C297 1.334 1_554 S
C296 C301 1.406 . S
C296 N303 1.348 1_654 S
C297 C296 1.334 1_556 S
C297 C300 1.363 1_565 S
N298 C300 1.356 . S
N298 H310 0.984 . S
N298 H311 0.985 1_545 S
N299 C301 1.356 1_455 S
N299 H304 0.985 1_565 S
N299 H305 0.984 . S
C300 C294 1.406 . S
C300 C297 1.363 1_545 S
C300 N298 1.356 . S
C301 C295 1.363 1_565 S
C301 C296 1.406 . S
C301 N299 1.356 1_655 S
N302 C294 1.348 1_554 S
N302 H308 0.984 1_554 S
N302 H309 0.984 . S
N303 C296 1.348 1_456 S
N303 H306 0.984 . S
N303 H307 0.985 1_556 S
H304 N299 0.985 1_545 S
H305 N299 0.984 . S
H306 N303 0.984 . S
H307 N303 0.985 1_554 S
H308 N302 0.984 1_556 S
H309 N302 0.984 . S
H310 N298 0.984 . S
H311 N298 0.985 1_565 S
C312 C313 1.363 . S
C312 C318 1.379 1_565 S
C312 N320 1.356 . S
C313 C312 1.363 . S
C313 C319 1.363 1_565 S
C314 C315 1.363 . S
C314 C319 1.379 . S
C314 N321 1.356 . S
C315 C314 1.363 . S
C315 C318 1.363 . S
N316 C318 1.356 1_565 S
N316 H328 0.984 . S
N316 H329 0.985 1_565 S
N317 C319 1.356 . S
N317 H322 0.984 . S
N317 H323 0.985 . S
C318 C312 1.379 1_545 S
C318 C315 1.363 . S
C318 N316 1.356 1_545 S
C319 C313 1.363 1_545 S
C319 C314 1.379 . S
C319 N317 1.356 . S
N320 C312 1.356 . S
N320 H326 0.984 . S
N320 H327 0.984 . S
N321 C314 1.356 . S
N321 H324 0.984 . S
N321 H325 0.985 . S
H322 N317 0.984 . S
H323 N317 0.985 . S
H324 N321 0.984 . S
H325 N321 0.985 . S
H326 N320 0.984 . S
H327 N320 0.984 . S
H328 N316 0.984 . S
H329 N316 0.985 1_545 S
C330 C331 1.363 . S
C330 C336 1.379 1_565 S
C330 N338 1.356 . S
C331 C330 1.363 . S
C331 C337 1.363 1_565 S
C332 C333 1.363 . S
C332 C337 1.379 . S
C332 N339 1.356 . S
C333 C332 1.363 . S
C333 C336 1.363 . S
N334 C336 1.356 1_565 S
N334 H346 0.984 . S
N334 H347 0.985 1_565 S
N335 C337 1.356 . S
N335 H340 0.984 . S
N335 H341 0.985 . S
C336 C330 1.379 1_545 S
C336 C333 1.363 . S
C336 N334 1.356 1_545 S
C337 C331 1.363 1_545 S
C337 C332 1.379 . S
C337 N335 1.356 . S
N338 C330 1.356 . S
N338 H344 0.984 . S
N338 H345 0.984 . S
N339 C332 1.356 . S
N339 H342 0.984 . S
N339 H343 0.985 . S
H340 N335 0.984 . S
H341 N335 0.985 . S
H342 N339 0.984 . S
H343 N339 0.985 . S
H344 N338 0.984 . S
H345 N338 0.984 . S
H346 N334 0.984 . S
H347 N334 0.985 1_545 S
C348 C349 1.363 1_565 S
C348 C354 1.379 . S
C348 N356 1.356 . S
C349 C348 1.363 1_545 S
C349 C355 1.363 . S
C350 C351 1.363 . S
C350 C355 1.379 1_565 S
C350 N357 1.356 1_565 S
C351 C350 1.363 . S
C351 C354 1.363 . S
N352 C354 1.356 . S
N352 H364 0.984 . S
N352 H365 0.985 . S
N353 C355 1.356 . S
N353 H358 0.984 . S
N353 H359 0.985 . S
C354 C348 1.379 . S
C354 C351 1.363 . S
C354 N352 1.356 . S
C355 C349 1.363 . S
C355 C350 1.379 1_545 S
C355 N353 1.356 . S
N356 C348 1.356 . S
N356 H362 0.984 . S
N356 H363 0.984 . S
N357 C350 1.356 1_545 S
N357 H360 0.984 1_545 S
N357 H361 0.985 . S
H358 N353 0.984 . S
H359 N353 0.985 . S
H360 N357 0.984 1_565 S
H361 N357 0.985 . S
H362 N356 0.984 . S
H363 N356 0.984 . S
H364 N352 0.984 . S
H365 N352 0.985 . S
C366 C367 1.363 1_545 S
C366 C372 1.379 . S
C366 N374 1.356 . S
C367 C366 1.363 1_565 S
C367 C373 1.363 . S
C368 C369 1.363 1_565 S
C368 C373 1.379 . S
C368 N375 1.356 . S
C369 C368 1.363 1_545 S
C369 C372 1.363 . S
N370 C372 1.356 . S
N370 H382 0.984 . S
N370 H383 0.985 . S
N371 C373 1.356 . S
N371 H376 0.984 . S
N371 H377 0.985 . S
C372 C366 1.379 . S
C372 C369 1.363 . S
C372 N370 1.356 . S
C373 C367 1.363 . S
C373 C368 1.379 . S
C373 N371 1.356 . S
N374 C366 1.356 . S
N374 H380 0.984 . S
N374 H381 0.984 1_545 S
N375 C368 1.356 . S
N375 H378 0.984 . S
N375 H379 0.985 . S
H376 N371 0.984 . S
H377 N371 0.985 . S
H378 N375 0.984 . S
H379 N375 0.985 . S
H380 N374 0.984 . S
H381 N374 0.984 1_565 S
H382 N370 0.984 . S
H383 N370 0.985 . S
C384 C385 1.363 . S
C384 C390 1.379 1_565 S
C384 N392 1.356 . S
C385 C384 1.363 . S
C385 C391 1.363 . S
C386 C387 1.363 . S
C386 C391 1.379 1_545 S
C386 N393 1.356 . S
C387 C386 1.363 . S
C387 C390 1.363 . S
N388 C390 1.356 . S
N388 H400 0.984 1_545 S
N388 H401 0.985 . S
N389 C391 1.356 . S
N389 H394 0.984 . S
N389 H395 0.985 . S
C390 C384 1.379 1_545 S
C390 C387 1.363 . S
C390 N388 1.356 . S
C391 C385 1.363 . S
C391 C386 1.379 1_565 S
C391 N389 1.356 . S
N392 C384 1.356 . S
N392 H398 0.984 . S
N392 H399 0.984 . S
N393 C386 1.356 . S
N393 H396 0.984 . S
N393 H397 0.985 . S
H394 N389 0.984 . S
H395 N389 0.985 . S
H396 N393 0.984 . S
H397 N393 0.985 . S
H398 N392 0.984 . S
H399 N392 0.984 . S
H400 N388 0.984 1_565 S
H401 N388 0.985 . S
C402 C403 1.363 . S
C402 C408 1.379 1_545 S
C402 N410 1.356 . S
C403 C402 1.363 . S
C403 C409 1.363 1_545 S
C404 C405 1.363 . S
C404 C409 1.379 . S
C404 N411 1.356 . S
C405 C404 1.363 . S
C405 C408 1.363 . S
N406 C408 1.356 . S
N406 H418 0.984 1_565 S
N406 H419 0.985 . S
N407 C409 1.356 1_545 S
N407 H412 0.984 . S
N407 H413 0.985 1_545 S
C408 C402 1.379 1_565 S
C408 C405 1.363 . S
C408 N406 1.356 . S
C409 C403 1.363 1_565 S
C409 C404 1.379 . S
C409 N407 1.356 1_565 S
N410 C402 1.356 . S
N410 H416 0.984 . S
N410 H417 0.984 . S
N411 C404 1.356 . S
N411 H414 0.984 . S
N411 H415 0.985 . S
H412 N407 0.984 . S
H413 N407 0.985 1_565 S
H414 N411 0.984 . S
H415 N411 0.985 . S
H416 N410 0.984 . S
H417 N410 0.984 . S
H418 N406 0.984 1_545 S
H419 N406 0.985 . S
C420 C421 1.363 . S
C420 C426 1.379 . S
C420 N428 1.356 . S
C421 C420 1.363 . S
C421 C427 1.363 1_565 S
C422 C423 1.363 . S
C422 C427 1.379 . S
C422 N429 1.356 . S
C423 C422 1.363 . S
C423 C426 1.363 1_545 S
N424 C426 1.355 1_545 S
N424 H436 0.978 1_545 S
N424 H437 0.992 . S
N425 C427 1.356 . S
N425 H430 0.984 1_545 S
N425 H431 0.985 . S
C426 C420 1.379 . S
C426 C423 1.363 1_565 S
C426 N424 1.355 1_565 S
C427 C421 1.363 1_545 S
C427 C422 1.379 . S
C427 N425 1.356 . S
N428 C420 1.356 . S
N428 H434 0.984 . S
N428 H435 0.984 . S
N429 C422 1.356 . S
N429 H432 0.984 . S
N429 H433 0.985 . S
H430 N425 0.984 1_565 S
H431 N425 0.985 . S
H432 N429 0.984 . S
H433 N429 0.985 . S
H434 N428 0.984 . S
H435 N428 0.984 . S
H436 N424 0.978 1_565 S
H437 N424 0.992 . S
C438 C439 1.363 . S
C438 C444 1.379 . S
C438 N446 1.356 . S
C439 C438 1.363 . S
C439 C445 1.363 1_565 S
C440 C441 1.363 . S
C440 C445 1.379 . S
C440 N447 1.356 . S
C441 C440 1.363 . S
C441 C444 1.363 1_545 S
N442 C444 1.355 1_545 S
N442 H454 0.978 1_545 S
N442 H455 0.993 . S
N443 C445 1.356 . S
N443 H448 0.984 1_545 S
N443 H449 0.985 . S
C444 C438 1.379 . S
C444 C441 1.363 1_565 S
C444 N442 1.355 1_565 S
C445 C439 1.363 1_545 S
C445 C440 1.379 . S
C445 N443 1.356 . S
N446 C438 1.356 . S
N446 H452 0.984 . S
N446 H453 0.984 . S
N447 C440 1.356 . S
N447 H450 0.984 . S
N447 H451 0.985 . S
H448 N443 0.984 1_565 S
H449 N443 0.985 . S
H450 N447 0.984 . S
H451 N447 0.985 . S
H452 N446 0.984 . S
H453 N446 0.984 . S
H454 N442 0.978 1_565 S
H455 N442 0.993 . S
C456 C457 1.363 . S
C456 C462 1.379 . S
C456 N464 1.356 . S
C457 C456 1.363 . S
C457 C463 1.363 . S
C458 C459 1.363 . S
C458 C463 1.379 . S
C458 N465 1.356 . S
C459 C458 1.363 . S
C459 C462 1.363 . S
N460 C462 1.356 . S
N460 H472 0.984 . S
N460 H473 0.985 . S
N461 C463 1.356 . S
N461 H466 0.984 . S
N461 H467 0.985 . S
C462 C456 1.379 . S
C462 C459 1.363 . S
C462 N460 1.356 . S
C463 C457 1.363 . S
C463 C458 1.379 . S
C463 N461 1.356 . S
N464 C456 1.356 . S
N464 H470 0.984 . S
N464 H471 0.984 . S
N465 C458 1.356 . S
N465 H468 0.984 . S
N465 H469 0.985 . S
H466 N461 0.984 . S
H467 N461 0.985 . S
H468 N465 0.984 . S
H469 N465 0.985 . S
H470 N464 0.984 . S
H471 N464 0.984 . S
H472 N460 0.984 . S
H473 N460 0.985 . S
C474 C475 1.363 . S
C474 C480 1.379 . S
C474 N482 1.356 . S
C475 C474 1.363 . S
C475 C481 1.363 . S
C476 C477 1.363 . S
C476 C481 1.379 . S
C476 N483 1.356 . S
C477 C476 1.363 . S
C477 C480 1.363 . S
N478 C480 1.356 . S
N478 H490 0.984 . S
N478 H491 0.985 . S
N479 C481 1.356 . S
N479 H484 0.984 . S
N479 H485 0.985 . S
C480 C474 1.379 . S
C480 C477 1.363 . S
C480 N478 1.356 . S
C481 C475 1.363 . S
C481 C476 1.379 . S
C481 N479 1.356 . S
N482 C474 1.356 . S
N482 H488 0.984 . S
N482 H489 0.984 . S
N483 C476 1.356 . S
N483 H486 0.984 . S
N483 H487 0.985 . S
H484 N479 0.984 . S
H485 N479 0.985 . S
H486 N483 0.984 . S
H487 N483 0.985 . S
H488 N482 0.984 . S
H489 N482 0.984 . S
H490 N478 0.984 . S
H491 N478 0.985 . S
C492 C493 1.363 . S
C492 C498 1.379 . S
C492 N500 1.356 . S
C493 C492 1.363 . S
C493 C499 1.363 . S
C494 C495 1.363 . S
C494 C499 1.379 . S
C494 N501 1.356 . S
C495 C494 1.363 . S
C495 C498 1.363 . S
N496 C498 1.356 . S
N496 H508 0.984 . S
N496 H509 0.985 . S
N497 C499 1.356 . S
N497 H502 0.984 . S
N497 H503 0.985 . S
C498 C492 1.379 . S
C498 C495 1.363 . S
C498 N496 1.356 . S
C499 C493 1.363 . S
C499 C494 1.379 . S
C499 N497 1.356 . S
N500 C492 1.356 . S
N500 H506 0.984 . S
N500 H507 0.984 . S
N501 C494 1.356 . S
N501 H504 0.984 . S
N501 H505 0.985 . S
H502 N497 0.984 . S
H503 N497 0.985 . S
H504 N501 0.984 . S
H505 N501 0.985 . S
H506 N500 0.984 . S
H507 N500 0.984 . S
H508 N496 0.984 . S
H509 N496 0.985 . S
C510 C511 1.363 . S
C510 C516 1.379 . S
C510 N518 1.356 . S
C511 C510 1.363 . S
C511 C517 1.363 . S
C512 C513 1.363 . S
C512 C517 1.379 . S
C512 N519 1.356 . S
C513 C512 1.363 . S
C513 C516 1.363 . S
N514 C516 1.356 . S
N514 H526 0.984 . S
N514 H527 0.985 . S
N515 C517 1.356 . S
N515 H520 0.984 . S
N515 H521 0.985 1_655 S
C516 C510 1.379 . S
C516 C513 1.363 . S
C516 N514 1.356 . S
C517 C511 1.363 . S
C517 C512 1.379 . S
C517 N515 1.356 . S
N518 C510 1.356 . S
N518 H524 0.984 . S
N518 H525 0.984 . S
N519 C512 1.356 . S
N519 H522 0.984 . S
N519 H523 0.985 . S
H520 N515 0.984 . S
H521 N515 0.985 1_455 S
H522 N519 0.984 . S
H523 N519 0.985 . S
H524 N518 0.984 . S
H525 N518 0.984 . S
H526 N514 0.984 . S
H527 N514 0.985 . S
C528 C529 1.363 . S
C528 C534 1.379 . S
C528 N536 1.356 . S
C529 C528 1.363 . S
C529 C535 1.363 . S
C530 C531 1.363 . S
C530 C535 1.379 . S
C530 N537 1.356 . S
C531 C530 1.363 . S
C531 C534 1.363 . S
N532 C534 1.356 . S
N532 H544 0.984 . S
N532 H545 0.985 . S
N533 C535 1.356 . S
N533 H538 0.984 . S
N533 H539 0.985 . S
C534 C528 1.379 . S
C534 C531 1.363 . S
C534 N532 1.356 . S
C535 C529 1.363 . S
C535 C530 1.379 . S
C535 N533 1.356 . S
N536 C528 1.356 . S
N536 H542 0.984 . S
N536 H543 0.984 . S
N537 C530 1.356 . S
N537 H540 0.984 . S
N537 H541 0.985 . S
H538 N533 0.984 . S
H539 N533 0.985 . S
H540 N537 0.984 . S
H541 N537 0.985 . S
H542 N536 0.984 . S
H543 N536 0.984 . S
H544 N532 0.984 . S
H545 N532 0.985 . S
C546 C547 1.363 . S
C546 C552 1.379 . S
C546 N554 1.356 . S
C547 C546 1.363 . S
C547 C553 1.363 . S
C548 C549 1.363 . S
C548 C553 1.379 . S
C548 N555 1.356 . S
C549 C548 1.363 . S
C549 C552 1.363 . S
N550 C552 1.356 . S
N550 H562 0.984 . S
N550 H563 0.985 . S
N551 C553 1.356 . S
N551 H556 0.984 . S
N551 H557 0.985 . S
C552 C546 1.379 . S
C552 C549 1.363 . S
C552 N550 1.356 . S
C553 C547 1.363 . S
C553 C548 1.379 . S
C553 N551 1.356 . S
N554 C546 1.356 . S
N554 H560 0.984 . S
N554 H561 0.984 . S
N555 C548 1.356 . S
N555 H558 0.984 . S
N555 H559 0.985 . S
H556 N551 0.984 . S
H557 N551 0.985 . S
H558 N555 0.984 . S
H559 N555 0.985 . S
H560 N554 0.984 . S
H561 N554 0.984 . S
H562 N550 0.984 . S
H563 N550 0.985 . S
C564 C565 1.363 . S
C564 C570 1.379 . S
C564 N572 1.356 . S
C565 C564 1.363 . S
C565 C571 1.363 . S
C566 C567 1.363 . S
C566 C571 1.379 . S
C566 N573 1.356 . S
C567 C566 1.363 . S
C567 C570 1.363 . S
N568 C570 1.356 . S
N568 H580 0.984 . S
N568 H581 0.985 . S
N569 C571 1.356 . S
N569 H574 0.984 . S
N569 H575 0.985 . S
C570 C564 1.379 . S
C570 C567 1.363 . S
C570 N568 1.356 . S
C571 C565 1.363 . S
C571 C566 1.379 . S
C571 N569 1.356 . S
N572 C564 1.356 . S
N572 H578 0.984 . S
N572 H579 0.984 . S
N573 C566 1.356 . S
N573 H576 0.984 . S
N573 H577 0.985 . S
H574 N569 0.984 . S
H575 N569 0.985 . S
H576 N573 0.984 . S
H577 N573 0.985 . S
H578 N572 0.984 . S
H579 N572 0.984 . S
H580 N568 0.984 . S
H581 N568 0.985 . S
C582 C583 1.363 . S
C582 C588 1.379 . S
C582 N590 1.356 . S
C583 C582 1.363 . S
C583 C589 1.363 . S
C584 C585 1.363 . S
C584 C589 1.379 . S
C584 N591 1.356 . S
C585 C584 1.363 . S
C585 C588 1.363 . S
N586 C588 1.356 . S
N586 H598 0.984 . S
N586 H599 0.985 . S
N587 C589 1.356 . S
N587 H592 0.984 . S
N587 H593 0.985 . S
C588 C582 1.379 . S
C588 C585 1.363 . S
C588 N586 1.356 . S
C589 C583 1.363 . S
C589 C584 1.379 . S
C589 N587 1.356 . S
N590 C582 1.356 . S
N590 H596 0.984 . S
N590 H597 0.984 . S
N591 C584 1.356 . S
N591 H594 0.984 . S
N591 H595 0.985 . S
H592 N587 0.984 . S
H593 N587 0.985 . S
H594 N591 0.984 . S
H595 N591 0.985 . S
H596 N590 0.984 . S
H597 N590 0.984 . S
H598 N586 0.984 . S
H599 N586 0.985 . S
C169 C19 1.417 . S
C171 C103 1.417 . S
C187 C124 1.417 . S
C189 C41 1.418 . S
C205 C61 1.417 . S
C207 C146 1.417 . S
C223 C82 1.417 . S
C225 C167 1.418 . S
C241 C83 1.417 . S
C243 C166 1.417 . S
C259 C125 1.417 . S
C261 C40 1.417 . S
C277 C145 1.417 . S
C279 C62 1.417 . S
C295 C20 1.417 . S
C297 C104 1.417 . S
C313 C109 1.352 . S
C315 C4 1.351 . S
C331 C28 1.352 . S
C333 C133 1.351 . S
C349 C154 1.352 . S
C351 C46 1.351 . S
C367 C88 1.352 . S
C369 C67 1.352 . S
C385 C87 1.247 . S
C387 C79 1.248 . S
C403 C150 1.247 . S
C405 C45 1.248 . S
C421 C24 1.247 . S
C423 C142 1.248 . S
C439 C121 1.247 . S
C441 C3 1.248 . S
C457 C151 1.352 . S
C459 C49 1.354 . S
C475 C91 1.352 . S
C477 C70 1.353 . S
C493 C112 1.352 . S
C495 C7 1.354 . S
C511 C25 1.352 . S
C513 C130 1.354 . S
C529 C129 1.247 . S
C531 C37 1.247 . S
C547 C16 1.247 . S
C549 C108 1.247 . S
C565 C100 1.247 . S
C567 C66 1.247 . S
C583 C163 1.247 . S
C585 C58 1.246 . S
