# Generated by pormake.
# Topology uli, (4)-cn, num edge types: 1
# Building blocks:
#     Node 0, Type 0, BuildingBlock: GALJAG_clean_sbu_0, # of connection points: 4
#     Node 1, Type 0, BuildingBlock: GALJAG_clean_sbu_0, # of connection points: 4
#     Node 2, Type 0, BuildingBlock: GALJAG_clean_sbu_0, # of connection points: 4
#     Node 3, Type 0, BuildingBlock: GALJAG_clean_sbu_0, # of connection points: 4
#     Node 4, Type 0, BuildingBlock: GALJAG_clean_sbu_0, # of connection points: 4
#     Node 5, Type 0, BuildingBlock: GALJAG_clean_sbu_0, # of connection points: 4
#     Node 6, Type 0, BuildingBlock: GALJAG_clean_sbu_0, # of connection points: 4
#     Node 7, Type 0, BuildingBlock: GALJAG_clean_sbu_0, # of connection points: 4
#     Node 8, Type 0, BuildingBlock: GALJAG_clean_sbu_0, # of connection points: 4
#     Node 9, Type 0, BuildingBlock: GALJAG_clean_sbu_0, # of connection points: 4
#     Node 10, Type 0, BuildingBlock: GALJAG_clean_sbu_0, # of connection points: 4
#     Node 11, Type 0, BuildingBlock: GALJAG_clean_sbu_0, # of connection points: 4
#     Node 12, Type 0, BuildingBlock: GALJAG_clean_sbu_0, # of connection points: 4
#     Node 13, Type 0, BuildingBlock: GALJAG_clean_sbu_0, # of connection points: 4
#     Node 14, Type 0, BuildingBlock: GALJAG_clean_sbu_0, # of connection points: 4
#     Node 15, Type 0, BuildingBlock: GALJAG_clean_sbu_0, # of connection points: 4
#     Node 16, Type 0, BuildingBlock: GALJAG_clean_sbu_0, # of connection points: 4
#     Node 17, Type 0, BuildingBlock: GALJAG_clean_sbu_0, # of connection points: 4
#     Node 18, Type 0, BuildingBlock: GALJAG_clean_sbu_0, # of connection points: 4
#     Node 19, Type 0, BuildingBlock: GALJAG_clean_sbu_0, # of connection points: 4
#     Node 20, Type 0, BuildingBlock: GALJAG_clean_sbu_0, # of connection points: 4
#     Node 21, Type 0, BuildingBlock: GALJAG_clean_sbu_0, # of connection points: 4
#     Node 22, Type 0, BuildingBlock: GALJAG_clean_sbu_0, # of connection points: 4
#     Node 23, Type 0, BuildingBlock: GALJAG_clean_sbu_0, # of connection points: 4
#     Node 24, Type 0, BuildingBlock: GALJAG_clean_sbu_0, # of connection points: 4
#     Node 25, Type 0, BuildingBlock: GALJAG_clean_sbu_0, # of connection points: 4
#     Node 26, Type 0, BuildingBlock: GALJAG_clean_sbu_0, # of connection points: 4
#     Node 27, Type 0, BuildingBlock: GALJAG_clean_sbu_0, # of connection points: 4
#     Node 28, Type 0, BuildingBlock: GALJAG_clean_sbu_0, # of connection points: 4
#     Node 29, Type 0, BuildingBlock: GALJAG_clean_sbu_0, # of connection points: 4
#     Node 30, Type 0, BuildingBlock: GALJAG_clean_sbu_0, # of connection points: 4
#     Node 31, Type 0, BuildingBlock: GALJAG_clean_sbu_0, # of connection points: 4
#     Node 32, Type 0, BuildingBlock: GALJAG_clean_sbu_0, # of connection points: 4
#     Node 33, Type 0, BuildingBlock: GALJAG_clean_sbu_0, # of connection points: 4
#     Node 34, Type 0, BuildingBlock: GALJAG_clean_sbu_0, # of connection points: 4
#     Node 35, Type 0, BuildingBlock: GALJAG_clean_sbu_0, # of connection points: 4
#     Node 36, Type 0, BuildingBlock: GALJAG_clean_sbu_0, # of connection points: 4
#     Node 37, Type 0, BuildingBlock: GALJAG_clean_sbu_0, # of connection points: 4
#     Node 38, Type 0, BuildingBlock: GALJAG_clean_sbu_0, # of connection points: 4
#     Node 39, Type 0, BuildingBlock: GALJAG_clean_sbu_0, # of connection points: 4
#     Node 40, Type 0, BuildingBlock: GALJAG_clean_sbu_0, # of connection points: 4
#     Node 41, Type 0, BuildingBlock: GALJAG_clean_sbu_0, # of connection points: 4
#     Node 42, Type 0, BuildingBlock: GALJAG_clean_sbu_0, # of connection points: 4
#     Node 43, Type 0, BuildingBlock: GALJAG_clean_sbu_0, # of connection points: 4
#     Node 44, Type 0, BuildingBlock: GALJAG_clean_sbu_0, # of connection points: 4
#     Node 45, Type 0, BuildingBlock: GALJAG_clean_sbu_0, # of connection points: 4
#     Node 46, Type 0, BuildingBlock: GALJAG_clean_sbu_0, # of connection points: 4
#     Node 47, Type 0, BuildingBlock: GALJAG_clean_sbu_0, # of connection points: 4
#     Edge 48, Type (0, 0), BuildingBlock: AJUNOK_clean_linker_0, # of connection points: 2
#     Edge 49, Type (0, 0), BuildingBlock: AJUNOK_clean_linker_0, # of connection points: 2
#     Edge 50, Type (0, 0), BuildingBlock: AJUNOK_clean_linker_0, # of connection points: 2
#     Edge 51, Type (0, 0), BuildingBlock: AJUNOK_clean_linker_0, # of connection points: 2
#     Edge 52, Type (0, 0), BuildingBlock: AJUNOK_clean_linker_0, # of connection points: 2
#     Edge 53, Type (0, 0), BuildingBlock: AJUNOK_clean_linker_0, # of connection points: 2
#     Edge 54, Type (0, 0), BuildingBlock: AJUNOK_clean_linker_0, # of connection points: 2
#     Edge 55, Type (0, 0), BuildingBlock: AJUNOK_clean_linker_0, # of connection points: 2
#     Edge 56, Type (0, 0), BuildingBlock: AJUNOK_clean_linker_0, # of connection points: 2
#     Edge 57, Type (0, 0), BuildingBlock: AJUNOK_clean_linker_0, # of connection points: 2
#     Edge 58, Type (0, 0), BuildingBlock: AJUNOK_clean_linker_0, # of connection points: 2
#     Edge 59, Type (0, 0), BuildingBlock: AJUNOK_clean_linker_0, # of connection points: 2
#     Edge 60, Type (0, 0), BuildingBlock: AJUNOK_clean_linker_0, # of connection points: 2
#     Edge 61, Type (0, 0), BuildingBlock: AJUNOK_clean_linker_0, # of connection points: 2
#     Edge 62, Type (0, 0), BuildingBlock: AJUNOK_clean_linker_0, # of connection points: 2
#     Edge 63, Type (0, 0), BuildingBlock: AJUNOK_clean_linker_0, # of connection points: 2
#     Edge 64, Type (0, 0), BuildingBlock: AJUNOK_clean_linker_0, # of connection points: 2
#     Edge 65, Type (0, 0), BuildingBlock: AJUNOK_clean_linker_0, # of connection points: 2
#     Edge 66, Type (0, 0), BuildingBlock: AJUNOK_clean_linker_0, # of connection points: 2
#     Edge 67, Type (0, 0), BuildingBlock: AJUNOK_clean_linker_0, # of connection points: 2
#     Edge 68, Type (0, 0), BuildingBlock: AJUNOK_clean_linker_0, # of connection points: 2
#     Edge 69, Type (0, 0), BuildingBlock: AJUNOK_clean_linker_0, # of connection points: 2
#     Edge 70, Type (0, 0), BuildingBlock: AJUNOK_clean_linker_0, # of connection points: 2
#     Edge 71, Type (0, 0), BuildingBlock: AJUNOK_clean_linker_0, # of connection points: 2
#     Edge 72, Type (0, 0), BuildingBlock: AJUNOK_clean_linker_0, # of connection points: 2
#     Edge 73, Type (0, 0), BuildingBlock: AJUNOK_clean_linker_0, # of connection points: 2
#     Edge 74, Type (0, 0), BuildingBlock: AJUNOK_clean_linker_0, # of connection points: 2
#     Edge 75, Type (0, 0), BuildingBlock: AJUNOK_clean_linker_0, # of connection points: 2
#     Edge 76, Type (0, 0), BuildingBlock: AJUNOK_clean_linker_0, # of connection points: 2
#     Edge 77, Type (0, 0), BuildingBlock: AJUNOK_clean_linker_0, # of connection points: 2
#     Edge 78, Type (0, 0), BuildingBlock: AJUNOK_clean_linker_0, # of connection points: 2
#     Edge 79, Type (0, 0), BuildingBlock: AJUNOK_clean_linker_0, # of connection points: 2
#     Edge 80, Type (0, 0), BuildingBlock: AJUNOK_clean_linker_0, # of connection points: 2
#     Edge 81, Type (0, 0), BuildingBlock: AJUNOK_clean_linker_0, # of connection points: 2
#     Edge 82, Type (0, 0), BuildingBlock: AJUNOK_clean_linker_0, # of connection points: 2
#     Edge 83, Type (0, 0), BuildingBlock: AJUNOK_clean_linker_0, # of connection points: 2
#     Edge 84, Type (0, 0), BuildingBlock: AJUNOK_clean_linker_0, # of connection points: 2
#     Edge 85, Type (0, 0), BuildingBlock: AJUNOK_clean_linker_0, # of connection points: 2
#     Edge 86, Type (0, 0), BuildingBlock: AJUNOK_clean_linker_0, # of connection points: 2
#     Edge 87, Type (0, 0), BuildingBlock: AJUNOK_clean_linker_0, # of connection points: 2
#     Edge 88, Type (0, 0), BuildingBlock: AJUNOK_clean_linker_0, # of connection points: 2
#     Edge 89, Type (0, 0), BuildingBlock: AJUNOK_clean_linker_0, # of connection points: 2
#     Edge 90, Type (0, 0), BuildingBlock: AJUNOK_clean_linker_0, # of connection points: 2
#     Edge 91, Type (0, 0), BuildingBlock: AJUNOK_clean_linker_0, # of connection points: 2
#     Edge 92, Type (0, 0), BuildingBlock: AJUNOK_clean_linker_0, # of connection points: 2
#     Edge 93, Type (0, 0), BuildingBlock: AJUNOK_clean_linker_0, # of connection points: 2
#     Edge 94, Type (0, 0), BuildingBlock: AJUNOK_clean_linker_0, # of connection points: 2
#     Edge 95, Type (0, 0), BuildingBlock: AJUNOK_clean_linker_0, # of connection points: 2
#     Edge 96, Type (0, 0), BuildingBlock: AJUNOK_clean_linker_0, # of connection points: 2
#     Edge 97, Type (0, 0), BuildingBlock: AJUNOK_clean_linker_0, # of connection points: 2
#     Edge 98, Type (0, 0), BuildingBlock: AJUNOK_clean_linker_0, # of connection points: 2
#     Edge 99, Type (0, 0), BuildingBlock: AJUNOK_clean_linker_0, # of connection points: 2
#     Edge 100, Type (0, 0), BuildingBlock: AJUNOK_clean_linker_0, # of connection points: 2
#     Edge 101, Type (0, 0), BuildingBlock: AJUNOK_clean_linker_0, # of connection points: 2
#     Edge 102, Type (0, 0), BuildingBlock: AJUNOK_clean_linker_0, # of connection points: 2
#     Edge 103, Type (0, 0), BuildingBlock: AJUNOK_clean_linker_0, # of connection points: 2
#     Edge 104, Type (0, 0), BuildingBlock: AJUNOK_clean_linker_0, # of connection points: 2
#     Edge 105, Type (0, 0), BuildingBlock: AJUNOK_clean_linker_0, # of connection points: 2
#     Edge 106, Type (0, 0), BuildingBlock: AJUNOK_clean_linker_0, # of connection points: 2
#     Edge 107, Type (0, 0), BuildingBlock: AJUNOK_clean_linker_0, # of connection points: 2
#     Edge 108, Type (0, 0), BuildingBlock: AJUNOK_clean_linker_0, # of connection points: 2
#     Edge 109, Type (0, 0), BuildingBlock: AJUNOK_clean_linker_0, # of connection points: 2
#     Edge 110, Type (0, 0), BuildingBlock: AJUNOK_clean_linker_0, # of connection points: 2
#     Edge 111, Type (0, 0), BuildingBlock: AJUNOK_clean_linker_0, # of connection points: 2
#     Edge 112, Type (0, 0), BuildingBlock: AJUNOK_clean_linker_0, # of connection points: 2
#     Edge 113, Type (0, 0), BuildingBlock: AJUNOK_clean_linker_0, # of connection points: 2
#     Edge 114, Type (0, 0), BuildingBlock: AJUNOK_clean_linker_0, # of connection points: 2
#     Edge 115, Type (0, 0), BuildingBlock: AJUNOK_clean_linker_0, # of connection points: 2
#     Edge 116, Type (0, 0), BuildingBlock: AJUNOK_clean_linker_0, # of connection points: 2
#     Edge 117, Type (0, 0), BuildingBlock: AJUNOK_clean_linker_0, # of connection points: 2
#     Edge 118, Type (0, 0), BuildingBlock: AJUNOK_clean_linker_0, # of connection points: 2
#     Edge 119, Type (0, 0), BuildingBlock: AJUNOK_clean_linker_0, # of connection points: 2
#     Edge 120, Type (0, 0), BuildingBlock: AJUNOK_clean_linker_0, # of connection points: 2
#     Edge 121, Type (0, 0), BuildingBlock: AJUNOK_clean_linker_0, # of connection points: 2
#     Edge 122, Type (0, 0), BuildingBlock: AJUNOK_clean_linker_0, # of connection points: 2
#     Edge 123, Type (0, 0), BuildingBlock: AJUNOK_clean_linker_0, # of connection points: 2
#     Edge 124, Type (0, 0), BuildingBlock: AJUNOK_clean_linker_0, # of connection points: 2
#     Edge 125, Type (0, 0), BuildingBlock: AJUNOK_clean_linker_0, # of connection points: 2
#     Edge 126, Type (0, 0), BuildingBlock: AJUNOK_clean_linker_0, # of connection points: 2
#     Edge 127, Type (0, 0), BuildingBlock: AJUNOK_clean_linker_0, # of connection points: 2
#     Edge 128, Type (0, 0), BuildingBlock: AJUNOK_clean_linker_0, # of connection points: 2
#     Edge 129, Type (0, 0), BuildingBlock: AJUNOK_clean_linker_0, # of connection points: 2
#     Edge 130, Type (0, 0), BuildingBlock: AJUNOK_clean_linker_0, # of connection points: 2
#     Edge 131, Type (0, 0), BuildingBlock: AJUNOK_clean_linker_0, # of connection points: 2
#     Edge 132, Type (0, 0), BuildingBlock: AJUNOK_clean_linker_0, # of connection points: 2
#     Edge 133, Type (0, 0), BuildingBlock: AJUNOK_clean_linker_0, # of connection points: 2
#     Edge 134, Type (0, 0), BuildingBlock: AJUNOK_clean_linker_0, # of connection points: 2
#     Edge 135, Type (0, 0), BuildingBlock: AJUNOK_clean_linker_0, # of connection points: 2
#     Edge 136, Type (0, 0), BuildingBlock: AJUNOK_clean_linker_0, # of connection points: 2
#     Edge 137, Type (0, 0), BuildingBlock: AJUNOK_clean_linker_0, # of connection points: 2
#     Edge 138, Type (0, 0), BuildingBlock: AJUNOK_clean_linker_0, # of connection points: 2
#     Edge 139, Type (0, 0), BuildingBlock: AJUNOK_clean_linker_0, # of connection points: 2
#     Edge 140, Type (0, 0), BuildingBlock: AJUNOK_clean_linker_0, # of connection points: 2
#     Edge 141, Type (0, 0), BuildingBlock: AJUNOK_clean_linker_0, # of connection points: 2
#     Edge 142, Type (0, 0), BuildingBlock: AJUNOK_clean_linker_0, # of connection points: 2
#     Edge 143, Type (0, 0), BuildingBlock: AJUNOK_clean_linker_0, # of connection points: 2
# Relax obj value: 0.561
# Max RMSD: 0.176
# Mean RMSD: 0.176
data_MOF--net-uli--node1-GALJAG_clean_sbu_0--edge1-AJUNOK_clean_linker_0
_symmetry_space_group_name_H-M    P1
_symmetry_Int_Tables_number       1
_symmetry_cell_setting            triclinic
loop_
_symmetry_equiv_pos_as_xyz
'x, y, z'
_cell_length_a     49.630539
_cell_length_b     49.599678
_cell_length_c     49.572071
_cell_angle_alpha  90.048979
_cell_angle_beta   89.614783
_cell_angle_gamma 90.026037
loop_
_atom_site_label
_atom_site_type_symbol
_atom_site_fract_x
_atom_site_fract_y
_atom_site_fract_z
_atom_type_partial_charge
In0 In 0.08436 0.28089 0.20703 0.0
O1 O 0.08933 0.31268 0.23905 0.0
O2 O 0.08768 0.32526 0.19783 0.0
C3 C 0.08782 0.23876 0.24091 0.0
C4 C 0.03175 0.27607 0.19802 0.0
C5 C 0.12868 0.27548 0.17608 0.0
O6 O 0.09354 0.2625 0.24826 0.0
O7 O 0.08015 0.23668 0.21684 0.0
O8 O 0.10557 0.27795 0.16567 0.0
O9 O 0.12882 0.2756 0.20144 0.0
C10 C 0.09074 0.33193 0.2223 0.0
O11 O 0.04855 0.26005 0.18751 0.0
O12 O 0.04196 0.2959 0.21004 0.0
In13 In 0.73565 0.09635 0.25858 0.0
O14 O 0.69718 0.10239 0.28263 0.0
O15 O 0.69496 0.0812 0.24528 0.0
C16 C 0.77428 0.12496 0.28282 0.0
C17 C 0.75316 0.04733 0.27002 0.0
C18 C 0.73456 0.1248 0.21278 0.0
O19 O 0.74971 0.12775 0.28924 0.0
O20 O 0.7789 0.10761 0.26483 0.0
O21 O 0.74415 0.10119 0.21361 0.0
O22 O 0.72567 0.13373 0.23494 0.0
C23 C 0.68241 0.09118 0.26514 0.0
O24 O 0.75481 0.05711 0.24652 0.0
O25 O 0.74184 0.06208 0.28749 0.0
In26 In 0.90173 0.71968 0.20157 0.0
O27 O 0.94341 0.73447 0.18913 0.0
O28 O 0.93623 0.7215 0.22962 0.0
C29 C 0.87006 0.72391 0.15868 0.0
C30 C 0.89666 0.66661 0.20815 0.0
C31 C 0.87791 0.75904 0.22989 0.0
O32 O 0.89471 0.73055 0.15723 0.0
O33 O 0.86211 0.71561 0.18138 0.0
O34 O 0.87339 0.73444 0.23464 0.0
O35 O 0.89426 0.76359 0.21089 0.0
C36 C 0.95215 0.73233 0.21298 0.0
O37 O 0.89349 0.68332 0.22715 0.0
O38 O 0.90525 0.67662 0.18627 0.0
In39 In 0.2651 0.91373 0.25118 0.0
O40 O 0.24463 0.9512 0.23505 0.0
O41 O 0.25019 0.94736 0.27754 0.0
C42 C 0.27417 0.88082 0.20927 0.0
C43 C 0.31685 0.91704 0.2651 0.0
C44 C 0.22433 0.88459 0.2708 0.0
O45 O 0.26724 0.90518 0.20577 0.0
O46 O 0.27609 0.87359 0.23353 0.0
O47 O 0.24713 0.88471 0.28211 0.0
O48 O 0.22252 0.89902 0.24999 0.0
C49 C 0.2395 0.96021 0.25844 0.0
O50 O 0.29868 0.90887 0.28115 0.0
O51 O 0.30807 0.92724 0.24349 0.0
In52 In 0.10072 0.77339 0.81061 0.0
O53 O 0.064 0.78907 0.7888 0.0
O54 O 0.05731 0.76287 0.82193 0.0
C55 C 0.11977 0.78814 0.85921 0.0
C56 C 0.11387 0.72233 0.79824 0.0
C57 C 0.13395 0.80171 0.77788 0.0
O58 O 0.11166 0.7646 0.85423 0.0
O59 O 0.11469 0.80486 0.84082 0.0
O60 O 0.13612 0.77667 0.78142 0.0
O61 O 0.11451 0.81248 0.79042 0.0
C62 C 0.04728 0.77591 0.80266 0.0
O63 O 0.09905 0.73652 0.78325 0.0
O64 O 0.1221 0.73411 0.81917 0.0
In65 In 0.29753 0.11063 0.75594 0.0
O66 O 0.3322 0.12981 0.73321 0.0
O67 O 0.34006 0.11191 0.77158 0.0
C68 C 0.25092 0.12204 0.73148 0.0
C69 C 0.29731 0.05809 0.74543 0.0
C70 C 0.28838 0.14313 0.79795 0.0
O71 O 0.27326 0.13065 0.72235 0.0
O72 O 0.25255 0.10776 0.75241 0.0
O73 O 0.28811 0.11768 0.80054 0.0
O74 O 0.29298 0.15164 0.77439 0.0
C75 C 0.34887 0.12585 0.75208 0.0
O76 O 0.29178 0.06726 0.76868 0.0
O77 O 0.30459 0.07541 0.72819 0.0
In78 In 0.89373 0.25204 0.7487 0.0
O79 O 0.88879 0.28139 0.7141 0.0
O80 O 0.90537 0.29626 0.75066 0.0
C81 C 0.86609 0.20884 0.7319 0.0
C82 C 0.94364 0.23301 0.74418 0.0
C83 C 0.86225 0.26126 0.79185 0.0
O84 O 0.86493 0.23121 0.71969 0.0
O85 O 0.88095 0.20861 0.75243 0.0
O86 O 0.88528 0.25055 0.79396 0.0
O87 O 0.85561 0.26753 0.76818 0.0
C88 C 0.89729 0.30153 0.72718 0.0
O89 O 0.93556 0.24465 0.76546 0.0
O90 O 0.92693 0.23208 0.7252 0.0
In91 In 0.71298 0.87371 0.75773 0.0
O92 O 0.71905 0.91545 0.77553 0.0
O93 O 0.72725 0.90907 0.73356 0.0
C94 C 0.70792 0.83848 0.79834 0.0
C95 C 0.66222 0.87457 0.74013 0.0
C96 C 0.75813 0.85048 0.73967 0.0
O97 O 0.71579 0.86247 0.8023 0.0
O98 O 0.70195 0.833 0.77427 0.0
O99 O 0.73592 0.84745 0.7276 0.0
O100 O 0.75734 0.86562 0.76012 0.0
C101 C 0.72716 0.92514 0.75328 0.0
O102 O 0.68176 0.86724 0.72532 0.0
O103 O 0.66867 0.88272 0.76335 0.0
In104 In 0.17177 0.10312 0.27683 0.0
O105 O 0.21069 0.10919 0.29895 0.0
O106 O 0.17389 0.11078 0.32173 0.0
C107 C 0.19857 0.11141 0.23022 0.0
C108 C 0.16754 0.0492 0.27588 0.0
C109 C 0.13516 0.14286 0.27892 0.0
O110 O 0.21001 0.11293 0.25286 0.0
O111 O 0.17371 0.10634 0.23132 0.0
O112 O 0.12783 0.11847 0.27712 0.0
O113 O 0.1602 0.14653 0.27929 0.0
C114 C 0.19931 0.11293 0.32159 0.0
O115 O 0.16116 0.06367 0.25611 0.0
O116 O 0.17181 0.06223 0.29721 0.0
In117 In 0.89499 0.24 0.28646 0.0
O118 O 0.93491 0.22547 0.26969 0.0
O119 O 0.92763 0.26794 0.27398 0.0
C120 C 0.85942 0.2013 0.29598 0.0
C121 C 0.89539 0.25406 0.33819 0.0
C122 C 0.874 0.2527 0.23902 0.0
O123 O 0.88414 0.19585 0.29177 0.0
O124 O 0.85325 0.22598 0.29494 0.0
O125 O 0.87122 0.26834 0.2592 0.0
O126 O 0.88606 0.23079 0.24355 0.0
C127 C 0.94226 0.24941 0.26428 0.0
O128 O 0.88577 0.26927 0.32006 0.0
O129 O 0.9077 0.2334 0.32953 0.0
In130 In 0.77148 0.88449 0.26457 0.0
O131 O 0.73354 0.86799 0.28379 0.0
O132 O 0.76902 0.87072 0.30785 0.0
C133 C 0.75605 0.88794 0.21251 0.0
C134 C 0.77607 0.93588 0.27909 0.0
C135 C 0.80853 0.84554 0.26204 0.0
O136 O 0.77926 0.89418 0.22047 0.0
O137 O 0.74019 0.88045 0.23106 0.0
O138 O 0.81473 0.86954 0.26798 0.0
O139 O 0.7839 0.84154 0.25743 0.0
C140 C 0.74455 0.86382 0.30636 0.0
O141 O 0.79579 0.92299 0.26938 0.0
O142 O 0.75452 0.92273 0.28161 0.0
In143 In 0.10838 0.76618 0.25805 0.0
O144 O 0.07079 0.78677 0.24162 0.0
O145 O 0.06817 0.74647 0.25679 0.0
C146 C 0.14134 0.80571 0.2737 0.0
C147 C 0.10766 0.73963 0.30467 0.0
C148 C 0.13175 0.75019 0.21157 0.0
O149 O 0.11676 0.81013 0.2687 0.0
O150 O 0.14892 0.7817 0.27038 0.0
O151 O 0.13363 0.73683 0.23313 0.0
O152 O 0.1176 0.77118 0.21347 0.0
C153 C 0.05646 0.76622 0.24617 0.0
O154 O 0.11268 0.72822 0.28234 0.0
O155 O 0.10221 0.76448 0.30329 0.0
In156 In 0.25789 0.89761 0.70963 0.0
O157 O 0.24525 0.93988 0.72116 0.0
O158 O 0.28351 0.93444 0.70191 0.0
C159 C 0.21595 0.86713 0.72557 0.0
C160 C 0.25764 0.88658 0.65659 0.0
C161 C 0.28983 0.88206 0.75035 0.0
O162 O 0.21411 0.89251 0.72371 0.0
O163 O 0.23861 0.8576 0.71898 0.0
O164 O 0.29237 0.87231 0.72685 0.0
O165 O 0.27209 0.90008 0.7526 0.0
C166 C 0.2671 0.9504 0.71316 0.0
O167 O 0.27815 0.8828 0.67114 0.0
O168 O 0.23776 0.89705 0.66868 0.0
In169 In 0.10503 0.20195 0.71023 0.0
O170 O 0.06412 0.18206 0.71681 0.0
O171 O 0.0678 0.22531 0.71729 0.0
C172 C 0.14843 0.17046 0.70877 0.0
C173 C 0.10717 0.21378 0.65802 0.0
C174 C 0.11786 0.22256 0.758 0.0
O175 O 0.12513 0.16073 0.71348 0.0
O176 O 0.14922 0.1956 0.7048 0.0
O177 O 0.12035 0.23613 0.73642 0.0
O178 O 0.10918 0.19877 0.75506 0.0
C179 C 0.05295 0.20487 0.72034 0.0
O180 O 0.11171 0.23118 0.6762 0.0
O181 O 0.09989 0.19081 0.66644 0.0
In182 In 0.74756 0.09 0.72089 0.0
O183 O 0.76567 0.04786 0.72006 0.0
O184 O 0.72766 0.05379 0.73945 0.0
C185 C 0.79073 0.12224 0.715 0.0
C186 C 0.72243 0.09199 0.67324 0.0
C187 C 0.72993 0.11556 0.76519 0.0
O188 O 0.79263 0.09873 0.72465 0.0
O189 O 0.7674 0.12875 0.70761 0.0
O190 O 0.71875 0.11844 0.74256 0.0
O191 O 0.74947 0.09932 0.76542 0.0
C192 C 0.74621 0.03764 0.73307 0.0
O193 O 0.71029 0.09541 0.69545 0.0
O194 O 0.74702 0.08592 0.67534 0.0
In195 In 0.89433 0.75031 0.73461 0.0
O196 O 0.89349 0.72229 0.69817 0.0
O197 O 0.90468 0.76319 0.69212 0.0
C198 C 0.87273 0.72287 0.7761 0.0
C199 C 0.94371 0.75818 0.7538 0.0
C200 C 0.85308 0.78464 0.72984 0.0
O201 O 0.87462 0.71257 0.75278 0.0
O202 O 0.88211 0.74638 0.77821 0.0
O203 O 0.87589 0.79218 0.73822 0.0
O204 O 0.85125 0.75991 0.72441 0.0
C205 C 0.89867 0.74092 0.68146 0.0
O206 O 0.92811 0.77746 0.74823 0.0
O207 O 0.93495 0.73492 0.74813 0.0
In208 In 0.25111 0.1944 0.09696 0.0
O209 O 0.21858 0.1886 0.06578 0.0
O210 O 0.2593 0.18316 0.05351 0.0
C211 C 0.24439 0.15385 0.13268 0.0
C212 C 0.30202 0.21156 0.0906 0.0
C213 C 0.2204 0.23389 0.11851 0.0
O214 O 0.23146 0.15494 0.11089 0.0
O215 O 0.26174 0.17209 0.13529 0.0
O216 O 0.23816 0.22155 0.13168 0.0
O217 O 0.21919 0.22736 0.09402 0.0
C218 C 0.23492 0.18463 0.04661 0.0
O219 O 0.28229 0.22758 0.09236 0.0
O220 O 0.29576 0.18689 0.09122 0.0
In221 In 0.28176 0.7942 0.88872 0.0
O222 O 0.2817 0.81928 0.9271 0.0
O223 O 0.30211 0.78172 0.92739 0.0
C224 C 0.29952 0.82468 0.84747 0.0
C225 C 0.30338 0.74831 0.87037 0.0
C226 C 0.22752 0.79566 0.89241 0.0
O227 O 0.30386 0.83152 0.87163 0.0
O228 O 0.28589 0.80354 0.84465 0.0
O229 O 0.24095 0.77478 0.89787 0.0
O230 O 0.24148 0.81541 0.88454 0.0
C231 C 0.29417 0.80189 0.94065 0.0
O232 O 0.27819 0.75224 0.87119 0.0
O233 O 0.31746 0.76706 0.88037 0.0
In234 In 0.20585 0.25296 0.89589 0.0
O235 O 0.22502 0.29431 0.89371 0.0
O236 O 0.18434 0.2916 0.90734 0.0
C237 C 0.23973 0.21895 0.8709 0.0
C238 C 0.21097 0.23164 0.94457 0.0
C239 C 0.16881 0.25013 0.8574 0.0
O240 O 0.24526 0.24374 0.87349 0.0
O241 O 0.21742 0.2118 0.88087 0.0
O242 O 0.1651 0.239 0.88013 0.0
O243 O 0.19097 0.26222 0.85448 0.0
C244 C 0.20356 0.30667 0.9 0.0
O245 O 0.18834 0.23234 0.93301 0.0
O246 O 0.22988 0.24394 0.93269 0.0
In247 In 0.73217 0.22557 0.89258 0.0
O248 O 0.70529 0.26253 0.89411 0.0
O249 O 0.68749 0.22452 0.90261 0.0
C250 C 0.77587 0.24527 0.86731 0.0
C251 C 0.75049 0.21852 0.94237 0.0
C252 C 0.72162 0.18778 0.85548 0.0
O253 O 0.75382 0.258 0.86804 0.0
O254 O 0.77568 0.22296 0.87948 0.0
O255 O 0.73079 0.18194 0.87846 0.0
O256 O 0.71763 0.21255 0.85154 0.0
C257 C 0.68402 0.24947 0.89925 0.0
O258 O 0.73799 0.2001 0.93008 0.0
O259 O 0.75271 0.24053 0.92987 0.0
In260 In 0.75022 0.70297 0.88919 0.0
O261 O 0.72075 0.66947 0.87977 0.0
O262 O 0.75788 0.65885 0.89823 0.0
C263 C 0.72923 0.74721 0.86627 0.0
C264 C 0.74325 0.71955 0.93994 0.0
C265 C 0.79403 0.69892 0.85731 0.0
O266 O 0.71868 0.72418 0.86317 0.0
O267 O 0.75012 0.7475 0.88053 0.0
O268 O 0.7958 0.70329 0.88241 0.0
O269 O 0.7703 0.69643 0.84869 0.0
C270 C 0.73623 0.65083 0.88764 0.0
O271 O 0.76619 0.71908 0.9287 0.0
O272 O 0.7243 0.70975 0.9262 0.0
In273 In 0.73514 0.79083 0.09163 0.0
O274 O 0.72183 0.772 0.13117 0.0
O275 O 0.69152 0.78631 0.10446 0.0
C276 C 0.78017 0.76244 0.1007 0.0
C277 C 0.72687 0.77685 0.03999 0.0
C278 C 0.73944 0.84158 0.11074 0.0
O279 O 0.75701 0.754 0.10708 0.0
O280 O 0.78057 0.78533 0.08965 0.0
O281 O 0.7593 0.82622 0.10712 0.0
O282 O 0.71742 0.83223 0.1023 0.0
C283 C 0.69699 0.77529 0.12676 0.0
O284 O 0.73935 0.79809 0.04623 0.0
O285 O 0.71714 0.76408 0.05961 0.0
In286 In 0.25406 0.75628 0.09746 0.0
O287 O 0.28107 0.72003 0.10256 0.0
O288 O 0.24485 0.71539 0.07976 0.0
C289 C 0.26971 0.7975 0.12843 0.0
C290 C 0.2697 0.77565 0.05005 0.0
C291 C 0.2098 0.7458 0.12634 0.0
O292 O 0.28112 0.77465 0.1296 0.0
O293 O 0.25106 0.7993 0.11136 0.0
O294 O 0.20836 0.75735 0.10352 0.0
O295 O 0.23327 0.74002 0.13406 0.0
C296 C 0.26556 0.70441 0.08961 0.0
O297 O 0.24502 0.77492 0.05687 0.0
O298 O 0.28602 0.76624 0.06704 0.0
In299 In 0.77893 0.24369 0.10254 0.0
O300 O 0.75786 0.22528 0.06754 0.0
O301 O 0.80013 0.23298 0.06325 0.0
C302 C 0.81555 0.25532 0.14004 0.0
C303 C 0.76354 0.29462 0.09464 0.0
C304 C 0.75758 0.20254 0.13005 0.0
O305 O 0.82193 0.24288 0.11856 0.0
O306 O 0.79106 0.26173 0.14206 0.0
O307 O 0.74489 0.22438 0.12652 0.0
O308 O 0.78067 0.20154 0.11919 0.0
C309 C 0.77866 0.22404 0.05287 0.0
O310 O 0.74767 0.27682 0.10389 0.0
O311 O 0.78624 0.28584 0.08713 0.0
In312 In 0.58461 0.7488 0.71228 0.0
O313 O 0.58868 0.78387 0.74083 0.0
O314 O 0.57427 0.79164 0.70105 0.0
C315 C 0.60715 0.7053 0.73486 0.0
C316 C 0.53365 0.7327 0.71584 0.0
C317 C 0.62328 0.75669 0.67538 0.0
O318 O 0.60688 0.72798 0.74666 0.0
O319 O 0.59585 0.70488 0.71217 0.0
O320 O 0.60018 0.748 0.66872 0.0
O321 O 0.62651 0.76075 0.70026 0.0
C322 C 0.58208 0.80124 0.72332 0.0
O323 O 0.54639 0.73203 0.6936 0.0
O324 O 0.54628 0.7428 0.73542 0.0
In325 In 0.19412 0.59773 0.7233 0.0
O326 O 0.18349 0.55827 0.70262 0.0
O327 O 0.1774 0.56134 0.745 0.0
C328 C 0.19167 0.63481 0.6841 0.0
C329 C 0.16145 0.62566 0.75579 0.0
C330 C 0.24754 0.59046 0.73095 0.0
O331 O 0.18379 0.61086 0.68024 0.0
O332 O 0.20123 0.63948 0.7071 0.0
O333 O 0.23159 0.59676 0.74984 0.0
O334 O 0.23646 0.58781 0.70832 0.0
C335 C 0.17681 0.54665 0.72429 0.0
O336 O 0.18571 0.6207 0.76165 0.0
O337 O 0.15331 0.61516 0.73405 0.0
In338 In 0.39335 0.27333 0.74459 0.0
O339 O 0.39236 0.23745 0.77281 0.0
O340 O 0.41393 0.23364 0.73568 0.0
C341 C 0.35724 0.30859 0.76384 0.0
C342 C 0.43949 0.29938 0.75344 0.0
C343 C 0.36414 0.2594 0.7017 0.0
O344 O 0.36147 0.28618 0.77524 0.0
O345 O 0.37175 0.31323 0.74337 0.0
O346 O 0.38497 0.27406 0.69929 0.0
O347 O 0.35832 0.25246 0.72546 0.0
C348 C 0.40512 0.22218 0.75672 0.0
O349 O 0.43118 0.29474 0.72981 0.0
O350 O 0.42463 0.29045 0.77218 0.0
In351 In 0.77653 0.38478 0.68732 0.0
O352 O 0.7443 0.41608 0.67964 0.0
O353 O 0.78494 0.42936 0.68257 0.0
C354 C 0.76603 0.35044 0.64654 0.0
C355 C 0.82932 0.38321 0.69815 0.0
C356 C 0.7458 0.3656 0.72828 0.0
O357 O 0.75716 0.37431 0.64666 0.0
O358 O 0.78116 0.3449 0.66598 0.0
O359 O 0.75845 0.35062 0.71213 0.0
O360 O 0.7499 0.39039 0.72484 0.0
C361 C 0.76038 0.43575 0.6807 0.0
O362 O 0.81141 0.38359 0.71637 0.0
O363 O 0.82049 0.38552 0.67442 0.0
In364 In 0.59845 0.21244 0.26355 0.0
O365 O 0.55657 0.22863 0.27202 0.0
O366 O 0.56736 0.21661 0.23181 0.0
C367 C 0.62903 0.21081 0.30736 0.0
C368 C 0.59796 0.1592 0.25746 0.0
C369 C 0.62447 0.25447 0.24219 0.0
O370 O 0.60501 0.21961 0.30848 0.0
O371 O 0.63702 0.20303 0.28443 0.0
O372 O 0.62776 0.23078 0.23313 0.0
O373 O 0.60814 0.25653 0.26166 0.0
C374 C 0.55004 0.22703 0.24738 0.0
O375 O 0.60792 0.17495 0.2399 0.0
O376 O 0.58626 0.17069 0.27711 0.0
In377 In 0.75193 0.59721 0.23523 0.0
O378 O 0.78494 0.60931 0.20538 0.0
O379 O 0.79602 0.59835 0.24535 0.0
C380 C 0.7047 0.60367 0.20965 0.0
C381 C 0.75367 0.54395 0.23629 0.0
C382 C 0.74465 0.63226 0.2759 0.0
O383 O 0.72594 0.61549 0.20172 0.0
O384 O 0.70789 0.58833 0.22961 0.0
O385 O 0.74768 0.60729 0.27984 0.0
O386 O 0.74567 0.63942 0.2515 0.0
C387 C 0.8037 0.60577 0.22223 0.0
O388 O 0.74587 0.55746 0.25652 0.0
O389 O 0.76043 0.5574 0.21572 0.0
In390 In 0.37993 0.77266 0.26545 0.0
O391 O 0.42093 0.75659 0.27676 0.0
O392 O 0.41505 0.77207 0.23691 0.0
C393 C 0.34612 0.76323 0.30662 0.0
C394 C 0.37986 0.82655 0.26354 0.0
C395 C 0.36144 0.73177 0.23579 0.0
O396 O 0.37134 0.75994 0.30879 0.0
O397 O 0.33849 0.77242 0.28418 0.0
O398 O 0.35471 0.7559 0.23078 0.0
O399 O 0.37684 0.72878 0.25563 0.0
C400 C 0.43042 0.76016 0.25322 0.0
O401 O 0.37133 0.81208 0.24434 0.0
O402 O 0.38912 0.81367 0.28342 0.0
In403 In 0.22774 0.3927 0.25818 0.0
O404 O 0.24508 0.4346 0.26597 0.0
O405 O 0.23449 0.42288 0.22589 0.0
C406 C 0.22555 0.36306 0.30315 0.0
C407 C 0.17553 0.39612 0.24676 0.0
C408 C 0.26869 0.36587 0.23545 0.0
O409 O 0.2337 0.38731 0.30355 0.0
O410 O 0.21796 0.35461 0.28041 0.0
O411 O 0.2446 0.3626 0.22787 0.0
O412 O 0.2717 0.38209 0.2548 0.0
C413 C 0.24477 0.44042 0.24104 0.0
O414 O 0.19259 0.38502 0.2313 0.0
O415 O 0.18492 0.40607 0.26824 0.0
In416 In 0.71944 0.58259 0.75433 0.0
O417 O 0.70531 0.54345 0.73454 0.0
O418 O 0.74736 0.54987 0.74086 0.0
C419 C 0.6776 0.61648 0.75773 0.0
C420 C 0.72801 0.57625 0.80721 0.0
C421 C 0.74457 0.6122 0.71684 0.0
O422 O 0.67499 0.59292 0.74808 0.0
O423 O 0.70096 0.6223 0.76567 0.0
O424 O 0.75247 0.61187 0.74106 0.0
O425 O 0.72433 0.59768 0.71194 0.0
C426 C 0.72924 0.53533 0.73069 0.0
O427 O 0.74599 0.5846 0.79107 0.0
O428 O 0.70631 0.56897 0.79616 0.0
In429 In 0.37632 0.67391 0.73947 0.0
O430 O 0.34046 0.68607 0.76477 0.0
O431 O 0.37804 0.68107 0.78485 0.0
C432 C 0.35661 0.7059 0.70054 0.0
C433 C 0.42874 0.68636 0.73632 0.0
C434 C 0.35534 0.62408 0.73514 0.0
O435 O 0.3521 0.70999 0.72525 0.0
O436 O 0.3714 0.68583 0.69555 0.0
O437 O 0.35699 0.64026 0.71566 0.0
O438 O 0.36763 0.63172 0.75598 0.0
C439 C 0.35323 0.68673 0.7867 0.0
O440 O 0.41996 0.664 0.72791 0.0
O441 O 0.41145 0.70123 0.74749 0.0
In442 In 0.20848 0.38768 0.76643 0.0
O443 O 0.18151 0.37095 0.79966 0.0
O444 O 0.21327 0.39774 0.81053 0.0
C445 C 0.1971 0.36151 0.72036 0.0
C446 C 0.1924 0.43664 0.752 0.0
C447 C 0.25799 0.36731 0.77295 0.0
O448 O 0.1857 0.35523 0.74243 0.0
O449 O 0.21323 0.38101 0.72188 0.0
O450 O 0.25415 0.39209 0.76837 0.0
O451 O 0.2369 0.35313 0.77418 0.0
C452 C 0.19474 0.38213 0.8184 0.0
O453 O 0.2168 0.42948 0.75147 0.0
O454 O 0.17594 0.41954 0.76135 0.0
In455 In 0.59863 0.30054 0.77979 0.0
O456 O 0.59988 0.27044 0.81399 0.0
O457 O 0.60599 0.31202 0.82318 0.0
C458 C 0.59678 0.26829 0.7361 0.0
C459 C 0.54848 0.31938 0.77817 0.0
C460 C 0.64738 0.32276 0.77199 0.0
O461 O 0.6024 0.25931 0.75927 0.0
O462 O 0.59157 0.29313 0.73536 0.0
O463 O 0.62644 0.33715 0.77471 0.0
O464 O 0.64329 0.29773 0.77304 0.0
C465 C 0.60536 0.28801 0.83169 0.0
O466 O 0.56755 0.33139 0.76615 0.0
O467 O 0.55516 0.29904 0.79181 0.0
In468 In 0.73964 0.37616 0.22266 0.0
O469 O 0.72252 0.4173 0.23178 0.0
O470 O 0.76464 0.41357 0.2226 0.0
C471 C 0.69893 0.34109 0.22214 0.0
C472 C 0.75048 0.37279 0.17005 0.0
C473 C 0.76122 0.35827 0.26869 0.0
O474 O 0.69513 0.36589 0.22708 0.0
O475 O 0.72307 0.33448 0.2175 0.0
O476 O 0.77138 0.35243 0.24591 0.0
O477 O 0.74108 0.37372 0.26789 0.0
C478 C 0.74512 0.42878 0.22865 0.0
O479 O 0.76781 0.36705 0.18783 0.0
O480 O 0.72811 0.38112 0.17904 0.0
In481 In 0.58183 0.69897 0.2258 0.0
O482 O 0.53741 0.68704 0.22754 0.0
O483 O 0.5479 0.72621 0.21378 0.0
C484 C 0.60363 0.65287 0.20705 0.0
C485 C 0.61658 0.73039 0.19888 0.0
C486 C 0.58462 0.70877 0.27914 0.0
O487 O 0.60093 0.65806 0.23177 0.0
O488 O 0.59288 0.66981 0.19157 0.0
O489 O 0.58868 0.72683 0.26164 0.0
O490 O 0.57995 0.68566 0.26965 0.0
C491 C 0.52948 0.71001 0.22008 0.0
O492 O 0.62238 0.72015 0.22149 0.0
O493 O 0.59315 0.72529 0.19058 0.0
In494 In 0.27738 0.59264 0.19153 0.0
O495 O 0.3004 0.55474 0.20152 0.0
O496 O 0.26129 0.55147 0.18365 0.0
C497 C 0.30817 0.63601 0.19877 0.0
C498 C 0.27015 0.60509 0.13999 0.0
C499 C 0.25043 0.59604 0.23831 0.0
O500 O 0.31829 0.61256 0.19718 0.0
O501 O 0.28284 0.63708 0.19709 0.0
O502 O 0.23908 0.60119 0.21603 0.0
O503 O 0.27489 0.58939 0.23651 0.0
C504 C 0.28099 0.53972 0.19457 0.0
O505 O 0.25094 0.60559 0.15703 0.0
O506 O 0.29195 0.59521 0.14863 0.0
In507 In 0.39549 0.26223 0.19967 0.0
O508 O 0.38808 0.23014 0.16866 0.0
O509 O 0.39401 0.27048 0.15471 0.0
C510 C 0.38084 0.23849 0.24624 0.0
C511 C 0.44849 0.26117 0.20514 0.0
C512 C 0.35814 0.3008 0.20083 0.0
O513 O 0.37431 0.22895 0.22357 0.0
O514 O 0.3953 0.25931 0.24514 0.0
O515 O 0.38294 0.30638 0.20325 0.0
O516 O 0.35273 0.27621 0.19757 0.0
C517 C 0.38856 0.24624 0.14888 0.0
O518 O 0.43515 0.28231 0.21025 0.0
O519 O 0.43521 0.24169 0.19574 0.0
In520 In 0.76905 0.72744 0.59709 0.0
O521 O 0.75844 0.70812 0.55737 0.0
O522 O 0.76113 0.75109 0.55927 0.0
C523 C 0.77123 0.68809 0.63357 0.0
C524 C 0.82164 0.73832 0.60051 0.0
C525 C 0.72174 0.74633 0.61538 0.0
O526 O 0.76786 0.6832 0.60872 0.0
O527 O 0.77341 0.7127 0.63964 0.0
O528 O 0.74328 0.75989 0.61811 0.0
O529 O 0.72459 0.72395 0.60364 0.0
C530 C 0.75498 0.73046 0.5456 0.0
O531 O 0.80381 0.75529 0.60758 0.0
O532 O 0.81267 0.71739 0.58918 0.0
In533 In 0.75856 0.25809 0.40277 0.0
O534 O 0.79625 0.23256 0.39994 0.0
O535 O 0.79865 0.27079 0.4197 0.0
C536 C 0.71636 0.23668 0.37753 0.0
C537 C 0.73355 0.25224 0.44972 0.0
C538 C 0.76848 0.29435 0.36445 0.0
O539 O 0.73811 0.22347 0.38024 0.0
O540 O 0.7167 0.26036 0.3869 0.0
O541 O 0.75954 0.30142 0.38748 0.0
O542 O 0.77173 0.26931 0.36115 0.0
C543 C 0.81113 0.25059 0.41029 0.0
O544 O 0.73699 0.27541 0.43941 0.0
O545 O 0.74528 0.23303 0.43766 0.0
In546 In 0.68029 0.73699 0.39426 0.0
O547 O 0.69183 0.71401 0.4321 0.0
O548 O 0.68688 0.75624 0.43529 0.0
C549 C 0.6286 0.72596 0.38199 0.0
C550 C 0.69837 0.7846 0.37656 0.0
C551 C 0.70741 0.70598 0.3586 0.0
O552 O 0.646 0.70788 0.38559 0.0
O553 O 0.63643 0.74913 0.38868 0.0
O554 O 0.69388 0.7263 0.35174 0.0
O555 O 0.70776 0.70158 0.38364 0.0
C556 C 0.69396 0.73473 0.4466 0.0
O557 O 0.71407 0.76613 0.38428 0.0
O558 O 0.6736 0.77916 0.37851 0.0
In559 In 0.22434 0.67375 0.38178 0.0
O560 O 0.2513 0.66781 0.4183 0.0
O561 O 0.20923 0.66821 0.42464 0.0
C562 C 0.22249 0.63811 0.341 0.0
C563 C 0.17438 0.69267 0.37928 0.0
C564 C 0.26385 0.70776 0.3667 0.0
O565 O 0.22984 0.63081 0.3643 0.0
O566 O 0.21694 0.66268 0.33884 0.0
O567 O 0.23953 0.71517 0.36839 0.0
O568 O 0.26799 0.68339 0.37257 0.0
C569 C 0.23221 0.66839 0.43511 0.0
O570 O 0.19474 0.70809 0.38033 0.0
O571 O 0.17942 0.66775 0.38122 0.0
In572 In 0.28632 0.23251 0.38517 0.0
O573 O 0.24723 0.20897 0.38599 0.0
O574 O 0.28429 0.1872 0.38361 0.0
C575 C 0.25895 0.27695 0.37082 0.0
C576 C 0.29683 0.24034 0.43775 0.0
C577 C 0.32174 0.22517 0.34457 0.0
O578 O 0.24779 0.25408 0.37223 0.0
O579 O 0.28363 0.27717 0.37664 0.0
O580 O 0.32962 0.23001 0.36828 0.0
O581 O 0.29663 0.22475 0.34174 0.0
C582 C 0.25884 0.18632 0.38369 0.0
O583 O 0.29796 0.25899 0.42065 0.0
O584 O 0.29251 0.21738 0.42792 0.0
In585 In 0.23589 0.25755 0.59433 0.0
O586 O 0.2074 0.22218 0.59771 0.0
O587 O 0.19432 0.25729 0.57655 0.0
C588 C 0.28068 0.24999 0.62271 0.0
C589 C 0.25915 0.25496 0.54615 0.0
C590 C 0.2143 0.29274 0.62898 0.0
O591 O 0.26253 0.23201 0.62153 0.0
O592 O 0.27601 0.27117 0.60945 0.0
O593 O 0.22366 0.30034 0.6063 0.0
O594 O 0.21647 0.26788 0.63382 0.0
C595 C 0.18821 0.23454 0.5863 0.0
O596 O 0.2503 0.27704 0.5556 0.0
O597 O 0.25509 0.23442 0.5607 0.0
In598 In 0.67265 0.22064 0.59551 0.0
O599 O 0.65668 0.24158 0.55779 0.0
O600 O 0.67977 0.20587 0.55328 0.0
C601 C 0.6388 0.22638 0.63758 0.0
C602 C 0.68505 0.1689 0.60191 0.0
C603 C 0.70776 0.26143 0.60236 0.0
O604 O 0.63029 0.22755 0.61355 0.0
O605 O 0.66373 0.22238 0.63981 0.0
O606 O 0.71404 0.23721 0.60711 0.0
O607 O 0.68388 0.26479 0.59469 0.0
C608 C 0.66899 0.22579 0.542 0.0
O609 O 0.70269 0.18735 0.60091 0.0
O610 O 0.66089 0.1766 0.59901 0.0
In611 In 0.24959 0.75178 0.58109 0.0
O612 O 0.22666 0.79131 0.58477 0.0
O613 O 0.26715 0.79274 0.57089 0.0
C614 C 0.21834 0.71613 0.60731 0.0
C615 C 0.24555 0.7295 0.53248 0.0
C616 C 0.28991 0.7477 0.61642 0.0
O617 O 0.21336 0.74115 0.60786 0.0
O618 O 0.2385 0.70947 0.59326 0.0
O619 O 0.29299 0.74139 0.59187 0.0
O620 O 0.26678 0.7562 0.62263 0.0
C621 C 0.24677 0.80582 0.57876 0.0
O622 O 0.26795 0.73203 0.54414 0.0
O623 O 0.22584 0.74079 0.54413 0.0
C624 C 0.98163 0.23537 0.23599 0.0
C625 C 0.96329 0.25541 0.24408 0.0
C626 C 0.00217 0.24117 0.21738 0.0
C627 C 0.0049 0.26719 0.2064 0.0
H628 H 0.98087 0.21546 0.24495 0.0
H629 H 0.01738 0.22594 0.21357 0.0
S630 S 0.95865 0.32483 0.21627 0.0
N631 N 0.94646 0.30091 0.23601 0.0
N632 N 0.98551 0.3117 0.2015 0.0
C633 C 0.9852 0.2865 0.21227 0.0
C634 C 0.96434 0.2807 0.23114 0.0
C635 C 0.78837 0.98073 0.26173 0.0
C636 C 0.77602 0.96513 0.28189 0.0
C637 C 0.7817 0.00789 0.25875 0.0
C638 C 0.76295 0.0202 0.27619 0.0
H639 H 0.80146 0.97144 0.24681 0.0
H640 H 0.79039 0.01898 0.24199 0.0
S641 S 0.72894 0.98875 0.3351 0.0
N642 N 0.74694 0.96422 0.32146 0.0
N643 N 0.73491 0.0157 0.31644 0.0
C644 C 0.75252 0.00539 0.29802 0.0
C645 C 0.75897 0.97765 0.30073 0.0
C646 C 0.02186 0.76311 0.21085 0.0
C647 C 0.02848 0.76386 0.23829 0.0
C648 C -0.0032 0.7532 0.20263 0.0
C649 C 0.97795 0.74377 0.22172 0.0
H650 H 0.03669 0.7686 0.19567 0.0
H651 H -0.00742 0.75205 0.18125 0.0
S652 S 0.98511 0.74552 0.29633 0.0
N653 N 0.01406 0.75709 0.28455 0.0
N654 N 0.96669 0.73893 0.26952 0.0
C655 C 0.98396 0.74616 0.24937 0.0
C656 C 0.00938 0.75612 0.25756 0.0
C657 C 0.20758 -0.00502 0.24143 0.0
C658 C 0.21933 0.98154 0.26334 0.0
C659 C 0.18822 0.01507 0.24554 0.0
C660 C 0.18001 0.02255 0.27175 0.0
H661 H 0.21385 0.99045 0.22094 0.0
H662 H 0.18102 0.026 0.2281 0.0
S663 S 0.20128 0.99047 0.33567 0.0
N664 N 0.21887 0.9748 0.31204 0.0
N665 N 0.18257 0.01273 0.31967 0.0
C666 C 0.1901 0.0079 0.29368 0.0
C667 C 0.20986 0.98747 0.28954 0.0
C668 C 0.9828 0.78747 0.76471 0.0
C669 C 0.96952 0.7626 0.76749 0.0
C670 C 0.00751 0.79211 0.77729 0.0
C671 C 0.01937 0.77231 0.79361 0.0
H672 H 0.97442 0.8032 0.75215 0.0
H673 H 0.01767 0.81114 0.77376 0.0
S674 S 0.99159 0.70454 0.80893 0.0
N675 N 0.96924 0.71839 0.78868 0.0
N676 N 0.0155 0.72735 0.81284 0.0
C677 C 0.00573 0.74777 0.79748 0.0
C678 C 0.98085 0.74283 0.78421 0.0
C679 C 0.27131 0.01582 0.75174 0.0
C680 C 0.29142 0.0301 0.73769 0.0
C681 C 0.26288 0.9904 0.74298 0.0
C682 C 0.27462 0.9782 0.72017 0.0
H683 H 0.26148 0.02461 0.76924 0.0
H684 H 0.24738 0.98005 0.75449 0.0
S685 S 0.32843 0.00702 0.67669 0.0
N686 N 0.32293 0.0303 0.69992 0.0
N687 N 0.30757 0.98204 0.68386 0.0
C688 C 0.295 0.99209 0.70614 0.0
C689 C 0.30328 0.01819 0.7148 0.0
C690 C 0.019 0.22902 0.74752 0.0
C691 C 0.02499 0.20832 0.72903 0.0
C692 C -0.0076 0.23586 0.75362 0.0
C693 C 0.97105 0.22263 0.74086 0.0
H694 H 0.03505 0.24052 0.7568 0.0
H695 H 0.9886 0.25254 0.76726 0.0
S696 S 0.97612 0.1653 0.69299 0.0
N697 N 0.00771 0.17309 0.69987 0.0
N698 N 0.95732 0.18644 0.71071 0.0
C699 C 0.97671 0.20101 0.72333 0.0
C700 C 0.00387 0.19366 0.71759 0.0
C701 C 0.72695 0.00063 0.7607 0.0
C702 C 0.74438 0.00889 0.73978 0.0
C703 C 0.72248 0.97331 0.7659 0.0
C704 C 0.7349 0.95346 0.74997 0.0
H705 H 0.71623 0.01538 0.77282 0.0
H706 H 0.70832 0.96775 0.78166 0.0
S707 S 0.7842 0.96448 0.69449 0.0
N708 N 0.77576 -0.00489 0.7045 0.0
N709 N 0.7669 0.94358 0.7139 0.0
C710 C 0.75324 0.96138 0.72975 0.0
C711 C 0.75814 0.9892 0.72476 0.0
C712 C 0.20117 0.1995 0.0129 0.0
C713 C 0.22717 0.18958 0.01843 0.0
C714 C 0.19559 0.21227 0.98839 0.0
C715 C 0.2159 0.21568 0.96891 0.0
H716 H 0.18552 0.19906 0.02822 0.0
H717 H 0.17574 0.2208 0.98532 0.0
S718 S 0.28529 0.188 0.97101 0.0
N719 N 0.27192 0.17996 0.00051 0.0
N720 N 0.26149 0.20429 0.95461 0.0
C721 C 0.24116 0.20369 0.97314 0.0
C722 C 0.24675 0.19041 -0.00213 0.0
C723 C 0.26926 0.81136 0.98294 0.0
C724 C 0.2924 0.80091 0.97017 0.0
C725 C 0.26243 0.8037 0.00924 0.0
C726 C 0.27883 0.78588 0.02374 0.0
H727 H 0.25522 0.82381 0.97188 0.0
H728 H 0.24372 0.81106 0.01791 0.0
S729 S 0.34358 0.75615 0.00058 0.0
N730 N 0.33303 0.77409 0.97468 0.0
N731 N 0.32068 0.76028 0.02454 0.0
C732 C 0.30318 0.77713 0.012 0.0
C733 C 0.30987 0.78455 0.98506 0.0
C734 C 0.78213 0.23227 0.97819 0.0
C735 C 0.76115 0.2153 0.96963 0.0
C736 C 0.78988 0.23294 0.00519 0.0
C737 C 0.77645 0.21704 0.02438 0.0
H738 H 0.79183 0.246 0.96416 0.0
H739 H 0.80488 0.24754 0.01137 0.0
S740 S 0.72313 0.16641 0.0116 0.0
N741 N 0.72952 0.17977 0.98173 0.0
N742 N 0.74364 0.18161 0.03286 0.0
C743 C 0.75696 0.19848 0.01577 0.0
C744 C 0.7494 0.19744 0.9882 0.0
C745 C 0.75616 0.75442 0.97346 0.0
C746 C 0.73829 0.73397 0.96544 0.0
C747 C 0.75126 0.76962 -0.00325 0.0
C748 C 0.72856 0.76455 0.01305 0.0
H749 H 0.77401 0.75887 0.96158 0.0
H750 H 0.76596 0.78466 0.00261 0.0
S751 S 0.6751 0.71393 0.00038 0.0
N752 N 0.69644 0.71017 0.97495 0.0
N753 N 0.68759 0.73832 0.01924 0.0
C754 C 0.71027 0.74451 0.00502 0.0
C755 C 0.71505 0.7293 0.98108 0.0
C756 C 0.49133 0.72874 0.74228 0.0
C757 C 0.50677 0.7208 0.71979 0.0
C758 C 0.46645 0.71682 0.74783 0.0
C759 C 0.45628 0.69617 0.73138 0.0
H760 H 0.49845 0.74445 0.75569 0.0
H761 H 0.45502 0.72395 0.76511 0.0
S762 S 0.48908 0.66767 0.67029 0.0
N763 N 0.51035 0.69088 0.68102 0.0
N764 N 0.46345 0.66812 0.69171 0.0
C765 C 0.47161 0.68772 0.709 0.0
C766 C 0.49687 0.7002 0.70308 0.0
C767 C 0.16606 0.479 0.75653 0.0
C768 C 0.18407 0.46293 0.7417 0.0
C769 C 0.16184 0.50595 0.74935 0.0
C770 C 0.17495 0.51722 0.72676 0.0
H771 H 0.1567 0.47129 0.77477 0.0
H772 H 0.14948 0.51845 0.76241 0.0
S773 S 0.22047 0.48163 0.67897 0.0
N774 N 0.21263 0.4588 0.70195 0.0
N775 N 0.20407 0.50923 0.68785 0.0
C776 C 0.19096 0.50047 0.71037 0.0
C777 C 0.19576 0.47331 0.71807 0.0
C778 C 0.47421 0.31373 0.78621 0.0
C779 C 0.46584 0.31176 0.75921 0.0
C780 C 0.50097 0.31946 0.7925 0.0
C781 C 0.52007 0.32395 0.77205 0.0
H782 H 0.46054 0.30889 0.80263 0.0
H783 H 0.50718 0.31834 0.81339 0.0
S784 S 0.50765 0.32564 0.69847 0.0
N785 N 0.47806 0.3182 0.71199 0.0
N786 N 0.5285 0.32938 0.72403 0.0
C787 C 0.51147 0.32496 0.74516 0.0
C788 C 0.48423 0.31872 0.73866 0.0
C789 C 0.72456 0.4669 0.69721 0.0
C790 C 0.75092 0.46319 0.6871 0.0
C791 C 0.71723 0.49075 0.71054 0.0
C792 C 0.73606 0.51151 0.71424 0.0
H793 H 0.70999 0.45065 0.69644 0.0
H794 H 0.69717 0.49235 0.71913 0.0
S795 S 0.80573 0.51396 0.68654 0.0
N796 N 0.79445 0.48383 0.67806 0.0
N797 N 0.78075 0.52865 0.70305 0.0
C798 C 0.7617 0.50896 0.70219 0.0
C799 C 0.76909 0.4848 0.68856 0.0
C800 C 0.49216 0.23825 0.20015 0.0
C801 C 0.47614 0.25698 0.21409 0.0
C802 C 0.51616 0.22891 0.21113 0.0
C803 C 0.52469 0.23762 0.23667 0.0
H804 H 0.48563 0.23006 0.181 0.0
H805 H 0.5277 0.21417 0.19981 0.0
S806 S 0.49047 0.28765 0.28069 0.0
N807 N 0.47079 0.28496 0.25408 0.0
N808 N 0.51609 0.26712 0.27503 0.0
C809 C 0.5093 0.25702 0.2505 0.0
C810 C 0.48497 0.26688 0.23907 0.0
C811 C 0.73049 0.4727 0.24767 0.0
C812 C 0.74852 0.45793 0.23147 0.0
C813 C 0.73302 0.50064 0.25011 0.0
C814 C 0.75323 0.51455 0.23589 0.0
H815 H 0.71433 0.46263 0.25848 0.0
H816 H 0.71851 0.5115 0.26241 0.0
S817 S 0.80596 0.48505 0.19163 0.0
N818 N 0.78785 0.45902 0.20186 0.0
N819 N 0.79211 0.51176 0.20596 0.0
C820 C 0.77162 0.50001 0.22 0.0
C821 C 0.76939 0.47156 0.21792 0.0
C822 C 0.48828 0.71107 0.24835 0.0
C823 C 0.50214 0.71991 0.22521 0.0
C824 C 0.46544 0.72475 0.25771 0.0
C825 C 0.45553 0.74742 0.24397 0.0
H826 H 0.49592 0.69437 0.26012 0.0
H827 H 0.45545 0.71745 0.27578 0.0
S828 S 0.48351 0.7771 0.18108 0.0
N829 N 0.50384 0.75172 0.18802 0.0
N830 N 0.46037 0.77712 0.20518 0.0
C831 C 0.46858 0.75573 0.22015 0.0
C832 C 0.49202 0.74201 0.21084 0.0
C833 C 0.26217 0.49407 0.19007 0.0
C834 C 0.27755 0.51237 0.20499 0.0
C835 C 0.25206 0.4707 0.202 0.0
C836 C 0.25656 0.46505 0.22943 0.0
H837 H 0.25693 0.49844 0.16935 0.0
H838 H 0.23986 0.45742 0.18972 0.0
S839 S 0.29656 0.50633 0.27698 0.0
N840 N 0.29784 0.52312 0.24824 0.0
N841 N 0.27852 0.47903 0.27088 0.0
C842 C 0.27275 0.48273 0.24438 0.0
C843 C 0.28341 0.50643 0.23206 0.0
C844 C 0.73317 0.70864 0.50615 0.0
C845 C 0.74064 0.73238 0.51971 0.0
C846 C 0.71719 0.70957 0.48306 0.0
C847 C 0.70797 0.73425 0.47272 0.0
H848 H 0.73953 0.68911 0.51351 0.0
H849 H 0.7123 0.69076 0.4731 0.0
S850 S 0.72156 0.80224 0.50093 0.0
N851 N 0.73743 0.78135 0.52126 0.0
N852 N 0.70728 0.78306 0.47786 0.0
C853 C 0.71512 0.75818 0.48616 0.0
C854 C 0.73155 0.75723 0.5096 0.0
C855 C 0.70619 0.22017 0.47672 0.0
C856 C 0.71441 0.2469 0.47196 0.0
C857 C 0.68863 0.21383 0.49785 0.0
C858 C 0.67863 0.23395 0.51512 0.0
H859 H 0.71386 0.20377 0.46442 0.0
H860 H 0.68418 0.19278 0.50173 0.0
S861 S 0.69196 0.3074 0.50988 0.0
N862 N 0.7095 0.29397 0.48483 0.0
N863 N 0.67661 0.28198 0.52504 0.0
C864 C 0.68522 0.261 0.50959 0.0
C865 C 0.70319 0.26749 0.48794 0.0
C866 C 0.26164 0.688 0.47042 0.0
C867 C 0.23619 0.67808 0.4629 0.0
C868 C 0.26455 0.70453 0.49311 0.0
C869 C 0.24211 0.71179 0.50892 0.0
H870 H 0.27921 0.68435 0.45786 0.0
H871 H 0.28437 0.71239 0.49774 0.0
S872 S 0.17203 0.68708 0.50071 0.0
N873 N 0.18885 0.67368 0.47519 0.0
N874 N 0.19429 0.70492 0.51772 0.0
C875 C 0.21693 0.70045 0.50276 0.0
C876 C 0.214 0.68342 0.47985 0.0
C877 C 0.28069 0.2271 0.51046 0.0
C878 C 0.27286 0.25271 0.51982 0.0
C879 C 0.29092 0.22359 0.48442 0.0
C880 C 0.29374 0.24558 0.46682 0.0
H881 H 0.27785 0.20934 0.52288 0.0
H882 H 0.29516 0.20327 0.47756 0.0
S883 S 0.28026 0.31743 0.48307 0.0
N884 N 0.27167 0.30089 0.51071 0.0
N885 N 0.29103 0.29433 0.46157 0.0
C886 C 0.28816 0.27162 0.47667 0.0
C887 C 0.27758 0.27519 0.50322 0.0
C888 C 0.0958 0.16529 0.25798 0.0
C889 C 0.11696 0.16608 0.27655 0.0
C890 C 0.08448 0.18924 0.24828 0.0
C891 C 0.09385 0.21458 0.25709 0.0
H892 H 0.08977 0.14634 0.24895 0.0
H893 H 0.06974 0.18791 0.23231 0.0
S894 S 0.14473 0.22676 0.31015 0.0
N895 N 0.14376 0.19365 0.30679 0.0
N896 N 0.12228 0.23868 0.28882 0.0
C897 C 0.11266 0.21538 0.27809 0.0
C898 C 0.12432 0.19105 0.28775 0.0
C899 C 0.84386 0.15399 0.29037 0.0
C900 C 0.83847 0.18047 0.29878 0.0
C901 C 0.82293 0.13542 0.28722 0.0
C902 C 0.79598 0.14268 0.29251 0.0
H903 H 0.86407 0.14804 0.28452 0.0
H904 H 0.82777 0.11568 0.27916 0.0
S905 S 0.77202 0.20824 0.31948 0.0
N906 N 0.80489 0.21202 0.31595 0.0
N907 N 0.76549 0.17711 0.30967 0.0
C908 C 0.79065 0.16833 0.30325 0.0
C909 C 0.81196 0.18727 0.30644 0.0
C910 C 0.83662 0.77571 0.25275 0.0
C911 C 0.86271 0.78086 0.24297 0.0
C912 C 0.81962 0.79689 0.26026 0.0
C913 C 0.82836 0.82382 0.25871 0.0
H914 H 0.82865 0.75536 0.25301 0.0
H915 H 0.79914 0.7922 0.26634 0.0
S916 S 0.89637 0.84748 0.23839 0.0
N917 N 0.8976 0.81439 0.23484 0.0
N918 N 0.86569 0.85432 0.24956 0.0
C919 C 0.85513 0.82908 0.25108 0.0
C920 C 0.87232 0.80752 0.243 0.0
C921 C 0.17587 0.87296 0.27041 0.0
C922 C 0.20218 0.86657 0.2786 0.0
C923 C 0.15539 0.85365 0.27112 0.0
C924 C 0.16076 0.82724 0.27965 0.0
H925 H 0.17145 0.89259 0.2619 0.0
H926 H 0.13586 0.8589 0.26304 0.0
S927 S 0.22515 0.80171 0.30742 0.0
N928 N 0.23164 0.83325 0.29892 0.0
N929 N 0.19314 0.79666 0.30003 0.0
C930 C 0.18634 0.8213 0.2902 0.0
C931 C 0.20711 0.8411 0.28978 0.0
C932 C 0.15066 0.84564 0.75953 0.0
C933 C 0.15378 0.81758 0.76209 0.0
C934 C 0.17043 0.86149 0.74687 0.0
C935 C 0.19411 0.84981 0.73637 0.0
H936 H 0.13308 0.85563 0.76794 0.0
H937 H 0.16746 0.88309 0.74597 0.0
S938 S 0.2114 0.77693 0.73654 0.0
N939 N 0.18187 0.77859 0.75195 0.0
N940 N 0.21898 0.80824 0.72824 0.0
C941 C 0.19706 0.82164 0.738 0.0
C942 C 0.17694 0.8055 0.75082 0.0
C943 C 0.22276 0.15451 0.70575 0.0
C944 C 0.22455 0.1308 0.72105 0.0
C945 C 0.19774 0.16631 0.7005 0.0
C946 C 0.17361 0.1547 0.71014 0.0
H947 H 0.24083 0.16492 0.69917 0.0
H948 H 0.19743 0.18535 0.6898 0.0
S949 S 0.16723 0.09028 0.74748 0.0
N950 N 0.19999 0.09432 0.74305 0.0
N951 N 0.15292 0.11655 0.733 0.0
C952 C 0.17499 0.12984 0.72354 0.0
C953 C 0.2005 0.11789 0.72908 0.0
C954 C 0.82708 0.18876 0.70774 0.0
C955 C 0.8497 0.18528 0.72423 0.0
C956 C 0.8089 0.16762 0.70356 0.0
C957 C 0.81282 0.14219 0.71554 0.0
H958 H 0.82261 0.20829 0.69908 0.0
H959 H 0.79106 0.17162 0.69175 0.0
S960 S 0.87116 0.12169 0.75715 0.0
N961 N 0.8767 0.15376 0.75018 0.0
N962 N 0.84255 0.11395 0.74219 0.0
C963 C 0.83639 0.13791 0.73045 0.0
C964 C 0.85482 0.1595 0.73487 0.0
C965 C 0.83056 0.82791 0.74145 0.0
C966 C 0.82969 0.80283 0.72835 0.0
C967 C 0.80749 0.84391 0.74366 0.0
C968 C 0.78282 0.83552 0.73262 0.0
H969 H 0.84883 0.83472 0.75116 0.0
H970 H 0.80879 0.86256 0.75497 0.0
S971 S 0.77086 0.77301 0.69331 0.0
N972 N 0.8029 0.77142 0.70188 0.0
N973 N 0.75948 0.80163 0.70605 0.0
C974 C 0.78212 0.81132 0.7179 0.0
C975 C 0.80559 0.7949 0.7158 0.0
C976 C 0.23748 0.13068 0.20471 0.0
C977 C 0.2126 0.11719 0.20452 0.0
C978 C 0.24895 0.14047 0.18078 0.0
C979 C 0.23596 0.13703 0.15583 0.0
H980 H 0.24743 0.13512 0.22359 0.0
H981 H 0.26727 0.15226 0.18215 0.0
S982 S 0.17325 0.09821 0.14399 0.0
N983 N 0.17738 0.09726 0.17699 0.0
N984 N 0.19899 0.11567 0.13197 0.0
C985 C 0.21241 0.12134 0.1551 0.0
C986 C 0.20066 0.11146 0.17949 0.0
C987 C 0.82511 0.27426 0.18546 0.0
C988 C 0.834 0.25932 0.16288 0.0
C989 C 0.83932 0.27381 0.20973 0.0
C990 C 0.86268 0.25818 0.21224 0.0
H991 H 0.80628 0.2853 0.18486 0.0
H992 H 0.83102 0.28434 0.227 0.0
S993 S 0.89748 0.22026 0.15763 0.0
N994 N 0.86992 0.23208 0.14339 0.0
N995 N 0.8966 0.2311 0.18912 0.0
C996 C 0.87317 0.24529 0.18914 0.0
C997 C 0.85882 0.24592 0.16438 0.0
C998 C 0.72391 0.87574 0.17594 0.0
C999 C 0.74962 0.88484 0.18355 0.0
C1000 C 0.71947 0.86513 0.15013 0.0
C1001 C 0.74072 0.86296 0.13133 0.0
H1002 H 0.70769 0.87472 0.19063 0.0
H1003 H 0.70014 0.85587 0.14608 0.0
S1004 S 0.8098 0.89005 0.13894 0.0
N1005 N 0.79504 0.89604 0.16829 0.0
N1006 N 0.78673 0.87536 0.1201 0.0
C1007 C 0.76544 0.87513 0.13749 0.0
C1008 C 0.76991 0.88625 0.1636 0.0
C1009 C 0.14577 0.76118 0.16446 0.0
C1010 C 0.14796 0.74428 0.18718 0.0
C1011 C 0.1647 0.76005 0.14341 0.0
C1012 C 0.18652 0.74212 0.14454 0.0
H1013 H 0.13023 0.77649 0.16361 0.0
H1014 H 0.1633 0.7746 0.1272 0.0
S1015 S 0.19844 0.69002 0.19682 0.0
N1016 N 0.17138 0.70633 0.20746 0.0
N1017 N 0.20708 0.70436 0.16799 0.0
C1018 C 0.18754 0.72344 0.16586 0.0
C1019 C 0.16818 0.72446 0.18717 0.0
C1020 C 0.29856 0.88297 0.79968 0.0
C1021 C 0.30178 0.86981 0.77463 0.0
C1022 C 0.30103 0.86884 0.82401 0.0
C1023 C 0.30659 0.84115 0.82388 0.0
H1024 H 0.29186 0.90374 0.8005 0.0
H1025 H 0.29594 0.87901 0.84272 0.0
S1026 S 0.32326 0.79892 0.76442 0.0
N1027 N 0.31589 0.82875 0.75163 0.0
N1028 N 0.32012 0.80217 0.79743 0.0
C1029 C 0.31305 0.82859 0.79928 0.0
C1030 C 0.31083 0.84298 0.77455 0.0
C1031 C 0.12471 0.21523 0.8071 0.0
C1032 C 0.12642 0.23256 0.78464 0.0
C1033 C 0.13661 0.22208 0.83165 0.0
C1034 C 0.15075 0.24637 0.83442 0.0
H1035 H 0.11528 0.1956 0.8054 0.0
H1036 H 0.13633 0.20745 0.84787 0.0
S1037 S 0.15635 0.30113 0.78385 0.0
N1038 N 0.13967 0.27693 0.76827 0.0
N1039 N 0.16247 0.28957 0.81442 0.0
C1040 C 0.15062 0.26489 0.813 0.0
C1041 C 0.13832 0.25803 0.78806 0.0
C1042 C 0.73377 0.12508 0.81421 0.0
C1043 C 0.72299 0.13201 0.789 0.0
C1044 C 0.73166 0.14257 0.83624 0.0
C1045 C 0.71895 0.16773 0.83372 0.0
H1046 H 0.74491 0.10648 0.81671 0.0
H1047 H 0.74135 0.13692 0.85492 0.0
S1048 S 0.68437 0.19395 0.77297 0.0
N1049 N 0.69672 0.1645 0.76347 0.0
N1050 N 0.69294 0.19757 0.80489 0.0
C1051 C 0.70649 0.17415 0.80913 0.0
C1052 C 0.70845 0.15621 0.78674 0.0
C1053 C 0.8143 0.69015 0.81201 0.0
C1054 C 0.81732 0.69966 0.83861 0.0
C1055 C 0.83383 0.69545 0.79217 0.0
C1056 C 0.85676 0.71085 0.7982 0.0
H1057 H 0.79608 0.6797 0.80611 0.0
H1058 H 0.82993 0.68923 0.77162 0.0
S1059 S 0.87636 0.73649 0.86556 0.0
N1060 N 0.84682 0.72196 0.87065 0.0
N1061 N 0.88324 0.73243 0.83317 0.0
C1062 C 0.86111 0.71849 0.82513 0.0
C1063 C 0.84144 0.71275 0.84542 0.0
C1064 C 0.15223 0.26474 0.13261 0.0
C1065 C 0.15356 0.27026 0.16037 0.0
C1066 C 0.17481 0.25503 0.11852 0.0
C1067 C 0.19937 0.25033 0.1318 0.0
H1068 H 0.13332 0.26654 0.12199 0.0
H1069 H 0.17245 0.24952 0.09752 0.0
S1070 S 0.21458 0.26609 0.20324 0.0
N1071 N 0.18251 0.27403 0.19973 0.0
N1072 N 0.2246 0.25515 0.17337 0.0
C1073 C 0.20152 0.25786 0.15899 0.0
C1074 C 0.17868 0.26797 0.17327 0.0
C1075 C 0.18337 0.77174 0.89514 0.0
C1076 C 0.19774 0.79599 0.89213 0.0
C1077 C 0.15609 0.77015 0.88827 0.0
C1078 C 0.14242 0.79271 0.87789 0.0
H1079 H 0.19369 0.75335 0.90073 0.0
H1080 H 0.14663 0.75046 0.88836 0.0
S1081 S 0.16889 0.86253 0.87407 0.0
N1082 N 0.19477 0.84431 0.88414 0.0
N1083 N 0.14352 0.84123 0.87101 0.0
C1084 C 0.15551 0.81784 0.87864 0.0
C1085 C 0.18328 0.81947 0.88566 0.0
C1086 C 0.25098 0.17192 0.85763 0.0
C1087 C 0.25653 0.1997 0.85553 0.0
C1088 C 0.26303 0.15328 0.84014 0.0
C1089 C 0.28078 0.16185 0.81976 0.0
H1090 H 0.23632 0.16459 0.87217 0.0
H1091 H 0.25706 0.13231 0.84153 0.0
S1092 S 0.30533 0.23164 0.80842 0.0
N1093 N 0.28353 0.23439 0.8336 0.0
N1094 N 0.30605 0.1993 0.80049 0.0
C1095 C 0.28809 0.18924 0.81871 0.0
C1096 C 0.27601 0.20822 0.83671 0.0
C1097 C 0.82395 0.24 0.85397 0.0
C1098 C 0.79947 0.25403 0.85132 0.0
C1099 C 0.84525 0.24415 0.83584 0.0
C1100 C 0.84267 0.26226 0.81428 0.0
H1101 H 0.82626 0.22471 0.86938 0.0
H1102 H 0.86309 0.23173 0.83771 0.0
S1103 S 0.78467 0.3075 0.80129 0.0
N1104 N 0.77528 0.28947 0.82772 0.0
N1105 N 0.81532 0.29708 0.7934 0.0
C1106 C 0.8192 0.27807 0.81272 0.0
C1107 C 0.79757 0.27401 0.83135 0.0
C1108 C 0.69811 0.79153 0.81306 0.0
C1109 C 0.70898 0.81708 0.81899 0.0
C1110 C 0.70331 0.76922 0.82948 0.0
C1111 C 0.71976 0.77164 0.85227 0.0
H1112 H 0.68649 0.7884 0.7949 0.0
H1113 H 0.69564 0.74971 0.8234 0.0
S1114 S 0.74974 0.83483 0.87886 0.0
N1115 N 0.73434 0.84411 0.85095 0.0
N1116 N 0.74424 0.80213 0.88182 0.0
C1117 C 0.72911 0.79744 0.85954 0.0
C1118 C 0.72365 0.8202 0.84291 0.0
C1119 C 0.82986 0.76214 0.10782 0.0
C1120 C 0.80496 0.74855 0.10919 0.0
C1121 C 0.85236 0.75242 0.12168 0.0
C1122 C 0.85045 0.72891 0.13728 0.0
H1123 H 0.8315 0.78143 0.09769 0.0
H1124 H 0.87046 0.76462 0.12213 0.0
S1125 S 0.79194 0.68267 0.14224 0.0
N1126 N 0.78129 0.70789 0.12339 0.0
N1127 N 0.82355 0.6898 0.14955 0.0
C1128 C 0.82668 0.71361 0.13629 0.0
C1129 C 0.80386 0.7234 0.12219 0.0
C1130 C 0.26372 0.84531 0.14273 0.0
C1131 C 0.27538 0.81983 0.14729 0.0
C1132 C 0.26485 0.86572 0.16224 0.0
C1133 C 0.27746 0.86123 0.18708 0.0
H1134 H 0.25269 0.84923 0.12436 0.0
H1135 H 0.25454 0.88456 0.15838 0.0
S1136 S 0.31392 0.79938 0.20769 0.0
N1137 N 0.30216 0.79222 0.17746 0.0
N1138 N 0.30426 0.83055 0.21418 0.0
C1139 C 0.29069 0.83649 0.19122 0.0
C1140 C 0.28968 0.81579 0.17128 0.0
C1141 C 0.75711 0.13763 0.16976 0.0
C1142 C 0.73648 0.14209 0.18874 0.0
C1143 C 0.76279 0.15673 0.14977 0.0
C1144 C 0.74786 0.18078 0.14793 0.0
H1145 H 0.77002 0.1201 0.17132 0.0
H1146 H 0.7798 0.15313 0.13644 0.0
S1147 S 0.68858 0.19942 0.18997 0.0
N1148 N 0.69884 0.17039 0.20249 0.0
N1149 N 0.70932 0.20628 0.1647 0.0
C1150 C 0.72572 0.18436 0.16542 0.0
C1151 C 0.72011 0.165 0.18592 0.0
C1152 C 0.63561 0.63474 0.7375 0.0
C1153 C 0.65631 0.63718 0.75649 0.0
C1154 C 0.61873 0.65656 0.73179 0.0
C1155 C 0.6218 0.68151 0.74504 0.0
H1156 H 0.63347 0.61644 0.72575 0.0
H1157 H 0.60395 0.65419 0.71598 0.0
S1158 S 0.67016 0.69669 0.79972 0.0
N1159 N 0.67691 0.66528 0.79096 0.0
N1160 N 0.64504 0.7063 0.78029 0.0
C1161 C 0.64097 0.68348 0.76566 0.0
C1162 C 0.6583 0.6613 0.77136 0.0
C1163 C 0.29367 0.58929 0.71083 0.0
C1164 C 0.27718 0.59033 0.73401 0.0
C1165 C 0.32089 0.59657 0.71196 0.0
C1166 C 0.33257 0.60495 0.73633 0.0
H1167 H 0.28504 0.58513 0.69123 0.0
H1168 H 0.3321 0.59826 0.6932 0.0
S1169 S 0.29967 0.60463 0.80378 0.0
N1170 N 0.27566 0.59541 0.7828 0.0
N1171 N 0.32692 0.60889 0.78499 0.0
C1172 C 0.31728 0.60239 0.76021 0.0
C1173 C 0.28945 0.59524 0.75902 0.0
C1174 C 0.31188 0.31499 0.7844 0.0
C1175 C 0.33426 0.32608 0.77093 0.0
C1176 C 0.28755 0.32915 0.78613 0.0
C1177 C 0.28493 0.35501 0.77482 0.0
H1178 H 0.31256 0.2946 0.79219 0.0
H1179 H 0.27039 0.31931 0.79549 0.0
S1180 S 0.33887 0.39447 0.74099 0.0
N1181 N 0.35325 0.36548 0.74863 0.0
N1182 N 0.30756 0.39229 0.75228 0.0
C1183 C 0.30778 0.36718 0.76321 0.0
C1184 C 0.33247 0.35262 0.76115 0.0
C1185 C 0.67777 0.36183 0.76225 0.0
C1186 C 0.67436 0.33393 0.76586 0.0
C1187 C 0.70208 0.37233 0.75227 0.0
C1188 C 0.72366 0.35523 0.74533 0.0
H1189 H 0.66116 0.37555 0.7659 0.0
H1190 H 0.70325 0.39377 0.74824 0.0
S1191 S 0.72663 0.28123 0.75534 0.0
N1192 N 0.696 0.2898 0.76525 0.0
N1193 N 0.74135 0.30958 0.74592 0.0
C1194 C 0.72127 0.32759 0.75086 0.0
C1195 C 0.69667 0.31691 0.76126 0.0
C1196 C 0.68299 0.29428 0.21433 0.0
C1197 C 0.67749 0.32058 0.22351 0.0
C1198 C 0.66485 0.27321 0.21893 0.0
C1199 C 0.64068 0.27766 0.23306 0.0
H1200 H 0.70194 0.28965 0.20437 0.0
H1201 H 0.67049 0.25309 0.21263 0.0
S1202 S 0.6151 0.34349 0.25809 0.0
N1203 N 0.64491 0.35049 0.24487 0.0
N1204 N 0.61073 0.31079 0.25367 0.0
C1205 C 0.63408 0.30419 0.24078 0.0
C1206 C 0.65252 0.32571 0.23593 0.0
C1207 C 0.65501 0.59888 0.21348 0.0
C1208 C 0.67732 0.61089 0.20048 0.0
C1209 C 0.6295 0.61079 0.21262 0.0
C1210 C 0.6253 0.63468 0.19816 0.0
H1211 H 0.65769 0.58162 0.22659 0.0
H1212 H 0.61363 0.6027 0.22537 0.0
S1213 S 0.67551 0.67082 0.15585 0.0
N1214 N 0.69249 0.64552 0.16915 0.0
N1215 N 0.64425 0.66755 0.16701 0.0
C1216 C 0.64646 0.64478 0.18208 0.0
C1217 C 0.67264 0.63294 0.18335 0.0
C1218 C 0.31161 0.68599 0.2017 0.0
C1219 C 0.32408 0.66056 0.20394 0.0
C1220 C 0.32462 0.70949 0.21027 0.0
C1221 C 0.35039 0.70823 0.2216 0.0
H1222 H 0.2912 0.68768 0.19423 0.0
H1223 H 0.3138 0.72843 0.20949 0.0
S1224 S 0.39336 0.64738 0.22809 0.0
N1225 N 0.36488 0.63606 0.2153 0.0
N1226 N 0.3893 0.68023 0.23165 0.0
C1227 C 0.36384 0.68327 0.22216 0.0
C1228 C 0.35068 0.65939 0.21322 0.0
C1229 C 0.33992 0.34107 0.22435 0.0
C1230 C 0.33652 0.32049 0.20527 0.0
C1231 C 0.31787 0.35623 0.23335 0.0
C1232 C 0.29178 0.35143 0.22339 0.0
H1233 H 0.35936 0.34441 0.23357 0.0
H1234 H 0.32121 0.37118 0.24893 0.0
S1235 S 0.27353 0.3028 0.16962 0.0
N1236 N 0.30609 0.29808 0.17429 0.0
N1237 N 0.26455 0.32684 0.19092 0.0
C1238 C 0.28855 0.33219 0.20285 0.0
C1239 C 0.31098 0.31664 0.19385 0.0
C1240 C 0.75084 0.62391 0.66861 0.0
C1241 C 0.75631 0.62964 0.69583 0.0
C1242 C 0.75747 0.64223 0.64825 0.0
C1243 C 0.76949 0.66707 0.65446 0.0
H1244 H 0.74039 0.60556 0.66307 0.0
H1245 H 0.75174 0.63751 0.62773 0.0
S1246 S 0.79116 0.69024 0.72216 0.0
N1247 N 0.77697 0.6606 0.72767 0.0
N1248 N 0.78931 0.6953 0.68931 0.0
C1249 C 0.77676 0.67228 0.68136 0.0
C1250 C 0.77022 0.65346 0.70211 0.0
C1251 C 0.34787 0.71426 0.65186 0.0
C1252 C 0.34302 0.72112 0.67901 0.0
C1253 C 0.33177 0.72459 0.63125 0.0
C1254 C 0.31024 0.74203 0.63716 0.0
H1255 H 0.36332 0.69973 0.64656 0.0
H1256 H 0.33523 0.71755 0.61083 0.0
S1257 S 0.29192 0.76974 0.70438 0.0
N1258 N 0.3173 0.74911 0.71029 0.0
N1259 N 0.28708 0.76855 0.67151 0.0
C1260 C 0.30661 0.75083 0.66391 0.0
C1261 C 0.32301 0.74035 0.68489 0.0
C1262 C 0.20786 0.3553 0.67169 0.0
C1263 C 0.19526 0.34547 0.69529 0.0
C1264 C 0.2122 0.33863 0.64929 0.0
C1265 C 0.2042 0.31152 0.64978 0.0
H1266 H 0.21582 0.37563 0.671 0.0
H1267 H 0.22344 0.34658 0.63226 0.0
S1268 S 0.16571 0.27737 0.70436 0.0
N1269 N 0.17138 0.308 0.71615 0.0
N1270 N 0.17944 0.27662 0.67396 0.0
C1271 C 0.18936 0.30212 0.67219 0.0
C1272 C 0.18487 0.31914 0.69499 0.0
C1273 C 0.63068 0.22165 0.68675 0.0
C1274 C 0.62222 0.23193 0.66174 0.0
C1275 C 0.6202 0.23167 0.71104 0.0
C1276 C 0.60124 0.25268 0.7111 0.0
H1277 H 0.64674 0.20687 0.68763 0.0
H1278 H 0.62868 0.22447 0.72977 0.0
S1279 S 0.56917 0.28325 0.65106 0.0
N1280 N 0.59108 0.26149 0.63844 0.0
N1281 N 0.5716 0.28077 0.68418 0.0
C1282 C 0.5908 0.26137 0.68625 0.0
C1283 C 0.60123 0.25085 0.66148 0.0
C1284 C 0.75717 0.35373 0.31853 0.0
C1285 C 0.76903 0.345 0.29414 0.0
C1286 C 0.75878 0.33816 0.34199 0.0
C1287 C 0.77217 0.31327 0.3418 0.0
H1288 H 0.74522 0.37199 0.31917 0.0
H1289 H 0.74796 0.34485 0.35983 0.0
S1290 S 0.81076 0.28366 0.28467 0.0
N1291 N 0.79774 0.31163 0.27229 0.0
N1292 N 0.80088 0.28241 0.31649 0.0
C1293 C 0.78622 0.3055 0.31828 0.0
C1294 C 0.78465 0.32139 0.2944 0.0
C1295 C 0.59303 0.6917 0.32558 0.0
C1296 C 0.588 0.71357 0.30831 0.0
C1297 C 0.60265 0.6959 0.35173 0.0
C1298 C 0.60745 0.72211 0.36147 0.0
H1299 H 0.59173 0.67118 0.31816 0.0
H1300 H 0.60888 0.6785 0.36332 0.0
S1301 S 0.59 0.78601 0.32672 0.0
N1302 N 0.58304 0.76217 0.30456 0.0
N1303 N 0.60076 0.77017 0.35388 0.0
C1304 C 0.59871 0.74406 0.34577 0.0
C1305 C 0.58924 0.73977 0.31902 0.0
C1306 C 0.2444 0.60198 0.31388 0.0
C1307 C 0.22374 0.62103 0.31675 0.0
C1308 C 0.25141 0.59205 0.28832 0.0
C1309 C 0.23787 0.60078 0.26497 0.0
H1310 H 0.25675 0.59656 0.33098 0.0
H1311 H 0.26877 0.57889 0.28669 0.0
S1312 S 0.17826 0.64571 0.26304 0.0
N1313 N 0.18677 0.64469 0.29517 0.0
N1314 N 0.19994 0.62597 0.24712 0.0
C1315 C 0.21516 0.61734 0.2681 0.0
C1316 C 0.20811 0.62752 0.29408 0.0
C1317 C 0.36445 0.23673 0.32061 0.0
C1318 C 0.33984 0.22282 0.32106 0.0
C1319 C 0.37881 0.23997 0.29642 0.0
C1320 C 0.36915 0.22914 0.27203 0.0
H1321 H 0.37168 0.2468 0.33857 0.0
H1322 H 0.39681 0.25234 0.29657 0.0
S1323 S 0.30823 0.18662 0.26387 0.0
N1324 N 0.30828 0.19492 0.29613 0.0
N1325 N 0.33539 0.20081 0.25068 0.0
C1326 C 0.34592 0.21298 0.27282 0.0
C1327 C 0.33119 0.2099 0.29738 0.0
C1328 C 0.67246 0.73859 0.62027 0.0
C1329 C 0.69534 0.75397 0.62707 0.0
C1330 C 0.64822 0.74116 0.63461 0.0
C1331 C 0.64614 0.75902 0.65644 0.0
H1332 H 0.67361 0.72339 0.60459 0.0
H1333 H 0.63171 0.72774 0.62978 0.0
S1334 S 0.698 0.80785 0.67889 0.0
N1335 N 0.71286 0.79072 0.65436 0.0
N1336 N 0.66731 0.79527 0.68167 0.0
C1337 C 0.66798 0.77623 0.66194 0.0
C1338 C 0.69261 0.77381 0.64713 0.0
C1339 C 0.66895 0.24258 0.36282 0.0
C1340 C 0.69235 0.22647 0.36333 0.0
C1341 C 0.64716 0.236 0.34636 0.0
C1342 C 0.64817 0.21324 0.32966 0.0
H1343 H 0.66786 0.26116 0.3743 0.0
H1344 H 0.63035 0.24987 0.34527 0.0
S1345 S 0.70197 0.16148 0.32751 0.0
N1346 N 0.71317 0.1844 0.3489 0.0
N1347 N 0.67232 0.17241 0.31731 0.0
C1348 C 0.67032 0.19573 0.3316 0.0
C1349 C 0.69242 0.20224 0.34864 0.0
C1350 C 0.72908 0.67746 0.29118 0.0
C1351 C 0.7382 0.65147 0.29778 0.0
C1352 C 0.72004 0.69526 0.31115 0.0
C1353 C 0.71997 0.68785 0.33851 0.0
H1354 H 0.72802 0.68387 0.27032 0.0
H1355 H 0.71242 0.71475 0.30496 0.0
S1356 S 0.74428 0.62302 0.36668 0.0
N1357 N 0.74837 0.61981 0.33375 0.0
N1358 N 0.73154 0.65342 0.37141 0.0
C1359 C 0.73024 0.66239 0.34556 0.0
C1360 C 0.73929 0.64416 0.32515 0.0
C1361 C 0.27895 0.74667 0.33867 0.0
C1362 C 0.28545 0.72523 0.35592 0.0
C1363 C 0.29906 0.76026 0.32413 0.0
C1364 C 0.32639 0.75313 0.32664 0.0
H1365 H 0.25809 0.7519 0.33506 0.0
H1366 H 0.293 0.77557 0.30982 0.0
S1367 S 0.35414 0.70132 0.37268 0.0
N1368 N 0.3212 0.69957 0.37722 0.0
N1369 N 0.35909 0.72538 0.35018 0.0
C1370 C 0.3333 0.73328 0.34559 0.0
C1371 C 0.31278 0.71921 0.36013 0.0
C1372 C 0.22452 0.29733 0.34089 0.0
C1373 C 0.24561 0.30082 0.3593 0.0
C1374 C 0.21632 0.3186 0.32434 0.0
C1375 C 0.22873 0.34409 0.32585 0.0
H1376 H 0.21576 0.27758 0.33769 0.0
H1377 H 0.2014 0.31448 0.309 0.0
S1378 S 0.28048 0.36498 0.37524 0.0
N1379 N 0.27553 0.33263 0.38141 0.0
N1380 N 0.25989 0.37276 0.35041 0.0
C1381 C 0.24761 0.34861 0.34634 0.0
C1382 C 0.25617 0.32687 0.36302 0.0
C1383 C 0.34573 0.26969 0.65633 0.0
C1384 C 0.34605 0.25301 0.67915 0.0
C1385 C 0.32523 0.26739 0.63726 0.0
C1386 C 0.30453 0.24816 0.64021 0.0
H1387 H 0.36042 0.28569 0.654 0.0
H1388 H 0.32499 0.28162 0.62069 0.0
S1389 S 0.29904 0.19661 0.69414 0.0
N1390 N 0.32603 0.21437 0.70201 0.0
N1391 N 0.28749 0.20999 0.666 0.0
C1392 C 0.30591 0.22986 0.66175 0.0
C1393 C 0.32669 0.23233 0.68131 0.0
C1394 C 0.74923 0.28027 0.6232 0.0
C1395 C 0.72578 0.2844 0.60809 0.0
C1396 C 0.76373 0.30211 0.63351 0.0
C1397 C 0.75526 0.32885 0.62911 0.0
H1398 H 0.75554 0.26007 0.62855 0.0
H1399 H 0.78065 0.29787 0.64653 0.0
S1400 S 0.69861 0.35039 0.58577 0.0
N1401 N 0.69731 0.31714 0.58535 0.0
N1402 N 0.72452 0.35824 0.60497 0.0
C1403 C 0.73348 0.33327 0.61172 0.0
C1404 C 0.7187 0.31099 0.60119 0.0
C1405 C 0.19923 0.64871 0.63649 0.0
C1406 C 0.19199 0.65559 0.66301 0.0
C1407 C 0.20582 0.66878 0.61771 0.0
C1408 C 0.20477 0.69627 0.62475 0.0
H1409 H 0.20179 0.62776 0.6308 0.0
H1410 H 0.21319 0.66268 0.598 0.0
S1411 S 0.18242 0.72452 0.69041 0.0
N1412 N 0.18096 0.69151 0.69457 0.0
N1413 N 0.19272 0.7293 0.65903 0.0
C1414 C 0.19508 0.70337 0.65044 0.0
C1415 C 0.18889 0.68296 0.6697 0.0
C1416 C 0.13765 0.38952 0.21571 0.0
C1417 C 0.1467 0.39171 0.24238 0.0
C1418 C 0.11565 0.37314 0.20948 0.0
C1419 C 0.10269 0.35805 0.22977 0.0
H1420 H 0.14952 0.39785 0.19928 0.0
H1421 H 0.11133 0.36954 0.18839 0.0
S1422 S 0.11331 0.36422 0.30344 0.0
N1423 N 0.13689 0.38344 0.28975 0.0
N1424 N 0.09567 0.3521 0.27802 0.0
C1425 C 0.10851 0.36399 0.25684 0.0
C1426 C 0.13067 0.38103 0.2632 0.0
C1427 C 0.6403 0.10657 0.2874 0.0
C1428 C 0.65328 0.09677 0.26411 0.0
C1429 C 0.6179 0.12353 0.28535 0.0
C1430 C 0.60849 0.13165 0.2599 0.0
H1431 H 0.64935 0.1038 0.30704 0.0
H1432 H 0.61072 0.13339 0.30353 0.0
S1433 S 0.62982 0.10448 0.19363 0.0
N1434 N 0.65045 0.09036 0.21545 0.0
N1435 N 0.60905 0.12335 0.2117 0.0
C1436 C 0.61822 0.11822 0.23696 0.0
C1437 C 0.6406 0.10044 0.23904 0.0
C1438 C 0.83929 0.62275 0.19084 0.0
C1439 C 0.83201 0.61308 0.21652 0.0
C1440 C 0.86359 0.63656 0.18687 0.0
C1441 C 0.88096 0.64154 0.20862 0.0
H1442 H 0.82523 0.62167 0.17426 0.0
H1443 H 0.86699 0.64625 0.16755 0.0
S1444 S 0.87467 0.6142 0.27778 0.0
N1445 N 0.84698 0.60419 0.26242 0.0
N1446 N 0.89216 0.63115 0.25497 0.0
C1447 C 0.87571 0.62877 0.23329 0.0
C1448 C 0.85122 0.61435 0.23728 0.0
C1449 C 0.36829 0.86946 0.24063 0.0
C1450 C 0.37419 0.85572 0.26464 0.0
C1451 C 0.35356 0.8935 0.24113 0.0
C1452 C 0.34347 0.90389 0.26565 0.0
H1453 H 0.37278 0.86029 0.22126 0.0
H1454 H 0.34685 0.9016 0.22203 0.0
S1455 S 0.36025 0.87984 0.33417 0.0
N1456 N 0.37469 0.85779 0.3137 0.0
N1457 N 0.34587 0.90243 0.31449 0.0
C1458 C 0.35297 0.89275 0.28979 0.0
C1459 C 0.36851 0.86859 0.28933 0.0
C1460 C 0.11302 0.683 0.76698 0.0
C1461 C 0.12298 0.69506 0.79057 0.0
C1462 C 0.12417 0.65908 0.75699 0.0
C1463 C 0.14582 0.64652 0.77014 0.0
H1464 H 0.09728 0.6927 0.75547 0.0
H1465 H 0.11686 0.65137 0.73794 0.0
S1466 S 0.17658 0.66776 0.83474 0.0
N1467 N 0.15361 0.69096 0.82854 0.0
N1468 N 0.17474 0.64609 0.80954 0.0
C1469 C 0.15462 0.65725 0.79479 0.0
C1470 C 0.14316 0.68153 0.80507 0.0
C1471 C 0.39921 0.17857 0.73314 0.0
C1472 C 0.40154 0.19268 0.75769 0.0
C1473 C 0.38461 0.15446 0.73174 0.0
C1474 C 0.37267 0.14336 0.75495 0.0
H1475 H 0.40574 0.18773 0.71436 0.0
H1476 H 0.38048 0.14591 0.71207 0.0
S1477 S 0.37921 0.16892 0.825 0.0
N1478 N 0.39525 0.19136 0.80626 0.0
N1479 N 0.36871 0.14544 0.80391 0.0
C1480 C 0.37852 0.15508 0.78013 0.0
C1481 C 0.39281 0.17997 0.78144 0.0
C1482 C 0.86792 0.35507 0.68381 0.0
C1483 C 0.85614 0.3718 0.70355 0.0
C1484 C 0.88483 0.33381 0.69125 0.0
C1485 C 0.8909 0.32919 0.71849 0.0
H1486 H 0.86129 0.35598 0.66304 0.0
H1487 H 0.89072 0.31928 0.67599 0.0
S1488 S 0.87254 0.37321 0.77629 0.0
N1489 N 0.85698 0.38665 0.75022 0.0
N1490 N 0.88952 0.34719 0.76421 0.0
C1491 C 0.88331 0.34881 0.7376 0.0
C1492 C 0.86568 0.37014 0.73008 0.0
C1493 C 0.61751 0.85846 0.75544 0.0
C1494 C 0.6344 0.86645 0.73397 0.0
C1495 C 0.59689 0.83971 0.75128 0.0
C1496 C 0.59226 0.82902 0.72549 0.0
H1497 H 0.62236 0.86385 0.77603 0.0
H1498 H 0.58672 0.83123 0.76873 0.0
S1499 S 0.62523 0.85057 0.66165 0.0
N1500 N 0.64116 0.86744 0.68545 0.0
N1501 N 0.60169 0.83291 0.67735 0.0
C1502 C 0.60574 0.8407 0.70331 0.0
C1503 C 0.62714 0.8593 0.70765 0.0
C1504 C 0.21567 0.16213 0.37622 0.0
C1505 C 0.244 0.16191 0.37561 0.0
C1506 C 0.20088 0.14368 0.36092 0.0
C1507 C 0.21403 0.1248 0.3443 0.0
H1508 H 0.2049 0.17798 0.38676 0.0
H1509 H 0.17919 0.14608 0.36007 0.0
S1510 S 0.28742 0.11171 0.34068 0.0
N1511 N 0.28439 0.13777 0.36122 0.0
N1512 N 0.25642 0.10358 0.33192 0.0
C1513 C 0.24209 0.12223 0.34609 0.0
C1514 C 0.25716 0.14071 0.36198 0.0
C1515 C 0.87545 0.22981 0.37702 0.0
C1516 C 0.88371 0.25451 0.36562 0.0
C1517 C 0.8536 0.22872 0.39503 0.0
C1518 C 0.83994 0.25232 0.40276 0.0
H1519 H 0.88335 0.21094 0.36932 0.0
H1520 H 0.84559 0.20914 0.40058 0.0
S1521 S 0.85928 0.32238 0.38471 0.0
N1522 N 0.8805 0.30323 0.36752 0.0
N1523 N 0.84028 0.30145 0.40242 0.0
C1524 C 0.85111 0.27734 0.39511 0.0
C1525 C 0.87287 0.27837 0.37621 0.0
C1526 C 0.74713 0.83482 0.347 0.0
C1527 C 0.73124 0.84826 0.32789 0.0
C1528 C 0.73592 0.81532 0.36402 0.0
C1529 C 0.70839 0.80891 0.36276 0.0
H1530 H 0.76871 0.83806 0.34768 0.0
H1531 H 0.74918 0.80429 0.37733 0.0
S1532 S 0.65735 0.84177 0.31937 0.0
N1533 N 0.68611 0.85632 0.3109 0.0
N1534 N 0.66484 0.81989 0.34326 0.0
C1535 C 0.69183 0.82393 0.34543 0.0
C1536 C 0.70333 0.84357 0.32785 0.0
C1537 C 0.1433 0.73038 0.36962 0.0
C1538 C 0.14857 0.70256 0.36883 0.0
C1539 C 0.12624 0.74223 0.35069 0.0
C1540 C 0.11452 0.72656 0.33026 0.0
H1541 H 0.15458 0.7434 0.38299 0.0
H1542 H 0.12503 0.76404 0.35011 0.0
S1543 S 0.11591 0.65217 0.32437 0.0
N1544 N 0.13577 0.65901 0.35008 0.0
N1545 N 0.10433 0.68155 0.31397 0.0
C1546 C 0.11635 0.69841 0.33187 0.0
C1547 C 0.13328 0.68627 0.35143 0.0
C1548 C 0.22644 0.84586 0.6012 0.0
C1549 C 0.24918 0.83365 0.58933 0.0
C1550 C 0.22926 0.8658 0.62103 0.0
C1551 C 0.25494 0.87391 0.62977 0.0
H1552 H 0.20643 0.83811 0.59722 0.0
H1553 H 0.2113 0.87271 0.63145 0.0
S1554 S 0.3204 0.85407 0.59944 0.0
N1555 N 0.2979 0.83579 0.58321 0.0
N1556 N 0.30311 0.87277 0.621 0.0
C1557 C 0.27758 0.86474 0.61536 0.0
C1558 C 0.2747 0.84475 0.59487 0.0
C1559 C 0.15382 0.20128 0.60079 0.0
C1560 C 0.16009 0.22782 0.59317 0.0
C1561 C 0.13282 0.1961 0.61906 0.0
C1562 C 0.11813 0.21747 0.63068 0.0
H1563 H 0.16708 0.18484 0.59509 0.0
H1564 H 0.13069 0.17578 0.62678 0.0
S1565 S 0.12185 0.28948 0.61177 0.0
N1566 N 0.14576 0.27483 0.59368 0.0
N1567 N 0.10718 0.26506 0.62906 0.0
C1568 C 0.12147 0.24341 0.6201 0.0
C1569 C 0.14231 0.24863 0.60094 0.0
C1570 C 0.68346 0.1092 0.6474 0.0
C1571 C 0.7109 0.10213 0.64787 0.0
C1572 C 0.67405 0.12872 0.62941 0.0
C1573 C 0.69194 0.14184 0.6117 0.0
H1574 H 0.66978 0.10178 0.66282 0.0
H1575 H 0.65348 0.1357 0.63165 0.0
S1576 S 0.76359 0.12466 0.59945 0.0
N1577 N 0.75423 0.10494 0.62465 0.0
N1578 N 0.73656 0.14218 0.59131 0.0
C1579 C 0.71833 0.132 0.60918 0.0
C1580 C 0.72783 0.11184 0.62718 0.0
C1581 C 0.85929 0.76346 0.62179 0.0
C1582 C 0.84887 0.73892 0.61237 0.0
C1583 C 0.87913 0.76394 0.64175 0.0
C1584 C 0.88851 0.73985 0.65351 0.0
H1585 H 0.85035 0.78236 0.61555 0.0
H1586 H 0.88462 0.78332 0.65015 0.0
S1587 S 0.87243 0.67045 0.63123 0.0
N1588 N 0.8535 0.69 0.61221 0.0
N1589 N 0.88992 0.69104 0.6506 0.0
C1590 C 0.88092 0.71532 0.64172 0.0
C1591 C 0.86123 0.71481 0.6209 0.0
C1592 C 0.3349 0.24859 0.09775 0.0
C1593 C 0.33 0.22086 0.09431 0.0
C1594 C 0.3574 0.25751 0.11208 0.0
C1595 C 0.37528 0.23886 0.12356 0.0
H1596 H 0.31985 0.26331 0.09209 0.0
H1597 H 0.35862 0.27872 0.11723 0.0
S1598 S 0.37654 0.16518 0.11187 0.0
N1599 N 0.34887 0.1756 0.09679 0.0
N1600 N 0.39079 0.1925 0.12445 0.0
C1601 C 0.37316 0.21168 0.11613 0.0
C1602 C 0.35048 0.2026 0.10125 0.0
C1603 C 0.35622 0.71041 0.83083 0.0
C1604 C 0.34061 0.69658 0.81177 0.0
C1605 C 0.34394 0.72533 0.8515 0.0
C1606 C 0.31569 0.72668 0.85389 0.0
H1607 H 0.37793 0.71138 0.82862 0.0
H1608 H 0.35667 0.7373 0.86455 0.0
S1609 S 0.2663 0.68889 0.8125 0.0
N1610 N 0.29589 0.68147 0.799 0.0
N1611 N 0.27271 0.70919 0.83808 0.0
C1612 C 0.30005 0.71052 0.83668 0.0
C1613 C 0.31255 0.69558 0.81548 0.0
C1614 C 0.17348 0.33817 0.87607 0.0
C1615 C 0.19835 0.33371 0.88886 0.0
C1616 C 0.17135 0.35661 0.85482 0.0
C1617 C 0.19379 0.3717 0.8463 0.0
H1618 H 0.15648 0.32499 0.88001 0.0
H1619 H 0.15282 0.35713 0.8434 0.0
S1620 S 0.26109 0.37282 0.87857 0.0
N1621 N 0.24411 0.34947 0.89526 0.0
N1622 N 0.23993 0.38514 0.85617 0.0
C1623 C 0.21742 0.37053 0.86187 0.0
C1624 C 0.21975 0.35125 0.88304 0.0
C1625 C 0.61783 0.25292 0.86501 0.0
C1626 C 0.61704 0.28034 0.8579 0.0
C1627 C 0.6376 0.24322 0.88249 0.0
C1628 C 0.65731 0.26066 0.89294 0.0
H1629 H 0.60508 0.23843 0.85484 0.0
H1630 H 0.63939 0.2216 0.88495 0.0
S1631 S 0.65797 0.33514 0.88798 0.0
N1632 N 0.63281 0.32562 0.86853 0.0
N1633 N 0.67048 0.30714 0.90083 0.0
C1634 C 0.65381 0.28852 0.88968 0.0
C1635 C 0.63344 0.29847 0.87221 0.0
C1636 C 0.70563 0.59545 0.84746 0.0
C1637 C 0.72892 0.58401 0.83586 0.0
C1638 C 0.70769 0.61499 0.86774 0.0
C1639 C 0.73302 0.62309 0.87736 0.0
H1640 H 0.68608 0.59222 0.83839 0.0
H1641 H 0.6897 0.62593 0.87365 0.0
S1642 S 0.79893 0.59231 0.85969 0.0
N1643 N 0.77713 0.5772 0.8397 0.0
N1644 N 0.78105 0.61315 0.87864 0.0
C1645 C 0.75582 0.6081 0.86942 0.0
C1646 C 0.75375 0.58866 0.84835 0.0
C1647 C 0.68354 0.75275 0.16977 0.0
C1648 C 0.67602 0.76613 0.14595 0.0
C1649 C 0.66411 0.74227 0.18749 0.0
C1650 C 0.63649 0.7447 0.18194 0.0
H1651 H 0.7046 0.74977 0.17452 0.0
H1652 H 0.67084 0.73135 0.20511 0.0
S1653 S 0.60617 0.77998 0.12353 0.0
N1654 N 0.63899 0.78279 0.11869 0.0
N1655 N 0.60249 0.763 0.15194 0.0
C1656 C 0.62867 0.75891 0.15874 0.0
C1657 C 0.64844 0.76965 0.14075 0.0
C1658 C 0.2453 0.63432 0.10811 0.0
C1659 C 0.26999 0.62345 0.11657 0.0
C1660 C 0.24426 0.65965 0.09574 0.0
C1661 C 0.26785 0.67494 0.09192 0.0
H1662 H 0.22651 0.62461 0.1137 0.0
H1663 H 0.22466 0.6685 0.09211 0.0
S1664 S 0.33787 0.65232 0.10337 0.0
N1665 N 0.31896 0.62715 0.11431 0.0
N1666 N 0.31671 0.67529 0.09207 0.0
C1667 C 0.29279 0.6627 0.09667 0.0
C1668 C 0.29393 0.63665 0.10865 0.0
C1669 C 0.73072 0.35165 0.12964 0.0
C1670 C 0.75336 0.36309 0.14218 0.0
C1671 C 0.7339 0.33171 0.10991 0.0
C1672 C 0.75975 0.32315 0.10201 0.0
H1673 H 0.71064 0.35531 0.13755 0.0
H1674 H 0.71624 0.32064 0.10347 0.0
S1675 S 0.82464 0.35442 0.12178 0.0
N1676 N 0.80173 0.36988 0.1405 0.0
N1677 N 0.80784 0.33319 0.10248 0.0
C1678 C 0.78211 0.33839 0.1105 0.0
C1679 C 0.77889 0.35818 0.13106 0.0
loop_
_geom_bond_atom_site_label_1
_geom_bond_atom_site_label_2
_geom_bond_distance
_geom_bond_site_symmetry_2
_ccdc_geom_bond_type
In0 O1 2.294 . S
In0 O2 2.326 . S
In0 O6 2.266 . S
In0 O7 2.326 . S
In0 O8 2.266 . S
In0 O9 2.326 . S
In0 O11 2.294 . S
In0 O12 2.326 . S
O1 In0 2.294 . S
O1 C10 1.240 . S
O2 In0 2.326 . S
O2 C10 1.252 . S
C3 O6 1.252 . S
C3 O7 1.260 . S
C4 O11 1.240 . S
C4 O12 1.252 . S
C5 O8 1.252 . S
C5 O9 1.260 . S
O6 In0 2.266 . S
O6 C3 1.252 . S
O7 In0 2.326 . S
O7 C3 1.260 . S
O8 In0 2.266 . S
O8 C5 1.252 . S
O9 In0 2.326 . S
O9 C5 1.260 . S
C10 O1 1.240 . S
C10 O2 1.252 . S
O11 In0 2.294 . S
O11 C4 1.240 . S
O12 In0 2.326 . S
O12 C4 1.252 . S
In13 O14 2.294 . S
In13 O15 2.326 . S
In13 O19 2.266 . S
In13 O20 2.326 . S
In13 O21 2.266 . S
In13 O22 2.326 . S
In13 O24 2.294 . S
In13 O25 2.326 . S
O14 In13 2.294 . S
O14 C23 1.240 . S
O15 In13 2.326 . S
O15 C23 1.252 . S
C16 O19 1.252 . S
C16 O20 1.260 . S
C17 O24 1.240 . S
C17 O25 1.252 . S
C18 O21 1.252 . S
C18 O22 1.260 . S
O19 In13 2.266 . S
O19 C16 1.252 . S
O20 In13 2.326 . S
O20 C16 1.260 . S
O21 In13 2.266 . S
O21 C18 1.252 . S
O22 In13 2.326 . S
O22 C18 1.260 . S
C23 O14 1.240 . S
C23 O15 1.252 . S
O24 In13 2.294 . S
O24 C17 1.240 . S
O25 In13 2.326 . S
O25 C17 1.252 . S
In26 O27 2.294 . S
In26 O28 2.326 . S
In26 O32 2.266 . S
In26 O33 2.326 . S
In26 O34 2.266 . S
In26 O35 2.326 . S
In26 O37 2.294 . S
In26 O38 2.326 . S
O27 In26 2.294 . S
O27 C36 1.240 . S
O28 In26 2.326 . S
O28 C36 1.252 . S
C29 O32 1.252 . S
C29 O33 1.260 . S
C30 O37 1.240 . S
C30 O38 1.252 . S
C31 O34 1.252 . S
C31 O35 1.260 . S
O32 In26 2.266 . S
O32 C29 1.252 . S
O33 In26 2.326 . S
O33 C29 1.260 . S
O34 In26 2.266 . S
O34 C31 1.252 . S
O35 In26 2.326 . S
O35 C31 1.260 . S
C36 O27 1.240 . S
C36 O28 1.252 . S
O37 In26 2.294 . S
O37 C30 1.240 . S
O38 In26 2.326 . S
O38 C30 1.252 . S
In39 O40 2.294 . S
In39 O41 2.326 . S
In39 O45 2.266 . S
In39 O46 2.326 . S
In39 O47 2.266 . S
In39 O48 2.326 . S
In39 O50 2.294 . S
In39 O51 2.326 . S
O40 In39 2.294 . S
O40 C49 1.240 . S
O41 In39 2.326 . S
O41 C49 1.252 . S
C42 O45 1.252 . S
C42 O46 1.260 . S
C43 O50 1.240 . S
C43 O51 1.252 . S
C44 O47 1.252 . S
C44 O48 1.260 . S
O45 In39 2.266 . S
O45 C42 1.252 . S
O46 In39 2.326 . S
O46 C42 1.260 . S
O47 In39 2.266 . S
O47 C44 1.252 . S
O48 In39 2.326 . S
O48 C44 1.260 . S
C49 O40 1.240 . S
C49 O41 1.252 . S
O50 In39 2.294 . S
O50 C43 1.240 . S
O51 In39 2.326 . S
O51 C43 1.252 . S
In52 O53 2.294 . S
In52 O54 2.326 . S
In52 O58 2.266 . S
In52 O59 2.326 . S
In52 O60 2.266 . S
In52 O61 2.326 . S
In52 O63 2.294 . S
In52 O64 2.326 . S
O53 In52 2.294 . S
O53 C62 1.240 . S
O54 In52 2.326 . S
O54 C62 1.252 . S
C55 O58 1.252 . S
C55 O59 1.260 . S
C56 O63 1.240 . S
C56 O64 1.252 . S
C57 O60 1.252 . S
C57 O61 1.260 . S
O58 In52 2.266 . S
O58 C55 1.252 . S
O59 In52 2.326 . S
O59 C55 1.260 . S
O60 In52 2.266 . S
O60 C57 1.252 . S
O61 In52 2.326 . S
O61 C57 1.260 . S
C62 O53 1.240 . S
C62 O54 1.252 . S
O63 In52 2.294 . S
O63 C56 1.240 . S
O64 In52 2.326 . S
O64 C56 1.252 . S
In65 O66 2.294 . S
In65 O67 2.326 . S
In65 O71 2.266 . S
In65 O72 2.326 . S
In65 O73 2.266 . S
In65 O74 2.326 . S
In65 O76 2.294 . S
In65 O77 2.326 . S
O66 In65 2.294 . S
O66 C75 1.240 . S
O67 In65 2.326 . S
O67 C75 1.252 . S
C68 O71 1.252 . S
C68 O72 1.260 . S
C69 O76 1.240 . S
C69 O77 1.252 . S
C70 O73 1.252 . S
C70 O74 1.260 . S
O71 In65 2.266 . S
O71 C68 1.252 . S
O72 In65 2.326 . S
O72 C68 1.260 . S
O73 In65 2.266 . S
O73 C70 1.252 . S
O74 In65 2.326 . S
O74 C70 1.260 . S
C75 O66 1.240 . S
C75 O67 1.252 . S
O76 In65 2.294 . S
O76 C69 1.240 . S
O77 In65 2.326 . S
O77 C69 1.252 . S
In78 O79 2.294 . S
In78 O80 2.326 . S
In78 O84 2.266 . S
In78 O85 2.326 . S
In78 O86 2.266 . S
In78 O87 2.326 . S
In78 O89 2.294 . S
In78 O90 2.326 . S
O79 In78 2.294 . S
O79 C88 1.240 . S
O80 In78 2.326 . S
O80 C88 1.252 . S
C81 O84 1.252 . S
C81 O85 1.260 . S
C82 O89 1.240 . S
C82 O90 1.252 . S
C83 O86 1.252 . S
C83 O87 1.260 . S
O84 In78 2.266 . S
O84 C81 1.252 . S
O85 In78 2.326 . S
O85 C81 1.260 . S
O86 In78 2.266 . S
O86 C83 1.252 . S
O87 In78 2.326 . S
O87 C83 1.260 . S
C88 O79 1.240 . S
C88 O80 1.252 . S
O89 In78 2.294 . S
O89 C82 1.240 . S
O90 In78 2.326 . S
O90 C82 1.252 . S
In91 O92 2.294 . S
In91 O93 2.326 . S
In91 O97 2.266 . S
In91 O98 2.326 . S
In91 O99 2.266 . S
In91 O100 2.326 . S
In91 O102 2.294 . S
In91 O103 2.326 . S
O92 In91 2.294 . S
O92 C101 1.240 . S
O93 In91 2.326 . S
O93 C101 1.252 . S
C94 O97 1.252 . S
C94 O98 1.260 . S
C95 O102 1.240 . S
C95 O103 1.252 . S
C96 O99 1.252 . S
C96 O100 1.260 . S
O97 In91 2.266 . S
O97 C94 1.252 . S
O98 In91 2.326 . S
O98 C94 1.260 . S
O99 In91 2.266 . S
O99 C96 1.252 . S
O100 In91 2.326 . S
O100 C96 1.260 . S
C101 O92 1.240 . S
C101 O93 1.252 . S
O102 In91 2.294 . S
O102 C95 1.240 . S
O103 In91 2.326 . S
O103 C95 1.252 . S
In104 O105 2.294 . S
In104 O106 2.326 . S
In104 O110 2.266 . S
In104 O111 2.326 . S
In104 O112 2.266 . S
In104 O113 2.326 . S
In104 O115 2.294 . S
In104 O116 2.326 . S
O105 In104 2.294 . S
O105 C114 1.240 . S
O106 In104 2.326 . S
O106 C114 1.252 . S
C107 O110 1.252 . S
C107 O111 1.260 . S
C108 O115 1.240 . S
C108 O116 1.252 . S
C109 O112 1.252 . S
C109 O113 1.260 . S
O110 In104 2.266 . S
O110 C107 1.252 . S
O111 In104 2.326 . S
O111 C107 1.260 . S
O112 In104 2.266 . S
O112 C109 1.252 . S
O113 In104 2.326 . S
O113 C109 1.260 . S
C114 O105 1.240 . S
C114 O106 1.252 . S
O115 In104 2.294 . S
O115 C108 1.240 . S
O116 In104 2.326 . S
O116 C108 1.252 . S
In117 O118 2.294 . S
In117 O119 2.326 . S
In117 O123 2.266 . S
In117 O124 2.326 . S
In117 O125 2.266 . S
In117 O126 2.326 . S
In117 O128 2.294 . S
In117 O129 2.326 . S
O118 In117 2.294 . S
O118 C127 1.240 . S
O119 In117 2.326 . S
O119 C127 1.252 . S
C120 O123 1.252 . S
C120 O124 1.260 . S
C121 O128 1.240 . S
C121 O129 1.252 . S
C122 O125 1.252 . S
C122 O126 1.260 . S
O123 In117 2.266 . S
O123 C120 1.252 . S
O124 In117 2.326 . S
O124 C120 1.260 . S
O125 In117 2.266 . S
O125 C122 1.252 . S
O126 In117 2.326 . S
O126 C122 1.260 . S
C127 O118 1.240 . S
C127 O119 1.252 . S
O128 In117 2.294 . S
O128 C121 1.240 . S
O129 In117 2.326 . S
O129 C121 1.252 . S
In130 O131 2.294 . S
In130 O132 2.326 . S
In130 O136 2.266 . S
In130 O137 2.326 . S
In130 O138 2.266 . S
In130 O139 2.326 . S
In130 O141 2.294 . S
In130 O142 2.326 . S
O131 In130 2.294 . S
O131 C140 1.240 . S
O132 In130 2.326 . S
O132 C140 1.252 . S
C133 O136 1.252 . S
C133 O137 1.260 . S
C134 O141 1.240 . S
C134 O142 1.252 . S
C135 O138 1.252 . S
C135 O139 1.260 . S
O136 In130 2.266 . S
O136 C133 1.252 . S
O137 In130 2.326 . S
O137 C133 1.260 . S
O138 In130 2.266 . S
O138 C135 1.252 . S
O139 In130 2.326 . S
O139 C135 1.260 . S
C140 O131 1.240 . S
C140 O132 1.252 . S
O141 In130 2.294 . S
O141 C134 1.240 . S
O142 In130 2.326 . S
O142 C134 1.252 . S
In143 O144 2.294 . S
In143 O145 2.326 . S
In143 O149 2.266 . S
In143 O150 2.326 . S
In143 O151 2.266 . S
In143 O152 2.326 . S
In143 O154 2.294 . S
In143 O155 2.326 . S
O144 In143 2.294 . S
O144 C153 1.240 . S
O145 In143 2.326 . S
O145 C153 1.252 . S
C146 O149 1.252 . S
C146 O150 1.260 . S
C147 O154 1.240 . S
C147 O155 1.252 . S
C148 O151 1.252 . S
C148 O152 1.260 . S
O149 In143 2.266 . S
O149 C146 1.252 . S
O150 In143 2.326 . S
O150 C146 1.260 . S
O151 In143 2.266 . S
O151 C148 1.252 . S
O152 In143 2.326 . S
O152 C148 1.260 . S
C153 O144 1.240 . S
C153 O145 1.252 . S
O154 In143 2.294 . S
O154 C147 1.240 . S
O155 In143 2.326 . S
O155 C147 1.252 . S
In156 O157 2.294 . S
In156 O158 2.326 . S
In156 O162 2.266 . S
In156 O163 2.326 . S
In156 O164 2.266 . S
In156 O165 2.326 . S
In156 O167 2.294 . S
In156 O168 2.326 . S
O157 In156 2.294 . S
O157 C166 1.240 . S
O158 In156 2.326 . S
O158 C166 1.252 . S
C159 O162 1.252 . S
C159 O163 1.260 . S
C160 O167 1.240 . S
C160 O168 1.252 . S
C161 O164 1.252 . S
C161 O165 1.260 . S
O162 In156 2.266 . S
O162 C159 1.252 . S
O163 In156 2.326 . S
O163 C159 1.260 . S
O164 In156 2.266 . S
O164 C161 1.252 . S
O165 In156 2.326 . S
O165 C161 1.260 . S
C166 O157 1.240 . S
C166 O158 1.252 . S
O167 In156 2.294 . S
O167 C160 1.240 . S
O168 In156 2.326 . S
O168 C160 1.252 . S
In169 O170 2.294 . S
In169 O171 2.326 . S
In169 O175 2.266 . S
In169 O176 2.326 . S
In169 O177 2.266 . S
In169 O178 2.326 . S
In169 O180 2.294 . S
In169 O181 2.326 . S
O170 In169 2.294 . S
O170 C179 1.240 . S
O171 In169 2.326 . S
O171 C179 1.252 . S
C172 O175 1.252 . S
C172 O176 1.260 . S
C173 O180 1.240 . S
C173 O181 1.252 . S
C174 O177 1.252 . S
C174 O178 1.260 . S
O175 In169 2.266 . S
O175 C172 1.252 . S
O176 In169 2.326 . S
O176 C172 1.260 . S
O177 In169 2.266 . S
O177 C174 1.252 . S
O178 In169 2.326 . S
O178 C174 1.260 . S
C179 O170 1.240 . S
C179 O171 1.252 . S
O180 In169 2.294 . S
O180 C173 1.240 . S
O181 In169 2.326 . S
O181 C173 1.252 . S
In182 O183 2.294 . S
In182 O184 2.326 . S
In182 O188 2.266 . S
In182 O189 2.326 . S
In182 O190 2.266 . S
In182 O191 2.326 . S
In182 O193 2.294 . S
In182 O194 2.326 . S
O183 In182 2.294 . S
O183 C192 1.240 . S
O184 In182 2.326 . S
O184 C192 1.252 . S
C185 O188 1.252 . S
C185 O189 1.260 . S
C186 O193 1.240 . S
C186 O194 1.252 . S
C187 O190 1.252 . S
C187 O191 1.260 . S
O188 In182 2.266 . S
O188 C185 1.252 . S
O189 In182 2.326 . S
O189 C185 1.260 . S
O190 In182 2.266 . S
O190 C187 1.252 . S
O191 In182 2.326 . S
O191 C187 1.260 . S
C192 O183 1.240 . S
C192 O184 1.252 . S
O193 In182 2.294 . S
O193 C186 1.240 . S
O194 In182 2.326 . S
O194 C186 1.252 . S
In195 O196 2.294 . S
In195 O197 2.326 . S
In195 O201 2.266 . S
In195 O202 2.326 . S
In195 O203 2.266 . S
In195 O204 2.326 . S
In195 O206 2.294 . S
In195 O207 2.326 . S
O196 In195 2.294 . S
O196 C205 1.240 . S
O197 In195 2.326 . S
O197 C205 1.252 . S
C198 O201 1.252 . S
C198 O202 1.260 . S
C199 O206 1.240 . S
C199 O207 1.252 . S
C200 O203 1.252 . S
C200 O204 1.260 . S
O201 In195 2.266 . S
O201 C198 1.252 . S
O202 In195 2.326 . S
O202 C198 1.260 . S
O203 In195 2.266 . S
O203 C200 1.252 . S
O204 In195 2.326 . S
O204 C200 1.260 . S
C205 O196 1.240 . S
C205 O197 1.252 . S
O206 In195 2.294 . S
O206 C199 1.240 . S
O207 In195 2.326 . S
O207 C199 1.252 . S
In208 O209 2.294 . S
In208 O210 2.326 . S
In208 O214 2.266 . S
In208 O215 2.326 . S
In208 O216 2.266 . S
In208 O217 2.326 . S
In208 O219 2.294 . S
In208 O220 2.326 . S
O209 In208 2.294 . S
O209 C218 1.240 . S
O210 In208 2.326 . S
O210 C218 1.252 . S
C211 O214 1.252 . S
C211 O215 1.260 . S
C212 O219 1.240 . S
C212 O220 1.252 . S
C213 O216 1.252 . S
C213 O217 1.260 . S
O214 In208 2.266 . S
O214 C211 1.252 . S
O215 In208 2.326 . S
O215 C211 1.260 . S
O216 In208 2.266 . S
O216 C213 1.252 . S
O217 In208 2.326 . S
O217 C213 1.260 . S
C218 O209 1.240 . S
C218 O210 1.252 . S
O219 In208 2.294 . S
O219 C212 1.240 . S
O220 In208 2.326 . S
O220 C212 1.252 . S
In221 O222 2.294 . S
In221 O223 2.326 . S
In221 O227 2.266 . S
In221 O228 2.326 . S
In221 O229 2.266 . S
In221 O230 2.326 . S
In221 O232 2.294 . S
In221 O233 2.326 . S
O222 In221 2.294 . S
O222 C231 1.240 . S
O223 In221 2.326 . S
O223 C231 1.252 . S
C224 O227 1.252 . S
C224 O228 1.260 . S
C225 O232 1.240 . S
C225 O233 1.252 . S
C226 O229 1.252 . S
C226 O230 1.260 . S
O227 In221 2.266 . S
O227 C224 1.252 . S
O228 In221 2.326 . S
O228 C224 1.260 . S
O229 In221 2.266 . S
O229 C226 1.252 . S
O230 In221 2.326 . S
O230 C226 1.260 . S
C231 O222 1.240 . S
C231 O223 1.252 . S
O232 In221 2.294 . S
O232 C225 1.240 . S
O233 In221 2.326 . S
O233 C225 1.252 . S
In234 O235 2.294 . S
In234 O236 2.326 . S
In234 O240 2.266 . S
In234 O241 2.326 . S
In234 O242 2.266 . S
In234 O243 2.326 . S
In234 O245 2.294 . S
In234 O246 2.326 . S
O235 In234 2.294 . S
O235 C244 1.240 . S
O236 In234 2.326 . S
O236 C244 1.252 . S
C237 O240 1.252 . S
C237 O241 1.260 . S
C238 O245 1.240 . S
C238 O246 1.252 . S
C239 O242 1.252 . S
C239 O243 1.260 . S
O240 In234 2.266 . S
O240 C237 1.252 . S
O241 In234 2.326 . S
O241 C237 1.260 . S
O242 In234 2.266 . S
O242 C239 1.252 . S
O243 In234 2.326 . S
O243 C239 1.260 . S
C244 O235 1.240 . S
C244 O236 1.252 . S
O245 In234 2.294 . S
O245 C238 1.240 . S
O246 In234 2.326 . S
O246 C238 1.252 . S
In247 O248 2.294 . S
In247 O249 2.326 . S
In247 O253 2.266 . S
In247 O254 2.326 . S
In247 O255 2.266 . S
In247 O256 2.326 . S
In247 O258 2.294 . S
In247 O259 2.326 . S
O248 In247 2.294 . S
O248 C257 1.240 . S
O249 In247 2.326 . S
O249 C257 1.252 . S
C250 O253 1.252 . S
C250 O254 1.260 . S
C251 O258 1.240 . S
C251 O259 1.252 . S
C252 O255 1.252 . S
C252 O256 1.260 . S
O253 In247 2.266 . S
O253 C250 1.252 . S
O254 In247 2.326 . S
O254 C250 1.260 . S
O255 In247 2.266 . S
O255 C252 1.252 . S
O256 In247 2.326 . S
O256 C252 1.260 . S
C257 O248 1.240 . S
C257 O249 1.252 . S
O258 In247 2.294 . S
O258 C251 1.240 . S
O259 In247 2.326 . S
O259 C251 1.252 . S
In260 O261 2.294 . S
In260 O262 2.326 . S
In260 O266 2.266 . S
In260 O267 2.326 . S
In260 O268 2.266 . S
In260 O269 2.326 . S
In260 O271 2.294 . S
In260 O272 2.326 . S
O261 In260 2.294 . S
O261 C270 1.240 . S
O262 In260 2.326 . S
O262 C270 1.252 . S
C263 O266 1.252 . S
C263 O267 1.260 . S
C264 O271 1.240 . S
C264 O272 1.252 . S
C265 O268 1.252 . S
C265 O269 1.260 . S
O266 In260 2.266 . S
O266 C263 1.252 . S
O267 In260 2.326 . S
O267 C263 1.260 . S
O268 In260 2.266 . S
O268 C265 1.252 . S
O269 In260 2.326 . S
O269 C265 1.260 . S
C270 O261 1.240 . S
C270 O262 1.252 . S
O271 In260 2.294 . S
O271 C264 1.240 . S
O272 In260 2.326 . S
O272 C264 1.252 . S
In273 O274 2.294 . S
In273 O275 2.326 . S
In273 O279 2.266 . S
In273 O280 2.326 . S
In273 O281 2.266 . S
In273 O282 2.326 . S
In273 O284 2.294 . S
In273 O285 2.326 . S
O274 In273 2.294 . S
O274 C283 1.240 . S
O275 In273 2.326 . S
O275 C283 1.252 . S
C276 O279 1.252 . S
C276 O280 1.260 . S
C277 O284 1.240 . S
C277 O285 1.252 . S
C278 O281 1.252 . S
C278 O282 1.260 . S
O279 In273 2.266 . S
O279 C276 1.252 . S
O280 In273 2.326 . S
O280 C276 1.260 . S
O281 In273 2.266 . S
O281 C278 1.252 . S
O282 In273 2.326 . S
O282 C278 1.260 . S
C283 O274 1.240 . S
C283 O275 1.252 . S
O284 In273 2.294 . S
O284 C277 1.240 . S
O285 In273 2.326 . S
O285 C277 1.252 . S
In286 O287 2.294 . S
In286 O288 2.326 . S
In286 O292 2.266 . S
In286 O293 2.326 . S
In286 O294 2.266 . S
In286 O295 2.326 . S
In286 O297 2.294 . S
In286 O298 2.326 . S
O287 In286 2.294 . S
O287 C296 1.240 . S
O288 In286 2.326 . S
O288 C296 1.252 . S
C289 O292 1.252 . S
C289 O293 1.260 . S
C290 O297 1.240 . S
C290 O298 1.252 . S
C291 O294 1.252 . S
C291 O295 1.260 . S
O292 In286 2.266 . S
O292 C289 1.252 . S
O293 In286 2.326 . S
O293 C289 1.260 . S
O294 In286 2.266 . S
O294 C291 1.252 . S
O295 In286 2.326 . S
O295 C291 1.260 . S
C296 O287 1.240 . S
C296 O288 1.252 . S
O297 In286 2.294 . S
O297 C290 1.240 . S
O298 In286 2.326 . S
O298 C290 1.252 . S
In299 O300 2.294 . S
In299 O301 2.326 . S
In299 O305 2.266 . S
In299 O306 2.326 . S
In299 O307 2.266 . S
In299 O308 2.326 . S
In299 O310 2.294 . S
In299 O311 2.326 . S
O300 In299 2.294 . S
O300 C309 1.240 . S
O301 In299 2.326 . S
O301 C309 1.252 . S
C302 O305 1.252 . S
C302 O306 1.260 . S
C303 O310 1.240 . S
C303 O311 1.252 . S
C304 O307 1.252 . S
C304 O308 1.260 . S
O305 In299 2.266 . S
O305 C302 1.252 . S
O306 In299 2.326 . S
O306 C302 1.260 . S
O307 In299 2.266 . S
O307 C304 1.252 . S
O308 In299 2.326 . S
O308 C304 1.260 . S
C309 O300 1.240 . S
C309 O301 1.252 . S
O310 In299 2.294 . S
O310 C303 1.240 . S
O311 In299 2.326 . S
O311 C303 1.252 . S
In312 O313 2.294 . S
In312 O314 2.326 . S
In312 O318 2.266 . S
In312 O319 2.326 . S
In312 O320 2.266 . S
In312 O321 2.326 . S
In312 O323 2.294 . S
In312 O324 2.326 . S
O313 In312 2.294 . S
O313 C322 1.240 . S
O314 In312 2.326 . S
O314 C322 1.252 . S
C315 O318 1.252 . S
C315 O319 1.260 . S
C316 O323 1.240 . S
C316 O324 1.252 . S
C317 O320 1.252 . S
C317 O321 1.260 . S
O318 In312 2.266 . S
O318 C315 1.252 . S
O319 In312 2.326 . S
O319 C315 1.260 . S
O320 In312 2.266 . S
O320 C317 1.252 . S
O321 In312 2.326 . S
O321 C317 1.260 . S
C322 O313 1.240 . S
C322 O314 1.252 . S
O323 In312 2.294 . S
O323 C316 1.240 . S
O324 In312 2.326 . S
O324 C316 1.252 . S
In325 O326 2.294 . S
In325 O327 2.326 . S
In325 O331 2.266 . S
In325 O332 2.326 . S
In325 O333 2.266 . S
In325 O334 2.326 . S
In325 O336 2.294 . S
In325 O337 2.326 . S
O326 In325 2.294 . S
O326 C335 1.240 . S
O327 In325 2.326 . S
O327 C335 1.252 . S
C328 O331 1.252 . S
C328 O332 1.260 . S
C329 O336 1.240 . S
C329 O337 1.252 . S
C330 O333 1.252 . S
C330 O334 1.260 . S
O331 In325 2.266 . S
O331 C328 1.252 . S
O332 In325 2.326 . S
O332 C328 1.260 . S
O333 In325 2.266 . S
O333 C330 1.252 . S
O334 In325 2.326 . S
O334 C330 1.260 . S
C335 O326 1.240 . S
C335 O327 1.252 . S
O336 In325 2.294 . S
O336 C329 1.240 . S
O337 In325 2.326 . S
O337 C329 1.252 . S
In338 O339 2.294 . S
In338 O340 2.326 . S
In338 O344 2.266 . S
In338 O345 2.326 . S
In338 O346 2.266 . S
In338 O347 2.326 . S
In338 O349 2.294 . S
In338 O350 2.326 . S
O339 In338 2.294 . S
O339 C348 1.240 . S
O340 In338 2.326 . S
O340 C348 1.252 . S
C341 O344 1.252 . S
C341 O345 1.260 . S
C342 O349 1.240 . S
C342 O350 1.252 . S
C343 O346 1.252 . S
C343 O347 1.260 . S
O344 In338 2.266 . S
O344 C341 1.252 . S
O345 In338 2.326 . S
O345 C341 1.260 . S
O346 In338 2.266 . S
O346 C343 1.252 . S
O347 In338 2.326 . S
O347 C343 1.260 . S
C348 O339 1.240 . S
C348 O340 1.252 . S
O349 In338 2.294 . S
O349 C342 1.240 . S
O350 In338 2.326 . S
O350 C342 1.252 . S
In351 O352 2.294 . S
In351 O353 2.326 . S
In351 O357 2.266 . S
In351 O358 2.326 . S
In351 O359 2.266 . S
In351 O360 2.326 . S
In351 O362 2.294 . S
In351 O363 2.326 . S
O352 In351 2.294 . S
O352 C361 1.240 . S
O353 In351 2.326 . S
O353 C361 1.252 . S
C354 O357 1.252 . S
C354 O358 1.260 . S
C355 O362 1.240 . S
C355 O363 1.252 . S
C356 O359 1.252 . S
C356 O360 1.260 . S
O357 In351 2.266 . S
O357 C354 1.252 . S
O358 In351 2.326 . S
O358 C354 1.260 . S
O359 In351 2.266 . S
O359 C356 1.252 . S
O360 In351 2.326 . S
O360 C356 1.260 . S
C361 O352 1.240 . S
C361 O353 1.252 . S
O362 In351 2.294 . S
O362 C355 1.240 . S
O363 In351 2.326 . S
O363 C355 1.252 . S
In364 O365 2.294 . S
In364 O366 2.326 . S
In364 O370 2.266 . S
In364 O371 2.326 . S
In364 O372 2.266 . S
In364 O373 2.326 . S
In364 O375 2.294 . S
In364 O376 2.326 . S
O365 In364 2.294 . S
O365 C374 1.240 . S
O366 In364 2.326 . S
O366 C374 1.252 . S
C367 O370 1.252 . S
C367 O371 1.260 . S
C368 O375 1.240 . S
C368 O376 1.252 . S
C369 O372 1.252 . S
C369 O373 1.260 . S
O370 In364 2.266 . S
O370 C367 1.252 . S
O371 In364 2.326 . S
O371 C367 1.260 . S
O372 In364 2.266 . S
O372 C369 1.252 . S
O373 In364 2.326 . S
O373 C369 1.260 . S
C374 O365 1.240 . S
C374 O366 1.252 . S
O375 In364 2.294 . S
O375 C368 1.240 . S
O376 In364 2.326 . S
O376 C368 1.252 . S
In377 O378 2.294 . S
In377 O379 2.326 . S
In377 O383 2.266 . S
In377 O384 2.326 . S
In377 O385 2.266 . S
In377 O386 2.326 . S
In377 O388 2.294 . S
In377 O389 2.326 . S
O378 In377 2.294 . S
O378 C387 1.240 . S
O379 In377 2.326 . S
O379 C387 1.252 . S
C380 O383 1.252 . S
C380 O384 1.260 . S
C381 O388 1.240 . S
C381 O389 1.252 . S
C382 O385 1.252 . S
C382 O386 1.260 . S
O383 In377 2.266 . S
O383 C380 1.252 . S
O384 In377 2.326 . S
O384 C380 1.260 . S
O385 In377 2.266 . S
O385 C382 1.252 . S
O386 In377 2.326 . S
O386 C382 1.260 . S
C387 O378 1.240 . S
C387 O379 1.252 . S
O388 In377 2.294 . S
O388 C381 1.240 . S
O389 In377 2.326 . S
O389 C381 1.252 . S
In390 O391 2.294 . S
In390 O392 2.326 . S
In390 O396 2.266 . S
In390 O397 2.326 . S
In390 O398 2.266 . S
In390 O399 2.326 . S
In390 O401 2.294 . S
In390 O402 2.326 . S
O391 In390 2.294 . S
O391 C400 1.240 . S
O392 In390 2.326 . S
O392 C400 1.252 . S
C393 O396 1.252 . S
C393 O397 1.260 . S
C394 O401 1.240 . S
C394 O402 1.252 . S
C395 O398 1.252 . S
C395 O399 1.260 . S
O396 In390 2.266 . S
O396 C393 1.252 . S
O397 In390 2.326 . S
O397 C393 1.260 . S
O398 In390 2.266 . S
O398 C395 1.252 . S
O399 In390 2.326 . S
O399 C395 1.260 . S
C400 O391 1.240 . S
C400 O392 1.252 . S
O401 In390 2.294 . S
O401 C394 1.240 . S
O402 In390 2.326 . S
O402 C394 1.252 . S
In403 O404 2.294 . S
In403 O405 2.326 . S
In403 O409 2.266 . S
In403 O410 2.326 . S
In403 O411 2.266 . S
In403 O412 2.326 . S
In403 O414 2.294 . S
In403 O415 2.326 . S
O404 In403 2.294 . S
O404 C413 1.240 . S
O405 In403 2.326 . S
O405 C413 1.252 . S
C406 O409 1.252 . S
C406 O410 1.260 . S
C407 O414 1.240 . S
C407 O415 1.252 . S
C408 O411 1.252 . S
C408 O412 1.260 . S
O409 In403 2.266 . S
O409 C406 1.252 . S
O410 In403 2.326 . S
O410 C406 1.260 . S
O411 In403 2.266 . S
O411 C408 1.252 . S
O412 In403 2.326 . S
O412 C408 1.260 . S
C413 O404 1.240 . S
C413 O405 1.252 . S
O414 In403 2.294 . S
O414 C407 1.240 . S
O415 In403 2.326 . S
O415 C407 1.252 . S
In416 O417 2.294 . S
In416 O418 2.326 . S
In416 O422 2.266 . S
In416 O423 2.326 . S
In416 O424 2.266 . S
In416 O425 2.326 . S
In416 O427 2.294 . S
In416 O428 2.326 . S
O417 In416 2.294 . S
O417 C426 1.240 . S
O418 In416 2.326 . S
O418 C426 1.252 . S
C419 O422 1.252 . S
C419 O423 1.260 . S
C420 O427 1.240 . S
C420 O428 1.252 . S
C421 O424 1.252 . S
C421 O425 1.260 . S
O422 In416 2.266 . S
O422 C419 1.252 . S
O423 In416 2.326 . S
O423 C419 1.260 . S
O424 In416 2.266 . S
O424 C421 1.252 . S
O425 In416 2.326 . S
O425 C421 1.260 . S
C426 O417 1.240 . S
C426 O418 1.252 . S
O427 In416 2.294 . S
O427 C420 1.240 . S
O428 In416 2.326 . S
O428 C420 1.252 . S
In429 O430 2.294 . S
In429 O431 2.326 . S
In429 O435 2.266 . S
In429 O436 2.326 . S
In429 O437 2.266 . S
In429 O438 2.326 . S
In429 O440 2.294 . S
In429 O441 2.326 . S
O430 In429 2.294 . S
O430 C439 1.240 . S
O431 In429 2.326 . S
O431 C439 1.252 . S
C432 O435 1.252 . S
C432 O436 1.260 . S
C433 O440 1.240 . S
C433 O441 1.252 . S
C434 O437 1.252 . S
C434 O438 1.260 . S
O435 In429 2.266 . S
O435 C432 1.252 . S
O436 In429 2.326 . S
O436 C432 1.260 . S
O437 In429 2.266 . S
O437 C434 1.252 . S
O438 In429 2.326 . S
O438 C434 1.260 . S
C439 O430 1.240 . S
C439 O431 1.252 . S
O440 In429 2.294 . S
O440 C433 1.240 . S
O441 In429 2.326 . S
O441 C433 1.252 . S
In442 O443 2.294 . S
In442 O444 2.326 . S
In442 O448 2.266 . S
In442 O449 2.326 . S
In442 O450 2.266 . S
In442 O451 2.326 . S
In442 O453 2.294 . S
In442 O454 2.326 . S
O443 In442 2.294 . S
O443 C452 1.240 . S
O444 In442 2.326 . S
O444 C452 1.252 . S
C445 O448 1.252 . S
C445 O449 1.260 . S
C446 O453 1.240 . S
C446 O454 1.252 . S
C447 O450 1.252 . S
C447 O451 1.260 . S
O448 In442 2.266 . S
O448 C445 1.252 . S
O449 In442 2.326 . S
O449 C445 1.260 . S
O450 In442 2.266 . S
O450 C447 1.252 . S
O451 In442 2.326 . S
O451 C447 1.260 . S
C452 O443 1.240 . S
C452 O444 1.252 . S
O453 In442 2.294 . S
O453 C446 1.240 . S
O454 In442 2.326 . S
O454 C446 1.252 . S
In455 O456 2.294 . S
In455 O457 2.326 . S
In455 O461 2.266 . S
In455 O462 2.326 . S
In455 O463 2.266 . S
In455 O464 2.326 . S
In455 O466 2.294 . S
In455 O467 2.326 . S
O456 In455 2.294 . S
O456 C465 1.240 . S
O457 In455 2.326 . S
O457 C465 1.252 . S
C458 O461 1.252 . S
C458 O462 1.260 . S
C459 O466 1.240 . S
C459 O467 1.252 . S
C460 O463 1.252 . S
C460 O464 1.260 . S
O461 In455 2.266 . S
O461 C458 1.252 . S
O462 In455 2.326 . S
O462 C458 1.260 . S
O463 In455 2.266 . S
O463 C460 1.252 . S
O464 In455 2.326 . S
O464 C460 1.260 . S
C465 O456 1.240 . S
C465 O457 1.252 . S
O466 In455 2.294 . S
O466 C459 1.240 . S
O467 In455 2.326 . S
O467 C459 1.252 . S
In468 O469 2.294 . S
In468 O470 2.326 . S
In468 O474 2.266 . S
In468 O475 2.326 . S
In468 O476 2.266 . S
In468 O477 2.326 . S
In468 O479 2.294 . S
In468 O480 2.326 . S
O469 In468 2.294 . S
O469 C478 1.240 . S
O470 In468 2.326 . S
O470 C478 1.252 . S
C471 O474 1.252 . S
C471 O475 1.260 . S
C472 O479 1.240 . S
C472 O480 1.252 . S
C473 O476 1.252 . S
C473 O477 1.260 . S
O474 In468 2.266 . S
O474 C471 1.252 . S
O475 In468 2.326 . S
O475 C471 1.260 . S
O476 In468 2.266 . S
O476 C473 1.252 . S
O477 In468 2.326 . S
O477 C473 1.260 . S
C478 O469 1.240 . S
C478 O470 1.252 . S
O479 In468 2.294 . S
O479 C472 1.240 . S
O480 In468 2.326 . S
O480 C472 1.252 . S
In481 O482 2.294 . S
In481 O483 2.326 . S
In481 O487 2.266 . S
In481 O488 2.326 . S
In481 O489 2.266 . S
In481 O490 2.326 . S
In481 O492 2.294 . S
In481 O493 2.326 . S
O482 In481 2.294 . S
O482 C491 1.240 . S
O483 In481 2.326 . S
O483 C491 1.252 . S
C484 O487 1.252 . S
C484 O488 1.260 . S
C485 O492 1.240 . S
C485 O493 1.252 . S
C486 O489 1.252 . S
C486 O490 1.260 . S
O487 In481 2.266 . S
O487 C484 1.252 . S
O488 In481 2.326 . S
O488 C484 1.260 . S
O489 In481 2.266 . S
O489 C486 1.252 . S
O490 In481 2.326 . S
O490 C486 1.260 . S
C491 O482 1.240 . S
C491 O483 1.252 . S
O492 In481 2.294 . S
O492 C485 1.240 . S
O493 In481 2.326 . S
O493 C485 1.252 . S
In494 O495 2.294 . S
In494 O496 2.326 . S
In494 O500 2.266 . S
In494 O501 2.326 . S
In494 O502 2.266 . S
In494 O503 2.326 . S
In494 O505 2.294 . S
In494 O506 2.326 . S
O495 In494 2.294 . S
O495 C504 1.240 . S
O496 In494 2.326 . S
O496 C504 1.252 . S
C497 O500 1.252 . S
C497 O501 1.260 . S
C498 O505 1.240 . S
C498 O506 1.252 . S
C499 O502 1.252 . S
C499 O503 1.260 . S
O500 In494 2.266 . S
O500 C497 1.252 . S
O501 In494 2.326 . S
O501 C497 1.260 . S
O502 In494 2.266 . S
O502 C499 1.252 . S
O503 In494 2.326 . S
O503 C499 1.260 . S
C504 O495 1.240 . S
C504 O496 1.252 . S
O505 In494 2.294 . S
O505 C498 1.240 . S
O506 In494 2.326 . S
O506 C498 1.252 . S
In507 O508 2.294 . S
In507 O509 2.326 . S
In507 O513 2.266 . S
In507 O514 2.326 . S
In507 O515 2.266 . S
In507 O516 2.326 . S
In507 O518 2.294 . S
In507 O519 2.326 . S
O508 In507 2.294 . S
O508 C517 1.240 . S
O509 In507 2.326 . S
O509 C517 1.252 . S
C510 O513 1.252 . S
C510 O514 1.260 . S
C511 O518 1.240 . S
C511 O519 1.252 . S
C512 O515 1.252 . S
C512 O516 1.260 . S
O513 In507 2.266 . S
O513 C510 1.252 . S
O514 In507 2.326 . S
O514 C510 1.260 . S
O515 In507 2.266 . S
O515 C512 1.252 . S
O516 In507 2.326 . S
O516 C512 1.260 . S
C517 O508 1.240 . S
C517 O509 1.252 . S
O518 In507 2.294 . S
O518 C511 1.240 . S
O519 In507 2.326 . S
O519 C511 1.252 . S
In520 O521 2.294 . S
In520 O522 2.326 . S
In520 O526 2.266 . S
In520 O527 2.326 . S
In520 O528 2.266 . S
In520 O529 2.326 . S
In520 O531 2.294 . S
In520 O532 2.326 . S
O521 In520 2.294 . S
O521 C530 1.240 . S
O522 In520 2.326 . S
O522 C530 1.252 . S
C523 O526 1.252 . S
C523 O527 1.260 . S
C524 O531 1.240 . S
C524 O532 1.252 . S
C525 O528 1.252 . S
C525 O529 1.260 . S
O526 In520 2.266 . S
O526 C523 1.252 . S
O527 In520 2.326 . S
O527 C523 1.260 . S
O528 In520 2.266 . S
O528 C525 1.252 . S
O529 In520 2.326 . S
O529 C525 1.260 . S
C530 O521 1.240 . S
C530 O522 1.252 . S
O531 In520 2.294 . S
O531 C524 1.240 . S
O532 In520 2.326 . S
O532 C524 1.252 . S
In533 O534 2.294 . S
In533 O535 2.326 . S
In533 O539 2.266 . S
In533 O540 2.326 . S
In533 O541 2.266 . S
In533 O542 2.326 . S
In533 O544 2.294 . S
In533 O545 2.326 . S
O534 In533 2.294 . S
O534 C543 1.240 . S
O535 In533 2.326 . S
O535 C543 1.252 . S
C536 O539 1.252 . S
C536 O540 1.260 . S
C537 O544 1.240 . S
C537 O545 1.252 . S
C538 O541 1.252 . S
C538 O542 1.260 . S
O539 In533 2.266 . S
O539 C536 1.252 . S
O540 In533 2.326 . S
O540 C536 1.260 . S
O541 In533 2.266 . S
O541 C538 1.252 . S
O542 In533 2.326 . S
O542 C538 1.260 . S
C543 O534 1.240 . S
C543 O535 1.252 . S
O544 In533 2.294 . S
O544 C537 1.240 . S
O545 In533 2.326 . S
O545 C537 1.252 . S
In546 O547 2.294 . S
In546 O548 2.326 . S
In546 O552 2.266 . S
In546 O553 2.326 . S
In546 O554 2.266 . S
In546 O555 2.326 . S
In546 O557 2.294 . S
In546 O558 2.326 . S
O547 In546 2.294 . S
O547 C556 1.240 . S
O548 In546 2.326 . S
O548 C556 1.252 . S
C549 O552 1.252 . S
C549 O553 1.260 . S
C550 O557 1.240 . S
C550 O558 1.252 . S
C551 O554 1.252 . S
C551 O555 1.260 . S
O552 In546 2.266 . S
O552 C549 1.252 . S
O553 In546 2.326 . S
O553 C549 1.260 . S
O554 In546 2.266 . S
O554 C551 1.252 . S
O555 In546 2.326 . S
O555 C551 1.260 . S
C556 O547 1.240 . S
C556 O548 1.252 . S
O557 In546 2.294 . S
O557 C550 1.240 . S
O558 In546 2.326 . S
O558 C550 1.252 . S
In559 O560 2.294 . S
In559 O561 2.326 . S
In559 O565 2.266 . S
In559 O566 2.326 . S
In559 O567 2.266 . S
In559 O568 2.326 . S
In559 O570 2.294 . S
In559 O571 2.326 . S
O560 In559 2.294 . S
O560 C569 1.240 . S
O561 In559 2.326 . S
O561 C569 1.252 . S
C562 O565 1.252 . S
C562 O566 1.260 . S
C563 O570 1.240 . S
C563 O571 1.252 . S
C564 O567 1.252 . S
C564 O568 1.260 . S
O565 In559 2.266 . S
O565 C562 1.252 . S
O566 In559 2.326 . S
O566 C562 1.260 . S
O567 In559 2.266 . S
O567 C564 1.252 . S
O568 In559 2.326 . S
O568 C564 1.260 . S
C569 O560 1.240 . S
C569 O561 1.252 . S
O570 In559 2.294 . S
O570 C563 1.240 . S
O571 In559 2.326 . S
O571 C563 1.252 . S
In572 O573 2.294 . S
In572 O574 2.326 . S
In572 O578 2.266 . S
In572 O579 2.326 . S
In572 O580 2.266 . S
In572 O581 2.326 . S
In572 O583 2.294 . S
In572 O584 2.326 . S
O573 In572 2.294 . S
O573 C582 1.240 . S
O574 In572 2.326 . S
O574 C582 1.252 . S
C575 O578 1.252 . S
C575 O579 1.260 . S
C576 O583 1.240 . S
C576 O584 1.252 . S
C577 O580 1.252 . S
C577 O581 1.260 . S
O578 In572 2.266 . S
O578 C575 1.252 . S
O579 In572 2.326 . S
O579 C575 1.260 . S
O580 In572 2.266 . S
O580 C577 1.252 . S
O581 In572 2.326 . S
O581 C577 1.260 . S
C582 O573 1.240 . S
C582 O574 1.252 . S
O583 In572 2.294 . S
O583 C576 1.240 . S
O584 In572 2.326 . S
O584 C576 1.252 . S
In585 O586 2.294 . S
In585 O587 2.326 . S
In585 O591 2.266 . S
In585 O592 2.326 . S
In585 O593 2.266 . S
In585 O594 2.326 . S
In585 O596 2.294 . S
In585 O597 2.326 . S
O586 In585 2.294 . S
O586 C595 1.240 . S
O587 In585 2.326 . S
O587 C595 1.252 . S
C588 O591 1.252 . S
C588 O592 1.260 . S
C589 O596 1.240 . S
C589 O597 1.252 . S
C590 O593 1.252 . S
C590 O594 1.260 . S
O591 In585 2.266 . S
O591 C588 1.252 . S
O592 In585 2.326 . S
O592 C588 1.260 . S
O593 In585 2.266 . S
O593 C590 1.252 . S
O594 In585 2.326 . S
O594 C590 1.260 . S
C595 O586 1.240 . S
C595 O587 1.252 . S
O596 In585 2.294 . S
O596 C589 1.240 . S
O597 In585 2.326 . S
O597 C589 1.252 . S
In598 O599 2.294 . S
In598 O600 2.326 . S
In598 O604 2.266 . S
In598 O605 2.326 . S
In598 O606 2.266 . S
In598 O607 2.326 . S
In598 O609 2.294 . S
In598 O610 2.326 . S
O599 In598 2.294 . S
O599 C608 1.240 . S
O600 In598 2.326 . S
O600 C608 1.252 . S
C601 O604 1.252 . S
C601 O605 1.260 . S
C602 O609 1.240 . S
C602 O610 1.252 . S
C603 O606 1.252 . S
C603 O607 1.260 . S
O604 In598 2.266 . S
O604 C601 1.252 . S
O605 In598 2.326 . S
O605 C601 1.260 . S
O606 In598 2.266 . S
O606 C603 1.252 . S
O607 In598 2.326 . S
O607 C603 1.260 . S
C608 O599 1.240 . S
C608 O600 1.252 . S
O609 In598 2.294 . S
O609 C602 1.240 . S
O610 In598 2.326 . S
O610 C602 1.252 . S
In611 O612 2.294 . S
In611 O613 2.326 . S
In611 O617 2.266 . S
In611 O618 2.326 . S
In611 O619 2.266 . S
In611 O620 2.326 . S
In611 O622 2.294 . S
In611 O623 2.326 . S
O612 In611 2.294 . S
O612 C621 1.240 . S
O613 In611 2.326 . S
O613 C621 1.252 . S
C614 O617 1.252 . S
C614 O618 1.260 . S
C615 O622 1.240 . S
C615 O623 1.252 . S
C616 O619 1.252 . S
C616 O620 1.260 . S
O617 In611 2.266 . S
O617 C614 1.252 . S
O618 In611 2.326 . S
O618 C614 1.260 . S
O619 In611 2.266 . S
O619 C616 1.252 . S
O620 In611 2.326 . S
O620 C616 1.260 . S
C621 O612 1.240 . S
C621 O613 1.252 . S
O622 In611 2.294 . S
O622 C615 1.240 . S
O623 In611 2.326 . S
O623 C615 1.252 . S
C624 C625 1.369 1_455 S
C624 C626 1.419 . S
C624 H628 0.930 . S
C625 C624 1.369 1_655 S
C625 C634 1.429 . S
C626 C624 1.419 . S
C626 C627 1.363 . S
C626 H629 0.929 . S
C627 C626 1.363 . S
C627 C633 1.428 1_455 S
H628 C624 0.930 . S
H629 C626 0.929 . S
S630 N631 1.613 . S
S630 N632 1.610 . S
N631 S630 1.613 . S
N631 C634 1.350 . S
N632 S630 1.610 . S
N632 C633 1.351 . S
C633 C627 1.428 1_655 S
C633 N632 1.351 . S
C633 C634 1.434 . S
C634 C625 1.429 . S
C634 N631 1.350 . S
C634 C633 1.434 . S
C635 C636 1.369 1_545 S
C635 C637 1.419 . S
C635 H639 0.930 . S
C636 C635 1.369 1_565 S
C636 C645 1.429 . S
C637 C635 1.419 . S
C637 C638 1.363 . S
C637 H640 0.929 . S
C638 C637 1.363 . S
C638 C644 1.428 1_545 S
H639 C635 0.930 . S
H640 C637 0.929 . S
S641 N642 1.613 . S
S641 N643 1.610 . S
N642 S641 1.613 . S
N642 C645 1.350 . S
N643 S641 1.610 . S
N643 C644 1.351 . S
C644 C638 1.428 1_565 S
C644 N643 1.351 . S
C644 C645 1.434 . S
C645 C636 1.429 . S
C645 N642 1.350 . S
C645 C644 1.434 . S
C646 C647 1.369 . S
C646 C648 1.419 . S
C646 H650 0.930 . S
C647 C646 1.369 . S
C647 C656 1.429 1_455 S
C648 C646 1.419 . S
C648 C649 1.363 1_455 S
C648 H651 0.929 . S
C649 C648 1.363 1_655 S
C649 C655 1.428 . S
H650 C646 0.930 . S
H651 C648 0.929 . S
S652 N653 1.613 . S
S652 N654 1.610 . S
N653 S652 1.613 . S
N653 C656 1.350 . S
N654 S652 1.610 . S
N654 C655 1.351 . S
C655 C649 1.428 . S
C655 N654 1.351 . S
C655 C656 1.434 . S
C656 C647 1.429 1_655 S
C656 N653 1.350 . S
C656 C655 1.434 . S
C657 C658 1.369 1_545 S
C657 C659 1.419 . S
C657 H661 0.930 . S
C658 C657 1.369 1_565 S
C658 C667 1.429 . S
C659 C657 1.419 . S
C659 C660 1.363 . S
C659 H662 0.929 . S
C660 C659 1.363 . S
C660 C666 1.428 1_545 S
H661 C657 0.930 . S
H662 C659 0.929 . S
S663 N664 1.613 . S
S663 N665 1.610 . S
N664 S663 1.613 . S
N664 C667 1.350 . S
N665 S663 1.610 . S
N665 C666 1.351 . S
C666 C660 1.428 1_565 S
C666 N665 1.351 . S
C666 C667 1.434 . S
C667 C658 1.429 . S
C667 N664 1.350 . S
C667 C666 1.434 . S
C668 C669 1.369 1_455 S
C668 C670 1.419 . S
C668 H672 0.930 . S
C669 C668 1.369 1_655 S
C669 C678 1.429 . S
C670 C668 1.419 . S
C670 C671 1.363 . S
C670 H673 0.929 . S
C671 C670 1.363 . S
C671 C677 1.428 1_455 S
H672 C668 0.930 . S
H673 C670 0.929 . S
S674 N675 1.613 . S
S674 N676 1.610 . S
N675 S674 1.613 . S
N675 C678 1.350 . S
N676 S674 1.610 . S
N676 C677 1.351 . S
C677 C671 1.428 1_655 S
C677 N676 1.351 . S
C677 C678 1.434 . S
C678 C669 1.429 . S
C678 N675 1.350 . S
C678 C677 1.434 . S
C679 C680 1.369 . S
C679 C681 1.419 . S
C679 H683 0.930 . S
C680 C679 1.369 . S
C680 C689 1.429 1_545 S
C681 C679 1.419 . S
C681 C682 1.363 1_545 S
C681 H684 0.929 . S
C682 C681 1.363 1_565 S
C682 C688 1.428 . S
H683 C679 0.930 . S
H684 C681 0.929 . S
S685 N686 1.613 . S
S685 N687 1.610 . S
N686 S685 1.613 . S
N686 C689 1.350 . S
N687 S685 1.610 . S
N687 C688 1.351 . S
C688 C682 1.428 . S
C688 N687 1.351 . S
C688 C689 1.434 . S
C689 C680 1.429 1_565 S
C689 N686 1.350 . S
C689 C688 1.434 . S
C690 C691 1.369 . S
C690 C692 1.419 . S
C690 H694 0.930 . S
C691 C690 1.369 . S
C691 C700 1.429 1_455 S
C692 C690 1.419 . S
C692 C693 1.363 1_455 S
C692 H695 0.929 . S
C693 C692 1.363 1_655 S
C693 C699 1.428 . S
H694 C690 0.930 . S
H695 C692 0.929 . S
S696 N697 1.613 . S
S696 N698 1.610 . S
N697 S696 1.613 . S
N697 C700 1.350 . S
N698 S696 1.610 . S
N698 C699 1.351 . S
C699 C693 1.428 . S
C699 N698 1.351 . S
C699 C700 1.434 . S
C700 C691 1.429 1_655 S
C700 N697 1.350 . S
C700 C699 1.434 . S
C701 C702 1.369 . S
C701 C703 1.419 . S
C701 H705 0.930 . S
C702 C701 1.369 . S
C702 C711 1.429 1_545 S
C703 C701 1.419 . S
C703 C704 1.363 1_545 S
C703 H706 0.929 . S
C704 C703 1.363 1_565 S
C704 C710 1.428 . S
H705 C701 0.930 . S
H706 C703 0.929 . S
S707 N708 1.613 . S
S707 N709 1.610 . S
N708 S707 1.613 . S
N708 C711 1.350 . S
N709 S707 1.610 . S
N709 C710 1.351 . S
C710 C704 1.428 . S
C710 N709 1.351 . S
C710 C711 1.434 . S
C711 C702 1.429 1_565 S
C711 N708 1.350 . S
C711 C710 1.434 . S
C712 C713 1.369 . S
C712 C714 1.441 . S
C712 H716 0.930 . S
C713 C712 1.369 . S
C713 C722 1.429 1_554 S
C714 C712 1.441 . S
C714 C715 1.339 1_554 S
C714 H717 0.934 . S
C715 C714 1.339 1_556 S
C715 C721 1.428 . S
H716 C712 0.930 . S
H717 C714 0.934 . S
S718 N719 1.613 . S
S718 N720 1.610 . S
N719 S718 1.613 . S
N719 C722 1.350 . S
N720 S718 1.610 . S
N720 C721 1.351 . S
C721 C715 1.428 . S
C721 N720 1.351 . S
C721 C722 1.434 . S
C722 C713 1.429 1_556 S
C722 N719 1.350 . S
C722 C721 1.434 . S
C723 C724 1.369 . S
C723 C725 1.419 . S
C723 H727 0.930 . S
C724 C723 1.369 . S
C724 C733 1.429 1_556 S
C725 C723 1.419 . S
C725 C726 1.363 1_556 S
C725 H728 0.929 . S
C726 C725 1.363 1_554 S
C726 C732 1.428 . S
H727 C723 0.930 . S
H728 C725 0.929 . S
S729 N730 1.613 . S
S729 N731 1.610 . S
N730 S729 1.613 . S
N730 C733 1.350 . S
N731 S729 1.610 . S
N731 C732 1.351 . S
C732 C726 1.428 . S
C732 N731 1.351 . S
C732 C733 1.434 . S
C733 C724 1.429 1_554 S
C733 N730 1.350 . S
C733 C732 1.434 . S
C734 C735 1.369 . S
C734 C736 1.419 . S
C734 H738 0.930 . S
C735 C734 1.369 . S
C735 C744 1.429 1_556 S
C736 C734 1.419 . S
C736 C737 1.363 1_556 S
C736 H739 0.929 . S
C737 C736 1.363 1_554 S
C737 C743 1.428 . S
H738 C734 0.930 . S
H739 C736 0.929 . S
S740 N741 1.613 . S
S740 N742 1.610 . S
N741 S740 1.613 . S
N741 C744 1.350 . S
N742 S740 1.610 . S
N742 C743 1.351 . S
C743 C737 1.428 . S
C743 N742 1.351 . S
C743 C744 1.434 . S
C744 C735 1.429 1_554 S
C744 N741 1.350 . S
C744 C743 1.434 . S
C745 C746 1.369 . S
C745 C747 1.419 . S
C745 H749 0.930 . S
C746 C745 1.369 . S
C746 C755 1.429 1_556 S
C747 C745 1.419 . S
C747 C748 1.363 1_556 S
C747 H750 0.929 . S
C748 C747 1.363 1_554 S
C748 C754 1.428 . S
H749 C745 0.930 . S
H750 C747 0.929 . S
S751 N752 1.613 . S
S751 N753 1.610 . S
N752 S751 1.613 . S
N752 C755 1.350 . S
N753 S751 1.610 . S
N753 C754 1.351 . S
C754 C748 1.428 . S
C754 N753 1.351 . S
C754 C755 1.434 . S
C755 C746 1.429 1_554 S
C755 N752 1.350 . S
C755 C754 1.434 . S
C756 C757 1.369 . S
C756 C758 1.419 . S
C756 H760 0.930 . S
C757 C756 1.369 . S
C757 C766 1.429 . S
C758 C756 1.419 . S
C758 C759 1.363 . S
C758 H761 0.929 . S
C759 C758 1.363 . S
C759 C765 1.428 . S
H760 C756 0.930 . S
H761 C758 0.929 . S
S762 N763 1.613 . S
S762 N764 1.610 . S
N763 S762 1.613 . S
N763 C766 1.350 . S
N764 S762 1.610 . S
N764 C765 1.351 . S
C765 C759 1.428 . S
C765 N764 1.351 . S
C765 C766 1.434 . S
C766 C757 1.429 . S
C766 N763 1.350 . S
C766 C765 1.434 . S
C767 C768 1.369 . S
C767 C769 1.419 . S
C767 H771 0.930 . S
C768 C767 1.369 . S
C768 C777 1.429 . S
C769 C767 1.419 . S
C769 C770 1.363 . S
C769 H772 0.929 . S
C770 C769 1.363 . S
C770 C776 1.428 . S
H771 C767 0.930 . S
H772 C769 0.929 . S
S773 N774 1.613 . S
S773 N775 1.610 . S
N774 S773 1.613 . S
N774 C777 1.350 . S
N775 S773 1.610 . S
N775 C776 1.351 . S
C776 C770 1.428 . S
C776 N775 1.351 . S
C776 C777 1.434 . S
C777 C768 1.429 . S
C777 N774 1.350 . S
C777 C776 1.434 . S
C778 C779 1.369 . S
C778 C780 1.419 . S
C778 H782 0.930 . S
C779 C778 1.369 . S
C779 C788 1.429 . S
C780 C778 1.419 . S
C780 C781 1.363 . S
C780 H783 0.929 . S
C781 C780 1.363 . S
C781 C787 1.428 . S
H782 C778 0.930 . S
H783 C780 0.929 . S
S784 N785 1.613 . S
S784 N786 1.610 . S
N785 S784 1.613 . S
N785 C788 1.350 . S
N786 S784 1.610 . S
N786 C787 1.351 . S
C787 C781 1.428 . S
C787 N786 1.351 . S
C787 C788 1.434 . S
C788 C779 1.429 . S
C788 N785 1.350 . S
C788 C787 1.434 . S
C789 C790 1.369 . S
C789 C791 1.419 . S
C789 H793 0.930 . S
C790 C789 1.369 . S
C790 C799 1.429 . S
C791 C789 1.419 . S
C791 C792 1.363 . S
C791 H794 0.929 . S
C792 C791 1.363 . S
C792 C798 1.428 . S
H793 C789 0.930 . S
H794 C791 0.929 . S
S795 N796 1.613 . S
S795 N797 1.610 . S
N796 S795 1.613 . S
N796 C799 1.350 . S
N797 S795 1.610 . S
N797 C798 1.351 . S
C798 C792 1.428 . S
C798 N797 1.351 . S
C798 C799 1.434 . S
C799 C790 1.429 . S
C799 N796 1.350 . S
C799 C798 1.434 . S
C800 C801 1.369 . S
C800 C802 1.419 . S
C800 H804 0.930 . S
C801 C800 1.369 . S
C801 C810 1.429 . S
C802 C800 1.419 . S
C802 C803 1.363 . S
C802 H805 0.929 . S
C803 C802 1.363 . S
C803 C809 1.428 . S
H804 C800 0.930 . S
H805 C802 0.929 . S
S806 N807 1.613 . S
S806 N808 1.610 . S
N807 S806 1.613 . S
N807 C810 1.350 . S
N808 S806 1.610 . S
N808 C809 1.351 . S
C809 C803 1.428 . S
C809 N808 1.351 . S
C809 C810 1.434 . S
C810 C801 1.429 . S
C810 N807 1.350 . S
C810 C809 1.434 . S
C811 C812 1.369 . S
C811 C813 1.419 . S
C811 H815 0.930 . S
C812 C811 1.369 . S
C812 C821 1.429 . S
C813 C811 1.419 . S
C813 C814 1.363 . S
C813 H816 0.929 . S
C814 C813 1.363 . S
C814 C820 1.428 . S
H815 C811 0.930 . S
H816 C813 0.929 . S
S817 N818 1.613 . S
S817 N819 1.610 . S
N818 S817 1.613 . S
N818 C821 1.350 . S
N819 S817 1.610 . S
N819 C820 1.351 . S
C820 C814 1.428 . S
C820 N819 1.351 . S
C820 C821 1.434 . S
C821 C812 1.429 . S
C821 N818 1.350 . S
C821 C820 1.434 . S
C822 C823 1.369 . S
C822 C824 1.419 . S
C822 H826 0.930 . S
C823 C822 1.369 . S
C823 C832 1.429 . S
C824 C822 1.419 . S
C824 C825 1.363 . S
C824 H827 0.929 . S
C825 C824 1.363 . S
C825 C831 1.428 . S
H826 C822 0.930 . S
H827 C824 0.929 . S
S828 N829 1.613 . S
S828 N830 1.610 . S
N829 S828 1.613 . S
N829 C832 1.350 . S
N830 S828 1.610 . S
N830 C831 1.351 . S
C831 C825 1.428 . S
C831 N830 1.351 . S
C831 C832 1.434 . S
C832 C823 1.429 . S
C832 N829 1.350 . S
C832 C831 1.434 . S
C833 C834 1.369 . S
C833 C835 1.419 . S
C833 H837 0.930 . S
C834 C833 1.369 . S
C834 C843 1.429 . S
C835 C833 1.419 . S
C835 C836 1.363 . S
C835 H838 0.929 . S
C836 C835 1.363 . S
C836 C842 1.428 . S
H837 C833 0.930 . S
H838 C835 0.929 . S
S839 N840 1.613 . S
S839 N841 1.610 . S
N840 S839 1.613 . S
N840 C843 1.350 . S
N841 S839 1.610 . S
N841 C842 1.351 . S
C842 C836 1.428 . S
C842 N841 1.351 . S
C842 C843 1.434 . S
C843 C834 1.429 . S
C843 N840 1.350 . S
C843 C842 1.434 . S
C844 C845 1.369 . S
C844 C846 1.419 . S
C844 H848 0.930 . S
C845 C844 1.369 . S
C845 C854 1.429 . S
C846 C844 1.419 . S
C846 C847 1.363 . S
C846 H849 0.929 . S
C847 C846 1.363 . S
C847 C853 1.428 . S
H848 C844 0.930 . S
H849 C846 0.929 . S
S850 N851 1.613 . S
S850 N852 1.610 . S
N851 S850 1.613 . S
N851 C854 1.350 . S
N852 S850 1.610 . S
N852 C853 1.351 . S
C853 C847 1.428 . S
C853 N852 1.351 . S
C853 C854 1.434 . S
C854 C845 1.429 . S
C854 N851 1.350 . S
C854 C853 1.434 . S
C855 C856 1.369 . S
C855 C857 1.419 . S
C855 H859 0.930 . S
C856 C855 1.369 . S
C856 C865 1.429 . S
C857 C855 1.419 . S
C857 C858 1.363 . S
C857 H860 0.929 . S
C858 C857 1.363 . S
C858 C864 1.428 . S
H859 C855 0.930 . S
H860 C857 0.929 . S
S861 N862 1.613 . S
S861 N863 1.610 . S
N862 S861 1.613 . S
N862 C865 1.350 . S
N863 S861 1.610 . S
N863 C864 1.351 . S
C864 C858 1.428 . S
C864 N863 1.351 . S
C864 C865 1.434 . S
C865 C856 1.429 . S
C865 N862 1.350 . S
C865 C864 1.434 . S
C866 C867 1.369 . S
C866 C868 1.419 . S
C866 H870 0.930 . S
C867 C866 1.369 . S
C867 C876 1.429 . S
C868 C866 1.419 . S
C868 C869 1.363 . S
C868 H871 0.929 . S
C869 C868 1.363 . S
C869 C875 1.428 . S
H870 C866 0.930 . S
H871 C868 0.929 . S
S872 N873 1.613 . S
S872 N874 1.610 . S
N873 S872 1.613 . S
N873 C876 1.350 . S
N874 S872 1.610 . S
N874 C875 1.351 . S
C875 C869 1.428 . S
C875 N874 1.351 . S
C875 C876 1.434 . S
C876 C867 1.429 . S
C876 N873 1.350 . S
C876 C875 1.434 . S
C877 C878 1.369 . S
C877 C879 1.419 . S
C877 H881 0.930 . S
C878 C877 1.369 . S
C878 C887 1.429 . S
C879 C877 1.419 . S
C879 C880 1.363 . S
C879 H882 0.929 . S
C880 C879 1.363 . S
C880 C886 1.428 . S
H881 C877 0.930 . S
H882 C879 0.929 . S
S883 N884 1.613 . S
S883 N885 1.610 . S
N884 S883 1.613 . S
N884 C887 1.350 . S
N885 S883 1.610 . S
N885 C886 1.351 . S
C886 C880 1.428 . S
C886 N885 1.351 . S
C886 C887 1.434 . S
C887 C878 1.429 . S
C887 N884 1.350 . S
C887 C886 1.434 . S
C888 C889 1.369 . S
C888 C890 1.419 . S
C888 H892 0.930 . S
C889 C888 1.369 . S
C889 C898 1.429 . S
C890 C888 1.419 . S
C890 C891 1.363 . S
C890 H893 0.929 . S
C891 C890 1.363 . S
C891 C897 1.428 . S
H892 C888 0.930 . S
H893 C890 0.929 . S
S894 N895 1.613 . S
S894 N896 1.610 . S
N895 S894 1.613 . S
N895 C898 1.350 . S
N896 S894 1.610 . S
N896 C897 1.351 . S
C897 C891 1.428 . S
C897 N896 1.351 . S
C897 C898 1.434 . S
C898 C889 1.429 . S
C898 N895 1.350 . S
C898 C897 1.434 . S
C899 C900 1.369 . S
C899 C901 1.419 . S
C899 H903 0.930 . S
C900 C899 1.369 . S
C900 C909 1.429 . S
C901 C899 1.419 . S
C901 C902 1.363 . S
C901 H904 0.929 . S
C902 C901 1.363 . S
C902 C908 1.428 . S
H903 C899 0.930 . S
H904 C901 0.929 . S
S905 N906 1.613 . S
S905 N907 1.610 . S
N906 S905 1.613 . S
N906 C909 1.350 . S
N907 S905 1.610 . S
N907 C908 1.351 . S
C908 C902 1.428 . S
C908 N907 1.351 . S
C908 C909 1.434 . S
C909 C900 1.429 . S
C909 N906 1.350 . S
C909 C908 1.434 . S
C910 C911 1.369 . S
C910 C912 1.419 . S
C910 H914 0.930 . S
C911 C910 1.369 . S
C911 C920 1.429 . S
C912 C910 1.419 . S
C912 C913 1.363 . S
C912 H915 0.929 . S
C913 C912 1.363 . S
C913 C919 1.428 . S
H914 C910 0.930 . S
H915 C912 0.929 . S
S916 N917 1.613 . S
S916 N918 1.610 . S
N917 S916 1.613 . S
N917 C920 1.350 . S
N918 S916 1.610 . S
N918 C919 1.351 . S
C919 C913 1.428 . S
C919 N918 1.351 . S
C919 C920 1.434 . S
C920 C911 1.429 . S
C920 N917 1.350 . S
C920 C919 1.434 . S
C921 C922 1.369 . S
C921 C923 1.419 . S
C921 H925 0.930 . S
C922 C921 1.369 . S
C922 C931 1.429 . S
C923 C921 1.419 . S
C923 C924 1.363 . S
C923 H926 0.929 . S
C924 C923 1.363 . S
C924 C930 1.428 . S
H925 C921 0.930 . S
H926 C923 0.929 . S
S927 N928 1.613 . S
S927 N929 1.610 . S
N928 S927 1.613 . S
N928 C931 1.350 . S
N929 S927 1.610 . S
N929 C930 1.351 . S
C930 C924 1.428 . S
C930 N929 1.351 . S
C930 C931 1.434 . S
C931 C922 1.429 . S
C931 N928 1.350 . S
C931 C930 1.434 . S
C932 C933 1.369 . S
C932 C934 1.419 . S
C932 H936 0.930 . S
C933 C932 1.369 . S
C933 C942 1.429 . S
C934 C932 1.419 . S
C934 C935 1.363 . S
C934 H937 0.929 . S
C935 C934 1.363 . S
C935 C941 1.428 . S
H936 C932 0.930 . S
H937 C934 0.929 . S
S938 N939 1.613 . S
S938 N940 1.610 . S
N939 S938 1.613 . S
N939 C942 1.350 . S
N940 S938 1.610 . S
N940 C941 1.351 . S
C941 C935 1.428 . S
C941 N940 1.351 . S
C941 C942 1.434 . S
C942 C933 1.429 . S
C942 N939 1.350 . S
C942 C941 1.434 . S
C943 C944 1.369 . S
C943 C945 1.419 . S
C943 H947 0.930 . S
C944 C943 1.369 . S
C944 C953 1.429 . S
C945 C943 1.419 . S
C945 C946 1.363 . S
C945 H948 0.929 . S
C946 C945 1.363 . S
C946 C952 1.428 . S
H947 C943 0.930 . S
H948 C945 0.929 . S
S949 N950 1.613 . S
S949 N951 1.610 . S
N950 S949 1.613 . S
N950 C953 1.350 . S
N951 S949 1.610 . S
N951 C952 1.351 . S
C952 C946 1.428 . S
C952 N951 1.351 . S
C952 C953 1.434 . S
C953 C944 1.429 . S
C953 N950 1.350 . S
C953 C952 1.434 . S
C954 C955 1.369 . S
C954 C956 1.419 . S
C954 H958 0.930 . S
C955 C954 1.369 . S
C955 C964 1.429 . S
C956 C954 1.419 . S
C956 C957 1.363 . S
C956 H959 0.929 . S
C957 C956 1.363 . S
C957 C963 1.428 . S
H958 C954 0.930 . S
H959 C956 0.929 . S
S960 N961 1.613 . S
S960 N962 1.610 . S
N961 S960 1.613 . S
N961 C964 1.350 . S
N962 S960 1.610 . S
N962 C963 1.351 . S
C963 C957 1.428 . S
C963 N962 1.351 . S
C963 C964 1.434 . S
C964 C955 1.429 . S
C964 N961 1.350 . S
C964 C963 1.434 . S
C965 C966 1.369 . S
C965 C967 1.419 . S
C965 H969 0.930 . S
C966 C965 1.369 . S
C966 C975 1.429 . S
C967 C965 1.419 . S
C967 C968 1.363 . S
C967 H970 0.929 . S
C968 C967 1.363 . S
C968 C974 1.428 . S
H969 C965 0.930 . S
H970 C967 0.929 . S
S971 N972 1.613 . S
S971 N973 1.610 . S
N972 S971 1.613 . S
N972 C975 1.350 . S
N973 S971 1.610 . S
N973 C974 1.351 . S
C974 C968 1.428 . S
C974 N973 1.351 . S
C974 C975 1.434 . S
C975 C966 1.429 . S
C975 N972 1.350 . S
C975 C974 1.434 . S
C976 C977 1.369 . S
C976 C978 1.419 . S
C976 H980 0.930 . S
C977 C976 1.369 . S
C977 C986 1.429 . S
C978 C976 1.419 . S
C978 C979 1.363 . S
C978 H981 0.929 . S
C979 C978 1.363 . S
C979 C985 1.428 . S
H980 C976 0.930 . S
H981 C978 0.929 . S
S982 N983 1.613 . S
S982 N984 1.610 . S
N983 S982 1.613 . S
N983 C986 1.350 . S
N984 S982 1.610 . S
N984 C985 1.351 . S
C985 C979 1.428 . S
C985 N984 1.351 . S
C985 C986 1.434 . S
C986 C977 1.429 . S
C986 N983 1.350 . S
C986 C985 1.434 . S
C987 C988 1.369 . S
C987 C989 1.419 . S
C987 H991 0.930 . S
C988 C987 1.369 . S
C988 C997 1.429 . S
C989 C987 1.419 . S
C989 C990 1.363 . S
C989 H992 0.929 . S
C990 C989 1.363 . S
C990 C996 1.428 . S
H991 C987 0.930 . S
H992 C989 0.929 . S
S993 N994 1.613 . S
S993 N995 1.610 . S
N994 S993 1.613 . S
N994 C997 1.350 . S
N995 S993 1.610 . S
N995 C996 1.351 . S
C996 C990 1.428 . S
C996 N995 1.351 . S
C996 C997 1.434 . S
C997 C988 1.429 . S
C997 N994 1.350 . S
C997 C996 1.434 . S
C998 C999 1.369 . S
C998 C1000 1.419 . S
C998 H1002 0.930 . S
C999 C998 1.369 . S
C999 C1008 1.429 . S
C1000 C998 1.419 . S
C1000 C1001 1.363 . S
C1000 H1003 0.929 . S
C1001 C1000 1.363 . S
C1001 C1007 1.428 . S
H1002 C998 0.930 . S
H1003 C1000 0.929 . S
S1004 N1005 1.613 . S
S1004 N1006 1.610 . S
N1005 S1004 1.613 . S
N1005 C1008 1.350 . S
N1006 S1004 1.610 . S
N1006 C1007 1.351 . S
C1007 C1001 1.428 . S
C1007 N1006 1.351 . S
C1007 C1008 1.434 . S
C1008 C999 1.429 . S
C1008 N1005 1.350 . S
C1008 C1007 1.434 . S
C1009 C1010 1.369 . S
C1009 C1011 1.419 . S
C1009 H1013 0.930 . S
C1010 C1009 1.369 . S
C1010 C1019 1.429 . S
C1011 C1009 1.419 . S
C1011 C1012 1.363 . S
C1011 H1014 0.929 . S
C1012 C1011 1.363 . S
C1012 C1018 1.428 . S
H1013 C1009 0.930 . S
H1014 C1011 0.929 . S
S1015 N1016 1.613 . S
S1015 N1017 1.610 . S
N1016 S1015 1.613 . S
N1016 C1019 1.350 . S
N1017 S1015 1.610 . S
N1017 C1018 1.351 . S
C1018 C1012 1.428 . S
C1018 N1017 1.351 . S
C1018 C1019 1.434 . S
C1019 C1010 1.429 . S
C1019 N1016 1.350 . S
C1019 C1018 1.434 . S
C1020 C1021 1.369 . S
C1020 C1022 1.419 . S
C1020 H1024 0.930 . S
C1021 C1020 1.369 . S
C1021 C1030 1.429 . S
C1022 C1020 1.419 . S
C1022 C1023 1.363 . S
C1022 H1025 0.929 . S
C1023 C1022 1.363 . S
C1023 C1029 1.428 . S
H1024 C1020 0.930 . S
H1025 C1022 0.929 . S
S1026 N1027 1.613 . S
S1026 N1028 1.610 . S
N1027 S1026 1.613 . S
N1027 C1030 1.350 . S
N1028 S1026 1.610 . S
N1028 C1029 1.351 . S
C1029 C1023 1.428 . S
C1029 N1028 1.351 . S
C1029 C1030 1.434 . S
C1030 C1021 1.429 . S
C1030 N1027 1.350 . S
C1030 C1029 1.434 . S
C1031 C1032 1.369 . S
C1031 C1033 1.419 . S
C1031 H1035 0.930 . S
C1032 C1031 1.369 . S
C1032 C1041 1.429 . S
C1033 C1031 1.419 . S
C1033 C1034 1.363 . S
C1033 H1036 0.929 . S
C1034 C1033 1.363 . S
C1034 C1040 1.428 . S
H1035 C1031 0.930 . S
H1036 C1033 0.929 . S
S1037 N1038 1.613 . S
S1037 N1039 1.610 . S
N1038 S1037 1.613 . S
N1038 C1041 1.350 . S
N1039 S1037 1.610 . S
N1039 C1040 1.351 . S
C1040 C1034 1.428 . S
C1040 N1039 1.351 . S
C1040 C1041 1.434 . S
C1041 C1032 1.429 . S
C1041 N1038 1.350 . S
C1041 C1040 1.434 . S
C1042 C1043 1.369 . S
C1042 C1044 1.419 . S
C1042 H1046 0.930 . S
C1043 C1042 1.369 . S
C1043 C1052 1.429 . S
C1044 C1042 1.419 . S
C1044 C1045 1.363 . S
C1044 H1047 0.929 . S
C1045 C1044 1.363 . S
C1045 C1051 1.428 . S
H1046 C1042 0.930 . S
H1047 C1044 0.929 . S
S1048 N1049 1.613 . S
S1048 N1050 1.610 . S
N1049 S1048 1.613 . S
N1049 C1052 1.350 . S
N1050 S1048 1.610 . S
N1050 C1051 1.351 . S
C1051 C1045 1.428 . S
C1051 N1050 1.351 . S
C1051 C1052 1.434 . S
C1052 C1043 1.429 . S
C1052 N1049 1.350 . S
C1052 C1051 1.434 . S
C1053 C1054 1.369 . S
C1053 C1055 1.419 . S
C1053 H1057 0.930 . S
C1054 C1053 1.369 . S
C1054 C1063 1.429 . S
C1055 C1053 1.419 . S
C1055 C1056 1.363 . S
C1055 H1058 0.929 . S
C1056 C1055 1.363 . S
C1056 C1062 1.428 . S
H1057 C1053 0.930 . S
H1058 C1055 0.929 . S
S1059 N1060 1.613 . S
S1059 N1061 1.610 . S
N1060 S1059 1.613 . S
N1060 C1063 1.350 . S
N1061 S1059 1.610 . S
N1061 C1062 1.351 . S
C1062 C1056 1.428 . S
C1062 N1061 1.351 . S
C1062 C1063 1.434 . S
C1063 C1054 1.429 . S
C1063 N1060 1.350 . S
C1063 C1062 1.434 . S
C1064 C1065 1.369 . S
C1064 C1066 1.419 . S
C1064 H1068 0.930 . S
C1065 C1064 1.369 . S
C1065 C1074 1.429 . S
C1066 C1064 1.419 . S
C1066 C1067 1.363 . S
C1066 H1069 0.929 . S
C1067 C1066 1.363 . S
C1067 C1073 1.428 . S
H1068 C1064 0.930 . S
H1069 C1066 0.929 . S
S1070 N1071 1.613 . S
S1070 N1072 1.610 . S
N1071 S1070 1.613 . S
N1071 C1074 1.350 . S
N1072 S1070 1.610 . S
N1072 C1073 1.351 . S
C1073 C1067 1.428 . S
C1073 N1072 1.351 . S
C1073 C1074 1.434 . S
C1074 C1065 1.429 . S
C1074 N1071 1.350 . S
C1074 C1073 1.434 . S
C1075 C1076 1.369 . S
C1075 C1077 1.419 . S
C1075 H1079 0.930 . S
C1076 C1075 1.369 . S
C1076 C1085 1.429 . S
C1077 C1075 1.419 . S
C1077 C1078 1.363 . S
C1077 H1080 0.929 . S
C1078 C1077 1.363 . S
C1078 C1084 1.428 . S
H1079 C1075 0.930 . S
H1080 C1077 0.929 . S
S1081 N1082 1.613 . S
S1081 N1083 1.610 . S
N1082 S1081 1.613 . S
N1082 C1085 1.350 . S
N1083 S1081 1.610 . S
N1083 C1084 1.351 . S
C1084 C1078 1.428 . S
C1084 N1083 1.351 . S
C1084 C1085 1.434 . S
C1085 C1076 1.429 . S
C1085 N1082 1.350 . S
C1085 C1084 1.434 . S
C1086 C1087 1.369 . S
C1086 C1088 1.419 . S
C1086 H1090 0.930 . S
C1087 C1086 1.369 . S
C1087 C1096 1.429 . S
C1088 C1086 1.419 . S
C1088 C1089 1.363 . S
C1088 H1091 0.929 . S
C1089 C1088 1.363 . S
C1089 C1095 1.428 . S
H1090 C1086 0.930 . S
H1091 C1088 0.929 . S
S1092 N1093 1.613 . S
S1092 N1094 1.610 . S
N1093 S1092 1.613 . S
N1093 C1096 1.350 . S
N1094 S1092 1.610 . S
N1094 C1095 1.351 . S
C1095 C1089 1.428 . S
C1095 N1094 1.351 . S
C1095 C1096 1.434 . S
C1096 C1087 1.429 . S
C1096 N1093 1.350 . S
C1096 C1095 1.434 . S
C1097 C1098 1.369 . S
C1097 C1099 1.419 . S
C1097 H1101 0.930 . S
C1098 C1097 1.369 . S
C1098 C1107 1.429 . S
C1099 C1097 1.419 . S
C1099 C1100 1.363 . S
C1099 H1102 0.929 . S
C1100 C1099 1.363 . S
C1100 C1106 1.428 . S
H1101 C1097 0.930 . S
H1102 C1099 0.929 . S
S1103 N1104 1.613 . S
S1103 N1105 1.610 . S
N1104 S1103 1.613 . S
N1104 C1107 1.350 . S
N1105 S1103 1.610 . S
N1105 C1106 1.351 . S
C1106 C1100 1.428 . S
C1106 N1105 1.351 . S
C1106 C1107 1.434 . S
C1107 C1098 1.429 . S
C1107 N1104 1.350 . S
C1107 C1106 1.434 . S
C1108 C1109 1.369 . S
C1108 C1110 1.419 . S
C1108 H1112 0.930 . S
C1109 C1108 1.369 . S
C1109 C1118 1.429 . S
C1110 C1108 1.419 . S
C1110 C1111 1.363 . S
C1110 H1113 0.929 . S
C1111 C1110 1.363 . S
C1111 C1117 1.428 . S
H1112 C1108 0.930 . S
H1113 C1110 0.929 . S
S1114 N1115 1.613 . S
S1114 N1116 1.610 . S
N1115 S1114 1.613 . S
N1115 C1118 1.350 . S
N1116 S1114 1.610 . S
N1116 C1117 1.351 . S
C1117 C1111 1.428 . S
C1117 N1116 1.351 . S
C1117 C1118 1.434 . S
C1118 C1109 1.429 . S
C1118 N1115 1.350 . S
C1118 C1117 1.434 . S
C1119 C1120 1.369 . S
C1119 C1121 1.419 . S
C1119 H1123 0.930 . S
C1120 C1119 1.369 . S
C1120 C1129 1.429 . S
C1121 C1119 1.419 . S
C1121 C1122 1.363 . S
C1121 H1124 0.929 . S
C1122 C1121 1.363 . S
C1122 C1128 1.428 . S
H1123 C1119 0.930 . S
H1124 C1121 0.929 . S
S1125 N1126 1.613 . S
S1125 N1127 1.610 . S
N1126 S1125 1.613 . S
N1126 C1129 1.350 . S
N1127 S1125 1.610 . S
N1127 C1128 1.351 . S
C1128 C1122 1.428 . S
C1128 N1127 1.351 . S
C1128 C1129 1.434 . S
C1129 C1120 1.429 . S
C1129 N1126 1.350 . S
C1129 C1128 1.434 . S
C1130 C1131 1.369 . S
C1130 C1132 1.419 . S
C1130 H1134 0.930 . S
C1131 C1130 1.369 . S
C1131 C1140 1.429 . S
C1132 C1130 1.419 . S
C1132 C1133 1.363 . S
C1132 H1135 0.929 . S
C1133 C1132 1.363 . S
C1133 C1139 1.428 . S
H1134 C1130 0.930 . S
H1135 C1132 0.929 . S
S1136 N1137 1.613 . S
S1136 N1138 1.610 . S
N1137 S1136 1.613 . S
N1137 C1140 1.350 . S
N1138 S1136 1.610 . S
N1138 C1139 1.351 . S
C1139 C1133 1.428 . S
C1139 N1138 1.351 . S
C1139 C1140 1.434 . S
C1140 C1131 1.429 . S
C1140 N1137 1.350 . S
C1140 C1139 1.434 . S
C1141 C1142 1.369 . S
C1141 C1143 1.419 . S
C1141 H1145 0.930 . S
C1142 C1141 1.369 . S
C1142 C1151 1.429 . S
C1143 C1141 1.419 . S
C1143 C1144 1.363 . S
C1143 H1146 0.929 . S
C1144 C1143 1.363 . S
C1144 C1150 1.428 . S
H1145 C1141 0.930 . S
H1146 C1143 0.929 . S
S1147 N1148 1.613 . S
S1147 N1149 1.610 . S
N1148 S1147 1.613 . S
N1148 C1151 1.350 . S
N1149 S1147 1.610 . S
N1149 C1150 1.351 . S
C1150 C1144 1.428 . S
C1150 N1149 1.351 . S
C1150 C1151 1.434 . S
C1151 C1142 1.429 . S
C1151 N1148 1.350 . S
C1151 C1150 1.434 . S
C1152 C1153 1.369 . S
C1152 C1154 1.419 . S
C1152 H1156 0.930 . S
C1153 C1152 1.369 . S
C1153 C1162 1.429 . S
C1154 C1152 1.419 . S
C1154 C1155 1.363 . S
C1154 H1157 0.929 . S
C1155 C1154 1.363 . S
C1155 C1161 1.428 . S
H1156 C1152 0.930 . S
H1157 C1154 0.929 . S
S1158 N1159 1.613 . S
S1158 N1160 1.610 . S
N1159 S1158 1.613 . S
N1159 C1162 1.350 . S
N1160 S1158 1.610 . S
N1160 C1161 1.351 . S
C1161 C1155 1.428 . S
C1161 N1160 1.351 . S
C1161 C1162 1.434 . S
C1162 C1153 1.429 . S
C1162 N1159 1.350 . S
C1162 C1161 1.434 . S
C1163 C1164 1.369 . S
C1163 C1165 1.419 . S
C1163 H1167 0.930 . S
C1164 C1163 1.369 . S
C1164 C1173 1.429 . S
C1165 C1163 1.419 . S
C1165 C1166 1.363 . S
C1165 H1168 0.929 . S
C1166 C1165 1.363 . S
C1166 C1172 1.428 . S
H1167 C1163 0.930 . S
H1168 C1165 0.929 . S
S1169 N1170 1.613 . S
S1169 N1171 1.610 . S
N1170 S1169 1.613 . S
N1170 C1173 1.350 . S
N1171 S1169 1.610 . S
N1171 C1172 1.351 . S
C1172 C1166 1.428 . S
C1172 N1171 1.351 . S
C1172 C1173 1.434 . S
C1173 C1164 1.429 . S
C1173 N1170 1.350 . S
C1173 C1172 1.434 . S
C1174 C1175 1.369 . S
C1174 C1176 1.419 . S
C1174 H1178 0.930 . S
C1175 C1174 1.369 . S
C1175 C1184 1.429 . S
C1176 C1174 1.419 . S
C1176 C1177 1.363 . S
C1176 H1179 0.929 . S
C1177 C1176 1.363 . S
C1177 C1183 1.428 . S
H1178 C1174 0.930 . S
H1179 C1176 0.929 . S
S1180 N1181 1.613 . S
S1180 N1182 1.610 . S
N1181 S1180 1.613 . S
N1181 C1184 1.350 . S
N1182 S1180 1.610 . S
N1182 C1183 1.351 . S
C1183 C1177 1.428 . S
C1183 N1182 1.351 . S
C1183 C1184 1.434 . S
C1184 C1175 1.429 . S
C1184 N1181 1.350 . S
C1184 C1183 1.434 . S
C1185 C1186 1.369 . S
C1185 C1187 1.419 . S
C1185 H1189 0.930 . S
C1186 C1185 1.369 . S
C1186 C1195 1.429 . S
C1187 C1185 1.419 . S
C1187 C1188 1.363 . S
C1187 H1190 0.929 . S
C1188 C1187 1.363 . S
C1188 C1194 1.428 . S
H1189 C1185 0.930 . S
H1190 C1187 0.929 . S
S1191 N1192 1.613 . S
S1191 N1193 1.610 . S
N1192 S1191 1.613 . S
N1192 C1195 1.350 . S
N1193 S1191 1.610 . S
N1193 C1194 1.351 . S
C1194 C1188 1.428 . S
C1194 N1193 1.351 . S
C1194 C1195 1.434 . S
C1195 C1186 1.429 . S
C1195 N1192 1.350 . S
C1195 C1194 1.434 . S
C1196 C1197 1.369 . S
C1196 C1198 1.419 . S
C1196 H1200 0.930 . S
C1197 C1196 1.369 . S
C1197 C1206 1.429 . S
C1198 C1196 1.419 . S
C1198 C1199 1.363 . S
C1198 H1201 0.929 . S
C1199 C1198 1.363 . S
C1199 C1205 1.428 . S
H1200 C1196 0.930 . S
H1201 C1198 0.929 . S
S1202 N1203 1.613 . S
S1202 N1204 1.610 . S
N1203 S1202 1.613 . S
N1203 C1206 1.350 . S
N1204 S1202 1.610 . S
N1204 C1205 1.351 . S
C1205 C1199 1.428 . S
C1205 N1204 1.351 . S
C1205 C1206 1.434 . S
C1206 C1197 1.429 . S
C1206 N1203 1.350 . S
C1206 C1205 1.434 . S
C1207 C1208 1.369 . S
C1207 C1209 1.419 . S
C1207 H1211 0.930 . S
C1208 C1207 1.369 . S
C1208 C1217 1.429 . S
C1209 C1207 1.419 . S
C1209 C1210 1.363 . S
C1209 H1212 0.929 . S
C1210 C1209 1.363 . S
C1210 C1216 1.428 . S
H1211 C1207 0.930 . S
H1212 C1209 0.929 . S
S1213 N1214 1.613 . S
S1213 N1215 1.610 . S
N1214 S1213 1.613 . S
N1214 C1217 1.350 . S
N1215 S1213 1.610 . S
N1215 C1216 1.351 . S
C1216 C1210 1.428 . S
C1216 N1215 1.351 . S
C1216 C1217 1.434 . S
C1217 C1208 1.429 . S
C1217 N1214 1.350 . S
C1217 C1216 1.434 . S
C1218 C1219 1.369 . S
C1218 C1220 1.419 . S
C1218 H1222 0.930 . S
C1219 C1218 1.369 . S
C1219 C1228 1.429 . S
C1220 C1218 1.419 . S
C1220 C1221 1.363 . S
C1220 H1223 0.929 . S
C1221 C1220 1.363 . S
C1221 C1227 1.428 . S
H1222 C1218 0.930 . S
H1223 C1220 0.929 . S
S1224 N1225 1.613 . S
S1224 N1226 1.610 . S
N1225 S1224 1.613 . S
N1225 C1228 1.350 . S
N1226 S1224 1.610 . S
N1226 C1227 1.351 . S
C1227 C1221 1.428 . S
C1227 N1226 1.351 . S
C1227 C1228 1.434 . S
C1228 C1219 1.429 . S
C1228 N1225 1.350 . S
C1228 C1227 1.434 . S
C1229 C1230 1.369 . S
C1229 C1231 1.419 . S
C1229 H1233 0.930 . S
C1230 C1229 1.369 . S
C1230 C1239 1.429 . S
C1231 C1229 1.419 . S
C1231 C1232 1.363 . S
C1231 H1234 0.929 . S
C1232 C1231 1.363 . S
C1232 C1238 1.428 . S
H1233 C1229 0.930 . S
H1234 C1231 0.929 . S
S1235 N1236 1.613 . S
S1235 N1237 1.610 . S
N1236 S1235 1.613 . S
N1236 C1239 1.350 . S
N1237 S1235 1.610 . S
N1237 C1238 1.351 . S
C1238 C1232 1.428 . S
C1238 N1237 1.351 . S
C1238 C1239 1.434 . S
C1239 C1230 1.429 . S
C1239 N1236 1.350 . S
C1239 C1238 1.434 . S
C1240 C1241 1.369 . S
C1240 C1242 1.419 . S
C1240 H1244 0.930 . S
C1241 C1240 1.369 . S
C1241 C1250 1.429 . S
C1242 C1240 1.419 . S
C1242 C1243 1.363 . S
C1242 H1245 0.929 . S
C1243 C1242 1.363 . S
C1243 C1249 1.428 . S
H1244 C1240 0.930 . S
H1245 C1242 0.929 . S
S1246 N1247 1.613 . S
S1246 N1248 1.610 . S
N1247 S1246 1.613 . S
N1247 C1250 1.350 . S
N1248 S1246 1.610 . S
N1248 C1249 1.351 . S
C1249 C1243 1.428 . S
C1249 N1248 1.351 . S
C1249 C1250 1.434 . S
C1250 C1241 1.429 . S
C1250 N1247 1.350 . S
C1250 C1249 1.434 . S
C1251 C1252 1.369 . S
C1251 C1253 1.419 . S
C1251 H1255 0.930 . S
C1252 C1251 1.369 . S
C1252 C1261 1.429 . S
C1253 C1251 1.419 . S
C1253 C1254 1.363 . S
C1253 H1256 0.929 . S
C1254 C1253 1.363 . S
C1254 C1260 1.428 . S
H1255 C1251 0.930 . S
H1256 C1253 0.929 . S
S1257 N1258 1.613 . S
S1257 N1259 1.610 . S
N1258 S1257 1.613 . S
N1258 C1261 1.350 . S
N1259 S1257 1.610 . S
N1259 C1260 1.351 . S
C1260 C1254 1.428 . S
C1260 N1259 1.351 . S
C1260 C1261 1.434 . S
C1261 C1252 1.429 . S
C1261 N1258 1.350 . S
C1261 C1260 1.434 . S
C1262 C1263 1.369 . S
C1262 C1264 1.419 . S
C1262 H1266 0.930 . S
C1263 C1262 1.369 . S
C1263 C1272 1.429 . S
C1264 C1262 1.419 . S
C1264 C1265 1.363 . S
C1264 H1267 0.929 . S
C1265 C1264 1.363 . S
C1265 C1271 1.428 . S
H1266 C1262 0.930 . S
H1267 C1264 0.929 . S
S1268 N1269 1.613 . S
S1268 N1270 1.610 . S
N1269 S1268 1.613 . S
N1269 C1272 1.350 . S
N1270 S1268 1.610 . S
N1270 C1271 1.351 . S
C1271 C1265 1.428 . S
C1271 N1270 1.351 . S
C1271 C1272 1.434 . S
C1272 C1263 1.429 . S
C1272 N1269 1.350 . S
C1272 C1271 1.434 . S
C1273 C1274 1.369 . S
C1273 C1275 1.419 . S
C1273 H1277 0.930 . S
C1274 C1273 1.369 . S
C1274 C1283 1.429 . S
C1275 C1273 1.419 . S
C1275 C1276 1.363 . S
C1275 H1278 0.929 . S
C1276 C1275 1.363 . S
C1276 C1282 1.428 . S
H1277 C1273 0.930 . S
H1278 C1275 0.929 . S
S1279 N1280 1.613 . S
S1279 N1281 1.610 . S
N1280 S1279 1.613 . S
N1280 C1283 1.350 . S
N1281 S1279 1.610 . S
N1281 C1282 1.351 . S
C1282 C1276 1.428 . S
C1282 N1281 1.351 . S
C1282 C1283 1.434 . S
C1283 C1274 1.429 . S
C1283 N1280 1.350 . S
C1283 C1282 1.434 . S
C1284 C1285 1.369 . S
C1284 C1286 1.419 . S
C1284 H1288 0.930 . S
C1285 C1284 1.369 . S
C1285 C1294 1.429 . S
C1286 C1284 1.419 . S
C1286 C1287 1.363 . S
C1286 H1289 0.929 . S
C1287 C1286 1.363 . S
C1287 C1293 1.428 . S
H1288 C1284 0.930 . S
H1289 C1286 0.929 . S
S1290 N1291 1.613 . S
S1290 N1292 1.610 . S
N1291 S1290 1.613 . S
N1291 C1294 1.350 . S
N1292 S1290 1.610 . S
N1292 C1293 1.351 . S
C1293 C1287 1.428 . S
C1293 N1292 1.351 . S
C1293 C1294 1.434 . S
C1294 C1285 1.429 . S
C1294 N1291 1.350 . S
C1294 C1293 1.434 . S
C1295 C1296 1.369 . S
C1295 C1297 1.419 . S
C1295 H1299 0.930 . S
C1296 C1295 1.369 . S
C1296 C1305 1.429 . S
C1297 C1295 1.419 . S
C1297 C1298 1.363 . S
C1297 H1300 0.929 . S
C1298 C1297 1.363 . S
C1298 C1304 1.428 . S
H1299 C1295 0.930 . S
H1300 C1297 0.929 . S
S1301 N1302 1.613 . S
S1301 N1303 1.610 . S
N1302 S1301 1.613 . S
N1302 C1305 1.350 . S
N1303 S1301 1.610 . S
N1303 C1304 1.351 . S
C1304 C1298 1.428 . S
C1304 N1303 1.351 . S
C1304 C1305 1.434 . S
C1305 C1296 1.429 . S
C1305 N1302 1.350 . S
C1305 C1304 1.434 . S
C1306 C1307 1.369 . S
C1306 C1308 1.419 . S
C1306 H1310 0.930 . S
C1307 C1306 1.369 . S
C1307 C1316 1.429 . S
C1308 C1306 1.419 . S
C1308 C1309 1.363 . S
C1308 H1311 0.929 . S
C1309 C1308 1.363 . S
C1309 C1315 1.428 . S
H1310 C1306 0.930 . S
H1311 C1308 0.929 . S
S1312 N1313 1.613 . S
S1312 N1314 1.610 . S
N1313 S1312 1.613 . S
N1313 C1316 1.350 . S
N1314 S1312 1.610 . S
N1314 C1315 1.351 . S
C1315 C1309 1.428 . S
C1315 N1314 1.351 . S
C1315 C1316 1.434 . S
C1316 C1307 1.429 . S
C1316 N1313 1.350 . S
C1316 C1315 1.434 . S
C1317 C1318 1.369 . S
C1317 C1319 1.419 . S
C1317 H1321 0.930 . S
C1318 C1317 1.369 . S
C1318 C1327 1.429 . S
C1319 C1317 1.419 . S
C1319 C1320 1.363 . S
C1319 H1322 0.929 . S
C1320 C1319 1.363 . S
C1320 C1326 1.428 . S
H1321 C1317 0.930 . S
H1322 C1319 0.929 . S
S1323 N1324 1.613 . S
S1323 N1325 1.610 . S
N1324 S1323 1.613 . S
N1324 C1327 1.350 . S
N1325 S1323 1.610 . S
N1325 C1326 1.351 . S
C1326 C1320 1.428 . S
C1326 N1325 1.351 . S
C1326 C1327 1.434 . S
C1327 C1318 1.429 . S
C1327 N1324 1.350 . S
C1327 C1326 1.434 . S
C1328 C1329 1.369 . S
C1328 C1330 1.419 . S
C1328 H1332 0.930 . S
C1329 C1328 1.369 . S
C1329 C1338 1.429 . S
C1330 C1328 1.419 . S
C1330 C1331 1.363 . S
C1330 H1333 0.929 . S
C1331 C1330 1.363 . S
C1331 C1337 1.428 . S
H1332 C1328 0.930 . S
H1333 C1330 0.929 . S
S1334 N1335 1.613 . S
S1334 N1336 1.610 . S
N1335 S1334 1.613 . S
N1335 C1338 1.350 . S
N1336 S1334 1.610 . S
N1336 C1337 1.351 . S
C1337 C1331 1.428 . S
C1337 N1336 1.351 . S
C1337 C1338 1.434 . S
C1338 C1329 1.429 . S
C1338 N1335 1.350 . S
C1338 C1337 1.434 . S
C1339 C1340 1.369 . S
C1339 C1341 1.419 . S
C1339 H1343 0.930 . S
C1340 C1339 1.369 . S
C1340 C1349 1.429 . S
C1341 C1339 1.419 . S
C1341 C1342 1.363 . S
C1341 H1344 0.929 . S
C1342 C1341 1.363 . S
C1342 C1348 1.428 . S
H1343 C1339 0.930 . S
H1344 C1341 0.929 . S
S1345 N1346 1.613 . S
S1345 N1347 1.610 . S
N1346 S1345 1.613 . S
N1346 C1349 1.350 . S
N1347 S1345 1.610 . S
N1347 C1348 1.351 . S
C1348 C1342 1.428 . S
C1348 N1347 1.351 . S
C1348 C1349 1.434 . S
C1349 C1340 1.429 . S
C1349 N1346 1.350 . S
C1349 C1348 1.434 . S
C1350 C1351 1.369 . S
C1350 C1352 1.419 . S
C1350 H1354 0.930 . S
C1351 C1350 1.369 . S
C1351 C1360 1.429 . S
C1352 C1350 1.419 . S
C1352 C1353 1.363 . S
C1352 H1355 0.929 . S
C1353 C1352 1.363 . S
C1353 C1359 1.428 . S
H1354 C1350 0.930 . S
H1355 C1352 0.929 . S
S1356 N1357 1.613 . S
S1356 N1358 1.610 . S
N1357 S1356 1.613 . S
N1357 C1360 1.350 . S
N1358 S1356 1.610 . S
N1358 C1359 1.351 . S
C1359 C1353 1.428 . S
C1359 N1358 1.351 . S
C1359 C1360 1.434 . S
C1360 C1351 1.429 . S
C1360 N1357 1.350 . S
C1360 C1359 1.434 . S
C1361 C1362 1.369 . S
C1361 C1363 1.419 . S
C1361 H1365 0.930 . S
C1362 C1361 1.369 . S
C1362 C1371 1.429 . S
C1363 C1361 1.419 . S
C1363 C1364 1.363 . S
C1363 H1366 0.929 . S
C1364 C1363 1.363 . S
C1364 C1370 1.428 . S
H1365 C1361 0.930 . S
H1366 C1363 0.929 . S
S1367 N1368 1.613 . S
S1367 N1369 1.610 . S
N1368 S1367 1.613 . S
N1368 C1371 1.350 . S
N1369 S1367 1.610 . S
N1369 C1370 1.351 . S
C1370 C1364 1.428 . S
C1370 N1369 1.351 . S
C1370 C1371 1.434 . S
C1371 C1362 1.429 . S
C1371 N1368 1.350 . S
C1371 C1370 1.434 . S
C1372 C1373 1.369 . S
C1372 C1374 1.419 . S
C1372 H1376 0.930 . S
C1373 C1372 1.369 . S
C1373 C1382 1.429 . S
C1374 C1372 1.419 . S
C1374 C1375 1.363 . S
C1374 H1377 0.929 . S
C1375 C1374 1.363 . S
C1375 C1381 1.428 . S
H1376 C1372 0.930 . S
H1377 C1374 0.929 . S
S1378 N1379 1.613 . S
S1378 N1380 1.610 . S
N1379 S1378 1.613 . S
N1379 C1382 1.350 . S
N1380 S1378 1.610 . S
N1380 C1381 1.351 . S
C1381 C1375 1.428 . S
C1381 N1380 1.351 . S
C1381 C1382 1.434 . S
C1382 C1373 1.429 . S
C1382 N1379 1.350 . S
C1382 C1381 1.434 . S
C1383 C1384 1.369 . S
C1383 C1385 1.419 . S
C1383 H1387 0.930 . S
C1384 C1383 1.369 . S
C1384 C1393 1.429 . S
C1385 C1383 1.419 . S
C1385 C1386 1.363 . S
C1385 H1388 0.929 . S
C1386 C1385 1.363 . S
C1386 C1392 1.428 . S
H1387 C1383 0.930 . S
H1388 C1385 0.929 . S
S1389 N1390 1.613 . S
S1389 N1391 1.610 . S
N1390 S1389 1.613 . S
N1390 C1393 1.350 . S
N1391 S1389 1.610 . S
N1391 C1392 1.351 . S
C1392 C1386 1.428 . S
C1392 N1391 1.351 . S
C1392 C1393 1.434 . S
C1393 C1384 1.429 . S
C1393 N1390 1.350 . S
C1393 C1392 1.434 . S
C1394 C1395 1.369 . S
C1394 C1396 1.419 . S
C1394 H1398 0.930 . S
C1395 C1394 1.369 . S
C1395 C1404 1.429 . S
C1396 C1394 1.419 . S
C1396 C1397 1.363 . S
C1396 H1399 0.929 . S
C1397 C1396 1.363 . S
C1397 C1403 1.428 . S
H1398 C1394 0.930 . S
H1399 C1396 0.929 . S
S1400 N1401 1.613 . S
S1400 N1402 1.610 . S
N1401 S1400 1.613 . S
N1401 C1404 1.350 . S
N1402 S1400 1.610 . S
N1402 C1403 1.351 . S
C1403 C1397 1.428 . S
C1403 N1402 1.351 . S
C1403 C1404 1.434 . S
C1404 C1395 1.429 . S
C1404 N1401 1.350 . S
C1404 C1403 1.434 . S
C1405 C1406 1.369 . S
C1405 C1407 1.419 . S
C1405 H1409 0.930 . S
C1406 C1405 1.369 . S
C1406 C1415 1.429 . S
C1407 C1405 1.419 . S
C1407 C1408 1.363 . S
C1407 H1410 0.929 . S
C1408 C1407 1.363 . S
C1408 C1414 1.428 . S
H1409 C1405 0.930 . S
H1410 C1407 0.929 . S
S1411 N1412 1.613 . S
S1411 N1413 1.610 . S
N1412 S1411 1.613 . S
N1412 C1415 1.350 . S
N1413 S1411 1.610 . S
N1413 C1414 1.351 . S
C1414 C1408 1.428 . S
C1414 N1413 1.351 . S
C1414 C1415 1.434 . S
C1415 C1406 1.429 . S
C1415 N1412 1.350 . S
C1415 C1414 1.434 . S
C1416 C1417 1.369 . S
C1416 C1418 1.419 . S
C1416 H1420 0.930 . S
C1417 C1416 1.369 . S
C1417 C1426 1.429 . S
C1418 C1416 1.419 . S
C1418 C1419 1.363 . S
C1418 H1421 0.929 . S
C1419 C1418 1.363 . S
C1419 C1425 1.428 . S
H1420 C1416 0.930 . S
H1421 C1418 0.929 . S
S1422 N1423 1.613 . S
S1422 N1424 1.610 . S
N1423 S1422 1.613 . S
N1423 C1426 1.350 . S
N1424 S1422 1.610 . S
N1424 C1425 1.351 . S
C1425 C1419 1.428 . S
C1425 N1424 1.351 . S
C1425 C1426 1.434 . S
C1426 C1417 1.429 . S
C1426 N1423 1.350 . S
C1426 C1425 1.434 . S
C1427 C1428 1.369 . S
C1427 C1429 1.419 . S
C1427 H1431 0.930 . S
C1428 C1427 1.369 . S
C1428 C1437 1.429 . S
C1429 C1427 1.419 . S
C1429 C1430 1.363 . S
C1429 H1432 0.929 . S
C1430 C1429 1.363 . S
C1430 C1436 1.428 . S
H1431 C1427 0.930 . S
H1432 C1429 0.929 . S
S1433 N1434 1.613 . S
S1433 N1435 1.610 . S
N1434 S1433 1.613 . S
N1434 C1437 1.350 . S
N1435 S1433 1.610 . S
N1435 C1436 1.351 . S
C1436 C1430 1.428 . S
C1436 N1435 1.351 . S
C1436 C1437 1.434 . S
C1437 C1428 1.429 . S
C1437 N1434 1.350 . S
C1437 C1436 1.434 . S
C1438 C1439 1.369 . S
C1438 C1440 1.419 . S
C1438 H1442 0.930 . S
C1439 C1438 1.369 . S
C1439 C1448 1.429 . S
C1440 C1438 1.419 . S
C1440 C1441 1.363 . S
C1440 H1443 0.929 . S
C1441 C1440 1.363 . S
C1441 C1447 1.428 . S
H1442 C1438 0.930 . S
H1443 C1440 0.929 . S
S1444 N1445 1.613 . S
S1444 N1446 1.610 . S
N1445 S1444 1.613 . S
N1445 C1448 1.350 . S
N1446 S1444 1.610 . S
N1446 C1447 1.351 . S
C1447 C1441 1.428 . S
C1447 N1446 1.351 . S
C1447 C1448 1.434 . S
C1448 C1439 1.429 . S
C1448 N1445 1.350 . S
C1448 C1447 1.434 . S
C1449 C1450 1.369 . S
C1449 C1451 1.419 . S
C1449 H1453 0.930 . S
C1450 C1449 1.369 . S
C1450 C1459 1.429 . S
C1451 C1449 1.419 . S
C1451 C1452 1.363 . S
C1451 H1454 0.929 . S
C1452 C1451 1.363 . S
C1452 C1458 1.428 . S
H1453 C1449 0.930 . S
H1454 C1451 0.929 . S
S1455 N1456 1.613 . S
S1455 N1457 1.610 . S
N1456 S1455 1.613 . S
N1456 C1459 1.350 . S
N1457 S1455 1.610 . S
N1457 C1458 1.351 . S
C1458 C1452 1.428 . S
C1458 N1457 1.351 . S
C1458 C1459 1.434 . S
C1459 C1450 1.429 . S
C1459 N1456 1.350 . S
C1459 C1458 1.434 . S
C1460 C1461 1.369 . S
C1460 C1462 1.419 . S
C1460 H1464 0.930 . S
C1461 C1460 1.369 . S
C1461 C1470 1.429 . S
C1462 C1460 1.419 . S
C1462 C1463 1.363 . S
C1462 H1465 0.929 . S
C1463 C1462 1.363 . S
C1463 C1469 1.428 . S
H1464 C1460 0.930 . S
H1465 C1462 0.929 . S
S1466 N1467 1.613 . S
S1466 N1468 1.610 . S
N1467 S1466 1.613 . S
N1467 C1470 1.350 . S
N1468 S1466 1.610 . S
N1468 C1469 1.351 . S
C1469 C1463 1.428 . S
C1469 N1468 1.351 . S
C1469 C1470 1.434 . S
C1470 C1461 1.429 . S
C1470 N1467 1.350 . S
C1470 C1469 1.434 . S
C1471 C1472 1.369 . S
C1471 C1473 1.419 . S
C1471 H1475 0.930 . S
C1472 C1471 1.369 . S
C1472 C1481 1.429 . S
C1473 C1471 1.419 . S
C1473 C1474 1.363 . S
C1473 H1476 0.929 . S
C1474 C1473 1.363 . S
C1474 C1480 1.428 . S
H1475 C1471 0.930 . S
H1476 C1473 0.929 . S
S1477 N1478 1.613 . S
S1477 N1479 1.610 . S
N1478 S1477 1.613 . S
N1478 C1481 1.350 . S
N1479 S1477 1.610 . S
N1479 C1480 1.351 . S
C1480 C1474 1.428 . S
C1480 N1479 1.351 . S
C1480 C1481 1.434 . S
C1481 C1472 1.429 . S
C1481 N1478 1.350 . S
C1481 C1480 1.434 . S
C1482 C1483 1.369 . S
C1482 C1484 1.419 . S
C1482 H1486 0.930 . S
C1483 C1482 1.369 . S
C1483 C1492 1.429 . S
C1484 C1482 1.419 . S
C1484 C1485 1.363 . S
C1484 H1487 0.929 . S
C1485 C1484 1.363 . S
C1485 C1491 1.428 . S
H1486 C1482 0.930 . S
H1487 C1484 0.929 . S
S1488 N1489 1.613 . S
S1488 N1490 1.610 . S
N1489 S1488 1.613 . S
N1489 C1492 1.350 . S
N1490 S1488 1.610 . S
N1490 C1491 1.351 . S
C1491 C1485 1.428 . S
C1491 N1490 1.351 . S
C1491 C1492 1.434 . S
C1492 C1483 1.429 . S
C1492 N1489 1.350 . S
C1492 C1491 1.434 . S
C1493 C1494 1.369 . S
C1493 C1495 1.419 . S
C1493 H1497 0.930 . S
C1494 C1493 1.369 . S
C1494 C1503 1.429 . S
C1495 C1493 1.419 . S
C1495 C1496 1.363 . S
C1495 H1498 0.929 . S
C1496 C1495 1.363 . S
C1496 C1502 1.428 . S
H1497 C1493 0.930 . S
H1498 C1495 0.929 . S
S1499 N1500 1.613 . S
S1499 N1501 1.610 . S
N1500 S1499 1.613 . S
N1500 C1503 1.350 . S
N1501 S1499 1.610 . S
N1501 C1502 1.351 . S
C1502 C1496 1.428 . S
C1502 N1501 1.351 . S
C1502 C1503 1.434 . S
C1503 C1494 1.429 . S
C1503 N1500 1.350 . S
C1503 C1502 1.434 . S
C1504 C1505 1.369 . S
C1504 C1506 1.419 . S
C1504 H1508 0.930 . S
C1505 C1504 1.369 . S
C1505 C1514 1.429 . S
C1506 C1504 1.419 . S
C1506 C1507 1.363 . S
C1506 H1509 0.929 . S
C1507 C1506 1.363 . S
C1507 C1513 1.428 . S
H1508 C1504 0.930 . S
H1509 C1506 0.929 . S
S1510 N1511 1.613 . S
S1510 N1512 1.610 . S
N1511 S1510 1.613 . S
N1511 C1514 1.350 . S
N1512 S1510 1.610 . S
N1512 C1513 1.351 . S
C1513 C1507 1.428 . S
C1513 N1512 1.351 . S
C1513 C1514 1.434 . S
C1514 C1505 1.429 . S
C1514 N1511 1.350 . S
C1514 C1513 1.434 . S
C1515 C1516 1.369 . S
C1515 C1517 1.419 . S
C1515 H1519 0.930 . S
C1516 C1515 1.369 . S
C1516 C1525 1.429 . S
C1517 C1515 1.419 . S
C1517 C1518 1.363 . S
C1517 H1520 0.929 . S
C1518 C1517 1.363 . S
C1518 C1524 1.428 . S
H1519 C1515 0.930 . S
H1520 C1517 0.929 . S
S1521 N1522 1.613 . S
S1521 N1523 1.610 . S
N1522 S1521 1.613 . S
N1522 C1525 1.350 . S
N1523 S1521 1.610 . S
N1523 C1524 1.351 . S
C1524 C1518 1.428 . S
C1524 N1523 1.351 . S
C1524 C1525 1.434 . S
C1525 C1516 1.429 . S
C1525 N1522 1.350 . S
C1525 C1524 1.434 . S
C1526 C1527 1.369 . S
C1526 C1528 1.419 . S
C1526 H1530 0.930 . S
C1527 C1526 1.369 . S
C1527 C1536 1.429 . S
C1528 C1526 1.419 . S
C1528 C1529 1.363 . S
C1528 H1531 0.929 . S
C1529 C1528 1.363 . S
C1529 C1535 1.428 . S
H1530 C1526 0.930 . S
H1531 C1528 0.929 . S
S1532 N1533 1.613 . S
S1532 N1534 1.610 . S
N1533 S1532 1.613 . S
N1533 C1536 1.350 . S
N1534 S1532 1.610 . S
N1534 C1535 1.351 . S
C1535 C1529 1.428 . S
C1535 N1534 1.351 . S
C1535 C1536 1.434 . S
C1536 C1527 1.429 . S
C1536 N1533 1.350 . S
C1536 C1535 1.434 . S
C1537 C1538 1.369 . S
C1537 C1539 1.419 . S
C1537 H1541 0.930 . S
C1538 C1537 1.369 . S
C1538 C1547 1.429 . S
C1539 C1537 1.419 . S
C1539 C1540 1.363 . S
C1539 H1542 0.929 . S
C1540 C1539 1.363 . S
C1540 C1546 1.428 . S
H1541 C1537 0.930 . S
H1542 C1539 0.929 . S
S1543 N1544 1.613 . S
S1543 N1545 1.610 . S
N1544 S1543 1.613 . S
N1544 C1547 1.350 . S
N1545 S1543 1.610 . S
N1545 C1546 1.351 . S
C1546 C1540 1.428 . S
C1546 N1545 1.351 . S
C1546 C1547 1.434 . S
C1547 C1538 1.429 . S
C1547 N1544 1.350 . S
C1547 C1546 1.434 . S
C1548 C1549 1.369 . S
C1548 C1550 1.419 . S
C1548 H1552 0.930 . S
C1549 C1548 1.369 . S
C1549 C1558 1.429 . S
C1550 C1548 1.419 . S
C1550 C1551 1.363 . S
C1550 H1553 0.929 . S
C1551 C1550 1.363 . S
C1551 C1557 1.428 . S
H1552 C1548 0.930 . S
H1553 C1550 0.929 . S
S1554 N1555 1.613 . S
S1554 N1556 1.610 . S
N1555 S1554 1.613 . S
N1555 C1558 1.350 . S
N1556 S1554 1.610 . S
N1556 C1557 1.351 . S
C1557 C1551 1.428 . S
C1557 N1556 1.351 . S
C1557 C1558 1.434 . S
C1558 C1549 1.429 . S
C1558 N1555 1.350 . S
C1558 C1557 1.434 . S
C1559 C1560 1.369 . S
C1559 C1561 1.419 . S
C1559 H1563 0.930 . S
C1560 C1559 1.369 . S
C1560 C1569 1.429 . S
C1561 C1559 1.419 . S
C1561 C1562 1.363 . S
C1561 H1564 0.929 . S
C1562 C1561 1.363 . S
C1562 C1568 1.428 . S
H1563 C1559 0.930 . S
H1564 C1561 0.929 . S
S1565 N1566 1.613 . S
S1565 N1567 1.610 . S
N1566 S1565 1.613 . S
N1566 C1569 1.350 . S
N1567 S1565 1.610 . S
N1567 C1568 1.351 . S
C1568 C1562 1.428 . S
C1568 N1567 1.351 . S
C1568 C1569 1.434 . S
C1569 C1560 1.429 . S
C1569 N1566 1.350 . S
C1569 C1568 1.434 . S
C1570 C1571 1.369 . S
C1570 C1572 1.419 . S
C1570 H1574 0.930 . S
C1571 C1570 1.369 . S
C1571 C1580 1.429 . S
C1572 C1570 1.419 . S
C1572 C1573 1.363 . S
C1572 H1575 0.929 . S
C1573 C1572 1.363 . S
C1573 C1579 1.428 . S
H1574 C1570 0.930 . S
H1575 C1572 0.929 . S
S1576 N1577 1.613 . S
S1576 N1578 1.610 . S
N1577 S1576 1.613 . S
N1577 C1580 1.350 . S
N1578 S1576 1.610 . S
N1578 C1579 1.351 . S
C1579 C1573 1.428 . S
C1579 N1578 1.351 . S
C1579 C1580 1.434 . S
C1580 C1571 1.429 . S
C1580 N1577 1.350 . S
C1580 C1579 1.434 . S
C1581 C1582 1.369 . S
C1581 C1583 1.419 . S
C1581 H1585 0.930 . S
C1582 C1581 1.369 . S
C1582 C1591 1.429 . S
C1583 C1581 1.419 . S
C1583 C1584 1.363 . S
C1583 H1586 0.929 . S
C1584 C1583 1.363 . S
C1584 C1590 1.428 . S
H1585 C1581 0.930 . S
H1586 C1583 0.929 . S
S1587 N1588 1.613 . S
S1587 N1589 1.610 . S
N1588 S1587 1.613 . S
N1588 C1591 1.350 . S
N1589 S1587 1.610 . S
N1589 C1590 1.351 . S
C1590 C1584 1.428 . S
C1590 N1589 1.351 . S
C1590 C1591 1.434 . S
C1591 C1582 1.429 . S
C1591 N1588 1.350 . S
C1591 C1590 1.434 . S
C1592 C1593 1.369 . S
C1592 C1594 1.419 . S
C1592 H1596 0.930 . S
C1593 C1592 1.369 . S
C1593 C1602 1.429 . S
C1594 C1592 1.419 . S
C1594 C1595 1.363 . S
C1594 H1597 0.929 . S
C1595 C1594 1.363 . S
C1595 C1601 1.428 . S
H1596 C1592 0.930 . S
H1597 C1594 0.929 . S
S1598 N1599 1.613 . S
S1598 N1600 1.610 . S
N1599 S1598 1.613 . S
N1599 C1602 1.350 . S
N1600 S1598 1.610 . S
N1600 C1601 1.351 . S
C1601 C1595 1.428 . S
C1601 N1600 1.351 . S
C1601 C1602 1.434 . S
C1602 C1593 1.429 . S
C1602 N1599 1.350 . S
C1602 C1601 1.434 . S
C1603 C1604 1.369 . S
C1603 C1605 1.419 . S
C1603 H1607 0.930 . S
C1604 C1603 1.369 . S
C1604 C1613 1.429 . S
C1605 C1603 1.419 . S
C1605 C1606 1.363 . S
C1605 H1608 0.929 . S
C1606 C1605 1.363 . S
C1606 C1612 1.428 . S
H1607 C1603 0.930 . S
H1608 C1605 0.929 . S
S1609 N1610 1.613 . S
S1609 N1611 1.610 . S
N1610 S1609 1.613 . S
N1610 C1613 1.350 . S
N1611 S1609 1.610 . S
N1611 C1612 1.351 . S
C1612 C1606 1.428 . S
C1612 N1611 1.351 . S
C1612 C1613 1.434 . S
C1613 C1604 1.429 . S
C1613 N1610 1.350 . S
C1613 C1612 1.434 . S
C1614 C1615 1.369 . S
C1614 C1616 1.419 . S
C1614 H1618 0.930 . S
C1615 C1614 1.369 . S
C1615 C1624 1.429 . S
C1616 C1614 1.419 . S
C1616 C1617 1.363 . S
C1616 H1619 0.929 . S
C1617 C1616 1.363 . S
C1617 C1623 1.428 . S
H1618 C1614 0.930 . S
H1619 C1616 0.929 . S
S1620 N1621 1.613 . S
S1620 N1622 1.610 . S
N1621 S1620 1.613 . S
N1621 C1624 1.350 . S
N1622 S1620 1.610 . S
N1622 C1623 1.351 . S
C1623 C1617 1.428 . S
C1623 N1622 1.351 . S
C1623 C1624 1.434 . S
C1624 C1615 1.429 . S
C1624 N1621 1.350 . S
C1624 C1623 1.434 . S
C1625 C1626 1.369 . S
C1625 C1627 1.419 . S
C1625 H1629 0.930 . S
C1626 C1625 1.369 . S
C1626 C1635 1.429 . S
C1627 C1625 1.419 . S
C1627 C1628 1.363 . S
C1627 H1630 0.929 . S
C1628 C1627 1.363 . S
C1628 C1634 1.428 . S
H1629 C1625 0.930 . S
H1630 C1627 0.929 . S
S1631 N1632 1.613 . S
S1631 N1633 1.610 . S
N1632 S1631 1.613 . S
N1632 C1635 1.350 . S
N1633 S1631 1.610 . S
N1633 C1634 1.351 . S
C1634 C1628 1.428 . S
C1634 N1633 1.351 . S
C1634 C1635 1.434 . S
C1635 C1626 1.429 . S
C1635 N1632 1.350 . S
C1635 C1634 1.434 . S
C1636 C1637 1.369 . S
C1636 C1638 1.419 . S
C1636 H1640 0.930 . S
C1637 C1636 1.369 . S
C1637 C1646 1.429 . S
C1638 C1636 1.419 . S
C1638 C1639 1.363 . S
C1638 H1641 0.929 . S
C1639 C1638 1.363 . S
C1639 C1645 1.428 . S
H1640 C1636 0.930 . S
H1641 C1638 0.929 . S
S1642 N1643 1.613 . S
S1642 N1644 1.610 . S
N1643 S1642 1.613 . S
N1643 C1646 1.350 . S
N1644 S1642 1.610 . S
N1644 C1645 1.351 . S
C1645 C1639 1.428 . S
C1645 N1644 1.351 . S
C1645 C1646 1.434 . S
C1646 C1637 1.429 . S
C1646 N1643 1.350 . S
C1646 C1645 1.434 . S
C1647 C1648 1.369 . S
C1647 C1649 1.419 . S
C1647 H1651 0.930 . S
C1648 C1647 1.369 . S
C1648 C1657 1.429 . S
C1649 C1647 1.419 . S
C1649 C1650 1.363 . S
C1649 H1652 0.929 . S
C1650 C1649 1.363 . S
C1650 C1656 1.428 . S
H1651 C1647 0.930 . S
H1652 C1649 0.929 . S
S1653 N1654 1.613 . S
S1653 N1655 1.610 . S
N1654 S1653 1.613 . S
N1654 C1657 1.350 . S
N1655 S1653 1.610 . S
N1655 C1656 1.351 . S
C1656 C1650 1.428 . S
C1656 N1655 1.351 . S
C1656 C1657 1.434 . S
C1657 C1648 1.429 . S
C1657 N1654 1.350 . S
C1657 C1656 1.434 . S
C1658 C1659 1.369 . S
C1658 C1660 1.419 . S
C1658 H1662 0.930 . S
C1659 C1658 1.369 . S
C1659 C1668 1.429 . S
C1660 C1658 1.419 . S
C1660 C1661 1.363 . S
C1660 H1663 0.929 . S
C1661 C1660 1.363 . S
C1661 C1667 1.428 . S
H1662 C1658 0.930 . S
H1663 C1660 0.929 . S
S1664 N1665 1.613 . S
S1664 N1666 1.610 . S
N1665 S1664 1.613 . S
N1665 C1668 1.350 . S
N1666 S1664 1.610 . S
N1666 C1667 1.351 . S
C1667 C1661 1.428 . S
C1667 N1666 1.351 . S
C1667 C1668 1.434 . S
C1668 C1659 1.429 . S
C1668 N1665 1.350 . S
C1668 C1667 1.434 . S
C1669 C1670 1.369 . S
C1669 C1671 1.419 . S
C1669 H1673 0.930 . S
C1670 C1669 1.369 . S
C1670 C1679 1.429 . S
C1671 C1669 1.419 . S
C1671 C1672 1.363 . S
C1671 H1674 0.929 . S
C1672 C1671 1.363 . S
C1672 C1678 1.428 . S
H1673 C1669 0.930 . S
H1674 C1671 0.929 . S
S1675 N1676 1.613 . S
S1675 N1677 1.610 . S
N1676 S1675 1.613 . S
N1676 C1679 1.350 . S
N1677 S1675 1.610 . S
N1677 C1678 1.351 . S
C1678 C1672 1.428 . S
C1678 N1677 1.351 . S
C1678 C1679 1.434 . S
C1679 C1670 1.429 . S
C1679 N1676 1.350 . S
C1679 C1678 1.434 . S
C625 C127 1.797 . S
C627 C4 1.808 . S
C636 C134 1.797 . S
C638 C17 1.808 . S
C647 C153 1.808 . S
C649 C36 1.800 . S
C658 C49 1.799 . S
C660 C108 1.807 . S
C669 C199 1.797 . S
C671 C62 1.808 . S
C680 C69 1.805 . S
C682 C166 1.803 . S
C691 C179 1.809 . S
C693 C82 1.799 . S
C702 C192 1.809 . S
C704 C101 1.799 . S
C713 C218 1.804 . S
C715 C238 1.804 . S
C724 C231 1.808 . S
C726 C290 1.801 . S
C735 C251 1.809 . S
C737 C309 1.799 . S
C746 C264 1.808 . S
C748 C277 1.800 . S
C757 C316 1.800 . S
C759 C433 1.805 . S
C768 C446 1.809 . S
C770 C335 1.799 . S
C779 C342 1.808 . S
C781 C459 1.799 . S
C790 C361 1.806 . S
C792 C426 1.802 . S
C801 C511 1.807 . S
C803 C374 1.799 . S
C812 C478 1.804 . S
C814 C381 1.804 . S
C823 C491 1.802 . S
C825 C400 1.805 . S
C834 C504 1.798 . S
C836 C413 1.806 . S
C845 C530 1.808 . S
C847 C556 1.801 . S
C856 C537 1.807 . S
C858 C608 1.800 . S
C867 C569 1.808 . S
C869 C615 1.801 . S
C878 C589 1.807 . S
C880 C576 1.800 . S
C889 C109 1.355 . S
C891 C3 1.445 . S
C900 C120 1.355 . S
C902 C16 1.445 . S
C911 C31 1.448 . S
C913 C135 1.352 . S
C922 C44 1.448 . S
C924 C146 1.351 . S
C933 C57 1.447 . S
C935 C159 1.350 . S
C944 C68 1.448 . S
C946 C172 1.357 . S
C955 C81 1.446 . S
C957 C185 1.360 . S
C966 C200 1.351 . S
C968 C96 1.445 . S
C977 C107 1.447 . S
C979 C211 1.359 . S
C988 C302 1.357 . S
C990 C122 1.447 . S
C999 C133 1.447 . S
C1001 C278 1.350 . S
C1010 C148 1.444 . S
C1012 C291 1.358 . S
C1021 C161 1.444 . S
C1023 C224 1.357 . S
C1032 C174 1.444 . S
C1034 C239 1.358 . S
C1043 C187 1.444 . S
C1045 C252 1.357 . S
C1054 C265 1.351 . S
C1056 C198 1.448 . S
C1065 C5 1.351 . S
C1067 C213 1.445 . S
C1076 C226 1.448 . S
C1078 C55 1.351 . S
C1087 C237 1.444 . S
C1089 C70 1.356 . S
C1098 C250 1.446 . S
C1100 C83 1.351 . S
C1109 C94 1.359 . S
C1111 C263 1.447 . S
C1120 C276 1.446 . S
C1122 C29 1.351 . S
C1131 C289 1.444 . S
C1133 C42 1.357 . S
C1142 C18 1.359 . S
C1144 C304 1.445 . S
C1153 C419 1.352 . S
C1155 C315 1.445 . S
C1164 C330 1.444 . S
C1166 C434 1.357 . S
C1175 C341 1.448 . S
C1177 C447 1.355 . S
C1186 C460 1.350 . S
C1188 C356 1.446 . S
C1197 C471 1.356 . S
C1199 C369 1.448 . S
C1208 C380 1.447 . S
C1210 C484 1.350 . S
C1219 C497 1.359 . S
C1221 C395 1.447 . S
C1230 C512 1.362 . S
C1232 C408 1.445 . S
C1241 C421 1.446 . S
C1243 C523 1.351 . S
C1252 C432 1.447 . S
C1254 C616 1.350 . S
C1263 C445 1.447 . S
C1265 C590 1.350 . S
C1274 C601 1.349 . S
C1276 C458 1.447 . S
C1285 C473 1.444 . S
C1287 C538 1.354 . S
C1296 C486 1.447 . S
C1298 C549 1.350 . S
C1307 C562 1.361 . S
C1309 C499 1.446 . S
C1318 C577 1.359 . S
C1320 C510 1.445 . S
C1329 C525 1.444 . S
C1331 C317 1.355 . S
C1340 C536 1.445 . S
C1342 C367 1.353 . S
C1351 C382 1.350 . S
C1353 C551 1.448 . S
C1362 C564 1.448 . S
C1364 C393 1.353 . S
C1373 C575 1.447 . S
C1375 C406 1.359 . S
C1384 C343 1.361 . S
C1386 C588 1.445 . S
C1395 C603 1.445 . S
C1397 C354 1.360 . S
C1406 C328 1.362 . S
C1408 C614 1.446 . S
C1417 C407 1.630 . S
C1419 C10 1.628 . S
C1428 C23 1.631 . S
C1430 C368 1.629 . S
C1439 C387 1.628 . S
C1441 C30 1.627 . S
C1450 C394 1.625 . S
C1452 C43 1.625 . S
C1461 C56 1.623 . S
C1463 C329 1.624 . S
C1472 C348 1.626 . S
C1474 C75 1.628 . S
C1483 C355 1.630 . S
C1485 C88 1.631 . S
C1494 C95 1.632 . S
C1496 C322 1.631 . S
C1505 C582 1.631 . S
C1507 C114 1.629 . S
C1516 C121 1.623 . S
C1518 C543 1.625 . S
C1527 C140 1.625 . S
C1529 C550 1.627 . S
C1538 C563 1.630 . S
C1540 C147 1.628 . S
C1549 C621 1.625 . S
C1551 C160 1.625 . S
C1560 C595 1.632 . S
C1562 C173 1.630 . S
C1571 C186 1.624 . S
C1573 C602 1.624 . S
C1582 C524 1.628 . S
C1584 C205 1.627 . S
C1593 C212 1.632 . S
C1595 C517 1.630 . S
C1604 C439 1.623 . S
C1606 C225 1.625 . S
C1615 C244 1.625 . S
C1617 C452 1.627 . S
C1626 C465 1.628 . S
C1628 C257 1.627 . S
C1637 C420 1.629 . S
C1639 C270 1.630 . S
C1648 C283 1.632 . S
C1650 C485 1.630 . S
C1659 C498 1.628 . S
C1661 C296 1.627 . S
C1670 C472 1.631 . S
C1672 C303 1.631 . S
