# Generated by pormake.
# Topology zfc, (5)-cn, num edge types: 1
# Building blocks:
#     Node 0, Type 0, BuildingBlock: BEQFEK_clean_sbu_0, # of connection points: 5
#     Node 1, Type 0, BuildingBlock: BEQFEK_clean_sbu_0, # of connection points: 5
#     Node 2, Type 0, BuildingBlock: BEQFEK_clean_sbu_0, # of connection points: 5
#     Node 3, Type 0, BuildingBlock: BEQFEK_clean_sbu_0, # of connection points: 5
#     Node 4, Type 0, BuildingBlock: BEQFEK_clean_sbu_0, # of connection points: 5
#     Node 5, Type 0, BuildingBlock: BEQFEK_clean_sbu_0, # of connection points: 5
#     Node 6, Type 0, BuildingBlock: BEQFEK_clean_sbu_0, # of connection points: 5
#     Node 7, Type 0, BuildingBlock: BEQFEK_clean_sbu_0, # of connection points: 5
#     Node 8, Type 0, BuildingBlock: BEQFEK_clean_sbu_0, # of connection points: 5
#     Node 9, Type 0, BuildingBlock: BEQFEK_clean_sbu_0, # of connection points: 5
#     Node 10, Type 0, BuildingBlock: BEQFEK_clean_sbu_0, # of connection points: 5
#     Node 11, Type 0, BuildingBlock: BEQFEK_clean_sbu_0, # of connection points: 5
#     Node 12, Type 0, BuildingBlock: BEQFEK_clean_sbu_0, # of connection points: 5
#     Node 13, Type 0, BuildingBlock: BEQFEK_clean_sbu_0, # of connection points: 5
#     Node 14, Type 0, BuildingBlock: BEQFEK_clean_sbu_0, # of connection points: 5
#     Node 15, Type 0, BuildingBlock: BEQFEK_clean_sbu_0, # of connection points: 5
#     Edge 16, Type (0, 0), BuildingBlock: MIFKUJ_clean_linker_0, # of connection points: 2
#     Edge 17, Type (0, 0), BuildingBlock: MIFKUJ_clean_linker_0, # of connection points: 2
#     Edge 18, Type (0, 0), BuildingBlock: MIFKUJ_clean_linker_0, # of connection points: 2
#     Edge 19, Type (0, 0), BuildingBlock: MIFKUJ_clean_linker_0, # of connection points: 2
#     Edge 20, Type (0, 0), BuildingBlock: MIFKUJ_clean_linker_0, # of connection points: 2
#     Edge 21, Type (0, 0), BuildingBlock: MIFKUJ_clean_linker_0, # of connection points: 2
#     Edge 22, Type (0, 0), BuildingBlock: MIFKUJ_clean_linker_0, # of connection points: 2
#     Edge 23, Type (0, 0), BuildingBlock: MIFKUJ_clean_linker_0, # of connection points: 2
#     Edge 24, Type (0, 0), BuildingBlock: MIFKUJ_clean_linker_0, # of connection points: 2
#     Edge 25, Type (0, 0), BuildingBlock: MIFKUJ_clean_linker_0, # of connection points: 2
#     Edge 26, Type (0, 0), BuildingBlock: MIFKUJ_clean_linker_0, # of connection points: 2
#     Edge 27, Type (0, 0), BuildingBlock: MIFKUJ_clean_linker_0, # of connection points: 2
#     Edge 28, Type (0, 0), BuildingBlock: MIFKUJ_clean_linker_0, # of connection points: 2
#     Edge 29, Type (0, 0), BuildingBlock: MIFKUJ_clean_linker_0, # of connection points: 2
#     Edge 30, Type (0, 0), BuildingBlock: MIFKUJ_clean_linker_0, # of connection points: 2
#     Edge 31, Type (0, 0), BuildingBlock: MIFKUJ_clean_linker_0, # of connection points: 2
#     Edge 32, Type (0, 0), BuildingBlock: MIFKUJ_clean_linker_0, # of connection points: 2
#     Edge 33, Type (0, 0), BuildingBlock: MIFKUJ_clean_linker_0, # of connection points: 2
#     Edge 34, Type (0, 0), BuildingBlock: MIFKUJ_clean_linker_0, # of connection points: 2
#     Edge 35, Type (0, 0), BuildingBlock: MIFKUJ_clean_linker_0, # of connection points: 2
#     Edge 36, Type (0, 0), BuildingBlock: MIFKUJ_clean_linker_0, # of connection points: 2
#     Edge 37, Type (0, 0), BuildingBlock: MIFKUJ_clean_linker_0, # of connection points: 2
#     Edge 38, Type (0, 0), BuildingBlock: MIFKUJ_clean_linker_0, # of connection points: 2
#     Edge 39, Type (0, 0), BuildingBlock: MIFKUJ_clean_linker_0, # of connection points: 2
#     Edge 40, Type (0, 0), BuildingBlock: MIFKUJ_clean_linker_0, # of connection points: 2
#     Edge 41, Type (0, 0), BuildingBlock: MIFKUJ_clean_linker_0, # of connection points: 2
#     Edge 42, Type (0, 0), BuildingBlock: MIFKUJ_clean_linker_0, # of connection points: 2
#     Edge 43, Type (0, 0), BuildingBlock: MIFKUJ_clean_linker_0, # of connection points: 2
#     Edge 44, Type (0, 0), BuildingBlock: MIFKUJ_clean_linker_0, # of connection points: 2
#     Edge 45, Type (0, 0), BuildingBlock: MIFKUJ_clean_linker_0, # of connection points: 2
#     Edge 46, Type (0, 0), BuildingBlock: MIFKUJ_clean_linker_0, # of connection points: 2
#     Edge 47, Type (0, 0), BuildingBlock: MIFKUJ_clean_linker_0, # of connection points: 2
#     Edge 48, Type (0, 0), BuildingBlock: MIFKUJ_clean_linker_0, # of connection points: 2
#     Edge 49, Type (0, 0), BuildingBlock: MIFKUJ_clean_linker_0, # of connection points: 2
#     Edge 50, Type (0, 0), BuildingBlock: MIFKUJ_clean_linker_0, # of connection points: 2
#     Edge 51, Type (0, 0), BuildingBlock: MIFKUJ_clean_linker_0, # of connection points: 2
#     Edge 52, Type (0, 0), BuildingBlock: MIFKUJ_clean_linker_0, # of connection points: 2
#     Edge 53, Type (0, 0), BuildingBlock: MIFKUJ_clean_linker_0, # of connection points: 2
#     Edge 54, Type (0, 0), BuildingBlock: MIFKUJ_clean_linker_0, # of connection points: 2
#     Edge 55, Type (0, 0), BuildingBlock: MIFKUJ_clean_linker_0, # of connection points: 2
# Relax obj value: 0.160
# Max RMSD: 0.191
# Mean RMSD: 0.191
data_MOF--net-zfc--node1-BEQFEK_clean_sbu_0--edge1-MIFKUJ_clean_linker_0
_symmetry_space_group_name_H-M    P1
_symmetry_Int_Tables_number       1
_symmetry_cell_setting            triclinic
loop_
_symmetry_equiv_pos_as_xyz
'x, y, z'
_cell_length_a     94.807186
_cell_length_b     94.790846
_cell_length_c     23.085905
_cell_angle_alpha  89.97086
_cell_angle_beta   89.997975
_cell_angle_gamma 89.990382
loop_
_atom_site_label
_atom_site_type_symbol
_atom_site_fract_x
_atom_site_fract_y
_atom_site_fract_z
_atom_type_partial_charge
Co0 Co 0.24852 0.11097 0.13872 0.0
Co1 Co 0.26031 0.11545 0.01444 0.0
C2 C 0.23277 0.12845 0.05704 0.0
O3 O 0.23298 0.12219 0.10577 0.0
O4 O 0.24278 0.12695 0.0208 0.0
C5 C 0.23269 0.10307 0.24381 0.0
O6 O 0.22116 0.10172 0.21276 0.0
C7 C 0.25608 0.11072 0.89183 0.0
C8 C 0.27617 0.11774 0.8529 0.0
C9 C 0.26302 0.11225 0.83936 0.0
N10 N 0.26478 0.11494 0.93434 0.0
N11 N 0.2768 0.1191 0.91094 0.0
C12 C 0.24112 0.1062 0.90154 0.0
H13 H 0.23757 0.10882 0.94589 0.0
H14 H 0.24025 0.09462 0.89637 0.0
H15 H 0.23407 0.11126 0.86922 0.0
C16 C 0.25154 0.08091 0.10537 0.0
N17 N 0.25236 0.09482 0.09395 0.0
N18 N 0.25774 0.09667 0.04194 0.0
C19 C 0.26068 0.08393 0.01887 0.0
C20 C 0.25673 0.07359 0.05802 0.0
C21 C 0.24569 0.07486 0.16018 0.0
H22 H 0.23479 0.07879 0.1665 0.0
H23 H 0.24553 0.06316 0.15934 0.0
H24 H 0.25214 0.07851 0.19738 0.0
O25 O 0.26576 0.12266 0.14515 0.0
O26 O 0.27547 0.12502 0.05833 0.0
H27 H 0.27395 0.07133 0.96321 0.0
H28 H 0.26067 0.08149 0.92682 0.0
C29 C 0.26835 0.08162 0.96297 0.0
H30 H 0.27608 0.09019 0.95549 0.0
H31 H 0.28534 0.12301 0.93448 0.0
O32 O 0.24428 0.10621 0.21951 0.0
C33 C 0.27559 0.12727 0.11271 0.0
Co34 Co 0.88824 0.24634 0.13456 0.0
Co35 Co 0.88291 0.25965 0.01291 0.0
C36 C 0.87017 0.23177 0.04842 0.0
O37 O 0.87615 0.23198 0.09776 0.0
O38 O 0.87177 0.24179 0.01218 0.0
C39 C 0.88517 0.23434 0.24468 0.0
O40 O 0.87258 0.23145 0.22415 0.0
C41 C 0.8815 0.26065 0.88685 0.0
C42 C 0.88377 0.28341 0.86825 0.0
C43 C 0.88213 0.27037 0.84212 0.0
N44 N 0.88258 0.26761 0.93725 0.0
N45 N 0.88384 0.28123 0.92595 0.0
C46 C 0.88141 0.24491 0.88183 0.0
H47 H 0.88667 0.24005 0.91982 0.0
H48 H 0.88685 0.24145 0.8417 0.0
H49 H 0.87032 0.24122 0.88011 0.0
C50 C 0.9179 0.24981 0.09793 0.0
N51 N 0.90396 0.2509 0.08815 0.0
N52 N 0.90184 0.25609 0.03605 0.0
C53 C 0.91444 0.25818 0.01028 0.0
C54 C 0.92506 0.25433 0.04878 0.0
C55 C 0.92409 0.24545 0.15486 0.0
H56 H 0.91848 0.25092 0.19052 0.0
H57 H 0.9226 0.23393 0.16073 0.0
H58 H 0.93548 0.24802 0.15778 0.0
O59 O 0.87699 0.26324 0.15078 0.0
O60 O 0.87386 0.27362 0.06571 0.0
H61 H 0.91303 0.27416 0.94513 0.0
H62 H 0.92714 0.26163 0.9332 0.0
C63 C 0.91616 0.26292 0.9488 0.0
H64 H 0.90918 0.25661 0.92047 0.0
H65 H 0.885 0.289 0.95759 0.0
O66 O 0.89427 0.23984 0.21128 0.0
C67 C 0.87213 0.2733 0.1204 0.0
Co68 Co 0.75397 0.88652 0.13269 0.0
Co69 Co 0.74146 0.88411 0.00844 0.0
C70 C 0.76917 0.87092 0.04033 0.0
O71 O 0.76899 0.87621 0.09097 0.0
O72 O 0.75896 0.8727 0.00531 0.0
C73 C 0.76979 0.89534 0.2399 0.0
O74 O 0.77887 0.90315 0.21129 0.0
C75 C 0.74189 0.88643 0.88256 0.0
C76 C 0.71922 0.88698 0.86017 0.0
C77 C 0.73262 0.88744 0.83653 0.0
N78 N 0.73434 0.8856 0.93163 0.0
N79 N 0.72079 0.88586 0.91803 0.0
C80 C 0.75767 0.88569 0.88019 0.0
H81 H 0.7623 0.89129 0.91785 0.0
H82 H 0.76187 0.89018 0.83935 0.0
H83 H 0.76094 0.87447 0.88278 0.0
C84 C 0.74866 0.91706 0.11076 0.0
N85 N 0.74901 0.90344 0.0943 0.0
N86 N 0.74495 0.90247 0.03995 0.0
C87 C 0.74267 0.91554 0.01899 0.0
C88 C 0.74476 0.92529 0.06339 0.0
C89 C 0.75044 0.92184 0.17211 0.0
H90 H 0.74716 0.91339 0.20242 0.0
H91 H 0.7617 0.92437 0.18001 0.0
H92 H 0.74406 0.93142 0.18081 0.0
O93 O 0.73714 0.87478 0.14111 0.0
O94 O 0.72687 0.87407 0.05511 0.0
H95 H 0.72841 0.916 0.94712 0.0
H96 H 0.7417 0.92975 0.94515 0.0
C97 C 0.73958 0.91859 0.95659 0.0
H98 H 0.7464 0.91199 0.92887 0.0
H99 H 0.71263 0.88532 0.94824 0.0
O100 O 0.7599 0.88901 0.21354 0.0
C101 C 0.72704 0.87093 0.10874 0.0
Co102 Co 0.1123 0.7529 0.12136 0.0
Co103 Co 0.11736 0.7375 0.00339 0.0
C104 C 0.12981 0.76633 0.03207 0.0
O105 O 0.12364 0.76718 0.08094 0.0
O106 O 0.12847 0.75545 -2e-05 0.0
C107 C 0.11653 0.76287 0.23255 0.0
O108 O 0.12931 0.76412 0.2111 0.0
C109 C 0.11758 0.73639 0.8773 0.0
C110 C 0.11601 0.71357 0.85896 0.0
C111 C 0.11681 0.72668 0.83264 0.0
N112 N 0.11734 0.72938 0.92783 0.0
N113 N 0.1165 0.71573 0.91666 0.0
C114 C 0.11718 0.75213 0.87238 0.0
H115 H 0.11152 0.75673 0.90996 0.0
H116 H 0.11193 0.75547 0.83165 0.0
H117 H 0.12814 0.75623 0.87227 0.0
C118 C 0.08266 0.74956 0.08587 0.0
N119 N 0.09655 0.74775 0.07683 0.0
N120 N 0.0985 0.74107 0.02752 0.0
C121 C 0.08581 0.73827 0.0038 0.0
C122 C 0.0754 0.74359 0.03996 0.0
C123 C 0.07659 0.75641 0.13868 0.0
H124 H 0.07985 0.75035 0.17758 0.0
H125 H 0.08095 0.76722 0.14298 0.0
H126 H 0.06491 0.75688 0.13709 0.0
O127 O 0.12414 0.73637 0.13847 0.0
O128 O 0.12675 0.72414 0.05736 0.0
H129 H 0.08874 0.72055 0.94789 0.0
H130 H 0.07237 0.72991 0.9359 0.0
C131 C 0.08371 0.7311 0.94672 0.0
H132 H 0.08887 0.73738 0.91221 0.0
H133 H 0.11599 0.70791 0.94842 0.0
O134 O 0.10656 0.75937 0.19883 0.0
C135 C 0.12892 0.72573 0.11139 0.0
Co136 Co 0.25537 0.88844 0.86381 0.0
Co137 Co 0.264 0.88154 0.99103 0.0
C138 C 0.2381 0.86901 0.93575 0.0
O139 O 0.23996 0.87569 0.88856 0.0
O140 O 0.24667 0.87032 0.97786 0.0
C141 C 0.239 0.89572 0.76242 0.0
O142 O 0.22798 0.89133 0.79183 0.0
C143 C 0.25942 0.88064 0.11545 0.0
C144 C 0.28111 0.88169 0.15028 0.0
C145 C 0.26704 0.88163 0.1665 0.0
N146 N 0.26855 0.88053 0.07103 0.0
N147 N 0.28151 0.88093 0.09204 0.0
C148 C 0.24375 0.8795 0.1082 0.0
H149 H 0.24129 0.86931 0.08713 0.0
H150 H 0.23994 0.88803 0.07921 0.0
H151 H 0.23804 0.87981 0.15001 0.0
C152 C 0.25696 0.9176 0.90798 0.0
N153 N 0.25784 0.90356 0.91558 0.0
N154 N 0.26125 0.90082 0.96964 0.0
C155 C 0.26238 0.91314 -0.00132 0.0
C156 C 0.25974 0.92419 0.96047 0.0
C157 C 0.25452 0.92448 0.85042 0.0
H158 H 0.26124 0.91937 0.81719 0.0
H159 H 0.24334 0.92299 0.83764 0.0
H160 H 0.257 0.93591 0.85137 0.0
O161 O 0.27305 0.87768 0.85641 0.0
O162 O 0.27969 0.87282 0.9464 0.0
H163 H 0.27559 0.90965 0.0725 0.0
H164 H 0.26467 0.92524 0.07825 0.0
C165 C 0.26511 0.91422 0.06242 0.0
H166 H 0.25699 0.90814 0.08607 0.0
H167 H 0.2906 0.88117 0.06658 0.0
O168 O 0.25112 0.8955 0.78581 0.0
C169 C 0.28168 0.87211 0.8919 0.0
Co170 Co 0.10944 0.24817 0.84604 0.0
Co171 Co 0.11646 0.26211 0.96518 0.0
C172 C 0.12834 0.23377 0.9282 0.0
O173 O 0.12134 0.23332 0.88119 0.0
O174 O 0.12759 0.24435 0.96204 0.0
C175 C 0.10966 0.23423 0.73725 0.0
O176 O 0.12102 0.22825 0.75871 0.0
C177 C 0.11724 0.26073 0.09019 0.0
C178 C 0.11894 0.28304 0.117 0.0
C179 C 0.118 0.2694 0.13839 0.0
N180 N 0.1178 0.26883 0.04257 0.0
N181 N 0.11893 0.28216 0.05869 0.0
C182 C 0.11464 0.24515 0.08888 0.0
H183 H 0.10899 0.24218 0.04861 0.0
H184 H 0.10838 0.24176 0.12705 0.0
H185 H 0.12492 0.23956 0.08956 0.0
C186 C 0.0804 0.25134 0.88986 0.0
N187 N 0.09443 0.25289 0.89556 0.0
N188 N 0.09723 0.25874 0.94596 0.0
C189 C 0.08498 0.26106 0.9741 0.0
C190 C 0.07397 0.25644 0.93945 0.0
C191 C 0.07345 0.24462 0.83866 0.0
H192 H 0.07891 0.23459 0.82804 0.0
H193 H 0.06211 0.2425 0.84681 0.0
H194 H 0.07449 0.25173 0.80069 0.0
O195 O 0.12089 0.26506 0.82872 0.0
O196 O 0.12499 0.27609 0.91169 0.0
H197 H 0.07271 0.27122 0.0413 0.0
H198 H 0.08725 0.26055 0.06612 0.0
C199 C 0.08374 0.26802 0.03206 0.0
H200 H 0.09062 0.27745 0.03358 0.0
H201 H 0.11941 0.29064 0.03002 0.0
O202 O 0.1024 0.24232 0.76933 0.0
C203 C 0.12612 0.27535 0.85679 0.0
Co204 Co 0.74456 0.11089 0.86591 0.0
Co205 Co 0.73537 0.11768 0.99281 0.0
C206 C 0.76168 0.12991 0.94262 0.0
O207 O 0.75976 0.12352 0.89478 0.0
O208 O 0.75296 0.12865 0.98418 0.0
C209 C 0.76135 0.10705 0.76299 0.0
O210 O 0.77105 0.1142 0.79104 0.0
C211 C 0.73778 0.11963 0.11862 0.0
C212 C 0.7156 0.11751 0.14677 0.0
C213 C 0.72926 0.1189 0.16733 0.0
N214 N 0.72953 0.11871 0.07147 0.0
N215 N 0.71627 0.11763 0.08851 0.0
C216 C 0.75357 0.11934 0.11667 0.0
H217 H 0.75732 0.11457 0.07563 0.0
H218 H 0.7579 0.11322 0.15359 0.0
H219 H 0.75761 0.1303 0.1195 0.0
C220 C 0.74151 0.08165 0.90856 0.0
N221 N 0.74125 0.09569 0.91672 0.0
N222 N 0.7382 0.09843 0.97111 0.0
C223 C 0.73705 0.08613 0.00015 0.0
C224 C 0.73896 0.07501 0.96136 0.0
C225 C 0.74303 0.0749 0.85024 0.0
H226 H 0.73746 0.08131 0.81716 0.0
H227 H 0.75437 0.07448 0.83847 0.0
H228 H 0.73859 0.06408 0.84976 0.0
O229 O 0.7271 0.12169 0.85561 0.0
O230 O 0.72025 0.12669 0.94518 0.0
H231 H 0.72433 0.08779 0.07642 0.0
H232 H 0.73807 0.07455 0.0814 0.0
C233 C 0.73535 0.08515 0.06453 0.0
H234 H 0.74246 0.09278 0.0857 0.0
H235 H 0.70772 0.11653 0.06038 0.0
O236 O 0.74978 0.10413 0.78803 0.0
C237 C 0.71843 0.12736 0.89056 0.0
Co238 Co 0.89044 0.74642 0.85806 0.0
Co239 Co 0.88313 0.73704 0.98396 0.0
C240 C 0.87128 0.76358 0.92943 0.0
O241 O 0.87819 0.76215 0.88259 0.0
O242 O 0.87216 0.75452 0.96999 0.0
C243 C 0.89833 0.76228 0.75569 0.0
O244 O 0.89434 0.77357 0.78437 0.0
C245 C 0.88304 0.74236 0.1074 0.0
C246 C 0.88107 0.72101 0.14508 0.0
C247 C 0.88285 0.73509 0.15947 0.0
N248 N 0.88178 0.73298 0.06422 0.0
N249 N 0.88042 0.72024 0.08687 0.0
C250 C 0.88383 0.75799 0.09794 0.0
H251 H 0.87392 0.76159 0.07719 0.0
H252 H 0.89262 0.76045 0.06779 0.0
H253 H 0.8851 0.76395 0.13884 0.0
C254 C 0.91938 0.74518 0.9046 0.0
N255 N 0.90534 0.74379 0.91063 0.0
N256 N 0.90245 0.73945 0.96344 0.0
C257 C 0.91467 0.73772 0.9926 0.0
C258 C 0.92575 0.7414 0.95633 0.0
C259 C 0.9265 0.74943 0.8494 0.0
H260 H 0.92307 0.74231 0.814 0.0
H261 H 0.92321 0.76031 0.83779 0.0
H262 H 0.93816 0.74899 0.853 0.0
O263 O 0.87928 0.72884 0.85033 0.0
O264 O 0.87453 0.72146 0.93945 0.0
H265 H 0.90904 0.7236 0.06129 0.0
H266 H 0.92673 0.73058 0.06696 0.0
C267 C 0.91572 0.73304 0.0544 0.0
H268 H 0.91185 0.7416 0.08293 0.0
H269 H 0.87941 0.71102 0.06261 0.0
O270 O 0.89775 0.75028 0.78002 0.0
C271 C 0.87377 0.71991 0.88478 0.0
Co272 Co 0.74637 0.61025 0.6528 0.0
Co273 Co 0.75875 0.61506 0.52968 0.0
C274 C 0.73201 0.62928 0.56956 0.0
O275 O 0.73222 0.62309 0.61849 0.0
O276 O 0.74171 0.62722 0.53234 0.0
C277 C 0.73198 0.61145 0.76122 0.0
O278 O 0.72676 0.62327 0.74055 0.0
C279 C 0.75728 0.61475 0.40486 0.0
C280 C 0.77966 0.61378 0.37831 0.0
C281 C 0.76601 0.61398 0.35699 0.0
N282 N 0.76537 0.61505 0.45242 0.0
N283 N 0.77876 0.6146 0.43647 0.0
C284 C 0.74152 0.61377 0.40612 0.0
H285 H 0.73795 0.60881 0.44712 0.0
H286 H 0.73753 0.60757 0.36879 0.0
H287 H 0.73701 0.62456 0.40368 0.0
C288 C 0.74759 0.58053 0.61492 0.0
N289 N 0.74939 0.59442 0.60531 0.0
N290 N 0.75453 0.59631 0.55297 0.0
C291 C 0.75608 0.58362 0.52734 0.0
C292 C 0.75172 0.57326 0.56578 0.0
C293 C 0.74196 0.57445 0.67006 0.0
H294 H 0.73186 0.57971 0.68122 0.0
H295 H 0.74022 0.56291 0.6665 0.0
H296 H 0.74953 0.57659 0.70563 0.0
O297 O 0.76429 0.62045 0.66646 0.0
O298 O 0.77362 0.6233 0.57916 0.0
H299 H 0.7644 0.57002 0.45999 0.0
H300 H 0.75514 0.58551 0.4352 0.0
C301 C 0.76242 0.58136 0.46869 0.0
H302 H 0.77252 0.58719 0.46549 0.0
H303 H 0.78723 0.61452 0.46528 0.0
O304 O 0.74006 0.60406 0.72963 0.0
C305 C 0.77419 0.62485 0.63386 0.0
Co306 Co 0.39015 0.74629 0.62586 0.0
Co307 Co 0.38385 0.76031 0.50634 0.0
C308 C 0.37135 0.73216 0.54245 0.0
O309 O 0.37794 0.73183 0.59048 0.0
O310 O 0.37259 0.74257 0.5079 0.0
C311 C 0.38883 0.73328 0.73591 0.0
O312 O 0.37664 0.72878 0.71612 0.0
C313 C 0.38323 0.75965 0.38116 0.0
C314 C 0.38246 0.78218 0.35677 0.0
C315 C 0.38291 0.76867 0.33394 0.0
N316 N 0.38292 0.76744 0.42961 0.0
N317 N 0.38234 0.78091 0.41493 0.0
C318 C 0.38528 0.74399 0.38085 0.0
H319 H 0.39076 0.74055 0.42091 0.0
H320 H 0.39148 0.74062 0.34249 0.0
H321 H 0.37481 0.73876 0.37929 0.0
C322 C 0.4194 0.74878 0.58348 0.0
N323 N 0.40543 0.75062 0.57701 0.0
N324 N 0.40294 0.75686 0.52715 0.0
C325 C 0.41534 0.75942 0.50056 0.0
C326 C 0.42615 0.75433 0.53533 0.0
C327 C 0.42606 0.74236 0.63601 0.0
H328 H 0.42338 0.74883 0.67451 0.0
H329 H 0.42164 0.73166 0.64305 0.0
H330 H 0.4377 0.74171 0.63195 0.0
O331 O 0.37902 0.76346 0.6431 0.0
O332 O 0.37521 0.77422 0.55929 0.0
H333 H 0.41081 0.77623 0.44149 0.0
H334 H 0.42795 0.76825 0.43085 0.0
C335 C 0.41678 0.76618 0.44223 0.0
H336 H 0.41224 0.75908 0.40897 0.0
H337 H 0.38215 0.78922 0.44455 0.0
O338 O 0.39693 0.74011 0.70229 0.0
C339 C 0.37395 0.77369 0.61414 0.0
Co340 Co 0.24679 0.38726 0.62828 0.0
Co341 Co 0.23792 0.38585 0.49869 0.0
C342 C 0.26391 0.37124 0.54237 0.0
O343 O 0.26198 0.37575 0.59363 0.0
O344 O 0.25534 0.37428 0.50187 0.0
C345 C 0.26316 0.39483 0.73026 0.0
O346 O 0.27304 0.39943 0.69514 0.0
C347 C 0.24237 0.39072 0.37597 0.0
C348 C 0.22089 0.38893 0.33942 0.0
C349 C 0.23483 0.39148 0.32476 0.0
N350 N 0.23328 0.3881 0.41924 0.0
N351 N 0.22045 0.38705 0.39726 0.0
C352 C 0.25804 0.39145 0.38367 0.0
H353 H 0.26072 0.3942 0.42904 0.0
H354 H 0.26287 0.39929 0.35421 0.0
H355 H 0.26264 0.38099 0.37331 0.0
C356 C 0.24422 0.41808 0.60607 0.0
N357 N 0.24408 0.4045 0.58876 0.0
N358 N 0.24061 0.40393 0.53359 0.0
C359 C 0.23874 0.41718 0.51369 0.0
C360 C 0.24093 0.42658 0.55902 0.0
C361 C 0.2461 0.42274 0.66753 0.0
H362 H 0.24123 0.41499 0.69741 0.0
H363 H 0.25753 0.42346 0.67732 0.0
H364 H 0.24127 0.43325 0.675 0.0
O365 O 0.22901 0.37666 0.62902 0.0
O366 O 0.2222 0.37545 0.5372 0.0
H367 H 0.22549 0.41563 0.43881 0.0
H368 H 0.23477 0.43225 0.44426 0.0
C369 C 0.23551 0.42075 0.45187 0.0
H370 H 0.24407 0.41668 0.42398 0.0
H371 H 0.21143 0.38494 0.42163 0.0
O372 O 0.25171 0.38998 0.70991 0.0
C373 C 0.22024 0.37271 0.59065 0.0
Co374 Co 0.61054 0.25296 0.62182 0.0
Co375 Co 0.61659 0.23878 0.50222 0.0
C376 C 0.62989 0.2665 0.53948 0.0
O377 O 0.62301 0.26725 0.5867 0.0
O378 O 0.62856 0.25601 0.50545 0.0
C379 C 0.61176 0.26601 0.73199 0.0
O380 O 0.62412 0.27028 0.71318 0.0
C381 C 0.61798 0.23896 0.37613 0.0
C382 C 0.61303 0.21683 0.354 0.0
C383 C 0.61515 0.23005 0.32987 0.0
N384 N 0.61702 0.23146 0.42535 0.0
N385 N 0.61437 0.21817 0.41183 0.0
C386 C 0.62203 0.25423 0.37426 0.0
H387 H 0.63187 0.25578 0.39926 0.0
H388 H 0.6136 0.26065 0.39476 0.0
H389 H 0.62406 0.258 0.32961 0.0
C390 C 0.58124 0.25088 0.58021 0.0
N391 N 0.5952 0.24899 0.57304 0.0
N392 N 0.59756 0.24294 0.5227 0.0
C393 C 0.58507 0.24071 0.49624 0.0
C394 C 0.57437 0.24563 0.53188 0.0
C395 C 0.57471 0.25685 0.63387 0.0
H396 H 0.57753 0.25009 0.67139 0.0
H397 H 0.57909 0.26752 0.64201 0.0
H398 H 0.56306 0.25747 0.63049 0.0
O399 O 0.62133 0.23553 0.63899 0.0
O400 O 0.62458 0.22452 0.55532 0.0
H401 H 0.58712 0.22328 0.43821 0.0
H402 H 0.5722 0.23451 0.4228 0.0
C403 C 0.58335 0.23435 0.43735 0.0
H404 H 0.58976 0.24035 0.4057 0.0
H405 H 0.61283 0.21017 0.4422 0.0
O406 O 0.60374 0.25926 0.69786 0.0
C407 C 0.62598 0.22509 0.61012 0.0
Co408 Co 0.7571 0.38729 0.37406 0.0
Co409 Co 0.76535 0.38215 0.5027 0.0
C410 C 0.74025 0.36805 0.44821 0.0
O411 O 0.74195 0.37439 0.40015 0.0
O412 O 0.74872 0.36994 0.49021 0.0
C413 C 0.74087 0.39379 0.27161 0.0
O414 O 0.72967 0.39263 0.30479 0.0
C415 C 0.75933 0.38158 0.62546 0.0
C416 C 0.78043 0.38354 0.6653 0.0
C417 C 0.76618 0.38253 0.67822 0.0
N418 N 0.76905 0.38199 0.58328 0.0
N419 N 0.78167 0.38301 0.60722 0.0
C420 C 0.74375 0.38198 0.61459 0.0
H421 H 0.7415 0.38721 0.57258 0.0
H422 H 0.73817 0.38771 0.64969 0.0
H423 H 0.73967 0.37102 0.61268 0.0
C424 C 0.75703 0.417 0.41271 0.0
N425 N 0.75854 0.4031 0.42269 0.0
N426 N 0.76191 0.40105 0.47733 0.0
C427 C 0.76245 0.41368 0.50427 0.0
C428 C 0.75941 0.4242 0.46412 0.0
C429 C 0.75426 0.42319 0.35415 0.0
H430 H 0.76085 0.41778 0.3213 0.0
H431 H 0.74302 0.42148 0.34266 0.0
H432 H 0.7566 0.43465 0.35295 0.0
O433 O 0.7754 0.37746 0.37082 0.0
O434 O 0.78172 0.37364 0.46212 0.0
H435 H 0.77574 0.41149 0.57866 0.0
H436 H 0.76414 0.42664 0.58178 0.0
C437 C 0.76508 0.4155 0.56781 0.0
H438 H 0.75724 0.40928 0.59243 0.0
H439 H 0.79107 0.3837 0.58389 0.0
O440 O 0.75306 0.39254 0.29369 0.0
C441 C 0.78408 0.37269 0.40799 0.0
Co442 Co 0.61339 0.75226 0.34814 0.0
Co443 Co 0.61551 0.76271 0.47569 0.0
C444 C 0.62995 0.73623 0.43486 0.0
O445 O 0.62562 0.73775 0.38309 0.0
O446 O 0.62677 0.74501 0.47445 0.0
C447 C 0.60679 0.73597 0.24223 0.0
O448 O 0.6044 0.72454 0.27291 0.0
C449 C 0.61221 0.76025 0.60056 0.0
C450 C 0.60916 0.78242 0.6276 0.0
C451 C 0.60923 0.76868 0.64801 0.0
N452 N 0.61343 0.7686 0.55386 0.0
N453 N 0.61178 0.78185 0.5703 0.0
C454 C 0.61465 0.74465 0.59926 0.0
H455 H 0.60751 0.73972 0.567 0.0
H456 H 0.61325 0.73961 0.64214 0.0
H457 H 0.62566 0.74267 0.58523 0.0
C458 C 0.58278 0.75321 0.375 0.0
N459 N 0.59645 0.75473 0.38968 0.0
N460 N 0.59727 0.75945 0.44321 0.0
C461 C 0.5841 0.76102 0.46435 0.0
C462 C 0.57454 0.75715 0.42181 0.0
C463 C 0.57771 0.7488 0.31638 0.0
H464 H 0.58346 0.75477 0.28249 0.0
H465 H 0.57993 0.73741 0.31026 0.0
H466 H 0.56621 0.75062 0.31128 0.0
O467 O 0.6233 0.77035 0.34338 0.0
O468 O 0.62564 0.77803 0.43355 0.0
H469 H 0.58514 0.77613 0.53297 0.0
H470 H 0.56918 0.76574 0.53313 0.0
C471 C 0.5807 0.7655 0.52494 0.0
H472 H 0.58555 0.75799 0.55583 0.0
H473 H 0.61208 0.79046 0.54217 0.0
O474 O 0.61001 0.74746 0.26707 0.0
C475 C 0.62757 0.77954 0.37934 0.0
Co476 Co 0.243 0.61188 0.38913 0.0
Co477 Co 0.23487 0.61919 0.51652 0.0
C478 C 0.26101 0.63088 0.45823 0.0
O479 O 0.25899 0.6242 0.41115 0.0
O480 O 0.25242 0.62981 0.50034 0.0
C481 C 0.25776 0.60258 0.2857 0.0
O482 O 0.26952 0.60475 0.31442 0.0
C483 C 0.24071 0.61725 0.63974 0.0
C484 C 0.2198 0.62113 0.67893 0.0
C485 C 0.23358 0.61743 0.69213 0.0
N486 N 0.23148 0.62029 0.59741 0.0
N487 N 0.21904 0.6228 0.62108 0.0
C488 C 0.2561 0.61451 0.62966 0.0
H489 H 0.26029 0.62194 0.59702 0.0
H490 H 0.25753 0.60367 0.61259 0.0
H491 H 0.26231 0.61576 0.67003 0.0
C492 C 0.24131 0.58284 0.43496 0.0
N493 N 0.24059 0.59692 0.44174 0.0
N494 N 0.23666 0.59984 0.49508 0.0
C495 C 0.23464 0.5876 0.52387 0.0
C496 C 0.23762 0.57651 0.48682 0.0
C497 C 0.24568 0.57568 0.38006 0.0
H498 H 0.25613 0.57974 0.36647 0.0
H499 H 0.24634 0.56406 0.38529 0.0
H500 H 0.23799 0.57823 0.34537 0.0
O501 O 0.22542 0.62304 0.38421 0.0
O502 O 0.21921 0.62847 0.47431 0.0
H503 H 0.22415 0.57579 0.59142 0.0
H504 H 0.23746 0.58788 0.61576 0.0
C505 C 0.22884 0.58637 0.58398 0.0
H506 H 0.22065 0.59451 0.59127 0.0
H507 H 0.20995 0.62519 0.59761 0.0
O508 O 0.24599 0.60468 0.31041 0.0
C509 C 0.21707 0.62894 0.41991 0.0
Co510 Co 0.38817 0.2512 0.34464 0.0
Co511 Co 0.38364 0.24036 0.47074 0.0
C512 C 0.36986 0.26703 0.42404 0.0
O513 O 0.37564 0.26613 0.37446 0.0
O514 O 0.37206 0.25777 0.46295 0.0
C515 C 0.39316 0.26743 0.2397 0.0
O516 O 0.3881 0.27837 0.26778 0.0
C517 C 0.38821 0.24483 0.59335 0.0
C518 C 0.38144 0.22469 0.6327 0.0
C519 C 0.38682 0.23791 0.64594 0.0
N520 N 0.38404 0.23606 0.55104 0.0
N521 N 0.38002 0.22401 0.57469 0.0
C522 C 0.39259 0.25983 0.58337 0.0
H523 H 0.38965 0.26341 0.53939 0.0
H524 H 0.4042 0.26075 0.58726 0.0
H525 H 0.38771 0.26683 0.61632 0.0
C526 C 0.41798 0.2504 0.38188 0.0
N527 N 0.40411 0.24872 0.39222 0.0
N528 N 0.40236 0.24326 0.44408 0.0
C529 C 0.41514 0.24088 0.46783 0.0
C530 C 0.42544 0.24548 0.42948 0.0
C531 C 0.42383 0.25693 0.32794 0.0
H532 H 0.41741 0.26626 0.31585 0.0
H533 H 0.43496 0.26023 0.33374 0.0
H534 H 0.42319 0.24918 0.29203 0.0
O535 O 0.37759 0.23324 0.33808 0.0
O536 O 0.37447 0.22491 0.42707 0.0
H537 H 0.42779 0.22721 0.5217 0.0
H538 H 0.41784 0.24035 0.55983 0.0
C539 C 0.41755 0.23288 0.52295 0.0
H540 H 0.40897 0.22515 0.53013 0.0
H541 H 0.37621 0.21541 0.55135 0.0
O542 O 0.39414 0.2556 0.26518 0.0
C543 C 0.37289 0.22384 0.37245 0.0
H544 H 0.24637 0.09035 0.80197 0.0
H545 H 0.23643 0.087 0.70546 0.0
H546 H 0.25835 0.12417 0.64573 0.0
H547 H 0.26772 0.12797 0.74314 0.0
H548 H 0.23195 0.12398 0.60633 0.0
H549 H 0.27052 0.0907 0.61832 0.0
H550 H 0.28378 0.07072 0.65987 0.0
H551 H 0.24817 0.04349 0.63327 0.0
H552 H 0.23463 0.06337 0.5922 0.0
H553 H 0.25154 0.11438 0.31832 0.0
H554 H 0.25129 0.11353 0.42354 0.0
H555 H 0.21313 0.08881 0.41995 0.0
H556 H 0.21307 0.08988 0.31313 0.0
H557 H 0.24138 0.08014 0.49546 0.0
H558 H 0.20456 0.11434 0.46647 0.0
H559 H 0.19367 0.1349 0.41863 0.0
H560 H 0.22826 0.16098 0.47272 0.0
H561 H 0.23948 0.14052 0.52007 0.0
C562 C 0.24878 0.09801 0.76878 0.0
C563 C 0.2575 0.10966 0.7805 0.0
C564 C 0.24326 0.09596 0.71334 0.0
C565 C 0.24662 0.10535 0.66846 0.0
C566 C 0.25551 0.11686 0.67991 0.0
C567 C 0.26096 0.11895 0.73538 0.0
C568 C 0.24111 0.10318 0.60913 0.0
C569 C 0.23395 0.11436 0.58224 0.0
C570 C 0.24339 0.09049 0.57816 0.0
C571 C 0.2515 0.07855 0.60296 0.0
C572 C 0.26548 0.08048 0.62183 0.0
C573 C 0.27305 0.06917 0.64519 0.0
C574 C 0.26681 0.05586 0.64941 0.0
C575 C 0.25298 0.05382 0.63012 0.0
C576 C 0.24536 0.0651 0.60679 0.0
C577 C 0.24307 0.10871 0.33961 0.0
C578 C 0.23232 0.10216 0.30751 0.0
C579 C 0.24295 0.10828 0.39973 0.0
C580 C 0.23219 0.10116 0.42906 0.0
C581 C 0.22149 0.09439 0.39761 0.0
C582 C 0.22146 0.09503 0.33693 0.0
C583 C 0.23254 0.10103 0.49278 0.0
C584 C 0.23888 0.08951 0.52044 0.0
C585 C 0.22968 0.11347 0.52429 0.0
C586 C 0.2229 0.12586 0.4965 0.0
C587 C 0.20991 0.12443 0.46776 0.0
C588 C 0.20366 0.13607 0.4408 0.0
C589 C 0.21028 0.14923 0.44255 0.0
C590 C 0.22315 0.15078 0.4714 0.0
C591 C 0.22944 0.13917 0.49838 0.0
H592 H 0.20544 0.15823 0.42162 0.0
H593 H 0.27269 0.04712 0.66748 0.0
H594 H 0.89959 0.28144 0.76054 0.0
H595 H 0.90122 0.27467 0.65832 0.0
H596 H 0.86614 0.24615 0.68086 0.0
H597 H 0.86465 0.25276 0.78301 0.0
H598 H 0.88678 0.23322 0.62745 0.0
H599 H 0.86298 0.27749 0.6046 0.0
H600 H 0.8589 0.30306 0.61505 0.0
H601 H 0.89806 0.31165 0.52856 0.0
H602 H 0.90246 0.28612 0.5182 0.0
H603 H 0.86823 0.22341 0.3292 0.0
H604 H 0.86975 0.22813 0.43312 0.0
H605 H 0.90871 0.25071 0.4067 0.0
H606 H 0.90738 0.24597 0.30292 0.0
H607 H 0.88749 0.26647 0.46156 0.0
H608 H 0.91001 0.22139 0.47953 0.0
H609 H 0.91257 0.19574 0.46549 0.0
H610 H 0.87402 0.18862 0.55865 0.0
H611 H 0.87112 0.21426 0.57255 0.0
C612 C 0.89214 0.27386 0.74328 0.0
C613 C 0.88216 0.26742 0.77952 0.0
C614 C 0.89306 0.27002 0.685 0.0
C615 C 0.8838 0.25989 0.66199 0.0
C616 C 0.87347 0.25387 0.69785 0.0
C617 C 0.87265 0.25762 0.75612 0.0
C618 C 0.88528 0.25502 0.60136 0.0
C619 C 0.88677 0.24049 0.59112 0.0
C620 C 0.88561 0.26453 0.55411 0.0
C621 C 0.88313 0.27989 0.56132 0.0
C622 C 0.8708 0.28483 0.5884 0.0
C623 C 0.86841 0.29931 0.59417 0.0
C624 C 0.87824 0.30897 0.57271 0.0
C625 C 0.89048 0.30416 0.54539 0.0
C626 C 0.89292 0.28968 0.53952 0.0
C627 C 0.8773 0.22907 0.34568 0.0
C628 C 0.88759 0.23445 0.30781 0.0
C629 C 0.87816 0.23174 0.40502 0.0
C630 C 0.88929 0.23984 0.42725 0.0
C631 C 0.90002 0.24448 0.39011 0.0
C632 C 0.89925 0.2417 0.33089 0.0
C633 C 0.88891 0.24472 0.4879 0.0
C634 C 0.88761 0.25925 0.49805 0.0
C635 C 0.88857 0.2352 0.53492 0.0
C636 C 0.89029 0.21977 0.52663 0.0
C637 C 0.90201 0.21437 0.49658 0.0
C638 C 0.90354 0.19983 0.48874 0.0
C639 C 0.89345 0.19056 0.51105 0.0
C640 C 0.88182 0.19581 0.54135 0.0
C641 C 0.88024 0.21035 0.54928 0.0
H642 H 0.89465 0.1793 0.50495 0.0
H643 H 0.87636 0.32018 0.57707 0.0
H644 H 0.76235 0.87281 0.30417 0.0
H645 H 0.75805 0.87216 0.4082 0.0
H646 H 0.77279 0.91505 0.4234 0.0
H647 H 0.77745 0.91565 0.31849 0.0
H648 H 0.78013 0.89721 0.51917 0.0
H649 H 0.73888 0.90986 0.40663 0.0
H650 H 0.72199 0.90614 0.32686 0.0
H651 H 0.71015 0.86613 0.39933 0.0
H652 H 0.72716 0.8695 0.47905 0.0
H653 H 0.74651 0.90933 0.7875 0.0
H654 H 0.75365 0.91176 0.68593 0.0
H655 H 0.73403 0.87176 0.64691 0.0
H656 H 0.72641 0.86967 0.74819 0.0
H657 H 0.72942 0.88938 0.56244 0.0
H658 H 0.76966 0.8756 0.6731 0.0
H659 H 0.78672 0.87774 0.75303 0.0
H660 H 0.80139 0.91714 0.68392 0.0
H661 H 0.78395 0.91558 0.60485 0.0
C662 C 0.76497 0.88201 0.32986 0.0
C663 C 0.77005 0.89435 0.30346 0.0
C664 C 0.7625 0.88162 0.38919 0.0
C665 C 0.76479 0.89366 0.42304 0.0
C666 C 0.77089 0.90568 0.39771 0.0
C667 C 0.77356 0.90602 0.33802 0.0
C668 C 0.75945 0.89401 0.48318 0.0
C669 C 0.76903 0.89574 0.52884 0.0
C670 C 0.745 0.89168 0.49539 0.0
C671 C 0.73437 0.8899 0.44864 0.0
C672 C 0.73271 0.90025 0.40546 0.0
C673 C 0.72312 0.89819 0.36023 0.0
C674 C 0.71502 0.88589 0.35796 0.0
C675 C 0.71644 0.87565 0.40112 0.0
C676 C 0.72604 0.87763 0.44638 0.0
C677 C 0.74368 0.90115 0.75687 0.0
C678 C 0.73614 0.88923 0.7751 0.0
C679 C 0.74778 0.9025 0.69911 0.0
C680 C 0.74466 0.89179 0.6591 0.0
C681 C 0.73662 0.88012 0.67708 0.0
C682 C 0.73231 0.87889 0.73473 0.0
C683 C 0.7501 0.89252 0.59897 0.0
C684 C 0.74052 0.89097 0.55312 0.0
C685 C 0.76459 0.89477 0.58673 0.0
C686 C 0.77538 0.89554 0.6333 0.0
C687 C 0.77645 0.88478 0.67511 0.0
C688 C 0.78619 0.88589 0.7203 0.0
C689 C 0.79518 0.89753 0.72344 0.0
C690 C 0.79441 0.90813 0.68144 0.0
C691 C 0.78456 0.90716 0.63652 0.0
H692 H 0.80273 0.89835 0.75843 0.0
H693 H 0.70764 0.8843 0.32281 0.0
H694 H 0.09343 0.75334 0.29194 0.0
H695 H 0.09219 0.7477 0.39502 0.0
H696 H 0.13388 0.76493 0.41967 0.0
H697 H 0.13534 0.77031 0.31642 0.0
H698 H 0.13222 0.7391 0.46274 0.0
H699 H 0.10398 0.78119 0.47416 0.0
H700 H 0.08435 0.79703 0.44797 0.0
H701 H 0.05446 0.76519 0.49739 0.0
H702 H 0.07392 0.74909 0.52318 0.0
H703 H 0.13453 0.74348 0.77112 0.0
H704 H 0.13327 0.74916 0.66762 0.0
H705 H 0.0968 0.72231 0.64996 0.0
H706 H 0.09822 0.71634 0.75355 0.0
H707 H 0.09458 0.75156 0.60294 0.0
H708 H 0.12287 0.70982 0.59322 0.0
H709 H 0.1425 0.69382 0.61745 0.0
H710 H 0.17237 0.72528 0.5639 0.0
H711 H 0.1529 0.74156 0.54014 0.0
C712 C 0.10221 0.75623 0.31951 0.0
C713 C 0.11454 0.76218 0.29596 0.0
C714 C 0.10147 0.753 0.3785 0.0
C715 C 0.11296 0.75586 0.41502 0.0
C716 C 0.12494 0.76254 0.39215 0.0
C717 C 0.12573 0.76568 0.33319 0.0
C718 C 0.11302 0.75086 0.47587 0.0
C719 C 0.1241 0.74203 0.4936 0.0
C720 C 0.10213 0.75421 0.51547 0.0
C721 C 0.09041 0.76388 0.50004 0.0
C722 C 0.09322 0.77752 0.47899 0.0
C723 C 0.08212 0.78656 0.46431 0.0
C724 C 0.06816 0.7821 0.47086 0.0
C725 C 0.06527 0.76862 0.49226 0.0
C726 C 0.07634 0.75954 0.50697 0.0
C727 C 0.12628 0.73878 0.74503 0.0
C728 C 0.1164 0.72958 0.76999 0.0
C729 C 0.1256 0.74197 0.68609 0.0
C730 C 0.11493 0.73616 0.65147 0.0
C731 C 0.10509 0.72689 0.6762 0.0
C732 C 0.10594 0.72346 0.73503 0.0
C733 C 0.11394 0.74014 0.58975 0.0
C734 C 0.10268 0.74869 0.57189 0.0
C735 C 0.12468 0.73659 0.54998 0.0
C736 C 0.13643 0.72698 0.56567 0.0
C737 C 0.13363 0.71341 0.5874 0.0
C738 C 0.14472 0.70426 0.60081 0.0
C739 C 0.15868 0.70855 0.59241 0.0
C740 C 0.16156 0.72198 0.57052 0.0
C741 C 0.1505 0.73117 0.55706 0.0
H742 H 0.16725 0.70144 0.60271 0.0
H743 H 0.05959 0.78911 0.45947 0.0
H744 H 0.24644 0.89994 0.20032 0.0
H745 H 0.23783 0.90411 0.29864 0.0
H746 H 0.26818 0.87419 0.36467 0.0
H747 H 0.27632 0.86948 0.26579 0.0
H748 H 0.24346 0.87064 0.41639 0.0
H749 H 0.27382 0.90997 0.3705 0.0
H750 H 0.28178 0.93038 0.31282 0.0
H751 H 0.24197 0.95089 0.3408 0.0
H752 H 0.23371 0.9305 0.39805 0.0
H753 H 0.25874 0.90829 0.6945 0.0
H754 H 0.25934 0.90879 0.58912 0.0
H755 H 0.21756 0.8908 0.58313 0.0
H756 H 0.21697 0.89003 0.68919 0.0
H757 H 0.24477 0.91903 0.49831 0.0
H758 H 0.21848 0.86479 0.48038 0.0
H759 H 0.21333 0.84398 0.5412 0.0
H760 H 0.2498 0.85274 0.6455 0.0
H761 H 0.25524 0.87347 0.58485 0.0
C762 C 0.25098 0.89396 0.23569 0.0
C763 C 0.26171 0.88404 0.22556 0.0
C764 C 0.24621 0.89651 0.29186 0.0
C765 C 0.25238 0.88948 0.33892 0.0
C766 C 0.2632 0.87965 0.32886 0.0
C767 C 0.26788 0.87701 0.27259 0.0
C768 C 0.24785 0.89254 0.39892 0.0
C769 C 0.24362 0.88124 0.43409 0.0
C770 C 0.24812 0.90637 0.42208 0.0
C771 C 0.2531 0.91865 0.38797 0.0
C772 C 0.26673 0.91879 0.36397 0.0
C773 C 0.2713 0.93036 0.33143 0.0
C774 C 0.26237 0.94191 0.32299 0.0
C775 C 0.24886 0.94193 0.34726 0.0
C776 C 0.24424 0.93037 0.37979 0.0
C777 C 0.24955 0.90469 0.67086 0.0
C778 C 0.23794 0.89882 0.7 0.0
C779 C 0.24987 0.90508 0.6106 0.0
C780 C 0.2386 0.8996 0.57844 0.0
C781 C 0.22644 0.89491 0.60735 0.0
C782 C 0.22611 0.89451 0.66787 0.0
C783 C 0.24054 0.89711 0.51575 0.0
C784 C 0.24428 0.90849 0.48007 0.0
C785 C 0.24018 0.88331 0.49241 0.0
C786 C 0.23715 0.87075 0.52857 0.0
C787 C 0.2254 0.86223 0.51622 0.0
C788 C 0.22244 0.85046 0.55065 0.0
C789 C 0.2312 0.84707 0.59732 0.0
C790 C 0.24299 0.8554 0.60948 0.0
C791 C 0.24601 0.86717 0.57512 0.0
H792 H 0.22887 0.83797 0.62396 0.0
H793 H 0.26592 0.95086 0.29778 0.0
H794 H 0.12274 0.21798 0.6555 0.0
H795 H 0.12242 0.22165 0.55071 0.0
H796 H 0.09149 0.25465 0.57128 0.0
H797 H 0.09139 0.25076 0.67572 0.0
H798 H 0.0871 0.24066 0.47228 0.0
H799 H 0.12683 0.26252 0.56789 0.0
H800 H 0.14767 0.26229 0.63194 0.0
H801 H 0.16781 0.23201 0.52103 0.0
H802 H 0.14703 0.23198 0.45661 0.0
H803 H 0.10299 0.28221 0.22381 0.0
H804 H 0.10044 0.2745 0.32476 0.0
H805 H 0.12862 0.23966 0.29215 0.0
H806 H 0.1313 0.2474 0.19155 0.0
H807 H 0.13427 0.25367 0.39548 0.0
H808 H 0.0946 0.23351 0.29561 0.0
H809 H 0.07353 0.2342 0.23307 0.0
H810 H 0.05307 0.26218 0.35277 0.0
H811 H 0.07412 0.26184 0.4156 0.0
C812 C 0.11561 0.22578 0.6376 0.0
C813 C 0.10728 0.23425 0.67399 0.0
C814 C 0.11549 0.22791 0.57774 0.0
C815 C 0.10723 0.2387 0.55346 0.0
C816 C 0.09803 0.24635 0.58916 0.0
C817 C 0.09801 0.24412 0.64894 0.0
C818 C 0.10918 0.24297 0.4922 0.0
C819 C 0.09739 0.2436 0.45557 0.0
C820 C 0.12263 0.24671 0.47031 0.0
C821 C 0.13533 0.24714 0.50779 0.0
C822 C 0.1357 0.25579 0.55727 0.0
C823 C 0.14749 0.2557 0.59364 0.0
C824 C 0.15901 0.24707 0.58071 0.0
C825 C 0.15885 0.23865 0.53105 0.0
C826 C 0.14708 0.2387 0.49455 0.0
C827 C 0.10869 0.27296 0.23842 0.0
C828 C 0.11712 0.26523 0.19984 0.0
C829 C 0.10717 0.26854 0.29582 0.0
C830 C 0.11418 0.25639 0.3155 0.0
C831 C 0.12303 0.24898 0.27757 0.0
C832 C 0.12446 0.25334 0.2201 0.0
C833 C 0.1122 0.25134 0.37559 0.0
C834 C 0.12399 0.25064 0.41207 0.0
C835 C 0.09873 0.24768 0.39738 0.0
C836 C 0.08599 0.24775 0.36005 0.0
C837 C 0.08565 0.23989 0.30839 0.0
C838 C 0.0737 0.24021 0.27291 0.0
C839 C 0.06198 0.24825 0.28886 0.0
C840 C 0.06216 0.25596 0.34043 0.0
C841 C 0.0741 0.25571 0.37602 0.0
H842 H 0.05274 0.24849 0.26133 0.0
H843 H 0.16808 0.24688 0.60912 0.0
H844 H 0.74517 0.09001 0.69512 0.0
H845 H 0.74371 0.09035 0.58961 0.0
H846 H 0.77836 0.11979 0.58253 0.0
H847 H 0.77991 0.11952 0.68831 0.0
H848 H 0.75439 0.12959 0.52951 0.0
H849 H 0.78253 0.08798 0.52458 0.0
H850 H 0.78983 0.0639 0.55159 0.0
H851 H 0.75035 0.04757 0.4899 0.0
H852 H 0.74272 0.07159 0.46327 0.0
H853 H 0.75003 0.13376 0.22233 0.0
H854 H 0.75855 0.13041 0.32134 0.0
H855 H 0.72663 0.09869 0.34975 0.0
H856 H 0.71838 0.10169 0.25 0.0
H857 H 0.75217 0.09008 0.38903 0.0
H858 H 0.72288 0.13127 0.40556 0.0
H859 H 0.71459 0.15524 0.38162 0.0
H860 H 0.7553 0.1721 0.42454 0.0
H861 H 0.76389 0.14819 0.44807 0.0
C862 C 0.75271 0.09629 0.67106 0.0
C863 C 0.76253 0.10488 0.69994 0.0
C864 C 0.75191 0.09641 0.61076 0.0
C865 C 0.76091 0.10512 0.57842 0.0
C866 C 0.77133 0.113 0.6069 0.0
C867 C 0.77222 0.1128 0.66727 0.0
C868 C 0.75811 0.1074 0.51617 0.0
C869 C 0.75424 0.12102 0.49839 0.0
C870 C 0.75747 0.0961 0.47633 0.0
C871 C 0.76201 0.08162 0.4923 0.0
C872 C 0.77535 0.07928 0.51721 0.0
C873 C 0.77956 0.06563 0.53236 0.0
C874 C 0.77055 0.05422 0.52257 0.0
C875 C 0.75732 0.05643 0.49749 0.0
C876 C 0.75306 0.07005 0.48228 0.0
C877 C 0.74493 0.12598 0.24952 0.0
C878 C 0.73372 0.11779 0.22833 0.0
C879 C 0.74972 0.12417 0.30619 0.0
C880 C 0.74323 0.11428 0.34276 0.0
C881 C 0.73183 0.10631 0.32202 0.0
C882 C 0.72706 0.10811 0.26533 0.0
C883 C 0.74832 0.11223 0.4027 0.0
C884 C 0.75255 0.09867 0.41999 0.0
C885 C 0.74918 0.12355 0.44238 0.0
C886 C 0.74407 0.13793 0.42789 0.0
C887 C 0.7301 0.14007 0.40936 0.0
C888 C 0.72534 0.15365 0.39599 0.0
C889 C 0.73443 0.16518 0.40138 0.0
C890 C 0.74829 0.16316 0.42028 0.0
C891 C 0.7531 0.1496 0.43367 0.0
H892 H 0.73072 0.17568 0.39105 0.0
H893 H 0.77383 0.04366 0.53432 0.0
H894 H 0.89529 0.78491 0.68249 0.0
H895 H 0.89614 0.78437 0.57644 0.0
H896 H 0.90871 0.74063 0.58193 0.0
H897 H 0.90825 0.74117 0.68718 0.0
H898 H 0.9209 0.75332 0.49306 0.0
H899 H 0.87372 0.75016 0.57503 0.0
H900 H 0.85371 0.75887 0.63323 0.0
H901 H 0.85142 0.79611 0.52756 0.0
H902 H 0.87155 0.78766 0.46917 0.0
H903 H 0.86882 0.72838 0.25801 0.0
H904 H 0.87395 0.7365 0.35656 0.0
H905 H 0.90819 0.76197 0.29129 0.0
H906 H 0.90348 0.75338 0.1933 0.0
H907 H 0.87378 0.76192 0.40624 0.0
H908 H 0.93448 0.76222 0.39306 0.0
H909 H 0.95364 0.75064 0.33839 0.0
H910 H 0.92737 0.71435 0.31108 0.0
H911 H 0.90815 0.72563 0.3662 0.0
C912 C 0.89858 0.77529 0.66107 0.0
C913 C 0.90141 0.76299 0.69309 0.0
C914 C 0.89902 0.77499 0.60052 0.0
C915 C 0.9022 0.76238 0.5714 0.0
C916 C 0.90617 0.75047 0.60348 0.0
C917 C 0.9058 0.75077 0.66375 0.0
C918 C 0.8998 0.76088 0.50836 0.0
C919 C 0.91067 0.75541 0.4738 0.0
C920 C 0.88637 0.76335 0.48353 0.0
C921 C 0.87422 0.76837 0.51824 0.0
C922 C 0.86899 0.76024 0.56447 0.0
C923 C 0.85763 0.76513 0.59745 0.0
C924 C 0.85133 0.77806 0.58421 0.0
C925 C 0.85634 0.78611 0.53784 0.0
C926 C 0.86772 0.78128 0.50479 0.0
C927 C 0.87738 0.73577 0.26487 0.0
C928 C 0.88552 0.74056 0.21814 0.0
C929 C 0.88025 0.74046 0.32094 0.0
C930 C 0.89142 0.74986 0.33115 0.0
C931 C 0.89953 0.7547 0.28436 0.0
C932 C 0.89671 0.74995 0.22837 0.0
C933 C 0.89482 0.75416 0.39115 0.0
C934 C 0.88413 0.76017 0.42504 0.0
C935 C 0.90831 0.75182 0.41571 0.0
C936 C 0.91984 0.74485 0.38309 0.0
C937 C 0.93282 0.75176 0.37548 0.0
C938 C 0.94368 0.74525 0.34442 0.0
C939 C 0.9417 0.73179 0.32107 0.0
C940 C 0.92887 0.72479 0.32896 0.0
C941 C 0.91799 0.73125 0.36005 0.0
H942 H 0.95012 0.72678 0.297 0.0
H943 H 0.84253 0.78182 0.6098 0.0
H944 H 0.77602 0.59539 0.27777 0.0
H945 H 0.76811 0.59239 0.17753 0.0
H946 H 0.73888 0.62695 0.19896 0.0
H947 H 0.74647 0.62962 0.29963 0.0
H948 H 0.72641 0.60662 0.14354 0.0
H949 H 0.77083 0.63047 0.12507 0.0
H950 H 0.79631 0.63435 0.13929 0.0
H951 H 0.80535 0.59512 0.0541 0.0
H952 H 0.77989 0.59092 0.04002 0.0
H953 H 0.71923 0.62711 0.84587 0.0
H954 H 0.72229 0.62434 0.95035 0.0
H955 H 0.74572 0.58594 0.92214 0.0
H956 H 0.74272 0.58859 0.81777 0.0
H957 H 0.76064 0.60631 0.98109 0.0
H958 H 0.71513 0.58438 0.99154 0.0
H959 H 0.68955 0.58237 0.97443 0.0
H960 H 0.68244 0.62031 0.07166 0.0
H961 H 0.70801 0.62268 0.08867 0.0
C962 C 0.76796 0.60235 0.26075 0.0
C963 C 0.76176 0.61267 0.29605 0.0
C964 C 0.76345 0.60066 0.20364 0.0
C965 C 0.75298 0.60952 0.18062 0.0
C966 C 0.7469 0.61993 0.21593 0.0
C967 C 0.75124 0.62147 0.27326 0.0
C968 C 0.74837 0.60803 0.11968 0.0
C969 C 0.73388 0.60668 0.10794 0.0
C970 C 0.75814 0.60785 0.07336 0.0
C971 C 0.77345 0.61031 0.0821 0.0
C972 C 0.77824 0.62261 0.10982 0.0
C973 C 0.79269 0.62488 0.11777 0.0
C974 C 0.80244 0.61497 0.09777 0.0
C975 C 0.79778 0.60278 0.06967 0.0
C976 C 0.78335 0.60045 0.06167 0.0
C977 C 0.7247 0.61787 0.86193 0.0
C978 C 0.73096 0.60822 0.82359 0.0
C979 C 0.72639 0.61628 0.92165 0.0
C980 C 0.73431 0.60498 0.94371 0.0
C981 C 0.73963 0.59475 0.90575 0.0
C982 C 0.7379 0.5963 0.84616 0.0
C983 C 0.73871 0.60494 0.005 0.0
C984 C 0.75318 0.60607 0.01676 0.0
C985 C 0.72891 0.60518 0.05105 0.0
C986 C 0.71352 0.60377 0.04097 0.0
C987 C 0.70813 0.59237 0.00886 0.0
C988 C 0.69362 0.59115 -0.00073 0.0
C989 C 0.68438 0.60122 0.02183 0.0
C990 C 0.68962 0.61252 0.05416 0.0
C991 C 0.70412 0.6138 0.06386 0.0
H992 H 0.67315 0.60026 0.01436 0.0
H993 H 0.81362 0.61674 0.10392 0.0
H994 H 0.39857 0.78151 0.25065 0.0
H995 H 0.40116 0.7744 0.14921 0.0
H996 H 0.37149 0.7405 0.17659 0.0
H997 H 0.36904 0.74748 0.278 0.0
H998 H 0.39335 0.73105 0.11904 0.0
H999 H 0.36255 0.77074 0.10246 0.0
H1000 H 0.35428 0.79522 0.11475 0.0
H1001 H 0.39037 0.81047 0.02144 0.0
H1002 H 0.39898 0.78608 0.00934 0.0
H1003 H 0.37407 0.71964 0.82093 0.0
H1004 H 0.37555 0.72399 0.92521 0.0
H1005 H 0.41076 0.75198 0.89753 0.0
H1006 H 0.40951 0.74759 0.79347 0.0
H1007 H 0.38727 0.76423 0.95475 0.0
H1008 H 0.41687 0.72325 0.96757 0.0
H1009 H 0.42327 0.69834 0.95184 0.0
H1010 H 0.38704 0.68512 0.04939 0.0
H1011 H 0.38031 0.70996 0.06502 0.0
C1012 C 0.39255 0.77261 0.23474 0.0
C1013 C 0.38379 0.7649 0.27212 0.0
C1014 C 0.39401 0.76856 0.17688 0.0
C1015 C 0.38649 0.75693 0.15528 0.0
C1016 C 0.3775 0.74942 0.19245 0.0
C1017 C 0.37613 0.75339 0.25035 0.0
C1018 C 0.38819 0.75238 0.09427 0.0
C1019 C 0.39187 0.73828 0.0831 0.0
C1020 C 0.3865 0.76187 0.04742 0.0
C1021 C 0.3815 0.77658 0.05563 0.0
C1022 C 0.36881 0.77932 0.08514 0.0
C1023 C 0.36404 0.79318 0.09194 0.0
C1024 C 0.37182 0.80439 0.06904 0.0
C1025 C 0.38438 0.80177 0.03926 0.0
C1026 C 0.38921 0.78793 0.03242 0.0
C1027 C 0.38236 0.72643 0.83716 0.0
C1028 C 0.39156 0.7334 0.7989 0.0
C1029 C 0.3832 0.72889 0.89672 0.0
C1030 C 0.3932 0.73837 0.91876 0.0
C1031 C 0.40295 0.74465 0.88112 0.0
C1032 C 0.40223 0.74209 0.82171 0.0
C1033 C 0.39243 0.74296 0.97978 0.0
C1034 C 0.38887 0.75707 0.99086 0.0
C1035 C 0.39399 0.73343 0.02635 0.0
C1036 C 0.39801 0.71848 0.01699 0.0
C1037 C 0.41019 0.71503 0.98521 0.0
C1038 C 0.4139 0.70092 0.97642 0.0
C1039 C 0.40555 0.69015 -0.00052 0.0
C1040 C 0.39349 0.69347 0.0315 0.0
C1041 C 0.38973 0.70757 0.04039 0.0
H1042 H 0.40844 0.67923 0.99264 0.0
H1043 H 0.36809 0.81511 0.07423 0.0
H1044 H 0.23034 0.3749 0.23135 0.0
H1045 H 0.24038 0.37763 0.13426 0.0
H1046 H 0.26163 0.41564 0.18874 0.0
H1047 H 0.25123 0.41312 0.28562 0.0
H1048 H 0.24957 0.41852 0.08216 0.0
H1049 H 0.28072 0.38655 0.17391 0.0
H1050 H 0.28765 0.36597 0.23265 0.0
H1051 H 0.26876 0.33819 0.10795 0.0
H1052 H 0.26149 0.35862 0.0489 0.0
H1053 H 0.27949 0.41289 0.79458 0.0
H1054 H 0.28039 0.4144 0.90106 0.0
H1055 H 0.25195 0.37899 0.91337 0.0
H1056 H 0.25087 0.37755 0.80824 0.0
H1057 H 0.2746 0.37797 0.99306 0.0
H1058 H 0.23885 0.41081 0.91741 0.0
H1059 H 0.23175 0.43139 0.85883 0.0
H1060 H 0.2603 0.45769 0.95466 0.0
H1061 H 0.26772 0.43718 0.01325 0.0
C1062 C 0.23712 0.38384 0.22239 0.0
C1063 C 0.24038 0.39358 0.26597 0.0
C1064 C 0.24292 0.38535 0.16726 0.0
C1065 C 0.25203 0.39665 0.1549 0.0
C1066 C 0.25482 0.40674 0.19779 0.0
C1067 C 0.24902 0.40521 0.25307 0.0
C1068 C 0.25841 0.39786 0.09669 0.0
C1069 C 0.25537 0.40982 0.06309 0.0
C1070 C 0.26603 0.38653 0.07203 0.0
C1071 C 0.27051 0.37415 0.10705 0.0
C1072 C 0.27796 0.37606 0.15915 0.0
C1073 C 0.28196 0.36442 0.19251 0.0
C1074 C 0.27864 0.35078 0.17406 0.0
C1075 C 0.27134 0.34876 0.12216 0.0
C1076 C 0.26729 0.36037 0.08868 0.0
C1077 C 0.27362 0.40534 0.82027 0.0
C1078 C 0.26502 0.39519 0.79346 0.0
C1079 C 0.27413 0.40621 0.8808 0.0
C1080 C 0.26622 0.3968 0.91475 0.0
C1081 C 0.25817 0.3863 0.88783 0.0
C1082 C 0.25749 0.38556 0.82781 0.0
C1083 C 0.26519 0.39831 0.97817 0.0
C1084 C 0.26924 0.38686 0.01282 0.0
C1085 C 0.25857 0.41013 0.00382 0.0
C1086 C 0.25397 0.42245 0.96914 0.0
C1087 C 0.24369 0.42096 0.92567 0.0
C1088 C 0.23959 0.43261 0.89252 0.0
C1089 C 0.2456 0.44583 0.90288 0.0
C1090 C 0.25568 0.44744 0.94658 0.0
C1091 C 0.25983 0.43581 0.97976 0.0
H1092 H 0.24243 0.45484 0.87716 0.0
H1093 H 0.28174 0.34178 0.19996 0.0
H1094 H 0.60227 0.2536 0.28632 0.0
H1095 H 0.59998 0.26043 0.18529 0.0
H1096 H 0.61821 0.22065 0.1331 0.0
H1097 H 0.62186 0.21443 0.23497 0.0
H1098 H 0.62905 0.23933 0.07121 0.0
H1099 H 0.58149 0.22923 0.12049 0.0
H1100 H 0.55943 0.23026 0.17693 0.0
H1101 H 0.55611 0.27468 0.14325 0.0
H1102 H 0.57826 0.27396 0.0872 0.0
H1103 H 0.5898 0.25308 0.78722 0.0
H1104 H 0.588 0.24815 0.89056 0.0
H1105 H 0.62468 0.27393 0.92243 0.0
H1106 H 0.62684 0.27858 0.81869 0.0
H1107 H 0.58539 0.26074 0.99151 0.0
H1108 H 0.64635 0.25696 0.01392 0.0
H1109 H 0.66703 0.25216 0.95199 0.0
H1110 H 0.64098 0.22864 0.83449 0.0
H1111 H 0.62022 0.23311 0.89609 0.0
C1112 C 0.60623 0.24651 0.25341 0.0
C1113 C 0.61291 0.23379 0.26847 0.0
C1114 C 0.60454 0.25025 0.19547 0.0
C1115 C 0.60882 0.24103 0.1513 0.0
C1116 C 0.61492 0.22801 0.16634 0.0
C1117 C 0.61696 0.22443 0.22446 0.0
C1118 C 0.60754 0.24527 0.08961 0.0
C1119 C 0.61946 0.24396 0.05396 0.0
C1120 C 0.59496 0.25107 0.0664 0.0
C1121 C 0.5816 0.25155 0.09996 0.0
C1122 C 0.57611 0.23924 0.12543 0.0
C1123 C 0.56358 0.23976 0.1573 0.0
C1124 C 0.55638 0.25253 0.1637 0.0
C1125 C 0.5617 0.2648 0.13823 0.0
C1126 C 0.57423 0.26434 0.10633 0.0
C1127 C 0.59732 0.25796 0.81626 0.0
C1128 C 0.60867 0.26596 0.79467 0.0
C1129 C 0.59624 0.25516 0.87542 0.0
C1130 C 0.60642 0.26037 0.91388 0.0
C1131 C 0.61691 0.26953 0.89316 0.0
C1132 C 0.6181 0.27223 0.83391 0.0
C1133 C 0.60695 0.25503 0.97411 0.0
C1134 C 0.59493 0.25611 0.0092 0.0
C1135 C 0.61922 0.24843 0.9962 0.0
C1136 C 0.63172 0.24552 0.95932 0.0
C1137 C 0.64506 0.25072 0.97498 0.0
C1138 C 0.65679 0.24806 0.93992 0.0
C1139 C 0.65531 0.24013 0.88923 0.0
C1140 C 0.64211 0.23481 0.87363 0.0
C1141 C 0.63036 0.23741 0.90858 0.0
H1142 H 0.6644 0.2381 0.86211 0.0
H1143 H 0.54666 0.2529 0.18822 0.0
H1144 H 0.71678 0.39717 0.20668 0.0
H1145 H 0.7148 0.39554 0.10061 0.0
H1146 H 0.75982 0.38989 0.08797 0.0
H1147 H 0.76198 0.39174 0.19255 0.0
H1148 H 0.73122 0.41169 0.00604 0.0
H1149 H 0.76223 0.35866 0.00617 0.0
H1150 H 0.76478 0.33765 0.06828 0.0
H1151 H 0.72385 0.34519 0.1415 0.0
H1152 H 0.72084 0.36597 0.07853 0.0
H1153 H 0.77394 0.40021 0.76465 0.0
H1154 H 0.76325 0.40249 0.86064 0.0
H1155 H 0.73349 0.36961 0.81848 0.0
H1156 H 0.7443 0.36718 0.72251 0.0
H1157 H 0.74577 0.36559 0.92319 0.0
H1158 H 0.72131 0.40211 0.82799 0.0
H1159 H 0.71809 0.42286 0.76501 0.0
H1160 H 0.74361 0.44776 0.87958 0.0
H1161 H 0.74718 0.4271 0.9429 0.0
C1162 C 0.72626 0.3958 0.18112 0.0
C1163 C 0.73951 0.3945 0.208 0.0
C1164 C 0.7251 0.39489 0.12076 0.0
C1165 C 0.73715 0.39244 0.08706 0.0
C1166 C 0.7504 0.39168 0.11359 0.0
C1167 C 0.7516 0.39277 0.17341 0.0
C1168 C 0.73622 0.38999 0.02422 0.0
C1169 C 0.73418 0.40159 0.98756 0.0
C1170 C 0.73974 0.37669 0.00065 0.0
C1171 C 0.74137 0.36399 0.03789 0.0
C1172 C 0.75372 0.35578 0.03514 0.0
C1173 C 0.75524 0.34389 0.07048 0.0
C1174 C 0.74452 0.34013 0.10902 0.0
C1175 C 0.73218 0.34816 0.11186 0.0
C1176 C 0.73056 0.35999 0.0763 0.0
C1177 C 0.76511 0.3935 0.77593 0.0
C1178 C 0.7598 0.38366 0.73616 0.0
C1179 C 0.75892 0.3949 0.83039 0.0
C1180 C 0.7474 0.38641 0.84605 0.0
C1181 C 0.74224 0.37639 0.80676 0.0
C1182 C 0.74838 0.37506 0.75205 0.0
C1183 C 0.74149 0.38747 0.90506 0.0
C1184 C 0.74236 0.3756 0.94113 0.0
C1185 C 0.73669 0.40047 0.92783 0.0
C1186 C 0.73455 0.41301 0.89017 0.0
C1187 C 0.72632 0.41198 0.83962 0.0
C1188 C 0.72442 0.42374 0.80387 0.0
C1189 C 0.73063 0.43662 0.81831 0.0
C1190 C 0.73878 0.43778 0.86853 0.0
C1191 C 0.74072 0.42605 0.90444 0.0
H1192 H 0.72911 0.44572 0.79064 0.0
H1193 H 0.74576 0.33097 0.13657 0.0
H1194 H 0.61921 0.75429 0.16894 0.0
H1195 H 0.61564 0.75653 0.06529 0.0
H1196 H 0.5882 0.72024 0.06681 0.0
H1197 H 0.59187 0.71778 0.17214 0.0
H1198 H 0.60795 0.72221 0.96873 0.0
H1199 H 0.57226 0.74944 0.06182 0.0
H1200 H 0.56302 0.76588 0.13535 0.0
H1201 H 0.58976 0.79874 0.06955 0.0
H1202 H 0.59935 0.78244 0.99623 0.0
H1203 H 0.59157 0.74754 0.68226 0.0
H1204 H 0.5874 0.73926 0.78141 0.0
H1205 H 0.61427 0.77236 0.84677 0.0
H1206 H 0.6188 0.7804 0.74755 0.0
H1207 H 0.58897 0.76884 0.90901 0.0
H1208 H 0.62763 0.74087 0.83178 0.0
H1209 H 0.6384 0.72476 0.76049 0.0
H1210 H 0.60676 0.69361 0.79735 0.0
H1211 H 0.59568 0.70964 0.8683 0.0
C1212 C 0.61247 0.74669 0.14741 0.0
C1213 C 0.60562 0.73598 0.17867 0.0
C1214 C 0.61047 0.74799 0.08816 0.0
C1215 C 0.60144 0.73873 0.05891 0.0
C1216 C 0.59513 0.72752 0.08906 0.0
C1217 C 0.59723 0.72614 0.14893 0.0
C1218 C 0.59831 0.74155 0.99744 0.0
C1219 C 0.60341 0.7322 0.95538 0.0
C1220 C 0.59256 0.7547 0.9805 0.0
C1221 C 0.58654 0.76469 0.02352 0.0
C1222 C 0.57621 0.76016 0.06314 0.0
C1223 C 0.57092 0.76945 0.10482 0.0
C1224 C 0.5758 0.78335 0.10712 0.0
C1225 C 0.58597 0.78798 0.06766 0.0
C1226 C 0.59132 0.77872 0.02595 0.0
C1227 C 0.59676 0.75288 0.71784 0.0
C1228 C 0.60594 0.76424 0.70755 0.0
C1229 C 0.59424 0.74825 0.77426 0.0
C1230 C 0.60069 0.7551 0.82103 0.0
C1231 C 0.60926 0.76692 0.81099 0.0
C1232 C 0.61186 0.77148 0.75455 0.0
C1233 C 0.59903 0.74971 0.88053 0.0
C1234 C 0.59304 0.75863 0.92213 0.0
C1235 C 0.60398 0.7362 0.89692 0.0
C1236 C 0.61073 0.72651 0.85478 0.0
C1237 C 0.6229 0.73063 0.82432 0.0
C1238 C 0.62908 0.72151 0.78404 0.0
C1239 C 0.62324 0.70819 0.77425 0.0
C1240 C 0.61125 0.70394 0.80488 0.0
C1241 C 0.60502 0.71304 0.84514 0.0
H1242 H 0.62804 0.70114 0.74305 0.0
H1243 H 0.57171 0.79052 0.13947 0.0
H1244 H 0.28074 0.59776 0.21583 0.0
H1245 H 0.28067 0.59499 0.11022 0.0
H1246 H 0.2352 0.59734 0.10985 0.0
H1247 H 0.23515 0.59957 0.21446 0.0
H1248 H 0.24315 0.57958 0.03067 0.0
H1249 H 0.25695 0.62714 0.09007 0.0
H1250 H 0.2723 0.64435 0.13967 0.0
H1251 H 0.30782 0.62991 0.04062 0.0
H1252 H 0.29268 0.61252 0.99087 0.0
H1253 H 0.22674 0.6293 0.79519 0.0
H1254 H 0.23486 0.62222 0.89175 0.0
H1255 H 0.26008 0.58919 0.81592 0.0
H1256 H 0.2515 0.59574 0.71963 0.0
H1257 H 0.26711 0.61846 0.9255 0.0
H1258 H 0.25075 0.56859 0.8716 0.0
H1259 H 0.23287 0.55386 0.82264 0.0
H1260 H 0.19987 0.57581 0.91275 0.0
H1261 H 0.21759 0.59077 0.96163 0.0
C1262 C 0.27074 0.59742 0.19321 0.0
C1263 C 0.25797 0.59911 0.22337 0.0
C1264 C 0.27072 0.59587 0.13293 0.0
C1265 C 0.25794 0.5962 0.10208 0.0
C1266 C 0.24519 0.59704 0.13264 0.0
C1267 C 0.24519 0.59843 0.1926 0.0
C1268 C 0.25761 0.59707 0.03806 0.0
C1269 C 0.24863 0.58791 0.00762 0.0
C1270 C 0.26469 0.60797 0.0077 0.0
C1271 C 0.27375 0.61844 0.03736 0.0
C1272 C 0.26805 0.62759 0.07917 0.0
C1273 C 0.27671 0.63738 0.10725 0.0
C1274 C 0.29104 0.63819 0.09344 0.0
C1275 C 0.29673 0.62925 0.05137 0.0
C1276 C 0.28812 0.61943 0.02322 0.0
C1277 C 0.23402 0.62054 0.79918 0.0
C1278 C 0.23881 0.61334 0.7499 0.0
C1279 C 0.23867 0.61655 0.85412 0.0
C1280 C 0.24808 0.60525 0.86052 0.0
C1281 C 0.25283 0.59796 0.81157 0.0
C1282 C 0.24809 0.60187 0.75661 0.0
C1283 C 0.25263 0.60106 0.919 0.0
C1284 C 0.26222 0.60972 0.9483 0.0
C1285 C 0.24602 0.58985 0.94849 0.0
C1286 C 0.23543 0.58082 0.9197 0.0
C1287 C 0.23967 0.57031 0.88059 0.0
C1288 C 0.22958 0.56192 0.85293 0.0
C1289 C 0.21524 0.56392 0.86447 0.0
C1290 C 0.21097 0.57429 0.90378 0.0
C1291 C 0.22103 0.58272 0.93144 0.0
H1292 H 0.20745 0.55742 0.84304 0.0
H1293 H 0.29772 0.64577 0.11523 0.0
H1294 H 0.40369 0.24658 0.1714 0.0
H1295 H 0.40617 0.24667 0.06687 0.0
H1296 H 0.39292 0.29022 0.06119 0.0
H1297 H 0.38997 0.29009 0.16669 0.0
H1298 H 0.37852 0.27574 0.98697 0.0
H1299 H 0.42711 0.28049 0.02319 0.0
H1300 H 0.45009 0.27602 0.06966 0.0
H1301 H 0.44984 0.23353 0.00541 0.0
H1302 H 0.42676 0.23765 0.95925 0.0
H1303 H 0.40882 0.25457 0.68189 0.0
H1304 H 0.41241 0.2647 0.77794 0.0
H1305 H 0.37554 0.24271 0.84012 0.0
H1306 H 0.3715 0.23312 0.74323 0.0
H1307 H 0.41776 0.25339 0.87839 0.0
H1308 H 0.3585 0.26163 0.93956 0.0
H1309 H 0.33627 0.26812 0.89096 0.0
H1310 H 0.35951 0.28901 0.75629 0.0
H1311 H 0.38188 0.28284 0.80452 0.0
C1312 C 0.40148 0.25627 0.14822 0.0
C1313 C 0.39649 0.2683 0.17732 0.0
C1314 C 0.40305 0.25634 0.0883 0.0
C1315 C 0.39989 0.26849 0.05614 0.0
C1316 C 0.39546 0.28073 0.08523 0.0
C1317 C 0.3938 0.28065 0.14546 0.0
C1318 C 0.39976 0.26772 0.99204 0.0
C1319 C 0.38717 0.27104 0.96308 0.0
C1320 C 0.41119 0.26194 0.96051 0.0
C1321 C 0.42515 0.25939 0.98785 0.0
C1322 C 0.43191 0.27017 0.01922 0.0
C1323 C 0.44496 0.2677 0.04549 0.0
C1324 C 0.45141 0.2545 0.04052 0.0
C1325 C 0.44483 0.24375 0.00917 0.0
C1326 C 0.43177 0.24616 0.98283 0.0
C1327 C 0.40125 0.25221 0.71552 0.0
C1328 C 0.38958 0.24346 0.70459 0.0
C1329 C 0.40344 0.25785 0.77065 0.0
C1330 C 0.39405 0.25474 0.81582 0.0
C1331 C 0.3827 0.24556 0.80548 0.0
C1332 C 0.38048 0.23998 0.75031 0.0
C1333 C 0.39627 0.26072 0.87436 0.0
C1334 C 0.40924 0.25839 0.90207 0.0
C1335 C 0.38533 0.26775 0.90439 0.0
C1336 C 0.37189 0.27169 0.87554 0.0
C1337 C 0.35888 0.26768 0.89978 0.0
C1338 C 0.34625 0.27129 0.87224 0.0
C1339 C 0.34648 0.27895 0.82051 0.0
C1340 C 0.35935 0.28305 0.79628 0.0
C1341 C 0.37201 0.27948 0.82368 0.0
H1342 H 0.33669 0.28172 0.79924 0.0
H1343 H 0.46152 0.25261 0.06092 0.0
H1344 H 0.29778 0.14067 0.05903 0.0
H1345 H 0.31591 0.15536 0.10464 0.0
H1346 H 0.29756 0.14724 0.27238 0.0
H1347 H 0.27941 0.13277 0.22753 0.0
H1348 H 0.30223 0.17463 0.25774 0.0
H1349 H 0.32851 0.13191 0.23236 0.0
H1350 H 0.33842 0.11178 0.17837 0.0
H1351 H 0.36168 0.14024 0.06959 0.0
H1352 H 0.35174 0.16056 0.12244 0.0
H1353 H 0.35597 0.20497 0.42975 0.0
H1354 H 0.34099 0.18672 0.38676 0.0
H1355 H 0.3567 0.19737 0.21697 0.0
H1356 H 0.37167 0.2156 0.25931 0.0
H1357 H 0.35385 0.16826 0.23377 0.0
H1358 H 0.32669 0.21085 0.25705 0.0
H1359 H 0.31683 0.23093 0.31154 0.0
H1360 H 0.29515 0.20231 0.42503 0.0
H1361 H 0.30506 0.18204 0.37168 0.0
C1362 C 0.29767 0.14194 0.10565 0.0
C1363 C 0.2871 0.13559 0.13953 0.0
C1364 C 0.30807 0.15029 0.13167 0.0
C1365 C 0.30811 0.15234 0.19196 0.0
C1366 C 0.29771 0.14583 0.2258 0.0
C1367 C 0.28734 0.13753 0.19996 0.0
C1368 C 0.31856 0.16178 0.21987 0.0
C1369 C 0.31351 0.17309 0.25317 0.0
C1370 C 0.33328 0.15996 0.21288 0.0
C1371 C 0.33926 0.14776 0.18097 0.0
C1372 C 0.33564 0.13389 0.19659 0.0
C1373 C 0.34128 0.12244 0.16626 0.0
C1374 C 0.35064 0.12473 0.12047 0.0
C1375 C 0.35441 0.13848 0.10501 0.0
C1376 C 0.34878 0.14996 0.13517 0.0
C1377 C 0.35638 0.20331 0.38337 0.0
C1378 C 0.3649 0.21184 0.34789 0.0
C1379 C 0.3478 0.1929 0.35889 0.0
C1380 C 0.34766 0.19082 0.29867 0.0
C1381 C 0.35666 0.19883 0.26352 0.0
C1382 C 0.36514 0.2093 0.28783 0.0
C1383 C 0.33747 0.18098 0.27179 0.0
C1384 C 0.34255 0.16968 0.23852 0.0
C1385 C 0.32276 0.18277 0.27882 0.0
C1386 C 0.31674 0.19493 0.31079 0.0
C1387 C 0.31992 0.20884 0.29394 0.0
C1388 C 0.3143 0.22025 0.32456 0.0
C1389 C 0.30541 0.2179 0.37183 0.0
C1390 C 0.30207 0.20412 0.38847 0.0
C1391 C 0.30768 0.19266 0.35805 0.0
H1392 H 0.30107 0.22675 0.39547 0.0
H1393 H 0.355 0.11585 0.09706 0.0
H1394 H 0.80014 0.37926 0.31461 0.0
H1395 H 0.81837 0.36465 0.26976 0.0
H1396 H 0.81353 0.33382 0.40605 0.0
H1397 H 0.79592 0.3489 0.45295 0.0
H1398 H 0.83986 0.33426 0.3722 0.0
H1399 H 0.79482 0.33196 0.27289 0.0
H1400 H 0.7744 0.3429 0.22396 0.0
H1401 H 0.80181 0.36006 0.09371 0.0
H1402 H 0.8224 0.34935 0.1422 0.0
H1403 H 0.85992 0.27224 0.22687 0.0
H1404 H 0.84727 0.2909 0.27722 0.0
H1405 H 0.85438 0.31899 0.13295 0.0
H1406 H 0.86664 0.30005 0.081 0.0
H1407 H 0.82848 0.32144 0.16906 0.0
H1408 H 0.8735 0.32131 0.2655 0.0
H1409 H 0.89353 0.31031 0.31668 0.0
H1410 H 0.86585 0.29699 0.45335 0.0
H1411 H 0.84563 0.30781 0.40281 0.0
C1412 C 0.80323 0.36951 0.33559 0.0
C1413 C 0.79657 0.36508 0.38677 0.0
C1414 C 0.81357 0.36113 0.30982 0.0
C1415 C 0.81697 0.34791 0.33347 0.0
C1416 C 0.811 0.34392 0.38674 0.0
C1417 C 0.80094 0.35252 0.4135 0.0
C1418 C 0.82577 0.33776 0.30042 0.0
C1419 C 0.83733 0.33138 0.32792 0.0
C1420 C 0.82261 0.33416 0.24224 0.0
C1421 C 0.81015 0.33998 0.21148 0.0
C1422 C 0.79648 0.33807 0.23381 0.0
C1423 C 0.78489 0.34424 0.20622 0.0
C1424 C 0.78683 0.35224 0.156 0.0
C1425 C 0.80033 0.35391 0.13275 0.0
C1426 C 0.81196 0.34777 0.1602 0.0
C1427 C 0.85884 0.2824 0.2058 0.0
C1428 C 0.86435 0.28471 0.15004 0.0
C1429 C 0.85168 0.2931 0.2349 0.0
C1430 C 0.85017 0.30648 0.20957 0.0
C1431 C 0.85551 0.30878 0.15354 0.0
C1432 C 0.8625 0.29797 0.12389 0.0
C1433 C 0.84256 0.31784 0.24086 0.0
C1434 C 0.83116 0.32442 0.21309 0.0
C1435 C 0.84581 0.32151 0.2989 0.0
C1436 C 0.85803 0.3153 0.33013 0.0
C1437 C 0.87168 0.316 0.30638 0.0
C1438 C 0.88306 0.30981 0.33532 0.0
C1439 C 0.88096 0.30294 0.3882 0.0
C1440 C 0.86747 0.30233 0.41244 0.0
C1441 C 0.85605 0.30852 0.38373 0.0
H1442 H 0.88978 0.2981 0.41036 0.0
H1443 H 0.77788 0.35718 0.13515 0.0
H1444 H 0.64867 0.7947 0.43125 0.0
H1445 H 0.66337 0.81289 0.38591 0.0
H1446 H 0.63787 0.81064 0.2312 0.0
H1447 H 0.62365 0.79211 0.2753 0.0
H1448 H 0.66374 0.80842 0.20279 0.0
H1449 H 0.63835 0.84011 0.32631 0.0
H1450 H 0.62884 0.84929 0.41829 0.0
H1451 H 0.67085 0.85376 0.48521 0.0
H1452 H 0.68062 0.84442 0.39395 0.0
H1453 H 0.70193 0.86287 0.05898 0.0
H1454 H 0.68261 0.84988 0.10519 0.0
H1455 H 0.70639 0.84796 0.26441 0.0
H1456 H 0.72545 0.86112 0.21944 0.0
H1457 H 0.67976 0.85376 0.28709 0.0
H1458 H 0.7047 0.81976 0.16836 0.0
H1459 H 0.71439 0.81042 0.07693 0.0
H1460 H 0.67295 0.81035 0.00187 0.0
H1461 H 0.66304 0.81985 0.09269 0.0
C1462 C 0.64609 0.7983 0.38798 0.0
C1463 C 0.63514 0.79193 0.35652 0.0
C1464 C 0.65444 0.80873 0.36215 0.0
C1465 C 0.65171 0.81319 0.30508 0.0
C1466 C 0.64026 0.80733 0.27505 0.0
C1467 C 0.63213 0.79675 0.30031 0.0
C1468 C 0.66151 0.82287 0.27441 0.0
C1469 C 0.667 0.81848 0.22083 0.0
C1470 C 0.66607 0.83583 0.29842 0.0
C1471 C 0.66021 0.84144 0.35341 0.0
C1472 C 0.64556 0.84294 0.3608 0.0
C1473 C 0.64012 0.84819 0.4128 0.0
C1474 C 0.64923 0.85207 0.45762 0.0
C1475 C 0.66381 0.85074 0.45049 0.0
C1476 C 0.6693 0.84548 0.39861 0.0
C1477 C 0.70303 0.85966 0.10379 0.0
C1478 C 0.71529 0.86294 0.13528 0.0
C1479 C 0.69199 0.85225 0.13014 0.0
C1480 C 0.69313 0.84783 0.18811 0.0
C1481 C 0.70526 0.85127 0.21971 0.0
C1482 C 0.71621 0.85874 0.19367 0.0
C1483 C 0.68195 0.83924 0.21591 0.0
C1484 C 0.67628 0.8438 0.26892 0.0
C1485 C 0.6772 0.82642 0.19152 0.0
C1486 C 0.68316 0.82066 0.13704 0.0
C1487 C 0.69767 0.81784 0.13221 0.0
C1488 C 0.7032 0.81251 0.08053 0.0
C1489 C 0.6943 0.80983 0.03356 0.0
C1490 C 0.67984 0.81245 0.03824 0.0
C1491 C 0.67426 0.8178 0.0898 0.0
H1492 H 0.6986 0.8057 0.99359 0.0
H1493 H 0.645 0.85614 0.49783 0.0
H1494 H 0.20108 0.62282 0.32576 0.0
H1495 H 0.18379 0.63808 0.2785 0.0
H1496 H 0.18998 0.66952 0.41141 0.0
H1497 H 0.20664 0.65382 0.46077 0.0
H1498 H 0.16411 0.67044 0.37951 0.0
H1499 H 0.20791 0.67017 0.27654 0.0
H1500 H 0.22821 0.65951 0.22607 0.0
H1501 H 0.20043 0.64198 0.09808 0.0
H1502 H 0.17993 0.65239 0.14825 0.0
H1503 H 0.14236 0.72957 0.21422 0.0
H1504 H 0.15577 0.71234 0.26983 0.0
H1505 H 0.14712 0.68068 0.14029 0.0
H1506 H 0.13414 0.69814 0.08289 0.0
H1507 H 0.17357 0.67961 0.17149 0.0
H1508 H 0.12948 0.6829 0.27861 0.0
H1509 H 0.11088 0.69583 0.33128 0.0
H1510 H 0.14146 0.71057 0.45431 0.0
H1511 H 0.16025 0.69788 0.40209 0.0
C1512 C 0.19852 0.63288 0.3454 0.0
C1513 C 0.20525 0.63724 0.39651 0.0
C1514 C 0.18873 0.64164 0.31819 0.0
C1515 C 0.18592 0.65516 0.3403 0.0
C1516 C 0.19204 0.65919 0.39324 0.0
C1517 C 0.20155 0.65023 0.42142 0.0
C1518 C 0.17731 0.66536 0.3065 0.0
C1519 C 0.16624 0.67252 0.33414 0.0
C1520 C 0.18005 0.66808 0.24716 0.0
C1521 C 0.19237 0.66194 0.21648 0.0
C1522 C 0.20612 0.66398 0.23781 0.0
C1523 C 0.21766 0.65798 0.20925 0.0
C1524 C 0.21561 0.65004 0.159 0.0
C1525 C 0.202 0.64812 0.13707 0.0
C1526 C 0.19042 0.65407 0.16552 0.0
C1527 C 0.14328 0.71892 0.19754 0.0
C1528 C 0.13714 0.71517 0.14426 0.0
C1529 C 0.15087 0.70905 0.22968 0.0
C1530 C 0.15216 0.6951 0.21006 0.0
C1531 C 0.14616 0.69136 0.15653 0.0
C1532 C 0.13877 0.70133 0.12373 0.0
C1533 C 0.16024 0.68458 0.24423 0.0
C1534 C 0.17131 0.67741 0.21668 0.0
C1535 C 0.15771 0.68216 0.30397 0.0
C1536 C 0.14629 0.6895 0.33614 0.0
C1537 C 0.13224 0.68894 0.31677 0.0
C1538 C 0.12166 0.69623 0.34658 0.0
C1539 C 0.12499 0.70405 0.39606 0.0
C1540 C 0.13889 0.70453 0.41602 0.0
C1541 C 0.1495 0.69727 0.38637 0.0
H1542 H 0.1168 0.70972 0.41898 0.0
H1543 H 0.22455 0.64539 0.13698 0.0
H1544 H 0.36833 0.77533 0.73013 0.0
H1545 H 0.3543 0.79309 0.78045 0.0
H1546 H 0.34813 0.8154 0.61951 0.0
H1547 H 0.36196 0.79754 0.56847 0.0
H1548 H 0.35662 0.82109 0.79638 0.0
H1549 H 0.31481 0.82825 0.61544 0.0
H1550 H 0.30412 0.81447 0.53612 0.0
H1551 H 0.31329 0.77598 0.62671 0.0
H1552 H 0.32385 0.78953 0.7069 0.0
H1553 H 0.29219 0.87301 0.78221 0.0
H1554 H 0.31003 0.85772 0.73958 0.0
H1555 H 0.31588 0.83706 0.90446 0.0
H1556 H 0.29819 0.85262 0.94796 0.0
H1557 H 0.30785 0.8302 0.72818 0.0
H1558 H 0.34926 0.82209 0.90832 0.0
H1559 H 0.35973 0.83501 0.99044 0.0
H1560 H 0.35078 0.87442 0.90631 0.0
H1561 H 0.34045 0.86174 0.8233 0.0
C1562 C 0.36404 0.78403 0.70534 0.0
C1563 C 0.36615 0.78493 0.64507 0.0
C1564 C 0.35608 0.79421 0.73431 0.0
C1565 C 0.35004 0.80546 0.70363 0.0
C1566 C 0.35252 0.80667 0.64386 0.0
C1567 C 0.36045 0.79647 0.61476 0.0
C1568 C 0.3407 0.81562 0.73375 0.0
C1569 C 0.3459 0.82301 0.7819 0.0
C1570 C 0.32677 0.81816 0.71452 0.0
C1571 C 0.32027 0.80991 0.66684 0.0
C1572 C 0.3145 0.81685 0.6185 0.0
C1573 C 0.30847 0.80908 0.57339 0.0
C1574 C 0.30807 0.79436 0.57628 0.0
C1575 C 0.31366 0.78738 0.62441 0.0
C1576 C 0.31968 0.7951 0.66967 0.0
C1577 C 0.2974 0.86536 0.80972 0.0
C1578 C 0.2937 0.86397 0.86842 0.0
C1579 C 0.3076 0.85661 0.78523 0.0
C1580 C 0.31429 0.84624 0.81873 0.0
C1581 C 0.31099 0.84512 0.8779 0.0
C1582 C 0.30085 0.85399 0.90268 0.0
C1583 C 0.32383 0.83595 0.79028 0.0
C1584 C 0.3186 0.8284 0.74257 0.0
C1585 C 0.33766 0.83318 0.81043 0.0
C1586 C 0.34393 0.84095 0.85989 0.0
C1587 C 0.34956 0.83352 0.90727 0.0
C1588 C 0.35547 0.8408 0.95398 0.0
C1589 C 0.35587 0.85553 0.95369 0.0
C1590 C 0.35041 0.86301 0.90659 0.0
C1591 C 0.3445 0.85578 0.85973 0.0
H1592 H 0.36045 0.86116 0.98991 0.0
H1593 H 0.30341 0.78836 0.54129 0.0
H1594 H 0.13029 0.27696 0.73983 0.0
H1595 H 0.14365 0.29463 0.68633 0.0
H1596 H 0.15294 0.31643 0.84583 0.0
H1597 H 0.13937 0.29885 0.89999 0.0
H1598 H 0.14625 0.33476 0.75971 0.0
H1599 H 0.17676 0.29465 0.78423 0.0
H1600 H 0.18397 0.26973 0.77686 0.0
H1601 H 0.18059 0.27178 0.59156 0.0
H1602 H 0.17302 0.29662 0.59792 0.0
H1603 H 0.20927 0.37114 0.69925 0.0
H1604 H 0.19026 0.35603 0.73341 0.0
H1605 H 0.18403 0.34033 0.55994 0.0
H1606 H 0.20319 0.35557 0.52502 0.0
H1607 H 0.18711 0.31919 0.64161 0.0
H1608 H 0.15914 0.36041 0.61771 0.0
H1609 H 0.15293 0.38556 0.62671 0.0
H1610 H 0.15246 0.38175 0.81203 0.0
H1611 H 0.15888 0.35661 0.80422 0.0
C1612 C 0.1351 0.28554 0.76372 0.0
C1613 C 0.13383 0.28643 0.8244 0.0
C1614 C 0.14277 0.29562 0.73295 0.0
C1615 C 0.14942 0.30675 0.76216 0.0
C1616 C 0.14788 0.3079 0.82248 0.0
C1617 C 0.14018 0.29782 0.85338 0.0
C1618 C 0.15834 0.31694 0.73008 0.0
C1619 C 0.15524 0.33138 0.73421 0.0
C1620 C 0.16983 0.31247 0.69541 0.0
C1621 C 0.17415 0.29745 0.6916 0.0
C1622 C 0.17738 0.28974 0.74195 0.0
C1623 C 0.18155 0.27563 0.73796 0.0
C1624 C 0.18269 0.26916 0.68381 0.0
C1625 C 0.17965 0.27678 0.63352 0.0
C1626 C 0.1754 0.29087 0.63729 0.0
C1627 C 0.20378 0.3646 0.66809 0.0
C1628 C 0.20779 0.36449 0.60944 0.0
C1629 C 0.19283 0.35604 0.68768 0.0
C1630 C 0.18568 0.34714 0.64915 0.0
C1631 C 0.18941 0.34719 0.59027 0.0
C1632 C 0.20031 0.35591 0.5704 0.0
C1633 C 0.17515 0.33702 0.67192 0.0
C1634 C 0.17797 0.32257 0.66623 0.0
C1635 C 0.16347 0.34149 0.70536 0.0
C1636 C 0.15959 0.35662 0.71035 0.0
C1637 C 0.15783 0.36495 0.66041 0.0
C1638 C 0.15425 0.37921 0.6653 0.0
C1639 C 0.15233 0.38526 0.71991 0.0
C1640 C 0.15396 0.37705 0.76976 0.0
C1641 C 0.15755 0.36279 0.76511 0.0
H1642 H 0.14955 0.39629 0.72361 0.0
H1643 H 0.18597 0.25825 0.68081 0.0
H1644 H 0.70231 0.14756 0.94402 0.0
H1645 H 0.68446 0.16268 0.899 0.0
H1646 H 0.68954 0.14025 0.73769 0.0
H1647 H 0.70759 0.12544 0.78175 0.0
H1648 H 0.69127 0.16726 0.71956 0.0
H1649 H 0.65931 0.13726 0.82398 0.0
H1650 H 0.64957 0.12527 0.90995 0.0
H1651 H 0.64171 0.16535 0.99034 0.0
H1652 H 0.65158 0.17758 0.90513 0.0
H1653 H 0.63633 0.20041 0.56519 0.0
H1654 H 0.64996 0.1823 0.61565 0.0
H1655 H 0.6466 0.20586 0.77484 0.0
H1656 H 0.63274 0.22389 0.72518 0.0
H1657 H 0.64343 0.17803 0.7944 0.0
H1658 H 0.67616 0.20784 0.69222 0.0
H1659 H 0.68604 0.21997 0.60684 0.0
H1660 H 0.69266 0.18008 0.52304 0.0
H1661 H 0.68263 0.16772 0.60764 0.0
C1662 C 0.69945 0.14573 0.89922 0.0
C1663 C 0.70644 0.13539 0.8663 0.0
C1664 C 0.68922 0.15434 0.87358 0.0
C1665 C 0.68562 0.15258 0.81494 0.0
C1666 C 0.69219 0.14186 0.78286 0.0
C1667 C 0.7025 0.13339 0.80817 0.0
C1668 C 0.67588 0.16252 0.78551 0.0
C1669 C 0.68072 0.1694 0.73544 0.0
C1670 C 0.66227 0.16566 0.80715 0.0
C1671 C 0.65631 0.15833 0.85838 0.0
C1672 C 0.65561 0.14351 0.86017 0.0
C1673 C 0.65004 0.13668 0.90873 0.0
C1674 C 0.64506 0.14454 0.95564 0.0
C1675 C 0.64559 0.15927 0.95401 0.0
C1676 C 0.65116 0.16616 0.90556 0.0
C1677 C 0.6384 0.20171 0.61101 0.0
C1678 C 0.63355 0.21367 0.64098 0.0
C1679 C 0.64622 0.19136 0.63976 0.0
C1680 C 0.64946 0.19285 0.6988 0.0
C1681 C 0.64423 0.20453 0.72927 0.0
C1682 C 0.63636 0.21485 0.70067 0.0
C1683 C 0.6588 0.18257 0.72827 0.0
C1684 C 0.65394 0.17574 0.77842 0.0
C1685 C 0.67242 0.17945 0.70682 0.0
C1686 C 0.67851 0.18687 0.65601 0.0
C1687 C 0.67962 0.20166 0.6554 0.0
C1688 C 0.68527 0.20858 0.60718 0.0
C1689 C 0.68994 0.2008 0.55948 0.0
C1690 C 0.68901 0.18609 0.55997 0.0
C1691 C 0.68336 0.17912 0.60805 0.0
H1692 H 0.6943 0.20617 0.52219 0.0
H1693 H 0.64076 0.13923 0.99319 0.0
H1694 H 0.77901 0.63003 0.74877 0.0
H1695 H 0.79791 0.64416 0.79112 0.0
H1696 H 0.81572 0.65074 0.62132 0.0
H1697 H 0.79678 0.63676 0.57833 0.0
H1698 H 0.82685 0.64245 0.79217 0.0
H1699 H 0.82674 0.68496 0.61328 0.0
H1700 H 0.81053 0.69502 0.54052 0.0
H1701 H 0.77503 0.68394 0.64678 0.0
H1702 H 0.79104 0.67401 0.72047 0.0
H1703 H 0.87295 0.71135 0.77197 0.0
H1704 H 0.85836 0.69284 0.72981 0.0
H1705 H 0.84163 0.68302 0.89892 0.0
H1706 H 0.85645 0.70135 0.94177 0.0
H1707 H 0.83073 0.69216 0.72665 0.0
H1708 H 0.83085 0.64862 0.90315 0.0
H1709 H 0.84694 0.63863 0.97643 0.0
H1710 H 0.88267 0.65197 0.87609 0.0
H1711 H 0.8668 0.66186 0.80184 0.0
C1712 C 0.78699 0.63439 0.72037 0.0
C1713 C 0.78628 0.6324 0.66003 0.0
C1714 C 0.79783 0.6424 0.74475 0.0
C1715 C 0.80809 0.64862 0.70928 0.0
C1716 C 0.80777 0.64617 0.64934 0.0
C1717 C 0.79694 0.63816 0.62488 0.0
C1718 C 0.81864 0.65834 0.73463 0.0
C1719 C 0.82766 0.65336 0.77828 0.0
C1720 C 0.81981 0.67248 0.71567 0.0
C1721 C 0.81009 0.67859 0.67202 0.0
C1722 C 0.81548 0.68471 0.62116 0.0
C1723 C 0.80632 0.69039 0.57977 0.0
C1724 C 0.79176 0.69007 0.58892 0.0
C1725 C 0.78631 0.68413 0.63962 0.0
C1726 C 0.79542 0.67846 0.68118 0.0
C1727 C 0.8663 0.70515 0.8004 0.0
C1728 C 0.86581 0.70789 0.86024 0.0
C1729 C 0.85796 0.69457 0.77617 0.0
C1730 C 0.84894 0.6865 0.81117 0.0
C1731 C 0.84867 0.68896 0.87116 0.0
C1732 C 0.85711 0.69949 0.89556 0.0
C1733 C 0.83909 0.6763 0.78417 0.0
C1734 C 0.83009 0.68122 0.74031 0.0
C1735 C 0.83796 0.66213 0.80307 0.0
C1736 C 0.84762 0.65611 0.84722 0.0
C1737 C 0.84214 0.64937 0.89662 0.0
C1738 C 0.85122 0.64374 0.93835 0.0
C1739 C 0.86582 0.64471 0.93102 0.0
C1740 C 0.87136 0.65128 0.88184 0.0
C1741 C 0.86232 0.65692 0.83996 0.0
H1742 H 0.87283 0.64034 0.96338 0.0
H1743 H 0.78469 0.69446 0.5568 0.0
H1744 H 0.24399 0.05804 0.975 0.0
H1745 H 0.24515 0.03234 0.96189 0.0
H1746 H 0.27313 0.02911 0.10863 0.0
H1747 H 0.27168 0.05482 0.12271 0.0
H1748 H 0.28077 0.0138 0.99442 0.0
H1749 H 0.24424 0.01984 0.13964 0.0
H1750 H 0.22237 0.03055 0.17711 0.0
H1751 H 0.19944 0.01467 0.03059 0.0
H1752 H 0.22125 0.00408 0.99171 0.0
H1753 H 0.27998 0.93939 0.01668 0.0
H1754 H 0.27983 0.96466 0.03796 0.0
H1755 H 0.24011 0.9689 0.94796 0.0
H1756 H 0.2397 0.94344 0.93119 0.0
H1757 H 0.23892 0.98415 0.03732 0.0
H1758 H 0.27361 0.97881 0.88831 0.0
H1759 H 0.29486 0.96914 0.84121 0.0
H1760 H 0.3205 0.98449 0.98093 0.0
H1761 H 0.29937 0.99409 0.02927 0.0
C1762 C 0.25036 0.05179 0.00434 0.0
C1763 C 0.25766 0.05822 0.05006 0.0
C1764 C 0.25103 0.0372 0.99686 0.0
C1765 C 0.2592 0.02893 0.03441 0.0
C1766 C 0.26678 0.03539 0.07933 0.0
C1767 C 0.2659 0.04997 0.08749 0.0
C1768 C 0.25955 0.01347 0.02721 0.0
C1769 C 0.27174 0.00722 0.00456 0.0
C1770 C 0.24756 0.00511 0.03872 0.0
C1771 C 0.23441 0.01129 0.0625 0.0
C1772 C 0.23456 0.01874 0.11515 0.0
C1773 C 0.22217 0.02477 0.13669 0.0
C1774 C 0.20953 0.02332 0.10618 0.0
C1775 C 0.20924 0.0158 0.05414 0.0
C1776 C 0.22162 0.00977 0.03236 0.0
C1777 C 0.27112 0.94572 0.00236 0.0
C1778 C 0.25982 0.9395 0.97256 0.0
C1779 C 0.27114 0.96019 0.01371 0.0
C1780 C 0.26009 0.96879 0.99365 0.0
C1781 C 0.24878 0.96253 0.96386 0.0
C1782 C 0.2486 0.94802 0.95377 0.0
C1783 C 0.2602 0.98426 0.00403 0.0
C1784 C 0.24805 0.9906 0.02728 0.0
C1785 C 0.27215 0.99275 0.99175 0.0
C1786 C 0.28489 0.98704 0.96269 0.0
C1787 C 0.28377 0.98003 0.90919 0.0
C1788 C 0.29579 0.97458 0.88224 0.0
C1789 C 0.30902 0.97616 0.90814 0.0
C1790 C 0.31025 0.98325 0.96097 0.0
C1791 C 0.29825 0.98871 0.98814 0.0
H1792 H 0.31832 0.97193 0.88721 0.0
H1793 H 0.19994 0.02799 0.12292 0.0
H1794 H 0.05334 0.27069 0.88291 0.0
H1795 H 0.02796 0.27073 0.90528 0.0
H1796 H 0.03532 0.24207 0.04726 0.0
H1797 H 0.06076 0.2424 0.02612 0.0
H1798 H 0.01204 0.236 0.94929 0.0
H1799 H 0.02933 0.26878 0.09609 0.0
H1800 H 0.04266 0.28981 0.12689 0.0
H1801 H 0.01724 0.31585 0.016 0.0
H1802 H 0.00392 0.2949 0.98377 0.0
H1803 H 0.94423 0.23374 0.07262 0.0
H1804 H 0.96974 0.2345 0.05797 0.0
H1805 H 0.96601 0.27633 0.98537 0.0
H1806 H 0.94063 0.27601 0.00464 0.0
H1807 H 0.98801 0.27586 0.0477 0.0
H1808 H 0.97046 0.24527 0.90028 0.0
H1809 H 0.95727 0.22523 0.8591 0.0
H1810 H 0.98282 0.19625 0.95629 0.0
H1811 H 0.99605 0.21614 -0.00132 0.0
C1812 C 0.04947 0.26448 0.91899 0.0
C1813 C 0.05882 0.25655 0.95299 0.0
C1814 C 0.03507 0.26452 0.9317 0.0
C1815 C 0.02988 0.25642 0.97787 0.0
C1816 C 0.03921 0.24838 0.01153 0.0
C1817 C 0.05365 0.24859 -0.0004 0.0
C1818 C 0.01464 0.25618 0.99031 0.0
C1819 C 0.00674 0.24458 0.97154 0.0
C1820 C 0.00782 0.26766 0.01729 0.0
C1821 C 0.01575 0.28026 0.037 0.0
C1822 C 0.02669 0.27896 0.07778 0.0
C1823 C 0.03422 0.29088 0.09562 0.0
C1824 C 0.03083 0.30415 0.07328 0.0
C1825 C 0.01987 0.30555 0.03319 0.0
C1826 C 0.01232 0.29367 0.01515 0.0
C1827 C 0.94891 0.24316 0.0543 0.0
C1828 C 0.94049 0.25478 0.03942 0.0
C1829 C 0.96346 0.24352 0.04518 0.0
C1830 C 0.9698 0.25535 0.01929 0.0
C1831 C 0.96138 0.26705 0.00509 0.0
C1832 C 0.94687 0.26681 0.01548 0.0
C1833 C 0.98519 0.25553 0.00715 0.0
C1834 C 0.99318 0.26718 0.02563 0.0
C1835 C 0.99206 0.2442 0.97859 0.0
C1836 C 0.98415 0.23221 0.95307 0.0
C1837 C 0.9732 0.23463 0.91318 0.0
C1838 C 0.96573 0.2233 0.88958 0.0
C1839 C 0.96918 0.20948 0.90518 0.0
C1840 C 0.98015 0.20696 0.94431 0.0
C1841 C 0.98764 0.21826 0.9681 0.0
H1842 H 0.96339 0.20071 0.88686 0.0
H1843 H 0.03666 0.31336 0.08715 0.0
H1844 H 0.76104 0.94541 0.11591 0.0
H1845 H 0.75834 0.97089 0.11158 0.0
H1846 H 0.7235 0.96584 0.99254 0.0
H1847 H 0.72457 0.94047 0.00571 0.0
H1848 H 0.7626 0.98821 0.04116 0.0
H1849 H 0.70291 0.99311 0.97681 0.0
H1850 H 0.68021 0.98195 0.00194 0.0
H1851 H 0.69742 0.96803 0.16425 0.0
H1852 H 0.72015 0.97926 0.14047 0.0
H1853 H 0.7562 0.05448 0.91745 0.0
H1854 H 0.75561 0.02932 0.93756 0.0
H1855 H 0.72188 0.03597 0.06051 0.0
H1856 H 0.72079 0.06069 0.03233 0.0
H1857 H 0.71706 0.01345 0.02252 0.0
H1858 H 0.76018 0.03059 0.09615 0.0
H1859 H 0.78301 0.04305 0.09764 0.0
H1860 H 0.79901 0.01518 0.96665 0.0
H1861 H 0.77622 0.00266 0.96381 0.0
C1862 C 0.75245 0.94973 0.0907 0.0
C1863 C 0.74307 0.94085 0.06095 0.0
C1864 C 0.75106 0.96438 0.08725 0.0
C1865 C 0.74063 0.97052 0.05199 0.0
C1866 C 0.73137 0.96159 0.02168 0.0
C1867 C 0.73226 0.94697 0.02781 0.0
C1868 C 0.73993 0.98616 0.04449 0.0
C1869 C 0.7526 0.9937 0.03794 0.0
C1870 C 0.72698 0.99362 0.04179 0.0
C1871 C 0.71328 0.98693 0.05659 0.0
C1872 C 0.70183 0.98773 0.01799 0.0
C1873 C 0.68896 0.98138 0.03197 0.0
C1874 C 0.68739 0.97426 0.08458 0.0
C1875 C 0.69867 0.97351 0.12342 0.0
C1876 C 0.71155 0.97986 0.10969 0.0
C1877 C 0.74837 0.05051 0.94747 0.0
C1878 C 0.73865 0.05965 0.97381 0.0
C1879 C 0.74829 0.03612 0.96024 0.0
C1880 C 0.7391 0.03066 0.00251 0.0
C1881 C 0.72921 0.03979 0.02812 0.0
C1882 C 0.72877 0.05403 0.01286 0.0
C1883 C 0.73972 0.01548 0.01957 0.0
C1884 C 0.72705 0.008 0.02722 0.0
C1885 C 0.75268 0.00829 0.02796 0.0
C1886 C 0.76644 0.01576 0.02946 0.0
C1887 C 0.76854 0.02717 0.06742 0.0
C1888 C 0.78148 0.03424 0.06853 0.0
C1889 C 0.79244 0.02993 0.03218 0.0
C1890 C 0.79051 0.01851 0.99474 0.0
C1891 C 0.77758 0.01141 0.99341 0.0
H1892 H 0.80245 0.03542 0.03309 0.0
H1893 H 0.67742 0.96934 0.0953 0.0
H1894 H 0.94331 0.76388 0.95451 0.0
H1895 H 0.96884 0.76397 0.97136 0.0
H1896 H 0.96776 0.71908 0.00299 0.0
H1897 H 0.94214 0.71909 0.98706 0.0
H1898 H 0.98489 0.73208 0.07867 0.0
H1899 H 0.97831 0.73189 0.87349 0.0
H1900 H 0.96856 0.74018 0.78052 0.0
H1901 H 0.98884 0.78028 0.80369 0.0
H1902 H 0.99851 0.77232 0.8974 0.0
H1903 H 0.05868 0.72041 0.03431 0.0
H1904 H 0.03293 0.7198 0.0218 0.0
H1905 H 0.0321 0.76527 0.01316 0.0
H1906 H 0.05782 0.76587 0.02629 0.0
H1907 H 0.01611 0.75138 0.92524 0.0
H1908 H 0.02241 0.75106 0.13224 0.0
H1909 H 0.03212 0.74219 0.22439 0.0
H1910 H 0.0125 0.70199 0.19519 0.0
H1911 H 0.00287 0.71055 0.1023 0.0
C1912 C 0.94858 0.75409 0.96543 0.0
C1913 C 0.94093 0.74148 0.96951 0.0
C1914 C 0.96311 0.75412 0.97485 0.0
C1915 C 0.97021 0.74149 0.98758 0.0
C1916 C 0.96247 0.72893 0.99317 0.0
C1917 C 0.9479 0.72893 0.98408 0.0
C1918 C 0.98576 0.74135 0.99348 0.0
C1919 C 0.99172 0.73612 0.04481 0.0
C1920 C 0.99465 0.7468 0.94954 0.0
C1921 C 0.98903 0.75155 0.89275 0.0
C1922 C 0.98062 0.74251 0.85897 0.0
C1923 C 0.9751 0.74715 0.80612 0.0
C1924 C 0.97805 0.76076 0.78627 0.0
C1925 C 0.98655 0.76975 0.81916 0.0
C1926 C 0.99205 0.76518 0.87214 0.0
C1927 C 0.05293 0.73023 0.0296 0.0
C1928 C 0.06004 0.74319 0.03129 0.0
C1929 C 0.0383 0.72988 0.02264 0.0
C1930 C 0.03067 0.7425 0.01685 0.0
C1931 C 0.03784 0.75544 0.01756 0.0
C1932 C 0.05244 0.75579 0.02522 0.0
C1933 C 0.01518 0.7422 0.01047 0.0
C1934 C 0.00925 0.74732 0.95897 0.0
C1935 C 0.00634 0.73654 0.05399 0.0
C1936 C 0.01205 0.7314 0.11 0.0
C1937 C 0.02028 0.74029 0.14519 0.0
C1938 C 0.02574 0.73532 0.19761 0.0
C1939 C 0.02296 0.72152 0.21556 0.0
C1940 C 0.01467 0.71267 0.18118 0.0
C1941 C 0.0092 0.71758 0.12865 0.0
H1942 H 0.0272 0.7177 0.25618 0.0
H1943 H 0.97377 0.76433 0.74534 0.0
H1944 H 0.77909 0.4408 0.51665 0.0
H1945 H 0.77766 0.46624 0.53522 0.0
H1946 H 0.73736 0.46778 0.44879 0.0
H1947 H 0.73846 0.44222 0.4324 0.0
H1948 H 0.75879 0.48941 0.41553 0.0
H1949 H 0.73575 0.46834 0.58299 0.0
H1950 H 0.73498 0.4521 0.66646 0.0
H1951 H 0.77119 0.47252 0.74023 0.0
H1952 H 0.77231 0.48874 0.65673 0.0
H1953 H 0.7366 0.55792 0.48881 0.0
H1954 H 0.73773 0.53239 0.47271 0.0
H1955 H 0.76961 0.52887 0.60565 0.0
H1956 H 0.76786 0.55432 0.62361 0.0
H1957 H 0.75306 0.50784 0.61534 0.0
H1958 H 0.77731 0.52855 0.45626 0.0
H1959 H 0.78087 0.54447 0.37307 0.0
H1960 H 0.74648 0.52473 0.28326 0.0
H1961 H 0.74255 0.50883 0.36638 0.0
C1962 C 0.76987 0.44656 0.50228 0.0
C1963 C 0.7588 0.43959 0.47373 0.0
C1964 C 0.76911 0.46106 0.51253 0.0
C1965 C 0.75738 0.46879 0.49352 0.0
C1966 C 0.74649 0.46193 0.46366 0.0
C1967 C 0.74714 0.4474 0.45427 0.0
C1968 C 0.75639 0.48405 0.50552 0.0
C1969 C 0.75735 0.4935 0.45903 0.0
C1970 C 0.75506 0.48925 0.56259 0.0
C1971 C 0.7542 0.47966 0.6133 0.0
C1972 C 0.74361 0.4693 0.61678 0.0
C1973 C 0.74311 0.46011 0.66414 0.0
C1974 C 0.75306 0.46125 0.70851 0.0
C1975 C 0.7635 0.47163 0.70577 0.0
C1976 C 0.76407 0.48083 0.65847 0.0
C1977 C 0.74375 0.5516 0.51464 0.0
C1978 C 0.75217 0.55791 0.55722 0.0
C1979 C 0.74449 0.53708 0.50526 0.0
C1980 C 0.75398 0.52872 0.53714 0.0
C1981 C 0.76224 0.53508 0.58044 0.0
C1982 C 0.76128 0.54957 0.5906 0.0
C1983 C 0.75534 0.51339 0.52515 0.0
C1984 C 0.75449 0.50386 0.57167 0.0
C1985 C 0.75715 0.50812 0.46815 0.0
C1986 C 0.75955 0.51759 0.41782 0.0
C1987 C 0.77044 0.52767 0.41895 0.0
C1988 C 0.77253 0.53668 0.37179 0.0
C1989 C 0.76389 0.53563 0.32297 0.0
C1990 C 0.75316 0.52554 0.32115 0.0
C1991 C 0.751 0.51652 0.36827 0.0
H1992 H 0.76552 0.54262 0.28649 0.0
H1993 H 0.75269 0.4541 0.74506 0.0
H1994 H 0.44279 0.77735 0.52176 0.0
H1995 H 0.46809 0.77779 0.49961 0.0
H1996 H 0.46879 0.73224 0.49869 0.0
H1997 H 0.44355 0.73186 0.52235 0.0
H1998 H 0.49109 0.74209 0.55353 0.0
H1999 H 0.46847 0.7517 0.3722 0.0
H2000 H 0.45228 0.76413 0.30601 0.0
H2001 H 0.4749 0.8028 0.33344 0.0
H2002 H 0.4911 0.79064 0.40061 0.0
H2003 H 0.55713 0.7346 0.4114 0.0
H2004 H 0.53149 0.73413 0.42675 0.0
H2005 H 0.53172 0.77904 0.45707 0.0
H2006 H 0.55737 0.77948 0.44221 0.0
H2007 H 0.50907 0.76926 0.38514 0.0
H2008 H 0.53129 0.75938 0.56834 0.0
H2009 H 0.54754 0.74665 0.63335 0.0
H2010 H 0.52553 0.70791 0.59987 0.0
H2011 H 0.5093 0.72038 0.53376 0.0
C2012 C 0.44842 0.76748 0.51681 0.0
C2013 C 0.44137 0.75458 0.52328 0.0
C2014 C 0.4628 0.76771 0.50397 0.0
C2015 C 0.47027 0.75504 0.49652 0.0
C2016 C 0.46323 0.74213 0.50408 0.0
C2017 C 0.44887 0.74191 0.51746 0.0
C2018 C 0.48544 0.75523 0.48091 0.0
C2019 C 0.49498 0.74786 0.5162 0.0
C2020 C 0.49055 0.76298 0.43279 0.0
C2021 C 0.48092 0.77028 0.39185 0.0
C2022 C 0.46994 0.76287 0.36443 0.0
C2023 C 0.46076 0.76987 0.32671 0.0
C2024 C 0.46254 0.78425 0.31562 0.0
C2025 C 0.47352 0.79166 0.34212 0.0
C2026 C 0.48271 0.78472 0.38 0.0
C2027 C 0.55162 0.74436 0.42072 0.0
C2028 C 0.55907 0.75706 0.4261 0.0
C2029 C 0.53705 0.74408 0.42957 0.0
C2030 C 0.52979 0.75654 0.44342 0.0
C2031 C 0.53717 0.76934 0.44642 0.0
C2032 C 0.55175 0.76958 0.43819 0.0
C2033 C 0.51461 0.75611 0.45766 0.0
C2034 C 0.50511 0.76345 0.42223 0.0
C2035 C 0.50952 0.74827 0.5054 0.0
C2036 C 0.51918 0.74078 0.5456 0.0
C2037 C 0.52999 0.74812 0.57443 0.0
C2038 C 0.53919 0.74096 0.61154 0.0
C2039 C 0.53759 0.72647 0.62063 0.0
C2040 C 0.52677 0.71913 0.59272 0.0
C2041 C 0.51756 0.72624 0.55543 0.0
H2042 H 0.54471 0.72095 0.6494 0.0
H2043 H 0.45542 0.78965 0.2864 0.0
H2044 H 0.25985 0.44574 0.59974 0.0
H2045 H 0.25829 0.47156 0.59417 0.0
H2046 H 0.21794 0.46809 0.50911 0.0
H2047 H 0.21917 0.44231 0.51694 0.0
H2048 H 0.23969 0.48566 0.45172 0.0
H2049 H 0.21664 0.47826 0.63642 0.0
H2050 H 0.21531 0.46883 0.73582 0.0
H2051 H 0.25206 0.49264 0.78322 0.0
H2052 H 0.25375 0.50204 0.68375 0.0
H2053 H 0.22065 0.55702 0.4366 0.0
H2054 H 0.22016 0.53158 0.45535 0.0
H2055 H 0.25303 0.53656 0.58332 0.0
H2056 H 0.25295 0.56213 0.56638 0.0
H2057 H 0.23542 0.51789 0.62018 0.0
H2058 H 0.25972 0.5251 0.44192 0.0
H2059 H 0.26332 0.53421 0.34298 0.0
H2060 H 0.22764 0.51044 0.28315 0.0
H2061 H 0.22367 0.50137 0.38202 0.0
C2062 C 0.25058 0.45053 0.58061 0.0
C2063 C 0.23972 0.44211 0.55792 0.0
C2064 C 0.24972 0.46522 0.57731 0.0
C2065 C 0.23804 0.47164 0.55095 0.0
C2066 C 0.22708 0.46326 0.5292 0.0
C2067 C 0.22783 0.4486 0.53339 0.0
C2068 C 0.23747 0.48711 0.54426 0.0
C2069 C 0.23856 0.49275 0.48834 0.0
C2070 C 0.23653 0.49623 0.59245 0.0
C2071 C 0.2354 0.49074 0.65246 0.0
C2072 C 0.22451 0.48139 0.66788 0.0
C2073 C 0.22368 0.47607 0.72427 0.0
C2074 C 0.23361 0.4801 0.76577 0.0
C2075 C 0.24438 0.48951 0.751 0.0
C2076 C 0.24527 0.49485 0.69464 0.0
C2077 C 0.22767 0.55262 0.46892 0.0
C2078 C 0.23694 0.56133 0.4997 0.0
C2079 C 0.22746 0.53812 0.47946 0.0
C2080 C 0.2368 0.5321 0.5198 0.0
C2081 C 0.24577 0.54094 0.55185 0.0
C2082 C 0.24578 0.55549 0.54208 0.0
C2083 C 0.23749 0.51656 0.52727 0.0
C2084 C 0.23651 0.51087 0.58334 0.0
C2085 C 0.23887 0.50736 0.47923 0.0
C2086 C 0.24132 0.51266 0.41953 0.0
C2087 C 0.25259 0.52189 0.40775 0.0
C2088 C 0.2547 0.52704 0.35168 0.0
C2089 C 0.2457 0.52293 0.30683 0.0
C2090 C 0.23459 0.51363 0.31796 0.0
C2091 C 0.23241 0.50847 0.37401 0.0
H2092 H 0.24735 0.52693 0.26344 0.0
H2093 H 0.23295 0.47597 0.8094 0.0
H2094 H 0.55863 0.22206 0.51672 0.0
H2095 H 0.53322 0.22074 0.49646 0.0
H2096 H 0.53058 0.26616 0.5029 0.0
H2097 H 0.55597 0.26746 0.52354 0.0
H2098 H 0.51025 0.23061 0.56078 0.0
H2099 H 0.50794 0.27579 0.39105 0.0
H2100 H 0.52342 0.2867 0.31773 0.0
H2101 H 0.54686 0.24811 0.303 0.0
H2102 H 0.53137 0.23689 0.37532 0.0
H2103 H 0.44033 0.25449 0.52275 0.0
H2104 H 0.46588 0.25327 0.53751 0.0
H2105 H 0.47076 0.23398 0.36938 0.0
H2106 H 0.44516 0.23519 0.3546 0.0
H2107 H 0.49035 0.25401 0.38656 0.0
H2108 H 0.47261 0.21415 0.49001 0.0
H2109 H 0.4573 0.20163 0.5594 0.0
H2110 H 0.47442 0.22613 0.69911 0.0
H2111 H 0.48967 0.23896 0.6304 0.0
C2112 C 0.55255 0.23172 0.51394 0.0
C2113 C 0.55909 0.24486 0.52149 0.0
C2114 C 0.53811 0.23096 0.50261 0.0
C2115 C 0.5301 0.24335 0.49786 0.0
C2116 C 0.53664 0.25649 0.50599 0.0
C2117 C 0.55105 0.25724 0.51792 0.0
C2118 C 0.51492 0.24258 0.48387 0.0
C2119 C 0.50587 0.23571 0.52274 0.0
C2120 C 0.50933 0.24896 0.43347 0.0
C2121 C 0.51857 0.25556 0.38913 0.0
C2122 C 0.51635 0.26962 0.37196 0.0
C2123 C 0.52514 0.27585 0.33056 0.0
C2124 C 0.53615 0.26812 0.30584 0.0
C2125 C 0.53836 0.25411 0.32229 0.0
C2126 C 0.52959 0.24781 0.36354 0.0
C2127 C 0.44688 0.24994 0.48915 0.0
C2128 C 0.44087 0.24493 0.43759 0.0
C2129 C 0.46144 0.24924 0.49756 0.0
C2130 C 0.47018 0.2434 0.45475 0.0
C2131 C 0.46419 0.23854 0.40288 0.0
C2132 C 0.44961 0.23926 0.39443 0.0
C2133 C 0.48559 0.24236 0.46434 0.0
C2134 C 0.4947 0.24888 0.4246 0.0
C2135 C 0.49126 0.2354 0.51338 0.0
C2136 C 0.48221 0.2276 0.55495 0.0
C2137 C 0.47305 0.21694 0.53547 0.0
C2138 C 0.46438 0.20978 0.57469 0.0
C2139 C 0.46487 0.2131 0.63361 0.0
C2140 C 0.47405 0.22357 0.65345 0.0
C2141 C 0.48271 0.23079 0.61439 0.0
H2142 H 0.45815 0.20755 0.66391 0.0
H2143 H 0.54294 0.27297 0.27386 0.0
H2144 H 0.23245 0.14922 0.97554 0.0
H2145 H 0.21359 0.16596 0.95508 0.0
H2146 H 0.18727 0.14566 0.08295 0.0
H2147 H 0.20643 0.12927 0.10565 0.0
H2148 H 0.18886 0.16475 0.91435 0.0
H2149 H 0.1653 0.1691 0.14525 0.0
H2150 H 0.17293 0.16664 0.24697 0.0
H2151 H 0.21543 0.17691 0.19832 0.0
H2152 H 0.20801 0.1796 0.0965 0.0
H2153 H 0.12739 0.20653 0.88913 0.0
H2154 H 0.14356 0.18729 0.91327 0.0
H2155 H 0.16726 0.21541 0.02355 0.0
H2156 H 0.15072 0.2344 0.00207 0.0
H2157 H 0.16629 0.19174 0.07337 0.0
H2158 H 0.17762 0.20626 0.87991 0.0
H2159 H 0.17285 0.21155 0.77713 0.0
H2160 H 0.16015 0.16861 0.74897 0.0
H2161 H 0.16467 0.16312 0.85183 0.0
C2162 C 0.22264 0.1483 -0.0007 0.0
C2163 C 0.22097 0.13801 0.04261 0.0
C2164 C 0.21183 0.15786 0.98739 0.0
C2165 C 0.19904 0.15723 0.01796 0.0
C2166 C 0.19715 0.1466 0.05972 0.0
C2167 C 0.20808 0.13719 0.07251 0.0
C2168 C 0.18791 0.16793 0.00673 0.0
C2169 C 0.1839 0.17062 0.94919 0.0
C2170 C 0.18158 0.1758 0.05196 0.0
C2171 C 0.18612 0.17438 0.11319 0.0
C2172 C 0.17626 0.17087 0.15633 0.0
C2173 C 0.18055 0.16943 0.21398 0.0
C2174 C 0.19467 0.17156 0.22906 0.0
C2175 C 0.20451 0.17521 0.18655 0.0
C2176 C 0.20027 0.17668 0.12887 0.0
C2177 C 0.13602 0.20857 0.91873 0.0
C2178 C 0.13785 0.22199 0.94341 0.0
C2179 C 0.1453 0.19759 0.93232 0.0
C2180 C 0.15681 0.19994 0.96944 0.0
C2181 C 0.15847 0.21329 0.99488 0.0
C2182 C 0.14903 0.22417 0.98235 0.0
C2183 C 0.16736 0.18867 0.98094 0.0
C2184 C 0.17119 0.18582 0.03855 0.0
C2185 C 0.17398 0.18108 0.93561 0.0
C2186 C 0.17134 0.18432 0.87367 0.0
C2187 C 0.17373 0.19797 0.85187 0.0
C2188 C 0.17107 0.201 0.79361 0.0
C2189 C 0.16616 0.19043 0.75659 0.0
C2190 C 0.16393 0.1768 0.77772 0.0
C2191 C 0.16654 0.17371 0.83598 0.0
H2192 H 0.1641 0.1928 0.7115 0.0
H2193 H 0.19797 0.17042 0.2737 0.0
H2194 H 0.86351 0.22161 0.94113 0.0
H2195 H 0.84693 0.20272 0.91758 0.0
H2196 H 0.83843 0.19673 0.09968 0.0
H2197 H 0.85547 0.21516 0.12336 0.0
H2198 H 0.83932 0.17245 0.05095 0.0
H2199 H 0.81608 0.21628 0.00461 0.0
H2200 H 0.81351 0.23935 0.9563 0.0
H2201 H 0.81531 0.21918 0.78997 0.0
H2202 H 0.81806 0.19599 0.83733 0.0
H2203 H 0.77108 0.14227 0.04228 0.0
H2204 H 0.79124 0.15798 0.05421 0.0
H2205 H 0.80061 0.15444 0.87201 0.0
H2206 H 0.78042 0.13862 0.85953 0.0
H2207 H 0.80043 0.18226 0.91281 0.0
H2208 H 0.82116 0.1378 0.96418 0.0
H2209 H 0.82256 0.11516 0.01652 0.0
H2210 H 0.82409 0.13722 0.17881 0.0
H2211 H 0.8225 0.15999 0.12748 0.0
C2212 C 0.85812 0.21623 0.97605 0.0
C2213 C 0.86067 0.21994 0.034 0.0
C2214 C 0.84861 0.20546 0.96258 0.0
C2215 C 0.84118 0.19848 0.00678 0.0
C2216 C 0.84401 0.20195 0.06477 0.0
C2217 C 0.85373 0.21251 0.07827 0.0
C2218 C 0.83023 0.18779 0.99294 0.0
C2219 C 0.83076 0.17466 0.02111 0.0
C2220 C 0.8192 0.19051 0.95301 0.0
C2221 C 0.81743 0.20443 0.9245 0.0
C2222 C 0.81602 0.21678 0.95773 0.0
C2223 C 0.81451 0.22987 0.93053 0.0
C2224 C 0.81429 0.23074 0.87011 0.0
C2225 C 0.81551 0.2185 0.83676 0.0
C2226 C 0.81703 0.20538 0.86376 0.0
C2227 C 0.77745 0.14474 0.00472 0.0
C2228 C 0.77414 0.13914 0.94997 0.0
C2229 C 0.789 0.15369 0.0117 0.0
C2230 C 0.79747 0.15725 0.96408 0.0
C2231 C 0.79421 0.15175 0.9093 0.0
C2232 C 0.7827 0.14269 0.90233 0.0
C2233 C 0.80945 0.16709 0.97155 0.0
C2234 C 0.80909 0.18004 0.94218 0.0
C2235 C 0.8205 0.16429 0.01101 0.0
C2236 C 0.82161 0.1506 0.04197 0.0
C2237 C 0.8217 0.13782 0.01105 0.0
C2238 C 0.82254 0.12496 0.04054 0.0
C2239 C 0.82339 0.12475 0.10096 0.0
C2240 C 0.82343 0.1374 0.13201 0.0
C2241 C 0.82258 0.15029 0.10273 0.0
H2242 H 0.82403 0.11478 0.12371 0.0
H2243 H 0.81313 0.24088 0.84912 0.0
H2244 H 0.87233 0.78889 0.87248 0.0
H2245 H 0.85721 0.80949 0.88815 0.0
H2246 H 0.83367 0.78633 0.01698 0.0
H2247 H 0.84912 0.76606 0.00359 0.0
H2248 H 0.8311 0.8148 0.87364 0.0
H2249 H 0.82127 0.80668 0.12094 0.0
H2250 H 0.83407 0.79738 0.2058 0.0
H2251 H 0.87362 0.8061 0.12254 0.0
H2252 H 0.86108 0.81566 0.0376 0.0
H2253 H 0.76924 0.8497 0.96087 0.0
H2254 H 0.7886 0.83378 0.93729 0.0
H2255 H 0.81591 0.8567 0.05375 0.0
H2256 H 0.79624 0.8721 0.08016 0.0
H2257 H 0.81999 0.83135 0.07223 0.0
H2258 H 0.81891 0.85757 0.89713 0.0
H2259 H 0.80904 0.86873 0.80954 0.0
H2260 H 0.79604 0.8282 0.74604 0.0
H2261 H 0.8057 0.8168 0.83351 0.0
C2262 C 0.86395 0.78824 0.9043 0.0
C2263 C 0.86198 0.77592 0.93722 0.0
C2264 C 0.85531 0.8 0.91313 0.0
C2265 C 0.84446 0.79958 0.95454 0.0
C2266 C 0.84222 0.7871 0.98604 0.0
C2267 C 0.85102 0.77547 0.97811 0.0
C2268 C 0.83533 0.81207 0.96461 0.0
C2269 C 0.82873 0.8185 0.91701 0.0
C2270 C 0.83257 0.81721 0.02107 0.0
C2271 C 0.84021 0.81179 0.07269 0.0
C2272 C 0.8327 0.80671 0.12089 0.0
C2273 C 0.83991 0.80137 0.16898 0.0
C2274 C 0.85465 0.80112 0.16949 0.0
C2275 C 0.86221 0.80626 0.12203 0.0
C2276 C 0.85505 0.81164 0.07389 0.0
C2277 C 0.77941 0.85141 0.98104 0.0
C2278 C 0.78123 0.86209 0.02253 0.0
C2279 C 0.79054 0.84237 0.96715 0.0
C2280 C 0.80385 0.84412 0.993 0.0
C2281 C 0.80576 0.85508 0.03327 0.0
C2282 C 0.79452 0.86389 0.0483 0.0
C2283 C 0.81542 0.83391 0.98128 0.0
C2284 C 0.82248 0.82785 0.02868 0.0
C2285 C 0.81898 0.8295 0.92446 0.0
C2286 C 0.81297 0.83634 0.87211 0.0
C2287 C 0.81385 0.85105 0.86471 0.0
C2288 C 0.80831 0.85741 0.81502 0.0
C2289 C 0.8019 0.84917 0.77228 0.0
C2290 C 0.80101 0.83456 0.77917 0.0
C2291 C 0.80654 0.82814 0.82875 0.0
H2292 H 0.79767 0.85409 0.7337 0.0
H2293 H 0.86021 0.79695 0.2067 0.0
H2294 H 0.14742 0.76699 0.93799 0.0
H2295 H 0.16449 0.78532 0.91282 0.0
H2296 H 0.15079 0.81012 0.05897 0.0
H2297 H 0.13363 0.79193 0.08429 0.0
H2298 H 0.15597 0.8266 0.96294 0.0
H2299 H 0.17893 0.78982 0.07288 0.0
H2300 H 0.18599 0.76528 0.09353 0.0
H2301 H 0.20777 0.76319 0.93067 0.0
H2302 H 0.20066 0.78767 0.90871 0.0
H2303 H 0.23264 0.8508 0.02468 0.0
H2304 H 0.21309 0.83431 0.03375 0.0
H2305 H 0.19693 0.84784 0.8681 0.0
H2306 H 0.21637 0.86469 0.85915 0.0
H2307 H 0.20629 0.81221 0.9686 0.0
H2308 H 0.16057 0.84471 0.87236 0.0
H2309 H 0.15353 0.8696 0.85997 0.0
H2310 H 0.17755 0.88105 0.01045 0.0
H2311 H 0.18458 0.85622 0.02413 0.0
C2312 C 0.14789 0.77642 0.96436 0.0
C2313 C 0.13924 0.77793 0.0135 0.0
C2314 C 0.15767 0.78687 0.94993 0.0
C2315 C 0.15898 0.799 0.98437 0.0
C2316 C 0.14993 0.80084 0.03182 0.0
C2317 C 0.14018 0.79038 0.0464 0.0
C2318 C 0.17044 0.80928 0.97376 0.0
C2319 C 0.16697 0.82346 0.9637 0.0
C2320 C 0.18479 0.80519 0.97561 0.0
C2321 C 0.18914 0.79051 0.98888 0.0
C2322 C 0.18513 0.78408 0.04128 0.0
C2323 C 0.18915 0.7702 0.05325 0.0
C2324 C 0.19729 0.76267 0.01336 0.0
C2325 C 0.20145 0.76903 0.96148 0.0
C2326 C 0.19743 0.78291 0.94926 0.0
C2327 C 0.22487 0.85043 0.9904 0.0
C2328 C 0.22603 0.85918 0.94142 0.0
C2329 C 0.21374 0.8409 0.99547 0.0
C2330 C 0.20352 0.83989 0.95177 0.0
C2331 C 0.20462 0.84856 0.90266 0.0
C2332 C 0.21577 0.85816 0.89756 0.0
C2333 C 0.19186 0.82959 0.95781 0.0
C2334 C 0.19529 0.81536 0.96697 0.0
C2335 C 0.17751 0.8337 0.95613 0.0
C2336 C 0.17322 0.84864 0.94882 0.0
C2337 C 0.16431 0.85254 0.90287 0.0
C2338 C 0.16033 0.86664 0.89562 0.0
C2339 C 0.16513 0.87691 0.93427 0.0
C2340 C 0.17389 0.8731 0.9804 0.0
C2341 C 0.17789 0.85902 0.98787 0.0
H2342 H 0.16205 0.88781 0.92856 0.0
H2343 H 0.20039 0.75192 0.02271 0.0
H2344 H 0.62995 0.72042 0.53341 0.0
H2345 H 0.64563 0.70078 0.55749 0.0
H2346 H 0.66673 0.70575 0.39291 0.0
H2347 H 0.6505 0.72484 0.36757 0.0
H2348 H 0.66429 0.67947 0.41351 0.0
H2349 H 0.68027 0.71893 0.53044 0.0
H2350 H 0.67695 0.73806 0.60162 0.0
H2351 H 0.6639 0.70787 0.7296 0.0
H2352 H 0.66707 0.68857 0.65903 0.0
H2353 H 0.72919 0.64592 0.47343 0.0
H2354 H 0.71054 0.66289 0.45249 0.0
H2355 H 0.68995 0.65224 0.61334 0.0
H2356 H 0.70874 0.6354 0.63532 0.0
H2357 H 0.69088 0.68015 0.59858 0.0
H2358 H 0.67708 0.64048 0.48285 0.0
H2359 H 0.68053 0.62153 0.41107 0.0
H2360 H 0.68967 0.65233 0.2799 0.0
H2361 H 0.68647 0.67147 0.35109 0.0
C2362 C 0.63796 0.7173 0.50256 0.0
C2363 C 0.63916 0.72421 0.44899 0.0
C2364 C 0.64695 0.70612 0.51636 0.0
C2365 C 0.65763 0.70198 0.47766 0.0
C2366 C 0.65862 0.70875 0.42362 0.0
C2367 C 0.64938 0.71967 0.40919 0.0
C2368 C 0.66786 0.69072 0.4933 0.0
C2369 C 0.67022 0.67973 0.4537 0.0
C2370 C 0.67533 0.69078 0.54649 0.0
C2371 C 0.67381 0.70234 0.58936 0.0
C2372 C 0.67667 0.71639 0.57374 0.0
C2373 C 0.67482 0.72725 0.61397 0.0
C2374 C 0.6702 0.72418 0.67006 0.0
C2375 C 0.66749 0.71023 0.68614 0.0
C2376 C 0.66934 0.69932 0.6461 0.0
C2377 C 0.72067 0.64711 0.5043 0.0
C2378 C 0.72045 0.63926 0.55602 0.0
C2379 C 0.70998 0.65679 0.49213 0.0
C2380 C 0.69875 0.6587 0.53101 0.0
C2381 C 0.6985 0.6509 0.58268 0.0
C2382 C 0.70923 0.64126 0.59507 0.0
C2383 C 0.68748 0.6691 0.51827 0.0
C2384 C 0.68491 0.67989 0.55849 0.0
C2385 C 0.67988 0.66889 0.46552 0.0
C2386 C 0.68164 0.6574 0.42245 0.0
C2387 C 0.67991 0.64321 0.43879 0.0
C2388 C 0.68181 0.63244 0.39819 0.0
C2389 C 0.68534 0.63572 0.34099 0.0
C2390 C 0.68694 0.6498 0.32423 0.0
C2391 C 0.68507 0.66061 0.36467 0.0
H2392 H 0.68682 0.62737 0.30964 0.0
H2393 H 0.66872 0.73261 0.70108 0.0
H2394 H 0.35314 0.73075 0.4507 0.0
H2395 H 0.33562 0.71249 0.43086 0.0
H2396 H 0.34982 0.68904 0.57997 0.0
H2397 H 0.36739 0.70726 0.60039 0.0
H2398 H 0.34398 0.67184 0.48335 0.0
H2399 H 0.32235 0.70898 0.59562 0.0
H2400 H 0.31588 0.73367 0.61628 0.0
H2401 H 0.29276 0.7358 0.45656 0.0
H2402 H 0.29928 0.71117 0.43455 0.0
H2403 H 0.26765 0.64764 0.55034 0.0
H2404 H 0.28746 0.66384 0.55967 0.0
H2405 H 0.30209 0.65209 0.38948 0.0
H2406 H 0.28225 0.6357 0.37966 0.0
H2407 H 0.29387 0.68674 0.4947 0.0
H2408 H 0.33876 0.65416 0.39261 0.0
H2409 H 0.34539 0.62924 0.37776 0.0
H2410 H 0.32182 0.61737 0.52897 0.0
H2411 H 0.31522 0.64222 0.54513 0.0
C2412 C 0.35267 0.72165 0.47899 0.0
C2413 C 0.36159 0.72054 0.52751 0.0
C2414 C 0.34264 0.71123 0.46754 0.0
C2415 C 0.34139 0.6995 0.50423 0.0
C2416 C 0.35066 0.69802 0.55115 0.0
C2417 C 0.36064 0.70848 0.56289 0.0
C2418 C 0.32976 0.68928 0.49614 0.0
C2419 C 0.33302 0.67508 0.48548 0.0
C2420 C 0.31549 0.69353 0.49969 0.0
C2421 C 0.31142 0.70828 0.51316 0.0
C2422 C 0.31597 0.71475 0.5647 0.0
C2423 C 0.31229 0.72872 0.57669 0.0
C2424 C 0.30395 0.73631 0.53768 0.0
C2425 C 0.29924 0.72992 0.48669 0.0
C2426 C 0.30292 0.71595 0.47445 0.0
C2427 C 0.27509 0.64842 0.51485 0.0
C2428 C 0.27334 0.64036 0.46418 0.0
C2429 C 0.28638 0.65774 0.52024 0.0
C2430 C 0.29624 0.65914 0.47536 0.0
C2431 C 0.29464 0.65107 0.42483 0.0
C2432 C 0.28329 0.64174 0.41926 0.0
C2433 C 0.30805 0.66926 0.4816 0.0
C2434 C 0.30482 0.68349 0.49191 0.0
C2435 C 0.32233 0.66498 0.47844 0.0
C2436 C 0.32638 0.65003 0.46965 0.0
C2437 C 0.33504 0.64623 0.42277 0.0
C2438 C 0.33878 0.63212 0.41412 0.0
C2439 C 0.33399 0.62172 0.45228 0.0
C2440 C 0.32548 0.62542 0.4993 0.0
C2441 C 0.32172 0.63952 0.50818 0.0
H2442 H 0.33689 0.61081 0.44548 0.0
H2443 H 0.30111 0.74714 0.54703 0.0
H2444 H 0.35783 0.28545 0.3472 0.0
H2445 H 0.34092 0.30421 0.36822 0.0
H2446 H 0.34338 0.2944 0.55053 0.0
H2447 H 0.35995 0.27535 0.52968 0.0
H2448 H 0.31716 0.29741 0.52099 0.0
H2449 H 0.35909 0.32441 0.49065 0.0
H2450 H 0.3804 0.33239 0.43892 0.0
H2451 H 0.35489 0.3468 0.29705 0.0
H2452 H 0.33343 0.33872 0.3476 0.0
H2453 H 0.28158 0.35862 0.62042 0.0
H2454 H 0.30064 0.34197 0.60026 0.0
H2455 H 0.29282 0.34595 0.41699 0.0
H2456 H 0.27364 0.36254 0.43661 0.0
H2457 H 0.32199 0.34644 0.44826 0.0
H2458 H 0.2801 0.31861 0.48071 0.0
H2459 H 0.25912 0.31098 0.53551 0.0
H2460 H 0.28542 0.29859 0.67817 0.0
H2461 H 0.30655 0.30635 0.6245 0.0
C2462 C 0.35484 0.28735 0.3918 0.0
C2463 C 0.3602 0.27889 0.43674 0.0
C2464 C 0.34522 0.29813 0.40381 0.0
C2465 C 0.34098 0.30083 0.46105 0.0
C2466 C 0.34647 0.2925 0.50602 0.0
C2467 C 0.35596 0.28163 0.49402 0.0
C2468 C 0.33039 0.31193 0.47391 0.0
C2469 C 0.31836 0.30818 0.50583 0.0
C2470 C 0.33178 0.32593 0.45318 0.0
C2471 C 0.34466 0.33084 0.42269 0.0
C2472 C 0.35803 0.32918 0.44822 0.0
C2473 C 0.37014 0.33374 0.41915 0.0
C2474 C 0.369 0.34007 0.36467 0.0
C2475 C 0.35575 0.34188 0.33922 0.0
C2476 C 0.34361 0.33733 0.36809 0.0
C2477 C 0.28396 0.35606 0.57577 0.0
C2478 C 0.27603 0.36187 0.5301 0.0
C2479 C 0.29484 0.34652 0.56439 0.0
C2480 C 0.29804 0.34269 0.5072 0.0
C2481 C 0.29049 0.3488 0.46142 0.0
C2482 C 0.27951 0.35823 0.47276 0.0
C2483 C 0.3089 0.33186 0.49533 0.0
C2484 C 0.32091 0.33567 0.46354 0.0
C2485 C 0.30758 0.31794 0.51664 0.0
C2486 C 0.29489 0.3132 0.54884 0.0
C2487 C 0.2814 0.31438 0.52396 0.0
C2488 C 0.26948 0.31 0.55478 0.0
C2489 C 0.27093 0.30434 0.61035 0.0
C2490 C 0.28431 0.303 0.63516 0.0
C2491 C 0.29626 0.30737 0.60455 0.0
H2492 H 0.26169 0.30096 0.63414 0.0
H2493 H 0.37839 0.34359 0.34223 0.0
H2494 H 0.73813 0.34658 0.52602 0.0
H2495 H 0.71884 0.3298 0.53708 0.0
H2496 H 0.69584 0.35085 0.40065 0.0
H2497 H 0.71552 0.36722 0.38729 0.0
H2498 H 0.69362 0.3316 0.56902 0.0
H2499 H 0.67428 0.32839 0.33089 0.0
H2500 H 0.68397 0.33073 0.23213 0.0
H2501 H 0.725 0.31896 0.2943 0.0
H2502 H 0.71552 0.31637 0.39323 0.0
H2503 H 0.62979 0.29394 0.5757 0.0
H2504 H 0.64739 0.3121 0.55485 0.0
H2505 H 0.67098 0.28226 0.45199 0.0
H2506 H 0.65302 0.26435 0.47009 0.0
H2507 H 0.67277 0.30599 0.40241 0.0
H2508 H 0.67944 0.29066 0.59801 0.0
H2509 H 0.67251 0.28551 0.69881 0.0
H2510 H 0.66201 0.32911 0.72509 0.0
H2511 H 0.66871 0.33448 0.62414 0.0
C2512 C 0.72898 0.3476 0.4982 0.0
C2513 C 0.72837 0.35814 0.45549 0.0
C2514 C 0.71793 0.33803 0.5047 0.0
C2515 C 0.70591 0.33892 0.46928 0.0
C2516 C 0.70513 0.3497 0.42756 0.0
C2517 C 0.71635 0.3591 0.42013 0.0
C2518 C 0.69426 0.32857 0.47651 0.0
C2519 C 0.68907 0.32602 0.5325 0.0
C2520 C 0.68845 0.32107 0.42912 0.0
C2521 C 0.6942 0.32235 0.36956 0.0
C2522 C 0.68535 0.32625 0.32342 0.0
C2523 C 0.69081 0.32763 0.26742 0.0
C2524 C 0.7051 0.32505 0.25699 0.0
C2525 C 0.71395 0.32101 0.30248 0.0
C2526 C 0.70854 0.3196 0.35852 0.0
C2527 C 0.63868 0.29131 0.54828 0.0
C2528 C 0.64009 0.27771 0.52486 0.0
C2529 C 0.64877 0.30167 0.53658 0.0
C2530 C 0.6607 0.29849 0.50285 0.0
C2531 C 0.66189 0.285 0.47814 0.0
C2532 C 0.65164 0.27475 0.48868 0.0
C2533 C 0.6722 0.30898 0.49496 0.0
C2534 C 0.67731 0.31161 0.43885 0.0
C2535 C 0.67838 0.31611 0.54253 0.0
C2536 C 0.67444 0.31294 0.60337 0.0
C2537 C 0.67557 0.29913 0.62519 0.0
C2538 C 0.67169 0.29617 0.68235 0.0
C2539 C 0.66679 0.30697 0.71828 0.0
C2540 C 0.66579 0.32075 0.69717 0.0
C2541 C 0.66963 0.32376 0.64001 0.0
H2542 H 0.66379 0.30466 0.76251 0.0
H2543 H 0.70931 0.32615 0.21364 0.0
loop_
_geom_bond_atom_site_label_1
_geom_bond_atom_site_label_2
_geom_bond_distance
_geom_bond_site_symmetry_2
_ccdc_geom_bond_type
Co0 O3 1.970 . S
Co0 N17 1.989 . S
Co0 O25 1.967 . S
Co0 O32 1.920 . S
Co1 O4 1.966 1_556 S
Co1 N10 2.022 . S
Co1 N18 1.993 1_556 S
Co1 O26 1.941 1_556 S
C2 O3 1.258 . S
C2 O4 1.263 . S
O3 Co0 1.970 . S
O3 C2 1.258 . S
O4 Co1 1.966 1_554 S
O4 C2 1.263 . S
C5 O6 1.235 . S
C5 O32 1.289 . S
O6 C5 1.235 . S
C7 C9 1.400 . S
C7 N10 1.351 . S
C7 C12 1.501 . S
C8 C9 1.387 . S
C8 N11 1.341 . S
C9 C7 1.400 . S
C9 C8 1.387 . S
N10 Co1 2.022 . S
N10 C7 1.351 . S
N10 N11 1.365 . S
N11 C8 1.341 . S
N11 N10 1.365 . S
N11 H31 0.862 . S
C12 C7 1.501 . S
C12 H13 0.961 . S
C12 H14 0.961 . S
C12 H15 0.960 . S
H13 C12 0.961 . S
H14 C12 0.961 . S
H15 C12 0.960 . S
C16 N17 1.342 . S
C16 C20 1.401 . S
C16 C21 1.499 . S
N17 Co0 1.989 . S
N17 C16 1.342 . S
N17 N18 1.388 . S
N18 Co1 1.993 1_554 S
N18 N17 1.388 . S
N18 C19 1.346 1_554 S
C19 N18 1.346 1_556 S
C19 C20 1.396 1_556 S
C19 C29 1.510 . S
C20 C16 1.401 . S
C20 C19 1.396 1_554 S
C21 C16 1.499 . S
C21 H22 0.959 . S
C21 H23 0.960 . S
C21 H24 0.961 . S
H22 C21 0.959 . S
H23 C21 0.960 . S
H24 C21 0.961 . S
O25 Co0 1.967 . S
O25 C33 1.258 . S
O26 Co1 1.941 1_554 S
O26 C33 1.266 . S
H27 C29 0.959 . S
H28 C29 0.961 . S
C29 C19 1.510 . S
C29 H27 0.959 . S
C29 H28 0.961 . S
C29 H30 0.960 . S
H30 C29 0.960 . S
H31 N11 0.862 . S
O32 Co0 1.920 . S
O32 C5 1.289 . S
C33 O25 1.258 . S
C33 O26 1.266 . S
Co34 O37 1.970 . S
Co34 N51 1.989 . S
Co34 O59 1.967 . S
Co34 O66 1.920 . S
Co35 O38 1.966 1_556 S
Co35 N44 2.022 . S
Co35 N52 1.993 1_556 S
Co35 O60 1.941 1_556 S
C36 O37 1.258 . S
C36 O38 1.263 . S
O37 Co34 1.970 . S
O37 C36 1.258 . S
O38 Co35 1.966 1_554 S
O38 C36 1.263 . S
C39 O40 1.235 . S
C39 O66 1.289 . S
O40 C39 1.235 . S
C41 C43 1.400 . S
C41 N44 1.351 . S
C41 C46 1.501 . S
C42 C43 1.387 . S
C42 N45 1.341 . S
C43 C41 1.400 . S
C43 C42 1.387 . S
N44 Co35 2.022 . S
N44 C41 1.351 . S
N44 N45 1.365 . S
N45 C42 1.341 . S
N45 N44 1.365 . S
N45 H65 0.862 . S
C46 C41 1.501 . S
C46 H47 0.961 . S
C46 H48 0.961 . S
C46 H49 0.960 . S
H47 C46 0.961 . S
H48 C46 0.961 . S
H49 C46 0.960 . S
C50 N51 1.342 . S
C50 C54 1.401 . S
C50 C55 1.499 . S
N51 Co34 1.989 . S
N51 C50 1.342 . S
N51 N52 1.388 . S
N52 Co35 1.993 1_554 S
N52 N51 1.388 . S
N52 C53 1.346 1_554 S
C53 N52 1.346 1_556 S
C53 C54 1.396 1_556 S
C53 C63 1.510 . S
C54 C50 1.401 . S
C54 C53 1.396 1_554 S
C55 C50 1.499 . S
C55 H56 0.959 . S
C55 H57 0.960 . S
C55 H58 0.961 . S
H56 C55 0.959 . S
H57 C55 0.960 . S
H58 C55 0.961 . S
O59 Co34 1.967 . S
O59 C67 1.258 . S
O60 Co35 1.941 1_554 S
O60 C67 1.266 . S
H61 C63 0.959 . S
H62 C63 0.961 . S
C63 C53 1.510 . S
C63 H61 0.959 . S
C63 H62 0.961 . S
C63 H64 0.960 . S
H64 C63 0.960 . S
H65 N45 0.862 . S
O66 Co34 1.920 . S
O66 C39 1.289 . S
C67 O59 1.258 . S
C67 O60 1.266 . S
Co68 O71 1.970 . S
Co68 N85 1.989 . S
Co68 O93 1.967 . S
Co68 O100 1.920 . S
Co69 O72 1.966 1_556 S
Co69 N78 2.022 . S
Co69 N86 1.993 1_556 S
Co69 O94 1.941 1_556 S
C70 O71 1.258 . S
C70 O72 1.263 . S
O71 Co68 1.970 . S
O71 C70 1.258 . S
O72 Co69 1.966 1_554 S
O72 C70 1.263 . S
C73 O74 1.235 . S
C73 O100 1.289 . S
O74 C73 1.235 . S
C75 C77 1.400 . S
C75 N78 1.351 . S
C75 C80 1.501 . S
C76 C77 1.387 . S
C76 N79 1.341 . S
C77 C75 1.400 . S
C77 C76 1.387 . S
N78 Co69 2.022 . S
N78 C75 1.351 . S
N78 N79 1.365 . S
N79 C76 1.341 . S
N79 N78 1.365 . S
N79 H99 0.862 . S
C80 C75 1.501 . S
C80 H81 0.961 . S
C80 H82 0.961 . S
C80 H83 0.960 . S
H81 C80 0.961 . S
H82 C80 0.961 . S
H83 C80 0.960 . S
C84 N85 1.342 . S
C84 C88 1.401 . S
C84 C89 1.499 . S
N85 Co68 1.989 . S
N85 C84 1.342 . S
N85 N86 1.388 . S
N86 Co69 1.993 1_554 S
N86 N85 1.388 . S
N86 C87 1.346 1_554 S
C87 N86 1.346 1_556 S
C87 C88 1.396 1_556 S
C87 C97 1.510 . S
C88 C84 1.401 . S
C88 C87 1.396 1_554 S
C89 C84 1.499 . S
C89 H90 0.959 . S
C89 H91 0.960 . S
C89 H92 0.961 . S
H90 C89 0.959 . S
H91 C89 0.960 . S
H92 C89 0.961 . S
O93 Co68 1.967 . S
O93 C101 1.258 . S
O94 Co69 1.941 1_554 S
O94 C101 1.266 . S
H95 C97 0.959 . S
H96 C97 0.961 . S
C97 C87 1.510 . S
C97 H95 0.959 . S
C97 H96 0.961 . S
C97 H98 0.960 . S
H98 C97 0.960 . S
H99 N79 0.862 . S
O100 Co68 1.920 . S
O100 C73 1.289 . S
C101 O93 1.258 . S
C101 O94 1.266 . S
Co102 O105 1.970 . S
Co102 N119 1.989 . S
Co102 O127 1.967 . S
Co102 O134 1.920 . S
Co103 O106 1.966 1_556 S
Co103 N112 2.022 . S
Co103 N120 1.993 1_556 S
Co103 O128 1.941 1_556 S
C104 O105 1.258 . S
C104 O106 1.263 . S
O105 Co102 1.970 . S
O105 C104 1.258 . S
O106 Co103 1.966 1_554 S
O106 C104 1.263 . S
C107 O108 1.235 . S
C107 O134 1.289 . S
O108 C107 1.235 . S
C109 C111 1.400 . S
C109 N112 1.351 . S
C109 C114 1.501 . S
C110 C111 1.387 . S
C110 N113 1.341 . S
C111 C109 1.400 . S
C111 C110 1.387 . S
N112 Co103 2.022 . S
N112 C109 1.351 . S
N112 N113 1.365 . S
N113 C110 1.341 . S
N113 N112 1.365 . S
N113 H133 0.862 . S
C114 C109 1.501 . S
C114 H115 0.961 . S
C114 H116 0.961 . S
C114 H117 0.960 . S
H115 C114 0.961 . S
H116 C114 0.961 . S
H117 C114 0.960 . S
C118 N119 1.342 . S
C118 C122 1.401 . S
C118 C123 1.499 . S
N119 Co102 1.989 . S
N119 C118 1.342 . S
N119 N120 1.388 . S
N120 Co103 1.993 1_554 S
N120 N119 1.388 . S
N120 C121 1.346 1_554 S
C121 N120 1.346 1_556 S
C121 C122 1.396 1_556 S
C121 C131 1.510 . S
C122 C118 1.401 . S
C122 C121 1.396 1_554 S
C123 C118 1.499 . S
C123 H124 0.959 . S
C123 H125 0.960 . S
C123 H126 0.961 . S
H124 C123 0.959 . S
H125 C123 0.960 . S
H126 C123 0.961 . S
O127 Co102 1.967 . S
O127 C135 1.258 . S
O128 Co103 1.941 1_554 S
O128 C135 1.266 . S
H129 C131 0.959 . S
H130 C131 0.961 . S
C131 C121 1.510 . S
C131 H129 0.959 . S
C131 H130 0.961 . S
C131 H132 0.960 . S
H132 C131 0.960 . S
H133 N113 0.862 . S
O134 Co102 1.920 . S
O134 C107 1.289 . S
C135 O127 1.258 . S
C135 O128 1.266 . S
Co136 O139 1.970 . S
Co136 N153 1.989 . S
Co136 O161 1.967 . S
Co136 O168 1.920 . S
Co137 O140 1.966 1_554 S
Co137 N146 2.022 . S
Co137 N154 1.993 1_554 S
Co137 O162 1.941 1_554 S
C138 O139 1.258 . S
C138 O140 1.263 . S
O139 Co136 1.970 . S
O139 C138 1.258 . S
O140 Co137 1.966 1_556 S
O140 C138 1.263 . S
C141 O142 1.235 . S
C141 O168 1.289 . S
O142 C141 1.235 . S
C143 C145 1.400 . S
C143 N146 1.351 . S
C143 C148 1.501 . S
C144 C145 1.387 . S
C144 N147 1.341 . S
C145 C143 1.400 . S
C145 C144 1.387 . S
N146 Co137 2.022 . S
N146 C143 1.351 . S
N146 N147 1.365 . S
N147 C144 1.341 . S
N147 N146 1.365 . S
N147 H167 0.862 . S
C148 C143 1.501 . S
C148 H149 0.961 . S
C148 H150 0.961 . S
C148 H151 0.960 . S
H149 C148 0.961 . S
H150 C148 0.961 . S
H151 C148 0.960 . S
C152 N153 1.342 . S
C152 C156 1.401 . S
C152 C157 1.499 . S
N153 Co136 1.989 . S
N153 C152 1.342 . S
N153 N154 1.388 . S
N154 Co137 1.993 1_556 S
N154 N153 1.388 . S
N154 C155 1.346 1_556 S
C155 N154 1.346 1_554 S
C155 C156 1.396 1_554 S
C155 C165 1.510 . S
C156 C152 1.401 . S
C156 C155 1.396 1_556 S
C157 C152 1.499 . S
C157 H158 0.959 . S
C157 H159 0.960 . S
C157 H160 0.961 . S
H158 C157 0.959 . S
H159 C157 0.960 . S
H160 C157 0.961 . S
O161 Co136 1.967 . S
O161 C169 1.258 . S
O162 Co137 1.941 1_556 S
O162 C169 1.266 . S
H163 C165 0.959 . S
H164 C165 0.961 . S
C165 C155 1.510 . S
C165 H163 0.959 . S
C165 H164 0.961 . S
C165 H166 0.960 . S
H166 C165 0.960 . S
H167 N147 0.862 . S
O168 Co136 1.920 . S
O168 C141 1.289 . S
C169 O161 1.258 . S
C169 O162 1.266 . S
Co170 O173 1.970 . S
Co170 N187 1.989 . S
Co170 O195 1.967 . S
Co170 O202 1.920 . S
Co171 O174 1.966 1_554 S
Co171 N180 2.022 . S
Co171 N188 1.993 1_554 S
Co171 O196 1.941 1_554 S
C172 O173 1.258 . S
C172 O174 1.263 . S
O173 Co170 1.970 . S
O173 C172 1.258 . S
O174 Co171 1.966 1_556 S
O174 C172 1.263 . S
C175 O176 1.235 . S
C175 O202 1.289 . S
O176 C175 1.235 . S
C177 C179 1.400 . S
C177 N180 1.351 . S
C177 C182 1.501 . S
C178 C179 1.387 . S
C178 N181 1.341 . S
C179 C177 1.400 . S
C179 C178 1.387 . S
N180 Co171 2.022 . S
N180 C177 1.351 . S
N180 N181 1.365 . S
N181 C178 1.341 . S
N181 N180 1.365 . S
N181 H201 0.862 . S
C182 C177 1.501 . S
C182 H183 0.961 . S
C182 H184 0.961 . S
C182 H185 0.960 . S
H183 C182 0.961 . S
H184 C182 0.961 . S
H185 C182 0.960 . S
C186 N187 1.342 . S
C186 C190 1.401 . S
C186 C191 1.499 . S
N187 Co170 1.989 . S
N187 C186 1.342 . S
N187 N188 1.388 . S
N188 Co171 1.993 1_556 S
N188 N187 1.388 . S
N188 C189 1.346 1_556 S
C189 N188 1.346 1_554 S
C189 C190 1.396 1_554 S
C189 C199 1.510 . S
C190 C186 1.401 . S
C190 C189 1.396 1_556 S
C191 C186 1.499 . S
C191 H192 0.959 . S
C191 H193 0.960 . S
C191 H194 0.961 . S
H192 C191 0.959 . S
H193 C191 0.960 . S
H194 C191 0.961 . S
O195 Co170 1.967 . S
O195 C203 1.258 . S
O196 Co171 1.941 1_556 S
O196 C203 1.266 . S
H197 C199 0.959 . S
H198 C199 0.961 . S
C199 C189 1.510 . S
C199 H197 0.959 . S
C199 H198 0.961 . S
C199 H200 0.960 . S
H200 C199 0.960 . S
H201 N181 0.862 . S
O202 Co170 1.920 . S
O202 C175 1.289 . S
C203 O195 1.258 . S
C203 O196 1.266 . S
Co204 O207 1.970 . S
Co204 N221 1.989 . S
Co204 O229 1.967 . S
Co204 O236 1.920 . S
Co205 O208 1.966 1_554 S
Co205 N214 2.022 . S
Co205 N222 1.993 1_554 S
Co205 O230 1.941 1_554 S
C206 O207 1.258 . S
C206 O208 1.263 . S
O207 Co204 1.970 . S
O207 C206 1.258 . S
O208 Co205 1.966 1_556 S
O208 C206 1.263 . S
C209 O210 1.235 . S
C209 O236 1.289 . S
O210 C209 1.235 . S
C211 C213 1.400 . S
C211 N214 1.351 . S
C211 C216 1.501 . S
C212 C213 1.387 . S
C212 N215 1.341 . S
C213 C211 1.400 . S
C213 C212 1.387 . S
N214 Co205 2.022 . S
N214 C211 1.351 . S
N214 N215 1.365 . S
N215 C212 1.341 . S
N215 N214 1.365 . S
N215 H235 0.862 . S
C216 C211 1.501 . S
C216 H217 0.961 . S
C216 H218 0.961 . S
C216 H219 0.960 . S
H217 C216 0.961 . S
H218 C216 0.961 . S
H219 C216 0.960 . S
C220 N221 1.342 . S
C220 C224 1.401 . S
C220 C225 1.499 . S
N221 Co204 1.989 . S
N221 C220 1.342 . S
N221 N222 1.388 . S
N222 Co205 1.993 1_556 S
N222 N221 1.388 . S
N222 C223 1.346 1_556 S
C223 N222 1.346 1_554 S
C223 C224 1.396 1_554 S
C223 C233 1.510 . S
C224 C220 1.401 . S
C224 C223 1.396 1_556 S
C225 C220 1.499 . S
C225 H226 0.959 . S
C225 H227 0.960 . S
C225 H228 0.961 . S
H226 C225 0.959 . S
H227 C225 0.960 . S
H228 C225 0.961 . S
O229 Co204 1.967 . S
O229 C237 1.258 . S
O230 Co205 1.941 1_556 S
O230 C237 1.266 . S
H231 C233 0.959 . S
H232 C233 0.961 . S
C233 C223 1.510 . S
C233 H231 0.959 . S
C233 H232 0.961 . S
C233 H234 0.960 . S
H234 C233 0.960 . S
H235 N215 0.862 . S
O236 Co204 1.920 . S
O236 C209 1.289 . S
C237 O229 1.258 . S
C237 O230 1.266 . S
Co238 O241 1.970 . S
Co238 N255 1.989 . S
Co238 O263 1.967 . S
Co238 O270 1.920 . S
Co239 O242 1.966 1_554 S
Co239 N248 2.022 . S
Co239 N256 1.993 1_554 S
Co239 O264 1.941 1_554 S
C240 O241 1.258 . S
C240 O242 1.263 . S
O241 Co238 1.970 . S
O241 C240 1.258 . S
O242 Co239 1.966 1_556 S
O242 C240 1.263 . S
C243 O244 1.235 . S
C243 O270 1.289 . S
O244 C243 1.235 . S
C245 C247 1.400 . S
C245 N248 1.351 . S
C245 C250 1.501 . S
C246 C247 1.387 . S
C246 N249 1.341 . S
C247 C245 1.400 . S
C247 C246 1.387 . S
N248 Co239 2.022 . S
N248 C245 1.351 . S
N248 N249 1.365 . S
N249 C246 1.341 . S
N249 N248 1.365 . S
N249 H269 0.862 . S
C250 C245 1.501 . S
C250 H251 0.961 . S
C250 H252 0.961 . S
C250 H253 0.960 . S
H251 C250 0.961 . S
H252 C250 0.961 . S
H253 C250 0.960 . S
C254 N255 1.342 . S
C254 C258 1.401 . S
C254 C259 1.499 . S
N255 Co238 1.989 . S
N255 C254 1.342 . S
N255 N256 1.388 . S
N256 Co239 1.993 1_556 S
N256 N255 1.388 . S
N256 C257 1.346 1_556 S
C257 N256 1.346 1_554 S
C257 C258 1.396 1_554 S
C257 C267 1.510 . S
C258 C254 1.401 . S
C258 C257 1.396 1_556 S
C259 C254 1.499 . S
C259 H260 0.959 . S
C259 H261 0.960 . S
C259 H262 0.961 . S
H260 C259 0.959 . S
H261 C259 0.960 . S
H262 C259 0.961 . S
O263 Co238 1.967 . S
O263 C271 1.258 . S
O264 Co239 1.941 1_556 S
O264 C271 1.266 . S
H265 C267 0.959 . S
H266 C267 0.961 . S
C267 C257 1.510 . S
C267 H265 0.959 . S
C267 H266 0.961 . S
C267 H268 0.960 . S
H268 C267 0.960 . S
H269 N249 0.862 . S
O270 Co238 1.920 . S
O270 C243 1.289 . S
C271 O263 1.258 . S
C271 O264 1.266 . S
Co272 O275 1.970 . S
Co272 N289 1.989 . S
Co272 O297 1.967 . S
Co272 O304 1.920 . S
Co273 O276 1.966 . S
Co273 N282 2.022 . S
Co273 N290 1.993 . S
Co273 O298 1.941 . S
C274 O275 1.258 . S
C274 O276 1.263 . S
O275 Co272 1.970 . S
O275 C274 1.258 . S
O276 Co273 1.966 . S
O276 C274 1.263 . S
C277 O278 1.235 . S
C277 O304 1.289 . S
O278 C277 1.235 . S
C279 C281 1.400 . S
C279 N282 1.351 . S
C279 C284 1.501 . S
C280 C281 1.387 . S
C280 N283 1.341 . S
C281 C279 1.400 . S
C281 C280 1.387 . S
N282 Co273 2.022 . S
N282 C279 1.351 . S
N282 N283 1.365 . S
N283 C280 1.341 . S
N283 N282 1.365 . S
N283 H303 0.862 . S
C284 C279 1.501 . S
C284 H285 0.961 . S
C284 H286 0.961 . S
C284 H287 0.960 . S
H285 C284 0.961 . S
H286 C284 0.961 . S
H287 C284 0.960 . S
C288 N289 1.342 . S
C288 C292 1.401 . S
C288 C293 1.499 . S
N289 Co272 1.989 . S
N289 C288 1.342 . S
N289 N290 1.388 . S
N290 Co273 1.993 . S
N290 N289 1.388 . S
N290 C291 1.346 . S
C291 N290 1.346 . S
C291 C292 1.396 . S
C291 C301 1.510 . S
C292 C288 1.401 . S
C292 C291 1.396 . S
C293 C288 1.499 . S
C293 H294 0.959 . S
C293 H295 0.960 . S
C293 H296 0.961 . S
H294 C293 0.959 . S
H295 C293 0.960 . S
H296 C293 0.961 . S
O297 Co272 1.967 . S
O297 C305 1.258 . S
O298 Co273 1.941 . S
O298 C305 1.266 . S
H299 C301 0.959 . S
H300 C301 0.961 . S
C301 C291 1.510 . S
C301 H299 0.959 . S
C301 H300 0.961 . S
C301 H302 0.960 . S
H302 C301 0.960 . S
H303 N283 0.862 . S
O304 Co272 1.920 . S
O304 C277 1.289 . S
C305 O297 1.258 . S
C305 O298 1.266 . S
Co306 O309 1.970 . S
Co306 N323 1.989 . S
Co306 O331 1.967 . S
Co306 O338 1.920 . S
Co307 O310 1.966 . S
Co307 N316 2.022 . S
Co307 N324 1.993 . S
Co307 O332 1.941 . S
C308 O309 1.258 . S
C308 O310 1.263 . S
O309 Co306 1.970 . S
O309 C308 1.258 . S
O310 Co307 1.966 . S
O310 C308 1.263 . S
C311 O312 1.235 . S
C311 O338 1.289 . S
O312 C311 1.235 . S
C313 C315 1.400 . S
C313 N316 1.351 . S
C313 C318 1.501 . S
C314 C315 1.387 . S
C314 N317 1.341 . S
C315 C313 1.400 . S
C315 C314 1.387 . S
N316 Co307 2.022 . S
N316 C313 1.351 . S
N316 N317 1.365 . S
N317 C314 1.341 . S
N317 N316 1.365 . S
N317 H337 0.862 . S
C318 C313 1.501 . S
C318 H319 0.961 . S
C318 H320 0.961 . S
C318 H321 0.960 . S
H319 C318 0.961 . S
H320 C318 0.961 . S
H321 C318 0.960 . S
C322 N323 1.342 . S
C322 C326 1.401 . S
C322 C327 1.499 . S
N323 Co306 1.989 . S
N323 C322 1.342 . S
N323 N324 1.388 . S
N324 Co307 1.993 . S
N324 N323 1.388 . S
N324 C325 1.346 . S
C325 N324 1.346 . S
C325 C326 1.396 . S
C325 C335 1.510 . S
C326 C322 1.401 . S
C326 C325 1.396 . S
C327 C322 1.499 . S
C327 H328 0.959 . S
C327 H329 0.960 . S
C327 H330 0.961 . S
H328 C327 0.959 . S
H329 C327 0.960 . S
H330 C327 0.961 . S
O331 Co306 1.967 . S
O331 C339 1.258 . S
O332 Co307 1.941 . S
O332 C339 1.266 . S
H333 C335 0.959 . S
H334 C335 0.961 . S
C335 C325 1.510 . S
C335 H333 0.959 . S
C335 H334 0.961 . S
C335 H336 0.960 . S
H336 C335 0.960 . S
H337 N317 0.862 . S
O338 Co306 1.920 . S
O338 C311 1.289 . S
C339 O331 1.258 . S
C339 O332 1.266 . S
Co340 O343 1.970 . S
Co340 N357 1.989 . S
Co340 O365 1.967 . S
Co340 O372 1.920 . S
Co341 O344 1.966 . S
Co341 N350 2.022 . S
Co341 N358 1.993 . S
Co341 O366 1.941 . S
C342 O343 1.258 . S
C342 O344 1.263 . S
O343 Co340 1.970 . S
O343 C342 1.258 . S
O344 Co341 1.966 . S
O344 C342 1.263 . S
C345 O346 1.235 . S
C345 O372 1.289 . S
O346 C345 1.235 . S
C347 C349 1.400 . S
C347 N350 1.351 . S
C347 C352 1.501 . S
C348 C349 1.387 . S
C348 N351 1.341 . S
C349 C347 1.400 . S
C349 C348 1.387 . S
N350 Co341 2.022 . S
N350 C347 1.351 . S
N350 N351 1.365 . S
N351 C348 1.341 . S
N351 N350 1.365 . S
N351 H371 0.862 . S
C352 C347 1.501 . S
C352 H353 0.961 . S
C352 H354 0.961 . S
C352 H355 0.960 . S
H353 C352 0.961 . S
H354 C352 0.961 . S
H355 C352 0.960 . S
C356 N357 1.342 . S
C356 C360 1.401 . S
C356 C361 1.499 . S
N357 Co340 1.989 . S
N357 C356 1.342 . S
N357 N358 1.388 . S
N358 Co341 1.993 . S
N358 N357 1.388 . S
N358 C359 1.346 . S
C359 N358 1.346 . S
C359 C360 1.396 . S
C359 C369 1.510 . S
C360 C356 1.401 . S
C360 C359 1.396 . S
C361 C356 1.499 . S
C361 H362 0.959 . S
C361 H363 0.960 . S
C361 H364 0.961 . S
H362 C361 0.959 . S
H363 C361 0.960 . S
H364 C361 0.961 . S
O365 Co340 1.967 . S
O365 C373 1.258 . S
O366 Co341 1.941 . S
O366 C373 1.266 . S
H367 C369 0.959 . S
H368 C369 0.961 . S
C369 C359 1.510 . S
C369 H367 0.959 . S
C369 H368 0.961 . S
C369 H370 0.960 . S
H370 C369 0.960 . S
H371 N351 0.862 . S
O372 Co340 1.920 . S
O372 C345 1.289 . S
C373 O365 1.258 . S
C373 O366 1.266 . S
Co374 O377 1.970 . S
Co374 N391 1.989 . S
Co374 O399 1.967 . S
Co374 O406 1.920 . S
Co375 O378 1.966 . S
Co375 N384 2.022 . S
Co375 N392 1.993 . S
Co375 O400 1.941 . S
C376 O377 1.258 . S
C376 O378 1.263 . S
O377 Co374 1.970 . S
O377 C376 1.258 . S
O378 Co375 1.966 . S
O378 C376 1.263 . S
C379 O380 1.235 . S
C379 O406 1.289 . S
O380 C379 1.235 . S
C381 C383 1.400 . S
C381 N384 1.351 . S
C381 C386 1.501 . S
C382 C383 1.387 . S
C382 N385 1.341 . S
C383 C381 1.400 . S
C383 C382 1.387 . S
N384 Co375 2.022 . S
N384 C381 1.351 . S
N384 N385 1.365 . S
N385 C382 1.341 . S
N385 N384 1.365 . S
N385 H405 0.862 . S
C386 C381 1.501 . S
C386 H387 0.961 . S
C386 H388 0.961 . S
C386 H389 0.960 . S
H387 C386 0.961 . S
H388 C386 0.961 . S
H389 C386 0.960 . S
C390 N391 1.342 . S
C390 C394 1.401 . S
C390 C395 1.499 . S
N391 Co374 1.989 . S
N391 C390 1.342 . S
N391 N392 1.388 . S
N392 Co375 1.993 . S
N392 N391 1.388 . S
N392 C393 1.346 . S
C393 N392 1.346 . S
C393 C394 1.396 . S
C393 C403 1.510 . S
C394 C390 1.401 . S
C394 C393 1.396 . S
C395 C390 1.499 . S
C395 H396 0.959 . S
C395 H397 0.960 . S
C395 H398 0.961 . S
H396 C395 0.959 . S
H397 C395 0.960 . S
H398 C395 0.961 . S
O399 Co374 1.967 . S
O399 C407 1.258 . S
O400 Co375 1.941 . S
O400 C407 1.266 . S
H401 C403 0.959 . S
H402 C403 0.961 . S
C403 C393 1.510 . S
C403 H401 0.959 . S
C403 H402 0.961 . S
C403 H404 0.960 . S
H404 C403 0.960 . S
H405 N385 0.862 . S
O406 Co374 1.920 . S
O406 C379 1.289 . S
C407 O399 1.258 . S
C407 O400 1.266 . S
Co408 O411 1.970 . S
Co408 N425 1.989 . S
Co408 O433 1.967 . S
Co408 O440 1.920 . S
Co409 O412 1.966 . S
Co409 N418 2.022 . S
Co409 N426 1.993 . S
Co409 O434 1.941 . S
C410 O411 1.258 . S
C410 O412 1.263 . S
O411 Co408 1.970 . S
O411 C410 1.258 . S
O412 Co409 1.966 . S
O412 C410 1.263 . S
C413 O414 1.235 . S
C413 O440 1.289 . S
O414 C413 1.235 . S
C415 C417 1.400 . S
C415 N418 1.351 . S
C415 C420 1.501 . S
C416 C417 1.387 . S
C416 N419 1.341 . S
C417 C415 1.400 . S
C417 C416 1.387 . S
N418 Co409 2.022 . S
N418 C415 1.351 . S
N418 N419 1.365 . S
N419 C416 1.341 . S
N419 N418 1.365 . S
N419 H439 0.862 . S
C420 C415 1.501 . S
C420 H421 0.961 . S
C420 H422 0.961 . S
C420 H423 0.960 . S
H421 C420 0.961 . S
H422 C420 0.961 . S
H423 C420 0.960 . S
C424 N425 1.342 . S
C424 C428 1.401 . S
C424 C429 1.499 . S
N425 Co408 1.989 . S
N425 C424 1.342 . S
N425 N426 1.388 . S
N426 Co409 1.993 . S
N426 N425 1.388 . S
N426 C427 1.346 . S
C427 N426 1.346 . S
C427 C428 1.396 . S
C427 C437 1.510 . S
C428 C424 1.401 . S
C428 C427 1.396 . S
C429 C424 1.499 . S
C429 H430 0.959 . S
C429 H431 0.960 . S
C429 H432 0.961 . S
H430 C429 0.959 . S
H431 C429 0.960 . S
H432 C429 0.961 . S
O433 Co408 1.967 . S
O433 C441 1.258 . S
O434 Co409 1.941 . S
O434 C441 1.266 . S
H435 C437 0.959 . S
H436 C437 0.961 . S
C437 C427 1.510 . S
C437 H435 0.959 . S
C437 H436 0.961 . S
C437 H438 0.960 . S
H438 C437 0.960 . S
H439 N419 0.862 . S
O440 Co408 1.920 . S
O440 C413 1.289 . S
C441 O433 1.258 . S
C441 O434 1.266 . S
Co442 O445 1.970 . S
Co442 N459 1.989 . S
Co442 O467 1.967 . S
Co442 O474 1.920 . S
Co443 O446 1.966 . S
Co443 N452 2.022 . S
Co443 N460 1.993 . S
Co443 O468 1.941 . S
C444 O445 1.258 . S
C444 O446 1.263 . S
O445 Co442 1.970 . S
O445 C444 1.258 . S
O446 Co443 1.966 . S
O446 C444 1.263 . S
C447 O448 1.235 . S
C447 O474 1.289 . S
O448 C447 1.235 . S
C449 C451 1.400 . S
C449 N452 1.351 . S
C449 C454 1.501 . S
C450 C451 1.387 . S
C450 N453 1.341 . S
C451 C449 1.400 . S
C451 C450 1.387 . S
N452 Co443 2.022 . S
N452 C449 1.351 . S
N452 N453 1.365 . S
N453 C450 1.341 . S
N453 N452 1.365 . S
N453 H473 0.862 . S
C454 C449 1.501 . S
C454 H455 0.961 . S
C454 H456 0.961 . S
C454 H457 0.960 . S
H455 C454 0.961 . S
H456 C454 0.961 . S
H457 C454 0.960 . S
C458 N459 1.342 . S
C458 C462 1.401 . S
C458 C463 1.499 . S
N459 Co442 1.989 . S
N459 C458 1.342 . S
N459 N460 1.388 . S
N460 Co443 1.993 . S
N460 N459 1.388 . S
N460 C461 1.346 . S
C461 N460 1.346 . S
C461 C462 1.396 . S
C461 C471 1.510 . S
C462 C458 1.401 . S
C462 C461 1.396 . S
C463 C458 1.499 . S
C463 H464 0.959 . S
C463 H465 0.960 . S
C463 H466 0.961 . S
H464 C463 0.959 . S
H465 C463 0.960 . S
H466 C463 0.961 . S
O467 Co442 1.967 . S
O467 C475 1.258 . S
O468 Co443 1.941 . S
O468 C475 1.266 . S
H469 C471 0.959 . S
H470 C471 0.961 . S
C471 C461 1.510 . S
C471 H469 0.959 . S
C471 H470 0.961 . S
C471 H472 0.960 . S
H472 C471 0.960 . S
H473 N453 0.862 . S
O474 Co442 1.920 . S
O474 C447 1.289 . S
C475 O467 1.258 . S
C475 O468 1.266 . S
Co476 O479 1.970 . S
Co476 N493 1.989 . S
Co476 O501 1.967 . S
Co476 O508 1.920 . S
Co477 O480 1.966 . S
Co477 N486 2.022 . S
Co477 N494 1.993 . S
Co477 O502 1.941 . S
C478 O479 1.258 . S
C478 O480 1.263 . S
O479 Co476 1.970 . S
O479 C478 1.258 . S
O480 Co477 1.966 . S
O480 C478 1.263 . S
C481 O482 1.235 . S
C481 O508 1.289 . S
O482 C481 1.235 . S
C483 C485 1.400 . S
C483 N486 1.351 . S
C483 C488 1.501 . S
C484 C485 1.387 . S
C484 N487 1.341 . S
C485 C483 1.400 . S
C485 C484 1.387 . S
N486 Co477 2.022 . S
N486 C483 1.351 . S
N486 N487 1.365 . S
N487 C484 1.341 . S
N487 N486 1.365 . S
N487 H507 0.862 . S
C488 C483 1.501 . S
C488 H489 0.961 . S
C488 H490 0.961 . S
C488 H491 0.960 . S
H489 C488 0.961 . S
H490 C488 0.961 . S
H491 C488 0.960 . S
C492 N493 1.342 . S
C492 C496 1.401 . S
C492 C497 1.499 . S
N493 Co476 1.989 . S
N493 C492 1.342 . S
N493 N494 1.388 . S
N494 Co477 1.993 . S
N494 N493 1.388 . S
N494 C495 1.346 . S
C495 N494 1.346 . S
C495 C496 1.396 . S
C495 C505 1.510 . S
C496 C492 1.401 . S
C496 C495 1.396 . S
C497 C492 1.499 . S
C497 H498 0.959 . S
C497 H499 0.960 . S
C497 H500 0.961 . S
H498 C497 0.959 . S
H499 C497 0.960 . S
H500 C497 0.961 . S
O501 Co476 1.967 . S
O501 C509 1.258 . S
O502 Co477 1.941 . S
O502 C509 1.266 . S
H503 C505 0.959 . S
H504 C505 0.961 . S
C505 C495 1.510 . S
C505 H503 0.959 . S
C505 H504 0.961 . S
C505 H506 0.960 . S
H506 C505 0.960 . S
H507 N487 0.862 . S
O508 Co476 1.920 . S
O508 C481 1.289 . S
C509 O501 1.258 . S
C509 O502 1.266 . S
Co510 O513 1.970 . S
Co510 N527 1.989 . S
Co510 O535 1.967 . S
Co510 O542 1.920 . S
Co511 O514 1.966 . S
Co511 N520 2.022 . S
Co511 N528 1.993 . S
Co511 O536 1.941 . S
C512 O513 1.258 . S
C512 O514 1.263 . S
O513 Co510 1.970 . S
O513 C512 1.258 . S
O514 Co511 1.966 . S
O514 C512 1.263 . S
C515 O516 1.235 . S
C515 O542 1.289 . S
O516 C515 1.235 . S
C517 C519 1.400 . S
C517 N520 1.351 . S
C517 C522 1.501 . S
C518 C519 1.387 . S
C518 N521 1.341 . S
C519 C517 1.400 . S
C519 C518 1.387 . S
N520 Co511 2.022 . S
N520 C517 1.351 . S
N520 N521 1.365 . S
N521 C518 1.341 . S
N521 N520 1.365 . S
N521 H541 0.862 . S
C522 C517 1.501 . S
C522 H523 0.961 . S
C522 H524 0.961 . S
C522 H525 0.960 . S
H523 C522 0.961 . S
H524 C522 0.961 . S
H525 C522 0.960 . S
C526 N527 1.342 . S
C526 C530 1.401 . S
C526 C531 1.499 . S
N527 Co510 1.989 . S
N527 C526 1.342 . S
N527 N528 1.388 . S
N528 Co511 1.993 . S
N528 N527 1.388 . S
N528 C529 1.346 . S
C529 N528 1.346 . S
C529 C530 1.396 . S
C529 C539 1.510 . S
C530 C526 1.401 . S
C530 C529 1.396 . S
C531 C526 1.499 . S
C531 H532 0.959 . S
C531 H533 0.960 . S
C531 H534 0.961 . S
H532 C531 0.959 . S
H533 C531 0.960 . S
H534 C531 0.961 . S
O535 Co510 1.967 . S
O535 C543 1.258 . S
O536 Co511 1.941 . S
O536 C543 1.266 . S
H537 C539 0.959 . S
H538 C539 0.961 . S
C539 C529 1.510 . S
C539 H537 0.959 . S
C539 H538 0.961 . S
C539 H540 0.960 . S
H540 C539 0.960 . S
H541 N521 0.862 . S
O542 Co510 1.920 . S
O542 C515 1.289 . S
C543 O535 1.258 . S
C543 O536 1.266 . S
H544 C562 0.951 . S
H545 C564 0.951 . S
H546 C566 0.950 . S
H547 C567 0.950 . S
H548 C569 0.950 . S
H549 C572 0.950 . S
H550 C573 0.950 . S
H551 C575 0.950 . S
H552 C576 0.950 . S
H553 C577 0.951 . S
H554 C579 0.951 . S
H555 C581 0.950 . S
H556 C582 0.950 . S
H557 C584 0.950 . S
H558 C587 0.950 . S
H559 C588 0.950 . S
H560 C590 0.950 . S
H561 C591 0.950 . S
C562 H544 0.951 . S
C562 C563 1.366 . S
C562 C564 1.388 . S
C563 C562 1.366 . S
C563 C567 1.385 . S
C564 H545 0.951 . S
C564 C562 1.388 . S
C564 C565 1.366 . S
C565 C564 1.366 . S
C565 C566 1.414 . S
C565 C568 1.499 . S
C566 H546 0.950 . S
C566 C565 1.414 . S
C566 C567 1.374 . S
C567 H547 0.950 . S
C567 C563 1.385 . S
C567 C566 1.374 . S
C568 C565 1.499 . S
C568 C569 1.373 . S
C568 C570 1.389 . S
C569 H548 0.950 . S
C569 C568 1.373 . S
C569 C585 1.377 . S
C570 C568 1.389 . S
C570 C571 1.524 . S
C570 C584 1.377 . S
C571 C570 1.524 . S
C571 C572 1.397 . S
C571 C576 1.363 . S
C572 H549 0.950 . S
C572 C571 1.397 . S
C572 C573 1.334 . S
C573 H550 0.950 . S
C573 C572 1.334 . S
C573 C574 1.287 . S
C574 C573 1.287 . S
C574 C575 1.524 . S
C574 H593 0.913 . S
C575 H551 0.950 . S
C575 C574 1.524 . S
C575 C576 1.415 . S
C576 H552 0.950 . S
C576 C571 1.363 . S
C576 C575 1.415 . S
C577 H553 0.951 . S
C577 C578 1.366 . S
C577 C579 1.388 . S
C578 C577 1.366 . S
C578 C582 1.385 . S
C579 H554 0.951 . S
C579 C577 1.388 . S
C579 C580 1.366 . S
C580 C579 1.366 . S
C580 C581 1.414 . S
C580 C583 1.499 . S
C581 H555 0.950 . S
C581 C580 1.414 . S
C581 C582 1.374 . S
C582 H556 0.950 . S
C582 C578 1.385 . S
C582 C581 1.374 . S
C583 C580 1.499 . S
C583 C584 1.373 . S
C583 C585 1.389 . S
C584 H557 0.950 . S
C584 C570 1.377 . S
C584 C583 1.373 . S
C585 C569 1.377 . S
C585 C583 1.389 . S
C585 C586 1.524 . S
C586 C585 1.524 . S
C586 C587 1.397 . S
C586 C591 1.363 . S
C587 H558 0.950 . S
C587 C586 1.397 . S
C587 C588 1.334 . S
C588 H559 0.950 . S
C588 C587 1.334 . S
C588 C589 1.287 . S
C589 C588 1.287 . S
C589 C590 1.524 . S
C589 H592 0.999 . S
C590 H560 0.950 . S
C590 C589 1.524 . S
C590 C591 1.415 . S
C591 H561 0.950 . S
C591 C586 1.363 . S
C591 C590 1.415 . S
H592 C589 0.999 . S
H593 C574 0.913 . S
H594 C612 0.951 . S
H595 C614 0.951 . S
H596 C616 0.950 . S
H597 C617 0.950 . S
H598 C619 0.950 . S
H599 C622 0.950 . S
H600 C623 0.950 . S
H601 C625 0.950 . S
H602 C626 0.950 . S
H603 C627 0.951 . S
H604 C629 0.951 . S
H605 C631 0.950 . S
H606 C632 0.950 . S
H607 C634 0.950 . S
H608 C637 0.950 . S
H609 C638 0.950 . S
H610 C640 0.950 . S
H611 C641 0.950 . S
C612 H594 0.951 . S
C612 C613 1.366 . S
C612 C614 1.388 . S
C613 C612 1.366 . S
C613 C617 1.385 . S
C614 H595 0.951 . S
C614 C612 1.388 . S
C614 C615 1.366 . S
C615 C614 1.366 . S
C615 C616 1.414 . S
C615 C618 1.499 . S
C616 H596 0.950 . S
C616 C615 1.414 . S
C616 C617 1.374 . S
C617 H597 0.950 . S
C617 C613 1.385 . S
C617 C616 1.374 . S
C618 C615 1.499 . S
C618 C619 1.373 . S
C618 C620 1.389 . S
C619 H598 0.950 . S
C619 C618 1.373 . S
C619 C635 1.377 . S
C620 C618 1.389 . S
C620 C621 1.524 . S
C620 C634 1.377 . S
C621 C620 1.524 . S
C621 C622 1.397 . S
C621 C626 1.363 . S
C622 H599 0.950 . S
C622 C621 1.397 . S
C622 C623 1.334 . S
C623 H600 0.950 . S
C623 C622 1.334 . S
C623 C624 1.287 . S
C624 C623 1.287 . S
C624 C625 1.524 . S
C624 H643 0.913 . S
C625 H601 0.950 . S
C625 C624 1.524 . S
C625 C626 1.415 . S
C626 H602 0.950 . S
C626 C621 1.363 . S
C626 C625 1.415 . S
C627 H603 0.951 . S
C627 C628 1.366 . S
C627 C629 1.388 . S
C628 C627 1.366 . S
C628 C632 1.385 . S
C629 H604 0.951 . S
C629 C627 1.388 . S
C629 C630 1.366 . S
C630 C629 1.366 . S
C630 C631 1.414 . S
C630 C633 1.499 . S
C631 H605 0.950 . S
C631 C630 1.414 . S
C631 C632 1.374 . S
C632 H606 0.950 . S
C632 C628 1.385 . S
C632 C631 1.374 . S
C633 C630 1.499 . S
C633 C634 1.373 . S
C633 C635 1.389 . S
C634 H607 0.950 . S
C634 C620 1.377 . S
C634 C633 1.373 . S
C635 C619 1.377 . S
C635 C633 1.389 . S
C635 C636 1.524 . S
C636 C635 1.524 . S
C636 C637 1.397 . S
C636 C641 1.363 . S
C637 H608 0.950 . S
C637 C636 1.397 . S
C637 C638 1.334 . S
C638 H609 0.950 . S
C638 C637 1.334 . S
C638 C639 1.287 . S
C639 C638 1.287 . S
C639 C640 1.524 . S
C639 H642 0.999 . S
C640 H610 0.950 . S
C640 C639 1.524 . S
C640 C641 1.415 . S
C641 H611 0.950 . S
C641 C636 1.363 . S
C641 C640 1.415 . S
H642 C639 0.999 . S
H643 C624 0.913 . S
H644 C662 0.951 . S
H645 C664 0.951 . S
H646 C666 0.950 . S
H647 C667 0.950 . S
H648 C669 0.950 . S
H649 C672 0.950 . S
H650 C673 0.950 . S
H651 C675 0.950 . S
H652 C676 0.950 . S
H653 C677 0.951 . S
H654 C679 0.951 . S
H655 C681 0.950 . S
H656 C682 0.950 . S
H657 C684 0.950 . S
H658 C687 0.950 . S
H659 C688 0.950 . S
H660 C690 0.950 . S
H661 C691 0.950 . S
C662 H644 0.951 . S
C662 C663 1.366 . S
C662 C664 1.388 . S
C663 C662 1.366 . S
C663 C667 1.385 . S
C664 H645 0.951 . S
C664 C662 1.388 . S
C664 C665 1.366 . S
C665 C664 1.366 . S
C665 C666 1.414 . S
C665 C668 1.499 . S
C666 H646 0.950 . S
C666 C665 1.414 . S
C666 C667 1.374 . S
C667 H647 0.950 . S
C667 C663 1.385 . S
C667 C666 1.374 . S
C668 C665 1.499 . S
C668 C669 1.373 . S
C668 C670 1.389 . S
C669 H648 0.950 . S
C669 C668 1.373 . S
C669 C685 1.377 . S
C670 C668 1.389 . S
C670 C671 1.524 . S
C670 C684 1.377 . S
C671 C670 1.524 . S
C671 C672 1.397 . S
C671 C676 1.363 . S
C672 H649 0.950 . S
C672 C671 1.397 . S
C672 C673 1.334 . S
C673 H650 0.950 . S
C673 C672 1.334 . S
C673 C674 1.287 . S
C674 C673 1.287 . S
C674 C675 1.524 . S
C674 H693 0.913 . S
C675 H651 0.950 . S
C675 C674 1.524 . S
C675 C676 1.415 . S
C676 H652 0.950 . S
C676 C671 1.363 . S
C676 C675 1.415 . S
C677 H653 0.951 . S
C677 C678 1.366 . S
C677 C679 1.388 . S
C678 C677 1.366 . S
C678 C682 1.385 . S
C679 H654 0.951 . S
C679 C677 1.388 . S
C679 C680 1.366 . S
C680 C679 1.366 . S
C680 C681 1.414 . S
C680 C683 1.499 . S
C681 H655 0.950 . S
C681 C680 1.414 . S
C681 C682 1.374 . S
C682 H656 0.950 . S
C682 C678 1.385 . S
C682 C681 1.374 . S
C683 C680 1.499 . S
C683 C684 1.373 . S
C683 C685 1.389 . S
C684 H657 0.950 . S
C684 C670 1.377 . S
C684 C683 1.373 . S
C685 C669 1.377 . S
C685 C683 1.389 . S
C685 C686 1.524 . S
C686 C685 1.524 . S
C686 C687 1.397 . S
C686 C691 1.363 . S
C687 H658 0.950 . S
C687 C686 1.397 . S
C687 C688 1.334 . S
C688 H659 0.950 . S
C688 C687 1.334 . S
C688 C689 1.287 . S
C689 C688 1.287 . S
C689 C690 1.524 . S
C689 H692 0.999 . S
C690 H660 0.950 . S
C690 C689 1.524 . S
C690 C691 1.415 . S
C691 H661 0.950 . S
C691 C686 1.363 . S
C691 C690 1.415 . S
H692 C689 0.999 . S
H693 C674 0.913 . S
H694 C712 0.951 . S
H695 C714 0.951 . S
H696 C716 0.950 . S
H697 C717 0.950 . S
H698 C719 0.950 . S
H699 C722 0.950 . S
H700 C723 0.950 . S
H701 C725 0.950 . S
H702 C726 0.950 . S
H703 C727 0.951 . S
H704 C729 0.951 . S
H705 C731 0.950 . S
H706 C732 0.950 . S
H707 C734 0.950 . S
H708 C737 0.950 . S
H709 C738 0.950 . S
H710 C740 0.950 . S
H711 C741 0.950 . S
C712 H694 0.951 . S
C712 C713 1.366 . S
C712 C714 1.388 . S
C713 C712 1.366 . S
C713 C717 1.385 . S
C714 H695 0.951 . S
C714 C712 1.388 . S
C714 C715 1.366 . S
C715 C714 1.366 . S
C715 C716 1.414 . S
C715 C718 1.499 . S
C716 H696 0.950 . S
C716 C715 1.414 . S
C716 C717 1.374 . S
C717 H697 0.950 . S
C717 C713 1.385 . S
C717 C716 1.374 . S
C718 C715 1.499 . S
C718 C719 1.373 . S
C718 C720 1.389 . S
C719 H698 0.950 . S
C719 C718 1.373 . S
C719 C735 1.377 . S
C720 C718 1.389 . S
C720 C721 1.524 . S
C720 C734 1.377 . S
C721 C720 1.524 . S
C721 C722 1.397 . S
C721 C726 1.363 . S
C722 H699 0.950 . S
C722 C721 1.397 . S
C722 C723 1.334 . S
C723 H700 0.950 . S
C723 C722 1.334 . S
C723 C724 1.287 . S
C724 C723 1.287 . S
C724 C725 1.524 . S
C724 H743 0.913 . S
C725 H701 0.950 . S
C725 C724 1.524 . S
C725 C726 1.415 . S
C726 H702 0.950 . S
C726 C721 1.363 . S
C726 C725 1.415 . S
C727 H703 0.951 . S
C727 C728 1.366 . S
C727 C729 1.388 . S
C728 C727 1.366 . S
C728 C732 1.385 . S
C729 H704 0.951 . S
C729 C727 1.388 . S
C729 C730 1.366 . S
C730 C729 1.366 . S
C730 C731 1.414 . S
C730 C733 1.499 . S
C731 H705 0.950 . S
C731 C730 1.414 . S
C731 C732 1.374 . S
C732 H706 0.950 . S
C732 C728 1.385 . S
C732 C731 1.374 . S
C733 C730 1.499 . S
C733 C734 1.373 . S
C733 C735 1.389 . S
C734 H707 0.950 . S
C734 C720 1.377 . S
C734 C733 1.373 . S
C735 C719 1.377 . S
C735 C733 1.389 . S
C735 C736 1.524 . S
C736 C735 1.524 . S
C736 C737 1.397 . S
C736 C741 1.363 . S
C737 H708 0.950 . S
C737 C736 1.397 . S
C737 C738 1.334 . S
C738 H709 0.950 . S
C738 C737 1.334 . S
C738 C739 1.287 . S
C739 C738 1.287 . S
C739 C740 1.524 . S
C739 H742 0.999 . S
C740 H710 0.950 . S
C740 C739 1.524 . S
C740 C741 1.415 . S
C741 H711 0.950 . S
C741 C736 1.363 . S
C741 C740 1.415 . S
H742 C739 0.999 . S
H743 C724 0.913 . S
H744 C762 0.951 . S
H745 C764 0.951 . S
H746 C766 0.950 . S
H747 C767 0.950 . S
H748 C769 0.950 . S
H749 C772 0.950 . S
H750 C773 0.950 . S
H751 C775 0.950 . S
H752 C776 0.950 . S
H753 C777 0.951 . S
H754 C779 0.951 . S
H755 C781 0.950 . S
H756 C782 0.950 . S
H757 C784 0.950 . S
H758 C787 0.950 . S
H759 C788 0.950 . S
H760 C790 0.950 . S
H761 C791 0.950 . S
C762 H744 0.951 . S
C762 C763 1.366 . S
C762 C764 1.388 . S
C763 C762 1.366 . S
C763 C767 1.385 . S
C764 H745 0.951 . S
C764 C762 1.388 . S
C764 C765 1.366 . S
C765 C764 1.366 . S
C765 C766 1.414 . S
C765 C768 1.499 . S
C766 H746 0.950 . S
C766 C765 1.414 . S
C766 C767 1.374 . S
C767 H747 0.950 . S
C767 C763 1.385 . S
C767 C766 1.374 . S
C768 C765 1.499 . S
C768 C769 1.373 . S
C768 C770 1.389 . S
C769 H748 0.950 . S
C769 C768 1.373 . S
C769 C785 1.377 . S
C770 C768 1.389 . S
C770 C771 1.524 . S
C770 C784 1.377 . S
C771 C770 1.524 . S
C771 C772 1.397 . S
C771 C776 1.363 . S
C772 H749 0.950 . S
C772 C771 1.397 . S
C772 C773 1.334 . S
C773 H750 0.950 . S
C773 C772 1.334 . S
C773 C774 1.287 . S
C774 C773 1.287 . S
C774 C775 1.524 . S
C774 H793 0.913 . S
C775 H751 0.950 . S
C775 C774 1.524 . S
C775 C776 1.415 . S
C776 H752 0.950 . S
C776 C771 1.363 . S
C776 C775 1.415 . S
C777 H753 0.951 . S
C777 C778 1.366 . S
C777 C779 1.388 . S
C778 C777 1.366 . S
C778 C782 1.385 . S
C779 H754 0.951 . S
C779 C777 1.388 . S
C779 C780 1.366 . S
C780 C779 1.366 . S
C780 C781 1.414 . S
C780 C783 1.499 . S
C781 H755 0.950 . S
C781 C780 1.414 . S
C781 C782 1.374 . S
C782 H756 0.950 . S
C782 C778 1.385 . S
C782 C781 1.374 . S
C783 C780 1.499 . S
C783 C784 1.373 . S
C783 C785 1.389 . S
C784 H757 0.950 . S
C784 C770 1.377 . S
C784 C783 1.373 . S
C785 C769 1.377 . S
C785 C783 1.389 . S
C785 C786 1.524 . S
C786 C785 1.524 . S
C786 C787 1.397 . S
C786 C791 1.363 . S
C787 H758 0.950 . S
C787 C786 1.397 . S
C787 C788 1.334 . S
C788 H759 0.950 . S
C788 C787 1.334 . S
C788 C789 1.287 . S
C789 C788 1.287 . S
C789 C790 1.524 . S
C789 H792 0.999 . S
C790 H760 0.950 . S
C790 C789 1.524 . S
C790 C791 1.415 . S
C791 H761 0.950 . S
C791 C786 1.363 . S
C791 C790 1.415 . S
H792 C789 0.999 . S
H793 C774 0.913 . S
H794 C812 0.951 . S
H795 C814 0.951 . S
H796 C816 0.950 . S
H797 C817 0.950 . S
H798 C819 0.950 . S
H799 C822 0.950 . S
H800 C823 0.950 . S
H801 C825 0.950 . S
H802 C826 0.950 . S
H803 C827 0.951 . S
H804 C829 0.951 . S
H805 C831 0.950 . S
H806 C832 0.950 . S
H807 C834 0.950 . S
H808 C837 0.950 . S
H809 C838 0.950 . S
H810 C840 0.950 . S
H811 C841 0.950 . S
C812 H794 0.951 . S
C812 C813 1.366 . S
C812 C814 1.388 . S
C813 C812 1.366 . S
C813 C817 1.385 . S
C814 H795 0.951 . S
C814 C812 1.388 . S
C814 C815 1.366 . S
C815 C814 1.366 . S
C815 C816 1.414 . S
C815 C818 1.499 . S
C816 H796 0.950 . S
C816 C815 1.414 . S
C816 C817 1.374 . S
C817 H797 0.950 . S
C817 C813 1.385 . S
C817 C816 1.374 . S
C818 C815 1.499 . S
C818 C819 1.373 . S
C818 C820 1.389 . S
C819 H798 0.950 . S
C819 C818 1.373 . S
C819 C835 1.377 . S
C820 C818 1.389 . S
C820 C821 1.524 . S
C820 C834 1.377 . S
C821 C820 1.524 . S
C821 C822 1.397 . S
C821 C826 1.363 . S
C822 H799 0.950 . S
C822 C821 1.397 . S
C822 C823 1.334 . S
C823 H800 0.950 . S
C823 C822 1.334 . S
C823 C824 1.287 . S
C824 C823 1.287 . S
C824 C825 1.524 . S
C824 H843 0.913 . S
C825 H801 0.950 . S
C825 C824 1.524 . S
C825 C826 1.415 . S
C826 H802 0.950 . S
C826 C821 1.363 . S
C826 C825 1.415 . S
C827 H803 0.951 . S
C827 C828 1.366 . S
C827 C829 1.388 . S
C828 C827 1.366 . S
C828 C832 1.385 . S
C829 H804 0.951 . S
C829 C827 1.388 . S
C829 C830 1.366 . S
C830 C829 1.366 . S
C830 C831 1.414 . S
C830 C833 1.499 . S
C831 H805 0.950 . S
C831 C830 1.414 . S
C831 C832 1.374 . S
C832 H806 0.950 . S
C832 C828 1.385 . S
C832 C831 1.374 . S
C833 C830 1.499 . S
C833 C834 1.373 . S
C833 C835 1.389 . S
C834 H807 0.950 . S
C834 C820 1.377 . S
C834 C833 1.373 . S
C835 C819 1.377 . S
C835 C833 1.389 . S
C835 C836 1.524 . S
C836 C835 1.524 . S
C836 C837 1.397 . S
C836 C841 1.363 . S
C837 H808 0.950 . S
C837 C836 1.397 . S
C837 C838 1.334 . S
C838 H809 0.950 . S
C838 C837 1.334 . S
C838 C839 1.287 . S
C839 C838 1.287 . S
C839 C840 1.524 . S
C839 H842 0.999 . S
C840 H810 0.950 . S
C840 C839 1.524 . S
C840 C841 1.415 . S
C841 H811 0.950 . S
C841 C836 1.363 . S
C841 C840 1.415 . S
H842 C839 0.999 . S
H843 C824 0.913 . S
H844 C862 0.951 . S
H845 C864 0.951 . S
H846 C866 0.950 . S
H847 C867 0.950 . S
H848 C869 0.950 . S
H849 C872 0.950 . S
H850 C873 0.950 . S
H851 C875 0.950 . S
H852 C876 0.950 . S
H853 C877 0.951 . S
H854 C879 0.951 . S
H855 C881 0.950 . S
H856 C882 0.950 . S
H857 C884 0.950 . S
H858 C887 0.950 . S
H859 C888 0.950 . S
H860 C890 0.950 . S
H861 C891 0.950 . S
C862 H844 0.951 . S
C862 C863 1.366 . S
C862 C864 1.388 . S
C863 C862 1.366 . S
C863 C867 1.385 . S
C864 H845 0.951 . S
C864 C862 1.388 . S
C864 C865 1.366 . S
C865 C864 1.366 . S
C865 C866 1.414 . S
C865 C868 1.499 . S
C866 H846 0.950 . S
C866 C865 1.414 . S
C866 C867 1.374 . S
C867 H847 0.950 . S
C867 C863 1.385 . S
C867 C866 1.374 . S
C868 C865 1.499 . S
C868 C869 1.373 . S
C868 C870 1.389 . S
C869 H848 0.950 . S
C869 C868 1.373 . S
C869 C885 1.377 . S
C870 C868 1.389 . S
C870 C871 1.524 . S
C870 C884 1.377 . S
C871 C870 1.524 . S
C871 C872 1.397 . S
C871 C876 1.363 . S
C872 H849 0.950 . S
C872 C871 1.397 . S
C872 C873 1.334 . S
C873 H850 0.950 . S
C873 C872 1.334 . S
C873 C874 1.287 . S
C874 C873 1.287 . S
C874 C875 1.524 . S
C874 H893 0.913 . S
C875 H851 0.950 . S
C875 C874 1.524 . S
C875 C876 1.415 . S
C876 H852 0.950 . S
C876 C871 1.363 . S
C876 C875 1.415 . S
C877 H853 0.951 . S
C877 C878 1.366 . S
C877 C879 1.388 . S
C878 C877 1.366 . S
C878 C882 1.385 . S
C879 H854 0.951 . S
C879 C877 1.388 . S
C879 C880 1.366 . S
C880 C879 1.366 . S
C880 C881 1.414 . S
C880 C883 1.499 . S
C881 H855 0.950 . S
C881 C880 1.414 . S
C881 C882 1.374 . S
C882 H856 0.950 . S
C882 C878 1.385 . S
C882 C881 1.374 . S
C883 C880 1.499 . S
C883 C884 1.373 . S
C883 C885 1.389 . S
C884 H857 0.950 . S
C884 C870 1.377 . S
C884 C883 1.373 . S
C885 C869 1.377 . S
C885 C883 1.389 . S
C885 C886 1.524 . S
C886 C885 1.524 . S
C886 C887 1.397 . S
C886 C891 1.363 . S
C887 H858 0.950 . S
C887 C886 1.397 . S
C887 C888 1.334 . S
C888 H859 0.950 . S
C888 C887 1.334 . S
C888 C889 1.287 . S
C889 C888 1.287 . S
C889 C890 1.524 . S
C889 H892 0.999 . S
C890 H860 0.950 . S
C890 C889 1.524 . S
C890 C891 1.415 . S
C891 H861 0.950 . S
C891 C886 1.363 . S
C891 C890 1.415 . S
H892 C889 0.999 . S
H893 C874 0.913 . S
H894 C912 0.951 . S
H895 C914 0.951 . S
H896 C916 0.950 . S
H897 C917 0.950 . S
H898 C919 0.950 . S
H899 C922 0.950 . S
H900 C923 0.950 . S
H901 C925 0.950 . S
H902 C926 0.950 . S
H903 C927 0.951 . S
H904 C929 0.951 . S
H905 C931 0.950 . S
H906 C932 0.950 . S
H907 C934 0.950 . S
H908 C937 0.950 . S
H909 C938 0.950 . S
H910 C940 0.950 . S
H911 C941 0.950 . S
C912 H894 0.951 . S
C912 C913 1.366 . S
C912 C914 1.388 . S
C913 C912 1.366 . S
C913 C917 1.385 . S
C914 H895 0.951 . S
C914 C912 1.388 . S
C914 C915 1.366 . S
C915 C914 1.366 . S
C915 C916 1.414 . S
C915 C918 1.499 . S
C916 H896 0.950 . S
C916 C915 1.414 . S
C916 C917 1.374 . S
C917 H897 0.950 . S
C917 C913 1.385 . S
C917 C916 1.374 . S
C918 C915 1.499 . S
C918 C919 1.373 . S
C918 C920 1.389 . S
C919 H898 0.950 . S
C919 C918 1.373 . S
C919 C935 1.377 . S
C920 C918 1.389 . S
C920 C921 1.524 . S
C920 C934 1.377 . S
C921 C920 1.524 . S
C921 C922 1.397 . S
C921 C926 1.363 . S
C922 H899 0.950 . S
C922 C921 1.397 . S
C922 C923 1.334 . S
C923 H900 0.950 . S
C923 C922 1.334 . S
C923 C924 1.287 . S
C924 C923 1.287 . S
C924 C925 1.524 . S
C924 H943 0.913 . S
C925 H901 0.950 . S
C925 C924 1.524 . S
C925 C926 1.415 . S
C926 H902 0.950 . S
C926 C921 1.363 . S
C926 C925 1.415 . S
C927 H903 0.951 . S
C927 C928 1.366 . S
C927 C929 1.388 . S
C928 C927 1.366 . S
C928 C932 1.385 . S
C929 H904 0.951 . S
C929 C927 1.388 . S
C929 C930 1.366 . S
C930 C929 1.366 . S
C930 C931 1.414 . S
C930 C933 1.499 . S
C931 H905 0.950 . S
C931 C930 1.414 . S
C931 C932 1.374 . S
C932 H906 0.950 . S
C932 C928 1.385 . S
C932 C931 1.374 . S
C933 C930 1.499 . S
C933 C934 1.373 . S
C933 C935 1.389 . S
C934 H907 0.950 . S
C934 C920 1.377 . S
C934 C933 1.373 . S
C935 C919 1.377 . S
C935 C933 1.389 . S
C935 C936 1.524 . S
C936 C935 1.524 . S
C936 C937 1.397 . S
C936 C941 1.363 . S
C937 H908 0.950 . S
C937 C936 1.397 . S
C937 C938 1.334 . S
C938 H909 0.950 . S
C938 C937 1.334 . S
C938 C939 1.287 . S
C939 C938 1.287 . S
C939 C940 1.524 . S
C939 H942 0.999 . S
C940 H910 0.950 . S
C940 C939 1.524 . S
C940 C941 1.415 . S
C941 H911 0.950 . S
C941 C936 1.363 . S
C941 C940 1.415 . S
H942 C939 0.999 . S
H943 C924 0.913 . S
H944 C962 0.951 . S
H945 C964 0.951 . S
H946 C966 0.950 . S
H947 C967 0.950 . S
H948 C969 0.950 . S
H949 C972 0.950 . S
H950 C973 0.950 . S
H951 C975 0.950 . S
H952 C976 0.950 . S
H953 C977 0.951 . S
H954 C979 0.951 . S
H955 C981 0.950 . S
H956 C982 0.950 . S
H957 C984 0.950 . S
H958 C987 0.950 . S
H959 C988 0.950 . S
H960 C990 0.950 . S
H961 C991 0.950 1_554 S
C962 H944 0.951 . S
C962 C963 1.366 . S
C962 C964 1.388 . S
C963 C962 1.366 . S
C963 C967 1.385 . S
C964 H945 0.951 . S
C964 C962 1.388 . S
C964 C965 1.366 . S
C965 C964 1.366 . S
C965 C966 1.414 . S
C965 C968 1.499 . S
C966 H946 0.950 . S
C966 C965 1.414 . S
C966 C967 1.374 . S
C967 H947 0.950 . S
C967 C963 1.385 . S
C967 C966 1.374 . S
C968 C965 1.499 . S
C968 C969 1.373 . S
C968 C970 1.389 . S
C969 H948 0.950 . S
C969 C968 1.373 . S
C969 C985 1.377 1_554 S
C970 C968 1.389 . S
C970 C971 1.524 . S
C970 C984 1.377 1_554 S
C971 C970 1.524 . S
C971 C972 1.397 . S
C971 C976 1.363 . S
C972 H949 0.950 . S
C972 C971 1.397 . S
C972 C973 1.334 . S
C973 H950 0.950 . S
C973 C972 1.334 . S
C973 C974 1.287 . S
C974 C973 1.287 . S
C974 C975 1.524 . S
C974 H993 0.913 . S
C975 H951 0.950 . S
C975 C974 1.524 . S
C975 C976 1.415 . S
C976 H952 0.950 . S
C976 C971 1.363 . S
C976 C975 1.415 . S
C977 H953 0.951 . S
C977 C978 1.366 . S
C977 C979 1.388 . S
C978 C977 1.366 . S
C978 C982 1.385 . S
C979 H954 0.951 . S
C979 C977 1.388 . S
C979 C980 1.366 . S
C980 C979 1.366 . S
C980 C981 1.414 . S
C980 C983 1.499 . S
C981 H955 0.950 . S
C981 C980 1.414 . S
C981 C982 1.374 . S
C982 H956 0.950 . S
C982 C978 1.385 . S
C982 C981 1.374 . S
C983 C980 1.499 . S
C983 C984 1.373 . S
C983 C985 1.389 . S
C984 H957 0.950 . S
C984 C970 1.377 1_556 S
C984 C983 1.373 . S
C985 C969 1.377 1_556 S
C985 C983 1.389 . S
C985 C986 1.524 . S
C986 C985 1.524 . S
C986 C987 1.397 . S
C986 C991 1.363 . S
C987 H958 0.950 . S
C987 C986 1.397 . S
C987 C988 1.334 . S
C988 H959 0.950 . S
C988 C987 1.334 . S
C988 C989 1.287 . S
C989 C988 1.287 . S
C989 C990 1.524 . S
C989 H992 0.999 . S
C990 H960 0.950 . S
C990 C989 1.524 . S
C990 C991 1.415 . S
C991 H961 0.950 1_556 S
C991 C986 1.363 . S
C991 C990 1.415 . S
H992 C989 0.999 . S
H993 C974 0.913 . S
H994 C1012 0.951 . S
H995 C1014 0.951 . S
H996 C1016 0.950 . S
H997 C1017 0.950 . S
H998 C1019 0.950 . S
H999 C1022 0.950 . S
H1000 C1023 0.950 . S
H1001 C1025 0.950 . S
H1002 C1026 0.950 . S
H1003 C1027 0.951 . S
H1004 C1029 0.951 . S
H1005 C1031 0.950 . S
H1006 C1032 0.950 . S
H1007 C1034 0.950 . S
H1008 C1037 0.950 . S
H1009 C1038 0.950 . S
H1010 C1040 0.950 . S
H1011 C1041 0.950 1_554 S
C1012 H994 0.951 . S
C1012 C1013 1.366 . S
C1012 C1014 1.388 . S
C1013 C1012 1.366 . S
C1013 C1017 1.385 . S
C1014 H995 0.951 . S
C1014 C1012 1.388 . S
C1014 C1015 1.366 . S
C1015 C1014 1.366 . S
C1015 C1016 1.414 . S
C1015 C1018 1.499 . S
C1016 H996 0.950 . S
C1016 C1015 1.414 . S
C1016 C1017 1.374 . S
C1017 H997 0.950 . S
C1017 C1013 1.385 . S
C1017 C1016 1.374 . S
C1018 C1015 1.499 . S
C1018 C1019 1.373 . S
C1018 C1020 1.389 . S
C1019 H998 0.950 . S
C1019 C1018 1.373 . S
C1019 C1035 1.365 1_554 S
C1020 C1018 1.389 . S
C1020 C1021 1.524 . S
C1020 C1034 1.377 1_554 S
C1021 C1020 1.524 . S
C1021 C1022 1.397 . S
C1021 C1026 1.363 . S
C1022 H999 0.950 . S
C1022 C1021 1.397 . S
C1022 C1023 1.334 . S
C1023 H1000 0.950 . S
C1023 C1022 1.334 . S
C1023 C1024 1.287 . S
C1024 C1023 1.287 . S
C1024 C1025 1.524 . S
C1024 H1043 0.913 . S
C1025 H1001 0.950 . S
C1025 C1024 1.524 . S
C1025 C1026 1.415 . S
C1026 H1002 0.950 . S
C1026 C1021 1.363 . S
C1026 C1025 1.415 . S
C1027 H1003 0.951 . S
C1027 C1028 1.366 . S
C1027 C1029 1.388 . S
C1028 C1027 1.366 . S
C1028 C1032 1.385 . S
C1029 H1004 0.951 . S
C1029 C1027 1.388 . S
C1029 C1030 1.366 . S
C1030 C1029 1.366 . S
C1030 C1031 1.414 . S
C1030 C1033 1.499 . S
C1031 H1005 0.950 . S
C1031 C1030 1.414 . S
C1031 C1032 1.374 . S
C1032 H1006 0.950 . S
C1032 C1028 1.385 . S
C1032 C1031 1.374 . S
C1033 C1030 1.499 . S
C1033 C1034 1.373 . S
C1033 C1035 1.397 . S
C1034 H1007 0.950 . S
C1034 C1020 1.377 1_556 S
C1034 C1033 1.373 . S
C1035 C1019 1.365 1_556 S
C1035 C1033 1.397 . S
C1035 C1036 1.528 . S
C1036 C1035 1.528 . S
C1036 C1037 1.397 . S
C1036 C1041 1.363 . S
C1037 H1008 0.950 . S
C1037 C1036 1.397 . S
C1037 C1038 1.334 . S
C1038 H1009 0.950 . S
C1038 C1037 1.334 . S
C1038 C1039 1.287 . S
C1039 C1038 1.287 . S
C1039 C1040 1.524 . S
C1039 H1042 0.999 . S
C1040 H1010 0.950 . S
C1040 C1039 1.524 . S
C1040 C1041 1.415 . S
C1041 H1011 0.950 1_556 S
C1041 C1036 1.363 . S
C1041 C1040 1.415 . S
H1042 C1039 0.999 . S
H1043 C1024 0.913 . S
H1044 C1062 0.951 . S
H1045 C1064 0.951 . S
H1046 C1066 0.950 . S
H1047 C1067 0.950 . S
H1048 C1069 0.950 . S
H1049 C1072 0.950 . S
H1050 C1073 0.950 . S
H1051 C1075 0.950 . S
H1052 C1076 0.950 . S
H1053 C1077 0.951 . S
H1054 C1079 0.951 . S
H1055 C1081 0.950 . S
H1056 C1082 0.950 . S
H1057 C1084 0.950 . S
H1058 C1087 0.950 . S
H1059 C1088 0.950 . S
H1060 C1090 0.950 . S
H1061 C1091 0.950 1_554 S
C1062 H1044 0.951 . S
C1062 C1063 1.366 . S
C1062 C1064 1.388 . S
C1063 C1062 1.366 . S
C1063 C1067 1.385 . S
C1064 H1045 0.951 . S
C1064 C1062 1.388 . S
C1064 C1065 1.366 . S
C1065 C1064 1.366 . S
C1065 C1066 1.414 . S
C1065 C1068 1.499 . S
C1066 H1046 0.950 . S
C1066 C1065 1.414 . S
C1066 C1067 1.374 . S
C1067 H1047 0.950 . S
C1067 C1063 1.385 . S
C1067 C1066 1.374 . S
C1068 C1065 1.499 . S
C1068 C1069 1.373 . S
C1068 C1070 1.389 . S
C1069 H1048 0.950 . S
C1069 C1068 1.373 . S
C1069 C1085 1.377 1_554 S
C1070 C1068 1.389 . S
C1070 C1071 1.524 . S
C1070 C1084 1.377 1_554 S
C1071 C1070 1.524 . S
C1071 C1072 1.397 . S
C1071 C1076 1.363 . S
C1072 H1049 0.950 . S
C1072 C1071 1.397 . S
C1072 C1073 1.334 . S
C1073 H1050 0.950 . S
C1073 C1072 1.334 . S
C1073 C1074 1.287 . S
C1074 C1073 1.287 . S
C1074 C1075 1.524 . S
C1074 H1093 0.913 . S
C1075 H1051 0.950 . S
C1075 C1074 1.524 . S
C1075 C1076 1.415 . S
C1076 H1052 0.950 . S
C1076 C1071 1.363 . S
C1076 C1075 1.415 . S
C1077 H1053 0.951 . S
C1077 C1078 1.366 . S
C1077 C1079 1.388 . S
C1078 C1077 1.366 . S
C1078 C1082 1.385 . S
C1079 H1054 0.951 . S
C1079 C1077 1.388 . S
C1079 C1080 1.366 . S
C1080 C1079 1.366 . S
C1080 C1081 1.414 . S
C1080 C1083 1.499 . S
C1081 H1055 0.950 . S
C1081 C1080 1.414 . S
C1081 C1082 1.374 . S
C1082 H1056 0.950 . S
C1082 C1078 1.385 . S
C1082 C1081 1.374 . S
C1083 C1080 1.499 . S
C1083 C1084 1.373 . S
C1083 C1085 1.389 . S
C1084 H1057 0.950 . S
C1084 C1070 1.377 1_556 S
C1084 C1083 1.373 . S
C1085 C1069 1.377 1_556 S
C1085 C1083 1.389 . S
C1085 C1086 1.524 . S
C1086 C1085 1.524 . S
C1086 C1087 1.397 . S
C1086 C1091 1.363 . S
C1087 H1058 0.950 . S
C1087 C1086 1.397 . S
C1087 C1088 1.334 . S
C1088 H1059 0.950 . S
C1088 C1087 1.334 . S
C1088 C1089 1.287 . S
C1089 C1088 1.287 . S
C1089 C1090 1.524 . S
C1089 H1092 0.999 . S
C1090 H1060 0.950 . S
C1090 C1089 1.524 . S
C1090 C1091 1.415 . S
C1091 H1061 0.950 1_556 S
C1091 C1086 1.363 . S
C1091 C1090 1.415 . S
H1092 C1089 0.999 . S
H1093 C1074 0.913 . S
H1094 C1112 0.951 . S
H1095 C1114 0.951 . S
H1096 C1116 0.950 . S
H1097 C1117 0.950 . S
H1098 C1119 0.950 . S
H1099 C1122 0.950 . S
H1100 C1123 0.950 . S
H1101 C1125 0.950 . S
H1102 C1126 0.950 . S
H1103 C1127 0.951 . S
H1104 C1129 0.951 . S
H1105 C1131 0.950 . S
H1106 C1132 0.950 . S
H1107 C1134 0.950 . S
H1108 C1137 0.950 . S
H1109 C1138 0.950 . S
H1110 C1140 0.950 . S
H1111 C1141 0.950 . S
C1112 H1094 0.951 . S
C1112 C1113 1.366 . S
C1112 C1114 1.388 . S
C1113 C1112 1.366 . S
C1113 C1117 1.385 . S
C1114 H1095 0.951 . S
C1114 C1112 1.388 . S
C1114 C1115 1.366 . S
C1115 C1114 1.366 . S
C1115 C1116 1.414 . S
C1115 C1118 1.499 . S
C1116 H1096 0.950 . S
C1116 C1115 1.414 . S
C1116 C1117 1.374 . S
C1117 H1097 0.950 . S
C1117 C1113 1.385 . S
C1117 C1116 1.374 . S
C1118 C1115 1.499 . S
C1118 C1119 1.373 . S
C1118 C1120 1.389 . S
C1119 H1098 0.950 . S
C1119 C1118 1.373 . S
C1119 C1135 1.377 1_554 S
C1120 C1118 1.389 . S
C1120 C1121 1.524 . S
C1120 C1134 1.377 1_554 S
C1121 C1120 1.524 . S
C1121 C1122 1.397 . S
C1121 C1126 1.363 . S
C1122 H1099 0.950 . S
C1122 C1121 1.397 . S
C1122 C1123 1.334 . S
C1123 H1100 0.950 . S
C1123 C1122 1.334 . S
C1123 C1124 1.287 . S
C1124 C1123 1.287 . S
C1124 C1125 1.524 . S
C1124 H1143 0.913 . S
C1125 H1101 0.950 . S
C1125 C1124 1.524 . S
C1125 C1126 1.415 . S
C1126 H1102 0.950 . S
C1126 C1121 1.363 . S
C1126 C1125 1.415 . S
C1127 H1103 0.951 . S
C1127 C1128 1.366 . S
C1127 C1129 1.388 . S
C1128 C1127 1.366 . S
C1128 C1132 1.385 . S
C1129 H1104 0.951 . S
C1129 C1127 1.388 . S
C1129 C1130 1.366 . S
C1130 C1129 1.366 . S
C1130 C1131 1.414 . S
C1130 C1133 1.499 . S
C1131 H1105 0.950 . S
C1131 C1130 1.414 . S
C1131 C1132 1.374 . S
C1132 H1106 0.950 . S
C1132 C1128 1.385 . S
C1132 C1131 1.374 . S
C1133 C1130 1.499 . S
C1133 C1134 1.373 . S
C1133 C1135 1.389 . S
C1134 H1107 0.950 . S
C1134 C1120 1.377 1_556 S
C1134 C1133 1.373 . S
C1135 C1119 1.377 1_556 S
C1135 C1133 1.389 . S
C1135 C1136 1.524 . S
C1136 C1135 1.524 . S
C1136 C1137 1.397 . S
C1136 C1141 1.363 . S
C1137 H1108 0.950 . S
C1137 C1136 1.397 . S
C1137 C1138 1.334 . S
C1138 H1109 0.950 . S
C1138 C1137 1.334 . S
C1138 C1139 1.287 . S
C1139 C1138 1.287 . S
C1139 C1140 1.524 . S
C1139 H1142 0.999 . S
C1140 H1110 0.950 . S
C1140 C1139 1.524 . S
C1140 C1141 1.415 . S
C1141 H1111 0.950 . S
C1141 C1136 1.363 . S
C1141 C1140 1.415 . S
H1142 C1139 0.999 . S
H1143 C1124 0.913 . S
H1144 C1162 0.951 . S
H1145 C1164 0.951 . S
H1146 C1166 0.950 . S
H1147 C1167 0.950 . S
H1148 C1169 0.950 . S
H1149 C1172 0.950 . S
H1150 C1173 0.950 . S
H1151 C1175 0.950 . S
H1152 C1176 0.950 . S
H1153 C1177 0.951 . S
H1154 C1179 0.951 . S
H1155 C1181 0.950 . S
H1156 C1182 0.950 . S
H1157 C1184 0.950 . S
H1158 C1187 0.950 . S
H1159 C1188 0.950 . S
H1160 C1190 0.950 . S
H1161 C1191 0.950 . S
C1162 H1144 0.951 . S
C1162 C1163 1.366 . S
C1162 C1164 1.388 . S
C1163 C1162 1.366 . S
C1163 C1167 1.385 . S
C1164 H1145 0.951 . S
C1164 C1162 1.388 . S
C1164 C1165 1.366 . S
C1165 C1164 1.366 . S
C1165 C1166 1.414 . S
C1165 C1168 1.499 . S
C1166 H1146 0.950 . S
C1166 C1165 1.414 . S
C1166 C1167 1.374 . S
C1167 H1147 0.950 . S
C1167 C1163 1.385 . S
C1167 C1166 1.374 . S
C1168 C1165 1.499 . S
C1168 C1169 1.373 . S
C1168 C1170 1.389 . S
C1169 H1148 0.950 . S
C1169 C1168 1.373 . S
C1169 C1185 1.377 1_554 S
C1170 C1168 1.389 . S
C1170 C1171 1.524 . S
C1170 C1184 1.377 1_554 S
C1171 C1170 1.524 . S
C1171 C1172 1.397 . S
C1171 C1176 1.363 . S
C1172 H1149 0.950 . S
C1172 C1171 1.397 . S
C1172 C1173 1.334 . S
C1173 H1150 0.950 . S
C1173 C1172 1.334 . S
C1173 C1174 1.287 . S
C1174 C1173 1.287 . S
C1174 C1175 1.524 . S
C1174 H1193 0.913 . S
C1175 H1151 0.950 . S
C1175 C1174 1.524 . S
C1175 C1176 1.415 . S
C1176 H1152 0.950 . S
C1176 C1171 1.363 . S
C1176 C1175 1.415 . S
C1177 H1153 0.951 . S
C1177 C1178 1.366 . S
C1177 C1179 1.388 . S
C1178 C1177 1.366 . S
C1178 C1182 1.385 . S
C1179 H1154 0.951 . S
C1179 C1177 1.388 . S
C1179 C1180 1.366 . S
C1180 C1179 1.366 . S
C1180 C1181 1.414 . S
C1180 C1183 1.499 . S
C1181 H1155 0.950 . S
C1181 C1180 1.414 . S
C1181 C1182 1.374 . S
C1182 H1156 0.950 . S
C1182 C1178 1.385 . S
C1182 C1181 1.374 . S
C1183 C1180 1.499 . S
C1183 C1184 1.373 . S
C1183 C1185 1.389 . S
C1184 H1157 0.950 . S
C1184 C1170 1.377 1_556 S
C1184 C1183 1.373 . S
C1185 C1169 1.377 1_556 S
C1185 C1183 1.389 . S
C1185 C1186 1.524 . S
C1186 C1185 1.524 . S
C1186 C1187 1.397 . S
C1186 C1191 1.363 . S
C1187 H1158 0.950 . S
C1187 C1186 1.397 . S
C1187 C1188 1.334 . S
C1188 H1159 0.950 . S
C1188 C1187 1.334 . S
C1188 C1189 1.287 . S
C1189 C1188 1.287 . S
C1189 C1190 1.524 . S
C1189 H1192 0.999 . S
C1190 H1160 0.950 . S
C1190 C1189 1.524 . S
C1190 C1191 1.415 . S
C1191 H1161 0.950 . S
C1191 C1186 1.363 . S
C1191 C1190 1.415 . S
H1192 C1189 0.999 . S
H1193 C1174 0.913 . S
H1194 C1212 0.951 . S
H1195 C1214 0.951 . S
H1196 C1216 0.950 . S
H1197 C1217 0.950 . S
H1198 C1219 0.950 . S
H1199 C1222 0.950 . S
H1200 C1223 0.950 . S
H1201 C1225 0.950 . S
H1202 C1226 0.950 . S
H1203 C1227 0.951 . S
H1204 C1229 0.951 . S
H1205 C1231 0.950 . S
H1206 C1232 0.950 . S
H1207 C1234 0.950 . S
H1208 C1237 0.950 . S
H1209 C1238 0.950 . S
H1210 C1240 0.950 . S
H1211 C1241 0.950 . S
C1212 H1194 0.951 . S
C1212 C1213 1.366 . S
C1212 C1214 1.388 . S
C1213 C1212 1.366 . S
C1213 C1217 1.385 . S
C1214 H1195 0.951 . S
C1214 C1212 1.388 . S
C1214 C1215 1.366 . S
C1215 C1214 1.366 . S
C1215 C1216 1.414 . S
C1215 C1218 1.499 . S
C1216 H1196 0.950 . S
C1216 C1215 1.414 . S
C1216 C1217 1.374 . S
C1217 H1197 0.950 . S
C1217 C1213 1.385 . S
C1217 C1216 1.374 . S
C1218 C1215 1.499 . S
C1218 C1219 1.373 . S
C1218 C1220 1.389 . S
C1219 H1198 0.950 . S
C1219 C1218 1.373 . S
C1219 C1235 1.377 1_554 S
C1220 C1218 1.389 . S
C1220 C1221 1.524 . S
C1220 C1234 1.377 1_554 S
C1221 C1220 1.524 . S
C1221 C1222 1.397 . S
C1221 C1226 1.363 . S
C1222 H1199 0.950 . S
C1222 C1221 1.397 . S
C1222 C1223 1.334 . S
C1223 H1200 0.950 . S
C1223 C1222 1.334 . S
C1223 C1224 1.287 . S
C1224 C1223 1.287 . S
C1224 C1225 1.524 . S
C1224 H1243 0.913 . S
C1225 H1201 0.950 . S
C1225 C1224 1.524 . S
C1225 C1226 1.415 . S
C1226 H1202 0.950 . S
C1226 C1221 1.363 . S
C1226 C1225 1.415 . S
C1227 H1203 0.951 . S
C1227 C1228 1.366 . S
C1227 C1229 1.388 . S
C1228 C1227 1.366 . S
C1228 C1232 1.385 . S
C1229 H1204 0.951 . S
C1229 C1227 1.388 . S
C1229 C1230 1.366 . S
C1230 C1229 1.366 . S
C1230 C1231 1.414 . S
C1230 C1233 1.499 . S
C1231 H1205 0.950 . S
C1231 C1230 1.414 . S
C1231 C1232 1.374 . S
C1232 H1206 0.950 . S
C1232 C1228 1.385 . S
C1232 C1231 1.374 . S
C1233 C1230 1.499 . S
C1233 C1234 1.373 . S
C1233 C1235 1.389 . S
C1234 H1207 0.950 . S
C1234 C1220 1.377 1_556 S
C1234 C1233 1.373 . S
C1235 C1219 1.377 1_556 S
C1235 C1233 1.389 . S
C1235 C1236 1.524 . S
C1236 C1235 1.524 . S
C1236 C1237 1.397 . S
C1236 C1241 1.363 . S
C1237 H1208 0.950 . S
C1237 C1236 1.397 . S
C1237 C1238 1.334 . S
C1238 H1209 0.950 . S
C1238 C1237 1.334 . S
C1238 C1239 1.287 . S
C1239 C1238 1.287 . S
C1239 C1240 1.524 . S
C1239 H1242 0.999 . S
C1240 H1210 0.950 . S
C1240 C1239 1.524 . S
C1240 C1241 1.415 . S
C1241 H1211 0.950 . S
C1241 C1236 1.363 . S
C1241 C1240 1.415 . S
H1242 C1239 0.999 . S
H1243 C1224 0.913 . S
H1244 C1262 0.951 . S
H1245 C1264 0.951 . S
H1246 C1266 0.950 . S
H1247 C1267 0.950 . S
H1248 C1269 0.950 . S
H1249 C1272 0.950 . S
H1250 C1273 0.950 . S
H1251 C1275 0.950 . S
H1252 C1276 0.950 1_556 S
H1253 C1277 0.951 . S
H1254 C1279 0.951 . S
H1255 C1281 0.950 . S
H1256 C1282 0.950 . S
H1257 C1284 0.950 . S
H1258 C1287 0.950 . S
H1259 C1288 0.950 . S
H1260 C1290 0.950 . S
H1261 C1291 0.950 . S
C1262 H1244 0.951 . S
C1262 C1263 1.366 . S
C1262 C1264 1.388 . S
C1263 C1262 1.366 . S
C1263 C1267 1.385 . S
C1264 H1245 0.951 . S
C1264 C1262 1.388 . S
C1264 C1265 1.366 . S
C1265 C1264 1.366 . S
C1265 C1266 1.414 . S
C1265 C1268 1.499 . S
C1266 H1246 0.950 . S
C1266 C1265 1.414 . S
C1266 C1267 1.374 . S
C1267 H1247 0.950 . S
C1267 C1263 1.385 . S
C1267 C1266 1.374 . S
C1268 C1265 1.499 . S
C1268 C1269 1.373 . S
C1268 C1270 1.389 . S
C1269 H1248 0.950 . S
C1269 C1268 1.373 . S
C1269 C1285 1.377 1_554 S
C1270 C1268 1.389 . S
C1270 C1271 1.524 . S
C1270 C1284 1.377 1_554 S
C1271 C1270 1.524 . S
C1271 C1272 1.397 . S
C1271 C1276 1.363 . S
C1272 H1249 0.950 . S
C1272 C1271 1.397 . S
C1272 C1273 1.334 . S
C1273 H1250 0.950 . S
C1273 C1272 1.334 . S
C1273 C1274 1.287 . S
C1274 C1273 1.287 . S
C1274 C1275 1.524 . S
C1274 H1293 0.913 . S
C1275 H1251 0.950 . S
C1275 C1274 1.524 . S
C1275 C1276 1.415 . S
C1276 H1252 0.950 1_554 S
C1276 C1271 1.363 . S
C1276 C1275 1.415 . S
C1277 H1253 0.951 . S
C1277 C1278 1.366 . S
C1277 C1279 1.388 . S
C1278 C1277 1.366 . S
C1278 C1282 1.385 . S
C1279 H1254 0.951 . S
C1279 C1277 1.388 . S
C1279 C1280 1.366 . S
C1280 C1279 1.366 . S
C1280 C1281 1.414 . S
C1280 C1283 1.499 . S
C1281 H1255 0.950 . S
C1281 C1280 1.414 . S
C1281 C1282 1.374 . S
C1282 H1256 0.950 . S
C1282 C1278 1.385 . S
C1282 C1281 1.374 . S
C1283 C1280 1.499 . S
C1283 C1284 1.373 . S
C1283 C1285 1.389 . S
C1284 H1257 0.950 . S
C1284 C1270 1.377 1_556 S
C1284 C1283 1.373 . S
C1285 C1269 1.377 1_556 S
C1285 C1283 1.389 . S
C1285 C1286 1.524 . S
C1286 C1285 1.524 . S
C1286 C1287 1.397 . S
C1286 C1291 1.363 . S
C1287 H1258 0.950 . S
C1287 C1286 1.397 . S
C1287 C1288 1.334 . S
C1288 H1259 0.950 . S
C1288 C1287 1.334 . S
C1288 C1289 1.287 . S
C1289 C1288 1.287 . S
C1289 C1290 1.524 . S
C1289 H1292 0.999 . S
C1290 H1260 0.950 . S
C1290 C1289 1.524 . S
C1290 C1291 1.415 . S
C1291 H1261 0.950 . S
C1291 C1286 1.363 . S
C1291 C1290 1.415 . S
H1292 C1289 0.999 . S
H1293 C1274 0.913 . S
H1294 C1312 0.951 . S
H1295 C1314 0.951 . S
H1296 C1316 0.950 . S
H1297 C1317 0.950 . S
H1298 C1319 0.950 . S
H1299 C1322 0.950 . S
H1300 C1323 0.950 . S
H1301 C1325 0.950 . S
H1302 C1326 0.950 . S
H1303 C1327 0.951 . S
H1304 C1329 0.951 . S
H1305 C1331 0.950 . S
H1306 C1332 0.950 . S
H1307 C1334 0.950 . S
H1308 C1337 0.950 . S
H1309 C1338 0.950 . S
H1310 C1340 0.950 . S
H1311 C1341 0.950 . S
C1312 H1294 0.951 . S
C1312 C1313 1.366 . S
C1312 C1314 1.388 . S
C1313 C1312 1.366 . S
C1313 C1317 1.385 . S
C1314 H1295 0.951 . S
C1314 C1312 1.388 . S
C1314 C1315 1.366 . S
C1315 C1314 1.366 . S
C1315 C1316 1.414 . S
C1315 C1318 1.499 . S
C1316 H1296 0.950 . S
C1316 C1315 1.414 . S
C1316 C1317 1.374 . S
C1317 H1297 0.950 . S
C1317 C1313 1.385 . S
C1317 C1316 1.374 . S
C1318 C1315 1.499 . S
C1318 C1319 1.373 . S
C1318 C1320 1.389 . S
C1319 H1298 0.950 . S
C1319 C1318 1.373 . S
C1319 C1335 1.377 1_554 S
C1320 C1318 1.389 . S
C1320 C1321 1.524 . S
C1320 C1334 1.377 1_554 S
C1321 C1320 1.524 . S
C1321 C1322 1.397 . S
C1321 C1326 1.363 . S
C1322 H1299 0.950 . S
C1322 C1321 1.397 . S
C1322 C1323 1.334 . S
C1323 H1300 0.950 . S
C1323 C1322 1.334 . S
C1323 C1324 1.287 . S
C1324 C1323 1.287 . S
C1324 C1325 1.524 . S
C1324 H1343 0.913 . S
C1325 H1301 0.950 . S
C1325 C1324 1.524 . S
C1325 C1326 1.415 . S
C1326 H1302 0.950 . S
C1326 C1321 1.363 . S
C1326 C1325 1.415 . S
C1327 H1303 0.951 . S
C1327 C1328 1.366 . S
C1327 C1329 1.388 . S
C1328 C1327 1.366 . S
C1328 C1332 1.385 . S
C1329 H1304 0.951 . S
C1329 C1327 1.388 . S
C1329 C1330 1.366 . S
C1330 C1329 1.366 . S
C1330 C1331 1.414 . S
C1330 C1333 1.499 . S
C1331 H1305 0.950 . S
C1331 C1330 1.414 . S
C1331 C1332 1.374 . S
C1332 H1306 0.950 . S
C1332 C1328 1.385 . S
C1332 C1331 1.374 . S
C1333 C1330 1.499 . S
C1333 C1334 1.373 . S
C1333 C1335 1.389 . S
C1334 H1307 0.950 . S
C1334 C1320 1.377 1_556 S
C1334 C1333 1.373 . S
C1335 C1319 1.377 1_556 S
C1335 C1333 1.389 . S
C1335 C1336 1.524 . S
C1336 C1335 1.524 . S
C1336 C1337 1.397 . S
C1336 C1341 1.363 . S
C1337 H1308 0.950 . S
C1337 C1336 1.397 . S
C1337 C1338 1.334 . S
C1338 H1309 0.950 . S
C1338 C1337 1.334 . S
C1338 C1339 1.287 . S
C1339 C1338 1.287 . S
C1339 C1340 1.524 . S
C1339 H1342 0.999 . S
C1340 H1310 0.950 . S
C1340 C1339 1.524 . S
C1340 C1341 1.415 . S
C1341 H1311 0.950 . S
C1341 C1336 1.363 . S
C1341 C1340 1.415 . S
H1342 C1339 0.999 . S
H1343 C1324 0.913 . S
H1344 C1362 0.951 . S
H1345 C1364 0.951 . S
H1346 C1366 0.950 . S
H1347 C1367 0.950 . S
H1348 C1369 0.950 . S
H1349 C1372 0.950 . S
H1350 C1373 0.950 . S
H1351 C1375 0.950 . S
H1352 C1376 0.950 . S
H1353 C1377 0.951 . S
H1354 C1379 0.951 . S
H1355 C1381 0.950 . S
H1356 C1382 0.950 . S
H1357 C1384 0.950 . S
H1358 C1387 0.950 . S
H1359 C1388 0.950 . S
H1360 C1390 0.950 . S
H1361 C1391 0.950 . S
C1362 H1344 0.951 . S
C1362 C1363 1.366 . S
C1362 C1364 1.388 . S
C1363 C1362 1.366 . S
C1363 C1367 1.385 . S
C1364 H1345 0.951 . S
C1364 C1362 1.388 . S
C1364 C1365 1.366 . S
C1365 C1364 1.366 . S
C1365 C1366 1.414 . S
C1365 C1368 1.499 . S
C1366 H1346 0.950 . S
C1366 C1365 1.414 . S
C1366 C1367 1.374 . S
C1367 H1347 0.950 . S
C1367 C1363 1.385 . S
C1367 C1366 1.374 . S
C1368 C1365 1.499 . S
C1368 C1369 1.373 . S
C1368 C1370 1.389 . S
C1369 H1348 0.950 . S
C1369 C1368 1.373 . S
C1369 C1385 1.377 . S
C1370 C1368 1.389 . S
C1370 C1371 1.524 . S
C1370 C1384 1.377 . S
C1371 C1370 1.524 . S
C1371 C1372 1.397 . S
C1371 C1376 1.363 . S
C1372 H1349 0.950 . S
C1372 C1371 1.397 . S
C1372 C1373 1.334 . S
C1373 H1350 0.950 . S
C1373 C1372 1.334 . S
C1373 C1374 1.287 . S
C1374 C1373 1.287 . S
C1374 C1375 1.524 . S
C1374 H1393 0.913 . S
C1375 H1351 0.950 . S
C1375 C1374 1.524 . S
C1375 C1376 1.415 . S
C1376 H1352 0.950 . S
C1376 C1371 1.363 . S
C1376 C1375 1.415 . S
C1377 H1353 0.951 . S
C1377 C1378 1.366 . S
C1377 C1379 1.388 . S
C1378 C1377 1.366 . S
C1378 C1382 1.385 . S
C1379 H1354 0.951 . S
C1379 C1377 1.388 . S
C1379 C1380 1.366 . S
C1380 C1379 1.366 . S
C1380 C1381 1.414 . S
C1380 C1383 1.499 . S
C1381 H1355 0.950 . S
C1381 C1380 1.414 . S
C1381 C1382 1.374 . S
C1382 H1356 0.950 . S
C1382 C1378 1.385 . S
C1382 C1381 1.374 . S
C1383 C1380 1.499 . S
C1383 C1384 1.373 . S
C1383 C1385 1.389 . S
C1384 H1357 0.950 . S
C1384 C1370 1.377 . S
C1384 C1383 1.373 . S
C1385 C1369 1.377 . S
C1385 C1383 1.389 . S
C1385 C1386 1.524 . S
C1386 C1385 1.524 . S
C1386 C1387 1.397 . S
C1386 C1391 1.363 . S
C1387 H1358 0.950 . S
C1387 C1386 1.397 . S
C1387 C1388 1.334 . S
C1388 H1359 0.950 . S
C1388 C1387 1.334 . S
C1388 C1389 1.287 . S
C1389 C1388 1.287 . S
C1389 C1390 1.524 . S
C1389 H1392 0.999 . S
C1390 H1360 0.950 . S
C1390 C1389 1.524 . S
C1390 C1391 1.415 . S
C1391 H1361 0.950 . S
C1391 C1386 1.363 . S
C1391 C1390 1.415 . S
H1392 C1389 0.999 . S
H1393 C1374 0.913 . S
H1394 C1412 0.951 . S
H1395 C1414 0.951 . S
H1396 C1416 0.950 . S
H1397 C1417 0.950 . S
H1398 C1419 0.950 . S
H1399 C1422 0.950 . S
H1400 C1423 0.950 . S
H1401 C1425 0.950 . S
H1402 C1426 0.950 . S
H1403 C1427 0.951 . S
H1404 C1429 0.951 . S
H1405 C1431 0.950 . S
H1406 C1432 0.950 . S
H1407 C1434 0.950 . S
H1408 C1437 0.950 . S
H1409 C1438 0.950 . S
H1410 C1440 0.950 . S
H1411 C1441 0.950 . S
C1412 H1394 0.951 . S
C1412 C1413 1.366 . S
C1412 C1414 1.388 . S
C1413 C1412 1.366 . S
C1413 C1417 1.385 . S
C1414 H1395 0.951 . S
C1414 C1412 1.388 . S
C1414 C1415 1.366 . S
C1415 C1414 1.366 . S
C1415 C1416 1.414 . S
C1415 C1418 1.499 . S
C1416 H1396 0.950 . S
C1416 C1415 1.414 . S
C1416 C1417 1.374 . S
C1417 H1397 0.950 . S
C1417 C1413 1.385 . S
C1417 C1416 1.374 . S
C1418 C1415 1.499 . S
C1418 C1419 1.373 . S
C1418 C1420 1.389 . S
C1419 H1398 0.950 . S
C1419 C1418 1.373 . S
C1419 C1435 1.377 . S
C1420 C1418 1.389 . S
C1420 C1421 1.524 . S
C1420 C1434 1.377 . S
C1421 C1420 1.524 . S
C1421 C1422 1.397 . S
C1421 C1426 1.363 . S
C1422 H1399 0.950 . S
C1422 C1421 1.397 . S
C1422 C1423 1.334 . S
C1423 H1400 0.950 . S
C1423 C1422 1.334 . S
C1423 C1424 1.287 . S
C1424 C1423 1.287 . S
C1424 C1425 1.524 . S
C1424 H1443 0.913 . S
C1425 H1401 0.950 . S
C1425 C1424 1.524 . S
C1425 C1426 1.415 . S
C1426 H1402 0.950 . S
C1426 C1421 1.363 . S
C1426 C1425 1.415 . S
C1427 H1403 0.951 . S
C1427 C1428 1.366 . S
C1427 C1429 1.388 . S
C1428 C1427 1.366 . S
C1428 C1432 1.385 . S
C1429 H1404 0.951 . S
C1429 C1427 1.388 . S
C1429 C1430 1.366 . S
C1430 C1429 1.366 . S
C1430 C1431 1.414 . S
C1430 C1433 1.499 . S
C1431 H1405 0.950 . S
C1431 C1430 1.414 . S
C1431 C1432 1.374 . S
C1432 H1406 0.950 . S
C1432 C1428 1.385 . S
C1432 C1431 1.374 . S
C1433 C1430 1.499 . S
C1433 C1434 1.373 . S
C1433 C1435 1.389 . S
C1434 H1407 0.950 . S
C1434 C1420 1.377 . S
C1434 C1433 1.373 . S
C1435 C1419 1.377 . S
C1435 C1433 1.389 . S
C1435 C1436 1.524 . S
C1436 C1435 1.524 . S
C1436 C1437 1.397 . S
C1436 C1441 1.363 . S
C1437 H1408 0.950 . S
C1437 C1436 1.397 . S
C1437 C1438 1.334 . S
C1438 H1409 0.950 . S
C1438 C1437 1.334 . S
C1438 C1439 1.287 . S
C1439 C1438 1.287 . S
C1439 C1440 1.524 . S
C1439 H1442 0.999 . S
C1440 H1410 0.950 . S
C1440 C1439 1.524 . S
C1440 C1441 1.415 . S
C1441 H1411 0.950 . S
C1441 C1436 1.363 . S
C1441 C1440 1.415 . S
H1442 C1439 0.999 . S
H1443 C1424 0.913 . S
H1444 C1462 0.951 . S
H1445 C1464 0.951 . S
H1446 C1466 0.950 . S
H1447 C1467 0.950 . S
H1448 C1469 0.950 . S
H1449 C1472 0.950 . S
H1450 C1473 0.950 . S
H1451 C1475 0.950 . S
H1452 C1476 0.950 . S
H1453 C1477 0.951 . S
H1454 C1479 0.951 . S
H1455 C1481 0.950 . S
H1456 C1482 0.950 . S
H1457 C1484 0.950 . S
H1458 C1487 0.950 . S
H1459 C1488 0.950 . S
H1460 C1490 0.950 . S
H1461 C1491 0.950 . S
C1462 H1444 0.951 . S
C1462 C1463 1.366 . S
C1462 C1464 1.388 . S
C1463 C1462 1.366 . S
C1463 C1467 1.385 . S
C1464 H1445 0.951 . S
C1464 C1462 1.388 . S
C1464 C1465 1.366 . S
C1465 C1464 1.366 . S
C1465 C1466 1.414 . S
C1465 C1468 1.499 . S
C1466 H1446 0.950 . S
C1466 C1465 1.414 . S
C1466 C1467 1.374 . S
C1467 H1447 0.950 . S
C1467 C1463 1.385 . S
C1467 C1466 1.374 . S
C1468 C1465 1.499 . S
C1468 C1469 1.373 . S
C1468 C1470 1.389 . S
C1469 H1448 0.950 . S
C1469 C1468 1.373 . S
C1469 C1485 1.377 . S
C1470 C1468 1.389 . S
C1470 C1471 1.524 . S
C1470 C1484 1.377 . S
C1471 C1470 1.524 . S
C1471 C1472 1.397 . S
C1471 C1476 1.363 . S
C1472 H1449 0.950 . S
C1472 C1471 1.397 . S
C1472 C1473 1.334 . S
C1473 H1450 0.950 . S
C1473 C1472 1.334 . S
C1473 C1474 1.287 . S
C1474 C1473 1.287 . S
C1474 C1475 1.524 . S
C1474 H1493 0.913 . S
C1475 H1451 0.950 . S
C1475 C1474 1.524 . S
C1475 C1476 1.415 . S
C1476 H1452 0.950 . S
C1476 C1471 1.363 . S
C1476 C1475 1.415 . S
C1477 H1453 0.951 . S
C1477 C1478 1.366 . S
C1477 C1479 1.388 . S
C1478 C1477 1.366 . S
C1478 C1482 1.385 . S
C1479 H1454 0.951 . S
C1479 C1477 1.388 . S
C1479 C1480 1.366 . S
C1480 C1479 1.366 . S
C1480 C1481 1.414 . S
C1480 C1483 1.499 . S
C1481 H1455 0.950 . S
C1481 C1480 1.414 . S
C1481 C1482 1.374 . S
C1482 H1456 0.950 . S
C1482 C1478 1.385 . S
C1482 C1481 1.374 . S
C1483 C1480 1.499 . S
C1483 C1484 1.373 . S
C1483 C1485 1.389 . S
C1484 H1457 0.950 . S
C1484 C1470 1.377 . S
C1484 C1483 1.373 . S
C1485 C1469 1.377 . S
C1485 C1483 1.389 . S
C1485 C1486 1.524 . S
C1486 C1485 1.524 . S
C1486 C1487 1.397 . S
C1486 C1491 1.363 . S
C1487 H1458 0.950 . S
C1487 C1486 1.397 . S
C1487 C1488 1.334 . S
C1488 H1459 0.950 . S
C1488 C1487 1.334 . S
C1488 C1489 1.287 . S
C1489 C1488 1.287 . S
C1489 C1490 1.524 . S
C1489 H1492 0.999 1_554 S
C1490 H1460 0.950 . S
C1490 C1489 1.524 . S
C1490 C1491 1.415 . S
C1491 H1461 0.950 . S
C1491 C1486 1.363 . S
C1491 C1490 1.415 . S
H1492 C1489 0.999 1_556 S
H1493 C1474 0.913 . S
H1494 C1512 0.951 . S
H1495 C1514 0.951 . S
H1496 C1516 0.950 . S
H1497 C1517 0.950 . S
H1498 C1519 0.950 . S
H1499 C1522 0.950 . S
H1500 C1523 0.950 . S
H1501 C1525 0.950 . S
H1502 C1526 0.950 . S
H1503 C1527 0.951 . S
H1504 C1529 0.951 . S
H1505 C1531 0.950 . S
H1506 C1532 0.950 . S
H1507 C1534 0.950 . S
H1508 C1537 0.950 . S
H1509 C1538 0.950 . S
H1510 C1540 0.950 . S
H1511 C1541 0.950 . S
C1512 H1494 0.951 . S
C1512 C1513 1.366 . S
C1512 C1514 1.388 . S
C1513 C1512 1.366 . S
C1513 C1517 1.385 . S
C1514 H1495 0.951 . S
C1514 C1512 1.388 . S
C1514 C1515 1.366 . S
C1515 C1514 1.366 . S
C1515 C1516 1.414 . S
C1515 C1518 1.499 . S
C1516 H1496 0.950 . S
C1516 C1515 1.414 . S
C1516 C1517 1.374 . S
C1517 H1497 0.950 . S
C1517 C1513 1.385 . S
C1517 C1516 1.374 . S
C1518 C1515 1.499 . S
C1518 C1519 1.373 . S
C1518 C1520 1.389 . S
C1519 H1498 0.950 . S
C1519 C1518 1.373 . S
C1519 C1535 1.377 . S
C1520 C1518 1.389 . S
C1520 C1521 1.524 . S
C1520 C1534 1.377 . S
C1521 C1520 1.524 . S
C1521 C1522 1.397 . S
C1521 C1526 1.363 . S
C1522 H1499 0.950 . S
C1522 C1521 1.397 . S
C1522 C1523 1.334 . S
C1523 H1500 0.950 . S
C1523 C1522 1.334 . S
C1523 C1524 1.287 . S
C1524 C1523 1.287 . S
C1524 C1525 1.524 . S
C1524 H1543 0.913 . S
C1525 H1501 0.950 . S
C1525 C1524 1.524 . S
C1525 C1526 1.415 . S
C1526 H1502 0.950 . S
C1526 C1521 1.363 . S
C1526 C1525 1.415 . S
C1527 H1503 0.951 . S
C1527 C1528 1.366 . S
C1527 C1529 1.388 . S
C1528 C1527 1.366 . S
C1528 C1532 1.385 . S
C1529 H1504 0.951 . S
C1529 C1527 1.388 . S
C1529 C1530 1.366 . S
C1530 C1529 1.366 . S
C1530 C1531 1.414 . S
C1530 C1533 1.499 . S
C1531 H1505 0.950 . S
C1531 C1530 1.414 . S
C1531 C1532 1.374 . S
C1532 H1506 0.950 . S
C1532 C1528 1.385 . S
C1532 C1531 1.374 . S
C1533 C1530 1.499 . S
C1533 C1534 1.373 . S
C1533 C1535 1.389 . S
C1534 H1507 0.950 . S
C1534 C1520 1.377 . S
C1534 C1533 1.373 . S
C1535 C1519 1.377 . S
C1535 C1533 1.389 . S
C1535 C1536 1.524 . S
C1536 C1535 1.524 . S
C1536 C1537 1.397 . S
C1536 C1541 1.363 . S
C1537 H1508 0.950 . S
C1537 C1536 1.397 . S
C1537 C1538 1.334 . S
C1538 H1509 0.950 . S
C1538 C1537 1.334 . S
C1538 C1539 1.287 . S
C1539 C1538 1.287 . S
C1539 C1540 1.524 . S
C1539 H1542 0.999 . S
C1540 H1510 0.950 . S
C1540 C1539 1.524 . S
C1540 C1541 1.415 . S
C1541 H1511 0.950 . S
C1541 C1536 1.363 . S
C1541 C1540 1.415 . S
H1542 C1539 0.999 . S
H1543 C1524 0.913 . S
H1544 C1562 0.951 . S
H1545 C1564 0.951 . S
H1546 C1566 0.950 . S
H1547 C1567 0.950 . S
H1548 C1569 0.950 . S
H1549 C1572 0.950 . S
H1550 C1573 0.950 . S
H1551 C1575 0.950 . S
H1552 C1576 0.950 . S
H1553 C1577 0.951 . S
H1554 C1579 0.951 . S
H1555 C1581 0.950 . S
H1556 C1582 0.950 . S
H1557 C1584 0.950 . S
H1558 C1587 0.950 . S
H1559 C1588 0.950 . S
H1560 C1590 0.950 . S
H1561 C1591 0.950 . S
C1562 H1544 0.951 . S
C1562 C1563 1.366 . S
C1562 C1564 1.388 . S
C1563 C1562 1.366 . S
C1563 C1567 1.385 . S
C1564 H1545 0.951 . S
C1564 C1562 1.388 . S
C1564 C1565 1.366 . S
C1565 C1564 1.366 . S
C1565 C1566 1.414 . S
C1565 C1568 1.499 . S
C1566 H1546 0.950 . S
C1566 C1565 1.414 . S
C1566 C1567 1.374 . S
C1567 H1547 0.950 . S
C1567 C1563 1.385 . S
C1567 C1566 1.374 . S
C1568 C1565 1.499 . S
C1568 C1569 1.373 . S
C1568 C1570 1.389 . S
C1569 H1548 0.950 . S
C1569 C1568 1.373 . S
C1569 C1585 1.377 . S
C1570 C1568 1.389 . S
C1570 C1571 1.524 . S
C1570 C1584 1.377 . S
C1571 C1570 1.524 . S
C1571 C1572 1.397 . S
C1571 C1576 1.363 . S
C1572 H1549 0.950 . S
C1572 C1571 1.397 . S
C1572 C1573 1.334 . S
C1573 H1550 0.950 . S
C1573 C1572 1.334 . S
C1573 C1574 1.287 . S
C1574 C1573 1.287 . S
C1574 C1575 1.524 . S
C1574 H1593 0.913 . S
C1575 H1551 0.950 . S
C1575 C1574 1.524 . S
C1575 C1576 1.415 . S
C1576 H1552 0.950 . S
C1576 C1571 1.363 . S
C1576 C1575 1.415 . S
C1577 H1553 0.951 . S
C1577 C1578 1.366 . S
C1577 C1579 1.388 . S
C1578 C1577 1.366 . S
C1578 C1582 1.385 . S
C1579 H1554 0.951 . S
C1579 C1577 1.388 . S
C1579 C1580 1.366 . S
C1580 C1579 1.366 . S
C1580 C1581 1.414 . S
C1580 C1583 1.499 . S
C1581 H1555 0.950 . S
C1581 C1580 1.414 . S
C1581 C1582 1.374 . S
C1582 H1556 0.950 . S
C1582 C1578 1.385 . S
C1582 C1581 1.374 . S
C1583 C1580 1.499 . S
C1583 C1584 1.373 . S
C1583 C1585 1.389 . S
C1584 H1557 0.950 . S
C1584 C1570 1.377 . S
C1584 C1583 1.373 . S
C1585 C1569 1.377 . S
C1585 C1583 1.389 . S
C1585 C1586 1.524 . S
C1586 C1585 1.524 . S
C1586 C1587 1.397 . S
C1586 C1591 1.363 . S
C1587 H1558 0.950 . S
C1587 C1586 1.397 . S
C1587 C1588 1.334 . S
C1588 H1559 0.950 . S
C1588 C1587 1.334 . S
C1588 C1589 1.287 . S
C1589 C1588 1.287 . S
C1589 C1590 1.524 . S
C1589 H1592 0.999 . S
C1590 H1560 0.950 . S
C1590 C1589 1.524 . S
C1590 C1591 1.415 . S
C1591 H1561 0.950 . S
C1591 C1586 1.363 . S
C1591 C1590 1.415 . S
H1592 C1589 0.999 . S
H1593 C1574 0.913 . S
H1594 C1612 0.951 . S
H1595 C1614 0.951 . S
H1596 C1616 0.950 . S
H1597 C1617 0.950 . S
H1598 C1619 0.950 . S
H1599 C1622 0.950 . S
H1600 C1623 0.950 . S
H1601 C1625 0.950 . S
H1602 C1626 0.950 . S
H1603 C1627 0.951 . S
H1604 C1629 0.951 . S
H1605 C1631 0.950 . S
H1606 C1632 0.950 . S
H1607 C1634 0.950 . S
H1608 C1637 0.950 . S
H1609 C1638 0.950 . S
H1610 C1640 0.950 . S
H1611 C1641 0.950 . S
C1612 H1594 0.951 . S
C1612 C1613 1.366 . S
C1612 C1614 1.388 . S
C1613 C1612 1.366 . S
C1613 C1617 1.385 . S
C1614 H1595 0.951 . S
C1614 C1612 1.388 . S
C1614 C1615 1.366 . S
C1615 C1614 1.366 . S
C1615 C1616 1.414 . S
C1615 C1618 1.499 . S
C1616 H1596 0.950 . S
C1616 C1615 1.414 . S
C1616 C1617 1.374 . S
C1617 H1597 0.950 . S
C1617 C1613 1.385 . S
C1617 C1616 1.374 . S
C1618 C1615 1.499 . S
C1618 C1619 1.373 . S
C1618 C1620 1.389 . S
C1619 H1598 0.950 . S
C1619 C1618 1.373 . S
C1619 C1635 1.377 . S
C1620 C1618 1.389 . S
C1620 C1621 1.524 . S
C1620 C1634 1.377 . S
C1621 C1620 1.524 . S
C1621 C1622 1.397 . S
C1621 C1626 1.363 . S
C1622 H1599 0.950 . S
C1622 C1621 1.397 . S
C1622 C1623 1.334 . S
C1623 H1600 0.950 . S
C1623 C1622 1.334 . S
C1623 C1624 1.287 . S
C1624 C1623 1.287 . S
C1624 C1625 1.524 . S
C1624 H1643 0.913 . S
C1625 H1601 0.950 . S
C1625 C1624 1.524 . S
C1625 C1626 1.415 . S
C1626 H1602 0.950 . S
C1626 C1621 1.363 . S
C1626 C1625 1.415 . S
C1627 H1603 0.951 . S
C1627 C1628 1.366 . S
C1627 C1629 1.388 . S
C1628 C1627 1.366 . S
C1628 C1632 1.385 . S
C1629 H1604 0.951 . S
C1629 C1627 1.388 . S
C1629 C1630 1.366 . S
C1630 C1629 1.366 . S
C1630 C1631 1.414 . S
C1630 C1633 1.499 . S
C1631 H1605 0.950 . S
C1631 C1630 1.414 . S
C1631 C1632 1.374 . S
C1632 H1606 0.950 . S
C1632 C1628 1.385 . S
C1632 C1631 1.374 . S
C1633 C1630 1.499 . S
C1633 C1634 1.373 . S
C1633 C1635 1.389 . S
C1634 H1607 0.950 . S
C1634 C1620 1.377 . S
C1634 C1633 1.373 . S
C1635 C1619 1.377 . S
C1635 C1633 1.389 . S
C1635 C1636 1.524 . S
C1636 C1635 1.524 . S
C1636 C1637 1.397 . S
C1636 C1641 1.363 . S
C1637 H1608 0.950 . S
C1637 C1636 1.397 . S
C1637 C1638 1.334 . S
C1638 H1609 0.950 . S
C1638 C1637 1.334 . S
C1638 C1639 1.287 . S
C1639 C1638 1.287 . S
C1639 C1640 1.524 . S
C1639 H1642 0.999 . S
C1640 H1610 0.950 . S
C1640 C1639 1.524 . S
C1640 C1641 1.415 . S
C1641 H1611 0.950 . S
C1641 C1636 1.363 . S
C1641 C1640 1.415 . S
H1642 C1639 0.999 . S
H1643 C1624 0.913 . S
H1644 C1662 0.951 . S
H1645 C1664 0.951 . S
H1646 C1666 0.950 . S
H1647 C1667 0.950 . S
H1648 C1669 0.950 . S
H1649 C1672 0.950 . S
H1650 C1673 0.950 . S
H1651 C1675 0.950 . S
H1652 C1676 0.950 . S
H1653 C1677 0.951 . S
H1654 C1679 0.951 . S
H1655 C1681 0.950 . S
H1656 C1682 0.950 . S
H1657 C1684 0.950 . S
H1658 C1687 0.950 . S
H1659 C1688 0.950 . S
H1660 C1690 0.950 . S
H1661 C1691 0.950 . S
C1662 H1644 0.951 . S
C1662 C1663 1.366 . S
C1662 C1664 1.388 . S
C1663 C1662 1.366 . S
C1663 C1667 1.385 . S
C1664 H1645 0.951 . S
C1664 C1662 1.388 . S
C1664 C1665 1.366 . S
C1665 C1664 1.366 . S
C1665 C1666 1.414 . S
C1665 C1668 1.499 . S
C1666 H1646 0.950 . S
C1666 C1665 1.414 . S
C1666 C1667 1.374 . S
C1667 H1647 0.950 . S
C1667 C1663 1.385 . S
C1667 C1666 1.374 . S
C1668 C1665 1.499 . S
C1668 C1669 1.373 . S
C1668 C1670 1.389 . S
C1669 H1648 0.950 . S
C1669 C1668 1.373 . S
C1669 C1685 1.377 . S
C1670 C1668 1.389 . S
C1670 C1671 1.524 . S
C1670 C1684 1.377 . S
C1671 C1670 1.524 . S
C1671 C1672 1.397 . S
C1671 C1676 1.363 . S
C1672 H1649 0.950 . S
C1672 C1671 1.397 . S
C1672 C1673 1.334 . S
C1673 H1650 0.950 . S
C1673 C1672 1.334 . S
C1673 C1674 1.287 . S
C1674 C1673 1.287 . S
C1674 C1675 1.524 . S
C1674 H1693 0.913 1_556 S
C1675 H1651 0.950 . S
C1675 C1674 1.524 . S
C1675 C1676 1.415 . S
C1676 H1652 0.950 . S
C1676 C1671 1.363 . S
C1676 C1675 1.415 . S
C1677 H1653 0.951 . S
C1677 C1678 1.366 . S
C1677 C1679 1.388 . S
C1678 C1677 1.366 . S
C1678 C1682 1.385 . S
C1679 H1654 0.951 . S
C1679 C1677 1.388 . S
C1679 C1680 1.366 . S
C1680 C1679 1.366 . S
C1680 C1681 1.414 . S
C1680 C1683 1.499 . S
C1681 H1655 0.950 . S
C1681 C1680 1.414 . S
C1681 C1682 1.374 . S
C1682 H1656 0.950 . S
C1682 C1678 1.385 . S
C1682 C1681 1.374 . S
C1683 C1680 1.499 . S
C1683 C1684 1.373 . S
C1683 C1685 1.389 . S
C1684 H1657 0.950 . S
C1684 C1670 1.377 . S
C1684 C1683 1.373 . S
C1685 C1669 1.377 . S
C1685 C1683 1.389 . S
C1685 C1686 1.524 . S
C1686 C1685 1.524 . S
C1686 C1687 1.397 . S
C1686 C1691 1.363 . S
C1687 H1658 0.950 . S
C1687 C1686 1.397 . S
C1687 C1688 1.334 . S
C1688 H1659 0.950 . S
C1688 C1687 1.334 . S
C1688 C1689 1.287 . S
C1689 C1688 1.287 . S
C1689 C1690 1.524 . S
C1689 H1692 0.999 . S
C1690 H1660 0.950 . S
C1690 C1689 1.524 . S
C1690 C1691 1.415 . S
C1691 H1661 0.950 . S
C1691 C1686 1.363 . S
C1691 C1690 1.415 . S
H1692 C1689 0.999 . S
H1693 C1674 0.913 1_554 S
H1694 C1712 0.951 . S
H1695 C1714 0.951 . S
H1696 C1716 0.950 . S
H1697 C1717 0.950 . S
H1698 C1719 0.950 . S
H1699 C1722 0.950 . S
H1700 C1723 0.950 . S
H1701 C1725 0.950 . S
H1702 C1726 0.950 . S
H1703 C1727 0.951 . S
H1704 C1729 0.951 . S
H1705 C1731 0.950 . S
H1706 C1732 0.950 . S
H1707 C1734 0.950 . S
H1708 C1737 0.950 . S
H1709 C1738 0.950 . S
H1710 C1740 0.950 . S
H1711 C1741 0.950 . S
C1712 H1694 0.951 . S
C1712 C1713 1.366 . S
C1712 C1714 1.388 . S
C1713 C1712 1.366 . S
C1713 C1717 1.385 . S
C1714 H1695 0.951 . S
C1714 C1712 1.388 . S
C1714 C1715 1.366 . S
C1715 C1714 1.366 . S
C1715 C1716 1.414 . S
C1715 C1718 1.499 . S
C1716 H1696 0.950 . S
C1716 C1715 1.414 . S
C1716 C1717 1.374 . S
C1717 H1697 0.950 . S
C1717 C1713 1.385 . S
C1717 C1716 1.374 . S
C1718 C1715 1.499 . S
C1718 C1719 1.373 . S
C1718 C1720 1.389 . S
C1719 H1698 0.950 . S
C1719 C1718 1.373 . S
C1719 C1735 1.377 . S
C1720 C1718 1.389 . S
C1720 C1721 1.524 . S
C1720 C1734 1.377 . S
C1721 C1720 1.524 . S
C1721 C1722 1.397 . S
C1721 C1726 1.363 . S
C1722 H1699 0.950 . S
C1722 C1721 1.397 . S
C1722 C1723 1.334 . S
C1723 H1700 0.950 . S
C1723 C1722 1.334 . S
C1723 C1724 1.287 . S
C1724 C1723 1.287 . S
C1724 C1725 1.524 . S
C1724 H1743 0.913 . S
C1725 H1701 0.950 . S
C1725 C1724 1.524 . S
C1725 C1726 1.415 . S
C1726 H1702 0.950 . S
C1726 C1721 1.363 . S
C1726 C1725 1.415 . S
C1727 H1703 0.951 . S
C1727 C1728 1.366 . S
C1727 C1729 1.388 . S
C1728 C1727 1.366 . S
C1728 C1732 1.385 . S
C1729 H1704 0.951 . S
C1729 C1727 1.388 . S
C1729 C1730 1.366 . S
C1730 C1729 1.366 . S
C1730 C1731 1.414 . S
C1730 C1733 1.499 . S
C1731 H1705 0.950 . S
C1731 C1730 1.414 . S
C1731 C1732 1.374 . S
C1732 H1706 0.950 . S
C1732 C1728 1.385 . S
C1732 C1731 1.374 . S
C1733 C1730 1.499 . S
C1733 C1734 1.373 . S
C1733 C1735 1.389 . S
C1734 H1707 0.950 . S
C1734 C1720 1.377 . S
C1734 C1733 1.373 . S
C1735 C1719 1.377 . S
C1735 C1733 1.389 . S
C1735 C1736 1.524 . S
C1736 C1735 1.524 . S
C1736 C1737 1.397 . S
C1736 C1741 1.363 . S
C1737 H1708 0.950 . S
C1737 C1736 1.397 . S
C1737 C1738 1.334 . S
C1738 H1709 0.950 . S
C1738 C1737 1.334 . S
C1738 C1739 1.287 . S
C1739 C1738 1.287 . S
C1739 C1740 1.524 . S
C1739 H1742 0.999 . S
C1740 H1710 0.950 . S
C1740 C1739 1.524 . S
C1740 C1741 1.415 . S
C1741 H1711 0.950 . S
C1741 C1736 1.363 . S
C1741 C1740 1.415 . S
H1742 C1739 0.999 . S
H1743 C1724 0.913 . S
H1744 C1762 0.951 . S
H1745 C1764 0.951 . S
H1746 C1766 0.950 . S
H1747 C1767 0.950 . S
H1748 C1769 0.950 . S
H1749 C1772 0.950 . S
H1750 C1773 0.950 . S
H1751 C1775 0.950 . S
H1752 C1776 0.950 . S
H1753 C1777 0.951 . S
H1754 C1779 0.951 . S
H1755 C1781 0.950 . S
H1756 C1782 0.950 . S
H1757 C1784 0.950 . S
H1758 C1787 0.950 . S
H1759 C1788 0.950 . S
H1760 C1790 0.950 . S
H1761 C1791 0.950 . S
C1762 H1744 0.951 . S
C1762 C1763 1.366 1_556 S
C1762 C1764 1.388 . S
C1763 C1762 1.366 1_554 S
C1763 C1767 1.385 . S
C1764 H1745 0.951 . S
C1764 C1762 1.388 . S
C1764 C1765 1.366 1_556 S
C1765 C1764 1.366 1_554 S
C1765 C1766 1.414 . S
C1765 C1768 1.499 . S
C1766 H1746 0.950 . S
C1766 C1765 1.414 . S
C1766 C1767 1.374 . S
C1767 H1747 0.950 . S
C1767 C1763 1.385 . S
C1767 C1766 1.374 . S
C1768 C1765 1.499 . S
C1768 C1769 1.373 . S
C1768 C1770 1.389 1_554 S
C1769 H1748 0.950 . S
C1769 C1768 1.373 . S
C1769 C1785 1.377 1_545 S
C1770 C1768 1.389 1_556 S
C1770 C1771 1.524 . S
C1770 C1784 1.377 1_545 S
C1771 C1770 1.524 . S
C1771 C1772 1.397 1_556 S
C1771 C1776 1.363 . S
C1772 H1749 0.950 . S
C1772 C1771 1.397 1_554 S
C1772 C1773 1.334 . S
C1773 H1750 0.950 . S
C1773 C1772 1.334 . S
C1773 C1774 1.287 1_554 S
C1774 C1773 1.287 1_556 S
C1774 C1775 1.524 . S
C1774 H1793 0.913 . S
C1775 H1751 0.950 . S
C1775 C1774 1.524 . S
C1775 C1776 1.415 . S
C1776 H1752 0.950 . S
C1776 C1771 1.363 . S
C1776 C1775 1.415 . S
C1777 H1753 0.951 . S
C1777 C1778 1.366 1_554 S
C1777 C1779 1.388 . S
C1778 C1777 1.366 1_556 S
C1778 C1782 1.385 . S
C1779 H1754 0.951 . S
C1779 C1777 1.388 . S
C1779 C1780 1.366 1_554 S
C1780 C1779 1.366 1_556 S
C1780 C1781 1.414 . S
C1780 C1783 1.499 . S
C1781 H1755 0.950 . S
C1781 C1780 1.414 . S
C1781 C1782 1.374 . S
C1782 H1756 0.950 . S
C1782 C1778 1.385 . S
C1782 C1781 1.374 . S
C1783 C1780 1.499 . S
C1783 C1784 1.373 . S
C1783 C1785 1.389 1_556 S
C1784 H1757 0.950 . S
C1784 C1770 1.377 1_565 S
C1784 C1783 1.373 . S
C1785 C1769 1.377 1_565 S
C1785 C1783 1.389 1_554 S
C1785 C1786 1.524 . S
C1786 C1785 1.524 . S
C1786 C1787 1.397 1_554 S
C1786 C1791 1.363 . S
C1787 H1758 0.950 . S
C1787 C1786 1.397 1_556 S
C1787 C1788 1.334 . S
C1788 H1759 0.950 . S
C1788 C1787 1.334 . S
C1788 C1789 1.287 1_556 S
C1789 C1788 1.287 1_554 S
C1789 C1790 1.524 . S
C1789 H1792 0.999 . S
C1790 H1760 0.950 . S
C1790 C1789 1.524 . S
C1790 C1791 1.415 . S
C1791 H1761 0.950 . S
C1791 C1786 1.363 . S
C1791 C1790 1.415 . S
H1792 C1789 0.999 . S
H1793 C1774 0.913 . S
H1794 C1812 0.951 . S
H1795 C1814 0.951 . S
H1796 C1816 0.950 . S
H1797 C1817 0.950 . S
H1798 C1819 0.950 . S
H1799 C1822 0.950 1_554 S
H1800 C1823 0.950 1_554 S
H1801 C1825 0.950 . S
H1802 C1826 0.957 1_655 S
H1803 C1827 0.951 . S
H1804 C1829 0.951 . S
H1805 C1831 0.950 . S
H1806 C1832 0.950 . S
H1807 C1834 0.950 . S
H1808 C1837 0.950 1_556 S
H1809 C1838 0.950 1_556 S
H1810 C1840 0.950 . S
H1811 C1841 0.957 1_455 S
C1812 H1794 0.951 . S
C1812 C1813 1.366 . S
C1812 C1814 1.388 . S
C1813 C1812 1.366 . S
C1813 C1817 1.385 1_556 S
C1814 H1795 0.951 . S
C1814 C1812 1.388 . S
C1814 C1815 1.366 . S
C1815 C1814 1.366 . S
C1815 C1816 1.414 1_556 S
C1815 C1818 1.499 . S
C1816 H1796 0.950 . S
C1816 C1815 1.414 1_554 S
C1816 C1817 1.374 . S
C1817 H1797 0.950 . S
C1817 C1813 1.385 1_554 S
C1817 C1816 1.374 . S
C1818 C1815 1.499 . S
C1818 C1819 1.373 1_556 S
C1818 C1820 1.389 . S
C1819 H1798 0.950 . S
C1819 C1818 1.373 1_554 S
C1819 C1835 1.377 1_455 S
C1820 C1818 1.389 . S
C1820 C1821 1.524 . S
C1820 C1834 1.377 1_455 S
C1821 C1820 1.524 . S
C1821 C1822 1.397 . S
C1821 C1826 1.363 . S
C1822 H1799 0.950 1_556 S
C1822 C1821 1.397 . S
C1822 C1823 1.334 . S
C1823 H1800 0.950 1_556 S
C1823 C1822 1.334 . S
C1823 C1824 1.287 . S
C1824 C1823 1.287 . S
C1824 C1825 1.524 . S
C1824 H1843 0.913 . S
C1825 H1801 0.950 . S
C1825 C1824 1.524 . S
C1825 C1826 1.415 . S
C1826 H1802 0.957 1_455 S
C1826 C1821 1.363 . S
C1826 C1825 1.415 . S
C1827 H1803 0.951 . S
C1827 C1828 1.366 . S
C1827 C1829 1.388 . S
C1828 C1827 1.366 . S
C1828 C1832 1.385 1_554 S
C1829 H1804 0.951 . S
C1829 C1827 1.388 . S
C1829 C1830 1.366 . S
C1830 C1829 1.366 . S
C1830 C1831 1.414 1_554 S
C1830 C1833 1.499 . S
C1831 H1805 0.950 . S
C1831 C1830 1.414 1_556 S
C1831 C1832 1.374 . S
C1832 H1806 0.950 . S
C1832 C1828 1.385 1_556 S
C1832 C1831 1.374 . S
C1833 C1830 1.499 . S
C1833 C1834 1.373 1_554 S
C1833 C1835 1.389 . S
C1834 H1807 0.950 . S
C1834 C1820 1.377 1_655 S
C1834 C1833 1.373 1_556 S
C1835 C1819 1.377 1_655 S
C1835 C1833 1.389 . S
C1835 C1836 1.524 . S
C1836 C1835 1.524 . S
C1836 C1837 1.397 . S
C1836 C1841 1.363 . S
C1837 H1808 0.950 1_554 S
C1837 C1836 1.397 . S
C1837 C1838 1.334 . S
C1838 H1809 0.950 1_554 S
C1838 C1837 1.334 . S
C1838 C1839 1.287 . S
C1839 C1838 1.287 . S
C1839 C1840 1.524 . S
C1839 H1842 0.999 . S
C1840 H1810 0.950 . S
C1840 C1839 1.524 . S
C1840 C1841 1.415 . S
C1841 H1811 0.957 1_655 S
C1841 C1836 1.363 . S
C1841 C1840 1.415 . S
H1842 C1839 0.999 . S
H1843 C1824 0.913 . S
H1844 C1862 0.951 . S
H1845 C1864 0.951 . S
H1846 C1866 0.950 . S
H1847 C1867 0.950 . S
H1848 C1869 0.950 . S
H1849 C1872 0.950 . S
H1850 C1873 0.950 . S
H1851 C1875 0.950 . S
H1852 C1876 0.950 1_545 S
H1853 C1877 0.951 . S
H1854 C1879 0.951 . S
H1855 C1881 0.950 . S
H1856 C1882 0.950 . S
H1857 C1884 0.950 . S
H1858 C1887 0.950 . S
H1859 C1888 0.950 . S
H1860 C1890 0.950 . S
H1861 C1891 0.950 1_565 S
C1862 H1844 0.951 . S
C1862 C1863 1.366 . S
C1862 C1864 1.388 . S
C1863 C1862 1.366 . S
C1863 C1867 1.385 1_554 S
C1864 H1845 0.951 . S
C1864 C1862 1.388 . S
C1864 C1865 1.366 . S
C1865 C1864 1.366 . S
C1865 C1866 1.414 1_554 S
C1865 C1868 1.499 . S
C1866 H1846 0.950 . S
C1866 C1865 1.414 1_556 S
C1866 C1867 1.374 . S
C1867 H1847 0.950 . S
C1867 C1863 1.385 1_556 S
C1867 C1866 1.374 . S
C1868 C1865 1.499 . S
C1868 C1869 1.373 1_554 S
C1868 C1870 1.389 . S
C1869 H1848 0.950 . S
C1869 C1868 1.373 1_556 S
C1869 C1885 1.377 1_565 S
C1870 C1868 1.389 . S
C1870 C1871 1.524 . S
C1870 C1884 1.377 1_565 S
C1871 C1870 1.524 . S
C1871 C1872 1.397 . S
C1871 C1876 1.363 . S
C1872 H1849 0.950 . S
C1872 C1871 1.397 . S
C1872 C1873 1.334 . S
C1873 H1850 0.950 . S
C1873 C1872 1.334 . S
C1873 C1874 1.287 . S
C1874 C1873 1.287 . S
C1874 C1875 1.524 . S
C1874 H1893 0.913 . S
C1875 H1851 0.950 . S
C1875 C1874 1.524 . S
C1875 C1876 1.415 . S
C1876 H1852 0.950 1_565 S
C1876 C1871 1.363 . S
C1876 C1875 1.415 . S
C1877 H1853 0.951 . S
C1877 C1878 1.366 . S
C1877 C1879 1.388 . S
C1878 C1877 1.366 . S
C1878 C1882 1.385 1_556 S
C1879 H1854 0.951 . S
C1879 C1877 1.388 . S
C1879 C1880 1.366 . S
C1880 C1879 1.366 . S
C1880 C1881 1.414 1_556 S
C1880 C1883 1.499 . S
C1881 H1855 0.950 . S
C1881 C1880 1.414 1_554 S
C1881 C1882 1.374 . S
C1882 H1856 0.950 . S
C1882 C1878 1.385 1_554 S
C1882 C1881 1.374 . S
C1883 C1880 1.499 . S
C1883 C1884 1.373 1_556 S
C1883 C1885 1.389 . S
C1884 H1857 0.950 . S
C1884 C1870 1.377 1_545 S
C1884 C1883 1.373 1_554 S
C1885 C1869 1.377 1_545 S
C1885 C1883 1.389 . S
C1885 C1886 1.524 . S
C1886 C1885 1.524 . S
C1886 C1887 1.397 . S
C1886 C1891 1.363 . S
C1887 H1858 0.950 . S
C1887 C1886 1.397 . S
C1887 C1888 1.334 . S
C1888 H1859 0.950 . S
C1888 C1887 1.334 . S
C1888 C1889 1.287 . S
C1889 C1888 1.287 . S
C1889 C1890 1.524 . S
C1889 H1892 0.999 . S
C1890 H1860 0.950 . S
C1890 C1889 1.524 . S
C1890 C1891 1.415 . S
C1891 H1861 0.950 1_545 S
C1891 C1886 1.363 . S
C1891 C1890 1.415 . S
H1892 C1889 0.999 . S
H1893 C1874 0.913 . S
H1894 C1912 0.951 . S
H1895 C1914 0.951 . S
H1896 C1916 0.950 . S
H1897 C1917 0.950 1_554 S
H1898 C1919 0.950 . S
H1899 C1922 0.950 . S
H1900 C1923 0.950 . S
H1901 C1925 0.950 . S
H1902 C1926 0.920 1_455 S
H1903 C1927 0.951 . S
H1904 C1929 0.951 . S
H1905 C1931 0.950 . S
H1906 C1932 0.950 1_556 S
H1907 C1934 0.950 . S
H1908 C1937 0.950 . S
H1909 C1938 0.950 . S
H1910 C1940 0.950 . S
H1911 C1941 0.920 1_655 S
C1912 H1894 0.951 . S
C1912 C1913 1.366 . S
C1912 C1914 1.388 . S
C1913 C1912 1.366 . S
C1913 C1917 1.385 . S
C1914 H1895 0.951 . S
C1914 C1912 1.388 . S
C1914 C1915 1.366 . S
C1915 C1914 1.366 . S
C1915 C1916 1.414 1_556 S
C1915 C1918 1.499 . S
C1916 H1896 0.950 . S
C1916 C1915 1.414 1_554 S
C1916 C1917 1.374 1_554 S
C1917 H1897 0.950 1_556 S
C1917 C1913 1.385 . S
C1917 C1916 1.374 1_556 S
C1918 C1915 1.499 . S
C1918 C1919 1.373 1_556 S
C1918 C1920 1.389 . S
C1919 H1898 0.950 . S
C1919 C1918 1.373 1_554 S
C1919 C1935 1.377 1_655 S
C1920 C1918 1.389 . S
C1920 C1921 1.524 . S
C1920 C1934 1.377 1_655 S
C1921 C1920 1.524 . S
C1921 C1922 1.397 . S
C1921 C1926 1.363 . S
C1922 H1899 0.950 . S
C1922 C1921 1.397 . S
C1922 C1923 1.334 . S
C1923 H1900 0.950 . S
C1923 C1922 1.334 . S
C1923 C1924 1.287 . S
C1924 C1923 1.287 . S
C1924 C1925 1.524 . S
C1924 H1943 0.913 . S
C1925 H1901 0.950 . S
C1925 C1924 1.524 . S
C1925 C1926 1.415 . S
C1926 H1902 0.920 1_655 S
C1926 C1921 1.363 . S
C1926 C1925 1.415 . S
C1927 H1903 0.951 . S
C1927 C1928 1.366 . S
C1927 C1929 1.388 . S
C1928 C1927 1.366 . S
C1928 C1932 1.385 . S
C1929 H1904 0.951 . S
C1929 C1927 1.388 . S
C1929 C1930 1.366 . S
C1930 C1929 1.366 . S
C1930 C1931 1.414 1_554 S
C1930 C1933 1.499 . S
C1931 H1905 0.950 . S
C1931 C1930 1.414 1_556 S
C1931 C1932 1.374 1_556 S
C1932 H1906 0.950 1_554 S
C1932 C1928 1.385 . S
C1932 C1931 1.374 1_554 S
C1933 C1930 1.499 . S
C1933 C1934 1.373 1_554 S
C1933 C1935 1.389 . S
C1934 H1907 0.950 . S
C1934 C1920 1.377 1_455 S
C1934 C1933 1.373 1_556 S
C1935 C1919 1.377 1_455 S
C1935 C1933 1.389 . S
C1935 C1936 1.524 . S
C1936 C1935 1.524 . S
C1936 C1937 1.397 . S
C1936 C1941 1.363 . S
C1937 H1908 0.950 . S
C1937 C1936 1.397 . S
C1937 C1938 1.334 . S
C1938 H1909 0.950 . S
C1938 C1937 1.334 . S
C1938 C1939 1.287 . S
C1939 C1938 1.287 . S
C1939 C1940 1.524 . S
C1939 H1942 0.999 . S
C1940 H1910 0.950 . S
C1940 C1939 1.524 . S
C1940 C1941 1.415 . S
C1941 H1911 0.920 1_455 S
C1941 C1936 1.363 . S
C1941 C1940 1.415 . S
H1942 C1939 0.999 . S
H1943 C1924 0.913 . S
H1944 C1962 0.951 . S
H1945 C1964 0.951 . S
H1946 C1966 0.950 . S
H1947 C1967 0.950 . S
H1948 C1969 0.950 . S
H1949 C1972 0.950 . S
H1950 C1973 0.950 . S
H1951 C1975 0.950 . S
H1952 C1976 0.950 . S
H1953 C1977 0.951 . S
H1954 C1979 0.951 . S
H1955 C1981 0.950 . S
H1956 C1982 0.950 . S
H1957 C1984 0.950 . S
H1958 C1987 0.950 . S
H1959 C1988 0.950 . S
H1960 C1990 0.950 . S
H1961 C1991 0.950 . S
C1962 H1944 0.951 . S
C1962 C1963 1.366 . S
C1962 C1964 1.388 . S
C1963 C1962 1.366 . S
C1963 C1967 1.385 . S
C1964 H1945 0.951 . S
C1964 C1962 1.388 . S
C1964 C1965 1.366 . S
C1965 C1964 1.366 . S
C1965 C1966 1.414 . S
C1965 C1968 1.499 . S
C1966 H1946 0.950 . S
C1966 C1965 1.414 . S
C1966 C1967 1.374 . S
C1967 H1947 0.950 . S
C1967 C1963 1.385 . S
C1967 C1966 1.374 . S
C1968 C1965 1.499 . S
C1968 C1969 1.373 . S
C1968 C1970 1.389 . S
C1969 H1948 0.950 . S
C1969 C1968 1.373 . S
C1969 C1985 1.377 . S
C1970 C1968 1.389 . S
C1970 C1971 1.524 . S
C1970 C1984 1.377 . S
C1971 C1970 1.524 . S
C1971 C1972 1.397 . S
C1971 C1976 1.363 . S
C1972 H1949 0.950 . S
C1972 C1971 1.397 . S
C1972 C1973 1.334 . S
C1973 H1950 0.950 . S
C1973 C1972 1.334 . S
C1973 C1974 1.287 . S
C1974 C1973 1.287 . S
C1974 C1975 1.524 . S
C1974 H1993 0.913 . S
C1975 H1951 0.950 . S
C1975 C1974 1.524 . S
C1975 C1976 1.415 . S
C1976 H1952 0.950 . S
C1976 C1971 1.363 . S
C1976 C1975 1.415 . S
C1977 H1953 0.951 . S
C1977 C1978 1.366 . S
C1977 C1979 1.388 . S
C1978 C1977 1.366 . S
C1978 C1982 1.385 . S
C1979 H1954 0.951 . S
C1979 C1977 1.388 . S
C1979 C1980 1.366 . S
C1980 C1979 1.366 . S
C1980 C1981 1.414 . S
C1980 C1983 1.499 . S
C1981 H1955 0.950 . S
C1981 C1980 1.414 . S
C1981 C1982 1.374 . S
C1982 H1956 0.950 . S
C1982 C1978 1.385 . S
C1982 C1981 1.374 . S
C1983 C1980 1.499 . S
C1983 C1984 1.373 . S
C1983 C1985 1.389 . S
C1984 H1957 0.950 . S
C1984 C1970 1.377 . S
C1984 C1983 1.373 . S
C1985 C1969 1.377 . S
C1985 C1983 1.389 . S
C1985 C1986 1.524 . S
C1986 C1985 1.524 . S
C1986 C1987 1.397 . S
C1986 C1991 1.363 . S
C1987 H1958 0.950 . S
C1987 C1986 1.397 . S
C1987 C1988 1.334 . S
C1988 H1959 0.950 . S
C1988 C1987 1.334 . S
C1988 C1989 1.287 . S
C1989 C1988 1.287 . S
C1989 C1990 1.524 . S
C1989 H1992 0.999 . S
C1990 H1960 0.950 . S
C1990 C1989 1.524 . S
C1990 C1991 1.415 . S
C1991 H1961 0.950 . S
C1991 C1986 1.363 . S
C1991 C1990 1.415 . S
H1992 C1989 0.999 . S
H1993 C1974 0.913 . S
H1994 C2012 0.951 . S
H1995 C2014 0.951 . S
H1996 C2016 0.950 . S
H1997 C2017 0.950 . S
H1998 C2019 0.950 . S
H1999 C2022 0.950 . S
H2000 C2023 0.950 . S
H2001 C2025 0.950 . S
H2002 C2026 0.950 . S
H2003 C2027 0.951 . S
H2004 C2029 0.951 . S
H2005 C2031 0.950 . S
H2006 C2032 0.950 . S
H2007 C2034 0.950 . S
H2008 C2037 0.950 . S
H2009 C2038 0.950 . S
H2010 C2040 0.950 . S
H2011 C2041 0.950 . S
C2012 H1994 0.951 . S
C2012 C2013 1.366 . S
C2012 C2014 1.388 . S
C2013 C2012 1.366 . S
C2013 C2017 1.385 . S
C2014 H1995 0.951 . S
C2014 C2012 1.388 . S
C2014 C2015 1.366 . S
C2015 C2014 1.366 . S
C2015 C2016 1.414 . S
C2015 C2018 1.499 . S
C2016 H1996 0.950 . S
C2016 C2015 1.414 . S
C2016 C2017 1.374 . S
C2017 H1997 0.950 . S
C2017 C2013 1.385 . S
C2017 C2016 1.374 . S
C2018 C2015 1.499 . S
C2018 C2019 1.373 . S
C2018 C2020 1.389 . S
C2019 H1998 0.950 . S
C2019 C2018 1.373 . S
C2019 C2035 1.377 . S
C2020 C2018 1.389 . S
C2020 C2021 1.524 . S
C2020 C2034 1.377 . S
C2021 C2020 1.524 . S
C2021 C2022 1.397 . S
C2021 C2026 1.363 . S
C2022 H1999 0.950 . S
C2022 C2021 1.397 . S
C2022 C2023 1.334 . S
C2023 H2000 0.950 . S
C2023 C2022 1.334 . S
C2023 C2024 1.287 . S
C2024 C2023 1.287 . S
C2024 C2025 1.524 . S
C2024 H2043 0.913 . S
C2025 H2001 0.950 . S
C2025 C2024 1.524 . S
C2025 C2026 1.415 . S
C2026 H2002 0.950 . S
C2026 C2021 1.363 . S
C2026 C2025 1.415 . S
C2027 H2003 0.951 . S
C2027 C2028 1.366 . S
C2027 C2029 1.388 . S
C2028 C2027 1.366 . S
C2028 C2032 1.385 . S
C2029 H2004 0.951 . S
C2029 C2027 1.388 . S
C2029 C2030 1.366 . S
C2030 C2029 1.366 . S
C2030 C2031 1.414 . S
C2030 C2033 1.499 . S
C2031 H2005 0.950 . S
C2031 C2030 1.414 . S
C2031 C2032 1.374 . S
C2032 H2006 0.950 . S
C2032 C2028 1.385 . S
C2032 C2031 1.374 . S
C2033 C2030 1.499 . S
C2033 C2034 1.373 . S
C2033 C2035 1.389 . S
C2034 H2007 0.950 . S
C2034 C2020 1.377 . S
C2034 C2033 1.373 . S
C2035 C2019 1.377 . S
C2035 C2033 1.389 . S
C2035 C2036 1.524 . S
C2036 C2035 1.524 . S
C2036 C2037 1.397 . S
C2036 C2041 1.363 . S
C2037 H2008 0.950 . S
C2037 C2036 1.397 . S
C2037 C2038 1.334 . S
C2038 H2009 0.950 . S
C2038 C2037 1.334 . S
C2038 C2039 1.287 . S
C2039 C2038 1.287 . S
C2039 C2040 1.524 . S
C2039 H2042 0.999 . S
C2040 H2010 0.950 . S
C2040 C2039 1.524 . S
C2040 C2041 1.415 . S
C2041 H2011 0.950 . S
C2041 C2036 1.363 . S
C2041 C2040 1.415 . S
H2042 C2039 0.999 . S
H2043 C2024 0.913 . S
H2044 C2062 0.951 . S
H2045 C2064 0.951 . S
H2046 C2066 0.950 . S
H2047 C2067 0.950 . S
H2048 C2069 0.950 . S
H2049 C2072 0.950 . S
H2050 C2073 0.950 . S
H2051 C2075 0.950 . S
H2052 C2076 0.950 . S
H2053 C2077 0.951 . S
H2054 C2079 0.951 . S
H2055 C2081 0.950 . S
H2056 C2082 0.950 . S
H2057 C2084 0.950 . S
H2058 C2087 0.950 . S
H2059 C2088 0.950 . S
H2060 C2090 0.950 . S
H2061 C2091 0.950 . S
C2062 H2044 0.951 . S
C2062 C2063 1.366 . S
C2062 C2064 1.388 . S
C2063 C2062 1.366 . S
C2063 C2067 1.385 . S
C2064 H2045 0.951 . S
C2064 C2062 1.388 . S
C2064 C2065 1.366 . S
C2065 C2064 1.366 . S
C2065 C2066 1.414 . S
C2065 C2068 1.499 . S
C2066 H2046 0.950 . S
C2066 C2065 1.414 . S
C2066 C2067 1.374 . S
C2067 H2047 0.950 . S
C2067 C2063 1.385 . S
C2067 C2066 1.374 . S
C2068 C2065 1.499 . S
C2068 C2069 1.373 . S
C2068 C2070 1.389 . S
C2069 H2048 0.950 . S
C2069 C2068 1.373 . S
C2069 C2085 1.377 . S
C2070 C2068 1.389 . S
C2070 C2071 1.524 . S
C2070 C2084 1.377 . S
C2071 C2070 1.524 . S
C2071 C2072 1.397 . S
C2071 C2076 1.363 . S
C2072 H2049 0.950 . S
C2072 C2071 1.397 . S
C2072 C2073 1.334 . S
C2073 H2050 0.950 . S
C2073 C2072 1.334 . S
C2073 C2074 1.287 . S
C2074 C2073 1.287 . S
C2074 C2075 1.524 . S
C2074 H2093 0.913 . S
C2075 H2051 0.950 . S
C2075 C2074 1.524 . S
C2075 C2076 1.415 . S
C2076 H2052 0.950 . S
C2076 C2071 1.363 . S
C2076 C2075 1.415 . S
C2077 H2053 0.951 . S
C2077 C2078 1.366 . S
C2077 C2079 1.388 . S
C2078 C2077 1.366 . S
C2078 C2082 1.385 . S
C2079 H2054 0.951 . S
C2079 C2077 1.388 . S
C2079 C2080 1.366 . S
C2080 C2079 1.366 . S
C2080 C2081 1.414 . S
C2080 C2083 1.499 . S
C2081 H2055 0.950 . S
C2081 C2080 1.414 . S
C2081 C2082 1.374 . S
C2082 H2056 0.950 . S
C2082 C2078 1.385 . S
C2082 C2081 1.374 . S
C2083 C2080 1.499 . S
C2083 C2084 1.373 . S
C2083 C2085 1.389 . S
C2084 H2057 0.950 . S
C2084 C2070 1.377 . S
C2084 C2083 1.373 . S
C2085 C2069 1.377 . S
C2085 C2083 1.389 . S
C2085 C2086 1.524 . S
C2086 C2085 1.524 . S
C2086 C2087 1.397 . S
C2086 C2091 1.363 . S
C2087 H2058 0.950 . S
C2087 C2086 1.397 . S
C2087 C2088 1.334 . S
C2088 H2059 0.950 . S
C2088 C2087 1.334 . S
C2088 C2089 1.287 . S
C2089 C2088 1.287 . S
C2089 C2090 1.524 . S
C2089 H2092 0.999 . S
C2090 H2060 0.950 . S
C2090 C2089 1.524 . S
C2090 C2091 1.415 . S
C2091 H2061 0.950 . S
C2091 C2086 1.363 . S
C2091 C2090 1.415 . S
H2092 C2089 0.999 . S
H2093 C2074 0.913 . S
H2094 C2112 0.951 . S
H2095 C2114 0.951 . S
H2096 C2116 0.950 . S
H2097 C2117 0.950 . S
H2098 C2119 0.950 . S
H2099 C2122 0.950 . S
H2100 C2123 0.950 . S
H2101 C2125 0.950 . S
H2102 C2126 0.950 . S
H2103 C2127 0.951 . S
H2104 C2129 0.951 . S
H2105 C2131 0.950 . S
H2106 C2132 0.950 . S
H2107 C2134 0.950 . S
H2108 C2137 0.950 . S
H2109 C2138 0.950 . S
H2110 C2140 0.950 . S
H2111 C2141 0.950 . S
C2112 H2094 0.951 . S
C2112 C2113 1.366 . S
C2112 C2114 1.388 . S
C2113 C2112 1.366 . S
C2113 C2117 1.385 . S
C2114 H2095 0.951 . S
C2114 C2112 1.388 . S
C2114 C2115 1.366 . S
C2115 C2114 1.366 . S
C2115 C2116 1.414 . S
C2115 C2118 1.499 . S
C2116 H2096 0.950 . S
C2116 C2115 1.414 . S
C2116 C2117 1.374 . S
C2117 H2097 0.950 . S
C2117 C2113 1.385 . S
C2117 C2116 1.374 . S
C2118 C2115 1.499 . S
C2118 C2119 1.373 . S
C2118 C2120 1.389 . S
C2119 H2098 0.950 . S
C2119 C2118 1.373 . S
C2119 C2135 1.377 . S
C2120 C2118 1.389 . S
C2120 C2121 1.524 . S
C2120 C2134 1.377 . S
C2121 C2120 1.524 . S
C2121 C2122 1.397 . S
C2121 C2126 1.363 . S
C2122 H2099 0.950 . S
C2122 C2121 1.397 . S
C2122 C2123 1.334 . S
C2123 H2100 0.950 . S
C2123 C2122 1.334 . S
C2123 C2124 1.287 . S
C2124 C2123 1.287 . S
C2124 C2125 1.524 . S
C2124 H2143 0.913 . S
C2125 H2101 0.950 . S
C2125 C2124 1.524 . S
C2125 C2126 1.415 . S
C2126 H2102 0.950 . S
C2126 C2121 1.363 . S
C2126 C2125 1.415 . S
C2127 H2103 0.951 . S
C2127 C2128 1.366 . S
C2127 C2129 1.388 . S
C2128 C2127 1.366 . S
C2128 C2132 1.385 . S
C2129 H2104 0.951 . S
C2129 C2127 1.388 . S
C2129 C2130 1.366 . S
C2130 C2129 1.366 . S
C2130 C2131 1.414 . S
C2130 C2133 1.499 . S
C2131 H2105 0.950 . S
C2131 C2130 1.414 . S
C2131 C2132 1.374 . S
C2132 H2106 0.950 . S
C2132 C2128 1.385 . S
C2132 C2131 1.374 . S
C2133 C2130 1.499 . S
C2133 C2134 1.373 . S
C2133 C2135 1.389 . S
C2134 H2107 0.950 . S
C2134 C2120 1.377 . S
C2134 C2133 1.373 . S
C2135 C2119 1.377 . S
C2135 C2133 1.389 . S
C2135 C2136 1.524 . S
C2136 C2135 1.524 . S
C2136 C2137 1.397 . S
C2136 C2141 1.363 . S
C2137 H2108 0.950 . S
C2137 C2136 1.397 . S
C2137 C2138 1.334 . S
C2138 H2109 0.950 . S
C2138 C2137 1.334 . S
C2138 C2139 1.287 . S
C2139 C2138 1.287 . S
C2139 C2140 1.524 . S
C2139 H2142 0.999 . S
C2140 H2110 0.950 . S
C2140 C2139 1.524 . S
C2140 C2141 1.415 . S
C2141 H2111 0.950 . S
C2141 C2136 1.363 . S
C2141 C2140 1.415 . S
H2142 C2139 0.999 . S
H2143 C2124 0.913 . S
H2144 C2162 0.951 . S
H2145 C2164 0.951 . S
H2146 C2166 0.950 . S
H2147 C2167 0.950 . S
H2148 C2169 0.950 . S
H2149 C2172 0.950 . S
H2150 C2173 0.950 . S
H2151 C2175 0.950 . S
H2152 C2176 0.950 . S
H2153 C2177 0.951 . S
H2154 C2179 0.951 . S
H2155 C2181 0.950 . S
H2156 C2182 0.950 . S
H2157 C2184 0.950 . S
H2158 C2187 0.950 . S
H2159 C2188 0.950 . S
H2160 C2190 0.950 . S
H2161 C2191 0.950 . S
C2162 H2144 0.951 . S
C2162 C2163 1.366 . S
C2162 C2164 1.388 . S
C2163 C2162 1.366 . S
C2163 C2167 1.385 . S
C2164 H2145 0.951 . S
C2164 C2162 1.388 . S
C2164 C2165 1.366 . S
C2165 C2164 1.366 . S
C2165 C2166 1.414 . S
C2165 C2168 1.499 . S
C2166 H2146 0.950 . S
C2166 C2165 1.414 . S
C2166 C2167 1.374 . S
C2167 H2147 0.950 . S
C2167 C2163 1.385 . S
C2167 C2166 1.374 . S
C2168 C2165 1.499 . S
C2168 C2169 1.373 1_554 S
C2168 C2170 1.389 . S
C2169 H2148 0.950 . S
C2169 C2168 1.373 1_556 S
C2169 C2185 1.377 . S
C2170 C2168 1.389 . S
C2170 C2171 1.524 . S
C2170 C2184 1.377 . S
C2171 C2170 1.524 . S
C2171 C2172 1.397 . S
C2171 C2176 1.363 . S
C2172 H2149 0.950 . S
C2172 C2171 1.397 . S
C2172 C2173 1.334 . S
C2173 H2150 0.950 . S
C2173 C2172 1.334 . S
C2173 C2174 1.287 . S
C2174 C2173 1.287 . S
C2174 C2175 1.524 . S
C2174 H2193 0.913 . S
C2175 H2151 0.950 . S
C2175 C2174 1.524 . S
C2175 C2176 1.415 . S
C2176 H2152 0.950 . S
C2176 C2171 1.363 . S
C2176 C2175 1.415 . S
C2177 H2153 0.951 . S
C2177 C2178 1.366 . S
C2177 C2179 1.388 . S
C2178 C2177 1.366 . S
C2178 C2182 1.385 . S
C2179 H2154 0.951 . S
C2179 C2177 1.388 . S
C2179 C2180 1.366 . S
C2180 C2179 1.366 . S
C2180 C2181 1.414 . S
C2180 C2183 1.499 . S
C2181 H2155 0.950 . S
C2181 C2180 1.414 . S
C2181 C2182 1.374 . S
C2182 H2156 0.950 . S
C2182 C2178 1.385 . S
C2182 C2181 1.374 . S
C2183 C2180 1.499 . S
C2183 C2184 1.373 1_556 S
C2183 C2185 1.389 . S
C2184 H2157 0.950 . S
C2184 C2170 1.377 . S
C2184 C2183 1.373 1_554 S
C2185 C2169 1.377 . S
C2185 C2183 1.389 . S
C2185 C2186 1.524 . S
C2186 C2185 1.524 . S
C2186 C2187 1.397 . S
C2186 C2191 1.363 . S
C2187 H2158 0.950 . S
C2187 C2186 1.397 . S
C2187 C2188 1.334 . S
C2188 H2159 0.950 . S
C2188 C2187 1.334 . S
C2188 C2189 1.287 . S
C2189 C2188 1.287 . S
C2189 C2190 1.524 . S
C2189 H2192 0.999 . S
C2190 H2160 0.950 . S
C2190 C2189 1.524 . S
C2190 C2191 1.415 . S
C2191 H2161 0.950 . S
C2191 C2186 1.363 . S
C2191 C2190 1.415 . S
H2192 C2189 0.999 . S
H2193 C2174 0.913 . S
H2194 C2212 0.951 . S
H2195 C2214 0.951 . S
H2196 C2216 0.950 . S
H2197 C2217 0.950 . S
H2198 C2219 0.950 . S
H2199 C2222 0.950 . S
H2200 C2223 0.950 . S
H2201 C2225 0.950 . S
H2202 C2226 0.950 . S
H2203 C2227 0.951 . S
H2204 C2229 0.951 . S
H2205 C2231 0.950 . S
H2206 C2232 0.950 . S
H2207 C2234 0.950 . S
H2208 C2237 0.950 . S
H2209 C2238 0.950 . S
H2210 C2240 0.950 . S
H2211 C2241 0.950 . S
C2212 H2194 0.951 . S
C2212 C2213 1.366 1_556 S
C2212 C2214 1.388 . S
C2213 C2212 1.366 1_554 S
C2213 C2217 1.385 . S
C2214 H2195 0.951 . S
C2214 C2212 1.388 . S
C2214 C2215 1.366 1_556 S
C2215 C2214 1.366 1_554 S
C2215 C2216 1.414 . S
C2215 C2218 1.499 . S
C2216 H2196 0.950 . S
C2216 C2215 1.414 . S
C2216 C2217 1.374 . S
C2217 H2197 0.950 . S
C2217 C2213 1.385 . S
C2217 C2216 1.374 . S
C2218 C2215 1.499 . S
C2218 C2219 1.373 . S
C2218 C2220 1.389 1_554 S
C2219 H2198 0.950 . S
C2219 C2218 1.373 . S
C2219 C2235 1.377 . S
C2220 C2218 1.389 1_556 S
C2220 C2221 1.524 . S
C2220 C2234 1.377 . S
C2221 C2220 1.524 . S
C2221 C2222 1.397 . S
C2221 C2226 1.363 . S
C2222 H2199 0.950 . S
C2222 C2221 1.397 . S
C2222 C2223 1.334 . S
C2223 H2200 0.950 . S
C2223 C2222 1.334 . S
C2223 C2224 1.287 . S
C2224 C2223 1.287 . S
C2224 C2225 1.524 . S
C2224 H2243 0.913 . S
C2225 H2201 0.950 . S
C2225 C2224 1.524 . S
C2225 C2226 1.415 . S
C2226 H2202 0.950 . S
C2226 C2221 1.363 . S
C2226 C2225 1.415 . S
C2227 H2203 0.951 . S
C2227 C2228 1.366 1_554 S
C2227 C2229 1.388 . S
C2228 C2227 1.366 1_556 S
C2228 C2232 1.385 . S
C2229 H2204 0.951 . S
C2229 C2227 1.388 . S
C2229 C2230 1.366 1_554 S
C2230 C2229 1.366 1_556 S
C2230 C2231 1.414 . S
C2230 C2233 1.499 . S
C2231 H2205 0.950 . S
C2231 C2230 1.414 . S
C2231 C2232 1.374 . S
C2232 H2206 0.950 . S
C2232 C2228 1.385 . S
C2232 C2231 1.374 . S
C2233 C2230 1.499 . S
C2233 C2234 1.373 . S
C2233 C2235 1.389 1_556 S
C2234 H2207 0.950 . S
C2234 C2220 1.377 . S
C2234 C2233 1.373 . S
C2235 C2219 1.377 . S
C2235 C2233 1.389 1_554 S
C2235 C2236 1.524 . S
C2236 C2235 1.524 . S
C2236 C2237 1.397 . S
C2236 C2241 1.363 . S
C2237 H2208 0.950 . S
C2237 C2236 1.397 . S
C2237 C2238 1.334 . S
C2238 H2209 0.950 . S
C2238 C2237 1.334 . S
C2238 C2239 1.287 . S
C2239 C2238 1.287 . S
C2239 C2240 1.524 . S
C2239 H2242 0.999 . S
C2240 H2210 0.950 . S
C2240 C2239 1.524 . S
C2240 C2241 1.415 . S
C2241 H2211 0.950 . S
C2241 C2236 1.363 . S
C2241 C2240 1.415 . S
H2242 C2239 0.999 . S
H2243 C2224 0.913 . S
H2244 C2262 0.951 . S
H2245 C2264 0.951 . S
H2246 C2266 0.950 . S
H2247 C2267 0.950 . S
H2248 C2269 0.950 . S
H2249 C2272 0.950 . S
H2250 C2273 0.950 . S
H2251 C2275 0.950 . S
H2252 C2276 0.950 . S
H2253 C2277 0.951 . S
H2254 C2279 0.951 . S
H2255 C2281 0.950 . S
H2256 C2282 0.950 . S
H2257 C2284 0.950 . S
H2258 C2287 0.950 . S
H2259 C2288 0.950 . S
H2260 C2290 0.950 . S
H2261 C2291 0.950 . S
C2262 H2244 0.951 . S
C2262 C2263 1.366 . S
C2262 C2264 1.388 . S
C2263 C2262 1.366 . S
C2263 C2267 1.385 . S
C2264 H2245 0.951 . S
C2264 C2262 1.388 . S
C2264 C2265 1.366 . S
C2265 C2264 1.366 . S
C2265 C2266 1.414 . S
C2265 C2268 1.499 . S
C2266 H2246 0.950 . S
C2266 C2265 1.414 . S
C2266 C2267 1.374 . S
C2267 H2247 0.950 . S
C2267 C2263 1.385 . S
C2267 C2266 1.374 . S
C2268 C2265 1.499 . S
C2268 C2269 1.373 . S
C2268 C2270 1.389 1_556 S
C2269 H2248 0.950 . S
C2269 C2268 1.373 . S
C2269 C2285 1.377 . S
C2270 C2268 1.389 1_554 S
C2270 C2271 1.524 . S
C2270 C2284 1.377 . S
C2271 C2270 1.524 . S
C2271 C2272 1.397 . S
C2271 C2276 1.363 . S
C2272 H2249 0.950 . S
C2272 C2271 1.397 . S
C2272 C2273 1.334 . S
C2273 H2250 0.950 . S
C2273 C2272 1.334 . S
C2273 C2274 1.287 . S
C2274 C2273 1.287 . S
C2274 C2275 1.524 . S
C2274 H2293 0.913 . S
C2275 H2251 0.950 . S
C2275 C2274 1.524 . S
C2275 C2276 1.415 . S
C2276 H2252 0.950 . S
C2276 C2271 1.363 . S
C2276 C2275 1.415 . S
C2277 H2253 0.951 . S
C2277 C2278 1.366 . S
C2277 C2279 1.388 . S
C2278 C2277 1.366 . S
C2278 C2282 1.385 . S
C2279 H2254 0.951 . S
C2279 C2277 1.388 . S
C2279 C2280 1.366 . S
C2280 C2279 1.366 . S
C2280 C2281 1.414 . S
C2280 C2283 1.499 . S
C2281 H2255 0.950 . S
C2281 C2280 1.414 . S
C2281 C2282 1.374 . S
C2282 H2256 0.950 . S
C2282 C2278 1.385 . S
C2282 C2281 1.374 . S
C2283 C2280 1.499 . S
C2283 C2284 1.373 . S
C2283 C2285 1.389 1_554 S
C2284 H2257 0.950 . S
C2284 C2270 1.377 . S
C2284 C2283 1.373 . S
C2285 C2269 1.377 . S
C2285 C2283 1.389 1_556 S
C2285 C2286 1.524 . S
C2286 C2285 1.524 . S
C2286 C2287 1.397 . S
C2286 C2291 1.363 . S
C2287 H2258 0.950 . S
C2287 C2286 1.397 . S
C2287 C2288 1.334 . S
C2288 H2259 0.950 . S
C2288 C2287 1.334 . S
C2288 C2289 1.287 . S
C2289 C2288 1.287 . S
C2289 C2290 1.524 . S
C2289 H2292 0.999 . S
C2290 H2260 0.950 . S
C2290 C2289 1.524 . S
C2290 C2291 1.415 . S
C2291 H2261 0.950 . S
C2291 C2286 1.363 . S
C2291 C2290 1.415 . S
H2292 C2289 0.999 . S
H2293 C2274 0.913 . S
H2294 C2312 0.951 1_556 S
H2295 C2314 0.951 1_556 S
H2296 C2316 0.950 . S
H2297 C2317 0.950 . S
H2298 C2319 0.950 . S
H2299 C2322 0.950 . S
H2300 C2323 0.950 . S
H2301 C2325 0.950 . S
H2302 C2326 0.950 . S
H2303 C2327 0.951 1_554 S
H2304 C2329 0.951 1_554 S
H2305 C2331 0.950 . S
H2306 C2332 0.950 . S
H2307 C2334 0.950 . S
H2308 C2337 0.950 . S
H2309 C2338 0.950 . S
H2310 C2340 0.950 . S
H2311 C2341 0.950 . S
C2312 H2294 0.951 1_554 S
C2312 C2313 1.366 . S
C2312 C2314 1.388 . S
C2313 C2312 1.366 . S
C2313 C2317 1.385 . S
C2314 H2295 0.951 1_554 S
C2314 C2312 1.388 . S
C2314 C2315 1.366 . S
C2315 C2314 1.366 . S
C2315 C2316 1.414 . S
C2315 C2318 1.499 . S
C2316 H2296 0.950 . S
C2316 C2315 1.414 . S
C2316 C2317 1.374 . S
C2317 H2297 0.950 . S
C2317 C2313 1.385 . S
C2317 C2316 1.374 . S
C2318 C2315 1.499 . S
C2318 C2319 1.373 1_554 S
C2318 C2320 1.389 . S
C2319 H2298 0.950 . S
C2319 C2318 1.373 1_556 S
C2319 C2335 1.377 . S
C2320 C2318 1.389 . S
C2320 C2321 1.524 . S
C2320 C2334 1.377 . S
C2321 C2320 1.524 . S
C2321 C2322 1.397 . S
C2321 C2326 1.363 . S
C2322 H2299 0.950 . S
C2322 C2321 1.397 . S
C2322 C2323 1.334 . S
C2323 H2300 0.950 . S
C2323 C2322 1.334 . S
C2323 C2324 1.287 . S
C2324 C2323 1.287 . S
C2324 C2325 1.524 . S
C2324 H2343 0.913 . S
C2325 H2301 0.950 . S
C2325 C2324 1.524 . S
C2325 C2326 1.415 . S
C2326 H2302 0.950 . S
C2326 C2321 1.363 . S
C2326 C2325 1.415 . S
C2327 H2303 0.951 1_556 S
C2327 C2328 1.366 . S
C2327 C2329 1.388 . S
C2328 C2327 1.366 . S
C2328 C2332 1.385 . S
C2329 H2304 0.951 1_556 S
C2329 C2327 1.388 . S
C2329 C2330 1.366 . S
C2330 C2329 1.366 . S
C2330 C2331 1.414 . S
C2330 C2333 1.499 . S
C2331 H2305 0.950 . S
C2331 C2330 1.414 . S
C2331 C2332 1.374 . S
C2332 H2306 0.950 . S
C2332 C2328 1.385 . S
C2332 C2331 1.374 . S
C2333 C2330 1.499 . S
C2333 C2334 1.373 1_556 S
C2333 C2335 1.389 . S
C2334 H2307 0.950 . S
C2334 C2320 1.377 . S
C2334 C2333 1.373 1_554 S
C2335 C2319 1.377 . S
C2335 C2333 1.389 . S
C2335 C2336 1.524 . S
C2336 C2335 1.524 . S
C2336 C2337 1.397 . S
C2336 C2341 1.363 . S
C2337 H2308 0.950 . S
C2337 C2336 1.397 . S
C2337 C2338 1.334 . S
C2338 H2309 0.950 . S
C2338 C2337 1.334 . S
C2338 C2339 1.287 . S
C2339 C2338 1.287 . S
C2339 C2340 1.524 . S
C2339 H2342 0.999 . S
C2340 H2310 0.950 . S
C2340 C2339 1.524 . S
C2340 C2341 1.415 . S
C2341 H2311 0.950 . S
C2341 C2336 1.363 . S
C2341 C2340 1.415 . S
H2342 C2339 0.999 . S
H2343 C2324 0.913 . S
H2344 C2362 0.951 . S
H2345 C2364 0.951 . S
H2346 C2366 0.950 . S
H2347 C2367 0.950 . S
H2348 C2369 0.950 . S
H2349 C2372 0.950 . S
H2350 C2373 0.950 . S
H2351 C2375 0.950 . S
H2352 C2376 0.950 . S
H2353 C2377 0.951 . S
H2354 C2379 0.951 . S
H2355 C2381 0.950 . S
H2356 C2382 0.950 . S
H2357 C2384 0.950 . S
H2358 C2387 0.950 . S
H2359 C2388 0.950 . S
H2360 C2390 0.950 . S
H2361 C2391 0.950 . S
C2362 H2344 0.951 . S
C2362 C2363 1.366 . S
C2362 C2364 1.388 . S
C2363 C2362 1.366 . S
C2363 C2367 1.385 . S
C2364 H2345 0.951 . S
C2364 C2362 1.388 . S
C2364 C2365 1.366 . S
C2365 C2364 1.366 . S
C2365 C2366 1.414 . S
C2365 C2368 1.499 . S
C2366 H2346 0.950 . S
C2366 C2365 1.414 . S
C2366 C2367 1.374 . S
C2367 H2347 0.950 . S
C2367 C2363 1.385 . S
C2367 C2366 1.374 . S
C2368 C2365 1.499 . S
C2368 C2369 1.373 . S
C2368 C2370 1.389 . S
C2369 H2348 0.950 . S
C2369 C2368 1.373 . S
C2369 C2385 1.377 . S
C2370 C2368 1.389 . S
C2370 C2371 1.524 . S
C2370 C2384 1.377 . S
C2371 C2370 1.524 . S
C2371 C2372 1.397 . S
C2371 C2376 1.363 . S
C2372 H2349 0.950 . S
C2372 C2371 1.397 . S
C2372 C2373 1.334 . S
C2373 H2350 0.950 . S
C2373 C2372 1.334 . S
C2373 C2374 1.287 . S
C2374 C2373 1.287 . S
C2374 C2375 1.524 . S
C2374 H2393 0.913 . S
C2375 H2351 0.950 . S
C2375 C2374 1.524 . S
C2375 C2376 1.415 . S
C2376 H2352 0.950 . S
C2376 C2371 1.363 . S
C2376 C2375 1.415 . S
C2377 H2353 0.951 . S
C2377 C2378 1.366 . S
C2377 C2379 1.388 . S
C2378 C2377 1.366 . S
C2378 C2382 1.385 . S
C2379 H2354 0.951 . S
C2379 C2377 1.388 . S
C2379 C2380 1.366 . S
C2380 C2379 1.366 . S
C2380 C2381 1.414 . S
C2380 C2383 1.499 . S
C2381 H2355 0.950 . S
C2381 C2380 1.414 . S
C2381 C2382 1.374 . S
C2382 H2356 0.950 . S
C2382 C2378 1.385 . S
C2382 C2381 1.374 . S
C2383 C2380 1.499 . S
C2383 C2384 1.373 . S
C2383 C2385 1.389 . S
C2384 H2357 0.950 . S
C2384 C2370 1.377 . S
C2384 C2383 1.373 . S
C2385 C2369 1.377 . S
C2385 C2383 1.389 . S
C2385 C2386 1.524 . S
C2386 C2385 1.524 . S
C2386 C2387 1.397 . S
C2386 C2391 1.363 . S
C2387 H2358 0.950 . S
C2387 C2386 1.397 . S
C2387 C2388 1.334 . S
C2388 H2359 0.950 . S
C2388 C2387 1.334 . S
C2388 C2389 1.287 . S
C2389 C2388 1.287 . S
C2389 C2390 1.524 . S
C2389 H2392 0.999 . S
C2390 H2360 0.950 . S
C2390 C2389 1.524 . S
C2390 C2391 1.415 . S
C2391 H2361 0.950 . S
C2391 C2386 1.363 . S
C2391 C2390 1.415 . S
H2392 C2389 0.999 . S
H2393 C2374 0.913 . S
H2394 C2412 0.951 . S
H2395 C2414 0.951 . S
H2396 C2416 0.950 . S
H2397 C2417 0.950 . S
H2398 C2419 0.950 . S
H2399 C2422 0.950 . S
H2400 C2423 0.950 . S
H2401 C2425 0.950 . S
H2402 C2426 0.950 . S
H2403 C2427 0.951 . S
H2404 C2429 0.951 . S
H2405 C2431 0.950 . S
H2406 C2432 0.950 . S
H2407 C2434 0.950 . S
H2408 C2437 0.950 . S
H2409 C2438 0.950 . S
H2410 C2440 0.950 . S
H2411 C2441 0.950 . S
C2412 H2394 0.951 . S
C2412 C2413 1.366 . S
C2412 C2414 1.388 . S
C2413 C2412 1.366 . S
C2413 C2417 1.385 . S
C2414 H2395 0.951 . S
C2414 C2412 1.388 . S
C2414 C2415 1.366 . S
C2415 C2414 1.366 . S
C2415 C2416 1.414 . S
C2415 C2418 1.499 . S
C2416 H2396 0.950 . S
C2416 C2415 1.414 . S
C2416 C2417 1.374 . S
C2417 H2397 0.950 . S
C2417 C2413 1.385 . S
C2417 C2416 1.374 . S
C2418 C2415 1.499 . S
C2418 C2419 1.373 . S
C2418 C2420 1.389 . S
C2419 H2398 0.950 . S
C2419 C2418 1.373 . S
C2419 C2435 1.377 . S
C2420 C2418 1.389 . S
C2420 C2421 1.524 . S
C2420 C2434 1.377 . S
C2421 C2420 1.524 . S
C2421 C2422 1.397 . S
C2421 C2426 1.363 . S
C2422 H2399 0.950 . S
C2422 C2421 1.397 . S
C2422 C2423 1.334 . S
C2423 H2400 0.950 . S
C2423 C2422 1.334 . S
C2423 C2424 1.287 . S
C2424 C2423 1.287 . S
C2424 C2425 1.524 . S
C2424 H2443 0.913 . S
C2425 H2401 0.950 . S
C2425 C2424 1.524 . S
C2425 C2426 1.415 . S
C2426 H2402 0.950 . S
C2426 C2421 1.363 . S
C2426 C2425 1.415 . S
C2427 H2403 0.951 . S
C2427 C2428 1.366 . S
C2427 C2429 1.388 . S
C2428 C2427 1.366 . S
C2428 C2432 1.385 . S
C2429 H2404 0.951 . S
C2429 C2427 1.388 . S
C2429 C2430 1.366 . S
C2430 C2429 1.366 . S
C2430 C2431 1.414 . S
C2430 C2433 1.499 . S
C2431 H2405 0.950 . S
C2431 C2430 1.414 . S
C2431 C2432 1.374 . S
C2432 H2406 0.950 . S
C2432 C2428 1.385 . S
C2432 C2431 1.374 . S
C2433 C2430 1.499 . S
C2433 C2434 1.373 . S
C2433 C2435 1.389 . S
C2434 H2407 0.950 . S
C2434 C2420 1.377 . S
C2434 C2433 1.373 . S
C2435 C2419 1.377 . S
C2435 C2433 1.389 . S
C2435 C2436 1.524 . S
C2436 C2435 1.524 . S
C2436 C2437 1.397 . S
C2436 C2441 1.363 . S
C2437 H2408 0.950 . S
C2437 C2436 1.397 . S
C2437 C2438 1.334 . S
C2438 H2409 0.950 . S
C2438 C2437 1.334 . S
C2438 C2439 1.287 . S
C2439 C2438 1.287 . S
C2439 C2440 1.524 . S
C2439 H2442 0.999 . S
C2440 H2410 0.950 . S
C2440 C2439 1.524 . S
C2440 C2441 1.415 . S
C2441 H2411 0.950 . S
C2441 C2436 1.363 . S
C2441 C2440 1.415 . S
H2442 C2439 0.999 . S
H2443 C2424 0.913 . S
H2444 C2462 0.951 . S
H2445 C2464 0.951 . S
H2446 C2466 0.950 . S
H2447 C2467 0.950 . S
H2448 C2469 0.950 . S
H2449 C2472 0.950 . S
H2450 C2473 0.950 . S
H2451 C2475 0.950 . S
H2452 C2476 0.950 . S
H2453 C2477 0.951 . S
H2454 C2479 0.951 . S
H2455 C2481 0.950 . S
H2456 C2482 0.950 . S
H2457 C2484 0.950 . S
H2458 C2487 0.950 . S
H2459 C2488 0.950 . S
H2460 C2490 0.950 . S
H2461 C2491 0.950 . S
C2462 H2444 0.951 . S
C2462 C2463 1.366 . S
C2462 C2464 1.388 . S
C2463 C2462 1.366 . S
C2463 C2467 1.385 . S
C2464 H2445 0.951 . S
C2464 C2462 1.388 . S
C2464 C2465 1.366 . S
C2465 C2464 1.366 . S
C2465 C2466 1.414 . S
C2465 C2468 1.499 . S
C2466 H2446 0.950 . S
C2466 C2465 1.414 . S
C2466 C2467 1.374 . S
C2467 H2447 0.950 . S
C2467 C2463 1.385 . S
C2467 C2466 1.374 . S
C2468 C2465 1.499 . S
C2468 C2469 1.373 . S
C2468 C2470 1.389 . S
C2469 H2448 0.950 . S
C2469 C2468 1.373 . S
C2469 C2485 1.377 . S
C2470 C2468 1.389 . S
C2470 C2471 1.524 . S
C2470 C2484 1.377 . S
C2471 C2470 1.524 . S
C2471 C2472 1.397 . S
C2471 C2476 1.363 . S
C2472 H2449 0.950 . S
C2472 C2471 1.397 . S
C2472 C2473 1.334 . S
C2473 H2450 0.950 . S
C2473 C2472 1.334 . S
C2473 C2474 1.287 . S
C2474 C2473 1.287 . S
C2474 C2475 1.524 . S
C2474 H2493 0.913 . S
C2475 H2451 0.950 . S
C2475 C2474 1.524 . S
C2475 C2476 1.415 . S
C2476 H2452 0.950 . S
C2476 C2471 1.363 . S
C2476 C2475 1.415 . S
C2477 H2453 0.951 . S
C2477 C2478 1.366 . S
C2477 C2479 1.388 . S
C2478 C2477 1.366 . S
C2478 C2482 1.385 . S
C2479 H2454 0.951 . S
C2479 C2477 1.388 . S
C2479 C2480 1.366 . S
C2480 C2479 1.366 . S
C2480 C2481 1.414 . S
C2480 C2483 1.499 . S
C2481 H2455 0.950 . S
C2481 C2480 1.414 . S
C2481 C2482 1.374 . S
C2482 H2456 0.950 . S
C2482 C2478 1.385 . S
C2482 C2481 1.374 . S
C2483 C2480 1.499 . S
C2483 C2484 1.373 . S
C2483 C2485 1.389 . S
C2484 H2457 0.950 . S
C2484 C2470 1.377 . S
C2484 C2483 1.373 . S
C2485 C2469 1.377 . S
C2485 C2483 1.389 . S
C2485 C2486 1.524 . S
C2486 C2485 1.524 . S
C2486 C2487 1.397 . S
C2486 C2491 1.363 . S
C2487 H2458 0.950 . S
C2487 C2486 1.397 . S
C2487 C2488 1.334 . S
C2488 H2459 0.950 . S
C2488 C2487 1.334 . S
C2488 C2489 1.287 . S
C2489 C2488 1.287 . S
C2489 C2490 1.524 . S
C2489 H2492 0.999 . S
C2490 H2460 0.950 . S
C2490 C2489 1.524 . S
C2490 C2491 1.415 . S
C2491 H2461 0.950 . S
C2491 C2486 1.363 . S
C2491 C2490 1.415 . S
H2492 C2489 0.999 . S
H2493 C2474 0.913 . S
H2494 C2512 0.951 . S
H2495 C2514 0.951 . S
H2496 C2516 0.950 . S
H2497 C2517 0.950 . S
H2498 C2519 0.950 . S
H2499 C2522 0.950 . S
H2500 C2523 0.950 . S
H2501 C2525 0.950 . S
H2502 C2526 0.950 . S
H2503 C2527 0.951 . S
H2504 C2529 0.951 . S
H2505 C2531 0.950 . S
H2506 C2532 0.950 . S
H2507 C2534 0.950 . S
H2508 C2537 0.950 . S
H2509 C2538 0.950 . S
H2510 C2540 0.950 . S
H2511 C2541 0.950 . S
C2512 H2494 0.951 . S
C2512 C2513 1.366 . S
C2512 C2514 1.388 . S
C2513 C2512 1.366 . S
C2513 C2517 1.385 . S
C2514 H2495 0.951 . S
C2514 C2512 1.388 . S
C2514 C2515 1.366 . S
C2515 C2514 1.366 . S
C2515 C2516 1.414 . S
C2515 C2518 1.499 . S
C2516 H2496 0.950 . S
C2516 C2515 1.414 . S
C2516 C2517 1.374 . S
C2517 H2497 0.950 . S
C2517 C2513 1.385 . S
C2517 C2516 1.374 . S
C2518 C2515 1.499 . S
C2518 C2519 1.373 . S
C2518 C2520 1.389 . S
C2519 H2498 0.950 . S
C2519 C2518 1.373 . S
C2519 C2535 1.377 . S
C2520 C2518 1.389 . S
C2520 C2521 1.524 . S
C2520 C2534 1.377 . S
C2521 C2520 1.524 . S
C2521 C2522 1.397 . S
C2521 C2526 1.363 . S
C2522 H2499 0.950 . S
C2522 C2521 1.397 . S
C2522 C2523 1.334 . S
C2523 H2500 0.950 . S
C2523 C2522 1.334 . S
C2523 C2524 1.287 . S
C2524 C2523 1.287 . S
C2524 C2525 1.524 . S
C2524 H2543 0.913 . S
C2525 H2501 0.950 . S
C2525 C2524 1.524 . S
C2525 C2526 1.415 . S
C2526 H2502 0.950 . S
C2526 C2521 1.363 . S
C2526 C2525 1.415 . S
C2527 H2503 0.951 . S
C2527 C2528 1.366 . S
C2527 C2529 1.388 . S
C2528 C2527 1.366 . S
C2528 C2532 1.385 . S
C2529 H2504 0.951 . S
C2529 C2527 1.388 . S
C2529 C2530 1.366 . S
C2530 C2529 1.366 . S
C2530 C2531 1.414 . S
C2530 C2533 1.499 . S
C2531 H2505 0.950 . S
C2531 C2530 1.414 . S
C2531 C2532 1.374 . S
C2532 H2506 0.950 . S
C2532 C2528 1.385 . S
C2532 C2531 1.374 . S
C2533 C2530 1.499 . S
C2533 C2534 1.373 . S
C2533 C2535 1.389 . S
C2534 H2507 0.950 . S
C2534 C2520 1.377 . S
C2534 C2533 1.373 . S
C2535 C2519 1.377 . S
C2535 C2533 1.389 . S
C2535 C2536 1.524 . S
C2536 C2535 1.524 . S
C2536 C2537 1.397 . S
C2536 C2541 1.363 . S
C2537 H2508 0.950 . S
C2537 C2536 1.397 . S
C2537 C2538 1.334 . S
C2538 H2509 0.950 . S
C2538 C2537 1.334 . S
C2538 C2539 1.287 . S
C2539 C2538 1.287 . S
C2539 C2540 1.524 . S
C2539 H2542 0.999 . S
C2540 H2510 0.950 . S
C2540 C2539 1.524 . S
C2540 C2541 1.415 . S
C2541 H2511 0.950 . S
C2541 C2536 1.363 . S
C2541 C2540 1.415 . S
H2542 C2539 0.999 . S
H2543 C2524 0.913 . S
C563 C9 1.040 . S
C578 C5 1.057 . S
C613 C43 1.040 . S
C628 C39 1.057 . S
C663 C73 1.058 . S
C678 C77 1.039 . S
C713 C107 1.057 . S
C728 C111 1.040 . S
C763 C145 1.040 . S
C778 C141 1.058 . S
C813 C175 1.058 . S
C828 C179 1.039 . S
C863 C209 1.057 . S
C878 C213 1.040 . S
C913 C243 1.058 . S
C928 C247 1.040 . S
C963 C281 1.040 . S
C978 C277 1.057 . S
C1013 C315 1.040 . S
C1028 C311 1.057 . S
C1063 C349 1.039 . S
C1078 C345 1.057 . S
C1113 C383 1.040 . S
C1128 C379 1.058 . S
C1163 C413 1.058 . S
C1178 C417 1.039 . S
C1213 C447 1.058 . S
C1228 C451 1.039 . S
C1263 C481 1.058 . S
C1278 C485 1.040 . S
C1313 C515 1.057 . S
C1328 C519 1.039 . S
C1363 C33 1.297 . S
C1378 C543 1.298 . S
C1413 C441 1.298 . S
C1428 C67 1.298 . S
C1463 C475 1.297 . S
C1478 C101 1.297 . S
C1513 C509 1.298 . S
C1528 C135 1.298 . S
C1563 C339 1.297 . S
C1578 C169 1.297 . S
C1613 C203 1.298 . S
C1628 C373 1.297 . S
C1663 C237 1.297 . S
C1678 C407 1.297 . S
C1713 C305 1.297 . S
C1728 C271 1.297 . S
C1763 C20 1.558 . S
C1778 C156 1.558 . S
C1813 C190 1.558 . S
C1828 C54 1.558 . S
C1863 C88 1.558 . S
C1878 C224 1.558 . S
C1913 C258 1.558 . S
C1928 C122 1.558 . S
C1963 C428 1.558 . S
C1978 C292 1.558 . S
C2013 C326 1.558 . S
C2028 C462 1.558 . S
C2063 C360 1.558 . S
C2078 C496 1.558 . S
C2113 C394 1.558 . S
C2128 C530 1.558 . S
C2163 C2 1.798 . S
C2178 C172 1.798 . S
C2213 C36 1.798 . S
C2228 C206 1.798 . S
C2263 C240 1.798 . S
C2278 C70 1.798 . S
C2313 C104 1.798 . S
C2328 C138 1.798 . S
C2363 C444 1.798 . S
C2378 C274 1.798 . S
C2413 C308 1.798 . S
C2428 C478 1.798 . S
C2463 C512 1.798 . S
C2478 C342 1.798 . S
C2513 C410 1.798 . S
C2528 C376 1.798 . S
