# Generated by pormake.
# Topology fnl, (5)-cn, num edge types: 1
# Building blocks:
#     Node 0, Type 0, BuildingBlock: XOMCOT_clean_sbu_1, # of connection points: 5
#     Node 1, Type 0, BuildingBlock: XOMCOT_clean_sbu_1, # of connection points: 5
#     Node 2, Type 0, BuildingBlock: XOMCOT_clean_sbu_1, # of connection points: 5
#     Node 3, Type 0, BuildingBlock: XOMCOT_clean_sbu_1, # of connection points: 5
#     Node 4, Type 0, BuildingBlock: XOMCOT_clean_sbu_1, # of connection points: 5
#     Node 5, Type 0, BuildingBlock: XOMCOT_clean_sbu_1, # of connection points: 5
#     Node 6, Type 0, BuildingBlock: XOMCOT_clean_sbu_1, # of connection points: 5
#     Node 7, Type 0, BuildingBlock: XOMCOT_clean_sbu_1, # of connection points: 5
#     Node 8, Type 0, BuildingBlock: XOMCOT_clean_sbu_1, # of connection points: 5
#     Node 9, Type 0, BuildingBlock: XOMCOT_clean_sbu_1, # of connection points: 5
#     Node 10, Type 0, BuildingBlock: XOMCOT_clean_sbu_1, # of connection points: 5
#     Node 11, Type 0, BuildingBlock: XOMCOT_clean_sbu_1, # of connection points: 5
#     Node 12, Type 0, BuildingBlock: XOMCOT_clean_sbu_1, # of connection points: 5
#     Node 13, Type 0, BuildingBlock: XOMCOT_clean_sbu_1, # of connection points: 5
#     Node 14, Type 0, BuildingBlock: XOMCOT_clean_sbu_1, # of connection points: 5
#     Node 15, Type 0, BuildingBlock: XOMCOT_clean_sbu_1, # of connection points: 5
#     Edge 16, Type (0, 0), BuildingBlock: OJICUG_clean_linker_0, # of connection points: 2
#     Edge 17, Type (0, 0), BuildingBlock: OJICUG_clean_linker_0, # of connection points: 2
#     Edge 18, Type (0, 0), BuildingBlock: OJICUG_clean_linker_0, # of connection points: 2
#     Edge 19, Type (0, 0), BuildingBlock: OJICUG_clean_linker_0, # of connection points: 2
#     Edge 20, Type (0, 0), BuildingBlock: OJICUG_clean_linker_0, # of connection points: 2
#     Edge 21, Type (0, 0), BuildingBlock: OJICUG_clean_linker_0, # of connection points: 2
#     Edge 22, Type (0, 0), BuildingBlock: OJICUG_clean_linker_0, # of connection points: 2
#     Edge 23, Type (0, 0), BuildingBlock: OJICUG_clean_linker_0, # of connection points: 2
#     Edge 24, Type (0, 0), BuildingBlock: OJICUG_clean_linker_0, # of connection points: 2
#     Edge 25, Type (0, 0), BuildingBlock: OJICUG_clean_linker_0, # of connection points: 2
#     Edge 26, Type (0, 0), BuildingBlock: OJICUG_clean_linker_0, # of connection points: 2
#     Edge 27, Type (0, 0), BuildingBlock: OJICUG_clean_linker_0, # of connection points: 2
#     Edge 28, Type (0, 0), BuildingBlock: OJICUG_clean_linker_0, # of connection points: 2
#     Edge 29, Type (0, 0), BuildingBlock: OJICUG_clean_linker_0, # of connection points: 2
#     Edge 30, Type (0, 0), BuildingBlock: OJICUG_clean_linker_0, # of connection points: 2
#     Edge 31, Type (0, 0), BuildingBlock: OJICUG_clean_linker_0, # of connection points: 2
#     Edge 32, Type (0, 0), BuildingBlock: OJICUG_clean_linker_0, # of connection points: 2
#     Edge 33, Type (0, 0), BuildingBlock: OJICUG_clean_linker_0, # of connection points: 2
#     Edge 34, Type (0, 0), BuildingBlock: OJICUG_clean_linker_0, # of connection points: 2
#     Edge 35, Type (0, 0), BuildingBlock: OJICUG_clean_linker_0, # of connection points: 2
#     Edge 36, Type (0, 0), BuildingBlock: OJICUG_clean_linker_0, # of connection points: 2
#     Edge 37, Type (0, 0), BuildingBlock: OJICUG_clean_linker_0, # of connection points: 2
#     Edge 38, Type (0, 0), BuildingBlock: OJICUG_clean_linker_0, # of connection points: 2
#     Edge 39, Type (0, 0), BuildingBlock: OJICUG_clean_linker_0, # of connection points: 2
#     Edge 40, Type (0, 0), BuildingBlock: OJICUG_clean_linker_0, # of connection points: 2
#     Edge 41, Type (0, 0), BuildingBlock: OJICUG_clean_linker_0, # of connection points: 2
#     Edge 42, Type (0, 0), BuildingBlock: OJICUG_clean_linker_0, # of connection points: 2
#     Edge 43, Type (0, 0), BuildingBlock: OJICUG_clean_linker_0, # of connection points: 2
#     Edge 44, Type (0, 0), BuildingBlock: OJICUG_clean_linker_0, # of connection points: 2
#     Edge 45, Type (0, 0), BuildingBlock: OJICUG_clean_linker_0, # of connection points: 2
#     Edge 46, Type (0, 0), BuildingBlock: OJICUG_clean_linker_0, # of connection points: 2
#     Edge 47, Type (0, 0), BuildingBlock: OJICUG_clean_linker_0, # of connection points: 2
#     Edge 48, Type (0, 0), BuildingBlock: OJICUG_clean_linker_0, # of connection points: 2
#     Edge 49, Type (0, 0), BuildingBlock: OJICUG_clean_linker_0, # of connection points: 2
#     Edge 50, Type (0, 0), BuildingBlock: OJICUG_clean_linker_0, # of connection points: 2
#     Edge 51, Type (0, 0), BuildingBlock: OJICUG_clean_linker_0, # of connection points: 2
#     Edge 52, Type (0, 0), BuildingBlock: OJICUG_clean_linker_0, # of connection points: 2
#     Edge 53, Type (0, 0), BuildingBlock: OJICUG_clean_linker_0, # of connection points: 2
#     Edge 54, Type (0, 0), BuildingBlock: OJICUG_clean_linker_0, # of connection points: 2
#     Edge 55, Type (0, 0), BuildingBlock: OJICUG_clean_linker_0, # of connection points: 2
# Relax obj value: 0.511
# Max RMSD: 0.268
# Mean RMSD: 0.268
data_MOF--net-fnl--node1-XOMCOT_clean_sbu_1--edge1-OJICUG_clean_linker_0
_symmetry_space_group_name_H-M    P1
_symmetry_Int_Tables_number       1
_symmetry_cell_setting            triclinic
loop_
_symmetry_equiv_pos_as_xyz
'x, y, z'
_cell_length_a     26.438289
_cell_length_b     26.374474
_cell_length_c     71.961177
_cell_angle_alpha  90.021913
_cell_angle_beta   90.004703
_cell_angle_gamma 89.980721
loop_
_atom_site_label
_atom_site_type_symbol
_atom_site_fract_x
_atom_site_fract_y
_atom_site_fract_z
_atom_type_partial_charge
C0 C 0.01256 0.02404 0.04974 0.0
C1 C 0.00264 0.9742 0.0459 0.0
N2 N 0.02277 0.94552 0.05952 0.0
N3 N 0.03904 0.02721 0.06566 0.0
C4 C 0.04453 0.97869 0.07148 0.0
H5 H 0.00113 0.05632 0.04148 0.0
Co6 Co 0.05681 0.09058 0.0744 0.0
C7 C 0.123 0.07465 0.10769 0.0
O8 O 0.10381 0.11507 0.11572 0.0
N9 N 0.07287 0.15678 0.08222 0.0
C10 C 0.11182 0.23078 0.08641 0.0
C11 C 0.11852 0.17952 0.08338 0.0
C12 C 0.03938 0.19508 0.08431 0.0
N13 N 0.06175 0.24049 0.08684 0.0
O14 O 0.10797 0.09318 0.05561 0.0
H15 H 0.15431 0.16045 0.0813 0.0
H16 H 0.99912 0.19039 0.08322 0.0
O17 O 0.10671 0.06072 0.09169 0.0
C18 C 0.10132 0.12155 0.04151 0.0
O19 O 0.06612 0.15667 0.04222 0.0
N20 N 0.00326 0.08637 0.09141 0.0
C21 C 0.91272 0.07227 0.1105 0.0
C22 C 0.95857 0.05518 0.11798 0.0
C23 C 0.00315 0.06122 0.10798 0.0
C24 C 0.95878 0.10261 0.08383 0.0
C25 C 0.91303 0.09645 0.09322 0.0
H26 H 0.036 0.04198 0.11315 0.0
H27 H 0.95874 0.11895 0.07004 0.0
H28 H 0.06444 0.96791 0.08401 0.0
H29 H 0.98173 0.96016 0.03403 0.0
H30 H 0.14152 0.25892 0.08718 0.0
H31 H 0.95948 0.03341 0.13074 0.0
H32 H 0.8781 0.10842 0.08668 0.0
C33 C 0.33142 0.82849 0.30058 0.0
C34 C 0.38133 0.81892 0.29692 0.0
N35 N 0.40949 0.8406 0.31035 0.0
N36 N 0.32773 0.85631 0.31619 0.0
C37 C 0.37599 0.86294 0.32202 0.0
H38 H 0.29947 0.81604 0.29237 0.0
Co39 Co 0.2643 0.87459 0.3246 0.0
C40 C 0.27962 0.94216 0.35757 0.0
O41 O 0.23948 0.9226 0.3656 0.0
N42 N 0.19809 0.89124 0.33212 0.0
C43 C 0.12454 0.93114 0.33596 0.0
C44 C 0.17579 0.93725 0.33304 0.0
C45 C 0.15953 0.85811 0.33423 0.0
N46 N 0.1144 0.88107 0.33656 0.0
O47 O 0.26183 0.92449 0.3053 0.0
H48 H 0.19517 0.97288 0.33088 0.0
H49 H 0.16378 0.81767 0.3333 0.0
O50 O 0.29368 0.92577 0.34159 0.0
C51 C 0.23351 0.9164 0.29128 0.0
O52 O 0.19899 0.88071 0.29236 0.0
N53 N 0.26834 0.82209 0.34211 0.0
C54 C 0.2822 0.7326 0.36202 0.0
C55 C 0.30036 0.77884 0.36889 0.0
C56 C 0.29445 0.82282 0.35848 0.0
C57 C 0.25126 0.77717 0.33508 0.0
C58 C 0.25718 0.73197 0.34491 0.0
H59 H 0.31459 0.85579 0.36311 0.0
H60 H 0.23455 0.77625 0.32136 0.0
H61 H 0.38638 0.8842 0.3343 0.0
H62 H 0.39582 0.79734 0.28528 0.0
H63 H 0.09671 0.96119 0.33655 0.0
H64 H 0.32286 0.78039 0.38147 0.0
H65 H 0.24445 0.69666 0.33881 0.0
C66 C 0.52476 0.15017 0.55038 0.0
C67 C 0.53565 0.19975 0.54646 0.0
N68 N 0.51417 0.22917 0.55959 0.0
N69 N 0.49639 0.14788 0.56586 0.0
C70 C 0.49065 0.19668 0.57134 0.0
H71 H 0.5368 0.11745 0.54246 0.0
Co72 Co 0.47686 0.08499 0.57455 0.0
C73 C 0.4118 0.10234 0.60794 0.0
O74 O 0.432 0.06246 0.616 0.0
N75 N 0.45883 0.01932 0.58236 0.0
C76 C 0.41642 0.94739 0.58682 0.0
C77 C 0.41215 0.99879 0.58362 0.0
C78 C 0.49055 0.97955 0.58459 0.0
N79 N 0.46596 0.9355 0.58742 0.0
O80 O 0.42632 0.0834 0.55547 0.0
H81 H 0.37727 0.01951 0.58159 0.0
H82 H 0.53092 0.98163 0.58279 0.0
O83 O 0.42706 0.1159 0.59175 0.0
C84 C 0.43337 0.05463 0.54148 0.0
O85 O 0.46813 0.01913 0.54254 0.0
N86 N 0.53005 0.08804 0.59174 0.0
C87 C 0.62096 0.10181 0.61063 0.0
C88 C 0.5757 0.12143 0.61775 0.0
C89 C 0.53099 0.1156 0.60781 0.0
C90 C 0.57396 0.06914 0.58456 0.0
C91 C 0.61989 0.07518 0.59384 0.0
H92 H 0.49886 0.137 0.61245 0.0
H93 H 0.57363 0.05139 0.571 0.0
H94 H 0.46928 0.20815 0.58346 0.0
H95 H 0.55811 0.21309 0.53488 0.0
H96 H 0.3855 0.92072 0.58803 0.0
H97 H 0.57558 0.14507 0.63007 0.0
H98 H 0.65447 0.06139 0.58754 0.0
C99 C 0.20381 0.35186 0.80248 0.0
C100 C 0.15413 0.36244 0.79878 0.0
N101 N 0.12529 0.33866 0.81152 0.0
N102 N 0.20667 0.32138 0.81743 0.0
C103 C 0.15814 0.31408 0.82281 0.0
H104 H 0.23619 0.36531 0.79473 0.0
Co105 Co 0.2696 0.30077 0.82556 0.0
C106 C 0.25322 0.23352 0.8584 0.0
O107 O 0.29333 0.25318 0.86644 0.0
N108 N 0.33527 0.28165 0.83282 0.0
C109 C 0.40678 0.23816 0.83657 0.0
C110 C 0.35536 0.23459 0.83359 0.0
C111 C 0.37533 0.3129 0.83509 0.0
N112 N 0.41913 0.28766 0.83751 0.0
O113 O 0.2701 0.2516 0.80596 0.0
H114 H 0.33429 0.19996 0.83139 0.0
H115 H 0.37357 0.35347 0.83363 0.0
O116 O 0.2392 0.24976 0.8424 0.0
C117 C 0.29837 0.25926 0.79191 0.0
O118 O 0.33384 0.294 0.79301 0.0
N119 N 0.26749 0.35272 0.84337 0.0
C120 C 0.25436 0.44233 0.86331 0.0
C121 C 0.23436 0.39654 0.86987 0.0
C122 C 0.23986 0.35257 0.8594 0.0
C123 C 0.28681 0.39716 0.83674 0.0
C124 C 0.28118 0.44241 0.84657 0.0
H125 H 0.21803 0.32025 0.86361 0.0
H126 H 0.3044 0.39792 0.82317 0.0
H127 H 0.14708 0.29061 0.83446 0.0
H128 H 0.14024 0.386 0.78757 0.0
H129 H 0.43313 0.20684 0.83741 0.0
H130 H 0.21054 0.39556 0.88212 0.0
H131 H 0.29525 0.47747 0.84069 0.0
C132 C 0.01359 0.15112 0.95931 0.0
C133 C 0.00358 0.20095 0.96314 0.0
N134 N 0.02344 0.22962 0.94947 0.0
N135 N 0.03985 0.14793 0.94335 0.0
C136 C 0.04512 0.19644 0.93749 0.0
H137 H 0.00233 0.11885 0.96761 0.0
Co138 Co 0.05748 0.0845 0.93458 0.0
C139 C 0.12342 0.10034 0.90121 0.0
O140 O 0.10415 0.05992 0.89321 0.0
N141 N 0.07339 0.01825 0.92673 0.0
C142 C 0.11224 0.9442 0.92249 0.0
C143 C 0.11901 0.99543 0.92556 0.0
C144 C 0.03984 0.98003 0.9246 0.0
N145 N 0.06216 0.93457 0.92204 0.0
O146 O 0.10877 0.08178 0.95333 0.0
H147 H 0.15482 0.01441 0.92765 0.0
H148 H -0.00041 0.98482 0.92567 0.0
O149 O 0.10729 0.11431 0.91722 0.0
C150 C 0.102 0.05341 0.96742 0.0
O151 O 0.06678 0.01833 0.96667 0.0
N152 N 0.00379 0.08882 0.91764 0.0
C153 C 0.91303 0.10323 0.89873 0.0
C154 C 0.95882 0.12009 0.89115 0.0
C155 C 0.00352 0.11391 0.90106 0.0
C156 C 0.95938 0.07276 0.92531 0.0
C157 C 0.91351 0.07911 0.91603 0.0
H158 H 0.03636 0.13298 0.89582 0.0
H159 H 0.95951 0.05642 0.9391 0.0
H160 H 0.06477 0.2072 0.9249 0.0
H161 H 0.98276 0.21497 0.97503 0.0
H162 H 0.14191 0.91601 0.9217 0.0
H163 H 0.9596 0.14179 0.87837 0.0
H164 H 0.87863 0.06732 0.92263 0.0
C165 C 0.20383 0.82414 0.20662 0.0
C166 C 0.15416 0.81362 0.21037 0.0
N167 N 0.12527 0.8368 0.19749 0.0
N168 N 0.20663 0.85398 0.1915 0.0
C169 C 0.15808 0.86096 0.18607 0.0
H170 H 0.23623 0.81105 0.21445 0.0
Co171 Co 0.26955 0.87425 0.18323 0.0
C172 C 0.25293 0.94105 0.15028 0.0
O173 O 0.29288 0.9212 0.14219 0.0
N174 N 0.33519 0.89306 0.17582 0.0
C175 C 0.40669 0.93637 0.17188 0.0
C176 C 0.3553 0.94007 0.1749 0.0
C177 C 0.3752 0.8617 0.17358 0.0
N178 N 0.419 0.88684 0.17106 0.0
O179 O 0.27035 0.92382 0.20267 0.0
H180 H 0.33428 0.97477 0.17704 0.0
H181 H 0.37341 0.82115 0.17516 0.0
O182 O 0.23908 0.92502 0.16632 0.0
C183 C 0.29879 0.91653 0.2167 0.0
O184 O 0.33434 0.88183 0.21565 0.0
N185 N 0.26716 0.82197 0.16556 0.0
C186 C 0.25381 0.73208 0.14582 0.0
C187 C 0.23388 0.77781 0.13917 0.0
C188 C 0.23949 0.82193 0.14954 0.0
C189 C 0.2864 0.7776 0.17229 0.0
C190 C 0.28063 0.73218 0.16256 0.0
H191 H 0.21774 0.85425 0.14525 0.0
H192 H 0.30408 0.77704 0.18585 0.0
H193 H 0.14699 0.88387 0.17428 0.0
H194 H 0.14035 0.79047 0.2217 0.0
H195 H 0.43305 0.96764 0.17093 0.0
H196 H 0.21007 0.77865 0.12692 0.0
H197 H 0.29463 0.69718 0.16852 0.0
C198 C 0.52594 0.02417 0.4578 0.0
C199 C 0.53681 0.97454 0.46166 0.0
N200 N 0.51515 0.94525 0.44854 0.0
N201 N 0.4974 0.0266 0.44236 0.0
C202 C 0.49154 0.97785 0.43685 0.0
H203 H 0.53808 0.05682 0.46574 0.0
Co204 Co 0.47775 0.08953 0.43375 0.0
C205 C 0.41237 0.07237 0.40045 0.0
O206 O 0.43248 0.11227 0.39238 0.0
N207 N 0.45961 0.15522 0.42601 0.0
C208 C 0.4171 0.22714 0.4216 0.0
C209 C 0.4129 0.17575 0.42481 0.0
C210 C 0.49127 0.19498 0.42374 0.0
N211 N 0.46663 0.23902 0.42093 0.0
O212 O 0.42739 0.09103 0.45289 0.0
H213 H 0.37805 0.15504 0.42689 0.0
H214 H 0.53166 0.1929 0.42548 0.0
O215 O 0.42779 0.05873 0.4166 0.0
C216 C 0.43434 0.11977 0.46689 0.0
O217 O 0.46912 0.15523 0.46588 0.0
N218 N 0.53074 0.08654 0.41646 0.0
C219 C 0.62129 0.0731 0.3973 0.0
C220 C 0.57595 0.05331 0.39032 0.0
C221 C 0.53145 0.05898 0.40039 0.0
C222 C 0.57475 0.10551 0.42353 0.0
C223 C 0.62049 0.09967 0.4141 0.0
H224 H 0.4993 0.03747 0.39584 0.0
H225 H 0.57465 0.12322 0.4371 0.0
H226 H 0.46999 0.96648 0.42476 0.0
H227 H 0.55936 0.96107 0.47321 0.0
H228 H 0.38616 0.25382 0.42043 0.0
H229 H 0.57564 0.02968 0.37799 0.0
H230 H 0.65515 0.11357 0.4203 0.0
C231 C 0.33123 0.34687 0.70763 0.0
C232 C 0.38121 0.35629 0.71123 0.0
N233 N 0.40915 0.33437 0.69779 0.0
N234 N 0.32733 0.31888 0.69207 0.0
C235 C 0.3755 0.31203 0.68619 0.0
H236 H 0.29939 0.35949 0.71587 0.0
Co237 Co 0.26387 0.30054 0.68375 0.0
C238 C 0.27903 0.2325 0.6509 0.0
O239 O 0.23888 0.25207 0.64286 0.0
N240 N 0.19762 0.28383 0.67632 0.0
C241 C 0.12409 0.24392 0.67254 0.0
C242 C 0.17535 0.23782 0.67546 0.0
C243 C 0.15904 0.31696 0.67421 0.0
N244 N 0.11393 0.29398 0.6719 0.0
O245 O 0.26144 0.25104 0.70322 0.0
H246 H 0.19477 0.2022 0.67763 0.0
H247 H 0.16324 0.3574 0.6751 0.0
O248 O 0.29314 0.24898 0.66686 0.0
C249 C 0.23323 0.25955 0.71723 0.0
O250 O 0.19884 0.29538 0.71607 0.0
N251 N 0.26787 0.3527 0.66609 0.0
C252 C 0.28163 0.44176 0.64591 0.0
C253 C 0.29996 0.3954 0.63921 0.0
C254 C 0.2941 0.35165 0.64976 0.0
C255 C 0.25069 0.39776 0.67297 0.0
C256 C 0.25652 0.44273 0.66301 0.0
H257 H 0.31439 0.31863 0.64525 0.0
H258 H 0.23397 0.39899 0.68669 0.0
H259 H 0.38572 0.29055 0.67394 0.0
H260 H 0.3959 0.37788 0.72283 0.0
H261 H 0.09627 0.21387 0.67197 0.0
H262 H 0.32255 0.3936 0.62666 0.0
H263 H 0.24367 0.47816 0.66899 0.0
C264 C 0.70367 0.32214 0.70563 0.0
C265 C 0.65402 0.31145 0.70933 0.0
N266 N 0.62506 0.33578 0.69677 0.0
N267 N 0.70638 0.35321 0.69084 0.0
C268 C 0.6578 0.36079 0.68557 0.0
H269 H 0.73612 0.30835 0.71326 0.0
Co270 Co 0.76925 0.37409 0.68277 0.0
C271 C 0.75278 0.4418 0.65007 0.0
O272 O 0.79295 0.4223 0.64202 0.0
N273 N 0.83489 0.39349 0.67558 0.0
C274 C 0.90632 0.43717 0.67199 0.0
C275 C 0.85487 0.44059 0.67493 0.0
C276 C 0.87504 0.36235 0.67326 0.0
N277 N 0.91879 0.38772 0.67093 0.0
O278 O 0.76962 0.4229 0.7025 0.0
H279 H 0.83369 0.47515 0.67721 0.0
H280 H 0.87339 0.32176 0.67463 0.0
O281 O 0.73875 0.42535 0.66604 0.0
C282 C 0.79792 0.41502 0.71653 0.0
O283 O 0.83338 0.38025 0.71535 0.0
N284 N 0.76728 0.32247 0.66483 0.0
C285 C 0.75416 0.23318 0.64469 0.0
C286 C 0.73401 0.27905 0.63827 0.0
C287 C 0.7395 0.32284 0.64883 0.0
C288 C 0.78677 0.27795 0.67133 0.0
C289 C 0.78118 0.23286 0.66139 0.0
H290 H 0.71752 0.35518 0.64472 0.0
H291 H 0.80445 0.27697 0.68488 0.0
H292 H 0.64662 0.38476 0.67408 0.0
H293 H 0.64024 0.28745 0.72043 0.0
H294 H 0.9326 0.46856 0.67125 0.0
H295 H 0.71005 0.2802 0.62605 0.0
H296 H 0.79538 0.19773 0.66718 0.0
C297 C 0.83114 0.84673 0.20764 0.0
C298 C 0.88102 0.85634 0.21133 0.0
N299 N 0.90927 0.83424 0.19801 0.0
N300 N 0.82755 0.81847 0.19214 0.0
C301 C 0.87585 0.8116 0.1864 0.0
H302 H 0.79913 0.85943 0.21577 0.0
Co303 Co 0.76416 0.79997 0.18377 0.0
C304 C 0.77949 0.73215 0.15089 0.0
O305 O 0.73931 0.75166 0.14286 0.0
N306 N 0.69796 0.78312 0.17631 0.0
C307 C 0.62447 0.74307 0.17259 0.0
C308 C 0.67575 0.73707 0.17547 0.0
C309 C 0.65931 0.81617 0.17418 0.0
N310 N 0.61422 0.79311 0.17193 0.0
O311 O 0.76184 0.75032 0.20317 0.0
H312 H 0.69523 0.70149 0.17767 0.0
H313 H 0.66348 0.85662 0.17504 0.0
O314 O 0.79358 0.74862 0.16685 0.0
C315 C 0.73358 0.75857 0.21719 0.0
O316 O 0.69905 0.79428 0.21607 0.0
N317 N 0.76806 0.85227 0.16617 0.0
C318 C 0.78178 0.9415 0.14609 0.0
C319 C 0.80015 0.8952 0.13934 0.0
C320 C 0.79431 0.85137 0.14983 0.0
C321 C 0.75079 0.89724 0.17309 0.0
C322 C 0.75662 0.94231 0.16317 0.0
H323 H 0.81464 0.8184 0.1453 0.0
H324 H 0.73403 0.89835 0.1868 0.0
H325 H 0.88633 0.78994 0.17421 0.0
H326 H 0.89543 0.87823 0.2229 0.0
H327 H 0.5967 0.71297 0.17206 0.0
H328 H 0.82277 0.89353 0.12679 0.0
H329 H 0.74373 0.97768 0.16919 0.0
C330 C 0.83135 0.32744 0.80117 0.0
C331 C 0.88128 0.31788 0.79755 0.0
N332 N 0.90937 0.34026 0.81084 0.0
N333 N 0.8276 0.35595 0.81661 0.0
C334 C 0.87583 0.36301 0.82238 0.0
H335 H 0.79942 0.31455 0.79304 0.0
Co336 Co 0.76418 0.37454 0.8249 0.0
C337 C 0.7794 0.443 0.85762 0.0
O338 O 0.73925 0.42355 0.86567 0.0
N339 N 0.69794 0.39146 0.83229 0.0
C340 C 0.62438 0.4315 0.83592 0.0
C341 C 0.67567 0.43751 0.83305 0.0
C342 C 0.65933 0.35841 0.83443 0.0
N343 N 0.61421 0.38146 0.83663 0.0
O344 O 0.76174 0.4237 0.80531 0.0
H345 H 0.69511 0.47307 0.83081 0.0
H346 H 0.66352 0.31796 0.83361 0.0
O347 O 0.79351 0.42634 0.84168 0.0
C348 C 0.73351 0.41493 0.79132 0.0
O349 O 0.69919 0.37907 0.79257 0.0
N350 N 0.76819 0.32268 0.84268 0.0
C351 C 0.78201 0.23393 0.86305 0.0
C352 C 0.80047 0.28037 0.86962 0.0
C353 C 0.79458 0.32395 0.85898 0.0
C354 C 0.75088 0.27754 0.83592 0.0
C355 C 0.75671 0.23273 0.84599 0.0
H356 H 0.81499 0.357 0.86337 0.0
H357 H 0.73408 0.27609 0.82222 0.0
H358 H 0.88618 0.38491 0.83452 0.0
H359 H 0.89585 0.29589 0.78602 0.0
H360 H 0.59656 0.46158 0.83639 0.0
H361 H 0.82321 0.28233 0.88213 0.0
H362 H 0.74374 0.19724 0.8401 0.0
C363 C 0.70411 0.85088 0.30215 0.0
C364 C 0.65446 0.86148 0.29839 0.0
N365 N 0.62549 0.83791 0.31114 0.0
N366 N 0.70684 0.82062 0.31716 0.0
C367 C 0.65826 0.81344 0.32251 0.0
H368 H 0.73654 0.86421 0.2944 0.0
Co369 Co 0.76977 0.80016 0.32537 0.0
C370 C 0.75324 0.73304 0.35823 0.0
O371 O 0.79323 0.75279 0.36632 0.0
N372 N 0.83544 0.78117 0.33272 0.0
C373 C 0.90696 0.73776 0.33655 0.0
C374 C 0.85555 0.73413 0.33355 0.0
C375 C 0.87547 0.81247 0.33498 0.0
N376 N 0.91929 0.78726 0.33744 0.0
O377 O 0.77048 0.75083 0.30584 0.0
H378 H 0.83451 0.69947 0.33137 0.0
H379 H 0.87369 0.85303 0.33347 0.0
O380 O 0.73933 0.74921 0.34221 0.0
C381 C 0.79886 0.75832 0.2918 0.0
O382 O 0.83436 0.79304 0.2929 0.0
N383 N 0.76746 0.85221 0.34313 0.0
C384 C 0.75418 0.94186 0.36303 0.0
C385 C 0.73417 0.89608 0.36958 0.0
C386 C 0.73974 0.85209 0.35914 0.0
C387 C 0.78678 0.89664 0.33649 0.0
C388 C 0.78106 0.94193 0.3463 0.0
H389 H 0.71791 0.81977 0.36335 0.0
H390 H 0.80446 0.89736 0.32294 0.0
H391 H 0.64711 0.79018 0.3342 0.0
H392 H 0.64069 0.88494 0.28713 0.0
H393 H 0.93332 0.70645 0.33743 0.0
H394 H 0.7103 0.89513 0.38182 0.0
H395 H 0.79513 0.97698 0.34041 0.0
C396 C 0.51185 0.52431 0.54945 0.0
C397 C 0.50181 0.47451 0.5456 0.0
N398 N 0.5221 0.44572 0.55915 0.0
N399 N 0.53856 0.52736 0.56532 0.0
C400 C 0.54407 0.4788 0.57109 0.0
H401 H 0.50034 0.55665 0.54124 0.0
Co402 Co 0.55641 0.59075 0.57404 0.0
C403 C 0.6226 0.57489 0.60734 0.0
O404 O 0.60333 0.61531 0.61535 0.0
N405 N 0.57253 0.65699 0.58184 0.0
C406 C 0.61154 0.73098 0.58597 0.0
C407 C 0.61819 0.67971 0.58294 0.0
C408 C 0.53907 0.69531 0.58397 0.0
N409 N 0.56149 0.74073 0.58647 0.0
O410 O 0.60748 0.59329 0.55522 0.0
H411 H 0.65396 0.66062 0.58083 0.0
H412 H 0.4988 0.69062 0.58295 0.0
O413 O 0.60638 0.56091 0.59134 0.0
C414 C 0.60059 0.62155 0.5411 0.0
O415 O 0.56535 0.65662 0.54185 0.0
N416 N 0.50291 0.58658 0.59108 0.0
C417 C 0.41242 0.57243 0.61018 0.0
C418 C 0.45827 0.55528 0.61763 0.0
C419 C 0.50282 0.56133 0.60763 0.0
C420 C 0.45843 0.60287 0.58352 0.0
C421 C 0.41269 0.59667 0.59291 0.0
H422 H 0.53567 0.54202 0.61276 0.0
H423 H 0.45837 0.61926 0.56974 0.0
H424 H 0.56412 0.46792 0.58359 0.0
H425 H 0.48068 0.46058 0.53376 0.0
H426 H 0.64127 0.7591 0.5867 0.0
H427 H 0.45919 0.53345 0.63039 0.0
H428 H 0.37775 0.60867 0.58639 0.0
C429 C 0.02703 0.64999 0.05098 0.0
C430 C 0.03796 0.6996 0.04712 0.0
N431 N 0.01577 0.72899 0.06009 0.0
N432 N 0.99794 0.64768 0.06629 0.0
C433 C 0.99179 0.69647 0.0717 0.0
H434 H 0.03948 0.61729 0.04315 0.0
Co435 Co 0.97801 0.58477 0.07482 0.0
C436 C 0.9123 0.6019 0.10802 0.0
O437 O 0.9323 0.56192 0.11608 0.0
N438 N 0.95958 0.51909 0.08248 0.0
C439 C 0.91685 0.44727 0.08675 0.0
C440 C 0.91281 0.49869 0.08355 0.0
C441 C 0.99112 0.47923 0.08481 0.0
N442 N 0.96633 0.43525 0.08754 0.0
O443 O 0.92793 0.58353 0.05558 0.0
H444 H 0.87805 0.51951 0.0814 0.0
H445 H 0.03154 0.4812 0.08317 0.0
O446 O 0.92787 0.61562 0.0919 0.0
C447 C 0.93511 0.55491 0.04156 0.0
O448 O 0.96988 0.51942 0.0426 0.0
N449 N 0.03076 0.58753 0.09222 0.0
C450 C 0.12107 0.60077 0.11156 0.0
C451 C 0.07569 0.62073 0.11843 0.0
C452 C 0.03131 0.61516 0.10827 0.0
C453 C 0.07481 0.56838 0.08525 0.0
C454 C 0.12044 0.5741 0.09477 0.0
H455 H 0.99917 0.63683 0.11275 0.0
H456 H 0.07488 0.55065 0.07169 0.0
H457 H 0.96976 0.70793 0.08367 0.0
H458 H 0.06089 0.71299 0.03567 0.0
H459 H 0.88583 0.42067 0.08783 0.0
H460 H 0.07526 0.64444 0.13074 0.0
H461 H 0.15515 0.56007 0.08864 0.0
C462 C 0.51168 0.65013 0.45846 0.0
C463 C 0.50166 0.69994 0.46232 0.0
N464 N 0.52229 0.72871 0.44883 0.0
N465 N 0.5387 0.64705 0.44267 0.0
C466 C 0.54442 0.69561 0.43693 0.0
H467 H 0.49998 0.61779 0.46664 0.0
Co468 Co 0.55675 0.58368 0.434 0.0
C469 C 0.62329 0.59953 0.40081 0.0
O470 O 0.60423 0.55905 0.39279 0.0
N471 N 0.57307 0.51746 0.42625 0.0
C472 C 0.61217 0.44344 0.42223 0.0
C473 C 0.61876 0.49474 0.42521 0.0
C474 C 0.53966 0.47912 0.42413 0.0
N475 N 0.56213 0.4337 0.4217 0.0
O476 O 0.60762 0.58125 0.45289 0.0
H477 H 0.65449 0.51384 0.42735 0.0
H478 H 0.49938 0.48378 0.42512 0.0
O479 O 0.60684 0.61353 0.41678 0.0
C480 C 0.60069 0.55302 0.46702 0.0
O481 O 0.56549 0.51792 0.46625 0.0
N482 N 0.50344 0.58775 0.41687 0.0
C483 C 0.41313 0.60171 0.39761 0.0
C484 C 0.45904 0.61892 0.39023 0.0
C485 C 0.50349 0.61295 0.40031 0.0
C486 C 0.4589 0.57141 0.42436 0.0
C487 C 0.41327 0.57747 0.41488 0.0
H488 H 0.53635 0.63229 0.39522 0.0
H489 H 0.4587 0.55507 0.43815 0.0
H490 H 0.56479 0.70648 0.42451 0.0
H491 H 0.48038 0.71391 0.4741 0.0
H492 H 0.64192 0.41531 0.42155 0.0
H493 H 0.46007 0.64074 0.37748 0.0
H494 H 0.37828 0.56541 0.42134 0.0
C495 C 0.02634 0.52524 0.9578 0.0
C496 C 0.03731 0.47568 0.96173 0.0
N497 N 0.01542 0.44617 0.94873 0.0
N498 N 0.99753 0.52744 0.94242 0.0
C499 C 0.99159 0.4786 0.93703 0.0
H500 H 0.03862 0.55801 0.96564 0.0
Co501 Co 0.97778 0.59035 0.9338 0.0
C502 C 0.91239 0.57309 0.90049 0.0
O503 O 0.93246 0.61301 0.89243 0.0
N504 N 0.95956 0.65605 0.92606 0.0
C505 C 0.91702 0.728 0.92171 0.0
C506 C 0.91285 0.67657 0.92488 0.0
C507 C 0.9912 0.69585 0.92382 0.0
N508 N 0.96654 0.73991 0.92105 0.0
O509 O 0.92747 0.5918 0.95296 0.0
H510 H 0.87801 0.65583 0.92694 0.0
H511 H 0.03159 0.69378 0.92556 0.0
O512 O 0.92781 0.55947 0.91665 0.0
C513 C 0.93465 0.62045 0.96697 0.0
O514 O 0.96942 0.65591 0.96592 0.0
N515 N 0.03076 0.58742 0.91651 0.0
C516 C 0.12141 0.57384 0.89744 0.0
C517 C 0.0761 0.5541 0.89042 0.0
C518 C 0.03153 0.55984 0.90045 0.0
C519 C 0.07473 0.60639 0.92361 0.0
C520 C 0.12053 0.60048 0.91422 0.0
H521 H 0.99939 0.53834 0.89588 0.0
H522 H 0.07458 0.62412 0.93717 0.0
H523 H 0.96984 0.46705 0.92501 0.0
H524 H 0.06008 0.46241 0.97325 0.0
H525 H 0.88606 0.75467 0.92057 0.0
H526 H 0.07585 0.53044 0.8781 0.0
H527 H 0.15517 0.61434 0.92046 0.0
C528 C 0.0379 0.37908 0.09585 0.0
C529 C 0.98899 0.38552 0.08849 0.0
H530 H 0.09907 0.32799 0.10136 0.0
C531 C 0.96392 0.34319 0.08112 0.0
H532 H 0.05799 0.41088 0.10185 0.0
C533 C 0.98758 0.29582 0.08069 0.0
C534 C 0.03688 0.28933 0.08779 0.0
H535 H 0.92664 0.34698 0.07506 0.0
H536 H 0.96746 0.26476 0.07426 0.0
C537 C 0.06153 0.33157 0.09553 0.0
C538 C 0.02362 0.88176 0.3453 0.0
C539 C 0.06545 0.85667 0.3375 0.0
H540 H 0.94457 0.87891 0.35175 0.0
C541 C 0.05847 0.80738 0.33035 0.0
H542 H 0.02761 0.91933 0.35116 0.0
C543 C 0.01101 0.78411 0.33082 0.0
C544 C 0.96908 0.80958 0.33829 0.0
H545 H 0.08924 0.78698 0.32388 0.0
H546 H 0.00686 0.74681 0.32474 0.0
C547 C 0.97602 0.85851 0.34567 0.0
C548 C 0.46347 0.84341 0.58104 0.0
C549 C 0.48872 0.8858 0.58828 0.0
H550 H 0.46682 0.76495 0.57422 0.0
C551 C 0.53786 0.87941 0.59544 0.0
H552 H 0.42601 0.84714 0.57513 0.0
C553 C 0.5615 0.8319 0.59506 0.0
C554 C 0.53664 0.78959 0.58746 0.0
H555 H 0.55812 0.91126 0.60133 0.0
H556 H 0.59921 0.82838 0.60075 0.0
C557 C 0.48714 0.79604 0.58054 0.0
C558 C 0.47587 0.35889 0.84576 0.0
C559 C 0.46892 0.30997 0.83836 0.0
H560 H 0.52746 0.41972 0.85124 0.0
C561 C 0.51084 0.28453 0.83087 0.0
H562 H 0.44443 0.37927 0.85185 0.0
C563 C 0.55829 0.30781 0.8304 0.0
C564 C 0.56526 0.35709 0.83756 0.0
H565 H 0.50668 0.24725 0.82477 0.0
H566 H 0.58906 0.28745 0.8239 0.0
C567 C 0.52345 0.38216 0.84537 0.0
C568 C 0.03834 0.79599 0.91296 0.0
C569 C 0.98928 0.78961 0.92018 0.0
H570 H 0.09966 0.84698 0.90761 0.0
C571 C 0.9641 0.83199 0.92749 0.0
H572 H 0.05852 0.76416 0.90702 0.0
C573 C 0.9878 0.87933 0.92798 0.0
C574 C 0.03724 0.88577 0.92102 0.0
H575 H 0.9267 0.82826 0.93344 0.0
H576 H 0.96756 0.91042 0.93435 0.0
C577 C 0.062 0.84347 0.91334 0.0
C578 C 0.51074 0.89005 0.17762 0.0
C579 C 0.4688 0.86449 0.17022 0.0
H580 H 0.58901 0.8873 0.18451 0.0
C581 C 0.47574 0.81547 0.16291 0.0
H582 H 0.50659 0.92742 0.18365 0.0
C583 C 0.52336 0.79225 0.16328 0.0
C584 C 0.56522 0.81745 0.17101 0.0
H585 H 0.44426 0.79499 0.1569 0.0
H586 H 0.52736 0.75461 0.15748 0.0
C587 C 0.55823 0.86681 0.17809 0.0
C588 C 0.53844 0.29503 0.41279 0.0
C589 C 0.48938 0.2887 0.42001 0.0
H590 H 0.59974 0.34603 0.40738 0.0
C591 C 0.46421 0.3311 0.4273 0.0
H592 H 0.55862 0.26317 0.40687 0.0
C593 C 0.48789 0.37844 0.42775 0.0
C594 C 0.5373 0.38485 0.42076 0.0
H595 H 0.42682 0.3274 0.43327 0.0
H596 H 0.46766 0.40955 0.4341 0.0
C597 C 0.56209 0.34252 0.41313 0.0
C598 C 0.01044 0.39082 0.67771 0.0
C599 C 0.96864 0.36549 0.67009 0.0
H600 H 0.08859 0.38779 0.68479 0.0
C601 C 0.97572 0.31671 0.66258 0.0
H602 H 0.00617 0.42799 0.68389 0.0
C603 C 0.02331 0.29345 0.66299 0.0
C604 C 0.065 0.31839 0.67094 0.0
H605 H 0.94437 0.29644 0.65639 0.0
H606 H 0.02743 0.256 0.65704 0.0
C607 C 0.05791 0.36754 0.6782 0.0
C608 C 0.12161 0.13947 0.0083 0.0
C609 C 0.11902 0.10466 0.02303 0.0
H610 H 0.12047 0.15025 0.97883 0.0
C611 C 0.12234 0.05254 0.01909 0.0
H612 H 0.11906 0.17983 0.01096 0.0
C613 C 0.12182 0.03552 1.00067 0.0
C614 C 0.11942 0.07033 0.98593 0.0
H615 H 0.12012 0.02474 0.03014 0.0
H616 H 0.11941 0.99516 0.998 0.0
C617 C 0.12255 0.12246 0.98989 0.0
C618 C 0.30131 0.93713 0.2684 0.0
C619 C 0.24952 0.93345 0.27262 0.0
H620 H 0.35777 0.93448 0.24703 0.0
C621 C 0.2142 0.93512 0.25804 0.0
H622 H 0.32947 0.93548 0.27933 0.0
C623 C 0.23045 0.9358 0.23954 0.0
C624 C 0.28233 0.93341 0.23533 0.0
H625 H 0.17408 0.93218 0.26092 0.0
H626 H 0.20236 0.93309 0.22862 0.0
C627 C 0.31758 0.9364 0.2499 0.0
C628 C 0.41415 0.03548 0.50826 0.0
C629 C 0.41648 0.07091 0.52282 0.0
H630 H 0.41599 0.02342 0.47885 0.0
C631 C 0.41364 0.12286 0.51857 0.0
H632 H 0.4164 0.99523 0.51116 0.0
C633 C 0.41459 0.13906 0.50006 0.0
C634 C 0.41704 0.10362 0.48551 0.0
H635 H 0.41579 0.1511 0.52948 0.0
H636 H 0.41717 0.1793 0.49718 0.0
C637 C 0.41375 0.05169 0.48975 0.0
C638 C 0.30093 0.23886 0.74018 0.0
C639 C 0.24916 0.24269 0.73593 0.0
H640 H 0.35734 0.24129 0.76158 0.0
C641 C 0.2138 0.24125 0.7505 0.0
H642 H 0.32912 0.24036 0.72926 0.0
C643 C 0.23 0.24053 0.76901 0.0
C644 C 0.28187 0.24263 0.77324 0.0
H645 H 0.1737 0.24435 0.7476 0.0
H646 H 0.20189 0.24336 0.77992 0.0
C647 C 0.31715 0.23955 0.75869 0.0
C648 C 0.71376 0.43298 0.75806 0.0
C649 C 0.74926 0.43161 0.77258 0.0
H650 H 0.70154 0.4308 0.72865 0.0
C651 C 0.80099 0.43537 0.76827 0.0
H652 H 0.67369 0.42992 0.76101 0.0
C653 C 0.81702 0.43462 0.74973 0.0
C654 C 0.78159 0.43155 0.73522 0.0
H655 H 0.82928 0.43388 0.77915 0.0
H656 H 0.85717 0.43287 0.74679 0.0
C657 C 0.72976 0.43365 0.73953 0.0
C658 C 0.8014 0.73797 0.24009 0.0
C659 C 0.7496 0.74163 0.23586 0.0
H660 H 0.85785 0.74056 0.26147 0.0
C661 C 0.71429 0.73996 0.25043 0.0
H662 H 0.82955 0.73963 0.22916 0.0
C663 C 0.73053 0.73925 0.26894 0.0
C664 C 0.7824 0.74159 0.27315 0.0
H665 H 0.67417 0.74291 0.24755 0.0
H666 H 0.70243 0.74194 0.27986 0.0
C667 C 0.81766 0.73866 0.25859 0.0
C668 C 0.62052 0.53529 0.50028 0.0
C669 C 0.61805 0.57003 0.48552 0.0
H670 H 0.61912 0.52466 0.52976 0.0
C671 C 0.62119 0.62218 0.48944 0.0
H672 H 0.61809 0.49492 0.49764 0.0
C673 C 0.62045 0.63928 0.50784 0.0
C674 C 0.61802 0.60454 0.5226 0.0
H675 H 0.61902 0.64991 0.47836 0.0
H676 H 0.61795 0.67966 0.51048 0.0
C677 C 0.62125 0.5524 0.51868 0.0
C678 C 0.91546 0.63947 1.00021 0.0
C679 C 0.91779 0.6041 0.98562 0.0
H680 H 0.91714 0.65137 0.02963 0.0
C681 C 0.91488 0.55214 0.98984 0.0
H682 H 0.91778 0.67973 0.99734 0.0
C683 C 0.9157 0.53584 0.00834 0.0
C684 C 0.91807 0.57121 0.02292 0.0
H685 H 0.91705 0.52394 0.97891 0.0
H686 H 0.91818 0.49558 0.0112 0.0
C687 C 0.91493 0.62317 0.01871 0.0
C688 C 0.22122 0.97513 0.11992 0.0
C689 C 0.22008 0.97582 0.13948 0.0
H690 H 0.19086 0.00514 0.09453 0.0
C691 C 0.18697 0.00944 0.14847 0.0
H692 H 0.24605 0.94933 0.11256 0.0
C693 C 0.15617 0.04214 0.13811 0.0
C694 C 0.1569 0.04103 0.11854 0.0
H695 H 0.18521 0.01079 0.1635 0.0
H696 H 0.13109 0.06771 0.14545 0.0
C697 C 0.18952 0.00693 0.10956 0.0
C698 C 0.34724 0.0088 0.35957 0.0
C699 C 0.31298 0.97624 0.36847 0.0
H700 H 0.40481 0.06528 0.3627 0.0
C701 C 0.31154 0.9756 0.38804 0.0
H702 H 0.34932 0.01006 0.34454 0.0
C703 C 0.34406 0.0064 0.39847 0.0
C704 C 0.37785 0.03944 0.38957 0.0
H705 H 0.28587 0.95056 0.39533 0.0
H706 H 0.34242 0.00471 0.4135 0.0
C707 C 0.37888 0.04051 0.37 0.0
C708 C 0.37846 0.13426 0.63841 0.0
C709 C 0.37731 0.13528 0.61884 0.0
H710 H 0.34898 0.16472 0.66389 0.0
C711 C 0.34339 0.16826 0.60996 0.0
H712 H 0.40448 0.10954 0.6457 0.0
C713 C 0.31086 0.19903 0.62041 0.0
C714 C 0.31241 0.19842 0.63998 0.0
H715 H 0.34165 0.16992 0.59493 0.0
H716 H 0.28509 0.22401 0.61313 0.0
C717 C 0.34681 0.16594 0.64886 0.0
C718 C 0.1901 0.16786 0.89922 0.0
C719 C 0.15725 0.1339 0.8903 0.0
H720 H 0.24677 0.22523 0.89613 0.0
C721 C 0.15624 0.13281 0.87073 0.0
H722 H 0.19165 0.16963 0.91425 0.0
C723 C 0.18701 0.16541 0.86032 0.0
C724 C 0.22037 0.19887 0.86925 0.0
H725 H 0.13098 0.10735 0.86343 0.0
H726 H 0.18504 0.16408 0.84529 0.0
C727 C 0.22176 0.19954 0.88881 0.0
C728 C 0.8322 0.15064 0.90065 0.0
C729 C 0.8654 0.12047 0.89017 0.0
H730 H 0.77783 0.21072 0.89995 0.0
C731 C 0.85958 0.1181 0.8708 0.0
H732 H 0.83593 0.15312 0.91562 0.0
C733 C 0.8264 0.15112 0.86185 0.0
C734 C 0.79897 0.18689 0.87221 0.0
H735 H 0.88454 0.09468 0.86249 0.0
H736 H 0.82693 0.15264 0.84681 0.0
C737 C 0.79916 0.18381 0.89169 0.0
C738 C 0.70225 0.14797 0.60802 0.0
C739 C 0.66901 0.11892 0.61888 0.0
H740 H 0.75716 0.20759 0.608 0.0
C741 C 0.67522 0.1179 0.63825 0.0
H742 H 0.69809 0.14946 0.59305 0.0
C743 C 0.70916 0.15099 0.64678 0.0
C744 C 0.73678 0.18565 0.636 0.0
H745 H 0.65008 0.09551 0.64685 0.0
H746 H 0.70909 0.1536 0.6618 0.0
C747 C 0.73589 0.18137 0.61655 0.0
C748 C 0.73655 0.99409 0.3911 0.0
C749 C 0.73688 0.98949 0.37167 0.0
H750 H 0.69927 0.02617 0.41468 0.0
C751 C 0.70877 0.02384 0.36092 0.0
H752 H 0.75821 0.9681 0.39963 0.0
C753 C 0.67489 0.05691 0.36951 0.0
C754 C 0.66924 0.05615 0.3889 0.0
H755 H 0.70829 0.02096 0.3459 0.0
H756 H 0.64938 0.07903 0.36095 0.0
C757 C 0.70298 0.02747 0.3997 0.0
C758 C 0.82653 0.02406 0.14746 0.0
C759 C 0.79868 0.98872 0.13705 0.0
H760 H 0.88496 0.08014 0.14686 0.0
C761 C 0.79848 0.99231 0.11758 0.0
H762 H 0.82733 0.02213 0.1625 0.0
C763 C 0.83153 0.02549 0.10865 0.0
C764 C 0.86514 0.05515 0.11914 0.0
H765 H 0.77683 0.96573 0.1093 0.0
H766 H 0.83492 0.02333 0.09367 0.0
C767 C 0.85971 0.05709 0.13853 0.0
C768 C 0.68636 0.50978 0.6482 0.0
C769 C 0.71983 0.47645 0.63925 0.0
H770 H 0.63016 0.56772 0.64512 0.0
C771 C 0.72123 0.47587 0.61969 0.0
H772 H 0.68439 0.51102 0.66323 0.0
C773 C 0.68947 0.50752 0.60929 0.0
C774 C 0.65652 0.54136 0.61823 0.0
H775 H 0.74632 0.45028 0.61236 0.0
H776 H 0.69103 0.50583 0.59426 0.0
C777 C 0.6555 0.54235 0.6378 0.0
C778 C 0.87892 0.54117 0.87003 0.0
C779 C 0.87784 0.54017 0.8896 0.0
H780 H 0.84933 0.51071 0.84457 0.0
C781 C 0.84395 0.50724 0.89851 0.0
H782 H 0.90492 0.56586 0.86274 0.0
C783 C 0.81137 0.4765 0.88807 0.0
C784 C 0.81283 0.47708 0.8685 0.0
H785 H 0.84227 0.5056 0.91354 0.0
H786 H 0.78561 0.45155 0.89538 0.0
C787 C 0.84722 0.50951 0.8596 0.0
C788 C 0.844 0.66793 0.10999 0.0
C789 C 0.87777 0.63485 0.1189 0.0
H790 H 0.78581 0.72381 0.11313 0.0
C791 C 0.87876 0.63375 0.13847 0.0
H792 H 0.84239 0.66965 0.09496 0.0
C793 C 0.84712 0.66546 0.1489 0.0
C794 C 0.81287 0.69806 0.14 0.0
H795 H 0.90468 0.60894 0.14577 0.0
H796 H 0.84916 0.66418 0.16393 0.0
C797 C 0.81146 0.69874 0.12043 0.0
C798 C 0.68729 0.66468 0.36004 0.0
C799 C 0.72038 0.69828 0.36902 0.0
H800 H 0.63142 0.60644 0.36305 0.0
C801 C 0.7215 0.69899 0.38859 0.0
H802 H 0.68555 0.66332 0.345 0.0
C803 C 0.6898 0.66722 0.39895 0.0
C804 C 0.6572 0.63313 0.38996 0.0
H805 H 0.74631 0.72479 0.39595 0.0
H806 H 0.69112 0.66902 0.41398 0.0
C807 C 0.65649 0.632 0.3704 0.0
C808 C 0.36047 0.61715 0.3695 0.0
C809 C 0.36561 0.61882 0.38891 0.0
H810 H 0.3283 0.65235 0.34554 0.0
C811 C 0.33173 0.64822 0.39939 0.0
H812 H 0.38592 0.59429 0.36118 0.0
C813 C 0.29868 0.68142 0.39045 0.0
C814 C 0.29915 0.68529 0.37099 0.0
H815 H 0.33489 0.65017 0.41438 0.0
H816 H 0.27681 0.70781 0.39874 0.0
C817 C 0.32727 0.65019 0.36057 0.0
C818 C 0.23643 0.67951 0.11782 0.0
C819 C 0.23652 0.68438 0.13725 0.0
H820 H 0.1994 0.64722 0.09423 0.0
C821 C 0.20818 0.65027 0.14801 0.0
H822 H 0.25826 0.70532 0.10929 0.0
C823 C 0.17435 0.61718 0.13942 0.0
C824 C 0.16895 0.61768 0.12002 0.0
H825 H 0.20752 0.65337 0.16302 0.0
H826 H 0.14868 0.59526 0.14797 0.0
C827 C 0.2029 0.64611 0.10923 0.0
C828 C 0.17525 0.55755 0.86972 0.0
C829 C 0.1694 0.55677 0.8891 0.0
H830 H 0.20878 0.52158 0.84615 0.0
C831 C 0.20294 0.52797 0.89994 0.0
H832 H 0.14988 0.57976 0.86114 0.0
C833 C 0.23652 0.49453 0.89138 0.0
C834 C 0.23704 0.48996 0.87195 0.0
H835 H 0.19907 0.52667 0.91492 0.0
H836 H 0.25803 0.46847 0.89994 0.0
C837 C 0.20913 0.52442 0.86117 0.0
C838 C 0.29834 0.49232 0.61735 0.0
C839 C 0.29853 0.48891 0.63682 0.0
H840 H 0.33472 0.52321 0.59339 0.0
C841 C 0.32631 0.52439 0.64719 0.0
H842 H 0.27673 0.46563 0.60909 0.0
C843 C 0.35944 0.5574 0.63822 0.0
C844 C 0.36486 0.55531 0.61883 0.0
H845 H 0.32712 0.5226 0.66223 0.0
H846 H 0.38465 0.58056 0.64652 0.0
C847 C 0.33132 0.52549 0.60837 0.0
C848 C 0.0194 0.86429 0.07709 0.0
C849 C 0.02211 0.89086 0.06015 0.0
H850 H 0.01442 0.79127 0.09037 0.0
C851 C 0.02223 0.86321 0.04348 0.0
H852 H 0.01886 0.88469 0.09014 0.0
C853 C 0.01945 0.81054 0.0436 0.0
C854 C 0.01654 0.78368 0.06041 0.0
H855 H 0.02484 0.88236 0.03021 0.0
H856 H 0.01917 0.79078 0.03042 0.0
C857 C 0.01626 0.81104 0.07721 0.0
C858 C 0.49164 0.84156 0.29437 0.0
C859 C 0.464 0.84102 0.31102 0.0
H860 H 0.5641 0.84004 0.2814 0.0
C861 C 0.49042 0.83897 0.32799 0.0
H862 H 0.4725 0.84364 0.28109 0.0
C863 C 0.54359 0.83682 0.32816 0.0
C864 C 0.57096 0.83759 0.31139 0.0
H865 H 0.46999 0.83813 0.34102 0.0
H866 H 0.56329 0.83542 0.34134 0.0
C867 C 0.54424 0.83992 0.29455 0.0
C868 C 0.51779 0.31082 0.54315 0.0
C869 C 0.51522 0.28387 0.55994 0.0
H870 H 0.52317 0.38268 0.52979 0.0
C871 C 0.51554 0.31114 0.57676 0.0
H872 H 0.51704 0.29116 0.52995 0.0
C873 C 0.51891 0.36439 0.57667 0.0
C874 C 0.52127 0.39104 0.55975 0.0
H875 H 0.51399 0.29131 0.58992 0.0
H876 H 0.51881 0.3847 0.58974 0.0
C877 C 0.52083 0.36348 0.54305 0.0
C878 C 0.0435 0.33742 0.82858 0.0
C879 C 0.07078 0.33814 0.81179 0.0
H880 H 0.96995 0.33851 0.84147 0.0
C881 C 0.04401 0.34016 0.79496 0.0
H882 H 0.06327 0.33624 0.84175 0.0
C883 C 0.9914 0.34151 0.79481 0.0
C884 C 0.96385 0.34102 0.81148 0.0
H885 H 0.06383 0.34026 0.7818 0.0
H886 H 0.97216 0.3433 0.78154 0.0
C887 C 0.99033 0.3393 0.82843 0.0
C888 C 0.02239 0.31205 0.96545 0.0
C889 C 0.02249 0.28429 0.94879 0.0
H890 H 0.01888 0.38453 0.97845 0.0
C891 C 0.01973 0.31076 0.93184 0.0
H892 H 0.02505 0.29301 0.97873 0.0
C893 C 0.01634 0.36401 0.93167 0.0
C894 C 0.0164 0.39147 0.94845 0.0
H895 H 0.01936 0.2903 0.9188 0.0
H896 H 0.01449 0.38369 0.91849 0.0
C897 C 0.01933 0.36471 0.96528 0.0
C898 C 0.04387 0.83517 0.21399 0.0
C899 C 0.07073 0.83707 0.19717 0.0
H900 H 0.972 0.83183 0.22736 0.0
C901 C 0.04352 0.83742 0.18036 0.0
H902 H 0.0636 0.83536 0.22716 0.0
C903 C 0.99035 0.83532 0.18048 0.0
C904 C 0.96378 0.83371 0.19741 0.0
H905 H 0.06334 0.8385 0.16721 0.0
H906 H 0.97004 0.83585 0.16742 0.0
C907 C 0.99126 0.83356 0.2141 0.0
C908 C 0.51947 0.81012 0.43137 0.0
C909 C 0.52169 0.78338 0.44827 0.0
H910 H 0.51481 0.88329 0.41817 0.0
C911 C 0.52133 0.81085 0.46499 0.0
H912 H 0.51931 0.78987 0.41828 0.0
C913 C 0.51851 0.86352 0.46493 0.0
C914 C 0.51605 0.89056 0.44815 0.0
H915 H 0.52357 0.79155 0.47823 0.0
H916 H 0.51783 0.88313 0.47814 0.0
C917 C 0.51629 0.86338 0.43131 0.0
C918 C 0.54398 0.33378 0.71345 0.0
C919 C 0.57054 0.3364 0.69659 0.0
H920 H 0.4723 0.33021 0.72697 0.0
C921 C 0.54306 0.33779 0.67985 0.0
H922 H 0.56397 0.33316 0.72658 0.0
C923 C 0.4899 0.33595 0.68008 0.0
C924 C 0.46362 0.33362 0.69706 0.0
H925 H 0.56267 0.33944 0.66666 0.0
H926 H 0.46935 0.33725 0.66707 0.0
C927 C 0.49137 0.33249 0.71368 0.0
loop_
_geom_bond_atom_site_label_1
_geom_bond_atom_site_label_2
_geom_bond_distance
_geom_bond_site_symmetry_2
_ccdc_geom_bond_type
C0 C1 1.351 . S
C0 N3 1.368 . S
C0 H5 0.932 1_455 S
C1 C0 1.351 . S
C1 N2 1.373 . S
C1 H29 0.930 1_455 S
N2 C1 1.373 . S
N2 C4 1.340 . S
N3 C0 1.368 . S
N3 C4 1.321 . S
N3 Co6 2.135 1_565 S
C4 N2 1.340 . S
C4 N3 1.321 . S
C4 H28 0.930 . S
H5 C0 0.932 1_655 S
Co6 N3 2.135 1_545 S
Co6 N9 2.121 . S
Co6 O14 2.055 . S
Co6 O17 2.039 . S
Co6 N20 2.140 1_455 S
C7 O8 1.227 . S
C7 O17 1.265 . S
O8 C7 1.227 . S
N9 Co6 2.121 . S
N9 C11 1.375 . S
N9 C12 1.313 . S
C10 C11 1.338 . S
C10 N13 1.377 . S
C10 H30 0.930 . S
C11 N9 1.375 . S
C11 C10 1.338 . S
C11 H15 0.931 . S
C12 N9 1.313 . S
C12 N13 1.344 . S
C12 H16 0.930 . S
N13 C10 1.377 . S
N13 C12 1.344 . S
O14 Co6 2.055 . S
O14 C18 1.253 . S
H15 C11 0.931 . S
H16 C12 0.930 . S
O17 Co6 2.039 . S
O17 C7 1.265 . S
C18 O14 1.253 . S
C18 O19 1.227 1_455 S
O19 C18 1.227 1_655 S
N20 Co6 2.140 1_655 S
N20 C23 1.346 . S
N20 C24 1.345 . S
C21 C22 1.387 . S
C21 C25 1.391 . S
C22 C21 1.387 . S
C22 C23 1.369 . S
C22 H31 0.929 1_545 S
C23 N20 1.346 . S
C23 C22 1.369 . S
C23 H26 0.928 1_545 S
C24 N20 1.345 . S
C24 C25 1.371 . S
C24 H27 0.931 . S
C25 C21 1.391 . S
C25 C24 1.371 . S
C25 H32 0.930 . S
H26 C23 0.928 1_565 S
H27 C24 0.931 . S
H28 C4 0.930 . S
H29 C1 0.930 1_655 S
H30 C10 0.930 . S
H31 C22 0.929 1_565 S
H32 C25 0.930 . S
C33 C34 1.351 . S
C33 N36 1.368 . S
C33 H38 0.931 . S
C34 C33 1.351 . S
C34 N35 1.373 . S
C34 H62 0.930 . S
N35 C34 1.373 . S
N35 C37 1.340 . S
N36 C33 1.368 . S
N36 C37 1.321 . S
N36 Co39 2.135 . S
C37 N35 1.340 . S
C37 N36 1.321 . S
C37 H61 0.930 . S
H38 C33 0.931 . S
Co39 N36 2.135 . S
Co39 N42 2.121 . S
Co39 O47 2.055 . S
Co39 O50 2.039 . S
Co39 N53 2.140 . S
C40 O41 1.227 . S
C40 O50 1.265 . S
O41 C40 1.227 . S
N42 Co39 2.121 . S
N42 C44 1.375 . S
N42 C45 1.313 . S
C43 C44 1.338 . S
C43 N46 1.377 . S
C43 H63 0.930 . S
C44 N42 1.375 . S
C44 C43 1.338 . S
C44 H48 0.931 . S
C45 N42 1.313 . S
C45 N46 1.344 . S
C45 H49 0.930 . S
N46 C43 1.377 . S
N46 C45 1.344 . S
O47 Co39 2.055 . S
O47 C51 1.253 . S
H48 C44 0.931 . S
H49 C45 0.930 . S
O50 Co39 2.039 . S
O50 C40 1.265 . S
C51 O47 1.253 . S
C51 O52 1.227 . S
O52 C51 1.227 . S
N53 Co39 2.140 . S
N53 C56 1.346 . S
N53 C57 1.345 . S
C54 C55 1.387 . S
C54 C58 1.391 . S
C55 C54 1.387 . S
C55 C56 1.369 . S
C55 H64 0.929 . S
C56 N53 1.346 . S
C56 C55 1.369 . S
C56 H59 0.928 . S
C57 N53 1.345 . S
C57 C58 1.371 . S
C57 H60 0.931 . S
C58 C54 1.391 . S
C58 C57 1.371 . S
C58 H65 0.930 . S
H59 C56 0.928 . S
H60 C57 0.931 . S
H61 C37 0.930 . S
H62 C34 0.930 . S
H63 C43 0.930 . S
H64 C55 0.929 . S
H65 C58 0.930 . S
C66 C67 1.351 . S
C66 N69 1.368 . S
C66 H71 0.931 . S
C67 C66 1.351 . S
C67 N68 1.373 . S
C67 H95 0.930 . S
N68 C67 1.373 . S
N68 C70 1.340 . S
N69 C66 1.368 . S
N69 C70 1.321 . S
N69 Co72 2.135 . S
C70 N68 1.340 . S
C70 N69 1.321 . S
C70 H94 0.930 . S
H71 C66 0.931 . S
Co72 N69 2.135 . S
Co72 N75 2.121 . S
Co72 O80 2.055 . S
Co72 O83 2.039 . S
Co72 N86 2.140 . S
C73 O74 1.227 . S
C73 O83 1.265 . S
O74 C73 1.227 . S
N75 Co72 2.121 . S
N75 C77 1.375 . S
N75 C78 1.313 1_545 S
C76 C77 1.338 1_565 S
C76 N79 1.377 . S
C76 H96 0.930 . S
C77 N75 1.375 . S
C77 C76 1.338 1_545 S
C77 H81 0.931 . S
C78 N75 1.313 1_565 S
C78 N79 1.344 . S
C78 H82 0.930 . S
N79 C76 1.377 . S
N79 C78 1.344 . S
O80 Co72 2.055 . S
O80 C84 1.253 . S
H81 C77 0.931 . S
H82 C78 0.930 . S
O83 Co72 2.039 . S
O83 C73 1.265 . S
C84 O80 1.253 . S
C84 O85 1.227 . S
O85 C84 1.227 . S
N86 Co72 2.140 . S
N86 C89 1.346 . S
N86 C90 1.345 . S
C87 C88 1.387 . S
C87 C91 1.391 . S
C88 C87 1.387 . S
C88 C89 1.369 . S
C88 H97 0.929 . S
C89 N86 1.346 . S
C89 C88 1.369 . S
C89 H92 0.928 . S
C90 N86 1.345 . S
C90 C91 1.371 . S
C90 H93 0.931 . S
C91 C87 1.391 . S
C91 C90 1.371 . S
C91 H98 0.930 . S
H92 C89 0.928 . S
H93 C90 0.931 . S
H94 C70 0.930 . S
H95 C67 0.930 . S
H96 C76 0.930 . S
H97 C88 0.929 . S
H98 C91 0.930 . S
C99 C100 1.351 . S
C99 N102 1.368 . S
C99 H104 0.931 . S
C100 C99 1.351 . S
C100 N101 1.373 . S
C100 H128 0.930 . S
N101 C100 1.373 . S
N101 C103 1.340 . S
N102 C99 1.368 . S
N102 C103 1.321 . S
N102 Co105 2.135 . S
C103 N101 1.340 . S
C103 N102 1.321 . S
C103 H127 0.930 . S
H104 C99 0.931 . S
Co105 N102 2.135 . S
Co105 N108 2.121 . S
Co105 O113 2.055 . S
Co105 O116 2.039 . S
Co105 N119 2.140 . S
C106 O107 1.227 . S
C106 O116 1.265 . S
O107 C106 1.227 . S
N108 Co105 2.121 . S
N108 C110 1.375 . S
N108 C111 1.313 . S
C109 C110 1.338 . S
C109 N112 1.377 . S
C109 H129 0.930 . S
C110 N108 1.375 . S
C110 C109 1.338 . S
C110 H114 0.931 . S
C111 N108 1.313 . S
C111 N112 1.344 . S
C111 H115 0.930 . S
N112 C109 1.377 . S
N112 C111 1.344 . S
O113 Co105 2.055 . S
O113 C117 1.253 . S
H114 C110 0.931 . S
H115 C111 0.930 . S
O116 Co105 2.039 . S
O116 C106 1.265 . S
C117 O113 1.253 . S
C117 O118 1.227 . S
O118 C117 1.227 . S
N119 Co105 2.140 . S
N119 C122 1.346 . S
N119 C123 1.345 . S
C120 C121 1.387 . S
C120 C124 1.391 . S
C121 C120 1.387 . S
C121 C122 1.369 . S
C121 H130 0.929 . S
C122 N119 1.346 . S
C122 C121 1.369 . S
C122 H125 0.928 . S
C123 N119 1.345 . S
C123 C124 1.371 . S
C123 H126 0.931 . S
C124 C120 1.391 . S
C124 C123 1.371 . S
C124 H131 0.930 . S
H125 C122 0.928 . S
H126 C123 0.931 . S
H127 C103 0.930 . S
H128 C100 0.930 . S
H129 C109 0.930 . S
H130 C121 0.929 . S
H131 C124 0.930 . S
C132 C133 1.351 . S
C132 N135 1.368 . S
C132 H137 0.931 1_455 S
C133 C132 1.351 . S
C133 N134 1.373 . S
C133 H161 0.930 1_455 S
N134 C133 1.373 . S
N134 C136 1.340 . S
N135 C132 1.368 . S
N135 C136 1.321 . S
N135 Co138 2.135 . S
C136 N134 1.340 . S
C136 N135 1.321 . S
C136 H160 0.930 . S
H137 C132 0.931 1_655 S
Co138 N135 2.135 . S
Co138 N141 2.121 . S
Co138 O146 2.055 . S
Co138 O149 2.039 . S
Co138 N152 2.140 1_455 S
C139 O140 1.227 . S
C139 O149 1.265 . S
O140 C139 1.227 . S
N141 Co138 2.121 . S
N141 C143 1.375 . S
N141 C144 1.313 1_545 S
C142 C143 1.338 1_565 S
C142 N145 1.377 . S
C142 H162 0.930 . S
C143 N141 1.375 . S
C143 C142 1.338 1_545 S
C143 H147 0.931 . S
C144 N141 1.313 1_565 S
C144 N145 1.344 . S
C144 H148 0.930 . S
N145 C142 1.377 . S
N145 C144 1.344 . S
O146 Co138 2.055 . S
O146 C150 1.253 . S
H147 C143 0.931 . S
H148 C144 0.930 . S
O149 Co138 2.039 . S
O149 C139 1.265 . S
C150 O146 1.253 . S
C150 O151 1.227 1_455 S
O151 C150 1.227 1_655 S
N152 Co138 2.140 1_655 S
N152 C155 1.346 . S
N152 C156 1.345 . S
C153 C154 1.387 . S
C153 C157 1.391 . S
C154 C153 1.387 . S
C154 C155 1.369 . S
C154 H163 0.929 . S
C155 N152 1.346 . S
C155 C154 1.369 . S
C155 H158 0.928 . S
C156 N152 1.345 . S
C156 C157 1.371 . S
C156 H159 0.931 . S
C157 C153 1.391 . S
C157 C156 1.371 . S
C157 H164 0.930 . S
H158 C155 0.928 . S
H159 C156 0.931 . S
H160 C136 0.930 . S
H161 C133 0.930 1_655 S
H162 C142 0.930 . S
H163 C154 0.929 . S
H164 C157 0.930 . S
C165 C166 1.351 . S
C165 N168 1.368 . S
C165 H170 0.931 . S
C166 C165 1.351 . S
C166 N167 1.373 . S
C166 H194 0.930 . S
N167 C166 1.373 . S
N167 C169 1.340 . S
N168 C165 1.368 . S
N168 C169 1.321 . S
N168 Co171 2.135 . S
C169 N167 1.340 . S
C169 N168 1.321 . S
C169 H193 0.930 . S
H170 C165 0.931 . S
Co171 N168 2.135 . S
Co171 N174 2.121 . S
Co171 O179 2.055 . S
Co171 O182 2.039 . S
Co171 N185 2.140 . S
C172 O173 1.227 . S
C172 O182 1.265 . S
O173 C172 1.227 . S
N174 Co171 2.121 . S
N174 C176 1.375 . S
N174 C177 1.313 . S
C175 C176 1.338 . S
C175 N178 1.377 . S
C175 H195 0.930 . S
C176 N174 1.375 . S
C176 C175 1.338 . S
C176 H180 0.931 . S
C177 N174 1.313 . S
C177 N178 1.344 . S
C177 H181 0.930 . S
N178 C175 1.377 . S
N178 C177 1.344 . S
O179 Co171 2.055 . S
O179 C183 1.253 . S
H180 C176 0.931 . S
H181 C177 0.930 . S
O182 Co171 2.039 . S
O182 C172 1.265 . S
C183 O179 1.253 . S
C183 O184 1.227 . S
O184 C183 1.227 . S
N185 Co171 2.140 . S
N185 C188 1.346 . S
N185 C189 1.345 . S
C186 C187 1.387 . S
C186 C190 1.391 . S
C187 C186 1.387 . S
C187 C188 1.369 . S
C187 H196 0.929 . S
C188 N185 1.346 . S
C188 C187 1.369 . S
C188 H191 0.928 . S
C189 N185 1.345 . S
C189 C190 1.371 . S
C189 H192 0.931 . S
C190 C186 1.391 . S
C190 C189 1.371 . S
C190 H197 0.930 . S
H191 C188 0.928 . S
H192 C189 0.931 . S
H193 C169 0.930 . S
H194 C166 0.930 . S
H195 C175 0.930 . S
H196 C187 0.929 . S
H197 C190 0.930 . S
C198 C199 1.351 . S
C198 N201 1.368 . S
C198 H203 0.932 . S
C199 C198 1.351 . S
C199 N200 1.373 . S
C199 H227 0.930 . S
N200 C199 1.373 . S
N200 C202 1.340 . S
N201 C198 1.368 . S
N201 C202 1.321 . S
N201 Co204 2.135 1_565 S
C202 N200 1.340 . S
C202 N201 1.321 . S
C202 H226 0.930 . S
H203 C198 0.932 . S
Co204 N201 2.135 1_545 S
Co204 N207 2.121 . S
Co204 O212 2.055 . S
Co204 O215 2.039 . S
Co204 N218 2.140 . S
C205 O206 1.227 . S
C205 O215 1.265 . S
O206 C205 1.227 . S
N207 Co204 2.121 . S
N207 C209 1.375 . S
N207 C210 1.313 . S
C208 C209 1.338 . S
C208 N211 1.377 . S
C208 H228 0.930 . S
C209 N207 1.375 . S
C209 C208 1.338 . S
C209 H213 0.931 . S
C210 N207 1.313 . S
C210 N211 1.344 . S
C210 H214 0.930 . S
N211 C208 1.377 . S
N211 C210 1.344 . S
O212 Co204 2.055 . S
O212 C216 1.253 . S
H213 C209 0.931 . S
H214 C210 0.930 . S
O215 Co204 2.039 . S
O215 C205 1.265 . S
C216 O212 1.253 . S
C216 O217 1.227 . S
O217 C216 1.227 . S
N218 Co204 2.140 . S
N218 C221 1.346 . S
N218 C222 1.345 . S
C219 C220 1.387 . S
C219 C223 1.391 . S
C220 C219 1.387 . S
C220 C221 1.369 . S
C220 H229 0.929 1_545 S
C221 N218 1.346 . S
C221 C220 1.369 . S
C221 H224 0.928 1_545 S
C222 N218 1.345 . S
C222 C223 1.371 . S
C222 H225 0.931 . S
C223 C219 1.391 . S
C223 C222 1.371 . S
C223 H230 0.930 . S
H224 C221 0.928 1_565 S
H225 C222 0.931 . S
H226 C202 0.930 . S
H227 C199 0.930 . S
H228 C208 0.930 . S
H229 C220 0.929 1_565 S
H230 C223 0.930 . S
C231 C232 1.351 . S
C231 N234 1.368 . S
C231 H236 0.931 . S
C232 C231 1.351 . S
C232 N233 1.373 . S
C232 H260 0.930 . S
N233 C232 1.373 . S
N233 C235 1.340 . S
N234 C231 1.368 . S
N234 C235 1.321 . S
N234 Co237 2.135 . S
C235 N233 1.340 . S
C235 N234 1.321 . S
C235 H259 0.930 . S
H236 C231 0.931 . S
Co237 N234 2.135 . S
Co237 N240 2.121 . S
Co237 O245 2.055 . S
Co237 O248 2.039 . S
Co237 N251 2.140 . S
C238 O239 1.227 . S
C238 O248 1.265 . S
O239 C238 1.227 . S
N240 Co237 2.121 . S
N240 C242 1.375 . S
N240 C243 1.313 . S
C241 C242 1.338 . S
C241 N244 1.377 . S
C241 H261 0.930 . S
C242 N240 1.375 . S
C242 C241 1.338 . S
C242 H246 0.931 . S
C243 N240 1.313 . S
C243 N244 1.344 . S
C243 H247 0.930 . S
N244 C241 1.377 . S
N244 C243 1.344 . S
O245 Co237 2.055 . S
O245 C249 1.253 . S
H246 C242 0.931 . S
H247 C243 0.930 . S
O248 Co237 2.039 . S
O248 C238 1.265 . S
C249 O245 1.253 . S
C249 O250 1.227 . S
O250 C249 1.227 . S
N251 Co237 2.140 . S
N251 C254 1.346 . S
N251 C255 1.345 . S
C252 C253 1.387 . S
C252 C256 1.391 . S
C253 C252 1.387 . S
C253 C254 1.369 . S
C253 H262 0.929 . S
C254 N251 1.346 . S
C254 C253 1.369 . S
C254 H257 0.928 . S
C255 N251 1.345 . S
C255 C256 1.371 . S
C255 H258 0.931 . S
C256 C252 1.391 . S
C256 C255 1.371 . S
C256 H263 0.930 . S
H257 C254 0.928 . S
H258 C255 0.931 . S
H259 C235 0.930 . S
H260 C232 0.930 . S
H261 C241 0.930 . S
H262 C253 0.929 . S
H263 C256 0.930 . S
C264 C265 1.351 . S
C264 N267 1.368 . S
C264 H269 0.931 . S
C265 C264 1.351 . S
C265 N266 1.373 . S
C265 H293 0.930 . S
N266 C265 1.373 . S
N266 C268 1.340 . S
N267 C264 1.368 . S
N267 C268 1.321 . S
N267 Co270 2.135 . S
C268 N266 1.340 . S
C268 N267 1.321 . S
C268 H292 0.930 . S
H269 C264 0.931 . S
Co270 N267 2.135 . S
Co270 N273 2.121 . S
Co270 O278 2.055 . S
Co270 O281 2.039 . S
Co270 N284 2.140 . S
C271 O272 1.227 . S
C271 O281 1.265 . S
O272 C271 1.227 . S
N273 Co270 2.121 . S
N273 C275 1.375 . S
N273 C276 1.313 . S
C274 C275 1.338 . S
C274 N277 1.377 . S
C274 H294 0.930 . S
C275 N273 1.375 . S
C275 C274 1.338 . S
C275 H279 0.931 . S
C276 N273 1.313 . S
C276 N277 1.344 . S
C276 H280 0.930 . S
N277 C274 1.377 . S
N277 C276 1.344 . S
O278 Co270 2.055 . S
O278 C282 1.253 . S
H279 C275 0.931 . S
H280 C276 0.930 . S
O281 Co270 2.039 . S
O281 C271 1.265 . S
C282 O278 1.253 . S
C282 O283 1.227 . S
O283 C282 1.227 . S
N284 Co270 2.140 . S
N284 C287 1.346 . S
N284 C288 1.345 . S
C285 C286 1.387 . S
C285 C289 1.391 . S
C286 C285 1.387 . S
C286 C287 1.369 . S
C286 H295 0.929 . S
C287 N284 1.346 . S
C287 C286 1.369 . S
C287 H290 0.928 . S
C288 N284 1.345 . S
C288 C289 1.371 . S
C288 H291 0.931 . S
C289 C285 1.391 . S
C289 C288 1.371 . S
C289 H296 0.930 . S
H290 C287 0.928 . S
H291 C288 0.931 . S
H292 C268 0.930 . S
H293 C265 0.930 . S
H294 C274 0.930 . S
H295 C286 0.929 . S
H296 C289 0.930 . S
C297 C298 1.351 . S
C297 N300 1.368 . S
C297 H302 0.931 . S
C298 C297 1.351 . S
C298 N299 1.373 . S
C298 H326 0.930 . S
N299 C298 1.373 . S
N299 C301 1.340 . S
N300 C297 1.368 . S
N300 C301 1.321 . S
N300 Co303 2.135 . S
C301 N299 1.340 . S
C301 N300 1.321 . S
C301 H325 0.930 . S
H302 C297 0.931 . S
Co303 N300 2.135 . S
Co303 N306 2.121 . S
Co303 O311 2.055 . S
Co303 O314 2.039 . S
Co303 N317 2.140 . S
C304 O305 1.227 . S
C304 O314 1.265 . S
O305 C304 1.227 . S
N306 Co303 2.121 . S
N306 C308 1.375 . S
N306 C309 1.313 . S
C307 C308 1.338 . S
C307 N310 1.377 . S
C307 H327 0.930 . S
C308 N306 1.375 . S
C308 C307 1.338 . S
C308 H312 0.931 . S
C309 N306 1.313 . S
C309 N310 1.344 . S
C309 H313 0.930 . S
N310 C307 1.377 . S
N310 C309 1.344 . S
O311 Co303 2.055 . S
O311 C315 1.253 . S
H312 C308 0.931 . S
H313 C309 0.930 . S
O314 Co303 2.039 . S
O314 C304 1.265 . S
C315 O311 1.253 . S
C315 O316 1.227 . S
O316 C315 1.227 . S
N317 Co303 2.140 . S
N317 C320 1.346 . S
N317 C321 1.345 . S
C318 C319 1.387 . S
C318 C322 1.391 . S
C319 C318 1.387 . S
C319 C320 1.369 . S
C319 H328 0.929 . S
C320 N317 1.346 . S
C320 C319 1.369 . S
C320 H323 0.928 . S
C321 N317 1.345 . S
C321 C322 1.371 . S
C321 H324 0.931 . S
C322 C318 1.391 . S
C322 C321 1.371 . S
C322 H329 0.930 . S
H323 C320 0.928 . S
H324 C321 0.931 . S
H325 C301 0.930 . S
H326 C298 0.930 . S
H327 C307 0.930 . S
H328 C319 0.929 . S
H329 C322 0.930 . S
C330 C331 1.351 . S
C330 N333 1.368 . S
C330 H335 0.931 . S
C331 C330 1.351 . S
C331 N332 1.373 . S
C331 H359 0.930 . S
N332 C331 1.373 . S
N332 C334 1.340 . S
N333 C330 1.368 . S
N333 C334 1.321 . S
N333 Co336 2.135 . S
C334 N332 1.340 . S
C334 N333 1.321 . S
C334 H358 0.930 . S
H335 C330 0.931 . S
Co336 N333 2.135 . S
Co336 N339 2.121 . S
Co336 O344 2.055 . S
Co336 O347 2.039 . S
Co336 N350 2.140 . S
C337 O338 1.227 . S
C337 O347 1.265 . S
O338 C337 1.227 . S
N339 Co336 2.121 . S
N339 C341 1.375 . S
N339 C342 1.313 . S
C340 C341 1.338 . S
C340 N343 1.377 . S
C340 H360 0.930 . S
C341 N339 1.375 . S
C341 C340 1.338 . S
C341 H345 0.931 . S
C342 N339 1.313 . S
C342 N343 1.344 . S
C342 H346 0.930 . S
N343 C340 1.377 . S
N343 C342 1.344 . S
O344 Co336 2.055 . S
O344 C348 1.253 . S
H345 C341 0.931 . S
H346 C342 0.930 . S
O347 Co336 2.039 . S
O347 C337 1.265 . S
C348 O344 1.253 . S
C348 O349 1.227 . S
O349 C348 1.227 . S
N350 Co336 2.140 . S
N350 C353 1.346 . S
N350 C354 1.345 . S
C351 C352 1.387 . S
C351 C355 1.391 . S
C352 C351 1.387 . S
C352 C353 1.369 . S
C352 H361 0.929 . S
C353 N350 1.346 . S
C353 C352 1.369 . S
C353 H356 0.928 . S
C354 N350 1.345 . S
C354 C355 1.371 . S
C354 H357 0.931 . S
C355 C351 1.391 . S
C355 C354 1.371 . S
C355 H362 0.930 . S
H356 C353 0.928 . S
H357 C354 0.931 . S
H358 C334 0.930 . S
H359 C331 0.930 . S
H360 C340 0.930 . S
H361 C352 0.929 . S
H362 C355 0.930 . S
C363 C364 1.351 . S
C363 N366 1.368 . S
C363 H368 0.931 . S
C364 C363 1.351 . S
C364 N365 1.373 . S
C364 H392 0.930 . S
N365 C364 1.373 . S
N365 C367 1.340 . S
N366 C363 1.368 . S
N366 C367 1.321 . S
N366 Co369 2.135 . S
C367 N365 1.340 . S
C367 N366 1.321 . S
C367 H391 0.930 . S
H368 C363 0.931 . S
Co369 N366 2.135 . S
Co369 N372 2.121 . S
Co369 O377 2.055 . S
Co369 O380 2.039 . S
Co369 N383 2.140 . S
C370 O371 1.227 . S
C370 O380 1.265 . S
O371 C370 1.227 . S
N372 Co369 2.121 . S
N372 C374 1.375 . S
N372 C375 1.313 . S
C373 C374 1.338 . S
C373 N376 1.377 . S
C373 H393 0.930 . S
C374 N372 1.375 . S
C374 C373 1.338 . S
C374 H378 0.931 . S
C375 N372 1.313 . S
C375 N376 1.344 . S
C375 H379 0.930 . S
N376 C373 1.377 . S
N376 C375 1.344 . S
O377 Co369 2.055 . S
O377 C381 1.253 . S
H378 C374 0.931 . S
H379 C375 0.930 . S
O380 Co369 2.039 . S
O380 C370 1.265 . S
C381 O377 1.253 . S
C381 O382 1.227 . S
O382 C381 1.227 . S
N383 Co369 2.140 . S
N383 C386 1.346 . S
N383 C387 1.345 . S
C384 C385 1.387 . S
C384 C388 1.391 . S
C385 C384 1.387 . S
C385 C386 1.369 . S
C385 H394 0.929 . S
C386 N383 1.346 . S
C386 C385 1.369 . S
C386 H389 0.928 . S
C387 N383 1.345 . S
C387 C388 1.371 . S
C387 H390 0.931 . S
C388 C384 1.391 . S
C388 C387 1.371 . S
C388 H395 0.930 . S
H389 C386 0.928 . S
H390 C387 0.931 . S
H391 C367 0.930 . S
H392 C364 0.930 . S
H393 C373 0.930 . S
H394 C385 0.929 . S
H395 C388 0.930 . S
C396 C397 1.351 . S
C396 N399 1.368 . S
C396 H401 0.931 . S
C397 C396 1.351 . S
C397 N398 1.373 . S
C397 H425 0.930 . S
N398 C397 1.373 . S
N398 C400 1.340 . S
N399 C396 1.368 . S
N399 C400 1.321 . S
N399 Co402 2.135 . S
C400 N398 1.340 . S
C400 N399 1.321 . S
C400 H424 0.930 . S
H401 C396 0.931 . S
Co402 N399 2.135 . S
Co402 N405 2.121 . S
Co402 O410 2.055 . S
Co402 O413 2.039 . S
Co402 N416 2.140 . S
C403 O404 1.227 . S
C403 O413 1.265 . S
O404 C403 1.227 . S
N405 Co402 2.121 . S
N405 C407 1.375 . S
N405 C408 1.313 . S
C406 C407 1.338 . S
C406 N409 1.377 . S
C406 H426 0.930 . S
C407 N405 1.375 . S
C407 C406 1.338 . S
C407 H411 0.931 . S
C408 N405 1.313 . S
C408 N409 1.344 . S
C408 H412 0.930 . S
N409 C406 1.377 . S
N409 C408 1.344 . S
O410 Co402 2.055 . S
O410 C414 1.253 . S
H411 C407 0.931 . S
H412 C408 0.930 . S
O413 Co402 2.039 . S
O413 C403 1.265 . S
C414 O410 1.253 . S
C414 O415 1.227 . S
O415 C414 1.227 . S
N416 Co402 2.140 . S
N416 C419 1.346 . S
N416 C420 1.345 . S
C417 C418 1.387 . S
C417 C421 1.391 . S
C418 C417 1.387 . S
C418 C419 1.369 . S
C418 H427 0.929 . S
C419 N416 1.346 . S
C419 C418 1.369 . S
C419 H422 0.928 . S
C420 N416 1.345 . S
C420 C421 1.371 . S
C420 H423 0.931 . S
C421 C417 1.391 . S
C421 C420 1.371 . S
C421 H428 0.930 . S
H422 C419 0.928 . S
H423 C420 0.931 . S
H424 C400 0.930 . S
H425 C397 0.930 . S
H426 C406 0.930 . S
H427 C418 0.929 . S
H428 C421 0.930 . S
C429 C430 1.351 . S
C429 N432 1.368 1_455 S
C429 H434 0.931 . S
C430 C429 1.351 . S
C430 N431 1.373 1_455 S
C430 H458 0.930 . S
N431 C430 1.373 1_655 S
N431 C433 1.340 . S
N432 C429 1.368 1_655 S
N432 C433 1.321 . S
N432 Co435 2.135 . S
C433 N431 1.340 . S
C433 N432 1.321 . S
C433 H457 0.930 . S
H434 C429 0.931 . S
Co435 N432 2.135 . S
Co435 N438 2.121 . S
Co435 O443 2.055 . S
Co435 O446 2.039 . S
Co435 N449 2.140 1_655 S
C436 O437 1.227 . S
C436 O446 1.265 . S
O437 C436 1.227 . S
N438 Co435 2.121 . S
N438 C440 1.375 . S
N438 C441 1.313 . S
C439 C440 1.338 . S
C439 N442 1.377 . S
C439 H459 0.930 . S
C440 N438 1.375 . S
C440 C439 1.338 . S
C440 H444 0.931 . S
C441 N438 1.313 . S
C441 N442 1.344 . S
C441 H445 0.930 . S
N442 C439 1.377 . S
N442 C441 1.344 . S
O443 Co435 2.055 . S
O443 C447 1.253 1_655 S
H444 C440 0.931 . S
H445 C441 0.930 . S
O446 Co435 2.039 . S
O446 C436 1.265 . S
C447 O443 1.253 1_455 S
C447 O448 1.227 . S
O448 C447 1.227 . S
N449 Co435 2.140 1_455 S
N449 C452 1.346 . S
N449 C453 1.345 . S
C450 C451 1.387 . S
C450 C454 1.391 . S
C451 C450 1.387 . S
C451 C452 1.369 . S
C451 H460 0.929 . S
C452 N449 1.346 . S
C452 C451 1.369 . S
C452 H455 0.928 . S
C453 N449 1.345 . S
C453 C454 1.371 . S
C453 H456 0.931 . S
C454 C450 1.391 . S
C454 C453 1.371 . S
C454 H461 0.930 . S
H455 C452 0.928 . S
H456 C453 0.931 . S
H457 C433 0.930 . S
H458 C430 0.930 . S
H459 C439 0.930 . S
H460 C451 0.929 . S
H461 C454 0.930 . S
C462 C463 1.351 . S
C462 N465 1.368 . S
C462 H467 0.931 . S
C463 C462 1.351 . S
C463 N464 1.373 . S
C463 H491 0.930 . S
N464 C463 1.373 . S
N464 C466 1.340 . S
N465 C462 1.368 . S
N465 C466 1.321 . S
N465 Co468 2.135 . S
C466 N464 1.340 . S
C466 N465 1.321 . S
C466 H490 0.930 . S
H467 C462 0.931 . S
Co468 N465 2.135 . S
Co468 N471 2.121 . S
Co468 O476 2.055 . S
Co468 O479 2.039 . S
Co468 N482 2.140 . S
C469 O470 1.227 . S
C469 O479 1.265 . S
O470 C469 1.227 . S
N471 Co468 2.121 . S
N471 C473 1.375 . S
N471 C474 1.313 . S
C472 C473 1.338 . S
C472 N475 1.377 . S
C472 H492 0.930 . S
C473 N471 1.375 . S
C473 C472 1.338 . S
C473 H477 0.931 . S
C474 N471 1.313 . S
C474 N475 1.344 . S
C474 H478 0.930 . S
N475 C472 1.377 . S
N475 C474 1.344 . S
O476 Co468 2.055 . S
O476 C480 1.253 . S
H477 C473 0.931 . S
H478 C474 0.930 . S
O479 Co468 2.039 . S
O479 C469 1.265 . S
C480 O476 1.253 . S
C480 O481 1.227 . S
O481 C480 1.227 . S
N482 Co468 2.140 . S
N482 C485 1.346 . S
N482 C486 1.345 . S
C483 C484 1.387 . S
C483 C487 1.391 . S
C484 C483 1.387 . S
C484 C485 1.369 . S
C484 H493 0.929 . S
C485 N482 1.346 . S
C485 C484 1.369 . S
C485 H488 0.928 . S
C486 N482 1.345 . S
C486 C487 1.371 . S
C486 H489 0.931 . S
C487 C483 1.391 . S
C487 C486 1.371 . S
C487 H494 0.930 . S
H488 C485 0.928 . S
H489 C486 0.931 . S
H490 C466 0.930 . S
H491 C463 0.930 . S
H492 C472 0.930 . S
H493 C484 0.929 . S
H494 C487 0.930 . S
C495 C496 1.351 . S
C495 N498 1.368 1_455 S
C495 H500 0.931 . S
C496 C495 1.351 . S
C496 N497 1.373 1_455 S
C496 H524 0.930 . S
N497 C496 1.373 1_655 S
N497 C499 1.340 . S
N498 C495 1.368 1_655 S
N498 C499 1.321 . S
N498 Co501 2.135 . S
C499 N497 1.340 . S
C499 N498 1.321 . S
C499 H523 0.930 . S
H500 C495 0.931 . S
Co501 N498 2.135 . S
Co501 N504 2.121 . S
Co501 O509 2.055 . S
Co501 O512 2.039 . S
Co501 N515 2.140 1_655 S
C502 O503 1.227 . S
C502 O512 1.265 . S
O503 C502 1.227 . S
N504 Co501 2.121 . S
N504 C506 1.375 . S
N504 C507 1.313 . S
C505 C506 1.338 . S
C505 N508 1.377 . S
C505 H525 0.930 . S
C506 N504 1.375 . S
C506 C505 1.338 . S
C506 H510 0.931 . S
C507 N504 1.313 . S
C507 N508 1.344 . S
C507 H511 0.930 . S
N508 C505 1.377 . S
N508 C507 1.344 . S
O509 Co501 2.055 . S
O509 C513 1.253 1_655 S
H510 C506 0.931 . S
H511 C507 0.930 . S
O512 Co501 2.039 . S
O512 C502 1.265 . S
C513 O509 1.253 1_455 S
C513 O514 1.227 . S
O514 C513 1.227 . S
N515 Co501 2.140 1_455 S
N515 C518 1.346 . S
N515 C519 1.345 . S
C516 C517 1.387 . S
C516 C520 1.391 . S
C517 C516 1.387 . S
C517 C518 1.369 . S
C517 H526 0.929 . S
C518 N515 1.346 . S
C518 C517 1.369 . S
C518 H521 0.928 . S
C519 N515 1.345 . S
C519 C520 1.371 . S
C519 H522 0.931 . S
C520 C516 1.391 . S
C520 C519 1.371 . S
C520 H527 0.930 . S
H521 C518 0.928 . S
H522 C519 0.931 . S
H523 C499 0.930 . S
H524 C496 0.930 . S
H525 C505 0.930 . S
H526 C517 0.929 . S
H527 C520 0.930 . S
C528 C529 1.387 . S
C528 H532 0.950 . S
C528 C537 1.390 . S
C529 C528 1.387 . S
C529 C531 1.387 . S
H530 C537 0.950 . S
C531 C529 1.387 . S
C531 C533 1.390 . S
C531 H535 0.950 . S
H532 C528 0.950 . S
C533 C531 1.390 . S
C533 C534 1.387 . S
C533 H536 0.950 . S
C534 C533 1.387 . S
C534 C537 1.387 . S
H535 C531 0.950 . S
H536 C533 0.950 . S
C537 C528 1.390 . S
C537 H530 0.950 . S
C537 C534 1.387 . S
C538 C539 1.387 . S
C538 H542 0.950 . S
C538 C547 1.390 1_455 S
C539 C538 1.387 . S
C539 C541 1.387 . S
H540 C547 0.950 . S
C541 C539 1.387 . S
C541 C543 1.390 1_455 S
C541 H545 0.950 . S
H542 C538 0.950 . S
C543 C541 1.390 1_655 S
C543 C544 1.387 . S
C543 H546 0.950 . S
C544 C543 1.387 . S
C544 C547 1.387 . S
H545 C541 0.950 . S
H546 C543 0.950 . S
C547 C538 1.390 1_655 S
C547 H540 0.950 . S
C547 C544 1.387 . S
C548 C549 1.387 . S
C548 H552 0.950 . S
C548 C557 1.390 . S
C549 C548 1.387 . S
C549 C551 1.387 . S
H550 C557 0.950 . S
C551 C549 1.387 . S
C551 C553 1.390 . S
C551 H555 0.950 . S
H552 C548 0.950 . S
C553 C551 1.390 . S
C553 C554 1.387 . S
C553 H556 0.950 . S
C554 C553 1.387 . S
C554 C557 1.387 . S
H555 C551 0.950 . S
H556 C553 0.950 . S
C557 C548 1.390 . S
C557 H550 0.950 . S
C557 C554 1.387 . S
C558 C559 1.387 . S
C558 H562 0.950 . S
C558 C567 1.390 . S
C559 C558 1.387 . S
C559 C561 1.387 . S
H560 C567 0.950 . S
C561 C559 1.387 . S
C561 C563 1.390 . S
C561 H565 0.950 . S
H562 C558 0.950 . S
C563 C561 1.390 . S
C563 C564 1.387 . S
C563 H566 0.950 . S
C564 C563 1.387 . S
C564 C567 1.387 . S
H565 C561 0.950 . S
H566 C563 0.950 . S
C567 C558 1.390 . S
C567 H560 0.950 . S
C567 C564 1.387 . S
C568 C569 1.387 . S
C568 H572 0.950 . S
C568 C577 1.390 . S
C569 C568 1.387 . S
C569 C571 1.387 . S
H570 C577 0.950 . S
C571 C569 1.387 . S
C571 C573 1.390 . S
C571 H575 0.950 . S
H572 C568 0.950 . S
C573 C571 1.390 . S
C573 C574 1.387 . S
C573 H576 0.950 . S
C574 C573 1.387 . S
C574 C577 1.387 . S
H575 C571 0.950 . S
H576 C573 0.950 . S
C577 C568 1.390 . S
C577 H570 0.950 . S
C577 C574 1.387 . S
C578 C579 1.387 . S
C578 H582 0.950 . S
C578 C587 1.390 . S
C579 C578 1.387 . S
C579 C581 1.387 . S
H580 C587 0.950 . S
C581 C579 1.387 . S
C581 C583 1.390 . S
C581 H585 0.950 . S
H582 C578 0.950 . S
C583 C581 1.390 . S
C583 C584 1.387 . S
C583 H586 0.950 . S
C584 C583 1.387 . S
C584 C587 1.387 . S
H585 C581 0.950 . S
H586 C583 0.950 . S
C587 C578 1.390 . S
C587 H580 0.950 . S
C587 C584 1.387 . S
C588 C589 1.387 . S
C588 H592 0.950 . S
C588 C597 1.390 . S
C589 C588 1.387 . S
C589 C591 1.387 . S
H590 C597 0.950 . S
C591 C589 1.387 . S
C591 C593 1.390 . S
C591 H595 0.950 . S
H592 C588 0.950 . S
C593 C591 1.390 . S
C593 C594 1.387 . S
C593 H596 0.950 . S
C594 C593 1.387 . S
C594 C597 1.387 . S
H595 C591 0.950 . S
H596 C593 0.950 . S
C597 C588 1.390 . S
C597 H590 0.950 . S
C597 C594 1.387 . S
C598 C599 1.387 . S
C598 H602 0.950 . S
C598 C607 1.390 1_655 S
C599 C598 1.387 . S
C599 C601 1.387 . S
H600 C607 0.950 . S
C601 C599 1.387 . S
C601 C603 1.390 1_655 S
C601 H605 0.950 . S
H602 C598 0.950 . S
C603 C601 1.390 1_455 S
C603 C604 1.387 . S
C603 H606 0.950 . S
C604 C603 1.387 . S
C604 C607 1.387 . S
H605 C601 0.950 . S
H606 C603 0.950 . S
C607 C598 1.390 1_455 S
C607 H600 0.950 . S
C607 C604 1.387 . S
C608 C609 1.387 1_655 S
C608 H612 0.950 . S
C608 C617 1.390 1_554 S
C609 C608 1.387 1_455 S
C609 C611 1.387 . S
H610 C617 0.950 . S
C611 C609 1.387 . S
C611 C613 1.390 1_554 S
C611 H615 0.950 . S
H612 C608 0.950 . S
C613 C611 1.390 1_556 S
C613 C614 1.387 . S
C613 H616 0.950 . S
C614 C613 1.387 . S
C614 C617 1.387 1_455 S
H615 C611 0.950 . S
H616 C613 0.950 . S
C617 C608 1.390 1_556 S
C617 H610 0.950 . S
C617 C614 1.387 1_655 S
C618 C619 1.387 . S
C618 H622 0.950 . S
C618 C627 1.390 . S
C619 C618 1.387 . S
C619 C621 1.387 . S
H620 C627 0.950 . S
C621 C619 1.387 . S
C621 C623 1.390 . S
C621 H625 0.950 . S
H622 C618 0.950 . S
C623 C621 1.390 . S
C623 C624 1.387 . S
C623 H626 0.950 . S
C624 C623 1.387 . S
C624 C627 1.387 . S
H625 C621 0.950 . S
H626 C623 0.950 . S
C627 C618 1.390 . S
C627 H620 0.950 . S
C627 C624 1.387 . S
C628 C629 1.387 . S
C628 H632 0.950 . S
C628 C637 1.390 . S
C629 C628 1.387 . S
C629 C631 1.387 . S
H630 C637 0.950 . S
C631 C629 1.387 . S
C631 C633 1.390 . S
C631 H635 0.950 . S
H632 C628 0.950 . S
C633 C631 1.390 . S
C633 C634 1.387 . S
C633 H636 0.950 . S
C634 C633 1.387 . S
C634 C637 1.387 . S
H635 C631 0.950 . S
H636 C633 0.950 . S
C637 C628 1.390 . S
C637 H630 0.950 . S
C637 C634 1.387 . S
C638 C639 1.387 . S
C638 H642 0.950 . S
C638 C647 1.390 . S
C639 C638 1.387 . S
C639 C641 1.387 . S
H640 C647 0.950 . S
C641 C639 1.387 . S
C641 C643 1.390 . S
C641 H645 0.950 . S
H642 C638 0.950 . S
C643 C641 1.390 . S
C643 C644 1.387 . S
C643 H646 0.950 . S
C644 C643 1.387 . S
C644 C647 1.387 . S
H645 C641 0.950 . S
H646 C643 0.950 . S
C647 C638 1.390 . S
C647 H640 0.950 . S
C647 C644 1.387 . S
C648 C649 1.387 . S
C648 H652 0.950 . S
C648 C657 1.390 . S
C649 C648 1.387 . S
C649 C651 1.387 . S
H650 C657 0.950 . S
C651 C649 1.387 . S
C651 C653 1.390 . S
C651 H655 0.950 . S
H652 C648 0.950 . S
C653 C651 1.390 . S
C653 C654 1.387 . S
C653 H656 0.950 . S
C654 C653 1.387 . S
C654 C657 1.387 . S
H655 C651 0.950 . S
H656 C653 0.950 . S
C657 C648 1.390 . S
C657 H650 0.950 . S
C657 C654 1.387 . S
C658 C659 1.387 . S
C658 H662 0.950 . S
C658 C667 1.390 . S
C659 C658 1.387 . S
C659 C661 1.387 . S
H660 C667 0.950 . S
C661 C659 1.387 . S
C661 C663 1.390 . S
C661 H665 0.950 . S
H662 C658 0.950 . S
C663 C661 1.390 . S
C663 C664 1.387 . S
C663 H666 0.950 . S
C664 C663 1.387 . S
C664 C667 1.387 . S
H665 C661 0.950 . S
H666 C663 0.950 . S
C667 C658 1.390 . S
C667 H660 0.950 . S
C667 C664 1.387 . S
C668 C669 1.387 . S
C668 H672 0.950 . S
C668 C677 1.390 . S
C669 C668 1.387 . S
C669 C671 1.387 . S
H670 C677 0.950 . S
C671 C669 1.387 . S
C671 C673 1.390 . S
C671 H675 0.950 . S
H672 C668 0.950 . S
C673 C671 1.390 . S
C673 C674 1.387 . S
C673 H676 0.950 . S
C674 C673 1.387 . S
C674 C677 1.387 . S
H675 C671 0.950 . S
H676 C673 0.950 . S
C677 C668 1.390 . S
C677 H670 0.950 . S
C677 C674 1.387 . S
C678 C679 1.387 . S
C678 H682 0.950 . S
C678 C687 1.390 1_556 S
C679 C678 1.387 . S
C679 C681 1.387 1_455 S
H680 C687 0.950 . S
C681 C679 1.387 1_655 S
C681 C683 1.390 1_556 S
C681 H685 0.950 . S
H682 C678 0.950 . S
C683 C681 1.390 1_554 S
C683 C684 1.387 1_655 S
C683 H686 0.950 . S
C684 C683 1.387 1_455 S
C684 C687 1.387 . S
H685 C681 0.950 . S
H686 C683 0.950 . S
C687 C678 1.390 1_554 S
C687 H680 0.950 . S
C687 C684 1.387 . S
C688 C689 1.387 . S
C688 H692 0.950 . S
C688 C697 1.390 . S
C689 C688 1.387 . S
C689 C691 1.387 1_565 S
H690 C697 0.950 . S
C691 C689 1.387 1_545 S
C691 C693 1.390 . S
C691 H695 0.950 . S
H692 C688 0.950 . S
C693 C691 1.390 . S
C693 C694 1.387 . S
C693 H696 0.950 . S
C694 C693 1.387 . S
C694 C697 1.387 1_545 S
H695 C691 0.950 . S
H696 C693 0.950 . S
C697 C688 1.390 . S
C697 H690 0.950 . S
C697 C694 1.387 1_565 S
C698 C699 1.387 1_545 S
C698 H702 0.950 . S
C698 C707 1.390 . S
C699 C698 1.387 1_565 S
C699 C701 1.387 . S
H700 C707 0.950 . S
C701 C699 1.387 . S
C701 C703 1.390 . S
C701 H705 0.950 . S
H702 C698 0.950 . S
C703 C701 1.390 . S
C703 C704 1.387 1_565 S
C703 H706 0.950 . S
C704 C703 1.387 1_545 S
C704 C707 1.387 . S
H705 C701 0.950 . S
H706 C703 0.950 . S
C707 C698 1.390 . S
C707 H700 0.950 . S
C707 C704 1.387 . S
C708 C709 1.387 . S
C708 H712 0.950 . S
C708 C717 1.390 . S
C709 C708 1.387 . S
C709 C711 1.387 . S
H710 C717 0.950 . S
C711 C709 1.387 . S
C711 C713 1.390 . S
C711 H715 0.950 . S
H712 C708 0.950 . S
C713 C711 1.390 . S
C713 C714 1.387 . S
C713 H716 0.950 . S
C714 C713 1.387 . S
C714 C717 1.387 . S
H715 C711 0.950 . S
H716 C713 0.950 . S
C717 C708 1.390 . S
C717 H710 0.950 . S
C717 C714 1.387 . S
C718 C719 1.387 . S
C718 H722 0.950 . S
C718 C727 1.390 . S
C719 C718 1.387 . S
C719 C721 1.387 . S
H720 C727 0.950 . S
C721 C719 1.387 . S
C721 C723 1.390 . S
C721 H725 0.950 . S
H722 C718 0.950 . S
C723 C721 1.390 . S
C723 C724 1.387 . S
C723 H726 0.950 . S
C724 C723 1.387 . S
C724 C727 1.387 . S
H725 C721 0.950 . S
H726 C723 0.950 . S
C727 C718 1.390 . S
C727 H720 0.950 . S
C727 C724 1.387 . S
C728 C729 1.387 . S
C728 H732 0.950 . S
C728 C737 1.390 . S
C729 C728 1.387 . S
C729 C731 1.387 . S
H730 C737 0.950 . S
C731 C729 1.387 . S
C731 C733 1.390 . S
C731 H735 0.950 . S
H732 C728 0.950 . S
C733 C731 1.390 . S
C733 C734 1.387 . S
C733 H736 0.950 . S
C734 C733 1.387 . S
C734 C737 1.387 . S
H735 C731 0.950 . S
H736 C733 0.950 . S
C737 C728 1.390 . S
C737 H730 0.950 . S
C737 C734 1.387 . S
C738 C739 1.387 . S
C738 H742 0.950 . S
C738 C747 1.390 . S
C739 C738 1.387 . S
C739 C741 1.387 . S
H740 C747 0.950 . S
C741 C739 1.387 . S
C741 C743 1.390 . S
C741 H745 0.950 . S
H742 C738 0.950 . S
C743 C741 1.390 . S
C743 C744 1.387 . S
C743 H746 0.950 . S
C744 C743 1.387 . S
C744 C747 1.387 . S
H745 C741 0.950 . S
H746 C743 0.950 . S
C747 C738 1.390 . S
C747 H740 0.950 . S
C747 C744 1.387 . S
C748 C749 1.387 . S
C748 H752 0.950 . S
C748 C757 1.390 . S
C749 C748 1.387 . S
C749 C751 1.387 1_565 S
H750 C757 0.950 . S
C751 C749 1.387 1_545 S
C751 C753 1.390 . S
C751 H755 0.950 . S
H752 C748 0.950 . S
C753 C751 1.390 . S
C753 C754 1.387 . S
C753 H756 0.950 . S
C754 C753 1.387 . S
C754 C757 1.387 1_545 S
H755 C751 0.950 . S
H756 C753 0.950 . S
C757 C748 1.390 . S
C757 H750 0.950 . S
C757 C754 1.387 1_565 S
C758 C759 1.387 1_545 S
C758 H762 0.950 . S
C758 C767 1.390 . S
C759 C758 1.387 1_565 S
C759 C761 1.387 . S
H760 C767 0.950 . S
C761 C759 1.387 . S
C761 C763 1.390 1_565 S
C761 H765 0.950 . S
H762 C758 0.950 . S
C763 C761 1.390 1_545 S
C763 C764 1.387 . S
C763 H766 0.950 . S
C764 C763 1.387 . S
C764 C767 1.387 . S
H765 C761 0.950 . S
H766 C763 0.950 . S
C767 C758 1.390 . S
C767 H760 0.950 . S
C767 C764 1.387 . S
C768 C769 1.387 . S
C768 H772 0.950 . S
C768 C777 1.390 . S
C769 C768 1.387 . S
C769 C771 1.387 . S
H770 C777 0.950 . S
C771 C769 1.387 . S
C771 C773 1.390 . S
C771 H775 0.950 . S
H772 C768 0.950 . S
C773 C771 1.390 . S
C773 C774 1.387 . S
C773 H776 0.950 . S
C774 C773 1.387 . S
C774 C777 1.387 . S
H775 C771 0.950 . S
H776 C773 0.950 . S
C777 C768 1.390 . S
C777 H770 0.950 . S
C777 C774 1.387 . S
C778 C779 1.387 . S
C778 H782 0.950 . S
C778 C787 1.390 . S
C779 C778 1.387 . S
C779 C781 1.387 . S
H780 C787 0.950 . S
C781 C779 1.387 . S
C781 C783 1.390 . S
C781 H785 0.950 . S
H782 C778 0.950 . S
C783 C781 1.390 . S
C783 C784 1.387 . S
C783 H786 0.950 . S
C784 C783 1.387 . S
C784 C787 1.387 . S
H785 C781 0.950 . S
H786 C783 0.950 . S
C787 C778 1.390 . S
C787 H780 0.950 . S
C787 C784 1.387 . S
C788 C789 1.387 . S
C788 H792 0.950 . S
C788 C797 1.390 . S
C789 C788 1.387 . S
C789 C791 1.387 . S
H790 C797 0.950 . S
C791 C789 1.387 . S
C791 C793 1.390 . S
C791 H795 0.950 . S
H792 C788 0.950 . S
C793 C791 1.390 . S
C793 C794 1.387 . S
C793 H796 0.950 . S
C794 C793 1.387 . S
C794 C797 1.387 . S
H795 C791 0.950 . S
H796 C793 0.950 . S
C797 C788 1.390 . S
C797 H790 0.950 . S
C797 C794 1.387 . S
C798 C799 1.387 . S
C798 H802 0.950 . S
C798 C807 1.390 . S
C799 C798 1.387 . S
C799 C801 1.387 . S
H800 C807 0.950 . S
C801 C799 1.387 . S
C801 C803 1.390 . S
C801 H805 0.950 . S
H802 C798 0.950 . S
C803 C801 1.390 . S
C803 C804 1.387 . S
C803 H806 0.950 . S
C804 C803 1.387 . S
C804 C807 1.387 . S
H805 C801 0.950 . S
H806 C803 0.950 . S
C807 C798 1.390 . S
C807 H800 0.950 . S
C807 C804 1.387 . S
C808 C809 1.387 . S
C808 H812 0.950 . S
C808 C817 1.390 . S
C809 C808 1.387 . S
C809 C811 1.387 . S
H810 C817 0.950 . S
C811 C809 1.387 . S
C811 C813 1.390 . S
C811 H815 0.950 . S
H812 C808 0.950 . S
C813 C811 1.390 . S
C813 C814 1.387 . S
C813 H816 0.950 . S
C814 C813 1.387 . S
C814 C817 1.387 . S
H815 C811 0.950 . S
H816 C813 0.950 . S
C817 C808 1.390 . S
C817 H810 0.950 . S
C817 C814 1.387 . S
C818 C819 1.387 . S
C818 H822 0.950 . S
C818 C827 1.390 . S
C819 C818 1.387 . S
C819 C821 1.387 . S
H820 C827 0.950 . S
C821 C819 1.387 . S
C821 C823 1.390 . S
C821 H825 0.950 . S
H822 C818 0.950 . S
C823 C821 1.390 . S
C823 C824 1.387 . S
C823 H826 0.950 . S
C824 C823 1.387 . S
C824 C827 1.387 . S
H825 C821 0.950 . S
H826 C823 0.950 . S
C827 C818 1.390 . S
C827 H820 0.950 . S
C827 C824 1.387 . S
C828 C829 1.387 . S
C828 H832 0.950 . S
C828 C837 1.390 . S
C829 C828 1.387 . S
C829 C831 1.387 . S
H830 C837 0.950 . S
C831 C829 1.387 . S
C831 C833 1.390 . S
C831 H835 0.950 . S
H832 C828 0.950 . S
C833 C831 1.390 . S
C833 C834 1.387 . S
C833 H836 0.950 . S
C834 C833 1.387 . S
C834 C837 1.387 . S
H835 C831 0.950 . S
H836 C833 0.950 . S
C837 C828 1.390 . S
C837 H830 0.950 . S
C837 C834 1.387 . S
C838 C839 1.387 . S
C838 H842 0.950 . S
C838 C847 1.390 . S
C839 C838 1.387 . S
C839 C841 1.387 . S
H840 C847 0.950 . S
C841 C839 1.387 . S
C841 C843 1.390 . S
C841 H845 0.950 . S
H842 C838 0.950 . S
C843 C841 1.390 . S
C843 C844 1.387 . S
C843 H846 0.950 . S
C844 C843 1.387 . S
C844 C847 1.387 . S
H845 C841 0.950 . S
H846 C843 0.950 . S
C847 C838 1.390 . S
C847 H840 0.950 . S
C847 C844 1.387 . S
C848 C849 1.387 . S
C848 H852 0.950 . S
C848 C857 1.390 . S
C849 C848 1.387 . S
C849 C851 1.387 . S
H850 C857 0.950 1_655 S
C851 C849 1.387 . S
C851 C853 1.390 . S
C851 H855 0.950 . S
H852 C848 0.950 . S
C853 C851 1.390 . S
C853 C854 1.387 1_455 S
C853 H856 0.950 1_455 S
C854 C853 1.387 1_655 S
C854 C857 1.387 1_655 S
H855 C851 0.950 . S
H856 C853 0.950 1_655 S
C857 C848 1.390 . S
C857 H850 0.950 1_455 S
C857 C854 1.387 1_455 S
C858 C859 1.387 . S
C858 H862 0.950 . S
C858 C867 1.390 . S
C859 C858 1.387 . S
C859 C861 1.387 . S
H860 C867 0.950 . S
C861 C859 1.387 . S
C861 C863 1.390 . S
C861 H865 0.950 . S
H862 C858 0.950 . S
C863 C861 1.390 . S
C863 C864 1.387 . S
C863 H866 0.950 . S
C864 C863 1.387 . S
C864 C867 1.387 . S
H865 C861 0.950 . S
H866 C863 0.950 . S
C867 C858 1.390 . S
C867 H860 0.950 . S
C867 C864 1.387 . S
C868 C869 1.387 . S
C868 H872 0.950 . S
C868 C877 1.390 . S
C869 C868 1.387 . S
C869 C871 1.387 . S
H870 C877 0.950 . S
C871 C869 1.387 . S
C871 C873 1.390 . S
C871 H875 0.950 . S
H872 C868 0.950 . S
C873 C871 1.390 . S
C873 C874 1.387 . S
C873 H876 0.950 . S
C874 C873 1.387 . S
C874 C877 1.387 . S
H875 C871 0.950 . S
H876 C873 0.950 . S
C877 C868 1.390 . S
C877 H870 0.950 . S
C877 C874 1.387 . S
C878 C879 1.387 . S
C878 H882 0.950 . S
C878 C887 1.390 1_455 S
C879 C878 1.387 . S
C879 C881 1.387 . S
H880 C887 0.950 . S
C881 C879 1.387 . S
C881 C883 1.390 1_455 S
C881 H885 0.950 . S
H882 C878 0.950 . S
C883 C881 1.390 1_655 S
C883 C884 1.387 . S
C883 H886 0.950 . S
C884 C883 1.387 . S
C884 C887 1.387 . S
H885 C881 0.950 . S
H886 C883 0.950 . S
C887 C878 1.390 1_655 S
C887 H880 0.950 . S
C887 C884 1.387 . S
C888 C889 1.387 . S
C888 H892 0.950 . S
C888 C897 1.390 . S
C889 C888 1.387 . S
C889 C891 1.387 . S
H890 C897 0.950 1_655 S
C891 C889 1.387 . S
C891 C893 1.390 . S
C891 H895 0.950 . S
H892 C888 0.950 . S
C893 C891 1.390 . S
C893 C894 1.387 1_455 S
C893 H896 0.950 1_455 S
C894 C893 1.387 1_655 S
C894 C897 1.387 1_655 S
H895 C891 0.950 . S
H896 C893 0.950 1_655 S
C897 C888 1.390 . S
C897 H890 0.950 1_455 S
C897 C894 1.387 1_455 S
C898 C899 1.387 . S
C898 H902 0.950 . S
C898 C907 1.390 1_455 S
C899 C898 1.387 . S
C899 C901 1.387 . S
H900 C907 0.950 . S
C901 C899 1.387 . S
C901 C903 1.390 1_455 S
C901 H905 0.950 . S
H902 C898 0.950 . S
C903 C901 1.390 1_655 S
C903 C904 1.387 . S
C903 H906 0.950 . S
C904 C903 1.387 . S
C904 C907 1.387 . S
H905 C901 0.950 . S
H906 C903 0.950 . S
C907 C898 1.390 1_655 S
C907 H900 0.950 . S
C907 C904 1.387 . S
C908 C909 1.387 . S
C908 H912 0.950 . S
C908 C917 1.390 . S
C909 C908 1.387 . S
C909 C911 1.387 . S
H910 C917 0.950 . S
C911 C909 1.387 . S
C911 C913 1.390 . S
C911 H915 0.950 . S
H912 C908 0.950 . S
C913 C911 1.390 . S
C913 C914 1.387 . S
C913 H916 0.950 . S
C914 C913 1.387 . S
C914 C917 1.387 . S
H915 C911 0.950 . S
H916 C913 0.950 . S
C917 C908 1.390 . S
C917 H910 0.950 . S
C917 C914 1.387 . S
C918 C919 1.387 . S
C918 H922 0.950 . S
C918 C927 1.390 . S
C919 C918 1.387 . S
C919 C921 1.387 . S
H920 C927 0.950 . S
C921 C919 1.387 . S
C921 C923 1.390 . S
C921 H925 0.950 . S
H922 C918 0.950 . S
C923 C921 1.390 . S
C923 C924 1.387 . S
C923 H926 0.950 . S
C924 C923 1.387 . S
C924 C927 1.387 . S
H925 C921 0.950 . S
H926 C923 0.950 . S
C927 C918 1.390 . S
C927 H920 0.950 . S
C927 C924 1.387 . S
C529 N442 1.457 1_455 S
C534 N13 1.457 . S
C539 N46 1.458 . S
C544 N376 1.458 . S
C549 N79 1.457 . S
C554 N409 1.458 . S
C559 N112 1.458 . S
C564 N343 1.458 . S
C569 N508 1.458 1_455 S
C574 N145 1.458 . S
C579 N178 1.458 . S
C584 N310 1.458 . S
C589 N211 1.458 . S
C594 N475 1.458 . S
C599 N277 1.458 . S
C604 N244 1.458 . S
C609 C18 1.690 . S
C614 C150 1.690 . S
C619 C51 1.693 . S
C624 C183 1.693 . S
C629 C84 1.693 . S
C634 C216 1.693 . S
C639 C249 1.693 . S
C644 C117 1.693 . S
C649 C348 1.690 . S
C654 C282 1.690 . S
C659 C315 1.693 . S
C664 C381 1.693 . S
C669 C480 1.693 . S
C674 C414 1.693 . S
C679 C513 1.690 . S
C684 C447 1.690 . S
C689 C172 1.277 . S
C694 C7 1.275 . S
C699 C40 1.274 . S
C704 C205 1.277 . S
C709 C73 1.277 . S
C714 C238 1.275 . S
C719 C139 1.274 . S
C724 C106 1.278 . S
C729 C153 0.660 . S
C734 C351 0.657 . S
C739 C87 0.660 . S
C744 C285 0.658 . S
C749 C384 0.657 . S
C754 C219 0.661 . S
C759 C318 0.663 . S
C764 C21 0.657 . S
C769 C271 1.274 . S
C774 C403 1.278 . S
C779 C502 1.277 . S
C784 C337 1.274 . S
C789 C436 1.275 . S
C794 C304 1.276 . S
C799 C370 1.275 . S
C804 C469 1.277 . S
C809 C483 0.657 . S
C814 C54 0.663 . S
C819 C186 0.656 . S
C824 C450 0.663 . S
C829 C516 0.657 . S
C834 C120 0.663 . S
C839 C252 0.656 . S
C844 C417 0.662 . S
C849 N2 0.904 . S
C854 N431 0.904 . S
C859 N35 0.898 . S
C864 N365 0.898 . S
C869 N68 0.897 . S
C874 N398 0.897 . S
C879 N101 0.905 . S
C884 N332 0.905 . S
C889 N134 0.898 . S
C894 N497 0.898 . S
C899 N167 0.897 . S
C904 N299 0.897 . S
C909 N464 0.905 . S
C914 N200 0.905 . S
C919 N266 0.897 . S
C924 N233 0.897 . S
