# Generated by pormake.
# Topology xfg, (7)-cn, num edge types: 1
# Building blocks:
#     Node 0, Type 0, BuildingBlock: NUHQUE_clean_sbu_2, # of connection points: 7
#     Node 1, Type 0, BuildingBlock: NUHQUE_clean_sbu_2, # of connection points: 7
#     Node 2, Type 0, BuildingBlock: NUHQUE_clean_sbu_2, # of connection points: 7
#     Node 3, Type 0, BuildingBlock: NUHQUE_clean_sbu_2, # of connection points: 7
#     Node 4, Type 0, BuildingBlock: NUHQUE_clean_sbu_2, # of connection points: 7
#     Node 5, Type 0, BuildingBlock: NUHQUE_clean_sbu_2, # of connection points: 7
#     Node 6, Type 0, BuildingBlock: NUHQUE_clean_sbu_2, # of connection points: 7
#     Node 7, Type 0, BuildingBlock: NUHQUE_clean_sbu_2, # of connection points: 7
#     Node 8, Type 0, BuildingBlock: NUHQUE_clean_sbu_2, # of connection points: 7
#     Node 9, Type 0, BuildingBlock: NUHQUE_clean_sbu_2, # of connection points: 7
#     Node 10, Type 0, BuildingBlock: NUHQUE_clean_sbu_2, # of connection points: 7
#     Node 11, Type 0, BuildingBlock: NUHQUE_clean_sbu_2, # of connection points: 7
#     Node 12, Type 0, BuildingBlock: NUHQUE_clean_sbu_2, # of connection points: 7
#     Node 13, Type 0, BuildingBlock: NUHQUE_clean_sbu_2, # of connection points: 7
#     Node 14, Type 0, BuildingBlock: NUHQUE_clean_sbu_2, # of connection points: 7
#     Node 15, Type 0, BuildingBlock: NUHQUE_clean_sbu_2, # of connection points: 7
#     Edge 16, Type (0, 0), BuildingBlock: EZIPEK_clean_linker_0, # of connection points: 2
#     Edge 17, Type (0, 0), BuildingBlock: EZIPEK_clean_linker_0, # of connection points: 2
#     Edge 18, Type (0, 0), BuildingBlock: EZIPEK_clean_linker_0, # of connection points: 2
#     Edge 19, Type (0, 0), BuildingBlock: EZIPEK_clean_linker_0, # of connection points: 2
#     Edge 20, Type (0, 0), BuildingBlock: EZIPEK_clean_linker_0, # of connection points: 2
#     Edge 21, Type (0, 0), BuildingBlock: EZIPEK_clean_linker_0, # of connection points: 2
#     Edge 22, Type (0, 0), BuildingBlock: EZIPEK_clean_linker_0, # of connection points: 2
#     Edge 23, Type (0, 0), BuildingBlock: EZIPEK_clean_linker_0, # of connection points: 2
#     Edge 24, Type (0, 0), BuildingBlock: EZIPEK_clean_linker_0, # of connection points: 2
#     Edge 25, Type (0, 0), BuildingBlock: EZIPEK_clean_linker_0, # of connection points: 2
#     Edge 26, Type (0, 0), BuildingBlock: EZIPEK_clean_linker_0, # of connection points: 2
#     Edge 27, Type (0, 0), BuildingBlock: EZIPEK_clean_linker_0, # of connection points: 2
#     Edge 28, Type (0, 0), BuildingBlock: EZIPEK_clean_linker_0, # of connection points: 2
#     Edge 29, Type (0, 0), BuildingBlock: EZIPEK_clean_linker_0, # of connection points: 2
#     Edge 30, Type (0, 0), BuildingBlock: EZIPEK_clean_linker_0, # of connection points: 2
#     Edge 31, Type (0, 0), BuildingBlock: EZIPEK_clean_linker_0, # of connection points: 2
#     Edge 32, Type (0, 0), BuildingBlock: EZIPEK_clean_linker_0, # of connection points: 2
#     Edge 33, Type (0, 0), BuildingBlock: EZIPEK_clean_linker_0, # of connection points: 2
#     Edge 34, Type (0, 0), BuildingBlock: EZIPEK_clean_linker_0, # of connection points: 2
#     Edge 35, Type (0, 0), BuildingBlock: EZIPEK_clean_linker_0, # of connection points: 2
#     Edge 36, Type (0, 0), BuildingBlock: EZIPEK_clean_linker_0, # of connection points: 2
#     Edge 37, Type (0, 0), BuildingBlock: EZIPEK_clean_linker_0, # of connection points: 2
#     Edge 38, Type (0, 0), BuildingBlock: EZIPEK_clean_linker_0, # of connection points: 2
#     Edge 39, Type (0, 0), BuildingBlock: EZIPEK_clean_linker_0, # of connection points: 2
#     Edge 40, Type (0, 0), BuildingBlock: EZIPEK_clean_linker_0, # of connection points: 2
#     Edge 41, Type (0, 0), BuildingBlock: EZIPEK_clean_linker_0, # of connection points: 2
#     Edge 42, Type (0, 0), BuildingBlock: EZIPEK_clean_linker_0, # of connection points: 2
#     Edge 43, Type (0, 0), BuildingBlock: EZIPEK_clean_linker_0, # of connection points: 2
#     Edge 44, Type (0, 0), BuildingBlock: EZIPEK_clean_linker_0, # of connection points: 2
#     Edge 45, Type (0, 0), BuildingBlock: EZIPEK_clean_linker_0, # of connection points: 2
#     Edge 46, Type (0, 0), BuildingBlock: EZIPEK_clean_linker_0, # of connection points: 2
#     Edge 47, Type (0, 0), BuildingBlock: EZIPEK_clean_linker_0, # of connection points: 2
#     Edge 48, Type (0, 0), BuildingBlock: EZIPEK_clean_linker_0, # of connection points: 2
#     Edge 49, Type (0, 0), BuildingBlock: EZIPEK_clean_linker_0, # of connection points: 2
#     Edge 50, Type (0, 0), BuildingBlock: EZIPEK_clean_linker_0, # of connection points: 2
#     Edge 51, Type (0, 0), BuildingBlock: EZIPEK_clean_linker_0, # of connection points: 2
#     Edge 52, Type (0, 0), BuildingBlock: EZIPEK_clean_linker_0, # of connection points: 2
#     Edge 53, Type (0, 0), BuildingBlock: EZIPEK_clean_linker_0, # of connection points: 2
#     Edge 54, Type (0, 0), BuildingBlock: EZIPEK_clean_linker_0, # of connection points: 2
#     Edge 55, Type (0, 0), BuildingBlock: EZIPEK_clean_linker_0, # of connection points: 2
#     Edge 56, Type (0, 0), BuildingBlock: EZIPEK_clean_linker_0, # of connection points: 2
#     Edge 57, Type (0, 0), BuildingBlock: EZIPEK_clean_linker_0, # of connection points: 2
#     Edge 58, Type (0, 0), BuildingBlock: EZIPEK_clean_linker_0, # of connection points: 2
#     Edge 59, Type (0, 0), BuildingBlock: EZIPEK_clean_linker_0, # of connection points: 2
#     Edge 60, Type (0, 0), BuildingBlock: EZIPEK_clean_linker_0, # of connection points: 2
#     Edge 61, Type (0, 0), BuildingBlock: EZIPEK_clean_linker_0, # of connection points: 2
#     Edge 62, Type (0, 0), BuildingBlock: EZIPEK_clean_linker_0, # of connection points: 2
#     Edge 63, Type (0, 0), BuildingBlock: EZIPEK_clean_linker_0, # of connection points: 2
#     Edge 64, Type (0, 0), BuildingBlock: EZIPEK_clean_linker_0, # of connection points: 2
#     Edge 65, Type (0, 0), BuildingBlock: EZIPEK_clean_linker_0, # of connection points: 2
#     Edge 66, Type (0, 0), BuildingBlock: EZIPEK_clean_linker_0, # of connection points: 2
#     Edge 67, Type (0, 0), BuildingBlock: EZIPEK_clean_linker_0, # of connection points: 2
#     Edge 68, Type (0, 0), BuildingBlock: EZIPEK_clean_linker_0, # of connection points: 2
#     Edge 69, Type (0, 0), BuildingBlock: EZIPEK_clean_linker_0, # of connection points: 2
#     Edge 70, Type (0, 0), BuildingBlock: EZIPEK_clean_linker_0, # of connection points: 2
#     Edge 71, Type (0, 0), BuildingBlock: EZIPEK_clean_linker_0, # of connection points: 2
# Relax obj value: 0.119
# Max RMSD: 0.188
# Mean RMSD: 0.188
data_MOF--net-xfg--node1-NUHQUE_clean_sbu_2--edge1-EZIPEK_clean_linker_0
_symmetry_space_group_name_H-M    P1
_symmetry_Int_Tables_number       1
_symmetry_cell_setting            triclinic
loop_
_symmetry_equiv_pos_as_xyz
'x, y, z'
_cell_length_a     25.007332
_cell_length_b     24.881424
_cell_length_c     53.416007
_cell_angle_alpha  89.743452
_cell_angle_beta   90.107471
_cell_angle_gamma 90.146182
loop_
_atom_site_label
_atom_site_type_symbol
_atom_site_fract_x
_atom_site_fract_y
_atom_site_fract_z
_atom_type_partial_charge
O0 O 0.30756 0.12581 0.0163 0.0
Tb1 Tb 0.32996 0.07573 0.04765 0.0
Eu2 Eu 0.39717 0.10276 0.09969 0.0
C3 C 0.32925 0.11312 0.99477 0.0
O4 O 0.3619 0.07196 0.99362 0.0
C5 C 0.45659 0.07373 0.04793 0.0
O6 O 0.42924 0.08656 0.13837 0.0
C7 C 0.3727 0.20399 0.09652 0.0
C8 C 0.43386 1.03716 0.14679 0.0
O9 O 0.42608 0.99677 0.13144 0.0
C10 C 0.27626 0.06862 0.09897 0.0
C11 C 0.35865 0.26203 0.0943 0.0
C12 C 0.35138 0.28368 0.07025 0.0
C13 C 0.33673 0.33746 0.067 0.0
C14 C 0.32741 0.36991 0.08791 0.0
C15 C 0.33321 0.34959 0.11226 0.0
C16 C 0.34968 0.29535 0.11548 0.0
O17 O 0.41328 0.09363 0.03739 0.0
O18 O 0.45936 0.06862 0.07257 0.0
O19 O 0.28292 1.01736 0.02686 0.0
O20 O 0.34544 0.98933 0.05024 0.0
C21 C 0.30715 0.97464 0.03509 0.0
O22 O 0.32271 0.05421 0.10831 0.0
O23 O 0.27491 0.09586 0.07786 0.0
O24 O 0.40386 0.18504 0.1143 0.0
O25 O 0.35813 0.16858 0.07955 0.0
H26 H 0.35752 0.25885 0.05387 0.0
H27 H 0.31523 0.41135 0.08516 0.0
H28 H 0.35414 0.27903 0.13419 0.0
O29 O 0.70712 0.56003 0.26565 0.0
Tb30 Tb 0.75213 0.59014 0.29766 0.0
Eu31 Eu 0.74026 0.65521 0.35044 0.0
C32 C 0.67135 0.58886 0.25344 0.0
O33 O 0.65176 0.63241 0.26366 0.0
C34 C 0.76009 0.71707 0.29878 0.0
O35 O 0.75808 0.68054 0.39007 0.0
C36 C 0.63957 0.63049 0.34806 0.0
C37 C 0.80549 0.6969 0.39743 0.0
O38 O 0.84327 0.70544 0.38082 0.0
C39 C 0.77127 0.53403 0.34805 0.0
C40 C 0.58211 0.61631 0.34552 0.0
C41 C 0.56186 0.60889 0.32133 0.0
C42 C 0.50888 0.59329 0.31758 0.0
C43 C 0.47555 0.58344 0.33816 0.0
C44 C 0.49459 0.58974 0.36269 0.0
C45 C 0.54815 0.60702 0.36639 0.0
O46 O 0.73481 0.67513 0.2892 0.0
O47 O 0.77008 0.71884 0.32308 0.0
O48 O 0.81336 0.55379 0.27452 0.0
O49 O 0.83666 0.61168 0.30154 0.0
C50 C 0.8535 0.58004 0.28388 0.0
O51 O 0.79138 0.58077 0.35451 0.0
O52 O 0.73848 0.53318 0.32872 0.0
O53 O 0.65896 0.65993 0.36631 0.0
O54 O 0.6742 0.61766 0.33062 0.0
H55 H 0.58728 0.61532 0.30517 0.0
H56 H 0.43466 0.57039 0.33505 0.0
H57 H 0.56349 0.61167 0.38523 0.0
O58 O 0.27222 0.96076 0.51995 0.0
Tb59 Tb 0.24703 1.00908 0.55131 0.0
Eu60 Eu 0.18053 0.98225 0.60201 0.0
C61 C 0.24969 0.97104 0.49825 0.0
O62 O 0.21396 1.00947 0.49657 0.0
C63 C 0.12143 1.01444 0.55112 0.0
O64 O 0.14585 0.99279 0.64044 0.0
C65 C 0.19648 0.88048 0.59309 0.0
C66 C 0.12559 1.03892 0.64738 0.0
O67 O 0.11849 0.07708 0.63063 0.0
C68 C 0.30308 1.01412 0.60241 0.0
C69 C 0.23257 0.83273 0.59342 0.0
C70 C 0.25888 0.82033 0.57094 0.0
C71 C 0.28139 0.76973 0.56733 0.0
C72 C 0.28639 0.73455 0.58765 0.0
C73 C 0.26167 0.74511 0.61069 0.0
C74 C 0.23311 0.79421 0.61324 0.0
O75 O 0.16377 0.9916 0.54115 0.0
O76 O 0.11929 1.02081 0.57568 0.0
O77 O 0.28873 0.0716 0.53064 0.0
O78 O 0.2269 0.09408 0.55559 0.0
C79 C 0.26235 0.11196 0.53974 0.0
O80 O 0.25668 1.02703 0.61212 0.0
O81 O 0.3042 0.98875 0.58091 0.0
O82 O 0.17413 0.89758 0.61381 0.0
O83 O 0.20773 0.91948 0.57723 0.0
H84 H 0.25633 0.84734 0.55498 0.0
H85 H 0.30624 0.69635 0.58481 0.0
H86 H 0.21047 0.80158 0.63014 0.0
O87 O 0.86686 0.53673 0.76354 0.0
Tb88 Tb 0.82876 0.50983 0.79787 0.0
Eu89 Eu 0.85412 0.44571 0.84995 0.0
C90 C 0.9085 0.5123 0.75383 0.0
O91 O 0.93429 0.47579 0.76688 0.0
C92 C 0.82505 0.38277 0.79872 0.0
O93 O 0.83665 0.4114 0.88806 0.0
C94 C 0.95667 0.46356 0.84611 0.0
C95 C 0.78759 0.41205 0.8967 0.0
O96 O 0.74813 0.42464 0.88151 0.0
C97 C 0.82617 0.56855 0.84804 0.0
C98 C 1.00336 0.50121 0.84767 0.0
C99 C 1.02404 0.51922 0.82473 0.0
C100 C 0.07546 0.54068 0.82321 0.0
C101 C 0.10461 0.55107 0.84497 0.0
C102 C 0.08454 0.53674 0.86854 0.0
C103 C 1.03384 0.51044 0.8699 0.0
O104 O 0.84465 0.42605 0.78763 0.0
O105 O 0.82043 0.38147 0.82346 0.0
O106 O 0.76174 0.54933 0.77985 0.0
O107 O 0.74598 0.48636 0.80571 0.0
C108 C 0.72427 0.52114 0.79051 0.0
O109 O 0.80951 0.52281 0.85751 0.0
O110 O 0.85213 0.56801 0.82664 0.0
O111 O 0.93483 0.44356 0.86646 0.0
O112 O 0.92222 0.47066 0.8277 0.0
H113 H 1.00336 0.51 0.80739 0.0
H114 H 0.14487 0.56712 0.8434 0.0
H115 H 1.01961 0.49551 0.88776 0.0
O116 O 0.78159 0.95423 1.01256 0.0
Tb117 Tb 0.7547 0.99972 0.98008 0.0
Eu118 Eu 0.69064 0.98398 0.92666 0.0
C119 C 0.75324 0.91556 0.02299 0.0
O120 O 0.71218 0.89494 1.01107 0.0
C121 C 0.62885 1.00801 0.97811 0.0
O122 O 0.64702 1.00229 0.89066 0.0
C123 C 0.70341 0.88001 0.93011 0.0
C124 C 0.6659 1.04029 0.87595 0.0
O125 O 0.70403 0.07186 0.8843 0.0
C126 C 0.81422 1.01064 0.92956 0.0
C127 C 0.73932 0.83209 0.93103 0.0
C128 C 0.75503 0.8134 0.95476 0.0
C129 C 0.77586 0.76183 0.95793 0.0
C130 C 0.7869 0.7302 0.93696 0.0
C131 C 0.77467 0.7484 0.91275 0.0
C132 C 0.74964 0.79928 0.90981 0.0
O133 O 0.67006 0.98297 0.98829 0.0
O134 O 0.62906 1.01863 0.9538 0.0
O135 O 0.79079 0.06073 1.00365 0.0
O136 O 0.73549 0.08503 0.97559 0.0
C137 C 0.76615 0.10149 0.99379 0.0
O138 O 0.76889 1.02764 0.92004 0.0
O139 O 0.81375 0.98288 0.95065 0.0
O140 O 0.69394 0.90456 0.90878 0.0
O141 O 0.70369 0.91282 0.94937 0.0
H142 H 0.74643 0.83674 0.97134 0.0
H143 H 0.80325 0.69021 0.93958 0.0
H144 H 0.73677 0.81215 0.89137 0.0
O145 O 0.37175 0.54795 0.76004 0.0
Tb146 Tb 0.32065 0.51954 0.72987 0.0
Eu147 Eu 0.36136 0.45138 0.68072 0.0
C148 C 0.40547 0.51612 0.77179 0.0
O149 O 0.42173 0.47195 0.76087 0.0
C150 C 0.32796 0.3874 0.732 0.0
O151 O 0.35049 0.40812 0.64409 0.0
C152 C 0.45494 0.49755 0.67735 0.0
C153 C 0.30416 0.40585 0.63256 0.0
O154 O 0.26185 0.42331 0.64457 0.0
C155 C 0.30872 0.56362 0.67753 0.0
C156 C 0.51335 0.50075 0.68194 0.0
C157 C 0.53334 0.49727 0.70641 0.0
C158 C 0.58751 0.50671 0.71118 0.0
C159 C 0.62264 0.51825 0.69139 0.0
C160 C 0.60386 0.52252 0.66667 0.0
C161 C 0.54873 0.51389 0.66209 0.0
O162 O 0.31459 0.43452 0.74138 0.0
O163 O 0.35136 0.38413 0.70981 0.0
O164 O 0.26522 0.56299 0.7535 0.0
O165 O 0.23431 0.5158 0.72385 0.0
C166 C 0.2218 0.54562 0.7429 0.0
O167 O 0.29721 0.5135 0.6721 0.0
O168 O 0.33777 0.57122 0.69766 0.0
O169 O 0.43706 0.46292 0.66087 0.0
O170 O 0.42192 0.50488 0.69622 0.0
H171 H 0.50661 0.48944 0.72197 0.0
H172 H 0.66447 0.52606 0.69542 0.0
H173 H 0.53327 0.51868 0.64325 0.0
O174 O 0.80894 0.1442 0.51462 0.0
Tb175 Tb 0.83374 0.10079 0.48131 0.0
Eu176 Eu 0.89775 0.11019 0.42601 0.0
C177 C 0.8381 0.18157 0.52546 0.0
O178 O 0.87999 0.20166 0.51395 0.0
C179 C 0.95786 0.08763 0.4781 0.0
O180 O 0.93625 0.086 0.38972 0.0
C181 C 0.89028 0.21501 0.42665 0.0
C182 C 0.92634 1.03808 0.3806 0.0
O183 O 0.90253 1.00222 0.3949 0.0
C184 C 0.77302 0.08951 0.43131 0.0
C185 C 0.85357 0.26193 0.42893 0.0
C186 C 0.83659 0.27668 0.45302 0.0
C187 C 0.81396 0.32695 0.45709 0.0
C188 C 0.79938 0.35916 0.43679 0.0
C189 C 0.81703 0.34743 0.41247 0.0
C190 C 0.8449 0.29839 0.40867 0.0
O191 O 0.91903 0.11759 0.48723 0.0
O192 O 0.95684 0.07398 0.45416 0.0
O193 O 0.79781 1.03876 0.50456 0.0
O194 O 0.85337 1.01575 0.47675 0.0
C195 C 0.82271 0.99836 0.49475 0.0
O196 O 0.81724 0.06962 0.42198 0.0
O197 O 0.77515 0.11882 0.4518 0.0
O198 O 0.89066 0.18723 0.40586 0.0
O199 O 0.89737 0.18483 0.44663 0.0
H200 H 0.84745 0.25272 0.46923 0.0
H201 H 0.78041 0.39748 0.44051 0.0
H202 H 0.86189 0.28997 0.39047 0.0
O203 O 0.22996 0.55311 0.26381 0.0
Tb204 Tb 0.26919 0.58093 0.22981 0.0
Eu205 Eu 0.24352 0.64746 0.17817 0.0
C206 C 0.18828 0.57767 0.27347 0.0
O207 O 0.16273 0.61419 0.26033 0.0
C208 C 0.27045 0.70876 0.23014 0.0
O209 O 0.26024 0.6811 0.13977 0.0
C210 C 0.14334 0.62073 0.1801 0.0
C211 C 0.30947 0.68684 0.13172 0.0
O212 O 0.34943 0.67935 0.14734 0.0
C213 C 0.27705 0.52618 0.17858 0.0
C214 C 0.08594 0.60545 0.18155 0.0
C215 C 0.06241 0.60155 0.20528 0.0
C216 C 1.00867 0.58731 0.20772 0.0
C217 C 0.97811 0.57515 0.18653 0.0
C218 C 1.00019 0.57819 0.16253 0.0
C219 C 0.0545 0.59401 0.15997 0.0
O220 O 0.25305 0.66429 0.24099 0.0
O221 O 0.27383 0.7117 0.20542 0.0
O222 O 0.33535 0.54021 0.24792 0.0
O223 O 0.35214 0.60489 0.22317 0.0
C224 C 0.3733 0.56888 0.23792 0.0
O225 O 0.29253 0.57322 0.16996 0.0
O226 O 0.24986 0.52422 0.19969 0.0
O227 O 0.1627 0.65116 0.16211 0.0
O228 O 0.17764 0.60812 0.19792 0.0
H229 H 0.08528 0.61142 0.22191 0.0
H230 H 0.9362 0.56471 0.18872 0.0
H231 H 0.07208 0.59687 0.14149 0.0
O232 O 0.80688 0.63107 0.51276 0.0
Tb233 Tb 0.83211 0.58537 0.54563 0.0
Eu234 Eu 0.8973 0.60556 0.59912 0.0
C235 C 0.83327 0.67322 0.50429 0.0
O236 O 0.87104 0.69516 0.51797 0.0
C237 C 0.95952 0.58222 0.5474 0.0
O238 O 0.92752 0.58577 0.63779 0.0
C239 C 0.87236 0.70649 0.59803 0.0
C240 C 0.92477 0.53638 0.64642 0.0
O241 O 0.9114 0.49727 0.63118 0.0
C242 C 0.77612 0.57523 0.5971 0.0
C243 C 0.85815 0.76431 0.59706 0.0
C244 C 0.85661 0.7895 0.57358 0.0
C245 C 0.84134 0.84316 0.57142 0.0
C246 C 0.82717 0.87237 0.59269 0.0
C247 C 0.82802 0.84866 0.61646 0.0
C248 C 0.84381 0.79407 0.61872 0.0
O249 O 0.91649 0.60237 0.53651 0.0
O250 O 0.96089 0.57509 0.57196 0.0
O251 O 0.79278 0.52433 0.52318 0.0
O252 O 0.85014 0.49979 0.55027 0.0
C253 C 0.8173 0.48333 0.5329 0.0
O254 O 0.82194 0.5578 0.60588 0.0
O255 O 0.7751 0.60277 0.57593 0.0
O256 O 0.90217 0.68582 0.61589 0.0
O257 O 0.85986 0.67327 0.5798 0.0
H258 H 0.86796 0.76769 0.5569 0.0
H259 H 0.81576 0.91424 0.5907 0.0
H260 H 0.84417 0.77493 0.63697 0.0
O261 O 0.2026 0.04861 0.76005 0.0
Tb262 Tb 0.24628 0.07486 0.79311 0.0
Eu263 Eu 0.23413 0.1347 0.84481 0.0
C264 C 0.15761 0.07136 0.75284 0.0
O265 O 0.1352 0.10782 0.767 0.0
C266 C 0.25548 0.20001 0.79386 0.0
O267 O 0.25384 0.17325 0.88136 0.0
C268 C 0.13289 0.11148 0.84493 0.0
C269 C 0.29918 0.16116 0.89229 0.0
O270 O 0.33657 0.1368 0.87942 0.0
C271 C 0.26112 1.01245 0.84276 0.0
C272 C 0.07479 0.09818 0.84427 0.0
C273 C 0.05094 0.09284 0.82074 0.0
C274 C 0.99756 0.07775 0.81832 0.0
C275 C 0.96705 0.06641 0.83966 0.0
C276 C 0.98941 0.07053 0.86369 0.0
C277 C 1.04372 0.08708 0.86603 0.0
O278 O 0.22855 0.15955 0.78404 0.0
O279 O 0.26771 0.19785 0.81788 0.0
O280 O 0.31381 1.04295 0.77256 0.0
O281 O 0.3282 0.09913 0.80165 0.0
C282 C 0.35048 0.06972 0.78455 0.0
O283 O 0.27973 0.05788 0.8517 0.0
O284 O 0.23138 1.01363 0.82228 0.0
O285 O 0.15592 0.1362 0.86376 0.0
O286 O 0.16406 0.10348 0.82544 0.0
H287 H 0.07384 0.10056 0.80397 0.0
H288 H 0.92569 0.05394 0.83753 0.0
H289 H 0.06174 0.09 0.88443 0.0
O290 O 0.79471 0.4713 0.01376 0.0
Tb291 Tb 0.76687 0.51481 0.04638 0.0
Eu292 Eu 0.70012 0.49581 0.0981 0.0
C293 C 0.76788 0.43083 1.00408 0.0
O294 O 0.72885 0.40837 0.01678 0.0
C295 C 0.6396 0.51951 0.04559 0.0
O296 O 0.66587 0.51357 0.13625 0.0
C297 C 0.72427 0.39453 0.09646 0.0
C298 C 0.66936 0.56209 0.14571 0.0
O299 O 0.68685 0.60167 0.13154 0.0
C300 C 0.82197 0.52432 0.09737 0.0
C301 C 0.73807 0.33652 0.09522 0.0
C302 C 0.74153 0.31249 0.07157 0.0
C303 C 0.75558 0.25846 0.06936 0.0
C304 C 0.76767 0.22808 0.09069 0.0
C305 C 0.76499 0.25062 0.11458 0.0
C306 C 0.74956 0.30522 0.11692 0.0
O307 O 0.6832 0.49974 0.03526 0.0
O308 O 0.63739 0.52675 0.07014 0.0
O309 O 0.80999 0.57722 0.0263 0.0
O310 O 0.75067 0.60019 0.05239 0.0
C311 C 0.7863 0.61793 0.03657 0.0
O312 O 0.77609 0.54279 0.1056 0.0
O313 O 0.82228 0.49497 0.07691 0.0
O314 O 0.6966 0.41516 0.11492 0.0
O315 O 0.73531 0.42815 0.07808 0.0
H316 H 0.73197 0.33528 0.05483 0.0
H317 H 0.77817 0.18601 0.08868 0.0
H318 H 0.74731 0.32318 0.13532 0.0
O319 O 0.3833 1.04081 0.26418 0.0
Tb320 Tb 0.33947 1.01222 0.29678 0.0
Eu321 Eu 0.35544 0.95097 0.34939 0.0
C322 C 0.42376 1.01456 0.25438 0.0
O323 O 0.44665 0.97553 0.26701 0.0
C324 C 0.33687 0.88525 0.29856 0.0
O325 O 0.33847 0.91337 0.38666 0.0
C326 C 0.45478 0.98072 0.34886 0.0
C327 C 0.29135 0.92037 0.39678 0.0
O328 O 0.25214 0.93926 0.38297 0.0
C329 C 0.32344 0.07151 0.34708 0.0
C330 C 0.51172 0.99771 0.34809 0.0
C331 C 0.53606 1.00199 0.32461 0.0
C332 C 0.58912 1.0184 0.32254 0.0
C333 C 0.61835 1.03254 0.34385 0.0
C334 C 0.59535 1.02947 0.36768 0.0
C335 C 0.54161 1.0114 0.36988 0.0
O336 O 0.35958 0.92793 0.28827 0.0
O337 O 0.32718 0.88499 0.32285 0.0
O338 O 0.27707 1.04628 0.27338 0.0
O339 O 0.2557 0.98837 0.30096 0.0
C340 C 0.23779 1.01901 0.28296 0.0
O341 O 0.30579 1.02536 0.35576 0.0
O342 O 0.35278 0.07203 0.32656 0.0
O343 O 0.43375 0.95518 0.36802 0.0
O344 O 0.42297 0.98603 0.32933 0.0
H345 H 0.51442 0.99079 0.30781 0.0
H346 H 0.6599 1.04457 0.34191 0.0
H347 H 0.52333 1.00849 0.3882 0.0
O348 O 0.2934 0.46691 0.51199 0.0
Tb349 Tb 0.27026 0.52115 0.48179 0.0
Eu350 Eu 0.20088 0.49123 0.42917 0.0
C351 C 0.27467 0.47629 0.53458 0.0
O352 O 0.24289 0.51751 0.53808 0.0
C353 C 0.14038 0.52308 0.48118 0.0
O354 O 0.17107 0.50854 0.3901 0.0
C355 C 0.22732 0.39055 0.4311 0.0
C356 C 0.17064 0.55779 0.38116 0.0
O357 O 0.18014 0.59825 0.39627 0.0
C358 C 0.32039 0.52912 0.42942 0.0
C359 C 0.24234 0.33285 0.43301 0.0
C360 C 0.24528 0.30985 0.45694 0.0
C361 C 0.25799 0.2556 0.46003 0.0
C362 C 0.2696 0.22393 0.43913 0.0
C363 C 0.26891 0.2458 0.41487 0.0
C364 C 0.25452 0.30071 0.41181 0.0
O365 O 0.18573 0.51339 0.49315 0.0
O366 O 0.13681 0.52062 0.45642 0.0
O367 O 0.31823 0.57936 0.50239 0.0
O368 O 0.25988 0.60757 0.47676 0.0
C369 C 0.29748 0.62219 0.49223 0.0
O370 O 0.27316 0.54287 0.42088 0.0
O371 O 0.32352 0.50177 0.45052 0.0
O372 O 0.1946 0.40937 0.41392 0.0
O373 O 0.24278 0.42575 0.44801 0.0
H374 H 0.23671 0.33392 0.47333 0.0
H375 H 0.28004 0.182 0.44182 0.0
H376 H 0.25361 0.31831 0.39323 0.0
O377 O 0.88621 1.04058 0.26091 0.0
Tb378 Tb 0.83954 1.01228 0.22907 0.0
Eu379 Eu 0.85046 0.94828 0.17559 0.0
C380 C 0.92113 1.01043 0.27297 0.0
O381 O 0.93964 0.96664 0.26253 0.0
C382 C 0.82965 0.88614 0.22731 0.0
O383 O 0.83095 0.91481 0.1376 0.0
C384 C 0.95163 0.97007 0.17737 0.0
C385 C 0.78122 0.90914 0.13021 0.0
O386 O 0.74224 0.91799 0.14611 0.0
C387 C 0.82211 0.071 0.17847 0.0
C388 C 1.00946 0.98246 0.17916 0.0
C389 C 1.0323 0.98553 0.20307 0.0
C390 C 0.086 0.99921 0.20591 0.0
C391 C 0.11744 1.01079 0.18499 0.0
C392 C 0.09608 1.00811 0.16085 0.0
C393 C 1.04167 0.99329 0.15782 0.0
O394 O 0.85618 0.92711 0.23694 0.0
O395 O 0.81875 0.8856 0.2031 0.0
O396 O 0.78069 0.04909 0.25322 0.0
O397 O 0.75443 0.99285 0.22597 0.0
C398 C 0.73947 1.0242 0.24412 0.0
O399 O 0.80445 1.02522 0.16938 0.0
O400 O 0.85225 0.07092 0.19878 0.0
O401 O 0.93047 0.943 0.15876 0.0
O402 O 0.91843 0.98223 0.19555 0.0
H403 H 1.00866 0.97658 0.21958 0.0
H404 H 0.15927 1.02122 0.18754 0.0
H405 H 1.02453 0.99127 0.13921 0.0
O406 O 0.30636 0.62913 0.01524 0.0
Tb407 Tb 0.33086 0.5881 0.9813 0.0
Eu408 Eu 0.39195 0.60128 0.92832 0.0
C409 C 0.33207 0.67089 0.02442 0.0
O410 O 0.36956 0.69458 1.01119 0.0
C411 C 0.45592 0.57661 0.97947 0.0
O412 O 0.42654 0.58231 0.89036 0.0
C413 C 0.38178 0.70549 0.93203 0.0
C414 C 0.41675 0.53565 0.87988 0.0
O415 O 0.39289 0.49799 0.8931 0.0
C416 C 0.26771 0.58215 0.93194 0.0
C417 C 0.34739 0.75464 0.9311 0.0
C418 C 0.3321 0.77645 0.95419 0.0
C419 C 0.31272 0.82891 0.95588 0.0
C420 C 0.30269 0.85836 0.93397 0.0
C421 C 0.31381 0.83687 0.91032 0.0
C422 C 0.33759 0.78505 0.9089 0.0
O423 O 0.41591 0.60314 0.98971 0.0
O424 O 0.45351 0.56417 0.95536 0.0
O425 O 0.29273 0.52277 1.00163 0.0
O426 O 0.34816 0.50376 0.97309 0.0
C427 C 0.31611 0.48367 0.98993 0.0
O428 O 0.31135 0.5618 0.9222 0.0
O429 O 0.27158 0.61052 0.95268 0.0
O430 O 0.39703 0.68188 0.91133 0.0
O431 O 0.37489 0.67167 0.95076 0.0
H432 H 0.33998 0.75463 0.9714 0.0
H433 H 0.2874 0.89901 0.93536 0.0
H434 H 0.3496 0.7695 0.89086 0.0
O435 O 0.71257 0.05294 0.76355 0.0
Tb436 Tb 0.75402 0.08094 0.73032 0.0
Eu437 Eu 0.72946 0.14754 0.6775 0.0
C438 C 0.66662 0.07295 0.77084 0.0
O439 O 0.63952 0.10461 0.7558 0.0
C440 C 0.75597 0.20799 0.73001 0.0
O441 O 0.75061 0.17805 0.63897 0.0
C442 C 0.62824 0.12437 0.67862 0.0
C443 C 0.80078 0.18364 0.63218 0.0
O444 O 0.83884 0.17763 0.64895 0.0
C445 C 0.76166 1.02531 0.67931 0.0
C446 C 0.57029 0.1113 0.68064 0.0
C447 C 0.54833 0.10824 0.70469 0.0
C448 C 0.49542 0.09227 0.70822 0.0
C449 C 0.46341 0.07906 0.68767 0.0
C450 C 0.48353 0.08206 0.66326 0.0
C451 C 0.53745 0.09871 0.65966 0.0
O452 O 0.73653 0.16437 0.74086 0.0
O453 O 0.76129 0.21021 0.70532 0.0
O454 O 0.81756 1.03798 0.74929 0.0
O455 O 0.83825 0.10171 0.72462 0.0
C456 C 0.85712 0.06463 0.7395 0.0
O457 O 0.77662 0.0718 0.66982 0.0
O458 O 0.73432 1.02446 0.70035 0.0
O459 O 0.6484 0.15672 0.66153 0.0
O460 O 0.66242 0.10797 0.6958 0.0
H461 H 0.57241 0.1182 0.72086 0.0
H462 H 0.42238 0.06636 0.69073 0.0
H463 H 0.55384 0.10052 0.64092 0.0
C464 C 0.34184 0.18565 0.93305 0.0
C465 C 0.30095 0.15826 0.91982 0.0
C466 C 0.26725 0.12005 0.95901 0.0
C467 C 0.31335 0.13945 0.97131 0.0
N468 N 0.39509 0.19064 0.97106 0.0
N469 N 0.22989 0.09163 0.91962 0.0
C470 C 0.35056 0.17289 0.95869 0.0
C471 C 0.26427 0.12409 0.93264 0.0
N472 N 0.37194 0.22379 0.9211 0.0
N473 N 0.22723 0.09614 0.97246 0.0
H474 H 0.22831 0.08998 0.90016 0.0
H475 H 0.2067 0.06183 0.92806 0.0
H476 H 0.19038 0.08574 0.96472 0.0
H477 H 0.22882 0.09175 0.99187 0.0
H478 H 0.39936 0.24848 0.93022 0.0
H479 H 0.36628 0.23373 0.90228 0.0
H480 H 0.42709 0.20971 0.96226 0.0
H481 H 0.40086 0.18416 0.9902 0.0
C482 C 0.61985 0.56304 0.18698 0.0
C483 C 0.6683 0.56877 0.17332 0.0
C484 C 0.71554 0.59408 0.21169 0.0
C485 C 0.66875 0.58309 0.22583 0.0
N486 N 0.57699 0.55399 0.22774 0.0
N487 N 0.7646 0.57784 0.17361 0.0
C488 C 0.62088 0.56682 0.21369 0.0
C489 C 0.71679 0.58099 0.18593 0.0
N490 N 0.57288 0.55541 0.17435 0.0
N491 N 0.75824 0.61928 0.22261 0.0
H492 H 0.76783 0.56707 0.15484 0.0
H493 H 0.80149 0.58047 0.18263 0.0
H494 H 0.75847 0.63133 0.24127 0.0
H495 H 0.79107 0.63342 0.21254 0.0
H496 H 0.53544 0.55608 0.18282 0.0
H497 H 0.57111 0.55189 0.15491 0.0
H498 H 0.54232 0.53692 0.22042 0.0
H499 H 0.57644 0.55754 0.2472 0.0
C500 C 0.3159 0.96891 0.43596 0.0
C501 C 0.28803 0.92595 0.42419 0.0
C502 C 0.24224 0.90469 0.46349 0.0
C503 C 0.27024 0.94754 0.47501 0.0
N504 N 0.34395 1.00985 0.47488 0.0
N505 N 0.23356 0.84628 0.42733 0.0
C506 C 0.31082 0.9758 0.46212 0.0
C507 C 0.25405 0.8915 0.43821 0.0
N508 N 0.34389 1.00568 0.42201 0.0
N509 N 0.20327 0.87807 0.47652 0.0
H510 H 0.24156 0.83603 0.40879 0.0
H511 H 0.21228 0.81694 0.43709 0.0
H512 H 0.19588 0.88529 0.49544 0.0
H513 H 0.17705 0.85052 0.46848 0.0
H514 H 0.35927 1.04124 0.42934 0.0
H515 H 0.34786 1.00364 0.40264 0.0
H516 H 0.3776 1.02777 0.46693 0.0
H517 H 0.34096 1.01579 0.49414 0.0
C518 C 0.96837 0.53796 0.68904 0.0
C519 C 0.92276 0.52763 0.67387 0.0
C520 C 0.87267 0.49839 0.71081 0.0
C521 C 0.91566 0.51497 0.72634 0.0
N522 N 1.00351 0.55368 0.73091 0.0
N523 N 0.82782 0.50928 0.67113 0.0
C524 C 0.96354 0.53536 0.71565 0.0
C525 C 0.87393 0.51074 0.68495 0.0
N526 N 1.01638 0.54903 0.67796 0.0
N527 N 0.83126 0.46909 0.7206 0.0
H528 H 0.82609 0.51953 0.65223 0.0
H529 H 0.79019 0.50329 0.67904 0.0
H530 H 0.82939 0.45757 0.73937 0.0
H531 H 0.80175 0.45126 0.7096 0.0
H532 H 0.0523 0.55184 0.68775 0.0
H533 H 1.021 0.55141 0.65857 0.0
H534 H 1.03716 0.57412 0.72443 0.0
H535 H 1.00144 0.55142 0.7504 0.0
C536 C 0.77786 0.86383 0.06205 0.0
C537 C 0.75598 0.91033 0.05056 0.0
C538 C 0.75038 0.95518 0.09117 0.0
C539 C 0.77 0.90797 0.10299 0.0
N540 N 0.79559 0.81486 0.10073 0.0
N541 N 0.70862 0.99432 0.0546 0.0
C542 C 0.78172 0.86141 0.08871 0.0
C543 C 0.73829 0.95415 0.06527 0.0
N544 N 0.79621 0.82289 0.04743 0.0
N545 N 0.74601 1.00204 0.10433 0.0
H546 H 0.69826 0.99489 0.0357 0.0
H547 H 0.68973 1.0242 0.06489 0.0
H548 H 0.75492 1.00523 0.12333 0.0
H549 H 0.73827 1.03909 0.09592 0.0
H550 H 0.81742 0.79005 0.0543 0.0
H551 H 0.79265 0.82326 0.02796 0.0
H552 H 0.79995 0.77809 0.09175 0.0
H553 H 0.79904 0.81219 0.12016 0.0
C554 C 0.46353 0.52749 0.83807 0.0
C555 C 0.41564 0.53218 0.85214 0.0
C556 C 0.36246 0.52066 0.81405 0.0
C557 C 0.41001 0.52105 0.79946 0.0
N558 N 0.50584 0.52988 0.79703 0.0
N559 N 0.32009 0.54614 0.85277 0.0
C560 C 0.46072 0.52571 0.81133 0.0
C561 C 0.36531 0.53261 0.83989 0.0
N562 N 0.5114 0.5235 0.8503 0.0
N563 N 0.31464 0.506 0.80359 0.0
H564 H 0.32022 0.55611 0.87171 0.0
H565 H 0.28332 0.55291 0.84412 0.0
H566 H 0.31055 0.49416 0.78502 0.0
H567 H 0.28005 0.49942 0.81402 0.0
H568 H 0.54731 0.51454 0.84145 0.0
H569 H 0.5146 0.5258 0.86975 0.0
H570 H 0.54355 0.53852 0.80427 0.0
H571 H 0.505 0.5283 0.77751 0.0
C572 C 0.84448 0.1447 0.59408 0.0
C573 C 0.81411 0.18657 0.60511 0.0
C574 C 0.80037 0.22722 0.56355 0.0
C575 C 0.83345 0.18721 0.55297 0.0
N576 N 0.89747 0.11583 0.55879 0.0
N577 N 0.77103 0.27279 0.60122 0.0
C578 C 0.85899 0.14864 0.56848 0.0
C579 C 0.79429 0.22941 0.59008 0.0
N580 N 0.85641 0.09929 0.60749 0.0
N581 N 0.7738 0.2622 0.54821 0.0
H582 H 0.76643 0.27578 0.62057 0.0
H583 H 0.76046 0.30766 0.59158 0.0
H584 H 0.77904 0.26262 0.52883 0.0
H585 H 0.74427 0.28828 0.55446 0.0
H586 H 0.87306 0.06511 0.59948 0.0
H587 H 0.84475 0.09321 0.62601 0.0
H588 H 0.92143 0.09096 0.56981 0.0
H589 H 0.90915 0.11731 0.54008 0.0
C590 C 0.13403 0.55316 0.3117 0.0
C591 C 0.18097 0.5756 0.301 0.0
C592 C 0.22077 0.58569 0.34265 0.0
C593 C 0.17285 0.56595 0.35363 0.0
N594 N 0.08093 0.53834 0.34924 0.0
N595 N 0.26259 0.62639 0.30651 0.0
C596 C 0.12853 0.55179 0.33831 0.0
C597 C 0.22239 0.59582 0.31655 0.0
N598 N 0.09558 0.53184 0.29645 0.0
N599 N 0.26591 0.59211 0.35686 0.0
H600 H 0.26512 0.63555 0.28751 0.0
H601 H 0.29036 0.64726 0.31734 0.0
H602 H 0.26736 0.58441 0.37601 0.0
H603 H 0.30345 0.60011 0.34924 0.0
H604 H 0.06299 0.50982 0.30296 0.0
H605 H 0.09808 0.53332 0.27696 0.0
H606 H 0.04556 0.53264 0.33929 0.0
H607 H 0.07582 0.53691 0.36861 0.0
C608 C 0.85645 0.66053 0.43443 0.0
C609 C 0.81776 0.69682 0.42469 0.0
C610 C 0.79056 0.72027 0.46751 0.0
C611 C 0.8305 0.68547 0.47711 0.0
N612 N 0.90913 0.63154 0.47005 0.0
N613 N 0.75556 0.76902 0.43154 0.0
C614 C 0.86608 0.6588 0.46064 0.0
C615 C 0.78703 0.72908 0.44115 0.0
N616 N 0.88141 0.62487 0.41894 0.0
N617 N 0.75531 0.74386 0.48357 0.0
H618 H 0.75271 0.77681 0.41237 0.0
H619 H 0.7361 0.79738 0.4425 0.0
H620 H 0.75812 0.73957 0.50297 0.0
H621 H 0.7216 0.76495 0.47772 0.0
H622 H 0.905 0.59328 0.42541 0.0
H623 H 0.87478 0.62317 0.3997 0.0
H624 H 0.93995 0.61682 0.45895 0.0
H625 H 0.91669 0.62758 0.48914 0.0
C626 C 0.09194 1.02813 0.69151 0.0
C627 C 0.12792 0.05254 0.67429 0.0
C628 C 0.17271 0.09906 0.70868 0.0
C629 C 0.14265 0.06843 0.72607 0.0
N630 N 0.07234 1.00508 0.73495 0.0
N631 N 0.208 0.10509 0.66679 0.0
C632 C 0.10143 1.03355 0.71777 0.0
C633 C 0.1695 0.08676 0.68291 0.0
N634 N 0.04853 1.0006 0.68267 0.0
N635 N 0.20344 0.141 0.71677 0.0
H636 H 0.20811 0.09684 0.64768 0.0
H637 H 0.24267 0.12455 0.67275 0.0
H638 H 0.20547 0.15216 0.73552 0.0
H639 H 0.22179 0.16827 0.70467 0.0
H640 H 1.01809 0.98564 0.694 0.0
H641 H 1.04094 0.99613 0.66357 0.0
H642 H 1.04499 0.97514 0.73031 0.0
H643 H 0.07725 1.01011 0.75421 0.0
C644 C 0.78879 0.3748 0.9661 0.0
C645 C 0.77005 0.42348 0.97662 0.0
C646 C 0.76396 0.46428 0.93496 0.0
C647 C 0.77961 0.41474 0.92413 0.0
N648 N 0.80019 0.32067 0.92867 0.0
N649 N 0.72655 0.50927 0.97077 0.0
C650 C 0.79012 0.36925 0.93952 0.0
C651 C 0.75367 0.46661 0.96095 0.0
N652 N 0.8067 0.33471 0.98152 0.0
N653 N 0.76163 0.51007 0.92072 0.0
H654 H 0.71742 0.51251 0.98971 0.0
H655 H 0.7083 0.53875 0.95981 0.0
H656 H 0.76959 0.51097 0.90161 0.0
H657 H 0.75686 0.54828 0.92829 0.0
H658 H 0.82605 0.30044 0.97516 0.0
H659 H 0.80516 0.33738 1.00099 0.0
H660 H 0.80316 0.28476 0.93864 0.0
H661 H 0.80169 0.3156 0.9093 0.0
C662 C 0.4785 1.04429 0.18899 0.0
C663 C 0.43407 1.02788 0.17422 0.0
C664 C 0.3887 0.9944 0.21176 0.0
C665 C 0.42993 1.01656 0.22682 0.0
N666 N 0.51298 0.06488 0.23051 0.0
N667 N 0.34246 0.9966 0.17208 0.0
C668 C 0.47481 1.04191 0.21564 0.0
C669 C 0.38807 1.00514 0.18571 0.0
N670 N 0.52445 0.06093 0.17747 0.0
N671 N 0.35065 0.96183 0.22226 0.0
H672 H 0.33934 1.00481 0.15299 0.0
H673 H 0.30594 0.98625 0.18015 0.0
H674 H 0.34985 0.95247 0.24128 0.0
H675 H 0.32317 0.93977 0.2118 0.0
H676 H 0.56005 0.06861 0.18695 0.0
H677 H 0.52817 0.06318 0.15804 0.0
H678 H 0.54373 0.08905 0.2237 0.0
H679 H 0.51199 0.06231 0.25001 0.0
C680 C 0.34675 0.41225 0.58978 0.0
C681 C 0.30158 0.39921 0.60465 0.0
C682 C 0.2442 0.41226 0.56783 0.0
C683 C 0.28676 0.44046 0.55607 0.0
N684 N 0.38 0.46568 0.55517 0.0
N685 N 0.21054 0.36842 0.60555 0.0
C686 C 0.3388 0.43907 0.56656 0.0
C687 C 0.25118 0.39288 0.59278 0.0
N688 N 0.3967 0.39709 0.59724 0.0
N689 N 0.19768 0.40408 0.55492 0.0
H690 H 0.21718 0.34868 0.62256 0.0
H691 H 0.17111 0.36674 0.59939 0.0
H692 H 0.19306 0.41642 0.53635 0.0
H693 H 0.16531 0.38213 0.56167 0.0
H694 H 0.43069 0.40299 0.58631 0.0
H695 H 0.40277 0.37136 0.61244 0.0
H696 H 0.41716 0.47126 0.56364 0.0
H697 H 0.37598 0.48515 0.53794 0.0
C698 C 0.8772 1.00862 0.31486 0.0
C699 C 0.92446 1.01591 0.30059 0.0
C700 C 0.97519 1.03196 0.33933 0.0
C701 C 0.92659 1.03059 0.35306 0.0
N702 N 0.82981 1.0306 0.35272 0.0
N703 N 1.01806 1.03802 0.29853 0.0
C704 C 0.87715 1.02251 0.34051 0.0
C705 C 0.97353 1.02839 0.31263 0.0
N706 N 0.83275 0.98616 0.30418 0.0
N707 N 1.02277 1.03528 0.35186 0.0
H708 H 1.01809 1.03472 0.27907 0.0
H709 H 0.05383 0.05244 0.30588 0.0
H710 H 1.02509 1.03839 0.3713 0.0
H711 H 0.05988 1.03115 0.34329 0.0
H712 H 0.79905 0.97494 0.31442 0.0
H713 H 0.83172 0.97312 0.28568 0.0
H714 H 0.79289 1.03073 0.34363 0.0
H715 H 0.82748 1.04301 0.37129 0.0
C716 C 0.35033 0.63712 0.0675 0.0
C717 C 0.33067 0.67887 0.05189 0.0
C718 C 0.30576 0.73074 0.08908 0.0
C719 C 0.31917 0.68579 0.10436 0.0
N720 N 0.34565 0.59251 0.10759 0.0
N721 N 0.28879 0.76527 0.04704 0.0
C722 C 0.3394 0.63807 0.09346 0.0
C723 C 0.30846 0.72599 0.06246 0.0
N724 N 0.3812 0.59727 0.0576 0.0
N725 N 0.29146 0.77803 0.10011 0.0
H726 H 0.29153 0.76327 0.02757 0.0
H727 H 0.26744 0.79842 0.05331 0.0
H728 H 0.28885 0.78236 0.1195 0.0
H729 H 0.28588 0.81385 0.09033 0.0
H730 H 0.40149 0.56905 0.06848 0.0
H731 H 0.39133 0.59592 0.03871 0.0
H732 H 0.35378 0.55497 0.09993 0.0
H733 H 0.33798 0.59075 0.12672 0.0
C734 C 0.6568 1.00116 0.83254 0.0
C735 C 0.64966 1.04484 0.84929 0.0
C736 C 0.6422 0.10715 0.81386 0.0
C737 C 0.64964 0.06349 0.79711 0.0
N738 N 0.64555 0.96812 0.79021 0.0
N739 N 0.61792 0.13485 0.85579 0.0
C740 C 0.65043 1.01015 0.80643 0.0
C741 C 0.63613 0.09628 0.83983 0.0
N742 N 0.67388 0.95229 0.84111 0.0
N743 N 0.64525 0.15909 0.80554 0.0
H744 H 0.61262 0.12755 0.87489 0.0
H745 H 0.60282 0.17166 0.84969 0.0
H746 H 0.65071 0.16969 0.78687 0.0
H747 H 0.64668 0.19198 0.81753 0.0
H748 H 0.68586 0.92144 0.82926 0.0
H749 H 0.68041 0.94356 0.85992 0.0
H750 H 0.64113 0.92837 0.79609 0.0
H751 H 0.6401 0.97383 0.771 0.0
C752 C 0.34664 0.4639 0.16012 0.0
C753 C 0.29184 0.47573 0.16468 0.0
C754 C 0.26657 0.39427 0.14103 0.0
C755 C 0.32066 0.38689 0.13367 0.0
N756 N 0.41218 0.41683 0.13484 0.0
N757 N 0.19894 0.45456 0.15751 0.0
C758 C 0.36074 0.4221 0.14303 0.0
C759 C 0.25159 0.44106 0.1549 0.0
N760 N 0.38538 0.49166 0.17274 0.0
N761 N 0.22941 0.35637 0.13461 0.0
H762 H 0.18631 0.48849 0.16722 0.0
H763 H 0.16782 0.43467 0.14845 0.0
H764 H 0.23909 0.32224 0.12429 0.0
H765 H 0.19035 0.35612 0.14131 0.0
H766 H 0.42576 0.48162 0.1723 0.0
H767 H 0.37667 0.5218 0.1856 0.0
H768 H 0.44203 0.44514 0.13823 0.0
H769 H 0.42438 0.38535 0.12336 0.0
C770 C 0.45244 0.52268 0.3924 0.0
C771 C 0.45701 0.57664 0.38384 0.0
C772 C 0.37864 0.60071 0.40939 0.0
C773 C 0.36976 0.54549 0.4152 0.0
N774 N 0.39532 0.45284 0.40982 0.0
N775 N 0.4222 0.6667 0.3826 0.0
C776 C 0.40634 0.50621 0.40636 0.0
C777 C 0.41962 0.61562 0.39205 0.0
N778 N 0.49221 0.48701 0.38702 0.0
N779 N 0.34896 0.63918 0.42109 0.0
H780 H 0.45307 0.67975 0.37093 0.0
H781 H 0.39224 0.69515 0.38512 0.0
H782 H 0.31943 0.63002 0.43419 0.0
H783 H 0.35688 0.68018 0.41968 0.0
H784 H 0.49436 0.44859 0.39474 0.0
H785 H 0.5258 0.49757 0.37652 0.0
H786 H 0.41692 0.42211 0.40144 0.0
H787 H 0.3617 0.43897 0.41941 0.0
C788 C 0.25229 0.64703 0.62247 0.0
C789 C 0.26273 0.70067 0.63022 0.0
C790 C 0.2861 0.66352 0.67157 0.0
C791 C 0.28993 0.61047 0.66148 0.0
N792 N 0.28834 0.55765 0.62319 0.0
N793 N 0.2983 0.75823 0.66266 0.0
C794 C 0.27578 0.60352 0.63581 0.0
C795 C 0.28189 0.70864 0.65499 0.0
N796 N 0.22083 0.63752 0.60206 0.0
N797 N 0.28367 0.67131 0.69681 0.0
H798 H 0.29795 0.79195 0.65105 0.0
H799 H 0.31701 0.76439 0.67989 0.0
H800 H 0.27973 0.63981 0.70959 0.0
H801 H 0.27747 0.7091 0.70465 0.0
H802 H 0.20963 0.59882 0.59669 0.0
H803 H 0.20135 0.66846 0.59245 0.0
H804 H 0.28109 0.55323 0.60407 0.0
H805 H 0.31307 0.52786 0.63044 0.0
C806 C 0.19942 0.51567 0.91536 0.0
C807 C 0.21427 0.57005 0.91996 0.0
C808 C 0.1312 0.59904 0.89875 0.0
C809 C 0.12149 0.54559 0.89056 0.0
N810 N 0.14915 0.45298 0.88968 0.0
N811 N 0.19558 0.66438 0.91422 0.0
C812 C 0.15601 0.50377 0.89877 0.0
C813 C 0.18 0.61202 0.91153 0.0
N814 N 0.22605 0.47518 0.9274 0.0
N815 N 0.09361 0.63752 0.89403 0.0
H816 H 0.23106 0.67563 0.92305 0.0
H817 H 0.17555 0.69659 0.90601 0.0
H818 H 0.05783 0.6289 0.88476 0.0
H819 H 0.09542 0.67623 0.90132 0.0
H820 H 0.21396 0.43512 0.92683 0.0
H821 H 0.25701 0.48231 0.94007 0.0
H822 H 0.17696 0.42234 0.89226 0.0
H823 H 0.11712 0.44226 0.87821 0.0
C824 C 0.85279 0.65652 0.86912 0.0
C825 C 0.81221 0.62038 0.86095 0.0
C826 C 0.74485 0.67385 0.88361 0.0
C827 C 0.78518 0.71047 0.89141 0.0
N828 N 0.87514 0.74342 0.88724 0.0
N829 N 0.71814 0.60301 0.85504 0.0
C830 C 0.83836 0.70399 0.88259 0.0
C831 C 0.75777 0.63168 0.86658 0.0
N832 N 0.90536 0.64392 0.86543 0.0
N833 N 0.69454 0.67782 0.89336 0.0
H834 H 0.72594 0.57286 0.84206 0.0
H835 H 0.67775 0.61264 0.85636 0.0
H836 H 0.68301 0.7091 0.9051 0.0
H837 H 0.66526 0.6484 0.89109 0.0
H838 H 0.93696 0.66522 0.87337 0.0
H839 H 0.91764 0.60952 0.85599 0.0
H840 H 0.91327 0.74406 0.87945 0.0
H841 H 0.86564 0.77825 0.89709 0.0
C842 C 0.69377 0.52081 0.60797 0.0
C843 C 0.72648 0.56649 0.61236 0.0
C844 C 0.66939 0.58985 0.64822 0.0
C845 C 0.64233 0.53956 0.64631 0.0
N846 N 0.63367 0.45397 0.62557 0.0
N847 N 0.74779 0.64328 0.6378 0.0
C848 C 0.65542 0.50437 0.62632 0.0
C849 C 0.71482 0.60077 0.63279 0.0
N850 N 0.69904 0.49334 0.58607 0.0
N851 N 0.65056 0.62795 0.66429 0.0
H852 H 0.77982 0.65393 0.62629 0.0
H853 H 0.74541 0.6659 0.65411 0.0
H854 H 0.61645 0.62209 0.67519 0.0
H855 H 0.6653 0.66709 0.66495 0.0
H856 H 0.67289 0.46297 0.58054 0.0
H857 H 0.72637 0.50489 0.57233 0.0
H858 H 0.64617 0.4245 0.61311 0.0
H859 H 0.60631 0.43992 0.63877 0.0
C860 C 0.78191 0.4309 0.35307 0.0
C861 C 0.78466 0.48405 0.36321 0.0
C862 C 0.82737 0.4449 0.40036 0.0
C863 C 0.81284 0.392 0.39311 0.0
N864 N 0.76739 0.33651 0.36272 0.0
N865 N 0.79339 0.53474 0.40186 0.0
C866 C 0.78762 0.38532 0.36943 0.0
C867 C 0.80298 0.48933 0.38835 0.0
N868 N 0.77663 0.42317 0.32791 0.0
N869 N 0.86371 0.45302 0.41906 0.0
H870 H 0.76797 0.56517 0.39572 0.0
H871 H 0.80371 0.53782 0.42074 0.0
H872 H 0.88453 0.42136 0.42744 0.0
H873 H 0.87707 0.49132 0.42399 0.0
H874 H 0.77828 0.38515 0.31982 0.0
H875 H 0.778 0.45439 0.3149 0.0
H876 H 0.7443 0.33116 0.34664 0.0
H877 H 0.76952 0.30273 0.37427 0.0
C878 C 0.90666 0.4973 0.12078 0.0
C879 C 0.8731 0.53831 0.1108 0.0
C880 C 0.92975 0.60692 0.13116 0.0
C881 C 0.96362 0.56602 0.14085 0.0
N882 N 0.99124 0.47365 0.14061 0.0
N883 N 0.86051 0.63234 0.10147 0.0
C884 C 0.95435 0.51165 0.13409 0.0
C885 C 0.88708 0.59321 0.1145 0.0
N886 N 0.89127 0.44468 0.11899 0.0
N887 N 0.93708 0.65883 0.13873 0.0
H888 H 0.82979 0.62389 0.08887 0.0
H889 H 0.8721 0.67257 0.10131 0.0
H890 H 0.96932 0.67071 0.14985 0.0
H891 H 0.9098 0.68947 0.13514 0.0
H892 H 0.91059 0.41333 0.12823 0.0
H893 H 0.85645 0.43249 0.10986 0.0
H894 H 0.98993 0.4341 0.13435 0.0
H895 H 1.02607 0.48309 0.15047 0.0
C896 C 0.8503 0.91578 0.65019 0.0
C897 C 0.81134 0.88338 0.63809 0.0
C898 C 0.73951 0.93765 0.65718 0.0
C899 C 0.77852 0.97385 0.66686 0.0
N900 N 0.8711 0.9961 0.6743 0.0
N901 N 0.71933 0.8611 0.63035 0.0
C902 C 0.834 0.96221 0.66399 0.0
C903 C 0.75602 0.89316 0.64211 0.0
N904 N 0.903 0.90179 0.64834 0.0
N905 N 0.68654 0.9464 0.662 0.0
H906 H 0.73022 0.82674 0.62047 0.0
H907 H 0.67852 0.86881 0.62963 0.0
H908 H 0.67254 0.98034 0.67125 0.0
H909 H 0.6562 0.91915 0.65791 0.0
H910 H 0.93412 0.9208 0.65773 0.0
H911 H 0.91563 0.86812 0.63841 0.0
H912 H 0.91199 0.99409 0.67102 0.0
H913 H 0.86088 1.02778 0.68603 0.0
C914 C 0.94588 1.00156 0.89212 0.0
C915 C 0.95394 0.05647 0.88562 0.0
C916 C 0.87875 0.08105 0.91318 0.0
C917 C 0.86583 1.02575 0.9167 0.0
N918 N 0.88556 0.93282 0.90832 0.0
N919 N 0.927 0.14883 0.88919 0.0
C920 C 0.89955 0.98579 0.90619 0.0
C921 C 0.92042 0.09634 0.89621 0.0
N922 N 0.98267 0.96444 0.88466 0.0
N923 N 0.85176 0.11902 0.92654 0.0
H924 H 0.95849 0.1617 0.87784 0.0
H925 H 0.89993 0.17912 0.89348 0.0
H926 H 0.8215 0.10928 0.93919 0.0
H927 H 0.8624 0.15949 0.92688 0.0
H928 H 0.98241 0.92451 0.89055 0.0
H929 H 1.01646 0.97487 0.87426 0.0
H930 H 0.90461 0.90198 0.89875 0.0
H931 H 0.85227 0.91974 0.91839 0.0
C932 C 0.75224 0.13553 0.16196 0.0
C933 C 0.80716 0.12283 0.16568 0.0
C934 C 0.83187 0.20632 0.14329 0.0
C935 C 0.77764 0.21426 0.13635 0.0
N936 N 0.68585 0.18535 0.13809 0.0
N937 N 0.89991 0.1441 0.15796 0.0
C938 C 0.73766 0.17884 0.14567 0.0
C939 C 0.84722 0.15819 0.1562 0.0
N940 N 0.71393 0.10696 0.17454 0.0
N941 N 0.8688 0.24477 0.13725 0.0
H942 H 0.91287 0.10891 0.1667 0.0
H943 H 0.93064 0.1649 0.14903 0.0
H944 H 0.8586 0.27992 0.12765 0.0
H945 H 0.90812 0.24435 0.14368 0.0
H946 H 0.67364 0.11737 0.17467 0.0
H947 H 0.72306 0.0756 0.18683 0.0
H948 H 0.65587 0.15707 0.14136 0.0
H949 H 0.67338 0.21809 0.1273 0.0
C950 C 0.70788 1.01894 0.41609 0.0
C951 C 0.72046 0.0743 0.41941 0.0
C952 C 0.63825 0.098 0.39617 0.0
C953 C 0.6307 1.04323 0.3896 0.0
N954 N 0.65941 0.9512 0.39246 0.0
N955 N 0.69902 0.16719 0.41128 0.0
C956 C 0.66548 1.00354 0.39962 0.0
C957 C 0.68545 0.11409 0.40948 0.0
N958 N 0.73589 0.98096 0.42917 0.0
N959 N 0.60025 0.13466 0.38941 0.0
H960 H 0.73314 0.18055 0.42064 0.0
H961 H 0.67869 0.19788 0.40203 0.0
H962 H 0.56577 0.12382 0.37958 0.0
H963 H 0.60031 0.1744 0.39541 0.0
H964 H 0.72563 0.94039 0.42957 0.0
H965 H 0.76653 0.99077 0.44162 0.0
H966 H 0.68744 0.92135 0.39622 0.0
H967 H 0.62738 0.93811 0.3815 0.0
C968 C 0.24659 0.18834 0.37676 0.0
C969 C 0.28532 0.20962 0.39357 0.0
C970 C 0.35082 0.14285 0.37847 0.0
C971 C 0.31235 0.12219 0.36142 0.0
N972 N 0.22799 0.13266 0.34044 0.0
N973 N 0.37759 0.21539 0.40622 0.0
C974 C 0.26164 0.14747 0.35935 0.0
C975 C 0.33855 0.18941 0.393 0.0
N976 N 0.19468 0.20495 0.37834 0.0
N977 N 0.39838 0.11664 0.38154 0.0
H978 H 0.37001 0.24989 0.41666 0.0
H979 H 0.41804 0.20602 0.40499 0.0
H980 H 0.40924 0.08348 0.37083 0.0
H981 H 0.4255 0.12536 0.39578 0.0
H982 H 0.16327 0.18661 0.36879 0.0
H983 H 0.18223 0.23504 0.39051 0.0
H984 H 0.19281 0.15296 0.33607 0.0
H985 H 0.23796 0.10273 0.3277 0.0
C986 C 0.13953 0.07489 0.13175 0.0
C987 C 0.13332 1.02069 0.1396 0.0
C988 C 0.21477 0.99673 0.11628 0.0
C989 C 0.22534 0.05213 0.11172 0.0
N990 N 0.19976 0.14484 0.11697 0.0
N991 N 0.16603 0.92981 0.14045 0.0
C992 C 0.18779 0.09146 0.11959 0.0
C993 C 0.17101 0.98146 0.13194 0.0
N994 N 0.09935 0.11066 0.13624 0.0
N995 N 0.24557 0.95856 0.105 0.0
H996 H 0.13297 0.9166 0.1507 0.0
H997 H 0.19573 0.90089 0.13848 0.0
H998 H 0.2772 0.96808 0.09307 0.0
H999 H 0.23683 0.91763 0.10552 0.0
H1000 H 0.0987 0.14956 0.12899 0.0
H1001 H 0.06409 0.09971 0.14537 0.0
H1002 H 0.17705 0.1755 0.12475 0.0
H1003 H 0.235 0.15873 0.10875 0.0
C1004 C 0.34304 0.90617 0.87802 0.0
C1005 C 0.30245 0.87214 0.88788 0.0
C1006 C 0.2341 0.92667 0.86601 0.0
C1007 C 0.27479 0.96055 0.85598 0.0
N1008 N 0.36842 0.97382 0.84728 0.0
N1009 N 0.21108 0.84222 0.88663 0.0
C1010 C 0.32942 0.94746 0.8604 0.0
C1011 C 0.24855 0.87985 0.88018 0.0
N1012 N 0.39439 0.90078 0.88641 0.0
N1013 N 0.18163 0.94101 0.86347 0.0
H1014 H 0.22065 0.80787 0.89699 0.0
H1015 H 0.17206 0.84233 0.87979 0.0
H1016 H 0.16932 0.97504 0.85361 0.0
H1017 H 0.15044 0.92161 0.87274 0.0
H1018 H 0.42457 0.92851 0.88255 0.0
H1019 H 0.4062 0.87004 0.89854 0.0
H1020 H 0.40855 0.96279 0.8477 0.0
H1021 H 0.35995 1.00349 0.83401 0.0
C1022 C 0.44033 1.01219 0.63557 0.0
C1023 C 0.44581 0.06707 0.6424 0.0
C1024 C 0.36387 0.08799 0.61845 0.0
C1025 C 0.35417 1.03217 0.6148 0.0
N1026 N 0.38184 0.94039 0.62109 0.0
N1027 N 0.4117 0.15737 0.64135 0.0
C1028 C 0.39253 0.99407 0.62334 0.0
C1029 C 0.40748 0.10506 0.63387 0.0
N1030 N 0.4809 0.97735 0.64101 0.0
N1031 N 0.33231 0.12488 0.60651 0.0
H1032 H 0.44452 0.17182 0.65139 0.0
H1033 H 0.3816 0.1857 0.63875 0.0
H1034 H 0.3006 0.11404 0.59487 0.0
H1035 H 0.34042 0.16594 0.60622 0.0
H1036 H 0.48225 0.93792 0.63464 0.0
H1037 H 0.5158 0.98947 0.65015 0.0
H1038 H 0.40496 0.91037 0.6293 0.0
H1039 H 0.34739 0.92561 0.61247 0.0
C1040 C 0.55835 0.98597 1.01155 0.0
C1041 C 0.58213 1.02426 0.99491 0.0
C1042 C 0.52781 0.09571 0.01519 0.0
C1043 C 0.50263 0.05713 0.03103 0.0
N1044 N 0.48892 0.9642 0.04195 0.0
N1045 N 0.58516 0.11584 0.97964 0.0
C1046 C 0.51701 1.00198 0.0287 0.0
C1047 C 0.56503 0.07903 0.99622 0.0
N1048 N 0.5748 0.93365 1.01074 0.0
N1049 N 0.51843 0.14908 0.01933 0.0
H1050 H 0.61659 0.10785 0.96749 0.0
H1051 H 0.56923 0.15406 0.97706 0.0
H1052 H 0.49252 0.16269 0.0332 0.0
H1053 H 0.53953 0.18014 1.01073 0.0
H1054 H 0.56613 0.90531 0.02454 0.0
H1055 H 0.59872 0.91853 0.99646 0.0
H1056 H 0.4925 0.923 0.03927 0.0
H1057 H 0.45908 0.97393 0.05474 0.0
C1058 C 0.83219 0.7789 0.28009 0.0
C1059 C 0.77744 0.76246 0.28134 0.0
C1060 C 0.75719 0.82428 0.24589 0.0
C1061 C 0.81203 0.84052 0.24459 0.0
N1062 N 0.90305 0.82462 0.25703 0.0
N1063 N 0.68646 0.7772 0.26855 0.0
C1064 C 0.84968 0.81597 0.26105 0.0
C1065 C 0.73978 0.78671 0.26478 0.0
N1066 N 0.86812 0.7585 0.29694 0.0
N1067 N 0.72118 0.84543 0.22929 0.0
H1068 H 0.67212 0.75244 0.28286 0.0
H1069 H 0.65584 0.79734 0.25928 0.0
H1070 H 0.7298 0.87747 0.21738 0.0
H1071 H 0.68291 0.8301 0.22649 0.0
H1072 H 0.9062 0.77434 0.29973 0.0
H1073 H 0.85951 0.72689 0.30911 0.0
H1074 H 0.93345 0.80388 0.26619 0.0
H1075 H 0.91751 0.84885 0.24257 0.0
C1076 C 1.01561 1.01303 0.49779 0.0
C1077 C 1.00207 0.06863 0.49572 0.0
C1078 C 0.05875 0.08649 0.53305 0.0
C1079 C 0.07618 1.03192 0.53375 0.0
N1080 N 0.07254 0.94347 0.51548 0.0
N1081 N 1.02019 0.15943 0.5086 0.0
C1082 C 0.05527 0.99556 0.51556 0.0
C1083 C 1.026 0.10549 0.51274 0.0
N1084 N 0.98766 0.97589 0.48419 0.0
N1085 N 0.0735 0.12087 0.5517 0.0
H1086 H 0.99937 0.17501 0.49328 0.0
H1087 H 1.04073 0.18878 0.51862 0.0
H1088 H 0.10039 0.11092 0.56584 0.0
H1089 H 0.05607 0.15844 0.55419 0.0
H1090 H 0.99038 0.93461 0.48715 0.0
H1091 H 0.95761 0.98586 0.47153 0.0
H1092 H 0.06617 0.91733 0.50059 0.0
H1093 H 0.09499 0.92668 0.52999 0.0
C1094 C 0.82712 0.27396 0.74643 0.0
C1095 C 0.77326 0.2548 0.74664 0.0
C1096 C 0.75577 0.31311 0.78345 0.0
C1097 C 0.80861 0.33512 0.78228 0.0
N1098 N 0.89433 0.33689 0.76171 0.0
N1099 N 0.68393 0.26477 0.76238 0.0
C1100 C 0.84388 0.31586 0.76331 0.0
C1101 C 0.73719 0.27651 0.7645 0.0
N1102 N 0.86342 0.24998 0.731 0.0
N1103 N 0.72267 0.32695 0.80266 0.0
H1104 H 0.66864 0.23987 0.74842 0.0
H1105 H 0.65425 0.28365 0.77274 0.0
H1106 H 0.7317 0.35652 0.8157 0.0
H1107 H 0.68723 0.30664 0.80667 0.0
H1108 H 0.90421 0.25806 0.73127 0.0
H1109 H 0.85361 0.21898 0.71879 0.0
H1110 H 0.91915 0.33225 0.74627 0.0
H1111 H 0.91124 0.36058 0.77571 0.0
C1112 C 0.29333 0.23975 0.75265 0.0
C1113 C 0.2742 0.24726 0.7776 0.0
C1114 C 0.30566 0.34103 0.77405 0.0
C1115 C 0.31355 0.33695 0.74756 0.0
N1116 N 0.29985 0.27934 0.7114 0.0
N1117 N 0.25131 0.3127 0.8091 0.0
C1118 C 0.30323 0.28541 0.73673 0.0
C1119 C 0.27696 0.30021 0.78737 0.0
N1120 N 0.30501 0.18947 0.74423 0.0
N1121 N 0.32867 0.38184 0.78717 0.0
H1122 H 0.22686 0.28549 0.81862 0.0
H1123 H 0.24916 0.35199 0.81576 0.0
H1124 H 0.35648 0.40768 0.77913 0.0
H1125 H 0.32667 0.38435 0.80663 0.0
H1126 H 0.32377 0.18288 0.72709 0.0
H1127 H 0.30175 0.15523 0.75538 0.0
H1128 H 0.28897 0.24299 0.70316 0.0
H1129 H 0.3007 0.31122 0.69878 0.0
C1130 C 0.25062 0.77569 0.26541 0.0
C1131 C 0.28645 0.7561 0.2468 0.0
C1132 C 0.35715 0.81567 0.26458 0.0
C1133 C 0.32032 0.83803 0.28196 0.0
N1134 N 0.22881 0.8442 0.29603 0.0
N1135 N 0.37341 0.76224 0.22737 0.0
C1136 C 0.26641 0.81872 0.28182 0.0
C1137 C 0.33938 0.7779 0.24593 0.0
N1138 N 0.20061 0.75376 0.26723 0.0
N1139 N 0.41026 0.82798 0.2669 0.0
H1140 H 0.36478 0.73153 0.21483 0.0
H1141 H 0.40926 0.78183 0.22341 0.0
H1142 H 0.42504 0.85333 0.28079 0.0
H1143 H 0.44043 0.80913 0.25685 0.0
H1144 H 0.17567 0.75923 0.28259 0.0
H1145 H 0.18453 0.72818 0.25376 0.0
H1146 H 0.1879 0.83711 0.29453 0.0
H1147 H 0.23742 0.87653 0.30766 0.0
C1148 C 1.02665 0.5134 0.53054 0.0
C1149 C 1.00724 0.56731 0.53107 0.0
C1150 C 0.06964 0.58987 0.4963 0.0
C1151 C 0.09163 0.53702 0.49699 0.0
N1152 N 0.09318 0.44928 0.5161 0.0
N1153 N 1.01662 0.65877 0.51691 0.0
C1154 C 0.07081 0.49925 0.51463 0.0
C1155 C 1.03026 0.60588 0.51443 0.0
N1156 N 1.00088 0.47467 0.54423 0.0
N1157 N 0.08661 0.62521 0.47831 0.0
H1158 H 0.98954 0.67219 0.53031 0.0
H1159 H 1.03549 0.69009 0.50742 0.0
H1160 H 0.11734 0.61661 0.46581 0.0
H1161 H 0.06795 0.66173 0.47458 0.0
H1162 H 1.00825 0.43371 0.54254 0.0
H1163 H 0.96849 0.48272 0.55585 0.0
H1164 H 0.08561 0.42215 0.53056 0.0
H1165 H 0.12158 0.43562 0.50337 0.0
C1166 C 0.59911 0.56997 1.00804 0.0
C1167 C 0.59224 0.53366 0.02864 0.0
C1168 C 0.49619 0.52601 0.01717 0.0
C1169 C 0.5036 0.56034 0.99584 0.0
N1170 N 0.56462 0.6095 0.96944 0.0
N1171 N 0.53571 0.47001 0.04992 0.0
C1172 C 0.55595 0.58021 0.99077 0.0
C1173 C 0.54101 0.51005 0.03246 0.0
N1174 N 0.64629 0.59734 1.00571 0.0
N1175 N 0.44598 0.50808 0.02284 0.0
H1176 H 0.56743 0.45653 0.06095 0.0
H1177 H 0.50138 0.44684 0.05219 0.0
H1178 H 0.41306 0.51522 1.01143 0.0
H1179 H 0.436 0.48888 0.03954 0.0
H1180 H 0.65284 0.62811 0.99285 0.0
H1181 H 0.67811 0.5924 0.01806 0.0
H1182 H 0.60249 0.61902 0.96266 0.0
H1183 H 0.53395 0.62167 0.95748 0.0
C1184 C 0.35257 0.8618 0.99663 0.0
C1185 C 0.30713 0.85495 0.98077 0.0
C1186 C 0.25402 0.90994 1.00917 0.0
C1187 C 0.30084 0.92116 0.02318 0.0
N1188 N 0.38287 0.88323 0.0385 0.0
N1189 N 0.21134 0.86257 0.97539 0.0
C1190 C 0.34632 0.88883 0.01972 0.0
C1191 C 0.25675 0.87531 0.98833 0.0
N1192 N 0.40247 0.84692 0.98896 0.0
N1193 N 0.20598 0.93129 0.01562 0.0
H1194 H 0.21107 0.83545 0.96054 0.0
H1195 H 0.17392 0.87784 0.98022 0.0
H1196 H 0.20031 0.95469 0.03157 0.0
H1197 H 0.20031 0.95469 0.03157 0.0
H1198 H 0.43695 0.85614 0.99909 0.0
H1199 H 0.41034 0.83064 0.97143 0.0
H1200 H 0.41478 0.85644 0.0375 0.0
H1201 H 0.37655 0.89939 0.05623 0.0
C1202 C 0.95068 0.63737 0.23678 0.0
C1203 C 0.98145 0.59101 0.23214 0.0
C1204 C 0.94096 0.54605 0.2683 0.0
C1205 C 0.90316 0.58821 0.2696 0.0
N1206 N 0.86764 0.67121 0.25277 0.0
N1207 N 1.00897 0.50154 0.24344 0.0
C1208 C 0.90745 0.6338 0.25364 0.0
C1209 C 0.97823 0.54562 0.24819 0.0
N1210 N 0.96194 0.68436 0.2245 0.0
N1211 N 0.94048 0.50646 0.2861 0.0
H1212 H 1.03783 0.50117 0.22935 0.0
H1213 H 1.00468 0.46493 0.25272 0.0
H1214 H 0.91334 0.50639 0.30094 0.0
H1215 H 0.96923 0.4764 0.28737 0.0
H1216 H 0.9439 0.72081 0.22892 0.0
H1217 H 0.99313 0.68793 0.21164 0.0
H1218 H 0.86533 0.70108 0.23909 0.0
H1219 H 0.83421 0.66966 0.26427 0.0
C1220 C 0.21643 0.19291 0.52222 0.0
C1221 C 0.26457 0.16623 0.52828 0.0
C1222 C 0.31087 0.21611 0.49532 0.0
C1223 C 0.26057 0.2316 0.48542 0.0
N1224 N 0.16427 0.23492 0.48938 0.0
N1225 N 0.36101 0.16604 0.52548 0.0
C1226 C 0.21294 0.22117 0.49912 0.0
C1227 C 0.31268 0.18249 0.5166 0.0
N1228 N 0.17487 0.19225 0.53868 0.0
N1229 N 0.35724 0.23219 0.48404 0.0
H1230 H 0.3655 0.14303 0.54175 0.0
H1231 H 0.3655 0.14303 0.54175 0.0
H1232 H 0.35794 0.25825 0.46868 0.0
H1233 H 0.39481 0.22048 0.49062 0.0
H1234 H 0.13999 0.21435 0.536 0.0
H1235 H 0.17864 0.17584 0.55659 0.0
H1236 H 0.12817 0.22265 0.49727 0.0
H1237 H 0.1598 0.25515 0.47238 0.0
C1238 C 0.61942 0.46389 0.75124 0.0
C1239 C 0.60686 0.51081 0.73729 0.0
C1240 C 0.64946 0.56705 0.76899 0.0
C1241 C 0.66909 0.51977 0.78047 0.0
N1242 N 0.64975 0.428 0.79111 0.0
N1243 N 0.59331 0.60668 0.73663 0.0
C1244 C 0.64618 0.46956 0.77451 0.0
C1245 C 0.61599 0.56251 0.74759 0.0
N1246 N 0.60858 0.41422 0.74168 0.0
N1247 N 0.66526 0.61577 0.77809 0.0
H1248 H 0.56841 0.604 0.72098 0.0
H1249 H 0.59584 0.64532 0.74388 0.0
H1250 H 0.68712 0.61887 0.79472 0.0
H1251 H 0.65743 0.65241 0.76939 0.0
H1252 H 0.62243 0.37871 0.74978 0.0
H1253 H 0.58824 0.40873 0.72481 0.0
H1254 H 0.63065 0.3912 0.78848 0.0
H1255 H 0.66588 0.43324 0.80896 0.0
C1256 C 0.71152 0.15639 0.023 0.0
C1257 C 0.75799 0.15145 1.00794 0.0
C1258 C 0.79982 0.22666 0.03001 0.0
C1259 C 0.75327 0.23095 0.04495 0.0
N1260 N 0.65965 0.21215 0.05079 0.0
N1261 N 0.84175 0.1873 0.99336 0.0
C1262 C 0.70718 0.20027 0.03952 0.0
C1263 C 0.80057 0.18881 1.0101 0.0
N1264 N 0.67391 0.1165 0.02345 0.0
N1265 N 0.84382 0.25696 0.03566 0.0
H1266 H 0.84293 0.15958 0.97878 0.0
H1267 H 0.87235 0.21568 0.99268 0.0
H1268 H 0.8434 0.28638 0.04952 0.0
H1269 H 0.88103 0.25184 0.02733 0.0
H1270 H 0.64314 0.11475 0.03656 0.0
H1271 H 0.67608 0.08242 1.01232 0.0
H1272 H 0.62355 0.19415 0.04574 0.0
H1273 H 0.65551 0.24377 0.0634 0.0
C1274 C 0.14384 0.58807 0.76344 0.0
C1275 C 0.17175 0.54059 0.75722 0.0
C1276 C 0.12517 0.49098 0.79033 0.0
C1277 C 0.10359 0.5403 0.79891 0.0
N1278 N 0.08868 0.63518 0.7937 0.0
N1279 N 0.18912 0.44595 0.76409 0.0
C1280 C 0.11123 0.58868 0.78525 0.0
C1281 C 0.16128 0.49143 0.76998 0.0
N1282 N 0.14904 0.63227 0.74835 0.0
N1283 N 0.11179 0.44358 0.80189 0.0
H1284 H 0.21168 0.44187 0.74792 0.0
H1285 H 0.19132 0.41218 0.77562 0.0
H1286 H 0.08996 0.44111 0.81843 0.0
H1287 H 0.11961 0.40594 0.79431 0.0
H1288 H 0.12753 0.66763 0.7506 0.0
H1289 H 0.17237 0.6318 0.73215 0.0
H1290 H 0.09648 0.67299 0.78616 0.0
H1291 H 0.06309 0.63614 0.8091 0.0
C1292 C 0.87806 0.95155 0.52671 0.0
C1293 C 0.83432 0.95008 0.50973 0.0
C1294 C 0.79966 0.86937 0.53036 0.0
C1295 C 0.84365 0.87134 0.54712 0.0
N1296 N 0.93281 0.90228 0.55619 0.0
N1297 N 0.76005 0.90237 0.49167 0.0
C1298 C 0.88587 0.90813 0.54334 0.0
C1299 C 0.79742 0.90685 0.5102 0.0
N1300 N 0.90932 0.99644 0.52863 0.0
N1301 N 0.75891 0.83381 0.53456 0.0
H1302 H 0.75754 0.92999 0.47698 0.0
H1303 H 0.73474 0.86936 0.48972 0.0
H1304 H 0.76029 0.80493 0.54876 0.0
H1305 H 0.7229 0.83441 0.52476 0.0
H1306 H 0.93754 1.00185 0.54278 0.0
H1307 H 0.90414 1.03028 0.51741 0.0
H1308 H 0.96676 0.92531 0.55243 0.0
H1309 H 0.93931 0.87071 0.56876 0.0
C1310 C 0.4775 0.62964 0.27608 0.0
C1311 C 0.48857 0.58492 0.29186 0.0
C1312 C 0.44578 0.52446 0.26195 0.0
C1313 C 0.42798 0.57014 0.24854 0.0
N1314 N 0.45109 0.65889 0.23448 0.0
N1315 N 0.49975 0.48913 0.29617 0.0
C1316 C 0.45221 0.62047 0.25274 0.0
C1317 C 0.47845 0.53182 0.28346 0.0
N1318 N 0.48785 0.68079 0.28396 0.0
N1319 N 0.42936 0.4747 0.25444 0.0
H1320 H 0.52428 0.49392 0.31184 0.0
H1321 H 0.49646 0.44942 0.29036 0.0
H1322 H 0.40858 0.46928 0.23765 0.0
H1323 H 0.43577 0.43948 0.26456 0.0
H1324 H 0.47499 0.71478 0.27423 0.0
H1325 H 0.50596 0.68936 0.30107 0.0
H1326 H 0.47134 0.6954 0.23592 0.0
H1327 H 0.43581 0.65088 0.21669 0.0
C1328 C 0.86769 0.42452 0.50373 0.0
C1329 C 0.82234 0.43232 0.51917 0.0
C1330 C 0.7744 0.3605 0.49725 0.0
C1331 C 0.81958 0.35335 0.48175 0.0
N1332 N 0.91444 0.36681 0.47504 0.0
N1333 N 0.73832 0.4002 0.53509 0.0
C1334 C 0.86816 0.38088 0.48689 0.0
C1335 C 0.77755 0.39751 0.51743 0.0
N1336 N 0.90817 0.46163 0.50324 0.0
N1337 N 0.72824 0.33321 0.4921 0.0
H1338 H 0.74148 0.4257 0.55043 0.0
H1339 H 0.70578 0.37411 0.5359 0.0
H1340 H 0.72607 0.30401 0.47816 0.0
H1341 H 0.69196 0.3407 0.50091 0.0
H1342 H 0.93855 0.46167 0.48992 0.0
H1343 H 0.90932 0.49537 0.51466 0.0
H1344 H 0.95182 0.3816 0.48028 0.0
H1345 H 0.91664 0.33687 0.46155 0.0
C1346 C 0.467 1.03623 0.74466 0.0
C1347 C 0.47306 0.08784 0.73371 0.0
C1348 C 0.42376 0.12763 0.76834 0.0
C1349 C 0.40545 0.07563 0.77488 0.0
N1350 N 0.4163 0.97995 0.77344 0.0
N1351 N 0.45949 0.18381 0.73522 0.0
C1352 C 0.43023 1.02967 0.76466 0.0
C1353 C 0.45314 0.13416 0.74587 0.0
N1354 N 0.49572 0.99392 0.73562 0.0
N1355 N 0.41272 0.17039 0.78336 0.0
H1356 H 0.48168 0.19023 0.71896 0.0
H1357 H 0.44001 0.21803 0.74164 0.0
H1358 H 0.39461 0.16582 0.80079 0.0
H1359 H 0.42759 0.20894 0.78013 0.0
H1360 H 0.496 0.9559 0.74381 0.0
H1361 H 0.52286 0.99813 0.72091 0.0
H1362 H 0.42787 0.94406 0.76514 0.0
H1363 H 0.39179 0.9751 0.7891 0.0
C1364 C 0.83695 0.68774 1.01295 0.0
C1365 C 0.78987 0.67295 0.02596 0.0
C1366 C 0.73569 0.72838 0.99843 0.0
C1367 C 0.78169 0.73855 0.98343 0.0
N1368 N 0.87771 0.74351 0.98066 0.0
N1369 N 0.70328 0.70236 0.03949 0.0
C1370 C 0.83313 0.72358 0.99221 0.0
C1371 C 0.74217 0.70149 0.02164 0.0
N1372 N 0.88461 0.6658 0.02008 0.0
N1373 N 0.68557 0.7404 0.98986 0.0
H1374 H 0.7093 0.68583 0.05724 0.0
H1375 H 0.66879 0.72554 0.03785 0.0
H1376 H 0.67807 0.75718 0.97231 0.0
H1377 H 0.65086 0.72908 0.99929 0.0
H1378 H 0.91986 0.66956 1.0099 0.0
H1379 H 0.88813 0.64288 0.03644 0.0
H1380 H 0.91649 0.73701 0.98706 0.0
H1381 H 0.87553 0.77041 0.96564 0.0
C1382 C 0.18745 0.96105 0.25323 0.0
C1383 C 0.18914 1.00782 0.26836 0.0
C1384 C 0.11293 1.04528 0.24552 0.0
C1385 C 0.1117 0.99826 0.2307 0.0
N1386 N 0.13511 0.90528 0.22546 0.0
N1387 N 0.14784 0.0893 0.2826 0.0
C1388 C 0.1443 0.95381 0.23657 0.0
C1389 C 0.1496 0.04816 0.26582 0.0
N1390 N 0.22964 0.92634 0.2527 0.0
N1391 N 0.0809 0.08778 0.2394 0.0
H1392 H 0.17419 0.09154 0.29766 0.0
H1393 H 0.11783 0.11819 0.28295 0.0
H1394 H 0.05228 0.08579 0.22519 0.0
H1395 H 0.08397 0.12549 0.24763 0.0
H1396 H 0.23309 0.89551 0.23966 0.0
H1397 H 0.26369 0.93126 0.26364 0.0
H1398 H 0.15495 0.87021 0.23077 0.0
H1399 H 0.10386 0.8992 0.2128 0.0
C1400 C 0.25141 0.74265 0.52381 0.0
C1401 C 0.29319 0.7492 0.54181 0.0
C1402 C 0.34994 0.68824 0.51785 0.0
C1403 C 0.30564 0.67732 0.50213 0.0
N1404 N 0.23051 0.71744 0.48116 0.0
N1405 N 0.3874 0.74425 0.5508 0.0
C1406 C 0.26206 0.71294 0.50191 0.0
C1407 C 0.3446 0.72763 0.53691 0.0
N1408 N 0.20042 0.75954 0.52841 0.0
N1409 N 0.39609 0.65987 0.51486 0.0
H1410 H 0.38381 0.77371 0.56456 0.0
H1411 H 0.4266 0.73248 0.54738 0.0
H1412 H 0.40186 0.6347 0.49951 0.0
H1413 H 0.42799 0.66101 0.52739 0.0
H1414 H 0.16844 0.75027 0.51663 0.0
H1415 H 0.18844 0.77798 0.54488 0.0
H1416 H 0.1998 0.74555 0.47969 0.0
H1417 H 0.24024 0.69838 0.46442 0.0
C1418 C 0.6869 0.97082 0.27489 0.0
C1419 C 0.69077 1.01666 0.25906 0.0
C1420 C 0.61941 0.06095 0.28234 0.0
C1421 C 0.61662 1.0153 0.29825 0.0
N1422 N 0.63485 0.92136 0.30535 0.0
N1423 N 0.65488 0.10027 0.244 0.0
C1424 C 0.64573 0.96822 0.29286 0.0
C1425 C 0.65465 0.06002 0.26148 0.0
N1426 N 0.72549 0.93211 0.27452 0.0
N1427 N 0.59 0.10557 0.28784 0.0
H1428 H 0.68053 0.09993 0.22861 0.0
H1429 H 0.62737 0.13156 0.24358 0.0
H1430 H 0.5625 0.10638 0.30251 0.0
H1431 H 0.59404 0.14224 0.27859 0.0
H1432 H 0.72863 0.90188 0.28799 0.0
H1433 H 0.75741 0.93279 0.26211 0.0
H1434 H 0.65114 0.88447 0.30028 0.0
H1435 H 0.60569 0.91834 0.31922 0.0
C1436 C 0.27067 0.40983 1.01299 0.0
C1437 C 0.31658 0.42806 1.00001 0.0
C1438 C 0.37424 0.37303 0.02642 0.0
C1439 C 0.32927 0.36029 0.04154 0.0
N1440 N 0.2337 0.35101 0.04511 0.0
N1441 N 0.40527 0.40605 0.98616 0.0
C1442 C 0.2769 0.37329 0.03331 0.0
C1443 C 0.3662 0.4023 1.00387 0.0
N1444 N 0.22171 0.42944 1.00629 0.0
N1445 N 0.42468 0.36031 0.03428 0.0
H1446 H 0.39844 0.42399 0.96878 0.0
H1447 H 0.44139 0.38544 0.98733 0.0
H1448 H 0.43238 0.3392 0.05079 0.0
H1449 H 0.45911 0.37384 0.02527 0.0
H1450 H 0.18682 0.42302 0.01646 0.0
H1451 H 0.21661 0.45315 0.99027 0.0
H1452 H 0.19438 0.35607 0.03919 0.0
H1453 H 0.23765 0.32375 0.05991 0.0
C1454 C 0.92695 1.01478 0.76301 0.0
C1455 C 0.91187 0.06187 0.74992 0.0
C1456 C 0.96523 0.11734 0.7776 0.0
C1457 C 0.97416 0.07156 0.79303 0.0
N1458 N 0.98065 0.97506 0.79624 0.0
N1459 N 0.94166 0.14859 0.736 0.0
C1460 C 0.96083 1.01942 0.78427 0.0
C1461 C 0.93956 0.11021 0.75423 0.0
N1462 N 0.90705 0.96638 0.75542 0.0
N1463 N 0.97786 0.16774 0.78579 0.0
H1464 H 0.92557 0.14201 0.71824 0.0
H1465 H 0.96539 0.18293 0.73748 0.0
H1466 H 0.99548 0.17512 0.80314 0.0
H1467 H 0.96684 0.20248 0.77611 0.0
H1468 H 0.91124 0.93071 0.76546 0.0
H1469 H 0.88554 0.96267 0.73872 0.0
H1470 H 0.9753 0.93595 0.78989 0.0
H1471 H 1.00621 0.97773 0.81165 0.0
loop_
_geom_bond_atom_site_label_1
_geom_bond_atom_site_label_2
_geom_bond_distance
_geom_bond_site_symmetry_2
_ccdc_geom_bond_type
O0 Tb1 2.292 1_556 S
O0 C3 1.255 . S
Tb1 O0 2.292 1_554 S
Tb1 O17 2.326 . S
Tb1 O19 2.500 1_544 S
Tb1 O20 2.473 1_545 S
Tb1 O23 2.324 . S
Eu2 O6 2.292 . S
Eu2 C7 2.852 . S
Eu2 O18 2.324 . S
Eu2 O22 2.326 . S
Eu2 O24 2.500 . S
Eu2 O25 2.473 . S
C3 O0 1.255 . S
C3 O4 1.247 . S
O4 C3 1.247 . S
C5 O17 1.242 . S
C5 O18 1.258 . S
O6 Eu2 2.292 . S
O6 C8 1.255 . S
C7 Eu2 2.852 . S
C7 C11 1.503 . S
C7 O24 1.273 . S
C7 O25 1.257 . S
C8 O6 1.255 . S
C8 O9 1.256 . S
O9 C8 1.256 . S
C10 O22 1.242 . S
C10 O23 1.258 . S
C11 C7 1.503 . S
C11 C12 1.379 . S
C11 C16 1.392 . S
C12 C11 1.379 . S
C12 C13 1.404 . S
C12 H26 0.929 . S
C13 C12 1.404 . S
C13 C14 1.389 . S
C14 C13 1.389 . S
C14 C15 1.399 . S
C14 H27 0.931 . S
C15 C14 1.399 . S
C15 C16 1.390 . S
C16 C11 1.392 . S
C16 C15 1.390 . S
C16 H28 0.929 . S
O17 Tb1 2.326 . S
O17 C5 1.242 . S
O18 Eu2 2.324 . S
O18 C5 1.258 . S
O19 Tb1 2.500 1_566 S
O19 C21 1.273 1_556 S
O20 Tb1 2.473 1_565 S
O20 C21 1.257 . S
C21 O19 1.273 1_554 S
C21 O20 1.257 . S
O22 Eu2 2.326 . S
O22 C10 1.242 . S
O23 Tb1 2.324 . S
O23 C10 1.258 . S
O24 Eu2 2.500 . S
O24 C7 1.273 . S
O25 Eu2 2.473 . S
O25 C7 1.257 . S
H26 C12 0.929 . S
H27 C14 0.931 . S
H28 C16 0.929 . S
O29 Tb30 2.292 . S
O29 C32 1.255 . S
Tb30 O29 2.292 . S
Tb30 O46 2.326 . S
Tb30 O48 2.500 . S
Tb30 O49 2.473 . S
Tb30 O52 2.324 . S
Eu31 O35 2.292 . S
Eu31 C36 2.852 . S
Eu31 O47 2.324 . S
Eu31 O51 2.326 . S
Eu31 O53 2.500 . S
Eu31 O54 2.473 . S
C32 O29 1.255 . S
C32 O33 1.247 . S
O33 C32 1.247 . S
C34 O46 1.242 . S
C34 O47 1.258 . S
O35 Eu31 2.292 . S
O35 C37 1.255 . S
C36 Eu31 2.852 . S
C36 C40 1.503 . S
C36 O53 1.273 . S
C36 O54 1.257 . S
C37 O35 1.255 . S
C37 O38 1.247 . S
O38 C37 1.247 . S
C39 O51 1.242 . S
C39 O52 1.258 . S
C40 C36 1.503 . S
C40 C41 1.379 . S
C40 C45 1.392 . S
C41 C40 1.379 . S
C41 C42 1.404 . S
C41 H55 0.929 . S
C42 C41 1.404 . S
C42 C43 1.389 . S
C43 C42 1.389 . S
C43 C44 1.399 . S
C43 H56 0.931 . S
C44 C43 1.399 . S
C44 C45 1.390 . S
C45 C40 1.392 . S
C45 C44 1.390 . S
C45 H57 0.929 . S
O46 Tb30 2.326 . S
O46 C34 1.242 . S
O47 Eu31 2.324 . S
O47 C34 1.258 . S
O48 Tb30 2.500 . S
O48 C50 1.273 . S
O49 Tb30 2.473 . S
O49 C50 1.257 . S
C50 O48 1.273 . S
C50 O49 1.257 . S
O51 Eu31 2.326 . S
O51 C39 1.242 . S
O52 Tb30 2.324 . S
O52 C39 1.258 . S
O53 Eu31 2.500 . S
O53 C36 1.273 . S
O54 Eu31 2.473 . S
O54 C36 1.257 . S
H55 C41 0.929 . S
H56 C43 0.931 . S
H57 C45 0.929 . S
O58 Tb59 2.292 . S
O58 C61 1.255 . S
Tb59 O58 2.292 . S
Tb59 O75 2.326 . S
Tb59 O77 2.500 1_565 S
Tb59 O78 2.473 1_565 S
Tb59 O81 2.324 . S
Eu60 O64 2.292 . S
Eu60 C65 2.852 . S
Eu60 O76 2.324 . S
Eu60 O80 2.326 . S
Eu60 O82 2.500 . S
Eu60 O83 2.473 . S
C61 O58 1.255 . S
C61 O62 1.247 . S
O62 C61 1.247 . S
C63 O75 1.242 . S
C63 O76 1.258 . S
O64 Eu60 2.292 . S
O64 C66 1.255 . S
C65 Eu60 2.852 . S
C65 C69 1.503 . S
C65 O82 1.273 . S
C65 O83 1.257 . S
C66 O64 1.255 . S
C66 O67 1.256 . S
O67 C66 1.256 . S
C68 O80 1.242 . S
C68 O81 1.258 . S
C69 C65 1.503 . S
C69 C70 1.379 . S
C69 C74 1.392 . S
C70 C69 1.379 . S
C70 C71 1.404 . S
C70 H84 0.929 . S
C71 C70 1.404 . S
C71 C72 1.389 . S
C72 C71 1.389 . S
C72 C73 1.399 . S
C72 H85 0.931 . S
C73 C72 1.399 . S
C73 C74 1.390 . S
C74 C69 1.392 . S
C74 C73 1.390 . S
C74 H86 0.929 . S
O75 Tb59 2.326 . S
O75 C63 1.242 . S
O76 Eu60 2.324 . S
O76 C63 1.258 . S
O77 Tb59 2.500 1_545 S
O77 C79 1.273 . S
O78 Tb59 2.473 1_545 S
O78 C79 1.257 . S
C79 O77 1.273 . S
C79 O78 1.257 . S
O80 Eu60 2.326 . S
O80 C68 1.242 . S
O81 Tb59 2.324 . S
O81 C68 1.258 . S
O82 Eu60 2.500 . S
O82 C65 1.273 . S
O83 Eu60 2.473 . S
O83 C65 1.257 . S
H84 C70 0.929 . S
H85 C72 0.931 . S
H86 C74 0.929 . S
O87 Tb88 2.292 . S
O87 C90 1.255 . S
Tb88 O87 2.292 . S
Tb88 O104 2.326 . S
Tb88 O106 2.500 . S
Tb88 O107 2.473 . S
Tb88 O110 2.324 . S
Eu89 O93 2.292 . S
Eu89 C94 2.852 . S
Eu89 O105 2.324 . S
Eu89 O109 2.326 . S
Eu89 O111 2.500 . S
Eu89 O112 2.473 . S
C90 O87 1.255 . S
C90 O91 1.247 . S
O91 C90 1.247 . S
C92 O104 1.242 . S
C92 O105 1.258 . S
O93 Eu89 2.292 . S
O93 C95 1.255 . S
C94 Eu89 2.852 . S
C94 C98 1.503 . S
C94 O111 1.273 . S
C94 O112 1.257 . S
C95 O93 1.255 . S
C95 O96 1.247 . S
O96 C95 1.247 . S
C97 O109 1.242 . S
C97 O110 1.258 . S
C98 C94 1.503 . S
C98 C99 1.379 1_655 S
C98 C103 1.392 1_655 S
C99 C98 1.379 1_455 S
C99 C100 1.404 . S
C99 H113 0.929 1_455 S
C100 C99 1.404 . S
C100 C101 1.389 . S
C101 C100 1.389 . S
C101 C102 1.399 . S
C101 H114 0.931 . S
C102 C101 1.399 . S
C102 C103 1.390 . S
C103 C98 1.392 1_455 S
C103 C102 1.390 . S
C103 H115 0.929 . S
O104 Tb88 2.326 . S
O104 C92 1.242 . S
O105 Eu89 2.324 . S
O105 C92 1.258 . S
O106 Tb88 2.500 . S
O106 C108 1.273 . S
O107 Tb88 2.473 . S
O107 C108 1.257 . S
C108 O106 1.273 . S
C108 O107 1.257 . S
O109 Eu89 2.326 . S
O109 C97 1.242 . S
O110 Tb88 2.324 . S
O110 C97 1.258 . S
O111 Eu89 2.500 . S
O111 C94 1.273 . S
O112 Eu89 2.473 . S
O112 C94 1.257 . S
H113 C99 0.929 1_655 S
H114 C101 0.931 . S
H115 C103 0.929 . S
O116 Tb117 2.292 1_554 S
O116 C119 1.255 . S
Tb117 O116 2.292 1_556 S
Tb117 O133 2.326 . S
Tb117 O135 2.500 1_566 S
Tb117 O136 2.473 1_565 S
Tb117 O139 2.324 . S
Eu118 O122 2.292 . S
Eu118 C123 2.852 . S
Eu118 O134 2.324 . S
Eu118 O138 2.326 . S
Eu118 O140 2.500 . S
Eu118 O141 2.473 . S
C119 O116 1.255 . S
C119 O120 1.247 . S
O120 C119 1.247 . S
C121 O133 1.242 . S
C121 O134 1.258 . S
O122 Eu118 2.292 . S
O122 C124 1.255 . S
C123 Eu118 2.852 . S
C123 C127 1.503 . S
C123 O140 1.273 . S
C123 O141 1.257 . S
C124 O122 1.255 . S
C124 O125 1.256 . S
O125 C124 1.256 . S
C126 O138 1.242 . S
C126 O139 1.258 . S
C127 C123 1.503 . S
C127 C128 1.379 . S
C127 C132 1.392 . S
C128 C127 1.379 . S
C128 C129 1.404 . S
C128 H142 0.929 . S
C129 C128 1.404 . S
C129 C130 1.389 . S
C130 C129 1.389 . S
C130 C131 1.399 . S
C130 H143 0.931 . S
C131 C130 1.399 . S
C131 C132 1.390 . S
C132 C127 1.392 . S
C132 C131 1.390 . S
C132 H144 0.929 . S
O133 Tb117 2.326 . S
O133 C121 1.242 . S
O134 Eu118 2.324 . S
O134 C121 1.258 . S
O135 Tb117 2.500 1_544 S
O135 C137 1.273 1_554 S
O136 Tb117 2.473 1_545 S
O136 C137 1.257 . S
C137 O135 1.273 1_556 S
C137 O136 1.257 . S
O138 Eu118 2.326 . S
O138 C126 1.242 . S
O139 Tb117 2.324 . S
O139 C126 1.258 . S
O140 Eu118 2.500 . S
O140 C123 1.273 . S
O141 Eu118 2.473 . S
O141 C123 1.257 . S
H142 C128 0.929 . S
H143 C130 0.931 . S
H144 C132 0.929 . S
O145 Tb146 2.292 . S
O145 C148 1.255 . S
Tb146 O145 2.292 . S
Tb146 O162 2.326 . S
Tb146 O164 2.500 . S
Tb146 O165 2.473 . S
Tb146 O168 2.324 . S
Eu147 O151 2.292 . S
Eu147 C152 2.852 . S
Eu147 O163 2.324 . S
Eu147 O167 2.326 . S
Eu147 O169 2.500 . S
Eu147 O170 2.473 . S
C148 O145 1.255 . S
C148 O149 1.247 . S
O149 C148 1.247 . S
C150 O162 1.242 . S
C150 O163 1.258 . S
O151 Eu147 2.292 . S
O151 C153 1.255 . S
C152 Eu147 2.852 . S
C152 C156 1.503 . S
C152 O169 1.273 . S
C152 O170 1.257 . S
C153 O151 1.255 . S
C153 O154 1.247 . S
O154 C153 1.247 . S
C155 O167 1.242 . S
C155 O168 1.258 . S
C156 C152 1.503 . S
C156 C157 1.379 . S
C156 C161 1.392 . S
C157 C156 1.379 . S
C157 C158 1.404 . S
C157 H171 0.929 . S
C158 C157 1.404 . S
C158 C159 1.389 . S
C159 C158 1.389 . S
C159 C160 1.399 . S
C159 H172 0.931 . S
C160 C159 1.399 . S
C160 C161 1.390 . S
C161 C156 1.392 . S
C161 C160 1.390 . S
C161 H173 0.929 . S
O162 Tb146 2.326 . S
O162 C150 1.242 . S
O163 Eu147 2.324 . S
O163 C150 1.258 . S
O164 Tb146 2.500 . S
O164 C166 1.273 . S
O165 Tb146 2.473 . S
O165 C166 1.257 . S
C166 O164 1.273 . S
C166 O165 1.257 . S
O167 Eu147 2.326 . S
O167 C155 1.242 . S
O168 Tb146 2.324 . S
O168 C155 1.258 . S
O169 Eu147 2.500 . S
O169 C152 1.273 . S
O170 Eu147 2.473 . S
O170 C152 1.257 . S
H171 C157 0.929 . S
H172 C159 0.931 . S
H173 C161 0.929 . S
O174 Tb175 2.292 . S
O174 C177 1.255 . S
Tb175 O174 2.292 . S
Tb175 O191 2.326 . S
Tb175 O193 2.500 1_545 S
Tb175 O194 2.473 1_545 S
Tb175 O197 2.324 . S
Eu176 O180 2.292 . S
Eu176 C181 2.852 . S
Eu176 O192 2.324 . S
Eu176 O196 2.326 . S
Eu176 O198 2.500 . S
Eu176 O199 2.473 . S
C177 O174 1.255 . S
C177 O178 1.247 . S
O178 C177 1.247 . S
C179 O191 1.242 . S
C179 O192 1.258 . S
O180 Eu176 2.292 . S
O180 C182 1.255 . S
C181 Eu176 2.852 . S
C181 C185 1.503 . S
C181 O198 1.273 . S
C181 O199 1.257 . S
C182 O180 1.255 . S
C182 O183 1.256 . S
O183 C182 1.256 . S
C184 O196 1.242 . S
C184 O197 1.258 . S
C185 C181 1.503 . S
C185 C186 1.379 . S
C185 C190 1.392 . S
C186 C185 1.379 . S
C186 C187 1.404 . S
C186 H200 0.929 . S
C187 C186 1.404 . S
C187 C188 1.389 . S
C188 C187 1.389 . S
C188 C189 1.399 . S
C188 H201 0.931 . S
C189 C188 1.399 . S
C189 C190 1.390 . S
C190 C185 1.392 . S
C190 C189 1.390 . S
C190 H202 0.929 . S
O191 Tb175 2.326 . S
O191 C179 1.242 . S
O192 Eu176 2.324 . S
O192 C179 1.258 . S
O193 Tb175 2.500 1_565 S
O193 C195 1.273 . S
O194 Tb175 2.473 1_565 S
O194 C195 1.257 . S
C195 O193 1.273 . S
C195 O194 1.257 . S
O196 Eu176 2.326 . S
O196 C184 1.242 . S
O197 Tb175 2.324 . S
O197 C184 1.258 . S
O198 Eu176 2.500 . S
O198 C181 1.273 . S
O199 Eu176 2.473 . S
O199 C181 1.257 . S
H200 C186 0.929 . S
H201 C188 0.931 . S
H202 C190 0.929 . S
O203 Tb204 2.292 . S
O203 C206 1.255 . S
Tb204 O203 2.292 . S
Tb204 O220 2.326 . S
Tb204 O222 2.500 . S
Tb204 O223 2.473 . S
Tb204 O226 2.324 . S
Eu205 O209 2.292 . S
Eu205 C210 2.852 . S
Eu205 O221 2.324 . S
Eu205 O225 2.326 . S
Eu205 O227 2.500 . S
Eu205 O228 2.473 . S
C206 O203 1.255 . S
C206 O207 1.247 . S
O207 C206 1.247 . S
C208 O220 1.242 . S
C208 O221 1.258 . S
O209 Eu205 2.292 . S
O209 C211 1.255 . S
C210 Eu205 2.852 . S
C210 C214 1.503 . S
C210 O227 1.273 . S
C210 O228 1.257 . S
C211 O209 1.255 . S
C211 O212 1.247 . S
O212 C211 1.247 . S
C213 O225 1.242 . S
C213 O226 1.258 . S
C214 C210 1.503 . S
C214 C215 1.379 1_455 S
C214 C219 1.392 1_455 S
C215 C214 1.379 1_655 S
C215 C216 1.404 . S
C215 H229 0.929 1_655 S
C216 C215 1.404 . S
C216 C217 1.389 . S
C217 C216 1.389 . S
C217 C218 1.399 . S
C217 H230 0.931 . S
C218 C217 1.399 . S
C218 C219 1.390 . S
C219 C214 1.392 1_655 S
C219 C218 1.390 . S
C219 H231 0.929 . S
O220 Tb204 2.326 . S
O220 C208 1.242 . S
O221 Eu205 2.324 . S
O221 C208 1.258 . S
O222 Tb204 2.500 . S
O222 C224 1.273 . S
O223 Tb204 2.473 . S
O223 C224 1.257 . S
C224 O222 1.273 . S
C224 O223 1.257 . S
O225 Eu205 2.326 . S
O225 C213 1.242 . S
O226 Tb204 2.324 . S
O226 C213 1.258 . S
O227 Eu205 2.500 . S
O227 C210 1.273 . S
O228 Eu205 2.473 . S
O228 C210 1.257 . S
H229 C215 0.929 1_455 S
H230 C217 0.931 . S
H231 C219 0.929 . S
O232 Tb233 2.292 . S
O232 C235 1.255 . S
Tb233 O232 2.292 . S
Tb233 O249 2.326 . S
Tb233 O251 2.500 . S
Tb233 O252 2.473 . S
Tb233 O255 2.324 . S
Eu234 O238 2.292 . S
Eu234 C239 2.852 . S
Eu234 O250 2.324 . S
Eu234 O254 2.326 . S
Eu234 O256 2.500 . S
Eu234 O257 2.473 . S
C235 O232 1.255 . S
C235 O236 1.247 . S
O236 C235 1.247 . S
C237 O249 1.242 . S
C237 O250 1.258 . S
O238 Eu234 2.292 . S
O238 C240 1.255 . S
C239 Eu234 2.852 . S
C239 C243 1.503 . S
C239 O256 1.273 . S
C239 O257 1.257 . S
C240 O238 1.255 . S
C240 O241 1.247 . S
O241 C240 1.247 . S
C242 O254 1.242 . S
C242 O255 1.258 . S
C243 C239 1.503 . S
C243 C244 1.379 . S
C243 C248 1.392 . S
C244 C243 1.379 . S
C244 C245 1.404 . S
C244 H258 0.929 . S
C245 C244 1.404 . S
C245 C246 1.389 . S
C246 C245 1.389 . S
C246 C247 1.399 . S
C246 H259 0.931 . S
C247 C246 1.399 . S
C247 C248 1.390 . S
C248 C243 1.392 . S
C248 C247 1.390 . S
C248 H260 0.929 . S
O249 Tb233 2.326 . S
O249 C237 1.242 . S
O250 Eu234 2.324 . S
O250 C237 1.258 . S
O251 Tb233 2.500 . S
O251 C253 1.273 . S
O252 Tb233 2.473 . S
O252 C253 1.257 . S
C253 O251 1.273 . S
C253 O252 1.257 . S
O254 Eu234 2.326 . S
O254 C242 1.242 . S
O255 Tb233 2.324 . S
O255 C242 1.258 . S
O256 Eu234 2.500 . S
O256 C239 1.273 . S
O257 Eu234 2.473 . S
O257 C239 1.257 . S
H258 C244 0.929 . S
H259 C246 0.931 . S
H260 C248 0.929 . S
O261 Tb262 2.292 . S
O261 C264 1.255 . S
Tb262 O261 2.292 . S
Tb262 O278 2.326 . S
Tb262 O280 2.500 . S
Tb262 O281 2.473 . S
Tb262 O284 2.324 1_545 S
Eu263 O267 2.292 . S
Eu263 C268 2.852 . S
Eu263 O279 2.324 . S
Eu263 O283 2.326 . S
Eu263 O285 2.500 . S
Eu263 O286 2.473 . S
C264 O261 1.255 . S
C264 O265 1.247 . S
O265 C264 1.247 . S
C266 O278 1.242 . S
C266 O279 1.258 . S
O267 Eu263 2.292 . S
O267 C269 1.255 . S
C268 Eu263 2.852 . S
C268 C272 1.503 . S
C268 O285 1.273 . S
C268 O286 1.257 . S
C269 O267 1.255 . S
C269 O270 1.247 . S
O270 C269 1.247 . S
C271 O283 1.242 1_565 S
C271 O284 1.258 . S
C272 C268 1.503 . S
C272 C273 1.379 1_455 S
C272 C277 1.392 1_455 S
C273 C272 1.379 1_655 S
C273 C274 1.404 . S
C273 H287 0.929 1_655 S
C274 C273 1.404 . S
C274 C275 1.389 . S
C275 C274 1.389 . S
C275 C276 1.399 . S
C275 H288 0.931 . S
C276 C275 1.399 . S
C276 C277 1.390 . S
C277 C272 1.392 1_655 S
C277 C276 1.390 . S
C277 H289 0.929 . S
O278 Tb262 2.326 . S
O278 C266 1.242 . S
O279 Eu263 2.324 . S
O279 C266 1.258 . S
O280 Tb262 2.500 . S
O280 C282 1.273 . S
O281 Tb262 2.473 . S
O281 C282 1.257 . S
C282 O280 1.273 . S
C282 O281 1.257 . S
O283 Eu263 2.326 . S
O283 C271 1.242 1_545 S
O284 Tb262 2.324 1_565 S
O284 C271 1.258 . S
O285 Eu263 2.500 . S
O285 C268 1.273 . S
O286 Eu263 2.473 . S
O286 C268 1.257 . S
H287 C273 0.929 1_455 S
H288 C275 0.931 . S
H289 C277 0.929 . S
O290 Tb291 2.292 1_556 S
O290 C293 1.255 . S
Tb291 O290 2.292 1_554 S
Tb291 O307 2.326 . S
Tb291 O309 2.500 1_554 S
Tb291 O310 2.473 . S
Tb291 O313 2.324 . S
Eu292 O296 2.292 . S
Eu292 C297 2.852 . S
Eu292 O308 2.324 . S
Eu292 O312 2.326 . S
Eu292 O314 2.500 . S
Eu292 O315 2.473 . S
C293 O290 1.255 . S
C293 O294 1.247 . S
O294 C293 1.247 . S
C295 O307 1.242 . S
C295 O308 1.258 . S
O296 Eu292 2.292 . S
O296 C298 1.255 . S
C297 Eu292 2.852 . S
C297 C301 1.503 . S
C297 O314 1.273 . S
C297 O315 1.257 . S
C298 O296 1.255 . S
C298 O299 1.247 . S
O299 C298 1.247 . S
C300 O312 1.242 . S
C300 O313 1.258 . S
C301 C297 1.503 . S
C301 C302 1.379 . S
C301 C306 1.392 . S
C302 C301 1.379 . S
C302 C303 1.404 . S
C302 H316 0.929 . S
C303 C302 1.404 . S
C303 C304 1.389 . S
C304 C303 1.389 . S
C304 C305 1.399 . S
C304 H317 0.931 . S
C305 C304 1.399 . S
C305 C306 1.390 . S
C306 C301 1.392 . S
C306 C305 1.390 . S
C306 H318 0.929 . S
O307 Tb291 2.326 . S
O307 C295 1.242 . S
O308 Eu292 2.324 . S
O308 C295 1.258 . S
O309 Tb291 2.500 1_556 S
O309 C311 1.273 1_556 S
O310 Tb291 2.473 . S
O310 C311 1.257 . S
C311 O309 1.273 1_554 S
C311 O310 1.257 . S
O312 Eu292 2.326 . S
O312 C300 1.242 . S
O313 Tb291 2.324 . S
O313 C300 1.258 . S
O314 Eu292 2.500 . S
O314 C297 1.273 . S
O315 Eu292 2.473 . S
O315 C297 1.257 . S
H316 C302 0.929 . S
H317 C304 0.931 . S
H318 C306 0.929 . S
O319 Tb320 2.292 . S
O319 C322 1.255 . S
Tb320 O319 2.292 . S
Tb320 O336 2.326 . S
Tb320 O338 2.500 . S
Tb320 O339 2.473 . S
Tb320 O342 2.324 1_565 S
Eu321 O325 2.292 . S
Eu321 C326 2.852 . S
Eu321 O337 2.324 . S
Eu321 O341 2.326 . S
Eu321 O343 2.500 . S
Eu321 O344 2.473 . S
C322 O319 1.255 . S
C322 O323 1.247 . S
O323 C322 1.247 . S
C324 O336 1.242 . S
C324 O337 1.258 . S
O325 Eu321 2.292 . S
O325 C327 1.255 . S
C326 Eu321 2.852 . S
C326 C330 1.503 . S
C326 O343 1.273 . S
C326 O344 1.257 . S
C327 O325 1.255 . S
C327 O328 1.247 . S
O328 C327 1.247 . S
C329 O341 1.242 1_545 S
C329 O342 1.258 . S
C330 C326 1.503 . S
C330 C331 1.379 . S
C330 C335 1.392 . S
C331 C330 1.379 . S
C331 C332 1.404 . S
C331 H345 0.929 . S
C332 C331 1.404 . S
C332 C333 1.389 . S
C333 C332 1.389 . S
C333 C334 1.399 . S
C333 H346 0.931 . S
C334 C333 1.399 . S
C334 C335 1.390 . S
C335 C330 1.392 . S
C335 C334 1.390 . S
C335 H347 0.929 . S
O336 Tb320 2.326 . S
O336 C324 1.242 . S
O337 Eu321 2.324 . S
O337 C324 1.258 . S
O338 Tb320 2.500 . S
O338 C340 1.273 . S
O339 Tb320 2.473 . S
O339 C340 1.257 . S
C340 O338 1.273 . S
C340 O339 1.257 . S
O341 Eu321 2.326 . S
O341 C329 1.242 1_565 S
O342 Tb320 2.324 1_545 S
O342 C329 1.258 . S
O343 Eu321 2.500 . S
O343 C326 1.273 . S
O344 Eu321 2.473 . S
O344 C326 1.257 . S
H345 C331 0.929 . S
H346 C333 0.931 . S
H347 C335 0.929 . S
O348 Tb349 2.292 . S
O348 C351 1.255 . S
Tb349 O348 2.292 . S
Tb349 O365 2.326 . S
Tb349 O367 2.500 . S
Tb349 O368 2.473 . S
Tb349 O371 2.324 . S
Eu350 O354 2.292 . S
Eu350 C355 2.852 . S
Eu350 O366 2.324 . S
Eu350 O370 2.326 . S
Eu350 O372 2.500 . S
Eu350 O373 2.473 . S
C351 O348 1.255 . S
C351 O352 1.247 . S
O352 C351 1.247 . S
C353 O365 1.242 . S
C353 O366 1.258 . S
O354 Eu350 2.292 . S
O354 C356 1.255 . S
C355 Eu350 2.852 . S
C355 C359 1.503 . S
C355 O372 1.273 . S
C355 O373 1.257 . S
C356 O354 1.255 . S
C356 O357 1.247 . S
O357 C356 1.247 . S
C358 O370 1.242 . S
C358 O371 1.258 . S
C359 C355 1.503 . S
C359 C360 1.379 . S
C359 C364 1.392 . S
C360 C359 1.379 . S
C360 C361 1.404 . S
C360 H374 0.929 . S
C361 C360 1.404 . S
C361 C362 1.389 . S
C362 C361 1.389 . S
C362 C363 1.399 . S
C362 H375 0.931 . S
C363 C362 1.399 . S
C363 C364 1.390 . S
C364 C359 1.392 . S
C364 C363 1.390 . S
C364 H376 0.929 . S
O365 Tb349 2.326 . S
O365 C353 1.242 . S
O366 Eu350 2.324 . S
O366 C353 1.258 . S
O367 Tb349 2.500 . S
O367 C369 1.273 . S
O368 Tb349 2.473 . S
O368 C369 1.257 . S
C369 O367 1.273 . S
C369 O368 1.257 . S
O370 Eu350 2.326 . S
O370 C358 1.242 . S
O371 Tb349 2.324 . S
O371 C358 1.258 . S
O372 Eu350 2.500 . S
O372 C355 1.273 . S
O373 Eu350 2.473 . S
O373 C355 1.257 . S
H374 C360 0.929 . S
H375 C362 0.931 . S
H376 C364 0.929 . S
O377 Tb378 2.292 . S
O377 C380 1.255 . S
Tb378 O377 2.292 . S
Tb378 O394 2.326 . S
Tb378 O396 2.500 . S
Tb378 O397 2.473 . S
Tb378 O400 2.324 1_565 S
Eu379 O383 2.292 . S
Eu379 C384 2.852 . S
Eu379 O395 2.324 . S
Eu379 O399 2.326 . S
Eu379 O401 2.500 . S
Eu379 O402 2.473 . S
C380 O377 1.255 . S
C380 O381 1.247 . S
O381 C380 1.247 . S
C382 O394 1.242 . S
C382 O395 1.258 . S
O383 Eu379 2.292 . S
O383 C385 1.255 . S
C384 Eu379 2.852 . S
C384 C388 1.503 . S
C384 O401 1.273 . S
C384 O402 1.257 . S
C385 O383 1.255 . S
C385 O386 1.247 . S
O386 C385 1.247 . S
C387 O399 1.242 1_545 S
C387 O400 1.258 . S
C388 C384 1.503 . S
C388 C389 1.379 1_655 S
C388 C393 1.392 1_655 S
C389 C388 1.379 1_455 S
C389 C390 1.404 . S
C389 H403 0.929 1_455 S
C390 C389 1.404 . S
C390 C391 1.389 . S
C391 C390 1.389 . S
C391 C392 1.399 . S
C391 H404 0.931 . S
C392 C391 1.399 . S
C392 C393 1.390 . S
C393 C388 1.392 1_455 S
C393 C392 1.390 . S
C393 H405 0.929 . S
O394 Tb378 2.326 . S
O394 C382 1.242 . S
O395 Eu379 2.324 . S
O395 C382 1.258 . S
O396 Tb378 2.500 . S
O396 C398 1.273 . S
O397 Tb378 2.473 . S
O397 C398 1.257 . S
C398 O396 1.273 . S
C398 O397 1.257 . S
O399 Eu379 2.326 . S
O399 C387 1.242 1_565 S
O400 Tb378 2.324 1_545 S
O400 C387 1.258 . S
O401 Eu379 2.500 . S
O401 C384 1.273 . S
O402 Eu379 2.473 . S
O402 C384 1.257 . S
H403 C389 0.929 1_655 S
H404 C391 0.931 . S
H405 C393 0.929 . S
O406 Tb407 2.292 1_554 S
O406 C409 1.255 . S
Tb407 O406 2.292 1_556 S
Tb407 O423 2.326 . S
Tb407 O425 2.500 1_556 S
Tb407 O426 2.473 . S
Tb407 O429 2.324 . S
Eu408 O412 2.292 . S
Eu408 C413 2.852 . S
Eu408 O424 2.324 . S
Eu408 O428 2.326 . S
Eu408 O430 2.500 . S
Eu408 O431 2.473 . S
C409 O406 1.255 . S
C409 O410 1.247 . S
O410 C409 1.247 . S
C411 O423 1.242 . S
C411 O424 1.258 . S
O412 Eu408 2.292 . S
O412 C414 1.255 . S
C413 Eu408 2.852 . S
C413 C417 1.503 . S
C413 O430 1.273 . S
C413 O431 1.257 . S
C414 O412 1.255 . S
C414 O415 1.247 . S
O415 C414 1.247 . S
C416 O428 1.242 . S
C416 O429 1.258 . S
C417 C413 1.503 . S
C417 C418 1.379 . S
C417 C422 1.392 . S
C418 C417 1.379 . S
C418 C419 1.404 . S
C418 H432 0.929 . S
C419 C418 1.404 . S
C419 C420 1.389 . S
C420 C419 1.389 . S
C420 C421 1.399 . S
C420 H433 0.931 . S
C421 C420 1.399 . S
C421 C422 1.390 . S
C422 C417 1.392 . S
C422 C421 1.390 . S
C422 H434 0.929 . S
O423 Tb407 2.326 . S
O423 C411 1.242 . S
O424 Eu408 2.324 . S
O424 C411 1.258 . S
O425 Tb407 2.500 1_554 S
O425 C427 1.273 1_554 S
O426 Tb407 2.473 . S
O426 C427 1.257 . S
C427 O425 1.273 1_556 S
C427 O426 1.257 . S
O428 Eu408 2.326 . S
O428 C416 1.242 . S
O429 Tb407 2.324 . S
O429 C416 1.258 . S
O430 Eu408 2.500 . S
O430 C413 1.273 . S
O431 Eu408 2.473 . S
O431 C413 1.257 . S
H432 C418 0.929 . S
H433 C420 0.931 . S
H434 C422 0.929 . S
O435 Tb436 2.292 . S
O435 C438 1.255 . S
Tb436 O435 2.292 . S
Tb436 O452 2.326 . S
Tb436 O454 2.500 . S
Tb436 O455 2.473 . S
Tb436 O458 2.324 1_545 S
Eu437 O441 2.292 . S
Eu437 C442 2.852 . S
Eu437 O453 2.324 . S
Eu437 O457 2.326 . S
Eu437 O459 2.500 . S
Eu437 O460 2.473 . S
C438 O435 1.255 . S
C438 O439 1.247 . S
O439 C438 1.247 . S
C440 O452 1.242 . S
C440 O453 1.258 . S
O441 Eu437 2.292 . S
O441 C443 1.255 . S
C442 Eu437 2.852 . S
C442 C446 1.503 . S
C442 O459 1.273 . S
C442 O460 1.257 . S
C443 O441 1.255 . S
C443 O444 1.247 . S
O444 C443 1.247 . S
C445 O457 1.242 1_565 S
C445 O458 1.258 . S
C446 C442 1.503 . S
C446 C447 1.379 . S
C446 C451 1.392 . S
C447 C446 1.379 . S
C447 C448 1.404 . S
C447 H461 0.929 . S
C448 C447 1.404 . S
C448 C449 1.389 . S
C449 C448 1.389 . S
C449 C450 1.399 . S
C449 H462 0.931 . S
C450 C449 1.399 . S
C450 C451 1.390 . S
C451 C446 1.392 . S
C451 C450 1.390 . S
C451 H463 0.929 . S
O452 Tb436 2.326 . S
O452 C440 1.242 . S
O453 Eu437 2.324 . S
O453 C440 1.258 . S
O454 Tb436 2.500 . S
O454 C456 1.273 . S
O455 Tb436 2.473 . S
O455 C456 1.257 . S
C456 O454 1.273 . S
C456 O455 1.257 . S
O457 Eu437 2.326 . S
O457 C445 1.242 1_545 S
O458 Tb436 2.324 1_565 S
O458 C445 1.258 . S
O459 Eu437 2.500 . S
O459 C442 1.273 . S
O460 Eu437 2.473 . S
O460 C442 1.257 . S
H461 C447 0.929 . S
H462 C449 0.931 . S
H463 C451 0.929 . S
C464 C465 1.363 . S
C464 C470 1.379 . S
C464 N472 1.356 . S
C465 C464 1.363 . S
C465 C471 1.363 . S
C466 C467 1.363 . S
C466 C471 1.379 . S
C466 N473 1.356 . S
C467 C466 1.363 . S
C467 C470 1.363 . S
N468 C470 1.356 . S
N468 H480 0.984 . S
N468 H481 0.985 . S
N469 C471 1.356 . S
N469 H474 0.984 . S
N469 H475 0.985 1_545 S
C470 C464 1.379 . S
C470 C467 1.363 . S
C470 N468 1.356 . S
C471 C465 1.363 . S
C471 C466 1.379 . S
C471 N469 1.356 . S
N472 C464 1.356 . S
N472 H478 0.984 . S
N472 H479 0.984 . S
N473 C466 1.356 . S
N473 H476 0.984 . S
N473 H477 0.985 1_545 S
H474 N469 0.984 . S
H475 N469 0.985 1_565 S
H476 N473 0.984 . S
H477 N473 0.985 1_565 S
H478 N472 0.984 . S
H479 N472 0.984 . S
H480 N468 0.984 . S
H481 N468 0.985 . S
C482 C483 1.363 . S
C482 C488 1.379 . S
C482 N490 1.356 . S
C483 C482 1.363 . S
C483 C489 1.363 . S
C484 C485 1.363 . S
C484 C489 1.379 . S
C484 N491 1.356 . S
C485 C484 1.363 . S
C485 C488 1.363 . S
N486 C488 1.356 . S
N486 H498 0.984 . S
N486 H499 0.985 . S
N487 C489 1.356 . S
N487 H492 0.984 . S
N487 H493 0.985 . S
C488 C482 1.379 . S
C488 C485 1.363 . S
C488 N486 1.356 . S
C489 C483 1.363 . S
C489 C484 1.379 . S
C489 N487 1.356 . S
N490 C482 1.356 . S
N490 H496 0.984 . S
N490 H497 0.984 . S
N491 C484 1.356 . S
N491 H494 0.984 . S
N491 H495 0.985 . S
H492 N487 0.984 . S
H493 N487 0.985 . S
H494 N491 0.984 . S
H495 N491 0.985 . S
H496 N490 0.984 . S
H497 N490 0.984 . S
H498 N486 0.984 . S
H499 N486 0.985 . S
C500 C501 1.363 . S
C500 C506 1.379 . S
C500 N508 1.356 . S
C501 C500 1.363 . S
C501 C507 1.363 . S
C502 C503 1.363 . S
C502 C507 1.379 . S
C502 N509 1.356 . S
C503 C502 1.363 . S
C503 C506 1.363 . S
N504 C506 1.356 . S
N504 H516 0.984 1_565 S
N504 H517 0.985 . S
N505 C507 1.356 . S
N505 H510 0.984 . S
N505 H511 0.985 . S
C506 C500 1.379 . S
C506 C503 1.363 . S
C506 N504 1.356 . S
C507 C501 1.363 . S
C507 C502 1.379 . S
C507 N505 1.356 . S
N508 C500 1.356 . S
N508 H514 0.984 1_565 S
N508 H515 0.984 . S
N509 C502 1.356 . S
N509 H512 0.984 . S
N509 H513 0.985 . S
H510 N505 0.984 . S
H511 N505 0.985 . S
H512 N509 0.984 . S
H513 N509 0.985 . S
H514 N508 0.984 1_545 S
H515 N508 0.984 . S
H516 N504 0.984 1_545 S
H517 N504 0.985 . S
C518 C519 1.363 . S
C518 C524 1.379 . S
C518 N526 1.356 . S
C519 C518 1.363 . S
C519 C525 1.363 . S
C520 C521 1.363 . S
C520 C525 1.379 . S
C520 N527 1.356 . S
C521 C520 1.363 . S
C521 C524 1.363 . S
N522 C524 1.356 . S
N522 H534 0.984 . S
N522 H535 0.985 . S
N523 C525 1.356 . S
N523 H528 0.984 . S
N523 H529 0.985 . S
C524 C518 1.379 . S
C524 C521 1.363 . S
C524 N522 1.356 . S
C525 C519 1.363 . S
C525 C520 1.379 . S
C525 N523 1.356 . S
N526 C518 1.356 . S
N526 H532 0.984 . S
N526 H533 0.984 . S
N527 C520 1.356 . S
N527 H530 0.984 . S
N527 H531 0.985 . S
H528 N523 0.984 . S
H529 N523 0.985 . S
H530 N527 0.984 . S
H531 N527 0.985 . S
H532 N526 0.984 . S
H533 N526 0.984 . S
H534 N522 0.984 . S
H535 N522 0.985 . S
C536 C537 1.363 . S
C536 C542 1.379 . S
C536 N544 1.356 . S
C537 C536 1.363 . S
C537 C543 1.363 . S
C538 C539 1.363 . S
C538 C543 1.379 . S
C538 N545 1.356 . S
C539 C538 1.363 . S
C539 C542 1.363 . S
N540 C542 1.356 . S
N540 H552 0.984 . S
N540 H553 0.985 . S
N541 C543 1.356 . S
N541 H546 0.984 . S
N541 H547 0.985 . S
C542 C536 1.379 . S
C542 C539 1.363 . S
C542 N540 1.356 . S
C543 C537 1.363 . S
C543 C538 1.379 . S
C543 N541 1.356 . S
N544 C536 1.356 . S
N544 H550 0.984 . S
N544 H551 0.984 . S
N545 C538 1.356 . S
N545 H548 0.984 . S
N545 H549 0.985 . S
H546 N541 0.984 . S
H547 N541 0.985 . S
H548 N545 0.984 . S
H549 N545 0.985 . S
H550 N544 0.984 . S
H551 N544 0.984 . S
H552 N540 0.984 . S
H553 N540 0.985 . S
C554 C555 1.363 . S
C554 C560 1.379 . S
C554 N562 1.356 . S
C555 C554 1.363 . S
C555 C561 1.363 . S
C556 C557 1.363 . S
C556 C561 1.379 . S
C556 N563 1.356 . S
C557 C556 1.363 . S
C557 C560 1.363 . S
N558 C560 1.356 . S
N558 H570 0.984 . S
N558 H571 0.985 . S
N559 C561 1.356 . S
N559 H564 0.984 . S
N559 H565 0.985 . S
C560 C554 1.379 . S
C560 C557 1.363 . S
C560 N558 1.356 . S
C561 C555 1.363 . S
C561 C556 1.379 . S
C561 N559 1.356 . S
N562 C554 1.356 . S
N562 H568 0.984 . S
N562 H569 0.984 . S
N563 C556 1.356 . S
N563 H566 0.984 . S
N563 H567 0.985 . S
H564 N559 0.984 . S
H565 N559 0.985 . S
H566 N563 0.984 . S
H567 N563 0.985 . S
H568 N562 0.984 . S
H569 N562 0.984 . S
H570 N558 0.984 . S
H571 N558 0.985 . S
C572 C573 1.363 . S
C572 C578 1.379 . S
C572 N580 1.356 . S
C573 C572 1.363 . S
C573 C579 1.363 . S
C574 C575 1.363 . S
C574 C579 1.379 . S
C574 N581 1.356 . S
C575 C574 1.363 . S
C575 C578 1.363 . S
N576 C578 1.356 . S
N576 H588 0.984 1_545 S
N576 H589 0.985 . S
N577 C579 1.356 . S
N577 H582 0.984 . S
N577 H583 0.985 . S
C578 C572 1.379 . S
C578 C575 1.363 . S
C578 N576 1.356 . S
C579 C573 1.363 . S
C579 C574 1.379 . S
C579 N577 1.356 . S
N580 C572 1.356 . S
N580 H586 0.984 1_545 S
N580 H587 0.984 . S
N581 C574 1.356 . S
N581 H584 0.984 . S
N581 H585 0.985 . S
H582 N577 0.984 . S
H583 N577 0.985 . S
H584 N581 0.984 . S
H585 N581 0.985 . S
H586 N580 0.984 1_565 S
H587 N580 0.984 . S
H588 N576 0.984 1_565 S
H589 N576 0.985 . S
C590 C591 1.363 . S
C590 C596 1.379 . S
C590 N598 1.356 . S
C591 C590 1.363 . S
C591 C597 1.363 . S
C592 C593 1.363 . S
C592 C597 1.379 . S
C592 N599 1.356 . S
C593 C592 1.363 . S
C593 C596 1.363 . S
N594 C596 1.356 . S
N594 H606 0.984 . S
N594 H607 0.985 . S
N595 C597 1.356 . S
N595 H600 0.984 . S
N595 H601 0.985 . S
C596 C590 1.379 . S
C596 C593 1.363 . S
C596 N594 1.356 . S
C597 C591 1.363 . S
C597 C592 1.379 . S
C597 N595 1.356 . S
N598 C590 1.356 . S
N598 H604 0.984 . S
N598 H605 0.984 . S
N599 C592 1.356 . S
N599 H602 0.984 . S
N599 H603 0.985 . S
H600 N595 0.984 . S
H601 N595 0.985 . S
H602 N599 0.984 . S
H603 N599 0.985 . S
H604 N598 0.984 . S
H605 N598 0.984 . S
H606 N594 0.984 . S
H607 N594 0.985 . S
C608 C609 1.363 . S
C608 C614 1.379 . S
C608 N616 1.356 . S
C609 C608 1.363 . S
C609 C615 1.363 . S
C610 C611 1.363 . S
C610 C615 1.379 . S
C610 N617 1.356 . S
C611 C610 1.363 . S
C611 C614 1.363 . S
N612 C614 1.356 . S
N612 H624 0.984 . S
N612 H625 0.985 . S
N613 C615 1.356 . S
N613 H618 0.984 . S
N613 H619 0.985 . S
C614 C608 1.379 . S
C614 C611 1.363 . S
C614 N612 1.356 . S
C615 C609 1.363 . S
C615 C610 1.379 . S
C615 N613 1.356 . S
N616 C608 1.356 . S
N616 H622 0.984 . S
N616 H623 0.984 . S
N617 C610 1.356 . S
N617 H620 0.984 . S
N617 H621 0.985 . S
H618 N613 0.984 . S
H619 N613 0.985 . S
H620 N617 0.984 . S
H621 N617 0.985 . S
H622 N616 0.984 . S
H623 N616 0.984 . S
H624 N612 0.984 . S
H625 N612 0.985 . S
C626 C627 1.363 . S
C626 C632 1.379 . S
C626 N634 1.356 . S
C627 C626 1.363 . S
C627 C633 1.363 1_565 S
C628 C629 1.363 . S
C628 C633 1.379 . S
C628 N635 1.356 . S
C629 C628 1.363 . S
C629 C632 1.363 1_545 S
N630 C632 1.356 . S
N630 H642 0.984 . S
N630 H643 0.985 1_565 S
N631 C633 1.356 . S
N631 H636 0.984 1_545 S
N631 H637 0.985 . S
C632 C626 1.379 . S
C632 C629 1.363 1_565 S
C632 N630 1.356 . S
C633 C627 1.363 1_545 S
C633 C628 1.379 . S
C633 N631 1.356 . S
N634 C626 1.356 . S
N634 H640 0.984 . S
N634 H641 0.984 . S
N635 C628 1.356 . S
N635 H638 0.984 . S
N635 H639 0.985 . S
H636 N631 0.984 1_565 S
H637 N631 0.985 . S
H638 N635 0.984 . S
H639 N635 0.985 . S
H640 N634 0.984 . S
H641 N634 0.984 . S
H642 N630 0.984 . S
H643 N630 0.985 1_545 S
C644 C645 1.363 . S
C644 C650 1.379 . S
C644 N652 1.356 . S
C645 C644 1.363 . S
C645 C651 1.363 . S
C646 C647 1.363 . S
C646 C651 1.379 . S
C646 N653 1.356 . S
C647 C646 1.363 . S
C647 C650 1.363 . S
N648 C650 1.356 . S
N648 H660 0.984 . S
N648 H661 0.985 . S
N649 C651 1.356 . S
N649 H654 0.984 . S
N649 H655 0.985 . S
C650 C644 1.379 . S
C650 C647 1.363 . S
C650 N648 1.356 . S
C651 C645 1.363 . S
C651 C646 1.379 . S
C651 N649 1.356 . S
N652 C644 1.356 . S
N652 H658 0.984 . S
N652 H659 0.984 . S
N653 C646 1.356 . S
N653 H656 0.984 . S
N653 H657 0.985 . S
H654 N649 0.984 . S
H655 N649 0.985 . S
H656 N653 0.984 . S
H657 N653 0.985 . S
H658 N652 0.984 . S
H659 N652 0.984 . S
H660 N648 0.984 . S
H661 N648 0.985 . S
C662 C663 1.363 . S
C662 C668 1.379 . S
C662 N670 1.356 . S
C663 C662 1.363 . S
C663 C669 1.363 1_545 S
C664 C665 1.363 . S
C664 C669 1.379 . S
C664 N671 1.356 . S
C665 C664 1.363 . S
C665 C668 1.363 1_565 S
N666 C668 1.356 . S
N666 H678 0.984 . S
N666 H679 0.985 1_545 S
N667 C669 1.355 1_545 S
N667 H672 0.993 . S
N667 H673 0.977 1_545 S
C668 C662 1.379 . S
C668 C665 1.363 1_545 S
C668 N666 1.356 . S
C669 C663 1.363 1_565 S
C669 C664 1.379 . S
C669 N667 1.355 1_565 S
N670 C662 1.356 . S
N670 H676 0.984 . S
N670 H677 0.984 . S
N671 C664 1.356 . S
N671 H674 0.984 . S
N671 H675 0.985 . S
H672 N667 0.993 . S
H673 N667 0.977 1_565 S
H674 N671 0.984 . S
H675 N671 0.985 . S
H676 N670 0.984 . S
H677 N670 0.984 . S
H678 N666 0.984 . S
H679 N666 0.985 1_565 S
C680 C681 1.363 . S
C680 C686 1.379 . S
C680 N688 1.356 . S
C681 C680 1.363 . S
C681 C687 1.363 . S
C682 C683 1.363 . S
C682 C687 1.379 . S
C682 N689 1.356 . S
C683 C682 1.363 . S
C683 C686 1.363 . S
N684 C686 1.356 . S
N684 H696 0.984 . S
N684 H697 0.985 . S
N685 C687 1.356 . S
N685 H690 0.984 . S
N685 H691 0.985 . S
C686 C680 1.379 . S
C686 C683 1.363 . S
C686 N684 1.356 . S
C687 C681 1.363 . S
C687 C682 1.379 . S
C687 N685 1.356 . S
N688 C680 1.356 . S
N688 H694 0.984 . S
N688 H695 0.984 . S
N689 C682 1.356 . S
N689 H692 0.984 . S
N689 H693 0.985 . S
H690 N685 0.984 . S
H691 N685 0.985 . S
H692 N689 0.984 . S
H693 N689 0.985 . S
H694 N688 0.984 . S
H695 N688 0.984 . S
H696 N684 0.984 . S
H697 N684 0.985 . S
C698 C699 1.363 . S
C698 C704 1.379 1_565 S
C698 N706 1.356 . S
C699 C698 1.363 . S
C699 C705 1.363 . S
C700 C701 1.363 . S
C700 C705 1.379 1_545 S
C700 N707 1.356 . S
C701 C700 1.363 . S
C701 C704 1.363 . S
N702 C704 1.356 . S
N702 H714 0.984 . S
N702 H715 0.985 . S
N703 C705 1.356 . S
N703 H708 0.984 . S
N703 H709 0.985 . S
C704 C698 1.379 1_545 S
C704 C701 1.363 . S
C704 N702 1.356 . S
C705 C699 1.363 . S
C705 C700 1.379 1_565 S
C705 N703 1.356 . S
N706 C698 1.356 . S
N706 H712 0.984 . S
N706 H713 0.984 . S
N707 C700 1.356 . S
N707 H710 0.984 . S
N707 H711 0.985 . S
H708 N703 0.984 . S
H709 N703 0.985 . S
H710 N707 0.984 . S
H711 N707 0.985 . S
H712 N706 0.984 . S
H713 N706 0.984 . S
H714 N702 0.984 . S
H715 N702 0.985 . S
C716 C717 1.363 . S
C716 C722 1.379 . S
C716 N724 1.356 . S
C717 C716 1.363 . S
C717 C723 1.363 . S
C718 C719 1.363 . S
C718 C723 1.379 . S
C718 N725 1.356 . S
C719 C718 1.363 . S
C719 C722 1.363 . S
N720 C722 1.356 . S
N720 H732 0.984 . S
N720 H733 0.985 . S
N721 C723 1.356 . S
N721 H726 0.984 . S
N721 H727 0.985 . S
C722 C716 1.379 . S
C722 C719 1.363 . S
C722 N720 1.356 . S
C723 C717 1.363 . S
C723 C718 1.379 . S
C723 N721 1.356 . S
N724 C716 1.356 . S
N724 H730 0.984 . S
N724 H731 0.984 . S
N725 C718 1.356 . S
N725 H728 0.984 . S
N725 H729 0.985 . S
H726 N721 0.984 . S
H727 N721 0.985 . S
H728 N725 0.984 . S
H729 N725 0.985 . S
H730 N724 0.984 . S
H731 N724 0.984 . S
H732 N720 0.984 . S
H733 N720 0.985 . S
C734 C735 1.363 . S
C734 C740 1.379 . S
C734 N742 1.356 . S
C735 C734 1.363 . S
C735 C741 1.363 1_565 S
C736 C737 1.363 . S
C736 C741 1.379 . S
C736 N743 1.356 . S
C737 C736 1.363 . S
C737 C740 1.363 1_545 S
N738 C740 1.356 . S
N738 H750 0.984 . S
N738 H751 0.985 1_565 S
N739 C741 1.356 . S
N739 H744 0.984 1_545 S
N739 H745 0.985 . S
C740 C734 1.379 . S
C740 C737 1.363 1_565 S
C740 N738 1.356 . S
C741 C735 1.363 1_545 S
C741 C736 1.379 . S
C741 N739 1.356 . S
N742 C734 1.356 . S
N742 H748 0.984 . S
N742 H749 0.984 . S
N743 C736 1.356 . S
N743 H746 0.984 . S
N743 H747 0.985 . S
H744 N739 0.984 1_565 S
H745 N739 0.985 . S
H746 N743 0.984 . S
H747 N743 0.985 . S
H748 N742 0.984 . S
H749 N742 0.984 . S
H750 N738 0.984 . S
H751 N738 0.985 1_545 S
C752 C753 1.363 . S
C752 C758 1.379 . S
C752 N760 1.356 . S
C753 C752 1.363 . S
C753 C759 1.363 . S
C754 C755 1.363 . S
C754 C759 1.379 . S
C754 N761 1.356 . S
C755 C754 1.363 . S
C755 C758 1.363 . S
N756 C758 1.356 . S
N756 H768 0.984 . S
N756 H769 0.985 . S
N757 C759 1.356 . S
N757 H762 0.984 . S
N757 H763 0.985 . S
C758 C752 1.379 . S
C758 C755 1.363 . S
C758 N756 1.356 . S
C759 C753 1.363 . S
C759 C754 1.379 . S
C759 N757 1.356 . S
N760 C752 1.356 . S
N760 H766 0.984 . S
N760 H767 0.984 . S
N761 C754 1.356 . S
N761 H764 0.984 . S
N761 H765 0.985 . S
H762 N757 0.984 . S
H763 N757 0.985 . S
H764 N761 0.984 . S
H765 N761 0.985 . S
H766 N760 0.984 . S
H767 N760 0.984 . S
H768 N756 0.984 . S
H769 N756 0.985 . S
C770 C771 1.363 . S
C770 C776 1.379 . S
C770 N778 1.356 . S
C771 C770 1.363 . S
C771 C777 1.363 . S
C772 C773 1.363 . S
C772 C777 1.379 . S
C772 N779 1.356 . S
C773 C772 1.363 . S
C773 C776 1.363 . S
N774 C776 1.356 . S
N774 H786 0.984 . S
N774 H787 0.985 . S
N775 C777 1.356 . S
N775 H780 0.984 . S
N775 H781 0.985 . S
C776 C770 1.379 . S
C776 C773 1.363 . S
C776 N774 1.356 . S
C777 C771 1.363 . S
C777 C772 1.379 . S
C777 N775 1.356 . S
N778 C770 1.356 . S
N778 H784 0.984 . S
N778 H785 0.984 . S
N779 C772 1.356 . S
N779 H782 0.984 . S
N779 H783 0.985 . S
H780 N775 0.984 . S
H781 N775 0.985 . S
H782 N779 0.984 . S
H783 N779 0.985 . S
H784 N778 0.984 . S
H785 N778 0.984 . S
H786 N774 0.984 . S
H787 N774 0.985 . S
C788 C789 1.363 . S
C788 C794 1.379 . S
C788 N796 1.356 . S
C789 C788 1.363 . S
C789 C795 1.363 . S
C790 C791 1.363 . S
C790 C795 1.379 . S
C790 N797 1.356 . S
C791 C790 1.363 . S
C791 C794 1.363 . S
N792 C794 1.356 . S
N792 H804 0.984 . S
N792 H805 0.985 . S
N793 C795 1.356 . S
N793 H798 0.984 . S
N793 H799 0.985 . S
C794 C788 1.379 . S
C794 C791 1.363 . S
C794 N792 1.356 . S
C795 C789 1.363 . S
C795 C790 1.379 . S
C795 N793 1.356 . S
N796 C788 1.356 . S
N796 H802 0.984 . S
N796 H803 0.984 . S
N797 C790 1.356 . S
N797 H800 0.984 . S
N797 H801 0.985 . S
H798 N793 0.984 . S
H799 N793 0.985 . S
H800 N797 0.984 . S
H801 N797 0.985 . S
H802 N796 0.984 . S
H803 N796 0.984 . S
H804 N792 0.984 . S
H805 N792 0.985 . S
C806 C807 1.363 . S
C806 C812 1.379 . S
C806 N814 1.356 . S
C807 C806 1.363 . S
C807 C813 1.363 . S
C808 C809 1.363 . S
C808 C813 1.379 . S
C808 N815 1.356 . S
C809 C808 1.363 . S
C809 C812 1.363 . S
N810 C812 1.356 . S
N810 H822 0.984 . S
N810 H823 0.985 . S
N811 C813 1.356 . S
N811 H816 0.984 . S
N811 H817 0.985 . S
C812 C806 1.379 . S
C812 C809 1.363 . S
C812 N810 1.356 . S
C813 C807 1.363 . S
C813 C808 1.379 . S
C813 N811 1.356 . S
N814 C806 1.356 . S
N814 H820 0.984 . S
N814 H821 0.984 . S
N815 C808 1.356 . S
N815 H818 0.984 . S
N815 H819 0.985 . S
H816 N811 0.984 . S
H817 N811 0.985 . S
H818 N815 0.984 . S
H819 N815 0.985 . S
H820 N814 0.984 . S
H821 N814 0.984 . S
H822 N810 0.984 . S
H823 N810 0.985 . S
C824 C825 1.363 . S
C824 C830 1.379 . S
C824 N832 1.356 . S
C825 C824 1.363 . S
C825 C831 1.363 . S
C826 C827 1.363 . S
C826 C831 1.379 . S
C826 N833 1.356 . S
C827 C826 1.363 . S
C827 C830 1.363 . S
N828 C830 1.356 . S
N828 H840 0.984 . S
N828 H841 0.985 . S
N829 C831 1.356 . S
N829 H834 0.984 . S
N829 H835 0.985 . S
C830 C824 1.379 . S
C830 C827 1.363 . S
C830 N828 1.356 . S
C831 C825 1.363 . S
C831 C826 1.379 . S
C831 N829 1.356 . S
N832 C824 1.356 . S
N832 H838 0.984 . S
N832 H839 0.984 . S
N833 C826 1.356 . S
N833 H836 0.984 . S
N833 H837 0.985 . S
H834 N829 0.984 . S
H835 N829 0.985 . S
H836 N833 0.984 . S
H837 N833 0.985 . S
H838 N832 0.984 . S
H839 N832 0.984 . S
H840 N828 0.984 . S
H841 N828 0.985 . S
C842 C843 1.363 . S
C842 C848 1.379 . S
C842 N850 1.356 . S
C843 C842 1.363 . S
C843 C849 1.363 . S
C844 C845 1.363 . S
C844 C849 1.379 . S
C844 N851 1.356 . S
C845 C844 1.363 . S
C845 C848 1.363 . S
N846 C848 1.356 . S
N846 H858 0.984 . S
N846 H859 0.985 . S
N847 C849 1.356 . S
N847 H852 0.984 . S
N847 H853 0.985 . S
C848 C842 1.379 . S
C848 C845 1.363 . S
C848 N846 1.356 . S
C849 C843 1.363 . S
C849 C844 1.379 . S
C849 N847 1.356 . S
N850 C842 1.356 . S
N850 H856 0.984 . S
N850 H857 0.984 . S
N851 C844 1.356 . S
N851 H854 0.984 . S
N851 H855 0.985 . S
H852 N847 0.984 . S
H853 N847 0.985 . S
H854 N851 0.984 . S
H855 N851 0.985 . S
H856 N850 0.984 . S
H857 N850 0.984 . S
H858 N846 0.984 . S
H859 N846 0.985 . S
C860 C861 1.363 . S
C860 C866 1.379 . S
C860 N868 1.356 . S
C861 C860 1.363 . S
C861 C867 1.363 . S
C862 C863 1.363 . S
C862 C867 1.379 . S
C862 N869 1.356 . S
C863 C862 1.363 . S
C863 C866 1.363 . S
N864 C866 1.356 . S
N864 H876 0.984 . S
N864 H877 0.985 . S
N865 C867 1.356 . S
N865 H870 0.984 . S
N865 H871 0.985 . S
C866 C860 1.379 . S
C866 C863 1.363 . S
C866 N864 1.356 . S
C867 C861 1.363 . S
C867 C862 1.379 . S
C867 N865 1.356 . S
N868 C860 1.356 . S
N868 H874 0.984 . S
N868 H875 0.984 . S
N869 C862 1.356 . S
N869 H872 0.984 . S
N869 H873 0.985 . S
H870 N865 0.984 . S
H871 N865 0.985 . S
H872 N869 0.984 . S
H873 N869 0.985 . S
H874 N868 0.984 . S
H875 N868 0.984 . S
H876 N864 0.984 . S
H877 N864 0.985 . S
C878 C879 1.363 . S
C878 C884 1.379 . S
C878 N886 1.356 . S
C879 C878 1.363 . S
C879 C885 1.363 . S
C880 C881 1.363 . S
C880 C885 1.379 . S
C880 N887 1.356 . S
C881 C880 1.363 . S
C881 C884 1.363 . S
N882 C884 1.356 . S
N882 H894 0.984 . S
N882 H895 0.985 . S
N883 C885 1.356 . S
N883 H888 0.984 . S
N883 H889 0.985 . S
C884 C878 1.379 . S
C884 C881 1.363 . S
C884 N882 1.356 . S
C885 C879 1.363 . S
C885 C880 1.379 . S
C885 N883 1.356 . S
N886 C878 1.356 . S
N886 H892 0.984 . S
N886 H893 0.984 . S
N887 C880 1.356 . S
N887 H890 0.984 . S
N887 H891 0.985 . S
H888 N883 0.984 . S
H889 N883 0.985 . S
H890 N887 0.984 . S
H891 N887 0.985 . S
H892 N886 0.984 . S
H893 N886 0.984 . S
H894 N882 0.984 . S
H895 N882 0.985 . S
C896 C897 1.363 . S
C896 C902 1.379 . S
C896 N904 1.356 . S
C897 C896 1.363 . S
C897 C903 1.363 . S
C898 C899 1.363 . S
C898 C903 1.379 . S
C898 N905 1.356 . S
C899 C898 1.363 . S
C899 C902 1.363 . S
N900 C902 1.356 . S
N900 H912 0.984 1_565 S
N900 H913 0.985 1_565 S
N901 C903 1.356 . S
N901 H906 0.984 . S
N901 H907 0.985 . S
C902 C896 1.379 . S
C902 C899 1.363 . S
C902 N900 1.356 . S
C903 C897 1.363 . S
C903 C898 1.379 . S
C903 N901 1.356 . S
N904 C896 1.356 . S
N904 H910 0.984 . S
N904 H911 0.984 . S
N905 C898 1.356 . S
N905 H908 0.984 . S
N905 H909 0.985 . S
H906 N901 0.984 . S
H907 N901 0.985 . S
H908 N905 0.984 . S
H909 N905 0.985 . S
H910 N904 0.984 . S
H911 N904 0.984 . S
H912 N900 0.984 1_545 S
H913 N900 0.985 1_545 S
C914 C915 1.363 . S
C914 C920 1.379 . S
C914 N922 1.356 . S
C915 C914 1.363 . S
C915 C921 1.363 . S
C916 C917 1.363 . S
C916 C921 1.379 . S
C916 N923 1.356 . S
C917 C916 1.363 . S
C917 C920 1.363 . S
N918 C920 1.356 . S
N918 H930 0.984 . S
N918 H931 0.985 . S
N919 C921 1.356 1_545 S
N919 H924 0.984 . S
N919 H925 0.985 . S
C920 C914 1.379 . S
C920 C917 1.363 . S
C920 N918 1.356 . S
C921 C915 1.363 . S
C921 C916 1.379 . S
C921 N919 1.356 1_565 S
N922 C914 1.356 . S
N922 H928 0.984 . S
N922 H929 0.984 . S
N923 C916 1.356 . S
N923 H926 0.984 . S
N923 H927 0.985 . S
H924 N919 0.984 . S
H925 N919 0.985 . S
H926 N923 0.984 . S
H927 N923 0.985 . S
H928 N922 0.984 . S
H929 N922 0.984 . S
H930 N918 0.984 . S
H931 N918 0.985 . S
C932 C933 1.363 . S
C932 C938 1.379 . S
C932 N940 1.356 . S
C933 C932 1.363 . S
C933 C939 1.363 . S
C934 C935 1.363 . S
C934 C939 1.379 . S
C934 N941 1.356 . S
C935 C934 1.363 . S
C935 C938 1.363 . S
N936 C938 1.356 . S
N936 H948 0.984 . S
N936 H949 0.985 . S
N937 C939 1.356 . S
N937 H942 0.984 . S
N937 H943 0.985 . S
C938 C932 1.379 . S
C938 C935 1.363 . S
C938 N936 1.356 . S
C939 C933 1.363 . S
C939 C934 1.379 . S
C939 N937 1.356 . S
N940 C932 1.356 . S
N940 H946 0.984 . S
N940 H947 0.984 . S
N941 C934 1.356 . S
N941 H944 0.984 . S
N941 H945 0.985 . S
H942 N937 0.984 . S
H943 N937 0.985 . S
H944 N941 0.984 . S
H945 N941 0.985 . S
H946 N940 0.984 . S
H947 N940 0.984 . S
H948 N936 0.984 . S
H949 N936 0.985 . S
C950 C951 1.363 . S
C950 C956 1.379 1_545 S
C950 N958 1.356 1_545 S
C951 C950 1.363 . S
C951 C957 1.363 . S
C952 C953 1.363 . S
C952 C957 1.379 . S
C952 N959 1.356 . S
C953 C952 1.363 . S
C953 C956 1.363 1_545 S
N954 C956 1.356 . S
N954 H966 0.984 . S
N954 H967 0.985 . S
N955 C957 1.356 . S
N955 H960 0.984 . S
N955 H961 0.985 . S
C956 C950 1.379 1_565 S
C956 C953 1.363 1_565 S
C956 N954 1.356 . S
C957 C951 1.363 . S
C957 C952 1.379 . S
C957 N955 1.356 . S
N958 C950 1.356 1_565 S
N958 H964 0.984 . S
N958 H965 0.984 1_565 S
N959 C952 1.356 . S
N959 H962 0.984 . S
N959 H963 0.985 . S
H960 N955 0.984 . S
H961 N955 0.985 . S
H962 N959 0.984 . S
H963 N959 0.985 . S
H964 N958 0.984 . S
H965 N958 0.984 1_545 S
H966 N954 0.984 . S
H967 N954 0.985 . S
C968 C969 1.363 . S
C968 C974 1.379 . S
C968 N976 1.356 . S
C969 C968 1.363 . S
C969 C975 1.363 . S
C970 C971 1.363 . S
C970 C975 1.379 . S
C970 N977 1.356 . S
C971 C970 1.363 . S
C971 C974 1.363 . S
N972 C974 1.356 . S
N972 H984 0.984 . S
N972 H985 0.985 . S
N973 C975 1.356 . S
N973 H978 0.984 . S
N973 H979 0.985 . S
C974 C968 1.379 . S
C974 C971 1.363 . S
C974 N972 1.356 . S
C975 C969 1.363 . S
C975 C970 1.379 . S
C975 N973 1.356 . S
N976 C968 1.356 . S
N976 H982 0.984 . S
N976 H983 0.984 . S
N977 C970 1.356 . S
N977 H980 0.984 . S
N977 H981 0.985 . S
H978 N973 0.984 . S
H979 N973 0.985 . S
H980 N977 0.984 . S
H981 N977 0.985 . S
H982 N976 0.984 . S
H983 N976 0.984 . S
H984 N972 0.984 . S
H985 N972 0.985 . S
C986 C987 1.363 . S
C986 C992 1.379 . S
C986 N994 1.356 . S
C987 C986 1.363 . S
C987 C993 1.363 1_545 S
C988 C989 1.363 . S
C988 C993 1.379 1_545 S
C988 N995 1.356 1_545 S
C989 C988 1.363 . S
C989 C992 1.363 . S
N990 C992 1.356 . S
N990 H1002 0.984 . S
N990 H1003 0.985 . S
N991 C993 1.356 . S
N991 H996 0.984 . S
N991 H997 0.985 . S
C992 C986 1.379 . S
C992 C989 1.363 . S
C992 N990 1.356 . S
C993 C987 1.363 1_565 S
C993 C988 1.379 1_565 S
C993 N991 1.356 . S
N994 C986 1.356 . S
N994 H1000 0.984 . S
N994 H1001 0.984 . S
N995 C988 1.356 1_565 S
N995 H998 0.984 1_565 S
N995 H999 0.985 . S
H996 N991 0.984 . S
H997 N991 0.985 . S
H998 N995 0.984 1_545 S
H999 N995 0.985 . S
H1000 N994 0.984 . S
H1001 N994 0.984 . S
H1002 N990 0.984 . S
H1003 N990 0.985 . S
C1004 C1005 1.363 . S
C1004 C1010 1.379 . S
C1004 N1012 1.356 . S
C1005 C1004 1.363 . S
C1005 C1011 1.363 . S
C1006 C1007 1.363 . S
C1006 C1011 1.379 . S
C1006 N1013 1.356 . S
C1007 C1006 1.363 . S
C1007 C1010 1.363 . S
N1008 C1010 1.356 . S
N1008 H1020 0.984 . S
N1008 H1021 0.985 . S
N1009 C1011 1.356 . S
N1009 H1014 0.984 . S
N1009 H1015 0.985 . S
C1010 C1004 1.379 . S
C1010 C1007 1.363 . S
C1010 N1008 1.356 . S
C1011 C1005 1.363 . S
C1011 C1006 1.379 . S
C1011 N1009 1.356 . S
N1012 C1004 1.356 . S
N1012 H1018 0.984 . S
N1012 H1019 0.984 . S
N1013 C1006 1.356 . S
N1013 H1016 0.984 . S
N1013 H1017 0.985 . S
H1014 N1009 0.984 . S
H1015 N1009 0.985 . S
H1016 N1013 0.984 . S
H1017 N1013 0.985 . S
H1018 N1012 0.984 . S
H1019 N1012 0.984 . S
H1020 N1008 0.984 . S
H1021 N1008 0.985 . S
C1022 C1023 1.363 . S
C1022 C1028 1.379 . S
C1022 N1030 1.356 . S
C1023 C1022 1.363 . S
C1023 C1029 1.363 1_565 S
C1024 C1025 1.363 . S
C1024 C1029 1.379 1_565 S
C1024 N1031 1.356 1_565 S
C1025 C1024 1.363 . S
C1025 C1028 1.363 . S
N1026 C1028 1.356 . S
N1026 H1038 0.984 . S
N1026 H1039 0.985 . S
N1027 C1029 1.356 . S
N1027 H1032 0.984 . S
N1027 H1033 0.985 . S
C1028 C1022 1.379 . S
C1028 C1025 1.363 . S
C1028 N1026 1.356 . S
C1029 C1023 1.363 1_545 S
C1029 C1024 1.379 1_545 S
C1029 N1027 1.356 . S
N1030 C1022 1.356 . S
N1030 H1036 0.984 . S
N1030 H1037 0.984 . S
N1031 C1024 1.356 1_545 S
N1031 H1034 0.984 1_545 S
N1031 H1035 0.985 . S
H1032 N1027 0.984 . S
H1033 N1027 0.985 . S
H1034 N1031 0.984 1_565 S
H1035 N1031 0.985 . S
H1036 N1030 0.984 . S
H1037 N1030 0.984 . S
H1038 N1026 0.984 . S
H1039 N1026 0.985 . S
C1040 C1041 1.363 . S
C1040 C1046 1.379 . S
C1040 N1048 1.356 . S
C1041 C1040 1.363 . S
C1041 C1047 1.363 1_566 S
C1042 C1043 1.363 . S
C1042 C1047 1.379 . S
C1042 N1049 1.356 . S
C1043 C1042 1.363 . S
C1043 C1046 1.363 1_544 S
N1044 C1046 1.356 . S
N1044 H1056 0.984 . S
N1044 H1057 0.985 . S
N1045 C1047 1.356 . S
N1045 H1050 0.984 . S
N1045 H1051 0.985 . S
C1046 C1040 1.379 . S
C1046 C1043 1.363 1_566 S
C1046 N1044 1.356 . S
C1047 C1041 1.363 1_544 S
C1047 C1042 1.379 . S
C1047 N1045 1.356 . S
N1048 C1040 1.356 . S
N1048 H1054 0.984 . S
N1048 H1055 0.984 . S
N1049 C1042 1.356 . S
N1049 H1052 0.984 . S
N1049 H1053 0.985 . S
H1050 N1045 0.984 . S
H1051 N1045 0.985 . S
H1052 N1049 0.984 . S
H1053 N1049 0.985 . S
H1054 N1048 0.984 . S
H1055 N1048 0.984 . S
H1056 N1044 0.984 . S
H1057 N1044 0.985 . S
C1058 C1059 1.363 . S
C1058 C1064 1.379 . S
C1058 N1066 1.356 . S
C1059 C1058 1.363 . S
C1059 C1065 1.363 . S
C1060 C1061 1.363 . S
C1060 C1065 1.379 . S
C1060 N1067 1.356 . S
C1061 C1060 1.363 . S
C1061 C1064 1.363 . S
N1062 C1064 1.356 . S
N1062 H1074 0.984 . S
N1062 H1075 0.985 . S
N1063 C1065 1.356 . S
N1063 H1068 0.984 . S
N1063 H1069 0.985 . S
C1064 C1058 1.379 . S
C1064 C1061 1.363 . S
C1064 N1062 1.356 . S
C1065 C1059 1.363 . S
C1065 C1060 1.379 . S
C1065 N1063 1.356 . S
N1066 C1058 1.356 . S
N1066 H1072 0.984 . S
N1066 H1073 0.984 . S
N1067 C1060 1.356 . S
N1067 H1070 0.984 . S
N1067 H1071 0.985 . S
H1068 N1063 0.984 . S
H1069 N1063 0.985 . S
H1070 N1067 0.984 . S
H1071 N1067 0.985 . S
H1072 N1066 0.984 . S
H1073 N1066 0.984 . S
H1074 N1062 0.984 . S
H1075 N1062 0.985 . S
C1076 C1077 1.363 1_565 S
C1076 C1082 1.379 1_655 S
C1076 N1084 1.356 . S
C1077 C1076 1.363 1_545 S
C1077 C1083 1.363 . S
C1078 C1079 1.363 1_545 S
C1078 C1083 1.379 1_455 S
C1078 N1085 1.356 . S
C1079 C1078 1.363 1_565 S
C1079 C1082 1.363 . S
N1080 C1082 1.356 . S
N1080 H1092 0.984 . S
N1080 H1093 0.985 . S
N1081 C1083 1.356 . S
N1081 H1086 0.984 . S
N1081 H1087 0.985 . S
C1082 C1076 1.379 1_455 S
C1082 C1079 1.363 . S
C1082 N1080 1.356 . S
C1083 C1077 1.363 . S
C1083 C1078 1.379 1_655 S
C1083 N1081 1.356 . S
N1084 C1076 1.356 . S
N1084 H1090 0.984 . S
N1084 H1091 0.984 . S
N1085 C1078 1.356 . S
N1085 H1088 0.984 . S
N1085 H1089 0.985 . S
H1086 N1081 0.984 . S
H1087 N1081 0.985 . S
H1088 N1085 0.984 . S
H1089 N1085 0.985 . S
H1090 N1084 0.984 . S
H1091 N1084 0.984 . S
H1092 N1080 0.984 . S
H1093 N1080 0.985 . S
C1094 C1095 1.363 . S
C1094 C1100 1.379 . S
C1094 N1102 1.356 . S
C1095 C1094 1.363 . S
C1095 C1101 1.363 . S
C1096 C1097 1.363 . S
C1096 C1101 1.379 . S
C1096 N1103 1.356 . S
C1097 C1096 1.363 . S
C1097 C1100 1.363 . S
N1098 C1100 1.356 . S
N1098 H1110 0.984 . S
N1098 H1111 0.985 . S
N1099 C1101 1.356 . S
N1099 H1104 0.984 . S
N1099 H1105 0.985 . S
C1100 C1094 1.379 . S
C1100 C1097 1.363 . S
C1100 N1098 1.356 . S
C1101 C1095 1.363 . S
C1101 C1096 1.379 . S
C1101 N1099 1.356 . S
N1102 C1094 1.356 . S
N1102 H1108 0.984 . S
N1102 H1109 0.984 . S
N1103 C1096 1.356 . S
N1103 H1106 0.984 . S
N1103 H1107 0.985 . S
H1104 N1099 0.984 . S
H1105 N1099 0.985 . S
H1106 N1103 0.984 . S
H1107 N1103 0.985 . S
H1108 N1102 0.984 . S
H1109 N1102 0.984 . S
H1110 N1098 0.984 . S
H1111 N1098 0.985 . S
C1112 C1113 1.363 . S
C1112 C1118 1.379 . S
C1112 N1120 1.356 . S
C1113 C1112 1.363 . S
C1113 C1119 1.363 . S
C1114 C1115 1.363 . S
C1114 C1119 1.379 . S
C1114 N1121 1.356 . S
C1115 C1114 1.363 . S
C1115 C1118 1.363 . S
N1116 C1118 1.356 . S
N1116 H1128 0.984 . S
N1116 H1129 0.985 . S
N1117 C1119 1.356 . S
N1117 H1122 0.984 . S
N1117 H1123 0.985 . S
C1118 C1112 1.379 . S
C1118 C1115 1.363 . S
C1118 N1116 1.356 . S
C1119 C1113 1.363 . S
C1119 C1114 1.379 . S
C1119 N1117 1.356 . S
N1120 C1112 1.356 . S
N1120 H1126 0.984 . S
N1120 H1127 0.984 . S
N1121 C1114 1.356 . S
N1121 H1124 0.984 . S
N1121 H1125 0.985 . S
H1122 N1117 0.984 . S
H1123 N1117 0.985 . S
H1124 N1121 0.984 . S
H1125 N1121 0.985 . S
H1126 N1120 0.984 . S
H1127 N1120 0.984 . S
H1128 N1116 0.984 . S
H1129 N1116 0.985 . S
C1130 C1131 1.363 . S
C1130 C1136 1.379 . S
C1130 N1138 1.356 . S
C1131 C1130 1.363 . S
C1131 C1137 1.363 . S
C1132 C1133 1.363 . S
C1132 C1137 1.379 . S
C1132 N1139 1.356 . S
C1133 C1132 1.363 . S
C1133 C1136 1.363 . S
N1134 C1136 1.356 . S
N1134 H1146 0.984 . S
N1134 H1147 0.985 . S
N1135 C1137 1.356 . S
N1135 H1140 0.984 . S
N1135 H1141 0.985 . S
C1136 C1130 1.379 . S
C1136 C1133 1.363 . S
C1136 N1134 1.356 . S
C1137 C1131 1.363 . S
C1137 C1132 1.379 . S
C1137 N1135 1.356 . S
N1138 C1130 1.356 . S
N1138 H1144 0.984 . S
N1138 H1145 0.984 . S
N1139 C1132 1.356 . S
N1139 H1142 0.984 . S
N1139 H1143 0.985 . S
H1140 N1135 0.984 . S
H1141 N1135 0.985 . S
H1142 N1139 0.984 . S
H1143 N1139 0.985 . S
H1144 N1138 0.984 . S
H1145 N1138 0.984 . S
H1146 N1134 0.984 . S
H1147 N1134 0.985 . S
C1148 C1149 1.363 . S
C1148 C1154 1.379 1_655 S
C1148 N1156 1.356 . S
C1149 C1148 1.363 . S
C1149 C1155 1.363 . S
C1150 C1151 1.363 . S
C1150 C1155 1.379 1_455 S
C1150 N1157 1.356 . S
C1151 C1150 1.363 . S
C1151 C1154 1.363 . S
N1152 C1154 1.356 . S
N1152 H1164 0.984 . S
N1152 H1165 0.985 . S
N1153 C1155 1.356 . S
N1153 H1158 0.984 . S
N1153 H1159 0.985 . S
C1154 C1148 1.379 1_455 S
C1154 C1151 1.363 . S
C1154 N1152 1.356 . S
C1155 C1149 1.363 . S
C1155 C1150 1.379 1_655 S
C1155 N1153 1.356 . S
N1156 C1148 1.356 . S
N1156 H1162 0.984 . S
N1156 H1163 0.984 . S
N1157 C1150 1.356 . S
N1157 H1160 0.984 . S
N1157 H1161 0.985 . S
H1158 N1153 0.984 . S
H1159 N1153 0.985 . S
H1160 N1157 0.984 . S
H1161 N1157 0.985 . S
H1162 N1156 0.984 . S
H1163 N1156 0.984 . S
H1164 N1152 0.984 . S
H1165 N1152 0.985 . S
C1166 C1167 1.363 1_556 S
C1166 C1172 1.379 . S
C1166 N1174 1.356 . S
C1167 C1166 1.363 1_554 S
C1167 C1173 1.363 . S
C1168 C1169 1.363 1_554 S
C1168 C1173 1.379 . S
C1168 N1175 1.356 . S
C1169 C1168 1.363 1_556 S
C1169 C1172 1.363 . S
N1170 C1172 1.356 . S
N1170 H1182 0.984 . S
N1170 H1183 0.985 . S
N1171 C1173 1.356 . S
N1171 H1176 0.984 . S
N1171 H1177 0.985 . S
C1172 C1166 1.379 . S
C1172 C1169 1.363 . S
C1172 N1170 1.356 . S
C1173 C1167 1.363 . S
C1173 C1168 1.379 . S
C1173 N1171 1.356 . S
N1174 C1166 1.356 . S
N1174 H1180 0.984 . S
N1174 H1181 0.984 . S
N1175 C1168 1.356 . S
N1175 H1178 0.984 . S
N1175 H1179 0.985 . S
H1176 N1171 0.984 . S
H1177 N1171 0.985 . S
H1178 N1175 0.984 . S
H1179 N1175 0.985 . S
H1180 N1174 0.984 . S
H1181 N1174 0.984 . S
H1182 N1170 0.984 . S
H1183 N1170 0.985 . S
C1184 C1185 1.383 . S
C1184 C1190 1.364 1_556 S
C1184 N1192 1.358 . S
C1185 C1184 1.383 . S
C1185 C1191 1.363 . S
C1186 C1187 1.363 1_556 S
C1186 C1191 1.379 . S
C1186 N1193 1.356 . S
C1187 C1186 1.363 1_554 S
C1187 C1190 1.363 . S
N1188 C1190 1.356 . S
N1188 H1200 0.984 . S
N1188 H1201 0.985 . S
N1189 C1191 1.356 . S
N1189 H1194 0.984 . S
N1189 H1195 0.985 . S
C1190 C1184 1.364 1_554 S
C1190 C1187 1.363 . S
C1190 N1188 1.356 . S
C1191 C1185 1.363 . S
C1191 C1186 1.379 . S
C1191 N1189 1.356 . S
N1192 C1184 1.358 . S
N1192 H1198 0.984 1_556 S
N1192 H1199 0.984 . S
N1193 C1186 1.356 . S
N1193 H1196 0.984 1_556 S
N1193 H1197 0.985 . S
H1194 N1189 0.984 . S
H1195 N1189 0.985 . S
H1196 N1193 0.984 1_554 S
H1197 N1193 0.985 . S
H1198 N1192 0.984 1_554 S
H1199 N1192 0.984 . S
H1200 N1188 0.984 . S
H1201 N1188 0.985 . S
C1202 C1203 1.363 . S
C1202 C1208 1.379 . S
C1202 N1210 1.356 . S
C1203 C1202 1.363 . S
C1203 C1209 1.363 . S
C1204 C1205 1.363 . S
C1204 C1209 1.379 . S
C1204 N1211 1.356 . S
C1205 C1204 1.363 . S
C1205 C1208 1.363 . S
N1206 C1208 1.356 . S
N1206 H1218 0.984 . S
N1206 H1219 0.985 . S
N1207 C1209 1.356 . S
N1207 H1212 0.984 . S
N1207 H1213 0.985 . S
C1208 C1202 1.379 . S
C1208 C1205 1.363 . S
C1208 N1206 1.356 . S
C1209 C1203 1.363 . S
C1209 C1204 1.379 . S
C1209 N1207 1.356 . S
N1210 C1202 1.356 . S
N1210 H1216 0.984 . S
N1210 H1217 0.984 . S
N1211 C1204 1.356 . S
N1211 H1214 0.984 . S
N1211 H1215 0.985 . S
H1212 N1207 0.984 . S
H1213 N1207 0.985 . S
H1214 N1211 0.984 . S
H1215 N1211 0.985 . S
H1216 N1210 0.984 . S
H1217 N1210 0.984 . S
H1218 N1206 0.984 . S
H1219 N1206 0.985 . S
C1220 C1221 1.363 . S
C1220 C1226 1.379 . S
C1220 N1228 1.356 . S
C1221 C1220 1.363 . S
C1221 C1227 1.363 . S
C1222 C1223 1.363 . S
C1222 C1227 1.379 . S
C1222 N1229 1.356 . S
C1223 C1222 1.363 . S
C1223 C1226 1.363 . S
N1224 C1226 1.356 . S
N1224 H1236 0.984 . S
N1224 H1237 0.985 . S
N1225 C1227 1.356 . S
N1225 H1230 0.984 . S
N1225 H1231 0.985 . S
C1226 C1220 1.379 . S
C1226 C1223 1.363 . S
C1226 N1224 1.356 . S
C1227 C1221 1.363 . S
C1227 C1222 1.379 . S
C1227 N1225 1.356 . S
N1228 C1220 1.356 . S
N1228 H1234 0.984 . S
N1228 H1235 0.984 . S
N1229 C1222 1.356 . S
N1229 H1232 0.984 . S
N1229 H1233 0.985 . S
H1230 N1225 0.984 . S
H1231 N1225 0.985 . S
H1232 N1229 0.984 . S
H1233 N1229 0.985 . S
H1234 N1228 0.984 . S
H1235 N1228 0.984 . S
H1236 N1224 0.984 . S
H1237 N1224 0.985 . S
C1238 C1239 1.363 . S
C1238 C1244 1.379 . S
C1238 N1246 1.356 . S
C1239 C1238 1.363 . S
C1239 C1245 1.363 . S
C1240 C1241 1.363 . S
C1240 C1245 1.379 . S
C1240 N1247 1.356 . S
C1241 C1240 1.363 . S
C1241 C1244 1.363 . S
N1242 C1244 1.356 . S
N1242 H1254 0.984 . S
N1242 H1255 0.985 . S
N1243 C1245 1.356 . S
N1243 H1248 0.984 . S
N1243 H1249 0.985 . S
C1244 C1238 1.379 . S
C1244 C1241 1.363 . S
C1244 N1242 1.356 . S
C1245 C1239 1.363 . S
C1245 C1240 1.379 . S
C1245 N1243 1.356 . S
N1246 C1238 1.356 . S
N1246 H1252 0.984 . S
N1246 H1253 0.984 . S
N1247 C1240 1.356 . S
N1247 H1250 0.984 . S
N1247 H1251 0.985 . S
H1248 N1243 0.984 . S
H1249 N1243 0.985 . S
H1250 N1247 0.984 . S
H1251 N1247 0.985 . S
H1252 N1246 0.984 . S
H1253 N1246 0.984 . S
H1254 N1242 0.984 . S
H1255 N1242 0.985 . S
C1256 C1257 1.363 1_554 S
C1256 C1262 1.379 . S
C1256 N1264 1.356 . S
C1257 C1256 1.363 1_556 S
C1257 C1263 1.363 . S
C1258 C1259 1.353 1_556 S
C1258 C1263 1.386 . S
C1258 N1265 1.356 1_556 S
C1259 C1258 1.353 1_554 S
C1259 C1262 1.363 . S
N1260 C1262 1.356 . S
N1260 H1272 0.984 . S
N1260 H1273 0.985 . S
N1261 C1263 1.356 . S
N1261 H1266 0.984 . S
N1261 H1267 0.985 . S
C1262 C1256 1.379 . S
C1262 C1259 1.363 . S
C1262 N1260 1.356 . S
C1263 C1257 1.363 . S
C1263 C1258 1.386 . S
C1263 N1261 1.356 . S
N1264 C1256 1.356 . S
N1264 H1270 0.984 . S
N1264 H1271 0.984 1_554 S
N1265 C1258 1.356 1_554 S
N1265 H1268 0.984 . S
N1265 H1269 0.985 1_554 S
H1266 N1261 0.984 . S
H1267 N1261 0.985 . S
H1268 N1265 0.984 . S
H1269 N1265 0.985 1_556 S
H1270 N1264 0.984 . S
H1271 N1264 0.984 1_556 S
H1272 N1260 0.984 . S
H1273 N1260 0.985 . S
C1274 C1275 1.363 . S
C1274 C1280 1.379 . S
C1274 N1282 1.356 . S
C1275 C1274 1.363 . S
C1275 C1281 1.363 . S
C1276 C1277 1.363 . S
C1276 C1281 1.379 . S
C1276 N1283 1.356 . S
C1277 C1276 1.363 . S
C1277 C1280 1.363 . S
N1278 C1280 1.356 . S
N1278 H1290 0.984 . S
N1278 H1291 0.985 . S
N1279 C1281 1.356 . S
N1279 H1284 0.984 . S
N1279 H1285 0.985 . S
C1280 C1274 1.379 . S
C1280 C1277 1.363 . S
C1280 N1278 1.356 . S
C1281 C1275 1.363 . S
C1281 C1276 1.379 . S
C1281 N1279 1.356 . S
N1282 C1274 1.356 . S
N1282 H1288 0.984 . S
N1282 H1289 0.984 . S
N1283 C1276 1.356 . S
N1283 H1286 0.984 . S
N1283 H1287 0.985 . S
H1284 N1279 0.984 . S
H1285 N1279 0.985 . S
H1286 N1283 0.984 . S
H1287 N1283 0.985 . S
H1288 N1282 0.984 . S
H1289 N1282 0.984 . S
H1290 N1278 0.984 . S
H1291 N1278 0.985 . S
C1292 C1293 1.363 . S
C1292 C1298 1.379 . S
C1292 N1300 1.356 . S
C1293 C1292 1.363 . S
C1293 C1299 1.363 . S
C1294 C1295 1.363 . S
C1294 C1299 1.379 . S
C1294 N1301 1.356 . S
C1295 C1294 1.363 . S
C1295 C1298 1.363 . S
N1296 C1298 1.356 . S
N1296 H1308 0.984 . S
N1296 H1309 0.985 . S
N1297 C1299 1.356 . S
N1297 H1302 0.984 . S
N1297 H1303 0.985 . S
C1298 C1292 1.379 . S
C1298 C1295 1.363 . S
C1298 N1296 1.356 . S
C1299 C1293 1.363 . S
C1299 C1294 1.379 . S
C1299 N1297 1.356 . S
N1300 C1292 1.356 . S
N1300 H1306 0.984 . S
N1300 H1307 0.984 . S
N1301 C1294 1.356 . S
N1301 H1304 0.984 . S
N1301 H1305 0.985 . S
H1302 N1297 0.984 . S
H1303 N1297 0.985 . S
H1304 N1301 0.984 . S
H1305 N1301 0.985 . S
H1306 N1300 0.984 . S
H1307 N1300 0.984 . S
H1308 N1296 0.984 . S
H1309 N1296 0.985 . S
C1310 C1311 1.363 . S
C1310 C1316 1.379 . S
C1310 N1318 1.356 . S
C1311 C1310 1.363 . S
C1311 C1317 1.363 . S
C1312 C1313 1.363 . S
C1312 C1317 1.379 . S
C1312 N1319 1.356 . S
C1313 C1312 1.363 . S
C1313 C1316 1.363 . S
N1314 C1316 1.356 . S
N1314 H1326 0.984 . S
N1314 H1327 0.985 . S
N1315 C1317 1.356 . S
N1315 H1320 0.984 . S
N1315 H1321 0.985 . S
C1316 C1310 1.379 . S
C1316 C1313 1.363 . S
C1316 N1314 1.356 . S
C1317 C1311 1.363 . S
C1317 C1312 1.379 . S
C1317 N1315 1.356 . S
N1318 C1310 1.356 . S
N1318 H1324 0.984 . S
N1318 H1325 0.984 . S
N1319 C1312 1.356 . S
N1319 H1322 0.984 . S
N1319 H1323 0.985 . S
H1320 N1315 0.984 . S
H1321 N1315 0.985 . S
H1322 N1319 0.984 . S
H1323 N1319 0.985 . S
H1324 N1318 0.984 . S
H1325 N1318 0.984 . S
H1326 N1314 0.984 . S
H1327 N1314 0.985 . S
C1328 C1329 1.363 . S
C1328 C1334 1.379 . S
C1328 N1336 1.356 . S
C1329 C1328 1.363 . S
C1329 C1335 1.363 . S
C1330 C1331 1.363 . S
C1330 C1335 1.379 . S
C1330 N1337 1.356 . S
C1331 C1330 1.363 . S
C1331 C1334 1.363 . S
N1332 C1334 1.356 . S
N1332 H1344 0.984 . S
N1332 H1345 0.985 . S
N1333 C1335 1.356 . S
N1333 H1338 0.984 . S
N1333 H1339 0.985 . S
C1334 C1328 1.379 . S
C1334 C1331 1.363 . S
C1334 N1332 1.356 . S
C1335 C1329 1.363 . S
C1335 C1330 1.379 . S
C1335 N1333 1.356 . S
N1336 C1328 1.356 . S
N1336 H1342 0.984 . S
N1336 H1343 0.984 . S
N1337 C1330 1.356 . S
N1337 H1340 0.984 . S
N1337 H1341 0.985 . S
H1338 N1333 0.984 . S
H1339 N1333 0.985 . S
H1340 N1337 0.984 . S
H1341 N1337 0.985 . S
H1342 N1336 0.984 . S
H1343 N1336 0.984 . S
H1344 N1332 0.984 . S
H1345 N1332 0.985 . S
C1346 C1347 1.363 1_565 S
C1346 C1352 1.379 . S
C1346 N1354 1.356 . S
C1347 C1346 1.363 1_545 S
C1347 C1353 1.363 . S
C1348 C1349 1.363 . S
C1348 C1353 1.379 . S
C1348 N1355 1.356 . S
C1349 C1348 1.363 . S
C1349 C1352 1.363 1_545 S
N1350 C1352 1.356 . S
N1350 H1362 0.984 . S
N1350 H1363 0.985 . S
N1351 C1353 1.356 . S
N1351 H1356 0.984 . S
N1351 H1357 0.985 . S
C1352 C1346 1.379 . S
C1352 C1349 1.363 1_565 S
C1352 N1350 1.356 . S
C1353 C1347 1.363 . S
C1353 C1348 1.379 . S
C1353 N1351 1.356 . S
N1354 C1346 1.356 . S
N1354 H1360 0.984 . S
N1354 H1361 0.984 . S
N1355 C1348 1.356 . S
N1355 H1358 0.984 . S
N1355 H1359 0.985 . S
H1356 N1351 0.984 . S
H1357 N1351 0.985 . S
H1358 N1355 0.984 . S
H1359 N1355 0.985 . S
H1360 N1354 0.984 . S
H1361 N1354 0.984 . S
H1362 N1350 0.984 . S
H1363 N1350 0.985 . S
C1364 C1365 1.363 1_556 S
C1364 C1370 1.379 . S
C1364 N1372 1.356 . S
C1365 C1364 1.363 1_554 S
C1365 C1371 1.363 . S
C1366 C1367 1.363 . S
C1366 C1371 1.379 1_556 S
C1366 N1373 1.356 . S
C1367 C1366 1.363 . S
C1367 C1370 1.363 . S
N1368 C1370 1.356 . S
N1368 H1380 0.984 . S
N1368 H1381 0.985 . S
N1369 C1371 1.356 . S
N1369 H1374 0.984 . S
N1369 H1375 0.985 . S
C1370 C1364 1.379 . S
C1370 C1367 1.363 . S
C1370 N1368 1.356 . S
C1371 C1365 1.363 . S
C1371 C1366 1.379 1_554 S
C1371 N1369 1.356 . S
N1372 C1364 1.356 . S
N1372 H1378 0.984 . S
N1372 H1379 0.984 1_556 S
N1373 C1366 1.356 . S
N1373 H1376 0.984 . S
N1373 H1377 0.985 1_556 S
H1374 N1369 0.984 . S
H1375 N1369 0.985 . S
H1376 N1373 0.984 . S
H1377 N1373 0.985 1_554 S
H1378 N1372 0.984 . S
H1379 N1372 0.984 1_554 S
H1380 N1368 0.984 . S
H1381 N1368 0.985 . S
C1382 C1383 1.363 . S
C1382 C1388 1.379 . S
C1382 N1390 1.356 . S
C1383 C1382 1.363 . S
C1383 C1389 1.363 . S
C1384 C1385 1.363 1_545 S
C1384 C1389 1.379 1_545 S
C1384 N1391 1.356 . S
C1385 C1384 1.363 1_565 S
C1385 C1388 1.363 . S
N1386 C1388 1.356 . S
N1386 H1398 0.984 . S
N1386 H1399 0.985 . S
N1387 C1389 1.356 1_545 S
N1387 H1392 0.984 1_545 S
N1387 H1393 0.985 . S
C1388 C1382 1.379 . S
C1388 C1385 1.363 . S
C1388 N1386 1.356 . S
C1389 C1383 1.363 . S
C1389 C1384 1.379 1_565 S
C1389 N1387 1.356 1_565 S
N1390 C1382 1.356 . S
N1390 H1396 0.984 . S
N1390 H1397 0.984 . S
N1391 C1384 1.356 . S
N1391 H1394 0.984 . S
N1391 H1395 0.985 . S
H1392 N1387 0.984 1_565 S
H1393 N1387 0.985 . S
H1394 N1391 0.984 . S
H1395 N1391 0.985 . S
H1396 N1390 0.984 . S
H1397 N1390 0.984 . S
H1398 N1386 0.984 . S
H1399 N1386 0.985 . S
C1400 C1401 1.363 . S
C1400 C1406 1.379 . S
C1400 N1408 1.356 . S
C1401 C1400 1.363 . S
C1401 C1407 1.363 . S
C1402 C1403 1.363 . S
C1402 C1407 1.379 . S
C1402 N1409 1.356 . S
C1403 C1402 1.363 . S
C1403 C1406 1.363 . S
N1404 C1406 1.356 . S
N1404 H1416 0.984 . S
N1404 H1417 0.985 . S
N1405 C1407 1.356 . S
N1405 H1410 0.984 . S
N1405 H1411 0.985 . S
C1406 C1400 1.379 . S
C1406 C1403 1.363 . S
C1406 N1404 1.356 . S
C1407 C1401 1.363 . S
C1407 C1402 1.379 . S
C1407 N1405 1.356 . S
N1408 C1400 1.356 . S
N1408 H1414 0.984 . S
N1408 H1415 0.984 . S
N1409 C1402 1.356 . S
N1409 H1412 0.984 . S
N1409 H1413 0.985 . S
H1410 N1405 0.984 . S
H1411 N1405 0.985 . S
H1412 N1409 0.984 . S
H1413 N1409 0.985 . S
H1414 N1408 0.984 . S
H1415 N1408 0.984 . S
H1416 N1404 0.984 . S
H1417 N1404 0.985 . S
C1418 C1419 1.363 . S
C1418 C1424 1.379 . S
C1418 N1426 1.356 . S
C1419 C1418 1.363 . S
C1419 C1425 1.363 . S
C1420 C1421 1.363 . S
C1420 C1425 1.379 . S
C1420 N1427 1.356 1_565 S
C1421 C1420 1.363 . S
C1421 C1424 1.363 . S
N1422 C1424 1.356 . S
N1422 H1434 0.984 . S
N1422 H1435 0.985 . S
N1423 C1425 1.356 1_545 S
N1423 H1428 0.984 1_545 S
N1423 H1429 0.985 . S
C1424 C1418 1.379 . S
C1424 C1421 1.363 . S
C1424 N1422 1.356 . S
C1425 C1419 1.363 . S
C1425 C1420 1.379 . S
C1425 N1423 1.356 1_565 S
N1426 C1418 1.356 . S
N1426 H1432 0.984 . S
N1426 H1433 0.984 . S
N1427 C1420 1.356 1_545 S
N1427 H1430 0.984 . S
N1427 H1431 0.985 . S
H1428 N1423 0.984 1_565 S
H1429 N1423 0.985 . S
H1430 N1427 0.984 . S
H1431 N1427 0.985 . S
H1432 N1426 0.984 . S
H1433 N1426 0.984 . S
H1434 N1422 0.984 . S
H1435 N1422 0.985 . S
C1436 C1437 1.363 . S
C1436 C1442 1.379 1_556 S
C1436 N1444 1.356 . S
C1437 C1436 1.363 . S
C1437 C1443 1.363 1_556 S
C1438 C1439 1.363 . S
C1438 C1443 1.379 . S
C1438 N1445 1.356 . S
C1439 C1438 1.363 . S
C1439 C1442 1.363 . S
N1440 C1442 1.356 . S
N1440 H1452 0.984 1_554 S
N1440 H1453 0.985 . S
N1441 C1443 1.356 . S
N1441 H1446 0.984 1_554 S
N1441 H1447 0.985 . S
C1442 C1436 1.379 1_554 S
C1442 C1439 1.363 . S
C1442 N1440 1.356 . S
C1443 C1437 1.363 1_554 S
C1443 C1438 1.379 . S
C1443 N1441 1.356 . S
N1444 C1436 1.356 . S
N1444 H1450 0.984 . S
N1444 H1451 0.984 . S
N1445 C1438 1.356 . S
N1445 H1448 0.984 . S
N1445 H1449 0.985 . S
H1446 N1441 0.984 1_556 S
H1447 N1441 0.985 . S
H1448 N1445 0.984 . S
H1449 N1445 0.985 . S
H1450 N1444 0.984 . S
H1451 N1444 0.984 . S
H1452 N1440 0.984 1_556 S
H1453 N1440 0.985 . S
C1454 C1455 1.363 . S
C1454 C1460 1.379 1_545 S
C1454 N1462 1.356 1_545 S
C1455 C1454 1.363 . S
C1455 C1461 1.363 . S
C1456 C1457 1.363 . S
C1456 C1461 1.379 . S
C1456 N1463 1.356 . S
C1457 C1456 1.363 . S
C1457 C1460 1.363 1_545 S
N1458 C1460 1.356 . S
N1458 H1470 0.984 . S
N1458 H1471 0.985 . S
N1459 C1461 1.356 . S
N1459 H1464 0.984 . S
N1459 H1465 0.985 . S
C1460 C1454 1.379 1_565 S
C1460 C1457 1.363 1_565 S
C1460 N1458 1.356 . S
C1461 C1455 1.363 . S
C1461 C1456 1.379 . S
C1461 N1459 1.356 . S
N1462 C1454 1.356 1_565 S
N1462 H1468 0.984 . S
N1462 H1469 0.984 1_565 S
N1463 C1456 1.356 . S
N1463 H1466 0.984 . S
N1463 H1467 0.985 . S
H1464 N1459 0.984 . S
H1465 N1459 0.985 . S
H1466 N1463 0.984 . S
H1467 N1463 0.985 . S
H1468 N1462 0.984 . S
H1469 N1462 0.984 1_545 S
H1470 N1458 0.984 . S
H1471 N1458 0.985 . S
C465 C269 1.113 . S
C467 C3 1.142 . S
C483 C298 1.113 . S
C485 C32 1.142 . S
C501 C327 1.113 . S
C503 C61 1.142 . S
C519 C240 1.113 . S
C521 C90 1.142 . S
C537 C119 1.142 . S
C539 C385 1.113 . S
C555 C414 1.113 . S
C557 C148 1.142 . S
C573 C443 1.113 . S
C575 C177 1.142 . S
C591 C206 1.142 . S
C593 C356 1.113 . S
C609 C37 1.113 . S
C611 C235 1.142 . S
C627 C66 1.113 . S
C629 C264 1.142 . S
C645 C293 1.142 . S
C647 C95 1.113 . S
C663 C8 1.113 . S
C665 C322 1.142 . S
C681 C153 1.113 . S
C683 C351 1.142 . S
C699 C380 1.142 . S
C701 C182 1.113 . S
C717 C409 1.142 . S
C719 C211 1.113 . S
C735 C124 1.113 . S
C737 C438 1.142 . S
C753 C213 2.234 . S
C755 C15 2.313 . S
C771 C44 2.313 . S
C773 C358 2.234 . S
C789 C73 2.313 . S
C791 C155 2.234 . S
C807 C416 2.234 . S
C809 C102 2.313 . S
C825 C97 2.234 . S
C827 C131 2.313 . S
C843 C242 2.234 . S
C845 C160 2.313 . S
C861 C39 2.234 . S
C863 C189 2.313 . S
C879 C300 2.234 . S
C881 C218 2.313 . S
C897 C247 2.313 . S
C899 C445 2.234 . S
C915 C276 2.313 1_565 S
C917 C126 2.234 . S
C933 C387 2.234 . S
C935 C305 2.313 . S
C951 C184 2.234 . S
C953 C334 2.313 1_545 S
C969 C363 2.313 . S
C971 C329 2.234 . S
C987 C392 2.313 1_545 S
C989 C10 2.234 . S
C1005 C421 2.313 . S
C1007 C271 2.234 . S
C1023 C450 2.313 1_565 S
C1025 C68 2.234 . S
C1041 C121 2.404 . S
C1043 C5 2.404 . S
C1059 C34 2.404 . S
C1061 C382 2.404 . S
C1077 C179 2.404 . S
C1079 C63 2.404 . S
C1095 C440 2.404 . S
C1097 C92 2.404 . S
C1113 C266 2.404 . S
C1115 C150 2.404 . S
C1131 C208 2.404 . S
C1133 C324 2.404 . S
C1149 C237 2.404 . S
C1151 C353 2.404 . S
C1167 C295 2.404 . S
C1169 C411 2.404 . S
C1185 C419 1.379 . S
C1187 C21 1.226 . S
C1203 C216 1.379 . S
C1205 C50 1.226 . S
C1221 C79 1.226 . S
C1223 C361 1.379 . S
C1239 C158 1.379 . S
C1241 C108 1.226 . S
C1257 C137 1.226 . S
C1259 C303 1.379 . S
C1275 C166 1.226 . S
C1277 C100 1.379 . S
C1293 C195 1.226 . S
C1295 C245 1.379 . S
C1311 C42 1.379 . S
C1313 C224 1.226 . S
C1329 C253 1.226 . S
C1331 C187 1.379 . S
C1347 C448 1.379 . S
C1349 C282 1.226 . S
C1365 C311 1.226 . S
C1367 C129 1.379 . S
C1383 C340 1.226 . S
C1385 C390 1.379 . S
C1401 C71 1.379 . S
C1403 C369 1.226 . S
C1419 C398 1.226 . S
C1421 C332 1.379 . S
C1437 C427 1.226 . S
C1439 C13 1.379 . S
C1455 C456 1.226 . S
C1457 C274 1.379 . S
