# Generated by pormake.
# Topology uoj, (4)-cn, num edge types: 1
# Building blocks:
#     Node 0, Type 0, BuildingBlock: ICAMEG_clean_sbu_1, # of connection points: 4
#     Node 1, Type 0, BuildingBlock: ICAMEG_clean_sbu_1, # of connection points: 4
#     Node 2, Type 0, BuildingBlock: ICAMEG_clean_sbu_1, # of connection points: 4
#     Node 3, Type 0, BuildingBlock: ICAMEG_clean_sbu_1, # of connection points: 4
#     Node 4, Type 0, BuildingBlock: ICAMEG_clean_sbu_1, # of connection points: 4
#     Node 5, Type 0, BuildingBlock: ICAMEG_clean_sbu_1, # of connection points: 4
#     Node 6, Type 0, BuildingBlock: ICAMEG_clean_sbu_1, # of connection points: 4
#     Node 7, Type 0, BuildingBlock: ICAMEG_clean_sbu_1, # of connection points: 4
#     Edge 8, Type (0, 0), BuildingBlock: UVAHIK_clean_linker_0, # of connection points: 2
#     Edge 9, Type (0, 0), BuildingBlock: UVAHIK_clean_linker_0, # of connection points: 2
#     Edge 10, Type (0, 0), BuildingBlock: UVAHIK_clean_linker_0, # of connection points: 2
#     Edge 11, Type (0, 0), BuildingBlock: UVAHIK_clean_linker_0, # of connection points: 2
#     Edge 12, Type (0, 0), BuildingBlock: UVAHIK_clean_linker_0, # of connection points: 2
#     Edge 13, Type (0, 0), BuildingBlock: UVAHIK_clean_linker_0, # of connection points: 2
#     Edge 14, Type (0, 0), BuildingBlock: UVAHIK_clean_linker_0, # of connection points: 2
#     Edge 15, Type (0, 0), BuildingBlock: UVAHIK_clean_linker_0, # of connection points: 2
#     Edge 16, Type (0, 0), BuildingBlock: UVAHIK_clean_linker_0, # of connection points: 2
#     Edge 17, Type (0, 0), BuildingBlock: UVAHIK_clean_linker_0, # of connection points: 2
#     Edge 18, Type (0, 0), BuildingBlock: UVAHIK_clean_linker_0, # of connection points: 2
#     Edge 19, Type (0, 0), BuildingBlock: UVAHIK_clean_linker_0, # of connection points: 2
#     Edge 20, Type (0, 0), BuildingBlock: UVAHIK_clean_linker_0, # of connection points: 2
#     Edge 21, Type (0, 0), BuildingBlock: UVAHIK_clean_linker_0, # of connection points: 2
#     Edge 22, Type (0, 0), BuildingBlock: UVAHIK_clean_linker_0, # of connection points: 2
#     Edge 23, Type (0, 0), BuildingBlock: UVAHIK_clean_linker_0, # of connection points: 2
# Relax obj value: 0.080
# Max RMSD: 0.094
# Mean RMSD: 0.093
data_MOF--net-uoj--node1-ICAMEG_clean_sbu_1--edge1-UVAHIK_clean_linker_0
_symmetry_space_group_name_H-M    P1
_symmetry_Int_Tables_number       1
_symmetry_cell_setting            triclinic
loop_
_symmetry_equiv_pos_as_xyz
'x, y, z'
_cell_length_a     46.684676
_cell_length_b     46.690427
_cell_length_c     42.957478
_cell_angle_alpha  89.947448
_cell_angle_beta   89.97175
_cell_angle_gamma 89.943541
loop_
_atom_site_label
_atom_site_type_symbol
_atom_site_fract_x
_atom_site_fract_y
_atom_site_fract_z
_atom_type_partial_charge
Co0 Co 0.02165 0.30413 0.42779 0.0
Co1 Co 0.08536 0.30688 0.4673 0.0
O2 O 0.05022 0.28722 0.45532 0.0
C3 C 0.9882 0.28465 0.48228 0.0
O4 O 0.0078 0.29612 0.50025 0.0
C5 C 0.1061 0.25142 0.44317 0.0
O6 O 0.09173 0.25675 0.41753 0.0
O7 O 0.0951 0.31418 0.42294 0.0
O8 O 0.0519 0.32279 0.4019 0.0
H9 H 0.15837 0.38584 0.46411 0.0
H10 H 0.0207 0.24167 0.4401 0.0
O11 O 0.99056 0.28591 0.45279 0.0
H12 H 0.03299 0.25103 0.32652 0.0
H13 H 0.93042 0.30384 0.36533 0.0
H14 H 0.01335 0.3613 0.39904 0.0
H15 H 0.02834 0.29395 0.35955 0.0
H16 H 0.96756 0.28275 0.39917 0.0
O17 O 0.1061 0.26943 0.46544 0.0
H18 H 0.11352 0.3614 0.44949 0.0
H19 H 0.13339 0.29235 0.5102 0.0
H20 H 0.97684 0.38318 0.365 0.0
H21 H 0.02502 0.19816 0.4079 0.0
H22 H 0.935 0.35437 0.34791 0.0
H23 H 0.0313 0.2027 0.35068 0.0
O24 O 0.01944 0.33874 0.45438 0.0
H25 H 0.05373 0.24633 0.55776 0.0
H26 H 0.08324 0.34304 0.52452 0.0
H27 H 0.07015 0.33456 0.57938 0.0
H28 H 0.05532 0.2859 0.59633 0.0
H29 H 0.0667 0.25581 0.50306 0.0
H30 H 0.17858 0.31591 0.52528 0.0
H31 H 0.19125 0.36306 0.50227 0.0
O32 O 0.06512 0.34477 0.46942 0.0
C33 C 0.07918 0.32292 0.4008 0.0
C34 C 0.15303 0.36535 0.47438 0.0
C35 C 0.1644 0.32609 0.50869 0.0
N36 N 0.12073 0.32564 0.47922 0.0
C37 C 0.12763 0.35146 0.46627 0.0
C38 C 0.13881 0.31283 0.50002 0.0
C39 C 0.17149 0.35254 0.49577 0.0
C40 C 0.02313 0.24381 0.41519 0.0
N41 N 0.02409 0.27031 0.40172 0.0
C42 C 0.02569 0.2191 0.39708 0.0
C43 C 0.02926 0.22166 0.36499 0.0
C44 C 0.03022 0.24877 0.35142 0.0
C45 C 0.02763 0.273 0.37026 0.0
C46 C 0.94858 0.31659 0.37255 0.0
C47 C 0.99531 0.34858 0.39153 0.0
C48 C 0.96965 0.30478 0.39176 0.0
N49 N 0.99273 0.32071 0.40083 0.0
C50 C 0.97465 0.36111 0.37234 0.0
C51 C 0.95117 0.34494 0.36278 0.0
C52 C 0.0394 0.35374 0.46634 0.0
C53 C 0.06024 0.2676 0.55068 0.0
C54 C 0.07668 0.32183 0.53167 0.0
C55 C 0.06938 0.31714 0.5628 0.0
C56 C 0.06109 0.28983 0.57229 0.0
N57 N 0.07581 0.29992 0.51062 0.0
C58 C 0.06773 0.27307 0.51976 0.0
Co59 Co 0.30205 0.97797 0.57554 0.0
Co60 Co 0.30951 0.91465 0.53648 0.0
O61 O 0.28728 0.94838 0.54797 0.0
C62 C 0.27948 0.01044 0.52152 0.0
O63 O 0.29354 0.99301 0.50302 0.0
C64 C 0.25495 0.89063 0.5592 0.0
O65 O 0.25887 0.90526 0.58493 0.0
O66 O 0.31626 0.90545 0.58105 0.0
O67 O 0.32321 0.9492 0.60125 0.0
H68 H 0.39304 0.84689 0.54188 0.0
H69 H 0.23959 0.97401 0.56394 0.0
O70 O 0.28101 0.00747 0.55093 0.0
H71 H 0.25084 0.96246 0.6774 0.0
H72 H 0.29511 0.06874 0.63829 0.0
H73 H 0.35861 0.9905 0.60375 0.0
H74 H 0.29298 0.97052 0.64391 0.0
H75 H 0.27673 0.0302 0.60455 0.0
O76 O 0.27345 0.89161 0.5374 0.0
H77 H 0.36535 0.89008 0.55576 0.0
H78 H 0.29918 0.86579 0.49335 0.0
H79 H 0.37784 0.02848 0.63768 0.0
H80 H 0.19684 0.96627 0.59663 0.0
H81 H 0.34599 0.06797 0.65519 0.0
H82 H 0.20234 0.96034 0.65378 0.0
O83 O 0.33615 0.9828 0.54851 0.0
H84 H 0.24923 0.94277 0.4445 0.0
H85 H 0.34676 0.91885 0.48017 0.0
H86 H 0.33874 0.93143 0.42509 0.0
H87 H 0.28968 0.94346 0.40692 0.0
H88 H 0.25824 0.93034 0.49944 0.0
H89 H 0.32603 0.82221 0.47899 0.0
H90 H 0.37338 0.81261 0.50323 0.0
O91 O 0.34603 0.93732 0.53525 0.0
C92 C 0.32409 0.92196 0.60304 0.0
C93 C 0.37248 0.85089 0.53108 0.0
C94 C 0.33486 0.83702 0.4958 0.0
N95 N 0.33084 0.88057 0.52514 0.0
C96 C 0.35676 0.87535 0.53877 0.0
C97 C 0.31973 0.86169 0.50407 0.0
C98 C 0.36143 0.83165 0.50941 0.0
C99 C 0.24213 0.97175 0.58883 0.0
N100 N 0.26874 0.97287 0.602 0.0
C101 C 0.21785 0.96725 0.60721 0.0
C102 C 0.22096 0.96388 0.63926 0.0
C103 C 0.24817 0.96505 0.65253 0.0
C104 C 0.27196 0.96956 0.63343 0.0
C105 C 0.30919 0.05163 0.63087 0.0
C106 C 0.34458 0.00752 0.61142 0.0
C107 C 0.29891 0.02978 0.61171 0.0
N108 N 0.31653 0.00801 0.6024 0.0
C109 C 0.35561 0.02901 0.63056 0.0
C110 C 0.33774 0.05117 0.64035 0.0
C111 C 0.35285 0.96375 0.53738 0.0
C112 C 0.27069 0.9375 0.45211 0.0
C113 C 0.32536 0.92417 0.47248 0.0
C114 C 0.32094 0.9312 0.44124 0.0
C115 C 0.2934 0.93792 0.43105 0.0
N116 N 0.30297 0.92377 0.49299 0.0
C117 C 0.27591 0.93032 0.48317 0.0
Co118 Co 0.97873 0.70102 0.4208 0.0
Co119 Co 0.91675 0.69249 0.46289 0.0
O120 O 0.94987 0.71494 0.44984 0.0
C121 C 0.01246 0.72115 0.47484 0.0
O122 O 0.99486 0.70707 0.49314 0.0
C123 C 0.8917 0.74622 0.43929 0.0
O124 O 0.9063 0.74195 0.41358 0.0
O125 O 0.90641 0.68421 0.41891 0.0
O126 O 0.94914 0.68127 0.39519 0.0
H127 H 0.85027 0.60793 0.46212 0.0
H128 H 0.97551 0.76295 0.43554 0.0
O129 O 0.00904 0.7207 0.44546 0.0
H130 H 0.96098 0.75652 0.32207 0.0
H131 H 0.06791 0.70979 0.35553 0.0
H132 H 0.99007 0.64561 0.38949 0.0
H133 H 0.96959 0.71298 0.35322 0.0
H134 H 0.03039 0.72709 0.39136 0.0
O135 O 0.89303 0.72816 0.46151 0.0
H136 H 0.89265 0.63583 0.4461 0.0
H137 H 0.86885 0.70321 0.50725 0.0
H138 H 0.02702 0.62748 0.35345 0.0
H139 H 0.96719 0.80707 0.40522 0.0
H140 H 0.06629 0.65968 0.33623 0.0
H141 H 0.95976 0.804 0.34807 0.0
O142 O 0.98419 0.66576 0.44598 0.0
H143 H 0.94614 0.75558 0.55203 0.0
H144 H 0.92316 0.65681 0.52011 0.0
H145 H 0.93709 0.66643 0.57448 0.0
H146 H 0.94866 0.71612 0.59075 0.0
H147 H 0.93236 0.74498 0.49784 0.0
H148 H 0.82608 0.67614 0.52376 0.0
H149 H 0.81664 0.62809 0.50124 0.0
O150 O 0.94009 0.65648 0.46445 0.0
C151 C 0.92202 0.67818 0.39547 0.0
C152 C 0.85421 0.6288 0.4722 0.0
C153 C 0.84061 0.6671 0.50676 0.0
N154 N 0.88335 0.67096 0.47597 0.0
C155 C 0.87821 0.64465 0.46329 0.0
C156 C 0.86483 0.68234 0.49729 0.0
C157 C 0.83533 0.64013 0.49412 0.0
C158 C 0.97258 0.76147 0.41063 0.0
N159 N 0.97319 0.73543 0.39616 0.0
C160 C 0.96776 0.78652 0.39361 0.0
C161 C 0.96355 0.78477 0.36155 0.0
C162 C 0.96421 0.75814 0.34695 0.0
C163 C 0.96904 0.73355 0.36473 0.0
C164 C 0.05088 0.69557 0.36281 0.0
C165 C 0.00701 0.65979 0.38196 0.0
C166 C 0.02961 0.70523 0.38315 0.0
N167 N 0.00795 0.68743 0.3923 0.0
C168 C 0.0279 0.64938 0.36161 0.0
C169 C 0.04995 0.66745 0.35199 0.0
C170 C 0.96614 0.64944 0.45948 0.0
C171 C 0.94107 0.73385 0.54525 0.0
C172 C 0.92826 0.67848 0.52699 0.0
C173 C 0.93606 0.6838 0.55783 0.0
C174 C 0.94252 0.7117 0.56695 0.0
N175 N 0.92685 0.70033 0.50585 0.0
C176 C 0.93314 0.72774 0.51462 0.0
Co177 Co 0.69849 0.02316 0.57081 0.0
Co178 Co 0.69295 0.08669 0.53137 0.0
O179 O 0.7143 0.05243 0.54328 0.0
C180 C 0.72049 0.98995 0.51708 0.0
O181 O 0.70755 0.00802 0.49833 0.0
C182 C 0.74754 0.10982 0.55498 0.0
O183 O 0.74389 0.09374 0.57976 0.0
O184 O 0.68567 0.09604 0.57581 0.0
O185 O 0.67799 0.05248 0.59627 0.0
H186 H 0.61053 0.15588 0.53536 0.0
H187 H 0.76113 0.02508 0.55959 0.0
O188 O 0.71875 0.99301 0.54645 0.0
H189 H 0.74953 0.03739 0.6729 0.0
H190 H 0.70257 0.93236 0.63401 0.0
H191 H 0.64141 0.01219 0.59867 0.0
H192 H 0.70737 0.03062 0.63918 0.0
H193 H 0.72222 0.97033 0.60025 0.0
O194 O 0.7292 0.10939 0.53303 0.0
H195 H 0.63726 0.11221 0.5497 0.0
H196 H 0.70469 0.13534 0.48825 0.0
H197 H 0.62094 0.9748 0.6326 0.0
H198 H 0.80391 0.03148 0.59253 0.0
H199 H 0.65161 0.93452 0.6505 0.0
H200 H 0.79824 0.0378 0.6496 0.0
O201 O 0.66437 0.01917 0.54367 0.0
H202 H 0.75431 0.05756 0.44064 0.0
H203 H 0.65658 0.0831 0.47436 0.0
H204 H 0.66534 0.07033 0.41947 0.0
H205 H 0.71451 0.05749 0.40229 0.0
H206 H 0.74455 0.07022 0.49538 0.0
H207 H 0.67881 0.17939 0.47343 0.0
H208 H 0.63132 0.18982 0.49696 0.0
O209 O 0.65609 0.06472 0.52949 0.0
C210 C 0.67739 0.07972 0.5978 0.0
C211 C 0.63116 0.15152 0.52487 0.0
C212 C 0.6695 0.16474 0.49014 0.0
N213 N 0.67236 0.12112 0.51961 0.0
C214 C 0.64635 0.1268 0.53283 0.0
C215 C 0.68408 0.1398 0.49866 0.0
C216 C 0.64285 0.17057 0.50334 0.0
C217 C 0.75851 0.02751 0.58445 0.0
N218 N 0.73179 0.02734 0.59744 0.0
C219 C 0.7828 0.03125 0.60297 0.0
C220 C 0.7796 0.03484 0.63498 0.0
C221 C 0.75228 0.03464 0.64807 0.0
C222 C 0.72848 0.03086 0.62883 0.0
C223 C 0.689 0.94983 0.62641 0.0
C224 C 0.65493 0.99482 0.60651 0.0
C225 C 0.7 0.97136 0.60724 0.0
N226 N 0.68303 0.99356 0.59769 0.0
C227 C 0.6432 0.97367 0.62565 0.0
C228 C 0.66041 0.95106 0.63566 0.0
C229 C 0.64837 0.03858 0.53208 0.0
C230 C 0.73281 0.0632 0.44783 0.0
C231 C 0.67802 0.07743 0.46709 0.0
C232 C 0.68286 0.07029 0.43596 0.0
C233 C 0.71046 0.06312 0.42633 0.0
N234 N 0.70006 0.07749 0.48802 0.0
C235 C 0.72718 0.07049 0.47876 0.0
Co236 Co 0.47208 0.80259 0.92634 0.0
Co237 Co 0.41089 0.8098 0.96966 0.0
O238 O 0.4438 0.78759 0.95547 0.0
C239 C 0.50683 0.77964 0.97824 0.0
O240 O 0.48973 0.79308 0.99762 0.0
C241 C 0.38523 0.75613 0.94685 0.0
O242 O 0.3991 0.76046 0.92067 0.0
O243 O 0.39946 0.81787 0.92596 0.0
O244 O 0.44211 0.82408 0.90269 0.0
H245 H 0.34376 0.89398 0.97079 0.0
H246 H 0.46872 0.74003 0.93755 0.0
O247 O 0.50278 0.78138 0.949 0.0
H248 H 0.45125 0.75238 0.82513 0.0
H249 H 0.55954 0.79603 0.85809 0.0
H250 H 0.48333 0.85938 0.89794 0.0
H251 H 0.46102 0.79419 0.85849 0.0
H252 H 0.52271 0.77743 0.89398 0.0
O253 O 0.38736 0.77402 0.96911 0.0
H254 H 0.38588 0.86628 0.95346 0.0
H255 H 0.36428 0.79884 0.01555 0.0
H256 H 0.51959 0.87883 0.8619 0.0
H257 H 0.4593 0.69759 0.90498 0.0
H258 H 0.55804 0.84705 0.84171 0.0
H259 H 0.45039 0.70365 0.84836 0.0
O260 O 0.4784 0.83642 0.95332 0.0
H261 H 0.44296 0.74684 0.05796 0.0
H262 H 0.41856 0.84553 0.02662 0.0
H263 H 0.43395 0.83595 0.08055 0.0
H264 H 0.44623 0.7863 0.09653 0.0
H265 H 0.42774 0.75741 0.00419 0.0
H266 H 0.32178 0.82569 0.03337 0.0
H267 H 0.31138 0.87367 0.01103 0.0
O268 O 0.43396 0.84609 0.97046 0.0
C269 C 0.41485 0.82579 0.90303 0.0
C270 C 0.34813 0.87314 0.98078 0.0
C271 C 0.33577 0.83479 0.01588 0.0
N272 N 0.37768 0.83113 0.98373 0.0
C273 C 0.37199 0.85741 0.97114 0.0
C274 C 0.35983 0.81968 0.00567 0.0
C275 C 0.32995 0.86172 0.00334 0.0
C276 C 0.46516 0.7428 0.91288 0.0
N277 N 0.46558 0.76954 0.89993 0.0
C278 C 0.45972 0.71871 0.89457 0.0
C279 C 0.45467 0.72213 0.86281 0.0
C280 C 0.45514 0.74946 0.84977 0.0
C281 C 0.46062 0.77307 0.8688 0.0
C282 C 0.54286 0.81007 0.86667 0.0
C283 C 0.4999 0.84538 0.8891 0.0
C284 C 0.52198 0.79967 0.88704 0.0
N285 N 0.50076 0.81725 0.89783 0.0
C286 C 0.52041 0.85653 0.86877 0.0
C287 C 0.542 0.8387 0.85748 0.0
C288 C 0.46019 0.85291 0.96628 0.0
C289 C 0.43758 0.76855 0.0513 0.0
C290 C 0.42397 0.82388 0.03336 0.0
C291 C 0.4326 0.81858 0.06395 0.0
C292 C 0.43946 0.79071 0.07292 0.0
N293 N 0.42216 0.80203 0.0123 0.0
C294 C 0.42883 0.77464 0.02092 0.0
Co295 Co 0.80274 0.57983 0.03837 0.0
Co296 Co 0.79174 0.51526 0.07549 0.0
O297 O 0.78023 0.54537 0.04656 0.0
C298 C 0.74661 0.60233 0.05821 0.0
O299 O 0.74879 0.58591 0.08292 0.0
C300 C 0.78004 0.48435 0.01665 0.0
O301 O 0.79302 0.50494 0.00136 0.0
O302 O 0.83026 0.5128 0.05594 0.0
O303 O 0.83921 0.55736 0.03861 0.0
H304 H 0.85798 0.46648 0.15095 0.0
H305 H 0.75364 0.56579 0.99728 0.0
O306 O 0.76656 0.60277 0.03797 0.0
H307 H 0.83824 0.56727 0.92852 0.0
H308 H 0.82171 0.67452 0.98621 0.0
H309 H 0.85726 0.60377 0.0623 0.0
H310 H 0.84309 0.57766 0.98454 0.0
H311 H 0.79446 0.63031 0.99681 0.0
O312 O 0.77749 0.48547 0.04612 0.0
H313 H 0.84288 0.50464 0.11473 0.0
H314 H 0.76493 0.46075 0.09701 0.0
H315 H 0.88529 0.64758 0.05225 0.0
H316 H 0.74779 0.55555 0.94134 0.0
H317 H 0.86753 0.68331 0.01395 0.0
H318 H 0.79031 0.55616 0.90656 0.0
O319 O 0.80727 0.5876 0.08368 0.0
H320 H 0.68431 0.5212 0.07434 0.0
H321 H 0.77034 0.51959 0.14086 0.0
H322 H 0.72268 0.52437 0.16507 0.0
H323 H 0.67923 0.52518 0.13173 0.0
H324 H 0.73242 0.51668 0.05108 0.0
H325 H 0.77929 0.42199 0.13284 0.0
H326 H 0.82606 0.42478 0.1602 0.0
O327 O 0.80622 0.54404 0.10573 0.0
C328 C 0.84689 0.53162 0.04423 0.0
C329 C 0.8375 0.46506 0.13925 0.0
C330 C 0.79335 0.44008 0.12905 0.0
N331 N 0.80296 0.48503 0.10398 0.0
C332 C 0.82881 0.48664 0.11878 0.0
C333 C 0.78537 0.46206 0.10875 0.0
C334 C 0.8196 0.44166 0.1444 0.0
C335 C 0.7722 0.56638 0.98225 0.0
N336 N 0.79865 0.57242 0.99416 0.0
C337 C 0.76878 0.56044 0.95061 0.0
C338 C 0.79265 0.56074 0.93112 0.0
C339 C 0.81955 0.56694 0.94343 0.0
C340 C 0.82217 0.57273 0.9752 0.0
C341 C 0.8297 0.65908 0.0029 0.0
C342 C 0.84949 0.61914 0.04545 0.0
C343 C 0.81435 0.63404 0.00903 0.0
N344 N 0.82441 0.61438 0.02994 0.0
C345 C 0.86541 0.64394 0.03993 0.0
C346 C 0.85542 0.66399 0.01847 0.0
C347 C 0.80993 0.57103 0.1071 0.0
C348 C 0.70307 0.5208 0.08912 0.0
C349 C 0.75155 0.51998 0.12619 0.0
C350 C 0.72461 0.52263 0.14004 0.0
C351 C 0.70024 0.52307 0.12132 0.0
N352 N 0.75415 0.51773 0.09459 0.0
C353 C 0.73036 0.51812 0.07609 0.0
Co354 Co 0.52627 0.19591 0.92086 0.0
Co355 Co 0.58829 0.19149 0.9636 0.0
O356 O 0.55448 0.2123 0.94923 0.0
C357 C 0.49144 0.21776 0.97329 0.0
O358 O 0.50963 0.20562 0.99252 0.0
C359 C 0.6121 0.24487 0.9377 0.0
O360 O 0.59624 0.24031 0.91298 0.0
O361 O 0.59923 0.18209 0.92009 0.0
O362 O 0.55668 0.17561 0.89676 0.0
H363 H 0.65736 0.10895 0.96701 0.0
H364 H 0.52694 0.25862 0.93157 0.0
O365 O 0.49506 0.21586 0.944 0.0
H366 H 0.54339 0.24651 0.81895 0.0
H367 H 0.43751 0.19852 0.85438 0.0
H368 H 0.51688 0.13854 0.89315 0.0
H369 H 0.53599 0.20447 0.85277 0.0
H370 H 0.47414 0.21881 0.88933 0.0
O371 O 0.61121 0.22754 0.96062 0.0
H372 H 0.6143 0.13502 0.94943 0.0
H373 H 0.63541 0.20517 0.00792 0.0
H374 H 0.48085 0.11743 0.85804 0.0
H375 H 0.53397 0.30128 0.89854 0.0
H376 H 0.4408 0.1475 0.83841 0.0
H377 H 0.54237 0.29535 0.84181 0.0
O378 O 0.52171 0.1619 0.94813 0.0
H379 H 0.55638 0.25717 0.04947 0.0
H380 H 0.58244 0.15788 0.02239 0.0
H381 H 0.56778 0.16926 0.07615 0.0
H382 H 0.55466 0.21922 0.08999 0.0
H383 H 0.57093 0.2448 0.99592 0.0
H384 H 0.67885 0.17998 0.02594 0.0
H385 H 0.68997 0.13146 0.00554 0.0
O386 O 0.56614 0.15484 0.96667 0.0
C387 C 0.58393 0.17404 0.89719 0.0
C388 C 0.65269 0.13004 0.97616 0.0
C389 C 0.66476 0.16992 0.0092 0.0
N390 N 0.62222 0.17145 0.97787 0.0
C391 C 0.62829 0.14486 0.96636 0.0
C392 C 0.64018 0.1841 0.99887 0.0
C393 C 0.67099 0.14269 0.99775 0.0
C394 C 0.53028 0.25589 0.90686 0.0
N395 N 0.53091 0.22909 0.89411 0.0
C396 C 0.53437 0.28011 0.88829 0.0
C397 C 0.53913 0.27677 0.85647 0.0
C398 C 0.53973 0.24937 0.84363 0.0
C399 C 0.53558 0.22564 0.86292 0.0
C400 C 0.45489 0.18521 0.86272 0.0
C401 C 0.49962 0.15181 0.88454 0.0
C402 C 0.47566 0.19657 0.88256 0.0
N403 N 0.49775 0.17993 0.89305 0.0
C404 C 0.47923 0.13971 0.86474 0.0
C405 C 0.45676 0.15659 0.85376 0.0
C406 C 0.54036 0.14669 0.96217 0.0
C407 C 0.56213 0.23534 0.04375 0.0
C408 C 0.57667 0.17965 0.02821 0.0
C409 C 0.56845 0.18598 0.0587 0.0
C410 C 0.56112 0.21403 0.06646 0.0
N411 N 0.57763 0.20069 0.00608 0.0
C412 C 0.5705 0.22823 0.01351 0.0
Co413 Co 0.18726 0.4053 0.03458 0.0
Co414 Co 0.19891 0.47091 0.06808 0.0
O415 O 0.21027 0.43955 0.04098 0.0
C416 C 0.24335 0.38288 0.05435 0.0
O417 O 0.24114 0.39957 0.07881 0.0
C418 C 0.20571 0.52009 0.02525 0.0
O419 O 0.17887 0.52659 0.03108 0.0
O420 O 0.16165 0.4739 0.046 0.0
O421 O 0.15087 0.42813 0.03488 0.0
H422 H 0.13102 0.52663 0.13571 0.0
H423 H 0.23543 0.41819 0.99174 0.0
O424 O 0.22333 0.38212 0.0342 0.0
H425 H 0.14952 0.41369 0.92517 0.0
H426 H 0.16654 0.30907 0.98697 0.0
H427 H 0.13304 0.38266 0.06083 0.0
H428 H 0.14581 0.40555 0.98177 0.0
H429 H 0.19433 0.35337 0.99504 0.0
O430 O 0.21696 0.49795 0.03761 0.0
H431 H 0.14598 0.4864 0.10226 0.0
H432 H 0.22803 0.52406 0.0903 0.0
H433 H 0.10445 0.3388 0.05329 0.0
H434 H 0.24014 0.42621 0.9352 0.0
H435 H 0.12119 0.30164 0.01612 0.0
H436 H 0.19697 0.424 0.90152 0.0
O437 O 0.18377 0.39929 0.0802 0.0
H438 H 0.30586 0.45982 0.07434 0.0
H439 H 0.2164 0.46751 0.13487 0.0
H440 H 0.26232 0.46127 0.16238 0.0
H441 H 0.30748 0.45743 0.13207 0.0
H442 H 0.25944 0.46579 0.04774 0.0
H443 H 0.21393 0.56476 0.12356 0.0
H444 H 0.16512 0.56619 0.14655 0.0
O445 O 0.18108 0.44416 0.09886 0.0
C446 C 0.14414 0.45458 0.0372 0.0
C447 C 0.15237 0.52623 0.12589 0.0
C448 C 0.1989 0.54763 0.11906 0.0
N449 N 0.18789 0.5028 0.0945 0.0
C450 C 0.16097 0.50348 0.10697 0.0
C451 C 0.20676 0.52453 0.10026 0.0
C452 C 0.17151 0.54842 0.13195 0.0
C453 C 0.21657 0.41703 0.97721 0.0
N454 N 0.19041 0.41126 0.99001 0.0
C455 C 0.21936 0.42166 0.94522 0.0
C456 C 0.19512 0.42045 0.92634 0.0
C457 C 0.16849 0.41468 0.9396 0.0
C458 C 0.16651 0.41017 0.97167 0.0
C459 C 0.15899 0.32514 0.00317 0.0
C460 C 0.14035 0.36667 0.04446 0.0
C461 C 0.17466 0.35023 0.00787 0.0
N462 N 0.16515 0.37068 0.02815 0.0
C463 C 0.12412 0.34184 0.04036 0.0
C464 C 0.13354 0.32098 0.01953 0.0
C465 C 0.17891 0.41708 0.10205 0.0
C466 C 0.28634 0.46159 0.08781 0.0
C467 C 0.23594 0.46581 0.12149 0.0
C468 C 0.26189 0.46233 0.13721 0.0
C469 C 0.28723 0.4602 0.1202 0.0
N470 N 0.23524 0.46724 0.08971 0.0
C471 C 0.26 0.46513 0.07288 0.0
C472 C 0.15368 0.42319 0.15278 0.0
C473 C 0.17014 0.40599 0.13276 0.0
C474 C 0.1451 0.41286 0.18177 0.0
C475 C 0.16366 0.36689 0.24502 0.0
H476 H 0.0822 0.36313 0.26212 0.0
C477 C 0.11804 0.32116 0.36065 0.0
C478 C 0.09253 0.3333 0.37186 0.0
C479 C 0.12882 0.32921 0.33151 0.0
C480 C 0.10504 0.36449 0.25804 0.0
H481 H 0.19108 0.36477 0.12759 0.0
H482 H 0.17662 0.34699 0.17906 0.0
H483 H 0.09872 0.37883 0.21116 0.0
H484 H 0.05918 0.36444 0.36253 0.0
H485 H 0.07862 0.37958 0.3128 0.0
H486 H 0.17019 0.35385 0.29226 0.0
C487 C 0.17016 0.36829 0.17188 0.0
C488 C 0.11441 0.37321 0.22872 0.0
C489 C 0.17824 0.37839 0.1425 0.0
C490 C 0.07869 0.35445 0.3542 0.0
C491 C 0.08973 0.36291 0.32551 0.0
C492 C 0.1543 0.35867 0.27467 0.0
C493 C 0.15334 0.3854 0.19155 0.0
C494 C 0.14374 0.37465 0.22208 0.0
C495 C 0.11453 0.34992 0.31337 0.0
C496 C 0.12484 0.35765 0.28164 0.0
H497 H 0.14707 0.44452 0.14586 0.0
H498 H 0.13218 0.42639 0.1967 0.0
H499 H 0.18642 0.36803 0.2403 0.0
H500 H 0.12899 0.30464 0.3738 0.0
H501 H 0.14782 0.31854 0.32287 0.0
C502 C 0.35174 0.925 0.6524 0.0
C503 C 0.33337 0.90945 0.63289 0.0
C504 C 0.35826 0.91498 0.68211 0.0
C505 C 0.35507 0.85083 0.73329 0.0
H506 H 0.36486 0.9083 0.79761 0.0
C507 C 0.37457 0.82563 0.86463 0.0
C508 C 0.40084 0.83689 0.87481 0.0
C509 C 0.36303 0.83421 0.83603 0.0
C510 C 0.362 0.89207 0.77987 0.0
H511 H 0.30776 0.87096 0.62883 0.0
H512 H 0.31845 0.85373 0.68129 0.0
H513 H 0.35125 0.92303 0.74525 0.0
H514 H 0.4351 0.86659 0.86395 0.0
H515 H 0.4144 0.88229 0.81463 0.0
H516 H 0.3655 0.81993 0.76856 0.0
C517 C 0.32835 0.87339 0.6734 0.0
C518 C 0.35453 0.90045 0.74979 0.0
C519 C 0.32221 0.88323 0.64335 0.0
C520 C 0.41483 0.85757 0.85659 0.0
C521 C 0.40299 0.8666 0.82848 0.0
C522 C 0.36208 0.84243 0.76361 0.0
C523 C 0.34609 0.88942 0.69334 0.0
C524 C 0.35171 0.88002 0.72589 0.0
C525 C 0.37726 0.85468 0.81775 0.0
C526 C 0.3662 0.86307 0.7869 0.0
H527 H 0.3609 0.94515 0.6448 0.0
H528 H 0.37273 0.92746 0.69635 0.0
H529 H 0.35331 0.83453 0.7155 0.0
H530 H 0.36354 0.80946 0.87818 0.0
H531 H 0.34313 0.8248 0.8281 0.0
C532 C 0.92538 0.65771 0.34189 0.0
C533 C 0.9083 0.66745 0.36671 0.0
C534 C 0.91286 0.64789 0.3145 0.0
C535 C 0.84807 0.65181 0.26687 0.0
H536 H 0.87784 0.58161 0.23101 0.0
C537 C 0.82323 0.6128 0.14115 0.0
C538 C 0.81801 0.58331 0.13763 0.0
C539 C 0.83206 0.62378 0.1699 0.0
C540 C 0.86915 0.60114 0.24082 0.0
H541 H 0.86456 0.67469 0.38199 0.0
H542 H 0.84264 0.65742 0.33378 0.0
H543 H 0.89711 0.59896 0.28012 0.0
H544 H 0.8172 0.54243 0.16195 0.0
H545 H 0.8324 0.5616 0.21166 0.0
H546 H 0.82005 0.65385 0.22733 0.0
C547 C 0.86578 0.65757 0.33574 0.0
C548 C 0.88035 0.61119 0.2688 0.0
C549 C 0.87833 0.66726 0.36337 0.0
C550 C 0.82117 0.56523 0.16362 0.0
C551 C 0.83001 0.57617 0.19218 0.0
C552 C 0.83694 0.64181 0.23866 0.0
C553 C 0.88297 0.64766 0.31113 0.0
C554 C 0.87004 0.63667 0.28204 0.0
C555 C 0.83594 0.60545 0.19554 0.0
C556 C 0.8474 0.61636 0.2254 0.0
H557 H 0.94853 0.6576 0.34352 0.0
H558 H 0.92665 0.64071 0.29577 0.0
H559 H 0.83989 0.67163 0.2765 0.0
H560 H 0.82097 0.62733 0.12164 0.0
H561 H 0.83666 0.64644 0.17182 0.0
C562 C 0.58419 0.14289 0.85029 0.0
C563 C 0.59814 0.1632 0.86898 0.0
C564 C 0.59629 0.13412 0.82223 0.0
C565 C 0.63857 0.15864 0.75835 0.0
H566 H 0.64817 0.07811 0.73906 0.0
C567 C 0.67952 0.11821 0.63829 0.0
C568 C 0.6678 0.09241 0.62741 0.0
C569 C 0.67311 0.12797 0.6683 0.0
C570 C 0.64526 0.10069 0.74387 0.0
H571 H 0.63565 0.19025 0.8732 0.0
H572 H 0.65655 0.17534 0.82324 0.0
H573 H 0.63409 0.09239 0.79139 0.0
H574 H 0.63897 0.05748 0.6384 0.0
H575 H 0.62674 0.07504 0.68986 0.0
H576 H 0.64825 0.167 0.71049 0.0
C577 C 0.63646 0.16603 0.83076 0.0
C578 C 0.6375 0.1088 0.77392 0.0
C579 C 0.62464 0.17436 0.85929 0.0
C580 C 0.64857 0.07728 0.64636 0.0
C581 C 0.64182 0.08722 0.67602 0.0
C582 C 0.64589 0.15051 0.72804 0.0
C583 C 0.62227 0.14593 0.81202 0.0
C584 C 0.63369 0.13778 0.78127 0.0
C585 C 0.65458 0.11226 0.68774 0.0
C586 C 0.64879 0.12137 0.7203 0.0
H587 H 0.56375 0.13396 0.85726 0.0
H588 H 0.58492 0.11871 0.80802 0.0
H589 H 0.63549 0.18114 0.76355 0.0
H590 H 0.69461 0.13015 0.62418 0.0
H591 H 0.68344 0.14726 0.6766 0.0
C592 C 0.24709 0.05225 0.52927 0.0
C593 C 0.26075 0.03317 0.50878 0.0
C594 C 0.22854 0.07317 0.51806 0.0
C595 C 0.20954 0.11525 0.44907 0.0
H596 H 0.14163 0.13134 0.49818 0.0
C597 C 0.12745 0.20635 0.42118 0.0
C598 C 0.12187 0.22419 0.44685 0.0
C599 C 0.14265 0.18072 0.42509 0.0
C600 C 0.16046 0.12704 0.48419 0.0
H601 H 0.26583 0.02136 0.46026 0.0
H602 H 0.23306 0.05826 0.44053 0.0
H603 H 0.17142 0.09019 0.51117 0.0
H604 H 0.12758 0.22904 0.49672 0.0
H605 H 0.15364 0.18436 0.50349 0.0
H606 H 0.19854 0.15259 0.4224 0.0
C607 C 0.23696 0.05689 0.46534 0.0
C608 C 0.17757 0.10355 0.49165 0.0
C609 C 0.25566 0.03578 0.47663 0.0
C610 C 0.13155 0.21582 0.47645 0.0
C611 C 0.14632 0.19014 0.48039 0.0
C612 C 0.19222 0.13875 0.44145 0.0
C613 C 0.22298 0.07559 0.48604 0.0
C614 C 0.20282 0.09794 0.47487 0.0
C615 C 0.15203 0.17233 0.4548 0.0
C616 C 0.16805 0.14532 0.4596 0.0
H617 H 0.25063 0.05106 0.55415 0.0
H618 H 0.21868 0.08767 0.53458 0.0
H619 H 0.22889 0.1115 0.43576 0.0
H620 H 0.12029 0.21228 0.39807 0.0
H621 H 0.14678 0.1673 0.40502 0.0
C622 C 0.22174 0.86319 0.52497 0.0
C623 C 0.22846 0.87387 0.55464 0.0
C624 C 0.19643 0.84809 0.52008 0.0
C625 C 0.14246 0.80382 0.5573 0.0
H626 H 0.09729 0.82447 0.48491 0.0
C627 C 0.03818 0.74394 0.51997 0.0
C628 C 0.03601 0.73856 0.48785 0.0
C629 C 0.05996 0.76167 0.53147 0.0
C630 C 0.10973 0.81833 0.50513 0.0
H631 H 0.21413 0.87666 0.60261 0.0
H632 H 0.16979 0.84965 0.59398 0.0
H633 H 0.13875 0.85327 0.49894 0.0
H634 H 0.0555 0.74679 0.4428 0.0
H635 H 0.09333 0.77701 0.46277 0.0
H636 H 0.1139 0.76819 0.56277 0.0
C637 C 0.18421 0.85323 0.57461 0.0
C638 C 0.13339 0.83487 0.51318 0.0
C639 C 0.20948 0.86873 0.57947 0.0
C640 C 0.0563 0.75071 0.46764 0.0
C641 C 0.07794 0.76824 0.47907 0.0
C642 C 0.11878 0.78705 0.54908 0.0
C643 C 0.17736 0.84308 0.54477 0.0
C644 C 0.1504 0.82738 0.53884 0.0
C645 C 0.07983 0.77429 0.51102 0.0
C646 C 0.10267 0.79373 0.52238 0.0
H647 H 0.23587 0.86677 0.50534 0.0
H648 H 0.19182 0.84016 0.49692 0.0
H649 H 0.15531 0.79761 0.57718 0.0
H650 H 0.02281 0.7349 0.53611 0.0
H651 H 0.06089 0.76597 0.55622 0.0
C652 C 0.74472 0.96405 0.47286 0.0
C653 C 0.73809 0.9662 0.50472 0.0
C654 C 0.7626 0.94203 0.46209 0.0
C655 C 0.81769 0.89156 0.49078 0.0
H656 H 0.79922 0.84615 0.41797 0.0
C657 C 0.86326 0.77946 0.47265 0.0
C658 C 0.87464 0.77263 0.4433 0.0
C659 C 0.84796 0.80477 0.47703 0.0
C660 C 0.80481 0.85894 0.43809 0.0
H661 H 0.74429 0.9464 0.55001 0.0
H662 H 0.77481 0.90824 0.53129 0.0
H663 H 0.76965 0.88787 0.43111 0.0
H664 H 0.87847 0.7868 0.39535 0.0
H665 H 0.85118 0.83113 0.40306 0.0
H666 H 0.85218 0.86225 0.49841 0.0
C667 C 0.76687 0.9238 0.51467 0.0
C668 C 0.78796 0.8828 0.44558 0.0
C669 C 0.74917 0.94564 0.52537 0.0
C670 C 0.86998 0.7915 0.41825 0.0
C671 C 0.85432 0.81678 0.42259 0.0
C672 C 0.83433 0.86774 0.48344 0.0
C673 C 0.77416 0.92192 0.48302 0.0
C674 C 0.7938 0.89887 0.47251 0.0
C675 C 0.84347 0.82376 0.45213 0.0
C676 C 0.82764 0.85078 0.4575 0.0
H677 H 0.73651 0.9796 0.45639 0.0
H678 H 0.76788 0.94111 0.43755 0.0
H679 H 0.82319 0.90396 0.51123 0.0
H680 H 0.86644 0.76541 0.49244 0.0
H681 H 0.83948 0.80945 0.49995 0.0
C682 C 0.7759 0.14657 0.52616 0.0
C683 C 0.77253 0.12913 0.55258 0.0
C684 C 0.799 0.16533 0.52382 0.0
C685 C 0.87182 0.17857 0.55261 0.0
H686 H 0.85913 0.25281 0.5144 0.0
C687 C 0.96323 0.26021 0.52682 0.0
C688 C 0.96316 0.26987 0.49581 0.0
C689 C 0.93975 0.24502 0.53868 0.0
C690 C 0.86298 0.23218 0.52519 0.0
H691 H 0.791 0.11754 0.59719 0.0
H692 H 0.8315 0.15058 0.59309 0.0
H693 H 0.81835 0.22216 0.52626 0.0
H694 H 0.93828 0.27183 0.45318 0.0
H695 H 0.8975 0.24577 0.47388 0.0
H696 H 0.91663 0.18858 0.55089 0.0
C697 C 0.81621 0.14955 0.57417 0.0
C698 C 0.83967 0.21458 0.53188 0.0
C699 C 0.79299 0.13072 0.57654 0.0
C700 C 0.93904 0.26461 0.47715 0.0
C701 C 0.91557 0.24986 0.48906 0.0
C702 C 0.89521 0.19631 0.54603 0.0
C703 C 0.81933 0.1672 0.54784 0.0
C704 C 0.84387 0.18721 0.54475 0.0
C705 C 0.9157 0.23975 0.51985 0.0
C706 C 0.89102 0.22291 0.5314 0.0
H707 H 0.76066 0.14581 0.50717 0.0
H708 H 0.8011 0.17815 0.50292 0.0
H709 H 0.87575 0.15756 0.56243 0.0
H710 H 0.9816 0.26387 0.54168 0.0
H711 H 0.94033 0.23746 0.56251 0.0
C712 C 0.25392 0.53567 0.0063 0.0
C713 C 0.22429 0.5407 0.00861 0.0
C714 C 0.27215 0.55676 0.99459 0.0
C715 C 0.27534 0.62488 0.95089 0.0
H716 H 0.33996 0.64064 0.00497 0.0
C717 C 0.35663 0.72322 0.98053 0.0
C718 C 0.36744 0.73024 0.95096 0.0
C719 C 0.34008 0.69867 0.98474 0.0
C720 C 0.32204 0.63646 0.98962 0.0
H721 H 0.19039 0.57117 0.99861 0.0
H722 H 0.22233 0.60803 0.97815 0.0
H723 H 0.30919 0.59969 0.01577 0.0
H724 H 0.36917 0.71713 0.90255 0.0
H725 H 0.33984 0.67421 0.90998 0.0
H726 H 0.28802 0.66219 0.92515 0.0
C727 C 0.23139 0.58773 0.9854 0.0
C728 C 0.30459 0.61286 0.9956 0.0
C729 C 0.21312 0.56666 0.99726 0.0
C730 C 0.36116 0.71227 0.92562 0.0
C731 C 0.34429 0.6878 0.92981 0.0
C732 C 0.29302 0.64841 0.94471 0.0
C733 C 0.26116 0.58328 0.98478 0.0
C734 C 0.28084 0.60702 0.97656 0.0
C735 C 0.33376 0.6807 0.95947 0.0
C736 C 0.31624 0.65465 0.96436 0.0
H737 H 0.26325 0.51583 0.01461 0.0
H738 H 0.29497 0.55259 0.99396 0.0
H739 H 0.25725 0.62079 0.93575 0.0
H740 H 0.36107 0.73659 0.00055 0.0
H741 H 0.33195 0.69389 0.0078 0.0
C742 C 0.70015 0.6234 0.0768 0.0
C743 C 0.72061 0.61977 0.05309 0.0
C744 C 0.67551 0.63981 0.07151 0.0
C745 C 0.62901 0.66453 0.0085 0.0
H746 H 0.60679 0.72618 0.06398 0.0
C747 C 0.55126 0.75137 0.96891 0.0
C748 C 0.53055 0.7616 0.98986 0.0
C749 C 0.57309 0.7333 0.97904 0.0
C750 C 0.61243 0.70875 0.04853 0.0
H751 H 0.73127 0.63045 0.00526 0.0
H752 H 0.68827 0.65868 0.99603 0.0
H753 H 0.64736 0.69531 0.07759 0.0
H754 H 0.51673 0.76123 0.03806 0.0
H755 H 0.55492 0.72912 0.05581 0.0
H756 H 0.59434 0.67765 0.97942 0.0
C757 C 0.69125 0.64886 0.01867 0.0
C758 C 0.63566 0.69114 0.05631 0.0
C759 C 0.71595 0.63282 0.02404 0.0
C760 C 0.53244 0.75373 0.02139 0.0
C761 C 0.55433 0.73541 0.03155 0.0
C762 C 0.60576 0.68188 0.00087 0.0
C763 C 0.67076 0.65246 0.04228 0.0
C764 C 0.64453 0.66932 0.03596 0.0
C765 C 0.57469 0.72474 0.01035 0.0
C766 C 0.59762 0.70466 0.02037 0.0
H767 H 0.70317 0.61363 0.09944 0.0
H768 H 0.65995 0.64221 0.09004 0.0
H769 H 0.63509 0.64749 0.9927 0.0
H770 H 0.55066 0.75726 0.94452 0.0
H771 H 0.58883 0.72611 0.96223 0.0
C772 C 0.75923 0.46126 0.96894 0.0
C773 C 0.76801 0.45944 0.00018 0.0
C774 C 0.74573 0.43789 0.95467 0.0
C775 C 0.73573 0.35988 0.9617 0.0
H776 H 0.65941 0.37258 0.92881 0.0
C777 C 0.65061 0.27275 0.96414 0.0
C778 C 0.63183 0.26959 0.93883 0.0
C779 C 0.66966 0.29566 0.9653 0.0
C780 C 0.68092 0.3687 0.93729 0.0
H781 H 0.77069 0.4316 0.04054 0.0
H782 H 0.74771 0.39102 0.01564 0.0
H783 H 0.68994 0.4136 0.94118 0.0
H784 H 0.61824 0.28816 0.89492 0.0
H785 H 0.65169 0.32848 0.8971 0.0
H786 H 0.72653 0.31513 0.9589 0.0
C787 C 0.75107 0.41034 0.00215 0.0
C788 C 0.69838 0.39217 0.94432 0.0
C789 C 0.76402 0.43368 0.01648 0.0
C790 C 0.63246 0.29 0.91473 0.0
C791 C 0.65154 0.3131 0.91599 0.0
C792 C 0.71839 0.3365 0.9546 0.0
C793 C 0.74147 0.41228 0.97126 0.0
C794 C 0.72551 0.38793 0.95769 0.0
C795 C 0.67045 0.31604 0.94124 0.0
C796 C 0.69039 0.34067 0.94347 0.0
H797 H 0.76197 0.48095 0.95593 0.0
H798 H 0.73846 0.43987 0.93082 0.0
H799 H 0.75675 0.35605 0.97155 0.0
H800 H 0.65066 0.25749 0.98315 0.0
H801 H 0.68351 0.29764 0.98541 0.0
C802 C 0.44501 0.24269 0.9644 0.0
C803 C 0.46678 0.23437 0.98509 0.0
C804 C 0.42216 0.25938 0.97461 0.0
C805 C 0.38246 0.28267 0.04433 0.0
H806 H 0.35485 0.34112 0.98749 0.0
C807 C 0.29068 0.36362 0.07254 0.0
C808 C 0.26965 0.36591 0.04922 0.0
C809 C 0.31587 0.34815 0.0671 0.0
C810 C 0.36228 0.32483 0.00356 0.0
H811 H 0.48144 0.23668 0.03291 0.0
H812 H 0.44141 0.26643 0.05079 0.0
H813 H 0.39726 0.31344 0.97405 0.0
H814 H 0.25847 0.35361 0.00204 0.0
H815 H 0.30245 0.32698 0.99255 0.0
H816 H 0.34724 0.29442 0.07386 0.0
C817 C 0.442 0.25969 0.02669 0.0
C818 C 0.38651 0.3089 0.99585 0.0
C819 C 0.46493 0.24273 0.01645 0.0
C820 C 0.27422 0.35229 0.0205 0.0
C821 C 0.29947 0.33716 0.01497 0.0
C822 C 0.35825 0.29886 0.05219 0.0
C823 C 0.42055 0.26847 0.00573 0.0
C824 C 0.39649 0.28714 0.01575 0.0
C825 C 0.32061 0.33508 0.03811 0.0
C826 C 0.34761 0.31962 0.0315 0.0
H827 H 0.44556 0.23633 0.94016 0.0
H828 H 0.40565 0.26509 0.95802 0.0
H829 H 0.38953 0.26599 0.0601 0.0
H830 H 0.28775 0.37387 0.09493 0.0
H831 H 0.33191 0.34692 0.08526 0.0
C832 C 0.95502 0.59897 0.47512 0.0
C833 C 0.97541 0.62021 0.46832 0.0
C834 C 0.96352 0.57075 0.48071 0.0
C835 C 0.02414 0.52158 0.46525 0.0
H836 H 0.98095 0.47052 0.51885 0.0
C837 C 0.05533 0.40317 0.48103 0.0
C838 C 0.03297 0.38381 0.47483 0.0
C839 C 0.04957 0.43225 0.4854 0.0
C840 C 0.9932 0.48459 0.50385 0.0
H841 H 0.02089 0.62872 0.46371 0.0
H842 H 0.03581 0.57974 0.47452 0.0
H843 H 0.96922 0.52151 0.51769 0.0
H844 H 0.98686 0.37968 0.47007 0.0
H845 H 0.97687 0.43044 0.47812 0.0
H846 H 0.04813 0.4846 0.45154 0.0
C847 C 0.01313 0.58465 0.47454 0.0
C848 C 0.98643 0.51377 0.50303 0.0
C849 C 0.0046 0.61282 0.46853 0.0
C850 C 0.0046 0.394 0.47467 0.0
C851 C 0.99884 0.42304 0.47943 0.0
C852 C 0.03114 0.49253 0.46641 0.0
C853 C 0.99268 0.56311 0.48006 0.0
C854 C 0.00149 0.53257 0.48328 0.0
C855 C 0.02132 0.44252 0.48412 0.0
C856 C 0.01545 0.47368 0.48532 0.0
H857 H 0.93233 0.60387 0.47508 0.0
H858 H 0.94708 0.55477 0.48439 0.0
H859 H 0.03589 0.53518 0.44931 0.0
H860 H 0.07743 0.3961 0.48142 0.0
H861 H 0.06726 0.44682 0.48925 0.0
C862 C 0.60893 0.00254 0.52544 0.0
C863 C 0.61855 0.03104 0.52357 0.0
C864 C 0.58005 0.99599 0.52066 0.0
C865 C 0.50973 0.02812 0.53002 0.0
H866 H 0.48238 0.96282 0.483 0.0
C867 C 0.38967 0.0014 0.52594 0.0
C868 C 0.38227 0.97232 0.5285 0.0
C869 C 0.41799 0.00946 0.52015 0.0
C870 C 0.48967 0.98099 0.49646 0.0
H871 H 0.60544 0.07481 0.51378 0.0
H872 H 0.55511 0.06329 0.50583 0.0
H873 H 0.53332 0.97479 0.48231 0.0
H874 H 0.39876 0.92889 0.52603 0.0
H875 H 0.44812 0.94292 0.51704 0.0
H876 H 0.46664 0.03375 0.54543 0.0
C877 C 0.56994 0.04611 0.51113 0.0
C878 C 0.51882 0.98788 0.49593 0.0
C879 C 0.59882 0.05264 0.5156 0.0
C880 C 0.40367 0.9515 0.52416 0.0
C881 C 0.43204 0.95957 0.51876 0.0
C882 C 0.48071 0.02106 0.53088 0.0
C883 C 0.56019 0.01781 0.51419 0.0
C884 C 0.52914 0.01139 0.51289 0.0
C885 C 0.43967 0.98867 0.51718 0.0
C886 C 0.47029 0.99725 0.51434 0.0
H887 H 0.62352 0.98536 0.53147 0.0
H888 H 0.57306 0.97401 0.52334 0.0
H889 H 0.51717 0.04611 0.54371 0.0
H890 H 0.37366 0.01799 0.52883 0.0
H891 H 0.42292 0.03206 0.51838 0.0
C892 C 0.50378 0.10794 0.96982 0.0
C893 C 0.53238 0.11725 0.97169 0.0
C894 C 0.49678 0.07934 0.97572 0.0
C895 C 0.52764 0.00843 0.9691 0.0
H896 H 0.46226 0.9835 0.01772 0.0
C897 C 0.49865 0.8891 0.9765 0.0
C898 C 0.46941 0.88219 0.97476 0.0
C899 C 0.50734 0.91734 0.98158 0.0
C900 C 0.48044 0.9901 0.00381 0.0
H901 H 0.57586 0.10393 0.98253 0.0
H902 H 0.56357 0.054 0.9923 0.0
H903 H 0.47509 0.03422 0.01653 0.0
H904 H 0.42634 0.89946 0.97795 0.0
H905 H 0.44139 0.94869 0.9856 0.0
H906 H 0.53236 0.9649 0.95498 0.0
C907 C 0.54666 0.0689 0.98624 0.0
C908 C 0.48783 0.01912 0.00329 0.0
C909 C 0.55363 0.09753 0.98073 0.0
C910 C 0.44905 0.904 0.97925 0.0
C911 C 0.45773 0.9323 0.98385 0.0
C912 C 0.52004 0.97953 0.96924 0.0
C913 C 0.51826 0.05943 0.98327 0.0
C914 C 0.51138 0.02856 0.98574 0.0
C915 C 0.487 0.93945 0.98454 0.0
C916 C 0.49619 0.96997 0.98637 0.0
H917 H 0.48686 0.12255 0.96302 0.0
H918 H 0.47473 0.07254 0.97308 0.0
H919 H 0.54566 0.0152 0.955 0.0
H920 H 0.51489 0.87274 0.97349 0.0
H921 H 0.53005 0.92186 0.98273 0.0
C922 C 0.10608 0.49195 0.02982 0.0
C923 C 0.11399 0.46292 0.03134 0.0
C924 C 0.07733 0.4998 0.02686 0.0
C925 C 0.00458 0.47111 0.0088 0.0
H926 H 0.9798 0.53638 0.05768 0.0
C927 C 0.88618 0.49497 0.04054 0.0
C928 C 0.87706 0.5236 0.0379 0.0
C929 C 0.915 0.48779 0.03627 0.0
C930 C 0.98646 0.5183 0.04363 0.0
H931 H 0.09777 0.41937 0.03016 0.0
H932 H 0.04772 0.43304 0.02602 0.0
H933 H 0.03029 0.52356 0.05647 0.0
H934 H 0.89113 0.56701 0.02796 0.0
H935 H 0.94134 0.55441 0.02093 0.0
H936 H 0.96031 0.46541 0.99701 0.0
C937 C 0.06372 0.4498 0.0264 0.0
C938 C 0.01544 0.51098 0.04279 0.0
C939 C 0.09251 0.44194 0.02898 0.0
C940 C 0.89734 0.54475 0.03028 0.0
C941 C 0.92616 0.5376 0.02636 0.0
C942 C 0.9755 0.47826 0.00995 0.0
C943 C 0.05571 0.47885 0.02576 0.0
C944 C 0.02492 0.48724 0.02544 0.0
C945 C 0.93532 0.50911 0.02961 0.0
C946 C 0.96617 0.50189 0.02744 0.0
H947 H 0.12204 0.50869 0.03132 0.0
H948 H 0.07206 0.52237 0.02574 0.0
H949 H 0.01111 0.45297 0.99479 0.0
H950 H 0.87116 0.47811 0.04632 0.0
H951 H 0.92154 0.46567 0.03912 0.0
loop_
_geom_bond_atom_site_label_1
_geom_bond_atom_site_label_2
_geom_bond_distance
_geom_bond_site_symmetry_2
_ccdc_geom_bond_type
Co0 O2 2.143 . S
Co0 O8 2.074 . S
Co0 O11 2.093 1_455 S
Co0 O24 2.097 . S
Co0 N41 2.151 . S
Co0 N49 2.214 1_455 S
Co1 O2 2.160 . S
Co1 O7 2.058 . S
Co1 O17 2.057 . S
Co1 O32 2.037 . S
Co1 N36 2.145 . S
Co1 N57 2.257 . S
O2 Co0 2.143 . S
O2 Co1 2.160 . S
C3 O4 1.278 1_655 S
C3 O11 1.224 . S
O4 C3 1.278 1_455 S
C5 O6 1.245 . S
C5 O17 1.232 . S
O6 C5 1.245 . S
O7 Co1 2.058 . S
O7 C33 1.269 . S
O8 Co0 2.074 . S
O8 C33 1.257 . S
H9 C34 0.930 . S
H10 C40 0.930 . S
O11 Co0 2.093 1_655 S
O11 C3 1.224 . S
H12 C44 0.929 . S
H13 C46 0.930 . S
H14 C47 0.930 . S
H15 C45 0.929 . S
H16 C48 0.928 . S
O17 Co1 2.057 . S
O17 C5 1.232 . S
H18 C37 0.929 . S
H19 C38 0.929 . S
H20 C50 0.931 . S
H21 C42 0.929 . S
H22 C51 0.930 . S
H23 C43 0.931 . S
O24 Co0 2.097 . S
O24 C52 1.214 . S
H25 C53 0.929 . S
H26 C54 0.929 . S
H27 C55 0.930 . S
H28 C56 0.929 . S
H29 C58 0.930 . S
H30 C35 0.930 . S
H31 C39 0.930 . S
O32 Co1 2.037 . S
O32 C52 1.234 . S
C33 O7 1.269 . S
C33 O8 1.257 . S
C34 H9 0.930 . S
C34 C37 1.388 . S
C34 C39 1.418 . S
C35 H30 0.930 . S
C35 C38 1.404 . S
C35 C39 1.353 . S
N36 Co1 2.145 . S
N36 C37 1.397 . S
N36 C38 1.334 . S
C37 H18 0.929 . S
C37 C34 1.388 . S
C37 N36 1.397 . S
C38 H19 0.929 . S
C38 C35 1.404 . S
C38 N36 1.334 . S
C39 H31 0.930 . S
C39 C34 1.418 . S
C39 C35 1.353 . S
C40 H10 0.930 . S
C40 N41 1.330 . S
C40 C42 1.446 . S
N41 Co0 2.151 . S
N41 C40 1.330 . S
N41 C45 1.418 . S
C42 H21 0.929 . S
C42 C40 1.446 . S
C42 C43 1.332 . S
C43 H23 0.931 . S
C43 C42 1.332 . S
C43 C44 1.267 . S
C44 H12 0.929 . S
C44 C43 1.267 . S
C44 C45 1.251 . S
C45 H15 0.929 . S
C45 N41 1.418 . S
C45 C44 1.251 . S
C46 H13 0.930 . S
C46 C48 1.406 . S
C46 C51 1.261 . S
C47 H14 0.930 . S
C47 N49 1.325 1_455 S
C47 C50 1.357 1_455 S
C48 H16 0.928 . S
C48 C46 1.406 . S
C48 N49 1.261 . S
N49 Co0 2.214 1_655 S
N49 C47 1.325 1_655 S
N49 C48 1.261 . S
C50 H20 0.931 . S
C50 C47 1.357 1_655 S
C50 C51 1.312 . S
C51 H22 0.930 . S
C51 C46 1.261 . S
C51 C50 1.312 . S
C52 O24 1.214 . S
C52 O32 1.234 . S
C53 H25 0.929 . S
C53 C56 1.391 . S
C53 C58 1.391 . S
C54 H26 0.929 . S
C54 C55 1.390 . S
C54 N57 1.391 . S
C55 H27 0.930 . S
C55 C54 1.390 . S
C55 C56 1.392 . S
C56 H28 0.929 . S
C56 C53 1.391 . S
C56 C55 1.392 . S
N57 Co1 2.257 . S
N57 C54 1.391 . S
N57 C58 1.388 . S
C58 H29 0.930 . S
C58 C53 1.391 . S
C58 N57 1.388 . S
Co59 O61 2.143 . S
Co59 O67 2.074 . S
Co59 O70 2.093 1_565 S
Co59 O83 2.097 . S
Co59 N100 2.151 . S
Co59 N108 2.214 1_565 S
Co60 O61 2.160 . S
Co60 O66 2.058 . S
Co60 O76 2.057 . S
Co60 O91 2.037 . S
Co60 N95 2.145 . S
Co60 N116 2.257 . S
O61 Co59 2.143 . S
O61 Co60 2.160 . S
C62 O63 1.278 1_545 S
C62 O70 1.224 . S
O63 C62 1.278 1_565 S
C64 O65 1.245 . S
C64 O76 1.232 . S
O65 C64 1.245 . S
O66 Co60 2.058 . S
O66 C92 1.269 . S
O67 Co59 2.074 . S
O67 C92 1.257 . S
H68 C93 0.930 . S
H69 C99 0.930 . S
O70 Co59 2.093 1_545 S
O70 C62 1.224 . S
H71 C103 0.929 . S
H72 C105 0.930 . S
H73 C106 0.930 . S
H74 C104 0.929 . S
H75 C107 0.928 . S
O76 Co60 2.057 . S
O76 C64 1.232 . S
H77 C96 0.929 . S
H78 C97 0.929 . S
H79 C109 0.931 . S
H80 C101 0.929 . S
H81 C110 0.930 . S
H82 C102 0.931 . S
O83 Co59 2.097 . S
O83 C111 1.214 . S
H84 C112 0.929 . S
H85 C113 0.929 . S
H86 C114 0.930 . S
H87 C115 0.929 . S
H88 C117 0.930 . S
H89 C94 0.930 . S
H90 C98 0.930 . S
O91 Co60 2.037 . S
O91 C111 1.234 . S
C92 O66 1.269 . S
C92 O67 1.257 . S
C93 H68 0.930 . S
C93 C96 1.388 . S
C93 C98 1.418 . S
C94 H89 0.930 . S
C94 C97 1.404 . S
C94 C98 1.353 . S
N95 Co60 2.145 . S
N95 C96 1.397 . S
N95 C97 1.334 . S
C96 H77 0.929 . S
C96 C93 1.388 . S
C96 N95 1.397 . S
C97 H78 0.929 . S
C97 C94 1.404 . S
C97 N95 1.334 . S
C98 H90 0.930 . S
C98 C93 1.418 . S
C98 C94 1.353 . S
C99 H69 0.930 . S
C99 N100 1.330 . S
C99 C101 1.446 . S
N100 Co59 2.151 . S
N100 C99 1.330 . S
N100 C104 1.418 . S
C101 H80 0.929 . S
C101 C99 1.446 . S
C101 C102 1.332 . S
C102 H82 0.931 . S
C102 C101 1.332 . S
C102 C103 1.267 . S
C103 H71 0.929 . S
C103 C102 1.267 . S
C103 C104 1.251 . S
C104 H74 0.929 . S
C104 N100 1.418 . S
C104 C103 1.251 . S
C105 H72 0.930 . S
C105 C107 1.406 . S
C105 C110 1.261 . S
C106 H73 0.930 . S
C106 N108 1.325 1_565 S
C106 C109 1.357 1_565 S
C107 H75 0.928 . S
C107 C105 1.406 . S
C107 N108 1.261 . S
N108 Co59 2.214 1_545 S
N108 C106 1.325 1_545 S
N108 C107 1.261 . S
C109 H79 0.931 . S
C109 C106 1.357 1_545 S
C109 C110 1.312 . S
C110 H81 0.930 . S
C110 C105 1.261 . S
C110 C109 1.312 . S
C111 O83 1.214 . S
C111 O91 1.234 . S
C112 H84 0.929 . S
C112 C115 1.391 . S
C112 C117 1.391 . S
C113 H85 0.929 . S
C113 C114 1.390 . S
C113 N116 1.391 . S
C114 H86 0.930 . S
C114 C113 1.390 . S
C114 C115 1.392 . S
C115 H87 0.929 . S
C115 C112 1.391 . S
C115 C114 1.392 . S
N116 Co60 2.257 . S
N116 C113 1.391 . S
N116 C117 1.388 . S
C117 H88 0.930 . S
C117 C112 1.391 . S
C117 N116 1.388 . S
Co118 O120 2.143 . S
Co118 O126 2.074 . S
Co118 O129 2.093 1_655 S
Co118 O142 2.097 . S
Co118 N159 2.151 . S
Co118 N167 2.214 1_655 S
Co119 O120 2.160 . S
Co119 O125 2.058 . S
Co119 O135 2.057 . S
Co119 O150 2.037 . S
Co119 N154 2.145 . S
Co119 N175 2.257 . S
O120 Co118 2.143 . S
O120 Co119 2.160 . S
C121 O122 1.278 1_455 S
C121 O129 1.224 . S
O122 C121 1.278 1_655 S
C123 O124 1.245 . S
C123 O135 1.232 . S
O124 C123 1.245 . S
O125 Co119 2.058 . S
O125 C151 1.269 . S
O126 Co118 2.074 . S
O126 C151 1.257 . S
H127 C152 0.930 . S
H128 C158 0.930 . S
O129 Co118 2.093 1_455 S
O129 C121 1.224 . S
H130 C162 0.929 . S
H131 C164 0.930 . S
H132 C165 0.930 . S
H133 C163 0.929 . S
H134 C166 0.928 . S
O135 Co119 2.057 . S
O135 C123 1.232 . S
H136 C155 0.929 . S
H137 C156 0.929 . S
H138 C168 0.931 . S
H139 C160 0.929 . S
H140 C169 0.930 . S
H141 C161 0.931 . S
O142 Co118 2.097 . S
O142 C170 1.214 . S
H143 C171 0.929 . S
H144 C172 0.929 . S
H145 C173 0.930 . S
H146 C174 0.929 . S
H147 C176 0.930 . S
H148 C153 0.930 . S
H149 C157 0.930 . S
O150 Co119 2.037 . S
O150 C170 1.234 . S
C151 O125 1.269 . S
C151 O126 1.257 . S
C152 H127 0.930 . S
C152 C155 1.388 . S
C152 C157 1.418 . S
C153 H148 0.930 . S
C153 C156 1.404 . S
C153 C157 1.353 . S
N154 Co119 2.145 . S
N154 C155 1.397 . S
N154 C156 1.334 . S
C155 H136 0.929 . S
C155 C152 1.388 . S
C155 N154 1.397 . S
C156 H137 0.929 . S
C156 C153 1.404 . S
C156 N154 1.334 . S
C157 H149 0.930 . S
C157 C152 1.418 . S
C157 C153 1.353 . S
C158 H128 0.930 . S
C158 N159 1.330 . S
C158 C160 1.446 . S
N159 Co118 2.151 . S
N159 C158 1.330 . S
N159 C163 1.418 . S
C160 H139 0.929 . S
C160 C158 1.446 . S
C160 C161 1.332 . S
C161 H141 0.931 . S
C161 C160 1.332 . S
C161 C162 1.267 . S
C162 H130 0.929 . S
C162 C161 1.267 . S
C162 C163 1.251 . S
C163 H133 0.929 . S
C163 N159 1.418 . S
C163 C162 1.251 . S
C164 H131 0.930 . S
C164 C166 1.406 . S
C164 C169 1.261 . S
C165 H132 0.930 . S
C165 N167 1.325 1_655 S
C165 C168 1.357 1_655 S
C166 H134 0.928 . S
C166 C164 1.406 . S
C166 N167 1.261 . S
N167 Co118 2.214 1_455 S
N167 C165 1.325 1_455 S
N167 C166 1.261 . S
C168 H138 0.931 . S
C168 C165 1.357 1_455 S
C168 C169 1.312 . S
C169 H140 0.930 . S
C169 C164 1.261 . S
C169 C168 1.312 . S
C170 O142 1.214 . S
C170 O150 1.234 . S
C171 H143 0.929 . S
C171 C174 1.391 . S
C171 C176 1.391 . S
C172 H144 0.929 . S
C172 C173 1.390 . S
C172 N175 1.391 . S
C173 H145 0.930 . S
C173 C172 1.390 . S
C173 C174 1.392 . S
C174 H146 0.929 . S
C174 C171 1.391 . S
C174 C173 1.392 . S
N175 Co119 2.257 . S
N175 C172 1.391 . S
N175 C176 1.388 . S
C176 H147 0.930 . S
C176 C171 1.391 . S
C176 N175 1.388 . S
Co177 O179 2.143 . S
Co177 O185 2.074 . S
Co177 O188 2.093 1_545 S
Co177 O201 2.097 . S
Co177 N218 2.151 . S
Co177 N226 2.214 1_545 S
Co178 O179 2.160 . S
Co178 O184 2.058 . S
Co178 O194 2.057 . S
Co178 O209 2.037 . S
Co178 N213 2.145 . S
Co178 N234 2.257 . S
O179 Co177 2.143 . S
O179 Co178 2.160 . S
C180 O181 1.278 1_565 S
C180 O188 1.224 . S
O181 C180 1.278 1_545 S
C182 O183 1.245 . S
C182 O194 1.232 . S
O183 C182 1.245 . S
O184 Co178 2.058 . S
O184 C210 1.269 . S
O185 Co177 2.074 . S
O185 C210 1.257 . S
H186 C211 0.930 . S
H187 C217 0.930 . S
O188 Co177 2.093 1_565 S
O188 C180 1.224 . S
H189 C221 0.929 . S
H190 C223 0.930 . S
H191 C224 0.930 . S
H192 C222 0.929 . S
H193 C225 0.928 . S
O194 Co178 2.057 . S
O194 C182 1.232 . S
H195 C214 0.929 . S
H196 C215 0.929 . S
H197 C227 0.931 . S
H198 C219 0.929 . S
H199 C228 0.930 . S
H200 C220 0.931 . S
O201 Co177 2.097 . S
O201 C229 1.214 . S
H202 C230 0.929 . S
H203 C231 0.929 . S
H204 C232 0.930 . S
H205 C233 0.929 . S
H206 C235 0.930 . S
H207 C212 0.930 . S
H208 C216 0.930 . S
O209 Co178 2.037 . S
O209 C229 1.234 . S
C210 O184 1.269 . S
C210 O185 1.257 . S
C211 H186 0.930 . S
C211 C214 1.388 . S
C211 C216 1.418 . S
C212 H207 0.930 . S
C212 C215 1.404 . S
C212 C216 1.353 . S
N213 Co178 2.145 . S
N213 C214 1.397 . S
N213 C215 1.334 . S
C214 H195 0.929 . S
C214 C211 1.388 . S
C214 N213 1.397 . S
C215 H196 0.929 . S
C215 C212 1.404 . S
C215 N213 1.334 . S
C216 H208 0.930 . S
C216 C211 1.418 . S
C216 C212 1.353 . S
C217 H187 0.930 . S
C217 N218 1.330 . S
C217 C219 1.446 . S
N218 Co177 2.151 . S
N218 C217 1.330 . S
N218 C222 1.418 . S
C219 H198 0.929 . S
C219 C217 1.446 . S
C219 C220 1.332 . S
C220 H200 0.931 . S
C220 C219 1.332 . S
C220 C221 1.267 . S
C221 H189 0.929 . S
C221 C220 1.267 . S
C221 C222 1.251 . S
C222 H192 0.929 . S
C222 N218 1.418 . S
C222 C221 1.251 . S
C223 H190 0.930 . S
C223 C225 1.406 . S
C223 C228 1.261 . S
C224 H191 0.930 . S
C224 N226 1.325 1_545 S
C224 C227 1.357 1_545 S
C225 H193 0.928 . S
C225 C223 1.406 . S
C225 N226 1.261 . S
N226 Co177 2.214 1_565 S
N226 C224 1.325 1_565 S
N226 C225 1.261 . S
C227 H197 0.931 . S
C227 C224 1.357 1_565 S
C227 C228 1.312 . S
C228 H199 0.930 . S
C228 C223 1.261 . S
C228 C227 1.312 . S
C229 O201 1.214 . S
C229 O209 1.234 . S
C230 H202 0.929 . S
C230 C233 1.391 . S
C230 C235 1.391 . S
C231 H203 0.929 . S
C231 C232 1.390 . S
C231 N234 1.391 . S
C232 H204 0.930 . S
C232 C231 1.390 . S
C232 C233 1.392 . S
C233 H205 0.929 . S
C233 C230 1.391 . S
C233 C232 1.392 . S
N234 Co178 2.257 . S
N234 C231 1.391 . S
N234 C235 1.388 . S
C235 H206 0.930 . S
C235 C230 1.391 . S
C235 N234 1.388 . S
Co236 O238 2.143 . S
Co236 O244 2.074 . S
Co236 O247 2.093 . S
Co236 O260 2.097 . S
Co236 N277 2.151 . S
Co236 N285 2.214 . S
Co237 O238 2.160 . S
Co237 O243 2.058 . S
Co237 O253 2.057 . S
Co237 O268 2.037 . S
Co237 N272 2.145 . S
Co237 N293 2.257 1_556 S
O238 Co236 2.143 . S
O238 Co237 2.160 . S
C239 O240 1.270 1_556 S
C239 O247 1.224 . S
O240 C239 1.270 1_554 S
C241 O242 1.245 . S
C241 O253 1.232 . S
O242 C241 1.245 . S
O243 Co237 2.058 . S
O243 C269 1.269 . S
O244 Co236 2.074 . S
O244 C269 1.257 . S
H245 C270 0.930 . S
H246 C276 0.930 . S
O247 Co236 2.093 . S
O247 C239 1.224 . S
H248 C280 0.929 . S
H249 C282 0.930 . S
H250 C283 0.930 . S
H251 C281 0.929 . S
H252 C284 0.928 . S
O253 Co237 2.057 . S
O253 C241 1.232 . S
H254 C273 0.929 . S
H255 C274 0.929 . S
H256 C286 0.931 . S
H257 C278 0.929 . S
H258 C287 0.930 . S
H259 C279 0.931 . S
O260 Co236 2.097 . S
O260 C288 1.214 . S
H261 C289 0.929 . S
H262 C290 0.929 . S
H263 C291 0.930 . S
H264 C292 0.929 . S
H265 C294 0.930 . S
H266 C271 0.930 . S
H267 C275 0.930 . S
O268 Co237 2.037 . S
O268 C288 1.234 . S
C269 O243 1.269 . S
C269 O244 1.257 . S
C270 H245 0.930 . S
C270 C273 1.388 . S
C270 C275 1.418 1_556 S
C271 H266 0.930 . S
C271 C274 1.404 . S
C271 C275 1.353 . S
N272 Co237 2.145 . S
N272 C273 1.397 . S
N272 C274 1.334 1_556 S
C273 H254 0.929 . S
C273 C270 1.388 . S
C273 N272 1.397 . S
C274 H255 0.929 . S
C274 C271 1.404 . S
C274 N272 1.334 1_554 S
C275 H267 0.930 . S
C275 C270 1.418 1_554 S
C275 C271 1.353 . S
C276 H246 0.930 . S
C276 N277 1.330 . S
C276 C278 1.446 . S
N277 Co236 2.151 . S
N277 C276 1.330 . S
N277 C281 1.418 . S
C278 H257 0.929 . S
C278 C276 1.446 . S
C278 C279 1.332 . S
C279 H259 0.931 . S
C279 C278 1.332 . S
C279 C280 1.267 . S
C280 H248 0.929 . S
C280 C279 1.267 . S
C280 C281 1.251 . S
C281 H251 0.929 . S
C281 N277 1.418 . S
C281 C280 1.251 . S
C282 H249 0.930 . S
C282 C284 1.406 . S
C282 C287 1.261 . S
C283 H250 0.930 . S
C283 N285 1.325 . S
C283 C286 1.357 . S
C284 H252 0.928 . S
C284 C282 1.406 . S
C284 N285 1.261 . S
N285 Co236 2.214 . S
N285 C283 1.325 . S
N285 C284 1.261 . S
C286 H256 0.931 . S
C286 C283 1.357 . S
C286 C287 1.312 . S
C287 H258 0.930 . S
C287 C282 1.261 . S
C287 C286 1.312 . S
C288 O260 1.214 . S
C288 O268 1.234 . S
C289 H261 0.929 . S
C289 C292 1.391 . S
C289 C294 1.391 . S
C290 H262 0.929 . S
C290 C291 1.390 . S
C290 N293 1.391 . S
C291 H263 0.930 . S
C291 C290 1.390 . S
C291 C292 1.392 . S
C292 H264 0.929 . S
C292 C289 1.391 . S
C292 C291 1.392 . S
N293 Co237 2.257 1_554 S
N293 C290 1.391 . S
N293 C294 1.388 . S
C294 H265 0.930 . S
C294 C289 1.391 . S
C294 N293 1.388 . S
Co295 O297 2.143 . S
Co295 O303 2.074 . S
Co295 O306 2.093 . S
Co295 O319 2.097 . S
Co295 N336 2.151 1_554 S
Co295 N344 2.214 . S
Co296 O297 2.160 . S
Co296 O302 2.058 . S
Co296 O312 2.057 . S
Co296 O327 2.037 . S
Co296 N331 2.145 . S
Co296 N352 2.257 . S
O297 Co295 2.143 . S
O297 Co296 2.160 . S
C298 O299 1.278 . S
C298 O306 1.224 . S
O299 C298 1.278 . S
C300 O301 1.245 1_554 S
C300 O312 1.232 . S
O301 C300 1.245 1_556 S
O302 Co296 2.058 . S
O302 C328 1.269 . S
O303 Co295 2.074 . S
O303 C328 1.257 . S
H304 C329 0.930 . S
H305 C335 0.930 . S
O306 Co295 2.093 . S
O306 C298 1.224 . S
H307 C339 0.929 . S
H308 C341 0.930 1_556 S
H309 C342 0.930 . S
H310 C340 0.929 . S
H311 C343 0.928 1_556 S
O312 Co296 2.057 . S
O312 C300 1.232 . S
H313 C332 0.929 . S
H314 C333 0.929 . S
H315 C345 0.931 . S
H316 C337 0.929 . S
H317 C346 0.930 . S
H318 C338 0.931 . S
O319 Co295 2.097 . S
O319 C347 1.214 . S
H320 C348 0.929 . S
H321 C349 0.929 . S
H322 C350 0.930 . S
H323 C351 0.929 . S
H324 C353 0.930 . S
H325 C330 0.930 . S
H326 C334 0.930 . S
O327 Co296 2.037 . S
O327 C347 1.234 . S
C328 O302 1.269 . S
C328 O303 1.257 . S
C329 H304 0.930 . S
C329 C332 1.388 . S
C329 C334 1.418 . S
C330 H325 0.930 . S
C330 C333 1.404 . S
C330 C334 1.353 . S
N331 Co296 2.145 . S
N331 C332 1.397 . S
N331 C333 1.334 . S
C332 H313 0.929 . S
C332 C329 1.388 . S
C332 N331 1.397 . S
C333 H314 0.929 . S
C333 C330 1.404 . S
C333 N331 1.334 . S
C334 H326 0.930 . S
C334 C329 1.418 . S
C334 C330 1.353 . S
C335 H305 0.930 . S
C335 N336 1.330 . S
C335 C337 1.446 . S
N336 Co295 2.151 1_556 S
N336 C335 1.330 . S
N336 C340 1.418 . S
C337 H316 0.929 . S
C337 C335 1.446 . S
C337 C338 1.332 . S
C338 H318 0.931 . S
C338 C337 1.332 . S
C338 C339 1.267 . S
C339 H307 0.929 . S
C339 C338 1.267 . S
C339 C340 1.251 . S
C340 H310 0.929 . S
C340 N336 1.418 . S
C340 C339 1.251 . S
C341 H308 0.930 1_554 S
C341 C343 1.406 . S
C341 C346 1.261 . S
C342 H309 0.930 . S
C342 N344 1.325 . S
C342 C345 1.357 . S
C343 H311 0.928 1_554 S
C343 C341 1.406 . S
C343 N344 1.261 . S
N344 Co295 2.214 . S
N344 C342 1.325 . S
N344 C343 1.261 . S
C345 H315 0.931 . S
C345 C342 1.357 . S
C345 C346 1.312 . S
C346 H317 0.930 . S
C346 C341 1.261 . S
C346 C345 1.312 . S
C347 O319 1.214 . S
C347 O327 1.234 . S
C348 H320 0.929 . S
C348 C351 1.391 . S
C348 C353 1.391 . S
C349 H321 0.929 . S
C349 C350 1.390 . S
C349 N352 1.391 . S
C350 H322 0.930 . S
C350 C349 1.390 . S
C350 C351 1.392 . S
C351 H323 0.929 . S
C351 C348 1.391 . S
C351 C350 1.392 . S
N352 Co296 2.257 . S
N352 C349 1.391 . S
N352 C353 1.388 . S
C353 H324 0.930 . S
C353 C348 1.391 . S
C353 N352 1.388 . S
Co354 O356 2.143 . S
Co354 O362 2.074 . S
Co354 O365 2.093 . S
Co354 O378 2.097 . S
Co354 N395 2.151 . S
Co354 N403 2.214 . S
Co355 O356 2.160 . S
Co355 O361 2.058 . S
Co355 O371 2.057 . S
Co355 O386 2.037 . S
Co355 N390 2.145 . S
Co355 N411 2.257 1_556 S
O356 Co354 2.143 . S
O356 Co355 2.160 . S
C357 O358 1.270 1_556 S
C357 O365 1.224 . S
O358 C357 1.270 1_554 S
C359 O360 1.245 . S
C359 O371 1.232 . S
O360 C359 1.245 . S
O361 Co355 2.058 . S
O361 C387 1.269 . S
O362 Co354 2.074 . S
O362 C387 1.257 . S
H363 C388 0.930 . S
H364 C394 0.930 . S
O365 Co354 2.093 . S
O365 C357 1.224 . S
H366 C398 0.929 . S
H367 C400 0.930 . S
H368 C401 0.930 . S
H369 C399 0.929 . S
H370 C402 0.928 . S
O371 Co355 2.057 . S
O371 C359 1.232 . S
H372 C391 0.929 . S
H373 C392 0.929 . S
H374 C404 0.931 . S
H375 C396 0.929 . S
H376 C405 0.930 . S
H377 C397 0.931 . S
O378 Co354 2.097 . S
O378 C406 1.214 . S
H379 C407 0.929 . S
H380 C408 0.929 . S
H381 C409 0.930 . S
H382 C410 0.929 . S
H383 C412 0.930 . S
H384 C389 0.930 . S
H385 C393 0.930 . S
O386 Co355 2.037 . S
O386 C406 1.234 . S
C387 O361 1.269 . S
C387 O362 1.257 . S
C388 H363 0.930 . S
C388 C391 1.388 . S
C388 C393 1.418 1_556 S
C389 H384 0.930 . S
C389 C392 1.404 . S
C389 C393 1.353 . S
N390 Co355 2.145 . S
N390 C391 1.397 . S
N390 C392 1.334 1_556 S
C391 H372 0.929 . S
C391 C388 1.388 . S
C391 N390 1.397 . S
C392 H373 0.929 . S
C392 C389 1.404 . S
C392 N390 1.334 1_554 S
C393 H385 0.930 . S
C393 C388 1.418 1_554 S
C393 C389 1.353 . S
C394 H364 0.930 . S
C394 N395 1.330 . S
C394 C396 1.446 . S
N395 Co354 2.151 . S
N395 C394 1.330 . S
N395 C399 1.418 . S
C396 H375 0.929 . S
C396 C394 1.446 . S
C396 C397 1.332 . S
C397 H377 0.931 . S
C397 C396 1.332 . S
C397 C398 1.267 . S
C398 H366 0.929 . S
C398 C397 1.267 . S
C398 C399 1.251 . S
C399 H369 0.929 . S
C399 N395 1.418 . S
C399 C398 1.251 . S
C400 H367 0.930 . S
C400 C402 1.406 . S
C400 C405 1.261 . S
C401 H368 0.930 . S
C401 N403 1.325 . S
C401 C404 1.357 . S
C402 H370 0.928 . S
C402 C400 1.406 . S
C402 N403 1.261 . S
N403 Co354 2.214 . S
N403 C401 1.325 . S
N403 C402 1.261 . S
C404 H374 0.931 . S
C404 C401 1.357 . S
C404 C405 1.312 . S
C405 H376 0.930 . S
C405 C400 1.261 . S
C405 C404 1.312 . S
C406 O378 1.214 . S
C406 O386 1.234 . S
C407 H379 0.929 . S
C407 C410 1.391 . S
C407 C412 1.391 . S
C408 H380 0.929 . S
C408 C409 1.390 . S
C408 N411 1.391 . S
C409 H381 0.930 . S
C409 C408 1.390 . S
C409 C410 1.392 . S
C410 H382 0.929 . S
C410 C407 1.391 . S
C410 C409 1.392 . S
N411 Co355 2.257 1_554 S
N411 C408 1.391 . S
N411 C412 1.388 . S
C412 H383 0.930 . S
C412 C407 1.391 . S
C412 N411 1.388 . S
Co413 O415 2.143 . S
Co413 O421 2.074 . S
Co413 O424 2.093 . S
Co413 O437 2.097 . S
Co413 N454 2.151 1_554 S
Co413 N462 2.214 . S
Co414 O415 2.160 . S
Co414 O420 2.058 . S
Co414 O430 2.057 . S
Co414 O445 2.037 . S
Co414 N449 2.145 . S
Co414 N470 2.257 . S
O415 Co413 2.143 . S
O415 Co414 2.160 . S
C416 O417 1.278 . S
C416 O424 1.224 . S
O417 C416 1.278 . S
C418 O419 1.245 1_554 S
C418 O430 1.232 . S
O419 C418 1.245 1_556 S
O420 Co414 2.058 . S
O420 C446 1.269 . S
O421 Co413 2.074 . S
O421 C446 1.257 . S
H422 C447 0.930 . S
H423 C453 0.930 . S
O424 Co413 2.093 . S
O424 C416 1.224 . S
H425 C457 0.929 . S
H426 C459 0.930 1_556 S
H427 C460 0.930 . S
H428 C458 0.929 . S
H429 C461 0.928 1_556 S
O430 Co414 2.057 . S
O430 C418 1.232 . S
H431 C450 0.929 . S
H432 C451 0.929 . S
H433 C463 0.931 . S
H434 C455 0.929 . S
H435 C464 0.930 . S
H436 C456 0.931 . S
O437 Co413 2.097 . S
O437 C465 1.214 . S
H438 C466 0.929 . S
H439 C467 0.929 . S
H440 C468 0.930 . S
H441 C469 0.929 . S
H442 C471 0.930 . S
H443 C448 0.930 . S
H444 C452 0.930 . S
O445 Co414 2.037 . S
O445 C465 1.234 . S
C446 O420 1.269 . S
C446 O421 1.257 . S
C447 H422 0.930 . S
C447 C450 1.388 . S
C447 C452 1.418 . S
C448 H443 0.930 . S
C448 C451 1.404 . S
C448 C452 1.353 . S
N449 Co414 2.145 . S
N449 C450 1.397 . S
N449 C451 1.334 . S
C450 H431 0.929 . S
C450 C447 1.388 . S
C450 N449 1.397 . S
C451 H432 0.929 . S
C451 C448 1.404 . S
C451 N449 1.334 . S
C452 H444 0.930 . S
C452 C447 1.418 . S
C452 C448 1.353 . S
C453 H423 0.930 . S
C453 N454 1.330 . S
C453 C455 1.446 . S
N454 Co413 2.151 1_556 S
N454 C453 1.330 . S
N454 C458 1.418 . S
C455 H434 0.929 . S
C455 C453 1.446 . S
C455 C456 1.332 . S
C456 H436 0.931 . S
C456 C455 1.332 . S
C456 C457 1.267 . S
C457 H425 0.929 . S
C457 C456 1.267 . S
C457 C458 1.251 . S
C458 H428 0.929 . S
C458 N454 1.418 . S
C458 C457 1.251 . S
C459 H426 0.930 1_554 S
C459 C461 1.406 . S
C459 C464 1.261 . S
C460 H427 0.930 . S
C460 N462 1.325 . S
C460 C463 1.357 . S
C461 H429 0.928 1_554 S
C461 C459 1.406 . S
C461 N462 1.261 . S
N462 Co413 2.214 . S
N462 C460 1.325 . S
N462 C461 1.261 . S
C463 H433 0.931 . S
C463 C460 1.357 . S
C463 C464 1.312 . S
C464 H435 0.930 . S
C464 C459 1.261 . S
C464 C463 1.312 . S
C465 O437 1.214 . S
C465 O445 1.234 . S
C466 H438 0.929 . S
C466 C469 1.391 . S
C466 C471 1.391 . S
C467 H439 0.929 . S
C467 C468 1.390 . S
C467 N470 1.391 . S
C468 H440 0.930 . S
C468 C467 1.390 . S
C468 C469 1.392 . S
C469 H441 0.929 . S
C469 C466 1.391 . S
C469 C468 1.392 . S
N470 Co414 2.257 . S
N470 C467 1.391 . S
N470 C471 1.388 . S
C471 H442 0.930 . S
C471 C466 1.391 . S
C471 N470 1.388 . S
C472 C473 1.349 . S
C472 C474 1.327 . S
C472 H497 0.950 . S
C473 C472 1.349 . S
C473 C489 1.349 . S
C474 C472 1.327 . S
C474 C493 1.429 . S
C474 H498 0.950 . S
C475 C492 1.574 . S
C475 C494 1.368 . S
C475 H499 0.949 . S
H476 C480 0.949 . S
C477 C478 1.349 . S
C477 C479 1.327 . S
C477 H500 0.950 . S
C478 C477 1.349 . S
C478 C490 1.349 . S
C479 C477 1.327 . S
C479 C495 1.429 . S
C479 H501 0.950 . S
C480 H476 0.949 . S
C480 C488 1.574 . S
C480 C496 1.368 . S
H481 C489 0.950 . S
H482 C487 0.950 . S
H483 C488 0.949 . S
H484 C490 0.950 . S
H485 C491 0.950 . S
H486 C492 0.949 . S
C487 H482 0.950 . S
C487 C489 1.327 . S
C487 C493 1.429 . S
C488 C480 1.574 . S
C488 H483 0.949 . S
C488 C494 1.368 . S
C489 C473 1.349 . S
C489 H481 0.950 . S
C489 C487 1.327 . S
C490 C478 1.349 . S
C490 H484 0.950 . S
C490 C491 1.327 . S
C491 H485 0.950 . S
C491 C490 1.327 . S
C491 C495 1.429 . S
C492 C475 1.574 . S
C492 H486 0.949 . S
C492 C496 1.368 . S
C493 C474 1.429 . S
C493 C487 1.429 . S
C493 C494 1.523 . S
C494 C475 1.368 . S
C494 C488 1.368 . S
C494 C493 1.523 . S
C495 C479 1.429 . S
C495 C491 1.429 . S
C495 C496 1.523 . S
C496 C480 1.368 . S
C496 C492 1.368 . S
C496 C495 1.523 . S
H497 C472 0.950 . S
H498 C474 0.950 . S
H499 C475 0.949 . S
H500 C477 0.950 . S
H501 C479 0.950 . S
C502 C503 1.349 . S
C502 C504 1.327 . S
C502 H527 0.950 . S
C503 C502 1.349 . S
C503 C519 1.349 . S
C504 C502 1.327 . S
C504 C523 1.429 . S
C504 H528 0.950 . S
C505 C522 1.574 . S
C505 C524 1.368 . S
C505 H529 0.949 . S
H506 C510 0.949 . S
C507 C508 1.349 . S
C507 C509 1.327 . S
C507 H530 0.950 . S
C508 C507 1.349 . S
C508 C520 1.349 . S
C509 C507 1.327 . S
C509 C525 1.429 . S
C509 H531 0.950 . S
C510 H506 0.949 . S
C510 C518 1.574 . S
C510 C526 1.368 . S
H511 C519 0.950 . S
H512 C517 0.950 . S
H513 C518 0.949 . S
H514 C520 0.950 . S
H515 C521 0.950 . S
H516 C522 0.949 . S
C517 H512 0.950 . S
C517 C519 1.327 . S
C517 C523 1.429 . S
C518 C510 1.574 . S
C518 H513 0.949 . S
C518 C524 1.368 . S
C519 C503 1.349 . S
C519 H511 0.950 . S
C519 C517 1.327 . S
C520 C508 1.349 . S
C520 H514 0.950 . S
C520 C521 1.327 . S
C521 H515 0.950 . S
C521 C520 1.327 . S
C521 C525 1.429 . S
C522 C505 1.574 . S
C522 H516 0.949 . S
C522 C526 1.368 . S
C523 C504 1.429 . S
C523 C517 1.429 . S
C523 C524 1.523 . S
C524 C505 1.368 . S
C524 C518 1.368 . S
C524 C523 1.523 . S
C525 C509 1.429 . S
C525 C521 1.429 . S
C525 C526 1.523 . S
C526 C510 1.368 . S
C526 C522 1.368 . S
C526 C525 1.523 . S
H527 C502 0.950 . S
H528 C504 0.950 . S
H529 C505 0.949 . S
H530 C507 0.950 . S
H531 C509 0.950 . S
C532 C533 1.349 . S
C532 C534 1.327 . S
C532 H557 0.950 . S
C533 C532 1.349 . S
C533 C549 1.349 . S
C534 C532 1.327 . S
C534 C553 1.429 . S
C534 H558 0.950 . S
C535 C552 1.574 . S
C535 C554 1.368 . S
C535 H559 0.949 . S
H536 C540 0.949 . S
C537 C538 1.349 . S
C537 C539 1.327 . S
C537 H560 0.950 . S
C538 C537 1.349 . S
C538 C550 1.349 . S
C539 C537 1.327 . S
C539 C555 1.429 . S
C539 H561 0.950 . S
C540 H536 0.949 . S
C540 C548 1.574 . S
C540 C556 1.368 . S
H541 C549 0.950 . S
H542 C547 0.950 . S
H543 C548 0.949 . S
H544 C550 0.950 . S
H545 C551 0.950 . S
H546 C552 0.949 . S
C547 H542 0.950 . S
C547 C549 1.327 . S
C547 C553 1.429 . S
C548 C540 1.574 . S
C548 H543 0.949 . S
C548 C554 1.368 . S
C549 C533 1.349 . S
C549 H541 0.950 . S
C549 C547 1.327 . S
C550 C538 1.349 . S
C550 H544 0.950 . S
C550 C551 1.327 . S
C551 H545 0.950 . S
C551 C550 1.327 . S
C551 C555 1.429 . S
C552 C535 1.574 . S
C552 H546 0.949 . S
C552 C556 1.368 . S
C553 C534 1.429 . S
C553 C547 1.429 . S
C553 C554 1.523 . S
C554 C535 1.368 . S
C554 C548 1.368 . S
C554 C553 1.523 . S
C555 C539 1.429 . S
C555 C551 1.429 . S
C555 C556 1.523 . S
C556 C540 1.368 . S
C556 C552 1.368 . S
C556 C555 1.523 . S
H557 C532 0.950 . S
H558 C534 0.950 . S
H559 C535 0.949 . S
H560 C537 0.950 . S
H561 C539 0.950 . S
C562 C563 1.349 . S
C562 C564 1.327 . S
C562 H587 0.950 . S
C563 C562 1.349 . S
C563 C579 1.349 . S
C564 C562 1.327 . S
C564 C583 1.429 . S
C564 H588 0.950 . S
C565 C582 1.574 . S
C565 C584 1.368 . S
C565 H589 0.949 . S
H566 C570 0.949 . S
C567 C568 1.349 . S
C567 C569 1.327 . S
C567 H590 0.950 . S
C568 C567 1.349 . S
C568 C580 1.349 . S
C569 C567 1.327 . S
C569 C585 1.429 . S
C569 H591 0.950 . S
C570 H566 0.949 . S
C570 C578 1.574 . S
C570 C586 1.368 . S
H571 C579 0.950 . S
H572 C577 0.950 . S
H573 C578 0.949 . S
H574 C580 0.950 . S
H575 C581 0.950 . S
H576 C582 0.949 . S
C577 H572 0.950 . S
C577 C579 1.327 . S
C577 C583 1.429 . S
C578 C570 1.574 . S
C578 H573 0.949 . S
C578 C584 1.368 . S
C579 C563 1.349 . S
C579 H571 0.950 . S
C579 C577 1.327 . S
C580 C568 1.349 . S
C580 H574 0.950 . S
C580 C581 1.327 . S
C581 H575 0.950 . S
C581 C580 1.327 . S
C581 C585 1.429 . S
C582 C565 1.574 . S
C582 H576 0.949 . S
C582 C586 1.368 . S
C583 C564 1.429 . S
C583 C577 1.429 . S
C583 C584 1.523 . S
C584 C565 1.368 . S
C584 C578 1.368 . S
C584 C583 1.523 . S
C585 C569 1.429 . S
C585 C581 1.429 . S
C585 C586 1.523 . S
C586 C570 1.368 . S
C586 C582 1.368 . S
C586 C585 1.523 . S
H587 C562 0.950 . S
H588 C564 0.950 . S
H589 C565 0.949 . S
H590 C567 0.950 . S
H591 C569 0.950 . S
C592 C593 1.349 . S
C592 C594 1.327 . S
C592 H617 0.950 . S
C593 C592 1.349 . S
C593 C609 1.349 . S
C594 C592 1.327 . S
C594 C613 1.429 . S
C594 H618 0.950 . S
C595 C612 1.574 . S
C595 C614 1.368 . S
C595 H619 0.949 . S
H596 C600 0.949 . S
C597 C598 1.349 . S
C597 C599 1.327 . S
C597 H620 0.950 . S
C598 C597 1.349 . S
C598 C610 1.349 . S
C599 C597 1.327 . S
C599 C615 1.429 . S
C599 H621 0.950 . S
C600 H596 0.949 . S
C600 C608 1.574 . S
C600 C616 1.368 . S
H601 C609 0.950 . S
H602 C607 0.950 . S
H603 C608 0.949 . S
H604 C610 0.950 . S
H605 C611 0.950 . S
H606 C612 0.949 . S
C607 H602 0.950 . S
C607 C609 1.327 . S
C607 C613 1.429 . S
C608 C600 1.574 . S
C608 H603 0.949 . S
C608 C614 1.368 . S
C609 C593 1.349 . S
C609 H601 0.950 . S
C609 C607 1.327 . S
C610 C598 1.349 . S
C610 H604 0.950 . S
C610 C611 1.327 . S
C611 H605 0.950 . S
C611 C610 1.327 . S
C611 C615 1.429 . S
C612 C595 1.574 . S
C612 H606 0.949 . S
C612 C616 1.368 . S
C613 C594 1.429 . S
C613 C607 1.429 . S
C613 C614 1.523 . S
C614 C595 1.368 . S
C614 C608 1.368 . S
C614 C613 1.523 . S
C615 C599 1.429 . S
C615 C611 1.429 . S
C615 C616 1.523 . S
C616 C600 1.368 . S
C616 C612 1.368 . S
C616 C615 1.523 . S
H617 C592 0.950 . S
H618 C594 0.950 . S
H619 C595 0.949 . S
H620 C597 0.950 . S
H621 C599 0.950 . S
C622 C623 1.349 . S
C622 C624 1.327 . S
C622 H647 0.950 . S
C623 C622 1.349 . S
C623 C639 1.349 . S
C624 C622 1.327 . S
C624 C643 1.429 . S
C624 H648 0.950 . S
C625 C642 1.574 . S
C625 C644 1.368 . S
C625 H649 0.949 . S
H626 C630 0.949 . S
C627 C628 1.349 . S
C627 C629 1.327 . S
C627 H650 0.950 . S
C628 C627 1.349 . S
C628 C640 1.349 . S
C629 C627 1.327 . S
C629 C645 1.429 . S
C629 H651 0.950 . S
C630 H626 0.949 . S
C630 C638 1.574 . S
C630 C646 1.368 . S
H631 C639 0.950 . S
H632 C637 0.950 . S
H633 C638 0.949 . S
H634 C640 0.950 . S
H635 C641 0.950 . S
H636 C642 0.949 . S
C637 H632 0.950 . S
C637 C639 1.327 . S
C637 C643 1.429 . S
C638 C630 1.574 . S
C638 H633 0.949 . S
C638 C644 1.368 . S
C639 C623 1.349 . S
C639 H631 0.950 . S
C639 C637 1.327 . S
C640 C628 1.349 . S
C640 H634 0.950 . S
C640 C641 1.327 . S
C641 H635 0.950 . S
C641 C640 1.327 . S
C641 C645 1.429 . S
C642 C625 1.574 . S
C642 H636 0.949 . S
C642 C646 1.368 . S
C643 C624 1.429 . S
C643 C637 1.429 . S
C643 C644 1.523 . S
C644 C625 1.368 . S
C644 C638 1.368 . S
C644 C643 1.523 . S
C645 C629 1.429 . S
C645 C641 1.429 . S
C645 C646 1.523 . S
C646 C630 1.368 . S
C646 C642 1.368 . S
C646 C645 1.523 . S
H647 C622 0.950 . S
H648 C624 0.950 . S
H649 C625 0.949 . S
H650 C627 0.950 . S
H651 C629 0.950 . S
C652 C653 1.349 . S
C652 C654 1.327 . S
C652 H677 0.950 . S
C653 C652 1.349 . S
C653 C669 1.349 . S
C654 C652 1.327 . S
C654 C673 1.429 . S
C654 H678 0.950 . S
C655 C672 1.574 . S
C655 C674 1.368 . S
C655 H679 0.949 . S
H656 C660 0.949 . S
C657 C658 1.349 . S
C657 C659 1.327 . S
C657 H680 0.950 . S
C658 C657 1.349 . S
C658 C670 1.349 . S
C659 C657 1.327 . S
C659 C675 1.429 . S
C659 H681 0.950 . S
C660 H656 0.949 . S
C660 C668 1.574 . S
C660 C676 1.368 . S
H661 C669 0.950 . S
H662 C667 0.950 . S
H663 C668 0.949 . S
H664 C670 0.950 . S
H665 C671 0.950 . S
H666 C672 0.949 . S
C667 H662 0.950 . S
C667 C669 1.327 . S
C667 C673 1.429 . S
C668 C660 1.574 . S
C668 H663 0.949 . S
C668 C674 1.368 . S
C669 C653 1.349 . S
C669 H661 0.950 . S
C669 C667 1.327 . S
C670 C658 1.349 . S
C670 H664 0.950 . S
C670 C671 1.327 . S
C671 H665 0.950 . S
C671 C670 1.327 . S
C671 C675 1.429 . S
C672 C655 1.574 . S
C672 H666 0.949 . S
C672 C676 1.368 . S
C673 C654 1.429 . S
C673 C667 1.429 . S
C673 C674 1.523 . S
C674 C655 1.368 . S
C674 C668 1.368 . S
C674 C673 1.523 . S
C675 C659 1.429 . S
C675 C671 1.429 . S
C675 C676 1.523 . S
C676 C660 1.368 . S
C676 C672 1.368 . S
C676 C675 1.523 . S
H677 C652 0.950 . S
H678 C654 0.950 . S
H679 C655 0.949 . S
H680 C657 0.950 . S
H681 C659 0.950 . S
C682 C683 1.349 . S
C682 C684 1.327 . S
C682 H707 0.950 . S
C683 C682 1.349 . S
C683 C699 1.349 . S
C684 C682 1.327 . S
C684 C703 1.429 . S
C684 H708 0.950 . S
C685 C702 1.574 . S
C685 C704 1.368 . S
C685 H709 0.949 . S
H686 C690 0.949 . S
C687 C688 1.349 . S
C687 C689 1.327 . S
C687 H710 0.950 . S
C688 C687 1.349 . S
C688 C700 1.349 . S
C689 C687 1.327 . S
C689 C705 1.429 . S
C689 H711 0.950 . S
C690 H686 0.949 . S
C690 C698 1.574 . S
C690 C706 1.368 . S
H691 C699 0.950 . S
H692 C697 0.950 . S
H693 C698 0.949 . S
H694 C700 0.950 . S
H695 C701 0.950 . S
H696 C702 0.949 . S
C697 H692 0.950 . S
C697 C699 1.327 . S
C697 C703 1.429 . S
C698 C690 1.574 . S
C698 H693 0.949 . S
C698 C704 1.368 . S
C699 C683 1.349 . S
C699 H691 0.950 . S
C699 C697 1.327 . S
C700 C688 1.349 . S
C700 H694 0.950 . S
C700 C701 1.327 . S
C701 H695 0.950 . S
C701 C700 1.327 . S
C701 C705 1.429 . S
C702 C685 1.574 . S
C702 H696 0.949 . S
C702 C706 1.368 . S
C703 C684 1.429 . S
C703 C697 1.429 . S
C703 C704 1.523 . S
C704 C685 1.368 . S
C704 C698 1.368 . S
C704 C703 1.523 . S
C705 C689 1.429 . S
C705 C701 1.429 . S
C705 C706 1.523 . S
C706 C690 1.368 . S
C706 C702 1.368 . S
C706 C705 1.523 . S
H707 C682 0.950 . S
H708 C684 0.950 . S
H709 C685 0.949 . S
H710 C687 0.950 . S
H711 C689 0.950 . S
C712 C713 1.349 . S
C712 C714 1.327 . S
C712 H737 0.950 . S
C713 C712 1.349 . S
C713 C729 1.349 1_554 S
C714 C712 1.327 . S
C714 C733 1.429 . S
C714 H738 0.950 . S
C715 C732 1.574 . S
C715 C734 1.368 1_556 S
C715 H739 0.949 . S
H716 C720 0.949 . S
C717 C718 1.349 . S
C717 C719 1.327 . S
C717 H740 0.950 . S
C718 C717 1.349 . S
C718 C730 1.344 1_556 S
C719 C717 1.327 . S
C719 C735 1.429 . S
C719 H741 0.950 . S
C720 H716 0.949 . S
C720 C728 1.574 . S
C720 C736 1.368 1_554 S
H721 C729 0.950 . S
H722 C727 0.950 . S
H723 C728 0.949 . S
H724 C730 0.954 . S
H725 C731 0.950 . S
H726 C732 0.949 . S
C727 H722 0.950 . S
C727 C729 1.327 . S
C727 C733 1.429 1_556 S
C728 C720 1.574 . S
C728 H723 0.949 . S
C728 C734 1.368 . S
C729 C713 1.349 1_556 S
C729 H721 0.950 . S
C729 C727 1.327 . S
C730 C718 1.344 1_554 S
C730 H724 0.954 . S
C730 C731 1.328 . S
C731 H725 0.950 . S
C731 C730 1.328 . S
C731 C735 1.429 1_554 S
C732 C715 1.574 . S
C732 H726 0.949 . S
C732 C736 1.368 . S
C733 C714 1.429 . S
C733 C727 1.429 1_554 S
C733 C734 1.523 . S
C734 C715 1.368 1_554 S
C734 C728 1.368 . S
C734 C733 1.523 . S
C735 C719 1.429 . S
C735 C731 1.429 1_556 S
C735 C736 1.523 . S
C736 C720 1.368 1_556 S
C736 C732 1.368 . S
C736 C735 1.523 . S
H737 C712 0.950 . S
H738 C714 0.950 . S
H739 C715 0.949 . S
H740 C717 0.950 . S
H741 C719 0.950 . S
C742 C743 1.349 . S
C742 C744 1.327 . S
C742 H767 0.950 . S
C743 C742 1.349 . S
C743 C759 1.349 1_554 S
C744 C742 1.327 . S
C744 C763 1.429 . S
C744 H768 0.950 . S
C745 C762 1.574 . S
C745 C764 1.368 1_556 S
C745 H769 0.949 . S
H746 C750 0.949 . S
C747 C748 1.349 . S
C747 C749 1.327 . S
C747 H770 0.950 . S
C748 C747 1.349 . S
C748 C760 1.349 1_556 S
C749 C747 1.327 . S
C749 C765 1.429 . S
C749 H771 0.950 . S
C750 H746 0.949 . S
C750 C758 1.574 . S
C750 C766 1.334 1_554 S
H751 C759 0.950 . S
H752 C757 0.950 . S
H753 C758 0.949 . S
H754 C760 0.950 . S
H755 C761 0.950 . S
H756 C762 0.949 . S
C757 H752 0.950 . S
C757 C759 1.327 . S
C757 C763 1.429 1_556 S
C758 C750 1.574 . S
C758 H753 0.949 . S
C758 C764 1.368 . S
C759 C743 1.349 1_556 S
C759 H751 0.950 . S
C759 C757 1.327 . S
C760 C748 1.349 1_554 S
C760 H754 0.950 . S
C760 C761 1.327 . S
C761 H755 0.950 . S
C761 C760 1.327 . S
C761 C765 1.429 1_554 S
C762 C745 1.574 . S
C762 H756 0.949 . S
C762 C766 1.400 . S
C763 C744 1.429 . S
C763 C757 1.429 1_554 S
C763 C764 1.523 . S
C764 C745 1.368 1_554 S
C764 C758 1.368 . S
C764 C763 1.523 . S
C765 C749 1.429 . S
C765 C761 1.429 1_556 S
C765 C766 1.527 . S
C766 C750 1.334 1_556 S
C766 C762 1.400 . S
C766 C765 1.527 . S
H767 C742 0.950 . S
H768 C744 0.950 . S
H769 C745 0.949 . S
H770 C747 0.950 . S
H771 C749 0.950 . S
C772 C773 1.349 1_556 S
C772 C774 1.327 . S
C772 H797 0.950 . S
C773 C772 1.349 1_554 S
C773 C789 1.349 . S
C774 C772 1.327 . S
C774 C793 1.429 1_556 S
C774 H798 0.950 . S
C775 C792 1.574 . S
C775 C794 1.368 . S
C775 H799 0.949 . S
H776 C780 0.949 . S
C777 C778 1.349 1_554 S
C777 C779 1.327 . S
C777 H800 0.950 . S
C778 C777 1.349 1_556 S
C778 C790 1.349 . S
C779 C777 1.327 . S
C779 C795 1.429 1_554 S
C779 H801 0.950 . S
C780 H776 0.949 . S
C780 C788 1.574 . S
C780 C796 1.368 . S
H781 C789 0.950 . S
H782 C787 0.950 . S
H783 C788 0.949 . S
H784 C790 0.950 . S
H785 C791 0.950 . S
H786 C792 0.949 . S
C787 H782 0.950 . S
C787 C789 1.327 . S
C787 C793 1.429 . S
C788 C780 1.574 . S
C788 H783 0.949 . S
C788 C794 1.368 1_556 S
C789 C773 1.349 . S
C789 H781 0.950 . S
C789 C787 1.327 . S
C790 C778 1.349 . S
C790 H784 0.950 . S
C790 C791 1.327 . S
C791 H785 0.950 . S
C791 C790 1.327 . S
C791 C795 1.429 . S
C792 C775 1.574 . S
C792 H786 0.949 . S
C792 C796 1.368 1_554 S
C793 C774 1.429 1_554 S
C793 C787 1.429 . S
C793 C794 1.523 . S
C794 C775 1.368 . S
C794 C788 1.368 1_554 S
C794 C793 1.523 . S
C795 C779 1.429 1_556 S
C795 C791 1.429 . S
C795 C796 1.523 . S
C796 C780 1.368 . S
C796 C792 1.368 1_556 S
C796 C795 1.523 . S
H797 C772 0.950 . S
H798 C774 0.950 . S
H799 C775 0.949 . S
H800 C777 0.950 . S
H801 C779 0.950 . S
C802 C803 1.349 . S
C802 C804 1.327 . S
C802 H827 0.950 . S
C803 C802 1.349 . S
C803 C819 1.349 1_556 S
C804 C802 1.327 . S
C804 C823 1.429 . S
C804 H828 0.950 . S
C805 C822 1.574 . S
C805 C824 1.341 1_554 S
C805 H829 0.949 . S
H806 C810 0.949 . S
C807 C808 1.349 . S
C807 C809 1.327 . S
C807 H830 0.950 . S
C808 C807 1.349 . S
C808 C820 1.349 1_554 S
C809 C807 1.327 . S
C809 C825 1.429 . S
C809 H831 0.950 . S
C810 H806 0.949 . S
C810 C818 1.574 . S
C810 C826 1.368 1_556 S
H811 C819 0.950 . S
H812 C817 0.950 . S
H813 C818 0.949 . S
H814 C820 0.950 . S
H815 C821 0.950 . S
H816 C822 0.949 . S
C817 H812 0.950 . S
C817 C819 1.327 . S
C817 C823 1.429 1_554 S
C818 C810 1.574 . S
C818 H813 0.949 . S
C818 C824 1.393 . S
C819 C803 1.349 1_554 S
C819 H811 0.950 . S
C819 C817 1.327 . S
C820 C808 1.349 1_556 S
C820 H814 0.950 . S
C820 C821 1.327 . S
C821 H815 0.950 . S
C821 C820 1.327 . S
C821 C825 1.429 1_556 S
C822 C805 1.574 . S
C822 H816 0.949 . S
C822 C826 1.368 . S
C823 C804 1.429 . S
C823 C817 1.429 1_556 S
C823 C824 1.527 . S
C824 C805 1.341 1_556 S
C824 C818 1.393 . S
C824 C823 1.527 . S
C825 C809 1.429 . S
C825 C821 1.429 1_554 S
C825 C826 1.523 . S
C826 C810 1.368 1_554 S
C826 C822 1.368 . S
C826 C825 1.523 . S
H827 C802 0.950 . S
H828 C804 0.950 . S
H829 C805 0.949 . S
H830 C807 0.950 . S
H831 C809 0.950 . S
C832 C833 1.349 . S
C832 C834 1.327 . S
C832 H857 0.950 . S
C833 C832 1.349 . S
C833 C849 1.349 . S
C834 C832 1.327 . S
C834 C853 1.429 . S
C834 H858 0.950 . S
C835 C852 1.574 . S
C835 C854 1.368 1_455 S
C835 H859 0.949 . S
H836 C840 0.949 . S
C837 C838 1.349 . S
C837 C839 1.327 . S
C837 H860 0.950 . S
C838 C837 1.349 . S
C838 C850 1.349 . S
C839 C837 1.327 . S
C839 C855 1.429 . S
C839 H861 0.950 . S
C840 H836 0.949 . S
C840 C848 1.574 . S
C840 C856 1.368 1_655 S
H841 C849 0.950 . S
H842 C847 0.941 1_455 S
H843 C848 0.949 . S
H844 C850 0.950 . S
H845 C851 0.941 1_655 S
H846 C852 0.949 . S
C847 H842 0.941 1_655 S
C847 C849 1.327 . S
C847 C853 1.429 . S
C848 C840 1.574 . S
C848 H843 0.949 . S
C848 C854 1.368 . S
C849 C833 1.349 . S
C849 H841 0.950 . S
C849 C847 1.327 . S
C850 C838 1.349 . S
C850 H844 0.950 . S
C850 C851 1.327 . S
C851 H845 0.941 1_455 S
C851 C850 1.327 . S
C851 C855 1.429 . S
C852 C835 1.574 . S
C852 H846 0.949 . S
C852 C856 1.368 . S
C853 C834 1.429 . S
C853 C847 1.429 . S
C853 C854 1.523 . S
C854 C835 1.368 1_655 S
C854 C848 1.368 . S
C854 C853 1.523 . S
C855 C839 1.429 . S
C855 C851 1.429 . S
C855 C856 1.523 . S
C856 C840 1.368 1_455 S
C856 C852 1.368 . S
C856 C855 1.523 . S
H857 C832 0.950 . S
H858 C834 0.950 . S
H859 C835 0.949 . S
H860 C837 0.950 . S
H861 C839 0.950 . S
C862 C863 1.349 . S
C862 C864 1.327 . S
C862 H887 0.950 . S
C863 C862 1.349 . S
C863 C879 1.349 . S
C864 C862 1.327 . S
C864 C883 1.429 . S
C864 H888 0.946 1_545 S
C865 C882 1.574 . S
C865 C884 1.368 . S
C865 H889 0.949 . S
H866 C870 0.949 . S
C867 C868 1.349 . S
C867 C869 1.327 . S
C867 H890 0.950 . S
C868 C867 1.349 . S
C868 C880 1.349 . S
C869 C867 1.327 . S
C869 C885 1.429 . S
C869 H891 0.946 1_565 S
C870 H866 0.949 . S
C870 C878 1.574 . S
C870 C886 1.368 . S
H871 C879 0.950 . S
H872 C877 0.950 . S
H873 C878 0.949 . S
H874 C880 0.950 . S
H875 C881 0.950 . S
H876 C882 0.949 . S
C877 H872 0.950 . S
C877 C879 1.327 . S
C877 C883 1.429 . S
C878 C870 1.574 . S
C878 H873 0.949 . S
C878 C884 1.368 1_565 S
C879 C863 1.349 . S
C879 H871 0.950 . S
C879 C877 1.327 . S
C880 C868 1.349 . S
C880 H874 0.950 . S
C880 C881 1.327 . S
C881 H875 0.950 . S
C881 C880 1.327 . S
C881 C885 1.429 . S
C882 C865 1.574 . S
C882 H876 0.949 . S
C882 C886 1.368 1_545 S
C883 C864 1.429 . S
C883 C877 1.429 . S
C883 C884 1.523 . S
C884 C865 1.368 . S
C884 C878 1.368 1_545 S
C884 C883 1.523 . S
C885 C869 1.429 . S
C885 C881 1.429 . S
C885 C886 1.523 . S
C886 C870 1.368 . S
C886 C882 1.368 1_565 S
C886 C885 1.523 . S
H887 C862 0.950 . S
H888 C864 0.946 1_565 S
H889 C865 0.949 . S
H890 C867 0.950 . S
H891 C869 0.946 1_545 S
C892 C893 1.349 . S
C892 C894 1.327 . S
C892 H917 0.950 1_556 S
C893 C892 1.349 . S
C893 C909 1.349 . S
C894 C892 1.327 . S
C894 C913 1.429 . S
C894 H918 0.950 1_556 S
C895 C912 1.574 1_545 S
C895 C914 1.368 . S
C895 H919 0.949 . S
H896 C900 0.949 1_554 S
C897 C898 1.349 . S
C897 C899 1.327 . S
C897 H920 0.950 . S
C898 C897 1.349 . S
C898 C910 1.349 . S
C899 C897 1.327 . S
C899 C915 1.429 . S
C899 H921 0.950 . S
C900 H896 0.949 1_556 S
C900 C908 1.574 1_565 S
C900 C916 1.368 . S
H901 C909 0.950 . S
H902 C907 0.950 . S
H903 C908 0.949 1_554 S
H904 C910 0.950 1_554 S
H905 C911 0.950 1_554 S
H906 C912 0.949 . S
C907 H902 0.950 . S
C907 C909 1.327 . S
C907 C913 1.429 . S
C908 C900 1.574 1_545 S
C908 H903 0.949 1_556 S
C908 C914 1.368 . S
C909 C893 1.349 . S
C909 H901 0.950 . S
C909 C907 1.327 . S
C910 C898 1.349 . S
C910 H904 0.950 1_556 S
C910 C911 1.327 . S
C911 H905 0.950 1_556 S
C911 C910 1.327 . S
C911 C915 1.429 . S
C912 C895 1.574 1_565 S
C912 H906 0.949 . S
C912 C916 1.368 . S
C913 C894 1.429 . S
C913 C907 1.429 . S
C913 C914 1.523 . S
C914 C895 1.368 . S
C914 C908 1.368 . S
C914 C913 1.523 . S
C915 C899 1.429 . S
C915 C911 1.429 . S
C915 C916 1.523 . S
C916 C900 1.368 . S
C916 C912 1.368 . S
C916 C915 1.523 . S
H917 C892 0.950 1_554 S
H918 C894 0.950 1_554 S
H919 C895 0.949 . S
H920 C897 0.950 . S
H921 C899 0.950 . S
C922 C923 1.349 . S
C922 C924 1.327 . S
C922 H947 0.950 . S
C923 C922 1.349 . S
C923 C939 1.349 . S
C924 C922 1.327 . S
C924 C943 1.429 . S
C924 H948 0.950 . S
C925 C942 1.574 1_455 S
C925 C944 1.368 . S
C925 H949 0.949 1_554 S
H926 C930 0.949 . S
C927 C928 1.349 . S
C927 C929 1.327 . S
C927 H950 0.950 1_554 S
C928 C927 1.349 . S
C928 C940 1.349 . S
C929 C927 1.327 . S
C929 C945 1.429 . S
C929 H951 0.950 1_554 S
C930 H926 0.949 . S
C930 C938 1.574 1_655 S
C930 C946 1.368 . S
H931 C939 0.950 1_556 S
H932 C937 0.950 1_556 S
H933 C938 0.949 . S
H934 C940 0.950 . S
H935 C941 0.950 . S
H936 C942 0.949 1_556 S
C937 H932 0.950 1_554 S
C937 C939 1.327 . S
C937 C943 1.429 . S
C938 C930 1.574 1_455 S
C938 H933 0.949 . S
C938 C944 1.368 . S
C939 C923 1.349 . S
C939 H931 0.950 1_554 S
C939 C937 1.327 . S
C940 C928 1.349 . S
C940 H934 0.950 . S
C940 C941 1.327 . S
C941 H935 0.950 . S
C941 C940 1.327 . S
C941 C945 1.429 . S
C942 C925 1.574 1_655 S
C942 H936 0.949 1_554 S
C942 C946 1.368 . S
C943 C924 1.429 . S
C943 C937 1.429 . S
C943 C944 1.523 . S
C944 C925 1.368 . S
C944 C938 1.368 . S
C944 C943 1.523 . S
C945 C929 1.429 . S
C945 C941 1.429 . S
C945 C946 1.523 . S
C946 C930 1.368 . S
C946 C942 1.368 . S
C946 C945 1.523 . S
H947 C922 0.950 . S
H948 C924 0.950 . S
H949 C925 0.949 1_556 S
H950 C927 0.950 1_556 S
H951 C929 0.950 1_556 S
C473 C465 1.604 . S
C478 C33 1.608 . S
C503 C92 1.608 . S
C508 C269 1.608 . S
C533 C151 1.608 . S
C538 C347 1.604 . S
C563 C387 1.608 . S
C568 C210 1.608 . S
C593 C62 1.494 . S
C598 C5 1.486 . S
C623 C64 1.490 . S
C628 C121 1.498 . S
C653 C180 1.494 . S
C658 C123 1.486 . S
C683 C182 1.490 . S
C688 C3 1.498 . S
C713 C418 1.499 . S
C718 C241 1.486 . S
C743 C298 1.486 . S
C748 C239 1.497 . S
C773 C300 1.499 . S
C778 C359 1.486 . S
C803 C357 1.497 . S
C808 C416 1.486 . S
C833 C170 1.204 . S
C838 C52 1.204 . S
C863 C229 1.202 . S
C868 C111 1.202 . S
C893 C406 1.201 . S
C898 C288 1.201 . S
C923 C446 1.196 . S
C928 C328 1.196 . S
