# Generated by pormake.
# Topology mdf, (4)-cn, num edge types: 1
# Building blocks:
#     Node 0, Type 0, BuildingBlock: UXUYUI_clean_sbu_0, # of connection points: 4
#     Node 1, Type 0, BuildingBlock: UXUYUI_clean_sbu_0, # of connection points: 4
#     Node 2, Type 0, BuildingBlock: UXUYUI_clean_sbu_0, # of connection points: 4
#     Node 3, Type 0, BuildingBlock: UXUYUI_clean_sbu_0, # of connection points: 4
#     Node 4, Type 0, BuildingBlock: UXUYUI_clean_sbu_0, # of connection points: 4
#     Node 5, Type 0, BuildingBlock: UXUYUI_clean_sbu_0, # of connection points: 4
#     Node 6, Type 0, BuildingBlock: UXUYUI_clean_sbu_0, # of connection points: 4
#     Node 7, Type 0, BuildingBlock: UXUYUI_clean_sbu_0, # of connection points: 4
#     Edge 8, Type (0, 0), BuildingBlock: XUDNAN_clean_linker_2, # of connection points: 2
#     Edge 9, Type (0, 0), BuildingBlock: XUDNAN_clean_linker_2, # of connection points: 2
#     Edge 10, Type (0, 0), BuildingBlock: XUDNAN_clean_linker_2, # of connection points: 2
#     Edge 11, Type (0, 0), BuildingBlock: XUDNAN_clean_linker_2, # of connection points: 2
#     Edge 12, Type (0, 0), BuildingBlock: XUDNAN_clean_linker_2, # of connection points: 2
#     Edge 13, Type (0, 0), BuildingBlock: XUDNAN_clean_linker_2, # of connection points: 2
#     Edge 14, Type (0, 0), BuildingBlock: XUDNAN_clean_linker_2, # of connection points: 2
#     Edge 15, Type (0, 0), BuildingBlock: XUDNAN_clean_linker_2, # of connection points: 2
#     Edge 16, Type (0, 0), BuildingBlock: XUDNAN_clean_linker_2, # of connection points: 2
#     Edge 17, Type (0, 0), BuildingBlock: XUDNAN_clean_linker_2, # of connection points: 2
#     Edge 18, Type (0, 0), BuildingBlock: XUDNAN_clean_linker_2, # of connection points: 2
#     Edge 19, Type (0, 0), BuildingBlock: XUDNAN_clean_linker_2, # of connection points: 2
#     Edge 20, Type (0, 0), BuildingBlock: XUDNAN_clean_linker_2, # of connection points: 2
#     Edge 21, Type (0, 0), BuildingBlock: XUDNAN_clean_linker_2, # of connection points: 2
#     Edge 22, Type (0, 0), BuildingBlock: XUDNAN_clean_linker_2, # of connection points: 2
#     Edge 23, Type (0, 0), BuildingBlock: XUDNAN_clean_linker_2, # of connection points: 2
# Relax obj value: 0.090
# Max RMSD: 0.078
# Mean RMSD: 0.078
data_MOF--net-mdf--node1-UXUYUI_clean_sbu_0--edge1-XUDNAN_clean_linker_2
_symmetry_space_group_name_H-M    P1
_symmetry_Int_Tables_number       1
_symmetry_cell_setting            triclinic
loop_
_symmetry_equiv_pos_as_xyz
'x, y, z'
_cell_length_a     50.126352
_cell_length_b     50.180613
_cell_length_c     22.807699
_cell_angle_alpha  89.94025
_cell_angle_beta   90.028429
_cell_angle_gamma 89.935335
loop_
_atom_site_label
_atom_site_type_symbol
_atom_site_fract_x
_atom_site_fract_y
_atom_site_fract_z
_atom_type_partial_charge
Li0 Li 0.24452 0.57356 0.42794 0.0
Li1 Li 0.22835 0.53999 0.35691 0.0
Li2 Li 0.27571 0.5396 0.39509 0.0
Li3 Li 0.26204 0.5734 0.32352 0.0
C4 C 0.22994 0.53106 0.49178 0.0
N5 N 0.20563 0.52594 0.59991 0.0
C6 C 0.20283 0.52472 0.49538 0.0
C7 C 0.24474 0.53449 0.54316 0.0
C8 C 0.1909 0.52228 0.55047 0.0
C9 C 0.23207 0.53193 0.5974 0.0
C10 C 0.20457 0.59124 0.32241 0.0
C11 C 0.18344 0.60281 0.23072 0.0
N12 N 0.16337 0.61493 0.26069 0.0
C13 C 0.18383 0.604 0.35225 0.0
C14 C 0.20446 0.59078 0.2611 0.0
C15 C 0.16314 0.61578 0.32028 0.0
C16 C 0.25056 0.61316 0.51668 0.0
N17 N 0.2332 0.59562 0.49207 0.0
C18 C 0.19875 0.60933 0.55822 0.0
C19 C 0.20765 0.59359 0.51165 0.0
C20 C 0.2162 0.62766 0.58453 0.0
C21 C 0.24244 0.62946 0.56311 0.0
H22 H 0.27069 0.61463 0.50004 0.0
H23 H 0.19406 0.57986 0.49075 0.0
C24 C 0.2023 0.49087 0.34124 0.0
N25 N 0.19865 0.51766 0.33672 0.0
C26 C 0.18097 0.47338 0.33212 0.0
C27 C 0.1527 0.51132 0.31224 0.0
C28 C 0.17448 0.52804 0.32214 0.0
C29 C 0.1556 0.48356 0.31815 0.0
H30 H 0.22168 0.48314 0.35346 0.0
H31 H 0.17179 0.54928 0.31919 0.0
C32 C 0.30722 0.58101 0.41792 0.0
N33 N 0.35943 0.58406 0.4562 0.0
C34 C 0.32747 0.58833 0.37902 0.0
C35 C 0.31347 0.57555 0.47643 0.0
C36 C 0.35375 0.5897 0.39919 0.0
C37 C 0.34 0.5771 0.49489 0.0
C38 C 0.26355 0.525 0.25727 0.0
C39 C 0.28683 0.51315 0.23582 0.0
C40 C 0.24117 0.52705 0.22099 0.0
C41 C 0.28753 0.50414 0.1779 0.0
C42 C 0.24264 0.51778 0.16335 0.0
N43 N 0.26561 0.50665 0.14314 0.0
C44 C 0.30398 0.50002 0.46136 0.0
C45 C 0.32769 0.51944 0.38231 0.0
C46 C 0.32599 0.48406 0.47557 0.0
N47 N 0.3053 0.51736 0.41559 0.0
C48 C 0.35017 0.50408 0.3952 0.0
C49 C 0.34956 0.48613 0.44248 0.0
H50 H 0.28586 0.49857 0.48685 0.0
H51 H 0.32809 0.53313 0.3457 0.0
C52 C 0.26473 0.62021 0.25339 0.0
N53 N 0.27462 0.59514 0.26001 0.0
C54 C 0.27447 0.6369 0.20919 0.0
C55 C 0.30474 0.60189 0.17993 0.0
C56 C 0.29435 0.58586 0.22456 0.0
C57 C 0.2949 0.62788 0.17184 0.0
H58 H 0.24943 0.62737 0.28287 0.0
H59 H 0.3026 0.56626 0.23196 0.0
O60 O 0.2419 0.53384 0.43824 0.0
O61 O 0.225 0.57963 0.35315 0.0
O62 O 0.28141 0.57921 0.39879 0.0
O63 O 0.26253 0.53383 0.31399 0.0
H64 H 0.19105 0.522 0.45613 0.0
H65 H 0.26575 0.53922 0.54118 0.0
H66 H 0.16991 0.51754 0.55392 0.0
H67 H 0.24325 0.53469 0.63751 0.0
H68 H 0.18313 0.60259 0.1833 0.0
H69 H 0.18364 0.60476 0.3996 0.0
H70 H 0.22057 0.58154 0.23711 0.0
H71 H 0.14692 0.62563 0.34285 0.0
H72 H 0.17825 0.60756 0.57261 0.0
H73 H 0.25661 0.6432 0.5823 0.0
H74 H 0.18417 0.45219 0.33782 0.0
H75 H 0.13371 0.52013 0.30051 0.0
H76 H 0.32297 0.59277 0.33368 0.0
H77 H 0.29803 0.57003 0.50716 0.0
H78 H 0.36965 0.5952 0.3695 0.0
H79 H 0.34515 0.57276 0.53997 0.0
H80 H 0.30423 0.51106 0.26348 0.0
H81 H 0.22277 0.53546 0.23719 0.0
H82 H 0.30548 0.49511 0.16062 0.0
H83 H 0.22548 0.51933 0.13476 0.0
H84 H 0.32473 0.47057 0.51256 0.0
H85 H 0.36775 0.50603 0.36795 0.0
H86 H 0.26609 0.65668 0.20445 0.0
H87 H 0.32088 0.59425 0.15324 0.0
Li88 Li 0.43449 0.74341 0.67495 0.0
Li89 Li 0.47134 0.73117 0.60835 0.0
Li90 Li 0.46734 0.7773 0.65088 0.0
Li91 Li 0.43705 0.76293 0.57221 0.0
C92 C 0.47584 0.72987 0.74398 0.0
N93 N 0.47981 0.7033 0.84988 0.0
C94 C 0.48563 0.70378 0.74594 0.0
C95 C 0.46833 0.74252 0.79603 0.0
C96 C 0.48744 0.69068 0.79988 0.0
C97 C 0.47039 0.72873 0.84907 0.0
C98 C 0.42703 0.70185 0.5676 0.0
C99 C 0.42441 0.67719 0.477 0.0
N100 N 0.41601 0.65538 0.50723 0.0
C101 C 0.41806 0.67928 0.59764 0.0
C102 C 0.42996 0.70088 0.50669 0.0
C103 C 0.41271 0.65595 0.5664 0.0
C104 C 0.39285 0.74719 0.75903 0.0
N105 N 0.41149 0.73044 0.73626 0.0
C106 C 0.40054 0.6971 0.80747 0.0
C107 C 0.41514 0.70557 0.75868 0.0
C108 C 0.3818 0.71432 0.83333 0.0
C109 C 0.37773 0.73951 0.80768 0.0
H110 H 0.39004 0.76674 0.74008 0.0
H111 H 0.43006 0.69257 0.73997 0.0
C112 C 0.52237 0.71474 0.57962 0.0
N113 N 0.49745 0.70482 0.58805 0.0
C114 C 0.54386 0.69765 0.56983 0.0
C115 C 0.51376 0.66023 0.57689 0.0
C116 C 0.49274 0.67813 0.5864 0.0
C117 C 0.53985 0.66994 0.56944 0.0
H118 H 0.52563 0.73601 0.58174 0.0
H119 H 0.47295 0.67058 0.59463 0.0
C120 C 0.42464 0.80621 0.6685 0.0
N121 N 0.4199 0.85778 0.70966 0.0
C122 C 0.41908 0.82706 0.62971 0.0
C123 C 0.42754 0.81155 0.7283 0.0
C124 C 0.41681 0.85301 0.65136 0.0
C125 C 0.42515 0.83776 0.74823 0.0
C126 C 0.48602 0.77049 0.51417 0.0
C127 C 0.49549 0.79555 0.49738 0.0
C128 C 0.48681 0.74943 0.47419 0.0
C129 C 0.50498 0.79927 0.44037 0.0
C130 C 0.49647 0.75392 0.41761 0.0
N131 N 0.50524 0.77856 0.40197 0.0
C132 C 0.50224 0.80221 0.73062 0.0
C133 C 0.48859 0.83046 0.6529 0.0
C134 C 0.51773 0.82253 0.75468 0.0
N135 N 0.4879 0.80651 0.68091 0.0
C136 C 0.50414 0.85132 0.6751 0.0
C137 C 0.51883 0.84748 0.72689 0.0
H138 H 0.50186 0.78291 0.75146 0.0
H139 H 0.47704 0.83341 0.61339 0.0
C140 C 0.39557 0.75998 0.48711 0.0
N141 N 0.41717 0.77432 0.50452 0.0
C142 C 0.38125 0.76738 0.437 0.0
C143 C 0.41096 0.80483 0.42484 0.0
C144 C 0.42481 0.79659 0.47492 0.0
C145 C 0.38898 0.79003 0.40491 0.0
H146 H 0.38949 0.74269 0.51204 0.0
H147 H 0.44162 0.80807 0.4903 0.0
O148 O 0.47368 0.74292 0.69143 0.0
O149 O 0.43218 0.72492 0.59756 0.0
O150 O 0.42735 0.78072 0.648 0.0
O151 O 0.47661 0.76654 0.56985 0.0
H152 H 0.49166 0.69369 0.7063 0.0
H153 H 0.46076 0.76268 0.79545 0.0
H154 H 0.49487 0.67045 0.80196 0.0
H155 H 0.46445 0.73822 0.88958 0.0
H156 H 0.42666 0.67617 0.42989 0.0
H157 H 0.41529 0.67972 0.64459 0.0
H158 H 0.4361 0.71831 0.48239 0.0
H159 H 0.4059 0.63831 0.58918 0.0
H160 H 0.40462 0.67763 0.82592 0.0
H161 H 0.36315 0.75328 0.82528 0.0
H162 H 0.56351 0.7061 0.56335 0.0
H163 H 0.50977 0.63903 0.57765 0.0
H164 H 0.41663 0.8233 0.58339 0.0
H165 H 0.43174 0.79565 0.75895 0.0
H166 H 0.41262 0.86935 0.62179 0.0
H167 H 0.4275 0.84218 0.79436 0.0
H168 H 0.49535 0.81202 0.52788 0.0
H169 H 0.48035 0.72973 0.48683 0.0
H170 H 0.51216 0.81862 0.42668 0.0
H171 H 0.49711 0.73779 0.38621 0.0
H172 H 0.52909 0.81862 0.79419 0.0
H173 H 0.50438 0.87032 0.65254 0.0
H174 H 0.36416 0.75564 0.42385 0.0
H175 H 0.4177 0.82237 0.40144 0.0
Li176 Li 0.27772 0.97333 0.85978 0.0
Li177 Li 0.26697 0.93589 0.924 0.0
Li178 Li 0.24584 0.93926 0.82467 0.0
Li179 Li 0.23253 0.96977 0.90469 0.0
C180 C 0.31071 0.92704 0.85 0.0
N181 N 0.36335 0.91153 0.86172 0.0
C182 C 0.32786 0.94117 0.88688 0.0
C183 C 0.32033 0.90503 0.81899 0.0
C184 C 0.3544 0.93302 0.89226 0.0
C185 C 0.34701 0.8975 0.82551 0.0
C186 C 0.27131 0.97997 1.00119 0.0
C187 C 0.25543 0.98044 0.10096 0.0
N188 N 0.27905 0.9911 0.11857 0.0
C189 C 0.29532 0.99118 0.02016 0.0
C190 C 0.25111 0.97475 0.04177 0.0
C191 C 0.29889 0.99655 0.07973 0.0
C192 C 0.30385 0.02179 0.87122 0.0
N193 N 0.30449 0.99888 0.8396 0.0
C194 C 0.34419 0.01311 0.79035 0.0
C195 C 0.32382 0.99439 0.79889 0.0
C196 C 0.34462 0.03648 0.82429 0.0
C197 C 0.32379 0.04089 0.86435 0.0
H198 H 0.2881 0.02493 0.90288 0.0
H199 H 0.32386 0.97599 0.77422 0.0
C200 C 0.26999 0.88767 0.99053 0.0
N201 N 0.28129 0.91202 0.98242 0.0
C202 C 0.27991 0.87026 0.03334 0.0
C203 C 0.31339 0.90296 0.05769 0.0
C204 C 0.3027 0.91977 0.01485 0.0
C205 C 0.30194 0.87782 0.06782 0.0
H206 H 0.25316 0.88177 0.96387 0.0
H207 H 0.31173 0.93895 0.00731 0.0
C208 C 0.24581 0.98905 0.76722 0.0
N209 N 0.2533 0.00934 0.65582 0.0
C210 C 0.23156 0.0115 0.7489 0.0
C211 C 0.26391 0.97693 0.72897 0.0
C212 C 0.23561 0.02146 0.69236 0.0
C213 C 0.2674 0.98749 0.67282 0.0
C214 C 0.2075 0.91851 0.92529 0.0
C215 C 0.18685 0.90924 0.88953 0.0
C216 C 0.20575 0.91537 0.98607 0.0
C217 C 0.16455 0.89735 0.91532 0.0
C218 C 0.18312 0.90337 0.01017 0.0
N219 N 0.16315 0.89471 0.9746 0.0
C220 C 0.24129 0.8978 0.73735 0.0
C221 C 0.21079 0.9338 0.73044 0.0
C222 C 0.23073 0.88634 0.68629 0.0
N223 N 0.23141 0.92129 0.75778 0.0
C224 C 0.2 0.92335 0.67902 0.0
C225 C 0.21016 0.89951 0.65595 0.0
H226 H 0.2576 0.88818 0.76014 0.0
H227 H 0.20298 0.9522 0.74814 0.0
C228 C 0.20921 0.0154 0.95548 0.0
N229 N 0.20361 0.99051 0.93537 0.0
C230 C 0.18881 0.0318 0.97677 0.0
C231 C 0.15726 0.99666 0.95633 0.0
C232 C 0.17818 0.9811 0.93476 0.0
C233 C 0.16244 0.02237 0.97768 0.0
H234 H 0.22956 0.02255 0.95473 0.0
H235 H 0.17396 0.96169 0.91691 0.0
O236 O 0.28462 0.93461 0.84404 0.0
O237 O 0.26751 0.97461 0.943 0.0
O238 O 0.24202 0.97908 0.82243 0.0
O239 O 0.22952 0.93008 0.90064 0.0
H240 H 0.32076 0.95825 0.91119 0.0
H241 H 0.3073 0.89389 0.79018 0.0
H242 H 0.36788 0.94378 0.92072 0.0
H243 H 0.35474 0.8805 0.80178 0.0
H244 H 0.23998 0.97646 0.13287 0.0
H245 H 0.31113 0.99546 0.98926 0.0
H246 H 0.23222 0.96663 0.0277 0.0
H247 H 0.31744 0.00506 0.09509 0.0
H248 H 0.35991 0.00889 0.75915 0.0
H249 H 0.32306 0.05884 0.89064 0.0
H250 H 0.2702 0.85122 0.03973 0.0
H251 H 0.33073 0.90954 0.08199 0.0
H252 H 0.21749 0.0211 0.77807 0.0
H253 H 0.27512 0.95953 0.74239 0.0
H254 H 0.2247 0.03881 0.67754 0.0
H255 H 0.28132 0.9783 0.64274 0.0
H256 H 0.18796 0.91133 0.84238 0.0
H257 H 0.22177 0.92186 0.01435 0.0
H258 H 0.14835 0.89021 0.88821 0.0
H259 H 0.18149 0.90086 0.05714 0.0
H260 H 0.23909 0.86794 0.66965 0.0
H261 H 0.18394 0.93391 0.65723 0.0
H262 H 0.19364 0.05149 0.993 0.0
H263 H 0.13714 0.98882 0.9553 0.0
Li264 Li 0.03803 0.77398 0.10667 0.0
Li265 Li 0.0731 0.76494 0.17913 0.0
Li266 Li 0.07577 0.74393 0.07847 0.0
Li267 Li 0.04358 0.7284 0.15348 0.0
C268 C 0.08361 0.80216 0.06179 0.0
N269 N 0.09794 0.8415 0.98292 0.0
C270 C 0.09391 0.82638 0.08187 0.0
C271 C 0.08092 0.79787 1.00154 0.0
C272 C 0.10095 0.84605 0.04132 0.0
C273 C 0.08818 0.81802 0.96239 0.0
C274 C 0.02916 0.77552 0.24173 0.0
C275 C 0.02962 0.77579 0.34741 0.0
N276 N 0.02121 0.80157 0.34688 0.0
C277 C 0.02029 0.80193 0.24217 0.0
C278 C 0.03365 0.76223 0.29468 0.0
C279 C 0.01647 0.81479 0.29582 0.0
C280 C 0.98624 0.78848 0.07836 0.0
N281 N 0.01141 0.79845 0.07971 0.0
C282 C 0.99579 0.84062 0.04436 0.0
C283 C 0.01652 0.82408 0.06375 0.0
C284 C 0.96957 0.83072 0.04169 0.0
C285 C 0.96498 0.80428 0.05949 0.0
H286 H 0.98272 0.76813 0.092 0.0
H287 H 0.03659 0.83176 0.06596 0.0
C288 C 0.1112 0.76967 0.274 0.0
N289 N 0.09283 0.7824 0.24004 0.0
C290 C 0.12574 0.78387 0.31623 0.0
C291 C 0.10183 0.82371 0.28817 0.0
C292 C 0.08792 0.80885 0.24661 0.0
C293 C 0.12137 0.81139 0.32319 0.0
H294 H 0.1149 0.74864 0.26769 0.0
H295 H 0.07326 0.8185 0.21903 0.0
C296 C 0.0249 0.73196 0.01843 0.0
N297 N 1.00007 0.7197 0.9136 0.0
C298 C 0.01509 0.70628 0.00855 0.0
C299 C 0.02173 0.75149 0.97522 0.0
C300 C 1.00272 0.70045 0.9552 0.0
C301 C 0.0092 0.74488 0.92248 0.0
C302 C 0.09009 0.70365 0.17986 0.0
C303 C 0.10168 0.68419 0.14418 0.0
C304 C 0.08532 0.69814 0.23899 0.0
C305 C 0.10807 0.65937 0.16825 0.0
C306 C 0.09196 0.67306 0.26138 0.0
N307 N 0.10309 0.65436 0.22584 0.0
C308 C 0.12215 0.74384 0.00602 0.0
C309 C 0.08941 0.71194 0.98041 0.0
C310 C 0.13827 0.73574 0.95922 0.0
N311 N 0.09808 0.7321 0.01528 0.0
C312 C 0.10475 0.70335 0.93292 0.0
C313 C 0.12956 0.71534 0.92145 0.0
H314 H 0.12876 0.75961 0.03487 0.0
H315 H 0.07053 0.70247 0.98932 0.0
C316 C 1.00167 0.70076 0.21115 0.0
N317 N 0.02378 0.69768 0.17728 0.0
C318 C 0.98452 0.67921 0.22104 0.0
C319 C 0.01378 0.65157 0.16289 0.0
C320 C 0.03026 0.67361 0.15398 0.0
C321 C 0.99014 0.65433 0.19548 0.0
H322 H 0.9967 0.72022 0.2283 0.0
H323 H 0.04754 0.6718 0.12598 0.0
O324 O 0.07686 0.78261 0.10098 0.0
O325 O 0.03336 0.76273 0.18966 0.0
O326 O 0.03692 0.73802 0.0707 0.0
O327 O 0.08381 0.72809 0.15711 0.0
H328 H 0.09648 0.82998 0.12824 0.0
H329 H 0.07365 0.77908 0.98505 0.0
H330 H 0.10887 0.8649 0.05629 0.0
H331 H 0.08618 0.81493 0.91567 0.0
H332 H 0.03317 0.76581 0.38875 0.0
H333 H 0.01666 0.81247 0.20151 0.0
H334 H 0.04025 0.74171 0.29502 0.0
H335 H 0.00979 0.83529 0.29686 0.0
H336 H 1.00034 0.8608 0.0308 0.0
H337 H 0.94508 0.7959 0.05944 0.0
H338 H 0.14073 0.77357 0.3419 0.0
H339 H 0.09734 0.84472 0.29262 0.0
H340 H 0.01713 0.69095 0.04152 0.0
H341 H 0.0285 0.77163 0.98242 0.0
H342 H 0.99519 0.68061 0.94689 0.0
H343 H 0.00665 0.75982 0.8887 0.0
H344 H 0.10564 0.6882 0.09838 0.0
H345 H 0.07654 0.71305 0.26724 0.0
H346 H 0.11698 0.64408 0.14115 0.0
H347 H 0.08829 0.66848 0.30702 0.0
H348 H 0.15743 0.74527 0.95303 0.0
H349 H 0.09695 0.68778 0.90496 0.0
H350 H 0.96639 0.68239 0.24588 0.0
H351 H 0.01914 0.63274 0.14294 0.0
Li352 Li 0.7428 0.07173 0.93207 0.0
Li353 Li 0.72745 0.03783 0.86537 0.0
Li354 Li 0.77202 0.03412 0.90278 0.0
Li355 Li 0.76027 0.0687 0.82585 0.0
C356 C 0.74154 0.02894 0.00666 0.0
N357 N 0.74777 0.02142 0.12594 0.0
C358 C 0.7206 0.01861 0.04012 0.0
C359 C 0.7656 0.03552 0.03394 0.0
C360 C 0.72415 0.01495 0.10035 0.0
C361 C 0.76839 0.03154 0.09424 0.0
C362 C 0.69963 0.08154 0.83048 0.0
C363 C 0.67269 0.09237 0.7461 0.0
N364 N 0.65035 0.09016 0.77958 0.0
C365 C 0.67643 0.07956 0.86417 0.0
C366 C 0.69781 0.08811 0.77104 0.0
C367 C 0.65169 0.08391 0.83756 0.0
C368 C 0.74755 0.11518 0.01387 0.0
N369 N 0.73225 0.09444 0.99547 0.0
C370 C 0.70067 0.10256 0.0721 0.0
C371 C 0.70908 0.08814 0.02313 0.0
C372 C 0.71631 0.1237 0.09313 0.0
C373 C 0.73997 0.13008 0.06303 0.0
H374 H 0.76575 0.11998 0.9908 0.0
H375 H 0.69734 0.07148 0.00781 0.0
C376 C 0.69321 0.99532 0.8864 0.0
N377 N 0.697 0.01555 0.84765 0.0
C378 C 0.67184 0.97781 0.87988 0.0
C379 C 0.65894 1.00145 0.79207 0.0
C380 C 0.68063 0.01861 0.80041 0.0
C381 C 0.65412 0.98092 0.83265 0.0
H382 H 0.70695 0.99262 0.9224 0.0
H383 H 0.68436 0.03424 0.76898 0.0
C384 C 0.80646 0.08003 0.9116 0.0
N385 N 0.85911 0.09417 0.92984 0.0
C386 C 0.82438 0.08062 0.86465 0.0
C387 C 0.81531 0.08686 0.96777 0.0
C388 C 0.85092 0.08775 0.87479 0.0
C389 C 0.84201 0.09387 0.97611 0.0
C390 C 0.75031 0.01108 0.78221 0.0
C391 C 0.75103 0.98396 0.79609 0.0
C392 C 0.73844 0.01944 0.72984 0.0
C393 C 0.73973 0.96561 0.75734 0.0
C394 C 0.72743 1.00046 0.69218 0.0
N395 N 0.72827 0.97416 0.70663 0.0
C396 C 0.78798 0.98446 0.94482 0.0
C397 C 0.82501 0.01166 0.92106 0.0
C398 C 0.80479 0.96296 0.95697 0.0
N399 N 0.7982 0.00812 0.92641 0.0
C400 C 0.84262 0.99069 0.93328 0.0
C401 C 0.83249 0.96577 0.95028 0.0
H402 H 0.7666 0.98204 0.94835 0.0
H403 H 0.83282 0.03037 0.90559 0.0
C404 C 0.77053 0.11397 0.75084 0.0
N405 N 0.7734 0.08719 0.75813 0.0
C406 C 0.77965 0.12633 0.69941 0.0
C407 C 0.79467 0.08339 0.6647 0.0
C408 C 0.78561 0.07198 0.71678 0.0
C409 C 0.79149 0.11085 0.65515 0.0
H410 H 0.76085 0.12565 0.78454 0.0
H411 H 0.78817 0.05085 0.72411 0.0
O412 O 0.73811 0.03323 0.94783 0.0
O413 O 0.72404 0.07761 0.85573 0.0
O414 O 0.78025 0.07367 0.90228 0.0
O415 O 0.76071 0.02942 0.82022 0.0
H416 H 0.70169 0.01374 0.01989 0.0
H417 H 0.78195 0.0436 0.00885 0.0
H418 H 0.70808 0.00703 0.12678 0.0
H419 H 0.78694 0.03653 0.11585 0.0
H420 H 0.67096 0.09737 0.70011 0.0
H421 H 0.67751 0.07451 0.91021 0.0
H422 H 0.71558 0.08977 0.74439 0.0
H423 H 0.63355 0.08229 0.86299 0.0
H424 H 0.6825 0.0967 0.09426 0.0
H425 H 0.75248 0.14642 0.0773 0.0
H426 H 0.66936 0.96183 0.91135 0.0
H427 H 0.64586 0.00452 0.75488 0.0
H428 H 0.81798 0.07533 0.82097 0.0
H429 H 0.80173 0.08684 1.00461 0.0
H430 H 0.86501 0.08815 0.83889 0.0
H431 H 0.84912 0.09916 0.01935 0.0
H432 H 0.76003 0.97716 0.8365 0.0
H433 H 0.7373 0.04039 0.71885 0.0
H434 H 0.74004 0.94456 0.76764 0.0
H435 H 0.71804 0.00665 0.65168 0.0
H436 H 0.79614 0.94417 0.97057 0.0
H437 H 0.86384 0.99363 0.92705 0.0
H438 H 0.77681 0.14757 0.69359 0.0
H439 H 0.80408 0.07082 0.63212 0.0
Li440 Li 0.93313 0.24256 0.18258 0.0
Li441 Li 0.9694 0.2291 0.11678 0.0
Li442 Li 0.96784 0.27563 0.16268 0.0
Li443 Li 0.93679 0.26359 0.08281 0.0
C444 C 0.97271 0.22756 0.25354 0.0
N445 N 0.9726 0.20187 0.36071 0.0
C446 C 0.97307 0.19973 0.2561 0.0
C447 C 0.9727 0.24233 0.30543 0.0
C448 C 0.97289 0.18711 0.31073 0.0
C449 C 0.97254 0.22897 0.3592 0.0
C450 C 0.92351 0.20846 0.05874 0.0
C451 C 0.92879 0.19402 0.95859 0.0
N452 N 0.91062 0.17436 0.96798 0.0
C453 C 0.90479 0.1882 0.06734 0.0
C454 C 0.93554 0.21145 1.00392 0.0
C455 C 0.89858 0.17113 0.02094 0.0
C456 C 0.89681 0.24112 0.2823 0.0
N457 N 0.90989 0.22701 0.24022 0.0
C458 C 0.89201 0.18617 0.27728 0.0
C459 C 0.90778 0.20006 0.23723 0.0
C460 C 0.87811 0.2001 0.32112 0.0
C461 C 0.8808 0.22797 0.32357 0.0
H462 H 0.89869 0.26252 0.28393 0.0
H463 H 0.9187 0.18927 0.20395 0.0
C464 C 0.01892 0.20445 0.09016 0.0
N465 N 0.9923 0.20008 0.09626 0.0
C466 C 0.03634 0.18313 0.08 0.0
C467 C 0.99856 0.15331 0.08178 0.0
C468 C 0.98194 0.17513 0.09222 0.0
C469 C 0.02626 0.15703 0.07637 0.0
H470 H 0.02669 0.22446 0.09452 0.0
H471 H 0.96083 0.172 0.0986 0.0
C472 C 0.92097 0.30332 0.18752 0.0
N473 N 0.90722 0.35012 0.24372 0.0
C474 C 0.90745 0.32341 0.15707 0.0
C475 C 0.92742 0.30701 0.24656 0.0
C476 C 0.90068 0.34693 0.18627 0.0
C477 C 0.92033 0.33082 0.27418 0.0
C478 C 0.98956 0.27398 0.03297 0.0
C479 C 0.99531 0.30114 0.02803 0.0
C480 C 0.99807 0.25651 0.98904 0.0
C481 C 0.00868 0.3105 0.9784 0.0
C482 C 0.01144 0.26662 0.94012 0.0
N483 N 0.01637 0.29319 0.93578 0.0
C484 C 0.01183 0.2989 0.22271 0.0
C485 C 0.98214 0.32985 0.17891 0.0
C486 C 0.02815 0.31966 0.24253 0.0
N487 N 0.98927 0.30434 0.19173 0.0
C488 C 0.99758 0.35116 0.19863 0.0
C489 C 0.02093 0.3462 0.23083 0.0
H490 H 0.01722 0.27842 0.23171 0.0
H491 H 0.96463 0.33371 0.15263 0.0
C492 C 0.89989 0.267 0.98403 0.0
N493 N 0.91922 0.27931 0.01608 0.0
C494 C 0.88983 0.27905 0.93309 0.0
C495 C 0.91865 0.31669 0.951 0.0
C496 C 0.92792 0.30408 1.00157 0.0
C497 C 0.89979 0.30393 0.91527 0.0
H498 H 0.89254 0.24768 0.99726 0.0
H499 H 0.94229 0.314 0.0292 0.0
O500 O 0.97232 0.24025 0.20048 0.0
O501 O 0.93012 0.22509 0.10402 0.0
O502 O 0.92809 0.28034 0.15932 0.0
O503 O 0.97664 0.26442 0.08158 0.0
H504 H 0.97313 0.18801 0.21634 0.0
H505 H 0.97287 0.26387 0.30421 0.0
H506 H 0.97293 0.16559 0.31337 0.0
H507 H 0.97241 0.24015 0.39973 0.0
H508 H 0.93792 0.19618 0.91589 0.0
H509 H 0.89514 0.18567 0.10939 0.0
H510 H 0.94957 0.22733 0.99626 0.0
H511 H 0.88417 0.15533 0.02701 0.0
H512 H 0.89098 0.16466 0.2743 0.0
H513 H 0.8703 0.23951 0.35637 0.0
H514 H 0.05755 0.18699 0.07695 0.0
H515 H 0.98975 0.13367 0.07853 0.0
H516 H 0.90223 0.32086 0.11139 0.0
H517 H 0.938 0.29174 0.27061 0.0
H518 H 0.89023 0.36265 0.16325 0.0
H519 H 0.92531 0.33397 0.31981 0.0
H520 H 0.98934 0.31493 0.06191 0.0
H521 H 0.99467 0.23531 0.99277 0.0
H522 H 0.01299 0.33151 0.97383 0.0
H523 H 0.018 0.25332 0.90571 0.0
H524 H 0.04601 0.31506 0.26733 0.0
H525 H 0.99157 0.37132 0.18785 0.0
H526 H 0.87513 0.26863 0.90693 0.0
H527 H 0.92633 0.33621 0.93972 0.0
Li528 Li 0.77843 0.47011 0.34969 0.0
Li529 Li 0.76937 0.43698 0.42658 0.0
Li530 Li 0.74548 0.43601 0.32721 0.0
Li531 Li 0.7346 0.47022 0.4004 0.0
C532 C 0.80802 0.43031 0.31762 0.0
N533 N 0.8565 0.43127 0.26011 0.0
C534 C 0.83178 0.42834 0.3494 0.0
C535 C 0.80889 0.43259 0.25658 0.0
C536 C 0.8561 0.4289 0.31952 0.0
C537 C 0.8336 0.43309 0.22832 0.0
C538 C 0.77008 0.48559 0.48977 0.0
C539 C 0.75189 0.48412 0.58754 0.0
N540 N 0.76785 0.50486 0.60305 0.0
C541 C 0.78626 0.50691 0.50655 0.0
C542 C 0.75272 0.47411 0.53046 0.0
C543 C 0.78487 0.51635 0.56409 0.0
C544 C 0.80484 0.50334 0.26618 0.0
N545 N 0.80651 0.49228 0.32046 0.0
C546 C 0.8491 0.5126 0.33613 0.0
C547 C 0.828 0.49667 0.35557 0.0
C548 C 0.84809 0.52402 0.2799 0.0
C549 C 0.82552 0.51924 0.24484 0.0
H550 H 0.78745 0.49987 0.23941 0.0
H551 H 0.8288 0.48761 0.3986 0.0
C552 C 0.77883 0.39303 0.50652 0.0
N553 N 0.78662 0.41767 0.48833 0.0
C554 C 0.79321 0.37966 0.55041 0.0
C555 C 0.82309 0.41732 0.55583 0.0
C556 C 0.8082 0.4299 0.51223 0.0
C557 C 0.81591 0.39171 0.57509 0.0
H558 H 0.76176 0.38359 0.48633 0.0
H559 H 0.81415 0.44935 0.49661 0.0
C560 C 0.72714 0.48017 0.26773 0.0
N561 N 0.69585 0.48959 0.17006 0.0
C562 C 0.70116 0.4899 0.27415 0.0
C563 C 0.73723 0.47533 0.21159 0.0
C564 C 0.68566 0.49453 0.22423 0.0
C565 C 0.72108 0.48017 0.16278 0.0
C566 C 0.70707 0.42176 0.43039 0.0
C567 C 0.68444 0.42108 0.39462 0.0
C568 C 0.70536 0.41273 0.4883 0.0
C569 C 0.66041 0.41155 0.41747 0.0
C570 C 0.68096 0.40336 0.50954 0.0
N571 N 0.65918 0.40297 0.47398 0.0
C572 C 0.74752 0.39238 0.24823 0.0
C573 C 0.7084 0.4184 0.23839 0.0
C574 C 0.73991 0.37649 0.20066 0.0
N575 N 0.732 0.41318 0.26559 0.0
C576 C 0.70018 0.40327 0.19031 0.0
C577 C 0.71612 0.3821 0.1702 0.0
H578 H 0.76607 0.38835 0.27079 0.0
H579 H 0.69614 0.43482 0.25273 0.0
C580 C 0.71712 0.52035 0.43022 0.0
N581 N 0.70875 0.4946 0.43166 0.0
C582 C 0.7009 0.54072 0.45167 0.0
C583 C 0.66726 0.50791 0.47474 0.0
C584 C 0.68434 0.48805 0.45347 0.0
C585 C 0.6756 0.53462 0.47435 0.0
H586 H 0.73656 0.52502 0.41241 0.0
H587 H 0.67803 0.46756 0.45479 0.0
O588 O 0.78404 0.4305 0.34617 0.0
O589 O 0.7711 0.47624 0.43353 0.0
O590 O 0.74261 0.47561 0.31614 0.0
O591 O 0.73093 0.43053 0.4085 0.0
H592 H 0.83146 0.42659 0.39665 0.0
H593 H 0.79068 0.43415 0.23135 0.0
H594 H 0.87466 0.42751 0.34357 0.0
H595 H 0.83458 0.43499 0.18112 0.0
H596 H 0.73852 0.47544 0.61948 0.0
H597 H 0.79973 0.51608 0.47543 0.0
H598 H 0.73996 0.45776 0.51797 0.0
H599 H 0.79729 0.53283 0.57774 0.0
H600 H 0.86621 0.51556 0.36439 0.0
H601 H 0.82372 0.52797 0.20157 0.0
H602 H 0.7871 0.35985 0.56363 0.0
H603 H 0.8402 0.42755 0.5741 0.0
H604 H 0.69297 0.49374 0.31717 0.0
H605 H 0.75713 0.46746 0.20574 0.0
H606 H 0.6655 0.502 0.22857 0.0
H607 H 0.72857 0.47633 0.11912 0.0
H608 H 0.6853 0.42823 0.35008 0.0
H609 H 0.72268 0.41288 0.51659 0.0
H610 H 0.64272 0.41107 0.39031 0.0
H611 H 0.67936 0.39635 0.55427 0.0
H612 H 0.75265 0.36008 0.18783 0.0
H613 H 0.68187 0.40874 0.16813 0.0
H614 H 0.70798 0.56109 0.45 0.0
H615 H 0.64797 0.50239 0.49233 0.0
Li616 Li 0.53979 0.28017 0.60335 0.0
Li617 Li 0.57343 0.26837 0.67614 0.0
Li618 Li 0.57345 0.24559 0.57872 0.0
Li619 Li 0.53914 0.23609 0.65258 0.0
C620 C 0.58824 0.31004 0.60023 0.0
N621 N 0.60625 0.36199 0.60775 0.0
C622 C 0.57373 0.329 0.63174 0.0
C623 C 0.61187 0.31757 0.5722 0.0
C624 C 0.58317 0.35513 0.63515 0.0
C625 C 0.62066 0.34391 0.57659 0.0
C626 C 0.53059 0.28226 0.74216 0.0
C627 C 0.53476 0.27854 0.84726 0.0
N628 N 0.52422 0.30337 0.8532 0.0
C629 C 0.51963 0.30769 0.74936 0.0
C630 C 0.53807 0.26751 0.79153 0.0
C631 C 0.51663 0.31802 0.80584 0.0
C632 C 0.4928 0.31089 0.59669 0.0
N633 N 0.5175 0.30797 0.57294 0.0
C634 C 0.51072 0.34627 0.51221 0.0
C635 C 0.52648 0.32485 0.53068 0.0
C636 C 0.48546 0.35042 0.5375 0.0
C637 C 0.47642 0.3321 0.57974 0.0
H638 H 0.48611 0.29708 0.63001 0.0
H639 H 0.54611 0.322 0.51207 0.0
C640 C 0.61795 0.2667 0.75296 0.0
N641 N 0.5965 0.28177 0.73739 0.0
C642 C 0.63509 0.27509 0.79775 0.0
C643 C 0.60791 0.31445 0.80968 0.0
C644 C 0.59147 0.30543 0.76442 0.0
C645 C 0.63005 0.29921 0.82704 0.0
H646 H 0.62172 0.24807 0.73066 0.0
H647 H 0.57461 0.31738 0.7513 0.0
C648 C 0.52721 0.24695 0.50982 0.0
N649 N 0.51331 0.25305 0.39335 0.0
C650 C 0.50496 0.2337 0.4873 0.0
C651 C 0.54241 0.2633 0.47314 0.0
C652 C 0.49825 0.23704 0.42828 0.0
C653 C 0.53505 0.26612 0.41438 0.0
C654 C 0.58085 0.20495 0.68039 0.0
C655 C 0.5826 0.18306 0.64275 0.0
C656 C 0.58168 0.20095 0.74102 0.0
C657 C 0.58466 0.15745 0.66645 0.0
C658 C 0.58376 0.17504 0.76302 0.0
N659 N 0.58516 0.154 0.72559 0.0
C660 C 0.62047 0.24032 0.51142 0.0
C661 C 0.58608 0.21063 0.48344 0.0
C662 C 0.63731 0.23006 0.46811 0.0
N663 N 0.59538 0.23059 0.51817 0.0
C664 C 0.60233 0.19959 0.43986 0.0
C665 C 0.62842 0.20926 0.43165 0.0
H666 H 0.62745 0.25601 0.53993 0.0
H667 H 0.56611 0.20304 0.49003 0.0
C668 C 0.49981 0.21461 0.72827 0.0
N669 N 0.51585 0.20876 0.682 0.0
C670 C 0.48268 0.1954 0.75134 0.0
C671 C 0.49787 0.16456 0.6773 0.0
C672 C 0.51483 0.18445 0.65567 0.0
C673 C 0.4817 0.16986 0.72626 0.0
H674 H 0.50003 0.23431 0.74705 0.0
H675 H 0.52717 0.18048 0.6178 0.0
O676 O 0.57923 0.28437 0.5959 0.0
O677 O 0.53394 0.27187 0.68713 0.0
O678 O 0.53394 0.24386 0.56755 0.0
O679 O 0.57868 0.23016 0.65797 0.0
H680 H 0.55534 0.32361 0.65328 0.0
H681 H 0.62327 0.30328 0.54711 0.0
H682 H 0.57211 0.36996 0.65953 0.0
H683 H 0.63892 0.35 0.55515 0.0
H684 H 0.54059 0.26736 0.88578 0.0
H685 H 0.5137 0.31946 0.71181 0.0
H686 H 0.54638 0.24776 0.78681 0.0
H687 H 0.5083 0.33772 0.812 0.0
H688 H 0.51835 0.35951 0.4787 0.0
H689 H 0.45725 0.33456 0.6009 0.0
H690 H 0.65187 0.26264 0.80988 0.0
H691 H 0.60351 0.33337 0.83035 0.0
H692 H 0.49301 0.22096 0.51519 0.0
H693 H 0.55973 0.27366 0.48973 0.0
H694 H 0.48108 0.2269 0.41023 0.0
H695 H 0.54664 0.27871 0.3855 0.0
H696 H 0.58209 0.18577 0.59576 0.0
H697 H 0.58091 0.21767 0.77081 0.0
H698 H 0.58583 0.14032 0.63781 0.0
H699 H 0.58433 0.17166 0.80985 0.0
H700 H 0.65703 0.23852 0.46313 0.0
H701 H 0.59466 0.18333 0.4137 0.0
H702 H 0.47004 0.20064 0.78807 0.0
H703 H 0.49771 0.14518 0.65648 0.0
H704 H 0.36159 0.66495 0.86325 0.0
H705 H 0.36992 0.74587 0.92799 0.0
H706 H 0.34735 0.73296 0.0197 0.0
H707 H 0.29683 0.65167 0.92703 0.0
H708 H 0.30469 0.61756 0.94496 0.0
H709 H 0.32053 0.63341 0.88323 0.0
H710 H 0.36697 0.62206 0.9266 0.0
H711 H 0.35128 0.60621 0.98848 0.0
H712 H 0.37504 0.63263 1.00002 0.0
H713 H 0.32533 0.71094 0.10604 0.0
H714 H 0.30534 0.68144 0.18053 0.0
H715 H 0.31125 0.61477 0.05995 0.0
C716 C 0.35874 0.67997 0.89669 0.0
C717 C 0.36744 0.70652 0.88797 0.0
C718 C 0.36303 0.72555 0.9329 0.0
C719 C 0.35037 0.71837 0.98543 0.0
C720 C 0.34219 0.69205 0.99259 0.0
C721 C 0.34616 0.67314 0.94947 0.0
C722 C 0.33589 0.6461 0.96871 0.0
C723 C 0.31313 0.63664 0.92859 0.0
C724 C 0.35865 0.62554 0.9711 0.0
C725 C 0.32574 0.65272 0.02957 0.0
C726 C 0.3295 0.67935 0.04241 0.0
C727 C 0.32208 0.69009 0.0963 0.0
C728 C 0.31056 0.67318 0.13823 0.0
C729 C 0.30651 0.64575 0.12621 0.0
C730 C 0.31421 0.63555 0.07088 0.0
H731 H 0.37421 0.8405 0.37023 0.0
H732 H 0.37092 0.7576 0.31675 0.0
H733 H 0.34749 0.77075 0.22585 0.0
H734 H 0.30937 0.85925 0.31415 0.0
H735 H 0.32012 0.89184 0.29084 0.0
H736 H 0.33621 0.87579 0.35206 0.0
H737 H 0.38204 0.88097 0.30075 0.0
H738 H 0.36608 0.897 0.23935 0.0
H739 H 0.38653 0.86791 0.22781 0.0
H740 H 0.32576 0.79326 0.13886 0.0
H741 H 0.30667 0.82315 0.06378 0.0
H742 H 0.32296 0.89121 0.1757 0.0
C743 C 0.36866 0.82511 0.33931 0.0
C744 C 0.37441 0.79798 0.3507 0.0
C745 C 0.36647 0.77845 0.30937 0.0
C746 C 0.35326 0.78575 0.25745 0.0
C747 C 0.34799 0.81266 0.24755 0.0
C748 C 0.35533 0.83202 0.28746 0.0
C749 C 0.34733 0.85954 0.26633 0.0
C750 C 0.32705 0.87235 0.30835 0.0
C751 C 0.37196 0.8774 0.25807 0.0
C752 C 0.33458 0.85266 0.20804 0.0
C753 C 0.33515 0.82554 0.19798 0.0
C754 C 0.32499 0.81453 0.14653 0.0
C755 C 0.314 0.8317 0.10424 0.0
C756 C 0.31313 0.85964 0.11357 0.0
C757 C 0.32352 0.87006 0.16656 0.0
H758 H 0.13794 0.79816 0.4355 0.0
H759 H 0.14153 0.86135 0.30545 0.0
H760 H 0.16595 0.88962 0.37524 0.0
H761 H 0.12793 0.83959 0.55943 0.0
H762 H 0.1487 0.82037 0.60828 0.0
H763 H 0.13237 0.80435 0.54748 0.0
H764 H 0.17794 0.78683 0.51029 0.0
H765 H 0.19441 0.80276 0.57112 0.0
H766 H 0.20471 0.81003 0.49711 0.0
H767 H 0.1874 0.91218 0.45978 0.0
H768 H 0.20618 0.92725 0.55416 0.0
H769 H 0.19092 0.84939 0.62968 0.0
C770 C 0.14422 0.81778 0.42141 0.0
C771 C 0.1375 0.82758 0.365 0.0
C772 C 0.14588 0.85353 0.34868 0.0
C773 C 0.15998 0.8697 0.38788 0.0
C774 C 0.16588 0.85964 0.44327 0.0
C775 C 0.15848 0.83425 0.46007 0.0
C776 C 0.16691 0.82867 0.52291 0.0
C777 C 0.14252 0.82291 0.56181 0.0
C778 C 0.1872 0.80571 0.52549 0.0
C779 C 0.17981 0.85506 0.53889 0.0
C780 C 0.17895 0.87258 0.49212 0.0
C781 C 0.18844 0.89857 0.49656 0.0
C782 C 0.19896 0.90699 0.55033 0.0
C783 C 0.20007 0.88947 0.59895 0.0
C784 C 0.19063 0.86305 0.5929 0.0
H785 H 0.13549 0.66472 0.87562 0.0
H786 H 0.16053 0.74675 0.84965 0.0
H787 H 0.18678 0.73297 0.76345 0.0
H788 H 0.19683 0.63319 0.83039 0.0
H789 H 0.18023 0.6061 0.79359 0.0
H790 H 0.16453 0.62216 0.85521 0.0
H791 H 0.12277 0.63203 0.79178 0.0
H792 H 0.13832 0.61601 0.72998 0.0
H793 H 0.12651 0.64983 0.72357 0.0
H794 H 0.20954 0.71041 0.67819 0.0
H795 H 0.22606 0.68097 0.59935 0.0
H796 H 0.18497 0.61404 0.6791 0.0
C797 C 0.14634 0.6799 0.8518 0.0
C798 C 0.14594 0.70688 0.87001 0.0
C799 C 0.16083 0.72589 0.83761 0.0
C800 C 0.1757 0.71829 0.78822 0.0
C801 C 0.17547 0.6916 0.77142 0.0
C802 C 0.16112 0.67271 0.80215 0.0
C803 C 0.16356 0.64547 0.77396 0.0
C804 C 0.1771 0.62556 0.81579 0.0
C805 C 0.13616 0.63524 0.75361 0.0
C806 C 0.18137 0.65203 0.72228 0.0
C807 C 0.18818 0.67871 0.72183 0.0
C808 C 0.2044 0.68947 0.67823 0.0
C809 C 0.21381 0.67255 0.6338 0.0
C810 C 0.20686 0.64518 0.633 0.0
C811 C 0.19046 0.6349 0.67813 0.0
H812 H 0.82191 0.15587 0.63613 0.0
H813 H 0.78011 0.09232 0.5459 0.0
H814 H 0.79569 0.10987 0.45082 0.0
H815 H 0.81041 0.20791 0.52506 0.0
H816 H 0.84313 0.22222 0.5339 0.0
H817 H 0.82715 0.20591 0.59492 0.0
H818 H 0.86805 0.17476 0.60668 0.0
H819 H 0.88412 0.19093 0.54571 0.0
H820 H 0.87921 0.15535 0.54488 0.0
H821 H 0.81716 0.13272 0.36626 0.0
H822 H 0.84397 0.15913 0.29683 0.0
H823 H 0.87307 0.2077 0.44068 0.0
C824 C 0.81572 0.14597 0.59622 0.0
C825 C 0.79977 0.12274 0.5983 0.0
C826 C 0.79245 0.11002 0.54527 0.0
C827 C 0.80109 0.11992 0.49107 0.0
C828 C 0.8171 0.14258 0.49047 0.0
C829 C 0.82439 0.1555 0.54152 0.0
C830 C 0.84293 0.17867 0.52843 0.0
C831 C 0.83013 0.20526 0.54666 0.0
C832 C 0.87019 0.17467 0.55819 0.0
C833 C 0.84513 0.17651 0.46221 0.0
C834 C 0.82988 0.15565 0.44134 0.0
C835 C 0.82915 0.14914 0.38203 0.0
C836 C 0.8446 0.16417 0.34297 0.0
C837 C 0.86076 0.18543 0.3632 0.0
C838 C 0.86071 0.19179 0.42369 0.0
H839 H 0.84898 0.31014 0.86981 0.0
H840 H 0.93248 0.32553 0.83287 0.0
H841 H 0.91996 0.34754 0.74017 0.0
H842 H 0.82849 0.29756 0.7179 0.0
H843 H 0.7968 0.31415 0.72608 0.0
H844 H 0.8122 0.2982 0.78834 0.0
H845 H 0.80978 0.34249 0.84632 0.0
H846 H 0.79439 0.35856 0.78429 0.0
H847 H 0.82447 0.37215 0.81555 0.0
H848 H 0.8989 0.36896 0.65372 0.0
H849 H 0.87028 0.38974 0.57873 0.0
H850 H 0.79986 0.3617 0.67074 0.0
C851 C 0.86459 0.31786 0.84174 0.0
C852 C 0.89172 0.31619 0.85859 0.0
C853 C 0.91157 0.32685 0.82114 0.0
C854 C 0.90468 0.33924 0.76823 0.0
C855 C 0.87781 0.34086 0.7532 0.0
C856 C 0.85801 0.33054 0.78871 0.0
C857 C 0.83059 0.33607 0.76301 0.0
C858 C 0.81617 0.30993 0.74794 0.0
C859 C 0.81382 0.35335 0.80478 0.0
C860 C 0.83813 0.35134 0.70793 0.0
C861 C 0.8655 0.35365 0.70313 0.0
C862 C 0.87743 0.36731 0.65695 0.0
C863 C 0.86097 0.3792 0.61476 0.0
C864 C 0.8328 0.37758 0.61899 0.0
C865 C 0.82131 0.36312 0.66597 0.0
H866 H 0.66548 0.36832 0.1328 0.0
H867 H 0.74912 0.36135 0.08515 0.0
H868 H 0.73636 0.33746 0.99509 0.0
H869 H 0.64358 0.30483 0.07514 0.0
H870 H 0.61233 0.31789 0.04849 0.0
H871 H 0.62812 0.33276 0.11142 0.0
H872 H 0.62725 0.37881 0.05989 0.0
H873 H 0.61149 0.36409 0.99683 0.0
H874 H 0.64219 0.38236 0.98841 0.0
H875 H 0.71437 0.31557 0.90793 0.0
H876 H 0.68476 0.29852 0.82979 0.0
H877 H 0.6156 0.32145 0.93245 0.0
C878 C 0.68121 0.36189 0.10354 0.0
C879 C 0.7084 0.36668 0.11677 0.0
C880 C 0.72819 0.35751 0.0771 0.0
C881 C 0.72113 0.34406 0.02544 0.0
C882 C 0.69418 0.33996 0.01365 0.0
C883 C 0.67452 0.34866 0.05153 0.0
C884 C 0.64697 0.34268 0.02755 0.0
C885 C 0.63187 0.32339 0.06807 0.0
C886 C 0.63104 0.36852 0.01757 0.0
C887 C 0.65419 0.32949 0.96997 0.0
C888 C 0.68152 0.32789 0.96298 0.0
C889 C 0.69293 0.31663 0.91306 0.0
C890 C 0.67596 0.30689 0.86903 0.0
C891 C 0.64787 0.30864 0.87492 0.0
C892 C 0.63698 0.32003 0.92635 0.0
H893 H 0.66613 0.14078 0.12509 0.0
H894 H 0.74845 0.13928 0.1841 0.0
H895 H 0.73512 0.16158 0.27607 0.0
H896 H 0.64938 0.20535 0.18646 0.0
H897 H 0.61604 0.19552 0.20657 0.0
H898 H 0.63223 0.18012 0.14476 0.0
H899 H 0.6244 0.13358 0.19093 0.0
H900 H 0.6083 0.14884 0.253 0.0
H901 H 0.63638 0.12693 0.26405 0.0
H902 H 0.71246 0.18207 0.3637 0.0
H903 H 0.68261 0.20095 0.43874 0.0
H904 H 0.61512 0.19047 0.32143 0.0
C905 C 0.68137 0.14514 0.15735 0.0
C906 C 0.70838 0.1383 0.14726 0.0
C907 C 0.72771 0.14462 0.19042 0.0
C908 C 0.7203 0.15714 0.24298 0.0
C909 C 0.69349 0.16338 0.2517 0.0
C910 C 0.67434 0.15777 0.20992 0.0
C911 C 0.64688 0.16649 0.23021 0.0
C912 C 0.63547 0.18816 0.18959 0.0
C913 C 0.62788 0.14253 0.23483 0.0
C914 C 0.65353 0.17763 0.2902 0.0
C915 C 0.68051 0.17561 0.30176 0.0
C916 C 0.69133 0.18404 0.35484 0.0
C917 C 0.67417 0.19494 0.39711 0.0
C918 C 0.64641 0.19752 0.38619 0.0
C919 C 0.63612 0.18866 0.33173 0.0
H920 H 0.35163 0.43289 0.47168 0.0
H921 H 0.40159 0.5025 0.44582 0.0
H922 H 0.44161 0.47539 0.46684 0.0
H923 H 0.38964 0.40434 0.59146 0.0
H924 H 0.38484 0.37049 0.56735 0.0
H925 H 0.36007 0.39544 0.55099 0.0
H926 H 0.36387 0.38436 0.44036 0.0
H927 H 0.3887 0.35943 0.45637 0.0
H928 H 0.39603 0.3858 0.40515 0.0
H929 H 0.47618 0.44084 0.4906 0.0
H930 H 0.50301 0.40124 0.51568 0.0
H931 H 0.43075 0.35368 0.52408 0.0
C932 C 0.37097 0.44248 0.47104 0.0
C933 C 0.37348 0.46982 0.45698 0.0
C934 C 0.39919 0.48153 0.45579 0.0
C935 C 0.42203 0.46633 0.46794 0.0
C936 C 0.41888 0.4394 0.48114 0.0
C937 C 0.39402 0.42755 0.4828 0.0
C938 C 0.39623 0.39814 0.49738 0.0
C939 C 0.38184 0.39174 0.55524 0.0
C940 C 0.38558 0.38092 0.44679 0.0
C941 C 0.42621 0.39534 0.50374 0.0
C942 C 0.43887 0.41939 0.49424 0.0
C943 C 0.46649 0.42185 0.49784 0.0
C944 C 0.48159 0.39915 0.51166 0.0
C945 C 0.46911 0.37419 0.52154 0.0
C946 C 0.44098 0.37243 0.51736 0.0
H947 H 0.63429 0.95751 0.73213 0.0
H948 H 0.62107 0.9634 0.91978 0.0
H949 H 0.5838 0.93161 0.91198 0.0
H950 H 0.56367 0.95212 0.69078 0.0
H951 H 0.5702 0.92859 0.63288 0.0
H952 H 0.59512 0.95286 0.65249 0.0
H953 H 0.62942 0.91499 0.6696 0.0
H954 H 0.60463 0.89062 0.65014 0.0
H955 H 0.62147 0.88839 0.71983 0.0
H956 H 0.54976 0.8975 0.8854 0.0
H957 H 0.52051 0.86345 0.84107 0.0
H958 H 0.55472 0.88001 0.6702 0.0
C959 C 0.62327 0.95245 0.77139 0.0
C960 C 0.63072 0.96289 0.82665 0.0
C961 C 0.61602 0.9554 0.87712 0.0
C962 C 0.59468 0.93749 0.87309 0.0
C963 C 0.5881 0.9273 0.81822 0.0
C964 C 0.60183 0.93456 0.76817 0.0
C965 C 0.59117 0.91991 0.71492 0.0
C966 C 0.57933 0.93955 0.67012 0.0
C967 C 0.61297 0.90244 0.687 0.0
C968 C 0.56957 0.90305 0.74308 0.0
C969 C 0.56813 0.90772 0.80269 0.0
C970 C 0.55054 0.89381 0.83869 0.0
C971 C 0.53411 0.87444 0.8132 0.0
C972 C 0.5353 0.86917 0.75227 0.0
C973 C 0.55309 0.88392 0.71675 0.0
H974 H 0.07195 0.1532 0.00891 0.0
H975 H 0.02207 0.10798 0.1287 0.0
H976 H 0.05144 0.06903 0.11655 0.0
H977 H 0.08729 0.09963 0.91101 0.0
H978 H 0.12134 0.10982 0.89923 0.0
H979 H 0.09631 0.1343 0.91688 0.0
H980 H 0.12458 0.15007 0.00538 0.0
H981 H 0.14972 0.12564 0.98799 0.0
H982 H 0.13492 0.1262 0.06 0.0
H983 H 0.08557 0.03461 0.09035 0.0
H984 H 0.12302 0.00736 0.05337 0.0
H985 H 0.15191 0.0751 0.9536 0.0
C986 C 0.0673 0.13521 0.03304 0.0
C987 C 0.04444 0.1337 0.06934 0.0
C988 C 0.03905 0.10958 0.0996 0.0
C989 C 0.05576 0.08735 0.09339 0.0
C990 C 0.07797 0.0895 0.0571 0.0
C991 C 0.08388 0.11282 0.02762 0.0
C992 C 0.10907 0.10978 0.99139 0.0
C993 C 0.10314 0.1136 0.92574 0.0
C994 C 0.13086 0.12907 0.01247 0.0
C995 C 0.11632 0.08109 1.00508 0.0
C996 C 0.09804 0.06976 0.04292 0.0
C997 C 0.10007 0.04329 0.06086 0.0
C998 C 0.12133 0.02794 0.03946 0.0
C999 C 0.14038 0.03912 1.00077 0.0
C1000 C 0.13784 0.06612 0.98372 0.0
H1001 H 0.95936 0.63854 0.28999 0.0
H1002 H 0.976 0.62003 0.10765 0.0
H1003 H 0.94276 0.58398 0.11074 0.0
H1004 H 0.94862 0.57045 0.33854 0.0
H1005 H 0.92179 0.57916 0.38752 0.0
H1006 H 0.94774 0.60297 0.37203 0.0
H1007 H 0.91221 0.63726 0.33829 0.0
H1008 H 0.88617 0.61358 0.3537 0.0
H1009 H 0.88881 0.62819 0.28171 0.0
H1010 H 0.90666 0.55104 0.13187 0.0
H1011 H 0.87037 0.52284 0.17048 0.0
H1012 H 0.8763 0.56284 0.33865 0.0
C1013 C 0.95604 0.62689 0.25073 0.0
C1014 C 0.97059 0.63202 0.19874 0.0
C1015 C 0.96562 0.61619 0.14841 0.0
C1016 C 0.94661 0.59575 0.14956 0.0
C1017 C 0.93263 0.59128 0.20135 0.0
C1018 C 0.9371 0.60633 0.25109 0.0
C1019 C 0.91894 0.59764 0.30073 0.0
C1020 C 0.93525 0.58691 0.35278 0.0
C1021 C 0.90044 0.62053 0.3197 0.0
C1022 C 0.90344 0.57553 0.27088 0.0
C1023 C 0.9117 0.57221 0.21357 0.0
C1024 C 0.90005 0.55341 0.17672 0.0
C1025 C 0.87934 0.5376 0.19894 0.0
C1026 C 0.87044 0.54064 0.25752 0.0
C1027 C 0.88285 0.55981 0.29391 0.0
H1028 H 0.36935 0.05606 0.72491 0.0
H1029 H 0.37082 0.0603 0.91497 0.0
H1030 H 0.40713 0.09329 0.91011 0.0
H1031 H 0.4414 0.06293 0.70333 0.0
H1032 H 0.43787 0.08322 0.63853 0.0
H1033 H 0.41266 0.05898 0.65658 0.0
H1034 H 0.37654 0.09593 0.65401 0.0
H1035 H 0.40161 0.12026 0.63595 0.0
H1036 H 0.38056 0.12514 0.6991 0.0
H1037 H 0.44211 0.12661 0.88544 0.0
H1038 H 0.47341 0.15896 0.84221 0.0
H1039 H 0.44956 0.13391 0.66774 0.0
C1040 C 0.37756 0.06371 0.76545 0.0
C1041 C 0.36713 0.05569 0.82036 0.0
C1042 C 0.3782 0.06642 0.87242 0.0
C1043 C 0.39897 0.08503 0.87014 0.0
C1044 C 0.40858 0.09274 0.81546 0.0
C1045 C 0.39831 0.08247 0.76399 0.0
C1046 C 0.41175 0.09491 0.71101 0.0
C1047 C 0.42682 0.07375 0.67526 0.0
C1048 C 0.3914 0.10996 0.67278 0.0
C1049 C 0.43093 0.11396 0.74084 0.0
C1050 C 0.42883 0.11221 0.80111 0.0
C1051 C 0.44397 0.12816 0.83829 0.0
C1052 C 0.46158 0.14659 0.81329 0.0
C1053 C 0.46389 0.14911 0.75158 0.0
C1054 C 0.4485 0.13229 0.71502 0.0
H1055 H 0.88077 0.96315 0.00827 0.0
H1056 H 0.82476 0.91553 0.90807 0.0
H1057 H 0.85412 0.87635 0.91894 0.0
H1058 H 0.94104 0.93301 0.95086 0.0
H1059 H 0.95848 0.93399 0.01996 0.0
H1060 H 0.93331 0.95858 1.0037 0.0
H1061 H 0.90808 0.94598 0.09886 0.0
H1062 H 0.9332 0.92142 0.11548 0.0
H1063 H 0.89862 0.91177 0.11119 0.0
H1064 H 0.88938 0.84248 0.93976 0.0
H1065 H 0.92765 0.81542 0.97233 0.0
H1066 H 0.96056 0.88433 0.06186 0.0
C1067 C 0.8748 0.9445 0.98837 0.0
C1068 C 0.85041 0.94236 0.9575 0.0
C1069 C 0.84316 0.91754 0.93257 0.0
C1070 C 0.85979 0.89522 0.93817 0.0
C1071 C 0.88361 0.89796 0.96898 0.0
C1072 C 0.89111 0.92189 0.99392 0.0
C1073 C 0.91751 0.91916 0.02597 0.0
C1074 C 0.93885 0.93726 0.99846 0.0
C1075 C 0.91414 0.92492 0.09178 0.0
C1076 C 0.92363 0.88996 0.01509 0.0
C1077 C 0.90384 0.87819 0.98187 0.0
C1078 C 0.90493 0.85142 0.9661 0.0
C1079 C 0.9267 0.83616 0.98521 0.0
C1080 C 0.9471 0.84759 0.02017 0.0
C1081 C 0.9455 0.87498 0.03481 0.0
H1082 H 0.07518 0.3527 0.22012 0.0
H1083 H 1.00389 0.39073 0.28809 0.0
H1084 H 0.03078 0.42935 0.31988 0.0
H1085 H 0.12096 0.37572 0.33327 0.0
H1086 H 0.1481 0.38101 0.28278 0.0
H1087 H 0.12349 0.35578 0.26779 0.0
H1088 H 0.11392 0.37739 0.16672 0.0
H1089 H 0.13845 0.40271 0.18144 0.0
H1090 H 0.10475 0.41211 0.16312 0.0
H1091 H 0.06507 0.46388 0.34329 0.0
H1092 H 0.10434 0.4928 0.35493 0.0
H1093 H 0.15346 0.43343 0.2679 0.0
C1094 C 0.06535 0.36903 0.2424 0.0
C1095 C 0.03748 0.36874 0.25192 0.0
C1096 C 0.02519 0.39066 0.2802 0.0
C1097 C 0.04031 0.4126 0.29857 0.0
C1098 C 0.06768 0.41241 0.28804 0.0
C1099 C 0.08013 0.39127 0.26048 0.0
C1100 C 0.10968 0.39663 0.25246 0.0
C1101 C 0.12655 0.37606 0.28609 0.0
C1102 C 0.11713 0.39725 0.18705 0.0
C1103 C 0.11188 0.42407 0.27983 0.0
C1104 C 0.08742 0.43271 0.30029 0.0
C1105 C 0.08431 0.45741 0.32715 0.0
C1106 C 0.10676 0.47381 0.33309 0.0
C1107 C 0.13207 0.46562 0.31185 0.0
C1108 C 0.13453 0.44028 0.28509 0.0
H1109 H 0.54316 0.62287 0.50686 0.0
H1110 H 0.58895 0.67505 0.62048 0.0
H1111 H 0.62796 0.64556 0.61023 0.0
H1112 H 0.57139 0.56062 0.56162 0.0
H1113 H 0.5716 0.54494 0.49055 0.0
H1114 H 0.54691 0.56991 0.50737 0.0
H1115 H 0.56157 0.59723 0.41649 0.0
H1116 H 0.58629 0.57236 0.39941 0.0
H1117 H 0.59608 0.60665 0.40865 0.0
H1118 H 0.66244 0.61157 0.58557 0.0
H1119 H 0.6902 0.57453 0.54877 0.0
H1120 H 0.62222 0.54338 0.4531 0.0
C1121 C 0.56129 0.62794 0.53009 0.0
C1122 C 0.563 0.65148 0.56406 0.0
C1123 C 0.58725 0.65747 0.59325 0.0
C1124 C 0.60949 0.64072 0.58811 0.0
C1125 C 0.60721 0.61789 0.55392 0.0
C1126 C 0.58375 0.61136 0.52555 0.0
C1127 C 0.58689 0.58579 0.49076 0.0
C1128 C 0.56808 0.56403 0.51398 0.0
C1129 C 0.58245 0.59082 0.42493 0.0
C1130 C 0.61583 0.57912 0.50374 0.0
C1131 C 0.62712 0.59794 0.54029 0.0
C1132 C 0.6538 0.59663 0.55714 0.0
C1133 C 0.66944 0.57561 0.53582 0.0
C1134 C 0.65836 0.55611 0.49816 0.0
C1135 C 0.63112 0.55782 0.48242 0.0
loop_
_geom_bond_atom_site_label_1
_geom_bond_atom_site_label_2
_geom_bond_distance
_geom_bond_site_symmetry_2
_ccdc_geom_bond_type
Li0 N17 1.990 . S
Li0 O60 1.956 . S
Li0 O61 1.970 . S
Li0 O62 1.961 . S
Li1 N25 1.990 . S
Li1 O60 1.970 . S
Li1 O61 1.956 . S
Li1 O63 1.961 . S
Li2 N47 1.990 . S
Li2 O60 1.961 . S
Li2 O62 1.956 . S
Li2 O63 1.970 . S
Li3 N53 1.990 . S
Li3 O61 1.961 . S
Li3 O62 1.970 . S
Li3 O63 1.956 . S
C4 C6 1.348 . S
C4 C7 1.356 . S
C4 O60 1.325 . S
N5 C8 1.314 . S
N5 C9 1.279 . S
C6 C4 1.348 . S
C6 C8 1.353 . S
C6 H64 0.929 . S
C7 C4 1.356 . S
C7 C9 1.358 . S
C7 H65 0.930 . S
C8 N5 1.314 . S
C8 C6 1.353 . S
C8 H66 0.930 . S
C9 N5 1.279 . S
C9 C7 1.358 . S
C9 H67 0.930 . S
C10 C13 1.348 . S
C10 C14 1.356 . S
C10 O61 1.325 . S
C11 N12 1.279 . S
C11 C14 1.358 . S
C11 H68 0.930 . S
N12 C11 1.279 . S
N12 C15 1.314 . S
C13 C10 1.348 . S
C13 C15 1.353 . S
C13 H69 0.929 . S
C14 C10 1.356 . S
C14 C11 1.358 . S
C14 H70 0.930 . S
C15 N12 1.314 . S
C15 C13 1.353 . S
C15 H71 0.930 . S
C16 N17 1.314 . S
C16 C21 1.353 . S
C16 H22 0.930 . S
N17 Li0 1.990 . S
N17 C16 1.314 . S
N17 C19 1.279 . S
C18 C19 1.358 . S
C18 C20 1.356 . S
C18 H72 0.930 . S
C19 N17 1.279 . S
C19 C18 1.358 . S
C19 H23 0.930 . S
C20 C18 1.356 . S
C20 C21 1.348 . S
C21 C16 1.353 . S
C21 C20 1.348 . S
C21 H73 0.929 . S
H22 C16 0.930 . S
H23 C19 0.930 . S
C24 N25 1.314 . S
C24 C26 1.353 . S
C24 H30 0.930 . S
N25 Li1 1.990 . S
N25 C24 1.314 . S
N25 C28 1.279 . S
C26 C24 1.353 . S
C26 C29 1.348 . S
C26 H74 0.929 . S
C27 C28 1.358 . S
C27 C29 1.356 . S
C27 H75 0.930 . S
C28 N25 1.279 . S
C28 C27 1.358 . S
C28 H31 0.930 . S
C29 C26 1.348 . S
C29 C27 1.356 . S
H30 C24 0.930 . S
H31 C28 0.930 . S
C32 C34 1.348 . S
C32 C35 1.356 . S
C32 O62 1.325 . S
N33 C36 1.314 . S
N33 C37 1.279 . S
C34 C32 1.348 . S
C34 C36 1.353 . S
C34 H76 0.929 . S
C35 C32 1.356 . S
C35 C37 1.358 . S
C35 H77 0.930 . S
C36 N33 1.314 . S
C36 C34 1.353 . S
C36 H78 0.930 . S
C37 N33 1.279 . S
C37 C35 1.358 . S
C37 H79 0.930 . S
C38 C39 1.348 . S
C38 C40 1.356 . S
C38 O63 1.325 . S
C39 C38 1.348 . S
C39 C41 1.353 . S
C39 H80 0.929 . S
C40 C38 1.356 . S
C40 C42 1.358 . S
C40 H81 0.930 . S
C41 C39 1.353 . S
C41 N43 1.314 . S
C41 H82 0.930 . S
C42 C40 1.358 . S
C42 N43 1.279 . S
C42 H83 0.930 . S
N43 C41 1.314 . S
N43 C42 1.279 . S
C44 C46 1.353 . S
C44 N47 1.314 . S
C44 H50 0.930 . S
C45 N47 1.279 . S
C45 C48 1.358 . S
C45 H51 0.930 . S
C46 C44 1.353 . S
C46 C49 1.348 . S
C46 H84 0.929 . S
N47 Li2 1.990 . S
N47 C44 1.314 . S
N47 C45 1.279 . S
C48 C45 1.358 . S
C48 C49 1.356 . S
C48 H85 0.930 . S
C49 C46 1.348 . S
C49 C48 1.356 . S
H50 C44 0.930 . S
H51 C45 0.930 . S
C52 N53 1.314 . S
C52 C54 1.353 . S
C52 H58 0.930 . S
N53 Li3 1.990 . S
N53 C52 1.314 . S
N53 C56 1.279 . S
C54 C52 1.353 . S
C54 C57 1.348 . S
C54 H86 0.929 . S
C55 C56 1.358 . S
C55 C57 1.356 . S
C55 H87 0.930 . S
C56 N53 1.279 . S
C56 C55 1.358 . S
C56 H59 0.930 . S
C57 C54 1.348 . S
C57 C55 1.356 . S
H58 C52 0.930 . S
H59 C56 0.930 . S
O60 Li0 1.956 . S
O60 Li1 1.970 . S
O60 Li2 1.961 . S
O60 C4 1.325 . S
O61 Li0 1.970 . S
O61 Li1 1.956 . S
O61 Li3 1.961 . S
O61 C10 1.325 . S
O62 Li0 1.961 . S
O62 Li2 1.956 . S
O62 Li3 1.970 . S
O62 C32 1.325 . S
O63 Li1 1.961 . S
O63 Li2 1.970 . S
O63 Li3 1.956 . S
O63 C38 1.325 . S
H64 C6 0.929 . S
H65 C7 0.930 . S
H66 C8 0.930 . S
H67 C9 0.930 . S
H68 C11 0.930 . S
H69 C13 0.929 . S
H70 C14 0.930 . S
H71 C15 0.930 . S
H72 C18 0.930 . S
H73 C21 0.929 . S
H74 C26 0.929 . S
H75 C27 0.930 . S
H76 C34 0.929 . S
H77 C35 0.930 . S
H78 C36 0.930 . S
H79 C37 0.930 . S
H80 C39 0.929 . S
H81 C40 0.930 . S
H82 C41 0.930 . S
H83 C42 0.930 . S
H84 C46 0.929 . S
H85 C48 0.930 . S
H86 C54 0.929 . S
H87 C55 0.930 . S
Li88 N105 1.990 . S
Li88 O148 1.956 . S
Li88 O149 1.970 . S
Li88 O150 1.961 . S
Li89 N113 1.990 . S
Li89 O148 1.970 . S
Li89 O149 1.956 . S
Li89 O151 1.961 . S
Li90 N135 1.990 . S
Li90 O148 1.961 . S
Li90 O150 1.956 . S
Li90 O151 1.970 . S
Li91 N141 1.990 . S
Li91 O149 1.961 . S
Li91 O150 1.970 . S
Li91 O151 1.956 . S
C92 C94 1.348 . S
C92 C95 1.356 . S
C92 O148 1.325 . S
N93 C96 1.314 . S
N93 C97 1.279 . S
C94 C92 1.348 . S
C94 C96 1.353 . S
C94 H152 0.929 . S
C95 C92 1.356 . S
C95 C97 1.358 . S
C95 H153 0.930 . S
C96 N93 1.314 . S
C96 C94 1.353 . S
C96 H154 0.930 . S
C97 N93 1.279 . S
C97 C95 1.358 . S
C97 H155 0.930 . S
C98 C101 1.348 . S
C98 C102 1.356 . S
C98 O149 1.325 . S
C99 N100 1.279 . S
C99 C102 1.358 . S
C99 H156 0.930 . S
N100 C99 1.279 . S
N100 C103 1.314 . S
C101 C98 1.348 . S
C101 C103 1.353 . S
C101 H157 0.929 . S
C102 C98 1.356 . S
C102 C99 1.358 . S
C102 H158 0.930 . S
C103 N100 1.314 . S
C103 C101 1.353 . S
C103 H159 0.930 . S
C104 N105 1.314 . S
C104 C109 1.353 . S
C104 H110 0.930 . S
N105 Li88 1.990 . S
N105 C104 1.314 . S
N105 C107 1.279 . S
C106 C107 1.358 . S
C106 C108 1.356 . S
C106 H160 0.930 . S
C107 N105 1.279 . S
C107 C106 1.358 . S
C107 H111 0.930 . S
C108 C106 1.356 . S
C108 C109 1.348 . S
C109 C104 1.353 . S
C109 C108 1.348 . S
C109 H161 0.929 . S
H110 C104 0.930 . S
H111 C107 0.930 . S
C112 N113 1.314 . S
C112 C114 1.353 . S
C112 H118 0.930 . S
N113 Li89 1.990 . S
N113 C112 1.314 . S
N113 C116 1.279 . S
C114 C112 1.353 . S
C114 C117 1.348 . S
C114 H162 0.929 . S
C115 C116 1.358 . S
C115 C117 1.356 . S
C115 H163 0.930 . S
C116 N113 1.279 . S
C116 C115 1.358 . S
C116 H119 0.930 . S
C117 C114 1.348 . S
C117 C115 1.356 . S
H118 C112 0.930 . S
H119 C116 0.930 . S
C120 C122 1.348 . S
C120 C123 1.356 . S
C120 O150 1.325 . S
N121 C124 1.314 . S
N121 C125 1.279 . S
C122 C120 1.348 . S
C122 C124 1.353 . S
C122 H164 0.929 . S
C123 C120 1.356 . S
C123 C125 1.358 . S
C123 H165 0.930 . S
C124 N121 1.314 . S
C124 C122 1.353 . S
C124 H166 0.930 . S
C125 N121 1.279 . S
C125 C123 1.358 . S
C125 H167 0.930 . S
C126 C127 1.348 . S
C126 C128 1.356 . S
C126 O151 1.325 . S
C127 C126 1.348 . S
C127 C129 1.353 . S
C127 H168 0.929 . S
C128 C126 1.356 . S
C128 C130 1.358 . S
C128 H169 0.930 . S
C129 C127 1.353 . S
C129 N131 1.314 . S
C129 H170 0.930 . S
C130 C128 1.358 . S
C130 N131 1.279 . S
C130 H171 0.930 . S
N131 C129 1.314 . S
N131 C130 1.279 . S
C132 C134 1.353 . S
C132 N135 1.314 . S
C132 H138 0.930 . S
C133 N135 1.279 . S
C133 C136 1.358 . S
C133 H139 0.930 . S
C134 C132 1.353 . S
C134 C137 1.348 . S
C134 H172 0.929 . S
N135 Li90 1.990 . S
N135 C132 1.314 . S
N135 C133 1.279 . S
C136 C133 1.358 . S
C136 C137 1.356 . S
C136 H173 0.930 . S
C137 C134 1.348 . S
C137 C136 1.356 . S
H138 C132 0.930 . S
H139 C133 0.930 . S
C140 N141 1.314 . S
C140 C142 1.353 . S
C140 H146 0.930 . S
N141 Li91 1.990 . S
N141 C140 1.314 . S
N141 C144 1.279 . S
C142 C140 1.353 . S
C142 C145 1.348 . S
C142 H174 0.929 . S
C143 C144 1.358 . S
C143 C145 1.356 . S
C143 H175 0.930 . S
C144 N141 1.279 . S
C144 C143 1.358 . S
C144 H147 0.930 . S
C145 C142 1.348 . S
C145 C143 1.356 . S
H146 C140 0.930 . S
H147 C144 0.930 . S
O148 Li88 1.956 . S
O148 Li89 1.970 . S
O148 Li90 1.961 . S
O148 C92 1.325 . S
O149 Li88 1.970 . S
O149 Li89 1.956 . S
O149 Li91 1.961 . S
O149 C98 1.325 . S
O150 Li88 1.961 . S
O150 Li90 1.956 . S
O150 Li91 1.970 . S
O150 C120 1.325 . S
O151 Li89 1.961 . S
O151 Li90 1.970 . S
O151 Li91 1.956 . S
O151 C126 1.325 . S
H152 C94 0.929 . S
H153 C95 0.930 . S
H154 C96 0.930 . S
H155 C97 0.930 . S
H156 C99 0.930 . S
H157 C101 0.929 . S
H158 C102 0.930 . S
H159 C103 0.930 . S
H160 C106 0.930 . S
H161 C109 0.929 . S
H162 C114 0.929 . S
H163 C115 0.930 . S
H164 C122 0.929 . S
H165 C123 0.930 . S
H166 C124 0.930 . S
H167 C125 0.930 . S
H168 C127 0.929 . S
H169 C128 0.930 . S
H170 C129 0.930 . S
H171 C130 0.930 . S
H172 C134 0.929 . S
H173 C136 0.930 . S
H174 C142 0.929 . S
H175 C143 0.930 . S
Li176 N193 1.990 . S
Li176 O236 1.956 . S
Li176 O237 1.970 . S
Li176 O238 1.961 . S
Li177 N201 1.990 . S
Li177 O236 1.970 . S
Li177 O237 1.956 . S
Li177 O239 1.961 . S
Li178 N223 1.990 . S
Li178 O236 1.961 . S
Li178 O238 1.956 . S
Li178 O239 1.970 . S
Li179 N229 1.990 . S
Li179 O237 1.961 . S
Li179 O238 1.970 . S
Li179 O239 1.956 . S
C180 C182 1.348 . S
C180 C183 1.356 . S
C180 O236 1.325 . S
N181 C184 1.314 . S
N181 C185 1.279 . S
C182 C180 1.348 . S
C182 C184 1.353 . S
C182 H240 0.929 . S
C183 C180 1.356 . S
C183 C185 1.358 . S
C183 H241 0.930 . S
C184 N181 1.314 . S
C184 C182 1.353 . S
C184 H242 0.930 . S
C185 N181 1.279 . S
C185 C183 1.358 . S
C185 H243 0.930 . S
C186 C189 1.348 . S
C186 C190 1.356 1_556 S
C186 O237 1.325 . S
C187 N188 1.279 1_565 S
C187 C190 1.358 . S
C187 H244 0.931 . S
N188 C187 1.279 1_545 S
N188 C191 1.314 . S
C189 C186 1.348 . S
C189 C191 1.353 1_566 S
C189 H245 0.929 . S
C190 C186 1.356 1_554 S
C190 C187 1.358 . S
C190 H246 0.930 . S
C191 N188 1.314 . S
C191 C189 1.353 1_544 S
C191 H247 0.930 . S
C192 N193 1.314 1_545 S
C192 C197 1.353 . S
C192 H198 0.930 . S
N193 Li176 1.990 . S
N193 C192 1.314 1_565 S
N193 C195 1.279 . S
C194 C195 1.358 . S
C194 C196 1.356 1_565 S
C194 H248 0.930 . S
C195 N193 1.279 . S
C195 C194 1.358 . S
C195 H199 0.930 . S
C196 C194 1.356 1_545 S
C196 C197 1.348 . S
C197 C192 1.353 . S
C197 C196 1.348 . S
C197 H249 0.929 . S
H198 C192 0.930 . S
H199 C195 0.930 . S
C200 N201 1.314 . S
C200 C202 1.353 1_556 S
C200 H206 0.930 . S
N201 Li177 1.990 . S
N201 C200 1.314 . S
N201 C204 1.279 1_556 S
C202 C200 1.353 1_554 S
C202 C205 1.348 . S
C202 H250 0.929 . S
C203 C204 1.358 . S
C203 C205 1.356 . S
C203 H251 0.930 . S
C204 N201 1.279 1_554 S
C204 C203 1.358 . S
C204 H207 0.930 . S
C205 C202 1.348 . S
C205 C203 1.356 . S
H206 C200 0.930 . S
H207 C204 0.930 . S
C208 C210 1.348 . S
C208 C211 1.356 . S
C208 O238 1.325 . S
N209 C212 1.314 . S
N209 C213 1.279 1_545 S
C210 C208 1.348 . S
C210 C212 1.353 1_565 S
C210 H252 0.929 . S
C211 C208 1.356 . S
C211 C213 1.358 . S
C211 H253 0.930 . S
C212 N209 1.314 . S
C212 C210 1.353 1_545 S
C212 H254 0.930 . S
C213 N209 1.279 1_565 S
C213 C211 1.358 . S
C213 H255 0.931 . S
C214 C215 1.348 . S
C214 C216 1.356 . S
C214 O239 1.325 . S
C215 C214 1.348 . S
C215 C217 1.353 . S
C215 H256 0.929 . S
C216 C214 1.356 . S
C216 C218 1.364 . S
C216 H257 0.930 1_556 S
C217 C215 1.353 . S
C217 N219 1.314 . S
C217 H258 0.930 . S
C218 C216 1.364 . S
C218 N219 1.289 . S
C218 H259 0.913 1_556 S
N219 C217 1.314 . S
N219 C218 1.289 . S
C220 C222 1.353 . S
C220 N223 1.314 . S
C220 H226 0.930 . S
C221 N223 1.279 . S
C221 C224 1.358 . S
C221 H227 0.930 . S
C222 C220 1.353 . S
C222 C225 1.348 . S
C222 H260 0.929 . S
N223 Li178 1.990 . S
N223 C220 1.314 . S
N223 C221 1.279 . S
C224 C221 1.358 . S
C224 C225 1.356 . S
C224 H261 0.930 . S
C225 C222 1.348 . S
C225 C224 1.356 . S
H226 C220 0.930 . S
H227 C221 0.930 . S
C228 N229 1.314 1_545 S
C228 C230 1.353 . S
C228 H234 0.930 . S
N229 Li179 1.990 . S
N229 C228 1.314 1_565 S
N229 C232 1.279 . S
C230 C228 1.353 . S
C230 C233 1.348 . S
C230 H262 0.929 . S
C231 C232 1.358 . S
C231 C233 1.356 1_565 S
C231 H263 0.930 . S
C232 N229 1.279 . S
C232 C231 1.358 . S
C232 H235 0.930 . S
C233 C230 1.348 . S
C233 C231 1.356 1_545 S
H234 C228 0.930 . S
H235 C232 0.930 . S
O236 Li176 1.956 . S
O236 Li177 1.970 . S
O236 Li178 1.961 . S
O236 C180 1.325 . S
O237 Li176 1.970 . S
O237 Li177 1.956 . S
O237 Li179 1.961 . S
O237 C186 1.325 . S
O238 Li176 1.961 . S
O238 Li178 1.956 . S
O238 Li179 1.970 . S
O238 C208 1.325 . S
O239 Li177 1.961 . S
O239 Li178 1.970 . S
O239 Li179 1.956 . S
O239 C214 1.325 . S
H240 C182 0.929 . S
H241 C183 0.930 . S
H242 C184 0.930 . S
H243 C185 0.930 . S
H244 C187 0.931 . S
H245 C189 0.929 . S
H246 C190 0.930 . S
H247 C191 0.930 . S
H248 C194 0.930 . S
H249 C197 0.929 . S
H250 C202 0.929 . S
H251 C203 0.930 . S
H252 C210 0.929 . S
H253 C211 0.930 . S
H254 C212 0.930 . S
H255 C213 0.931 . S
H256 C215 0.929 . S
H257 C216 0.930 1_554 S
H258 C217 0.930 . S
H259 C218 0.913 1_554 S
H260 C222 0.929 . S
H261 C224 0.930 . S
H262 C230 0.929 . S
H263 C231 0.930 . S
Li264 N281 1.990 . S
Li264 O324 1.956 . S
Li264 O325 1.970 . S
Li264 O326 1.961 . S
Li265 N289 1.990 . S
Li265 O324 1.970 . S
Li265 O325 1.956 . S
Li265 O327 1.961 . S
Li266 N311 1.990 . S
Li266 O324 1.961 . S
Li266 O326 1.956 . S
Li266 O327 1.970 . S
Li267 N317 1.990 . S
Li267 O325 1.961 . S
Li267 O326 1.970 . S
Li267 O327 1.956 . S
C268 C270 1.348 . S
C268 C271 1.356 . S
C268 O324 1.325 . S
N269 C272 1.314 . S
N269 C273 1.289 . S
C270 C268 1.348 . S
C270 C272 1.353 . S
C270 H328 0.929 . S
C271 C268 1.356 . S
C271 C273 1.364 . S
C271 H329 0.930 1_554 S
C272 N269 1.314 . S
C272 C270 1.353 . S
C272 H330 0.930 . S
C273 N269 1.289 . S
C273 C271 1.364 . S
C273 H331 0.913 1_554 S
C274 C277 1.348 . S
C274 C278 1.356 . S
C274 O325 1.325 . S
C275 N276 1.279 1_455 S
C275 C278 1.358 . S
C275 H332 0.931 . S
N276 C275 1.279 1_655 S
N276 C279 1.314 . S
C277 C274 1.348 . S
C277 C279 1.353 1_455 S
C277 H333 0.929 . S
C278 C274 1.356 . S
C278 C275 1.358 . S
C278 H334 0.930 . S
C279 N276 1.314 . S
C279 C277 1.353 1_655 S
C279 H335 0.930 . S
C280 N281 1.314 1_655 S
C280 C285 1.353 . S
C280 H286 0.930 . S
N281 Li264 1.990 . S
N281 C280 1.314 1_455 S
N281 C283 1.279 . S
C282 C283 1.358 . S
C282 C284 1.356 1_455 S
C282 H336 0.930 . S
C283 N281 1.279 . S
C283 C282 1.358 . S
C283 H287 0.930 . S
C284 C282 1.356 1_655 S
C284 C285 1.348 . S
C285 C280 1.353 . S
C285 C284 1.348 . S
C285 H337 0.929 . S
H286 C280 0.930 . S
H287 C283 0.930 . S
C288 N289 1.314 . S
C288 C290 1.353 . S
C288 H294 0.930 . S
N289 Li265 1.990 . S
N289 C288 1.314 . S
N289 C292 1.279 . S
C290 C288 1.353 . S
C290 C293 1.348 . S
C290 H338 0.929 . S
C291 C292 1.358 . S
C291 C293 1.356 . S
C291 H339 0.930 . S
C292 N289 1.279 . S
C292 C291 1.358 . S
C292 H295 0.930 . S
C293 C290 1.348 . S
C293 C291 1.356 . S
H294 C288 0.930 . S
H295 C292 0.930 . S
C296 C298 1.348 . S
C296 C299 1.356 1_554 S
C296 O326 1.325 . S
N297 C300 1.314 . S
N297 C301 1.279 1_655 S
C298 C296 1.348 . S
C298 C300 1.353 1_454 S
C298 H340 0.929 . S
C299 C296 1.356 1_556 S
C299 C301 1.358 . S
C299 H341 0.930 . S
C300 N297 1.314 . S
C300 C298 1.353 1_656 S
C300 H342 0.930 . S
C301 N297 1.279 1_455 S
C301 C299 1.358 . S
C301 H343 0.931 . S
C302 C303 1.348 . S
C302 C304 1.356 . S
C302 O327 1.325 . S
C303 C302 1.348 . S
C303 C305 1.353 . S
C303 H344 0.929 . S
C304 C302 1.356 . S
C304 C306 1.358 . S
C304 H345 0.930 . S
C305 C303 1.353 . S
C305 N307 1.314 . S
C305 H346 0.930 . S
C306 C304 1.358 . S
C306 N307 1.279 . S
C306 H347 0.930 . S
N307 C305 1.314 . S
N307 C306 1.279 . S
C308 C310 1.353 1_554 S
C308 N311 1.314 . S
C308 H314 0.930 . S
C309 N311 1.279 1_556 S
C309 C312 1.358 . S
C309 H315 0.930 . S
C310 C308 1.353 1_556 S
C310 C313 1.348 . S
C310 H348 0.929 . S
N311 Li266 1.990 . S
N311 C308 1.314 . S
N311 C309 1.279 1_554 S
C312 C309 1.358 . S
C312 C313 1.356 . S
C312 H349 0.930 . S
C313 C310 1.348 . S
C313 C312 1.356 . S
H314 C308 0.930 . S
H315 C309 0.930 . S
C316 N317 1.314 1_655 S
C316 C318 1.353 . S
C316 H322 0.930 . S
N317 Li267 1.990 . S
N317 C316 1.314 1_455 S
N317 C320 1.279 . S
C318 C316 1.353 . S
C318 C321 1.348 . S
C318 H350 0.929 . S
C319 C320 1.358 . S
C319 C321 1.356 1_455 S
C319 H351 0.930 . S
C320 N317 1.279 . S
C320 C319 1.358 . S
C320 H323 0.930 . S
C321 C318 1.348 . S
C321 C319 1.356 1_655 S
H322 C316 0.930 . S
H323 C320 0.930 . S
O324 Li264 1.956 . S
O324 Li265 1.970 . S
O324 Li266 1.961 . S
O324 C268 1.325 . S
O325 Li264 1.970 . S
O325 Li265 1.956 . S
O325 Li267 1.961 . S
O325 C274 1.325 . S
O326 Li264 1.961 . S
O326 Li266 1.956 . S
O326 Li267 1.970 . S
O326 C296 1.325 . S
O327 Li265 1.961 . S
O327 Li266 1.970 . S
O327 Li267 1.956 . S
O327 C302 1.325 . S
H328 C270 0.929 . S
H329 C271 0.930 1_556 S
H330 C272 0.930 . S
H331 C273 0.913 1_556 S
H332 C275 0.931 . S
H333 C277 0.929 . S
H334 C278 0.930 . S
H335 C279 0.930 . S
H336 C282 0.930 . S
H337 C285 0.929 . S
H338 C290 0.929 . S
H339 C291 0.930 . S
H340 C298 0.929 . S
H341 C299 0.930 . S
H342 C300 0.930 . S
H343 C301 0.931 . S
H344 C303 0.929 . S
H345 C304 0.930 . S
H346 C305 0.930 . S
H347 C306 0.930 . S
H348 C310 0.929 . S
H349 C312 0.930 . S
H350 C318 0.929 . S
H351 C319 0.930 . S
Li352 N369 1.990 . S
Li352 O412 1.956 . S
Li352 O413 1.970 . S
Li352 O414 1.961 . S
Li353 N377 1.990 . S
Li353 O412 1.970 . S
Li353 O413 1.956 . S
Li353 O415 1.961 . S
Li354 N399 1.990 . S
Li354 O412 1.961 . S
Li354 O414 1.956 . S
Li354 O415 1.970 . S
Li355 N405 1.990 . S
Li355 O413 1.961 . S
Li355 O414 1.970 . S
Li355 O415 1.956 . S
C356 C358 1.348 . S
C356 C359 1.356 1_556 S
C356 O412 1.325 . S
N357 C360 1.314 . S
N357 C361 1.279 1_565 S
C358 C356 1.348 . S
C358 C360 1.353 1_546 S
C358 H416 0.929 . S
C359 C356 1.356 1_554 S
C359 C361 1.358 . S
C359 H417 0.930 . S
C360 N357 1.314 . S
C360 C358 1.353 1_564 S
C360 H418 0.930 . S
C361 N357 1.279 1_545 S
C361 C359 1.358 . S
C361 H419 0.931 . S
C362 C365 1.348 . S
C362 C366 1.356 . S
C362 O413 1.325 . S
C363 N364 1.279 . S
C363 C366 1.358 . S
C363 H420 0.930 . S
N364 C363 1.279 . S
N364 C367 1.314 . S
C365 C362 1.348 . S
C365 C367 1.353 . S
C365 H421 0.929 . S
C366 C362 1.356 . S
C366 C363 1.358 . S
C366 H422 0.930 . S
C367 N364 1.314 . S
C367 C365 1.353 . S
C367 H423 0.930 . S
C368 N369 1.314 . S
C368 C373 1.353 1_556 S
C368 H374 0.930 . S
N369 Li352 1.990 . S
N369 C368 1.314 . S
N369 C371 1.279 1_556 S
C370 C371 1.358 . S
C370 C372 1.356 . S
C370 H424 0.930 . S
C371 N369 1.279 1_554 S
C371 C370 1.358 . S
C371 H375 0.930 . S
C372 C370 1.356 . S
C372 C373 1.348 . S
C373 C368 1.353 1_554 S
C373 C372 1.348 . S
C373 H425 0.929 . S
H374 C368 0.930 . S
H375 C371 0.930 . S
C376 N377 1.314 1_565 S
C376 C378 1.353 . S
C376 H382 0.930 . S
N377 Li353 1.990 . S
N377 C376 1.314 1_545 S
N377 C380 1.279 . S
C378 C376 1.353 . S
C378 C381 1.348 . S
C378 H426 0.929 . S
C379 C380 1.358 . S
C379 C381 1.356 1_545 S
C379 H427 0.930 . S
C380 N377 1.279 . S
C380 C379 1.358 . S
C380 H383 0.930 . S
C381 C378 1.348 . S
C381 C379 1.356 1_565 S
H382 C376 0.930 . S
H383 C380 0.930 . S
C384 C386 1.348 . S
C384 C387 1.356 . S
C384 O414 1.325 . S
N385 C388 1.314 . S
N385 C389 1.289 . S
C386 C384 1.348 . S
C386 C388 1.353 . S
C386 H428 0.929 . S
C387 C384 1.356 . S
C387 C389 1.364 . S
C387 H429 0.930 1_556 S
C388 N385 1.314 . S
C388 C386 1.353 . S
C388 H430 0.930 . S
C389 N385 1.289 . S
C389 C387 1.364 . S
C389 H431 0.913 1_556 S
C390 C391 1.348 . S
C390 C392 1.356 . S
C390 O415 1.325 . S
C391 C390 1.348 . S
C391 C393 1.353 1_545 S
C391 H432 0.929 . S
C392 C390 1.356 . S
C392 C394 1.358 . S
C392 H433 0.930 . S
C393 C391 1.353 1_565 S
C393 N395 1.314 . S
C393 H434 0.930 . S
C394 C392 1.358 . S
C394 N395 1.279 1_545 S
C394 H435 0.931 . S
N395 C393 1.314 . S
N395 C394 1.279 1_565 S
C396 C398 1.353 . S
C396 N399 1.314 1_565 S
C396 H402 0.930 . S
C397 N399 1.279 . S
C397 C400 1.358 . S
C397 H403 0.930 . S
C398 C396 1.353 . S
C398 C401 1.348 . S
C398 H436 0.929 . S
N399 Li354 1.990 . S
N399 C396 1.314 1_545 S
N399 C397 1.279 . S
C400 C397 1.358 . S
C400 C401 1.356 1_545 S
C400 H437 0.930 . S
C401 C398 1.348 . S
C401 C400 1.356 1_565 S
H402 C396 0.930 . S
H403 C397 0.930 . S
C404 N405 1.314 . S
C404 C406 1.353 . S
C404 H410 0.930 . S
N405 Li355 1.990 . S
N405 C404 1.314 . S
N405 C408 1.279 . S
C406 C404 1.353 . S
C406 C409 1.348 . S
C406 H438 0.929 . S
C407 C408 1.358 . S
C407 C409 1.356 . S
C407 H439 0.930 . S
C408 N405 1.279 . S
C408 C407 1.358 . S
C408 H411 0.930 . S
C409 C406 1.348 . S
C409 C407 1.356 . S
H410 C404 0.930 . S
H411 C408 0.930 . S
O412 Li352 1.956 . S
O412 Li353 1.970 . S
O412 Li354 1.961 . S
O412 C356 1.325 . S
O413 Li352 1.970 . S
O413 Li353 1.956 . S
O413 Li355 1.961 . S
O413 C362 1.325 . S
O414 Li352 1.961 . S
O414 Li354 1.956 . S
O414 Li355 1.970 . S
O414 C384 1.325 . S
O415 Li353 1.961 . S
O415 Li354 1.970 . S
O415 Li355 1.956 . S
O415 C390 1.325 . S
H416 C358 0.929 . S
H417 C359 0.930 . S
H418 C360 0.930 . S
H419 C361 0.931 . S
H420 C363 0.930 . S
H421 C365 0.929 . S
H422 C366 0.930 . S
H423 C367 0.930 . S
H424 C370 0.930 . S
H425 C373 0.929 . S
H426 C378 0.929 . S
H427 C379 0.930 . S
H428 C386 0.929 . S
H429 C387 0.930 1_554 S
H430 C388 0.930 . S
H431 C389 0.913 1_554 S
H432 C391 0.929 . S
H433 C392 0.930 . S
H434 C393 0.930 . S
H435 C394 0.931 . S
H436 C398 0.929 . S
H437 C400 0.930 . S
H438 C406 0.929 . S
H439 C407 0.930 . S
Li440 N457 1.990 . S
Li440 O500 1.956 . S
Li440 O501 1.970 . S
Li440 O502 1.961 . S
Li441 N465 1.990 . S
Li441 O500 1.970 . S
Li441 O501 1.956 . S
Li441 O503 1.961 . S
Li442 N487 1.990 . S
Li442 O500 1.961 . S
Li442 O502 1.956 . S
Li442 O503 1.970 . S
Li443 N493 1.990 . S
Li443 O501 1.961 . S
Li443 O502 1.970 . S
Li443 O503 1.956 . S
C444 C446 1.348 . S
C444 C447 1.356 . S
C444 O500 1.325 . S
N445 C448 1.314 . S
N445 C449 1.279 1_455 S
C446 C444 1.348 . S
C446 C448 1.353 1_655 S
C446 H504 0.929 . S
C447 C444 1.356 . S
C447 C449 1.358 . S
C447 H505 0.930 . S
C448 N445 1.314 . S
C448 C446 1.353 1_455 S
C448 H506 0.930 . S
C449 N445 1.279 1_655 S
C449 C447 1.358 . S
C449 H507 0.931 . S
C450 C453 1.348 . S
C450 C454 1.356 . S
C450 O501 1.325 . S
C451 N452 1.289 . S
C451 C454 1.364 . S
C451 H508 0.913 1_554 S
N452 C451 1.289 . S
N452 C455 1.314 . S
C453 C450 1.348 . S
C453 C455 1.353 . S
C453 H509 0.929 . S
C454 C450 1.356 . S
C454 C451 1.364 . S
C454 H510 0.930 1_554 S
C455 N452 1.314 . S
C455 C453 1.353 . S
C455 H511 0.930 . S
C456 N457 1.314 . S
C456 C461 1.353 . S
C456 H462 0.930 . S
N457 Li440 1.990 . S
N457 C456 1.314 . S
N457 C459 1.279 . S
C458 C459 1.358 . S
C458 C460 1.356 . S
C458 H512 0.930 . S
C459 N457 1.279 . S
C459 C458 1.358 . S
C459 H463 0.930 . S
C460 C458 1.356 . S
C460 C461 1.348 . S
C461 C456 1.353 . S
C461 C460 1.348 . S
C461 H513 0.929 . S
H462 C456 0.930 . S
H463 C459 0.930 . S
C464 N465 1.314 1_455 S
C464 C466 1.353 . S
C464 H470 0.930 . S
N465 Li441 1.990 . S
N465 C464 1.314 1_655 S
N465 C468 1.279 . S
C466 C464 1.353 . S
C466 C469 1.348 . S
C466 H514 0.929 . S
C467 C468 1.358 . S
C467 C469 1.356 1_655 S
C467 H515 0.930 . S
C468 N465 1.279 . S
C468 C467 1.358 . S
C468 H471 0.930 . S
C469 C466 1.348 . S
C469 C467 1.356 1_455 S
H470 C464 0.930 . S
H471 C468 0.930 . S
C472 C474 1.348 . S
C472 C475 1.356 . S
C472 O502 1.325 . S
N473 C476 1.314 . S
N473 C477 1.279 . S
C474 C472 1.348 . S
C474 C476 1.353 . S
C474 H516 0.929 . S
C475 C472 1.356 . S
C475 C477 1.358 . S
C475 H517 0.930 . S
C476 N473 1.314 . S
C476 C474 1.353 . S
C476 H518 0.930 . S
C477 N473 1.279 . S
C477 C475 1.358 . S
C477 H519 0.930 . S
C478 C479 1.348 . S
C478 C480 1.356 1_554 S
C478 O503 1.325 . S
C479 C478 1.348 . S
C479 C481 1.353 1_654 S
C479 H520 0.929 . S
C480 C478 1.356 1_556 S
C480 C482 1.358 . S
C480 H521 0.930 . S
C481 C479 1.353 1_456 S
C481 N483 1.314 . S
C481 H522 0.930 . S
C482 C480 1.358 . S
C482 N483 1.279 1_655 S
C482 H523 0.931 . S
N483 C481 1.314 . S
N483 C482 1.279 1_455 S
C484 C486 1.353 . S
C484 N487 1.314 1_455 S
C484 H490 0.930 . S
C485 N487 1.279 . S
C485 C488 1.358 . S
C485 H491 0.930 . S
C486 C484 1.353 . S
C486 C489 1.348 . S
C486 H524 0.929 . S
N487 Li442 1.990 . S
N487 C484 1.314 1_655 S
N487 C485 1.279 . S
C488 C485 1.358 . S
C488 C489 1.356 1_655 S
C488 H525 0.930 . S
C489 C486 1.348 . S
C489 C488 1.356 1_455 S
H490 C484 0.930 . S
H491 C485 0.930 . S
C492 N493 1.314 . S
C492 C494 1.353 1_554 S
C492 H498 0.930 . S
N493 Li443 1.990 . S
N493 C492 1.314 . S
N493 C496 1.279 1_554 S
C494 C492 1.353 1_556 S
C494 C497 1.348 . S
C494 H526 0.929 . S
C495 C496 1.358 . S
C495 C497 1.356 . S
C495 H527 0.930 . S
C496 N493 1.279 1_556 S
C496 C495 1.358 . S
C496 H499 0.930 . S
C497 C494 1.348 . S
C497 C495 1.356 . S
H498 C492 0.930 . S
H499 C496 0.930 . S
O500 Li440 1.956 . S
O500 Li441 1.970 . S
O500 Li442 1.961 . S
O500 C444 1.325 . S
O501 Li440 1.970 . S
O501 Li441 1.956 . S
O501 Li443 1.961 . S
O501 C450 1.325 . S
O502 Li440 1.961 . S
O502 Li442 1.956 . S
O502 Li443 1.970 . S
O502 C472 1.325 . S
O503 Li441 1.961 . S
O503 Li442 1.970 . S
O503 Li443 1.956 . S
O503 C478 1.325 . S
H504 C446 0.929 . S
H505 C447 0.930 . S
H506 C448 0.930 . S
H507 C449 0.931 . S
H508 C451 0.913 1_556 S
H509 C453 0.929 . S
H510 C454 0.930 1_556 S
H511 C455 0.930 . S
H512 C458 0.930 . S
H513 C461 0.929 . S
H514 C466 0.929 . S
H515 C467 0.930 . S
H516 C474 0.929 . S
H517 C475 0.930 . S
H518 C476 0.930 . S
H519 C477 0.930 . S
H520 C479 0.929 . S
H521 C480 0.930 . S
H522 C481 0.930 . S
H523 C482 0.931 . S
H524 C486 0.929 . S
H525 C488 0.930 . S
H526 C494 0.929 . S
H527 C495 0.930 . S
Li528 N545 1.990 . S
Li528 O588 1.956 . S
Li528 O589 1.970 . S
Li528 O590 1.961 . S
Li529 N553 1.990 . S
Li529 O588 1.970 . S
Li529 O589 1.956 . S
Li529 O591 1.961 . S
Li530 N575 1.990 . S
Li530 O588 1.961 . S
Li530 O590 1.956 . S
Li530 O591 1.970 . S
Li531 N581 1.990 . S
Li531 O589 1.961 . S
Li531 O590 1.970 . S
Li531 O591 1.956 . S
C532 C534 1.348 . S
C532 C535 1.356 . S
C532 O588 1.325 . S
N533 C536 1.314 . S
N533 C537 1.279 . S
C534 C532 1.348 . S
C534 C536 1.353 . S
C534 H592 0.929 . S
C535 C532 1.356 . S
C535 C537 1.358 . S
C535 H593 0.930 . S
C536 N533 1.314 . S
C536 C534 1.353 . S
C536 H594 0.930 . S
C537 N533 1.279 . S
C537 C535 1.358 . S
C537 H595 0.930 . S
C538 C541 1.348 . S
C538 C542 1.356 . S
C538 O589 1.325 . S
C539 N540 1.279 . S
C539 C542 1.358 . S
C539 H596 0.930 . S
N540 C539 1.279 . S
N540 C543 1.314 . S
C541 C538 1.348 . S
C541 C543 1.353 . S
C541 H597 0.929 . S
C542 C538 1.356 . S
C542 C539 1.358 . S
C542 H598 0.930 . S
C543 N540 1.314 . S
C543 C541 1.353 . S
C543 H599 0.930 . S
C544 N545 1.314 . S
C544 C549 1.353 . S
C544 H550 0.930 . S
N545 Li528 1.990 . S
N545 C544 1.314 . S
N545 C547 1.279 . S
C546 C547 1.358 . S
C546 C548 1.356 . S
C546 H600 0.930 . S
C547 N545 1.279 . S
C547 C546 1.358 . S
C547 H551 0.930 . S
C548 C546 1.356 . S
C548 C549 1.348 . S
C549 C544 1.353 . S
C549 C548 1.348 . S
C549 H601 0.929 . S
H550 C544 0.930 . S
H551 C547 0.930 . S
C552 N553 1.314 . S
C552 C554 1.353 . S
C552 H558 0.930 . S
N553 Li529 1.990 . S
N553 C552 1.314 . S
N553 C556 1.279 . S
C554 C552 1.353 . S
C554 C557 1.348 . S
C554 H602 0.929 . S
C555 C556 1.358 . S
C555 C557 1.356 . S
C555 H603 0.930 . S
C556 N553 1.279 . S
C556 C555 1.358 . S
C556 H559 0.930 . S
C557 C554 1.348 . S
C557 C555 1.356 . S
H558 C552 0.930 . S
H559 C556 0.930 . S
C560 C562 1.348 . S
C560 C563 1.356 . S
C560 O590 1.325 . S
N561 C564 1.314 . S
N561 C565 1.279 . S
C562 C560 1.348 . S
C562 C564 1.353 . S
C562 H604 0.929 . S
C563 C560 1.356 . S
C563 C565 1.358 . S
C563 H605 0.930 . S
C564 N561 1.314 . S
C564 C562 1.353 . S
C564 H606 0.930 . S
C565 N561 1.279 . S
C565 C563 1.358 . S
C565 H607 0.930 . S
C566 C567 1.348 . S
C566 C568 1.356 . S
C566 O591 1.325 . S
C567 C566 1.348 . S
C567 C569 1.353 . S
C567 H608 0.929 . S
C568 C566 1.356 . S
C568 C570 1.358 . S
C568 H609 0.930 . S
C569 C567 1.353 . S
C569 N571 1.314 . S
C569 H610 0.930 . S
C570 C568 1.358 . S
C570 N571 1.279 . S
C570 H611 0.930 . S
N571 C569 1.314 . S
N571 C570 1.279 . S
C572 C574 1.353 . S
C572 N575 1.314 . S
C572 H578 0.930 . S
C573 N575 1.279 . S
C573 C576 1.358 . S
C573 H579 0.930 . S
C574 C572 1.353 . S
C574 C577 1.348 . S
C574 H612 0.929 . S
N575 Li530 1.990 . S
N575 C572 1.314 . S
N575 C573 1.279 . S
C576 C573 1.358 . S
C576 C577 1.356 . S
C576 H613 0.930 . S
C577 C574 1.348 . S
C577 C576 1.356 . S
H578 C572 0.930 . S
H579 C573 0.930 . S
C580 N581 1.314 . S
C580 C582 1.353 . S
C580 H586 0.930 . S
N581 Li531 1.990 . S
N581 C580 1.314 . S
N581 C584 1.279 . S
C582 C580 1.353 . S
C582 C585 1.348 . S
C582 H614 0.929 . S
C583 C584 1.358 . S
C583 C585 1.356 . S
C583 H615 0.930 . S
C584 N581 1.279 . S
C584 C583 1.358 . S
C584 H587 0.930 . S
C585 C582 1.348 . S
C585 C583 1.356 . S
H586 C580 0.930 . S
H587 C584 0.930 . S
O588 Li528 1.956 . S
O588 Li529 1.970 . S
O588 Li530 1.961 . S
O588 C532 1.325 . S
O589 Li528 1.970 . S
O589 Li529 1.956 . S
O589 Li531 1.961 . S
O589 C538 1.325 . S
O590 Li528 1.961 . S
O590 Li530 1.956 . S
O590 Li531 1.970 . S
O590 C560 1.325 . S
O591 Li529 1.961 . S
O591 Li530 1.970 . S
O591 Li531 1.956 . S
O591 C566 1.325 . S
H592 C534 0.929 . S
H593 C535 0.930 . S
H594 C536 0.930 . S
H595 C537 0.930 . S
H596 C539 0.930 . S
H597 C541 0.929 . S
H598 C542 0.930 . S
H599 C543 0.930 . S
H600 C546 0.930 . S
H601 C549 0.929 . S
H602 C554 0.929 . S
H603 C555 0.930 . S
H604 C562 0.929 . S
H605 C563 0.930 . S
H606 C564 0.930 . S
H607 C565 0.930 . S
H608 C567 0.929 . S
H609 C568 0.930 . S
H610 C569 0.930 . S
H611 C570 0.930 . S
H612 C574 0.929 . S
H613 C576 0.930 . S
H614 C582 0.929 . S
H615 C583 0.930 . S
Li616 N633 1.990 . S
Li616 O676 1.956 . S
Li616 O677 1.970 . S
Li616 O678 1.961 . S
Li617 N641 1.990 . S
Li617 O676 1.970 . S
Li617 O677 1.956 . S
Li617 O679 1.961 . S
Li618 N663 1.990 . S
Li618 O676 1.961 . S
Li618 O678 1.956 . S
Li618 O679 1.970 . S
Li619 N669 1.990 . S
Li619 O677 1.961 . S
Li619 O678 1.970 . S
Li619 O679 1.956 . S
C620 C622 1.348 . S
C620 C623 1.356 . S
C620 O676 1.325 . S
N621 C624 1.314 . S
N621 C625 1.279 . S
C622 C620 1.348 . S
C622 C624 1.353 . S
C622 H680 0.929 . S
C623 C620 1.356 . S
C623 C625 1.358 . S
C623 H681 0.930 . S
C624 N621 1.314 . S
C624 C622 1.353 . S
C624 H682 0.930 . S
C625 N621 1.279 . S
C625 C623 1.358 . S
C625 H683 0.930 . S
C626 C629 1.348 . S
C626 C630 1.356 . S
C626 O677 1.325 . S
C627 N628 1.279 . S
C627 C630 1.358 . S
C627 H684 0.930 . S
N628 C627 1.279 . S
N628 C631 1.314 . S
C629 C626 1.348 . S
C629 C631 1.353 . S
C629 H685 0.929 . S
C630 C626 1.356 . S
C630 C627 1.358 . S
C630 H686 0.930 . S
C631 N628 1.314 . S
C631 C629 1.353 . S
C631 H687 0.930 . S
C632 N633 1.314 . S
C632 C637 1.353 . S
C632 H638 0.930 . S
N633 Li616 1.990 . S
N633 C632 1.314 . S
N633 C635 1.279 . S
C634 C635 1.358 . S
C634 C636 1.356 . S
C634 H688 0.930 . S
C635 N633 1.279 . S
C635 C634 1.358 . S
C635 H639 0.930 . S
C636 C634 1.356 . S
C636 C637 1.348 . S
C637 C632 1.353 . S
C637 C636 1.348 . S
C637 H689 0.929 . S
H638 C632 0.930 . S
H639 C635 0.930 . S
C640 N641 1.314 . S
C640 C642 1.353 . S
C640 H646 0.930 . S
N641 Li617 1.990 . S
N641 C640 1.314 . S
N641 C644 1.279 . S
C642 C640 1.353 . S
C642 C645 1.348 . S
C642 H690 0.929 . S
C643 C644 1.358 . S
C643 C645 1.356 . S
C643 H691 0.930 . S
C644 N641 1.279 . S
C644 C643 1.358 . S
C644 H647 0.930 . S
C645 C642 1.348 . S
C645 C643 1.356 . S
H646 C640 0.930 . S
H647 C644 0.930 . S
C648 C650 1.348 . S
C648 C651 1.356 . S
C648 O678 1.325 . S
N649 C652 1.314 . S
N649 C653 1.279 . S
C650 C648 1.348 . S
C650 C652 1.353 . S
C650 H692 0.929 . S
C651 C648 1.356 . S
C651 C653 1.358 . S
C651 H693 0.930 . S
C652 N649 1.314 . S
C652 C650 1.353 . S
C652 H694 0.930 . S
C653 N649 1.279 . S
C653 C651 1.358 . S
C653 H695 0.930 . S
C654 C655 1.348 . S
C654 C656 1.356 . S
C654 O679 1.325 . S
C655 C654 1.348 . S
C655 C657 1.353 . S
C655 H696 0.929 . S
C656 C654 1.356 . S
C656 C658 1.358 . S
C656 H697 0.930 . S
C657 C655 1.353 . S
C657 N659 1.314 . S
C657 H698 0.930 . S
C658 C656 1.358 . S
C658 N659 1.279 . S
C658 H699 0.930 . S
N659 C657 1.314 . S
N659 C658 1.279 . S
C660 C662 1.353 . S
C660 N663 1.314 . S
C660 H666 0.930 . S
C661 N663 1.279 . S
C661 C664 1.358 . S
C661 H667 0.930 . S
C662 C660 1.353 . S
C662 C665 1.348 . S
C662 H700 0.929 . S
N663 Li618 1.990 . S
N663 C660 1.314 . S
N663 C661 1.279 . S
C664 C661 1.358 . S
C664 C665 1.356 . S
C664 H701 0.930 . S
C665 C662 1.348 . S
C665 C664 1.356 . S
H666 C660 0.930 . S
H667 C661 0.930 . S
C668 N669 1.314 . S
C668 C670 1.353 . S
C668 H674 0.930 . S
N669 Li619 1.990 . S
N669 C668 1.314 . S
N669 C672 1.279 . S
C670 C668 1.353 . S
C670 C673 1.348 . S
C670 H702 0.929 . S
C671 C672 1.358 . S
C671 C673 1.356 . S
C671 H703 0.930 . S
C672 N669 1.279 . S
C672 C671 1.358 . S
C672 H675 0.930 . S
C673 C670 1.348 . S
C673 C671 1.356 . S
H674 C668 0.930 . S
H675 C672 0.930 . S
O676 Li616 1.956 . S
O676 Li617 1.970 . S
O676 Li618 1.961 . S
O676 C620 1.325 . S
O677 Li616 1.970 . S
O677 Li617 1.956 . S
O677 Li619 1.961 . S
O677 C626 1.325 . S
O678 Li616 1.961 . S
O678 Li618 1.956 . S
O678 Li619 1.970 . S
O678 C648 1.325 . S
O679 Li617 1.961 . S
O679 Li618 1.970 . S
O679 Li619 1.956 . S
O679 C654 1.325 . S
H680 C622 0.929 . S
H681 C623 0.930 . S
H682 C624 0.930 . S
H683 C625 0.930 . S
H684 C627 0.930 . S
H685 C629 0.929 . S
H686 C630 0.930 . S
H687 C631 0.930 . S
H688 C634 0.930 . S
H689 C637 0.929 . S
H690 C642 0.929 . S
H691 C643 0.930 . S
H692 C650 0.929 . S
H693 C651 0.930 . S
H694 C652 0.930 . S
H695 C653 0.930 . S
H696 C655 0.929 . S
H697 C656 0.930 . S
H698 C657 0.930 . S
H699 C658 0.930 . S
H700 C662 0.929 . S
H701 C664 0.930 . S
H702 C670 0.929 . S
H703 C671 0.930 . S
H704 C716 0.930 . S
H705 C718 0.930 . S
H706 C719 0.930 1_554 S
H707 C723 0.959 . S
H708 C723 0.959 . S
H709 C723 0.961 . S
H710 C724 0.960 . S
H711 C724 0.961 . S
H712 C724 0.959 1_554 S
H713 C727 0.929 . S
H714 C728 0.931 . S
H715 C730 0.930 . S
C716 H704 0.930 . S
C716 C717 1.399 . S
C716 C721 1.399 . S
C717 C716 1.399 . S
C717 C718 1.376 . S
C718 H705 0.930 . S
C718 C717 1.376 . S
C718 C719 1.388 . S
C719 H706 0.930 1_556 S
C719 C718 1.388 . S
C719 C720 1.390 . S
C720 C719 1.390 . S
C720 C721 1.394 . S
C720 C726 1.465 1_556 S
C721 C716 1.399 . S
C721 C720 1.394 . S
C721 C722 1.516 . S
C722 C721 1.516 . S
C722 C723 1.502 . S
C722 C724 1.561 . S
C722 C725 1.526 1_556 S
C723 H707 0.959 . S
C723 H708 0.959 . S
C723 H709 0.961 . S
C723 C722 1.502 . S
C724 H710 0.960 . S
C724 H711 0.961 . S
C724 H712 0.959 1_556 S
C724 C722 1.561 . S
C725 C722 1.526 1_554 S
C725 C726 1.396 . S
C725 C730 1.390 . S
C726 C720 1.465 1_554 S
C726 C725 1.396 . S
C726 C727 1.399 . S
C727 H713 0.929 . S
C727 C726 1.399 . S
C727 C728 1.385 . S
C728 H714 0.931 . S
C728 C727 1.385 . S
C728 C729 1.389 . S
C729 C728 1.389 . S
C729 C730 1.387 . S
C730 H715 0.930 . S
C730 C725 1.390 . S
C730 C729 1.387 . S
H731 C743 0.930 . S
H732 C745 0.930 . S
H733 C746 0.930 . S
H734 C750 0.959 . S
H735 C750 0.959 . S
H736 C750 0.961 . S
H737 C751 0.960 . S
H738 C751 0.961 . S
H739 C751 0.959 . S
H740 C754 0.929 . S
H741 C755 0.931 . S
H742 C757 0.930 . S
C743 H731 0.930 . S
C743 C744 1.399 . S
C743 C748 1.399 . S
C744 C743 1.399 . S
C744 C745 1.376 . S
C745 H732 0.930 . S
C745 C744 1.376 . S
C745 C746 1.388 . S
C746 H733 0.930 . S
C746 C745 1.388 . S
C746 C747 1.390 . S
C747 C746 1.390 . S
C747 C748 1.394 . S
C747 C753 1.465 . S
C748 C743 1.399 . S
C748 C747 1.394 . S
C748 C749 1.516 . S
C749 C748 1.516 . S
C749 C750 1.502 . S
C749 C751 1.561 . S
C749 C752 1.526 . S
C750 H734 0.959 . S
C750 H735 0.959 . S
C750 H736 0.961 . S
C750 C749 1.502 . S
C751 H737 0.960 . S
C751 H738 0.961 . S
C751 H739 0.959 . S
C751 C749 1.561 . S
C752 C749 1.526 . S
C752 C753 1.396 . S
C752 C757 1.390 . S
C753 C747 1.465 . S
C753 C752 1.396 . S
C753 C754 1.399 . S
C754 H740 0.929 . S
C754 C753 1.399 . S
C754 C755 1.385 . S
C755 H741 0.931 . S
C755 C754 1.385 . S
C755 C756 1.389 . S
C756 C755 1.389 . S
C756 C757 1.387 . S
C757 H742 0.930 . S
C757 C752 1.390 . S
C757 C756 1.387 . S
H758 C770 0.930 . S
H759 C772 0.930 . S
H760 C773 0.930 . S
H761 C777 0.959 . S
H762 C777 0.959 . S
H763 C777 0.961 . S
H764 C778 0.960 . S
H765 C778 0.961 . S
H766 C778 0.959 . S
H767 C781 0.929 . S
H768 C782 0.931 . S
H769 C784 0.930 . S
C770 H758 0.930 . S
C770 C771 1.399 . S
C770 C775 1.399 . S
C771 C770 1.399 . S
C771 C772 1.376 . S
C772 H759 0.930 . S
C772 C771 1.376 . S
C772 C773 1.388 . S
C773 H760 0.930 . S
C773 C772 1.388 . S
C773 C774 1.390 . S
C774 C773 1.390 . S
C774 C775 1.394 . S
C774 C780 1.465 . S
C775 C770 1.399 . S
C775 C774 1.394 . S
C775 C776 1.516 . S
C776 C775 1.516 . S
C776 C777 1.502 . S
C776 C778 1.561 . S
C776 C779 1.526 . S
C777 H761 0.959 . S
C777 H762 0.959 . S
C777 H763 0.961 . S
C777 C776 1.502 . S
C778 H764 0.960 . S
C778 H765 0.961 . S
C778 H766 0.959 . S
C778 C776 1.561 . S
C779 C776 1.526 . S
C779 C780 1.396 . S
C779 C784 1.390 . S
C780 C774 1.465 . S
C780 C779 1.396 . S
C780 C781 1.399 . S
C781 H767 0.929 . S
C781 C780 1.399 . S
C781 C782 1.385 . S
C782 H768 0.931 . S
C782 C781 1.385 . S
C782 C783 1.389 . S
C783 C782 1.389 . S
C783 C784 1.387 . S
C784 H769 0.930 . S
C784 C779 1.390 . S
C784 C783 1.387 . S
H785 C797 0.930 . S
H786 C799 0.930 . S
H787 C800 0.930 . S
H788 C804 0.959 . S
H789 C804 0.959 . S
H790 C804 0.961 . S
H791 C805 0.960 . S
H792 C805 0.961 . S
H793 C805 0.959 . S
H794 C808 0.929 . S
H795 C809 0.931 . S
H796 C811 0.930 . S
C797 H785 0.930 . S
C797 C798 1.399 . S
C797 C802 1.399 . S
C798 C797 1.399 . S
C798 C799 1.376 . S
C799 H786 0.930 . S
C799 C798 1.376 . S
C799 C800 1.388 . S
C800 H787 0.930 . S
C800 C799 1.388 . S
C800 C801 1.390 . S
C801 C800 1.390 . S
C801 C802 1.394 . S
C801 C807 1.465 . S
C802 C797 1.399 . S
C802 C801 1.394 . S
C802 C803 1.516 . S
C803 C802 1.516 . S
C803 C804 1.502 . S
C803 C805 1.561 . S
C803 C806 1.526 . S
C804 H788 0.959 . S
C804 H789 0.959 . S
C804 H790 0.961 . S
C804 C803 1.502 . S
C805 H791 0.960 . S
C805 H792 0.961 . S
C805 H793 0.959 . S
C805 C803 1.561 . S
C806 C803 1.526 . S
C806 C807 1.396 . S
C806 C811 1.390 . S
C807 C801 1.465 . S
C807 C806 1.396 . S
C807 C808 1.399 . S
C808 H794 0.929 . S
C808 C807 1.399 . S
C808 C809 1.385 . S
C809 H795 0.931 . S
C809 C808 1.385 . S
C809 C810 1.389 . S
C810 C809 1.389 . S
C810 C811 1.387 . S
C811 H796 0.930 . S
C811 C806 1.390 . S
C811 C810 1.387 . S
H812 C824 0.930 . S
H813 C826 0.930 . S
H814 C827 0.930 . S
H815 C831 0.959 . S
H816 C831 0.959 . S
H817 C831 0.961 . S
H818 C832 0.960 . S
H819 C832 0.961 . S
H820 C832 0.959 . S
H821 C835 0.929 . S
H822 C836 0.931 . S
H823 C838 0.930 . S
C824 H812 0.930 . S
C824 C825 1.399 . S
C824 C829 1.399 . S
C825 C824 1.399 . S
C825 C826 1.376 . S
C826 H813 0.930 . S
C826 C825 1.376 . S
C826 C827 1.388 . S
C827 H814 0.930 . S
C827 C826 1.388 . S
C827 C828 1.390 . S
C828 C827 1.390 . S
C828 C829 1.394 . S
C828 C834 1.465 . S
C829 C824 1.399 . S
C829 C828 1.394 . S
C829 C830 1.516 . S
C830 C829 1.516 . S
C830 C831 1.502 . S
C830 C832 1.561 . S
C830 C833 1.526 . S
C831 H815 0.959 . S
C831 H816 0.959 . S
C831 H817 0.961 . S
C831 C830 1.502 . S
C832 H818 0.960 . S
C832 H819 0.961 . S
C832 H820 0.959 . S
C832 C830 1.561 . S
C833 C830 1.526 . S
C833 C834 1.396 . S
C833 C838 1.390 . S
C834 C828 1.465 . S
C834 C833 1.396 . S
C834 C835 1.399 . S
C835 H821 0.929 . S
C835 C834 1.399 . S
C835 C836 1.385 . S
C836 H822 0.931 . S
C836 C835 1.385 . S
C836 C837 1.389 . S
C837 C836 1.389 . S
C837 C838 1.387 . S
C838 H823 0.930 . S
C838 C833 1.390 . S
C838 C837 1.387 . S
H839 C851 0.930 . S
H840 C853 0.930 . S
H841 C854 0.930 . S
H842 C858 0.959 . S
H843 C858 0.959 . S
H844 C858 0.961 . S
H845 C859 0.960 . S
H846 C859 0.961 . S
H847 C859 0.959 . S
H848 C862 0.929 . S
H849 C863 0.931 . S
H850 C865 0.930 . S
C851 H839 0.930 . S
C851 C852 1.399 . S
C851 C856 1.399 . S
C852 C851 1.399 . S
C852 C853 1.376 . S
C853 H840 0.930 . S
C853 C852 1.376 . S
C853 C854 1.388 . S
C854 H841 0.930 . S
C854 C853 1.388 . S
C854 C855 1.390 . S
C855 C854 1.390 . S
C855 C856 1.394 . S
C855 C861 1.465 . S
C856 C851 1.399 . S
C856 C855 1.394 . S
C856 C857 1.516 . S
C857 C856 1.516 . S
C857 C858 1.502 . S
C857 C859 1.561 . S
C857 C860 1.526 . S
C858 H842 0.959 . S
C858 H843 0.959 . S
C858 H844 0.961 . S
C858 C857 1.502 . S
C859 H845 0.960 . S
C859 H846 0.961 . S
C859 H847 0.959 . S
C859 C857 1.561 . S
C860 C857 1.526 . S
C860 C861 1.396 . S
C860 C865 1.390 . S
C861 C855 1.465 . S
C861 C860 1.396 . S
C861 C862 1.399 . S
C862 H848 0.929 . S
C862 C861 1.399 . S
C862 C863 1.385 . S
C863 H849 0.931 . S
C863 C862 1.385 . S
C863 C864 1.389 . S
C864 C863 1.389 . S
C864 C865 1.387 . S
C865 H850 0.930 . S
C865 C860 1.390 . S
C865 C864 1.387 . S
H866 C878 0.930 . S
H867 C880 0.930 . S
H868 C881 0.930 1_556 S
H869 C885 0.959 . S
H870 C885 0.959 . S
H871 C885 0.961 . S
H872 C886 0.960 . S
H873 C886 0.961 . S
H874 C886 0.959 . S
H875 C889 0.929 . S
H876 C890 0.931 . S
H877 C892 0.930 . S
C878 H866 0.930 . S
C878 C879 1.399 . S
C878 C883 1.399 . S
C879 C878 1.399 . S
C879 C880 1.376 . S
C880 H867 0.930 . S
C880 C879 1.376 . S
C880 C881 1.388 . S
C881 H868 0.930 1_554 S
C881 C880 1.388 . S
C881 C882 1.390 . S
C882 C881 1.390 . S
C882 C883 1.394 . S
C882 C888 1.465 1_554 S
C883 C878 1.399 . S
C883 C882 1.394 . S
C883 C884 1.516 . S
C884 C883 1.516 . S
C884 C885 1.502 . S
C884 C886 1.561 . S
C884 C887 1.526 1_554 S
C885 H869 0.959 . S
C885 H870 0.959 . S
C885 H871 0.961 . S
C885 C884 1.502 . S
C886 H872 0.960 . S
C886 H873 0.961 . S
C886 H874 0.959 . S
C886 C884 1.561 . S
C887 C884 1.526 1_556 S
C887 C888 1.396 . S
C887 C892 1.390 . S
C888 C882 1.465 1_556 S
C888 C887 1.396 . S
C888 C889 1.399 . S
C889 H875 0.929 . S
C889 C888 1.399 . S
C889 C890 1.385 . S
C890 H876 0.931 . S
C890 C889 1.385 . S
C890 C891 1.389 . S
C891 C890 1.389 . S
C891 C892 1.387 . S
C892 H877 0.930 . S
C892 C887 1.390 . S
C892 C891 1.387 . S
H893 C905 0.930 . S
H894 C907 0.930 . S
H895 C908 0.930 . S
H896 C912 0.959 . S
H897 C912 0.959 . S
H898 C912 0.961 . S
H899 C913 0.960 . S
H900 C913 0.961 . S
H901 C913 0.959 . S
H902 C916 0.929 . S
H903 C917 0.931 . S
H904 C919 0.930 . S
C905 H893 0.930 . S
C905 C906 1.399 . S
C905 C910 1.399 . S
C906 C905 1.399 . S
C906 C907 1.376 . S
C907 H894 0.930 . S
C907 C906 1.376 . S
C907 C908 1.388 . S
C908 H895 0.930 . S
C908 C907 1.388 . S
C908 C909 1.390 . S
C909 C908 1.390 . S
C909 C910 1.394 . S
C909 C915 1.465 . S
C910 C905 1.399 . S
C910 C909 1.394 . S
C910 C911 1.516 . S
C911 C910 1.516 . S
C911 C912 1.502 . S
C911 C913 1.561 . S
C911 C914 1.526 . S
C912 H896 0.959 . S
C912 H897 0.959 . S
C912 H898 0.961 . S
C912 C911 1.502 . S
C913 H899 0.960 . S
C913 H900 0.961 . S
C913 H901 0.959 . S
C913 C911 1.561 . S
C914 C911 1.526 . S
C914 C915 1.396 . S
C914 C919 1.390 . S
C915 C909 1.465 . S
C915 C914 1.396 . S
C915 C916 1.399 . S
C916 H902 0.929 . S
C916 C915 1.399 . S
C916 C917 1.385 . S
C917 H903 0.931 . S
C917 C916 1.385 . S
C917 C918 1.389 . S
C918 C917 1.389 . S
C918 C919 1.387 . S
C919 H904 0.930 . S
C919 C914 1.390 . S
C919 C918 1.387 . S
H920 C932 0.930 . S
H921 C934 0.930 . S
H922 C935 0.930 . S
H923 C939 0.959 . S
H924 C939 0.959 . S
H925 C939 0.961 . S
H926 C940 0.960 . S
H927 C940 0.961 . S
H928 C940 0.959 . S
H929 C943 0.929 . S
H930 C944 0.931 . S
H931 C946 0.930 . S
C932 H920 0.930 . S
C932 C933 1.399 . S
C932 C937 1.399 . S
C933 C932 1.399 . S
C933 C934 1.376 . S
C934 H921 0.930 . S
C934 C933 1.376 . S
C934 C935 1.388 . S
C935 H922 0.930 . S
C935 C934 1.388 . S
C935 C936 1.390 . S
C936 C935 1.390 . S
C936 C937 1.394 . S
C936 C942 1.465 . S
C937 C932 1.399 . S
C937 C936 1.394 . S
C937 C938 1.516 . S
C938 C937 1.516 . S
C938 C939 1.502 . S
C938 C940 1.561 . S
C938 C941 1.526 . S
C939 H923 0.959 . S
C939 H924 0.959 . S
C939 H925 0.961 . S
C939 C938 1.502 . S
C940 H926 0.960 . S
C940 H927 0.961 . S
C940 H928 0.959 . S
C940 C938 1.561 . S
C941 C938 1.526 . S
C941 C942 1.396 . S
C941 C946 1.390 . S
C942 C936 1.465 . S
C942 C941 1.396 . S
C942 C943 1.399 . S
C943 H929 0.929 . S
C943 C942 1.399 . S
C943 C944 1.385 . S
C944 H930 0.931 . S
C944 C943 1.385 . S
C944 C945 1.389 . S
C945 C944 1.389 . S
C945 C946 1.387 . S
C946 H931 0.930 . S
C946 C941 1.390 . S
C946 C945 1.387 . S
H947 C959 0.930 . S
H948 C961 0.930 . S
H949 C962 0.930 . S
H950 C966 0.959 . S
H951 C966 0.959 . S
H952 C966 0.961 . S
H953 C967 0.960 . S
H954 C967 0.961 . S
H955 C967 0.959 . S
H956 C970 0.929 . S
H957 C971 0.931 . S
H958 C973 0.930 . S
C959 H947 0.930 . S
C959 C960 1.399 . S
C959 C964 1.399 . S
C960 C959 1.399 . S
C960 C961 1.376 . S
C961 H948 0.930 . S
C961 C960 1.376 . S
C961 C962 1.388 . S
C962 H949 0.930 . S
C962 C961 1.388 . S
C962 C963 1.390 . S
C963 C962 1.390 . S
C963 C964 1.394 . S
C963 C969 1.465 . S
C964 C959 1.399 . S
C964 C963 1.394 . S
C964 C965 1.516 . S
C965 C964 1.516 . S
C965 C966 1.502 . S
C965 C967 1.561 . S
C965 C968 1.526 . S
C966 H950 0.959 . S
C966 H951 0.959 . S
C966 H952 0.961 . S
C966 C965 1.502 . S
C967 H953 0.960 . S
C967 H954 0.961 . S
C967 H955 0.959 . S
C967 C965 1.561 . S
C968 C965 1.526 . S
C968 C969 1.396 . S
C968 C973 1.390 . S
C969 C963 1.465 . S
C969 C968 1.396 . S
C969 C970 1.399 . S
C970 H956 0.929 . S
C970 C969 1.399 . S
C970 C971 1.385 . S
C971 H957 0.931 . S
C971 C970 1.385 . S
C971 C972 1.389 . S
C972 C971 1.389 . S
C972 C973 1.387 . S
C973 H958 0.930 . S
C973 C968 1.390 . S
C973 C972 1.387 . S
H974 C986 0.930 . S
H975 C988 0.930 . S
H976 C989 0.930 . S
H977 C993 0.959 . S
H978 C993 0.959 . S
H979 C993 0.961 . S
H980 C994 0.960 . S
H981 C994 0.961 . S
H982 C994 0.959 . S
H983 C997 0.929 . S
H984 C998 0.931 . S
H985 C1000 0.930 . S
C986 H974 0.930 . S
C986 C987 1.399 1_556 S
C986 C991 1.399 . S
C987 C986 1.399 1_554 S
C987 C988 1.376 . S
C988 H975 0.930 . S
C988 C987 1.376 . S
C988 C989 1.388 . S
C989 H976 0.930 . S
C989 C988 1.388 . S
C989 C990 1.390 . S
C990 C989 1.390 . S
C990 C991 1.394 1_554 S
C990 C996 1.465 . S
C991 C986 1.399 . S
C991 C990 1.394 1_556 S
C991 C992 1.516 . S
C992 C991 1.516 . S
C992 C993 1.502 . S
C992 C994 1.561 . S
C992 C995 1.526 . S
C993 H977 0.959 . S
C993 H978 0.959 . S
C993 H979 0.961 . S
C993 C992 1.502 . S
C994 H980 0.960 . S
C994 H981 0.961 . S
C994 H982 0.959 . S
C994 C992 1.561 . S
C995 C992 1.526 . S
C995 C996 1.396 1_556 S
C995 C1000 1.390 . S
C996 C990 1.465 . S
C996 C995 1.396 1_554 S
C996 C997 1.399 . S
C997 H983 0.929 . S
C997 C996 1.399 . S
C997 C998 1.385 . S
C998 H984 0.931 . S
C998 C997 1.385 . S
C998 C999 1.389 1_554 S
C999 C998 1.389 1_556 S
C999 C1000 1.387 . S
C1000 H985 0.930 . S
C1000 C995 1.390 . S
C1000 C999 1.387 . S
H1001 C1013 0.930 . S
H1002 C1015 0.930 . S
H1003 C1016 0.930 . S
H1004 C1020 0.959 . S
H1005 C1020 0.959 . S
H1006 C1020 0.961 . S
H1007 C1021 0.960 . S
H1008 C1021 0.961 . S
H1009 C1021 0.959 . S
H1010 C1024 0.929 . S
H1011 C1025 0.931 . S
H1012 C1027 0.930 . S
C1013 H1001 0.930 . S
C1013 C1014 1.399 . S
C1013 C1018 1.399 . S
C1014 C1013 1.399 . S
C1014 C1015 1.376 . S
C1015 H1002 0.930 . S
C1015 C1014 1.376 . S
C1015 C1016 1.388 . S
C1016 H1003 0.930 . S
C1016 C1015 1.388 . S
C1016 C1017 1.390 . S
C1017 C1016 1.390 . S
C1017 C1018 1.394 . S
C1017 C1023 1.465 . S
C1018 C1013 1.399 . S
C1018 C1017 1.394 . S
C1018 C1019 1.516 . S
C1019 C1018 1.516 . S
C1019 C1020 1.502 . S
C1019 C1021 1.561 . S
C1019 C1022 1.526 . S
C1020 H1004 0.959 . S
C1020 H1005 0.959 . S
C1020 H1006 0.961 . S
C1020 C1019 1.502 . S
C1021 H1007 0.960 . S
C1021 H1008 0.961 . S
C1021 H1009 0.959 . S
C1021 C1019 1.561 . S
C1022 C1019 1.526 . S
C1022 C1023 1.396 . S
C1022 C1027 1.390 . S
C1023 C1017 1.465 . S
C1023 C1022 1.396 . S
C1023 C1024 1.399 . S
C1024 H1010 0.929 . S
C1024 C1023 1.399 . S
C1024 C1025 1.385 . S
C1025 H1011 0.931 . S
C1025 C1024 1.385 . S
C1025 C1026 1.389 . S
C1026 C1025 1.389 . S
C1026 C1027 1.387 . S
C1027 H1012 0.930 . S
C1027 C1022 1.390 . S
C1027 C1026 1.387 . S
H1028 C1040 0.930 . S
H1029 C1042 0.930 . S
H1030 C1043 0.930 . S
H1031 C1047 0.959 . S
H1032 C1047 0.959 . S
H1033 C1047 0.961 . S
H1034 C1048 0.960 . S
H1035 C1048 0.961 . S
H1036 C1048 0.959 . S
H1037 C1051 0.929 . S
H1038 C1052 0.931 . S
H1039 C1054 0.930 . S
C1040 H1028 0.930 . S
C1040 C1041 1.399 . S
C1040 C1045 1.399 . S
C1041 C1040 1.399 . S
C1041 C1042 1.376 . S
C1042 H1029 0.930 . S
C1042 C1041 1.376 . S
C1042 C1043 1.388 . S
C1043 H1030 0.930 . S
C1043 C1042 1.388 . S
C1043 C1044 1.390 . S
C1044 C1043 1.390 . S
C1044 C1045 1.394 . S
C1044 C1050 1.465 . S
C1045 C1040 1.399 . S
C1045 C1044 1.394 . S
C1045 C1046 1.516 . S
C1046 C1045 1.516 . S
C1046 C1047 1.502 . S
C1046 C1048 1.561 . S
C1046 C1049 1.526 . S
C1047 H1031 0.959 . S
C1047 H1032 0.959 . S
C1047 H1033 0.961 . S
C1047 C1046 1.502 . S
C1048 H1034 0.960 . S
C1048 H1035 0.961 . S
C1048 H1036 0.959 . S
C1048 C1046 1.561 . S
C1049 C1046 1.526 . S
C1049 C1050 1.396 . S
C1049 C1054 1.390 . S
C1050 C1044 1.465 . S
C1050 C1049 1.396 . S
C1050 C1051 1.399 . S
C1051 H1037 0.929 . S
C1051 C1050 1.399 . S
C1051 C1052 1.385 . S
C1052 H1038 0.931 . S
C1052 C1051 1.385 . S
C1052 C1053 1.389 . S
C1053 C1052 1.389 . S
C1053 C1054 1.387 . S
C1054 H1039 0.930 . S
C1054 C1049 1.390 . S
C1054 C1053 1.387 . S
H1055 C1067 0.930 . S
H1056 C1069 0.930 . S
H1057 C1070 0.930 . S
H1058 C1074 0.959 . S
H1059 C1074 0.959 . S
H1060 C1074 0.961 . S
H1061 C1075 0.960 . S
H1062 C1075 0.961 . S
H1063 C1075 0.959 . S
H1064 C1078 0.929 . S
H1065 C1079 0.931 . S
H1066 C1081 0.930 . S
C1067 H1055 0.930 . S
C1067 C1068 1.399 1_554 S
C1067 C1072 1.399 . S
C1068 C1067 1.399 1_556 S
C1068 C1069 1.376 . S
C1069 H1056 0.930 . S
C1069 C1068 1.376 . S
C1069 C1070 1.388 . S
C1070 H1057 0.930 . S
C1070 C1069 1.388 . S
C1070 C1071 1.390 . S
C1071 C1070 1.390 . S
C1071 C1072 1.394 1_556 S
C1071 C1077 1.465 . S
C1072 C1067 1.399 . S
C1072 C1071 1.394 1_554 S
C1072 C1073 1.516 . S
C1073 C1072 1.516 . S
C1073 C1074 1.502 . S
C1073 C1075 1.561 . S
C1073 C1076 1.526 . S
C1074 H1058 0.959 . S
C1074 H1059 0.959 . S
C1074 H1060 0.961 . S
C1074 C1073 1.502 . S
C1075 H1061 0.960 . S
C1075 H1062 0.961 . S
C1075 H1063 0.959 . S
C1075 C1073 1.561 . S
C1076 C1073 1.526 . S
C1076 C1077 1.396 1_554 S
C1076 C1081 1.390 . S
C1077 C1071 1.465 . S
C1077 C1076 1.396 1_556 S
C1077 C1078 1.399 . S
C1078 H1064 0.929 . S
C1078 C1077 1.399 . S
C1078 C1079 1.385 . S
C1079 H1065 0.931 . S
C1079 C1078 1.385 . S
C1079 C1080 1.389 1_556 S
C1080 C1079 1.389 1_554 S
C1080 C1081 1.387 . S
C1081 H1066 0.930 . S
C1081 C1076 1.390 . S
C1081 C1080 1.387 . S
H1082 C1094 0.930 . S
H1083 C1096 0.930 . S
H1084 C1097 0.930 . S
H1085 C1101 0.959 . S
H1086 C1101 0.959 . S
H1087 C1101 0.961 . S
H1088 C1102 0.960 . S
H1089 C1102 0.961 . S
H1090 C1102 0.959 . S
H1091 C1105 0.929 . S
H1092 C1106 0.931 . S
H1093 C1108 0.930 . S
C1094 H1082 0.930 . S
C1094 C1095 1.399 . S
C1094 C1099 1.399 . S
C1095 C1094 1.399 . S
C1095 C1096 1.376 . S
C1096 H1083 0.930 . S
C1096 C1095 1.376 . S
C1096 C1097 1.388 . S
C1097 H1084 0.930 . S
C1097 C1096 1.388 . S
C1097 C1098 1.390 . S
C1098 C1097 1.390 . S
C1098 C1099 1.394 . S
C1098 C1104 1.465 . S
C1099 C1094 1.399 . S
C1099 C1098 1.394 . S
C1099 C1100 1.516 . S
C1100 C1099 1.516 . S
C1100 C1101 1.502 . S
C1100 C1102 1.561 . S
C1100 C1103 1.526 . S
C1101 H1085 0.959 . S
C1101 H1086 0.959 . S
C1101 H1087 0.961 . S
C1101 C1100 1.502 . S
C1102 H1088 0.960 . S
C1102 H1089 0.961 . S
C1102 H1090 0.959 . S
C1102 C1100 1.561 . S
C1103 C1100 1.526 . S
C1103 C1104 1.396 . S
C1103 C1108 1.390 . S
C1104 C1098 1.465 . S
C1104 C1103 1.396 . S
C1104 C1105 1.399 . S
C1105 H1091 0.929 . S
C1105 C1104 1.399 . S
C1105 C1106 1.385 . S
C1106 H1092 0.931 . S
C1106 C1105 1.385 . S
C1106 C1107 1.389 . S
C1107 C1106 1.389 . S
C1107 C1108 1.387 . S
C1108 H1093 0.930 . S
C1108 C1103 1.390 . S
C1108 C1107 1.387 . S
H1109 C1121 0.930 . S
H1110 C1123 0.930 . S
H1111 C1124 0.930 . S
H1112 C1128 0.959 . S
H1113 C1128 0.959 . S
H1114 C1128 0.961 . S
H1115 C1129 0.960 . S
H1116 C1129 0.961 . S
H1117 C1129 0.959 . S
H1118 C1132 0.929 . S
H1119 C1133 0.931 . S
H1120 C1135 0.930 . S
C1121 H1109 0.930 . S
C1121 C1122 1.399 . S
C1121 C1126 1.399 . S
C1122 C1121 1.399 . S
C1122 C1123 1.376 . S
C1123 H1110 0.930 . S
C1123 C1122 1.376 . S
C1123 C1124 1.388 . S
C1124 H1111 0.930 . S
C1124 C1123 1.388 . S
C1124 C1125 1.390 . S
C1125 C1124 1.390 . S
C1125 C1126 1.394 . S
C1125 C1131 1.465 . S
C1126 C1121 1.399 . S
C1126 C1125 1.394 . S
C1126 C1127 1.516 . S
C1127 C1126 1.516 . S
C1127 C1128 1.502 . S
C1127 C1129 1.561 . S
C1127 C1130 1.526 . S
C1128 H1112 0.959 . S
C1128 H1113 0.959 . S
C1128 H1114 0.961 . S
C1128 C1127 1.502 . S
C1129 H1115 0.960 . S
C1129 H1116 0.961 . S
C1129 H1117 0.959 . S
C1129 C1127 1.561 . S
C1130 C1127 1.526 . S
C1130 C1131 1.396 . S
C1130 C1135 1.390 . S
C1131 C1125 1.465 . S
C1131 C1130 1.396 . S
C1131 C1132 1.399 . S
C1132 H1118 0.929 . S
C1132 C1131 1.399 . S
C1132 C1133 1.385 . S
C1133 H1119 0.931 . S
C1133 C1132 1.385 . S
C1133 C1134 1.389 . S
C1134 C1133 1.389 . S
C1134 C1135 1.387 . S
C1135 H1120 0.930 . S
C1135 C1130 1.390 . S
C1135 C1134 1.387 . S
C717 C108 1.342 . S
C729 C57 1.371 . S
C744 C145 1.337 . S
C756 C205 1.368 . S
C771 C293 1.363 . S
C783 C225 1.334 . S
C798 C313 1.340 . S
C810 C20 1.370 . S
C825 C409 1.335 . S
C837 C460 1.349 . S
C852 C497 1.335 . S
C864 C557 1.349 . S
C879 C577 1.338 . S
C891 C645 1.369 . S
C906 C372 1.340 . S
C918 C665 1.370 . S
C933 C49 1.513 . S
C945 C636 1.520 . S
C960 C381 1.496 . S
C972 C137 1.525 . S
C987 C469 1.497 . S
C999 C233 1.530 . S
C1014 C321 1.495 . S
C1026 C548 1.527 . S
C1041 C196 1.499 . S
C1053 C673 1.520 . S
C1068 C401 1.496 . S
C1080 C284 1.525 . S
C1095 C489 1.529 . S
C1107 C29 1.502 . S
C1122 C117 1.497 . S
C1134 C585 1.523 . S
