# Generated by pormake.
# Topology una, (4)-cn, num edge types: 1
# Building blocks:
#     Node 0, Type 0, BuildingBlock: KUFVIS_clean_sbu_0, # of connection points: 4
#     Node 1, Type 0, BuildingBlock: KUFVIS_clean_sbu_0, # of connection points: 4
#     Node 2, Type 0, BuildingBlock: KUFVIS_clean_sbu_0, # of connection points: 4
#     Node 3, Type 0, BuildingBlock: KUFVIS_clean_sbu_0, # of connection points: 4
#     Node 4, Type 0, BuildingBlock: KUFVIS_clean_sbu_0, # of connection points: 4
#     Node 5, Type 0, BuildingBlock: KUFVIS_clean_sbu_0, # of connection points: 4
#     Node 6, Type 0, BuildingBlock: KUFVIS_clean_sbu_0, # of connection points: 4
#     Node 7, Type 0, BuildingBlock: KUFVIS_clean_sbu_0, # of connection points: 4
#     Node 8, Type 0, BuildingBlock: KUFVIS_clean_sbu_0, # of connection points: 4
#     Node 9, Type 0, BuildingBlock: KUFVIS_clean_sbu_0, # of connection points: 4
#     Node 10, Type 0, BuildingBlock: KUFVIS_clean_sbu_0, # of connection points: 4
#     Node 11, Type 0, BuildingBlock: KUFVIS_clean_sbu_0, # of connection points: 4
#     Edge 12, Type (0, 0), BuildingBlock: OJICUG_clean_linker_0, # of connection points: 2
#     Edge 13, Type (0, 0), BuildingBlock: OJICUG_clean_linker_0, # of connection points: 2
#     Edge 14, Type (0, 0), BuildingBlock: OJICUG_clean_linker_0, # of connection points: 2
#     Edge 15, Type (0, 0), BuildingBlock: OJICUG_clean_linker_0, # of connection points: 2
#     Edge 16, Type (0, 0), BuildingBlock: OJICUG_clean_linker_0, # of connection points: 2
#     Edge 17, Type (0, 0), BuildingBlock: OJICUG_clean_linker_0, # of connection points: 2
#     Edge 18, Type (0, 0), BuildingBlock: OJICUG_clean_linker_0, # of connection points: 2
#     Edge 19, Type (0, 0), BuildingBlock: OJICUG_clean_linker_0, # of connection points: 2
#     Edge 20, Type (0, 0), BuildingBlock: OJICUG_clean_linker_0, # of connection points: 2
#     Edge 21, Type (0, 0), BuildingBlock: OJICUG_clean_linker_0, # of connection points: 2
#     Edge 22, Type (0, 0), BuildingBlock: OJICUG_clean_linker_0, # of connection points: 2
#     Edge 23, Type (0, 0), BuildingBlock: OJICUG_clean_linker_0, # of connection points: 2
#     Edge 24, Type (0, 0), BuildingBlock: OJICUG_clean_linker_0, # of connection points: 2
#     Edge 25, Type (0, 0), BuildingBlock: OJICUG_clean_linker_0, # of connection points: 2
#     Edge 26, Type (0, 0), BuildingBlock: OJICUG_clean_linker_0, # of connection points: 2
#     Edge 27, Type (0, 0), BuildingBlock: OJICUG_clean_linker_0, # of connection points: 2
#     Edge 28, Type (0, 0), BuildingBlock: OJICUG_clean_linker_0, # of connection points: 2
#     Edge 29, Type (0, 0), BuildingBlock: OJICUG_clean_linker_0, # of connection points: 2
#     Edge 30, Type (0, 0), BuildingBlock: OJICUG_clean_linker_0, # of connection points: 2
#     Edge 31, Type (0, 0), BuildingBlock: OJICUG_clean_linker_0, # of connection points: 2
#     Edge 32, Type (0, 0), BuildingBlock: OJICUG_clean_linker_0, # of connection points: 2
#     Edge 33, Type (0, 0), BuildingBlock: OJICUG_clean_linker_0, # of connection points: 2
#     Edge 34, Type (0, 0), BuildingBlock: OJICUG_clean_linker_0, # of connection points: 2
#     Edge 35, Type (0, 0), BuildingBlock: OJICUG_clean_linker_0, # of connection points: 2
# Relax obj value: 0.032
# Max RMSD: 0.075
# Mean RMSD: 0.075
data_MOF--net-una--node1-KUFVIS_clean_sbu_0--edge1-OJICUG_clean_linker_0
_symmetry_space_group_name_H-M    P1
_symmetry_Int_Tables_number       1
_symmetry_cell_setting            triclinic
loop_
_symmetry_equiv_pos_as_xyz
'x, y, z'
_cell_length_a     42.03208
_cell_length_b     42.018916
_cell_length_c     16.095369
_cell_angle_alpha  90.013717
_cell_angle_beta   89.980853
_cell_angle_gamma 120.00843
loop_
_atom_site_label
_atom_site_type_symbol
_atom_site_fract_x
_atom_site_fract_y
_atom_site_fract_z
_atom_type_partial_charge
Mn0 Mn 0.15429 0.44954 0.04769 0.0
Mn1 Mn 0.15221 0.49257 0.87116 0.0
C2 C 0.18045 0.44335 0.92821 0.0
C3 C 0.18601 0.4506 0.16966 0.0
C4 C 0.08722 0.42123 0.93068 0.0
O5 O 0.14189 0.48738 0.09128 0.0
O6 O 0.14076 0.5136 0.97008 0.0
C7 C 0.21613 0.566 0.90712 0.0
N8 N 0.19827 0.53662 0.85533 0.0
C9 C 0.24464 0.56609 0.74994 0.0
C10 C 0.26317 0.5969 0.8016 0.0
C11 C 0.24898 0.59675 0.88073 0.0
C12 C 0.21172 0.53646 0.77907 0.0
H13 H 0.20533 0.566 0.96799 0.0
C14 C 0.13785 0.51093 0.04942 0.0
O15 O 0.15101 0.42761 0.16144 0.0
O16 O 0.20176 0.47359 0.10959 0.0
N17 N 0.16341 0.47616 0.77007 0.0
C18 C 0.14482 0.44265 0.73263 0.0
C19 C 0.15689 0.43724 0.65532 0.0
C20 C 0.18781 0.46635 0.6171 0.0
C21 C 0.20657 0.50058 0.65688 0.0
C22 C 0.1931 0.50445 0.7336 0.0
H23 H 0.12139 0.42008 0.7623 0.0
O24 O 0.17045 0.4192 0.98705 0.0
O25 O 0.17502 0.47092 0.94054 0.0
O26 O 0.10142 0.41835 0.99903 0.0
O27 O 0.10414 0.44767 0.8796 0.0
C28 C 0.23904 0.5305 0.62519 0.0
C29 C 0.25807 0.56322 0.67172 0.0
H30 H 0.28856 0.62064 0.78159 0.0
H31 H 0.26336 0.62028 0.92129 0.0
H32 H 0.14253 0.41061 0.62549 0.0
H33 H 0.19733 0.4619 0.55801 0.0
H34 H 0.25015 0.52827 0.56613 0.0
H35 H 0.28346 0.5857 0.64762 0.0
Mn36 Mn 0.7117 0.14968 0.2139 0.0
Mn37 Mn 0.6669 0.14794 0.03709 0.0
C38 C 0.74419 0.17535 0.09427 0.0
C39 C 0.74265 0.18141 0.3358 0.0
C40 C 0.672 0.08241 0.09758 0.0
O41 O 0.66169 0.13807 0.25726 0.0
O42 O 0.63448 0.13708 0.13594 0.0
C43 C 0.65822 0.21246 0.07176 0.0
N44 N 0.66956 0.19427 0.02054 0.0
C45 C 0.68677 0.24032 0.91428 0.0
C46 C 0.67465 0.25918 0.96531 0.0
C47 C 0.66058 0.24533 0.04462 0.0
C48 C 0.68322 0.20739 0.94412 0.0
H49 H 0.64734 0.20189 0.13272 0.0
C50 C 0.63423 0.1343 0.21531 0.0
O51 O 0.73015 0.1463 0.32786 0.0
O52 O 0.73577 0.1973 0.27545 0.0
N53 N 0.6945 0.15861 0.93612 0.0
C54 C 0.70916 0.13966 0.89926 0.0
C55 C 0.72673 0.1514 0.82195 0.0
C56 C 0.7289 0.18237 0.78313 0.0
C57 C 0.71372 0.20152 0.82235 0.0
C58 C 0.6963 0.18838 0.89914 0.0
H59 H 0.70804 0.11621 0.92941 0.0
O60 O 0.75807 0.16511 0.15321 0.0
O61 O 0.71135 0.17038 0.10653 0.0
O62 O 0.6892 0.09657 0.16584 0.0
O63 O 0.66296 0.09957 0.04611 0.0
C64 C 0.7166 0.23403 0.79003 0.0
C65 C 0.70314 0.25342 0.83596 0.0
H66 H 0.67645 0.28456 0.94466 0.0
H67 H 0.65155 0.25997 0.0847 0.0
H68 H 0.73878 0.13674 0.79256 0.0
H69 H 0.74292 0.19162 0.72403 0.0
H70 H 0.72999 0.24488 0.73089 0.0
H71 H 0.70626 0.27882 0.81132 0.0
Mn72 Mn 0.56843 0.70851 0.38038 0.0
Mn73 Mn 0.52591 0.66338 0.20343 0.0
C74 C 0.57449 0.7409 0.26103 0.0
C75 C 0.56693 0.73891 0.50246 0.0
C76 C 0.59727 0.67011 0.26377 0.0
O77 O 0.53079 0.65809 0.42349 0.0
O78 O 0.50478 0.63075 0.3021 0.0
C79 C 0.45211 0.65314 0.23809 0.0
N80 N 0.48172 0.66503 0.18689 0.0
C81 C 0.45228 0.68159 0.08081 0.0
C82 C 0.42122 0.6689 0.13183 0.0
C83 C 0.42125 0.65487 0.21103 0.0
C84 C 0.48201 0.67865 0.11058 0.0
H85 H 0.452 0.6423 0.29897 0.0
C86 C 0.50739 0.63047 0.38145 0.0
O87 O 0.59011 0.72714 0.49432 0.0
O88 O 0.544 0.73159 0.44223 0.0
N89 N 0.54248 0.69115 0.10262 0.0
C90 C 0.57613 0.70641 0.06582 0.0
C91 C 0.58168 0.724 0.98862 0.0
C92 C 0.55255 0.72557 0.94985 0.0
C93 C 0.51817 0.70975 0.98899 0.0
C94 C 0.51419 0.69236 0.06567 0.0
H95 H 0.59871 0.70574 0.09591 0.0
O96 O 0.59857 0.75515 0.31997 0.0
O97 O 0.54711 0.70775 0.27313 0.0
O98 O 0.59997 0.68717 0.33204 0.0
O99 O 0.57091 0.66049 0.21245 0.0
C100 C 0.48819 0.712 0.95671 0.0
C101 C 0.45526 0.69792 1.0026 0.0
H102 H 0.39739 0.67023 0.11126 0.0
H103 H 0.39753 0.6454 0.25109 0.0
H104 H 0.60842 0.73653 0.95928 0.0
H105 H 0.55709 0.7396 0.89084 0.0
H106 H 0.49049 0.72536 0.89766 0.0
H107 H 0.4327 0.70057 0.97801 0.0
Mn108 Mn 0.8655 0.56263 0.54712 0.0
Mn109 Mn 0.86673 0.51899 0.37077 0.0
C110 C 0.83922 0.56885 0.42803 0.0
C111 C 0.83422 0.56203 0.66958 0.0
C112 C 0.93207 0.59036 0.42861 0.0
O113 O 0.8779 0.52479 0.59067 0.0
O114 O 0.87859 0.49828 0.46957 0.0
C115 C 0.80279 0.44587 0.4089 0.0
N116 N 0.82051 0.47498 0.35637 0.0
C117 C 0.77365 0.44519 0.25219 0.0
C118 C 0.75524 0.41463 0.30463 0.0
C119 C 0.76974 0.41509 0.38353 0.0
C120 C 0.80674 0.47487 0.28035 0.0
H121 H 0.81384 0.4461 0.46959 0.0
C122 C 0.88185 0.50119 0.54881 0.0
O123 O 0.86922 0.58487 0.66077 0.0
O124 O 0.81822 0.5389 0.60986 0.0
N125 N 0.85521 0.53502 0.26962 0.0
C126 C 0.87386 0.56829 0.23116 0.0
C127 C 0.86155 0.57339 0.15386 0.0
C128 C 0.83037 0.54419 0.11665 0.0
C129 C 0.81159 0.51019 0.15739 0.0
C130 C 0.82529 0.50664 0.23407 0.0
H131 H 0.89756 0.59091 0.25995 0.0
O132 O 0.84942 0.59305 0.48681 0.0
O133 O 0.84438 0.54109 0.44031 0.0
O134 O 0.9182 0.59348 0.49728 0.0
O135 O 0.91488 0.56381 0.37793 0.0
C136 C 0.77892 0.48021 0.12669 0.0
C137 C 0.75995 0.44775 0.17409 0.0
H138 H 0.72971 0.39087 0.28539 0.0
H139 H 0.75547 0.39176 0.42467 0.0
H140 H 0.87596 0.59982 0.12322 0.0
H141 H 0.82067 0.5484 0.05756 0.0
H142 H 0.76762 0.4822 0.0677 0.0
H143 H 0.73442 0.42521 0.15071 0.0
Mn144 Mn 0.30696 0.86358 0.71185 0.0
Mn145 Mn 0.35163 0.86519 0.53503 0.0
C146 C 0.27455 0.83918 0.59159 0.0
C147 C 0.27525 0.83228 0.83299 0.0
C148 C 0.34817 0.93127 0.59728 0.0
O149 O 0.35627 0.87306 0.75533 0.0
O150 O 0.38395 0.87529 0.63385 0.0
C151 C 0.3594 0.79999 0.56763 0.0
N152 N 0.3482 0.81858 0.51736 0.0
C153 C 0.33047 0.77292 0.40995 0.0
C154 C 0.34249 0.75369 0.45993 0.0
C155 C 0.35673 0.76712 0.53936 0.0
C156 C 0.3344 0.80586 0.44081 0.0
H157 H 0.37047 0.81027 0.62861 0.0
C158 C 0.38386 0.87716 0.71339 0.0
O159 O 0.28977 0.86772 0.82647 0.0
O160 O 0.2805 0.81559 0.77176 0.0
N161 N 0.32407 0.85528 0.43429 0.0
C162 C 0.30976 0.87473 0.39839 0.0
C163 C 0.29197 0.86341 0.32126 0.0
C164 C 0.28922 0.83233 0.2817 0.0
C165 C 0.30405 0.81265 0.31993 0.0
C166 C 0.32167 0.82537 0.39664 0.0
H167 H 0.3113 0.89825 0.42918 0.0
O168 O 0.26113 0.85005 0.65042 0.0
O169 O 0.307 0.84318 0.60411 0.0
O170 O 0.33123 0.91713 0.66576 0.0
O171 O 0.35646 0.91387 0.54482 0.0
C172 C 0.30067 0.78006 0.28671 0.0
C173 C 0.31391 0.76024 0.33164 0.0
H174 H 0.34052 0.72835 0.43834 0.0
H175 H 0.36568 0.75218 0.57864 0.0
H176 H 0.2802 0.87846 0.29262 0.0
H177 H 0.27502 0.82345 0.22283 0.0
H178 H 0.28712 0.76951 0.22762 0.0
H179 H 0.31047 0.73482 0.30626 0.0
Mn180 Mn 0.45204 0.30587 0.88218 0.0
Mn181 Mn 0.49463 0.35059 0.70485 0.0
C182 C 0.4458 0.27325 0.76314 0.0
C183 C 0.45341 0.27556 1.00454 0.0
C184 C 0.42342 0.34427 0.76502 0.0
O185 O 0.48981 0.35631 0.92486 0.0
O186 O 0.51579 0.38338 0.80321 0.0
C187 C 0.56827 0.36056 0.73997 0.0
N188 N 0.53872 0.34873 0.68864 0.0
C189 C 0.56809 0.33184 0.58298 0.0
C190 C 0.59908 0.34445 0.63414 0.0
C191 C 0.59906 0.35862 0.71319 0.0
C192 C 0.53842 0.33497 0.61248 0.0
H193 H 0.56839 0.3715 0.80074 0.0
C194 C 0.5132 0.38383 0.88254 0.0
O195 O 0.43034 0.28746 0.99624 0.0
O196 O 0.47632 0.28272 0.94432 0.0
N197 N 0.47803 0.32268 0.60422 0.0
C198 C 0.44442 0.30752 0.56727 0.0
C199 C 0.43887 0.28984 0.49017 0.0
C200 C 0.46796 0.2881 0.45163 0.0
C201 C 0.5023 0.30383 0.4909 0.0
C202 C 0.50629 0.32132 0.56747 0.0
H203 H 0.42188 0.30835 0.59717 0.0
O204 O 0.42173 0.25916 0.82217 0.0
O205 O 0.47328 0.30636 0.77498 0.0
O206 O 0.42068 0.32734 0.83351 0.0
O207 O 0.44971 0.35366 0.7136 0.0
C208 C 0.53223 0.3014 0.45886 0.0
C209 C 0.5651 0.31539 0.50489 0.0
H210 H 0.62286 0.34295 0.61379 0.0
H211 H 0.62273 0.36803 0.75336 0.0
H212 H 0.41217 0.27739 0.46072 0.0
H213 H 0.46341 0.274 0.3927 0.0
H214 H 0.52992 0.28796 0.39991 0.0
H215 H 0.58761 0.3126 0.48051 0.0
Mn216 Mn 0.56617 0.86242 0.89186 0.0
Mn217 Mn 0.52275 0.86379 0.06841 0.0
C218 C 0.57289 0.83661 0.01132 0.0
C219 C 0.56561 0.83096 0.76978 0.0
C220 C 0.59361 0.92944 0.00882 0.0
O221 O 0.52783 0.87412 0.84838 0.0
O222 O 0.50121 0.87462 0.9695 0.0
C223 C 0.44981 0.79906 0.03303 0.0
N224 N 0.47918 0.81735 0.08459 0.0
C225 C 0.45041 0.77104 0.19035 0.0
C226 C 0.41959 0.75206 0.13896 0.0
C227 C 0.4194 0.766 0.05974 0.0
C228 C 0.47968 0.80414 0.16092 0.0
H229 H 0.44954 0.80967 0.97211 0.0
C230 C 0.5039 0.87758 0.89016 0.0
O231 O 0.58821 0.86605 0.77808 0.0
O232 O 0.54269 0.81494 0.82986 0.0
N233 N 0.53962 0.85314 0.16947 0.0
C234 C 0.57313 0.8722 0.20664 0.0
C235 C 0.57891 0.86044 0.28396 0.0
C236 C 0.55015 0.82932 0.32246 0.0
C237 C 0.51591 0.81006 0.28292 0.0
C238 C 0.51167 0.82324 0.20617 0.0
H239 H 0.59545 0.89577 0.17675 0.0
O240 O 0.59702 0.84687 0.95238 0.0
O241 O 0.54498 0.84153 0.99905 0.0
O242 O 0.59681 0.91536 0.94058 0.0
O243 O 0.56714 0.91227 0.05972 0.0
C244 C 0.48636 0.77738 0.31488 0.0
C245 C 0.45364 0.75788 0.26861 0.0
H246 H 0.39611 0.72652 0.15924 0.0
H247 H 0.39587 0.75127 0.01938 0.0
H248 H 0.60554 0.87519 0.3136 0.0
H249 H 0.55488 0.82004 0.38155 0.0
H250 H 0.48887 0.76649 0.37397 0.0
H251 H 0.43144 0.73235 0.29293 0.0
Mn252 Mn 0.71137 0.5644 0.0587 0.0
Mn253 Mn 0.66616 0.52171 0.23548 0.0
C254 C 0.74367 0.57028 0.178 0.0
C255 C 0.74185 0.56303 0.9366 0.0
C256 C 0.67321 0.59332 0.17597 0.0
O257 O 0.66096 0.52691 0.01539 0.0
O258 O 0.63354 0.501 0.13678 0.0
C259 C 0.6557 0.44792 0.19925 0.0
N260 N 0.66758 0.47733 0.25108 0.0
C261 C 0.684 0.4474 0.35625 0.0
C262 C 0.67134 0.41655 0.30454 0.0
C263 C 0.65737 0.41692 0.2255 0.0
C264 C 0.68114 0.47729 0.32725 0.0
H265 H 0.64493 0.44808 0.13845 0.0
C266 C 0.63326 0.50365 0.05746 0.0
O267 O 0.73013 0.58625 0.94489 0.0
O268 O 0.73441 0.53998 0.99664 0.0
N269 N 0.69385 0.53783 0.33646 0.0
C270 C 0.70907 0.57133 0.37403 0.0
C271 C 0.72653 0.57651 0.45129 0.0
C272 C 0.72797 0.54717 0.48935 0.0
C273 C 0.71216 0.51294 0.44946 0.0
C274 C 0.69489 0.50932 0.37279 0.0
H275 H 0.70844 0.59405 0.34454 0.0
O276 O 0.75798 0.59442 0.11916 0.0
O277 O 0.71053 0.54292 0.16581 0.0
O278 O 0.69013 0.59597 0.10747 0.0
O279 O 0.66358 0.56692 0.22722 0.0
C280 C 0.7143 0.48278 0.48101 0.0
C281 C 0.70024 0.45004 0.43441 0.0
H282 H 0.67265 0.39262 0.32446 0.0
H283 H 0.64792 0.39336 0.18491 0.0
H284 H 0.73903 0.60312 0.48124 0.0
H285 H 0.74191 0.55144 0.5484 0.0
H286 H 0.72757 0.48481 0.54003 0.0
H287 H 0.70282 0.42734 0.45842 0.0
Mn288 Mn 0.15268 0.70827 0.22488 0.0
Mn289 Mn 0.15038 0.66388 0.40267 0.0
C290 C 0.17704 0.74095 0.34494 0.0
C291 C 0.18512 0.7399 0.10389 0.0
C292 C 0.08489 0.6682 0.33972 0.0
O293 O 0.1426 0.65868 0.18222 0.0
O294 O 0.13963 0.63114 0.3043 0.0
C295 C 0.21481 0.6549 0.3695 0.0
N296 N 0.19666 0.66656 0.41997 0.0
C297 C 0.2424 0.68377 0.5269 0.0
C298 C 0.26116 0.67125 0.47673 0.0
C299 C 0.24747 0.65705 0.39743 0.0
C300 C 0.20966 0.68037 0.49635 0.0
H301 H 0.20435 0.64386 0.3086 0.0
C302 C 0.1379 0.63103 0.22474 0.0
O303 O 0.14969 0.72583 0.10943 0.0
O304 O 0.20084 0.73386 0.16595 0.0
N305 N 0.16089 0.69169 0.50332 0.0
C306 C 0.14189 0.70642 0.53962 0.0
C307 C 0.15353 0.72417 0.61678 0.0
C308 C 0.18444 0.72642 0.65603 0.0
C309 C 0.20363 0.71115 0.61741 0.0
C310 C 0.19061 0.6936 0.54071 0.0
H311 H 0.11848 0.70522 0.50912 0.0
O312 O 0.16659 0.7544 0.28542 0.0
O313 O 0.17279 0.70835 0.33314 0.0
O314 O 0.09908 0.68463 0.27069 0.0
O315 O 0.10211 0.65998 0.39283 0.0
C316 C 0.23603 0.71401 0.65031 0.0
C317 C 0.25538 0.70029 0.60513 0.0
H318 H 0.28635 0.67283 0.49806 0.0
H319 H 0.26205 0.64773 0.35799 0.0
H320 H 0.13884 0.73627 0.64572 0.0
H321 H 0.19359 0.74053 0.71504 0.0
H322 H 0.24678 0.7275 0.7094 0.0
H323 H 0.28065 0.70332 0.63029 0.0
Mn324 Mn 0.45345 0.15156 0.39364 0.0
Mn325 Mn 0.49665 0.14973 0.57013 0.0
C326 C 0.44688 0.17735 0.51325 0.0
C327 C 0.45422 0.18321 0.27172 0.0
C328 C 0.42566 0.08445 0.51045 0.0
O329 O 0.49153 0.13952 0.35002 0.0
O330 O 0.51782 0.13849 0.47117 0.0
C331 C 0.56984 0.21401 0.53426 0.0
N332 N 0.54049 0.19597 0.58601 0.0
C333 C 0.56972 0.24229 0.69159 0.0
C334 C 0.60051 0.261 0.63998 0.0
C335 C 0.60046 0.24694 0.56076 0.0
C336 C 0.54022 0.2093 0.66235 0.0
H337 H 0.56992 0.20328 0.47334 0.0
C338 C 0.51512 0.13555 0.39184 0.0
O339 O 0.43148 0.14814 0.27988 0.0
O340 O 0.47716 0.19909 0.33182 0.0
N341 N 0.4801 0.16068 0.67133 0.0
C342 C 0.44664 0.14182 0.70885 0.0
C343 C 0.44112 0.15373 0.78627 0.0
C344 C 0.47009 0.18475 0.82453 0.0
C345 C 0.50428 0.20377 0.78468 0.0
C346 C 0.50825 0.19046 0.70784 0.0
H347 H 0.42418 0.11828 0.67919 0.0
O348 O 0.42278 0.16728 0.45431 0.0
O349 O 0.47468 0.17228 0.50089 0.0
O350 O 0.42264 0.09861 0.44216 0.0
O351 O 0.45201 0.1015 0.56163 0.0
C352 C 0.53405 0.23633 0.81644 0.0
C353 C 0.56674 0.25558 0.76991 0.0
H354 H 0.62416 0.28644 0.66011 0.0
H355 H 0.62398 0.26146 0.52024 0.0
H356 H 0.41453 0.13915 0.81618 0.0
H357 H 0.46556 0.19414 0.8837 0.0
H358 H 0.53175 0.24732 0.8756 0.0
H359 H 0.58912 0.28102 0.79411 0.0
Mn360 Mn 0.30939 0.44978 0.55882 0.0
Mn361 Mn 0.35437 0.49283 0.73547 0.0
C362 C 0.27693 0.44363 0.67805 0.0
C363 C 0.27888 0.45079 0.43657 0.0
C364 C 0.34788 0.4214 0.67639 0.0
O365 O 0.35972 0.48749 0.51547 0.0
O366 O 0.387 0.51367 0.63674 0.0
C367 C 0.36417 0.56632 0.69878 0.0
N368 N 0.35251 0.537 0.75078 0.0
C369 C 0.33572 0.56674 0.85571 0.0
C370 C 0.34814 0.5975 0.80383 0.0
C371 C 0.36219 0.59718 0.72482 0.0
C372 C 0.33887 0.53699 0.82691 0.0
H373 H 0.37499 0.5662 0.63801 0.0
C374 C 0.38733 0.51093 0.55744 0.0
O375 O 0.29086 0.42778 0.44508 0.0
O376 O 0.2861 0.47385 0.4965 0.0
N377 N 0.3267 0.47664 0.8365 0.0
C378 C 0.31174 0.44321 0.87428 0.0
C379 C 0.29426 0.43797 0.95156 0.0
C380 C 0.29253 0.4672 0.98941 0.0
C381 C 0.30807 0.50136 0.94931 0.0
C382 C 0.32538 0.50504 0.87263 0.0
H383 H 0.31258 0.42056 0.84494 0.0
O384 O 0.26282 0.4195 0.61915 0.0
O385 O 0.30997 0.47121 0.66588 0.0
O386 O 0.33094 0.41856 0.60787 0.0
O387 O 0.35736 0.44783 0.72749 0.0
C388 C 0.30563 0.5314 0.98065 0.0
C389 C 0.31943 0.56406 0.93386 0.0
H390 H 0.34659 0.62133 0.82358 0.0
H391 H 0.37145 0.62067 0.6841 0.0
H392 H 0.28197 0.41141 0.98166 0.0
H393 H 0.27858 0.46289 0.04847 0.0
H394 H 0.29232 0.52932 0.03967 0.0
H395 H 0.31663 0.58664 0.95772 0.0
Mn396 Mn 0.86724 0.30436 0.72565 0.0
Mn397 Mn 0.86922 0.34918 0.90273 0.0
C398 C 0.84119 0.27182 0.84502 0.0
C399 C 0.83553 0.27376 0.60348 0.0
C400 C 0.93441 0.34344 0.8423 0.0
O401 O 0.8794 0.35461 0.68266 0.0
O402 O 0.88039 0.38177 0.80411 0.0
C403 C 0.80514 0.35855 0.8682 0.0
N404 N 0.8231 0.34693 0.91932 0.0
C405 C 0.77705 0.32994 0.02552 0.0
C406 C 0.75844 0.34237 0.9746 0.0
C407 C 0.77239 0.35647 0.89537 0.0
C408 C 0.80986 0.33324 0.99565 0.0
H409 H 0.81579 0.36946 0.80731 0.0
C410 C 0.88329 0.3821 0.72476 0.0
O411 O 0.87055 0.28592 0.6116 0.0
O412 O 0.81972 0.28079 0.6638 0.0
N413 N 0.85829 0.32142 1.00351 0.0
C414 C 0.877 0.30649 0.04026 0.0
C415 C 0.86511 0.28886 0.11747 0.0
C416 C 0.83424 0.28692 0.15629 0.0
C417 C 0.81535 0.3024 0.1172 0.0
C418 C 0.82863 0.31985 0.04051 0.0
H419 H 0.90038 0.30746 0.01012 0.0
O420 O 0.85128 0.25781 0.78601 0.0
O421 O 0.84653 0.30481 0.83296 0.0
O422 O 0.92021 0.32631 0.77399 0.0
O423 O 0.9174 0.35271 0.89369 0.0
C424 C 0.78296 0.29977 0.14955 0.0
C425 C 0.76383 0.31354 0.10374 0.0
H426 H 0.73316 0.34078 0.99527 0.0
H427 H 0.75794 0.36572 0.85538 0.0
H428 H 0.87957 0.2766 0.14677 0.0
H429 H 0.82487 0.27286 0.21532 0.0
H430 H 0.772 0.28636 0.20862 0.0
H431 H 0.73851 0.31061 0.1284 0.0
C432 C 0.23722 0.48317 0.27143 0.0
C433 C 0.20824 0.44997 0.24071 0.0
H434 H 0.28183 0.5093 0.35799 0.0
C435 C 0.20341 0.4167 0.27282 0.0
H436 H 0.24186 0.50922 0.24727 0.0
C437 C 0.22745 0.41674 0.3338 0.0
C438 C 0.25602 0.45006 0.36542 0.0
H439 H 0.18169 0.39071 0.24924 0.0
H440 H 0.22311 0.39078 0.35778 0.0
C441 C 0.26032 0.48322 0.3342 0.0
C442 C 0.78481 0.25572 0.50053 0.0
C443 C 0.81335 0.25103 0.53215 0.0
H444 H 0.74058 0.23773 0.41307 0.0
C445 C 0.81775 0.22222 0.50068 0.0
H446 H 0.7805 0.27742 0.5242 0.0
C447 C 0.79371 0.19833 0.43947 0.0
C448 C 0.76558 0.20356 0.40695 0.0
H449 H 0.83912 0.21756 0.52495 0.0
H450 H 0.79771 0.17641 0.41607 0.0
C451 C 0.76174 0.23279 0.43752 0.0
C452 C 0.60039 0.79027 0.6058 0.0
C453 C 0.56727 0.7616 0.57365 0.0
H454 H 0.6259 0.8359 0.69089 0.0
C455 C 0.53394 0.75699 0.60448 0.0
H456 H 0.62648 0.79485 0.58216 0.0
C457 C 0.53361 0.77987 0.66738 0.0
C458 C 0.56661 0.80895 0.69862 0.0
H459 H 0.508 0.73539 0.58029 0.0
H460 H 0.50744 0.77499 0.69124 0.0
C461 C 0.60006 0.8141 0.66691 0.0
C462 C 0.81715 0.5964 0.7723 0.0
C463 C 0.81221 0.56298 0.74081 0.0
H464 H 0.79765 0.62271 0.85675 0.0
C465 C 0.78324 0.52993 0.7722 0.0
H466 H 0.83885 0.62228 0.7482 0.0
C467 C 0.76026 0.53017 0.83494 0.0
C468 C 0.76465 0.56347 0.86553 0.0
H469 H 0.7785 0.50377 0.74851 0.0
H470 H 0.73875 0.50419 0.8592 0.0
C471 C 0.79322 0.59664 0.83329 0.0
C472 C 0.21366 0.789 0.89428 0.0
C473 C 0.25195 0.81094 0.90401 0.0
H474 H 0.16221 0.74966 0.94996 0.0
C475 C 0.26794 0.80925 0.97895 0.0
H476 H 0.20082 0.78942 0.83625 0.0
C477 C 0.2461 0.7858 0.04284 0.0
C478 C 0.20765 0.76395 0.03395 0.0
H479 H 0.29744 0.82534 0.98731 0.0
H480 H 0.25947 0.78481 0.09942 0.0
C481 C 0.19162 0.7661 0.95905 0.0
C482 C 0.41998 0.20016 0.16847 0.0
C483 C 0.45336 0.20536 0.2007 0.0
H484 H 0.39371 0.21941 0.08334 0.0
C485 C 0.48641 0.23459 0.17002 0.0
H486 H 0.39408 0.17824 0.19199 0.0
C487 C 0.4862 0.25755 0.10718 0.0
C488 C 0.45293 0.25286 0.07582 0.0
H489 H 0.51254 0.23952 0.19427 0.0
H490 H 0.51218 0.27924 0.08339 0.0
C491 C 0.41975 0.22406 0.10742 0.0
C492 C 0.13245 0.5396 0.1819 0.0
C493 C 0.13284 0.53894 0.0946 0.0
H494 H 0.13347 0.56888 0.29138 0.0
C495 C 0.13151 0.56724 0.05069 0.0
H496 H 0.13335 0.51828 0.21785 0.0
C497 C 0.13166 0.59638 0.09289 0.0
C498 C 0.13306 0.59795 0.18012 0.0
H499 H 0.13164 0.56766 0.98341 0.0
H500 H 0.13184 0.61823 0.05686 0.0
C501 C 0.13252 0.56872 0.22413 0.0
C502 C 0.60018 0.12874 0.34777 0.0
C503 C 0.60135 0.12962 0.26051 0.0
H504 H 0.57205 0.12959 0.45754 0.0
C505 C 0.57201 0.12898 0.21683 0.0
H506 H 0.62216 0.12906 0.38355 0.0
C507 C 0.54319 0.12934 0.25933 0.0
C508 C 0.54294 0.13029 0.3466 0.0
H509 H 0.57184 0.12952 0.14956 0.0
H510 H 0.52177 0.13012 0.22356 0.0
C511 C 0.57133 0.12904 0.39027 0.0
C512 C 0.45007 0.56717 0.55616 0.0
C513 C 0.42052 0.5387 0.51237 0.0
H514 H 0.50069 0.61822 0.54964 0.0
C515 C 0.42183 0.53893 0.42512 0.0
H516 H 0.45017 0.5679 0.62343 0.0
C517 C 0.45095 0.56787 0.38273 0.0
C518 C 0.47948 0.59736 0.42652 0.0
H519 H 0.39971 0.51744 0.38926 0.0
H520 H 0.45028 0.56771 0.31546 0.0
C521 C 0.47915 0.59614 0.51378 0.0
C522 C 0.88875 0.44519 0.55013 0.0
C523 C 0.88737 0.4735 0.59393 0.0
H524 H 0.88882 0.39439 0.55661 0.0
C525 C 0.88833 0.47323 0.68119 0.0
H526 H 0.88822 0.4445 0.48286 0.0
C527 C 0.88874 0.4444 0.72356 0.0
C528 C 0.88814 0.41508 0.67975 0.0
H529 H 0.88746 0.4946 0.71705 0.0
H530 H 0.88815 0.44451 0.79083 0.0
C531 C 0.8891 0.41634 0.59249 0.0
C532 C 0.44624 0.88277 0.715 0.0
C533 C 0.41667 0.88169 0.75864 0.0
H534 H 0.49699 0.8826 0.72178 0.0
C535 C 0.41778 0.88247 0.84593 0.0
H536 H 0.44646 0.88229 0.64772 0.0
C537 C 0.44689 0.88272 0.88845 0.0
C538 C 0.47564 0.88212 0.84483 0.0
H539 H 0.39562 0.88181 0.8817 0.0
H540 H 0.44615 0.88218 0.95572 0.0
C541 C 0.47534 0.88296 0.75754 0.0
C542 C 0.54132 0.41858 0.01443 0.0
C543 C 0.5411 0.41705 0.92722 0.0
H544 H 0.57022 0.44714 0.12384 0.0
C545 C 0.56971 0.44636 0.88315 0.0
H546 H 0.51971 0.39666 0.05048 0.0
C547 C 0.59883 0.4754 0.92529 0.0
C548 C 0.60004 0.47591 0.01254 0.0
H549 H 0.57046 0.44628 0.81589 0.0
H550 H 0.62103 0.49672 0.88927 0.0
C551 C 0.5704 0.44765 0.05656 0.0
C552 C 0.25624 0.47623 0.77164 0.0
C553 C 0.25287 0.44322 0.74389 0.0
H554 H 0.23953 0.502 0.86208 0.0
C555 C 0.22409 0.40977 0.7737 0.0
H556 H 0.27637 0.50213 0.74475 0.0
C557 C 0.19962 0.4097 0.83236 0.0
C558 C 0.2042 0.44307 0.86244 0.0
H559 H 0.22042 0.38383 0.75129 0.0
H560 H 0.17737 0.38371 0.85455 0.0
C561 C 0.23382 0.47615 0.83497 0.0
C562 C 0.79715 0.19428 0.99881 0.0
C563 C 0.76843 0.19903 0.02865 0.0
H564 H 0.84396 0.21494 0.91814 0.0
C565 C 0.76523 0.22878 1.00109 0.0
H566 H 0.80069 0.17191 0.02108 0.0
C567 C 0.78773 0.25115 0.93791 0.0
C568 C 0.81731 0.24764 0.91047 0.0
H569 H 0.74518 0.23464 0.02803 0.0
H570 H 0.78212 0.27137 0.91094 0.0
C571 C 0.82173 0.21872 0.94033 0.0
C572 C 0.54123 0.76102 0.16811 0.0
C573 C 0.57448 0.7649 0.19554 0.0
H574 H 0.51486 0.77711 0.07794 0.0
C575 C 0.60767 0.79402 0.16562 0.0
H576 H 0.51549 0.74062 0.19512 0.0
C577 C 0.60725 0.81828 0.10706 0.0
C578 C 0.57365 0.81316 0.0772 0.0
H579 H 0.63378 0.79809 0.18779 0.0
H580 H 0.63305 0.84078 0.08472 0.0
C581 C 0.54084 0.78323 0.10488 0.0
C582 C 0.82086 0.60312 0.33222 0.0
C583 C 0.81578 0.56953 0.36209 0.0
H584 H 0.80066 0.6296 0.25141 0.0
C585 C 0.78592 0.53668 0.33439 0.0
H586 H 0.84331 0.62895 0.35459 0.0
C587 C 0.76374 0.53703 0.27106 0.0
C588 C 0.76759 0.57028 0.24361 0.0
H589 H 0.77985 0.5107 0.36134 0.0
H590 H 0.7434 0.51128 0.24399 0.0
C591 C 0.79662 0.6035 0.2736 0.0
C592 C 0.19642 0.7947 0.43881 0.0
C593 C 0.20088 0.76565 0.40988 0.0
H594 H 0.21755 0.84201 0.51824 0.0
C595 C 0.23055 0.7624 0.43777 0.0
H596 H 0.17413 0.79829 0.41627 0.0
C597 C 0.25307 0.78512 0.5004 0.0
C598 C 0.2499 0.81503 0.52694 0.0
H599 H 0.23625 0.74212 0.41152 0.0
H600 H 0.27317 0.77941 0.52763 0.0
C601 C 0.22108 0.81953 0.49676 0.0
C602 C 0.47884 0.2528 0.67044 0.0
C603 C 0.44566 0.24913 0.69779 0.0
H604 H 0.50506 0.23654 0.5802 0.0
C605 C 0.4124 0.22015 0.6678 0.0
H606 H 0.50462 0.2731 0.69749 0.0
C607 C 0.41268 0.19585 0.60915 0.0
C608 C 0.44622 0.20079 0.5793 0.0
H609 H 0.38634 0.21625 0.68994 0.0
H610 H 0.38683 0.17347 0.5867 0.0
C611 C 0.47911 0.23056 0.60713 0.0
C612 C 0.02137 0.37852 0.97013 0.0
C613 C 0.04854 0.39422 0.90875 0.0
H614 H 0.96387 0.35024 0.99698 0.0
C615 C 0.03768 0.38801 0.8245 0.0
H616 H 0.02872 0.38291 0.03532 0.0
C617 C 1.00048 0.36861 0.8022 0.0
C618 C 0.97326 0.35572 0.86369 0.0
H619 H 0.05791 0.39968 0.77542 0.0
H620 H 0.99309 0.36612 0.73708 0.0
C621 C 0.98415 0.35985 0.94785 0.0
C622 C 0.63673 0.99533 0.96989 0.0
C623 C 0.62041 0.96816 0.03112 0.0
H624 H 0.66575 0.05286 0.94316 0.0
C625 C 0.62612 0.97902 0.11541 0.0
H626 H 0.63276 0.988 0.90466 0.0
C627 C 0.64574 0.01622 0.13781 0.0
C628 C 0.65936 0.04346 0.07637 0.0
H629 H 0.61397 0.95881 0.16441 0.0
H630 H 0.64789 0.02362 0.20289 0.0
C631 C 0.6556 0.03256 0.99225 0.0
C632 C 0.64976 0.63568 0.1361 0.0
C633 C 0.6616 0.62039 0.19762 0.0
H634 H 0.61995 0.66332 0.10907 0.0
C635 C 0.65711 0.62682 0.28181 0.0
H636 H 0.65259 0.6311 0.07095 0.0
C637 C 0.63897 0.64592 0.30397 0.0
C638 C 0.62421 0.6583 0.2424 0.0
H639 H 0.66597 0.61547 0.33096 0.0
H640 H 0.63415 0.64853 0.36909 0.0
C641 C 0.63092 0.65407 0.15825 0.0
C642 C 0.01871 0.64178 0.299 0.0
C643 C 0.04594 0.65572 0.36043 0.0
H644 H 0.96128 0.60998 0.27263 0.0
C645 C 0.03506 0.6526 0.44447 0.0
H646 H 0.0261 0.64351 0.234 0.0
C647 C 0.99787 0.6339 0.46689 0.0
C648 C 0.9707 0.61719 0.40584 0.0
H649 H 0.05534 0.66308 0.49355 0.0
H650 H 0.99057 0.63036 0.53214 0.0
C651 C 0.98152 0.6224 0.3215 0.0
C652 C 0.39288 0.03462 0.61626 0.0
C653 C 0.39897 0.04565 0.53211 0.0
H654 H 0.37117 0.98984 0.70323 0.0
C655 C 0.38348 0.0186 0.47047 0.0
H656 H 0.40442 0.05478 0.66553 0.0
C657 C 0.36504 0.98134 0.49236 0.0
C658 C 0.36092 0.97028 0.57641 0.0
H659 H 0.3878 0.02608 0.40534 0.0
H660 H 0.35547 0.96118 0.44299 0.0
C661 C 0.3737 0.99736 0.63819 0.0
C662 C 0.36419 0.38823 0.78265 0.0
C663 C 0.35956 0.39442 0.69839 0.0
H664 H 0.38707 0.36656 0.87015 0.0
C665 C 0.37115 0.37881 0.63704 0.0
H666 H 0.35552 0.39982 0.83169 0.0
C667 C 0.38985 0.3603 0.65939 0.0
C668 C 0.39664 0.35625 0.74357 0.0
H669 H 0.36821 0.38318 0.57184 0.0
H670 H 0.40061 0.35076 0.6103 0.0
C671 C 0.38216 0.369 0.80501 0.0
loop_
_geom_bond_atom_site_label_1
_geom_bond_atom_site_label_2
_geom_bond_distance
_geom_bond_site_symmetry_2
_ccdc_geom_bond_type
Mn0 O5 2.095 . S
Mn0 O15 2.162 . S
Mn0 O16 2.297 . S
Mn0 O24 2.385 1_554 S
Mn0 O25 2.209 1_554 S
Mn0 O26 2.094 . S
Mn1 O6 2.121 . S
Mn1 N8 2.257 . S
Mn1 N17 2.282 . S
Mn1 O25 2.215 . S
Mn1 O27 2.117 . S
C2 O24 1.234 . S
C2 O25 1.283 . S
C3 O15 1.281 . S
C3 O16 1.236 . S
C4 O26 1.240 1_556 S
C4 O27 1.264 . S
O5 Mn0 2.095 . S
O5 C14 1.250 . S
O6 Mn1 2.121 . S
O6 C14 1.258 1_556 S
C7 N8 1.326 . S
C7 C11 1.460 . S
C7 H13 0.929 . S
N8 Mn1 2.257 . S
N8 C7 1.326 . S
N8 C12 1.362 . S
C9 C10 1.258 . S
C9 C12 1.431 . S
C9 C29 1.449 . S
C10 C9 1.258 . S
C10 C11 1.477 . S
C10 H30 0.931 . S
C11 C7 1.460 . S
C11 C10 1.477 . S
C11 H31 0.930 . S
C12 N8 1.362 . S
C12 C9 1.431 . S
C12 C22 1.476 . S
H13 C7 0.929 . S
C14 O5 1.250 . S
C14 O6 1.258 1_554 S
O15 Mn0 2.162 . S
O15 C3 1.281 . S
O16 Mn0 2.297 . S
O16 C3 1.236 . S
N17 Mn1 2.282 . S
N17 C18 1.328 . S
N17 C22 1.318 . S
C18 N17 1.328 . S
C18 C19 1.457 . S
C18 H23 0.929 . S
C19 C18 1.457 . S
C19 C20 1.291 . S
C19 H32 0.931 . S
C20 C19 1.291 . S
C20 C21 1.373 . S
C20 H33 0.929 . S
C21 C20 1.373 . S
C21 C22 1.396 . S
C21 C28 1.403 . S
C22 C12 1.476 . S
C22 N17 1.318 . S
C22 C21 1.396 . S
H23 C18 0.929 . S
O24 Mn0 2.385 1_556 S
O24 C2 1.234 . S
O25 Mn0 2.209 1_556 S
O25 Mn1 2.215 . S
O25 C2 1.283 . S
O26 Mn0 2.094 . S
O26 C4 1.240 1_554 S
O27 Mn1 2.117 . S
O27 C4 1.264 . S
C28 C21 1.403 . S
C28 C29 1.399 . S
C28 H34 0.929 . S
C29 C9 1.449 . S
C29 C28 1.399 . S
C29 H35 0.930 . S
H30 C10 0.931 . S
H31 C11 0.930 . S
H32 C19 0.931 . S
H33 C20 0.929 . S
H34 C28 0.929 . S
H35 C29 0.930 . S
Mn36 O41 2.095 . S
Mn36 O51 2.162 . S
Mn36 O52 2.297 . S
Mn36 O60 2.385 . S
Mn36 O61 2.209 . S
Mn36 O62 2.094 . S
Mn37 O42 2.121 . S
Mn37 N44 2.257 1_554 S
Mn37 N53 2.282 1_554 S
Mn37 O61 2.215 . S
Mn37 O63 2.117 . S
C38 O60 1.234 . S
C38 O61 1.283 . S
C39 O51 1.281 . S
C39 O52 1.236 . S
C40 O62 1.240 . S
C40 O63 1.264 . S
O41 Mn36 2.095 . S
O41 C50 1.250 . S
O42 Mn37 2.121 . S
O42 C50 1.258 . S
C43 N44 1.327 . S
C43 C47 1.461 . S
C43 H49 0.928 1_556 S
N44 Mn37 2.257 1_556 S
N44 C43 1.327 . S
N44 C48 1.362 . S
C45 C46 1.258 . S
C45 C48 1.431 . S
C45 C65 1.449 . S
C46 C45 1.258 . S
C46 C47 1.477 . S
C46 H66 0.931 . S
C47 C43 1.461 . S
C47 C46 1.477 . S
C47 H67 0.930 . S
C48 N44 1.362 . S
C48 C45 1.431 . S
C48 C58 1.476 . S
H49 C43 0.928 1_554 S
C50 O41 1.250 . S
C50 O42 1.258 . S
O51 Mn36 2.162 . S
O51 C39 1.281 . S
O52 Mn36 2.297 . S
O52 C39 1.236 . S
N53 Mn37 2.282 1_556 S
N53 C54 1.328 . S
N53 C58 1.318 . S
C54 N53 1.328 . S
C54 C55 1.457 . S
C54 H59 0.929 . S
C55 C54 1.457 . S
C55 C56 1.291 . S
C55 H68 0.931 . S
C56 C55 1.291 . S
C56 C57 1.373 . S
C56 H69 0.929 . S
C57 C56 1.373 . S
C57 C58 1.396 . S
C57 C64 1.403 . S
C58 C48 1.476 . S
C58 N53 1.318 . S
C58 C57 1.396 . S
H59 C54 0.929 . S
O60 Mn36 2.385 . S
O60 C38 1.234 . S
O61 Mn36 2.209 . S
O61 Mn37 2.215 . S
O61 C38 1.283 . S
O62 Mn36 2.094 . S
O62 C40 1.240 . S
O63 Mn37 2.117 . S
O63 C40 1.264 . S
C64 C57 1.403 . S
C64 C65 1.399 . S
C64 H70 0.929 . S
C65 C45 1.449 . S
C65 C64 1.399 . S
C65 H71 0.930 . S
H66 C46 0.931 . S
H67 C47 0.930 . S
H68 C55 0.931 . S
H69 C56 0.929 . S
H70 C64 0.929 . S
H71 C65 0.930 . S
Mn72 O77 2.095 . S
Mn72 O87 2.162 . S
Mn72 O88 2.297 . S
Mn72 O96 2.385 . S
Mn72 O97 2.209 . S
Mn72 O98 2.094 . S
Mn73 O78 2.121 . S
Mn73 N80 2.257 . S
Mn73 N89 2.282 . S
Mn73 O97 2.215 . S
Mn73 O99 2.117 . S
C74 O96 1.234 . S
C74 O97 1.283 . S
C75 O87 1.281 . S
C75 O88 1.236 . S
C76 O98 1.240 . S
C76 O99 1.264 . S
O77 Mn72 2.095 . S
O77 C86 1.250 . S
O78 Mn73 2.121 . S
O78 C86 1.258 . S
C79 N80 1.326 . S
C79 C83 1.460 . S
C79 H85 0.929 . S
N80 Mn73 2.257 . S
N80 C79 1.326 . S
N80 C84 1.362 . S
C81 C82 1.258 . S
C81 C84 1.431 . S
C81 C101 1.449 1_554 S
C82 C81 1.258 . S
C82 C83 1.477 . S
C82 H102 0.931 1_554 S
C83 C79 1.460 . S
C83 C82 1.477 . S
C83 H103 0.930 . S
C84 N80 1.362 . S
C84 C81 1.431 . S
C84 C94 1.476 . S
H85 C79 0.929 . S
C86 O77 1.250 . S
C86 O78 1.258 . S
O87 Mn72 2.162 . S
O87 C75 1.281 . S
O88 Mn72 2.297 . S
O88 C75 1.236 . S
N89 Mn73 2.282 . S
N89 C90 1.328 . S
N89 C94 1.318 . S
C90 N89 1.328 . S
C90 C91 1.457 . S
C90 H95 0.929 . S
C91 C90 1.457 . S
C91 C92 1.291 1_554 S
C91 H104 0.931 1_554 S
C92 C91 1.291 1_556 S
C92 C93 1.373 . S
C92 H105 0.929 . S
C93 C92 1.373 . S
C93 C94 1.396 1_556 S
C93 C100 1.403 . S
C94 C84 1.476 . S
C94 N89 1.318 . S
C94 C93 1.396 1_554 S
H95 C90 0.929 . S
O96 Mn72 2.385 . S
O96 C74 1.234 . S
O97 Mn72 2.209 . S
O97 Mn73 2.215 . S
O97 C74 1.283 . S
O98 Mn72 2.094 . S
O98 C76 1.240 . S
O99 Mn73 2.117 . S
O99 C76 1.264 . S
C100 C93 1.403 . S
C100 C101 1.399 . S
C100 H106 0.929 . S
C101 C81 1.449 1_556 S
C101 C100 1.399 . S
C101 H107 0.930 . S
H102 C82 0.931 1_556 S
H103 C83 0.930 . S
H104 C91 0.931 1_556 S
H105 C92 0.929 . S
H106 C100 0.929 . S
H107 C101 0.930 . S
Mn108 O113 2.095 . S
Mn108 O123 2.162 . S
Mn108 O124 2.297 . S
Mn108 O132 2.385 . S
Mn108 O133 2.209 . S
Mn108 O134 2.094 . S
Mn109 O114 2.121 . S
Mn109 N116 2.257 . S
Mn109 N125 2.282 . S
Mn109 O133 2.215 . S
Mn109 O135 2.117 . S
C110 O132 1.234 . S
C110 O133 1.283 . S
C111 O123 1.281 . S
C111 O124 1.236 . S
C112 O134 1.240 . S
C112 O135 1.264 . S
O113 Mn108 2.095 . S
O113 C122 1.250 . S
O114 Mn109 2.121 . S
O114 C122 1.258 . S
C115 N116 1.326 . S
C115 C119 1.460 . S
C115 H121 0.929 . S
N116 Mn109 2.257 . S
N116 C115 1.326 . S
N116 C120 1.362 . S
C117 C118 1.258 . S
C117 C120 1.431 . S
C117 C137 1.449 . S
C118 C117 1.258 . S
C118 C119 1.477 . S
C118 H138 0.931 . S
C119 C115 1.460 . S
C119 C118 1.477 . S
C119 H139 0.930 . S
C120 N116 1.362 . S
C120 C117 1.431 . S
C120 C130 1.476 . S
H121 C115 0.929 . S
C122 O113 1.250 . S
C122 O114 1.258 . S
O123 Mn108 2.162 . S
O123 C111 1.281 . S
O124 Mn108 2.297 . S
O124 C111 1.236 . S
N125 Mn109 2.282 . S
N125 C126 1.328 . S
N125 C130 1.318 . S
C126 N125 1.328 . S
C126 C127 1.457 . S
C126 H131 0.929 . S
C127 C126 1.457 . S
C127 C128 1.291 . S
C127 H140 0.931 . S
C128 C127 1.291 . S
C128 C129 1.373 . S
C128 H141 0.929 . S
C129 C128 1.373 . S
C129 C130 1.396 . S
C129 C136 1.403 . S
C130 C120 1.476 . S
C130 N125 1.318 . S
C130 C129 1.396 . S
H131 C126 0.929 . S
O132 Mn108 2.385 . S
O132 C110 1.234 . S
O133 Mn108 2.209 . S
O133 Mn109 2.215 . S
O133 C110 1.283 . S
O134 Mn108 2.094 . S
O134 C112 1.240 . S
O135 Mn109 2.117 . S
O135 C112 1.264 . S
C136 C129 1.403 . S
C136 C137 1.399 . S
C136 H142 0.929 . S
C137 C117 1.449 . S
C137 C136 1.399 . S
C137 H143 0.930 . S
H138 C118 0.931 . S
H139 C119 0.930 . S
H140 C127 0.931 . S
H141 C128 0.929 . S
H142 C136 0.929 . S
H143 C137 0.930 . S
Mn144 O149 2.095 . S
Mn144 O159 2.162 . S
Mn144 O160 2.297 . S
Mn144 O168 2.385 . S
Mn144 O169 2.209 . S
Mn144 O170 2.094 . S
Mn145 O150 2.121 . S
Mn145 N152 2.257 . S
Mn145 N161 2.282 . S
Mn145 O169 2.215 . S
Mn145 O171 2.117 . S
C146 O168 1.234 . S
C146 O169 1.283 . S
C147 O159 1.281 . S
C147 O160 1.236 . S
C148 O170 1.240 . S
C148 O171 1.264 . S
O149 Mn144 2.095 . S
O149 C158 1.250 . S
O150 Mn145 2.121 . S
O150 C158 1.258 . S
C151 N152 1.326 . S
C151 C155 1.460 . S
C151 H157 0.929 . S
N152 Mn145 2.257 . S
N152 C151 1.326 . S
N152 C156 1.362 . S
C153 C154 1.258 . S
C153 C156 1.431 . S
C153 C173 1.449 . S
C154 C153 1.258 . S
C154 C155 1.477 . S
C154 H174 0.931 . S
C155 C151 1.460 . S
C155 C154 1.477 . S
C155 H175 0.930 . S
C156 N152 1.362 . S
C156 C153 1.431 . S
C156 C166 1.476 . S
H157 C151 0.929 . S
C158 O149 1.250 . S
C158 O150 1.258 . S
O159 Mn144 2.162 . S
O159 C147 1.281 . S
O160 Mn144 2.297 . S
O160 C147 1.236 . S
N161 Mn145 2.282 . S
N161 C162 1.328 . S
N161 C166 1.318 . S
C162 N161 1.328 . S
C162 C163 1.457 . S
C162 H167 0.929 . S
C163 C162 1.457 . S
C163 C164 1.291 . S
C163 H176 0.931 . S
C164 C163 1.291 . S
C164 C165 1.373 . S
C164 H177 0.929 . S
C165 C164 1.373 . S
C165 C166 1.396 . S
C165 C172 1.403 . S
C166 C156 1.476 . S
C166 N161 1.318 . S
C166 C165 1.396 . S
H167 C162 0.929 . S
O168 Mn144 2.385 . S
O168 C146 1.234 . S
O169 Mn144 2.209 . S
O169 Mn145 2.215 . S
O169 C146 1.283 . S
O170 Mn144 2.094 . S
O170 C148 1.240 . S
O171 Mn145 2.117 . S
O171 C148 1.264 . S
C172 C165 1.403 . S
C172 C173 1.399 . S
C172 H178 0.929 . S
C173 C153 1.449 . S
C173 C172 1.399 . S
C173 H179 0.930 . S
H174 C154 0.931 . S
H175 C155 0.930 . S
H176 C163 0.931 . S
H177 C164 0.929 . S
H178 C172 0.929 . S
H179 C173 0.930 . S
Mn180 O185 2.095 . S
Mn180 O195 2.150 1_556 S
Mn180 O196 2.297 . S
Mn180 O204 2.385 . S
Mn180 O205 2.209 . S
Mn180 O206 2.094 . S
Mn181 O186 2.121 . S
Mn181 N188 2.257 . S
Mn181 N197 2.282 . S
Mn181 O205 2.215 . S
Mn181 O207 2.117 . S
C182 O204 1.234 . S
C182 O205 1.283 . S
C183 O195 1.283 . S
C183 O196 1.236 1_554 S
C184 O206 1.240 . S
C184 O207 1.264 . S
O185 Mn180 2.095 . S
O185 C194 1.250 . S
O186 Mn181 2.121 . S
O186 C194 1.258 . S
C187 N188 1.326 . S
C187 C191 1.460 . S
C187 H193 0.929 . S
N188 Mn181 2.257 . S
N188 C187 1.326 . S
N188 C192 1.362 . S
C189 C190 1.258 . S
C189 C192 1.431 . S
C189 C209 1.449 . S
C190 C189 1.258 . S
C190 C191 1.477 . S
C190 H210 0.931 . S
C191 C187 1.460 . S
C191 C190 1.477 . S
C191 H211 0.930 . S
C192 N188 1.362 . S
C192 C189 1.431 . S
C192 C202 1.476 . S
H193 C187 0.929 . S
C194 O185 1.250 . S
C194 O186 1.258 . S
O195 Mn180 2.150 1_554 S
O195 C183 1.283 . S
O196 Mn180 2.297 . S
O196 C183 1.236 1_556 S
N197 Mn181 2.282 . S
N197 C198 1.328 . S
N197 C202 1.318 . S
C198 N197 1.328 . S
C198 C199 1.457 . S
C198 H203 0.929 . S
C199 C198 1.457 . S
C199 C200 1.291 . S
C199 H212 0.931 . S
C200 C199 1.291 . S
C200 C201 1.373 . S
C200 H213 0.929 . S
C201 C200 1.373 . S
C201 C202 1.396 . S
C201 C208 1.403 . S
C202 C192 1.476 . S
C202 N197 1.318 . S
C202 C201 1.396 . S
H203 C198 0.929 . S
O204 Mn180 2.385 . S
O204 C182 1.234 . S
O205 Mn180 2.209 . S
O205 Mn181 2.215 . S
O205 C182 1.283 . S
O206 Mn180 2.094 . S
O206 C184 1.240 . S
O207 Mn181 2.117 . S
O207 C184 1.264 . S
C208 C201 1.403 . S
C208 C209 1.399 . S
C208 H214 0.929 . S
C209 C189 1.449 . S
C209 C208 1.399 . S
C209 H215 0.930 . S
H210 C190 0.931 . S
H211 C191 0.930 . S
H212 C199 0.931 . S
H213 C200 0.929 . S
H214 C208 0.929 . S
H215 C209 0.930 . S
Mn216 O221 2.095 . S
Mn216 O231 2.162 . S
Mn216 O232 2.297 . S
Mn216 O240 2.385 . S
Mn216 O241 2.209 . S
Mn216 O242 2.094 . S
Mn217 O222 2.121 1_554 S
Mn217 N224 2.257 . S
Mn217 N233 2.282 . S
Mn217 O241 2.215 1_554 S
Mn217 O243 2.117 . S
C218 O240 1.234 1_554 S
C218 O241 1.283 1_554 S
C219 O231 1.281 . S
C219 O232 1.236 . S
C220 O242 1.240 . S
C220 O243 1.264 1_556 S
O221 Mn216 2.095 . S
O221 C230 1.250 . S
O222 Mn217 2.121 1_556 S
O222 C230 1.258 . S
C223 N224 1.326 . S
C223 C227 1.460 . S
C223 H229 0.929 . S
N224 Mn217 2.257 . S
N224 C223 1.326 . S
N224 C228 1.362 . S
C225 C226 1.258 . S
C225 C228 1.431 . S
C225 C245 1.449 . S
C226 C225 1.258 . S
C226 C227 1.477 . S
C226 H246 0.931 . S
C227 C223 1.460 . S
C227 C226 1.477 . S
C227 H247 0.930 . S
C228 N224 1.362 . S
C228 C225 1.431 . S
C228 C238 1.476 . S
H229 C223 0.929 . S
C230 O221 1.250 . S
C230 O222 1.258 . S
O231 Mn216 2.162 . S
O231 C219 1.281 . S
O232 Mn216 2.297 . S
O232 C219 1.236 . S
N233 Mn217 2.282 . S
N233 C234 1.328 . S
N233 C238 1.318 . S
C234 N233 1.328 . S
C234 C235 1.457 . S
C234 H239 0.929 . S
C235 C234 1.457 . S
C235 C236 1.291 . S
C235 H248 0.931 . S
C236 C235 1.291 . S
C236 C237 1.373 . S
C236 H249 0.929 . S
C237 C236 1.373 . S
C237 C238 1.396 . S
C237 C244 1.403 . S
C238 C228 1.476 . S
C238 N233 1.318 . S
C238 C237 1.396 . S
H239 C234 0.929 . S
O240 Mn216 2.385 . S
O240 C218 1.234 1_556 S
O241 Mn216 2.209 . S
O241 Mn217 2.215 1_556 S
O241 C218 1.283 1_556 S
O242 Mn216 2.094 . S
O242 C220 1.240 . S
O243 Mn217 2.117 . S
O243 C220 1.264 1_554 S
C244 C237 1.403 . S
C244 C245 1.399 . S
C244 H250 0.929 . S
C245 C225 1.449 . S
C245 C244 1.399 . S
C245 H251 0.930 . S
H246 C226 0.931 . S
H247 C227 0.930 . S
H248 C235 0.931 . S
H249 C236 0.929 . S
H250 C244 0.929 . S
H251 C245 0.930 . S
Mn252 O257 2.095 . S
Mn252 O267 2.162 1_554 S
Mn252 O268 2.297 1_554 S
Mn252 O276 2.385 . S
Mn252 O277 2.209 . S
Mn252 O278 2.094 . S
Mn253 O258 2.121 . S
Mn253 N260 2.257 . S
Mn253 N269 2.282 . S
Mn253 O277 2.215 . S
Mn253 O279 2.117 . S
C254 O276 1.234 . S
C254 O277 1.283 . S
C255 O267 1.281 . S
C255 O268 1.236 . S
C256 O278 1.240 . S
C256 O279 1.264 . S
O257 Mn252 2.095 . S
O257 C266 1.250 . S
O258 Mn253 2.121 . S
O258 C266 1.258 . S
C259 N260 1.326 . S
C259 C263 1.460 . S
C259 H265 0.929 . S
N260 Mn253 2.257 . S
N260 C259 1.326 . S
N260 C264 1.362 . S
C261 C262 1.258 . S
C261 C264 1.431 . S
C261 C281 1.449 . S
C262 C261 1.258 . S
C262 C263 1.477 . S
C262 H282 0.931 . S
C263 C259 1.460 . S
C263 C262 1.477 . S
C263 H283 0.930 . S
C264 N260 1.362 . S
C264 C261 1.431 . S
C264 C274 1.476 . S
H265 C259 0.929 . S
C266 O257 1.250 . S
C266 O258 1.258 . S
O267 Mn252 2.162 1_556 S
O267 C255 1.281 . S
O268 Mn252 2.297 1_556 S
O268 C255 1.236 . S
N269 Mn253 2.282 . S
N269 C270 1.328 . S
N269 C274 1.318 . S
C270 N269 1.328 . S
C270 C271 1.457 . S
C270 H275 0.929 . S
C271 C270 1.457 . S
C271 C272 1.291 . S
C271 H284 0.931 . S
C272 C271 1.291 . S
C272 C273 1.373 . S
C272 H285 0.929 . S
C273 C272 1.373 . S
C273 C274 1.396 . S
C273 C280 1.403 . S
C274 C264 1.476 . S
C274 N269 1.318 . S
C274 C273 1.396 . S
H275 C270 0.929 . S
O276 Mn252 2.385 . S
O276 C254 1.234 . S
O277 Mn252 2.209 . S
O277 Mn253 2.215 . S
O277 C254 1.283 . S
O278 Mn252 2.094 . S
O278 C256 1.240 . S
O279 Mn253 2.117 . S
O279 C256 1.264 . S
C280 C273 1.403 . S
C280 C281 1.399 . S
C280 H286 0.929 . S
C281 C261 1.449 . S
C281 C280 1.399 . S
C281 H287 0.930 . S
H282 C262 0.931 . S
H283 C263 0.930 . S
H284 C271 0.931 . S
H285 C272 0.929 . S
H286 C280 0.929 . S
H287 C281 0.930 . S
Mn288 O293 2.095 . S
Mn288 O303 2.162 . S
Mn288 O304 2.297 . S
Mn288 O312 2.385 . S
Mn288 O313 2.209 . S
Mn288 O314 2.094 . S
Mn289 O294 2.121 . S
Mn289 N296 2.257 . S
Mn289 N305 2.282 . S
Mn289 O313 2.215 . S
Mn289 O315 2.117 . S
C290 O312 1.234 . S
C290 O313 1.283 . S
C291 O303 1.281 . S
C291 O304 1.236 . S
C292 O314 1.240 . S
C292 O315 1.264 . S
O293 Mn288 2.095 . S
O293 C302 1.250 . S
O294 Mn289 2.121 . S
O294 C302 1.258 . S
C295 N296 1.326 . S
C295 C299 1.460 . S
C295 H301 0.929 . S
N296 Mn289 2.257 . S
N296 C295 1.326 . S
N296 C300 1.362 . S
C297 C298 1.258 . S
C297 C300 1.431 . S
C297 C317 1.449 . S
C298 C297 1.258 . S
C298 C299 1.477 . S
C298 H318 0.931 . S
C299 C295 1.460 . S
C299 C298 1.477 . S
C299 H319 0.930 . S
C300 N296 1.362 . S
C300 C297 1.431 . S
C300 C310 1.476 . S
H301 C295 0.929 . S
C302 O293 1.250 . S
C302 O294 1.258 . S
O303 Mn288 2.162 . S
O303 C291 1.281 . S
O304 Mn288 2.297 . S
O304 C291 1.236 . S
N305 Mn289 2.282 . S
N305 C306 1.328 . S
N305 C310 1.318 . S
C306 N305 1.328 . S
C306 C307 1.457 . S
C306 H311 0.929 . S
C307 C306 1.457 . S
C307 C308 1.291 . S
C307 H320 0.931 . S
C308 C307 1.291 . S
C308 C309 1.373 . S
C308 H321 0.929 . S
C309 C308 1.373 . S
C309 C310 1.396 . S
C309 C316 1.403 . S
C310 C300 1.476 . S
C310 N305 1.318 . S
C310 C309 1.396 . S
H311 C306 0.929 . S
O312 Mn288 2.385 . S
O312 C290 1.234 . S
O313 Mn288 2.209 . S
O313 Mn289 2.215 . S
O313 C290 1.283 . S
O314 Mn288 2.094 . S
O314 C292 1.240 . S
O315 Mn289 2.117 . S
O315 C292 1.264 . S
C316 C309 1.403 . S
C316 C317 1.399 . S
C316 H322 0.929 . S
C317 C297 1.449 . S
C317 C316 1.399 . S
C317 H323 0.930 . S
H318 C298 0.931 . S
H319 C299 0.930 . S
H320 C307 0.931 . S
H321 C308 0.929 . S
H322 C316 0.929 . S
H323 C317 0.930 . S
Mn324 O329 2.095 . S
Mn324 O339 2.162 . S
Mn324 O340 2.297 . S
Mn324 O348 2.385 . S
Mn324 O349 2.209 . S
Mn324 O350 2.094 . S
Mn325 O330 2.121 . S
Mn325 N332 2.257 . S
Mn325 N341 2.282 . S
Mn325 O349 2.215 . S
Mn325 O351 2.117 . S
C326 O348 1.234 . S
C326 O349 1.283 . S
C327 O339 1.281 . S
C327 O340 1.236 . S
C328 O350 1.240 . S
C328 O351 1.264 . S
O329 Mn324 2.095 . S
O329 C338 1.250 . S
O330 Mn325 2.121 . S
O330 C338 1.258 . S
C331 N332 1.326 . S
C331 C335 1.460 . S
C331 H337 0.929 . S
N332 Mn325 2.257 . S
N332 C331 1.326 . S
N332 C336 1.362 . S
C333 C334 1.258 . S
C333 C336 1.431 . S
C333 C353 1.449 . S
C334 C333 1.258 . S
C334 C335 1.477 . S
C334 H354 0.931 . S
C335 C331 1.460 . S
C335 C334 1.477 . S
C335 H355 0.930 . S
C336 N332 1.362 . S
C336 C333 1.431 . S
C336 C346 1.476 . S
H337 C331 0.929 . S
C338 O329 1.250 . S
C338 O330 1.258 . S
O339 Mn324 2.162 . S
O339 C327 1.281 . S
O340 Mn324 2.297 . S
O340 C327 1.236 . S
N341 Mn325 2.282 . S
N341 C342 1.328 . S
N341 C346 1.318 . S
C342 N341 1.328 . S
C342 C343 1.457 . S
C342 H347 0.929 . S
C343 C342 1.457 . S
C343 C344 1.291 . S
C343 H356 0.931 . S
C344 C343 1.291 . S
C344 C345 1.373 . S
C344 H357 0.929 . S
C345 C344 1.373 . S
C345 C346 1.396 . S
C345 C352 1.403 . S
C346 C336 1.476 . S
C346 N341 1.318 . S
C346 C345 1.396 . S
H347 C342 0.929 . S
O348 Mn324 2.385 . S
O348 C326 1.234 . S
O349 Mn324 2.209 . S
O349 Mn325 2.215 . S
O349 C326 1.283 . S
O350 Mn324 2.094 . S
O350 C328 1.240 . S
O351 Mn325 2.117 . S
O351 C328 1.264 . S
C352 C345 1.403 . S
C352 C353 1.399 . S
C352 H358 0.929 . S
C353 C333 1.449 . S
C353 C352 1.399 . S
C353 H359 0.930 . S
H354 C334 0.931 . S
H355 C335 0.930 . S
H356 C343 0.931 . S
H357 C344 0.929 . S
H358 C352 0.929 . S
H359 C353 0.930 . S
Mn360 O365 2.095 . S
Mn360 O375 2.162 . S
Mn360 O376 2.297 . S
Mn360 O384 2.385 . S
Mn360 O385 2.209 . S
Mn360 O386 2.094 . S
Mn361 O366 2.121 . S
Mn361 N368 2.257 . S
Mn361 N377 2.282 . S
Mn361 O385 2.215 . S
Mn361 O387 2.117 . S
C362 O384 1.234 . S
C362 O385 1.283 . S
C363 O375 1.281 . S
C363 O376 1.236 . S
C364 O386 1.240 . S
C364 O387 1.264 . S
O365 Mn360 2.095 . S
O365 C374 1.250 . S
O366 Mn361 2.121 . S
O366 C374 1.258 . S
C367 N368 1.326 . S
C367 C371 1.460 . S
C367 H373 0.929 . S
N368 Mn361 2.257 . S
N368 C367 1.326 . S
N368 C372 1.362 . S
C369 C370 1.258 . S
C369 C372 1.431 . S
C369 C389 1.449 . S
C370 C369 1.258 . S
C370 C371 1.477 . S
C370 H390 0.931 . S
C371 C367 1.460 . S
C371 C370 1.477 . S
C371 H391 0.930 . S
C372 N368 1.362 . S
C372 C369 1.431 . S
C372 C382 1.476 . S
H373 C367 0.929 . S
C374 O365 1.250 . S
C374 O366 1.258 . S
O375 Mn360 2.162 . S
O375 C363 1.281 . S
O376 Mn360 2.297 . S
O376 C363 1.236 . S
N377 Mn361 2.282 . S
N377 C378 1.328 . S
N377 C382 1.318 . S
C378 N377 1.328 . S
C378 C379 1.457 . S
C378 H383 0.929 . S
C379 C378 1.457 . S
C379 C380 1.291 . S
C379 H392 0.931 . S
C380 C379 1.291 . S
C380 C381 1.373 . S
C380 H393 0.929 1_556 S
C381 C380 1.373 . S
C381 C382 1.396 . S
C381 C388 1.403 1_556 S
C382 C372 1.476 . S
C382 N377 1.318 . S
C382 C381 1.396 . S
H383 C378 0.929 . S
O384 Mn360 2.385 . S
O384 C362 1.234 . S
O385 Mn360 2.209 . S
O385 Mn361 2.215 . S
O385 C362 1.283 . S
O386 Mn360 2.094 . S
O386 C364 1.240 . S
O387 Mn361 2.117 . S
O387 C364 1.264 . S
C388 C381 1.403 1_554 S
C388 C389 1.399 1_554 S
C388 H394 0.929 . S
C389 C369 1.449 . S
C389 C388 1.399 1_556 S
C389 H395 0.930 1_556 S
H390 C370 0.931 . S
H391 C371 0.930 . S
H392 C379 0.931 . S
H393 C380 0.929 1_554 S
H394 C388 0.929 . S
H395 C389 0.930 1_554 S
Mn396 O401 2.095 . S
Mn396 O411 2.162 . S
Mn396 O412 2.297 . S
Mn396 O420 2.385 . S
Mn396 O421 2.209 . S
Mn396 O422 2.094 . S
Mn397 O402 2.121 . S
Mn397 N404 2.257 . S
Mn397 N413 2.282 . S
Mn397 O421 2.215 . S
Mn397 O423 2.117 . S
C398 O420 1.234 . S
C398 O421 1.283 . S
C399 O411 1.281 . S
C399 O412 1.236 . S
C400 O422 1.240 . S
C400 O423 1.264 . S
O401 Mn396 2.095 . S
O401 C410 1.250 . S
O402 Mn397 2.121 . S
O402 C410 1.258 . S
C403 N404 1.326 . S
C403 C407 1.460 . S
C403 H409 0.929 . S
N404 Mn397 2.257 . S
N404 C403 1.326 . S
N404 C408 1.362 1_556 S
C405 C406 1.258 . S
C405 C408 1.431 . S
C405 C425 1.449 . S
C406 C405 1.258 . S
C406 C407 1.477 1_554 S
C406 H426 0.931 . S
C407 C403 1.460 . S
C407 C406 1.477 1_556 S
C407 H427 0.930 . S
C408 N404 1.362 1_554 S
C408 C405 1.431 . S
C408 C418 1.476 . S
H409 C403 0.929 . S
C410 O401 1.250 . S
C410 O402 1.258 . S
O411 Mn396 2.162 . S
O411 C399 1.281 . S
O412 Mn396 2.297 . S
O412 C399 1.236 . S
N413 Mn397 2.282 . S
N413 C414 1.328 1_556 S
N413 C418 1.318 1_556 S
C414 N413 1.328 1_554 S
C414 C415 1.457 . S
C414 H419 0.929 1_554 S
C415 C414 1.457 . S
C415 C416 1.291 . S
C415 H428 0.931 . S
C416 C415 1.291 . S
C416 C417 1.373 . S
C416 H429 0.929 . S
C417 C416 1.373 . S
C417 C418 1.396 . S
C417 C424 1.403 . S
C418 C408 1.476 . S
C418 N413 1.318 1_554 S
C418 C417 1.396 . S
H419 C414 0.929 1_556 S
O420 Mn396 2.385 . S
O420 C398 1.234 . S
O421 Mn396 2.209 . S
O421 Mn397 2.215 . S
O421 C398 1.283 . S
O422 Mn396 2.094 . S
O422 C400 1.240 . S
O423 Mn397 2.117 . S
O423 C400 1.264 . S
C424 C417 1.403 . S
C424 C425 1.399 . S
C424 H430 0.929 . S
C425 C405 1.449 . S
C425 C424 1.399 . S
C425 H431 0.930 . S
H426 C406 0.931 . S
H427 C407 0.930 . S
H428 C415 0.931 . S
H429 C416 0.929 . S
H430 C424 0.929 . S
H431 C425 0.930 . S
C432 C433 1.387 . S
C432 H436 0.950 . S
C432 C441 1.390 . S
C433 C432 1.387 . S
C433 C435 1.387 . S
H434 C441 0.950 . S
C435 C433 1.387 . S
C435 C437 1.390 . S
C435 H439 0.950 . S
H436 C432 0.950 . S
C437 C435 1.390 . S
C437 C438 1.387 . S
C437 H440 0.950 . S
C438 C437 1.387 . S
C438 C441 1.387 . S
H439 C435 0.950 . S
H440 C437 0.950 . S
C441 C432 1.390 . S
C441 H434 0.950 . S
C441 C438 1.387 . S
C442 C443 1.387 . S
C442 H446 0.950 . S
C442 C451 1.390 . S
C443 C442 1.387 . S
C443 C445 1.387 . S
H444 C451 0.950 . S
C445 C443 1.387 . S
C445 C447 1.390 . S
C445 H449 0.950 . S
H446 C442 0.950 . S
C447 C445 1.390 . S
C447 C448 1.387 . S
C447 H450 0.950 . S
C448 C447 1.387 . S
C448 C451 1.387 . S
H449 C445 0.950 . S
H450 C447 0.950 . S
C451 C442 1.390 . S
C451 H444 0.950 . S
C451 C448 1.387 . S
C452 C453 1.387 . S
C452 H456 0.950 . S
C452 C461 1.390 . S
C453 C452 1.387 . S
C453 C455 1.387 . S
H454 C461 0.950 . S
C455 C453 1.387 . S
C455 C457 1.390 . S
C455 H459 0.950 . S
H456 C452 0.950 . S
C457 C455 1.390 . S
C457 C458 1.387 . S
C457 H460 0.950 . S
C458 C457 1.387 . S
C458 C461 1.387 . S
H459 C455 0.950 . S
H460 C457 0.950 . S
C461 C452 1.390 . S
C461 H454 0.950 . S
C461 C458 1.387 . S
C462 C463 1.387 . S
C462 H466 0.950 . S
C462 C471 1.390 . S
C463 C462 1.387 . S
C463 C465 1.387 . S
H464 C471 0.950 . S
C465 C463 1.387 . S
C465 C467 1.390 . S
C465 H469 0.950 . S
H466 C462 0.950 . S
C467 C465 1.390 . S
C467 C468 1.387 . S
C467 H470 0.950 . S
C468 C467 1.387 . S
C468 C471 1.387 . S
H469 C465 0.950 . S
H470 C467 0.950 . S
C471 C462 1.390 . S
C471 H464 0.950 . S
C471 C468 1.387 . S
C472 C473 1.387 . S
C472 H476 0.950 . S
C472 C481 1.390 . S
C473 C472 1.387 . S
C473 C475 1.387 . S
H474 C481 0.950 . S
C475 C473 1.387 . S
C475 C477 1.390 1_556 S
C475 H479 0.950 . S
H476 C472 0.950 . S
C477 C475 1.390 1_554 S
C477 C478 1.387 . S
C477 H480 0.950 . S
C478 C477 1.387 . S
C478 C481 1.387 1_554 S
H479 C475 0.950 . S
H480 C477 0.950 . S
C481 C472 1.390 . S
C481 H474 0.950 . S
C481 C478 1.387 1_556 S
C482 C483 1.387 . S
C482 H486 0.950 . S
C482 C491 1.390 . S
C483 C482 1.387 . S
C483 C485 1.387 . S
H484 C491 0.950 . S
C485 C483 1.387 . S
C485 C487 1.390 . S
C485 H489 0.950 . S
H486 C482 0.950 . S
C487 C485 1.390 . S
C487 C488 1.387 . S
C487 H490 0.950 . S
C488 C487 1.387 . S
C488 C491 1.387 . S
H489 C485 0.950 . S
H490 C487 0.950 . S
C491 C482 1.390 . S
C491 H484 0.950 . S
C491 C488 1.387 . S
C492 C493 1.387 . S
C492 H496 0.950 . S
C492 C501 1.390 . S
C493 C492 1.387 . S
C493 C495 1.387 . S
H494 C501 0.950 . S
C495 C493 1.387 . S
C495 C497 1.390 . S
C495 H499 0.950 1_554 S
H496 C492 0.950 . S
C497 C495 1.390 . S
C497 C498 1.387 . S
C497 H500 0.950 . S
C498 C497 1.387 . S
C498 C501 1.387 . S
H499 C495 0.950 1_556 S
H500 C497 0.950 . S
C501 C492 1.390 . S
C501 H494 0.950 . S
C501 C498 1.387 . S
C502 C503 1.387 . S
C502 H506 0.950 . S
C502 C511 1.390 . S
C503 C502 1.387 . S
C503 C505 1.387 . S
H504 C511 0.950 . S
C505 C503 1.387 . S
C505 C507 1.390 . S
C505 H509 0.950 . S
H506 C502 0.950 . S
C507 C505 1.390 . S
C507 C508 1.387 . S
C507 H510 0.950 . S
C508 C507 1.387 . S
C508 C511 1.387 . S
H509 C505 0.950 . S
H510 C507 0.950 . S
C511 C502 1.390 . S
C511 H504 0.950 . S
C511 C508 1.387 . S
C512 C513 1.387 . S
C512 H516 0.950 . S
C512 C521 1.390 . S
C513 C512 1.387 . S
C513 C515 1.387 . S
H514 C521 0.950 . S
C515 C513 1.387 . S
C515 C517 1.390 . S
C515 H519 0.950 . S
H516 C512 0.950 . S
C517 C515 1.390 . S
C517 C518 1.387 . S
C517 H520 0.950 . S
C518 C517 1.387 . S
C518 C521 1.387 . S
H519 C515 0.950 . S
H520 C517 0.950 . S
C521 C512 1.390 . S
C521 H514 0.950 . S
C521 C518 1.387 . S
C522 C523 1.387 . S
C522 H526 0.950 . S
C522 C531 1.390 . S
C523 C522 1.387 . S
C523 C525 1.387 . S
H524 C531 0.950 . S
C525 C523 1.387 . S
C525 C527 1.390 . S
C525 H529 0.950 . S
H526 C522 0.950 . S
C527 C525 1.390 . S
C527 C528 1.387 . S
C527 H530 0.950 . S
C528 C527 1.387 . S
C528 C531 1.387 . S
H529 C525 0.950 . S
H530 C527 0.950 . S
C531 C522 1.390 . S
C531 H524 0.950 . S
C531 C528 1.387 . S
C532 C533 1.387 . S
C532 H536 0.950 . S
C532 C541 1.390 . S
C533 C532 1.387 . S
C533 C535 1.387 . S
H534 C541 0.950 . S
C535 C533 1.387 . S
C535 C537 1.390 . S
C535 H539 0.950 . S
H536 C532 0.950 . S
C537 C535 1.390 . S
C537 C538 1.387 . S
C537 H540 0.950 . S
C538 C537 1.387 . S
C538 C541 1.387 . S
H539 C535 0.950 . S
H540 C537 0.950 . S
C541 C532 1.390 . S
C541 H534 0.950 . S
C541 C538 1.387 . S
C542 C543 1.387 1_554 S
C542 H546 0.950 . S
C542 C551 1.390 . S
C543 C542 1.387 1_556 S
C543 C545 1.387 . S
H544 C551 0.950 . S
C545 C543 1.387 . S
C545 C547 1.390 . S
C545 H549 0.950 . S
H546 C542 0.950 . S
C547 C545 1.390 . S
C547 C548 1.387 . S
C547 H550 0.950 . S
C548 C547 1.387 . S
C548 C551 1.387 1_556 S
H549 C545 0.950 . S
H550 C547 0.950 . S
C551 C542 1.390 . S
C551 H544 0.950 . S
C551 C548 1.387 1_554 S
C552 C553 1.387 . S
C552 H556 0.950 . S
C552 C561 1.390 . S
C553 C552 1.387 . S
C553 C555 1.387 . S
H554 C561 0.950 . S
C555 C553 1.387 . S
C555 C557 1.390 . S
C555 H559 0.950 . S
H556 C552 0.950 . S
C557 C555 1.390 . S
C557 C558 1.387 . S
C557 H560 0.950 . S
C558 C557 1.387 . S
C558 C561 1.387 . S
H559 C555 0.950 . S
H560 C557 0.950 . S
C561 C552 1.390 . S
C561 H554 0.950 . S
C561 C558 1.387 . S
C562 C563 1.387 1_556 S
C562 H566 0.950 . S
C562 C571 1.390 . S
C563 C562 1.387 1_554 S
C563 C565 1.387 . S
H564 C571 0.950 . S
C565 C563 1.387 . S
C565 C567 1.390 1_554 S
C565 H569 0.950 . S
H566 C562 0.950 . S
C567 C565 1.390 1_556 S
C567 C568 1.387 . S
C567 H570 0.950 . S
C568 C567 1.387 . S
C568 C571 1.387 . S
H569 C565 0.950 . S
H570 C567 0.950 . S
C571 C562 1.390 . S
C571 H564 0.950 . S
C571 C568 1.387 . S
C572 C573 1.387 . S
C572 H576 0.950 . S
C572 C581 1.390 . S
C573 C572 1.387 . S
C573 C575 1.387 . S
H574 C581 0.950 . S
C575 C573 1.387 . S
C575 C577 1.390 . S
C575 H579 0.950 . S
H576 C572 0.950 . S
C577 C575 1.390 . S
C577 C578 1.387 . S
C577 H580 0.950 . S
C578 C577 1.387 . S
C578 C581 1.387 . S
H579 C575 0.950 . S
H580 C577 0.950 . S
C581 C572 1.390 . S
C581 H574 0.950 . S
C581 C578 1.387 . S
C582 C583 1.387 . S
C582 H586 0.950 . S
C582 C591 1.390 . S
C583 C582 1.387 . S
C583 C585 1.387 . S
H584 C591 0.950 . S
C585 C583 1.387 . S
C585 C587 1.390 . S
C585 H589 0.950 . S
H586 C582 0.950 . S
C587 C585 1.390 . S
C587 C588 1.387 . S
C587 H590 0.950 . S
C588 C587 1.387 . S
C588 C591 1.387 . S
H589 C585 0.950 . S
H590 C587 0.950 . S
C591 C582 1.390 . S
C591 H584 0.950 . S
C591 C588 1.387 . S
C592 C593 1.387 . S
C592 H596 0.950 . S
C592 C601 1.390 . S
C593 C592 1.387 . S
C593 C595 1.387 . S
H594 C601 0.950 . S
C595 C593 1.387 . S
C595 C597 1.390 . S
C595 H599 0.950 . S
H596 C592 0.950 . S
C597 C595 1.390 . S
C597 C598 1.387 . S
C597 H600 0.950 . S
C598 C597 1.387 . S
C598 C601 1.387 . S
H599 C595 0.950 . S
H600 C597 0.950 . S
C601 C592 1.390 . S
C601 H594 0.950 . S
C601 C598 1.387 . S
C602 C603 1.387 . S
C602 H606 0.950 . S
C602 C611 1.390 . S
C603 C602 1.387 . S
C603 C605 1.387 . S
H604 C611 0.950 . S
C605 C603 1.387 . S
C605 C607 1.390 . S
C605 H609 0.950 . S
H606 C602 0.950 . S
C607 C605 1.390 . S
C607 C608 1.387 . S
C607 H610 0.950 . S
C608 C607 1.387 . S
C608 C611 1.387 . S
H609 C605 0.950 . S
H610 C607 0.950 . S
C611 C602 1.390 . S
C611 H604 0.950 . S
C611 C608 1.387 . S
C612 C613 1.387 1_655 S
C612 H616 0.950 1_556 S
C612 C621 1.390 . S
C613 C612 1.387 1_455 S
C613 C615 1.387 . S
H614 C621 0.950 . S
C615 C613 1.387 . S
C615 C617 1.390 . S
C615 H619 0.950 . S
H616 C612 0.950 1_554 S
C617 C615 1.390 . S
C617 C618 1.387 1_455 S
C617 H620 0.950 . S
C618 C617 1.387 1_655 S
C618 C621 1.387 . S
H619 C615 0.950 . S
H620 C617 0.950 . S
C621 C612 1.390 . S
C621 H614 0.950 . S
C621 C618 1.387 . S
C622 C623 1.387 1_554 S
C622 H626 0.950 . S
C622 C631 1.390 1_565 S
C623 C622 1.387 1_556 S
C623 C625 1.387 1_556 S
H624 C631 0.950 . S
C625 C623 1.387 1_554 S
C625 C627 1.390 1_565 S
C625 H629 0.950 . S
H626 C622 0.950 . S
C627 C625 1.390 1_545 S
C627 C628 1.387 . S
C627 H630 0.950 . S
C628 C627 1.387 . S
C628 C631 1.387 . S
H629 C625 0.950 . S
H630 C627 0.950 . S
C631 C622 1.390 1_545 S
C631 H624 0.950 . S
C631 C628 1.387 . S
C632 C633 1.387 . S
C632 H636 0.950 . S
C632 C641 1.390 . S
C633 C632 1.387 . S
C633 C635 1.387 . S
H634 C641 0.950 . S
C635 C633 1.387 . S
C635 C637 1.390 . S
C635 H639 0.950 . S
H636 C632 0.950 . S
C637 C635 1.390 . S
C637 C638 1.387 . S
C637 H640 0.950 . S
C638 C637 1.387 . S
C638 C641 1.387 . S
H639 C635 0.950 . S
H640 C637 0.950 . S
C641 C632 1.390 . S
C641 H634 0.950 . S
C641 C638 1.387 . S
C642 C643 1.387 1_655 S
C642 H646 0.950 . S
C642 C651 1.390 . S
C643 C642 1.387 1_455 S
C643 C645 1.387 . S
H644 C651 0.950 . S
C645 C643 1.387 . S
C645 C647 1.390 . S
C645 H649 0.950 . S
H646 C642 0.950 . S
C647 C645 1.390 . S
C647 C648 1.387 1_455 S
C647 H650 0.950 . S
C648 C647 1.387 1_655 S
C648 C651 1.387 . S
H649 C645 0.950 . S
H650 C647 0.950 . S
C651 C642 1.390 . S
C651 H644 0.950 . S
C651 C648 1.387 . S
C652 C653 1.387 . S
C652 H656 0.950 . S
C652 C661 1.390 1_545 S
C653 C652 1.387 . S
C653 C655 1.387 . S
H654 C661 0.950 . S
C655 C653 1.387 . S
C655 C657 1.390 1_545 S
C655 H659 0.950 . S
H656 C652 0.950 . S
C657 C655 1.390 1_565 S
C657 C658 1.387 . S
C657 H660 0.950 . S
C658 C657 1.387 . S
C658 C661 1.387 . S
H659 C655 0.950 . S
H660 C657 0.950 . S
C661 C652 1.390 1_565 S
C661 H654 0.950 . S
C661 C658 1.387 . S
C662 C663 1.387 . S
C662 H666 0.950 . S
C662 C671 1.390 . S
C663 C662 1.387 . S
C663 C665 1.387 . S
H664 C671 0.950 . S
C665 C663 1.387 . S
C665 C667 1.390 . S
C665 H669 0.950 . S
H666 C662 0.950 . S
C667 C665 1.390 . S
C667 C668 1.387 . S
C667 H670 0.950 . S
C668 C667 1.387 . S
C668 C671 1.387 . S
H669 C665 0.950 . S
H670 C667 0.950 . S
C671 C662 1.390 . S
C671 H664 0.950 . S
C671 C668 1.387 . S
C433 C3 1.335 . S
C438 C363 1.335 . S
C443 C399 1.334 . S
C448 C39 1.335 . S
C453 C75 1.335 . S
C458 C219 1.335 . S
C463 C111 1.335 . S
C468 C255 1.335 . S
C473 C147 1.335 . S
C478 C291 1.334 . S
C483 C327 1.335 . S
C488 C183 1.335 . S
C493 C14 1.535 . S
C498 C302 1.536 . S
C503 C50 1.534 . S
C508 C338 1.534 . S
C513 C374 1.536 . S
C518 C86 1.535 . S
C523 C122 1.537 . S
C528 C410 1.536 . S
C533 C158 1.534 . S
C538 C230 1.534 . S
C543 C194 1.535 . S
C548 C266 1.536 1_556 S
C553 C362 1.489 . S
C558 C2 1.489 . S
C563 C38 1.488 . S
C568 C398 1.489 . S
C573 C74 1.489 . S
C578 C218 1.489 . S
C583 C110 1.489 . S
C588 C254 1.489 . S
C593 C290 1.489 . S
C598 C146 1.488 . S
C603 C182 1.489 . S
C608 C326 1.488 . S
C613 C4 1.401 . S
C618 C400 1.399 . S
C623 C220 1.399 . S
C628 C40 1.399 . S
C633 C256 1.400 . S
C638 C76 1.399 . S
C643 C292 1.401 . S
C648 C112 1.400 . S
C653 C328 1.399 . S
C658 C148 1.399 . S
C663 C364 1.401 . S
C668 C184 1.402 . S
