# Generated by pormake.
# Topology smi, (6)-cn, num edge types: 1
# Building blocks:
#     Node 0, Type 0, BuildingBlock: IZENUY_clean_sbu_0, # of connection points: 6
#     Node 1, Type 0, BuildingBlock: IZENUY_clean_sbu_0, # of connection points: 6
#     Node 2, Type 0, BuildingBlock: IZENUY_clean_sbu_0, # of connection points: 6
#     Node 3, Type 0, BuildingBlock: IZENUY_clean_sbu_0, # of connection points: 6
#     Node 4, Type 0, BuildingBlock: IZENUY_clean_sbu_0, # of connection points: 6
#     Node 5, Type 0, BuildingBlock: IZENUY_clean_sbu_0, # of connection points: 6
#     Edge 6, Type (0, 0), BuildingBlock: XIVTED_clean_linker_0, # of connection points: 2
#     Edge 7, Type (0, 0), BuildingBlock: XIVTED_clean_linker_0, # of connection points: 2
#     Edge 8, Type (0, 0), BuildingBlock: XIVTED_clean_linker_0, # of connection points: 2
#     Edge 9, Type (0, 0), BuildingBlock: XIVTED_clean_linker_0, # of connection points: 2
#     Edge 10, Type (0, 0), BuildingBlock: XIVTED_clean_linker_0, # of connection points: 2
#     Edge 11, Type (0, 0), BuildingBlock: XIVTED_clean_linker_0, # of connection points: 2
#     Edge 12, Type (0, 0), BuildingBlock: XIVTED_clean_linker_0, # of connection points: 2
#     Edge 13, Type (0, 0), BuildingBlock: XIVTED_clean_linker_0, # of connection points: 2
#     Edge 14, Type (0, 0), BuildingBlock: XIVTED_clean_linker_0, # of connection points: 2
#     Edge 15, Type (0, 0), BuildingBlock: XIVTED_clean_linker_0, # of connection points: 2
#     Edge 16, Type (0, 0), BuildingBlock: XIVTED_clean_linker_0, # of connection points: 2
#     Edge 17, Type (0, 0), BuildingBlock: XIVTED_clean_linker_0, # of connection points: 2
#     Edge 18, Type (0, 0), BuildingBlock: XIVTED_clean_linker_0, # of connection points: 2
#     Edge 19, Type (0, 0), BuildingBlock: XIVTED_clean_linker_0, # of connection points: 2
#     Edge 20, Type (0, 0), BuildingBlock: XIVTED_clean_linker_0, # of connection points: 2
#     Edge 21, Type (0, 0), BuildingBlock: XIVTED_clean_linker_0, # of connection points: 2
#     Edge 22, Type (0, 0), BuildingBlock: XIVTED_clean_linker_0, # of connection points: 2
#     Edge 23, Type (0, 0), BuildingBlock: XIVTED_clean_linker_0, # of connection points: 2
# Relax obj value: 0.337
# Max RMSD: 0.277
# Mean RMSD: 0.276
data_MOF--net-smi--node1-IZENUY_clean_sbu_0--edge1-XIVTED_clean_linker_0
_symmetry_space_group_name_H-M    P1
_symmetry_Int_Tables_number       1
_symmetry_cell_setting            triclinic
loop_
_symmetry_equiv_pos_as_xyz
'x, y, z'
_cell_length_a     27.128573
_cell_length_b     27.072774
_cell_length_c     40.277843
_cell_angle_alpha  89.99402
_cell_angle_beta   90.000976
_cell_angle_gamma 120.27157
loop_
_atom_site_label
_atom_site_type_symbol
_atom_site_fract_x
_atom_site_fract_y
_atom_site_fract_z
_atom_type_partial_charge
Fe0 Fe 0.08762 0.56386 0.11734 0.0
Fe1 Fe 0.20068 0.59909 0.08217 0.0
O2 O 0.12529 0.56022 0.08227 0.0
Fe3 Fe 0.08798 0.51796 0.04727 0.0
O4 O 0.05234 0.55804 0.0413 0.0
O5 O 0.02678 0.55805 0.09307 0.0
O6 O 0.1201 0.64098 0.11459 0.0
C7 C 0.17325 0.67466 0.11521 0.0
C8 C 0.02363 0.45 0.10241 0.0
O9 O 0.2075 0.65733 0.10851 0.0
C10 C 0.17537 0.49623 0.04937 0.0
O11 O 0.14133 0.56961 0.14761 0.0
O12 O 0.20339 0.55955 0.11748 0.0
O13 O 0.02771 0.46171 0.07163 0.0
O14 O 0.05337 0.48789 0.12331 0.0
C15 C 0.17899 0.61947 0.0193 0.0
O16 O 0.20873 0.54847 0.05586 0.0
O17 O 0.12202 0.47504 0.05007 0.0
C18 C 0.18034 0.55694 0.1451 0.0
O19 O 0.20189 0.64067 0.04686 0.0
O20 O 0.14104 0.56698 0.0169 0.0
C21 C 0.02267 0.5658 0.06232 0.0
Fe22 Fe 0.56509 0.08661 0.21505 0.0
Fe23 Fe 0.59792 0.19951 0.25008 0.0
O24 O 0.56041 0.12393 0.25003 0.0
Fe25 Fe 0.51838 0.08603 0.28497 0.0
O26 O 0.55948 0.05152 0.29108 0.0
O27 O 0.56036 0.02622 0.23936 0.0
O28 O 0.64219 0.12055 0.21791 0.0
C29 C 0.67495 0.17398 0.21702 0.0
C30 C 0.4514 0.02132 0.22982 0.0
O31 O 0.6567 0.2075 0.22389 0.0
C32 C 0.4946 0.17219 0.28282 0.0
O33 O 0.56988 0.13982 0.18474 0.0
O34 O 0.55815 0.20123 0.21459 0.0
O35 O 0.463 0.02522 0.26058 0.0
O36 O 0.48925 0.05109 0.20892 0.0
C37 C 0.61861 0.17837 0.31305 0.0
O38 O 0.54654 0.20638 0.27628 0.0
O39 O 0.4744 0.11888 0.28209 0.0
C40 C 0.55604 0.17804 0.18707 0.0
O41 O 0.63966 0.20176 0.28555 0.0
O42 O 0.56652 0.13957 0.31536 0.0
C43 C 0.56812 0.02235 0.27012 0.0
Fe44 Fe 0.40176 0.60098 0.4155 0.0
Fe45 Fe 0.43367 0.52112 0.45113 0.0
O46 O 0.4388 0.56288 0.41592 0.0
Fe47 Fe 0.48083 0.56679 0.38113 0.0
O48 O 0.52527 0.64403 0.38382 0.0
O49 O 0.45348 0.65929 0.38918 0.0
O50 O 0.44163 0.64313 0.45085 0.0
C51 C 0.44325 0.62229 0.47853 0.0
C52 C 0.38098 0.55844 0.35268 0.0
O53 O 0.42892 0.56997 0.48115 0.0
C54 C 0.43058 0.45304 0.3964 0.0
O55 O 0.34275 0.55015 0.44174 0.0
O56 O 0.35653 0.47743 0.4481 0.0
O57 O 0.433 0.57186 0.35046 0.0
O58 O 0.36 0.56081 0.38015 0.0
C59 C 0.5474 0.57023 0.43661 0.0
O60 O 0.43831 0.46508 0.42714 0.0
O61 O 0.43926 0.49075 0.37529 0.0
C62 C 0.32403 0.49809 0.44849 0.0
O63 O 0.5095 0.56209 0.45738 0.0
O64 O 0.53585 0.56166 0.40585 0.0
C65 C 0.50544 0.67723 0.38292 0.0
Fe66 Fe 0.79984 0.3987 0.58281 0.0
Fe67 Fe 0.9124 0.48163 0.54835 0.0
O68 O 0.87523 0.43804 0.58298 0.0
Fe69 Fe 0.91302 0.43359 0.61776 0.0
O70 O 0.88097 0.3566 0.6142 0.0
O71 O 0.79342 0.33992 0.60848 0.0
O72 O 0.79906 0.35836 0.54695 0.0
C73 C 0.82208 0.38058 0.51957 0.0
C74 C 0.82003 0.43919 0.64612 0.0
O75 O 0.85972 0.43324 0.51766 0.0
C76 C 0.97589 0.54812 0.604 0.0
O77 O 0.79128 0.4497 0.55715 0.0
O78 O 0.87766 0.52382 0.55188 0.0
O79 O 0.85912 0.42657 0.64827 0.0
O80 O 0.79682 0.43708 0.61863 0.0
C81 C 0.97838 0.43405 0.56231 0.0
O82 O 0.97225 0.53749 0.57311 0.0
O83 O 0.94678 0.50931 0.62457 0.0
C84 C 0.82425 0.50217 0.55107 0.0
O85 O 0.94871 0.44244 0.54162 0.0
O86 O 0.97409 0.44058 0.5932 0.0
C87 C 0.82787 0.32268 0.61482 0.0
Fe88 Fe 0.43454 0.91337 0.71428 0.0
Fe89 Fe 0.40009 0.79976 0.74888 0.0
O90 O 0.43837 0.8753 0.74914 0.0
Fe91 Fe 0.48033 0.91238 0.78426 0.0
O92 O 0.43992 0.94754 0.79047 0.0
O93 O 0.43996 0.97387 0.73887 0.0
O94 O 0.35752 0.88033 0.71702 0.0
C95 C 0.32421 0.82702 0.71611 0.0
C96 C 0.5482 0.97727 0.72937 0.0
O97 O 0.34184 0.79288 0.72261 0.0
C98 C 0.50283 0.8254 0.7817 0.0
O99 O 0.42919 0.86012 0.68373 0.0
O100 O 0.43994 0.79802 0.71351 0.0
O101 O 0.53636 0.97319 0.76012 0.0
O102 O 0.51037 0.94807 0.70834 0.0
C103 C 0.37924 0.82037 0.81189 0.0
O104 O 0.4508 0.79176 0.77508 0.0
O105 O 0.52359 0.8788 0.78123 0.0
C106 C 0.44252 0.8215 0.68604 0.0
O107 O 0.35829 0.79762 0.78425 0.0
O108 O 0.43151 0.85866 0.81442 0.0
C109 C 0.43201 0.97741 0.76965 0.0
Fe110 Fe 0.60016 0.39971 0.91744 0.0
Fe111 Fe 0.56762 0.48043 0.95142 0.0
O112 O 0.563 0.43771 0.9168 0.0
Fe113 Fe 0.52132 0.43274 0.88161 0.0
O114 O 0.47711 0.35555 0.88482 0.0
O115 O 0.54885 0.34055 0.89144 0.0
O116 O 0.55988 0.35861 0.95301 0.0
C117 C 0.55796 0.38031 0.98033 0.0
C118 C 0.62158 0.44048 0.85419 0.0
O119 O 0.57238 0.43271 0.98225 0.0
C120 C 0.5707 0.54679 0.89576 0.0
O121 O 0.65879 0.45146 0.94356 0.0
O122 O 0.64478 0.52427 0.94849 0.0
O123 O 0.56965 0.42718 0.85161 0.0
O124 O 0.64231 0.43877 0.88189 0.0
C125 C 0.45396 0.43016 0.93637 0.0
O126 O 0.56282 0.53556 0.92657 0.0
O127 O 0.56264 0.50864 0.87513 0.0
C128 C 0.67737 0.50374 0.94959 0.0
O129 O 0.49174 0.43932 0.95747 0.0
O130 O 0.46582 0.43808 0.90563 0.0
C131 C 0.49707 0.32245 0.88455 0.0
H132 H 0.27125 0.5396 0.14953 0.0
H133 H 0.27112 0.5366 0.34791 0.0
H134 H 0.14549 0.55106 0.20962 0.0
H135 H 0.41197 0.55581 0.28813 0.0
H136 H 0.21773 0.5273 0.29735 0.0
H137 H 0.31611 0.53102 0.19997 0.0
C138 C 0.25278 0.53995 0.17331 0.0
C139 C 0.20486 0.5468 0.17534 0.0
C140 C 0.26019 0.53325 0.2953 0.0
C141 C 0.25615 0.5369 0.23318 0.0
C142 C 0.29077 0.53852 0.32416 0.0
C143 C 0.3465 0.54776 0.32228 0.0
C144 C 0.28535 0.53705 0.26426 0.0
C145 C 0.36938 0.54928 0.29079 0.0
C146 C 0.27853 0.53511 0.2021 0.0
C147 C 0.18264 0.54643 0.20686 0.0
N148 N 0.33882 0.54435 0.263 0.0
N149 N 0.20868 0.54192 0.23456 0.0
H150 H 0.58937 0.13983 0.37694 0.0
H151 H 0.85823 0.41308 0.45555 0.0
H152 H 0.7264 0.27111 0.31854 0.0
H153 H 0.73274 0.27085 0.51359 0.0
H154 H 0.81341 0.35934 0.40498 0.0
H155 H 0.64389 0.18467 0.42726 0.0
C156 C 0.63105 0.17787 0.37466 0.0
C157 C 0.65301 0.20212 0.34349 0.0
C158 C 0.79597 0.33972 0.4288 0.0
C159 C 0.71556 0.25378 0.40099 0.0
C160 C 0.82151 0.37043 0.45769 0.0
C161 C 0.79879 0.34677 0.48887 0.0
C162 C 0.74716 0.28512 0.43109 0.0
C163 C 0.75143 0.29108 0.49011 0.0
C164 C 0.66222 0.20341 0.40341 0.0
C165 C 0.70752 0.25116 0.34205 0.0
N166 N 0.72687 0.2624 0.46162 0.0
N167 N 0.73666 0.27567 0.37042 0.0
H168 H 0.46385 0.73312 0.68131 0.0
H169 H 0.46278 0.7317 0.48295 0.0
H170 H 0.44652 0.85608 0.62158 0.0
H171 H 0.44864 0.59286 0.54298 0.0
H172 H 0.47218 0.78552 0.53345 0.0
H173 H 0.47367 0.68937 0.63074 0.0
C174 C 0.46245 0.75121 0.65758 0.0
C175 C 0.45352 0.79792 0.65569 0.0
C176 C 0.46734 0.74341 0.53554 0.0
C177 C 0.46484 0.74791 0.59769 0.0
C178 C 0.46204 0.71262 0.50673 0.0
C179 C 0.4541 0.65727 0.50874 0.0
C180 C 0.46494 0.71885 0.56661 0.0
C181 C 0.45404 0.63509 0.54024 0.0
C182 C 0.46802 0.7261 0.62871 0.0
C183 C 0.45272 0.81978 0.62422 0.0
N184 N 0.45899 0.66583 0.56795 0.0
N185 N 0.45791 0.79433 0.59643 0.0
H186 H 0.72983 0.45746 0.84957 0.0
H187 H 0.73101 0.45929 0.65114 0.0
H188 H 0.59224 0.44596 0.78975 0.0
H189 H 0.85397 0.4419 0.71059 0.0
H190 H 0.68703 0.46823 0.70182 0.0
H191 H 0.78288 0.46559 0.79898 0.0
C192 C 0.71087 0.45702 0.82582 0.0
C193 C 0.65611 0.45031 0.82391 0.0
C194 C 0.72378 0.46272 0.70378 0.0
C195 C 0.71681 0.45967 0.76591 0.0
C196 C 0.74902 0.45765 0.67484 0.0
C197 C 0.7959 0.44911 0.6766 0.0
C198 C 0.7456 0.45942 0.73475 0.0
C199 C 0.8176 0.4479 0.70804 0.0
C200 C 0.74122 0.46159 0.79695 0.0
C201 C 0.63403 0.4505 0.79243 0.0
N202 N 0.79205 0.45265 0.73589 0.0
N203 N 0.66434 0.45475 0.76466 0.0
H204 H 0.2676 0.72981 0.01469 0.0
H205 H 0.26968 0.73041 0.81634 0.0
H206 H 0.14469 0.58891 0.95481 0.0
H207 H 0.40897 0.8551 0.87639 0.0
H208 H 0.21576 0.68588 0.86681 0.0
H209 H 0.31184 0.78367 0.96417 0.0
C210 C 0.24961 0.71026 0.99094 0.0
C211 C 0.20277 0.65435 0.98899 0.0
C212 C 0.25799 0.72317 0.86892 0.0
C213 C 0.25334 0.71601 0.93105 0.0
C214 C 0.28885 0.74872 0.84012 0.0
C215 C 0.34433 0.79618 0.84213 0.0
C216 C 0.28262 0.7453 0.89999 0.0
C217 C 0.36663 0.81825 0.87364 0.0
C218 C 0.275 0.7411 0.9621 0.0
C219 C 0.18107 0.6316 0.9575 0.0
N220 N 0.3358 0.79239 0.90135 0.0
N221 N 0.20679 0.66241 0.92974 0.0
H222 H 0.54649 0.13923 0.12328 0.0
H223 H 0.55239 0.41206 0.0442 0.0
H224 H 0.54072 0.27029 0.18144 0.0
H225 H 0.53762 0.27084 0.98636 0.0
H226 H 0.54206 0.35801 0.09481 0.0
H227 H 0.53713 0.18384 0.07288 0.0
C228 C 0.5429 0.17718 0.12549 0.0
C229 C 0.54518 0.20148 0.15662 0.0
C230 C 0.54062 0.33868 0.07103 0.0
C231 C 0.53467 0.25289 0.09899 0.0
C232 C 0.5466 0.36957 0.04211 0.0
C233 C 0.54666 0.3463 0.01099 0.0
C234 C 0.53501 0.28429 0.06882 0.0
C235 C 0.53845 0.29079 0.00981 0.0
C236 C 0.53746 0.20259 0.09668 0.0
C237 C 0.53971 0.25034 0.15796 0.0
N238 N 0.53352 0.26193 0.03832 0.0
N239 N 0.53529 0.27476 0.12953 0.0
H240 H 0.40329 0.37429 0.99324 0.0
H241 H 0.25528 0.47741 0.07666 0.0
H242 H 0.37753 0.45852 0.90972 0.0
H243 H 0.15607 0.44815 0.98774 0.0
H244 H 0.31248 0.44418 0.04795 0.0
H245 H 0.32258 0.37197 0.02138 0.0
C246 C 0.38011 0.39171 0.98063 0.0
C247 C 0.39791 0.41786 0.94941 0.0
C248 C 0.27699 0.44303 0.03493 0.0
C249 C 0.30638 0.41665 0.98194 0.0
C250 C 0.24448 0.46207 0.05135 0.0
C251 C 0.20044 0.46426 0.03466 0.0
C252 C 0.26632 0.42747 0.00125 0.0
C253 C 0.18901 0.44568 0.00155 0.0
C254 C 0.33432 0.39069 0.99683 0.0
C255 C 0.36551 0.43851 0.93392 0.0
N256 N 0.22266 0.42916 0.9856 0.0
N257 N 0.32167 0.43832 0.95062 0.0
H258 H 0.92765 0.36524 0.07052 0.0
H259 H 0.70311 0.14071 0.1593 0.0
H260 H 0.01485 0.40874 0.16497 0.0
H261 H 0.77359 0.26549 0.23787 0.0
H262 H 0.79232 0.19634 0.12768 0.0
H263 H 0.8451 0.28414 0.09731 0.0
C264 C 0.93005 0.35697 0.0966 0.0
C265 C 0.97788 0.39449 0.1156 0.0
C266 C 0.78837 0.21102 0.152 0.0
C267 C 0.88405 0.3022 0.1463 0.0
C268 C 0.738 0.17896 0.17022 0.0
C269 C 0.73139 0.19876 0.20118 0.0
C270 C 0.83227 0.26256 0.16524 0.0
C271 C 0.77721 0.24894 0.21408 0.0
C272 C 0.88301 0.31056 0.11187 0.0
C273 C 0.97855 0.38173 0.14939 0.0
N274 N 0.82571 0.27909 0.19606 0.0
N275 N 0.93199 0.33754 0.16373 0.0
H276 H 0.53549 0.77936 0.41084 0.0
H277 H 0.55333 0.9245 0.23922 0.0
H278 H 0.54453 0.70188 0.3194 0.0
H279 H 0.6084 0.0187 0.33125 0.0
H280 H 0.55592 0.84443 0.26632 0.0
H281 H 0.56835 0.86971 0.3815 0.0
C282 C 0.54615 0.78212 0.38471 0.0
C283 C 0.53829 0.73385 0.3675 0.0
C284 C 0.56849 0.88316 0.2803 0.0
C285 C 0.57319 0.83592 0.33333 0.0
C286 C 0.56706 0.92884 0.26483 0.0
C287 C 0.57946 0.97786 0.28318 0.0
C288 C 0.58199 0.88668 0.31428 0.0
C289 C 0.59718 0.98123 0.3163 0.0
C290 C 0.56459 0.83349 0.36788 0.0
C291 C 0.5512 0.73881 0.33351 0.0
N292 N 0.59701 0.93602 0.33087 0.0
N293 N 0.56698 0.78877 0.31729 0.0
H294 H 0.74194 0.51796 0.57778 0.0
H295 H 0.59649 0.62423 0.49424 0.0
H296 H 0.84523 0.55276 0.49009 0.0
H297 H 0.6244 0.54219 0.41036 0.0
H298 H 0.67611 0.62529 0.52296 0.0
H299 H 0.68483 0.55118 0.54888 0.0
C300 C 0.75359 0.53445 0.55273 0.0
C301 C 0.79881 0.53389 0.53644 0.0
C302 C 0.66509 0.60737 0.4982 0.0
C303 C 0.73304 0.5706 0.50281 0.0
C304 C 0.6199 0.60703 0.48167 0.0
C305 C 0.60296 0.58183 0.45015 0.0
C306 C 0.69342 0.58183 0.48332 0.0
C307 C 0.63571 0.56147 0.43477 0.0
C308 C 0.72112 0.55346 0.53621 0.0
C309 C 0.81136 0.55395 0.50362 0.0
N310 N 0.67903 0.56108 0.45177 0.0
N311 N 0.77777 0.57042 0.48754 0.0
H312 H 0.29898 0.84994 0.65452 0.0
H313 H 0.97806 0.59016 0.66549 0.0
H314 H 0.22281 0.74687 0.74166 0.0
H315 H 0.07471 0.63278 0.57432 0.0
H316 H 0.05842 0.67097 0.69258 0.0
H317 H 0.20813 0.79256 0.62458 0.0
C318 C 0.26246 0.81653 0.66761 0.0
C319 C 0.26774 0.80312 0.70059 0.0
C320 C 0.06177 0.66318 0.66652 0.0
C321 C 0.16485 0.7379 0.66679 0.0
C322 C 0.01594 0.61706 0.65096 0.0
C323 C 0.02013 0.60383 0.61772 0.0
C324 C 0.11238 0.69674 0.64883 0.0
C325 C 0.06989 0.64108 0.60006 0.0
C326 C 0.21109 0.78359 0.65048 0.0
C327 C 0.22002 0.75862 0.71632 0.0
N328 N 0.11462 0.68554 0.616 0.0
N329 N 0.17056 0.72754 0.69927 0.0
H330 H 0.47145 0.22082 0.91156 0.0
H331 H 0.44847 0.07649 0.73943 0.0
H332 H 0.45474 0.29726 0.82164 0.0
H333 H 0.39171 0.98055 0.83083 0.0
H334 H 0.44717 0.1568 0.76721 0.0
H335 H 0.43865 0.13088 0.88176 0.0
C336 C 0.45921 0.21792 0.8857 0.0
C337 C 0.46483 0.26579 0.86905 0.0
C338 C 0.43395 0.11763 0.78088 0.0
C339 C 0.42988 0.16421 0.83433 0.0
C340 C 0.43463 0.07183 0.76503 0.0
C341 C 0.42137 0.02222 0.78301 0.0
C342 C 0.42039 0.11362 0.81487 0.0
C343 C 0.40358 0.01845 0.81616 0.0
C344 C 0.44076 0.16679 0.86861 0.0
C345 C 0.44984 0.26064 0.83535 0.0
N346 N 0.40455 0.06378 0.83111 0.0
N347 N 0.43409 0.21095 0.81882 0.0
H348 H 0.52484 0.74724 0.75458 0.0
H349 H 0.55599 0.6302 0.92615 0.0
H350 H 0.5484 0.84419 0.84389 0.0
H351 H 0.60833 0.58915 0.83393 0.0
H352 H 0.55628 0.71127 0.89832 0.0
H353 H 0.55822 0.69044 0.78386 0.0
C354 C 0.53862 0.75742 0.78017 0.0
C355 C 0.53479 0.80067 0.79682 0.0
C356 C 0.56877 0.68504 0.88447 0.0
C357 C 0.57052 0.73452 0.83098 0.0
C358 C 0.56865 0.63886 0.90034 0.0
C359 C 0.58096 0.6021 0.88219 0.0
C360 C 0.58075 0.69386 0.85028 0.0
C361 C 0.59725 0.61549 0.84878 0.0
C362 C 0.55744 0.72497 0.79696 0.0
C363 C 0.55184 0.81165 0.83018 0.0
N364 N 0.59571 0.65954 0.83382 0.0
N365 N 0.56795 0.77794 0.84646 0.0
H366 H 0.92439 0.5493 0.09329 0.0
H367 H 0.77964 0.53519 0.92163 0.0
H368 H 0.01814 0.60579 0.00123 0.0
H369 H 0.70131 0.53987 0.01365 0.0
H370 H 0.86955 0.5669 0.95104 0.0
H371 H 0.84396 0.55122 0.06638 0.0
C372 C 0.92853 0.56316 0.06771 0.0
C373 C 0.97761 0.57627 0.04932 0.0
C374 C 0.83322 0.56242 0.96481 0.0
C375 C 0.88601 0.57805 0.01842 0.0
C376 C 0.78212 0.54467 0.94792 0.0
C377 C 0.73376 0.53602 0.96524 0.0
C378 C 0.83532 0.56953 0.99948 0.0
C379 C 0.73833 0.54728 0.99945 0.0
C380 C 0.88264 0.56419 0.05234 0.0
C381 C 0.98069 0.59409 0.01622 0.0
N382 N 0.78805 0.56247 0.01566 0.0
N383 N 0.93532 0.59359 0.00176 0.0
H384 H 0.36925 0.92189 0.26019 0.0
H385 H 0.24782 0.77697 0.08814 0.0
H386 H 0.40714 0.01773 0.16884 0.0
H387 H 0.15596 0.69885 0.17827 0.0
H388 H 0.30406 0.86721 0.11792 0.0
H389 H 0.28766 0.84091 0.23253 0.0
C390 C 0.35975 0.92637 0.23462 0.0
C391 C 0.39578 0.97616 0.2166 0.0
C392 C 0.27071 0.83084 0.13112 0.0
C393 C 0.30342 0.884 0.18488 0.0
C394 C 0.23856 0.77954 0.11405 0.0
C395 C 0.19695 0.73114 0.13077 0.0
C396 C 0.26258 0.83309 0.16546 0.0
C397 C 0.18718 0.73587 0.16452 0.0
C398 C 0.31328 0.88019 0.21884 0.0
C399 C 0.38136 0.9797 0.18352 0.0
N400 N 0.22064 0.78578 0.18103 0.0
N401 N 0.33703 0.93401 0.16863 0.0
H402 H 0.46607 0.24552 0.25541 0.0
H403 H 0.44731 0.37119 0.42717 0.0
H404 H 0.4552 0.15682 0.34632 0.0
H405 H 0.38908 0.40773 0.33566 0.0
H406 H 0.44571 0.28905 0.39991 0.0
H407 H 0.43332 0.30253 0.28506 0.0
C408 C 0.45509 0.23708 0.28148 0.0
C409 C 0.46231 0.19611 0.29844 0.0
C410 C 0.43222 0.3145 0.3861 0.0
C411 C 0.42749 0.26271 0.33297 0.0
C412 C 0.43304 0.36128 0.40166 0.0
C413 C 0.41947 0.39708 0.38348 0.0
C414 C 0.41817 0.30407 0.35219 0.0
C415 C 0.40117 0.38213 0.35047 0.0
C416 C 0.43669 0.2697 0.29848 0.0
C417 C 0.449 0.18748 0.33239 0.0
N418 N 0.40199 0.3375 0.33579 0.0
N419 N 0.43325 0.22137 0.34878 0.0
H420 H 0.07636 0.44871 0.59289 0.0
H421 H 0.22335 0.4736 0.42101 0.0
H422 H 0.98319 0.39682 0.50047 0.0
H423 H 0.2977 0.45564 0.5114 0.0
H424 H 0.13339 0.44171 0.45036 0.0
H425 H 0.15676 0.44759 0.56531 0.0
C426 C 0.07234 0.43604 0.56708 0.0
C427 C 0.02345 0.42403 0.54881 0.0
C428 C 0.16882 0.44335 0.46372 0.0
C429 C 0.11497 0.42317 0.5172 0.0
C430 C 0.21996 0.46126 0.44688 0.0
C431 C 0.26726 0.46623 0.46378 0.0
C432 C 0.16563 0.43234 0.49802 0.0
C433 C 0.26151 0.45119 0.49749 0.0
C434 C 0.11819 0.43544 0.55135 0.0
C435 C 0.0205 0.40769 0.51541 0.0
N436 N 0.21182 0.43593 0.51377 0.0
N437 N 0.06584 0.40864 0.50062 0.0
H438 H 0.63054 0.07657 0.75978 0.0
H439 H 0.75437 0.22003 0.58764 0.0
H440 H 0.59303 0.98017 0.66869 0.0
H441 H 0.84453 0.29892 0.67807 0.0
H442 H 0.69786 0.12993 0.61753 0.0
H443 H 0.71271 0.15711 0.73221 0.0
C444 C 0.64025 0.07186 0.7343 0.0
C445 C 0.60417 0.02206 0.71631 0.0
C446 C 0.73092 0.16644 0.63079 0.0
C447 C 0.69718 0.11373 0.68468 0.0
C448 C 0.76326 0.21765 0.61365 0.0
C449 C 0.80446 0.26624 0.63041 0.0
C450 C 0.73842 0.16447 0.66523 0.0
C451 C 0.81367 0.26175 0.66428 0.0
C452 C 0.68704 0.1178 0.71856 0.0
C453 C 0.61886 0.01822 0.68334 0.0
N454 N 0.78002 0.21194 0.68084 0.0
N455 N 0.66351 0.06368 0.66848 0.0
loop_
_geom_bond_atom_site_label_1
_geom_bond_atom_site_label_2
_geom_bond_distance
_geom_bond_site_symmetry_2
_ccdc_geom_bond_type
Fe0 O2 1.918 . S
Fe0 O5 1.997 . S
Fe0 O6 2.002 . S
Fe0 O11 1.976 . S
Fe0 O14 1.996 . S
Fe1 O2 1.918 . S
Fe1 O9 1.997 . S
Fe1 O12 1.996 . S
Fe1 O16 1.976 . S
Fe1 O19 2.002 . S
O2 Fe0 1.918 . S
O2 Fe1 1.918 . S
O2 Fe3 1.918 . S
Fe3 O2 1.918 . S
Fe3 O4 2.002 . S
Fe3 O13 1.976 . S
Fe3 O17 1.996 . S
Fe3 O20 1.997 . S
O4 Fe3 2.002 . S
O4 C21 1.295 . S
O5 Fe0 1.997 . S
O5 C21 1.235 . S
O6 Fe0 2.002 . S
O6 C7 1.295 . S
C7 O6 1.295 . S
C7 O9 1.235 . S
C8 O13 1.287 . S
C8 O14 1.255 . S
O9 Fe1 1.997 . S
O9 C7 1.235 . S
C10 O16 1.287 . S
C10 O17 1.255 . S
O11 Fe0 1.976 . S
O11 C18 1.287 . S
O12 Fe1 1.996 . S
O12 C18 1.255 . S
O13 Fe3 1.976 . S
O13 C8 1.287 . S
O14 Fe0 1.996 . S
O14 C8 1.255 . S
C15 O19 1.295 . S
C15 O20 1.235 . S
O16 Fe1 1.976 . S
O16 C10 1.287 . S
O17 Fe3 1.996 . S
O17 C10 1.255 . S
C18 O11 1.287 . S
C18 O12 1.255 . S
O19 Fe1 2.002 . S
O19 C15 1.295 . S
O20 Fe3 1.997 . S
O20 C15 1.235 . S
C21 O4 1.295 . S
C21 O5 1.235 . S
Fe22 O24 1.918 . S
Fe22 O27 1.997 . S
Fe22 O28 2.002 . S
Fe22 O33 1.976 . S
Fe22 O36 1.996 . S
Fe23 O24 1.918 . S
Fe23 O31 1.997 . S
Fe23 O34 1.996 . S
Fe23 O38 1.976 . S
Fe23 O41 2.002 . S
O24 Fe22 1.918 . S
O24 Fe23 1.918 . S
O24 Fe25 1.918 . S
Fe25 O24 1.918 . S
Fe25 O26 2.002 . S
Fe25 O35 1.976 . S
Fe25 O39 1.996 . S
Fe25 O42 1.997 . S
O26 Fe25 2.002 . S
O26 C43 1.295 . S
O27 Fe22 1.997 . S
O27 C43 1.235 . S
O28 Fe22 2.002 . S
O28 C29 1.295 . S
C29 O28 1.295 . S
C29 O31 1.235 . S
C30 O35 1.287 . S
C30 O36 1.255 . S
O31 Fe23 1.997 . S
O31 C29 1.235 . S
C32 O38 1.287 . S
C32 O39 1.255 . S
O33 Fe22 1.976 . S
O33 C40 1.287 . S
O34 Fe23 1.996 . S
O34 C40 1.255 . S
O35 Fe25 1.976 . S
O35 C30 1.287 . S
O36 Fe22 1.996 . S
O36 C30 1.255 . S
C37 O41 1.295 . S
C37 O42 1.235 . S
O38 Fe23 1.976 . S
O38 C32 1.287 . S
O39 Fe25 1.996 . S
O39 C32 1.255 . S
C40 O33 1.287 . S
C40 O34 1.255 . S
O41 Fe23 2.002 . S
O41 C37 1.295 . S
O42 Fe25 1.997 . S
O42 C37 1.235 . S
C43 O26 1.295 . S
C43 O27 1.235 . S
Fe44 O46 1.918 . S
Fe44 O49 1.997 . S
Fe44 O50 2.002 . S
Fe44 O55 1.976 . S
Fe44 O58 1.996 . S
Fe45 O46 1.918 . S
Fe45 O53 1.997 . S
Fe45 O56 1.996 . S
Fe45 O60 1.976 . S
Fe45 O63 2.002 . S
O46 Fe44 1.918 . S
O46 Fe45 1.918 . S
O46 Fe47 1.918 . S
Fe47 O46 1.918 . S
Fe47 O48 2.002 . S
Fe47 O57 1.976 . S
Fe47 O61 1.996 . S
Fe47 O64 1.997 . S
O48 Fe47 2.002 . S
O48 C65 1.295 . S
O49 Fe44 1.997 . S
O49 C65 1.235 . S
O50 Fe44 2.002 . S
O50 C51 1.295 . S
C51 O50 1.295 . S
C51 O53 1.235 . S
C52 O57 1.287 . S
C52 O58 1.255 . S
O53 Fe45 1.997 . S
O53 C51 1.235 . S
C54 O60 1.287 . S
C54 O61 1.255 . S
O55 Fe44 1.976 . S
O55 C62 1.287 . S
O56 Fe45 1.996 . S
O56 C62 1.255 . S
O57 Fe47 1.976 . S
O57 C52 1.287 . S
O58 Fe44 1.996 . S
O58 C52 1.255 . S
C59 O63 1.295 . S
C59 O64 1.235 . S
O60 Fe45 1.976 . S
O60 C54 1.287 . S
O61 Fe47 1.996 . S
O61 C54 1.255 . S
C62 O55 1.287 . S
C62 O56 1.255 . S
O63 Fe45 2.002 . S
O63 C59 1.295 . S
O64 Fe47 1.997 . S
O64 C59 1.235 . S
C65 O48 1.295 . S
C65 O49 1.235 . S
Fe66 O68 1.918 . S
Fe66 O71 1.997 . S
Fe66 O72 2.002 . S
Fe66 O77 1.976 . S
Fe66 O80 1.996 . S
Fe67 O68 1.918 . S
Fe67 O75 1.997 . S
Fe67 O78 1.996 . S
Fe67 O82 1.976 . S
Fe67 O85 2.002 . S
O68 Fe66 1.918 . S
O68 Fe67 1.918 . S
O68 Fe69 1.918 . S
Fe69 O68 1.918 . S
Fe69 O70 2.002 . S
Fe69 O79 1.976 . S
Fe69 O83 1.996 . S
Fe69 O86 1.997 . S
O70 Fe69 2.002 . S
O70 C87 1.295 . S
O71 Fe66 1.997 . S
O71 C87 1.235 . S
O72 Fe66 2.002 . S
O72 C73 1.295 . S
C73 O72 1.295 . S
C73 O75 1.235 . S
C74 O79 1.287 . S
C74 O80 1.255 . S
O75 Fe67 1.997 . S
O75 C73 1.235 . S
C76 O82 1.287 . S
C76 O83 1.255 . S
O77 Fe66 1.976 . S
O77 C84 1.287 . S
O78 Fe67 1.996 . S
O78 C84 1.255 . S
O79 Fe69 1.976 . S
O79 C74 1.287 . S
O80 Fe66 1.996 . S
O80 C74 1.255 . S
C81 O85 1.295 . S
C81 O86 1.235 . S
O82 Fe67 1.976 . S
O82 C76 1.287 . S
O83 Fe69 1.996 . S
O83 C76 1.255 . S
C84 O77 1.287 . S
C84 O78 1.255 . S
O85 Fe67 2.002 . S
O85 C81 1.295 . S
O86 Fe69 1.997 . S
O86 C81 1.235 . S
C87 O70 1.295 . S
C87 O71 1.235 . S
Fe88 O90 1.918 . S
Fe88 O93 1.997 . S
Fe88 O94 2.002 . S
Fe88 O99 1.976 . S
Fe88 O102 1.996 . S
Fe89 O90 1.918 . S
Fe89 O97 1.997 . S
Fe89 O100 1.996 . S
Fe89 O104 1.976 . S
Fe89 O107 2.002 . S
O90 Fe88 1.918 . S
O90 Fe89 1.918 . S
O90 Fe91 1.918 . S
Fe91 O90 1.918 . S
Fe91 O92 2.002 . S
Fe91 O101 1.976 . S
Fe91 O105 1.996 . S
Fe91 O108 1.997 . S
O92 Fe91 2.002 . S
O92 C109 1.295 . S
O93 Fe88 1.997 . S
O93 C109 1.235 . S
O94 Fe88 2.002 . S
O94 C95 1.295 . S
C95 O94 1.295 . S
C95 O97 1.235 . S
C96 O101 1.287 . S
C96 O102 1.255 . S
O97 Fe89 1.997 . S
O97 C95 1.235 . S
C98 O104 1.287 . S
C98 O105 1.255 . S
O99 Fe88 1.976 . S
O99 C106 1.287 . S
O100 Fe89 1.996 . S
O100 C106 1.255 . S
O101 Fe91 1.976 . S
O101 C96 1.287 . S
O102 Fe88 1.996 . S
O102 C96 1.255 . S
C103 O107 1.295 . S
C103 O108 1.235 . S
O104 Fe89 1.976 . S
O104 C98 1.287 . S
O105 Fe91 1.996 . S
O105 C98 1.255 . S
C106 O99 1.287 . S
C106 O100 1.255 . S
O107 Fe89 2.002 . S
O107 C103 1.295 . S
O108 Fe91 1.997 . S
O108 C103 1.235 . S
C109 O92 1.295 . S
C109 O93 1.235 . S
Fe110 O112 1.918 . S
Fe110 O115 1.997 . S
Fe110 O116 2.002 . S
Fe110 O121 1.976 . S
Fe110 O124 1.996 . S
Fe111 O112 1.918 . S
Fe111 O119 1.997 . S
Fe111 O122 1.996 . S
Fe111 O126 1.976 . S
Fe111 O129 2.002 . S
O112 Fe110 1.918 . S
O112 Fe111 1.918 . S
O112 Fe113 1.918 . S
Fe113 O112 1.918 . S
Fe113 O114 2.002 . S
Fe113 O123 1.976 . S
Fe113 O127 1.996 . S
Fe113 O130 1.997 . S
O114 Fe113 2.002 . S
O114 C131 1.295 . S
O115 Fe110 1.997 . S
O115 C131 1.235 . S
O116 Fe110 2.002 . S
O116 C117 1.295 . S
C117 O116 1.295 . S
C117 O119 1.235 . S
C118 O123 1.287 . S
C118 O124 1.255 . S
O119 Fe111 1.997 . S
O119 C117 1.235 . S
C120 O126 1.287 . S
C120 O127 1.255 . S
O121 Fe110 1.976 . S
O121 C128 1.287 . S
O122 Fe111 1.996 . S
O122 C128 1.255 . S
O123 Fe113 1.976 . S
O123 C118 1.287 . S
O124 Fe110 1.996 . S
O124 C118 1.255 . S
C125 O129 1.295 . S
C125 O130 1.235 . S
O126 Fe111 1.976 . S
O126 C120 1.287 . S
O127 Fe113 1.996 . S
O127 C120 1.255 . S
C128 O121 1.287 . S
C128 O122 1.255 . S
O129 Fe111 2.002 . S
O129 C125 1.295 . S
O130 Fe113 1.997 . S
O130 C125 1.235 . S
C131 O114 1.295 . S
C131 O115 1.235 . S
H132 C138 0.930 . S
H133 C142 0.930 . S
H134 C147 0.929 . S
H135 C145 0.929 . S
H136 C140 0.929 . S
H137 C146 0.929 . S
C138 H132 0.930 . S
C138 C139 1.367 . S
C138 C146 1.378 . S
C139 C138 1.367 . S
C139 C147 1.433 . S
C140 H136 0.929 . S
C140 C142 1.378 . S
C140 C144 1.350 . S
C141 C144 1.463 . S
C141 C146 1.350 . S
C141 N149 1.427 . S
C142 H133 0.930 . S
C142 C140 1.378 . S
C142 C143 1.367 . S
C143 C142 1.367 . S
C143 C145 1.433 . S
C144 C140 1.350 . S
C144 C141 1.463 . S
C144 N148 1.427 . S
C145 H135 0.929 . S
C145 C143 1.433 . S
C145 N148 1.384 . S
C146 H137 0.929 . S
C146 C138 1.378 . S
C146 C141 1.350 . S
C147 H134 0.929 . S
C147 C139 1.433 . S
C147 N149 1.384 . S
N148 C144 1.427 . S
N148 C145 1.384 . S
N149 C141 1.427 . S
N149 C147 1.384 . S
H150 C156 0.930 . S
H151 C160 0.930 . S
H152 C165 0.929 . S
H153 C163 0.929 . S
H154 C158 0.929 . S
H155 C164 0.929 . S
C156 H150 0.930 . S
C156 C157 1.367 . S
C156 C164 1.378 . S
C157 C156 1.367 . S
C157 C165 1.433 . S
C158 H154 0.929 . S
C158 C160 1.378 . S
C158 C162 1.350 . S
C159 C162 1.463 . S
C159 C164 1.350 . S
C159 N167 1.427 . S
C160 H151 0.930 . S
C160 C158 1.378 . S
C160 C161 1.367 . S
C161 C160 1.367 . S
C161 C163 1.433 . S
C162 C158 1.350 . S
C162 C159 1.463 . S
C162 N166 1.427 . S
C163 H153 0.929 . S
C163 C161 1.433 . S
C163 N166 1.384 . S
C164 H155 0.929 . S
C164 C156 1.378 . S
C164 C159 1.350 . S
C165 H152 0.929 . S
C165 C157 1.433 . S
C165 N167 1.384 . S
N166 C162 1.427 . S
N166 C163 1.384 . S
N167 C159 1.427 . S
N167 C165 1.384 . S
H168 C174 0.930 . S
H169 C178 0.930 . S
H170 C183 0.929 . S
H171 C181 0.929 . S
H172 C176 0.929 . S
H173 C182 0.929 . S
C174 H168 0.930 . S
C174 C175 1.367 . S
C174 C182 1.378 . S
C175 C174 1.367 . S
C175 C183 1.433 . S
C176 H172 0.929 . S
C176 C178 1.378 . S
C176 C180 1.350 . S
C177 C180 1.463 . S
C177 C182 1.350 . S
C177 N185 1.427 . S
C178 H169 0.930 . S
C178 C176 1.378 . S
C178 C179 1.367 . S
C179 C178 1.367 . S
C179 C181 1.433 . S
C180 C176 1.350 . S
C180 C177 1.463 . S
C180 N184 1.427 . S
C181 H171 0.929 . S
C181 C179 1.433 . S
C181 N184 1.384 . S
C182 H173 0.929 . S
C182 C174 1.378 . S
C182 C177 1.350 . S
C183 H170 0.929 . S
C183 C175 1.433 . S
C183 N185 1.384 . S
N184 C180 1.427 . S
N184 C181 1.384 . S
N185 C177 1.427 . S
N185 C183 1.384 . S
H186 C192 0.930 . S
H187 C196 0.930 . S
H188 C201 0.929 . S
H189 C199 0.929 . S
H190 C194 0.929 . S
H191 C200 0.929 . S
C192 H186 0.930 . S
C192 C193 1.367 . S
C192 C200 1.378 . S
C193 C192 1.367 . S
C193 C201 1.433 . S
C194 H190 0.929 . S
C194 C196 1.378 . S
C194 C198 1.350 . S
C195 C198 1.463 . S
C195 C200 1.350 . S
C195 N203 1.427 . S
C196 H187 0.930 . S
C196 C194 1.378 . S
C196 C197 1.367 . S
C197 C196 1.367 . S
C197 C199 1.433 . S
C198 C194 1.350 . S
C198 C195 1.463 . S
C198 N202 1.427 . S
C199 H189 0.929 . S
C199 C197 1.433 . S
C199 N202 1.384 . S
C200 H191 0.929 . S
C200 C192 1.378 . S
C200 C195 1.350 . S
C201 H188 0.929 . S
C201 C193 1.433 . S
C201 N203 1.384 . S
N202 C198 1.427 . S
N202 C199 1.384 . S
N203 C195 1.427 . S
N203 C201 1.384 . S
H204 C210 0.930 . S
H205 C214 0.930 . S
H206 C219 0.929 . S
H207 C217 0.929 . S
H208 C212 0.929 . S
H209 C218 0.929 . S
C210 H204 0.930 . S
C210 C211 1.367 . S
C210 C218 1.378 . S
C211 C210 1.367 . S
C211 C219 1.433 . S
C212 H208 0.929 . S
C212 C214 1.378 . S
C212 C216 1.350 . S
C213 C216 1.463 . S
C213 C218 1.350 . S
C213 N221 1.427 . S
C214 H205 0.930 . S
C214 C212 1.378 . S
C214 C215 1.367 . S
C215 C214 1.367 . S
C215 C217 1.433 . S
C216 C212 1.350 . S
C216 C213 1.463 . S
C216 N220 1.427 . S
C217 H207 0.929 . S
C217 C215 1.433 . S
C217 N220 1.384 . S
C218 H209 0.929 . S
C218 C210 1.378 . S
C218 C213 1.350 . S
C219 H206 0.929 . S
C219 C211 1.433 . S
C219 N221 1.384 . S
N220 C216 1.427 . S
N220 C217 1.384 . S
N221 C213 1.427 . S
N221 C219 1.384 . S
H222 C228 0.930 . S
H223 C232 0.930 . S
H224 C237 0.929 . S
H225 C235 0.929 1_556 S
H226 C230 0.929 . S
H227 C236 0.929 . S
C228 H222 0.930 . S
C228 C229 1.367 . S
C228 C236 1.378 . S
C229 C228 1.367 . S
C229 C237 1.433 . S
C230 H226 0.929 . S
C230 C232 1.378 . S
C230 C234 1.350 . S
C231 C234 1.463 . S
C231 C236 1.350 . S
C231 N239 1.427 . S
C232 H223 0.930 . S
C232 C230 1.378 . S
C232 C233 1.367 . S
C233 C232 1.367 . S
C233 C235 1.433 . S
C234 C230 1.350 . S
C234 C231 1.463 . S
C234 N238 1.427 . S
C235 H225 0.929 1_554 S
C235 C233 1.433 . S
C235 N238 1.384 . S
C236 H227 0.929 . S
C236 C228 1.378 . S
C236 C231 1.350 . S
C237 H224 0.929 . S
C237 C229 1.433 . S
C237 N239 1.384 . S
N238 C234 1.427 . S
N238 C235 1.384 . S
N239 C231 1.427 . S
N239 C237 1.384 . S
H240 C246 0.930 . S
H241 C250 0.930 . S
H242 C255 0.929 . S
H243 C253 0.929 . S
H244 C248 0.929 . S
H245 C254 0.929 . S
C246 H240 0.930 . S
C246 C247 1.367 . S
C246 C254 1.378 . S
C247 C246 1.367 . S
C247 C255 1.433 . S
C248 H244 0.929 . S
C248 C250 1.378 . S
C248 C252 1.350 . S
C249 C252 1.463 1_556 S
C249 C254 1.350 . S
C249 N257 1.427 . S
C250 H241 0.930 . S
C250 C248 1.378 . S
C250 C251 1.367 . S
C251 C250 1.367 . S
C251 C253 1.433 . S
C252 C248 1.350 . S
C252 C249 1.463 1_554 S
C252 N256 1.427 . S
C253 H243 0.929 . S
C253 C251 1.433 . S
C253 N256 1.384 . S
C254 H245 0.929 . S
C254 C246 1.378 . S
C254 C249 1.350 . S
C255 H242 0.929 . S
C255 C247 1.433 . S
C255 N257 1.384 . S
N256 C252 1.427 . S
N256 C253 1.384 . S
N257 C249 1.427 . S
N257 C255 1.384 . S
H258 C264 0.930 . S
H259 C268 0.930 . S
H260 C273 0.929 1_455 S
H261 C271 0.929 . S
H262 C266 0.929 . S
H263 C272 0.929 . S
C264 H258 0.930 . S
C264 C265 1.367 1_655 S
C264 C272 1.378 . S
C265 C264 1.367 1_455 S
C265 C273 1.433 1_455 S
C266 H262 0.929 . S
C266 C268 1.378 . S
C266 C270 1.350 . S
C267 C270 1.463 . S
C267 C272 1.350 . S
C267 N275 1.427 . S
C268 H259 0.930 . S
C268 C266 1.378 . S
C268 C269 1.367 . S
C269 C268 1.367 . S
C269 C271 1.433 . S
C270 C266 1.350 . S
C270 C267 1.463 . S
C270 N274 1.427 . S
C271 H261 0.929 . S
C271 C269 1.433 . S
C271 N274 1.384 . S
C272 H263 0.929 . S
C272 C264 1.378 . S
C272 C267 1.350 . S
C273 H260 0.929 1_655 S
C273 C265 1.433 1_655 S
C273 N275 1.384 . S
N274 C270 1.427 . S
N274 C271 1.384 . S
N275 C267 1.427 . S
N275 C273 1.384 . S
H276 C282 0.930 . S
H277 C286 0.930 1_545 S
H278 C291 0.929 . S
H279 C289 0.929 . S
H280 C284 0.929 . S
H281 C290 0.929 . S
C282 H276 0.930 . S
C282 C283 1.367 . S
C282 C290 1.378 . S
C283 C282 1.367 . S
C283 C291 1.433 . S
C284 H280 0.929 . S
C284 C286 1.378 . S
C284 C288 1.350 . S
C285 C288 1.463 . S
C285 C290 1.350 . S
C285 N293 1.427 . S
C286 H277 0.930 1_565 S
C286 C284 1.378 . S
C286 C287 1.367 1_565 S
C287 C286 1.367 1_545 S
C287 C289 1.433 1_545 S
C288 C284 1.350 . S
C288 C285 1.463 . S
C288 N292 1.427 . S
C289 H279 0.929 . S
C289 C287 1.433 1_565 S
C289 N292 1.384 . S
C290 H281 0.929 . S
C290 C282 1.378 . S
C290 C285 1.350 . S
C291 H278 0.929 . S
C291 C283 1.433 . S
C291 N293 1.384 . S
N292 C288 1.427 . S
N292 C289 1.384 . S
N293 C285 1.427 . S
N293 C291 1.384 . S
H294 C300 0.930 . S
H295 C304 0.930 . S
H296 C309 0.929 . S
H297 C307 0.929 . S
H298 C302 0.929 . S
H299 C308 0.929 . S
C300 H294 0.930 . S
C300 C301 1.367 . S
C300 C308 1.378 . S
C301 C300 1.367 . S
C301 C309 1.433 . S
C302 H298 0.929 . S
C302 C304 1.378 . S
C302 C306 1.350 . S
C303 C306 1.463 . S
C303 C308 1.350 . S
C303 N311 1.427 . S
C304 H295 0.930 . S
C304 C302 1.378 . S
C304 C305 1.367 . S
C305 C304 1.367 . S
C305 C307 1.433 . S
C306 C302 1.350 . S
C306 C303 1.463 . S
C306 N310 1.427 . S
C307 H297 0.929 . S
C307 C305 1.433 . S
C307 N310 1.384 . S
C308 H299 0.929 . S
C308 C300 1.378 . S
C308 C303 1.350 . S
C309 H296 0.929 . S
C309 C301 1.433 . S
C309 N311 1.384 . S
N310 C306 1.427 . S
N310 C307 1.384 . S
N311 C303 1.427 . S
N311 C309 1.384 . S
H312 C318 0.930 . S
H313 C322 0.930 . S
H314 C327 0.929 . S
H315 C325 0.929 . S
H316 C320 0.929 . S
H317 C326 0.929 . S
C318 H312 0.930 . S
C318 C319 1.367 . S
C318 C326 1.378 . S
C319 C318 1.367 . S
C319 C327 1.433 . S
C320 H316 0.929 . S
C320 C322 1.378 1_455 S
C320 C324 1.350 . S
C321 C324 1.463 . S
C321 C326 1.350 . S
C321 N329 1.427 . S
C322 H313 0.930 . S
C322 C320 1.378 1_655 S
C322 C323 1.367 . S
C323 C322 1.367 . S
C323 C325 1.433 1_655 S
C324 C320 1.350 . S
C324 C321 1.463 . S
C324 N328 1.427 . S
C325 H315 0.929 . S
C325 C323 1.433 1_455 S
C325 N328 1.384 . S
C326 H317 0.929 . S
C326 C318 1.378 . S
C326 C321 1.350 . S
C327 H314 0.929 . S
C327 C319 1.433 . S
C327 N329 1.384 . S
N328 C324 1.427 . S
N328 C325 1.384 . S
N329 C321 1.427 . S
N329 C327 1.384 . S
H330 C336 0.930 . S
H331 C340 0.930 . S
H332 C345 0.929 . S
H333 C343 0.929 . S
H334 C338 0.929 . S
H335 C344 0.929 . S
C336 H330 0.930 . S
C336 C337 1.367 . S
C336 C344 1.378 . S
C337 C336 1.367 . S
C337 C345 1.433 . S
C338 H334 0.929 . S
C338 C340 1.378 . S
C338 C342 1.350 . S
C339 C342 1.463 . S
C339 C344 1.350 . S
C339 N347 1.427 . S
C340 H331 0.930 . S
C340 C338 1.378 . S
C340 C341 1.367 1_545 S
C341 C340 1.367 1_565 S
C341 C343 1.433 . S
C342 C338 1.350 . S
C342 C339 1.463 . S
C342 N346 1.427 . S
C343 H333 0.929 . S
C343 C341 1.433 . S
C343 N346 1.384 1_565 S
C344 H335 0.929 . S
C344 C336 1.378 . S
C344 C339 1.350 . S
C345 H332 0.929 . S
C345 C337 1.433 . S
C345 N347 1.384 . S
N346 C342 1.427 . S
N346 C343 1.384 1_545 S
N347 C339 1.427 . S
N347 C345 1.384 . S
H348 C354 0.930 . S
H349 C358 0.930 . S
H350 C363 0.929 . S
H351 C361 0.929 . S
H352 C356 0.929 . S
H353 C362 0.929 . S
C354 H348 0.930 . S
C354 C355 1.367 . S
C354 C362 1.378 . S
C355 C354 1.367 . S
C355 C363 1.433 . S
C356 H352 0.929 . S
C356 C358 1.378 . S
C356 C360 1.350 . S
C357 C360 1.463 . S
C357 C362 1.350 . S
C357 N365 1.427 . S
C358 H349 0.930 . S
C358 C356 1.378 . S
C358 C359 1.367 . S
C359 C358 1.367 . S
C359 C361 1.433 . S
C360 C356 1.350 . S
C360 C357 1.463 . S
C360 N364 1.427 . S
C361 H351 0.929 . S
C361 C359 1.433 . S
C361 N364 1.384 . S
C362 H353 0.929 . S
C362 C354 1.378 . S
C362 C357 1.350 . S
C363 H350 0.929 . S
C363 C355 1.433 . S
C363 N365 1.384 . S
N364 C360 1.427 . S
N364 C361 1.384 . S
N365 C357 1.427 . S
N365 C363 1.384 . S
H366 C372 0.930 . S
H367 C376 0.930 . S
H368 C381 0.929 . S
H369 C379 0.929 . S
H370 C374 0.929 . S
H371 C380 0.929 . S
C372 H366 0.930 . S
C372 C373 1.367 1_655 S
C372 C380 1.378 . S
C373 C372 1.367 1_455 S
C373 C381 1.433 . S
C374 H370 0.929 . S
C374 C376 1.378 . S
C374 C378 1.350 . S
C375 C378 1.463 1_554 S
C375 C380 1.350 . S
C375 N383 1.427 . S
C376 H367 0.930 . S
C376 C374 1.378 . S
C376 C377 1.367 . S
C377 C376 1.367 . S
C377 C379 1.433 . S
C378 C374 1.350 . S
C378 C375 1.463 1_556 S
C378 N382 1.427 . S
C379 H369 0.929 . S
C379 C377 1.433 . S
C379 N382 1.384 . S
C380 H371 0.929 . S
C380 C372 1.378 . S
C380 C375 1.350 . S
C381 H368 0.929 . S
C381 C373 1.433 . S
C381 N383 1.384 1_455 S
N382 C378 1.427 . S
N382 C379 1.384 . S
N383 C375 1.427 . S
N383 C381 1.384 1_655 S
H384 C390 0.930 . S
H385 C394 0.930 . S
H386 C399 0.929 1_545 S
H387 C397 0.929 . S
H388 C392 0.929 . S
H389 C398 0.929 . S
C390 H384 0.930 . S
C390 C391 1.365 1_565 S
C390 C398 1.378 . S
C391 C390 1.365 1_545 S
C391 C399 1.429 1_545 S
C392 H388 0.929 . S
C392 C394 1.378 . S
C392 C396 1.350 . S
C393 C396 1.463 . S
C393 C398 1.350 . S
C393 N401 1.427 . S
C394 H385 0.930 . S
C394 C392 1.378 . S
C394 C395 1.367 . S
C395 C394 1.367 . S
C395 C397 1.433 . S
C396 C392 1.350 . S
C396 C393 1.463 . S
C396 N400 1.427 . S
C397 H387 0.929 . S
C397 C395 1.433 . S
C397 N400 1.384 . S
C398 H389 0.929 . S
C398 C390 1.378 . S
C398 C393 1.350 . S
C399 H386 0.929 1_565 S
C399 C391 1.429 1_565 S
C399 N401 1.384 . S
N400 C396 1.427 . S
N400 C397 1.384 . S
N401 C393 1.427 . S
N401 C399 1.384 . S
H402 C408 0.930 . S
H403 C412 0.930 . S
H404 C417 0.929 . S
H405 C415 0.929 . S
H406 C410 0.929 . S
H407 C416 0.929 . S
C408 H402 0.930 . S
C408 C409 1.367 . S
C408 C416 1.378 . S
C409 C408 1.367 . S
C409 C417 1.433 . S
C410 H406 0.929 . S
C410 C412 1.378 . S
C410 C414 1.350 . S
C411 C414 1.463 . S
C411 C416 1.350 . S
C411 N419 1.427 . S
C412 H403 0.930 . S
C412 C410 1.378 . S
C412 C413 1.367 . S
C413 C412 1.367 . S
C413 C415 1.433 . S
C414 C410 1.350 . S
C414 C411 1.463 . S
C414 N418 1.427 . S
C415 H405 0.929 . S
C415 C413 1.433 . S
C415 N418 1.384 . S
C416 H407 0.929 . S
C416 C408 1.378 . S
C416 C411 1.350 . S
C417 H404 0.929 . S
C417 C409 1.433 . S
C417 N419 1.384 . S
N418 C414 1.427 . S
N418 C415 1.384 . S
N419 C411 1.427 . S
N419 C417 1.384 . S
H420 C426 0.930 . S
H421 C430 0.930 . S
H422 C435 0.929 . S
H423 C433 0.929 . S
H424 C428 0.929 . S
H425 C434 0.929 . S
C426 H420 0.930 . S
C426 C427 1.367 1_455 S
C426 C434 1.378 . S
C427 C426 1.367 1_655 S
C427 C435 1.433 . S
C428 H424 0.929 . S
C428 C430 1.378 . S
C428 C432 1.350 . S
C429 C432 1.463 . S
C429 C434 1.350 . S
C429 N437 1.427 . S
C430 H421 0.930 . S
C430 C428 1.378 . S
C430 C431 1.367 . S
C431 C430 1.367 . S
C431 C433 1.433 . S
C432 C428 1.350 . S
C432 C429 1.463 . S
C432 N436 1.427 . S
C433 H423 0.929 . S
C433 C431 1.433 . S
C433 N436 1.384 . S
C434 H425 0.929 . S
C434 C426 1.378 . S
C434 C429 1.350 . S
C435 H422 0.929 . S
C435 C427 1.433 . S
C435 N437 1.384 1_655 S
N436 C432 1.427 . S
N436 C433 1.384 . S
N437 C429 1.427 . S
N437 C435 1.384 1_455 S
H438 C444 0.930 . S
H439 C448 0.930 . S
H440 C453 0.929 . S
H441 C451 0.929 . S
H442 C446 0.929 . S
H443 C452 0.929 . S
C444 H438 0.930 . S
C444 C445 1.369 1_545 S
C444 C452 1.378 . S
C445 C444 1.369 1_565 S
C445 C453 1.433 . S
C446 H442 0.929 . S
C446 C448 1.378 . S
C446 C450 1.350 . S
C447 C450 1.463 . S
C447 C452 1.350 . S
C447 N455 1.427 . S
C448 H439 0.930 . S
C448 C446 1.378 . S
C448 C449 1.367 . S
C449 C448 1.367 . S
C449 C451 1.433 . S
C450 C446 1.350 . S
C450 C447 1.463 . S
C450 N454 1.427 . S
C451 H441 0.929 . S
C451 C449 1.433 . S
C451 N454 1.384 . S
C452 H443 0.929 . S
C452 C444 1.378 . S
C452 C447 1.350 . S
C453 H440 0.929 . S
C453 C445 1.433 . S
C453 N455 1.384 1_565 S
N454 C450 1.427 . S
N454 C451 1.384 . S
N455 C447 1.427 . S
N455 C453 1.384 1_545 S
C139 C18 0.831 . S
C143 C52 0.827 . S
C157 C37 0.969 . S
C161 C73 0.966 . S
C175 C106 0.903 . S
C179 C51 0.893 . S
C193 C118 0.832 . S
C197 C74 0.826 . S
C211 C15 0.964 1_556 S
C215 C103 0.972 . S
C229 C40 0.903 . S
C233 C117 0.892 1_554 S
C247 C125 1.351 . S
C251 C10 1.361 . S
C265 C8 1.350 . S
C269 C29 1.345 . S
C283 C65 1.361 . S
C287 C43 1.375 . S
C301 C84 1.361 . S
C305 C59 1.351 . S
C319 C95 1.331 . S
C323 C76 1.355 . S
C337 C131 1.369 . S
C341 C109 1.370 . S
C355 C98 1.333 . S
C359 C120 1.331 . S
C373 C21 1.329 . S
C377 C128 1.365 . S
C391 C30 1.360 . S
C395 C7 1.330 . S
C409 C32 1.334 . S
C413 C54 1.331 . S
C427 C81 1.342 . S
C431 C62 1.359 . S
C445 C96 1.349 . S
C449 C87 1.338 . S
