# Generated by pormake.
# Topology wlt, (5)-cn, num edge types: 1
# Building blocks:
#     Node 0, Type 0, BuildingBlock: XOMCOT_clean_sbu_1, # of connection points: 5
#     Node 1, Type 0, BuildingBlock: XOMCOT_clean_sbu_1, # of connection points: 5
#     Node 2, Type 0, BuildingBlock: XOMCOT_clean_sbu_1, # of connection points: 5
#     Node 3, Type 0, BuildingBlock: XOMCOT_clean_sbu_1, # of connection points: 5
#     Node 4, Type 0, BuildingBlock: XOMCOT_clean_sbu_1, # of connection points: 5
#     Node 5, Type 0, BuildingBlock: XOMCOT_clean_sbu_1, # of connection points: 5
#     Node 6, Type 0, BuildingBlock: XOMCOT_clean_sbu_1, # of connection points: 5
#     Node 7, Type 0, BuildingBlock: XOMCOT_clean_sbu_1, # of connection points: 5
#     Node 8, Type 0, BuildingBlock: XOMCOT_clean_sbu_1, # of connection points: 5
#     Node 9, Type 0, BuildingBlock: XOMCOT_clean_sbu_1, # of connection points: 5
#     Node 10, Type 0, BuildingBlock: XOMCOT_clean_sbu_1, # of connection points: 5
#     Node 11, Type 0, BuildingBlock: XOMCOT_clean_sbu_1, # of connection points: 5
#     Node 12, Type 0, BuildingBlock: XOMCOT_clean_sbu_1, # of connection points: 5
#     Node 13, Type 0, BuildingBlock: XOMCOT_clean_sbu_1, # of connection points: 5
#     Node 14, Type 0, BuildingBlock: XOMCOT_clean_sbu_1, # of connection points: 5
#     Node 15, Type 0, BuildingBlock: XOMCOT_clean_sbu_1, # of connection points: 5
#     Node 16, Type 0, BuildingBlock: XOMCOT_clean_sbu_1, # of connection points: 5
#     Node 17, Type 0, BuildingBlock: XOMCOT_clean_sbu_1, # of connection points: 5
#     Node 18, Type 0, BuildingBlock: XOMCOT_clean_sbu_1, # of connection points: 5
#     Node 19, Type 0, BuildingBlock: XOMCOT_clean_sbu_1, # of connection points: 5
#     Node 20, Type 0, BuildingBlock: XOMCOT_clean_sbu_1, # of connection points: 5
#     Node 21, Type 0, BuildingBlock: XOMCOT_clean_sbu_1, # of connection points: 5
#     Node 22, Type 0, BuildingBlock: XOMCOT_clean_sbu_1, # of connection points: 5
#     Node 23, Type 0, BuildingBlock: XOMCOT_clean_sbu_1, # of connection points: 5
#     Node 24, Type 0, BuildingBlock: XOMCOT_clean_sbu_1, # of connection points: 5
#     Node 25, Type 0, BuildingBlock: XOMCOT_clean_sbu_1, # of connection points: 5
#     Node 26, Type 0, BuildingBlock: XOMCOT_clean_sbu_1, # of connection points: 5
#     Node 27, Type 0, BuildingBlock: XOMCOT_clean_sbu_1, # of connection points: 5
#     Node 28, Type 0, BuildingBlock: XOMCOT_clean_sbu_1, # of connection points: 5
#     Node 29, Type 0, BuildingBlock: XOMCOT_clean_sbu_1, # of connection points: 5
#     Node 30, Type 0, BuildingBlock: XOMCOT_clean_sbu_1, # of connection points: 5
#     Node 31, Type 0, BuildingBlock: XOMCOT_clean_sbu_1, # of connection points: 5
#     Node 32, Type 0, BuildingBlock: XOMCOT_clean_sbu_1, # of connection points: 5
#     Node 33, Type 0, BuildingBlock: XOMCOT_clean_sbu_1, # of connection points: 5
#     Node 34, Type 0, BuildingBlock: XOMCOT_clean_sbu_1, # of connection points: 5
#     Node 35, Type 0, BuildingBlock: XOMCOT_clean_sbu_1, # of connection points: 5
#     Edge 36, Type (0, 0), BuildingBlock: XIVTED_clean_linker_0, # of connection points: 2
#     Edge 37, Type (0, 0), BuildingBlock: XIVTED_clean_linker_0, # of connection points: 2
#     Edge 38, Type (0, 0), BuildingBlock: XIVTED_clean_linker_0, # of connection points: 2
#     Edge 39, Type (0, 0), BuildingBlock: XIVTED_clean_linker_0, # of connection points: 2
#     Edge 40, Type (0, 0), BuildingBlock: XIVTED_clean_linker_0, # of connection points: 2
#     Edge 41, Type (0, 0), BuildingBlock: XIVTED_clean_linker_0, # of connection points: 2
#     Edge 42, Type (0, 0), BuildingBlock: XIVTED_clean_linker_0, # of connection points: 2
#     Edge 43, Type (0, 0), BuildingBlock: XIVTED_clean_linker_0, # of connection points: 2
#     Edge 44, Type (0, 0), BuildingBlock: XIVTED_clean_linker_0, # of connection points: 2
#     Edge 45, Type (0, 0), BuildingBlock: XIVTED_clean_linker_0, # of connection points: 2
#     Edge 46, Type (0, 0), BuildingBlock: XIVTED_clean_linker_0, # of connection points: 2
#     Edge 47, Type (0, 0), BuildingBlock: XIVTED_clean_linker_0, # of connection points: 2
#     Edge 48, Type (0, 0), BuildingBlock: XIVTED_clean_linker_0, # of connection points: 2
#     Edge 49, Type (0, 0), BuildingBlock: XIVTED_clean_linker_0, # of connection points: 2
#     Edge 50, Type (0, 0), BuildingBlock: XIVTED_clean_linker_0, # of connection points: 2
#     Edge 51, Type (0, 0), BuildingBlock: XIVTED_clean_linker_0, # of connection points: 2
#     Edge 52, Type (0, 0), BuildingBlock: XIVTED_clean_linker_0, # of connection points: 2
#     Edge 53, Type (0, 0), BuildingBlock: XIVTED_clean_linker_0, # of connection points: 2
#     Edge 54, Type (0, 0), BuildingBlock: XIVTED_clean_linker_0, # of connection points: 2
#     Edge 55, Type (0, 0), BuildingBlock: XIVTED_clean_linker_0, # of connection points: 2
#     Edge 56, Type (0, 0), BuildingBlock: XIVTED_clean_linker_0, # of connection points: 2
#     Edge 57, Type (0, 0), BuildingBlock: XIVTED_clean_linker_0, # of connection points: 2
#     Edge 58, Type (0, 0), BuildingBlock: XIVTED_clean_linker_0, # of connection points: 2
#     Edge 59, Type (0, 0), BuildingBlock: XIVTED_clean_linker_0, # of connection points: 2
#     Edge 60, Type (0, 0), BuildingBlock: XIVTED_clean_linker_0, # of connection points: 2
#     Edge 61, Type (0, 0), BuildingBlock: XIVTED_clean_linker_0, # of connection points: 2
#     Edge 62, Type (0, 0), BuildingBlock: XIVTED_clean_linker_0, # of connection points: 2
#     Edge 63, Type (0, 0), BuildingBlock: XIVTED_clean_linker_0, # of connection points: 2
#     Edge 64, Type (0, 0), BuildingBlock: XIVTED_clean_linker_0, # of connection points: 2
#     Edge 65, Type (0, 0), BuildingBlock: XIVTED_clean_linker_0, # of connection points: 2
#     Edge 66, Type (0, 0), BuildingBlock: XIVTED_clean_linker_0, # of connection points: 2
#     Edge 67, Type (0, 0), BuildingBlock: XIVTED_clean_linker_0, # of connection points: 2
#     Edge 68, Type (0, 0), BuildingBlock: XIVTED_clean_linker_0, # of connection points: 2
#     Edge 69, Type (0, 0), BuildingBlock: XIVTED_clean_linker_0, # of connection points: 2
#     Edge 70, Type (0, 0), BuildingBlock: XIVTED_clean_linker_0, # of connection points: 2
#     Edge 71, Type (0, 0), BuildingBlock: XIVTED_clean_linker_0, # of connection points: 2
#     Edge 72, Type (0, 0), BuildingBlock: XIVTED_clean_linker_0, # of connection points: 2
#     Edge 73, Type (0, 0), BuildingBlock: XIVTED_clean_linker_0, # of connection points: 2
#     Edge 74, Type (0, 0), BuildingBlock: XIVTED_clean_linker_0, # of connection points: 2
#     Edge 75, Type (0, 0), BuildingBlock: XIVTED_clean_linker_0, # of connection points: 2
#     Edge 76, Type (0, 0), BuildingBlock: XIVTED_clean_linker_0, # of connection points: 2
#     Edge 77, Type (0, 0), BuildingBlock: XIVTED_clean_linker_0, # of connection points: 2
#     Edge 78, Type (0, 0), BuildingBlock: XIVTED_clean_linker_0, # of connection points: 2
#     Edge 79, Type (0, 0), BuildingBlock: XIVTED_clean_linker_0, # of connection points: 2
#     Edge 80, Type (0, 0), BuildingBlock: XIVTED_clean_linker_0, # of connection points: 2
#     Edge 81, Type (0, 0), BuildingBlock: XIVTED_clean_linker_0, # of connection points: 2
#     Edge 82, Type (0, 0), BuildingBlock: XIVTED_clean_linker_0, # of connection points: 2
#     Edge 83, Type (0, 0), BuildingBlock: XIVTED_clean_linker_0, # of connection points: 2
#     Edge 84, Type (0, 0), BuildingBlock: XIVTED_clean_linker_0, # of connection points: 2
#     Edge 85, Type (0, 0), BuildingBlock: XIVTED_clean_linker_0, # of connection points: 2
#     Edge 86, Type (0, 0), BuildingBlock: XIVTED_clean_linker_0, # of connection points: 2
#     Edge 87, Type (0, 0), BuildingBlock: XIVTED_clean_linker_0, # of connection points: 2
#     Edge 88, Type (0, 0), BuildingBlock: XIVTED_clean_linker_0, # of connection points: 2
#     Edge 89, Type (0, 0), BuildingBlock: XIVTED_clean_linker_0, # of connection points: 2
#     Edge 90, Type (0, 0), BuildingBlock: XIVTED_clean_linker_0, # of connection points: 2
#     Edge 91, Type (0, 0), BuildingBlock: XIVTED_clean_linker_0, # of connection points: 2
#     Edge 92, Type (0, 0), BuildingBlock: XIVTED_clean_linker_0, # of connection points: 2
#     Edge 93, Type (0, 0), BuildingBlock: XIVTED_clean_linker_0, # of connection points: 2
#     Edge 94, Type (0, 0), BuildingBlock: XIVTED_clean_linker_0, # of connection points: 2
#     Edge 95, Type (0, 0), BuildingBlock: XIVTED_clean_linker_0, # of connection points: 2
#     Edge 96, Type (0, 0), BuildingBlock: XIVTED_clean_linker_0, # of connection points: 2
#     Edge 97, Type (0, 0), BuildingBlock: XIVTED_clean_linker_0, # of connection points: 2
#     Edge 98, Type (0, 0), BuildingBlock: XIVTED_clean_linker_0, # of connection points: 2
#     Edge 99, Type (0, 0), BuildingBlock: XIVTED_clean_linker_0, # of connection points: 2
#     Edge 100, Type (0, 0), BuildingBlock: XIVTED_clean_linker_0, # of connection points: 2
#     Edge 101, Type (0, 0), BuildingBlock: XIVTED_clean_linker_0, # of connection points: 2
#     Edge 102, Type (0, 0), BuildingBlock: XIVTED_clean_linker_0, # of connection points: 2
#     Edge 103, Type (0, 0), BuildingBlock: XIVTED_clean_linker_0, # of connection points: 2
#     Edge 104, Type (0, 0), BuildingBlock: XIVTED_clean_linker_0, # of connection points: 2
#     Edge 105, Type (0, 0), BuildingBlock: XIVTED_clean_linker_0, # of connection points: 2
#     Edge 106, Type (0, 0), BuildingBlock: XIVTED_clean_linker_0, # of connection points: 2
#     Edge 107, Type (0, 0), BuildingBlock: XIVTED_clean_linker_0, # of connection points: 2
#     Edge 108, Type (0, 0), BuildingBlock: XIVTED_clean_linker_0, # of connection points: 2
#     Edge 109, Type (0, 0), BuildingBlock: XIVTED_clean_linker_0, # of connection points: 2
#     Edge 110, Type (0, 0), BuildingBlock: XIVTED_clean_linker_0, # of connection points: 2
#     Edge 111, Type (0, 0), BuildingBlock: XIVTED_clean_linker_0, # of connection points: 2
#     Edge 112, Type (0, 0), BuildingBlock: XIVTED_clean_linker_0, # of connection points: 2
#     Edge 113, Type (0, 0), BuildingBlock: XIVTED_clean_linker_0, # of connection points: 2
#     Edge 114, Type (0, 0), BuildingBlock: XIVTED_clean_linker_0, # of connection points: 2
#     Edge 115, Type (0, 0), BuildingBlock: XIVTED_clean_linker_0, # of connection points: 2
#     Edge 116, Type (0, 0), BuildingBlock: XIVTED_clean_linker_0, # of connection points: 2
#     Edge 117, Type (0, 0), BuildingBlock: XIVTED_clean_linker_0, # of connection points: 2
#     Edge 118, Type (0, 0), BuildingBlock: XIVTED_clean_linker_0, # of connection points: 2
#     Edge 119, Type (0, 0), BuildingBlock: XIVTED_clean_linker_0, # of connection points: 2
#     Edge 120, Type (0, 0), BuildingBlock: XIVTED_clean_linker_0, # of connection points: 2
#     Edge 121, Type (0, 0), BuildingBlock: XIVTED_clean_linker_0, # of connection points: 2
#     Edge 122, Type (0, 0), BuildingBlock: XIVTED_clean_linker_0, # of connection points: 2
#     Edge 123, Type (0, 0), BuildingBlock: XIVTED_clean_linker_0, # of connection points: 2
#     Edge 124, Type (0, 0), BuildingBlock: XIVTED_clean_linker_0, # of connection points: 2
#     Edge 125, Type (0, 0), BuildingBlock: XIVTED_clean_linker_0, # of connection points: 2
# Relax obj value: 0.186
# Max RMSD: 0.191
# Mean RMSD: 0.191
data_MOF--net-wlt--node1-XOMCOT_clean_sbu_1--edge1-XIVTED_clean_linker_0
_symmetry_space_group_name_H-M    P1
_symmetry_Int_Tables_number       1
_symmetry_cell_setting            triclinic
loop_
_symmetry_equiv_pos_as_xyz
'x, y, z'
_cell_length_a     65.335404
_cell_length_b     65.320498
_cell_length_c     50.665757
_cell_angle_alpha  89.936082
_cell_angle_beta   90.036203
_cell_angle_gamma 120.12924
loop_
_atom_site_label
_atom_site_type_symbol
_atom_site_fract_x
_atom_site_fract_y
_atom_site_fract_z
_atom_type_partial_charge
C0 C 0.21478 0.19024 0.03865 0.0
C1 C 0.19625 0.19412 0.03464 0.0
N2 N 0.20479 0.21765 0.03385 0.0
N3 N 0.23508 0.21116 0.0403 0.0
C4 C 0.22849 0.22765 0.0371 0.0
H5 H 0.21343 0.17318 0.04119 0.0
Co6 Co 0.26307 0.21233 0.05026 0.0
C7 C 0.30034 0.26253 0.05574 0.0
O8 O 0.30836 0.25565 0.0756 0.0
N9 N 0.29115 0.21219 0.06017 0.0
C10 C 0.32714 0.21644 0.05721 0.0
C11 C 0.31043 0.21981 0.04458 0.0
C12 C 0.29655 0.20385 0.082 0.0
N13 N 0.31839 0.20646 0.08084 0.0
O14 O 0.2669 0.20396 0.01504 0.0
H15 H 0.31235 0.22762 0.02525 0.0
H16 H 0.28472 0.19556 0.09835 0.0
O17 O 0.282 0.24712 0.04292 0.0
C18 C 0.26014 0.18193 0.01604 0.0
O19 O 0.25265 0.17073 0.03864 0.0
N20 N 0.25705 0.2176 0.08481 0.0
C21 C 0.24425 0.21898 0.13666 0.0
C22 C 0.25233 0.23892 0.12041 0.0
C23 C 0.25808 0.23768 0.09426 0.0
C24 C 0.24681 0.19742 0.09952 0.0
C25 C 0.24078 0.19779 0.12577 0.0
H26 H 0.26277 0.25273 0.08176 0.0
H27 H 0.2439 0.18102 0.09091 0.0
H28 H 0.24056 0.24651 0.03842 0.0
H29 H 0.17782 0.1806 0.03268 0.0
H30 H 0.3445 0.22132 0.04968 0.0
H31 H 0.25398 0.25524 0.12778 0.0
H32 H 0.23405 0.18184 0.13752 0.0
C33 C 0.85025 0.03465 0.04371 0.0
C34 C 0.84659 1.01272 0.03693 0.0
N35 N 0.82309 0.99753 0.03581 0.0
N36 N 0.82922 0.03347 0.04685 0.0
C37 C 0.81291 1.01064 0.04156 0.0
H38 H 0.86721 0.05031 0.04726 0.0
Co39 Co 0.82746 0.05883 0.06102 0.0
C40 C 0.77764 0.04182 0.07399 0.0
O41 O 0.78603 0.05404 0.09586 0.0
N42 N 0.82656 0.08551 0.07495 0.0
C43 C 0.81835 0.11477 0.07646 0.0
C44 C 0.81531 0.09542 0.06254 0.0
C45 C 0.83685 0.09974 0.09612 0.0
N46 N 0.83191 0.11746 0.09762 0.0
O47 O 0.83354 0.07345 0.02671 0.0
H48 H 0.80542 0.08891 0.04438 0.0
H49 H 0.84774 0.0974 0.11036 0.0
O50 O 0.79212 0.04198 0.05659 0.0
C51 C 0.8553 0.0897 0.02736 0.0
O52 O 0.86755 0.09227 0.04892 0.0
N53 N 0.82467 0.04538 0.09442 0.0
C54 C 0.82443 0.02945 0.14516 0.0
C55 C 0.80552 0.01608 0.12804 0.0
C56 C 0.80629 0.02404 0.10242 0.0
C57 C 0.84462 0.05652 0.10943 0.0
C58 C 0.84471 0.04926 0.13527 0.0
H59 H 0.79183 1.01315 0.08936 0.0
H60 H 0.86033 0.07161 0.10152 0.0
H61 H 0.79401 1.00346 0.04334 0.0
H62 H 0.86023 1.00825 0.03352 0.0
H63 H 0.81146 0.12621 0.07111 0.0
H64 H 0.79009 0.99988 0.13456 0.0
H65 H 0.86005 0.05961 0.14763 0.0
C66 C 1.00499 0.82461 0.04088 0.0
C67 C 0.02723 0.84306 0.03547 0.0
N68 N 0.04203 0.83444 0.03317 0.0
N69 N 1.00557 0.80431 0.04195 0.0
C70 C 0.02841 0.81078 0.03691 0.0
H71 H 0.98948 0.82601 0.04483 0.0
Co72 Co 0.9793 0.77656 0.05363 0.0
C73 C 0.99294 0.74033 0.06056 0.0
O74 O 0.98031 0.73452 0.08231 0.0
N75 N 0.95163 0.74857 0.06516 0.0
C76 C 0.92055 0.71196 0.0635 0.0
C77 C 0.94049 0.72857 0.05055 0.0
C78 C 0.93763 0.74369 0.0867 0.0
N79 N 0.91876 0.72151 0.08626 0.0
O80 O 0.96548 0.77137 0.019 0.0
H81 H 0.94653 0.72621 0.03154 0.0
H82 H 0.94096 0.75593 0.10256 0.0
O83 O 0.99494 0.7575 0.04615 0.0
C84 C 0.9499 0.77767 0.0205 0.0
O85 O 0.94715 0.78597 0.04301 0.0
N86 N 0.99209 0.78391 0.08758 0.0
C87 C 1.0087 0.79825 0.1385 0.0
C88 C 0.02061 0.79105 0.12126 0.0
C89 C 1.01237 0.78454 0.09559 0.0
C90 C 0.98201 0.79344 0.10311 0.0
C91 C 0.98964 0.8002 0.12895 0.0
H92 H 0.02259 0.78037 0.08227 0.0
H93 H 0.96765 0.79543 0.09544 0.0
H94 H 0.03515 0.79867 0.03732 0.0
H95 H 0.03216 0.86149 0.03366 0.0
H96 H 0.90808 0.69439 0.0564 0.0
H97 H 0.03622 0.79056 0.12754 0.0
H98 H 0.98033 0.80629 0.14145 0.0
C99 C 0.19534 0.20116 0.42715 0.0
C100 C 0.19954 0.1829 0.43165 0.0
N101 N 0.22305 0.19193 0.43415 0.0
N102 N 0.21602 0.22177 0.42687 0.0
C103 C 0.23271 0.21566 0.43144 0.0
H104 H 0.17827 0.19945 0.42336 0.0
Co105 Co 0.21657 0.24944 0.41679 0.0
C106 C 0.26606 0.28719 0.41035 0.0
O107 O 0.2586 0.2936 0.38957 0.0
N108 N 0.21579 0.27728 0.40684 0.0
C109 C 0.21975 0.31314 0.41042 0.0
C110 C 0.22371 0.29658 0.42246 0.0
C111 C 0.20671 0.28256 0.38554 0.0
N112 N 0.20909 0.3043 0.38712 0.0
O113 O 0.20795 0.25312 0.45199 0.0
H114 H 0.23206 0.29859 0.44146 0.0
H115 H 0.19798 0.27071 0.36931 0.0
O116 O 0.25135 0.26916 0.42411 0.0
C117 C 0.18589 0.24622 0.45102 0.0
O118 O 0.17465 0.23834 0.42851 0.0
N119 N 0.22218 0.2436 0.38228 0.0
C120 C 0.22531 0.23247 0.33022 0.0
C121 C 0.24442 0.23929 0.34744 0.0
C122 C 0.24227 0.24417 0.37365 0.0
C123 C 0.20257 0.23418 0.36667 0.0
C124 C 0.20386 0.22905 0.34027 0.0
H125 H 0.25673 0.24815 0.38685 0.0
H126 H 0.18594 0.23118 0.37467 0.0
H127 H 0.25154 0.22813 0.43151 0.0
H128 H 0.18626 0.16432 0.43277 0.0
H129 H 0.22466 0.33046 0.41812 0.0
H130 H 0.26085 0.24077 0.34073 0.0
H131 H 0.18845 0.22313 0.32778 0.0
C132 C 0.82835 0.99462 0.43576 0.0
C133 C 0.84704 0.0168 0.44081 0.0
N134 N 0.8387 0.03184 0.44315 0.0
N135 N 0.8082 0.99548 0.43495 0.0
C136 C 0.81499 0.01843 0.43977 0.0
H137 H 0.82948 0.97895 0.43191 0.0
Co138 Co 0.78017 0.96927 0.42389 0.0
C139 C 0.74441 0.98353 0.41642 0.0
O140 O 0.73807 0.97017 0.39523 0.0
N141 N 0.75188 0.94162 0.41296 0.0
C142 C 0.71511 0.91083 0.41502 0.0
C143 C 0.73199 0.93074 0.42779 0.0
C144 C 0.74666 0.92752 0.39148 0.0
N145 N 0.7244 0.90882 0.39216 0.0
O146 O 0.77505 0.95611 0.45887 0.0
H147 H 0.72986 0.93698 0.44679 0.0
H148 H 0.75869 0.9307 0.37544 0.0
O149 O 0.76165 0.98563 0.43077 0.0
C150 C 0.78123 0.94042 0.45767 0.0
O151 O 0.7892 0.93718 0.43519 0.0
N152 N 0.78748 0.98135 0.38965 0.0
C153 C 0.80211 0.99691 0.33848 0.0
C154 C 0.79495 1.00926 0.35511 0.0
C155 C 0.78831 1.00156 0.38093 0.0
C156 C 0.79693 0.97084 0.3747 0.0
C157 C 0.80384 0.97794 0.34875 0.0
H158 H 0.78426 1.01215 0.39381 0.0
H159 H 0.79869 0.9565 0.3829 0.0
H160 H 0.80305 0.02539 0.43949 0.0
H161 H 0.86542 0.02153 0.4424 0.0
H162 H 0.69754 0.89857 0.42227 0.0
H163 H 0.79463 0.02482 0.34825 0.0
H164 H 0.80987 0.96831 0.33673 0.0
C165 C 0.03752 0.84133 0.43006 0.0
C166 C 1.01528 0.83748 0.43541 0.0
N167 N 1.00058 0.81403 0.43847 0.0
N168 N 0.03704 0.82049 0.42975 0.0
C169 C 1.01428 0.80408 0.4352 0.0
H170 H 0.05298 0.85825 0.42572 0.0
Co171 Co 0.06338 0.81885 0.41891 0.0
C172 C 0.04739 0.76911 0.40656 0.0
O173 O 0.06157 0.7777 0.38609 0.0
N174 N 0.09106 0.81815 0.40839 0.0
C175 C 0.12065 0.81046 0.41069 0.0
C176 C 0.10041 0.80732 0.42267 0.0
C177 C 0.10639 0.82816 0.38802 0.0
N178 N 0.12435 0.82354 0.3888 0.0
O179 O 0.07526 0.82475 0.45448 0.0
H180 H 0.09281 0.79749 0.44067 0.0
H181 H 0.10498 0.83909 0.37307 0.0
O182 O 0.04619 0.78346 0.42311 0.0
C183 C 0.09068 0.84681 0.45462 0.0
O184 O 0.09434 0.85907 0.4328 0.0
N185 N 0.05257 0.81629 0.38419 0.0
C186 C 0.03985 0.81687 0.33215 0.0
C187 C 0.02556 0.79759 0.34845 0.0
C188 C 0.03184 0.79798 0.37474 0.0
C189 C 0.06463 0.83646 0.36968 0.0
C190 C 0.05901 0.83697 0.34326 0.0
H191 H 1.02003 0.78346 0.38727 0.0
H192 H 0.07909 0.8521 0.37854 0.0
H193 H 1.00764 0.78521 0.43552 0.0
H194 H 1.01029 0.85094 0.43676 0.0
H195 H 0.13154 0.80333 0.41739 0.0
H196 H 1.00977 0.7823 0.34091 0.0
H197 H 0.06998 0.85259 0.33152 0.0
C198 C 0.82961 0.84416 0.93495 0.0
C199 C 0.84838 0.84103 0.94061 0.0
N200 N 0.84041 0.81763 0.94214 0.0
N201 N 0.80977 0.8229 0.9329 0.0
C202 C 0.81681 0.80695 0.93773 0.0
H203 H 0.83052 0.86092 0.93136 0.0
Co204 Co 0.782 0.82073 0.9203 0.0
C205 C 0.74881 0.77089 0.90759 0.0
O206 O 0.74408 0.7795 0.8865 0.0
N207 N 0.75382 0.81957 0.908 0.0
C208 C 0.71637 0.81153 0.90849 0.0
C209 C 0.73318 0.80863 0.9215 0.0
C210 C 0.74906 0.82941 0.88703 0.0
N211 N 0.72638 0.82462 0.88676 0.0
O212 O 0.77474 0.82677 0.95526 0.0
H213 H 0.73051 0.79907 0.9398 0.0
H214 H 0.7617 0.83982 0.87204 0.0
O215 O 0.76381 0.78528 0.92465 0.0
C216 C 0.78043 0.84857 0.95471 0.0
O217 O 0.78907 0.8606 0.93276 0.0
N218 N 0.79159 0.81813 0.88627 0.0
C219 C 0.80765 0.81881 0.8355 0.0
C220 C 0.80194 0.79963 0.85222 0.0
C221 C 0.79458 0.79992 0.87784 0.0
C222 C 0.80019 0.83822 0.87151 0.0
C223 C 0.80775 0.83878 0.84567 0.0
H224 H 0.79127 0.78542 0.89069 0.0
H225 H 0.80072 0.85375 0.8797 0.0
H226 H 0.80522 0.78798 0.93654 0.0
H227 H 0.86661 0.85493 0.94297 0.0
H228 H 0.6983 0.80486 0.91485 0.0
H229 H 0.80296 0.78443 0.84545 0.0
H230 H 0.81282 0.85429 0.83359 0.0
C231 C 0.18924 0.99322 0.9297 0.0
C232 C 0.19162 0.01471 0.93623 0.0
N233 N 0.21487 0.03073 0.93812 0.0
N234 N 0.21084 0.99555 0.92748 0.0
C235 C 0.22617 0.01855 0.93313 0.0
H236 H 0.1728 0.9771 0.92566 0.0
Co237 Co 0.21475 0.9713 0.91392 0.0
C238 C 0.26472 0.99166 0.90018 0.0
O239 O 0.25664 0.97941 0.87828 0.0
N240 N 0.21801 0.94575 0.90078 0.0
C241 C 0.22891 0.91841 0.90048 0.0
C242 C 0.23064 0.93758 0.91361 0.0
C243 C 0.2084 0.93079 0.88007 0.0
N244 N 0.21487 0.91414 0.87935 0.0
O245 O 0.20978 0.95753 0.94856 0.0
H246 H 0.24046 0.94507 0.93164 0.0
H247 H 0.19685 0.93178 0.86564 0.0
O248 O 0.25002 0.99036 0.91799 0.0
C249 C 0.18843 0.94038 0.94813 0.0
O250 O 0.17603 0.93642 0.92638 0.0
N251 N 0.21627 0.98386 0.88016 0.0
C252 C 0.2133 1.00058 0.83051 0.0
C253 C 0.23178 0.01484 0.84784 0.0
C254 C 0.23283 1.00626 0.87262 0.0
C255 C 0.1966 0.97117 0.8651 0.0
C256 C 0.19515 0.97865 0.83977 0.0
H257 H 0.24689 0.0179 0.88572 0.0
H258 H 0.18191 0.95504 0.87281 0.0
H259 H 0.24521 0.02655 0.93204 0.0
H260 H 0.1773 0.01833 0.93886 0.0
H261 H 0.23692 0.9081 0.90643 0.0
H262 H 0.24535 0.0326 0.8425 0.0
H263 H 0.18009 0.96713 0.82763 0.0
C264 C 0.03833 0.20895 0.93862 0.0
C265 C 1.01587 0.1909 0.9439 0.0
N266 N 1.00137 0.19994 0.945 0.0
N267 N 0.03822 0.22944 0.93643 0.0
C268 C 1.01539 0.22348 0.94064 0.0
H269 H 0.05368 0.2071 0.93551 0.0
Co270 Co 0.06515 0.25652 0.92454 0.0
C271 C 0.05328 0.29383 0.91493 0.0
O272 O 0.06687 0.29918 0.89399 0.0
N273 N 0.09347 0.28372 0.91279 0.0
C274 C 0.12523 0.31993 0.91363 0.0
C275 C 0.10533 0.30386 0.92707 0.0
C276 C 0.10698 0.28798 0.89093 0.0
N277 N 0.12623 0.30991 0.89086 0.0
O278 O 0.07831 0.26237 0.95957 0.0
H279 H 0.09969 0.30678 0.94606 0.0
H280 H 0.10285 0.27559 0.87504 0.0
O281 O 0.05011 0.27651 0.92989 0.0
C282 C 0.09332 0.25528 0.9591 0.0
O283 O 0.09578 0.24592 0.93724 0.0
N284 N 0.05301 0.24848 0.8904 0.0
C285 C 0.0376 0.23295 0.83943 0.0
C286 C 0.02597 0.24162 0.85508 0.0
C287 C 0.03356 0.2487 0.88086 0.0
C288 C 0.06271 0.23764 0.87646 0.0
C289 C 0.05566 0.2302 0.85063 0.0
H290 H 0.0235 0.25399 0.89302 0.0
H291 H 0.0765 0.23535 0.88529 0.0
H292 H 1.00896 0.23582 0.93922 0.0
H293 H 1.01057 0.17244 0.94648 0.0
H294 H 0.13807 0.33753 0.92028 0.0
H295 H 1.0111 0.24282 0.8475 0.0
H296 H 0.06474 0.22307 0.83936 0.0
C297 C 0.84956 0.82119 0.54281 0.0
C298 C 0.84657 0.84002 0.53688 0.0
N299 N 0.82321 0.83222 0.53554 0.0
N300 N 0.82824 0.80148 0.54521 0.0
C301 C 0.81241 0.80866 0.5403 0.0
H302 H 0.86627 0.82199 0.54634 0.0
Co303 Co 0.82581 0.77371 0.55828 0.0
C304 C 0.77588 0.74098 0.57083 0.0
O305 O 0.7842 0.73636 0.59225 0.0
N306 N 0.82434 0.7455 0.57108 0.0
C307 C 0.81595 0.70792 0.57108 0.0
C308 C 0.81324 0.72475 0.55781 0.0
C309 C 0.83408 0.74077 0.59218 0.0
N310 N 0.82908 0.71802 0.59275 0.0
O311 O 0.83181 0.76605 0.52355 0.0
H312 H 0.80372 0.72201 0.53948 0.0
H313 H 0.84461 0.75351 0.60702 0.0
O314 O 0.79045 0.75572 0.55372 0.0
C315 C 0.85351 0.77143 0.52402 0.0
O316 O 0.86568 0.78013 0.54585 0.0
N317 N 0.82312 0.78362 0.59213 0.0
C318 C 0.82343 0.79986 0.64271 0.0
C319 C 0.80449 0.79435 0.62569 0.0
C320 C 0.80498 0.78687 0.60018 0.0
C321 C 0.84302 0.79208 0.60716 0.0
C322 C 0.84338 0.79971 0.63292 0.0
H323 H 0.79063 0.78363 0.58714 0.0
H324 H 0.85857 0.79244 0.59924 0.0
H325 H 0.79343 0.7972 0.54171 0.0
H326 H 0.86057 0.85818 0.53425 0.0
H327 H 0.80914 0.68978 0.56491 0.0
H328 H 0.78934 0.79558 0.63212 0.0
H329 H 0.85873 0.80465 0.64522 0.0
C330 C 0.21014 0.03452 0.53841 0.0
C331 C 0.19106 1.01272 0.53268 0.0
N332 N 0.19816 0.99661 0.53322 0.0
N333 N 0.22931 0.03233 0.54254 0.0
C334 C 0.22155 1.009 0.53897 0.0
H335 H 0.20987 0.05086 0.54046 0.0
Co336 Co 0.2575 0.05743 0.55531 0.0
C337 C 0.28701 0.03771 0.57243 0.0
O338 O 0.29126 0.05094 0.59353 0.0
N339 N 0.28637 0.08366 0.56777 0.0
C340 C 0.32474 0.11095 0.56789 0.0
C341 C 0.30727 0.09135 0.55528 0.0
C342 C 0.29173 0.09928 0.58783 0.0
N343 N 0.31494 0.1159 0.58843 0.0
O344 O 0.26676 0.06926 0.51993 0.0
H345 H 0.3097 0.08309 0.538 0.0
H346 H 0.27905 0.09907 0.60153 0.0
O347 O 0.27351 0.03813 0.55415 0.0
C348 C 0.26223 0.08615 0.51869 0.0
O349 O 0.25321 0.09069 0.53952 0.0
N350 N 0.2461 0.04719 0.5894 0.0
C351 C 0.22653 0.03602 0.63948 0.0
C352 C 0.23131 0.02024 0.62589 0.0
C353 C 0.24069 0.02595 0.60047 0.0
C354 C 0.23859 0.06102 0.60109 0.0
C355 C 0.22953 0.05625 0.62659 0.0
H356 H 0.24359 1.01331 0.58989 0.0
H357 H 0.24012 0.07618 0.59068 0.0
H358 H 0.23246 1.00104 0.54189 0.0
H359 H 0.17322 1.00899 0.52875 0.0
H360 H 0.34327 0.12061 0.5625 0.0
H361 H 0.2285 1.00405 0.63508 0.0
H362 H 0.22513 0.06835 0.63622 0.0
C363 C 1.00155 0.1811 0.54625 0.0
C364 C 0.0231 0.18382 0.53938 0.0
N365 N 0.03864 0.20711 0.53647 0.0
N366 N 1.00334 0.20251 0.54765 0.0
C367 C 0.02611 0.21809 0.54129 0.0
H368 H 0.98571 0.16457 0.55087 0.0
Co369 Co 0.9787 0.206 0.56068 0.0
C370 C 0.99761 0.25644 0.57132 0.0
O371 O 0.98594 0.24942 0.5937 0.0
N372 N 0.95275 0.20875 0.57342 0.0
C373 C 0.92455 0.21848 0.57311 0.0
C374 C 0.9439 0.22054 0.56007 0.0
C375 C 0.93794 0.1992 0.59429 0.0
N376 N 0.9208 0.20502 0.59467 0.0
O377 O 0.96448 0.19944 0.52622 0.0
H378 H 0.95103 0.22999 0.54175 0.0
H379 H 0.93934 0.18807 0.60899 0.0
O380 O 0.99672 0.24107 0.55474 0.0
C381 C 0.94761 0.17798 0.52731 0.0
O382 O 0.94412 0.16615 0.54943 0.0
N383 N 0.99176 0.20932 0.59442 0.0
C384 C 1.00714 0.21068 0.64569 0.0
C385 C 0.02123 0.22864 0.62781 0.0
C386 C 1.01353 0.22725 0.60195 0.0
C387 C 0.97978 0.19007 0.61033 0.0
C388 C 0.98676 0.1906 0.63642 0.0
H389 H 0.02495 0.24091 0.5883 0.0
H390 H 0.96434 0.17445 0.60288 0.0
H391 H 0.03366 0.2371 0.54149 0.0
H392 H 0.02705 0.1697 0.53699 0.0
H393 H 0.91375 0.22585 0.56681 0.0
H394 H 0.03784 0.24379 0.63387 0.0
H395 H 0.97583 0.17591 0.64937 0.0
C396 C 0.8719 0.5209 0.37999 0.0
C397 C 0.8538 0.52519 0.37478 0.0
N398 N 0.86288 0.54877 0.37302 0.0
N399 N 0.89243 0.5416 0.38148 0.0
C400 C 0.88646 0.55837 0.37685 0.0
H401 H 0.87007 0.50374 0.3836 0.0
Co402 Co 0.91989 0.54258 0.39321 0.0
C403 C 0.95432 0.59201 0.40614 0.0
O404 O 0.95899 0.58313 0.42704 0.0
N405 N 0.94773 0.54261 0.40468 0.0
C406 C 0.98484 0.54964 0.40343 0.0
C407 C 0.96814 0.55296 0.39074 0.0
C408 C 0.95251 0.53273 0.42561 0.0
N409 N 0.97498 0.53692 0.42543 0.0
O410 O 0.92636 0.53663 0.35794 0.0
H411 H 0.97079 0.56249 0.37243 0.0
H412 H 0.94008 0.52285 0.44099 0.0
O413 O 0.93894 0.57795 0.38922 0.0
C414 C 0.91907 0.51445 0.35785 0.0
O415 O 0.90987 0.50223 0.37956 0.0
N416 N 0.91102 0.54511 0.42756 0.0
C417 C 0.89601 0.54391 0.47892 0.0
C418 C 0.9021 0.56362 0.4629 0.0
C419 C 0.9089 0.56358 0.43693 0.0
C420 C 0.90194 0.52464 0.44168 0.0
C421 C 0.89491 0.52379 0.46778 0.0
H422 H 0.91253 0.57848 0.42459 0.0
H423 H 0.90081 0.50905 0.43281 0.0
H424 H 0.89885 0.57721 0.37772 0.0
H425 H 0.83528 0.51194 0.3728 0.0
H426 H 1.00274 0.55588 0.39673 0.0
H427 H 0.90185 0.579 0.47046 0.0
H428 H 0.88955 0.50792 0.47931 0.0
C429 C 0.51373 0.36415 0.37135 0.0
C430 C 0.51015 0.34193 0.36659 0.0
N431 N 0.48668 0.32669 0.36546 0.0
N432 N 0.49268 0.36313 0.37319 0.0
C433 C 0.4764 0.34003 0.36923 0.0
H434 H 0.53067 0.37995 0.37445 0.0
Co435 Co 0.49118 0.3894 0.38468 0.0
C436 C 0.44133 0.3752 0.39318 0.0
O437 O 0.44865 0.38822 0.41461 0.0
N438 N 0.49082 0.41707 0.39599 0.0
C439 C 0.48476 0.44774 0.39418 0.0
C440 C 0.48151 0.42778 0.38143 0.0
C441 C 0.50009 0.43132 0.41734 0.0
N442 N 0.49647 0.44996 0.41681 0.0
O443 O 0.49867 0.40258 0.34972 0.0
H444 H 0.47279 0.42142 0.3626 0.0
H445 H 0.50926 0.42828 0.43315 0.0
O446 O 0.45622 0.37316 0.37836 0.0
C447 C 0.52062 0.41824 0.35046 0.0
O448 O 0.53231 0.42142 0.3726 0.0
N449 N 0.48688 0.37728 0.41887 0.0
C450 C 0.48648 0.36169 0.46988 0.0
C451 C 0.46679 0.34926 0.45344 0.0
C452 C 0.46757 0.35701 0.4277 0.0
C453 C 0.50702 0.38788 0.4336 0.0
C454 C 0.5071 0.38074 0.45948 0.0
H455 H 0.45273 0.34643 0.41499 0.0
H456 H 0.52304 0.40229 0.42529 0.0
H457 H 0.45749 0.33291 0.37055 0.0
H458 H 0.52381 0.33727 0.36453 0.0
H459 H 0.4793 0.45989 0.38705 0.0
H460 H 0.45096 0.33368 0.46041 0.0
H461 H 0.52289 0.39045 0.47137 0.0
C462 C 0.66886 0.15763 0.37191 0.0
C463 C 0.69036 0.17705 0.36606 0.0
N464 N 0.70686 0.17044 0.36592 0.0
N465 N 0.67155 0.13868 0.37541 0.0
C466 C 0.69492 0.14693 0.37127 0.0
H467 H 0.65241 0.15754 0.3746 0.0
Co468 Co 0.64662 0.1105 0.38867 0.0
C469 C 0.66412 0.07793 0.39938 0.0
O470 O 0.6524 0.07351 0.42169 0.0
N471 N 0.62029 0.08189 0.40165 0.0
C472 C 0.59112 0.04423 0.40136 0.0
C473 C 0.61083 0.06116 0.38836 0.0
C474 C 0.60557 0.07703 0.42252 0.0
N475 N 0.5878 0.05425 0.42289 0.0
O476 O 0.63231 0.10276 0.35416 0.0
H477 H 0.6178 0.05853 0.37012 0.0
H478 H 0.60705 0.0899 0.43678 0.0
O479 O 0.66432 0.09314 0.38302 0.0
C480 C 0.61536 0.10718 0.35536 0.0
O481 O 0.6119 0.11542 0.37753 0.0
N482 N 0.65959 0.12033 0.42231 0.0
C483 C 0.67685 0.13972 0.47188 0.0
C484 C 0.69008 0.13372 0.45505 0.0
C485 C 0.68125 0.12425 0.43026 0.0
C486 C 0.64788 0.12855 0.4371 0.0
C487 C 0.65563 0.13743 0.46234 0.0
H488 H 0.69219 0.12063 0.41741 0.0
H489 H 0.63235 0.12822 0.42918 0.0
H490 H 0.70324 0.1363 0.37358 0.0
H491 H 0.69365 0.19482 0.36266 0.0
H492 H 0.58013 0.02597 0.39537 0.0
H493 H 0.70728 0.13653 0.46074 0.0
H494 H 0.64486 0.14216 0.47417 0.0
C495 C 0.86389 0.53506 0.76855 0.0
C496 C 0.86886 0.51772 0.77548 0.0
N497 N 0.89188 0.52811 0.78217 0.0
N498 N 0.88364 0.55639 0.77075 0.0
C499 C 0.90047 0.55166 0.77941 0.0
H500 H 0.84709 0.53229 0.76138 0.0
Co501 Co 0.88413 0.58357 0.75871 0.0
C502 C 0.93309 0.61775 0.74409 0.0
O503 O 0.92359 0.62196 0.72344 0.0
N504 N 0.88372 0.61116 0.74701 0.0
C505 C 0.89098 0.64837 0.74805 0.0
C506 C 0.89443 0.63173 0.76064 0.0
C507 C 0.87344 0.61581 0.72635 0.0
N508 N 0.87779 0.63834 0.72641 0.0
O509 O 0.87881 0.59061 0.79393 0.0
H510 H 0.90439 0.63455 0.77866 0.0
H511 H 0.86323 0.60328 0.7112 0.0
O512 O 0.91953 0.60283 0.7617 0.0
C513 C 0.85645 0.58214 0.79466 0.0
O514 O 0.84385 0.57127 0.77369 0.0
N515 N 0.88627 0.57424 0.72443 0.0
C516 C 0.88544 0.55851 0.67349 0.0
C517 C 0.90469 0.56411 0.69007 0.0
C518 C 0.90444 0.57129 0.7158 0.0
C519 C 0.86609 0.56558 0.70986 0.0
C520 C 0.86548 0.55825 0.68393 0.0
H521 H 0.91893 0.57449 0.72865 0.0
H522 H 0.8505 0.56476 0.71831 0.0
H523 H 0.91881 0.56503 0.78241 0.0
H524 H 0.8565 0.49885 0.77543 0.0
H525 H 0.89749 0.66638 0.75454 0.0
H526 H 0.91986 0.56314 0.68314 0.0
H527 H 0.84989 0.55321 0.67202 0.0
C528 C 0.49978 0.33457 0.76194 0.0
C529 C 0.5178 0.35687 0.76802 0.0
N530 N 0.50852 0.37098 0.77171 0.0
N531 N 0.4791 0.33442 0.76179 0.0
C532 C 0.4849 0.35686 0.7681 0.0
H533 H 0.5017 0.31953 0.75701 0.0
Co534 Co 0.45151 0.30783 0.75022 0.0
C535 C 0.41773 0.32308 0.73579 0.0
O536 O 0.41325 0.30926 0.71518 0.0
N537 N 0.42349 0.27991 0.73906 0.0
C538 C 0.38611 0.25026 0.74083 0.0
C539 C 0.40298 0.27067 0.75275 0.0
C540 C 0.41858 0.26431 0.71909 0.0
N541 N 0.39593 0.24628 0.71957 0.0
O542 O 0.4446 0.29584 0.78567 0.0
H543 H 0.40036 0.27847 0.77032 0.0
H544 H 0.43124 0.26556 0.70467 0.0
O545 O 0.43276 0.32445 0.75322 0.0
C546 C 0.45167 0.28083 0.78647 0.0
O547 O 0.46148 0.27783 0.76532 0.0
N548 N 0.46059 0.31888 0.71569 0.0
C549 C 0.4743 0.33224 0.66389 0.0
C550 C 0.46964 0.34653 0.68047 0.0
C551 C 0.46349 0.33989 0.7066 0.0
C552 C 0.46858 0.30686 0.70102 0.0
C553 C 0.4749 0.3128 0.67468 0.0
H554 H 0.46077 0.35156 0.7193 0.0
H555 H 0.46955 0.29225 0.7097 0.0
H556 H 0.47229 0.36299 0.76879 0.0
H557 H 0.53637 0.36229 0.76944 0.0
H558 H 0.36792 0.23943 0.74714 0.0
H559 H 0.47043 0.36252 0.67319 0.0
H560 H 0.47934 0.30184 0.66273 0.0
C561 C 0.70136 0.1762 0.7608 0.0
C562 C 0.67907 0.17239 0.76579 0.0
N563 N 0.66415 0.1489 0.7679 0.0
N564 N 0.70066 0.15527 0.7598 0.0
C565 C 0.67775 0.13887 0.76441 0.0
H566 H 0.71702 0.19318 0.7573 0.0
Co567 Co 0.72691 0.15317 0.7497 0.0
C568 C 0.70942 0.10406 0.7332 0.0
O569 O 0.72387 0.11335 0.71304 0.0
N570 N 0.75432 0.15164 0.73998 0.0
C571 C 0.78232 0.14169 0.74255 0.0
C572 C 0.76191 0.13893 0.75368 0.0
C573 C 0.77084 0.16233 0.72083 0.0
N574 N 0.78791 0.15646 0.72185 0.0
O575 O 0.73674 0.15606 0.78589 0.0
H576 H 0.75306 0.12817 0.77078 0.0
H577 H 0.77054 0.17403 0.7061 0.0
O578 O 0.70841 0.11776 0.75077 0.0
C579 C 0.75216 0.17805 0.78761 0.0
O580 O 0.75661 0.1915 0.76665 0.0
N581 N 0.71846 0.15395 0.71469 0.0
C582 C 0.7098 0.16139 0.66317 0.0
C583 C 0.69354 0.1408 0.67649 0.0
C584 C 0.69797 0.13762 0.70264 0.0
C585 C 0.73248 0.17535 0.70306 0.0
C586 C 0.72906 0.17916 0.67686 0.0
H587 H 0.68496 0.12207 0.71305 0.0
H588 H 0.74682 0.18939 0.71408 0.0
H589 H 0.67097 0.11998 0.76411 0.0
H590 H 0.67424 0.18594 0.76767 0.0
H591 H 0.79239 0.1337 0.74942 0.0
H592 H 0.67799 0.12709 0.66658 0.0
H593 H 0.7414 0.19569 0.66732 0.0
C594 C 0.49725 0.17343 0.26779 0.0
C595 C 0.51539 0.16938 0.27371 0.0
N596 N 0.50665 0.14583 0.27464 0.0
N597 N 0.47702 0.1526 0.26501 0.0
C598 C 0.48321 0.13597 0.26962 0.0
H599 H 0.49889 0.19055 0.26453 0.0
Co600 Co 0.45002 0.15177 0.25183 0.0
C601 C 0.41588 0.10258 0.23748 0.0
O602 O 0.41198 0.11193 0.21647 0.0
N603 N 0.42269 0.15198 0.23892 0.0
C604 C 0.38572 0.14538 0.2386 0.0
C605 C 0.40177 0.1415 0.25191 0.0
C606 C 0.41884 0.16245 0.21788 0.0
N607 N 0.39648 0.15853 0.21713 0.0
O608 O 0.44201 0.15701 0.28673 0.0
H609 H 0.39832 0.13142 0.26995 0.0
H610 H 0.43204 0.17319 0.20352 0.0
O611 O 0.43084 0.11631 0.25496 0.0
C612 C 0.4487 0.17905 0.28721 0.0
O613 O 0.45879 0.19189 0.2661 0.0
N614 N 0.46023 0.14974 0.21796 0.0
C615 C 0.47675 0.15117 0.16727 0.0
C616 C 0.47018 0.1314 0.18335 0.0
C617 C 0.46257 0.1313 0.20897 0.0
C618 C 0.46977 0.1703 0.20393 0.0
C619 C 0.47756 0.17126 0.17813 0.0
H620 H 0.45848 0.11628 0.22132 0.0
H621 H 0.47071 0.18586 0.21262 0.0
H622 H 0.47114 0.11712 0.26786 0.0
H623 H 0.53373 0.18279 0.27668 0.0
H624 H 0.36745 0.13872 0.24412 0.0
H625 H 0.47062 0.11604 0.17607 0.0
H626 H 0.48327 0.18718 0.16658 0.0
C627 C 0.85641 0.32944 0.25997 0.0
C628 C 0.85726 0.35021 0.26664 0.0
N629 N 0.87968 0.36618 0.2731 0.0
N630 N 0.87831 0.33221 0.26117 0.0
C631 C 0.89183 0.35452 0.2707 0.0
H632 H 0.8405 0.31311 0.25509 0.0
Co633 Co 0.88434 0.30716 0.25343 0.0
C634 C 0.93337 0.3479 0.24716 0.0
O635 O 0.92474 0.35817 0.23209 0.0
N636 N 0.88924 0.28185 0.24654 0.0
C637 C 0.9025 0.25653 0.2457 0.0
C638 C 0.9052 0.2769 0.2571 0.0
C639 C 0.87682 0.26418 0.22925 0.0
N640 N 0.88462 0.24858 0.2281 0.0
O641 O 0.87852 0.29771 0.2898 0.0
H642 H 0.91799 0.28743 0.27207 0.0
H643 H 0.86273 0.26328 0.21717 0.0
O644 O 0.91915 0.3281 0.25845 0.0
C645 C 0.857 0.28084 0.28946 0.0
O646 O 0.84546 0.27528 0.26695 0.0
N647 N 0.88701 0.31368 0.21696 0.0
C648 C 0.88375 0.31219 0.16205 0.0
C649 C 0.90416 0.31512 0.17461 0.0
C650 C 0.90518 0.31517 0.20205 0.0
C651 C 0.86694 0.31045 0.20493 0.0
C652 C 0.86504 0.30996 0.17758 0.0
H653 H 0.92003 0.31503 0.21119 0.0
H654 H 0.85148 0.3063 0.21632 0.0
H655 H 0.91016 0.36213 0.27624 0.0
H656 H 0.84233 0.35309 0.26727 0.0
H657 H 0.91284 0.24822 0.25017 0.0
H658 H 0.91899 0.31665 0.16342 0.0
H659 H 0.84851 0.30657 0.16879 0.0
C660 C 0.70799 0.54291 0.27065 0.0
C661 C 0.68622 0.52369 0.27601 0.0
N662 N 0.6701 0.53078 0.2759 0.0
N663 N 0.70578 0.56215 0.26717 0.0
C664 C 0.68245 0.55431 0.27085 0.0
H665 H 0.72431 0.54267 0.2682 0.0
Co666 Co 0.73105 0.5901 0.25432 0.0
C667 C 0.71316 0.62183 0.23996 0.0
O668 O 0.72654 0.62654 0.2189 0.0
N669 N 0.75773 0.61853 0.24175 0.0
C670 C 0.78663 0.65629 0.24171 0.0
C671 C 0.76688 0.6394 0.2547 0.0
C672 C 0.77266 0.62326 0.22112 0.0
N673 N 0.79026 0.64611 0.22053 0.0
O674 O 0.74388 0.59836 0.28938 0.0
H675 H 0.75964 0.64215 0.27264 0.0
H676 H 0.77089 0.61044 0.20664 0.0
O677 O 0.71293 0.60736 0.25747 0.0
C678 C 0.76057 0.59355 0.28972 0.0
O679 O 0.76479 0.58497 0.26828 0.0
N680 N 0.71936 0.57964 0.22029 0.0
C681 C 0.70534 0.56288 0.16945 0.0
C682 C 0.69114 0.56826 0.18528 0.0
C683 C 0.69814 0.57599 0.21098 0.0
C684 C 0.73147 0.57123 0.20647 0.0
C685 C 0.72516 0.56333 0.18061 0.0
H686 H 0.68647 0.57915 0.22312 0.0
H687 H 0.74653 0.57127 0.21539 0.0
H688 H 0.67447 0.56523 0.26833 0.0
H689 H 0.68246 0.50575 0.27922 0.0
H690 H 0.79768 0.67452 0.24775 0.0
H691 H 0.67495 0.56682 0.17773 0.0
H692 H 0.73615 0.55853 0.16923 0.0
C693 C 0.51499 0.15959 0.87291 0.0
C694 C 0.51203 0.17849 0.86736 0.0
N695 N 0.48867 0.17074 0.86614 0.0
N696 N 0.49365 0.13988 0.87519 0.0
C697 C 0.47784 0.14713 0.87061 0.0
H698 H 0.53169 0.16032 0.87626 0.0
Co699 Co 0.4913 0.11201 0.88773 0.0
C700 C 0.44157 0.07936 0.90099 0.0
O701 O 0.45011 0.07467 0.92217 0.0
N702 N 0.4899 0.08368 0.89996 0.0
C703 C 0.48141 0.04607 0.89943 0.0
C704 C 0.47845 0.06296 0.88667 0.0
C705 C 0.5001 0.07888 0.92055 0.0
N706 N 0.49505 0.05611 0.92079 0.0
O707 O 0.49662 0.10443 0.85269 0.0
H708 H 0.46855 0.0603 0.86864 0.0
H709 H 0.51102 0.09157 0.93523 0.0
O710 O 0.45594 0.09418 0.88381 0.0
C711 C 0.51829 0.10972 0.85266 0.0
O712 O 0.53082 0.11844 0.87428 0.0
N713 N 0.48921 0.12179 0.92184 0.0
C714 C 0.49029 0.13728 0.97297 0.0
C715 C 0.47116 0.13214 0.95641 0.0
C716 C 0.47127 0.12504 0.93061 0.0
C717 C 0.50935 0.13004 0.93642 0.0
C718 C 0.51009 0.13728 0.96244 0.0
H719 H 0.45675 0.122 0.91793 0.0
H720 H 0.52475 0.13047 0.92797 0.0
H721 H 0.45886 0.1357 0.87203 0.0
H722 H 0.52604 0.19667 0.86488 0.0
H723 H 0.47444 0.02795 0.89312 0.0
H724 H 0.45611 0.13329 0.96344 0.0
H725 H 0.52558 0.14194 0.97437 0.0
C726 C 0.87941 0.36437 0.8697 0.0
C727 C 0.86015 0.34366 0.86128 0.0
N728 N 0.86548 0.32627 0.8628 0.0
N729 N 0.89701 0.36027 0.87642 0.0
C730 C 0.88804 0.33688 0.87164 0.0
H731 H 0.87983 0.38098 0.87219 0.0
Co732 Co 0.92421 0.38111 0.89547 0.0
C733 C 0.96161 0.37424 0.87255 0.0
O734 O 0.97322 0.39675 0.86599 0.0
N735 N 0.95135 0.4018 0.9156 0.0
C736 C 0.98236 0.41436 0.94256 0.0
C737 C 0.96551 0.39548 0.92841 0.0
C738 C 0.95978 0.4246 0.92291 0.0
N739 N 0.97867 0.43267 0.93916 0.0
O740 O 0.93464 0.40339 0.86659 0.0
H741 H 0.96334 0.37795 0.92824 0.0
H742 H 0.95213 0.43516 0.917 0.0
O743 O 0.94083 0.36543 0.88214 0.0
C744 C 0.92772 0.41824 0.87076 0.0
O745 O 0.91539 0.41591 0.89218 0.0
N746 N 0.91278 0.36081 0.92402 0.0
C747 C 0.89416 0.33543 0.97028 0.0
C748 C 0.90475 0.32785 0.95159 0.0
C749 C 0.91407 0.34088 0.92851 0.0
C750 C 0.90193 0.368 0.9415 0.0
C751 C 0.89258 0.35565 0.96486 0.0
H752 H 0.92236 0.33492 0.91456 0.0
H753 H 0.90105 0.3838 0.93743 0.0
H754 H 0.89723 0.32743 0.8763 0.0
H755 H 0.84324 0.34144 0.85538 0.0
H756 H 0.99559 0.41426 0.95534 0.0
H757 H 0.9061 0.31219 0.9549 0.0
H758 H 0.88501 0.36247 0.97892 0.0
C759 C 0.66876 0.51936 0.87403 0.0
C760 C 0.69029 0.5218 0.86773 0.0
N761 N 0.70657 0.54503 0.86749 0.0
N762 N 0.67128 0.54091 0.87779 0.0
C763 C 0.69452 0.55633 0.87323 0.0
H764 H 0.65248 0.50283 0.87709 0.0
Co765 Co 0.64672 0.54381 0.89239 0.0
C766 C 0.66555 0.59378 0.90603 0.0
O767 O 0.65368 0.58541 0.92813 0.0
N768 N 0.62079 0.54586 0.9067 0.0
C769 C 0.59249 0.5554 0.90843 0.0
C770 C 0.61175 0.55807 0.89464 0.0
C771 C 0.60617 0.53543 0.92756 0.0
N772 N 0.58898 0.54113 0.92916 0.0
O773 O 0.63191 0.53824 0.8582 0.0
H774 H 0.61868 0.56821 0.87668 0.0
H775 H 0.60775 0.52374 0.94134 0.0
O776 O 0.66465 0.57927 0.88817 0.0
C777 C 0.61501 0.51674 0.85909 0.0
O778 O 0.61189 0.50456 0.88086 0.0
N779 N 0.66022 0.54589 0.92562 0.0
C780 C 0.67684 0.54463 0.97557 0.0
C781 C 0.69044 0.56354 0.95854 0.0
C782 C 0.68207 0.56355 0.93335 0.0
C783 C 0.64858 0.52588 0.94049 0.0
C784 C 0.65621 0.52506 0.96595 0.0
H785 H 0.69314 0.57802 0.92039 0.0
H786 H 0.63297 0.51063 0.9327 0.0
H787 H 0.70275 0.57529 0.87575 0.0
H788 H 0.69382 0.5075 0.86432 0.0
H789 H 0.58156 0.5629 0.90316 0.0
H790 H 0.70715 0.57843 0.96483 0.0
H791 H 0.64559 0.50974 0.97824 0.0
C792 C 0.54346 0.85383 0.7041 0.0
C793 C 0.52494 0.85739 0.69844 0.0
N794 N 0.53321 0.88087 0.69745 0.0
N795 N 0.56344 0.87491 0.70663 0.0
C796 C 0.55673 0.89115 0.70215 0.0
H797 H 0.54227 0.8369 0.7073 0.0
Co798 Co 0.59118 0.87701 0.71927 0.0
C799 C 0.62442 0.92706 0.73099 0.0
O800 O 0.62949 0.91903 0.75234 0.0
N801 N 0.61934 0.87823 0.73165 0.0
C802 C 0.65677 0.88619 0.73123 0.0
C803 C 0.63997 0.88905 0.71813 0.0
C804 C 0.6241 0.86849 0.75273 0.0
N805 N 0.64675 0.87323 0.75304 0.0
O806 O 0.59836 0.87065 0.68445 0.0
H807 H 0.64265 0.8985 0.69974 0.0
H808 H 0.61144 0.85815 0.76775 0.0
O809 O 0.60934 0.91229 0.71432 0.0
C810 C 0.59245 0.8488 0.68511 0.0
O811 O 0.58353 0.83682 0.70703 0.0
N812 N 0.58176 0.87995 0.75327 0.0
C813 C 0.56625 0.87938 0.8043 0.0
C814 C 0.57208 0.89868 0.7877 0.0
C815 C 0.57916 0.89832 0.76193 0.0
C816 C 0.57302 0.8598 0.76795 0.0
C817 C 0.56573 0.85929 0.79389 0.0
H818 H 0.58258 0.91293 0.7492 0.0
H819 H 0.57228 0.84421 0.75963 0.0
H820 H 0.56853 0.91006 0.70374 0.0
H821 H 0.50668 0.84369 0.69567 0.0
H822 H 0.67483 0.89278 0.72487 0.0
H823 H 0.57139 0.914 0.79466 0.0
H824 H 0.56059 0.8437 0.80586 0.0
C825 C 0.1819 0.69659 0.70849 0.0
C826 C 0.17819 0.67427 0.70407 0.0
N827 N 0.15471 0.65921 0.70234 0.0
N828 N 0.16092 0.69579 0.7095 0.0
C829 C 0.14457 0.67276 0.70537 0.0
H830 H 0.19884 0.71231 0.71188 0.0
Co831 Co 0.15923 0.72215 0.72002 0.0
C832 C 0.10975 0.70617 0.73341 0.0
O833 O 0.11868 0.72056 0.75367 0.0
N834 N 0.15846 0.74982 0.73011 0.0
C835 C 0.15028 0.77906 0.72739 0.0
C836 C 0.14714 0.75867 0.71585 0.0
C837 C 0.16882 0.76563 0.74996 0.0
N838 N 0.16393 0.7834 0.74889 0.0
O839 O 0.16446 0.73352 0.68427 0.0
H840 H 0.13708 0.75069 0.69809 0.0
H841 H 0.17961 0.76434 0.76516 0.0
O842 O 0.12378 0.70477 0.71656 0.0
C843 C 0.18646 0.74906 0.68368 0.0
O844 O 0.19911 0.75289 0.70519 0.0
N845 N 0.15724 0.71184 0.75494 0.0
C846 C 0.15802 0.69994 0.80725 0.0
C847 C 0.13881 0.68525 0.7911 0.0
C848 C 0.13911 0.69113 0.76471 0.0
C849 C 0.17744 0.72424 0.76933 0.0
C850 C 0.17804 0.71902 0.7959 0.0
H851 H 0.12456 0.67908 0.75238 0.0
H852 H 0.19297 0.73869 0.76027 0.0
H853 H 0.12567 0.66584 0.70603 0.0
H854 H 0.19177 0.66945 0.70262 0.0
H855 H 0.14331 0.78998 0.72028 0.0
H856 H 0.1236 0.66951 0.79889 0.0
H857 H 0.19361 0.73024 0.80756 0.0
C858 C 0.33414 0.489 0.70263 0.0
C859 C 0.3561 0.5077 0.69673 0.0
N860 N 0.37133 0.49958 0.6946 0.0
N861 N 0.33532 0.46904 0.70422 0.0
C862 C 0.35821 0.47595 0.6988 0.0
H863 H 0.31848 0.49006 0.70683 0.0
Co864 Co 0.30981 0.44139 0.71753 0.0
C865 C 0.32648 0.40833 0.72963 0.0
O866 O 0.3136 0.40378 0.75109 0.0
N867 N 0.28287 0.41336 0.73049 0.0
C868 C 0.25311 0.37597 0.73055 0.0
C869 C 0.27282 0.39257 0.71726 0.0
C870 C 0.26845 0.40889 0.75157 0.0
N871 N 0.25038 0.38627 0.75218 0.0
O872 O 0.29553 0.4338 0.68304 0.0
H873 H 0.27943 0.38967 0.69891 0.0
H874 H 0.27089 0.4217 0.76636 0.0
O875 O 0.32667 0.42303 0.71247 0.0
C876 C 0.27959 0.43966 0.68392 0.0
O877 O 0.27708 0.44904 0.70573 0.0
N878 N 0.32306 0.4511 0.75128 0.0
C879 C 0.3399 0.46587 0.80209 0.0
C880 C 0.35317 0.46123 0.78389 0.0
C881 C 0.34467 0.45433 0.75843 0.0
C882 C 0.31192 0.45913 0.76736 0.0
C883 C 0.31951 0.4658 0.79328 0.0
H884 H 0.35553 0.45142 0.74469 0.0
H885 H 0.29671 0.45986 0.76018 0.0
H886 H 0.36544 0.46425 0.69959 0.0
H887 H 0.36062 0.52601 0.6948 0.0
H888 H 0.24148 0.35786 0.72444 0.0
H889 H 0.36989 0.46268 0.78931 0.0
H890 H 0.30915 0.47015 0.80633 0.0
C891 C 0.52731 0.87243 0.09698 0.0
C892 C 0.53062 0.85373 0.10244 0.0
N893 N 0.55403 0.86194 0.10448 0.0
N894 N 0.54846 0.89247 0.09558 0.0
C895 C 0.56452 0.88561 0.10056 0.0
H896 H 0.51052 0.87136 0.09313 0.0
Co897 Co 0.55053 0.92035 0.08353 0.0
C898 C 0.60043 0.95389 0.07166 0.0
O899 O 0.59216 0.95885 0.05044 0.0
N900 N 0.55161 0.94862 0.07175 0.0
C901 C 0.55939 0.98599 0.07289 0.0
C902 C 0.56249 0.96912 0.0855 0.0
C903 C 0.54158 0.9535 0.05107 0.0
N904 N 0.54621 0.97613 0.05119 0.0
O905 O 0.54419 0.92703 0.11857 0.0
H906 H 0.5721 0.97165 0.10372 0.0
H907 H 0.53108 0.94096 0.03605 0.0
O908 O 0.58583 0.93862 0.08836 0.0
C909 C 0.52231 0.92099 0.11812 0.0
O910 O 0.51032 0.91242 0.09615 0.0
N911 N 0.55352 0.91138 0.04932 0.0
C912 C 0.55323 0.89624 -0.00183 0.0
C913 C 0.57237 0.90182 0.01491 0.0
C914 C 0.57187 0.90869 0.04072 0.0
C915 C 0.53351 0.9029 0.03447 0.0
C916 C 0.53315 0.89581 0.00848 0.0
H917 H 0.58631 0.91186 0.05359 0.0
H918 H 0.51786 0.90205 0.04276 0.0
H919 H 0.58348 0.89741 0.09986 0.0
H920 H 0.51683 0.8354 0.10436 0.0
H921 H 0.56594 1.00397 0.07952 0.0
H922 H 0.58766 0.901 0.00805 0.0
H923 H 0.51766 0.89081 -0.00359 0.0
C924 C 0.16219 0.66224 0.0993 0.0
C925 C 0.1806 0.68435 0.10529 0.0
N926 N 0.17214 0.69933 0.10705 0.0
N927 N 0.14207 0.66307 0.0973 0.0
C928 C 0.14859 0.68591 0.10242 0.0
H929 H 0.16353 0.64667 0.09556 0.0
Co930 Co 0.11456 0.63709 0.08456 0.0
C931 C 0.07922 0.65151 0.07529 0.0
O932 O 0.07442 0.63921 0.05337 0.0
N933 N 0.08675 0.60969 0.07204 0.0
C934 C 0.04971 0.5793 0.07258 0.0
C935 C 0.06615 0.59921 0.08566 0.0
C936 C 0.08242 0.59522 0.05103 0.0
N937 N 0.05998 0.5768 0.0508 0.0
O938 O 0.10802 0.62281 0.11907 0.0
H939 H 0.06327 0.60566 0.10414 0.0
H940 H 0.09527 0.59778 0.03617 0.0
O941 O 0.09556 0.65306 0.09084 0.0
C942 C 0.11391 0.60691 0.11771 0.0
O943 O 0.12286 0.60447 0.09552 0.0
N944 N 0.1232 0.65025 0.05084 0.0
C945 C 0.13951 0.66769 0.00059 0.0
C946 C 0.13237 0.67974 0.01768 0.0
C947 C 0.12483 0.67105 0.04301 0.0
C948 C 0.13262 0.63992 0.03555 0.0
C949 C 0.14038 0.64798 0.01002 0.0
H950 H 0.12058 0.6813 0.05622 0.0
H951 H 0.13395 0.62517 0.0432 0.0
H952 H 0.13665 0.69284 0.1014 0.0
H953 H 0.19891 0.68908 0.10783 0.0
H954 H 0.03178 0.56724 0.079 0.0
H955 H 0.13264 0.69577 0.01152 0.0
H956 H 0.1464 0.63854 -0.00236 0.0
C957 C 0.37547 0.5124 0.09274 0.0
C958 C 0.35508 0.51171 0.10086 0.0
N959 N 0.33938 0.48935 0.10793 0.0
N960 N 0.3726 0.49044 0.0936 0.0
C961 C 0.35083 0.47712 0.10445 0.0
H962 H 0.39157 0.52815 0.08681 0.0
Co963 Co 0.3968 0.48385 0.0838 0.0
C964 C 0.35569 0.43475 0.08023 0.0
O965 O 0.34449 0.44301 0.06616 0.0
N966 N 0.42138 0.47834 0.07497 0.0
C967 C 0.44676 0.46519 0.07376 0.0
C968 C 0.42677 0.46278 0.08579 0.0
C969 C 0.43837 0.49018 0.05676 0.0
N970 N 0.45405 0.48248 0.05547 0.0
O971 O 0.40831 0.4905 0.11938 0.0
H972 H 0.41701 0.45072 0.10166 0.0
H973 H 0.43895 0.50403 0.0445 0.0
O974 O 0.376 0.44925 0.09027 0.0
C975 C 0.42575 0.51167 0.11808 0.0
O976 O 0.43083 0.52268 0.09523 0.0
N977 N 0.3878 0.48006 0.04798 0.0
C978 C 0.37904 0.47843 -0.00599 0.0
C979 C 0.38029 0.45992 0.00644 0.0
C980 C 0.38533 0.46139 0.03327 0.0
C981 C 0.38802 0.49878 0.03578 0.0
C982 C 0.38327 0.49817 0.00895 0.0
H983 H 0.38757 0.44759 0.04215 0.0
H984 H 0.39298 0.51482 0.0464 0.0
H985 H 0.34347 0.45887 0.11015 0.0
H986 H 0.35224 0.52665 0.10186 0.0
H987 H 0.45547 0.45528 0.07854 0.0
H988 H 0.37757 0.44449 -0.00444 0.0
H989 H 0.38373 0.51341 -0.00015 0.0
C990 C 0.15806 0.50317 0.60032 0.0
C991 C 0.17657 0.49933 0.60468 0.0
N992 N 0.16793 0.47585 0.60662 0.0
N993 N 0.13769 0.48227 0.59952 0.0
C994 C 0.14418 0.46581 0.60373 0.0
H995 H 0.15948 0.52015 0.59678 0.0
Co996 Co 0.11 0.48149 0.58895 0.0
C997 C 0.07397 0.43217 0.57782 0.0
O998 O 0.06857 0.44111 0.55754 0.0
N999 N 0.08212 0.482 0.57865 0.0
C1000 C 0.04548 0.47617 0.58124 0.0
C1001 C 0.06214 0.47242 0.59334 0.0
C1002 C 0.07717 0.49195 0.55793 0.0
N1003 N 0.05497 0.48846 0.5589 0.0
O1004 O 0.10467 0.48788 0.62448 0.0
H1005 H 0.05975 0.46309 0.61175 0.0
H1006 H 0.08926 0.50139 0.54212 0.0
O1007 O 0.09066 0.44619 0.59359 0.0
C1008 C 0.11163 0.50997 0.62466 0.0
O1009 O 0.12036 0.52224 0.60287 0.0
N1010 N 0.11751 0.47811 0.55424 0.0
C1011 C 0.12968 0.47713 0.50213 0.0
C1012 C 0.12382 0.45784 0.51872 0.0
C1013 C 0.11845 0.45895 0.545 0.0
C1014 C 0.12644 0.49817 0.53939 0.0
C1015 C 0.13204 0.49793 0.51291 0.0
H1016 H 0.11503 0.44432 0.5577 0.0
H1017 H 0.12854 0.51426 0.548 0.0
H1018 H 0.13203 0.44691 0.60323 0.0
H1019 H 0.19506 0.51283 0.60594 0.0
H1020 H 0.02786 0.47052 0.58852 0.0
H1021 H 0.12326 0.44198 0.51142 0.0
H1022 H 0.13738 0.51353 0.5009 0.0
C1023 C 0.52561 0.66215 0.5995 0.0
C1024 C 0.52876 0.68403 0.60542 0.0
N1025 N 0.55215 0.69958 0.60672 0.0
N1026 N 0.54687 0.6637 0.59706 0.0
C1027 C 0.56282 0.68674 0.60193 0.0
H1028 H 0.50884 0.64626 0.59597 0.0
Co1029 Co 0.54907 0.63825 0.58388 0.0
C1030 C 0.59884 0.65546 0.5709 0.0
O1031 O 0.59035 0.64278 0.54934 0.0
N1032 N 0.55036 0.61146 0.57099 0.0
C1033 C 0.55864 0.58224 0.57111 0.0
C1034 C 0.56147 0.60184 0.58426 0.0
C1035 C 0.54052 0.59691 0.54995 0.0
N1036 N 0.54546 0.57913 0.54946 0.0
O1037 O 0.5431 0.62444 0.61858 0.0
H1038 H 0.57105 0.60869 0.60254 0.0
H1039 H 0.52998 0.5991 0.53512 0.0
O1040 O 0.58443 0.65556 0.58823 0.0
C1041 C 0.52128 0.60835 0.61795 0.0
O1042 O 0.50922 0.60537 0.59614 0.0
N1043 N 0.55159 0.65088 0.55009 0.0
C1044 C 0.55054 0.66676 0.49964 0.0
C1045 C 0.56973 0.68028 0.51635 0.0
C1046 C 0.56962 0.67233 0.54182 0.0
C1047 C 0.5315 0.6393 0.53538 0.0
C1048 C 0.53076 0.64655 0.50971 0.0
H1049 H 0.58416 0.68349 0.55465 0.0
H1050 H 0.51608 0.62404 0.54349 0.0
H1051 H 0.58178 0.69425 0.60044 0.0
H1052 H 0.51485 0.68825 0.60806 0.0
H1053 H 0.56541 0.57091 0.57735 0.0
H1054 H 0.58479 0.69672 0.50971 0.0
H1055 H 0.51525 0.63603 0.49766 0.0
C1056 C 0.37255 0.87236 0.60122 0.0
C1057 C 0.35075 0.85316 0.60656 0.0
N1058 N 0.33468 0.86031 0.60667 0.0
N1059 N 0.37041 0.89167 0.598 0.0
C1060 C 0.3471 0.88387 0.60176 0.0
H1061 H 0.38882 0.87207 0.59867 0.0
Co1062 Co 0.39573 0.91975 0.58536 0.0
C1063 C 0.37796 0.95197 0.5729 0.0
O1064 O 0.39109 0.95707 0.55158 0.0
N1065 N 0.42241 0.94825 0.57296 0.0
C1066 C 0.45166 0.98586 0.57333 0.0
C1067 C 0.43169 0.96905 0.58608 0.0
C1068 C 0.43748 0.95294 0.55248 0.0
N1069 N 0.45527 0.9757 0.55214 0.0
O1070 O 0.40902 0.92738 0.62029 0.0
H1071 H 0.42438 0.9718 0.60398 0.0
H1072 H 0.43615 0.93996 0.53846 0.0
O1073 O 0.37785 0.93713 0.58977 0.0
C1074 C 0.42556 0.92234 0.61981 0.0
O1075 O 0.42925 0.91392 0.59792 0.0
N1076 N 0.3837 0.90994 0.55131 0.0
C1077 C 0.36951 0.89389 0.50027 0.0
C1078 C 0.35559 0.89949 0.51632 0.0
C1079 C 0.36264 0.90682 0.54213 0.0
C1080 C 0.39557 0.90146 0.53717 0.0
C1081 C 0.38916 0.89389 0.51124 0.0
H1082 H 0.35112 0.91003 0.55448 0.0
H1083 H 0.41045 0.90106 0.54594 0.0
H1084 H 0.33916 0.89486 0.59945 0.0
H1085 H 0.34696 0.83519 0.60964 0.0
H1086 H 0.46256 1.00417 0.57919 0.0
H1087 H 0.33952 0.89842 0.50889 0.0
H1088 H 0.39994 0.88893 0.49969 0.0
C1089 C 0.17711 0.48941 0.2176 0.0
C1090 C 0.17279 0.50752 0.21255 0.0
N1091 N 0.1497 0.4981 0.20654 0.0
N1092 N 0.15695 0.46854 0.21475 0.0
C1093 C 0.14047 0.47434 0.20782 0.0
H1094 H 0.19385 0.49134 0.22371 0.0
Co1095 Co 0.15603 0.44046 0.22369 0.0
C1096 C 0.10592 0.40254 0.22704 0.0
O1097 O 0.11248 0.39413 0.24682 0.0
N1098 N 0.15647 0.41231 0.23261 0.0
C1099 C 0.15319 0.37683 0.22793 0.0
C1100 C 0.14958 0.39371 0.21611 0.0
C1101 C 0.16459 0.40631 0.2542 0.0
N1102 N 0.1626 0.38477 0.25196 0.0
O1103 O 0.16586 0.43828 0.18865 0.0
H1104 H 0.14219 0.39242 0.19667 0.0
H1105 H 0.17235 0.41753 0.27112 0.0
O1106 O 0.1215 0.42127 0.21489 0.0
C1107 C 0.18807 0.44625 0.19064 0.0
O1108 O 0.19821 0.45349 0.21381 0.0
N1109 N 0.14933 0.44499 0.25818 0.0
C1110 C 0.14609 0.45766 0.30956 0.0
C1111 C 0.12685 0.44986 0.29232 0.0
C1112 C 0.12905 0.44422 0.26643 0.0
C1113 C 0.16882 0.45464 0.27398 0.0
C1114 C 0.16749 0.46059 0.30001 0.0
H1115 H 0.11469 0.4401 0.25302 0.0
H1116 H 0.18553 0.45762 0.26627 0.0
H1117 H 0.12199 0.46153 0.20473 0.0
H1118 H 0.18572 0.52622 0.21322 0.0
H1119 H 0.14893 0.35992 0.21953 0.0
H1120 H 0.11042 0.44861 0.29865 0.0
H1121 H 0.18294 0.4671 0.31256 0.0
C1122 C 0.54158 0.69912 0.20457 0.0
C1123 C 0.52312 0.67709 0.19835 0.0
N1124 N 0.53125 0.6618 0.19777 0.0
N1125 N 0.56139 0.6979 0.20788 0.0
C1126 C 0.55465 0.67495 0.20328 0.0
H1127 H 0.54044 0.7149 0.2076 0.0
Co1128 Co 0.58882 0.7235 0.2213 0.0
C1129 C 0.62133 0.7066 0.23568 0.0
O1130 O 0.62528 0.71943 0.25707 0.0
N1131 N 0.61674 0.75043 0.23441 0.0
C1132 C 0.65437 0.77961 0.23487 0.0
C1133 C 0.63763 0.76014 0.22143 0.0
C1134 C 0.62131 0.76479 0.25557 0.0
N1135 N 0.6441 0.78252 0.25643 0.0
O1136 O 0.59724 0.73698 0.18651 0.0
H1137 H 0.64057 0.75337 0.20322 0.0
H1138 H 0.60848 0.76242 0.27035 0.0
O1139 O 0.60699 0.70631 0.21798 0.0
C1140 C 0.59153 0.75304 0.18632 0.0
O1141 O 0.58199 0.75622 0.2076 0.0
N1142 N 0.57819 0.71112 0.25508 0.0
C1143 C 0.56169 0.69616 0.30581 0.0
C1144 C 0.5672 0.68235 0.28946 0.0
C1145 C 0.57482 0.68984 0.26383 0.0
C1146 C 0.56954 0.72276 0.26935 0.0
C1147 C 0.56177 0.71598 0.29519 0.0
H1148 H 0.57828 0.67857 0.25133 0.0
H1149 H 0.56939 0.73789 0.26087 0.0
H1150 H 0.56631 0.66775 0.20534 0.0
H1151 H 0.505 0.67265 0.19489 0.0
H1152 H 0.6726 0.7909 0.22895 0.0
H1153 H 0.56607 0.66617 0.29659 0.0
H1154 H 0.55687 0.72668 0.30698 0.0
C1155 C 0.33549 0.85139 0.20649 0.0
C1156 C 0.35728 0.8544 0.20029 0.0
N1157 N 0.37285 0.87778 0.19849 0.0
N1158 N 0.33714 0.87271 0.20859 0.0
C1159 C 0.36011 0.88854 0.20325 0.0
H1160 H 0.3196 0.8347 0.21036 0.0
Co1161 Co 0.312 0.87543 0.22173 0.0
C1162 C 0.32998 0.92552 0.23375 0.0
O1163 O 0.31754 0.91756 0.25556 0.0
N1164 N 0.28555 0.87732 0.23456 0.0
C1165 C 0.25666 0.88608 0.23413 0.0
C1166 C 0.27635 0.88881 0.22125 0.0
C1167 C 0.27069 0.86738 0.25534 0.0
N1168 N 0.25311 0.87259 0.25562 0.0
O1169 O 0.29792 0.86903 0.18712 0.0
H1170 H 0.28355 0.8986 0.20314 0.0
H1171 H 0.27201 0.85591 0.26965 0.0
O1172 O 0.32963 0.91073 0.21665 0.0
C1173 C 0.28144 0.84737 0.18819 0.0
O1174 O 0.27834 0.83558 0.21026 0.0
N1175 N 0.32485 0.87838 0.2555 0.0
C1176 C 0.34062 0.87841 0.30629 0.0
C1177 C 0.35435 0.89706 0.28901 0.0
C1178 C 0.34646 0.89638 0.26339 0.0
C1179 C 0.31308 0.85869 0.27082 0.0
C1180 C 0.32027 0.85852 0.29667 0.0
H1181 H 0.35772 0.91053 0.25015 0.0
H1182 H 0.29774 0.84315 0.26305 0.0
H1183 H 0.36764 0.90753 0.20432 0.0
H1184 H 0.36141 0.84042 0.19775 0.0
H1185 H 0.24591 0.8936 0.22817 0.0
H1186 H 0.3709 0.91216 0.29534 0.0
H1187 H 0.3096 0.84337 0.30917 0.0
H1188 H 0.26255 0.26165 0.29917 0.0
H1189 H 0.20729 0.18711 0.16727 0.0
H1190 H 0.19437 0.19764 0.29673 0.0
H1191 H 0.27233 0.25435 0.1704 0.0
H1192 H 0.20237 0.18974 0.21482 0.0
H1193 H 0.26684 0.25816 0.25197 0.0
C1194 C 0.24857 0.24672 0.28868 0.0
C1195 C 0.22813 0.22984 0.30181 0.0
C1196 C 0.21765 0.20394 0.20504 0.0
C1197 C 0.23271 0.22592 0.24773 0.0
C1198 C 0.2205 0.2024 0.178 0.0
C1199 C 0.24022 0.22057 0.16499 0.0
C1200 C 0.23473 0.22371 0.21905 0.0
C1201 C 0.25671 0.24012 0.17964 0.0
C1202 C 0.25093 0.24483 0.26171 0.0
C1203 C 0.21033 0.21112 0.28724 0.0
N1204 N 0.25362 0.24113 0.20592 0.0
N1205 N 0.21305 0.20962 0.26088 0.0
H1206 H 0.8571 0.02864 0.17874 0.0
H1207 H 0.77583 1.00694 0.30514 0.0
H1208 H 0.78647 0.01828 0.17608 0.0
H1209 H 0.8385 1.00067 0.30788 0.0
H1210 H 0.78201 0.01519 0.25809 0.0
H1211 H 0.85276 0.02161 0.22655 0.0
C1212 C 0.84069 0.02479 0.18822 0.0
C1213 C 0.82204 0.02385 0.17354 0.0
C1214 C 0.79446 1.01204 0.26894 0.0
C1215 C 0.81707 0.01607 0.22777 0.0
C1216 C 0.79105 1.00756 0.29583 0.0
C1217 C 0.8067 1.00316 0.31033 0.0
C1218 C 0.81368 1.01217 0.25644 0.0
C1219 C 0.82593 1.00377 0.29726 0.0
C1220 C 0.83821 0.02075 0.21539 0.0
C1221 C 0.80112 0.01877 0.18662 0.0
N1222 N 0.82891 1.00821 0.27094 0.0
N1223 N 0.79925 0.01516 0.21301 0.0
H1224 H 0.03992 0.85036 0.29927 0.0
H1225 H 1.01938 0.77171 0.17073 0.0
H1226 H 0.03048 0.78004 0.30007 0.0
H1227 H 1.01296 0.83435 0.17002 0.0
H1228 H 0.02815 0.77732 0.21771 0.0
H1229 H 0.03395 0.84723 0.25129 0.0
C1230 C 0.03657 0.8343 0.28932 0.0
C1231 C 0.03549 0.81535 0.30353 0.0
C1232 C 0.02488 0.78989 0.20731 0.0
C1233 C 0.02887 0.81174 0.2491 0.0
C1234 C 1.0201 0.78682 0.18045 0.0
C1235 C 1.01545 0.80259 0.16656 0.0
C1236 C 0.02505 0.8089 0.22038 0.0
C1237 C 1.01621 0.82166 0.18017 0.0
C1238 C 0.03312 0.8325 0.26206 0.0
C1239 C 0.03105 0.79489 0.28985 0.0
N1240 N 0.02091 0.82429 0.20645 0.0
N1241 N 0.02796 0.79366 0.26338 0.0
H1242 H 0.78566 0.77447 0.67443 0.0
H1243 H 0.84244 0.85219 0.80355 0.0
H1244 H 0.85677 0.83435 0.67495 0.0
H1245 H 0.7816 0.78168 0.80329 0.0
H1246 H 0.84696 0.84872 0.75586 0.0
H1247 H 0.78244 0.78 0.72131 0.0
C1248 C 0.80053 0.78897 0.68443 0.0
C1249 C 0.82147 0.80406 0.67088 0.0
C1250 C 0.83275 0.83401 0.76639 0.0
C1251 C 0.81807 0.81026 0.72465 0.0
C1252 C 0.83013 0.83601 0.79344 0.0
C1253 C 0.81172 0.81712 0.80724 0.0
C1254 C 0.81662 0.81315 0.75325 0.0
C1255 C 0.79625 0.7965 0.79342 0.0
C1256 C 0.79877 0.79198 0.71124 0.0
C1257 C 0.84038 0.82228 0.68485 0.0
N1258 N 0.79899 0.79512 0.76717 0.0
N1259 N 0.83823 0.82494 0.71112 0.0
H1260 H 0.25188 0.02823 0.79947 0.0
H1261 H 0.19109 0.99673 0.6638 0.0
H1262 H 0.17527 0.99032 0.79787 0.0
H1263 H 0.24897 0.06723 0.67885 0.0
H1264 H 0.18526 0.99014 0.71174 0.0
H1265 H 0.25223 0.03943 0.75379 0.0
C1266 C 0.23508 0.02254 0.78984 0.0
C1267 C 0.21348 1.00832 0.80289 0.0
C1268 C 0.19889 1.00716 0.70439 0.0
C1269 C 0.21401 0.02037 0.75002 0.0
C1270 C 0.20228 1.01086 0.67724 0.0
C1271 C 0.22052 0.0325 0.66766 0.0
C1272 C 0.21433 0.02501 0.7217 0.0
C1273 C 0.23464 0.05035 0.68563 0.0
C1274 C 0.23538 0.02886 0.76364 0.0
C1275 C 0.19238 1.00087 0.78866 0.0
N1276 N 0.23154 0.04606 0.7119 0.0
N1277 N 0.19317 1.0067 0.76278 0.0
H1278 H 0.02072 0.25025 0.67476 0.0
H1279 H 0.0318 0.19484 0.81063 0.0
H1280 H 1.00574 0.1781 0.68113 0.0
H1281 H 0.03062 0.26014 0.80416 0.0
H1282 H 0.02478 0.18888 0.76297 0.0
H1283 H 0.02781 0.25506 0.72205 0.0
C1284 C 1.01921 0.23549 0.68612 0.0
C1285 C 1.01277 0.21379 0.67407 0.0
C1286 C 0.02592 0.20441 0.77208 0.0
C1287 C 0.02042 0.21901 0.7283 0.0
C1288 C 0.02999 0.20784 0.79916 0.0
C1289 C 0.03174 0.22798 0.81123 0.0
C1290 C 0.02389 0.22139 0.7571 0.0
C1291 C 0.02909 0.24423 0.79565 0.0
C1292 C 0.02301 0.23817 0.71316 0.0
C1293 C 1.01056 0.19508 0.68977 0.0
N1294 N 0.02542 0.24063 0.76935 0.0
N1295 N 1.01443 0.19813 0.71619 0.0
H1296 H 0.9228 0.58413 0.64121 0.0
H1297 H 0.86145 0.51038 0.51089 0.0
H1298 H 0.85151 0.52455 0.64133 0.0
H1299 H 0.92353 0.58005 0.51174 0.0
H1300 H 0.85852 0.51258 0.55902 0.0
H1301 H 0.92486 0.57968 0.59386 0.0
C1302 C 0.90766 0.5699 0.63126 0.0
C1303 C 0.88698 0.55463 0.64513 0.0
C1304 C 0.87265 0.52739 0.54855 0.0
C1305 C 0.88902 0.54972 0.59085 0.0
C1306 C 0.87435 0.52613 0.52122 0.0
C1307 C 0.89267 0.54513 0.50746 0.0
C1308 C 0.88959 0.54765 0.56199 0.0
C1309 C 0.90893 0.56518 0.52159 0.0
C1310 C 0.90875 0.56752 0.60419 0.0
C1311 C 0.86771 0.53678 0.63122 0.0
N1312 N 0.90706 0.56586 0.54811 0.0
N1313 N 0.86918 0.53478 0.6047 0.0
H1314 H 0.51933 0.35821 0.50045 0.0
H1315 H 0.44688 0.34229 0.6327 0.0
H1316 H 0.45032 0.35182 0.50335 0.0
H1317 H 0.5071 0.33192 0.6302 0.0
H1318 H 0.44995 0.34863 0.58526 0.0
H1319 H 0.51694 0.35069 0.54812 0.0
C1320 C 0.50368 0.35514 0.51113 0.0
C1321 C 0.48497 0.35559 0.49807 0.0
C1322 C 0.46252 0.34496 0.59501 0.0
C1323 C 0.48218 0.34715 0.55215 0.0
C1324 C 0.46092 0.34158 0.62211 0.0
C1325 C 0.47688 0.33677 0.6353 0.0
C1326 C 0.48029 0.34361 0.58094 0.0
C1327 C 0.49442 0.33553 0.62063 0.0
C1328 C 0.50229 0.35077 0.5382 0.0
C1329 C 0.465 0.35133 0.51263 0.0
N1330 N 0.49574 0.33903 0.59411 0.0
N1331 N 0.4642 0.34742 0.53893 0.0
H1332 H 0.74155 0.16655 0.62598 0.0
H1333 H 0.66974 0.17069 0.50245 0.0
H1334 H 0.67325 0.16063 0.63613 0.0
H1335 H 0.70212 0.12689 0.50441 0.0
H1336 H 0.67961 0.17983 0.54912 0.0
H1337 H 0.7363 0.16563 0.57796 0.0
C1338 C 0.72567 0.16551 0.61797 0.0
C1339 C 0.70771 0.16354 0.63466 0.0
C1340 C 0.68469 0.16846 0.539 0.0
C1341 C 0.70183 0.16282 0.58045 0.0
C1342 C 0.67892 0.163 0.51247 0.0
C1343 C 0.6848 0.14768 0.49932 0.0
C1344 C 0.697 0.15911 0.55215 0.0
C1345 C 0.69747 0.13904 0.51334 0.0
C1346 C 0.72269 0.16492 0.59078 0.0
C1347 C 0.68735 0.16204 0.62364 0.0
N1348 N 0.70317 0.14491 0.539 0.0
N1349 N 0.6849 0.16171 0.59701 0.0
H1350 H 0.51197 0.18477 0.13589 0.0
H1351 H 0.45279 0.11129 0.00486 0.0
H1352 H 0.45008 0.11497 0.13414 0.0
H1353 H 0.52415 0.17072 0.00569 0.0
H1354 H 0.45027 0.1154 0.05218 0.0
H1355 H 0.51597 0.1825 0.08791 0.0
C1356 C 0.49934 0.16898 0.1254 0.0
C1357 C 0.48076 0.14997 0.13887 0.0
C1358 C 0.46651 0.1276 0.04208 0.0
C1359 C 0.48506 0.14737 0.08452 0.0
C1360 C 0.46786 0.12541 0.01503 0.0
C1361 C 0.48866 0.14078 0.00142 0.0
C1362 C 0.48609 0.14532 0.05569 0.0
C1363 C 0.50785 0.15846 0.0156 0.0
C1364 C 0.50166 0.16767 0.09817 0.0
C1365 C 0.46488 0.12987 0.12455 0.0
N1366 N 0.5061 0.16031 0.04212 0.0
N1367 N 0.46734 0.12915 0.09813 0.0
H1368 H 0.89967 0.29039 0.12824 0.0
H1369 H 0.85545 0.32711 -0.0004 0.0
H1370 H 0.86218 0.32924 0.12961 0.0
H1371 H 0.91632 0.31765 0.00058 0.0
H1372 H 0.84867 0.31585 0.04616 0.0
H1373 H 0.89737 0.28938 0.08009 0.0
C1374 C 0.89101 0.29875 0.11847 0.0
C1375 C 0.88148 0.31031 0.13299 0.0
C1376 C 0.86325 0.31589 0.03596 0.0
C1377 C 0.87813 0.30843 0.07814 0.0
C1378 C 0.86719 0.32236 0.00949 0.0
C1379 C 0.88681 0.32386 -0.00363 0.0
C1380 C 0.87893 0.31071 0.04926 0.0
C1381 C 0.90101 0.3168 0.00989 0.0
C1382 C 0.88949 0.2979 0.09106 0.0
C1383 C 0.86972 0.32008 0.11928 0.0
N1384 N 0.89697 0.31081 0.03577 0.0
N1385 N 0.86849 0.31902 0.09258 0.0
H1386 H 0.67641 0.51072 0.0083 0.0
H1387 H 0.69493 0.58864 0.13609 0.0
H1388 H 0.69047 0.58275 0.00697 0.0
H1389 H 0.70538 0.52844 0.13828 0.0
H1390 H 0.6887 0.5836 0.08874 0.0
H1391 H 0.6835 0.51422 0.05619 0.0
C1392 C 0.68114 0.52726 0.01807 0.0
C1393 C 0.68297 0.54652 0.00377 0.0
C1394 C 0.69235 0.57145 0.0995 0.0
C1395 C 0.69077 0.55049 0.05798 0.0
C1396 C 0.69565 0.57417 0.12656 0.0
C1397 C 0.70051 0.55883 0.14101 0.0
C1398 C 0.69382 0.55319 0.08676 0.0
C1399 C 0.70174 0.54066 0.12768 0.0
C1400 C 0.68524 0.52926 0.04524 0.0
C1401 C 0.68922 0.5676 0.01718 0.0
N1402 N 0.69832 0.53825 0.10114 0.0
N1403 N 0.69273 0.56895 0.04356 0.0
H1404 H 0.59054 0.92229 0.966 0.0
H1405 H 0.53173 0.84597 0.83645 0.0
H1406 H 0.51975 0.86189 0.96599 0.0
H1407 H 0.59273 0.91638 0.83661 0.0
H1408 H 0.52802 0.84901 0.88433 0.0
H1409 H 0.59307 0.91748 0.91877 0.0
C1410 C 0.57561 0.90783 0.95604 0.0
C1411 C 0.55494 0.89239 0.96983 0.0
C1412 C 0.54208 0.8638 0.87376 0.0
C1413 C 0.55754 0.88702 0.91571 0.0
C1414 C 0.54424 0.86205 0.84657 0.0
C1415 C 0.56248 0.88101 0.83268 0.0
C1416 C 0.5585 0.88449 0.88695 0.0
C1417 C 0.5782 0.9015 0.84655 0.0
C1418 C 0.57696 0.90523 0.92904 0.0
C1419 C 0.53593 0.87423 0.95593 0.0
N1420 N 0.57591 0.90265 0.87294 0.0
N1421 N 0.53769 0.87199 0.9295 0.0
H1422 H 0.17586 0.67131 0.96993 0.0
H1423 H 0.12127 0.69167 0.83877 0.0
H1424 H 0.11456 0.67995 0.96788 0.0
H1425 H 0.19106 0.69991 0.84079 0.0
H1426 H 0.11814 0.68549 0.88624 0.0
H1427 H 0.18174 0.68044 0.92261 0.0
C1428 C 0.16375 0.67524 0.95953 0.0
C1429 C 0.1447 0.67488 0.97272 0.0
C1430 C 0.1342 0.6887 0.8764 0.0
C1431 C 0.15123 0.6852 0.91902 0.0
C1432 C 0.13589 0.69201 0.84928 0.0
C1433 C 0.15636 0.69606 0.83595 0.0
C1434 C 0.15306 0.68931 0.89032 0.0
C1435 C 0.175 0.69684 0.85049 0.0
C1436 C 0.16716 0.68054 0.93265 0.0
C1437 C 0.12962 0.6803 0.95851 0.0
N1438 N 0.17286 0.69333 0.87702 0.0
N1439 N 0.13313 0.68508 0.93239 0.0
H1440 H 0.39549 0.46184 0.95466 0.0
H1441 H 0.33715 0.4964 0.8375 0.0
H1442 H 0.35211 0.4935 0.96825 0.0
H1443 H 0.35809 0.44348 0.83085 0.0
H1444 H 0.34741 0.50052 0.88444 0.0
H1445 H 0.38691 0.46004 0.90766 0.0
C1446 C 0.38402 0.46826 0.9478 0.0
C1447 C 0.37431 0.47762 0.96543 0.0
C1448 C 0.3498 0.4881 0.87256 0.0
C1449 C 0.36486 0.47607 0.91166 0.0
C1450 C 0.34388 0.48567 0.84586 0.0
C1451 C 0.34686 0.46964 0.83019 0.0
C1452 C 0.35888 0.47454 0.88349 0.0
C1453 C 0.35597 0.45643 0.84199 0.0
C1454 C 0.37926 0.46736 0.92096 0.0
C1455 C 0.36011 0.4863 0.95531 0.0
N1456 N 0.36168 0.4592 0.86792 0.0
N1457 N 0.35578 0.48531 0.92902 0.0
H1458 H 0.17733 0.49492 0.34017 0.0
H1459 H 0.10064 0.44037 0.47071 0.0
H1460 H 0.10937 0.43065 0.34233 0.0
H1461 H 0.16396 0.50909 0.46878 0.0
H1462 H 0.10431 0.4365 0.42349 0.0
H1463 H 0.17341 0.50065 0.38725 0.0
C1464 C 0.1616 0.48206 0.35058 0.0
C1465 C 0.14365 0.46226 0.33748 0.0
C1466 C 0.11742 0.45247 0.43331 0.0
C1467 C 0.13905 0.46869 0.39096 0.0
C1468 C 0.11543 0.45458 0.46028 0.0
C1469 C 0.13216 0.47498 0.47357 0.0
C1470 C 0.13633 0.47085 0.4195 0.0
C1471 C 0.15069 0.49311 0.45913 0.0
C1472 C 0.15932 0.48539 0.37734 0.0
C1473 C 0.12349 0.44627 0.35167 0.0
N1474 N 0.15237 0.49058 0.43276 0.0
N1475 N 0.1218 0.44978 0.3777 0.0
H1476 H 0.58794 0.67959 0.46721 0.0
H1477 H 0.52769 0.69573 0.33821 0.0
H1478 H 0.51649 0.66712 0.46802 0.0
H1479 H 0.5882 0.68577 0.33802 0.0
H1480 H 0.52448 0.68951 0.38626 0.0
H1481 H 0.59004 0.68723 0.42009 0.0
C1482 C 0.57277 0.67876 0.45746 0.0
C1483 C 0.55204 0.6728 0.47145 0.0
C1484 C 0.53831 0.68855 0.37555 0.0
C1485 C 0.55413 0.68105 0.41742 0.0
C1486 C 0.54018 0.69213 0.34828 0.0
C1487 C 0.55812 0.69107 0.33426 0.0
C1488 C 0.55476 0.68429 0.38864 0.0
C1489 C 0.57387 0.68634 0.34806 0.0
C1490 C 0.57388 0.68287 0.43052 0.0
C1491 C 0.53273 0.67151 0.45779 0.0
N1492 N 0.57188 0.68324 0.3745 0.0
N1493 N 0.53423 0.67563 0.43138 0.0
H1494 H 0.35375 0.91675 0.33731 0.0
H1495 H 0.36884 0.85913 0.46917 0.0
H1496 H 0.34051 0.84502 0.33947 0.0
H1497 H 0.35947 0.91999 0.46687 0.0
H1498 H 0.36274 0.85492 0.42117 0.0
H1499 H 0.36121 0.91998 0.38454 0.0
C1500 C 0.35271 0.90176 0.34773 0.0
C1501 C 0.34659 0.88061 0.33455 0.0
C1502 C 0.36189 0.86906 0.4313 0.0
C1503 C 0.35465 0.88402 0.38868 0.0
C1504 C 0.36541 0.87149 0.45855 0.0
C1505 C 0.3645 0.88984 0.47185 0.0
C1506 C 0.35784 0.88533 0.41748 0.0
C1507 C 0.35996 0.9054 0.45736 0.0
C1508 C 0.35672 0.90352 0.37473 0.0
C1509 C 0.34503 0.86157 0.34905 0.0
N1510 N 0.35692 0.90285 0.43093 0.0
N1511 N 0.34908 0.86372 0.37548 0.0
H1512 H 0.27751 0.28582 0.0377 0.0
H1513 H 0.37904 0.41102 0.09418 0.0
H1514 H 0.34376 0.29792 0.07001 0.0
H1515 H 0.313 0.39977 0.06196 0.0
H1516 H 0.36635 0.36953 0.08517 0.0
H1517 H 0.29083 0.32796 0.04406 0.0
C1518 C 0.29503 0.2974 0.04553 0.0
C1519 C 0.30949 0.28831 0.05343 0.0
C1520 C 0.35458 0.37612 0.08018 0.0
C1521 C 0.32465 0.33635 0.06137 0.0
C1522 C 0.36175 0.39979 0.08559 0.0
C1523 C 0.34711 0.40898 0.07885 0.0
C1524 C 0.3326 0.36147 0.06794 0.0
C1525 C 0.32494 0.39353 0.06747 0.0
C1526 C 0.30255 0.32141 0.04948 0.0
C1527 C 0.33196 0.30413 0.0638 0.0
N1528 N 0.31842 0.37063 0.06229 0.0
N1529 N 0.33874 0.32725 0.06765 0.0
H1530 H 0.62861 0.95873 0.11489 0.0
H1531 H 0.74931 0.02107 0.0301 0.0
H1532 H 0.63137 0.97045 0.03079 0.0
H1533 H 0.74678 0.02521 0.11495 0.0
H1534 H 0.70581 0.99646 0.02967 0.0
H1535 H 0.67206 0.97725 0.11509 0.0
C1536 C 0.63828 0.96502 0.09653 0.0
C1537 C 0.62636 0.96339 0.07293 0.0
C1538 C 0.71489 1.00271 0.04837 0.0
C1539 C 0.67582 0.98428 0.07286 0.0
C1540 C 0.73967 0.01669 0.04857 0.0
C1541 C 0.75167 0.02555 0.07249 0.0
C1542 C 0.70215 0.99733 0.07228 0.0
C1543 C 0.73828 0.01918 0.09593 0.0
C1544 C 0.66304 0.97562 0.09661 0.0
C1545 C 0.6398 0.97172 0.0496 0.0
N1546 N 0.71435 1.00558 0.09523 0.0
N1547 N 0.6637 0.9818 0.05017 0.0
H1548 H 0.97536 0.69362 0.05513 0.0
H1549 H 0.09873 0.69925 0.08521 0.0
H1550 H 0.04125 0.75967 0.0588 0.0
H1551 H 0.03264 0.63519 0.07073 0.0
H1552 H 0.07855 0.72226 0.07853 0.0
H1553 H 0.99677 0.67232 0.06102 0.0
C1554 C 0.99451 0.70359 0.05633 0.0
C1555 C 1.00661 0.72835 0.0559 0.0
C1556 C 0.06844 0.70314 0.07721 0.0
C1557 C 0.03137 0.70416 0.06411 0.0
C1558 C 0.07986 0.69003 0.08151 0.0
C1559 C 0.06719 0.6653 0.07889 0.0
C1560 C 0.04429 0.69132 0.07033 0.0
C1561 C 0.04296 0.65422 0.07321 0.0
C1562 C 1.00675 0.69146 0.06011 0.0
C1563 C 0.03136 0.74052 0.05839 0.0
N1564 N 0.03237 0.66726 0.06905 0.0
N1565 N 0.04296 0.7283 0.06269 0.0
H1566 H 0.4117 0.39226 0.38997 0.0
H1567 H 0.29436 0.26733 0.41725 0.0
H1568 H 0.41258 0.32679 0.39076 0.0
H1569 H 0.29644 0.33399 0.40879 0.0
H1570 H 0.33758 0.28796 0.41017 0.0
H1571 H 0.36905 0.3703 0.39667 0.0
C1572 C 0.40268 0.37309 0.39075 0.0
C1573 C 0.41553 0.36127 0.38927 0.0
C1574 C 0.32857 0.29807 0.41027 0.0
C1575 C 0.36664 0.33584 0.39833 0.0
C1576 C 0.30403 0.28638 0.41478 0.0
C1577 C 0.29195 0.29909 0.4139 0.0
C1578 C 0.34091 0.32254 0.40491 0.0
C1579 C 0.30514 0.3236 0.40985 0.0
C1580 C 0.37835 0.36053 0.39498 0.0
C1581 C 0.40315 0.33647 0.39118 0.0
N1582 N 0.32877 0.33444 0.40541 0.0
N1583 N 0.37934 0.32452 0.39589 0.0
H1584 H 0.69786 0.96814 0.41659 0.0
H1585 H 0.71227 0.09665 0.39627 0.0
H1586 H 0.76568 0.03202 0.42162 0.0
H1587 H 0.6459 0.03097 0.39649 0.0
H1588 H 0.73307 0.07428 0.40329 0.0
H1589 H 0.67903 0.99177 0.40974 0.0
C1590 C 0.7087 0.98727 0.417 0.0
C1591 C 0.73326 0.99815 0.42011 0.0
C1592 C 0.71399 0.06477 0.40131 0.0
C1593 C 0.71196 0.02557 0.411 0.0
C1594 C 0.7022 0.07749 0.39679 0.0
C1595 C 0.67741 0.0655 0.39519 0.0
C1596 C 0.70077 0.04001 0.40436 0.0
C1597 C 0.66506 0.04078 0.39709 0.0
C1598 C 0.698 1.00081 0.4127 0.0
C1599 C 0.7466 0.02299 0.41985 0.0
N1600 N 0.67681 0.02892 0.40165 0.0
N1601 N 0.7358 0.03592 0.41507 0.0
H1602 H 0.96751 0.62133 0.44836 0.0
H1603 H 0.03301 0.7396 0.36442 0.0
H1604 H 0.96338 0.62199 0.36341 0.0
H1605 H 0.02256 0.73962 0.4485 0.0
H1606 H 1.00722 0.69691 0.36372 0.0
H1607 H 0.98687 0.66429 0.44878 0.0
C1608 C 0.97064 0.63053 0.42969 0.0
C1609 C 0.9641 0.618 0.40571 0.0
C1610 C 1.01037 0.70616 0.38233 0.0
C1611 C 0.98649 0.66757 0.40617 0.0
C1612 C 0.02528 0.73062 0.38285 0.0
C1613 C 0.03031 0.74327 0.40671 0.0
C1614 C 1.0005 0.69394 0.40588 0.0
C1615 C 1.01932 0.7306 0.42974 0.0
C1616 C 0.98161 0.65514 0.43002 0.0
C1617 C 0.96822 0.63093 0.38229 0.0
N1618 N 1.00516 0.70656 0.42881 0.0
N1619 N 0.97946 0.65507 0.38308 0.0
H1620 H 0.68199 0.62298 0.86211 0.0
H1621 H 0.74791 0.74238 0.94892 0.0
H1622 H 0.68635 0.62364 0.9471 0.0
H1623 H 0.72889 0.7401 0.86689 0.0
H1624 H 0.73092 0.6991 0.94775 0.0
H1625 H 0.70532 0.66657 0.86239 0.0
C1626 C 0.68809 0.63225 0.88072 0.0
C1627 C 0.68191 0.61971 0.90457 0.0
C1628 C 0.7306 0.7082 0.93003 0.0
C1629 C 0.70851 0.66934 0.90518 0.0
C1630 C 0.74027 0.73287 0.93074 0.0
C1631 C 0.73954 0.74493 0.90816 0.0
C1632 C 0.72045 0.69564 0.90648 0.0
C1633 C 0.72957 0.73166 0.885 0.0
C1634 C 0.70128 0.65709 0.88095 0.0
C1635 C 0.69031 0.63261 0.92821 0.0
N1636 N 0.72045 0.70787 0.88479 0.0
N1637 N 0.70304 0.65663 0.92793 0.0
H1638 H 0.4132 0.07606 0.85857 0.0
H1639 H 0.29319 1.01072 0.94425 0.0
H1640 H 0.41082 0.06148 0.94199 0.0
H1641 H 0.29496 1.01123 0.85911 0.0
H1642 H 0.33665 0.03549 0.9445 0.0
H1643 H 0.36982 0.05807 0.85896 0.0
C1644 C 0.40363 0.06923 0.87691 0.0
C1645 C 0.41565 0.06994 0.90012 0.0
C1646 C 0.32743 0.03027 0.92578 0.0
C1647 C 0.36627 0.04965 0.90087 0.0
C1648 C 0.30266 0.01624 0.92569 0.0
C1649 C 0.2905 1.00859 0.90169 0.0
C1650 C 0.33996 0.03685 0.9017 0.0
C1651 C 0.30365 0.01633 0.87813 0.0
C1652 C 0.37891 0.05896 0.87717 0.0
C1653 C 0.40234 0.06096 0.92345 0.0
N1654 N 0.32758 0.02989 0.87873 0.0
N1655 N 0.37848 0.05118 0.9232 0.0
H1656 H 1.00956 0.39271 0.87262 0.0
H1657 H 1.00522 0.27392 0.92287 0.0
H1658 H 0.94408 0.32691 0.88354 0.0
H1659 H 0.06916 0.34035 0.90917 0.0
H1660 H 0.98196 0.29314 0.91245 0.0
H1661 H 0.03126 0.3735 0.88732 0.0
C1662 C 0.99969 0.37411 0.87777 0.0
C1663 C 0.97487 0.36152 0.87701 0.0
C1664 C 1.00109 0.30358 0.91222 0.0
C1665 C 0.99978 0.33934 0.89455 0.0
C1666 C 1.01434 0.2927 0.91861 0.0
C1667 C 0.03912 0.30565 0.91706 0.0
C1668 C 1.01281 0.32749 0.90426 0.0
C1669 C 0.05007 0.32978 0.91072 0.0
C1670 C 1.01213 0.36317 0.8865 0.0
C1671 C 0.96318 0.33745 0.8842 0.0
N1672 N 0.0369 0.33983 0.90437 0.0
N1673 N 0.9757 0.32716 0.89277 0.0
H1674 H 0.74743 0.73626 0.52789 0.0
H1675 H 0.6277 0.6761 0.61445 0.0
H1676 H 0.74534 0.72533 0.61211 0.0
H1677 H 0.62912 0.67228 0.52949 0.0
H1678 H 0.67123 0.70027 0.61426 0.0
H1679 H 0.70407 0.71863 0.52827 0.0
C1680 C 0.73793 0.73032 0.54639 0.0
C1681 C 0.75001 0.73191 0.56985 0.0
C1682 C 0.66191 0.69421 0.59567 0.0
C1683 C 0.70066 0.71204 0.5706 0.0
C1684 C 0.63711 0.6805 0.59583 0.0
C1685 C 0.62479 0.67182 0.57205 0.0
C1686 C 0.67434 0.69947 0.57155 0.0
C1687 C 0.63788 0.67817 0.5484 0.0
C1688 C 0.71322 0.72024 0.54665 0.0
C1689 C 0.73679 0.72406 0.59338 0.0
N1690 N 0.66184 0.69148 0.54876 0.0
N1691 N 0.71294 0.71446 0.59313 0.0
H1692 H 0.35587 0.95819 0.61639 0.0
H1693 H 0.29308 0.01484 0.52978 0.0
H1694 H 0.36112 0.96553 0.53163 0.0
H1695 H 0.30259 0.02314 0.61417 0.0
H1696 H 0.31211 0.9905 0.53036 0.0
H1697 H 0.3303 0.97596 0.61631 0.0
C1698 C 0.35151 0.96333 0.59783 0.0
C1699 C 0.36097 0.96074 0.57409 0.0
C1700 C 0.30987 0.99758 0.54876 0.0
C1701 C 0.33171 0.98077 0.57371 0.0
C1702 C 0.29896 1.01139 0.54839 0.0
C1703 C 0.29654 0.02133 0.57185 0.0
C1704 C 0.31814 0.99348 0.57279 0.0
C1705 C 0.30441 0.01619 0.59549 0.0
C1706 C 0.337 0.97351 0.59775 0.0
C1707 C 0.35464 0.9676 0.55052 0.0
N1708 N 0.31489 1.00274 0.59534 0.0
N1709 N 0.34053 0.97732 0.55094 0.0
H1710 H 0.03169 0.28468 0.60569 0.0
H1711 H 0.03677 0.40008 0.54887 0.0
H1712 H 0.99979 0.28624 0.53186 0.0
H1713 H 0.08729 0.40454 0.6069 0.0
H1714 H 0.02196 0.35801 0.54448 0.0
H1715 H 0.05234 0.328 0.60734 0.0
C1716 C 0.02958 0.29428 0.58944 0.0
C1717 C 1.01423 0.282 0.56846 0.0
C1718 C 0.03631 0.3681 0.55815 0.0
C1719 C 0.03704 0.33143 0.57074 0.0
C1720 C 0.04474 0.39221 0.56089 0.0
C1721 C 0.06345 0.40605 0.57829 0.0
C1722 C 0.04633 0.35734 0.57313 0.0
C1723 C 0.07278 0.3946 0.59338 0.0
C1724 C 0.04124 0.31896 0.5905 0.0
C1725 C 1.01175 0.2951 0.54814 0.0
N1726 N 0.06408 0.37084 0.59049 0.0
N1727 N 0.02276 0.31914 0.54999 0.0
H1728 H 0.07917 0.68309 0.69181 0.0
H1729 H 0.96368 0.62374 0.7852 0.0
H1730 H 0.08158 0.69042 0.77655 0.0
H1731 H 0.96162 0.63311 0.70108 0.0
H1732 H 1.00703 0.64194 0.78224 0.0
H1733 H 0.03575 0.65812 0.69461 0.0
C1734 C 0.07062 0.67926 0.71093 0.0
C1735 C 0.08394 0.68918 0.73387 0.0
C1736 C 0.99697 0.63986 0.76445 0.0
C1737 C 0.03458 0.66065 0.73735 0.0
C1738 C 0.97228 0.62947 0.76618 0.0
C1739 C 0.95904 0.62729 0.7435 0.0
C1740 C 1.00835 0.64773 0.73982 0.0
C1741 C 0.9711 0.63485 0.71924 0.0
C1742 C 0.0459 0.66512 0.71257 0.0
C1743 C 0.07198 0.68356 0.75825 0.0
N1744 N 0.99497 0.64474 0.71807 0.0
N1745 N 0.04807 0.6698 0.75933 0.0
H1746 H 0.34766 0.40002 0.68669 0.0
H1747 H 0.41232 0.34768 0.7772 0.0
H1748 H 0.34459 0.39737 0.77179 0.0
H1749 H 0.40101 0.33551 0.69337 0.0
H1750 H 0.39331 0.37204 0.77507 0.0
H1751 H 0.37331 0.38237 0.68813 0.0
C1752 C 0.35252 0.39593 0.70559 0.0
C1753 C 0.34361 0.39974 0.72906 0.0
C1754 C 0.39514 0.36408 0.75715 0.0
C1755 C 0.37294 0.37985 0.73099 0.0
C1756 C 0.40601 0.35024 0.75841 0.0
C1757 C 0.40789 0.3392 0.73559 0.0
C1758 C 0.38643 0.36711 0.73284 0.0
C1759 C 0.39954 0.34327 0.71163 0.0
C1760 C 0.36707 0.38581 0.70646 0.0
C1761 C 0.3506 0.39426 0.7531 0.0
N1762 N 0.38916 0.35677 0.71091 0.0
N1763 N 0.36471 0.38455 0.75344 0.0
H1764 H 0.63176 0.95572 0.68743 0.0
H1765 H 0.68439 0.07457 0.77479 0.0
H1766 H 0.6366 0.95711 0.77241 0.0
H1767 H 0.69732 0.07425 0.69132 0.0
H1768 H 0.66021 0.03109 0.77357 0.0
H1769 H 0.64937 0.99913 0.68772 0.0
C1770 C 0.63632 0.96509 0.70607 0.0
C1771 C 0.6331 0.95284 0.72984 0.0
C1772 C 0.66827 0.04063 0.75552 0.0
C1773 C 0.6529 1.00218 0.73044 0.0
C1774 C 0.68199 0.06541 0.75624 0.0
C1775 C 0.69318 0.07805 0.73326 0.0
C1776 C 0.66549 0.0285 0.73159 0.0
C1777 C 0.68938 0.06525 0.70966 0.0
C1778 C 0.64641 0.98981 0.70627 0.0
C1779 C 0.6392 0.96584 0.75352 0.0
N1780 N 0.67595 0.04126 0.70945 0.0
N1781 N 0.64881 0.9897 0.75321 0.0
H1782 H 0.41667 0.07351 0.27709 0.0
H1783 H 0.345 0.95495 0.19006 0.0
H1784 H 0.39205 0.07197 0.19758 0.0
H1785 H 0.3531 0.9547 0.27452 0.0
H1786 H 0.3687 0.99853 0.19071 0.0
H1787 H 0.39905 0.03018 0.27509 0.0
C1788 C 0.40762 0.06415 0.2593 0.0
C1789 C 0.40565 0.07646 0.23766 0.0
C1790 C 0.36543 0.98886 0.20906 0.0
C1791 C 0.38588 0.02712 0.235 0.0
C1792 C 0.35207 0.96403 0.2086 0.0
C1793 C 0.34683 0.95129 0.23227 0.0
C1794 C 0.3738 1.00085 0.23329 0.0
C1795 C 0.35638 0.96391 0.25584 0.0
C1796 C 0.39762 0.03946 0.25811 0.0
C1797 C 0.39387 0.06336 0.21495 0.0
N1798 N 0.36927 0.98792 0.25579 0.0
N1799 N 0.3845 0.03955 0.21425 0.0
H1800 H 0.96794 0.39094 0.22923 0.0
H1801 H 0.07056 0.35831 0.23878 0.0
H1802 H 0.95775 0.3252 0.26117 0.0
H1803 H 0.08251 0.42566 0.21025 0.0
H1804 H 0.02867 0.34509 0.24406 0.0
H1805 H 1.00947 0.40366 0.22106 0.0
C1806 C 0.97448 0.37924 0.23482 0.0
C1807 C 0.95924 0.35692 0.24598 0.0
C1808 C 0.04033 0.36268 0.23639 0.0
C1809 C 1.00691 0.37134 0.23619 0.0
C1810 C 0.06427 0.37021 0.23315 0.0
C1811 C 0.08014 0.39318 0.2241 0.0
C1812 C 0.03201 0.37825 0.23071 0.0
C1813 C 0.07094 0.40777 0.2171 0.0
C1814 C 0.99822 0.38651 0.22998 0.0
C1815 C 0.9688 0.34259 0.25274 0.0
N1816 N 0.0475 0.40015 0.22082 0.0
N1817 N 0.99196 0.35 0.24761 0.0
H1818 H 0.63001 0.68573 0.19279 0.0
H1819 H 0.68877 0.62656 0.28211 0.0
H1820 H 0.63442 0.6902 0.27778 0.0
H1821 H 0.6986 0.63694 0.19791 0.0
H1822 H 0.66294 0.64397 0.28067 0.0
H1823 H 0.64938 0.66166 0.19396 0.0
C1824 C 0.63484 0.68149 0.21162 0.0
C1825 C 0.63097 0.69032 0.23512 0.0
C1826 C 0.67071 0.64229 0.26252 0.0
C1827 C 0.65287 0.66279 0.23674 0.0
C1828 C 0.6854 0.63232 0.26339 0.0
C1829 C 0.69619 0.63065 0.24024 0.0
C1830 C 0.66661 0.65029 0.2383 0.0
C1831 C 0.69106 0.63827 0.2164 0.0
C1832 C 0.64594 0.66784 0.21234 0.0
C1833 C 0.63748 0.68418 0.25907 0.0
N1834 N 0.67676 0.64778 0.21607 0.0
N1835 N 0.64814 0.67092 0.25925 0.0
H1836 H 0.30958 0.20191 0.13363 0.0
H1837 H 0.40887 0.1678 0.16544 0.0
H1838 H 0.35379 0.19646 0.07401 0.0
H1839 H 0.36025 0.16719 0.22346 0.0
H1840 H 0.39035 0.18026 0.13203 0.0
H1841 H 0.32899 0.19067 0.16702 0.0
C1842 C 0.32324 0.1982 0.12747 0.0
C1843 C 0.32992 0.20003 0.10083 0.0
C1844 C 0.38375 0.17742 0.15208 0.0
C1845 C 0.35255 0.18745 0.13921 0.0
C1846 C 0.39443 0.17046 0.17122 0.0
C1847 C 0.3861 0.16641 0.19733 0.0
C1848 C 0.36463 0.18046 0.15909 0.0
C1849 C 0.36706 0.1698 0.20355 0.0
C1850 C 0.33445 0.19192 0.14663 0.0
C1851 C 0.34817 0.1955 0.09426 0.0
N1852 N 0.357 0.17663 0.18459 0.0
N1853 N 0.35881 0.1894 0.11329 0.0
H1854 H 0.84149 0.22427 0.2045 0.0
H1855 H 0.872 0.13597 0.12733 0.0
H1856 H 0.90846 0.22657 0.21173 0.0
H1857 H 0.80916 0.1404 0.1136 0.0
H1858 H 0.88458 0.16712 0.16065 0.0
H1859 H 0.8284 0.1917 0.17336 0.0
C1860 C 0.85352 0.21803 0.19953 0.0
C1861 C 0.87624 0.22843 0.21071 0.0
C1862 C 0.86803 0.16125 0.15035 0.0
C1863 C 0.86115 0.19073 0.1751 0.0
C1864 C 0.86076 0.14336 0.13143 0.0
C1865 C 0.8395 0.13558 0.11756 0.0
C1866 C 0.85386 0.17134 0.15557 0.0
C1867 C 0.82582 0.14606 0.12349 0.0
C1868 C 0.84596 0.1993 0.18178 0.0
C1869 C 0.89076 0.21908 0.20383 0.0
N1870 N 0.83322 0.16335 0.14203 0.0
N1871 N 0.883 0.20082 0.18643 0.0
H1872 H 0.89205 0.67458 0.09702 0.0
H1873 H 0.81562 0.69289 0.20806 0.0
H1874 H 0.90329 0.74298 0.12033 0.0
H1875 H 0.80811 0.62505 0.18897 0.0
H1876 H 0.84739 0.71148 0.17566 0.0
H1877 H 0.86062 0.65602 0.12988 0.0
C1878 C 0.88785 0.6857 0.10895 0.0
C1879 C 0.90036 0.7104 0.10584 0.0
C1880 C 0.83879 0.69252 0.17858 0.0
C1881 C 0.86443 0.68925 0.14373 0.0
C1882 C 0.8207 0.68188 0.19721 0.0
C1883 C 0.80907 0.6573 0.20136 0.0
C1884 C 0.84537 0.67854 0.16386 0.0
C1885 C 0.81625 0.64396 0.18628 0.0
C1886 C 0.86998 0.6751 0.12784 0.0
C1887 C 0.89436 0.72393 0.12221 0.0
N1888 N 0.83391 0.65475 0.16823 0.0
N1889 N 0.8768 0.71318 0.14038 0.0
H1890 H 0.17446 0.35095 0.24302 0.0
H1891 H 0.19759 0.33835 0.39592 0.0
H1892 H 0.16584 0.39112 0.30521 0.0
H1893 H 0.2042 0.2966 0.33413 0.0
H1894 H 0.18624 0.35807 0.36291 0.0
H1895 H 0.18534 0.33083 0.27603 0.0
C1896 C 0.17473 0.35549 0.2636 0.0
C1897 C 0.16922 0.37283 0.27126 0.0
C1898 C 0.19014 0.34457 0.35656 0.0
C1899 C 0.18192 0.34994 0.30925 0.0
C1900 C 0.19675 0.33337 0.37541 0.0
C1901 C 0.2019 0.31576 0.36785 0.0
C1902 C 0.18869 0.33822 0.32986 0.0
C1903 C 0.20012 0.30983 0.34097 0.0
C1904 C 0.18107 0.34406 0.28246 0.0
C1905 C 0.17026 0.37817 0.29826 0.0
N1906 N 0.19373 0.32106 0.32297 0.0
N1907 N 0.17646 0.36677 0.31624 0.0
H1908 H 0.74532 0.89318 0.35759 0.0
H1909 H 0.62306 0.79937 0.28948 0.0
H1910 H 0.67732 0.88244 0.38185 0.0
H1911 H 0.69082 0.8073 0.26906 0.0
H1912 H 0.64251 0.83002 0.32302 0.0
H1913 H 0.72565 0.86238 0.32431 0.0
C1914 C 0.72627 0.88446 0.35585 0.0
C1915 C 0.71298 0.89049 0.37256 0.0
C1916 C 0.65311 0.82504 0.31118 0.0
C1917 C 0.69025 0.85494 0.33457 0.0
C1918 C 0.64198 0.80741 0.29209 0.0
C1919 C 0.65528 0.80066 0.27631 0.0
C1920 C 0.67774 0.83606 0.31457 0.0
C1921 C 0.67985 0.81209 0.28041 0.0
C1922 C 0.71501 0.86674 0.33692 0.0
C1923 C 0.68826 0.87822 0.36963 0.0
N1924 N 0.69025 0.82918 0.2991 0.0
N1925 N 0.6777 0.86108 0.35098 0.0
H1926 H 0.20947 0.86698 0.24767 0.0
H1927 H 0.16808 0.82935 0.39729 0.0
H1928 H 0.2535 0.86101 0.30715 0.0
H1929 H 0.12398 0.83407 0.33693 0.0
H1930 H 0.19959 0.84089 0.36475 0.0
H1931 H 0.17811 0.8552 0.2803 0.0
C1932 C 0.21261 0.8633 0.26762 0.0
C1933 C 0.23424 0.86508 0.27464 0.0
C1934 C 0.18302 0.83942 0.35863 0.0
C1935 C 0.19819 0.85132 0.31219 0.0
C1936 C 0.16496 0.83272 0.3772 0.0
C1937 C 0.14328 0.83074 0.36991 0.0
C1938 C 0.17943 0.84416 0.33252 0.0
C1939 C 0.14044 0.83568 0.34361 0.0
C1940 C 0.19461 0.85644 0.28625 0.0
C1941 C 0.23707 0.85964 0.30075 0.0
N1942 N 0.15827 0.84213 0.32591 0.0
N1943 N 0.21928 0.85307 0.31858 0.0
H1944 H 0.74745 0.8631 0.85445 0.0
H1945 H 0.62565 0.83487 0.78552 0.0
H1946 H 0.6796 0.80297 0.87454 0.0
H1947 H 0.69353 0.89489 0.76528 0.0
H1948 H 0.64503 0.82308 0.81846 0.0
H1949 H 0.72805 0.87494 0.82158 0.0
C1950 C 0.7285 0.85229 0.85189 0.0
C1951 C 0.71518 0.83196 0.86734 0.0
C1952 C 0.6557 0.83883 0.8068 0.0
C1953 C 0.69275 0.8456 0.82983 0.0
C1954 C 0.6446 0.84567 0.78807 0.0
C1955 C 0.65794 0.86595 0.77254 0.0
C1956 C 0.68034 0.85236 0.81013 0.0
C1957 C 0.68254 0.87898 0.7765 0.0
C1958 C 0.71739 0.85915 0.83319 0.0
C1959 C 0.69058 0.81891 0.86336 0.0
N1960 N 0.69292 0.87198 0.79489 0.0
N1961 N 0.68019 0.82594 0.84501 0.0
H1962 H 0.2387 0.89155 0.86586 0.0
H1963 H 0.1415 0.80781 0.76019 0.0
H1964 H 0.1751 0.89384 0.84907 0.0
H1965 H 0.20343 0.80324 0.77954 0.0
H1966 H 0.15418 0.84021 0.79167 0.0
H1967 H 0.22647 0.85969 0.83376 0.0
C1968 C 0.22212 0.88531 0.85554 0.0
C1969 C 0.20793 0.89545 0.86025 0.0
C1970 C 0.165 0.83213 0.78903 0.0
C1971 C 0.19391 0.85907 0.82317 0.0
C1972 C 0.15785 0.81371 0.77092 0.0
C1973 C 0.1714 0.80274 0.7672 0.0
C1974 C 0.18591 0.83972 0.80354 0.0
C1975 C 0.19224 0.81092 0.782 0.0
C1976 C 0.2152 0.86718 0.83708 0.0
C1977 C 0.18679 0.88685 0.84589 0.0
N1978 N 0.19886 0.82892 0.79949 0.0
N1979 N 0.18042 0.86915 0.82804 0.0
H1980 H 0.13973 0.28755 0.85565 0.0
H1981 H 0.2341 0.40806 0.7848 0.0
H1982 H 0.15321 0.35667 0.87934 0.0
H1983 H 0.22452 0.33956 0.76479 0.0
H1984 H 0.20369 0.38939 0.81863 0.0
H1985 H 0.16963 0.30606 0.82112 0.0
C1986 C 0.14887 0.3066 0.85353 0.0
C1987 C 0.14393 0.32056 0.87048 0.0
C1988 C 0.20824 0.37843 0.80684 0.0
C1989 C 0.17837 0.34192 0.83107 0.0
C1990 C 0.22574 0.38912 0.78756 0.0
C1991 C 0.23205 0.37542 0.7719 0.0
C1992 C 0.19686 0.35382 0.81054 0.0
C1993 C 0.22013 0.35083 0.77614 0.0
C1994 C 0.16606 0.31718 0.83389 0.0
C1995 C 0.15663 0.34522 0.867 0.0
N1996 N 0.20316 0.34085 0.79505 0.0
N1997 N 0.17322 0.35509 0.84769 0.0
H1998 H 0.83937 0.61722 0.69407 0.0
H1999 H 0.86753 0.73907 0.62507 0.0
H2000 H 0.89916 0.68518 0.71442 0.0
H2001 H 0.80722 0.67127 0.6053 0.0
H2002 H 0.87928 0.71967 0.65804 0.0
H2003 H 0.82743 0.63663 0.66126 0.0
C2004 C 0.85007 0.63619 0.69159 0.0
C2005 C 0.87034 0.64955 0.7071 0.0
C2006 C 0.86346 0.70903 0.64649 0.0
C2007 C 0.85661 0.67197 0.66965 0.0
C2008 C 0.85665 0.72014 0.62773 0.0
C2009 C 0.83631 0.70683 0.61231 0.0
C2010 C 0.84985 0.68439 0.64995 0.0
C2011 C 0.82318 0.68224 0.61643 0.0
C2012 C 0.84316 0.6473 0.67293 0.0
C2013 C 0.88326 0.67417 0.70322 0.0
N2014 N 0.83016 0.67184 0.63483 0.0
N2015 N 0.87621 0.68456 0.68489 0.0
H2016 H 0.35759 0.2028 0.7283 0.0
H2017 H 0.35484 0.1583 0.58046 0.0
H2018 H 0.40783 0.24559 0.66823 0.0
H2019 H 0.30233 0.11711 0.63928 0.0
H2020 H 0.3751 0.19004 0.61265 0.0
H2021 H 0.33764 0.17092 0.69626 0.0
C2022 C 0.36441 0.20556 0.70837 0.0
C2023 C 0.38444 0.22701 0.70102 0.0
C2024 C 0.35913 0.17407 0.61852 0.0
C2025 C 0.36172 0.19037 0.66417 0.0
C2026 C 0.34761 0.15587 0.60017 0.0
C2027 C 0.32682 0.13495 0.60714 0.0
C2028 C 0.3499 0.17138 0.64413 0.0
C2029 C 0.3181 0.133 0.6329 0.0
C2030 C 0.35304 0.18728 0.69009 0.0
C2031 C 0.39266 0.22932 0.67495 0.0
N2032 N 0.3297 0.15094 0.65046 0.0
N2033 N 0.38125 0.21126 0.65749 0.0
H2034 H 0.90114 0.1656 0.6256 0.0
H2035 H 0.80956 0.19708 0.69307 0.0
H2036 H 0.8976 0.22835 0.60755 0.0
H2037 H 0.81179 0.13348 0.71016 0.0
H2038 H 0.84234 0.20915 0.66232 0.0
H2039 H 0.86925 0.15406 0.65761 0.0
C2040 C 0.8938 0.17706 0.62847 0.0
C2041 C 0.90211 0.198 0.6138 0.0
C2042 C 0.83569 0.19256 0.67281 0.0
C2043 C 0.86536 0.18473 0.65027 0.0
C2044 C 0.81684 0.18557 0.6903 0.0
C2045 C 0.80776 0.16414 0.70419 0.0
C2046 C 0.8456 0.17803 0.66911 0.0
C2047 C 0.81832 0.15023 0.70012 0.0
C2048 C 0.87547 0.17037 0.64666 0.0
C2049 C 0.89159 0.21191 0.61811 0.0
N2050 N 0.83662 0.15739 0.68291 0.0
N2051 N 0.87379 0.20503 0.63593 0.0
H2052 H 0.95381 0.49933 0.45898 0.0
H2053 H 0.07611 0.52583 0.52511 0.0
H2054 H 0.02196 0.55779 0.43651 0.0
H2055 H 1.00789 0.46822 0.54882 0.0
H2056 H 0.0566 0.53761 0.49233 0.0
H2057 H 0.97324 0.48768 0.49201 0.0
C2058 C 0.97283 0.50982 0.46104 0.0
C2059 C 0.98622 0.52963 0.44487 0.0
C2060 C 0.04588 0.5224 0.50471 0.0
C2061 C 1.00867 0.51619 0.48258 0.0
C2062 C 0.05704 0.51556 0.52337 0.0
C2063 C 0.04366 0.49594 0.53978 0.0
C2064 C 0.02112 0.50951 0.50234 0.0
C2065 C 1.01893 0.48361 0.53686 0.0
C2066 C 0.98395 0.50307 0.47985 0.0
C2067 C 1.0109 0.54225 0.44823 0.0
N2068 N 1.00848 0.49057 0.51849 0.0
N2069 N 0.0213 0.53533 0.46669 0.0
H2070 H 0.50721 0.56186 0.51678 0.0
H2071 H 0.53352 0.46593 0.45096 0.0
H2072 H 0.56685 0.55375 0.53757 0.0
H2073 H 0.47603 0.47646 0.42714 0.0
H2074 H 0.54541 0.4974 0.48357 0.0
H2075 H 0.49523 0.53036 0.48421 0.0
C2076 C 0.5179 0.55361 0.51444 0.0
C2077 C 0.53812 0.56057 0.53004 0.0
C2078 C 0.53019 0.49284 0.4712 0.0
C2079 C 0.52427 0.52417 0.49289 0.0
C2080 C 0.52329 0.47474 0.45267 0.0
C2081 C 0.50371 0.46848 0.43622 0.0
C2082 C 0.5174 0.50479 0.47343 0.0
C2083 C 0.49139 0.48085 0.43911 0.0
C2084 C 0.51095 0.53549 0.4959 0.0
C2085 C 0.55098 0.54884 0.52632 0.0
N2086 N 0.49842 0.49836 0.45735 0.0
N2087 N 0.54385 0.53126 0.50816 0.0
H2088 H 0.58815 0.06683 0.47412 0.0
H2089 H 0.4552 0.96286 0.50109 0.0
H2090 H 0.54396 0.01614 0.41519 0.0
H2091 H 0.49907 1.01386 0.55993 0.0
H2092 H 0.48768 0.98188 0.46951 0.0
H2093 H 0.55576 0.04773 0.50583 0.0
C2094 C 0.57162 0.05178 0.46777 0.0
C2095 C 0.56884 0.04313 0.44187 0.0
C2096 C 0.49021 0.98891 0.48934 0.0
C2097 C 0.53168 0.02097 0.47825 0.0
C2098 C 0.47169 0.97795 0.50746 0.0
C2099 C 0.47435 0.98672 0.53328 0.0
C2100 C 0.51163 1.00881 0.49704 0.0
C2101 C 0.49607 1.00663 0.5402 0.0
C2102 C 0.55315 0.04078 0.48596 0.0
C2103 C 0.54708 0.02328 0.43497 0.0
N2104 N 0.51384 0.01697 0.52221 0.0
N2105 N 0.52936 1.01291 0.45302 0.0
H2106 H 0.50732 0.95511 0.01955 0.0
H2107 H 0.53428 0.07708 0.95198 0.0
H2108 H 0.56751 0.02298 0.03934 0.0
H2109 H 0.47346 1.00934 0.93316 0.0
H2110 H 0.54673 0.05761 0.98407 0.0
H2111 H 0.49488 0.9746 -0.01254 0.0
C2112 C 0.51802 0.97408 0.01707 0.0
C2113 C 0.53855 0.98739 0.03221 0.0
C2114 C 0.53065 0.047 0.97292 0.0
C2115 C 0.52422 1.00991 -0.00439 0.0
C2116 C 0.52344 0.05815 0.95466 0.0
C2117 C 0.50273 0.04488 0.93979 0.0
C2118 C 0.51708 0.02237 0.97639 0.0
C2119 C 0.48968 0.02029 0.94388 0.0
C2120 C 0.51082 0.98524 -0.00117 0.0
C2121 C 0.55144 1.01201 0.02839 0.0
N2122 N 0.49705 1.00986 0.96179 0.0
N2123 N 0.54408 0.02246 0.01047 0.0
H2124 H 0.96095 0.46074 0.95377 0.0
H2125 H 0.08155 0.55763 0.02251 0.0
H2126 H 0.02459 0.45623 0.95469 0.0
H2127 H 1.01393 0.5524 0.03611 0.0
H2128 H 0.06239 0.5238 -0.0076 0.0
H2129 H 0.9816 0.49774 0.97863 0.0
C2130 C 0.97935 0.46767 0.95891 0.0
C2131 C 0.99103 0.45529 0.95225 0.0
C2132 C 0.05177 0.53013 0.00191 0.0
C2133 C 1.01473 0.49756 0.98091 0.0
C2134 C 0.06272 0.54952 0.01895 0.0
C2135 C 0.04928 0.55774 0.03196 0.0
C2136 C 0.02723 0.51902 -0.00234 0.0
C2137 C 0.02488 0.5464 0.02681 0.0
C2138 C 0.99108 0.48871 0.97329 0.0
C2139 C 1.01482 0.46501 0.95975 0.0
N2140 N 1.01465 0.52763 0.0101 0.0
N2141 N 0.02588 0.48554 0.9737 0.0
H2142 H 0.47658 0.459 0.0398 0.0
H2143 H 0.56641 0.56419 0.94529 0.0
H2144 H 0.47799 0.52548 0.03141 0.0
H2145 H 0.56876 0.5 0.95721 0.0
H2146 H 0.5339 0.55009 0.9768 0.0
H2147 H 0.51041 0.4736 0.00997 0.0
C2148 C 0.48404 0.47671 0.03187 0.0
C2149 C 0.47427 0.49096 0.03816 0.0
C2150 C 0.54154 0.53908 0.97261 0.0
C2151 C 0.51295 0.50771 0.00368 0.0
C2152 C 0.56004 0.54708 0.95447 0.0
C2153 C 0.5703 0.53323 0.94847 0.0
C2154 C 0.53307 0.51698 0.98484 0.0
C2155 C 0.56157 0.51137 0.96139 0.0
C2156 C 0.50333 0.48499 0.01471 0.0
C2157 C 0.48459 0.51366 0.02689 0.0
N2158 N 0.54339 0.50387 0.97887 0.0
N2159 N 0.5033 0.52129 0.01021 0.0
H2160 H 0.19605 0.05817 0.92518 0.0
H2161 H 0.29147 0.16708 0.00914 0.0
H2162 H 0.25739 0.06088 0.96064 0.0
H2163 H 0.22971 0.16387 0.97469 0.0
H2164 H 0.28406 0.13233 0.98341 0.0
H2165 H 0.21194 0.09979 0.93605 0.0
C2166 C 0.21289 0.06752 0.93529 0.0
C2167 C 0.22516 0.05583 0.94254 0.0
C2168 C 0.2725 0.13959 0.98077 0.0
C2169 C 0.24367 0.10378 0.95481 0.0
C2170 C 0.27696 0.15964 -0.00485 0.0
C2171 C 0.26138 0.16846 -0.0064 0.0
C2172 C 0.25198 0.12801 0.96521 0.0
C2173 C 0.24237 0.15782 0.97596 0.0
C2174 C 0.22207 0.09139 0.94127 0.0
C2175 C 0.24727 0.06912 0.95483 0.0
N2176 N 0.23794 0.13786 0.96276 0.0
N2177 N 0.25566 0.09229 0.9609 0.0
H2178 H 0.86649 0.08072 0.97844 0.0
H2179 H 0.97405 0.21388 0.97108 0.0
H2180 H 0.87377 0.13694 0.02896 0.0
H2181 H 0.97104 0.15525 0.92873 0.0
H2182 H 0.93245 0.18835 0.9839 0.0
H2183 H 0.89913 0.11007 0.9511 0.0
C2184 C 0.87425 0.09936 0.98301 0.0
C2185 C 0.86741 0.10654 0.00575 0.0
C2186 C 0.94081 0.18118 0.97147 0.0
C2187 C 0.90525 0.14005 0.97544 0.0
C2188 C 0.96451 0.19579 0.9641 0.0
C2189 C 0.97614 0.18652 0.94934 0.0
C2190 C 0.92868 0.15719 0.96388 0.0
C2191 C 0.96293 0.16293 0.94075 0.0
C2192 C 0.89312 0.1161 0.9677 0.0
C2193 C 0.87849 0.13081 0.01139 0.0
N2194 N 0.94005 0.14904 0.94837 0.0
N2195 N 0.89709 0.14667 -0.0034 0.0
H2196 H 0.90303 0.74684 0.01895 0.0
H2197 H 0.88548 0.83438 0.92569 0.0
H2198 H 0.95955 0.8037 0.97542 0.0
H2199 H 0.82831 0.77629 0.96738 0.0
H2200 H 0.9114 0.81889 0.93711 0.0
H2201 H 0.87422 0.75192 -0.00686 0.0
C2202 C 0.90927 0.75973 0.00309 0.0
C2203 C 0.93359 0.77467 -0.00104 0.0
C2204 C 0.89314 0.80932 0.94356 0.0
C2205 C 0.9009 0.78146 0.97026 0.0
C2206 C 0.87835 0.81827 0.9372 0.0
C2207 C 0.85482 0.80688 0.94611 0.0
C2208 C 0.88449 0.7889 0.95923 0.0
C2209 C 0.84636 0.78569 0.96028 0.0
C2210 C 0.89285 0.76285 -0.0114 0.0
C2211 C 0.9409 0.79156 0.9788 0.0
N2212 N 0.86129 0.77758 0.96678 0.0
N2213 N 0.92462 0.7948 0.96549 0.0
H2214 H 0.17217 0.22094 0.49692 0.0
H2215 H 0.06682 0.24886 0.51136 0.0
H2216 H 0.16773 0.27513 0.45321 0.0
H2217 H 0.06754 0.1897 0.54827 0.0
H2218 H 0.108 0.26434 0.4978 0.0
H2219 H 0.13879 0.21546 0.52436 0.0
C2220 C 0.16481 0.23238 0.49392 0.0
C2221 C 0.17272 0.24865 0.47308 0.0
C2222 C 0.09921 0.24808 0.5091 0.0
C2223 C 0.1341 0.24192 0.50342 0.0
C2224 C 0.07571 0.23928 0.51689 0.0
C2225 C 0.06352 0.21769 0.53049 0.0
C2226 C 0.11065 0.23524 0.51502 0.0
C2227 C 0.07598 0.20604 0.53716 0.0
C2228 C 0.14554 0.22904 0.50927 0.0
C2229 C 0.16217 0.26256 0.46935 0.0
N2230 N 0.09874 0.21483 0.52916 0.0
N2231 N 0.1432 0.25868 0.48411 0.0
H2232 H 0.75002 0.89372 0.46129 0.0
H2233 H 0.84073 0.87775 0.55079 0.0
H2234 H 0.80885 0.9511 0.5015 0.0
H2235 H 0.78128 0.81991 0.5116 0.0
H2236 H 0.82504 0.90358 0.53973 0.0
H2237 H 0.75597 0.86541 0.48703 0.0
C2238 C 0.76353 0.90028 0.47647 0.0
C2239 C 0.77875 0.92469 0.47966 0.0
C2240 C 0.81523 0.88519 0.53374 0.0
C2241 C 0.78653 0.89253 0.50819 0.0
C2242 C 0.8243 0.87046 0.53988 0.0
C2243 C 0.81256 0.84674 0.53158 0.0
C2244 C 0.79432 0.8763 0.51893 0.0
C2245 C 0.79097 0.8381 0.51821 0.0
C2246 C 0.76716 0.88414 0.49089 0.0
C2247 C 0.79647 0.93239 0.4989 0.0
N2248 N 0.78272 0.85296 0.51194 0.0
N2249 N 0.80016 0.91636 0.51213 0.0
H2250 H 0.13671 0.86055 0.46175 0.0
H2251 H 0.15179 0.96963 0.54594 0.0
H2252 H 0.07867 0.86425 0.49675 0.0
H2253 H 0.2104 0.96583 0.51238 0.0
H2254 H 0.1256 0.92802 0.53518 0.0
H2255 H 0.16448 0.89479 0.48801 0.0
C2256 C 0.12981 0.86792 0.476 0.0
C2257 C 0.10541 0.85938 0.47752 0.0
C2258 C 0.14422 0.93613 0.53038 0.0
C2259 C 0.13703 0.89935 0.50653 0.0
C2260 C 0.15917 0.95999 0.53634 0.0
C2261 C 0.18326 0.97139 0.52954 0.0
C2262 C 0.15326 0.92346 0.51721 0.0
C2263 C 0.19194 0.95779 0.51783 0.0
C2264 C 0.14567 0.88771 0.49067 0.0
C2265 C 0.09734 0.87003 0.49548 0.0
N2266 N 0.17689 0.93465 0.51167 0.0
N2267 N 0.11313 0.88973 0.50895 0.0
H2268 H 0.78022 0.96915 0.013 0.0
H2269 H 0.80551 0.86187 0.00064 0.0
H2270 H 0.83995 0.96826 0.04795 0.0
H2271 H 0.75112 0.86629 0.95743 0.0
H2272 H 0.81179 0.89585 0.02742 0.0
H2273 H 0.7635 0.92735 0.00103 0.0
C2274 C 0.78966 0.96009 0.01845 0.0
C2275 C 0.81176 0.97237 0.03097 0.0
C2276 C 0.79795 0.88894 0.01264 0.0
C2277 C 0.79278 0.92457 0.01742 0.0
C2278 C 0.79411 0.86928 -0.00229 0.0
C2279 C 0.7776 0.86119 0.97711 0.0
C2280 C 0.78534 0.90063 0.00663 0.0
C2281 C 0.76383 0.87192 0.97341 0.0
C2282 C 0.78015 0.93625 0.01158 0.0
C2283 C 0.8232 0.95971 0.03763 0.0
N2284 N 0.76823 0.8913 -0.01228 0.0
N2285 N 0.81371 0.93663 0.03058 0.0
H2286 H 0.07197 0.8793 0.0494 0.0
H2287 H 0.17233 0.89356 0.95078 0.0
H2288 H 0.06971 0.82121 0.0066 0.0
H2289 H 0.17517 0.95134 -0.00543 0.0
H2290 H 0.13956 0.86555 0.97855 0.0
H2291 H 0.11326 0.90439 0.03649 0.0
C2292 C 0.08023 0.87178 0.03736 0.0
C2293 C 0.0672 0.84825 0.02854 0.0
C2294 C 0.14775 0.88429 0.98272 0.0
C2295 C 0.11469 0.87695 0.01373 0.0
C2296 C 0.16668 0.90026 0.9671 0.0
C2297 C 0.17657 0.92471 0.97069 0.0
C2298 C 0.13826 0.8929 0.00165 0.0
C2299 C 0.16825 0.93259 -0.00846 0.0
C2300 C 0.10389 0.88609 0.03014 0.0
C2301 C 0.07903 0.83927 0.01366 0.0
N2302 N 0.14923 0.91673 0.00593 0.0
N2303 N 0.10199 0.85374 0.00635 0.0
H2304 H 0.21784 0.25981 0.01005 0.0
H2305 H 0.084 0.23122 0.0056 0.0
H2306 H 0.15993 0.20157 0.05075 0.0
H2307 H 0.14027 0.28585 0.95951 0.0
H2308 H 0.11346 0.22691 0.03131 0.0
H2309 H 0.19179 0.27575 -0.00025 0.0
C2310 C 0.19978 0.2506 0.01717 0.0
C2311 C 0.19089 0.22906 0.03073 0.0
C2312 C 0.11947 0.24038 0.01613 0.0
C2313 C 0.16096 0.24707 0.01904 0.0
C2314 C 0.10264 0.24308 0.00178 0.0
C2315 C 0.10983 0.2591 0.98073 0.0
C2316 C 0.14354 0.25357 0.00899 0.0
C2317 C 0.13414 0.2735 0.97589 0.0
C2318 C 0.18487 0.25964 0.01125 0.0
C2319 C 0.16733 0.21787 0.03957 0.0
N2320 N 0.15011 0.27015 -0.01041 0.0
N2321 N 0.15315 0.22684 0.03334 0.0
H2322 H 0.8703 0.74135 0.52145 0.0
H2323 H 0.97027 0.82849 0.42242 0.0
H2324 H 0.86702 0.79622 0.47787 0.0
H2325 H 0.97335 0.77329 0.46581 0.0
H2326 H 0.92907 0.81197 0.43573 0.0
H2327 H 0.90339 0.74684 0.49388 0.0
C2328 C 0.87594 0.75384 0.50522 0.0
C2329 C 0.8658 0.76814 0.5016 0.0
C2330 C 0.9386 0.80326 0.44213 0.0
C2331 C 0.90445 0.77546 0.47087 0.0
C2332 C 0.96223 0.8128 0.43469 0.0
C2333 C 0.97546 0.80256 0.44351 0.0
C2334 C 0.92805 0.78338 0.45875 0.0
C2335 C 0.96387 0.78183 0.4587 0.0
C2336 C 0.89505 0.75722 0.48972 0.0
C2337 C 0.87412 0.78456 0.48089 0.0
N2338 N 0.94094 0.77314 0.46619 0.0
N2339 N 0.89329 0.7881 0.4666 0.0
H2340 H 0.29489 0.13236 0.51434 0.0
H2341 H 0.20908 0.14786 0.416 0.0
H2342 H 0.23751 0.07483 0.4726 0.0
H2343 H 0.26367 0.20489 0.46147 0.0
H2344 H 0.22527 0.12273 0.42839 0.0
H2345 H 0.29062 0.16056 0.4864 0.0
C2346 C 0.28215 0.1257 0.49834 0.0
C2347 C 0.26674 0.10129 0.49546 0.0
C2348 C 0.23394 0.14081 0.43544 0.0
C2349 C 0.26084 0.13338 0.46434 0.0
C2350 C 0.2246 0.15515 0.4285 0.0
C2351 C 0.23471 0.17836 0.43824 0.0
C2352 C 0.25349 0.14959 0.45247 0.0
C2353 C 0.25523 0.18707 0.45369 0.0
C2354 C 0.27945 0.1418 0.48268 0.0
C2355 C 0.25003 0.09352 0.47507 0.0
N2356 N 0.26372 0.17256 0.4607 0.0
N2357 N 0.2472 0.10952 0.46061 0.0
H2358 H 0.90073 0.16168 0.52643 0.0
H2359 H 0.88337 0.06135 0.42609 0.0
H2360 H 0.95728 0.16424 0.48035 0.0
H2361 H 0.82634 0.05987 0.47039 0.0
H2362 H 0.90912 0.10251 0.43905 0.0
H2363 H 0.87195 0.12912 0.499 0.0
C2364 C 0.90698 0.15597 0.50974 0.0
C2365 C 0.93131 0.16572 0.50537 0.0
C2366 C 0.89091 0.09336 0.44571 0.0
C2367 C 0.89864 0.12771 0.47473 0.0
C2368 C 0.87622 0.06977 0.43845 0.0
C2369 C 0.85281 0.05699 0.44768 0.0
C2370 C 0.88226 0.1043 0.46259 0.0
C2371 C 0.84431 0.06901 0.463 0.0
C2372 C 0.89059 0.13719 0.49429 0.0
C2373 C 0.93863 0.1574 0.48402 0.0
N2374 N 0.85914 0.09187 0.47035 0.0
N2375 N 0.92236 0.13852 0.46977 0.0
H2376 H 0.95119 0.50049 0.35166 0.0
H2377 H 0.86099 0.39383 0.2602 0.0
H2378 H 0.88986 0.49686 0.31547 0.0
H2379 H 0.91927 0.39508 0.30182 0.0
H2380 H 0.87526 0.43458 0.27375 0.0
H2381 H 0.94479 0.46618 0.32569 0.0
C2382 C 0.93703 0.49311 0.33723 0.0
C2383 C 0.9213 0.50172 0.33522 0.0
C2384 C 0.88503 0.42601 0.27979 0.0
C2385 C 0.91301 0.4617 0.30654 0.0
C2386 C 0.87674 0.40258 0.27228 0.0
C2387 C 0.88865 0.39068 0.28024 0.0
C2388 C 0.90542 0.43781 0.29548 0.0
C2389 C 0.90942 0.40337 0.29521 0.0
C2390 C 0.93311 0.47327 0.32276 0.0
C2391 C 0.90268 0.49104 0.31706 0.0
N2392 N 0.917 0.42613 0.30253 0.0
N2393 N 0.89881 0.47133 0.30371 0.0
H2394 H 0.64363 0.48533 0.25982 0.0
H2395 H 0.53387 0.4644 0.34658 0.0
H2396 H 0.63887 0.54159 0.29833 0.0
H2397 H 0.53871 0.40875 0.30693 0.0
H2398 H 0.56782 0.49379 0.32114 0.0
H2399 H 0.60198 0.45826 0.26958 0.0
C2400 C 0.63375 0.492 0.27028 0.0
C2401 C 0.64487 0.51563 0.27882 0.0
C2402 C 0.56106 0.47518 0.3173 0.0
C2403 C 0.59696 0.48465 0.29004 0.0
C2404 C 0.54146 0.45841 0.33154 0.0
C2405 C 0.53335 0.4342 0.32845 0.0
C2406 C 0.57293 0.46762 0.30031 0.0
C2407 C 0.5442 0.42727 0.30945 0.0
C2408 C 0.60988 0.47656 0.27569 0.0
C2409 C 0.63101 0.52348 0.29159 0.0
N2410 N 0.56372 0.44392 0.29641 0.0
N2411 N 0.60787 0.50793 0.2972 0.0
H2412 H 0.49246 0.10364 0.29892 0.0
H2413 H 0.62548 0.12959 0.30761 0.0
H2414 H 0.55196 0.16153 0.25977 0.0
H2415 H 0.56816 0.07798 0.35524 0.0
H2416 H 0.59674 0.13406 0.28056 0.0
H2417 H 0.5178 0.08725 0.3109 0.0
C2418 C 0.51073 0.11268 0.2925 0.0
C2419 C 0.52025 0.13424 0.27888 0.0
C2420 C 0.59035 0.1212 0.29642 0.0
C2421 C 0.54936 0.1157 0.29244 0.0
C2422 C 0.60674 0.1184 0.31155 0.0
C2423 C 0.59906 0.10329 0.33345 0.0
C2424 C 0.56624 0.10893 0.30352 0.0
C2425 C 0.57467 0.0897 0.33832 0.0
C2426 C 0.52523 0.10338 0.29938 0.0
C2427 C 0.54406 0.14521 0.27096 0.0
N2428 N 0.55915 0.09309 0.32376 0.0
N2429 N 0.55783 0.13598 0.27808 0.0
H2430 H 0.84419 0.61577 0.79888 0.0
H2431 H 0.73273 0.52578 0.88347 0.0
H2432 H 0.8378 0.55424 0.83778 0.0
H2433 H 0.73805 0.58713 0.84496 0.0
H2434 H 0.77441 0.54043 0.87418 0.0
H2435 H 0.80979 0.61095 0.82357 0.0
C2436 C 0.83622 0.60196 0.81368 0.0
C2437 C 0.84401 0.58562 0.81675 0.0
C2438 C 0.76662 0.55088 0.86793 0.0
C2439 C 0.80395 0.57917 0.84398 0.0
C2440 C 0.74273 0.5424 0.87306 0.0
C2441 C 0.73177 0.55499 0.86443 0.0
C2442 C 0.77977 0.57204 0.85375 0.0
C2443 C 0.74579 0.5768 0.85176 0.0
C2444 C 0.81635 0.59895 0.82744 0.0
C2445 C 0.8326 0.56748 0.83533 0.0
N2446 N 0.76899 0.58446 0.84641 0.0
N2447 N 0.81289 0.56449 0.84792 0.0
H2448 H 0.50589 0.21579 0.88283 0.0
H2449 H 0.41861 0.23467 0.79055 0.0
H2450 H 0.44731 0.15913 0.84124 0.0
H2451 H 0.47812 0.291 0.83107 0.0
H2452 H 0.42287 0.2057 0.81713 0.0
H2453 H 0.49085 0.24214 0.87167 0.0
C2454 C 0.48977 0.20887 0.8714 0.0
C2455 C 0.47813 0.18536 0.86241 0.0
C2456 C 0.43454 0.22438 0.8209 0.0
C2457 C 0.46066 0.21552 0.84957 0.0
C2458 C 0.43186 0.2409 0.80602 0.0
C2459 C 0.44781 0.26518 0.80902 0.0
C2460 C 0.45365 0.23225 0.8385 0.0
C2461 C 0.46519 0.27242 0.82859 0.0
C2462 C 0.48108 0.2239 0.86518 0.0
C2463 C 0.45691 0.17716 0.84837 0.0
N2464 N 0.46793 0.25601 0.84228 0.0
N2465 N 0.44906 0.19233 0.84199 0.0
H2466 H 0.87627 0.29298 0.84705 0.0
H2467 H 0.73997 0.19589 0.82901 0.0
H2468 H 0.81788 0.30224 0.87001 0.0
H2469 H 0.79712 0.18884 0.79705 0.0
H2470 H 0.76861 0.23008 0.85473 0.0
H2471 H 0.84814 0.25114 0.8378 0.0
C2472 C 0.85759 0.28618 0.85038 0.0
C2473 C 0.84941 0.30128 0.85879 0.0
C2474 C 0.7749 0.22061 0.8428 0.0
C2475 C 0.81712 0.25342 0.84845 0.0
C2476 C 0.75846 0.20078 0.82856 0.0
C2477 C 0.76622 0.18938 0.81129 0.0
C2478 C 0.79926 0.22927 0.83932 0.0
C2479 C 0.79047 0.19698 0.81057 0.0
C2480 C 0.84153 0.2623 0.84512 0.0
C2481 C 0.82497 0.29147 0.86285 0.0
N2482 N 0.8062 0.21673 0.82396 0.0
N2483 N 0.80974 0.26828 0.85748 0.0
H2484 H 0.41618 0.19282 0.28982 0.0
H2485 H 0.50258 0.2982 0.38356 0.0
H2486 H 0.47394 0.19467 0.3327 0.0
H2487 H 0.44544 0.29732 0.34007 0.0
H2488 H 0.48697 0.2566 0.37272 0.0
H2489 H 0.42037 0.22612 0.31613 0.0
C2490 C 0.429 0.19956 0.30573 0.0
C2491 C 0.44451 0.19083 0.30947 0.0
C2492 C 0.47761 0.26534 0.36576 0.0
C2493 C 0.45031 0.22971 0.33869 0.0
C2494 C 0.48662 0.28917 0.37181 0.0
C2495 C 0.47558 0.30139 0.36218 0.0
C2496 C 0.45749 0.25354 0.34966 0.0
C2497 C 0.45458 0.28861 0.34771 0.0
C2498 C 0.43165 0.21881 0.32047 0.0
C2499 C 0.46136 0.20063 0.32963 0.0
N2500 N 0.44643 0.26547 0.3415 0.0
N2501 N 0.46411 0.21984 0.34318 0.0
H2502 H 0.8452 0.23562 0.29873 0.0
H2503 H 0.73263 0.21684 0.3792 0.0
H2504 H 0.8373 0.29256 0.32972 0.0
H2505 H 0.73882 0.15972 0.34518 0.0
H2506 H 0.77413 0.24409 0.36903 0.0
H2507 H 0.81074 0.20733 0.32434 0.0
C2508 C 0.83685 0.24223 0.31202 0.0
C2509 C 0.8443 0.26645 0.31256 0.0
C2510 C 0.76655 0.22558 0.36397 0.0
C2511 C 0.80407 0.23414 0.3408 0.0
C2512 C 0.74274 0.21 0.36959 0.0
C2513 C 0.73203 0.186 0.36248 0.0
C2514 C 0.7799 0.21727 0.35094 0.0
C2515 C 0.74629 0.17807 0.35084 0.0
C2516 C 0.81693 0.22605 0.32629 0.0
C2517 C 0.8324 0.27408 0.32926 0.0
N2518 N 0.7694 0.19372 0.34509 0.0
N2519 N 0.81261 0.25794 0.34237 0.0
H2520 H 0.81814 0.53419 0.38928 0.0
H2521 H 0.80719 0.62462 0.29437 0.0
H2522 H 0.87714 0.5906 0.34784 0.0
H2523 H 0.74821 0.56789 0.33519 0.0
H2524 H 0.83438 0.61871 0.32221 0.0
H2525 H 0.79391 0.55153 0.37741 0.0
C2526 C 0.82604 0.55033 0.37775 0.0
C2527 C 0.84956 0.56067 0.36899 0.0
C2528 C 0.81554 0.60802 0.32575 0.0
C2529 C 0.82186 0.58077 0.3554 0.0
C2530 C 0.80003 0.61165 0.31013 0.0
C2531 C 0.77551 0.59689 0.3128 0.0
C2532 C 0.80638 0.5891 0.34375 0.0
C2533 C 0.76703 0.57988 0.33289 0.0
C2534 C 0.81222 0.56033 0.37114 0.0
C2535 C 0.85906 0.58196 0.35482 0.0
N2536 N 0.78245 0.5761 0.34727 0.0
N2537 N 0.84506 0.5911 0.34808 0.0
H2538 H 0.63644 0.10692 0.79283 0.0
H2539 H 0.53012 0.13314 0.80559 0.0
H2540 H 0.63424 0.16452 0.75388 0.0
H2541 H 0.53544 0.07996 0.85034 0.0
H2542 H 0.56284 0.13791 0.77749 0.0
H2543 H 0.59493 0.09053 0.80559 0.0
C2544 C 0.62714 0.11593 0.78662 0.0
C2545 C 0.63901 0.13741 0.77278 0.0
C2546 C 0.55638 0.12465 0.79292 0.0
C2547 C 0.59153 0.11884 0.78737 0.0
C2548 C 0.53745 0.12168 0.80864 0.0
C2549 C 0.53006 0.106 0.83004 0.0
C2550 C 0.56803 0.112 0.79897 0.0
C2551 C 0.5406 0.09208 0.8338 0.0
C2552 C 0.60345 0.10661 0.79395 0.0
C2553 C 0.62603 0.1483 0.76522 0.0
N2554 N 0.55929 0.09566 0.81872 0.0
N2555 N 0.60312 0.13906 0.77285 0.0
H2556 H 0.92696 0.54224 0.81851 0.0
H2557 H 0.92025 0.41619 0.81727 0.0
H2558 H 0.88481 0.48617 0.76382 0.0
H2559 H 0.94409 0.46393 0.88352 0.0
H2560 H 0.91753 0.44644 0.7909 0.0
H2561 H 0.94337 0.51835 0.83596 0.0
C2562 C 0.92151 0.5251 0.80988 0.0
C2563 C 0.9042 0.51596 0.79008 0.0
C2564 C 0.92393 0.45049 0.81102 0.0
C2565 C 0.92282 0.48859 0.80977 0.0
C2566 C 0.92572 0.43335 0.82591 0.0
C2567 C 0.93236 0.43768 0.85251 0.0
C2568 C 0.92899 0.47203 0.82288 0.0
C2569 C 0.93883 0.45997 0.86303 0.0
C2570 C 0.93077 0.51143 0.81988 0.0
C2571 C 0.89772 0.49362 0.77954 0.0
N2572 N 0.93679 0.47624 0.8483 0.0
N2573 N 0.90686 0.48062 0.78964 0.0
H2574 H 0.49375 0.39658 0.79997 0.0
H2575 H 0.62532 0.50673 0.81019 0.0
H2576 H 0.55341 0.40263 0.75685 0.0
H2577 H 0.56761 0.49687 0.85983 0.0
H2578 H 0.59707 0.47393 0.78223 0.0
H2579 H 0.5183 0.43781 0.81431 0.0
C2580 C 0.51188 0.40668 0.79321 0.0
C2581 C 0.52167 0.39597 0.77768 0.0
C2582 C 0.59047 0.4794 0.79877 0.0
C2583 C 0.54993 0.44312 0.79401 0.0
C2584 C 0.60657 0.49837 0.81444 0.0
C2585 C 0.59867 0.50453 0.83712 0.0
C2586 C 0.56642 0.46651 0.80609 0.0
C2587 C 0.57429 0.49268 0.84232 0.0
C2588 C 0.52593 0.43019 0.80144 0.0
C2589 C 0.54531 0.40994 0.76944 0.0
N2590 N 0.55907 0.47403 0.8272 0.0
N2591 N 0.55866 0.43265 0.77791 0.0
H2592 H 0.624 0.8338 0.68228 0.0
H2593 H 0.5351 0.72774 0.59077 0.0
H2594 H 0.56617 0.83265 0.64027 0.0
H2595 H 0.59381 0.72915 0.63128 0.0
H2596 H 0.55072 0.76927 0.60193 0.0
H2597 H 0.6187 0.79988 0.65638 0.0
C2598 C 0.61089 0.82704 0.66666 0.0
C2599 C 0.59574 0.83619 0.66303 0.0
C2600 C 0.56039 0.76066 0.60819 0.0
C2601 C 0.58866 0.79659 0.6343 0.0
C2602 C 0.55136 0.73685 0.60198 0.0
C2603 C 0.5629 0.7248 0.61063 0.0
C2604 C 0.58105 0.77262 0.62344 0.0
C2605 C 0.58429 0.73771 0.6244 0.0
C2606 C 0.60762 0.80744 0.65215 0.0
C2607 C 0.57851 0.82637 0.64323 0.0
N2608 N 0.59248 0.76082 0.63075 0.0
N2609 N 0.57514 0.80681 0.62993 0.0
H2610 H 0.30802 0.81477 0.59089 0.0
H2611 H 0.19843 0.79473 0.67767 0.0
H2612 H 0.30359 0.87127 0.62924 0.0
H2613 H 0.20418 0.7386 0.64058 0.0
H2614 H 0.23208 0.82374 0.65153 0.0
H2615 H 0.26645 0.78778 0.60104 0.0
C2616 C 0.29824 0.82152 0.6014 0.0
C2617 C 0.30944 0.84519 0.60978 0.0
C2618 C 0.22555 0.80507 0.64838 0.0
C2619 C 0.26159 0.8143 0.62144 0.0
C2620 C 0.20609 0.7885 0.66298 0.0
C2621 C 0.19836 0.76429 0.66087 0.0
C2622 C 0.23763 0.79733 0.63195 0.0
C2623 C 0.20935 0.75711 0.64234 0.0
C2624 C 0.27441 0.80612 0.60703 0.0
C2625 C 0.29568 0.85313 0.62261 0.0
N2626 N 0.22871 0.77358 0.62892 0.0
N2627 N 0.27256 0.83762 0.62844 0.0
H2628 H 0.21144 0.49034 0.58656 0.0
H2629 H 0.2329 0.408 0.68419 0.0
H2630 H 0.1565 0.43569 0.63413 0.0
H2631 H 0.28766 0.46326 0.63723 0.0
H2632 H 0.20304 0.4114 0.65845 0.0
H2633 H 0.23757 0.475 0.59767 0.0
C2634 C 0.20482 0.47496 0.59924 0.0
C2635 C 0.18193 0.46458 0.60993 0.0
C2636 C 0.2215 0.4223 0.65315 0.0
C2637 C 0.21184 0.44683 0.6228 0.0
C2638 C 0.23852 0.42012 0.6676 0.0
C2639 C 0.26268 0.43515 0.6625 0.0
C2640 C 0.22877 0.44005 0.63383 0.0
C2641 C 0.26917 0.45106 0.6414 0.0
C2642 C 0.21972 0.46611 0.60547 0.0
C2643 C 0.17406 0.4443 0.62564 0.0
N2644 N 0.25232 0.4534 0.62812 0.0
N2645 N 0.18914 0.43632 0.63198 0.0
H2646 H 0.50706 0.95223 0.12278 0.0
H2647 H 0.4012 0.86041 0.21282 0.0
H2648 H 0.50622 0.89336 0.16201 0.0
H2649 H 0.40216 0.91981 0.17439 0.0
H2650 H 0.44269 0.87645 0.20119 0.0
H2651 H 0.47297 0.94587 0.14911 0.0
C2652 C 0.50032 0.93865 0.1379 0.0
C2653 C 0.50961 0.92353 0.14062 0.0
C2654 C 0.43397 0.88615 0.19549 0.0
C2655 C 0.46983 0.91525 0.16979 0.0
C2656 C 0.41017 0.87689 0.20194 0.0
C2657 C 0.398 0.88852 0.19405 0.0
C2658 C 0.44581 0.90717 0.18079 0.0
C2659 C 0.41079 0.91019 0.18071 0.0
C2660 C 0.48063 0.93477 0.15264 0.0
C2661 C 0.49982 0.90568 0.15978 0.0
N2662 N 0.43389 0.91863 0.17415 0.0
N2663 N 0.48017 0.90175 0.17331 0.0
H2664 H 0.13249 0.6157 0.16765 0.0
H2665 H 0.11143 0.48433 0.17471 0.0
H2666 H 0.08752 0.55951 0.11451 0.0
H2667 H 0.16115 0.54196 0.2236 0.0
H2668 H 0.09554 0.50918 0.15938 0.0
H2669 H 0.13581 0.58666 0.19554 0.0
C2670 C 0.12253 0.5971 0.16251 0.0
C2671 C 0.10964 0.58985 0.13894 0.0
C2672 C 0.10976 0.51631 0.17371 0.0
C2673 C 0.11394 0.55677 0.16996 0.0
C2674 C 0.11876 0.50206 0.18252 0.0
C2675 C 0.13801 0.51123 0.19999 0.0
C2676 C 0.12006 0.53989 0.18246 0.0
C2677 C 0.14678 0.53438 0.20951 0.0
C2678 C 0.12467 0.58057 0.17817 0.0
C2679 C 0.09756 0.56568 0.13267 0.0
N2680 N 0.13795 0.54797 0.20041 0.0
N2681 N 0.10025 0.55006 0.14786 0.0
H2682 H 0.41277 0.52619 0.16227 0.0
H2683 H 0.5457 0.6328 0.17682 0.0
H2684 H 0.47262 0.52913 0.12307 0.0
H2685 H 0.48477 0.63295 0.2093 0.0
H2686 H 0.52047 0.59086 0.16568 0.0
H2687 H 0.44001 0.56052 0.18905 0.0
C2688 C 0.43167 0.53338 0.16025 0.0
C2689 C 0.44057 0.52481 0.14072 0.0
C2690 C 0.51267 0.60002 0.17551 0.0
C2691 C 0.47175 0.56454 0.17024 0.0
C2692 C 0.5271 0.62396 0.18191 0.0
C2693 C 0.51726 0.63657 0.19347 0.0
C2694 C 0.48823 0.58858 0.18078 0.0
C2695 C 0.49301 0.62415 0.19968 0.0
C2696 C 0.44723 0.55322 0.17518 0.0
C2697 C 0.46517 0.53519 0.13817 0.0
N2698 N 0.47932 0.60097 0.19304 0.0
N2699 N 0.47991 0.55472 0.15243 0.0
H2700 H 0.1704 0.63034 0.71993 0.0
H2701 H 0.07957 0.5241 0.62973 0.0
H2702 H 0.11298 0.6301 0.67768 0.0
H2703 H 0.1393 0.52632 0.66842 0.0
H2704 H 0.08535 0.55796 0.65612 0.0
H2705 H 0.15392 0.58854 0.70951 0.0
C2706 C 0.15423 0.62144 0.70851 0.0
C2707 C 0.14335 0.63389 0.6991 0.0
C2708 C 0.09676 0.55062 0.65953 0.0
C2709 C 0.12422 0.5858 0.68721 0.0
C2710 C 0.09322 0.53107 0.64477 0.0
C2711 C 0.10879 0.5223 0.64728 0.0
C2712 C 0.11634 0.56175 0.67652 0.0
C2713 C 0.12667 0.53235 0.66633 0.0
C2714 C 0.14473 0.59749 0.70274 0.0
C2715 C 0.12203 0.62123 0.68514 0.0
N2716 N 0.13025 0.55184 0.67991 0.0
N2717 N 0.11336 0.59797 0.67924 0.0
H2718 H 0.40002 0.54444 0.71165 0.0
H2719 H 0.50615 0.5617 0.62047 0.0
H2720 H 0.4005 0.48745 0.66938 0.0
H2721 H 0.50539 0.61828 0.66302 0.0
H2722 H 0.47193 0.53291 0.646 0.0
H2723 H 0.44175 0.57011 0.70109 0.0
C2724 C 0.40895 0.5373 0.70016 0.0
C2725 C 0.39659 0.5139 0.69084 0.0
C2726 C 0.47964 0.55156 0.65044 0.0
C2727 C 0.44465 0.54328 0.67877 0.0
C2728 C 0.49941 0.56797 0.63615 0.0
C2729 C 0.50874 0.59231 0.64 0.0
C2730 C 0.46881 0.55963 0.66829 0.0
C2731 C 0.49896 0.59963 0.65988 0.0
C2732 C 0.43288 0.55194 0.69431 0.0
C2733 C 0.4093 0.50541 0.67676 0.0
N2734 N 0.47923 0.58337 0.67295 0.0
N2735 N 0.43254 0.5202 0.67079 0.0
H2736 H 0.41408 0.89695 0.66549 0.0
H2737 H 0.54722 0.92388 0.67529 0.0
H2738 H 0.47245 0.95275 0.62289 0.0
H2739 H 0.48728 0.86375 0.71102 0.0
H2740 H 0.52183 0.94048 0.66471 0.0
H2741 H 0.44225 0.89109 0.69188 0.0
C2742 C 0.43289 0.90875 0.66265 0.0
C2743 C 0.44106 0.92551 0.64229 0.0
C2744 C 0.5143 0.92377 0.67515 0.0
C2745 C 0.47329 0.91825 0.67132 0.0
C2746 C 0.52882 0.91433 0.68122 0.0
C2747 C 0.51926 0.89214 0.69351 0.0
C2748 C 0.49006 0.91097 0.68152 0.0
C2749 C 0.49526 0.88056 0.70082 0.0
C2750 C 0.44898 0.90516 0.67736 0.0
C2751 C 0.46556 0.93982 0.63869 0.0
N2752 N 0.48148 0.88997 0.69449 0.0
N2753 N 0.48081 0.93562 0.65272 0.0
H2754 H 0.20546 0.47622 0.14863 0.0
H2755 H 0.3115 0.44931 0.1364 0.0
H2756 H 0.20611 0.41739 0.1861 0.0
H2757 H 0.31124 0.50815 0.0978 0.0
H2758 H 0.27058 0.43435 0.14972 0.0
H2759 H 0.24104 0.48448 0.12368 0.0
C2760 C 0.21251 0.46442 0.15064 0.0
C2761 C 0.20276 0.44588 0.16899 0.0
C2762 C 0.27943 0.45048 0.1382 0.0
C2763 C 0.24391 0.45578 0.14173 0.0
C2764 C 0.30289 0.45906 0.13054 0.0
C2765 C 0.31511 0.48024 0.11614 0.0
C2766 C 0.26799 0.46313 0.13152 0.0
C2767 C 0.30284 0.49208 0.10938 0.0
C2768 C 0.23303 0.46934 0.13679 0.0
C2769 C 0.213 0.43161 0.17175 0.0
N2770 N 0.28006 0.48345 0.11725 0.0
N2771 N 0.23318 0.43702 0.15855 0.0
H2772 H 0.62355 0.7996 0.18397 0.0
H2773 H 0.53819 0.81722 0.08737 0.0
H2774 H 0.56703 0.74305 0.14019 0.0
H2775 H 0.59488 0.87414 0.13083 0.0
H2776 H 0.55371 0.79142 0.09933 0.0
H2777 H 0.61948 0.82843 0.15696 0.0
C2778 C 0.61102 0.79333 0.16776 0.0
C2779 C 0.59582 0.76901 0.16396 0.0
C2780 C 0.56298 0.80961 0.10604 0.0
C2781 C 0.59014 0.80175 0.13392 0.0
C2782 C 0.55401 0.82432 0.09937 0.0
C2783 C 0.56496 0.84773 0.10864 0.0
C2784 C 0.58296 0.81821 0.12239 0.0
C2785 C 0.58581 0.85618 0.12344 0.0
C2786 C 0.60845 0.80977 0.15261 0.0
C2787 C 0.57937 0.76169 0.14335 0.0
N2788 N 0.59392 0.84131 0.13024 0.0
N2789 N 0.57664 0.778 0.1294 0.0
H2790 H 0.29157 0.83466 0.1408 0.0
H2791 H 0.15832 0.72731 0.13191 0.0
H2792 H 0.23423 0.82918 0.18793 0.0
H2793 H 0.21769 0.72898 0.0927 0.0
H2794 H 0.18389 0.76898 0.14424 0.0
H2795 H 0.26285 0.80112 0.11406 0.0
C2796 C 0.27283 0.82709 0.14468 0.0
C2797 C 0.26514 0.83474 0.16633 0.0
C2798 C 0.19124 0.76029 0.13266 0.0
C2799 C 0.23232 0.79586 0.13677 0.0
C2800 C 0.17662 0.73653 0.12558 0.0
C2801 C 0.186 0.72449 0.11178 0.0
C2802 C 0.21538 0.77213 0.12575 0.0
C2803 C 0.20986 0.73735 0.10401 0.0
C2804 C 0.25645 0.8077 0.12974 0.0
C2805 C 0.24075 0.82386 0.17117 0.0
N2806 N 0.22375 0.76033 0.11131 0.0
N2807 N 0.22523 0.80476 0.15679 0.0
loop_
_geom_bond_atom_site_label_1
_geom_bond_atom_site_label_2
_geom_bond_distance
_geom_bond_site_symmetry_2
_ccdc_geom_bond_type
C0 C1 1.351 . S
C0 N3 1.368 . S
C0 H5 0.931 . S
C1 C0 1.351 . S
C1 N2 1.373 . S
C1 H29 0.930 . S
N2 C1 1.373 . S
N2 C4 1.340 . S
N3 C0 1.368 . S
N3 C4 1.321 . S
N3 Co6 2.135 . S
C4 N2 1.340 . S
C4 N3 1.321 . S
C4 H28 0.930 . S
H5 C0 0.931 . S
Co6 N3 2.135 . S
Co6 N9 2.121 . S
Co6 O14 2.055 . S
Co6 O17 2.039 . S
Co6 N20 2.140 . S
C7 O8 1.227 . S
C7 O17 1.265 . S
O8 C7 1.227 . S
N9 Co6 2.121 . S
N9 C11 1.375 . S
N9 C12 1.313 . S
C10 C11 1.338 . S
C10 N13 1.377 . S
C10 H30 0.930 . S
C11 N9 1.375 . S
C11 C10 1.338 . S
C11 H15 0.931 . S
C12 N9 1.313 . S
C12 N13 1.344 . S
C12 H16 0.930 . S
N13 C10 1.377 . S
N13 C12 1.344 . S
O14 Co6 2.055 . S
O14 C18 1.253 . S
H15 C11 0.931 . S
H16 C12 0.930 . S
O17 Co6 2.039 . S
O17 C7 1.265 . S
C18 O14 1.253 . S
C18 O19 1.227 . S
O19 C18 1.227 . S
N20 Co6 2.140 . S
N20 C23 1.346 . S
N20 C24 1.345 . S
C21 C22 1.387 . S
C21 C25 1.391 . S
C22 C21 1.387 . S
C22 C23 1.369 . S
C22 H31 0.929 . S
C23 N20 1.346 . S
C23 C22 1.369 . S
C23 H26 0.928 . S
C24 N20 1.345 . S
C24 C25 1.371 . S
C24 H27 0.931 . S
C25 C21 1.391 . S
C25 C24 1.371 . S
C25 H32 0.930 . S
H26 C23 0.928 . S
H27 C24 0.931 . S
H28 C4 0.930 . S
H29 C1 0.930 . S
H30 C10 0.930 . S
H31 C22 0.929 . S
H32 C25 0.930 . S
C33 C34 1.351 1_545 S
C33 N36 1.368 . S
C33 H38 0.931 . S
C34 C33 1.351 1_565 S
C34 N35 1.373 . S
C34 H62 0.930 . S
N35 C34 1.373 . S
N35 C37 1.340 . S
N36 C33 1.368 . S
N36 C37 1.321 1_545 S
N36 Co39 2.135 . S
C37 N35 1.340 . S
C37 N36 1.321 1_565 S
C37 H61 0.930 . S
H38 C33 0.931 . S
Co39 N36 2.135 . S
Co39 N42 2.121 . S
Co39 O47 2.055 . S
Co39 O50 2.039 . S
Co39 N53 2.140 . S
C40 O41 1.257 . S
C40 O50 1.265 . S
O41 C40 1.257 . S
N42 Co39 2.121 . S
N42 C44 1.375 . S
N42 C45 1.313 . S
C43 C44 1.338 . S
C43 N46 1.377 . S
C43 H63 0.930 . S
C44 N42 1.375 . S
C44 C43 1.338 . S
C44 H48 0.931 . S
C45 N42 1.313 . S
C45 N46 1.344 . S
C45 H49 0.930 . S
N46 C43 1.377 . S
N46 C45 1.344 . S
O47 Co39 2.055 . S
O47 C51 1.253 . S
H48 C44 0.931 . S
H49 C45 0.930 . S
O50 Co39 2.039 . S
O50 C40 1.265 . S
C51 O47 1.253 . S
C51 O52 1.227 . S
O52 C51 1.227 . S
N53 Co39 2.140 . S
N53 C56 1.346 . S
N53 C57 1.345 . S
C54 C55 1.387 1_545 S
C54 C58 1.391 . S
C55 C54 1.387 1_565 S
C55 C56 1.369 1_565 S
C55 H64 0.929 . S
C56 N53 1.346 . S
C56 C55 1.369 1_545 S
C56 H59 0.928 1_545 S
C57 N53 1.345 . S
C57 C58 1.371 . S
C57 H60 0.931 . S
C58 C54 1.391 . S
C58 C57 1.371 . S
C58 H65 0.930 . S
H59 C56 0.928 1_565 S
H60 C57 0.931 . S
H61 C37 0.930 . S
H62 C34 0.930 . S
H63 C43 0.930 . S
H64 C55 0.929 . S
H65 C58 0.930 . S
C66 C67 1.351 1_655 S
C66 N69 1.368 . S
C66 H71 0.931 . S
C67 C66 1.351 1_455 S
C67 N68 1.373 . S
C67 H95 0.930 . S
N68 C67 1.373 . S
N68 C70 1.340 . S
N69 C66 1.368 . S
N69 C70 1.321 1_655 S
N69 Co72 2.135 . S
C70 N68 1.340 . S
C70 N69 1.321 1_455 S
C70 H94 0.930 . S
H71 C66 0.931 . S
Co72 N69 2.135 . S
Co72 N75 2.121 . S
Co72 O80 2.055 . S
Co72 O83 2.039 . S
Co72 N86 2.140 . S
C73 O74 1.239 . S
C73 O83 1.265 . S
O74 C73 1.239 . S
N75 Co72 2.121 . S
N75 C77 1.375 . S
N75 C78 1.313 . S
C76 C77 1.338 . S
C76 N79 1.377 . S
C76 H96 0.930 . S
C77 N75 1.375 . S
C77 C76 1.338 . S
C77 H81 0.931 . S
C78 N75 1.313 . S
C78 N79 1.344 . S
C78 H82 0.930 . S
N79 C76 1.377 . S
N79 C78 1.344 . S
O80 Co72 2.055 . S
O80 C84 1.253 . S
H81 C77 0.931 . S
H82 C78 0.930 . S
O83 Co72 2.039 . S
O83 C73 1.265 . S
C84 O80 1.253 . S
C84 O85 1.227 . S
O85 C84 1.227 . S
N86 Co72 2.140 . S
N86 C89 1.346 . S
N86 C90 1.345 . S
C87 C88 1.387 1_655 S
C87 C91 1.391 . S
C88 C87 1.387 1_455 S
C88 C89 1.369 1_455 S
C88 H97 0.929 . S
C89 N86 1.346 . S
C89 C88 1.369 1_655 S
C89 H92 0.928 1_655 S
C90 N86 1.345 . S
C90 C91 1.371 . S
C90 H93 0.931 . S
C91 C87 1.391 . S
C91 C90 1.371 . S
C91 H98 0.930 . S
H92 C89 0.928 1_455 S
H93 C90 0.931 . S
H94 C70 0.930 . S
H95 C67 0.930 . S
H96 C76 0.930 . S
H97 C88 0.929 . S
H98 C91 0.930 . S
C99 C100 1.351 . S
C99 N102 1.368 . S
C99 H104 0.931 . S
C100 C99 1.351 . S
C100 N101 1.373 . S
C100 H128 0.930 . S
N101 C100 1.373 . S
N101 C103 1.340 . S
N102 C99 1.368 . S
N102 C103 1.321 . S
N102 Co105 2.135 . S
C103 N101 1.340 . S
C103 N102 1.321 . S
C103 H127 0.930 . S
H104 C99 0.931 . S
Co105 N102 2.135 . S
Co105 N108 2.121 . S
Co105 O113 2.055 . S
Co105 O116 2.039 . S
Co105 N119 2.140 . S
C106 O107 1.227 . S
C106 O116 1.265 . S
O107 C106 1.227 . S
N108 Co105 2.121 . S
N108 C110 1.375 . S
N108 C111 1.313 . S
C109 C110 1.338 . S
C109 N112 1.377 . S
C109 H129 0.930 . S
C110 N108 1.375 . S
C110 C109 1.338 . S
C110 H114 0.931 . S
C111 N108 1.313 . S
C111 N112 1.344 . S
C111 H115 0.930 . S
N112 C109 1.377 . S
N112 C111 1.344 . S
O113 Co105 2.055 . S
O113 C117 1.253 . S
H114 C110 0.931 . S
H115 C111 0.930 . S
O116 Co105 2.039 . S
O116 C106 1.265 . S
C117 O113 1.253 . S
C117 O118 1.227 . S
O118 C117 1.227 . S
N119 Co105 2.140 . S
N119 C122 1.346 . S
N119 C123 1.345 . S
C120 C121 1.387 . S
C120 C124 1.391 . S
C121 C120 1.387 . S
C121 C122 1.369 . S
C121 H130 0.929 . S
C122 N119 1.346 . S
C122 C121 1.369 . S
C122 H125 0.928 . S
C123 N119 1.345 . S
C123 C124 1.371 . S
C123 H126 0.931 . S
C124 C120 1.391 . S
C124 C123 1.371 . S
C124 H131 0.930 . S
H125 C122 0.928 . S
H126 C123 0.931 . S
H127 C103 0.930 . S
H128 C100 0.930 . S
H129 C109 0.930 . S
H130 C121 0.929 . S
H131 C124 0.930 . S
C132 C133 1.351 1_565 S
C132 N135 1.368 . S
C132 H137 0.931 . S
C133 C132 1.351 1_545 S
C133 N134 1.373 . S
C133 H161 0.930 . S
N134 C133 1.373 . S
N134 C136 1.340 . S
N135 C132 1.368 . S
N135 C136 1.321 1_565 S
N135 Co138 2.135 . S
C136 N134 1.340 . S
C136 N135 1.321 1_545 S
C136 H160 0.930 . S
H137 C132 0.931 . S
Co138 N135 2.135 . S
Co138 N141 2.121 . S
Co138 O146 2.055 . S
Co138 O149 2.039 . S
Co138 N152 2.140 . S
C139 O140 1.239 . S
C139 O149 1.265 . S
O140 C139 1.239 . S
N141 Co138 2.121 . S
N141 C143 1.375 . S
N141 C144 1.313 . S
C142 C143 1.338 . S
C142 N145 1.377 . S
C142 H162 0.930 . S
C143 N141 1.375 . S
C143 C142 1.338 . S
C143 H147 0.931 . S
C144 N141 1.313 . S
C144 N145 1.344 . S
C144 H148 0.930 . S
N145 C142 1.377 . S
N145 C144 1.344 . S
O146 Co138 2.055 . S
O146 C150 1.253 . S
H147 C143 0.931 . S
H148 C144 0.930 . S
O149 Co138 2.039 . S
O149 C139 1.265 . S
C150 O146 1.253 . S
C150 O151 1.227 . S
O151 C150 1.227 . S
N152 Co138 2.140 . S
N152 C155 1.346 . S
N152 C156 1.345 . S
C153 C154 1.387 1_565 S
C153 C157 1.391 . S
C154 C153 1.387 1_545 S
C154 C155 1.369 1_545 S
C154 H163 0.929 . S
C155 N152 1.346 . S
C155 C154 1.369 1_565 S
C155 H158 0.928 1_565 S
C156 N152 1.345 . S
C156 C157 1.371 . S
C156 H159 0.931 . S
C157 C153 1.391 . S
C157 C156 1.371 . S
C157 H164 0.930 . S
H158 C155 0.928 1_545 S
H159 C156 0.931 . S
H160 C136 0.930 . S
H161 C133 0.930 . S
H162 C142 0.930 . S
H163 C154 0.929 . S
H164 C157 0.930 . S
C165 C166 1.351 1_455 S
C165 N168 1.368 . S
C165 H170 0.931 . S
C166 C165 1.351 1_655 S
C166 N167 1.373 . S
C166 H194 0.930 . S
N167 C166 1.373 . S
N167 C169 1.340 . S
N168 C165 1.368 . S
N168 C169 1.321 1_455 S
N168 Co171 2.135 . S
C169 N167 1.340 . S
C169 N168 1.321 1_655 S
C169 H193 0.930 . S
H170 C165 0.931 . S
Co171 N168 2.135 . S
Co171 N174 2.121 . S
Co171 O179 2.055 . S
Co171 O182 2.039 . S
Co171 N185 2.140 . S
C172 O173 1.257 . S
C172 O182 1.265 . S
O173 C172 1.257 . S
N174 Co171 2.121 . S
N174 C176 1.375 . S
N174 C177 1.313 . S
C175 C176 1.338 . S
C175 N178 1.377 . S
C175 H195 0.930 . S
C176 N174 1.375 . S
C176 C175 1.338 . S
C176 H180 0.931 . S
C177 N174 1.313 . S
C177 N178 1.344 . S
C177 H181 0.930 . S
N178 C175 1.377 . S
N178 C177 1.344 . S
O179 Co171 2.055 . S
O179 C183 1.253 . S
H180 C176 0.931 . S
H181 C177 0.930 . S
O182 Co171 2.039 . S
O182 C172 1.265 . S
C183 O179 1.253 . S
C183 O184 1.227 . S
O184 C183 1.227 . S
N185 Co171 2.140 . S
N185 C188 1.346 . S
N185 C189 1.345 . S
C186 C187 1.387 1_455 S
C186 C190 1.391 . S
C187 C186 1.387 1_655 S
C187 C188 1.369 1_655 S
C187 H196 0.929 . S
C188 N185 1.346 . S
C188 C187 1.369 1_455 S
C188 H191 0.928 1_455 S
C189 N185 1.345 . S
C189 C190 1.371 . S
C189 H192 0.931 . S
C190 C186 1.391 . S
C190 C189 1.371 . S
C190 H197 0.930 . S
H191 C188 0.928 1_655 S
H192 C189 0.931 . S
H193 C169 0.930 . S
H194 C166 0.930 . S
H195 C175 0.930 . S
H196 C187 0.929 . S
H197 C190 0.930 . S
C198 C199 1.351 . S
C198 N201 1.368 . S
C198 H203 0.931 . S
C199 C198 1.351 . S
C199 N200 1.373 . S
C199 H227 0.930 . S
N200 C199 1.373 . S
N200 C202 1.340 . S
N201 C198 1.368 . S
N201 C202 1.321 . S
N201 Co204 2.135 . S
C202 N200 1.340 . S
C202 N201 1.321 . S
C202 H226 0.930 . S
H203 C198 0.931 . S
Co204 N201 2.135 . S
Co204 N207 2.121 . S
Co204 O212 2.055 . S
Co204 O215 2.039 . S
Co204 N218 2.140 . S
C205 O206 1.227 . S
C205 O215 1.265 . S
O206 C205 1.227 . S
N207 Co204 2.121 . S
N207 C209 1.375 . S
N207 C210 1.313 . S
C208 C209 1.338 . S
C208 N211 1.377 . S
C208 H228 0.930 . S
C209 N207 1.375 . S
C209 C208 1.338 . S
C209 H213 0.931 . S
C210 N207 1.313 . S
C210 N211 1.344 . S
C210 H214 0.930 . S
N211 C208 1.377 . S
N211 C210 1.344 . S
O212 Co204 2.055 . S
O212 C216 1.253 . S
H213 C209 0.931 . S
H214 C210 0.930 . S
O215 Co204 2.039 . S
O215 C205 1.265 . S
C216 O212 1.253 . S
C216 O217 1.227 . S
O217 C216 1.227 . S
N218 Co204 2.140 . S
N218 C221 1.346 . S
N218 C222 1.345 . S
C219 C220 1.387 . S
C219 C223 1.391 . S
C220 C219 1.387 . S
C220 C221 1.369 . S
C220 H229 0.929 . S
C221 N218 1.346 . S
C221 C220 1.369 . S
C221 H224 0.928 . S
C222 N218 1.345 . S
C222 C223 1.371 . S
C222 H225 0.931 . S
C223 C219 1.391 . S
C223 C222 1.371 . S
C223 H230 0.930 . S
H224 C221 0.928 . S
H225 C222 0.931 . S
H226 C202 0.930 . S
H227 C199 0.930 . S
H228 C208 0.930 . S
H229 C220 0.929 . S
H230 C223 0.930 . S
C231 C232 1.351 1_565 S
C231 N234 1.368 . S
C231 H236 0.931 . S
C232 C231 1.351 1_545 S
C232 N233 1.373 . S
C232 H260 0.930 . S
N233 C232 1.373 . S
N233 C235 1.340 . S
N234 C231 1.368 . S
N234 C235 1.321 1_565 S
N234 Co237 2.135 . S
C235 N233 1.340 . S
C235 N234 1.321 1_545 S
C235 H259 0.930 . S
H236 C231 0.931 . S
Co237 N234 2.135 . S
Co237 N240 2.121 . S
Co237 O245 2.055 . S
Co237 O248 2.039 . S
Co237 N251 2.140 . S
C238 O239 1.257 . S
C238 O248 1.265 . S
O239 C238 1.257 . S
N240 Co237 2.121 . S
N240 C242 1.375 . S
N240 C243 1.313 . S
C241 C242 1.338 . S
C241 N244 1.377 . S
C241 H261 0.930 . S
C242 N240 1.375 . S
C242 C241 1.338 . S
C242 H246 0.931 . S
C243 N240 1.313 . S
C243 N244 1.344 . S
C243 H247 0.930 . S
N244 C241 1.377 . S
N244 C243 1.344 . S
O245 Co237 2.055 . S
O245 C249 1.253 . S
H246 C242 0.931 . S
H247 C243 0.930 . S
O248 Co237 2.039 . S
O248 C238 1.265 . S
C249 O245 1.253 . S
C249 O250 1.227 . S
O250 C249 1.227 . S
N251 Co237 2.140 . S
N251 C254 1.346 . S
N251 C255 1.345 . S
C252 C253 1.387 1_565 S
C252 C256 1.391 . S
C253 C252 1.387 1_545 S
C253 C254 1.369 1_545 S
C253 H262 0.929 . S
C254 N251 1.346 . S
C254 C253 1.369 1_565 S
C254 H257 0.928 1_565 S
C255 N251 1.345 . S
C255 C256 1.371 . S
C255 H258 0.931 . S
C256 C252 1.391 . S
C256 C255 1.371 . S
C256 H263 0.930 . S
H257 C254 0.928 1_545 S
H258 C255 0.931 . S
H259 C235 0.930 . S
H260 C232 0.930 . S
H261 C241 0.930 . S
H262 C253 0.929 . S
H263 C256 0.930 . S
C264 C265 1.351 1_455 S
C264 N267 1.368 . S
C264 H269 0.931 . S
C265 C264 1.351 1_655 S
C265 N266 1.373 . S
C265 H293 0.930 . S
N266 C265 1.373 . S
N266 C268 1.340 . S
N267 C264 1.368 . S
N267 C268 1.321 1_455 S
N267 Co270 2.135 . S
C268 N266 1.340 . S
C268 N267 1.321 1_655 S
C268 H292 0.930 . S
H269 C264 0.931 . S
Co270 N267 2.135 . S
Co270 N273 2.121 . S
Co270 O278 2.055 . S
Co270 O281 2.039 . S
Co270 N284 2.140 . S
C271 O272 1.239 . S
C271 O281 1.265 . S
O272 C271 1.239 . S
N273 Co270 2.121 . S
N273 C275 1.375 . S
N273 C276 1.313 . S
C274 C275 1.338 . S
C274 N277 1.377 . S
C274 H294 0.930 . S
C275 N273 1.375 . S
C275 C274 1.338 . S
C275 H279 0.931 . S
C276 N273 1.313 . S
C276 N277 1.344 . S
C276 H280 0.930 . S
N277 C274 1.377 . S
N277 C276 1.344 . S
O278 Co270 2.055 . S
O278 C282 1.253 . S
H279 C275 0.931 . S
H280 C276 0.930 . S
O281 Co270 2.039 . S
O281 C271 1.265 . S
C282 O278 1.253 . S
C282 O283 1.227 . S
O283 C282 1.227 . S
N284 Co270 2.140 . S
N284 C287 1.346 . S
N284 C288 1.345 . S
C285 C286 1.387 1_455 S
C285 C289 1.391 . S
C286 C285 1.387 1_655 S
C286 C287 1.369 1_655 S
C286 H295 0.929 . S
C287 N284 1.346 . S
C287 C286 1.369 1_455 S
C287 H290 0.928 1_455 S
C288 N284 1.345 . S
C288 C289 1.371 . S
C288 H291 0.931 . S
C289 C285 1.391 . S
C289 C288 1.371 . S
C289 H296 0.930 . S
H290 C287 0.928 1_655 S
H291 C288 0.931 . S
H292 C268 0.930 . S
H293 C265 0.930 . S
H294 C274 0.930 . S
H295 C286 0.929 . S
H296 C289 0.930 . S
C297 C298 1.351 . S
C297 N300 1.368 . S
C297 H302 0.931 . S
C298 C297 1.351 . S
C298 N299 1.373 . S
C298 H326 0.930 . S
N299 C298 1.373 . S
N299 C301 1.340 . S
N300 C297 1.368 . S
N300 C301 1.321 . S
N300 Co303 2.135 . S
C301 N299 1.340 . S
C301 N300 1.321 . S
C301 H325 0.930 . S
H302 C297 0.931 . S
Co303 N300 2.135 . S
Co303 N306 2.121 . S
Co303 O311 2.055 . S
Co303 O314 2.039 . S
Co303 N317 2.140 . S
C304 O305 1.227 . S
C304 O314 1.265 . S
O305 C304 1.227 . S
N306 Co303 2.121 . S
N306 C308 1.375 . S
N306 C309 1.313 . S
C307 C308 1.338 . S
C307 N310 1.377 . S
C307 H327 0.930 . S
C308 N306 1.375 . S
C308 C307 1.338 . S
C308 H312 0.931 . S
C309 N306 1.313 . S
C309 N310 1.344 . S
C309 H313 0.930 . S
N310 C307 1.377 . S
N310 C309 1.344 . S
O311 Co303 2.055 . S
O311 C315 1.253 . S
H312 C308 0.931 . S
H313 C309 0.930 . S
O314 Co303 2.039 . S
O314 C304 1.265 . S
C315 O311 1.253 . S
C315 O316 1.227 . S
O316 C315 1.227 . S
N317 Co303 2.140 . S
N317 C320 1.346 . S
N317 C321 1.345 . S
C318 C319 1.387 . S
C318 C322 1.391 . S
C319 C318 1.387 . S
C319 C320 1.369 . S
C319 H328 0.929 . S
C320 N317 1.346 . S
C320 C319 1.369 . S
C320 H323 0.928 . S
C321 N317 1.345 . S
C321 C322 1.371 . S
C321 H324 0.931 . S
C322 C318 1.391 . S
C322 C321 1.371 . S
C322 H329 0.930 . S
H323 C320 0.928 . S
H324 C321 0.931 . S
H325 C301 0.930 . S
H326 C298 0.930 . S
H327 C307 0.930 . S
H328 C319 0.929 . S
H329 C322 0.930 . S
C330 C331 1.351 1_545 S
C330 N333 1.368 . S
C330 H335 0.931 . S
C331 C330 1.351 1_565 S
C331 N332 1.373 . S
C331 H359 0.930 . S
N332 C331 1.373 . S
N332 C334 1.340 . S
N333 C330 1.368 . S
N333 C334 1.321 1_545 S
N333 Co336 2.135 . S
C334 N332 1.340 . S
C334 N333 1.321 1_565 S
C334 H358 0.930 . S
H335 C330 0.931 . S
Co336 N333 2.135 . S
Co336 N339 2.121 . S
Co336 O344 2.055 . S
Co336 O347 2.039 . S
Co336 N350 2.140 . S
C337 O338 1.239 . S
C337 O347 1.265 . S
O338 C337 1.239 . S
N339 Co336 2.121 . S
N339 C341 1.375 . S
N339 C342 1.313 . S
C340 C341 1.338 . S
C340 N343 1.377 . S
C340 H360 0.930 . S
C341 N339 1.375 . S
C341 C340 1.338 . S
C341 H345 0.931 . S
C342 N339 1.313 . S
C342 N343 1.344 . S
C342 H346 0.930 . S
N343 C340 1.377 . S
N343 C342 1.344 . S
O344 Co336 2.055 . S
O344 C348 1.253 . S
H345 C341 0.931 . S
H346 C342 0.930 . S
O347 Co336 2.039 . S
O347 C337 1.265 . S
C348 O344 1.253 . S
C348 O349 1.227 . S
O349 C348 1.227 . S
N350 Co336 2.140 . S
N350 C353 1.346 . S
N350 C354 1.345 . S
C351 C352 1.387 1_545 S
C351 C355 1.391 . S
C352 C351 1.387 1_565 S
C352 C353 1.369 1_565 S
C352 H361 0.929 . S
C353 N350 1.346 . S
C353 C352 1.369 1_545 S
C353 H356 0.928 1_545 S
C354 N350 1.345 . S
C354 C355 1.371 . S
C354 H357 0.931 . S
C355 C351 1.391 . S
C355 C354 1.371 . S
C355 H362 0.930 . S
H356 C353 0.928 1_565 S
H357 C354 0.931 . S
H358 C334 0.930 . S
H359 C331 0.930 . S
H360 C340 0.930 . S
H361 C352 0.929 . S
H362 C355 0.930 . S
C363 C364 1.351 1_655 S
C363 N366 1.368 . S
C363 H368 0.931 . S
C364 C363 1.351 1_455 S
C364 N365 1.373 . S
C364 H392 0.930 . S
N365 C364 1.373 . S
N365 C367 1.340 . S
N366 C363 1.368 . S
N366 C367 1.321 1_655 S
N366 Co369 2.135 . S
C367 N365 1.340 . S
C367 N366 1.321 1_455 S
C367 H391 0.930 . S
H368 C363 0.931 . S
Co369 N366 2.135 . S
Co369 N372 2.121 . S
Co369 O377 2.055 . S
Co369 O380 2.039 . S
Co369 N383 2.140 . S
C370 O371 1.257 . S
C370 O380 1.265 . S
O371 C370 1.257 . S
N372 Co369 2.121 . S
N372 C374 1.375 . S
N372 C375 1.313 . S
C373 C374 1.338 . S
C373 N376 1.377 . S
C373 H393 0.930 . S
C374 N372 1.375 . S
C374 C373 1.338 . S
C374 H378 0.931 . S
C375 N372 1.313 . S
C375 N376 1.344 . S
C375 H379 0.930 . S
N376 C373 1.377 . S
N376 C375 1.344 . S
O377 Co369 2.055 . S
O377 C381 1.253 . S
H378 C374 0.931 . S
H379 C375 0.930 . S
O380 Co369 2.039 . S
O380 C370 1.265 . S
C381 O377 1.253 . S
C381 O382 1.227 . S
O382 C381 1.227 . S
N383 Co369 2.140 . S
N383 C386 1.346 . S
N383 C387 1.345 . S
C384 C385 1.387 1_655 S
C384 C388 1.391 . S
C385 C384 1.387 1_455 S
C385 C386 1.369 1_455 S
C385 H394 0.929 . S
C386 N383 1.346 . S
C386 C385 1.369 1_655 S
C386 H389 0.928 1_655 S
C387 N383 1.345 . S
C387 C388 1.371 . S
C387 H390 0.931 . S
C388 C384 1.391 . S
C388 C387 1.371 . S
C388 H395 0.930 . S
H389 C386 0.928 1_455 S
H390 C387 0.931 . S
H391 C367 0.930 . S
H392 C364 0.930 . S
H393 C373 0.930 . S
H394 C385 0.929 . S
H395 C388 0.930 . S
C396 C397 1.351 . S
C396 N399 1.368 . S
C396 H401 0.931 . S
C397 C396 1.351 . S
C397 N398 1.373 . S
C397 H425 0.930 . S
N398 C397 1.373 . S
N398 C400 1.340 . S
N399 C396 1.368 . S
N399 C400 1.321 . S
N399 Co402 2.135 . S
C400 N398 1.340 . S
C400 N399 1.321 . S
C400 H424 0.930 . S
H401 C396 0.931 . S
Co402 N399 2.135 . S
Co402 N405 2.121 . S
Co402 O410 2.055 . S
Co402 O413 2.039 . S
Co402 N416 2.140 . S
C403 O404 1.227 . S
C403 O413 1.265 . S
O404 C403 1.227 . S
N405 Co402 2.121 . S
N405 C407 1.375 . S
N405 C408 1.313 . S
C406 C407 1.338 . S
C406 N409 1.377 . S
C406 H426 0.930 . S
C407 N405 1.375 . S
C407 C406 1.338 . S
C407 H411 0.931 . S
C408 N405 1.313 . S
C408 N409 1.344 . S
C408 H412 0.930 . S
N409 C406 1.377 . S
N409 C408 1.344 . S
O410 Co402 2.055 . S
O410 C414 1.253 . S
H411 C407 0.931 . S
H412 C408 0.930 . S
O413 Co402 2.039 . S
O413 C403 1.265 . S
C414 O410 1.253 . S
C414 O415 1.227 . S
O415 C414 1.227 . S
N416 Co402 2.140 . S
N416 C419 1.346 . S
N416 C420 1.345 . S
C417 C418 1.387 . S
C417 C421 1.391 . S
C418 C417 1.387 . S
C418 C419 1.369 . S
C418 H427 0.929 . S
C419 N416 1.346 . S
C419 C418 1.369 . S
C419 H422 0.928 . S
C420 N416 1.345 . S
C420 C421 1.371 . S
C420 H423 0.931 . S
C421 C417 1.391 . S
C421 C420 1.371 . S
C421 H428 0.930 . S
H422 C419 0.928 . S
H423 C420 0.931 . S
H424 C400 0.930 . S
H425 C397 0.930 . S
H426 C406 0.930 . S
H427 C418 0.929 . S
H428 C421 0.930 . S
C429 C430 1.351 . S
C429 N432 1.368 . S
C429 H434 0.931 . S
C430 C429 1.351 . S
C430 N431 1.373 . S
C430 H458 0.930 . S
N431 C430 1.373 . S
N431 C433 1.340 . S
N432 C429 1.368 . S
N432 C433 1.321 . S
N432 Co435 2.135 . S
C433 N431 1.340 . S
C433 N432 1.321 . S
C433 H457 0.930 . S
H434 C429 0.931 . S
Co435 N432 2.135 . S
Co435 N438 2.121 . S
Co435 O443 2.055 . S
Co435 O446 2.039 . S
Co435 N449 2.140 . S
C436 O437 1.227 . S
C436 O446 1.265 . S
O437 C436 1.227 . S
N438 Co435 2.121 . S
N438 C440 1.375 . S
N438 C441 1.313 . S
C439 C440 1.338 . S
C439 N442 1.377 . S
C439 H459 0.930 . S
C440 N438 1.375 . S
C440 C439 1.338 . S
C440 H444 0.931 . S
C441 N438 1.313 . S
C441 N442 1.344 . S
C441 H445 0.930 . S
N442 C439 1.377 . S
N442 C441 1.344 . S
O443 Co435 2.055 . S
O443 C447 1.253 . S
H444 C440 0.931 . S
H445 C441 0.930 . S
O446 Co435 2.039 . S
O446 C436 1.265 . S
C447 O443 1.253 . S
C447 O448 1.227 . S
O448 C447 1.227 . S
N449 Co435 2.140 . S
N449 C452 1.346 . S
N449 C453 1.345 . S
C450 C451 1.387 . S
C450 C454 1.391 . S
C451 C450 1.387 . S
C451 C452 1.369 . S
C451 H460 0.929 . S
C452 N449 1.346 . S
C452 C451 1.369 . S
C452 H455 0.928 . S
C453 N449 1.345 . S
C453 C454 1.371 . S
C453 H456 0.931 . S
C454 C450 1.391 . S
C454 C453 1.371 . S
C454 H461 0.930 . S
H455 C452 0.928 . S
H456 C453 0.931 . S
H457 C433 0.930 . S
H458 C430 0.930 . S
H459 C439 0.930 . S
H460 C451 0.929 . S
H461 C454 0.930 . S
C462 C463 1.351 . S
C462 N465 1.368 . S
C462 H467 0.931 . S
C463 C462 1.351 . S
C463 N464 1.373 . S
C463 H491 0.930 . S
N464 C463 1.373 . S
N464 C466 1.340 . S
N465 C462 1.368 . S
N465 C466 1.321 . S
N465 Co468 2.135 . S
C466 N464 1.340 . S
C466 N465 1.321 . S
C466 H490 0.930 . S
H467 C462 0.931 . S
Co468 N465 2.135 . S
Co468 N471 2.121 . S
Co468 O476 2.055 . S
Co468 O479 2.039 . S
Co468 N482 2.140 . S
C469 O470 1.227 . S
C469 O479 1.265 . S
O470 C469 1.227 . S
N471 Co468 2.121 . S
N471 C473 1.375 . S
N471 C474 1.313 . S
C472 C473 1.338 . S
C472 N475 1.377 . S
C472 H492 0.930 . S
C473 N471 1.375 . S
C473 C472 1.338 . S
C473 H477 0.931 . S
C474 N471 1.313 . S
C474 N475 1.344 . S
C474 H478 0.930 . S
N475 C472 1.377 . S
N475 C474 1.344 . S
O476 Co468 2.055 . S
O476 C480 1.253 . S
H477 C473 0.931 . S
H478 C474 0.930 . S
O479 Co468 2.039 . S
O479 C469 1.265 . S
C480 O476 1.253 . S
C480 O481 1.227 . S
O481 C480 1.227 . S
N482 Co468 2.140 . S
N482 C485 1.346 . S
N482 C486 1.345 . S
C483 C484 1.387 . S
C483 C487 1.391 . S
C484 C483 1.387 . S
C484 C485 1.369 . S
C484 H493 0.929 . S
C485 N482 1.346 . S
C485 C484 1.369 . S
C485 H488 0.928 . S
C486 N482 1.345 . S
C486 C487 1.371 . S
C486 H489 0.931 . S
C487 C483 1.391 . S
C487 C486 1.371 . S
C487 H494 0.930 . S
H488 C485 0.928 . S
H489 C486 0.931 . S
H490 C466 0.930 . S
H491 C463 0.930 . S
H492 C472 0.930 . S
H493 C484 0.929 . S
H494 C487 0.930 . S
C495 C496 1.351 . S
C495 N498 1.368 . S
C495 H500 0.931 . S
C496 C495 1.351 . S
C496 N497 1.373 . S
C496 H524 0.930 . S
N497 C496 1.373 . S
N497 C499 1.340 . S
N498 C495 1.368 . S
N498 C499 1.321 . S
N498 Co501 2.135 . S
C499 N497 1.340 . S
C499 N498 1.321 . S
C499 H523 0.930 . S
H500 C495 0.931 . S
Co501 N498 2.135 . S
Co501 N504 2.121 . S
Co501 O509 2.055 . S
Co501 O512 2.039 . S
Co501 N515 2.140 . S
C502 O503 1.227 . S
C502 O512 1.265 . S
O503 C502 1.227 . S
N504 Co501 2.121 . S
N504 C506 1.375 . S
N504 C507 1.313 . S
C505 C506 1.338 . S
C505 N508 1.377 . S
C505 H525 0.930 . S
C506 N504 1.375 . S
C506 C505 1.338 . S
C506 H510 0.931 . S
C507 N504 1.313 . S
C507 N508 1.344 . S
C507 H511 0.930 . S
N508 C505 1.377 . S
N508 C507 1.344 . S
O509 Co501 2.055 . S
O509 C513 1.253 . S
H510 C506 0.931 . S
H511 C507 0.930 . S
O512 Co501 2.039 . S
O512 C502 1.265 . S
C513 O509 1.253 . S
C513 O514 1.227 . S
O514 C513 1.227 . S
N515 Co501 2.140 . S
N515 C518 1.346 . S
N515 C519 1.345 . S
C516 C517 1.387 . S
C516 C520 1.391 . S
C517 C516 1.387 . S
C517 C518 1.369 . S
C517 H526 0.929 . S
C518 N515 1.346 . S
C518 C517 1.369 . S
C518 H521 0.928 . S
C519 N515 1.345 . S
C519 C520 1.371 . S
C519 H522 0.931 . S
C520 C516 1.391 . S
C520 C519 1.371 . S
C520 H527 0.930 . S
H521 C518 0.928 . S
H522 C519 0.931 . S
H523 C499 0.930 . S
H524 C496 0.930 . S
H525 C505 0.930 . S
H526 C517 0.929 . S
H527 C520 0.930 . S
C528 C529 1.351 . S
C528 N531 1.368 . S
C528 H533 0.931 . S
C529 C528 1.351 . S
C529 N530 1.373 . S
C529 H557 0.930 . S
N530 C529 1.373 . S
N530 C532 1.340 . S
N531 C528 1.368 . S
N531 C532 1.321 . S
N531 Co534 2.135 . S
C532 N530 1.340 . S
C532 N531 1.321 . S
C532 H556 0.930 . S
H533 C528 0.931 . S
Co534 N531 2.135 . S
Co534 N537 2.121 . S
Co534 O542 2.055 . S
Co534 O545 2.039 . S
Co534 N548 2.140 . S
C535 O536 1.227 . S
C535 O545 1.265 . S
O536 C535 1.227 . S
N537 Co534 2.121 . S
N537 C539 1.375 . S
N537 C540 1.313 . S
C538 C539 1.338 . S
C538 N541 1.377 . S
C538 H558 0.930 . S
C539 N537 1.375 . S
C539 C538 1.338 . S
C539 H543 0.931 . S
C540 N537 1.313 . S
C540 N541 1.344 . S
C540 H544 0.930 . S
N541 C538 1.377 . S
N541 C540 1.344 . S
O542 Co534 2.055 . S
O542 C546 1.253 . S
H543 C539 0.931 . S
H544 C540 0.930 . S
O545 Co534 2.039 . S
O545 C535 1.265 . S
C546 O542 1.253 . S
C546 O547 1.227 . S
O547 C546 1.227 . S
N548 Co534 2.140 . S
N548 C551 1.346 . S
N548 C552 1.345 . S
C549 C550 1.387 . S
C549 C553 1.391 . S
C550 C549 1.387 . S
C550 C551 1.369 . S
C550 H559 0.929 . S
C551 N548 1.346 . S
C551 C550 1.369 . S
C551 H554 0.928 . S
C552 N548 1.345 . S
C552 C553 1.371 . S
C552 H555 0.931 . S
C553 C549 1.391 . S
C553 C552 1.371 . S
C553 H560 0.930 . S
H554 C551 0.928 . S
H555 C552 0.931 . S
H556 C532 0.930 . S
H557 C529 0.930 . S
H558 C538 0.930 . S
H559 C550 0.929 . S
H560 C553 0.930 . S
C561 C562 1.351 . S
C561 N564 1.368 . S
C561 H566 0.931 . S
C562 C561 1.351 . S
C562 N563 1.373 . S
C562 H590 0.930 . S
N563 C562 1.373 . S
N563 C565 1.340 . S
N564 C561 1.368 . S
N564 C565 1.321 . S
N564 Co567 2.135 . S
C565 N563 1.340 . S
C565 N564 1.321 . S
C565 H589 0.930 . S
H566 C561 0.931 . S
Co567 N564 2.135 . S
Co567 N570 2.121 . S
Co567 O575 2.055 . S
Co567 O578 2.039 . S
Co567 N581 2.140 . S
C568 O569 1.227 . S
C568 O578 1.265 . S
O569 C568 1.227 . S
N570 Co567 2.121 . S
N570 C572 1.375 . S
N570 C573 1.313 . S
C571 C572 1.338 . S
C571 N574 1.377 . S
C571 H591 0.930 . S
C572 N570 1.375 . S
C572 C571 1.338 . S
C572 H576 0.931 . S
C573 N570 1.313 . S
C573 N574 1.344 . S
C573 H577 0.930 . S
N574 C571 1.377 . S
N574 C573 1.344 . S
O575 Co567 2.055 . S
O575 C579 1.253 . S
H576 C572 0.931 . S
H577 C573 0.930 . S
O578 Co567 2.039 . S
O578 C568 1.265 . S
C579 O575 1.253 . S
C579 O580 1.227 . S
O580 C579 1.227 . S
N581 Co567 2.140 . S
N581 C584 1.346 . S
N581 C585 1.345 . S
C582 C583 1.387 . S
C582 C586 1.391 . S
C583 C582 1.387 . S
C583 C584 1.369 . S
C583 H592 0.929 . S
C584 N581 1.346 . S
C584 C583 1.369 . S
C584 H587 0.928 . S
C585 N581 1.345 . S
C585 C586 1.371 . S
C585 H588 0.931 . S
C586 C582 1.391 . S
C586 C585 1.371 . S
C586 H593 0.930 . S
H587 C584 0.928 . S
H588 C585 0.931 . S
H589 C565 0.930 . S
H590 C562 0.930 . S
H591 C571 0.930 . S
H592 C583 0.929 . S
H593 C586 0.930 . S
C594 C595 1.351 . S
C594 N597 1.368 . S
C594 H599 0.931 . S
C595 C594 1.351 . S
C595 N596 1.373 . S
C595 H623 0.930 . S
N596 C595 1.373 . S
N596 C598 1.340 . S
N597 C594 1.368 . S
N597 C598 1.321 . S
N597 Co600 2.135 . S
C598 N596 1.340 . S
C598 N597 1.321 . S
C598 H622 0.930 . S
H599 C594 0.931 . S
Co600 N597 2.135 . S
Co600 N603 2.121 . S
Co600 O608 2.055 . S
Co600 O611 2.039 . S
Co600 N614 2.140 . S
C601 O602 1.227 . S
C601 O611 1.265 . S
O602 C601 1.227 . S
N603 Co600 2.121 . S
N603 C605 1.375 . S
N603 C606 1.313 . S
C604 C605 1.338 . S
C604 N607 1.377 . S
C604 H624 0.930 . S
C605 N603 1.375 . S
C605 C604 1.338 . S
C605 H609 0.931 . S
C606 N603 1.313 . S
C606 N607 1.344 . S
C606 H610 0.930 . S
N607 C604 1.377 . S
N607 C606 1.344 . S
O608 Co600 2.055 . S
O608 C612 1.253 . S
H609 C605 0.931 . S
H610 C606 0.930 . S
O611 Co600 2.039 . S
O611 C601 1.265 . S
C612 O608 1.253 . S
C612 O613 1.227 . S
O613 C612 1.227 . S
N614 Co600 2.140 . S
N614 C617 1.346 . S
N614 C618 1.345 . S
C615 C616 1.387 . S
C615 C619 1.391 . S
C616 C615 1.387 . S
C616 C617 1.369 . S
C616 H625 0.929 . S
C617 N614 1.346 . S
C617 C616 1.369 . S
C617 H620 0.928 . S
C618 N614 1.345 . S
C618 C619 1.371 . S
C618 H621 0.931 . S
C619 C615 1.391 . S
C619 C618 1.371 . S
C619 H626 0.930 . S
H620 C617 0.928 . S
H621 C618 0.931 . S
H622 C598 0.930 . S
H623 C595 0.930 . S
H624 C604 0.930 . S
H625 C616 0.929 . S
H626 C619 0.930 . S
C627 C628 1.351 . S
C627 N630 1.368 . S
C627 H632 0.931 . S
C628 C627 1.351 . S
C628 N629 1.373 . S
C628 H656 0.930 . S
N629 C628 1.373 . S
N629 C631 1.340 . S
N630 C627 1.368 . S
N630 C631 1.321 . S
N630 Co633 2.135 . S
C631 N629 1.340 . S
C631 N630 1.321 . S
C631 H655 0.930 . S
H632 C627 0.931 . S
Co633 N630 2.135 . S
Co633 N636 2.121 . S
Co633 O641 2.055 . S
Co633 O644 2.039 . S
Co633 N647 2.140 . S
C634 O635 1.227 . S
C634 O644 1.265 . S
O635 C634 1.227 . S
N636 Co633 2.121 . S
N636 C638 1.375 . S
N636 C639 1.313 . S
C637 C638 1.338 . S
C637 N640 1.377 . S
C637 H657 0.930 . S
C638 N636 1.375 . S
C638 C637 1.338 . S
C638 H642 0.931 . S
C639 N636 1.313 . S
C639 N640 1.344 . S
C639 H643 0.930 . S
N640 C637 1.377 . S
N640 C639 1.344 . S
O641 Co633 2.055 . S
O641 C645 1.253 . S
H642 C638 0.931 . S
H643 C639 0.930 . S
O644 Co633 2.039 . S
O644 C634 1.265 . S
C645 O641 1.253 . S
C645 O646 1.227 . S
O646 C645 1.227 . S
N647 Co633 2.140 . S
N647 C650 1.346 . S
N647 C651 1.345 . S
C648 C649 1.387 . S
C648 C652 1.391 . S
C649 C648 1.387 . S
C649 C650 1.369 . S
C649 H658 0.929 . S
C650 N647 1.346 . S
C650 C649 1.369 . S
C650 H653 0.928 . S
C651 N647 1.345 . S
C651 C652 1.371 . S
C651 H654 0.931 . S
C652 C648 1.391 . S
C652 C651 1.371 . S
C652 H659 0.930 . S
H653 C650 0.928 . S
H654 C651 0.931 . S
H655 C631 0.930 . S
H656 C628 0.930 . S
H657 C637 0.930 . S
H658 C649 0.929 . S
H659 C652 0.930 . S
C660 C661 1.351 . S
C660 N663 1.368 . S
C660 H665 0.931 . S
C661 C660 1.351 . S
C661 N662 1.373 . S
C661 H689 0.930 . S
N662 C661 1.373 . S
N662 C664 1.340 . S
N663 C660 1.368 . S
N663 C664 1.321 . S
N663 Co666 2.135 . S
C664 N662 1.340 . S
C664 N663 1.321 . S
C664 H688 0.930 . S
H665 C660 0.931 . S
Co666 N663 2.135 . S
Co666 N669 2.121 . S
Co666 O674 2.055 . S
Co666 O677 2.039 . S
Co666 N680 2.140 . S
C667 O668 1.227 . S
C667 O677 1.265 . S
O668 C667 1.227 . S
N669 Co666 2.121 . S
N669 C671 1.375 . S
N669 C672 1.313 . S
C670 C671 1.338 . S
C670 N673 1.377 . S
C670 H690 0.930 . S
C671 N669 1.375 . S
C671 C670 1.338 . S
C671 H675 0.931 . S
C672 N669 1.313 . S
C672 N673 1.344 . S
C672 H676 0.930 . S
N673 C670 1.377 . S
N673 C672 1.344 . S
O674 Co666 2.055 . S
O674 C678 1.253 . S
H675 C671 0.931 . S
H676 C672 0.930 . S
O677 Co666 2.039 . S
O677 C667 1.265 . S
C678 O674 1.253 . S
C678 O679 1.227 . S
O679 C678 1.227 . S
N680 Co666 2.140 . S
N680 C683 1.346 . S
N680 C684 1.345 . S
C681 C682 1.387 . S
C681 C685 1.391 . S
C682 C681 1.387 . S
C682 C683 1.369 . S
C682 H691 0.929 . S
C683 N680 1.346 . S
C683 C682 1.369 . S
C683 H686 0.928 . S
C684 N680 1.345 . S
C684 C685 1.371 . S
C684 H687 0.931 . S
C685 C681 1.391 . S
C685 C684 1.371 . S
C685 H692 0.930 . S
H686 C683 0.928 . S
H687 C684 0.931 . S
H688 C664 0.930 . S
H689 C661 0.930 . S
H690 C670 0.930 . S
H691 C682 0.929 . S
H692 C685 0.930 . S
C693 C694 1.351 . S
C693 N696 1.368 . S
C693 H698 0.931 . S
C694 C693 1.351 . S
C694 N695 1.373 . S
C694 H722 0.930 . S
N695 C694 1.373 . S
N695 C697 1.340 . S
N696 C693 1.368 . S
N696 C697 1.321 . S
N696 Co699 2.135 . S
C697 N695 1.340 . S
C697 N696 1.321 . S
C697 H721 0.930 . S
H698 C693 0.931 . S
Co699 N696 2.135 . S
Co699 N702 2.121 . S
Co699 O707 2.055 . S
Co699 O710 2.039 . S
Co699 N713 2.140 . S
C700 O701 1.227 . S
C700 O710 1.265 . S
O701 C700 1.227 . S
N702 Co699 2.121 . S
N702 C704 1.375 . S
N702 C705 1.313 . S
C703 C704 1.338 . S
C703 N706 1.377 . S
C703 H723 0.930 . S
C704 N702 1.375 . S
C704 C703 1.338 . S
C704 H708 0.931 . S
C705 N702 1.313 . S
C705 N706 1.344 . S
C705 H709 0.930 . S
N706 C703 1.377 . S
N706 C705 1.344 . S
O707 Co699 2.055 . S
O707 C711 1.253 . S
H708 C704 0.931 . S
H709 C705 0.930 . S
O710 Co699 2.039 . S
O710 C700 1.265 . S
C711 O707 1.253 . S
C711 O712 1.227 . S
O712 C711 1.227 . S
N713 Co699 2.140 . S
N713 C716 1.346 . S
N713 C717 1.345 . S
C714 C715 1.387 1_554 S
C714 C718 1.403 . S
C715 C714 1.387 1_556 S
C715 C716 1.369 . S
C715 H724 0.929 . S
C716 N713 1.346 . S
C716 C715 1.369 . S
C716 H719 0.928 . S
C717 N713 1.345 . S
C717 C718 1.332 1_556 S
C717 H720 0.931 . S
C718 C714 1.403 . S
C718 C717 1.332 1_554 S
C718 H725 0.959 . S
H719 C716 0.928 . S
H720 C717 0.931 . S
H721 C697 0.930 . S
H722 C694 0.930 . S
H723 C703 0.930 . S
H724 C715 0.929 . S
H725 C718 0.959 . S
C726 C727 1.351 . S
C726 N729 1.368 . S
C726 H731 0.931 . S
C727 C726 1.351 . S
C727 N728 1.373 . S
C727 H755 0.930 . S
N728 C727 1.373 . S
N728 C730 1.340 . S
N729 C726 1.368 . S
N729 C730 1.321 . S
N729 Co732 2.135 . S
C730 N728 1.340 . S
C730 N729 1.321 . S
C730 H754 0.930 . S
H731 C726 0.931 . S
Co732 N729 2.135 . S
Co732 N735 2.121 . S
Co732 O740 2.055 . S
Co732 O743 2.039 . S
Co732 N746 2.140 . S
C733 O734 1.227 . S
C733 O743 1.265 . S
O734 C733 1.227 . S
N735 Co732 2.121 . S
N735 C737 1.375 . S
N735 C738 1.313 . S
C736 C737 1.338 . S
C736 N739 1.377 . S
C736 H756 0.930 . S
C737 N735 1.375 . S
C737 C736 1.338 . S
C737 H741 0.931 . S
C738 N735 1.313 . S
C738 N739 1.344 . S
C738 H742 0.930 . S
N739 C736 1.377 . S
N739 C738 1.344 . S
O740 Co732 2.055 . S
O740 C744 1.253 . S
H741 C737 0.931 . S
H742 C738 0.930 . S
O743 Co732 2.039 . S
O743 C733 1.265 . S
C744 O740 1.253 . S
C744 O745 1.227 . S
O745 C744 1.227 . S
N746 Co732 2.140 . S
N746 C749 1.346 . S
N746 C750 1.345 . S
C747 C748 1.387 1_554 S
C747 C751 1.403 . S
C748 C747 1.387 1_556 S
C748 C749 1.369 . S
C748 H757 0.929 . S
C749 N746 1.346 . S
C749 C748 1.369 . S
C749 H752 0.928 . S
C750 N746 1.345 . S
C750 C751 1.332 1_556 S
C750 H753 0.931 . S
C751 C747 1.403 . S
C751 C750 1.332 1_554 S
C751 H758 0.959 . S
H752 C749 0.928 . S
H753 C750 0.931 . S
H754 C730 0.930 . S
H755 C727 0.930 . S
H756 C736 0.930 . S
H757 C748 0.929 . S
H758 C751 0.959 . S
C759 C760 1.351 . S
C759 N762 1.368 . S
C759 H764 0.931 . S
C760 C759 1.351 . S
C760 N761 1.373 . S
C760 H788 0.930 . S
N761 C760 1.373 . S
N761 C763 1.340 . S
N762 C759 1.368 . S
N762 C763 1.321 . S
N762 Co765 2.135 . S
C763 N761 1.340 . S
C763 N762 1.321 . S
C763 H787 0.930 . S
H764 C759 0.931 . S
Co765 N762 2.135 . S
Co765 N768 2.121 . S
Co765 O773 2.055 . S
Co765 O776 2.039 . S
Co765 N779 2.140 . S
C766 O767 1.227 . S
C766 O776 1.265 . S
O767 C766 1.227 . S
N768 Co765 2.121 . S
N768 C770 1.375 . S
N768 C771 1.313 . S
C769 C770 1.338 . S
C769 N772 1.377 . S
C769 H789 0.930 . S
C770 N768 1.375 . S
C770 C769 1.338 . S
C770 H774 0.931 . S
C771 N768 1.313 . S
C771 N772 1.344 . S
C771 H775 0.930 . S
N772 C769 1.377 . S
N772 C771 1.344 . S
O773 Co765 2.055 . S
O773 C777 1.253 . S
H774 C770 0.931 . S
H775 C771 0.930 . S
O776 Co765 2.039 . S
O776 C766 1.265 . S
C777 O773 1.253 . S
C777 O778 1.227 . S
O778 C777 1.227 . S
N779 Co765 2.140 . S
N779 C782 1.346 . S
N779 C783 1.345 . S
C780 C781 1.387 1_554 S
C780 C784 1.403 . S
C781 C780 1.387 1_556 S
C781 C782 1.369 . S
C781 H790 0.929 . S
C782 N779 1.346 . S
C782 C781 1.369 . S
C782 H785 0.928 . S
C783 N779 1.345 . S
C783 C784 1.332 1_556 S
C783 H786 0.931 . S
C784 C780 1.403 . S
C784 C783 1.332 1_554 S
C784 H791 0.959 . S
H785 C782 0.928 . S
H786 C783 0.931 . S
H787 C763 0.930 . S
H788 C760 0.930 . S
H789 C769 0.930 . S
H790 C781 0.929 . S
H791 C784 0.959 . S
C792 C793 1.351 . S
C792 N795 1.368 . S
C792 H797 0.931 . S
C793 C792 1.351 . S
C793 N794 1.373 . S
C793 H821 0.930 . S
N794 C793 1.373 . S
N794 C796 1.340 . S
N795 C792 1.368 . S
N795 C796 1.321 . S
N795 Co798 2.135 . S
C796 N794 1.340 . S
C796 N795 1.321 . S
C796 H820 0.930 . S
H797 C792 0.931 . S
Co798 N795 2.135 . S
Co798 N801 2.121 . S
Co798 O806 2.055 . S
Co798 O809 2.039 . S
Co798 N812 2.140 . S
C799 O800 1.227 . S
C799 O809 1.265 . S
O800 C799 1.227 . S
N801 Co798 2.121 . S
N801 C803 1.375 . S
N801 C804 1.313 . S
C802 C803 1.338 . S
C802 N805 1.377 . S
C802 H822 0.930 . S
C803 N801 1.375 . S
C803 C802 1.338 . S
C803 H807 0.931 . S
C804 N801 1.313 . S
C804 N805 1.344 . S
C804 H808 0.930 . S
N805 C802 1.377 . S
N805 C804 1.344 . S
O806 Co798 2.055 . S
O806 C810 1.253 . S
H807 C803 0.931 . S
H808 C804 0.930 . S
O809 Co798 2.039 . S
O809 C799 1.265 . S
C810 O806 1.253 . S
C810 O811 1.227 . S
O811 C810 1.227 . S
N812 Co798 2.140 . S
N812 C815 1.346 . S
N812 C816 1.345 . S
C813 C814 1.387 . S
C813 C817 1.391 . S
C814 C813 1.387 . S
C814 C815 1.369 . S
C814 H823 0.929 . S
C815 N812 1.346 . S
C815 C814 1.369 . S
C815 H818 0.928 . S
C816 N812 1.345 . S
C816 C817 1.371 . S
C816 H819 0.931 . S
C817 C813 1.391 . S
C817 C816 1.371 . S
C817 H824 0.930 . S
H818 C815 0.928 . S
H819 C816 0.931 . S
H820 C796 0.930 . S
H821 C793 0.930 . S
H822 C802 0.930 . S
H823 C814 0.929 . S
H824 C817 0.930 . S
C825 C826 1.351 . S
C825 N828 1.368 . S
C825 H830 0.931 . S
C826 C825 1.351 . S
C826 N827 1.373 . S
C826 H854 0.930 . S
N827 C826 1.373 . S
N827 C829 1.340 . S
N828 C825 1.368 . S
N828 C829 1.321 . S
N828 Co831 2.135 . S
C829 N827 1.340 . S
C829 N828 1.321 . S
C829 H853 0.930 . S
H830 C825 0.931 . S
Co831 N828 2.135 . S
Co831 N834 2.121 . S
Co831 O839 2.055 . S
Co831 O842 2.039 . S
Co831 N845 2.140 . S
C832 O833 1.227 . S
C832 O842 1.265 . S
O833 C832 1.227 . S
N834 Co831 2.121 . S
N834 C836 1.375 . S
N834 C837 1.313 . S
C835 C836 1.338 . S
C835 N838 1.377 . S
C835 H855 0.930 . S
C836 N834 1.375 . S
C836 C835 1.338 . S
C836 H840 0.931 . S
C837 N834 1.313 . S
C837 N838 1.344 . S
C837 H841 0.930 . S
N838 C835 1.377 . S
N838 C837 1.344 . S
O839 Co831 2.055 . S
O839 C843 1.253 . S
H840 C836 0.931 . S
H841 C837 0.930 . S
O842 Co831 2.039 . S
O842 C832 1.265 . S
C843 O839 1.253 . S
C843 O844 1.227 . S
O844 C843 1.227 . S
N845 Co831 2.140 . S
N845 C848 1.346 . S
N845 C849 1.345 . S
C846 C847 1.387 . S
C846 C850 1.391 . S
C847 C846 1.387 . S
C847 C848 1.369 . S
C847 H856 0.929 . S
C848 N845 1.346 . S
C848 C847 1.369 . S
C848 H851 0.928 . S
C849 N845 1.345 . S
C849 C850 1.371 . S
C849 H852 0.931 . S
C850 C846 1.391 . S
C850 C849 1.371 . S
C850 H857 0.930 . S
H851 C848 0.928 . S
H852 C849 0.931 . S
H853 C829 0.930 . S
H854 C826 0.930 . S
H855 C835 0.930 . S
H856 C847 0.929 . S
H857 C850 0.930 . S
C858 C859 1.351 . S
C858 N861 1.368 . S
C858 H863 0.931 . S
C859 C858 1.351 . S
C859 N860 1.373 . S
C859 H887 0.930 . S
N860 C859 1.373 . S
N860 C862 1.340 . S
N861 C858 1.368 . S
N861 C862 1.321 . S
N861 Co864 2.135 . S
C862 N860 1.340 . S
C862 N861 1.321 . S
C862 H886 0.930 . S
H863 C858 0.931 . S
Co864 N861 2.135 . S
Co864 N867 2.121 . S
Co864 O872 2.055 . S
Co864 O875 2.039 . S
Co864 N878 2.140 . S
C865 O866 1.227 . S
C865 O875 1.265 . S
O866 C865 1.227 . S
N867 Co864 2.121 . S
N867 C869 1.375 . S
N867 C870 1.313 . S
C868 C869 1.338 . S
C868 N871 1.377 . S
C868 H888 0.930 . S
C869 N867 1.375 . S
C869 C868 1.338 . S
C869 H873 0.931 . S
C870 N867 1.313 . S
C870 N871 1.344 . S
C870 H874 0.930 . S
N871 C868 1.377 . S
N871 C870 1.344 . S
O872 Co864 2.055 . S
O872 C876 1.253 . S
H873 C869 0.931 . S
H874 C870 0.930 . S
O875 Co864 2.039 . S
O875 C865 1.265 . S
C876 O872 1.253 . S
C876 O877 1.227 . S
O877 C876 1.227 . S
N878 Co864 2.140 . S
N878 C881 1.346 . S
N878 C882 1.345 . S
C879 C880 1.387 . S
C879 C883 1.391 . S
C880 C879 1.387 . S
C880 C881 1.369 . S
C880 H889 0.929 . S
C881 N878 1.346 . S
C881 C880 1.369 . S
C881 H884 0.928 . S
C882 N878 1.345 . S
C882 C883 1.371 . S
C882 H885 0.931 . S
C883 C879 1.391 . S
C883 C882 1.371 . S
C883 H890 0.930 . S
H884 C881 0.928 . S
H885 C882 0.931 . S
H886 C862 0.930 . S
H887 C859 0.930 . S
H888 C868 0.930 . S
H889 C880 0.929 . S
H890 C883 0.930 . S
C891 C892 1.351 . S
C891 N894 1.368 . S
C891 H896 0.931 . S
C892 C891 1.351 . S
C892 N893 1.373 . S
C892 H920 0.930 . S
N893 C892 1.373 . S
N893 C895 1.340 . S
N894 C891 1.368 . S
N894 C895 1.321 . S
N894 Co897 2.135 . S
C895 N893 1.340 . S
C895 N894 1.321 . S
C895 H919 0.930 . S
H896 C891 0.931 . S
Co897 N894 2.135 . S
Co897 N900 2.121 . S
Co897 O905 2.055 . S
Co897 O908 2.039 . S
Co897 N911 2.140 . S
C898 O899 1.227 . S
C898 O908 1.265 . S
O899 C898 1.227 . S
N900 Co897 2.121 . S
N900 C902 1.375 . S
N900 C903 1.313 . S
C901 C902 1.338 . S
C901 N904 1.377 . S
C901 H921 0.930 . S
C902 N900 1.375 . S
C902 C901 1.338 . S
C902 H906 0.931 . S
C903 N900 1.313 . S
C903 N904 1.344 . S
C903 H907 0.930 . S
N904 C901 1.377 . S
N904 C903 1.344 . S
O905 Co897 2.055 . S
O905 C909 1.253 . S
H906 C902 0.931 . S
H907 C903 0.930 . S
O908 Co897 2.039 . S
O908 C898 1.265 . S
C909 O905 1.253 . S
C909 O910 1.227 . S
O910 C909 1.227 . S
N911 Co897 2.140 . S
N911 C914 1.346 . S
N911 C915 1.345 . S
C912 C913 1.387 1_556 S
C912 C916 1.403 . S
C913 C912 1.387 1_554 S
C913 C914 1.369 . S
C913 H922 0.929 . S
C914 N911 1.346 . S
C914 C913 1.369 . S
C914 H917 0.928 . S
C915 N911 1.345 . S
C915 C916 1.332 1_554 S
C915 H918 0.931 . S
C916 C912 1.403 . S
C916 C915 1.332 1_556 S
C916 H923 0.959 . S
H917 C914 0.928 . S
H918 C915 0.931 . S
H919 C895 0.930 . S
H920 C892 0.930 . S
H921 C901 0.930 . S
H922 C913 0.929 . S
H923 C916 0.959 . S
C924 C925 1.351 . S
C924 N927 1.368 . S
C924 H929 0.931 . S
C925 C924 1.351 . S
C925 N926 1.373 . S
C925 H953 0.930 . S
N926 C925 1.373 . S
N926 C928 1.340 . S
N927 C924 1.368 . S
N927 C928 1.321 . S
N927 Co930 2.135 . S
C928 N926 1.340 . S
C928 N927 1.321 . S
C928 H952 0.930 . S
H929 C924 0.931 . S
Co930 N927 2.135 . S
Co930 N933 2.121 . S
Co930 O938 2.055 . S
Co930 O941 2.039 . S
Co930 N944 2.140 . S
C931 O932 1.227 . S
C931 O941 1.265 . S
O932 C931 1.227 . S
N933 Co930 2.121 . S
N933 C935 1.375 . S
N933 C936 1.313 . S
C934 C935 1.338 . S
C934 N937 1.377 . S
C934 H954 0.930 . S
C935 N933 1.375 . S
C935 C934 1.338 . S
C935 H939 0.931 . S
C936 N933 1.313 . S
C936 N937 1.344 . S
C936 H940 0.930 . S
N937 C934 1.377 . S
N937 C936 1.344 . S
O938 Co930 2.055 . S
O938 C942 1.253 . S
H939 C935 0.931 . S
H940 C936 0.930 . S
O941 Co930 2.039 . S
O941 C931 1.265 . S
C942 O938 1.253 . S
C942 O943 1.227 . S
O943 C942 1.227 . S
N944 Co930 2.140 . S
N944 C947 1.346 . S
N944 C948 1.345 . S
C945 C946 1.387 1_556 S
C945 C949 1.403 . S
C946 C945 1.387 1_554 S
C946 C947 1.369 . S
C946 H955 0.929 . S
C947 N944 1.346 . S
C947 C946 1.369 . S
C947 H950 0.928 . S
C948 N944 1.345 . S
C948 C949 1.332 1_554 S
C948 H951 0.931 . S
C949 C945 1.403 . S
C949 C948 1.332 1_556 S
C949 H956 0.959 . S
H950 C947 0.928 . S
H951 C948 0.931 . S
H952 C928 0.930 . S
H953 C925 0.930 . S
H954 C934 0.930 . S
H955 C946 0.929 . S
H956 C949 0.959 . S
C957 C958 1.351 . S
C957 N960 1.368 . S
C957 H962 0.931 . S
C958 C957 1.351 . S
C958 N959 1.373 . S
C958 H986 0.930 . S
N959 C958 1.373 . S
N959 C961 1.340 . S
N960 C957 1.368 . S
N960 C961 1.321 . S
N960 Co963 2.135 . S
C961 N959 1.340 . S
C961 N960 1.321 . S
C961 H985 0.930 . S
H962 C957 0.931 . S
Co963 N960 2.135 . S
Co963 N966 2.121 . S
Co963 O971 2.055 . S
Co963 O974 2.039 . S
Co963 N977 2.140 . S
C964 O965 1.227 . S
C964 O974 1.265 . S
O965 C964 1.227 . S
N966 Co963 2.121 . S
N966 C968 1.375 . S
N966 C969 1.313 . S
C967 C968 1.338 . S
C967 N970 1.377 . S
C967 H987 0.930 . S
C968 N966 1.375 . S
C968 C967 1.338 . S
C968 H972 0.931 . S
C969 N966 1.313 . S
C969 N970 1.344 . S
C969 H973 0.930 . S
N970 C967 1.377 . S
N970 C969 1.344 . S
O971 Co963 2.055 . S
O971 C975 1.253 . S
H972 C968 0.931 . S
H973 C969 0.930 . S
O974 Co963 2.039 . S
O974 C964 1.265 . S
C975 O971 1.253 . S
C975 O976 1.227 . S
O976 C975 1.227 . S
N977 Co963 2.140 . S
N977 C980 1.346 . S
N977 C981 1.345 . S
C978 C979 1.387 1_556 S
C978 C982 1.403 . S
C979 C978 1.387 1_554 S
C979 C980 1.369 . S
C979 H988 0.929 . S
C980 N977 1.346 . S
C980 C979 1.369 . S
C980 H983 0.928 . S
C981 N977 1.345 . S
C981 C982 1.332 1_554 S
C981 H984 0.931 . S
C982 C978 1.403 . S
C982 C981 1.332 1_556 S
C982 H989 0.959 . S
H983 C980 0.928 . S
H984 C981 0.931 . S
H985 C961 0.930 . S
H986 C958 0.930 . S
H987 C967 0.930 . S
H988 C979 0.929 . S
H989 C982 0.959 . S
C990 C991 1.351 . S
C990 N993 1.368 . S
C990 H995 0.931 . S
C991 C990 1.351 . S
C991 N992 1.373 . S
C991 H1019 0.930 . S
N992 C991 1.373 . S
N992 C994 1.340 . S
N993 C990 1.368 . S
N993 C994 1.321 . S
N993 Co996 2.135 . S
C994 N992 1.340 . S
C994 N993 1.321 . S
C994 H1018 0.930 . S
H995 C990 0.931 . S
Co996 N993 2.135 . S
Co996 N999 2.121 . S
Co996 O1004 2.055 . S
Co996 O1007 2.039 . S
Co996 N1010 2.140 . S
C997 O998 1.227 . S
C997 O1007 1.265 . S
O998 C997 1.227 . S
N999 Co996 2.121 . S
N999 C1001 1.375 . S
N999 C1002 1.313 . S
C1000 C1001 1.338 . S
C1000 N1003 1.377 . S
C1000 H1020 0.930 . S
C1001 N999 1.375 . S
C1001 C1000 1.338 . S
C1001 H1005 0.931 . S
C1002 N999 1.313 . S
C1002 N1003 1.344 . S
C1002 H1006 0.930 . S
N1003 C1000 1.377 . S
N1003 C1002 1.344 . S
O1004 Co996 2.055 . S
O1004 C1008 1.253 . S
H1005 C1001 0.931 . S
H1006 C1002 0.930 . S
O1007 Co996 2.039 . S
O1007 C997 1.265 . S
C1008 O1004 1.253 . S
C1008 O1009 1.227 . S
O1009 C1008 1.227 . S
N1010 Co996 2.140 . S
N1010 C1013 1.346 . S
N1010 C1014 1.345 . S
C1011 C1012 1.387 . S
C1011 C1015 1.391 . S
C1012 C1011 1.387 . S
C1012 C1013 1.369 . S
C1012 H1021 0.929 . S
C1013 N1010 1.346 . S
C1013 C1012 1.369 . S
C1013 H1016 0.928 . S
C1014 N1010 1.345 . S
C1014 C1015 1.371 . S
C1014 H1017 0.931 . S
C1015 C1011 1.391 . S
C1015 C1014 1.371 . S
C1015 H1022 0.930 . S
H1016 C1013 0.928 . S
H1017 C1014 0.931 . S
H1018 C994 0.930 . S
H1019 C991 0.930 . S
H1020 C1000 0.930 . S
H1021 C1012 0.929 . S
H1022 C1015 0.930 . S
C1023 C1024 1.351 . S
C1023 N1026 1.368 . S
C1023 H1028 0.931 . S
C1024 C1023 1.351 . S
C1024 N1025 1.373 . S
C1024 H1052 0.930 . S
N1025 C1024 1.373 . S
N1025 C1027 1.340 . S
N1026 C1023 1.368 . S
N1026 C1027 1.321 . S
N1026 Co1029 2.135 . S
C1027 N1025 1.340 . S
C1027 N1026 1.321 . S
C1027 H1051 0.930 . S
H1028 C1023 0.931 . S
Co1029 N1026 2.135 . S
Co1029 N1032 2.121 . S
Co1029 O1037 2.055 . S
Co1029 O1040 2.039 . S
Co1029 N1043 2.140 . S
C1030 O1031 1.227 . S
C1030 O1040 1.265 . S
O1031 C1030 1.227 . S
N1032 Co1029 2.121 . S
N1032 C1034 1.375 . S
N1032 C1035 1.313 . S
C1033 C1034 1.338 . S
C1033 N1036 1.377 . S
C1033 H1053 0.930 . S
C1034 N1032 1.375 . S
C1034 C1033 1.338 . S
C1034 H1038 0.931 . S
C1035 N1032 1.313 . S
C1035 N1036 1.344 . S
C1035 H1039 0.930 . S
N1036 C1033 1.377 . S
N1036 C1035 1.344 . S
O1037 Co1029 2.055 . S
O1037 C1041 1.253 . S
H1038 C1034 0.931 . S
H1039 C1035 0.930 . S
O1040 Co1029 2.039 . S
O1040 C1030 1.265 . S
C1041 O1037 1.253 . S
C1041 O1042 1.227 . S
O1042 C1041 1.227 . S
N1043 Co1029 2.140 . S
N1043 C1046 1.346 . S
N1043 C1047 1.345 . S
C1044 C1045 1.387 . S
C1044 C1048 1.391 . S
C1045 C1044 1.387 . S
C1045 C1046 1.369 . S
C1045 H1054 0.929 . S
C1046 N1043 1.346 . S
C1046 C1045 1.369 . S
C1046 H1049 0.928 . S
C1047 N1043 1.345 . S
C1047 C1048 1.371 . S
C1047 H1050 0.931 . S
C1048 C1044 1.391 . S
C1048 C1047 1.371 . S
C1048 H1055 0.930 . S
H1049 C1046 0.928 . S
H1050 C1047 0.931 . S
H1051 C1027 0.930 . S
H1052 C1024 0.930 . S
H1053 C1033 0.930 . S
H1054 C1045 0.929 . S
H1055 C1048 0.930 . S
C1056 C1057 1.351 . S
C1056 N1059 1.368 . S
C1056 H1061 0.931 . S
C1057 C1056 1.351 . S
C1057 N1058 1.373 . S
C1057 H1085 0.930 . S
N1058 C1057 1.373 . S
N1058 C1060 1.340 . S
N1059 C1056 1.368 . S
N1059 C1060 1.321 . S
N1059 Co1062 2.135 . S
C1060 N1058 1.340 . S
C1060 N1059 1.321 . S
C1060 H1084 0.930 . S
H1061 C1056 0.931 . S
Co1062 N1059 2.135 . S
Co1062 N1065 2.121 . S
Co1062 O1070 2.055 . S
Co1062 O1073 2.039 . S
Co1062 N1076 2.140 . S
C1063 O1064 1.227 . S
C1063 O1073 1.265 . S
O1064 C1063 1.227 . S
N1065 Co1062 2.121 . S
N1065 C1067 1.375 . S
N1065 C1068 1.313 . S
C1066 C1067 1.338 . S
C1066 N1069 1.377 . S
C1066 H1086 0.930 . S
C1067 N1065 1.375 . S
C1067 C1066 1.338 . S
C1067 H1071 0.931 . S
C1068 N1065 1.313 . S
C1068 N1069 1.344 . S
C1068 H1072 0.930 . S
N1069 C1066 1.377 . S
N1069 C1068 1.344 . S
O1070 Co1062 2.055 . S
O1070 C1074 1.253 . S
H1071 C1067 0.931 . S
H1072 C1068 0.930 . S
O1073 Co1062 2.039 . S
O1073 C1063 1.265 . S
C1074 O1070 1.253 . S
C1074 O1075 1.227 . S
O1075 C1074 1.227 . S
N1076 Co1062 2.140 . S
N1076 C1079 1.346 . S
N1076 C1080 1.345 . S
C1077 C1078 1.387 . S
C1077 C1081 1.391 . S
C1078 C1077 1.387 . S
C1078 C1079 1.369 . S
C1078 H1087 0.929 . S
C1079 N1076 1.346 . S
C1079 C1078 1.369 . S
C1079 H1082 0.928 . S
C1080 N1076 1.345 . S
C1080 C1081 1.371 . S
C1080 H1083 0.931 . S
C1081 C1077 1.391 . S
C1081 C1080 1.371 . S
C1081 H1088 0.930 . S
H1082 C1079 0.928 . S
H1083 C1080 0.931 . S
H1084 C1060 0.930 . S
H1085 C1057 0.930 . S
H1086 C1066 0.930 . S
H1087 C1078 0.929 . S
H1088 C1081 0.930 . S
C1089 C1090 1.351 . S
C1089 N1092 1.368 . S
C1089 H1094 0.931 . S
C1090 C1089 1.351 . S
C1090 N1091 1.373 . S
C1090 H1118 0.930 . S
N1091 C1090 1.373 . S
N1091 C1093 1.340 . S
N1092 C1089 1.368 . S
N1092 C1093 1.321 . S
N1092 Co1095 2.135 . S
C1093 N1091 1.340 . S
C1093 N1092 1.321 . S
C1093 H1117 0.930 . S
H1094 C1089 0.931 . S
Co1095 N1092 2.135 . S
Co1095 N1098 2.121 . S
Co1095 O1103 2.055 . S
Co1095 O1106 2.039 . S
Co1095 N1109 2.140 . S
C1096 O1097 1.227 . S
C1096 O1106 1.265 . S
O1097 C1096 1.227 . S
N1098 Co1095 2.121 . S
N1098 C1100 1.375 . S
N1098 C1101 1.313 . S
C1099 C1100 1.338 . S
C1099 N1102 1.377 . S
C1099 H1119 0.930 . S
C1100 N1098 1.375 . S
C1100 C1099 1.338 . S
C1100 H1104 0.931 . S
C1101 N1098 1.313 . S
C1101 N1102 1.344 . S
C1101 H1105 0.930 . S
N1102 C1099 1.377 . S
N1102 C1101 1.344 . S
O1103 Co1095 2.055 . S
O1103 C1107 1.253 . S
H1104 C1100 0.931 . S
H1105 C1101 0.930 . S
O1106 Co1095 2.039 . S
O1106 C1096 1.265 . S
C1107 O1103 1.253 . S
C1107 O1108 1.227 . S
O1108 C1107 1.227 . S
N1109 Co1095 2.140 . S
N1109 C1112 1.346 . S
N1109 C1113 1.345 . S
C1110 C1111 1.387 . S
C1110 C1114 1.391 . S
C1111 C1110 1.387 . S
C1111 C1112 1.369 . S
C1111 H1120 0.929 . S
C1112 N1109 1.346 . S
C1112 C1111 1.369 . S
C1112 H1115 0.928 . S
C1113 N1109 1.345 . S
C1113 C1114 1.371 . S
C1113 H1116 0.931 . S
C1114 C1110 1.391 . S
C1114 C1113 1.371 . S
C1114 H1121 0.930 . S
H1115 C1112 0.928 . S
H1116 C1113 0.931 . S
H1117 C1093 0.930 . S
H1118 C1090 0.930 . S
H1119 C1099 0.930 . S
H1120 C1111 0.929 . S
H1121 C1114 0.930 . S
C1122 C1123 1.351 . S
C1122 N1125 1.368 . S
C1122 H1127 0.931 . S
C1123 C1122 1.351 . S
C1123 N1124 1.373 . S
C1123 H1151 0.930 . S
N1124 C1123 1.373 . S
N1124 C1126 1.340 . S
N1125 C1122 1.368 . S
N1125 C1126 1.321 . S
N1125 Co1128 2.135 . S
C1126 N1124 1.340 . S
C1126 N1125 1.321 . S
C1126 H1150 0.930 . S
H1127 C1122 0.931 . S
Co1128 N1125 2.135 . S
Co1128 N1131 2.121 . S
Co1128 O1136 2.055 . S
Co1128 O1139 2.039 . S
Co1128 N1142 2.140 . S
C1129 O1130 1.227 . S
C1129 O1139 1.265 . S
O1130 C1129 1.227 . S
N1131 Co1128 2.121 . S
N1131 C1133 1.375 . S
N1131 C1134 1.313 . S
C1132 C1133 1.338 . S
C1132 N1135 1.377 . S
C1132 H1152 0.930 . S
C1133 N1131 1.375 . S
C1133 C1132 1.338 . S
C1133 H1137 0.931 . S
C1134 N1131 1.313 . S
C1134 N1135 1.344 . S
C1134 H1138 0.930 . S
N1135 C1132 1.377 . S
N1135 C1134 1.344 . S
O1136 Co1128 2.055 . S
O1136 C1140 1.253 . S
H1137 C1133 0.931 . S
H1138 C1134 0.930 . S
O1139 Co1128 2.039 . S
O1139 C1129 1.265 . S
C1140 O1136 1.253 . S
C1140 O1141 1.227 . S
O1141 C1140 1.227 . S
N1142 Co1128 2.140 . S
N1142 C1145 1.346 . S
N1142 C1146 1.345 . S
C1143 C1144 1.387 . S
C1143 C1147 1.391 . S
C1144 C1143 1.387 . S
C1144 C1145 1.369 . S
C1144 H1153 0.929 . S
C1145 N1142 1.346 . S
C1145 C1144 1.369 . S
C1145 H1148 0.928 . S
C1146 N1142 1.345 . S
C1146 C1147 1.371 . S
C1146 H1149 0.931 . S
C1147 C1143 1.391 . S
C1147 C1146 1.371 . S
C1147 H1154 0.930 . S
H1148 C1145 0.928 . S
H1149 C1146 0.931 . S
H1150 C1126 0.930 . S
H1151 C1123 0.930 . S
H1152 C1132 0.930 . S
H1153 C1144 0.929 . S
H1154 C1147 0.930 . S
C1155 C1156 1.351 . S
C1155 N1158 1.368 . S
C1155 H1160 0.931 . S
C1156 C1155 1.351 . S
C1156 N1157 1.373 . S
C1156 H1184 0.930 . S
N1157 C1156 1.373 . S
N1157 C1159 1.340 . S
N1158 C1155 1.368 . S
N1158 C1159 1.321 . S
N1158 Co1161 2.135 . S
C1159 N1157 1.340 . S
C1159 N1158 1.321 . S
C1159 H1183 0.930 . S
H1160 C1155 0.931 . S
Co1161 N1158 2.135 . S
Co1161 N1164 2.121 . S
Co1161 O1169 2.055 . S
Co1161 O1172 2.039 . S
Co1161 N1175 2.140 . S
C1162 O1163 1.227 . S
C1162 O1172 1.265 . S
O1163 C1162 1.227 . S
N1164 Co1161 2.121 . S
N1164 C1166 1.375 . S
N1164 C1167 1.313 . S
C1165 C1166 1.338 . S
C1165 N1168 1.377 . S
C1165 H1185 0.930 . S
C1166 N1164 1.375 . S
C1166 C1165 1.338 . S
C1166 H1170 0.931 . S
C1167 N1164 1.313 . S
C1167 N1168 1.344 . S
C1167 H1171 0.930 . S
N1168 C1165 1.377 . S
N1168 C1167 1.344 . S
O1169 Co1161 2.055 . S
O1169 C1173 1.253 . S
H1170 C1166 0.931 . S
H1171 C1167 0.930 . S
O1172 Co1161 2.039 . S
O1172 C1162 1.265 . S
C1173 O1169 1.253 . S
C1173 O1174 1.227 . S
O1174 C1173 1.227 . S
N1175 Co1161 2.140 . S
N1175 C1178 1.346 . S
N1175 C1179 1.345 . S
C1176 C1177 1.387 . S
C1176 C1180 1.391 . S
C1177 C1176 1.387 . S
C1177 C1178 1.369 . S
C1177 H1186 0.929 . S
C1178 N1175 1.346 . S
C1178 C1177 1.369 . S
C1178 H1181 0.928 . S
C1179 N1175 1.345 . S
C1179 C1180 1.371 . S
C1179 H1182 0.931 . S
C1180 C1176 1.391 . S
C1180 C1179 1.371 . S
C1180 H1187 0.930 . S
H1181 C1178 0.928 . S
H1182 C1179 0.931 . S
H1183 C1159 0.930 . S
H1184 C1156 0.930 . S
H1185 C1165 0.930 . S
H1186 C1177 0.929 . S
H1187 C1180 0.930 . S
H1188 C1194 0.930 . S
H1189 C1198 0.930 . S
H1190 C1203 0.929 . S
H1191 C1201 0.929 . S
H1192 C1196 0.929 . S
H1193 C1202 0.929 . S
C1194 H1188 0.930 . S
C1194 C1195 1.367 . S
C1194 C1202 1.378 . S
C1195 C1194 1.367 . S
C1195 C1203 1.433 . S
C1196 H1192 0.929 . S
C1196 C1198 1.378 . S
C1196 C1200 1.350 . S
C1197 C1200 1.463 . S
C1197 C1202 1.350 . S
C1197 N1205 1.427 . S
C1198 H1189 0.930 . S
C1198 C1196 1.378 . S
C1198 C1199 1.367 . S
C1199 C1198 1.367 . S
C1199 C1201 1.433 . S
C1200 C1196 1.350 . S
C1200 C1197 1.463 . S
C1200 N1204 1.427 . S
C1201 H1191 0.929 . S
C1201 C1199 1.433 . S
C1201 N1204 1.384 . S
C1202 H1193 0.929 . S
C1202 C1194 1.378 . S
C1202 C1197 1.350 . S
C1203 H1190 0.929 . S
C1203 C1195 1.433 . S
C1203 N1205 1.384 . S
N1204 C1200 1.427 . S
N1204 C1201 1.384 . S
N1205 C1197 1.427 . S
N1205 C1203 1.384 . S
H1206 C1212 0.930 . S
H1207 C1216 0.930 . S
H1208 C1221 0.929 . S
H1209 C1219 0.929 . S
H1210 C1214 0.929 . S
H1211 C1220 0.929 . S
C1212 H1206 0.930 . S
C1212 C1213 1.367 . S
C1212 C1220 1.378 . S
C1213 C1212 1.367 . S
C1213 C1221 1.433 1_545 S
C1214 H1210 0.929 . S
C1214 C1216 1.378 . S
C1214 C1218 1.350 . S
C1215 C1218 1.463 1_545 S
C1215 C1220 1.350 . S
C1215 N1223 1.427 1_545 S
C1216 H1207 0.930 . S
C1216 C1214 1.378 . S
C1216 C1217 1.367 . S
C1217 C1216 1.367 . S
C1217 C1219 1.433 1_565 S
C1218 C1214 1.350 . S
C1218 C1215 1.463 1_565 S
C1218 N1222 1.427 1_565 S
C1219 H1209 0.929 . S
C1219 C1217 1.433 1_545 S
C1219 N1222 1.384 . S
C1220 H1211 0.929 . S
C1220 C1212 1.378 . S
C1220 C1215 1.350 . S
C1221 H1208 0.929 . S
C1221 C1213 1.433 1_565 S
C1221 N1223 1.384 . S
N1222 C1218 1.427 1_545 S
N1222 C1219 1.384 . S
N1223 C1215 1.427 1_565 S
N1223 C1221 1.384 . S
H1224 C1230 0.930 . S
H1225 C1234 0.930 . S
H1226 C1239 0.929 . S
H1227 C1237 0.929 . S
H1228 C1232 0.929 . S
H1229 C1238 0.929 . S
C1230 H1224 0.930 . S
C1230 C1231 1.367 . S
C1230 C1238 1.378 . S
C1231 C1230 1.367 . S
C1231 C1239 1.433 1_455 S
C1232 H1228 0.929 . S
C1232 C1234 1.378 . S
C1232 C1236 1.350 . S
C1233 C1236 1.463 1_455 S
C1233 C1238 1.350 . S
C1233 N1241 1.427 1_455 S
C1234 H1225 0.930 . S
C1234 C1232 1.378 . S
C1234 C1235 1.367 . S
C1235 C1234 1.367 . S
C1235 C1237 1.433 1_655 S
C1236 C1232 1.350 . S
C1236 C1233 1.463 1_655 S
C1236 N1240 1.427 1_655 S
C1237 H1227 0.929 . S
C1237 C1235 1.433 1_455 S
C1237 N1240 1.384 . S
C1238 H1229 0.929 . S
C1238 C1230 1.378 . S
C1238 C1233 1.350 . S
C1239 H1226 0.929 . S
C1239 C1231 1.433 1_655 S
C1239 N1241 1.384 . S
N1240 C1236 1.427 1_455 S
N1240 C1237 1.384 . S
N1241 C1233 1.427 1_655 S
N1241 C1239 1.384 . S
H1242 C1248 0.930 . S
H1243 C1252 0.930 . S
H1244 C1257 0.929 . S
H1245 C1255 0.929 . S
H1246 C1250 0.929 . S
H1247 C1256 0.929 . S
C1248 H1242 0.930 . S
C1248 C1249 1.367 . S
C1248 C1256 1.378 . S
C1249 C1248 1.367 . S
C1249 C1257 1.433 . S
C1250 H1246 0.929 . S
C1250 C1252 1.378 . S
C1250 C1254 1.350 . S
C1251 C1254 1.463 . S
C1251 C1256 1.350 . S
C1251 N1259 1.427 . S
C1252 H1243 0.930 . S
C1252 C1250 1.378 . S
C1252 C1253 1.367 . S
C1253 C1252 1.367 . S
C1253 C1255 1.433 . S
C1254 C1250 1.350 . S
C1254 C1251 1.463 . S
C1254 N1258 1.427 . S
C1255 H1245 0.929 . S
C1255 C1253 1.433 . S
C1255 N1258 1.384 . S
C1256 H1247 0.929 . S
C1256 C1248 1.378 . S
C1256 C1251 1.350 . S
C1257 H1244 0.929 . S
C1257 C1249 1.433 . S
C1257 N1259 1.384 . S
N1258 C1254 1.427 . S
N1258 C1255 1.384 . S
N1259 C1251 1.427 . S
N1259 C1257 1.384 . S
H1260 C1266 0.930 . S
H1261 C1270 0.930 . S
H1262 C1275 0.929 . S
H1263 C1273 0.929 . S
H1264 C1268 0.929 . S
H1265 C1274 0.929 . S
C1266 H1260 0.930 . S
C1266 C1267 1.367 1_545 S
C1266 C1274 1.378 . S
C1267 C1266 1.367 1_565 S
C1267 C1275 1.433 . S
C1268 H1264 0.929 . S
C1268 C1270 1.378 . S
C1268 C1272 1.317 1_565 S
C1269 C1272 1.460 1_565 S
C1269 C1274 1.317 1_565 S
C1269 N1277 1.467 . S
C1270 H1261 0.930 . S
C1270 C1268 1.378 . S
C1270 C1271 1.367 1_565 S
C1271 C1270 1.367 1_545 S
C1271 C1273 1.433 . S
C1272 C1268 1.317 1_545 S
C1272 C1269 1.460 1_545 S
C1272 N1276 1.467 . S
C1273 H1263 0.929 . S
C1273 C1271 1.433 . S
C1273 N1276 1.384 . S
C1274 H1265 0.929 . S
C1274 C1266 1.378 . S
C1274 C1269 1.317 1_545 S
C1275 H1262 0.929 . S
C1275 C1267 1.433 . S
C1275 N1277 1.384 . S
N1276 C1272 1.467 . S
N1276 C1273 1.384 . S
N1277 C1269 1.467 . S
N1277 C1275 1.384 . S
H1278 C1284 0.930 . S
H1279 C1288 0.930 . S
H1280 C1293 0.929 . S
H1281 C1291 0.929 . S
H1282 C1286 0.929 . S
H1283 C1292 0.929 . S
C1284 H1278 0.930 . S
C1284 C1285 1.367 . S
C1284 C1292 1.378 . S
C1285 C1284 1.367 . S
C1285 C1293 1.433 . S
C1286 H1282 0.929 . S
C1286 C1288 1.378 . S
C1286 C1290 1.350 . S
C1287 C1290 1.463 1_655 S
C1287 C1292 1.350 . S
C1287 N1295 1.427 . S
C1288 H1279 0.930 . S
C1288 C1286 1.378 . S
C1288 C1289 1.367 . S
C1289 C1288 1.367 . S
C1289 C1291 1.433 . S
C1290 C1286 1.350 . S
C1290 C1287 1.463 1_455 S
C1290 N1294 1.427 . S
C1291 H1281 0.929 . S
C1291 C1289 1.433 . S
C1291 N1294 1.384 . S
C1292 H1283 0.929 . S
C1292 C1284 1.378 . S
C1292 C1287 1.350 . S
C1293 H1280 0.929 . S
C1293 C1285 1.433 . S
C1293 N1295 1.384 . S
N1294 C1290 1.427 . S
N1294 C1291 1.384 . S
N1295 C1287 1.427 . S
N1295 C1293 1.384 . S
H1296 C1302 0.930 . S
H1297 C1306 0.930 . S
H1298 C1311 0.929 . S
H1299 C1309 0.929 . S
H1300 C1304 0.929 . S
H1301 C1310 0.929 . S
C1302 H1296 0.930 . S
C1302 C1303 1.367 . S
C1302 C1310 1.378 . S
C1303 C1302 1.367 . S
C1303 C1311 1.433 . S
C1304 H1300 0.929 . S
C1304 C1306 1.378 . S
C1304 C1308 1.350 . S
C1305 C1308 1.463 . S
C1305 C1310 1.350 . S
C1305 N1313 1.427 . S
C1306 H1297 0.930 . S
C1306 C1304 1.378 . S
C1306 C1307 1.367 . S
C1307 C1306 1.367 . S
C1307 C1309 1.433 . S
C1308 C1304 1.350 . S
C1308 C1305 1.463 . S
C1308 N1312 1.427 . S
C1309 H1299 0.929 . S
C1309 C1307 1.433 . S
C1309 N1312 1.384 . S
C1310 H1301 0.929 . S
C1310 C1302 1.378 . S
C1310 C1305 1.350 . S
C1311 H1298 0.929 . S
C1311 C1303 1.433 . S
C1311 N1313 1.384 . S
N1312 C1308 1.427 . S
N1312 C1309 1.384 . S
N1313 C1305 1.427 . S
N1313 C1311 1.384 . S
H1314 C1320 0.930 . S
H1315 C1324 0.930 . S
H1316 C1329 0.929 . S
H1317 C1327 0.929 . S
H1318 C1322 0.929 . S
H1319 C1328 0.929 . S
C1320 H1314 0.930 . S
C1320 C1321 1.367 . S
C1320 C1328 1.378 . S
C1321 C1320 1.367 . S
C1321 C1329 1.433 . S
C1322 H1318 0.929 . S
C1322 C1324 1.378 . S
C1322 C1326 1.350 . S
C1323 C1326 1.463 . S
C1323 C1328 1.350 . S
C1323 N1331 1.427 . S
C1324 H1315 0.930 . S
C1324 C1322 1.378 . S
C1324 C1325 1.367 . S
C1325 C1324 1.367 . S
C1325 C1327 1.433 . S
C1326 C1322 1.350 . S
C1326 C1323 1.463 . S
C1326 N1330 1.427 . S
C1327 H1317 0.929 . S
C1327 C1325 1.433 . S
C1327 N1330 1.384 . S
C1328 H1319 0.929 . S
C1328 C1320 1.378 . S
C1328 C1323 1.350 . S
C1329 H1316 0.929 . S
C1329 C1321 1.433 . S
C1329 N1331 1.384 . S
N1330 C1326 1.427 . S
N1330 C1327 1.384 . S
N1331 C1323 1.427 . S
N1331 C1329 1.384 . S
H1332 C1338 0.930 . S
H1333 C1342 0.930 . S
H1334 C1347 0.929 . S
H1335 C1345 0.929 . S
H1336 C1340 0.929 . S
H1337 C1346 0.929 . S
C1338 H1332 0.930 . S
C1338 C1339 1.367 . S
C1338 C1346 1.378 . S
C1339 C1338 1.367 . S
C1339 C1347 1.433 . S
C1340 H1336 0.929 . S
C1340 C1342 1.378 . S
C1340 C1344 1.350 . S
C1341 C1344 1.463 . S
C1341 C1346 1.350 . S
C1341 N1349 1.427 . S
C1342 H1333 0.930 . S
C1342 C1340 1.378 . S
C1342 C1343 1.367 . S
C1343 C1342 1.367 . S
C1343 C1345 1.433 . S
C1344 C1340 1.350 . S
C1344 C1341 1.463 . S
C1344 N1348 1.427 . S
C1345 H1335 0.929 . S
C1345 C1343 1.433 . S
C1345 N1348 1.384 . S
C1346 H1337 0.929 . S
C1346 C1338 1.378 . S
C1346 C1341 1.350 . S
C1347 H1334 0.929 . S
C1347 C1339 1.433 . S
C1347 N1349 1.384 . S
N1348 C1344 1.427 . S
N1348 C1345 1.384 . S
N1349 C1341 1.427 . S
N1349 C1347 1.384 . S
H1350 C1356 0.930 . S
H1351 C1360 0.930 . S
H1352 C1365 0.929 . S
H1353 C1363 0.929 . S
H1354 C1358 0.929 . S
H1355 C1364 0.929 . S
C1356 H1350 0.930 . S
C1356 C1357 1.367 . S
C1356 C1364 1.378 . S
C1357 C1356 1.367 . S
C1357 C1365 1.433 . S
C1358 H1354 0.929 . S
C1358 C1360 1.378 . S
C1358 C1362 1.350 . S
C1359 C1362 1.463 . S
C1359 C1364 1.350 . S
C1359 N1367 1.427 . S
C1360 H1351 0.930 . S
C1360 C1358 1.378 . S
C1360 C1361 1.367 . S
C1361 C1360 1.367 . S
C1361 C1363 1.433 . S
C1362 C1358 1.350 . S
C1362 C1359 1.463 . S
C1362 N1366 1.427 . S
C1363 H1353 0.929 . S
C1363 C1361 1.433 . S
C1363 N1366 1.384 . S
C1364 H1355 0.929 . S
C1364 C1356 1.378 . S
C1364 C1359 1.350 . S
C1365 H1352 0.929 . S
C1365 C1357 1.433 . S
C1365 N1367 1.384 . S
N1366 C1362 1.427 . S
N1366 C1363 1.384 . S
N1367 C1359 1.427 . S
N1367 C1365 1.384 . S
H1368 C1374 0.930 . S
H1369 C1378 0.930 . S
H1370 C1383 0.929 . S
H1371 C1381 0.929 . S
H1372 C1376 0.929 . S
H1373 C1382 0.929 . S
C1374 H1368 0.930 . S
C1374 C1375 1.367 . S
C1374 C1382 1.378 . S
C1375 C1374 1.367 . S
C1375 C1383 1.433 . S
C1376 H1372 0.929 . S
C1376 C1378 1.378 . S
C1376 C1380 1.350 . S
C1377 C1380 1.463 . S
C1377 C1382 1.350 . S
C1377 N1385 1.427 . S
C1378 H1369 0.930 . S
C1378 C1376 1.378 . S
C1378 C1379 1.367 . S
C1379 C1378 1.367 . S
C1379 C1381 1.433 . S
C1380 C1376 1.350 . S
C1380 C1377 1.463 . S
C1380 N1384 1.427 . S
C1381 H1371 0.929 . S
C1381 C1379 1.433 . S
C1381 N1384 1.384 . S
C1382 H1373 0.929 . S
C1382 C1374 1.378 . S
C1382 C1377 1.350 . S
C1383 H1370 0.929 . S
C1383 C1375 1.433 . S
C1383 N1385 1.384 . S
N1384 C1380 1.427 . S
N1384 C1381 1.384 . S
N1385 C1377 1.427 . S
N1385 C1383 1.384 . S
H1386 C1392 0.930 . S
H1387 C1396 0.930 . S
H1388 C1401 0.929 . S
H1389 C1399 0.929 . S
H1390 C1394 0.929 . S
H1391 C1400 0.929 . S
C1392 H1386 0.930 . S
C1392 C1393 1.367 . S
C1392 C1400 1.378 . S
C1393 C1392 1.367 . S
C1393 C1401 1.433 . S
C1394 H1390 0.929 . S
C1394 C1396 1.378 . S
C1394 C1398 1.350 . S
C1395 C1398 1.463 . S
C1395 C1400 1.350 . S
C1395 N1403 1.427 . S
C1396 H1387 0.930 . S
C1396 C1394 1.378 . S
C1396 C1397 1.367 . S
C1397 C1396 1.367 . S
C1397 C1399 1.433 . S
C1398 C1394 1.350 . S
C1398 C1395 1.463 . S
C1398 N1402 1.427 . S
C1399 H1389 0.929 . S
C1399 C1397 1.433 . S
C1399 N1402 1.384 . S
C1400 H1391 0.929 . S
C1400 C1392 1.378 . S
C1400 C1395 1.350 . S
C1401 H1388 0.929 . S
C1401 C1393 1.433 . S
C1401 N1403 1.384 . S
N1402 C1398 1.427 . S
N1402 C1399 1.384 . S
N1403 C1395 1.427 . S
N1403 C1401 1.384 . S
H1404 C1410 0.930 . S
H1405 C1414 0.930 . S
H1406 C1419 0.929 . S
H1407 C1417 0.929 . S
H1408 C1412 0.929 . S
H1409 C1418 0.929 . S
C1410 H1404 0.930 . S
C1410 C1411 1.367 . S
C1410 C1418 1.378 . S
C1411 C1410 1.367 . S
C1411 C1419 1.433 . S
C1412 H1408 0.929 . S
C1412 C1414 1.378 . S
C1412 C1416 1.350 . S
C1413 C1416 1.463 . S
C1413 C1418 1.350 . S
C1413 N1421 1.427 . S
C1414 H1405 0.930 . S
C1414 C1412 1.378 . S
C1414 C1415 1.367 . S
C1415 C1414 1.367 . S
C1415 C1417 1.433 . S
C1416 C1412 1.350 . S
C1416 C1413 1.463 . S
C1416 N1420 1.427 . S
C1417 H1407 0.929 . S
C1417 C1415 1.433 . S
C1417 N1420 1.384 . S
C1418 H1409 0.929 . S
C1418 C1410 1.378 . S
C1418 C1413 1.350 . S
C1419 H1406 0.929 . S
C1419 C1411 1.433 . S
C1419 N1421 1.384 . S
N1420 C1416 1.427 . S
N1420 C1417 1.384 . S
N1421 C1413 1.427 . S
N1421 C1419 1.384 . S
H1422 C1428 0.930 . S
H1423 C1432 0.930 . S
H1424 C1437 0.929 . S
H1425 C1435 0.929 . S
H1426 C1430 0.929 . S
H1427 C1436 0.929 . S
C1428 H1422 0.930 . S
C1428 C1429 1.367 . S
C1428 C1436 1.378 . S
C1429 C1428 1.367 . S
C1429 C1437 1.433 . S
C1430 H1426 0.929 . S
C1430 C1432 1.378 . S
C1430 C1434 1.350 . S
C1431 C1434 1.463 . S
C1431 C1436 1.350 . S
C1431 N1439 1.427 . S
C1432 H1423 0.930 . S
C1432 C1430 1.378 . S
C1432 C1433 1.367 . S
C1433 C1432 1.367 . S
C1433 C1435 1.433 . S
C1434 C1430 1.350 . S
C1434 C1431 1.463 . S
C1434 N1438 1.427 . S
C1435 H1425 0.929 . S
C1435 C1433 1.433 . S
C1435 N1438 1.384 . S
C1436 H1427 0.929 . S
C1436 C1428 1.378 . S
C1436 C1431 1.350 . S
C1437 H1424 0.929 . S
C1437 C1429 1.433 . S
C1437 N1439 1.384 . S
N1438 C1434 1.427 . S
N1438 C1435 1.384 . S
N1439 C1431 1.427 . S
N1439 C1437 1.384 . S
H1440 C1446 0.930 . S
H1441 C1450 0.930 . S
H1442 C1455 0.929 . S
H1443 C1453 0.929 . S
H1444 C1448 0.929 . S
H1445 C1454 0.929 . S
C1446 H1440 0.930 . S
C1446 C1447 1.367 . S
C1446 C1454 1.378 . S
C1447 C1446 1.367 . S
C1447 C1455 1.433 . S
C1448 H1444 0.929 . S
C1448 C1450 1.378 . S
C1448 C1452 1.350 . S
C1449 C1452 1.463 . S
C1449 C1454 1.350 . S
C1449 N1457 1.427 . S
C1450 H1441 0.930 . S
C1450 C1448 1.378 . S
C1450 C1451 1.367 . S
C1451 C1450 1.367 . S
C1451 C1453 1.433 . S
C1452 C1448 1.350 . S
C1452 C1449 1.463 . S
C1452 N1456 1.427 . S
C1453 H1443 0.929 . S
C1453 C1451 1.433 . S
C1453 N1456 1.384 . S
C1454 H1445 0.929 . S
C1454 C1446 1.378 . S
C1454 C1449 1.350 . S
C1455 H1442 0.929 . S
C1455 C1447 1.433 . S
C1455 N1457 1.384 . S
N1456 C1452 1.427 . S
N1456 C1453 1.384 . S
N1457 C1449 1.427 . S
N1457 C1455 1.384 . S
H1458 C1464 0.930 . S
H1459 C1468 0.930 . S
H1460 C1473 0.929 . S
H1461 C1471 0.929 . S
H1462 C1466 0.929 . S
H1463 C1472 0.929 . S
C1464 H1458 0.930 . S
C1464 C1465 1.367 . S
C1464 C1472 1.378 . S
C1465 C1464 1.367 . S
C1465 C1473 1.433 . S
C1466 H1462 0.929 . S
C1466 C1468 1.378 . S
C1466 C1470 1.350 . S
C1467 C1470 1.463 . S
C1467 C1472 1.350 . S
C1467 N1475 1.427 . S
C1468 H1459 0.930 . S
C1468 C1466 1.378 . S
C1468 C1469 1.367 . S
C1469 C1468 1.367 . S
C1469 C1471 1.433 . S
C1470 C1466 1.350 . S
C1470 C1467 1.463 . S
C1470 N1474 1.427 . S
C1471 H1461 0.929 . S
C1471 C1469 1.433 . S
C1471 N1474 1.384 . S
C1472 H1463 0.929 . S
C1472 C1464 1.378 . S
C1472 C1467 1.350 . S
C1473 H1460 0.929 . S
C1473 C1465 1.433 . S
C1473 N1475 1.384 . S
N1474 C1470 1.427 . S
N1474 C1471 1.384 . S
N1475 C1467 1.427 . S
N1475 C1473 1.384 . S
H1476 C1482 0.930 . S
H1477 C1486 0.930 . S
H1478 C1491 0.929 . S
H1479 C1489 0.929 . S
H1480 C1484 0.929 . S
H1481 C1490 0.929 . S
C1482 H1476 0.930 . S
C1482 C1483 1.367 . S
C1482 C1490 1.378 . S
C1483 C1482 1.367 . S
C1483 C1491 1.433 . S
C1484 H1480 0.929 . S
C1484 C1486 1.378 . S
C1484 C1488 1.350 . S
C1485 C1488 1.463 . S
C1485 C1490 1.350 . S
C1485 N1493 1.427 . S
C1486 H1477 0.930 . S
C1486 C1484 1.378 . S
C1486 C1487 1.367 . S
C1487 C1486 1.367 . S
C1487 C1489 1.433 . S
C1488 C1484 1.350 . S
C1488 C1485 1.463 . S
C1488 N1492 1.427 . S
C1489 H1479 0.929 . S
C1489 C1487 1.433 . S
C1489 N1492 1.384 . S
C1490 H1481 0.929 . S
C1490 C1482 1.378 . S
C1490 C1485 1.350 . S
C1491 H1478 0.929 . S
C1491 C1483 1.433 . S
C1491 N1493 1.384 . S
N1492 C1488 1.427 . S
N1492 C1489 1.384 . S
N1493 C1485 1.427 . S
N1493 C1491 1.384 . S
H1494 C1500 0.930 . S
H1495 C1504 0.930 . S
H1496 C1509 0.929 . S
H1497 C1507 0.929 . S
H1498 C1502 0.929 . S
H1499 C1508 0.929 . S
C1500 H1494 0.930 . S
C1500 C1501 1.367 . S
C1500 C1508 1.378 . S
C1501 C1500 1.367 . S
C1501 C1509 1.433 . S
C1502 H1498 0.929 . S
C1502 C1504 1.378 . S
C1502 C1506 1.350 . S
C1503 C1506 1.463 . S
C1503 C1508 1.350 . S
C1503 N1511 1.427 . S
C1504 H1495 0.930 . S
C1504 C1502 1.378 . S
C1504 C1505 1.367 . S
C1505 C1504 1.367 . S
C1505 C1507 1.433 . S
C1506 C1502 1.350 . S
C1506 C1503 1.463 . S
C1506 N1510 1.427 . S
C1507 H1497 0.929 . S
C1507 C1505 1.433 . S
C1507 N1510 1.384 . S
C1508 H1499 0.929 . S
C1508 C1500 1.378 . S
C1508 C1503 1.350 . S
C1509 H1496 0.929 . S
C1509 C1501 1.433 . S
C1509 N1511 1.384 . S
N1510 C1506 1.427 . S
N1510 C1507 1.384 . S
N1511 C1503 1.427 . S
N1511 C1509 1.384 . S
H1512 C1518 0.930 . S
H1513 C1522 0.930 . S
H1514 C1527 0.929 . S
H1515 C1525 0.929 . S
H1516 C1520 0.929 . S
H1517 C1526 0.929 . S
C1518 H1512 0.930 . S
C1518 C1519 1.367 . S
C1518 C1526 1.378 . S
C1519 C1518 1.367 . S
C1519 C1527 1.433 . S
C1520 H1516 0.929 . S
C1520 C1522 1.378 . S
C1520 C1524 1.350 . S
C1521 C1524 1.463 . S
C1521 C1526 1.350 . S
C1521 N1529 1.427 . S
C1522 H1513 0.930 . S
C1522 C1520 1.378 . S
C1522 C1523 1.367 . S
C1523 C1522 1.367 . S
C1523 C1525 1.433 . S
C1524 C1520 1.350 . S
C1524 C1521 1.463 . S
C1524 N1528 1.427 . S
C1525 H1515 0.929 . S
C1525 C1523 1.433 . S
C1525 N1528 1.384 . S
C1526 H1517 0.929 . S
C1526 C1518 1.378 . S
C1526 C1521 1.350 . S
C1527 H1514 0.929 . S
C1527 C1519 1.433 . S
C1527 N1529 1.384 . S
N1528 C1524 1.427 . S
N1528 C1525 1.384 . S
N1529 C1521 1.427 . S
N1529 C1527 1.384 . S
H1530 C1536 0.930 . S
H1531 C1540 0.930 . S
H1532 C1545 0.929 . S
H1533 C1543 0.929 . S
H1534 C1538 0.918 1_545 S
H1535 C1544 0.929 . S
C1536 H1530 0.930 . S
C1536 C1537 1.367 . S
C1536 C1544 1.378 . S
C1537 C1536 1.367 . S
C1537 C1545 1.433 . S
C1538 H1534 0.918 1_565 S
C1538 C1540 1.378 1_565 S
C1538 C1542 1.350 . S
C1539 C1542 1.463 . S
C1539 C1544 1.350 . S
C1539 N1547 1.427 . S
C1540 H1531 0.930 . S
C1540 C1538 1.378 1_545 S
C1540 C1541 1.372 . S
C1541 C1540 1.372 . S
C1541 C1543 1.428 1_545 S
C1542 C1538 1.350 . S
C1542 C1539 1.463 . S
C1542 N1546 1.427 . S
C1543 H1533 0.929 . S
C1543 C1541 1.428 1_565 S
C1543 N1546 1.384 . S
C1544 H1535 0.929 . S
C1544 C1536 1.378 . S
C1544 C1539 1.350 . S
C1545 H1532 0.929 . S
C1545 C1537 1.433 . S
C1545 N1547 1.384 . S
N1546 C1542 1.427 . S
N1546 C1543 1.384 . S
N1547 C1539 1.427 . S
N1547 C1545 1.384 . S
H1548 C1554 0.930 . S
H1549 C1558 0.930 . S
H1550 C1563 0.929 . S
H1551 C1561 0.929 . S
H1552 C1556 0.929 . S
H1553 C1562 0.929 1_655 S
C1554 H1548 0.930 . S
C1554 C1555 1.366 . S
C1554 C1562 1.378 1_655 S
C1555 C1554 1.366 . S
C1555 C1563 1.426 1_655 S
C1556 H1552 0.929 . S
C1556 C1558 1.378 . S
C1556 C1560 1.350 . S
C1557 C1560 1.463 . S
C1557 C1562 1.350 . S
C1557 N1565 1.427 . S
C1558 H1549 0.930 . S
C1558 C1556 1.378 . S
C1558 C1559 1.367 . S
C1559 C1558 1.367 . S
C1559 C1561 1.433 . S
C1560 C1556 1.350 . S
C1560 C1557 1.463 . S
C1560 N1564 1.427 . S
C1561 H1551 0.929 . S
C1561 C1559 1.433 . S
C1561 N1564 1.384 . S
C1562 H1553 0.929 1_455 S
C1562 C1554 1.378 1_455 S
C1562 C1557 1.350 . S
C1563 H1550 0.929 . S
C1563 C1555 1.426 1_455 S
C1563 N1565 1.384 . S
N1564 C1560 1.427 . S
N1564 C1561 1.384 . S
N1565 C1557 1.427 . S
N1565 C1563 1.384 . S
H1566 C1572 0.930 . S
H1567 C1576 0.930 . S
H1568 C1581 0.929 . S
H1569 C1579 0.929 . S
H1570 C1574 0.929 . S
H1571 C1580 0.929 . S
C1572 H1566 0.930 . S
C1572 C1573 1.367 . S
C1572 C1580 1.378 . S
C1573 C1572 1.367 . S
C1573 C1581 1.433 . S
C1574 H1570 0.929 . S
C1574 C1576 1.378 . S
C1574 C1578 1.350 . S
C1575 C1578 1.463 . S
C1575 C1580 1.350 . S
C1575 N1583 1.427 . S
C1576 H1567 0.930 . S
C1576 C1574 1.378 . S
C1576 C1577 1.367 . S
C1577 C1576 1.367 . S
C1577 C1579 1.433 . S
C1578 C1574 1.350 . S
C1578 C1575 1.463 . S
C1578 N1582 1.427 . S
C1579 H1569 0.929 . S
C1579 C1577 1.433 . S
C1579 N1582 1.384 . S
C1580 H1571 0.929 . S
C1580 C1572 1.378 . S
C1580 C1575 1.350 . S
C1581 H1568 0.929 . S
C1581 C1573 1.433 . S
C1581 N1583 1.384 . S
N1582 C1578 1.427 . S
N1582 C1579 1.384 . S
N1583 C1575 1.427 . S
N1583 C1581 1.384 . S
H1584 C1590 0.930 . S
H1585 C1594 0.930 . S
H1586 C1599 0.929 . S
H1587 C1597 0.929 . S
H1588 C1592 0.929 . S
H1589 C1598 0.929 . S
C1590 H1584 0.930 . S
C1590 C1591 1.367 . S
C1590 C1598 1.397 . S
C1591 C1590 1.367 . S
C1591 C1599 1.421 1_565 S
C1592 H1588 0.929 . S
C1592 C1594 1.378 . S
C1592 C1596 1.350 . S
C1593 C1596 1.463 . S
C1593 C1598 1.331 1_545 S
C1593 N1601 1.427 . S
C1594 H1585 0.930 . S
C1594 C1592 1.378 . S
C1594 C1595 1.367 . S
C1595 C1594 1.367 . S
C1595 C1597 1.433 . S
C1596 C1592 1.350 . S
C1596 C1593 1.463 . S
C1596 N1600 1.427 . S
C1597 H1587 0.929 . S
C1597 C1595 1.433 . S
C1597 N1600 1.384 . S
C1598 H1589 0.929 . S
C1598 C1590 1.397 . S
C1598 C1593 1.331 1_565 S
C1599 H1586 0.929 . S
C1599 C1591 1.421 1_545 S
C1599 N1601 1.384 . S
N1600 C1596 1.427 . S
N1600 C1597 1.384 . S
N1601 C1593 1.427 . S
N1601 C1599 1.384 . S
H1602 C1608 0.930 . S
H1603 C1612 0.930 . S
H1604 C1617 0.929 . S
H1605 C1615 0.929 . S
H1606 C1610 0.929 . S
H1607 C1616 0.929 . S
C1608 H1602 0.930 . S
C1608 C1609 1.367 . S
C1608 C1616 1.378 . S
C1609 C1608 1.367 . S
C1609 C1617 1.433 . S
C1610 H1606 0.929 . S
C1610 C1612 1.378 . S
C1610 C1614 1.350 . S
C1611 C1614 1.463 . S
C1611 C1616 1.350 . S
C1611 N1619 1.427 . S
C1612 H1603 0.930 . S
C1612 C1610 1.378 . S
C1612 C1613 1.371 . S
C1613 C1612 1.371 . S
C1613 C1615 1.429 1_655 S
C1614 C1610 1.350 . S
C1614 C1611 1.463 . S
C1614 N1618 1.427 . S
C1615 H1605 0.929 . S
C1615 C1613 1.429 1_455 S
C1615 N1618 1.384 1_455 S
C1616 H1607 0.929 . S
C1616 C1608 1.378 . S
C1616 C1611 1.350 . S
C1617 H1604 0.929 . S
C1617 C1609 1.433 . S
C1617 N1619 1.384 . S
N1618 C1614 1.427 . S
N1618 C1615 1.384 1_655 S
N1619 C1611 1.427 . S
N1619 C1617 1.384 . S
H1620 C1626 0.930 . S
H1621 C1630 0.930 . S
H1622 C1635 0.929 . S
H1623 C1633 0.929 . S
H1624 C1628 0.929 . S
H1625 C1634 0.929 . S
C1626 H1620 0.930 . S
C1626 C1627 1.367 . S
C1626 C1634 1.378 . S
C1627 C1626 1.367 . S
C1627 C1635 1.433 . S
C1628 H1624 0.929 . S
C1628 C1630 1.378 . S
C1628 C1632 1.350 . S
C1629 C1632 1.463 . S
C1629 C1634 1.350 . S
C1629 N1637 1.427 . S
C1630 H1621 0.930 . S
C1630 C1628 1.378 . S
C1630 C1631 1.367 . S
C1631 C1630 1.367 . S
C1631 C1633 1.433 . S
C1632 C1628 1.350 . S
C1632 C1629 1.463 . S
C1632 N1636 1.427 . S
C1633 H1623 0.929 . S
C1633 C1631 1.433 . S
C1633 N1636 1.384 . S
C1634 H1625 0.929 . S
C1634 C1626 1.378 . S
C1634 C1629 1.350 . S
C1635 H1622 0.929 . S
C1635 C1627 1.433 . S
C1635 N1637 1.384 . S
N1636 C1632 1.427 . S
N1636 C1633 1.384 . S
N1637 C1629 1.427 . S
N1637 C1635 1.384 . S
H1638 C1644 0.930 . S
H1639 C1648 0.930 . S
H1640 C1653 0.929 . S
H1641 C1651 0.929 1_565 S
H1642 C1646 0.929 . S
H1643 C1652 0.929 . S
C1644 H1638 0.930 . S
C1644 C1645 1.367 . S
C1644 C1652 1.378 . S
C1645 C1644 1.367 . S
C1645 C1653 1.433 . S
C1646 H1642 0.929 . S
C1646 C1648 1.378 . S
C1646 C1650 1.350 . S
C1647 C1650 1.463 . S
C1647 C1652 1.350 . S
C1647 N1655 1.427 . S
C1648 H1639 0.930 . S
C1648 C1646 1.378 . S
C1648 C1649 1.368 . S
C1649 C1648 1.368 . S
C1649 C1651 1.432 . S
C1650 C1646 1.350 . S
C1650 C1647 1.463 . S
C1650 N1654 1.427 . S
C1651 H1641 0.929 1_545 S
C1651 C1649 1.432 . S
C1651 N1654 1.384 . S
C1652 H1643 0.929 . S
C1652 C1644 1.378 . S
C1652 C1647 1.350 . S
C1653 H1640 0.929 . S
C1653 C1645 1.433 . S
C1653 N1655 1.384 . S
N1654 C1650 1.427 . S
N1654 C1651 1.384 . S
N1655 C1647 1.427 . S
N1655 C1653 1.384 . S
H1656 C1662 0.930 . S
H1657 C1666 0.930 . S
H1658 C1671 0.929 . S
H1659 C1669 0.929 . S
H1660 C1664 0.929 . S
H1661 C1670 0.929 . S
C1662 H1656 0.930 . S
C1662 C1663 1.367 . S
C1662 C1670 1.378 . S
C1663 C1662 1.367 . S
C1663 C1671 1.433 . S
C1664 H1660 0.929 . S
C1664 C1666 1.378 . S
C1664 C1668 1.350 . S
C1665 C1668 1.463 . S
C1665 C1670 1.350 . S
C1665 N1673 1.427 . S
C1666 H1657 0.930 . S
C1666 C1664 1.378 . S
C1666 C1667 1.367 . S
C1667 C1666 1.367 . S
C1667 C1669 1.433 . S
C1668 C1664 1.350 . S
C1668 C1665 1.463 . S
C1668 N1672 1.427 . S
C1669 H1659 0.929 . S
C1669 C1667 1.433 . S
C1669 N1672 1.384 . S
C1670 H1661 0.929 . S
C1670 C1662 1.378 . S
C1670 C1665 1.350 . S
C1671 H1658 0.929 . S
C1671 C1663 1.433 . S
C1671 N1673 1.384 . S
N1672 C1668 1.427 . S
N1672 C1669 1.384 . S
N1673 C1665 1.427 . S
N1673 C1671 1.384 . S
H1674 C1680 0.930 . S
H1675 C1684 0.930 . S
H1676 C1689 0.929 . S
H1677 C1687 0.929 . S
H1678 C1682 0.929 . S
H1679 C1688 0.929 . S
C1680 H1674 0.930 . S
C1680 C1681 1.367 . S
C1680 C1688 1.378 . S
C1681 C1680 1.367 . S
C1681 C1689 1.433 . S
C1682 H1678 0.929 . S
C1682 C1684 1.378 . S
C1682 C1686 1.350 . S
C1683 C1686 1.463 . S
C1683 C1688 1.350 . S
C1683 N1691 1.427 . S
C1684 H1675 0.930 . S
C1684 C1682 1.378 . S
C1684 C1685 1.367 . S
C1685 C1684 1.367 . S
C1685 C1687 1.433 . S
C1686 C1682 1.350 . S
C1686 C1683 1.463 . S
C1686 N1690 1.427 . S
C1687 H1677 0.929 . S
C1687 C1685 1.433 . S
C1687 N1690 1.384 . S
C1688 H1679 0.929 . S
C1688 C1680 1.378 . S
C1688 C1683 1.350 . S
C1689 H1676 0.929 . S
C1689 C1681 1.433 . S
C1689 N1691 1.384 . S
N1690 C1686 1.427 . S
N1690 C1687 1.384 . S
N1691 C1683 1.427 . S
N1691 C1689 1.384 . S
H1692 C1698 0.930 . S
H1693 C1702 0.930 . S
H1694 C1707 0.929 . S
H1695 C1705 0.929 . S
H1696 C1700 0.929 . S
H1697 C1706 0.929 . S
C1698 H1692 0.930 . S
C1698 C1699 1.367 . S
C1698 C1706 1.378 . S
C1699 C1698 1.367 . S
C1699 C1707 1.433 . S
C1700 H1696 0.929 . S
C1700 C1702 1.378 . S
C1700 C1704 1.350 . S
C1701 C1704 1.463 . S
C1701 C1706 1.350 . S
C1701 N1709 1.427 . S
C1702 H1693 0.930 . S
C1702 C1700 1.378 . S
C1702 C1703 1.377 . S
C1703 C1702 1.377 . S
C1703 C1705 1.435 1_565 S
C1704 C1700 1.350 . S
C1704 C1701 1.463 . S
C1704 N1708 1.427 . S
C1705 H1695 0.929 . S
C1705 C1703 1.435 1_545 S
C1705 N1708 1.384 1_545 S
C1706 H1697 0.929 . S
C1706 C1698 1.378 . S
C1706 C1701 1.350 . S
C1707 H1694 0.929 . S
C1707 C1699 1.433 . S
C1707 N1709 1.384 . S
N1708 C1704 1.427 . S
N1708 C1705 1.384 1_565 S
N1709 C1701 1.427 . S
N1709 C1707 1.384 . S
H1710 C1716 0.930 . S
H1711 C1720 0.930 . S
H1712 C1725 0.935 . S
H1713 C1723 0.929 . S
H1714 C1718 0.929 . S
H1715 C1724 0.929 . S
C1716 H1710 0.930 . S
C1716 C1717 1.370 . S
C1716 C1724 1.378 . S
C1717 C1716 1.370 . S
C1717 C1725 1.425 1_455 S
C1718 H1714 0.929 . S
C1718 C1720 1.378 . S
C1718 C1722 1.350 . S
C1719 C1722 1.463 . S
C1719 C1724 1.350 . S
C1719 N1727 1.427 . S
C1720 H1711 0.930 . S
C1720 C1718 1.378 . S
C1720 C1721 1.367 . S
C1721 C1720 1.367 . S
C1721 C1723 1.433 . S
C1722 C1718 1.350 . S
C1722 C1719 1.463 . S
C1722 N1726 1.427 . S
C1723 H1713 0.929 . S
C1723 C1721 1.433 . S
C1723 N1726 1.384 . S
C1724 H1715 0.929 . S
C1724 C1716 1.378 . S
C1724 C1719 1.350 . S
C1725 H1712 0.935 . S
C1725 C1717 1.425 1_655 S
C1725 N1727 1.384 1_655 S
N1726 C1722 1.427 . S
N1726 C1723 1.384 . S
N1727 C1719 1.427 . S
N1727 C1725 1.384 1_455 S
H1728 C1734 0.930 . S
H1729 C1738 0.930 . S
H1730 C1743 0.929 . S
H1731 C1741 0.929 . S
H1732 C1736 0.929 . S
H1733 C1742 0.929 . S
C1734 H1728 0.930 . S
C1734 C1735 1.367 . S
C1734 C1742 1.378 . S
C1735 C1734 1.367 . S
C1735 C1743 1.433 . S
C1736 H1732 0.929 . S
C1736 C1738 1.378 . S
C1736 C1740 1.350 . S
C1737 C1740 1.463 1_455 S
C1737 C1742 1.350 . S
C1737 N1745 1.427 . S
C1738 H1729 0.930 . S
C1738 C1736 1.378 . S
C1738 C1739 1.367 . S
C1739 C1738 1.367 . S
C1739 C1741 1.433 . S
C1740 C1736 1.350 . S
C1740 C1737 1.463 1_655 S
C1740 N1744 1.427 . S
C1741 H1731 0.929 . S
C1741 C1739 1.433 . S
C1741 N1744 1.384 . S
C1742 H1733 0.929 . S
C1742 C1734 1.378 . S
C1742 C1737 1.350 . S
C1743 H1730 0.929 . S
C1743 C1735 1.433 . S
C1743 N1745 1.384 . S
N1744 C1740 1.427 . S
N1744 C1741 1.384 . S
N1745 C1737 1.427 . S
N1745 C1743 1.384 . S
H1746 C1752 0.930 . S
H1747 C1756 0.930 . S
H1748 C1761 0.929 . S
H1749 C1759 0.929 . S
H1750 C1754 0.929 . S
H1751 C1760 0.929 . S
C1752 H1746 0.930 . S
C1752 C1753 1.367 . S
C1752 C1760 1.378 . S
C1753 C1752 1.367 . S
C1753 C1761 1.433 . S
C1754 H1750 0.929 . S
C1754 C1756 1.378 . S
C1754 C1758 1.350 . S
C1755 C1758 1.463 . S
C1755 C1760 1.350 . S
C1755 N1763 1.427 . S
C1756 H1747 0.930 . S
C1756 C1754 1.378 . S
C1756 C1757 1.367 . S
C1757 C1756 1.367 . S
C1757 C1759 1.433 . S
C1758 C1754 1.350 . S
C1758 C1755 1.463 . S
C1758 N1762 1.427 . S
C1759 H1749 0.929 . S
C1759 C1757 1.433 . S
C1759 N1762 1.384 . S
C1760 H1751 0.929 . S
C1760 C1752 1.378 . S
C1760 C1755 1.350 . S
C1761 H1748 0.929 . S
C1761 C1753 1.433 . S
C1761 N1763 1.384 . S
N1762 C1758 1.427 . S
N1762 C1759 1.384 . S
N1763 C1755 1.427 . S
N1763 C1761 1.384 . S
H1764 C1770 0.930 . S
H1765 C1774 0.930 . S
H1766 C1779 0.929 . S
H1767 C1777 0.929 . S
H1768 C1772 0.929 . S
H1769 C1778 0.929 . S
C1770 H1764 0.930 . S
C1770 C1771 1.367 . S
C1770 C1778 1.378 . S
C1771 C1770 1.367 . S
C1771 C1779 1.433 . S
C1772 H1768 0.929 . S
C1772 C1774 1.378 . S
C1772 C1776 1.350 . S
C1773 C1776 1.463 1_565 S
C1773 C1778 1.350 . S
C1773 N1781 1.427 . S
C1774 H1765 0.930 . S
C1774 C1772 1.378 . S
C1774 C1775 1.367 . S
C1775 C1774 1.367 . S
C1775 C1777 1.433 . S
C1776 C1772 1.350 . S
C1776 C1773 1.463 1_545 S
C1776 N1780 1.427 . S
C1777 H1767 0.929 . S
C1777 C1775 1.433 . S
C1777 N1780 1.384 . S
C1778 H1769 0.929 . S
C1778 C1770 1.378 . S
C1778 C1773 1.350 . S
C1779 H1766 0.929 . S
C1779 C1771 1.433 . S
C1779 N1781 1.384 . S
N1780 C1776 1.427 . S
N1780 C1777 1.384 . S
N1781 C1773 1.427 . S
N1781 C1779 1.384 . S
H1782 C1788 0.930 . S
H1783 C1792 0.930 . S
H1784 C1797 0.929 . S
H1785 C1795 0.929 . S
H1786 C1790 0.929 . S
H1787 C1796 0.929 . S
C1788 H1782 0.930 . S
C1788 C1789 1.367 . S
C1788 C1796 1.378 . S
C1789 C1788 1.367 . S
C1789 C1797 1.433 . S
C1790 H1786 0.929 . S
C1790 C1792 1.378 . S
C1790 C1794 1.350 . S
C1791 C1794 1.463 1_545 S
C1791 C1796 1.350 . S
C1791 N1799 1.427 . S
C1792 H1783 0.930 . S
C1792 C1790 1.378 . S
C1792 C1793 1.367 . S
C1793 C1792 1.367 . S
C1793 C1795 1.433 . S
C1794 C1790 1.350 . S
C1794 C1791 1.463 1_565 S
C1794 N1798 1.427 . S
C1795 H1785 0.929 . S
C1795 C1793 1.433 . S
C1795 N1798 1.384 . S
C1796 H1787 0.929 . S
C1796 C1788 1.378 . S
C1796 C1791 1.350 . S
C1797 H1784 0.929 . S
C1797 C1789 1.433 . S
C1797 N1799 1.384 . S
N1798 C1794 1.427 . S
N1798 C1795 1.384 . S
N1799 C1791 1.427 . S
N1799 C1797 1.384 . S
H1800 C1806 0.930 . S
H1801 C1810 0.930 . S
H1802 C1815 0.929 . S
H1803 C1813 0.929 . S
H1804 C1808 0.929 . S
H1805 C1814 0.929 . S
C1806 H1800 0.930 . S
C1806 C1807 1.367 . S
C1806 C1814 1.378 . S
C1807 C1806 1.367 . S
C1807 C1815 1.433 . S
C1808 H1804 0.929 . S
C1808 C1810 1.378 . S
C1808 C1812 1.350 . S
C1809 C1812 1.463 1_655 S
C1809 C1814 1.350 . S
C1809 N1817 1.427 . S
C1810 H1801 0.930 . S
C1810 C1808 1.378 . S
C1810 C1811 1.367 . S
C1811 C1810 1.367 . S
C1811 C1813 1.433 . S
C1812 C1808 1.350 . S
C1812 C1809 1.463 1_455 S
C1812 N1816 1.427 . S
C1813 H1803 0.929 . S
C1813 C1811 1.433 . S
C1813 N1816 1.384 . S
C1814 H1805 0.929 . S
C1814 C1806 1.378 . S
C1814 C1809 1.350 . S
C1815 H1802 0.929 . S
C1815 C1807 1.433 . S
C1815 N1817 1.384 . S
N1816 C1812 1.427 . S
N1816 C1813 1.384 . S
N1817 C1809 1.427 . S
N1817 C1815 1.384 . S
H1818 C1824 0.930 . S
H1819 C1828 0.930 . S
H1820 C1833 0.929 . S
H1821 C1831 0.929 . S
H1822 C1826 0.929 . S
H1823 C1832 0.929 . S
C1824 H1818 0.930 . S
C1824 C1825 1.367 . S
C1824 C1832 1.378 . S
C1825 C1824 1.367 . S
C1825 C1833 1.433 . S
C1826 H1822 0.929 . S
C1826 C1828 1.378 . S
C1826 C1830 1.350 . S
C1827 C1830 1.463 . S
C1827 C1832 1.350 . S
C1827 N1835 1.427 . S
C1828 H1819 0.930 . S
C1828 C1826 1.378 . S
C1828 C1829 1.367 . S
C1829 C1828 1.367 . S
C1829 C1831 1.433 . S
C1830 C1826 1.350 . S
C1830 C1827 1.463 . S
C1830 N1834 1.427 . S
C1831 H1821 0.929 . S
C1831 C1829 1.433 . S
C1831 N1834 1.384 . S
C1832 H1823 0.929 . S
C1832 C1824 1.378 . S
C1832 C1827 1.350 . S
C1833 H1820 0.929 . S
C1833 C1825 1.433 . S
C1833 N1835 1.384 . S
N1834 C1830 1.427 . S
N1834 C1831 1.384 . S
N1835 C1827 1.427 . S
N1835 C1833 1.384 . S
H1836 C1842 0.930 . S
H1837 C1846 0.930 . S
H1838 C1851 0.929 . S
H1839 C1849 0.929 . S
H1840 C1844 0.929 . S
H1841 C1850 0.929 . S
C1842 H1836 0.930 . S
C1842 C1843 1.367 . S
C1842 C1850 1.378 . S
C1843 C1842 1.367 . S
C1843 C1851 1.433 . S
C1844 H1840 0.929 . S
C1844 C1846 1.378 . S
C1844 C1848 1.350 . S
C1845 C1848 1.463 . S
C1845 C1850 1.350 . S
C1845 N1853 1.427 . S
C1846 H1837 0.930 . S
C1846 C1844 1.378 . S
C1846 C1847 1.367 . S
C1847 C1846 1.367 . S
C1847 C1849 1.433 . S
C1848 C1844 1.350 . S
C1848 C1845 1.463 . S
C1848 N1852 1.427 . S
C1849 H1839 0.929 . S
C1849 C1847 1.433 . S
C1849 N1852 1.384 . S
C1850 H1841 0.929 . S
C1850 C1842 1.378 . S
C1850 C1845 1.350 . S
C1851 H1838 0.929 . S
C1851 C1843 1.433 . S
C1851 N1853 1.384 . S
N1852 C1848 1.427 . S
N1852 C1849 1.384 . S
N1853 C1845 1.427 . S
N1853 C1851 1.384 . S
H1854 C1860 0.930 . S
H1855 C1864 0.930 . S
H1856 C1869 0.929 . S
H1857 C1867 0.929 . S
H1858 C1862 0.929 . S
H1859 C1868 0.929 . S
C1860 H1854 0.930 . S
C1860 C1861 1.367 . S
C1860 C1868 1.378 . S
C1861 C1860 1.367 . S
C1861 C1869 1.433 . S
C1862 H1858 0.929 . S
C1862 C1864 1.378 . S
C1862 C1866 1.350 . S
C1863 C1866 1.463 . S
C1863 C1868 1.350 . S
C1863 N1871 1.427 . S
C1864 H1855 0.930 . S
C1864 C1862 1.378 . S
C1864 C1865 1.367 . S
C1865 C1864 1.367 . S
C1865 C1867 1.433 . S
C1866 C1862 1.350 . S
C1866 C1863 1.463 . S
C1866 N1870 1.427 . S
C1867 H1857 0.929 . S
C1867 C1865 1.433 . S
C1867 N1870 1.384 . S
C1868 H1859 0.929 . S
C1868 C1860 1.378 . S
C1868 C1863 1.350 . S
C1869 H1856 0.929 . S
C1869 C1861 1.433 . S
C1869 N1871 1.384 . S
N1870 C1866 1.427 . S
N1870 C1867 1.384 . S
N1871 C1863 1.427 . S
N1871 C1869 1.384 . S
H1872 C1878 0.930 . S
H1873 C1882 0.930 . S
H1874 C1887 0.929 . S
H1875 C1885 0.929 . S
H1876 C1880 0.929 . S
H1877 C1886 0.929 . S
C1878 H1872 0.930 . S
C1878 C1879 1.367 . S
C1878 C1886 1.378 . S
C1879 C1878 1.367 . S
C1879 C1887 1.433 . S
C1880 H1876 0.929 . S
C1880 C1882 1.378 . S
C1880 C1884 1.350 . S
C1881 C1884 1.463 . S
C1881 C1886 1.350 . S
C1881 N1889 1.427 . S
C1882 H1873 0.930 . S
C1882 C1880 1.378 . S
C1882 C1883 1.367 . S
C1883 C1882 1.367 . S
C1883 C1885 1.433 . S
C1884 C1880 1.350 . S
C1884 C1881 1.463 . S
C1884 N1888 1.427 . S
C1885 H1875 0.929 . S
C1885 C1883 1.433 . S
C1885 N1888 1.384 . S
C1886 H1877 0.929 . S
C1886 C1878 1.378 . S
C1886 C1881 1.350 . S
C1887 H1874 0.929 . S
C1887 C1879 1.433 . S
C1887 N1889 1.384 . S
N1888 C1884 1.427 . S
N1888 C1885 1.384 . S
N1889 C1881 1.427 . S
N1889 C1887 1.384 . S
H1890 C1896 0.930 . S
H1891 C1900 0.930 . S
H1892 C1905 0.929 . S
H1893 C1903 0.929 . S
H1894 C1898 0.929 . S
H1895 C1904 0.929 . S
C1896 H1890 0.930 . S
C1896 C1897 1.367 . S
C1896 C1904 1.378 . S
C1897 C1896 1.367 . S
C1897 C1905 1.433 . S
C1898 H1894 0.929 . S
C1898 C1900 1.378 . S
C1898 C1902 1.350 . S
C1899 C1902 1.463 . S
C1899 C1904 1.350 . S
C1899 N1907 1.427 . S
C1900 H1891 0.930 . S
C1900 C1898 1.378 . S
C1900 C1901 1.367 . S
C1901 C1900 1.367 . S
C1901 C1903 1.433 . S
C1902 C1898 1.350 . S
C1902 C1899 1.463 . S
C1902 N1906 1.427 . S
C1903 H1893 0.929 . S
C1903 C1901 1.433 . S
C1903 N1906 1.384 . S
C1904 H1895 0.929 . S
C1904 C1896 1.378 . S
C1904 C1899 1.350 . S
C1905 H1892 0.929 . S
C1905 C1897 1.433 . S
C1905 N1907 1.384 . S
N1906 C1902 1.427 . S
N1906 C1903 1.384 . S
N1907 C1899 1.427 . S
N1907 C1905 1.384 . S
H1908 C1914 0.930 . S
H1909 C1918 0.930 . S
H1910 C1923 0.929 . S
H1911 C1921 0.929 . S
H1912 C1916 0.929 . S
H1913 C1922 0.929 . S
C1914 H1908 0.930 . S
C1914 C1915 1.367 . S
C1914 C1922 1.378 . S
C1915 C1914 1.367 . S
C1915 C1923 1.433 . S
C1916 H1912 0.929 . S
C1916 C1918 1.378 . S
C1916 C1920 1.350 . S
C1917 C1920 1.463 . S
C1917 C1922 1.350 . S
C1917 N1925 1.427 . S
C1918 H1909 0.930 . S
C1918 C1916 1.378 . S
C1918 C1919 1.367 . S
C1919 C1918 1.367 . S
C1919 C1921 1.433 . S
C1920 C1916 1.350 . S
C1920 C1917 1.463 . S
C1920 N1924 1.427 . S
C1921 H1911 0.929 . S
C1921 C1919 1.433 . S
C1921 N1924 1.384 . S
C1922 H1913 0.929 . S
C1922 C1914 1.378 . S
C1922 C1917 1.350 . S
C1923 H1910 0.929 . S
C1923 C1915 1.433 . S
C1923 N1925 1.384 . S
N1924 C1920 1.427 . S
N1924 C1921 1.384 . S
N1925 C1917 1.427 . S
N1925 C1923 1.384 . S
H1926 C1932 0.930 . S
H1927 C1936 0.930 . S
H1928 C1941 0.929 . S
H1929 C1939 0.929 . S
H1930 C1934 0.929 . S
H1931 C1940 0.929 . S
C1932 H1926 0.930 . S
C1932 C1933 1.367 . S
C1932 C1940 1.378 . S
C1933 C1932 1.367 . S
C1933 C1941 1.433 . S
C1934 H1930 0.929 . S
C1934 C1936 1.378 . S
C1934 C1938 1.350 . S
C1935 C1938 1.463 . S
C1935 C1940 1.350 . S
C1935 N1943 1.427 . S
C1936 H1927 0.930 . S
C1936 C1934 1.378 . S
C1936 C1937 1.367 . S
C1937 C1936 1.367 . S
C1937 C1939 1.433 . S
C1938 C1934 1.350 . S
C1938 C1935 1.463 . S
C1938 N1942 1.427 . S
C1939 H1929 0.929 . S
C1939 C1937 1.433 . S
C1939 N1942 1.384 . S
C1940 H1931 0.929 . S
C1940 C1932 1.378 . S
C1940 C1935 1.350 . S
C1941 H1928 0.929 . S
C1941 C1933 1.433 . S
C1941 N1943 1.384 . S
N1942 C1938 1.427 . S
N1942 C1939 1.384 . S
N1943 C1935 1.427 . S
N1943 C1941 1.384 . S
H1944 C1950 0.930 . S
H1945 C1954 0.930 . S
H1946 C1959 0.929 . S
H1947 C1957 0.929 . S
H1948 C1952 0.929 . S
H1949 C1958 0.929 . S
C1950 H1944 0.930 . S
C1950 C1951 1.367 . S
C1950 C1958 1.378 . S
C1951 C1950 1.367 . S
C1951 C1959 1.433 . S
C1952 H1948 0.929 . S
C1952 C1954 1.378 . S
C1952 C1956 1.350 . S
C1953 C1956 1.463 . S
C1953 C1958 1.350 . S
C1953 N1961 1.427 . S
C1954 H1945 0.930 . S
C1954 C1952 1.378 . S
C1954 C1955 1.367 . S
C1955 C1954 1.367 . S
C1955 C1957 1.433 . S
C1956 C1952 1.350 . S
C1956 C1953 1.463 . S
C1956 N1960 1.427 . S
C1957 H1947 0.929 . S
C1957 C1955 1.433 . S
C1957 N1960 1.384 . S
C1958 H1949 0.929 . S
C1958 C1950 1.378 . S
C1958 C1953 1.350 . S
C1959 H1946 0.929 . S
C1959 C1951 1.433 . S
C1959 N1961 1.384 . S
N1960 C1956 1.427 . S
N1960 C1957 1.384 . S
N1961 C1953 1.427 . S
N1961 C1959 1.384 . S
H1962 C1968 0.930 . S
H1963 C1972 0.930 . S
H1964 C1977 0.929 . S
H1965 C1975 0.929 . S
H1966 C1970 0.929 . S
H1967 C1976 0.929 . S
C1968 H1962 0.930 . S
C1968 C1969 1.367 . S
C1968 C1976 1.378 . S
C1969 C1968 1.367 . S
C1969 C1977 1.433 . S
C1970 H1966 0.929 . S
C1970 C1972 1.378 . S
C1970 C1974 1.350 . S
C1971 C1974 1.463 . S
C1971 C1976 1.350 . S
C1971 N1979 1.427 . S
C1972 H1963 0.930 . S
C1972 C1970 1.378 . S
C1972 C1973 1.367 . S
C1973 C1972 1.367 . S
C1973 C1975 1.433 . S
C1974 C1970 1.350 . S
C1974 C1971 1.463 . S
C1974 N1978 1.427 . S
C1975 H1965 0.929 . S
C1975 C1973 1.433 . S
C1975 N1978 1.384 . S
C1976 H1967 0.929 . S
C1976 C1968 1.378 . S
C1976 C1971 1.350 . S
C1977 H1964 0.929 . S
C1977 C1969 1.433 . S
C1977 N1979 1.384 . S
N1978 C1974 1.427 . S
N1978 C1975 1.384 . S
N1979 C1971 1.427 . S
N1979 C1977 1.384 . S
H1980 C1986 0.930 . S
H1981 C1990 0.930 . S
H1982 C1995 0.929 . S
H1983 C1993 0.929 . S
H1984 C1988 0.929 . S
H1985 C1994 0.929 . S
C1986 H1980 0.930 . S
C1986 C1987 1.367 . S
C1986 C1994 1.378 . S
C1987 C1986 1.367 . S
C1987 C1995 1.433 . S
C1988 H1984 0.929 . S
C1988 C1990 1.378 . S
C1988 C1992 1.350 . S
C1989 C1992 1.463 . S
C1989 C1994 1.350 . S
C1989 N1997 1.427 . S
C1990 H1981 0.930 . S
C1990 C1988 1.378 . S
C1990 C1991 1.367 . S
C1991 C1990 1.367 . S
C1991 C1993 1.433 . S
C1992 C1988 1.350 . S
C1992 C1989 1.463 . S
C1992 N1996 1.427 . S
C1993 H1983 0.929 . S
C1993 C1991 1.433 . S
C1993 N1996 1.384 . S
C1994 H1985 0.929 . S
C1994 C1986 1.378 . S
C1994 C1989 1.350 . S
C1995 H1982 0.929 . S
C1995 C1987 1.433 . S
C1995 N1997 1.384 . S
N1996 C1992 1.427 . S
N1996 C1993 1.384 . S
N1997 C1989 1.427 . S
N1997 C1995 1.384 . S
H1998 C2004 0.930 . S
H1999 C2008 0.930 . S
H2000 C2013 0.929 . S
H2001 C2011 0.929 . S
H2002 C2006 0.929 . S
H2003 C2012 0.929 . S
C2004 H1998 0.930 . S
C2004 C2005 1.367 . S
C2004 C2012 1.378 . S
C2005 C2004 1.367 . S
C2005 C2013 1.433 . S
C2006 H2002 0.929 . S
C2006 C2008 1.378 . S
C2006 C2010 1.350 . S
C2007 C2010 1.463 . S
C2007 C2012 1.350 . S
C2007 N2015 1.427 . S
C2008 H1999 0.930 . S
C2008 C2006 1.378 . S
C2008 C2009 1.367 . S
C2009 C2008 1.367 . S
C2009 C2011 1.433 . S
C2010 C2006 1.350 . S
C2010 C2007 1.463 . S
C2010 N2014 1.427 . S
C2011 H2001 0.929 . S
C2011 C2009 1.433 . S
C2011 N2014 1.384 . S
C2012 H2003 0.929 . S
C2012 C2004 1.378 . S
C2012 C2007 1.350 . S
C2013 H2000 0.929 . S
C2013 C2005 1.433 . S
C2013 N2015 1.384 . S
N2014 C2010 1.427 . S
N2014 C2011 1.384 . S
N2015 C2007 1.427 . S
N2015 C2013 1.384 . S
H2016 C2022 0.930 . S
H2017 C2026 0.930 . S
H2018 C2031 0.929 . S
H2019 C2029 0.929 . S
H2020 C2024 0.929 . S
H2021 C2030 0.929 . S
C2022 H2016 0.930 . S
C2022 C2023 1.367 . S
C2022 C2030 1.378 . S
C2023 C2022 1.367 . S
C2023 C2031 1.433 . S
C2024 H2020 0.929 . S
C2024 C2026 1.378 . S
C2024 C2028 1.350 . S
C2025 C2028 1.463 . S
C2025 C2030 1.350 . S
C2025 N2033 1.427 . S
C2026 H2017 0.930 . S
C2026 C2024 1.378 . S
C2026 C2027 1.367 . S
C2027 C2026 1.367 . S
C2027 C2029 1.433 . S
C2028 C2024 1.350 . S
C2028 C2025 1.463 . S
C2028 N2032 1.427 . S
C2029 H2019 0.929 . S
C2029 C2027 1.433 . S
C2029 N2032 1.384 . S
C2030 H2021 0.929 . S
C2030 C2022 1.378 . S
C2030 C2025 1.350 . S
C2031 H2018 0.929 . S
C2031 C2023 1.433 . S
C2031 N2033 1.384 . S
N2032 C2028 1.427 . S
N2032 C2029 1.384 . S
N2033 C2025 1.427 . S
N2033 C2031 1.384 . S
H2034 C2040 0.930 . S
H2035 C2044 0.930 . S
H2036 C2049 0.929 . S
H2037 C2047 0.929 . S
H2038 C2042 0.929 . S
H2039 C2048 0.929 . S
C2040 H2034 0.930 . S
C2040 C2041 1.367 . S
C2040 C2048 1.378 . S
C2041 C2040 1.367 . S
C2041 C2049 1.433 . S
C2042 H2038 0.929 . S
C2042 C2044 1.378 . S
C2042 C2046 1.350 . S
C2043 C2046 1.463 . S
C2043 C2048 1.350 . S
C2043 N2051 1.427 . S
C2044 H2035 0.930 . S
C2044 C2042 1.378 . S
C2044 C2045 1.367 . S
C2045 C2044 1.367 . S
C2045 C2047 1.433 . S
C2046 C2042 1.350 . S
C2046 C2043 1.463 . S
C2046 N2050 1.427 . S
C2047 H2037 0.929 . S
C2047 C2045 1.433 . S
C2047 N2050 1.384 . S
C2048 H2039 0.929 . S
C2048 C2040 1.378 . S
C2048 C2043 1.350 . S
C2049 H2036 0.929 . S
C2049 C2041 1.433 . S
C2049 N2051 1.384 . S
N2050 C2046 1.427 . S
N2050 C2047 1.384 . S
N2051 C2043 1.427 . S
N2051 C2049 1.384 . S
H2052 C2058 0.930 . S
H2053 C2062 0.930 . S
H2054 C2067 0.929 . S
H2055 C2065 0.929 . S
H2056 C2060 0.929 . S
H2057 C2066 0.929 . S
C2058 H2052 0.930 . S
C2058 C2059 1.367 . S
C2058 C2066 1.378 . S
C2059 C2058 1.367 . S
C2059 C2067 1.433 . S
C2060 H2056 0.929 . S
C2060 C2062 1.378 . S
C2060 C2064 1.350 . S
C2061 C2064 1.463 1_655 S
C2061 C2066 1.350 . S
C2061 N2069 1.427 . S
C2062 H2053 0.930 . S
C2062 C2060 1.378 . S
C2062 C2063 1.367 . S
C2063 C2062 1.367 . S
C2063 C2065 1.433 . S
C2064 C2060 1.350 . S
C2064 C2061 1.463 1_455 S
C2064 N2068 1.427 . S
C2065 H2055 0.929 . S
C2065 C2063 1.433 . S
C2065 N2068 1.384 . S
C2066 H2057 0.929 . S
C2066 C2058 1.378 . S
C2066 C2061 1.350 . S
C2067 H2054 0.929 . S
C2067 C2059 1.433 . S
C2067 N2069 1.384 . S
N2068 C2064 1.427 . S
N2068 C2065 1.384 . S
N2069 C2061 1.427 . S
N2069 C2067 1.384 . S
H2070 C2076 0.930 . S
H2071 C2080 0.930 . S
H2072 C2085 0.929 . S
H2073 C2083 0.929 . S
H2074 C2078 0.929 . S
H2075 C2084 0.929 . S
C2076 H2070 0.930 . S
C2076 C2077 1.367 . S
C2076 C2084 1.378 . S
C2077 C2076 1.367 . S
C2077 C2085 1.433 . S
C2078 H2074 0.929 . S
C2078 C2080 1.378 . S
C2078 C2082 1.350 . S
C2079 C2082 1.463 . S
C2079 C2084 1.350 . S
C2079 N2087 1.427 . S
C2080 H2071 0.930 . S
C2080 C2078 1.378 . S
C2080 C2081 1.367 . S
C2081 C2080 1.367 . S
C2081 C2083 1.433 . S
C2082 C2078 1.350 . S
C2082 C2079 1.463 . S
C2082 N2086 1.427 . S
C2083 H2073 0.929 . S
C2083 C2081 1.433 . S
C2083 N2086 1.384 . S
C2084 H2075 0.929 . S
C2084 C2076 1.378 . S
C2084 C2079 1.350 . S
C2085 H2072 0.929 . S
C2085 C2077 1.433 . S
C2085 N2087 1.384 . S
N2086 C2082 1.427 . S
N2086 C2083 1.384 . S
N2087 C2079 1.427 . S
N2087 C2085 1.384 . S
H2088 C2094 0.930 . S
H2089 C2098 0.930 . S
H2090 C2103 0.929 . S
H2091 C2101 0.929 . S
H2092 C2096 0.929 . S
H2093 C2102 0.929 . S
C2094 H2088 0.930 . S
C2094 C2095 1.367 . S
C2094 C2102 1.378 . S
C2095 C2094 1.367 . S
C2095 C2103 1.433 . S
C2096 H2092 0.929 . S
C2096 C2098 1.378 . S
C2096 C2100 1.350 . S
C2097 C2100 1.463 1_545 S
C2097 C2102 1.350 . S
C2097 N2105 1.427 . S
C2098 H2089 0.930 . S
C2098 C2096 1.378 . S
C2098 C2099 1.367 . S
C2099 C2098 1.367 . S
C2099 C2101 1.433 . S
C2100 C2096 1.350 . S
C2100 C2097 1.463 1_565 S
C2100 N2104 1.427 . S
C2101 H2091 0.929 . S
C2101 C2099 1.433 . S
C2101 N2104 1.384 . S
C2102 H2093 0.929 . S
C2102 C2094 1.378 . S
C2102 C2097 1.350 . S
C2103 H2090 0.929 . S
C2103 C2095 1.433 . S
C2103 N2105 1.384 . S
N2104 C2100 1.427 . S
N2104 C2101 1.384 . S
N2105 C2097 1.427 . S
N2105 C2103 1.384 . S
H2106 C2112 0.930 . S
H2107 C2116 0.930 . S
H2108 C2121 0.929 . S
H2109 C2119 0.929 . S
H2110 C2114 0.929 1_554 S
H2111 C2120 0.929 1_556 S
C2112 H2106 0.930 . S
C2112 C2113 1.367 . S
C2112 C2120 1.378 . S
C2113 C2112 1.367 . S
C2113 C2121 1.433 . S
C2114 H2110 0.929 1_556 S
C2114 C2116 1.378 . S
C2114 C2118 1.350 . S
C2115 C2118 1.463 1_564 S
C2115 C2120 1.350 . S
C2115 N2123 1.427 1_565 S
C2116 H2107 0.930 . S
C2116 C2114 1.378 . S
C2116 C2117 1.367 . S
C2117 C2116 1.367 . S
C2117 C2119 1.433 . S
C2118 C2114 1.350 . S
C2118 C2115 1.463 1_546 S
C2118 N2122 1.427 1_545 S
C2119 H2109 0.929 . S
C2119 C2117 1.433 . S
C2119 N2122 1.384 1_545 S
C2120 H2111 0.929 1_554 S
C2120 C2112 1.378 . S
C2120 C2115 1.350 . S
C2121 H2108 0.929 . S
C2121 C2113 1.433 . S
C2121 N2123 1.384 1_565 S
N2122 C2118 1.427 1_565 S
N2122 C2119 1.384 1_565 S
N2123 C2115 1.427 1_545 S
N2123 C2121 1.384 1_545 S
H2124 C2130 0.930 . S
H2125 C2134 0.930 . S
H2126 C2139 0.929 . S
H2127 C2137 0.929 . S
H2128 C2132 0.929 . S
H2129 C2138 0.929 . S
C2130 H2124 0.930 . S
C2130 C2131 1.367 . S
C2130 C2138 1.378 . S
C2131 C2130 1.367 . S
C2131 C2139 1.433 . S
C2132 H2128 0.929 . S
C2132 C2134 1.378 . S
C2132 C2136 1.350 . S
C2133 C2136 1.463 1_656 S
C2133 C2138 1.350 . S
C2133 N2141 1.427 . S
C2134 H2125 0.930 . S
C2134 C2132 1.378 . S
C2134 C2135 1.367 . S
C2135 C2134 1.367 . S
C2135 C2137 1.433 . S
C2136 C2132 1.350 . S
C2136 C2133 1.463 1_454 S
C2136 N2140 1.427 . S
C2137 H2127 0.929 . S
C2137 C2135 1.433 . S
C2137 N2140 1.384 . S
C2138 H2129 0.929 . S
C2138 C2130 1.378 . S
C2138 C2133 1.350 . S
C2139 H2126 0.929 . S
C2139 C2131 1.433 . S
C2139 N2141 1.384 . S
N2140 C2136 1.427 . S
N2140 C2137 1.384 . S
N2141 C2133 1.427 . S
N2141 C2139 1.384 . S
H2142 C2148 0.930 . S
H2143 C2152 0.930 . S
H2144 C2157 0.929 . S
H2145 C2155 0.929 . S
H2146 C2150 0.918 1_554 S
H2147 C2156 0.918 1_556 S
C2148 H2142 0.930 . S
C2148 C2149 1.367 . S
C2148 C2156 1.385 . S
C2149 C2148 1.367 . S
C2149 C2157 1.433 . S
C2150 H2146 0.918 1_556 S
C2150 C2152 1.385 . S
C2150 C2154 1.353 . S
C2151 C2154 1.463 1_554 S
C2151 C2156 1.353 . S
C2151 N2159 1.427 . S
C2152 H2143 0.930 . S
C2152 C2150 1.385 . S
C2152 C2153 1.367 . S
C2153 C2152 1.367 . S
C2153 C2155 1.433 . S
C2154 C2150 1.353 . S
C2154 C2151 1.463 1_556 S
C2154 N2158 1.427 . S
C2155 H2145 0.929 . S
C2155 C2153 1.433 . S
C2155 N2158 1.384 . S
C2156 H2147 0.918 1_554 S
C2156 C2148 1.385 . S
C2156 C2151 1.353 . S
C2157 H2144 0.929 . S
C2157 C2149 1.433 . S
C2157 N2159 1.384 . S
N2158 C2154 1.427 . S
N2158 C2155 1.384 . S
N2159 C2151 1.427 . S
N2159 C2157 1.384 . S
H2160 C2166 0.930 . S
H2161 C2170 0.930 . S
H2162 C2175 0.929 . S
H2163 C2173 0.929 . S
H2164 C2168 0.929 1_556 S
H2165 C2174 0.929 1_554 S
C2166 H2160 0.930 . S
C2166 C2167 1.367 . S
C2166 C2174 1.378 . S
C2167 C2166 1.367 . S
C2167 C2175 1.433 . S
C2168 H2164 0.929 1_554 S
C2168 C2170 1.378 . S
C2168 C2172 1.350 . S
C2169 C2172 1.463 1_556 S
C2169 C2174 1.350 . S
C2169 N2177 1.427 . S
C2170 H2161 0.930 . S
C2170 C2168 1.378 . S
C2170 C2171 1.367 . S
C2171 C2170 1.367 . S
C2171 C2173 1.433 . S
C2172 C2168 1.350 . S
C2172 C2169 1.463 1_554 S
C2172 N2176 1.427 . S
C2173 H2163 0.929 . S
C2173 C2171 1.433 . S
C2173 N2176 1.384 . S
C2174 H2165 0.929 1_556 S
C2174 C2166 1.378 . S
C2174 C2169 1.350 . S
C2175 H2162 0.929 . S
C2175 C2167 1.433 . S
C2175 N2177 1.384 . S
N2176 C2172 1.427 . S
N2176 C2173 1.384 . S
N2177 C2169 1.427 . S
N2177 C2175 1.384 . S
H2178 C2184 0.930 . S
H2179 C2188 0.930 . S
H2180 C2193 0.929 . S
H2181 C2191 0.929 . S
H2182 C2186 0.929 1_554 S
H2183 C2192 0.929 . S
C2184 H2178 0.930 . S
C2184 C2185 1.367 . S
C2184 C2192 1.378 . S
C2185 C2184 1.367 . S
C2185 C2193 1.433 . S
C2186 H2182 0.929 1_556 S
C2186 C2188 1.378 . S
C2186 C2190 1.350 . S
C2187 C2190 1.463 1_554 S
C2187 C2192 1.350 . S
C2187 N2195 1.427 . S
C2188 H2179 0.930 . S
C2188 C2186 1.378 . S
C2188 C2189 1.367 . S
C2189 C2188 1.367 . S
C2189 C2191 1.433 . S
C2190 C2186 1.350 . S
C2190 C2187 1.463 1_556 S
C2190 N2194 1.427 . S
C2191 H2181 0.929 . S
C2191 C2189 1.433 . S
C2191 N2194 1.384 . S
C2192 H2183 0.929 . S
C2192 C2184 1.378 . S
C2192 C2187 1.350 . S
C2193 H2180 0.929 . S
C2193 C2185 1.433 . S
C2193 N2195 1.384 . S
N2194 C2190 1.427 . S
N2194 C2191 1.384 . S
N2195 C2187 1.427 . S
N2195 C2193 1.384 . S
H2196 C2202 0.930 . S
H2197 C2206 0.930 . S
H2198 C2211 0.929 . S
H2199 C2209 0.929 . S
H2200 C2204 0.929 . S
H2201 C2210 0.929 . S
C2202 H2196 0.930 . S
C2202 C2203 1.367 . S
C2202 C2210 1.378 . S
C2203 C2202 1.367 . S
C2203 C2211 1.433 . S
C2204 H2200 0.929 . S
C2204 C2206 1.378 . S
C2204 C2208 1.350 . S
C2205 C2208 1.463 1_554 S
C2205 C2210 1.350 . S
C2205 N2213 1.427 . S
C2206 H2197 0.930 . S
C2206 C2204 1.378 . S
C2206 C2207 1.367 . S
C2207 C2206 1.367 . S
C2207 C2209 1.433 . S
C2208 C2204 1.350 . S
C2208 C2205 1.463 1_556 S
C2208 N2212 1.432 . S
C2209 H2199 0.929 . S
C2209 C2207 1.433 . S
C2209 N2212 1.400 . S
C2210 H2201 0.929 . S
C2210 C2202 1.378 . S
C2210 C2205 1.350 . S
C2211 H2198 0.929 . S
C2211 C2203 1.433 . S
C2211 N2213 1.384 . S
N2212 C2208 1.432 . S
N2212 C2209 1.400 . S
N2213 C2205 1.427 . S
N2213 C2211 1.384 . S
H2214 C2220 0.930 . S
H2215 C2224 0.930 . S
H2216 C2229 0.929 . S
H2217 C2227 0.929 . S
H2218 C2222 0.929 . S
H2219 C2228 0.929 . S
C2220 H2214 0.930 . S
C2220 C2221 1.367 . S
C2220 C2228 1.378 . S
C2221 C2220 1.367 . S
C2221 C2229 1.433 . S
C2222 H2218 0.929 . S
C2222 C2224 1.378 . S
C2222 C2226 1.350 . S
C2223 C2226 1.463 . S
C2223 C2228 1.350 . S
C2223 N2231 1.427 . S
C2224 H2215 0.930 . S
C2224 C2222 1.378 . S
C2224 C2225 1.367 . S
C2225 C2224 1.367 . S
C2225 C2227 1.433 . S
C2226 C2222 1.350 . S
C2226 C2223 1.463 . S
C2226 N2230 1.427 . S
C2227 H2217 0.929 . S
C2227 C2225 1.433 . S
C2227 N2230 1.384 . S
C2228 H2219 0.929 . S
C2228 C2220 1.378 . S
C2228 C2223 1.350 . S
C2229 H2216 0.929 . S
C2229 C2221 1.433 . S
C2229 N2231 1.384 . S
N2230 C2226 1.427 . S
N2230 C2227 1.384 . S
N2231 C2223 1.427 . S
N2231 C2229 1.384 . S
H2232 C2238 0.930 . S
H2233 C2242 0.930 . S
H2234 C2247 0.929 . S
H2235 C2245 0.929 . S
H2236 C2240 0.929 . S
H2237 C2246 0.929 . S
C2238 H2232 0.930 . S
C2238 C2239 1.367 . S
C2238 C2246 1.378 . S
C2239 C2238 1.367 . S
C2239 C2247 1.433 . S
C2240 H2236 0.929 . S
C2240 C2242 1.378 . S
C2240 C2244 1.350 . S
C2241 C2244 1.463 . S
C2241 C2246 1.350 . S
C2241 N2249 1.427 . S
C2242 H2233 0.930 . S
C2242 C2240 1.378 . S
C2242 C2243 1.367 . S
C2243 C2242 1.367 . S
C2243 C2245 1.433 . S
C2244 C2240 1.350 . S
C2244 C2241 1.463 . S
C2244 N2248 1.427 . S
C2245 H2235 0.929 . S
C2245 C2243 1.433 . S
C2245 N2248 1.384 . S
C2246 H2237 0.929 . S
C2246 C2238 1.378 . S
C2246 C2241 1.350 . S
C2247 H2234 0.929 . S
C2247 C2239 1.433 . S
C2247 N2249 1.384 . S
N2248 C2244 1.427 . S
N2248 C2245 1.384 . S
N2249 C2241 1.427 . S
N2249 C2247 1.384 . S
H2250 C2256 0.930 . S
H2251 C2260 0.930 . S
H2252 C2265 0.929 . S
H2253 C2263 0.929 . S
H2254 C2258 0.929 . S
H2255 C2264 0.929 . S
C2256 H2250 0.930 . S
C2256 C2257 1.367 . S
C2256 C2264 1.378 . S
C2257 C2256 1.367 . S
C2257 C2265 1.433 . S
C2258 H2254 0.929 . S
C2258 C2260 1.378 . S
C2258 C2262 1.350 . S
C2259 C2262 1.463 . S
C2259 C2264 1.350 . S
C2259 N2267 1.427 . S
C2260 H2251 0.930 . S
C2260 C2258 1.378 . S
C2260 C2261 1.367 . S
C2261 C2260 1.367 . S
C2261 C2263 1.433 . S
C2262 C2258 1.350 . S
C2262 C2259 1.463 . S
C2262 N2266 1.427 . S
C2263 H2253 0.929 . S
C2263 C2261 1.433 . S
C2263 N2266 1.384 . S
C2264 H2255 0.929 . S
C2264 C2256 1.378 . S
C2264 C2259 1.350 . S
C2265 H2252 0.929 . S
C2265 C2257 1.433 . S
C2265 N2267 1.384 . S
N2266 C2262 1.427 . S
N2266 C2263 1.384 . S
N2267 C2259 1.427 . S
N2267 C2265 1.384 . S
H2268 C2274 0.930 . S
H2269 C2278 0.930 . S
H2270 C2283 0.929 . S
H2271 C2281 0.929 . S
H2272 C2276 0.929 . S
H2273 C2282 0.929 . S
C2274 H2268 0.930 . S
C2274 C2275 1.367 . S
C2274 C2282 1.378 . S
C2275 C2274 1.367 . S
C2275 C2283 1.433 . S
C2276 H2272 0.929 . S
C2276 C2278 1.378 . S
C2276 C2280 1.350 . S
C2277 C2280 1.463 1_554 S
C2277 C2282 1.350 . S
C2277 N2285 1.421 1_554 S
C2278 H2269 0.930 . S
C2278 C2276 1.378 . S
C2278 C2279 1.367 . S
C2279 C2278 1.367 . S
C2279 C2281 1.433 . S
C2280 C2276 1.350 . S
C2280 C2277 1.463 1_556 S
C2280 N2284 1.427 . S
C2281 H2271 0.929 . S
C2281 C2279 1.433 . S
C2281 N2284 1.384 . S
C2282 H2273 0.929 . S
C2282 C2274 1.378 . S
C2282 C2277 1.350 . S
C2283 H2270 0.929 . S
C2283 C2275 1.433 . S
C2283 N2285 1.365 1_554 S
N2284 C2280 1.427 . S
N2284 C2281 1.384 . S
N2285 C2277 1.421 1_556 S
N2285 C2283 1.365 1_556 S
H2286 C2292 0.930 . S
H2287 C2296 0.930 . S
H2288 C2301 0.929 . S
H2289 C2299 0.929 . S
H2290 C2294 0.929 . S
H2291 C2300 0.929 . S
C2292 H2286 0.930 . S
C2292 C2293 1.367 . S
C2292 C2300 1.378 . S
C2293 C2292 1.367 . S
C2293 C2301 1.433 . S
C2294 H2290 0.929 . S
C2294 C2296 1.378 . S
C2294 C2298 1.350 . S
C2295 C2298 1.463 1_554 S
C2295 C2300 1.350 . S
C2295 N2303 1.427 1_554 S
C2296 H2287 0.930 . S
C2296 C2294 1.378 . S
C2296 C2297 1.367 . S
C2297 C2296 1.367 . S
C2297 C2299 1.433 . S
C2298 C2294 1.350 . S
C2298 C2295 1.463 1_556 S
C2298 N2302 1.427 . S
C2299 H2289 0.929 . S
C2299 C2297 1.433 . S
C2299 N2302 1.384 . S
C2300 H2291 0.929 . S
C2300 C2292 1.378 . S
C2300 C2295 1.350 . S
C2301 H2288 0.929 . S
C2301 C2293 1.433 . S
C2301 N2303 1.384 1_554 S
N2302 C2298 1.427 . S
N2302 C2299 1.384 . S
N2303 C2295 1.427 1_556 S
N2303 C2301 1.384 1_556 S
H2304 C2310 0.930 . S
H2305 C2314 0.930 . S
H2306 C2319 0.929 . S
H2307 C2317 0.929 . S
H2308 C2312 0.929 . S
H2309 C2318 0.929 1_556 S
C2310 H2304 0.930 . S
C2310 C2311 1.367 . S
C2310 C2318 1.378 . S
C2311 C2310 1.367 . S
C2311 C2319 1.433 . S
C2312 H2308 0.929 . S
C2312 C2314 1.378 . S
C2312 C2316 1.350 . S
C2313 C2316 1.463 1_554 S
C2313 C2318 1.350 . S
C2313 N2321 1.427 . S
C2314 H2305 0.930 . S
C2314 C2312 1.378 . S
C2314 C2315 1.367 . S
C2315 C2314 1.367 . S
C2315 C2317 1.433 . S
C2316 C2312 1.350 . S
C2316 C2313 1.463 1_556 S
C2316 N2320 1.427 . S
C2317 H2307 0.929 . S
C2317 C2315 1.433 . S
C2317 N2320 1.384 . S
C2318 H2309 0.929 1_554 S
C2318 C2310 1.378 . S
C2318 C2313 1.350 . S
C2319 H2306 0.929 . S
C2319 C2311 1.433 . S
C2319 N2321 1.384 . S
N2320 C2316 1.427 . S
N2320 C2317 1.384 . S
N2321 C2313 1.427 . S
N2321 C2319 1.384 . S
H2322 C2328 0.930 . S
H2323 C2332 0.930 . S
H2324 C2337 0.929 . S
H2325 C2335 0.929 . S
H2326 C2330 0.929 . S
H2327 C2336 0.929 . S
C2328 H2322 0.930 . S
C2328 C2329 1.367 . S
C2328 C2336 1.378 . S
C2329 C2328 1.367 . S
C2329 C2337 1.433 . S
C2330 H2326 0.929 . S
C2330 C2332 1.378 . S
C2330 C2334 1.350 . S
C2331 C2334 1.463 . S
C2331 C2336 1.350 . S
C2331 N2339 1.427 . S
C2332 H2323 0.930 . S
C2332 C2330 1.378 . S
C2332 C2333 1.367 . S
C2333 C2332 1.367 . S
C2333 C2335 1.433 . S
C2334 C2330 1.350 . S
C2334 C2331 1.463 . S
C2334 N2338 1.427 . S
C2335 H2325 0.929 . S
C2335 C2333 1.433 . S
C2335 N2338 1.384 . S
C2336 H2327 0.929 . S
C2336 C2328 1.378 . S
C2336 C2331 1.350 . S
C2337 H2324 0.929 . S
C2337 C2329 1.433 . S
C2337 N2339 1.384 . S
N2338 C2334 1.427 . S
N2338 C2335 1.384 . S
N2339 C2331 1.427 . S
N2339 C2337 1.384 . S
H2340 C2346 0.930 . S
H2341 C2350 0.930 . S
H2342 C2355 0.929 . S
H2343 C2353 0.929 . S
H2344 C2348 0.929 . S
H2345 C2354 0.929 . S
C2346 H2340 0.930 . S
C2346 C2347 1.367 . S
C2346 C2354 1.378 . S
C2347 C2346 1.367 . S
C2347 C2355 1.433 . S
C2348 H2344 0.929 . S
C2348 C2350 1.378 . S
C2348 C2352 1.350 . S
C2349 C2352 1.463 . S
C2349 C2354 1.350 . S
C2349 N2357 1.427 . S
C2350 H2341 0.930 . S
C2350 C2348 1.378 . S
C2350 C2351 1.367 . S
C2351 C2350 1.367 . S
C2351 C2353 1.433 . S
C2352 C2348 1.350 . S
C2352 C2349 1.463 . S
C2352 N2356 1.427 . S
C2353 H2343 0.929 . S
C2353 C2351 1.433 . S
C2353 N2356 1.384 . S
C2354 H2345 0.929 . S
C2354 C2346 1.378 . S
C2354 C2349 1.350 . S
C2355 H2342 0.929 . S
C2355 C2347 1.433 . S
C2355 N2357 1.384 . S
N2356 C2352 1.427 . S
N2356 C2353 1.384 . S
N2357 C2349 1.427 . S
N2357 C2355 1.384 . S
H2358 C2364 0.930 . S
H2359 C2368 0.930 . S
H2360 C2373 0.929 . S
H2361 C2371 0.929 . S
H2362 C2366 0.929 . S
H2363 C2372 0.929 . S
C2364 H2358 0.930 . S
C2364 C2365 1.367 . S
C2364 C2372 1.378 . S
C2365 C2364 1.367 . S
C2365 C2373 1.433 . S
C2366 H2362 0.929 . S
C2366 C2368 1.378 . S
C2366 C2370 1.350 . S
C2367 C2370 1.463 . S
C2367 C2372 1.350 . S
C2367 N2375 1.427 . S
C2368 H2359 0.930 . S
C2368 C2366 1.378 . S
C2368 C2369 1.367 . S
C2369 C2368 1.367 . S
C2369 C2371 1.433 . S
C2370 C2366 1.350 . S
C2370 C2367 1.463 . S
C2370 N2374 1.427 . S
C2371 H2361 0.929 . S
C2371 C2369 1.433 . S
C2371 N2374 1.384 . S
C2372 H2363 0.929 . S
C2372 C2364 1.378 . S
C2372 C2367 1.350 . S
C2373 H2360 0.929 . S
C2373 C2365 1.433 . S
C2373 N2375 1.384 . S
N2374 C2370 1.427 . S
N2374 C2371 1.384 . S
N2375 C2367 1.427 . S
N2375 C2373 1.384 . S
H2376 C2382 0.930 . S
H2377 C2386 0.930 . S
H2378 C2391 0.929 . S
H2379 C2389 0.929 . S
H2380 C2384 0.929 . S
H2381 C2390 0.929 . S
C2382 H2376 0.930 . S
C2382 C2383 1.367 . S
C2382 C2390 1.378 . S
C2383 C2382 1.367 . S
C2383 C2391 1.433 . S
C2384 H2380 0.929 . S
C2384 C2386 1.378 . S
C2384 C2388 1.350 . S
C2385 C2388 1.463 . S
C2385 C2390 1.350 . S
C2385 N2393 1.427 . S
C2386 H2377 0.930 . S
C2386 C2384 1.378 . S
C2386 C2387 1.367 . S
C2387 C2386 1.367 . S
C2387 C2389 1.433 . S
C2388 C2384 1.350 . S
C2388 C2385 1.463 . S
C2388 N2392 1.427 . S
C2389 H2379 0.929 . S
C2389 C2387 1.433 . S
C2389 N2392 1.384 . S
C2390 H2381 0.929 . S
C2390 C2382 1.378 . S
C2390 C2385 1.350 . S
C2391 H2378 0.929 . S
C2391 C2383 1.433 . S
C2391 N2393 1.384 . S
N2392 C2388 1.427 . S
N2392 C2389 1.384 . S
N2393 C2385 1.427 . S
N2393 C2391 1.384 . S
H2394 C2400 0.930 . S
H2395 C2404 0.930 . S
H2396 C2409 0.929 . S
H2397 C2407 0.929 . S
H2398 C2402 0.929 . S
H2399 C2408 0.929 . S
C2400 H2394 0.930 . S
C2400 C2401 1.367 . S
C2400 C2408 1.378 . S
C2401 C2400 1.367 . S
C2401 C2409 1.433 . S
C2402 H2398 0.929 . S
C2402 C2404 1.378 . S
C2402 C2406 1.350 . S
C2403 C2406 1.463 . S
C2403 C2408 1.350 . S
C2403 N2411 1.427 . S
C2404 H2395 0.930 . S
C2404 C2402 1.378 . S
C2404 C2405 1.367 . S
C2405 C2404 1.367 . S
C2405 C2407 1.433 . S
C2406 C2402 1.350 . S
C2406 C2403 1.463 . S
C2406 N2410 1.427 . S
C2407 H2397 0.929 . S
C2407 C2405 1.433 . S
C2407 N2410 1.384 . S
C2408 H2399 0.929 . S
C2408 C2400 1.378 . S
C2408 C2403 1.350 . S
C2409 H2396 0.929 . S
C2409 C2401 1.433 . S
C2409 N2411 1.384 . S
N2410 C2406 1.427 . S
N2410 C2407 1.384 . S
N2411 C2403 1.427 . S
N2411 C2409 1.384 . S
H2412 C2418 0.930 . S
H2413 C2422 0.930 . S
H2414 C2427 0.929 . S
H2415 C2425 0.929 . S
H2416 C2420 0.929 . S
H2417 C2426 0.929 . S
C2418 H2412 0.930 . S
C2418 C2419 1.367 . S
C2418 C2426 1.378 . S
C2419 C2418 1.367 . S
C2419 C2427 1.433 . S
C2420 H2416 0.929 . S
C2420 C2422 1.378 . S
C2420 C2424 1.350 . S
C2421 C2424 1.463 . S
C2421 C2426 1.350 . S
C2421 N2429 1.427 . S
C2422 H2413 0.930 . S
C2422 C2420 1.378 . S
C2422 C2423 1.367 . S
C2423 C2422 1.367 . S
C2423 C2425 1.433 . S
C2424 C2420 1.350 . S
C2424 C2421 1.463 . S
C2424 N2428 1.427 . S
C2425 H2415 0.929 . S
C2425 C2423 1.433 . S
C2425 N2428 1.384 . S
C2426 H2417 0.929 . S
C2426 C2418 1.378 . S
C2426 C2421 1.350 . S
C2427 H2414 0.929 . S
C2427 C2419 1.433 . S
C2427 N2429 1.384 . S
N2428 C2424 1.427 . S
N2428 C2425 1.384 . S
N2429 C2421 1.427 . S
N2429 C2427 1.384 . S
H2430 C2436 0.930 . S
H2431 C2440 0.930 . S
H2432 C2445 0.929 . S
H2433 C2443 0.929 . S
H2434 C2438 0.929 . S
H2435 C2444 0.929 . S
C2436 H2430 0.930 . S
C2436 C2437 1.367 . S
C2436 C2444 1.378 . S
C2437 C2436 1.367 . S
C2437 C2445 1.433 . S
C2438 H2434 0.929 . S
C2438 C2440 1.378 . S
C2438 C2442 1.350 . S
C2439 C2442 1.463 . S
C2439 C2444 1.350 . S
C2439 N2447 1.427 . S
C2440 H2431 0.930 . S
C2440 C2438 1.378 . S
C2440 C2441 1.367 . S
C2441 C2440 1.367 . S
C2441 C2443 1.433 . S
C2442 C2438 1.350 . S
C2442 C2439 1.463 . S
C2442 N2446 1.427 . S
C2443 H2433 0.929 . S
C2443 C2441 1.433 . S
C2443 N2446 1.384 . S
C2444 H2435 0.929 . S
C2444 C2436 1.378 . S
C2444 C2439 1.350 . S
C2445 H2432 0.929 . S
C2445 C2437 1.433 . S
C2445 N2447 1.384 . S
N2446 C2442 1.427 . S
N2446 C2443 1.384 . S
N2447 C2439 1.427 . S
N2447 C2445 1.384 . S
H2448 C2454 0.930 . S
H2449 C2458 0.930 . S
H2450 C2463 0.929 . S
H2451 C2461 0.929 . S
H2452 C2456 0.929 . S
H2453 C2462 0.929 . S
C2454 H2448 0.930 . S
C2454 C2455 1.367 . S
C2454 C2462 1.378 . S
C2455 C2454 1.367 . S
C2455 C2463 1.433 . S
C2456 H2452 0.929 . S
C2456 C2458 1.378 . S
C2456 C2460 1.350 . S
C2457 C2460 1.463 . S
C2457 C2462 1.350 . S
C2457 N2465 1.427 . S
C2458 H2449 0.930 . S
C2458 C2456 1.378 . S
C2458 C2459 1.367 . S
C2459 C2458 1.367 . S
C2459 C2461 1.433 . S
C2460 C2456 1.350 . S
C2460 C2457 1.463 . S
C2460 N2464 1.427 . S
C2461 H2451 0.929 . S
C2461 C2459 1.433 . S
C2461 N2464 1.384 . S
C2462 H2453 0.929 . S
C2462 C2454 1.378 . S
C2462 C2457 1.350 . S
C2463 H2450 0.929 . S
C2463 C2455 1.433 . S
C2463 N2465 1.384 . S
N2464 C2460 1.427 . S
N2464 C2461 1.384 . S
N2465 C2457 1.427 . S
N2465 C2463 1.384 . S
H2466 C2472 0.930 . S
H2467 C2476 0.930 . S
H2468 C2481 0.929 . S
H2469 C2479 0.929 . S
H2470 C2474 0.929 . S
H2471 C2480 0.929 . S
C2472 H2466 0.930 . S
C2472 C2473 1.367 . S
C2472 C2480 1.378 . S
C2473 C2472 1.367 . S
C2473 C2481 1.433 . S
C2474 H2470 0.929 . S
C2474 C2476 1.378 . S
C2474 C2478 1.350 . S
C2475 C2478 1.463 . S
C2475 C2480 1.350 . S
C2475 N2483 1.427 . S
C2476 H2467 0.930 . S
C2476 C2474 1.378 . S
C2476 C2477 1.367 . S
C2477 C2476 1.367 . S
C2477 C2479 1.433 . S
C2478 C2474 1.350 . S
C2478 C2475 1.463 . S
C2478 N2482 1.427 . S
C2479 H2469 0.929 . S
C2479 C2477 1.433 . S
C2479 N2482 1.384 . S
C2480 H2471 0.929 . S
C2480 C2472 1.378 . S
C2480 C2475 1.350 . S
C2481 H2468 0.929 . S
C2481 C2473 1.433 . S
C2481 N2483 1.384 . S
N2482 C2478 1.427 . S
N2482 C2479 1.384 . S
N2483 C2475 1.427 . S
N2483 C2481 1.384 . S
H2484 C2490 0.930 . S
H2485 C2494 0.930 . S
H2486 C2499 0.929 . S
H2487 C2497 0.929 . S
H2488 C2492 0.929 . S
H2489 C2498 0.929 . S
C2490 H2484 0.930 . S
C2490 C2491 1.367 . S
C2490 C2498 1.378 . S
C2491 C2490 1.367 . S
C2491 C2499 1.433 . S
C2492 H2488 0.929 . S
C2492 C2494 1.378 . S
C2492 C2496 1.350 . S
C2493 C2496 1.463 . S
C2493 C2498 1.350 . S
C2493 N2501 1.427 . S
C2494 H2485 0.930 . S
C2494 C2492 1.378 . S
C2494 C2495 1.367 . S
C2495 C2494 1.367 . S
C2495 C2497 1.433 . S
C2496 C2492 1.350 . S
C2496 C2493 1.463 . S
C2496 N2500 1.427 . S
C2497 H2487 0.929 . S
C2497 C2495 1.433 . S
C2497 N2500 1.384 . S
C2498 H2489 0.929 . S
C2498 C2490 1.378 . S
C2498 C2493 1.350 . S
C2499 H2486 0.929 . S
C2499 C2491 1.433 . S
C2499 N2501 1.384 . S
N2500 C2496 1.427 . S
N2500 C2497 1.384 . S
N2501 C2493 1.427 . S
N2501 C2499 1.384 . S
H2502 C2508 0.930 . S
H2503 C2512 0.930 . S
H2504 C2517 0.929 . S
H2505 C2515 0.929 . S
H2506 C2510 0.929 . S
H2507 C2516 0.929 . S
C2508 H2502 0.930 . S
C2508 C2509 1.367 . S
C2508 C2516 1.378 . S
C2509 C2508 1.367 . S
C2509 C2517 1.433 . S
C2510 H2506 0.929 . S
C2510 C2512 1.378 . S
C2510 C2514 1.350 . S
C2511 C2514 1.463 . S
C2511 C2516 1.350 . S
C2511 N2519 1.427 . S
C2512 H2503 0.930 . S
C2512 C2510 1.378 . S
C2512 C2513 1.367 . S
C2513 C2512 1.367 . S
C2513 C2515 1.433 . S
C2514 C2510 1.350 . S
C2514 C2511 1.463 . S
C2514 N2518 1.427 . S
C2515 H2505 0.929 . S
C2515 C2513 1.433 . S
C2515 N2518 1.384 . S
C2516 H2507 0.929 . S
C2516 C2508 1.378 . S
C2516 C2511 1.350 . S
C2517 H2504 0.929 . S
C2517 C2509 1.433 . S
C2517 N2519 1.384 . S
N2518 C2514 1.427 . S
N2518 C2515 1.384 . S
N2519 C2511 1.427 . S
N2519 C2517 1.384 . S
H2520 C2526 0.930 . S
H2521 C2530 0.930 . S
H2522 C2535 0.929 . S
H2523 C2533 0.929 . S
H2524 C2528 0.929 . S
H2525 C2534 0.929 . S
C2526 H2520 0.930 . S
C2526 C2527 1.367 . S
C2526 C2534 1.378 . S
C2527 C2526 1.367 . S
C2527 C2535 1.433 . S
C2528 H2524 0.929 . S
C2528 C2530 1.378 . S
C2528 C2532 1.350 . S
C2529 C2532 1.463 . S
C2529 C2534 1.350 . S
C2529 N2537 1.427 . S
C2530 H2521 0.930 . S
C2530 C2528 1.378 . S
C2530 C2531 1.367 . S
C2531 C2530 1.367 . S
C2531 C2533 1.433 . S
C2532 C2528 1.350 . S
C2532 C2529 1.463 . S
C2532 N2536 1.427 . S
C2533 H2523 0.929 . S
C2533 C2531 1.433 . S
C2533 N2536 1.384 . S
C2534 H2525 0.929 . S
C2534 C2526 1.378 . S
C2534 C2529 1.350 . S
C2535 H2522 0.929 . S
C2535 C2527 1.433 . S
C2535 N2537 1.384 . S
N2536 C2532 1.427 . S
N2536 C2533 1.384 . S
N2537 C2529 1.427 . S
N2537 C2535 1.384 . S
H2538 C2544 0.930 . S
H2539 C2548 0.930 . S
H2540 C2553 0.929 . S
H2541 C2551 0.929 . S
H2542 C2546 0.929 . S
H2543 C2552 0.929 . S
C2544 H2538 0.930 . S
C2544 C2545 1.367 . S
C2544 C2552 1.378 . S
C2545 C2544 1.367 . S
C2545 C2553 1.433 . S
C2546 H2542 0.929 . S
C2546 C2548 1.378 . S
C2546 C2550 1.350 . S
C2547 C2550 1.463 . S
C2547 C2552 1.350 . S
C2547 N2555 1.427 . S
C2548 H2539 0.930 . S
C2548 C2546 1.378 . S
C2548 C2549 1.367 . S
C2549 C2548 1.367 . S
C2549 C2551 1.433 . S
C2550 C2546 1.350 . S
C2550 C2547 1.463 . S
C2550 N2554 1.427 . S
C2551 H2541 0.929 . S
C2551 C2549 1.433 . S
C2551 N2554 1.384 . S
C2552 H2543 0.929 . S
C2552 C2544 1.378 . S
C2552 C2547 1.350 . S
C2553 H2540 0.929 . S
C2553 C2545 1.433 . S
C2553 N2555 1.384 . S
N2554 C2550 1.427 . S
N2554 C2551 1.384 . S
N2555 C2547 1.427 . S
N2555 C2553 1.384 . S
H2556 C2562 0.930 . S
H2557 C2566 0.930 . S
H2558 C2571 0.929 . S
H2559 C2569 0.929 . S
H2560 C2564 0.929 . S
H2561 C2570 0.929 . S
C2562 H2556 0.930 . S
C2562 C2563 1.367 . S
C2562 C2570 1.378 . S
C2563 C2562 1.367 . S
C2563 C2571 1.433 . S
C2564 H2560 0.929 . S
C2564 C2566 1.378 . S
C2564 C2568 1.350 . S
C2565 C2568 1.463 . S
C2565 C2570 1.350 . S
C2565 N2573 1.427 . S
C2566 H2557 0.930 . S
C2566 C2564 1.378 . S
C2566 C2567 1.367 . S
C2567 C2566 1.367 . S
C2567 C2569 1.433 . S
C2568 C2564 1.350 . S
C2568 C2565 1.463 . S
C2568 N2572 1.427 . S
C2569 H2559 0.929 . S
C2569 C2567 1.433 . S
C2569 N2572 1.384 . S
C2570 H2561 0.929 . S
C2570 C2562 1.378 . S
C2570 C2565 1.350 . S
C2571 H2558 0.929 . S
C2571 C2563 1.433 . S
C2571 N2573 1.384 . S
N2572 C2568 1.427 . S
N2572 C2569 1.384 . S
N2573 C2565 1.427 . S
N2573 C2571 1.384 . S
H2574 C2580 0.930 . S
H2575 C2584 0.930 . S
H2576 C2589 0.929 . S
H2577 C2587 0.929 . S
H2578 C2582 0.929 . S
H2579 C2588 0.929 . S
C2580 H2574 0.930 . S
C2580 C2581 1.367 . S
C2580 C2588 1.378 . S
C2581 C2580 1.367 . S
C2581 C2589 1.433 . S
C2582 H2578 0.929 . S
C2582 C2584 1.378 . S
C2582 C2586 1.350 . S
C2583 C2586 1.463 . S
C2583 C2588 1.350 . S
C2583 N2591 1.427 . S
C2584 H2575 0.930 . S
C2584 C2582 1.378 . S
C2584 C2585 1.367 . S
C2585 C2584 1.367 . S
C2585 C2587 1.433 . S
C2586 C2582 1.350 . S
C2586 C2583 1.463 . S
C2586 N2590 1.427 . S
C2587 H2577 0.929 . S
C2587 C2585 1.433 . S
C2587 N2590 1.384 . S
C2588 H2579 0.929 . S
C2588 C2580 1.378 . S
C2588 C2583 1.350 . S
C2589 H2576 0.929 . S
C2589 C2581 1.433 . S
C2589 N2591 1.384 . S
N2590 C2586 1.427 . S
N2590 C2587 1.384 . S
N2591 C2583 1.427 . S
N2591 C2589 1.384 . S
H2592 C2598 0.930 . S
H2593 C2602 0.930 . S
H2594 C2607 0.929 . S
H2595 C2605 0.929 . S
H2596 C2600 0.929 . S
H2597 C2606 0.929 . S
C2598 H2592 0.930 . S
C2598 C2599 1.367 . S
C2598 C2606 1.378 . S
C2599 C2598 1.367 . S
C2599 C2607 1.433 . S
C2600 H2596 0.929 . S
C2600 C2602 1.378 . S
C2600 C2604 1.350 . S
C2601 C2604 1.463 . S
C2601 C2606 1.350 . S
C2601 N2609 1.427 . S
C2602 H2593 0.930 . S
C2602 C2600 1.378 . S
C2602 C2603 1.367 . S
C2603 C2602 1.367 . S
C2603 C2605 1.433 . S
C2604 C2600 1.350 . S
C2604 C2601 1.463 . S
C2604 N2608 1.427 . S
C2605 H2595 0.929 . S
C2605 C2603 1.433 . S
C2605 N2608 1.384 . S
C2606 H2597 0.929 . S
C2606 C2598 1.378 . S
C2606 C2601 1.350 . S
C2607 H2594 0.929 . S
C2607 C2599 1.433 . S
C2607 N2609 1.384 . S
N2608 C2604 1.427 . S
N2608 C2605 1.384 . S
N2609 C2601 1.427 . S
N2609 C2607 1.384 . S
H2610 C2616 0.930 . S
H2611 C2620 0.930 . S
H2612 C2625 0.929 . S
H2613 C2623 0.929 . S
H2614 C2618 0.929 . S
H2615 C2624 0.929 . S
C2616 H2610 0.930 . S
C2616 C2617 1.367 . S
C2616 C2624 1.378 . S
C2617 C2616 1.367 . S
C2617 C2625 1.433 . S
C2618 H2614 0.929 . S
C2618 C2620 1.378 . S
C2618 C2622 1.350 . S
C2619 C2622 1.463 . S
C2619 C2624 1.350 . S
C2619 N2627 1.427 . S
C2620 H2611 0.930 . S
C2620 C2618 1.378 . S
C2620 C2621 1.367 . S
C2621 C2620 1.367 . S
C2621 C2623 1.433 . S
C2622 C2618 1.350 . S
C2622 C2619 1.463 . S
C2622 N2626 1.427 . S
C2623 H2613 0.929 . S
C2623 C2621 1.433 . S
C2623 N2626 1.384 . S
C2624 H2615 0.929 . S
C2624 C2616 1.378 . S
C2624 C2619 1.350 . S
C2625 H2612 0.929 . S
C2625 C2617 1.433 . S
C2625 N2627 1.384 . S
N2626 C2622 1.427 . S
N2626 C2623 1.384 . S
N2627 C2619 1.427 . S
N2627 C2625 1.384 . S
H2628 C2634 0.930 . S
H2629 C2638 0.930 . S
H2630 C2643 0.929 . S
H2631 C2641 0.929 . S
H2632 C2636 0.929 . S
H2633 C2642 0.929 . S
C2634 H2628 0.930 . S
C2634 C2635 1.367 . S
C2634 C2642 1.378 . S
C2635 C2634 1.367 . S
C2635 C2643 1.433 . S
C2636 H2632 0.929 . S
C2636 C2638 1.378 . S
C2636 C2640 1.350 . S
C2637 C2640 1.463 . S
C2637 C2642 1.350 . S
C2637 N2645 1.427 . S
C2638 H2629 0.930 . S
C2638 C2636 1.378 . S
C2638 C2639 1.367 . S
C2639 C2638 1.367 . S
C2639 C2641 1.433 . S
C2640 C2636 1.350 . S
C2640 C2637 1.463 . S
C2640 N2644 1.427 . S
C2641 H2631 0.929 . S
C2641 C2639 1.433 . S
C2641 N2644 1.384 . S
C2642 H2633 0.929 . S
C2642 C2634 1.378 . S
C2642 C2637 1.350 . S
C2643 H2630 0.929 . S
C2643 C2635 1.433 . S
C2643 N2645 1.384 . S
N2644 C2640 1.427 . S
N2644 C2641 1.384 . S
N2645 C2637 1.427 . S
N2645 C2643 1.384 . S
H2646 C2652 0.930 . S
H2647 C2656 0.930 . S
H2648 C2661 0.929 . S
H2649 C2659 0.929 . S
H2650 C2654 0.929 . S
H2651 C2660 0.929 . S
C2652 H2646 0.930 . S
C2652 C2653 1.367 . S
C2652 C2660 1.378 . S
C2653 C2652 1.367 . S
C2653 C2661 1.433 . S
C2654 H2650 0.929 . S
C2654 C2656 1.378 . S
C2654 C2658 1.350 . S
C2655 C2658 1.463 . S
C2655 C2660 1.350 . S
C2655 N2663 1.427 . S
C2656 H2647 0.930 . S
C2656 C2654 1.378 . S
C2656 C2657 1.367 . S
C2657 C2656 1.367 . S
C2657 C2659 1.433 . S
C2658 C2654 1.350 . S
C2658 C2655 1.463 . S
C2658 N2662 1.427 . S
C2659 H2649 0.929 . S
C2659 C2657 1.433 . S
C2659 N2662 1.384 . S
C2660 H2651 0.929 . S
C2660 C2652 1.378 . S
C2660 C2655 1.350 . S
C2661 H2648 0.929 . S
C2661 C2653 1.433 . S
C2661 N2663 1.384 . S
N2662 C2658 1.427 . S
N2662 C2659 1.384 . S
N2663 C2655 1.427 . S
N2663 C2661 1.384 . S
H2664 C2670 0.930 . S
H2665 C2674 0.930 . S
H2666 C2679 0.929 . S
H2667 C2677 0.929 . S
H2668 C2672 0.929 . S
H2669 C2678 0.929 . S
C2670 H2664 0.930 . S
C2670 C2671 1.367 . S
C2670 C2678 1.378 . S
C2671 C2670 1.367 . S
C2671 C2679 1.433 . S
C2672 H2668 0.929 . S
C2672 C2674 1.378 . S
C2672 C2676 1.350 . S
C2673 C2676 1.463 . S
C2673 C2678 1.350 . S
C2673 N2681 1.427 . S
C2674 H2665 0.930 . S
C2674 C2672 1.378 . S
C2674 C2675 1.367 . S
C2675 C2674 1.367 . S
C2675 C2677 1.433 . S
C2676 C2672 1.350 . S
C2676 C2673 1.463 . S
C2676 N2680 1.427 . S
C2677 H2667 0.929 . S
C2677 C2675 1.433 . S
C2677 N2680 1.384 . S
C2678 H2669 0.929 . S
C2678 C2670 1.378 . S
C2678 C2673 1.350 . S
C2679 H2666 0.929 . S
C2679 C2671 1.433 . S
C2679 N2681 1.384 . S
N2680 C2676 1.427 . S
N2680 C2677 1.384 . S
N2681 C2673 1.427 . S
N2681 C2679 1.384 . S
H2682 C2688 0.930 . S
H2683 C2692 0.930 . S
H2684 C2697 0.929 . S
H2685 C2695 0.929 . S
H2686 C2690 0.929 . S
H2687 C2696 0.929 . S
C2688 H2682 0.930 . S
C2688 C2689 1.367 . S
C2688 C2696 1.378 . S
C2689 C2688 1.367 . S
C2689 C2697 1.433 . S
C2690 H2686 0.929 . S
C2690 C2692 1.378 . S
C2690 C2694 1.350 . S
C2691 C2694 1.463 . S
C2691 C2696 1.350 . S
C2691 N2699 1.427 . S
C2692 H2683 0.930 . S
C2692 C2690 1.378 . S
C2692 C2693 1.367 . S
C2693 C2692 1.367 . S
C2693 C2695 1.433 . S
C2694 C2690 1.350 . S
C2694 C2691 1.463 . S
C2694 N2698 1.427 . S
C2695 H2685 0.929 . S
C2695 C2693 1.433 . S
C2695 N2698 1.384 . S
C2696 H2687 0.929 . S
C2696 C2688 1.378 . S
C2696 C2691 1.350 . S
C2697 H2684 0.929 . S
C2697 C2689 1.433 . S
C2697 N2699 1.384 . S
N2698 C2694 1.427 . S
N2698 C2695 1.384 . S
N2699 C2691 1.427 . S
N2699 C2697 1.384 . S
H2700 C2706 0.930 . S
H2701 C2710 0.930 . S
H2702 C2715 0.929 . S
H2703 C2713 0.929 . S
H2704 C2708 0.929 . S
H2705 C2714 0.929 . S
C2706 H2700 0.930 . S
C2706 C2707 1.367 . S
C2706 C2714 1.378 . S
C2707 C2706 1.367 . S
C2707 C2715 1.433 . S
C2708 H2704 0.929 . S
C2708 C2710 1.378 . S
C2708 C2712 1.350 . S
C2709 C2712 1.463 . S
C2709 C2714 1.350 . S
C2709 N2717 1.427 . S
C2710 H2701 0.930 . S
C2710 C2708 1.378 . S
C2710 C2711 1.367 . S
C2711 C2710 1.367 . S
C2711 C2713 1.433 . S
C2712 C2708 1.350 . S
C2712 C2709 1.463 . S
C2712 N2716 1.427 . S
C2713 H2703 0.929 . S
C2713 C2711 1.433 . S
C2713 N2716 1.384 . S
C2714 H2705 0.929 . S
C2714 C2706 1.378 . S
C2714 C2709 1.350 . S
C2715 H2702 0.929 . S
C2715 C2707 1.433 . S
C2715 N2717 1.384 . S
N2716 C2712 1.427 . S
N2716 C2713 1.384 . S
N2717 C2709 1.427 . S
N2717 C2715 1.384 . S
H2718 C2724 0.930 . S
H2719 C2728 0.930 . S
H2720 C2733 0.929 . S
H2721 C2731 0.929 . S
H2722 C2726 0.929 . S
H2723 C2732 0.929 . S
C2724 H2718 0.930 . S
C2724 C2725 1.367 . S
C2724 C2732 1.378 . S
C2725 C2724 1.367 . S
C2725 C2733 1.433 . S
C2726 H2722 0.929 . S
C2726 C2728 1.378 . S
C2726 C2730 1.350 . S
C2727 C2730 1.463 . S
C2727 C2732 1.350 . S
C2727 N2735 1.427 . S
C2728 H2719 0.930 . S
C2728 C2726 1.378 . S
C2728 C2729 1.367 . S
C2729 C2728 1.367 . S
C2729 C2731 1.433 . S
C2730 C2726 1.350 . S
C2730 C2727 1.463 . S
C2730 N2734 1.427 . S
C2731 H2721 0.929 . S
C2731 C2729 1.433 . S
C2731 N2734 1.384 . S
C2732 H2723 0.929 . S
C2732 C2724 1.378 . S
C2732 C2727 1.350 . S
C2733 H2720 0.929 . S
C2733 C2725 1.433 . S
C2733 N2735 1.384 . S
N2734 C2730 1.427 . S
N2734 C2731 1.384 . S
N2735 C2727 1.427 . S
N2735 C2733 1.384 . S
H2736 C2742 0.930 . S
H2737 C2746 0.930 . S
H2738 C2751 0.929 . S
H2739 C2749 0.929 . S
H2740 C2744 0.929 . S
H2741 C2750 0.929 . S
C2742 H2736 0.930 . S
C2742 C2743 1.367 . S
C2742 C2750 1.378 . S
C2743 C2742 1.367 . S
C2743 C2751 1.433 . S
C2744 H2740 0.929 . S
C2744 C2746 1.378 . S
C2744 C2748 1.350 . S
C2745 C2748 1.463 . S
C2745 C2750 1.350 . S
C2745 N2753 1.427 . S
C2746 H2737 0.930 . S
C2746 C2744 1.378 . S
C2746 C2747 1.367 . S
C2747 C2746 1.367 . S
C2747 C2749 1.433 . S
C2748 C2744 1.350 . S
C2748 C2745 1.463 . S
C2748 N2752 1.427 . S
C2749 H2739 0.929 . S
C2749 C2747 1.433 . S
C2749 N2752 1.384 . S
C2750 H2741 0.929 . S
C2750 C2742 1.378 . S
C2750 C2745 1.350 . S
C2751 H2738 0.929 . S
C2751 C2743 1.433 . S
C2751 N2753 1.384 . S
N2752 C2748 1.427 . S
N2752 C2749 1.384 . S
N2753 C2745 1.427 . S
N2753 C2751 1.384 . S
H2754 C2760 0.930 . S
H2755 C2764 0.930 . S
H2756 C2769 0.929 . S
H2757 C2767 0.929 . S
H2758 C2762 0.929 . S
H2759 C2768 0.929 . S
C2760 H2754 0.930 . S
C2760 C2761 1.367 . S
C2760 C2768 1.378 . S
C2761 C2760 1.367 . S
C2761 C2769 1.433 . S
C2762 H2758 0.929 . S
C2762 C2764 1.378 . S
C2762 C2766 1.350 . S
C2763 C2766 1.463 . S
C2763 C2768 1.350 . S
C2763 N2771 1.427 . S
C2764 H2755 0.930 . S
C2764 C2762 1.378 . S
C2764 C2765 1.367 . S
C2765 C2764 1.367 . S
C2765 C2767 1.433 . S
C2766 C2762 1.350 . S
C2766 C2763 1.463 . S
C2766 N2770 1.427 . S
C2767 H2757 0.929 . S
C2767 C2765 1.433 . S
C2767 N2770 1.384 . S
C2768 H2759 0.929 . S
C2768 C2760 1.378 . S
C2768 C2763 1.350 . S
C2769 H2756 0.929 . S
C2769 C2761 1.433 . S
C2769 N2771 1.384 . S
N2770 C2766 1.427 . S
N2770 C2767 1.384 . S
N2771 C2763 1.427 . S
N2771 C2769 1.384 . S
H2772 C2778 0.930 . S
H2773 C2782 0.930 . S
H2774 C2787 0.929 . S
H2775 C2785 0.929 . S
H2776 C2780 0.929 . S
H2777 C2786 0.929 . S
C2778 H2772 0.930 . S
C2778 C2779 1.367 . S
C2778 C2786 1.378 . S
C2779 C2778 1.367 . S
C2779 C2787 1.433 . S
C2780 H2776 0.929 . S
C2780 C2782 1.378 . S
C2780 C2784 1.350 . S
C2781 C2784 1.463 . S
C2781 C2786 1.350 . S
C2781 N2789 1.427 . S
C2782 H2773 0.930 . S
C2782 C2780 1.378 . S
C2782 C2783 1.367 . S
C2783 C2782 1.367 . S
C2783 C2785 1.433 . S
C2784 C2780 1.350 . S
C2784 C2781 1.463 . S
C2784 N2788 1.427 . S
C2785 H2775 0.929 . S
C2785 C2783 1.433 . S
C2785 N2788 1.384 . S
C2786 H2777 0.929 . S
C2786 C2778 1.378 . S
C2786 C2781 1.350 . S
C2787 H2774 0.929 . S
C2787 C2779 1.433 . S
C2787 N2789 1.384 . S
N2788 C2784 1.427 . S
N2788 C2785 1.384 . S
N2789 C2781 1.427 . S
N2789 C2787 1.384 . S
H2790 C2796 0.930 . S
H2791 C2800 0.930 . S
H2792 C2805 0.929 . S
H2793 C2803 0.929 . S
H2794 C2798 0.929 . S
H2795 C2804 0.929 . S
C2796 H2790 0.930 . S
C2796 C2797 1.367 . S
C2796 C2804 1.378 . S
C2797 C2796 1.367 . S
C2797 C2805 1.433 . S
C2798 H2794 0.929 . S
C2798 C2800 1.378 . S
C2798 C2802 1.350 . S
C2799 C2802 1.463 . S
C2799 C2804 1.350 . S
C2799 N2807 1.427 . S
C2800 H2791 0.930 . S
C2800 C2798 1.378 . S
C2800 C2801 1.367 . S
C2801 C2800 1.367 . S
C2801 C2803 1.433 . S
C2802 C2798 1.350 . S
C2802 C2799 1.463 . S
C2802 N2806 1.427 . S
C2803 H2793 0.929 . S
C2803 C2801 1.433 . S
C2803 N2806 1.384 . S
C2804 H2795 0.929 . S
C2804 C2796 1.378 . S
C2804 C2799 1.350 . S
C2805 H2792 0.929 . S
C2805 C2797 1.433 . S
C2805 N2807 1.384 . S
N2806 C2802 1.427 . S
N2806 C2803 1.384 . S
N2807 C2799 1.427 . S
N2807 C2805 1.384 . S
C1195 C120 0.398 . S
C1199 C21 0.427 . S
C1213 C54 0.410 . S
C1217 C153 0.392 . S
C1231 C186 0.421 . S
C1235 C87 0.390 . S
C1249 C318 0.393 . S
C1253 C219 0.408 . S
C1267 C252 0.417 . S
C1271 C351 0.420 . S
C1285 C384 0.392 . S
C1289 C285 0.424 . S
C1303 C516 0.392 . S
C1307 C417 0.424 . S
C1321 C450 0.424 . S
C1325 C549 0.411 . S
C1339 C582 0.396 . S
C1343 C483 0.403 . S
C1357 C615 0.422 . S
C1361 C714 0.391 . S
C1375 C648 0.399 . S
C1379 C747 0.427 . S
C1393 C780 0.427 . S
C1397 C681 0.401 . S
C1411 C912 0.390 . S
C1415 C813 0.416 . S
C1429 C945 0.413 . S
C1433 C846 0.391 . S
C1447 C978 0.409 . S
C1451 C879 0.425 . S
C1465 C1110 0.426 . S
C1469 C1011 0.407 . S
C1483 C1044 0.406 . S
C1487 C1143 0.427 . S
C1501 C1176 0.394 . S
C1505 C1077 0.426 . S
C1519 C7 1.702 . S
C1523 C964 1.704 . S
C1537 C898 1.698 . S
C1541 C40 1.703 . S
C1555 C73 1.705 . S
C1559 C931 1.692 . S
C1573 C436 1.702 . S
C1577 C106 1.695 . S
C1591 C139 1.713 . S
C1595 C469 1.694 . S
C1609 C403 1.695 . S
C1613 C172 1.693 1_655 S
C1627 C766 1.704 . S
C1631 C205 1.699 . S
C1645 C700 1.703 . S
C1649 C238 1.703 1_545 S
C1663 C733 1.693 . S
C1667 C271 1.693 1_655 S
C1681 C304 1.704 . S
C1685 C1030 1.701 . S
C1699 C1063 1.704 . S
C1703 C337 1.689 1_565 S
C1717 C370 1.693 1_455 S
C1721 C997 1.695 . S
C1735 C832 1.703 . S
C1739 C502 1.703 . S
C1753 C865 1.701 . S
C1757 C535 1.704 . S
C1771 C799 1.700 . S
C1775 C568 1.704 . S
C1789 C601 1.692 . S
C1793 C1162 1.697 . S
C1807 C634 1.693 . S
C1811 C1096 1.694 . S
C1825 C1129 1.698 . S
C1829 C667 1.704 . S
C1843 N13 1.252 . S
C1847 N607 1.252 . S
C1861 N640 1.264 . S
C1865 N46 1.264 . S
C1879 N79 1.255 . S
C1883 N673 1.255 . S
C1897 N1102 1.264 . S
C1901 N112 1.264 . S
C1915 N145 1.256 . S
C1919 N1135 1.256 . S
C1933 N1168 1.263 . S
C1937 N178 1.263 . S
C1951 N211 1.256 . S
C1955 N805 1.256 . S
C1969 N244 1.252 . S
C1973 N838 1.252 . S
C1987 N277 1.258 . S
C1991 N871 1.258 . S
C2005 N508 1.263 . S
C2009 N310 1.263 . S
C2023 N541 1.260 . S
C2027 N343 1.260 . S
C2041 N376 1.262 . S
C2045 N574 1.262 . S
C2059 N409 1.264 . S
C2063 N1003 1.264 . S
C2077 N1036 1.264 . S
C2081 N442 1.264 . S
C2095 N475 1.253 . S
C2099 N1069 1.253 . S
C2113 N904 1.257 . S
C2117 N706 1.257 . S
C2131 N739 1.264 . S
C2135 N937 1.264 . S
C2149 N970 1.251 . S
C2153 N772 1.251 . S
C2167 N233 1.541 . S
C2171 C18 1.618 . S
C2185 C51 1.620 . S
C2189 N266 1.552 . S
C2203 C84 1.619 . S
C2207 N200 1.548 . S
C2221 C117 1.620 . S
C2225 N365 1.554 . S
C2239 C150 1.618 . S
C2243 N299 1.543 . S
C2257 C183 1.619 . S
C2261 N332 1.548 . S
C2275 N35 1.556 . S
C2279 C216 1.620 . S
C2293 N68 1.550 . S
C2297 C249 1.619 . S
C2311 N2 1.553 . S
C2315 C282 1.620 . S
C2329 C315 1.618 . S
C2333 N167 1.542 . S
C2347 C348 1.619 . S
C2351 N101 1.546 . S
C2365 C381 1.620 . S
C2369 N134 1.554 . S
C2383 C414 1.618 . S
C2387 N629 1.542 . S
C2401 N662 1.548 . S
C2405 C447 1.619 . S
C2419 N596 1.543 . S
C2423 C480 1.619 . S
C2437 C513 1.618 . S
C2441 N761 1.544 . S
C2455 N695 1.551 . S
C2459 C546 1.619 . S
C2473 N728 1.546 . S
C2477 C579 1.619 . S
C2491 C612 1.619 . S
C2495 N431 1.549 . S
C2509 C645 1.619 . S
C2513 N464 1.546 . S
C2527 N398 1.542 . S
C2531 C678 1.618 . S
C2545 N563 1.554 . S
C2549 C711 1.620 . S
C2563 N497 1.543 . S
C2567 C744 1.619 . S
C2581 N530 1.556 . S
C2585 C777 1.621 . S
C2599 C810 1.620 . S
C2603 N1025 1.555 . S
C2617 N1058 1.543 . S
C2621 C843 1.618 . S
C2635 N992 1.556 . S
C2639 C876 1.620 . S
C2653 C909 1.618 . S
C2657 N1157 1.545 . S
C2671 C942 1.618 . S
C2675 N1091 1.541 . S
C2689 C975 1.620 . S
C2693 N1124 1.548 . S
C2707 N827 1.549 . S
C2711 C1008 1.619 . S
C2725 N860 1.553 . S
C2729 C1041 1.620 . S
C2743 C1074 1.621 . S
C2747 N794 1.556 . S
C2761 C1107 1.620 . S
C2765 N959 1.554 . S
C2779 C1140 1.619 . S
C2783 N893 1.548 . S
C2797 C1173 1.619 . S
C2801 N926 1.542 . S
